# Generated by pormake.
# Topology eea, (3,6)-cn, num edge types: 1
# Building blocks:
#     Node 0, Type 0, BuildingBlock: MIDCAF_clean_linker_0, # of connection points: 3
#     Node 1, Type 0, BuildingBlock: MIDCAF_clean_linker_0, # of connection points: 3
#     Node 2, Type 0, BuildingBlock: MIDCAF_clean_linker_0, # of connection points: 3
#     Node 3, Type 0, BuildingBlock: MIDCAF_clean_linker_0, # of connection points: 3
#     Node 4, Type 0, BuildingBlock: MIDCAF_clean_linker_0, # of connection points: 3
#     Node 5, Type 0, BuildingBlock: MIDCAF_clean_linker_0, # of connection points: 3
#     Node 6, Type 0, BuildingBlock: MIDCAF_clean_linker_0, # of connection points: 3
#     Node 7, Type 0, BuildingBlock: MIDCAF_clean_linker_0, # of connection points: 3
#     Node 8, Type 0, BuildingBlock: MIDCAF_clean_linker_0, # of connection points: 3
#     Node 9, Type 0, BuildingBlock: MIDCAF_clean_linker_0, # of connection points: 3
#     Node 10, Type 0, BuildingBlock: MIDCAF_clean_linker_0, # of connection points: 3
#     Node 11, Type 0, BuildingBlock: MIDCAF_clean_linker_0, # of connection points: 3
#     Node 12, Type 0, BuildingBlock: MIDCAF_clean_linker_0, # of connection points: 3
#     Node 13, Type 0, BuildingBlock: MIDCAF_clean_linker_0, # of connection points: 3
#     Node 14, Type 0, BuildingBlock: MIDCAF_clean_linker_0, # of connection points: 3
#     Node 15, Type 0, BuildingBlock: MIDCAF_clean_linker_0, # of connection points: 3
#     Node 16, Type 0, BuildingBlock: MIDCAF_clean_linker_0, # of connection points: 3
#     Node 17, Type 0, BuildingBlock: MIDCAF_clean_linker_0, # of connection points: 3
#     Node 18, Type 1, BuildingBlock: CUKXOW_clean_sbu_0, # of connection points: 6
#     Node 19, Type 1, BuildingBlock: CUKXOW_clean_sbu_0, # of connection points: 6
#     Node 20, Type 1, BuildingBlock: CUKXOW_clean_sbu_0, # of connection points: 6
#     Node 21, Type 1, BuildingBlock: CUKXOW_clean_sbu_0, # of connection points: 6
#     Node 22, Type 1, BuildingBlock: CUKXOW_clean_sbu_0, # of connection points: 6
#     Node 23, Type 1, BuildingBlock: CUKXOW_clean_sbu_0, # of connection points: 6
#     Node 24, Type 1, BuildingBlock: CUKXOW_clean_sbu_0, # of connection points: 6
#     Node 25, Type 1, BuildingBlock: CUKXOW_clean_sbu_0, # of connection points: 6
#     Node 26, Type 1, BuildingBlock: CUKXOW_clean_sbu_0, # of connection points: 6
#     Edge 27, Type (0, 1), BuildingBlock: KIFKEQ_clean_linker_1, # of connection points: 2
#     Edge 28, Type (0, 1), BuildingBlock: KIFKEQ_clean_linker_1, # of connection points: 2
#     Edge 29, Type (0, 1), BuildingBlock: KIFKEQ_clean_linker_1, # of connection points: 2
#     Edge 30, Type (0, 1), BuildingBlock: KIFKEQ_clean_linker_1, # of connection points: 2
#     Edge 31, Type (0, 1), BuildingBlock: KIFKEQ_clean_linker_1, # of connection points: 2
#     Edge 32, Type (0, 1), BuildingBlock: KIFKEQ_clean_linker_1, # of connection points: 2
#     Edge 33, Type (0, 1), BuildingBlock: KIFKEQ_clean_linker_1, # of connection points: 2
#     Edge 34, Type (0, 1), BuildingBlock: KIFKEQ_clean_linker_1, # of connection points: 2
#     Edge 35, Type (0, 1), BuildingBlock: KIFKEQ_clean_linker_1, # of connection points: 2
#     Edge 36, Type (0, 1), BuildingBlock: KIFKEQ_clean_linker_1, # of connection points: 2
#     Edge 37, Type (0, 1), BuildingBlock: KIFKEQ_clean_linker_1, # of connection points: 2
#     Edge 38, Type (0, 1), BuildingBlock: KIFKEQ_clean_linker_1, # of connection points: 2
#     Edge 39, Type (0, 1), BuildingBlock: KIFKEQ_clean_linker_1, # of connection points: 2
#     Edge 40, Type (0, 1), BuildingBlock: KIFKEQ_clean_linker_1, # of connection points: 2
#     Edge 41, Type (0, 1), BuildingBlock: KIFKEQ_clean_linker_1, # of connection points: 2
#     Edge 42, Type (0, 1), BuildingBlock: KIFKEQ_clean_linker_1, # of connection points: 2
#     Edge 43, Type (0, 1), BuildingBlock: KIFKEQ_clean_linker_1, # of connection points: 2
#     Edge 44, Type (0, 1), BuildingBlock: KIFKEQ_clean_linker_1, # of connection points: 2
#     Edge 45, Type (0, 1), BuildingBlock: KIFKEQ_clean_linker_1, # of connection points: 2
#     Edge 46, Type (0, 1), BuildingBlock: KIFKEQ_clean_linker_1, # of connection points: 2
#     Edge 47, Type (0, 1), BuildingBlock: KIFKEQ_clean_linker_1, # of connection points: 2
#     Edge 48, Type (0, 1), BuildingBlock: KIFKEQ_clean_linker_1, # of connection points: 2
#     Edge 49, Type (0, 1), BuildingBlock: KIFKEQ_clean_linker_1, # of connection points: 2
#     Edge 50, Type (0, 1), BuildingBlock: KIFKEQ_clean_linker_1, # of connection points: 2
#     Edge 51, Type (0, 1), BuildingBlock: KIFKEQ_clean_linker_1, # of connection points: 2
#     Edge 52, Type (0, 1), BuildingBlock: KIFKEQ_clean_linker_1, # of connection points: 2
#     Edge 53, Type (0, 1), BuildingBlock: KIFKEQ_clean_linker_1, # of connection points: 2
#     Edge 54, Type (0, 1), BuildingBlock: KIFKEQ_clean_linker_1, # of connection points: 2
#     Edge 55, Type (0, 1), BuildingBlock: KIFKEQ_clean_linker_1, # of connection points: 2
#     Edge 56, Type (0, 1), BuildingBlock: KIFKEQ_clean_linker_1, # of connection points: 2
#     Edge 57, Type (0, 1), BuildingBlock: KIFKEQ_clean_linker_1, # of connection points: 2
#     Edge 58, Type (0, 1), BuildingBlock: KIFKEQ_clean_linker_1, # of connection points: 2
#     Edge 59, Type (0, 1), BuildingBlock: KIFKEQ_clean_linker_1, # of connection points: 2
#     Edge 60, Type (0, 1), BuildingBlock: KIFKEQ_clean_linker_1, # of connection points: 2
#     Edge 61, Type (0, 1), BuildingBlock: KIFKEQ_clean_linker_1, # of connection points: 2
#     Edge 62, Type (0, 1), BuildingBlock: KIFKEQ_clean_linker_1, # of connection points: 2
#     Edge 63, Type (0, 1), BuildingBlock: KIFKEQ_clean_linker_1, # of connection points: 2
#     Edge 64, Type (0, 1), BuildingBlock: KIFKEQ_clean_linker_1, # of connection points: 2
#     Edge 65, Type (0, 1), BuildingBlock: KIFKEQ_clean_linker_1, # of connection points: 2
#     Edge 66, Type (0, 1), BuildingBlock: KIFKEQ_clean_linker_1, # of connection points: 2
#     Edge 67, Type (0, 1), BuildingBlock: KIFKEQ_clean_linker_1, # of connection points: 2
#     Edge 68, Type (0, 1), BuildingBlock: KIFKEQ_clean_linker_1, # of connection points: 2
#     Edge 69, Type (0, 1), BuildingBlock: KIFKEQ_clean_linker_1, # of connection points: 2
#     Edge 70, Type (0, 1), BuildingBlock: KIFKEQ_clean_linker_1, # of connection points: 2
#     Edge 71, Type (0, 1), BuildingBlock: KIFKEQ_clean_linker_1, # of connection points: 2
#     Edge 72, Type (0, 1), BuildingBlock: KIFKEQ_clean_linker_1, # of connection points: 2
#     Edge 73, Type (0, 1), BuildingBlock: KIFKEQ_clean_linker_1, # of connection points: 2
#     Edge 74, Type (0, 1), BuildingBlock: KIFKEQ_clean_linker_1, # of connection points: 2
#     Edge 75, Type (0, 1), BuildingBlock: KIFKEQ_clean_linker_1, # of connection points: 2
#     Edge 76, Type (0, 1), BuildingBlock: KIFKEQ_clean_linker_1, # of connection points: 2
#     Edge 77, Type (0, 1), BuildingBlock: KIFKEQ_clean_linker_1, # of connection points: 2
#     Edge 78, Type (0, 1), BuildingBlock: KIFKEQ_clean_linker_1, # of connection points: 2
#     Edge 79, Type (0, 1), BuildingBlock: KIFKEQ_clean_linker_1, # of connection points: 2
#     Edge 80, Type (0, 1), BuildingBlock: KIFKEQ_clean_linker_1, # of connection points: 2
# Relax obj value: 0.018
# Max RMSD: 0.126
# Mean RMSD: 0.056
data_MOF--net-eea--node1-CUKXOW_clean_sbu_0--node2-MIDCAF_clean_linker_0--edge1-KIFKEQ_clean_linker_1
_symmetry_space_group_name_H-M    P1
_symmetry_Int_Tables_number       1
_symmetry_cell_setting            triclinic
loop_
_symmetry_equiv_pos_as_xyz
'x, y, z'
_cell_length_a     67.938154
_cell_length_b     64.920303
_cell_length_c     74.350758
_cell_angle_alpha  93.094094
_cell_angle_beta   93.051913
_cell_angle_gamma 119.89342
loop_
_atom_site_label
_atom_site_type_symbol
_atom_site_fract_x
_atom_site_fract_y
_atom_site_fract_z
_atom_type_partial_charge
C0 C 0.24719 0.05569 0.41643 0.0
C1 C 0.23571 0.04871 0.39899 0.0
C2 C 0.23181 0.06503 0.39001 0.0
C3 C 0.23868 0.08762 0.39854 0.0
H4 H 0.23661 0.1487 0.39224 0.0
H5 H 0.225 0.17439 0.37821 0.0
H6 H 0.25004 0.22266 0.42697 0.0
H7 H 0.26131 0.19673 0.44124 0.0
H8 H 0.2803 0.18294 0.47624 0.0
H9 H 0.29281 0.18913 0.50854 0.0
H10 H 0.29109 0.12164 0.50504 0.0
H11 H 0.27853 0.11527 0.47308 0.0
H12 H 0.26263 0.0828 0.43847 0.0
H13 H 0.25082 0.04367 0.42357 0.0
H14 H 0.22288 0.0601 0.3766 0.0
H15 H 0.23499 0.09958 0.39138 0.0
N16 N 0.25112 0.13325 0.41769 0.0
N17 N 0.26474 0.1592 0.44436 0.0
N18 N 0.26469 0.12304 0.44329 0.0
C19 C 0.25568 0.1541 0.42681 0.0
C20 C 0.26934 0.14372 0.45267 0.0
C21 C 0.25563 0.11764 0.42583 0.0
C22 C 0.24981 0.17052 0.41794 0.0
C23 C 0.23977 0.16482 0.4 0.0
C24 C 0.23322 0.17964 0.39188 0.0
C25 C 0.23654 0.20054 0.40148 0.0
C26 C 0.24695 0.2065 0.41929 0.0
C27 C 0.25353 0.19168 0.42743 0.0
C28 C 0.27821 0.14851 0.47202 0.0
C29 C 0.28268 0.16947 0.48234 0.0
C30 C 0.28991 0.17308 0.50082 0.0
C31 C 0.29265 0.15574 0.50934 0.0
C32 C 0.2887 0.13512 0.49893 0.0
C33 C 0.2816 0.13155 0.48054 0.0
C34 C 0.24963 0.09437 0.4162 0.0
C35 C 0.25408 0.07823 0.42493 0.0
C36 C 0.94827 0.20387 0.42572 0.0
C37 C 0.95584 0.19374 0.41252 0.0
C38 C 0.94206 0.16936 0.40666 0.0
C39 C 0.92106 0.15559 0.41347 0.0
H40 H 0.85992 0.09437 0.39964 0.0
H41 H 0.83385 0.05449 0.38506 0.0
H42 H 0.78718 0.04292 0.42573 0.0
H43 H 0.81327 0.08254 0.44051 0.0
H44 H 0.82546 0.12061 0.47159 0.0
H45 H 0.81789 0.12886 0.50187 0.0
H46 H 0.8851 0.19122 0.5105 0.0
H47 H 0.89285 0.18315 0.47996 0.0
H48 H 0.92187 0.19837 0.44272 0.0
H49 H 0.9583 0.22264 0.43041 0.0
H50 H 0.94753 0.16077 0.39684 0.0
H51 H 0.91094 0.13689 0.40856 0.0
N52 N 0.87561 0.12952 0.4245 0.0
N53 N 0.85018 0.1229 0.44645 0.0
N54 N 0.8857 0.15818 0.44915 0.0
C55 C 0.85514 0.11543 0.43084 0.0
C56 C 0.86527 0.14419 0.45569 0.0
C57 C 0.89095 0.15093 0.43351 0.0
C58 C 0.83881 0.09169 0.42134 0.0
C59 C 0.84407 0.08339 0.40547 0.0
C60 C 0.82908 0.06056 0.39704 0.0
C61 C 0.80852 0.04551 0.40431 0.0
C62 C 0.80306 0.05395 0.41997 0.0
C63 C 0.818 0.07676 0.42838 0.0
C64 C 0.85993 0.15101 0.47337 0.0
C65 C 0.83865 0.13624 0.47979 0.0
C66 C 0.83427 0.14091 0.49719 0.0
C67 C 0.85101 0.16048 0.50862 0.0
C68 C 0.87186 0.17603 0.50195 0.0
C69 C 0.87631 0.17132 0.48448 0.0
C70 C 0.91338 0.16573 0.42652 0.0
C71 C 0.92731 0.18998 0.43271 0.0
C72 C 0.82069 0.76145 0.43577 0.0
C73 C 0.82025 0.76418 0.41718 0.0
C74 C 0.83504 0.76047 0.40679 0.0
C75 C 0.85031 0.7545 0.41491 0.0
H76 H 0.91532 0.76741 0.41109 0.0
H77 H 0.95054 0.77893 0.39739 0.0
H78 H 0.97306 0.75171 0.44077 0.0
H79 H 0.9375 0.73974 0.45452 0.0
H80 H 0.90713 0.72291 0.48885 0.0
H81 H 0.89874 0.70419 0.51727 0.0
H82 H 0.83041 0.6928 0.51035 0.0
H83 H 0.83854 0.71116 0.48208 0.0
H84 H 0.83567 0.75311 0.45823 0.0
H85 H 0.80933 0.76412 0.44402 0.0
H86 H 0.83506 0.76259 0.39243 0.0
H87 H 0.86167 0.75195 0.40658 0.0
N88 N 0.88662 0.75101 0.43447 0.0
N89 N 0.8979 0.7357 0.45823 0.0
N90 N 0.8632 0.73541 0.45791 0.0
C91 C 0.90212 0.74614 0.44242 0.0
C92 C 0.87838 0.73018 0.46601 0.0
C93 C 0.86719 0.74577 0.44214 0.0
C94 C 0.92352 0.75267 0.43398 0.0
C95 C 0.92769 0.7638 0.41778 0.0
C96 C 0.94798 0.77057 0.40994 0.0
C97 C 0.96465 0.7664 0.41806 0.0
C98 C 0.96045 0.75502 0.43413 0.0
C99 C 0.94011 0.74826 0.44204 0.0
C100 C 0.87353 0.71859 0.48315 0.0
C101 C 0.89028 0.71631 0.49335 0.0
C102 C 0.88553 0.70568 0.50966 0.0
C103 C 0.86388 0.69691 0.51597 0.0
C104 C 0.84714 0.69905 0.50571 0.0
C105 C 0.8519 0.70978 0.48954 0.0
C106 C 0.85076 0.7517 0.43352 0.0
C107 C 0.83566 0.75503 0.44385 0.0
C108 C 0.04349 0.24835 0.57157 0.0
C109 C 0.04034 0.23875 0.58839 0.0
C110 C 0.05722 0.2348 0.59638 0.0
C111 C 0.07677 0.24025 0.58777 0.0
H112 H 0.13046 0.22988 0.59106 0.0
H113 H 0.15664 0.21837 0.6043 0.0
H114 H 0.20235 0.25174 0.56329 0.0
H115 H 0.17632 0.26362 0.55007 0.0
H116 H 0.16392 0.29028 0.52176 0.0
H117 H 0.1717 0.3085 0.4934 0.0
H118 H 0.10355 0.29774 0.4873 0.0
H119 H 0.09553 0.27916 0.51579 0.0
H120 H 0.06504 0.26131 0.55002 0.0
H121 H 0.03085 0.25179 0.56515 0.0
H122 H 0.05517 0.2271 0.6092 0.0
H123 H 0.08932 0.23683 0.59437 0.0
N124 N 0.11591 0.24961 0.56927 0.0
N125 N 0.1392 0.26546 0.54581 0.0
N126 N 0.10506 0.26626 0.54626 0.0
C127 C 0.13512 0.25451 0.56134 0.0
C128 C 0.1243 0.2714 0.53816 0.0
C129 C 0.10082 0.25542 0.56189 0.0
C130 C 0.15122 0.24769 0.56946 0.0
C131 C 0.14608 0.23484 0.58483 0.0
C132 C 0.16102 0.22808 0.59238 0.0
C133 C 0.1815 0.23406 0.5848 0.0
C134 C 0.18677 0.24704 0.56952 0.0
C135 C 0.17177 0.25374 0.5619 0.0
C136 C 0.12906 0.28317 0.52109 0.0
C137 C 0.15054 0.29179 0.51446 0.0
C138 C 0.15509 0.30244 0.49824 0.0
C139 C 0.13828 0.30466 0.48815 0.0
C140 C 0.1168 0.29615 0.49474 0.0
C141 C 0.11227 0.28562 0.51111 0.0
C142 C 0.08 0.24986 0.57094 0.0
C143 C 0.06314 0.25391 0.56295 0.0
C144 C 0.75239 0.79591 0.58474 0.0
C145 C 0.76323 0.80159 0.60241 0.0
C146 C 0.76708 0.82253 0.61228 0.0
C147 C 0.7605 0.83758 0.60463 0.0
H148 H 0.77799 0.90905 0.60805 0.0
H149 H 0.78963 0.94759 0.62448 0.0
H150 H 0.73653 0.95182 0.59335 0.0
H151 H 0.72508 0.91343 0.57653 0.0
H152 H 0.7316 0.89202 0.53077 0.0
H153 H 0.71753 0.88463 0.49886 0.0
H154 H 0.69026 0.80908 0.50149 0.0
H155 H 0.70468 0.81638 0.53347 0.0
H156 H 0.73759 0.80613 0.56339 0.0
H157 H 0.74894 0.77975 0.57686 0.0
H158 H 0.77566 0.8276 0.62583 0.0
H159 H 0.76402 0.85368 0.61264 0.0
N160 N 0.74908 0.8696 0.58806 0.0
N161 N 0.73423 0.88027 0.56344 0.0
N162 N 0.73373 0.84379 0.56144 0.0
C163 C 0.74423 0.88537 0.58063 0.0
C164 C 0.72895 0.85952 0.55375 0.0
C165 C 0.74381 0.84872 0.57864 0.0
C166 C 0.75065 0.90826 0.59096 0.0
C167 C 0.7687 0.91811 0.60475 0.0
C168 C 0.77543 0.94016 0.61411 0.0
C169 C 0.76392 0.95251 0.61014 0.0
C170 C 0.74555 0.94248 0.59668 0.0
C171 C 0.73912 0.92064 0.58702 0.0
C172 C 0.71929 0.85478 0.53466 0.0
C173 C 0.72249 0.8738 0.52462 0.0
C174 C 0.71457 0.86962 0.50633 0.0
C175 C 0.70292 0.84632 0.49777 0.0
C176 C 0.69916 0.8272 0.50784 0.0
C177 C 0.70748 0.83141 0.52609 0.0
C178 C 0.7499 0.8321 0.58688 0.0
C179 C 0.74577 0.81098 0.57706 0.0
C180 C 0.19476 0.94862 0.58139 0.0
C181 C 0.19021 0.95619 0.59791 0.0
C182 C 0.16995 0.94081 0.60542 0.0
C183 C 0.15437 0.91852 0.59642 0.0
H184 H 0.08663 0.86567 0.59302 0.0
H185 H 0.05051 0.84124 0.60525 0.0
H186 H 0.03906 0.78035 0.57002 0.0
H187 H 0.07499 0.80518 0.55722 0.0
H188 H 0.10425 0.82011 0.52046 0.0
H189 H 0.11285 0.81069 0.49065 0.0
H190 H 0.17837 0.87561 0.49793 0.0
H191 H 0.17018 0.88472 0.52761 0.0
H192 H 0.18332 0.92125 0.55964 0.0
H193 H 0.21038 0.95992 0.57538 0.0
H194 H 0.16589 0.94623 0.61807 0.0
H195 H 0.13879 0.90726 0.60248 0.0
N196 N 0.12161 0.87359 0.57623 0.0
N197 N 0.11092 0.84568 0.55095 0.0
N198 N 0.14654 0.88083 0.55378 0.0
C199 C 0.10602 0.85248 0.56695 0.0
C200 C 0.13121 0.85985 0.54427 0.0
C201 C 0.14195 0.88784 0.56977 0.0
C202 C 0.08381 0.83738 0.57419 0.0
C203 C 0.07646 0.84707 0.58785 0.0
C204 C 0.05573 0.83298 0.59495 0.0
C205 C 0.04189 0.80871 0.58878 0.0
C206 C 0.04913 0.79903 0.57497 0.0
C207 C 0.06981 0.81324 0.5677 0.0
C208 C 0.13648 0.85321 0.52649 0.0
C209 C 0.12057 0.83226 0.51576 0.0
C210 C 0.12544 0.82691 0.49863 0.0
C211 C 0.14632 0.84236 0.49191 0.0
C212 C 0.16229 0.86307 0.50278 0.0
C213 C 0.15747 0.8684 0.51982 0.0
C214 C 0.15876 0.91109 0.57972 0.0
C215 C 0.17926 0.92635 0.57241 0.0
C216 C 0.92058 0.39245 0.74228 0.0
C217 C 0.91101 0.38736 0.72423 0.0
C218 C 0.90786 0.40461 0.71598 0.0
C219 C 0.91334 0.42606 0.72575 0.0
H220 H 0.89957 0.4796 0.72383 0.0
H221 H 0.88748 0.50514 0.71016 0.0
H222 H 0.91368 0.55375 0.75871 0.0
H223 H 0.92608 0.52834 0.77247 0.0
H224 H 0.92117 0.49158 0.81079 0.0
H225 H 0.93267 0.4952 0.84292 0.0
H226 H 0.98278 0.47537 0.82997 0.0
H227 H 0.96981 0.46996 0.79807 0.0
H228 H 0.93284 0.41692 0.76607 0.0
H229 H 0.92302 0.37945 0.74909 0.0
H230 H 0.90087 0.4014 0.70201 0.0
H231 H 0.91023 0.43869 0.71903 0.0
N232 N 0.91929 0.46713 0.74753 0.0
N233 N 0.9294 0.4905 0.77526 0.0
N234 N 0.93431 0.45716 0.77246 0.0
C235 C 0.92114 0.48622 0.75757 0.0
C236 C 0.93613 0.4761 0.78272 0.0
C237 C 0.92578 0.45248 0.75484 0.0
C238 C 0.91381 0.50187 0.7493 0.0
C239 C 0.90283 0.49573 0.73165 0.0
C240 C 0.89576 0.51029 0.72381 0.0
C241 C 0.89959 0.5314 0.73337 0.0
C242 C 0.91068 0.53768 0.75096 0.0
C243 C 0.91766 0.52303 0.75887 0.0
C244 C 0.94449 0.48031 0.80202 0.0
C245 C 0.93468 0.48809 0.81491 0.0
C246 C 0.94144 0.4903 0.83335 0.0
C247 C 0.95861 0.4854 0.83928 0.0
C248 C 0.96902 0.47858 0.82615 0.0
C249 C 0.96177 0.47569 0.80779 0.0
C250 C 0.92211 0.43079 0.74401 0.0
C251 C 0.9261 0.41392 0.75205 0.0
C252 C 0.6187 0.53659 0.76096 0.0
C253 C 0.6257 0.52681 0.74705 0.0
C254 C 0.61168 0.50256 0.74087 0.0
C255 C 0.59104 0.48857 0.74813 0.0
H256 H 0.52832 0.42821 0.7344 0.0
H257 H 0.50079 0.38914 0.71917 0.0
H258 H 0.45743 0.37624 0.7626 0.0
H259 H 0.48491 0.41501 0.77797 0.0
H260 H 0.49853 0.45251 0.80959 0.0
H261 H 0.49113 0.46234 0.83939 0.0
H262 H 0.55729 0.52645 0.84585 0.0
H263 H 0.56507 0.51633 0.81593 0.0
H264 H 0.59316 0.53064 0.77896 0.0
H265 H 0.6289 0.55526 0.7659 0.0
H266 H 0.61671 0.49424 0.73047 0.0
H267 H 0.58072 0.46997 0.74298 0.0
N268 N 0.54616 0.46219 0.76042 0.0
N269 N 0.52175 0.45542 0.78322 0.0
N270 N 0.55739 0.49048 0.7855 0.0
C271 C 0.52598 0.44812 0.76719 0.0
C272 C 0.53729 0.47652 0.79249 0.0
C273 C 0.56194 0.4834 0.76946 0.0
C274 C 0.50895 0.42478 0.75749 0.0
C275 C 0.5129 0.4171 0.74071 0.0
C276 C 0.49707 0.39475 0.73191 0.0
C277 C 0.477 0.37958 0.73973 0.0
C278 C 0.4729 0.38739 0.75635 0.0
C279 C 0.48864 0.40971 0.76512 0.0
C280 C 0.53247 0.48356 0.81031 0.0
C281 C 0.51154 0.46881 0.81723 0.0
C282 C 0.50718 0.47455 0.83433 0.0
C283 C 0.52357 0.49524 0.845 0.0
C284 C 0.54439 0.51026 0.83802 0.0
C285 C 0.54879 0.50451 0.82084 0.0
C286 C 0.58397 0.49836 0.76194 0.0
C287 C 0.59813 0.52249 0.76838 0.0
C288 C 0.47664 0.08193 0.76196 0.0
C289 C 0.48274 0.09595 0.74725 0.0
C290 C 0.50379 0.10266 0.74039 0.0
C291 C 0.51841 0.09555 0.74806 0.0
H292 H 0.5746 0.09191 0.73904 0.0
H293 H 0.60991 0.10355 0.72553 0.0
H294 H 0.63399 0.08037 0.77074 0.0
H295 H 0.59823 0.0682 0.7843 0.0
H296 H 0.55853 0.03546 0.81199 0.0
H297 H 0.54918 0.01666 0.84032 0.0
H298 H 0.49658 0.03519 0.8446 0.0
H299 H 0.50529 0.05308 0.81629 0.0
H300 H 0.48601 0.06409 0.781 0.0
H301 H 0.4604 0.07615 0.7674 0.0
H302 H 0.50917 0.11375 0.72924 0.0
H303 H 0.53454 0.10121 0.74247 0.0
N304 N 0.54746 0.07924 0.76362 0.0
N305 N 0.55738 0.06209 0.78686 0.0
N306 N 0.52349 0.06349 0.78667 0.0
C307 C 0.5622 0.07313 0.7713 0.0
C308 C 0.53797 0.05721 0.79461 0.0
C309 C 0.52808 0.07447 0.77118 0.0
C310 C 0.58354 0.07922 0.76287 0.0
C311 C 0.58732 0.08919 0.74618 0.0
C312 C 0.60768 0.09603 0.73843 0.0
C313 C 0.62488 0.09315 0.74715 0.0
C314 C 0.621 0.08271 0.76365 0.0
C315 C 0.60054 0.07582 0.77144 0.0
C316 C 0.53263 0.04572 0.81178 0.0
C317 C 0.54491 0.03541 0.81897 0.0
C318 C 0.5396 0.0247 0.83524 0.0
C319 C 0.522 0.02422 0.84471 0.0
C320 C 0.50986 0.03466 0.8375 0.0
C321 C 0.51501 0.04513 0.82125 0.0
C322 C 0.51237 0.08164 0.76284 0.0
C323 C 0.49129 0.07489 0.76969 0.0
C324 C 0.71007 0.5769 0.90155 0.0
C325 C 0.70653 0.56669 0.91813 0.0
C326 C 0.72316 0.56232 0.92606 0.0
C327 C 0.74295 0.56813 0.91769 0.0
H328 H 0.79791 0.5594 0.92142 0.0
H329 H 0.82487 0.5493 0.93516 0.0
H330 H 0.87292 0.58842 0.89697 0.0
H331 H 0.84571 0.59809 0.88286 0.0
H332 H 0.83184 0.62215 0.85324 0.0
H333 H 0.83968 0.64114 0.82519 0.0
H334 H 0.77106 0.62903 0.81889 0.0
H335 H 0.76298 0.60969 0.84702 0.0
H336 H 0.7322 0.59076 0.88046 0.0
H337 H 0.69764 0.58066 0.89518 0.0
H338 H 0.72079 0.55415 0.93868 0.0
H339 H 0.75535 0.56448 0.92426 0.0
N340 N 0.78333 0.57968 0.90012 0.0
N341 N 0.80719 0.59684 0.87718 0.0
N342 N 0.77228 0.59607 0.87705 0.0
C343 C 0.803 0.58555 0.89256 0.0
C344 C 0.79193 0.60214 0.86931 0.0
C345 C 0.7679 0.58488 0.89251 0.0
C346 C 0.81959 0.57959 0.901 0.0
C347 C 0.81421 0.5659 0.91591 0.0
C348 C 0.82975 0.56019 0.92388 0.0
C349 C 0.8511 0.56811 0.91722 0.0
C350 C 0.8565 0.58178 0.9023 0.0
C351 C 0.84092 0.58744 0.89427 0.0
C352 C 0.79674 0.6143 0.85242 0.0
C353 C 0.81837 0.62352 0.84596 0.0
C354 C 0.82295 0.63461 0.82992 0.0
C355 C 0.80602 0.63668 0.81987 0.0
C356 C 0.7844 0.62756 0.8263 0.0
C357 C 0.77983 0.61659 0.84246 0.0
C358 C 0.74665 0.57851 0.90117 0.0
C359 C 0.72995 0.58279 0.89317 0.0
C360 C 0.41306 0.12588 0.9188 0.0
C361 C 0.43366 0.135 0.92973 0.0
C362 C 0.44764 0.15977 0.9335 0.0
C363 C 0.44102 0.17523 0.92661 0.0
H364 H 0.45325 0.24643 0.93348 0.0
H365 H 0.46651 0.28615 0.94875 0.0
H366 H 0.40657 0.28511 0.92519 0.0
H367 H 0.3935 0.24573 0.90957 0.0
H368 H 0.38769 0.22166 0.86476 0.0
H369 H 0.37042 0.21368 0.834 0.0
H370 H 0.35512 0.14052 0.83337 0.0
H371 H 0.37331 0.14879 0.86412 0.0
H372 H 0.39076 0.13389 0.90308 0.0
H373 H 0.40207 0.1068 0.91571 0.0
H374 H 0.46356 0.16716 0.94197 0.0
H375 H 0.4521 0.19427 0.92981 0.0
N376 N 0.42091 0.2043 0.91712 0.0
N377 N 0.40166 0.21311 0.89447 0.0
N378 N 0.40057 0.17639 0.89211 0.0
C379 C 0.4147 0.21951 0.91047 0.0
C380 C 0.39464 0.19168 0.88512 0.0
C381 C 0.41371 0.18262 0.9081 0.0
C382 C 0.42238 0.24303 0.9203 0.0
C383 C 0.44287 0.25464 0.93162 0.0
C384 C 0.45051 0.27735 0.94029 0.0
C385 C 0.4375 0.28853 0.93811 0.0
C386 C 0.4168 0.27674 0.92712 0.0
C387 C 0.40942 0.2543 0.91814 0.0
C388 C 0.38206 0.18591 0.86694 0.0
C389 C 0.38048 0.20377 0.85819 0.0
C390 C 0.37039 0.19914 0.8405 0.0
C391 C 0.36134 0.17644 0.83111 0.0
C392 C 0.36225 0.15833 0.84006 0.0
C393 C 0.37257 0.16303 0.85775 0.0
C394 C 0.42053 0.16618 0.91549 0.0
C395 C 0.40668 0.14136 0.91155 0.0
C396 C 0.86464 0.27674 0.92533 0.0
C397 C 0.85878 0.28332 0.94163 0.0
C398 C 0.83813 0.26717 0.94825 0.0
C399 C 0.82346 0.24507 0.93862 0.0
H400 H 0.76777 0.17581 0.94258 0.0
H401 H 0.73099 0.15081 0.95411 0.0
H402 H 0.70014 0.12323 0.89954 0.0
H403 H 0.73707 0.14808 0.88789 0.0
H404 H 0.776 0.15173 0.85954 0.0
H405 H 0.78372 0.14536 0.82865 0.0
H406 H 0.84762 0.21202 0.83632 0.0
H407 H 0.83998 0.21862 0.86699 0.0
H408 H 0.85489 0.25042 0.90301 0.0
H409 H 0.88032 0.28891 0.91977 0.0
H410 H 0.83329 0.27163 0.96089 0.0
H411 H 0.80757 0.23319 0.94405 0.0
N412 N 0.79284 0.20039 0.9176 0.0
N413 N 0.78208 0.17532 0.89063 0.0
N414 N 0.81741 0.21084 0.89459 0.0
C415 C 0.77738 0.18009 0.90739 0.0
C416 C 0.80219 0.19058 0.88419 0.0
C417 C 0.81288 0.2159 0.91129 0.0
C418 C 0.75531 0.16394 0.91431 0.0
C419 C 0.75319 0.16434 0.93302 0.0
C420 C 0.73219 0.14996 0.93964 0.0
C421 C 0.71279 0.13518 0.92769 0.0
C422 C 0.71486 0.13461 0.909 0.0
C423 C 0.736 0.1487 0.90237 0.0
C424 C 0.80725 0.18581 0.86576 0.0
C425 C 0.79176 0.16499 0.85469 0.0
C426 C 0.79622 0.16124 0.83702 0.0
C427 C 0.81619 0.17827 0.83003 0.0
C428 C 0.83192 0.19874 0.84124 0.0
C429 C 0.82753 0.20246 0.85887 0.0
C430 C 0.82908 0.23867 0.9221 0.0
C431 C 0.84996 0.25469 0.91567 0.0
C432 C 0.5792 0.72362 0.08561 0.0
C433 C 0.56607 0.71591 0.06881 0.0
C434 C 0.55933 0.73096 0.06104 0.0
C435 C 0.56547 0.75316 0.06993 0.0
H436 H 0.54783 0.80769 0.07336 0.0
H437 H 0.53618 0.83358 0.05977 0.0
H438 H 0.59464 0.89519 0.08873 0.0
H439 H 0.60535 0.86896 0.10316 0.0
H440 H 0.60969 0.84914 0.14677 0.0
H441 H 0.62702 0.85779 0.1779 0.0
H442 H 0.6373 0.79744 0.17102 0.0
H443 H 0.62035 0.78893 0.14002 0.0
H444 H 0.59528 0.75098 0.10749 0.0
H445 H 0.58441 0.71233 0.09208 0.0
H446 H 0.54942 0.72564 0.04802 0.0
H447 H 0.55993 0.76425 0.06355 0.0
N448 N 0.57861 0.799 0.0889 0.0
N449 N 0.59586 0.82676 0.11445 0.0
N450 N 0.5962 0.79077 0.11317 0.0
C451 C 0.58425 0.82036 0.09775 0.0
C452 C 0.60183 0.81197 0.12229 0.0
C453 C 0.58465 0.78414 0.09648 0.0
C454 C 0.57748 0.83629 0.08934 0.0
C455 C 0.55816 0.82678 0.07682 0.0
C456 C 0.55159 0.84172 0.06891 0.0
C457 C 0.56449 0.86665 0.07299 0.0
C458 C 0.58397 0.87612 0.08546 0.0
C459 C 0.59024 0.8611 0.09367 0.0
C460 C 0.61353 0.81827 0.14085 0.0
C461 C 0.61583 0.83784 0.15184 0.0
C462 C 0.62564 0.84273 0.16972 0.0
C463 C 0.63353 0.82831 0.17693 0.0
C464 C 0.63166 0.80909 0.16582 0.0
C465 C 0.62177 0.80411 0.14804 0.0
C466 C 0.57845 0.7608 0.08682 0.0
C467 C 0.5853 0.74577 0.09451 0.0
C468 C 0.28289 0.86961 0.0925 0.0
C469 C 0.28842 0.86183 0.07653 0.0
C470 C 0.27229 0.83983 0.06725 0.0
C471 C 0.25125 0.82571 0.07388 0.0
H472 H 0.19117 0.76416 0.06056 0.0
H473 H 0.16538 0.72495 0.04469 0.0
H474 H 0.12315 0.70633 0.08922 0.0
H475 H 0.14889 0.74524 0.10522 0.0
H476 H 0.16872 0.77527 0.14178 0.0
H477 H 0.16168 0.78207 0.17261 0.0
H478 H 0.21279 0.85652 0.17383 0.0
H479 H 0.22019 0.84979 0.14272 0.0
H480 H 0.25822 0.86168 0.11173 0.0
H481 H 0.29505 0.88647 0.09997 0.0
H482 H 0.2759 0.83353 0.05475 0.0
H483 H 0.2394 0.80878 0.06636 0.0
N484 N 0.20831 0.79646 0.08776 0.0
N485 N 0.1845 0.78655 0.11123 0.0
N486 N 0.21939 0.82261 0.11418 0.0
C487 C 0.18859 0.78104 0.09452 0.0
C488 C 0.19968 0.80724 0.12115 0.0
C489 C 0.22381 0.81728 0.09744 0.0
C490 C 0.17225 0.75786 0.08426 0.0
C491 C 0.17633 0.75178 0.06695 0.0
C492 C 0.1615 0.72935 0.0578 0.0
C493 C 0.14235 0.71251 0.06578 0.0
C494 C 0.13798 0.7188 0.08286 0.0
C495 C 0.15271 0.74119 0.09198 0.0
C496 C 0.19511 0.81199 0.13975 0.0
C497 C 0.17846 0.79317 0.14848 0.0
C498 C 0.17446 0.797 0.16621 0.0
C499 C 0.18676 0.81977 0.17559 0.0
C500 C 0.20304 0.8388 0.16682 0.0
C501 C 0.20733 0.8349 0.14908 0.0
C502 C 0.2458 0.83313 0.09008 0.0
C503 C 0.26183 0.85535 0.09925 0.0
C504 C 0.14712 0.41801 0.0967 0.0
C505 C 0.15287 0.43045 0.08115 0.0
C506 C 0.17361 0.43621 0.07414 0.0
C507 C 0.18841 0.42986 0.08258 0.0
H508 H 0.24892 0.43513 0.07857 0.0
H509 H 0.28397 0.44562 0.06508 0.0
H510 H 0.30274 0.41282 0.10655 0.0
H511 H 0.2676 0.40265 0.12048 0.0
H512 H 0.23716 0.38812 0.15529 0.0
H513 H 0.22921 0.3731 0.18506 0.0
H514 H 0.16236 0.3656 0.17807 0.0
H515 H 0.17026 0.38084 0.14869 0.0
H516 H 0.15709 0.40235 0.11725 0.0
H517 H 0.13133 0.41352 0.1025 0.0
H518 H 0.17836 0.4455 0.06204 0.0
H519 H 0.20428 0.43469 0.0768 0.0
N520 N 0.21864 0.41674 0.10034 0.0
N521 N 0.22918 0.40166 0.12468 0.0
N522 N 0.19446 0.40142 0.12332 0.0
C523 C 0.23384 0.41184 0.10877 0.0
C524 C 0.20944 0.39637 0.13202 0.0
C525 C 0.19892 0.4116 0.10747 0.0
C526 C 0.25533 0.41796 0.10063 0.0
C527 C 0.2604 0.43005 0.08488 0.0
C528 C 0.2805 0.43597 0.07703 0.0
C529 C 0.29607 0.4299 0.08464 0.0
C530 C 0.29114 0.4179 0.10044 0.0
C531 C 0.27096 0.41199 0.10836 0.0
C532 C 0.20445 0.38594 0.14962 0.0
C533 C 0.22073 0.38318 0.16008 0.0
C534 C 0.21617 0.37449 0.17711 0.0
C535 C 0.19527 0.36845 0.184 0.0
C536 C 0.17882 0.3706 0.17332 0.0
C537 C 0.18334 0.37925 0.15638 0.0
C538 C 0.18284 0.41767 0.09827 0.0
C539 C 0.16197 0.41173 0.10519 0.0
C540 C 0.38168 0.91586 0.23831 0.0
C541 C 0.37655 0.90318 0.25377 0.0
C542 C 0.39157 0.89593 0.26064 0.0
C543 C 0.41127 0.90126 0.25232 0.0
H544 H 0.46489 0.89022 0.25575 0.0
H545 H 0.49106 0.87904 0.26944 0.0
H546 H 0.54113 0.92057 0.23327 0.0
H547 H 0.51464 0.93117 0.21914 0.0
H548 H 0.49672 0.94439 0.18436 0.0
H549 H 0.50304 0.95919 0.15474 0.0
H550 H 0.44048 0.96134 0.15348 0.0
H551 H 0.43409 0.94666 0.18344 0.0
H552 H 0.40487 0.93098 0.21806 0.0
H553 H 0.37058 0.92193 0.2328 0.0
H554 H 0.38794 0.88577 0.27232 0.0
H555 H 0.42232 0.89523 0.258 0.0
N556 N 0.45239 0.91363 0.23575 0.0
N557 N 0.47548 0.9283 0.21202 0.0
N558 N 0.44148 0.92938 0.2121 0.0
C559 C 0.47152 0.91814 0.22788 0.0
C560 C 0.46056 0.93395 0.20401 0.0
C561 C 0.43732 0.91924 0.22803 0.0
C562 C 0.48764 0.91162 0.23634 0.0
C563 C 0.48148 0.89702 0.2507 0.0
C564 C 0.49656 0.89068 0.25863 0.0
C565 C 0.51825 0.89897 0.25251 0.0
C566 C 0.52443 0.91359 0.23815 0.0
C567 C 0.50927 0.91978 0.23012 0.0
C568 C 0.46479 0.94413 0.1863 0.0
C569 C 0.48426 0.94803 0.17789 0.0
C570 C 0.48785 0.95641 0.16082 0.0
C571 C 0.47211 0.96114 0.1517 0.0
C572 C 0.45292 0.95789 0.16023 0.0
C573 C 0.44926 0.9494 0.17736 0.0
C574 C 0.41643 0.91389 0.23684 0.0
C575 C 0.4014 0.92114 0.22992 0.0
C576 C 0.08299 0.45904 0.25174 0.0
C577 C 0.09555 0.46631 0.26879 0.0
C578 C 0.10063 0.48825 0.27772 0.0
C579 C 0.09376 0.50283 0.26964 0.0
H580 H 0.09973 0.56812 0.2779 0.0
H581 H 0.11368 0.60822 0.2922 0.0
H582 H 0.08518 0.62484 0.24567 0.0
H583 H 0.07155 0.58503 0.23121 0.0
H584 H 0.05649 0.55246 0.19637 0.0
H585 H 0.04175 0.54482 0.16482 0.0
H586 H 0.02665 0.47189 0.16468 0.0
H587 H 0.04157 0.47942 0.19657 0.0
H588 H 0.06686 0.46774 0.23031 0.0
H589 H 0.07894 0.44228 0.24448 0.0
H590 H 0.10995 0.49418 0.291 0.0
H591 H 0.09823 0.51971 0.27692 0.0
N592 N 0.08158 0.53375 0.25222 0.0
N593 N 0.06676 0.54339 0.22704 0.0
N594 N 0.06515 0.50642 0.22637 0.0
C595 C 0.07716 0.54942 0.2441 0.0
C596 C 0.06064 0.52199 0.21806 0.0
C597 C 0.07562 0.51221 0.24351 0.0
C598 C 0.08461 0.57331 0.25333 0.0
C599 C 0.09635 0.58026 0.27072 0.0
C600 C 0.10427 0.60323 0.27897 0.0
C601 C 0.10067 0.61975 0.27001 0.0
C602 C 0.08857 0.61266 0.25279 0.0
C603 C 0.08063 0.58973 0.24456 0.0
C604 C 0.05039 0.51659 0.19906 0.0
C605 C 0.04995 0.5347 0.18977 0.0
C606 C 0.04159 0.5304 0.17162 0.0
C607 C 0.03325 0.50784 0.16229 0.0
C608 C 0.03295 0.48944 0.17161 0.0
C609 C 0.04159 0.49381 0.18982 0.0
C610 C 0.08167 0.4959 0.25238 0.0
C611 C 0.07616 0.4737 0.24359 0.0
C612 C 0.52816 0.61222 0.25243 0.0
C613 C 0.52303 0.61934 0.26887 0.0
C614 C 0.50215 0.604 0.2756 0.0
C615 C 0.48666 0.58212 0.26601 0.0
H616 H 0.41936 0.5298 0.26132 0.0
H617 H 0.38308 0.50531 0.27323 0.0
H618 H 0.37163 0.44478 0.23759 0.0
H619 H 0.40785 0.46969 0.22511 0.0
H620 H 0.44103 0.48306 0.1908 0.0
H621 H 0.45036 0.47408 0.16119 0.0
H622 H 0.51085 0.54396 0.16585 0.0
H623 H 0.50205 0.55258 0.19541 0.0
H624 H 0.51719 0.58563 0.23014 0.0
H625 H 0.54395 0.62376 0.24674 0.0
H626 H 0.49781 0.60884 0.28834 0.0
H627 H 0.47071 0.5708 0.27158 0.0
N628 N 0.45452 0.53774 0.24507 0.0
N629 N 0.44445 0.51036 0.21955 0.0
N630 N 0.48011 0.54553 0.22311 0.0
C631 C 0.43911 0.51684 0.23547 0.0
C632 C 0.46498 0.52474 0.21326 0.0
C633 C 0.47509 0.55215 0.23903 0.0
C634 C 0.41665 0.50168 0.24233 0.0
C635 C 0.40917 0.51127 0.25598 0.0
C636 C 0.38834 0.49715 0.2629 0.0
C637 C 0.37448 0.47295 0.25656 0.0
C638 C 0.38176 0.4634 0.24269 0.0
C639 C 0.40259 0.47765 0.2356 0.0
C640 C 0.47074 0.51856 0.19554 0.0
C641 C 0.4564 0.49642 0.18555 0.0
C642 C 0.46171 0.49131 0.16853 0.0
C643 C 0.4814 0.50826 0.16111 0.0
C644 C 0.4958 0.53024 0.17124 0.0
C645 C 0.49061 0.53527 0.18822 0.0
C646 C 0.4917 0.57509 0.24946 0.0
C647 C 0.5127 0.59037 0.24284 0.0
Tb648 Tb 0.52446 0.01814 0.99649 0.0
C649 C 0.51383 0.97154 0.01493 0.0
Tb650 Tb 0.47421 0.98256 0.00417 0.0
O651 O 0.5356 0.02832 0.0253 0.0
O652 O 0.50185 0.0156 0.01576 0.0
O653 O 0.52829 0.98898 0.0057 0.0
C654 C 0.43607 0.95714 0.02013 0.0
O655 O 0.49284 0.96714 0.01715 0.0
C656 C 0.48359 0.97981 0.97069 0.0
C657 C 0.48437 0.02861 0.98548 0.0
O658 O 0.44279 0.94896 0.00693 0.0
O659 O 0.45076 0.97957 0.02425 0.0
O660 O 0.46303 0.97233 0.9752 0.0
O661 O 0.49689 0.98538 0.98484 0.0
O662 O 0.47008 0.01154 0.99509 0.0
O663 O 0.50519 0.0326 0.98289 0.0
C664 C 0.56343 0.04295 0.98147 0.0
O665 O 0.55288 0.05212 0.98984 0.0
O666 O 0.55202 0.01993 0.98152 0.0
C667 C 0.51514 0.02111 0.0299 0.0
Tb668 Tb 0.98289 0.50736 0.9963 0.0
C669 C 0.03398 0.54511 0.01018 0.0
Tb670 Tb 0.01862 0.48999 0.00509 0.0
O671 O 0.97153 0.50492 0.02421 0.0
O672 O 0.9952 0.49625 0.01721 0.0
O673 O 0.01508 0.54108 0.00057 0.0
C674 C 0.04735 0.47856 0.02099 0.0
O675 O 0.03778 0.52779 0.01486 0.0
C676 C 0.00853 0.49211 0.97105 0.0
C677 C 0.96691 0.45202 0.99391 0.0
O678 O 0.05172 0.49186 0.0076 0.0
O679 O 0.02686 0.47172 0.02534 0.0
O680 O 0.01531 0.47778 0.97652 0.0
O681 O 0.00987 0.50585 0.98425 0.0
O682 O 0.98638 0.45653 0.00279 0.0
O683 O 0.96285 0.46895 0.98862 0.0
C684 C 0.95753 0.52163 0.97842 0.0
O685 O 0.96065 0.50429 0.97266 0.0
O686 O 0.96862 0.53082 0.99423 0.0
C687 C 0.98539 0.49801 0.03037 0.0
Tb688 Tb 0.47793 0.49439 0.00704 0.0
C689 C 0.48904 0.45612 0.99067 0.0
Tb690 Tb 0.52774 0.51098 0.9986 0.0
O691 O 0.46584 0.48604 0.97832 0.0
O692 O 0.4994 0.51246 0.98694 0.0
O693 O 0.47444 0.4599 0.99943 0.0
C694 C 0.56501 0.52214 0.98171 0.0
O695 O 0.50973 0.47343 0.98777 0.0
C696 C 0.51971 0.505 0.03247 0.0
C697 C 0.51681 0.54937 0.01469 0.0
O698 O 0.56052 0.51239 0.99688 0.0
O699 O 0.5486 0.52564 0.97616 0.0
O700 O 0.53991 0.51891 0.02749 0.0
O701 O 0.50623 0.49334 0.01871 0.0
O702 O 0.53101 0.5456 0.00529 0.0
O703 O 0.49649 0.53187 0.01824 0.0
C704 C 0.44034 0.4816 0.02375 0.0
O705 O 0.44683 0.49575 0.01089 0.0
O706 O 0.45491 0.47463 0.0271 0.0
C707 C 0.48581 0.50059 0.97325 0.0
Tb708 Tb 0.19039 0.35033 0.33098 0.0
C709 C 0.17922 0.30184 0.34621 0.0
Tb710 Tb 0.14122 0.31631 0.33985 0.0
O711 O 0.20212 0.36134 0.35974 0.0
O712 O 0.16857 0.3498 0.35055 0.0
O713 O 0.19223 0.31842 0.33567 0.0
C714 C 0.1032 0.29042 0.35589 0.0
O715 O 0.15931 0.29891 0.35057 0.0
C716 C 0.14963 0.31151 0.30625 0.0
C717 C 0.15222 0.36457 0.32429 0.0
O718 O 0.12378 0.30015 0.36366 0.0
O719 O 0.10409 0.29503 0.33912 0.0
O720 O 0.12953 0.30549 0.31107 0.0
O721 O 0.16298 0.31693 0.32027 0.0
O722 O 0.13913 0.34799 0.3348 0.0
O723 O 0.17225 0.36763 0.32012 0.0
C724 C 0.22831 0.37612 0.31476 0.0
O725 O 0.20768 0.36734 0.30734 0.0
O726 O 0.22756 0.37066 0.33131 0.0
C727 C 0.18201 0.3553 0.36453 0.0
Tb728 Tb 0.65178 0.84035 0.33162 0.0
C729 C 0.70009 0.8775 0.34921 0.0
Tb730 Tb 0.68579 0.82351 0.34166 0.0
O731 O 0.6459 0.84543 0.35986 0.0
O732 O 0.65694 0.82191 0.35227 0.0
O733 O 0.68391 0.87387 0.33651 0.0
C734 C 0.71429 0.81161 0.35773 0.0
O735 O 0.70169 0.85953 0.3554 0.0
C736 C 0.68234 0.83101 0.30763 0.0
C737 C 0.63602 0.78517 0.32533 0.0
O738 O 0.72037 0.83072 0.34949 0.0
O739 O 0.69224 0.79926 0.35693 0.0
O740 O 0.68868 0.81638 0.31306 0.0
O741 O 0.68099 0.8425 0.32119 0.0
O742 O 0.65506 0.78907 0.33455 0.0
O743 O 0.63179 0.80255 0.32191 0.0
C744 C 0.62493 0.85307 0.31391 0.0
O745 O 0.63048 0.83789 0.30745 0.0
O746 O 0.63435 0.86091 0.3303 0.0
C747 C 0.65404 0.83245 0.36567 0.0
Tb748 Tb 0.14472 0.8261 0.33863 0.0
C749 C 0.15621 0.78803 0.32302 0.0
Tb750 Tb 0.19462 0.84313 0.33031 0.0
O751 O 0.13224 0.81728 0.30981 0.0
O752 O 0.16596 0.84319 0.31813 0.0
O753 O 0.14205 0.79172 0.33251 0.0
C754 C 0.23295 0.85598 0.31464 0.0
O755 O 0.1763 0.80562 0.31915 0.0
C756 C 0.18666 0.83774 0.36425 0.0
C757 C 0.18273 0.8811 0.34578 0.0
O758 O 0.22539 0.84097 0.32688 0.0
O759 O 0.21899 0.86375 0.3113 0.0
O760 O 0.20652 0.8525 0.35914 0.0
O761 O 0.17334 0.82546 0.35059 0.0
O762 O 0.19694 0.87741 0.33638 0.0
O763 O 0.16271 0.86352 0.34967 0.0
C764 C 0.10731 0.81444 0.3554 0.0
O765 O 0.11256 0.82587 0.341 0.0
O766 O 0.12303 0.80957 0.36023 0.0
C767 C 0.15231 0.83105 0.30455 0.0
Tb768 Tb 0.85828 0.68519 0.66356 0.0
C769 C 0.84695 0.63679 0.67907 0.0
Tb770 Tb 0.80905 0.65135 0.67236 0.0
O771 O 0.87005 0.69633 0.69229 0.0
O772 O 0.83649 0.68478 0.68308 0.0
O773 O 0.86021 0.65342 0.66867 0.0
C774 C 0.77125 0.62541 0.68863 0.0
O775 O 0.82697 0.63387 0.6832 0.0
C776 C 0.81765 0.64626 0.6389 0.0
C777 C 0.82025 0.69965 0.65694 0.0
O778 O 0.79191 0.63467 0.69611 0.0
O779 O 0.77189 0.63055 0.67199 0.0
O780 O 0.79751 0.6404 0.64352 0.0
O781 O 0.8309 0.65172 0.65297 0.0
O782 O 0.80719 0.68317 0.66751 0.0
O783 O 0.84019 0.70254 0.65267 0.0
C784 C 0.89607 0.71084 0.64715 0.0
O785 O 0.89543 0.706 0.66386 0.0
O786 O 0.87539 0.70147 0.63966 0.0
C787 C 0.84994 0.6903 0.69707 0.0
Tb788 Tb 0.31589 0.17656 0.6639 0.0
C789 C 0.36423 0.21409 0.68213 0.0
Tb790 Tb 0.34952 0.15923 0.67448 0.0
O791 O 0.31292 0.18499 0.69219 0.0
O792 O 0.32111 0.15876 0.68507 0.0
O793 O 0.34652 0.21086 0.67131 0.0
C794 C 0.37786 0.14731 0.69071 0.0
O795 O 0.36716 0.19618 0.68665 0.0
C796 C 0.34536 0.16504 0.6402 0.0
C797 C 0.30097 0.12165 0.65664 0.0
O798 O 0.38302 0.16224 0.67845 0.0
O799 O 0.35673 0.13907 0.69384 0.0
O800 O 0.35091 0.14997 0.64602 0.0
O801 O 0.34456 0.17734 0.6535 0.0
O802 O 0.31869 0.12499 0.66748 0.0
O803 O 0.29806 0.13951 0.652 0.0
C804 C 0.28771 0.18776 0.64639 0.0
O805 O 0.28297 0.17495 0.66003 0.0
O806 O 0.30834 0.19433 0.64264 0.0
C807 C 0.31973 0.17096 0.69819 0.0
Tb808 Tb 0.80973 0.16319 0.67215 0.0
C809 C 0.81912 0.11999 0.66349 0.0
Tb810 Tb 0.85853 0.17367 0.66672 0.0
O811 O 0.80603 0.1738 0.64517 0.0
O812 O 0.82731 0.15995 0.65077 0.0
O813 O 0.80488 0.12699 0.66908 0.0
C814 C 0.89734 0.18856 0.65127 0.0
O815 O 0.84029 0.13523 0.65991 0.0
C816 C 0.8467 0.16741 0.69979 0.0
C817 C 0.84918 0.21687 0.67523 0.0
O818 O 0.89317 0.1793 0.66666 0.0
O819 O 0.87975 0.18947 0.64472 0.0
O820 O 0.86235 0.16349 0.69391 0.0
O821 O 0.84094 0.17699 0.68801 0.0
O822 O 0.86311 0.20976 0.66908 0.0
O823 O 0.8283 0.20159 0.67941 0.0
C824 C 0.7708 0.14808 0.68746 0.0
O825 O 0.77531 0.1581 0.67238 0.0
O826 O 0.78813 0.14656 0.6938 0.0
C827 C 0.82156 0.16977 0.63915 0.0
H828 H 0.3114 0.90989 0.0732 0.0
H829 H 0.31636 0.84645 0.06407 0.0
H830 H 0.34747 0.9331 0.06003 0.0
H831 H 0.35253 0.8696 0.05125 0.0
H832 H 0.40193 0.91159 0.01036 0.0
H833 H 0.36665 0.88898 0.02461 0.0
H834 H 0.38791 0.94879 0.06457 0.0
H835 H 0.42287 0.97158 0.04989 0.0
C836 C 0.32036 0.90099 0.06859 0.0
C837 C 0.31097 0.87633 0.06953 0.0
C838 C 0.34105 0.91427 0.06107 0.0
C839 C 0.35286 0.90319 0.05444 0.0
C840 C 0.34368 0.87862 0.05584 0.0
C841 C 0.32297 0.86536 0.06323 0.0
C842 C 0.39902 0.91985 0.02219 0.0
C843 C 0.41502 0.9433 0.029 0.0
C844 C 0.37888 0.90687 0.03045 0.0
C845 C 0.37441 0.91703 0.04578 0.0
C846 C 0.39061 0.94052 0.05264 0.0
C847 C 0.41069 0.95354 0.04431 0.0
H848 H 0.16428 0.47332 0.06842 0.0
H849 H 0.10657 0.40379 0.07402 0.0
H850 H 0.13892 0.48522 0.05395 0.0
H851 H 0.08118 0.41557 0.05939 0.0
H852 H 0.04051 0.45329 0.05022 0.0
H853 H 0.06619 0.44196 0.06496 0.0
H854 H 0.11494 0.47717 0.02617 0.0
H855 H 0.08938 0.48898 0.01174 0.0
C856 C 0.14618 0.46051 0.0664 0.0
C857 C 0.1374 0.43762 0.07234 0.0
C858 C 0.13166 0.46731 0.05809 0.0
C859 C 0.10803 0.45134 0.0555 0.0
C860 C 0.09926 0.42843 0.06144 0.0
C861 C 0.11379 0.42166 0.0698 0.0
C862 C 0.05673 0.4586 0.04488 0.0
C863 C 0.06301 0.47196 0.02986 0.0
C864 C 0.07138 0.452 0.05324 0.0
C865 C 0.09257 0.45858 0.0467 0.0
C866 C 0.09885 0.47206 0.03167 0.0
C867 C 0.0842 0.47872 0.02335 0.0
H868 H 0.52446 0.68322 0.05149 0.0
H869 H 0.59192 0.69458 0.06546 0.0
H870 H 0.51268 0.64355 0.0373 0.0
H871 H 0.57991 0.65461 0.05182 0.0
H872 H 0.55676 0.59034 0.01055 0.0
H873 H 0.56862 0.63093 0.02254 0.0
H874 H 0.50513 0.60508 0.04693 0.0
H875 H 0.49306 0.56458 0.03475 0.0
C876 C 0.53682 0.67731 0.05143 0.0
C877 C 0.55912 0.69205 0.05964 0.0
C878 C 0.52999 0.65448 0.04348 0.0
C879 C 0.54533 0.64587 0.0435 0.0
C880 C 0.56774 0.66076 0.05144 0.0
C881 C 0.57454 0.68357 0.05943 0.0
C882 C 0.54527 0.59329 0.01841 0.0
C883 C 0.52393 0.57414 0.02167 0.0
C884 C 0.55214 0.61656 0.02536 0.0
C885 C 0.53783 0.62124 0.03569 0.0
C886 C 0.51643 0.60214 0.03882 0.0
C887 C 0.50957 0.57887 0.03191 0.0
H888 H 0.84648 0.31392 0.95709 0.0
H889 H 0.90521 0.30685 0.94801 0.0
H890 H 0.87149 0.35406 0.97186 0.0
H891 H 0.93022 0.3472 0.96225 0.0
H892 H 0.96815 0.41217 0.00243 0.0
H893 H 0.94112 0.37083 0.99161 0.0
H894 H 0.8993 0.39315 0.96246 0.0
H895 H 0.92612 0.43453 0.97346 0.0
C896 C 0.86471 0.32086 0.9584 0.0
C897 C 0.87389 0.30725 0.95136 0.0
C898 C 0.87903 0.34393 0.96669 0.0
C899 C 0.90282 0.35381 0.96819 0.0
C900 C 0.91195 0.34 0.96148 0.0
C901 C 0.89765 0.31699 0.95314 0.0
C902 C 0.95309 0.40831 0.99386 0.0
C903 C 0.9494 0.42675 0.98874 0.0
C904 C 0.93766 0.38459 0.98759 0.0
C905 C 0.91818 0.37874 0.97607 0.0
C906 C 0.91405 0.39706 0.97145 0.0
C907 C 0.9295 0.42081 0.97771 0.0
H908 H 0.70328 0.5743 0.95406 0.0
H909 H 0.66252 0.54536 0.90276 0.0
H910 H 0.66894 0.56338 0.96923 0.0
H911 H 0.62809 0.53434 0.91796 0.0
H912 H 0.57479 0.54114 0.94946 0.0
H913 H 0.60899 0.55224 0.93389 0.0
H914 H 0.63521 0.52774 0.97689 0.0
H915 H 0.60116 0.51708 0.99257 0.0
C916 C 0.68695 0.56545 0.94604 0.0
C917 C 0.68561 0.56061 0.92722 0.0
C918 C 0.66727 0.55916 0.95474 0.0
C919 C 0.64577 0.54788 0.94482 0.0
C920 C 0.64443 0.54327 0.92596 0.0
C921 C 0.66414 0.54958 0.91725 0.0
C922 C 0.58791 0.53817 0.95556 0.0
C923 C 0.58546 0.52837 0.97223 0.0
C924 C 0.60741 0.54437 0.9466 0.0
C925 C 0.62485 0.54093 0.95417 0.0
C926 C 0.62224 0.53095 0.97082 0.0
C927 C 0.60271 0.52471 0.97976 0.0
H928 H 0.47262 0.13406 0.92522 0.0
H929 H 0.41031 0.0996 0.95126 0.0
H930 H 0.48443 0.10761 0.93784 0.0
H931 H 0.42253 0.07405 0.96498 0.0
H932 H 0.44083 0.01723 0.97483 0.0
H933 H 0.42829 0.04206 0.96046 0.0
H934 H 0.49828 0.09985 0.96397 0.0
H935 H 0.51074 0.07436 0.97724 0.0
C936 C 0.46158 0.12088 0.93382 0.0
C937 C 0.4406 0.11875 0.93729 0.0
C938 C 0.46838 0.10583 0.94121 0.0
C939 C 0.45456 0.08865 0.95261 0.0
C940 C 0.4335 0.08665 0.95603 0.0
C941 C 0.4265 0.10138 0.94829 0.0
C942 C 0.45348 0.03525 0.97248 0.0
C943 C 0.47675 0.04387 0.97713 0.0
C944 C 0.44631 0.0496 0.96434 0.0
C945 C 0.4622 0.07312 0.96101 0.0
C946 C 0.4855 0.08172 0.96589 0.0
C947 C 0.49269 0.06718 0.97365 0.0
H948 H 0.70266 0.10544 0.9545 0.0
H949 H 0.67268 0.13288 0.91702 0.0
H950 H 0.66599 0.08287 0.96711 0.0
H951 H 0.63599 0.1104 0.92974 0.0
H952 H 0.58526 0.08992 0.97513 0.0
H953 H 0.62121 0.11194 0.96127 0.0
H954 H 0.62582 0.04799 0.9553 0.0
H955 H 0.58983 0.02596 0.96889 0.0
C956 C 0.68819 0.10658 0.94898 0.0
C957 C 0.69041 0.12082 0.9348 0.0
C958 C 0.66725 0.09362 0.95611 0.0
C959 C 0.64825 0.09497 0.94939 0.0
C960 C 0.65045 0.10921 0.93521 0.0
C961 C 0.67132 0.12187 0.92786 0.0
C962 C 0.59398 0.08063 0.97081 0.0
C963 C 0.58491 0.05633 0.97309 0.0
C964 C 0.61442 0.09315 0.96282 0.0
C965 C 0.62623 0.08162 0.95728 0.0
C966 C 0.61711 0.05731 0.95959 0.0
C967 C 0.59653 0.04472 0.9673 0.0
H968 H 0.87893 0.55508 0.90071 0.0
H969 H 0.86072 0.56761 0.95333 0.0
H970 H 0.90587 0.54511 0.91501 0.0
H971 H 0.88674 0.55652 0.96754 0.0
H972 H 0.95125 0.55848 0.98894 0.0
H973 H 0.92666 0.57076 0.97364 0.0
H974 H 0.90631 0.51397 0.93113 0.0
H975 H 0.93151 0.50219 0.94626 0.0
C976 C 0.88071 0.55577 0.91532 0.0
C977 C 0.86764 0.56213 0.92586 0.0
C978 C 0.89595 0.54977 0.92351 0.0
C979 C 0.89846 0.54998 0.94243 0.0
C980 C 0.88546 0.55645 0.95295 0.0
C981 C 0.87029 0.5625 0.94478 0.0
C982 C 0.94159 0.54872 0.97628 0.0
C983 C 0.94315 0.52934 0.9688 0.0
C984 C 0.92739 0.55565 0.96757 0.0
C985 C 0.91436 0.54325 0.95122 0.0
C986 C 0.91627 0.52406 0.9436 0.0
C987 C 0.93057 0.5172 0.95231 0.0
H988 H 0.4779 0.32873 0.93509 0.0
H989 H 0.41536 0.30262 0.9607 0.0
H990 H 0.49048 0.36918 0.9479 0.0
H991 H 0.42831 0.34272 0.97455 0.0
H992 H 0.44582 0.41992 0.98064 0.0
H993 H 0.43378 0.37955 0.96825 0.0
H994 H 0.50398 0.39591 0.9735 0.0
H995 H 0.51598 0.43674 0.98484 0.0
C996 C 0.46706 0.3317 0.94376 0.0
C997 C 0.44569 0.31271 0.9469 0.0
C998 C 0.47428 0.35484 0.95122 0.0
C999 C 0.46044 0.35943 0.9623 0.0
C1000 C 0.43925 0.34013 0.96577 0.0
C1001 C 0.43185 0.31708 0.95798 0.0
C1002 C 0.45864 0.41482 0.97915 0.0
C1003 C 0.48182 0.43144 0.98368 0.0
C1004 C 0.45175 0.39158 0.97216 0.0
C1005 C 0.46785 0.38423 0.96988 0.0
C1006 C 0.49107 0.40092 0.97468 0.0
C1007 C 0.49799 0.42432 0.98131 0.0
H1008 H 0.12575 0.69981 0.03007 0.0
H1009 H 0.12513 0.67027 0.08087 0.0
H1010 H 0.10085 0.65954 0.01528 0.0
H1011 H 0.09988 0.63026 0.06625 0.0
H1012 H 0.07362 0.56082 0.03169 0.0
H1013 H 0.1008 0.60151 0.04395 0.0
H1014 H 0.06086 0.62673 0.01569 0.0
H1015 H 0.03372 0.58602 0.00315 0.0
C1016 C 0.12035 0.68472 0.03805 0.0
C1017 C 0.12731 0.68819 0.05664 0.0
C1018 C 0.10597 0.66172 0.02962 0.0
C1019 C 0.09845 0.64174 0.0396 0.0
C1020 C 0.10559 0.64525 0.05815 0.0
C1021 C 0.11983 0.6682 0.06657 0.0
C1022 C 0.07068 0.57501 0.02792 0.0
C1023 C 0.05138 0.57008 0.0165 0.0
C1024 C 0.08622 0.59833 0.03505 0.0
C1025 C 0.08286 0.61728 0.0309 0.0
C1026 C 0.06398 0.61251 0.01903 0.0
C1027 C 0.04837 0.58915 0.01192 0.0
H1028 H 0.30117 0.42674 0.04859 0.0
H1029 H 0.33914 0.44757 0.10123 0.0
H1030 H 0.33638 0.43959 0.03426 0.0
H1031 H 0.3744 0.46016 0.08682 0.0
H1032 H 0.42805 0.4561 0.05301 0.0
H1033 H 0.39319 0.44304 0.06813 0.0
H1034 H 0.3714 0.47805 0.03076 0.0
H1035 H 0.4062 0.49093 0.01558 0.0
C1036 C 0.31705 0.43415 0.05711 0.0
C1037 C 0.31738 0.43632 0.07605 0.0
C1038 C 0.3372 0.4415 0.04889 0.0
C1039 C 0.35814 0.45106 0.05942 0.0
C1040 C 0.35847 0.4527 0.07837 0.0
C1041 C 0.33828 0.44543 0.08661 0.0
C1042 C 0.41578 0.46099 0.04807 0.0
C1043 C 0.41965 0.47438 0.0331 0.0
C1044 C 0.39592 0.45364 0.05677 0.0
C1045 C 0.37954 0.45943 0.05057 0.0
C1046 C 0.3836 0.47305 0.03568 0.0
C1047 C 0.40353 0.48053 0.02706 0.0
H1048 H 0.54397 0.86062 0.03865 0.0
H1049 H 0.56928 0.90908 0.08749 0.0
H1050 H 0.53137 0.88587 0.02498 0.0
H1051 H 0.55792 0.93495 0.07312 0.0
H1052 H 0.55715 0.98395 0.02736 0.0
H1053 H 0.56977 0.95884 0.04173 0.0
H1054 H 0.5006 0.89982 0.03549 0.0
H1055 H 0.48779 0.92501 0.02158 0.0
C1056 C 0.5468 0.87651 0.04655 0.0
C1057 C 0.55757 0.88259 0.06431 0.0
C1058 C 0.53973 0.89104 0.03861 0.0
C1059 C 0.54373 0.91225 0.04804 0.0
C1060 C 0.55483 0.91871 0.06557 0.0
C1061 C 0.56147 0.90392 0.07371 0.0
C1062 C 0.54466 0.9656 0.02903 0.0
C1063 C 0.52152 0.95636 0.02331 0.0
C1064 C 0.55186 0.95135 0.03732 0.0
C1065 C 0.53611 0.92749 0.03962 0.0
C1066 C 0.51302 0.91817 0.03376 0.0
C1067 C 0.50573 0.93258 0.02589 0.0
H1068 H 0.96509 0.19102 0.3774 0.0
H1069 H 0.99636 0.22993 0.42963 0.0
H1070 H 0.00095 0.21397 0.36446 0.0
H1071 H 0.03202 0.25415 0.41632 0.0
H1072 H 0.09878 0.27621 0.39008 0.0
H1073 H 0.06334 0.25298 0.40417 0.0
H1074 H 0.02483 0.25231 0.35568 0.0
H1075 H 0.06007 0.27449 0.3415 0.0
C1076 C 0.97962 0.20448 0.38616 0.0
C1077 C 0.97779 0.20847 0.40461 0.0
C1078 C 0.00017 0.21795 0.37864 0.0
C1079 C 0.01943 0.23607 0.38929 0.0
C1080 C 0.01763 0.24018 0.40775 0.0
C1081 C 0.99706 0.22651 0.41533 0.0
C1082 C 0.08267 0.27094 0.38249 0.0
C1083 C 0.08206 0.27687 0.36467 0.0
C1084 C 0.06238 0.25782 0.39058 0.0
C1085 C 0.04116 0.25059 0.38103 0.0
C1086 C 0.04077 0.25705 0.36331 0.0
C1087 C 0.06097 0.2699 0.35519 0.0
H1088 H 0.81517 0.80194 0.42776 0.0
H1089 H 0.79013 0.74204 0.38737 0.0
H1090 H 0.78952 0.81379 0.4133 0.0
H1091 H 0.76426 0.75369 0.37307 0.0
H1092 H 0.70343 0.76844 0.36903 0.0
H1093 H 0.72925 0.7569 0.38351 0.0
H1094 H 0.78583 0.82816 0.3812 0.0
H1095 H 0.76006 0.83961 0.36638 0.0
C1096 C 0.80407 0.79128 0.41586 0.0
C1097 C 0.80454 0.77111 0.40864 0.0
C1098 C 0.78956 0.79812 0.40755 0.0
C1099 C 0.77499 0.78462 0.39211 0.0
C1100 C 0.77528 0.7643 0.38502 0.0
C1101 C 0.7901 0.75772 0.39312 0.0
C1102 C 0.72139 0.7816 0.3716 0.0
C1103 C 0.72984 0.80487 0.36659 0.0
C1104 C 0.73612 0.77499 0.37981 0.0
C1105 C 0.75945 0.79167 0.38342 0.0
C1106 C 0.76786 0.81504 0.37862 0.0
C1107 C 0.75318 0.82154 0.3701 0.0
H1108 H 0.21451 0.007 0.41484 0.0
H1109 H 0.23781 0.03507 0.36393 0.0
H1110 H 0.20141 0.96678 0.4013 0.0
H1111 H 0.22401 0.9946 0.35018 0.0
H1112 H 0.2215 0.92227 0.33988 0.0
H1113 H 0.23367 0.96282 0.35213 0.0
H1114 H 0.17186 0.93671 0.379 0.0
H1115 H 0.15979 0.89611 0.36704 0.0
C1116 C 0.21685 0.00457 0.40075 0.0
C1117 C 0.22732 0.02422 0.39048 0.0
C1118 C 0.20909 0.98149 0.39294 0.0
C1119 C 0.21162 0.97751 0.37466 0.0
C1120 C 0.22199 0.99714 0.36434 0.0
C1121 C 0.2297 0.02026 0.37216 0.0
C1122 C 0.21044 0.92514 0.34835 0.0
C1123 C 0.18969 0.90588 0.35253 0.0
C1124 C 0.21737 0.94843 0.35527 0.0
C1125 C 0.20376 0.95295 0.36657 0.0
C1126 C 0.18287 0.93375 0.37052 0.0
C1127 C 0.1759 0.91048 0.36357 0.0
H1128 H 0.5695 0.64077 0.27428 0.0
H1129 H 0.51325 0.65129 0.28568 0.0
H1130 H 0.59626 0.68047 0.28883 0.0
H1131 H 0.53997 0.69062 0.30088 0.0
H1132 H 0.59574 0.76982 0.30481 0.0
H1133 H 0.56826 0.72934 0.29234 0.0
H1134 H 0.60936 0.70366 0.31813 0.0
H1135 H 0.63716 0.74425 0.33035 0.0
C1136 C 0.56284 0.65152 0.27996 0.0
C1137 C 0.53925 0.64292 0.27873 0.0
C1138 C 0.57816 0.67417 0.28849 0.0
C1139 C 0.57025 0.68873 0.29599 0.0
C1140 C 0.54663 0.67995 0.29506 0.0
C1141 C 0.5313 0.6573 0.28653 0.0
C1142 C 0.5989 0.75557 0.30793 0.0
C1143 C 0.61872 0.76035 0.31855 0.0
C1144 C 0.58305 0.7323 0.30085 0.0
C1145 C 0.58662 0.71327 0.30423 0.0
C1146 C 0.60626 0.71798 0.31509 0.0
C1147 C 0.62213 0.74126 0.32216 0.0
H1148 H 0.33381 0.88818 0.23763 0.0
H1149 H 0.37171 0.90464 0.29002 0.0
H1150 H 0.29903 0.87699 0.25233 0.0
H1151 H 0.33688 0.89313 0.30465 0.0
H1152 H 0.26538 0.84401 0.32241 0.0
H1153 H 0.30024 0.85587 0.30751 0.0
H1154 H 0.28239 0.89562 0.27187 0.0
H1155 H 0.2475 0.8836 0.28669 0.0
C1156 C 0.33478 0.88966 0.25227 0.0
C1157 C 0.35552 0.89722 0.26265 0.0
C1158 C 0.31485 0.88319 0.26067 0.0
C1159 C 0.31524 0.88406 0.27962 0.0
C1160 C 0.336 0.89189 0.29001 0.0
C1161 C 0.35593 0.89847 0.28162 0.0
C1162 C 0.26896 0.85527 0.31139 0.0
C1163 C 0.25388 0.86297 0.3057 0.0
C1164 C 0.28892 0.86215 0.30293 0.0
C1165 C 0.29404 0.87671 0.28856 0.0
C1166 C 0.27879 0.88423 0.2828 0.0
C1167 C 0.25892 0.87748 0.29134 0.0
H1168 H 0.07222 0.4179 0.27056 0.0
H1169 H 0.13763 0.4811 0.28587 0.0
H1170 H 0.0861 0.39359 0.2843 0.0
H1171 H 0.15127 0.45694 0.29997 0.0
H1172 H 0.17497 0.40206 0.30397 0.0
H1173 H 0.16112 0.42647 0.29067 0.0
H1174 H 0.09763 0.38704 0.31467 0.0
H1175 H 0.11132 0.36237 0.32786 0.0
C1176 C 0.08955 0.42658 0.27684 0.0
C1177 C 0.10381 0.45141 0.27715 0.0
C1178 C 0.09742 0.41271 0.28486 0.0
C1179 C 0.11977 0.42336 0.29325 0.0
C1180 C 0.13403 0.44818 0.29349 0.0
C1181 C 0.12614 0.46204 0.28557 0.0
C1182 C 0.15811 0.39864 0.30652 0.0
C1183 C 0.14429 0.38027 0.31703 0.0
C1184 C 0.1502 0.41271 0.29894 0.0
C1185 C 0.12827 0.40865 0.3016 0.0
C1186 C 0.11451 0.39041 0.3122 0.0
C1187 C 0.12245 0.3764 0.31987 0.0
H1188 H 0.33348 0.43743 0.23957 0.0
H1189 H 0.36633 0.4741 0.29211 0.0
H1190 H 0.29813 0.41296 0.25322 0.0
H1191 H 0.33083 0.45089 0.30547 0.0
H1192 H 0.27149 0.39034 0.32818 0.0
H1193 H 0.30647 0.41225 0.31359 0.0
H1194 H 0.26759 0.41461 0.26655 0.0
H1195 H 0.23241 0.39168 0.28102 0.0
C1196 C 0.3332 0.44029 0.25401 0.0
C1197 C 0.3528 0.45782 0.2647 0.0
C1198 C 0.31282 0.42647 0.26181 0.0
C1199 C 0.31155 0.42992 0.28047 0.0
C1200 C 0.33118 0.44744 0.29111 0.0
C1201 C 0.35153 0.46107 0.28337 0.0
C1202 C 0.27045 0.39554 0.31472 0.0
C1203 C 0.24933 0.38952 0.30576 0.0
C1204 C 0.29051 0.40823 0.30637 0.0
C1205 C 0.28995 0.41545 0.28893 0.0
C1206 C 0.26868 0.40915 0.2799 0.0
C1207 C 0.24855 0.39621 0.28822 0.0
H1208 H 0.54735 0.8876 0.23624 0.0
H1209 H 0.5257 0.89568 0.28848 0.0
H1210 H 0.57408 0.87746 0.25067 0.0
H1211 H 0.55132 0.88417 0.30272 0.0
H1212 H 0.61572 0.88738 0.32552 0.0
H1213 H 0.59082 0.89918 0.3102 0.0
H1214 H 0.5753 0.84621 0.26563 0.0
H1215 H 0.60101 0.83508 0.28079 0.0
C1216 C 0.54829 0.88723 0.25079 0.0
C1217 C 0.53438 0.89249 0.26119 0.0
C1218 C 0.5634 0.8811 0.25904 0.0
C1219 C 0.56487 0.88 0.27786 0.0
C1220 C 0.55089 0.88517 0.28823 0.0
C1221 C 0.53593 0.89145 0.28001 0.0
C1222 C 0.60703 0.87834 0.31242 0.0
C1223 C 0.61013 0.86026 0.30435 0.0
C1224 C 0.59264 0.88497 0.30368 0.0
C1225 C 0.58088 0.8735 0.28674 0.0
C1226 C 0.58427 0.85557 0.27857 0.0
C1227 C 0.59884 0.84907 0.28728 0.0
H1228 H 0.10009 0.63407 0.30521 0.0
H1229 H 0.12188 0.66121 0.25375 0.0
H1230 H 0.11477 0.67474 0.3188 0.0
H1231 H 0.13583 0.7017 0.26716 0.0
H1232 H 0.17837 0.7729 0.30092 0.0
H1233 H 0.16592 0.73218 0.2889 0.0
H1234 H 0.10522 0.7064 0.31719 0.0
H1235 H 0.11778 0.74698 0.3295 0.0
C1236 C 0.10808 0.64872 0.29683 0.0
C1237 C 0.10976 0.64443 0.2784 0.0
C1238 C 0.11629 0.67197 0.30456 0.0
C1239 C 0.12643 0.69142 0.29405 0.0
C1240 C 0.12833 0.68713 0.27567 0.0
C1241 C 0.12008 0.6639 0.26794 0.0
C1242 C 0.16244 0.75855 0.30469 0.0
C1243 C 0.14907 0.76325 0.31616 0.0
C1244 C 0.15525 0.73523 0.2977 0.0
C1245 C 0.13456 0.71608 0.30206 0.0
C1246 C 0.12137 0.72073 0.31374 0.0
C1247 C 0.12852 0.74404 0.3207 0.0
H1248 H 0.7861 0.00477 0.42127 0.0
H1249 H 0.79597 0.03057 0.36826 0.0
H1250 H 0.76025 0.96436 0.40756 0.0
H1251 H 0.77064 0.98993 0.35448 0.0
H1252 H 0.70341 0.91895 0.33912 0.0
H1253 H 0.72999 0.95952 0.35216 0.0
H1254 H 0.76122 0.93263 0.38905 0.0
H1255 H 0.73443 0.892 0.37625 0.0
C1256 C 0.78271 0.00181 0.40668 0.0
C1257 C 0.79301 0.02088 0.39585 0.0
C1258 C 0.76811 0.97861 0.39882 0.0
C1259 C 0.76344 0.97394 0.37993 0.0
C1260 C 0.77375 0.993 0.36908 0.0
C1261 C 0.78843 0.01622 0.37695 0.0
C1262 C 0.71598 0.92166 0.34998 0.0
C1263 C 0.71675 0.9022 0.35666 0.0
C1264 C 0.7313 0.94494 0.35738 0.0
C1265 C 0.74768 0.94928 0.37166 0.0
C1266 C 0.7486 0.92984 0.37821 0.0
C1267 C 0.73332 0.90656 0.37079 0.0
H1268 H 0.99111 0.80841 0.40363 0.0
H1269 H 0.98709 0.74153 0.41357 0.0
H1270 H 0.0259 0.82041 0.38885 0.0
H1271 H 0.02189 0.75348 0.3987 0.0
H1272 H 0.09665 0.79292 0.38658 0.0
H1273 H 0.06268 0.78186 0.40242 0.0
H1274 H 0.03769 0.80985 0.36121 0.0
H1275 H 0.07197 0.82135 0.34562 0.0
C1276 C 0.9976 0.79621 0.40256 0.0
C1277 C 0.9863 0.77397 0.40969 0.0
C1278 C 0.01752 0.80308 0.39407 0.0
C1279 C 0.0266 0.78785 0.39251 0.0
C1280 C 0.01548 0.76574 0.39987 0.0
C1281 C 0.99555 0.75889 0.40839 0.0
C1282 C 0.08387 0.79669 0.38094 0.0
C1283 C 0.08682 0.80792 0.36489 0.0
C1284 C 0.06438 0.79026 0.38995 0.0
C1285 C 0.04746 0.79492 0.38306 0.0
C1286 C 0.05054 0.80628 0.367 0.0
C1287 C 0.07007 0.81275 0.35801 0.0
H1288 H 0.24004 0.21335 0.36677 0.0
H1289 H 0.21484 0.22179 0.41717 0.0
H1290 H 0.22553 0.23685 0.35272 0.0
H1291 H 0.20113 0.24602 0.40333 0.0
H1292 H 0.15759 0.2659 0.36804 0.0
H1293 H 0.17143 0.24126 0.38089 0.0
H1294 H 0.2328 0.27768 0.35366 0.0
H1295 H 0.21881 0.30205 0.34049 0.0
C1296 C 0.23143 0.22025 0.37485 0.0
C1297 C 0.22857 0.21567 0.39308 0.0
C1298 C 0.22332 0.23391 0.36685 0.0
C1299 C 0.21211 0.24325 0.37689 0.0
C1300 C 0.20942 0.23882 0.39515 0.0
C1301 C 0.21755 0.2252 0.40315 0.0
C1302 C 0.17396 0.26856 0.36466 0.0
C1303 C 0.18708 0.28597 0.35321 0.0
C1304 C 0.18197 0.25455 0.37216 0.0
C1305 C 0.20328 0.25761 0.36839 0.0
C1306 C 0.21622 0.27472 0.35669 0.0
C1307 C 0.20821 0.28876 0.3492 0.0
H1308 H 0.66667 0.56251 0.76385 0.0
H1309 H 0.6338 0.52517 0.71148 0.0
H1310 H 0.70177 0.58723 0.75007 0.0
H1311 H 0.66917 0.54863 0.69799 0.0
H1312 H 0.72784 0.60997 0.67508 0.0
H1313 H 0.69297 0.58727 0.68964 0.0
H1314 H 0.73254 0.5864 0.73683 0.0
H1315 H 0.76755 0.61012 0.72242 0.0
C1316 C 0.6669 0.55954 0.74941 0.0
C1317 C 0.64733 0.5418 0.7388 0.0
C1318 C 0.68715 0.57351 0.74154 0.0
C1319 C 0.68838 0.56998 0.72289 0.0
C1320 C 0.66883 0.55216 0.71233 0.0
C1321 C 0.64857 0.53839 0.72015 0.0
C1322 C 0.72904 0.60493 0.68857 0.0
C1323 C 0.7503 0.61162 0.6976 0.0
C1324 C 0.70905 0.59178 0.6969 0.0
C1325 C 0.70985 0.58476 0.71438 0.0
C1326 C 0.73126 0.59169 0.72346 0.0
C1327 C 0.75131 0.6051 0.71517 0.0
H1328 H 0.45717 0.11122 0.76472 0.0
H1329 H 0.47326 0.09804 0.71137 0.0
H1330 H 0.43182 0.12389 0.75131 0.0
H1331 H 0.44818 0.11104 0.69805 0.0
H1332 H 0.42099 0.16047 0.68295 0.0
H1333 H 0.44653 0.14833 0.69692 0.0
H1334 H 0.39511 0.10632 0.73196 0.0
H1335 H 0.36965 0.11865 0.71805 0.0
C1336 C 0.45517 0.11084 0.75014 0.0
C1337 C 0.46725 0.10362 0.73912 0.0
C1338 C 0.44069 0.11814 0.74247 0.0
C1339 C 0.43808 0.1185 0.72365 0.0
C1340 C 0.45013 0.11129 0.71263 0.0
C1341 C 0.46451 0.10388 0.72027 0.0
C1342 C 0.41521 0.14869 0.69367 0.0
C1343 C 0.39339 0.14041 0.69942 0.0
C1344 C 0.42975 0.14165 0.70159 0.0
C1345 C 0.42278 0.12631 0.71548 0.0
C1346 C 0.40101 0.11831 0.72138 0.0
C1347 C 0.38642 0.12524 0.71338 0.0
H1348 H 0.87158 0.35991 0.70235 0.0
H1349 H 0.93234 0.36095 0.72415 0.0
H1350 H 0.85718 0.3198 0.68795 0.0
H1351 H 0.91751 0.32042 0.7103 0.0
H1352 H 0.89215 0.25387 0.67171 0.0
H1353 H 0.90771 0.29604 0.68134 0.0
H1354 H 0.84237 0.28044 0.69868 0.0
H1355 H 0.82669 0.23847 0.68882 0.0
C1356 C 0.882 0.3517 0.70389 0.0
C1357 C 0.9031 0.36362 0.71444 0.0
C1358 C 0.87362 0.3286 0.6958 0.0
C1359 C 0.88612 0.31686 0.69808 0.0
C1360 C 0.90754 0.32904 0.70816 0.0
C1361 C 0.91592 0.35216 0.71627 0.0
C1362 C 0.88102 0.25945 0.6774 0.0
C1363 C 0.85819 0.24272 0.67959 0.0
C1364 C 0.88999 0.28361 0.68301 0.0
C1365 C 0.87631 0.29157 0.69085 0.0
C1366 C 0.85331 0.27495 0.69251 0.0
C1367 C 0.84435 0.25082 0.68694 0.0
H1368 H 0.20475 0.96877 0.63398 0.0
H1369 H 0.21198 0.9981 0.58235 0.0
H1370 H 0.23098 0.00867 0.64879 0.0
H1371 H 0.2386 0.03774 0.59704 0.0
H1372 H 0.26491 0.108 0.63143 0.0
H1373 H 0.23788 0.06792 0.61787 0.0
H1374 H 0.27188 0.03959 0.6503 0.0
H1375 H 0.29886 0.07972 0.66413 0.0
C1376 C 0.21192 0.98373 0.62581 0.0
C1377 C 0.20631 0.9803 0.607 0.0
C1378 C 0.22709 0.00652 0.63426 0.0
C1379 C 0.23682 0.02634 0.62408 0.0
C1380 C 0.23119 0.02287 0.60528 0.0
C1381 C 0.21614 0.00012 0.59684 0.0
C1382 C 0.26661 0.09326 0.63578 0.0
C1383 C 0.2841 0.09712 0.64888 0.0
C1384 C 0.25117 0.07029 0.6279 0.0
C1385 C 0.25281 0.05061 0.63295 0.0
C1386 C 0.27006 0.05438 0.64625 0.0
C1387 C 0.28559 0.0774 0.65409 0.0
H1388 H 0.99623 0.21618 0.57325 0.0
H1389 H 0.03723 0.24712 0.62427 0.0
H1390 H 0.96178 0.20438 0.58855 0.0
H1391 H 0.00283 0.23546 0.63957 0.0
H1392 H 0.93527 0.1871 0.66315 0.0
H1393 H 0.96994 0.19969 0.64784 0.0
H1394 H 0.94158 0.2209 0.60401 0.0
H1395 H 0.90682 0.2078 0.61915 0.0
C1396 C 0.99789 0.22073 0.5877 0.0
C1397 C 0.01944 0.23252 0.59755 0.0
C1398 C 0.97816 0.21396 0.59648 0.0
C1399 C 0.97954 0.2189 0.61531 0.0
C1400 C 0.00113 0.231 0.62511 0.0
C1401 C 0.02084 0.23772 0.61634 0.0
C1402 C 0.93653 0.19448 0.65026 0.0
C1403 C 0.91845 0.1965 0.64231 0.0
C1404 C 0.9564 0.20182 0.64153 0.0
C1405 C 0.95854 0.21132 0.6247 0.0
C1406 C 0.94038 0.21338 0.61684 0.0
C1407 C 0.92054 0.20603 0.62555 0.0
H1408 H 0.76002 0.7885 0.63698 0.0
H1409 H 0.78408 0.77976 0.58607 0.0
H1410 H 0.77443 0.76472 0.65062 0.0
H1411 H 0.7977 0.75519 0.59953 0.0
H1412 H 0.8416 0.73508 0.63461 0.0
H1413 H 0.82767 0.75963 0.62166 0.0
H1414 H 0.76675 0.72387 0.64952 0.0
H1415 H 0.78082 0.69964 0.66278 0.0
C1416 C 0.76835 0.78146 0.62869 0.0
C1417 C 0.77096 0.78608 0.61045 0.0
C1418 C 0.7764 0.76764 0.63646 0.0
C1419 C 0.78727 0.75811 0.62618 0.0
C1420 C 0.78967 0.76253 0.60789 0.0
C1421 C 0.7816 0.77634 0.60011 0.0
C1422 C 0.82531 0.73255 0.6381 0.0
C1423 C 0.81236 0.71541 0.64978 0.0
C1424 C 0.81724 0.7465 0.63054 0.0
C1425 C 0.79605 0.74363 0.63449 0.0
C1426 C 0.78325 0.7267 0.64636 0.0
C1427 C 0.7913 0.71275 0.65391 0.0
H1428 H 0.00107 0.7727 0.57194 0.0
H1429 H 0.03359 0.8104 0.62429 0.0
H1430 H 0.96586 0.74801 0.58565 0.0
H1431 H 0.99815 0.78699 0.63768 0.0
H1432 H 0.93943 0.72626 0.66079 0.0
H1433 H 0.97433 0.74854 0.6462 0.0
H1434 H 0.93493 0.74884 0.59866 0.0
H1435 H 0.89986 0.72551 0.61313 0.0
C1436 C 0.00074 0.77575 0.58636 0.0
C1437 C 0.02023 0.79361 0.59697 0.0
C1438 C 0.98043 0.7618 0.59418 0.0
C1439 C 0.97909 0.76545 0.6128 0.0
C1440 C 0.99858 0.78336 0.62336 0.0
C1441 C 0.01888 0.7971 0.6156 0.0
C1442 C 0.93826 0.73107 0.64721 0.0
C1443 C 0.91703 0.72436 0.63812 0.0
C1444 C 0.95828 0.74399 0.63887 0.0
C1445 C 0.95755 0.75076 0.62129 0.0
C1446 C 0.93617 0.74376 0.61212 0.0
C1447 C 0.91608 0.73058 0.62044 0.0
H1448 H 0.22796 0.26071 0.59111 0.0
H1449 H 0.17067 0.19091 0.59674 0.0
H1450 H 0.25368 0.24913 0.60544 0.0
H1451 H 0.19636 0.17924 0.61092 0.0
H1452 H 0.24531 0.17706 0.6545 0.0
H1453 H 0.21979 0.18807 0.63903 0.0
H1454 H 0.26949 0.22313 0.60087 0.0
H1455 H 0.29521 0.21253 0.61668 0.0
C1456 C 0.2209 0.24281 0.59522 0.0
C1457 C 0.19728 0.22677 0.59289 0.0
C1458 C 0.23564 0.23615 0.60341 0.0
C1459 C 0.22706 0.21329 0.6094 0.0
C1460 C 0.20347 0.19713 0.60677 0.0
C1461 C 0.18875 0.20381 0.59864 0.0
C1462 C 0.25072 0.18709 0.64279 0.0
C1463 C 0.2722 0.19402 0.63678 0.0
C1464 C 0.23607 0.19328 0.63386 0.0
C1465 C 0.24258 0.20646 0.61869 0.0
C1466 C 0.26408 0.21325 0.61264 0.0
C1467 C 0.27876 0.20709 0.62162 0.0
H1468 H 0.739 0.96681 0.62927 0.0
H1469 H 0.80619 0.99145 0.61212 0.0
H1470 H 0.75197 0.00614 0.64485 0.0
H1471 H 0.819 0.03113 0.62657 0.0
H1472 H 0.84286 0.09643 0.66403 0.0
H1473 H 0.8291 0.05498 0.65339 0.0
H1474 H 0.76188 0.04492 0.6401 0.0
H1475 H 0.77546 0.0859 0.65188 0.0
C1476 C 0.75652 0.9808 0.62876 0.0
C1477 C 0.77166 0.97624 0.6196 0.0
C1478 C 0.76397 0.00338 0.63758 0.0
C1479 C 0.78661 0.02201 0.63705 0.0
C1480 C 0.80164 0.01724 0.62774 0.0
C1481 C 0.7943 0.99455 0.61929 0.0
C1482 C 0.82507 0.08518 0.65907 0.0
C1483 C 0.81024 0.09435 0.65873 0.0
C1484 C 0.81718 0.06145 0.65278 0.0
C1485 C 0.79439 0.04651 0.64556 0.0
C1486 C 0.77943 0.05563 0.64575 0.0
C1487 C 0.78723 0.07921 0.65245 0.0
H1488 H 0.45543 0.33786 0.75557 0.0
H1489 H 0.46159 0.36674 0.70382 0.0
H1490 H 0.42825 0.2982 0.74121 0.0
H1491 H 0.43479 0.32681 0.68933 0.0
H1492 H 0.36638 0.25611 0.6749 0.0
H1493 H 0.39384 0.29624 0.68847 0.0
H1494 H 0.42814 0.26765 0.72023 0.0
H1495 H 0.40063 0.22758 0.70695 0.0
C1496 C 0.45092 0.33574 0.74113 0.0
C1497 C 0.4606 0.35544 0.73084 0.0
C1498 C 0.43554 0.31297 0.73287 0.0
C1499 C 0.42944 0.30937 0.71413 0.0
C1500 C 0.43904 0.32907 0.70382 0.0
C1501 C 0.45454 0.35187 0.71208 0.0
C1502 C 0.3798 0.25837 0.68475 0.0
C1503 C 0.38124 0.23858 0.68986 0.0
C1504 C 0.3956 0.28139 0.69244 0.0
C1505 C 0.4131 0.28509 0.70546 0.0
C1506 C 0.41466 0.26534 0.71042 0.0
C1507 C 0.39895 0.24237 0.7027 0.0
H1508 H 0.64962 0.1344 0.73127 0.0
H1509 H 0.64981 0.07058 0.74471 0.0
H1510 H 0.68481 0.14742 0.71691 0.0
H1511 H 0.68515 0.08367 0.73032 0.0
H1512 H 0.76061 0.12783 0.71921 0.0
H1513 H 0.72558 0.11457 0.73406 0.0
H1514 H 0.69788 0.13625 0.69011 0.0
H1515 H 0.73312 0.14984 0.67544 0.0
C1516 C 0.65709 0.12305 0.73105 0.0
C1517 C 0.64682 0.10136 0.73903 0.0
C1518 C 0.67726 0.13052 0.7228 0.0
C1519 C 0.6877 0.11651 0.72236 0.0
C1520 C 0.67765 0.09499 0.73059 0.0
C1521 C 0.65742 0.08749 0.73884 0.0
C1522 C 0.74699 0.12971 0.71274 0.0
C1523 C 0.7495 0.13985 0.6962 0.0
C1524 C 0.7269 0.12201 0.72118 0.0
C1525 C 0.70895 0.12436 0.71327 0.0
C1526 C 0.71151 0.13447 0.69667 0.0
C1527 C 0.7316 0.14214 0.68822 0.0
H1528 H 0.85872 0.51734 0.7144 0.0
H1529 H 0.92307 0.57999 0.73348 0.0
H1530 H 0.84608 0.54242 0.70038 0.0
H1531 H 0.91021 0.60514 0.71979 0.0
H1532 H 0.88808 0.63919 0.67646 0.0
H1533 H 0.90081 0.61346 0.68916 0.0
H1534 H 0.83566 0.57244 0.71049 0.0
H1535 H 0.82279 0.59792 0.69771 0.0
C1536 C 0.87018 0.53647 0.71554 0.0
C1537 C 0.89189 0.54671 0.72502 0.0
C1538 C 0.86287 0.55083 0.70766 0.0
C1539 C 0.87716 0.57573 0.70899 0.0
C1540 C 0.89891 0.58598 0.71839 0.0
C1541 C 0.90618 0.57162 0.72639 0.0
C1542 C 0.8764 0.62459 0.68375 0.0
C1543 C 0.85439 0.62061 0.68604 0.0
C1544 C 0.88377 0.60997 0.69113 0.0
C1545 C 0.86924 0.59098 0.70084 0.0
C1546 C 0.84715 0.5868 0.70291 0.0
C1547 C 0.83983 0.60148 0.69564 0.0
H1548 H 0.48492 0.94303 0.12379 0.0
H1549 H 0.46734 0.99691 0.13786 0.0
H1550 H 0.49403 0.95775 0.0942 0.0
H1551 H 0.47657 0.01178 0.10807 0.0
H1552 H 0.47804 0.01702 0.04567 0.0
H1553 H 0.46529 0.00131 0.07479 0.0
H1554 H 0.5249 0.9942 0.08392 0.0
H1555 H 0.53697 0.0089 0.05476 0.0
C1556 C 0.48305 0.95808 0.12055 0.0
C1557 C 0.47576 0.96906 0.13323 0.0
C1558 C 0.48827 0.9665 0.10361 0.0
C1559 C 0.48635 0.98615 0.09893 0.0
C1560 C 0.47814 0.99655 0.1113 0.0
C1561 C 0.47287 0.98807 0.12832 0.0
C1562 C 0.48814 0.01177 0.05389 0.0
C1563 C 0.50815 0.01363 0.0479 0.0
C1564 C 0.48105 0.00309 0.07059 0.0
C1565 C 0.49395 0.99622 0.08151 0.0
C1566 C 0.51434 0.99886 0.07566 0.0
C1567 C 0.52139 0.00753 0.05905 0.0
H1568 H 0.99368 0.47155 0.14435 0.0
H1569 H 0.05595 0.53584 0.13617 0.0
H1570 H 0.981 0.46686 0.11206 0.0
H1571 H 0.04336 0.53126 0.10416 0.0
H1572 H 0.02516 0.5036 0.04527 0.0
H1573 H 0.0359 0.50307 0.07695 0.0
H1574 H 0.96982 0.48994 0.09049 0.0
H1575 H 0.95891 0.48995 0.05845 0.0
C1576 C 0.00468 0.48453 0.13562 0.0
C1577 C 0.02574 0.5041 0.14272 0.0
C1578 C 0.99738 0.48195 0.11723 0.0
C1579 C 0.01122 0.49868 0.10563 0.0
C1580 C 0.03243 0.51797 0.11274 0.0
C1581 C 0.03956 0.5207 0.13107 0.0
C1582 C 0.01271 0.49989 0.05491 0.0
C1583 C 0.99109 0.49634 0.04941 0.0
C1584 C 0.01895 0.49994 0.07309 0.0
C1585 C 0.00369 0.49647 0.08618 0.0
C1586 C 0.98182 0.49241 0.08064 0.0
C1587 C 0.97564 0.49255 0.06239 0.0
H1588 H 0.45135 0.48527 0.13098 0.0
H1589 H 0.52316 0.52117 0.14912 0.0
H1590 H 0.46014 0.48139 0.10012 0.0
H1591 H 0.53206 0.51876 0.11814 0.0
H1592 H 0.54109 0.49781 0.06128 0.0
H1593 H 0.53109 0.49486 0.09258 0.0
H1594 H 0.47575 0.50712 0.0771 0.0
H1595 H 0.48571 0.50965 0.04615 0.0
C1596 C 0.469 0.49213 0.12845 0.0
C1597 C 0.48655 0.50377 0.14256 0.0
C1598 C 0.47409 0.49022 0.11068 0.0
C1599 C 0.49685 0.50009 0.10654 0.0
C1600 C 0.51433 0.51082 0.12077 0.0
C1601 C 0.50923 0.51252 0.13855 0.0
C1602 C 0.5267 0.49965 0.06468 0.0
C1603 C 0.5137 0.50322 0.05126 0.0
C1604 C 0.52099 0.49806 0.08257 0.0
C1605 C 0.5024 0.50046 0.0874 0.0
C1606 C 0.48969 0.50439 0.07386 0.0
C1607 C 0.4953 0.50575 0.05602 0.0
H1608 H 0.97324 0.45822 0.85627 0.0
H1609 H 0.95878 0.51522 0.86736 0.0
H1610 H 0.98499 0.4608 0.88782 0.0
H1611 H 0.96796 0.51579 0.89941 0.0
H1612 H 0.00896 0.52835 0.95389 0.0
H1613 H 0.99651 0.52708 0.92223 0.0
H1614 H 0.97278 0.45135 0.91561 0.0
H1615 H 0.98697 0.45339 0.94673 0.0
C1616 C 0.9725 0.47134 0.86538 0.0
C1617 C 0.96519 0.48666 0.85899 0.0
C1618 C 0.97876 0.47242 0.88372 0.0
C1619 C 0.97726 0.48833 0.89644 0.0
C1620 C 0.96969 0.50349 0.89012 0.0
C1621 C 0.96398 0.50285 0.87165 0.0
C1622 C 0.00109 0.51152 0.94553 0.0
C1623 C 0.99923 0.49106 0.95252 0.0
C1624 C 0.99375 0.51067 0.92741 0.0
C1625 C 0.98387 0.48916 0.91608 0.0
C1626 C 0.98103 0.46846 0.92357 0.0
C1627 C 0.98896 0.46951 0.94148 0.0
H1628 H 0.55309 0.51183 0.87582 0.0
H1629 H 0.48381 0.49005 0.85629 0.0
H1630 H 0.54427 0.51572 0.90681 0.0
H1631 H 0.47497 0.49357 0.88725 0.0
H1632 H 0.46202 0.4682 0.94466 0.0
H1633 H 0.47173 0.46986 0.91344 0.0
H1634 H 0.53219 0.5385 0.92801 0.0
H1635 H 0.52201 0.53705 0.95926 0.0
C1636 C 0.53612 0.50831 0.87808 0.0
C1637 C 0.51908 0.50035 0.86359 0.0
C1638 C 0.53106 0.51049 0.89584 0.0
C1639 C 0.50886 0.50466 0.89944 0.0
C1640 C 0.49212 0.49775 0.88489 0.0
C1641 C 0.49719 0.4957 0.86717 0.0
C1642 C 0.47728 0.48371 0.94115 0.0
C1643 C 0.49155 0.50227 0.95438 0.0
C1644 C 0.48281 0.48471 0.92329 0.0
C1645 C 0.50275 0.5043 0.91831 0.0
C1646 C 0.51688 0.52306 0.93153 0.0
C1647 C 0.51118 0.52215 0.94939 0.0
H1648 H 0.47995 0.99818 0.85711 0.0
H1649 H 0.55167 0.02622 0.87226 0.0
H1650 H 0.47133 0.98551 0.88719 0.0
H1651 H 0.54287 0.01197 0.90203 0.0
H1652 H 0.5221 0.01584 0.95934 0.0
H1653 H 0.53194 0.02342 0.92859 0.0
H1654 H 0.46881 0.95947 0.90881 0.0
H1655 H 0.45901 0.95248 0.93994 0.0
C1656 C 0.49389 0.00143 0.86681 0.0
C1657 C 0.51656 0.01363 0.86231 0.0
C1658 C 0.48889 0.99379 0.88403 0.0
C1659 C 0.5064 0.99785 0.89718 0.0
C1660 C 0.52897 0.00894 0.89238 0.0
C1661 C 0.534 0.01683 0.87519 0.0
C1662 C 0.51077 0.00305 0.9485 0.0
C1663 C 0.49015 0.98335 0.95205 0.0
C1664 C 0.51629 0.0074 0.93076 0.0
C1665 C 0.50126 0.99199 0.91609 0.0
C1666 C 0.48071 0.97191 0.91972 0.0
C1667 C 0.47512 0.9678 0.93752 0.0
H1668 H 0.11115 0.28835 0.45613 0.0
H1669 H 0.17656 0.34481 0.48048 0.0
H1670 H 0.12121 0.30324 0.42655 0.0
H1671 H 0.18655 0.3598 0.45101 0.0
H1672 H 0.20755 0.35521 0.39373 0.0
H1673 H 0.196 0.34527 0.42395 0.0
H1674 H 0.12995 0.33629 0.40762 0.0
H1675 H 0.14169 0.34632 0.3772 0.0
C1676 C 0.12749 0.30422 0.45522 0.0
C1677 C 0.14318 0.31524 0.47058 0.0
C1678 C 0.13324 0.31277 0.43828 0.0
C1679 C 0.15479 0.33255 0.4364 0.0
C1680 C 0.17001 0.34423 0.45194 0.0
C1681 C 0.16429 0.33566 0.46882 0.0
C1682 C 0.19066 0.3514 0.39666 0.0
C1683 C 0.1754 0.35125 0.38313 0.0
C1684 C 0.18405 0.34579 0.414 0.0
C1685 C 0.16204 0.33997 0.41821 0.0
C1686 C 0.14694 0.34043 0.40475 0.0
C1687 C 0.15364 0.34618 0.38738 0.0
H1688 H 0.72829 0.8675 0.4702 0.0
H1689 H 0.66014 0.81588 0.48152 0.0
H1690 H 0.71547 0.86169 0.43798 0.0
H1691 H 0.64719 0.81033 0.44923 0.0
H1692 H 0.63397 0.83854 0.39446 0.0
H1693 H 0.64496 0.83961 0.42659 0.0
H1694 H 0.69863 0.82634 0.41218 0.0
H1695 H 0.68745 0.82511 0.38015 0.0
C1696 C 0.71057 0.85491 0.46574 0.0
C1697 C 0.69516 0.84216 0.47827 0.0
C1698 C 0.70329 0.85148 0.44735 0.0
C1699 C 0.68037 0.83556 0.44119 0.0
C1700 C 0.66494 0.82275 0.4537 0.0
C1701 C 0.67233 0.82584 0.47208 0.0
C1702 C 0.64789 0.83552 0.3982 0.0
C1703 C 0.65969 0.83136 0.38487 0.0
C1704 C 0.6541 0.83604 0.41653 0.0
C1705 C 0.67258 0.83298 0.4218 0.0
C1706 C 0.68428 0.82869 0.40844 0.0
C1707 C 0.67775 0.8277 0.39013 0.0
H1708 H 0.18676 0.84888 0.48109 0.0
H1709 H 0.11731 0.82534 0.46077 0.0
H1710 H 0.19632 0.84589 0.4503 0.0
H1711 H 0.12687 0.82192 0.42995 0.0
H1712 H 0.15081 0.801 0.37825 0.0
H1713 H 0.14006 0.79965 0.4093 0.0
H1714 H 0.19933 0.86923 0.42381 0.0
H1715 H 0.20958 0.87078 0.39273 0.0
C1716 C 0.1735 0.84298 0.47007 0.0
C1717 C 0.15133 0.83765 0.4734 0.0
C1718 C 0.17899 0.84124 0.45244 0.0
C1719 C 0.16241 0.83393 0.43773 0.0
C1720 C 0.13997 0.82748 0.44106 0.0
C1721 C 0.13449 0.82938 0.45872 0.0
C1722 C 0.16123 0.81614 0.38804 0.0
C1723 C 0.18068 0.83623 0.38306 0.0
C1724 C 0.15521 0.81529 0.4058 0.0
C1725 C 0.16885 0.83434 0.41895 0.0
C1726 C 0.18862 0.85417 0.41401 0.0
C1727 C 0.19446 0.8551 0.39623 0.0
H1728 H 0.67103 0.82702 0.19049 0.0
H1729 H 0.61722 0.83904 0.20679 0.0
H1730 H 0.68431 0.83 0.22214 0.0
H1731 H 0.63047 0.84195 0.23851 0.0
H1732 H 0.6722 0.86335 0.29408 0.0
H1733 H 0.66186 0.86536 0.2624 0.0
H1734 H 0.66971 0.80492 0.24682 0.0
H1735 H 0.68004 0.80305 0.27831 0.0
C1736 C 0.66207 0.83034 0.20084 0.0
C1737 C 0.64294 0.83256 0.19613 0.0
C1738 C 0.66966 0.83203 0.21897 0.0
C1739 C 0.65829 0.83594 0.23285 0.0
C1740 C 0.63972 0.83912 0.22815 0.0
C1741 C 0.63213 0.83746 0.20997 0.0
C1742 C 0.67166 0.85052 0.28383 0.0
C1743 C 0.67678 0.83297 0.28859 0.0
C1744 C 0.66573 0.85164 0.26572 0.0
C1745 C 0.66506 0.83536 0.25208 0.0
C1746 C 0.67044 0.81798 0.25694 0.0
C1747 C 0.67624 0.81682 0.27499 0.0
H1748 H 0.18669 0.79383 0.20302 0.0
H1749 H 0.17792 0.85323 0.19101 0.0
H1750 H 0.17873 0.79794 0.23424 0.0
H1751 H 0.16977 0.8573 0.22241 0.0
H1752 H 0.12834 0.83154 0.27426 0.0
H1753 H 0.13756 0.83068 0.24279 0.0
H1754 H 0.19812 0.82919 0.26128 0.0
H1755 H 0.18864 0.82962 0.29232 0.0
C1756 C 0.18306 0.80778 0.20711 0.0
C1757 C 0.18288 0.82321 0.19465 0.0
C1758 C 0.17862 0.81021 0.22496 0.0
C1759 C 0.17363 0.82793 0.2307 0.0
C1760 C 0.17345 0.84341 0.21827 0.0
C1761 C 0.17827 0.84122 0.20041 0.0
C1762 C 0.14371 0.83127 0.27151 0.0
C1763 C 0.15817 0.83133 0.28574 0.0
C1764 C 0.14904 0.83091 0.25359 0.0
C1765 C 0.16863 0.83003 0.24965 0.0
C1766 C 0.18297 0.82996 0.26393 0.0
C1767 C 0.17777 0.83064 0.28177 0.0
H1768 H 0.20455 0.33684 0.20032 0.0
H1769 H 0.17558 0.38214 0.20936 0.0
H1770 H 0.1942 0.32188 0.22995 0.0
H1771 H 0.16522 0.36718 0.23871 0.0
H1772 H 0.12484 0.31521 0.27823 0.0
H1773 H 0.13705 0.32854 0.24875 0.0
H1774 H 0.20232 0.33477 0.26344 0.0
H1775 H 0.18973 0.32074 0.29299 0.0
C1776 C 0.1962 0.34377 0.2087 0.0
C1777 C 0.19056 0.36039 0.20239 0.0
C1778 C 0.19028 0.3352 0.22563 0.0
C1779 C 0.17858 0.34308 0.2365 0.0
C1780 C 0.17372 0.36033 0.23044 0.0
C1781 C 0.17965 0.36888 0.21362 0.0
C1782 C 0.14169 0.31914 0.27509 0.0
C1783 C 0.1565 0.3173 0.28792 0.0
C1784 C 0.14877 0.32698 0.25828 0.0
C1785 C 0.17078 0.33306 0.2539 0.0
C1786 C 0.18526 0.33019 0.26645 0.0
C1787 C 0.17814 0.32232 0.28334 0.0
H1788 H 0.84402 0.67751 0.81277 0.0
H1789 H 0.77918 0.62077 0.78773 0.0
H1790 H 0.85403 0.6934 0.78356 0.0
H1791 H 0.78924 0.63658 0.75842 0.0
H1792 H 0.80946 0.68077 0.70974 0.0
H1793 H 0.79764 0.6701 0.74005 0.0
H1794 H 0.86397 0.67974 0.75631 0.0
H1795 H 0.87559 0.69029 0.7262 0.0
C1796 C 0.83188 0.66849 0.80101 0.0
C1797 C 0.81093 0.64774 0.8025 0.0
C1798 C 0.83761 0.67758 0.78429 0.0
C1799 C 0.82255 0.6661 0.76864 0.0
C1800 C 0.80114 0.64596 0.77025 0.0
C1801 C 0.79538 0.63689 0.78703 0.0
C1802 C 0.82145 0.68065 0.71988 0.0
C1803 C 0.8433 0.68604 0.71564 0.0
C1804 C 0.81471 0.67454 0.73719 0.0
C1805 C 0.82986 0.67405 0.75059 0.0
C1806 C 0.85198 0.68026 0.7464 0.0
C1807 C 0.85863 0.68622 0.72913 0.0
H1808 H 0.33645 0.19418 0.81477 0.0
H1809 H 0.36537 0.14925 0.80356 0.0
H1810 H 0.32544 0.19127 0.78274 0.0
H1811 H 0.3528 0.14485 0.77165 0.0
H1812 H 0.35548 0.16928 0.71469 0.0
H1813 H 0.36334 0.16784 0.74674 0.0
H1814 H 0.30116 0.16747 0.75733 0.0
H1815 H 0.29388 0.16954 0.72512 0.0
C1816 C 0.34028 0.18347 0.8055 0.0
C1817 C 0.35209 0.17221 0.8118 0.0
C1818 C 0.33362 0.18149 0.7871 0.0
C1819 C 0.33832 0.16793 0.77449 0.0
C1820 C 0.34926 0.15583 0.78089 0.0
C1821 C 0.35616 0.15804 0.79928 0.0
C1822 C 0.34322 0.16815 0.72381 0.0
C1823 C 0.32383 0.16887 0.71745 0.0
C1824 C 0.34773 0.16746 0.74225 0.0
C1825 C 0.33281 0.16736 0.75473 0.0
C1826 C 0.31321 0.16784 0.74821 0.0
C1827 C 0.30892 0.16887 0.72977 0.0
H1828 H 0.81046 0.13806 0.81079 0.0
H1829 H 0.83097 0.21197 0.80604 0.0
H1830 H 0.81686 0.13368 0.779 0.0
H1831 H 0.83776 0.20774 0.77461 0.0
H1832 H 0.82251 0.18573 0.7147 0.0
H1833 H 0.8141 0.18656 0.74603 0.0
H1834 H 0.84961 0.14883 0.75905 0.0
H1835 H 0.85774 0.14762 0.72735 0.0
C1836 C 0.81631 0.15332 0.80296 0.0
C1837 C 0.82026 0.17537 0.8109 0.0
C1838 C 0.82015 0.15087 0.78485 0.0
C1839 C 0.82772 0.17034 0.77433 0.0
C1840 C 0.83167 0.19234 0.78232 0.0
C1841 C 0.82801 0.19483 0.80037 0.0
C1842 C 0.82831 0.17736 0.72418 0.0
C1843 C 0.84078 0.16661 0.71863 0.0
C1844 C 0.82364 0.178 0.74215 0.0
C1845 C 0.83138 0.16795 0.75502 0.0
C1846 C 0.84335 0.1566 0.74939 0.0
C1847 C 0.8481 0.15602 0.73132 0.0
H1848 H 0.27395 0.12247 0.53339 0.0
H1849 H 0.32615 0.19561 0.5298 0.0
H1850 H 0.28635 0.12583 0.56526 0.0
H1851 H 0.33879 0.19898 0.56182 0.0
H1852 H 0.3421 0.20036 0.6243 0.0
H1853 H 0.328 0.19906 0.59297 0.0
H1854 H 0.3194 0.12883 0.582 0.0
H1855 H 0.33253 0.12986 0.61333 0.0
C1856 C 0.28814 0.13927 0.53943 0.0
C1857 C 0.29928 0.15868 0.52905 0.0
C1858 C 0.29526 0.14119 0.55768 0.0
C1859 C 0.31376 0.16256 0.56601 0.0
C1860 C 0.3244 0.18231 0.55582 0.0
C1861 C 0.31719 0.18039 0.53749 0.0
C1862 C 0.33683 0.18456 0.61519 0.0
C1863 C 0.33796 0.16504 0.62123 0.0
C1864 C 0.32906 0.18392 0.59723 0.0
C1865 C 0.32237 0.16374 0.58504 0.0
C1866 C 0.32398 0.14444 0.59112 0.0
C1867 C 0.33171 0.14511 0.60901 0.0
H1868 H 0.834 0.12616 0.5319 0.0
H1869 H 0.85966 0.20143 0.52866 0.0
H1870 H 0.82782 0.13032 0.5635 0.0
H1871 H 0.85367 0.20567 0.56063 0.0
H1872 H 0.81184 0.19146 0.61234 0.0
H1873 H 0.82004 0.19103 0.58058 0.0
H1874 H 0.85304 0.15042 0.59216 0.0
H1875 H 0.84467 0.1506 0.62356 0.0
C1876 C 0.83818 0.14359 0.53794 0.0
C1877 C 0.8472 0.16345 0.5278 0.0
C1878 C 0.83486 0.14601 0.55608 0.0
C1879 C 0.84038 0.16834 0.56453 0.0
C1880 C 0.84919 0.18824 0.5544 0.0
C1881 C 0.85275 0.18585 0.5362 0.0
C1882 C 0.82097 0.18261 0.60804 0.0
C1883 C 0.82757 0.17102 0.62034 0.0
C1884 C 0.82577 0.18248 0.58995 0.0
C1885 C 0.83702 0.17054 0.58391 0.0
C1886 C 0.84409 0.1595 0.59639 0.0
C1887 C 0.83942 0.15974 0.61439 0.0
H1888 H 0.89035 0.71317 0.54829 0.0
H1889 H 0.82562 0.6564 0.5231 0.0
H1890 H 0.87965 0.69804 0.57772 0.0
H1891 H 0.81497 0.6412 0.55243 0.0
H1892 H 0.85812 0.65488 0.62687 0.0
H1893 H 0.87051 0.66474 0.59659 0.0
H1894 H 0.8048 0.65588 0.57914 0.0
H1895 H 0.79261 0.64614 0.60926 0.0
C1896 C 0.87404 0.69718 0.549 0.0
C1897 C 0.8587 0.68614 0.53344 0.0
C1898 C 0.86791 0.6885 0.56584 0.0
C1899 C 0.84635 0.66859 0.56742 0.0
C1900 C 0.83151 0.65687 0.5517 0.0
C1901 C 0.83761 0.66556 0.53491 0.0
C1902 C 0.84638 0.65498 0.61648 0.0
C1903 C 0.82454 0.65006 0.62038 0.0
C1904 C 0.85345 0.66064 0.59919 0.0
C1905 C 0.83865 0.66111 0.58548 0.0
C1906 C 0.81652 0.65536 0.58932 0.0
C1907 C 0.80955 0.64987 0.60658 0.0
loop_
_geom_bond_atom_site_label_1
_geom_bond_atom_site_label_2
_geom_bond_distance
_geom_bond_site_symmetry_2
_ccdc_geom_bond_type
C0 C1 1.384 . S
C0 H13 0.947 . S
C0 C35 1.382 . S
C1 C0 1.384 . S
C1 C2 1.378 . S
C2 C1 1.378 . S
C2 C3 1.378 . S
C2 H14 0.952 . S
C3 C2 1.378 . S
C3 H15 0.950 . S
C3 C34 1.383 . S
H4 C23 0.947 . S
H5 C24 0.946 . S
H6 C26 0.953 . S
H7 C27 0.945 . S
H8 C29 0.952 . S
H9 C30 0.949 . S
H10 C32 0.950 . S
H11 C33 0.948 . S
H12 C35 0.951 . S
H13 C0 0.947 . S
H14 C2 0.952 . S
H15 C3 0.950 . S
N16 C19 1.382 . S
N16 C21 1.363 . S
N17 C19 1.371 . S
N17 C20 1.372 . S
N18 C20 1.361 . S
N18 C21 1.377 . S
C19 N16 1.382 . S
C19 N17 1.371 . S
C19 C22 1.480 . S
C20 N17 1.372 . S
C20 N18 1.361 . S
C20 C28 1.457 . S
C21 N16 1.363 . S
C21 N18 1.377 . S
C21 C34 1.479 . S
C22 C19 1.480 . S
C22 C23 1.383 . S
C22 C27 1.385 . S
C23 H4 0.947 . S
C23 C22 1.383 . S
C23 C24 1.388 . S
C24 H5 0.946 . S
C24 C23 1.388 . S
C24 C25 1.384 . S
C25 C24 1.384 . S
C25 C26 1.377 . S
C26 H6 0.953 . S
C26 C25 1.377 . S
C26 C27 1.369 . S
C27 H7 0.945 . S
C27 C22 1.385 . S
C27 C26 1.369 . S
C28 C20 1.457 . S
C28 C29 1.372 . S
C28 C33 1.364 . S
C29 H8 0.952 . S
C29 C28 1.372 . S
C29 C30 1.389 . S
C30 H9 0.949 . S
C30 C29 1.389 . S
C30 C31 1.387 . S
C31 C30 1.387 . S
C31 C32 1.372 . S
C32 H10 0.950 . S
C32 C31 1.372 . S
C32 C33 1.379 . S
C33 H11 0.948 . S
C33 C28 1.364 . S
C33 C32 1.379 . S
C34 C3 1.383 . S
C34 C21 1.479 . S
C34 C35 1.398 . S
C35 C0 1.382 . S
C35 H12 0.951 . S
C35 C34 1.398 . S
C36 C37 1.384 . S
C36 H49 0.947 . S
C36 C71 1.382 . S
C37 C36 1.384 . S
C37 C38 1.378 . S
C38 C37 1.378 . S
C38 C39 1.378 . S
C38 H50 0.952 . S
C39 C38 1.378 . S
C39 H51 0.950 . S
C39 C70 1.383 . S
H40 C59 0.947 . S
H41 C60 0.946 . S
H42 C62 0.953 . S
H43 C63 0.945 . S
H44 C65 0.952 . S
H45 C66 0.949 . S
H46 C68 0.950 . S
H47 C69 0.948 . S
H48 C71 0.951 . S
H49 C36 0.947 . S
H50 C38 0.952 . S
H51 C39 0.950 . S
N52 C55 1.382 . S
N52 C57 1.363 . S
N53 C55 1.371 . S
N53 C56 1.372 . S
N54 C56 1.361 . S
N54 C57 1.377 . S
C55 N52 1.382 . S
C55 N53 1.371 . S
C55 C58 1.480 . S
C56 N53 1.372 . S
C56 N54 1.361 . S
C56 C64 1.457 . S
C57 N52 1.363 . S
C57 N54 1.377 . S
C57 C70 1.479 . S
C58 C55 1.480 . S
C58 C59 1.383 . S
C58 C63 1.385 . S
C59 H40 0.947 . S
C59 C58 1.383 . S
C59 C60 1.388 . S
C60 H41 0.946 . S
C60 C59 1.388 . S
C60 C61 1.384 . S
C61 C60 1.384 . S
C61 C62 1.377 . S
C62 H42 0.953 . S
C62 C61 1.377 . S
C62 C63 1.369 . S
C63 H43 0.945 . S
C63 C58 1.385 . S
C63 C62 1.369 . S
C64 C56 1.457 . S
C64 C65 1.372 . S
C64 C69 1.364 . S
C65 H44 0.952 . S
C65 C64 1.372 . S
C65 C66 1.389 . S
C66 H45 0.949 . S
C66 C65 1.389 . S
C66 C67 1.387 . S
C67 C66 1.387 . S
C67 C68 1.372 . S
C68 H46 0.950 . S
C68 C67 1.372 . S
C68 C69 1.379 . S
C69 H47 0.948 . S
C69 C64 1.364 . S
C69 C68 1.379 . S
C70 C39 1.383 . S
C70 C57 1.479 . S
C70 C71 1.398 . S
C71 C36 1.382 . S
C71 H48 0.951 . S
C71 C70 1.398 . S
C72 C73 1.384 . S
C72 H85 0.947 . S
C72 C107 1.382 . S
C73 C72 1.384 . S
C73 C74 1.378 . S
C74 C73 1.378 . S
C74 C75 1.378 . S
C74 H86 0.952 . S
C75 C74 1.378 . S
C75 H87 0.950 . S
C75 C106 1.383 . S
H76 C95 0.947 . S
H77 C96 0.946 . S
H78 C98 0.953 . S
H79 C99 0.945 . S
H80 C101 0.952 . S
H81 C102 0.949 . S
H82 C104 0.950 . S
H83 C105 0.948 . S
H84 C107 0.951 . S
H85 C72 0.947 . S
H86 C74 0.952 . S
H87 C75 0.950 . S
N88 C91 1.382 . S
N88 C93 1.363 . S
N89 C91 1.371 . S
N89 C92 1.372 . S
N90 C92 1.361 . S
N90 C93 1.377 . S
C91 N88 1.382 . S
C91 N89 1.371 . S
C91 C94 1.480 . S
C92 N89 1.372 . S
C92 N90 1.361 . S
C92 C100 1.457 . S
C93 N88 1.363 . S
C93 N90 1.377 . S
C93 C106 1.479 . S
C94 C91 1.480 . S
C94 C95 1.383 . S
C94 C99 1.385 . S
C95 H76 0.947 . S
C95 C94 1.383 . S
C95 C96 1.388 . S
C96 H77 0.946 . S
C96 C95 1.388 . S
C96 C97 1.384 . S
C97 C96 1.384 . S
C97 C98 1.377 . S
C98 H78 0.953 . S
C98 C97 1.377 . S
C98 C99 1.369 . S
C99 H79 0.945 . S
C99 C94 1.385 . S
C99 C98 1.369 . S
C100 C92 1.457 . S
C100 C101 1.372 . S
C100 C105 1.364 . S
C101 H80 0.952 . S
C101 C100 1.372 . S
C101 C102 1.389 . S
C102 H81 0.949 . S
C102 C101 1.389 . S
C102 C103 1.387 . S
C103 C102 1.387 . S
C103 C104 1.372 . S
C104 H82 0.950 . S
C104 C103 1.372 . S
C104 C105 1.379 . S
C105 H83 0.948 . S
C105 C100 1.364 . S
C105 C104 1.379 . S
C106 C75 1.383 . S
C106 C93 1.479 . S
C106 C107 1.398 . S
C107 C72 1.382 . S
C107 H84 0.951 . S
C107 C106 1.398 . S
C108 C109 1.384 . S
C108 H121 0.947 . S
C108 C143 1.382 . S
C109 C108 1.384 . S
C109 C110 1.378 . S
C110 C109 1.378 . S
C110 C111 1.378 . S
C110 H122 0.952 . S
C111 C110 1.378 . S
C111 H123 0.950 . S
C111 C142 1.383 . S
H112 C131 0.947 . S
H113 C132 0.946 . S
H114 C134 0.953 . S
H115 C135 0.945 . S
H116 C137 0.952 . S
H117 C138 0.949 . S
H118 C140 0.950 . S
H119 C141 0.948 . S
H120 C143 0.951 . S
H121 C108 0.947 . S
H122 C110 0.952 . S
H123 C111 0.950 . S
N124 C127 1.382 . S
N124 C129 1.363 . S
N125 C127 1.371 . S
N125 C128 1.372 . S
N126 C128 1.361 . S
N126 C129 1.377 . S
C127 N124 1.382 . S
C127 N125 1.371 . S
C127 C130 1.480 . S
C128 N125 1.372 . S
C128 N126 1.361 . S
C128 C136 1.457 . S
C129 N124 1.363 . S
C129 N126 1.377 . S
C129 C142 1.479 . S
C130 C127 1.480 . S
C130 C131 1.383 . S
C130 C135 1.385 . S
C131 H112 0.947 . S
C131 C130 1.383 . S
C131 C132 1.388 . S
C132 H113 0.946 . S
C132 C131 1.388 . S
C132 C133 1.384 . S
C133 C132 1.384 . S
C133 C134 1.377 . S
C134 H114 0.953 . S
C134 C133 1.377 . S
C134 C135 1.369 . S
C135 H115 0.945 . S
C135 C130 1.385 . S
C135 C134 1.369 . S
C136 C128 1.457 . S
C136 C137 1.372 . S
C136 C141 1.364 . S
C137 H116 0.952 . S
C137 C136 1.372 . S
C137 C138 1.389 . S
C138 H117 0.949 . S
C138 C137 1.389 . S
C138 C139 1.387 . S
C139 C138 1.387 . S
C139 C140 1.372 . S
C140 H118 0.950 . S
C140 C139 1.372 . S
C140 C141 1.379 . S
C141 H119 0.948 . S
C141 C136 1.364 . S
C141 C140 1.379 . S
C142 C111 1.383 . S
C142 C129 1.479 . S
C142 C143 1.398 . S
C143 C108 1.382 . S
C143 H120 0.951 . S
C143 C142 1.398 . S
C144 C145 1.384 . S
C144 H157 0.947 . S
C144 C179 1.382 . S
C145 C144 1.384 . S
C145 C146 1.378 . S
C146 C145 1.378 . S
C146 C147 1.378 . S
C146 H158 0.952 . S
C147 C146 1.378 . S
C147 H159 0.950 . S
C147 C178 1.383 . S
H148 C167 0.947 . S
H149 C168 0.946 . S
H150 C170 0.953 . S
H151 C171 0.945 . S
H152 C173 0.952 . S
H153 C174 0.949 . S
H154 C176 0.950 . S
H155 C177 0.948 . S
H156 C179 0.951 . S
H157 C144 0.947 . S
H158 C146 0.952 . S
H159 C147 0.950 . S
N160 C163 1.382 . S
N160 C165 1.363 . S
N161 C163 1.371 . S
N161 C164 1.372 . S
N162 C164 1.361 . S
N162 C165 1.377 . S
C163 N160 1.382 . S
C163 N161 1.371 . S
C163 C166 1.480 . S
C164 N161 1.372 . S
C164 N162 1.361 . S
C164 C172 1.457 . S
C165 N160 1.363 . S
C165 N162 1.377 . S
C165 C178 1.479 . S
C166 C163 1.480 . S
C166 C167 1.383 . S
C166 C171 1.385 . S
C167 H148 0.947 . S
C167 C166 1.383 . S
C167 C168 1.388 . S
C168 H149 0.946 . S
C168 C167 1.388 . S
C168 C169 1.384 . S
C169 C168 1.384 . S
C169 C170 1.377 . S
C170 H150 0.953 . S
C170 C169 1.377 . S
C170 C171 1.369 . S
C171 H151 0.945 . S
C171 C166 1.385 . S
C171 C170 1.369 . S
C172 C164 1.457 . S
C172 C173 1.372 . S
C172 C177 1.364 . S
C173 H152 0.952 . S
C173 C172 1.372 . S
C173 C174 1.389 . S
C174 H153 0.949 . S
C174 C173 1.389 . S
C174 C175 1.387 . S
C175 C174 1.387 . S
C175 C176 1.372 . S
C176 H154 0.950 . S
C176 C175 1.372 . S
C176 C177 1.379 . S
C177 H155 0.948 . S
C177 C172 1.364 . S
C177 C176 1.379 . S
C178 C147 1.383 . S
C178 C165 1.479 . S
C178 C179 1.398 . S
C179 C144 1.382 . S
C179 H156 0.951 . S
C179 C178 1.398 . S
C180 C181 1.384 . S
C180 H193 0.947 . S
C180 C215 1.382 . S
C181 C180 1.384 . S
C181 C182 1.378 . S
C182 C181 1.378 . S
C182 C183 1.378 . S
C182 H194 0.952 . S
C183 C182 1.378 . S
C183 H195 0.950 . S
C183 C214 1.383 . S
H184 C203 0.947 . S
H185 C204 0.946 . S
H186 C206 0.953 . S
H187 C207 0.945 . S
H188 C209 0.952 . S
H189 C210 0.949 . S
H190 C212 0.950 . S
H191 C213 0.948 . S
H192 C215 0.951 . S
H193 C180 0.947 . S
H194 C182 0.952 . S
H195 C183 0.950 . S
N196 C199 1.382 . S
N196 C201 1.363 . S
N197 C199 1.371 . S
N197 C200 1.372 . S
N198 C200 1.361 . S
N198 C201 1.377 . S
C199 N196 1.382 . S
C199 N197 1.371 . S
C199 C202 1.480 . S
C200 N197 1.372 . S
C200 N198 1.361 . S
C200 C208 1.457 . S
C201 N196 1.363 . S
C201 N198 1.377 . S
C201 C214 1.479 . S
C202 C199 1.480 . S
C202 C203 1.383 . S
C202 C207 1.385 . S
C203 H184 0.947 . S
C203 C202 1.383 . S
C203 C204 1.388 . S
C204 H185 0.946 . S
C204 C203 1.388 . S
C204 C205 1.384 . S
C205 C204 1.384 . S
C205 C206 1.377 . S
C206 H186 0.953 . S
C206 C205 1.377 . S
C206 C207 1.369 . S
C207 H187 0.945 . S
C207 C202 1.385 . S
C207 C206 1.369 . S
C208 C200 1.457 . S
C208 C209 1.372 . S
C208 C213 1.364 . S
C209 H188 0.952 . S
C209 C208 1.372 . S
C209 C210 1.389 . S
C210 H189 0.949 . S
C210 C209 1.389 . S
C210 C211 1.387 . S
C211 C210 1.387 . S
C211 C212 1.372 . S
C212 H190 0.950 . S
C212 C211 1.372 . S
C212 C213 1.379 . S
C213 H191 0.948 . S
C213 C208 1.364 . S
C213 C212 1.379 . S
C214 C183 1.383 . S
C214 C201 1.479 . S
C214 C215 1.398 . S
C215 C180 1.382 . S
C215 H192 0.951 . S
C215 C214 1.398 . S
C216 C217 1.384 . S
C216 H229 0.947 . S
C216 C251 1.382 . S
C217 C216 1.384 . S
C217 C218 1.378 . S
C218 C217 1.378 . S
C218 C219 1.378 . S
C218 H230 0.952 . S
C219 C218 1.378 . S
C219 H231 0.950 . S
C219 C250 1.383 . S
H220 C239 0.947 . S
H221 C240 0.946 . S
H222 C242 0.953 . S
H223 C243 0.945 . S
H224 C245 0.952 . S
H225 C246 0.949 . S
H226 C248 0.950 . S
H227 C249 0.948 . S
H228 C251 0.951 . S
H229 C216 0.947 . S
H230 C218 0.952 . S
H231 C219 0.950 . S
N232 C235 1.382 . S
N232 C237 1.363 . S
N233 C235 1.371 . S
N233 C236 1.372 . S
N234 C236 1.361 . S
N234 C237 1.377 . S
C235 N232 1.382 . S
C235 N233 1.371 . S
C235 C238 1.480 . S
C236 N233 1.372 . S
C236 N234 1.361 . S
C236 C244 1.457 . S
C237 N232 1.363 . S
C237 N234 1.377 . S
C237 C250 1.479 . S
C238 C235 1.480 . S
C238 C239 1.383 . S
C238 C243 1.385 . S
C239 H220 0.947 . S
C239 C238 1.383 . S
C239 C240 1.388 . S
C240 H221 0.946 . S
C240 C239 1.388 . S
C240 C241 1.384 . S
C241 C240 1.384 . S
C241 C242 1.377 . S
C242 H222 0.953 . S
C242 C241 1.377 . S
C242 C243 1.369 . S
C243 H223 0.945 . S
C243 C238 1.385 . S
C243 C242 1.369 . S
C244 C236 1.457 . S
C244 C245 1.372 . S
C244 C249 1.364 . S
C245 H224 0.952 . S
C245 C244 1.372 . S
C245 C246 1.389 . S
C246 H225 0.949 . S
C246 C245 1.389 . S
C246 C247 1.387 . S
C247 C246 1.387 . S
C247 C248 1.372 . S
C248 H226 0.950 . S
C248 C247 1.372 . S
C248 C249 1.379 . S
C249 H227 0.948 . S
C249 C244 1.364 . S
C249 C248 1.379 . S
C250 C219 1.383 . S
C250 C237 1.479 . S
C250 C251 1.398 . S
C251 C216 1.382 . S
C251 H228 0.951 . S
C251 C250 1.398 . S
C252 C253 1.384 . S
C252 H265 0.947 . S
C252 C287 1.382 . S
C253 C252 1.384 . S
C253 C254 1.378 . S
C254 C253 1.378 . S
C254 C255 1.378 . S
C254 H266 0.952 . S
C255 C254 1.378 . S
C255 H267 0.950 . S
C255 C286 1.383 . S
H256 C275 0.947 . S
H257 C276 0.946 . S
H258 C278 0.953 . S
H259 C279 0.945 . S
H260 C281 0.952 . S
H261 C282 0.949 . S
H262 C284 0.950 . S
H263 C285 0.948 . S
H264 C287 0.951 . S
H265 C252 0.947 . S
H266 C254 0.952 . S
H267 C255 0.950 . S
N268 C271 1.382 . S
N268 C273 1.363 . S
N269 C271 1.371 . S
N269 C272 1.372 . S
N270 C272 1.361 . S
N270 C273 1.377 . S
C271 N268 1.382 . S
C271 N269 1.371 . S
C271 C274 1.480 . S
C272 N269 1.372 . S
C272 N270 1.361 . S
C272 C280 1.457 . S
C273 N268 1.363 . S
C273 N270 1.377 . S
C273 C286 1.479 . S
C274 C271 1.480 . S
C274 C275 1.383 . S
C274 C279 1.385 . S
C275 H256 0.947 . S
C275 C274 1.383 . S
C275 C276 1.388 . S
C276 H257 0.946 . S
C276 C275 1.388 . S
C276 C277 1.384 . S
C277 C276 1.384 . S
C277 C278 1.377 . S
C278 H258 0.953 . S
C278 C277 1.377 . S
C278 C279 1.369 . S
C279 H259 0.945 . S
C279 C274 1.385 . S
C279 C278 1.369 . S
C280 C272 1.457 . S
C280 C281 1.372 . S
C280 C285 1.364 . S
C281 H260 0.952 . S
C281 C280 1.372 . S
C281 C282 1.389 . S
C282 H261 0.949 . S
C282 C281 1.389 . S
C282 C283 1.387 . S
C283 C282 1.387 . S
C283 C284 1.372 . S
C284 H262 0.950 . S
C284 C283 1.372 . S
C284 C285 1.379 . S
C285 H263 0.948 . S
C285 C280 1.364 . S
C285 C284 1.379 . S
C286 C255 1.383 . S
C286 C273 1.479 . S
C286 C287 1.398 . S
C287 C252 1.382 . S
C287 H264 0.951 . S
C287 C286 1.398 . S
C288 C289 1.384 . S
C288 H301 0.947 . S
C288 C323 1.382 . S
C289 C288 1.384 . S
C289 C290 1.378 . S
C290 C289 1.378 . S
C290 C291 1.378 . S
C290 H302 0.952 . S
C291 C290 1.378 . S
C291 H303 0.950 . S
C291 C322 1.383 . S
H292 C311 0.947 . S
H293 C312 0.946 . S
H294 C314 0.953 . S
H295 C315 0.945 . S
H296 C317 0.952 . S
H297 C318 0.949 . S
H298 C320 0.950 . S
H299 C321 0.948 . S
H300 C323 0.951 . S
H301 C288 0.947 . S
H302 C290 0.952 . S
H303 C291 0.950 . S
N304 C307 1.382 . S
N304 C309 1.363 . S
N305 C307 1.371 . S
N305 C308 1.372 . S
N306 C308 1.361 . S
N306 C309 1.377 . S
C307 N304 1.382 . S
C307 N305 1.371 . S
C307 C310 1.480 . S
C308 N305 1.372 . S
C308 N306 1.361 . S
C308 C316 1.457 . S
C309 N304 1.363 . S
C309 N306 1.377 . S
C309 C322 1.479 . S
C310 C307 1.480 . S
C310 C311 1.383 . S
C310 C315 1.385 . S
C311 H292 0.947 . S
C311 C310 1.383 . S
C311 C312 1.388 . S
C312 H293 0.946 . S
C312 C311 1.388 . S
C312 C313 1.384 . S
C313 C312 1.384 . S
C313 C314 1.377 . S
C314 H294 0.953 . S
C314 C313 1.377 . S
C314 C315 1.369 . S
C315 H295 0.945 . S
C315 C310 1.385 . S
C315 C314 1.369 . S
C316 C308 1.457 . S
C316 C317 1.372 . S
C316 C321 1.364 . S
C317 H296 0.952 . S
C317 C316 1.372 . S
C317 C318 1.389 . S
C318 H297 0.949 . S
C318 C317 1.389 . S
C318 C319 1.387 . S
C319 C318 1.387 . S
C319 C320 1.372 . S
C320 H298 0.950 . S
C320 C319 1.372 . S
C320 C321 1.379 . S
C321 H299 0.948 . S
C321 C316 1.364 . S
C321 C320 1.379 . S
C322 C291 1.383 . S
C322 C309 1.479 . S
C322 C323 1.398 . S
C323 C288 1.382 . S
C323 H300 0.951 . S
C323 C322 1.398 . S
C324 C325 1.384 . S
C324 H337 0.947 . S
C324 C359 1.382 . S
C325 C324 1.384 . S
C325 C326 1.378 . S
C326 C325 1.378 . S
C326 C327 1.378 . S
C326 H338 0.952 . S
C327 C326 1.378 . S
C327 H339 0.950 . S
C327 C358 1.383 . S
H328 C347 0.947 . S
H329 C348 0.946 . S
H330 C350 0.953 . S
H331 C351 0.945 . S
H332 C353 0.952 . S
H333 C354 0.949 . S
H334 C356 0.950 . S
H335 C357 0.948 . S
H336 C359 0.951 . S
H337 C324 0.947 . S
H338 C326 0.952 . S
H339 C327 0.950 . S
N340 C343 1.382 . S
N340 C345 1.363 . S
N341 C343 1.371 . S
N341 C344 1.372 . S
N342 C344 1.361 . S
N342 C345 1.377 . S
C343 N340 1.382 . S
C343 N341 1.371 . S
C343 C346 1.480 . S
C344 N341 1.372 . S
C344 N342 1.361 . S
C344 C352 1.457 . S
C345 N340 1.363 . S
C345 N342 1.377 . S
C345 C358 1.479 . S
C346 C343 1.480 . S
C346 C347 1.383 . S
C346 C351 1.385 . S
C347 H328 0.947 . S
C347 C346 1.383 . S
C347 C348 1.388 . S
C348 H329 0.946 . S
C348 C347 1.388 . S
C348 C349 1.384 . S
C349 C348 1.384 . S
C349 C350 1.377 . S
C350 H330 0.953 . S
C350 C349 1.377 . S
C350 C351 1.369 . S
C351 H331 0.945 . S
C351 C346 1.385 . S
C351 C350 1.369 . S
C352 C344 1.457 . S
C352 C353 1.372 . S
C352 C357 1.364 . S
C353 H332 0.952 . S
C353 C352 1.372 . S
C353 C354 1.389 . S
C354 H333 0.949 . S
C354 C353 1.389 . S
C354 C355 1.387 . S
C355 C354 1.387 . S
C355 C356 1.372 . S
C356 H334 0.950 . S
C356 C355 1.372 . S
C356 C357 1.379 . S
C357 H335 0.948 . S
C357 C352 1.364 . S
C357 C356 1.379 . S
C358 C327 1.383 . S
C358 C345 1.479 . S
C358 C359 1.398 . S
C359 C324 1.382 . S
C359 H336 0.951 . S
C359 C358 1.398 . S
C360 C361 1.384 . S
C360 H373 0.947 . S
C360 C395 1.382 . S
C361 C360 1.384 . S
C361 C362 1.378 . S
C362 C361 1.378 . S
C362 C363 1.378 . S
C362 H374 0.952 . S
C363 C362 1.378 . S
C363 H375 0.950 . S
C363 C394 1.383 . S
H364 C383 0.947 . S
H365 C384 0.946 . S
H366 C386 0.953 . S
H367 C387 0.945 . S
H368 C389 0.952 . S
H369 C390 0.949 . S
H370 C392 0.950 . S
H371 C393 0.948 . S
H372 C395 0.951 . S
H373 C360 0.947 . S
H374 C362 0.952 . S
H375 C363 0.950 . S
N376 C379 1.382 . S
N376 C381 1.363 . S
N377 C379 1.371 . S
N377 C380 1.372 . S
N378 C380 1.361 . S
N378 C381 1.377 . S
C379 N376 1.382 . S
C379 N377 1.371 . S
C379 C382 1.480 . S
C380 N377 1.372 . S
C380 N378 1.361 . S
C380 C388 1.457 . S
C381 N376 1.363 . S
C381 N378 1.377 . S
C381 C394 1.479 . S
C382 C379 1.480 . S
C382 C383 1.383 . S
C382 C387 1.385 . S
C383 H364 0.947 . S
C383 C382 1.383 . S
C383 C384 1.388 . S
C384 H365 0.946 . S
C384 C383 1.388 . S
C384 C385 1.384 . S
C385 C384 1.384 . S
C385 C386 1.377 . S
C386 H366 0.953 . S
C386 C385 1.377 . S
C386 C387 1.369 . S
C387 H367 0.945 . S
C387 C382 1.385 . S
C387 C386 1.369 . S
C388 C380 1.457 . S
C388 C389 1.372 . S
C388 C393 1.364 . S
C389 H368 0.952 . S
C389 C388 1.372 . S
C389 C390 1.389 . S
C390 H369 0.949 . S
C390 C389 1.389 . S
C390 C391 1.387 . S
C391 C390 1.387 . S
C391 C392 1.372 . S
C392 H370 0.950 . S
C392 C391 1.372 . S
C392 C393 1.379 . S
C393 H371 0.948 . S
C393 C388 1.364 . S
C393 C392 1.379 . S
C394 C363 1.383 . S
C394 C381 1.479 . S
C394 C395 1.398 . S
C395 C360 1.382 . S
C395 H372 0.951 . S
C395 C394 1.398 . S
C396 C397 1.384 . S
C396 H409 0.947 . S
C396 C431 1.382 . S
C397 C396 1.384 . S
C397 C398 1.378 . S
C398 C397 1.378 . S
C398 C399 1.378 . S
C398 H410 0.952 . S
C399 C398 1.378 . S
C399 H411 0.950 . S
C399 C430 1.383 . S
H400 C419 0.947 . S
H401 C420 0.946 . S
H402 C422 0.953 . S
H403 C423 0.945 . S
H404 C425 0.952 . S
H405 C426 0.949 . S
H406 C428 0.950 . S
H407 C429 0.948 . S
H408 C431 0.951 . S
H409 C396 0.947 . S
H410 C398 0.952 . S
H411 C399 0.950 . S
N412 C415 1.382 . S
N412 C417 1.363 . S
N413 C415 1.371 . S
N413 C416 1.372 . S
N414 C416 1.361 . S
N414 C417 1.377 . S
C415 N412 1.382 . S
C415 N413 1.371 . S
C415 C418 1.480 . S
C416 N413 1.372 . S
C416 N414 1.361 . S
C416 C424 1.457 . S
C417 N412 1.363 . S
C417 N414 1.377 . S
C417 C430 1.479 . S
C418 C415 1.480 . S
C418 C419 1.383 . S
C418 C423 1.385 . S
C419 H400 0.947 . S
C419 C418 1.383 . S
C419 C420 1.388 . S
C420 H401 0.946 . S
C420 C419 1.388 . S
C420 C421 1.384 . S
C421 C420 1.384 . S
C421 C422 1.377 . S
C422 H402 0.953 . S
C422 C421 1.377 . S
C422 C423 1.369 . S
C423 H403 0.945 . S
C423 C418 1.385 . S
C423 C422 1.369 . S
C424 C416 1.457 . S
C424 C425 1.372 . S
C424 C429 1.364 . S
C425 H404 0.952 . S
C425 C424 1.372 . S
C425 C426 1.389 . S
C426 H405 0.949 . S
C426 C425 1.389 . S
C426 C427 1.387 . S
C427 C426 1.387 . S
C427 C428 1.372 . S
C428 H406 0.950 . S
C428 C427 1.372 . S
C428 C429 1.379 . S
C429 H407 0.948 . S
C429 C424 1.364 . S
C429 C428 1.379 . S
C430 C399 1.383 . S
C430 C417 1.479 . S
C430 C431 1.398 . S
C431 C396 1.382 . S
C431 H408 0.951 . S
C431 C430 1.398 . S
C432 C433 1.384 . S
C432 H445 0.947 . S
C432 C467 1.382 . S
C433 C432 1.384 . S
C433 C434 1.378 . S
C434 C433 1.378 . S
C434 C435 1.378 . S
C434 H446 0.952 . S
C435 C434 1.378 . S
C435 H447 0.950 . S
C435 C466 1.383 . S
H436 C455 0.947 . S
H437 C456 0.946 . S
H438 C458 0.953 . S
H439 C459 0.945 . S
H440 C461 0.952 . S
H441 C462 0.949 . S
H442 C464 0.950 . S
H443 C465 0.948 . S
H444 C467 0.951 . S
H445 C432 0.947 . S
H446 C434 0.952 . S
H447 C435 0.950 . S
N448 C451 1.382 . S
N448 C453 1.363 . S
N449 C451 1.371 . S
N449 C452 1.372 . S
N450 C452 1.361 . S
N450 C453 1.377 . S
C451 N448 1.382 . S
C451 N449 1.371 . S
C451 C454 1.480 . S
C452 N449 1.372 . S
C452 N450 1.361 . S
C452 C460 1.457 . S
C453 N448 1.363 . S
C453 N450 1.377 . S
C453 C466 1.479 . S
C454 C451 1.480 . S
C454 C455 1.383 . S
C454 C459 1.385 . S
C455 H436 0.947 . S
C455 C454 1.383 . S
C455 C456 1.388 . S
C456 H437 0.946 . S
C456 C455 1.388 . S
C456 C457 1.384 . S
C457 C456 1.384 . S
C457 C458 1.377 . S
C458 H438 0.953 . S
C458 C457 1.377 . S
C458 C459 1.369 . S
C459 H439 0.945 . S
C459 C454 1.385 . S
C459 C458 1.369 . S
C460 C452 1.457 . S
C460 C461 1.372 . S
C460 C465 1.364 . S
C461 H440 0.952 . S
C461 C460 1.372 . S
C461 C462 1.389 . S
C462 H441 0.949 . S
C462 C461 1.389 . S
C462 C463 1.387 . S
C463 C462 1.387 . S
C463 C464 1.372 . S
C464 H442 0.950 . S
C464 C463 1.372 . S
C464 C465 1.379 . S
C465 H443 0.948 . S
C465 C460 1.364 . S
C465 C464 1.379 . S
C466 C435 1.383 . S
C466 C453 1.479 . S
C466 C467 1.398 . S
C467 C432 1.382 . S
C467 H444 0.951 . S
C467 C466 1.398 . S
C468 C469 1.384 . S
C468 H481 0.947 . S
C468 C503 1.382 . S
C469 C468 1.384 . S
C469 C470 1.378 . S
C470 C469 1.378 . S
C470 C471 1.378 . S
C470 H482 0.952 . S
C471 C470 1.378 . S
C471 H483 0.950 . S
C471 C502 1.383 . S
H472 C491 0.947 . S
H473 C492 0.946 . S
H474 C494 0.953 . S
H475 C495 0.945 . S
H476 C497 0.952 . S
H477 C498 0.949 . S
H478 C500 0.950 . S
H479 C501 0.948 . S
H480 C503 0.951 . S
H481 C468 0.947 . S
H482 C470 0.952 . S
H483 C471 0.950 . S
N484 C487 1.382 . S
N484 C489 1.363 . S
N485 C487 1.371 . S
N485 C488 1.372 . S
N486 C488 1.361 . S
N486 C489 1.377 . S
C487 N484 1.382 . S
C487 N485 1.371 . S
C487 C490 1.480 . S
C488 N485 1.372 . S
C488 N486 1.361 . S
C488 C496 1.457 . S
C489 N484 1.363 . S
C489 N486 1.377 . S
C489 C502 1.479 . S
C490 C487 1.480 . S
C490 C491 1.383 . S
C490 C495 1.385 . S
C491 H472 0.947 . S
C491 C490 1.383 . S
C491 C492 1.388 . S
C492 H473 0.946 . S
C492 C491 1.388 . S
C492 C493 1.384 . S
C493 C492 1.384 . S
C493 C494 1.377 . S
C494 H474 0.953 . S
C494 C493 1.377 . S
C494 C495 1.369 . S
C495 H475 0.945 . S
C495 C490 1.385 . S
C495 C494 1.369 . S
C496 C488 1.457 . S
C496 C497 1.372 . S
C496 C501 1.364 . S
C497 H476 0.952 . S
C497 C496 1.372 . S
C497 C498 1.389 . S
C498 H477 0.949 . S
C498 C497 1.389 . S
C498 C499 1.387 . S
C499 C498 1.387 . S
C499 C500 1.372 . S
C500 H478 0.950 . S
C500 C499 1.372 . S
C500 C501 1.379 . S
C501 H479 0.948 . S
C501 C496 1.364 . S
C501 C500 1.379 . S
C502 C471 1.383 . S
C502 C489 1.479 . S
C502 C503 1.398 . S
C503 C468 1.382 . S
C503 H480 0.951 . S
C503 C502 1.398 . S
C504 C505 1.384 . S
C504 H517 0.947 . S
C504 C539 1.382 . S
C505 C504 1.384 . S
C505 C506 1.378 . S
C506 C505 1.378 . S
C506 C507 1.378 . S
C506 H518 0.952 . S
C507 C506 1.378 . S
C507 H519 0.950 . S
C507 C538 1.383 . S
H508 C527 0.947 . S
H509 C528 0.946 . S
H510 C530 0.953 . S
H511 C531 0.945 . S
H512 C533 0.952 . S
H513 C534 0.949 . S
H514 C536 0.950 . S
H515 C537 0.948 . S
H516 C539 0.951 . S
H517 C504 0.947 . S
H518 C506 0.952 . S
H519 C507 0.950 . S
N520 C523 1.382 . S
N520 C525 1.363 . S
N521 C523 1.371 . S
N521 C524 1.372 . S
N522 C524 1.361 . S
N522 C525 1.377 . S
C523 N520 1.382 . S
C523 N521 1.371 . S
C523 C526 1.480 . S
C524 N521 1.372 . S
C524 N522 1.361 . S
C524 C532 1.457 . S
C525 N520 1.363 . S
C525 N522 1.377 . S
C525 C538 1.479 . S
C526 C523 1.480 . S
C526 C527 1.383 . S
C526 C531 1.385 . S
C527 H508 0.947 . S
C527 C526 1.383 . S
C527 C528 1.388 . S
C528 H509 0.946 . S
C528 C527 1.388 . S
C528 C529 1.384 . S
C529 C528 1.384 . S
C529 C530 1.377 . S
C530 H510 0.953 . S
C530 C529 1.377 . S
C530 C531 1.369 . S
C531 H511 0.945 . S
C531 C526 1.385 . S
C531 C530 1.369 . S
C532 C524 1.457 . S
C532 C533 1.372 . S
C532 C537 1.364 . S
C533 H512 0.952 . S
C533 C532 1.372 . S
C533 C534 1.389 . S
C534 H513 0.949 . S
C534 C533 1.389 . S
C534 C535 1.387 . S
C535 C534 1.387 . S
C535 C536 1.372 . S
C536 H514 0.950 . S
C536 C535 1.372 . S
C536 C537 1.379 . S
C537 H515 0.948 . S
C537 C532 1.364 . S
C537 C536 1.379 . S
C538 C507 1.383 . S
C538 C525 1.479 . S
C538 C539 1.398 . S
C539 C504 1.382 . S
C539 H516 0.951 . S
C539 C538 1.398 . S
C540 C541 1.384 . S
C540 H553 0.947 . S
C540 C575 1.382 . S
C541 C540 1.384 . S
C541 C542 1.378 . S
C542 C541 1.378 . S
C542 C543 1.378 . S
C542 H554 0.952 . S
C543 C542 1.378 . S
C543 H555 0.950 . S
C543 C574 1.383 . S
H544 C563 0.947 . S
H545 C564 0.946 . S
H546 C566 0.953 . S
H547 C567 0.945 . S
H548 C569 0.952 . S
H549 C570 0.949 . S
H550 C572 0.950 . S
H551 C573 0.948 . S
H552 C575 0.951 . S
H553 C540 0.947 . S
H554 C542 0.952 . S
H555 C543 0.950 . S
N556 C559 1.382 . S
N556 C561 1.363 . S
N557 C559 1.371 . S
N557 C560 1.372 . S
N558 C560 1.361 . S
N558 C561 1.377 . S
C559 N556 1.382 . S
C559 N557 1.371 . S
C559 C562 1.480 . S
C560 N557 1.372 . S
C560 N558 1.361 . S
C560 C568 1.457 . S
C561 N556 1.363 . S
C561 N558 1.377 . S
C561 C574 1.479 . S
C562 C559 1.480 . S
C562 C563 1.383 . S
C562 C567 1.385 . S
C563 H544 0.947 . S
C563 C562 1.383 . S
C563 C564 1.388 . S
C564 H545 0.946 . S
C564 C563 1.388 . S
C564 C565 1.384 . S
C565 C564 1.384 . S
C565 C566 1.377 . S
C566 H546 0.953 . S
C566 C565 1.377 . S
C566 C567 1.369 . S
C567 H547 0.945 . S
C567 C562 1.385 . S
C567 C566 1.369 . S
C568 C560 1.457 . S
C568 C569 1.372 . S
C568 C573 1.364 . S
C569 H548 0.952 . S
C569 C568 1.372 . S
C569 C570 1.389 . S
C570 H549 0.949 . S
C570 C569 1.389 . S
C570 C571 1.387 . S
C571 C570 1.387 . S
C571 C572 1.372 . S
C572 H550 0.950 . S
C572 C571 1.372 . S
C572 C573 1.379 . S
C573 H551 0.948 . S
C573 C568 1.364 . S
C573 C572 1.379 . S
C574 C543 1.383 . S
C574 C561 1.479 . S
C574 C575 1.398 . S
C575 C540 1.382 . S
C575 H552 0.951 . S
C575 C574 1.398 . S
C576 C577 1.384 . S
C576 H589 0.947 . S
C576 C611 1.382 . S
C577 C576 1.384 . S
C577 C578 1.378 . S
C578 C577 1.378 . S
C578 C579 1.378 . S
C578 H590 0.952 . S
C579 C578 1.378 . S
C579 H591 0.950 . S
C579 C610 1.383 . S
H580 C599 0.947 . S
H581 C600 0.946 . S
H582 C602 0.953 . S
H583 C603 0.945 . S
H584 C605 0.952 . S
H585 C606 0.949 . S
H586 C608 0.950 . S
H587 C609 0.948 . S
H588 C611 0.951 . S
H589 C576 0.947 . S
H590 C578 0.952 . S
H591 C579 0.950 . S
N592 C595 1.382 . S
N592 C597 1.363 . S
N593 C595 1.371 . S
N593 C596 1.372 . S
N594 C596 1.361 . S
N594 C597 1.377 . S
C595 N592 1.382 . S
C595 N593 1.371 . S
C595 C598 1.480 . S
C596 N593 1.372 . S
C596 N594 1.361 . S
C596 C604 1.457 . S
C597 N592 1.363 . S
C597 N594 1.377 . S
C597 C610 1.479 . S
C598 C595 1.480 . S
C598 C599 1.383 . S
C598 C603 1.385 . S
C599 H580 0.947 . S
C599 C598 1.383 . S
C599 C600 1.388 . S
C600 H581 0.946 . S
C600 C599 1.388 . S
C600 C601 1.384 . S
C601 C600 1.384 . S
C601 C602 1.377 . S
C602 H582 0.953 . S
C602 C601 1.377 . S
C602 C603 1.369 . S
C603 H583 0.945 . S
C603 C598 1.385 . S
C603 C602 1.369 . S
C604 C596 1.457 . S
C604 C605 1.372 . S
C604 C609 1.364 . S
C605 H584 0.952 . S
C605 C604 1.372 . S
C605 C606 1.389 . S
C606 H585 0.949 . S
C606 C605 1.389 . S
C606 C607 1.387 . S
C607 C606 1.387 . S
C607 C608 1.372 . S
C608 H586 0.950 . S
C608 C607 1.372 . S
C608 C609 1.379 . S
C609 H587 0.948 . S
C609 C604 1.364 . S
C609 C608 1.379 . S
C610 C579 1.383 . S
C610 C597 1.479 . S
C610 C611 1.398 . S
C611 C576 1.382 . S
C611 H588 0.951 . S
C611 C610 1.398 . S
C612 C613 1.384 . S
C612 H625 0.947 . S
C612 C647 1.382 . S
C613 C612 1.384 . S
C613 C614 1.378 . S
C614 C613 1.378 . S
C614 C615 1.378 . S
C614 H626 0.952 . S
C615 C614 1.378 . S
C615 H627 0.950 . S
C615 C646 1.383 . S
H616 C635 0.947 . S
H617 C636 0.946 . S
H618 C638 0.953 . S
H619 C639 0.945 . S
H620 C641 0.952 . S
H621 C642 0.949 . S
H622 C644 0.950 . S
H623 C645 0.948 . S
H624 C647 0.951 . S
H625 C612 0.947 . S
H626 C614 0.952 . S
H627 C615 0.950 . S
N628 C631 1.382 . S
N628 C633 1.363 . S
N629 C631 1.371 . S
N629 C632 1.372 . S
N630 C632 1.361 . S
N630 C633 1.377 . S
C631 N628 1.382 . S
C631 N629 1.371 . S
C631 C634 1.480 . S
C632 N629 1.372 . S
C632 N630 1.361 . S
C632 C640 1.457 . S
C633 N628 1.363 . S
C633 N630 1.377 . S
C633 C646 1.479 . S
C634 C631 1.480 . S
C634 C635 1.383 . S
C634 C639 1.385 . S
C635 H616 0.947 . S
C635 C634 1.383 . S
C635 C636 1.388 . S
C636 H617 0.946 . S
C636 C635 1.388 . S
C636 C637 1.384 . S
C637 C636 1.384 . S
C637 C638 1.377 . S
C638 H618 0.953 . S
C638 C637 1.377 . S
C638 C639 1.369 . S
C639 H619 0.945 . S
C639 C634 1.385 . S
C639 C638 1.369 . S
C640 C632 1.457 . S
C640 C641 1.372 . S
C640 C645 1.364 . S
C641 H620 0.952 . S
C641 C640 1.372 . S
C641 C642 1.389 . S
C642 H621 0.949 . S
C642 C641 1.389 . S
C642 C643 1.387 . S
C643 C642 1.387 . S
C643 C644 1.372 . S
C644 H622 0.950 . S
C644 C643 1.372 . S
C644 C645 1.379 . S
C645 H623 0.948 . S
C645 C640 1.364 . S
C645 C644 1.379 . S
C646 C615 1.383 . S
C646 C633 1.479 . S
C646 C647 1.398 . S
C647 C612 1.382 . S
C647 H624 0.951 . S
C647 C646 1.398 . S
Tb648 O651 2.453 . S
Tb648 O652 2.596 1_545 S
Tb648 O653 2.374 1_545 S
Tb648 O661 2.343 1_554 S
Tb648 O663 2.353 . S
Tb648 O665 2.427 1_554 S
Tb648 O666 2.513 1_554 S
C649 O653 1.251 . S
C649 O655 1.250 1_554 S
Tb650 O652 2.343 1_556 S
Tb650 O655 2.359 . S
Tb650 O658 2.427 1_556 S
Tb650 O659 2.513 1_556 S
Tb650 O660 2.453 . S
Tb650 O661 2.596 1_565 S
Tb650 O662 2.374 1_565 S
O651 Tb648 2.453 . S
O651 C667 1.245 . S
O652 Tb648 2.596 1_565 S
O652 Tb650 2.343 1_554 S
O652 C667 1.259 1_565 S
O653 Tb648 2.374 1_565 S
O653 C649 1.251 . S
C654 O658 1.275 . S
C654 O659 1.246 . S
O655 C649 1.250 1_556 S
O655 Tb650 2.359 . S
C656 O660 1.272 . S
C656 O661 1.254 1_565 S
C657 O662 1.250 . S
C657 O663 1.263 1_556 S
O658 Tb650 2.427 1_554 S
O658 C654 1.275 . S
O659 Tb650 2.513 1_554 S
O659 C654 1.246 . S
O660 Tb650 2.453 . S
O660 C656 1.272 . S
O661 Tb648 2.343 1_556 S
O661 Tb650 2.596 1_545 S
O661 C656 1.254 1_545 S
O662 Tb650 2.374 1_545 S
O662 C657 1.250 . S
O663 Tb648 2.353 . S
O663 C657 1.263 1_554 S
C664 O665 1.275 . S
C664 O666 1.246 . S
O665 Tb648 2.427 1_556 S
O665 C664 1.275 . S
O666 Tb648 2.513 1_556 S
O666 C664 1.246 . S
C667 O651 1.245 . S
C667 O652 1.259 1_545 S
Tb668 O671 2.453 . S
Tb668 O672 2.596 1_655 S
Tb668 O673 2.374 1_655 S
Tb668 O681 2.343 1_554 S
Tb668 O683 2.357 . S
Tb668 O685 2.427 1_554 S
Tb668 O686 2.513 1_554 S
C669 O673 1.251 . S
C669 O675 1.263 . S
Tb670 O672 2.343 1_556 S
Tb670 O675 2.353 1_556 S
Tb670 O678 2.427 1_556 S
Tb670 O679 2.513 1_556 S
Tb670 O680 2.453 . S
Tb670 O681 2.596 1_455 S
Tb670 O682 2.374 1_455 S
O671 Tb668 2.453 . S
O671 C687 1.245 1_655 S
O672 Tb668 2.596 1_455 S
O672 Tb670 2.343 1_554 S
O672 C687 1.259 . S
O673 Tb668 2.374 1_455 S
O673 C669 1.251 . S
C674 O678 1.275 . S
C674 O679 1.246 . S
O675 C669 1.263 . S
O675 Tb670 2.353 1_554 S
C676 O680 1.241 . S
C676 O681 1.261 1_455 S
C677 O682 1.250 . S
C677 O683 1.253 1_556 S
O678 Tb670 2.427 1_554 S
O678 C674 1.275 . S
O679 Tb670 2.513 1_554 S
O679 C674 1.246 . S
O680 Tb670 2.453 . S
O680 C676 1.241 . S
O681 Tb668 2.343 1_556 S
O681 Tb670 2.596 1_655 S
O681 C676 1.261 1_655 S
O682 Tb670 2.374 1_655 S
O682 C677 1.250 . S
O683 Tb668 2.357 . S
O683 C677 1.253 1_554 S
C684 O685 1.275 . S
C684 O686 1.246 . S
O685 Tb668 2.427 1_556 S
O685 C684 1.275 . S
O686 Tb668 2.513 1_556 S
O686 C684 1.246 . S
C687 O671 1.245 1_455 S
C687 O672 1.259 . S
Tb688 O691 2.453 . S
Tb688 O692 2.596 . S
Tb688 O693 2.374 . S
Tb688 O701 2.343 1_556 S
Tb688 O703 2.353 1_556 S
Tb688 O705 2.427 1_556 S
Tb688 O706 2.513 1_556 S
C689 O693 1.251 . S
C689 O695 1.263 1_556 S
Tb690 O692 2.343 1_554 S
Tb690 O695 2.353 . S
Tb690 O698 2.427 1_554 S
Tb690 O699 2.513 1_554 S
Tb690 O700 2.453 . S
Tb690 O701 2.596 . S
Tb690 O702 2.374 . S
O691 Tb688 2.453 . S
O691 C707 1.245 . S
O692 Tb688 2.596 . S
O692 Tb690 2.343 1_556 S
O692 C707 1.259 . S
O693 Tb688 2.374 . S
O693 C689 1.251 . S
C694 O698 1.275 . S
C694 O699 1.246 . S
O695 C689 1.263 1_554 S
O695 Tb690 2.353 . S
C696 O700 1.245 . S
C696 O701 1.259 . S
C697 O702 1.250 . S
C697 O703 1.263 . S
O698 Tb690 2.427 1_556 S
O698 C694 1.275 . S
O699 Tb690 2.513 1_556 S
O699 C694 1.246 . S
O700 Tb690 2.453 . S
O700 C696 1.245 . S
O701 Tb688 2.343 1_554 S
O701 Tb690 2.596 . S
O701 C696 1.259 . S
O702 Tb690 2.374 . S
O702 C697 1.250 . S
O703 Tb688 2.353 1_554 S
O703 C697 1.263 . S
C704 O705 1.275 . S
C704 O706 1.246 . S
O705 Tb688 2.427 1_554 S
O705 C704 1.275 . S
O706 Tb688 2.513 1_554 S
O706 C704 1.246 . S
C707 O691 1.245 . S
C707 O692 1.259 . S
Tb708 O711 2.453 . S
Tb708 O712 2.596 . S
Tb708 O713 2.374 . S
Tb708 O721 2.343 . S
Tb708 O723 2.353 . S
Tb708 O725 2.427 . S
Tb708 O726 2.513 . S
C709 O713 1.251 . S
C709 O715 1.263 . S
Tb710 O712 2.343 . S
Tb710 O715 2.353 . S
Tb710 O718 2.427 . S
Tb710 O719 2.513 . S
Tb710 O720 2.453 . S
Tb710 O721 2.596 . S
Tb710 O722 2.374 . S
O711 Tb708 2.453 . S
O711 C727 1.245 . S
O712 Tb708 2.596 . S
O712 Tb710 2.343 . S
O712 C727 1.259 . S
O713 Tb708 2.374 . S
O713 C709 1.251 . S
C714 O718 1.275 . S
C714 O719 1.246 . S
O715 C709 1.263 . S
O715 Tb710 2.353 . S
C716 O720 1.245 . S
C716 O721 1.259 . S
C717 O722 1.250 . S
C717 O723 1.263 . S
O718 Tb710 2.427 . S
O718 C714 1.275 . S
O719 Tb710 2.513 . S
O719 C714 1.246 . S
O720 Tb710 2.453 . S
O720 C716 1.245 . S
O721 Tb708 2.343 . S
O721 Tb710 2.596 . S
O721 C716 1.259 . S
O722 Tb710 2.374 . S
O722 C717 1.250 . S
O723 Tb708 2.353 . S
O723 C717 1.263 . S
C724 O725 1.275 . S
C724 O726 1.246 . S
O725 Tb708 2.427 . S
O725 C724 1.275 . S
O726 Tb708 2.513 . S
O726 C724 1.246 . S
C727 O711 1.245 . S
C727 O712 1.259 . S
Tb728 O731 2.453 . S
Tb728 O732 2.596 . S
Tb728 O733 2.374 . S
Tb728 O741 2.343 . S
Tb728 O743 2.353 . S
Tb728 O745 2.427 . S
Tb728 O746 2.513 . S
C729 O733 1.251 . S
C729 O735 1.263 . S
Tb730 O732 2.343 . S
Tb730 O735 2.353 . S
Tb730 O738 2.427 . S
Tb730 O739 2.513 . S
Tb730 O740 2.453 . S
Tb730 O741 2.596 . S
Tb730 O742 2.374 . S
O731 Tb728 2.453 . S
O731 C747 1.245 . S
O732 Tb728 2.596 . S
O732 Tb730 2.343 . S
O732 C747 1.259 . S
O733 Tb728 2.374 . S
O733 C729 1.251 . S
C734 O738 1.275 . S
C734 O739 1.246 . S
O735 C729 1.263 . S
O735 Tb730 2.353 . S
C736 O740 1.245 . S
C736 O741 1.259 . S
C737 O742 1.250 . S
C737 O743 1.263 . S
O738 Tb730 2.427 . S
O738 C734 1.275 . S
O739 Tb730 2.513 . S
O739 C734 1.246 . S
O740 Tb730 2.453 . S
O740 C736 1.245 . S
O741 Tb728 2.343 . S
O741 Tb730 2.596 . S
O741 C736 1.259 . S
O742 Tb730 2.374 . S
O742 C737 1.250 . S
O743 Tb728 2.353 . S
O743 C737 1.263 . S
C744 O745 1.275 . S
C744 O746 1.246 . S
O745 Tb728 2.427 . S
O745 C744 1.275 . S
O746 Tb728 2.513 . S
O746 C744 1.246 . S
C747 O731 1.245 . S
C747 O732 1.259 . S
Tb748 O751 2.453 . S
Tb748 O752 2.596 . S
Tb748 O753 2.374 . S
Tb748 O761 2.343 . S
Tb748 O763 2.353 . S
Tb748 O765 2.427 . S
Tb748 O766 2.513 . S
C749 O753 1.251 . S
C749 O755 1.263 . S
Tb750 O752 2.343 . S
Tb750 O755 2.353 . S
Tb750 O758 2.427 . S
Tb750 O759 2.513 . S
Tb750 O760 2.453 . S
Tb750 O761 2.596 . S
Tb750 O762 2.374 . S
O751 Tb748 2.453 . S
O751 C767 1.245 . S
O752 Tb748 2.596 . S
O752 Tb750 2.343 . S
O752 C767 1.259 . S
O753 Tb748 2.374 . S
O753 C749 1.251 . S
C754 O758 1.275 . S
C754 O759 1.246 . S
O755 C749 1.263 . S
O755 Tb750 2.353 . S
C756 O760 1.245 . S
C756 O761 1.259 . S
C757 O762 1.250 . S
C757 O763 1.263 . S
O758 Tb750 2.427 . S
O758 C754 1.275 . S
O759 Tb750 2.513 . S
O759 C754 1.246 . S
O760 Tb750 2.453 . S
O760 C756 1.245 . S
O761 Tb748 2.343 . S
O761 Tb750 2.596 . S
O761 C756 1.259 . S
O762 Tb750 2.374 . S
O762 C757 1.250 . S
O763 Tb748 2.353 . S
O763 C757 1.263 . S
C764 O765 1.275 . S
C764 O766 1.246 . S
O765 Tb748 2.427 . S
O765 C764 1.275 . S
O766 Tb748 2.513 . S
O766 C764 1.246 . S
C767 O751 1.245 . S
C767 O752 1.259 . S
Tb768 O771 2.453 . S
Tb768 O772 2.596 . S
Tb768 O773 2.374 . S
Tb768 O781 2.343 . S
Tb768 O783 2.353 . S
Tb768 O785 2.427 . S
Tb768 O786 2.513 . S
C769 O773 1.251 . S
C769 O775 1.263 . S
Tb770 O772 2.343 . S
Tb770 O775 2.353 . S
Tb770 O778 2.427 . S
Tb770 O779 2.513 . S
Tb770 O780 2.453 . S
Tb770 O781 2.596 . S
Tb770 O782 2.374 . S
O771 Tb768 2.453 . S
O771 C787 1.245 . S
O772 Tb768 2.596 . S
O772 Tb770 2.343 . S
O772 C787 1.259 . S
O773 Tb768 2.374 . S
O773 C769 1.251 . S
C774 O778 1.275 . S
C774 O779 1.246 . S
O775 C769 1.263 . S
O775 Tb770 2.353 . S
C776 O780 1.245 . S
C776 O781 1.259 . S
C777 O782 1.250 . S
C777 O783 1.263 . S
O778 Tb770 2.427 . S
O778 C774 1.275 . S
O779 Tb770 2.513 . S
O779 C774 1.246 . S
O780 Tb770 2.453 . S
O780 C776 1.245 . S
O781 Tb768 2.343 . S
O781 Tb770 2.596 . S
O781 C776 1.259 . S
O782 Tb770 2.374 . S
O782 C777 1.250 . S
O783 Tb768 2.353 . S
O783 C777 1.263 . S
C784 O785 1.275 . S
C784 O786 1.246 . S
O785 Tb768 2.427 . S
O785 C784 1.275 . S
O786 Tb768 2.513 . S
O786 C784 1.246 . S
C787 O771 1.245 . S
C787 O772 1.259 . S
Tb788 O791 2.453 . S
Tb788 O792 2.596 . S
Tb788 O793 2.374 . S
Tb788 O801 2.343 . S
Tb788 O803 2.353 . S
Tb788 O805 2.427 . S
Tb788 O806 2.513 . S
C789 O793 1.251 . S
C789 O795 1.263 . S
Tb790 O792 2.343 . S
Tb790 O795 2.353 . S
Tb790 O798 2.427 . S
Tb790 O799 2.513 . S
Tb790 O800 2.453 . S
Tb790 O801 2.596 . S
Tb790 O802 2.374 . S
O791 Tb788 2.453 . S
O791 C807 1.245 . S
O792 Tb788 2.596 . S
O792 Tb790 2.343 . S
O792 C807 1.259 . S
O793 Tb788 2.374 . S
O793 C789 1.251 . S
C794 O798 1.275 . S
C794 O799 1.246 . S
O795 C789 1.263 . S
O795 Tb790 2.353 . S
C796 O800 1.245 . S
C796 O801 1.259 . S
C797 O802 1.250 . S
C797 O803 1.263 . S
O798 Tb790 2.427 . S
O798 C794 1.275 . S
O799 Tb790 2.513 . S
O799 C794 1.246 . S
O800 Tb790 2.453 . S
O800 C796 1.245 . S
O801 Tb788 2.343 . S
O801 Tb790 2.596 . S
O801 C796 1.259 . S
O802 Tb790 2.374 . S
O802 C797 1.250 . S
O803 Tb788 2.353 . S
O803 C797 1.263 . S
C804 O805 1.275 . S
C804 O806 1.246 . S
O805 Tb788 2.427 . S
O805 C804 1.275 . S
O806 Tb788 2.513 . S
O806 C804 1.246 . S
C807 O791 1.245 . S
C807 O792 1.259 . S
Tb808 O811 2.453 . S
Tb808 O812 2.596 . S
Tb808 O813 2.374 . S
Tb808 O821 2.343 . S
Tb808 O823 2.353 . S
Tb808 O825 2.427 . S
Tb808 O826 2.513 . S
C809 O813 1.251 . S
C809 O815 1.263 . S
Tb810 O812 2.343 . S
Tb810 O815 2.353 . S
Tb810 O818 2.427 . S
Tb810 O819 2.513 . S
Tb810 O820 2.453 . S
Tb810 O821 2.596 . S
Tb810 O822 2.374 . S
O811 Tb808 2.453 . S
O811 C827 1.245 . S
O812 Tb808 2.596 . S
O812 Tb810 2.343 . S
O812 C827 1.259 . S
O813 Tb808 2.374 . S
O813 C809 1.251 . S
C814 O818 1.275 . S
C814 O819 1.246 . S
O815 C809 1.263 . S
O815 Tb810 2.353 . S
C816 O820 1.245 . S
C816 O821 1.259 . S
C817 O822 1.250 . S
C817 O823 1.263 . S
O818 Tb810 2.427 . S
O818 C814 1.275 . S
O819 Tb810 2.513 . S
O819 C814 1.246 . S
O820 Tb810 2.453 . S
O820 C816 1.245 . S
O821 Tb808 2.343 . S
O821 Tb810 2.596 . S
O821 C816 1.259 . S
O822 Tb810 2.374 . S
O822 C817 1.250 . S
O823 Tb808 2.353 . S
O823 C817 1.263 . S
C824 O825 1.275 . S
C824 O826 1.246 . S
O825 Tb808 2.427 . S
O825 C824 1.275 . S
O826 Tb808 2.513 . S
O826 C824 1.246 . S
C827 O811 1.245 . S
C827 O812 1.259 . S
H828 C836 0.950 . S
H829 C841 0.950 . S
H830 C838 0.950 . S
H831 C840 0.950 . S
H832 C842 0.950 . S
H833 C844 0.950 . S
H834 C846 0.950 . S
H835 C847 0.950 . S
C836 H828 0.950 . S
C836 C837 1.386 . S
C836 C838 1.391 . S
C837 C836 1.386 . S
C837 C841 1.393 . S
C838 H830 0.950 . S
C838 C836 1.391 . S
C838 C839 1.400 . S
C839 C838 1.400 . S
C839 C840 1.398 . S
C839 C845 1.491 . S
C840 H831 0.950 . S
C840 C839 1.398 . S
C840 C841 1.391 . S
C841 H829 0.950 . S
C841 C837 1.393 . S
C841 C840 1.391 . S
C842 H832 0.950 . S
C842 C843 1.386 . S
C842 C844 1.391 . S
C843 C842 1.386 . S
C843 C847 1.393 . S
C844 H833 0.950 . S
C844 C842 1.391 . S
C844 C845 1.400 . S
C845 C839 1.491 . S
C845 C844 1.400 . S
C845 C846 1.398 . S
C846 H834 0.950 . S
C846 C845 1.398 . S
C846 C847 1.391 . S
C847 H835 0.950 . S
C847 C843 1.393 . S
C847 C846 1.391 . S
H848 C856 0.950 . S
H849 C861 0.950 . S
H850 C858 0.950 . S
H851 C860 0.950 . S
H852 C862 0.950 . S
H853 C864 0.950 . S
H854 C866 0.950 . S
H855 C867 0.950 . S
C856 H848 0.950 . S
C856 C857 1.386 . S
C856 C858 1.391 . S
C857 C856 1.386 . S
C857 C861 1.393 . S
C858 H850 0.950 . S
C858 C856 1.391 . S
C858 C859 1.400 . S
C859 C858 1.400 . S
C859 C860 1.398 . S
C859 C865 1.491 . S
C860 H851 0.950 . S
C860 C859 1.398 . S
C860 C861 1.391 . S
C861 H849 0.950 . S
C861 C857 1.393 . S
C861 C860 1.391 . S
C862 H852 0.950 . S
C862 C863 1.386 . S
C862 C864 1.391 . S
C863 C862 1.386 . S
C863 C867 1.393 . S
C864 H853 0.950 . S
C864 C862 1.391 . S
C864 C865 1.400 . S
C865 C859 1.491 . S
C865 C864 1.400 . S
C865 C866 1.398 . S
C866 H854 0.950 . S
C866 C865 1.398 . S
C866 C867 1.391 . S
C867 H855 0.950 . S
C867 C863 1.393 . S
C867 C866 1.391 . S
H868 C876 0.950 . S
H869 C881 0.950 . S
H870 C878 0.950 . S
H871 C880 0.950 . S
H872 C882 0.950 . S
H873 C884 0.950 . S
H874 C886 0.950 . S
H875 C887 0.950 . S
C876 H868 0.950 . S
C876 C877 1.386 . S
C876 C878 1.391 . S
C877 C876 1.386 . S
C877 C881 1.393 . S
C878 H870 0.950 . S
C878 C876 1.391 . S
C878 C879 1.400 . S
C879 C878 1.400 . S
C879 C880 1.398 . S
C879 C885 1.491 . S
C880 H871 0.950 . S
C880 C879 1.398 . S
C880 C881 1.391 . S
C881 H869 0.950 . S
C881 C877 1.393 . S
C881 C880 1.391 . S
C882 H872 0.950 . S
C882 C883 1.386 . S
C882 C884 1.391 . S
C883 C882 1.386 . S
C883 C887 1.393 . S
C884 H873 0.950 . S
C884 C882 1.391 . S
C884 C885 1.400 . S
C885 C879 1.491 . S
C885 C884 1.400 . S
C885 C886 1.398 . S
C886 H874 0.950 . S
C886 C885 1.398 . S
C886 C887 1.391 . S
C887 H875 0.950 . S
C887 C883 1.393 . S
C887 C886 1.391 . S
H888 C896 0.950 . S
H889 C901 0.950 . S
H890 C898 0.950 . S
H891 C900 0.950 . S
H892 C902 0.950 . S
H893 C904 0.950 . S
H894 C906 0.950 . S
H895 C907 0.950 . S
C896 H888 0.950 . S
C896 C897 1.386 . S
C896 C898 1.391 . S
C897 C896 1.386 . S
C897 C901 1.393 . S
C898 H890 0.950 . S
C898 C896 1.391 . S
C898 C899 1.400 . S
C899 C898 1.400 . S
C899 C900 1.398 . S
C899 C905 1.491 . S
C900 H891 0.950 . S
C900 C899 1.398 . S
C900 C901 1.391 . S
C901 H889 0.950 . S
C901 C897 1.393 . S
C901 C900 1.391 . S
C902 H892 0.950 . S
C902 C903 1.386 . S
C902 C904 1.391 . S
C903 C902 1.386 . S
C903 C907 1.393 . S
C904 H893 0.950 . S
C904 C902 1.391 . S
C904 C905 1.400 . S
C905 C899 1.491 . S
C905 C904 1.400 . S
C905 C906 1.398 . S
C906 H894 0.950 . S
C906 C905 1.398 . S
C906 C907 1.391 . S
C907 H895 0.950 . S
C907 C903 1.393 . S
C907 C906 1.391 . S
H908 C916 0.950 . S
H909 C921 0.950 . S
H910 C918 0.950 . S
H911 C920 0.950 . S
H912 C922 0.950 . S
H913 C924 0.950 . S
H914 C926 0.950 . S
H915 C927 0.950 . S
C916 H908 0.950 . S
C916 C917 1.386 . S
C916 C918 1.391 . S
C917 C916 1.386 . S
C917 C921 1.393 . S
C918 H910 0.950 . S
C918 C916 1.391 . S
C918 C919 1.400 . S
C919 C918 1.400 . S
C919 C920 1.398 . S
C919 C925 1.491 . S
C920 H911 0.950 . S
C920 C919 1.398 . S
C920 C921 1.391 . S
C921 H909 0.950 . S
C921 C917 1.393 . S
C921 C920 1.391 . S
C922 H912 0.950 . S
C922 C923 1.386 . S
C922 C924 1.391 . S
C923 C922 1.386 . S
C923 C927 1.393 . S
C924 H913 0.950 . S
C924 C922 1.391 . S
C924 C925 1.400 . S
C925 C919 1.491 . S
C925 C924 1.400 . S
C925 C926 1.398 . S
C926 H914 0.950 . S
C926 C925 1.398 . S
C926 C927 1.391 . S
C927 H915 0.950 . S
C927 C923 1.393 . S
C927 C926 1.391 . S
H928 C936 0.950 . S
H929 C941 0.950 . S
H930 C938 0.950 . S
H931 C940 0.950 . S
H932 C942 0.950 . S
H933 C944 0.950 . S
H934 C946 0.950 . S
H935 C947 0.950 1_554 S
C936 H928 0.950 . S
C936 C937 1.386 . S
C936 C938 1.391 . S
C937 C936 1.386 . S
C937 C941 1.393 . S
C938 H930 0.950 . S
C938 C936 1.391 . S
C938 C939 1.400 . S
C939 C938 1.400 . S
C939 C940 1.398 . S
C939 C945 1.491 . S
C940 H931 0.950 . S
C940 C939 1.398 . S
C940 C941 1.391 . S
C941 H929 0.950 . S
C941 C937 1.393 . S
C941 C940 1.391 . S
C942 H932 0.950 . S
C942 C943 1.386 . S
C942 C944 1.391 . S
C943 C942 1.386 . S
C943 C947 1.393 . S
C944 H933 0.950 . S
C944 C942 1.391 . S
C944 C945 1.400 . S
C945 C939 1.491 . S
C945 C944 1.400 . S
C945 C946 1.398 . S
C946 H934 0.950 . S
C946 C945 1.398 . S
C946 C947 1.391 . S
C947 H935 0.950 1_556 S
C947 C943 1.393 . S
C947 C946 1.391 . S
H948 C956 0.950 . S
H949 C961 0.950 . S
H950 C958 0.950 . S
H951 C960 0.950 . S
H952 C962 0.950 . S
H953 C964 0.950 . S
H954 C966 0.950 . S
H955 C967 0.950 . S
C956 H948 0.950 . S
C956 C957 1.386 . S
C956 C958 1.391 . S
C957 C956 1.386 . S
C957 C961 1.393 . S
C958 H950 0.950 . S
C958 C956 1.391 . S
C958 C959 1.400 . S
C959 C958 1.400 . S
C959 C960 1.398 . S
C959 C965 1.491 . S
C960 H951 0.950 . S
C960 C959 1.398 . S
C960 C961 1.391 . S
C961 H949 0.950 . S
C961 C957 1.393 . S
C961 C960 1.391 . S
C962 H952 0.950 . S
C962 C963 1.386 . S
C962 C964 1.391 . S
C963 C962 1.386 . S
C963 C967 1.393 . S
C964 H953 0.950 . S
C964 C962 1.391 . S
C964 C965 1.400 . S
C965 C959 1.491 . S
C965 C964 1.400 . S
C965 C966 1.398 . S
C966 H954 0.950 . S
C966 C965 1.398 . S
C966 C967 1.391 . S
C967 H955 0.950 . S
C967 C963 1.393 . S
C967 C966 1.391 . S
H968 C976 0.950 . S
H969 C981 0.950 . S
H970 C978 0.950 . S
H971 C980 0.950 . S
H972 C982 0.950 . S
H973 C984 0.950 . S
H974 C986 0.950 . S
H975 C987 0.950 . S
C976 H968 0.950 . S
C976 C977 1.386 . S
C976 C978 1.391 . S
C977 C976 1.386 . S
C977 C981 1.393 . S
C978 H970 0.950 . S
C978 C976 1.391 . S
C978 C979 1.400 . S
C979 C978 1.400 . S
C979 C980 1.398 . S
C979 C985 1.491 . S
C980 H971 0.950 . S
C980 C979 1.398 . S
C980 C981 1.391 . S
C981 H969 0.950 . S
C981 C977 1.393 . S
C981 C980 1.391 . S
C982 H972 0.950 . S
C982 C983 1.386 . S
C982 C984 1.391 . S
C983 C982 1.386 . S
C983 C987 1.393 . S
C984 H973 0.950 . S
C984 C982 1.391 . S
C984 C985 1.400 . S
C985 C979 1.491 . S
C985 C984 1.400 . S
C985 C986 1.398 . S
C986 H974 0.950 . S
C986 C985 1.398 . S
C986 C987 1.391 . S
C987 H975 0.950 . S
C987 C983 1.393 . S
C987 C986 1.391 . S
H988 C996 0.950 . S
H989 C1001 0.950 . S
H990 C998 0.950 . S
H991 C1000 0.950 . S
H992 C1002 0.950 . S
H993 C1004 0.950 . S
H994 C1006 0.950 . S
H995 C1007 0.950 . S
C996 H988 0.950 . S
C996 C997 1.386 . S
C996 C998 1.391 . S
C997 C996 1.386 . S
C997 C1001 1.393 . S
C998 H990 0.950 . S
C998 C996 1.391 . S
C998 C999 1.400 . S
C999 C998 1.400 . S
C999 C1000 1.398 . S
C999 C1005 1.491 . S
C1000 H991 0.950 . S
C1000 C999 1.398 . S
C1000 C1001 1.391 . S
C1001 H989 0.950 . S
C1001 C997 1.393 . S
C1001 C1000 1.391 . S
C1002 H992 0.950 . S
C1002 C1003 1.386 . S
C1002 C1004 1.391 . S
C1003 C1002 1.386 . S
C1003 C1007 1.393 . S
C1004 H993 0.950 . S
C1004 C1002 1.391 . S
C1004 C1005 1.400 . S
C1005 C999 1.491 . S
C1005 C1004 1.400 . S
C1005 C1006 1.398 . S
C1006 H994 0.950 . S
C1006 C1005 1.398 . S
C1006 C1007 1.391 . S
C1007 H995 0.950 . S
C1007 C1003 1.393 . S
C1007 C1006 1.391 . S
H1008 C1016 0.950 . S
H1009 C1021 0.950 . S
H1010 C1018 0.950 . S
H1011 C1020 0.950 . S
H1012 C1022 0.950 . S
H1013 C1024 0.950 . S
H1014 C1026 0.950 . S
H1015 C1027 0.950 . S
C1016 H1008 0.950 . S
C1016 C1017 1.386 . S
C1016 C1018 1.391 . S
C1017 C1016 1.386 . S
C1017 C1021 1.393 . S
C1018 H1010 0.950 . S
C1018 C1016 1.391 . S
C1018 C1019 1.400 . S
C1019 C1018 1.400 . S
C1019 C1020 1.398 . S
C1019 C1025 1.491 . S
C1020 H1011 0.950 . S
C1020 C1019 1.398 . S
C1020 C1021 1.391 . S
C1021 H1009 0.950 . S
C1021 C1017 1.393 . S
C1021 C1020 1.391 . S
C1022 H1012 0.950 . S
C1022 C1023 1.386 . S
C1022 C1024 1.391 . S
C1023 C1022 1.386 . S
C1023 C1027 1.393 . S
C1024 H1013 0.950 . S
C1024 C1022 1.391 . S
C1024 C1025 1.400 . S
C1025 C1019 1.491 . S
C1025 C1024 1.400 . S
C1025 C1026 1.398 . S
C1026 H1014 0.950 . S
C1026 C1025 1.398 . S
C1026 C1027 1.391 . S
C1027 H1015 0.950 . S
C1027 C1023 1.393 . S
C1027 C1026 1.391 . S
H1028 C1036 0.950 . S
H1029 C1041 0.950 . S
H1030 C1038 0.950 . S
H1031 C1040 0.950 . S
H1032 C1042 0.950 . S
H1033 C1044 0.950 . S
H1034 C1046 0.950 . S
H1035 C1047 0.950 . S
C1036 H1028 0.950 . S
C1036 C1037 1.386 . S
C1036 C1038 1.391 . S
C1037 C1036 1.386 . S
C1037 C1041 1.393 . S
C1038 H1030 0.950 . S
C1038 C1036 1.391 . S
C1038 C1039 1.400 . S
C1039 C1038 1.400 . S
C1039 C1040 1.398 . S
C1039 C1045 1.491 . S
C1040 H1031 0.950 . S
C1040 C1039 1.398 . S
C1040 C1041 1.391 . S
C1041 H1029 0.950 . S
C1041 C1037 1.393 . S
C1041 C1040 1.391 . S
C1042 H1032 0.950 . S
C1042 C1043 1.386 . S
C1042 C1044 1.391 . S
C1043 C1042 1.386 . S
C1043 C1047 1.393 . S
C1044 H1033 0.950 . S
C1044 C1042 1.391 . S
C1044 C1045 1.400 . S
C1045 C1039 1.491 . S
C1045 C1044 1.400 . S
C1045 C1046 1.398 . S
C1046 H1034 0.950 . S
C1046 C1045 1.398 . S
C1046 C1047 1.391 . S
C1047 H1035 0.950 . S
C1047 C1043 1.393 . S
C1047 C1046 1.391 . S
H1048 C1056 0.950 . S
H1049 C1061 0.950 . S
H1050 C1058 0.950 . S
H1051 C1060 0.950 . S
H1052 C1062 0.950 . S
H1053 C1064 0.950 . S
H1054 C1066 0.950 . S
H1055 C1067 0.950 1_556 S
C1056 H1048 0.950 . S
C1056 C1057 1.386 . S
C1056 C1058 1.391 . S
C1057 C1056 1.386 . S
C1057 C1061 1.393 . S
C1058 H1050 0.950 . S
C1058 C1056 1.391 . S
C1058 C1059 1.400 . S
C1059 C1058 1.400 . S
C1059 C1060 1.398 . S
C1059 C1065 1.491 . S
C1060 H1051 0.950 . S
C1060 C1059 1.398 . S
C1060 C1061 1.391 . S
C1061 H1049 0.950 . S
C1061 C1057 1.393 . S
C1061 C1060 1.391 . S
C1062 H1052 0.950 . S
C1062 C1063 1.386 . S
C1062 C1064 1.391 . S
C1063 C1062 1.386 . S
C1063 C1067 1.393 . S
C1064 H1053 0.950 . S
C1064 C1062 1.391 . S
C1064 C1065 1.400 . S
C1065 C1059 1.491 . S
C1065 C1064 1.400 . S
C1065 C1066 1.398 . S
C1066 H1054 0.950 . S
C1066 C1065 1.398 . S
C1066 C1067 1.391 . S
C1067 H1055 0.950 1_554 S
C1067 C1063 1.393 . S
C1067 C1066 1.391 . S
H1068 C1076 0.950 . S
H1069 C1081 0.950 . S
H1070 C1078 0.950 1_455 S
H1071 C1080 0.950 . S
H1072 C1082 0.950 . S
H1073 C1084 0.950 . S
H1074 C1086 0.950 . S
H1075 C1087 0.950 . S
C1076 H1068 0.950 . S
C1076 C1077 1.386 . S
C1076 C1078 1.391 . S
C1077 C1076 1.386 . S
C1077 C1081 1.393 . S
C1078 H1070 0.950 1_655 S
C1078 C1076 1.391 . S
C1078 C1079 1.400 1_655 S
C1079 C1078 1.400 1_455 S
C1079 C1080 1.398 . S
C1079 C1085 1.491 . S
C1080 H1071 0.950 . S
C1080 C1079 1.398 . S
C1080 C1081 1.391 1_455 S
C1081 H1069 0.950 . S
C1081 C1077 1.393 . S
C1081 C1080 1.391 1_655 S
C1082 H1072 0.950 . S
C1082 C1083 1.386 . S
C1082 C1084 1.391 . S
C1083 C1082 1.386 . S
C1083 C1087 1.393 . S
C1084 H1073 0.950 . S
C1084 C1082 1.391 . S
C1084 C1085 1.400 . S
C1085 C1079 1.491 . S
C1085 C1084 1.400 . S
C1085 C1086 1.398 . S
C1086 H1074 0.950 . S
C1086 C1085 1.398 . S
C1086 C1087 1.391 . S
C1087 H1075 0.950 . S
C1087 C1083 1.393 . S
C1087 C1086 1.391 . S
H1088 C1096 0.950 . S
H1089 C1101 0.950 . S
H1090 C1098 0.950 . S
H1091 C1100 0.950 . S
H1092 C1102 0.950 . S
H1093 C1104 0.950 . S
H1094 C1106 0.950 . S
H1095 C1107 0.950 . S
C1096 H1088 0.950 . S
C1096 C1097 1.386 . S
C1096 C1098 1.391 . S
C1097 C1096 1.386 . S
C1097 C1101 1.393 . S
C1098 H1090 0.950 . S
C1098 C1096 1.391 . S
C1098 C1099 1.400 . S
C1099 C1098 1.400 . S
C1099 C1100 1.398 . S
C1099 C1105 1.491 . S
C1100 H1091 0.950 . S
C1100 C1099 1.398 . S
C1100 C1101 1.391 . S
C1101 H1089 0.950 . S
C1101 C1097 1.393 . S
C1101 C1100 1.391 . S
C1102 H1092 0.950 . S
C1102 C1103 1.386 . S
C1102 C1104 1.391 . S
C1103 C1102 1.386 . S
C1103 C1107 1.393 . S
C1104 H1093 0.950 . S
C1104 C1102 1.391 . S
C1104 C1105 1.400 . S
C1105 C1099 1.491 . S
C1105 C1104 1.400 . S
C1105 C1106 1.398 . S
C1106 H1094 0.950 . S
C1106 C1105 1.398 . S
C1106 C1107 1.391 . S
C1107 H1095 0.950 . S
C1107 C1103 1.393 . S
C1107 C1106 1.391 . S
H1108 C1116 0.950 . S
H1109 C1121 0.950 . S
H1110 C1118 0.950 . S
H1111 C1120 0.958 . S
H1112 C1122 0.950 . S
H1113 C1124 0.950 . S
H1114 C1126 0.950 . S
H1115 C1127 0.950 . S
C1116 H1108 0.950 . S
C1116 C1117 1.386 . S
C1116 C1118 1.391 1_545 S
C1117 C1116 1.386 . S
C1117 C1121 1.393 . S
C1118 H1110 0.950 . S
C1118 C1116 1.391 1_565 S
C1118 C1119 1.400 . S
C1119 C1118 1.400 . S
C1119 C1120 1.409 . S
C1119 C1125 1.491 . S
C1120 H1111 0.958 . S
C1120 C1119 1.409 . S
C1120 C1121 1.372 1_565 S
C1121 H1109 0.950 . S
C1121 C1117 1.393 . S
C1121 C1120 1.372 1_545 S
C1122 H1112 0.950 . S
C1122 C1123 1.386 . S
C1122 C1124 1.391 . S
C1123 C1122 1.386 . S
C1123 C1127 1.393 . S
C1124 H1113 0.950 . S
C1124 C1122 1.391 . S
C1124 C1125 1.400 . S
C1125 C1119 1.491 . S
C1125 C1124 1.400 . S
C1125 C1126 1.398 . S
C1126 H1114 0.950 . S
C1126 C1125 1.398 . S
C1126 C1127 1.391 . S
C1127 H1115 0.950 . S
C1127 C1123 1.393 . S
C1127 C1126 1.391 . S
H1128 C1136 0.950 . S
H1129 C1141 0.950 . S
H1130 C1138 0.950 . S
H1131 C1140 0.950 . S
H1132 C1142 0.950 . S
H1133 C1144 0.950 . S
H1134 C1146 0.950 . S
H1135 C1147 0.950 . S
C1136 H1128 0.950 . S
C1136 C1137 1.386 . S
C1136 C1138 1.391 . S
C1137 C1136 1.386 . S
C1137 C1141 1.393 . S
C1138 H1130 0.950 . S
C1138 C1136 1.391 . S
C1138 C1139 1.400 . S
C1139 C1138 1.400 . S
C1139 C1140 1.398 . S
C1139 C1145 1.491 . S
C1140 H1131 0.950 . S
C1140 C1139 1.398 . S
C1140 C1141 1.391 . S
C1141 H1129 0.950 . S
C1141 C1137 1.393 . S
C1141 C1140 1.391 . S
C1142 H1132 0.950 . S
C1142 C1143 1.386 . S
C1142 C1144 1.391 . S
C1143 C1142 1.386 . S
C1143 C1147 1.393 . S
C1144 H1133 0.950 . S
C1144 C1142 1.391 . S
C1144 C1145 1.400 . S
C1145 C1139 1.491 . S
C1145 C1144 1.400 . S
C1145 C1146 1.398 . S
C1146 H1134 0.950 . S
C1146 C1145 1.398 . S
C1146 C1147 1.391 . S
C1147 H1135 0.950 . S
C1147 C1143 1.393 . S
C1147 C1146 1.391 . S
H1148 C1156 0.950 . S
H1149 C1161 0.950 . S
H1150 C1158 0.950 . S
H1151 C1160 0.950 . S
H1152 C1162 0.950 . S
H1153 C1164 0.950 . S
H1154 C1166 0.950 . S
H1155 C1167 0.950 . S
C1156 H1148 0.950 . S
C1156 C1157 1.386 . S
C1156 C1158 1.391 . S
C1157 C1156 1.386 . S
C1157 C1161 1.393 . S
C1158 H1150 0.950 . S
C1158 C1156 1.391 . S
C1158 C1159 1.400 . S
C1159 C1158 1.400 . S
C1159 C1160 1.398 . S
C1159 C1165 1.491 . S
C1160 H1151 0.950 . S
C1160 C1159 1.398 . S
C1160 C1161 1.391 . S
C1161 H1149 0.950 . S
C1161 C1157 1.393 . S
C1161 C1160 1.391 . S
C1162 H1152 0.950 . S
C1162 C1163 1.386 . S
C1162 C1164 1.391 . S
C1163 C1162 1.386 . S
C1163 C1167 1.393 . S
C1164 H1153 0.950 . S
C1164 C1162 1.391 . S
C1164 C1165 1.400 . S
C1165 C1159 1.491 . S
C1165 C1164 1.400 . S
C1165 C1166 1.398 . S
C1166 H1154 0.950 . S
C1166 C1165 1.398 . S
C1166 C1167 1.391 . S
C1167 H1155 0.950 . S
C1167 C1163 1.393 . S
C1167 C1166 1.391 . S
H1168 C1176 0.950 . S
H1169 C1181 0.950 . S
H1170 C1178 0.950 . S
H1171 C1180 0.950 . S
H1172 C1182 0.950 . S
H1173 C1184 0.950 . S
H1174 C1186 0.950 . S
H1175 C1187 0.950 . S
C1176 H1168 0.950 . S
C1176 C1177 1.386 . S
C1176 C1178 1.391 . S
C1177 C1176 1.386 . S
C1177 C1181 1.393 . S
C1178 H1170 0.950 . S
C1178 C1176 1.391 . S
C1178 C1179 1.400 . S
C1179 C1178 1.400 . S
C1179 C1180 1.398 . S
C1179 C1185 1.491 . S
C1180 H1171 0.950 . S
C1180 C1179 1.398 . S
C1180 C1181 1.391 . S
C1181 H1169 0.950 . S
C1181 C1177 1.393 . S
C1181 C1180 1.391 . S
C1182 H1172 0.950 . S
C1182 C1183 1.386 . S
C1182 C1184 1.391 . S
C1183 C1182 1.386 . S
C1183 C1187 1.393 . S
C1184 H1173 0.950 . S
C1184 C1182 1.391 . S
C1184 C1185 1.400 . S
C1185 C1179 1.491 . S
C1185 C1184 1.400 . S
C1185 C1186 1.398 . S
C1186 H1174 0.950 . S
C1186 C1185 1.398 . S
C1186 C1187 1.391 . S
C1187 H1175 0.950 . S
C1187 C1183 1.393 . S
C1187 C1186 1.391 . S
H1188 C1196 0.950 . S
H1189 C1201 0.950 . S
H1190 C1198 0.950 . S
H1191 C1200 0.950 . S
H1192 C1202 0.950 . S
H1193 C1204 0.950 . S
H1194 C1206 0.950 . S
H1195 C1207 0.950 . S
C1196 H1188 0.950 . S
C1196 C1197 1.386 . S
C1196 C1198 1.391 . S
C1197 C1196 1.386 . S
C1197 C1201 1.393 . S
C1198 H1190 0.950 . S
C1198 C1196 1.391 . S
C1198 C1199 1.400 . S
C1199 C1198 1.400 . S
C1199 C1200 1.398 . S
C1199 C1205 1.491 . S
C1200 H1191 0.950 . S
C1200 C1199 1.398 . S
C1200 C1201 1.391 . S
C1201 H1189 0.950 . S
C1201 C1197 1.393 . S
C1201 C1200 1.391 . S
C1202 H1192 0.950 . S
C1202 C1203 1.386 . S
C1202 C1204 1.391 . S
C1203 C1202 1.386 . S
C1203 C1207 1.393 . S
C1204 H1193 0.950 . S
C1204 C1202 1.391 . S
C1204 C1205 1.400 . S
C1205 C1199 1.491 . S
C1205 C1204 1.400 . S
C1205 C1206 1.398 . S
C1206 H1194 0.950 . S
C1206 C1205 1.398 . S
C1206 C1207 1.391 . S
C1207 H1195 0.950 . S
C1207 C1203 1.393 . S
C1207 C1206 1.391 . S
H1208 C1216 0.950 . S
H1209 C1221 0.950 . S
H1210 C1218 0.950 . S
H1211 C1220 0.950 . S
H1212 C1222 0.950 . S
H1213 C1224 0.950 . S
H1214 C1226 0.950 . S
H1215 C1227 0.950 . S
C1216 H1208 0.950 . S
C1216 C1217 1.386 . S
C1216 C1218 1.391 . S
C1217 C1216 1.386 . S
C1217 C1221 1.393 . S
C1218 H1210 0.950 . S
C1218 C1216 1.391 . S
C1218 C1219 1.400 . S
C1219 C1218 1.400 . S
C1219 C1220 1.398 . S
C1219 C1225 1.491 . S
C1220 H1211 0.950 . S
C1220 C1219 1.398 . S
C1220 C1221 1.391 . S
C1221 H1209 0.950 . S
C1221 C1217 1.393 . S
C1221 C1220 1.391 . S
C1222 H1212 0.950 . S
C1222 C1223 1.386 . S
C1222 C1224 1.391 . S
C1223 C1222 1.386 . S
C1223 C1227 1.393 . S
C1224 H1213 0.950 . S
C1224 C1222 1.391 . S
C1224 C1225 1.400 . S
C1225 C1219 1.491 . S
C1225 C1224 1.400 . S
C1225 C1226 1.398 . S
C1226 H1214 0.950 . S
C1226 C1225 1.398 . S
C1226 C1227 1.391 . S
C1227 H1215 0.950 . S
C1227 C1223 1.393 . S
C1227 C1226 1.391 . S
H1228 C1236 0.950 . S
H1229 C1241 0.950 . S
H1230 C1238 0.950 . S
H1231 C1240 0.950 . S
H1232 C1242 0.950 . S
H1233 C1244 0.950 . S
H1234 C1246 0.950 . S
H1235 C1247 0.950 . S
C1236 H1228 0.950 . S
C1236 C1237 1.386 . S
C1236 C1238 1.391 . S
C1237 C1236 1.386 . S
C1237 C1241 1.393 . S
C1238 H1230 0.950 . S
C1238 C1236 1.391 . S
C1238 C1239 1.400 . S
C1239 C1238 1.400 . S
C1239 C1240 1.398 . S
C1239 C1245 1.491 . S
C1240 H1231 0.950 . S
C1240 C1239 1.398 . S
C1240 C1241 1.391 . S
C1241 H1229 0.950 . S
C1241 C1237 1.393 . S
C1241 C1240 1.391 . S
C1242 H1232 0.950 . S
C1242 C1243 1.386 . S
C1242 C1244 1.391 . S
C1243 C1242 1.386 . S
C1243 C1247 1.393 . S
C1244 H1233 0.950 . S
C1244 C1242 1.391 . S
C1244 C1245 1.400 . S
C1245 C1239 1.491 . S
C1245 C1244 1.400 . S
C1245 C1246 1.398 . S
C1246 H1234 0.950 . S
C1246 C1245 1.398 . S
C1246 C1247 1.391 . S
C1247 H1235 0.950 . S
C1247 C1243 1.393 . S
C1247 C1246 1.391 . S
H1248 C1256 0.950 . S
H1249 C1261 0.950 . S
H1250 C1258 0.950 . S
H1251 C1260 0.950 . S
H1252 C1262 0.950 . S
H1253 C1264 0.950 . S
H1254 C1266 0.950 . S
H1255 C1267 0.950 . S
C1256 H1248 0.950 . S
C1256 C1257 1.386 . S
C1256 C1258 1.391 1_545 S
C1257 C1256 1.386 . S
C1257 C1261 1.393 . S
C1258 H1250 0.950 . S
C1258 C1256 1.391 1_565 S
C1258 C1259 1.400 . S
C1259 C1258 1.400 . S
C1259 C1260 1.398 . S
C1259 C1265 1.491 . S
C1260 H1251 0.950 . S
C1260 C1259 1.398 . S
C1260 C1261 1.391 1_565 S
C1261 H1249 0.950 . S
C1261 C1257 1.393 . S
C1261 C1260 1.391 1_545 S
C1262 H1252 0.950 . S
C1262 C1263 1.386 . S
C1262 C1264 1.391 . S
C1263 C1262 1.386 . S
C1263 C1267 1.393 . S
C1264 H1253 0.950 . S
C1264 C1262 1.391 . S
C1264 C1265 1.400 . S
C1265 C1259 1.491 . S
C1265 C1264 1.400 . S
C1265 C1266 1.398 . S
C1266 H1254 0.950 . S
C1266 C1265 1.398 . S
C1266 C1267 1.391 . S
C1267 H1255 0.950 . S
C1267 C1263 1.393 . S
C1267 C1266 1.391 . S
H1268 C1276 0.950 . S
H1269 C1281 0.950 . S
H1270 C1278 0.950 . S
H1271 C1280 0.950 . S
H1272 C1282 0.950 . S
H1273 C1284 0.950 . S
H1274 C1286 0.950 . S
H1275 C1287 0.950 . S
C1276 H1268 0.950 . S
C1276 C1277 1.386 . S
C1276 C1278 1.391 1_655 S
C1277 C1276 1.386 . S
C1277 C1281 1.393 . S
C1278 H1270 0.950 . S
C1278 C1276 1.391 1_455 S
C1278 C1279 1.400 . S
C1279 C1278 1.400 . S
C1279 C1280 1.398 . S
C1279 C1285 1.491 . S
C1280 H1271 0.950 . S
C1280 C1279 1.398 . S
C1280 C1281 1.391 1_455 S
C1281 H1269 0.950 . S
C1281 C1277 1.393 . S
C1281 C1280 1.391 1_655 S
C1282 H1272 0.950 . S
C1282 C1283 1.386 . S
C1282 C1284 1.391 . S
C1283 C1282 1.386 . S
C1283 C1287 1.393 . S
C1284 H1273 0.950 . S
C1284 C1282 1.391 . S
C1284 C1285 1.400 . S
C1285 C1279 1.491 . S
C1285 C1284 1.400 . S
C1285 C1286 1.398 . S
C1286 H1274 0.950 . S
C1286 C1285 1.398 . S
C1286 C1287 1.391 . S
C1287 H1275 0.950 . S
C1287 C1283 1.393 . S
C1287 C1286 1.391 . S
H1288 C1296 0.950 . S
H1289 C1301 0.950 . S
H1290 C1298 0.950 . S
H1291 C1300 0.950 . S
H1292 C1302 0.950 . S
H1293 C1304 0.950 . S
H1294 C1306 0.950 . S
H1295 C1307 0.950 . S
C1296 H1288 0.950 . S
C1296 C1297 1.386 . S
C1296 C1298 1.391 . S
C1297 C1296 1.386 . S
C1297 C1301 1.393 . S
C1298 H1290 0.950 . S
C1298 C1296 1.391 . S
C1298 C1299 1.400 . S
C1299 C1298 1.400 . S
C1299 C1300 1.398 . S
C1299 C1305 1.491 . S
C1300 H1291 0.950 . S
C1300 C1299 1.398 . S
C1300 C1301 1.391 . S
C1301 H1289 0.950 . S
C1301 C1297 1.393 . S
C1301 C1300 1.391 . S
C1302 H1292 0.950 . S
C1302 C1303 1.386 . S
C1302 C1304 1.391 . S
C1303 C1302 1.386 . S
C1303 C1307 1.393 . S
C1304 H1293 0.950 . S
C1304 C1302 1.391 . S
C1304 C1305 1.400 . S
C1305 C1299 1.491 . S
C1305 C1304 1.400 . S
C1305 C1306 1.398 . S
C1306 H1294 0.950 . S
C1306 C1305 1.398 . S
C1306 C1307 1.391 . S
C1307 H1295 0.950 . S
C1307 C1303 1.393 . S
C1307 C1306 1.391 . S
H1308 C1316 0.950 . S
H1309 C1321 0.950 . S
H1310 C1318 0.950 . S
H1311 C1320 0.950 . S
H1312 C1322 0.950 . S
H1313 C1324 0.950 . S
H1314 C1326 0.950 . S
H1315 C1327 0.950 . S
C1316 H1308 0.950 . S
C1316 C1317 1.386 . S
C1316 C1318 1.391 . S
C1317 C1316 1.386 . S
C1317 C1321 1.393 . S
C1318 H1310 0.950 . S
C1318 C1316 1.391 . S
C1318 C1319 1.400 . S
C1319 C1318 1.400 . S
C1319 C1320 1.398 . S
C1319 C1325 1.491 . S
C1320 H1311 0.950 . S
C1320 C1319 1.398 . S
C1320 C1321 1.391 . S
C1321 H1309 0.950 . S
C1321 C1317 1.393 . S
C1321 C1320 1.391 . S
C1322 H1312 0.950 . S
C1322 C1323 1.386 . S
C1322 C1324 1.391 . S
C1323 C1322 1.386 . S
C1323 C1327 1.393 . S
C1324 H1313 0.950 . S
C1324 C1322 1.391 . S
C1324 C1325 1.400 . S
C1325 C1319 1.491 . S
C1325 C1324 1.400 . S
C1325 C1326 1.398 . S
C1326 H1314 0.950 . S
C1326 C1325 1.398 . S
C1326 C1327 1.391 . S
C1327 H1315 0.950 . S
C1327 C1323 1.393 . S
C1327 C1326 1.391 . S
H1328 C1336 0.950 . S
H1329 C1341 0.950 . S
H1330 C1338 0.950 . S
H1331 C1340 0.950 . S
H1332 C1342 0.950 . S
H1333 C1344 0.950 . S
H1334 C1346 0.950 . S
H1335 C1347 0.950 . S
C1336 H1328 0.950 . S
C1336 C1337 1.386 . S
C1336 C1338 1.391 . S
C1337 C1336 1.386 . S
C1337 C1341 1.393 . S
C1338 H1330 0.950 . S
C1338 C1336 1.391 . S
C1338 C1339 1.400 . S
C1339 C1338 1.400 . S
C1339 C1340 1.398 . S
C1339 C1345 1.491 . S
C1340 H1331 0.950 . S
C1340 C1339 1.398 . S
C1340 C1341 1.391 . S
C1341 H1329 0.950 . S
C1341 C1337 1.393 . S
C1341 C1340 1.391 . S
C1342 H1332 0.950 . S
C1342 C1343 1.386 . S
C1342 C1344 1.391 . S
C1343 C1342 1.386 . S
C1343 C1347 1.393 . S
C1344 H1333 0.950 . S
C1344 C1342 1.391 . S
C1344 C1345 1.400 . S
C1345 C1339 1.491 . S
C1345 C1344 1.400 . S
C1345 C1346 1.398 . S
C1346 H1334 0.950 . S
C1346 C1345 1.398 . S
C1346 C1347 1.391 . S
C1347 H1335 0.950 . S
C1347 C1343 1.393 . S
C1347 C1346 1.391 . S
H1348 C1356 0.950 . S
H1349 C1361 0.950 . S
H1350 C1358 0.950 . S
H1351 C1360 0.950 . S
H1352 C1362 0.950 . S
H1353 C1364 0.950 . S
H1354 C1366 0.950 . S
H1355 C1367 0.950 . S
C1356 H1348 0.950 . S
C1356 C1357 1.386 . S
C1356 C1358 1.391 . S
C1357 C1356 1.386 . S
C1357 C1361 1.393 . S
C1358 H1350 0.950 . S
C1358 C1356 1.391 . S
C1358 C1359 1.400 . S
C1359 C1358 1.400 . S
C1359 C1360 1.398 . S
C1359 C1365 1.491 . S
C1360 H1351 0.950 . S
C1360 C1359 1.398 . S
C1360 C1361 1.391 . S
C1361 H1349 0.950 . S
C1361 C1357 1.393 . S
C1361 C1360 1.391 . S
C1362 H1352 0.950 . S
C1362 C1363 1.386 . S
C1362 C1364 1.391 . S
C1363 C1362 1.386 . S
C1363 C1367 1.393 . S
C1364 H1353 0.950 . S
C1364 C1362 1.391 . S
C1364 C1365 1.400 . S
C1365 C1359 1.491 . S
C1365 C1364 1.400 . S
C1365 C1366 1.398 . S
C1366 H1354 0.950 . S
C1366 C1365 1.398 . S
C1366 C1367 1.391 . S
C1367 H1355 0.950 . S
C1367 C1363 1.393 . S
C1367 C1366 1.391 . S
H1368 C1376 0.950 . S
H1369 C1381 0.950 . S
H1370 C1378 0.950 . S
H1371 C1380 0.950 . S
H1372 C1382 0.950 . S
H1373 C1384 0.950 . S
H1374 C1386 0.950 . S
H1375 C1387 0.950 . S
C1376 H1368 0.950 . S
C1376 C1377 1.386 . S
C1376 C1378 1.391 1_565 S
C1377 C1376 1.386 . S
C1377 C1381 1.393 . S
C1378 H1370 0.950 . S
C1378 C1376 1.391 1_545 S
C1378 C1379 1.400 . S
C1379 C1378 1.400 . S
C1379 C1380 1.398 . S
C1379 C1385 1.491 . S
C1380 H1371 0.950 . S
C1380 C1379 1.398 . S
C1380 C1381 1.391 1_545 S
C1381 H1369 0.950 . S
C1381 C1377 1.393 . S
C1381 C1380 1.391 1_565 S
C1382 H1372 0.950 . S
C1382 C1383 1.386 . S
C1382 C1384 1.391 . S
C1383 C1382 1.386 . S
C1383 C1387 1.393 . S
C1384 H1373 0.950 . S
C1384 C1382 1.391 . S
C1384 C1385 1.400 . S
C1385 C1379 1.491 . S
C1385 C1384 1.400 . S
C1385 C1386 1.398 . S
C1386 H1374 0.950 . S
C1386 C1385 1.398 . S
C1386 C1387 1.391 . S
C1387 H1375 0.950 . S
C1387 C1383 1.393 . S
C1387 C1386 1.391 . S
H1388 C1396 0.950 . S
H1389 C1401 0.950 . S
H1390 C1398 0.950 . S
H1391 C1400 0.950 . S
H1392 C1402 0.950 . S
H1393 C1404 0.950 . S
H1394 C1406 0.950 . S
H1395 C1407 0.950 . S
C1396 H1388 0.950 . S
C1396 C1397 1.438 . S
C1396 C1398 1.342 1_455 S
C1397 C1396 1.438 . S
C1397 C1401 1.393 . S
C1398 H1390 0.950 . S
C1398 C1396 1.342 1_655 S
C1398 C1399 1.400 . S
C1399 C1398 1.400 . S
C1399 C1400 1.398 . S
C1399 C1405 1.491 . S
C1400 H1391 0.950 . S
C1400 C1399 1.398 . S
C1400 C1401 1.391 1_655 S
C1401 H1389 0.950 . S
C1401 C1397 1.393 . S
C1401 C1400 1.391 1_455 S
C1402 H1392 0.950 . S
C1402 C1403 1.386 . S
C1402 C1404 1.391 . S
C1403 C1402 1.386 . S
C1403 C1407 1.393 . S
C1404 H1393 0.950 . S
C1404 C1402 1.391 . S
C1404 C1405 1.400 . S
C1405 C1399 1.491 . S
C1405 C1404 1.400 . S
C1405 C1406 1.398 . S
C1406 H1394 0.950 . S
C1406 C1405 1.398 . S
C1406 C1407 1.391 . S
C1407 H1395 0.950 . S
C1407 C1403 1.393 . S
C1407 C1406 1.391 . S
H1408 C1416 0.950 . S
H1409 C1421 0.950 . S
H1410 C1418 0.950 . S
H1411 C1420 0.950 . S
H1412 C1422 0.950 . S
H1413 C1424 0.950 . S
H1414 C1426 0.950 . S
H1415 C1427 0.950 . S
C1416 H1408 0.950 . S
C1416 C1417 1.386 . S
C1416 C1418 1.391 . S
C1417 C1416 1.386 . S
C1417 C1421 1.393 . S
C1418 H1410 0.950 . S
C1418 C1416 1.391 . S
C1418 C1419 1.400 . S
C1419 C1418 1.400 . S
C1419 C1420 1.398 . S
C1419 C1425 1.491 . S
C1420 H1411 0.950 . S
C1420 C1419 1.398 . S
C1420 C1421 1.391 . S
C1421 H1409 0.950 . S
C1421 C1417 1.393 . S
C1421 C1420 1.391 . S
C1422 H1412 0.950 . S
C1422 C1423 1.386 . S
C1422 C1424 1.391 . S
C1423 C1422 1.386 . S
C1423 C1427 1.393 . S
C1424 H1413 0.950 . S
C1424 C1422 1.391 . S
C1424 C1425 1.400 . S
C1425 C1419 1.491 . S
C1425 C1424 1.400 . S
C1425 C1426 1.398 . S
C1426 H1414 0.950 . S
C1426 C1425 1.398 . S
C1426 C1427 1.391 . S
C1427 H1415 0.950 . S
C1427 C1423 1.393 . S
C1427 C1426 1.391 . S
H1428 C1436 0.950 . S
H1429 C1441 0.950 . S
H1430 C1438 0.950 . S
H1431 C1440 0.950 . S
H1432 C1442 0.950 . S
H1433 C1444 0.950 . S
H1434 C1446 0.950 . S
H1435 C1447 0.950 . S
C1436 H1428 0.950 . S
C1436 C1437 1.386 . S
C1436 C1438 1.391 1_455 S
C1437 C1436 1.386 . S
C1437 C1441 1.393 . S
C1438 H1430 0.950 . S
C1438 C1436 1.391 1_655 S
C1438 C1439 1.400 . S
C1439 C1438 1.400 . S
C1439 C1440 1.398 1_655 S
C1439 C1445 1.491 . S
C1440 H1431 0.950 . S
C1440 C1439 1.398 1_455 S
C1440 C1441 1.391 . S
C1441 H1429 0.950 . S
C1441 C1437 1.393 . S
C1441 C1440 1.391 . S
C1442 H1432 0.950 . S
C1442 C1443 1.386 . S
C1442 C1444 1.391 . S
C1443 C1442 1.386 . S
C1443 C1447 1.393 . S
C1444 H1433 0.950 . S
C1444 C1442 1.391 . S
C1444 C1445 1.400 . S
C1445 C1439 1.491 . S
C1445 C1444 1.400 . S
C1445 C1446 1.398 . S
C1446 H1434 0.950 . S
C1446 C1445 1.398 . S
C1446 C1447 1.391 . S
C1447 H1435 0.950 . S
C1447 C1443 1.393 . S
C1447 C1446 1.391 . S
H1448 C1456 0.950 . S
H1449 C1461 0.950 . S
H1450 C1458 0.950 . S
H1451 C1460 0.950 . S
H1452 C1462 0.950 . S
H1453 C1464 0.950 . S
H1454 C1466 0.950 . S
H1455 C1467 0.950 . S
C1456 H1448 0.950 . S
C1456 C1457 1.386 . S
C1456 C1458 1.391 . S
C1457 C1456 1.386 . S
C1457 C1461 1.393 . S
C1458 H1450 0.950 . S
C1458 C1456 1.391 . S
C1458 C1459 1.400 . S
C1459 C1458 1.400 . S
C1459 C1460 1.398 . S
C1459 C1465 1.491 . S
C1460 H1451 0.950 . S
C1460 C1459 1.398 . S
C1460 C1461 1.391 . S
C1461 H1449 0.950 . S
C1461 C1457 1.393 . S
C1461 C1460 1.391 . S
C1462 H1452 0.950 . S
C1462 C1463 1.386 . S
C1462 C1464 1.391 . S
C1463 C1462 1.386 . S
C1463 C1467 1.393 . S
C1464 H1453 0.950 . S
C1464 C1462 1.391 . S
C1464 C1465 1.400 . S
C1465 C1459 1.491 . S
C1465 C1464 1.400 . S
C1465 C1466 1.398 . S
C1466 H1454 0.950 . S
C1466 C1465 1.398 . S
C1466 C1467 1.391 . S
C1467 H1455 0.950 . S
C1467 C1463 1.393 . S
C1467 C1466 1.391 . S
H1468 C1476 0.950 . S
H1469 C1481 0.950 . S
H1470 C1478 0.950 . S
H1471 C1480 0.950 . S
H1472 C1482 0.950 . S
H1473 C1484 0.950 . S
H1474 C1486 0.950 . S
H1475 C1487 0.950 . S
C1476 H1468 0.950 . S
C1476 C1477 1.386 . S
C1476 C1478 1.391 1_565 S
C1477 C1476 1.386 . S
C1477 C1481 1.393 . S
C1478 H1470 0.950 . S
C1478 C1476 1.391 1_545 S
C1478 C1479 1.400 . S
C1479 C1478 1.400 . S
C1479 C1480 1.398 . S
C1479 C1485 1.491 . S
C1480 H1471 0.950 . S
C1480 C1479 1.398 . S
C1480 C1481 1.391 1_545 S
C1481 H1469 0.950 . S
C1481 C1477 1.393 . S
C1481 C1480 1.391 1_565 S
C1482 H1472 0.950 . S
C1482 C1483 1.386 . S
C1482 C1484 1.391 . S
C1483 C1482 1.386 . S
C1483 C1487 1.393 . S
C1484 H1473 0.950 . S
C1484 C1482 1.391 . S
C1484 C1485 1.400 . S
C1485 C1479 1.491 . S
C1485 C1484 1.400 . S
C1485 C1486 1.398 . S
C1486 H1474 0.950 . S
C1486 C1485 1.398 . S
C1486 C1487 1.391 . S
C1487 H1475 0.950 . S
C1487 C1483 1.393 . S
C1487 C1486 1.391 . S
H1488 C1496 0.950 . S
H1489 C1501 0.950 . S
H1490 C1498 0.950 . S
H1491 C1500 0.950 . S
H1492 C1502 0.950 . S
H1493 C1504 0.950 . S
H1494 C1506 0.950 . S
H1495 C1507 0.950 . S
C1496 H1488 0.950 . S
C1496 C1497 1.386 . S
C1496 C1498 1.391 . S
C1497 C1496 1.386 . S
C1497 C1501 1.393 . S
C1498 H1490 0.950 . S
C1498 C1496 1.391 . S
C1498 C1499 1.400 . S
C1499 C1498 1.400 . S
C1499 C1500 1.398 . S
C1499 C1505 1.491 . S
C1500 H1491 0.950 . S
C1500 C1499 1.398 . S
C1500 C1501 1.391 . S
C1501 H1489 0.950 . S
C1501 C1497 1.393 . S
C1501 C1500 1.391 . S
C1502 H1492 0.950 . S
C1502 C1503 1.386 . S
C1502 C1504 1.391 . S
C1503 C1502 1.386 . S
C1503 C1507 1.393 . S
C1504 H1493 0.950 . S
C1504 C1502 1.391 . S
C1504 C1505 1.400 . S
C1505 C1499 1.491 . S
C1505 C1504 1.400 . S
C1505 C1506 1.398 . S
C1506 H1494 0.950 . S
C1506 C1505 1.398 . S
C1506 C1507 1.391 . S
C1507 H1495 0.950 . S
C1507 C1503 1.393 . S
C1507 C1506 1.391 . S
H1508 C1516 0.950 . S
H1509 C1521 0.950 . S
H1510 C1518 0.950 . S
H1511 C1520 0.950 . S
H1512 C1522 0.950 . S
H1513 C1524 0.950 . S
H1514 C1526 0.950 . S
H1515 C1527 0.950 . S
C1516 H1508 0.950 . S
C1516 C1517 1.386 . S
C1516 C1518 1.391 . S
C1517 C1516 1.386 . S
C1517 C1521 1.393 . S
C1518 H1510 0.950 . S
C1518 C1516 1.391 . S
C1518 C1519 1.400 . S
C1519 C1518 1.400 . S
C1519 C1520 1.398 . S
C1519 C1525 1.491 . S
C1520 H1511 0.950 . S
C1520 C1519 1.398 . S
C1520 C1521 1.391 . S
C1521 H1509 0.950 . S
C1521 C1517 1.393 . S
C1521 C1520 1.391 . S
C1522 H1512 0.950 . S
C1522 C1523 1.386 . S
C1522 C1524 1.391 . S
C1523 C1522 1.386 . S
C1523 C1527 1.393 . S
C1524 H1513 0.950 . S
C1524 C1522 1.391 . S
C1524 C1525 1.400 . S
C1525 C1519 1.491 . S
C1525 C1524 1.400 . S
C1525 C1526 1.398 . S
C1526 H1514 0.950 . S
C1526 C1525 1.398 . S
C1526 C1527 1.391 . S
C1527 H1515 0.950 . S
C1527 C1523 1.393 . S
C1527 C1526 1.391 . S
H1528 C1536 0.950 . S
H1529 C1541 0.950 . S
H1530 C1538 0.950 . S
H1531 C1540 0.950 . S
H1532 C1542 0.950 . S
H1533 C1544 0.950 . S
H1534 C1546 0.950 . S
H1535 C1547 0.950 . S
C1536 H1528 0.950 . S
C1536 C1537 1.386 . S
C1536 C1538 1.391 . S
C1537 C1536 1.386 . S
C1537 C1541 1.393 . S
C1538 H1530 0.950 . S
C1538 C1536 1.391 . S
C1538 C1539 1.400 . S
C1539 C1538 1.400 . S
C1539 C1540 1.398 . S
C1539 C1545 1.491 . S
C1540 H1531 0.950 . S
C1540 C1539 1.398 . S
C1540 C1541 1.391 . S
C1541 H1529 0.950 . S
C1541 C1537 1.393 . S
C1541 C1540 1.391 . S
C1542 H1532 0.950 . S
C1542 C1543 1.386 . S
C1542 C1544 1.391 . S
C1543 C1542 1.386 . S
C1543 C1547 1.393 . S
C1544 H1533 0.950 . S
C1544 C1542 1.391 . S
C1544 C1545 1.400 . S
C1545 C1539 1.491 . S
C1545 C1544 1.400 . S
C1545 C1546 1.398 . S
C1546 H1534 0.950 . S
C1546 C1545 1.398 . S
C1546 C1547 1.391 . S
C1547 H1535 0.950 . S
C1547 C1543 1.393 . S
C1547 C1546 1.391 . S
H1548 C1556 0.950 . S
H1549 C1561 0.950 . S
H1550 C1558 0.950 . S
H1551 C1560 0.950 . S
H1552 C1562 0.950 1_545 S
H1553 C1564 0.950 . S
H1554 C1566 0.950 . S
H1555 C1567 0.950 . S
C1556 H1548 0.950 . S
C1556 C1557 1.386 . S
C1556 C1558 1.391 . S
C1557 C1556 1.386 . S
C1557 C1561 1.393 . S
C1558 H1550 0.950 . S
C1558 C1556 1.391 . S
C1558 C1559 1.400 . S
C1559 C1558 1.400 . S
C1559 C1560 1.398 . S
C1559 C1565 1.491 . S
C1560 H1551 0.950 . S
C1560 C1559 1.398 . S
C1560 C1561 1.391 . S
C1561 H1549 0.950 . S
C1561 C1557 1.393 . S
C1561 C1560 1.391 . S
C1562 H1552 0.950 1_565 S
C1562 C1563 1.386 . S
C1562 C1564 1.391 . S
C1563 C1562 1.386 . S
C1563 C1567 1.393 . S
C1564 H1553 0.950 . S
C1564 C1562 1.391 . S
C1564 C1565 1.400 . S
C1565 C1559 1.491 . S
C1565 C1564 1.400 . S
C1565 C1566 1.398 . S
C1566 H1554 0.950 . S
C1566 C1565 1.398 . S
C1566 C1567 1.391 . S
C1567 H1555 0.950 . S
C1567 C1563 1.393 . S
C1567 C1566 1.391 . S
H1568 C1576 0.950 1_655 S
H1569 C1581 0.950 . S
H1570 C1578 0.904 1_655 S
H1571 C1580 0.950 . S
H1572 C1582 0.950 . S
H1573 C1584 0.950 . S
H1574 C1586 0.950 . S
H1575 C1587 0.950 . S
C1576 H1568 0.950 1_455 S
C1576 C1577 1.386 . S
C1576 C1578 1.396 . S
C1577 C1576 1.386 . S
C1577 C1581 1.393 . S
C1578 H1570 0.904 1_455 S
C1578 C1576 1.396 . S
C1578 C1579 1.443 . S
C1579 C1578 1.443 . S
C1579 C1580 1.398 . S
C1579 C1585 1.491 . S
C1580 H1571 0.950 . S
C1580 C1579 1.398 . S
C1580 C1581 1.391 . S
C1581 H1569 0.950 . S
C1581 C1577 1.393 . S
C1581 C1580 1.391 . S
C1582 H1572 0.950 . S
C1582 C1583 1.386 . S
C1582 C1584 1.391 . S
C1583 C1582 1.386 . S
C1583 C1587 1.393 1_455 S
C1584 H1573 0.950 . S
C1584 C1582 1.391 . S
C1584 C1585 1.400 . S
C1585 C1579 1.491 . S
C1585 C1584 1.400 . S
C1585 C1586 1.398 1_455 S
C1586 H1574 0.950 . S
C1586 C1585 1.398 1_655 S
C1586 C1587 1.391 . S
C1587 H1575 0.950 . S
C1587 C1583 1.393 1_655 S
C1587 C1586 1.391 . S
H1588 C1596 0.950 . S
H1589 C1601 0.950 . S
H1590 C1598 0.950 . S
H1591 C1600 0.950 . S
H1592 C1602 0.950 . S
H1593 C1604 0.950 . S
H1594 C1606 0.950 . S
H1595 C1607 0.950 . S
C1596 H1588 0.950 . S
C1596 C1597 1.386 . S
C1596 C1598 1.391 . S
C1597 C1596 1.386 . S
C1597 C1601 1.393 . S
C1598 H1590 0.950 . S
C1598 C1596 1.391 . S
C1598 C1599 1.400 . S
C1599 C1598 1.400 . S
C1599 C1600 1.398 . S
C1599 C1605 1.491 . S
C1600 H1591 0.950 . S
C1600 C1599 1.398 . S
C1600 C1601 1.391 . S
C1601 H1589 0.950 . S
C1601 C1597 1.393 . S
C1601 C1600 1.391 . S
C1602 H1592 0.950 . S
C1602 C1603 1.386 . S
C1602 C1604 1.391 . S
C1603 C1602 1.386 . S
C1603 C1607 1.393 . S
C1604 H1593 0.950 . S
C1604 C1602 1.391 . S
C1604 C1605 1.400 . S
C1605 C1599 1.491 . S
C1605 C1604 1.400 . S
C1605 C1606 1.398 . S
C1606 H1594 0.950 . S
C1606 C1605 1.398 . S
C1606 C1607 1.391 . S
C1607 H1595 0.950 . S
C1607 C1603 1.393 . S
C1607 C1606 1.391 . S
H1608 C1616 0.950 . S
H1609 C1621 0.950 1_455 S
H1610 C1618 0.950 . S
H1611 C1620 0.950 1_455 S
H1612 C1622 0.950 . S
H1613 C1624 0.949 . S
H1614 C1626 0.950 . S
H1615 C1627 0.950 . S
C1616 H1608 0.950 . S
C1616 C1617 1.386 . S
C1616 C1618 1.391 . S
C1617 C1616 1.386 . S
C1617 C1621 1.393 . S
C1618 H1610 0.950 . S
C1618 C1616 1.391 . S
C1618 C1619 1.400 . S
C1619 C1618 1.400 . S
C1619 C1620 1.398 . S
C1619 C1625 1.491 . S
C1620 H1611 0.950 1_655 S
C1620 C1619 1.398 . S
C1620 C1621 1.391 . S
C1621 H1609 0.950 1_655 S
C1621 C1617 1.393 . S
C1621 C1620 1.391 . S
C1622 H1612 0.950 . S
C1622 C1623 1.386 1_455 S
C1622 C1624 1.391 . S
C1623 C1622 1.386 1_655 S
C1623 C1627 1.393 . S
C1624 H1613 0.949 . S
C1624 C1622 1.391 . S
C1624 C1625 1.401 1_455 S
C1625 C1619 1.491 . S
C1625 C1624 1.401 1_655 S
C1625 C1626 1.398 . S
C1626 H1614 0.950 . S
C1626 C1625 1.398 . S
C1626 C1627 1.391 . S
C1627 H1615 0.950 . S
C1627 C1623 1.393 . S
C1627 C1626 1.391 . S
H1628 C1636 0.950 . S
H1629 C1641 0.950 . S
H1630 C1638 0.950 . S
H1631 C1640 0.950 . S
H1632 C1642 0.950 . S
H1633 C1644 0.950 . S
H1634 C1646 0.950 . S
H1635 C1647 0.950 . S
C1636 H1628 0.950 . S
C1636 C1637 1.386 . S
C1636 C1638 1.391 . S
C1637 C1636 1.386 . S
C1637 C1641 1.393 . S
C1638 H1630 0.950 . S
C1638 C1636 1.391 . S
C1638 C1639 1.400 . S
C1639 C1638 1.400 . S
C1639 C1640 1.398 . S
C1639 C1645 1.491 . S
C1640 H1631 0.950 . S
C1640 C1639 1.398 . S
C1640 C1641 1.391 . S
C1641 H1629 0.950 . S
C1641 C1637 1.393 . S
C1641 C1640 1.391 . S
C1642 H1632 0.950 . S
C1642 C1643 1.386 . S
C1642 C1644 1.391 . S
C1643 C1642 1.386 . S
C1643 C1647 1.393 . S
C1644 H1633 0.950 . S
C1644 C1642 1.391 . S
C1644 C1645 1.400 . S
C1645 C1639 1.491 . S
C1645 C1644 1.400 . S
C1645 C1646 1.398 . S
C1646 H1634 0.950 . S
C1646 C1645 1.398 . S
C1646 C1647 1.391 . S
C1647 H1635 0.950 . S
C1647 C1643 1.393 . S
C1647 C1646 1.391 . S
H1648 C1656 0.968 . S
H1649 C1661 0.950 . S
H1650 C1658 0.950 1_565 S
H1651 C1660 0.950 . S
H1652 C1662 0.950 . S
H1653 C1664 0.950 . S
H1654 C1666 0.950 . S
H1655 C1667 0.950 . S
C1656 H1648 0.968 . S
C1656 C1657 1.386 . S
C1656 C1658 1.391 . S
C1657 C1656 1.386 . S
C1657 C1661 1.393 . S
C1658 H1650 0.950 1_545 S
C1658 C1656 1.391 . S
C1658 C1659 1.400 . S
C1659 C1658 1.400 . S
C1659 C1660 1.398 . S
C1659 C1665 1.491 . S
C1660 H1651 0.950 . S
C1660 C1659 1.398 . S
C1660 C1661 1.391 . S
C1661 H1649 0.950 . S
C1661 C1657 1.393 . S
C1661 C1660 1.391 . S
C1662 H1652 0.950 . S
C1662 C1663 1.386 . S
C1662 C1664 1.391 . S
C1663 C1662 1.386 . S
C1663 C1667 1.393 1_545 S
C1664 H1653 0.950 . S
C1664 C1662 1.391 . S
C1664 C1665 1.400 . S
C1665 C1659 1.491 . S
C1665 C1664 1.400 . S
C1665 C1666 1.398 1_545 S
C1666 H1654 0.950 . S
C1666 C1665 1.398 1_565 S
C1666 C1667 1.391 . S
C1667 H1655 0.950 . S
C1667 C1663 1.393 1_565 S
C1667 C1666 1.391 . S
H1668 C1676 0.950 . S
H1669 C1681 0.950 . S
H1670 C1678 0.950 . S
H1671 C1680 0.950 . S
H1672 C1682 0.950 . S
H1673 C1684 0.950 . S
H1674 C1686 0.950 . S
H1675 C1687 0.950 . S
C1676 H1668 0.950 . S
C1676 C1677 1.386 . S
C1676 C1678 1.391 . S
C1677 C1676 1.386 . S
C1677 C1681 1.393 . S
C1678 H1670 0.950 . S
C1678 C1676 1.391 . S
C1678 C1679 1.400 . S
C1679 C1678 1.400 . S
C1679 C1680 1.398 . S
C1679 C1685 1.491 . S
C1680 H1671 0.950 . S
C1680 C1679 1.398 . S
C1680 C1681 1.391 . S
C1681 H1669 0.950 . S
C1681 C1677 1.393 . S
C1681 C1680 1.391 . S
C1682 H1672 0.950 . S
C1682 C1683 1.386 . S
C1682 C1684 1.391 . S
C1683 C1682 1.386 . S
C1683 C1687 1.393 . S
C1684 H1673 0.950 . S
C1684 C1682 1.391 . S
C1684 C1685 1.400 . S
C1685 C1679 1.491 . S
C1685 C1684 1.400 . S
C1685 C1686 1.398 . S
C1686 H1674 0.950 . S
C1686 C1685 1.398 . S
C1686 C1687 1.391 . S
C1687 H1675 0.950 . S
C1687 C1683 1.393 . S
C1687 C1686 1.391 . S
H1688 C1696 0.950 . S
H1689 C1701 0.950 . S
H1690 C1698 0.950 . S
H1691 C1700 0.950 . S
H1692 C1702 0.950 . S
H1693 C1704 0.950 . S
H1694 C1706 0.950 . S
H1695 C1707 0.950 . S
C1696 H1688 0.950 . S
C1696 C1697 1.386 . S
C1696 C1698 1.391 . S
C1697 C1696 1.386 . S
C1697 C1701 1.393 . S
C1698 H1690 0.950 . S
C1698 C1696 1.391 . S
C1698 C1699 1.400 . S
C1699 C1698 1.400 . S
C1699 C1700 1.398 . S
C1699 C1705 1.491 . S
C1700 H1691 0.950 . S
C1700 C1699 1.398 . S
C1700 C1701 1.391 . S
C1701 H1689 0.950 . S
C1701 C1697 1.393 . S
C1701 C1700 1.391 . S
C1702 H1692 0.950 . S
C1702 C1703 1.386 . S
C1702 C1704 1.391 . S
C1703 C1702 1.386 . S
C1703 C1707 1.393 . S
C1704 H1693 0.950 . S
C1704 C1702 1.391 . S
C1704 C1705 1.400 . S
C1705 C1699 1.491 . S
C1705 C1704 1.400 . S
C1705 C1706 1.398 . S
C1706 H1694 0.950 . S
C1706 C1705 1.398 . S
C1706 C1707 1.391 . S
C1707 H1695 0.950 . S
C1707 C1703 1.393 . S
C1707 C1706 1.391 . S
H1708 C1716 0.950 . S
H1709 C1721 0.950 . S
H1710 C1718 0.950 . S
H1711 C1720 0.950 . S
H1712 C1722 0.950 . S
H1713 C1724 0.950 . S
H1714 C1726 0.950 . S
H1715 C1727 0.950 . S
C1716 H1708 0.950 . S
C1716 C1717 1.386 . S
C1716 C1718 1.391 . S
C1717 C1716 1.386 . S
C1717 C1721 1.393 . S
C1718 H1710 0.950 . S
C1718 C1716 1.391 . S
C1718 C1719 1.400 . S
C1719 C1718 1.400 . S
C1719 C1720 1.398 . S
C1719 C1725 1.491 . S
C1720 H1711 0.950 . S
C1720 C1719 1.398 . S
C1720 C1721 1.391 . S
C1721 H1709 0.950 . S
C1721 C1717 1.393 . S
C1721 C1720 1.391 . S
C1722 H1712 0.950 . S
C1722 C1723 1.386 . S
C1722 C1724 1.391 . S
C1723 C1722 1.386 . S
C1723 C1727 1.393 . S
C1724 H1713 0.950 . S
C1724 C1722 1.391 . S
C1724 C1725 1.400 . S
C1725 C1719 1.491 . S
C1725 C1724 1.400 . S
C1725 C1726 1.398 . S
C1726 H1714 0.950 . S
C1726 C1725 1.398 . S
C1726 C1727 1.391 . S
C1727 H1715 0.950 . S
C1727 C1723 1.393 . S
C1727 C1726 1.391 . S
H1728 C1736 0.950 . S
H1729 C1741 0.950 . S
H1730 C1738 0.950 . S
H1731 C1740 0.950 . S
H1732 C1742 0.950 . S
H1733 C1744 0.950 . S
H1734 C1746 0.950 . S
H1735 C1747 0.950 . S
C1736 H1728 0.950 . S
C1736 C1737 1.386 . S
C1736 C1738 1.391 . S
C1737 C1736 1.386 . S
C1737 C1741 1.393 . S
C1738 H1730 0.950 . S
C1738 C1736 1.391 . S
C1738 C1739 1.400 . S
C1739 C1738 1.400 . S
C1739 C1740 1.398 . S
C1739 C1745 1.491 . S
C1740 H1731 0.950 . S
C1740 C1739 1.398 . S
C1740 C1741 1.391 . S
C1741 H1729 0.950 . S
C1741 C1737 1.393 . S
C1741 C1740 1.391 . S
C1742 H1732 0.950 . S
C1742 C1743 1.386 . S
C1742 C1744 1.391 . S
C1743 C1742 1.386 . S
C1743 C1747 1.393 . S
C1744 H1733 0.950 . S
C1744 C1742 1.391 . S
C1744 C1745 1.400 . S
C1745 C1739 1.491 . S
C1745 C1744 1.400 . S
C1745 C1746 1.398 . S
C1746 H1734 0.950 . S
C1746 C1745 1.398 . S
C1746 C1747 1.391 . S
C1747 H1735 0.950 . S
C1747 C1743 1.393 . S
C1747 C1746 1.391 . S
H1748 C1756 0.950 . S
H1749 C1761 0.950 . S
H1750 C1758 0.950 . S
H1751 C1760 0.950 . S
H1752 C1762 0.950 . S
H1753 C1764 0.950 . S
H1754 C1766 0.950 . S
H1755 C1767 0.950 . S
C1756 H1748 0.950 . S
C1756 C1757 1.386 . S
C1756 C1758 1.391 . S
C1757 C1756 1.386 . S
C1757 C1761 1.393 . S
C1758 H1750 0.950 . S
C1758 C1756 1.391 . S
C1758 C1759 1.400 . S
C1759 C1758 1.400 . S
C1759 C1760 1.398 . S
C1759 C1765 1.491 . S
C1760 H1751 0.950 . S
C1760 C1759 1.398 . S
C1760 C1761 1.391 . S
C1761 H1749 0.950 . S
C1761 C1757 1.393 . S
C1761 C1760 1.391 . S
C1762 H1752 0.950 . S
C1762 C1763 1.386 . S
C1762 C1764 1.391 . S
C1763 C1762 1.386 . S
C1763 C1767 1.393 . S
C1764 H1753 0.950 . S
C1764 C1762 1.391 . S
C1764 C1765 1.400 . S
C1765 C1759 1.491 . S
C1765 C1764 1.400 . S
C1765 C1766 1.398 . S
C1766 H1754 0.950 . S
C1766 C1765 1.398 . S
C1766 C1767 1.391 . S
C1767 H1755 0.950 . S
C1767 C1763 1.393 . S
C1767 C1766 1.391 . S
H1768 C1776 0.950 . S
H1769 C1781 0.950 . S
H1770 C1778 0.950 . S
H1771 C1780 0.950 . S
H1772 C1782 0.950 . S
H1773 C1784 0.950 . S
H1774 C1786 0.950 . S
H1775 C1787 0.950 . S
C1776 H1768 0.950 . S
C1776 C1777 1.386 . S
C1776 C1778 1.391 . S
C1777 C1776 1.386 . S
C1777 C1781 1.393 . S
C1778 H1770 0.950 . S
C1778 C1776 1.391 . S
C1778 C1779 1.400 . S
C1779 C1778 1.400 . S
C1779 C1780 1.398 . S
C1779 C1785 1.491 . S
C1780 H1771 0.950 . S
C1780 C1779 1.398 . S
C1780 C1781 1.391 . S
C1781 H1769 0.950 . S
C1781 C1777 1.393 . S
C1781 C1780 1.391 . S
C1782 H1772 0.950 . S
C1782 C1783 1.386 . S
C1782 C1784 1.391 . S
C1783 C1782 1.386 . S
C1783 C1787 1.393 . S
C1784 H1773 0.950 . S
C1784 C1782 1.391 . S
C1784 C1785 1.400 . S
C1785 C1779 1.491 . S
C1785 C1784 1.400 . S
C1785 C1786 1.398 . S
C1786 H1774 0.950 . S
C1786 C1785 1.398 . S
C1786 C1787 1.391 . S
C1787 H1775 0.950 . S
C1787 C1783 1.393 . S
C1787 C1786 1.391 . S
H1788 C1796 0.950 . S
H1789 C1801 0.950 . S
H1790 C1798 0.950 . S
H1791 C1800 0.950 . S
H1792 C1802 0.950 . S
H1793 C1804 0.950 . S
H1794 C1806 0.950 . S
H1795 C1807 0.950 . S
C1796 H1788 0.950 . S
C1796 C1797 1.386 . S
C1796 C1798 1.391 . S
C1797 C1796 1.386 . S
C1797 C1801 1.393 . S
C1798 H1790 0.950 . S
C1798 C1796 1.391 . S
C1798 C1799 1.400 . S
C1799 C1798 1.400 . S
C1799 C1800 1.398 . S
C1799 C1805 1.491 . S
C1800 H1791 0.950 . S
C1800 C1799 1.398 . S
C1800 C1801 1.391 . S
C1801 H1789 0.950 . S
C1801 C1797 1.393 . S
C1801 C1800 1.391 . S
C1802 H1792 0.950 . S
C1802 C1803 1.386 . S
C1802 C1804 1.391 . S
C1803 C1802 1.386 . S
C1803 C1807 1.393 . S
C1804 H1793 0.950 . S
C1804 C1802 1.391 . S
C1804 C1805 1.400 . S
C1805 C1799 1.491 . S
C1805 C1804 1.400 . S
C1805 C1806 1.398 . S
C1806 H1794 0.950 . S
C1806 C1805 1.398 . S
C1806 C1807 1.391 . S
C1807 H1795 0.950 . S
C1807 C1803 1.393 . S
C1807 C1806 1.391 . S
H1808 C1816 0.950 . S
H1809 C1821 0.950 . S
H1810 C1818 0.950 . S
H1811 C1820 0.950 . S
H1812 C1822 0.950 . S
H1813 C1824 0.950 . S
H1814 C1826 0.950 . S
H1815 C1827 0.950 . S
C1816 H1808 0.950 . S
C1816 C1817 1.386 . S
C1816 C1818 1.391 . S
C1817 C1816 1.386 . S
C1817 C1821 1.393 . S
C1818 H1810 0.950 . S
C1818 C1816 1.391 . S
C1818 C1819 1.400 . S
C1819 C1818 1.400 . S
C1819 C1820 1.398 . S
C1819 C1825 1.491 . S
C1820 H1811 0.950 . S
C1820 C1819 1.398 . S
C1820 C1821 1.391 . S
C1821 H1809 0.950 . S
C1821 C1817 1.393 . S
C1821 C1820 1.391 . S
C1822 H1812 0.950 . S
C1822 C1823 1.386 . S
C1822 C1824 1.391 . S
C1823 C1822 1.386 . S
C1823 C1827 1.393 . S
C1824 H1813 0.950 . S
C1824 C1822 1.391 . S
C1824 C1825 1.400 . S
C1825 C1819 1.491 . S
C1825 C1824 1.400 . S
C1825 C1826 1.398 . S
C1826 H1814 0.950 . S
C1826 C1825 1.398 . S
C1826 C1827 1.391 . S
C1827 H1815 0.950 . S
C1827 C1823 1.393 . S
C1827 C1826 1.391 . S
H1828 C1836 0.950 . S
H1829 C1841 0.950 . S
H1830 C1838 0.950 . S
H1831 C1840 0.950 . S
H1832 C1842 0.950 . S
H1833 C1844 0.950 . S
H1834 C1846 0.950 . S
H1835 C1847 0.950 . S
C1836 H1828 0.950 . S
C1836 C1837 1.386 . S
C1836 C1838 1.391 . S
C1837 C1836 1.386 . S
C1837 C1841 1.393 . S
C1838 H1830 0.950 . S
C1838 C1836 1.391 . S
C1838 C1839 1.400 . S
C1839 C1838 1.400 . S
C1839 C1840 1.398 . S
C1839 C1845 1.491 . S
C1840 H1831 0.950 . S
C1840 C1839 1.398 . S
C1840 C1841 1.391 . S
C1841 H1829 0.950 . S
C1841 C1837 1.393 . S
C1841 C1840 1.391 . S
C1842 H1832 0.950 . S
C1842 C1843 1.386 . S
C1842 C1844 1.391 . S
C1843 C1842 1.386 . S
C1843 C1847 1.393 . S
C1844 H1833 0.950 . S
C1844 C1842 1.391 . S
C1844 C1845 1.400 . S
C1845 C1839 1.491 . S
C1845 C1844 1.400 . S
C1845 C1846 1.398 . S
C1846 H1834 0.950 . S
C1846 C1845 1.398 . S
C1846 C1847 1.391 . S
C1847 H1835 0.950 . S
C1847 C1843 1.393 . S
C1847 C1846 1.391 . S
H1848 C1856 0.950 . S
H1849 C1861 0.950 . S
H1850 C1858 0.950 . S
H1851 C1860 0.950 . S
H1852 C1862 0.950 . S
H1853 C1864 0.950 . S
H1854 C1866 0.950 . S
H1855 C1867 0.950 . S
C1856 H1848 0.950 . S
C1856 C1857 1.386 . S
C1856 C1858 1.391 . S
C1857 C1856 1.386 . S
C1857 C1861 1.393 . S
C1858 H1850 0.950 . S
C1858 C1856 1.391 . S
C1858 C1859 1.400 . S
C1859 C1858 1.400 . S
C1859 C1860 1.398 . S
C1859 C1865 1.491 . S
C1860 H1851 0.950 . S
C1860 C1859 1.398 . S
C1860 C1861 1.391 . S
C1861 H1849 0.950 . S
C1861 C1857 1.393 . S
C1861 C1860 1.391 . S
C1862 H1852 0.950 . S
C1862 C1863 1.386 . S
C1862 C1864 1.391 . S
C1863 C1862 1.386 . S
C1863 C1867 1.393 . S
C1864 H1853 0.950 . S
C1864 C1862 1.391 . S
C1864 C1865 1.400 . S
C1865 C1859 1.491 . S
C1865 C1864 1.400 . S
C1865 C1866 1.398 . S
C1866 H1854 0.950 . S
C1866 C1865 1.398 . S
C1866 C1867 1.391 . S
C1867 H1855 0.950 . S
C1867 C1863 1.393 . S
C1867 C1866 1.391 . S
H1868 C1876 0.950 . S
H1869 C1881 0.950 . S
H1870 C1878 0.950 . S
H1871 C1880 0.950 . S
H1872 C1882 0.950 . S
H1873 C1884 0.950 . S
H1874 C1886 0.950 . S
H1875 C1887 0.950 . S
C1876 H1868 0.950 . S
C1876 C1877 1.386 . S
C1876 C1878 1.391 . S
C1877 C1876 1.386 . S
C1877 C1881 1.393 . S
C1878 H1870 0.950 . S
C1878 C1876 1.391 . S
C1878 C1879 1.400 . S
C1879 C1878 1.400 . S
C1879 C1880 1.398 . S
C1879 C1885 1.491 . S
C1880 H1871 0.950 . S
C1880 C1879 1.398 . S
C1880 C1881 1.391 . S
C1881 H1869 0.950 . S
C1881 C1877 1.393 . S
C1881 C1880 1.391 . S
C1882 H1872 0.950 . S
C1882 C1883 1.386 . S
C1882 C1884 1.391 . S
C1883 C1882 1.386 . S
C1883 C1887 1.393 . S
C1884 H1873 0.950 . S
C1884 C1882 1.391 . S
C1884 C1885 1.400 . S
C1885 C1879 1.491 . S
C1885 C1884 1.400 . S
C1885 C1886 1.398 . S
C1886 H1874 0.950 . S
C1886 C1885 1.398 . S
C1886 C1887 1.391 . S
C1887 H1875 0.950 . S
C1887 C1883 1.393 . S
C1887 C1886 1.391 . S
H1888 C1896 0.950 . S
H1889 C1901 0.950 . S
H1890 C1898 0.950 . S
H1891 C1900 0.950 . S
H1892 C1902 0.950 . S
H1893 C1904 0.950 . S
H1894 C1906 0.950 . S
H1895 C1907 0.950 . S
C1896 H1888 0.950 . S
C1896 C1897 1.386 . S
C1896 C1898 1.391 . S
C1897 C1896 1.386 . S
C1897 C1901 1.393 . S
C1898 H1890 0.950 . S
C1898 C1896 1.391 . S
C1898 C1899 1.400 . S
C1899 C1898 1.400 . S
C1899 C1900 1.398 . S
C1899 C1905 1.491 . S
C1900 H1891 0.950 . S
C1900 C1899 1.398 . S
C1900 C1901 1.391 . S
C1901 H1889 0.950 . S
C1901 C1897 1.393 . S
C1901 C1900 1.391 . S
C1902 H1892 0.950 . S
C1902 C1903 1.386 . S
C1902 C1904 1.391 . S
C1903 C1902 1.386 . S
C1903 C1907 1.393 . S
C1904 H1893 0.950 . S
C1904 C1902 1.391 . S
C1904 C1905 1.400 . S
C1905 C1899 1.491 . S
C1905 C1904 1.400 . S
C1905 C1906 1.398 . S
C1906 H1894 0.950 . S
C1906 C1905 1.398 . S
C1906 C1907 1.391 . S
C1907 H1895 0.950 . S
C1907 C1903 1.393 . S
C1907 C1906 1.391 . S
C837 C469 1.569 . S
C843 C654 1.535 . S
C857 C505 1.529 . S
C863 C674 1.499 . S
C877 C433 1.582 . S
C883 C697 1.569 . S
C897 C397 1.478 . S
C903 C677 1.469 . S
C923 C694 1.427 . S
C917 C325 1.444 . S
C937 C361 1.485 . S
C943 C657 1.476 . S
C963 C664 1.544 . S
C957 C421 1.575 . S
C983 C684 1.490 . S
C977 C349 1.524 . S
C997 C385 1.567 . S
C1003 C689 1.555 . S
C1017 C493 1.477 . S
C1023 C669 1.466 . S
C1037 C529 1.445 . S
C1043 C704 1.415 . S
C1063 C649 1.461 . S
C1057 C457 1.479 . S
C1083 C714 1.540 . S
C1077 C37 1.574 . S
C1097 C73 1.526 . S
C1103 C734 1.502 . S
C1117 C1 1.577 . S
C1123 C757 1.561 . S
C1137 C613 1.472 . S
C1143 C737 1.455 . S
C1157 C541 1.435 . S
C1163 C754 1.421 . S
C1177 C577 1.477 . S
C1183 C717 1.461 . S
C1197 C637 1.577 . S
C1203 C724 1.546 . S
C1217 C565 1.523 . S
C1223 C744 1.485 . S
C1243 C749 1.557 . S
C1237 C601 1.572 . S
C1257 C61 1.471 . S
C1263 C729 1.462 . S
C1283 C764 1.414 . S
C1277 C97 1.446 . S
C1297 C25 1.481 . S
C1303 C709 1.463 . S
C1323 C774 1.551 . S
C1317 C253 1.569 . S
C1337 C289 1.525 . S
C1343 C794 1.494 . S
C1363 C817 1.569 . S
C1357 C217 1.582 . S
C1383 C797 1.464 . S
C1377 C181 1.478 . S
C1403 C814 1.418 . S
C1397 C109 1.436 . S
C1417 C145 1.484 . S
C1423 C777 1.470 . S
C1437 C205 1.578 . S
C1443 C784 1.547 . S
C1457 C133 1.527 . S
C1463 C804 1.502 . S
C1483 C809 1.571 . S
C1477 C169 1.579 . S
C1497 C277 1.473 . S
C1503 C789 1.466 . S
C1517 C313 1.445 . S
C1523 C824 1.414 . S
C1537 C241 1.480 . S
C1543 C769 1.467 . S
C1557 C571 1.276 . S
C1563 C667 1.229 1_565 S
C1583 C687 1.622 . S
C1577 C607 1.692 . S
C1597 C643 1.502 . S
C1603 C696 1.461 . S
C1617 C247 1.690 . S
C1623 C676 1.633 1_655 S
C1637 C283 1.512 . S
C1643 C707 1.471 . S
C1663 C656 1.218 1_545 S
C1657 C319 1.276 . S
C1677 C139 1.275 . S
C1683 C727 1.252 . S
C1697 C175 1.694 . S
C1703 C747 1.617 . S
C1717 C211 1.510 . S
C1723 C756 1.465 . S
C1737 C463 1.694 . S
C1743 C736 1.626 . S
C1763 C767 1.454 . S
C1757 C499 1.511 . S
C1777 C535 1.274 . S
C1783 C716 1.228 . S
C1797 C355 1.275 . S
C1803 C787 1.229 . S
C1817 C391 1.691 . S
C1823 C807 1.619 . S
C1843 C816 1.448 . S
C1837 C427 1.508 . S
C1857 C31 1.692 . S
C1863 C796 1.631 . S
C1877 C67 1.510 . S
C1883 C827 1.447 . S
C1897 C103 1.268 . S
C1903 C776 1.250 . S
