# Generated by pormake.
# Topology anh, (6,3)-cn, num edge types: 1
# Building blocks:
#     Node 0, Type 0, BuildingBlock: BETDAH_clean_sbu_0, # of connection points: 6
#     Node 1, Type 0, BuildingBlock: BETDAH_clean_sbu_0, # of connection points: 6
#     Node 2, Type 0, BuildingBlock: BETDAH_clean_sbu_0, # of connection points: 6
#     Node 3, Type 1, BuildingBlock: BELTOD_clean_linker_0, # of connection points: 3
#     Node 4, Type 1, BuildingBlock: BELTOD_clean_linker_0, # of connection points: 3
#     Node 5, Type 1, BuildingBlock: BELTOD_clean_linker_0, # of connection points: 3
#     Node 6, Type 1, BuildingBlock: BELTOD_clean_linker_0, # of connection points: 3
#     Node 7, Type 1, BuildingBlock: BELTOD_clean_linker_0, # of connection points: 3
#     Node 8, Type 1, BuildingBlock: BELTOD_clean_linker_0, # of connection points: 3
#     Edge 9, Type (0, 1), BuildingBlock: UVAHIK_clean_linker_0, # of connection points: 2
#     Edge 10, Type (0, 1), BuildingBlock: UVAHIK_clean_linker_0, # of connection points: 2
#     Edge 11, Type (0, 1), BuildingBlock: UVAHIK_clean_linker_0, # of connection points: 2
#     Edge 12, Type (0, 1), BuildingBlock: UVAHIK_clean_linker_0, # of connection points: 2
#     Edge 13, Type (0, 1), BuildingBlock: UVAHIK_clean_linker_0, # of connection points: 2
#     Edge 14, Type (0, 1), BuildingBlock: UVAHIK_clean_linker_0, # of connection points: 2
#     Edge 15, Type (0, 1), BuildingBlock: UVAHIK_clean_linker_0, # of connection points: 2
#     Edge 16, Type (0, 1), BuildingBlock: UVAHIK_clean_linker_0, # of connection points: 2
#     Edge 17, Type (0, 1), BuildingBlock: UVAHIK_clean_linker_0, # of connection points: 2
#     Edge 18, Type (0, 1), BuildingBlock: UVAHIK_clean_linker_0, # of connection points: 2
#     Edge 19, Type (0, 1), BuildingBlock: UVAHIK_clean_linker_0, # of connection points: 2
#     Edge 20, Type (0, 1), BuildingBlock: UVAHIK_clean_linker_0, # of connection points: 2
#     Edge 21, Type (0, 1), BuildingBlock: UVAHIK_clean_linker_0, # of connection points: 2
#     Edge 22, Type (0, 1), BuildingBlock: UVAHIK_clean_linker_0, # of connection points: 2
#     Edge 23, Type (0, 1), BuildingBlock: UVAHIK_clean_linker_0, # of connection points: 2
#     Edge 24, Type (0, 1), BuildingBlock: UVAHIK_clean_linker_0, # of connection points: 2
#     Edge 25, Type (0, 1), BuildingBlock: UVAHIK_clean_linker_0, # of connection points: 2
#     Edge 26, Type (0, 1), BuildingBlock: UVAHIK_clean_linker_0, # of connection points: 2
# Relax obj value: 0.157
# Max RMSD: 0.197
# Mean RMSD: 0.142
data_MOF--net-anh--node1-BETDAH_clean_sbu_0--node2-BELTOD_clean_linker_0--edge1-UVAHIK_clean_linker_0
_symmetry_space_group_name_H-M    P1
_symmetry_Int_Tables_number       1
_symmetry_cell_setting            triclinic
loop_
_symmetry_equiv_pos_as_xyz
'x, y, z'
_cell_length_a     43.246861
_cell_length_b     50.263428
_cell_length_c     75.967658
_cell_angle_alpha  92.709311
_cell_angle_beta   89.05173
_cell_angle_gamma 127.15093
loop_
_atom_site_label
_atom_site_type_symbol
_atom_site_fract_x
_atom_site_fract_y
_atom_site_fract_z
_atom_type_partial_charge
Ho0 Ho 0.08276 0.5047 0.1499 0.0
Ho1 Ho 0.04279 0.53368 0.16449 0.0
C2 C 0.13332 0.58541 0.15941 0.0
C3 C 0.12755 0.49454 0.13364 0.0
C4 C 0.16787 0.50794 0.13807 0.0
C5 C 0.19905 0.53382 0.1285 0.0
C6 C 0.23734 0.54853 0.13368 0.0
C7 C 0.2451 0.53766 0.14852 0.0
C8 C 0.21389 0.51158 0.15794 0.0
C9 C 0.17578 0.49687 0.15278 0.0
C10 C 0.07379 0.50218 0.18506 0.0
C11 C 0.99301 0.45406 0.15474 0.0
C12 C 1.00269 0.54651 0.18335 0.0
C13 C 0.96476 0.5265 0.19184 0.0
C14 C 0.95953 0.53797 0.20795 0.0
C15 C 0.92286 0.52033 0.21554 0.0
C16 C 0.89079 0.49105 0.20703 0.0
C17 C 0.89683 0.47882 0.19132 0.0
C18 C 0.93349 0.49627 0.18386 0.0
C19 C 0.05296 0.5363 0.12924 0.0
O20 O 0.13174 0.56037 0.15176 0.0
O21 O 0.10281 0.58098 0.1668 0.0
O22 O 0.1009 0.47353 0.14457 0.0
O23 O 0.1226 0.51636 0.12867 0.0
O24 O 0.07242 0.47961 0.17537 0.0
O25 O 0.08294 0.52609 0.17589 0.0
O26 O 0.99708 0.47756 0.16549 0.0
O27 O 1.02127 0.46088 0.14414 0.0
O28 O 1.00231 0.54536 0.1661 0.0
O29 O 1.02907 0.54478 0.18999 0.0
O30 O 0.05561 0.55962 0.13891 0.0
O31 O 0.04283 0.51224 0.1385 0.0
H32 H 0.19382 0.54296 0.11717 0.0
H33 H 0.26085 0.5685 0.12612 0.0
H34 H 0.21887 0.502 0.16915 0.0
H35 H 0.15257 0.477 0.16049 0.0
H36 H 0.9836 0.56101 0.21442 0.0
H37 H 0.91941 0.53018 0.22778 0.0
H38 H 0.87291 0.45671 0.18419 0.0
H39 H 0.93704 0.48672 0.17152 0.0
Ho40 Ho 0.56691 -0.00011 0.48885 0.0
Ho41 Ho 0.51548 0.02045 0.48132 0.0
C42 C 0.47418 0.94308 0.48096 0.0
C43 C 0.59655 0.97258 0.50118 0.0
C44 C 0.58491 0.93834 0.50261 0.0
C45 C 0.56051 0.9179 0.51613 0.0
C46 C 0.5513 0.88626 0.51782 0.0
C47 C 0.56627 0.87435 0.50603 0.0
C48 C 0.59022 0.89461 0.49238 0.0
C49 C 0.59958 0.92629 0.49075 0.0
C50 C 0.56468 0.01191 0.45501 0.0
C51 C 0.60894 0.07752 0.48776 0.0
C52 C 0.48504 0.04796 0.47032 0.0
C53 C 0.49272 0.08079 0.47326 0.0
C54 C 0.52716 0.11037 0.46762 0.0
C55 C 0.53425 0.14121 0.47108 0.0
C56 C 0.50718 0.14322 0.48032 0.0
C57 C 0.47256 0.1135 0.48576 0.0
C58 C 0.46537 0.08267 0.48219 0.0
C59 C 0.52184 0.01158 0.51556 0.0
O60 O 0.5062 0.95095 0.48861 0.0
O61 O 0.47251 0.96602 0.47437 0.0
O62 O 0.60315 0.98383 0.48532 0.0
O63 O 0.57801 0.98088 0.51088 0.0
O64 O 0.59539 0.01919 0.46296 0.0
O65 O 0.53574 0.99663 0.46501 0.0
O66 O 0.57613 0.0694 0.48089 0.0
O67 O 0.6112 0.05485 0.49437 0.0
O68 O 0.47235 0.02914 0.48391 0.0
O69 O 0.51061 0.04712 0.46138 0.0
O70 O 0.49022 0.00389 0.50848 0.0
O71 O 0.54851 0.02532 0.50452 0.0
H72 H 0.54882 0.92642 0.52556 0.0
H73 H 0.53257 0.87114 0.52841 0.0
H74 H 0.60273 0.88641 0.48326 0.0
H75 H 0.61883 0.94158 0.48032 0.0
H76 H 0.54878 0.1098 0.46062 0.0
H77 H 0.56093 0.16348 0.46643 0.0
H78 H 0.45128 0.11404 0.49312 0.0
H79 H 0.43856 0.06025 0.48665 0.0
Ho80 Ho 0.60493 0.55637 0.83847 0.0
Ho81 Ho 0.55096 0.4821 0.8456 0.0
C82 C 0.51164 0.5188 0.84374 0.0
C83 C 0.6362 0.6139 0.82551 0.0
C84 C 0.62573 0.63683 0.82435 0.0
C85 C 0.62072 0.6449 0.80773 0.0
C86 C 0.61066 0.66642 0.80629 0.0
C87 C 0.60577 0.68056 0.82146 0.0
C88 C 0.61074 0.67247 0.83811 0.0
C89 C 0.62046 0.6507 0.83956 0.0
C90 C 0.59569 0.54142 0.87266 0.0
C91 C 0.64513 0.52077 0.84209 0.0
C92 C 0.5186 0.42352 0.85741 0.0
C93 C 0.52287 0.39689 0.85345 0.0
C94 C 0.52774 0.38207 0.86723 0.0
C95 C 0.53306 0.35752 0.8636 0.0
C96 C 0.53348 0.3473 0.84608 0.0
C97 C 0.52815 0.36202 0.83232 0.0
C98 C 0.52316 0.38667 0.83595 0.0
C99 C 0.55996 0.49638 0.81126 0.0
O100 O 0.54464 0.54377 0.83677 0.0
O101 O 0.50897 0.49388 0.85077 0.0
O102 O 0.64506 0.61021 0.84114 0.0
O103 O 0.61453 0.58567 0.81619 0.0
O104 O 0.62816 0.56658 0.86644 0.0
O105 O 0.56983 0.52737 0.86086 0.0
O106 O 0.61125 0.49499 0.84799 0.0
O107 O 0.64884 0.54634 0.83532 0.0
O108 O 0.50338 0.42947 0.84489 0.0
O109 O 0.54833 0.4509 0.86525 0.0
O110 O 0.52816 0.471 0.81769 0.0
O111 O 0.58612 0.51094 0.82298 0.0
H112 H 0.6247 0.63459 0.79582 0.0
H113 H 0.60747 0.67252 0.79328 0.0
H114 H 0.60683 0.68279 0.85002 0.0
H115 H 0.62384 0.6448 0.85258 0.0
H116 H 0.52786 0.38975 0.88082 0.0
H117 H 0.53756 0.34703 0.8745 0.0
H118 H 0.52763 0.35439 0.81869 0.0
H119 H 0.51968 0.39778 0.82502 0.0
P120 P 0.60441 0.00725 0.20805 0.0
H121 H 0.58475 0.95914 0.17898 0.0
H122 H 0.52247 0.90893 0.1679 0.0
H123 H 0.46235 0.93536 0.20142 0.0
H124 H 0.52471 0.98592 0.21218 0.0
H125 H 0.68149 0.04597 0.19264 0.0
H126 H 0.72247 0.10139 0.18095 0.0
H127 H 0.63001 0.11077 0.18788 0.0
H128 H 0.58885 0.05477 0.1998 0.0
H129 H 0.5555 0.95939 0.23442 0.0
H130 H 0.63489 0.06668 0.23194 0.0
O131 O 0.63041 0.99279 0.20853 0.0
H132 H 0.54502 0.96524 0.26559 0.0
H133 H 0.62407 0.0727 0.26304 0.0
C134 C 0.5593 0.97572 0.19674 0.0
C135 C 0.55818 0.95456 0.18362 0.0
C136 C 0.52259 0.92591 0.17728 0.0
C137 C 0.48763 0.91798 0.18405 0.0
C138 C 0.4889 0.94063 0.1962 0.0
C139 C 0.52451 0.96952 0.20233 0.0
C140 C 0.63209 0.04622 0.19709 0.0
C141 C 0.66967 0.0596 0.19142 0.0
C142 C 0.69312 0.09137 0.18464 0.0
C143 C 0.67957 0.11059 0.18346 0.0
C144 C 0.64141 0.09672 0.18874 0.0
C145 C 0.61778 0.06468 0.19542 0.0
C146 C 0.59522 0.01255 0.23071 0.0
C147 C 0.5701 0.98423 0.2405 0.0
C148 C 0.56401 0.98761 0.25831 0.0
C149 C 0.58344 0.01945 0.26677 0.0
C150 C 0.60871 0.04782 0.25691 0.0
C151 C 0.61468 0.04439 0.23905 0.0
P152 P 0.6432 0.56193 0.56557 0.0
H153 H 0.66792 0.54412 0.53429 0.0
H154 H 0.64538 0.49048 0.52006 0.0
H155 H 0.55149 0.4393 0.55701 0.0
H156 H 0.57407 0.4932 0.57109 0.0
H157 H 0.67775 0.63235 0.56564 0.0
H158 H 0.65644 0.66346 0.55424 0.0
H159 H 0.5498 0.57092 0.53517 0.0
H160 H 0.57137 0.53976 0.54687 0.0
H161 H 0.68177 0.55586 0.59434 0.0
H162 H 0.58173 0.55408 0.58758 0.0
O163 O 0.6913 0.58578 0.56338 0.0
H164 H 0.66948 0.54873 0.6259 0.0
H165 H 0.5695 0.54742 0.61923 0.0
C166 C 0.62318 0.52253 0.55397 0.0
C167 C 0.64233 0.52137 0.53925 0.0
C168 C 0.62951 0.4907 0.53118 0.0
C169 C 0.59702 0.46063 0.53759 0.0
C170 C 0.57659 0.46202 0.55176 0.0
C171 C 0.5896 0.49279 0.55989 0.0
C172 C 0.62656 0.58388 0.55672 0.0
C173 C 0.64993 0.61874 0.55887 0.0
C174 C 0.63774 0.63651 0.55229 0.0
C175 C 0.60167 0.6197 0.54355 0.0
C176 C 0.57777 0.58457 0.54181 0.0
C177 C 0.59015 0.56677 0.54837 0.0
C178 C 0.63317 0.55622 0.58872 0.0
C179 C 0.65732 0.5542 0.59969 0.0
C180 C 0.65034 0.55025 0.61774 0.0
C181 C 0.61878 0.54791 0.62512 0.0
C182 C 0.594 0.54907 0.61396 0.0
C183 C 0.60111 0.55312 0.59588 0.0
P184 P 0.10869 0.56232 0.88036 0.0
H185 H 0.14578 0.56816 0.84665 0.0
H186 H 0.19079 0.55588 0.83778 0.0
H187 H 0.16604 0.50333 0.88557 0.0
H188 H 0.12058 0.51479 0.894 0.0
H189 H 0.0862 0.60484 0.87345 0.0
H190 H 1.02575 0.59429 0.8652 0.0
H191 H 0.97094 0.48856 0.85942 0.0
H192 H 1.03265 0.49955 0.86789 0.0
H193 H 0.15858 0.60224 0.91082 0.0
H194 H 0.04543 0.50856 0.90145 0.0
O195 O 0.14321 0.60309 0.87804 0.0
H196 H 0.15084 0.59482 0.94243 0.0
H197 H 1.0378 0.50042 0.93316 0.0
C198 C 0.12952 0.54248 0.871 0.0
C199 C 0.14896 0.55293 0.8549 0.0
C200 C 0.17532 0.54637 0.85 0.0
C201 C 0.18295 0.52916 0.8611 0.0
C202 C 0.1611 0.51654 0.87658 0.0
C203 C 0.13479 0.52312 0.88145 0.0
C204 C 0.06456 0.55312 0.87093 0.0
C205 C 0.06165 0.57936 0.86998 0.0
C206 C 1.02672 0.57326 0.86524 0.0
C207 C 0.99317 0.54056 0.86145 0.0
C208 C 0.99606 0.51409 0.86227 0.0
C209 C 1.03145 0.52034 0.86695 0.0
C210 C 0.10219 0.55637 0.90376 0.0
C211 C 0.13194 0.58007 0.91556 0.0
C212 C 0.12765 0.57559 0.93368 0.0
C213 C 0.09364 0.54703 0.94042 0.0
C214 C 0.06409 0.523 0.92849 0.0
C215 C 0.0684 0.5276 0.91032 0.0
P216 P 0.0769 0.48921 0.43315 0.0
H217 H 0.12934 0.52365 0.4635 0.0
H218 H 0.1706 0.58248 0.47374 0.0
H219 H 0.11437 0.60314 0.43629 0.0
H220 H 0.07273 0.54416 0.4263 0.0
H221 H 0.05047 0.42343 0.44315 0.0
H222 H 0.99016 0.37634 0.45515 0.0
H223 H 0.94611 0.43403 0.45798 0.0
H224 H 1.00713 0.48143 0.44566 0.0
H225 H 0.12687 0.53445 0.40615 0.0
H226 H 1.00859 0.44576 0.40935 0.0
O227 O 0.10951 0.48167 0.43394 0.0
H228 H 0.1177 0.53582 0.37466 0.0
H229 H 0.99919 0.44709 0.37784 0.0
C230 C 0.09876 0.52976 0.44383 0.0
C231 C 0.12519 0.54066 0.45782 0.0
C232 C 0.1487 0.57428 0.46369 0.0
C233 C 0.14617 0.59748 0.45557 0.0
C234 C 0.11738 0.58588 0.44256 0.0
C235 C 0.09354 0.55217 0.43686 0.0
C236 C 1.03356 0.45615 0.44382 0.0
C237 C 1.0282 0.42628 0.44662 0.0
C238 C 0.99362 0.3993 0.45355 0.0
C239 C 0.96336 0.40145 0.4577 0.0
C240 C 0.96882 0.43154 0.45489 0.0
C241 C 1.00372 0.4587 0.448 0.0
C242 C 0.06834 0.49031 0.41016 0.0
C243 C 0.09877 0.5155 0.40011 0.0
C244 C 0.09344 0.51635 0.38213 0.0
C245 C 0.05764 0.49168 0.37379 0.0
C246 C 1.02714 0.46637 0.3839 0.0
C247 C 1.03245 0.46569 0.40195 0.0
P248 P 0.63079 0.0471 0.76016 0.0
H249 H 0.62724 0.06474 0.79681 0.0
H250 H 0.60624 0.09643 0.81053 0.0
H251 H 0.56319 0.09806 0.76 0.0
H252 H 0.58449 0.06694 0.7464 0.0
H253 H 0.67653 0.02439 0.76843 0.0
H254 H 0.66034 0.97375 0.78106 0.0
H255 H 0.54113 0.93711 0.78618 0.0
H256 H 0.55776 0.98846 0.77366 0.0
H257 H 0.66957 0.08776 0.72987 0.0
H258 H 0.56587 0.98913 0.73945 0.0
O259 O 0.67852 0.07666 0.76265 0.0
H260 H 0.65251 0.07911 0.69861 0.0
H261 H 0.54828 0.98042 0.70814 0.0
C262 C 0.60749 0.06347 0.77061 0.0
C263 C 0.61246 0.07128 0.78879 0.0
C264 C 0.60038 0.08931 0.79661 0.0
C265 C 0.58344 0.10002 0.78629 0.0
C266 C 0.57668 0.09057 0.76823 0.0
C267 C 0.58869 0.07255 0.76046 0.0
C268 C 0.61844 0.01032 0.77034 0.0
C269 C 0.64701 0.00573 0.77249 0.0
C270 C 0.63775 0.97681 0.77975 0.0
C271 C 0.59955 0.95164 0.78473 0.0
C272 C 0.5708 0.95615 0.78245 0.0
C273 C 0.58027 0.98542 0.77537 0.0
C274 C 0.61945 0.03883 0.73693 0.0
C275 C 0.64336 0.06405 0.72521 0.0
C276 C 0.63334 0.0592 0.70736 0.0
C277 C 0.59898 0.02909 0.7009 0.0
C278 C 0.57518 0.00372 0.71267 0.0
C279 C 0.58522 0.00866 0.73059 0.0
P280 P 0.45475 0.36179 0.099 0.0
H281 H 0.45545 0.317 0.12206 0.0
H282 H 0.5053 0.32661 0.1422 0.0
H283 H 0.5861 0.4263 0.12349 0.0
H284 H 0.53664 0.41623 0.1033 0.0
H285 H 0.40742 0.34961 0.12981 0.0
H286 H 0.40264 0.38681 0.14958 0.0
H287 H 0.48284 0.46951 0.11699 0.0
H288 H 0.48869 0.43258 0.09791 0.0
H289 H 0.51518 0.37204 0.07508 0.0
H290 H 0.42314 0.38229 0.07419 0.0
O291 O 0.41455 0.32237 0.09817 0.0
H292 H 0.53617 0.39607 0.04614 0.0
H293 H 0.44406 0.4065 0.04532 0.0
C294 C 0.4928 0.36557 0.11084 0.0
C295 C 0.48428 0.34052 0.12196 0.0
C296 C 0.5126 0.3462 0.13361 0.0
C297 C 0.54968 0.37716 0.13439 0.0
C298 C 0.55814 0.40191 0.12296 0.0
C299 C 0.5299 0.39619 0.11137 0.0
C300 C 0.44709 0.38805 0.112 0.0
C301 C 0.42346 0.37566 0.12682 0.0
C302 C 0.42096 0.39701 0.13815 0.0
C303 C 0.44229 0.43118 0.13487 0.0
C304 C 0.46639 0.44348 0.12009 0.0
C305 C 0.46909 0.42218 0.1089 0.0
C306 C 0.46827 0.37629 0.07698 0.0
C307 C 0.49956 0.37957 0.0687 0.0
C308 C 0.5116 0.39337 0.05217 0.0
C309 C 0.49207 0.40357 0.04354 0.0
C310 C 0.45963 0.3988 0.05158 0.0
C311 C 0.44774 0.3851 0.06811 0.0
C312 C 0.29663 0.5562 0.17128 0.0
C313 C 0.28525 0.55105 0.15346 0.0
C314 C 0.33069 0.56082 0.17607 0.0
C315 C 0.37126 0.52948 0.18 0.0
H316 H 0.4549 0.55722 0.14764 0.0
C317 C 0.40102 0.44215 0.15215 0.0
C318 C 0.43785 0.45363 0.14612 0.0
C319 C 0.39542 0.46424 0.16042 0.0
C320 C 0.43254 0.54995 0.15722 0.0
H321 H 0.30261 0.55033 0.12663 0.0
H322 H 0.36135 0.55786 0.13484 0.0
H323 H 0.42422 0.58488 0.1481 0.0
H324 H 0.49843 0.49682 0.14552 0.0
H325 H 0.48831 0.5357 0.15961 0.0
H326 H 0.37818 0.49333 0.18842 0.0
C327 C 0.34452 0.55876 0.14523 0.0
C328 C 0.41469 0.56562 0.15735 0.0
C329 C 0.31058 0.55424 0.14046 0.0
C330 C 0.46948 0.48734 0.14963 0.0
C331 C 0.4638 0.50957 0.15781 0.0
C332 C 0.38928 0.514 0.17996 0.0
C333 C 0.35383 0.56021 0.1631 0.0
C334 C 0.38191 0.55374 0.16775 0.0
C335 C 0.42646 0.49841 0.16279 0.0
C336 C 0.41804 0.52235 0.16761 0.0
H337 H 0.27804 0.55468 0.18157 0.0
H338 H 0.33747 0.56257 0.18993 0.0
H339 H 0.34629 0.51974 0.18831 0.0
H340 H 0.37592 0.41651 0.14952 0.0
H341 H 0.36611 0.45487 0.16377 0.0
C342 C 0.67886 0.12278 0.49573 0.0
C343 C 0.64413 0.11281 0.48767 0.0
C344 C 0.71268 0.15552 0.49461 0.0
C345 C 0.74965 0.2414 0.48322 0.0
H346 H 0.84496 0.25188 0.4745 0.0
C347 C 0.89029 0.36228 0.45755 0.0
C348 C 0.92595 0.37173 0.46421 0.0
C349 C 0.85539 0.33226 0.46223 0.0
C350 C 0.81873 0.2495 0.47718 0.0
H351 H 0.6176 0.12982 0.47242 0.0
H352 H 0.67661 0.1866 0.47019 0.0
H353 H 0.78531 0.19666 0.47929 0.0
H354 H 0.95261 0.35808 0.48192 0.0
H355 H 0.89192 0.30584 0.49002 0.0
H356 H 0.78326 0.29436 0.48068 0.0
C357 C 0.67767 0.16931 0.47762 0.0
C358 C 0.78445 0.21778 0.47996 0.0
C359 C 0.6438 0.1366 0.47882 0.0
C360 C 0.92573 0.35121 0.47626 0.0
C361 C 0.89094 0.32125 0.4809 0.0
C362 C 0.784 0.27319 0.48035 0.0
C363 C 0.7127 0.17909 0.4853 0.0
C364 C 0.7494 0.21324 0.48297 0.0
C365 C 0.85542 0.31104 0.47365 0.0
C366 C 0.81894 0.27759 0.47727 0.0
H367 H 0.68013 0.1052 0.50277 0.0
H368 H 0.73892 0.1623 0.50097 0.0
H369 H 0.72332 0.23894 0.48573 0.0
H370 H 0.88943 0.37734 0.44813 0.0
H371 H 0.82855 0.32502 0.45632 0.0
C372 C 0.56821 0.69773 0.80779 0.0
C373 C 0.59658 0.70441 0.81988 0.0
C374 C 0.56098 0.72102 0.8057 0.0
C375 C 0.57974 0.79851 0.8263 0.0
H376 H 0.56704 0.81393 0.77832 0.0
C377 C 0.61402 0.92183 0.80447 0.0
C378 C 0.58996 0.92042 0.79165 0.0
C379 C 0.60778 0.89264 0.80958 0.0
C380 C 0.56985 0.80956 0.79182 0.0
H381 H 0.63943 0.74055 0.83936 0.0
H382 H 0.62753 0.78149 0.83549 0.0
H383 H 0.56966 0.76809 0.78397 0.0
H384 H 0.53968 0.88734 0.77459 0.0
H385 H 0.52882 0.83613 0.7835 0.0
H386 H 0.58159 0.84104 0.83397 0.0
C387 C 0.6101 0.75797 0.82789 0.0
C388 C 0.57132 0.78322 0.79509 0.0
C389 C 0.61707 0.73456 0.83008 0.0
C390 C 0.55856 0.88911 0.78456 0.0
C391 C 0.55254 0.85989 0.78955 0.0
C392 C 0.57858 0.82502 0.823 0.0
C393 C 0.58223 0.75166 0.81555 0.0
C394 C 0.57697 0.7777 0.81233 0.0
C395 C 0.57754 0.86143 0.80187 0.0
C396 C 0.57427 0.83115 0.80569 0.0
H397 H 0.55159 0.67447 0.79993 0.0
H398 H 0.53884 0.71506 0.79629 0.0
H399 H 0.58332 0.79459 0.83978 0.0
H400 H 0.63825 0.94564 0.81025 0.0
H401 H 0.62772 0.89467 0.819 0.0
C402 C 0.84009 0.49649 0.21849 0.0
C403 C 0.85054 0.47587 0.21287 0.0
C404 C 0.80115 0.48381 0.21882 0.0
C405 C 0.70007 0.40725 0.20779 0.0
H406 H 0.70051 0.46897 0.17882 0.0
C407 C 0.61833 0.40334 0.143 0.0
C408 C 0.5791 0.38464 0.1476 0.0
C409 C 0.64671 0.41359 0.15573 0.0
C410 C 0.6998 0.45157 0.18704 0.0
H411 H 0.82812 0.42463 0.2062 0.0
H412 H 0.76057 0.403 0.20572 0.0
H413 H 0.75799 0.48836 0.19577 0.0
H414 H 0.53871 0.36098 0.16911 0.0
H415 H 0.58876 0.37837 0.1914 0.0
H416 H 0.64225 0.36992 0.19777 0.0
C417 C 0.78217 0.4289 0.20996 0.0
C418 C 0.73259 0.46275 0.19701 0.0
C419 C 0.82108 0.44145 0.20994 0.0
C420 C 0.5687 0.37515 0.16513 0.0
C421 C 0.59724 0.38522 0.1779 0.0
C422 C 0.66705 0.39604 0.19776 0.0
C423 C 0.77202 0.45049 0.2132 0.0
C424 C 0.73382 0.44041 0.20689 0.0
C425 C 0.63653 0.40518 0.17334 0.0
C426 C 0.66747 0.41784 0.18669 0.0
H427 H 0.86186 0.52308 0.22102 0.0
H428 H 0.79416 0.50086 0.22193 0.0
H429 H 0.6999 0.38954 0.21545 0.0
H430 H 0.6272 0.41043 0.12955 0.0
H431 H 0.6768 0.4283 0.1518 0.0
C432 C 0.40279 0.89903 0.47592 0.0
C433 C 0.4397 0.90758 0.47941 0.0
C434 C 0.37019 0.86552 0.47448 0.0
C435 C 0.34101 0.78236 0.46245 0.0
H436 H 0.24612 0.7502 0.4874 0.0
C437 C 0.19551 0.65495 0.44512 0.0
C438 C 0.17626 0.63387 0.45922 0.0
C439 C 0.22676 0.68854 0.44825 0.0
C440 C 0.27248 0.75887 0.48041 0.0
H441 H 0.47132 0.88763 0.48413 0.0
H442 H 0.41439 0.82905 0.48115 0.0
H443 H 0.30322 0.80873 0.49183 0.0
H444 H 0.17382 0.63166 0.48766 0.0
H445 H 0.22817 0.69092 0.49316 0.0
H446 H 0.31018 0.73279 0.45076 0.0
C447 C 0.41078 0.84837 0.47968 0.0
C448 C 0.30499 0.79231 0.48286 0.0
C449 C 0.4433 0.88189 0.48143 0.0
C450 C 0.18816 0.64737 0.47656 0.0
C451 C 0.21909 0.6812 0.4797 0.0
C452 C 0.30835 0.74915 0.45976 0.0
C453 C 0.37391 0.83987 0.4762 0.0
C454 C 0.33957 0.80434 0.47391 0.0
C455 C 0.23913 0.70192 0.46555 0.0
C456 C 0.27375 0.73709 0.46869 0.0
H457 H 0.39902 0.91823 0.47439 0.0
H458 H 0.34214 0.85963 0.47167 0.0
H459 H 0.36721 0.79104 0.45531 0.0
H460 H 0.18733 0.64518 0.43161 0.0
H461 H 0.24153 0.70404 0.43711 0.0
C462 C 0.56249 0.32501 0.82758 0.0
C463 C 0.53986 0.32171 0.84203 0.0
C464 C 0.56761 0.30062 0.82332 0.0
C465 C 0.52446 0.21203 0.82964 0.0
H466 H 0.62254 0.23839 0.81057 0.0
C467 C 0.55933 0.119 0.81049 0.0
C468 C 0.57629 0.12358 0.79387 0.0
C469 C 0.55451 0.1424 0.81777 0.0
C470 C 0.59494 0.23066 0.81583 0.0
H471 H 0.5052 0.29014 0.86347 0.0
H472 H 0.51519 0.24799 0.85634 0.0
H473 H 0.6159 0.28112 0.82124 0.0
H474 H 0.60181 0.15638 0.77196 0.0
H475 H 0.59331 0.19694 0.7846 0.0
H476 H 0.50375 0.16142 0.82421 0.0
C477 C 0.52839 0.26924 0.84811 0.0
C478 C 0.59106 0.25512 0.82189 0.0
C479 C 0.52306 0.29363 0.85233 0.0
C480 C 0.58817 0.15189 0.78468 0.0
C481 C 0.58372 0.17533 0.792 0.0
C482 C 0.52848 0.18749 0.8237 0.0
C483 C 0.5506 0.27238 0.83349 0.0
C484 C 0.55554 0.24617 0.82854 0.0
C485 C 0.56713 0.17099 0.80866 0.0
C486 C 0.56354 0.19662 0.8164 0.0
H487 H 0.57639 0.34655 0.81951 0.0
H488 H 0.58444 0.30369 0.81182 0.0
H489 H 0.49658 0.20421 0.83453 0.0
H490 H 0.54981 0.09736 0.81783 0.0
H491 H 0.5417 0.13851 0.83066 0.0
C492 C 0.55083 0.82009 0.49387 0.0
C493 C 0.5587 0.84172 0.50844 0.0
C494 C 0.54697 0.79073 0.49603 0.0
C495 C 0.53496 0.73382 0.5299 0.0
H496 H 0.58982 0.71656 0.49615 0.0
C497 C 0.55164 0.62934 0.53896 0.0
C498 C 0.58945 0.63914 0.53646 0.0
C499 C 0.54153 0.64946 0.53355 0.0
C500 C 0.57433 0.721 0.50569 0.0
H501 H 0.56792 0.84914 0.53676 0.0
H502 H 0.56169 0.79831 0.54053 0.0
H503 H 0.58334 0.76043 0.49112 0.0
H504 H 0.64558 0.67677 0.52549 0.0
H505 H 0.62832 0.71201 0.51641 0.0
H506 H 0.52784 0.69556 0.54494 0.0
C507 C 0.55771 0.80357 0.52745 0.0
C508 C 0.57018 0.74592 0.5027 0.0
C509 C 0.56138 0.83281 0.52529 0.0
C510 C 0.61638 0.66876 0.52784 0.0
C511 C 0.6063 0.68876 0.52242 0.0
C512 C 0.53923 0.70895 0.53292 0.0
C513 C 0.55108 0.78241 0.51281 0.0
C514 C 0.55124 0.75319 0.51497 0.0
C515 C 0.56894 0.67967 0.52543 0.0
C516 C 0.55982 0.70282 0.52107 0.0
H517 H 0.54801 0.82602 0.48075 0.0
H518 H 0.54119 0.77474 0.48451 0.0
H519 H 0.51964 0.73838 0.53948 0.0
H520 H 0.53028 0.6067 0.54561 0.0
H521 H 0.51239 0.64156 0.53591 0.0
C522 C 0.67771 0.49525 0.85124 0.0
C523 C 0.67975 0.52081 0.84303 0.0
C524 C 0.71054 0.49589 0.85259 0.0
C525 C 0.81901 0.55412 0.85035 0.0
H526 H 0.80974 0.47236 0.84712 0.0
C527 C 0.95502 0.55737 0.8474 0.0
C528 C 0.95549 0.5347 0.8574 0.0
C529 C 0.92082 0.55419 0.84504 0.0
C530 C 0.81288 0.49544 0.84823 0.0
H531 H 0.71837 0.56687 0.82951 0.0
H532 H 0.77508 0.56771 0.83155 0.0
H533 H 0.75185 0.46985 0.84417 0.0
H534 H 0.91926 0.4901 0.87229 0.0
H535 H 0.8595 0.48439 0.86806 0.0
H536 H 0.87995 0.57972 0.85435 0.0
C537 C 0.74831 0.5474 0.83732 0.0
C538 C 0.77955 0.49402 0.84655 0.0
C539 C 0.71554 0.54681 0.83602 0.0
C540 C 0.92015 0.50791 0.86438 0.0
C541 C 0.88578 0.50468 0.86198 0.0
C542 C 0.85227 0.55554 0.85195 0.0
C543 C 0.74651 0.5221 0.84574 0.0
C544 C 0.78205 0.52337 0.84754 0.0
C545 C 0.88575 0.52816 0.85254 0.0
C546 C 0.84983 0.52626 0.85087 0.0
H547 H 0.65076 0.47482 0.85686 0.0
H548 H 0.70784 0.47612 0.85936 0.0
H549 H 0.82233 0.57727 0.85161 0.0
H550 H 0.98133 0.57791 0.84145 0.0
H551 H 0.92195 0.57232 0.83732 0.0
C552 C 0.17105 0.64752 0.16271 0.0
C553 C 0.1706 0.61943 0.15999 0.0
C554 C 0.20613 0.67971 0.1635 0.0
C555 C 0.30748 0.72556 0.17565 0.0
H556 H 0.32297 0.79716 0.14951 0.0
C557 C 0.42636 0.86497 0.19363 0.0
C558 C 0.45044 0.88471 0.17988 0.0
C559 C 0.39289 0.83249 0.19007 0.0
C560 C 0.31907 0.77735 0.1568 0.0
H561 H 0.20663 0.60307 0.1559 0.0
H562 H 0.26815 0.65951 0.15781 0.0
H563 H 0.26315 0.74004 0.14499 0.0
H564 H 0.458 0.88624 0.15159 0.0
H565 H 0.39853 0.82945 0.14529 0.0
H566 H 0.36281 0.76298 0.18786 0.0
C567 C 0.2412 0.65646 0.15914 0.0
C568 C 0.28487 0.74479 0.15429 0.0
C569 C 0.20603 0.62423 0.158 0.0
C570 C 0.4399 0.87154 0.16243 0.0
C571 C 0.40594 0.83918 0.15883 0.0
C572 C 0.34132 0.75819 0.1784 0.0
C573 C 0.24155 0.68449 0.1619 0.0
C574 C 0.27868 0.71863 0.16376 0.0
C575 C 0.38245 0.81921 0.17266 0.0
C576 C 0.34732 0.78443 0.16909 0.0
H577 H 0.14424 0.64466 0.16417 0.0
H578 H 0.2056 0.70087 0.16578 0.0
H579 H 0.30332 0.70589 0.1832 0.0
H580 H 0.43402 0.87431 0.20722 0.0
H581 H 0.37511 0.8177 0.20095 0.0
C582 C 0.55301 0.20437 0.48937 0.0
C583 C 0.51528 0.17615 0.48461 0.0
C584 C 0.56048 0.23508 0.49381 0.0
C585 C 0.51376 0.27211 0.51071 0.0
H586 H 0.60466 0.35387 0.49281 0.0
C587 C 0.54697 0.40097 0.52674 0.0
C588 C 0.586 0.42806 0.53014 0.0
C589 C 0.53697 0.3702 0.52009 0.0
C590 C 0.57937 0.33134 0.4981 0.0
H591 H 0.45601 0.15856 0.48046 0.0
H592 H 0.46903 0.21205 0.48859 0.0
H593 H 0.59009 0.30032 0.48337 0.0
H594 H 0.64503 0.44387 0.52961 0.0
H595 H 0.62772 0.39034 0.51833 0.0
H596 H 0.5035 0.30306 0.5258 0.0
C597 C 0.49271 0.21021 0.48896 0.0
C598 C 0.571 0.30065 0.49264 0.0
C599 C 0.48528 0.17955 0.48435 0.0
C600 C 0.61476 0.42368 0.5268 0.0
C601 C 0.60479 0.39295 0.52029 0.0
C602 C 0.5223 0.30285 0.5163 0.0
C603 C 0.53038 0.23829 0.49376 0.0
C604 C 0.53829 0.27073 0.49899 0.0
C605 C 0.56579 0.36577 0.51683 0.0
C606 C 0.55543 0.33289 0.51019 0.0
H607 H 0.57672 0.20262 0.49005 0.0
H608 H 0.58972 0.25617 0.4977 0.0
H609 H 0.48854 0.24947 0.51597 0.0
H610 H 0.5242 0.40368 0.52906 0.0
H611 H 0.50669 0.34997 0.51737 0.0
C612 C 0.44211 0.49307 0.85146 0.0
C613 C 0.47768 0.51971 0.84458 0.0
C614 C 0.41023 0.49387 0.85241 0.0
C615 C 0.3838 0.55206 0.85261 0.0
H616 H 0.28008 0.47099 0.84284 0.0
C617 C 0.25054 0.55345 0.85021 0.0
C618 C 0.21541 0.52663 0.85735 0.0
C619 C 0.28198 0.55227 0.84788 0.0
C620 C 0.30873 0.49383 0.84582 0.0
H621 H 0.50721 0.56818 0.83326 0.0
H622 H 0.45163 0.56944 0.83487 0.0
H623 H 0.3355 0.46979 0.84037 0.0
H624 H 0.1861 0.47702 0.86714 0.0
H625 H 0.24093 0.47525 0.86342 0.0
H626 H 0.35708 0.57606 0.85823 0.0
C627 C 0.44848 0.54801 0.83969 0.0
C628 C 0.34068 0.49315 0.84439 0.0
C629 C 0.48035 0.54715 0.83867 0.0
C630 C 0.21263 0.49834 0.86177 0.0
C631 C 0.24411 0.49718 0.85945 0.0
C632 C 0.35185 0.55272 0.85409 0.0
C633 C 0.41286 0.52135 0.84658 0.0
C634 C 0.37874 0.52223 0.84781 0.0
C635 C 0.27948 0.52427 0.85262 0.0
C636 C 0.31373 0.52361 0.85076 0.0
H637 H 0.43882 0.47155 0.85618 0.0
H638 H 0.3836 0.47305 0.85803 0.0
H639 H 0.41247 0.57487 0.85563 0.0
H640 H 0.25427 0.5759 0.84684 0.0
H641 H 0.30836 0.57348 0.84234 0.0
C642 C 0.9276 0.41078 0.16728 0.0
C643 C 0.95691 0.41925 0.15518 0.0
C644 C 0.89497 0.3775 0.16864 0.0
C645 C 0.86352 0.29152 0.15964 0.0
H646 H 0.76064 0.26632 0.16858 0.0
C647 C 0.73178 0.15348 0.16368 0.0
C648 C 0.70618 0.14552 0.17765 0.0
C649 C 0.75981 0.18672 0.15946 0.0
C650 C 0.78924 0.27298 0.16621 0.0
H651 H 0.97412 0.39937 0.1346 0.0
H652 H 0.91714 0.34155 0.13684 0.0
H653 H 0.81435 0.32471 0.1639 0.0
H654 H 0.68931 0.16633 0.19778 0.0
H655 H 0.73825 0.22436 0.19043 0.0
H656 H 0.83873 0.24005 0.16216 0.0
C657 C 0.91966 0.36054 0.1455 0.0
C658 C 0.82005 0.30646 0.16353 0.0
C659 C 0.95226 0.39378 0.14414 0.0
C660 C 0.70828 0.17155 0.18683 0.0
C661 C 0.7364 0.20485 0.18262 0.0
C662 C 0.8328 0.25813 0.16231 0.0
C663 C 0.89087 0.35188 0.15795 0.0
C664 C 0.85762 0.31616 0.16026 0.0
C665 C 0.76304 0.21289 0.16911 0.0
C666 C 0.79527 0.2484 0.16568 0.0
H667 H 0.93022 0.42972 0.17603 0.0
H668 H 0.87359 0.37175 0.17849 0.0
H669 H 0.89217 0.29812 0.15752 0.0
H670 H 0.7305 0.134 0.15614 0.0
H671 H 0.77927 0.19192 0.14873 0.0
C672 C 0.071 0.56513 0.10078 0.0
C673 C 0.05817 0.53662 0.10997 0.0
C674 C 0.07553 0.56525 0.08249 0.0
C675 C 0.04239 0.50911 0.04279 0.0
H676 H 0.13241 0.58654 0.02138 0.0
C677 C 0.05319 0.52962 0.9678 0.0
C678 C 0.08905 0.54272 0.95981 0.0
C679 C 0.04949 0.52724 0.9861 0.0
C680 C 0.10723 0.56462 0.02716 0.0
H681 H 1.04037 0.486 0.10734 0.0
H682 H 0.04807 0.48612 0.07538 0.0
H683 H 0.12651 0.58592 0.05339 0.0
H684 H 0.14872 0.56221 0.96489 0.0
H685 H 0.14232 0.55843 0.99679 0.0
H686 H 1.02311 0.48784 0.01653 0.0
C687 C 0.05438 0.5083 0.08227 0.0
C688 C 0.10367 0.56441 0.04549 0.0
C689 C 0.05014 0.50829 0.10057 0.0
C690 C 0.12087 0.55268 0.97059 0.0
C691 C 0.11721 0.55046 0.98888 0.0
C692 C 0.04579 0.50943 0.02444 0.0
C693 C 0.06707 0.53677 0.07301 0.0
C694 C 0.07117 0.5367 0.05353 0.0
C695 C 0.08158 0.53802 0.99688 0.0
C696 C 0.07823 0.53722 0.0164 0.0
H697 H 0.07745 0.58733 0.10771 0.0
H698 H 0.08502 0.58746 0.07572 0.0
H699 H 1.01685 0.48749 0.04857 0.0
H700 H 1.02819 0.5221 0.95996 0.0
H701 H 1.02174 0.51786 0.99187 0.0
C702 C 0.52852 -0.00114 0.42649 0.0
C703 C 0.56357 0.0167 0.43612 0.0
C704 C 0.52879 0.00136 0.40816 0.0
C705 C 0.59481 0.0236 0.37068 0.0
H706 H 0.51819 0.02247 0.34415 0.0
C707 C 0.61181 0.04564 0.29675 0.0
C708 C 0.57906 0.02281 0.28602 0.0
C709 C 0.60844 0.0468 0.31503 0.0
C710 C 0.53964 0.02263 0.35141 0.0
H711 H 0.62603 0.05278 0.43454 0.0
H712 H 0.62654 0.05795 0.40289 0.0
H713 H 0.51475 0.02115 0.37636 0.0
H714 H 0.51675 0.98443 0.28602 0.0
H715 H 0.51093 0.98628 0.31805 0.0
H716 H 0.61976 0.02511 0.3459 0.0
C717 C 0.59889 0.04111 0.4092 0.0
C718 C 0.53764 0.02179 0.36983 0.0
C719 C 0.59862 0.03832 0.42737 0.0
C720 C 0.5426 0.00202 0.29396 0.0
C721 C 0.53919 0.0033 0.31227 0.0
C722 C 0.59693 0.02463 0.35238 0.0
C723 C 0.56413 0.02197 0.39927 0.0
C724 C 0.5654 0.02249 0.37969 0.0
C725 C 0.57223 0.02523 0.32302 0.0
C726 C 0.56955 0.02433 0.34252 0.0
H727 H 0.50109 0.98208 0.43299 0.0
H728 H 0.5015 0.98621 0.40092 0.0
H729 H 0.61607 0.02323 0.37777 0.0
H730 H 0.64036 0.06181 0.29109 0.0
H731 H 0.63435 0.06427 0.32296 0.0
C732 C 0.53417 0.48559 0.78059 0.0
C733 C 0.56581 0.50378 0.79242 0.0
C734 C 0.53945 0.49164 0.76264 0.0
C735 C 0.60767 0.5538 0.73064 0.0
H736 H 0.55239 0.47732 0.69742 0.0
C737 C 0.64321 0.56314 0.65645 0.0
C738 C 0.61194 0.54432 0.64439 0.0
C739 C 0.63706 0.55923 0.67456 0.0
C740 C 0.56766 0.49898 0.7065 0.0
H741 H 0.62773 0.54284 0.79491 0.0
H742 H 0.63718 0.55324 0.76344 0.0
H743 H 0.54302 0.46875 0.72891 0.0
H744 H 0.54961 0.50678 0.64192 0.0
H745 H 0.53878 0.50023 0.67358 0.0
H746 H 0.6326 0.58398 0.70815 0.0
C747 C 0.60816 0.53455 0.76804 0.0
C748 C 0.5623 0.49408 0.72457 0.0
C749 C 0.60282 0.52851 0.78604 0.0
C750 C 0.57428 0.5218 0.65087 0.0
C751 C 0.56814 0.51781 0.66899 0.0
C752 C 0.6131 0.5587 0.71254 0.0
C753 C 0.57656 0.51598 0.7561 0.0
C754 C 0.58223 0.52141 0.73687 0.0
C755 C 0.59949 0.53635 0.68104 0.0
C756 C 0.59318 0.53133 0.70027 0.0
H757 H 0.50526 0.46654 0.78519 0.0
H758 H 0.51438 0.4773 0.75388 0.0
H759 H 0.62305 0.57543 0.73973 0.0
H760 H 0.67252 0.58099 0.65189 0.0
H761 H 0.66186 0.57369 0.68347 0.0
C762 C 0.49665 0.99539 0.54613 0.0
C763 C 0.52769 0.00964 0.53438 0.0
C764 C 0.50289 0.99506 0.56411 0.0
C765 C 0.58077 0.03995 0.59785 0.0
H766 H 0.50832 0.96464 0.6263 0.0
C767 C 0.59258 0.05104 0.67336 0.0
C768 C 0.58782 0.0247 0.682 0.0
C769 C 0.58356 0.04764 0.65546 0.0
C770 C 0.52894 0.98578 0.6185 0.0
H771 H 0.58933 0.034 0.53206 0.0
H772 H 0.60015 0.03304 0.56331 0.0
H773 H 0.49623 0.96078 0.5946 0.0
H774 H 0.5692 0.97388 0.67866 0.0
H775 H 0.55353 0.96794 0.64726 0.0
H776 H 0.61379 0.06482 0.62157 0.0
C777 C 0.5711 0.02257 0.55876 0.0
C778 C 0.52182 0.98369 0.60039 0.0
C779 C 0.56486 0.02291 0.54083 0.0
C780 C 0.57294 0.99454 0.6724 0.0
C781 C 0.56393 0.99114 0.65443 0.0
C782 C 0.58782 0.04205 0.6159 0.0
C783 C 0.54031 0.00905 0.57065 0.0
C784 C 0.54769 0.01079 0.58986 0.0
C785 C 0.56958 0.01781 0.64572 0.0
C786 C 0.56195 0.01507 0.62646 0.0
H787 H 0.46769 0.98497 0.54146 0.0
H788 H 0.47863 0.98471 0.57295 0.0
H789 H 0.60105 0.06143 0.59018 0.0
H790 H 0.60316 0.07434 0.68047 0.0
H791 H 0.58745 0.06841 0.64924 0.0
C792 C 0.61946 0.54573 0.90331 0.0
C793 C 0.58883 0.53102 0.89098 0.0
C794 C 0.6122 0.5351 0.92062 0.0
C795 C 0.53368 0.49267 0.95287 0.0
H796 H 0.59451 0.46947 0.9746 0.0
C797 C 0.47908 0.41138 0.01291 0.0
C798 C 0.5058 0.4197 0.02638 0.0
C799 C 0.49177 0.42744 0.99701 0.0
C800 C 0.57761 0.4763 0.96883 0.0
H801 H 0.52679 0.49376 0.88694 0.0
H802 H 0.51417 0.47542 0.91699 0.0
H803 H 0.61286 0.49429 0.94579 0.0
H804 H 0.56684 0.45142 0.03373 0.0
H805 H 0.58906 0.47955 0.00589 0.0
H806 H 0.49825 0.47456 0.97572 0.0
C807 C 0.54368 0.49529 0.91344 0.0
C808 C 0.58814 0.49052 0.95235 0.0
C809 C 0.55095 0.50567 0.8962 0.0
C810 C 0.54558 0.44417 0.0235 0.0
C811 C 0.55831 0.46031 0.00758 0.0
C812 C 0.52326 0.47862 0.96933 0.0
C813 C 0.57416 0.50989 0.92585 0.0
C814 C 0.56576 0.49817 0.94406 0.0
C815 C 0.53149 0.45229 0.9942 0.0
C816 C 0.54459 0.46961 0.97734 0.0
H817 H 0.64895 0.56527 0.89956 0.0
H818 H 0.6362 0.54682 0.92995 0.0
H819 H 0.51633 0.49891 0.94694 0.0
H820 H 0.4483 0.39225 0.01461 0.0
H821 H 0.47041 0.42013 0.98683 0.0
C822 C 0.05231 0.47072 0.2125 0.0
C823 C 0.06806 0.50074 0.20427 0.0
C824 C 0.04763 0.4691 0.23073 0.0
C825 C 0.04486 0.51345 0.27057 0.0
H826 H 0.06956 0.46184 0.29453 0.0
C827 C 0.06809 0.5217 0.34621 0.0
C828 C 0.05294 0.4917 0.35446 0.0
C829 C 0.06642 0.5221 0.32787 0.0
C830 C 0.06206 0.476 0.28803 0.0
H831 H 0.09096 0.55259 0.20848 0.0
H832 H 0.08358 0.55007 0.24049 0.0
H833 H 0.07404 0.46435 0.26264 0.0
H834 H 1.0234 0.43851 0.34996 0.0
H835 H 1.02028 0.43917 0.31795 0.0
H836 H 1.03379 0.52565 0.29618 0.0
C837 C 0.07416 0.52756 0.23285 0.0
C838 C 0.06457 0.47743 0.26971 0.0
C839 C 0.07858 0.52909 0.21454 0.0
C840 C 1.0351 0.46197 0.34401 0.0
C841 C 1.03365 0.46241 0.32567 0.0
C842 C 0.04259 0.51219 0.28895 0.0
C843 C 0.05896 0.49759 0.24119 0.0
C844 C 0.05595 0.49611 0.26072 0.0
C845 C 0.04981 0.49255 0.31739 0.0
C846 C 0.05112 0.4934 0.29786 0.0
H847 H 0.04357 0.44839 0.20485 0.0
H848 H 1.03506 0.44543 0.23663 0.0
H849 H 1.03753 0.52773 0.26407 0.0
H850 H 0.08167 0.54495 0.35394 0.0
H851 H 0.0793 0.54573 0.32187 0.0
loop_
_geom_bond_atom_site_label_1
_geom_bond_atom_site_label_2
_geom_bond_distance
_geom_bond_site_symmetry_2
_ccdc_geom_bond_type
Ho0 C3 2.811 . S
Ho0 O20 2.322 . S
Ho0 O22 2.378 . S
Ho0 O23 2.524 . S
Ho0 O24 2.381 . S
Ho0 O25 2.669 . S
Ho0 O27 2.346 1_455 S
Ho0 O31 2.305 . S
Ho1 C12 2.811 1_455 S
Ho1 O21 2.346 . S
Ho1 O25 2.305 . S
Ho1 O26 2.322 1_455 S
Ho1 O28 2.378 1_455 S
Ho1 O29 2.524 1_455 S
Ho1 O30 2.381 . S
Ho1 O31 2.669 . S
C2 O20 1.259 . S
C2 O21 1.268 . S
C3 Ho0 2.811 . S
C3 C4 1.488 . S
C3 O22 1.215 . S
C3 O23 1.289 . S
C4 C3 1.488 . S
C4 C5 1.348 . S
C4 C9 1.413 . S
C5 C4 1.348 . S
C5 C6 1.442 . S
C5 H32 0.930 . S
C6 C5 1.442 . S
C6 C7 1.381 . S
C6 H33 0.931 . S
C7 C6 1.381 . S
C7 C8 1.321 . S
C8 C7 1.321 . S
C8 C9 1.403 . S
C8 H34 0.934 . S
C9 C4 1.413 . S
C9 C8 1.403 . S
C9 H35 0.930 . S
C10 O24 1.275 . S
C10 O25 1.256 . S
C11 O26 1.259 . S
C11 O27 1.268 . S
C12 Ho1 2.811 1_655 S
C12 C13 1.488 . S
C12 O28 1.215 . S
C12 O29 1.289 . S
C13 C12 1.488 . S
C13 C14 1.348 . S
C13 C18 1.413 . S
C14 C13 1.348 . S
C14 C15 1.442 . S
C14 H36 0.930 . S
C15 C14 1.442 . S
C15 C16 1.381 . S
C15 H37 0.931 . S
C16 C15 1.381 . S
C16 C17 1.321 . S
C17 C16 1.321 . S
C17 C18 1.403 . S
C17 H38 0.934 . S
C18 C13 1.413 . S
C18 C17 1.403 . S
C18 H39 0.930 . S
C19 O30 1.275 . S
C19 O31 1.256 . S
O20 Ho0 2.322 . S
O20 C2 1.259 . S
O21 Ho1 2.346 . S
O21 C2 1.268 . S
O22 Ho0 2.378 . S
O22 C3 1.215 . S
O23 Ho0 2.524 . S
O23 C3 1.289 . S
O24 Ho0 2.381 . S
O24 C10 1.275 . S
O25 Ho0 2.669 . S
O25 Ho1 2.305 . S
O25 C10 1.256 . S
O26 Ho1 2.322 1_655 S
O26 C11 1.259 . S
O27 Ho0 2.346 1_655 S
O27 C11 1.268 . S
O28 Ho1 2.378 1_655 S
O28 C12 1.215 . S
O29 Ho1 2.524 1_655 S
O29 C12 1.289 . S
O30 Ho1 2.381 . S
O30 C19 1.275 . S
O31 Ho0 2.305 . S
O31 Ho1 2.669 . S
O31 C19 1.256 . S
H32 C5 0.930 . S
H33 C6 0.931 . S
H34 C8 0.934 . S
H35 C9 0.930 . S
H36 C14 0.930 . S
H37 C15 0.931 . S
H38 C17 0.934 . S
H39 C18 0.930 . S
Ho40 C43 2.811 . S
Ho40 O60 2.322 . S
Ho40 O62 2.378 . S
Ho40 O63 2.524 . S
Ho40 O64 2.381 . S
Ho40 O65 2.669 1_565 S
Ho40 O67 2.346 1_565 S
Ho40 O71 2.305 1_565 S
Ho41 C52 2.811 . S
Ho41 O61 2.346 1_545 S
Ho41 O65 2.305 . S
Ho41 O66 2.322 . S
Ho41 O68 2.378 . S
Ho41 O69 2.524 . S
Ho41 O70 2.381 . S
Ho41 O71 2.669 . S
C42 O60 1.259 . S
C42 O61 1.268 . S
C43 Ho40 2.811 . S
C43 C44 1.488 . S
C43 O62 1.215 . S
C43 O63 1.289 . S
C44 C43 1.488 . S
C44 C45 1.348 . S
C44 C49 1.413 . S
C45 C44 1.348 . S
C45 C46 1.442 . S
C45 H72 0.930 . S
C46 C45 1.442 . S
C46 C47 1.381 . S
C46 H73 0.931 . S
C47 C46 1.381 . S
C47 C48 1.321 . S
C48 C47 1.321 . S
C48 C49 1.403 . S
C48 H74 0.934 . S
C49 C44 1.413 . S
C49 C48 1.403 . S
C49 H75 0.930 . S
C50 O64 1.275 1_545 S
C50 O65 1.256 . S
C51 O66 1.259 . S
C51 O67 1.268 . S
C52 Ho41 2.811 . S
C52 C53 1.488 . S
C52 O68 1.215 . S
C52 O69 1.289 . S
C53 C52 1.488 . S
C53 C54 1.348 . S
C53 C58 1.413 . S
C54 C53 1.348 . S
C54 C55 1.442 . S
C54 H76 0.930 . S
C55 C54 1.442 . S
C55 C56 1.381 . S
C55 H77 0.931 . S
C56 C55 1.381 . S
C56 C57 1.321 . S
C57 C56 1.321 . S
C57 C58 1.403 . S
C57 H78 0.934 . S
C58 C53 1.413 . S
C58 C57 1.403 . S
C58 H79 0.930 . S
C59 O70 1.275 . S
C59 O71 1.256 . S
O60 Ho40 2.322 . S
O60 C42 1.259 . S
O61 Ho41 2.346 1_565 S
O61 C42 1.268 . S
O62 Ho40 2.378 . S
O62 C43 1.215 . S
O63 Ho40 2.524 . S
O63 C43 1.289 . S
O64 Ho40 2.381 . S
O64 C50 1.275 1_565 S
O65 Ho40 2.669 1_545 S
O65 Ho41 2.305 . S
O65 C50 1.256 . S
O66 Ho41 2.322 . S
O66 C51 1.259 . S
O67 Ho40 2.346 1_545 S
O67 C51 1.268 . S
O68 Ho41 2.378 . S
O68 C52 1.215 . S
O69 Ho41 2.524 . S
O69 C52 1.289 . S
O70 Ho41 2.381 . S
O70 C59 1.275 . S
O71 Ho40 2.305 1_545 S
O71 Ho41 2.669 . S
O71 C59 1.256 . S
H72 C45 0.930 . S
H73 C46 0.931 . S
H74 C48 0.934 . S
H75 C49 0.930 . S
H76 C54 0.930 . S
H77 C55 0.931 . S
H78 C57 0.934 . S
H79 C58 0.930 . S
Ho80 C83 2.811 . S
Ho80 O100 2.322 . S
Ho80 O102 2.378 . S
Ho80 O103 2.524 . S
Ho80 O104 2.381 . S
Ho80 O105 2.669 . S
Ho80 O107 2.346 . S
Ho80 O111 2.305 . S
Ho81 C92 2.811 . S
Ho81 O101 2.346 . S
Ho81 O105 2.305 . S
Ho81 O106 2.322 . S
Ho81 O108 2.378 . S
Ho81 O109 2.524 . S
Ho81 O110 2.381 . S
Ho81 O111 2.669 . S
C82 O100 1.259 . S
C82 O101 1.268 . S
C83 Ho80 2.811 . S
C83 C84 1.488 . S
C83 O102 1.215 . S
C83 O103 1.289 . S
C84 C83 1.488 . S
C84 C85 1.348 . S
C84 C89 1.413 . S
C85 C84 1.348 . S
C85 C86 1.442 . S
C85 H112 0.930 . S
C86 C85 1.442 . S
C86 C87 1.381 . S
C86 H113 0.931 . S
C87 C86 1.381 . S
C87 C88 1.321 . S
C88 C87 1.321 . S
C88 C89 1.403 . S
C88 H114 0.934 . S
C89 C84 1.413 . S
C89 C88 1.403 . S
C89 H115 0.930 . S
C90 O104 1.275 . S
C90 O105 1.256 . S
C91 O106 1.259 . S
C91 O107 1.268 . S
C92 Ho81 2.811 . S
C92 C93 1.488 . S
C92 O108 1.215 . S
C92 O109 1.289 . S
C93 C92 1.488 . S
C93 C94 1.348 . S
C93 C98 1.413 . S
C94 C93 1.348 . S
C94 C95 1.442 . S
C94 H116 0.930 . S
C95 C94 1.442 . S
C95 C96 1.381 . S
C95 H117 0.931 . S
C96 C95 1.381 . S
C96 C97 1.321 . S
C97 C96 1.321 . S
C97 C98 1.403 . S
C97 H118 0.934 . S
C98 C93 1.413 . S
C98 C97 1.403 . S
C98 H119 0.930 . S
C99 O110 1.275 . S
C99 O111 1.256 . S
O100 Ho80 2.322 . S
O100 C82 1.259 . S
O101 Ho81 2.346 . S
O101 C82 1.268 . S
O102 Ho80 2.378 . S
O102 C83 1.215 . S
O103 Ho80 2.524 . S
O103 C83 1.289 . S
O104 Ho80 2.381 . S
O104 C90 1.275 . S
O105 Ho80 2.669 . S
O105 Ho81 2.305 . S
O105 C90 1.256 . S
O106 Ho81 2.322 . S
O106 C91 1.259 . S
O107 Ho80 2.346 . S
O107 C91 1.268 . S
O108 Ho81 2.378 . S
O108 C92 1.215 . S
O109 Ho81 2.524 . S
O109 C92 1.289 . S
O110 Ho81 2.381 . S
O110 C99 1.275 . S
O111 Ho80 2.305 . S
O111 Ho81 2.669 . S
O111 C99 1.256 . S
H112 C85 0.930 . S
H113 C86 0.931 . S
H114 C88 0.934 . S
H115 C89 0.930 . S
H116 C94 0.930 . S
H117 C95 0.931 . S
H118 C97 0.934 . S
H119 C98 0.930 . S
P120 O131 1.490 1_545 S
P120 C134 1.812 1_545 S
P120 C140 1.803 . S
P120 C146 1.819 . S
H121 C135 0.941 . S
H122 C136 0.939 . S
H123 C138 0.940 . S
H124 C139 0.940 . S
H125 C141 0.939 . S
H126 C142 0.942 . S
H127 C144 0.940 . S
H128 C145 0.939 . S
H129 C147 0.941 . S
H130 C151 0.939 . S
O131 P120 1.490 1_565 S
H132 C148 0.939 . S
H133 C150 0.940 . S
C134 P120 1.812 1_565 S
C134 C135 1.389 . S
C134 C139 1.391 . S
C135 H121 0.941 . S
C135 C134 1.389 . S
C135 C136 1.397 . S
C136 H122 0.939 . S
C136 C135 1.397 . S
C136 C137 1.378 . S
C137 C136 1.378 . S
C137 C138 1.378 . S
C138 H123 0.940 . S
C138 C137 1.378 . S
C138 C139 1.396 . S
C139 H124 0.940 . S
C139 C134 1.391 . S
C139 C138 1.396 . S
C140 P120 1.803 . S
C140 C141 1.378 . S
C140 C145 1.400 . S
C141 H125 0.939 . S
C141 C140 1.378 . S
C141 C142 1.361 . S
C142 H126 0.942 . S
C142 C141 1.361 . S
C142 C143 1.369 . S
C143 C142 1.369 . S
C143 C144 1.404 . S
C144 H127 0.940 . S
C144 C143 1.404 . S
C144 C145 1.389 . S
C145 H128 0.939 . S
C145 C140 1.400 . S
C145 C144 1.389 . S
C146 P120 1.819 . S
C146 C147 1.391 1_545 S
C146 C151 1.391 . S
C147 H129 0.941 . S
C147 C146 1.391 1_565 S
C147 C148 1.396 . S
C148 H132 0.939 . S
C148 C147 1.396 . S
C148 C149 1.397 1_565 S
C149 C148 1.397 1_545 S
C149 C150 1.385 . S
C150 H133 0.940 . S
C150 C149 1.385 . S
C150 C151 1.388 . S
C151 H130 0.939 . S
C151 C146 1.391 . S
C151 C150 1.388 . S
P152 O163 1.490 . S
P152 C166 1.812 . S
P152 C172 1.803 . S
P152 C178 1.819 . S
H153 C167 0.941 . S
H154 C168 0.939 . S
H155 C170 0.940 . S
H156 C171 0.940 . S
H157 C173 0.939 . S
H158 C174 0.942 . S
H159 C176 0.940 . S
H160 C177 0.939 . S
H161 C179 0.941 . S
H162 C183 0.939 . S
O163 P152 1.490 . S
H164 C180 0.939 . S
H165 C182 0.940 . S
C166 P152 1.812 . S
C166 C167 1.389 . S
C166 C171 1.391 . S
C167 H153 0.941 . S
C167 C166 1.389 . S
C167 C168 1.397 . S
C168 H154 0.939 . S
C168 C167 1.397 . S
C168 C169 1.378 . S
C169 C168 1.378 . S
C169 C170 1.378 . S
C170 H155 0.940 . S
C170 C169 1.378 . S
C170 C171 1.396 . S
C171 H156 0.940 . S
C171 C166 1.391 . S
C171 C170 1.396 . S
C172 P152 1.803 . S
C172 C173 1.378 . S
C172 C177 1.400 . S
C173 H157 0.939 . S
C173 C172 1.378 . S
C173 C174 1.361 . S
C174 H158 0.942 . S
C174 C173 1.361 . S
C174 C175 1.369 . S
C175 C174 1.369 . S
C175 C176 1.404 . S
C176 H159 0.940 . S
C176 C175 1.404 . S
C176 C177 1.389 . S
C177 H160 0.939 . S
C177 C172 1.400 . S
C177 C176 1.389 . S
C178 P152 1.819 . S
C178 C179 1.391 . S
C178 C183 1.391 . S
C179 H161 0.941 . S
C179 C178 1.391 . S
C179 C180 1.396 . S
C180 H164 0.939 . S
C180 C179 1.396 . S
C180 C181 1.397 . S
C181 C180 1.397 . S
C181 C182 1.385 . S
C182 H165 0.940 . S
C182 C181 1.385 . S
C182 C183 1.388 . S
C183 H162 0.939 . S
C183 C178 1.391 . S
C183 C182 1.388 . S
P184 O195 1.490 . S
P184 C198 1.812 . S
P184 C204 1.803 . S
P184 C210 1.819 . S
H185 C199 0.941 . S
H186 C200 0.939 . S
H187 C202 0.940 . S
H188 C203 0.940 . S
H189 C205 0.939 . S
H190 C206 0.942 . S
H191 C208 0.940 . S
H192 C209 0.939 . S
H193 C211 0.941 . S
H194 C215 0.939 . S
O195 P184 1.490 . S
H196 C212 0.939 . S
H197 C214 0.940 1_655 S
C198 P184 1.812 . S
C198 C199 1.389 . S
C198 C203 1.391 . S
C199 H185 0.941 . S
C199 C198 1.389 . S
C199 C200 1.397 . S
C200 H186 0.939 . S
C200 C199 1.397 . S
C200 C201 1.378 . S
C201 C200 1.378 . S
C201 C202 1.378 . S
C202 H187 0.940 . S
C202 C201 1.378 . S
C202 C203 1.396 . S
C203 H188 0.940 . S
C203 C198 1.391 . S
C203 C202 1.396 . S
C204 P184 1.803 . S
C204 C205 1.378 . S
C204 C209 1.400 . S
C205 H189 0.939 . S
C205 C204 1.378 . S
C205 C206 1.361 1_455 S
C206 H190 0.942 . S
C206 C205 1.361 1_655 S
C206 C207 1.369 . S
C207 C206 1.369 . S
C207 C208 1.404 . S
C208 H191 0.940 . S
C208 C207 1.404 . S
C208 C209 1.389 1_655 S
C209 H192 0.939 . S
C209 C204 1.400 . S
C209 C208 1.389 1_455 S
C210 P184 1.819 . S
C210 C211 1.391 . S
C210 C215 1.391 . S
C211 H193 0.941 . S
C211 C210 1.391 . S
C211 C212 1.396 . S
C212 H196 0.939 . S
C212 C211 1.396 . S
C212 C213 1.397 . S
C213 C212 1.397 . S
C213 C214 1.385 . S
C214 H197 0.940 1_455 S
C214 C213 1.385 . S
C214 C215 1.388 . S
C215 H194 0.939 . S
C215 C210 1.391 . S
C215 C214 1.388 . S
P216 O227 1.490 . S
P216 C230 1.812 . S
P216 C236 1.803 1_455 S
P216 C242 1.819 . S
H217 C231 0.941 . S
H218 C232 0.939 . S
H219 C234 0.940 . S
H220 C235 0.940 . S
H221 C237 0.939 . S
H222 C238 0.942 . S
H223 C240 0.940 . S
H224 C241 0.939 . S
H225 C243 0.941 . S
H226 C247 0.939 . S
O227 P216 1.490 . S
H228 C244 0.939 . S
H229 C246 0.940 . S
C230 P216 1.812 . S
C230 C231 1.389 . S
C230 C235 1.391 . S
C231 H217 0.941 . S
C231 C230 1.389 . S
C231 C232 1.397 . S
C232 H218 0.939 . S
C232 C231 1.397 . S
C232 C233 1.378 . S
C233 C232 1.378 . S
C233 C234 1.378 . S
C234 H219 0.940 . S
C234 C233 1.378 . S
C234 C235 1.396 . S
C235 H220 0.940 . S
C235 C230 1.391 . S
C235 C234 1.396 . S
C236 P216 1.803 1_655 S
C236 C237 1.378 . S
C236 C241 1.400 . S
C237 H221 0.939 . S
C237 C236 1.378 . S
C237 C238 1.361 . S
C238 H222 0.942 . S
C238 C237 1.361 . S
C238 C239 1.369 . S
C239 C238 1.369 . S
C239 C240 1.404 . S
C240 H223 0.940 . S
C240 C239 1.404 . S
C240 C241 1.389 . S
C241 H224 0.939 . S
C241 C236 1.400 . S
C241 C240 1.389 . S
C242 P216 1.819 . S
C242 C243 1.391 . S
C242 C247 1.391 1_455 S
C243 H225 0.941 . S
C243 C242 1.391 . S
C243 C244 1.396 . S
C244 H228 0.939 . S
C244 C243 1.396 . S
C244 C245 1.397 . S
C245 C244 1.397 . S
C245 C246 1.385 1_455 S
C246 H229 0.940 . S
C246 C245 1.385 1_655 S
C246 C247 1.388 . S
C247 H226 0.939 . S
C247 C242 1.391 1_655 S
C247 C246 1.388 . S
P248 O259 1.490 . S
P248 C262 1.812 . S
P248 C268 1.803 1_545 S
P248 C274 1.819 . S
H249 C263 0.941 . S
H250 C264 0.939 . S
H251 C266 0.940 . S
H252 C267 0.940 . S
H253 C269 0.939 . S
H254 C270 0.942 . S
H255 C272 0.940 . S
H256 C273 0.939 . S
H257 C275 0.941 . S
H258 C279 0.939 . S
O259 P248 1.490 . S
H260 C276 0.939 . S
H261 C278 0.940 . S
C262 P248 1.812 . S
C262 C263 1.389 . S
C262 C267 1.391 . S
C263 H249 0.941 . S
C263 C262 1.389 . S
C263 C264 1.397 . S
C264 H250 0.939 . S
C264 C263 1.397 . S
C264 C265 1.378 . S
C265 C264 1.378 . S
C265 C266 1.378 . S
C266 H251 0.940 . S
C266 C265 1.378 . S
C266 C267 1.396 . S
C267 H252 0.940 . S
C267 C262 1.391 . S
C267 C266 1.396 . S
C268 P248 1.803 1_565 S
C268 C269 1.378 . S
C268 C273 1.400 . S
C269 H253 0.939 . S
C269 C268 1.378 . S
C269 C270 1.361 . S
C270 H254 0.942 . S
C270 C269 1.361 . S
C270 C271 1.369 . S
C271 C270 1.369 . S
C271 C272 1.404 . S
C272 H255 0.940 . S
C272 C271 1.404 . S
C272 C273 1.389 . S
C273 H256 0.939 . S
C273 C268 1.400 . S
C273 C272 1.389 . S
C274 P248 1.819 . S
C274 C275 1.391 . S
C274 C279 1.391 1_545 S
C275 H257 0.941 . S
C275 C274 1.391 . S
C275 C276 1.396 . S
C276 H260 0.939 . S
C276 C275 1.396 . S
C276 C277 1.397 . S
C277 C276 1.397 . S
C277 C278 1.385 1_545 S
C278 H261 0.940 . S
C278 C277 1.385 1_565 S
C278 C279 1.388 . S
C279 H258 0.939 . S
C279 C274 1.391 1_565 S
C279 C278 1.388 . S
P280 O291 1.490 . S
P280 C294 1.812 . S
P280 C300 1.803 . S
P280 C306 1.819 . S
H281 C295 0.941 . S
H282 C296 0.939 . S
H283 C298 0.940 . S
H284 C299 0.940 . S
H285 C301 0.939 . S
H286 C302 0.942 . S
H287 C304 0.940 . S
H288 C305 0.939 . S
H289 C307 0.941 . S
H290 C311 0.939 . S
O291 P280 1.490 . S
H292 C308 0.939 . S
H293 C310 0.940 . S
C294 P280 1.812 . S
C294 C295 1.389 . S
C294 C299 1.391 . S
C295 H281 0.941 . S
C295 C294 1.389 . S
C295 C296 1.397 . S
C296 H282 0.939 . S
C296 C295 1.397 . S
C296 C297 1.378 . S
C297 C296 1.378 . S
C297 C298 1.378 . S
C298 H283 0.940 . S
C298 C297 1.378 . S
C298 C299 1.396 . S
C299 H284 0.940 . S
C299 C294 1.391 . S
C299 C298 1.396 . S
C300 P280 1.803 . S
C300 C301 1.378 . S
C300 C305 1.400 . S
C301 H285 0.939 . S
C301 C300 1.378 . S
C301 C302 1.361 . S
C302 H286 0.942 . S
C302 C301 1.361 . S
C302 C303 1.369 . S
C303 C302 1.369 . S
C303 C304 1.404 . S
C304 H287 0.940 . S
C304 C303 1.404 . S
C304 C305 1.389 . S
C305 H288 0.939 . S
C305 C300 1.400 . S
C305 C304 1.389 . S
C306 P280 1.819 . S
C306 C307 1.391 . S
C306 C311 1.391 . S
C307 H289 0.941 . S
C307 C306 1.391 . S
C307 C308 1.396 . S
C308 H292 0.939 . S
C308 C307 1.396 . S
C308 C309 1.397 . S
C309 C308 1.397 . S
C309 C310 1.385 . S
C310 H293 0.940 . S
C310 C309 1.385 . S
C310 C311 1.388 . S
C311 H290 0.939 . S
C311 C306 1.391 . S
C311 C310 1.388 . S
C312 C313 1.349 . S
C312 C314 1.327 . S
C312 H337 0.950 . S
C313 C312 1.349 . S
C313 C329 1.349 . S
C314 C312 1.327 . S
C314 C333 1.429 . S
C314 H338 0.950 . S
C315 C332 1.574 . S
C315 C334 1.368 . S
C315 H339 0.949 . S
H316 C320 0.949 . S
C317 C318 1.349 . S
C317 C319 1.327 . S
C317 H340 0.950 . S
C318 C317 1.349 . S
C318 C330 1.349 . S
C319 C317 1.327 . S
C319 C335 1.429 . S
C319 H341 0.950 . S
C320 H316 0.949 . S
C320 C328 1.574 . S
C320 C336 1.368 . S
H321 C329 0.950 . S
H322 C327 0.950 . S
H323 C328 0.949 . S
H324 C330 0.950 . S
H325 C331 0.950 . S
H326 C332 0.949 . S
C327 H322 0.950 . S
C327 C329 1.327 . S
C327 C333 1.429 . S
C328 C320 1.574 . S
C328 H323 0.949 . S
C328 C334 1.368 . S
C329 C313 1.349 . S
C329 H321 0.950 . S
C329 C327 1.327 . S
C330 C318 1.349 . S
C330 H324 0.950 . S
C330 C331 1.327 . S
C331 H325 0.950 . S
C331 C330 1.327 . S
C331 C335 1.429 . S
C332 C315 1.574 . S
C332 H326 0.949 . S
C332 C336 1.368 . S
C333 C314 1.429 . S
C333 C327 1.429 . S
C333 C334 1.523 . S
C334 C315 1.368 . S
C334 C328 1.368 . S
C334 C333 1.523 . S
C335 C319 1.429 . S
C335 C331 1.429 . S
C335 C336 1.523 . S
C336 C320 1.368 . S
C336 C332 1.368 . S
C336 C335 1.523 . S
H337 C312 0.950 . S
H338 C314 0.950 . S
H339 C315 0.949 . S
H340 C317 0.950 . S
H341 C319 0.950 . S
C342 C343 1.349 . S
C342 C344 1.327 . S
C342 H367 0.950 . S
C343 C342 1.349 . S
C343 C359 1.349 . S
C344 C342 1.327 . S
C344 C363 1.429 . S
C344 H368 0.950 . S
C345 C362 1.574 . S
C345 C364 1.368 . S
C345 H369 0.949 . S
H346 C350 0.949 . S
C347 C348 1.349 . S
C347 C349 1.327 . S
C347 H370 0.950 . S
C348 C347 1.349 . S
C348 C360 1.349 . S
C349 C347 1.327 . S
C349 C365 1.429 . S
C349 H371 0.950 . S
C350 H346 0.949 . S
C350 C358 1.574 . S
C350 C366 1.368 . S
H351 C359 0.950 . S
H352 C357 0.950 . S
H353 C358 0.949 . S
H354 C360 0.950 . S
H355 C361 0.950 . S
H356 C362 0.949 . S
C357 H352 0.950 . S
C357 C359 1.327 . S
C357 C363 1.429 . S
C358 C350 1.574 . S
C358 H353 0.949 . S
C358 C364 1.368 . S
C359 C343 1.349 . S
C359 H351 0.950 . S
C359 C357 1.327 . S
C360 C348 1.349 . S
C360 H354 0.950 . S
C360 C361 1.327 . S
C361 H355 0.950 . S
C361 C360 1.327 . S
C361 C365 1.429 . S
C362 C345 1.574 . S
C362 H356 0.949 . S
C362 C366 1.368 . S
C363 C344 1.429 . S
C363 C357 1.429 . S
C363 C364 1.523 . S
C364 C345 1.368 . S
C364 C358 1.368 . S
C364 C363 1.523 . S
C365 C349 1.429 . S
C365 C361 1.429 . S
C365 C366 1.523 . S
C366 C350 1.368 . S
C366 C362 1.368 . S
C366 C365 1.523 . S
H367 C342 0.950 . S
H368 C344 0.950 . S
H369 C345 0.949 . S
H370 C347 0.950 . S
H371 C349 0.950 . S
C372 C373 1.349 . S
C372 C374 1.327 . S
C372 H397 0.950 . S
C373 C372 1.349 . S
C373 C389 1.349 . S
C374 C372 1.327 . S
C374 C393 1.429 . S
C374 H398 0.950 . S
C375 C392 1.574 . S
C375 C394 1.368 . S
C375 H399 0.949 . S
H376 C380 0.949 . S
C377 C378 1.349 . S
C377 C379 1.327 . S
C377 H400 0.950 . S
C378 C377 1.349 . S
C378 C390 1.349 . S
C379 C377 1.327 . S
C379 C395 1.429 . S
C379 H401 0.950 . S
C380 H376 0.949 . S
C380 C388 1.574 . S
C380 C396 1.368 . S
H381 C389 0.950 . S
H382 C387 0.950 . S
H383 C388 0.949 . S
H384 C390 0.950 . S
H385 C391 0.950 . S
H386 C392 0.949 . S
C387 H382 0.950 . S
C387 C389 1.327 . S
C387 C393 1.429 . S
C388 C380 1.574 . S
C388 H383 0.949 . S
C388 C394 1.368 . S
C389 C373 1.349 . S
C389 H381 0.950 . S
C389 C387 1.327 . S
C390 C378 1.349 . S
C390 H384 0.950 . S
C390 C391 1.327 . S
C391 H385 0.950 . S
C391 C390 1.327 . S
C391 C395 1.429 . S
C392 C375 1.574 . S
C392 H386 0.949 . S
C392 C396 1.368 . S
C393 C374 1.429 . S
C393 C387 1.429 . S
C393 C394 1.523 . S
C394 C375 1.368 . S
C394 C388 1.368 . S
C394 C393 1.523 . S
C395 C379 1.429 . S
C395 C391 1.429 . S
C395 C396 1.523 . S
C396 C380 1.368 . S
C396 C392 1.368 . S
C396 C395 1.523 . S
H397 C372 0.950 . S
H398 C374 0.950 . S
H399 C375 0.949 . S
H400 C377 0.950 . S
H401 C379 0.950 . S
C402 C403 1.349 . S
C402 C404 1.327 . S
C402 H427 0.950 . S
C403 C402 1.349 . S
C403 C419 1.349 . S
C404 C402 1.327 . S
C404 C423 1.429 . S
C404 H428 0.950 . S
C405 C422 1.574 . S
C405 C424 1.368 . S
C405 H429 0.949 . S
H406 C410 0.949 . S
C407 C408 1.349 . S
C407 C409 1.327 . S
C407 H430 0.950 . S
C408 C407 1.349 . S
C408 C420 1.349 . S
C409 C407 1.327 . S
C409 C425 1.429 . S
C409 H431 0.950 . S
C410 H406 0.949 . S
C410 C418 1.574 . S
C410 C426 1.368 . S
H411 C419 0.950 . S
H412 C417 0.950 . S
H413 C418 0.949 . S
H414 C420 0.950 . S
H415 C421 0.950 . S
H416 C422 0.949 . S
C417 H412 0.950 . S
C417 C419 1.327 . S
C417 C423 1.429 . S
C418 C410 1.574 . S
C418 H413 0.949 . S
C418 C424 1.368 . S
C419 C403 1.349 . S
C419 H411 0.950 . S
C419 C417 1.327 . S
C420 C408 1.349 . S
C420 H414 0.950 . S
C420 C421 1.327 . S
C421 H415 0.950 . S
C421 C420 1.327 . S
C421 C425 1.429 . S
C422 C405 1.574 . S
C422 H416 0.949 . S
C422 C426 1.368 . S
C423 C404 1.429 . S
C423 C417 1.429 . S
C423 C424 1.523 . S
C424 C405 1.368 . S
C424 C418 1.368 . S
C424 C423 1.523 . S
C425 C409 1.429 . S
C425 C421 1.429 . S
C425 C426 1.523 . S
C426 C410 1.368 . S
C426 C422 1.368 . S
C426 C425 1.523 . S
H427 C402 0.950 . S
H428 C404 0.950 . S
H429 C405 0.949 . S
H430 C407 0.950 . S
H431 C409 0.950 . S
C432 C433 1.349 . S
C432 C434 1.327 . S
C432 H457 0.950 . S
C433 C432 1.349 . S
C433 C449 1.349 . S
C434 C432 1.327 . S
C434 C453 1.429 . S
C434 H458 0.950 . S
C435 C452 1.574 . S
C435 C454 1.368 . S
C435 H459 0.949 . S
H436 C440 0.949 . S
C437 C438 1.349 . S
C437 C439 1.327 . S
C437 H460 0.950 . S
C438 C437 1.349 . S
C438 C450 1.349 . S
C439 C437 1.327 . S
C439 C455 1.429 . S
C439 H461 0.950 . S
C440 H436 0.949 . S
C440 C448 1.574 . S
C440 C456 1.368 . S
H441 C449 0.950 . S
H442 C447 0.950 . S
H443 C448 0.949 . S
H444 C450 0.950 . S
H445 C451 0.950 . S
H446 C452 0.949 . S
C447 H442 0.950 . S
C447 C449 1.327 . S
C447 C453 1.429 . S
C448 C440 1.574 . S
C448 H443 0.949 . S
C448 C454 1.368 . S
C449 C433 1.349 . S
C449 H441 0.950 . S
C449 C447 1.327 . S
C450 C438 1.349 . S
C450 H444 0.950 . S
C450 C451 1.327 . S
C451 H445 0.950 . S
C451 C450 1.327 . S
C451 C455 1.429 . S
C452 C435 1.574 . S
C452 H446 0.949 . S
C452 C456 1.368 . S
C453 C434 1.429 . S
C453 C447 1.429 . S
C453 C454 1.523 . S
C454 C435 1.368 . S
C454 C448 1.368 . S
C454 C453 1.523 . S
C455 C439 1.429 . S
C455 C451 1.429 . S
C455 C456 1.523 . S
C456 C440 1.368 . S
C456 C452 1.368 . S
C456 C455 1.523 . S
H457 C432 0.950 . S
H458 C434 0.950 . S
H459 C435 0.949 . S
H460 C437 0.950 . S
H461 C439 0.950 . S
C462 C463 1.349 . S
C462 C464 1.327 . S
C462 H487 0.950 . S
C463 C462 1.349 . S
C463 C479 1.349 . S
C464 C462 1.327 . S
C464 C483 1.429 . S
C464 H488 0.950 . S
C465 C482 1.574 . S
C465 C484 1.368 . S
C465 H489 0.949 . S
H466 C470 0.949 . S
C467 C468 1.349 . S
C467 C469 1.327 . S
C467 H490 0.950 . S
C468 C467 1.349 . S
C468 C480 1.349 . S
C469 C467 1.327 . S
C469 C485 1.429 . S
C469 H491 0.950 . S
C470 H466 0.949 . S
C470 C478 1.574 . S
C470 C486 1.368 . S
H471 C479 0.950 . S
H472 C477 0.950 . S
H473 C478 0.949 . S
H474 C480 0.950 . S
H475 C481 0.950 . S
H476 C482 0.949 . S
C477 H472 0.950 . S
C477 C479 1.327 . S
C477 C483 1.429 . S
C478 C470 1.574 . S
C478 H473 0.949 . S
C478 C484 1.368 . S
C479 C463 1.349 . S
C479 H471 0.950 . S
C479 C477 1.327 . S
C480 C468 1.349 . S
C480 H474 0.950 . S
C480 C481 1.327 . S
C481 H475 0.950 . S
C481 C480 1.327 . S
C481 C485 1.429 . S
C482 C465 1.574 . S
C482 H476 0.949 . S
C482 C486 1.368 . S
C483 C464 1.429 . S
C483 C477 1.429 . S
C483 C484 1.523 . S
C484 C465 1.368 . S
C484 C478 1.368 . S
C484 C483 1.523 . S
C485 C469 1.429 . S
C485 C481 1.429 . S
C485 C486 1.523 . S
C486 C470 1.368 . S
C486 C482 1.368 . S
C486 C485 1.523 . S
H487 C462 0.950 . S
H488 C464 0.950 . S
H489 C465 0.949 . S
H490 C467 0.950 . S
H491 C469 0.950 . S
C492 C493 1.349 . S
C492 C494 1.327 . S
C492 H517 0.950 . S
C493 C492 1.349 . S
C493 C509 1.349 . S
C494 C492 1.327 . S
C494 C513 1.429 . S
C494 H518 0.950 . S
C495 C512 1.574 . S
C495 C514 1.368 . S
C495 H519 0.949 . S
H496 C500 0.949 . S
C497 C498 1.349 . S
C497 C499 1.327 . S
C497 H520 0.950 . S
C498 C497 1.349 . S
C498 C510 1.349 . S
C499 C497 1.327 . S
C499 C515 1.429 . S
C499 H521 0.950 . S
C500 H496 0.949 . S
C500 C508 1.574 . S
C500 C516 1.368 . S
H501 C509 0.950 . S
H502 C507 0.950 . S
H503 C508 0.949 . S
H504 C510 0.950 . S
H505 C511 0.950 . S
H506 C512 0.949 . S
C507 H502 0.950 . S
C507 C509 1.327 . S
C507 C513 1.429 . S
C508 C500 1.574 . S
C508 H503 0.949 . S
C508 C514 1.368 . S
C509 C493 1.349 . S
C509 H501 0.950 . S
C509 C507 1.327 . S
C510 C498 1.349 . S
C510 H504 0.950 . S
C510 C511 1.327 . S
C511 H505 0.950 . S
C511 C510 1.327 . S
C511 C515 1.429 . S
C512 C495 1.574 . S
C512 H506 0.949 . S
C512 C516 1.368 . S
C513 C494 1.429 . S
C513 C507 1.429 . S
C513 C514 1.523 . S
C514 C495 1.368 . S
C514 C508 1.368 . S
C514 C513 1.523 . S
C515 C499 1.429 . S
C515 C511 1.429 . S
C515 C516 1.523 . S
C516 C500 1.368 . S
C516 C512 1.368 . S
C516 C515 1.523 . S
H517 C492 0.950 . S
H518 C494 0.950 . S
H519 C495 0.949 . S
H520 C497 0.950 . S
H521 C499 0.950 . S
C522 C523 1.349 . S
C522 C524 1.327 . S
C522 H547 0.950 . S
C523 C522 1.349 . S
C523 C539 1.349 . S
C524 C522 1.327 . S
C524 C543 1.429 . S
C524 H548 0.950 . S
C525 C542 1.574 . S
C525 C544 1.368 . S
C525 H549 0.949 . S
H526 C530 0.949 . S
C527 C528 1.349 . S
C527 C529 1.327 . S
C527 H550 0.950 . S
C528 C527 1.349 . S
C528 C540 1.349 . S
C529 C527 1.327 . S
C529 C545 1.429 . S
C529 H551 0.950 . S
C530 H526 0.949 . S
C530 C538 1.574 . S
C530 C546 1.368 . S
H531 C539 0.950 . S
H532 C537 0.950 . S
H533 C538 0.949 . S
H534 C540 0.950 . S
H535 C541 0.950 . S
H536 C542 0.949 . S
C537 H532 0.950 . S
C537 C539 1.327 . S
C537 C543 1.429 . S
C538 C530 1.574 . S
C538 H533 0.949 . S
C538 C544 1.368 . S
C539 C523 1.349 . S
C539 H531 0.950 . S
C539 C537 1.327 . S
C540 C528 1.349 . S
C540 H534 0.950 . S
C540 C541 1.327 . S
C541 H535 0.950 . S
C541 C540 1.327 . S
C541 C545 1.429 . S
C542 C525 1.574 . S
C542 H536 0.949 . S
C542 C546 1.368 . S
C543 C524 1.429 . S
C543 C537 1.429 . S
C543 C544 1.523 . S
C544 C525 1.368 . S
C544 C538 1.368 . S
C544 C543 1.523 . S
C545 C529 1.429 . S
C545 C541 1.429 . S
C545 C546 1.523 . S
C546 C530 1.368 . S
C546 C542 1.368 . S
C546 C545 1.523 . S
H547 C522 0.950 . S
H548 C524 0.950 . S
H549 C525 0.949 . S
H550 C527 0.950 . S
H551 C529 0.950 . S
C552 C553 1.349 . S
C552 C554 1.327 . S
C552 H577 0.950 . S
C553 C552 1.349 . S
C553 C569 1.349 . S
C554 C552 1.327 . S
C554 C573 1.429 . S
C554 H578 0.950 . S
C555 C572 1.574 . S
C555 C574 1.368 . S
C555 H579 0.949 . S
H556 C560 0.949 . S
C557 C558 1.349 . S
C557 C559 1.327 . S
C557 H580 0.950 . S
C558 C557 1.349 . S
C558 C570 1.349 . S
C559 C557 1.327 . S
C559 C575 1.429 . S
C559 H581 0.950 . S
C560 H556 0.949 . S
C560 C568 1.574 . S
C560 C576 1.368 . S
H561 C569 0.950 . S
H562 C567 0.950 . S
H563 C568 0.949 . S
H564 C570 0.950 . S
H565 C571 0.950 . S
H566 C572 0.949 . S
C567 H562 0.950 . S
C567 C569 1.327 . S
C567 C573 1.429 . S
C568 C560 1.574 . S
C568 H563 0.949 . S
C568 C574 1.368 . S
C569 C553 1.349 . S
C569 H561 0.950 . S
C569 C567 1.327 . S
C570 C558 1.349 . S
C570 H564 0.950 . S
C570 C571 1.327 . S
C571 H565 0.950 . S
C571 C570 1.327 . S
C571 C575 1.429 . S
C572 C555 1.574 . S
C572 H566 0.949 . S
C572 C576 1.368 . S
C573 C554 1.429 . S
C573 C567 1.429 . S
C573 C574 1.523 . S
C574 C555 1.368 . S
C574 C568 1.368 . S
C574 C573 1.523 . S
C575 C559 1.429 . S
C575 C571 1.429 . S
C575 C576 1.523 . S
C576 C560 1.368 . S
C576 C572 1.368 . S
C576 C575 1.523 . S
H577 C552 0.950 . S
H578 C554 0.950 . S
H579 C555 0.949 . S
H580 C557 0.950 . S
H581 C559 0.950 . S
C582 C583 1.349 . S
C582 C584 1.327 . S
C582 H607 0.950 . S
C583 C582 1.349 . S
C583 C599 1.349 . S
C584 C582 1.327 . S
C584 C603 1.429 . S
C584 H608 0.950 . S
C585 C602 1.574 . S
C585 C604 1.368 . S
C585 H609 0.949 . S
H586 C590 0.949 . S
C587 C588 1.349 . S
C587 C589 1.327 . S
C587 H610 0.950 . S
C588 C587 1.349 . S
C588 C600 1.349 . S
C589 C587 1.327 . S
C589 C605 1.429 . S
C589 H611 0.950 . S
C590 H586 0.949 . S
C590 C598 1.574 . S
C590 C606 1.368 . S
H591 C599 0.950 . S
H592 C597 0.950 . S
H593 C598 0.949 . S
H594 C600 0.950 . S
H595 C601 0.950 . S
H596 C602 0.949 . S
C597 H592 0.950 . S
C597 C599 1.327 . S
C597 C603 1.429 . S
C598 C590 1.574 . S
C598 H593 0.949 . S
C598 C604 1.368 . S
C599 C583 1.349 . S
C599 H591 0.950 . S
C599 C597 1.327 . S
C600 C588 1.349 . S
C600 H594 0.950 . S
C600 C601 1.327 . S
C601 H595 0.950 . S
C601 C600 1.327 . S
C601 C605 1.429 . S
C602 C585 1.574 . S
C602 H596 0.949 . S
C602 C606 1.368 . S
C603 C584 1.429 . S
C603 C597 1.429 . S
C603 C604 1.523 . S
C604 C585 1.368 . S
C604 C598 1.368 . S
C604 C603 1.523 . S
C605 C589 1.429 . S
C605 C601 1.429 . S
C605 C606 1.523 . S
C606 C590 1.368 . S
C606 C602 1.368 . S
C606 C605 1.523 . S
H607 C582 0.950 . S
H608 C584 0.950 . S
H609 C585 0.949 . S
H610 C587 0.950 . S
H611 C589 0.950 . S
C612 C613 1.349 . S
C612 C614 1.327 . S
C612 H637 0.950 . S
C613 C612 1.349 . S
C613 C629 1.349 . S
C614 C612 1.327 . S
C614 C633 1.429 . S
C614 H638 0.950 . S
C615 C632 1.574 . S
C615 C634 1.368 . S
C615 H639 0.949 . S
H616 C620 0.949 . S
C617 C618 1.349 . S
C617 C619 1.327 . S
C617 H640 0.950 . S
C618 C617 1.349 . S
C618 C630 1.349 . S
C619 C617 1.327 . S
C619 C635 1.429 . S
C619 H641 0.950 . S
C620 H616 0.949 . S
C620 C628 1.574 . S
C620 C636 1.368 . S
H621 C629 0.950 . S
H622 C627 0.950 . S
H623 C628 0.949 . S
H624 C630 0.950 . S
H625 C631 0.950 . S
H626 C632 0.949 . S
C627 H622 0.950 . S
C627 C629 1.327 . S
C627 C633 1.429 . S
C628 C620 1.574 . S
C628 H623 0.949 . S
C628 C634 1.368 . S
C629 C613 1.349 . S
C629 H621 0.950 . S
C629 C627 1.327 . S
C630 C618 1.349 . S
C630 H624 0.950 . S
C630 C631 1.327 . S
C631 H625 0.950 . S
C631 C630 1.327 . S
C631 C635 1.429 . S
C632 C615 1.574 . S
C632 H626 0.949 . S
C632 C636 1.368 . S
C633 C614 1.429 . S
C633 C627 1.429 . S
C633 C634 1.523 . S
C634 C615 1.368 . S
C634 C628 1.368 . S
C634 C633 1.523 . S
C635 C619 1.429 . S
C635 C631 1.429 . S
C635 C636 1.523 . S
C636 C620 1.368 . S
C636 C632 1.368 . S
C636 C635 1.523 . S
H637 C612 0.950 . S
H638 C614 0.950 . S
H639 C615 0.949 . S
H640 C617 0.950 . S
H641 C619 0.950 . S
C642 C643 1.349 . S
C642 C644 1.327 . S
C642 H667 0.950 . S
C643 C642 1.349 . S
C643 C659 1.349 . S
C644 C642 1.327 . S
C644 C663 1.429 . S
C644 H668 0.950 . S
C645 C662 1.574 . S
C645 C664 1.368 . S
C645 H669 0.949 . S
H646 C650 0.949 . S
C647 C648 1.349 . S
C647 C649 1.327 . S
C647 H670 0.950 . S
C648 C647 1.349 . S
C648 C660 1.349 . S
C649 C647 1.327 . S
C649 C665 1.429 . S
C649 H671 0.950 . S
C650 H646 0.949 . S
C650 C658 1.574 . S
C650 C666 1.368 . S
H651 C659 0.950 . S
H652 C657 0.950 . S
H653 C658 0.949 . S
H654 C660 0.950 . S
H655 C661 0.950 . S
H656 C662 0.949 . S
C657 H652 0.950 . S
C657 C659 1.327 . S
C657 C663 1.429 . S
C658 C650 1.574 . S
C658 H653 0.949 . S
C658 C664 1.368 . S
C659 C643 1.349 . S
C659 H651 0.950 . S
C659 C657 1.327 . S
C660 C648 1.349 . S
C660 H654 0.950 . S
C660 C661 1.327 . S
C661 H655 0.950 . S
C661 C660 1.327 . S
C661 C665 1.429 . S
C662 C645 1.574 . S
C662 H656 0.949 . S
C662 C666 1.368 . S
C663 C644 1.429 . S
C663 C657 1.429 . S
C663 C664 1.523 . S
C664 C645 1.368 . S
C664 C658 1.368 . S
C664 C663 1.523 . S
C665 C649 1.429 . S
C665 C661 1.429 . S
C665 C666 1.523 . S
C666 C650 1.368 . S
C666 C662 1.368 . S
C666 C665 1.523 . S
H667 C642 0.950 . S
H668 C644 0.950 . S
H669 C645 0.949 . S
H670 C647 0.950 . S
H671 C649 0.950 . S
C672 C673 1.349 . S
C672 C674 1.327 . S
C672 H697 0.950 . S
C673 C672 1.349 . S
C673 C689 1.355 . S
C674 C672 1.327 . S
C674 C693 1.429 . S
C674 H698 0.950 . S
C675 C692 1.574 . S
C675 C694 1.368 . S
C675 H699 0.949 1_455 S
H676 C680 0.949 . S
C677 C678 1.349 . S
C677 C679 1.327 . S
C677 H700 0.950 1_455 S
C678 C677 1.349 . S
C678 C690 1.349 . S
C679 C677 1.327 . S
C679 C695 1.429 1_556 S
C679 H701 0.950 1_455 S
C680 H676 0.949 . S
C680 C688 1.574 . S
C680 C696 1.368 . S
H681 C689 0.944 1_655 S
H682 C687 0.950 1_655 S
H683 C688 0.949 . S
H684 C690 0.950 . S
H685 C691 0.950 1_554 S
H686 C692 0.949 1_655 S
C687 H682 0.950 1_455 S
C687 C689 1.327 . S
C687 C693 1.429 . S
C688 C680 1.574 . S
C688 H683 0.949 . S
C688 C694 1.368 . S
C689 C673 1.355 . S
C689 H681 0.944 1_455 S
C689 C687 1.327 . S
C690 C678 1.349 . S
C690 H684 0.950 . S
C690 C691 1.327 . S
C691 H685 0.950 1_556 S
C691 C690 1.327 . S
C691 C695 1.429 1_556 S
C692 C675 1.574 . S
C692 H686 0.949 1_455 S
C692 C696 1.368 . S
C693 C674 1.429 . S
C693 C687 1.429 . S
C693 C694 1.523 . S
C694 C675 1.368 . S
C694 C688 1.368 . S
C694 C693 1.523 . S
C695 C679 1.429 1_554 S
C695 C691 1.429 1_554 S
C695 C696 1.523 . S
C696 C680 1.368 . S
C696 C692 1.368 . S
C696 C695 1.523 . S
H697 C672 0.950 . S
H698 C674 0.950 . S
H699 C675 0.949 1_655 S
H700 C677 0.950 1_655 S
H701 C679 0.950 1_655 S
C702 C703 1.349 1_565 S
C702 C704 1.327 . S
C702 H727 0.950 . S
C703 C702 1.349 1_545 S
C703 C719 1.349 . S
C704 C702 1.327 . S
C704 C723 1.429 1_565 S
C704 H728 0.950 . S
C705 C722 1.574 . S
C705 C724 1.368 . S
C705 H729 0.949 . S
H706 C710 0.949 . S
C707 C708 1.349 . S
C707 C709 1.327 . S
C707 H730 0.950 . S
C708 C707 1.349 . S
C708 C720 1.349 1_545 S
C709 C707 1.327 . S
C709 C725 1.429 . S
C709 H731 0.950 . S
C710 H706 0.949 . S
C710 C718 1.574 . S
C710 C726 1.368 1_565 S
H711 C719 0.950 . S
H712 C717 0.950 . S
H713 C718 0.949 . S
H714 C720 0.950 . S
H715 C721 0.950 . S
H716 C722 0.949 . S
C717 H712 0.950 . S
C717 C719 1.327 . S
C717 C723 1.429 . S
C718 C710 1.574 . S
C718 H713 0.949 . S
C718 C724 1.368 1_565 S
C719 C703 1.349 . S
C719 H711 0.950 . S
C719 C717 1.327 . S
C720 C708 1.349 1_565 S
C720 H714 0.950 . S
C720 C721 1.327 . S
C721 H715 0.950 . S
C721 C720 1.327 . S
C721 C725 1.429 1_565 S
C722 C705 1.574 . S
C722 H716 0.949 . S
C722 C726 1.368 . S
C723 C704 1.429 1_545 S
C723 C717 1.429 . S
C723 C724 1.523 . S
C724 C705 1.368 . S
C724 C718 1.368 1_545 S
C724 C723 1.523 . S
C725 C709 1.429 . S
C725 C721 1.429 1_545 S
C725 C726 1.523 . S
C726 C710 1.368 1_545 S
C726 C722 1.368 . S
C726 C725 1.523 . S
H727 C702 0.950 . S
H728 C704 0.950 . S
H729 C705 0.949 . S
H730 C707 0.950 . S
H731 C709 0.950 . S
C732 C733 1.349 . S
C732 C734 1.327 . S
C732 H757 0.950 . S
C733 C732 1.349 . S
C733 C749 1.349 . S
C734 C732 1.327 . S
C734 C753 1.429 . S
C734 H758 0.950 . S
C735 C752 1.574 . S
C735 C754 1.368 . S
C735 H759 0.949 . S
H736 C740 0.949 . S
C737 C738 1.349 . S
C737 C739 1.327 . S
C737 H760 0.950 . S
C738 C737 1.349 . S
C738 C750 1.349 . S
C739 C737 1.327 . S
C739 C755 1.429 . S
C739 H761 0.950 . S
C740 H736 0.949 . S
C740 C748 1.574 . S
C740 C756 1.368 . S
H741 C749 0.950 . S
H742 C747 0.950 . S
H743 C748 0.949 . S
H744 C750 0.950 . S
H745 C751 0.950 . S
H746 C752 0.949 . S
C747 H742 0.950 . S
C747 C749 1.327 . S
C747 C753 1.429 . S
C748 C740 1.574 . S
C748 H743 0.949 . S
C748 C754 1.368 . S
C749 C733 1.349 . S
C749 H741 0.950 . S
C749 C747 1.327 . S
C750 C738 1.349 . S
C750 H744 0.950 . S
C750 C751 1.327 . S
C751 H745 0.950 . S
C751 C750 1.327 . S
C751 C755 1.429 . S
C752 C735 1.574 . S
C752 H746 0.949 . S
C752 C756 1.368 . S
C753 C734 1.429 . S
C753 C747 1.429 . S
C753 C754 1.523 . S
C754 C735 1.368 . S
C754 C748 1.368 . S
C754 C753 1.523 . S
C755 C739 1.429 . S
C755 C751 1.429 . S
C755 C756 1.523 . S
C756 C740 1.368 . S
C756 C752 1.368 . S
C756 C755 1.523 . S
H757 C732 0.950 . S
H758 C734 0.950 . S
H759 C735 0.949 . S
H760 C737 0.950 . S
H761 C739 0.950 . S
C762 C763 1.349 1_565 S
C762 C764 1.327 . S
C762 H787 0.950 . S
C763 C762 1.349 1_545 S
C763 C779 1.349 . S
C764 C762 1.327 . S
C764 C783 1.429 1_565 S
C764 H788 0.950 . S
C765 C782 1.574 . S
C765 C784 1.368 . S
C765 H789 0.949 . S
H766 C770 0.949 . S
C767 C768 1.349 . S
C767 C769 1.327 . S
C767 H790 0.950 . S
C768 C767 1.349 . S
C768 C780 1.349 1_545 S
C769 C767 1.327 . S
C769 C785 1.429 . S
C769 H791 0.950 . S
C770 H766 0.949 . S
C770 C778 1.574 . S
C770 C786 1.368 1_565 S
H771 C779 0.950 . S
H772 C777 0.950 . S
H773 C778 0.949 . S
H774 C780 0.950 . S
H775 C781 0.950 . S
H776 C782 0.949 . S
C777 H772 0.950 . S
C777 C779 1.327 . S
C777 C783 1.429 . S
C778 C770 1.574 . S
C778 H773 0.949 . S
C778 C784 1.368 1_565 S
C779 C763 1.349 . S
C779 H771 0.950 . S
C779 C777 1.327 . S
C780 C768 1.349 1_565 S
C780 H774 0.950 . S
C780 C781 1.327 . S
C781 H775 0.950 . S
C781 C780 1.327 . S
C781 C785 1.429 1_565 S
C782 C765 1.574 . S
C782 H776 0.949 . S
C782 C786 1.368 . S
C783 C764 1.429 1_545 S
C783 C777 1.429 . S
C783 C784 1.523 . S
C784 C765 1.368 . S
C784 C778 1.368 1_545 S
C784 C783 1.523 . S
C785 C769 1.429 . S
C785 C781 1.429 1_545 S
C785 C786 1.523 . S
C786 C770 1.368 1_545 S
C786 C782 1.368 . S
C786 C785 1.523 . S
H787 C762 0.950 . S
H788 C764 0.950 . S
H789 C765 0.949 . S
H790 C767 0.950 . S
H791 C769 0.950 . S
C792 C793 1.349 . S
C792 C794 1.327 . S
C792 H817 0.950 . S
C793 C792 1.349 . S
C793 C809 1.349 . S
C794 C792 1.327 . S
C794 C813 1.429 . S
C794 H818 0.950 . S
C795 C812 1.574 . S
C795 C814 1.368 . S
C795 H819 0.949 . S
H796 C800 0.949 . S
C797 C798 1.349 . S
C797 C799 1.327 . S
C797 H820 0.950 . S
C798 C797 1.349 . S
C798 C810 1.349 . S
C799 C797 1.327 . S
C799 C815 1.429 1_554 S
C799 H821 0.950 . S
C800 H796 0.949 . S
C800 C808 1.574 . S
C800 C816 1.368 . S
H801 C809 0.950 . S
H802 C807 0.950 . S
H803 C808 0.949 . S
H804 C810 0.950 . S
H805 C811 0.950 1_556 S
H806 C812 0.949 . S
C807 H802 0.950 . S
C807 C809 1.327 . S
C807 C813 1.429 . S
C808 C800 1.574 . S
C808 H803 0.949 . S
C808 C814 1.368 . S
C809 C793 1.349 . S
C809 H801 0.950 . S
C809 C807 1.327 . S
C810 C798 1.349 . S
C810 H804 0.950 . S
C810 C811 1.327 . S
C811 H805 0.950 1_554 S
C811 C810 1.327 . S
C811 C815 1.429 1_554 S
C812 C795 1.574 . S
C812 H806 0.949 . S
C812 C816 1.368 . S
C813 C794 1.429 . S
C813 C807 1.429 . S
C813 C814 1.523 . S
C814 C795 1.368 . S
C814 C808 1.368 . S
C814 C813 1.523 . S
C815 C799 1.429 1_556 S
C815 C811 1.429 1_556 S
C815 C816 1.523 . S
C816 C800 1.368 . S
C816 C812 1.368 . S
C816 C815 1.523 . S
H817 C792 0.950 . S
H818 C794 0.950 . S
H819 C795 0.949 . S
H820 C797 0.950 . S
H821 C799 0.950 . S
C822 C823 1.349 . S
C822 C824 1.327 . S
C822 H847 0.950 . S
C823 C822 1.349 . S
C823 C839 1.349 . S
C824 C822 1.327 . S
C824 C843 1.429 . S
C824 H848 0.950 . S
C825 C842 1.574 . S
C825 C844 1.368 . S
C825 H849 0.949 . S
H826 C830 0.949 . S
C827 C828 1.349 . S
C827 C829 1.327 . S
C827 H850 0.964 . S
C828 C827 1.349 . S
C828 C840 1.349 . S
C829 C827 1.327 . S
C829 C845 1.429 . S
C829 H851 0.950 . S
C830 H826 0.949 . S
C830 C838 1.574 . S
C830 C846 1.368 . S
H831 C839 0.950 . S
H832 C837 0.950 . S
H833 C838 0.949 . S
H834 C840 0.950 . S
H835 C841 0.950 . S
H836 C842 0.949 . S
C837 H832 0.950 . S
C837 C839 1.327 . S
C837 C843 1.429 . S
C838 C830 1.574 . S
C838 H833 0.949 . S
C838 C844 1.368 . S
C839 C823 1.349 . S
C839 H831 0.950 . S
C839 C837 1.327 . S
C840 C828 1.349 . S
C840 H834 0.950 . S
C840 C841 1.327 . S
C841 H835 0.950 . S
C841 C840 1.327 . S
C841 C845 1.429 . S
C842 C825 1.574 . S
C842 H836 0.949 . S
C842 C846 1.368 . S
C843 C824 1.429 . S
C843 C837 1.429 . S
C843 C844 1.523 . S
C844 C825 1.368 . S
C844 C838 1.368 . S
C844 C843 1.523 . S
C845 C829 1.429 . S
C845 C841 1.429 . S
C845 C846 1.523 . S
C846 C830 1.368 . S
C846 C842 1.368 . S
C846 C845 1.523 . S
H847 C822 0.950 . S
H848 C824 0.950 . S
H849 C825 0.949 . S
H850 C827 0.964 . S
H851 C829 0.950 . S
C313 C7 0.442 . S
C318 C303 0.399 . S
C343 C51 1.845 . S
C348 C239 1.794 . S
C373 C87 1.162 . S
C378 C271 1.143 . S
C403 C16 0.364 . S
C408 C297 0.329 . S
C438 C233 1.873 . S
C433 C42 1.908 . S
C468 C265 1.230 . S
C463 C96 1.242 . S
C493 C47 1.162 . S
C498 C175 1.154 . S
C523 C91 3.013 . S
C528 C207 2.948 . S
C553 C2 1.936 . S
C558 C137 1.904 . S
C588 C169 1.219 . S
C583 C56 1.224 . S
C618 C201 2.904 . S
C613 C82 2.923 . S
C643 C11 1.836 . S
C648 C143 1.793 . S
C678 C213 1.726 . S
C673 C19 1.703 . S
C703 C50 1.351 . S
C708 C149 1.359 . S
C733 C99 1.466 . S
C738 C181 1.482 . S
C768 C277 1.456 . S
C763 C59 1.455 . S
C798 C309 1.115 . S
C793 C90 1.110 . S
C823 C10 1.346 . S
C828 C245 1.348 . S
