# Generated by pormake.
# Topology dag, (6,3)-cn, num edge types: 1
# Building blocks:
#     Node 0, Type 0, BuildingBlock: IZENUY_clean_sbu_0, # of connection points: 6
#     Node 1, Type 0, BuildingBlock: IZENUY_clean_sbu_0, # of connection points: 6
#     Node 2, Type 0, BuildingBlock: IZENUY_clean_sbu_0, # of connection points: 6
#     Node 3, Type 0, BuildingBlock: IZENUY_clean_sbu_0, # of connection points: 6
#     Node 4, Type 1, BuildingBlock: ESEHIV_clean_linker_0, # of connection points: 3
#     Node 5, Type 1, BuildingBlock: ESEHIV_clean_linker_0, # of connection points: 3
#     Node 6, Type 1, BuildingBlock: ESEHIV_clean_linker_0, # of connection points: 3
#     Node 7, Type 1, BuildingBlock: ESEHIV_clean_linker_0, # of connection points: 3
#     Node 8, Type 1, BuildingBlock: ESEHIV_clean_linker_0, # of connection points: 3
#     Node 9, Type 1, BuildingBlock: ESEHIV_clean_linker_0, # of connection points: 3
#     Node 10, Type 1, BuildingBlock: ESEHIV_clean_linker_0, # of connection points: 3
#     Node 11, Type 1, BuildingBlock: ESEHIV_clean_linker_0, # of connection points: 3
#     Edge 12, Type (0, 1), BuildingBlock: TEMPAE_clean_linker_10, # of connection points: 2
#     Edge 13, Type (0, 1), BuildingBlock: TEMPAE_clean_linker_10, # of connection points: 2
#     Edge 14, Type (0, 1), BuildingBlock: TEMPAE_clean_linker_10, # of connection points: 2
#     Edge 15, Type (0, 1), BuildingBlock: TEMPAE_clean_linker_10, # of connection points: 2
#     Edge 16, Type (0, 1), BuildingBlock: TEMPAE_clean_linker_10, # of connection points: 2
#     Edge 17, Type (0, 1), BuildingBlock: TEMPAE_clean_linker_10, # of connection points: 2
#     Edge 18, Type (0, 1), BuildingBlock: TEMPAE_clean_linker_10, # of connection points: 2
#     Edge 19, Type (0, 1), BuildingBlock: TEMPAE_clean_linker_10, # of connection points: 2
#     Edge 20, Type (0, 1), BuildingBlock: TEMPAE_clean_linker_10, # of connection points: 2
#     Edge 21, Type (0, 1), BuildingBlock: TEMPAE_clean_linker_10, # of connection points: 2
#     Edge 22, Type (0, 1), BuildingBlock: TEMPAE_clean_linker_10, # of connection points: 2
#     Edge 23, Type (0, 1), BuildingBlock: TEMPAE_clean_linker_10, # of connection points: 2
#     Edge 24, Type (0, 1), BuildingBlock: TEMPAE_clean_linker_10, # of connection points: 2
#     Edge 25, Type (0, 1), BuildingBlock: TEMPAE_clean_linker_10, # of connection points: 2
#     Edge 26, Type (0, 1), BuildingBlock: TEMPAE_clean_linker_10, # of connection points: 2
#     Edge 27, Type (0, 1), BuildingBlock: TEMPAE_clean_linker_10, # of connection points: 2
#     Edge 28, Type (0, 1), BuildingBlock: TEMPAE_clean_linker_10, # of connection points: 2
#     Edge 29, Type (0, 1), BuildingBlock: TEMPAE_clean_linker_10, # of connection points: 2
#     Edge 30, Type (0, 1), BuildingBlock: TEMPAE_clean_linker_10, # of connection points: 2
#     Edge 31, Type (0, 1), BuildingBlock: TEMPAE_clean_linker_10, # of connection points: 2
#     Edge 32, Type (0, 1), BuildingBlock: TEMPAE_clean_linker_10, # of connection points: 2
#     Edge 33, Type (0, 1), BuildingBlock: TEMPAE_clean_linker_10, # of connection points: 2
#     Edge 34, Type (0, 1), BuildingBlock: TEMPAE_clean_linker_10, # of connection points: 2
#     Edge 35, Type (0, 1), BuildingBlock: TEMPAE_clean_linker_10, # of connection points: 2
# Relax obj value: 0.255
# Max RMSD: 0.192
# Mean RMSD: 0.159
data_MOF--net-dag--node1-IZENUY_clean_sbu_0--node2-ESEHIV_clean_linker_0--edge1-TEMPAE_clean_linker_10
_symmetry_space_group_name_H-M    P1
_symmetry_Int_Tables_number       1
_symmetry_cell_setting            triclinic
loop_
_symmetry_equiv_pos_as_xyz
'x, y, z'
_cell_length_a     36.407564
_cell_length_b     37.905545
_cell_length_c     32.079285
_cell_angle_alpha  95.141431
_cell_angle_beta   90.210995
_cell_angle_gamma 89.980998
loop_
_atom_site_label
_atom_site_type_symbol
_atom_site_fract_x
_atom_site_fract_y
_atom_site_fract_z
_atom_type_partial_charge
Fe0 Fe 0.19493 0.8532 0.1003 0.0
Fe1 Fe 0.12214 0.87924 0.06654 0.0
O2 O 0.15186 0.84396 0.07584 0.0
Fe3 Fe 0.13839 0.79967 0.06086 0.0
O4 O 0.14224 0.78793 0.11438 0.0
O5 O 0.19619 0.81262 0.12724 0.0
O6 O 0.17323 0.87504 0.14703 0.0
C7 C 0.15175 0.90113 0.14602 0.0
C8 C 0.21409 0.80076 0.04027 0.0
O9 O 0.13717 0.9081 0.11194 0.0
C10 C 0.112 0.83186 0.99403 0.0
O11 O 0.20174 0.89531 0.07732 0.0
O12 O 0.15571 0.89798 0.03318 0.0
O13 O 0.18516 0.78405 0.04817 0.0
O14 O 0.21921 0.83222 0.05549 0.0
C15 C 0.07306 0.83196 0.09362 0.0
O16 O 0.10137 0.8571 0.0195 0.0
O17 O 0.13314 0.80828 0.00596 0.0
C18 C 0.18778 0.90689 0.04499 0.0
O19 O 0.08682 0.8626 0.09933 0.0
O20 O 0.08937 0.80751 0.07133 0.0
C21 C 0.17081 0.79199 0.1366 0.0
Fe22 Fe 0.69233 0.65144 0.48584 0.0
Fe23 Fe 0.63514 0.70659 0.5185 0.0
O24 O 0.64841 0.66186 0.50691 0.0
Fe25 Fe 0.61776 0.6275 0.5162 0.0
O26 O 0.64954 0.60952 0.55217 0.0
O27 O 0.69741 0.60985 0.51088 0.0
O28 O 0.71464 0.67341 0.53143 0.0
C29 C 0.70989 0.70558 0.5438 0.0
C30 C 0.65007 0.60351 0.4389 0.0
O31 O 0.68194 0.72228 0.53228 0.0
C32 C 0.56978 0.67374 0.48532 0.0
O33 O 0.69528 0.69107 0.45714 0.0
O34 O 0.64059 0.7154 0.46421 0.0
O35 O 0.63375 0.59724 0.47223 0.0
O36 O 0.67244 0.62887 0.43877 0.0
C37 C 0.60752 0.6773 0.58638 0.0
O38 O 0.58596 0.69891 0.50678 0.0
O39 O 0.58401 0.64334 0.4809 0.0
C40 C 0.67006 0.71031 0.44404 0.0
O41 O 0.62874 0.70033 0.57359 0.0
O42 O 0.59627 0.65159 0.56173 0.0
C43 C 0.68159 0.59929 0.54262 0.0
Fe44 Fe 0.86176 0.20623 0.03006 0.0
Fe45 Fe 0.88005 0.12733 0.02356 0.0
O46 O 0.84919 0.16177 0.01481 0.0
Fe47 Fe 0.80637 0.15139 0.99041 0.0
O48 O 0.80431 0.19161 0.96298 0.0
O49 O 0.85732 0.21821 0.97667 0.0
O50 O 0.911 0.19927 0.0193 0.0
C51 C 0.92669 0.17565 0.99516 0.0
C52 C 0.78583 0.20373 0.04996 0.0
O53 O 0.91363 0.14479 0.98931 0.0
C54 C 0.81569 0.09857 0.04681 0.0
O55 O 0.8673 0.19726 0.08476 0.0
O56 O 0.90137 0.15022 0.06993 0.0
O57 O 0.78138 0.17225 0.03454 0.0
O58 O 0.81479 0.22081 0.04314 0.0
C59 C 0.85024 0.10398 0.94501 0.0
O60 O 0.84774 0.10824 0.0579 0.0
O61 O 0.80085 0.10947 0.01447 0.0
C62 C 0.88952 0.17438 0.09611 0.0
O63 O 0.86494 0.09756 0.97915 0.0
O64 O 0.82839 0.12969 0.94382 0.0
C65 C 0.82905 0.2131 0.95409 0.0
Fe66 Fe 0.38194 0.36795 0.55653 0.0
Fe67 Fe 0.31162 0.34817 0.60074 0.0
O68 O 0.35118 0.33543 0.57125 0.0
Fe69 Fe 0.36008 0.29011 0.55625 0.0
O70 O 0.40331 0.29188 0.58486 0.0
O71 O 0.42288 0.33989 0.55839 0.0
O72 O 0.39133 0.38349 0.61048 0.0
C73 C 0.367 0.3944 0.6364 0.0
C74 C 0.38076 0.32409 0.48474 0.0
O75 O 0.33345 0.38662 0.63 0.0
C76 C 0.28621 0.29258 0.5425 0.0
O77 O 0.34684 0.40185 0.55204 0.0
O78 O 0.29445 0.37489 0.56046 0.0
O79 O 0.38303 0.29798 0.50672 0.0
O80 O 0.37416 0.35466 0.50174 0.0
C81 C 0.33324 0.28996 0.63852 0.0
O82 O 0.28284 0.31182 0.57674 0.0
O83 O 0.31752 0.28575 0.52705 0.0
C84 C 0.31257 0.39939 0.54601 0.0
O85 O 0.32629 0.3226 0.64283 0.0
O86 O 0.33868 0.274 0.60275 0.0
C87 C 0.42895 0.31297 0.57809 0.0
H88 H 0.02904 0.09 0.31451 0.0
H89 H 0.12029 0.1064 0.39895 0.0
H90 H 0.04115 0.18963 0.38836 0.0
C91 C 0.04293 0.1062 0.3393 0.0
C92 C 0.0305 0.14091 0.3503 0.0
C93 C 0.07527 0.0935 0.35672 0.0
C94 C 0.0947 0.11567 0.38645 0.0
C95 C 0.08272 0.15045 0.39801 0.0
C96 C 0.05035 0.16273 0.38007 0.0
H97 H 0.47515 0.60509 0.8021 0.0
H98 H 0.37179 0.61745 0.86527 0.0
H99 H 0.44895 0.70387 0.87262 0.0
C100 C 0.45733 0.62073 0.82358 0.0
C101 C 0.4667 0.65592 0.83693 0.0
C102 C 0.42319 0.60682 0.83358 0.0
C103 C 0.39862 0.62787 0.85837 0.0
C104 C 0.40822 0.66257 0.87351 0.0
C105 C 0.44231 0.6765 0.86278 0.0
H106 H 0.8097 0.8676 0.11131 0.0
H107 H 0.79292 0.78502 0.19232 0.0
H108 H 0.70964 0.86453 0.18133 0.0
C109 C 0.7918 0.85392 0.1315 0.0
C110 C 0.7575 0.86869 0.14264 0.0
C111 C 0.80491 0.82389 0.14925 0.0
C112 C 0.78265 0.80776 0.17764 0.0
C113 C 0.74814 0.82218 0.18914 0.0
C114 C 0.73575 0.85277 0.17168 0.0
H115 H 0.67883 0.36842 0.62874 0.0
H116 H 0.70443 0.28816 0.71001 0.0
H117 H 0.78344 0.3702 0.6919 0.0
C118 C 0.6986 0.35632 0.64848 0.0
C119 C 0.73298 0.37226 0.65656 0.0
C120 C 0.68835 0.3261 0.66751 0.0
C121 C 0.71295 0.31095 0.69428 0.0
C122 C 0.74736 0.32681 0.70331 0.0
C123 C 0.75721 0.35759 0.68449 0.0
H124 H 0.53777 0.41927 0.27381 0.0
H125 H 0.62428 0.39624 0.18491 0.0
H126 H 0.55145 0.31331 0.21665 0.0
C127 C 0.55126 0.40091 0.25089 0.0
C128 C 0.54039 0.36527 0.24693 0.0
C129 C 0.58155 0.41233 0.2288 0.0
C130 C 0.59995 0.38793 0.20081 0.0
C131 C 0.58901 0.35223 0.19596 0.0
C132 C 0.55896 0.3411 0.21885 0.0
H133 H 0.19828 0.12589 0.9738 0.0
H134 H 0.19798 0.19541 0.87558 0.0
H135 H 0.29618 0.13783 0.90273 0.0
C136 C 0.21264 0.13854 0.94963 0.0
C137 C 0.24899 0.12869 0.94028 0.0
C138 C 0.19374 0.16222 0.92621 0.0
C139 C 0.21278 0.17824 0.895 0.0
C140 C 0.25018 0.17072 0.887 0.0
C141 C 0.26793 0.14522 0.90939 0.0
H142 H 0.30389 0.62132 0.46413 0.0
H143 H 0.28844 0.70439 0.38295 0.0
H144 H 0.20543 0.62425 0.39049 0.0
C145 C 0.28672 0.63494 0.44301 0.0
C146 C 0.25246 0.62036 0.43093 0.0
C147 C 0.30028 0.665 0.42562 0.0
C148 C 0.2783 0.68123 0.3968 0.0
C149 C 0.24404 0.66677 0.38409 0.0
C150 C 0.23141 0.636 0.40087 0.0
H151 H 0.9676 0.90901 0.77679 0.0
H152 H 0.94687 0.80685 0.71118 0.0
H153 H 0.87054 0.89212 0.70108 0.0
C154 C 0.95158 0.89234 0.7543 0.0
C155 C 0.91842 0.90533 0.73909 0.0
C156 C 0.96223 0.85686 0.74445 0.0
C157 C 0.93971 0.83454 0.71795 0.0
C158 C 0.90668 0.84733 0.70243 0.0
C159 C 0.89646 0.88268 0.7126 0.0
C160 C 0.12875 0.95896 0.1783 0.0
C161 C 0.14529 0.92617 0.18352 0.0
C162 C 0.12021 0.98288 0.21257 0.0
C163 C 0.12826 0.97398 0.2535 0.0
C164 C 0.14549 0.9412 0.25926 0.0
C165 C 0.15392 0.91761 0.22408 0.0
C166 C 0.1021 0.01763 0.20479 0.0
C167 C 0.1544 0.9309 0.30249 0.0
C168 C 0.12819 0.05746 0.32689 0.0
C169 C 0.09119 0.05924 0.33903 0.0
C170 C 0.14189 0.02787 0.30237 0.0
C171 C 0.11797 -0.00052 0.28956 0.0
C172 C 0.08156 -0.00028 0.305 0.0
C173 C 0.06857 0.02966 0.32948 0.0
C174 C 0.1809 0.02873 0.28671 0.0
C175 C 0.05523 0.96987 0.29244 0.0
H176 H 0.1222 0.96606 0.14714 0.0
H177 H 0.16656 0.89228 0.22835 0.0
H178 H 0.07483 0.01958 0.22014 0.0
H179 H 0.11897 0.04012 0.2186 0.0
H180 H 0.09824 0.02066 0.17093 0.0
H181 H 0.16941 0.90532 0.30161 0.0
H182 H 0.17129 0.95176 0.31978 0.0
H183 H 0.12865 0.92857 0.32043 0.0
H184 H 0.14586 0.08025 0.33387 0.0
H185 H 0.04012 0.03067 0.33938 0.0
H186 H 0.18075 0.03549 0.25375 0.0
H187 H 0.19416 0.00244 0.28733 0.0
H188 H 0.19775 0.04879 0.30554 0.0
H189 H 0.04602 0.97182 0.25971 0.0
H190 H 0.03059 0.97082 0.31284 0.0
H191 H 0.06887 0.94381 0.29366 0.0
C192 C 0.60829 0.70478 0.66089 0.0
C193 C 0.59233 0.68166 0.62927 0.0
C194 C 0.59401 0.70769 0.70181 0.0
C195 C 0.56309 0.6871 0.71097 0.0
C196 C 0.5467 0.66414 0.67893 0.0
C197 C 0.56157 0.66165 0.63871 0.0
C198 C 0.61246 0.7321 0.73526 0.0
C199 C 0.5134 0.6419 0.68704 0.0
C200 C 0.5314 0.65385 0.81113 0.0
C201 C 0.49813 0.67228 0.81661 0.0
C202 C 0.55619 0.6619 0.77999 0.0
C203 C 0.54711 0.68868 0.75367 0.0
C204 C 0.51623 0.71061 0.76318 0.0
C205 C 0.49202 0.70213 0.7947 0.0
C206 C 0.58941 0.63856 0.77171 0.0
C207 C 0.50584 0.73981 0.73636 0.0
H208 H 0.63223 0.72014 0.65384 0.0
H209 H 0.54885 0.6439 0.61448 0.0
H210 H 0.59185 0.74813 0.75398 0.0
H211 H 0.62755 0.71607 0.75702 0.0
H212 H 0.6323 0.75023 0.72185 0.0
H213 H 0.50361 0.62598 0.65839 0.0
H214 H 0.52001 0.62352 0.71103 0.0
H215 H 0.49055 0.65916 0.69932 0.0
H216 H 0.53647 0.63113 0.82862 0.0
H217 H 0.46639 0.71657 0.79888 0.0
H218 H 0.61325 0.65419 0.76228 0.0
H219 H 0.5832 0.61815 0.74563 0.0
H220 H 0.59711 0.62482 0.79964 0.0
H221 H 0.5305 0.75427 0.72692 0.0
H222 H 0.48658 0.759 0.75287 0.0
H223 H 0.49213 0.72806 0.70742 0.0
C224 C 0.81932 0.0471 0.08983 0.0
C225 C 0.79805 0.06943 0.06696 0.0
C226 C 0.80425 0.01638 0.10397 0.0
C227 C 0.76678 0.00823 0.09581 0.0
C228 C 0.74448 0.03202 0.07546 0.0
C229 C 0.76051 0.0622 0.06078 0.0
C230 C 0.8291 0.99157 0.12538 0.0
C231 C 0.7042 0.02481 0.06736 0.0
C232 C 0.75463 0.90943 0.0861 0.0
C233 C 0.74784 0.9034 0.12783 0.0
C234 C 0.7575 0.94392 0.07415 0.0
C235 C 0.75272 0.97294 0.10461 0.0
C236 C 0.74103 0.96694 0.14542 0.0
C237 C 0.73898 0.93207 0.15673 0.0
C238 C 0.76979 0.94909 0.03019 0.0
C239 C 0.73432 0.99725 0.17828 0.0
H240 H 0.8483 0.05258 0.09483 0.0
H241 H 0.74381 0.0797 0.04362 0.0
H242 H 0.81731 0.98586 0.15588 0.0
H243 H 0.83141 0.966 0.1058 0.0
H244 H 0.85714 0.00259 0.13094 0.0
H245 H 0.68928 0.04906 0.05996 0.0
H246 H 0.7011 0.0046 0.04036 0.0
H247 H 0.69107 0.0142 0.09479 0.0
H248 H 0.76078 0.88716 0.06357 0.0
H249 H 0.73356 0.92753 0.18902 0.0
H250 H 0.79881 0.95812 0.03095 0.0
H251 H 0.7531 0.96979 0.01678 0.0
H252 H 0.76784 0.92426 0.0091 0.0
H253 H 0.76104 0.0073 0.19116 0.0
H254 H 0.7176 0.98882 0.20454 0.0
H255 H 0.72018 0.01948 0.16462 0.0
C256 C 0.47442 0.28343 0.62265 0.0
C257 C 0.46705 0.30565 0.59093 0.0
C258 C 0.51041 0.27966 0.63777 0.0
C259 C 0.53946 0.29843 0.62054 0.0
C260 C 0.53233 0.31934 0.587 0.0
C261 C 0.49627 0.32276 0.57274 0.0
C262 C 0.51701 0.25707 0.67347 0.0
C263 C 0.56255 0.3396 0.56744 0.0
C264 C 0.62209 0.33449 0.68124 0.0
C265 C 0.6502 0.31353 0.66262 0.0
C266 C 0.58531 0.32784 0.67041 0.0
C267 C 0.57664 0.29971 0.63989 0.0
C268 C 0.60484 0.27679 0.62338 0.0
C269 C 0.64153 0.28407 0.63494 0.0
C270 C 0.55615 0.35285 0.68892 0.0
C271 C 0.59665 0.2464 0.59104 0.0
H272 H 0.45193 0.27011 0.6368 0.0
H273 H 0.49087 0.33957 0.54779 0.0
H274 H 0.54129 0.23975 0.66712 0.0
H275 H 0.52289 0.27439 0.70246 0.0
H276 H 0.49286 0.24028 0.67923 0.0
H277 H 0.55288 0.3524 0.53956 0.0
H278 H 0.57334 0.3605 0.59073 0.0
H279 H 0.5857 0.32168 0.55793 0.0
H280 H 0.62912 0.35731 0.70262 0.0
H281 H 0.66353 0.26808 0.62049 0.0
H282 H 0.53217 0.33787 0.69922 0.0
H283 H 0.54634 0.36982 0.66471 0.0
H284 H 0.56666 0.3703 0.71603 0.0
H285 H 0.5717 0.23191 0.59956 0.0
H286 H 0.61997 0.22748 0.58726 0.0
H287 H 0.59128 0.2569 0.5604 0.0
C288 C 0.62721 0.5464 0.4041 0.0
C289 C 0.64453 0.57904 0.40083 0.0
C290 C 0.62035 0.52306 0.36868 0.0
C291 C 0.6308 0.53263 0.32873 0.0
C292 C 0.64853 0.56543 0.32505 0.0
C293 C 0.65535 0.58828 0.36127 0.0
C294 C 0.60164 0.48815 0.37414 0.0
C295 C 0.65972 0.57657 0.28292 0.0
C296 C 0.63431 0.44971 0.25534 0.0
C297 C 0.59763 0.44751 0.24187 0.0
C298 C 0.6471 0.47958 0.28009 0.0
C299 C 0.62256 0.50777 0.29142 0.0
C300 C 0.58696 0.50751 0.27346 0.0
C301 C 0.57484 0.47723 0.24896 0.0
C302 C 0.68534 0.47886 0.2983 0.0
C303 C 0.56017 0.53732 0.28408 0.0
H304 H 0.61892 0.53895 0.43453 0.0
H305 H 0.66853 0.6136 0.35854 0.0
H306 H 0.57522 0.48654 0.35673 0.0
H307 H 0.61907 0.46584 0.36108 0.0
H308 H 0.59598 0.48451 0.40749 0.0
H309 H 0.67495 0.60207 0.2856 0.0
H310 H 0.6772 0.55591 0.26627 0.0
H311 H 0.63494 0.57946 0.26329 0.0
H312 H 0.65204 0.42677 0.25007 0.0
H313 H 0.5466 0.47573 0.23805 0.0
H314 H 0.68375 0.47131 0.33089 0.0
H315 H 0.69842 0.50534 0.29939 0.0
H316 H 0.70315 0.45935 0.28007 0.0
H317 H 0.54859 0.53478 0.31563 0.0
H318 H 0.53708 0.53676 0.26129 0.0
H319 H 0.57406 0.56341 0.2849 0.0
C320 C 0.99077 0.19461 0.01031 0.0
C321 C 0.96429 0.18154 0.98123 0.0
C322 C 0.02794 0.19531 -0.00073 0.0
C323 C 0.03842 0.18381 0.95778 0.0
C324 C 0.01126 0.17308 0.92755 0.0
C325 C 0.97447 0.1713 0.93993 0.0
C326 C 0.05614 0.20572 0.03278 0.0
C327 C 0.02124 0.16187 0.88268 0.0
C328 C 0.13746 0.2012 0.92866 0.0
C329 C 0.1536 0.168 0.93265 0.0
C330 C 0.09966 0.20657 0.93531 0.0
C331 C 0.07786 0.17844 0.94765 0.0
C332 C 0.09387 0.1449 0.95151 0.0
C333 C 0.13122 0.13989 0.94296 0.0
C334 C 0.08313 0.24232 0.92945 0.0
C335 C 0.07174 0.11433 0.9654 0.0
H336 H 0.98269 0.20216 0.04239 0.0
H337 H 0.9537 0.1614 0.91753 0.0
H338 H 0.07264 0.18212 0.03906 0.0
H339 H 0.07537 0.2257 0.02216 0.0
H340 H 0.0433 0.21663 0.06256 0.0
H341 H 0.99672 0.16026 0.86186 0.0
H342 H 0.0412 0.18069 0.87087 0.0
H343 H 0.03448 0.13542 0.88072 0.0
H344 H 0.15438 0.22316 0.92086 0.0
H345 H 0.14285 0.11373 0.9445 0.0
H346 H 0.07343 0.25496 0.95994 0.0
H347 H 0.05888 0.23919 0.90837 0.0
H348 H 0.10309 0.26038 0.91614 0.0
H349 H 0.05838 0.12222 0.99587 0.0
H350 H 0.08886 0.09049 0.96886 0.0
H351 H 0.04962 0.10703 0.94238 0.0
C352 C 0.25549 0.43137 0.52515 0.0
C353 C 0.29389 0.42799 0.52548 0.0
C354 C 0.23856 0.46026 0.50805 0.0
C355 C 0.26066 0.48625 0.49125 0.0
C356 C 0.2993 0.4821 0.49009 0.0
C357 C 0.31531 0.45306 0.50701 0.0
C358 C 0.19729 0.46359 0.50937 0.0
C359 C 0.32405 0.50904 0.4723 0.0
C360 C 0.23698 0.55615 0.41951 0.0
C361 C 0.24155 0.58661 0.44713 0.0
C362 C 0.23843 0.52237 0.43425 0.0
C363 C 0.24466 0.51937 0.47741 0.0
C364 C 0.24441 0.55019 0.50584 0.0
C365 C 0.24301 0.58352 0.49027 0.0
C366 C 0.2378 0.49016 0.40304 0.0
C367 C 0.25039 0.54825 0.55216 0.0
H368 H 0.23871 0.41198 0.5391 0.0
H369 H 0.34496 0.45044 0.50645 0.0
H370 H 0.18943 0.484 0.53472 0.0
H371 H 0.18646 0.47221 0.47954 0.0
H372 H 0.1839 0.43823 0.51548 0.0
H373 H 0.35344 0.50114 0.47246 0.0
H374 H 0.31592 0.51272 0.43962 0.0
H375 H 0.32126 0.53504 0.49085 0.0
H376 H 0.23576 0.55856 0.38611 0.0
H377 H 0.24611 0.60721 0.5116 0.0
H378 H 0.22313 0.46788 0.41583 0.0
H379 H 0.2664 0.48144 0.39611 0.0
H380 H 0.22449 0.49595 0.37318 0.0
H381 H 0.23431 0.52627 0.56363 0.0
H382 H 0.24265 0.57338 0.57053 0.0
H383 H 0.27987 0.54303 0.55808 0.0
C384 C 0.06342 0.84844 0.9449 0.0
C385 C 0.09507 0.82856 0.95171 0.0
C386 C 0.04662 0.84726 0.90561 0.0
C387 C 0.06184 0.82577 0.87166 0.0
C388 C 0.0936 0.80523 0.8781 0.0
C389 C 0.10985 0.80675 0.91825 0.0
C390 C 0.01254 0.86937 0.90054 0.0
C391 C 0.11071 0.78226 0.84254 0.0
C392 C 0.98814 0.81224 0.78935 0.0
C393 C 0.99337 0.84238 0.76769 0.0
C394 C 0.01306 0.80367 0.82039 0.0
C395 C 0.04386 0.8258 0.82989 0.0
C396 C 0.05152 0.85366 0.8046 0.0
C397 C 0.02604 0.86175 0.77391 0.0
C398 C 0.00391 0.77358 0.84633 0.0
C399 C 0.08436 0.87753 0.81308 0.0
H400 H 0.05143 0.86509 0.97055 0.0
H401 H 0.13435 0.79141 0.92325 0.0
H402 H 0.01762 0.88885 0.87738 0.0
H403 H 0.98946 0.85219 0.88855 0.0
H404 H 0.00384 0.88406 0.93039 0.0
H405 H 0.13301 0.76527 0.85345 0.0
H406 H 0.08962 0.76511 0.82594 0.0
H407 H 0.12232 0.79928 0.81948 0.0
H408 H 0.96294 0.79713 0.78477 0.0
H409 H 0.03049 0.88472 0.7567 0.0
H410 H 0.99114 0.78445 0.87613 0.0
H411 H 0.02903 0.759 0.85427 0.0
H412 H 0.98427 0.75464 0.82987 0.0
H413 H 0.07853 0.89675 0.84042 0.0
H414 H 0.09073 0.89265 0.78589 0.0
H415 H 0.10893 0.86203 0.82075 0.0
C416 C 0.87392 0.0462 0.91366 0.0
C417 C 0.85673 0.07857 0.90793 0.0
C418 C 0.88185 0.02164 0.87985 0.0
C419 C 0.87255 0.02949 0.83885 0.0
C420 C 0.85509 0.06204 0.83253 0.0
C421 C 0.84723 0.08627 0.8673 0.0
C422 C 0.90022 0.98715 0.88821 0.0
C423 C 0.84499 0.07125 0.78917 0.0
C424 C 0.92794 0.96969 0.7627 0.0
C425 C 0.90428 0.94052 0.75609 0.0
C426 C 0.91657 0.00084 0.7861 0.0
C427 C 0.88083 0.00268 0.80344 0.0
C428 C 0.8558 0.97459 0.79357 0.0
C429 C 0.86786 0.94381 0.77013 0.0
C430 C 0.94398 0.03037 0.79551 0.0
C431 C 0.81748 0.97536 0.81145 0.0
H432 H 0.88124 0.03981 0.9449 0.0
H433 H 0.83415 0.11131 0.86264 0.0
H434 H 0.88268 0.96445 0.87644 0.0
H435 H 0.92676 0.98443 0.87135 0.0
H436 H 0.90559 0.98522 0.92205 0.0
H437 H 0.83158 0.0976 0.78952 0.0
H438 H 0.86998 0.07123 0.76947 0.0
H439 H 0.82612 0.05093 0.77409 0.0
H440 H 0.95591 0.96754 0.75128 0.0
H441 H 0.8494 0.92137 0.76551 0.0
H442 H 0.95485 0.02925 0.82773 0.0
H443 H 0.93076 0.0566 0.79403 0.0
H444 H 0.96749 0.02817 0.77345 0.0
H445 H 0.81886 0.97006 0.8449 0.0
H446 H 0.79948 0.95504 0.79473 0.0
H447 H 0.8047 0.00178 0.80994 0.0
C448 C 0.38733 0.3483 0.4155 0.0
C449 C 0.39423 0.32095 0.44115 0.0
C450 C 0.4066 0.3503 0.37808 0.0
C451 C 0.43354 0.32444 0.36624 0.0
C452 C 0.43785 0.29482 0.38976 0.0
C453 C 0.41799 0.29335 0.42699 0.0
C454 C 0.40074 0.38206 0.35359 0.0
C455 C 0.46608 0.26653 0.37801 0.0
C456 C 0.48335 0.33179 0.26317 0.0
C457 C 0.51346 0.35285 0.27681 0.0
C458 C 0.45724 0.32146 0.29194 0.0
C459 C 0.46176 0.33229 0.33508 0.0
C460 C 0.49288 0.35252 0.34893 0.0
C461 C 0.51827 0.36251 0.31964 0.0
C462 C 0.4244 0.29989 0.27615 0.0
C463 C 0.49906 0.36433 0.3947 0.0
H464 H 0.36843 0.36937 0.42591 0.0
H465 H 0.42323 0.27195 0.44648 0.0
H466 H 0.42397 0.4008 0.35966 0.0
H467 H 0.40004 0.37405 0.31949 0.0
H468 H 0.37485 0.39625 0.36256 0.0
H469 H 0.46096 0.24217 0.39395 0.0
H470 H 0.46635 0.25952 0.34369 0.0
H471 H 0.49376 0.27672 0.38732 0.0
H472 H 0.4798 0.3242 0.23001 0.0
H473 H 0.54204 0.3781 0.33027 0.0
H474 H 0.39918 0.31622 0.28046 0.0
H475 H 0.42084 0.27664 0.29441 0.0
H476 H 0.42688 0.2905 0.24246 0.0
H477 H 0.47633 0.38199 0.40647 0.0
H478 H 0.5254 0.3788 0.40031 0.0
H479 H 0.49912 0.34109 0.4134 0.0
C480 C 0.24482 0.94078 0.03158 0.0
C481 C 0.20694 0.93551 0.0254 0.0
C482 C 0.26269 0.97005 0.01692 0.0
C483 C 0.24193 0.99501 0.99656 0.0
C484 C 0.20394 0.98905 0.98882 0.0
C485 C 0.18702 0.95916 0.00295 0.0
C486 C 0.30333 0.97491 0.02484 0.0
C487 C 0.18068 0.01513 0.96734 0.0
C488 C 0.25829 0.09289 0.00066 0.0
C489 C 0.26341 0.09674 0.95804 0.0
C490 C 0.25541 0.05919 0.01502 0.0
C491 C 0.25845 0.0289 0.98604 0.0
C492 C 0.26971 0.03278 0.94452 0.0
C493 C 0.27192 0.06687 0.93084 0.0
C494 C 0.24404 0.05628 0.05979 0.0
C495 C 0.27483 0.00107 0.91318 0.0
H496 H 0.26046 0.9223 0.04853 0.0
H497 H 0.15777 0.95524 0.99806 0.0
H498 H 0.31709 0.98564 0.99788 0.0
H499 H 0.30759 0.9941 0.05262 0.0
H500 H 0.31681 0.9496 0.03107 0.0
H501 H 0.15177 0.00614 0.96291 0.0
H502 H 0.1807 0.04118 0.98615 0.0
H503 H 0.19233 0.01923 0.93624 0.0
H504 H 0.25228 0.11612 0.02179 0.0
H505 H 0.27615 0.06975 0.89787 0.0
H506 H 0.25937 0.03479 0.07345 0.0
H507 H 0.21437 0.04966 0.06062 0.0
H508 H 0.24862 0.08144 0.07967 0.0
H509 H 0.28826 0.97899 0.92789 0.0
H510 H 0.29154 0.00778 0.88607 0.0
H511 H 0.24757 0.99162 0.9013 0.0
C512 C 0.51366 0.71118 0.47708 0.0
C513 C 0.53123 0.67812 0.47147 0.0
C514 C 0.47606 0.7146 0.46804 0.0
C515 C 0.45556 0.68419 0.45353 0.0
C516 C 0.47345 0.65105 0.44637 0.0
C517 C 0.51103 0.64847 0.45513 0.0
C518 C 0.45806 0.75048 0.47527 0.0
C519 C 0.45257 0.61791 0.43105 0.0
C520 C 0.35386 0.67534 0.47462 0.0
C521 C 0.33884 0.6766 0.43443 0.0
C522 C 0.39168 0.67972 0.48178 0.0
C523 C 0.41502 0.68612 0.44807 0.0
C524 C 0.3997 0.6902 0.40817 0.0
C525 C 0.36182 0.68513 0.40173 0.0
C526 C 0.4069 0.67511 0.52481 0.0
C527 C 0.42359 0.69762 0.3716 0.0
H528 H 0.52906 0.73429 0.48939 0.0
H529 H 0.52428 0.62282 0.45047 0.0
H530 H 0.44185 0.75631 0.44734 0.0
H531 H 0.43869 0.75055 0.50189 0.0
H532 H 0.47843 0.77202 0.48236 0.0
H533 H 0.4708 0.59444 0.42567 0.0
H534 H 0.43148 0.61216 0.4544 0.0
H535 H 0.438 0.62184 0.4014 0.0
H536 H 0.33619 0.66949 0.50024 0.0
H537 H 0.35064 0.68591 0.37047 0.0
H538 H 0.42538 0.69743 0.5353 0.0
H539 H 0.42345 0.65045 0.52366 0.0
H540 H 0.38488 0.67343 0.54844 0.0
H541 H 0.44375 0.71884 0.38097 0.0
H542 H 0.40713 0.70563 0.34478 0.0
H543 H 0.43935 0.67344 0.36095 0.0
C544 C 0.40571 0.44495 0.66578 0.0
C545 C 0.37683 0.42129 0.67081 0.0
C546 C 0.41276 0.47323 0.69599 0.0
C547 C 0.39107 0.47731 0.73267 0.0
C548 C 0.36315 0.45236 0.73895 0.0
C549 C 0.35595 0.42493 0.70757 0.0
C550 C 0.44227 0.49969 0.68765 0.0
C551 C 0.34027 0.45518 0.77825 0.0
C552 C 0.43123 0.54149 0.81856 0.0
C553 C 0.41154 0.57238 0.81263 0.0
C554 C 0.42335 0.5096 0.79443 0.0
C555 C 0.39608 0.50914 0.76277 0.0
C556 C 0.37548 0.54018 0.75757 0.0
C557 C 0.3832 0.57135 0.78297 0.0
C558 C 0.44513 0.47682 0.80172 0.0
C559 C 0.34679 0.54107 0.72355 0.0
H560 H 0.42174 0.44236 0.63725 0.0
H561 H 0.3338 0.40644 0.71165 0.0
H562 H 0.42973 0.52619 0.68568 0.0
H563 H 0.46237 0.50217 0.71379 0.0
H564 H 0.45727 0.4922 0.65808 0.0
H565 H 0.32266 0.4315 0.78047 0.0
H566 H 0.35826 0.45856 0.80633 0.0
H567 H 0.32234 0.47888 0.77883 0.0
H568 H 0.45324 0.54251 0.8415 0.0
H569 H 0.36842 0.5955 0.77813 0.0
H570 H 0.46403 0.47033 0.7751 0.0
H571 H 0.42651 0.45383 0.80347 0.0
H572 H 0.46168 0.48034 0.83097 0.0
H573 H 0.36003 0.53618 0.69246 0.0
H574 H 0.33218 0.56688 0.72482 0.0
H575 H 0.32626 0.51977 0.72611 0.0
C576 C 0.01239 0.85446 0.12101 0.0
C577 C 0.03509 0.8258 0.10765 0.0
C578 C 0.97523 0.84925 0.12997 0.0
C579 C 0.96053 0.81451 0.126 0.0
C580 C 0.98369 0.78531 0.1146 0.0
C581 C 0.02068 0.79132 0.10533 0.0
C582 C 0.95134 0.88113 0.14195 0.0
C583 C 0.96913 0.74787 0.11075 0.0
C584 C 0.86694 0.80851 0.17614 0.0
C585 C 0.84372 0.81313 0.14207 0.0
C586 C 0.90518 0.80643 0.17096 0.0
C587 C 0.92037 0.80936 0.13087 0.0
C588 C 0.89688 0.81129 0.09589 0.0
C589 C 0.85881 0.81294 0.1019 0.0
C590 C 0.92933 0.80373 0.20889 0.0
C591 C 0.91199 0.81431 0.05256 0.0
H592 H 0.02328 0.88117 0.12299 0.0
H593 H 0.03817 0.76897 0.09549 0.0
H594 H 0.93 0.88351 0.11756 0.0
H595 H 0.93693 0.87788 0.17178 0.0
H596 H 0.96735 0.90616 0.1456 0.0
H597 H 0.99146 0.72793 0.10618 0.0
H598 H 0.95335 0.74272 0.13911 0.0
H599 H 0.95002 0.74417 0.08369 0.0
H600 H 0.85549 0.80888 0.20733 0.0
H601 H 0.84086 0.81602 0.07542 0.0
H602 H 0.94238 0.82978 0.21779 0.0
H603 H 0.95168 0.78422 0.20187 0.0
H604 H 0.91349 0.7959 0.23613 0.0
H605 H 0.92593 0.84027 0.05165 0.0
H606 H 0.89012 0.81221 0.02821 0.0
H607 H 0.93274 0.79339 0.04461 0.0
C608 C 0.67625 0.55126 0.59057 0.0
C609 C 0.69801 0.57019 0.5643 0.0
C610 C 0.68959 0.52074 0.60701 0.0
C611 C 0.72586 0.50917 0.59763 0.0
C612 C 0.74886 0.52948 0.57356 0.0
C613 C 0.73453 0.55962 0.55679 0.0
C614 C 0.66402 0.49974 0.63239 0.0
C615 C 0.78798 0.51852 0.56389 0.0
C616 C 0.75261 0.43586 0.66433 0.0
C617 C 0.74102 0.40608 0.63854 0.0
C618 C 0.75129 0.4698 0.65001 0.0
C619 C 0.73763 0.47383 0.60931 0.0
C620 C 0.72937 0.44347 0.58194 0.0
C621 C 0.73149 0.40993 0.59682 0.0
C622 C 0.76146 0.50148 0.67965 0.0
C623 C 0.71478 0.44649 0.53826 0.0
H624 H 0.64808 0.55931 0.5968 0.0
H625 H 0.7517 0.57441 0.53698 0.0
H626 H 0.65862 0.47345 0.61535 0.0
H627 H 0.67691 0.49507 0.66278 0.0
H628 H 0.63729 0.51333 0.63864 0.0
H629 H 0.80414 0.54037 0.55207 0.0
H630 H 0.80183 0.50983 0.59209 0.0
H631 H 0.78811 0.49577 0.5396 0.0
H632 H 0.7601 0.43303 0.6966 0.0
H633 H 0.72326 0.38681 0.57659 0.0
H634 H 0.73608 0.51415 0.69289 0.0
H635 H 0.77639 0.5215 0.66301 0.0
H636 H 0.77876 0.49383 0.70598 0.0
H637 H 0.68662 0.45776 0.54017 0.0
H638 H 0.71361 0.42041 0.51951 0.0
H639 H 0.73208 0.46466 0.52152 0.0
C640 C 0.93908 0.15975 0.14493 0.0
C641 C 0.90587 0.1773 0.13863 0.0
C642 C 0.95464 0.15944 0.18474 0.0
C643 C 0.93659 0.17711 0.2196 0.0
C644 C 0.90355 0.19586 0.21355 0.0
C645 C 0.88852 0.1958 0.17294 0.0
C646 C 0.99016 0.13942 0.18945 0.0
C647 C 0.88358 0.215 0.24997 0.0
C648 C 0.96917 0.13477 0.31468 0.0
C649 C 0.00022 0.15545 0.32573 0.0
C650 C 0.94516 0.14393 0.28307 0.0
C651 C 0.95254 0.17441 0.26198 0.0
C652 C 0.98135 0.1975 0.27638 0.0
C653 C 0.00496 0.18769 0.30806 0.0
C654 C 0.91442 0.11884 0.26917 0.0
C655 C 0.98991 0.23047 0.25516 0.0
H656 H 0.95303 0.14581 0.11855 0.0
H657 H 0.86282 0.20936 0.16825 0.0
H658 H 0.01132 0.15729 0.20474 0.0
H659 H 0.98576 0.11758 0.20972 0.0
H660 H 0.00112 0.1279 0.15894 0.0
H661 H 0.86154 0.2325 0.23951 0.0
H662 H 0.87094 0.19534 0.26917 0.0
H663 H 0.90298 0.23115 0.27048 0.0
H664 H 0.96497 0.11019 0.32888 0.0
H665 H 0.02887 0.20388 0.31639 0.0
H666 H 0.92267 0.10276 0.24009 0.0
H667 H 0.88921 0.13364 0.26208 0.0
H668 H 0.90791 0.10051 0.29328 0.0
H669 H 0.00484 0.22297 0.22558 0.0
H670 H 0.00742 0.24914 0.27516 0.0
H671 H 0.96435 0.24431 0.24709 0.0
C672 C 0.21226 0.76359 0.18552 0.0
C673 C 0.17646 0.77047 0.17225 0.0
C674 C 0.21861 0.74455 0.22025 0.0
C675 C 0.1884 0.73261 0.24282 0.0
C676 C 0.15212 0.73905 0.22933 0.0
C677 C 0.14655 0.75768 0.19385 0.0
C678 C 0.25776 0.73771 0.23316 0.0
C679 C 0.11929 0.72715 0.25301 0.0
C680 C 0.21443 0.66176 0.31359 0.0
C681 C 0.22334 0.68247 0.35061 0.0
C682 C 0.20071 0.67747 0.27872 0.0
C683 C 0.1954 0.71462 0.28135 0.0
C684 C 0.20178 0.73519 0.31976 0.0
C685 C 0.21606 0.71888 0.35385 0.0
C686 C 0.19465 0.65469 0.23822 0.0
C687 C 0.19585 0.77477 0.32406 0.0
H688 H 0.23547 0.7731 0.16865 0.0
H689 H 0.11883 0.76314 0.18375 0.0
H690 H 0.26326 0.75136 0.26461 0.0
H691 H 0.26209 0.70896 0.23531 0.0
H692 H 0.27808 0.7471 0.21088 0.0
H693 H 0.09294 0.73259 0.23723 0.0
H694 H 0.1211 0.69837 0.25658 0.0
H695 H 0.11906 0.74105 0.28496 0.0
H696 H 0.22034 0.63361 0.31106 0.0
H697 H 0.22272 0.73478 0.38268 0.0
H698 H 0.21655 0.66017 0.21571 0.0
H699 H 0.16799 0.66107 0.22385 0.0
H700 H 0.1952 0.62599 0.24279 0.0
H701 H 0.2174 0.78772 0.30639 0.0
H702 H 0.19702 0.78602 0.35723 0.0
H703 H 0.16889 0.78147 0.3106 0.0
C704 C 0.76534 0.70654 0.58998 0.0
C705 C 0.7396 0.72493 0.56752 0.0
C706 C 0.79402 0.72451 0.61215 0.0
C707 C 0.79735 0.76162 0.61116 0.0
C708 C 0.77169 0.78025 0.58814 0.0
C709 C 0.74289 0.76172 0.56692 0.0
C710 C 0.82041 0.70389 0.63709 0.0
C711 C 0.77465 0.81979 0.58593 0.0
C712 C 0.84621 0.81725 0.69823 0.0
C713 C 0.88026 0.82305 0.67993 0.0
C714 C 0.81943 0.79626 0.67667 0.0
C715 C 0.82675 0.78132 0.63552 0.0
C716 C 0.86147 0.78658 0.61719 0.0
C717 C 0.88808 0.80722 0.6399 0.0
C718 C 0.78303 0.79073 0.69757 0.0
C719 C 0.87001 0.77146 0.57317 0.0
H720 H 0.76278 0.6781 0.59066 0.0
H721 H 0.72328 0.776 0.54927 0.0
H722 H 0.84897 0.7078 0.6265 0.0
H723 H 0.81916 0.71387 0.67065 0.0
H724 H 0.81429 0.67507 0.63418 0.0
H725 H 0.75348 0.83003 0.56509 0.0
H726 H 0.77156 0.83365 0.61767 0.0
H727 H 0.8022 0.82659 0.57433 0.0
H728 H 0.84048 0.82948 0.7294 0.0
H729 H 0.91449 0.81198 0.62593 0.0
H730 H 0.7767 0.76204 0.69662 0.0
H731 H 0.76074 0.80328 0.68042 0.0
H732 H 0.78271 0.80215 0.7307 0.0
H733 H 0.86545 0.74241 0.56997 0.0
H734 H 0.89876 0.77683 0.56411 0.0
H735 H 0.85116 0.78308 0.55083 0.0
C736 C 0.76164 0.25353 0.09818 0.0
C737 C 0.75509 0.22236 0.07234 0.0
C738 C 0.73261 0.27255 0.118 0.0
C739 C 0.69613 0.26037 0.11124 0.0
C740 C 0.68933 0.22873 0.08554 0.0
C741 C 0.71897 0.2099 0.06664 0.0
C742 C 0.74097 0.30588 0.14584 0.0
C743 C 0.65073 0.21523 0.07728 0.0
C744 C 0.62636 0.29697 0.19105 0.0
C745 C 0.61249 0.326 0.17185 0.0
C746 C 0.65276 0.27456 0.17105 0.0
C747 C 0.6652 0.28123 0.13076 0.0
C748 C 0.64993 0.30949 0.1104 0.0
C749 C 0.62393 0.33179 0.1314 0.0
C750 C 0.66874 0.24497 0.19395 0.0
C751 C 0.6621 0.31702 0.06714 0.0
H752 H 0.78954 0.26309 0.10293 0.0
H753 H 0.71372 0.18592 0.04648 0.0
H754 H 0.72797 0.32899 0.13281 0.0
H755 H 0.72925 0.30396 0.17743 0.0
H756 H 0.77095 0.31094 0.14913 0.0
H757 H 0.65018 0.18978 0.0572 0.0
H758 H 0.63682 0.21138 0.10724 0.0
H759 H 0.63457 0.23513 0.06166 0.0
H760 H 0.61789 0.29282 0.22261 0.0
H761 H 0.61306 0.35422 0.1166 0.0
H762 H 0.69809 0.25062 0.20126 0.0
H763 H 0.66762 0.21956 0.17394 0.0
H764 H 0.65411 0.24165 0.22367 0.0
H765 H 0.69114 0.32595 0.06825 0.0
H766 H 0.64509 0.33782 0.05417 0.0
H767 H 0.66068 0.29256 0.04544 0.0
C768 C 0.34833 0.27639 0.71087 0.0
C769 C 0.3275 0.26935 0.67438 0.0
C770 C 0.34107 0.25858 0.74645 0.0
C771 C 0.31125 0.23453 0.74573 0.0
C772 C 0.29057 0.22702 0.70848 0.0
C773 C 0.29943 0.24414 0.67292 0.0
C774 C 0.36459 0.26619 0.78505 0.0
C775 C 0.25786 0.20242 0.70682 0.0
C776 C 0.29501 0.16965 0.82716 0.0
C777 C 0.26943 0.1882 0.85348 0.0
C778 C 0.31064 0.1852 0.79329 0.0
C779 C 0.29944 0.21956 0.7847 0.0
C780 C 0.2746 0.23883 0.81182 0.0
C781 C 0.26058 0.22322 0.84633 0.0
C782 C 0.33813 0.16439 0.76587 0.0
C783 C 0.2614 0.27532 0.80331 0.0
H784 H 0.37016 0.2959 0.71156 0.0
H785 H 0.28325 0.23914 0.64453 0.0
H786 H 0.34861 0.28171 0.80969 0.0
H787 H 0.37294 0.2411 0.79776 0.0
H788 H 0.38967 0.28145 0.77855 0.0
H789 H 0.24526 0.19882 0.67512 0.0
H790 H 0.26605 0.1761 0.71622 0.0
H791 H 0.23671 0.21322 0.72932 0.0
H792 H 0.30197 0.14253 0.83199 0.0
H793 H 0.24182 0.23827 0.86719 0.0
H794 H 0.3621 0.1812 0.75968 0.0
H795 H 0.32531 0.15573 0.73524 0.0
H796 H 0.34803 0.14053 0.78025 0.0
H797 H 0.28505 0.29354 0.80164 0.0
H798 H 0.2422 0.28684 0.82771 0.0
H799 H 0.24715 0.27394 0.77256 0.0
C800 C 0.64742 0.73981 0.38213 0.0
C801 C 0.67676 0.72908 0.40647 0.0
C802 C 0.6539 0.75587 0.34505 0.0
C803 C 0.69051 0.76182 0.3327 0.0
C804 C 0.72013 0.75178 0.35777 0.0
C805 C 0.71289 0.73524 0.39413 0.0
C806 C 0.62173 0.76575 0.31866 0.0
C807 C 0.75958 0.75822 0.34603 0.0
C808 C 0.72085 0.77092 0.22168 0.0
C809 C 0.72731 0.80741 0.22296 0.0
C810 C 0.70612 0.75593 0.25634 0.0
C811 C 0.69843 0.77798 0.29327 0.0
C812 C 0.70304 0.8151 0.29387 0.0
C813 C 0.71726 0.82942 0.2585 0.0
C814 C 0.70095 0.71629 0.2543 0.0
C815 C 0.6956 0.83941 0.33281 0.0
H816 H 0.61946 0.73479 0.39148 0.0
H817 H 0.73563 0.72724 0.41305 0.0
H818 H 0.62299 0.79427 0.3135 0.0
H819 H 0.62302 0.75062 0.28745 0.0
H820 H 0.59494 0.76029 0.33327 0.0
H821 H 0.77933 0.75014 0.36988 0.0
H822 H 0.76597 0.7432 0.31564 0.0
H823 H 0.76386 0.78672 0.34212 0.0
H824 H 0.7284 0.754 0.19398 0.0
H825 H 0.72258 0.85764 0.25957 0.0
H826 H 0.67375 0.70972 0.26704 0.0
H827 H 0.7222 0.70464 0.2738 0.0
H828 H 0.70319 0.70364 0.2218 0.0
H829 H 0.6685 0.83347 0.34623 0.0
H830 H 0.69619 0.86777 0.32659 0.0
H831 H 0.71674 0.83508 0.35683 0.0
C832 C 0.78714 0.24081 0.9053 0.0
C833 C 0.82309 0.23393 0.91798 0.0
C834 C 0.78034 0.25843 0.86959 0.0
C835 C 0.81025 0.26887 0.84544 0.0
C836 C 0.84671 0.26264 0.85847 0.0
C837 C 0.85274 0.24546 0.89496 0.0
C838 C 0.74102 0.26514 0.85723 0.0
C839 C 0.87919 0.27299 0.83314 0.0
C840 C 0.77871 0.27691 0.73458 0.0
C841 C 0.77083 0.31315 0.73592 0.0
C842 C 0.79487 0.2625 0.76896 0.0
C843 C 0.8026 0.28486 0.80572 0.0
C844 C 0.79711 0.32186 0.80606 0.0
C845 C 0.78142 0.33563 0.77095 0.0
C846 C 0.80096 0.22299 0.76708 0.0
C847 C 0.80468 0.34652 0.84473 0.0
H848 H 0.76417 0.23226 0.92332 0.0
H849 H 0.88056 0.23992 0.90464 0.0
H850 H 0.73695 0.29364 0.85315 0.0
H851 H 0.7347 0.25006 0.8268 0.0
H852 H 0.72106 0.25723 0.8808 0.0
H853 H 0.90573 0.2688 0.84918 0.0
H854 H 0.87922 0.257 0.80242 0.0
H855 H 0.87716 0.3012 0.82678 0.0
H856 H 0.77077 0.25963 0.70725 0.0
H857 H 0.7751 0.36365 0.77204 0.0
H858 H 0.7798 0.21092 0.78616 0.0
H859 H 0.82821 0.21698 0.78033 0.0
H860 H 0.79919 0.2103 0.73454 0.0
H861 H 0.78318 0.3429 0.86841 0.0
H862 H 0.80462 0.37474 0.83788 0.0
H863 H 0.83152 0.34037 0.85884 0.0
C864 C 0.21843 0.28059 0.53997 0.0
C865 C 0.25355 0.27459 0.52279 0.0
C866 C 0.18757 0.26262 0.52236 0.0
C867 C 0.19198 0.23804 0.48685 0.0
C868 C 0.22723 0.23222 0.46907 0.0
C869 C 0.25753 0.25061 0.48717 0.0
C870 C 0.15033 0.26966 0.54192 0.0
C871 C 0.23305 0.20618 0.43118 0.0
C872 C 0.12479 0.16313 0.45957 0.0
C873 C 0.10655 0.17494 0.42484 0.0
C874 C 0.15151 0.18416 0.4814 0.0
C875 C 0.16002 0.21787 0.46828 0.0
C876 C 0.14022 0.23079 0.43478 0.0
C877 C 0.11381 0.20911 0.41335 0.0
C878 C 0.17197 0.16951 0.51707 0.0
C879 C 0.14838 0.26669 0.42003 0.0
H880 H 0.21504 0.29916 0.5674 0.0
H881 H 0.28448 0.24582 0.47357 0.0
H882 H 0.13077 0.27827 0.51825 0.0
H883 H 0.13924 0.24493 0.55304 0.0
H884 H 0.15138 0.29031 0.56876 0.0
H885 H 0.26218 0.20497 0.42094 0.0
H886 H 0.22442 0.1793 0.43828 0.0
H887 H 0.21583 0.21362 0.40474 0.0
H888 H 0.11891 0.13695 0.46894 0.0
H889 H 0.10019 0.21831 0.38624 0.0
H890 H 0.17207 0.189 0.54501 0.0
H891 H 0.20102 0.16452 0.50797 0.0
H892 H 0.15983 0.14433 0.52582 0.0
H893 H 0.14911 0.28724 0.4469 0.0
H894 H 0.12775 0.27451 0.39697 0.0
H895 H 0.17585 0.26622 0.40513 0.0
C896 C 0.24687 0.74504 0.01568 0.0
C897 C 0.24378 0.78194 0.01623 0.0
C898 C 0.27497 0.72667 0.99324 0.0
C899 C 0.30002 0.74557 0.96998 0.0
C900 C 0.29697 0.78284 0.97028 0.0
C901 C 0.2691 0.80066 0.99386 0.0
C902 C 0.27778 0.687 0.99438 0.0
C903 C 0.32269 0.80376 0.9451 0.0
C904 C 0.39 0.70035 0.93785 0.0
C905 C 0.3813 0.68512 0.89767 0.0
C906 C 0.36389 0.72046 0.96173 0.0
C907 C 0.32871 0.72603 0.94445 0.0
C908 C 0.32032 0.71157 0.90328 0.0
C909 C 0.34663 0.69092 0.88055 0.0
C910 C 0.37356 0.73487 0.0058 0.0
C911 C 0.28341 0.71754 0.88345 0.0
H912 H 0.22757 0.73052 0.03331 0.0
H913 H 0.26662 0.82919 0.99408 0.0
H914 H 0.27356 0.67369 0.96251 0.0
H915 H 0.30567 0.67977 0.00481 0.0
H916 H 0.25727 0.67655 0.01567 0.0
H917 H 0.3168 0.83263 0.94894 0.0
H918 H 0.35155 0.79946 0.95463 0.0
H919 H 0.32035 0.7944 0.91142 0.0
H920 H 0.41687 0.69567 0.95095 0.0
H921 H 0.3402 0.67937 0.84922 0.0
H922 H 0.35497 0.72327 0.02827 0.0
H923 H 0.36954 0.76398 0.00959 0.0
H924 H 0.40239 0.7289 0.01419 0.0
H925 H 0.26152 0.70498 0.901 0.0
H926 H 0.28217 0.70645 0.85023 0.0
H927 H 0.27728 0.7463 0.88497 0.0
loop_
_geom_bond_atom_site_label_1
_geom_bond_atom_site_label_2
_geom_bond_distance
_geom_bond_site_symmetry_2
_ccdc_geom_bond_type
Fe0 O2 1.918 . S
Fe0 O5 1.997 . S
Fe0 O6 2.002 . S
Fe0 O11 1.976 . S
Fe0 O14 1.996 . S
Fe1 O2 1.918 . S
Fe1 O9 1.997 . S
Fe1 O12 1.996 . S
Fe1 O16 1.976 . S
Fe1 O19 2.002 . S
O2 Fe0 1.918 . S
O2 Fe1 1.918 . S
O2 Fe3 1.918 . S
Fe3 O2 1.918 . S
Fe3 O4 2.002 . S
Fe3 O13 1.976 . S
Fe3 O17 1.996 1_554 S
Fe3 O20 1.997 . S
O4 Fe3 2.002 . S
O4 C21 1.295 . S
O5 Fe0 1.997 . S
O5 C21 1.235 . S
O6 Fe0 2.002 . S
O6 C7 1.295 . S
C7 O6 1.295 . S
C7 O9 1.235 . S
C8 O13 1.287 . S
C8 O14 1.255 . S
O9 Fe1 1.997 . S
O9 C7 1.235 . S
C10 O16 1.287 1_556 S
C10 O17 1.254 . S
O11 Fe0 1.976 . S
O11 C18 1.287 . S
O12 Fe1 1.996 . S
O12 C18 1.255 . S
O13 Fe3 1.976 . S
O13 C8 1.287 . S
O14 Fe0 1.996 . S
O14 C8 1.255 . S
C15 O19 1.295 . S
C15 O20 1.235 . S
O16 Fe1 1.976 . S
O16 C10 1.287 1_554 S
O17 Fe3 1.996 1_556 S
O17 C10 1.254 . S
C18 O11 1.287 . S
C18 O12 1.255 . S
O19 Fe1 2.002 . S
O19 C15 1.295 . S
O20 Fe3 1.997 . S
O20 C15 1.235 . S
C21 O4 1.295 . S
C21 O5 1.235 . S
Fe22 O24 1.918 . S
Fe22 O27 1.997 . S
Fe22 O28 2.002 . S
Fe22 O33 1.976 . S
Fe22 O36 1.996 . S
Fe23 O24 1.918 . S
Fe23 O31 1.997 . S
Fe23 O34 1.996 . S
Fe23 O38 1.976 . S
Fe23 O41 2.002 . S
O24 Fe22 1.918 . S
O24 Fe23 1.918 . S
O24 Fe25 1.918 . S
Fe25 O24 1.918 . S
Fe25 O26 2.002 . S
Fe25 O35 1.976 . S
Fe25 O39 1.996 . S
Fe25 O42 1.997 . S
O26 Fe25 2.002 . S
O26 C43 1.295 . S
O27 Fe22 1.997 . S
O27 C43 1.235 . S
O28 Fe22 2.002 . S
O28 C29 1.295 . S
C29 O28 1.295 . S
C29 O31 1.235 . S
C30 O35 1.287 . S
C30 O36 1.255 . S
O31 Fe23 1.997 . S
O31 C29 1.235 . S
C32 O38 1.287 . S
C32 O39 1.255 . S
O33 Fe22 1.976 . S
O33 C40 1.287 . S
O34 Fe23 1.996 . S
O34 C40 1.255 . S
O35 Fe25 1.976 . S
O35 C30 1.287 . S
O36 Fe22 1.996 . S
O36 C30 1.255 . S
C37 O41 1.295 . S
C37 O42 1.235 . S
O38 Fe23 1.976 . S
O38 C32 1.287 . S
O39 Fe25 1.996 . S
O39 C32 1.255 . S
C40 O33 1.287 . S
C40 O34 1.255 . S
O41 Fe23 2.002 . S
O41 C37 1.295 . S
O42 Fe25 1.997 . S
O42 C37 1.235 . S
C43 O26 1.295 . S
C43 O27 1.235 . S
Fe44 O46 1.918 . S
Fe44 O49 1.997 1_554 S
Fe44 O50 2.002 . S
Fe44 O55 1.976 . S
Fe44 O58 1.996 . S
Fe45 O46 1.918 . S
Fe45 O53 1.997 . S
Fe45 O56 1.996 . S
Fe45 O60 1.976 . S
Fe45 O63 2.002 1_554 S
O46 Fe44 1.918 . S
O46 Fe45 1.918 . S
O46 Fe47 1.918 1_554 S
Fe47 O46 1.918 1_556 S
Fe47 O48 2.002 . S
Fe47 O57 1.976 1_556 S
Fe47 O61 1.996 1_556 S
Fe47 O64 1.997 . S
O48 Fe47 2.002 . S
O48 C65 1.295 . S
O49 Fe44 1.997 1_556 S
O49 C65 1.235 . S
O50 Fe44 2.002 . S
O50 C51 1.295 1_554 S
C51 O50 1.295 1_556 S
C51 O53 1.235 1_556 S
C52 O57 1.287 . S
C52 O58 1.255 . S
O53 Fe45 1.997 . S
O53 C51 1.235 1_554 S
C54 O60 1.287 . S
C54 O61 1.255 . S
O55 Fe44 1.976 . S
O55 C62 1.287 . S
O56 Fe45 1.996 . S
O56 C62 1.255 . S
O57 Fe47 1.976 1_554 S
O57 C52 1.287 . S
O58 Fe44 1.996 . S
O58 C52 1.255 . S
C59 O63 1.295 . S
C59 O64 1.235 . S
O60 Fe45 1.976 . S
O60 C54 1.287 . S
O61 Fe47 1.996 1_554 S
O61 C54 1.255 . S
C62 O55 1.287 . S
C62 O56 1.255 . S
O63 Fe45 2.002 1_556 S
O63 C59 1.295 . S
O64 Fe47 1.997 . S
O64 C59 1.235 . S
C65 O48 1.295 . S
C65 O49 1.235 . S
Fe66 O68 1.918 . S
Fe66 O71 1.997 . S
Fe66 O72 2.002 . S
Fe66 O77 1.976 . S
Fe66 O80 1.996 . S
Fe67 O68 1.918 . S
Fe67 O75 1.997 . S
Fe67 O78 1.996 . S
Fe67 O82 1.976 . S
Fe67 O85 2.002 . S
O68 Fe66 1.918 . S
O68 Fe67 1.918 . S
O68 Fe69 1.918 . S
Fe69 O68 1.918 . S
Fe69 O70 2.002 . S
Fe69 O79 1.976 . S
Fe69 O83 1.996 . S
Fe69 O86 1.997 . S
O70 Fe69 2.002 . S
O70 C87 1.295 . S
O71 Fe66 1.997 . S
O71 C87 1.235 . S
O72 Fe66 2.002 . S
O72 C73 1.295 . S
C73 O72 1.295 . S
C73 O75 1.235 . S
C74 O79 1.287 . S
C74 O80 1.255 . S
O75 Fe67 1.997 . S
O75 C73 1.235 . S
C76 O82 1.287 . S
C76 O83 1.255 . S
O77 Fe66 1.976 . S
O77 C84 1.287 . S
O78 Fe67 1.996 . S
O78 C84 1.255 . S
O79 Fe69 1.976 . S
O79 C74 1.287 . S
O80 Fe66 1.996 . S
O80 C74 1.255 . S
C81 O85 1.295 . S
C81 O86 1.235 . S
O82 Fe67 1.976 . S
O82 C76 1.287 . S
O83 Fe69 1.996 . S
O83 C76 1.255 . S
C84 O77 1.287 . S
C84 O78 1.255 . S
O85 Fe67 2.002 . S
O85 C81 1.295 . S
O86 Fe69 1.997 . S
O86 C81 1.235 . S
C87 O70 1.295 . S
C87 O71 1.235 . S
H88 C91 0.931 . S
H89 C94 0.928 . S
H90 C96 0.930 . S
C91 H88 0.931 . S
C91 C92 1.413 . S
C91 C93 1.360 . S
C92 C91 1.413 . S
C92 C96 1.429 . S
C93 C91 1.360 . S
C93 C94 1.372 . S
C94 H89 0.928 . S
C94 C93 1.372 . S
C94 C95 1.404 . S
C95 C94 1.404 . S
C95 C96 1.391 . S
C96 H90 0.930 . S
C96 C92 1.429 . S
C96 C95 1.391 . S
H97 C100 0.931 . S
H98 C103 0.928 . S
H99 C105 0.930 . S
C100 H97 0.931 . S
C100 C101 1.413 . S
C100 C102 1.360 . S
C101 C100 1.413 . S
C101 C105 1.429 . S
C102 C100 1.360 . S
C102 C103 1.372 . S
C103 H98 0.928 . S
C103 C102 1.372 . S
C103 C104 1.404 . S
C104 C103 1.404 . S
C104 C105 1.391 . S
C105 H99 0.930 . S
C105 C101 1.429 . S
C105 C104 1.391 . S
H106 C109 0.931 . S
H107 C112 0.928 . S
H108 C114 0.930 . S
C109 H106 0.931 . S
C109 C110 1.413 . S
C109 C111 1.360 . S
C110 C109 1.413 . S
C110 C114 1.429 . S
C111 C109 1.360 . S
C111 C112 1.372 . S
C112 H107 0.928 . S
C112 C111 1.372 . S
C112 C113 1.404 . S
C113 C112 1.404 . S
C113 C114 1.391 . S
C114 H108 0.930 . S
C114 C110 1.429 . S
C114 C113 1.391 . S
H115 C118 0.931 . S
H116 C121 0.928 . S
H117 C123 0.930 . S
C118 H115 0.931 . S
C118 C119 1.413 . S
C118 C120 1.360 . S
C119 C118 1.413 . S
C119 C123 1.429 . S
C120 C118 1.360 . S
C120 C121 1.372 . S
C121 H116 0.928 . S
C121 C120 1.372 . S
C121 C122 1.404 . S
C122 C121 1.404 . S
C122 C123 1.391 . S
C123 H117 0.930 . S
C123 C119 1.429 . S
C123 C122 1.391 . S
H124 C127 0.931 . S
H125 C130 0.928 . S
H126 C132 0.930 . S
C127 H124 0.931 . S
C127 C128 1.413 . S
C127 C129 1.360 . S
C128 C127 1.413 . S
C128 C132 1.429 . S
C129 C127 1.360 . S
C129 C130 1.372 . S
C130 H125 0.928 . S
C130 C129 1.372 . S
C130 C131 1.404 . S
C131 C130 1.404 . S
C131 C132 1.391 . S
C132 H126 0.930 . S
C132 C128 1.429 . S
C132 C131 1.391 . S
H133 C136 0.931 . S
H134 C139 0.928 . S
H135 C141 0.930 . S
C136 H133 0.931 . S
C136 C137 1.413 . S
C136 C138 1.360 . S
C137 C136 1.413 . S
C137 C141 1.429 . S
C138 C136 1.360 . S
C138 C139 1.372 . S
C139 H134 0.928 . S
C139 C138 1.372 . S
C139 C140 1.404 . S
C140 C139 1.404 . S
C140 C141 1.391 . S
C141 H135 0.930 . S
C141 C137 1.429 . S
C141 C140 1.391 . S
H142 C145 0.931 . S
H143 C148 0.928 . S
H144 C150 0.930 . S
C145 H142 0.931 . S
C145 C146 1.413 . S
C145 C147 1.360 . S
C146 C145 1.413 . S
C146 C150 1.429 . S
C147 C145 1.360 . S
C147 C148 1.372 . S
C148 H143 0.928 . S
C148 C147 1.372 . S
C148 C149 1.404 . S
C149 C148 1.404 . S
C149 C150 1.391 . S
C150 H144 0.930 . S
C150 C146 1.429 . S
C150 C149 1.391 . S
H151 C154 0.931 . S
H152 C157 0.928 . S
H153 C159 0.930 . S
C154 H151 0.931 . S
C154 C155 1.413 . S
C154 C156 1.360 . S
C155 C154 1.413 . S
C155 C159 1.429 . S
C156 C154 1.360 . S
C156 C157 1.372 . S
C157 H152 0.928 . S
C157 C156 1.372 . S
C157 C158 1.404 . S
C158 C157 1.404 . S
C158 C159 1.391 . S
C159 H153 0.930 . S
C159 C155 1.429 . S
C159 C158 1.391 . S
C160 C161 1.391 . S
C160 C162 1.394 . S
C160 H176 0.931 . S
C161 C160 1.391 . S
C161 C165 1.376 . S
C162 C160 1.394 . S
C162 C163 1.369 . S
C162 C166 1.531 . S
C163 C162 1.369 . S
C163 C164 1.410 . S
C163 C171 1.503 1_565 S
C164 C163 1.410 . S
C164 C165 1.392 . S
C164 C167 1.511 . S
C165 C161 1.376 . S
C165 C164 1.392 . S
C165 H177 0.929 . S
C166 C162 1.531 . S
C166 H178 0.960 . S
C166 H179 0.982 . S
C166 H180 0.960 . S
C167 C164 1.511 . S
C167 H181 0.961 . S
C167 H182 0.961 . S
C167 H183 0.961 . S
C168 C169 1.370 . S
C168 C170 1.363 . S
C168 H184 0.931 . S
C169 C168 1.370 . S
C169 C173 1.408 . S
C170 C168 1.363 . S
C170 C171 1.370 . S
C170 C174 1.524 . S
C171 C163 1.503 1_545 S
C171 C170 1.370 . S
C171 C172 1.403 . S
C172 C171 1.403 . S
C172 C173 1.404 . S
C172 C175 1.539 1_545 S
C173 C169 1.408 . S
C173 C172 1.404 . S
C173 H185 0.930 . S
C174 C170 1.524 . S
C174 H186 0.956 . S
C174 H187 0.961 . S
C174 H188 0.961 . S
C175 C172 1.539 1_565 S
C175 H189 0.958 . S
C175 H190 0.961 . S
C175 H191 0.960 . S
H176 C160 0.931 . S
H177 C165 0.929 . S
H178 C166 0.960 . S
H179 C166 0.982 . S
H180 C166 0.960 . S
H181 C167 0.961 . S
H182 C167 0.961 . S
H183 C167 0.961 . S
H184 C168 0.931 . S
H185 C173 0.930 . S
H186 C174 0.956 . S
H187 C174 0.961 . S
H188 C174 0.961 . S
H189 C175 0.958 . S
H190 C175 0.961 . S
H191 C175 0.960 . S
C192 C193 1.391 . S
C192 C194 1.394 . S
C192 H208 0.931 . S
C193 C192 1.391 . S
C193 C197 1.376 . S
C194 C192 1.394 . S
C194 C195 1.369 . S
C194 C198 1.531 . S
C195 C194 1.369 . S
C195 C196 1.410 . S
C195 C203 1.503 . S
C196 C195 1.410 . S
C196 C197 1.392 . S
C196 C199 1.511 . S
C197 C193 1.376 . S
C197 C196 1.392 . S
C197 H209 0.929 . S
C198 C194 1.531 . S
C198 H210 0.960 . S
C198 H211 0.962 . S
C198 H212 0.960 . S
C199 C196 1.511 . S
C199 H213 0.961 . S
C199 H214 0.961 . S
C199 H215 0.961 . S
C200 C201 1.370 . S
C200 C202 1.363 . S
C200 H216 0.931 . S
C201 C200 1.370 . S
C201 C205 1.408 . S
C202 C200 1.363 . S
C202 C203 1.370 . S
C202 C206 1.524 . S
C203 C195 1.503 . S
C203 C202 1.370 . S
C203 C204 1.403 . S
C204 C203 1.403 . S
C204 C205 1.404 . S
C204 C207 1.539 . S
C205 C201 1.408 . S
C205 C204 1.404 . S
C205 H217 0.930 . S
C206 C202 1.524 . S
C206 H218 0.956 . S
C206 H219 0.961 . S
C206 H220 0.961 . S
C207 C204 1.539 . S
C207 H221 0.958 . S
C207 H222 0.961 . S
C207 H223 0.960 . S
H208 C192 0.931 . S
H209 C197 0.929 . S
H210 C198 0.960 . S
H211 C198 0.962 . S
H212 C198 0.960 . S
H213 C199 0.961 . S
H214 C199 0.961 . S
H215 C199 0.961 . S
H216 C200 0.931 . S
H217 C205 0.930 . S
H218 C206 0.956 . S
H219 C206 0.961 . S
H220 C206 0.961 . S
H221 C207 0.958 . S
H222 C207 0.961 . S
H223 C207 0.960 . S
C224 C225 1.391 . S
C224 C226 1.394 . S
C224 H240 0.931 . S
C225 C224 1.391 . S
C225 C229 1.376 . S
C226 C224 1.394 . S
C226 C227 1.362 1_545 S
C226 C230 1.531 1_545 S
C227 C226 1.362 1_565 S
C227 C228 1.386 1_565 S
C227 C235 1.534 . S
C228 C227 1.386 1_545 S
C228 C229 1.392 . S
C228 C231 1.511 . S
C229 C225 1.376 . S
C229 C228 1.392 . S
C229 H241 0.929 . S
C230 C226 1.531 1_565 S
C230 H242 0.960 . S
C230 H243 0.962 . S
C230 H244 0.960 . S
C231 C228 1.511 . S
C231 H245 0.961 . S
C231 H246 0.961 1_545 S
C231 H247 0.961 . S
C232 C233 1.370 . S
C232 C234 1.363 . S
C232 H248 0.931 . S
C233 C232 1.370 . S
C233 C237 1.408 . S
C234 C232 1.363 . S
C234 C235 1.370 . S
C234 C238 1.524 . S
C235 C227 1.534 . S
C235 C234 1.370 . S
C235 C236 1.403 . S
C236 C235 1.403 . S
C236 C237 1.404 . S
C236 C239 1.539 . S
C237 C233 1.408 . S
C237 C236 1.404 . S
C237 H249 0.930 . S
C238 C234 1.524 . S
C238 H250 0.956 . S
C238 H251 0.961 . S
C238 H252 0.961 . S
C239 C236 1.539 . S
C239 H253 0.958 . S
C239 H254 0.961 . S
C239 H255 0.960 1_565 S
H240 C224 0.931 . S
H241 C229 0.929 . S
H242 C230 0.960 . S
H243 C230 0.962 . S
H244 C230 0.960 . S
H245 C231 0.961 . S
H246 C231 0.961 1_565 S
H247 C231 0.961 . S
H248 C232 0.931 . S
H249 C237 0.930 . S
H250 C238 0.956 . S
H251 C238 0.961 . S
H252 C238 0.961 . S
H253 C239 0.958 . S
H254 C239 0.961 . S
H255 C239 0.960 1_545 S
C256 C257 1.391 . S
C256 C258 1.394 . S
C256 H272 0.931 . S
C257 C256 1.391 . S
C257 C261 1.376 . S
C258 C256 1.394 . S
C258 C259 1.369 . S
C258 C262 1.531 . S
C259 C258 1.369 . S
C259 C260 1.410 . S
C259 C267 1.503 . S
C260 C259 1.410 . S
C260 C261 1.392 . S
C260 C263 1.511 . S
C261 C257 1.376 . S
C261 C260 1.392 . S
C261 H273 0.929 . S
C262 C258 1.531 . S
C262 H274 0.960 . S
C262 H275 0.962 . S
C262 H276 0.960 . S
C263 C260 1.511 . S
C263 H277 0.961 . S
C263 H278 0.961 . S
C263 H279 0.961 . S
C264 C265 1.370 . S
C264 C266 1.363 . S
C264 H280 0.931 . S
C265 C264 1.370 . S
C265 C269 1.408 . S
C266 C264 1.363 . S
C266 C267 1.370 . S
C266 C270 1.524 . S
C267 C259 1.503 . S
C267 C266 1.370 . S
C267 C268 1.403 . S
C268 C267 1.403 . S
C268 C269 1.404 . S
C268 C271 1.539 . S
C269 C265 1.408 . S
C269 C268 1.404 . S
C269 H281 0.930 . S
C270 C266 1.524 . S
C270 H282 0.956 . S
C270 H283 0.961 . S
C270 H284 0.961 . S
C271 C268 1.539 . S
C271 H285 0.958 . S
C271 H286 0.961 . S
C271 H287 0.960 . S
H272 C256 0.931 . S
H273 C261 0.929 . S
H274 C262 0.960 . S
H275 C262 0.962 . S
H276 C262 0.960 . S
H277 C263 0.961 . S
H278 C263 0.961 . S
H279 C263 0.961 . S
H280 C264 0.931 . S
H281 C269 0.930 . S
H282 C270 0.956 . S
H283 C270 0.961 . S
H284 C270 0.961 . S
H285 C271 0.958 . S
H286 C271 0.961 . S
H287 C271 0.960 . S
C288 C289 1.391 . S
C288 C290 1.394 . S
C288 H304 0.931 . S
C289 C288 1.391 . S
C289 C293 1.376 . S
C290 C288 1.394 . S
C290 C291 1.369 . S
C290 C294 1.531 . S
C291 C290 1.369 . S
C291 C292 1.410 . S
C291 C299 1.503 . S
C292 C291 1.410 . S
C292 C293 1.392 . S
C292 C295 1.511 . S
C293 C289 1.376 . S
C293 C292 1.392 . S
C293 H305 0.929 . S
C294 C290 1.531 . S
C294 H306 0.960 . S
C294 H307 0.962 . S
C294 H308 0.960 . S
C295 C292 1.511 . S
C295 H309 0.961 . S
C295 H310 0.961 . S
C295 H311 0.961 . S
C296 C297 1.370 . S
C296 C298 1.363 . S
C296 H312 0.931 . S
C297 C296 1.370 . S
C297 C301 1.408 . S
C298 C296 1.363 . S
C298 C299 1.370 . S
C298 C302 1.524 . S
C299 C291 1.503 . S
C299 C298 1.370 . S
C299 C300 1.403 . S
C300 C299 1.403 . S
C300 C301 1.404 . S
C300 C303 1.539 . S
C301 C297 1.408 . S
C301 C300 1.404 . S
C301 H313 0.930 . S
C302 C298 1.524 . S
C302 H314 0.956 . S
C302 H315 0.961 . S
C302 H316 0.961 . S
C303 C300 1.539 . S
C303 H317 0.958 . S
C303 H318 0.961 . S
C303 H319 0.960 . S
H304 C288 0.931 . S
H305 C293 0.929 . S
H306 C294 0.960 . S
H307 C294 0.962 . S
H308 C294 0.960 . S
H309 C295 0.961 . S
H310 C295 0.961 . S
H311 C295 0.961 . S
H312 C296 0.931 . S
H313 C301 0.930 . S
H314 C302 0.956 . S
H315 C302 0.961 . S
H316 C302 0.961 . S
H317 C303 0.958 . S
H318 C303 0.961 . S
H319 C303 0.960 . S
C320 C321 1.391 1_554 S
C320 C322 1.394 1_655 S
C320 H336 0.931 . S
C321 C320 1.391 1_556 S
C321 C325 1.376 . S
C322 C320 1.394 1_455 S
C322 C323 1.369 1_554 S
C322 C326 1.531 . S
C323 C322 1.369 1_556 S
C323 C324 1.410 . S
C323 C331 1.503 . S
C324 C323 1.410 . S
C324 C325 1.392 1_455 S
C324 C327 1.511 . S
C325 C321 1.376 . S
C325 C324 1.392 1_655 S
C325 H337 0.929 . S
C326 C322 1.531 . S
C326 H338 0.960 . S
C326 H339 0.962 . S
C326 H340 0.960 . S
C327 C324 1.511 . S
C327 H341 0.961 . S
C327 H342 0.961 . S
C327 H343 0.961 . S
C328 C329 1.370 . S
C328 C330 1.363 . S
C328 H344 0.931 . S
C329 C328 1.370 . S
C329 C333 1.408 . S
C330 C328 1.363 . S
C330 C331 1.370 . S
C330 C334 1.524 . S
C331 C323 1.503 . S
C331 C330 1.370 . S
C331 C332 1.403 . S
C332 C331 1.403 . S
C332 C333 1.404 . S
C332 C335 1.539 . S
C333 C329 1.408 . S
C333 C332 1.404 . S
C333 H345 0.930 . S
C334 C330 1.524 . S
C334 H346 0.956 . S
C334 H347 0.961 . S
C334 H348 0.961 . S
C335 C332 1.539 . S
C335 H349 0.958 1_556 S
C335 H350 0.961 . S
C335 H351 0.960 . S
H336 C320 0.931 . S
H337 C325 0.929 . S
H338 C326 0.960 . S
H339 C326 0.962 . S
H340 C326 0.960 . S
H341 C327 0.961 . S
H342 C327 0.961 . S
H343 C327 0.961 . S
H344 C328 0.931 . S
H345 C333 0.930 . S
H346 C334 0.956 . S
H347 C334 0.961 . S
H348 C334 0.961 . S
H349 C335 0.958 1_554 S
H350 C335 0.961 . S
H351 C335 0.960 . S
C352 C353 1.391 . S
C352 C354 1.394 . S
C352 H368 0.931 . S
C353 C352 1.391 . S
C353 C357 1.376 . S
C354 C352 1.394 . S
C354 C355 1.369 . S
C354 C358 1.531 . S
C355 C354 1.369 . S
C355 C356 1.410 . S
C355 C363 1.503 . S
C356 C355 1.410 . S
C356 C357 1.392 . S
C356 C359 1.511 . S
C357 C353 1.376 . S
C357 C356 1.392 . S
C357 H369 0.929 . S
C358 C354 1.531 . S
C358 H370 0.960 . S
C358 H371 0.962 . S
C358 H372 0.960 . S
C359 C356 1.511 . S
C359 H373 0.961 . S
C359 H374 0.961 . S
C359 H375 0.961 . S
C360 C361 1.370 . S
C360 C362 1.363 . S
C360 H376 0.931 . S
C361 C360 1.370 . S
C361 C365 1.408 . S
C362 C360 1.363 . S
C362 C363 1.370 . S
C362 C366 1.524 . S
C363 C355 1.503 . S
C363 C362 1.370 . S
C363 C364 1.403 . S
C364 C363 1.403 . S
C364 C365 1.404 . S
C364 C367 1.539 . S
C365 C361 1.408 . S
C365 C364 1.404 . S
C365 H377 0.930 . S
C366 C362 1.524 . S
C366 H378 0.956 . S
C366 H379 0.961 . S
C366 H380 0.961 . S
C367 C364 1.539 . S
C367 H381 0.958 . S
C367 H382 0.961 . S
C367 H383 0.960 . S
H368 C352 0.931 . S
H369 C357 0.929 . S
H370 C358 0.960 . S
H371 C358 0.962 . S
H372 C358 0.960 . S
H373 C359 0.961 . S
H374 C359 0.961 . S
H375 C359 0.961 . S
H376 C360 0.931 . S
H377 C365 0.930 . S
H378 C366 0.956 . S
H379 C366 0.961 . S
H380 C366 0.961 . S
H381 C367 0.958 . S
H382 C367 0.961 . S
H383 C367 0.960 . S
C384 C385 1.391 . S
C384 C386 1.394 . S
C384 H400 0.931 . S
C385 C384 1.391 . S
C385 C389 1.376 . S
C386 C384 1.394 . S
C386 C387 1.369 . S
C386 C390 1.531 . S
C387 C386 1.369 . S
C387 C388 1.410 . S
C387 C395 1.503 . S
C388 C387 1.410 . S
C388 C389 1.392 . S
C388 C391 1.511 . S
C389 C385 1.376 . S
C389 C388 1.392 . S
C389 H401 0.929 . S
C390 C386 1.531 . S
C390 H402 0.960 . S
C390 H403 0.962 . S
C390 H404 0.960 . S
C391 C388 1.511 . S
C391 H405 0.961 . S
C391 H406 0.961 . S
C391 H407 0.961 . S
C392 C393 1.370 . S
C392 C394 1.363 . S
C392 H408 0.931 . S
C393 C392 1.370 . S
C393 C397 1.408 1_655 S
C394 C392 1.363 . S
C394 C395 1.370 1_655 S
C394 C398 1.524 . S
C395 C387 1.503 . S
C395 C394 1.370 1_455 S
C395 C396 1.403 . S
C396 C395 1.403 . S
C396 C397 1.404 . S
C396 C399 1.539 . S
C397 C393 1.408 1_455 S
C397 C396 1.404 . S
C397 H409 0.930 . S
C398 C394 1.524 . S
C398 H410 0.956 . S
C398 H411 0.961 . S
C398 H412 0.961 . S
C399 C396 1.539 . S
C399 H413 0.958 . S
C399 H414 0.961 . S
C399 H415 0.960 . S
H400 C384 0.931 . S
H401 C389 0.929 . S
H402 C390 0.960 . S
H403 C390 0.962 . S
H404 C390 0.960 . S
H405 C391 0.961 . S
H406 C391 0.961 . S
H407 C391 0.961 . S
H408 C392 0.931 . S
H409 C397 0.930 . S
H410 C398 0.956 . S
H411 C398 0.961 . S
H412 C398 0.961 . S
H413 C399 0.958 . S
H414 C399 0.961 . S
H415 C399 0.960 . S
C416 C417 1.391 . S
C416 C418 1.394 . S
C416 H432 0.931 . S
C417 C416 1.391 . S
C417 C421 1.376 . S
C418 C416 1.394 . S
C418 C419 1.369 . S
C418 C422 1.531 . S
C419 C418 1.369 . S
C419 C420 1.410 . S
C419 C427 1.503 1_545 S
C420 C419 1.410 . S
C420 C421 1.392 . S
C420 C423 1.511 . S
C421 C417 1.376 . S
C421 C420 1.392 . S
C421 H433 0.929 . S
C422 C418 1.531 . S
C422 H434 0.960 1_545 S
C422 H435 0.962 . S
C422 H436 0.960 . S
C423 C420 1.511 . S
C423 H437 0.961 . S
C423 H438 0.961 . S
C423 H439 0.961 . S
C424 C425 1.370 . S
C424 C426 1.363 . S
C424 H440 0.931 . S
C425 C424 1.370 . S
C425 C429 1.408 . S
C426 C424 1.363 . S
C426 C427 1.370 . S
C426 C430 1.524 1_565 S
C427 C419 1.503 1_565 S
C427 C426 1.370 . S
C427 C428 1.403 . S
C428 C427 1.403 . S
C428 C429 1.404 . S
C428 C431 1.539 . S
C429 C425 1.408 . S
C429 C428 1.404 . S
C429 H441 0.930 . S
C430 C426 1.524 1_545 S
C430 H442 0.956 . S
C430 H443 0.961 . S
C430 H444 0.961 . S
C431 C428 1.539 . S
C431 H445 0.958 . S
C431 H446 0.961 . S
C431 H447 0.960 . S
H432 C416 0.931 . S
H433 C421 0.929 . S
H434 C422 0.960 1_565 S
H435 C422 0.962 . S
H436 C422 0.960 . S
H437 C423 0.961 . S
H438 C423 0.961 . S
H439 C423 0.961 . S
H440 C424 0.931 . S
H441 C429 0.930 . S
H442 C430 0.956 . S
H443 C430 0.961 . S
H444 C430 0.961 . S
H445 C431 0.958 . S
H446 C431 0.961 . S
H447 C431 0.960 . S
C448 C449 1.391 . S
C448 C450 1.394 . S
C448 H464 0.931 . S
C449 C448 1.391 . S
C449 C453 1.376 . S
C450 C448 1.394 . S
C450 C451 1.369 . S
C450 C454 1.531 . S
C451 C450 1.369 . S
C451 C452 1.410 . S
C451 C459 1.503 . S
C452 C451 1.410 . S
C452 C453 1.392 . S
C452 C455 1.511 . S
C453 C449 1.376 . S
C453 C452 1.392 . S
C453 H465 0.929 . S
C454 C450 1.531 . S
C454 H466 0.960 . S
C454 H467 0.962 . S
C454 H468 0.960 . S
C455 C452 1.511 . S
C455 H469 0.961 . S
C455 H470 0.961 . S
C455 H471 0.961 . S
C456 C457 1.370 . S
C456 C458 1.363 . S
C456 H472 0.931 . S
C457 C456 1.370 . S
C457 C461 1.408 . S
C458 C456 1.363 . S
C458 C459 1.370 . S
C458 C462 1.524 . S
C459 C451 1.503 . S
C459 C458 1.370 . S
C459 C460 1.403 . S
C460 C459 1.403 . S
C460 C461 1.404 . S
C460 C463 1.539 . S
C461 C457 1.408 . S
C461 C460 1.404 . S
C461 H473 0.930 . S
C462 C458 1.524 . S
C462 H474 0.956 . S
C462 H475 0.961 . S
C462 H476 0.961 . S
C463 C460 1.539 . S
C463 H477 0.958 . S
C463 H478 0.961 . S
C463 H479 0.960 . S
H464 C448 0.931 . S
H465 C453 0.929 . S
H466 C454 0.960 . S
H467 C454 0.962 . S
H468 C454 0.960 . S
H469 C455 0.961 . S
H470 C455 0.961 . S
H471 C455 0.961 . S
H472 C456 0.931 . S
H473 C461 0.930 . S
H474 C462 0.956 . S
H475 C462 0.961 . S
H476 C462 0.961 . S
H477 C463 0.958 . S
H478 C463 0.961 . S
H479 C463 0.960 . S
C480 C481 1.391 1_556 S
C480 C482 1.394 . S
C480 H496 0.931 . S
C481 C480 1.391 1_554 S
C481 C485 1.376 . S
C482 C480 1.394 . S
C482 C483 1.369 1_565 S
C482 C486 1.531 . S
C483 C482 1.369 1_545 S
C483 C484 1.410 1_546 S
C483 C491 1.503 . S
C484 C483 1.410 1_564 S
C484 C485 1.392 . S
C484 C487 1.511 1_565 S
C485 C481 1.376 . S
C485 C484 1.392 . S
C485 H497 0.929 . S
C486 C482 1.531 . S
C486 H498 0.960 . S
C486 H499 0.962 . S
C486 H500 0.960 . S
C487 C484 1.511 1_545 S
C487 H501 0.961 . S
C487 H502 0.961 . S
C487 H503 0.961 . S
C488 C489 1.370 . S
C488 C490 1.368 . S
C488 H504 0.931 1_556 S
C489 C488 1.370 . S
C489 C493 1.408 . S
C490 C488 1.368 . S
C490 C491 1.378 . S
C490 C494 1.512 1_556 S
C491 C483 1.503 . S
C491 C490 1.378 . S
C491 C492 1.403 . S
C492 C491 1.403 . S
C492 C493 1.404 . S
C492 C495 1.539 . S
C493 C489 1.408 . S
C493 C492 1.404 . S
C493 H505 0.930 . S
C494 C490 1.512 1_554 S
C494 H506 0.956 . S
C494 H507 0.961 . S
C494 H508 0.961 . S
C495 C492 1.539 . S
C495 H509 0.958 . S
C495 H510 0.961 . S
C495 H511 0.960 . S
H496 C480 0.931 . S
H497 C485 0.929 . S
H498 C486 0.960 . S
H499 C486 0.962 . S
H500 C486 0.960 . S
H501 C487 0.961 . S
H502 C487 0.961 . S
H503 C487 0.961 . S
H504 C488 0.931 1_554 S
H505 C493 0.930 . S
H506 C494 0.956 . S
H507 C494 0.961 . S
H508 C494 0.961 . S
H509 C495 0.958 . S
H510 C495 0.961 . S
H511 C495 0.960 . S
C512 C513 1.391 . S
C512 C514 1.394 . S
C512 H528 0.931 . S
C513 C512 1.391 . S
C513 C517 1.376 . S
C514 C512 1.394 . S
C514 C515 1.369 . S
C514 C518 1.531 . S
C515 C514 1.369 . S
C515 C516 1.410 . S
C515 C523 1.503 . S
C516 C515 1.410 . S
C516 C517 1.392 . S
C516 C519 1.511 . S
C517 C513 1.376 . S
C517 C516 1.392 . S
C517 H529 0.929 . S
C518 C514 1.531 . S
C518 H530 0.960 . S
C518 H531 0.962 . S
C518 H532 0.960 . S
C519 C516 1.511 . S
C519 H533 0.961 . S
C519 H534 0.961 . S
C519 H535 0.961 . S
C520 C521 1.370 . S
C520 C522 1.363 . S
C520 H536 0.931 . S
C521 C520 1.370 . S
C521 C525 1.408 . S
C522 C520 1.363 . S
C522 C523 1.370 . S
C522 C526 1.524 . S
C523 C515 1.503 . S
C523 C522 1.370 . S
C523 C524 1.403 . S
C524 C523 1.403 . S
C524 C525 1.404 . S
C524 C527 1.539 . S
C525 C521 1.408 . S
C525 C524 1.404 . S
C525 H537 0.930 . S
C526 C522 1.524 . S
C526 H538 0.956 . S
C526 H539 0.961 . S
C526 H540 0.961 . S
C527 C524 1.539 . S
C527 H541 0.958 . S
C527 H542 0.961 . S
C527 H543 0.960 . S
H528 C512 0.931 . S
H529 C517 0.929 . S
H530 C518 0.960 . S
H531 C518 0.962 . S
H532 C518 0.960 . S
H533 C519 0.961 . S
H534 C519 0.961 . S
H535 C519 0.961 . S
H536 C520 0.931 . S
H537 C525 0.930 . S
H538 C526 0.956 . S
H539 C526 0.961 . S
H540 C526 0.961 . S
H541 C527 0.958 . S
H542 C527 0.961 . S
H543 C527 0.960 . S
C544 C545 1.391 . S
C544 C546 1.394 . S
C544 H560 0.931 . S
C545 C544 1.391 . S
C545 C549 1.376 . S
C546 C544 1.394 . S
C546 C547 1.369 . S
C546 C550 1.531 . S
C547 C546 1.369 . S
C547 C548 1.410 . S
C547 C555 1.503 . S
C548 C547 1.410 . S
C548 C549 1.392 . S
C548 C551 1.511 . S
C549 C545 1.376 . S
C549 C548 1.392 . S
C549 H561 0.929 . S
C550 C546 1.531 . S
C550 H562 0.960 . S
C550 H563 0.962 . S
C550 H564 0.960 . S
C551 C548 1.511 . S
C551 H565 0.961 . S
C551 H566 0.961 . S
C551 H567 0.961 . S
C552 C553 1.370 . S
C552 C554 1.363 . S
C552 H568 0.931 . S
C553 C552 1.370 . S
C553 C557 1.408 . S
C554 C552 1.363 . S
C554 C555 1.370 . S
C554 C558 1.524 . S
C555 C547 1.503 . S
C555 C554 1.370 . S
C555 C556 1.403 . S
C556 C555 1.403 . S
C556 C557 1.404 . S
C556 C559 1.539 . S
C557 C553 1.408 . S
C557 C556 1.404 . S
C557 H569 0.930 . S
C558 C554 1.524 . S
C558 H570 0.956 . S
C558 H571 0.961 . S
C558 H572 0.961 . S
C559 C556 1.539 . S
C559 H573 0.958 . S
C559 H574 0.961 . S
C559 H575 0.960 . S
H560 C544 0.931 . S
H561 C549 0.929 . S
H562 C550 0.960 . S
H563 C550 0.962 . S
H564 C550 0.960 . S
H565 C551 0.961 . S
H566 C551 0.961 . S
H567 C551 0.961 . S
H568 C552 0.931 . S
H569 C557 0.930 . S
H570 C558 0.956 . S
H571 C558 0.961 . S
H572 C558 0.961 . S
H573 C559 0.958 . S
H574 C559 0.961 . S
H575 C559 0.960 . S
C576 C577 1.391 . S
C576 C578 1.394 1_455 S
C576 H592 0.931 . S
C577 C576 1.391 . S
C577 C581 1.376 . S
C578 C576 1.394 1_655 S
C578 C579 1.369 . S
C578 C582 1.531 . S
C579 C578 1.369 . S
C579 C580 1.410 . S
C579 C587 1.503 . S
C580 C579 1.410 . S
C580 C581 1.392 1_655 S
C580 C583 1.511 . S
C581 C577 1.376 . S
C581 C580 1.392 1_455 S
C581 H593 0.929 . S
C582 C578 1.531 . S
C582 H594 0.960 . S
C582 H595 0.962 . S
C582 H596 0.960 . S
C583 C580 1.511 . S
C583 H597 0.961 . S
C583 H598 0.961 . S
C583 H599 0.961 . S
C584 C585 1.370 . S
C584 C586 1.363 . S
C584 H600 0.931 . S
C585 C584 1.370 . S
C585 C589 1.408 . S
C586 C584 1.363 . S
C586 C587 1.370 . S
C586 C590 1.524 . S
C587 C579 1.503 . S
C587 C586 1.370 . S
C587 C588 1.403 . S
C588 C587 1.403 . S
C588 C589 1.404 . S
C588 C591 1.539 . S
C589 C585 1.408 . S
C589 C588 1.404 . S
C589 H601 0.930 . S
C590 C586 1.524 . S
C590 H602 0.956 . S
C590 H603 0.961 . S
C590 H604 0.961 . S
C591 C588 1.539 . S
C591 H605 0.958 . S
C591 H606 0.961 . S
C591 H607 0.960 . S
H592 C576 0.931 . S
H593 C581 0.929 . S
H594 C582 0.960 . S
H595 C582 0.962 . S
H596 C582 0.960 . S
H597 C583 0.961 . S
H598 C583 0.961 . S
H599 C583 0.961 . S
H600 C584 0.931 . S
H601 C589 0.930 . S
H602 C590 0.956 . S
H603 C590 0.961 . S
H604 C590 0.961 . S
H605 C591 0.958 . S
H606 C591 0.961 . S
H607 C591 0.960 . S
C608 C609 1.391 . S
C608 C610 1.394 . S
C608 H624 0.931 . S
C609 C608 1.391 . S
C609 C613 1.376 . S
C610 C608 1.394 . S
C610 C611 1.369 . S
C610 C614 1.531 . S
C611 C610 1.369 . S
C611 C612 1.410 . S
C611 C619 1.503 . S
C612 C611 1.410 . S
C612 C613 1.392 . S
C612 C615 1.511 . S
C613 C609 1.376 . S
C613 C612 1.392 . S
C613 H625 0.929 . S
C614 C610 1.531 . S
C614 H626 0.960 . S
C614 H627 0.962 . S
C614 H628 0.960 . S
C615 C612 1.511 . S
C615 H629 0.961 . S
C615 H630 0.961 . S
C615 H631 0.961 . S
C616 C617 1.370 . S
C616 C618 1.363 . S
C616 H632 0.931 . S
C617 C616 1.370 . S
C617 C621 1.408 . S
C618 C616 1.363 . S
C618 C619 1.370 . S
C618 C622 1.524 . S
C619 C611 1.503 . S
C619 C618 1.370 . S
C619 C620 1.403 . S
C620 C619 1.403 . S
C620 C621 1.404 . S
C620 C623 1.539 . S
C621 C617 1.408 . S
C621 C620 1.404 . S
C621 H633 0.930 . S
C622 C618 1.524 . S
C622 H634 0.956 . S
C622 H635 0.961 . S
C622 H636 0.961 . S
C623 C620 1.539 . S
C623 H637 0.958 . S
C623 H638 0.961 . S
C623 H639 0.960 . S
H624 C608 0.931 . S
H625 C613 0.929 . S
H626 C614 0.960 . S
H627 C614 0.962 . S
H628 C614 0.960 . S
H629 C615 0.961 . S
H630 C615 0.961 . S
H631 C615 0.961 . S
H632 C616 0.931 . S
H633 C621 0.930 . S
H634 C622 0.956 . S
H635 C622 0.961 . S
H636 C622 0.961 . S
H637 C623 0.958 . S
H638 C623 0.961 . S
H639 C623 0.960 . S
C640 C641 1.391 . S
C640 C642 1.394 . S
C640 H656 0.931 . S
C641 C640 1.391 . S
C641 C645 1.376 . S
C642 C640 1.394 . S
C642 C643 1.369 . S
C642 C646 1.531 1_655 S
C643 C642 1.369 . S
C643 C644 1.410 . S
C643 C651 1.503 . S
C644 C643 1.410 . S
C644 C645 1.392 . S
C644 C647 1.511 . S
C645 C641 1.376 . S
C645 C644 1.392 . S
C645 H657 0.929 . S
C646 C642 1.531 1_455 S
C646 H658 0.960 . S
C646 H659 0.962 . S
C646 H660 0.960 . S
C647 C644 1.511 . S
C647 H661 0.961 . S
C647 H662 0.961 . S
C647 H663 0.961 . S
C648 C649 1.370 . S
C648 C650 1.363 1_455 S
C648 H664 0.931 . S
C649 C648 1.370 . S
C649 C653 1.408 . S
C650 C648 1.363 1_655 S
C650 C651 1.370 . S
C650 C654 1.524 . S
C651 C643 1.503 . S
C651 C650 1.370 . S
C651 C652 1.403 . S
C652 C651 1.403 . S
C652 C653 1.404 1_655 S
C652 C655 1.539 . S
C653 C649 1.408 . S
C653 C652 1.404 1_455 S
C653 H665 0.930 . S
C654 C650 1.524 . S
C654 H666 0.956 . S
C654 H667 0.961 . S
C654 H668 0.961 . S
C655 C652 1.539 . S
C655 H669 0.958 . S
C655 H670 0.961 . S
C655 H671 0.960 . S
H656 C640 0.931 . S
H657 C645 0.929 . S
H658 C646 0.960 . S
H659 C646 0.962 . S
H660 C646 0.960 . S
H661 C647 0.961 . S
H662 C647 0.961 . S
H663 C647 0.961 . S
H664 C648 0.931 . S
H665 C653 0.930 . S
H666 C654 0.956 . S
H667 C654 0.961 . S
H668 C654 0.961 . S
H669 C655 0.958 . S
H670 C655 0.961 . S
H671 C655 0.960 . S
C672 C673 1.391 . S
C672 C674 1.394 . S
C672 H688 0.931 . S
C673 C672 1.391 . S
C673 C677 1.376 . S
C674 C672 1.394 . S
C674 C675 1.369 . S
C674 C678 1.531 . S
C675 C674 1.369 . S
C675 C676 1.410 . S
C675 C683 1.503 . S
C676 C675 1.410 . S
C676 C677 1.392 . S
C676 C679 1.511 . S
C677 C673 1.376 . S
C677 C676 1.392 . S
C677 H689 0.929 . S
C678 C674 1.531 . S
C678 H690 0.960 . S
C678 H691 0.962 . S
C678 H692 0.960 . S
C679 C676 1.511 . S
C679 H693 0.961 . S
C679 H694 0.961 . S
C679 H695 0.961 . S
C680 C681 1.370 . S
C680 C682 1.363 . S
C680 H696 0.931 . S
C681 C680 1.370 . S
C681 C685 1.408 . S
C682 C680 1.363 . S
C682 C683 1.370 . S
C682 C686 1.524 . S
C683 C675 1.503 . S
C683 C682 1.370 . S
C683 C684 1.403 . S
C684 C683 1.403 . S
C684 C685 1.404 . S
C684 C687 1.539 . S
C685 C681 1.408 . S
C685 C684 1.404 . S
C685 H697 0.930 . S
C686 C682 1.524 . S
C686 H698 0.956 . S
C686 H699 0.961 . S
C686 H700 0.961 . S
C687 C684 1.539 . S
C687 H701 0.958 . S
C687 H702 0.961 . S
C687 H703 0.960 . S
H688 C672 0.931 . S
H689 C677 0.929 . S
H690 C678 0.960 . S
H691 C678 0.962 . S
H692 C678 0.960 . S
H693 C679 0.961 . S
H694 C679 0.961 . S
H695 C679 0.961 . S
H696 C680 0.931 . S
H697 C685 0.930 . S
H698 C686 0.956 . S
H699 C686 0.961 . S
H700 C686 0.961 . S
H701 C687 0.958 . S
H702 C687 0.961 . S
H703 C687 0.960 . S
C704 C705 1.391 . S
C704 C706 1.394 . S
C704 H720 0.931 . S
C705 C704 1.391 . S
C705 C709 1.376 . S
C706 C704 1.394 . S
C706 C707 1.369 . S
C706 C710 1.531 . S
C707 C706 1.369 . S
C707 C708 1.410 . S
C707 C715 1.503 . S
C708 C707 1.410 . S
C708 C709 1.392 . S
C708 C711 1.511 . S
C709 C705 1.376 . S
C709 C708 1.392 . S
C709 H721 0.929 . S
C710 C706 1.531 . S
C710 H722 0.960 . S
C710 H723 0.962 . S
C710 H724 0.960 . S
C711 C708 1.511 . S
C711 H725 0.961 . S
C711 H726 0.961 . S
C711 H727 0.961 . S
C712 C713 1.370 . S
C712 C714 1.363 . S
C712 H728 0.931 . S
C713 C712 1.370 . S
C713 C717 1.408 . S
C714 C712 1.363 . S
C714 C715 1.370 . S
C714 C718 1.524 . S
C715 C707 1.503 . S
C715 C714 1.370 . S
C715 C716 1.403 . S
C716 C715 1.403 . S
C716 C717 1.404 . S
C716 C719 1.539 . S
C717 C713 1.408 . S
C717 C716 1.404 . S
C717 H729 0.930 . S
C718 C714 1.524 . S
C718 H730 0.956 . S
C718 H731 0.961 . S
C718 H732 0.961 . S
C719 C716 1.539 . S
C719 H733 0.958 . S
C719 H734 0.961 . S
C719 H735 0.960 . S
H720 C704 0.931 . S
H721 C709 0.929 . S
H722 C710 0.960 . S
H723 C710 0.962 . S
H724 C710 0.960 . S
H725 C711 0.961 . S
H726 C711 0.961 . S
H727 C711 0.961 . S
H728 C712 0.931 . S
H729 C717 0.930 . S
H730 C718 0.956 . S
H731 C718 0.961 . S
H732 C718 0.961 . S
H733 C719 0.958 . S
H734 C719 0.961 . S
H735 C719 0.960 . S
C736 C737 1.391 . S
C736 C738 1.394 . S
C736 H752 0.931 . S
C737 C736 1.391 . S
C737 C741 1.376 . S
C738 C736 1.394 . S
C738 C739 1.369 . S
C738 C742 1.531 . S
C739 C738 1.369 . S
C739 C740 1.410 . S
C739 C747 1.503 . S
C740 C739 1.410 . S
C740 C741 1.392 . S
C740 C743 1.511 . S
C741 C737 1.376 . S
C741 C740 1.392 . S
C741 H753 0.929 . S
C742 C738 1.531 . S
C742 H754 0.960 . S
C742 H755 0.962 . S
C742 H756 0.960 . S
C743 C740 1.511 . S
C743 H757 0.961 . S
C743 H758 0.961 . S
C743 H759 0.961 . S
C744 C745 1.370 . S
C744 C746 1.363 . S
C744 H760 0.931 . S
C745 C744 1.370 . S
C745 C749 1.408 . S
C746 C744 1.363 . S
C746 C747 1.370 . S
C746 C750 1.524 . S
C747 C739 1.503 . S
C747 C746 1.370 . S
C747 C748 1.403 . S
C748 C747 1.403 . S
C748 C749 1.404 . S
C748 C751 1.539 . S
C749 C745 1.408 . S
C749 C748 1.404 . S
C749 H761 0.930 . S
C750 C746 1.524 . S
C750 H762 0.956 . S
C750 H763 0.961 . S
C750 H764 0.961 . S
C751 C748 1.539 . S
C751 H765 0.958 . S
C751 H766 0.961 . S
C751 H767 0.960 . S
H752 C736 0.931 . S
H753 C741 0.929 . S
H754 C742 0.960 . S
H755 C742 0.962 . S
H756 C742 0.960 . S
H757 C743 0.961 . S
H758 C743 0.961 . S
H759 C743 0.961 . S
H760 C744 0.931 . S
H761 C749 0.930 . S
H762 C750 0.956 . S
H763 C750 0.961 . S
H764 C750 0.961 . S
H765 C751 0.958 . S
H766 C751 0.961 . S
H767 C751 0.960 . S
C768 C769 1.391 . S
C768 C770 1.394 . S
C768 H784 0.931 . S
C769 C768 1.391 . S
C769 C773 1.376 . S
C770 C768 1.394 . S
C770 C771 1.369 . S
C770 C774 1.531 . S
C771 C770 1.369 . S
C771 C772 1.410 . S
C771 C779 1.503 . S
C772 C771 1.410 . S
C772 C773 1.392 . S
C772 C775 1.511 . S
C773 C769 1.376 . S
C773 C772 1.392 . S
C773 H785 0.929 . S
C774 C770 1.531 . S
C774 H786 0.960 . S
C774 H787 0.962 . S
C774 H788 0.960 . S
C775 C772 1.511 . S
C775 H789 0.961 . S
C775 H790 0.961 . S
C775 H791 0.961 . S
C776 C777 1.370 . S
C776 C778 1.363 . S
C776 H792 0.931 . S
C777 C776 1.370 . S
C777 C781 1.408 . S
C778 C776 1.363 . S
C778 C779 1.370 . S
C778 C782 1.524 . S
C779 C771 1.503 . S
C779 C778 1.370 . S
C779 C780 1.403 . S
C780 C779 1.403 . S
C780 C781 1.404 . S
C780 C783 1.539 . S
C781 C777 1.408 . S
C781 C780 1.404 . S
C781 H793 0.930 . S
C782 C778 1.524 . S
C782 H794 0.956 . S
C782 H795 0.961 . S
C782 H796 0.961 . S
C783 C780 1.539 . S
C783 H797 0.958 . S
C783 H798 0.961 . S
C783 H799 0.960 . S
H784 C768 0.931 . S
H785 C773 0.929 . S
H786 C774 0.960 . S
H787 C774 0.962 . S
H788 C774 0.960 . S
H789 C775 0.961 . S
H790 C775 0.961 . S
H791 C775 0.961 . S
H792 C776 0.931 . S
H793 C781 0.930 . S
H794 C782 0.956 . S
H795 C782 0.961 . S
H796 C782 0.961 . S
H797 C783 0.958 . S
H798 C783 0.961 . S
H799 C783 0.960 . S
C800 C801 1.391 . S
C800 C802 1.394 . S
C800 H816 0.931 . S
C801 C800 1.391 . S
C801 C805 1.376 . S
C802 C800 1.394 . S
C802 C803 1.369 . S
C802 C806 1.531 . S
C803 C802 1.369 . S
C803 C804 1.410 . S
C803 C811 1.503 . S
C804 C803 1.410 . S
C804 C805 1.392 . S
C804 C807 1.511 . S
C805 C801 1.376 . S
C805 C804 1.392 . S
C805 H817 0.929 . S
C806 C802 1.531 . S
C806 H818 0.960 . S
C806 H819 0.962 . S
C806 H820 0.960 . S
C807 C804 1.511 . S
C807 H821 0.961 . S
C807 H822 0.961 . S
C807 H823 0.961 . S
C808 C809 1.370 . S
C808 C810 1.363 . S
C808 H824 0.931 . S
C809 C808 1.370 . S
C809 C813 1.408 . S
C810 C808 1.363 . S
C810 C811 1.370 . S
C810 C814 1.524 . S
C811 C803 1.503 . S
C811 C810 1.370 . S
C811 C812 1.403 . S
C812 C811 1.403 . S
C812 C813 1.404 . S
C812 C815 1.539 . S
C813 C809 1.408 . S
C813 C812 1.404 . S
C813 H825 0.930 . S
C814 C810 1.524 . S
C814 H826 0.956 . S
C814 H827 0.961 . S
C814 H828 0.961 . S
C815 C812 1.539 . S
C815 H829 0.958 . S
C815 H830 0.961 . S
C815 H831 0.960 . S
H816 C800 0.931 . S
H817 C805 0.929 . S
H818 C806 0.960 . S
H819 C806 0.962 . S
H820 C806 0.960 . S
H821 C807 0.961 . S
H822 C807 0.961 . S
H823 C807 0.961 . S
H824 C808 0.931 . S
H825 C813 0.930 . S
H826 C814 0.956 . S
H827 C814 0.961 . S
H828 C814 0.961 . S
H829 C815 0.958 . S
H830 C815 0.961 . S
H831 C815 0.960 . S
C832 C833 1.391 . S
C832 C834 1.394 . S
C832 H848 0.931 . S
C833 C832 1.391 . S
C833 C837 1.376 . S
C834 C832 1.394 . S
C834 C835 1.369 . S
C834 C838 1.531 . S
C835 C834 1.369 . S
C835 C836 1.410 . S
C835 C843 1.503 . S
C836 C835 1.410 . S
C836 C837 1.392 . S
C836 C839 1.511 . S
C837 C833 1.376 . S
C837 C836 1.392 . S
C837 H849 0.929 . S
C838 C834 1.531 . S
C838 H850 0.960 . S
C838 H851 0.962 . S
C838 H852 0.960 . S
C839 C836 1.511 . S
C839 H853 0.961 . S
C839 H854 0.961 . S
C839 H855 0.961 . S
C840 C841 1.370 . S
C840 C842 1.363 . S
C840 H856 0.931 . S
C841 C840 1.370 . S
C841 C845 1.408 . S
C842 C840 1.363 . S
C842 C843 1.370 . S
C842 C846 1.524 . S
C843 C835 1.503 . S
C843 C842 1.370 . S
C843 C844 1.403 . S
C844 C843 1.403 . S
C844 C845 1.404 . S
C844 C847 1.539 . S
C845 C841 1.408 . S
C845 C844 1.404 . S
C845 H857 0.930 . S
C846 C842 1.524 . S
C846 H858 0.956 . S
C846 H859 0.961 . S
C846 H860 0.961 . S
C847 C844 1.539 . S
C847 H861 0.958 . S
C847 H862 0.961 . S
C847 H863 0.960 . S
H848 C832 0.931 . S
H849 C837 0.929 . S
H850 C838 0.960 . S
H851 C838 0.962 . S
H852 C838 0.960 . S
H853 C839 0.961 . S
H854 C839 0.961 . S
H855 C839 0.961 . S
H856 C840 0.931 . S
H857 C845 0.930 . S
H858 C846 0.956 . S
H859 C846 0.961 . S
H860 C846 0.961 . S
H861 C847 0.958 . S
H862 C847 0.961 . S
H863 C847 0.960 . S
C864 C865 1.391 . S
C864 C866 1.394 . S
C864 H880 0.931 . S
C865 C864 1.391 . S
C865 C869 1.376 . S
C866 C864 1.394 . S
C866 C867 1.369 . S
C866 C870 1.531 . S
C867 C866 1.369 . S
C867 C868 1.410 . S
C867 C875 1.503 . S
C868 C867 1.410 . S
C868 C869 1.392 . S
C868 C871 1.511 . S
C869 C865 1.376 . S
C869 C868 1.392 . S
C869 H881 0.929 . S
C870 C866 1.531 . S
C870 H882 0.960 . S
C870 H883 0.962 . S
C870 H884 0.960 . S
C871 C868 1.511 . S
C871 H885 0.961 . S
C871 H886 0.961 . S
C871 H887 0.961 . S
C872 C873 1.370 . S
C872 C874 1.363 . S
C872 H888 0.931 . S
C873 C872 1.370 . S
C873 C877 1.408 . S
C874 C872 1.363 . S
C874 C875 1.370 . S
C874 C878 1.524 . S
C875 C867 1.503 . S
C875 C874 1.370 . S
C875 C876 1.403 . S
C876 C875 1.403 . S
C876 C877 1.404 . S
C876 C879 1.539 . S
C877 C873 1.408 . S
C877 C876 1.404 . S
C877 H889 0.930 . S
C878 C874 1.524 . S
C878 H890 0.956 . S
C878 H891 0.961 . S
C878 H892 0.961 . S
C879 C876 1.539 . S
C879 H893 0.958 . S
C879 H894 0.961 . S
C879 H895 0.960 . S
H880 C864 0.931 . S
H881 C869 0.929 . S
H882 C870 0.960 . S
H883 C870 0.962 . S
H884 C870 0.960 . S
H885 C871 0.961 . S
H886 C871 0.961 . S
H887 C871 0.961 . S
H888 C872 0.931 . S
H889 C877 0.930 . S
H890 C878 0.956 . S
H891 C878 0.961 . S
H892 C878 0.961 . S
H893 C879 0.958 . S
H894 C879 0.961 . S
H895 C879 0.960 . S
C896 C897 1.391 . S
C896 C898 1.394 . S
C896 H912 0.931 . S
C897 C896 1.391 . S
C897 C901 1.376 1_554 S
C898 C896 1.394 . S
C898 C899 1.369 1_554 S
C898 C902 1.531 . S
C899 C898 1.369 1_556 S
C899 C900 1.410 . S
C899 C907 1.503 . S
C900 C899 1.410 . S
C900 C901 1.392 . S
C900 C903 1.511 . S
C901 C897 1.376 1_556 S
C901 C900 1.392 . S
C901 H913 0.929 . S
C902 C898 1.531 . S
C902 H914 0.960 . S
C902 H915 0.962 . S
C902 H916 0.960 . S
C903 C900 1.511 . S
C903 H917 0.961 . S
C903 H918 0.961 . S
C903 H919 0.961 . S
C904 C905 1.370 . S
C904 C906 1.363 . S
C904 H920 0.931 . S
C905 C904 1.370 . S
C905 C909 1.408 . S
C906 C904 1.363 . S
C906 C907 1.370 . S
C906 C910 1.524 . S
C907 C899 1.503 . S
C907 C906 1.370 . S
C907 C908 1.403 . S
C908 C907 1.403 . S
C908 C909 1.404 . S
C908 C911 1.539 . S
C909 C905 1.408 . S
C909 C908 1.404 . S
C909 H921 0.930 . S
C910 C906 1.524 . S
C910 H922 0.956 . S
C910 H923 0.961 . S
C910 H924 0.961 . S
C911 C908 1.539 . S
C911 H925 0.958 . S
C911 H926 0.961 . S
C911 H927 0.960 . S
H912 C896 0.931 . S
H913 C901 0.929 . S
H914 C902 0.960 . S
H915 C902 0.962 . S
H916 C902 0.960 . S
H917 C903 0.961 . S
H918 C903 0.961 . S
H919 C903 0.961 . S
H920 C904 0.931 . S
H921 C909 0.930 . S
H922 C910 0.956 . S
H923 C910 0.961 . S
H924 C910 0.961 . S
H925 C911 0.958 . S
H926 C911 0.961 . S
H927 C911 0.960 . S
C161 C7 1.395 . S
C169 C93 1.383 . S
C193 C37 1.238 . S
C201 C101 1.218 . S
C225 C54 1.353 . S
C233 C110 1.308 . S
C265 C120 1.388 . S
C257 C87 1.392 . S
C297 C129 1.347 . S
C289 C30 1.357 . S
C321 C51 1.364 . S
C329 C138 1.382 . S
C353 C84 1.383 . S
C361 C146 1.355 . S
C385 C10 1.215 . S
C393 C156 1.201 . S
C417 C59 1.376 . S
C425 C155 1.385 . S
C457 C128 1.170 . S
C449 C74 1.177 . S
C489 C137 1.332 . S
C481 C18 1.378 . S
C513 C32 1.382 . S
C521 C147 1.368 . S
C553 C102 1.373 . S
C545 C73 1.374 . S
C577 C15 1.335 . S
C585 C111 1.384 . S
C617 C119 1.383 . S
C609 C43 1.379 . S
C649 C92 1.202 . S
C641 C62 1.228 . S
C681 C149 1.393 . S
C673 C21 1.405 . S
C713 C158 1.287 . S
C705 C29 1.273 . S
C737 C52 1.247 . S
C745 C131 1.246 . S
C777 C140 1.365 . S
C769 C81 1.384 . S
C809 C113 1.350 . S
C801 C40 1.390 . S
C833 C65 1.400 . S
C841 C122 1.370 . S
C873 C95 1.250 . S
C865 C76 1.266 . S
C905 C104 1.266 . S
C897 C8 1.289 . S
