# Generated by pormake.
# Topology eea, (3,6)-cn, num edge types: 1
# Building blocks:
#     Node 0, Type 0, BuildingBlock: CUQRIR_clean_linker_1, # of connection points: 3
#     Node 1, Type 0, BuildingBlock: CUQRIR_clean_linker_1, # of connection points: 3
#     Node 2, Type 0, BuildingBlock: CUQRIR_clean_linker_1, # of connection points: 3
#     Node 3, Type 0, BuildingBlock: CUQRIR_clean_linker_1, # of connection points: 3
#     Node 4, Type 0, BuildingBlock: CUQRIR_clean_linker_1, # of connection points: 3
#     Node 5, Type 0, BuildingBlock: CUQRIR_clean_linker_1, # of connection points: 3
#     Node 6, Type 0, BuildingBlock: CUQRIR_clean_linker_1, # of connection points: 3
#     Node 7, Type 0, BuildingBlock: CUQRIR_clean_linker_1, # of connection points: 3
#     Node 8, Type 0, BuildingBlock: CUQRIR_clean_linker_1, # of connection points: 3
#     Node 9, Type 0, BuildingBlock: CUQRIR_clean_linker_1, # of connection points: 3
#     Node 10, Type 0, BuildingBlock: CUQRIR_clean_linker_1, # of connection points: 3
#     Node 11, Type 0, BuildingBlock: CUQRIR_clean_linker_1, # of connection points: 3
#     Node 12, Type 0, BuildingBlock: CUQRIR_clean_linker_1, # of connection points: 3
#     Node 13, Type 0, BuildingBlock: CUQRIR_clean_linker_1, # of connection points: 3
#     Node 14, Type 0, BuildingBlock: CUQRIR_clean_linker_1, # of connection points: 3
#     Node 15, Type 0, BuildingBlock: CUQRIR_clean_linker_1, # of connection points: 3
#     Node 16, Type 0, BuildingBlock: CUQRIR_clean_linker_1, # of connection points: 3
#     Node 17, Type 0, BuildingBlock: CUQRIR_clean_linker_1, # of connection points: 3
#     Node 18, Type 1, BuildingBlock: HISSIN_clean_sbu_0, # of connection points: 6
#     Node 19, Type 1, BuildingBlock: HISSIN_clean_sbu_0, # of connection points: 6
#     Node 20, Type 1, BuildingBlock: HISSIN_clean_sbu_0, # of connection points: 6
#     Node 21, Type 1, BuildingBlock: HISSIN_clean_sbu_0, # of connection points: 6
#     Node 22, Type 1, BuildingBlock: HISSIN_clean_sbu_0, # of connection points: 6
#     Node 23, Type 1, BuildingBlock: HISSIN_clean_sbu_0, # of connection points: 6
#     Node 24, Type 1, BuildingBlock: HISSIN_clean_sbu_0, # of connection points: 6
#     Node 25, Type 1, BuildingBlock: HISSIN_clean_sbu_0, # of connection points: 6
#     Node 26, Type 1, BuildingBlock: HISSIN_clean_sbu_0, # of connection points: 6
#     Edge 27, Type (0, 1), BuildingBlock: CIFDUS_clean_linker_0, # of connection points: 2
#     Edge 28, Type (0, 1), BuildingBlock: CIFDUS_clean_linker_0, # of connection points: 2
#     Edge 29, Type (0, 1), BuildingBlock: CIFDUS_clean_linker_0, # of connection points: 2
#     Edge 30, Type (0, 1), BuildingBlock: CIFDUS_clean_linker_0, # of connection points: 2
#     Edge 31, Type (0, 1), BuildingBlock: CIFDUS_clean_linker_0, # of connection points: 2
#     Edge 32, Type (0, 1), BuildingBlock: CIFDUS_clean_linker_0, # of connection points: 2
#     Edge 33, Type (0, 1), BuildingBlock: CIFDUS_clean_linker_0, # of connection points: 2
#     Edge 34, Type (0, 1), BuildingBlock: CIFDUS_clean_linker_0, # of connection points: 2
#     Edge 35, Type (0, 1), BuildingBlock: CIFDUS_clean_linker_0, # of connection points: 2
#     Edge 36, Type (0, 1), BuildingBlock: CIFDUS_clean_linker_0, # of connection points: 2
#     Edge 37, Type (0, 1), BuildingBlock: CIFDUS_clean_linker_0, # of connection points: 2
#     Edge 38, Type (0, 1), BuildingBlock: CIFDUS_clean_linker_0, # of connection points: 2
#     Edge 39, Type (0, 1), BuildingBlock: CIFDUS_clean_linker_0, # of connection points: 2
#     Edge 40, Type (0, 1), BuildingBlock: CIFDUS_clean_linker_0, # of connection points: 2
#     Edge 41, Type (0, 1), BuildingBlock: CIFDUS_clean_linker_0, # of connection points: 2
#     Edge 42, Type (0, 1), BuildingBlock: CIFDUS_clean_linker_0, # of connection points: 2
#     Edge 43, Type (0, 1), BuildingBlock: CIFDUS_clean_linker_0, # of connection points: 2
#     Edge 44, Type (0, 1), BuildingBlock: CIFDUS_clean_linker_0, # of connection points: 2
#     Edge 45, Type (0, 1), BuildingBlock: CIFDUS_clean_linker_0, # of connection points: 2
#     Edge 46, Type (0, 1), BuildingBlock: CIFDUS_clean_linker_0, # of connection points: 2
#     Edge 47, Type (0, 1), BuildingBlock: CIFDUS_clean_linker_0, # of connection points: 2
#     Edge 48, Type (0, 1), BuildingBlock: CIFDUS_clean_linker_0, # of connection points: 2
#     Edge 49, Type (0, 1), BuildingBlock: CIFDUS_clean_linker_0, # of connection points: 2
#     Edge 50, Type (0, 1), BuildingBlock: CIFDUS_clean_linker_0, # of connection points: 2
#     Edge 51, Type (0, 1), BuildingBlock: CIFDUS_clean_linker_0, # of connection points: 2
#     Edge 52, Type (0, 1), BuildingBlock: CIFDUS_clean_linker_0, # of connection points: 2
#     Edge 53, Type (0, 1), BuildingBlock: CIFDUS_clean_linker_0, # of connection points: 2
#     Edge 54, Type (0, 1), BuildingBlock: CIFDUS_clean_linker_0, # of connection points: 2
#     Edge 55, Type (0, 1), BuildingBlock: CIFDUS_clean_linker_0, # of connection points: 2
#     Edge 56, Type (0, 1), BuildingBlock: CIFDUS_clean_linker_0, # of connection points: 2
#     Edge 57, Type (0, 1), BuildingBlock: CIFDUS_clean_linker_0, # of connection points: 2
#     Edge 58, Type (0, 1), BuildingBlock: CIFDUS_clean_linker_0, # of connection points: 2
#     Edge 59, Type (0, 1), BuildingBlock: CIFDUS_clean_linker_0, # of connection points: 2
#     Edge 60, Type (0, 1), BuildingBlock: CIFDUS_clean_linker_0, # of connection points: 2
#     Edge 61, Type (0, 1), BuildingBlock: CIFDUS_clean_linker_0, # of connection points: 2
#     Edge 62, Type (0, 1), BuildingBlock: CIFDUS_clean_linker_0, # of connection points: 2
#     Edge 63, Type (0, 1), BuildingBlock: CIFDUS_clean_linker_0, # of connection points: 2
#     Edge 64, Type (0, 1), BuildingBlock: CIFDUS_clean_linker_0, # of connection points: 2
#     Edge 65, Type (0, 1), BuildingBlock: CIFDUS_clean_linker_0, # of connection points: 2
#     Edge 66, Type (0, 1), BuildingBlock: CIFDUS_clean_linker_0, # of connection points: 2
#     Edge 67, Type (0, 1), BuildingBlock: CIFDUS_clean_linker_0, # of connection points: 2
#     Edge 68, Type (0, 1), BuildingBlock: CIFDUS_clean_linker_0, # of connection points: 2
#     Edge 69, Type (0, 1), BuildingBlock: CIFDUS_clean_linker_0, # of connection points: 2
#     Edge 70, Type (0, 1), BuildingBlock: CIFDUS_clean_linker_0, # of connection points: 2
#     Edge 71, Type (0, 1), BuildingBlock: CIFDUS_clean_linker_0, # of connection points: 2
#     Edge 72, Type (0, 1), BuildingBlock: CIFDUS_clean_linker_0, # of connection points: 2
#     Edge 73, Type (0, 1), BuildingBlock: CIFDUS_clean_linker_0, # of connection points: 2
#     Edge 74, Type (0, 1), BuildingBlock: CIFDUS_clean_linker_0, # of connection points: 2
#     Edge 75, Type (0, 1), BuildingBlock: CIFDUS_clean_linker_0, # of connection points: 2
#     Edge 76, Type (0, 1), BuildingBlock: CIFDUS_clean_linker_0, # of connection points: 2
#     Edge 77, Type (0, 1), BuildingBlock: CIFDUS_clean_linker_0, # of connection points: 2
#     Edge 78, Type (0, 1), BuildingBlock: CIFDUS_clean_linker_0, # of connection points: 2
#     Edge 79, Type (0, 1), BuildingBlock: CIFDUS_clean_linker_0, # of connection points: 2
#     Edge 80, Type (0, 1), BuildingBlock: CIFDUS_clean_linker_0, # of connection points: 2
# Relax obj value: 0.107
# Max RMSD: 0.256
# Mean RMSD: 0.187
data_MOF--net-eea--node1-HISSIN_clean_sbu_0--node2-CUQRIR_clean_linker_1--edge1-CIFDUS_clean_linker_0
_symmetry_space_group_name_H-M    P1
_symmetry_Int_Tables_number       1
_symmetry_cell_setting            triclinic
loop_
_symmetry_equiv_pos_as_xyz
'x, y, z'
_cell_length_a     42.230419
_cell_length_b     43.628658
_cell_length_c     59.405492
_cell_angle_alpha  87.039425
_cell_angle_beta   92.819052
_cell_angle_gamma 119.33275
loop_
_atom_site_label
_atom_site_type_symbol
_atom_site_fract_x
_atom_site_fract_y
_atom_site_fract_z
_atom_type_partial_charge
C0 C 0.25282 0.12446 0.38933 0.0
N1 N 0.2627 0.15064 0.40399 0.0
N2 N 0.2534 0.0964 0.39973 0.0
C3 C 0.23904 0.12485 0.3655 0.0
C4 C 0.2636 0.10626 0.4213 0.0
N5 N 0.26878 0.13907 0.424 0.0
C6 C 0.27109 0.08483 0.43927 0.0
H7 H 0.22522 0.14093 0.36387 0.0
H8 H 0.21978 0.09784 0.36003 0.0
H9 H 0.26241 0.13653 0.35409 0.0
H10 H 0.27828 0.06641 0.4317 0.0
H11 H 0.24636 0.06927 0.4493 0.0
H12 H 0.29358 0.10214 0.45084 0.0
C13 C 0.92317 0.13606 0.41081 0.0
N14 N 0.94277 0.1617 0.42591 0.0
N15 N 0.8918 0.11067 0.41986 0.0
C16 C 0.93435 0.13581 0.38713 0.0
C17 C 0.89319 0.12129 0.44103 0.0
N18 N 0.924 0.15199 0.44484 0.0
C19 C 0.86404 0.10175 0.45806 0.0
H20 H 0.92183 0.10892 0.3807 0.0
H21 H 0.96429 0.14781 0.38631 0.0
H22 H 0.92522 0.15109 0.37574 0.0
H23 H 0.84783 0.07341 0.45432 0.0
H24 H 0.84563 0.1132 0.45759 0.0
H25 H 0.87605 0.10441 0.47536 0.0
C26 C 0.88168 0.77174 0.40493 0.0
N27 N 0.90601 0.76744 0.41853 0.0
N28 N 0.85781 0.7756 0.41724 0.0
C29 C 0.87918 0.76881 0.37968 0.0
C30 C 0.86842 0.7734 0.43883 0.0
N31 N 0.89764 0.7684 0.43966 0.0
C32 C 0.85059 0.77647 0.45929 0.0
H33 H 0.85047 0.75689 0.37355 0.0
H34 H 0.89105 0.75262 0.37444 0.0
H35 H 0.89449 0.79539 0.37164 0.0
H36 H 0.82836 0.75002 0.46428 0.0
H37 H 0.83898 0.79422 0.45568 0.0
H38 H 0.87027 0.78666 0.47371 0.0
C39 C 0.12852 0.26529 0.64889 0.0
N40 N 0.15502 0.27395 0.63384 0.0
N41 N 0.10275 0.27272 0.64005 0.0
C42 C 0.12685 0.24801 0.67179 0.0
C43 C 0.11418 0.28581 0.61908 0.0
N44 N 0.14574 0.2863 0.61524 0.0
C45 C 0.09326 0.29582 0.60176 0.0
H46 H 0.1343 0.22702 0.67068 0.0
H47 H 0.09979 0.23672 0.67929 0.0
H48 H 0.14658 0.26795 0.68347 0.0
H49 H 0.07714 0.30588 0.6097 0.0
H50 H 0.07416 0.27214 0.59233 0.0
H51 H 0.11179 0.31617 0.58961 0.0
C52 C 0.76976 0.87928 0.65161 0.0
N53 N 0.7626 0.85576 0.63533 0.0
N54 N 0.76022 0.90363 0.64435 0.0
C55 C 0.78716 0.87933 0.67434 0.0
C56 C 0.7468 0.89408 0.6232 0.0
N57 N 0.74794 0.86493 0.61775 0.0
C58 C 0.73374 0.91402 0.60753 0.0
H59 H 0.78113 0.85237 0.67987 0.0
H60 H 0.77757 0.89016 0.68721 0.0
H61 H 0.81703 0.8963 0.67327 0.0
H62 H 0.72519 0.92979 0.6171 0.0
H63 H 0.71072 0.89571 0.59665 0.0
H64 H 0.75623 0.93209 0.59645 0.0
C65 C 0.11398 0.92172 0.63082 0.0
N66 N 0.09869 0.89216 0.61848 0.0
N67 N 0.14332 0.94804 0.62042 0.0
C68 C 0.09842 0.92605 0.65191 0.0
C69 C 0.14525 0.93349 0.6013 0.0
N70 N 0.11804 0.89984 0.59998 0.0
C71 C 0.17501 0.95144 0.58448 0.0
H72 H 0.06839 0.90961 0.65165 0.0
H73 H 0.10579 0.95394 0.65386 0.0
H74 H 0.10963 0.91762 0.66673 0.0
H75 H 0.18062 0.93215 0.5766 0.0
H76 H 0.20044 0.97174 0.59258 0.0
H77 H 0.16619 0.96433 0.57095 0.0
C78 C 0.88718 0.43917 0.73643 0.0
N79 N 0.89526 0.4652 0.75098 0.0
N80 N 0.89149 0.41295 0.74681 0.0
C81 C 0.87617 0.43987 0.712 0.0
C82 C 0.902 0.42376 0.76817 0.0
N83 N 0.90404 0.45528 0.77074 0.0
C84 C 0.91163 0.40412 0.78635 0.0
H85 H 0.85898 0.4526 0.70979 0.0
H86 H 0.8613 0.4132 0.70512 0.0
H87 H 0.90097 0.45539 0.70204 0.0
H88 H 0.94145 0.41449 0.78667 0.0
H89 H 0.89785 0.37555 0.78317 0.0
H90 H 0.90403 0.40791 0.80315 0.0
C91 C 0.57789 0.46692 0.73946 0.0
N92 N 0.59823 0.49237 0.75446 0.0
N93 N 0.54783 0.44063 0.74916 0.0
C94 C 0.58525 0.46946 0.7147 0.0
C95 C 0.55052 0.45087 0.77063 0.0
N96 N 0.58088 0.48228 0.77393 0.0
C97 C 0.52302 0.43043 0.78846 0.0
H98 H 0.60161 0.49728 0.70881 0.0
H99 H 0.55943 0.45693 0.70463 0.0
H100 H 0.60046 0.45538 0.71169 0.0
H101 H 0.53661 0.43212 0.80514 0.0
H102 H 0.50646 0.40227 0.78441 0.0
H103 H 0.50483 0.44188 0.78978 0.0
C104 C 0.55754 0.10909 0.74184 0.0
N105 N 0.57584 0.09656 0.75526 0.0
N106 N 0.5268 0.10326 0.75172 0.0
C107 C 0.57201 0.13114 0.72054 0.0
C108 C 0.5271 0.08699 0.77166 0.0
N109 N 0.55693 0.08305 0.77392 0.0
C110 C 0.49898 0.07612 0.78941 0.0
H111 H 0.56197 0.15029 0.7179 0.0
H112 H 0.56268 0.11361 0.70595 0.0
H113 H 0.60215 0.14583 0.72102 0.0
H114 H 0.473 0.07308 0.78201 0.0
H115 H 0.50927 0.09651 0.80236 0.0
H116 H 0.49396 0.05097 0.79791 0.0
C117 C 0.78148 0.58154 0.97557 0.0
N118 N 0.81159 0.59595 0.96295 0.0
N119 N 0.756 0.58866 0.96594 0.0
C120 C 0.77502 0.55663 0.99556 0.0
C121 C 0.7715 0.60763 0.94699 0.0
N122 N 0.80517 0.61193 0.9451 0.0
C123 C 0.75349 0.6213 0.92997 0.0
H124 H 0.74573 0.53746 0.99724 0.0
H125 H 0.78483 0.57202 1.01111 0.0
H126 H 0.78997 0.54186 0.99411 0.0
H127 H 0.77387 0.64681 0.92236 0.0
H128 H 0.73212 0.62466 0.93783 0.0
H129 H 0.7408 0.60229 0.91625 0.0
C130 C 0.45814 0.22846 0.98044 0.0
N131 N 0.44768 0.203 0.96513 0.0
N132 N 0.46277 0.25878 0.97026 0.0
C133 C 0.4634 0.22354 1.00536 0.0
C134 C 0.45514 0.25104 0.94821 0.0
N135 N 0.44654 0.21728 0.94499 0.0
C136 C 0.45485 0.27603 0.92982 0.0
H137 H 0.43642 0.2091 0.01319 0.0
H138 H 0.4793 0.24891 0.01382 0.0
H139 H 0.47733 0.20768 1.00836 0.0
H140 H 0.46083 0.30171 0.93633 0.0
H141 H 0.428 0.26391 0.92084 0.0
H142 H 0.47566 0.28091 0.91737 0.0
C143 C 0.78865 0.23966 0.97103 0.0
N144 N 0.76925 0.21194 0.95741 0.0
N145 N 0.81832 0.26526 0.96048 0.0
C146 C 0.78082 0.2403 0.9954 0.0
C147 C 0.81637 0.25207 0.94 0.0
N148 N 0.78693 0.21973 0.9382 0.0
C149 C 0.84234 0.27134 0.92126 0.0
H150 H 0.76321 0.25242 0.99653 0.0
H151 H 0.80631 0.25617 1.00526 0.0
H152 H 0.76657 0.21329 1.00299 0.0
H153 H 0.86427 0.26424 0.92223 0.0
H154 H 0.85472 0.30023 0.92268 0.0
H155 H 0.82833 0.26372 0.90454 0.0
C156 C 0.53314 0.76692 0.07706 0.0
N157 N 0.54432 0.79541 0.08996 0.0
N158 N 0.54348 0.7443 0.08679 0.0
C159 C 0.51078 0.7604 0.05551 0.0
C160 C 0.56154 0.76015 0.10591 0.0
N161 N 0.56234 0.79128 0.10773 0.0
C162 C 0.57714 0.74458 0.1233 0.0
H163 H 0.48155 0.74584 0.0596 0.0
H164 H 0.51593 0.74425 0.04401 0.0
H165 H 0.51665 0.78557 0.04665 0.0
H166 H 0.58347 0.72559 0.11566 0.0
H167 H 0.55693 0.73057 0.1366 0.0
H168 H 0.60213 0.76555 0.13138 0.0
C169 C 0.23343 0.80043 0.06694 0.0
N170 N 0.25231 0.82577 0.08229 0.0
N171 N 0.20107 0.77568 0.07512 0.0
C172 C 0.24658 0.79957 0.04397 0.0
C173 C 0.20051 0.78689 0.0958 0.0
N174 N 0.23139 0.81728 0.10022 0.0
C175 C 0.16934 0.76837 0.11161 0.0
H176 H 0.26515 0.82653 0.03737 0.0
H177 H 0.22374 0.78651 0.03168 0.0
H178 H 0.26132 0.78434 0.04524 0.0
H179 H 0.17543 0.75187 0.12397 0.0
H180 H 0.14363 0.75117 0.10234 0.0
H181 H 0.16573 0.78764 0.1211 0.0
C182 C 0.20414 0.41961 0.06575 0.0
N183 N 0.22708 0.41395 0.07988 0.0
N184 N 0.17434 0.41407 0.07664 0.0
C185 C 0.20932 0.42786 0.04082 0.0
C186 C 0.17958 0.40444 0.09788 0.0
N187 N 0.21156 0.40421 0.09987 0.0
C188 C 0.15371 0.39607 0.11676 0.0
H189 H 0.22422 0.45678 0.03782 0.0
H190 H 0.18266 0.41721 0.03167 0.0
H191 H 0.22526 0.41663 0.03393 0.0
H192 H 0.14238 0.41431 0.11584 0.0
H193 H 0.16674 0.39758 0.1336 0.0
H194 H 0.1308 0.36894 0.1149 0.0
C195 C 0.4636 0.939 0.31676 0.0
N196 N 0.48959 0.95045 0.30101 0.0
N197 N 0.43571 0.94399 0.30922 0.0
C198 C 0.46276 0.91833 0.3381 0.0
C199 C 0.44501 0.95802 0.28818 0.0
N200 N 0.47769 0.96187 0.28308 0.0
C201 C 0.4219 0.9677 0.27261 0.0
H202 H 0.43457 0.90082 0.34361 0.0
H203 H 0.47778 0.9369 0.35176 0.0
H204 H 0.47577 0.902 0.33573 0.0
H205 H 0.40405 0.97385 0.28235 0.0
H206 H 0.40443 0.94511 0.26184 0.0
H207 H 0.43911 0.99064 0.2615 0.0
C208 C 0.12979 0.56362 0.30849 0.0
N209 N 0.12101 0.53829 0.29332 0.0
N210 N 0.12298 0.58912 0.29972 0.0
C211 C 0.1415 0.56173 0.33266 0.0
C212 C 0.10915 0.57816 0.27878 0.0
N213 N 0.10756 0.54709 0.27498 0.0
C214 C 0.09972 0.59898 0.2614 0.0
H215 H 0.13034 0.53399 0.33878 0.0
H216 H 0.13229 0.5754 0.34372 0.0
H217 H 0.17158 0.57476 0.33393 0.0
H218 H 0.11676 0.62764 0.2639 0.0
H219 H 0.07079 0.59171 0.263 0.0
H220 H 0.10342 0.59309 0.24408 0.0
C221 C 0.45007 0.5969 0.30099 0.0
N222 N 0.43497 0.56737 0.28865 0.0
N223 N 0.47847 0.62372 0.29016 0.0
C224 C 0.43511 0.60062 0.32252 0.0
C225 C 0.48003 0.60948 0.2708 0.0
N226 N 0.45345 0.57553 0.26975 0.0
C227 C 0.50899 0.62798 0.25355 0.0
H228 H 0.40517 0.58357 0.32273 0.0
H229 H 0.44186 0.6283 0.32468 0.0
H230 H 0.44732 0.59254 0.33698 0.0
H231 H 0.51482 0.60909 0.24532 0.0
H232 H 0.53451 0.64861 0.26136 0.0
H233 H 0.49926 0.64055 0.24034 0.0
Eu234 Eu 0.51146 0.98961 1.00003 0.0
Eu235 Eu 0.52408 0.03134 0.04774 0.0
C236 C 0.49312 0.05306 1.00226 0.0
C237 C 0.51816 0.97217 0.9387 0.0
C238 C 0.52258 1.00459 0.93019 0.0
C239 C 0.53531 0.96204 0.90248 0.0
C240 C 0.53259 0.01534 0.90788 0.0
C241 C 0.52499 0.95117 0.9248 0.0
C242 C 0.53885 0.99412 0.89363 0.0
C243 C 0.50603 0.9599 0.96189 0.0
O244 O 0.47251 0.9803 0.05324 0.0
O245 O 0.45666 0.96098 0.01679 0.0
C246 C 0.44908 0.95927 0.03826 0.0
O247 O 0.5144 0.95427 0.02774 0.0
O248 O 0.5057 0.04927 0.07538 0.0
O249 O 0.56158 0.06046 0.07519 0.0
O250 O 0.55093 0.99725 0.05207 0.0
C251 C 0.5364 0.96482 0.04538 0.0
O252 O 0.57076 0.03242 1.00197 0.0
O253 O 0.56452 0.07095 0.02357 0.0
O254 O 0.49224 0.04996 0.02445 0.0
O255 O 0.53149 0.96562 0.97715 0.0
O256 O 0.48129 0.96655 0.969 0.0
O257 O 0.50497 0.03662 0.99017 0.0
C258 C 0.53288 0.04579 0.11014 0.0
C259 C 0.52328 0.01032 0.11393 0.0
C260 C 0.5321 0.05193 0.15051 0.0
C261 C 0.5176 0.99561 0.13581 0.0
C262 C 0.53773 0.06664 0.12855 0.0
C263 C 0.52134 0.01607 0.15435 0.0
C264 C 0.53622 0.06037 0.08693 0.0
C265 C 0.58232 0.06458 1.00866 0.0
H266 H 0.51766 0.02134 0.94068 0.0
H267 H 0.54037 0.94524 0.89215 0.0
H268 H 0.53436 0.03988 0.90165 0.0
H269 H 0.52202 0.92619 0.93114 0.0
H270 H 0.51949 0.99383 0.09989 0.0
H271 H 0.53482 0.0683 0.16438 0.0
H272 H 0.50976 0.96804 0.13819 0.0
H273 H 0.54506 0.09406 0.12591 0.0
Eu274 Eu 0.018 0.53052 0.99814 0.0
Eu275 Eu 0.98636 0.5071 0.04945 0.0
C276 C 0.94844 0.45527 1.00899 0.0
C277 C 0.01778 0.53749 0.93456 0.0
C278 C 0.98853 0.50344 0.93168 0.0
C279 C 0.00686 0.55364 0.89636 0.0
C280 C 0.96887 0.49445 0.91124 0.0
C281 C 0.02675 0.56253 0.9168 0.0
C282 C 0.97765 0.51944 0.89331 0.0
C283 C 0.03772 0.54751 0.95637 0.0
O284 O 0.02132 0.48248 0.04368 0.0
O285 O 0.06011 0.52282 0.01803 0.0
C286 C 0.05234 0.49753 0.03327 0.0
O287 O 0.04571 0.5798 0.01867 0.0
O288 O 0.96285 0.46641 0.07613 0.0
O289 O 0.9729 0.5192 0.08157 0.0
O290 O 0.04223 0.5537 0.05364 0.0
C291 C 0.05653 0.58148 0.03995 0.0
O292 O 0.9646 0.52954 0.99772 0.0
O293 O 0.96573 0.54296 0.03446 0.0
O294 O 0.94228 0.46913 0.02621 0.0
O295 O 0.02958 0.56631 0.96881 0.0
O296 O 0.04062 0.5228 0.96811 0.0
O297 O 0.97964 0.47161 0.99872 0.0
C298 C 0.97865 0.48699 0.11327 0.0
C299 C 0.01508 0.51043 0.11903 0.0
C300 C 0.96928 0.46297 0.15168 0.0
C301 C 0.02828 0.51067 0.14116 0.0
C302 C 0.95611 0.46285 0.12961 0.0
C303 C 0.0053 0.48742 0.15788 0.0
C304 C 0.96332 0.48809 0.09062 0.0
C305 C 0.95473 0.54288 0.01339 0.0
H306 H 0.98079 0.48374 0.94524 0.0
H307 H 0.01411 0.57367 0.88305 0.0
H308 H 0.94704 0.4677 0.90943 0.0
H309 H 0.04893 0.58908 0.91883 0.0
H310 H 0.03302 0.52915 0.10659 0.0
H311 H 0.95101 0.44434 0.16402 0.0
H312 H 0.05603 0.53006 0.14536 0.0
H313 H 0.92802 0.44434 0.12542 0.0
Eu314 Eu 0.49679 0.48996 0.05058 0.0
Eu315 Eu 0.48721 0.5091 0.99636 0.0
C316 C 0.50683 0.56507 0.03507 0.0
C317 C 0.48987 0.48755 0.11408 0.0
C318 C 0.49401 0.52137 0.11539 0.0
C319 C 0.46281 0.47263 0.15111 0.0
C320 C 0.48305 0.53085 0.13443 0.0
C321 C 0.47412 0.46324 0.13206 0.0
C322 C 0.46713 0.50661 0.15255 0.0
C323 C 0.50107 0.4773 0.09385 0.0
O324 O 0.53738 0.50397 1.00049 0.0
O325 O 0.55292 0.52166 0.03677 0.0
C326 C 0.56192 0.51815 0.01665 0.0
O327 O 0.49676 0.44708 0.03087 0.0
O328 O 0.50936 0.54663 0.9679 0.0
O329 O 0.4619 0.49598 0.96258 0.0
O330 O 0.462 0.45025 1.00078 0.0
C331 C 0.47533 0.43314 0.01314 0.0
O332 O 0.43733 0.46611 0.04171 0.0
O333 O 0.43811 0.5043 0.01341 0.0
O334 O 0.51433 0.56008 0.01482 0.0
O335 O 0.47493 0.45569 0.0806 0.0
O336 O 0.52749 0.50254 0.08254 0.0
O337 O 0.49171 0.53896 0.04991 0.0
C338 C 0.5044 0.52123 0.93277 0.0
C339 C 0.50739 0.49109 0.92947 0.0
C340 C 0.53658 0.54709 0.89781 0.0
C341 C 0.52453 0.48888 0.91044 0.0
C342 C 0.51924 0.54918 0.91678 0.0
C343 C 0.53947 0.51686 0.89428 0.0
C344 C 0.48726 0.52468 0.95306 0.0
C345 C 0.42147 0.48126 0.02989 0.0
H346 H 0.50584 0.54062 0.10171 0.0
H347 H 0.45031 0.45312 0.16455 0.0
H348 H 0.48757 0.55747 0.13501 0.0
H349 H 0.47037 0.43691 0.13132 0.0
H350 H 0.49649 0.46922 0.94161 0.0
H351 H 0.54812 0.56943 0.88608 0.0
H352 H 0.52555 0.4649 0.90827 0.0
H353 H 0.51767 0.57287 0.91905 0.0
Eu354 Eu 0.18803 0.33421 0.33368 0.0
Eu355 Eu 0.20989 0.37071 0.38354 0.0
C356 C 0.182 0.40325 0.34223 0.0
C357 C 0.19053 0.32466 0.27075 0.0
C358 C 0.22287 0.35676 0.26818 0.0
C359 C 0.18169 0.32251 0.23004 0.0
C360 C 0.23458 0.37161 0.24667 0.0
C361 C 0.17012 0.30763 0.25155 0.0
C362 C 0.21406 0.35474 0.22729 0.0
C363 C 0.17787 0.30893 0.29334 0.0
O364 O 0.14923 0.33443 0.38486 0.0
O365 O 0.139 0.29893 0.35466 0.0
C366 C 0.12829 0.30639 0.37312 0.0
O367 O 0.21803 0.31092 0.35445 0.0
O368 O 0.20182 0.39565 0.41207 0.0
O369 O 0.24882 0.38803 0.41178 0.0
O370 O 0.20121 0.31608 0.38925 0.0
C371 C 0.21309 0.30138 0.37587 0.0
O372 O 0.23838 0.38671 0.32872 0.0
O373 O 0.2619 0.39053 0.36449 0.0
O374 O 0.20394 0.40989 0.36001 0.0
O375 O 0.20283 0.31039 0.30773 0.0
O376 O 0.1552 0.31652 0.30246 0.0
O377 O 0.16709 0.3729 0.33232 0.0
C378 C 0.22049 0.37895 0.44628 0.0
C379 C 0.20645 0.34244 0.44872 0.0
C380 C 0.21659 0.38192 0.48665 0.0
C381 C 0.19746 0.32576 0.46994 0.0
C382 C 0.22576 0.39865 0.46536 0.0
C383 C 0.20202 0.34521 0.48914 0.0
C384 C 0.22904 0.3961 0.42379 0.0
C385 C 0.26598 0.40051 0.34308 0.0
H386 H 0.23908 0.3704 0.2828 0.0
H387 H 0.16476 0.30912 0.21558 0.0
H388 H 0.25973 0.39627 0.24525 0.0
H389 H 0.14501 0.28295 0.25319 0.0
H390 H 0.20221 0.32676 0.43417 0.0
H391 H 0.21993 0.39758 0.50105 0.0
H392 H 0.18673 0.29755 0.47129 0.0
H393 H 0.23647 0.42685 0.46374 0.0
Eu394 Eu 0.69528 0.87737 0.32738 0.0
Eu395 Eu 0.66771 0.8631 0.38083 0.0
C396 C 0.62511 0.80578 0.34229 0.0
C397 C 0.70128 0.88612 0.26264 0.0
C398 C 0.66964 0.88855 0.25805 0.0
C399 C 0.70385 0.87662 0.22307 0.0
C400 C 0.65514 0.88497 0.236 0.0
C401 C 0.71834 0.88037 0.24501 0.0
C402 C 0.67197 0.87872 0.21824 0.0
C403 C 0.71639 0.88818 0.28568 0.0
O404 O 0.71809 0.85822 0.38162 0.0
O405 O 0.71837 0.84527 0.34454 0.0
C406 C 0.72902 0.84614 0.36572 0.0
O407 O 0.74242 0.91715 0.34828 0.0
O408 O 0.64656 0.82625 0.40963 0.0
O409 O 0.65709 0.87966 0.41242 0.0
O410 O 0.71093 0.92017 0.37777 0.0
C411 C 0.7404 0.93315 0.36585 0.0
O412 O 0.6627 0.90501 0.33002 0.0
O413 O 0.62912 0.87715 0.3616 0.0
O414 O 0.6375 0.81143 0.36324 0.0
O415 O 0.71838 0.91283 0.29819 0.0
O416 O 0.70541 0.85829 0.2968 0.0
O417 O 0.63865 0.83068 0.32651 0.0
C418 C 0.66725 0.85141 0.44542 0.0
C419 C 0.69421 0.88338 0.45421 0.0
C420 C 0.67384 0.82076 0.47929 0.0
C421 C 0.71064 0.88403 0.47536 0.0
C422 C 0.65727 0.82016 0.45819 0.0
C423 C 0.70068 0.85273 0.48823 0.0
C424 C 0.64914 0.84999 0.42315 0.0
C425 C 0.63581 0.89752 0.34334 0.0
H426 H 0.65598 0.89284 0.27152 0.0
H427 H 0.71712 0.87102 0.21001 0.0
H428 H 0.63072 0.88696 0.23288 0.0
H429 H 0.74261 0.87814 0.2483 0.0
H430 H 0.70252 0.90798 0.44484 0.0
H431 H 0.66572 0.79611 0.48853 0.0
H432 H 0.73068 0.90924 0.48181 0.0
H433 H 0.63657 0.79513 0.45183 0.0
Eu434 Eu 0.16897 0.82251 0.38119 0.0
Eu435 Eu 0.1564 0.84323 0.32791 0.0
C436 C 0.17856 0.89775 0.36772 0.0
C437 C 0.16394 0.81869 0.44459 0.0
C438 C 0.16636 0.85178 0.44625 0.0
C439 C 0.13612 0.80177 0.48143 0.0
C440 C 0.15411 0.85988 0.4653 0.0
C441 C 0.14871 0.79376 0.46235 0.0
C442 C 0.13854 0.83496 0.48314 0.0
C443 C 0.17602 0.80981 0.4241 0.0
O444 O 0.20389 0.83388 0.32956 0.0
O445 O 0.22417 0.85232 0.36523 0.0
C446 C 0.23032 0.84737 0.34462 0.0
O447 O 0.16421 0.77865 0.3605 0.0
O448 O 0.17797 0.88094 0.29967 0.0
O449 O 0.12857 0.83168 0.29469 0.0
O450 O 0.12848 0.78403 0.33183 0.0
C451 C 0.14128 0.76567 0.3433 0.0
O452 O 0.10896 0.80211 0.37508 0.0
O453 O 0.10905 0.83941 0.34621 0.0
O454 O 0.18567 0.89382 0.3471 0.0
O455 O 0.15041 0.78712 0.41101 0.0
O456 O 0.20109 0.83615 0.41262 0.0
O457 O 0.16367 0.87095 0.38199 0.0
C458 C 0.16916 0.85543 0.26418 0.0
C459 C 0.19967 0.85046 0.2651 0.0
C460 C 0.16812 0.85374 0.2232 0.0
C461 C 0.21434 0.84727 0.24525 0.0
C462 C 0.15355 0.85703 0.24308 0.0
C463 C 0.19879 0.84884 0.22396 0.0
C464 C 0.15419 0.85998 0.28502 0.0
C465 C 0.09314 0.81744 0.36329 0.0
H466 H 0.17772 0.87152 0.43278 0.0
H467 H 0.12401 0.78177 0.49466 0.0
H468 H 0.15725 0.88597 0.46609 0.0
H469 H 0.14626 0.76795 0.46136 0.0
H470 H 0.21234 0.84929 0.28118 0.0
H471 H 0.15491 0.85444 0.20725 0.0
H472 H 0.23813 0.84391 0.2466 0.0
H473 H 0.13001 0.86083 0.24195 0.0
Eu474 Eu 0.84855 0.66086 0.66361 0.0
Eu475 Eu 0.86901 0.69584 0.71326 0.0
C476 C 0.8393 0.72766 0.6729 0.0
C477 C 0.84713 0.64629 0.60067 0.0
C478 C 0.85698 0.68101 0.59382 0.0
C479 C 0.86057 0.63597 0.56345 0.0
C480 C 0.86797 0.69295 0.57175 0.0
C481 C 0.84939 0.62402 0.58545 0.0
C482 C 0.86959 0.67046 0.55621 0.0
C483 C 0.83609 0.63331 0.62387 0.0
O484 O 0.80825 0.65852 0.71381 0.0
O485 O 0.80504 0.62128 0.68681 0.0
C486 C 0.79117 0.62793 0.70409 0.0
O487 O 0.88445 0.64282 0.68256 0.0
O488 O 0.86042 0.72162 0.74097 0.0
O489 O 0.90599 0.71161 0.74261 0.0
O490 O 0.86639 0.64307 0.71791 0.0
C491 C 0.88015 0.63126 0.7036 0.0
O492 O 0.89847 0.71368 0.65797 0.0
O493 O 0.92143 0.71965 0.69414 0.0
O494 O 0.86275 0.73501 0.68989 0.0
O495 O 0.86207 0.6359 0.63771 0.0
O496 O 0.81443 0.64219 0.63306 0.0
O497 O 0.82426 0.69699 0.66336 0.0
C498 C 0.87701 0.70566 0.77651 0.0
C499 C 0.84151 0.67934 0.78131 0.0
C500 C 0.89628 0.69909 0.81484 0.0
C501 C 0.83344 0.66315 0.80272 0.0
C502 C 0.90427 0.71554 0.79344 0.0
C503 C 0.86079 0.6725 0.81969 0.0
C504 C 0.88643 0.72116 0.75359 0.0
C505 C 0.92567 0.72868 0.67256 0.0
H506 H 0.85592 0.69878 0.60547 0.0
H507 H 0.86203 0.61812 0.55207 0.0
H508 H 0.87423 0.71949 0.56671 0.0
H509 H 0.84249 0.59733 0.59059 0.0
H510 H 0.82004 0.67098 0.76847 0.0
H511 H 0.91805 0.70671 0.82742 0.0
H512 H 0.80566 0.64331 0.80595 0.0
H513 H 0.93192 0.73553 0.78995 0.0
Eu514 Eu 0.36137 0.20005 0.658 0.0
Eu515 Eu 0.33653 0.18627 0.71174 0.0
C516 C 0.29125 0.12903 0.67332 0.0
C517 C 0.36252 0.20567 0.59342 0.0
C518 C 0.32566 0.19623 0.59113 0.0
C519 C 0.36486 0.20305 0.55282 0.0
C520 C 0.30839 0.18986 0.5698 0.0
C521 C 0.38208 0.20945 0.57413 0.0
C522 C 0.32766 0.19269 0.55038 0.0
C523 C 0.38047 0.21 0.6158 0.0
O524 O 0.38955 0.18664 0.71036 0.0
O525 O 0.38192 0.16548 0.67506 0.0
C526 C 0.39663 0.16997 0.69543 0.0
O527 O 0.40797 0.24279 0.67788 0.0
O528 O 0.32214 0.15014 0.74108 0.0
O529 O 0.32446 0.20049 0.74373 0.0
O530 O 0.37642 0.24422 0.70788 0.0
C531 C 0.40523 0.25879 0.69528 0.0
O532 O 0.32563 0.22446 0.66079 0.0
O533 O 0.2961 0.19925 0.69414 0.0
O534 O 0.3045 0.13455 0.69413 0.0
O535 O 0.38184 0.23459 0.62808 0.0
O536 O 0.37197 0.18105 0.62754 0.0
O537 O 0.30456 0.1539 0.65752 0.0
C538 C 0.3412 0.17684 0.77641 0.0
C539 C 0.37167 0.20899 0.78203 0.0
C540 C 0.34837 0.15152 0.81255 0.0
C541 C 0.39011 0.21243 0.80279 0.0
C542 C 0.32981 0.14817 0.79184 0.0
C543 C 0.37875 0.18374 0.81837 0.0
C544 C 0.32126 0.17233 0.75456 0.0
C545 C 0.30027 0.21774 0.67524 0.0
H546 H 0.31012 0.19319 0.60587 0.0
H547 H 0.38044 0.20493 0.53836 0.0
H548 H 0.27983 0.1823 0.56854 0.0
H549 H 0.41052 0.21656 0.57561 0.0
H550 H 0.38122 0.23152 0.77042 0.0
H551 H 0.33907 0.12872 0.8239 0.0
H552 H 0.41296 0.23784 0.80676 0.0
H553 H 0.30652 0.12304 0.78781 0.0
Eu554 Eu 0.83828 0.15342 0.71651 0.0
Eu555 Eu 0.82268 0.17092 0.66309 0.0
C556 C 0.8396 0.226 0.70097 0.0
C557 C 0.83732 0.14637 0.78156 0.0
C558 C 0.80121 0.13544 0.78716 0.0
C559 C 0.85675 0.16683 0.81972 0.0
C560 C 0.79294 0.13975 0.80897 0.0
C561 C 0.86493 0.16234 0.79803 0.0
C562 C 0.82058 0.15511 0.82565 0.0
C563 C 0.8467 0.14003 0.75917 0.0
O564 O 0.88325 0.19884 0.6703 0.0
O565 O 0.88623 0.16097 0.69749 0.0
C566 C 0.90123 0.18526 0.68157 0.0
O567 O 0.81354 0.10222 0.69803 0.0
O568 O 0.83455 0.20866 0.63485 0.0
O569 O 0.7968 0.15349 0.62982 0.0
O570 O 0.83372 0.12565 0.66288 0.0
C571 C 0.82121 0.09898 0.6774 0.0
O572 O 0.7857 0.15367 0.71541 0.0
O573 O 0.76734 0.1377 0.6789 0.0
O574 O 0.81817 0.21038 0.68361 0.0
O575 O 0.82003 0.11837 0.7462 0.0
O576 O 0.87116 0.16719 0.74789 0.0
O577 O 0.85653 0.21173 0.71281 0.0
C578 C 0.83244 0.18678 0.59861 0.0
C579 C 0.86937 0.19631 0.59754 0.0
C580 C 0.82712 0.18245 0.55776 0.0
C581 C 0.8851 0.19916 0.57666 0.0
C582 C 0.81152 0.17969 0.57855 0.0
C583 C 0.86424 0.19257 0.55641 0.0
C584 C 0.81525 0.18464 0.62024 0.0
C585 C 0.75992 0.13949 0.69996 0.0
H586 H 0.77924 0.1231 0.77481 0.0
H587 H 0.87893 0.1796 0.83187 0.0
H588 H 0.76481 0.13029 0.81287 0.0
H589 H 0.89296 0.1711 0.79416 0.0
H590 H 0.88611 0.2018 0.61281 0.0
H591 H 0.80984 0.17627 0.54272 0.0
H592 H 0.91372 0.20711 0.57636 0.0
H593 H 0.78297 0.17207 0.57895 0.0
H594 H 0.31024 0.82078 0.0708 0.0
H595 H 0.27718 0.89571 0.08714 0.0
H596 H 0.33667 0.94417 0.07669 0.0
H597 H 0.39649 0.96523 0.05918 0.0
H598 H 0.42407 0.88932 0.03636 0.0
H599 H 0.36802 0.84124 0.05192 0.0
C600 C 0.31608 0.84775 0.07205 0.0
C601 C 0.28917 0.85446 0.07989 0.0
C602 C 0.34915 0.8753 0.06413 0.0
C603 C 0.29744 0.88959 0.0818 0.0
C604 C 0.33132 0.91737 0.07534 0.0
C605 C 0.38997 0.9381 0.05757 0.0
C606 C 0.41406 0.93063 0.0465 0.0
C607 C 0.35704 0.91053 0.06589 0.0
C608 C 0.40559 0.89552 0.04452 0.0
C609 C 0.37374 0.86812 0.05357 0.0
H610 H 0.18642 0.47522 0.05742 0.0
H611 H 0.10153 0.3729 0.07836 0.0
H612 H 0.05546 0.38988 0.06696 0.0
H613 H 0.03998 0.43451 0.05151 0.0
H614 H 0.12541 0.53566 0.02842 0.0
H615 H 0.17089 0.51829 0.03968 0.0
C616 C 0.15778 0.45652 0.05902 0.0
C617 C 0.14713 0.42298 0.06866 0.0
C618 C 0.13176 0.46628 0.05206 0.0
C619 C 0.1101 0.399 0.07118 0.0
C620 C 0.08391 0.40867 0.0646 0.0
C621 C 0.06856 0.45269 0.04894 0.0
C622 C 0.07942 0.48634 0.03929 0.0
C623 C 0.09449 0.44236 0.05517 0.0
C624 C 0.11644 0.50955 0.03576 0.0
C625 C 0.14244 0.4997 0.04225 0.0
H626 H 0.56249 0.72652 0.04928 0.0
H627 H 0.50214 0.68418 0.10993 0.0
H628 H 0.48543 0.62433 0.09948 0.0
H629 H 0.48803 0.58437 0.07292 0.0
H630 H 0.54698 0.62678 1.01142 0.0
H631 H 0.56373 0.6862 0.02208 0.0
C632 C 0.54534 0.704 0.05996 0.0
C633 C 0.53323 0.70933 0.08019 0.0
C634 C 0.53558 0.66983 0.05365 0.0
C635 C 0.51162 0.68033 0.09427 0.0
C636 C 0.50207 0.64628 0.08827 0.0
C637 C 0.50452 0.60657 0.06182 0.0
C638 C 0.51625 0.60103 0.0414 0.0
C639 C 0.5139 0.64071 0.06798 0.0
C640 C 0.53748 0.63018 0.02721 0.0
C641 C 0.54715 0.66424 0.0333 0.0
H642 H 0.80875 0.31391 0.98069 0.0
H643 H 0.89079 0.29082 0.9598 0.0
H644 H 0.93859 0.34848 0.97189 0.0
H645 H 0.95708 0.40573 0.98835 0.0
H646 H 0.87518 0.42691 1.01231 0.0
H647 H 0.82739 0.3698 0.99942 0.0
C648 C 0.83712 0.32143 0.9791 0.0
C649 C 0.84628 0.2984 0.96909 0.0
C650 C 0.86446 0.35432 0.98662 0.0
C651 C 0.88313 0.30846 0.967 0.0
C652 C 0.91043 0.34132 0.97402 0.0
C653 C 0.92876 0.39786 0.99067 0.0
C654 C 0.91968 0.42062 1.00112 0.0
C655 C 0.90143 0.3646 0.98372 0.0
C656 C 0.88288 0.40984 1.00434 0.0
C657 C 0.85553 0.3772 0.99695 0.0
H658 H 0.73179 0.59336 1.00562 0.0
H659 H 0.69742 0.54918 0.93995 0.0
H660 H 0.6337 0.52246 0.95017 0.0
H661 H 0.58834 0.51216 0.9776 0.0
H662 H 0.62191 0.55515 0.04392 0.0
H663 H 0.68565 0.5813 0.03388 0.0
C664 C 0.71013 0.57784 0.9937 0.0
C665 C 0.71878 0.57356 0.97203 0.0
C666 C 0.67373 0.56217 0.99987 0.0
C667 C 0.69098 0.55332 0.95655 0.0
C668 C 0.65473 0.53786 0.96245 0.0
C669 C 0.60951 0.5271 0.98995 0.0
C670 C 0.6004 0.5318 1.01145 0.0
C671 C 0.64585 0.54219 0.98405 0.0
C672 C 0.62823 0.55112 0.02725 0.0
C673 C 0.66465 0.56619 0.0215 0.0
H674 H 0.48592 0.17695 0.94714 0.0
H675 H 0.4017 0.15287 0.99389 0.0
H676 H 0.40736 0.10267 1.00962 0.0
H677 H 0.44177 0.07021 0.01294 0.0
H678 H 0.52441 0.093 0.9649 0.0
H679 H 0.514 0.13889 0.94673 0.0
C680 C 0.46809 0.15989 0.96024 0.0
C681 C 0.44387 0.16864 0.96965 0.0
C682 C 0.47181 0.13134 0.96926 0.0
C683 C 0.42086 0.14666 0.98669 0.0
C684 C 0.42428 0.11818 0.99574 0.0
C685 C 0.45721 0.08508 0.99839 0.0
C686 C 0.48412 0.0786 0.99047 0.0
C687 C 0.45066 0.1111 0.98774 0.0
C688 C 0.50357 0.09757 0.97135 0.0
C689 C 0.49768 0.12386 0.96094 0.0
H690 H 0.71006 0.20991 0.9732 0.0
H691 H 0.75242 0.14371 0.95369 0.0
H692 H 0.69705 0.09127 0.96655 0.0
H693 H 0.63797 0.06469 0.98604 0.0
H694 H 0.59931 0.13312 1.00792 0.0
H695 H 0.65187 0.18399 0.99202 0.0
C696 C 0.70709 0.18395 0.97179 0.0
C697 C 0.73528 0.18068 0.96259 0.0
C698 C 0.67596 0.15428 0.98003 0.0
C699 C 0.73092 0.14689 0.96046 0.0
C700 C 0.69942 0.11696 0.96806 0.0
C701 C 0.64106 0.09073 0.98726 0.0
C702 C 0.61474 0.09494 0.99843 0.0
C703 C 0.67197 0.12035 0.97829 0.0
C704 C 0.61924 0.12896 0.99978 0.0
C705 C 0.64927 0.15819 0.99057 0.0
H706 H 0.85323 0.61123 1.00035 0.0
H707 H 0.83741 0.56711 0.93492 0.0
H708 H 0.88301 0.54911 0.94434 0.0
H709 H 0.92234 0.54057 0.97252 0.0
H710 H 0.93414 0.57972 0.03948 0.0
H711 H 0.89435 0.60423 0.02842 0.0
C712 C 0.8604 0.59818 0.98813 0.0
C713 C 0.84261 0.59094 0.9669 0.0
C714 C 0.88507 0.58622 0.99418 0.0
C715 C 0.85159 0.57386 0.95109 0.0
C716 C 0.87715 0.563 0.95666 0.0
C717 C 0.91639 0.55457 0.98473 0.0
C718 C 0.93096 0.55805 1.00687 0.0
C719 C 0.89327 0.5682 0.97835 0.0
C720 C 0.92299 0.57636 0.0224 0.0
C721 C 0.9004 0.59053 0.01607 0.0
H722 H 0.41721 0.28433 0.97177 0.0
H723 H 0.52453 0.30401 0.99189 0.0
H724 H 0.5373 0.35909 1.00913 0.0
H725 H 0.51838 0.40286 0.01674 0.0
H726 H 0.4124 0.38481 0.99354 0.0
H727 H 0.39835 0.32791 0.97922 0.0
C728 C 0.44327 0.30085 0.98001 0.0
C729 C 0.46993 0.29054 0.98077 0.0
C730 C 0.45052 0.33263 0.98924 0.0
C731 C 0.50372 0.31172 0.99135 0.0
C732 C 0.51095 0.34308 1.0011 0.0
C733 C 0.49209 0.38618 1.0088 0.0
C734 C 0.46637 0.39778 1.00626 0.0
C735 C 0.48462 0.35396 0.99998 0.0
C736 C 0.43261 0.37634 0.99562 0.0
C737 C 0.42457 0.34386 0.98743 0.0
H738 H 0.18127 0.71083 0.0915 0.0
H739 H 0.16066 0.76812 0.03707 0.0
H740 H 0.11492 0.71273 0.02045 0.0
H741 H 0.07993 0.64782 0.02206 0.0
H742 H 0.09838 0.59094 0.07811 0.0
H743 H 0.14553 0.64609 0.09355 0.0
C744 C 0.1667 0.71093 0.07598 0.0
C745 C 0.17461 0.74319 0.06519 0.0
C746 C 0.14 0.67908 0.06692 0.0
C747 C 0.15547 0.74341 0.04525 0.0
C748 C 0.12923 0.71181 0.0359 0.0
C749 C 0.09441 0.64749 0.03757 0.0
C750 C 0.08564 0.61523 0.04885 0.0
C751 C 0.12121 0.67944 0.04661 0.0
C752 C 0.10444 0.61535 0.06909 0.0
C753 C 0.13148 0.64689 0.07795 0.0
H754 H 0.27801 0.47448 0.06175 0.0
H755 H 0.25733 0.37168 0.0857 0.0
H756 H 0.31645 0.38377 0.07239 0.0
H757 H 0.37223 0.42242 0.05194 0.0
H758 H 0.38965 0.52273 0.02419 0.0
H759 H 0.33241 0.51207 0.03984 0.0
C760 C 0.2865 0.45473 0.06395 0.0
C761 C 0.2635 0.42229 0.07478 0.0
C762 C 0.31932 0.46109 0.05498 0.0
C763 C 0.27489 0.39708 0.07793 0.0
C764 C 0.30838 0.4038 0.06994 0.0
C765 C 0.3634 0.44189 0.04919 0.0
C766 C 0.38506 0.47331 0.03687 0.0
C767 C 0.33048 0.43547 0.05809 0.0
C768 C 0.37322 0.49818 0.03335 0.0
C769 C 0.34075 0.49226 0.04251 0.0
H770 H 0.59291 0.86449 0.08782 0.0
H771 H 0.47855 0.79029 0.08311 0.0
H772 H 0.46571 0.83717 0.06975 0.0
H773 H 0.48778 0.89804 0.05607 0.0
H774 H 0.60153 0.97383 0.06278 0.0
H775 H 0.61411 0.92787 0.07917 0.0
C776 C 0.5652 0.85894 0.08437 0.0
C777 C 0.53671 0.82404 0.08588 0.0
C778 C 0.55809 0.8862 0.07692 0.0
C779 C 0.50085 0.81692 0.08145 0.0
C780 C 0.49355 0.84367 0.07388 0.0
C781 C 0.51527 0.90449 0.06134 0.0
C782 C 0.54384 0.93892 0.05794 0.0
C783 C 0.52207 0.87817 0.07093 0.0
C784 C 0.57922 0.94734 0.06521 0.0
C785 C 0.58637 0.92108 0.07447 0.0
H786 H 0.96109 0.20754 0.39032 0.0
H787 H 0.00374 0.18561 0.4526 0.0
H788 H 0.06514 0.23145 0.44281 0.0
H789 H 0.10779 0.27337 0.41433 0.0
H790 H 0.06524 0.28626 0.34927 0.0
H791 H 1.00311 0.24735 0.36166 0.0
C792 C 0.98385 0.21261 0.40168 0.0
C793 C 0.97771 0.1928 0.4221 0.0
C794 C 0.01933 0.23688 0.39506 0.0
C795 C 0.00743 0.20067 0.43698 0.0
C796 C 0.0427 0.2265 0.43116 0.0
C797 C 0.08479 0.26764 0.40296 0.0
C798 C 0.09094 0.28259 0.3809 0.0
C799 C 0.04914 0.24404 0.40993 0.0
C800 C 0.06109 0.27484 0.36623 0.0
C801 C 0.02561 0.25276 0.37336 0.0
H802 H 0.86365 0.82418 0.38592 0.0
H803 H 0.78821 0.7428 0.43048 0.0
H804 H 0.74115 0.75816 0.41883 0.0
H805 H 0.72226 0.79592 0.39635 0.0
H806 H 0.79553 0.87216 0.3484 0.0
H807 H 0.84275 0.85711 0.3604 0.0
C808 C 0.83665 0.80932 0.39264 0.0
C809 C 0.82937 0.78274 0.40918 0.0
C810 C 0.80955 0.81736 0.38519 0.0
C811 C 0.79451 0.76394 0.41811 0.0
C812 C 0.76763 0.77253 0.41134 0.0
C813 C 0.74855 0.8089 0.3885 0.0
C814 C 0.75591 0.83508 0.37171 0.0
C815 C 0.77498 0.79942 0.39504 0.0
C816 C 0.78963 0.85178 0.36134 0.0
C817 C 0.81652 0.8433 0.36824 0.0
H818 H 0.20428 0.0336 0.41622 0.0
H819 H 0.27893 0.08438 0.36237 0.0
H820 H 0.26102 0.02702 0.34659 0.0
H821 H 0.22509 0.96212 0.349 0.0
H822 H 0.15239 0.91203 0.40426 0.0
H823 H 0.1687 0.96923 0.41874 0.0
C824 C 0.21674 0.03189 0.40115 0.0
C825 C 0.2429 0.06282 0.39047 0.0
C826 C 0.20665 0.99899 0.39248 0.0
C827 C 0.25858 0.06068 0.37073 0.0
C828 C 0.24842 0.02798 0.3618 0.0
C829 C 0.21265 0.96379 0.3641 0.0
C830 C 0.18759 0.93284 0.37551 0.0
C831 C 0.22255 0.9969 0.3726 0.0
C832 C 0.1719 0.93541 0.39518 0.0
C833 C 0.18117 0.96812 0.4035 0.0
H834 H 0.51487 0.64377 0.32986 0.0
H835 H 0.49433 0.68348 0.26624 0.0
H836 H 0.53792 0.7438 0.27661 0.0
H837 H 0.58351 0.78508 0.30341 0.0
H838 H 0.60218 0.74515 0.36778 0.0
H839 H 0.55752 0.68543 0.3577 0.0
C840 C 0.51963 0.66576 0.31849 0.0
C841 C 0.50177 0.65931 0.29726 0.0
C842 C 0.5445 0.70036 0.32469 0.0
C843 C 0.50826 0.68791 0.28253 0.0
C844 C 0.53307 0.72235 0.28849 0.0
C845 C 0.57774 0.76335 0.31527 0.0
C846 C 0.59645 0.76975 0.33628 0.0
C847 C 0.55172 0.72889 0.30943 0.0
C848 C 0.58829 0.74117 0.35149 0.0
C849 C 0.56274 0.70688 0.34573 0.0
H850 H 0.37377 0.89241 0.29305 0.0
H851 H 0.42061 0.96318 0.34783 0.0
H852 H 0.36082 0.93762 0.36519 0.0
H853 H 0.29464 0.89609 0.36367 0.0
H854 H 0.24903 0.82528 0.30833 0.0
H855 H 0.30881 0.84948 0.29235 0.0
C856 C 0.37053 0.90223 0.30869 0.0
C857 C 0.4008 0.9298 0.31909 0.0
C858 C 0.33647 0.8872 0.31849 0.0
C859 C 0.39713 0.94213 0.33959 0.0
C860 C 0.36315 0.92746 0.34946 0.0
C861 C 0.29797 0.88564 0.34833 0.0
C862 C 0.26745 0.8591 0.33716 0.0
C863 C 0.33253 0.90001 0.33899 0.0
C864 C 0.27206 0.84593 0.31718 0.0
C865 C 0.30622 0.85977 0.30796 0.0
H866 H 0.18396 0.54218 0.30614 0.0
H867 H 0.07333 0.46913 0.28741 0.0
H868 H 0.08323 0.41954 0.29932 0.0
H869 H 0.12207 0.39778 0.31903 0.0
H870 H 0.23019 0.47286 0.34198 0.0
H871 H 0.22244 0.52104 0.32519 0.0
C872 C 0.16214 0.51532 0.30463 0.0
C873 C 0.12795 0.50912 0.2962 0.0
C874 C 0.16745 0.48749 0.31279 0.0
C875 C 0.09993 0.47437 0.29375 0.0
C876 C 0.10551 0.44617 0.30085 0.0
C877 C 0.14388 0.42471 0.32025 0.0
C878 C 0.17652 0.43186 0.33192 0.0
C879 C 0.13887 0.45248 0.31105 0.0
C880 C 0.20462 0.46679 0.33343 0.0
C881 C 0.20033 0.49431 0.32369 0.0
H882 H 0.42369 0.52877 0.32718 0.0
H883 H 0.3748 0.53184 0.26242 0.0
H884 H 0.31867 0.47851 0.27286 0.0
H885 H 0.28208 0.43368 0.30155 0.0
H886 H 0.33034 0.43253 0.36717 0.0
H887 H 0.38781 0.48255 0.35543 0.0
C888 C 0.40069 0.51761 0.31541 0.0
C889 C 0.40325 0.53416 0.29409 0.0
C890 C 0.36827 0.48751 0.3218 0.0
C891 C 0.37355 0.51929 0.2788 0.0
C892 C 0.34138 0.48901 0.28487 0.0
C893 C 0.30522 0.4441 0.31325 0.0
C894 C 0.30167 0.42929 0.33529 0.0
C895 C 0.3382 0.47324 0.30648 0.0
C896 C 0.33208 0.44336 0.35016 0.0
C897 C 0.36505 0.47203 0.34347 0.0
H898 H 0.53783 0.96918 0.33531 0.0
H899 H 0.5119 0.92107 0.27065 0.0
H900 H 0.55898 0.90406 0.27704 0.0
H901 H 0.60198 0.89619 0.3033 0.0
H902 H 0.61823 0.9341 0.37077 0.0
H903 H 0.57954 0.9606 0.36162 0.0
C904 C 0.54274 0.95513 0.32262 0.0
C905 C 0.52153 0.9464 0.30259 0.0
C906 C 0.56739 0.94274 0.32729 0.0
C907 C 0.52835 0.92871 0.28602 0.0
C908 C 0.55479 0.9184 0.28987 0.0
C909 C 0.59705 0.91043 0.31588 0.0
C910 C 0.61259 0.91327 0.33766 0.0
C911 C 0.57356 0.92421 0.31077 0.0
C912 C 0.60608 0.93143 0.35399 0.0
C913 C 0.58422 0.94671 0.34871 0.0
H914 H 0.0781 0.61601 0.30199 0.0
H915 H 0.18608 0.63487 0.31986 0.0
H916 H 0.20036 0.69014 0.33699 0.0
H917 H 0.18291 0.73433 0.34529 0.0
H918 H 0.0771 0.71859 0.32378 0.0
H919 H 0.06115 0.66111 0.30933 0.0
C920 C 0.10478 0.63246 0.30949 0.0
C921 C 0.13097 0.62148 0.30984 0.0
C922 C 0.11313 0.66472 0.31854 0.0
C923 C 0.16536 0.64265 0.31981 0.0
C924 C 0.17358 0.6743 0.32943 0.0
C925 C 0.15625 0.71809 0.33765 0.0
C926 C 0.13108 0.73036 0.33571 0.0
C927 C 0.14775 0.68569 0.32877 0.0
C928 C 0.09686 0.70952 0.32542 0.0
C929 C 0.08776 0.67673 0.31717 0.0
H930 H 0.89127 0.05539 0.40106 0.0
H931 H 0.82386 0.1004 0.41497 0.0
H932 H 0.77037 0.04899 0.39969 0.0
H933 H 0.74262 0.99044 0.3832 0.0
H934 H 0.81091 0.94796 0.36564 0.0
H935 H 0.86442 0.99941 0.38089 0.0
C936 C 0.86501 0.05423 0.40015 0.0
C937 C 0.86139 0.08162 0.40895 0.0
C938 C 0.83463 0.02505 0.39071 0.0
C939 C 0.82708 0.07947 0.40831 0.0
C940 C 0.7966 0.05017 0.39957 0.0
C941 C 0.76929 0.99264 0.38261 0.0
C942 C 0.77289 0.96548 0.37346 0.0
C943 C 0.79999 0.02265 0.39089 0.0
C944 C 0.80757 0.96869 0.37252 0.0
C945 C 0.83812 0.998 0.38133 0.0
H946 H 0.95287 0.81955 0.39214 0.0
H947 H 0.93571 0.72537 0.42907 0.0
H948 H 0.99285 0.73257 0.41513 0.0
H949 H 0.04661 0.76514 0.39149 0.0
H950 H 0.06043 0.85695 0.35238 0.0
H951 H 0.00456 0.85035 0.36735 0.0
C952 C 0.96147 0.80037 0.39687 0.0
C953 C 0.94017 0.77188 0.41145 0.0
C954 C 0.99329 0.80398 0.3881 0.0
C955 C 0.95191 0.74768 0.41805 0.0
C956 C 0.98431 0.75163 0.40988 0.0
C957 C 0.0373 0.7836 0.38614 0.0
C958 C 0.05767 0.81151 0.3708 0.0
C959 C 0.00504 0.77956 0.39474 0.0
C960 C 0.04516 0.8351 0.36399 0.0
C961 C 0.01337 0.83151 0.37267 0.0
H962 H 0.22466 0.17492 0.42458 0.0
H963 H 0.30052 0.19882 0.37197 0.0
H964 H 0.2923 0.24854 0.35842 0.0
H965 H 0.2597 0.28209 0.35985 0.0
H966 H 0.18508 0.25947 0.41333 0.0
H967 H 0.19659 0.21252 0.42835 0.0
C968 C 0.23999 0.19169 0.41055 0.0
C969 C 0.26297 0.18341 0.39912 0.0
C970 C 0.23485 0.22 0.40283 0.0
C971 C 0.28255 0.20488 0.38082 0.0
C972 C 0.2777 0.23308 0.37305 0.0
C973 C 0.24601 0.26689 0.3748 0.0
C974 C 0.2212 0.27387 0.38525 0.0
C975 C 0.25317 0.2403 0.38355 0.0
C976 C 0.20418 0.25445 0.40489 0.0
C977 C 0.21075 0.22761 0.41351 0.0
H978 H 0.65365 0.48833 0.73781 0.0
H979 H 0.62416 0.56237 0.76128 0.0
H980 H 0.68261 0.61131 0.74925 0.0
H981 H 0.74056 0.63316 0.72894 0.0
H982 H 0.76516 0.55764 0.70164 0.0
H983 H 0.71007 0.5095 0.71752 0.0
C984 C 0.66008 0.51522 0.74033 0.0
C985 C 0.63446 0.52152 0.75052 0.0
C986 C 0.69274 0.5431 0.73217 0.0
C987 C 0.64341 0.55653 0.75394 0.0
C988 C 0.67673 0.5846 0.7467 0.0
C989 C 0.73384 0.60616 0.72651 0.0
C990 C 0.75702 0.59916 0.71392 0.0
C991 C 0.70134 0.57824 0.73532 0.0
C992 C 0.74776 0.56394 0.71094 0.0
C993 C 0.7163 0.5363 0.72016 0.0
H994 H 0.48983 0.09306 0.7124 0.0
H995 H 0.51295 0.14619 0.77511 0.0
H996 H 0.47437 0.1717 0.76311 0.0
H997 H 0.43477 0.17912 0.73478 0.0
H998 H 0.41255 0.12768 0.67118 0.0
H999 H 0.45065 0.10167 0.6833 0.0
C1000 C 0.48619 0.11021 0.7233 0.0
C1001 C 0.50345 0.11743 0.74467 0.0
C1002 C 0.46455 0.12524 0.71607 0.0
C1003 C 0.49909 0.1398 0.7588 0.0
C1004 C 0.47736 0.15455 0.75186 0.0
C1005 C 0.43822 0.16227 0.72349 0.0
C1006 C 0.42078 0.1553 0.70212 0.0
C1007 C 0.46002 0.14746 0.73054 0.0
C1008 C 0.42574 0.13352 0.68772 0.0
C1009 C 0.44742 0.11856 0.69465 0.0
H1010 H 0.83165 0.36003 0.72824 0.0
H1011 H 0.9444 0.396 0.74502 0.0
H1012 H 0.93835 0.34051 0.73281 0.0
H1013 H 0.90026 0.28105 0.71823 0.0
H1014 H 0.78863 0.24698 0.69844 0.0
H1015 H 0.79483 0.30248 0.71056 0.0
C1016 C 0.85495 0.35585 0.72868 0.0
C1017 C 0.88843 0.38185 0.73736 0.0
C1018 C 0.85134 0.32421 0.72122 0.0
C1019 C 0.91841 0.37612 0.73838 0.0
C1020 C 0.91492 0.34448 0.73144 0.0
C1021 C 0.87737 0.28588 0.71659 0.0
C1022 C 0.84398 0.25999 0.70768 0.0
C1023 C 0.88141 0.31817 0.72305 0.0
C1024 C 0.81462 0.26664 0.70525 0.0
C1025 C 0.81812 0.2983 0.71221 0.0
H1026 H 0.17842 0.96756 0.66061 0.0
H1027 H 0.16137 1.00809 0.59631 0.0
H1028 H 0.20543 0.06811 0.60696 0.0
H1029 H 0.25047 0.10883 0.63415 0.0
H1030 H 0.26614 0.0683 0.6991 0.0
H1031 H 0.22077 1.00885 0.68881 0.0
C1032 C 0.18407 0.98967 0.64914 0.0
C1033 C 0.16702 0.9835 0.62764 0.0
C1034 C 0.20926 0.02412 0.65549 0.0
C1035 C 0.17464 0.01227 0.61281 0.0
C1036 C 0.19972 0.04654 0.61893 0.0
C1037 C 0.24389 0.08705 0.64611 0.0
C1038 C 0.26199 0.0932 0.66734 0.0
C1039 C 0.21756 0.05277 0.64013 0.0
C1040 C 0.25277 0.06453 0.68264 0.0
C1041 C 0.22681 0.0304 0.67676 0.0
H1042 H 0.05084 0.2073 0.64964 0.0
H1043 H 0.07706 0.31576 0.64998 0.0
H1044 H 0.01575 0.29826 0.6625 0.0
H1045 H 0.9544 0.25151 0.67268 0.0
H1046 H 0.93082 0.14346 0.6764 0.0
H1047 H 0.99171 0.16109 0.66339 0.0
C1048 C 0.04306 0.22693 0.65284 0.0
C1049 C 0.06786 0.26261 0.64889 0.0
C1050 C 0.00849 0.21668 0.66076 0.0
C1051 C 0.05793 0.28813 0.65281 0.0
C1052 C 0.02309 0.27813 0.65999 0.0
C1053 C 0.96284 0.232 0.67072 0.0
C1054 C 0.9385 0.19635 0.67529 0.0
C1055 C 0.99809 0.24244 0.66387 0.0
C1056 C 0.94946 0.1711 0.67302 0.0
C1057 C 0.98408 0.18113 0.66552 0.0
H1058 H 0.82865 0.86362 0.64461 0.0
H1059 H 0.71823 0.78635 0.62883 0.0
H1060 H 0.73303 0.73896 0.63684 0.0
H1061 H 0.77624 0.71964 0.65256 0.0
H1062 H 0.88458 0.79803 0.67273 0.0
H1063 H 0.87177 0.84478 0.65942 0.0
C1064 C 0.80798 0.83635 0.64282 0.0
C1065 C 0.77243 0.82836 0.63624 0.0
C1066 C 0.81625 0.80947 0.64874 0.0
C1067 C 0.74587 0.79308 0.63358 0.0
C1068 C 0.75426 0.76603 0.63849 0.0
C1069 C 0.79705 0.74697 0.65384 0.0
C1070 C 0.83122 0.75539 0.66377 0.0
C1071 C 0.78914 0.77389 0.64672 0.0
C1072 C 0.85793 0.79089 0.66543 0.0
C1073 C 0.8507 0.81765 0.65772 0.0
H1074 H 0.08531 0.8539 0.65721 0.0
H1075 H 0.03908 0.8572 0.59157 0.0
H1076 H 0.98169 0.8051 0.60186 0.0
H1077 H 0.94326 0.76121 0.63069 0.0
H1078 H 0.98942 0.7604 0.69708 0.0
H1079 H 0.04777 0.80902 0.68554 0.0
C1080 C 0.06262 0.84306 0.6452 0.0
C1081 C 0.06632 0.85935 0.62371 0.0
C1082 C 0.0295 0.81377 0.6515 0.0
C1083 C 0.03698 0.84484 0.60812 0.0
C1084 C 0.00408 0.81529 0.61411 0.0
C1085 C 0.96613 0.77147 0.6426 0.0
C1086 C 0.96167 0.75709 0.66481 0.0
C1087 C 0.99978 0.79988 0.63591 0.0
C1088 C 0.99177 0.7709 0.67995 0.0
C1089 C 0.02529 0.79877 0.67336 0.0
H1090 H 0.20334 0.29069 0.66836 0.0
H1091 H 0.17224 0.2388 0.60491 0.0
H1092 H 0.21759 0.21956 0.61114 0.0
H1093 H 0.2623 0.21298 0.63642 0.0
H1094 H 0.28456 0.2556 0.7028 0.0
H1095 H 0.24532 0.28169 0.69431 0.0
C1096 C 0.20626 0.27483 0.65606 0.0
C1097 C 0.18448 0.26612 0.63627 0.0
C1098 C 0.23026 0.26161 0.66058 0.0
C1099 C 0.18923 0.24648 0.62007 0.0
C1100 C 0.21473 0.23499 0.62381 0.0
C1101 C 0.25845 0.22804 0.64893 0.0
C1102 C 0.27601 0.2325 0.67016 0.0
C1103 C 0.23479 0.24172 0.64424 0.0
C1104 C 0.27089 0.25172 0.68642 0.0
C1105 C 0.2487 0.26675 0.68153 0.0
H1106 H 0.80776 0.96756 0.62913 0.0
H1107 H 0.73261 0.91218 0.68202 0.0
H1108 H 0.74652 0.96831 0.69827 0.0
H1109 H 0.77836 0.03342 0.69607 0.0
H1110 H 0.85171 0.08795 0.64172 0.0
H1111 H 0.84036 0.03211 0.62734 0.0
C1112 C 0.79468 0.96805 0.64426 0.0
C1113 C 0.76946 0.93624 0.65454 0.0
C1114 C 0.80242 1.00022 0.65312 0.0
C1115 C 0.75241 0.93664 0.6741 0.0
C1116 C 0.76026 0.96863 0.68325 0.0
C1117 C 0.79208 0.03303 0.68122 0.0
C1118 C 0.81571 0.06482 0.66995 0.0
C1119 C 0.78502 1.00065 0.67278 0.0
C1120 C 0.83314 0.06388 0.65063 0.0
C1121 C 0.82673 0.03196 0.64238 0.0
H1122 H 0.55227 0.39258 0.7246 0.0
H1123 H 0.47664 0.42107 0.74978 0.0
H1124 H 0.42556 0.36717 0.73527 0.0
H1125 H 0.40234 0.31073 0.71675 0.0
H1126 H 0.47758 0.28391 0.68879 0.0
H1127 H 0.52883 0.33848 0.70259 0.0
C1128 C 0.52459 0.3871 0.72659 0.0
C1129 C 0.51813 0.4103 0.73869 0.0
C1130 C 0.49533 0.35636 0.7177 0.0
C1131 C 0.48217 0.40308 0.74106 0.0
C1132 C 0.453 0.37238 0.73267 0.0
C1133 C 0.42997 0.31693 0.71358 0.0
C1134 C 0.43615 0.29316 0.70193 0.0
C1135 C 0.45923 0.34857 0.72125 0.0
C1136 C 0.47208 0.30179 0.69767 0.0
C1137 C 0.50141 0.33293 0.70565 0.0
H1138 H 0.59247 0.07525 0.7184 0.0
H1139 H 0.63789 0.12863 0.78051 0.0
H1140 H 0.6986 0.14389 0.76931 0.0
H1141 H 0.73908 0.14771 0.74042 0.0
H1142 H 0.69577 0.10043 0.67604 0.0
H1143 H 0.63384 0.07822 0.68914 0.0
C1144 C 0.61576 0.0897 0.72955 0.0
C1145 C 0.6106 0.10002 0.75054 0.0
C1146 C 0.65092 0.10044 0.72225 0.0
C1147 C 0.64079 0.11905 0.76481 0.0
C1148 C 0.67568 0.12851 0.75812 0.0
C1149 C 0.71624 0.13244 0.72914 0.0
C1150 C 0.72214 0.12594 0.70716 0.0
C1151 C 0.68107 0.12019 0.73666 0.0
C1152 C 0.69203 0.1061 0.69293 0.0
C1153 C 0.65666 0.09325 0.70047 0.0
H1154 H 0.92584 0.51344 0.71733 0.0
H1155 H 0.85891 0.4877 0.77519 0.0
H1156 H 0.85053 0.5389 0.76678 0.0
H1157 H 0.8588 0.58854 0.74133 0.0
H1158 H 0.9224 0.61157 0.68185 0.0
H1159 H 0.93499 0.56365 0.6922 0.0
C1160 C 0.90925 0.51901 0.72794 0.0
C1161 C 0.89268 0.49677 0.7467 0.0
C1162 C 0.90374 0.54784 0.72258 0.0
C1163 C 0.87206 0.50468 0.76075 0.0
C1164 C 0.86707 0.53375 0.75583 0.0
C1165 C 0.87571 0.58329 0.73075 0.0
C1166 C 0.88957 0.60361 0.71082 0.0
C1167 C 0.8823 0.55521 0.73658 0.0
C1168 C 0.91122 0.59626 0.69722 0.0
C1169 C 0.91848 0.56885 0.70313 0.0
H1170 H 0.44996 0.93089 0.24406 0.0
H1171 H 0.54245 0.01868 0.27403 0.0
H1172 H 0.56601 0.04308 0.23635 0.0
H1173 H 0.55699 0.04131 0.19475 0.0
H1174 H 0.46271 0.95331 0.1655 0.0
H1175 H 0.44308 0.92696 0.2029 0.0
C1176 C 0.47546 0.95516 0.24219 0.0
C1177 C 0.49445 0.9733 0.2615 0.0
C1178 C 0.48823 0.96902 0.22063 0.0
C1179 C 0.52763 1.00446 0.25922 0.0
C1180 C 0.54082 0.01841 0.23774 0.0
C1181 C 0.53222 0.01633 0.1966 0.0
C1182 C 0.51134 0.99938 0.17729 0.0
C1183 C 0.52084 1.00133 0.21829 0.0
C1184 C 0.47955 0.96677 0.17998 0.0
C1185 C 0.46814 0.95174 0.20139 0.0
H1186 H 0.0385 0.51706 0.26145 0.0
H1187 H 0.14358 0.53498 0.24341 0.0
H1188 H 0.12025 0.51469 0.2051 0.0
H1189 H 0.07137 0.49889 0.17573 0.0
H1190 H 0.96714 0.48422 0.19438 0.0
H1191 H 0.98832 0.49569 0.23343 0.0
C1192 C 0.05579 0.51541 0.24921 0.0
C1193 C 0.09243 0.52715 0.25498 0.0
C1194 C 0.04241 0.50484 0.22728 0.0
C1195 C 0.11513 0.52555 0.23919 0.0
C1196 C 0.10186 0.51441 0.21731 0.0
C1197 C 0.05325 0.49797 0.18839 0.0
C1198 C 0.01771 0.4908 0.18201 0.0
C1199 C 0.06582 0.50517 0.21094 0.0
C1200 C 0.99444 0.48923 0.19873 0.0
C1201 C 0.00659 0.49604 0.22111 0.0
H1202 H 0.43128 0.58121 0.22783 0.0
H1203 H 0.46511 0.52011 0.27119 0.0
H1204 H 0.46984 0.49049 0.2384 0.0
H1205 H 0.47183 0.48816 0.19705 0.0
H1206 H 0.43628 0.54894 0.15393 0.0
H1207 H 0.42502 0.57279 0.18686 0.0
C1208 C 0.43866 0.56065 0.22998 0.0
C1209 C 0.44776 0.55256 0.25165 0.0
C1210 C 0.44182 0.5444 0.21108 0.0
C1211 C 0.45765 0.52626 0.25456 0.0
C1212 C 0.46071 0.50973 0.23582 0.0
C1213 C 0.46086 0.50599 0.19479 0.0
C1214 C 0.45582 0.5173 0.17288 0.0
C1215 C 0.45399 0.51944 0.21391 0.0
C1216 C 0.44163 0.54057 0.17048 0.0
C1217 C 0.43484 0.55406 0.18934 0.0
H1218 H 0.87256 0.4472 0.81006 0.0
H1219 H 0.97114 0.51023 0.77434 0.0
H1220 H 1.00284 0.53874 0.80939 0.0
H1221 H 0.00387 0.53958 0.85078 0.0
H1222 H 0.90448 0.47652 0.88652 0.0
H1223 H 0.87165 0.4538 0.85099 0.0
C1224 C 0.90071 0.46786 0.81007 0.0
C1225 C 0.9198 0.47685 0.78999 0.0
C1226 C 0.91865 0.48342 0.83029 0.0
C1227 C 0.95623 0.50334 0.78979 0.0
C1228 C 0.97427 0.51927 0.8098 0.0
C1229 C 0.97487 0.52152 0.85082 0.0
C1230 C 0.95692 0.50929 0.87142 0.0
C1231 C 0.95603 0.50867 0.83028 0.0
C1232 C 0.91929 0.48565 0.87102 0.0
C1233 C 0.90038 0.4728 0.85068 0.0
H1234 H 0.60685 0.47666 0.8152 0.0
H1235 H 0.5612 0.53163 0.77586 0.0
H1236 H 0.54699 0.55047 0.81026 0.0
H1237 H 0.53804 0.5425 0.85116 0.0
H1238 H 0.5816 0.48524 0.89082 0.0
H1239 H 0.6052 0.47537 0.85689 0.0
C1240 C 0.59544 0.4942 0.81431 0.0
C1241 C 0.58599 0.50359 0.79302 0.0
C1242 C 0.58546 0.50317 0.83427 0.0
C1243 C 0.56984 0.52515 0.79201 0.0
C1244 C 0.56096 0.53519 0.81171 0.0
C1245 C 0.55342 0.52857 0.85259 0.0
C1246 C 0.55727 0.51414 0.87372 0.0
C1247 C 0.56717 0.52304 0.83292 0.0
C1248 C 0.57711 0.49585 0.87486 0.0
C1249 C 0.59102 0.49046 0.85543 0.0
H1250 H 0.53803 0.0173 0.78782 0.0
H1251 H 0.59647 0.12507 0.80724 0.0
H1252 H 0.60136 0.10676 0.84626 0.0
H1253 H 0.58105 0.06007 0.87554 0.0
H1254 H 0.51459 0.95186 0.85695 0.0
H1255 H 0.52123 0.96992 0.81715 0.0
C1256 C 0.5531 0.03653 0.80055 0.0
C1257 C 0.56835 0.07244 0.79465 0.0
C1258 C 0.55353 0.02559 0.82322 0.0
C1259 C 0.58621 0.09739 0.81132 0.0
C1260 C 0.58829 0.08686 0.83367 0.0
C1261 C 0.56806 0.04036 0.86282 0.0
C1262 C 0.54695 1.00468 0.86939 0.0
C1263 C 0.5708 0.05102 0.83995 0.0
C1264 C 0.53118 0.97951 0.85253 0.0
C1265 C 0.53472 0.98983 0.82969 0.0
H1266 H 0.12027 0.25707 0.57549 0.0
H1267 H 0.2134 0.33979 0.60874 0.0
H1268 H 0.2413 0.36458 0.5721 0.0
H1269 H 0.23565 0.36556 0.53048 0.0
H1270 H 0.13994 0.28382 0.49776 0.0
H1271 H 0.11653 0.25557 0.5342 0.0
C1272 C 0.14687 0.28026 0.57454 0.0
C1273 C 0.16479 0.29704 0.59443 0.0
C1274 C 0.16196 0.29461 0.55355 0.0
C1275 C 0.19939 0.32672 0.59343 0.0
C1276 C 0.21505 0.34092 0.57255 0.0
C1277 C 0.20971 0.34155 0.53135 0.0
C1278 C 0.18953 0.32697 0.51139 0.0
C1279 C 0.19603 0.32567 0.55246 0.0
C1280 C 0.15625 0.29546 0.51279 0.0
C1281 C 0.14268 0.27936 0.53364 0.0
H1282 H 0.78844 0.88896 0.58129 0.0
H1283 H 0.68453 0.81005 0.60522 0.0
H1284 H 0.66102 0.79635 0.56634 0.0
H1285 H 0.66767 0.81356 0.52607 0.0
H1286 H 0.77159 0.89428 0.50209 0.0
H1287 H 0.79742 0.90104 0.54035 0.0
C1288 C 0.76119 0.86779 0.57778 0.0
C1289 C 0.73843 0.84977 0.59587 0.0
C1290 C 0.74759 0.86132 0.55543 0.0
C1291 C 0.70272 0.82328 0.59143 0.0
C1292 C 0.68917 0.816 0.56924 0.0
C1293 C 0.6962 0.83204 0.52904 0.0
C1294 C 0.7174 0.85377 0.51114 0.0
C1295 C 0.71097 0.8358 0.55114 0.0
C1296 C 0.75428 0.87783 0.51555 0.0
C1297 C 0.76921 0.88154 0.53743 0.0
H1298 H 0.09524 0.9043 0.55802 0.0
H1299 H 0.1318 0.84574 0.60173 0.0
H1300 H 0.13893 0.81745 0.56905 0.0
H1301 H 0.14253 0.81605 0.5277 0.0
H1302 H 0.10425 0.87427 0.48424 0.0
H1303 H 0.09023 0.89621 0.51702 0.0
C1304 C 0.10359 0.88443 0.56027 0.0
C1305 C 0.11274 0.87672 0.58203 0.0
C1306 C 0.10819 0.86899 0.54142 0.0
C1307 C 0.12412 0.85148 0.58504 0.0
C1308 C 0.1286 0.83575 0.56635 0.0
C1309 C 0.13037 0.83289 0.52533 0.0
C1310 C 0.12545 0.84415 0.50336 0.0
C1311 C 0.1219 0.84523 0.54437 0.0
C1312 C 0.10962 0.86605 0.50083 0.0
C1313 C 0.10124 0.87843 0.51961 0.0
H1314 H 0.62962 0.84281 0.11605 0.0
H1315 H 0.52307 0.7847 0.14343 0.0
H1316 H 0.54715 0.81003 0.1805 0.0
H1317 H 0.60006 0.84206 0.20586 0.0
H1318 H 0.70707 0.9008 0.17816 0.0
H1319 H 0.6815 0.88205 0.14043 0.0
C1320 C 0.61175 0.83684 0.13005 0.0
C1321 C 0.57479 0.81244 0.1273 0.0
C1322 C 0.62602 0.851 0.15125 0.0
C1323 C 0.55156 0.80393 0.1454 0.0
C1324 C 0.56541 0.81811 0.16653 0.0
C1325 C 0.61773 0.85159 0.19154 0.0
C1326 C 0.65557 0.87224 0.19499 0.0
C1327 C 0.60284 0.84076 0.16982 0.0
C1328 C 0.67797 0.88408 0.17613 0.0
C1329 C 0.66337 0.87354 0.1545 0.0
H1330 H 0.24918 0.7997 0.14067 0.0
H1331 H 0.22253 0.87315 0.10583 0.0
H1332 H 0.21383 0.89266 0.14175 0.0
H1333 H 0.20538 0.88271 0.18274 0.0
H1334 H 0.22551 0.80408 0.21719 0.0
H1335 H 0.24519 0.79281 0.18215 0.0
C1336 C 0.24313 0.82111 0.14116 0.0
C1337 C 0.23827 0.83623 0.12069 0.0
C1338 C 0.23583 0.83044 0.16188 0.0
C1339 C 0.2285 0.86263 0.12136 0.0
C1340 C 0.22256 0.87306 0.14192 0.0
C1341 C 0.21412 0.86314 0.18264 0.0
C1342 C 0.21358 0.84415 0.20274 0.0
C1343 C 0.22479 0.85619 0.16223 0.0
C1344 C 0.2258 0.8194 0.20219 0.0
C1345 C 0.23695 0.81276 0.18206 0.0
H1346 H 0.2444 0.4431 0.13573 0.0
H1347 H 0.2033 0.34026 0.1093 0.0
H1348 H 0.20563 0.31608 0.14709 0.0
H1349 H 0.20948 0.32258 0.18806 0.0
H1350 H 0.24358 0.42458 0.21486 0.0
H1351 H 0.25441 0.45086 0.17684 0.0
C1352 C 0.2376 0.41579 0.13831 0.0
C1353 C 0.22456 0.39352 0.11989 0.0
C1354 C 0.23679 0.4018 0.16028 0.0
C1355 C 0.21443 0.35788 0.12325 0.0
C1356 C 0.21511 0.34403 0.14489 0.0
C1357 C 0.21945 0.3506 0.18562 0.0
C1358 C 0.22515 0.37138 0.20437 0.0
C1359 C 0.22457 0.36542 0.16363 0.0
C1360 C 0.23901 0.40784 0.20084 0.0
C1361 C 0.24504 0.42293 0.17904 0.0
H1362 H 0.79251 0.57871 0.90691 0.0
H1363 H 0.86322 0.67602 0.93902 0.0
H1364 H 0.88962 0.7037 0.90249 0.0
H1365 H 0.88638 0.7014 0.86097 0.0
H1366 H 0.81554 0.60281 0.82929 0.0
H1367 H 0.7951 0.57423 0.86609 0.0
C1368 C 0.81454 0.60564 0.90581 0.0
C1369 C 0.82645 0.62544 0.9253 0.0
C1370 C 0.82881 0.62116 0.88486 0.0
C1371 C 0.85435 0.66044 0.92406 0.0
C1372 C 0.86901 0.67619 0.90322 0.0
C1373 C 0.86708 0.6735 0.8621 0.0
C1374 C 0.85193 0.65452 0.8423 0.0
C1375 C 0.8556 0.65705 0.8834 0.0
C1376 C 0.82683 0.61837 0.84418 0.0
C1377 C 0.81531 0.60188 0.86523 0.0
H1378 H 0.48051 0.2302 0.90593 0.0
H1379 H 0.37858 0.16484 0.93778 0.0
H1380 H 0.34821 0.14572 0.90079 0.0
H1381 H 0.3495 0.15493 0.85948 0.0
H1382 H 0.45197 0.22152 0.82769 0.0
H1383 H 0.48319 0.2336 0.86446 0.0
C1384 C 0.45184 0.21111 0.90463 0.0
C1385 C 0.4316 0.19896 0.92433 0.0
C1386 C 0.43456 0.20138 0.88333 0.0
C1387 C 0.39455 0.17416 0.92273 0.0
C1388 C 0.37721 0.16371 0.9016 0.0
C1389 C 0.37876 0.17147 0.86048 0.0
C1390 C 0.39813 0.1878 0.84071 0.0
C1391 C 0.3967 0.17823 0.88176 0.0
C1392 C 0.43609 0.20936 0.84255 0.0
C1393 C 0.45409 0.21606 0.8636 0.0
H1394 H 0.81966 0.18359 0.92865 0.0
H1395 H 0.73852 0.21025 0.90436 0.0
H1396 H 0.73924 0.1895 0.86675 0.0
H1397 H 0.77008 0.17208 0.83979 0.0
H1398 H 0.85184 0.14578 0.86489 0.0
H1399 H 0.84413 0.1583 0.90305 0.0
C1400 C 0.80116 0.18341 0.91526 0.0
C1401 C 0.77866 0.19775 0.91913 0.0
C1402 C 0.80275 0.17255 0.8937 0.0
C1403 C 0.7554 0.19851 0.90171 0.0
C1404 C 0.75632 0.1872 0.88019 0.0
C1405 C 0.78568 0.16836 0.85364 0.0
C1406 C 0.81222 0.15883 0.84922 0.0
C1407 C 0.78095 0.17542 0.87577 0.0
C1408 C 0.83211 0.15421 0.86753 0.0
C1409 C 0.82749 0.16104 0.88947 0.0
H1410 H 0.23547 0.11794 0.46336 0.0
H1411 H 0.32789 0.20232 0.43071 0.0
H1412 H 0.35326 0.22902 0.46732 0.0
H1413 H 0.35198 0.22427 0.50895 0.0
H1414 H 0.26048 0.13718 0.54129 0.0
H1415 H 0.23173 0.11576 0.50463 0.0
C1416 C 0.2609 0.14245 0.46438 0.0
C1417 C 0.2801 0.15811 0.44461 0.0
C1418 C 0.27558 0.15687 0.48544 0.0
C1419 C 0.31276 0.19003 0.44582 0.0
C1420 C 0.32733 0.205 0.46673 0.0
C1421 C 0.32568 0.20068 0.50798 0.0
C1422 C 0.30862 0.18229 0.52796 0.0
C1423 C 0.30951 0.18802 0.48673 0.0
C1424 C 0.27418 0.15214 0.52632 0.0
C1425 C 0.25778 0.13966 0.50531 0.0
H1426 H 0.89816 0.19467 0.45372 0.0
H1427 H 0.96073 0.14807 0.48203 0.0
H1428 H 0.95096 0.16011 0.52016 0.0
H1429 H 0.91512 0.17406 0.54532 0.0
H1430 H 0.85032 0.21874 0.51653 0.0
H1431 H 0.86981 0.2169 0.47894 0.0
C1432 C 0.91116 0.18893 0.46826 0.0
C1433 C 0.93103 0.17148 0.46508 0.0
C1434 C 0.90363 0.19422 0.49013 0.0
C1435 C 0.94652 0.1627 0.48404 0.0
C1436 C 0.94014 0.16884 0.50587 0.0
C1437 C 0.90589 0.18418 0.53093 0.0
C1438 C 0.88048 0.19574 0.5339 0.0
C1439 C 0.91729 0.18309 0.50915 0.0
C1440 C 0.86891 0.20864 0.51485 0.0
C1441 C 0.88033 0.20791 0.49327 0.0
H1442 H 0.8683 0.7013 0.45178 0.0
H1443 H 0.94745 0.80502 0.47187 0.0
H1444 H 0.94927 0.78258 0.51049 0.0
H1445 H 0.9206 0.73484 0.53939 0.0
H1446 H 0.8371 0.63212 0.51888 0.0
H1447 H 0.84501 0.65231 0.47959 0.0
C1448 C 0.88698 0.71847 0.46451 0.0
C1449 C 0.90806 0.75444 0.45923 0.0
C1450 C 0.8864 0.7056 0.48667 0.0
C1451 C 0.9316 0.77708 0.4757 0.0
C1452 C 0.93212 0.7643 0.49776 0.0
C1453 C 0.90432 0.71683 0.52631 0.0
C1454 C 0.87803 0.68207 0.5322 0.0
C1455 C 0.90835 0.72887 0.50364 0.0
C1456 C 0.85772 0.65889 0.51494 0.0
C1457 C 0.86204 0.67046 0.49241 0.0
loop_
_geom_bond_atom_site_label_1
_geom_bond_atom_site_label_2
_geom_bond_distance
_geom_bond_site_symmetry_2
_ccdc_geom_bond_type
C0 N1 1.317 . S
C0 N2 1.348 . S
C0 C3 1.485 . S
N1 C0 1.317 . S
N1 N5 1.370 . S
N2 C0 1.348 . S
N2 C4 1.346 . S
C3 C0 1.485 . S
C3 H7 0.960 . S
C3 H8 0.961 . S
C3 H9 0.960 . S
C4 N2 1.346 . S
C4 N5 1.307 . S
C4 C6 1.486 . S
N5 N1 1.370 . S
N5 C4 1.307 . S
C6 C4 1.486 . S
C6 H10 0.960 . S
C6 H11 0.960 . S
C6 H12 0.959 . S
H7 C3 0.960 . S
H8 C3 0.961 . S
H9 C3 0.960 . S
H10 C6 0.960 . S
H11 C6 0.960 . S
H12 C6 0.959 . S
C13 N14 1.317 . S
C13 N15 1.348 . S
C13 C16 1.485 . S
N14 C13 1.317 . S
N14 N18 1.370 . S
N15 C13 1.348 . S
N15 C17 1.346 . S
C16 C13 1.485 . S
C16 H20 0.960 . S
C16 H21 0.961 . S
C16 H22 0.960 . S
C17 N15 1.346 . S
C17 N18 1.307 . S
C17 C19 1.486 . S
N18 N14 1.370 . S
N18 C17 1.307 . S
C19 C17 1.486 . S
C19 H23 0.960 . S
C19 H24 0.960 . S
C19 H25 0.959 . S
H20 C16 0.960 . S
H21 C16 0.961 . S
H22 C16 0.960 . S
H23 C19 0.960 . S
H24 C19 0.960 . S
H25 C19 0.959 . S
C26 N27 1.317 . S
C26 N28 1.348 . S
C26 C29 1.485 . S
N27 C26 1.317 . S
N27 N31 1.370 . S
N28 C26 1.348 . S
N28 C30 1.346 . S
C29 C26 1.485 . S
C29 H33 0.960 . S
C29 H34 0.961 . S
C29 H35 0.960 . S
C30 N28 1.346 . S
C30 N31 1.307 . S
C30 C32 1.486 . S
N31 N27 1.370 . S
N31 C30 1.307 . S
C32 C30 1.486 . S
C32 H36 0.960 . S
C32 H37 0.960 . S
C32 H38 0.959 . S
H33 C29 0.960 . S
H34 C29 0.961 . S
H35 C29 0.960 . S
H36 C32 0.960 . S
H37 C32 0.960 . S
H38 C32 0.959 . S
C39 N40 1.317 . S
C39 N41 1.348 . S
C39 C42 1.485 . S
N40 C39 1.317 . S
N40 N44 1.370 . S
N41 C39 1.348 . S
N41 C43 1.346 . S
C42 C39 1.485 . S
C42 H46 0.960 . S
C42 H47 0.961 . S
C42 H48 0.960 . S
C43 N41 1.346 . S
C43 N44 1.307 . S
C43 C45 1.486 . S
N44 N40 1.370 . S
N44 C43 1.307 . S
C45 C43 1.486 . S
C45 H49 0.960 . S
C45 H50 0.960 . S
C45 H51 0.959 . S
H46 C42 0.960 . S
H47 C42 0.961 . S
H48 C42 0.960 . S
H49 C45 0.960 . S
H50 C45 0.960 . S
H51 C45 0.959 . S
C52 N53 1.317 . S
C52 N54 1.348 . S
C52 C55 1.485 . S
N53 C52 1.317 . S
N53 N57 1.370 . S
N54 C52 1.348 . S
N54 C56 1.346 . S
C55 C52 1.485 . S
C55 H59 0.960 . S
C55 H60 0.961 . S
C55 H61 0.960 . S
C56 N54 1.346 . S
C56 N57 1.307 . S
C56 C58 1.486 . S
N57 N53 1.370 . S
N57 C56 1.307 . S
C58 C56 1.486 . S
C58 H62 0.960 . S
C58 H63 0.960 . S
C58 H64 0.959 . S
H59 C55 0.960 . S
H60 C55 0.961 . S
H61 C55 0.960 . S
H62 C58 0.960 . S
H63 C58 0.960 . S
H64 C58 0.959 . S
C65 N66 1.317 . S
C65 N67 1.348 . S
C65 C68 1.485 . S
N66 C65 1.317 . S
N66 N70 1.370 . S
N67 C65 1.348 . S
N67 C69 1.346 . S
C68 C65 1.485 . S
C68 H72 0.960 . S
C68 H73 0.961 . S
C68 H74 0.960 . S
C69 N67 1.346 . S
C69 N70 1.307 . S
C69 C71 1.486 . S
N70 N66 1.370 . S
N70 C69 1.307 . S
C71 C69 1.486 . S
C71 H75 0.960 . S
C71 H76 0.960 . S
C71 H77 0.959 . S
H72 C68 0.960 . S
H73 C68 0.961 . S
H74 C68 0.960 . S
H75 C71 0.960 . S
H76 C71 0.960 . S
H77 C71 0.959 . S
C78 N79 1.317 . S
C78 N80 1.348 . S
C78 C81 1.485 . S
N79 C78 1.317 . S
N79 N83 1.370 . S
N80 C78 1.348 . S
N80 C82 1.346 . S
C81 C78 1.485 . S
C81 H85 0.960 . S
C81 H86 0.961 . S
C81 H87 0.960 . S
C82 N80 1.346 . S
C82 N83 1.307 . S
C82 C84 1.486 . S
N83 N79 1.370 . S
N83 C82 1.307 . S
C84 C82 1.486 . S
C84 H88 0.960 . S
C84 H89 0.960 . S
C84 H90 0.959 . S
H85 C81 0.960 . S
H86 C81 0.961 . S
H87 C81 0.960 . S
H88 C84 0.960 . S
H89 C84 0.960 . S
H90 C84 0.959 . S
C91 N92 1.317 . S
C91 N93 1.348 . S
C91 C94 1.485 . S
N92 C91 1.317 . S
N92 N96 1.370 . S
N93 C91 1.348 . S
N93 C95 1.346 . S
C94 C91 1.485 . S
C94 H98 0.960 . S
C94 H99 0.961 . S
C94 H100 0.960 . S
C95 N93 1.346 . S
C95 N96 1.307 . S
C95 C97 1.486 . S
N96 N92 1.370 . S
N96 C95 1.307 . S
C97 C95 1.486 . S
C97 H101 0.960 . S
C97 H102 0.960 . S
C97 H103 0.959 . S
H98 C94 0.960 . S
H99 C94 0.961 . S
H100 C94 0.960 . S
H101 C97 0.960 . S
H102 C97 0.960 . S
H103 C97 0.959 . S
C104 N105 1.317 . S
C104 N106 1.348 . S
C104 C107 1.485 . S
N105 C104 1.317 . S
N105 N109 1.370 . S
N106 C104 1.348 . S
N106 C108 1.346 . S
C107 C104 1.485 . S
C107 H111 0.960 . S
C107 H112 0.961 . S
C107 H113 0.960 . S
C108 N106 1.346 . S
C108 N109 1.307 . S
C108 C110 1.486 . S
N109 N105 1.370 . S
N109 C108 1.307 . S
C110 C108 1.486 . S
C110 H114 0.960 . S
C110 H115 0.960 . S
C110 H116 0.959 . S
H111 C107 0.960 . S
H112 C107 0.961 . S
H113 C107 0.960 . S
H114 C110 0.960 . S
H115 C110 0.960 . S
H116 C110 0.959 . S
C117 N118 1.317 . S
C117 N119 1.348 . S
C117 C120 1.485 . S
N118 C117 1.317 . S
N118 N122 1.370 . S
N119 C117 1.348 . S
N119 C121 1.346 . S
C120 C117 1.485 . S
C120 H124 0.960 . S
C120 H125 0.961 . S
C120 H126 0.960 . S
C121 N119 1.346 . S
C121 N122 1.307 . S
C121 C123 1.486 . S
N122 N118 1.370 . S
N122 C121 1.307 . S
C123 C121 1.486 . S
C123 H127 0.960 . S
C123 H128 0.960 . S
C123 H129 0.959 . S
H124 C120 0.960 . S
H125 C120 0.961 . S
H126 C120 0.960 . S
H127 C123 0.960 . S
H128 C123 0.960 . S
H129 C123 0.959 . S
C130 N131 1.317 . S
C130 N132 1.348 . S
C130 C133 1.485 1_556 S
N131 C130 1.317 . S
N131 N135 1.370 . S
N132 C130 1.348 . S
N132 C134 1.346 . S
C133 C130 1.485 1_554 S
C133 H137 0.960 . S
C133 H138 0.961 . S
C133 H139 0.960 . S
C134 N132 1.346 . S
C134 N135 1.307 . S
C134 C136 1.486 . S
N135 N131 1.370 . S
N135 C134 1.307 . S
C136 C134 1.486 . S
C136 H140 0.960 . S
C136 H141 0.960 . S
C136 H142 0.959 . S
H137 C133 0.960 . S
H138 C133 0.961 . S
H139 C133 0.960 . S
H140 C136 0.960 . S
H141 C136 0.960 . S
H142 C136 0.959 . S
C143 N144 1.317 . S
C143 N145 1.348 . S
C143 C146 1.485 1_556 S
N144 C143 1.317 . S
N144 N148 1.370 . S
N145 C143 1.348 . S
N145 C147 1.346 . S
C146 C143 1.485 1_554 S
C146 H150 0.960 . S
C146 H151 0.961 . S
C146 H152 0.960 . S
C147 N145 1.346 . S
C147 N148 1.307 . S
C147 C149 1.486 . S
N148 N144 1.370 . S
N148 C147 1.307 . S
C149 C147 1.486 . S
C149 H153 0.960 . S
C149 H154 0.960 . S
C149 H155 0.959 . S
H150 C146 0.960 . S
H151 C146 0.961 . S
H152 C146 0.960 . S
H153 C149 0.960 . S
H154 C149 0.960 . S
H155 C149 0.959 . S
C156 N157 1.317 . S
C156 N158 1.348 . S
C156 C159 1.485 . S
N157 C156 1.317 . S
N157 N161 1.370 . S
N158 C156 1.348 . S
N158 C160 1.346 . S
C159 C156 1.485 . S
C159 H163 0.963 . S
C159 H164 0.961 1_554 S
C159 H165 0.960 1_554 S
C160 N158 1.346 . S
C160 N161 1.307 . S
C160 C162 1.486 . S
N161 N157 1.370 . S
N161 C160 1.307 . S
C162 C160 1.486 . S
C162 H166 0.960 . S
C162 H167 0.960 . S
C162 H168 0.959 . S
H163 C159 0.963 . S
H164 C159 0.961 1_556 S
H165 C159 0.960 1_556 S
H166 C162 0.960 . S
H167 C162 0.960 . S
H168 C162 0.959 . S
C169 N170 1.317 . S
C169 N171 1.348 . S
C169 C172 1.485 . S
N170 C169 1.317 . S
N170 N174 1.370 . S
N171 C169 1.348 . S
N171 C173 1.346 . S
C172 C169 1.485 . S
C172 H176 0.960 . S
C172 H177 0.961 . S
C172 H178 0.960 . S
C173 N171 1.346 . S
C173 N174 1.307 . S
C173 C175 1.486 . S
N174 N170 1.370 . S
N174 C173 1.307 . S
C175 C173 1.486 . S
C175 H179 0.960 . S
C175 H180 0.960 . S
C175 H181 0.959 . S
H176 C172 0.960 . S
H177 C172 0.961 . S
H178 C172 0.960 . S
H179 C175 0.960 . S
H180 C175 0.960 . S
H181 C175 0.959 . S
C182 N183 1.317 . S
C182 N184 1.348 . S
C182 C185 1.485 . S
N183 C182 1.317 . S
N183 N187 1.370 . S
N184 C182 1.348 . S
N184 C186 1.346 . S
C185 C182 1.485 . S
C185 H189 0.960 . S
C185 H190 0.961 . S
C185 H191 0.960 . S
C186 N184 1.346 . S
C186 N187 1.307 . S
C186 C188 1.486 . S
N187 N183 1.370 . S
N187 C186 1.307 . S
C188 C186 1.486 . S
C188 H192 0.960 . S
C188 H193 0.960 . S
C188 H194 0.959 . S
H189 C185 0.960 . S
H190 C185 0.961 . S
H191 C185 0.960 . S
H192 C188 0.960 . S
H193 C188 0.960 . S
H194 C188 0.959 . S
C195 N196 1.317 . S
C195 N197 1.348 . S
C195 C198 1.485 . S
N196 C195 1.317 . S
N196 N200 1.370 . S
N197 C195 1.348 . S
N197 C199 1.346 . S
C198 C195 1.485 . S
C198 H202 0.960 . S
C198 H203 0.961 . S
C198 H204 0.960 . S
C199 N197 1.346 . S
C199 N200 1.307 . S
C199 C201 1.486 . S
N200 N196 1.370 . S
N200 C199 1.307 . S
C201 C199 1.486 . S
C201 H205 0.960 . S
C201 H206 0.960 . S
C201 H207 0.959 . S
H202 C198 0.960 . S
H203 C198 0.961 . S
H204 C198 0.960 . S
H205 C201 0.960 . S
H206 C201 0.960 . S
H207 C201 0.959 . S
C208 N209 1.317 . S
C208 N210 1.348 . S
C208 C211 1.485 . S
N209 C208 1.317 . S
N209 N213 1.370 . S
N210 C208 1.348 . S
N210 C212 1.346 . S
C211 C208 1.485 . S
C211 H215 0.960 . S
C211 H216 0.961 . S
C211 H217 0.960 . S
C212 N210 1.346 . S
C212 N213 1.307 . S
C212 C214 1.486 . S
N213 N209 1.370 . S
N213 C212 1.307 . S
C214 C212 1.486 . S
C214 H218 0.960 . S
C214 H219 0.960 . S
C214 H220 0.959 . S
H215 C211 0.960 . S
H216 C211 0.961 . S
H217 C211 0.960 . S
H218 C214 0.960 . S
H219 C214 0.960 . S
H220 C214 0.959 . S
C221 N222 1.317 . S
C221 N223 1.348 . S
C221 C224 1.485 . S
N222 C221 1.317 . S
N222 N226 1.370 . S
N223 C221 1.348 . S
N223 C225 1.346 . S
C224 C221 1.485 . S
C224 H228 0.960 . S
C224 H229 0.961 . S
C224 H230 0.960 . S
C225 N223 1.346 . S
C225 N226 1.307 . S
C225 C227 1.486 . S
N226 N222 1.370 . S
N226 C225 1.307 . S
C227 C225 1.486 . S
C227 H231 0.960 . S
C227 H232 0.960 . S
C227 H233 0.959 . S
H228 C224 0.960 . S
H229 C224 0.961 . S
H230 C224 0.960 . S
H231 C227 0.960 . S
H232 C227 0.960 . S
H233 C227 0.959 . S
Eu234 C243 2.828 1_565 S
Eu234 O245 2.392 1_556 S
Eu234 O247 2.418 . S
Eu234 O252 2.373 1_565 S
Eu234 O255 2.488 . S
Eu234 O256 2.471 1_565 S
Eu234 O257 2.318 1_566 S
Eu235 O244 2.373 1_545 S
Eu235 O248 2.488 . S
Eu235 O249 2.471 1_545 S
Eu235 O250 2.349 1_545 S
Eu235 O253 2.392 . S
Eu235 O254 2.418 . S
Eu235 C264 2.828 1_545 S
C236 O254 1.244 . S
C236 O257 1.294 . S
C237 C238 1.379 . S
C237 C241 1.373 . S
C237 C243 1.505 . S
C238 C237 1.379 . S
C238 C240 1.369 . S
C238 H266 0.930 . S
C239 C241 1.383 . S
C239 C242 1.382 . S
C239 H267 0.930 . S
C240 C238 1.369 . S
C240 C242 1.392 . S
C240 H268 0.930 . S
C241 C237 1.373 . S
C241 C239 1.383 . S
C241 H269 0.931 1_545 S
C242 C239 1.382 . S
C242 C240 1.392 . S
C243 Eu234 2.828 1_545 S
C243 C237 1.505 . S
C243 O255 1.249 1_545 S
C243 O256 1.244 . S
O244 Eu235 2.373 1_565 S
O244 C246 1.258 . S
O245 Eu234 2.392 1_554 S
O245 C246 1.242 . S
C246 O244 1.258 . S
C246 O245 1.242 . S
O247 Eu234 2.418 . S
O247 C251 1.244 1_556 S
O248 Eu235 2.488 . S
O248 C264 1.249 1_545 S
O249 Eu235 2.471 1_565 S
O249 C264 1.244 . S
O250 Eu235 2.349 1_565 S
O250 C251 1.265 . S
C251 O247 1.244 1_554 S
C251 O250 1.265 . S
O252 Eu234 2.373 1_545 S
O252 C265 1.292 . S
O253 Eu235 2.392 . S
O253 C265 1.192 1_554 S
O254 Eu235 2.418 . S
O254 C236 1.244 . S
O255 Eu234 2.488 . S
O255 C243 1.249 1_565 S
O256 Eu234 2.471 1_545 S
O256 C243 1.244 . S
O257 Eu234 2.318 1_544 S
O257 C236 1.294 . S
C258 C259 1.379 . S
C258 C262 1.373 . S
C258 C264 1.505 . S
C259 C258 1.379 . S
C259 C261 1.369 . S
C259 H270 0.930 . S
C260 C262 1.383 . S
C260 C263 1.382 . S
C260 H271 0.930 . S
C261 C259 1.369 . S
C261 C263 1.392 . S
C261 H272 0.930 . S
C262 C258 1.373 . S
C262 C260 1.383 . S
C262 H273 0.931 1_565 S
C263 C260 1.382 . S
C263 C261 1.392 . S
C264 Eu235 2.828 1_565 S
C264 O248 1.249 1_565 S
C264 O249 1.244 . S
C264 C258 1.505 . S
C265 O252 1.292 . S
C265 O253 1.192 1_556 S
H266 C238 0.930 . S
H267 C239 0.930 . S
H268 C240 0.930 . S
H269 C241 0.931 1_565 S
H270 C259 0.930 . S
H271 C260 0.930 . S
H272 C261 0.930 . S
H273 C262 0.931 1_545 S
Eu274 C283 2.828 . S
Eu274 O285 2.392 1_556 S
Eu274 O287 2.418 . S
Eu274 O292 2.373 1_455 S
Eu274 O295 2.488 . S
Eu274 O296 2.471 1_455 S
Eu274 O297 2.349 1_455 S
Eu275 O284 2.373 1_655 S
Eu275 O288 2.488 . S
Eu275 O289 2.471 1_655 S
Eu275 O290 2.349 1_655 S
Eu275 O293 2.392 . S
Eu275 O294 2.418 . S
Eu275 C304 2.828 1_655 S
C276 O294 1.244 . S
C276 O297 1.265 1_554 S
C277 C278 1.381 1_455 S
C277 C281 1.372 . S
C277 C283 1.504 . S
C278 C277 1.381 1_655 S
C278 C280 1.369 . S
C278 H306 0.930 . S
C279 C281 1.383 . S
C279 C282 1.382 1_455 S
C279 H307 0.930 . S
C280 C278 1.369 . S
C280 C282 1.392 . S
C280 H308 0.930 . S
C281 C277 1.372 . S
C281 C279 1.383 . S
C281 H309 0.931 . S
C282 C279 1.382 1_655 S
C282 C280 1.392 . S
C283 Eu274 2.828 . S
C283 C277 1.504 . S
C283 O295 1.249 . S
C283 O296 1.244 1_455 S
O284 Eu275 2.373 1_455 S
O284 C286 1.258 . S
O285 Eu274 2.392 1_554 S
O285 C286 1.242 . S
C286 O284 1.258 . S
C286 O285 1.242 . S
O287 Eu274 2.418 . S
O287 C291 1.244 1_556 S
O288 Eu275 2.488 . S
O288 C304 1.249 1_655 S
O289 Eu275 2.471 1_455 S
O289 C304 1.244 . S
O290 Eu275 2.349 1_455 S
O290 C291 1.265 . S
C291 O287 1.244 1_554 S
C291 O290 1.265 . S
O292 Eu274 2.373 1_655 S
O292 C305 1.258 . S
O293 Eu275 2.392 . S
O293 C305 1.242 1_554 S
O294 Eu275 2.418 . S
O294 C276 1.244 . S
O295 Eu274 2.488 . S
O295 C283 1.249 . S
O296 Eu274 2.471 1_655 S
O296 C283 1.244 1_655 S
O297 Eu274 2.349 1_655 S
O297 C276 1.265 1_556 S
C298 C299 1.379 . S
C298 C302 1.373 1_455 S
C298 C304 1.505 . S
C299 C298 1.379 . S
C299 C301 1.369 . S
C299 H310 0.930 . S
C300 C302 1.383 1_455 S
C300 C303 1.382 . S
C300 H311 0.930 1_455 S
C301 C299 1.369 . S
C301 C303 1.392 . S
C301 H312 0.930 . S
C302 C298 1.373 1_655 S
C302 C300 1.383 1_655 S
C302 H313 0.931 . S
C303 C300 1.382 . S
C303 C301 1.392 . S
C304 Eu275 2.828 1_455 S
C304 O288 1.249 1_455 S
C304 O289 1.244 . S
C304 C298 1.505 . S
C305 O292 1.258 . S
C305 O293 1.242 1_556 S
H306 C278 0.930 . S
H307 C279 0.930 . S
H308 C280 0.930 . S
H309 C281 0.931 . S
H310 C299 0.930 . S
H311 C300 0.930 1_655 S
H312 C301 0.930 . S
H313 C302 0.931 . S
Eu314 C323 2.828 . S
Eu314 O325 2.392 . S
Eu314 O327 2.418 . S
Eu314 O332 2.373 . S
Eu314 O335 2.488 . S
Eu314 O336 2.471 . S
Eu314 O337 2.349 . S
Eu315 O324 2.373 . S
Eu315 O328 2.488 . S
Eu315 O329 2.471 . S
Eu315 O330 2.349 1_556 S
Eu315 O333 2.392 1_556 S
Eu315 O334 2.418 . S
Eu315 C344 2.828 . S
C316 O334 1.244 1_554 S
C316 O337 1.265 . S
C317 C318 1.379 . S
C317 C321 1.373 . S
C317 C323 1.505 . S
C318 C317 1.379 . S
C318 C320 1.369 . S
C318 H346 0.930 . S
C319 C321 1.383 . S
C319 C322 1.382 . S
C319 H347 0.930 . S
C320 C318 1.369 . S
C320 C322 1.392 . S
C320 H348 0.930 . S
C321 C317 1.373 . S
C321 C319 1.383 . S
C321 H349 0.931 . S
C322 C319 1.382 . S
C322 C320 1.392 . S
C323 Eu314 2.828 . S
C323 C317 1.505 . S
C323 O335 1.249 . S
C323 O336 1.244 . S
O324 Eu315 2.373 . S
O324 C326 1.258 . S
O325 Eu314 2.392 . S
O325 C326 1.242 1_554 S
C326 O324 1.258 . S
C326 O325 1.242 1_556 S
O327 Eu314 2.418 . S
O327 C331 1.244 . S
O328 Eu315 2.488 . S
O328 C344 1.249 . S
O329 Eu315 2.471 . S
O329 C344 1.244 . S
O330 Eu315 2.349 1_554 S
O330 C331 1.265 . S
C331 O327 1.244 . S
C331 O330 1.265 . S
O332 Eu314 2.373 . S
O332 C345 1.258 . S
O333 Eu315 2.392 1_554 S
O333 C345 1.242 . S
O334 Eu315 2.418 . S
O334 C316 1.244 1_556 S
O335 Eu314 2.488 . S
O335 C323 1.249 . S
O336 Eu314 2.471 . S
O336 C323 1.244 . S
O337 Eu314 2.349 . S
O337 C316 1.265 . S
C338 C339 1.379 . S
C338 C342 1.373 . S
C338 C344 1.505 . S
C339 C338 1.379 . S
C339 C341 1.369 . S
C339 H350 0.930 . S
C340 C342 1.383 . S
C340 C343 1.382 . S
C340 H351 0.930 . S
C341 C339 1.369 . S
C341 C343 1.392 . S
C341 H352 0.930 . S
C342 C338 1.373 . S
C342 C340 1.383 . S
C342 H353 0.931 . S
C343 C340 1.382 . S
C343 C341 1.392 . S
C344 Eu315 2.828 . S
C344 O328 1.249 . S
C344 O329 1.244 . S
C344 C338 1.505 . S
C345 O332 1.258 . S
C345 O333 1.242 . S
H346 C318 0.930 . S
H347 C319 0.930 . S
H348 C320 0.930 . S
H349 C321 0.931 . S
H350 C339 0.930 . S
H351 C340 0.930 . S
H352 C341 0.930 . S
H353 C342 0.931 . S
Eu354 C363 2.828 . S
Eu354 O365 2.392 . S
Eu354 O367 2.418 . S
Eu354 O372 2.373 . S
Eu354 O375 2.488 . S
Eu354 O376 2.471 . S
Eu354 O377 2.349 . S
Eu355 O364 2.373 . S
Eu355 O368 2.488 . S
Eu355 O369 2.471 . S
Eu355 O370 2.349 . S
Eu355 O373 2.392 . S
Eu355 O374 2.418 . S
Eu355 C384 2.828 . S
C356 O374 1.244 . S
C356 O377 1.265 . S
C357 C358 1.379 . S
C357 C361 1.373 . S
C357 C363 1.505 . S
C358 C357 1.379 . S
C358 C360 1.369 . S
C358 H386 0.930 . S
C359 C361 1.383 . S
C359 C362 1.382 . S
C359 H387 0.930 . S
C360 C358 1.369 . S
C360 C362 1.392 . S
C360 H388 0.930 . S
C361 C357 1.373 . S
C361 C359 1.383 . S
C361 H389 0.931 . S
C362 C359 1.382 . S
C362 C360 1.392 . S
C363 Eu354 2.828 . S
C363 C357 1.505 . S
C363 O375 1.249 . S
C363 O376 1.244 . S
O364 Eu355 2.373 . S
O364 C366 1.258 . S
O365 Eu354 2.392 . S
O365 C366 1.242 . S
C366 O364 1.258 . S
C366 O365 1.242 . S
O367 Eu354 2.418 . S
O367 C371 1.244 . S
O368 Eu355 2.488 . S
O368 C384 1.249 . S
O369 Eu355 2.471 . S
O369 C384 1.244 . S
O370 Eu355 2.349 . S
O370 C371 1.265 . S
C371 O367 1.244 . S
C371 O370 1.265 . S
O372 Eu354 2.373 . S
O372 C385 1.258 . S
O373 Eu355 2.392 . S
O373 C385 1.242 . S
O374 Eu355 2.418 . S
O374 C356 1.244 . S
O375 Eu354 2.488 . S
O375 C363 1.249 . S
O376 Eu354 2.471 . S
O376 C363 1.244 . S
O377 Eu354 2.349 . S
O377 C356 1.265 . S
C378 C379 1.379 . S
C378 C382 1.373 . S
C378 C384 1.505 . S
C379 C378 1.379 . S
C379 C381 1.369 . S
C379 H390 0.930 . S
C380 C382 1.383 . S
C380 C383 1.382 . S
C380 H391 0.930 . S
C381 C379 1.369 . S
C381 C383 1.392 . S
C381 H392 0.930 . S
C382 C378 1.373 . S
C382 C380 1.383 . S
C382 H393 0.931 . S
C383 C380 1.382 . S
C383 C381 1.392 . S
C384 Eu355 2.828 . S
C384 O368 1.249 . S
C384 O369 1.244 . S
C384 C378 1.505 . S
C385 O372 1.258 . S
C385 O373 1.242 . S
H386 C358 0.930 . S
H387 C359 0.930 . S
H388 C360 0.930 . S
H389 C361 0.931 . S
H390 C379 0.930 . S
H391 C380 0.930 . S
H392 C381 0.930 . S
H393 C382 0.931 . S
Eu394 C403 2.828 . S
Eu394 O405 2.392 . S
Eu394 O407 2.418 . S
Eu394 O412 2.373 . S
Eu394 O415 2.488 . S
Eu394 O416 2.471 . S
Eu394 O417 2.349 . S
Eu395 O404 2.373 . S
Eu395 O408 2.488 . S
Eu395 O409 2.471 . S
Eu395 O410 2.349 . S
Eu395 O413 2.392 . S
Eu395 O414 2.418 . S
Eu395 C424 2.828 . S
C396 O414 1.244 . S
C396 O417 1.265 . S
C397 C398 1.379 . S
C397 C401 1.373 . S
C397 C403 1.505 . S
C398 C397 1.379 . S
C398 C400 1.369 . S
C398 H426 0.930 . S
C399 C401 1.383 . S
C399 C402 1.382 . S
C399 H427 0.930 . S
C400 C398 1.369 . S
C400 C402 1.392 . S
C400 H428 0.930 . S
C401 C397 1.373 . S
C401 C399 1.383 . S
C401 H429 0.931 . S
C402 C399 1.382 . S
C402 C400 1.392 . S
C403 Eu394 2.828 . S
C403 C397 1.505 . S
C403 O415 1.249 . S
C403 O416 1.244 . S
O404 Eu395 2.373 . S
O404 C406 1.258 . S
O405 Eu394 2.392 . S
O405 C406 1.242 . S
C406 O404 1.258 . S
C406 O405 1.242 . S
O407 Eu394 2.418 . S
O407 C411 1.244 . S
O408 Eu395 2.488 . S
O408 C424 1.249 . S
O409 Eu395 2.471 . S
O409 C424 1.244 . S
O410 Eu395 2.349 . S
O410 C411 1.265 . S
C411 O407 1.244 . S
C411 O410 1.265 . S
O412 Eu394 2.373 . S
O412 C425 1.258 . S
O413 Eu395 2.392 . S
O413 C425 1.242 . S
O414 Eu395 2.418 . S
O414 C396 1.244 . S
O415 Eu394 2.488 . S
O415 C403 1.249 . S
O416 Eu394 2.471 . S
O416 C403 1.244 . S
O417 Eu394 2.349 . S
O417 C396 1.265 . S
C418 C419 1.379 . S
C418 C422 1.373 . S
C418 C424 1.505 . S
C419 C418 1.379 . S
C419 C421 1.369 . S
C419 H430 0.930 . S
C420 C422 1.383 . S
C420 C423 1.382 . S
C420 H431 0.930 . S
C421 C419 1.369 . S
C421 C423 1.392 . S
C421 H432 0.930 . S
C422 C418 1.373 . S
C422 C420 1.383 . S
C422 H433 0.931 . S
C423 C420 1.382 . S
C423 C421 1.392 . S
C424 Eu395 2.828 . S
C424 O408 1.249 . S
C424 O409 1.244 . S
C424 C418 1.505 . S
C425 O412 1.258 . S
C425 O413 1.242 . S
H426 C398 0.930 . S
H427 C399 0.930 . S
H428 C400 0.930 . S
H429 C401 0.931 . S
H430 C419 0.930 . S
H431 C420 0.930 . S
H432 C421 0.930 . S
H433 C422 0.931 . S
Eu434 C443 2.828 . S
Eu434 O445 2.392 . S
Eu434 O447 2.418 . S
Eu434 O452 2.373 . S
Eu434 O455 2.488 . S
Eu434 O456 2.471 . S
Eu434 O457 2.349 . S
Eu435 O444 2.373 . S
Eu435 O448 2.488 . S
Eu435 O449 2.471 . S
Eu435 O450 2.349 . S
Eu435 O453 2.392 . S
Eu435 O454 2.418 . S
Eu435 C464 2.828 . S
C436 O454 1.244 . S
C436 O457 1.265 . S
C437 C438 1.379 . S
C437 C441 1.373 . S
C437 C443 1.505 . S
C438 C437 1.379 . S
C438 C440 1.369 . S
C438 H466 0.930 . S
C439 C441 1.383 . S
C439 C442 1.382 . S
C439 H467 0.930 . S
C440 C438 1.369 . S
C440 C442 1.392 . S
C440 H468 0.930 . S
C441 C437 1.373 . S
C441 C439 1.383 . S
C441 H469 0.931 . S
C442 C439 1.382 . S
C442 C440 1.392 . S
C443 Eu434 2.828 . S
C443 C437 1.505 . S
C443 O455 1.249 . S
C443 O456 1.244 . S
O444 Eu435 2.373 . S
O444 C446 1.258 . S
O445 Eu434 2.392 . S
O445 C446 1.242 . S
C446 O444 1.258 . S
C446 O445 1.242 . S
O447 Eu434 2.418 . S
O447 C451 1.244 . S
O448 Eu435 2.488 . S
O448 C464 1.249 . S
O449 Eu435 2.471 . S
O449 C464 1.244 . S
O450 Eu435 2.349 . S
O450 C451 1.265 . S
C451 O447 1.244 . S
C451 O450 1.265 . S
O452 Eu434 2.373 . S
O452 C465 1.258 . S
O453 Eu435 2.392 . S
O453 C465 1.242 . S
O454 Eu435 2.418 . S
O454 C436 1.244 . S
O455 Eu434 2.488 . S
O455 C443 1.249 . S
O456 Eu434 2.471 . S
O456 C443 1.244 . S
O457 Eu434 2.349 . S
O457 C436 1.265 . S
C458 C459 1.379 . S
C458 C462 1.373 . S
C458 C464 1.505 . S
C459 C458 1.379 . S
C459 C461 1.369 . S
C459 H470 0.930 . S
C460 C462 1.383 . S
C460 C463 1.382 . S
C460 H471 0.930 . S
C461 C459 1.369 . S
C461 C463 1.392 . S
C461 H472 0.930 . S
C462 C458 1.373 . S
C462 C460 1.383 . S
C462 H473 0.931 . S
C463 C460 1.382 . S
C463 C461 1.392 . S
C464 Eu435 2.828 . S
C464 O448 1.249 . S
C464 O449 1.244 . S
C464 C458 1.505 . S
C465 O452 1.258 . S
C465 O453 1.242 . S
H466 C438 0.930 . S
H467 C439 0.930 . S
H468 C440 0.930 . S
H469 C441 0.931 . S
H470 C459 0.930 . S
H471 C460 0.930 . S
H472 C461 0.930 . S
H473 C462 0.931 . S
Eu474 C483 2.828 . S
Eu474 O485 2.392 . S
Eu474 O487 2.418 . S
Eu474 O492 2.373 . S
Eu474 O495 2.488 . S
Eu474 O496 2.471 . S
Eu474 O497 2.349 . S
Eu475 O484 2.373 . S
Eu475 O488 2.488 . S
Eu475 O489 2.471 . S
Eu475 O490 2.349 . S
Eu475 O493 2.392 . S
Eu475 O494 2.418 . S
Eu475 C504 2.828 . S
C476 O494 1.244 . S
C476 O497 1.265 . S
C477 C478 1.379 . S
C477 C481 1.373 . S
C477 C483 1.505 . S
C478 C477 1.379 . S
C478 C480 1.369 . S
C478 H506 0.930 . S
C479 C481 1.383 . S
C479 C482 1.382 . S
C479 H507 0.930 . S
C480 C478 1.369 . S
C480 C482 1.392 . S
C480 H508 0.930 . S
C481 C477 1.373 . S
C481 C479 1.383 . S
C481 H509 0.931 . S
C482 C479 1.382 . S
C482 C480 1.392 . S
C483 Eu474 2.828 . S
C483 C477 1.505 . S
C483 O495 1.249 . S
C483 O496 1.244 . S
O484 Eu475 2.373 . S
O484 C486 1.258 . S
O485 Eu474 2.392 . S
O485 C486 1.242 . S
C486 O484 1.258 . S
C486 O485 1.242 . S
O487 Eu474 2.418 . S
O487 C491 1.244 . S
O488 Eu475 2.488 . S
O488 C504 1.249 . S
O489 Eu475 2.471 . S
O489 C504 1.244 . S
O490 Eu475 2.349 . S
O490 C491 1.265 . S
C491 O487 1.244 . S
C491 O490 1.265 . S
O492 Eu474 2.373 . S
O492 C505 1.258 . S
O493 Eu475 2.392 . S
O493 C505 1.242 . S
O494 Eu475 2.418 . S
O494 C476 1.244 . S
O495 Eu474 2.488 . S
O495 C483 1.249 . S
O496 Eu474 2.471 . S
O496 C483 1.244 . S
O497 Eu474 2.349 . S
O497 C476 1.265 . S
C498 C499 1.379 . S
C498 C502 1.373 . S
C498 C504 1.505 . S
C499 C498 1.379 . S
C499 C501 1.369 . S
C499 H510 0.930 . S
C500 C502 1.383 . S
C500 C503 1.382 . S
C500 H511 0.930 . S
C501 C499 1.369 . S
C501 C503 1.392 . S
C501 H512 0.930 . S
C502 C498 1.373 . S
C502 C500 1.383 . S
C502 H513 0.931 . S
C503 C500 1.382 . S
C503 C501 1.392 . S
C504 Eu475 2.828 . S
C504 O488 1.249 . S
C504 O489 1.244 . S
C504 C498 1.505 . S
C505 O492 1.258 . S
C505 O493 1.242 . S
H506 C478 0.930 . S
H507 C479 0.930 . S
H508 C480 0.930 . S
H509 C481 0.931 . S
H510 C499 0.930 . S
H511 C500 0.930 . S
H512 C501 0.930 . S
H513 C502 0.931 . S
Eu514 C523 2.828 . S
Eu514 O525 2.392 . S
Eu514 O527 2.418 . S
Eu514 O532 2.373 . S
Eu514 O535 2.488 . S
Eu514 O536 2.471 . S
Eu514 O537 2.349 . S
Eu515 O524 2.373 . S
Eu515 O528 2.488 . S
Eu515 O529 2.471 . S
Eu515 O530 2.349 . S
Eu515 O533 2.392 . S
Eu515 O534 2.418 . S
Eu515 C544 2.828 . S
C516 O534 1.244 . S
C516 O537 1.265 . S
C517 C518 1.379 . S
C517 C521 1.373 . S
C517 C523 1.505 . S
C518 C517 1.379 . S
C518 C520 1.369 . S
C518 H546 0.930 . S
C519 C521 1.383 . S
C519 C522 1.382 . S
C519 H547 0.930 . S
C520 C518 1.369 . S
C520 C522 1.392 . S
C520 H548 0.930 . S
C521 C517 1.373 . S
C521 C519 1.383 . S
C521 H549 0.931 . S
C522 C519 1.382 . S
C522 C520 1.392 . S
C523 Eu514 2.828 . S
C523 C517 1.505 . S
C523 O535 1.249 . S
C523 O536 1.244 . S
O524 Eu515 2.373 . S
O524 C526 1.258 . S
O525 Eu514 2.392 . S
O525 C526 1.242 . S
C526 O524 1.258 . S
C526 O525 1.242 . S
O527 Eu514 2.418 . S
O527 C531 1.244 . S
O528 Eu515 2.488 . S
O528 C544 1.249 . S
O529 Eu515 2.471 . S
O529 C544 1.244 . S
O530 Eu515 2.349 . S
O530 C531 1.265 . S
C531 O527 1.244 . S
C531 O530 1.265 . S
O532 Eu514 2.373 . S
O532 C545 1.258 . S
O533 Eu515 2.392 . S
O533 C545 1.242 . S
O534 Eu515 2.418 . S
O534 C516 1.244 . S
O535 Eu514 2.488 . S
O535 C523 1.249 . S
O536 Eu514 2.471 . S
O536 C523 1.244 . S
O537 Eu514 2.349 . S
O537 C516 1.265 . S
C538 C539 1.379 . S
C538 C542 1.373 . S
C538 C544 1.505 . S
C539 C538 1.379 . S
C539 C541 1.369 . S
C539 H550 0.930 . S
C540 C542 1.383 . S
C540 C543 1.382 . S
C540 H551 0.930 . S
C541 C539 1.369 . S
C541 C543 1.392 . S
C541 H552 0.930 . S
C542 C538 1.373 . S
C542 C540 1.383 . S
C542 H553 0.931 . S
C543 C540 1.382 . S
C543 C541 1.392 . S
C544 Eu515 2.828 . S
C544 O528 1.249 . S
C544 O529 1.244 . S
C544 C538 1.505 . S
C545 O532 1.258 . S
C545 O533 1.242 . S
H546 C518 0.930 . S
H547 C519 0.930 . S
H548 C520 0.930 . S
H549 C521 0.931 . S
H550 C539 0.930 . S
H551 C540 0.930 . S
H552 C541 0.930 . S
H553 C542 0.931 . S
Eu554 C563 2.828 . S
Eu554 O565 2.392 . S
Eu554 O567 2.418 . S
Eu554 O572 2.373 . S
Eu554 O575 2.488 . S
Eu554 O576 2.471 . S
Eu554 O577 2.349 . S
Eu555 O564 2.373 . S
Eu555 O568 2.488 . S
Eu555 O569 2.471 . S
Eu555 O570 2.349 . S
Eu555 O573 2.392 . S
Eu555 O574 2.418 . S
Eu555 C584 2.828 . S
C556 O574 1.244 . S
C556 O577 1.265 . S
C557 C558 1.379 . S
C557 C561 1.373 . S
C557 C563 1.505 . S
C558 C557 1.379 . S
C558 C560 1.369 . S
C558 H586 0.930 . S
C559 C561 1.383 . S
C559 C562 1.382 . S
C559 H587 0.930 . S
C560 C558 1.369 . S
C560 C562 1.392 . S
C560 H588 0.930 . S
C561 C557 1.373 . S
C561 C559 1.383 . S
C561 H589 0.931 . S
C562 C559 1.382 . S
C562 C560 1.392 . S
C563 Eu554 2.828 . S
C563 C557 1.505 . S
C563 O575 1.249 . S
C563 O576 1.244 . S
O564 Eu555 2.373 . S
O564 C566 1.258 . S
O565 Eu554 2.392 . S
O565 C566 1.242 . S
C566 O564 1.258 . S
C566 O565 1.242 . S
O567 Eu554 2.418 . S
O567 C571 1.244 . S
O568 Eu555 2.488 . S
O568 C584 1.249 . S
O569 Eu555 2.471 . S
O569 C584 1.244 . S
O570 Eu555 2.349 . S
O570 C571 1.265 . S
C571 O567 1.244 . S
C571 O570 1.265 . S
O572 Eu554 2.373 . S
O572 C585 1.258 . S
O573 Eu555 2.392 . S
O573 C585 1.242 . S
O574 Eu555 2.418 . S
O574 C556 1.244 . S
O575 Eu554 2.488 . S
O575 C563 1.249 . S
O576 Eu554 2.471 . S
O576 C563 1.244 . S
O577 Eu554 2.349 . S
O577 C556 1.265 . S
C578 C579 1.379 . S
C578 C582 1.373 . S
C578 C584 1.505 . S
C579 C578 1.379 . S
C579 C581 1.369 . S
C579 H590 0.930 . S
C580 C582 1.383 . S
C580 C583 1.382 . S
C580 H591 0.930 . S
C581 C579 1.369 . S
C581 C583 1.392 . S
C581 H592 0.930 . S
C582 C578 1.373 . S
C582 C580 1.383 . S
C582 H593 0.931 . S
C583 C580 1.382 . S
C583 C581 1.392 . S
C584 Eu555 2.828 . S
C584 O568 1.249 . S
C584 O569 1.244 . S
C584 C578 1.505 . S
C585 O572 1.258 . S
C585 O573 1.242 . S
H586 C558 0.930 . S
H587 C559 0.930 . S
H588 C560 0.930 . S
H589 C561 0.931 . S
H590 C579 0.930 . S
H591 C580 0.930 . S
H592 C581 0.930 . S
H593 C582 0.931 . S
H594 C600 0.930 . S
H595 C603 0.930 . S
H596 C604 0.930 . S
H597 C605 0.930 . S
H598 C608 0.930 . S
H599 C609 0.930 . S
C600 H594 0.930 . S
C600 C601 1.355 . S
C600 C602 1.415 . S
C601 C600 1.355 . S
C601 C603 1.419 . S
C602 C600 1.415 . S
C602 C607 1.425 . S
C602 C609 1.409 . S
C603 H595 0.930 . S
C603 C601 1.419 . S
C603 C604 1.362 . S
C604 H596 0.930 . S
C604 C603 1.362 . S
C604 C607 1.409 . S
C605 H597 0.930 . S
C605 C606 1.355 . S
C605 C607 1.415 . S
C606 C605 1.355 . S
C606 C608 1.419 . S
C607 C602 1.425 . S
C607 C604 1.409 . S
C607 C605 1.415 . S
C608 H598 0.930 . S
C608 C606 1.419 . S
C608 C609 1.362 . S
C609 H599 0.930 . S
C609 C602 1.409 . S
C609 C608 1.362 . S
H610 C616 0.930 . S
H611 C619 0.930 . S
H612 C620 0.930 . S
H613 C621 0.930 . S
H614 C624 0.930 . S
H615 C625 0.930 . S
C616 H610 0.930 . S
C616 C617 1.355 . S
C616 C618 1.415 . S
C617 C616 1.355 . S
C617 C619 1.419 . S
C618 C616 1.415 . S
C618 C623 1.425 . S
C618 C625 1.409 . S
C619 H611 0.930 . S
C619 C617 1.419 . S
C619 C620 1.362 . S
C620 H612 0.930 . S
C620 C619 1.362 . S
C620 C623 1.409 . S
C621 H613 0.930 . S
C621 C622 1.355 . S
C621 C623 1.415 . S
C622 C621 1.355 . S
C622 C624 1.419 . S
C623 C618 1.425 . S
C623 C620 1.409 . S
C623 C621 1.415 . S
C624 H614 0.930 . S
C624 C622 1.419 . S
C624 C625 1.362 . S
C625 H615 0.930 . S
C625 C618 1.409 . S
C625 C624 1.362 . S
H626 C632 0.930 . S
H627 C635 0.930 . S
H628 C636 0.930 . S
H629 C637 0.930 . S
H630 C640 0.930 . S
H631 C641 0.930 . S
C632 H626 0.930 . S
C632 C633 1.355 . S
C632 C634 1.415 . S
C633 C632 1.355 . S
C633 C635 1.419 . S
C634 C632 1.415 . S
C634 C639 1.425 . S
C634 C641 1.409 . S
C635 H627 0.930 . S
C635 C633 1.419 . S
C635 C636 1.362 . S
C636 H628 0.930 . S
C636 C635 1.362 . S
C636 C639 1.409 . S
C637 H629 0.930 . S
C637 C638 1.355 . S
C637 C639 1.415 . S
C638 C637 1.355 . S
C638 C640 1.419 . S
C639 C634 1.425 . S
C639 C636 1.409 . S
C639 C637 1.415 . S
C640 H630 0.930 . S
C640 C638 1.419 . S
C640 C641 1.362 . S
C641 H631 0.930 . S
C641 C634 1.409 . S
C641 C640 1.362 . S
H642 C648 0.930 . S
H643 C651 0.930 . S
H644 C652 0.930 . S
H645 C653 0.930 . S
H646 C656 0.928 1_554 S
H647 C657 0.930 . S
C648 H642 0.930 . S
C648 C649 1.355 . S
C648 C650 1.415 . S
C649 C648 1.355 . S
C649 C651 1.419 . S
C650 C648 1.415 . S
C650 C655 1.425 . S
C650 C657 1.409 . S
C651 H643 0.930 . S
C651 C649 1.419 . S
C651 C652 1.362 . S
C652 H644 0.930 . S
C652 C651 1.362 . S
C652 C655 1.409 . S
C653 H645 0.930 . S
C653 C654 1.355 . S
C653 C655 1.415 . S
C654 C653 1.355 . S
C654 C656 1.419 . S
C655 C650 1.425 . S
C655 C652 1.409 . S
C655 C653 1.415 . S
C656 H646 0.928 1_556 S
C656 C654 1.419 . S
C656 C657 1.362 . S
C657 H647 0.930 . S
C657 C650 1.409 . S
C657 C656 1.362 . S
H658 C664 0.930 . S
H659 C667 0.930 . S
H660 C668 0.930 . S
H661 C669 0.930 . S
H662 C672 0.930 . S
H663 C673 0.930 . S
C664 H658 0.930 . S
C664 C665 1.355 . S
C664 C666 1.415 . S
C665 C664 1.355 . S
C665 C667 1.419 . S
C666 C664 1.415 . S
C666 C671 1.425 . S
C666 C673 1.409 1_556 S
C667 H659 0.930 . S
C667 C665 1.419 . S
C667 C668 1.362 . S
C668 H660 0.930 . S
C668 C667 1.362 . S
C668 C671 1.409 . S
C669 H661 0.930 . S
C669 C670 1.355 . S
C669 C671 1.415 . S
C670 C669 1.355 . S
C670 C672 1.419 1_556 S
C671 C666 1.425 . S
C671 C668 1.409 . S
C671 C669 1.415 . S
C672 H662 0.930 . S
C672 C670 1.419 1_554 S
C672 C673 1.362 . S
C673 H663 0.930 . S
C673 C666 1.409 1_554 S
C673 C672 1.362 . S
H674 C680 0.930 . S
H675 C683 0.930 . S
H676 C684 0.930 . S
H677 C685 0.930 . S
H678 C688 0.930 . S
H679 C689 0.930 . S
C680 H674 0.930 . S
C680 C681 1.355 . S
C680 C682 1.415 . S
C681 C680 1.355 . S
C681 C683 1.419 1_556 S
C682 C680 1.415 . S
C682 C687 1.425 1_556 S
C682 C689 1.409 . S
C683 H675 0.930 . S
C683 C681 1.419 1_554 S
C683 C684 1.362 . S
C684 H676 0.930 . S
C684 C683 1.362 . S
C684 C687 1.409 . S
C685 H677 0.930 . S
C685 C686 1.355 1_554 S
C685 C687 1.415 . S
C686 C685 1.355 1_556 S
C686 C688 1.419 . S
C687 C682 1.425 1_554 S
C687 C684 1.409 . S
C687 C685 1.415 . S
C688 H678 0.930 . S
C688 C686 1.419 . S
C688 C689 1.362 . S
C689 H679 0.930 . S
C689 C682 1.409 . S
C689 C688 1.362 . S
H690 C696 0.930 . S
H691 C699 0.930 . S
H692 C700 0.943 . S
H693 C701 0.933 . S
H694 C704 0.930 . S
H695 C705 0.930 . S
C696 H690 0.930 . S
C696 C697 1.355 . S
C696 C698 1.415 . S
C697 C696 1.355 . S
C697 C699 1.419 . S
C698 C696 1.415 . S
C698 C703 1.425 . S
C698 C705 1.409 . S
C699 H691 0.930 . S
C699 C697 1.419 . S
C699 C700 1.362 . S
C700 H692 0.943 . S
C700 C699 1.362 . S
C700 C703 1.409 . S
C701 H693 0.933 . S
C701 C702 1.355 . S
C701 C703 1.415 . S
C702 C701 1.355 . S
C702 C704 1.419 . S
C703 C698 1.425 . S
C703 C700 1.409 . S
C703 C701 1.415 . S
C704 H694 0.930 . S
C704 C702 1.419 . S
C704 C705 1.362 . S
C705 H695 0.930 . S
C705 C698 1.409 . S
C705 C704 1.362 . S
H706 C712 0.930 . S
H707 C715 0.930 . S
H708 C716 0.930 . S
H709 C717 0.930 . S
H710 C720 0.930 1_554 S
H711 C721 0.930 . S
C712 H706 0.930 . S
C712 C713 1.355 . S
C712 C714 1.415 . S
C713 C712 1.355 . S
C713 C715 1.419 . S
C714 C712 1.415 . S
C714 C719 1.425 . S
C714 C721 1.409 . S
C715 H707 0.930 . S
C715 C713 1.419 . S
C715 C716 1.362 . S
C716 H708 0.930 . S
C716 C715 1.362 . S
C716 C719 1.409 . S
C717 H709 0.930 . S
C717 C718 1.355 . S
C717 C719 1.415 . S
C718 C717 1.355 . S
C718 C720 1.419 . S
C719 C714 1.425 . S
C719 C716 1.409 . S
C719 C717 1.415 . S
C720 H710 0.930 1_556 S
C720 C718 1.419 . S
C720 C721 1.362 . S
C721 H711 0.930 . S
C721 C714 1.409 . S
C721 C720 1.362 . S
H722 C728 0.930 . S
H723 C731 0.929 1_554 S
H724 C732 0.930 . S
H725 C733 0.930 . S
H726 C736 0.930 1_556 S
H727 C737 0.930 . S
C728 H722 0.930 . S
C728 C729 1.355 . S
C728 C730 1.415 . S
C729 C728 1.355 . S
C729 C731 1.425 . S
C730 C728 1.415 . S
C730 C735 1.425 1_556 S
C730 C737 1.409 . S
C731 H723 0.929 1_556 S
C731 C729 1.425 . S
C731 C732 1.357 1_556 S
C732 H724 0.930 . S
C732 C731 1.357 1_554 S
C732 C735 1.409 . S
C733 H725 0.930 . S
C733 C734 1.355 . S
C733 C735 1.415 . S
C734 C733 1.355 . S
C734 C736 1.424 . S
C735 C730 1.425 1_554 S
C735 C732 1.409 . S
C735 C733 1.415 . S
C736 H726 0.930 1_554 S
C736 C734 1.424 . S
C736 C737 1.358 1_554 S
C737 H727 0.930 . S
C737 C730 1.409 . S
C737 C736 1.358 1_556 S
H738 C744 0.930 . S
H739 C747 0.930 . S
H740 C748 0.930 1_556 S
H741 C749 0.930 1_556 S
H742 C752 0.930 . S
H743 C753 0.930 . S
C744 H738 0.930 . S
C744 C745 1.355 . S
C744 C746 1.415 . S
C745 C744 1.355 . S
C745 C747 1.419 . S
C746 C744 1.415 . S
C746 C751 1.425 . S
C746 C753 1.409 . S
C747 H739 0.930 . S
C747 C745 1.419 . S
C747 C748 1.362 . S
C748 H740 0.930 1_554 S
C748 C747 1.362 . S
C748 C751 1.409 . S
C749 H741 0.930 1_554 S
C749 C750 1.355 . S
C749 C751 1.415 . S
C750 C749 1.355 . S
C750 C752 1.419 . S
C751 C746 1.425 . S
C751 C748 1.409 . S
C751 C749 1.415 . S
C752 H742 0.930 . S
C752 C750 1.419 . S
C752 C753 1.362 . S
C753 H743 0.930 . S
C753 C746 1.409 . S
C753 C752 1.362 . S
H754 C760 0.930 . S
H755 C763 0.930 . S
H756 C764 0.930 . S
H757 C765 0.930 . S
H758 C768 0.930 . S
H759 C769 0.930 . S
C760 H754 0.930 . S
C760 C761 1.355 . S
C760 C762 1.415 . S
C761 C760 1.355 . S
C761 C763 1.419 . S
C762 C760 1.415 . S
C762 C767 1.425 . S
C762 C769 1.409 . S
C763 H755 0.930 . S
C763 C761 1.419 . S
C763 C764 1.362 . S
C764 H756 0.930 . S
C764 C763 1.362 . S
C764 C767 1.409 . S
C765 H757 0.930 . S
C765 C766 1.355 . S
C765 C767 1.415 . S
C766 C765 1.355 . S
C766 C768 1.419 . S
C767 C762 1.425 . S
C767 C764 1.409 . S
C767 C765 1.415 . S
C768 H758 0.930 . S
C768 C766 1.419 . S
C768 C769 1.362 . S
C769 H759 0.930 . S
C769 C762 1.409 . S
C769 C768 1.362 . S
H770 C776 0.930 . S
H771 C779 0.930 . S
H772 C780 0.930 . S
H773 C781 0.930 . S
H774 C784 0.930 . S
H775 C785 0.930 . S
C776 H770 0.930 . S
C776 C777 1.355 . S
C776 C778 1.415 . S
C777 C776 1.355 . S
C777 C779 1.419 . S
C778 C776 1.415 . S
C778 C783 1.425 . S
C778 C785 1.409 . S
C779 H771 0.930 . S
C779 C777 1.419 . S
C779 C780 1.362 . S
C780 H772 0.930 . S
C780 C779 1.362 . S
C780 C783 1.409 . S
C781 H773 0.930 . S
C781 C782 1.355 . S
C781 C783 1.415 . S
C782 C781 1.355 . S
C782 C784 1.419 . S
C783 C778 1.425 . S
C783 C780 1.409 . S
C783 C781 1.415 . S
C784 H774 0.930 . S
C784 C782 1.419 . S
C784 C785 1.362 . S
C785 H775 0.930 . S
C785 C778 1.409 . S
C785 C784 1.362 . S
H786 C792 0.930 . S
H787 C795 0.930 . S
H788 C796 0.930 . S
H789 C797 0.930 . S
H790 C800 0.930 . S
H791 C801 0.930 . S
C792 H786 0.930 . S
C792 C793 1.355 . S
C792 C794 1.406 1_655 S
C793 C792 1.355 . S
C793 C795 1.419 . S
C794 C792 1.406 1_455 S
C794 C799 1.431 . S
C794 C801 1.412 . S
C795 H787 0.930 . S
C795 C793 1.419 . S
C795 C796 1.362 . S
C796 H788 0.930 . S
C796 C795 1.362 . S
C796 C799 1.409 1_655 S
C797 H789 0.930 . S
C797 C798 1.355 . S
C797 C799 1.415 . S
C798 C797 1.355 . S
C798 C800 1.419 . S
C799 C794 1.431 . S
C799 C796 1.409 1_455 S
C799 C797 1.415 . S
C800 H790 0.930 . S
C800 C798 1.419 . S
C800 C801 1.362 . S
C801 H791 0.930 . S
C801 C794 1.412 . S
C801 C800 1.362 . S
H802 C808 0.930 . S
H803 C811 0.930 . S
H804 C812 0.930 . S
H805 C813 0.930 . S
H806 C816 0.930 . S
H807 C817 0.930 . S
C808 H802 0.930 . S
C808 C809 1.355 . S
C808 C810 1.415 . S
C809 C808 1.355 . S
C809 C811 1.419 . S
C810 C808 1.415 . S
C810 C815 1.425 . S
C810 C817 1.409 . S
C811 H803 0.930 . S
C811 C809 1.419 . S
C811 C812 1.362 . S
C812 H804 0.930 . S
C812 C811 1.362 . S
C812 C815 1.409 . S
C813 H805 0.930 . S
C813 C814 1.355 . S
C813 C815 1.415 . S
C814 C813 1.355 . S
C814 C816 1.419 . S
C815 C810 1.425 . S
C815 C812 1.409 . S
C815 C813 1.415 . S
C816 H806 0.930 . S
C816 C814 1.419 . S
C816 C817 1.362 . S
C817 H807 0.930 . S
C817 C810 1.409 . S
C817 C816 1.362 . S
H818 C824 0.930 . S
H819 C827 0.930 . S
H820 C828 0.930 . S
H821 C829 0.930 . S
H822 C832 0.930 . S
H823 C833 0.930 . S
C824 H818 0.930 . S
C824 C825 1.355 . S
C824 C826 1.415 . S
C825 C824 1.355 . S
C825 C827 1.419 . S
C826 C824 1.415 . S
C826 C831 1.425 1_545 S
C826 C833 1.409 1_545 S
C827 H819 0.930 . S
C827 C825 1.419 . S
C827 C828 1.362 . S
C828 H820 0.930 . S
C828 C827 1.362 . S
C828 C831 1.409 1_545 S
C829 H821 0.930 . S
C829 C830 1.355 . S
C829 C831 1.415 . S
C830 C829 1.355 . S
C830 C832 1.419 . S
C831 C826 1.425 1_565 S
C831 C828 1.409 1_565 S
C831 C829 1.415 . S
C832 H822 0.930 . S
C832 C830 1.419 . S
C832 C833 1.362 . S
C833 H823 0.930 . S
C833 C826 1.409 1_565 S
C833 C832 1.362 . S
H834 C840 0.930 . S
H835 C843 0.930 . S
H836 C844 0.930 . S
H837 C845 0.930 . S
H838 C848 0.930 . S
H839 C849 0.930 . S
C840 H834 0.930 . S
C840 C841 1.355 . S
C840 C842 1.415 . S
C841 C840 1.355 . S
C841 C843 1.419 . S
C842 C840 1.415 . S
C842 C847 1.425 . S
C842 C849 1.409 . S
C843 H835 0.930 . S
C843 C841 1.419 . S
C843 C844 1.362 . S
C844 H836 0.930 . S
C844 C843 1.362 . S
C844 C847 1.409 . S
C845 H837 0.930 . S
C845 C846 1.355 . S
C845 C847 1.415 . S
C846 C845 1.355 . S
C846 C848 1.419 . S
C847 C842 1.425 . S
C847 C844 1.409 . S
C847 C845 1.415 . S
C848 H838 0.930 . S
C848 C846 1.419 . S
C848 C849 1.362 . S
C849 H839 0.930 . S
C849 C842 1.409 . S
C849 C848 1.362 . S
H850 C856 0.930 . S
H851 C859 0.930 . S
H852 C860 0.930 . S
H853 C861 0.930 . S
H854 C864 0.930 . S
H855 C865 0.930 . S
C856 H850 0.930 . S
C856 C857 1.355 . S
C856 C858 1.415 . S
C857 C856 1.355 . S
C857 C859 1.419 . S
C858 C856 1.415 . S
C858 C863 1.425 . S
C858 C865 1.409 . S
C859 H851 0.930 . S
C859 C857 1.419 . S
C859 C860 1.362 . S
C860 H852 0.930 . S
C860 C859 1.362 . S
C860 C863 1.409 . S
C861 H853 0.930 . S
C861 C862 1.355 . S
C861 C863 1.415 . S
C862 C861 1.355 . S
C862 C864 1.419 . S
C863 C858 1.425 . S
C863 C860 1.409 . S
C863 C861 1.415 . S
C864 H854 0.930 . S
C864 C862 1.419 . S
C864 C865 1.362 . S
C865 H855 0.930 . S
C865 C858 1.409 . S
C865 C864 1.362 . S
H866 C872 0.930 . S
H867 C875 0.930 . S
H868 C876 0.930 . S
H869 C877 0.930 . S
H870 C880 0.930 . S
H871 C881 0.930 . S
C872 H866 0.930 . S
C872 C873 1.355 . S
C872 C874 1.415 . S
C873 C872 1.355 . S
C873 C875 1.419 . S
C874 C872 1.415 . S
C874 C879 1.425 . S
C874 C881 1.409 . S
C875 H867 0.930 . S
C875 C873 1.419 . S
C875 C876 1.362 . S
C876 H868 0.930 . S
C876 C875 1.362 . S
C876 C879 1.409 . S
C877 H869 0.930 . S
C877 C878 1.355 . S
C877 C879 1.415 . S
C878 C877 1.355 . S
C878 C880 1.419 . S
C879 C874 1.425 . S
C879 C876 1.409 . S
C879 C877 1.415 . S
C880 H870 0.930 . S
C880 C878 1.419 . S
C880 C881 1.362 . S
C881 H871 0.930 . S
C881 C874 1.409 . S
C881 C880 1.362 . S
H882 C888 0.930 . S
H883 C891 0.930 . S
H884 C892 0.930 . S
H885 C893 0.930 . S
H886 C896 0.930 . S
H887 C897 0.930 . S
C888 H882 0.930 . S
C888 C889 1.355 . S
C888 C890 1.415 . S
C889 C888 1.355 . S
C889 C891 1.419 . S
C890 C888 1.415 . S
C890 C895 1.425 . S
C890 C897 1.409 . S
C891 H883 0.930 . S
C891 C889 1.419 . S
C891 C892 1.362 . S
C892 H884 0.930 . S
C892 C891 1.362 . S
C892 C895 1.409 . S
C893 H885 0.930 . S
C893 C894 1.355 . S
C893 C895 1.415 . S
C894 C893 1.355 . S
C894 C896 1.419 . S
C895 C890 1.425 . S
C895 C892 1.409 . S
C895 C893 1.415 . S
C896 H886 0.930 . S
C896 C894 1.419 . S
C896 C897 1.362 . S
C897 H887 0.930 . S
C897 C890 1.409 . S
C897 C896 1.362 . S
H898 C904 0.930 . S
H899 C907 0.930 . S
H900 C908 0.930 . S
H901 C909 0.930 . S
H902 C912 0.930 . S
H903 C913 0.930 . S
C904 H898 0.930 . S
C904 C905 1.355 . S
C904 C906 1.415 . S
C905 C904 1.355 . S
C905 C907 1.419 . S
C906 C904 1.415 . S
C906 C911 1.425 . S
C906 C913 1.409 . S
C907 H899 0.930 . S
C907 C905 1.419 . S
C907 C908 1.362 . S
C908 H900 0.930 . S
C908 C907 1.362 . S
C908 C911 1.409 . S
C909 H901 0.930 . S
C909 C910 1.355 . S
C909 C911 1.415 . S
C910 C909 1.355 . S
C910 C912 1.419 . S
C911 C906 1.425 . S
C911 C908 1.409 . S
C911 C909 1.415 . S
C912 H902 0.930 . S
C912 C910 1.419 . S
C912 C913 1.362 . S
C913 H903 0.930 . S
C913 C906 1.409 . S
C913 C912 1.362 . S
H914 C920 0.930 . S
H915 C923 0.930 . S
H916 C924 0.930 . S
H917 C925 0.930 . S
H918 C928 0.930 . S
H919 C929 0.930 . S
C920 H914 0.930 . S
C920 C921 1.355 . S
C920 C922 1.415 . S
C921 C920 1.355 . S
C921 C923 1.419 . S
C922 C920 1.415 . S
C922 C927 1.425 . S
C922 C929 1.409 . S
C923 H915 0.930 . S
C923 C921 1.419 . S
C923 C924 1.362 . S
C924 H916 0.930 . S
C924 C923 1.362 . S
C924 C927 1.409 . S
C925 H917 0.930 . S
C925 C926 1.355 . S
C925 C927 1.415 . S
C926 C925 1.355 . S
C926 C928 1.419 . S
C927 C922 1.425 . S
C927 C924 1.409 . S
C927 C925 1.415 . S
C928 H918 0.930 . S
C928 C926 1.419 . S
C928 C929 1.362 . S
C929 H919 0.930 . S
C929 C922 1.409 . S
C929 C928 1.362 . S
H930 C936 0.930 . S
H931 C939 0.930 . S
H932 C940 0.930 . S
H933 C941 0.930 . S
H934 C944 0.930 . S
H935 C945 0.930 . S
C936 H930 0.930 . S
C936 C937 1.355 . S
C936 C938 1.415 . S
C937 C936 1.355 . S
C937 C939 1.419 . S
C938 C936 1.415 . S
C938 C943 1.425 . S
C938 C945 1.409 1_545 S
C939 H931 0.930 . S
C939 C937 1.419 . S
C939 C940 1.362 . S
C940 H932 0.930 . S
C940 C939 1.362 . S
C940 C943 1.409 . S
C941 H933 0.930 . S
C941 C942 1.355 . S
C941 C943 1.415 1_565 S
C942 C941 1.355 . S
C942 C944 1.419 . S
C943 C938 1.425 . S
C943 C940 1.409 . S
C943 C941 1.415 1_545 S
C944 H934 0.930 . S
C944 C942 1.419 . S
C944 C945 1.362 . S
C945 H935 0.930 . S
C945 C938 1.409 1_565 S
C945 C944 1.362 . S
H946 C952 0.930 . S
H947 C955 0.930 . S
H948 C956 0.930 . S
H949 C957 0.930 . S
H950 C960 0.930 . S
H951 C961 0.930 . S
C952 H946 0.930 . S
C952 C953 1.355 . S
C952 C954 1.415 1_655 S
C953 C952 1.355 . S
C953 C955 1.419 . S
C954 C952 1.415 1_455 S
C954 C959 1.425 . S
C954 C961 1.409 . S
C955 H947 0.930 . S
C955 C953 1.419 . S
C955 C956 1.362 . S
C956 H948 0.930 . S
C956 C955 1.362 . S
C956 C959 1.409 1_655 S
C957 H949 0.930 . S
C957 C958 1.355 . S
C957 C959 1.415 . S
C958 C957 1.355 . S
C958 C960 1.419 . S
C959 C954 1.425 . S
C959 C956 1.409 1_455 S
C959 C957 1.415 . S
C960 H950 0.930 . S
C960 C958 1.419 . S
C960 C961 1.362 . S
C961 H951 0.930 . S
C961 C954 1.409 . S
C961 C960 1.362 . S
H962 C968 0.930 . S
H963 C971 0.930 . S
H964 C972 0.930 . S
H965 C973 0.930 . S
H966 C976 0.930 . S
H967 C977 0.930 . S
C968 H962 0.930 . S
C968 C969 1.355 . S
C968 C970 1.415 . S
C969 C968 1.355 . S
C969 C971 1.419 . S
C970 C968 1.415 . S
C970 C975 1.425 . S
C970 C977 1.409 . S
C971 H963 0.930 . S
C971 C969 1.419 . S
C971 C972 1.362 . S
C972 H964 0.930 . S
C972 C971 1.362 . S
C972 C975 1.409 . S
C973 H965 0.930 . S
C973 C974 1.355 . S
C973 C975 1.415 . S
C974 C973 1.355 . S
C974 C976 1.419 . S
C975 C970 1.425 . S
C975 C972 1.409 . S
C975 C973 1.415 . S
C976 H966 0.930 . S
C976 C974 1.419 . S
C976 C977 1.362 . S
C977 H967 0.930 . S
C977 C970 1.409 . S
C977 C976 1.362 . S
H978 C984 0.930 . S
H979 C987 0.930 . S
H980 C988 0.930 . S
H981 C989 0.930 . S
H982 C992 0.930 . S
H983 C993 0.930 . S
C984 H978 0.930 . S
C984 C985 1.355 . S
C984 C986 1.415 . S
C985 C984 1.355 . S
C985 C987 1.419 . S
C986 C984 1.415 . S
C986 C991 1.425 . S
C986 C993 1.409 . S
C987 H979 0.930 . S
C987 C985 1.419 . S
C987 C988 1.362 . S
C988 H980 0.930 . S
C988 C987 1.362 . S
C988 C991 1.409 . S
C989 H981 0.930 . S
C989 C990 1.355 . S
C989 C991 1.415 . S
C990 C989 1.355 . S
C990 C992 1.419 . S
C991 C986 1.425 . S
C991 C988 1.409 . S
C991 C989 1.415 . S
C992 H982 0.930 . S
C992 C990 1.419 . S
C992 C993 1.362 . S
C993 H983 0.930 . S
C993 C986 1.409 . S
C993 C992 1.362 . S
H994 C1000 0.930 . S
H995 C1003 0.930 . S
H996 C1004 0.930 . S
H997 C1005 0.930 . S
H998 C1008 0.930 . S
H999 C1009 0.930 . S
C1000 H994 0.930 . S
C1000 C1001 1.355 . S
C1000 C1002 1.415 . S
C1001 C1000 1.355 . S
C1001 C1003 1.419 . S
C1002 C1000 1.415 . S
C1002 C1007 1.425 . S
C1002 C1009 1.409 . S
C1003 H995 0.930 . S
C1003 C1001 1.419 . S
C1003 C1004 1.362 . S
C1004 H996 0.930 . S
C1004 C1003 1.362 . S
C1004 C1007 1.409 . S
C1005 H997 0.930 . S
C1005 C1006 1.355 . S
C1005 C1007 1.415 . S
C1006 C1005 1.355 . S
C1006 C1008 1.419 . S
C1007 C1002 1.425 . S
C1007 C1004 1.409 . S
C1007 C1005 1.415 . S
C1008 H998 0.930 . S
C1008 C1006 1.419 . S
C1008 C1009 1.362 . S
C1009 H999 0.930 . S
C1009 C1002 1.409 . S
C1009 C1008 1.362 . S
H1010 C1016 0.930 . S
H1011 C1019 0.930 . S
H1012 C1020 0.930 . S
H1013 C1021 0.930 . S
H1014 C1024 0.930 . S
H1015 C1025 0.930 . S
C1016 H1010 0.930 . S
C1016 C1017 1.355 . S
C1016 C1018 1.415 . S
C1017 C1016 1.355 . S
C1017 C1019 1.419 . S
C1018 C1016 1.415 . S
C1018 C1023 1.425 . S
C1018 C1025 1.409 . S
C1019 H1011 0.930 . S
C1019 C1017 1.419 . S
C1019 C1020 1.362 . S
C1020 H1012 0.930 . S
C1020 C1019 1.362 . S
C1020 C1023 1.409 . S
C1021 H1013 0.930 . S
C1021 C1022 1.355 . S
C1021 C1023 1.415 . S
C1022 C1021 1.355 . S
C1022 C1024 1.419 . S
C1023 C1018 1.425 . S
C1023 C1020 1.409 . S
C1023 C1021 1.415 . S
C1024 H1014 0.930 . S
C1024 C1022 1.419 . S
C1024 C1025 1.362 . S
C1025 H1015 0.930 . S
C1025 C1018 1.409 . S
C1025 C1024 1.362 . S
H1026 C1032 0.930 . S
H1027 C1035 0.930 . S
H1028 C1036 0.930 . S
H1029 C1037 0.930 . S
H1030 C1040 0.930 . S
H1031 C1041 0.930 . S
C1032 H1026 0.930 . S
C1032 C1033 1.355 . S
C1032 C1034 1.415 1_565 S
C1033 C1032 1.355 . S
C1033 C1035 1.419 . S
C1034 C1032 1.415 1_545 S
C1034 C1039 1.425 . S
C1034 C1041 1.409 . S
C1035 H1027 0.930 . S
C1035 C1033 1.419 . S
C1035 C1036 1.362 1_565 S
C1036 H1028 0.930 . S
C1036 C1035 1.362 1_545 S
C1036 C1039 1.409 . S
C1037 H1029 0.930 . S
C1037 C1038 1.355 . S
C1037 C1039 1.415 . S
C1038 C1037 1.355 . S
C1038 C1040 1.419 . S
C1039 C1034 1.425 . S
C1039 C1036 1.409 . S
C1039 C1037 1.415 . S
C1040 H1030 0.930 . S
C1040 C1038 1.419 . S
C1040 C1041 1.362 . S
C1041 H1031 0.930 . S
C1041 C1034 1.409 . S
C1041 C1040 1.362 . S
H1042 C1048 0.930 . S
H1043 C1051 0.930 . S
H1044 C1052 0.930 . S
H1045 C1053 0.930 . S
H1046 C1056 0.930 . S
H1047 C1057 0.930 . S
C1048 H1042 0.930 . S
C1048 C1049 1.355 . S
C1048 C1050 1.415 1_455 S
C1049 C1048 1.355 . S
C1049 C1051 1.419 . S
C1050 C1048 1.415 1_655 S
C1050 C1055 1.425 . S
C1050 C1057 1.409 . S
C1051 H1043 0.930 . S
C1051 C1049 1.419 . S
C1051 C1052 1.362 1_455 S
C1052 H1044 0.930 . S
C1052 C1051 1.362 1_655 S
C1052 C1055 1.409 . S
C1053 H1045 0.930 . S
C1053 C1054 1.355 . S
C1053 C1055 1.415 . S
C1054 C1053 1.355 . S
C1054 C1056 1.419 . S
C1055 C1050 1.425 . S
C1055 C1052 1.409 . S
C1055 C1053 1.415 . S
C1056 H1046 0.930 . S
C1056 C1054 1.419 . S
C1056 C1057 1.362 . S
C1057 H1047 0.930 . S
C1057 C1050 1.409 . S
C1057 C1056 1.362 . S
H1058 C1064 0.930 . S
H1059 C1067 0.930 . S
H1060 C1068 0.930 . S
H1061 C1069 0.930 . S
H1062 C1072 0.930 . S
H1063 C1073 0.930 . S
C1064 H1058 0.930 . S
C1064 C1065 1.355 . S
C1064 C1066 1.415 . S
C1065 C1064 1.355 . S
C1065 C1067 1.419 . S
C1066 C1064 1.415 . S
C1066 C1071 1.425 . S
C1066 C1073 1.409 . S
C1067 H1059 0.930 . S
C1067 C1065 1.419 . S
C1067 C1068 1.362 . S
C1068 H1060 0.930 . S
C1068 C1067 1.362 . S
C1068 C1071 1.409 . S
C1069 H1061 0.930 . S
C1069 C1070 1.355 . S
C1069 C1071 1.415 . S
C1070 C1069 1.355 . S
C1070 C1072 1.419 . S
C1071 C1066 1.425 . S
C1071 C1068 1.409 . S
C1071 C1069 1.415 . S
C1072 H1062 0.930 . S
C1072 C1070 1.419 . S
C1072 C1073 1.362 . S
C1073 H1063 0.930 . S
C1073 C1066 1.409 . S
C1073 C1072 1.362 . S
H1074 C1080 0.930 . S
H1075 C1083 0.930 . S
H1076 C1084 0.930 . S
H1077 C1085 0.930 . S
H1078 C1088 0.930 . S
H1079 C1089 0.930 . S
C1080 H1074 0.930 . S
C1080 C1081 1.355 . S
C1080 C1082 1.415 . S
C1081 C1080 1.355 . S
C1081 C1083 1.419 . S
C1082 C1080 1.415 . S
C1082 C1087 1.425 . S
C1082 C1089 1.409 . S
C1083 H1075 0.930 . S
C1083 C1081 1.419 . S
C1083 C1084 1.362 . S
C1084 H1076 0.930 . S
C1084 C1083 1.362 . S
C1084 C1087 1.409 . S
C1085 H1077 0.930 . S
C1085 C1086 1.355 . S
C1085 C1087 1.415 1_655 S
C1086 C1085 1.355 . S
C1086 C1088 1.419 . S
C1087 C1082 1.425 . S
C1087 C1084 1.409 . S
C1087 C1085 1.415 1_455 S
C1088 H1078 0.930 . S
C1088 C1086 1.419 . S
C1088 C1089 1.362 1_655 S
C1089 H1079 0.930 . S
C1089 C1082 1.409 . S
C1089 C1088 1.362 1_455 S
H1090 C1096 0.930 . S
H1091 C1099 0.930 . S
H1092 C1100 0.930 . S
H1093 C1101 0.930 . S
H1094 C1104 0.930 . S
H1095 C1105 0.930 . S
C1096 H1090 0.930 . S
C1096 C1097 1.355 . S
C1096 C1098 1.415 . S
C1097 C1096 1.355 . S
C1097 C1099 1.419 . S
C1098 C1096 1.415 . S
C1098 C1103 1.425 . S
C1098 C1105 1.409 . S
C1099 H1091 0.930 . S
C1099 C1097 1.419 . S
C1099 C1100 1.362 . S
C1100 H1092 0.930 . S
C1100 C1099 1.362 . S
C1100 C1103 1.409 . S
C1101 H1093 0.930 . S
C1101 C1102 1.355 . S
C1101 C1103 1.415 . S
C1102 C1101 1.355 . S
C1102 C1104 1.419 . S
C1103 C1098 1.425 . S
C1103 C1100 1.409 . S
C1103 C1101 1.415 . S
C1104 H1094 0.930 . S
C1104 C1102 1.419 . S
C1104 C1105 1.362 . S
C1105 H1095 0.930 . S
C1105 C1098 1.409 . S
C1105 C1104 1.362 . S
H1106 C1112 0.930 . S
H1107 C1115 0.930 . S
H1108 C1116 0.930 . S
H1109 C1117 0.930 . S
H1110 C1120 0.930 . S
H1111 C1121 0.930 . S
C1112 H1106 0.930 . S
C1112 C1113 1.355 . S
C1112 C1114 1.415 . S
C1113 C1112 1.355 . S
C1113 C1115 1.419 . S
C1114 C1112 1.415 . S
C1114 C1119 1.425 . S
C1114 C1121 1.409 1_565 S
C1115 H1107 0.930 . S
C1115 C1113 1.419 . S
C1115 C1116 1.362 . S
C1116 H1108 0.930 . S
C1116 C1115 1.362 . S
C1116 C1119 1.409 . S
C1117 H1109 0.930 . S
C1117 C1118 1.355 . S
C1117 C1119 1.415 1_545 S
C1118 C1117 1.355 . S
C1118 C1120 1.419 . S
C1119 C1114 1.425 . S
C1119 C1116 1.409 . S
C1119 C1117 1.415 1_565 S
C1120 H1110 0.930 . S
C1120 C1118 1.419 . S
C1120 C1121 1.362 . S
C1121 H1111 0.930 . S
C1121 C1114 1.409 1_545 S
C1121 C1120 1.362 . S
H1122 C1128 0.930 . S
H1123 C1131 0.930 . S
H1124 C1132 0.930 . S
H1125 C1133 0.930 . S
H1126 C1136 0.930 . S
H1127 C1137 0.930 . S
C1128 H1122 0.930 . S
C1128 C1129 1.355 . S
C1128 C1130 1.415 . S
C1129 C1128 1.355 . S
C1129 C1131 1.419 . S
C1130 C1128 1.415 . S
C1130 C1135 1.425 . S
C1130 C1137 1.409 . S
C1131 H1123 0.930 . S
C1131 C1129 1.419 . S
C1131 C1132 1.362 . S
C1132 H1124 0.930 . S
C1132 C1131 1.362 . S
C1132 C1135 1.409 . S
C1133 H1125 0.930 . S
C1133 C1134 1.355 . S
C1133 C1135 1.415 . S
C1134 C1133 1.355 . S
C1134 C1136 1.419 . S
C1135 C1130 1.425 . S
C1135 C1132 1.409 . S
C1135 C1133 1.415 . S
C1136 H1126 0.930 . S
C1136 C1134 1.419 . S
C1136 C1137 1.362 . S
C1137 H1127 0.930 . S
C1137 C1130 1.409 . S
C1137 C1136 1.362 . S
H1138 C1144 0.930 . S
H1139 C1147 0.930 . S
H1140 C1148 0.930 . S
H1141 C1149 0.930 . S
H1142 C1152 0.930 . S
H1143 C1153 0.930 . S
C1144 H1138 0.930 . S
C1144 C1145 1.355 . S
C1144 C1146 1.415 . S
C1145 C1144 1.355 . S
C1145 C1147 1.419 . S
C1146 C1144 1.415 . S
C1146 C1151 1.425 . S
C1146 C1153 1.409 . S
C1147 H1139 0.930 . S
C1147 C1145 1.419 . S
C1147 C1148 1.362 . S
C1148 H1140 0.930 . S
C1148 C1147 1.362 . S
C1148 C1151 1.409 . S
C1149 H1141 0.930 . S
C1149 C1150 1.355 . S
C1149 C1151 1.415 . S
C1150 C1149 1.355 . S
C1150 C1152 1.419 . S
C1151 C1146 1.425 . S
C1151 C1148 1.409 . S
C1151 C1149 1.415 . S
C1152 H1142 0.930 . S
C1152 C1150 1.419 . S
C1152 C1153 1.362 . S
C1153 H1143 0.930 . S
C1153 C1146 1.409 . S
C1153 C1152 1.362 . S
H1154 C1160 0.930 . S
H1155 C1163 0.930 . S
H1156 C1164 0.930 . S
H1157 C1165 0.930 . S
H1158 C1168 0.930 . S
H1159 C1169 0.930 . S
C1160 H1154 0.930 . S
C1160 C1161 1.355 . S
C1160 C1162 1.415 . S
C1161 C1160 1.355 . S
C1161 C1163 1.419 . S
C1162 C1160 1.415 . S
C1162 C1167 1.425 . S
C1162 C1169 1.409 . S
C1163 H1155 0.930 . S
C1163 C1161 1.419 . S
C1163 C1164 1.362 . S
C1164 H1156 0.930 . S
C1164 C1163 1.362 . S
C1164 C1167 1.409 . S
C1165 H1157 0.930 . S
C1165 C1166 1.355 . S
C1165 C1167 1.415 . S
C1166 C1165 1.355 . S
C1166 C1168 1.419 . S
C1167 C1162 1.425 . S
C1167 C1164 1.409 . S
C1167 C1165 1.415 . S
C1168 H1158 0.930 . S
C1168 C1166 1.419 . S
C1168 C1169 1.362 . S
C1169 H1159 0.930 . S
C1169 C1162 1.409 . S
C1169 C1168 1.362 . S
H1170 C1176 0.930 . S
H1171 C1179 0.930 . S
H1172 C1180 0.930 . S
H1173 C1181 0.930 . S
H1174 C1184 0.930 . S
H1175 C1185 0.930 . S
C1176 H1170 0.930 . S
C1176 C1177 1.355 . S
C1176 C1178 1.415 . S
C1177 C1176 1.355 . S
C1177 C1179 1.419 . S
C1178 C1176 1.415 . S
C1178 C1183 1.425 . S
C1178 C1185 1.409 . S
C1179 H1171 0.930 . S
C1179 C1177 1.419 . S
C1179 C1180 1.362 . S
C1180 H1172 0.930 . S
C1180 C1179 1.362 . S
C1180 C1183 1.409 . S
C1181 H1173 0.930 . S
C1181 C1182 1.355 . S
C1181 C1183 1.415 . S
C1182 C1181 1.355 . S
C1182 C1184 1.419 . S
C1183 C1178 1.425 . S
C1183 C1180 1.409 . S
C1183 C1181 1.415 . S
C1184 H1174 0.930 . S
C1184 C1182 1.419 . S
C1184 C1185 1.362 . S
C1185 H1175 0.930 . S
C1185 C1178 1.409 . S
C1185 C1184 1.362 . S
H1186 C1192 0.930 . S
H1187 C1195 0.930 . S
H1188 C1196 0.930 . S
H1189 C1197 0.930 . S
H1190 C1200 0.930 1_655 S
H1191 C1201 0.930 1_655 S
C1192 H1186 0.930 . S
C1192 C1193 1.355 . S
C1192 C1194 1.415 . S
C1193 C1192 1.355 . S
C1193 C1195 1.419 . S
C1194 C1192 1.415 . S
C1194 C1199 1.425 . S
C1194 C1201 1.409 . S
C1195 H1187 0.930 . S
C1195 C1193 1.419 . S
C1195 C1196 1.362 . S
C1196 H1188 0.930 . S
C1196 C1195 1.362 . S
C1196 C1199 1.409 . S
C1197 H1189 0.930 . S
C1197 C1198 1.355 . S
C1197 C1199 1.415 . S
C1198 C1197 1.355 . S
C1198 C1200 1.419 . S
C1199 C1194 1.425 . S
C1199 C1196 1.409 . S
C1199 C1197 1.415 . S
C1200 H1190 0.930 1_455 S
C1200 C1198 1.419 . S
C1200 C1201 1.362 . S
C1201 H1191 0.930 1_455 S
C1201 C1194 1.409 . S
C1201 C1200 1.362 . S
H1202 C1208 0.930 . S
H1203 C1211 0.930 . S
H1204 C1212 0.930 . S
H1205 C1213 0.930 . S
H1206 C1216 0.930 . S
H1207 C1217 0.930 . S
C1208 H1202 0.930 . S
C1208 C1209 1.355 . S
C1208 C1210 1.415 . S
C1209 C1208 1.355 . S
C1209 C1211 1.419 . S
C1210 C1208 1.415 . S
C1210 C1215 1.425 . S
C1210 C1217 1.409 . S
C1211 H1203 0.930 . S
C1211 C1209 1.419 . S
C1211 C1212 1.362 . S
C1212 H1204 0.930 . S
C1212 C1211 1.362 . S
C1212 C1215 1.409 . S
C1213 H1205 0.930 . S
C1213 C1214 1.355 . S
C1213 C1215 1.415 . S
C1214 C1213 1.355 . S
C1214 C1216 1.419 . S
C1215 C1210 1.425 . S
C1215 C1212 1.409 . S
C1215 C1213 1.415 . S
C1216 H1206 0.930 . S
C1216 C1214 1.419 . S
C1216 C1217 1.362 . S
C1217 H1207 0.930 . S
C1217 C1210 1.409 . S
C1217 C1216 1.362 . S
H1218 C1224 0.930 . S
H1219 C1227 0.930 . S
H1220 C1228 0.930 . S
H1221 C1229 0.930 . S
H1222 C1232 0.930 . S
H1223 C1233 0.930 . S
C1224 H1218 0.930 . S
C1224 C1225 1.355 . S
C1224 C1226 1.415 . S
C1225 C1224 1.355 . S
C1225 C1227 1.419 . S
C1226 C1224 1.415 . S
C1226 C1231 1.425 . S
C1226 C1233 1.409 . S
C1227 H1219 0.930 . S
C1227 C1225 1.419 . S
C1227 C1228 1.362 . S
C1228 H1220 0.930 . S
C1228 C1227 1.362 . S
C1228 C1231 1.409 . S
C1229 H1221 0.930 . S
C1229 C1230 1.355 . S
C1229 C1231 1.415 . S
C1230 C1229 1.355 . S
C1230 C1232 1.419 . S
C1231 C1226 1.425 . S
C1231 C1228 1.409 . S
C1231 C1229 1.415 . S
C1232 H1222 0.930 . S
C1232 C1230 1.419 . S
C1232 C1233 1.362 . S
C1233 H1223 0.930 . S
C1233 C1226 1.409 . S
C1233 C1232 1.362 . S
H1234 C1240 0.930 . S
H1235 C1243 0.930 . S
H1236 C1244 0.930 . S
H1237 C1245 0.930 . S
H1238 C1248 0.930 . S
H1239 C1249 0.930 . S
C1240 H1234 0.930 . S
C1240 C1241 1.355 . S
C1240 C1242 1.415 . S
C1241 C1240 1.355 . S
C1241 C1243 1.419 . S
C1242 C1240 1.415 . S
C1242 C1247 1.425 . S
C1242 C1249 1.409 . S
C1243 H1235 0.930 . S
C1243 C1241 1.419 . S
C1243 C1244 1.362 . S
C1244 H1236 0.930 . S
C1244 C1243 1.362 . S
C1244 C1247 1.409 . S
C1245 H1237 0.930 . S
C1245 C1246 1.355 . S
C1245 C1247 1.415 . S
C1246 C1245 1.355 . S
C1246 C1248 1.419 . S
C1247 C1242 1.425 . S
C1247 C1244 1.409 . S
C1247 C1245 1.415 . S
C1248 H1238 0.930 . S
C1248 C1246 1.419 . S
C1248 C1249 1.362 . S
C1249 H1239 0.930 . S
C1249 C1242 1.409 . S
C1249 C1248 1.362 . S
H1250 C1256 0.930 . S
H1251 C1259 0.930 . S
H1252 C1260 0.930 . S
H1253 C1261 0.930 . S
H1254 C1264 0.930 . S
H1255 C1265 0.930 . S
C1256 H1250 0.930 . S
C1256 C1257 1.355 . S
C1256 C1258 1.415 . S
C1257 C1256 1.355 . S
C1257 C1259 1.419 . S
C1258 C1256 1.415 . S
C1258 C1263 1.425 . S
C1258 C1265 1.409 . S
C1259 H1251 0.930 . S
C1259 C1257 1.419 . S
C1259 C1260 1.362 . S
C1260 H1252 0.930 . S
C1260 C1259 1.362 . S
C1260 C1263 1.409 . S
C1261 H1253 0.930 . S
C1261 C1262 1.355 . S
C1261 C1263 1.415 . S
C1262 C1261 1.355 . S
C1262 C1264 1.419 . S
C1263 C1258 1.425 . S
C1263 C1260 1.409 . S
C1263 C1261 1.415 . S
C1264 H1254 0.930 . S
C1264 C1262 1.419 . S
C1264 C1265 1.362 . S
C1265 H1255 0.930 . S
C1265 C1258 1.409 . S
C1265 C1264 1.362 . S
H1266 C1272 0.930 . S
H1267 C1275 0.930 . S
H1268 C1276 0.930 . S
H1269 C1277 0.930 . S
H1270 C1280 0.930 . S
H1271 C1281 0.930 . S
C1272 H1266 0.930 . S
C1272 C1273 1.355 . S
C1272 C1274 1.415 . S
C1273 C1272 1.355 . S
C1273 C1275 1.419 . S
C1274 C1272 1.415 . S
C1274 C1279 1.425 . S
C1274 C1281 1.409 . S
C1275 H1267 0.930 . S
C1275 C1273 1.419 . S
C1275 C1276 1.362 . S
C1276 H1268 0.930 . S
C1276 C1275 1.362 . S
C1276 C1279 1.409 . S
C1277 H1269 0.930 . S
C1277 C1278 1.355 . S
C1277 C1279 1.415 . S
C1278 C1277 1.355 . S
C1278 C1280 1.419 . S
C1279 C1274 1.425 . S
C1279 C1276 1.409 . S
C1279 C1277 1.415 . S
C1280 H1270 0.930 . S
C1280 C1278 1.419 . S
C1280 C1281 1.362 . S
C1281 H1271 0.930 . S
C1281 C1274 1.409 . S
C1281 C1280 1.362 . S
H1282 C1288 0.930 . S
H1283 C1291 0.930 . S
H1284 C1292 0.930 . S
H1285 C1293 0.930 . S
H1286 C1296 0.930 . S
H1287 C1297 0.930 . S
C1288 H1282 0.930 . S
C1288 C1289 1.355 . S
C1288 C1290 1.415 . S
C1289 C1288 1.355 . S
C1289 C1291 1.419 . S
C1290 C1288 1.415 . S
C1290 C1295 1.425 . S
C1290 C1297 1.409 . S
C1291 H1283 0.930 . S
C1291 C1289 1.419 . S
C1291 C1292 1.362 . S
C1292 H1284 0.930 . S
C1292 C1291 1.362 . S
C1292 C1295 1.409 . S
C1293 H1285 0.930 . S
C1293 C1294 1.355 . S
C1293 C1295 1.415 . S
C1294 C1293 1.355 . S
C1294 C1296 1.419 . S
C1295 C1290 1.425 . S
C1295 C1292 1.409 . S
C1295 C1293 1.415 . S
C1296 H1286 0.930 . S
C1296 C1294 1.419 . S
C1296 C1297 1.362 . S
C1297 H1287 0.930 . S
C1297 C1290 1.409 . S
C1297 C1296 1.362 . S
H1298 C1304 0.930 . S
H1299 C1307 0.930 . S
H1300 C1308 0.930 . S
H1301 C1309 0.930 . S
H1302 C1312 0.930 . S
H1303 C1313 0.930 . S
C1304 H1298 0.930 . S
C1304 C1305 1.355 . S
C1304 C1306 1.415 . S
C1305 C1304 1.355 . S
C1305 C1307 1.419 . S
C1306 C1304 1.415 . S
C1306 C1311 1.425 . S
C1306 C1313 1.409 . S
C1307 H1299 0.930 . S
C1307 C1305 1.419 . S
C1307 C1308 1.362 . S
C1308 H1300 0.930 . S
C1308 C1307 1.362 . S
C1308 C1311 1.409 . S
C1309 H1301 0.930 . S
C1309 C1310 1.355 . S
C1309 C1311 1.415 . S
C1310 C1309 1.355 . S
C1310 C1312 1.419 . S
C1311 C1306 1.425 . S
C1311 C1308 1.409 . S
C1311 C1309 1.415 . S
C1312 H1302 0.930 . S
C1312 C1310 1.419 . S
C1312 C1313 1.362 . S
C1313 H1303 0.930 . S
C1313 C1306 1.409 . S
C1313 C1312 1.362 . S
H1314 C1320 0.930 . S
H1315 C1323 0.930 . S
H1316 C1324 0.930 . S
H1317 C1325 0.930 . S
H1318 C1328 0.930 . S
H1319 C1329 0.930 . S
C1320 H1314 0.930 . S
C1320 C1321 1.355 . S
C1320 C1322 1.415 . S
C1321 C1320 1.355 . S
C1321 C1323 1.419 . S
C1322 C1320 1.415 . S
C1322 C1327 1.425 . S
C1322 C1329 1.409 . S
C1323 H1315 0.930 . S
C1323 C1321 1.419 . S
C1323 C1324 1.362 . S
C1324 H1316 0.930 . S
C1324 C1323 1.362 . S
C1324 C1327 1.409 . S
C1325 H1317 0.930 . S
C1325 C1326 1.355 . S
C1325 C1327 1.415 . S
C1326 C1325 1.355 . S
C1326 C1328 1.419 . S
C1327 C1322 1.425 . S
C1327 C1324 1.409 . S
C1327 C1325 1.415 . S
C1328 H1318 0.930 . S
C1328 C1326 1.419 . S
C1328 C1329 1.362 . S
C1329 H1319 0.930 . S
C1329 C1322 1.409 . S
C1329 C1328 1.362 . S
H1330 C1336 0.930 . S
H1331 C1339 0.930 . S
H1332 C1340 0.930 . S
H1333 C1341 0.930 . S
H1334 C1344 0.930 . S
H1335 C1345 0.930 . S
C1336 H1330 0.930 . S
C1336 C1337 1.355 . S
C1336 C1338 1.415 . S
C1337 C1336 1.355 . S
C1337 C1339 1.419 . S
C1338 C1336 1.415 . S
C1338 C1343 1.425 . S
C1338 C1345 1.409 . S
C1339 H1331 0.930 . S
C1339 C1337 1.419 . S
C1339 C1340 1.362 . S
C1340 H1332 0.930 . S
C1340 C1339 1.362 . S
C1340 C1343 1.409 . S
C1341 H1333 0.930 . S
C1341 C1342 1.355 . S
C1341 C1343 1.415 . S
C1342 C1341 1.355 . S
C1342 C1344 1.419 . S
C1343 C1338 1.425 . S
C1343 C1340 1.409 . S
C1343 C1341 1.415 . S
C1344 H1334 0.930 . S
C1344 C1342 1.419 . S
C1344 C1345 1.362 . S
C1345 H1335 0.930 . S
C1345 C1338 1.409 . S
C1345 C1344 1.362 . S
H1346 C1352 0.930 . S
H1347 C1355 0.930 . S
H1348 C1356 0.930 . S
H1349 C1357 0.930 . S
H1350 C1360 0.930 . S
H1351 C1361 0.930 . S
C1352 H1346 0.930 . S
C1352 C1353 1.355 . S
C1352 C1354 1.415 . S
C1353 C1352 1.355 . S
C1353 C1355 1.419 . S
C1354 C1352 1.415 . S
C1354 C1359 1.425 . S
C1354 C1361 1.409 . S
C1355 H1347 0.930 . S
C1355 C1353 1.419 . S
C1355 C1356 1.362 . S
C1356 H1348 0.930 . S
C1356 C1355 1.362 . S
C1356 C1359 1.409 . S
C1357 H1349 0.930 . S
C1357 C1358 1.355 . S
C1357 C1359 1.415 . S
C1358 C1357 1.355 . S
C1358 C1360 1.419 . S
C1359 C1354 1.425 . S
C1359 C1356 1.409 . S
C1359 C1357 1.415 . S
C1360 H1350 0.930 . S
C1360 C1358 1.419 . S
C1360 C1361 1.362 . S
C1361 H1351 0.930 . S
C1361 C1354 1.409 . S
C1361 C1360 1.362 . S
H1362 C1368 0.930 . S
H1363 C1371 0.930 . S
H1364 C1372 0.930 . S
H1365 C1373 0.930 . S
H1366 C1376 0.930 . S
H1367 C1377 0.930 . S
C1368 H1362 0.930 . S
C1368 C1369 1.355 . S
C1368 C1370 1.415 . S
C1369 C1368 1.355 . S
C1369 C1371 1.419 . S
C1370 C1368 1.415 . S
C1370 C1375 1.425 . S
C1370 C1377 1.409 . S
C1371 H1363 0.930 . S
C1371 C1369 1.419 . S
C1371 C1372 1.362 . S
C1372 H1364 0.930 . S
C1372 C1371 1.362 . S
C1372 C1375 1.409 . S
C1373 H1365 0.930 . S
C1373 C1374 1.355 . S
C1373 C1375 1.415 . S
C1374 C1373 1.355 . S
C1374 C1376 1.419 . S
C1375 C1370 1.425 . S
C1375 C1372 1.409 . S
C1375 C1373 1.415 . S
C1376 H1366 0.930 . S
C1376 C1374 1.419 . S
C1376 C1377 1.362 . S
C1377 H1367 0.930 . S
C1377 C1370 1.409 . S
C1377 C1376 1.362 . S
H1378 C1384 0.930 . S
H1379 C1387 0.930 . S
H1380 C1388 0.930 . S
H1381 C1389 0.930 . S
H1382 C1392 0.930 . S
H1383 C1393 0.930 . S
C1384 H1378 0.930 . S
C1384 C1385 1.355 . S
C1384 C1386 1.415 . S
C1385 C1384 1.355 . S
C1385 C1387 1.419 . S
C1386 C1384 1.415 . S
C1386 C1391 1.425 . S
C1386 C1393 1.409 . S
C1387 H1379 0.930 . S
C1387 C1385 1.419 . S
C1387 C1388 1.362 . S
C1388 H1380 0.930 . S
C1388 C1387 1.362 . S
C1388 C1391 1.409 . S
C1389 H1381 0.930 . S
C1389 C1390 1.355 . S
C1389 C1391 1.415 . S
C1390 C1389 1.355 . S
C1390 C1392 1.419 . S
C1391 C1386 1.425 . S
C1391 C1388 1.409 . S
C1391 C1389 1.415 . S
C1392 H1382 0.930 . S
C1392 C1390 1.419 . S
C1392 C1393 1.362 . S
C1393 H1383 0.930 . S
C1393 C1386 1.409 . S
C1393 C1392 1.362 . S
H1394 C1400 0.930 . S
H1395 C1403 0.930 . S
H1396 C1404 0.930 . S
H1397 C1405 0.930 . S
H1398 C1408 0.930 . S
H1399 C1409 0.930 . S
C1400 H1394 0.930 . S
C1400 C1401 1.355 . S
C1400 C1402 1.415 . S
C1401 C1400 1.355 . S
C1401 C1403 1.419 . S
C1402 C1400 1.415 . S
C1402 C1407 1.425 . S
C1402 C1409 1.409 . S
C1403 H1395 0.930 . S
C1403 C1401 1.419 . S
C1403 C1404 1.362 . S
C1404 H1396 0.930 . S
C1404 C1403 1.362 . S
C1404 C1407 1.409 . S
C1405 H1397 0.930 . S
C1405 C1406 1.355 . S
C1405 C1407 1.415 . S
C1406 C1405 1.355 . S
C1406 C1408 1.419 . S
C1407 C1402 1.425 . S
C1407 C1404 1.409 . S
C1407 C1405 1.415 . S
C1408 H1398 0.930 . S
C1408 C1406 1.419 . S
C1408 C1409 1.362 . S
C1409 H1399 0.930 . S
C1409 C1402 1.409 . S
C1409 C1408 1.362 . S
H1410 C1416 0.930 . S
H1411 C1419 0.930 . S
H1412 C1420 0.930 . S
H1413 C1421 0.930 . S
H1414 C1424 0.930 . S
H1415 C1425 0.930 . S
C1416 H1410 0.930 . S
C1416 C1417 1.355 . S
C1416 C1418 1.415 . S
C1417 C1416 1.355 . S
C1417 C1419 1.419 . S
C1418 C1416 1.415 . S
C1418 C1423 1.425 . S
C1418 C1425 1.409 . S
C1419 H1411 0.930 . S
C1419 C1417 1.419 . S
C1419 C1420 1.362 . S
C1420 H1412 0.930 . S
C1420 C1419 1.362 . S
C1420 C1423 1.409 . S
C1421 H1413 0.930 . S
C1421 C1422 1.355 . S
C1421 C1423 1.415 . S
C1422 C1421 1.355 . S
C1422 C1424 1.419 . S
C1423 C1418 1.425 . S
C1423 C1420 1.409 . S
C1423 C1421 1.415 . S
C1424 H1414 0.930 . S
C1424 C1422 1.419 . S
C1424 C1425 1.362 . S
C1425 H1415 0.930 . S
C1425 C1418 1.409 . S
C1425 C1424 1.362 . S
H1426 C1432 0.930 . S
H1427 C1435 0.930 . S
H1428 C1436 0.930 . S
H1429 C1437 0.930 . S
H1430 C1440 0.930 . S
H1431 C1441 0.930 . S
C1432 H1426 0.930 . S
C1432 C1433 1.355 . S
C1432 C1434 1.415 . S
C1433 C1432 1.355 . S
C1433 C1435 1.419 . S
C1434 C1432 1.415 . S
C1434 C1439 1.425 . S
C1434 C1441 1.409 . S
C1435 H1427 0.930 . S
C1435 C1433 1.419 . S
C1435 C1436 1.362 . S
C1436 H1428 0.930 . S
C1436 C1435 1.362 . S
C1436 C1439 1.409 . S
C1437 H1429 0.930 . S
C1437 C1438 1.355 . S
C1437 C1439 1.415 . S
C1438 C1437 1.355 . S
C1438 C1440 1.419 . S
C1439 C1434 1.425 . S
C1439 C1436 1.409 . S
C1439 C1437 1.415 . S
C1440 H1430 0.930 . S
C1440 C1438 1.419 . S
C1440 C1441 1.362 . S
C1441 H1431 0.930 . S
C1441 C1434 1.409 . S
C1441 C1440 1.362 . S
H1442 C1448 0.930 . S
H1443 C1451 0.930 . S
H1444 C1452 0.930 . S
H1445 C1453 0.930 . S
H1446 C1456 0.930 . S
H1447 C1457 0.930 . S
C1448 H1442 0.930 . S
C1448 C1449 1.355 . S
C1448 C1450 1.415 . S
C1449 C1448 1.355 . S
C1449 C1451 1.419 . S
C1450 C1448 1.415 . S
C1450 C1455 1.425 . S
C1450 C1457 1.409 . S
C1451 H1443 0.930 . S
C1451 C1449 1.419 . S
C1451 C1452 1.362 . S
C1452 H1444 0.930 . S
C1452 C1451 1.362 . S
C1452 C1455 1.409 . S
C1453 H1445 0.930 . S
C1453 C1454 1.355 . S
C1453 C1455 1.415 . S
C1454 C1453 1.355 . S
C1454 C1456 1.419 . S
C1455 C1450 1.425 . S
C1455 C1452 1.409 . S
C1455 C1453 1.415 . S
C1456 H1446 0.930 . S
C1456 C1454 1.419 . S
C1456 C1457 1.362 . S
C1457 H1447 0.930 . S
C1457 C1450 1.409 . S
C1457 C1456 1.362 . S
C601 N170 2.051 . S
C606 C246 2.088 . S
C617 N184 1.176 . S
C622 C286 1.179 . S
C633 N158 1.651 . S
C638 C316 1.658 . S
C649 N145 1.552 . S
C654 C276 1.514 1_556 S
C670 C326 0.892 . S
C665 N119 0.900 . S
C681 N131 1.811 . S
C686 C236 1.858 1_556 S
C702 C265 1.782 . S
C697 N144 1.753 . S
C718 C305 1.636 . S
C713 N118 1.667 . S
C729 N132 1.535 . S
C734 C331 1.576 . S
C745 N171 1.492 . S
C750 C291 1.496 . S
C761 N183 1.324 . S
C766 C345 1.351 . S
C782 C251 1.462 . S
C777 N157 1.460 . S
C798 C366 2.078 . S
C793 N14 2.010 . S
C809 N28 1.176 . S
C814 C406 1.178 . S
C825 N2 1.644 . S
C830 C436 1.622 . S
C841 N223 1.537 . S
C846 C396 1.536 . S
C857 N197 0.895 . S
C862 C446 0.902 . S
C873 N209 1.831 . S
C878 C356 1.845 . S
C889 N222 1.735 . S
C894 C385 1.749 . S
C905 N196 1.652 . S
C910 C425 1.663 . S
C926 C451 1.581 . S
C921 N210 1.543 . S
C937 N15 1.497 . S
C942 C411 1.469 . S
C958 C465 1.360 . S
C953 N27 1.320 . S
C969 N1 1.490 . S
C974 C371 1.474 . S
C990 C486 2.088 . S
C985 N92 2.051 . S
C1001 N106 1.180 . S
C1006 C526 1.173 . S
C1022 C556 1.626 . S
C1017 N80 1.656 . S
C1038 C516 1.514 . S
C1033 N67 1.532 . S
C1054 C566 0.897 . S
C1049 N41 0.903 . S
C1065 N53 1.805 . S
C1070 C476 1.858 . S
C1081 N66 1.728 . S
C1086 C505 1.755 . S
C1097 N40 1.659 . S
C1102 C545 1.653 . S
C1118 C571 1.558 . S
C1113 N54 1.576 . S
C1129 N93 1.499 . S
C1134 C531 1.484 . S
C1145 N105 1.360 . S
C1150 C585 1.338 . S
C1161 N79 1.473 . S
C1166 C491 1.443 . S
C1177 N200 1.116 . S
C1182 C263 1.118 . S
C1198 C303 1.921 . S
C1193 N213 1.933 . S
C1209 N226 1.574 . S
C1214 C322 1.598 . S
C1225 N83 1.791 . S
C1230 C282 1.787 . S
C1241 N96 1.776 . S
C1246 C343 1.807 . S
C1262 C242 1.228 . S
C1257 N109 1.254 . S
C1273 N44 1.099 . S
C1278 C383 1.115 . S
C1289 N57 1.922 . S
C1294 C423 1.958 . S
C1305 N70 1.577 . S
C1310 C442 1.597 . S
C1321 N161 1.781 . S
C1326 C402 1.774 . S
C1342 C463 1.797 . S
C1337 N174 1.790 . S
C1353 N187 1.271 . S
C1358 C362 1.198 . S
C1369 N122 1.075 . S
C1374 C503 1.102 . S
C1385 N135 1.945 . S
C1390 C543 1.958 . S
C1406 C562 1.593 . S
C1401 N148 1.565 . S
C1417 N5 1.807 . S
C1422 C522 1.737 . S
C1433 N18 1.742 . S
C1438 C583 1.794 . S
C1449 N31 1.272 . S
C1454 C482 1.190 . S
