# Generated by pormake.
# Topology hwx, (6,3)-cn, num edge types: 1
# Building blocks:
#     Node 0, Type 0, BuildingBlock: IZENUY_clean_sbu_0, # of connection points: 6
#     Node 1, Type 0, BuildingBlock: IZENUY_clean_sbu_0, # of connection points: 6
#     Node 2, Type 0, BuildingBlock: IZENUY_clean_sbu_0, # of connection points: 6
#     Node 3, Type 0, BuildingBlock: IZENUY_clean_sbu_0, # of connection points: 6
#     Node 4, Type 1, BuildingBlock: INOVEN_clean_linker_0, # of connection points: 3
#     Node 5, Type 1, BuildingBlock: INOVEN_clean_linker_0, # of connection points: 3
#     Node 6, Type 1, BuildingBlock: INOVEN_clean_linker_0, # of connection points: 3
#     Node 7, Type 1, BuildingBlock: INOVEN_clean_linker_0, # of connection points: 3
#     Node 8, Type 1, BuildingBlock: INOVEN_clean_linker_0, # of connection points: 3
#     Node 9, Type 1, BuildingBlock: INOVEN_clean_linker_0, # of connection points: 3
#     Node 10, Type 1, BuildingBlock: INOVEN_clean_linker_0, # of connection points: 3
#     Node 11, Type 1, BuildingBlock: INOVEN_clean_linker_0, # of connection points: 3
#     Edge 12, Type (0, 1), BuildingBlock: OJICUG_clean_linker_0, # of connection points: 2
#     Edge 13, Type (0, 1), BuildingBlock: OJICUG_clean_linker_0, # of connection points: 2
#     Edge 14, Type (0, 1), BuildingBlock: OJICUG_clean_linker_0, # of connection points: 2
#     Edge 15, Type (0, 1), BuildingBlock: OJICUG_clean_linker_0, # of connection points: 2
#     Edge 16, Type (0, 1), BuildingBlock: OJICUG_clean_linker_0, # of connection points: 2
#     Edge 17, Type (0, 1), BuildingBlock: OJICUG_clean_linker_0, # of connection points: 2
#     Edge 18, Type (0, 1), BuildingBlock: OJICUG_clean_linker_0, # of connection points: 2
#     Edge 19, Type (0, 1), BuildingBlock: OJICUG_clean_linker_0, # of connection points: 2
#     Edge 20, Type (0, 1), BuildingBlock: OJICUG_clean_linker_0, # of connection points: 2
#     Edge 21, Type (0, 1), BuildingBlock: OJICUG_clean_linker_0, # of connection points: 2
#     Edge 22, Type (0, 1), BuildingBlock: OJICUG_clean_linker_0, # of connection points: 2
#     Edge 23, Type (0, 1), BuildingBlock: OJICUG_clean_linker_0, # of connection points: 2
#     Edge 24, Type (0, 1), BuildingBlock: OJICUG_clean_linker_0, # of connection points: 2
#     Edge 25, Type (0, 1), BuildingBlock: OJICUG_clean_linker_0, # of connection points: 2
#     Edge 26, Type (0, 1), BuildingBlock: OJICUG_clean_linker_0, # of connection points: 2
#     Edge 27, Type (0, 1), BuildingBlock: OJICUG_clean_linker_0, # of connection points: 2
#     Edge 28, Type (0, 1), BuildingBlock: OJICUG_clean_linker_0, # of connection points: 2
#     Edge 29, Type (0, 1), BuildingBlock: OJICUG_clean_linker_0, # of connection points: 2
#     Edge 30, Type (0, 1), BuildingBlock: OJICUG_clean_linker_0, # of connection points: 2
#     Edge 31, Type (0, 1), BuildingBlock: OJICUG_clean_linker_0, # of connection points: 2
#     Edge 32, Type (0, 1), BuildingBlock: OJICUG_clean_linker_0, # of connection points: 2
#     Edge 33, Type (0, 1), BuildingBlock: OJICUG_clean_linker_0, # of connection points: 2
#     Edge 34, Type (0, 1), BuildingBlock: OJICUG_clean_linker_0, # of connection points: 2
#     Edge 35, Type (0, 1), BuildingBlock: OJICUG_clean_linker_0, # of connection points: 2
# Relax obj value: 0.005
# Max RMSD: 0.053
# Mean RMSD: 0.045
data_MOF--net-hwx--node1-IZENUY_clean_sbu_0--node2-INOVEN_clean_linker_0--edge1-OJICUG_clean_linker_0
_symmetry_space_group_name_H-M    P1
_symmetry_Int_Tables_number       1
_symmetry_cell_setting            triclinic
loop_
_symmetry_equiv_pos_as_xyz
'x, y, z'
_cell_length_a     37.326447
_cell_length_b     37.339284
_cell_length_c     15.224151
_cell_angle_alpha  92.622222
_cell_angle_beta   92.626579
_cell_angle_gamma 90.247488
loop_
_atom_site_label
_atom_site_type_symbol
_atom_site_fract_x
_atom_site_fract_y
_atom_site_fract_z
_atom_type_partial_charge
Fe0 Fe 0.25505 0.25767 0.10977 0.0
Fe1 Fe 0.25234 0.25931 0.90889 0.0
O2 O 0.23682 0.24149 0.0061 0.0
Fe3 Fe 0.20316 0.20758 -0.00048 0.0
O4 O 0.17312 0.23512 0.06405 0.0
O5 O 0.21363 0.25207 0.16709 0.0
O6 O 0.24056 0.30305 0.08992 0.0
C7 C 0.24902 0.32043 0.02479 0.0
C8 C 0.25109 0.18579 0.1368 0.0
O9 O 0.26151 0.30447 0.95783 0.0
C10 C 0.24288 0.18537 0.86193 0.0
O11 O 0.29989 0.26623 0.07121 0.0
O12 O 0.29797 0.24477 0.9343 0.0
O13 O 0.22051 0.18483 0.097 0.0
O14 O 0.27068 0.21341 0.13668 0.0
C15 C 0.18041 0.25486 0.86693 0.0
O16 O 0.24561 0.21771 0.84167 0.0
O17 O 0.23071 0.17742 0.93439 0.0
C18 C 0.31556 0.25331 0.00507 0.0
O19 O 0.20781 0.27483 0.87746 0.0
O20 O 0.17977 0.22444 0.90074 0.0
C21 C 0.18131 0.24968 0.13866 0.0
Fe22 Fe 0.25949 0.7576 0.6079 0.0
Fe23 Fe 0.3107 0.70817 0.50672 0.0
O24 O 0.27695 0.74174 0.50717 0.0
Fe25 Fe 0.26071 0.75939 0.40701 0.0
O26 O 0.25304 0.80475 0.4538 0.0
O27 O 0.27346 0.80326 0.59118 0.0
O28 O 0.30166 0.75272 0.67194 0.0
C29 C 0.33376 0.75097 0.6488 0.0
C30 C 0.1979 0.75364 0.49187 0.0
O31 O 0.34135 0.73643 0.57562 0.0
C32 C 0.26766 0.68515 0.36489 0.0
O33 O 0.24438 0.71302 0.63203 0.0
O34 O 0.29461 0.68557 0.60231 0.0
O35 O 0.21507 0.74538 0.42458 0.0
O36 O 0.21406 0.76556 0.56211 0.0
C37 C 0.33228 0.75468 0.37622 0.0
O38 O 0.28248 0.67753 0.43777 0.0
O39 O 0.26534 0.71731 0.34235 0.0
C40 C 0.26442 0.686 0.63709 0.0
O41 O 0.33302 0.72452 0.41104 0.0
O42 O 0.30516 0.77458 0.38183 0.0
C43 C 0.26514 0.82065 0.52429 0.0
Fe44 Fe 0.76167 0.76783 0.91055 0.0
Fe45 Fe 0.75849 0.76857 0.11105 0.0
O46 O 0.77702 0.78515 0.01586 0.0
Fe47 Fe 0.81078 0.81895 0.02553 0.0
O48 O 0.78344 0.84941 0.96134 0.0
O49 O 0.76893 0.80949 0.85522 0.0
O50 O 0.71616 0.7827 0.92856 0.0
C51 C 0.69821 0.77396 0.99271 0.0
C52 C 0.83363 0.77196 0.88696 0.0
O53 O 0.71355 0.76076 0.05966 0.0
C54 C 0.83238 0.77632 0.15942 0.0
O55 O 0.75188 0.72269 0.94581 0.0
O56 O 0.7726 0.72315 0.08293 0.0
O57 O 0.83429 0.80229 0.92821 0.0
O58 O 0.80616 0.75206 0.88621 0.0
C59 C 0.7628 0.84037 0.15711 0.0
O60 O 0.79998 0.77344 0.17938 0.0
O61 O 0.84062 0.79117 0.09037 0.0
C62 C 0.76415 0.70625 0.01133 0.0
O63 O 0.74318 0.81279 0.14587 0.0
O64 O 0.79337 0.84144 0.1244 0.0
C65 C 0.7715 0.84171 0.88405 0.0
Fe66 Fe 0.70312 0.31866 0.50626 0.0
Fe67 Fe 0.75387 0.26879 0.60785 0.0
O68 O 0.73673 0.28498 0.50683 0.0
Fe69 Fe 0.75323 0.26745 0.40654 0.0
O70 O 0.74874 0.30948 0.35045 0.0
O71 O 0.73149 0.34926 0.45072 0.0
O72 O 0.71932 0.34115 0.61065 0.0
C73 C 0.74948 0.34045 0.65232 0.0
C74 C 0.68165 0.2722 0.36015 0.0
O75 O 0.76928 0.31322 0.64593 0.0
C76 C 0.74793 0.20609 0.50768 0.0
O77 O 0.67227 0.29049 0.56172 0.0
O78 O 0.7118 0.27399 0.6633 0.0
O79 O 0.70883 0.25236 0.36723 0.0
O80 O 0.68082 0.30234 0.40177 0.0
C81 C 0.81568 0.27285 0.50807 0.0
O82 O 0.73951 0.22327 0.57687 0.0
O83 O 0.76072 0.22212 0.4446 0.0
C84 C 0.67977 0.27581 0.6332 0.0
O85 O 0.7992 0.2605 0.5709 0.0
O86 O 0.79885 0.2814 0.43849 0.0
C87 C 0.74647 0.3416 0.3797 0.0
H88 H 0.24493 0.53466 0.84141 0.0
H89 H 0.24217 0.63443 0.9927 0.0
H90 H 0.24322 0.53509 0.12445 0.0
N91 N 0.24483 0.49227 0.97575 0.0
N92 N 0.24186 0.47381 0.0414 0.0
C93 C 0.2439 0.54927 0.90441 0.0
C94 C 0.24246 0.58688 0.90792 0.0
C95 C 0.24369 0.53034 0.98203 0.0
C96 C 0.24292 0.5494 0.06411 0.0
C97 C 0.24198 0.58702 0.06837 0.0
C98 C 0.24155 0.60536 0.98992 0.0
H99 H 0.98433 0.75189 0.67582 0.0
H100 H 0.88379 0.75073 0.52721 0.0
H101 H 0.98246 0.75079 0.39232 0.0
N102 N 0.02602 0.75151 0.54039 0.0
N103 N 0.04426 0.74841 0.47378 0.0
C104 C 0.96939 0.75121 0.613 0.0
C105 C 0.93178 0.75023 0.61032 0.0
C106 C 0.98792 0.75093 0.53474 0.0
C107 C 0.96844 0.75058 0.45302 0.0
C108 C 0.93075 0.75013 0.44976 0.0
C109 C 0.91285 0.74977 0.52876 0.0
H110 H 0.77243 0.49111 0.17824 0.0
H111 H 0.77215 0.39181 0.02359 0.0
H112 H 0.77093 0.49174 0.89504 0.0
N113 N 0.7715 0.53389 0.04637 0.0
N114 N 0.7687 0.55296 0.9813 0.0
C115 C 0.77247 0.47665 0.11487 0.0
C116 C 0.77288 0.43907 0.11042 0.0
C117 C 0.77196 0.49588 0.03789 0.0
C118 C 0.77164 0.4772 0.95506 0.0
C119 C 0.77254 0.43954 0.94997 0.0
C120 C 0.77312 0.42088 0.02778 0.0
H121 H 0.03189 0.2771 0.34381 0.0
H122 H 0.13045 0.27578 0.50155 0.0
H123 H 0.02981 0.27689 0.6267 0.0
N124 N 0.98836 0.27758 0.47452 0.0
N125 N 0.96906 0.27574 0.53891 0.0
C126 C 0.04604 0.27714 0.4076 0.0
C127 C 0.08365 0.27691 0.41328 0.0
C128 C 0.02638 0.27734 0.48392 0.0
C129 C 0.04465 0.27705 0.5672 0.0
C130 C 0.0823 0.27732 0.57355 0.0
C131 C 0.10141 0.27719 0.49652 0.0
H132 H 0.74979 0.99003 0.67522 0.0
H133 H 0.7436 0.89166 0.51659 0.0
H134 H 0.73677 0.99234 0.39261 0.0
N135 N 0.74194 0.03368 0.5449 0.0
N136 N 0.74213 0.05283 0.47991 0.0
C137 C 0.74615 0.97594 0.61159 0.0
C138 C 0.74769 0.93837 0.60513 0.0
C139 C 0.74188 0.99566 0.53554 0.0
C140 C 0.73905 0.97747 0.45205 0.0
C141 C 0.73926 0.93986 0.44539 0.0
C142 C 0.74289 0.92071 0.52209 0.0
H143 H 0.53053 0.24804 0.83457 0.0
H144 H 0.63006 0.24979 0.98852 0.0
H145 H 0.5303 0.24902 0.11782 0.0
N146 N 0.48791 0.24782 0.96664 0.0
N147 N 0.4689 0.24946 0.03192 0.0
C148 C 0.54507 0.24816 0.89787 0.0
C149 C 0.58265 0.2484 0.90211 0.0
C150 C 0.52595 0.24812 0.97494 0.0
C151 C 0.54476 0.24868 0.05769 0.0
C152 C 0.58245 0.2485 0.06254 0.0
C153 C 0.601 0.24836 0.98459 0.0
H154 H 0.27553 0.03372 0.34432 0.0
H155 H 0.27062 0.13456 0.48983 0.0
H156 H 0.26244 0.03631 0.62445 0.0
N157 N 0.27031 0.99246 0.47898 0.0
N158 N 0.27095 0.9742 0.54568 0.0
C159 C 0.27359 0.04882 0.40643 0.0
C160 C 0.27398 0.08639 0.40842 0.0
C161 C 0.27063 0.03053 0.48438 0.0
C162 C 0.26645 0.0502 0.56472 0.0
C163 C 0.26555 0.08786 0.56666 0.0
C164 C 0.27077 0.1055 0.48878 0.0
H165 H 0.48358 0.77621 0.17259 0.0
H166 H 0.38393 0.77716 0.02019 0.0
H167 H 0.48352 0.77779 0.88955 0.0
N168 N 0.52618 0.77704 0.03865 0.0
N169 N 0.54473 0.78038 0.97326 0.0
C170 C 0.46903 0.77695 0.10944 0.0
C171 C 0.43137 0.7777 0.10553 0.0
C172 C 0.48809 0.7775 0.032 0.0
C173 C 0.46913 0.77786 0.94975 0.0
C174 C 0.43148 0.77813 0.94512 0.0
C175 C 0.413 0.77826 0.02333 0.0
C176 C 0.16106 0.28706 0.26563 0.0
C177 C 0.1532 0.26055 0.19913 0.0
H178 H 0.1445 0.31401 0.38352 0.0
C179 C 0.11983 0.24289 0.19645 0.0
H180 H 0.18631 0.3016 0.26819 0.0
C181 C 0.09596 0.24968 0.26355 0.0
C182 C 0.10506 0.27446 0.33353 0.0
H183 H 0.11311 0.22239 0.14566 0.0
H184 H 0.07144 0.23405 0.26335 0.0
C185 C 0.13715 0.29413 0.33168 0.0
C186 C 0.27767 0.62713 0.70516 0.0
C187 C 0.25531 0.65718 0.6964 0.0
H188 H 0.29077 0.58087 0.77863 0.0
C189 C 0.22578 0.66081 0.75014 0.0
H190 H 0.30047 0.62332 0.66427 0.0
C191 C 0.22032 0.6365 0.81534 0.0
C192 C 0.24404 0.60785 0.8278 0.0
H193 H 0.20779 0.68337 0.74476 0.0
H194 H 0.19836 0.64094 0.85862 0.0
C195 C 0.27201 0.60263 0.77012 0.0
C196 C 0.89391 0.78357 0.23232 0.0
C197 C 0.86062 0.76571 0.22397 0.0
H198 H 0.9424 0.79282 0.31142 0.0
C199 C 0.85311 0.73917 0.28295 0.0
H200 H 0.9004 0.80409 0.18746 0.0
C201 C 0.87729 0.73225 0.35244 0.0
C202 C 0.90928 0.75216 0.36554 0.0
H203 H 0.82795 0.72446 0.27697 0.0
H204 H 0.87019 0.71232 0.39829 0.0
C205 C 0.91801 0.77698 0.30295 0.0
C206 C 0.73671 0.39948 0.73063 0.0
C207 C 0.75887 0.36928 0.71995 0.0
H208 H 0.72407 0.44588 0.81163 0.0
C209 C 0.78853 0.36555 0.77907 0.0
H210 H 0.71383 0.40338 0.68581 0.0
C211 C 0.7943 0.38989 0.85078 0.0
C212 C 0.77077 0.41868 0.86461 0.0
H213 H 0.80638 0.34289 0.7725 0.0
H214 H 0.81632 0.38535 0.89774 0.0
C215 C 0.74269 0.42402 0.8022 0.0
C216 C 0.6225 0.28461 0.28175 0.0
C217 C 0.65291 0.26272 0.29228 0.0
H218 H 0.57586 0.29686 0.20102 0.0
C219 C 0.65687 0.23317 0.23296 0.0
H220 H 0.61842 0.3074 0.3267 0.0
C221 C 0.63251 0.22724 0.16132 0.0
C222 C 0.60344 0.25046 0.14776 0.0
H223 H 0.67971 0.21553 0.23937 0.0
H224 H 0.63722 0.20531 0.11423 0.0
C225 C 0.59792 0.27845 0.21027 0.0
C226 C 0.26698 0.12676 0.80267 0.0
C227 C 0.24595 0.15746 0.79156 0.0
H228 H 0.29037 0.08045 0.73894 0.0
C229 C 0.22875 0.16288 0.70963 0.0
H230 H 0.28031 0.12211 0.86579 0.0
C231 C 0.23367 0.139 0.63864 0.0
C232 C 0.25679 0.10958 0.647 0.0
H233 H 0.21177 0.186 0.70015 0.0
H234 H 0.22002 0.14417 0.57621 0.0
C235 C 0.27259 0.10299 0.73043 0.0
C236 C 0.35695 0.79341 0.26261 0.0
C237 C 0.36096 0.76403 0.31668 0.0
H238 H 0.37653 0.82097 0.154 0.0
C239 C 0.39132 0.74207 0.3082 0.0
H240 H 0.33413 0.81109 0.26772 0.0
C241 C 0.41582 0.74801 0.24334 0.0
C242 C 0.41027 0.77584 0.18543 0.0
H243 H 0.39543 0.71939 0.34932 0.0
H244 H 0.43786 0.72956 0.23513 0.0
C245 C 0.38124 0.79913 0.19748 0.0
C246 C 0.78606 0.8646 0.74088 0.0
C247 C 0.7685 0.86972 0.81973 0.0
H248 H 0.79449 0.8832 0.61334 0.0
C249 C 0.74663 0.89985 0.83227 0.0
H250 H 0.80359 0.84185 0.73059 0.0
C251 C 0.74059 0.92332 0.76371 0.0
C252 C 0.75673 0.91693 0.68271 0.0
H253 H 0.73293 0.90419 0.89302 0.0
H254 H 0.72221 0.9454 0.77264 0.0
C255 C 0.78063 0.88815 0.67366 0.0
C256 C 0.85863 0.73302 0.76636 0.0
C257 C 0.86248 0.76278 0.82612 0.0
H258 H 0.87803 0.70558 0.65159 0.0
C259 C 0.89256 0.78542 0.82156 0.0
H260 H 0.83604 0.71482 0.76831 0.0
C261 C 0.91683 0.77983 0.75492 0.0
C262 C 0.9113 0.75167 0.69145 0.0
H263 H 0.89651 0.80841 0.86703 0.0
H264 H 0.93859 0.7988 0.7498 0.0
C265 C 0.88269 0.72766 0.69952 0.0
C266 C 0.78442 0.36288 0.26295 0.0
C267 C 0.75756 0.37012 0.32273 0.0
H268 H 0.81125 0.37977 0.15091 0.0
C269 C 0.73938 0.40294 0.3205 0.0
H270 H 0.79932 0.33805 0.26435 0.0
C271 C 0.74591 0.42675 0.25446 0.0
C272 C 0.77092 0.41811 0.1905 0.0
H273 H 0.71857 0.40915 0.36601 0.0
H274 H 0.72982 0.45073 0.25022 0.0
C275 C 0.79121 0.38672 0.19796 0.0
C276 C 0.15544 0.29409 0.74999 0.0
C277 C 0.15156 0.26422 0.80183 0.0
H278 H 0.13607 0.32179 0.63739 0.0
C279 C 0.12139 0.2417 0.7853 0.0
H280 H 0.1781 0.3122 0.76121 0.0
C281 C 0.09707 0.24752 0.71467 0.0
C282 C 0.10265 0.27579 0.65911 0.0
H283 H 0.1174 0.21863 0.82443 0.0
H284 H 0.07525 0.22863 0.70021 0.0
C285 C 0.13135 0.29967 0.67915 0.0
C286 C 0.22987 0.6634 0.23479 0.0
C287 C 0.25682 0.65651 0.299 0.0
H288 H 0.20302 0.646 0.11335 0.0
C289 C 0.27521 0.62377 0.29387 0.0
H290 H 0.21481 0.68814 0.23812 0.0
C291 C 0.2688 0.59974 0.22135 0.0
C292 C 0.24367 0.60803 0.15367 0.0
H293 H 0.29608 0.61781 0.34273 0.0
H294 H 0.28509 0.57589 0.21561 0.0
C295 C 0.22316 0.6393 0.16335 0.0
C296 C 0.35523 0.7893 0.77799 0.0
C297 C 0.36238 0.76223 0.71431 0.0
H298 H 0.37232 0.81654 0.89915 0.0
C299 C 0.39525 0.74411 0.71987 0.0
H300 H 0.33037 0.80415 0.77429 0.0
C301 C 0.41919 0.75089 0.79242 0.0
C302 C 0.41064 0.77611 0.85965 0.0
H303 H 0.40139 0.72315 0.6714 0.0
H304 H 0.44318 0.73482 0.79862 0.0
C305 C 0.37922 0.79636 0.84947 0.0
C306 C 0.72305 0.86514 0.27334 0.0
C307 C 0.75245 0.86952 0.22024 0.0
H308 H 0.69545 0.88465 0.38607 0.0
C309 C 0.77361 0.90081 0.23319 0.0
H310 H 0.70595 0.84161 0.26469 0.0
C311 C 0.7672 0.9257 0.30212 0.0
C312 C 0.7397 0.91962 0.35955 0.0
H313 H 0.79619 0.90525 0.19275 0.0
H314 H 0.78534 0.94829 0.31431 0.0
C315 C 0.71687 0.88985 0.34259 0.0
C316 C 0.65855 0.2374 0.74883 0.0
C317 C 0.65121 0.26445 0.68966 0.0
H318 H 0.64188 0.21026 0.86059 0.0
C319 C 0.61837 0.28258 0.69237 0.0
H320 H 0.68342 0.22255 0.74701 0.0
C321 C 0.59465 0.2758 0.75845 0.0
C322 C 0.60344 0.25063 0.8219 0.0
H323 H 0.61212 0.30353 0.64731 0.0
H324 H 0.57064 0.29182 0.7632 0.0
C325 C 0.63483 0.2304 0.81387 0.0
C326 C 0.29067 0.16096 0.25659 0.0
C327 C 0.26133 0.15662 0.1957 0.0
H328 H 0.31805 0.14147 0.37146 0.0
C329 C 0.24006 0.12542 0.19686 0.0
H330 H 0.30786 0.18442 0.25707 0.0
C331 C 0.24626 0.10059 0.26186 0.0
C332 C 0.27369 0.10665 0.32706 0.0
H333 H 0.21751 0.12102 0.1502 0.0
H334 H 0.22802 0.07808 0.26486 0.0
C335 C 0.29665 0.13631 0.3219 0.0
C336 C 0.23865 0.37914 0.10704 0.0
C337 C 0.24695 0.36012 0.02876 0.0
H338 H 0.23087 0.4308 0.17128 0.0
C339 C 0.25328 0.37946 0.95368 0.0
H340 H 0.23359 0.36514 0.16603 0.0
C341 C 0.25146 0.41687 0.95686 0.0
C342 C 0.24342 0.43577 0.03545 0.0
H343 H 0.25956 0.36569 0.89217 0.0
H344 H 0.25654 0.43094 0.89801 0.0
C345 C 0.23708 0.41662 0.11025 0.0
C346 C 0.13896 0.75809 0.56409 0.0
C347 C 0.15814 0.75185 0.48744 0.0
H348 H 0.08757 0.76182 0.62062 0.0
C349 C 0.1389 0.74414 0.40711 0.0
H350 H 0.15287 0.76395 0.62715 0.0
C351 C 0.10136 0.7431 0.40354 0.0
C352 C 0.08237 0.74939 0.47991 0.0
H353 H 0.15278 0.73918 0.34685 0.0
H354 H 0.08702 0.73735 0.34098 0.0
C355 C 0.10149 0.75681 0.56048 0.0
C356 C 0.76036 0.64808 0.92274 0.0
C357 C 0.76592 0.66658 0.00493 0.0
H358 H 0.75723 0.59698 0.85205 0.0
C359 C 0.77306 0.64677 0.08006 0.0
H360 H 0.75506 0.66247 0.86338 0.0
C361 C 0.77408 0.60929 0.07319 0.0
C362 C 0.76825 0.59097 0.99079 0.0
H363 H 0.77755 0.66017 0.14427 0.0
H364 H 0.77941 0.59473 0.13223 0.0
C365 C 0.76165 0.61068 0.91592 0.0
C366 C 0.87375 0.26947 0.59602 0.0
C367 C 0.85538 0.27457 0.51477 0.0
H368 H 0.92476 0.26618 0.66613 0.0
C369 C 0.87536 0.28089 0.44085 0.0
H370 H 0.85924 0.26482 0.65449 0.0
C371 C 0.91289 0.28142 0.44786 0.0
C372 C 0.93105 0.27594 0.52925 0.0
H373 H 0.86205 0.28499 0.3774 0.0
H374 H 0.92761 0.28603 0.38974 0.0
C375 C 0.91117 0.27029 0.60303 0.0
C376 C 0.74891 0.14775 0.42031 0.0
C377 C 0.74543 0.16645 0.50181 0.0
H378 H 0.75016 0.0965 0.35073 0.0
C379 C 0.73991 0.14684 0.57681 0.0
H380 H 0.75288 0.162 0.36108 0.0
C381 C 0.73865 0.10933 0.57057 0.0
C382 C 0.74251 0.09084 0.48889 0.0
H383 H 0.73704 0.16043 0.64049 0.0
H384 H 0.73474 0.09488 0.62948 0.0
C385 C 0.74727 0.11036 0.41406 0.0
C386 C 0.37481 0.24512 0.93428 0.0
C387 C 0.35522 0.25114 0.0102 0.0
H388 H 0.42681 0.24003 0.88088 0.0
C389 C 0.37395 0.25563 0.0924 0.0
H390 H 0.36121 0.24149 0.87008 0.0
C391 C 0.41134 0.25459 0.09851 0.0
C392 C 0.43087 0.2493 0.02293 0.0
H393 H 0.35973 0.26001 0.15237 0.0
H394 H 0.42519 0.25829 0.1624 0.0
C395 C 0.41236 0.24436 0.94047 0.0
C396 C 0.27344 0.87934 0.61091 0.0
C397 C 0.2671 0.86038 0.52962 0.0
H398 H 0.27924 0.93099 0.67861 0.0
C399 C 0.26243 0.8798 0.45292 0.0
H400 H 0.27715 0.86524 0.67126 0.0
C401 C 0.26394 0.91724 0.45738 0.0
C402 C 0.26994 0.9361 0.53888 0.0
H403 H 0.25767 0.86609 0.38918 0.0
H404 H 0.26013 0.93136 0.39713 0.0
C405 C 0.27462 0.91686 0.61535 0.0
C406 C 0.63968 0.78441 0.90914 0.0
C407 C 0.65852 0.77631 0.98781 0.0
H408 H 0.58808 0.79172 0.84392 0.0
C409 C 0.63898 0.77009 0.06264 0.0
H410 H 0.65386 0.78936 0.85034 0.0
C411 C 0.60156 0.77167 0.05882 0.0
C412 C 0.58281 0.77937 0.97982 0.0
H413 H 0.65258 0.76398 0.1245 0.0
H414 H 0.58738 0.76659 0.1175 0.0
C415 C 0.60215 0.78575 0.90528 0.0
loop_
_geom_bond_atom_site_label_1
_geom_bond_atom_site_label_2
_geom_bond_distance
_geom_bond_site_symmetry_2
_ccdc_geom_bond_type
Fe0 O2 1.918 . S
Fe0 O5 1.997 . S
Fe0 O6 2.002 . S
Fe0 O11 1.976 . S
Fe0 O14 1.996 . S
Fe1 O2 1.918 1_556 S
Fe1 O9 1.997 . S
Fe1 O12 1.996 . S
Fe1 O16 1.976 . S
Fe1 O19 2.002 . S
O2 Fe0 1.918 . S
O2 Fe1 1.918 1_554 S
O2 Fe3 1.918 1_554 S
Fe3 O2 1.918 1_556 S
Fe3 O4 1.998 1_556 S
Fe3 O13 1.971 1_556 S
Fe3 O17 2.001 . S
Fe3 O20 2.002 . S
O4 Fe3 1.998 1_554 S
O4 C21 1.295 . S
O5 Fe0 1.997 . S
O5 C21 1.235 . S
O6 Fe0 2.002 . S
O6 C7 1.295 . S
C7 O6 1.295 . S
C7 O9 1.235 1_554 S
C8 O13 1.287 . S
C8 O14 1.255 . S
O9 Fe1 1.997 . S
O9 C7 1.235 1_556 S
C10 O16 1.287 . S
C10 O17 1.255 . S
O11 Fe0 1.976 . S
O11 C18 1.287 . S
O12 Fe1 1.996 . S
O12 C18 1.255 1_556 S
O13 Fe3 1.971 1_554 S
O13 C8 1.287 . S
O14 Fe0 1.996 . S
O14 C8 1.255 . S
C15 O19 1.295 . S
C15 O20 1.235 . S
O16 Fe1 1.976 . S
O16 C10 1.287 . S
O17 Fe3 2.001 . S
O17 C10 1.255 . S
C18 O11 1.287 . S
C18 O12 1.255 1_554 S
O19 Fe1 2.002 . S
O19 C15 1.295 . S
O20 Fe3 2.002 . S
O20 C15 1.235 . S
C21 O4 1.295 . S
C21 O5 1.235 . S
Fe22 O24 1.918 . S
Fe22 O27 1.997 . S
Fe22 O28 2.002 . S
Fe22 O33 1.976 . S
Fe22 O36 1.996 . S
Fe23 O24 1.918 . S
Fe23 O31 1.997 . S
Fe23 O34 1.996 . S
Fe23 O38 1.976 . S
Fe23 O41 2.002 . S
O24 Fe22 1.918 . S
O24 Fe23 1.918 . S
O24 Fe25 1.918 . S
Fe25 O24 1.918 . S
Fe25 O26 2.002 . S
Fe25 O35 1.976 . S
Fe25 O39 1.996 . S
Fe25 O42 1.997 . S
O26 Fe25 2.002 . S
O26 C43 1.295 . S
O27 Fe22 1.997 . S
O27 C43 1.235 . S
O28 Fe22 2.002 . S
O28 C29 1.295 . S
C29 O28 1.295 . S
C29 O31 1.235 . S
C30 O35 1.287 . S
C30 O36 1.255 . S
O31 Fe23 1.997 . S
O31 C29 1.235 . S
C32 O38 1.287 . S
C32 O39 1.255 . S
O33 Fe22 1.976 . S
O33 C40 1.287 . S
O34 Fe23 1.996 . S
O34 C40 1.255 . S
O35 Fe25 1.976 . S
O35 C30 1.287 . S
O36 Fe22 1.996 . S
O36 C30 1.255 . S
C37 O41 1.295 . S
C37 O42 1.235 . S
O38 Fe23 1.976 . S
O38 C32 1.287 . S
O39 Fe25 1.996 . S
O39 C32 1.255 . S
C40 O33 1.287 . S
C40 O34 1.255 . S
O41 Fe23 2.002 . S
O41 C37 1.295 . S
O42 Fe25 1.997 . S
O42 C37 1.235 . S
C43 O26 1.295 . S
C43 O27 1.235 . S
Fe44 O46 1.918 1_556 S
Fe44 O49 1.997 . S
Fe44 O50 2.002 . S
Fe44 O55 1.976 . S
Fe44 O58 1.996 . S
Fe45 O46 1.918 . S
Fe45 O53 1.997 . S
Fe45 O56 1.996 . S
Fe45 O60 1.976 . S
Fe45 O63 2.002 . S
O46 Fe44 1.918 1_554 S
O46 Fe45 1.918 . S
O46 Fe47 1.918 . S
Fe47 O46 1.918 . S
Fe47 O48 2.002 1_554 S
Fe47 O57 1.976 1_554 S
Fe47 O61 1.996 . S
Fe47 O64 1.997 . S
O48 Fe47 2.002 1_556 S
O48 C65 1.295 . S
O49 Fe44 1.997 . S
O49 C65 1.235 . S
O50 Fe44 2.002 . S
O50 C51 1.295 1_556 S
C51 O50 1.295 1_554 S
C51 O53 1.235 . S
C52 O57 1.287 . S
C52 O58 1.255 . S
O53 Fe45 1.997 . S
O53 C51 1.235 . S
C54 O60 1.287 . S
C54 O61 1.255 . S
O55 Fe44 1.976 . S
O55 C62 1.287 1_556 S
O56 Fe45 1.996 . S
O56 C62 1.255 . S
O57 Fe47 1.976 1_556 S
O57 C52 1.287 . S
O58 Fe44 1.996 . S
O58 C52 1.255 . S
C59 O63 1.295 . S
C59 O64 1.235 . S
O60 Fe45 1.976 . S
O60 C54 1.287 . S
O61 Fe47 1.996 . S
O61 C54 1.255 . S
C62 O55 1.287 1_554 S
C62 O56 1.255 . S
O63 Fe45 2.002 . S
O63 C59 1.295 . S
O64 Fe47 1.997 . S
O64 C59 1.235 . S
C65 O48 1.295 . S
C65 O49 1.235 . S
Fe66 O68 1.918 . S
Fe66 O71 1.997 . S
Fe66 O72 2.002 . S
Fe66 O77 1.976 . S
Fe66 O80 1.996 . S
Fe67 O68 1.918 . S
Fe67 O75 1.997 . S
Fe67 O78 1.996 . S
Fe67 O82 1.976 . S
Fe67 O85 2.002 . S
O68 Fe66 1.918 . S
O68 Fe67 1.918 . S
O68 Fe69 1.918 . S
Fe69 O68 1.918 . S
Fe69 O70 2.002 . S
Fe69 O79 1.976 . S
Fe69 O83 1.996 . S
Fe69 O86 1.997 . S
O70 Fe69 2.002 . S
O70 C87 1.295 . S
O71 Fe66 1.997 . S
O71 C87 1.235 . S
O72 Fe66 2.002 . S
O72 C73 1.295 . S
C73 O72 1.295 . S
C73 O75 1.235 . S
C74 O79 1.287 . S
C74 O80 1.255 . S
O75 Fe67 1.997 . S
O75 C73 1.235 . S
C76 O82 1.287 . S
C76 O83 1.255 . S
O77 Fe66 1.976 . S
O77 C84 1.287 . S
O78 Fe67 1.996 . S
O78 C84 1.255 . S
O79 Fe69 1.976 . S
O79 C74 1.287 . S
O80 Fe66 1.996 . S
O80 C74 1.255 . S
C81 O85 1.295 . S
C81 O86 1.235 . S
O82 Fe67 1.976 . S
O82 C76 1.287 . S
O83 Fe69 1.996 . S
O83 C76 1.255 . S
C84 O77 1.287 . S
C84 O78 1.255 . S
O85 Fe67 2.002 . S
O85 C81 1.295 . S
O86 Fe69 1.997 . S
O86 C81 1.235 . S
C87 O70 1.295 . S
C87 O71 1.235 . S
H88 C93 0.929 . S
H89 C98 0.931 . S
H90 C96 0.930 . S
N91 N92 1.234 1_556 S
N91 C95 1.453 . S
N92 N91 1.234 1_554 S
C93 H88 0.929 . S
C93 C94 1.373 . S
C93 C95 1.368 . S
C94 C93 1.373 . S
C94 C98 1.397 1_556 S
C95 N91 1.453 . S
C95 C93 1.368 . S
C95 C96 1.373 1_556 S
C96 H90 0.930 . S
C96 C95 1.373 1_554 S
C96 C97 1.371 . S
C97 C96 1.371 . S
C97 C98 1.383 . S
C98 H89 0.931 . S
C98 C94 1.397 1_554 S
C98 C97 1.383 . S
H99 C104 0.929 . S
H100 C109 0.931 . S
H101 C107 0.917 1_455 S
N102 N103 1.234 . S
N102 C106 1.453 . S
N103 N102 1.234 . S
C104 H99 0.929 . S
C104 C105 1.373 . S
C104 C106 1.368 1_655 S
C105 C104 1.373 . S
C105 C109 1.397 . S
C106 N102 1.453 . S
C106 C104 1.368 1_455 S
C106 C107 1.373 1_455 S
C107 H101 0.917 1_655 S
C107 C106 1.373 1_655 S
C107 C108 1.371 . S
C108 C107 1.371 . S
C108 C109 1.383 . S
C109 H100 0.931 . S
C109 C105 1.397 . S
C109 C108 1.383 . S
H110 C115 0.929 . S
H111 C120 0.931 . S
H112 C118 0.930 . S
N113 N114 1.234 . S
N113 C117 1.453 . S
N114 N113 1.234 . S
C115 H110 0.929 . S
C115 C116 1.373 . S
C115 C117 1.368 . S
C116 C115 1.373 . S
C116 C120 1.397 . S
C117 N113 1.453 . S
C117 C115 1.368 . S
C117 C118 1.373 1_554 S
C118 H112 0.930 . S
C118 C117 1.373 1_556 S
C118 C119 1.371 . S
C119 C118 1.371 . S
C119 C120 1.383 1_556 S
C120 H111 0.931 . S
C120 C116 1.397 . S
C120 C119 1.383 1_554 S
H121 C126 0.929 . S
H122 C131 0.931 . S
H123 C129 0.915 1_655 S
N124 N125 1.234 . S
N124 C128 1.453 . S
N125 N124 1.234 . S
C126 H121 0.929 . S
C126 C127 1.373 . S
C126 C128 1.368 1_455 S
C127 C126 1.373 . S
C127 C131 1.397 . S
C128 N124 1.453 . S
C128 C126 1.368 1_655 S
C128 C129 1.373 1_655 S
C129 H123 0.915 1_455 S
C129 C128 1.373 1_455 S
C129 C130 1.371 . S
C130 C129 1.371 . S
C130 C131 1.383 . S
C131 H122 0.931 . S
C131 C127 1.397 . S
C131 C130 1.383 . S
H132 C137 0.929 . S
H133 C142 0.931 . S
H134 C140 0.930 1_545 S
N135 N136 1.234 . S
N135 C139 1.453 . S
N136 N135 1.234 . S
C137 H132 0.929 . S
C137 C138 1.373 . S
C137 C139 1.368 1_565 S
C138 C137 1.373 . S
C138 C142 1.397 . S
C139 N135 1.453 . S
C139 C137 1.368 1_545 S
C139 C140 1.373 1_545 S
C140 H134 0.930 1_565 S
C140 C139 1.373 1_565 S
C140 C141 1.371 . S
C141 C140 1.371 . S
C141 C142 1.383 . S
C142 H133 0.931 . S
C142 C138 1.397 . S
C142 C141 1.383 . S
H143 C148 0.929 . S
H144 C153 0.931 . S
H145 C151 0.930 . S
N146 N147 1.234 1_556 S
N146 C150 1.453 . S
N147 N146 1.234 1_554 S
C148 H143 0.929 . S
C148 C149 1.373 . S
C148 C150 1.368 . S
C149 C148 1.373 . S
C149 C153 1.397 1_556 S
C150 N146 1.453 . S
C150 C148 1.368 . S
C150 C151 1.373 1_556 S
C151 H145 0.930 . S
C151 C150 1.373 1_554 S
C151 C152 1.371 . S
C152 C151 1.371 . S
C152 C153 1.383 . S
C153 H144 0.931 . S
C153 C149 1.397 1_554 S
C153 C152 1.383 . S
H154 C159 0.929 . S
H155 C164 0.931 . S
H156 C162 0.930 1_565 S
N157 N158 1.234 . S
N157 C161 1.453 . S
N158 N157 1.234 . S
C159 H154 0.929 . S
C159 C160 1.373 . S
C159 C161 1.368 1_545 S
C160 C159 1.373 . S
C160 C164 1.397 . S
C161 N157 1.453 . S
C161 C159 1.368 1_565 S
C161 C162 1.373 1_565 S
C162 H156 0.930 1_545 S
C162 C161 1.373 1_545 S
C162 C163 1.371 . S
C163 C162 1.371 . S
C163 C164 1.383 . S
C164 H155 0.931 . S
C164 C160 1.397 . S
C164 C163 1.383 . S
H165 C170 0.929 . S
H166 C175 0.931 . S
H167 C173 0.930 . S
N168 N169 1.234 1_554 S
N168 C172 1.453 . S
N169 N168 1.234 1_556 S
C170 H165 0.929 . S
C170 C171 1.373 . S
C170 C172 1.368 . S
C171 C170 1.373 . S
C171 C175 1.397 . S
C172 N168 1.453 . S
C172 C170 1.368 . S
C172 C173 1.373 1_554 S
C173 H167 0.930 . S
C173 C172 1.373 1_556 S
C173 C174 1.371 . S
C174 C173 1.371 . S
C174 C175 1.383 1_556 S
C175 H166 0.931 . S
C175 C171 1.397 . S
C175 C174 1.383 1_554 S
C176 C177 1.387 . S
C176 H180 0.950 . S
C176 C185 1.390 . S
C177 C176 1.387 . S
C177 C179 1.387 . S
H178 C185 0.950 . S
C179 C177 1.387 . S
C179 C181 1.390 . S
C179 H183 0.950 . S
H180 C176 0.950 . S
C181 C179 1.390 . S
C181 C182 1.387 . S
C181 H184 0.950 . S
C182 C181 1.387 . S
C182 C185 1.387 . S
H183 C179 0.950 . S
H184 C181 0.950 . S
C185 C176 1.390 . S
C185 H178 0.950 . S
C185 C182 1.387 . S
C186 C187 1.387 . S
C186 H190 0.950 . S
C186 C195 1.390 . S
C187 C186 1.387 . S
C187 C189 1.387 . S
H188 C195 0.950 . S
C189 C187 1.387 . S
C189 C191 1.390 . S
C189 H193 0.950 . S
H190 C186 0.950 . S
C191 C189 1.390 . S
C191 C192 1.387 . S
C191 H194 0.950 . S
C192 C191 1.387 . S
C192 C195 1.387 . S
H193 C189 0.950 . S
H194 C191 0.950 . S
C195 C186 1.390 . S
C195 H188 0.950 . S
C195 C192 1.387 . S
C196 C197 1.387 . S
C196 H200 0.950 . S
C196 C205 1.390 . S
C197 C196 1.387 . S
C197 C199 1.387 . S
H198 C205 0.950 . S
C199 C197 1.387 . S
C199 C201 1.390 . S
C199 H203 0.950 . S
H200 C196 0.950 . S
C201 C199 1.390 . S
C201 C202 1.387 . S
C201 H204 0.950 . S
C202 C201 1.387 . S
C202 C205 1.387 . S
H203 C199 0.950 . S
H204 C201 0.950 . S
C205 C196 1.390 . S
C205 H198 0.950 . S
C205 C202 1.387 . S
C206 C207 1.387 . S
C206 H210 0.950 . S
C206 C215 1.390 . S
C207 C206 1.387 . S
C207 C209 1.387 . S
H208 C215 0.950 . S
C209 C207 1.387 . S
C209 C211 1.390 . S
C209 H213 0.950 . S
H210 C206 0.950 . S
C211 C209 1.390 . S
C211 C212 1.387 . S
C211 H214 0.950 . S
C212 C211 1.387 . S
C212 C215 1.387 . S
H213 C209 0.950 . S
H214 C211 0.950 . S
C215 C206 1.390 . S
C215 H208 0.950 . S
C215 C212 1.387 . S
C216 C217 1.387 . S
C216 H220 0.950 . S
C216 C225 1.390 . S
C217 C216 1.387 . S
C217 C219 1.387 . S
H218 C225 0.950 . S
C219 C217 1.387 . S
C219 C221 1.390 . S
C219 H223 0.950 . S
H220 C216 0.950 . S
C221 C219 1.390 . S
C221 C222 1.387 . S
C221 H224 0.950 . S
C222 C221 1.387 . S
C222 C225 1.387 . S
H223 C219 0.950 . S
H224 C221 0.950 . S
C225 C216 1.390 . S
C225 H218 0.950 . S
C225 C222 1.387 . S
C226 C227 1.387 . S
C226 H230 0.950 . S
C226 C235 1.390 . S
C227 C226 1.387 . S
C227 C229 1.387 . S
H228 C235 0.950 . S
C229 C227 1.387 . S
C229 C231 1.390 . S
C229 H233 0.950 . S
H230 C226 0.950 . S
C231 C229 1.390 . S
C231 C232 1.387 . S
C231 H234 0.950 . S
C232 C231 1.387 . S
C232 C235 1.387 . S
H233 C229 0.950 . S
H234 C231 0.950 . S
C235 C226 1.390 . S
C235 H228 0.950 . S
C235 C232 1.387 . S
C236 C237 1.387 . S
C236 H240 0.950 . S
C236 C245 1.390 . S
C237 C236 1.387 . S
C237 C239 1.387 . S
H238 C245 0.950 . S
C239 C237 1.387 . S
C239 C241 1.390 . S
C239 H243 0.950 . S
H240 C236 0.950 . S
C241 C239 1.390 . S
C241 C242 1.387 . S
C241 H244 0.950 . S
C242 C241 1.387 . S
C242 C245 1.387 . S
H243 C239 0.950 . S
H244 C241 0.950 . S
C245 C236 1.390 . S
C245 H238 0.950 . S
C245 C242 1.387 . S
C246 C247 1.387 . S
C246 H250 0.950 . S
C246 C255 1.390 . S
C247 C246 1.387 . S
C247 C249 1.387 . S
H248 C255 0.950 . S
C249 C247 1.387 . S
C249 C251 1.390 . S
C249 H253 0.950 . S
H250 C246 0.950 . S
C251 C249 1.390 . S
C251 C252 1.387 . S
C251 H254 0.950 . S
C252 C251 1.387 . S
C252 C255 1.387 . S
H253 C249 0.950 . S
H254 C251 0.950 . S
C255 C246 1.390 . S
C255 H248 0.950 . S
C255 C252 1.387 . S
C256 C257 1.387 . S
C256 H260 0.950 . S
C256 C265 1.390 . S
C257 C256 1.387 . S
C257 C259 1.387 . S
H258 C265 0.950 . S
C259 C257 1.387 . S
C259 C261 1.390 . S
C259 H263 0.950 . S
H260 C256 0.950 . S
C261 C259 1.390 . S
C261 C262 1.387 . S
C261 H264 0.950 . S
C262 C261 1.387 . S
C262 C265 1.387 . S
H263 C259 0.950 . S
H264 C261 0.950 . S
C265 C256 1.390 . S
C265 H258 0.950 . S
C265 C262 1.387 . S
C266 C267 1.387 . S
C266 H270 0.950 . S
C266 C275 1.390 . S
C267 C266 1.387 . S
C267 C269 1.387 . S
H268 C275 0.950 . S
C269 C267 1.387 . S
C269 C271 1.390 . S
C269 H273 0.950 . S
H270 C266 0.950 . S
C271 C269 1.390 . S
C271 C272 1.387 . S
C271 H274 0.950 . S
C272 C271 1.387 . S
C272 C275 1.387 . S
H273 C269 0.950 . S
H274 C271 0.950 . S
C275 C266 1.390 . S
C275 H268 0.950 . S
C275 C272 1.387 . S
C276 C277 1.387 . S
C276 H280 0.950 . S
C276 C285 1.390 . S
C277 C276 1.387 . S
C277 C279 1.387 . S
H278 C285 0.950 . S
C279 C277 1.387 . S
C279 C281 1.390 . S
C279 H283 0.950 . S
H280 C276 0.950 . S
C281 C279 1.390 . S
C281 C282 1.387 . S
C281 H284 0.950 . S
C282 C281 1.387 . S
C282 C285 1.387 . S
H283 C279 0.950 . S
H284 C281 0.950 . S
C285 C276 1.390 . S
C285 H278 0.950 . S
C285 C282 1.387 . S
C286 C287 1.387 . S
C286 H290 0.950 . S
C286 C295 1.390 . S
C287 C286 1.387 . S
C287 C289 1.387 . S
H288 C295 0.950 . S
C289 C287 1.387 . S
C289 C291 1.390 . S
C289 H293 0.950 . S
H290 C286 0.950 . S
C291 C289 1.390 . S
C291 C292 1.387 . S
C291 H294 0.950 . S
C292 C291 1.387 . S
C292 C295 1.387 . S
H293 C289 0.950 . S
H294 C291 0.950 . S
C295 C286 1.390 . S
C295 H288 0.950 . S
C295 C292 1.387 . S
C296 C297 1.387 . S
C296 H300 0.950 . S
C296 C305 1.390 . S
C297 C296 1.387 . S
C297 C299 1.387 . S
H298 C305 0.950 . S
C299 C297 1.387 . S
C299 C301 1.390 . S
C299 H303 0.950 . S
H300 C296 0.950 . S
C301 C299 1.390 . S
C301 C302 1.387 . S
C301 H304 0.950 . S
C302 C301 1.387 . S
C302 C305 1.387 . S
H303 C299 0.950 . S
H304 C301 0.950 . S
C305 C296 1.390 . S
C305 H298 0.950 . S
C305 C302 1.387 . S
C306 C307 1.387 . S
C306 H310 0.950 . S
C306 C315 1.390 . S
C307 C306 1.387 . S
C307 C309 1.387 . S
H308 C315 0.950 . S
C309 C307 1.387 . S
C309 C311 1.390 . S
C309 H313 0.950 . S
H310 C306 0.950 . S
C311 C309 1.390 . S
C311 C312 1.387 . S
C311 H314 0.950 . S
C312 C311 1.387 . S
C312 C315 1.387 . S
H313 C309 0.950 . S
H314 C311 0.950 . S
C315 C306 1.390 . S
C315 H308 0.950 . S
C315 C312 1.387 . S
C316 C317 1.387 . S
C316 H320 0.950 . S
C316 C325 1.390 . S
C317 C316 1.387 . S
C317 C319 1.387 . S
H318 C325 0.950 . S
C319 C317 1.387 . S
C319 C321 1.390 . S
C319 H323 0.950 . S
H320 C316 0.950 . S
C321 C319 1.390 . S
C321 C322 1.387 . S
C321 H324 0.950 . S
C322 C321 1.387 . S
C322 C325 1.387 . S
H323 C319 0.950 . S
H324 C321 0.950 . S
C325 C316 1.390 . S
C325 H318 0.950 . S
C325 C322 1.387 . S
C326 C327 1.387 . S
C326 H330 0.950 . S
C326 C335 1.390 . S
C327 C326 1.387 . S
C327 C329 1.387 . S
H328 C335 0.950 . S
C329 C327 1.387 . S
C329 C331 1.390 . S
C329 H333 0.950 . S
H330 C326 0.950 . S
C331 C329 1.390 . S
C331 C332 1.387 . S
C331 H334 0.950 . S
C332 C331 1.387 . S
C332 C335 1.387 . S
H333 C329 0.950 . S
H334 C331 0.950 . S
C335 C326 1.390 . S
C335 H328 0.950 . S
C335 C332 1.387 . S
C336 C337 1.387 . S
C336 H340 0.950 . S
C336 C345 1.390 . S
C337 C336 1.387 . S
C337 C339 1.387 1_554 S
H338 C345 0.950 . S
C339 C337 1.387 1_556 S
C339 C341 1.390 . S
C339 H343 0.950 . S
H340 C336 0.950 . S
C341 C339 1.390 . S
C341 C342 1.387 1_556 S
C341 H344 0.950 . S
C342 C341 1.387 1_554 S
C342 C345 1.387 . S
H343 C339 0.950 . S
H344 C341 0.950 . S
C345 C336 1.390 . S
C345 H338 0.950 . S
C345 C342 1.387 . S
C346 C347 1.387 . S
C346 H350 0.950 . S
C346 C355 1.390 . S
C347 C346 1.387 . S
C347 C349 1.387 . S
H348 C355 0.950 . S
C349 C347 1.387 . S
C349 C351 1.390 . S
C349 H353 0.950 . S
H350 C346 0.950 . S
C351 C349 1.390 . S
C351 C352 1.387 . S
C351 H354 0.950 . S
C352 C351 1.387 . S
C352 C355 1.387 . S
H353 C349 0.950 . S
H354 C351 0.950 . S
C355 C346 1.390 . S
C355 H348 0.950 . S
C355 C352 1.387 . S
C356 C357 1.387 1_556 S
C356 H360 0.950 . S
C356 C365 1.390 . S
C357 C356 1.387 1_554 S
C357 C359 1.387 . S
H358 C365 0.950 . S
C359 C357 1.387 . S
C359 C361 1.390 . S
C359 H363 0.950 . S
H360 C356 0.950 . S
C361 C359 1.390 . S
C361 C362 1.387 . S
C361 H364 0.950 . S
C362 C361 1.387 . S
C362 C365 1.387 1_554 S
H363 C359 0.950 . S
H364 C361 0.950 . S
C365 C356 1.390 . S
C365 H358 0.950 . S
C365 C362 1.387 1_556 S
C366 C367 1.387 . S
C366 H370 0.950 . S
C366 C375 1.390 . S
C367 C366 1.387 . S
C367 C369 1.387 . S
H368 C375 0.950 . S
C369 C367 1.387 . S
C369 C371 1.390 . S
C369 H373 0.950 . S
H370 C366 0.950 . S
C371 C369 1.390 . S
C371 C372 1.387 . S
C371 H374 0.950 . S
C372 C371 1.387 . S
C372 C375 1.387 . S
H373 C369 0.950 . S
H374 C371 0.950 . S
C375 C366 1.390 . S
C375 H368 0.950 . S
C375 C372 1.387 . S
C376 C377 1.387 . S
C376 H380 0.950 . S
C376 C385 1.390 . S
C377 C376 1.387 . S
C377 C379 1.387 . S
H378 C385 0.950 . S
C379 C377 1.387 . S
C379 C381 1.390 . S
C379 H383 0.950 . S
H380 C376 0.950 . S
C381 C379 1.390 . S
C381 C382 1.387 . S
C381 H384 0.950 . S
C382 C381 1.387 . S
C382 C385 1.387 . S
H383 C379 0.950 . S
H384 C381 0.950 . S
C385 C376 1.390 . S
C385 H378 0.950 . S
C385 C382 1.387 . S
C386 C387 1.387 1_556 S
C386 H390 0.950 . S
C386 C395 1.390 . S
C387 C386 1.387 1_554 S
C387 C389 1.387 . S
H388 C395 0.950 . S
C389 C387 1.387 . S
C389 C391 1.390 . S
C389 H393 0.950 . S
H390 C386 0.950 . S
C391 C389 1.390 . S
C391 C392 1.387 . S
C391 H394 0.950 . S
C392 C391 1.387 . S
C392 C395 1.387 1_554 S
H393 C389 0.950 . S
H394 C391 0.950 . S
C395 C386 1.390 . S
C395 H388 0.950 . S
C395 C392 1.387 1_556 S
C396 C397 1.387 . S
C396 H400 0.950 . S
C396 C405 1.390 . S
C397 C396 1.387 . S
C397 C399 1.387 . S
H398 C405 0.950 . S
C399 C397 1.387 . S
C399 C401 1.390 . S
C399 H403 0.950 . S
H400 C396 0.950 . S
C401 C399 1.390 . S
C401 C402 1.387 . S
C401 H404 0.950 . S
C402 C401 1.387 . S
C402 C405 1.387 . S
H403 C399 0.950 . S
H404 C401 0.950 . S
C405 C396 1.390 . S
C405 H398 0.950 . S
C405 C402 1.387 . S
C406 C407 1.387 1_556 S
C406 H410 0.950 . S
C406 C415 1.390 . S
C407 C406 1.387 1_554 S
C407 C409 1.387 . S
H408 C415 0.950 . S
C409 C407 1.387 . S
C409 C411 1.390 . S
C409 H413 0.950 . S
H410 C406 0.950 . S
C411 C409 1.390 . S
C411 C412 1.387 . S
C411 H414 0.950 . S
C412 C411 1.387 . S
C412 C415 1.387 1_554 S
H413 C409 0.950 . S
H414 C411 0.950 . S
C415 C406 1.390 . S
C415 H408 0.950 . S
C415 C412 1.387 1_556 S
C177 C21 1.481 . S
C182 C127 1.492 . S
C187 C40 1.506 . S
C192 C94 1.496 . S
C202 C108 1.456 . S
C197 C54 1.484 . S
C207 C73 1.532 . S
C212 C119 1.504 . S
C222 C152 1.448 . S
C217 C74 1.473 . S
C232 C163 1.484 . S
C227 C10 1.528 . S
C242 C171 1.501 . S
C237 C37 1.494 . S
C252 C138 1.515 . S
C247 C65 1.510 . S
C257 C52 1.451 . S
C262 C105 1.450 . S
C267 C87 1.523 . S
C272 C116 1.509 . S
C277 C15 1.520 . S
C282 C130 1.500 . S
C292 C97 1.476 . S
C287 C32 1.510 . S
C297 C29 1.507 . S
C302 C174 1.491 . S
C312 C141 1.519 . S
C307 C59 1.545 . S
C322 C149 1.456 . S
C317 C84 1.459 . S
C327 C8 1.487 . S
C332 C160 1.469 . S
C342 N92 1.527 . S
C337 C7 1.542 . S
C352 N103 1.490 . S
C347 C30 1.495 . S
C357 C62 1.547 . S
C362 N114 1.535 . S
C367 C81 1.504 . S
C372 N125 1.513 . S
C382 N136 1.524 . S
C377 C76 1.547 . S
C387 C18 1.495 . S
C392 N147 1.490 . S
C397 C43 1.540 . S
C402 N158 1.535 . S
C407 C51 1.504 . S
C412 N169 1.513 1_554 S
