# Generated by pormake.
# Topology anh, (6,3)-cn, num edge types: 1
# Building blocks:
#     Node 0, Type 0, BuildingBlock: PAMTOO_clean_sbu_0, # of connection points: 6
#     Node 1, Type 0, BuildingBlock: PAMTOO_clean_sbu_0, # of connection points: 6
#     Node 2, Type 0, BuildingBlock: PAMTOO_clean_sbu_0, # of connection points: 6
#     Node 3, Type 1, BuildingBlock: CUQRIR_clean_linker_1, # of connection points: 3
#     Node 4, Type 1, BuildingBlock: CUQRIR_clean_linker_1, # of connection points: 3
#     Node 5, Type 1, BuildingBlock: CUQRIR_clean_linker_1, # of connection points: 3
#     Node 6, Type 1, BuildingBlock: CUQRIR_clean_linker_1, # of connection points: 3
#     Node 7, Type 1, BuildingBlock: CUQRIR_clean_linker_1, # of connection points: 3
#     Node 8, Type 1, BuildingBlock: CUQRIR_clean_linker_1, # of connection points: 3
#     Edge 9, Type (0, 1), BuildingBlock: AJUNOK_clean_linker_0, # of connection points: 2
#     Edge 10, Type (0, 1), BuildingBlock: AJUNOK_clean_linker_0, # of connection points: 2
#     Edge 11, Type (0, 1), BuildingBlock: AJUNOK_clean_linker_0, # of connection points: 2
#     Edge 12, Type (0, 1), BuildingBlock: AJUNOK_clean_linker_0, # of connection points: 2
#     Edge 13, Type (0, 1), BuildingBlock: AJUNOK_clean_linker_0, # of connection points: 2
#     Edge 14, Type (0, 1), BuildingBlock: AJUNOK_clean_linker_0, # of connection points: 2
#     Edge 15, Type (0, 1), BuildingBlock: AJUNOK_clean_linker_0, # of connection points: 2
#     Edge 16, Type (0, 1), BuildingBlock: AJUNOK_clean_linker_0, # of connection points: 2
#     Edge 17, Type (0, 1), BuildingBlock: AJUNOK_clean_linker_0, # of connection points: 2
#     Edge 18, Type (0, 1), BuildingBlock: AJUNOK_clean_linker_0, # of connection points: 2
#     Edge 19, Type (0, 1), BuildingBlock: AJUNOK_clean_linker_0, # of connection points: 2
#     Edge 20, Type (0, 1), BuildingBlock: AJUNOK_clean_linker_0, # of connection points: 2
#     Edge 21, Type (0, 1), BuildingBlock: AJUNOK_clean_linker_0, # of connection points: 2
#     Edge 22, Type (0, 1), BuildingBlock: AJUNOK_clean_linker_0, # of connection points: 2
#     Edge 23, Type (0, 1), BuildingBlock: AJUNOK_clean_linker_0, # of connection points: 2
#     Edge 24, Type (0, 1), BuildingBlock: AJUNOK_clean_linker_0, # of connection points: 2
#     Edge 25, Type (0, 1), BuildingBlock: AJUNOK_clean_linker_0, # of connection points: 2
#     Edge 26, Type (0, 1), BuildingBlock: AJUNOK_clean_linker_0, # of connection points: 2
# Relax obj value: 0.287
# Max RMSD: 0.217
# Mean RMSD: 0.174
data_MOF--net-anh--node1-PAMTOO_clean_sbu_0--node2-CUQRIR_clean_linker_1--edge1-AJUNOK_clean_linker_0
_symmetry_space_group_name_H-M    P1
_symmetry_Int_Tables_number       1
_symmetry_cell_setting            triclinic
loop_
_symmetry_equiv_pos_as_xyz
'x, y, z'
_cell_length_a     20.002697
_cell_length_b     19.20061
_cell_length_c     33.784405
_cell_angle_alpha  83.897023
_cell_angle_beta   93.834916
_cell_angle_gamma 95.257833
loop_
_atom_site_label
_atom_site_type_symbol
_atom_site_fract_x
_atom_site_fract_y
_atom_site_fract_z
_atom_type_partial_charge
Dy0 Dy 1.07814 0.63812 0.13075 0.0
Dy1 Dy 1.06521 0.47161 0.11932 0.0
C2 C 1.07647 0.58841 0.04914 0.0
O3 O 0.96449 0.61379 0.13461 0.0
O4 O 0.95573 0.50291 0.11386 0.0
O5 O 1.11332 0.73758 0.09991 0.0
O6 O 1.06787 0.73436 0.15673 0.0
O7 O 1.06018 0.47426 0.18521 0.0
O8 O 1.08894 0.5913 0.19317 0.0
O9 O 0.1796 0.4915 0.1256 0.0
O10 O 0.18832 0.61069 0.13 0.0
O11 O 1.0834 0.36349 0.13798 0.0
O12 O 1.0222 0.38941 0.08391 0.0
C13 C 0.92661 0.55789 0.12359 0.0
O14 O 1.03545 0.61238 0.07144 0.0
O15 O 1.107 0.53391 0.06477 0.0
C16 C 0.16497 0.81341 0.14532 0.0
C17 C 0.29069 0.87621 0.172 0.0
C18 C 0.26903 0.88536 0.1315 0.0
C19 C 0.20673 0.8542 0.11829 0.0
C20 C 0.18553 0.80686 0.18609 0.0
C21 C 0.24762 0.8382 0.19927 0.0
C22 C 1.10441 0.77197 0.13022 0.0
C23 C 1.07491 0.526 0.20764 0.0
C24 C 0.21738 0.55142 0.12849 0.0
C25 C 0.98504 0.28981 0.12736 0.0
C26 C 0.88452 0.20358 0.16856 0.0
C27 C 0.86917 0.26665 0.14616 0.0
C28 C 0.91889 0.30947 0.12603 0.0
C29 C 1.00002 0.22558 0.14851 0.0
C30 C 0.95013 0.18265 0.16882 0.0
C31 C 1.0397 0.33971 0.11117 0.0
H32 H 0.30131 0.9145 0.10988 0.0
H33 H 0.19224 0.85981 0.08669 0.0
H34 H 0.15469 0.77582 0.20778 0.0
H35 H 0.26245 0.83174 0.23078 0.0
H36 H 0.81864 0.28323 0.14439 0.0
H37 H 0.90576 0.35882 0.11021 0.0
H38 H 1.05081 0.20965 0.15032 0.0
H39 H 0.96327 0.13409 0.18563 0.0
Dy40 Dy 0.64338 0.96541 0.51617 0.0
Dy41 Dy 0.8065 0.98211 0.51561 0.0
C42 C 0.73136 0.95914 0.59806 0.0
O43 O 0.67327 0.0756 0.53107 0.0
O44 O 0.77408 0.09131 0.50159 0.0
O45 O 0.54923 0.95542 0.54528 0.0
O46 O 0.54963 0.958 0.48114 0.0
O47 O 0.76675 0.97147 0.45277 0.0
O48 O 0.67006 1.02219 0.45761 0.0
O49 O 0.78056 0.86838 0.53541 0.0
O50 O 0.67504 0.85983 0.50489 0.0
O51 O 0.89757 0.95746 0.49104 0.0
O52 O 0.90275 1.02847 0.53699 0.0
C53 C 0.72398 0.11724 0.51679 0.0
O54 O 0.67742 0.93259 0.57893 0.0
O55 O 0.78311 0.9894 0.57885 0.0
C56 C 0.46322 0.88752 0.51177 0.0
C57 C 0.37381 0.77119 0.49566 0.0
C58 C 0.43763 0.76125 0.51433 0.0
C59 C 0.48228 0.81913 0.52214 0.0
C60 C 0.39811 0.89747 0.49558 0.0
C61 C 0.35354 0.83965 0.48767 0.0
C62 C 0.51329 0.94804 0.51212 0.0
C63 C 0.71628 1.00459 0.4359 0.0
C64 C 0.72784 0.82986 0.52196 0.0
C65 C 0.97248 0.05967 0.48425 0.0
C66 C 1.03513 0.18084 0.44299 0.0
C67 C 0.9729 0.15068 0.42842 0.0
C68 C 0.94171 0.09076 0.44895 0.0
C69 C 1.0356 0.088 0.49809 0.0
C70 C 1.06664 0.14821 0.47771 0.0
C71 C 0.93463 1.00488 0.50949 0.0
H72 H 0.45383 0.70884 0.5214 0.0
H73 H 0.5326 0.81064 0.53454 0.0
H74 H 0.38294 0.95001 0.48712 0.0
H75 H 0.30469 0.84864 0.47315 0.0
H76 H 0.94733 0.17483 0.40189 0.0
H77 H 0.89227 0.07048 0.43815 0.0
H78 H 1.05936 0.0656 0.52571 0.0
H79 H 1.11359 0.17132 0.4904 0.0
Dy80 Dy 0.77772 0.54388 0.83523 0.0
Dy81 Dy 0.61724 0.53187 0.81896 0.0
C82 C 0.71323 0.53892 0.74703 0.0
O83 O 0.74939 0.65046 0.81041 0.0
O84 O 0.64495 0.64333 0.83361 0.0
O85 O 0.86747 0.5521 0.87461 0.0
O86 O 0.87542 0.56031 0.81079 0.0
O87 O 0.63573 0.50533 0.88439 0.0
O88 O 0.73608 0.56981 0.89157 0.0
O89 O 0.64951 0.42662 0.80879 0.0
O90 O 0.74852 0.42791 0.84726 0.0
O91 O 0.52038 0.47677 0.83044 0.0
O92 O 0.52761 0.57049 0.78866 0.0
C93 C 0.69825 0.68161 0.82026 0.0
O94 O 0.75964 0.51544 0.77296 0.0
O95 O 0.65728 0.55846 0.75867 0.0
C96 C 0.9392 0.64608 0.84492 0.0
C97 C 0.9889 0.78922 0.84004 0.0
C98 C 0.99377 0.74915 0.808 0.0
C99 C 0.96941 0.6784 0.81047 0.0
C100 C 0.93428 0.68605 0.87695 0.0
C101 C 0.9589 0.75662 0.87454 0.0
C102 C 0.90491 0.57451 0.84486 0.0
C103 C 0.68194 0.53713 0.90697 0.0
C104 C 0.69799 0.39324 0.82864 0.0
C105 C 0.44034 0.55891 0.8317 0.0
C106 C 0.36396 0.64426 0.87004 0.0
C107 C 0.41324 0.60633 0.89191 0.0
C108 C 0.45143 0.56419 0.87286 0.0
C109 C 0.38952 0.59465 0.81014 0.0
C110 C 0.35185 0.6374 0.82909 0.0
C111 C 0.48813 0.52613 0.81013 0.0
H112 H 1.01685 0.77238 0.78106 0.0
H113 H 0.97317 0.64922 0.78508 0.0
H114 H 0.91092 0.66313 0.90387 0.0
H115 H 0.95633 0.78488 0.9004 0.0
H116 H 0.42341 0.61075 0.9235 0.0
H117 H 0.49135 0.53811 0.89001 0.0
H118 H 0.38133 0.59232 0.77825 0.0
H119 H 0.31533 0.6675 0.81132 0.0
C120 C 0.60674 1.01807 0.20913 0.0
N121 N 0.65666 0.03966 0.23538 0.0
N122 N 0.55138 0.99159 0.22847 0.0
C123 C 0.61226 1.02294 0.16472 0.0
C124 C 0.56899 0.99863 0.26728 0.0
N125 N 0.63271 1.02827 0.27148 0.0
C126 C 0.52427 0.97645 0.30137 0.0
H127 H 0.56266 1.01388 0.14861 0.0
H128 H 0.64485 0.98265 0.15776 0.0
H129 H 0.63623 0.07529 0.15384 0.0
H130 H 0.54898 0.93781 0.32299 0.0
H131 H 0.47399 0.95338 0.29138 0.0
H132 H 0.51727 1.0227 0.31723 0.0
C133 C 0.72878 0.47529 0.52268 0.0
N134 N 0.73159 0.52507 0.54881 0.0
N135 N 0.73091 0.41002 0.54253 0.0
C136 C 0.72428 0.48976 0.47811 0.0
C137 C 0.7358 0.42176 0.58134 0.0
N138 N 0.73671 0.49114 0.58514 0.0
C139 C 0.73582 0.36472 0.61562 0.0
H140 H 0.67087 0.48172 0.46717 0.0
H141 H 0.75283 0.45249 0.46446 0.0
H142 H 0.74366 0.54456 0.46857 0.0
H143 H 0.75697 0.31723 0.60727 0.0
H144 H 0.68321 0.35001 0.62378 0.0
H145 H 0.76502 0.38288 0.64219 0.0
C146 C 0.22542 0.91655 0.91636 0.0
N147 N 0.23028 0.85282 0.937 0.0
N148 N 0.16308 0.93953 0.91726 0.0
C149 C 0.28086 0.95489 0.89247 0.0
C150 C 0.13767 0.89411 0.94758 0.0
N151 N 0.17551 0.83943 0.9574 0.0
C152 C 1.08014 0.90789 0.97137 0.0
H153 H 0.32493 0.96726 0.91305 0.0
H154 H 0.26456 1.00454 0.87641 0.0
H155 H 0.29755 0.92095 0.87107 0.0
H156 H 1.03169 0.88818 0.95697 0.0
H157 H 1.07981 0.96508 0.97354 0.0
H158 H 1.08469 0.88057 0.00196 0.0
C159 C 0.18257 0.49137 0.43425 0.0
N160 N 0.14673 0.46193 0.40397 0.0
N161 N 0.19978 0.56004 0.4236 0.0
C162 C 0.20167 0.45325 0.474 0.0
C163 C 0.17357 0.57156 0.38581 0.0
N164 N 0.13979 0.51208 0.3741 0.0
C165 C 0.18547 0.63951 0.35957 0.0
H166 H 0.16322 0.40972 0.48238 0.0
H167 H 0.20801 0.48991 0.4975 0.0
H168 H 0.25032 0.43066 0.47207 0.0
H169 H 0.18659 0.62989 0.32783 0.0
H170 H 0.23332 0.66898 0.36869 0.0
H171 H 0.14406 0.67299 0.36245 0.0
C172 C 0.69742 0.03604 0.82 0.0
N173 N 0.70411 0.98754 0.7942 0.0
N174 N 0.70517 0.10238 0.80132 0.0
C175 C 0.6853 1.019 0.86342 0.0
C176 C 0.7164 0.09258 0.7634 0.0
N177 N 0.71639 1.02332 0.75909 0.0
C178 C 0.72513 0.15089 0.73013 0.0
H179 H 0.63089 1.00406 0.86664 0.0
H180 H 0.70042 0.06506 0.88024 0.0
H181 H 0.71333 0.97375 0.87615 0.0
H182 H 0.70281 0.19889 0.73668 0.0
H183 H 0.70176 0.13395 0.70161 0.0
H184 H 0.77964 0.16427 0.72641 0.0
C185 C 0.57403 0.55957 0.12571 0.0
N186 N 0.626 0.55576 0.10113 0.0
N187 N 0.5117 0.55566 0.10534 0.0
C188 C 0.58339 0.56377 0.16975 0.0
C189 C 0.52829 0.54996 0.06763 0.0
N190 N 0.59593 0.54937 0.06509 0.0
C191 C 0.47776 0.54819 0.03251 0.0
H192 H 0.63068 0.54154 0.18195 0.0
H193 H 0.53987 0.53559 0.18504 0.0
H194 H 0.58603 0.61976 0.1756 0.0
H195 H 0.50032 0.57283 0.00473 0.0
H196 H 0.4332 0.57589 0.0375 0.0
H197 H 0.46057 0.49266 0.02848 0.0
C198 C 0.32618 0.49182 0.12004 0.0
C199 C 0.29511 0.55252 0.12732 0.0
C200 C 0.39678 0.49232 0.11543 0.0
C201 C 0.4419 0.55319 0.11835 0.0
H202 H 0.2953 0.44328 0.11658 0.0
H203 H 0.41615 0.4447 0.10815 0.0
S204 S 0.38965 0.72737 0.13598 0.0
N205 N 0.31851 0.67631 0.13728 0.0
N206 N 0.44887 0.67669 0.1281 0.0
C207 C 0.41225 0.61395 0.12622 0.0
C208 C 0.34017 0.61366 0.13095 0.0
C209 C 1.02159 0.30623 0.41728 0.0
C210 C 1.06332 0.25039 0.42503 0.0
C211 C 1.04877 0.37532 0.40741 0.0
C212 C 1.11828 0.39051 0.4049 0.0
H213 H 0.96811 0.29726 0.42119 0.0
H214 H 1.01599 0.41769 0.40416 0.0
S215 S 0.24771 0.2631 0.41512 0.0
N216 N 0.17671 0.2145 0.42393 0.0
N217 N 0.22734 0.34495 0.40582 0.0
C218 C 0.15985 0.33507 0.40945 0.0
C219 C 1.13246 0.26478 0.41943 0.0
C220 C 0.6465 0.79661 0.82428 0.0
C221 C 0.70104 0.76062 0.81497 0.0
C222 C 0.64809 0.87074 0.81837 0.0
C223 C 0.70423 0.91183 0.80295 0.0
H224 H 0.60181 0.76737 0.83577 0.0
H225 H 0.60454 0.89605 0.82499 0.0
S226 S 0.86086 0.84601 0.77504 0.0
N227 N 0.81373 0.77417 0.79001 0.0
N228 N 0.81634 0.91217 0.78035 0.0
C229 C 0.75936 0.87708 0.79445 0.0
C230 C 0.75789 0.802 0.80008 0.0
C231 C 0.80758 0.50124 0.10441 0.0
C232 C 0.84864 0.55721 0.12028 0.0
C233 C 0.73594 0.50019 0.09953 0.0
C234 C 0.69978 0.55463 0.11054 0.0
H235 H 0.83102 0.45773 0.09488 0.0
H236 H 0.70842 0.45615 0.08655 0.0
S237 S 0.78013 0.71448 0.1532 0.0
N238 N 0.84457 0.66948 0.14698 0.0
N239 N 0.71211 0.66708 0.13779 0.0
C240 C 0.73964 0.61054 0.12683 0.0
C241 C 0.81281 0.61195 0.13161 0.0
C242 C 0.26224 0.70153 0.48828 0.0
C243 C 0.33099 0.7115 0.48064 0.0
C244 C 0.2196 0.64995 0.4706 0.0
C245 C 0.24463 0.60719 0.44489 0.0
H246 H 0.24114 0.73474 0.50737 0.0
H247 H 0.16658 0.6445 0.47611 0.0
S248 S 0.41891 0.61274 0.41418 0.0
N249 N 0.42109 0.67477 0.4447 0.0
N250 N 0.34062 0.57694 0.41248 0.0
C251 C 0.31295 0.6154 0.43762 0.0
C252 C 0.35631 0.66786 0.45529 0.0
C253 C 0.75809 0.28215 0.83286 0.0
C254 C 0.69762 0.31544 0.82732 0.0
C255 C 0.75971 0.21068 0.82699 0.0
C256 C 0.70084 0.16942 0.81633 0.0
H257 H 0.80508 0.31225 0.83982 0.0
H258 H 0.80767 0.18818 0.82902 0.0
S259 S 0.52915 0.22801 0.80134 0.0
N260 N 0.57656 0.29892 0.8128 0.0
N261 N 0.58056 0.16519 0.80229 0.0
C262 C 0.63991 0.20071 0.81265 0.0
C263 C 0.63806 0.27346 0.81805 0.0
C264 C 0.78238 0.71942 0.54843 0.0
C265 C 0.72803 0.75116 0.52708 0.0
C266 C 0.78342 0.64587 0.55497 0.0
C267 C 0.7305 0.60062 0.54031 0.0
H268 H 0.82451 0.75152 0.56064 0.0
H269 H 0.8261 0.62407 0.57161 0.0
S270 S 0.57622 0.65458 0.48311 0.0
N271 N 0.61953 0.72963 0.49125 0.0
N272 N 0.62184 0.59188 0.50426 0.0
C273 C 0.67604 0.63096 0.51893 0.0
C274 C 0.67472 0.70594 0.51217 0.0
C275 C 1.0918 0.86971 0.82885 0.0
C276 C 1.0256 0.85995 0.84093 0.0
C277 C 0.13875 0.91642 0.84695 0.0
C278 C 1.12175 0.94967 0.88005 0.0
H279 H 1.11033 0.83457 0.80989 0.0
H280 H 0.19018 0.91398 0.84 0.0
S281 S 0.94713 0.98314 0.89728 0.0
N282 N 0.93875 0.91711 0.86916 0.0
N283 N 1.02886 1.00503 0.90322 0.0
C284 C 1.05287 0.95855 0.88132 0.0
C285 C 1.00423 0.91141 0.86275 0.0
C286 C 0.38116 0.97535 0.17479 0.0
C287 C 0.35883 0.9046 0.18562 0.0
C288 C 0.44489 1.0034 0.18822 0.0
C289 C 0.48859 0.96124 0.21217 0.0
H290 H 0.34852 1.0096 0.15666 0.0
H291 H 0.45984 0.05856 0.1805 0.0
S292 S 0.45676 0.77245 0.24662 0.0
N293 N 0.38686 0.79281 0.22091 0.0
N294 N 0.50748 0.84547 0.24457 0.0
C295 C 0.46792 0.89027 0.22216 0.0
C296 C 0.40276 0.86197 0.20932 0.0
C297 C 0.66707 0.22403 0.52912 0.0
C298 C 0.7245 0.19501 0.51798 0.0
C299 C 0.66786 0.29592 0.53397 0.0
C300 C 0.7258 0.34189 0.52769 0.0
H301 H 0.62159 0.19068 0.53539 0.0
H302 H 0.6239 0.31532 0.54465 0.0
S303 S 0.8888 0.29495 0.49727 0.0
N304 N 0.84068 0.22014 0.49943 0.0
N305 N 0.84136 0.35469 0.50924 0.0
C306 C 0.78263 0.3147 0.51521 0.0
C307 C 0.78214 0.2415 0.51014 0.0
C308 C 0.36505 0.74402 0.91206 0.0
C309 C 0.32837 0.69458 0.88919 0.0
C310 C 0.3329 0.79571 0.92795 0.0
C311 C 0.2633 0.79894 0.92163 0.0
H312 H 0.41914 0.74385 0.91682 0.0
H313 H 0.36227 0.8335 0.94507 0.0
S314 S 0.14452 0.6818 0.86464 0.0
N315 N 0.21844 0.65111 0.86229 0.0
N316 N 0.15879 0.75021 0.89065 0.0
C317 C 0.22619 0.75004 0.8989 0.0
C318 C 0.25853 0.69718 0.88315 0.0
C319 C 0.81967 0.08741 0.18639 0.0
C320 C 0.83156 0.15961 0.19098 0.0
C321 C 0.76455 0.04705 0.2032 0.0
C322 C 0.7198 0.07738 0.22529 0.0
H323 H 0.85125 0.0627 0.16814 0.0
H324 H 0.75519 0.99241 0.19764 0.0
S325 S 0.73264 0.26149 0.24997 0.0
N326 N 0.79756 0.25772 0.22274 0.0
N327 N 0.69317 0.18186 0.25324 0.0
C328 C 0.73319 0.14814 0.23204 0.0
C329 C 0.7892 0.18931 0.21506 0.0
C330 C 1.06287 0.67969 0.99263 0.0
C331 C 1.10636 0.63996 0.0183 0.0
C332 C 1.08616 0.74346 0.97204 0.0
C333 C 0.15321 0.77175 0.97772 0.0
H334 H 1.00972 0.66276 0.98975 0.0
H335 H 1.05102 0.77122 0.95197 0.0
S336 S 0.28925 0.6839 0.03747 0.0
N337 N 0.22181 0.62834 0.04368 0.0
N338 N 0.26395 0.75209 0.00834 0.0
C339 C 0.19793 0.73079 0.00168 0.0
C340 C 0.1749 0.66399 0.02113 0.0
C341 C 0.66662 0.07242 0.37573 0.0
C342 C 0.70832 1.02 0.39196 0.0
C343 C 0.64779 0.08024 0.33496 0.0
C344 C 0.66956 0.03579 0.309 0.0
H345 H 0.64563 0.10551 0.39493 0.0
H346 H 0.61198 0.11782 0.32402 0.0
S347 S 0.78551 0.89645 0.33491 0.0
N348 N 0.7767 0.92806 0.37772 0.0
N349 N 0.73956 0.94246 0.30101 0.0
C350 C 0.71546 0.98726 0.32399 0.0
C351 C 0.73525 0.97938 0.36556 0.0
C352 C 0.6656 0.53946 0.6765 0.0
C353 C 0.72206 0.53881 0.70383 0.0
C354 C 0.67154 0.52999 0.63633 0.0
C355 C 0.73405 0.52051 0.62222 0.0
H356 H 0.61591 0.5434 0.68655 0.0
H357 H 0.62662 0.52556 0.6167 0.0
S358 S 0.89825 0.52466 0.67933 0.0
N359 N 0.84378 0.53572 0.71231 0.0
N360 N 0.85382 0.51752 0.63674 0.0
C361 C 0.7913 0.52496 0.64823 0.0
C362 C 0.78557 0.53413 0.68912 0.0
C363 C 0.78562 0.99873 0.66178 0.0
C364 C 0.73097 0.96268 0.64189 0.0
C365 C 0.78207 1.01445 0.70109 0.0
C366 C 0.72408 0.99447 0.72214 0.0
H367 H 0.83043 1.01809 0.64637 0.0
H368 H 0.82384 0.04514 0.71469 0.0
S369 S 0.5704 0.892 0.68647 0.0
N370 N 0.61931 0.90116 0.64842 0.0
N371 N 0.61327 0.93224 0.72218 0.0
C372 C 0.67102 0.95443 0.70397 0.0
C373 C 0.67433 0.93815 0.66387 0.0
C374 C 0.62868 0.48198 0.96874 0.0
C375 C 0.67008 0.53732 0.94996 0.0
C376 C 0.6088 0.48412 0.00755 0.0
C377 C 0.62843 0.54216 0.02896 0.0
H378 H 0.60992 0.43728 0.95294 0.0
H379 H 0.57516 0.44151 0.02038 0.0
S380 S 0.73967 0.69883 0.99476 0.0
N381 N 0.73379 0.64993 0.95706 0.0
N382 N 0.69395 0.65475 0.02964 0.0
C383 C 0.67225 0.59636 0.01149 0.0
C384 C 0.69362 0.59377 0.97205 0.0
C385 C 1.12186 0.4615 0.2698 0.0
C386 C 1.07888 0.5108 0.25129 0.0
C387 C 0.1379 0.45797 0.31106 0.0
C388 C 1.1105 0.50282 0.33477 0.0
H389 H 0.14701 0.42933 0.25197 0.0
H390 H 0.17539 0.42371 0.32402 0.0
S391 S 0.98598 0.63107 0.30157 0.0
N392 N 1.00321 0.59907 0.26026 0.0
N393 N 1.0312 0.58997 0.33798 0.0
C394 C 1.06265 0.54721 0.3171 0.0
C395 C 1.04749 0.55197 0.2752 0.0
loop_
_geom_bond_atom_site_label_1
_geom_bond_atom_site_label_2
_geom_bond_distance
_geom_bond_site_symmetry_2
_ccdc_geom_bond_type
Dy0 O3 2.307 1_455 S
Dy0 O5 2.395 . S
Dy0 O6 2.379 . S
Dy0 O8 2.339 . S
Dy0 O10 2.298 . S
Dy0 O14 2.275 . S
Dy0 C22 2.738 . S
Dy1 O4 2.298 . S
Dy1 O7 2.274 1_655 S
Dy1 O9 2.307 1_655 S
Dy1 O11 2.395 . S
Dy1 O12 2.379 . S
Dy1 O15 2.339 . S
Dy1 C31 2.738 . S
C2 O14 1.254 . S
C2 O15 1.257 1_455 S
O3 Dy0 2.307 1_655 S
O3 C13 1.266 . S
O4 Dy1 2.298 . S
O4 C13 1.236 . S
O5 Dy0 2.395 . S
O5 C22 1.255 . S
O6 Dy0 2.379 . S
O6 C22 1.249 . S
O7 Dy1 2.274 1_455 S
O7 C23 1.254 . S
O8 Dy0 2.339 . S
O8 C23 1.257 . S
O9 Dy1 2.307 1_455 S
O9 C24 1.266 . S
O10 Dy0 2.298 . S
O10 C24 1.236 . S
O11 Dy1 2.395 . S
O11 C31 1.255 . S
O12 Dy1 2.379 . S
O12 C31 1.249 . S
C13 O3 1.266 . S
C13 O4 1.236 . S
O14 Dy0 2.275 . S
O14 C2 1.254 . S
O15 Dy1 2.339 . S
O15 C2 1.257 1_655 S
C16 C19 1.344 . S
C16 C20 1.328 . S
C16 C22 1.516 . S
C17 C18 1.304 . S
C17 C21 1.323 . S
C18 C17 1.304 . S
C18 C19 1.371 . S
C18 H32 0.930 . S
C19 C16 1.344 . S
C19 C18 1.371 . S
C19 H33 0.931 . S
C20 C16 1.328 . S
C20 C21 1.433 . S
C20 H34 0.931 . S
C21 C17 1.323 . S
C21 C20 1.433 . S
C21 H35 0.933 . S
C22 Dy0 2.738 . S
C22 O5 1.255 . S
C22 O6 1.249 . S
C22 C16 1.516 . S
C23 O7 1.254 . S
C23 O8 1.257 . S
C24 O9 1.266 . S
C24 O10 1.236 . S
C25 C28 1.344 . S
C25 C29 1.328 . S
C25 C31 1.516 . S
C26 C27 1.304 . S
C26 C30 1.323 . S
C27 C26 1.304 . S
C27 C28 1.371 . S
C27 H36 0.930 . S
C28 C25 1.344 . S
C28 C27 1.371 . S
C28 H37 0.931 . S
C29 C25 1.328 . S
C29 C30 1.433 . S
C29 H38 0.931 . S
C30 C26 1.323 . S
C30 C29 1.433 . S
C30 H39 0.933 . S
C31 Dy1 2.738 . S
C31 O11 1.255 . S
C31 O12 1.249 . S
C31 C25 1.516 . S
H32 C18 0.930 . S
H33 C19 0.931 . S
H34 C20 0.931 . S
H35 C21 0.933 . S
H36 C27 0.930 . S
H37 C28 0.931 . S
H38 C29 0.931 . S
H39 C30 0.933 . S
Dy40 O43 2.307 1_565 S
Dy40 O45 2.395 . S
Dy40 O46 2.379 . S
Dy40 O48 2.339 . S
Dy40 O50 2.298 . S
Dy40 O54 2.275 . S
Dy40 C62 2.738 . S
Dy41 O44 2.298 . S
Dy41 O47 2.275 . S
Dy41 O49 2.307 1_545 S
Dy41 O51 2.395 . S
Dy41 O52 2.379 . S
Dy41 O55 2.339 . S
Dy41 C71 2.738 . S
C42 O54 1.254 1_545 S
C42 O55 1.258 . S
O43 Dy40 2.307 1_545 S
O43 C53 1.266 . S
O44 Dy41 2.298 . S
O44 C53 1.236 . S
O45 Dy40 2.395 . S
O45 C62 1.255 . S
O46 Dy40 2.379 . S
O46 C62 1.249 . S
O47 Dy41 2.275 . S
O47 C63 1.254 . S
O48 Dy40 2.339 . S
O48 C63 1.257 1_565 S
O49 Dy41 2.307 1_565 S
O49 C64 1.266 . S
O50 Dy40 2.298 . S
O50 C64 1.236 . S
O51 Dy41 2.395 . S
O51 C71 1.255 . S
O52 Dy41 2.379 . S
O52 C71 1.249 . S
C53 O43 1.266 . S
C53 O44 1.236 . S
O54 Dy40 2.275 . S
O54 C42 1.254 1_565 S
O55 Dy41 2.339 . S
O55 C42 1.258 . S
C56 C59 1.344 . S
C56 C60 1.328 . S
C56 C62 1.516 . S
C57 C58 1.304 . S
C57 C61 1.323 . S
C58 C57 1.304 . S
C58 C59 1.371 . S
C58 H72 0.930 . S
C59 C56 1.344 . S
C59 C58 1.371 . S
C59 H73 0.931 . S
C60 C56 1.328 . S
C60 C61 1.433 . S
C60 H74 0.931 . S
C61 C57 1.323 . S
C61 C60 1.433 . S
C61 H75 0.933 . S
C62 Dy40 2.738 . S
C62 O45 1.255 . S
C62 O46 1.249 . S
C62 C56 1.516 . S
C63 O47 1.254 . S
C63 O48 1.257 1_545 S
C64 O49 1.266 . S
C64 O50 1.236 . S
C65 C68 1.344 . S
C65 C69 1.328 . S
C65 C71 1.516 . S
C66 C67 1.304 . S
C66 C70 1.323 . S
C67 C66 1.304 . S
C67 C68 1.371 . S
C67 H76 0.930 . S
C68 C65 1.344 . S
C68 C67 1.371 . S
C68 H77 0.931 . S
C69 C65 1.328 . S
C69 C70 1.433 . S
C69 H78 0.931 . S
C70 C66 1.323 . S
C70 C69 1.433 . S
C70 H79 0.933 . S
C71 Dy41 2.738 . S
C71 O51 1.255 . S
C71 O52 1.249 . S
C71 C65 1.516 . S
H72 C58 0.930 . S
H73 C59 0.931 . S
H74 C60 0.931 . S
H75 C61 0.933 . S
H76 C67 0.930 . S
H77 C68 0.931 . S
H78 C69 0.931 . S
H79 C70 0.933 . S
Dy80 O83 2.307 . S
Dy80 O85 2.395 . S
Dy80 O86 2.379 . S
Dy80 O88 2.339 . S
Dy80 O90 2.298 . S
Dy80 O94 2.275 . S
Dy80 C102 2.738 . S
Dy81 O84 2.298 . S
Dy81 O87 2.275 . S
Dy81 O89 2.307 . S
Dy81 O91 2.395 . S
Dy81 O92 2.379 . S
Dy81 O95 2.339 . S
Dy81 C111 2.738 . S
C82 O94 1.254 . S
C82 O95 1.257 . S
O83 Dy80 2.307 . S
O83 C93 1.266 . S
O84 Dy81 2.298 . S
O84 C93 1.236 . S
O85 Dy80 2.395 . S
O85 C102 1.255 . S
O86 Dy80 2.379 . S
O86 C102 1.249 . S
O87 Dy81 2.275 . S
O87 C103 1.254 . S
O88 Dy80 2.339 . S
O88 C103 1.257 . S
O89 Dy81 2.307 . S
O89 C104 1.266 . S
O90 Dy80 2.298 . S
O90 C104 1.236 . S
O91 Dy81 2.395 . S
O91 C111 1.255 . S
O92 Dy81 2.379 . S
O92 C111 1.249 . S
C93 O83 1.266 . S
C93 O84 1.236 . S
O94 Dy80 2.275 . S
O94 C82 1.254 . S
O95 Dy81 2.339 . S
O95 C82 1.257 . S
C96 C99 1.344 . S
C96 C100 1.328 . S
C96 C102 1.516 . S
C97 C98 1.304 . S
C97 C101 1.323 . S
C98 C97 1.304 . S
C98 C99 1.371 . S
C98 H112 0.930 . S
C99 C96 1.344 . S
C99 C98 1.371 . S
C99 H113 0.931 . S
C100 C96 1.328 . S
C100 C101 1.433 . S
C100 H114 0.931 . S
C101 C97 1.323 . S
C101 C100 1.433 . S
C101 H115 0.933 . S
C102 Dy80 2.738 . S
C102 O85 1.255 . S
C102 O86 1.249 . S
C102 C96 1.516 . S
C103 O87 1.254 . S
C103 O88 1.257 . S
C104 O89 1.266 . S
C104 O90 1.236 . S
C105 C108 1.344 . S
C105 C109 1.328 . S
C105 C111 1.516 . S
C106 C107 1.304 . S
C106 C110 1.323 . S
C107 C106 1.304 . S
C107 C108 1.371 . S
C107 H116 0.930 . S
C108 C105 1.344 . S
C108 C107 1.371 . S
C108 H117 0.931 . S
C109 C105 1.328 . S
C109 C110 1.433 . S
C109 H118 0.931 . S
C110 C106 1.323 . S
C110 C109 1.433 . S
C110 H119 0.933 . S
C111 Dy81 2.738 . S
C111 O91 1.255 . S
C111 O92 1.249 . S
C111 C105 1.516 . S
H112 C98 0.930 . S
H113 C99 0.931 . S
H114 C100 0.931 . S
H115 C101 0.933 . S
H116 C107 0.930 . S
H117 C108 0.931 . S
H118 C109 0.931 . S
H119 C110 0.933 . S
C120 N121 1.317 . S
C120 N122 1.348 1_545 S
C120 C123 1.485 . S
N121 C120 1.317 . S
N121 N125 1.370 . S
N122 C120 1.348 1_565 S
N122 C124 1.346 . S
C123 C120 1.485 . S
C123 H127 0.960 . S
C123 H128 0.961 1_545 S
C123 H129 0.960 . S
C124 N122 1.346 . S
C124 N125 1.307 1_565 S
C124 C126 1.486 . S
N125 N121 1.370 . S
N125 C124 1.307 1_545 S
C126 C124 1.486 . S
C126 H130 0.960 . S
C126 H131 0.960 . S
C126 H132 0.959 . S
H127 C123 0.960 . S
H128 C123 0.961 1_565 S
H129 C123 0.960 . S
H130 C126 0.960 . S
H131 C126 0.960 . S
H132 C126 0.959 . S
C133 N134 1.317 . S
C133 N135 1.348 . S
C133 C136 1.485 . S
N134 C133 1.317 . S
N134 N138 1.370 . S
N135 C133 1.348 . S
N135 C137 1.346 . S
C136 C133 1.485 . S
C136 H140 0.960 . S
C136 H141 0.961 . S
C136 H142 0.960 . S
C137 N135 1.346 . S
C137 N138 1.307 . S
C137 C139 1.486 . S
N138 N134 1.370 . S
N138 C137 1.307 . S
C139 C137 1.486 . S
C139 H143 0.960 . S
C139 H144 0.960 . S
C139 H145 0.959 . S
H140 C136 0.960 . S
H141 C136 0.961 . S
H142 C136 0.960 . S
H143 C139 0.960 . S
H144 C139 0.960 . S
H145 C139 0.959 . S
C146 N147 1.317 . S
C146 N148 1.348 1_455 S
C146 C149 1.485 . S
N147 C146 1.317 . S
N147 N151 1.370 . S
N148 C146 1.348 1_655 S
N148 C150 1.346 . S
C149 C146 1.485 . S
C149 H153 0.960 . S
C149 H154 0.961 1_455 S
C149 H155 0.960 . S
C150 N148 1.346 . S
C150 N151 1.307 1_655 S
C150 C152 1.486 . S
N151 N147 1.370 . S
N151 C150 1.307 1_455 S
C152 C150 1.486 . S
C152 H156 0.960 . S
C152 H157 0.960 . S
C152 H158 0.959 . S
H153 C149 0.960 . S
H154 C149 0.961 1_655 S
H155 C149 0.960 . S
H156 C152 0.960 . S
H157 C152 0.960 . S
H158 C152 0.959 . S
C159 N160 1.317 . S
C159 N161 1.348 . S
C159 C162 1.485 . S
N160 C159 1.317 . S
N160 N164 1.370 . S
N161 C159 1.348 . S
N161 C163 1.346 . S
C162 C159 1.485 . S
C162 H166 0.960 . S
C162 H167 0.961 . S
C162 H168 0.960 . S
C163 N161 1.346 . S
C163 N164 1.307 . S
C163 C165 1.486 . S
N164 N160 1.370 . S
N164 C163 1.307 . S
C165 C163 1.486 . S
C165 H169 0.960 . S
C165 H170 0.960 . S
C165 H171 0.959 . S
H166 C162 0.960 . S
H167 C162 0.961 . S
H168 C162 0.960 . S
H169 C165 0.960 . S
H170 C165 0.960 . S
H171 C165 0.959 . S
C172 N173 1.317 1_545 S
C172 N174 1.348 . S
C172 C175 1.485 . S
N173 C172 1.317 1_565 S
N173 N177 1.370 1_565 S
N174 C172 1.348 . S
N174 C176 1.346 . S
C175 C172 1.485 . S
C175 H179 0.960 . S
C175 H180 0.961 . S
C175 H181 0.960 1_545 S
C176 N174 1.346 . S
C176 N177 1.307 . S
C176 C178 1.486 . S
N177 N173 1.370 1_545 S
N177 C176 1.307 . S
C178 C176 1.486 . S
C178 H182 0.960 . S
C178 H183 0.960 . S
C178 H184 0.959 . S
H179 C175 0.960 . S
H180 C175 0.961 . S
H181 C175 0.960 1_565 S
H182 C178 0.960 . S
H183 C178 0.960 . S
H184 C178 0.959 . S
C185 N186 1.317 . S
C185 N187 1.348 . S
C185 C188 1.485 . S
N186 C185 1.317 . S
N186 N190 1.370 . S
N187 C185 1.348 . S
N187 C189 1.346 . S
C188 C185 1.485 . S
C188 H192 0.960 . S
C188 H193 0.961 . S
C188 H194 0.960 . S
C189 N187 1.346 . S
C189 N190 1.307 . S
C189 C191 1.486 . S
N190 N186 1.370 . S
N190 C189 1.307 . S
C191 C189 1.486 . S
C191 H195 0.960 . S
C191 H196 0.960 . S
C191 H197 0.959 . S
H192 C188 0.960 . S
H193 C188 0.961 . S
H194 C188 0.960 . S
H195 C191 0.960 . S
H196 C191 0.960 . S
H197 C191 0.959 . S
C198 C199 1.369 . S
C198 C200 1.419 . S
C198 H202 0.930 . S
C199 C198 1.369 . S
C199 C208 1.429 . S
C200 C198 1.419 . S
C200 C201 1.363 . S
C200 H203 0.929 . S
C201 C200 1.363 . S
C201 C207 1.428 . S
H202 C198 0.930 . S
H203 C200 0.929 . S
S204 N205 1.613 . S
S204 N206 1.610 . S
N205 S204 1.613 . S
N205 C208 1.350 . S
N206 S204 1.610 . S
N206 C207 1.351 . S
C207 C201 1.428 . S
C207 N206 1.351 . S
C207 C208 1.434 . S
C208 C199 1.429 . S
C208 N205 1.350 . S
C208 C207 1.434 . S
C209 C210 1.369 . S
C209 C211 1.419 . S
C209 H213 0.930 . S
C210 C209 1.369 . S
C210 C219 1.429 . S
C211 C209 1.419 . S
C211 C212 1.363 . S
C211 H214 0.929 . S
C212 C211 1.363 . S
C212 C218 1.428 . S
H213 C209 0.930 . S
H214 C211 0.929 . S
S215 N216 1.613 . S
S215 N217 1.610 . S
N216 S215 1.613 . S
N216 C219 1.350 . S
N217 S215 1.610 . S
N217 C218 1.351 . S
C218 C212 1.428 . S
C218 N217 1.351 . S
C218 C219 1.434 . S
C219 C210 1.429 . S
C219 N216 1.350 . S
C219 C218 1.434 . S
C220 C221 1.369 . S
C220 C222 1.419 . S
C220 H224 0.930 . S
C221 C220 1.369 . S
C221 C230 1.429 . S
C222 C220 1.419 . S
C222 C223 1.363 . S
C222 H225 0.929 . S
C223 C222 1.363 . S
C223 C229 1.428 . S
H224 C220 0.930 . S
H225 C222 0.929 . S
S226 N227 1.613 . S
S226 N228 1.610 . S
N227 S226 1.613 . S
N227 C230 1.350 . S
N228 S226 1.610 . S
N228 C229 1.351 . S
C229 C223 1.428 . S
C229 N228 1.351 . S
C229 C230 1.434 . S
C230 C221 1.429 . S
C230 N227 1.350 . S
C230 C229 1.434 . S
C231 C232 1.369 . S
C231 C233 1.419 . S
C231 H235 0.930 . S
C232 C231 1.369 . S
C232 C241 1.429 . S
C233 C231 1.419 . S
C233 C234 1.363 . S
C233 H236 0.929 . S
C234 C233 1.363 . S
C234 C240 1.428 . S
H235 C231 0.930 . S
H236 C233 0.929 . S
S237 N238 1.613 . S
S237 N239 1.610 . S
N238 S237 1.613 . S
N238 C241 1.350 . S
N239 S237 1.610 . S
N239 C240 1.351 . S
C240 C234 1.428 . S
C240 N239 1.351 . S
C240 C241 1.434 . S
C241 C232 1.429 . S
C241 N238 1.350 . S
C241 C240 1.434 . S
C242 C243 1.369 . S
C242 C244 1.419 . S
C242 H246 0.930 . S
C243 C242 1.369 . S
C243 C252 1.429 . S
C244 C242 1.419 . S
C244 C245 1.363 . S
C244 H247 0.929 . S
C245 C244 1.363 . S
C245 C251 1.428 . S
H246 C242 0.930 . S
H247 C244 0.929 . S
S248 N249 1.613 . S
S248 N250 1.610 . S
N249 S248 1.613 . S
N249 C252 1.350 . S
N250 S248 1.610 . S
N250 C251 1.351 . S
C251 C245 1.428 . S
C251 N250 1.351 . S
C251 C252 1.434 . S
C252 C243 1.429 . S
C252 N249 1.350 . S
C252 C251 1.434 . S
C253 C254 1.369 . S
C253 C255 1.419 . S
C253 H257 0.930 . S
C254 C253 1.369 . S
C254 C263 1.429 . S
C255 C253 1.419 . S
C255 C256 1.363 . S
C255 H258 0.929 . S
C256 C255 1.363 . S
C256 C262 1.428 . S
H257 C253 0.930 . S
H258 C255 0.929 . S
S259 N260 1.613 . S
S259 N261 1.610 . S
N260 S259 1.613 . S
N260 C263 1.350 . S
N261 S259 1.610 . S
N261 C262 1.351 . S
C262 C256 1.428 . S
C262 N261 1.351 . S
C262 C263 1.434 . S
C263 C254 1.429 . S
C263 N260 1.350 . S
C263 C262 1.434 . S
C264 C265 1.369 . S
C264 C266 1.419 . S
C264 H268 0.930 . S
C265 C264 1.369 . S
C265 C274 1.429 . S
C266 C264 1.419 . S
C266 C267 1.363 . S
C266 H269 0.929 . S
C267 C266 1.363 . S
C267 C273 1.428 . S
H268 C264 0.930 . S
H269 C266 0.929 . S
S270 N271 1.613 . S
S270 N272 1.610 . S
N271 S270 1.613 . S
N271 C274 1.350 . S
N272 S270 1.610 . S
N272 C273 1.351 . S
C273 C267 1.428 . S
C273 N272 1.351 . S
C273 C274 1.434 . S
C274 C265 1.429 . S
C274 N271 1.350 . S
C274 C273 1.434 . S
C275 C276 1.369 . S
C275 C277 1.419 . S
C275 H279 0.930 . S
C276 C275 1.369 . S
C276 C285 1.429 . S
C277 C275 1.419 . S
C277 C278 1.363 . S
C277 H280 0.929 . S
C278 C277 1.363 . S
C278 C284 1.428 . S
H279 C275 0.930 . S
H280 C277 0.929 . S
S281 N282 1.613 . S
S281 N283 1.610 . S
N282 S281 1.613 . S
N282 C285 1.350 . S
N283 S281 1.610 . S
N283 C284 1.351 . S
C284 C278 1.428 . S
C284 N283 1.351 . S
C284 C285 1.434 . S
C285 C276 1.429 . S
C285 N282 1.350 . S
C285 C284 1.434 . S
C286 C287 1.369 . S
C286 C288 1.419 . S
C286 H290 0.930 . S
C287 C286 1.369 . S
C287 C296 1.429 . S
C288 C286 1.419 . S
C288 C289 1.363 . S
C288 H291 0.929 . S
C289 C288 1.363 . S
C289 C295 1.428 . S
H290 C286 0.930 . S
H291 C288 0.929 . S
S292 N293 1.613 . S
S292 N294 1.610 . S
N293 S292 1.613 . S
N293 C296 1.350 . S
N294 S292 1.610 . S
N294 C295 1.351 . S
C295 C289 1.428 . S
C295 N294 1.351 . S
C295 C296 1.434 . S
C296 C287 1.429 . S
C296 N293 1.350 . S
C296 C295 1.434 . S
C297 C298 1.369 . S
C297 C299 1.419 . S
C297 H301 0.930 . S
C298 C297 1.369 . S
C298 C307 1.429 . S
C299 C297 1.419 . S
C299 C300 1.363 . S
C299 H302 0.929 . S
C300 C299 1.363 . S
C300 C306 1.428 . S
H301 C297 0.930 . S
H302 C299 0.929 . S
S303 N304 1.613 . S
S303 N305 1.610 . S
N304 S303 1.613 . S
N304 C307 1.350 . S
N305 S303 1.610 . S
N305 C306 1.351 . S
C306 C300 1.428 . S
C306 N305 1.351 . S
C306 C307 1.434 . S
C307 C298 1.429 . S
C307 N304 1.350 . S
C307 C306 1.434 . S
C308 C309 1.369 . S
C308 C310 1.419 . S
C308 H312 0.930 . S
C309 C308 1.369 . S
C309 C318 1.429 . S
C310 C308 1.419 . S
C310 C311 1.363 . S
C310 H313 0.929 . S
C311 C310 1.363 . S
C311 C317 1.428 . S
H312 C308 0.930 . S
H313 C310 0.929 . S
S314 N315 1.613 1_655 S
S314 N316 1.609 1_655 S
N315 S314 1.613 1_455 S
N315 C318 1.350 . S
N316 S314 1.609 1_455 S
N316 C317 1.370 . S
C317 C311 1.428 . S
C317 N316 1.370 . S
C317 C318 1.434 . S
C318 C309 1.429 . S
C318 N315 1.350 . S
C318 C317 1.434 . S
C319 C320 1.369 . S
C319 C321 1.419 . S
C319 H323 0.930 . S
C320 C319 1.369 . S
C320 C329 1.429 . S
C321 C319 1.419 . S
C321 C322 1.363 . S
C321 H324 0.929 . S
C322 C321 1.363 . S
C322 C328 1.428 . S
H323 C319 0.930 . S
H324 C321 0.929 . S
S325 N326 1.613 . S
S325 N327 1.610 . S
N326 S325 1.613 . S
N326 C329 1.350 . S
N327 S325 1.610 . S
N327 C328 1.351 . S
C328 C322 1.428 . S
C328 N327 1.351 . S
C328 C329 1.434 . S
C329 C320 1.429 . S
C329 N326 1.350 . S
C329 C328 1.434 . S
C330 C331 1.369 1_655 S
C330 C332 1.419 1_654 S
C330 H334 0.930 . S
C331 C330 1.369 1_455 S
C331 C340 1.429 . S
C332 C330 1.419 1_456 S
C332 C333 1.363 . S
C332 H335 0.929 1_455 S
C333 C332 1.363 . S
C333 C339 1.428 . S
H334 C330 0.930 . S
H335 C332 0.929 1_655 S
S336 N337 1.613 . S
S336 N338 1.610 1_554 S
N337 S336 1.613 . S
N337 C340 1.350 . S
N338 S336 1.610 1_556 S
N338 C339 1.351 . S
C339 C333 1.428 . S
C339 N338 1.351 . S
C339 C340 1.434 1_556 S
C340 C331 1.429 . S
C340 N337 1.350 . S
C340 C339 1.434 1_554 S
C341 C342 1.369 . S
C341 C343 1.419 . S
C341 H345 0.930 1_545 S
C342 C341 1.369 . S
C342 C351 1.429 . S
C343 C341 1.419 . S
C343 C344 1.363 . S
C343 H346 0.929 . S
C344 C343 1.363 . S
C344 C350 1.428 . S
H345 C341 0.930 1_565 S
H346 C343 0.929 . S
S347 N348 1.613 . S
S347 N349 1.610 . S
N348 S347 1.613 . S
N348 C351 1.350 . S
N349 S347 1.610 . S
N349 C350 1.351 . S
C350 C344 1.428 . S
C350 N349 1.351 . S
C350 C351 1.434 . S
C351 C342 1.429 . S
C351 N348 1.350 . S
C351 C350 1.434 . S
C352 C353 1.369 . S
C352 C354 1.419 . S
C352 H356 0.930 . S
C353 C352 1.369 . S
C353 C362 1.429 . S
C354 C352 1.419 . S
C354 C355 1.363 . S
C354 H357 0.929 . S
C355 C354 1.363 . S
C355 C361 1.428 . S
H356 C352 0.930 . S
H357 C354 0.929 . S
S358 N359 1.613 . S
S358 N360 1.610 . S
N359 S358 1.613 . S
N359 C362 1.350 . S
N360 S358 1.610 . S
N360 C361 1.351 . S
C361 C355 1.428 . S
C361 N360 1.351 . S
C361 C362 1.434 . S
C362 C353 1.429 . S
C362 N359 1.350 . S
C362 C361 1.434 . S
C363 C364 1.369 . S
C363 C365 1.419 . S
C363 H367 0.930 . S
C364 C363 1.369 . S
C364 C373 1.429 1_565 S
C365 C363 1.419 . S
C365 C366 1.363 1_565 S
C365 H368 0.929 . S
C366 C365 1.363 1_545 S
C366 C372 1.428 . S
H367 C363 0.930 . S
H368 C365 0.929 . S
S369 N370 1.613 . S
S369 N371 1.610 . S
N370 S369 1.613 . S
N370 C373 1.350 . S
N371 S369 1.610 . S
N371 C372 1.351 . S
C372 C366 1.428 . S
C372 N371 1.351 . S
C372 C373 1.434 . S
C373 C364 1.429 1_545 S
C373 N370 1.350 . S
C373 C372 1.434 . S
C374 C375 1.369 . S
C374 C376 1.419 1_556 S
C374 H378 0.930 . S
C375 C374 1.369 . S
C375 C384 1.429 . S
C376 C374 1.419 1_554 S
C376 C377 1.363 . S
C376 H379 0.929 . S
C377 C376 1.363 . S
C377 C383 1.428 . S
H378 C374 0.930 . S
H379 C376 0.929 . S
S380 N381 1.613 . S
S380 N382 1.610 1_556 S
N381 S380 1.613 . S
N381 C384 1.350 . S
N382 S380 1.610 1_554 S
N382 C383 1.351 . S
C383 C377 1.428 . S
C383 N382 1.351 . S
C383 C384 1.434 1_554 S
C384 C375 1.429 . S
C384 N381 1.350 . S
C384 C383 1.434 1_556 S
C385 C386 1.369 1_655 S
C385 C387 1.419 . S
C385 H389 0.930 . S
C386 C385 1.369 1_455 S
C386 C395 1.429 . S
C387 C385 1.419 . S
C387 C388 1.363 1_655 S
C387 H390 0.929 . S
C388 C387 1.363 1_455 S
C388 C394 1.428 . S
H389 C385 0.930 . S
H390 C387 0.929 . S
S391 N392 1.613 . S
S391 N393 1.610 . S
N392 S391 1.613 . S
N392 C395 1.350 . S
N393 S391 1.610 . S
N393 C394 1.351 . S
C394 C388 1.428 . S
C394 N393 1.351 . S
C394 C395 1.434 . S
C395 C386 1.429 . S
C395 N392 1.350 . S
C395 C394 1.434 . S
C199 C24 2.878 . S
C201 N187 2.853 . S
C210 C66 1.246 . S
C212 N160 1.279 1_655 S
C221 C93 1.795 . S
C223 N173 1.820 . S
C232 C13 3.297 . S
C234 N186 3.325 . S
C245 N161 1.484 . S
C243 C57 1.446 . S
C256 N174 1.964 . S
C254 C104 1.994 . S
C265 C64 1.865 . S
C267 N134 1.865 . S
C276 C97 0.767 . S
C278 N148 0.791 . S
C287 C17 1.493 . S
C289 N122 1.575 . S
C300 N135 1.882 . S
C298 C53 1.890 . S
C311 N147 0.888 . S
C309 C106 0.874 . S
C320 C26 1.358 . S
C322 N121 1.415 . S
C333 N151 1.131 . S
C331 C2 1.167 . S
C342 C63 1.495 . S
C344 N125 1.578 . S
C353 C82 1.432 . S
C355 N138 1.425 . S
C366 N177 1.538 . S
C364 C42 1.521 1_565 S
C377 N190 1.779 . S
C375 C103 1.739 . S
C386 C23 1.489 . S
C388 N164 1.566 . S
