# Generated by pormake.
# Topology zzz, (3,6)-cn, num edge types: 1
# Building blocks:
#     Node 0, Type 0, BuildingBlock: QEWDON_clean_linker_0, # of connection points: 3
#     Node 1, Type 0, BuildingBlock: QEWDON_clean_linker_0, # of connection points: 3
#     Node 2, Type 0, BuildingBlock: QEWDON_clean_linker_0, # of connection points: 3
#     Node 3, Type 0, BuildingBlock: QEWDON_clean_linker_0, # of connection points: 3
#     Node 4, Type 0, BuildingBlock: QEWDON_clean_linker_0, # of connection points: 3
#     Node 5, Type 0, BuildingBlock: QEWDON_clean_linker_0, # of connection points: 3
#     Node 6, Type 0, BuildingBlock: QEWDON_clean_linker_0, # of connection points: 3
#     Node 7, Type 0, BuildingBlock: QEWDON_clean_linker_0, # of connection points: 3
#     Node 8, Type 1, BuildingBlock: FUNLAD_clean_sbu_0, # of connection points: 6
#     Node 9, Type 1, BuildingBlock: FUNLAD_clean_sbu_0, # of connection points: 6
#     Node 10, Type 1, BuildingBlock: FUNLAD_clean_sbu_0, # of connection points: 6
#     Node 11, Type 1, BuildingBlock: FUNLAD_clean_sbu_0, # of connection points: 6
#     Edge 12, Type (0, 1), BuildingBlock: TEMPAE_clean_linker_10, # of connection points: 2
#     Edge 13, Type (0, 1), BuildingBlock: TEMPAE_clean_linker_10, # of connection points: 2
#     Edge 14, Type (0, 1), BuildingBlock: TEMPAE_clean_linker_10, # of connection points: 2
#     Edge 15, Type (0, 1), BuildingBlock: TEMPAE_clean_linker_10, # of connection points: 2
#     Edge 16, Type (0, 1), BuildingBlock: TEMPAE_clean_linker_10, # of connection points: 2
#     Edge 17, Type (0, 1), BuildingBlock: TEMPAE_clean_linker_10, # of connection points: 2
#     Edge 18, Type (0, 1), BuildingBlock: TEMPAE_clean_linker_10, # of connection points: 2
#     Edge 19, Type (0, 1), BuildingBlock: TEMPAE_clean_linker_10, # of connection points: 2
#     Edge 20, Type (0, 1), BuildingBlock: TEMPAE_clean_linker_10, # of connection points: 2
#     Edge 21, Type (0, 1), BuildingBlock: TEMPAE_clean_linker_10, # of connection points: 2
#     Edge 22, Type (0, 1), BuildingBlock: TEMPAE_clean_linker_10, # of connection points: 2
#     Edge 23, Type (0, 1), BuildingBlock: TEMPAE_clean_linker_10, # of connection points: 2
#     Edge 24, Type (0, 1), BuildingBlock: TEMPAE_clean_linker_10, # of connection points: 2
#     Edge 25, Type (0, 1), BuildingBlock: TEMPAE_clean_linker_10, # of connection points: 2
#     Edge 26, Type (0, 1), BuildingBlock: TEMPAE_clean_linker_10, # of connection points: 2
#     Edge 27, Type (0, 1), BuildingBlock: TEMPAE_clean_linker_10, # of connection points: 2
#     Edge 28, Type (0, 1), BuildingBlock: TEMPAE_clean_linker_10, # of connection points: 2
#     Edge 29, Type (0, 1), BuildingBlock: TEMPAE_clean_linker_10, # of connection points: 2
#     Edge 30, Type (0, 1), BuildingBlock: TEMPAE_clean_linker_10, # of connection points: 2
#     Edge 31, Type (0, 1), BuildingBlock: TEMPAE_clean_linker_10, # of connection points: 2
#     Edge 32, Type (0, 1), BuildingBlock: TEMPAE_clean_linker_10, # of connection points: 2
#     Edge 33, Type (0, 1), BuildingBlock: TEMPAE_clean_linker_10, # of connection points: 2
#     Edge 34, Type (0, 1), BuildingBlock: TEMPAE_clean_linker_10, # of connection points: 2
#     Edge 35, Type (0, 1), BuildingBlock: TEMPAE_clean_linker_10, # of connection points: 2
# Relax obj value: 0.080
# Max RMSD: 0.171
# Mean RMSD: 0.065
data_MOF--net-zzz--node1-FUNLAD_clean_sbu_0--node2-QEWDON_clean_linker_0--edge1-TEMPAE_clean_linker_10
_symmetry_space_group_name_H-M    P1
_symmetry_Int_Tables_number       1
_symmetry_cell_setting            triclinic
loop_
_symmetry_equiv_pos_as_xyz
'x, y, z'
_cell_length_a     55.314288
_cell_length_b     61.125614
_cell_length_c     17.37408
_cell_angle_alpha  84.984282
_cell_angle_beta   84.533951
_cell_angle_gamma 88.550757
loop_
_atom_site_label
_atom_site_type_symbol
_atom_site_fract_x
_atom_site_fract_y
_atom_site_fract_z
_atom_type_partial_charge
H0 H 0.81214 0.51929 0.13961 0.0
C1 C 0.81973 0.52015 0.19447 0.0
C2 C 0.8407 0.50762 0.20942 0.0
C3 C 0.80964 0.53493 0.24726 0.0
H4 H 0.86799 0.50092 0.28968 0.0
C5 C 0.85105 0.50949 0.27905 0.0
C6 C 0.8415 0.52422 0.33155 0.0
C7 C 0.82076 0.53682 0.31611 0.0
C8 C 0.78909 0.54985 0.22655 0.0
H9 H 0.81378 0.54844 0.35674 0.0
C10 C 0.77029 0.54244 0.18647 0.0
C11 C 0.7519 0.55699 0.16182 0.0
C12 C 0.78886 0.572 0.24304 0.0
H13 H 0.80326 0.57844 0.27212 0.0
C14 C 0.7704 0.58637 0.21994 0.0
H15 H 0.77016 0.52544 0.17324 0.0
C16 C 0.75209 0.57899 0.17929 0.0
H17 H 0.73799 0.59047 0.1618 0.0
H18 H 0.77046 0.60338 0.2328 0.0
H19 H 0.98835 0.79474 0.01553 0.0
C20 C 0.98787 0.80065 0.0727 0.0
C21 C 1.00091 0.81944 0.08286 0.0
C22 C 0.97288 0.79047 0.13514 0.0
H23 H 0.0085 0.84279 0.16263 0.0
C24 C 0.99943 0.82761 0.15585 0.0
C25 C 0.98379 0.81836 0.21727 0.0
C26 C 0.97058 0.79975 0.2071 0.0
C27 C 0.95788 0.77146 0.12332 0.0
H28 H 0.95818 0.79283 0.25457 0.0
C29 C 0.96818 0.75333 0.08635 0.0
C30 C 0.95375 0.7354 0.07514 0.0
C31 C 0.93298 0.77149 0.14865 0.0
H32 H 0.92452 0.78532 0.17638 0.0
C33 C 0.91862 0.75384 0.13739 0.0
H34 H 0.98736 0.75317 0.0666 0.0
C35 C 0.92887 0.73591 0.10099 0.0
H36 H 0.91738 0.72225 0.09412 0.0
H37 H 0.89946 0.75403 0.15712 0.0
H38 H 0.73872 0.99947 0.02173 0.0
C39 C 0.7284 0.99841 0.07814 0.0
C40 C 0.70489 0.00785 0.08605 0.0
C41 C 0.73779 0.98616 0.14173 0.0
H42 H 0.6725 0.0115 0.16352 0.0
C43 C 0.69104 0.00516 0.15794 0.0
C44 C 0.69956 0.99262 0.22101 0.0
C45 C 0.72315 0.98349 0.2135 0.0
C46 C 0.7608 0.97301 0.1299 0.0
H47 H 0.72957 0.97333 0.26197 0.0
C48 C 0.78274 0.98214 0.09304 0.0
C49 C 0.80398 0.96876 0.082 0.0
C50 C 0.76031 0.95045 0.15375 0.0
H51 H 0.74374 0.94287 0.18061 0.0
C52 C 0.78085 0.93719 0.14129 0.0
H53 H 0.78337 0.99954 0.07491 0.0
C54 C 0.80238 0.94615 0.10561 0.0
H55 H 0.81781 0.93515 0.09573 0.0
H56 H 0.78004 0.91977 0.15895 0.0
H57 H 0.529 0.69988 0.02861 0.0
C58 C 0.53123 0.69069 0.08378 0.0
C59 C 0.52024 0.67009 0.10092 0.0
C60 C 0.54632 0.69872 0.13576 0.0
H61 H 0.5171 0.64127 0.18194 0.0
C62 C 0.5245 0.65763 0.17005 0.0
C63 C 0.53972 0.66507 0.22148 0.0
C64 C 0.55016 0.68581 0.20534 0.0
C65 C 0.56063 0.71901 0.11325 0.0
H66 H 0.56215 0.69141 0.24512 0.0
C67 C 0.55009 0.73848 0.07974 0.0
C68 C 0.56447 0.75714 0.05658 0.0
C69 C 0.58559 0.71858 0.12324 0.0
H70 H 0.59435 0.70383 0.14727 0.0
C71 C 0.59974 0.73698 0.10087 0.0
H72 H 0.53091 0.73909 0.07143 0.0
C73 C 0.58933 0.75609 0.06781 0.0
H74 H 0.60074 0.77021 0.05163 0.0
H75 H 0.61892 0.7364 0.10894 0.0
H76 H 0.22889 0.53056 0.27844 0.0
C77 C 0.21982 0.52217 0.23719 0.0
C78 C 0.19441 0.52105 0.24552 0.0
C79 C 0.23332 0.51316 0.17401 0.0
H80 H 0.1629 0.50934 0.19934 0.0
C81 C 0.18257 0.51032 0.19242 0.0
C82 C 0.19559 0.50104 0.13013 0.0
C83 C 0.22093 0.50269 0.12034 0.0
C84 C 0.26021 0.51502 0.16305 0.0
H85 H 0.23092 0.49551 0.07174 0.0
C86 C 0.27426 0.51224 0.22692 0.0
C87 C 0.29972 0.51368 0.21603 0.0
C88 C 0.27203 0.51956 0.0882 0.0
H89 H 0.26177 0.52224 0.03805 0.0
C90 C 0.29726 0.52103 0.07722 0.0
H91 H 0.26549 0.50841 0.28485 0.0
C92 C 0.31105 0.51808 0.14053 0.0
H93 H 0.3306 0.51956 0.13057 0.0
H94 H 0.30615 0.52461 0.0194 0.0
H95 H 0.01996 0.21785 0.41907 0.0
C96 C 0.03127 0.2097 0.37543 0.0
C97 C 0.03801 0.18755 0.39042 0.0
C98 C 0.03831 0.22095 0.3026 0.0
H99 H 0.05553 0.1593 0.34338 0.0
C100 C 0.05172 0.17677 0.33291 0.0
C101 C 0.05823 0.18735 0.2596 0.0
C102 C 0.05172 0.20954 0.24488 0.0
C103 C 0.03036 0.24408 0.28428 0.0
H104 H 0.05669 0.21775 0.18793 0.0
C105 C 0.03209 0.26013 0.33708 0.0
C106 C 0.02575 0.28221 0.31678 0.0
C107 C 0.02139 0.25032 0.21232 0.0
H108 H 0.01935 0.23831 0.17121 0.0
C109 C 0.01477 0.2721 0.19266 0.0
H110 H 0.03914 0.25563 0.39252 0.0
C111 C 0.01708 0.28798 0.24418 0.0
H112 H 0.01184 0.30481 0.2276 0.0
H113 H 1.0079 0.27669 0.13712 0.0
H114 H 0.29838 0.99481 0.42786 0.0
C115 C 0.30964 1.00159 0.37745 0.0
C116 C 0.33496 1.00206 0.38005 0.0
C117 C 0.29923 0.00873 0.30806 0.0
H118 H 0.36931 0.01 0.31725 0.0
C119 C 0.34977 0.01016 0.31467 0.0
C120 C 0.34014 0.01745 0.24541 0.0
C121 C 0.31483 0.01677 0.24233 0.0
C122 C 0.27253 0.00633 0.30147 0.0
H123 H 0.30741 0.02251 0.18858 0.0
C124 C 0.2545 0.00968 0.36359 0.0
C125 C 0.22954 0.00776 0.35354 0.0
C126 C 0.26494 1.0003 0.23119 0.0
H127 H 0.27801 0.99674 0.18329 0.0
C128 C 0.2404 0.99839 0.22162 0.0
H129 H 0.2597 0.01423 0.41849 0.0
C130 C 0.22284 1.00223 0.28194 0.0
H131 H 0.20386 1.00058 0.27303 0.0
H132 H 0.23495 0.99382 0.16708 0.0
H133 H 0.54557 0.31246 0.40176 0.0
C134 C 0.53526 0.32136 0.35869 0.0
C135 C 0.52848 0.34336 0.36676 0.0
C136 C 0.53045 0.31146 0.29168 0.0
H137 H 0.51199 0.37245 0.31506 0.0
C138 C 0.51622 0.3552 0.30935 0.0
C139 C 0.5115 0.34581 0.24169 0.0
C140 C 0.51875 0.32385 0.23308 0.0
C141 C 0.54126 0.28963 0.27675 0.0
H142 H 0.51598 0.31658 0.17994 0.0
C143 C 0.53444 0.27041 0.32414 0.0
C144 C 0.54553 0.24988 0.30905 0.0
C145 C 0.55928 0.28829 0.21478 0.0
H146 H 0.56487 0.30287 0.17803 0.0
C147 C 0.57071 0.26829 0.20079 0.0
H148 H 0.52021 0.27145 0.37109 0.0
C149 C 0.56408 0.24931 0.24759 0.0
H150 H 0.57376 0.23418 0.23575 0.0
H151 H 0.5849 0.26751 0.15366 0.0
C152 C 0.03055 0.96374 0.80922 0.0
N153 N 1.0033 0.98006 0.59717 0.0
C154 C 0.02015 0.9658 0.56659 0.0
C155 C 0.01339 0.94985 0.52071 0.0
C156 C 0.98898 0.94816 0.50769 0.0
C157 C 0.97201 0.96349 0.53676 0.0
C158 C 0.97968 0.97964 0.58096 0.0
Zn159 Zn 0.01332 0.99724 0.68531 0.0
C160 C 0.97156 1.00075 0.81045 0.0
N161 N 0.03497 0.02799 0.87863 0.0
C162 C 0.05832 0.027 0.89777 0.0
C163 C 0.0188 0.04307 0.90741 0.0
C164 C 0.02607 0.05842 0.95479 0.0
C165 C 0.05034 0.05863 0.97153 0.0
C166 C 0.06651 0.04244 0.94383 0.0
Zn167 Zn 0.02467 0.0111 0.79061 0.0
O168 O 0.02308 0.96679 0.74219 0.0
C169 C 0.06644 0.00744 0.66521 0.0
O170 O 0.03315 0.98014 0.84786 0.0
H171 H 1.00055 0.04413 0.88994 0.0
H172 H 0.03862 0.96571 0.58189 0.0
H173 H 0.07096 0.01499 0.87414 0.0
O174 O 0.04949 1.00037 0.63001 0.0
O175 O 0.06133 0.0132 0.73363 0.0
H176 H 0.96647 0.99096 0.60599 0.0
O177 O 0.01568 0.04153 0.73294 0.0
O178 O 1.00397 0.0283 0.62916 0.0
O179 O 0.98807 0.00877 0.84518 0.0
O180 O 0.97711 0.99431 0.74322 0.0
C181 C 1.00736 0.04468 0.66719 0.0
H182 H 0.02683 0.93802 0.49979 0.0
H183 H 0.95298 0.96247 0.52775 0.0
H184 H 0.01316 0.07087 0.97424 0.0
H185 H 0.08538 0.04213 0.95589 0.0
C186 C 0.48117 0.99765 0.6519 0.0
N187 N 0.51794 0.05704 0.66315 0.0
C188 C 0.51256 0.06208 0.58866 0.0
C189 C 0.51263 0.08391 0.55661 0.0
C190 C 0.51884 0.10068 0.60093 0.0
C191 C 0.52426 0.09511 0.67751 0.0
C192 C 0.52339 0.07314 0.70793 0.0
Zn193 Zn 0.51903 0.02447 0.70779 0.0
C194 C 0.48495 0.01612 0.85275 0.0
N195 N 0.52187 0.9569 0.80243 0.0
C196 C 0.52202 0.94077 0.75308 0.0
C197 C 0.52288 0.95186 0.87996 0.0
C198 C 0.52431 0.92994 0.91041 0.0
C199 C 0.52478 0.91291 0.86075 0.0
C200 C 0.52349 0.91864 0.78103 0.0
Zn201 Zn 0.52048 0.98938 0.75838 0.0
O202 O 0.48983 0.01688 0.64465 0.0
C203 C 0.55465 0.99786 0.61337 0.0
O204 O 0.49108 0.98254 0.69389 0.0
H205 H 0.52269 0.96489 0.91836 0.0
H206 H 0.50854 0.04914 0.55346 0.0
H207 H 0.52122 0.94507 0.69165 0.0
O208 O 0.54501 0.01696 0.61518 0.0
O209 O 0.54723 0.98275 0.66479 0.0
H210 H 0.52741 0.06894 0.76716 0.0
O211 O 0.54932 0.99686 0.82294 0.0
O212 O 0.54878 0.03099 0.7715 0.0
O213 O 0.49426 0.9969 0.85014 0.0
O214 O 0.4926 0.03132 0.80198 0.0
C215 C 0.55831 0.01595 0.81472 0.0
H216 H 0.50857 0.0876 0.49703 0.0
H217 H 0.52907 0.10765 0.71343 0.0
H218 H 0.52494 0.92639 0.97235 0.0
H219 H 0.52414 0.90618 0.74021 0.0
C220 C 0.53415 0.47354 0.65486 0.0
N221 N 0.46673 0.50641 0.67443 0.0
C222 C 0.46856 0.50685 0.59565 0.0
C223 C 0.44782 0.50784 0.55597 0.0
C224 C 0.42483 0.50819 0.59746 0.0
C225 C 0.42329 0.50704 0.6789 0.0
C226 C 0.44466 0.50632 0.71653 0.0
Zn227 Zn 0.49887 0.50698 0.72392 0.0
C228 C 0.50262 0.47505 0.85933 0.0
N229 N 0.56832 0.50867 0.81135 0.0
C230 C 0.58991 0.51119 0.76721 0.0
C231 C 0.56702 0.50858 0.88998 0.0
C232 C 0.58776 0.5116 0.92709 0.0
C233 C 0.61017 0.51509 0.88309 0.0
C234 C 0.61118 0.51447 0.80208 0.0
Zn235 Zn 0.53614 0.50733 0.76266 0.0
O236 O 0.51277 0.4817 0.65542 0.0
C237 C 0.53242 0.53929 0.62721 0.0
O238 O 0.54934 0.48139 0.69519 0.0
H239 H 0.5497 0.50675 0.92418 0.0
H240 H 0.48621 0.5067 0.5631 0.0
H241 H 0.59052 0.51131 0.70477 0.0
O242 O 0.51122 0.53143 0.63623 0.0
O243 O 0.54809 0.53178 0.67215 0.0
H244 H 0.44364 0.50596 0.77911 0.0
O245 O 0.52243 0.5328 0.82979 0.0
O246 O 0.48558 0.53272 0.7927 0.0
O247 O 0.52367 0.48328 0.85141 0.0
O248 O 0.48704 0.48212 0.81328 0.0
C249 C 0.50099 0.54081 0.83164 0.0
H250 H 0.44976 0.50832 0.4932 0.0
H251 H 0.40581 0.50726 0.71278 0.0
H252 H 0.58615 0.51151 0.98973 0.0
H253 H 0.62803 0.51727 0.76577 0.0
C254 C 0.05296 0.51845 0.62533 0.0
N255 N 0.02154 0.45649 0.67713 0.0
C256 C 0.01966 0.45554 0.59996 0.0
C257 C 0.02026 0.43535 0.56803 0.0
C258 C 0.02313 0.41587 0.61563 0.0
C259 C 0.02552 0.41728 0.69479 0.0
C260 C 0.0245 0.43787 0.72463 0.0
Zn261 Zn 0.01933 0.48678 0.72032 0.0
C262 C 0.05563 0.49237 0.83197 0.0
N263 N 0.01467 0.55083 0.80401 0.0
C264 C 0.01176 0.569 0.7544 0.0
C265 C 0.01482 0.55241 0.88162 0.0
C266 C 0.01145 0.57279 0.91222 0.0
C267 C 1.00779 0.59177 0.86263 0.0
C268 C 0.00826 0.58968 0.78255 0.0
Zn269 Zn 0.01727 0.52045 0.76175 0.0
O270 O 0.04564 0.49877 0.63204 0.0
C271 C 0.98089 0.51512 0.65039 0.0
O272 O 0.04359 0.53198 0.67171 0.0
H273 H 0.01717 0.53779 0.92012 0.0
H274 H 0.01758 0.4705 0.56294 0.0
H275 H 0.01164 0.56739 0.69294 0.0
O276 O 0.99105 0.49626 0.64966 0.0
O277 O 0.98842 0.52908 0.69219 0.0
H278 H 0.0259 0.43897 0.78583 0.0
O279 O 0.99155 0.50835 0.85096 0.0
O280 O 0.99256 0.47534 0.80966 0.0
O281 O 0.04559 0.51132 0.83075 0.0
O282 O 0.04797 0.47803 0.79172 0.0
C283 C 0.98388 0.4888 0.85729 0.0
H284 H 0.0187 0.43498 0.50647 0.0
H285 H 0.02767 0.4026 0.73339 0.0
H286 H 0.01158 0.57362 0.97418 0.0
H287 H 1.00521 0.60378 0.74217 0.0
C288 C 0.19274 0.02831 0.40494 0.0
C289 C 0.20972 0.01116 0.41586 0.0
C290 C 0.17067 0.02903 0.45237 0.0
C291 C 0.16515 0.01193 0.51152 0.0
C292 C 0.18284 0.99516 0.52534 0.0
C293 C 0.20495 0.99502 0.47747 0.0
C294 C 0.15264 0.04739 0.43586 0.0
C295 C 0.17776 0.97653 0.5872 0.0
C296 C 0.11016 0.01909 0.65981 0.0
C297 C 0.09182 0.00855 0.627 0.0
C298 C 0.1341 0.02024 0.62344 0.0
C299 C 0.14002 0.01043 0.55288 0.0
C300 C 0.12163 0.99956 0.52011 0.0
C301 C 0.09785 0.99886 0.55717 0.0
C302 C 0.153 0.03219 0.66003 0.0
C303 C 0.12702 0.9887 0.44541 0.0
H304 H 0.19625 0.04066 0.35667 0.0
H305 H 0.21782 0.98151 0.48506 0.0
H306 H 0.13696 0.04082 0.41042 0.0
H307 H 0.14554 0.05446 0.49039 0.0
H308 H 0.16075 0.06075 0.39471 0.0
H309 H 0.19422 0.96623 0.59671 0.0
H310 H 0.17069 0.98294 0.64292 0.0
H311 H 0.16357 0.96595 0.56976 0.0
H312 H 0.10577 0.02665 0.71367 0.0
H313 H 0.08396 0.99056 0.53136 0.0
H314 H 0.15998 0.04615 0.61958 0.0
H315 H 0.16866 0.02105 0.67102 0.0
H316 H 0.14569 0.0386 0.71563 0.0
H317 H 0.13307 1.00116 0.39762 0.0
H318 H 0.11097 0.98029 0.42879 0.0
H319 H 0.14205 0.97647 0.45121 0.0
C320 C 0.53164 0.22834 0.43639 0.0
C321 C 0.5382 0.22893 0.35606 0.0
C322 C 0.52649 0.20832 0.48102 0.0
C323 C 0.52846 0.18833 0.44498 0.0
C324 C 0.53447 0.18888 0.36385 0.0
C325 C 0.5388 0.20909 0.32047 0.0
C326 C 0.51945 0.20851 0.56704 0.0
C327 C 0.53708 0.16801 0.3229 0.0
C328 C 0.54282 0.13462 0.56139 0.0
C329 C 0.52068 0.12372 0.5662 0.0
C330 C 0.54545 0.15585 0.52365 0.0
C331 C 0.52525 0.16669 0.49175 0.0
C332 C 0.50256 0.15605 0.49944 0.0
C333 C 0.50065 0.13454 0.53545 0.0
C334 C 0.57011 0.16628 0.51505 0.0
C335 C 0.48041 0.16721 0.46829 0.0
H336 H 0.53116 0.24342 0.46495 0.0
H337 H 0.54298 0.20925 0.25824 0.0
H338 H 0.5027 0.19895 0.5839 0.0
H339 H 0.53404 0.20053 0.59972 0.0
H340 H 0.51634 0.22544 0.58492 0.0
H341 H 0.54204 0.17124 0.25951 0.0
H342 H 0.5513 0.15719 0.34779 0.0
H343 H 0.51984 0.15887 0.33186 0.0
H344 H 0.55834 0.12617 0.58476 0.0
H345 H 0.48348 0.12614 0.53968 0.0
H346 H 0.56888 0.18261 0.53846 0.0
H347 H 0.57668 0.16889 0.4526 0.0
H348 H 0.58376 0.15602 0.54534 0.0
H349 H 0.47789 0.18389 0.48873 0.0
H350 H 0.46364 0.15774 0.48625 0.0
H351 H 0.48293 0.16918 0.40398 0.0
C352 C 0.33583 0.49782 0.27873 0.0
C353 C 0.31466 0.51091 0.28293 0.0
C354 C 0.35147 0.49665 0.33793 0.0
C355 C 0.3459 0.50901 0.40277 0.0
C356 C 0.324 0.52151 0.40902 0.0
C357 C 0.30857 0.52226 0.34903 0.0
C358 C 0.37452 0.48293 0.32936 0.0
C359 C 0.31746 0.53496 0.47709 0.0
C360 C 0.38391 0.49506 0.57239 0.0
C361 C 0.40287 0.50998 0.55451 0.0
C362 C 0.36458 0.49505 0.5253 0.0
C363 C 0.36422 0.51044 0.45948 0.0
C364 C 0.38268 0.52628 0.44388 0.0
C365 C 0.4018 0.52579 0.49141 0.0
C366 C 0.34525 0.47791 0.5437 0.0
C367 C 0.38285 0.54315 0.3749 0.0
H368 H 0.34038 0.48874 0.22828 0.0
H369 H 0.29226 0.53248 0.3523 0.0
H370 H 0.39047 0.49382 0.32142 0.0
H371 H 0.37627 0.47185 0.38269 0.0
H372 H 0.37513 0.47284 0.27902 0.0
H373 H 0.29862 0.54173 0.47778 0.0
H374 H 0.31937 0.52488 0.53252 0.0
H375 H 0.33015 0.54884 0.47428 0.0
H376 H 0.38478 0.48278 0.62104 0.0
H377 H 0.41629 0.53754 0.47824 0.0
H378 H 0.34704 0.466 0.4987 0.0
H379 H 0.3269 0.48561 0.54273 0.0
H380 H 0.34663 0.46874 0.60127 0.0
H381 H 0.38569 0.53481 0.32045 0.0
H382 H 0.39739 0.55537 0.37452 0.0
H383 H 0.36509 0.55199 0.37472 0.0
C384 C 0.01705 0.29748 0.44613 0.0
C385 C 0.02821 0.29954 0.37004 0.0
C386 C 0.0168 0.31504 0.49347 0.0
C387 C 0.02827 0.33494 0.46416 0.0
C388 C 0.04063 0.3366 0.38871 0.0
C389 C 0.0403 0.31895 0.34245 0.0
C390 C 1.00326 0.31269 0.57328 0.0
C391 C 0.05341 0.35736 0.3556 0.0
C392 C 1.00586 0.38971 0.53338 0.0
C393 C 0.02351 0.39431 0.58219 0.0
C394 C 1.00668 0.37003 0.4972 0.0
C395 C 0.02582 0.35465 0.50929 0.0
C396 C 0.04336 0.35894 0.56015 0.0
C397 C 0.0419 0.37868 0.59645 0.0
C398 C 0.98742 0.36599 0.44428 0.0
C399 C 0.06418 0.34308 0.57384 0.0
H400 H 1.00759 0.28251 0.46732 0.0
H401 H 0.04916 0.32045 0.28385 0.0
H402 H 0.01485 0.31767 0.61723 0.0
H403 H 0.98705 0.32377 0.5746 0.0
H404 H 0.9972 0.29561 0.59014 0.0
H405 H 0.06392 0.35533 0.29883 0.0
H406 H 0.03986 0.37086 0.34739 0.0
H407 H 0.06597 0.3625 0.39652 0.0
H408 H 0.99142 0.40163 0.52312 0.0
H409 H 0.05565 0.38225 0.63384 0.0
H410 H 0.97912 0.34974 0.46117 0.0
H411 H 0.9958 0.36573 0.38374 0.0
H412 H 0.97281 0.3788 0.44554 0.0
H413 H 0.05728 0.32632 0.59121 0.0
H414 H 0.07524 0.34801 0.61937 0.0
H415 H 0.07615 0.34221 0.51914 0.0
C416 C 0.82966 0.99319 0.9815 0.0
C417 C 0.828 0.97757 0.04601 0.0
C418 C 0.85244 0.99927 0.9425 0.0
C419 C 0.8741 0.98926 0.96767 0.0
C420 C 0.87254 0.97416 0.03443 0.0
C421 C 0.84971 0.96883 0.0732 0.0
C422 C 0.85327 0.01591 0.87293 0.0
C423 C 0.89497 0.96288 0.06342 0.0
C424 C 0.93043 0.98343 0.82473 0.0
C425 C 0.94622 0.99867 0.84808 0.0
C426 C 0.9068 0.98056 0.86194 0.0
C427 C 0.89838 0.99363 0.92291 0.0
C428 C 0.91395 0.00962 0.94479 0.0
C429 C 0.93774 0.01173 0.90797 0.0
C430 C 0.89116 0.96295 0.83773 0.0
C431 C 0.90562 0.0243 0.00799 0.0
H432 H 0.81315 1.00011 0.9597 0.0
H433 H 0.84887 0.95728 0.12433 0.0
H434 H 0.86672 0.02873 0.87824 0.0
H435 H 0.8592 0.00773 0.81963 0.0
H436 H 0.83529 0.02397 0.86578 0.0
H437 H 0.89073 0.95169 0.11664 0.0
H438 H 0.90418 0.95317 0.01771 0.0
H439 H 0.90803 0.97524 0.0762 0.0
H440 H 0.93679 0.97323 0.77869 0.0
H441 H 0.94969 0.02373 0.9259 0.0
H442 H 0.87354 0.97013 0.82168 0.0
H443 H 0.88716 0.95042 0.8872 0.0
H444 H 0.90002 0.95464 0.7878 0.0
H445 H 0.88786 0.03217 0.99668 0.0
H446 H 0.91889 0.03733 0.01288 0.0
H447 H 0.90297 0.01436 0.06458 0.0
C448 C 0.53378 0.78826 0.05842 0.0
C449 C 0.55415 0.77803 0.0216 0.0
C450 C 0.52642 0.80965 0.03226 0.0
C451 C 0.53966 0.82098 0.96753 0.0
C452 C 0.5594 0.81019 0.92775 0.0
C453 C 0.5664 0.78892 0.9553 0.0
C454 C 0.50526 0.82054 0.07625 0.0
C455 C 0.57388 0.82147 0.85804 0.0
C456 C 0.51477 0.87281 0.86156 0.0
C457 C 0.52733 0.88939 0.89138 0.0
C458 C 0.51801 0.85053 0.8873 0.0
C459 C 0.53418 0.84461 0.94442 0.0
C460 C 0.54644 0.86129 0.97613 0.0
C461 C 0.54292 0.8834 0.9492 0.0
C462 C 0.50455 0.83329 0.85206 0.0
C463 C 0.56389 0.85574 0.03702 0.0
H464 H 0.52436 0.77997 0.10995 0.0
H465 H 0.58199 0.78097 0.92611 0.0
H466 H 0.51193 0.83415 0.10642 0.0
H467 H 0.49233 0.82781 0.03569 0.0
H468 H 0.49537 0.80887 0.1201 0.0
H469 H 0.58751 0.81027 0.83019 0.0
H470 H 0.56161 0.82804 0.81431 0.0
H471 H 0.58352 0.83562 0.87599 0.0
H472 H 0.50238 0.87723 0.81781 0.0
H473 H 0.553 0.89596 0.97201 0.0
H474 H 0.49448 0.82254 0.89838 0.0
H475 H 0.51772 0.82268 0.81958 0.0
H476 H 0.49153 0.84062 0.81179 0.0
H477 H 0.55487 0.84538 0.08659 0.0
H478 H 0.57086 0.87064 0.05923 0.0
H479 H 0.57957 0.84612 0.01219 0.0
C480 C 0.72632 0.56195 0.05015 0.0
C481 C 0.73264 0.54941 0.11699 0.0
C482 C 0.70746 0.55558 0.00881 0.0
C483 C 0.69448 0.53629 0.03532 0.0
C484 C 0.70112 0.52329 0.1018 0.0
C485 C 0.72022 0.52996 0.1417 0.0
C486 C 0.70108 0.56977 0.93776 0.0
C487 C 0.68756 0.50272 0.13223 0.0
C488 C 0.62967 0.53413 0.98255 0.0
C489 C 0.63197 0.52032 0.92171 0.0
C490 C 0.64981 0.53922 0.02041 0.0
C491 C 0.67297 0.53052 0.99635 0.0
C492 C 0.67554 0.51671 0.93464 0.0
C493 C 0.65499 0.51172 0.89813 0.0
C494 C 0.64629 0.55404 0.08594 0.0
C495 C 0.7 0.50724 0.90716 0.0
H496 H 0.73615 0.57682 0.03022 0.0
H497 H 0.72496 0.52031 0.19362 0.0
H498 H 0.70111 0.55973 0.88757 0.0
H499 H 0.68249 0.5768 0.94827 0.0
H500 H 0.71391 0.58349 0.92205 0.0
H501 H 0.69586 0.49378 0.1819 0.0
H502 H 0.66846 0.50705 0.1514 0.0
H503 H 0.68711 0.49151 0.08552 0.0
H504 H 0.61208 0.54126 0.00012 0.0
H505 H 0.6569 0.5009 0.85167 0.0
H506 H 0.65712 0.5691 0.07092 0.0
H507 H 0.65292 0.54561 0.13931 0.0
H508 H 0.62696 0.55896 0.09896 0.0
H509 H 0.71287 0.52071 0.88809 0.0
H510 H 0.69896 0.49684 0.85829 0.0
H511 H 0.70765 0.49719 0.95564 0.0
C512 C 0.95219 0.70633 0.98278 0.0
C513 C 0.96442 0.71587 0.0382 0.0
C514 C 0.96079 0.6868 0.9522 0.0
C515 C 0.98214 0.67646 0.97778 0.0
C516 C 0.99503 0.68637 0.03189 0.0
C517 C 0.98604 0.706 0.06133 0.0
C518 C 0.94662 0.6769 0.89408 0.0
C519 C 0.01781 0.67582 0.06075 0.0
C520 C 0.98703 0.61484 0.96281 0.0
C521 C 1.00248 0.61344 0.89441 0.0
C522 C 0.98081 0.63519 0.99157 0.0
C523 C 0.99014 0.65472 0.95082 0.0
C524 C 1.0061 0.65344 0.8826 0.0
C525 C 0.01211 0.63283 0.85528 0.0
C526 C 0.96373 0.63583 0.06456 0.0
C527 C 0.01645 0.67387 0.8376 0.0
H528 H 0.93566 0.71407 0.96388 0.0
H529 H 0.99546 0.7132 0.10462 0.0
H530 H 0.95869 0.67395 0.84112 0.0
H531 H 0.93945 0.66076 0.91906 0.0
H532 H 0.93113 0.68758 0.87707 0.0
H533 H 0.02661 0.68634 0.09861 0.0
H534 H 0.01333 0.6599 0.09416 0.0
H535 H 0.03104 0.67228 0.0111 0.0
H536 H 0.9792 0.60003 0.99288 0.0
H537 H 0.02434 0.6319 0.80303 0.0
H538 H 0.94666 0.64462 0.05092 0.0
H539 H 0.97196 0.64502 0.10752 0.0
H540 H 0.95912 0.61914 0.09167 0.0
H541 H 1.0015 0.68435 0.8155 0.0
H542 H 0.02944 0.67004 0.78762 0.0
H543 H 0.02588 0.68365 0.87615 0.0
C544 C 0.04471 0.16096 0.50223 0.0
C545 C 0.02835 0.17382 0.46019 0.0
C546 C 0.03731 0.14149 0.54557 0.0
C547 C 0.01284 0.13496 0.54764 0.0
C548 C 0.99565 0.14931 0.51319 0.0
C549 C 1.00367 0.16862 0.46927 0.0
C550 C 0.05626 0.12679 0.58181 0.0
C551 C 0.96928 0.1433 0.51626 0.0
C552 C 1.00778 0.07308 0.55454 0.0
C553 C 1.00376 0.06752 0.63451 0.0
C554 C 0.00939 0.09518 0.52488 0.0
C555 C 1.00638 0.11202 0.5765 0.0
C556 C 1.00026 0.10647 0.65654 0.0
C557 C 0.99932 0.08426 0.68473 0.0
C558 C 0.01609 0.10042 0.43902 0.0
C559 C 0.99625 0.12388 0.71315 0.0
H560 H 0.06383 0.16498 0.49461 0.0
H561 H 0.99105 0.17846 0.43608 0.0
H562 H 0.04989 0.12104 0.64246 0.0
H563 H 0.05947 0.11205 0.54892 0.0
H564 H 0.07382 0.13522 0.58174 0.0
H565 H 0.95761 0.15786 0.50187 0.0
H566 H 0.96719 0.13114 0.47365 0.0
H567 H 0.96272 0.13565 0.57455 0.0
H568 H 0.0113 0.06017 0.51571 0.0
H569 H 0.99594 0.08 0.74668 0.0
H570 H 0.0345 0.10757 0.42962 0.0
H571 H 1.00326 0.11283 0.41484 0.0
H572 H 0.01606 0.08564 0.40609 0.0
H573 H 0.01401 0.13053 0.72359 0.0
H574 H 0.98714 0.11721 0.76981 0.0
H575 H 0.98512 0.13775 0.68926 0.0
C576 C 0.34948 0.00689 0.50826 0.0
C577 C 0.34749 0.99346 0.44803 0.0
C578 C 0.3692 1.00426 0.55391 0.0
C579 C 0.38745 0.98817 0.53733 0.0
C580 C 0.38391 0.97301 0.48251 0.0
C581 C 0.36378 0.97572 0.43906 0.0
C582 C 0.37184 0.02024 0.61387 0.0
C583 C 0.40287 0.95571 0.46234 0.0
C584 C 0.45201 0.00606 0.55186 0.0
C585 C 0.45814 0.9937 0.61909 0.0
C586 C 0.42924 1.00401 0.52407 0.0
C587 C 0.41185 0.98975 0.566 0.0
C588 C 0.41797 0.97716 0.63392 0.0
C589 C 0.44119 0.97907 0.65911 0.0
C590 C 0.42373 0.0173 0.45011 0.0
C591 C 0.39976 0.96228 0.68132 0.0
H592 H 0.33704 0.02075 0.5146 0.0
H593 H 0.36234 0.96551 0.39173 0.0
H594 H 0.37892 0.01179 0.66648 0.0
H595 H 0.38504 0.03301 0.5897 0.0
H596 H 0.35428 0.02853 0.6309 0.0
H597 H 0.39561 0.94304 0.42901 0.0
H598 H 0.41842 0.96366 0.42638 0.0
H599 H 0.40991 0.9475 0.51532 0.0
H600 H 0.46506 0.01741 0.52102 0.0
H601 H 0.44573 0.96979 0.71204 0.0
H602 H 0.40852 0.02902 0.46259 0.0
H603 H 0.41794 0.00632 0.40794 0.0
H604 H 0.43964 0.02674 0.42247 0.0
H605 H 0.38431 0.97229 0.70552 0.0
H606 H 0.40781 0.95263 0.73006 0.0
H607 H 0.39225 0.95075 0.64422 0.0
C608 C 0.52156 0.35898 0.49456 0.0
C609 C 0.53695 0.3558 0.42773 0.0
C610 C 0.52529 0.37639 0.53961 0.0
C611 C 0.5445 0.39113 0.51578 0.0
C612 C 0.56132 0.3867 0.45219 0.0
C613 C 0.55735 0.36901 0.40895 0.0
C614 C 0.50724 0.38025 0.60804 0.0
C615 C 0.58196 0.40198 0.42444 0.0
C616 C 0.52779 0.45033 0.54837 0.0
C617 C 0.53994 0.45371 0.61333 0.0
C618 C 0.52996 0.4303 0.51459 0.0
C619 C 0.54422 0.413 0.54764 0.0
C620 C 0.55719 0.41654 0.6118 0.0
C621 C 0.55507 0.43699 0.64356 0.0
C622 C 0.51626 0.42745 0.44499 0.0
C623 C 0.57229 0.39843 0.64924 0.0
H624 H 0.5056 0.34891 0.50816 0.0
H625 H 0.56898 0.36668 0.3563 0.0
H626 H 0.51666 0.38489 0.65765 0.0
H627 H 0.49478 0.39404 0.59172 0.0
H628 H 0.49617 0.3655 0.62711 0.0
H629 H 0.59571 0.39429 0.38387 0.0
H630 H 0.57465 0.41704 0.3937 0.0
H631 H 0.59104 0.4071 0.47402 0.0
H632 H 0.51612 0.46326 0.52486 0.0
H633 H 0.5642 0.43948 0.69454 0.0
H634 H 0.50212 0.41485 0.46051 0.0
H635 H 0.52877 0.42159 0.39704 0.0
H636 H 0.50728 0.44295 0.4234 0.0
H637 H 0.56013 0.38553 0.67898 0.0
H638 H 0.58344 0.40452 0.69257 0.0
H639 H 0.58449 0.39059 0.6048 0.0
C640 C 0.16007 0.5446 0.29335 0.0
C641 C 0.17937 0.53023 0.31015 0.0
C642 C 0.14056 0.54764 0.34913 0.0
C643 C 0.14047 0.53596 0.42311 0.0
C644 C 0.16134 0.5236 0.44312 0.0
C645 C 0.18065 0.52084 0.38602 0.0
C646 C 0.11886 0.5612 0.32561 0.0
C647 C 0.16211 0.51121 0.52188 0.0
C648 C 0.08803 0.5428 0.5781 0.0
C649 C 0.07382 0.52468 0.56879 0.0
C650 C 0.1097 0.54701 0.5305 0.0
C651 C 0.11712 0.53283 0.47221 0.0
C652 C 0.10231 0.51503 0.46074 0.0
C653 C 0.08092 0.51115 0.50933 0.0
C654 C 0.12504 0.56609 0.54444 0.0
C655 C 0.10934 0.4997 0.39828 0.0
H656 H 0.15923 0.55192 0.23447 0.0
H657 H 0.19559 0.50969 0.39876 0.0
H658 H 0.10453 0.55009 0.31235 0.0
H659 H 0.1111 0.57091 0.37337 0.0
H660 H 0.12361 0.57257 0.27319 0.0
H661 H 0.18091 0.50593 0.53316 0.0
H662 H 0.15452 0.5214 0.56846 0.0
H663 H 0.15083 0.49634 0.52494 0.0
H664 H 0.08271 0.55322 0.62444 0.0
H665 H 0.06995 0.49719 0.50161 0.0
H666 H 0.13047 0.57594 0.48907 0.0
H667 H 0.14195 0.55979 0.56877 0.0
H668 H 0.11539 0.57702 0.58555 0.0
H669 H 0.11199 0.50916 0.34073 0.0
H670 H 0.09543 0.48705 0.39566 0.0
H671 H 0.12682 0.49122 0.40916 0.0
C672 C 0.03538 0.84113 0.01547 0.0
C673 C 0.01147 0.83397 0.01653 0.0
C674 C 0.04294 0.8606 0.97196 0.0
C675 C 0.02592 0.8734 0.93077 0.0
C676 C 1.00244 0.86514 0.92609 0.0
C677 C 0.9956 0.84533 0.96846 0.0
C678 C 0.06842 0.8684 0.97584 0.0
C679 C 0.98365 0.87832 0.88336 0.0
C680 C 0.02751 0.93556 0.9223 0.0
C681 C 0.03377 0.941 0.84313 0.0
C682 C 0.02583 0.91351 0.95224 0.0
C683 C 0.03123 0.89658 0.90198 0.0
C684 C 0.03939 0.90206 0.8232 0.0
C685 C 0.04018 0.92423 0.79439 0.0
C686 C 0.01673 0.90836 0.03653 0.0
C687 C 0.04612 0.88456 0.76844 0.0
H688 H 0.04756 0.83239 0.05332 0.0
H689 H 0.97699 0.83996 0.97043 0.0
H690 H 0.07609 0.87577 0.91832 0.0
H691 H 0.06809 0.88127 0.0172 0.0
H692 H 0.08064 0.8548 0.99583 0.0
H693 H 0.96714 0.86868 0.87899 0.0
H694 H 0.97819 0.89303 0.91445 0.0
H695 H 0.99125 0.88416 0.82401 0.0
H696 H 0.02238 0.94851 0.95983 0.0
H697 H 0.04518 0.92844 0.7331 0.0
H698 H 0.02961 0.89704 0.06591 0.0
H699 H 0.99905 0.89993 0.04055 0.0
H700 H 0.01424 0.92335 0.06845 0.0
H701 H 0.0562 0.89141 0.7136 0.0
H702 H 0.02939 0.87686 0.75376 0.0
H703 H 0.0574 0.87142 0.79615 0.0
C704 C 0.68932 1.00362 0.95833 0.0
C705 C 0.69202 0.01688 0.01869 0.0
C706 C 0.66967 0.00704 0.9127 0.0
C707 C 0.65228 0.02384 0.92895 0.0
C708 C 0.65677 0.03896 0.98291 0.0
C709 C 0.67686 0.03548 0.02629 0.0
C710 C 0.6661 0.99112 0.85328 0.0
C711 C 0.63881 0.05713 0.00223 0.0
C712 C 0.59865 0.03391 0.80717 0.0
C713 C 0.58133 0.01977 0.84783 0.0
C714 C 0.6219 0.03549 0.83249 0.0
C715 C 0.62767 0.02305 0.9011 0.0
C716 C 0.60986 0.00939 0.94388 0.0
C717 C 0.58706 0.00766 0.91602 0.0
C718 C 0.64053 0.04972 0.78412 0.0
C719 C 0.61501 0.99629 0.01857 0.0
H720 H 0.70099 0.98924 0.95198 0.0
H721 H 0.6791 0.0459 0.07245 0.0
H722 H 0.65229 0.97894 0.8779 0.0
H723 H 0.65936 0.99979 0.80051 0.0
H724 H 0.68321 0.9821 0.83637 0.0
H725 H 0.64689 0.06963 0.03437 0.0
H726 H 0.63199 0.0654 0.94899 0.0
H727 H 0.62297 0.04999 0.03909 0.0
H728 H 0.5944 0.04299 0.75355 0.0
H729 H 0.5737 0.9967 0.94739 0.0
H730 H 0.65496 0.03911 0.75727 0.0
H731 H 0.6494 0.06049 0.82083 0.0
H732 H 0.63245 0.06013 0.73718 0.0
H733 H 0.62965 0.98396 0.00668 0.0
H734 H 0.59874 0.98755 0.04717 0.0
H735 H 0.62145 0.00727 0.05968 0.0
C736 C 0.52019 0.65568 0.9712 0.0
C737 C 0.50773 0.65916 0.04323 0.0
C738 C 0.51357 0.63861 0.92868 0.0
C739 C 0.4942 0.62474 0.95946 0.0
C740 C 0.47957 0.63018 0.02664 0.0
C741 C 0.48648 0.64742 0.06765 0.0
C742 C 0.52921 0.63377 0.85595 0.0
C743 C 0.45851 0.61613 0.06081 0.0
C744 C 0.47986 0.57731 0.84321 0.0
C745 C 0.49552 0.56085 0.8723 0.0
C746 C 0.47849 0.59813 0.87242 0.0
C747 C 0.49293 0.60237 0.93241 0.0
C748 C 0.50759 0.58528 0.96497 0.0
C749 C 0.50881 0.56483 0.93416 0.0
C750 C 0.46273 0.61588 0.83592 0.0
C751 C 0.52293 0.58885 0.03017 0.0
H752 H 0.5366 0.66472 0.952 0.0
H753 H 0.47664 0.65029 0.123 0.0
H754 H 0.54167 0.61974 0.86954 0.0
H755 H 0.51789 0.62907 0.81087 0.0
H756 H 0.54035 0.64809 0.83192 0.0
H757 H 0.44609 0.62496 0.10218 0.0
H758 H 0.448 0.61083 0.01465 0.0
H759 H 0.46557 0.60114 0.09258 0.0
H760 H 0.46978 0.57436 0.79468 0.0
H761 H 0.52086 0.55209 0.95693 0.0
H762 H 0.47435 0.62724 0.79596 0.0
H763 H 0.45311 0.62569 0.88055 0.0
H764 H 0.44911 0.60896 0.80211 0.0
H765 H 0.53703 0.60117 0.00966 0.0
H766 H 0.53213 0.5735 0.052 0.0
H767 H 0.51153 0.5954 0.0793 0.0
C768 C 0.86772 0.47649 0.16727 0.0
C769 C 0.8548 0.49595 0.14782 0.0
C770 C 0.88721 0.46934 0.11741 0.0
C771 C 0.89364 0.48185 0.04639 0.0
C772 C 0.87852 0.49967 0.02193 0.0
C773 C 0.85932 0.50659 0.07319 0.0
C774 C 0.9025 0.44994 0.14483 0.0
C775 C 0.88436 0.5131 0.94556 0.0
C776 C 0.95904 0.49458 0.98039 0.0
C777 C 0.96306 0.48302 0.91419 0.0
C778 C 0.93703 0.49299 0.02713 0.0
C779 C 0.91843 0.47972 0.00642 0.0
C780 C 0.92304 0.46674 0.94283 0.0
C781 C 0.94546 0.46847 0.89743 0.0
C782 C 0.93311 0.50676 0.09556 0.0
C783 C 0.90378 0.45234 0.91905 0.0
H784 H 0.86389 0.46787 0.2242 0.0
H785 H 0.84946 0.52161 0.05735 0.0
H786 H 0.909 0.44008 0.09609 0.0
H787 H 0.9187 0.45596 0.16909 0.0
H788 H 0.89229 0.43915 0.19087 0.0
H789 H 0.86881 0.52382 0.92934 0.0
H790 H 0.90009 0.52368 0.95009 0.0
H791 H 0.88945 0.50228 0.89837 0.0
H792 H 0.97276 0.50567 0.99377 0.0
H793 H 0.94851 0.45959 0.84593 0.0
H794 H 0.92595 0.49655 0.14836 0.0
H795 H 0.91946 0.51994 0.08365 0.0
H796 H 0.95011 0.51454 0.1079 0.0
H797 H 0.89301 0.44428 0.9704 0.0
H798 H 0.91182 0.43951 0.88241 0.0
H799 H 0.8911 0.46262 0.88487 0.0
C800 C 0.08533 0.1572 0.2115 0.0
C801 C 0.06775 0.17362 0.19682 0.0
C802 C 0.08802 0.13901 0.16735 0.0
C803 C 0.07296 0.13744 0.10676 0.0
C804 C 0.05762 0.1554 0.08518 0.0
C805 C 0.05515 0.17333 0.13071 0.0
C806 C 0.10489 0.12041 0.19154 0.0
C807 C 0.04166 0.15459 0.01972 0.0
C808 C 0.07787 0.09011 0.97752 0.0
C809 C 0.05876 0.0769 0.01208 0.0
C810 C 0.08342 0.10959 0.00896 0.0
C811 C 0.0696 0.1158 0.07665 0.0
C812 C 0.05118 0.10182 0.11402 0.0
C813 C 0.04589 0.08262 0.0809 0.0
C814 C 0.10313 0.12405 0.96746 0.0
C815 C 0.03632 0.10758 0.18732 0.0
H816 H 0.09535 0.15758 0.26204 0.0
H817 H 0.04155 0.18597 0.11903 0.0
H818 H 0.09414 0.10727 0.22616 0.0
H819 H 0.11427 0.11316 0.14023 0.0
H820 H 0.11873 0.1259 0.22767 0.0
H821 H 0.03413 0.17107 0.00173 0.0
H822 H 0.05193 0.14796 0.96863 0.0
H823 H 0.02628 0.14348 0.03885 0.0
H824 H 0.08765 0.08579 0.92373 0.0
H825 H 0.0312 0.07231 0.10769 0.0
H826 H 0.11483 0.13008 0.00926 0.0
H827 H 0.09471 0.13864 0.93727 0.0
H828 H 0.11471 0.11531 0.92371 0.0
H829 H 0.04844 0.11089 0.23215 0.0
H830 H 0.02376 0.09428 0.21162 0.0
H831 H 0.02543 0.12276 0.175 0.0
C832 C 0.37754 0.03673 0.18459 0.0
C833 C 0.3575 0.02374 0.17632 0.0
C834 C 0.39757 0.03815 0.12841 0.0
C835 C 0.39751 0.02657 0.06134 0.0
C836 C 0.37642 0.01504 0.04932 0.0
C837 C 0.35668 0.01369 0.10711 0.0
C838 C 0.41956 0.05063 0.14399 0.0
C839 C 0.37538 1.00282 0.97794 0.0
C840 C 0.44762 0.03779 0.89622 0.0
C841 C 0.46369 0.01998 0.90945 0.0
C842 C 0.42596 0.04015 0.94472 0.0
C843 C 0.42037 0.02453 0.00873 0.0
C844 C 0.43687 0.00686 0.02347 0.0
C845 C 0.45815 1.00472 0.97344 0.0
C846 C 0.40879 0.05906 0.92641 0.0
C847 C 0.43191 0.99004 0.09181 0.0
H848 H 0.37817 0.04475 0.2376 0.0
H849 H 0.34136 1.00353 0.10039 0.0
H850 H 0.43452 0.03882 0.15688 0.0
H851 H 0.42611 0.0615 0.09213 0.0
H852 H 0.41573 0.06075 0.19397 0.0
H853 H 0.35671 0.99735 0.97178 0.0
H854 H 0.38187 0.01329 0.92498 0.0
H855 H 0.38754 0.98812 0.98153 0.0
H856 H 0.45156 0.04952 0.84637 0.0
H857 H 0.47042 0.9909 0.98415 0.0
H858 H 0.40521 0.06886 0.97723 0.0
H859 H 0.3911 0.05265 0.91405 0.0
H860 H 0.416 0.07009 0.87566 0.0
H861 H 0.42945 0.99829 0.14649 0.0
H862 H 0.44681 0.9776 0.09637 0.0
H863 H 0.4148 0.98143 0.08652 0.0
C864 C 0.51472 0.3613 0.10272 0.0
C865 C 0.50232 0.36037 0.17715 0.0
C866 C 0.51053 0.37874 0.04701 0.0
C867 C 0.49364 0.39568 0.06639 0.0
C868 C 0.47945 0.39368 0.13879 0.0
C869 C 0.48391 0.37602 0.19316 0.0
C870 C 0.5258 0.38005 0.97002 0.0
C871 C 0.46113 0.41122 0.16179 0.0
C872 C 0.51225 0.45251 0.97926 0.0
C873 C 0.49764 0.45612 0.91757 0.0
C874 C 0.51049 0.43323 0.02924 0.0
C875 C 0.49384 0.41693 0.01702 0.0
C876 C 0.47836 0.42079 0.9566 0.0
C877 C 0.48036 0.44043 0.90768 0.0
C878 C 0.5271 0.43001 0.0937 0.0
C879 C 0.46045 0.40381 0.94155 0.0
H880 H 0.52904 0.34936 0.08991 0.0
H881 H 0.47401 0.3752 0.25026 0.0
H882 H 0.51447 0.38491 0.92182 0.0
H883 H 0.53978 0.39279 0.96951 0.0
H884 H 0.53517 0.36418 0.95901 0.0
H885 H 0.44882 0.40552 0.21354 0.0
H886 H 0.47084 0.42584 0.17565 0.0
H887 H 0.45004 0.41649 0.11334 0.0
H888 H 0.52556 0.46462 0.9875 0.0
H889 H 0.46916 0.44304 0.85966 0.0
H890 H 0.53956 0.41581 0.08394 0.0
H891 H 0.5163 0.42629 0.15029 0.0
H892 H 0.53819 0.44471 0.09761 0.0
H893 H 0.47045 0.38934 0.91936 0.0
H894 H 0.4479 0.41025 0.89835 0.0
H895 H 0.44958 0.398 0.99616 0.0
C896 C 0.16442 0.4752 0.10106 0.0
C897 C 0.18174 0.49108 0.07393 0.0
C898 C 0.14572 0.47064 0.05618 0.0
C899 C 0.14432 0.4824 0.98286 0.0
C900 C 0.16339 0.49656 0.95171 0.0
C901 C 0.18198 0.50074 0.99784 0.0
C902 C 0.126 0.45517 0.09117 0.0
C903 C 0.16272 0.50922 0.87336 0.0
C904 C 0.09408 0.47135 0.85651 0.0
C905 C 0.07717 0.488 0.87549 0.0
C906 C 0.116 0.469 0.89159 0.0
C907 C 0.12091 0.48353 0.94708 0.0
C908 C 0.10344 0.4998 0.96839 0.0
C909 C 0.08188 0.50187 0.93215 0.0
C910 C 0.1342 0.45151 0.8674 0.0
C911 C 0.10775 0.51545 0.02828 0.0
H912 H 0.16439 0.46766 0.15995 0.0
H913 H 0.19536 0.51308 0.97709 0.0
H914 H 0.11 0.46488 0.11331 0.0
H915 H 0.12004 0.44494 0.04703 0.0
H916 H 0.13209 0.44419 0.14026 0.0
H917 H 0.18067 0.51627 0.85173 0.0
H918 H 0.15699 0.49857 0.83012 0.0
H919 H 0.14924 0.52291 0.87801 0.0
H920 H 0.09059 0.46069 0.81227 0.0
H921 H 0.0688 0.51466 0.94741 0.0
H922 H 0.14063 0.44198 0.91908 0.0
H923 H 0.1503 0.45939 0.8343 0.0
H924 H 0.12654 0.43999 0.83043 0.0
H925 H 0.11138 0.50611 0.08378 0.0
H926 H 0.09203 0.52676 0.03967 0.0
H927 H 0.12398 0.52544 0.00827 0.0
C928 C 0.95668 0.84314 0.29283 0.0
C929 C 0.97855 0.83112 0.28527 0.0
C930 C 0.95437 0.8612 0.33782 0.0
C931 C 0.97435 0.86707 0.37648 0.0
C932 C 0.99553 0.85352 0.37534 0.0
C933 C 0.99747 0.83581 0.32892 0.0
C934 C 0.93154 0.87523 0.33729 0.0
C935 C 0.01703 0.85892 0.41719 0.0
C936 C 0.98845 0.92672 0.39275 0.0
C937 C 0.98137 0.92894 0.47109 0.0
C938 C 0.98495 0.90697 0.36026 0.0
C939 C 0.97471 0.88889 0.40808 0.0
C940 C 0.96675 0.89137 0.48676 0.0
C941 C 0.97006 0.91149 0.51729 0.0
C942 C 0.99327 0.90513 0.27563 0.0
C943 C 0.95613 0.87244 0.53977 0.0
H944 H 0.94223 0.83969 0.25784 0.0
H945 H 0.01445 0.8266 0.32216 0.0
H946 H 0.92576 0.88033 0.39605 0.0
H947 H 0.93518 0.89038 0.29823 0.0
H948 H 0.91636 0.86653 0.31638 0.0
H949 H 0.03041 0.84507 0.42036 0.0
H950 H 0.02631 0.87346 0.38609 0.0
H951 H 0.01104 0.86311 0.47697 0.0
H952 H 0.99739 0.94025 0.35761 0.0
H953 H 0.965 0.91324 0.57833 0.0
H954 H 0.97858 0.89845 0.24572 0.0
H955 H 0.00901 0.89356 0.27058 0.0
H956 H 0.99875 0.92121 0.24499 0.0
H957 H 0.94192 0.8643 0.51207 0.0
H958 H 0.94813 0.87776 0.59637 0.0
H959 H 0.97061 0.85998 0.55088 0.0
C960 C 0.68375 0.99628 0.35996 0.0
C961 C 0.68184 0.98725 0.2895 0.0
C962 C 0.66396 0.99578 0.41769 0.0
C963 C 0.6418 0.98618 0.40406 0.0
C964 C 0.64048 0.97582 0.33487 0.0
C965 C 0.6605 0.97645 0.27871 0.0
C966 C 0.66624 0.00676 0.49104 0.0
C967 C 0.61734 0.96545 0.31742 0.0
C968 C 0.59108 0.97533 0.56743 0.0
C969 C 0.57602 0.99401 0.55691 0.0
C970 C 0.61267 0.97263 0.51893 0.0
C971 C 0.6193 0.98887 0.4578 0.0
C972 C 0.60394 0.00755 0.44609 0.0
C973 C 0.58263 0.00993 0.49587 0.0
C974 C 0.62855 0.95255 0.53369 0.0
C975 C 0.61006 0.02513 0.38098 0.0
H976 H 0.70011 0.00487 0.36797 0.0
H977 H 0.65898 0.96958 0.2239 0.0
H978 H 0.65515 0.02215 0.49023 0.0
H979 H 0.65919 0.99601 0.54264 0.0
H980 H 0.68535 0.01089 0.49747 0.0
H981 H 0.62003 0.95615 0.26501 0.0
H982 H 0.61014 0.95416 0.36734 0.0
H983 H 0.60332 0.97845 0.30772 0.0
H984 H 0.58631 0.96302 0.61489 0.0
H985 H 0.5712 0.02444 0.48724 0.0
H986 H 0.6469 0.95759 0.54527 0.0
H987 H 0.63083 0.94322 0.48144 0.0
H988 H 0.62093 0.94146 0.58372 0.0
H989 H 0.62793 0.03226 0.38748 0.0
H990 H 0.59621 0.0386 0.37945 0.0
H991 H 0.61157 0.01783 0.32439 0.0
C992 C 0.55803 0.62976 0.27091 0.0
C993 C 0.54625 0.64964 0.28699 0.0
C994 C 0.55966 0.61254 0.3291 0.0
C995 C 0.54907 0.61523 0.4052 0.0
C996 C 0.53877 0.6359 0.42295 0.0
C997 C 0.53748 0.65294 0.36337 0.0
C998 C 0.5709 0.59089 0.30744 0.0
C999 C 0.52736 0.63947 0.50337 0.0
C1000 C 0.52072 0.56446 0.51544 0.0
C1001 C 0.53782 0.55799 0.56806 0.0
C1002 C 0.52425 0.58303 0.46262 0.0
C1003 C 0.54543 0.59559 0.46208 0.0
C1004 C 0.56298 0.58905 0.51424 0.0
C1005 C 0.55899 0.57027 0.56663 0.0
C1006 C 0.50514 0.58926 0.40757 0.0
C1007 C 0.58579 0.602 0.51518 0.0
H1008 H 0.56479 0.62728 0.21156 0.0
H1009 H 0.52822 0.66828 0.37548 0.0
H1010 H 0.58305 0.58416 0.35129 0.0
H1011 H 0.55634 0.57882 0.30595 0.0
H1012 H 0.58146 0.59246 0.2496 0.0
H1013 H 0.5235 0.65713 0.51064 0.0
H1014 H 0.51002 0.63049 0.51443 0.0
H1015 H 0.53937 0.63287 0.54784 0.0
H1016 H 0.50432 0.55509 0.51586 0.0
H1017 H 0.57222 0.56548 0.60739 0.0
H1018 H 0.51328 0.58937 0.34666 0.0
H1019 H 0.49801 0.60608 0.41627 0.0
H1020 H 0.48966 0.5778 0.41569 0.0
H1021 H 0.59606 0.60303 0.45698 0.0
H1022 H 0.59782 0.59459 0.55848 0.0
H1023 H 0.58097 0.61905 0.52883 0.0
C1024 C 0.85668 0.51355 0.45986 0.0
C1025 C 0.85614 0.52863 0.39471 0.0
C1026 C 0.87531 0.51401 0.50918 0.0
C1027 C 0.89409 0.5295 0.4911 0.0
C1028 C 0.89262 0.54567 0.42811 0.0
C1029 C 0.87352 0.5451 0.38082 0.0
C1030 C 0.87593 0.49681 0.57684 0.0
C1031 C 0.91241 0.56225 0.4061 0.0
C1032 C 0.9414 0.53488 0.63328 0.0
C1033 C 0.9595 0.5201 0.60685 0.0
C1034 C 0.91991 0.53815 0.59642 0.0
C1035 C 0.9168 0.52677 0.53062 0.0
C1036 C 0.9354 0.51236 0.50237 0.0
C1037 C 0.95638 0.50899 0.54147 0.0
C1038 C 0.90026 0.55325 0.62913 0.0
C1039 C 0.93304 0.50028 0.43126 0.0
H1040 H 0.84336 0.50065 0.46954 0.0
H1041 H 0.87323 0.55645 0.32929 0.0
H1042 H 0.8901 0.48423 0.56282 0.0
H1043 H 0.88069 0.50427 0.62928 0.0
H1044 H 0.85824 0.48846 0.59054 0.0
H1045 H 0.90694 0.57545 0.36276 0.0
H1046 H 0.91738 0.56985 0.45793 0.0
H1047 H 0.92891 0.55381 0.38084 0.0
H1048 H 0.94367 0.54329 0.68447 0.0
H1049 H 0.97039 0.49761 0.52085 0.0
H1050 H 0.88366 0.54372 0.64866 0.0
H1051 H 0.89535 0.56601 0.58364 0.0
H1052 H 0.90585 0.56146 0.67903 0.0
H1053 H 0.91748 0.48897 0.44214 0.0
H1054 H 0.94966 0.49055 0.41466 0.0
H1055 H 0.92932 0.51211 0.38145 0.0
loop_
_geom_bond_atom_site_label_1
_geom_bond_atom_site_label_2
_geom_bond_distance
_geom_bond_site_symmetry_2
_ccdc_geom_bond_type
H0 C1 0.949 . S
C1 H0 0.949 . S
C1 C2 1.395 . S
C1 C3 1.391 . S
C2 C1 1.395 . S
C2 C5 1.390 . S
C3 C1 1.391 . S
C3 C7 1.387 . S
C3 C8 1.491 . S
H4 C5 0.950 . S
C5 C2 1.390 . S
C5 H4 0.950 . S
C5 C6 1.378 . S
C6 C5 1.378 . S
C6 C7 1.409 . S
C7 C3 1.387 . S
C7 C6 1.409 . S
C7 H9 0.951 . S
C8 C3 1.491 . S
C8 C10 1.382 . S
C8 C12 1.404 . S
H9 C7 0.951 . S
C10 C8 1.382 . S
C10 C11 1.390 . S
C10 H15 0.949 . S
C11 C10 1.390 . S
C11 C16 1.399 . S
C12 C8 1.404 . S
C12 H13 0.950 . S
C12 C14 1.375 . S
H13 C12 0.950 . S
C14 C12 1.375 . S
C14 C16 1.382 . S
C14 H18 0.950 . S
H15 C10 0.949 . S
C16 C11 1.399 . S
C16 C14 1.382 . S
C16 H17 0.952 . S
H17 C16 0.952 . S
H18 C14 0.950 . S
H19 C20 0.949 . S
C20 H19 0.949 . S
C20 C21 1.395 . S
C20 C22 1.391 1_556 S
C21 C20 1.395 . S
C21 C24 1.390 1_556 S
C22 C20 1.391 1_554 S
C22 C26 1.387 . S
C22 C27 1.491 . S
H23 C24 0.950 . S
C24 C21 1.390 1_554 S
C24 H23 0.950 . S
C24 C25 1.378 . S
C25 C24 1.378 . S
C25 C26 1.409 . S
C26 C22 1.387 . S
C26 C25 1.409 . S
C26 H28 0.951 . S
C27 C22 1.491 . S
C27 C29 1.382 1_554 S
C27 C31 1.404 . S
H28 C26 0.951 . S
C29 C27 1.382 1_556 S
C29 C30 1.390 . S
C29 H34 0.972 . S
C30 C29 1.390 . S
C30 C35 1.399 1_556 S
C31 C27 1.404 . S
C31 H32 0.950 . S
C31 C33 1.375 . S
H32 C31 0.950 . S
C33 C31 1.375 . S
C33 C35 1.382 . S
C33 H37 0.950 . S
H34 C29 0.972 . S
C35 C30 1.399 1_554 S
C35 C33 1.382 . S
C35 H36 0.952 . S
H36 C35 0.952 . S
H37 C33 0.950 . S
H38 C39 0.949 1_556 S
C39 H38 0.949 1_554 S
C39 C40 1.395 . S
C39 C41 1.391 . S
C40 C39 1.395 . S
C40 C43 1.390 . S
C41 C39 1.391 . S
C41 C45 1.387 . S
C41 C46 1.491 . S
H42 C43 0.950 . S
C43 C40 1.390 . S
C43 H42 0.950 . S
C43 C44 1.378 . S
C44 C43 1.378 . S
C44 C45 1.409 . S
C45 C41 1.387 . S
C45 C44 1.409 . S
C45 H47 0.951 . S
C46 C41 1.491 . S
C46 C48 1.382 . S
C46 C50 1.404 . S
H47 C45 0.951 . S
C48 C46 1.382 . S
C48 C49 1.390 . S
C48 H53 0.949 1_565 S
C49 C48 1.390 . S
C49 C54 1.399 . S
C50 C46 1.404 . S
C50 H51 0.950 . S
C50 C52 1.375 . S
H51 C50 0.950 . S
C52 C50 1.375 . S
C52 C54 1.382 . S
C52 H56 0.950 . S
H53 C48 0.949 1_545 S
C54 C49 1.399 . S
C54 C52 1.382 . S
C54 H55 0.952 . S
H55 C54 0.952 . S
H56 C52 0.950 . S
H57 C58 0.949 . S
C58 H57 0.949 . S
C58 C59 1.395 . S
C58 C60 1.391 . S
C59 C58 1.395 . S
C59 C62 1.390 . S
C60 C58 1.391 . S
C60 C64 1.387 . S
C60 C65 1.491 . S
H61 C62 0.950 . S
C62 C59 1.390 . S
C62 H61 0.950 . S
C62 C63 1.378 . S
C63 C62 1.378 . S
C63 C64 1.409 . S
C64 C60 1.387 . S
C64 C63 1.409 . S
C64 H66 0.951 . S
C65 C60 1.491 . S
C65 C67 1.382 . S
C65 C69 1.404 . S
H66 C64 0.951 . S
C67 C65 1.382 . S
C67 C68 1.390 . S
C67 H72 0.949 . S
C68 C67 1.390 . S
C68 C73 1.399 . S
C69 C65 1.404 . S
C69 H70 0.950 . S
C69 C71 1.375 . S
H70 C69 0.950 . S
C71 C69 1.375 . S
C71 C73 1.382 . S
C71 H75 0.950 . S
H72 C67 0.949 . S
C73 C68 1.399 . S
C73 C71 1.382 . S
C73 H74 0.952 . S
H74 C73 0.952 . S
H75 C71 0.950 . S
H76 C77 0.949 . S
C77 H76 0.949 . S
C77 C78 1.395 . S
C77 C79 1.391 . S
C78 C77 1.395 . S
C78 C81 1.390 . S
C79 C77 1.391 . S
C79 C83 1.387 . S
C79 C84 1.491 . S
H80 C81 0.950 . S
C81 C78 1.390 . S
C81 H80 0.950 . S
C81 C82 1.378 . S
C82 C81 1.378 . S
C82 C83 1.409 . S
C83 C79 1.387 . S
C83 C82 1.409 . S
C83 H85 0.951 . S
C84 C79 1.491 . S
C84 C86 1.382 . S
C84 C88 1.404 . S
H85 C83 0.951 . S
C86 C84 1.382 . S
C86 C87 1.390 . S
C86 H91 0.949 . S
C87 C86 1.390 . S
C87 C92 1.399 . S
C88 C84 1.404 . S
C88 H89 0.950 . S
C88 C90 1.375 . S
H89 C88 0.950 . S
C90 C88 1.375 . S
C90 C92 1.382 . S
C90 H94 0.950 . S
H91 C86 0.949 . S
C92 C87 1.399 . S
C92 C90 1.382 . S
C92 H93 0.952 . S
H93 C92 0.952 . S
H94 C90 0.950 . S
H95 C96 0.949 . S
C96 H95 0.949 . S
C96 C97 1.395 . S
C96 C98 1.391 . S
C97 C96 1.395 . S
C97 C100 1.390 . S
C98 C96 1.391 . S
C98 C102 1.387 . S
C98 C103 1.491 . S
H99 C100 0.950 . S
C100 C97 1.390 . S
C100 H99 0.950 . S
C100 C101 1.378 . S
C101 C100 1.378 . S
C101 C102 1.409 . S
C102 C98 1.387 . S
C102 C101 1.409 . S
C102 H104 0.951 . S
C103 C98 1.491 . S
C103 C105 1.382 . S
C103 C107 1.404 . S
H104 C102 0.951 . S
C105 C103 1.382 . S
C105 C106 1.390 . S
C105 H110 0.949 . S
C106 C105 1.390 . S
C106 C111 1.399 . S
C107 C103 1.404 . S
C107 H108 0.937 1_455 S
C107 C109 1.375 . S
H108 C107 0.937 1_655 S
C109 C107 1.375 . S
C109 C111 1.382 . S
C109 H113 0.950 1_455 S
H110 C105 0.949 . S
C111 C106 1.399 . S
C111 C109 1.382 . S
C111 H112 0.952 . S
H112 C111 0.952 . S
H113 C109 0.950 1_655 S
H114 C115 0.949 . S
C115 H114 0.949 . S
C115 C116 1.395 . S
C115 C117 1.391 . S
C116 C115 1.395 . S
C116 C119 1.390 . S
C117 C115 1.391 . S
C117 C121 1.387 . S
C117 C122 1.495 . S
H118 C119 0.950 . S
C119 C116 1.390 . S
C119 H118 0.950 . S
C119 C120 1.378 . S
C120 C119 1.378 . S
C120 C121 1.409 . S
C121 C117 1.387 . S
C121 C120 1.409 . S
C121 H123 0.951 . S
C122 C117 1.495 . S
C122 C124 1.392 . S
C122 C126 1.389 1_545 S
H123 C121 0.951 . S
C124 C122 1.392 . S
C124 C125 1.390 . S
C124 H129 0.949 . S
C125 C124 1.390 . S
C125 C130 1.399 1_545 S
C126 C122 1.389 1_565 S
C126 H127 0.950 . S
C126 C128 1.375 . S
H127 C126 0.950 . S
C128 C126 1.375 . S
C128 C130 1.382 . S
C128 H132 0.950 . S
H129 C124 0.949 . S
C130 C125 1.399 1_565 S
C130 C128 1.382 . S
C130 H131 0.952 . S
H131 C130 0.952 . S
H132 C128 0.950 . S
H133 C134 0.949 . S
C134 H133 0.949 . S
C134 C135 1.395 . S
C134 C136 1.391 . S
C135 C134 1.395 . S
C135 C138 1.390 . S
C136 C134 1.391 . S
C136 C140 1.387 . S
C136 C141 1.491 . S
H137 C138 0.950 . S
C138 C135 1.390 . S
C138 H137 0.950 . S
C138 C139 1.378 . S
C139 C138 1.378 . S
C139 C140 1.409 . S
C140 C136 1.387 . S
C140 C139 1.409 . S
C140 H142 0.951 . S
C141 C136 1.491 . S
C141 C143 1.382 . S
C141 C145 1.404 . S
H142 C140 0.951 . S
C143 C141 1.382 . S
C143 C144 1.390 . S
C143 H148 0.949 . S
C144 C143 1.390 . S
C144 C149 1.399 . S
C145 C141 1.404 . S
C145 H146 0.950 . S
C145 C147 1.375 . S
H146 C145 0.950 . S
C147 C145 1.375 . S
C147 C149 1.382 . S
C147 H151 0.950 . S
H148 C143 0.949 . S
C149 C144 1.399 . S
C149 C147 1.382 . S
C149 H150 0.952 . S
H150 C149 0.952 . S
H151 C147 0.950 . S
C152 O168 1.251 . S
C152 O170 1.254 . S
N153 C154 1.333 . S
N153 C158 1.307 1_455 S
N153 Zn159 2.020 . S
C154 N153 1.333 . S
C154 C155 1.379 . S
C154 H172 0.952 . S
C155 C154 1.379 . S
C155 C156 1.390 1_455 S
C155 H182 0.949 . S
C156 C155 1.390 1_655 S
C156 C157 1.357 . S
C157 C156 1.357 . S
C157 C158 1.370 . S
C157 H183 0.950 . S
C158 N153 1.307 1_655 S
C158 C157 1.370 . S
C158 H176 0.948 . S
Zn159 N153 2.020 . S
Zn159 O168 2.039 . S
Zn159 O174 2.034 . S
Zn159 O178 2.025 1_565 S
Zn159 O180 2.024 1_455 S
C160 O179 1.246 . S
C160 O180 1.249 1_545 S
N161 C162 1.307 . S
N161 C163 1.333 . S
N161 Zn167 2.020 . S
C162 N161 1.307 . S
C162 C166 1.370 1_556 S
C162 H173 0.948 . S
C163 N161 1.333 . S
C163 C164 1.379 . S
C163 H171 0.952 . S
C164 C163 1.379 . S
C164 C165 1.390 1_556 S
C164 H184 0.949 . S
C165 C164 1.390 1_554 S
C165 C166 1.357 . S
C166 C162 1.370 1_554 S
C166 C165 1.357 . S
C166 H185 0.950 . S
Zn167 N161 2.020 . S
Zn167 O170 2.025 1_545 S
Zn167 O175 2.024 . S
Zn167 O177 2.039 . S
Zn167 O179 2.034 1_455 S
O168 C152 1.251 . S
O168 Zn159 2.039 . S
C169 O174 1.226 1_545 S
C169 O175 1.268 . S
O170 C152 1.254 . S
O170 Zn167 2.025 1_565 S
H171 C163 0.952 . S
H172 C154 0.952 . S
H173 C162 0.948 . S
O174 Zn159 2.034 . S
O174 C169 1.226 1_565 S
O175 Zn167 2.024 . S
O175 C169 1.268 . S
H176 C158 0.948 . S
O177 Zn167 2.039 . S
O177 C181 1.251 . S
O178 Zn159 2.025 1_545 S
O178 C181 1.254 . S
O179 C160 1.246 . S
O179 Zn167 2.034 1_655 S
O180 Zn159 2.024 1_655 S
O180 C160 1.249 1_565 S
C181 O177 1.251 . S
C181 O178 1.254 . S
H182 C155 0.949 . S
H183 C157 0.950 . S
H184 C164 0.949 . S
H185 C166 0.950 . S
C186 O202 1.282 . S
C186 O204 1.226 1_545 S
N187 C188 1.333 . S
N187 C192 1.307 . S
N187 Zn193 2.020 . S
C188 N187 1.333 . S
C188 C189 1.379 . S
C188 H206 0.952 . S
C189 C188 1.379 . S
C189 C190 1.390 . S
C189 H216 0.949 . S
C190 C189 1.390 . S
C190 C191 1.357 . S
C191 C190 1.357 . S
C191 C192 1.370 . S
C191 H217 0.950 . S
C192 N187 1.307 . S
C192 C191 1.370 . S
C192 H210 0.948 . S
Zn193 N187 2.020 . S
Zn193 O202 2.039 . S
Zn193 O208 2.034 . S
Zn193 O212 2.025 . S
Zn193 O214 2.024 . S
C194 O213 1.246 1_545 S
C194 O214 1.249 . S
N195 C196 1.307 . S
N195 C197 1.333 . S
N195 Zn201 2.020 . S
C196 N195 1.307 . S
C196 C200 1.370 . S
C196 H207 0.948 . S
C197 N195 1.333 . S
C197 C198 1.379 . S
C197 H205 0.952 . S
C198 C197 1.379 . S
C198 C199 1.390 . S
C198 H218 0.949 . S
C199 C198 1.390 . S
C199 C200 1.357 . S
C200 C196 1.370 . S
C200 C199 1.357 . S
C200 H219 0.950 . S
Zn201 N195 2.020 . S
Zn201 O204 2.025 . S
Zn201 O209 2.024 . S
Zn201 O211 2.039 . S
Zn201 O213 2.034 . S
O202 C186 1.282 . S
O202 Zn193 2.039 . S
C203 O208 1.246 1_565 S
C203 O209 1.249 . S
O204 C186 1.226 1_565 S
O204 Zn201 2.025 . S
H205 C197 0.952 . S
H206 C188 0.952 . S
H207 C196 0.948 . S
O208 Zn193 2.034 . S
O208 C203 1.246 1_545 S
O209 Zn201 2.024 . S
O209 C203 1.249 . S
H210 C192 0.948 . S
O211 Zn201 2.039 . S
O211 C215 1.251 1_565 S
O212 Zn193 2.025 . S
O212 C215 1.254 . S
O213 C194 1.246 1_565 S
O213 Zn201 2.034 . S
O214 Zn193 2.024 . S
O214 C194 1.249 . S
C215 O211 1.251 1_545 S
C215 O212 1.254 . S
H216 C189 0.949 . S
H217 C191 0.950 . S
H218 C198 0.949 . S
H219 C200 0.950 . S
C220 O236 1.251 . S
C220 O238 1.254 . S
N221 C222 1.333 . S
N221 C226 1.307 . S
N221 Zn227 2.020 . S
C222 N221 1.333 . S
C222 C223 1.379 . S
C222 H240 0.952 . S
C223 C222 1.379 . S
C223 C224 1.390 . S
C223 H250 0.949 . S
C224 C223 1.390 . S
C224 C225 1.357 . S
C225 C224 1.357 . S
C225 C226 1.370 . S
C225 H251 0.950 . S
C226 N221 1.307 . S
C226 C225 1.370 . S
C226 H244 0.948 . S
Zn227 N221 2.020 . S
Zn227 O236 2.039 . S
Zn227 O242 2.034 . S
Zn227 O246 2.025 . S
Zn227 O248 2.024 . S
C228 O247 1.246 . S
C228 O248 1.249 . S
N229 C230 1.307 . S
N229 C231 1.333 . S
N229 Zn235 2.020 . S
C230 N229 1.307 . S
C230 C234 1.370 . S
C230 H241 0.948 . S
C231 N229 1.333 . S
C231 C232 1.379 . S
C231 H239 0.952 . S
C232 C231 1.379 . S
C232 C233 1.390 . S
C232 H252 0.949 . S
C233 C232 1.390 . S
C233 C234 1.357 . S
C234 C230 1.370 . S
C234 C233 1.357 . S
C234 H253 0.950 . S
Zn235 N229 2.020 . S
Zn235 O238 2.025 . S
Zn235 O243 2.024 . S
Zn235 O245 2.039 . S
Zn235 O247 2.034 . S
O236 C220 1.251 . S
O236 Zn227 2.039 . S
C237 O242 1.246 . S
C237 O243 1.249 . S
O238 C220 1.254 . S
O238 Zn235 2.025 . S
H239 C231 0.952 . S
H240 C222 0.952 . S
H241 C230 0.948 . S
O242 Zn227 2.034 . S
O242 C237 1.246 . S
O243 Zn235 2.024 . S
O243 C237 1.249 . S
H244 C226 0.948 . S
O245 Zn235 2.039 . S
O245 C249 1.251 . S
O246 Zn227 2.025 . S
O246 C249 1.254 . S
O247 C228 1.246 . S
O247 Zn235 2.034 . S
O248 Zn227 2.024 . S
O248 C228 1.249 . S
C249 O245 1.251 . S
C249 O246 1.254 . S
H250 C223 0.949 . S
H251 C225 0.950 . S
H252 C232 0.949 . S
H253 C234 0.950 . S
C254 O270 1.251 . S
C254 O272 1.254 . S
N255 C256 1.333 . S
N255 C260 1.307 . S
N255 Zn261 2.020 . S
C256 N255 1.333 . S
C256 C257 1.379 . S
C256 H274 0.952 . S
C257 C256 1.379 . S
C257 C258 1.390 . S
C257 H284 0.949 . S
C258 C257 1.390 . S
C258 C259 1.357 . S
C259 C258 1.357 . S
C259 C260 1.370 . S
C259 H285 0.951 1_455 S
C260 N255 1.307 . S
C260 C259 1.370 . S
C260 H278 0.948 1_455 S
Zn261 N255 2.020 . S
Zn261 O270 2.039 . S
Zn261 O276 2.034 1_455 S
Zn261 O280 2.025 1_455 S
Zn261 O282 2.024 . S
C262 O281 1.246 . S
C262 O282 1.249 . S
N263 C264 1.307 . S
N263 C265 1.333 . S
N263 Zn269 2.020 . S
C264 N263 1.307 . S
C264 C268 1.370 . S
C264 H275 0.948 . S
C265 N263 1.333 . S
C265 C266 1.380 . S
C265 H273 0.952 1_455 S
C266 C265 1.380 . S
C266 C267 1.392 . S
C266 H286 0.947 1_455 S
C267 C266 1.392 . S
C267 C268 1.357 . S
C268 C264 1.370 . S
C268 C267 1.357 . S
C268 H287 0.950 . S
Zn269 N263 2.020 . S
Zn269 O272 2.025 . S
Zn269 O277 2.024 1_455 S
Zn269 O279 2.039 1_455 S
Zn269 O281 2.034 . S
O270 C254 1.251 . S
O270 Zn261 2.039 . S
C271 O276 1.246 . S
C271 O277 1.249 . S
O272 C254 1.254 . S
O272 Zn269 2.025 . S
H273 C265 0.952 1_655 S
H274 C256 0.952 . S
H275 C264 0.948 . S
O276 Zn261 2.034 1_655 S
O276 C271 1.246 . S
O277 Zn269 2.024 1_655 S
O277 C271 1.249 . S
H278 C260 0.948 1_655 S
O279 Zn269 2.039 1_655 S
O279 C283 1.251 . S
O280 Zn261 2.025 1_655 S
O280 C283 1.254 . S
O281 C262 1.246 . S
O281 Zn269 2.034 . S
O282 Zn261 2.024 . S
O282 C262 1.249 . S
C283 O279 1.251 . S
C283 O280 1.254 . S
H284 C257 0.949 . S
H285 C259 0.951 1_655 S
H286 C266 0.947 1_655 S
H287 C268 0.950 . S
C288 C289 1.391 . S
C288 C290 1.394 . S
C288 H304 0.931 . S
C289 C288 1.391 . S
C289 C293 1.376 1_545 S
C290 C288 1.394 . S
C290 C291 1.369 . S
C290 C294 1.531 . S
C291 C290 1.369 . S
C291 C292 1.410 1_545 S
C291 C299 1.503 . S
C292 C291 1.410 1_565 S
C292 C293 1.392 . S
C292 C295 1.511 . S
C293 C289 1.376 1_565 S
C293 C292 1.392 . S
C293 H305 0.929 . S
C294 C290 1.531 . S
C294 H306 0.960 . S
C294 H307 0.962 . S
C294 H308 0.960 . S
C295 C292 1.511 . S
C295 H309 0.961 . S
C295 H310 0.961 . S
C295 H311 0.961 . S
C296 C297 1.370 . S
C296 C298 1.363 . S
C296 H312 0.931 . S
C297 C296 1.370 . S
C297 C301 1.408 1_545 S
C298 C296 1.363 . S
C298 C299 1.370 . S
C298 C302 1.524 . S
C299 C291 1.503 . S
C299 C298 1.370 . S
C299 C300 1.403 1_545 S
C300 C299 1.403 1_565 S
C300 C301 1.404 . S
C300 C303 1.539 . S
C301 C297 1.408 1_565 S
C301 C300 1.404 . S
C301 H313 0.930 . S
C302 C298 1.524 . S
C302 H314 0.956 . S
C302 H315 0.961 . S
C302 H316 0.961 . S
C303 C300 1.539 . S
C303 H317 0.958 . S
C303 H318 0.961 . S
C303 H319 0.960 . S
H304 C288 0.931 . S
H305 C293 0.929 . S
H306 C294 0.960 . S
H307 C294 0.962 . S
H308 C294 0.960 . S
H309 C295 0.961 . S
H310 C295 0.961 . S
H311 C295 0.961 . S
H312 C296 0.931 . S
H313 C301 0.930 . S
H314 C302 0.956 . S
H315 C302 0.961 . S
H316 C302 0.961 . S
H317 C303 0.958 . S
H318 C303 0.961 . S
H319 C303 0.960 . S
C320 C321 1.391 . S
C320 C322 1.394 . S
C320 H336 0.931 . S
C321 C320 1.391 . S
C321 C325 1.376 . S
C322 C320 1.394 . S
C322 C323 1.369 . S
C322 C326 1.531 . S
C323 C322 1.369 . S
C323 C324 1.410 . S
C323 C331 1.503 . S
C324 C323 1.410 . S
C324 C325 1.392 . S
C324 C327 1.511 . S
C325 C321 1.376 . S
C325 C324 1.392 . S
C325 H337 0.929 . S
C326 C322 1.531 . S
C326 H338 0.960 . S
C326 H339 0.962 . S
C326 H340 0.960 . S
C327 C324 1.511 . S
C327 H341 0.961 . S
C327 H342 0.961 . S
C327 H343 0.961 . S
C328 C329 1.370 . S
C328 C330 1.363 . S
C328 H344 0.931 . S
C329 C328 1.370 . S
C329 C333 1.408 . S
C330 C328 1.363 . S
C330 C331 1.370 . S
C330 C334 1.524 . S
C331 C323 1.503 . S
C331 C330 1.370 . S
C331 C332 1.403 . S
C332 C331 1.403 . S
C332 C333 1.404 . S
C332 C335 1.539 . S
C333 C329 1.408 . S
C333 C332 1.404 . S
C333 H345 0.930 . S
C334 C330 1.524 . S
C334 H346 0.956 . S
C334 H347 0.961 . S
C334 H348 0.961 . S
C335 C332 1.539 . S
C335 H349 0.958 . S
C335 H350 0.961 . S
C335 H351 0.960 . S
H336 C320 0.931 . S
H337 C325 0.929 . S
H338 C326 0.960 . S
H339 C326 0.962 . S
H340 C326 0.960 . S
H341 C327 0.961 . S
H342 C327 0.961 . S
H343 C327 0.961 . S
H344 C328 0.931 . S
H345 C333 0.930 . S
H346 C334 0.956 . S
H347 C334 0.961 . S
H348 C334 0.961 . S
H349 C335 0.958 . S
H350 C335 0.961 . S
H351 C335 0.960 . S
C352 C353 1.391 . S
C352 C354 1.394 . S
C352 H368 0.931 . S
C353 C352 1.391 . S
C353 C357 1.376 . S
C354 C352 1.394 . S
C354 C355 1.369 . S
C354 C358 1.531 . S
C355 C354 1.369 . S
C355 C356 1.410 . S
C355 C363 1.503 . S
C356 C355 1.410 . S
C356 C357 1.392 . S
C356 C359 1.511 . S
C357 C353 1.376 . S
C357 C356 1.392 . S
C357 H369 0.929 . S
C358 C354 1.531 . S
C358 H370 0.960 . S
C358 H371 0.962 . S
C358 H372 0.960 . S
C359 C356 1.511 . S
C359 H373 0.961 . S
C359 H374 0.961 . S
C359 H375 0.961 . S
C360 C361 1.370 . S
C360 C362 1.363 . S
C360 H376 0.931 . S
C361 C360 1.370 . S
C361 C365 1.408 . S
C362 C360 1.363 . S
C362 C363 1.370 . S
C362 C366 1.524 . S
C363 C355 1.503 . S
C363 C362 1.370 . S
C363 C364 1.403 . S
C364 C363 1.403 . S
C364 C365 1.404 . S
C364 C367 1.539 . S
C365 C361 1.408 . S
C365 C364 1.404 . S
C365 H377 0.930 . S
C366 C362 1.524 . S
C366 H378 0.956 . S
C366 H379 0.961 . S
C366 H380 0.961 . S
C367 C364 1.539 . S
C367 H381 0.958 . S
C367 H382 0.961 . S
C367 H383 0.960 . S
H368 C352 0.931 . S
H369 C357 0.929 . S
H370 C358 0.960 . S
H371 C358 0.962 . S
H372 C358 0.960 . S
H373 C359 0.961 . S
H374 C359 0.961 . S
H375 C359 0.961 . S
H376 C360 0.931 . S
H377 C365 0.930 . S
H378 C366 0.956 . S
H379 C366 0.961 . S
H380 C366 0.961 . S
H381 C367 0.958 . S
H382 C367 0.961 . S
H383 C367 0.960 . S
C384 C385 1.391 . S
C384 C386 1.394 . S
C384 H400 0.931 . S
C385 C384 1.391 . S
C385 C389 1.376 . S
C386 C384 1.394 . S
C386 C387 1.369 . S
C386 C390 1.531 1_455 S
C387 C386 1.369 . S
C387 C388 1.410 . S
C387 C395 1.503 . S
C388 C387 1.410 . S
C388 C389 1.392 . S
C388 C391 1.511 . S
C389 C385 1.376 . S
C389 C388 1.392 . S
C389 H401 0.929 . S
C390 C386 1.531 1_655 S
C390 H402 0.960 . S
C390 H403 0.962 . S
C390 H404 0.960 . S
C391 C388 1.511 . S
C391 H405 0.961 . S
C391 H406 0.961 . S
C391 H407 0.961 . S
C392 C393 1.370 . S
C392 C394 1.363 . S
C392 H408 0.917 1_455 S
C393 C392 1.370 . S
C393 C397 1.408 . S
C394 C392 1.363 . S
C394 C395 1.370 . S
C394 C398 1.524 . S
C395 C387 1.503 . S
C395 C394 1.370 . S
C395 C396 1.403 . S
C396 C395 1.403 . S
C396 C397 1.404 . S
C396 C399 1.539 . S
C397 C393 1.408 . S
C397 C396 1.404 . S
C397 H409 0.930 . S
C398 C394 1.524 . S
C398 H410 0.956 1_455 S
C398 H411 0.961 . S
C398 H412 0.961 1_455 S
C399 C396 1.539 . S
C399 H413 0.958 . S
C399 H414 0.961 . S
C399 H415 0.960 . S
H400 C384 0.931 . S
H401 C389 0.929 . S
H402 C390 0.960 . S
H403 C390 0.962 . S
H404 C390 0.960 . S
H405 C391 0.961 . S
H406 C391 0.961 . S
H407 C391 0.961 . S
H408 C392 0.917 1_655 S
H409 C397 0.930 . S
H410 C398 0.956 1_655 S
H411 C398 0.961 . S
H412 C398 0.961 1_655 S
H413 C399 0.958 . S
H414 C399 0.961 . S
H415 C399 0.960 . S
C416 C417 1.391 1_545 S
C416 C418 1.394 . S
C416 H432 0.931 . S
C417 C416 1.391 1_565 S
C417 C421 1.376 1_556 S
C418 C416 1.394 . S
C418 C419 1.369 . S
C418 C422 1.531 . S
C419 C418 1.369 . S
C419 C420 1.410 1_545 S
C419 C427 1.503 . S
C420 C419 1.410 1_565 S
C420 C421 1.392 1_556 S
C420 C423 1.511 1_556 S
C421 C417 1.376 1_554 S
C421 C420 1.392 1_554 S
C421 H433 0.929 . S
C422 C418 1.531 . S
C422 H434 0.960 . S
C422 H435 0.962 1_545 S
C422 H436 0.960 . S
C423 C420 1.511 1_554 S
C423 H437 0.961 . S
C423 H438 0.961 . S
C423 H439 0.961 1_565 S
C424 C425 1.370 1_565 S
C424 C426 1.363 . S
C424 H440 0.931 . S
C425 C424 1.370 1_545 S
C425 C429 1.408 . S
C426 C424 1.363 . S
C426 C427 1.370 1_565 S
C426 C430 1.524 . S
C427 C419 1.503 . S
C427 C426 1.370 1_545 S
C427 C428 1.403 . S
C428 C427 1.403 . S
C428 C429 1.404 . S
C428 C431 1.539 . S
C429 C425 1.408 . S
C429 C428 1.404 . S
C429 H441 0.930 . S
C430 C426 1.524 . S
C430 H442 0.956 . S
C430 H443 0.961 . S
C430 H444 0.961 . S
C431 C428 1.539 . S
C431 H445 0.958 . S
C431 H446 0.961 . S
C431 H447 0.960 . S
H432 C416 0.931 . S
H433 C421 0.929 . S
H434 C422 0.960 . S
H435 C422 0.962 1_565 S
H436 C422 0.960 . S
H437 C423 0.961 . S
H438 C423 0.961 . S
H439 C423 0.961 1_545 S
H440 C424 0.931 . S
H441 C429 0.930 . S
H442 C430 0.956 . S
H443 C430 0.961 . S
H444 C430 0.961 . S
H445 C431 0.958 . S
H446 C431 0.961 . S
H447 C431 0.960 . S
C448 C449 1.391 . S
C448 C450 1.394 . S
C448 H464 0.931 . S
C449 C448 1.391 . S
C449 C453 1.376 1_554 S
C450 C448 1.394 . S
C450 C451 1.369 1_554 S
C450 C454 1.531 . S
C451 C450 1.369 1_556 S
C451 C452 1.410 . S
C451 C459 1.503 . S
C452 C451 1.410 . S
C452 C453 1.392 . S
C452 C455 1.511 . S
C453 C449 1.376 1_556 S
C453 C452 1.392 . S
C453 H465 0.929 . S
C454 C450 1.531 . S
C454 H466 0.960 . S
C454 H467 0.962 . S
C454 H468 0.960 . S
C455 C452 1.511 . S
C455 H469 0.961 . S
C455 H470 0.961 . S
C455 H471 0.961 . S
C456 C457 1.370 . S
C456 C458 1.363 . S
C456 H472 0.931 . S
C457 C456 1.370 . S
C457 C461 1.408 . S
C458 C456 1.363 . S
C458 C459 1.370 . S
C458 C462 1.524 . S
C459 C451 1.503 . S
C459 C458 1.370 . S
C459 C460 1.403 . S
C460 C459 1.403 . S
C460 C461 1.404 . S
C460 C463 1.539 . S
C461 C457 1.408 . S
C461 C460 1.404 . S
C461 H473 0.930 . S
C462 C458 1.524 . S
C462 H474 0.956 . S
C462 H475 0.961 . S
C462 H476 0.961 . S
C463 C460 1.539 . S
C463 H477 0.958 1_556 S
C463 H478 0.961 . S
C463 H479 0.960 . S
H464 C448 0.931 . S
H465 C453 0.929 . S
H466 C454 0.960 . S
H467 C454 0.962 . S
H468 C454 0.960 . S
H469 C455 0.961 . S
H470 C455 0.961 . S
H471 C455 0.961 . S
H472 C456 0.931 . S
H473 C461 0.930 . S
H474 C462 0.956 . S
H475 C462 0.961 . S
H476 C462 0.961 . S
H477 C463 0.958 1_554 S
H478 C463 0.961 . S
H479 C463 0.960 . S
C480 C481 1.391 1_556 S
C480 C482 1.394 . S
C480 H496 0.931 . S
C481 C480 1.391 1_554 S
C481 C485 1.376 . S
C482 C480 1.394 . S
C482 C483 1.369 . S
C482 C486 1.531 . S
C483 C482 1.369 . S
C483 C484 1.410 1_556 S
C483 C491 1.503 . S
C484 C483 1.410 1_554 S
C484 C485 1.392 . S
C484 C487 1.511 . S
C485 C481 1.376 . S
C485 C484 1.392 . S
C485 H497 0.929 . S
C486 C482 1.531 . S
C486 H498 0.960 . S
C486 H499 0.962 . S
C486 H500 0.960 . S
C487 C484 1.511 . S
C487 H501 0.961 . S
C487 H502 0.961 . S
C487 H503 0.961 1_554 S
C488 C489 1.370 . S
C488 C490 1.363 . S
C488 H504 0.931 . S
C489 C488 1.370 . S
C489 C493 1.408 . S
C490 C488 1.363 . S
C490 C491 1.370 . S
C490 C494 1.524 1_556 S
C491 C483 1.503 . S
C491 C490 1.370 . S
C491 C492 1.403 . S
C492 C491 1.403 . S
C492 C493 1.404 . S
C492 C495 1.539 . S
C493 C489 1.408 . S
C493 C492 1.404 . S
C493 H505 0.930 . S
C494 C490 1.524 1_554 S
C494 H506 0.956 . S
C494 H507 0.961 . S
C494 H508 0.961 . S
C495 C492 1.539 . S
C495 H509 0.958 . S
C495 H510 0.961 . S
C495 H511 0.960 . S
H496 C480 0.931 . S
H497 C485 0.929 . S
H498 C486 0.960 . S
H499 C486 0.962 . S
H500 C486 0.960 . S
H501 C487 0.961 . S
H502 C487 0.961 . S
H503 C487 0.961 1_556 S
H504 C488 0.931 . S
H505 C493 0.930 . S
H506 C494 0.956 . S
H507 C494 0.961 . S
H508 C494 0.961 . S
H509 C495 0.958 . S
H510 C495 0.961 . S
H511 C495 0.960 . S
C512 C513 1.391 . S
C512 C514 1.394 . S
C512 H528 0.931 . S
C513 C512 1.391 . S
C513 C517 1.376 1_655 S
C514 C512 1.394 . S
C514 C515 1.341 1_655 S
C514 C518 1.531 . S
C515 C514 1.341 1_455 S
C515 C516 1.434 . S
C515 C523 1.505 . S
C516 C515 1.434 . S
C516 C517 1.392 . S
C516 C519 1.511 . S
C517 C513 1.376 1_455 S
C517 C516 1.392 . S
C517 H529 0.929 . S
C518 C514 1.531 . S
C518 H530 0.960 . S
C518 H531 0.962 . S
C518 H532 0.960 . S
C519 C516 1.511 . S
C519 H533 0.961 1_556 S
C519 H534 0.961 . S
C519 H535 0.961 . S
C520 C521 1.370 1_655 S
C520 C522 1.363 . S
C520 H536 0.931 . S
C521 C520 1.370 1_455 S
C521 C525 1.408 . S
C522 C520 1.363 . S
C522 C523 1.370 1_655 S
C522 C526 1.524 . S
C523 C515 1.505 . S
C523 C522 1.370 1_455 S
C523 C524 1.403 . S
C524 C523 1.403 . S
C524 C525 1.404 . S
C524 C527 1.539 . S
C525 C521 1.408 . S
C525 C524 1.404 . S
C525 H537 0.930 . S
C526 C522 1.524 . S
C526 H538 0.956 . S
C526 H539 0.961 . S
C526 H540 0.961 . S
C527 C524 1.539 . S
C527 H541 0.958 . S
C527 H542 0.961 . S
C527 H543 0.960 . S
H528 C512 0.931 . S
H529 C517 0.929 . S
H530 C518 0.960 . S
H531 C518 0.962 . S
H532 C518 0.960 . S
H533 C519 0.961 1_554 S
H534 C519 0.961 . S
H535 C519 0.961 . S
H536 C520 0.931 . S
H537 C525 0.930 . S
H538 C526 0.956 . S
H539 C526 0.961 . S
H540 C526 0.961 . S
H541 C527 0.958 . S
H542 C527 0.961 . S
H543 C527 0.960 . S
C544 C545 1.391 . S
C544 C546 1.394 . S
C544 H560 0.931 . S
C545 C544 1.391 . S
C545 C549 1.376 . S
C546 C544 1.394 . S
C546 C547 1.369 . S
C546 C550 1.531 . S
C547 C546 1.369 . S
C547 C548 1.410 . S
C547 C555 1.503 . S
C548 C547 1.410 . S
C548 C549 1.392 . S
C548 C551 1.511 1_455 S
C549 C545 1.376 . S
C549 C548 1.392 . S
C549 H561 0.937 . S
C550 C546 1.531 . S
C550 H562 0.960 . S
C550 H563 0.962 . S
C550 H564 0.960 . S
C551 C548 1.511 1_655 S
C551 H565 0.961 . S
C551 H566 0.961 . S
C551 H567 0.961 . S
C552 C553 1.370 . S
C552 C554 1.363 . S
C552 H568 0.931 . S
C553 C552 1.370 . S
C553 C557 1.408 . S
C554 C552 1.363 . S
C554 C555 1.370 . S
C554 C558 1.524 . S
C555 C547 1.503 . S
C555 C554 1.370 . S
C555 C556 1.403 . S
C556 C555 1.403 . S
C556 C557 1.404 . S
C556 C559 1.539 . S
C557 C553 1.408 . S
C557 C556 1.404 . S
C557 H569 0.930 . S
C558 C554 1.524 . S
C558 H570 0.956 . S
C558 H571 0.961 . S
C558 H572 0.961 . S
C559 C556 1.539 . S
C559 H573 0.958 . S
C559 H574 0.961 1_455 S
C559 H575 0.960 . S
H560 C544 0.931 . S
H561 C549 0.937 . S
H562 C550 0.960 . S
H563 C550 0.962 . S
H564 C550 0.960 . S
H565 C551 0.961 . S
H566 C551 0.961 . S
H567 C551 0.961 . S
H568 C552 0.931 . S
H569 C557 0.930 . S
H570 C558 0.956 . S
H571 C558 0.961 . S
H572 C558 0.961 . S
H573 C559 0.958 . S
H574 C559 0.961 1_655 S
H575 C559 0.960 . S
C576 C577 1.391 . S
C576 C578 1.394 . S
C576 H592 0.931 . S
C577 C576 1.391 . S
C577 C581 1.376 . S
C578 C576 1.394 . S
C578 C579 1.369 . S
C578 C582 1.531 . S
C579 C578 1.369 . S
C579 C580 1.410 . S
C579 C587 1.503 . S
C580 C579 1.410 . S
C580 C581 1.392 . S
C580 C583 1.511 1_545 S
C581 C577 1.376 . S
C581 C580 1.392 . S
C581 H593 0.929 1_545 S
C582 C578 1.531 . S
C582 H594 0.960 . S
C582 H595 0.962 . S
C582 H596 0.960 . S
C583 C580 1.511 1_565 S
C583 H597 0.961 . S
C583 H598 0.961 . S
C583 H599 0.961 1_565 S
C584 C585 1.370 1_565 S
C584 C586 1.363 . S
C584 H600 0.931 . S
C585 C584 1.370 1_545 S
C585 C589 1.408 . S
C586 C584 1.363 . S
C586 C587 1.370 1_565 S
C586 C590 1.524 . S
C587 C579 1.503 . S
C587 C586 1.370 1_545 S
C587 C588 1.403 . S
C588 C587 1.403 . S
C588 C589 1.404 . S
C588 C591 1.539 . S
C589 C585 1.408 . S
C589 C588 1.404 . S
C589 H601 0.930 . S
C590 C586 1.524 . S
C590 H602 0.956 . S
C590 H603 0.961 . S
C590 H604 0.961 . S
C591 C588 1.539 . S
C591 H605 0.958 . S
C591 H606 0.961 . S
C591 H607 0.960 . S
H592 C576 0.931 . S
H593 C581 0.929 1_565 S
H594 C582 0.960 . S
H595 C582 0.962 . S
H596 C582 0.960 . S
H597 C583 0.961 . S
H598 C583 0.961 . S
H599 C583 0.961 1_545 S
H600 C584 0.931 . S
H601 C589 0.930 . S
H602 C590 0.956 . S
H603 C590 0.961 . S
H604 C590 0.961 . S
H605 C591 0.958 . S
H606 C591 0.961 . S
H607 C591 0.960 . S
C608 C609 1.391 . S
C608 C610 1.394 . S
C608 H624 0.931 . S
C609 C608 1.391 . S
C609 C613 1.376 . S
C610 C608 1.394 . S
C610 C611 1.369 . S
C610 C614 1.531 . S
C611 C610 1.369 . S
C611 C612 1.410 . S
C611 C619 1.503 . S
C612 C611 1.410 . S
C612 C613 1.392 . S
C612 C615 1.511 . S
C613 C609 1.376 . S
C613 C612 1.392 . S
C613 H625 0.929 . S
C614 C610 1.531 . S
C614 H626 0.960 . S
C614 H627 0.962 . S
C614 H628 0.960 . S
C615 C612 1.511 . S
C615 H629 0.961 . S
C615 H630 0.961 . S
C615 H631 0.961 . S
C616 C617 1.370 . S
C616 C618 1.363 . S
C616 H632 0.931 . S
C617 C616 1.370 . S
C617 C621 1.408 . S
C618 C616 1.363 . S
C618 C619 1.370 . S
C618 C622 1.524 . S
C619 C611 1.503 . S
C619 C618 1.370 . S
C619 C620 1.403 . S
C620 C619 1.403 . S
C620 C621 1.404 . S
C620 C623 1.539 . S
C621 C617 1.408 . S
C621 C620 1.404 . S
C621 H633 0.930 . S
C622 C618 1.524 . S
C622 H634 0.956 . S
C622 H635 0.961 . S
C622 H636 0.961 . S
C623 C620 1.539 . S
C623 H637 0.958 . S
C623 H638 0.961 . S
C623 H639 0.960 . S
H624 C608 0.931 . S
H625 C613 0.929 . S
H626 C614 0.960 . S
H627 C614 0.962 . S
H628 C614 0.960 . S
H629 C615 0.961 . S
H630 C615 0.961 . S
H631 C615 0.961 . S
H632 C616 0.931 . S
H633 C621 0.930 . S
H634 C622 0.956 . S
H635 C622 0.961 . S
H636 C622 0.961 . S
H637 C623 0.958 . S
H638 C623 0.961 . S
H639 C623 0.960 . S
C640 C641 1.391 . S
C640 C642 1.394 . S
C640 H656 0.931 . S
C641 C640 1.391 . S
C641 C645 1.376 . S
C642 C640 1.394 . S
C642 C643 1.369 . S
C642 C646 1.531 . S
C643 C642 1.369 . S
C643 C644 1.410 . S
C643 C651 1.503 . S
C644 C643 1.410 . S
C644 C645 1.392 . S
C644 C647 1.511 . S
C645 C641 1.376 . S
C645 C644 1.392 . S
C645 H657 0.929 . S
C646 C642 1.531 . S
C646 H658 0.960 . S
C646 H659 0.962 . S
C646 H660 0.960 . S
C647 C644 1.511 . S
C647 H661 0.961 . S
C647 H662 0.961 . S
C647 H663 0.961 . S
C648 C649 1.370 . S
C648 C650 1.363 . S
C648 H664 0.931 . S
C649 C648 1.370 . S
C649 C653 1.408 . S
C650 C648 1.363 . S
C650 C651 1.370 . S
C650 C654 1.524 . S
C651 C643 1.503 . S
C651 C650 1.370 . S
C651 C652 1.403 . S
C652 C651 1.403 . S
C652 C653 1.404 . S
C652 C655 1.539 . S
C653 C649 1.408 . S
C653 C652 1.404 . S
C653 H665 0.930 . S
C654 C650 1.524 . S
C654 H666 0.956 . S
C654 H667 0.961 . S
C654 H668 0.961 . S
C655 C652 1.539 . S
C655 H669 0.958 . S
C655 H670 0.961 . S
C655 H671 0.960 . S
H656 C640 0.931 . S
H657 C645 0.929 . S
H658 C646 0.960 . S
H659 C646 0.962 . S
H660 C646 0.960 . S
H661 C647 0.961 . S
H662 C647 0.961 . S
H663 C647 0.961 . S
H664 C648 0.931 . S
H665 C653 0.930 . S
H666 C654 0.956 . S
H667 C654 0.961 . S
H668 C654 0.961 . S
H669 C655 0.958 . S
H670 C655 0.961 . S
H671 C655 0.960 . S
C672 C673 1.391 1_455 S
C672 C674 1.394 . S
C672 H688 0.931 . S
C673 C672 1.391 1_655 S
C673 C677 1.376 . S
C674 C672 1.394 . S
C674 C675 1.369 1_455 S
C674 C678 1.531 . S
C675 C674 1.369 1_655 S
C675 C676 1.410 . S
C675 C683 1.503 1_655 S
C676 C675 1.410 . S
C676 C677 1.392 . S
C676 C679 1.511 . S
C677 C673 1.376 . S
C677 C676 1.392 . S
C677 H689 0.929 . S
C678 C674 1.531 . S
C678 H690 0.960 . S
C678 H691 0.962 . S
C678 H692 0.960 . S
C679 C676 1.511 . S
C679 H693 0.961 . S
C679 H694 0.961 . S
C679 H695 0.961 . S
C680 C681 1.370 . S
C680 C682 1.363 . S
C680 H696 0.931 . S
C681 C680 1.370 . S
C681 C685 1.408 . S
C682 C680 1.363 . S
C682 C683 1.370 . S
C682 C686 1.524 . S
C683 C675 1.503 1_455 S
C683 C682 1.370 . S
C683 C684 1.403 1_455 S
C684 C683 1.403 1_655 S
C684 C685 1.404 1_655 S
C684 C687 1.539 . S
C685 C681 1.408 . S
C685 C684 1.404 1_455 S
C685 H697 0.930 1_455 S
C686 C682 1.524 . S
C686 H698 0.956 . S
C686 H699 0.961 1_556 S
C686 H700 0.961 1_556 S
C687 C684 1.539 . S
C687 H701 0.958 . S
C687 H702 0.961 . S
C687 H703 0.960 . S
H688 C672 0.931 . S
H689 C677 0.929 . S
H690 C678 0.960 . S
H691 C678 0.962 . S
H692 C678 0.960 . S
H693 C679 0.961 . S
H694 C679 0.961 . S
H695 C679 0.961 . S
H696 C680 0.931 . S
H697 C685 0.930 1_655 S
H698 C686 0.956 . S
H699 C686 0.961 1_554 S
H700 C686 0.961 1_554 S
H701 C687 0.958 . S
H702 C687 0.961 . S
H703 C687 0.960 . S
C704 C705 1.391 . S
C704 C706 1.394 1_554 S
C704 H720 0.931 . S
C705 C704 1.391 . S
C705 C709 1.376 1_564 S
C706 C704 1.394 1_556 S
C706 C707 1.369 . S
C706 C710 1.531 1_556 S
C707 C706 1.369 . S
C707 C708 1.410 1_565 S
C707 C715 1.503 1_565 S
C708 C707 1.410 1_545 S
C708 C709 1.392 . S
C708 C711 1.511 . S
C709 C705 1.376 1_546 S
C709 C708 1.392 . S
C709 H721 0.929 . S
C710 C706 1.531 1_554 S
C710 H722 0.960 . S
C710 H723 0.962 1_554 S
C710 H724 0.960 . S
C711 C708 1.511 . S
C711 H725 0.961 . S
C711 H726 0.961 . S
C711 H727 0.961 . S
C712 C713 1.370 1_565 S
C712 C714 1.363 . S
C712 H728 0.931 . S
C713 C712 1.370 1_545 S
C713 C717 1.408 . S
C714 C712 1.363 . S
C714 C715 1.367 1_565 S
C714 C718 1.524 . S
C715 C707 1.503 1_545 S
C715 C714 1.367 1_545 S
C715 C716 1.407 . S
C716 C715 1.407 . S
C716 C717 1.404 . S
C716 C719 1.539 1_556 S
C717 C713 1.408 . S
C717 C716 1.404 . S
C717 H729 0.930 . S
C718 C714 1.524 . S
C718 H730 0.956 . S
C718 H731 0.961 . S
C718 H732 0.961 . S
C719 C716 1.539 1_554 S
C719 H733 0.958 . S
C719 H734 0.961 . S
C719 H735 0.960 . S
H720 C704 0.931 . S
H721 C709 0.929 . S
H722 C710 0.960 . S
H723 C710 0.962 1_556 S
H724 C710 0.960 . S
H725 C711 0.961 . S
H726 C711 0.961 . S
H727 C711 0.961 . S
H728 C712 0.931 . S
H729 C717 0.930 . S
H730 C718 0.956 . S
H731 C718 0.961 . S
H732 C718 0.961 . S
H733 C719 0.958 . S
H734 C719 0.961 . S
H735 C719 0.960 . S
C736 C737 1.391 . S
C736 C738 1.394 1_554 S
C736 H752 0.931 . S
C737 C736 1.391 . S
C737 C741 1.376 1_554 S
C738 C736 1.394 1_556 S
C738 C739 1.369 . S
C738 C742 1.531 . S
C739 C738 1.369 . S
C739 C740 1.410 . S
C739 C747 1.503 . S
C740 C739 1.410 . S
C740 C741 1.392 . S
C740 C743 1.511 . S
C741 C737 1.376 1_556 S
C741 C740 1.392 . S
C741 H753 0.929 . S
C742 C738 1.531 . S
C742 H754 0.960 . S
C742 H755 0.962 . S
C742 H756 0.960 1_556 S
C743 C740 1.511 . S
C743 H757 0.961 . S
C743 H758 0.961 . S
C743 H759 0.961 . S
C744 C745 1.370 . S
C744 C746 1.363 . S
C744 H760 0.931 . S
C745 C744 1.370 . S
C745 C749 1.408 . S
C746 C744 1.363 . S
C746 C747 1.370 . S
C746 C750 1.524 . S
C747 C739 1.503 . S
C747 C746 1.370 . S
C747 C748 1.403 . S
C748 C747 1.403 . S
C748 C749 1.404 . S
C748 C751 1.539 1_556 S
C749 C745 1.408 . S
C749 C748 1.404 . S
C749 H761 0.930 . S
C750 C746 1.524 . S
C750 H762 0.956 . S
C750 H763 0.961 . S
C750 H764 0.961 . S
C751 C748 1.539 1_554 S
C751 H765 0.958 . S
C751 H766 0.961 . S
C751 H767 0.960 . S
H752 C736 0.931 . S
H753 C741 0.929 . S
H754 C742 0.960 . S
H755 C742 0.962 . S
H756 C742 0.960 1_554 S
H757 C743 0.961 . S
H758 C743 0.961 . S
H759 C743 0.961 . S
H760 C744 0.931 . S
H761 C749 0.930 . S
H762 C750 0.956 . S
H763 C750 0.961 . S
H764 C750 0.961 . S
H765 C751 0.958 . S
H766 C751 0.961 . S
H767 C751 0.960 . S
C768 C769 1.391 . S
C768 C770 1.394 . S
C768 H784 0.931 . S
C769 C768 1.391 . S
C769 C773 1.376 1_554 S
C770 C768 1.394 . S
C770 C771 1.369 1_554 S
C770 C774 1.531 . S
C771 C770 1.369 1_556 S
C771 C772 1.410 . S
C771 C779 1.503 . S
C772 C771 1.410 . S
C772 C773 1.392 . S
C772 C775 1.511 . S
C773 C769 1.376 1_556 S
C773 C772 1.392 . S
C773 H785 0.929 . S
C774 C770 1.531 . S
C774 H786 0.960 . S
C774 H787 0.962 . S
C774 H788 0.960 . S
C775 C772 1.511 . S
C775 H789 0.961 . S
C775 H790 0.961 . S
C775 H791 0.961 . S
C776 C777 1.370 . S
C776 C778 1.363 . S
C776 H792 0.931 . S
C777 C776 1.370 . S
C777 C781 1.408 . S
C778 C776 1.363 . S
C778 C779 1.370 . S
C778 C782 1.524 . S
C779 C771 1.503 . S
C779 C778 1.370 . S
C779 C780 1.403 . S
C780 C779 1.403 . S
C780 C781 1.404 . S
C780 C783 1.539 . S
C781 C777 1.408 . S
C781 C780 1.404 . S
C781 H793 0.930 . S
C782 C778 1.524 . S
C782 H794 0.956 1_556 S
C782 H795 0.961 . S
C782 H796 0.961 . S
C783 C780 1.539 . S
C783 H797 0.958 . S
C783 H798 0.961 . S
C783 H799 0.960 . S
H784 C768 0.931 . S
H785 C773 0.929 . S
H786 C774 0.960 . S
H787 C774 0.962 . S
H788 C774 0.960 . S
H789 C775 0.961 . S
H790 C775 0.961 . S
H791 C775 0.961 . S
H792 C776 0.931 . S
H793 C781 0.930 . S
H794 C782 0.956 1_554 S
H795 C782 0.961 . S
H796 C782 0.961 . S
H797 C783 0.958 . S
H798 C783 0.961 . S
H799 C783 0.960 . S
C800 C801 1.391 . S
C800 C802 1.394 . S
C800 H816 0.931 . S
C801 C800 1.391 . S
C801 C805 1.376 . S
C802 C800 1.394 . S
C802 C803 1.369 . S
C802 C806 1.531 . S
C803 C802 1.369 . S
C803 C804 1.410 . S
C803 C811 1.503 . S
C804 C803 1.410 . S
C804 C805 1.392 . S
C804 C807 1.511 . S
C805 C801 1.376 . S
C805 C804 1.392 . S
C805 H817 0.929 . S
C806 C802 1.531 . S
C806 H818 0.960 . S
C806 H819 0.962 . S
C806 H820 0.960 . S
C807 C804 1.511 . S
C807 H821 0.961 . S
C807 H822 0.961 . S
C807 H823 0.961 1_455 S
C808 C809 1.370 . S
C808 C810 1.363 . S
C808 H824 0.931 . S
C809 C808 1.370 . S
C809 C813 1.408 . S
C810 C808 1.363 . S
C810 C811 1.370 . S
C810 C814 1.524 . S
C811 C803 1.503 . S
C811 C810 1.370 . S
C811 C812 1.403 . S
C812 C811 1.403 . S
C812 C813 1.404 . S
C812 C815 1.539 1_455 S
C813 C809 1.408 . S
C813 C812 1.404 . S
C813 H825 0.930 1_455 S
C814 C810 1.524 . S
C814 H826 0.956 . S
C814 H827 0.961 . S
C814 H828 0.961 . S
C815 C812 1.539 1_655 S
C815 H829 0.958 . S
C815 H830 0.961 . S
C815 H831 0.960 . S
H816 C800 0.931 . S
H817 C805 0.929 . S
H818 C806 0.960 . S
H819 C806 0.962 . S
H820 C806 0.960 . S
H821 C807 0.961 . S
H822 C807 0.961 . S
H823 C807 0.961 1_655 S
H824 C808 0.931 . S
H825 C813 0.930 1_655 S
H826 C814 0.956 . S
H827 C814 0.961 . S
H828 C814 0.961 . S
H829 C815 0.958 . S
H830 C815 0.961 . S
H831 C815 0.960 . S
C832 C833 1.391 . S
C832 C834 1.394 . S
C832 H848 0.931 . S
C833 C832 1.391 . S
C833 C837 1.376 1_545 S
C834 C832 1.394 . S
C834 C835 1.369 . S
C834 C838 1.531 . S
C835 C834 1.369 . S
C835 C836 1.410 1_545 S
C835 C843 1.503 . S
C836 C835 1.410 1_565 S
C836 C837 1.392 . S
C836 C839 1.511 . S
C837 C833 1.376 1_565 S
C837 C836 1.392 . S
C837 H849 0.929 . S
C838 C834 1.531 . S
C838 H850 0.960 . S
C838 H851 0.962 . S
C838 H852 0.960 . S
C839 C836 1.511 . S
C839 H853 0.961 . S
C839 H854 0.961 1_554 S
C839 H855 0.961 . S
C840 C841 1.370 . S
C840 C842 1.363 . S
C840 H856 0.931 . S
C841 C840 1.370 . S
C841 C845 1.408 1_545 S
C842 C840 1.363 . S
C842 C843 1.370 1_556 S
C842 C846 1.524 . S
C843 C835 1.503 . S
C843 C842 1.370 1_554 S
C843 C844 1.403 1_545 S
C844 C843 1.403 1_565 S
C844 C845 1.404 1_554 S
C844 C847 1.539 . S
C845 C841 1.408 1_565 S
C845 C844 1.404 1_556 S
C845 H857 0.932 . S
C846 C842 1.524 . S
C846 H858 0.956 . S
C846 H859 0.961 . S
C846 H860 0.961 . S
C847 C844 1.539 . S
C847 H861 0.958 . S
C847 H862 0.961 . S
C847 H863 0.960 . S
H848 C832 0.931 . S
H849 C837 0.929 . S
H850 C838 0.960 . S
H851 C838 0.962 . S
H852 C838 0.960 . S
H853 C839 0.961 . S
H854 C839 0.961 1_556 S
H855 C839 0.961 . S
H856 C840 0.931 . S
H857 C845 0.932 . S
H858 C846 0.956 . S
H859 C846 0.961 . S
H860 C846 0.961 . S
H861 C847 0.958 . S
H862 C847 0.961 . S
H863 C847 0.960 . S
C864 C865 1.391 . S
C864 C866 1.394 . S
C864 H880 0.931 . S
C865 C864 1.391 . S
C865 C869 1.376 . S
C866 C864 1.394 . S
C866 C867 1.369 . S
C866 C870 1.531 1_554 S
C867 C866 1.369 . S
C867 C868 1.410 . S
C867 C875 1.503 . S
C868 C867 1.410 . S
C868 C869 1.392 . S
C868 C871 1.511 . S
C869 C865 1.376 . S
C869 C868 1.392 . S
C869 H881 0.929 . S
C870 C866 1.531 1_556 S
C870 H882 0.960 . S
C870 H883 0.962 . S
C870 H884 0.960 . S
C871 C868 1.511 . S
C871 H885 0.961 . S
C871 H886 0.961 . S
C871 H887 0.961 . S
C872 C873 1.370 . S
C872 C874 1.363 1_556 S
C872 H888 0.931 . S
C873 C872 1.370 . S
C873 C877 1.408 . S
C874 C872 1.363 1_554 S
C874 C875 1.370 . S
C874 C878 1.524 . S
C875 C867 1.503 . S
C875 C874 1.370 . S
C875 C876 1.403 1_554 S
C876 C875 1.403 1_556 S
C876 C877 1.404 . S
C876 C879 1.539 . S
C877 C873 1.408 . S
C877 C876 1.404 . S
C877 H889 0.930 . S
C878 C874 1.524 . S
C878 H890 0.956 . S
C878 H891 0.961 . S
C878 H892 0.961 . S
C879 C876 1.539 . S
C879 H893 0.958 . S
C879 H894 0.961 . S
C879 H895 0.960 1_556 S
H880 C864 0.931 . S
H881 C869 0.929 . S
H882 C870 0.960 . S
H883 C870 0.962 . S
H884 C870 0.960 . S
H885 C871 0.961 . S
H886 C871 0.961 . S
H887 C871 0.961 . S
H888 C872 0.931 . S
H889 C877 0.930 . S
H890 C878 0.956 . S
H891 C878 0.961 . S
H892 C878 0.961 . S
H893 C879 0.958 . S
H894 C879 0.961 . S
H895 C879 0.960 1_554 S
C896 C897 1.391 . S
C896 C898 1.394 . S
C896 H912 0.931 . S
C897 C896 1.391 . S
C897 C901 1.376 . S
C898 C896 1.394 . S
C898 C899 1.369 . S
C898 C902 1.531 1_554 S
C899 C898 1.369 . S
C899 C900 1.410 . S
C899 C907 1.510 . S
C900 C899 1.410 . S
C900 C901 1.392 . S
C900 C903 1.511 . S
C901 C897 1.376 . S
C901 C900 1.392 . S
C901 H913 0.929 . S
C902 C898 1.531 1_556 S
C902 H914 0.960 . S
C902 H915 0.962 . S
C902 H916 0.960 . S
C903 C900 1.511 . S
C903 H917 0.961 . S
C903 H918 0.961 . S
C903 H919 0.961 . S
C904 C905 1.370 . S
C904 C906 1.363 . S
C904 H920 0.931 . S
C905 C904 1.370 . S
C905 C909 1.408 . S
C906 C904 1.363 . S
C906 C907 1.366 1_556 S
C906 C910 1.524 . S
C907 C899 1.510 . S
C907 C906 1.366 1_554 S
C907 C908 1.400 1_554 S
C908 C907 1.400 1_556 S
C908 C909 1.404 . S
C908 C911 1.539 1_556 S
C909 C905 1.408 . S
C909 C908 1.404 . S
C909 H921 0.930 . S
C910 C906 1.524 . S
C910 H922 0.956 . S
C910 H923 0.961 1_556 S
C910 H924 0.961 . S
C911 C908 1.539 1_554 S
C911 H925 0.958 . S
C911 H926 0.961 . S
C911 H927 0.960 . S
H912 C896 0.931 . S
H913 C901 0.929 . S
H914 C902 0.960 . S
H915 C902 0.962 . S
H916 C902 0.960 . S
H917 C903 0.961 . S
H918 C903 0.961 . S
H919 C903 0.961 . S
H920 C904 0.931 . S
H921 C909 0.930 . S
H922 C910 0.956 . S
H923 C910 0.961 1_554 S
H924 C910 0.961 . S
H925 C911 0.958 . S
H926 C911 0.961 . S
H927 C911 0.960 . S
C928 C929 1.391 . S
C928 C930 1.394 . S
C928 H944 0.931 . S
C929 C928 1.391 . S
C929 C933 1.376 1_655 S
C930 C928 1.394 . S
C930 C931 1.369 . S
C930 C934 1.531 . S
C931 C930 1.369 . S
C931 C932 1.410 1_655 S
C931 C939 1.503 . S
C932 C931 1.410 1_455 S
C932 C933 1.392 . S
C932 C935 1.511 . S
C933 C929 1.376 1_455 S
C933 C932 1.392 . S
C933 H945 0.929 . S
C934 C930 1.531 . S
C934 H946 0.960 . S
C934 H947 0.962 . S
C934 H948 0.960 . S
C935 C932 1.511 . S
C935 H949 0.961 . S
C935 H950 0.961 . S
C935 H951 0.961 . S
C936 C937 1.370 . S
C936 C938 1.363 . S
C936 H952 0.931 . S
C937 C936 1.370 . S
C937 C941 1.408 1_655 S
C938 C936 1.363 . S
C938 C939 1.370 . S
C938 C942 1.524 . S
C939 C931 1.503 . S
C939 C938 1.370 . S
C939 C940 1.403 1_655 S
C940 C939 1.403 1_455 S
C940 C941 1.404 . S
C940 C943 1.539 . S
C941 C937 1.408 1_455 S
C941 C940 1.404 . S
C941 H953 0.930 . S
C942 C938 1.524 . S
C942 H954 0.956 . S
C942 H955 0.961 . S
C942 H956 0.961 . S
C943 C940 1.539 . S
C943 H957 0.958 . S
C943 H958 0.961 . S
C943 H959 0.960 . S
H944 C928 0.931 . S
H945 C933 0.929 . S
H946 C934 0.960 . S
H947 C934 0.962 . S
H948 C934 0.960 . S
H949 C935 0.961 . S
H950 C935 0.961 . S
H951 C935 0.961 . S
H952 C936 0.931 . S
H953 C941 0.930 . S
H954 C942 0.956 . S
H955 C942 0.961 . S
H956 C942 0.961 . S
H957 C943 0.958 . S
H958 C943 0.961 . S
H959 C943 0.960 . S
C960 C961 1.391 1_545 S
C960 C962 1.394 . S
C960 H976 0.931 . S
C961 C960 1.391 1_565 S
C961 C965 1.376 . S
C962 C960 1.394 . S
C962 C963 1.369 1_545 S
C962 C966 1.531 . S
C963 C962 1.369 1_565 S
C963 C964 1.410 . S
C963 C971 1.503 . S
C964 C963 1.410 . S
C964 C965 1.392 . S
C964 C967 1.511 . S
C965 C961 1.376 . S
C965 C964 1.392 . S
C965 H977 0.929 . S
C966 C962 1.531 . S
C966 H978 0.960 . S
C966 H979 0.962 . S
C966 H980 0.960 . S
C967 C964 1.511 . S
C967 H981 0.961 . S
C967 H982 0.961 . S
C967 H983 0.961 . S
C968 C969 1.370 . S
C968 C970 1.363 . S
C968 H984 0.931 . S
C969 C968 1.370 . S
C969 C973 1.408 1_565 S
C970 C968 1.363 . S
C970 C971 1.370 . S
C970 C974 1.524 . S
C971 C963 1.503 . S
C971 C970 1.370 . S
C971 C972 1.403 1_565 S
C972 C971 1.403 1_545 S
C972 C973 1.404 . S
C972 C975 1.539 . S
C973 C969 1.408 1_545 S
C973 C972 1.404 . S
C973 H985 0.930 . S
C974 C970 1.524 . S
C974 H986 0.956 . S
C974 H987 0.961 . S
C974 H988 0.961 . S
C975 C972 1.539 . S
C975 H989 0.958 . S
C975 H990 0.961 . S
C975 H991 0.960 . S
H976 C960 0.931 . S
H977 C965 0.929 . S
H978 C966 0.960 . S
H979 C966 0.962 . S
H980 C966 0.960 . S
H981 C967 0.961 . S
H982 C967 0.961 . S
H983 C967 0.961 . S
H984 C968 0.931 . S
H985 C973 0.930 . S
H986 C974 0.956 . S
H987 C974 0.961 . S
H988 C974 0.961 . S
H989 C975 0.958 . S
H990 C975 0.961 . S
H991 C975 0.960 . S
C992 C993 1.391 . S
C992 C994 1.394 . S
C992 H1008 0.931 . S
C993 C992 1.391 . S
C993 C997 1.376 . S
C994 C992 1.394 . S
C994 C995 1.369 . S
C994 C998 1.531 . S
C995 C994 1.369 . S
C995 C996 1.410 . S
C995 C1003 1.503 . S
C996 C995 1.410 . S
C996 C997 1.392 . S
C996 C999 1.511 . S
C997 C993 1.376 . S
C997 C996 1.392 . S
C997 H1009 0.929 . S
C998 C994 1.531 . S
C998 H1010 0.960 . S
C998 H1011 0.962 . S
C998 H1012 0.960 . S
C999 C996 1.511 . S
C999 H1013 0.961 . S
C999 H1014 0.961 . S
C999 H1015 0.961 . S
C1000 C1001 1.370 . S
C1000 C1002 1.363 . S
C1000 H1016 0.931 . S
C1001 C1000 1.370 . S
C1001 C1005 1.408 . S
C1002 C1000 1.363 . S
C1002 C1003 1.370 . S
C1002 C1006 1.524 . S
C1003 C995 1.503 . S
C1003 C1002 1.370 . S
C1003 C1004 1.403 . S
C1004 C1003 1.403 . S
C1004 C1005 1.404 . S
C1004 C1007 1.539 . S
C1005 C1001 1.408 . S
C1005 C1004 1.404 . S
C1005 H1017 0.930 . S
C1006 C1002 1.524 . S
C1006 H1018 0.956 . S
C1006 H1019 0.961 . S
C1006 H1020 0.961 . S
C1007 C1004 1.539 . S
C1007 H1021 0.958 . S
C1007 H1022 0.961 . S
C1007 H1023 0.960 . S
H1008 C992 0.931 . S
H1009 C997 0.929 . S
H1010 C998 0.960 . S
H1011 C998 0.962 . S
H1012 C998 0.960 . S
H1013 C999 0.961 . S
H1014 C999 0.961 . S
H1015 C999 0.961 . S
H1016 C1000 0.931 . S
H1017 C1005 0.930 . S
H1018 C1006 0.956 . S
H1019 C1006 0.961 . S
H1020 C1006 0.961 . S
H1021 C1007 0.958 . S
H1022 C1007 0.961 . S
H1023 C1007 0.960 . S
C1024 C1025 1.391 . S
C1024 C1026 1.394 . S
C1024 H1040 0.931 . S
C1025 C1024 1.391 . S
C1025 C1029 1.376 . S
C1026 C1024 1.394 . S
C1026 C1027 1.369 . S
C1026 C1030 1.531 . S
C1027 C1026 1.369 . S
C1027 C1028 1.410 . S
C1027 C1035 1.503 . S
C1028 C1027 1.410 . S
C1028 C1029 1.392 . S
C1028 C1031 1.511 . S
C1029 C1025 1.376 . S
C1029 C1028 1.392 . S
C1029 H1041 0.929 . S
C1030 C1026 1.531 . S
C1030 H1042 0.960 . S
C1030 H1043 0.962 . S
C1030 H1044 0.960 . S
C1031 C1028 1.511 . S
C1031 H1045 0.961 . S
C1031 H1046 0.961 . S
C1031 H1047 0.961 . S
C1032 C1033 1.370 . S
C1032 C1034 1.363 . S
C1032 H1048 0.931 . S
C1033 C1032 1.370 . S
C1033 C1037 1.408 . S
C1034 C1032 1.363 . S
C1034 C1035 1.370 . S
C1034 C1038 1.524 . S
C1035 C1027 1.503 . S
C1035 C1034 1.370 . S
C1035 C1036 1.403 . S
C1036 C1035 1.403 . S
C1036 C1037 1.404 . S
C1036 C1039 1.539 . S
C1037 C1033 1.408 . S
C1037 C1036 1.404 . S
C1037 H1049 0.930 . S
C1038 C1034 1.524 . S
C1038 H1050 0.956 . S
C1038 H1051 0.961 . S
C1038 H1052 0.961 . S
C1039 C1036 1.539 . S
C1039 H1053 0.958 . S
C1039 H1054 0.961 . S
C1039 H1055 0.960 . S
H1040 C1024 0.931 . S
H1041 C1029 0.929 . S
H1042 C1030 0.960 . S
H1043 C1030 0.962 . S
H1044 C1030 0.960 . S
H1045 C1031 0.961 . S
H1046 C1031 0.961 . S
H1047 C1031 0.961 . S
H1048 C1032 0.931 . S
H1049 C1037 0.930 . S
H1050 C1038 0.956 . S
H1051 C1038 0.961 . S
H1052 C1038 0.961 . S
H1053 C1039 0.958 . S
H1054 C1039 0.961 . S
H1055 C1039 0.960 . S
C289 C125 1.754 . S
C297 C169 1.907 . S
C329 C190 1.553 . S
C321 C144 1.458 . S
C361 C224 1.386 . S
C353 C87 1.308 . S
C393 C258 1.538 . S
C385 C106 1.459 . S
C425 C160 1.905 . S
C417 C49 1.829 1_556 S
C449 C68 1.434 . S
C457 C199 1.554 . S
C481 C11 1.385 . S
C489 C233 1.389 . S
C513 C30 1.498 . S
C521 C267 1.537 . S
C553 C181 0.599 . S
C545 C97 0.744 . S
C585 C186 1.109 . S
C577 C116 1.104 . S
C617 C220 1.016 . S
C609 C135 1.030 . S
C641 C78 0.443 . S
C649 C254 0.484 . S
C673 C21 0.750 . S
C681 C152 0.591 . S
C713 C215 1.119 . S
C705 C40 1.034 . S
C745 C249 1.022 . S
C737 C59 0.945 . S
C769 C2 0.536 . S
C777 C283 0.489 . S
C801 C101 1.280 . S
C809 C165 1.325 . S
C833 C120 1.703 . S
C841 C194 1.758 . S
C873 C228 1.566 . S
C865 C139 1.544 . S
C905 C262 1.658 . S
C897 C82 1.614 . S
C929 C25 1.317 . S
C937 C156 1.319 . S
C969 C203 1.758 . S
C961 C44 1.702 . S
C1001 C237 1.563 . S
C993 C63 1.555 . S
C1025 C6 1.595 . S
C1033 C271 1.658 . S
