# Generated by pormake.
# Topology pto, (3,4)-cn, num edge types: 1
# Building blocks:
#     Node 0, Type 0, BuildingBlock: KAKCAD_clean_linker_0, # of connection points: 3
#     Node 1, Type 0, BuildingBlock: KAKCAD_clean_linker_0, # of connection points: 3
#     Node 2, Type 0, BuildingBlock: KAKCAD_clean_linker_0, # of connection points: 3
#     Node 3, Type 0, BuildingBlock: KAKCAD_clean_linker_0, # of connection points: 3
#     Node 4, Type 0, BuildingBlock: KAKCAD_clean_linker_0, # of connection points: 3
#     Node 5, Type 0, BuildingBlock: KAKCAD_clean_linker_0, # of connection points: 3
#     Node 6, Type 0, BuildingBlock: KAKCAD_clean_linker_0, # of connection points: 3
#     Node 7, Type 0, BuildingBlock: KAKCAD_clean_linker_0, # of connection points: 3
#     Node 8, Type 1, BuildingBlock: NAWXER_clean_sbu_0, # of connection points: 4
#     Node 9, Type 1, BuildingBlock: NAWXER_clean_sbu_0, # of connection points: 4
#     Node 10, Type 1, BuildingBlock: NAWXER_clean_sbu_0, # of connection points: 4
#     Node 11, Type 1, BuildingBlock: NAWXER_clean_sbu_0, # of connection points: 4
#     Node 12, Type 1, BuildingBlock: NAWXER_clean_sbu_0, # of connection points: 4
#     Node 13, Type 1, BuildingBlock: NAWXER_clean_sbu_0, # of connection points: 4
#     Edge 14, Type (0, 1), BuildingBlock: MIFKUJ_clean_linker_0, # of connection points: 2
#     Edge 15, Type (0, 1), BuildingBlock: MIFKUJ_clean_linker_0, # of connection points: 2
#     Edge 16, Type (0, 1), BuildingBlock: MIFKUJ_clean_linker_0, # of connection points: 2
#     Edge 17, Type (0, 1), BuildingBlock: MIFKUJ_clean_linker_0, # of connection points: 2
#     Edge 18, Type (0, 1), BuildingBlock: MIFKUJ_clean_linker_0, # of connection points: 2
#     Edge 19, Type (0, 1), BuildingBlock: MIFKUJ_clean_linker_0, # of connection points: 2
#     Edge 20, Type (0, 1), BuildingBlock: MIFKUJ_clean_linker_0, # of connection points: 2
#     Edge 21, Type (0, 1), BuildingBlock: MIFKUJ_clean_linker_0, # of connection points: 2
#     Edge 22, Type (0, 1), BuildingBlock: MIFKUJ_clean_linker_0, # of connection points: 2
#     Edge 23, Type (0, 1), BuildingBlock: MIFKUJ_clean_linker_0, # of connection points: 2
#     Edge 24, Type (0, 1), BuildingBlock: MIFKUJ_clean_linker_0, # of connection points: 2
#     Edge 25, Type (0, 1), BuildingBlock: MIFKUJ_clean_linker_0, # of connection points: 2
#     Edge 26, Type (0, 1), BuildingBlock: MIFKUJ_clean_linker_0, # of connection points: 2
#     Edge 27, Type (0, 1), BuildingBlock: MIFKUJ_clean_linker_0, # of connection points: 2
#     Edge 28, Type (0, 1), BuildingBlock: MIFKUJ_clean_linker_0, # of connection points: 2
#     Edge 29, Type (0, 1), BuildingBlock: MIFKUJ_clean_linker_0, # of connection points: 2
#     Edge 30, Type (0, 1), BuildingBlock: MIFKUJ_clean_linker_0, # of connection points: 2
#     Edge 31, Type (0, 1), BuildingBlock: MIFKUJ_clean_linker_0, # of connection points: 2
#     Edge 32, Type (0, 1), BuildingBlock: MIFKUJ_clean_linker_0, # of connection points: 2
#     Edge 33, Type (0, 1), BuildingBlock: MIFKUJ_clean_linker_0, # of connection points: 2
#     Edge 34, Type (0, 1), BuildingBlock: MIFKUJ_clean_linker_0, # of connection points: 2
#     Edge 35, Type (0, 1), BuildingBlock: MIFKUJ_clean_linker_0, # of connection points: 2
#     Edge 36, Type (0, 1), BuildingBlock: MIFKUJ_clean_linker_0, # of connection points: 2
#     Edge 37, Type (0, 1), BuildingBlock: MIFKUJ_clean_linker_0, # of connection points: 2
# Relax obj value: 0.000
# Max RMSD: 0.004
# Mean RMSD: 0.002
data_MOF--net-pto--node1-NAWXER_clean_sbu_0--node2-KAKCAD_clean_linker_0--edge1-MIFKUJ_clean_linker_0
_symmetry_space_group_name_H-M    P1
_symmetry_Int_Tables_number       1
_symmetry_cell_setting            triclinic
loop_
_symmetry_equiv_pos_as_xyz
'x, y, z'
_cell_length_a     67.578449
_cell_length_b     63.48305
_cell_length_c     59.272242
_cell_angle_alpha  90.352179
_cell_angle_beta   90.517019
_cell_angle_gamma 90.350495
loop_
_atom_site_label
_atom_site_type_symbol
_atom_site_fract_x
_atom_site_fract_y
_atom_site_fract_z
_atom_type_partial_charge
C0 C 0.26091 0.20711 0.30442 0.0
C1 C 0.24261 0.19643 0.30513 0.0
C2 C 0.26319 0.2252 0.29128 0.0
C3 C 0.24719 0.23309 0.27867 0.0
C4 C 0.22903 0.22219 0.27904 0.0
C5 C 0.22677 0.20408 0.29206 0.0
C6 C 0.24914 0.25296 0.2657 0.0
C7 C 0.26583 0.25686 0.25229 0.0
C8 C 0.26729 0.27544 0.23959 0.0
C9 C 0.25207 0.29041 0.24081 0.0
C10 C 0.23544 0.28687 0.25435 0.0
C11 C 0.23408 0.26809 0.26663 0.0
C12 C 0.2194 0.3027 0.25573 0.0
C13 C 0.22383 0.32416 0.25911 0.0
C14 C 0.19948 0.29633 0.25415 0.0
C15 C 0.1843 0.31107 0.25599 0.0
C16 C 0.1887 0.3325 0.25963 0.0
C17 C 0.28442 0.27901 0.22453 0.0
C18 C 0.30387 0.2761 0.23238 0.0
C19 C 0.28136 0.28529 0.20209 0.0
C20 C 0.2974 0.28849 0.18776 0.0
C21 C 0.31696 0.28577 0.19557 0.0
C22 C 0.31996 0.27959 0.21813 0.0
C23 C 0.20862 0.3389 0.26118 0.0
H24 H 0.27336 0.20182 0.31447 0.0
H25 H 0.27731 0.23336 0.2915 0.0
H26 H 0.21651 0.22766 0.26919 0.0
H27 H 0.2126 0.19603 0.29181 0.0
H28 H 0.27735 0.24511 0.25113 0.0
H29 H 0.22143 0.26546 0.27739 0.0
H30 H 0.25313 0.30478 0.23111 0.0
H31 H 0.23904 0.32949 0.26056 0.0
H32 H 0.19562 0.27992 0.25139 0.0
H33 H 0.16909 0.30565 0.2549 0.0
H34 H 0.30665 0.27145 0.24967 0.0
H35 H 0.2665 0.28736 0.19549 0.0
H36 H 0.21245 0.35533 0.26381 0.0
H37 H 0.33475 0.27767 0.22493 0.0
H38 H 0.29439 0.29276 0.17042 0.0
C39 C 0.30786 0.7767 0.81696 0.0
C40 C 0.31561 0.75752 0.82476 0.0
C41 C 0.29088 0.77703 0.8033 0.0
C42 C 0.28127 0.75818 0.79685 0.0
C43 C 0.28919 0.73899 0.80439 0.0
C44 C 0.30602 0.73868 0.81826 0.0
C45 C 0.26295 0.75851 0.78258 0.0
C46 C 0.26072 0.77339 0.76524 0.0
C47 C 0.24335 0.77403 0.75199 0.0
C48 C 0.22817 0.75934 0.7561 0.0
C49 C 0.23021 0.74416 0.77308 0.0
C50 C 0.24755 0.74397 0.78632 0.0
C51 C 0.21432 0.72831 0.77682 0.0
C52 C 0.19435 0.73434 0.77725 0.0
C53 C 0.21903 0.70695 0.7796 0.0
C54 C 0.20409 0.69191 0.78247 0.0
C55 C 0.18407 0.69787 0.78279 0.0
C56 C 0.24105 0.79001 0.73385 0.0
C57 C 0.24768 0.81084 0.73723 0.0
C58 C 0.23206 0.78461 0.71307 0.0
C59 C 0.22968 0.79969 0.69618 0.0
C60 C 0.23634 0.82049 0.69958 0.0
C61 C 0.24539 0.82589 0.72029 0.0
C62 C 0.17941 0.71931 0.78028 0.0
H63 H 0.31496 0.79154 0.8213 0.0
H64 H 0.28513 0.79214 0.79809 0.0
H65 H 0.28244 0.72412 0.79952 0.0
H66 H 0.31132 0.72359 0.82412 0.0
H67 H 0.27273 0.78421 0.76167 0.0
H68 H 0.2488 0.73271 0.79992 0.0
H69 H 0.21473 0.75965 0.74602 0.0
H70 H 0.19029 0.75073 0.77545 0.0
H71 H 0.23427 0.70179 0.77904 0.0
H72 H 0.20824 0.67552 0.78396 0.0
H73 H 0.25436 0.81565 0.75314 0.0
H74 H 0.22708 0.76864 0.70972 0.0
H75 H 0.1642 0.72454 0.78082 0.0
H76 H 0.25043 0.84185 0.72355 0.0
H77 H 0.2229 0.79498 0.68029 0.0
C78 C 0.70649 0.72949 0.19969 0.0
C79 C 0.69883 0.74844 0.19111 0.0
C80 C 0.72183 0.72968 0.2157 0.0
C81 C 0.73017 0.74881 0.22339 0.0
C82 C 0.72261 0.76774 0.21469 0.0
C83 C 0.70708 0.76756 0.19894 0.0
C84 C 0.74675 0.74909 0.24026 0.0
C85 C 0.76139 0.73337 0.23998 0.0
C86 C 0.77728 0.73394 0.25542 0.0
C87 C 0.7786 0.75047 0.27119 0.0
C88 C 0.76409 0.76618 0.27202 0.0
C89 C 0.74817 0.76527 0.25659 0.0
C90 C 0.76569 0.78358 0.28892 0.0
C91 C 0.77227 0.77959 0.31107 0.0
C92 C 0.76104 0.80438 0.28293 0.0
C93 C 0.76304 0.82079 0.29865 0.0
C94 C 0.76983 0.8168 0.32069 0.0
C95 C 0.79257 0.71729 0.25526 0.0
C96 C 0.7871 0.69591 0.25565 0.0
C97 C 0.81276 0.72271 0.25562 0.0
C98 C 0.8272 0.70708 0.25655 0.0
C99 C 0.82175 0.68571 0.25746 0.0
C100 C 0.80156 0.68026 0.25692 0.0
C101 C 0.77437 0.79601 0.32674 0.0
H102 H 0.70079 0.71441 0.19389 0.0
H103 H 0.72701 0.71476 0.22217 0.0
H104 H 0.7288 0.7828 0.21984 0.0
H105 H 0.70146 0.78251 0.19309 0.0
H106 H 0.76081 0.72095 0.22737 0.0
H107 H 0.73664 0.777 0.25762 0.0
H108 H 0.79102 0.75104 0.28289 0.0
H109 H 0.77564 0.76371 0.3164 0.0
H110 H 0.75623 0.80808 0.26594 0.0
H111 H 0.75965 0.83669 0.2934 0.0
H112 H 0.77163 0.69132 0.25552 0.0
H113 H 0.81737 0.73908 0.25522 0.0
H114 H 0.77933 0.79238 0.3437 0.0
H115 H 0.79696 0.6639 0.25742 0.0
H116 H 0.84265 0.71172 0.25706 0.0
C117 C 0.78167 0.20903 0.72488 0.0
C118 C 0.76656 0.20463 0.7091 0.0
C119 C 0.7797 0.22557 0.74037 0.0
C120 C 0.76244 0.23781 0.74062 0.0
C121 C 0.74721 0.23324 0.72504 0.0
C122 C 0.74932 0.21691 0.70929 0.0
C123 C 0.76056 0.25549 0.75694 0.0
C124 C 0.77594 0.27032 0.7593 0.0
C125 C 0.77478 0.28691 0.77507 0.0
C126 C 0.75776 0.28844 0.78849 0.0
C127 C 0.74203 0.27392 0.78618 0.0
C128 C 0.74359 0.25749 0.77026 0.0
C129 C 0.72403 0.27601 0.8004 0.0
C130 C 0.72565 0.28236 0.82314 0.0
C131 C 0.70506 0.27204 0.79128 0.0
C132 C 0.68817 0.27454 0.8045 0.0
C133 C 0.68984 0.28123 0.82709 0.0
C134 C 0.79128 0.3026 0.77744 0.0
C135 C 0.81106 0.29657 0.77417 0.0
C136 C 0.78743 0.32379 0.78289 0.0
C137 C 0.80287 0.33842 0.7852 0.0
C138 C 0.82263 0.33246 0.78159 0.0
C139 C 0.82645 0.31131 0.77594 0.0
C140 C 0.70876 0.28505 0.83628 0.0
H141 H 0.79514 0.19987 0.72503 0.0
H142 H 0.79162 0.22869 0.75229 0.0
H143 H 0.7338 0.24251 0.72482 0.0
H144 H 0.73738 0.21373 0.6974 0.0
H145 H 0.78865 0.26911 0.74836 0.0
H146 H 0.73185 0.24585 0.76865 0.0
H147 H 0.75668 0.30103 0.8008 0.0
H148 H 0.74 0.28512 0.83092 0.0
H149 H 0.7032 0.26742 0.77377 0.0
H150 H 0.67376 0.27167 0.7969 0.0
H151 H 0.81478 0.28039 0.77035 0.0
H152 H 0.77244 0.32926 0.78517 0.0
H153 H 0.71053 0.28989 0.85374 0.0
H154 H 0.84135 0.30604 0.7726 0.0
H155 H 0.79921 0.3544 0.78997 0.0
C156 C 0.75216 0.77841 0.6769 0.0
C157 C 0.74379 0.79722 0.68479 0.0
C158 C 0.75379 0.76097 0.6911 0.0
C159 C 0.74739 0.76208 0.71362 0.0
C160 C 0.73923 0.7811 0.72148 0.0
C161 C 0.7373 0.79839 0.70717 0.0
C162 C 0.74917 0.74357 0.72888 0.0
C163 C 0.76547 0.72993 0.7275 0.0
C164 C 0.76732 0.71273 0.74219 0.0
C165 C 0.75268 0.70918 0.75843 0.0
C166 C 0.73635 0.72261 0.76009 0.0
C167 C 0.73463 0.73961 0.74518 0.0
C168 C 0.72118 0.7192 0.77764 0.0
C169 C 0.71288 0.69915 0.78108 0.0
C170 C 0.7148 0.73616 0.79097 0.0
C171 C 0.70029 0.7332 0.80728 0.0
C172 C 0.69162 0.71325 0.8105 0.0
C173 C 0.78476 0.6987 0.7409 0.0
C174 C 0.79099 0.69057 0.72006 0.0
C175 C 0.79523 0.69327 0.76056 0.0
C176 C 0.81159 0.67997 0.75944 0.0
C177 C 0.81773 0.67154 0.73864 0.0
C178 C 0.80723 0.67705 0.71895 0.0
C179 C 0.69817 0.69622 0.79726 0.0
H180 H 0.75716 0.77709 0.65964 0.0
H181 H 0.75985 0.74654 0.68429 0.0
H182 H 0.73457 0.78281 0.73881 0.0
H183 H 0.73107 0.81284 0.71374 0.0
H184 H 0.77711 0.73301 0.71549 0.0
H185 H 0.72169 0.74956 0.74611 0.0
H186 H 0.75407 0.69603 0.76991 0.0
H187 H 0.71744 0.68584 0.77091 0.0
H188 H 0.72118 0.75172 0.78892 0.0
H189 H 0.69599 0.74659 0.81749 0.0
H190 H 0.78306 0.69437 0.70466 0.0
H191 H 0.79093 0.69957 0.77681 0.0
H192 H 0.69168 0.68069 0.79905 0.0
H193 H 0.81131 0.67066 0.70268 0.0
H194 H 0.81955 0.6765 0.7749 0.0
C195 C 0.68682 0.25399 0.2077 0.0
C196 C 0.69025 0.25706 0.18463 0.0
C197 C 0.70243 0.25492 0.22325 0.0
C198 C 0.72192 0.25871 0.21608 0.0
C199 C 0.72532 0.26197 0.19297 0.0
C200 C 0.70963 0.26124 0.17743 0.0
C201 C 0.73859 0.25882 0.23267 0.0
C202 C 0.73875 0.24435 0.25046 0.0
C203 C 0.7539 0.24458 0.26683 0.0
C204 C 0.76964 0.25901 0.26462 0.0
C205 C 0.77003 0.27345 0.24665 0.0
C206 C 0.75425 0.27337 0.23096 0.0
C207 C 0.78674 0.28877 0.24429 0.0
C208 C 0.79584 0.29801 0.26339 0.0
C209 C 0.79361 0.29445 0.22281 0.0
C210 C 0.80888 0.30921 0.22048 0.0
C211 C 0.81795 0.31851 0.23957 0.0
C212 C 0.75294 0.22976 0.28621 0.0
C213 C 0.73462 0.22493 0.29608 0.0
C214 C 0.77005 0.21995 0.29467 0.0
C215 C 0.76877 0.20538 0.31224 0.0
C216 C 0.75034 0.20012 0.32165 0.0
C217 C 0.73331 0.21021 0.31339 0.0
C218 C 0.81132 0.31254 0.26107 0.0
H219 H 0.67198 0.25112 0.21378 0.0
H220 H 0.69918 0.25281 0.24095 0.0
H221 H 0.74016 0.26467 0.18682 0.0
H222 H 0.7127 0.26353 0.1597 0.0
H223 H 0.72711 0.23259 0.25137 0.0
H224 H 0.75387 0.285 0.21767 0.0
H225 H 0.78154 0.25904 0.27697 0.0
H226 H 0.79086 0.29428 0.28022 0.0
H227 H 0.78724 0.28746 0.20768 0.0
H228 H 0.81332 0.31355 0.20362 0.0
H229 H 0.72116 0.23247 0.29036 0.0
H230 H 0.78439 0.22316 0.28741 0.0
H231 H 0.8181 0.31903 0.27621 0.0
H232 H 0.71881 0.20644 0.31991 0.0
H233 H 0.78226 0.19822 0.31839 0.0
C234 C 0.29597 0.27312 0.8144 0.0
C235 C 0.31591 0.26936 0.80916 0.0
C236 C 0.2815 0.27339 0.79738 0.0
C237 C 0.28665 0.2699 0.77473 0.0
C238 C 0.30664 0.26661 0.76947 0.0
C239 C 0.32107 0.26628 0.78646 0.0
C240 C 0.27122 0.26886 0.7567 0.0
C241 C 0.25533 0.28305 0.7564 0.0
C242 C 0.24075 0.28193 0.73931 0.0
C243 C 0.24216 0.26628 0.7225 0.0
C244 C 0.25796 0.25202 0.72258 0.0
C245 C 0.27235 0.2534 0.73972 0.0
C246 C 0.25944 0.23538 0.70501 0.0
C247 C 0.24299 0.22276 0.69934 0.0
C248 C 0.27758 0.23153 0.6944 0.0
C249 C 0.27933 0.21518 0.67868 0.0
C250 C 0.263 0.20219 0.67332 0.0
C251 C 0.22418 0.29721 0.73888 0.0
C252 C 0.21421 0.30255 0.7588 0.0
C253 C 0.21824 0.30662 0.71852 0.0
C254 C 0.20274 0.32109 0.7181 0.0
C255 C 0.19274 0.32642 0.73802 0.0
C256 C 0.19863 0.31695 0.75837 0.0
C257 C 0.24476 0.20628 0.68375 0.0
H258 H 0.29152 0.27583 0.83168 0.0
H259 H 0.26622 0.27582 0.80202 0.0
H260 H 0.31117 0.26417 0.75217 0.0
H261 H 0.33623 0.26311 0.7818 0.0
H262 H 0.25458 0.29534 0.76913 0.0
H263 H 0.2842 0.24198 0.74015 0.0
H264 H 0.23096 0.26518 0.70934 0.0
H265 H 0.22889 0.22523 0.70747 0.0
H266 H 0.29045 0.24121 0.69826 0.0
H267 H 0.29348 0.21279 0.67067 0.0
H268 H 0.21833 0.29545 0.77472 0.0
H269 H 0.22575 0.30298 0.70291 0.0
H270 H 0.23195 0.19641 0.68033 0.0
H271 H 0.19134 0.32087 0.77403 0.0
H272 H 0.19845 0.32797 0.70213 0.0
C273 C 0.26548 0.80301 0.2788 0.0
C274 C 0.25753 0.80128 0.30051 0.0
C275 C 0.26399 0.78626 0.26348 0.0
C276 C 0.25471 0.76724 0.26958 0.0
C277 C 0.24652 0.76563 0.29125 0.0
C278 C 0.24784 0.78251 0.30651 0.0
C279 C 0.25419 0.74899 0.25363 0.0
C280 C 0.27058 0.7448 0.23992 0.0
C281 C 0.27046 0.7277 0.22483 0.0
C282 C 0.25383 0.7144 0.22371 0.0
C283 C 0.23715 0.71833 0.23708 0.0
C284 C 0.23748 0.73568 0.25202 0.0
C285 C 0.2194 0.70435 0.23523 0.0
C286 C 0.2132 0.69632 0.21413 0.0
C287 C 0.20874 0.69858 0.25452 0.0
C288 C 0.19248 0.68488 0.25278 0.0
C289 C 0.18654 0.67652 0.23172 0.0
C290 C 0.28758 0.72409 0.20985 0.0
C291 C 0.29578 0.74093 0.19779 0.0
C292 C 0.29576 0.70393 0.20739 0.0
C293 C 0.31198 0.70072 0.19329 0.0
C294 C 0.32023 0.7176 0.18121 0.0
C295 C 0.31183 0.73771 0.18356 0.0
C296 C 0.19706 0.68253 0.21241 0.0
H297 H 0.27274 0.81743 0.27359 0.0
H298 H 0.27008 0.78827 0.24679 0.0
H299 H 0.2395 0.75116 0.29666 0.0
H300 H 0.2417 0.78068 0.32321 0.0
H301 H 0.28372 0.75461 0.24126 0.0
H302 H 0.22452 0.73917 0.26196 0.0
H303 H 0.25387 0.70106 0.21222 0.0
H304 H 0.22083 0.70068 0.19885 0.0
H305 H 0.21316 0.70432 0.27107 0.0
H306 H 0.18457 0.68087 0.26798 0.0
H307 H 0.28956 0.75658 0.1991 0.0
H308 H 0.28981 0.6907 0.21665 0.0
H309 H 0.19309 0.67627 0.19594 0.0
H310 H 0.31748 0.75099 0.17416 0.0
H311 H 0.31821 0.68509 0.19214 0.0
C312 C 0.97282 0.47467 0.23284 0.0
C313 C 0.02693 0.52612 0.23104 0.0
O314 O 0.97839 0.4809 0.25253 0.0
Zn315 Zn 0.99983 0.50201 0.26728 0.0
O316 O 0.98138 0.48194 0.2155 0.0
Zn317 Zn 0.99972 0.50057 0.23128 0.0
O318 O 0.01897 0.47872 0.24783 0.0
O319 O 0.01675 0.48345 0.28467 0.0
O320 O 0.01811 0.51765 0.21422 0.0
O321 O 0.02141 0.5216 0.2511 0.0
O322 O 0.98309 0.52206 0.28275 0.0
O323 O 0.98072 0.52391 0.24563 0.0
C324 C 0.02421 0.47379 0.26795 0.0
C325 C 0.97564 0.53047 0.26524 0.0
C326 C 0.98647 0.47867 0.78183 0.0
C327 C 0.0357 0.53526 0.78222 0.0
O328 O 0.99431 0.48768 0.79897 0.0
Zn329 Zn 0.01155 0.50625 0.78249 0.0
O330 O 0.99174 0.48409 0.76192 0.0
Zn331 Zn 0.01157 0.50661 0.74664 0.0
O332 O 0.03008 0.48912 0.73037 0.0
O333 O 0.03168 0.48459 0.76723 0.0
O334 O 0.03029 0.52981 0.76224 0.0
O335 O 0.02886 0.52545 0.79908 0.0
O336 O 0.99005 0.52653 0.76689 0.0
O337 O 0.99326 0.52405 0.72992 0.0
C338 C 0.03745 0.47976 0.74733 0.0
C339 C 0.98451 0.53179 0.74695 0.0
C340 C 0.23288 0.97357 0.5223 0.0
C341 C 0.23336 0.02406 0.46019 0.0
O342 O 0.21794 0.98136 0.51227 0.0
Zn343 Zn 0.2324 0.99861 0.49099 0.0
O344 O 0.25034 0.97868 0.51594 0.0
Zn345 Zn 0.26408 0.99824 0.49122 0.0
O346 O 0.27885 0.01813 0.50999 0.0
O347 O 0.24645 0.02167 0.51227 0.0
O348 O 0.25071 0.01846 0.46663 0.0
O349 O 0.21824 0.01636 0.46984 0.0
O350 O 0.24547 0.97558 0.46941 0.0
O351 O 0.27796 0.9781 0.47245 0.0
C352 C 0.26394 0.02761 0.51807 0.0
C353 C 0.26273 0.96928 0.46377 0.0
C354 C 0.53718 0.74138 0.03083 0.0
C355 C 0.48457 0.74304 0.97377 0.0
O356 O 0.53117 0.72292 0.02496 0.0
Zn357 Zn 0.51017 0.70911 1.00161 0.0
O358 O 0.52951 0.75747 0.02165 0.0
Zn359 Zn 0.51099 0.74259 0.00215 0.0
O360 O 0.49091 0.7283 0.02542 0.0
O361 O 0.49245 0.69379 0.0211 0.0
O362 O 0.49316 0.75862 0.98332 0.0
O363 O 0.48971 0.72424 0.97895 0.0
O364 O 0.52708 0.69346 0.98147 0.0
O365 O 0.53023 0.72793 0.97823 0.0
C366 C 0.48509 0.70977 0.03087 0.0
C367 C 0.5351 0.70927 0.9721 0.0
C368 C 0.74432 0.97954 0.5426 0.0
C369 C 0.74359 0.03629 0.48724 0.0
O370 O 0.72917 0.98829 0.53399 0.0
Zn371 Zn 0.74324 0.00851 0.5156 0.0
O372 O 0.76164 0.9861 0.53729 0.0
Zn373 Zn 0.7749 0.00922 0.51595 0.0
O374 O 0.78867 0.02806 0.53691 0.0
O375 O 0.75621 0.02914 0.54022 0.0
O376 O 0.76106 0.0306 0.49305 0.0
O377 O 0.72865 0.02785 0.49654 0.0
O378 O 0.75731 0.98843 0.49134 0.0
O379 O 0.78973 0.99141 0.49554 0.0
C380 C 0.77345 0.03535 0.54662 0.0
C381 C 0.77484 0.98325 0.48542 0.0
C382 C 0.52457 0.26146 0.03131 0.0
C383 C 0.47042 0.26226 0.97633 0.0
O384 O 0.51506 0.24557 0.02362 0.0
Zn385 Zn 0.49684 0.26121 0.00478 0.0
O386 O 0.51949 0.28007 0.02536 0.0
Zn387 Zn 0.49801 0.29482 0.00388 0.0
O388 O 0.48141 0.31074 0.02456 0.0
O389 O 0.47906 0.27641 0.02942 0.0
O390 O 0.47703 0.2807 0.98121 0.0
O391 O 0.4773 0.24628 0.98647 0.0
O392 O 0.51654 0.27469 0.98018 0.0
O393 O 0.51533 0.30938 0.98326 0.0
C394 C 0.47427 0.29515 0.03516 0.0
C395 C 0.52234 0.293 0.97384 0.0
H396 H 0.18512 0.36395 0.29114 0.0
H397 H 0.15778 0.3889 0.29525 0.0
H398 H 0.12838 0.36093 0.23744 0.0
H399 H 0.15566 0.3361 0.23315 0.0
H400 H 0.12894 0.40499 0.23678 0.0
H401 H 0.1135 0.34862 0.289 0.0
H402 H 0.12069 0.32546 0.32128 0.0
H403 H 0.12692 0.37947 0.36479 0.0
H404 H 0.12002 0.40297 0.33268 0.0
H405 H 0.03274 0.44144 0.2397 0.0
H406 H 0.06094 0.41775 0.24165 0.0
H407 H 0.07955 0.4466 0.3045 0.0
H408 H 0.05075 0.47001 0.303 0.0
H409 H 0.08685 0.40512 0.305 0.0
H410 H 0.09931 0.46158 0.25513 0.0
H411 H 0.09183 0.48572 0.2239 0.0
H412 H 0.09368 0.43419 0.17674 0.0
H413 H 0.10027 0.40951 0.20785 0.0
C414 C 0.17289 0.36325 0.27921 0.0
C415 C 0.17248 0.34803 0.26186 0.0
C416 C 0.15724 0.37741 0.28168 0.0
C417 C 0.141 0.37664 0.26675 0.0
C418 C 0.14076 0.36174 0.24917 0.0
C419 C 0.15628 0.34749 0.24682 0.0
C420 C 0.12412 0.39125 0.26938 0.0
C421 C 0.11962 0.40491 0.25159 0.0
C422 C 0.11247 0.39169 0.2891 0.0
C423 C 0.11645 0.37755 0.3084 0.0
C424 C 0.11655 0.35556 0.30542 0.0
C425 C 0.12055 0.34237 0.32368 0.0
C426 C 0.12431 0.35099 0.34505 0.0
C427 C 0.12403 0.37282 0.34822 0.0
C428 C 0.12007 0.38608 0.33 0.0
C429 C 0.04267 0.44255 0.25411 0.0
C430 C 0.0397 0.45773 0.27107 0.0
C431 C 0.05883 0.42905 0.25517 0.0
C432 C 0.07267 0.43079 0.2729 0.0
C433 C 0.06914 0.4451 0.29057 0.0
C434 C 0.0527 0.45844 0.28971 0.0
C435 C 0.09128 0.41846 0.27208 0.0
C436 C 0.09622 0.40535 0.29023 0.0
C437 C 0.10356 0.41876 0.2528 0.0
C438 C 0.10014 0.43364 0.2339 0.0
C439 C 0.09798 0.45534 0.23814 0.0
C440 C 0.09389 0.46914 0.22044 0.0
C441 C 0.09238 0.46153 0.19833 0.0
C442 C 0.09488 0.44007 0.19388 0.0
C443 C 0.09872 0.42615 0.21156 0.0
H444 H 0.08927 0.47226 0.18465 0.0
H445 H 0.1274 0.34076 0.35918 0.0
H446 H 0.14798 0.69616 0.76129 0.0
H447 H 0.1222 0.6693 0.76479 0.0
H448 H 0.15835 0.63582 0.81278 0.0
H449 H 0.18409 0.66288 0.80982 0.0
H450 H 0.143 0.60992 0.77948 0.0
H451 H 0.11897 0.66232 0.83085 0.0
H452 H 0.10903 0.698 0.84266 0.0
H453 H 0.06362 0.69822 0.79153 0.0
H454 H 0.07347 0.66265 0.77918 0.0
H455 H 0.06436 0.54016 0.81477 0.0
H456 H 0.08942 0.56838 0.81737 0.0
H457 H 0.06348 0.59844 0.75927 0.0
H458 H 0.03896 0.56998 0.75606 0.0
H459 H 0.07365 0.62576 0.80025 0.0
H460 H 0.09907 0.57681 0.74607 0.0
H461 H 0.10949 0.54243 0.73096 0.0
H462 H 0.15225 0.5368 0.78457 0.0
H463 H 0.14176 0.57103 0.8003 0.0
C464 C 0.15036 0.6833 0.7729 0.0
C465 C 0.16814 0.68175 0.78531 0.0
C466 C 0.1356 0.66791 0.77482 0.0
C467 C 0.13829 0.65065 0.78918 0.0
C468 C 0.15599 0.64901 0.80159 0.0
C469 C 0.17072 0.66445 0.79977 0.0
C470 C 0.1229 0.63396 0.79063 0.0
C471 C 0.12794 0.61331 0.78448 0.0
C472 C 0.10311 0.63853 0.7965 0.0
C473 C 0.09707 0.65988 0.80397 0.0
C474 C 0.10696 0.67004 0.822 0.0
C475 C 0.10133 0.69024 0.82882 0.0
C476 C 0.08573 0.70039 0.81782 0.0
C477 C 0.07571 0.69034 0.80002 0.0
C478 C 0.0813 0.67015 0.79312 0.0
C479 C 0.06395 0.55289 0.8027 0.0
C480 C 0.04981 0.5529 0.78518 0.0
C481 C 0.07825 0.56892 0.80416 0.0
C482 C 0.07823 0.58541 0.78848 0.0
C483 C 0.06367 0.58584 0.77151 0.0
C484 C 0.04976 0.56956 0.76967 0.0
C485 C 0.09385 0.60183 0.78918 0.0
C486 C 0.08881 0.62238 0.79563 0.0
C487 C 0.1136 0.59726 0.78336 0.0
C488 C 0.11939 0.5763 0.77458 0.0
C489 C 0.11043 0.56807 0.75489 0.0
C490 C 0.11641 0.54866 0.74615 0.0
C491 C 0.13148 0.53743 0.75682 0.0
C492 C 0.14053 0.54551 0.77635 0.0
C493 C 0.13456 0.5649 0.78521 0.0
H494 H 0.13624 0.52254 0.74983 0.0
H495 H 0.08139 0.71603 0.82312 0.0
H496 H 0.85511 0.68164 0.23225 0.0
H497 H 0.88076 0.65469 0.23554 0.0
H498 H 0.84894 0.62583 0.29012 0.0
H499 H 0.82314 0.65273 0.28682 0.0
H500 H 0.89094 0.63169 0.29812 0.0
H501 H 0.84603 0.6024 0.24261 0.0
H502 H 0.82587 0.60284 0.20774 0.0
H503 H 0.87812 0.61338 0.16859 0.0
H504 H 0.89857 0.61331 0.20328 0.0
H505 H 0.94982 0.53814 0.29971 0.0
H506 H 0.92318 0.56416 0.30032 0.0
H507 H 0.94187 0.58729 0.2355 0.0
H508 H 0.96775 0.56073 0.23438 0.0
H509 H 0.90463 0.58323 0.23425 0.0
H510 H 0.9497 0.61461 0.28817 0.0
H511 H 0.97077 0.61599 0.32235 0.0
H512 H 0.9201 0.60376 0.36358 0.0
H513 H 0.89876 0.60205 0.3296 0.0
C514 C 0.85362 0.66957 0.24497 0.0
C515 C 0.83713 0.66922 0.25924 0.0
C516 C 0.86822 0.65417 0.24679 0.0
C517 C 0.86669 0.63826 0.26303 0.0
C518 C 0.85037 0.63799 0.27749 0.0
C519 C 0.8356 0.65324 0.27547 0.0
C520 C 0.88211 0.62184 0.2647 0.0
C521 C 0.89382 0.62085 0.28432 0.0
C522 C 0.88607 0.60811 0.24647 0.0
C523 C 0.87381 0.60804 0.22557 0.0
C524 C 0.8532 0.60499 0.22659 0.0
C525 C 0.84173 0.60514 0.20685 0.0
C526 C 0.8507 0.60819 0.18596 0.0
C527 C 0.87119 0.61104 0.18478 0.0
C528 C 0.88273 0.61093 0.20447 0.0
C529 C 0.94832 0.54895 0.28574 0.0
C530 C 0.9608 0.54739 0.26698 0.0
C531 C 0.93314 0.56387 0.28612 0.0
C532 C 0.93053 0.57787 0.26802 0.0
C533 C 0.94342 0.57663 0.24961 0.0
C534 C 0.95827 0.56148 0.24902 0.0
C535 C 0.91395 0.59323 0.26757 0.0
C536 C 0.90187 0.59398 0.24816 0.0
C537 C 0.90988 0.60695 0.28589 0.0
C538 C 0.92268 0.60798 0.30633 0.0
C539 C 0.94308 0.61205 0.30451 0.0
C540 C 0.95507 0.61292 0.32385 0.0
C541 C 0.94679 0.6099 0.34512 0.0
C542 C 0.9265 0.60606 0.34709 0.0
C543 C 0.91445 0.60516 0.32781 0.0
H544 H 0.95609 0.61058 0.36007 0.0
H545 H 0.84179 0.6083 0.1707 0.0
H546 H 0.86112 0.32608 0.79574 0.0
H547 H 0.88818 0.3514 0.79713 0.0
H548 H 0.84855 0.40048 0.77544 0.0
H549 H 0.82187 0.37482 0.77165 0.0
H550 H 0.87991 0.40631 0.7553 0.0
H551 H 0.86662 0.39451 0.8327 0.0
H552 H 0.861 0.37412 0.86736 0.0
H553 H 0.91976 0.34907 0.86354 0.0
H554 H 0.92565 0.3691 0.82868 0.0
H555 H 0.96177 0.47323 0.81773 0.0
H556 H 0.93313 0.44948 0.81982 0.0
H557 H 0.94721 0.4241 0.75421 0.0
H558 H 0.97521 0.44837 0.75166 0.0
H559 H 0.9265 0.4097 0.82039 0.0
H560 H 0.90694 0.41185 0.72434 0.0
H561 H 0.90942 0.43662 0.69256 0.0
H562 H 0.91033 0.48889 0.73889 0.0
H563 H 0.90757 0.46446 0.77092 0.0
C564 C 0.85812 0.34215 0.79085 0.0
C565 C 0.83911 0.34822 0.78353 0.0
C566 C 0.87363 0.35678 0.79211 0.0
C567 C 0.87043 0.37805 0.78686 0.0
C568 C 0.85147 0.38421 0.7797 0.0
C569 C 0.83608 0.36949 0.77786 0.0
C570 C 0.88696 0.39369 0.78808 0.0
C571 C 0.89001 0.40705 0.76961 0.0
C572 C 0.89995 0.39521 0.80696 0.0
C573 C 0.89651 0.38318 0.82797 0.0
C574 C 0.8783 0.38455 0.83917 0.0
C575 C 0.87507 0.37307 0.85887 0.0
C576 C 0.89 0.36027 0.86762 0.0
C577 C 0.90821 0.35898 0.85673 0.0
C578 C 0.91151 0.37041 0.83702 0.0
C579 C 0.9588 0.46246 0.80385 0.0
C580 C 0.97058 0.4628 0.78443 0.0
C581 C 0.94244 0.4489 0.80505 0.0
C582 C 0.93771 0.43531 0.78695 0.0
C583 C 0.95016 0.43486 0.7681 0.0
C584 C 0.96625 0.44865 0.76672 0.0
C585 C 0.91959 0.42189 0.78744 0.0
C586 C 0.91628 0.40898 0.80619 0.0
C587 C 0.90584 0.42145 0.76926 0.0
C588 C 0.90723 0.43629 0.75004 0.0
C589 C 0.90757 0.42863 0.72774 0.0
C590 C 0.90905 0.44261 0.70969 0.0
C591 C 0.91009 0.4643 0.71371 0.0
C592 C 0.90959 0.47208 0.7358 0.0
C593 C 0.90809 0.45817 0.75391 0.0
H594 H 0.91127 0.47508 0.6997 0.0
H595 H 0.88747 0.3514 0.88287 0.0
H596 H 0.21034 0.18614 0.33061 0.0
H597 H 0.2059 0.15557 0.35485 0.0
H598 H 0.26439 0.13405 0.33801 0.0
H599 H 0.26863 0.16416 0.31293 0.0
H600 H 0.23895 0.10176 0.33826 0.0
H601 H 0.25505 0.15939 0.3882 0.0
H602 H 0.25138 0.19477 0.40499 0.0
H603 H 0.19267 0.17882 0.42643 0.0
H604 H 0.1959 0.14341 0.40948 0.0
H605 H 0.26174 0.03648 0.4308 0.0
H606 H 0.25981 0.06423 0.40267 0.0
H607 H 0.19905 0.07567 0.42041 0.0
H608 H 0.20084 0.04768 0.4488 0.0
H609 H 0.22224 0.11227 0.41889 0.0
H610 H 0.20812 0.0528 0.37162 0.0
H611 H 0.21333 0.01719 0.35603 0.0
H612 H 0.26984 0.0364 0.33049 0.0
H613 H 0.26513 0.07206 0.34624 0.0
C614 C 0.22218 0.17477 0.33179 0.0
C615 C 0.23987 0.17767 0.3198 0.0
C616 C 0.21968 0.15739 0.34586 0.0
C617 C 0.2349 0.14263 0.3485 0.0
C618 C 0.25246 0.14527 0.3363 0.0
C619 C 0.25494 0.16261 0.32214 0.0
C620 C 0.23265 0.12461 0.3642 0.0
C621 C 0.23547 0.10408 0.35592 0.0
C622 C 0.22761 0.12756 0.38715 0.0
C623 C 0.22563 0.14884 0.39734 0.0
C624 C 0.2413 0.16349 0.39633 0.0
C625 C 0.23931 0.18353 0.4059 0.0
C626 C 0.22178 0.18906 0.41671 0.0
C627 C 0.20622 0.17453 0.41801 0.0
C628 C 0.20813 0.15447 0.40844 0.0
C629 C 0.24788 0.04474 0.42865 0.0
C630 C 0.23143 0.03988 0.44207 0.0
C631 C 0.24679 0.06056 0.41246 0.0
C632 C 0.22926 0.07191 0.40934 0.0
C633 C 0.21271 0.06702 0.42253 0.0
C634 C 0.21372 0.05099 0.43865 0.0
C635 C 0.22874 0.08949 0.39298 0.0
C636 C 0.22546 0.10995 0.40114 0.0
C637 C 0.23351 0.08647 0.36999 0.0
C638 C 0.23632 0.06509 0.36026 0.0
C639 C 0.22173 0.0494 0.36282 0.0
C640 C 0.22458 0.02921 0.35394 0.0
C641 C 0.24191 0.02453 0.34231 0.0
C642 C 0.25642 0.04005 0.33951 0.0
C643 C 0.25365 0.06027 0.34839 0.0
H644 H 0.24408 0.00889 0.33543 0.0
H645 H 0.22027 0.20459 0.42412 0.0
H646 H 0.32622 0.78564 0.85834 0.0
H647 H 0.35537 0.78471 0.88299 0.0
H648 H 0.37425 0.72729 0.85078 0.0
H649 H 0.34565 0.7285 0.82536 0.0
H650 H 0.37443 0.72613 0.89892 0.0
H651 H 0.39759 0.77003 0.83828 0.0
H652 H 0.396 0.80035 0.81254 0.0
H653 H 0.39806 0.84288 0.86915 0.0
H654 H 0.39938 0.81277 0.89525 0.0
H655 H 0.47033 0.71492 0.94271 0.0
H656 H 0.44204 0.71896 0.91732 0.0
H657 H 0.43286 0.78189 0.94293 0.0
H658 H 0.46176 0.7782 0.96788 0.0
H659 H 0.42664 0.78143 0.89936 0.0
H660 H 0.40424 0.73885 0.96031 0.0
H661 H 0.40485 0.70919 0.98702 0.0
H662 H 0.39973 0.66525 0.93192 0.0
H663 H 0.39937 0.69459 0.90484 0.0
C664 C 0.3367 0.77298 0.85616 0.0
C665 C 0.33348 0.75714 0.83975 0.0
C666 C 0.35331 0.77242 0.8704 0.0
C667 C 0.36696 0.75595 0.86867 0.0
C668 C 0.36382 0.74009 0.85245 0.0
C669 C 0.34736 0.74076 0.83801 0.0
C670 C 0.3844 0.75506 0.88399 0.0
C671 C 0.38598 0.73807 0.89888 0.0
C672 C 0.39907 0.77104 0.8844 0.0
C673 C 0.39836 0.78915 0.86872 0.0
C674 C 0.39752 0.78584 0.84525 0.0
C675 C 0.39671 0.80299 0.83059 0.0
C676 C 0.39687 0.82353 0.83921 0.0
C677 C 0.3979 0.82696 0.8625 0.0
C678 C 0.3987 0.80986 0.87723 0.0
C679 C 0.46237 0.72968 0.94287 0.0
C680 C 0.4682 0.7462 0.95741 0.0
C681 C 0.4461 0.73193 0.92843 0.0
C682 C 0.43498 0.75054 0.92858 0.0
C683 C 0.44113 0.76733 0.9426 0.0
C684 C 0.45764 0.76521 0.95684 0.0
C685 C 0.41688 0.7523 0.91423 0.0
C686 C 0.4151 0.76949 0.89955 0.0
C687 C 0.40184 0.73662 0.91423 0.0
C688 C 0.40195 0.71893 0.93052 0.0
C689 C 0.40338 0.72286 0.95387 0.0
C690 C 0.40367 0.70611 0.96908 0.0
C691 C 0.40238 0.68537 0.96117 0.0
C692 C 0.40075 0.68133 0.93802 0.0
C693 C 0.40048 0.69801 0.92274 0.0
H694 H 0.4026 0.67243 0.97297 0.0
H695 H 0.39624 0.83678 0.82783 0.0
H696 H 0.74436 0.84919 0.3289 0.0
H697 H 0.74838 0.87805 0.35605 0.0
H698 H 0.80472 0.8529 0.37714 0.0
H699 H 0.80067 0.82383 0.35011 0.0
H700 H 0.78403 0.86477 0.4128 0.0
H701 H 0.80183 0.89651 0.3429 0.0
H702 H 0.79776 0.90612 0.30289 0.0
H703 H 0.74513 0.94054 0.31872 0.0
H704 H 0.74873 0.93089 0.35879 0.0
H705 H 0.80729 0.95893 0.476 0.0
H706 H 0.80968 0.93117 0.44706 0.0
H707 H 0.75018 0.9446 0.42475 0.0
H708 H 0.74763 0.97205 0.45351 0.0
H709 H 0.77647 0.93917 0.38921 0.0
H710 H 0.75719 0.90467 0.45816 0.0
H711 H 0.76102 0.89506 0.4982 0.0
H712 H 0.81676 0.86598 0.48391 0.0
H713 H 0.8134 0.87573 0.44381 0.0
C714 C 0.75768 0.8499 0.33919 0.0
C715 C 0.77224 0.83429 0.33729 0.0
C716 C 0.75998 0.86641 0.3547 0.0
C717 C 0.77701 0.86785 0.3684 0.0
C718 C 0.79147 0.85215 0.36673 0.0
C719 C 0.78912 0.83553 0.35132 0.0
C720 C 0.77954 0.8856 0.38465 0.0
C721 C 0.78276 0.88105 0.40756 0.0
C722 C 0.77761 0.90687 0.37791 0.0
C723 C 0.77548 0.91284 0.35383 0.0
C724 C 0.78932 0.90601 0.33783 0.0
C725 C 0.78711 0.91148 0.31514 0.0
C726 C 0.77118 0.9239 0.30826 0.0
C727 C 0.75746 0.93092 0.32407 0.0
C728 C 0.75959 0.92547 0.34678 0.0
C729 C 0.79482 0.95606 0.46477 0.0
C730 C 0.77724 0.96757 0.46711 0.0
C731 C 0.79617 0.94018 0.44833 0.0
C732 C 0.78005 0.93578 0.43388 0.0
C733 C 0.76278 0.94775 0.43573 0.0
C734 C 0.76133 0.96337 0.45226 0.0
C735 C 0.78069 0.91826 0.41727 0.0
C736 C 0.77804 0.92288 0.39434 0.0
C737 C 0.78317 0.89709 0.42397 0.0
C738 C 0.78517 0.89117 0.44805 0.0
C739 C 0.77035 0.8964 0.46359 0.0
C740 C 0.77241 0.8909 0.48629 0.0
C741 C 0.78915 0.87997 0.49361 0.0
C742 C 0.80383 0.87449 0.47822 0.0
C743 C 0.80185 0.88 0.45551 0.0
H744 H 0.79071 0.87571 0.51118 0.0
H745 H 0.76949 0.92811 0.29068 0.0
H746 H 0.65781 0.25499 0.83073 0.0
H747 H 0.62854 0.25981 0.85412 0.0
H748 H 0.65196 0.31933 0.87814 0.0
H749 H 0.68146 0.31432 0.85511 0.0
H750 H 0.63753 0.29859 0.91199 0.0
H751 H 0.61315 0.31591 0.83858 0.0
H752 H 0.60685 0.31081 0.79787 0.0
H753 H 0.5726 0.25523 0.81155 0.0
H754 H 0.57891 0.25983 0.85235 0.0
H755 H 0.54633 0.32681 0.96431 0.0
H756 H 0.57391 0.32777 0.93765 0.0
H757 H 0.56078 0.26381 0.91737 0.0
H758 H 0.5334 0.26266 0.94394 0.0
H759 H 0.56947 0.29016 0.88097 0.0
H760 H 0.59618 0.27215 0.9543 0.0
H761 H 0.60221 0.27793 0.99498 0.0
H762 H 0.63189 0.33631 0.98086 0.0
H763 H 0.62575 0.33103 0.94009 0.0
C764 C 0.65663 0.26917 0.84086 0.0
C765 C 0.6719 0.2843 0.84104 0.0
C766 C 0.63987 0.27196 0.8542 0.0
C767 C 0.63785 0.29011 0.86766 0.0
C768 C 0.65314 0.3052 0.8679 0.0
C769 C 0.67 0.30231 0.85476 0.0
C770 C 0.62002 0.29308 0.8819 0.0
C771 C 0.62266 0.29713 0.90507 0.0
C772 C 0.60056 0.29089 0.87304 0.0
C773 C 0.59664 0.28813 0.84852 0.0
C774 C 0.60438 0.30252 0.8329 0.0
C775 C 0.6008 0.29973 0.80981 0.0
C776 C 0.58937 0.28269 0.80212 0.0
C777 C 0.58146 0.26842 0.81753 0.0
C778 C 0.58502 0.27112 0.84064 0.0
C779 C 0.54918 0.31306 0.95397 0.0
C780 C 0.53777 0.29462 0.95633 0.0
C781 C 0.56497 0.3136 0.93882 0.0
C782 C 0.56946 0.29579 0.92567 0.0
C783 C 0.55757 0.27771 0.92735 0.0
C784 C 0.54198 0.27707 0.94263 0.0
C785 C 0.58708 0.29548 0.91092 0.0
C786 C 0.58438 0.29188 0.88772 0.0
C787 C 0.60646 0.29822 0.9197 0.0
C788 C 0.6103 0.30132 0.94418 0.0
C789 C 0.60384 0.28631 0.95989 0.0
C790 C 0.6073 0.28947 0.98295 0.0
C791 C 0.61737 0.30751 0.9905 0.0
C792 C 0.62406 0.32237 0.97499 0.0
C793 C 0.62059 0.3193 0.9519 0.0
H794 H 0.62004 0.30993 0.00837 0.0
H795 H 0.58661 0.28055 0.78424 0.0
H796 H 0.26351 0.84954 0.68559 0.0
H797 H 0.25958 0.87607 0.65626 0.0
H798 H 0.19989 0.85431 0.64349 0.0
H799 H 0.20383 0.82753 0.67274 0.0
H800 H 0.21814 0.86129 0.60484 0.0
H801 H 0.20905 0.90041 0.67279 0.0
H802 H 0.21696 0.91303 0.71126 0.0
H803 H 0.27093 0.94087 0.6876 0.0
H804 H 0.26349 0.92816 0.64902 0.0
H805 H 0.1994 0.95219 0.5355 0.0
H806 H 0.19663 0.9267 0.56636 0.0
H807 H 0.25838 0.93606 0.58271 0.0
H808 H 0.26131 0.96129 0.5521 0.0
H809 H 0.23458 0.93629 0.62047 0.0
H810 H 0.24456 0.89397 0.55328 0.0
H811 H 0.23631 0.88134 0.51489 0.0
H812 H 0.17952 0.85995 0.53763 0.0
H813 H 0.18734 0.87274 0.57612 0.0
C814 C 0.24949 0.85051 0.67667 0.0
C815 C 0.23394 0.83652 0.68159 0.0
C816 C 0.24725 0.8657 0.65991 0.0
C817 C 0.22931 0.86745 0.64791 0.0
C818 C 0.21385 0.85331 0.65255 0.0
C819 C 0.21613 0.83799 0.66924 0.0
C820 C 0.2269 0.88391 0.63036 0.0
C821 C 0.22137 0.87775 0.60838 0.0
C822 C 0.23129 0.90538 0.63487 0.0
C823 C 0.23577 0.91319 0.65803 0.0
C824 C 0.22267 0.9091 0.67581 0.0
C825 C 0.22707 0.91629 0.69764 0.0
C826 C 0.24446 0.92771 0.70188 0.0
C827 C 0.25747 0.93201 0.68429 0.0
C828 C 0.25316 0.92484 0.66243 0.0
C829 C 0.21234 0.94886 0.54575 0.0
C830 C 0.23059 0.95869 0.54128 0.0
C831 C 0.21075 0.93427 0.56331 0.0
C832 C 0.22733 0.92944 0.57675 0.0
C833 C 0.2454 0.93957 0.57258 0.0
C834 C 0.24705 0.95393 0.55498 0.0
C835 C 0.22622 0.91357 0.59497 0.0
C836 C 0.23108 0.91986 0.61707 0.0
C837 C 0.22111 0.89228 0.5906 0.0
C838 C 0.21643 0.88454 0.5675 0.0
C839 C 0.23024 0.88674 0.55005 0.0
C840 C 0.22566 0.87952 0.52828 0.0
C841 C 0.20737 0.86991 0.5238 0.0
C842 C 0.19366 0.86744 0.54111 0.0
C843 C 0.19816 0.87467 0.5629 0.0
H844 H 0.20385 0.86432 0.50694 0.0
H845 H 0.24783 0.93326 0.71879 0.0
H846 H 0.69279 0.77561 0.15568 0.0
H847 H 0.66534 0.77574 0.12859 0.0
H848 H 0.64051 0.72062 0.15989 0.0
H849 H 0.66728 0.7209 0.18784 0.0
H850 H 0.64365 0.71918 0.11058 0.0
H851 H 0.61952 0.76368 0.17106 0.0
H852 H 0.62167 0.79381 0.19743 0.0
H853 H 0.62504 0.83648 0.14164 0.0
H854 H 0.6232 0.80654 0.11493 0.0
H855 H 0.54945 0.71213 0.06118 0.0
H856 H 0.57696 0.71476 0.08794 0.0
H857 H 0.58947 0.77785 0.06517 0.0
H858 H 0.56133 0.77557 0.03884 0.0
H859 H 0.59411 0.77656 0.10874 0.0
H860 H 0.61747 0.73467 0.04796 0.0
H861 H 0.6169 0.7059 0.01982 0.0
H862 H 0.6176 0.66019 0.0729 0.0
H863 H 0.61788 0.68868 0.1014 0.0
C864 C 0.68137 0.76367 0.15713 0.0
C865 C 0.68234 0.74828 0.17414 0.0
C866 C 0.66577 0.7637 0.14147 0.0
C867 C 0.65092 0.74821 0.14229 0.0
C868 C 0.65191 0.73265 0.15894 0.0
C869 C 0.66734 0.73278 0.17482 0.0
C870 C 0.63429 0.74825 0.12582 0.0
C871 C 0.63266 0.73157 0.1103 0.0
C872 C 0.62046 0.76487 0.12496 0.0
C873 C 0.62144 0.78286 0.14101 0.0
C874 C 0.6209 0.77947 0.16442 0.0
C875 C 0.62203 0.79652 0.17943 0.0
C876 C 0.62355 0.81704 0.17122 0.0
C877 C 0.62389 0.82057 0.14798 0.0
C878 C 0.62279 0.80357 0.1329 0.0
C879 C 0.558 0.72661 0.0619 0.0
C880 C 0.5533 0.74359 0.04777 0.0
C881 C 0.57382 0.72805 0.07714 0.0
C882 C 0.58563 0.74632 0.07823 0.0
C883 C 0.58065 0.76354 0.06457 0.0
C884 C 0.56458 0.76223 0.04951 0.0
C885 C 0.60319 0.74725 0.09358 0.0
C886 C 0.60508 0.76416 0.10886 0.0
C887 C 0.61753 0.73104 0.09391 0.0
C888 C 0.61753 0.71382 0.07683 0.0
C889 C 0.61737 0.71848 0.05365 0.0
C890 C 0.61711 0.70222 0.03763 0.0
C891 C 0.61717 0.68123 0.04457 0.0
C892 C 0.61754 0.67646 0.06755 0.0
C893 C 0.61777 0.69265 0.08365 0.0
H894 H 0.61696 0.66867 0.03214 0.0
H895 H 0.62441 0.83022 0.18287 0.0
H896 H 0.76049 0.206 0.66354 0.0
H897 H 0.76391 0.17723 0.63619 0.0
H898 H 0.78056 0.13518 0.68998 0.0
H899 H 0.77786 0.16415 0.71722 0.0
H900 H 0.80218 0.12685 0.65555 0.0
H901 H 0.73256 0.13609 0.66614 0.0
H902 H 0.70113 0.15559 0.6674 0.0
H903 H 0.70672 0.17092 0.59727 0.0
H904 H 0.73833 0.15173 0.59568 0.0
H905 H 0.74654 0.04358 0.57912 0.0
H906 H 0.74751 0.07142 0.60756 0.0
H907 H 0.80439 0.09195 0.58311 0.0
H908 H 0.80382 0.06337 0.55506 0.0
H909 H 0.74637 0.11095 0.60316 0.0
H910 H 0.82994 0.11803 0.6247 0.0
H911 H 0.85944 0.0954 0.62703 0.0
H912 H 0.82246 0.0415 0.63927 0.0
H913 H 0.79278 0.06384 0.63729 0.0
C914 C 0.76486 0.19059 0.66948 0.0
C915 C 0.76878 0.18724 0.69249 0.0
C916 C 0.76679 0.17415 0.65387 0.0
C917 C 0.77218 0.15388 0.66103 0.0
C918 C 0.77641 0.15064 0.684 0.0
C919 C 0.77481 0.16717 0.69956 0.0
C920 C 0.77295 0.13597 0.64472 0.0
C921 C 0.78998 0.12338 0.64408 0.0
C922 C 0.75693 0.13114 0.62997 0.0
C923 C 0.7379 0.14266 0.63086 0.0
C924 C 0.72715 0.14374 0.65103 0.0
C925 C 0.7093 0.15472 0.6518 0.0
C926 C 0.70196 0.16453 0.63244 0.0
C927 C 0.71244 0.16334 0.61226 0.0
C928 C 0.73032 0.1524 0.61141 0.0
C929 C 0.75938 0.05387 0.57995 0.0
C930 C 0.7751 0.05131 0.56484 0.0
C931 C 0.75989 0.06985 0.59619 0.0
C932 C 0.77601 0.08387 0.59757 0.0
C933 C 0.79191 0.08117 0.58268 0.0
C934 C 0.79157 0.06487 0.56661 0.0
C935 C 0.77556 0.1017 0.61402 0.0
C936 C 0.75861 0.11439 0.61459 0.0
C937 C 0.79138 0.10614 0.62919 0.0
C938 C 0.80914 0.09259 0.63059 0.0
C939 C 0.82812 0.10136 0.62795 0.0
C940 C 0.84486 0.08858 0.6292 0.0
C941 C 0.84282 0.06701 0.63321 0.0
C942 C 0.82402 0.05819 0.63607 0.0
C943 C 0.80723 0.0709 0.63485 0.0
H944 H 0.8558 0.05715 0.63416 0.0
H945 H 0.68813 0.17302 0.63307 0.0
H946 H 0.35205 0.26403 0.19404 0.0
H947 H 0.37973 0.26938 0.16846 0.0
H948 H 0.34823 0.31973 0.13585 0.0
H949 H 0.3208 0.31522 0.16197 0.0
H950 H 0.36409 0.2888 0.10583 0.0
H951 H 0.38495 0.33277 0.16824 0.0
H952 H 0.39254 0.34053 0.2082 0.0
H953 H 0.43717 0.29268 0.20839 0.0
H954 H 0.42964 0.28441 0.16849 0.0
H955 H 0.4451 0.32469 0.03882 0.0
H956 H 0.41897 0.32599 0.06743 0.0
H957 H 0.44557 0.27349 0.10185 0.0
H958 H 0.47122 0.27166 0.07299 0.0
H959 H 0.43219 0.30767 0.13109 0.0
H960 H 0.4111 0.26098 0.07263 0.0
H961 H 0.40337 0.24884 0.03399 0.0
H962 H 0.35918 0.2968 0.02762 0.0
H963 H 0.3671 0.30967 0.06607 0.0
C964 C 0.35108 0.27654 0.18176 0.0
C965 C 0.33406 0.28918 0.18018 0.0
C966 C 0.36691 0.27948 0.16704 0.0
C967 C 0.36604 0.295 0.15032 0.0
C968 C 0.34916 0.30762 0.14861 0.0
C969 C 0.33342 0.30489 0.16349 0.0
C970 C 0.38254 0.29761 0.1342 0.0
C971 C 0.37889 0.29338 0.11127 0.0
C972 C 0.40198 0.30282 0.14147 0.0
C973 C 0.4066 0.30784 0.16543 0.0
C974 C 0.39627 0.32378 0.17685 0.0
C975 C 0.40058 0.32829 0.19948 0.0
C976 C 0.41529 0.31707 0.21085 0.0
C977 C 0.42576 0.30134 0.19958 0.0
C978 C 0.42149 0.29675 0.17694 0.0
C979 C 0.4455 0.31368 0.0527 0.0
C980 C 0.4601 0.29805 0.05372 0.0
C981 C 0.43057 0.31438 0.06895 0.0
C982 C 0.43036 0.29979 0.08669 0.0
C983 C 0.44552 0.2849 0.08833 0.0
C984 C 0.4601 0.28384 0.07181 0.0
C985 C 0.41366 0.29908 0.10273 0.0
C986 C 0.41731 0.30349 0.12561 0.0
C987 C 0.39428 0.29364 0.09552 0.0
C988 C 0.38996 0.28655 0.07208 0.0
C989 C 0.40002 0.26923 0.06284 0.0
C990 C 0.39556 0.26216 0.04101 0.0
C991 C 0.38087 0.2721 0.02833 0.0
C992 C 0.37065 0.28919 0.03743 0.0
C993 C 0.37515 0.29642 0.05923 0.0
H994 H 0.37731 0.2664 0.01154 0.0
H995 H 0.41861 0.32059 0.22837 0.0
H996 H 0.8284 0.64109 0.769 0.0
H997 H 0.85738 0.61839 0.76812 0.0
H998 H 0.87479 0.64545 0.70476 0.0
H999 H 0.84621 0.66892 0.70585 0.0
H1000 H 0.87667 0.59963 0.70704 0.0
H1001 H 0.89861 0.66158 0.74807 0.0
H1002 H 0.89621 0.68879 0.77778 0.0
H1003 H 0.89849 0.64105 0.82873 0.0
H1004 H 0.9006 0.61352 0.79931 0.0
H1005 H 0.97294 0.55334 0.709 0.0
H1006 H 0.94515 0.57778 0.70536 0.0
H1007 H 0.92993 0.56688 0.77491 0.0
H1008 H 0.95789 0.54317 0.77883 0.0
H1009 H 0.92779 0.6065 0.76729 0.0
H1010 H 0.90346 0.5446 0.72923 0.0
H1011 H 0.90381 0.51559 0.7014 0.0
H1012 H 0.90378 0.56028 0.64731 0.0
H1013 H 0.90366 0.5896 0.67485 0.0
C1014 C 0.83847 0.64247 0.75498 0.0
C1015 C 0.83499 0.65704 0.73759 0.0
C1016 C 0.85495 0.62933 0.75443 0.0
C1017 C 0.86825 0.63035 0.73644 0.0
C1018 C 0.86464 0.64441 0.71876 0.0
C1019 C 0.84824 0.65775 0.71939 0.0
C1020 C 0.88617 0.61703 0.73651 0.0
C1021 C 0.88805 0.6013 0.71996 0.0
C1022 C 0.90067 0.61892 0.75375 0.0
C1023 C 0.8996 0.63548 0.77147 0.0
C1024 C 0.89845 0.65687 0.7656 0.0
C1025 C 0.89717 0.67235 0.78239 0.0
C1026 C 0.89716 0.66665 0.80512 0.0
C1027 C 0.89849 0.64545 0.81112 0.0
C1028 C 0.89974 0.6299 0.79439 0.0
C1029 C 0.96364 0.55617 0.72348 0.0
C1030 C 0.96765 0.54637 0.74421 0.0
C1031 C 0.94771 0.57007 0.72136 0.0
C1032 C 0.9353 0.57406 0.73982 0.0
C1033 C 0.9393 0.56418 0.76045 0.0
C1034 C 0.95531 0.55057 0.76266 0.0
C1035 C 0.91829 0.58873 0.73797 0.0
C1036 C 0.91655 0.60482 0.7542 0.0
C1037 C 0.90373 0.58686 0.7207 0.0
C1038 C 0.90378 0.56929 0.7041 0.0
C1039 C 0.90369 0.54825 0.7114 0.0
C1040 C 0.90382 0.53175 0.69568 0.0
C1041 C 0.90389 0.53609 0.6726 0.0
C1042 C 0.90376 0.55695 0.66519 0.0
C1043 C 0.90365 0.57351 0.68085 0.0
H1044 H 0.90399 0.52329 0.66045 0.0
H1045 H 0.89616 0.67866 0.8181 0.0
H1046 H 0.82534 0.35351 0.26592 0.0
H1047 H 0.85158 0.37957 0.26191 0.0
H1048 H 0.8725 0.34716 0.20263 0.0
H1049 H 0.84721 0.32003 0.20754 0.0
H1050 H 0.90265 0.35925 0.22592 0.0
H1051 H 0.84468 0.39429 0.2001 0.0
H1052 H 0.81031 0.40703 0.20134 0.0
H1053 H 0.82423 0.44407 0.26029 0.0
H1054 H 0.85863 0.43133 0.25959 0.0
H1055 H 0.96337 0.44905 0.19673 0.0
H1056 H 0.93678 0.42249 0.19457 0.0
H1057 H 0.91871 0.4391 0.26192 0.0
H1058 H 0.94523 0.4653 0.26436 0.0
H1059 H 0.88701 0.43544 0.22989 0.0
H1060 H 0.94492 0.39733 0.25592 0.0
H1061 H 0.97931 0.38492 0.25279 0.0
H1062 H 0.96495 0.35418 0.18996 0.0
H1063 H 0.93053 0.36669 0.19256 0.0
C1064 C 0.83568 0.35164 0.25222 0.0
C1065 C 0.83401 0.33457 0.23704 0.0
C1066 C 0.85053 0.36683 0.24971 0.0
C1067 C 0.86379 0.36567 0.23164 0.0
C1068 C 0.86236 0.34854 0.2166 0.0
C1069 C 0.84769 0.33313 0.21931 0.0
C1070 C 0.87933 0.38215 0.22872 0.0
C1071 C 0.89912 0.37589 0.22637 0.0
C1072 C 0.87487 0.40394 0.22945 0.0
C1073 C 0.85421 0.41172 0.22988 0.0
C1074 C 0.84038 0.40504 0.21342 0.0
C1075 C 0.8209 0.41228 0.21401 0.0
C1076 C 0.81508 0.42632 0.23091 0.0
C1077 C 0.82875 0.43319 0.24722 0.0
C1078 C 0.84826 0.42598 0.24672 0.0
C1079 C 0.95366 0.44708 0.21101 0.0
C1080 C 0.95644 0.45919 0.23075 0.0
C1081 C 0.93854 0.43189 0.20978 0.0
C1082 C 0.92585 0.42883 0.22813 0.0
C1083 C 0.92834 0.44125 0.24759 0.0
C1084 C 0.94357 0.45614 0.24897 0.0
C1085 C 0.91015 0.41244 0.22747 0.0
C1086 C 0.89037 0.41876 0.22915 0.0
C1087 C 0.91458 0.39076 0.22578 0.0
C1088 C 0.93523 0.38316 0.22429 0.0
C1089 C 0.94915 0.38809 0.24133 0.0
C1090 C 0.96863 0.381 0.23968 0.0
C1091 C 0.97433 0.36883 0.22115 0.0
C1092 C 0.96053 0.36365 0.20427 0.0
C1093 C 0.94103 0.37073 0.20583 0.0
H1094 H 0.98942 0.36335 0.2199 0.0
H1095 H 0.79999 0.4319 0.23134 0.0
H1096 H 0.15714 0.32392 0.75955 0.0
H1097 H 0.13035 0.34967 0.75922 0.0
H1098 H 0.16423 0.38942 0.71498 0.0
H1099 H 0.19126 0.36394 0.7156 0.0
H1100 H 0.14821 0.41163 0.7497 0.0
H1101 H 0.12568 0.36114 0.69446 0.0
H1102 H 0.11707 0.32574 0.67997 0.0
H1103 H 0.07256 0.31941 0.73076 0.0
H1104 H 0.0811 0.35467 0.74577 0.0
H1105 H 0.06607 0.47722 0.71508 0.0
H1106 H 0.09242 0.45079 0.71233 0.0
H1107 H 0.06881 0.41855 0.77005 0.0
H1108 H 0.04297 0.44529 0.77344 0.0
H1109 H 0.0794 0.39285 0.72712 0.0
H1110 H 0.10326 0.44072 0.78434 0.0
H1111 H 0.11251 0.47496 0.80129 0.0
H1112 H 0.15467 0.48521 0.74866 0.0
H1113 H 0.14533 0.45117 0.73109 0.0
C1114 C 0.15893 0.33819 0.74984 0.0
C1115 C 0.17632 0.34188 0.73758 0.0
C1116 C 0.14353 0.3528 0.7495 0.0
C1117 C 0.14521 0.37136 0.73688 0.0
C1118 C 0.16259 0.37516 0.72474 0.0
C1119 C 0.17796 0.36051 0.72499 0.0
C1120 C 0.12902 0.38706 0.73679 0.0
C1121 C 0.13325 0.4076 0.74437 0.0
C1122 C 0.10938 0.38165 0.73042 0.0
C1123 C 0.10416 0.36048 0.72137 0.0
C1124 C 0.11416 0.35214 0.70265 0.0
C1125 C 0.10927 0.3321 0.69432 0.0
C1126 C 0.09431 0.32031 0.70447 0.0
C1127 C 0.08416 0.32855 0.72293 0.0
C1128 C 0.08901 0.34857 0.73135 0.0
C1129 C 0.06648 0.46442 0.72708 0.0
C1130 C 0.05257 0.46329 0.74451 0.0
C1131 C 0.08151 0.44941 0.72553 0.0
C1132 C 0.0825 0.43282 0.74103 0.0
C1133 C 0.06825 0.43128 0.75797 0.0
C1134 C 0.05358 0.44657 0.75991 0.0
C1135 C 0.0987 0.4173 0.73994 0.0
C1136 C 0.09444 0.39685 0.73218 0.0
C1137 C 0.11828 0.42271 0.74629 0.0
C1138 C 0.12334 0.44358 0.75619 0.0
C1139 C 0.11422 0.45045 0.77613 0.0
C1140 C 0.11954 0.46977 0.78591 0.0
C1141 C 0.13414 0.48226 0.77604 0.0
C1142 C 0.14334 0.47553 0.75626 0.0
C1143 C 0.13801 0.45624 0.74636 0.0
H1144 H 0.13839 0.49709 0.78381 0.0
H1145 H 0.09055 0.3048 0.69799 0.0
H1146 H 0.1582 0.67339 0.19827 0.0
H1147 H 0.13157 0.6474 0.19469 0.0
H1148 H 0.14955 0.61966 0.25785 0.0
H1149 H 0.17688 0.64481 0.26092 0.0
H1150 H 0.14187 0.58985 0.22844 0.0
H1151 H 0.10831 0.65256 0.25264 0.0
H1152 H 0.09838 0.68983 0.25077 0.0
H1153 H 0.0718 0.67897 0.18563 0.0
H1154 H 0.08179 0.64167 0.18699 0.0
H1155 H 0.05499 0.53703 0.26213 0.0
H1156 H 0.08238 0.56185 0.258 0.0
H1157 H 0.0644 0.57374 0.1893 0.0
H1158 H 0.03688 0.54851 0.19318 0.0
H1159 H 0.07193 0.61095 0.21697 0.0
H1160 H 0.10424 0.54731 0.19442 0.0
H1161 H 0.11396 0.51005 0.19741 0.0
H1162 H 0.14207 0.52282 0.26134 0.0
H1163 H 0.1325 0.56019 0.25873 0.0
C1164 C 0.15664 0.66164 0.21131 0.0
C1165 C 0.16974 0.66126 0.22992 0.0
C1166 C 0.14123 0.64692 0.20936 0.0
C1167 C 0.13837 0.6317 0.22613 0.0
C1168 C 0.1514 0.63128 0.24471 0.0
C1169 C 0.16691 0.64586 0.24658 0.0
C1170 C 0.12199 0.616 0.22428 0.0
C1171 C 0.12657 0.59453 0.22614 0.0
C1172 C 0.10205 0.62199 0.22064 0.0
C1173 C 0.09599 0.64439 0.21981 0.0
C1174 C 0.10048 0.65816 0.23784 0.0
C1175 C 0.09482 0.67928 0.23688 0.0
C1176 C 0.08452 0.68678 0.21806 0.0
C1177 C 0.07981 0.67315 0.20018 0.0
C1178 C 0.08546 0.65201 0.20104 0.0
C1179 C 0.05684 0.54485 0.24608 0.0
C1180 C 0.04373 0.54085 0.22798 0.0
C1181 C 0.07257 0.55897 0.24374 0.0
C1182 C 0.07545 0.56953 0.22333 0.0
C1183 C 0.06241 0.56567 0.20517 0.0
C1184 C 0.04677 0.55124 0.20739 0.0
C1185 C 0.09187 0.58498 0.22148 0.0
C1186 C 0.08728 0.60636 0.21899 0.0
C1187 C 0.11178 0.57896 0.22474 0.0
C1188 C 0.11753 0.55651 0.22644 0.0
C1189 C 0.11239 0.54214 0.20918 0.0
C1190 C 0.11793 0.52103 0.21077 0.0
C1191 C 0.12859 0.51406 0.22958 0.0
C1192 C 0.13381 0.52824 0.24678 0.0
C1193 C 0.12839 0.54941 0.24522 0.0
H1194 H 0.13281 0.49768 0.23082 0.0
H1195 H 0.08015 0.70313 0.21735 0.0
H1196 H 0.77275 0.81507 0.65942 0.0
H1197 H 0.77037 0.84669 0.63598 0.0
H1198 H 0.70873 0.85263 0.65291 0.0
H1199 H 0.71111 0.82117 0.6767 0.0
H1200 H 0.71913 0.85734 0.60438 0.0
H1201 H 0.73595 0.88363 0.67867 0.0
H1202 H 0.75555 0.88496 0.71394 0.0
H1203 H 0.80779 0.90007 0.67648 0.0
H1204 H 0.78855 0.89849 0.64092 0.0
H1205 H 0.71032 0.96109 0.55871 0.0
H1206 H 0.7079 0.93051 0.58365 0.0
H1207 H 0.77159 0.92633 0.58589 0.0
H1208 H 0.77414 0.95688 0.56154 0.0
H1209 H 0.75747 0.92124 0.62647 0.0
H1210 H 0.74318 0.89296 0.55279 0.0
H1211 H 0.72557 0.89016 0.51626 0.0
H1212 H 0.67113 0.87739 0.55053 0.0
H1213 H 0.68837 0.88039 0.5873 0.0
C1214 C 0.75868 0.82305 0.65799 0.0
C1215 C 0.74212 0.81576 0.66987 0.0
C1216 C 0.75735 0.84109 0.64469 0.0
C1217 C 0.73939 0.85195 0.64282 0.0
C1218 C 0.7227 0.84441 0.65418 0.0
C1219 C 0.7241 0.82657 0.66781 0.0
C1220 C 0.7383 0.87152 0.62945 0.0
C1221 C 0.72721 0.87147 0.60934 0.0
C1222 C 0.74925 0.88969 0.63575 0.0
C1223 C 0.76084 0.89074 0.65711 0.0
C1224 C 0.75165 0.88704 0.67793 0.0
C1225 C 0.76269 0.88788 0.69797 0.0
C1226 C 0.78291 0.89254 0.69744 0.0
C1227 C 0.79213 0.89643 0.67686 0.0
C1228 C 0.78116 0.89558 0.65676 0.0
C1229 C 0.72379 0.95369 0.5646 0.0
C1230 C 0.74241 0.96144 0.55811 0.0
C1231 C 0.72239 0.93616 0.57876 0.0
C1232 C 0.73957 0.926 0.58649 0.0
C1233 C 0.75813 0.93391 0.58021 0.0
C1234 C 0.75954 0.95139 0.5662 0.0
C1235 C 0.73847 0.90711 0.6011 0.0
C1236 C 0.74918 0.90724 0.62152 0.0
C1237 C 0.72742 0.88892 0.59487 0.0
C1238 C 0.71701 0.88715 0.5728 0.0
C1239 C 0.72741 0.88974 0.55254 0.0
C1240 C 0.71751 0.88808 0.53179 0.0
C1241 C 0.69723 0.88368 0.53107 0.0
C1242 C 0.68683 0.88086 0.55111 0.0
C1243 C 0.69666 0.88252 0.57191 0.0
H1244 H 0.68959 0.88239 0.51499 0.0
H1245 H 0.79143 0.8932 0.71298 0.0
H1246 H 0.66108 0.22719 0.18175 0.0
H1247 H 0.63289 0.22605 0.15547 0.0
H1248 H 0.65359 0.28323 0.12435 0.0
H1249 H 0.68179 0.28451 0.15064 0.0
H1250 H 0.6133 0.28371 0.13552 0.0
H1251 H 0.65959 0.23831 0.09754 0.0
H1252 H 0.68222 0.2081 0.09473 0.0
H1253 H 0.6343 0.16563 0.10897 0.0
H1254 H 0.61143 0.19563 0.11218 0.0
H1255 H 0.55425 0.2896 0.03887 0.0
H1256 H 0.58218 0.28662 0.06481 0.0
H1257 H 0.56172 0.22503 0.08483 0.0
H1258 H 0.53388 0.22764 0.05804 0.0
H1259 H 0.6007 0.22518 0.08127 0.0
H1260 H 0.55405 0.26912 0.11834 0.0
H1261 H 0.53075 0.29862 0.12238 0.0
H1262 H 0.57809 0.34286 0.11215 0.0
H1263 H 0.60163 0.31362 0.10772 0.0
C1264 C 0.6596 0.23951 0.16929 0.0
C1265 C 0.67359 0.25596 0.16822 0.0
C1266 C 0.64358 0.23877 0.15423 0.0
C1267 C 0.64124 0.2545 0.13793 0.0
C1268 C 0.65519 0.27092 0.1368 0.0
C1269 C 0.67132 0.27156 0.15171 0.0
C1270 C 0.62392 0.25421 0.12245 0.0
C1271 C 0.61064 0.27105 0.12345 0.0
C1272 C 0.62013 0.23728 0.10737 0.0
C1273 C 0.63384 0.21923 0.10534 0.0
C1274 C 0.65391 0.22254 0.10027 0.0
C1275 C 0.66677 0.20546 0.09856 0.0
C1276 C 0.65971 0.18496 0.10173 0.0
C1277 C 0.63975 0.18152 0.10655 0.0
C1278 C 0.62683 0.19855 0.1083 0.0
C1279 C 0.55564 0.2754 0.04878 0.0
C1280 C 0.54173 0.25895 0.04665 0.0
C1281 C 0.57161 0.27375 0.06368 0.0
C1282 C 0.57379 0.25584 0.07721 0.0
C1283 C 0.56024 0.23908 0.07467 0.0
C1284 C 0.54435 0.24058 0.05943 0.0
C1285 C 0.59017 0.2549 0.09403 0.0
C1286 C 0.60325 0.23781 0.09338 0.0
C1287 C 0.59367 0.27149 0.1097 0.0
C1288 C 0.57958 0.28915 0.11253 0.0
C1289 C 0.55947 0.28513 0.1168 0.0
C1290 C 0.54622 0.30181 0.11918 0.0
C1291 C 0.55293 0.3226 0.11748 0.0
C1292 C 0.57291 0.32675 0.11345 0.0
C1293 C 0.58622 0.31013 0.11103 0.0
H1294 H 0.54265 0.33549 0.11932 0.0
H1295 H 0.6697 0.17176 0.10041 0.0
H1296 H 0.23624 0.18826 0.64143 0.0
H1297 H 0.23911 0.15783 0.61628 0.0
H1298 H 0.29736 0.14529 0.64306 0.0
H1299 H 0.29443 0.17534 0.66881 0.0
H1300 H 0.2948 0.14252 0.59537 0.0
H1301 H 0.26153 0.11579 0.66047 0.0
H1302 H 0.23603 0.11548 0.68995 0.0
H1303 H 0.19052 0.10962 0.63925 0.0
H1304 H 0.21574 0.11022 0.60942 0.0
H1305 H 0.2973 0.04043 0.54157 0.0
H1306 H 0.29992 0.06951 0.56898 0.0
H1307 H 0.2385 0.08451 0.55719 0.0
H1308 H 0.23566 0.05541 0.53052 0.0
H1309 H 0.24561 0.08444 0.60028 0.0
H1310 H 0.27767 0.11412 0.53519 0.0
H1311 H 0.30243 0.11568 0.50493 0.0
H1312 H 0.34928 0.11698 0.55436 0.0
H1313 H 0.32478 0.11515 0.58492 0.0
C1314 C 0.24961 0.17895 0.64216 0.0
C1315 C 0.26505 0.18422 0.65728 0.0
C1316 C 0.25126 0.16164 0.62768 0.0
C1317 C 0.26839 0.14926 0.62796 0.0
C1318 C 0.28404 0.15471 0.64257 0.0
C1319 C 0.28235 0.17195 0.6572 0.0
C1320 C 0.26967 0.13036 0.61328 0.0
C1321 C 0.28427 0.12963 0.59662 0.0
C1322 C 0.25573 0.11375 0.61478 0.0
C1323 C 0.24053 0.11322 0.6327 0.0
C1324 C 0.24608 0.1146 0.65559 0.0
C1325 C 0.23167 0.11434 0.67237 0.0
C1326 C 0.21166 0.11258 0.66648 0.0
C1327 C 0.20602 0.11101 0.64379 0.0
C1328 C 0.22037 0.11128 0.62694 0.0
C1329 C 0.28441 0.05001 0.54481 0.0
C1330 C 0.26626 0.04555 0.53395 0.0
C1331 C 0.28593 0.06665 0.5604 0.0
C1332 C 0.26941 0.07927 0.56509 0.0
C1333 C 0.25141 0.07494 0.554 0.0
C1334 C 0.24984 0.05828 0.53868 0.0
C1335 C 0.27043 0.09677 0.58183 0.0
C1336 C 0.25629 0.09721 0.59905 0.0
C1337 C 0.28468 0.11317 0.58067 0.0
C1338 C 0.29941 0.11424 0.56232 0.0
C1339 C 0.29326 0.11455 0.5396 0.0
C1340 C 0.30724 0.11553 0.52239 0.0
C1341 C 0.32742 0.11636 0.52771 0.0
C1342 C 0.33365 0.11628 0.55026 0.0
C1343 C 0.31972 0.11529 0.56753 0.0
H1344 H 0.33823 0.11712 0.51437 0.0
H1345 H 0.20053 0.11238 0.67949 0.0
H1346 H 0.32794 0.68377 0.15349 0.0
H1347 H 0.35601 0.67924 0.12812 0.0
H1348 H 0.3793 0.73973 0.14898 0.0
H1349 H 0.35179 0.74413 0.1749 0.0
H1350 H 0.37707 0.73423 0.10198 0.0
H1351 H 0.40055 0.69715 0.16801 0.0
H1352 H 0.39855 0.67029 0.19778 0.0
H1353 H 0.39648 0.62134 0.14747 0.0
H1354 H 0.39818 0.64796 0.11737 0.0
H1355 H 0.4728 0.73923 0.06097 0.0
H1356 H 0.44467 0.73718 0.08625 0.0
H1357 H 0.43279 0.67351 0.06386 0.0
H1358 H 0.46143 0.67528 0.03873 0.0
H1359 H 0.42707 0.67763 0.10878 0.0
H1360 H 0.40611 0.71391 0.04268 0.0
H1361 H 0.40796 0.74042 0.0125 0.0
H1362 H 0.4041 0.7901 0.06167 0.0
H1363 H 0.4026 0.76394 0.0922 0.0
C1364 C 0.33919 0.69598 0.15298 0.0
C1365 C 0.33752 0.71438 0.1662 0.0
C1366 C 0.35516 0.69339 0.13838 0.0
C1367 C 0.36968 0.70917 0.13669 0.0
C1368 C 0.36815 0.72744 0.14994 0.0
C1369 C 0.35234 0.72996 0.16466 0.0
C1370 C 0.3863 0.70703 0.12074 0.0
C1371 C 0.3881 0.72197 0.10356 0.0
C1372 C 0.40023 0.69056 0.12236 0.0
C1373 C 0.39925 0.67456 0.14044 0.0
C1374 C 0.39948 0.68067 0.16329 0.0
C1375 C 0.39844 0.66549 0.18022 0.0
C1376 C 0.39732 0.64412 0.17452 0.0
C1377 C 0.3973 0.6379 0.15186 0.0
C1378 C 0.39832 0.65303 0.13486 0.0
C1379 C 0.46432 0.72471 0.06151 0.0
C1380 C 0.46921 0.70749 0.04768 0.0
C1381 C 0.44819 0.72359 0.07592 0.0
C1382 C 0.43635 0.70538 0.07654 0.0
C1383 C 0.44166 0.68778 0.06351 0.0
C1384 C 0.45801 0.68881 0.04918 0.0
C1385 C 0.41815 0.70518 0.09034 0.0
C1386 C 0.41595 0.68978 0.10704 0.0
C1387 C 0.4037 0.72113 0.08815 0.0
C1388 C 0.40438 0.73694 0.06977 0.0
C1389 C 0.40579 0.73049 0.04708 0.0
C1390 C 0.40676 0.74545 0.02991 0.0
C1391 C 0.40617 0.76691 0.03517 0.0
C1392 C 0.40457 0.77347 0.05762 0.0
C1393 C 0.40364 0.75858 0.07487 0.0
H1394 H 0.40693 0.77846 0.02185 0.0
H1395 H 0.39653 0.63239 0.18766 0.0
H1396 H 0.725 0.19922 0.35772 0.0
H1397 H 0.72079 0.17129 0.38526 0.0
H1398 H 0.76843 0.13661 0.35478 0.0
H1399 H 0.77172 0.16369 0.32608 0.0
H1400 H 0.74041 0.11071 0.36362 0.0
H1401 H 0.77323 0.16526 0.40628 0.0
H1402 H 0.77829 0.20099 0.42194 0.0
H1403 H 0.72293 0.19665 0.45665 0.0
H1404 H 0.71741 0.16098 0.44095 0.0
H1405 H 0.77004 0.0464 0.4549 0.0
H1406 H 0.76752 0.07398 0.42657 0.0
H1407 H 0.7099 0.09076 0.45138 0.0
H1408 H 0.71216 0.0627 0.47977 0.0
H1409 H 0.73915 0.12546 0.4459 0.0
H1410 H 0.70921 0.06803 0.40462 0.0
H1411 H 0.70721 0.03165 0.38993 0.0
H1412 H 0.76113 0.04107 0.35348 0.0
H1413 H 0.76363 0.07742 0.36822 0.0
C1414 C 0.73446 0.18556 0.35665 0.0
C1415 C 0.74869 0.18378 0.33953 0.0
C1416 C 0.73221 0.16969 0.37267 0.0
C1417 C 0.74446 0.15191 0.37234 0.0
C1418 C 0.7588 0.15017 0.35544 0.0
C1419 C 0.76085 0.16587 0.33918 0.0
C1420 C 0.74213 0.1349 0.38929 0.0
C1421 C 0.74032 0.11399 0.38161 0.0
C1422 C 0.74153 0.13911 0.41279 0.0
C1423 C 0.7448 0.16055 0.42224 0.0
C1424 C 0.76206 0.172 0.41711 0.0
C1425 C 0.76502 0.19222 0.42602 0.0
C1426 C 0.75091 0.20111 0.44023 0.0
C1427 C 0.73382 0.18976 0.44561 0.0
C1428 C 0.73078 0.16954 0.43672 0.0
C1429 C 0.75677 0.05587 0.4543 0.0
C1430 C 0.7413 0.05244 0.46958 0.0
C1431 C 0.75534 0.07156 0.43805 0.0
C1432 C 0.73852 0.08432 0.43689 0.0
C1433 C 0.72298 0.08099 0.45205 0.0
C1434 C 0.72425 0.06496 0.46815 0.0
C1435 C 0.73772 0.10148 0.42014 0.0
C1436 C 0.73899 0.12235 0.42787 0.0
C1437 C 0.73822 0.09722 0.39672 0.0
C1438 C 0.73668 0.07541 0.38767 0.0
C1439 C 0.72073 0.06229 0.39362 0.0
C1440 C 0.71949 0.04169 0.38525 0.0
C1441 C 0.73405 0.03404 0.37082 0.0
C1442 C 0.74986 0.04701 0.36467 0.0
C1443 C 0.75118 0.06763 0.37301 0.0
H1444 H 0.73307 0.01808 0.36436 0.0
H1445 H 0.75323 0.21677 0.44711 0.0
H1446 H 0.3539 0.28468 0.80841 0.0
H1447 H 0.37964 0.28091 0.83726 0.0
H1448 H 0.33854 0.24795 0.87987 0.0
H1449 H 0.31275 0.25122 0.85088 0.0
H1450 H 0.36049 0.27825 0.90296 0.0
H1451 H 0.37228 0.22047 0.85248 0.0
H1452 H 0.37772 0.20356 0.81551 0.0
H1453 H 0.43041 0.24062 0.80664 0.0
H1454 H 0.42512 0.25799 0.84342 0.0
H1455 H 0.43739 0.23718 0.97682 0.0
H1456 H 0.41016 0.23679 0.94888 0.0
H1457 H 0.44189 0.28177 0.90846 0.0
H1458 H 0.4686 0.28291 0.93668 0.0
H1459 H 0.4239 0.243 0.88525 0.0
H1460 H 0.41144 0.3023 0.93347 0.0
H1461 H 0.40562 0.32148 0.96901 0.0
H1462 H 0.35384 0.28376 0.98084 0.0
H1463 H 0.3598 0.26377 0.94574 0.0
C1464 C 0.35034 0.27647 0.82382 0.0
C1465 C 0.33127 0.26813 0.82724 0.0
C1466 C 0.36507 0.27438 0.84031 0.0
C1467 C 0.36105 0.26392 0.86056 0.0
C1468 C 0.34193 0.25605 0.86432 0.0
C1469 C 0.32719 0.25804 0.84778 0.0
C1470 C 0.37685 0.26127 0.87778 0.0
C1471 C 0.3742 0.27018 0.89925 0.0
C1472 C 0.39491 0.25117 0.8727 0.0
C1473 C 0.3982 0.24066 0.85063 0.0
C1474 C 0.38494 0.22513 0.84257 0.0
C1475 C 0.38801 0.21544 0.82166 0.0
C1476 C 0.40438 0.22104 0.80871 0.0
C1477 C 0.41773 0.23631 0.81668 0.0
C1478 C 0.41472 0.24607 0.83756 0.0
C1479 C 0.43855 0.24679 0.96184 0.0
C1480 C 0.45498 0.26008 0.9588 0.0
C1481 C 0.42303 0.24663 0.94602 0.0
C1482 C 0.42407 0.25932 0.92674 0.0
C1483 C 0.44086 0.27191 0.92327 0.0
C1484 C 0.45604 0.27256 0.93936 0.0
C1485 C 0.40749 0.25998 0.91036 0.0
C1486 C 0.41005 0.25076 0.88905 0.0
C1487 C 0.38941 0.26991 0.91553 0.0
C1488 C 0.38633 0.2812 0.9372 0.0
C1489 C 0.3991 0.29772 0.94391 0.0
C1490 C 0.39572 0.30881 0.96393 0.0
C1491 C 0.37943 0.30378 0.97722 0.0
C1492 C 0.36652 0.28758 0.97056 0.0
C1493 C 0.36994 0.27629 0.95067 0.0
H1494 H 0.37676 0.31252 0.99261 0.0
H1495 H 0.40673 0.21352 0.79253 0.0
H1496 H 0.29068 0.82446 0.31058 0.0
H1497 H 0.29392 0.85377 0.3375 0.0
H1498 H 0.23221 0.84733 0.35424 0.0
H1499 H 0.22887 0.81802 0.32732 0.0
H1500 H 0.24444 0.88931 0.34596 0.0
H1501 H 0.26534 0.82883 0.38936 0.0
H1502 H 0.2858 0.79758 0.39691 0.0
H1503 H 0.33832 0.83597 0.39614 0.0
H1504 H 0.31817 0.86743 0.38828 0.0
H1505 H 0.23292 0.94507 0.44634 0.0
H1506 H 0.23492 0.91761 0.41772 0.0
H1507 H 0.29811 0.92679 0.414 0.0
H1508 H 0.29629 0.95433 0.4432 0.0
H1509 H 0.28844 0.88533 0.41329 0.0
H1510 H 0.26864 0.94609 0.37312 0.0
H1511 H 0.24925 0.97799 0.36514 0.0
H1512 H 0.19644 0.94049 0.35811 0.0
H1513 H 0.21545 0.90838 0.36646 0.0
C1514 C 0.27779 0.82937 0.31994 0.0
C1515 C 0.25951 0.81897 0.31688 0.0
C1516 C 0.27969 0.84602 0.33538 0.0
C1517 C 0.26332 0.85264 0.3479 0.0
C1518 C 0.24502 0.84243 0.34473 0.0
C1519 C 0.24316 0.82563 0.32948 0.0
C1520 C 0.26521 0.87024 0.36434 0.0
C1521 C 0.2539 0.88839 0.3608 0.0
C1522 C 0.27817 0.86932 0.38319 0.0
C1523 C 0.29027 0.85043 0.38797 0.0
C1524 C 0.28126 0.83058 0.3906 0.0
C1525 C 0.2928 0.81284 0.39497 0.0
C1526 C 0.31335 0.81478 0.39693 0.0
C1527 C 0.32241 0.83449 0.39458 0.0
C1528 C 0.31093 0.85227 0.39018 0.0
C1529 C 0.2473 0.94132 0.43951 0.0
C1530 C 0.26445 0.95205 0.44695 0.0
C1531 C 0.24839 0.92563 0.42305 0.0
C1532 C 0.2666 0.92043 0.41339 0.0
C1533 C 0.28388 0.93067 0.42114 0.0
C1534 C 0.28281 0.9464 0.43779 0.0
C1535 C 0.26729 0.90425 0.39522 0.0
C1536 C 0.27911 0.88639 0.39836 0.0
C1537 C 0.25499 0.90555 0.37581 0.0
C1538 C 0.24347 0.92482 0.37058 0.0
C1539 C 0.25287 0.94465 0.37003 0.0
C1540 C 0.24195 0.96278 0.36542 0.0
C1541 C 0.22162 0.96128 0.36114 0.0
C1542 C 0.21219 0.94163 0.36143 0.0
C1543 C 0.22303 0.92345 0.36609 0.0
H1544 H 0.2132 0.97532 0.35756 0.0
H1545 H 0.32226 0.80103 0.40033 0.0
H1546 H 0.68517 0.6795 0.83852 0.0
H1547 H 0.659 0.67535 0.86648 0.0
H1548 H 0.63617 0.73649 0.84922 0.0
H1549 H 0.66171 0.7405 0.82076 0.0
H1550 H 0.64148 0.73015 0.89604 0.0
H1551 H 0.61275 0.69453 0.83064 0.0
H1552 H 0.61227 0.6678 0.80026 0.0
H1553 H 0.61562 0.61853 0.84943 0.0
H1554 H 0.6164 0.645 0.8801 0.0
H1555 H 0.54831 0.73871 0.9427 0.0
H1556 H 0.5754 0.7357 0.91611 0.0
H1557 H 0.58436 0.67114 0.93587 0.0
H1558 H 0.55671 0.67389 0.96231 0.0
H1559 H 0.58874 0.67551 0.89103 0.0
H1560 H 0.61468 0.70945 0.95654 0.0
H1561 H 0.6157 0.73514 0.9879 0.0
H1562 H 0.61939 0.78596 0.94063 0.0
H1563 H 0.61809 0.76059 0.90895 0.0
C1564 C 0.67443 0.69195 0.84042 0.0
C1565 C 0.67565 0.71039 0.8274 0.0
C1566 C 0.65955 0.68958 0.8565 0.0
C1567 C 0.6457 0.70563 0.8599 0.0
C1568 C 0.64683 0.72399 0.84695 0.0
C1569 C 0.66153 0.72629 0.83076 0.0
C1570 C 0.63008 0.70362 0.87714 0.0
C1571 C 0.62987 0.71831 0.89489 0.0
C1572 C 0.61542 0.68763 0.87607 0.0
C1573 C 0.61487 0.67174 0.85764 0.0
C1574 C 0.61357 0.678 0.83496 0.0
C1575 C 0.6132 0.6629 0.81769 0.0
C1576 C 0.61398 0.64148 0.82291 0.0
C1577 C 0.61506 0.63512 0.84541 0.0
C1578 C 0.61545 0.65016 0.86274 0.0
C1579 C 0.55594 0.7238 0.94135 0.0
C1580 C 0.55051 0.70659 0.95479 0.0
C1581 C 0.57149 0.72213 0.92618 0.0
C1582 C 0.58222 0.70336 0.9244 0.0
C1583 C 0.57636 0.68583 0.93711 0.0
C1584 C 0.56059 0.68742 0.9522 0.0
C1585 C 0.59979 0.70248 0.90959 0.0
C1586 C 0.60047 0.68721 0.89238 0.0
C1587 C 0.6151 0.71776 0.91133 0.0
C1588 C 0.61616 0.7331 0.93035 0.0
C1589 C 0.6156 0.72611 0.95282 0.0
C1590 C 0.61623 0.74061 0.97066 0.0
C1591 C 0.61758 0.76216 0.96626 0.0
C1592 C 0.61835 0.76925 0.94401 0.0
C1593 C 0.61769 0.75482 0.9261 0.0
H1594 H 0.61806 0.77337 0.98009 0.0
H1595 H 0.61369 0.62981 0.80952 0.0
loop_
_geom_bond_atom_site_label_1
_geom_bond_atom_site_label_2
_geom_bond_distance
_geom_bond_site_symmetry_2
_ccdc_geom_bond_type
C0 C1 1.386 . S
C0 C2 1.397 . S
C0 H24 0.931 . S
C1 C0 1.386 . S
C1 C5 1.397 . S
C2 C0 1.397 . S
C2 C3 1.384 . S
C2 H25 0.930 . S
C3 C2 1.384 . S
C3 C4 1.377 . S
C3 C6 1.481 . S
C4 C3 1.377 . S
C4 C5 1.389 . S
C4 H26 0.929 . S
C5 C1 1.397 . S
C5 C4 1.389 . S
C5 H27 0.931 . S
C6 C3 1.481 . S
C6 C7 1.387 . S
C6 C11 1.390 . S
C7 C6 1.387 . S
C7 C8 1.401 . S
C7 H28 0.930 . S
C8 C7 1.401 . S
C8 C9 1.376 . S
C8 C17 1.511 . S
C9 C8 1.376 . S
C9 C10 1.392 . S
C9 H30 0.931 . S
C10 C9 1.392 . S
C10 C11 1.361 . S
C10 C12 1.500 . S
C11 C6 1.390 . S
C11 C10 1.361 . S
C11 H29 0.931 . S
C12 C10 1.500 . S
C12 C13 1.371 . S
C12 C14 1.365 . S
C13 C12 1.371 . S
C13 C23 1.386 . S
C13 H31 0.931 . S
C14 C12 1.365 . S
C14 C15 1.409 . S
C14 H32 0.929 . S
C15 C14 1.409 . S
C15 C16 1.380 . S
C15 H33 0.930 . S
C16 C15 1.380 . S
C16 C23 1.357 . S
C17 C8 1.511 . S
C17 C18 1.341 . S
C17 C19 1.371 . S
C18 C17 1.341 . S
C18 C22 1.394 . S
C18 H34 0.930 . S
C19 C17 1.371 . S
C19 C20 1.392 . S
C19 H35 0.931 . S
C20 C19 1.392 . S
C20 C21 1.331 . S
C20 H38 0.932 . S
C21 C20 1.331 . S
C21 C22 1.336 . S
C22 C18 1.394 . S
C22 C21 1.336 . S
C22 H37 0.929 . S
C23 C13 1.386 . S
C23 C16 1.357 . S
C23 H36 0.928 . S
H24 C0 0.931 . S
H25 C2 0.930 . S
H26 C4 0.929 . S
H27 C5 0.931 . S
H28 C7 0.930 . S
H29 C11 0.931 . S
H30 C9 0.931 . S
H31 C13 0.931 . S
H32 C14 0.929 . S
H33 C15 0.930 . S
H34 C18 0.930 . S
H35 C19 0.931 . S
H36 C23 0.928 . S
H37 C22 0.929 . S
H38 C20 0.932 . S
C39 C40 1.386 . S
C39 C41 1.397 . S
C39 H63 0.931 . S
C40 C39 1.386 . S
C40 C44 1.397 . S
C41 C39 1.397 . S
C41 C42 1.384 . S
C41 H64 0.930 . S
C42 C41 1.384 . S
C42 C43 1.377 . S
C42 C45 1.481 . S
C43 C42 1.377 . S
C43 C44 1.389 . S
C43 H65 0.929 . S
C44 C40 1.397 . S
C44 C43 1.389 . S
C44 H66 0.931 . S
C45 C42 1.481 . S
C45 C46 1.387 . S
C45 C50 1.390 . S
C46 C45 1.387 . S
C46 C47 1.401 . S
C46 H67 0.930 . S
C47 C46 1.401 . S
C47 C48 1.376 . S
C47 C56 1.511 . S
C48 C47 1.376 . S
C48 C49 1.392 . S
C48 H69 0.931 . S
C49 C48 1.392 . S
C49 C50 1.361 . S
C49 C51 1.500 . S
C50 C45 1.390 . S
C50 C49 1.361 . S
C50 H68 0.931 . S
C51 C49 1.500 . S
C51 C52 1.371 . S
C51 C53 1.365 . S
C52 C51 1.371 . S
C52 C62 1.386 . S
C52 H70 0.931 . S
C53 C51 1.365 . S
C53 C54 1.409 . S
C53 H71 0.929 . S
C54 C53 1.409 . S
C54 C55 1.380 . S
C54 H72 0.930 . S
C55 C54 1.380 . S
C55 C62 1.357 . S
C56 C47 1.511 . S
C56 C57 1.341 . S
C56 C58 1.371 . S
C57 C56 1.341 . S
C57 C61 1.394 . S
C57 H73 0.930 . S
C58 C56 1.371 . S
C58 C59 1.392 . S
C58 H74 0.931 . S
C59 C58 1.392 . S
C59 C60 1.331 . S
C59 H77 0.932 . S
C60 C59 1.331 . S
C60 C61 1.336 . S
C61 C57 1.394 . S
C61 C60 1.336 . S
C61 H76 0.929 . S
C62 C52 1.386 . S
C62 C55 1.357 . S
C62 H75 0.928 . S
H63 C39 0.931 . S
H64 C41 0.930 . S
H65 C43 0.929 . S
H66 C44 0.931 . S
H67 C46 0.930 . S
H68 C50 0.931 . S
H69 C48 0.931 . S
H70 C52 0.931 . S
H71 C53 0.929 . S
H72 C54 0.930 . S
H73 C57 0.930 . S
H74 C58 0.931 . S
H75 C62 0.928 . S
H76 C61 0.929 . S
H77 C59 0.932 . S
C78 C79 1.386 . S
C78 C80 1.397 . S
C78 H102 0.931 . S
C79 C78 1.386 . S
C79 C83 1.397 . S
C80 C78 1.397 . S
C80 C81 1.384 . S
C80 H103 0.930 . S
C81 C80 1.384 . S
C81 C82 1.377 . S
C81 C84 1.481 . S
C82 C81 1.377 . S
C82 C83 1.389 . S
C82 H104 0.929 . S
C83 C79 1.397 . S
C83 C82 1.389 . S
C83 H105 0.931 . S
C84 C81 1.481 . S
C84 C85 1.387 . S
C84 C89 1.390 . S
C85 C84 1.387 . S
C85 C86 1.401 . S
C85 H106 0.930 . S
C86 C85 1.401 . S
C86 C87 1.376 . S
C86 C95 1.511 . S
C87 C86 1.376 . S
C87 C88 1.392 . S
C87 H108 0.931 . S
C88 C87 1.392 . S
C88 C89 1.361 . S
C88 C90 1.500 . S
C89 C84 1.390 . S
C89 C88 1.361 . S
C89 H107 0.931 . S
C90 C88 1.500 . S
C90 C91 1.371 . S
C90 C92 1.365 . S
C91 C90 1.371 . S
C91 C101 1.386 . S
C91 H109 0.931 . S
C92 C90 1.365 . S
C92 C93 1.409 . S
C92 H110 0.929 . S
C93 C92 1.409 . S
C93 C94 1.380 . S
C93 H111 0.930 . S
C94 C93 1.380 . S
C94 C101 1.357 . S
C95 C86 1.511 . S
C95 C96 1.341 . S
C95 C97 1.371 . S
C96 C95 1.341 . S
C96 C100 1.394 . S
C96 H112 0.930 . S
C97 C95 1.371 . S
C97 C98 1.392 . S
C97 H113 0.931 . S
C98 C97 1.392 . S
C98 C99 1.331 . S
C98 H116 0.932 . S
C99 C98 1.331 . S
C99 C100 1.336 . S
C100 C96 1.394 . S
C100 C99 1.336 . S
C100 H115 0.929 . S
C101 C91 1.386 . S
C101 C94 1.357 . S
C101 H114 0.928 . S
H102 C78 0.931 . S
H103 C80 0.930 . S
H104 C82 0.929 . S
H105 C83 0.931 . S
H106 C85 0.930 . S
H107 C89 0.931 . S
H108 C87 0.931 . S
H109 C91 0.931 . S
H110 C92 0.929 . S
H111 C93 0.930 . S
H112 C96 0.930 . S
H113 C97 0.931 . S
H114 C101 0.928 . S
H115 C100 0.929 . S
H116 C98 0.932 . S
C117 C118 1.386 . S
C117 C119 1.397 . S
C117 H141 0.931 . S
C118 C117 1.386 . S
C118 C122 1.397 . S
C119 C117 1.397 . S
C119 C120 1.384 . S
C119 H142 0.930 . S
C120 C119 1.384 . S
C120 C121 1.377 . S
C120 C123 1.481 . S
C121 C120 1.377 . S
C121 C122 1.389 . S
C121 H143 0.929 . S
C122 C118 1.397 . S
C122 C121 1.389 . S
C122 H144 0.931 . S
C123 C120 1.481 . S
C123 C124 1.387 . S
C123 C128 1.390 . S
C124 C123 1.387 . S
C124 C125 1.401 . S
C124 H145 0.930 . S
C125 C124 1.401 . S
C125 C126 1.376 . S
C125 C134 1.511 . S
C126 C125 1.376 . S
C126 C127 1.392 . S
C126 H147 0.931 . S
C127 C126 1.392 . S
C127 C128 1.361 . S
C127 C129 1.500 . S
C128 C123 1.390 . S
C128 C127 1.361 . S
C128 H146 0.931 . S
C129 C127 1.500 . S
C129 C130 1.371 . S
C129 C131 1.365 . S
C130 C129 1.371 . S
C130 C140 1.386 . S
C130 H148 0.931 . S
C131 C129 1.365 . S
C131 C132 1.409 . S
C131 H149 0.929 . S
C132 C131 1.409 . S
C132 C133 1.380 . S
C132 H150 0.930 . S
C133 C132 1.380 . S
C133 C140 1.357 . S
C134 C125 1.511 . S
C134 C135 1.341 . S
C134 C136 1.371 . S
C135 C134 1.341 . S
C135 C139 1.394 . S
C135 H151 0.930 . S
C136 C134 1.371 . S
C136 C137 1.392 . S
C136 H152 0.931 . S
C137 C136 1.392 . S
C137 C138 1.331 . S
C137 H155 0.932 . S
C138 C137 1.331 . S
C138 C139 1.336 . S
C139 C135 1.394 . S
C139 C138 1.336 . S
C139 H154 0.929 . S
C140 C130 1.386 . S
C140 C133 1.357 . S
C140 H153 0.928 . S
H141 C117 0.931 . S
H142 C119 0.930 . S
H143 C121 0.929 . S
H144 C122 0.931 . S
H145 C124 0.930 . S
H146 C128 0.931 . S
H147 C126 0.931 . S
H148 C130 0.931 . S
H149 C131 0.929 . S
H150 C132 0.930 . S
H151 C135 0.930 . S
H152 C136 0.931 . S
H153 C140 0.928 . S
H154 C139 0.929 . S
H155 C137 0.932 . S
C156 C157 1.386 . S
C156 C158 1.397 . S
C156 H180 0.931 . S
C157 C156 1.386 . S
C157 C161 1.397 . S
C158 C156 1.397 . S
C158 C159 1.384 . S
C158 H181 0.930 . S
C159 C158 1.384 . S
C159 C160 1.377 . S
C159 C162 1.481 . S
C160 C159 1.377 . S
C160 C161 1.389 . S
C160 H182 0.929 . S
C161 C157 1.397 . S
C161 C160 1.389 . S
C161 H183 0.931 . S
C162 C159 1.481 . S
C162 C163 1.387 . S
C162 C167 1.390 . S
C163 C162 1.387 . S
C163 C164 1.401 . S
C163 H184 0.930 . S
C164 C163 1.401 . S
C164 C165 1.376 . S
C164 C173 1.511 . S
C165 C164 1.376 . S
C165 C166 1.392 . S
C165 H186 0.931 . S
C166 C165 1.392 . S
C166 C167 1.361 . S
C166 C168 1.500 . S
C167 C162 1.390 . S
C167 C166 1.361 . S
C167 H185 0.931 . S
C168 C166 1.500 . S
C168 C169 1.371 . S
C168 C170 1.365 . S
C169 C168 1.371 . S
C169 C179 1.386 . S
C169 H187 0.931 . S
C170 C168 1.365 . S
C170 C171 1.409 . S
C170 H188 0.929 . S
C171 C170 1.409 . S
C171 C172 1.380 . S
C171 H189 0.930 . S
C172 C171 1.380 . S
C172 C179 1.357 . S
C173 C164 1.511 . S
C173 C174 1.341 . S
C173 C175 1.371 . S
C174 C173 1.341 . S
C174 C178 1.394 . S
C174 H190 0.930 . S
C175 C173 1.371 . S
C175 C176 1.392 . S
C175 H191 0.931 . S
C176 C175 1.392 . S
C176 C177 1.331 . S
C176 H194 0.932 . S
C177 C176 1.331 . S
C177 C178 1.336 . S
C178 C174 1.394 . S
C178 C177 1.336 . S
C178 H193 0.929 . S
C179 C169 1.386 . S
C179 C172 1.357 . S
C179 H192 0.928 . S
H180 C156 0.931 . S
H181 C158 0.930 . S
H182 C160 0.929 . S
H183 C161 0.931 . S
H184 C163 0.930 . S
H185 C167 0.931 . S
H186 C165 0.931 . S
H187 C169 0.931 . S
H188 C170 0.929 . S
H189 C171 0.930 . S
H190 C174 0.930 . S
H191 C175 0.931 . S
H192 C179 0.928 . S
H193 C178 0.929 . S
H194 C176 0.932 . S
C195 C196 1.386 . S
C195 C197 1.397 . S
C195 H219 0.931 . S
C196 C195 1.386 . S
C196 C200 1.397 . S
C197 C195 1.397 . S
C197 C198 1.384 . S
C197 H220 0.930 . S
C198 C197 1.384 . S
C198 C199 1.377 . S
C198 C201 1.481 . S
C199 C198 1.377 . S
C199 C200 1.389 . S
C199 H221 0.929 . S
C200 C196 1.397 . S
C200 C199 1.389 . S
C200 H222 0.931 . S
C201 C198 1.481 . S
C201 C202 1.387 . S
C201 C206 1.390 . S
C202 C201 1.387 . S
C202 C203 1.401 . S
C202 H223 0.930 . S
C203 C202 1.401 . S
C203 C204 1.376 . S
C203 C212 1.511 . S
C204 C203 1.376 . S
C204 C205 1.392 . S
C204 H225 0.931 . S
C205 C204 1.392 . S
C205 C206 1.361 . S
C205 C207 1.500 . S
C206 C201 1.390 . S
C206 C205 1.361 . S
C206 H224 0.931 . S
C207 C205 1.500 . S
C207 C208 1.371 . S
C207 C209 1.365 . S
C208 C207 1.371 . S
C208 C218 1.386 . S
C208 H226 0.931 . S
C209 C207 1.365 . S
C209 C210 1.409 . S
C209 H227 0.929 . S
C210 C209 1.409 . S
C210 C211 1.380 . S
C210 H228 0.930 . S
C211 C210 1.380 . S
C211 C218 1.357 . S
C212 C203 1.511 . S
C212 C213 1.341 . S
C212 C214 1.371 . S
C213 C212 1.341 . S
C213 C217 1.394 . S
C213 H229 0.930 . S
C214 C212 1.371 . S
C214 C215 1.392 . S
C214 H230 0.931 . S
C215 C214 1.392 . S
C215 C216 1.331 . S
C215 H233 0.932 . S
C216 C215 1.331 . S
C216 C217 1.336 . S
C217 C213 1.394 . S
C217 C216 1.336 . S
C217 H232 0.929 . S
C218 C208 1.386 . S
C218 C211 1.357 . S
C218 H231 0.928 . S
H219 C195 0.931 . S
H220 C197 0.930 . S
H221 C199 0.929 . S
H222 C200 0.931 . S
H223 C202 0.930 . S
H224 C206 0.931 . S
H225 C204 0.931 . S
H226 C208 0.931 . S
H227 C209 0.929 . S
H228 C210 0.930 . S
H229 C213 0.930 . S
H230 C214 0.931 . S
H231 C218 0.928 . S
H232 C217 0.929 . S
H233 C215 0.932 . S
C234 C235 1.386 . S
C234 C236 1.397 . S
C234 H258 0.931 . S
C235 C234 1.386 . S
C235 C239 1.397 . S
C236 C234 1.397 . S
C236 C237 1.384 . S
C236 H259 0.930 . S
C237 C236 1.384 . S
C237 C238 1.377 . S
C237 C240 1.481 . S
C238 C237 1.377 . S
C238 C239 1.389 . S
C238 H260 0.929 . S
C239 C235 1.397 . S
C239 C238 1.389 . S
C239 H261 0.931 . S
C240 C237 1.481 . S
C240 C241 1.387 . S
C240 C245 1.390 . S
C241 C240 1.387 . S
C241 C242 1.401 . S
C241 H262 0.930 . S
C242 C241 1.401 . S
C242 C243 1.376 . S
C242 C251 1.511 . S
C243 C242 1.376 . S
C243 C244 1.392 . S
C243 H264 0.931 . S
C244 C243 1.392 . S
C244 C245 1.361 . S
C244 C246 1.500 . S
C245 C240 1.390 . S
C245 C244 1.361 . S
C245 H263 0.931 . S
C246 C244 1.500 . S
C246 C247 1.371 . S
C246 C248 1.365 . S
C247 C246 1.371 . S
C247 C257 1.386 . S
C247 H265 0.931 . S
C248 C246 1.365 . S
C248 C249 1.409 . S
C248 H266 0.929 . S
C249 C248 1.409 . S
C249 C250 1.380 . S
C249 H267 0.930 . S
C250 C249 1.380 . S
C250 C257 1.357 . S
C251 C242 1.511 . S
C251 C252 1.341 . S
C251 C253 1.371 . S
C252 C251 1.341 . S
C252 C256 1.394 . S
C252 H268 0.930 . S
C253 C251 1.371 . S
C253 C254 1.392 . S
C253 H269 0.931 . S
C254 C253 1.392 . S
C254 C255 1.331 . S
C254 H272 0.932 . S
C255 C254 1.331 . S
C255 C256 1.336 . S
C256 C252 1.394 . S
C256 C255 1.336 . S
C256 H271 0.929 . S
C257 C247 1.386 . S
C257 C250 1.357 . S
C257 H270 0.928 . S
H258 C234 0.931 . S
H259 C236 0.930 . S
H260 C238 0.929 . S
H261 C239 0.931 . S
H262 C241 0.930 . S
H263 C245 0.931 . S
H264 C243 0.931 . S
H265 C247 0.931 . S
H266 C248 0.929 . S
H267 C249 0.930 . S
H268 C252 0.930 . S
H269 C253 0.931 . S
H270 C257 0.928 . S
H271 C256 0.929 . S
H272 C254 0.932 . S
C273 C274 1.386 . S
C273 C275 1.397 . S
C273 H297 0.931 . S
C274 C273 1.386 . S
C274 C278 1.397 . S
C275 C273 1.397 . S
C275 C276 1.384 . S
C275 H298 0.930 . S
C276 C275 1.384 . S
C276 C277 1.377 . S
C276 C279 1.481 . S
C277 C276 1.377 . S
C277 C278 1.389 . S
C277 H299 0.929 . S
C278 C274 1.397 . S
C278 C277 1.389 . S
C278 H300 0.931 . S
C279 C276 1.481 . S
C279 C280 1.387 . S
C279 C284 1.390 . S
C280 C279 1.387 . S
C280 C281 1.401 . S
C280 H301 0.930 . S
C281 C280 1.401 . S
C281 C282 1.376 . S
C281 C290 1.511 . S
C282 C281 1.376 . S
C282 C283 1.392 . S
C282 H303 0.931 . S
C283 C282 1.392 . S
C283 C284 1.361 . S
C283 C285 1.500 . S
C284 C279 1.390 . S
C284 C283 1.361 . S
C284 H302 0.931 . S
C285 C283 1.500 . S
C285 C286 1.371 . S
C285 C287 1.365 . S
C286 C285 1.371 . S
C286 C296 1.386 . S
C286 H304 0.931 . S
C287 C285 1.365 . S
C287 C288 1.409 . S
C287 H305 0.929 . S
C288 C287 1.409 . S
C288 C289 1.380 . S
C288 H306 0.930 . S
C289 C288 1.380 . S
C289 C296 1.357 . S
C290 C281 1.511 . S
C290 C291 1.341 . S
C290 C292 1.371 . S
C291 C290 1.341 . S
C291 C295 1.394 . S
C291 H307 0.930 . S
C292 C290 1.371 . S
C292 C293 1.392 . S
C292 H308 0.931 . S
C293 C292 1.392 . S
C293 C294 1.331 . S
C293 H311 0.932 . S
C294 C293 1.331 . S
C294 C295 1.336 . S
C295 C291 1.394 . S
C295 C294 1.336 . S
C295 H310 0.929 . S
C296 C286 1.386 . S
C296 C289 1.357 . S
C296 H309 0.928 . S
H297 C273 0.931 . S
H298 C275 0.930 . S
H299 C277 0.929 . S
H300 C278 0.931 . S
H301 C280 0.930 . S
H302 C284 0.931 . S
H303 C282 0.931 . S
H304 C286 0.931 . S
H305 C287 0.929 . S
H306 C288 0.930 . S
H307 C291 0.930 . S
H308 C292 0.931 . S
H309 C296 0.928 . S
H310 C295 0.929 . S
H311 C293 0.932 . S
C312 O314 1.247 . S
C312 O316 1.258 . S
C313 O320 1.247 . S
C313 O321 1.258 . S
O314 C312 1.247 . S
O314 Zn315 2.028 1_655 S
Zn315 O314 2.028 1_455 S
Zn315 O319 2.035 . S
Zn315 O321 2.035 . S
Zn315 O322 2.028 1_455 S
O316 C312 1.258 . S
O316 Zn317 2.000 1_655 S
Zn317 O316 2.000 1_455 S
Zn317 O318 2.063 . S
Zn317 O320 2.063 . S
Zn317 O323 2.000 1_455 S
O318 Zn317 2.063 . S
O318 C324 1.247 . S
O319 Zn315 2.035 . S
O319 C324 1.258 . S
O320 C313 1.247 . S
O320 Zn317 2.063 . S
O321 C313 1.258 . S
O321 Zn315 2.035 . S
O322 Zn315 2.028 1_655 S
O322 C325 1.247 . S
O323 Zn317 2.000 1_655 S
O323 C325 1.258 . S
C324 O318 1.247 . S
C324 O319 1.258 . S
C325 O322 1.247 . S
C325 O323 1.258 . S
C326 O328 1.247 . S
C326 O330 1.258 . S
C327 O334 1.247 . S
C327 O335 1.258 . S
O328 C326 1.247 . S
O328 Zn329 2.028 1_655 S
Zn329 O328 2.028 1_455 S
Zn329 O333 2.035 . S
Zn329 O335 2.035 . S
Zn329 O336 2.028 1_455 S
O330 C326 1.258 . S
O330 Zn331 2.035 1_655 S
Zn331 O330 2.035 1_455 S
Zn331 O332 2.028 . S
Zn331 O334 2.028 . S
Zn331 O337 2.035 1_455 S
O332 Zn331 2.028 . S
O332 C338 1.247 . S
O333 Zn329 2.035 . S
O333 C338 1.258 . S
O334 C327 1.247 . S
O334 Zn331 2.028 . S
O335 C327 1.258 . S
O335 Zn329 2.035 . S
O336 Zn329 2.028 1_655 S
O336 C339 1.247 . S
O337 Zn331 2.035 1_655 S
O337 C339 1.258 . S
C338 O332 1.247 . S
C338 O333 1.258 . S
C339 O336 1.247 . S
C339 O337 1.258 . S
C340 O342 1.247 . S
C340 O344 1.258 . S
C341 O348 1.247 . S
C341 O349 1.258 . S
O342 C340 1.247 . S
O342 Zn343 2.028 1_565 S
Zn343 O342 2.028 1_545 S
Zn343 O347 2.035 . S
Zn343 O349 2.035 . S
Zn343 O350 2.028 1_545 S
O344 C340 1.258 . S
O344 Zn345 2.035 1_565 S
Zn345 O344 2.035 1_545 S
Zn345 O346 2.028 . S
Zn345 O348 2.028 . S
Zn345 O351 2.035 1_545 S
O346 Zn345 2.028 . S
O346 C352 1.247 . S
O347 Zn343 2.035 . S
O347 C352 1.258 . S
O348 C341 1.247 . S
O348 Zn345 2.028 . S
O349 C341 1.258 . S
O349 Zn343 2.035 . S
O350 Zn343 2.028 1_565 S
O350 C353 1.247 . S
O351 Zn345 2.035 1_565 S
O351 C353 1.258 . S
C352 O346 1.247 . S
C352 O347 1.258 . S
C353 O350 1.247 . S
C353 O351 1.258 . S
C354 O356 1.247 . S
C354 O358 1.258 . S
C355 O362 1.247 . S
C355 O363 1.258 . S
O356 C354 1.247 . S
O356 Zn357 2.045 . S
Zn357 O356 2.045 . S
Zn357 O361 2.052 . S
Zn357 O363 2.018 1_554 S
Zn357 O364 2.011 1_554 S
O358 C354 1.258 . S
O358 Zn359 2.035 . S
Zn359 O358 2.035 . S
Zn359 O360 2.028 . S
Zn359 O362 2.028 1_554 S
Zn359 O365 2.035 1_554 S
O360 Zn359 2.028 . S
O360 C366 1.247 . S
O361 Zn357 2.052 . S
O361 C366 1.258 . S
O362 C355 1.247 . S
O362 Zn359 2.028 1_556 S
O363 C355 1.258 . S
O363 Zn357 2.018 1_556 S
O364 Zn357 2.011 1_556 S
O364 C367 1.247 . S
O365 Zn359 2.035 1_556 S
O365 C367 1.258 . S
C366 O360 1.247 . S
C366 O361 1.258 . S
C367 O364 1.247 . S
C367 O365 1.258 . S
C368 O370 1.247 . S
C368 O372 1.258 . S
C369 O376 1.247 . S
C369 O377 1.258 . S
O370 C368 1.247 . S
O370 Zn371 2.026 . S
Zn371 O370 2.026 . S
Zn371 O375 2.037 1_565 S
Zn371 O377 2.037 1_565 S
Zn371 O378 2.026 . S
O372 C368 1.258 . S
O372 Zn373 2.017 1_565 S
Zn373 O372 2.017 1_545 S
Zn373 O374 2.046 . S
Zn373 O376 2.046 . S
Zn373 O379 2.017 1_545 S
O374 Zn373 2.046 . S
O374 C380 1.247 . S
O375 Zn371 2.037 1_545 S
O375 C380 1.258 . S
O376 C369 1.247 . S
O376 Zn373 2.046 . S
O377 C369 1.258 . S
O377 Zn371 2.037 1_545 S
O378 Zn371 2.026 . S
O378 C381 1.247 . S
O379 Zn373 2.017 1_565 S
O379 C381 1.258 . S
C380 O374 1.247 . S
C380 O375 1.258 . S
C381 O378 1.247 . S
C381 O379 1.258 . S
C382 O384 1.247 . S
C382 O386 1.258 . S
C383 O390 1.247 . S
C383 O391 1.258 . S
O384 C382 1.247 . S
O384 Zn385 2.028 . S
Zn385 O384 2.028 . S
Zn385 O389 2.035 . S
Zn385 O391 2.035 1_554 S
Zn385 O392 2.028 1_554 S
O386 C382 1.258 . S
O386 Zn387 2.035 . S
Zn387 O386 2.035 . S
Zn387 O388 2.028 . S
Zn387 O390 2.028 1_554 S
Zn387 O393 2.035 1_554 S
O388 Zn387 2.028 . S
O388 C394 1.247 . S
O389 Zn385 2.035 . S
O389 C394 1.258 . S
O390 C383 1.247 . S
O390 Zn387 2.028 1_556 S
O391 C383 1.258 . S
O391 Zn385 2.035 1_556 S
O392 Zn385 2.028 1_556 S
O392 C395 1.247 . S
O393 Zn387 2.035 1_556 S
O393 C395 1.258 . S
C394 O388 1.247 . S
C394 O389 1.258 . S
C395 O392 1.247 . S
C395 O393 1.258 . S
H396 C414 0.951 . S
H397 C416 0.951 . S
H398 C418 0.950 . S
H399 C419 0.950 . S
H400 C421 0.950 . S
H401 C424 0.950 . S
H402 C425 0.950 . S
H403 C427 0.950 . S
H404 C428 0.950 . S
H405 C429 0.951 . S
H406 C431 0.951 . S
H407 C433 0.950 . S
H408 C434 0.950 . S
H409 C436 0.950 . S
H410 C439 0.950 . S
H411 C440 0.950 . S
H412 C442 0.950 . S
H413 C443 0.950 . S
C414 H396 0.951 . S
C414 C415 1.366 . S
C414 C416 1.388 . S
C415 C414 1.366 . S
C415 C419 1.385 . S
C416 H397 0.951 . S
C416 C414 1.388 . S
C416 C417 1.366 . S
C417 C416 1.366 . S
C417 C418 1.414 . S
C417 C420 1.499 . S
C418 H398 0.950 . S
C418 C417 1.414 . S
C418 C419 1.374 . S
C419 H399 0.950 . S
C419 C415 1.385 . S
C419 C418 1.374 . S
C420 C417 1.499 . S
C420 C421 1.373 . S
C420 C422 1.389 . S
C421 H400 0.950 . S
C421 C420 1.373 . S
C421 C437 1.377 . S
C422 C420 1.389 . S
C422 C423 1.524 . S
C422 C436 1.377 . S
C423 C422 1.524 . S
C423 C424 1.397 . S
C423 C428 1.363 . S
C424 H401 0.950 . S
C424 C423 1.397 . S
C424 C425 1.334 . S
C425 H402 0.950 . S
C425 C424 1.334 . S
C425 C426 1.287 . S
C426 C425 1.287 . S
C426 C427 1.524 . S
C426 H445 0.913 . S
C427 H403 0.950 . S
C427 C426 1.524 . S
C427 C428 1.415 . S
C428 H404 0.950 . S
C428 C423 1.363 . S
C428 C427 1.415 . S
C429 H405 0.951 . S
C429 C430 1.366 . S
C429 C431 1.388 . S
C430 C429 1.366 . S
C430 C434 1.385 . S
C431 H406 0.951 . S
C431 C429 1.388 . S
C431 C432 1.366 . S
C432 C431 1.366 . S
C432 C433 1.414 . S
C432 C435 1.499 . S
C433 H407 0.950 . S
C433 C432 1.414 . S
C433 C434 1.374 . S
C434 H408 0.950 . S
C434 C430 1.385 . S
C434 C433 1.374 . S
C435 C432 1.499 . S
C435 C436 1.373 . S
C435 C437 1.389 . S
C436 H409 0.950 . S
C436 C422 1.377 . S
C436 C435 1.373 . S
C437 C421 1.377 . S
C437 C435 1.389 . S
C437 C438 1.524 . S
C438 C437 1.524 . S
C438 C439 1.397 . S
C438 C443 1.363 . S
C439 H410 0.950 . S
C439 C438 1.397 . S
C439 C440 1.334 . S
C440 H411 0.950 . S
C440 C439 1.334 . S
C440 C441 1.287 . S
C441 C440 1.287 . S
C441 C442 1.524 . S
C441 H444 0.999 . S
C442 H412 0.950 . S
C442 C441 1.524 . S
C442 C443 1.415 . S
C443 H413 0.950 . S
C443 C438 1.363 . S
C443 C442 1.415 . S
H444 C441 0.999 . S
H445 C426 0.913 . S
H446 C464 0.951 . S
H447 C466 0.951 . S
H448 C468 0.950 . S
H449 C469 0.950 . S
H450 C471 0.950 . S
H451 C474 0.950 . S
H452 C475 0.950 . S
H453 C477 0.950 . S
H454 C478 0.950 . S
H455 C479 0.951 . S
H456 C481 0.951 . S
H457 C483 0.950 . S
H458 C484 0.950 . S
H459 C486 0.950 . S
H460 C489 0.950 . S
H461 C490 0.950 . S
H462 C492 0.950 . S
H463 C493 0.950 . S
C464 H446 0.951 . S
C464 C465 1.366 . S
C464 C466 1.388 . S
C465 C464 1.366 . S
C465 C469 1.385 . S
C466 H447 0.951 . S
C466 C464 1.388 . S
C466 C467 1.366 . S
C467 C466 1.366 . S
C467 C468 1.414 . S
C467 C470 1.499 . S
C468 H448 0.950 . S
C468 C467 1.414 . S
C468 C469 1.374 . S
C469 H449 0.950 . S
C469 C465 1.385 . S
C469 C468 1.374 . S
C470 C467 1.499 . S
C470 C471 1.373 . S
C470 C472 1.389 . S
C471 H450 0.950 . S
C471 C470 1.373 . S
C471 C487 1.377 . S
C472 C470 1.389 . S
C472 C473 1.524 . S
C472 C486 1.377 . S
C473 C472 1.524 . S
C473 C474 1.397 . S
C473 C478 1.363 . S
C474 H451 0.950 . S
C474 C473 1.397 . S
C474 C475 1.334 . S
C475 H452 0.950 . S
C475 C474 1.334 . S
C475 C476 1.287 . S
C476 C475 1.287 . S
C476 C477 1.524 . S
C476 H495 0.913 . S
C477 H453 0.950 . S
C477 C476 1.524 . S
C477 C478 1.415 . S
C478 H454 0.950 . S
C478 C473 1.363 . S
C478 C477 1.415 . S
C479 H455 0.951 . S
C479 C480 1.366 . S
C479 C481 1.388 . S
C480 C479 1.366 . S
C480 C484 1.385 . S
C481 H456 0.951 . S
C481 C479 1.388 . S
C481 C482 1.366 . S
C482 C481 1.366 . S
C482 C483 1.414 . S
C482 C485 1.499 . S
C483 H457 0.950 . S
C483 C482 1.414 . S
C483 C484 1.374 . S
C484 H458 0.950 . S
C484 C480 1.385 . S
C484 C483 1.374 . S
C485 C482 1.499 . S
C485 C486 1.373 . S
C485 C487 1.389 . S
C486 H459 0.950 . S
C486 C472 1.377 . S
C486 C485 1.373 . S
C487 C471 1.377 . S
C487 C485 1.389 . S
C487 C488 1.524 . S
C488 C487 1.524 . S
C488 C489 1.397 . S
C488 C493 1.363 . S
C489 H460 0.950 . S
C489 C488 1.397 . S
C489 C490 1.334 . S
C490 H461 0.950 . S
C490 C489 1.334 . S
C490 C491 1.287 . S
C491 C490 1.287 . S
C491 C492 1.524 . S
C491 H494 0.999 . S
C492 H462 0.950 . S
C492 C491 1.524 . S
C492 C493 1.415 . S
C493 H463 0.950 . S
C493 C488 1.363 . S
C493 C492 1.415 . S
H494 C491 0.999 . S
H495 C476 0.913 . S
H496 C514 0.951 . S
H497 C516 0.951 . S
H498 C518 0.950 . S
H499 C519 0.950 . S
H500 C521 0.950 . S
H501 C524 0.950 . S
H502 C525 0.950 . S
H503 C527 0.950 . S
H504 C528 0.950 . S
H505 C529 0.951 . S
H506 C531 0.951 . S
H507 C533 0.950 . S
H508 C534 0.950 . S
H509 C536 0.950 . S
H510 C539 0.950 . S
H511 C540 0.950 . S
H512 C542 0.950 . S
H513 C543 0.950 . S
C514 H496 0.951 . S
C514 C515 1.366 . S
C514 C516 1.388 . S
C515 C514 1.366 . S
C515 C519 1.385 . S
C516 H497 0.951 . S
C516 C514 1.388 . S
C516 C517 1.366 . S
C517 C516 1.366 . S
C517 C518 1.414 . S
C517 C520 1.499 . S
C518 H498 0.950 . S
C518 C517 1.414 . S
C518 C519 1.374 . S
C519 H499 0.950 . S
C519 C515 1.385 . S
C519 C518 1.374 . S
C520 C517 1.499 . S
C520 C521 1.373 . S
C520 C522 1.389 . S
C521 H500 0.950 . S
C521 C520 1.373 . S
C521 C537 1.377 . S
C522 C520 1.389 . S
C522 C523 1.524 . S
C522 C536 1.377 . S
C523 C522 1.524 . S
C523 C524 1.397 . S
C523 C528 1.363 . S
C524 H501 0.950 . S
C524 C523 1.397 . S
C524 C525 1.334 . S
C525 H502 0.950 . S
C525 C524 1.334 . S
C525 C526 1.287 . S
C526 C525 1.287 . S
C526 C527 1.524 . S
C526 H545 0.913 . S
C527 H503 0.950 . S
C527 C526 1.524 . S
C527 C528 1.415 . S
C528 H504 0.950 . S
C528 C523 1.363 . S
C528 C527 1.415 . S
C529 H505 0.951 . S
C529 C530 1.366 . S
C529 C531 1.388 . S
C530 C529 1.366 . S
C530 C534 1.385 . S
C531 H506 0.951 . S
C531 C529 1.388 . S
C531 C532 1.366 . S
C532 C531 1.366 . S
C532 C533 1.414 . S
C532 C535 1.499 . S
C533 H507 0.950 . S
C533 C532 1.414 . S
C533 C534 1.374 . S
C534 H508 0.950 . S
C534 C530 1.385 . S
C534 C533 1.374 . S
C535 C532 1.499 . S
C535 C536 1.373 . S
C535 C537 1.389 . S
C536 H509 0.950 . S
C536 C522 1.377 . S
C536 C535 1.373 . S
C537 C521 1.377 . S
C537 C535 1.389 . S
C537 C538 1.524 . S
C538 C537 1.524 . S
C538 C539 1.397 . S
C538 C543 1.363 . S
C539 H510 0.950 . S
C539 C538 1.397 . S
C539 C540 1.334 . S
C540 H511 0.950 . S
C540 C539 1.334 . S
C540 C541 1.287 . S
C541 C540 1.287 . S
C541 C542 1.524 . S
C541 H544 0.999 . S
C542 H512 0.950 . S
C542 C541 1.524 . S
C542 C543 1.415 . S
C543 H513 0.950 . S
C543 C538 1.363 . S
C543 C542 1.415 . S
H544 C541 0.999 . S
H545 C526 0.913 . S
H546 C564 0.951 . S
H547 C566 0.951 . S
H548 C568 0.950 . S
H549 C569 0.950 . S
H550 C571 0.950 . S
H551 C574 0.950 . S
H552 C575 0.950 . S
H553 C577 0.950 . S
H554 C578 0.950 . S
H555 C579 0.951 . S
H556 C581 0.951 . S
H557 C583 0.950 . S
H558 C584 0.950 . S
H559 C586 0.950 . S
H560 C589 0.950 . S
H561 C590 0.950 . S
H562 C592 0.950 . S
H563 C593 0.950 . S
C564 H546 0.951 . S
C564 C565 1.366 . S
C564 C566 1.388 . S
C565 C564 1.366 . S
C565 C569 1.385 . S
C566 H547 0.951 . S
C566 C564 1.388 . S
C566 C567 1.366 . S
C567 C566 1.366 . S
C567 C568 1.414 . S
C567 C570 1.499 . S
C568 H548 0.950 . S
C568 C567 1.414 . S
C568 C569 1.374 . S
C569 H549 0.950 . S
C569 C565 1.385 . S
C569 C568 1.374 . S
C570 C567 1.499 . S
C570 C571 1.373 . S
C570 C572 1.389 . S
C571 H550 0.950 . S
C571 C570 1.373 . S
C571 C587 1.377 . S
C572 C570 1.389 . S
C572 C573 1.524 . S
C572 C586 1.377 . S
C573 C572 1.524 . S
C573 C574 1.397 . S
C573 C578 1.363 . S
C574 H551 0.950 . S
C574 C573 1.397 . S
C574 C575 1.334 . S
C575 H552 0.950 . S
C575 C574 1.334 . S
C575 C576 1.287 . S
C576 C575 1.287 . S
C576 C577 1.524 . S
C576 H595 0.913 . S
C577 H553 0.950 . S
C577 C576 1.524 . S
C577 C578 1.415 . S
C578 H554 0.950 . S
C578 C573 1.363 . S
C578 C577 1.415 . S
C579 H555 0.951 . S
C579 C580 1.366 . S
C579 C581 1.388 . S
C580 C579 1.366 . S
C580 C584 1.385 . S
C581 H556 0.951 . S
C581 C579 1.388 . S
C581 C582 1.366 . S
C582 C581 1.366 . S
C582 C583 1.414 . S
C582 C585 1.499 . S
C583 H557 0.950 . S
C583 C582 1.414 . S
C583 C584 1.374 . S
C584 H558 0.950 . S
C584 C580 1.385 . S
C584 C583 1.374 . S
C585 C582 1.499 . S
C585 C586 1.373 . S
C585 C587 1.389 . S
C586 H559 0.950 . S
C586 C572 1.377 . S
C586 C585 1.373 . S
C587 C571 1.377 . S
C587 C585 1.389 . S
C587 C588 1.524 . S
C588 C587 1.524 . S
C588 C589 1.397 . S
C588 C593 1.363 . S
C589 H560 0.950 . S
C589 C588 1.397 . S
C589 C590 1.334 . S
C590 H561 0.950 . S
C590 C589 1.334 . S
C590 C591 1.287 . S
C591 C590 1.287 . S
C591 C592 1.524 . S
C591 H594 0.999 . S
C592 H562 0.950 . S
C592 C591 1.524 . S
C592 C593 1.415 . S
C593 H563 0.950 . S
C593 C588 1.363 . S
C593 C592 1.415 . S
H594 C591 0.999 . S
H595 C576 0.913 . S
H596 C614 0.951 . S
H597 C616 0.951 . S
H598 C618 0.950 . S
H599 C619 0.950 . S
H600 C621 0.950 . S
H601 C624 0.950 . S
H602 C625 0.950 . S
H603 C627 0.950 . S
H604 C628 0.950 . S
H605 C629 0.951 . S
H606 C631 0.951 . S
H607 C633 0.950 . S
H608 C634 0.950 . S
H609 C636 0.950 . S
H610 C639 0.950 . S
H611 C640 0.950 . S
H612 C642 0.950 . S
H613 C643 0.950 . S
C614 H596 0.951 . S
C614 C615 1.366 . S
C614 C616 1.388 . S
C615 C614 1.366 . S
C615 C619 1.385 . S
C616 H597 0.951 . S
C616 C614 1.388 . S
C616 C617 1.366 . S
C617 C616 1.366 . S
C617 C618 1.414 . S
C617 C620 1.499 . S
C618 H598 0.950 . S
C618 C617 1.414 . S
C618 C619 1.374 . S
C619 H599 0.950 . S
C619 C615 1.385 . S
C619 C618 1.374 . S
C620 C617 1.499 . S
C620 C621 1.373 . S
C620 C622 1.389 . S
C621 H600 0.950 . S
C621 C620 1.373 . S
C621 C637 1.377 . S
C622 C620 1.389 . S
C622 C623 1.524 . S
C622 C636 1.377 . S
C623 C622 1.524 . S
C623 C624 1.397 . S
C623 C628 1.363 . S
C624 H601 0.950 . S
C624 C623 1.397 . S
C624 C625 1.334 . S
C625 H602 0.950 . S
C625 C624 1.334 . S
C625 C626 1.287 . S
C626 C625 1.287 . S
C626 C627 1.524 . S
C626 H645 0.913 . S
C627 H603 0.950 . S
C627 C626 1.524 . S
C627 C628 1.415 . S
C628 H604 0.950 . S
C628 C623 1.363 . S
C628 C627 1.415 . S
C629 H605 0.951 . S
C629 C630 1.366 . S
C629 C631 1.388 . S
C630 C629 1.366 . S
C630 C634 1.385 . S
C631 H606 0.951 . S
C631 C629 1.388 . S
C631 C632 1.366 . S
C632 C631 1.366 . S
C632 C633 1.414 . S
C632 C635 1.499 . S
C633 H607 0.950 . S
C633 C632 1.414 . S
C633 C634 1.374 . S
C634 H608 0.950 . S
C634 C630 1.385 . S
C634 C633 1.374 . S
C635 C632 1.499 . S
C635 C636 1.373 . S
C635 C637 1.389 . S
C636 H609 0.950 . S
C636 C622 1.377 . S
C636 C635 1.373 . S
C637 C621 1.377 . S
C637 C635 1.389 . S
C637 C638 1.524 . S
C638 C637 1.524 . S
C638 C639 1.397 . S
C638 C643 1.363 . S
C639 H610 0.950 . S
C639 C638 1.397 . S
C639 C640 1.334 . S
C640 H611 0.950 . S
C640 C639 1.334 . S
C640 C641 1.287 . S
C641 C640 1.287 . S
C641 C642 1.524 . S
C641 H644 0.999 . S
C642 H612 0.950 . S
C642 C641 1.524 . S
C642 C643 1.415 . S
C643 H613 0.950 . S
C643 C638 1.363 . S
C643 C642 1.415 . S
H644 C641 0.999 . S
H645 C626 0.913 . S
H646 C664 0.951 . S
H647 C666 0.951 . S
H648 C668 0.950 . S
H649 C669 0.950 . S
H650 C671 0.950 . S
H651 C674 0.950 . S
H652 C675 0.950 . S
H653 C677 0.950 . S
H654 C678 0.950 . S
H655 C679 0.951 . S
H656 C681 0.951 . S
H657 C683 0.950 . S
H658 C684 0.950 . S
H659 C686 0.950 . S
H660 C689 0.950 . S
H661 C690 0.950 . S
H662 C692 0.950 . S
H663 C693 0.950 . S
C664 H646 0.951 . S
C664 C665 1.366 . S
C664 C666 1.388 . S
C665 C664 1.366 . S
C665 C669 1.385 . S
C666 H647 0.951 . S
C666 C664 1.388 . S
C666 C667 1.366 . S
C667 C666 1.366 . S
C667 C668 1.414 . S
C667 C670 1.499 . S
C668 H648 0.950 . S
C668 C667 1.414 . S
C668 C669 1.374 . S
C669 H649 0.950 . S
C669 C665 1.385 . S
C669 C668 1.374 . S
C670 C667 1.499 . S
C670 C671 1.373 . S
C670 C672 1.389 . S
C671 H650 0.950 . S
C671 C670 1.373 . S
C671 C687 1.377 . S
C672 C670 1.389 . S
C672 C673 1.524 . S
C672 C686 1.377 . S
C673 C672 1.524 . S
C673 C674 1.397 . S
C673 C678 1.363 . S
C674 H651 0.950 . S
C674 C673 1.397 . S
C674 C675 1.334 . S
C675 H652 0.950 . S
C675 C674 1.334 . S
C675 C676 1.287 . S
C676 C675 1.287 . S
C676 C677 1.524 . S
C676 H695 0.913 . S
C677 H653 0.950 . S
C677 C676 1.524 . S
C677 C678 1.415 . S
C678 H654 0.950 . S
C678 C673 1.363 . S
C678 C677 1.415 . S
C679 H655 0.951 . S
C679 C680 1.366 . S
C679 C681 1.388 . S
C680 C679 1.366 . S
C680 C684 1.385 . S
C681 H656 0.951 . S
C681 C679 1.388 . S
C681 C682 1.366 . S
C682 C681 1.366 . S
C682 C683 1.414 . S
C682 C685 1.499 . S
C683 H657 0.950 . S
C683 C682 1.414 . S
C683 C684 1.374 . S
C684 H658 0.950 . S
C684 C680 1.385 . S
C684 C683 1.374 . S
C685 C682 1.499 . S
C685 C686 1.373 . S
C685 C687 1.389 . S
C686 H659 0.950 . S
C686 C672 1.377 . S
C686 C685 1.373 . S
C687 C671 1.377 . S
C687 C685 1.389 . S
C687 C688 1.524 . S
C688 C687 1.524 . S
C688 C689 1.397 . S
C688 C693 1.363 . S
C689 H660 0.950 . S
C689 C688 1.397 . S
C689 C690 1.334 . S
C690 H661 0.950 . S
C690 C689 1.334 . S
C690 C691 1.287 . S
C691 C690 1.287 . S
C691 C692 1.524 . S
C691 H694 0.999 . S
C692 H662 0.950 . S
C692 C691 1.524 . S
C692 C693 1.415 . S
C693 H663 0.950 . S
C693 C688 1.363 . S
C693 C692 1.415 . S
H694 C691 0.999 . S
H695 C676 0.913 . S
H696 C714 0.951 . S
H697 C716 0.951 . S
H698 C718 0.950 . S
H699 C719 0.950 . S
H700 C721 0.950 . S
H701 C724 0.950 . S
H702 C725 0.950 . S
H703 C727 0.950 . S
H704 C728 0.950 . S
H705 C729 0.951 . S
H706 C731 0.951 . S
H707 C733 0.950 . S
H708 C734 0.950 . S
H709 C736 0.950 . S
H710 C739 0.950 . S
H711 C740 0.950 . S
H712 C742 0.950 . S
H713 C743 0.950 . S
C714 H696 0.951 . S
C714 C715 1.366 . S
C714 C716 1.388 . S
C715 C714 1.366 . S
C715 C719 1.385 . S
C716 H697 0.951 . S
C716 C714 1.388 . S
C716 C717 1.366 . S
C717 C716 1.366 . S
C717 C718 1.414 . S
C717 C720 1.499 . S
C718 H698 0.950 . S
C718 C717 1.414 . S
C718 C719 1.374 . S
C719 H699 0.950 . S
C719 C715 1.385 . S
C719 C718 1.374 . S
C720 C717 1.499 . S
C720 C721 1.373 . S
C720 C722 1.389 . S
C721 H700 0.950 . S
C721 C720 1.373 . S
C721 C737 1.377 . S
C722 C720 1.389 . S
C722 C723 1.524 . S
C722 C736 1.377 . S
C723 C722 1.524 . S
C723 C724 1.397 . S
C723 C728 1.363 . S
C724 H701 0.950 . S
C724 C723 1.397 . S
C724 C725 1.334 . S
C725 H702 0.950 . S
C725 C724 1.334 . S
C725 C726 1.287 . S
C726 C725 1.287 . S
C726 C727 1.524 . S
C726 H745 0.913 . S
C727 H703 0.950 . S
C727 C726 1.524 . S
C727 C728 1.415 . S
C728 H704 0.950 . S
C728 C723 1.363 . S
C728 C727 1.415 . S
C729 H705 0.951 . S
C729 C730 1.366 . S
C729 C731 1.388 . S
C730 C729 1.366 . S
C730 C734 1.385 . S
C731 H706 0.951 . S
C731 C729 1.388 . S
C731 C732 1.366 . S
C732 C731 1.366 . S
C732 C733 1.414 . S
C732 C735 1.499 . S
C733 H707 0.950 . S
C733 C732 1.414 . S
C733 C734 1.374 . S
C734 H708 0.950 . S
C734 C730 1.385 . S
C734 C733 1.374 . S
C735 C732 1.499 . S
C735 C736 1.373 . S
C735 C737 1.389 . S
C736 H709 0.950 . S
C736 C722 1.377 . S
C736 C735 1.373 . S
C737 C721 1.377 . S
C737 C735 1.389 . S
C737 C738 1.524 . S
C738 C737 1.524 . S
C738 C739 1.397 . S
C738 C743 1.363 . S
C739 H710 0.950 . S
C739 C738 1.397 . S
C739 C740 1.334 . S
C740 H711 0.950 . S
C740 C739 1.334 . S
C740 C741 1.287 . S
C741 C740 1.287 . S
C741 C742 1.524 . S
C741 H744 0.999 . S
C742 H712 0.950 . S
C742 C741 1.524 . S
C742 C743 1.415 . S
C743 H713 0.950 . S
C743 C738 1.363 . S
C743 C742 1.415 . S
H744 C741 0.999 . S
H745 C726 0.913 . S
H746 C764 0.951 . S
H747 C766 0.951 . S
H748 C768 0.950 . S
H749 C769 0.950 . S
H750 C771 0.950 . S
H751 C774 0.950 . S
H752 C775 0.950 . S
H753 C777 0.950 . S
H754 C778 0.950 . S
H755 C779 0.951 . S
H756 C781 0.951 . S
H757 C783 0.950 . S
H758 C784 0.950 . S
H759 C786 0.950 . S
H760 C789 0.950 . S
H761 C790 0.950 . S
H762 C792 0.950 . S
H763 C793 0.950 . S
C764 H746 0.951 . S
C764 C765 1.366 . S
C764 C766 1.388 . S
C765 C764 1.366 . S
C765 C769 1.385 . S
C766 H747 0.951 . S
C766 C764 1.388 . S
C766 C767 1.366 . S
C767 C766 1.366 . S
C767 C768 1.414 . S
C767 C770 1.499 . S
C768 H748 0.950 . S
C768 C767 1.414 . S
C768 C769 1.374 . S
C769 H749 0.950 . S
C769 C765 1.385 . S
C769 C768 1.374 . S
C770 C767 1.499 . S
C770 C771 1.373 . S
C770 C772 1.389 . S
C771 H750 0.950 . S
C771 C770 1.373 . S
C771 C787 1.377 . S
C772 C770 1.389 . S
C772 C773 1.524 . S
C772 C786 1.377 . S
C773 C772 1.524 . S
C773 C774 1.397 . S
C773 C778 1.363 . S
C774 H751 0.950 . S
C774 C773 1.397 . S
C774 C775 1.334 . S
C775 H752 0.950 . S
C775 C774 1.334 . S
C775 C776 1.287 . S
C776 C775 1.287 . S
C776 C777 1.524 . S
C776 H795 0.913 . S
C777 H753 0.950 . S
C777 C776 1.524 . S
C777 C778 1.415 . S
C778 H754 0.950 . S
C778 C773 1.363 . S
C778 C777 1.415 . S
C779 H755 0.951 . S
C779 C780 1.366 . S
C779 C781 1.388 . S
C780 C779 1.366 . S
C780 C784 1.385 . S
C781 H756 0.951 . S
C781 C779 1.388 . S
C781 C782 1.366 . S
C782 C781 1.366 . S
C782 C783 1.414 . S
C782 C785 1.499 . S
C783 H757 0.950 . S
C783 C782 1.414 . S
C783 C784 1.374 . S
C784 H758 0.950 . S
C784 C780 1.385 . S
C784 C783 1.374 . S
C785 C782 1.499 . S
C785 C786 1.373 . S
C785 C787 1.389 . S
C786 H759 0.950 . S
C786 C772 1.377 . S
C786 C785 1.373 . S
C787 C771 1.377 . S
C787 C785 1.389 . S
C787 C788 1.524 . S
C788 C787 1.524 . S
C788 C789 1.397 . S
C788 C793 1.363 . S
C789 H760 0.950 . S
C789 C788 1.397 . S
C789 C790 1.334 . S
C790 H761 0.950 . S
C790 C789 1.334 . S
C790 C791 1.287 . S
C791 C790 1.287 . S
C791 C792 1.524 . S
C791 H794 0.999 . S
C792 H762 0.950 . S
C792 C791 1.524 . S
C792 C793 1.415 . S
C793 H763 0.950 . S
C793 C788 1.363 . S
C793 C792 1.415 . S
H794 C791 0.999 . S
H795 C776 0.913 . S
H796 C814 0.951 . S
H797 C816 0.951 . S
H798 C818 0.950 . S
H799 C819 0.950 . S
H800 C821 0.950 . S
H801 C824 0.950 . S
H802 C825 0.950 . S
H803 C827 0.950 . S
H804 C828 0.950 . S
H805 C829 0.951 . S
H806 C831 0.951 . S
H807 C833 0.950 . S
H808 C834 0.950 . S
H809 C836 0.950 . S
H810 C839 0.950 . S
H811 C840 0.950 . S
H812 C842 0.950 . S
H813 C843 0.950 . S
C814 H796 0.951 . S
C814 C815 1.366 . S
C814 C816 1.388 . S
C815 C814 1.366 . S
C815 C819 1.385 . S
C816 H797 0.951 . S
C816 C814 1.388 . S
C816 C817 1.366 . S
C817 C816 1.366 . S
C817 C818 1.414 . S
C817 C820 1.499 . S
C818 H798 0.950 . S
C818 C817 1.414 . S
C818 C819 1.374 . S
C819 H799 0.950 . S
C819 C815 1.385 . S
C819 C818 1.374 . S
C820 C817 1.499 . S
C820 C821 1.373 . S
C820 C822 1.389 . S
C821 H800 0.950 . S
C821 C820 1.373 . S
C821 C837 1.377 . S
C822 C820 1.389 . S
C822 C823 1.524 . S
C822 C836 1.377 . S
C823 C822 1.524 . S
C823 C824 1.397 . S
C823 C828 1.363 . S
C824 H801 0.950 . S
C824 C823 1.397 . S
C824 C825 1.334 . S
C825 H802 0.950 . S
C825 C824 1.334 . S
C825 C826 1.287 . S
C826 C825 1.287 . S
C826 C827 1.524 . S
C826 H845 0.913 . S
C827 H803 0.950 . S
C827 C826 1.524 . S
C827 C828 1.415 . S
C828 H804 0.950 . S
C828 C823 1.363 . S
C828 C827 1.415 . S
C829 H805 0.951 . S
C829 C830 1.366 . S
C829 C831 1.388 . S
C830 C829 1.366 . S
C830 C834 1.385 . S
C831 H806 0.951 . S
C831 C829 1.388 . S
C831 C832 1.366 . S
C832 C831 1.366 . S
C832 C833 1.414 . S
C832 C835 1.499 . S
C833 H807 0.950 . S
C833 C832 1.414 . S
C833 C834 1.374 . S
C834 H808 0.950 . S
C834 C830 1.385 . S
C834 C833 1.374 . S
C835 C832 1.499 . S
C835 C836 1.373 . S
C835 C837 1.389 . S
C836 H809 0.950 . S
C836 C822 1.377 . S
C836 C835 1.373 . S
C837 C821 1.377 . S
C837 C835 1.389 . S
C837 C838 1.524 . S
C838 C837 1.524 . S
C838 C839 1.397 . S
C838 C843 1.363 . S
C839 H810 0.950 . S
C839 C838 1.397 . S
C839 C840 1.334 . S
C840 H811 0.950 . S
C840 C839 1.334 . S
C840 C841 1.287 . S
C841 C840 1.287 . S
C841 C842 1.524 . S
C841 H844 0.999 . S
C842 H812 0.950 . S
C842 C841 1.524 . S
C842 C843 1.415 . S
C843 H813 0.950 . S
C843 C838 1.363 . S
C843 C842 1.415 . S
H844 C841 0.999 . S
H845 C826 0.913 . S
H846 C864 0.951 . S
H847 C866 0.951 . S
H848 C868 0.950 . S
H849 C869 0.950 . S
H850 C871 0.950 . S
H851 C874 0.950 . S
H852 C875 0.950 . S
H853 C877 0.950 . S
H854 C878 0.950 . S
H855 C879 0.951 . S
H856 C881 0.951 . S
H857 C883 0.950 . S
H858 C884 0.950 . S
H859 C886 0.950 . S
H860 C889 0.950 . S
H861 C890 0.950 . S
H862 C892 0.950 . S
H863 C893 0.950 . S
C864 H846 0.951 . S
C864 C865 1.366 . S
C864 C866 1.388 . S
C865 C864 1.366 . S
C865 C869 1.385 . S
C866 H847 0.951 . S
C866 C864 1.388 . S
C866 C867 1.366 . S
C867 C866 1.366 . S
C867 C868 1.414 . S
C867 C870 1.499 . S
C868 H848 0.950 . S
C868 C867 1.414 . S
C868 C869 1.374 . S
C869 H849 0.950 . S
C869 C865 1.385 . S
C869 C868 1.374 . S
C870 C867 1.499 . S
C870 C871 1.373 . S
C870 C872 1.389 . S
C871 H850 0.950 . S
C871 C870 1.373 . S
C871 C887 1.377 . S
C872 C870 1.389 . S
C872 C873 1.524 . S
C872 C886 1.377 . S
C873 C872 1.524 . S
C873 C874 1.397 . S
C873 C878 1.363 . S
C874 H851 0.950 . S
C874 C873 1.397 . S
C874 C875 1.334 . S
C875 H852 0.950 . S
C875 C874 1.334 . S
C875 C876 1.287 . S
C876 C875 1.287 . S
C876 C877 1.524 . S
C876 H895 0.913 . S
C877 H853 0.950 . S
C877 C876 1.524 . S
C877 C878 1.415 . S
C878 H854 0.950 . S
C878 C873 1.363 . S
C878 C877 1.415 . S
C879 H855 0.951 . S
C879 C880 1.366 . S
C879 C881 1.388 . S
C880 C879 1.366 . S
C880 C884 1.385 . S
C881 H856 0.951 . S
C881 C879 1.388 . S
C881 C882 1.366 . S
C882 C881 1.366 . S
C882 C883 1.414 . S
C882 C885 1.499 . S
C883 H857 0.950 . S
C883 C882 1.414 . S
C883 C884 1.374 . S
C884 H858 0.950 . S
C884 C880 1.385 . S
C884 C883 1.374 . S
C885 C882 1.499 . S
C885 C886 1.373 . S
C885 C887 1.389 . S
C886 H859 0.950 . S
C886 C872 1.377 . S
C886 C885 1.373 . S
C887 C871 1.377 . S
C887 C885 1.389 . S
C887 C888 1.524 . S
C888 C887 1.524 . S
C888 C889 1.397 . S
C888 C893 1.363 . S
C889 H860 0.950 . S
C889 C888 1.397 . S
C889 C890 1.334 . S
C890 H861 0.950 . S
C890 C889 1.334 . S
C890 C891 1.287 . S
C891 C890 1.287 . S
C891 C892 1.524 . S
C891 H894 0.999 . S
C892 H862 0.950 . S
C892 C891 1.524 . S
C892 C893 1.415 . S
C893 H863 0.950 . S
C893 C888 1.363 . S
C893 C892 1.415 . S
H894 C891 0.999 . S
H895 C876 0.913 . S
H896 C914 0.951 . S
H897 C916 0.951 . S
H898 C918 0.950 . S
H899 C919 0.950 . S
H900 C921 0.950 . S
H901 C924 0.950 . S
H902 C925 0.950 . S
H903 C927 0.950 . S
H904 C928 0.950 . S
H905 C929 0.951 . S
H906 C931 0.951 . S
H907 C933 0.950 . S
H908 C934 0.950 . S
H909 C936 0.950 . S
H910 C939 0.950 . S
H911 C940 0.950 . S
H912 C942 0.950 . S
H913 C943 0.950 . S
C914 H896 0.951 . S
C914 C915 1.366 . S
C914 C916 1.388 . S
C915 C914 1.366 . S
C915 C919 1.385 . S
C916 H897 0.951 . S
C916 C914 1.388 . S
C916 C917 1.366 . S
C917 C916 1.366 . S
C917 C918 1.414 . S
C917 C920 1.499 . S
C918 H898 0.950 . S
C918 C917 1.414 . S
C918 C919 1.374 . S
C919 H899 0.950 . S
C919 C915 1.385 . S
C919 C918 1.374 . S
C920 C917 1.499 . S
C920 C921 1.373 . S
C920 C922 1.389 . S
C921 H900 0.950 . S
C921 C920 1.373 . S
C921 C937 1.377 . S
C922 C920 1.389 . S
C922 C923 1.524 . S
C922 C936 1.377 . S
C923 C922 1.524 . S
C923 C924 1.397 . S
C923 C928 1.363 . S
C924 H901 0.950 . S
C924 C923 1.397 . S
C924 C925 1.334 . S
C925 H902 0.950 . S
C925 C924 1.334 . S
C925 C926 1.287 . S
C926 C925 1.287 . S
C926 C927 1.524 . S
C926 H945 0.913 . S
C927 H903 0.950 . S
C927 C926 1.524 . S
C927 C928 1.415 . S
C928 H904 0.950 . S
C928 C923 1.363 . S
C928 C927 1.415 . S
C929 H905 0.951 . S
C929 C930 1.366 . S
C929 C931 1.388 . S
C930 C929 1.366 . S
C930 C934 1.385 . S
C931 H906 0.951 . S
C931 C929 1.388 . S
C931 C932 1.366 . S
C932 C931 1.366 . S
C932 C933 1.414 . S
C932 C935 1.499 . S
C933 H907 0.950 . S
C933 C932 1.414 . S
C933 C934 1.374 . S
C934 H908 0.950 . S
C934 C930 1.385 . S
C934 C933 1.374 . S
C935 C932 1.499 . S
C935 C936 1.373 . S
C935 C937 1.389 . S
C936 H909 0.950 . S
C936 C922 1.377 . S
C936 C935 1.373 . S
C937 C921 1.377 . S
C937 C935 1.389 . S
C937 C938 1.524 . S
C938 C937 1.524 . S
C938 C939 1.397 . S
C938 C943 1.363 . S
C939 H910 0.950 . S
C939 C938 1.397 . S
C939 C940 1.334 . S
C940 H911 0.950 . S
C940 C939 1.334 . S
C940 C941 1.287 . S
C941 C940 1.287 . S
C941 C942 1.524 . S
C941 H944 0.999 . S
C942 H912 0.950 . S
C942 C941 1.524 . S
C942 C943 1.415 . S
C943 H913 0.950 . S
C943 C938 1.363 . S
C943 C942 1.415 . S
H944 C941 0.999 . S
H945 C926 0.913 . S
H946 C964 0.951 . S
H947 C966 0.951 . S
H948 C968 0.950 . S
H949 C969 0.950 . S
H950 C971 0.950 . S
H951 C974 0.950 . S
H952 C975 0.950 . S
H953 C977 0.950 . S
H954 C978 0.950 . S
H955 C979 0.951 . S
H956 C981 0.951 . S
H957 C983 0.950 . S
H958 C984 0.950 . S
H959 C986 0.950 . S
H960 C989 0.950 . S
H961 C990 0.950 . S
H962 C992 0.950 . S
H963 C993 0.950 . S
C964 H946 0.951 . S
C964 C965 1.366 . S
C964 C966 1.388 . S
C965 C964 1.366 . S
C965 C969 1.385 . S
C966 H947 0.951 . S
C966 C964 1.388 . S
C966 C967 1.366 . S
C967 C966 1.366 . S
C967 C968 1.414 . S
C967 C970 1.499 . S
C968 H948 0.950 . S
C968 C967 1.414 . S
C968 C969 1.374 . S
C969 H949 0.950 . S
C969 C965 1.385 . S
C969 C968 1.374 . S
C970 C967 1.499 . S
C970 C971 1.373 . S
C970 C972 1.389 . S
C971 H950 0.950 . S
C971 C970 1.373 . S
C971 C987 1.377 . S
C972 C970 1.389 . S
C972 C973 1.524 . S
C972 C986 1.377 . S
C973 C972 1.524 . S
C973 C974 1.397 . S
C973 C978 1.363 . S
C974 H951 0.950 . S
C974 C973 1.397 . S
C974 C975 1.334 . S
C975 H952 0.950 . S
C975 C974 1.334 . S
C975 C976 1.287 . S
C976 C975 1.287 . S
C976 C977 1.524 . S
C976 H995 0.913 . S
C977 H953 0.950 . S
C977 C976 1.524 . S
C977 C978 1.415 . S
C978 H954 0.950 . S
C978 C973 1.363 . S
C978 C977 1.415 . S
C979 H955 0.951 . S
C979 C980 1.366 . S
C979 C981 1.388 . S
C980 C979 1.366 . S
C980 C984 1.385 . S
C981 H956 0.951 . S
C981 C979 1.388 . S
C981 C982 1.366 . S
C982 C981 1.366 . S
C982 C983 1.414 . S
C982 C985 1.499 . S
C983 H957 0.950 . S
C983 C982 1.414 . S
C983 C984 1.374 . S
C984 H958 0.950 . S
C984 C980 1.385 . S
C984 C983 1.374 . S
C985 C982 1.499 . S
C985 C986 1.373 . S
C985 C987 1.389 . S
C986 H959 0.950 . S
C986 C972 1.377 . S
C986 C985 1.373 . S
C987 C971 1.377 . S
C987 C985 1.389 . S
C987 C988 1.524 . S
C988 C987 1.524 . S
C988 C989 1.397 . S
C988 C993 1.363 . S
C989 H960 0.950 . S
C989 C988 1.397 . S
C989 C990 1.334 . S
C990 H961 0.950 . S
C990 C989 1.334 . S
C990 C991 1.287 . S
C991 C990 1.287 . S
C991 C992 1.524 . S
C991 H994 0.999 . S
C992 H962 0.950 . S
C992 C991 1.524 . S
C992 C993 1.415 . S
C993 H963 0.950 . S
C993 C988 1.363 . S
C993 C992 1.415 . S
H994 C991 0.999 . S
H995 C976 0.913 . S
H996 C1014 0.951 . S
H997 C1016 0.951 . S
H998 C1018 0.950 . S
H999 C1019 0.950 . S
H1000 C1021 0.950 . S
H1001 C1024 0.950 . S
H1002 C1025 0.950 . S
H1003 C1027 0.950 . S
H1004 C1028 0.950 . S
H1005 C1029 0.951 . S
H1006 C1031 0.951 . S
H1007 C1033 0.950 . S
H1008 C1034 0.950 . S
H1009 C1036 0.950 . S
H1010 C1039 0.950 . S
H1011 C1040 0.950 . S
H1012 C1042 0.950 . S
H1013 C1043 0.950 . S
C1014 H996 0.951 . S
C1014 C1015 1.366 . S
C1014 C1016 1.388 . S
C1015 C1014 1.366 . S
C1015 C1019 1.385 . S
C1016 H997 0.951 . S
C1016 C1014 1.388 . S
C1016 C1017 1.366 . S
C1017 C1016 1.366 . S
C1017 C1018 1.414 . S
C1017 C1020 1.499 . S
C1018 H998 0.950 . S
C1018 C1017 1.414 . S
C1018 C1019 1.374 . S
C1019 H999 0.950 . S
C1019 C1015 1.385 . S
C1019 C1018 1.374 . S
C1020 C1017 1.499 . S
C1020 C1021 1.373 . S
C1020 C1022 1.389 . S
C1021 H1000 0.950 . S
C1021 C1020 1.373 . S
C1021 C1037 1.377 . S
C1022 C1020 1.389 . S
C1022 C1023 1.524 . S
C1022 C1036 1.377 . S
C1023 C1022 1.524 . S
C1023 C1024 1.397 . S
C1023 C1028 1.363 . S
C1024 H1001 0.950 . S
C1024 C1023 1.397 . S
C1024 C1025 1.334 . S
C1025 H1002 0.950 . S
C1025 C1024 1.334 . S
C1025 C1026 1.287 . S
C1026 C1025 1.287 . S
C1026 C1027 1.524 . S
C1026 H1045 0.913 . S
C1027 H1003 0.950 . S
C1027 C1026 1.524 . S
C1027 C1028 1.415 . S
C1028 H1004 0.950 . S
C1028 C1023 1.363 . S
C1028 C1027 1.415 . S
C1029 H1005 0.951 . S
C1029 C1030 1.366 . S
C1029 C1031 1.388 . S
C1030 C1029 1.366 . S
C1030 C1034 1.385 . S
C1031 H1006 0.951 . S
C1031 C1029 1.388 . S
C1031 C1032 1.366 . S
C1032 C1031 1.366 . S
C1032 C1033 1.414 . S
C1032 C1035 1.499 . S
C1033 H1007 0.950 . S
C1033 C1032 1.414 . S
C1033 C1034 1.374 . S
C1034 H1008 0.950 . S
C1034 C1030 1.385 . S
C1034 C1033 1.374 . S
C1035 C1032 1.499 . S
C1035 C1036 1.373 . S
C1035 C1037 1.389 . S
C1036 H1009 0.950 . S
C1036 C1022 1.377 . S
C1036 C1035 1.373 . S
C1037 C1021 1.377 . S
C1037 C1035 1.389 . S
C1037 C1038 1.524 . S
C1038 C1037 1.524 . S
C1038 C1039 1.397 . S
C1038 C1043 1.363 . S
C1039 H1010 0.950 . S
C1039 C1038 1.397 . S
C1039 C1040 1.334 . S
C1040 H1011 0.950 . S
C1040 C1039 1.334 . S
C1040 C1041 1.287 . S
C1041 C1040 1.287 . S
C1041 C1042 1.524 . S
C1041 H1044 0.999 . S
C1042 H1012 0.950 . S
C1042 C1041 1.524 . S
C1042 C1043 1.415 . S
C1043 H1013 0.950 . S
C1043 C1038 1.363 . S
C1043 C1042 1.415 . S
H1044 C1041 0.999 . S
H1045 C1026 0.913 . S
H1046 C1064 0.951 . S
H1047 C1066 0.951 . S
H1048 C1068 0.950 . S
H1049 C1069 0.950 . S
H1050 C1071 0.950 . S
H1051 C1074 0.950 . S
H1052 C1075 0.950 . S
H1053 C1077 0.950 . S
H1054 C1078 0.950 . S
H1055 C1079 0.951 . S
H1056 C1081 0.951 . S
H1057 C1083 0.950 . S
H1058 C1084 0.950 . S
H1059 C1086 0.950 . S
H1060 C1089 0.950 . S
H1061 C1090 0.950 . S
H1062 C1092 0.950 . S
H1063 C1093 0.950 . S
C1064 H1046 0.951 . S
C1064 C1065 1.366 . S
C1064 C1066 1.388 . S
C1065 C1064 1.366 . S
C1065 C1069 1.385 . S
C1066 H1047 0.951 . S
C1066 C1064 1.388 . S
C1066 C1067 1.366 . S
C1067 C1066 1.366 . S
C1067 C1068 1.414 . S
C1067 C1070 1.499 . S
C1068 H1048 0.950 . S
C1068 C1067 1.414 . S
C1068 C1069 1.374 . S
C1069 H1049 0.950 . S
C1069 C1065 1.385 . S
C1069 C1068 1.374 . S
C1070 C1067 1.499 . S
C1070 C1071 1.373 . S
C1070 C1072 1.389 . S
C1071 H1050 0.950 . S
C1071 C1070 1.373 . S
C1071 C1087 1.377 . S
C1072 C1070 1.389 . S
C1072 C1073 1.524 . S
C1072 C1086 1.377 . S
C1073 C1072 1.524 . S
C1073 C1074 1.397 . S
C1073 C1078 1.363 . S
C1074 H1051 0.950 . S
C1074 C1073 1.397 . S
C1074 C1075 1.334 . S
C1075 H1052 0.950 . S
C1075 C1074 1.334 . S
C1075 C1076 1.287 . S
C1076 C1075 1.287 . S
C1076 C1077 1.524 . S
C1076 H1095 0.913 . S
C1077 H1053 0.950 . S
C1077 C1076 1.524 . S
C1077 C1078 1.415 . S
C1078 H1054 0.950 . S
C1078 C1073 1.363 . S
C1078 C1077 1.415 . S
C1079 H1055 0.951 . S
C1079 C1080 1.366 . S
C1079 C1081 1.388 . S
C1080 C1079 1.366 . S
C1080 C1084 1.385 . S
C1081 H1056 0.951 . S
C1081 C1079 1.388 . S
C1081 C1082 1.366 . S
C1082 C1081 1.366 . S
C1082 C1083 1.414 . S
C1082 C1085 1.499 . S
C1083 H1057 0.950 . S
C1083 C1082 1.414 . S
C1083 C1084 1.374 . S
C1084 H1058 0.950 . S
C1084 C1080 1.385 . S
C1084 C1083 1.374 . S
C1085 C1082 1.499 . S
C1085 C1086 1.373 . S
C1085 C1087 1.389 . S
C1086 H1059 0.950 . S
C1086 C1072 1.377 . S
C1086 C1085 1.373 . S
C1087 C1071 1.377 . S
C1087 C1085 1.389 . S
C1087 C1088 1.524 . S
C1088 C1087 1.524 . S
C1088 C1089 1.397 . S
C1088 C1093 1.363 . S
C1089 H1060 0.950 . S
C1089 C1088 1.397 . S
C1089 C1090 1.334 . S
C1090 H1061 0.950 . S
C1090 C1089 1.334 . S
C1090 C1091 1.287 . S
C1091 C1090 1.287 . S
C1091 C1092 1.524 . S
C1091 H1094 0.999 . S
C1092 H1062 0.950 . S
C1092 C1091 1.524 . S
C1092 C1093 1.415 . S
C1093 H1063 0.950 . S
C1093 C1088 1.363 . S
C1093 C1092 1.415 . S
H1094 C1091 0.999 . S
H1095 C1076 0.913 . S
H1096 C1114 0.951 . S
H1097 C1116 0.951 . S
H1098 C1118 0.950 . S
H1099 C1119 0.950 . S
H1100 C1121 0.950 . S
H1101 C1124 0.950 . S
H1102 C1125 0.950 . S
H1103 C1127 0.950 . S
H1104 C1128 0.950 . S
H1105 C1129 0.951 . S
H1106 C1131 0.951 . S
H1107 C1133 0.950 . S
H1108 C1134 0.950 . S
H1109 C1136 0.950 . S
H1110 C1139 0.950 . S
H1111 C1140 0.950 . S
H1112 C1142 0.950 . S
H1113 C1143 0.950 . S
C1114 H1096 0.951 . S
C1114 C1115 1.366 . S
C1114 C1116 1.388 . S
C1115 C1114 1.366 . S
C1115 C1119 1.385 . S
C1116 H1097 0.951 . S
C1116 C1114 1.388 . S
C1116 C1117 1.366 . S
C1117 C1116 1.366 . S
C1117 C1118 1.414 . S
C1117 C1120 1.499 . S
C1118 H1098 0.950 . S
C1118 C1117 1.414 . S
C1118 C1119 1.374 . S
C1119 H1099 0.950 . S
C1119 C1115 1.385 . S
C1119 C1118 1.374 . S
C1120 C1117 1.499 . S
C1120 C1121 1.373 . S
C1120 C1122 1.389 . S
C1121 H1100 0.950 . S
C1121 C1120 1.373 . S
C1121 C1137 1.377 . S
C1122 C1120 1.389 . S
C1122 C1123 1.524 . S
C1122 C1136 1.377 . S
C1123 C1122 1.524 . S
C1123 C1124 1.397 . S
C1123 C1128 1.363 . S
C1124 H1101 0.950 . S
C1124 C1123 1.397 . S
C1124 C1125 1.334 . S
C1125 H1102 0.950 . S
C1125 C1124 1.334 . S
C1125 C1126 1.287 . S
C1126 C1125 1.287 . S
C1126 C1127 1.524 . S
C1126 H1145 0.913 . S
C1127 H1103 0.950 . S
C1127 C1126 1.524 . S
C1127 C1128 1.415 . S
C1128 H1104 0.950 . S
C1128 C1123 1.363 . S
C1128 C1127 1.415 . S
C1129 H1105 0.951 . S
C1129 C1130 1.366 . S
C1129 C1131 1.388 . S
C1130 C1129 1.366 . S
C1130 C1134 1.385 . S
C1131 H1106 0.951 . S
C1131 C1129 1.388 . S
C1131 C1132 1.366 . S
C1132 C1131 1.366 . S
C1132 C1133 1.414 . S
C1132 C1135 1.499 . S
C1133 H1107 0.950 . S
C1133 C1132 1.414 . S
C1133 C1134 1.374 . S
C1134 H1108 0.950 . S
C1134 C1130 1.385 . S
C1134 C1133 1.374 . S
C1135 C1132 1.499 . S
C1135 C1136 1.373 . S
C1135 C1137 1.389 . S
C1136 H1109 0.950 . S
C1136 C1122 1.377 . S
C1136 C1135 1.373 . S
C1137 C1121 1.377 . S
C1137 C1135 1.389 . S
C1137 C1138 1.524 . S
C1138 C1137 1.524 . S
C1138 C1139 1.397 . S
C1138 C1143 1.363 . S
C1139 H1110 0.950 . S
C1139 C1138 1.397 . S
C1139 C1140 1.334 . S
C1140 H1111 0.950 . S
C1140 C1139 1.334 . S
C1140 C1141 1.287 . S
C1141 C1140 1.287 . S
C1141 C1142 1.524 . S
C1141 H1144 0.999 . S
C1142 H1112 0.950 . S
C1142 C1141 1.524 . S
C1142 C1143 1.415 . S
C1143 H1113 0.950 . S
C1143 C1138 1.363 . S
C1143 C1142 1.415 . S
H1144 C1141 0.999 . S
H1145 C1126 0.913 . S
H1146 C1164 0.951 . S
H1147 C1166 0.951 . S
H1148 C1168 0.950 . S
H1149 C1169 0.950 . S
H1150 C1171 0.950 . S
H1151 C1174 0.950 . S
H1152 C1175 0.950 . S
H1153 C1177 0.950 . S
H1154 C1178 0.950 . S
H1155 C1179 0.951 . S
H1156 C1181 0.951 . S
H1157 C1183 0.950 . S
H1158 C1184 0.950 . S
H1159 C1186 0.950 . S
H1160 C1189 0.950 . S
H1161 C1190 0.950 . S
H1162 C1192 0.950 . S
H1163 C1193 0.950 . S
C1164 H1146 0.951 . S
C1164 C1165 1.366 . S
C1164 C1166 1.388 . S
C1165 C1164 1.366 . S
C1165 C1169 1.385 . S
C1166 H1147 0.951 . S
C1166 C1164 1.388 . S
C1166 C1167 1.366 . S
C1167 C1166 1.366 . S
C1167 C1168 1.414 . S
C1167 C1170 1.499 . S
C1168 H1148 0.950 . S
C1168 C1167 1.414 . S
C1168 C1169 1.374 . S
C1169 H1149 0.950 . S
C1169 C1165 1.385 . S
C1169 C1168 1.374 . S
C1170 C1167 1.499 . S
C1170 C1171 1.373 . S
C1170 C1172 1.389 . S
C1171 H1150 0.950 . S
C1171 C1170 1.373 . S
C1171 C1187 1.377 . S
C1172 C1170 1.389 . S
C1172 C1173 1.524 . S
C1172 C1186 1.377 . S
C1173 C1172 1.524 . S
C1173 C1174 1.397 . S
C1173 C1178 1.363 . S
C1174 H1151 0.950 . S
C1174 C1173 1.397 . S
C1174 C1175 1.334 . S
C1175 H1152 0.950 . S
C1175 C1174 1.334 . S
C1175 C1176 1.287 . S
C1176 C1175 1.287 . S
C1176 C1177 1.524 . S
C1176 H1195 0.913 . S
C1177 H1153 0.950 . S
C1177 C1176 1.524 . S
C1177 C1178 1.415 . S
C1178 H1154 0.950 . S
C1178 C1173 1.363 . S
C1178 C1177 1.415 . S
C1179 H1155 0.951 . S
C1179 C1180 1.366 . S
C1179 C1181 1.388 . S
C1180 C1179 1.366 . S
C1180 C1184 1.385 . S
C1181 H1156 0.951 . S
C1181 C1179 1.388 . S
C1181 C1182 1.366 . S
C1182 C1181 1.366 . S
C1182 C1183 1.414 . S
C1182 C1185 1.499 . S
C1183 H1157 0.950 . S
C1183 C1182 1.414 . S
C1183 C1184 1.374 . S
C1184 H1158 0.950 . S
C1184 C1180 1.385 . S
C1184 C1183 1.374 . S
C1185 C1182 1.499 . S
C1185 C1186 1.373 . S
C1185 C1187 1.389 . S
C1186 H1159 0.950 . S
C1186 C1172 1.377 . S
C1186 C1185 1.373 . S
C1187 C1171 1.377 . S
C1187 C1185 1.389 . S
C1187 C1188 1.524 . S
C1188 C1187 1.524 . S
C1188 C1189 1.397 . S
C1188 C1193 1.363 . S
C1189 H1160 0.950 . S
C1189 C1188 1.397 . S
C1189 C1190 1.334 . S
C1190 H1161 0.950 . S
C1190 C1189 1.334 . S
C1190 C1191 1.287 . S
C1191 C1190 1.287 . S
C1191 C1192 1.524 . S
C1191 H1194 0.999 . S
C1192 H1162 0.950 . S
C1192 C1191 1.524 . S
C1192 C1193 1.415 . S
C1193 H1163 0.950 . S
C1193 C1188 1.363 . S
C1193 C1192 1.415 . S
H1194 C1191 0.999 . S
H1195 C1176 0.913 . S
H1196 C1214 0.951 . S
H1197 C1216 0.951 . S
H1198 C1218 0.950 . S
H1199 C1219 0.950 . S
H1200 C1221 0.950 . S
H1201 C1224 0.950 . S
H1202 C1225 0.950 . S
H1203 C1227 0.950 . S
H1204 C1228 0.950 . S
H1205 C1229 0.951 . S
H1206 C1231 0.951 . S
H1207 C1233 0.950 . S
H1208 C1234 0.950 . S
H1209 C1236 0.950 . S
H1210 C1239 0.950 . S
H1211 C1240 0.950 . S
H1212 C1242 0.950 . S
H1213 C1243 0.950 . S
C1214 H1196 0.951 . S
C1214 C1215 1.366 . S
C1214 C1216 1.388 . S
C1215 C1214 1.366 . S
C1215 C1219 1.385 . S
C1216 H1197 0.951 . S
C1216 C1214 1.388 . S
C1216 C1217 1.366 . S
C1217 C1216 1.366 . S
C1217 C1218 1.414 . S
C1217 C1220 1.499 . S
C1218 H1198 0.950 . S
C1218 C1217 1.414 . S
C1218 C1219 1.374 . S
C1219 H1199 0.950 . S
C1219 C1215 1.385 . S
C1219 C1218 1.374 . S
C1220 C1217 1.499 . S
C1220 C1221 1.373 . S
C1220 C1222 1.389 . S
C1221 H1200 0.950 . S
C1221 C1220 1.373 . S
C1221 C1237 1.377 . S
C1222 C1220 1.389 . S
C1222 C1223 1.524 . S
C1222 C1236 1.377 . S
C1223 C1222 1.524 . S
C1223 C1224 1.397 . S
C1223 C1228 1.363 . S
C1224 H1201 0.950 . S
C1224 C1223 1.397 . S
C1224 C1225 1.334 . S
C1225 H1202 0.950 . S
C1225 C1224 1.334 . S
C1225 C1226 1.287 . S
C1226 C1225 1.287 . S
C1226 C1227 1.524 . S
C1226 H1245 0.913 . S
C1227 H1203 0.950 . S
C1227 C1226 1.524 . S
C1227 C1228 1.415 . S
C1228 H1204 0.950 . S
C1228 C1223 1.363 . S
C1228 C1227 1.415 . S
C1229 H1205 0.951 . S
C1229 C1230 1.366 . S
C1229 C1231 1.388 . S
C1230 C1229 1.366 . S
C1230 C1234 1.385 . S
C1231 H1206 0.951 . S
C1231 C1229 1.388 . S
C1231 C1232 1.366 . S
C1232 C1231 1.366 . S
C1232 C1233 1.414 . S
C1232 C1235 1.499 . S
C1233 H1207 0.950 . S
C1233 C1232 1.414 . S
C1233 C1234 1.374 . S
C1234 H1208 0.950 . S
C1234 C1230 1.385 . S
C1234 C1233 1.374 . S
C1235 C1232 1.499 . S
C1235 C1236 1.373 . S
C1235 C1237 1.389 . S
C1236 H1209 0.950 . S
C1236 C1222 1.377 . S
C1236 C1235 1.373 . S
C1237 C1221 1.377 . S
C1237 C1235 1.389 . S
C1237 C1238 1.524 . S
C1238 C1237 1.524 . S
C1238 C1239 1.397 . S
C1238 C1243 1.363 . S
C1239 H1210 0.950 . S
C1239 C1238 1.397 . S
C1239 C1240 1.334 . S
C1240 H1211 0.950 . S
C1240 C1239 1.334 . S
C1240 C1241 1.287 . S
C1241 C1240 1.287 . S
C1241 C1242 1.524 . S
C1241 H1244 0.999 . S
C1242 H1212 0.950 . S
C1242 C1241 1.524 . S
C1242 C1243 1.415 . S
C1243 H1213 0.950 . S
C1243 C1238 1.363 . S
C1243 C1242 1.415 . S
H1244 C1241 0.999 . S
H1245 C1226 0.913 . S
H1246 C1264 0.951 . S
H1247 C1266 0.951 . S
H1248 C1268 0.950 . S
H1249 C1269 0.950 . S
H1250 C1271 0.950 . S
H1251 C1274 0.950 . S
H1252 C1275 0.950 . S
H1253 C1277 0.950 . S
H1254 C1278 0.950 . S
H1255 C1279 0.951 . S
H1256 C1281 0.951 . S
H1257 C1283 0.950 . S
H1258 C1284 0.950 . S
H1259 C1286 0.950 . S
H1260 C1289 0.950 . S
H1261 C1290 0.950 . S
H1262 C1292 0.950 . S
H1263 C1293 0.950 . S
C1264 H1246 0.951 . S
C1264 C1265 1.366 . S
C1264 C1266 1.388 . S
C1265 C1264 1.366 . S
C1265 C1269 1.385 . S
C1266 H1247 0.951 . S
C1266 C1264 1.388 . S
C1266 C1267 1.366 . S
C1267 C1266 1.366 . S
C1267 C1268 1.414 . S
C1267 C1270 1.499 . S
C1268 H1248 0.950 . S
C1268 C1267 1.414 . S
C1268 C1269 1.374 . S
C1269 H1249 0.950 . S
C1269 C1265 1.385 . S
C1269 C1268 1.374 . S
C1270 C1267 1.499 . S
C1270 C1271 1.373 . S
C1270 C1272 1.389 . S
C1271 H1250 0.950 . S
C1271 C1270 1.373 . S
C1271 C1287 1.377 . S
C1272 C1270 1.389 . S
C1272 C1273 1.524 . S
C1272 C1286 1.377 . S
C1273 C1272 1.524 . S
C1273 C1274 1.397 . S
C1273 C1278 1.363 . S
C1274 H1251 0.950 . S
C1274 C1273 1.397 . S
C1274 C1275 1.334 . S
C1275 H1252 0.950 . S
C1275 C1274 1.334 . S
C1275 C1276 1.287 . S
C1276 C1275 1.287 . S
C1276 C1277 1.524 . S
C1276 H1295 0.913 . S
C1277 H1253 0.950 . S
C1277 C1276 1.524 . S
C1277 C1278 1.415 . S
C1278 H1254 0.950 . S
C1278 C1273 1.363 . S
C1278 C1277 1.415 . S
C1279 H1255 0.951 . S
C1279 C1280 1.366 . S
C1279 C1281 1.388 . S
C1280 C1279 1.366 . S
C1280 C1284 1.385 . S
C1281 H1256 0.951 . S
C1281 C1279 1.388 . S
C1281 C1282 1.366 . S
C1282 C1281 1.366 . S
C1282 C1283 1.414 . S
C1282 C1285 1.499 . S
C1283 H1257 0.950 . S
C1283 C1282 1.414 . S
C1283 C1284 1.374 . S
C1284 H1258 0.950 . S
C1284 C1280 1.385 . S
C1284 C1283 1.374 . S
C1285 C1282 1.499 . S
C1285 C1286 1.373 . S
C1285 C1287 1.389 . S
C1286 H1259 0.950 . S
C1286 C1272 1.377 . S
C1286 C1285 1.373 . S
C1287 C1271 1.377 . S
C1287 C1285 1.389 . S
C1287 C1288 1.524 . S
C1288 C1287 1.524 . S
C1288 C1289 1.397 . S
C1288 C1293 1.363 . S
C1289 H1260 0.950 . S
C1289 C1288 1.397 . S
C1289 C1290 1.334 . S
C1290 H1261 0.950 . S
C1290 C1289 1.334 . S
C1290 C1291 1.287 . S
C1291 C1290 1.287 . S
C1291 C1292 1.524 . S
C1291 H1294 0.999 . S
C1292 H1262 0.950 . S
C1292 C1291 1.524 . S
C1292 C1293 1.415 . S
C1293 H1263 0.950 . S
C1293 C1288 1.363 . S
C1293 C1292 1.415 . S
H1294 C1291 0.999 . S
H1295 C1276 0.913 . S
H1296 C1314 0.951 . S
H1297 C1316 0.951 . S
H1298 C1318 0.950 . S
H1299 C1319 0.950 . S
H1300 C1321 0.950 . S
H1301 C1324 0.950 . S
H1302 C1325 0.950 . S
H1303 C1327 0.950 . S
H1304 C1328 0.950 . S
H1305 C1329 0.951 . S
H1306 C1331 0.951 . S
H1307 C1333 0.950 . S
H1308 C1334 0.950 . S
H1309 C1336 0.950 . S
H1310 C1339 0.950 . S
H1311 C1340 0.950 . S
H1312 C1342 0.950 . S
H1313 C1343 0.950 . S
C1314 H1296 0.951 . S
C1314 C1315 1.366 . S
C1314 C1316 1.388 . S
C1315 C1314 1.366 . S
C1315 C1319 1.385 . S
C1316 H1297 0.951 . S
C1316 C1314 1.388 . S
C1316 C1317 1.366 . S
C1317 C1316 1.366 . S
C1317 C1318 1.414 . S
C1317 C1320 1.499 . S
C1318 H1298 0.950 . S
C1318 C1317 1.414 . S
C1318 C1319 1.374 . S
C1319 H1299 0.950 . S
C1319 C1315 1.385 . S
C1319 C1318 1.374 . S
C1320 C1317 1.499 . S
C1320 C1321 1.373 . S
C1320 C1322 1.389 . S
C1321 H1300 0.950 . S
C1321 C1320 1.373 . S
C1321 C1337 1.377 . S
C1322 C1320 1.389 . S
C1322 C1323 1.524 . S
C1322 C1336 1.377 . S
C1323 C1322 1.524 . S
C1323 C1324 1.397 . S
C1323 C1328 1.363 . S
C1324 H1301 0.950 . S
C1324 C1323 1.397 . S
C1324 C1325 1.334 . S
C1325 H1302 0.950 . S
C1325 C1324 1.334 . S
C1325 C1326 1.287 . S
C1326 C1325 1.287 . S
C1326 C1327 1.524 . S
C1326 H1345 0.913 . S
C1327 H1303 0.950 . S
C1327 C1326 1.524 . S
C1327 C1328 1.415 . S
C1328 H1304 0.950 . S
C1328 C1323 1.363 . S
C1328 C1327 1.415 . S
C1329 H1305 0.951 . S
C1329 C1330 1.366 . S
C1329 C1331 1.388 . S
C1330 C1329 1.366 . S
C1330 C1334 1.385 . S
C1331 H1306 0.951 . S
C1331 C1329 1.388 . S
C1331 C1332 1.366 . S
C1332 C1331 1.366 . S
C1332 C1333 1.414 . S
C1332 C1335 1.499 . S
C1333 H1307 0.950 . S
C1333 C1332 1.414 . S
C1333 C1334 1.374 . S
C1334 H1308 0.950 . S
C1334 C1330 1.385 . S
C1334 C1333 1.374 . S
C1335 C1332 1.499 . S
C1335 C1336 1.373 . S
C1335 C1337 1.389 . S
C1336 H1309 0.950 . S
C1336 C1322 1.377 . S
C1336 C1335 1.373 . S
C1337 C1321 1.377 . S
C1337 C1335 1.389 . S
C1337 C1338 1.524 . S
C1338 C1337 1.524 . S
C1338 C1339 1.397 . S
C1338 C1343 1.363 . S
C1339 H1310 0.950 . S
C1339 C1338 1.397 . S
C1339 C1340 1.334 . S
C1340 H1311 0.950 . S
C1340 C1339 1.334 . S
C1340 C1341 1.287 . S
C1341 C1340 1.287 . S
C1341 C1342 1.524 . S
C1341 H1344 0.999 . S
C1342 H1312 0.950 . S
C1342 C1341 1.524 . S
C1342 C1343 1.415 . S
C1343 H1313 0.950 . S
C1343 C1338 1.363 . S
C1343 C1342 1.415 . S
H1344 C1341 0.999 . S
H1345 C1326 0.913 . S
H1346 C1364 0.951 . S
H1347 C1366 0.951 . S
H1348 C1368 0.950 . S
H1349 C1369 0.950 . S
H1350 C1371 0.950 . S
H1351 C1374 0.950 . S
H1352 C1375 0.950 . S
H1353 C1377 0.950 . S
H1354 C1378 0.950 . S
H1355 C1379 0.951 . S
H1356 C1381 0.951 . S
H1357 C1383 0.950 . S
H1358 C1384 0.950 . S
H1359 C1386 0.950 . S
H1360 C1389 0.950 . S
H1361 C1390 0.950 . S
H1362 C1392 0.950 . S
H1363 C1393 0.950 . S
C1364 H1346 0.951 . S
C1364 C1365 1.366 . S
C1364 C1366 1.388 . S
C1365 C1364 1.366 . S
C1365 C1369 1.385 . S
C1366 H1347 0.951 . S
C1366 C1364 1.388 . S
C1366 C1367 1.366 . S
C1367 C1366 1.366 . S
C1367 C1368 1.414 . S
C1367 C1370 1.499 . S
C1368 H1348 0.950 . S
C1368 C1367 1.414 . S
C1368 C1369 1.374 . S
C1369 H1349 0.950 . S
C1369 C1365 1.385 . S
C1369 C1368 1.374 . S
C1370 C1367 1.499 . S
C1370 C1371 1.373 . S
C1370 C1372 1.389 . S
C1371 H1350 0.950 . S
C1371 C1370 1.373 . S
C1371 C1387 1.377 . S
C1372 C1370 1.389 . S
C1372 C1373 1.524 . S
C1372 C1386 1.377 . S
C1373 C1372 1.524 . S
C1373 C1374 1.397 . S
C1373 C1378 1.363 . S
C1374 H1351 0.950 . S
C1374 C1373 1.397 . S
C1374 C1375 1.334 . S
C1375 H1352 0.950 . S
C1375 C1374 1.334 . S
C1375 C1376 1.287 . S
C1376 C1375 1.287 . S
C1376 C1377 1.524 . S
C1376 H1395 0.913 . S
C1377 H1353 0.950 . S
C1377 C1376 1.524 . S
C1377 C1378 1.415 . S
C1378 H1354 0.950 . S
C1378 C1373 1.363 . S
C1378 C1377 1.415 . S
C1379 H1355 0.951 . S
C1379 C1380 1.366 . S
C1379 C1381 1.388 . S
C1380 C1379 1.366 . S
C1380 C1384 1.385 . S
C1381 H1356 0.951 . S
C1381 C1379 1.388 . S
C1381 C1382 1.366 . S
C1382 C1381 1.366 . S
C1382 C1383 1.414 . S
C1382 C1385 1.499 . S
C1383 H1357 0.950 . S
C1383 C1382 1.414 . S
C1383 C1384 1.374 . S
C1384 H1358 0.950 . S
C1384 C1380 1.385 . S
C1384 C1383 1.374 . S
C1385 C1382 1.499 . S
C1385 C1386 1.373 . S
C1385 C1387 1.389 . S
C1386 H1359 0.950 . S
C1386 C1372 1.377 . S
C1386 C1385 1.373 . S
C1387 C1371 1.377 . S
C1387 C1385 1.389 . S
C1387 C1388 1.524 . S
C1388 C1387 1.524 . S
C1388 C1389 1.397 . S
C1388 C1393 1.363 . S
C1389 H1360 0.950 . S
C1389 C1388 1.397 . S
C1389 C1390 1.334 . S
C1390 H1361 0.950 . S
C1390 C1389 1.334 . S
C1390 C1391 1.287 . S
C1391 C1390 1.287 . S
C1391 C1392 1.524 . S
C1391 H1394 0.999 . S
C1392 H1362 0.950 . S
C1392 C1391 1.524 . S
C1392 C1393 1.415 . S
C1393 H1363 0.950 . S
C1393 C1388 1.363 . S
C1393 C1392 1.415 . S
H1394 C1391 0.999 . S
H1395 C1376 0.913 . S
H1396 C1414 0.951 . S
H1397 C1416 0.951 . S
H1398 C1418 0.950 . S
H1399 C1419 0.950 . S
H1400 C1421 0.950 . S
H1401 C1424 0.950 . S
H1402 C1425 0.950 . S
H1403 C1427 0.950 . S
H1404 C1428 0.950 . S
H1405 C1429 0.951 . S
H1406 C1431 0.951 . S
H1407 C1433 0.950 . S
H1408 C1434 0.950 . S
H1409 C1436 0.950 . S
H1410 C1439 0.950 . S
H1411 C1440 0.950 . S
H1412 C1442 0.950 . S
H1413 C1443 0.950 . S
C1414 H1396 0.951 . S
C1414 C1415 1.366 . S
C1414 C1416 1.388 . S
C1415 C1414 1.366 . S
C1415 C1419 1.385 . S
C1416 H1397 0.951 . S
C1416 C1414 1.388 . S
C1416 C1417 1.366 . S
C1417 C1416 1.366 . S
C1417 C1418 1.414 . S
C1417 C1420 1.499 . S
C1418 H1398 0.950 . S
C1418 C1417 1.414 . S
C1418 C1419 1.374 . S
C1419 H1399 0.950 . S
C1419 C1415 1.385 . S
C1419 C1418 1.374 . S
C1420 C1417 1.499 . S
C1420 C1421 1.373 . S
C1420 C1422 1.389 . S
C1421 H1400 0.950 . S
C1421 C1420 1.373 . S
C1421 C1437 1.377 . S
C1422 C1420 1.389 . S
C1422 C1423 1.524 . S
C1422 C1436 1.377 . S
C1423 C1422 1.524 . S
C1423 C1424 1.397 . S
C1423 C1428 1.363 . S
C1424 H1401 0.950 . S
C1424 C1423 1.397 . S
C1424 C1425 1.334 . S
C1425 H1402 0.950 . S
C1425 C1424 1.334 . S
C1425 C1426 1.287 . S
C1426 C1425 1.287 . S
C1426 C1427 1.524 . S
C1426 H1445 0.913 . S
C1427 H1403 0.950 . S
C1427 C1426 1.524 . S
C1427 C1428 1.415 . S
C1428 H1404 0.950 . S
C1428 C1423 1.363 . S
C1428 C1427 1.415 . S
C1429 H1405 0.951 . S
C1429 C1430 1.366 . S
C1429 C1431 1.388 . S
C1430 C1429 1.366 . S
C1430 C1434 1.385 . S
C1431 H1406 0.951 . S
C1431 C1429 1.388 . S
C1431 C1432 1.366 . S
C1432 C1431 1.366 . S
C1432 C1433 1.414 . S
C1432 C1435 1.499 . S
C1433 H1407 0.950 . S
C1433 C1432 1.414 . S
C1433 C1434 1.374 . S
C1434 H1408 0.950 . S
C1434 C1430 1.385 . S
C1434 C1433 1.374 . S
C1435 C1432 1.499 . S
C1435 C1436 1.373 . S
C1435 C1437 1.389 . S
C1436 H1409 0.950 . S
C1436 C1422 1.377 . S
C1436 C1435 1.373 . S
C1437 C1421 1.377 . S
C1437 C1435 1.389 . S
C1437 C1438 1.524 . S
C1438 C1437 1.524 . S
C1438 C1439 1.397 . S
C1438 C1443 1.363 . S
C1439 H1410 0.950 . S
C1439 C1438 1.397 . S
C1439 C1440 1.334 . S
C1440 H1411 0.950 . S
C1440 C1439 1.334 . S
C1440 C1441 1.287 . S
C1441 C1440 1.287 . S
C1441 C1442 1.524 . S
C1441 H1444 0.999 . S
C1442 H1412 0.950 . S
C1442 C1441 1.524 . S
C1442 C1443 1.415 . S
C1443 H1413 0.950 . S
C1443 C1438 1.363 . S
C1443 C1442 1.415 . S
H1444 C1441 0.999 . S
H1445 C1426 0.913 . S
H1446 C1464 0.951 . S
H1447 C1466 0.951 . S
H1448 C1468 0.950 . S
H1449 C1469 0.950 . S
H1450 C1471 0.950 . S
H1451 C1474 0.950 . S
H1452 C1475 0.950 . S
H1453 C1477 0.950 . S
H1454 C1478 0.950 . S
H1455 C1479 0.951 . S
H1456 C1481 0.951 . S
H1457 C1483 0.950 . S
H1458 C1484 0.950 . S
H1459 C1486 0.950 . S
H1460 C1489 0.950 . S
H1461 C1490 0.950 . S
H1462 C1492 0.950 . S
H1463 C1493 0.950 . S
C1464 H1446 0.951 . S
C1464 C1465 1.366 . S
C1464 C1466 1.388 . S
C1465 C1464 1.366 . S
C1465 C1469 1.385 . S
C1466 H1447 0.951 . S
C1466 C1464 1.388 . S
C1466 C1467 1.366 . S
C1467 C1466 1.366 . S
C1467 C1468 1.414 . S
C1467 C1470 1.499 . S
C1468 H1448 0.950 . S
C1468 C1467 1.414 . S
C1468 C1469 1.374 . S
C1469 H1449 0.950 . S
C1469 C1465 1.385 . S
C1469 C1468 1.374 . S
C1470 C1467 1.499 . S
C1470 C1471 1.373 . S
C1470 C1472 1.389 . S
C1471 H1450 0.950 . S
C1471 C1470 1.373 . S
C1471 C1487 1.377 . S
C1472 C1470 1.389 . S
C1472 C1473 1.524 . S
C1472 C1486 1.377 . S
C1473 C1472 1.524 . S
C1473 C1474 1.397 . S
C1473 C1478 1.363 . S
C1474 H1451 0.950 . S
C1474 C1473 1.397 . S
C1474 C1475 1.334 . S
C1475 H1452 0.950 . S
C1475 C1474 1.334 . S
C1475 C1476 1.287 . S
C1476 C1475 1.287 . S
C1476 C1477 1.524 . S
C1476 H1495 0.913 . S
C1477 H1453 0.950 . S
C1477 C1476 1.524 . S
C1477 C1478 1.415 . S
C1478 H1454 0.950 . S
C1478 C1473 1.363 . S
C1478 C1477 1.415 . S
C1479 H1455 0.951 . S
C1479 C1480 1.366 . S
C1479 C1481 1.388 . S
C1480 C1479 1.366 . S
C1480 C1484 1.385 . S
C1481 H1456 0.951 . S
C1481 C1479 1.388 . S
C1481 C1482 1.366 . S
C1482 C1481 1.366 . S
C1482 C1483 1.414 . S
C1482 C1485 1.499 . S
C1483 H1457 0.950 . S
C1483 C1482 1.414 . S
C1483 C1484 1.374 . S
C1484 H1458 0.950 . S
C1484 C1480 1.385 . S
C1484 C1483 1.374 . S
C1485 C1482 1.499 . S
C1485 C1486 1.373 . S
C1485 C1487 1.389 . S
C1486 H1459 0.950 . S
C1486 C1472 1.377 . S
C1486 C1485 1.373 . S
C1487 C1471 1.377 . S
C1487 C1485 1.389 . S
C1487 C1488 1.524 . S
C1488 C1487 1.524 . S
C1488 C1489 1.397 . S
C1488 C1493 1.363 . S
C1489 H1460 0.950 . S
C1489 C1488 1.397 . S
C1489 C1490 1.334 . S
C1490 H1461 0.950 . S
C1490 C1489 1.334 . S
C1490 C1491 1.287 . S
C1491 C1490 1.287 . S
C1491 C1492 1.524 . S
C1491 H1494 0.999 . S
C1492 H1462 0.950 . S
C1492 C1491 1.524 . S
C1492 C1493 1.415 . S
C1493 H1463 0.950 . S
C1493 C1488 1.363 . S
C1493 C1492 1.415 . S
H1494 C1491 0.999 . S
H1495 C1476 0.913 . S
H1496 C1514 0.951 . S
H1497 C1516 0.951 . S
H1498 C1518 0.950 . S
H1499 C1519 0.950 . S
H1500 C1521 0.950 . S
H1501 C1524 0.950 . S
H1502 C1525 0.950 . S
H1503 C1527 0.950 . S
H1504 C1528 0.950 . S
H1505 C1529 0.951 . S
H1506 C1531 0.951 . S
H1507 C1533 0.950 . S
H1508 C1534 0.950 . S
H1509 C1536 0.950 . S
H1510 C1539 0.950 . S
H1511 C1540 0.950 . S
H1512 C1542 0.950 . S
H1513 C1543 0.950 . S
C1514 H1496 0.951 . S
C1514 C1515 1.366 . S
C1514 C1516 1.388 . S
C1515 C1514 1.366 . S
C1515 C1519 1.385 . S
C1516 H1497 0.951 . S
C1516 C1514 1.388 . S
C1516 C1517 1.366 . S
C1517 C1516 1.366 . S
C1517 C1518 1.414 . S
C1517 C1520 1.499 . S
C1518 H1498 0.950 . S
C1518 C1517 1.414 . S
C1518 C1519 1.374 . S
C1519 H1499 0.950 . S
C1519 C1515 1.385 . S
C1519 C1518 1.374 . S
C1520 C1517 1.499 . S
C1520 C1521 1.373 . S
C1520 C1522 1.389 . S
C1521 H1500 0.950 . S
C1521 C1520 1.373 . S
C1521 C1537 1.377 . S
C1522 C1520 1.389 . S
C1522 C1523 1.524 . S
C1522 C1536 1.377 . S
C1523 C1522 1.524 . S
C1523 C1524 1.397 . S
C1523 C1528 1.363 . S
C1524 H1501 0.950 . S
C1524 C1523 1.397 . S
C1524 C1525 1.334 . S
C1525 H1502 0.950 . S
C1525 C1524 1.334 . S
C1525 C1526 1.287 . S
C1526 C1525 1.287 . S
C1526 C1527 1.524 . S
C1526 H1545 0.913 . S
C1527 H1503 0.950 . S
C1527 C1526 1.524 . S
C1527 C1528 1.415 . S
C1528 H1504 0.950 . S
C1528 C1523 1.363 . S
C1528 C1527 1.415 . S
C1529 H1505 0.951 . S
C1529 C1530 1.366 . S
C1529 C1531 1.388 . S
C1530 C1529 1.366 . S
C1530 C1534 1.385 . S
C1531 H1506 0.951 . S
C1531 C1529 1.388 . S
C1531 C1532 1.366 . S
C1532 C1531 1.366 . S
C1532 C1533 1.414 . S
C1532 C1535 1.499 . S
C1533 H1507 0.950 . S
C1533 C1532 1.414 . S
C1533 C1534 1.374 . S
C1534 H1508 0.950 . S
C1534 C1530 1.385 . S
C1534 C1533 1.374 . S
C1535 C1532 1.499 . S
C1535 C1536 1.373 . S
C1535 C1537 1.389 . S
C1536 H1509 0.950 . S
C1536 C1522 1.377 . S
C1536 C1535 1.373 . S
C1537 C1521 1.377 . S
C1537 C1535 1.389 . S
C1537 C1538 1.524 . S
C1538 C1537 1.524 . S
C1538 C1539 1.397 . S
C1538 C1543 1.363 . S
C1539 H1510 0.950 . S
C1539 C1538 1.397 . S
C1539 C1540 1.334 . S
C1540 H1511 0.950 . S
C1540 C1539 1.334 . S
C1540 C1541 1.287 . S
C1541 C1540 1.287 . S
C1541 C1542 1.524 . S
C1541 H1544 0.999 . S
C1542 H1512 0.950 . S
C1542 C1541 1.524 . S
C1542 C1543 1.415 . S
C1543 H1513 0.950 . S
C1543 C1538 1.363 . S
C1543 C1542 1.415 . S
H1544 C1541 0.999 . S
H1545 C1526 0.913 . S
H1546 C1564 0.951 . S
H1547 C1566 0.951 . S
H1548 C1568 0.950 . S
H1549 C1569 0.950 . S
H1550 C1571 0.950 . S
H1551 C1574 0.950 . S
H1552 C1575 0.950 . S
H1553 C1577 0.950 . S
H1554 C1578 0.950 . S
H1555 C1579 0.951 . S
H1556 C1581 0.951 . S
H1557 C1583 0.950 . S
H1558 C1584 0.950 . S
H1559 C1586 0.950 . S
H1560 C1589 0.950 . S
H1561 C1590 0.950 . S
H1562 C1592 0.950 . S
H1563 C1593 0.950 . S
C1564 H1546 0.951 . S
C1564 C1565 1.366 . S
C1564 C1566 1.388 . S
C1565 C1564 1.366 . S
C1565 C1569 1.385 . S
C1566 H1547 0.951 . S
C1566 C1564 1.388 . S
C1566 C1567 1.366 . S
C1567 C1566 1.366 . S
C1567 C1568 1.414 . S
C1567 C1570 1.499 . S
C1568 H1548 0.950 . S
C1568 C1567 1.414 . S
C1568 C1569 1.374 . S
C1569 H1549 0.950 . S
C1569 C1565 1.385 . S
C1569 C1568 1.374 . S
C1570 C1567 1.499 . S
C1570 C1571 1.373 . S
C1570 C1572 1.389 . S
C1571 H1550 0.950 . S
C1571 C1570 1.373 . S
C1571 C1587 1.377 . S
C1572 C1570 1.389 . S
C1572 C1573 1.524 . S
C1572 C1586 1.377 . S
C1573 C1572 1.524 . S
C1573 C1574 1.397 . S
C1573 C1578 1.363 . S
C1574 H1551 0.950 . S
C1574 C1573 1.397 . S
C1574 C1575 1.334 . S
C1575 H1552 0.950 . S
C1575 C1574 1.334 . S
C1575 C1576 1.287 . S
C1576 C1575 1.287 . S
C1576 C1577 1.524 . S
C1576 H1595 0.913 . S
C1577 H1553 0.950 . S
C1577 C1576 1.524 . S
C1577 C1578 1.415 . S
C1578 H1554 0.950 . S
C1578 C1573 1.363 . S
C1578 C1577 1.415 . S
C1579 H1555 0.951 . S
C1579 C1580 1.366 . S
C1579 C1581 1.388 . S
C1580 C1579 1.366 . S
C1580 C1584 1.385 . S
C1581 H1556 0.951 . S
C1581 C1579 1.388 . S
C1581 C1582 1.366 . S
C1582 C1581 1.366 . S
C1582 C1583 1.414 . S
C1582 C1585 1.499 . S
C1583 H1557 0.950 . S
C1583 C1582 1.414 . S
C1583 C1584 1.374 . S
C1584 H1558 0.950 . S
C1584 C1580 1.385 . S
C1584 C1583 1.374 . S
C1585 C1582 1.499 . S
C1585 C1586 1.373 . S
C1585 C1587 1.389 . S
C1586 H1559 0.950 . S
C1586 C1572 1.377 . S
C1586 C1585 1.373 . S
C1587 C1571 1.377 . S
C1587 C1585 1.389 . S
C1587 C1588 1.524 . S
C1588 C1587 1.524 . S
C1588 C1589 1.397 . S
C1588 C1593 1.363 . S
C1589 H1560 0.950 . S
C1589 C1588 1.397 . S
C1589 C1590 1.334 . S
C1590 H1561 0.950 . S
C1590 C1589 1.334 . S
C1590 C1591 1.287 . S
C1591 C1590 1.287 . S
C1591 C1592 1.524 . S
C1591 H1594 0.999 . S
C1592 H1562 0.950 . S
C1592 C1591 1.524 . S
C1592 C1593 1.415 . S
C1593 H1563 0.950 . S
C1593 C1588 1.363 . S
C1593 C1592 1.415 . S
H1594 C1591 0.999 . S
H1595 C1576 0.913 . S
C430 C324 1.518 . S
C415 C16 1.519 . S
C480 C327 1.501 . S
C465 C55 1.503 . S
C530 C325 1.510 . S
C515 C99 1.512 . S
C580 C326 1.499 . S
C565 C138 1.499 . S
C630 C341 1.511 . S
C615 C1 1.513 . S
C680 C355 1.503 . S
C665 C40 1.506 . S
C715 C94 1.507 . S
C730 C381 1.506 . S
C780 C395 1.503 . S
C765 C133 1.505 . S
C830 C340 1.500 . S
C815 C60 1.500 . S
C865 C79 1.513 . S
C880 C354 1.511 . S
C930 C380 1.499 . S
C915 C118 1.500 . S
C980 C394 1.511 . S
C965 C21 1.513 . S
C1015 C177 1.503 . S
C1030 C339 1.501 . S
C1080 C312 1.511 . S
C1065 C211 1.512 . S
C1115 C255 1.501 . S
C1130 C338 1.500 . S
C1165 C289 1.517 . S
C1180 C313 1.515 . S
C1230 C368 1.500 . S
C1215 C157 1.501 . S
C1280 C382 1.510 . S
C1265 C196 1.513 . S
C1330 C352 1.503 . S
C1315 C250 1.505 . S
C1365 C294 1.509 . S
C1380 C366 1.507 . S
C1430 C369 1.503 . S
C1415 C216 1.504 . S
C1480 C383 1.504 . S
C1465 C235 1.506 . S
C1530 C353 1.510 . S
C1515 C274 1.511 . S
C1565 C172 1.509 . S
C1580 C367 1.507 . S
