# Generated by pormake.
# Topology zzz, (3,6)-cn, num edge types: 1
# Building blocks:
#     Node 0, Type 0, BuildingBlock: QEWDON_clean_linker_0, # of connection points: 3
#     Node 1, Type 0, BuildingBlock: QEWDON_clean_linker_0, # of connection points: 3
#     Node 2, Type 0, BuildingBlock: QEWDON_clean_linker_0, # of connection points: 3
#     Node 3, Type 0, BuildingBlock: QEWDON_clean_linker_0, # of connection points: 3
#     Node 4, Type 0, BuildingBlock: QEWDON_clean_linker_0, # of connection points: 3
#     Node 5, Type 0, BuildingBlock: QEWDON_clean_linker_0, # of connection points: 3
#     Node 6, Type 0, BuildingBlock: QEWDON_clean_linker_0, # of connection points: 3
#     Node 7, Type 0, BuildingBlock: QEWDON_clean_linker_0, # of connection points: 3
#     Node 8, Type 1, BuildingBlock: BETDIP_clean_sbu_0, # of connection points: 6
#     Node 9, Type 1, BuildingBlock: BETDIP_clean_sbu_0, # of connection points: 6
#     Node 10, Type 1, BuildingBlock: BETDIP_clean_sbu_0, # of connection points: 6
#     Node 11, Type 1, BuildingBlock: BETDIP_clean_sbu_0, # of connection points: 6
#     Edge 12, Type (0, 1), BuildingBlock: UVAHIK_clean_linker_0, # of connection points: 2
#     Edge 13, Type (0, 1), BuildingBlock: UVAHIK_clean_linker_0, # of connection points: 2
#     Edge 14, Type (0, 1), BuildingBlock: UVAHIK_clean_linker_0, # of connection points: 2
#     Edge 15, Type (0, 1), BuildingBlock: UVAHIK_clean_linker_0, # of connection points: 2
#     Edge 16, Type (0, 1), BuildingBlock: UVAHIK_clean_linker_0, # of connection points: 2
#     Edge 17, Type (0, 1), BuildingBlock: UVAHIK_clean_linker_0, # of connection points: 2
#     Edge 18, Type (0, 1), BuildingBlock: UVAHIK_clean_linker_0, # of connection points: 2
#     Edge 19, Type (0, 1), BuildingBlock: UVAHIK_clean_linker_0, # of connection points: 2
#     Edge 20, Type (0, 1), BuildingBlock: UVAHIK_clean_linker_0, # of connection points: 2
#     Edge 21, Type (0, 1), BuildingBlock: UVAHIK_clean_linker_0, # of connection points: 2
#     Edge 22, Type (0, 1), BuildingBlock: UVAHIK_clean_linker_0, # of connection points: 2
#     Edge 23, Type (0, 1), BuildingBlock: UVAHIK_clean_linker_0, # of connection points: 2
#     Edge 24, Type (0, 1), BuildingBlock: UVAHIK_clean_linker_0, # of connection points: 2
#     Edge 25, Type (0, 1), BuildingBlock: UVAHIK_clean_linker_0, # of connection points: 2
#     Edge 26, Type (0, 1), BuildingBlock: UVAHIK_clean_linker_0, # of connection points: 2
#     Edge 27, Type (0, 1), BuildingBlock: UVAHIK_clean_linker_0, # of connection points: 2
#     Edge 28, Type (0, 1), BuildingBlock: UVAHIK_clean_linker_0, # of connection points: 2
#     Edge 29, Type (0, 1), BuildingBlock: UVAHIK_clean_linker_0, # of connection points: 2
#     Edge 30, Type (0, 1), BuildingBlock: UVAHIK_clean_linker_0, # of connection points: 2
#     Edge 31, Type (0, 1), BuildingBlock: UVAHIK_clean_linker_0, # of connection points: 2
#     Edge 32, Type (0, 1), BuildingBlock: UVAHIK_clean_linker_0, # of connection points: 2
#     Edge 33, Type (0, 1), BuildingBlock: UVAHIK_clean_linker_0, # of connection points: 2
#     Edge 34, Type (0, 1), BuildingBlock: UVAHIK_clean_linker_0, # of connection points: 2
#     Edge 35, Type (0, 1), BuildingBlock: UVAHIK_clean_linker_0, # of connection points: 2
# Relax obj value: 0.133
# Max RMSD: 0.138
# Mean RMSD: 0.106
data_MOF--net-zzz--node1-BETDIP_clean_sbu_0--node2-QEWDON_clean_linker_0--edge1-UVAHIK_clean_linker_0
_symmetry_space_group_name_H-M    P1
_symmetry_Int_Tables_number       1
_symmetry_cell_setting            triclinic
loop_
_symmetry_equiv_pos_as_xyz
'x, y, z'
_cell_length_a     71.19728
_cell_length_b     71.239429
_cell_length_c     16.663149
_cell_angle_alpha  89.911759
_cell_angle_beta   90.050971
_cell_angle_gamma 90.013208
loop_
_atom_site_label
_atom_site_type_symbol
_atom_site_fract_x
_atom_site_fract_y
_atom_site_fract_z
_atom_type_partial_charge
H0 H 0.75471 0.51321 0.18747 0.0
C1 C 0.76522 0.51371 0.23416 0.0
C2 C 0.78311 0.50682 0.21583 0.0
C3 C 0.76121 0.52156 0.31018 0.0
H4 H 0.81171 0.50429 0.25628 0.0
C5 C 0.7976 0.5087 0.272 0.0
C6 C 0.79451 0.51714 0.34646 0.0
C7 C 0.77618 0.52289 0.36681 0.0
C8 C 0.74185 0.52931 0.32723 0.0
H9 H 0.77397 0.52883 0.42568 0.0
C10 C 0.72594 0.52367 0.28164 0.0
C11 C 0.70824 0.53221 0.29221 0.0
C12 C 0.73916 0.54323 0.38625 0.0
H13 H 0.75071 0.54865 0.42135 0.0
C14 C 0.72145 0.55103 0.39958 0.0
H15 H 0.727 0.51264 0.23748 0.0
C16 C 0.70612 0.54568 0.35278 0.0
H17 H 0.69275 0.55258 0.36222 0.0
H18 H 0.71971 0.56173 0.44504 0.0
H19 H 1.01375 0.7532 0.17027 0.0
C20 C 1.01293 0.76391 0.21596 0.0
C21 C 1.01673 0.78237 0.19267 0.0
C22 C 1.00744 0.75965 0.29559 0.0
H23 H 0.01738 0.81129 0.22869 0.0
C24 C 1.01458 0.79697 0.24757 0.0
C25 C 1.0091 0.79345 0.32656 0.0
C26 C 1.00607 0.77477 0.35132 0.0
C27 C 1.00226 0.73976 0.3183 0.0
H28 H 1.00238 0.77232 0.41335 0.0
C29 C 1.00826 0.72415 0.27191 0.0
C30 C 1.00193 0.70578 0.2887 0.0
C31 C 0.9903 0.73617 0.38408 0.0
H32 H 0.98466 0.74739 0.4203 0.0
C33 C 0.98476 0.71791 0.40314 0.0
H34 H 0.01786 0.72597 0.22237 0.0
C35 C 0.99041 0.70283 0.35576 0.0
H36 H 0.98522 0.68893 0.37008 0.0
H37 H 0.97554 0.71549 0.45375 0.0
H38 H 0.7849 1.00688 0.18308 0.0
C39 C 0.77387 1.00764 0.22745 0.0
C40 C 0.75535 1.00739 0.19977 0.0
C41 C 0.77792 1.00805 0.31053 0.0
H42 H 0.72622 1.00683 0.23232 0.0
C43 C 0.74055 1.007 0.25459 0.0
C44 C 0.74384 1.00715 0.33736 0.0
C45 C 0.76253 1.00825 0.36529 0.0
C46 C 0.79807 1.00712 0.3387 0.0
H47 H 0.76487 1.00889 0.42934 0.0
C48 C 0.81319 1.01233 0.28766 0.0
C49 C 0.83207 1.00934 0.31021 0.0
C50 C 0.80255 0.99977 0.41497 0.0
H51 H 0.79178 0.995 0.45584 0.0
C52 C 0.82121 0.9977 0.43918 0.0
H53 H 0.81052 0.01869 0.22985 0.0
C54 C 0.83586 1.00227 0.38721 0.0
H55 H 0.85015 0.99964 0.40646 0.0
H56 H 0.82434 0.99194 0.49783 0.0
H57 H 0.52209 0.78065 0.17504 0.0
C58 C 0.52308 0.77013 0.22163 0.0
C59 C 0.51863 0.75167 0.20084 0.0
C60 C 0.52947 0.77461 0.29981 0.0
H61 H 0.51785 0.7229 0.23944 0.0
C62 C 0.521 0.73725 0.25665 0.0
C63 C 0.52737 0.74099 0.33417 0.0
C64 C 0.53108 0.75968 0.3566 0.0
C65 C 0.53533 0.79446 0.31973 0.0
H66 H 0.53552 0.76228 0.41763 0.0
C67 C 0.52929 0.81003 0.27283 0.0
C68 C 0.53614 0.8283 0.28718 0.0
C69 C 0.54794 0.79804 0.38332 0.0
H70 H 0.55366 0.78685 0.41966 0.0
C71 C 0.55404 0.81624 0.39996 0.0
H72 H 0.51924 0.80824 0.22484 0.0
C73 C 0.54829 0.83125 0.35222 0.0
H74 H 0.55388 0.8451 0.3646 0.0
H75 H 0.56374 0.81865 0.44893 0.0
H76 H 0.2865 0.5107 0.20012 0.0
C77 C 0.27632 0.50968 0.15207 0.0
C78 C 0.25837 0.50283 0.1701 0.0
C79 C 0.28088 0.51603 0.07425 0.0
H80 H 0.23056 0.49778 0.12339 0.0
C81 C 0.24475 0.50223 0.10933 0.0
C82 C 0.24861 0.50876 0.03193 0.0
C83 C 0.26671 0.51561 0.0142 0.0
C84 C 0.29994 0.52436 0.05911 0.0
H85 H 0.26959 0.52057 0.95403 0.0
C86 C 0.31584 0.51845 0.10376 0.0
C87 C 0.33321 0.52795 0.09816 0.0
C88 C 0.30214 0.53933 0.00473 0.0
H89 H 0.29037 0.54466 0.97049 0.0
C90 C 0.31946 0.54827 0.99621 0.0
H91 H 0.31473 0.50649 0.14357 0.0
C92 C 0.33479 0.54284 0.04302 0.0
H93 H 0.34771 0.55074 0.03753 0.0
H94 H 0.32086 0.55991 0.9548 0.0
H95 H 1.01234 0.2835 0.213 0.0
C96 C 1.0155 0.27272 0.16944 0.0
C97 C 1.0152 0.254 0.19511 0.0
C98 C 0.0194 0.27732 0.08858 0.0
H99 H 1.01657 0.22508 0.15858 0.0
C100 C 0.01772 0.23959 0.1393 0.0
C101 C 0.0208 0.24353 0.05832 0.0
C102 C 0.02228 0.26236 0.03332 0.0
C103 C 0.0194 0.29756 0.06197 0.0
H104 H 0.02526 0.26512 0.97077 0.0
C105 C 0.02309 0.31242 0.1166 0.0
C106 C 0.02158 0.33142 0.09287 0.0
C107 C 1.01477 0.30231 0.98224 0.0
H108 H 1.01117 0.29171 0.93852 0.0
C109 C 1.01412 0.32101 0.95759 0.0
H110 H 0.02678 0.30935 0.17813 0.0
C111 C 0.01745 0.33543 0.01213 0.0
H112 H 1.01671 0.34978 0.99086 0.0
H113 H 1.01066 0.32436 0.89593 0.0
H114 H 0.25083 0.02272 0.19043 0.0
C115 C 0.26119 0.02389 0.14322 0.0
C116 C 0.27909 0.0306 0.16304 0.0
C117 C 0.2569 0.0179 0.06464 0.0
H118 H 0.30711 0.03571 0.11888 0.0
C119 C 0.29296 0.03137 0.10342 0.0
C120 C 0.28938 0.02517 0.02536 0.0
C121 C 0.27132 0.01849 0.00576 0.0
C122 C 0.23784 1.00978 0.04738 0.0
H123 H 0.26866 1.0138 0.94506 0.0
C124 C 0.22179 1.01562 0.09114 0.0
C125 C 0.20436 1.00632 0.08322 0.0
C126 C 0.23574 0.99512 0.99163 0.0
H127 H 0.2476 0.98986 0.95798 0.0
C128 C 0.21837 0.98639 0.98088 0.0
H129 H 0.22284 0.02736 0.132 0.0
C130 C 0.20288 0.99173 0.02675 0.0
H131 H 0.18992 0.98398 0.01947 0.0
H132 H 0.21705 0.97498 0.93843 0.0
H133 H 0.50396 0.25267 0.20531 0.0
C134 C 0.50363 0.26207 0.15417 0.0
C135 C 0.49289 0.27846 0.15956 0.0
C136 C 0.51463 0.25837 0.08566 0.0
H137 H 0.48573 0.30465 0.10335 0.0
C138 C 0.49323 0.29149 0.09664 0.0
C139 C 0.50473 0.2888 0.02958 0.0
C140 C 0.51523 0.27207 0.02366 0.0
C141 C 0.52642 0.24091 0.0828 0.0
H142 H 0.52388 0.26994 0.97108 0.0
C143 C 0.52071 0.22425 0.12257 0.0
C144 C 0.53248 0.2083 0.12568 0.0
C145 C 0.54398 0.24104 0.04406 0.0
H146 H 0.54923 0.25354 0.01477 0.0
C147 C 0.55544 0.22516 0.04498 0.0
H148 H 0.50707 0.22357 0.15104 0.0
C149 C 0.54985 0.20899 0.08572 0.0
H150 H 0.55942 0.19718 0.08767 0.0
H151 H 0.56898 0.22554 0.01546 0.0
Tb152 Tb 0.0285 1.01281 0.765 0.0
Tb153 Tb 1.00794 0.02401 0.62253 0.0
C154 C 0.03938 0.99519 0.88701 0.0
C155 C 0.044 0.97514 0.89705 0.0
C156 C 0.03167 0.96122 0.86889 0.0
C157 C 0.03724 0.94249 0.86693 0.0
C158 C 0.05518 0.93725 0.89365 0.0
C159 C 0.06721 0.95096 0.9256 0.0
C160 C 0.06169 0.96982 0.92674 0.0
C161 C 0.05036 0.02292 0.64436 0.0
C162 C 1.01578 0.98177 0.635 0.0
C163 C 0.99612 0.04219 0.50426 0.0
C164 C 0.98856 0.06137 0.50452 0.0
C165 C 0.99145 0.07325 0.43878 0.0
C166 C 0.9866 0.09222 0.44382 0.0
C167 C 0.97884 0.0996 0.51491 0.0
C168 C 0.97547 0.08747 0.57977 0.0
C169 C 0.98032 0.06855 0.57469 0.0
C170 C 0.98612 1.01419 0.74409 0.0
C171 C 0.02117 0.05528 0.75 0.0
O172 O 0.02174 0.99922 0.87293 0.0
O173 O 0.05072 1.00452 0.84 0.0
O174 O 0.03556 1.01323 0.63932 0.0
O175 O 0.0536 0.02665 0.71912 0.0
O176 O 0.02059 0.98565 0.71005 0.0
O177 O 1.01247 0.99539 0.58311 0.0
O178 O 1.01395 0.04097 0.5226 0.0
O179 O 0.986 0.02969 0.54211 0.0
O180 O 1.00094 0.02382 0.74817 0.0
O181 O 0.98275 1.01049 0.66959 0.0
O182 O 1.01607 0.0512 0.67567 0.0
O183 O 0.02469 0.04178 0.80227 0.0
H184 H 0.0179 0.9648 0.84586 0.0
H185 H 0.02757 0.93208 0.84367 0.0
H186 H 0.08104 0.94716 0.94733 0.0
H187 H 0.07144 0.98033 0.94854 0.0
H188 H 0.99806 0.06801 0.38473 0.0
H189 H 0.98968 0.10126 0.39322 0.0
H190 H 0.9694 0.09266 0.63503 0.0
H191 H 0.97818 0.05965 0.62669 0.0
Tb192 Tb 0.52331 0.02577 0.77176 0.0
Tb193 Tb 0.51245 1.00768 0.61864 0.0
C194 C 0.54182 0.03225 0.89587 0.0
C195 C 0.56231 0.02977 0.90436 0.0
C196 C 0.57075 1.01277 0.8812 0.0
C197 C 0.59011 1.01166 0.87015 0.0
C198 C 0.60157 0.02744 0.8827 0.0
C199 C 0.59325 0.04415 0.91042 0.0
C200 C 0.57378 0.04531 0.92091 0.0
C201 C 0.51361 0.04944 0.6577 0.0
C202 C 0.55493 1.01317 0.64224 0.0
C203 C 0.49448 1.00145 0.49276 0.0
C204 C 0.47415 1.00429 0.47938 0.0
C205 C 0.46638 0.02245 0.48063 0.0
C206 C 0.44697 0.02494 0.48468 0.0
C207 C 0.4349 1.00936 0.48768 0.0
C208 C 0.44262 0.99124 0.48224 0.0
C209 C 0.46205 0.98874 0.4778 0.0
C210 C 0.52239 0.98395 0.73216 0.0
C211 C 0.48082 0.0199 0.74829 0.0
O212 O 0.53199 0.01688 0.88599 0.0
O213 O 0.53679 0.04547 0.84566 0.0
O214 O 0.52308 0.0346 0.64937 0.0
O215 O 0.51005 0.05195 0.73337 0.0
O216 O 0.55045 0.01794 0.71669 0.0
O217 O 0.54191 1.00975 0.58777 0.0
O218 O 0.50452 0.01665 0.50366 0.0
O219 O 0.49877 0.98825 0.54439 0.0
O220 O 0.51284 0.99874 0.74098 0.0
O221 O 0.52571 0.98148 0.65629 0.0
O222 O 0.48536 1.01577 0.67316 0.0
O223 O 0.49387 0.02303 0.80316 0.0
H224 H 0.56234 1.00056 0.86677 0.0
H225 H 0.59592 0.99863 0.84781 0.0
H226 H 0.60171 0.05645 0.92257 0.0
H227 H 0.56761 0.05859 0.93828 0.0
H228 H 0.47526 0.03479 0.48189 0.0
H229 H 0.44144 0.03909 0.48689 0.0
H230 H 0.43371 0.97892 0.48477 0.0
H231 H 0.46764 0.97459 0.47724 0.0
Tb232 Tb 0.51205 0.52118 0.77319 0.0
Tb233 Tb 0.52883 0.50958 0.61896 0.0
C234 C 0.50529 0.53865 0.90015 0.0
C235 C 0.49986 0.55849 0.91059 0.0
C236 C 0.51085 0.5729 0.87695 0.0
C237 C 0.50422 0.59128 0.87494 0.0
C238 C 0.48657 0.59572 0.90696 0.0
C239 C 0.47595 0.58157 0.94427 0.0
C240 C 0.48252 0.56305 0.94565 0.0
C241 C 0.48725 0.51301 0.6607 0.0
C242 C 0.52494 0.55245 0.64216 0.0
C243 C 0.53257 0.49157 0.49179 0.0
C244 C 0.52274 0.47395 0.47247 0.0
C245 C 0.50371 0.47183 0.49321 0.0
C246 C 0.49518 0.45425 0.49136 0.0
C247 C 0.50549 0.43831 0.4688 0.0
C248 C 0.52431 0.44056 0.44447 0.0
C249 C 0.53288 0.45824 0.44658 0.0
C250 C 0.55372 0.51795 0.73039 0.0
C251 C 0.51573 0.47884 0.74727 0.0
O252 O 0.52234 0.53555 0.8737 0.0
O253 O 0.49282 0.5282 0.86373 0.0
O254 O 0.50257 0.52158 0.65135 0.0
O255 O 0.48488 0.50962 0.73643 0.0
O256 O 0.5186 0.54832 0.71498 0.0
O257 O 0.52931 0.53922 0.58994 0.0
O258 O 0.52194 0.50652 0.49733 0.0
O259 O 0.54451 0.49029 0.55132 0.0
O260 O 0.53842 0.50934 0.74081 0.0
O261 O 0.55617 0.52079 0.65412 0.0
O262 O 0.51693 0.48366 0.67072 0.0
O263 O 0.51632 0.49181 0.80373 0.0
H264 H 0.52431 0.56994 0.84961 0.0
H265 H 0.51288 0.60205 0.84757 0.0
H266 H 0.46236 0.58473 0.9701 0.0
H267 H 0.47378 0.55218 0.97169 0.0
H268 H 0.4956 0.48359 0.51516 0.0
H269 H 0.48077 0.45305 0.51148 0.0
H270 H 0.53254 0.42862 0.42515 0.0
H271 H 0.54761 0.4595 0.43124 0.0
Tb272 Tb 1.01554 0.50768 0.77818 0.0
Tb273 Tb 0.02521 0.52598 0.62465 0.0
C274 C 0.99833 0.4997 0.90429 0.0
C275 C 0.97774 0.49921 0.9159 0.0
C276 C 0.96716 0.51587 0.91233 0.0
C277 C 0.94765 0.51518 0.90577 0.0
C278 C 0.93826 0.49784 0.9028 0.0
C279 C 0.94873 0.48122 0.91094 0.0
C280 C 0.96828 0.48191 0.9177 0.0
C281 C 0.02536 0.48437 0.66324 0.0
C282 C 0.9829 0.51968 0.65208 0.0
C283 C 0.04231 0.53243 0.49687 0.0
C284 C 0.06251 0.52937 0.48133 0.0
C285 C 0.07006 0.51111 0.48176 0.0
C286 C 0.08945 0.50838 0.48501 0.0
C287 C 0.1017 0.52381 0.48801 0.0
C288 C 0.0942 0.54204 0.48294 0.0
C289 C 0.0748 0.54478 0.4793 0.0
C290 C 1.01544 0.54955 0.7387 0.0
C291 C 0.05768 0.51468 0.75188 0.0
O292 O 1.00574 0.51625 0.89093 0.0
O293 O 1.00499 0.48696 0.85555 0.0
O294 O 1.0153 0.49884 0.65585 0.0
O295 O 0.0296 0.48204 0.73832 0.0
O296 O 0.98784 0.51482 0.72605 0.0
O297 O 0.99562 0.52343 0.59669 0.0
O298 O 0.03216 0.51732 0.50827 0.0
O299 O 0.03852 0.54552 0.54949 0.0
O300 O 0.02534 0.53496 0.74701 0.0
O301 O 1.01165 0.55191 0.6631 0.0
O302 O 0.05276 0.51821 0.67653 0.0
O303 O 0.04488 0.51184 0.80792 0.0
H304 H 0.97394 0.52947 0.91041 0.0
H305 H 0.94003 0.52824 0.8991 0.0
H306 H 0.94184 0.46767 0.91073 0.0
H307 H 0.97607 0.46886 0.92059 0.0
H308 H 0.06104 0.49888 0.4833 0.0
H309 H 0.09481 0.49416 0.48691 0.0
H310 H 0.10326 0.55423 0.48545 0.0
H311 H 0.06938 0.55899 0.47935 0.0
C312 C 0.19105 1.0158 0.21783 0.0
C313 C 0.1881 1.01091 0.13696 0.0
C314 C 0.17587 0.01864 0.26987 0.0
C315 C 0.12362 0.02565 0.2753 0.0
H316 H 0.1297 1.00895 0.4953 0.0
C317 C 0.06174 0.01731 0.50332 0.0
C318 C 0.06512 0.0238 0.58166 0.0
C319 C 0.0763 0.01691 0.44648 0.0
C320 C 0.12781 1.01384 0.43424 0.0
H321 H 0.16649 1.00596 0.04744 0.0
H322 H 0.14018 1.01006 0.13856 0.0
H323 H 0.15577 1.00607 0.40202 0.0
H324 H 0.08623 0.03545 0.66107 0.0
H325 H 0.11154 0.03459 0.5626 0.0
H326 H 0.09535 0.03289 0.30795 0.0
C327 C 0.15425 1.01203 0.16175 0.0
C328 C 0.14283 1.01228 0.38056 0.0
C329 C 0.16944 1.00939 0.10945 0.0
C330 C 0.08318 0.03029 0.60135 0.0
C331 C 0.09773 0.0297 0.54503 0.0
C332 C 0.10849 0.027 0.32894 0.0
C333 C 0.15722 1.01646 0.2431 0.0
C334 C 0.14105 0.01826 0.30028 0.0
C335 C 0.09455 0.0228 0.46719 0.0
C336 C 0.11044 0.0212 0.40921 0.0
H337 H 0.20513 0.01692 0.24197 0.0
H338 H 0.17884 0.02242 0.33149 0.0
H339 H 0.12168 0.03067 0.2145 0.0
H340 H 0.04796 1.01223 0.48641 0.0
H341 H 0.07341 1.01146 0.38711 0.0
C342 C 0.53182 0.17318 0.14584 0.0
C343 C 0.52722 0.19127 0.17337 0.0
C344 C 0.52853 0.15734 0.19365 0.0
C345 C 0.50198 0.13993 0.37073 0.0
H346 H 0.5422 0.10337 0.38332 0.0
C347 C 0.50456 0.08204 0.61605 0.0
C348 C 0.51243 0.06456 0.59655 0.0
C349 C 0.50488 0.0969 0.56084 0.0
C350 C 0.53065 0.11322 0.37969 0.0
H351 H 0.51508 0.20668 0.27282 0.0
H352 H 0.50917 0.17904 0.35577 0.0
H353 H 0.54522 0.13021 0.29386 0.0
H354 H 0.52634 0.04876 0.50288 0.0
H355 H 0.52647 0.07443 0.40573 0.0
H356 H 0.48742 0.12294 0.45674 0.0
C357 C 0.51524 0.17711 0.29679 0.0
C358 C 0.53242 0.12869 0.32831 0.0
C359 C 0.51861 0.19299 0.24904 0.0
C360 C 0.52013 0.06206 0.51972 0.0
C361 C 0.52038 0.07688 0.4643 0.0
C362 C 0.50017 0.12439 0.42192 0.0
C363 C 0.52045 0.1591 0.27029 0.0
C364 C 0.51816 0.14232 0.32337 0.0
C365 C 0.51304 0.09462 0.48447 0.0
C366 C 0.51453 0.11085 0.42751 0.0
H367 H 0.53813 0.17123 0.08733 0.0
H368 H 0.53238 0.14366 0.17057 0.0
H369 H 0.49062 0.15002 0.36776 0.0
H370 H 0.49855 0.08442 0.67487 0.0
H371 H 0.49928 0.11035 0.57917 0.0
C372 C 0.36802 0.52506 0.12716 0.0
C373 C 0.34927 0.52322 0.15293 0.0
C374 C 0.383 0.5223 0.18051 0.0
C375 C 0.39358 0.52102 0.40015 0.0
H376 H 0.44173 0.50198 0.32835 0.0
C377 C 0.45432 0.50485 0.62081 0.0
C378 C 0.47203 0.51205 0.59996 0.0
C379 C 0.43954 0.50494 0.5653 0.0
C380 C 0.42838 0.5074 0.34918 0.0
H381 H 0.33185 0.51649 0.25595 0.0
H382 H 0.35782 0.51077 0.34726 0.0
H383 H 0.41553 0.50382 0.23402 0.0
H384 H 0.48823 0.52469 0.50407 0.0
H385 H 0.46251 0.52448 0.40644 0.0
H386 H 0.40644 0.52429 0.51562 0.0
C387 C 0.361 0.5149 0.28622 0.0
C388 C 0.41333 0.50854 0.29501 0.0
C389 C 0.34602 0.51787 0.23312 0.0
C390 C 0.47478 0.51893 0.52174 0.0
C391 C 0.46005 0.51878 0.46581 0.0
C392 C 0.40855 0.51965 0.45442 0.0
C393 C 0.37974 0.5174 0.26122 0.0
C394 C 0.3957 0.51549 0.3195 0.0
C395 C 0.44217 0.51202 0.48728 0.0
C396 C 0.42616 0.51293 0.42956 0.0
H397 H 0.3712 0.52885 0.06571 0.0
H398 H 0.39714 0.52454 0.15867 0.0
H399 H 0.38045 0.52683 0.42134 0.0
H400 H 0.45178 0.49941 0.68055 0.0
H401 H 0.426 0.49945 0.58347 0.0
C402 C 1.01188 0.3631 0.14591 0.0
C403 C 0.02348 0.34713 0.15213 0.0
C404 C 1.01357 0.37799 0.20003 0.0
C405 C 0.02978 0.39009 0.4033 0.0
H406 H 0.02827 0.44116 0.32274 0.0
C407 C 0.03863 0.45375 0.61607 0.0
C408 C 0.02743 0.46961 0.60126 0.0
C409 C 0.03962 0.43913 0.56004 0.0
C410 C 0.02849 0.42702 0.34661 0.0
H411 H 0.04596 0.33451 0.22171 0.0
H412 H 0.0486 0.36041 0.31735 0.0
H413 H 0.02702 0.41497 0.22899 0.0
H414 H 1.00871 0.48276 0.51552 0.0
H415 H 1.01003 0.45718 0.41857 0.0
H416 H 0.03074 0.40204 0.52099 0.0
C417 C 0.0382 0.36131 0.27003 0.0
C418 C 0.02783 0.41198 0.29265 0.0
C419 C 0.03664 0.34642 0.21525 0.0
C420 C 0.01754 0.47074 0.52847 0.0
C421 C 0.01839 0.45606 0.47266 0.0
C422 C 0.03027 0.40514 0.45741 0.0
C423 C 0.02676 0.37733 0.26272 0.0
C424 C 0.02834 0.39331 0.32028 0.0
C425 C 0.0293 0.43993 0.48791 0.0
C426 C 0.02951 0.42385 0.42994 0.0
H427 H 1.00123 0.36404 0.09968 0.0
H428 H 1.00427 0.38992 0.19354 0.0
H429 H 0.02998 0.3759 0.42671 0.0
H430 H 0.04652 0.45254 0.67145 0.0
H431 H 0.04848 0.42718 0.57348 0.0
C432 C 0.86511 0.01972 0.27634 0.0
C433 C 0.84776 1.01215 0.25174 0.0
C434 C 0.88036 0.0206 0.22321 0.0
C435 C 0.89868 0.99778 0.04029 0.0
H436 H 0.93215 0.04063 0.02873 0.0
C437 C 0.95412 1.00469 0.78993 0.0
C438 C 0.9715 1.01308 0.80735 0.0
C439 C 0.93967 1.00453 0.84667 0.0
C440 C 0.92313 0.02841 0.03198 0.0
H441 H 0.83289 0.99989 0.15103 0.0
H442 H 0.85933 1.00163 0.05841 0.0
H443 H 0.90551 0.04114 0.12111 0.0
H444 H 0.98751 0.02759 0.89874 0.0
H445 H 0.96233 0.02701 -0.00097 0.0
H446 H 0.91626 0.98493 0.95211 0.0
C447 C 0.86121 1.00674 0.11908 0.0
C448 C 0.90779 0.02875 0.08484 0.0
C449 C 0.84594 1.00596 0.17197 0.0
C450 C 0.97425 0.02103 0.8836 0.0
C451 C 0.95975 0.02083 0.94075 0.0
C452 C 0.91403 0.9974 0.98792 0.0
C453 C 0.8787 1.01381 0.14427 0.0
C454 C 0.89525 1.0135 0.0891 0.0
C455 C 0.94219 1.01266 0.92287 0.0
C456 C 0.92639 1.01278 0.98226 0.0
H457 H 0.86698 0.02475 0.33711 0.0
H458 H 0.89362 0.02607 0.24481 0.0
H459 H 0.88958 0.98561 0.04318 0.0
H460 H 0.95153 0.9985 0.73162 0.0
H461 H 0.92632 0.99839 0.82983 0.0
C462 C 0.53359 0.84177 0.14805 0.0
C463 C 0.53176 0.84412 0.2314 0.0
C464 C 0.53152 0.85706 0.09579 0.0
C465 C 0.53227 0.90957 0.09392 0.0
H466 H 0.51339 0.90273 0.87769 0.0
C467 C 0.5175 0.97128 0.87173 0.0
C468 C 0.52403 0.96878 0.79287 0.0
C469 C 0.51817 0.95645 0.9272 0.0
C470 C 0.5188 0.90485 0.93778 0.0
H471 H 0.52551 0.86424 0.3249 0.0
H472 H 0.52123 0.89077 0.23394 0.0
H473 H 0.51388 0.87621 0.97013 0.0
H474 H 0.53656 0.94885 0.71068 0.0
H475 H 0.53747 0.92297 0.80687 0.0
H476 H 0.5368 0.93839 0.0613 0.0
C477 C 0.52488 0.87727 0.20871 0.0
C478 C 0.51916 0.8896 0.99091 0.0
C479 C 0.52719 0.86201 0.26102 0.0
C480 C 0.53139 0.95122 0.77093 0.0
C481 C 0.53182 0.93635 0.82591 0.0
C482 C 0.53167 0.92489 0.04101 0.0
C483 C 0.52733 0.87512 0.12531 0.0
C484 C 0.52609 0.89165 0.06964 0.0
C485 C 0.5251 0.93873 0.90455 0.0
C486 C 0.52512 0.92266 0.96203 0.0
H487 H 0.53739 0.82824 0.12337 0.0
H488 H 0.53385 0.85477 0.03238 0.0
H489 H 0.53803 0.91176 0.15331 0.0
H490 H 0.51158 0.98459 0.89022 0.0
H491 H 0.51279 0.9587 0.9872 0.0
C492 C 0.67395 0.52564 0.26558 0.0
C493 C 0.69232 0.52819 0.23644 0.0
C494 C 0.65879 0.52362 0.21247 0.0
C495 C 0.64402 0.53664 0.00901 0.0
H496 H 0.60559 0.49856 0.0348 0.0
C497 C 0.58693 0.52542 0.76747 0.0
C498 C 0.56892 0.51955 0.79095 0.0
C499 C 0.60164 0.52628 0.82309 0.0
C500 C 0.61599 0.50951 0.02725 0.0
H501 H 0.70914 0.53041 0.12852 0.0
H502 H 0.6827 0.52704 0.03596 0.0
H503 H 0.63182 0.49993 0.12922 0.0
H504 H 0.55215 0.51017 0.89161 0.0
H505 H 0.57759 0.51238 0.98977 0.0
H506 H 0.62814 0.54666 0.90891 0.0
C507 C 0.68003 0.52656 0.09992 0.0
C508 C 0.6311 0.5102 0.0813 0.0
C509 C 0.69521 0.5283 0.15296 0.0
C510 C 0.56587 0.51478 0.87173 0.0
C511 C 0.58056 0.51587 0.92782 0.0
C512 C 0.62881 0.53614 0.95573 0.0
C513 C 0.66161 0.5244 0.12899 0.0
C514 C 0.64538 0.52367 0.07236 0.0
C515 C 0.59872 0.52156 0.90429 0.0
C516 C 0.61462 0.52245 0.96341 0.0
H517 H 0.67127 0.52543 0.32955 0.0
H518 H 0.64477 0.52205 0.23677 0.0
H519 H 0.6546 0.54742 0.00131 0.0
H520 H 0.58978 0.52907 0.70553 0.0
H521 H 0.61541 0.53034 0.80173 0.0
C522 C 1.00382 0.69199 0.15016 0.0
C523 C 1.00616 0.68987 0.23343 0.0
C524 C 1.00587 0.67663 0.09854 0.0
C525 C 1.00604 0.62413 0.099 0.0
H526 H 0.02399 0.63095 0.88135 0.0
C527 C 0.02061 0.56233 0.87777 0.0
C528 C 1.01386 0.56474 0.79913 0.0
C529 C 0.01999 0.5772 0.93291 0.0
C530 C 0.01884 0.62884 0.94184 0.0
H531 H 1.01327 0.67006 0.32739 0.0
H532 H 0.01747 0.64339 0.23743 0.0
H533 H 0.02345 0.65759 0.97279 0.0
H534 H 1.0009 0.58451 0.71705 0.0
H535 H 1.00004 0.61043 0.81263 0.0
H536 H 1.00179 0.59521 0.06773 0.0
C537 C 1.01346 0.65678 0.21187 0.0
C538 C 0.01845 0.64415 0.9944 0.0
C539 C 1.01119 0.67212 0.26358 0.0
C540 C 1.00627 0.58221 0.77712 0.0
C541 C 1.00587 0.59711 0.83174 0.0
C542 C 1.00665 0.60876 0.04661 0.0
C543 C 1.01055 0.65872 0.1286 0.0
C544 C 1.01185 0.64211 0.07361 0.0
C545 C 1.01285 0.59484 0.91013 0.0
C546 C 1.01286 0.61097 0.96713 0.0
H547 H 0.99965 0.7054 0.12508 0.0
H548 H 1.00317 0.67873 0.03523 0.0
H549 H 1.00055 0.62196 0.15885 0.0
H550 H 0.02665 0.54907 0.89634 0.0
H551 H 0.02556 0.57503 0.99272 0.0
C552 C 0.02251 0.23596 0.31875 0.0
C553 C 1.01091 0.24887 0.279 0.0
C554 C 1.01613 0.22668 0.38706 0.0
C555 C 0.99999 0.20578 0.52603 0.0
H556 H 0.95166 0.18625 0.45903 0.0
C557 C 0.98068 0.12964 0.59331 0.0
C558 C 0.97551 0.12008 0.52281 0.0
C559 C 0.98006 0.14925 0.59648 0.0
C560 C 0.96509 0.19162 0.47931 0.0
H561 H 0.98458 0.26399 0.28413 0.0
H562 H 0.97339 0.24789 0.40491 0.0
H563 H 0.96206 0.21649 0.40943 0.0
H564 H 0.96408 0.12347 0.40313 0.0
H565 H 0.96352 0.15746 0.40735 0.0
H566 H 1.00391 0.17989 0.5884 0.0
C567 C 0.98729 0.24468 0.38252 0.0
C568 C 0.97097 0.20917 0.4518 0.0
C569 C 0.99373 0.254 0.3138 0.0
C570 C 0.96849 0.13044 0.45771 0.0
C571 C 0.96788 0.14998 0.4608 0.0
C572 C 0.99421 0.18809 0.55261 0.0
C573 C 0.99796 0.23009 0.41695 0.0
C574 C 0.98909 0.21581 0.47007 0.0
C575 C 0.97421 0.15967 0.52926 0.0
C576 C 0.97727 0.18029 0.52472 0.0
H577 H 0.0359 0.23193 0.29314 0.0
H578 H 0.02479 0.21552 0.41115 0.0
H579 H 1.01378 0.21077 0.54331 0.0
H580 H 0.98611 0.12207 0.64468 0.0
H581 H 0.98487 0.15625 0.65037 0.0
C582 C 0.29714 0.04902 0.26475 0.0
C583 C 0.28439 0.03456 0.24756 0.0
C584 C 0.30685 0.04919 0.33736 0.0
C585 C 0.32386 1.01207 0.47012 0.0
H586 H 0.35849 0.05222 0.52139 0.0
C587 C 0.40167 1.00076 0.45538 0.0
C588 C 0.41438 1.012 0.49805 0.0
C589 C 0.3824 1.00354 0.46318 0.0
C590 C 0.34883 0.04079 0.51004 0.0
H591 H 0.26937 1.01085 0.29847 0.0
H592 H 0.28548 1.01181 0.42699 0.0
H593 H 0.32705 0.05979 0.47568 0.0
H594 H 0.41679 0.03454 0.58495 0.0
H595 H 0.38303 0.03919 0.59966 0.0
H596 H 0.34565 0.99309 0.50435 0.0
C597 C 0.2888 0.02245 0.38277 0.0
C598 C 0.3308 0.04515 0.48265 0.0
C599 C 0.27935 0.02204 0.30922 0.0
C600 C 0.40734 0.02581 0.55033 0.0
C601 C 0.388 0.02843 0.55905 0.0
C602 C 0.34168 1.00773 0.49939 0.0
C603 C 0.30378 0.03503 0.39505 0.0
C604 C 0.31875 0.03086 0.45523 0.0
C605 C 0.37528 0.01753 0.5145 0.0
C606 C 0.3549 0.02202 0.51276 0.0
H607 H 0.30086 0.05925 0.21926 0.0
H608 H 0.31809 0.0593 0.34385 0.0
H609 H 0.31504 1.00052 0.45129 0.0
H610 H 0.40661 0.99023 0.41362 0.0
H611 H 0.37313 0.99522 0.42594 0.0
C612 C 0.46551 0.29069 0.23635 0.0
C613 C 0.48409 0.28414 0.23585 0.0
C614 C 0.4594 0.30258 0.29753 0.0
C615 C 0.47674 0.33009 0.47566 0.0
H616 H 0.46012 0.37164 0.34314 0.0
C617 C 0.5072 0.40382 0.4989 0.0
C618 C 0.49675 0.41941 0.47277 0.0
C619 C 0.49935 0.38587 0.49798 0.0
C620 C 0.46427 0.36027 0.38254 0.0
H621 H 0.51002 0.28262 0.30327 0.0
H622 H 0.49975 0.3038 0.40816 0.0
H623 H 0.45598 0.34008 0.29593 0.0
H624 H 0.46939 0.42845 0.42996 0.0
H625 H 0.45557 0.39724 0.43047 0.0
H626 H 0.48623 0.35076 0.55983 0.0
C627 C 0.48963 0.29967 0.36294 0.0
C628 C 0.46183 0.34198 0.35537 0.0
C629 C 0.49561 0.28752 0.30254 0.0
C630 C 0.47789 0.41677 0.45029 0.0
C631 C 0.46998 0.39884 0.45013 0.0
C632 C 0.4792 0.3485 0.503 0.0
C633 C 0.47198 0.3085 0.35756 0.0
C634 C 0.46898 0.32669 0.39936 0.0
C635 C 0.4808 0.38309 0.47142 0.0
C636 C 0.4739 0.36381 0.45455 0.0
H637 H 0.45634 0.28807 0.18565 0.0
H638 H 0.44549 0.30867 0.29305 0.0
H639 H 0.48206 0.31862 0.51182 0.0
H640 H 0.5216 0.40543 0.5188 0.0
H641 H 0.50819 0.37408 0.51417 0.0
C642 C 0.23989 0.48409 0.26952 0.0
C643 C 0.25277 0.49856 0.25402 0.0
C644 C 0.22997 0.48367 0.34151 0.0
C645 C 0.21276 0.52037 0.4752 0.0
H646 H 0.17777 0.48023 0.52241 0.0
C647 C 0.13504 0.53207 0.45633 0.0
C648 C 0.12218 0.52091 0.49859 0.0
C649 C 0.15428 0.52912 0.46478 0.0
C650 C 0.18752 0.49164 0.51218 0.0
H651 H 0.26775 0.52197 0.30741 0.0
H652 H 0.25127 0.52055 0.4348 0.0
H653 H 0.2093 0.47265 0.47806 0.0
H654 H 0.11946 0.49834 0.58547 0.0
H655 H 0.15316 0.49333 0.60098 0.0
H656 H 0.19095 0.53934 0.50897 0.0
C657 C 0.24803 0.51012 0.38971 0.0
C658 C 0.20561 0.48728 0.4856 0.0
C659 C 0.25769 0.51078 0.31678 0.0
C660 C 0.12903 0.50698 0.55101 0.0
C661 C 0.14834 0.50418 0.56029 0.0
C662 C 0.19488 0.5247 0.50358 0.0
C663 C 0.23294 0.49757 0.40026 0.0
C664 C 0.21781 0.5016 0.45969 0.0
C665 C 0.1612 0.51503 0.5163 0.0
C666 C 0.18155 0.51044 0.51549 0.0
H667 H 0.23627 0.47406 0.22322 0.0
H668 H 0.21866 0.4736 0.3467 0.0
H669 H 0.22169 0.53194 0.45748 0.0
H670 H 0.13025 0.54269 0.41452 0.0
H671 H 0.16369 0.53741 0.42798 0.0
C672 C 1.01276 0.79958 0.06467 0.0
C673 C 0.02328 0.78703 0.11126 0.0
C674 C 0.02117 0.80918 0.00133 0.0
C675 C 0.06724 0.82878 0.96895 0.0
H676 H 0.03888 0.85633 0.80916 0.0
C677 C 0.06666 0.9078 0.95827 0.0
C678 C 0.06088 0.91736 0.88905 0.0
C679 C 0.06862 0.88831 0.95725 0.0
C680 C 0.04741 0.84865 0.85182 0.0
H681 H 0.05002 0.77294 0.1238 0.0
H682 H 0.06486 0.78966 0.01193 0.0
H683 H 0.02882 0.82509 0.84783 0.0
H684 H 0.05459 0.91458 0.7626 0.0
H685 H 0.05832 0.8805 0.75997 0.0
H686 H 0.0855 0.85257 0.97478 0.0
C687 C 0.05017 0.79225 0.02471 0.0
C688 C 0.04149 0.83073 0.87456 0.0
C689 C 0.04168 0.78257 0.08819 0.0
C690 C 0.05867 0.90737 0.81709 0.0
C691 C 0.06082 0.88789 0.81572 0.0
C692 C 0.07332 0.84658 0.94539 0.0
C693 C 0.04033 0.80651 0.98389 0.0
C694 C 0.05048 0.82125 0.93784 0.0
C695 C 0.06502 0.87802 0.88664 0.0
C696 C 0.06265 0.85728 0.89106 0.0
H697 H 0.99854 0.80322 0.08188 0.0
H698 H 1.0131 0.8201 0.972 0.0
H699 H 0.07466 0.82187 0.01745 0.0
H700 H 0.0684 0.91524 0.01447 0.0
H701 H 0.07162 0.88126 0.01343 0.0
C702 C 0.75507 0.02401 0.06795 0.0
C703 C 0.75094 1.00793 0.11333 0.0
C704 C 0.74604 0.02704 0.99442 0.0
C705 C 0.71036 1.00619 0.85436 0.0
H706 H 0.68364 0.05228 0.90106 0.0
C707 C 0.63216 1.00999 0.88242 0.0
C708 C 0.62204 0.02647 0.86556 0.0
C709 C 0.65146 1.00919 0.86947 0.0
C710 C 0.69116 0.03963 0.88469 0.0
H711 H 0.73616 0.98142 0.11454 0.0
H712 H 0.72043 0.98654 0.98717 0.0
H713 H 0.71485 0.04763 0.95491 0.0
H714 H 0.62424 0.05467 0.81674 0.0
H715 H 0.65827 0.05347 0.79731 0.0
H716 H 0.68572 0.99757 0.79042 0.0
C717 C 0.73058 0.99688 0.00691 0.0
C718 C 0.70918 0.03695 0.91557 0.0
C719 C 0.73946 0.99395 0.08037 0.0
C720 C 0.63167 0.04192 0.83252 0.0
C721 C 0.65109 0.04117 0.82023 0.0
C722 C 0.6923 1.00886 0.82362 0.0
C723 C 0.73284 1.01397 0.96554 0.0
C724 C 0.71833 0.01959 0.90607 0.0
C725 C 0.66123 0.0249 0.84007 0.0
C726 C 0.68202 0.02502 0.84388 0.0
H727 H 0.76392 0.03496 0.09255 0.0
H728 H 0.74822 0.04025 0.9635 0.0
H729 H 0.71729 0.99286 0.84428 0.0
H730 H 0.62533 0.9979 0.90885 0.0
H731 H 0.6589 0.99659 0.88725 0.0
C732 C 0.52236 0.73482 0.07228 0.0
C733 C 0.51162 0.74676 0.1205 0.0
C734 C 0.51395 0.72496 0.00974 0.0
C735 C 0.46866 0.70325 0.98214 0.0
H736 H 0.49734 0.67744 0.81866 0.0
C737 C 0.47381 0.62454 0.97213 0.0
C738 C 0.47971 0.61527 0.90251 0.0
C739 C 0.47061 0.64386 0.97084 0.0
C740 C 0.48869 0.6846 0.86239 0.0
H741 H 0.48433 0.75946 0.13723 0.0
H742 H 0.46946 0.74229 0.02674 0.0
H743 H 0.50598 0.70911 0.85664 0.0
H744 H 0.48494 0.61833 0.77518 0.0
H745 H 0.47906 0.6521 0.77226 0.0
H746 H 0.45172 0.67852 0.98967 0.0
C747 C 0.48434 0.74039 0.0375 0.0
C748 C 0.49381 0.70278 0.88473 0.0
C749 C 0.49284 0.75032 0.1002 0.0
C750 C 0.48079 0.62531 0.83004 0.0
C751 C 0.47741 0.64462 0.82845 0.0
C752 C 0.46336 0.68518 0.95894 0.0
C753 C 0.49456 0.72675 0.99481 0.0
C754 C 0.48481 0.71167 0.94934 0.0
C755 C 0.47308 0.65428 0.89959 0.0
C756 C 0.47423 0.67512 0.90336 0.0
H757 H 0.53687 0.73184 0.08753 0.0
H758 H 0.52231 0.71451 0.97901 0.0
H759 H 0.46123 0.70968 0.03164 0.0
H760 H 0.47291 0.61709 0.02875 0.0
H761 H 0.46757 0.65076 0.02719 0.0
C762 C 0.78324 0.50953 0.06578 0.0
C763 C 0.78762 0.49927 0.13534 0.0
C764 C 0.7922 0.50538 0.99323 0.0
C765 C 0.83098 0.47501 0.90879 0.0
H766 H 0.85201 0.52376 0.85824 0.0
C767 C 0.90951 0.48373 0.83869 0.0
C768 C 0.91766 0.49721 0.88976 0.0
C769 C 0.89003 0.4831 0.82776 0.0
C770 C 0.84621 0.51 0.87068 0.0
H771 H 0.80235 0.47496 0.18133 0.0
H772 H 0.81849 0.46818 0.05742 0.0
H773 H 0.82061 0.52177 0.91221 0.0
H774 H 0.91174 0.52063 0.96869 0.0
H775 H 0.87804 0.51944 0.95072 0.0
H776 H 0.85767 0.46357 0.8764 0.0
C777 C 0.80817 0.47934 0.05693 0.0
C778 C 0.82799 0.50878 0.90077 0.0
C779 C 0.7991 0.48336 0.12884 0.0
C780 C 0.90598 0.51026 0.92809 0.0
C781 C 0.88661 0.50965 0.91716 0.0
C782 C 0.84938 0.47628 0.88004 0.0
C783 C 0.80589 0.49113 0.98968 0.0
C784 C 0.82077 0.4914 0.92682 0.0
C785 C 0.87836 0.49596 0.8676 0.0
C786 C 0.85762 0.49395 0.86712 0.0
H787 H 0.77424 0.52177 0.06889 0.0
H788 H 0.78962 0.5144 0.942 0.0
H789 H 0.82555 0.46131 0.9249 0.0
H790 H 0.9182 0.47372 0.80696 0.0
H791 H 0.88408 0.47243 0.78911 0.0
C792 C 1.00406 0.21711 0.99238 0.0
C793 C 0.02068 0.2275 0.00145 0.0
C794 C 1.00426 0.19952 0.95534 0.0
C795 C 0.03186 0.16656 0.82991 0.0
H796 H 1.00465 0.12882 0.95121 0.0
C797 C 0.0204 0.08984 0.71779 0.0
C798 C 0.02212 0.07534 0.77495 0.0
C799 C 0.02093 0.10873 0.7412 0.0
C800 C 1.01242 0.13912 0.91678 0.0
H801 H 0.05045 0.22804 0.97619 0.0
H802 H 0.05088 0.19717 0.91014 0.0
H803 H 1.00412 0.16138 0.99508 0.0
H804 H 0.02585 0.06951 0.90168 0.0
H805 H 0.02656 0.1024 0.94251 0.0
H806 H 0.04023 0.1441 0.75186 0.0
C807 C 0.03762 0.20273 0.93126 0.0
C808 C 1.01194 0.15788 0.94141 0.0
C809 C 0.0374 0.22042 0.96867 0.0
C810 C 0.02446 0.08025 0.85602 0.0
C811 C 0.02477 0.09914 0.8795 0.0
C812 C 0.03219 0.14774 0.80473 0.0
C813 C 0.02115 0.19178 0.92672 0.0
C814 C 0.02164 0.17187 0.89845 0.0
C815 C 0.02291 0.11365 0.82248 0.0
C816 C 0.02255 0.13375 0.84818 0.0
H817 H 0.99101 0.22221 0.01773 0.0
H818 H 0.99126 0.19167 0.95156 0.0
H819 H 0.03943 0.17697 0.79531 0.0
H820 H 0.01859 0.08662 0.65474 0.0
H821 H 0.01938 0.1195 0.69573 0.0
C822 C 0.31475 0.04112 0.94725 0.0
C823 C 0.3055 0.02445 0.96877 0.0
C824 C 0.33265 0.04063 0.91244 0.0
C825 C 0.36937 1.00856 0.82567 0.0
H826 H 0.403 0.04742 0.90211 0.0
C827 C 0.44679 1.01379 0.71693 0.0
C828 C 0.46054 0.0204 0.77067 0.0
C829 C 0.42771 1.01394 0.7376 0.0
C830 C 0.39394 0.03629 0.88075 0.0
H831 H 0.30748 0.99418 0.96892 0.0
H832 H 0.33883 0.99318 0.90927 0.0
H833 H 0.37016 0.04816 0.93998 0.0
H834 H 0.46482 0.03214 0.88916 0.0
H835 H 0.43164 0.03249 0.92517 0.0
H836 H 0.3934 0.99621 0.76955 0.0
C837 C 0.33218 1.00671 0.91723 0.0
C838 C 0.37487 0.03691 0.90132 0.0
C839 C 0.31413 1.00723 0.95117 0.0
C840 C 0.45465 0.02709 0.84591 0.0
C841 C 0.43552 0.0274 0.86631 0.0
C842 C 0.38851 1.00784 0.80563 0.0
C843 C 0.34199 0.02344 0.89977 0.0
C844 C 0.36224 0.02305 0.87429 0.0
C845 C 0.42169 0.02095 0.81221 0.0
C846 C 0.40116 0.02166 0.83315 0.0
H847 H 0.30849 0.05459 0.96109 0.0
H848 H 0.33942 0.05382 0.89803 0.0
H849 H 0.36017 0.9977 0.80285 0.0
H850 H 0.45074 1.00832 0.65878 0.0
H851 H 0.41768 1.00872 0.69434 0.0
C852 C 0.52501 0.31271 0.96038 0.0
C853 C 0.50716 0.30482 0.97281 0.0
C854 C 0.52688 0.33044 0.92435 0.0
C855 C 0.50153 0.36741 0.80785 0.0
H856 H 0.53378 0.4016 0.92527 0.0
C857 C 0.51388 0.44477 0.7082 0.0
C858 C 0.51442 0.45854 0.7687 0.0
C859 C 0.51338 0.42562 0.72759 0.0
C860 C 0.52464 0.39228 0.89195 0.0
H861 H 0.47738 0.30876 0.95241 0.0
H862 H 0.4806 0.33944 0.88844 0.0
H863 H 0.53272 0.36853 0.96301 0.0
H864 H 0.51477 0.4628 0.89746 0.0
H865 H 0.51386 0.42943 0.93138 0.0
H866 H 0.49319 0.39127 0.73774 0.0
C867 C 0.4932 0.33205 0.9066 0.0
C868 C 0.52423 0.37323 0.9129 0.0
C869 C 0.49133 0.31444 0.94328 0.0
C870 C 0.51436 0.45263 0.84925 0.0
C871 C 0.51397 0.43346 0.86869 0.0
C872 C 0.50206 0.38646 0.78644 0.0
C873 C 0.51093 0.3406 0.8992 0.0
C874 C 0.51252 0.36055 0.87177 0.0
C875 C 0.51356 0.41968 0.80812 0.0
C876 C 0.51344 0.39922 0.82891 0.0
H877 H 0.53744 0.30575 0.98332 0.0
H878 H 0.54077 0.33648 0.9186 0.0
H879 H 0.49243 0.35805 0.77453 0.0
H880 H 0.51409 0.44872 0.64551 0.0
H881 H 0.51327 0.41547 0.6793 0.0
C882 C 0.22354 0.49299 0.9515 0.0
C883 C 0.23273 0.5096 0.97402 0.0
C884 C 0.20578 0.49357 0.91533 0.0
C885 C 0.16933 0.52572 0.8266 0.0
H886 H 0.13545 0.48713 0.90377 0.0
C887 C 0.09168 0.52059 0.71843 0.0
C888 C 0.07802 0.51432 0.77332 0.0
C889 C 0.11081 0.52041 0.73849 0.0
C890 C 0.14459 0.49818 0.88214 0.0
H891 H 0.23084 0.53988 0.97424 0.0
H892 H 0.19972 0.54103 0.91213 0.0
H893 H 0.16826 0.48624 0.94217 0.0
H894 H 0.07395 0.50317 0.89311 0.0
H895 H 0.10718 0.50276 0.92798 0.0
H896 H 0.14538 0.53811 0.76949 0.0
C897 C 0.20632 0.52748 0.92048 0.0
C898 C 0.16363 0.49746 0.90304 0.0
C899 C 0.22423 0.52688 0.95584 0.0
C900 C 0.08404 0.50797 0.84901 0.0
C901 C 0.10319 0.50761 0.86877 0.0
C902 C 0.15021 0.52651 0.8061 0.0
C903 C 0.19653 0.5108 0.90222 0.0
C904 C 0.17634 0.51124 0.8759 0.0
C905 C 0.11693 0.51368 0.81357 0.0
C906 C 0.13748 0.51281 0.83405 0.0
H907 H 0.22971 0.47948 0.96567 0.0
H908 H 0.19903 0.48041 0.90032 0.0
H909 H 0.17862 0.53651 0.80373 0.0
H910 H 0.08759 0.5258 0.65989 0.0
H911 H 0.12081 0.52535 0.69449 0.0
C912 C 0.99326 0.82382 0.35544 0.0
C913 C 1.0061 0.80995 0.37961 0.0
C914 C 0.99328 0.84152 0.39143 0.0
C915 C 1.00993 0.86991 0.56337 0.0
H916 H 1.00926 0.91014 0.40633 0.0
C917 C 0.0244 0.94771 0.65016 0.0
C918 C 1.01458 0.96186 0.60881 0.0
C919 C 0.02312 0.9289 0.62614 0.0
C920 C 1.00914 0.89919 0.45144 0.0
H921 H 0.02838 0.80336 0.46335 0.0
H922 H 0.0283 0.83444 0.52768 0.0
H923 H 1.00666 0.8778 0.36217 0.0
H924 H 0.99562 0.96728 0.50979 0.0
H925 H 0.993 0.93455 0.46881 0.0
H926 H 1.01223 0.89138 0.65287 0.0
C927 C 0.01817 0.83155 0.48078 0.0
C928 C 1.0077 0.88055 0.42593 0.0
C929 C 0.01816 0.81373 0.44439 0.0
C930 C 1.00348 0.95675 0.54264 0.0
C931 C 1.00206 0.93793 0.51897 0.0
C932 C 1.0112 0.88865 0.58913 0.0
C933 C 1.00618 0.84587 0.45252 0.0
C934 C 1.00794 0.86565 0.48143 0.0
C935 C 1.01192 0.92368 0.56014 0.0
C936 C 1.01073 0.9036 0.53347 0.0
H937 H 0.98385 0.82128 0.30548 0.0
H938 H 0.98359 0.85205 0.36933 0.0
H939 H 1.01011 0.85878 0.60772 0.0
H940 H 0.03341 0.95124 0.70017 0.0
H941 H 0.03121 0.9185 0.65846 0.0
C942 C 0.72341 0.01921 0.45081 0.0
C943 C 0.72725 1.00564 0.39175 0.0
C944 C 0.70576 0.01964 0.48907 0.0
C945 C 0.65711 1.00774 0.44188 0.0
H946 H 0.64598 1.01248 0.66849 0.0
C947 C 0.58095 1.00116 0.55435 0.0
C948 C 0.57513 1.01208 0.61977 0.0
C949 C 0.59995 1.00027 0.53281 0.0
C950 C 0.6488 1.01143 0.60483 0.0
H951 H 0.71625 0.98102 0.3317 0.0
H952 H 0.68575 0.98182 0.39757 0.0
H953 H 0.67875 1.0113 0.62351 0.0
H954 H 0.58474 0.0309 0.71323 0.0
H955 H 0.61776 0.02983 0.67436 0.0
H956 H 0.62753 1.00841 0.42179 0.0
C957 C 0.69613 0.9923 0.41363 0.0
C958 C 0.66762 1.01069 0.57922 0.0
C959 C 0.71364 0.9918 0.37613 0.0
C960 C 0.58879 0.02212 0.66319 0.0
C961 C 0.60779 0.02144 0.64102 0.0
C962 C 0.63842 1.00873 0.46711 0.0
C963 C 0.69169 1.00658 0.46841 0.0
C964 C 0.67195 1.0085 0.49743 0.0
C965 C 0.61369 1.01057 0.57512 0.0
C966 C 0.63388 1.01026 0.54905 0.0
H967 H 0.73357 0.0301 0.46382 0.0
H968 H 0.70275 0.0308 0.53122 0.0
H969 H 0.65996 1.00646 0.37826 0.0
H970 H 0.57083 0.99311 0.52012 0.0
H971 H 0.60384 0.99136 0.48298 0.0
C972 C 0.54443 0.71138 0.36479 0.0
C973 C 0.5309 0.72467 0.3877 0.0
C974 C 0.54505 0.6937 0.40109 0.0
C975 C 0.52851 0.66463 0.57205 0.0
H976 H 0.5324 0.62434 0.41673 0.0
C977 C 0.51575 0.58635 0.65728 0.0
C978 C 0.52638 0.57251 0.61792 0.0
C979 C 0.51683 0.60523 0.63374 0.0
C980 C 0.53162 0.63532 0.46142 0.0
H981 H 0.50788 0.73019 0.46882 0.0
H982 H 0.50903 0.69915 0.53357 0.0
H983 H 0.534 0.65672 0.37187 0.0
H984 H 0.54668 0.56776 0.52342 0.0
H985 H 0.54894 0.60061 0.48348 0.0
H986 H 0.52622 0.64315 0.6618 0.0
C987 C 0.51927 0.7025 0.48773 0.0
C988 C 0.5325 0.65399 0.43551 0.0
C989 C 0.51865 0.7203 0.45111 0.0
C990 C 0.5382 0.57803 0.55469 0.0
C991 C 0.53941 0.59692 0.53154 0.0
C992 C 0.52777 0.64588 0.59822 0.0
C993 C 0.53205 0.68875 0.46103 0.0
C994 C 0.53106 0.66892 0.49035 0.0
C995 C 0.52862 0.61082 0.57027 0.0
C996 C 0.52939 0.63092 0.54323 0.0
H997 H 0.55393 0.71436 0.31561 0.0
H998 H 0.55532 0.68363 0.3801 0.0
H999 H 0.52741 0.67577 0.61595 0.0
H1000 H 0.5062 0.58254 0.70506 0.0
H1001 H 0.50804 0.61536 0.66416 0.0
C1002 C 0.82621 0.53139 0.3641 0.0
C1003 C 0.81122 0.52122 0.39752 0.0
C1004 C 0.84338 0.53289 0.40419 0.0
C1005 C 0.8726 0.50848 0.55574 0.0
H1006 H 0.90431 0.55225 0.52718 0.0
C1007 C 0.94888 0.51298 0.68275 0.0
C1008 C 0.96255 0.5207 0.63132 0.0
C1009 C 0.92972 0.51392 0.66339 0.0
C1010 C 0.89571 0.53985 0.53533 0.0
H1011 H 0.80224 0.5052 0.5009 0.0
H1012 H 0.83235 0.50804 0.5726 0.0
H1013 H 0.8718 0.55312 0.48204 0.0
H1014 H 0.96662 0.53539 0.51865 0.0
H1015 H 0.93332 0.53693 0.48465 0.0
H1016 H 0.89667 0.49524 0.60895 0.0
C1017 C 0.83085 0.51469 0.51448 0.0
C1018 C 0.877 0.54034 0.50942 0.0
C1019 C 0.81352 0.51324 0.47405 0.0
C1020 C 0.95653 0.52933 0.55985 0.0
C1021 C 0.93738 0.53034 0.54065 0.0
C1022 C 0.89134 0.50804 0.58224 0.0
C1023 C 0.84615 0.52427 0.47931 0.0
C1024 C 0.86527 0.52451 0.51723 0.0
C1025 C 0.92369 0.52266 0.59212 0.0
C1026 C 0.90328 0.52358 0.57055 0.0
H1027 H 0.82487 0.53763 0.30502 0.0
H1028 H 0.85476 0.54013 0.3742 0.0
H1029 H 0.86413 0.49595 0.56236 0.0
H1030 H 0.953 0.50601 0.73772 0.0
H1031 H 0.91961 0.50797 0.70465 0.0
loop_
_geom_bond_atom_site_label_1
_geom_bond_atom_site_label_2
_geom_bond_distance
_geom_bond_site_symmetry_2
_ccdc_geom_bond_type
H0 C1 0.949 . S
C1 H0 0.949 . S
C1 C2 1.395 . S
C1 C3 1.391 . S
C2 C1 1.395 . S
C2 C5 1.390 . S
C3 C1 1.391 . S
C3 C7 1.387 . S
C3 C8 1.491 . S
H4 C5 0.950 . S
C5 C2 1.390 . S
C5 H4 0.950 . S
C5 C6 1.378 . S
C6 C5 1.378 . S
C6 C7 1.409 . S
C7 C3 1.387 . S
C7 C6 1.409 . S
C7 H9 0.951 . S
C8 C3 1.491 . S
C8 C10 1.382 . S
C8 C12 1.404 . S
H9 C7 0.951 . S
C10 C8 1.382 . S
C10 C11 1.390 . S
C10 H15 0.949 . S
C11 C10 1.390 . S
C11 C16 1.399 . S
C12 C8 1.404 . S
C12 H13 0.950 . S
C12 C14 1.375 . S
H13 C12 0.950 . S
C14 C12 1.375 . S
C14 C16 1.382 . S
C14 H18 0.950 . S
H15 C10 0.949 . S
C16 C11 1.399 . S
C16 C14 1.382 . S
C16 H17 0.952 . S
H17 C16 0.952 . S
H18 C14 0.950 . S
H19 C20 0.949 . S
C20 H19 0.949 . S
C20 C21 1.395 . S
C20 C22 1.391 . S
C21 C20 1.395 . S
C21 C24 1.390 1_655 S
C22 C20 1.391 . S
C22 C26 1.387 . S
C22 C27 1.491 . S
H23 C24 0.950 . S
C24 C21 1.390 1_455 S
C24 H23 0.950 . S
C24 C25 1.377 1_455 S
C25 C24 1.377 1_655 S
C25 C26 1.413 . S
C26 C22 1.387 . S
C26 C25 1.413 . S
C26 H28 0.951 . S
C27 C22 1.491 . S
C27 C29 1.407 . S
C27 C31 1.404 . S
H28 C26 0.951 . S
C29 C27 1.407 . S
C29 C30 1.403 . S
C29 H34 0.913 1_655 S
C30 C29 1.403 . S
C30 C35 1.399 . S
C31 C27 1.404 . S
C31 H32 0.950 . S
C31 C33 1.375 . S
H32 C31 0.950 . S
C33 C31 1.375 . S
C33 C35 1.382 . S
C33 H37 0.950 . S
H34 C29 0.913 1_455 S
C35 C30 1.399 . S
C35 C33 1.382 . S
C35 H36 0.952 . S
H36 C35 0.952 . S
H37 C33 0.950 . S
H38 C39 0.949 . S
C39 H38 0.949 . S
C39 C40 1.395 . S
C39 C41 1.391 . S
C40 C39 1.395 . S
C40 C43 1.390 1_565 S
C41 C39 1.391 . S
C41 C45 1.387 . S
C41 C46 1.491 . S
H42 C43 0.950 . S
C43 C40 1.390 1_545 S
C43 H42 0.950 . S
C43 C44 1.377 1_545 S
C44 C43 1.377 1_565 S
C44 C45 1.413 . S
C45 C41 1.387 . S
C45 C44 1.413 . S
C45 H47 0.951 . S
C46 C41 1.491 . S
C46 C48 1.407 . S
C46 C50 1.404 . S
H47 C45 0.951 . S
C48 C46 1.407 . S
C48 C49 1.403 . S
C48 H53 0.913 1_565 S
C49 C48 1.403 . S
C49 C54 1.399 . S
C50 C46 1.404 . S
C50 H51 0.950 . S
C50 C52 1.375 . S
H51 C50 0.950 . S
C52 C50 1.375 . S
C52 C54 1.382 . S
C52 H56 0.950 . S
H53 C48 0.913 1_545 S
C54 C49 1.399 . S
C54 C52 1.382 . S
C54 H55 0.952 . S
H55 C54 0.952 . S
H56 C52 0.950 . S
H57 C58 0.949 . S
C58 H57 0.949 . S
C58 C59 1.395 . S
C58 C60 1.391 . S
C59 C58 1.395 . S
C59 C62 1.390 . S
C60 C58 1.391 . S
C60 C64 1.387 . S
C60 C65 1.491 . S
H61 C62 0.950 . S
C62 C59 1.390 . S
C62 H61 0.950 . S
C62 C63 1.378 . S
C63 C62 1.378 . S
C63 C64 1.409 . S
C64 C60 1.387 . S
C64 C63 1.409 . S
C64 H66 0.951 . S
C65 C60 1.491 . S
C65 C67 1.382 . S
C65 C69 1.404 . S
H66 C64 0.951 . S
C67 C65 1.382 . S
C67 C68 1.390 . S
C67 H72 0.949 . S
C68 C67 1.390 . S
C68 C73 1.399 . S
C69 C65 1.404 . S
C69 H70 0.950 . S
C69 C71 1.375 . S
H70 C69 0.950 . S
C71 C69 1.375 . S
C71 C73 1.382 . S
C71 H75 0.950 . S
H72 C67 0.949 . S
C73 C68 1.399 . S
C73 C71 1.382 . S
C73 H74 0.952 . S
H74 C73 0.952 . S
H75 C71 0.950 . S
H76 C77 0.949 . S
C77 H76 0.949 . S
C77 C78 1.395 . S
C77 C79 1.391 . S
C78 C77 1.395 . S
C78 C81 1.389 1_554 S
C79 C77 1.391 . S
C79 C83 1.387 1_554 S
C79 C84 1.491 . S
H80 C81 0.950 . S
C81 C78 1.389 1_556 S
C81 H80 0.950 . S
C81 C82 1.380 . S
C82 C81 1.380 . S
C82 C83 1.409 . S
C83 C79 1.387 1_556 S
C83 C82 1.409 . S
C83 H85 0.951 . S
C84 C79 1.491 . S
C84 C86 1.382 . S
C84 C88 1.404 1_554 S
H85 C83 0.951 . S
C86 C84 1.382 . S
C86 C87 1.390 . S
C86 H91 0.949 . S
C87 C86 1.390 . S
C87 C92 1.399 . S
C88 C84 1.404 1_556 S
C88 H89 0.950 . S
C88 C90 1.375 . S
H89 C88 0.950 . S
C90 C88 1.375 . S
C90 C92 1.382 1_556 S
C90 H94 0.950 . S
H91 C86 0.949 . S
C92 C87 1.399 . S
C92 C90 1.382 1_554 S
C92 H93 0.952 . S
H93 C92 0.952 . S
H94 C90 0.950 . S
H95 C96 0.949 . S
C96 H95 0.949 . S
C96 C97 1.395 1_655 S
C96 C98 1.391 . S
C97 C96 1.395 1_455 S
C97 C100 1.390 . S
C98 C96 1.391 . S
C98 C102 1.387 1_554 S
C98 C103 1.491 . S
H99 C100 0.950 . S
C100 C97 1.390 . S
C100 H99 0.950 . S
C100 C101 1.378 1_454 S
C101 C100 1.378 1_656 S
C101 C102 1.410 . S
C102 C98 1.387 1_556 S
C102 C101 1.410 . S
C102 H104 0.951 . S
C103 C98 1.491 . S
C103 C105 1.400 . S
C103 C107 1.404 1_554 S
H104 C102 0.951 . S
C105 C103 1.400 . S
C105 C106 1.399 . S
C105 H110 0.922 1_655 S
C106 C105 1.399 . S
C106 C111 1.399 . S
C107 C103 1.404 1_556 S
C107 H108 0.950 . S
C107 C109 1.375 . S
H108 C107 0.950 . S
C109 C107 1.375 . S
C109 C111 1.382 1_556 S
C109 H113 0.950 . S
H110 C105 0.922 1_455 S
C111 C106 1.399 . S
C111 C109 1.382 1_554 S
C111 H112 0.952 . S
H112 C111 0.952 . S
H113 C109 0.950 . S
H114 C115 0.949 . S
C115 H114 0.949 . S
C115 C116 1.395 1_565 S
C115 C117 1.391 . S
C116 C115 1.395 1_545 S
C116 C119 1.394 . S
C117 C115 1.391 . S
C117 C121 1.387 1_554 S
C117 C122 1.491 . S
H118 C119 0.950 1_556 S
C119 C116 1.394 . S
C119 H118 0.950 1_554 S
C119 C120 1.373 1_544 S
C120 C119 1.373 1_566 S
C120 C121 1.410 . S
C121 C117 1.387 1_556 S
C121 C120 1.410 . S
C121 H123 0.951 . S
C122 C117 1.491 . S
C122 C124 1.400 . S
C122 C126 1.404 1_554 S
H123 C121 0.951 . S
C124 C122 1.400 . S
C124 C125 1.399 . S
C124 H129 0.922 1_565 S
C125 C124 1.399 . S
C125 C130 1.399 . S
C126 C122 1.404 1_556 S
C126 H127 0.950 . S
C126 C128 1.375 . S
H127 C126 0.950 . S
C128 C126 1.375 . S
C128 C130 1.382 1_556 S
C128 H132 0.950 . S
H129 C124 0.922 1_545 S
C130 C125 1.399 . S
C130 C128 1.382 1_554 S
C130 H131 0.952 . S
H131 C130 0.952 . S
H132 C128 0.950 . S
H133 C134 0.949 . S
C134 H133 0.949 . S
C134 C135 1.395 . S
C134 C136 1.391 . S
C135 C134 1.395 . S
C135 C138 1.380 1_554 S
C136 C134 1.391 . S
C136 C140 1.387 1_554 S
C136 C141 1.491 . S
H137 C138 0.950 . S
C138 C135 1.380 1_556 S
C138 H137 0.950 . S
C138 C139 1.388 . S
C139 C138 1.388 . S
C139 C140 1.409 . S
C140 C136 1.387 1_556 S
C140 C139 1.409 . S
C140 H142 0.951 . S
C141 C136 1.491 . S
C141 C143 1.382 . S
C141 C145 1.404 1_554 S
H142 C140 0.951 . S
C143 C141 1.382 . S
C143 C144 1.390 . S
C143 H148 0.949 . S
C144 C143 1.390 . S
C144 C149 1.399 . S
C145 C141 1.404 1_556 S
C145 H146 0.950 . S
C145 C147 1.375 . S
H146 C145 0.950 . S
C147 C145 1.375 . S
C147 C149 1.382 1_556 S
C147 H151 0.950 . S
H148 C143 0.949 . S
C149 C144 1.399 . S
C149 C147 1.382 1_554 S
C149 H150 0.952 . S
H150 C149 0.952 . S
H151 C147 0.950 . S
Tb152 C154 2.809 . S
Tb152 O172 2.484 1_455 S
Tb152 O173 2.440 . S
Tb152 O174 2.658 1_565 S
Tb152 O175 2.409 . S
Tb152 O176 2.378 . S
Tb152 O180 2.325 1_455 S
Tb152 O183 2.341 1_565 S
Tb153 C163 2.809 . S
Tb153 O174 2.325 1_655 S
Tb153 O177 2.341 1_545 S
Tb153 O178 2.484 1_655 S
Tb153 O179 2.440 . S
Tb153 O180 2.658 1_545 S
Tb153 O181 2.409 . S
Tb153 O182 2.378 . S
C154 Tb152 2.809 . S
C154 C155 1.514 . S
C154 O172 1.248 1_455 S
C154 O173 1.266 . S
C155 C154 1.514 . S
C155 C156 1.355 1_455 S
C155 C160 1.348 . S
C156 C155 1.355 1_655 S
C156 C157 1.380 1_655 S
C156 H184 0.933 . S
C157 C156 1.380 1_455 S
C157 C158 1.347 . S
C157 H185 0.931 1_455 S
C158 C157 1.347 . S
C158 C159 1.369 . S
C159 C158 1.369 . S
C159 C160 1.408 . S
C159 H186 0.930 . S
C160 C155 1.348 . S
C160 C159 1.408 . S
C160 H187 0.930 . S
C161 O174 1.264 1_565 S
C161 O175 1.278 . S
C162 O176 1.236 1_655 S
C162 O177 1.266 . S
C163 Tb153 2.809 . S
C163 C164 1.514 . S
C163 O178 1.248 1_655 S
C163 O179 1.266 . S
C164 C163 1.514 . S
C164 C165 1.343 1_655 S
C164 C169 1.348 . S
C165 C164 1.343 1_455 S
C165 C166 1.377 1_455 S
C165 H188 0.946 . S
C166 C165 1.377 1_655 S
C166 C167 1.393 . S
C166 H189 0.888 1_655 S
C167 C166 1.393 . S
C167 C168 1.369 . S
C168 C167 1.369 . S
C168 C169 1.408 . S
C168 H190 0.930 . S
C169 C164 1.348 . S
C169 C168 1.408 . S
C169 H191 0.930 . S
C170 O180 1.260 1_545 S
C170 O181 1.285 . S
C171 O182 1.236 1_455 S
C171 O183 1.266 . S
O172 Tb152 2.484 1_655 S
O172 C154 1.248 1_655 S
O173 Tb152 2.440 . S
O173 C154 1.266 . S
O174 Tb152 2.658 1_545 S
O174 Tb153 2.325 1_455 S
O174 C161 1.264 1_545 S
O175 Tb152 2.409 . S
O175 C161 1.278 . S
O176 Tb152 2.378 . S
O176 C162 1.236 1_455 S
O177 Tb153 2.341 1_565 S
O177 C162 1.266 . S
O178 Tb153 2.484 1_455 S
O178 C163 1.248 1_455 S
O179 Tb153 2.440 . S
O179 C163 1.266 . S
O180 Tb152 2.325 1_655 S
O180 Tb153 2.658 1_565 S
O180 C170 1.260 1_565 S
O181 Tb153 2.409 . S
O181 C170 1.285 . S
O182 Tb153 2.378 . S
O182 C171 1.236 1_655 S
O183 Tb152 2.341 1_545 S
O183 C171 1.266 . S
H184 C156 0.933 . S
H185 C157 0.931 1_655 S
H186 C159 0.930 . S
H187 C160 0.930 . S
H188 C165 0.946 . S
H189 C166 0.888 1_455 S
H190 C168 0.930 . S
H191 C169 0.930 . S
Tb192 C194 2.809 . S
Tb192 O212 2.484 1_545 S
Tb192 O213 2.440 . S
Tb192 O214 2.658 . S
Tb192 O215 2.409 . S
Tb192 O216 2.378 . S
Tb192 O220 2.325 1_545 S
Tb192 O223 2.341 . S
Tb193 C203 2.809 . S
Tb193 O214 2.325 1_565 S
Tb193 O217 2.341 . S
Tb193 O218 2.484 1_565 S
Tb193 O219 2.440 . S
Tb193 O220 2.658 . S
Tb193 O221 2.409 . S
Tb193 O222 2.378 . S
C194 Tb192 2.809 . S
C194 C195 1.514 . S
C194 O212 1.248 1_545 S
C194 O213 1.266 . S
C195 C194 1.514 . S
C195 C196 1.350 1_545 S
C195 C200 1.348 . S
C196 C195 1.350 1_565 S
C196 C197 1.378 1_565 S
C196 H224 0.938 . S
C197 C196 1.378 1_545 S
C197 C198 1.399 . S
C197 H225 0.882 1_545 S
C198 C197 1.399 . S
C198 C199 1.369 . S
C199 C198 1.369 . S
C199 C200 1.408 . S
C199 H226 0.930 . S
C200 C195 1.348 . S
C200 C199 1.408 . S
C200 H227 0.930 . S
C201 O214 1.281 . S
C201 O215 1.254 . S
C202 O216 1.236 1_565 S
C202 O217 1.266 . S
C203 Tb193 2.809 . S
C203 C204 1.514 . S
C203 O218 1.248 1_565 S
C203 O219 1.266 . S
C204 C203 1.514 . S
C204 C205 1.338 1_565 S
C204 C209 1.348 . S
C205 C204 1.338 1_545 S
C205 C206 1.378 1_545 S
C205 H228 0.951 . S
C206 C205 1.378 1_565 S
C206 C207 1.386 . S
C206 H229 0.894 1_565 S
C207 C206 1.386 . S
C207 C208 1.369 . S
C208 C207 1.369 . S
C208 C209 1.408 . S
C208 H230 0.930 . S
C209 C204 1.348 . S
C209 C208 1.408 . S
C209 H231 0.930 . S
C210 O220 1.281 . S
C210 O221 1.254 . S
C211 O222 1.236 1_545 S
C211 O223 1.266 . S
O212 Tb192 2.484 1_565 S
O212 C194 1.248 1_565 S
O213 Tb192 2.440 . S
O213 C194 1.266 . S
O214 Tb192 2.658 . S
O214 Tb193 2.325 1_545 S
O214 C201 1.281 . S
O215 Tb192 2.409 . S
O215 C201 1.254 . S
O216 Tb192 2.378 . S
O216 C202 1.236 1_545 S
O217 Tb193 2.341 . S
O217 C202 1.266 . S
O218 Tb193 2.484 1_545 S
O218 C203 1.248 1_545 S
O219 Tb193 2.440 . S
O219 C203 1.266 . S
O220 Tb192 2.325 1_565 S
O220 Tb193 2.658 . S
O220 C210 1.281 . S
O221 Tb193 2.409 . S
O221 C210 1.254 . S
O222 Tb193 2.378 . S
O222 C211 1.236 1_565 S
O223 Tb192 2.341 . S
O223 C211 1.266 . S
H224 C196 0.938 . S
H225 C197 0.882 1_565 S
H226 C199 0.930 . S
H227 C200 0.930 . S
H228 C205 0.951 . S
H229 C206 0.894 1_545 S
H230 C208 0.930 . S
H231 C209 0.930 . S
Tb232 C234 2.809 . S
Tb232 O252 2.484 . S
Tb232 O253 2.440 . S
Tb232 O254 2.658 . S
Tb232 O255 2.409 . S
Tb232 O256 2.378 . S
Tb232 O260 2.325 . S
Tb232 O263 2.341 . S
Tb233 C243 2.809 . S
Tb233 O254 2.325 . S
Tb233 O257 2.341 . S
Tb233 O258 2.484 . S
Tb233 O259 2.440 . S
Tb233 O260 2.658 . S
Tb233 O261 2.409 . S
Tb233 O262 2.378 . S
C234 Tb232 2.809 . S
C234 C235 1.514 . S
C234 O252 1.248 . S
C234 O253 1.266 . S
C235 C234 1.514 . S
C235 C236 1.359 . S
C235 C240 1.348 . S
C236 C235 1.359 . S
C236 C237 1.380 . S
C236 H264 0.929 . S
C237 C236 1.380 . S
C237 C238 1.347 . S
C237 H265 0.931 . S
C238 C237 1.347 . S
C238 C239 1.369 . S
C239 C238 1.369 . S
C239 C240 1.408 . S
C239 H266 0.930 . S
C240 C235 1.348 . S
C240 C239 1.408 . S
C240 H267 0.930 . S
C241 O254 1.281 . S
C241 O255 1.254 . S
C242 O256 1.236 . S
C242 O257 1.266 . S
C243 Tb233 2.809 . S
C243 C244 1.514 . S
C243 O258 1.248 . S
C243 O259 1.266 . S
C244 C243 1.514 . S
C244 C245 1.359 . S
C244 C249 1.348 . S
C245 C244 1.359 . S
C245 C246 1.380 . S
C245 H268 0.929 . S
C246 C245 1.380 . S
C246 C247 1.347 . S
C246 H269 0.931 . S
C247 C246 1.347 . S
C247 C248 1.369 . S
C248 C247 1.369 . S
C248 C249 1.408 . S
C248 H270 0.930 . S
C249 C244 1.348 . S
C249 C248 1.408 . S
C249 H271 0.930 . S
C250 O260 1.281 . S
C250 O261 1.254 . S
C251 O262 1.236 . S
C251 O263 1.266 . S
O252 Tb232 2.484 . S
O252 C234 1.248 . S
O253 Tb232 2.440 . S
O253 C234 1.266 . S
O254 Tb232 2.658 . S
O254 Tb233 2.325 . S
O254 C241 1.281 . S
O255 Tb232 2.409 . S
O255 C241 1.254 . S
O256 Tb232 2.378 . S
O256 C242 1.236 . S
O257 Tb233 2.341 . S
O257 C242 1.266 . S
O258 Tb233 2.484 . S
O258 C243 1.248 . S
O259 Tb233 2.440 . S
O259 C243 1.266 . S
O260 Tb232 2.325 . S
O260 Tb233 2.658 . S
O260 C250 1.281 . S
O261 Tb233 2.409 . S
O261 C250 1.254 . S
O262 Tb233 2.378 . S
O262 C251 1.236 . S
O263 Tb232 2.341 . S
O263 C251 1.266 . S
H264 C236 0.929 . S
H265 C237 0.931 . S
H266 C239 0.930 . S
H267 C240 0.930 . S
H268 C245 0.929 . S
H269 C246 0.931 . S
H270 C248 0.930 . S
H271 C249 0.930 . S
Tb272 C274 2.809 . S
Tb272 O292 2.484 . S
Tb272 O293 2.440 . S
Tb272 O294 2.658 1_655 S
Tb272 O295 2.409 . S
Tb272 O296 2.378 . S
Tb272 O300 2.325 . S
Tb272 O303 2.341 1_655 S
Tb273 C283 2.809 . S
Tb273 O294 2.325 . S
Tb273 O297 2.341 1_455 S
Tb273 O298 2.484 . S
Tb273 O299 2.440 . S
Tb273 O300 2.658 1_455 S
Tb273 O301 2.409 . S
Tb273 O302 2.378 . S
C274 Tb272 2.809 . S
C274 C275 1.514 . S
C274 O292 1.248 . S
C274 O293 1.266 . S
C275 C274 1.514 . S
C275 C276 1.359 . S
C275 C280 1.348 . S
C276 C275 1.359 . S
C276 C277 1.380 . S
C276 H304 0.929 . S
C277 C276 1.380 . S
C277 C278 1.347 . S
C277 H305 0.931 . S
C278 C277 1.347 . S
C278 C279 1.369 . S
C279 C278 1.369 . S
C279 C280 1.408 . S
C279 H306 0.930 . S
C280 C275 1.348 . S
C280 C279 1.408 . S
C280 H307 0.930 . S
C281 O294 1.267 1_655 S
C281 O295 1.274 . S
C282 O296 1.236 . S
C282 O297 1.266 . S
C283 Tb273 2.809 . S
C283 C284 1.514 . S
C283 O298 1.248 . S
C283 O299 1.266 . S
C284 C283 1.514 . S
C284 C285 1.359 . S
C284 C289 1.348 . S
C285 C284 1.359 . S
C285 C286 1.380 . S
C285 H308 0.929 . S
C286 C285 1.380 . S
C286 C287 1.347 . S
C286 H309 0.931 . S
C287 C286 1.347 . S
C287 C288 1.369 . S
C288 C287 1.369 . S
C288 C289 1.408 . S
C288 H310 0.930 . S
C289 C284 1.348 . S
C289 C288 1.408 . S
C289 H311 0.930 . S
C290 O300 1.262 1_455 S
C290 O301 1.281 . S
C291 O302 1.236 . S
C291 O303 1.266 . S
O292 Tb272 2.484 . S
O292 C274 1.248 . S
O293 Tb272 2.440 . S
O293 C274 1.266 . S
O294 Tb272 2.658 1_455 S
O294 Tb273 2.325 . S
O294 C281 1.267 1_455 S
O295 Tb272 2.409 . S
O295 C281 1.274 . S
O296 Tb272 2.378 . S
O296 C282 1.236 . S
O297 Tb273 2.341 1_655 S
O297 C282 1.266 . S
O298 Tb273 2.484 . S
O298 C283 1.248 . S
O299 Tb273 2.440 . S
O299 C283 1.266 . S
O300 Tb272 2.325 . S
O300 Tb273 2.658 1_655 S
O300 C290 1.262 1_655 S
O301 Tb273 2.409 . S
O301 C290 1.281 . S
O302 Tb273 2.378 . S
O302 C291 1.236 . S
O303 Tb272 2.341 1_455 S
O303 C291 1.266 . S
H304 C276 0.929 . S
H305 C277 0.931 . S
H306 C279 0.930 . S
H307 C280 0.930 . S
H308 C285 0.929 . S
H309 C286 0.931 . S
H310 C288 0.930 . S
H311 C289 0.930 . S
C312 C313 1.347 1_565 S
C312 C314 1.327 . S
C312 H337 0.950 . S
C313 C312 1.347 1_545 S
C313 C329 1.351 . S
C314 C312 1.327 . S
C314 C333 1.421 1_565 S
C314 H338 0.950 . S
C315 C332 1.574 . S
C315 C334 1.379 . S
C315 H339 0.949 . S
H316 C320 0.949 . S
C317 C318 1.373 . S
C317 C319 1.327 . S
C317 H340 0.950 . S
C318 C317 1.373 . S
C318 C330 1.325 1_545 S
C319 C317 1.327 . S
C319 C335 1.447 . S
C319 H341 0.950 . S
C320 H316 0.949 . S
C320 C328 1.574 . S
C320 C336 1.352 1_565 S
H321 C329 0.950 . S
H322 C327 0.950 . S
H323 C328 0.949 . S
H324 C330 0.950 . S
H325 C331 0.950 . S
H326 C332 0.949 . S
C327 H322 0.950 . S
C327 C329 1.327 . S
C327 C333 1.436 . S
C328 C320 1.574 . S
C328 H323 0.949 . S
C328 C334 1.357 1_565 S
C329 C313 1.351 . S
C329 H321 0.950 . S
C329 C327 1.327 . S
C330 C318 1.325 1_565 S
C330 H324 0.950 . S
C330 C331 1.327 . S
C331 H325 0.950 . S
C331 C330 1.327 . S
C331 C335 1.411 1_565 S
C332 C315 1.574 . S
C332 H326 0.949 . S
C332 C336 1.385 . S
C333 C314 1.421 1_545 S
C333 C327 1.436 . S
C333 C334 1.523 . S
C334 C315 1.379 . S
C334 C328 1.357 1_545 S
C334 C333 1.523 . S
C335 C319 1.447 . S
C335 C331 1.411 1_545 S
C335 C336 1.523 . S
C336 C320 1.352 1_545 S
C336 C332 1.385 . S
C336 C335 1.523 . S
H337 C312 0.950 . S
H338 C314 0.950 . S
H339 C315 0.949 . S
H340 C317 0.950 . S
H341 C319 0.950 . S
C342 C343 1.349 . S
C342 C344 1.327 . S
C342 H367 0.950 . S
C343 C342 1.349 . S
C343 C359 1.349 . S
C344 C342 1.327 . S
C344 C363 1.429 . S
C344 H368 0.950 . S
C345 C362 1.574 . S
C345 C364 1.368 . S
C345 H369 0.949 . S
H346 C350 0.949 . S
C347 C348 1.349 . S
C347 C349 1.327 . S
C347 H370 0.950 . S
C348 C347 1.349 . S
C348 C360 1.349 . S
C349 C347 1.327 . S
C349 C365 1.429 . S
C349 H371 0.950 . S
C350 H346 0.949 . S
C350 C358 1.574 . S
C350 C366 1.368 . S
H351 C359 0.950 . S
H352 C357 0.950 . S
H353 C358 0.949 . S
H354 C360 0.950 . S
H355 C361 0.950 . S
H356 C362 0.949 . S
C357 H352 0.950 . S
C357 C359 1.327 . S
C357 C363 1.429 . S
C358 C350 1.574 . S
C358 H353 0.949 . S
C358 C364 1.368 . S
C359 C343 1.349 . S
C359 H351 0.950 . S
C359 C357 1.327 . S
C360 C348 1.349 . S
C360 H354 0.950 . S
C360 C361 1.327 . S
C361 H355 0.950 . S
C361 C360 1.327 . S
C361 C365 1.429 . S
C362 C345 1.574 . S
C362 H356 0.949 . S
C362 C366 1.368 . S
C363 C344 1.429 . S
C363 C357 1.429 . S
C363 C364 1.523 . S
C364 C345 1.368 . S
C364 C358 1.368 . S
C364 C363 1.523 . S
C365 C349 1.429 . S
C365 C361 1.429 . S
C365 C366 1.523 . S
C366 C350 1.368 . S
C366 C362 1.368 . S
C366 C365 1.523 . S
H367 C342 0.950 . S
H368 C344 0.950 . S
H369 C345 0.949 . S
H370 C347 0.950 . S
H371 C349 0.950 . S
C372 C373 1.349 . S
C372 C374 1.327 . S
C372 H397 0.950 . S
C373 C372 1.349 . S
C373 C389 1.349 . S
C374 C372 1.327 . S
C374 C393 1.429 . S
C374 H398 0.950 . S
C375 C392 1.574 . S
C375 C394 1.368 . S
C375 H399 0.949 . S
H376 C380 0.949 . S
C377 C378 1.349 . S
C377 C379 1.327 . S
C377 H400 0.950 . S
C378 C377 1.349 . S
C378 C390 1.349 . S
C379 C377 1.327 . S
C379 C395 1.429 . S
C379 H401 0.950 . S
C380 H376 0.949 . S
C380 C388 1.574 . S
C380 C396 1.368 . S
H381 C389 0.950 . S
H382 C387 0.950 . S
H383 C388 0.949 . S
H384 C390 0.950 . S
H385 C391 0.950 . S
H386 C392 0.949 . S
C387 H382 0.950 . S
C387 C389 1.327 . S
C387 C393 1.429 . S
C388 C380 1.574 . S
C388 H383 0.949 . S
C388 C394 1.368 . S
C389 C373 1.349 . S
C389 H381 0.950 . S
C389 C387 1.327 . S
C390 C378 1.349 . S
C390 H384 0.950 . S
C390 C391 1.327 . S
C391 H385 0.950 . S
C391 C390 1.327 . S
C391 C395 1.429 . S
C392 C375 1.574 . S
C392 H386 0.949 . S
C392 C396 1.368 . S
C393 C374 1.429 . S
C393 C387 1.429 . S
C393 C394 1.523 . S
C394 C375 1.368 . S
C394 C388 1.368 . S
C394 C393 1.523 . S
C395 C379 1.429 . S
C395 C391 1.429 . S
C395 C396 1.523 . S
C396 C380 1.368 . S
C396 C392 1.368 . S
C396 C395 1.523 . S
H397 C372 0.950 . S
H398 C374 0.950 . S
H399 C375 0.949 . S
H400 C377 0.950 . S
H401 C379 0.950 . S
C402 C403 1.347 1_655 S
C402 C404 1.327 . S
C402 H427 0.950 . S
C403 C402 1.347 1_455 S
C403 C419 1.351 . S
C404 C402 1.327 . S
C404 C423 1.421 1_655 S
C404 H428 0.950 . S
C405 C422 1.574 . S
C405 C424 1.380 . S
C405 H429 0.949 . S
H406 C410 0.949 . S
C407 C408 1.374 . S
C407 C409 1.327 . S
C407 H430 0.950 . S
C408 C407 1.374 . S
C408 C420 1.324 1_455 S
C409 C407 1.327 . S
C409 C425 1.447 . S
C409 H431 0.950 . S
C410 H406 0.949 . S
C410 C418 1.574 . S
C410 C426 1.351 1_655 S
H411 C419 0.950 . S
H412 C417 0.950 . S
H413 C418 0.949 . S
H414 C420 0.950 . S
H415 C421 0.950 . S
H416 C422 0.949 . S
C417 H412 0.950 . S
C417 C419 1.327 . S
C417 C423 1.436 . S
C418 C410 1.574 . S
C418 H413 0.949 . S
C418 C424 1.357 1_655 S
C419 C403 1.351 . S
C419 H411 0.950 . S
C419 C417 1.327 . S
C420 C408 1.324 1_655 S
C420 H414 0.950 . S
C420 C421 1.327 . S
C421 H415 0.950 . S
C421 C420 1.327 . S
C421 C425 1.410 1_655 S
C422 C405 1.574 . S
C422 H416 0.949 . S
C422 C426 1.385 . S
C423 C404 1.421 1_455 S
C423 C417 1.436 . S
C423 C424 1.523 . S
C424 C405 1.380 . S
C424 C418 1.357 1_455 S
C424 C423 1.523 . S
C425 C409 1.447 . S
C425 C421 1.410 1_455 S
C425 C426 1.523 . S
C426 C410 1.351 1_455 S
C426 C422 1.385 . S
C426 C425 1.523 . S
H427 C402 0.950 . S
H428 C404 0.950 . S
H429 C405 0.949 . S
H430 C407 0.950 . S
H431 C409 0.950 . S
C432 C433 1.347 . S
C432 C434 1.327 . S
C432 H457 0.950 . S
C433 C432 1.347 . S
C433 C449 1.351 1_545 S
C434 C432 1.327 . S
C434 C453 1.432 1_545 S
C434 H458 0.950 . S
C435 C452 1.574 1_554 S
C435 C454 1.368 . S
C435 H459 0.949 . S
H436 C440 0.949 . S
C437 C438 1.361 . S
C437 C439 1.327 . S
C437 H460 0.950 . S
C438 C437 1.361 . S
C438 C450 1.336 1_565 S
C439 C437 1.327 . S
C439 C455 1.436 . S
C439 H461 0.950 . S
C440 H436 0.949 . S
C440 C448 1.574 . S
C440 C456 1.364 1_544 S
H441 C449 0.950 . S
H442 C447 0.950 . S
H443 C448 0.949 . S
H444 C450 0.950 . S
H445 C451 0.950 . S
H446 C452 0.949 . S
C447 H442 0.950 . S
C447 C449 1.327 . S
C447 C453 1.425 . S
C448 C440 1.574 . S
C448 H443 0.949 . S
C448 C454 1.369 1_545 S
C449 C433 1.351 1_565 S
C449 H441 0.950 . S
C449 C447 1.327 . S
C450 C438 1.336 1_545 S
C450 H444 0.950 . S
C450 C451 1.327 . S
C451 H445 0.950 . S
C451 C450 1.327 . S
C451 C455 1.422 1_545 S
C452 C435 1.574 1_556 S
C452 H446 0.949 . S
C452 C456 1.373 . S
C453 C434 1.432 1_565 S
C453 C447 1.425 . S
C453 C454 1.523 . S
C454 C435 1.368 . S
C454 C448 1.369 1_565 S
C454 C453 1.523 . S
C455 C439 1.436 . S
C455 C451 1.422 1_565 S
C455 C456 1.523 . S
C456 C440 1.364 1_566 S
C456 C452 1.373 . S
C456 C455 1.523 . S
H457 C432 0.950 . S
H458 C434 0.950 . S
H459 C435 0.949 . S
H460 C437 0.950 . S
H461 C439 0.950 . S
C462 C463 1.349 . S
C462 C464 1.327 . S
C462 H487 0.950 . S
C463 C462 1.349 . S
C463 C479 1.349 . S
C464 C462 1.327 . S
C464 C483 1.429 . S
C464 H488 0.950 . S
C465 C482 1.574 . S
C465 C484 1.368 . S
C465 H489 0.949 . S
H466 C470 0.949 . S
C467 C468 1.349 . S
C467 C469 1.327 . S
C467 H490 0.950 . S
C468 C467 1.349 . S
C468 C480 1.349 . S
C469 C467 1.327 . S
C469 C485 1.429 . S
C469 H491 0.950 1_556 S
C470 H466 0.949 . S
C470 C478 1.574 1_556 S
C470 C486 1.368 . S
H471 C479 0.950 . S
H472 C477 0.950 . S
H473 C478 0.949 1_556 S
H474 C480 0.950 . S
H475 C481 0.950 . S
H476 C482 0.949 . S
C477 H472 0.950 . S
C477 C479 1.327 . S
C477 C483 1.429 . S
C478 C470 1.574 1_554 S
C478 H473 0.949 1_554 S
C478 C484 1.368 . S
C479 C463 1.349 . S
C479 H471 0.950 . S
C479 C477 1.327 . S
C480 C468 1.349 . S
C480 H474 0.950 . S
C480 C481 1.327 . S
C481 H475 0.950 . S
C481 C480 1.327 . S
C481 C485 1.429 . S
C482 C465 1.574 . S
C482 H476 0.949 . S
C482 C486 1.368 1_554 S
C483 C464 1.429 . S
C483 C477 1.429 . S
C483 C484 1.523 . S
C484 C465 1.368 . S
C484 C478 1.368 . S
C484 C483 1.523 . S
C485 C469 1.429 . S
C485 C481 1.429 . S
C485 C486 1.523 . S
C486 C470 1.368 . S
C486 C482 1.368 1_556 S
C486 C485 1.523 . S
H487 C462 0.950 . S
H488 C464 0.950 . S
H489 C465 0.949 . S
H490 C467 0.950 . S
H491 C469 0.950 1_554 S
C492 C493 1.349 . S
C492 C494 1.327 . S
C492 H517 0.950 . S
C493 C492 1.349 . S
C493 C509 1.349 . S
C494 C492 1.327 . S
C494 C513 1.429 . S
C494 H518 0.950 . S
C495 C512 1.574 1_554 S
C495 C514 1.368 . S
C495 H519 0.949 . S
H496 C500 0.949 . S
C497 C498 1.349 . S
C497 C499 1.327 . S
C497 H520 0.950 . S
C498 C497 1.349 . S
C498 C510 1.349 . S
C499 C497 1.327 . S
C499 C515 1.429 . S
C499 H521 0.950 . S
C500 H496 0.949 . S
C500 C508 1.574 . S
C500 C516 1.368 1_554 S
H501 C509 0.950 . S
H502 C507 0.950 . S
H503 C508 0.949 . S
H504 C510 0.950 . S
H505 C511 0.950 . S
H506 C512 0.949 . S
C507 H502 0.950 . S
C507 C509 1.327 . S
C507 C513 1.429 . S
C508 C500 1.574 . S
C508 H503 0.949 . S
C508 C514 1.368 . S
C509 C493 1.349 . S
C509 H501 0.950 . S
C509 C507 1.327 . S
C510 C498 1.349 . S
C510 H504 0.950 . S
C510 C511 1.327 . S
C511 H505 0.950 . S
C511 C510 1.327 . S
C511 C515 1.429 . S
C512 C495 1.574 1_556 S
C512 H506 0.949 . S
C512 C516 1.368 . S
C513 C494 1.429 . S
C513 C507 1.429 . S
C513 C514 1.523 . S
C514 C495 1.368 . S
C514 C508 1.368 . S
C514 C513 1.523 . S
C515 C499 1.429 . S
C515 C511 1.429 . S
C515 C516 1.523 . S
C516 C500 1.368 1_556 S
C516 C512 1.368 . S
C516 C515 1.523 . S
H517 C492 0.950 . S
H518 C494 0.950 . S
H519 C495 0.949 . S
H520 C497 0.950 . S
H521 C499 0.950 . S
C522 C523 1.348 1_455 S
C522 C524 1.327 . S
C522 H547 0.950 . S
C523 C522 1.348 1_655 S
C523 C539 1.350 . S
C524 C522 1.327 . S
C524 C543 1.424 1_455 S
C524 H548 0.950 . S
C525 C542 1.574 . S
C525 C544 1.376 . S
C525 H549 0.949 . S
H526 C530 0.949 . S
C527 C528 1.365 . S
C527 C529 1.327 . S
C527 H550 0.950 . S
C528 C527 1.365 . S
C528 C540 1.334 1_655 S
C529 C527 1.327 . S
C529 C545 1.440 . S
C529 H551 0.950 . S
C530 H526 0.949 . S
C530 C538 1.574 1_556 S
C530 C546 1.358 1_455 S
H531 C539 0.950 . S
H532 C537 0.950 . S
H533 C538 0.949 . S
H534 C540 0.950 . S
H535 C541 0.950 . S
H536 C542 0.949 . S
C537 H532 0.950 . S
C537 C539 1.327 . S
C537 C543 1.433 . S
C538 C530 1.574 1_554 S
C538 H533 0.949 . S
C538 C544 1.361 1_455 S
C539 C523 1.350 . S
C539 H531 0.950 . S
C539 C537 1.327 . S
C540 C528 1.334 1_455 S
C540 H534 0.950 . S
C540 C541 1.327 . S
C541 H535 0.950 . S
C541 C540 1.327 . S
C541 C545 1.417 1_455 S
C542 C525 1.574 . S
C542 H536 0.949 . S
C542 C546 1.379 1_554 S
C543 C524 1.424 1_655 S
C543 C537 1.433 . S
C543 C544 1.523 . S
C544 C525 1.376 . S
C544 C538 1.361 1_655 S
C544 C543 1.523 . S
C545 C529 1.440 . S
C545 C541 1.417 1_655 S
C545 C546 1.523 . S
C546 C530 1.358 1_655 S
C546 C542 1.379 1_556 S
C546 C545 1.523 . S
H547 C522 0.950 . S
H548 C524 0.950 . S
H549 C525 0.949 . S
H550 C527 0.950 . S
H551 C529 0.950 . S
C552 C553 1.365 . S
C552 C554 1.327 . S
C552 H577 0.950 . S
C553 C552 1.365 . S
C553 C569 1.328 1_455 S
C554 C552 1.327 . S
C554 C573 1.429 1_455 S
C554 H578 0.950 . S
C555 C572 1.574 . S
C555 C574 1.368 . S
C555 H579 0.949 . S
H556 C560 0.951 1_455 S
C557 C558 1.349 . S
C557 C559 1.327 . S
C557 H580 0.950 . S
C558 C557 1.349 . S
C558 C570 1.349 . S
C559 C557 1.327 . S
C559 C575 1.429 . S
C559 H581 0.950 . S
C560 H556 0.951 1_655 S
C560 C568 1.580 . S
C560 C576 1.368 . S
H561 C569 0.950 . S
H562 C567 0.950 . S
H563 C568 0.932 1_455 S
H564 C570 0.950 . S
H565 C571 0.950 . S
H566 C572 0.949 . S
C567 H562 0.950 . S
C567 C569 1.327 . S
C567 C573 1.429 . S
C568 C560 1.580 . S
C568 H563 0.932 1_655 S
C568 C574 1.383 . S
C569 C553 1.328 1_655 S
C569 H561 0.950 . S
C569 C567 1.327 . S
C570 C558 1.349 . S
C570 H564 0.950 . S
C570 C571 1.327 . S
C571 H565 0.950 . S
C571 C570 1.327 . S
C571 C575 1.429 . S
C572 C555 1.574 . S
C572 H566 0.949 . S
C572 C576 1.368 . S
C573 C554 1.429 1_655 S
C573 C567 1.429 . S
C573 C574 1.523 . S
C574 C555 1.368 . S
C574 C568 1.383 . S
C574 C573 1.523 . S
C575 C559 1.429 . S
C575 C571 1.429 . S
C575 C576 1.523 . S
C576 C560 1.368 . S
C576 C572 1.368 . S
C576 C575 1.523 . S
H577 C552 0.950 . S
H578 C554 0.950 . S
H579 C555 0.949 . S
H580 C557 0.950 . S
H581 C559 0.950 . S
C582 C583 1.370 . S
C582 C584 1.327 . S
C582 H607 0.950 . S
C583 C582 1.370 . S
C583 C599 1.322 1_545 S
C584 C582 1.327 . S
C584 C603 1.429 1_545 S
C584 H608 0.950 . S
C585 C602 1.574 . S
C585 C604 1.368 . S
C585 H609 0.949 . S
H586 C590 0.928 1_545 S
C587 C588 1.349 . S
C587 C589 1.327 . S
C587 H610 0.950 . S
C588 C587 1.349 . S
C588 C600 1.349 . S
C589 C587 1.327 . S
C589 C605 1.429 . S
C589 H611 0.950 . S
C590 H586 0.928 1_565 S
C590 C598 1.567 1_565 S
C590 C606 1.402 . S
H591 C599 0.950 . S
H592 C597 0.950 . S
H593 C598 0.949 . S
H594 C600 0.950 . S
H595 C601 0.924 1_545 S
H596 C602 0.949 . S
C597 H592 0.950 . S
C597 C599 1.327 . S
C597 C603 1.429 . S
C598 C590 1.567 1_545 S
C598 H593 0.949 . S
C598 C604 1.368 1_545 S
C599 C583 1.322 1_565 S
C599 H591 0.950 . S
C599 C597 1.327 . S
C600 C588 1.349 . S
C600 H594 0.950 . S
C600 C601 1.327 . S
C601 H595 0.924 1_565 S
C601 C600 1.327 . S
C601 C605 1.429 . S
C602 C585 1.574 . S
C602 H596 0.949 . S
C602 C606 1.368 . S
C603 C584 1.429 1_565 S
C603 C597 1.429 . S
C603 C604 1.523 . S
C604 C585 1.368 . S
C604 C598 1.368 1_565 S
C604 C603 1.523 . S
C605 C589 1.429 . S
C605 C601 1.429 . S
C605 C606 1.523 . S
C606 C590 1.402 . S
C606 C602 1.368 . S
C606 C605 1.523 . S
H607 C582 0.950 . S
H608 C584 0.950 . S
H609 C585 0.949 . S
H610 C587 0.950 . S
H611 C589 0.950 . S
C612 C613 1.349 . S
C612 C614 1.327 . S
C612 H637 0.950 . S
C613 C612 1.349 . S
C613 C629 1.349 . S
C614 C612 1.327 . S
C614 C633 1.429 . S
C614 H638 0.950 . S
C615 C632 1.574 . S
C615 C634 1.368 . S
C615 H639 0.949 . S
H616 C620 0.949 . S
C617 C618 1.349 . S
C617 C619 1.327 . S
C617 H640 0.950 . S
C618 C617 1.349 . S
C618 C630 1.349 . S
C619 C617 1.327 . S
C619 C635 1.429 . S
C619 H641 0.950 . S
C620 H616 0.949 . S
C620 C628 1.574 . S
C620 C636 1.368 . S
H621 C629 0.950 . S
H622 C627 0.950 . S
H623 C628 0.949 . S
H624 C630 0.950 . S
H625 C631 0.950 . S
H626 C632 0.949 . S
C627 H622 0.950 . S
C627 C629 1.327 . S
C627 C633 1.429 . S
C628 C620 1.574 . S
C628 H623 0.949 . S
C628 C634 1.368 . S
C629 C613 1.349 . S
C629 H621 0.950 . S
C629 C627 1.327 . S
C630 C618 1.349 . S
C630 H624 0.950 . S
C630 C631 1.327 . S
C631 H625 0.950 . S
C631 C630 1.327 . S
C631 C635 1.429 . S
C632 C615 1.574 . S
C632 H626 0.949 . S
C632 C636 1.368 . S
C633 C614 1.429 . S
C633 C627 1.429 . S
C633 C634 1.523 . S
C634 C615 1.368 . S
C634 C628 1.368 . S
C634 C633 1.523 . S
C635 C619 1.429 . S
C635 C631 1.429 . S
C635 C636 1.523 . S
C636 C620 1.368 . S
C636 C632 1.368 . S
C636 C635 1.523 . S
H637 C612 0.950 . S
H638 C614 0.950 . S
H639 C615 0.949 . S
H640 C617 0.950 . S
H641 C619 0.950 . S
C642 C643 1.349 . S
C642 C644 1.327 . S
C642 H667 0.950 . S
C643 C642 1.349 . S
C643 C659 1.349 . S
C644 C642 1.327 . S
C644 C663 1.429 . S
C644 H668 0.950 . S
C645 C662 1.574 . S
C645 C664 1.368 . S
C645 H669 0.949 . S
H646 C650 0.949 . S
C647 C648 1.349 . S
C647 C649 1.327 . S
C647 H670 0.950 . S
C648 C647 1.349 . S
C648 C660 1.349 . S
C649 C647 1.327 . S
C649 C665 1.429 . S
C649 H671 0.950 . S
C650 H646 0.949 . S
C650 C658 1.574 . S
C650 C666 1.368 . S
H651 C659 0.950 . S
H652 C657 0.950 . S
H653 C658 0.949 . S
H654 C660 0.950 . S
H655 C661 0.950 . S
H656 C662 0.949 . S
C657 H652 0.950 . S
C657 C659 1.327 . S
C657 C663 1.429 . S
C658 C650 1.574 . S
C658 H653 0.949 . S
C658 C664 1.368 . S
C659 C643 1.349 . S
C659 H651 0.950 . S
C659 C657 1.327 . S
C660 C648 1.349 . S
C660 H654 0.950 . S
C660 C661 1.327 . S
C661 H655 0.950 . S
C661 C660 1.327 . S
C661 C665 1.429 . S
C662 C645 1.574 . S
C662 H656 0.949 . S
C662 C666 1.368 . S
C663 C644 1.429 . S
C663 C657 1.429 . S
C663 C664 1.523 . S
C664 C645 1.368 . S
C664 C658 1.368 . S
C664 C663 1.523 . S
C665 C649 1.429 . S
C665 C661 1.429 . S
C665 C666 1.523 . S
C666 C650 1.368 . S
C666 C662 1.368 . S
C666 C665 1.523 . S
H667 C642 0.950 . S
H668 C644 0.950 . S
H669 C645 0.949 . S
H670 C647 0.950 . S
H671 C649 0.950 . S
C672 C673 1.375 . S
C672 C674 1.327 . S
C672 H697 0.950 . S
C673 C672 1.375 . S
C673 C689 1.318 1_655 S
C674 C672 1.327 . S
C674 C693 1.429 1_655 S
C674 H698 0.950 . S
C675 C692 1.574 . S
C675 C694 1.368 . S
C675 H699 0.949 . S
H676 C680 0.965 . S
C677 C678 1.349 1_554 S
C677 C679 1.327 . S
C677 H700 0.950 . S
C678 C677 1.349 1_556 S
C678 C690 1.349 . S
C679 C677 1.327 . S
C679 C695 1.429 . S
C679 H701 0.950 . S
C680 H676 0.965 . S
C680 C688 1.578 . S
C680 C696 1.348 1_655 S
H681 C689 0.950 . S
H682 C687 0.950 . S
H683 C688 0.949 . S
H684 C690 0.950 . S
H685 C691 0.950 1_655 S
H686 C692 0.949 . S
C687 H682 0.950 . S
C687 C689 1.327 . S
C687 C693 1.429 . S
C688 C680 1.578 . S
C688 H683 0.949 . S
C688 C694 1.368 1_655 S
C689 C673 1.318 1_455 S
C689 H681 0.950 . S
C689 C687 1.327 . S
C690 C678 1.349 . S
C690 H684 0.950 . S
C690 C691 1.327 . S
C691 H685 0.950 1_455 S
C691 C690 1.327 . S
C691 C695 1.429 1_556 S
C692 C675 1.574 . S
C692 H686 0.949 . S
C692 C696 1.368 . S
C693 C674 1.429 1_455 S
C693 C687 1.429 . S
C693 C694 1.523 . S
C694 C675 1.368 . S
C694 C688 1.368 1_455 S
C694 C693 1.523 . S
C695 C679 1.429 . S
C695 C691 1.429 1_554 S
C695 C696 1.523 . S
C696 C680 1.348 1_455 S
C696 C692 1.368 . S
C696 C695 1.523 . S
H697 C672 0.950 . S
H698 C674 0.950 . S
H699 C675 0.949 . S
H700 C677 0.950 . S
H701 C679 0.950 . S
C702 C703 1.317 1_545 S
C702 C704 1.327 . S
C702 H727 0.950 . S
C703 C702 1.317 1_565 S
C703 C719 1.377 . S
C704 C702 1.327 . S
C704 C723 1.429 . S
C704 H728 0.950 . S
C705 C722 1.574 . S
C705 C724 1.368 1_565 S
C705 H729 0.949 . S
H706 C710 0.949 . S
C707 C708 1.349 1_554 S
C707 C709 1.324 1_545 S
C707 H730 0.950 1_545 S
C708 C707 1.349 1_556 S
C708 C720 1.349 . S
C709 C707 1.324 1_565 S
C709 C725 1.409 1_565 S
C709 H731 0.973 . S
C710 H706 0.949 . S
C710 C718 1.574 . S
C710 C726 1.368 . S
H711 C719 0.950 . S
H712 C717 0.950 . S
H713 C718 0.949 . S
H714 C720 0.950 . S
H715 C721 0.950 . S
H716 C722 0.949 . S
C717 H712 0.950 . S
C717 C719 1.327 . S
C717 C723 1.429 1_565 S
C718 C710 1.574 . S
C718 H713 0.949 . S
C718 C724 1.368 . S
C719 C703 1.377 . S
C719 H711 0.950 . S
C719 C717 1.327 . S
C720 C708 1.349 . S
C720 H714 0.950 . S
C720 C721 1.327 1_556 S
C721 H715 0.950 . S
C721 C720 1.327 1_554 S
C721 C725 1.429 . S
C722 C705 1.574 . S
C722 H716 0.949 . S
C722 C726 1.368 1_565 S
C723 C704 1.429 . S
C723 C717 1.429 1_545 S
C723 C724 1.523 . S
C724 C705 1.368 1_545 S
C724 C718 1.368 . S
C724 C723 1.523 . S
C725 C709 1.409 1_545 S
C725 C721 1.429 . S
C725 C726 1.523 . S
C726 C710 1.368 . S
C726 C722 1.368 1_545 S
C726 C725 1.523 . S
H727 C702 0.950 . S
H728 C704 0.950 . S
H729 C705 0.949 . S
H730 C707 0.950 1_565 S
H731 C709 0.973 . S
C732 C733 1.349 . S
C732 C734 1.327 . S
C732 H757 0.950 . S
C733 C732 1.349 . S
C733 C749 1.349 . S
C734 C732 1.327 . S
C734 C753 1.429 . S
C734 H758 0.950 . S
C735 C752 1.574 . S
C735 C754 1.368 . S
C735 H759 0.949 . S
H736 C740 0.949 . S
C737 C738 1.349 1_554 S
C737 C739 1.327 . S
C737 H760 0.950 . S
C738 C737 1.349 1_556 S
C738 C750 1.349 . S
C739 C737 1.327 . S
C739 C755 1.429 . S
C739 H761 0.950 . S
C740 H736 0.949 . S
C740 C748 1.574 . S
C740 C756 1.368 . S
H741 C749 0.950 . S
H742 C747 0.950 . S
H743 C748 0.949 . S
H744 C750 0.950 . S
H745 C751 0.950 . S
H746 C752 0.949 . S
C747 H742 0.950 . S
C747 C749 1.327 . S
C747 C753 1.429 . S
C748 C740 1.574 . S
C748 H743 0.949 . S
C748 C754 1.368 . S
C749 C733 1.349 . S
C749 H741 0.950 . S
C749 C747 1.327 . S
C750 C738 1.349 . S
C750 H744 0.950 . S
C750 C751 1.327 . S
C751 H745 0.950 . S
C751 C750 1.327 . S
C751 C755 1.429 1_556 S
C752 C735 1.574 . S
C752 H746 0.949 . S
C752 C756 1.368 . S
C753 C734 1.429 . S
C753 C747 1.429 . S
C753 C754 1.523 . S
C754 C735 1.368 . S
C754 C748 1.368 . S
C754 C753 1.523 . S
C755 C739 1.429 . S
C755 C751 1.429 1_554 S
C755 C756 1.523 . S
C756 C740 1.368 . S
C756 C752 1.368 . S
C756 C755 1.523 . S
H757 C732 0.950 . S
H758 C734 0.950 . S
H759 C735 0.949 . S
H760 C737 0.950 . S
H761 C739 0.950 . S
C762 C763 1.349 . S
C762 C764 1.327 . S
C762 H787 0.950 . S
C763 C762 1.349 . S
C763 C779 1.349 . S
C764 C762 1.327 . S
C764 C783 1.429 . S
C764 H788 0.950 . S
C765 C782 1.574 . S
C765 C784 1.368 . S
C765 H789 0.949 . S
H766 C770 0.949 . S
C767 C768 1.349 . S
C767 C769 1.327 1_556 S
C767 H790 0.950 . S
C768 C767 1.349 . S
C768 C780 1.349 1_556 S
C769 C767 1.327 1_554 S
C769 C785 1.429 . S
C769 H791 0.950 . S
C770 H766 0.949 . S
C770 C778 1.574 . S
C770 C786 1.368 . S
H771 C779 0.950 . S
H772 C777 0.950 . S
H773 C778 0.949 . S
H774 C780 0.950 . S
H775 C781 0.950 . S
H776 C782 0.949 . S
C777 H772 0.950 . S
C777 C779 1.327 . S
C777 C783 1.429 . S
C778 C770 1.574 . S
C778 H773 0.949 . S
C778 C784 1.368 . S
C779 C763 1.349 . S
C779 H771 0.950 . S
C779 C777 1.327 . S
C780 C768 1.349 1_554 S
C780 H774 0.950 . S
C780 C781 1.327 . S
C781 H775 0.950 . S
C781 C780 1.327 . S
C781 C785 1.429 . S
C782 C765 1.574 . S
C782 H776 0.949 . S
C782 C786 1.368 . S
C783 C764 1.429 . S
C783 C777 1.429 . S
C783 C784 1.523 . S
C784 C765 1.368 . S
C784 C778 1.368 . S
C784 C783 1.523 . S
C785 C769 1.429 . S
C785 C781 1.429 . S
C785 C786 1.523 . S
C786 C770 1.368 . S
C786 C782 1.368 . S
C786 C785 1.523 . S
H787 C762 0.950 . S
H788 C764 0.950 . S
H789 C765 0.949 . S
H790 C767 0.950 . S
H791 C769 0.950 . S
C792 C793 1.324 1_655 S
C792 C794 1.327 . S
C792 H817 0.950 . S
C793 C792 1.324 1_455 S
C793 C809 1.376 . S
C794 C792 1.327 . S
C794 C813 1.429 1_655 S
C794 H818 0.950 . S
C795 C812 1.574 . S
C795 C814 1.368 . S
C795 H819 0.949 . S
H796 C800 0.949 . S
C797 C798 1.349 . S
C797 C799 1.327 . S
C797 H820 0.950 . S
C798 C797 1.349 . S
C798 C810 1.349 1_455 S
C799 C797 1.327 . S
C799 C815 1.429 . S
C799 H821 0.950 . S
C800 H796 0.949 . S
C800 C808 1.574 . S
C800 C816 1.368 1_655 S
H801 C809 0.950 . S
H802 C807 0.950 . S
H803 C808 0.949 . S
H804 C810 0.950 . S
H805 C811 0.950 . S
H806 C812 0.949 . S
C807 H802 0.950 . S
C807 C809 1.327 . S
C807 C813 1.429 . S
C808 C800 1.574 . S
C808 H803 0.949 . S
C808 C814 1.368 1_655 S
C809 C793 1.376 . S
C809 H801 0.950 . S
C809 C807 1.327 . S
C810 C798 1.349 1_655 S
C810 H804 0.950 . S
C810 C811 1.327 . S
C811 H805 0.950 . S
C811 C810 1.327 . S
C811 C815 1.429 1_655 S
C812 C795 1.574 . S
C812 H806 0.949 . S
C812 C816 1.368 . S
C813 C794 1.429 1_455 S
C813 C807 1.429 . S
C813 C814 1.523 . S
C814 C795 1.368 . S
C814 C808 1.368 1_455 S
C814 C813 1.523 . S
C815 C799 1.429 . S
C815 C811 1.429 1_455 S
C815 C816 1.523 . S
C816 C800 1.368 1_455 S
C816 C812 1.368 . S
C816 C815 1.523 . S
H817 C792 0.950 . S
H818 C794 0.950 . S
H819 C795 0.949 . S
H820 C797 0.950 . S
H821 C799 0.950 . S
C822 C823 1.387 . S
C822 C824 1.327 . S
C822 H847 0.950 . S
C823 C822 1.387 . S
C823 C839 1.313 1_545 S
C824 C822 1.327 . S
C824 C843 1.429 . S
C824 H848 0.950 . S
C825 C842 1.574 . S
C825 C844 1.368 1_565 S
C825 H849 0.949 . S
H826 C830 0.949 . S
C827 C828 1.349 1_565 S
C827 C829 1.327 . S
C827 H850 0.950 . S
C828 C827 1.349 1_545 S
C828 C840 1.349 . S
C829 C827 1.327 . S
C829 C845 1.429 1_565 S
C829 H851 0.950 . S
C830 H826 0.949 . S
C830 C838 1.574 . S
C830 C846 1.368 . S
H831 C839 0.950 . S
H832 C837 0.950 . S
H833 C838 0.949 . S
H834 C840 0.950 . S
H835 C841 0.950 . S
H836 C842 0.949 . S
C837 H832 0.950 . S
C837 C839 1.327 . S
C837 C843 1.429 1_565 S
C838 C830 1.574 . S
C838 H833 0.949 . S
C838 C844 1.368 . S
C839 C823 1.313 1_565 S
C839 H831 0.950 . S
C839 C837 1.327 . S
C840 C828 1.349 . S
C840 H834 0.950 . S
C840 C841 1.327 . S
C841 H835 0.950 . S
C841 C840 1.327 . S
C841 C845 1.429 . S
C842 C825 1.574 . S
C842 H836 0.949 . S
C842 C846 1.368 1_565 S
C843 C824 1.429 . S
C843 C837 1.429 1_545 S
C843 C844 1.523 . S
C844 C825 1.368 1_545 S
C844 C838 1.368 . S
C844 C843 1.523 . S
C845 C829 1.429 1_545 S
C845 C841 1.429 . S
C845 C846 1.523 . S
C846 C830 1.368 . S
C846 C842 1.368 1_545 S
C846 C845 1.523 . S
H847 C822 0.950 . S
H848 C824 0.950 . S
H849 C825 0.949 . S
H850 C827 0.950 . S
H851 C829 0.950 . S
C852 C853 1.349 . S
C852 C854 1.327 . S
C852 H877 0.950 . S
C853 C852 1.349 . S
C853 C869 1.349 . S
C854 C852 1.327 . S
C854 C873 1.429 . S
C854 H878 0.950 . S
C855 C872 1.574 . S
C855 C874 1.368 . S
C855 H879 0.949 . S
H856 C860 0.949 . S
C857 C858 1.349 . S
C857 C859 1.327 . S
C857 H880 0.950 . S
C858 C857 1.349 . S
C858 C870 1.349 . S
C859 C857 1.327 . S
C859 C875 1.429 . S
C859 H881 0.950 . S
C860 H856 0.949 . S
C860 C868 1.574 . S
C860 C876 1.368 . S
H861 C869 0.950 . S
H862 C867 0.950 . S
H863 C868 0.949 . S
H864 C870 0.950 . S
H865 C871 0.950 . S
H866 C872 0.949 . S
C867 H862 0.950 . S
C867 C869 1.327 . S
C867 C873 1.429 . S
C868 C860 1.574 . S
C868 H863 0.949 . S
C868 C874 1.368 . S
C869 C853 1.349 . S
C869 H861 0.950 . S
C869 C867 1.327 . S
C870 C858 1.349 . S
C870 H864 0.950 . S
C870 C871 1.327 . S
C871 H865 0.950 . S
C871 C870 1.327 . S
C871 C875 1.429 . S
C872 C855 1.574 . S
C872 H866 0.949 . S
C872 C876 1.368 . S
C873 C854 1.429 . S
C873 C867 1.429 . S
C873 C874 1.523 . S
C874 C855 1.368 . S
C874 C868 1.368 . S
C874 C873 1.523 . S
C875 C859 1.429 . S
C875 C871 1.429 . S
C875 C876 1.523 . S
C876 C860 1.368 . S
C876 C872 1.368 . S
C876 C875 1.523 . S
H877 C852 0.950 . S
H878 C854 0.950 . S
H879 C855 0.949 . S
H880 C857 0.950 . S
H881 C859 0.950 . S
C882 C883 1.349 . S
C882 C884 1.327 . S
C882 H907 0.950 . S
C883 C882 1.349 . S
C883 C899 1.349 . S
C884 C882 1.327 . S
C884 C903 1.429 . S
C884 H908 0.950 . S
C885 C902 1.574 . S
C885 C904 1.368 . S
C885 H909 0.949 . S
H886 C890 0.949 . S
C887 C888 1.349 . S
C887 C889 1.327 . S
C887 H910 0.950 . S
C888 C887 1.349 . S
C888 C900 1.349 . S
C889 C887 1.327 . S
C889 C905 1.429 . S
C889 H911 0.950 . S
C890 H886 0.949 . S
C890 C898 1.574 . S
C890 C906 1.368 . S
H891 C899 0.950 . S
H892 C897 0.950 . S
H893 C898 0.949 . S
H894 C900 0.950 . S
H895 C901 0.950 . S
H896 C902 0.949 . S
C897 H892 0.950 . S
C897 C899 1.327 . S
C897 C903 1.429 . S
C898 C890 1.574 . S
C898 H893 0.949 . S
C898 C904 1.368 . S
C899 C883 1.349 . S
C899 H891 0.950 . S
C899 C897 1.327 . S
C900 C888 1.349 . S
C900 H894 0.950 . S
C900 C901 1.327 . S
C901 H895 0.950 . S
C901 C900 1.327 . S
C901 C905 1.429 . S
C902 C885 1.574 . S
C902 H896 0.949 . S
C902 C906 1.368 . S
C903 C884 1.429 . S
C903 C897 1.429 . S
C903 C904 1.523 . S
C904 C885 1.368 . S
C904 C898 1.368 . S
C904 C903 1.523 . S
C905 C889 1.429 . S
C905 C901 1.429 . S
C905 C906 1.523 . S
C906 C890 1.368 . S
C906 C902 1.368 . S
C906 C905 1.523 . S
H907 C882 0.950 . S
H908 C884 0.950 . S
H909 C885 0.949 . S
H910 C887 0.950 . S
H911 C889 0.950 . S
C912 C913 1.371 . S
C912 C914 1.327 . S
C912 H937 0.950 . S
C913 C912 1.371 . S
C913 C929 1.329 1_655 S
C914 C912 1.327 . S
C914 C933 1.429 . S
C914 H938 0.950 . S
C915 C932 1.574 . S
C915 C934 1.368 1_455 S
C915 H939 0.949 . S
H916 C920 0.949 . S
C917 C918 1.349 1_455 S
C917 C919 1.327 . S
C917 H940 0.950 . S
C918 C917 1.349 1_655 S
C918 C930 1.349 . S
C919 C917 1.327 . S
C919 C935 1.429 1_455 S
C919 H941 0.950 . S
C920 H916 0.949 . S
C920 C928 1.574 . S
C920 C936 1.368 . S
H921 C929 0.950 . S
H922 C927 0.950 . S
H923 C928 0.949 . S
H924 C930 0.950 . S
H925 C931 0.950 . S
H926 C932 0.949 . S
C927 H922 0.950 . S
C927 C929 1.327 . S
C927 C933 1.429 1_455 S
C928 C920 1.574 . S
C928 H923 0.949 . S
C928 C934 1.368 . S
C929 C913 1.329 1_455 S
C929 H921 0.950 . S
C929 C927 1.327 . S
C930 C918 1.349 . S
C930 H924 0.950 . S
C930 C931 1.327 . S
C931 H925 0.950 . S
C931 C930 1.327 . S
C931 C935 1.429 . S
C932 C915 1.574 . S
C932 H926 0.949 . S
C932 C936 1.368 1_455 S
C933 C914 1.429 . S
C933 C927 1.429 1_655 S
C933 C934 1.523 . S
C934 C915 1.368 1_655 S
C934 C928 1.368 . S
C934 C933 1.523 . S
C935 C919 1.429 1_655 S
C935 C931 1.429 . S
C935 C936 1.523 . S
C936 C920 1.368 . S
C936 C932 1.368 1_655 S
C936 C935 1.523 . S
H937 C912 0.950 . S
H938 C914 0.950 . S
H939 C915 0.949 . S
H940 C917 0.950 . S
H941 C919 0.950 . S
C942 C943 1.351 . S
C942 C944 1.327 . S
C942 H967 0.950 . S
C943 C942 1.351 . S
C943 C959 1.349 . S
C944 C942 1.327 . S
C944 C963 1.429 . S
C944 H968 0.950 . S
C945 C962 1.574 . S
C945 C964 1.368 . S
C945 H969 0.949 . S
H946 C950 0.949 . S
C947 C948 1.349 . S
C947 C949 1.327 . S
C947 H970 0.950 . S
C948 C947 1.349 . S
C948 C960 1.349 . S
C949 C947 1.327 . S
C949 C965 1.429 . S
C949 H971 0.950 . S
C950 H946 0.949 . S
C950 C958 1.574 . S
C950 C966 1.368 . S
H951 C959 0.949 1_545 S
H952 C957 0.949 . S
H953 C958 0.949 . S
H954 C960 0.950 . S
H955 C961 0.950 . S
H956 C962 0.949 . S
C957 H952 0.949 . S
C957 C959 1.326 . S
C957 C963 1.432 . S
C958 C950 1.574 . S
C958 H953 0.949 . S
C958 C964 1.368 . S
C959 C943 1.349 . S
C959 H951 0.949 1_565 S
C959 C957 1.326 . S
C960 C948 1.349 . S
C960 H954 0.950 . S
C960 C961 1.327 . S
C961 H955 0.950 . S
C961 C960 1.327 . S
C961 C965 1.429 . S
C962 C945 1.574 . S
C962 H956 0.949 . S
C962 C966 1.368 . S
C963 C944 1.429 . S
C963 C957 1.432 . S
C963 C964 1.523 . S
C964 C945 1.368 . S
C964 C958 1.368 . S
C964 C963 1.523 . S
C965 C949 1.429 . S
C965 C961 1.429 . S
C965 C966 1.523 . S
C966 C950 1.368 . S
C966 C962 1.368 . S
C966 C965 1.523 . S
H967 C942 0.950 . S
H968 C944 0.950 . S
H969 C945 0.949 . S
H970 C947 0.950 . S
H971 C949 0.950 . S
C972 C973 1.349 . S
C972 C974 1.327 . S
C972 H997 0.950 . S
C973 C972 1.349 . S
C973 C989 1.349 . S
C974 C972 1.327 . S
C974 C993 1.429 . S
C974 H998 0.950 . S
C975 C992 1.574 . S
C975 C994 1.368 . S
C975 H999 0.949 . S
H976 C980 0.949 . S
C977 C978 1.349 . S
C977 C979 1.327 . S
C977 H1000 0.950 . S
C978 C977 1.349 . S
C978 C990 1.349 . S
C979 C977 1.327 . S
C979 C995 1.429 . S
C979 H1001 0.950 . S
C980 H976 0.949 . S
C980 C988 1.574 . S
C980 C996 1.368 . S
H981 C989 0.950 . S
H982 C987 0.950 . S
H983 C988 0.949 . S
H984 C990 0.950 . S
H985 C991 0.950 . S
H986 C992 0.949 . S
C987 H982 0.950 . S
C987 C989 1.327 . S
C987 C993 1.429 . S
C988 C980 1.574 . S
C988 H983 0.949 . S
C988 C994 1.368 . S
C989 C973 1.349 . S
C989 H981 0.950 . S
C989 C987 1.327 . S
C990 C978 1.349 . S
C990 H984 0.950 . S
C990 C991 1.327 . S
C991 H985 0.950 . S
C991 C990 1.327 . S
C991 C995 1.429 . S
C992 C975 1.574 . S
C992 H986 0.949 . S
C992 C996 1.368 . S
C993 C974 1.429 . S
C993 C987 1.429 . S
C993 C994 1.523 . S
C994 C975 1.368 . S
C994 C988 1.368 . S
C994 C993 1.523 . S
C995 C979 1.429 . S
C995 C991 1.429 . S
C995 C996 1.523 . S
C996 C980 1.368 . S
C996 C992 1.368 . S
C996 C995 1.523 . S
H997 C972 0.950 . S
H998 C974 0.950 . S
H999 C975 0.949 . S
H1000 C977 0.950 . S
H1001 C979 0.950 . S
C1002 C1003 1.349 . S
C1002 C1004 1.327 . S
C1002 H1027 0.950 . S
C1003 C1002 1.349 . S
C1003 C1019 1.349 . S
C1004 C1002 1.327 . S
C1004 C1023 1.429 . S
C1004 H1028 0.950 . S
C1005 C1022 1.574 . S
C1005 C1024 1.368 . S
C1005 H1029 0.949 . S
H1006 C1010 0.949 . S
C1007 C1008 1.349 . S
C1007 C1009 1.327 . S
C1007 H1030 0.950 . S
C1008 C1007 1.349 . S
C1008 C1020 1.349 . S
C1009 C1007 1.327 . S
C1009 C1025 1.429 . S
C1009 H1031 0.950 . S
C1010 H1006 0.949 . S
C1010 C1018 1.574 . S
C1010 C1026 1.368 . S
H1011 C1019 0.950 . S
H1012 C1017 0.950 . S
H1013 C1018 0.949 . S
H1014 C1020 0.950 . S
H1015 C1021 0.950 . S
H1016 C1022 0.949 . S
C1017 H1012 0.950 . S
C1017 C1019 1.327 . S
C1017 C1023 1.429 . S
C1018 C1010 1.574 . S
C1018 H1013 0.949 . S
C1018 C1024 1.368 . S
C1019 C1003 1.349 . S
C1019 H1011 0.950 . S
C1019 C1017 1.327 . S
C1020 C1008 1.349 . S
C1020 H1014 0.950 . S
C1020 C1021 1.327 . S
C1021 H1015 0.950 . S
C1021 C1020 1.327 . S
C1021 C1025 1.429 . S
C1022 C1005 1.574 . S
C1022 H1016 0.949 . S
C1022 C1026 1.368 . S
C1023 C1004 1.429 . S
C1023 C1017 1.429 . S
C1023 C1024 1.523 . S
C1024 C1005 1.368 . S
C1024 C1018 1.368 . S
C1024 C1023 1.523 . S
C1025 C1009 1.429 . S
C1025 C1021 1.429 . S
C1025 C1026 1.523 . S
C1026 C1010 1.368 . S
C1026 C1022 1.368 . S
C1026 C1025 1.523 . S
H1027 C1002 0.950 . S
H1028 C1004 0.950 . S
H1029 C1005 0.949 . S
H1030 C1007 0.950 . S
H1031 C1009 0.950 . S
C313 C125 1.803 1_545 S
C318 C161 1.834 1_545 S
C348 C201 1.845 . S
C343 C144 1.804 . S
C378 C241 1.847 . S
C373 C87 1.811 . S
C408 C281 1.841 1_455 S
C403 C106 1.805 1_455 S
C438 C170 1.840 1_565 S
C433 C49 1.811 1_545 S
C463 C68 1.805 . S
C468 C210 1.850 . S
C493 C11 1.806 . S
C498 C250 1.847 . S
C523 C30 1.805 . S
C528 C290 1.841 1_655 S
C558 C167 0.375 . S
C553 C97 0.462 . S
C588 C207 0.379 . S
C583 C116 0.465 . S
C618 C247 0.384 . S
C613 C135 0.471 . S
C643 C78 0.468 . S
C648 C287 0.374 . S
C673 C21 0.462 . S
C678 C158 0.376 . S
C708 C198 0.380 . S
C703 C40 0.466 . S
C738 C238 0.384 . S
C733 C59 0.470 . S
C763 C2 0.467 . S
C768 C278 0.384 . S
C793 C101 1.938 1_455 S
C798 C171 2.101 . S
C823 C120 1.930 1_545 S
C828 C211 2.100 . S
C858 C251 2.095 . S
C853 C139 1.926 . S
C888 C291 2.103 . S
C883 C82 1.928 . S
C913 C25 1.938 . S
C918 C162 2.117 . S
C948 C202 2.100 . S
C943 C44 1.930 . S
C978 C242 2.095 . S
C973 C63 1.925 . S
C1003 C6 1.933 . S
C1008 C282 2.110 . S
