# Generated by pormake.
# Topology anh, (6,3)-cn, num edge types: 1
# Building blocks:
#     Node 0, Type 0, BuildingBlock: MIFKUJ_clean_sbu_0, # of connection points: 6
#     Node 1, Type 0, BuildingBlock: MIFKUJ_clean_sbu_0, # of connection points: 6
#     Node 2, Type 0, BuildingBlock: MIFKUJ_clean_sbu_0, # of connection points: 6
#     Node 3, Type 1, BuildingBlock: CUQRIR_clean_linker_1, # of connection points: 3
#     Node 4, Type 1, BuildingBlock: CUQRIR_clean_linker_1, # of connection points: 3
#     Node 5, Type 1, BuildingBlock: CUQRIR_clean_linker_1, # of connection points: 3
#     Node 6, Type 1, BuildingBlock: CUQRIR_clean_linker_1, # of connection points: 3
#     Node 7, Type 1, BuildingBlock: CUQRIR_clean_linker_1, # of connection points: 3
#     Node 8, Type 1, BuildingBlock: CUQRIR_clean_linker_1, # of connection points: 3
#     Edge 9, Type (0, 1), BuildingBlock: FUNLAD_clean_linker_1, # of connection points: 2
#     Edge 10, Type (0, 1), BuildingBlock: FUNLAD_clean_linker_1, # of connection points: 2
#     Edge 11, Type (0, 1), BuildingBlock: FUNLAD_clean_linker_1, # of connection points: 2
#     Edge 12, Type (0, 1), BuildingBlock: FUNLAD_clean_linker_1, # of connection points: 2
#     Edge 13, Type (0, 1), BuildingBlock: FUNLAD_clean_linker_1, # of connection points: 2
#     Edge 14, Type (0, 1), BuildingBlock: FUNLAD_clean_linker_1, # of connection points: 2
#     Edge 15, Type (0, 1), BuildingBlock: FUNLAD_clean_linker_1, # of connection points: 2
#     Edge 16, Type (0, 1), BuildingBlock: FUNLAD_clean_linker_1, # of connection points: 2
#     Edge 17, Type (0, 1), BuildingBlock: FUNLAD_clean_linker_1, # of connection points: 2
#     Edge 18, Type (0, 1), BuildingBlock: FUNLAD_clean_linker_1, # of connection points: 2
#     Edge 19, Type (0, 1), BuildingBlock: FUNLAD_clean_linker_1, # of connection points: 2
#     Edge 20, Type (0, 1), BuildingBlock: FUNLAD_clean_linker_1, # of connection points: 2
#     Edge 21, Type (0, 1), BuildingBlock: FUNLAD_clean_linker_1, # of connection points: 2
#     Edge 22, Type (0, 1), BuildingBlock: FUNLAD_clean_linker_1, # of connection points: 2
#     Edge 23, Type (0, 1), BuildingBlock: FUNLAD_clean_linker_1, # of connection points: 2
#     Edge 24, Type (0, 1), BuildingBlock: FUNLAD_clean_linker_1, # of connection points: 2
#     Edge 25, Type (0, 1), BuildingBlock: FUNLAD_clean_linker_1, # of connection points: 2
#     Edge 26, Type (0, 1), BuildingBlock: FUNLAD_clean_linker_1, # of connection points: 2
# Relax obj value: 0.118
# Max RMSD: 0.214
# Mean RMSD: 0.153
data_MOF--net-anh--node1-MIFKUJ_clean_sbu_0--node2-CUQRIR_clean_linker_1--edge1-FUNLAD_clean_linker_1
_symmetry_space_group_name_H-M    P1
_symmetry_Int_Tables_number       1
_symmetry_cell_setting            triclinic
loop_
_symmetry_equiv_pos_as_xyz
'x, y, z'
_cell_length_a     30.630155
_cell_length_b     30.719619
_cell_length_c     46.048079
_cell_angle_alpha  89.469031
_cell_angle_beta   90.831344
_cell_angle_gamma 120.18585
loop_
_atom_site_label
_atom_site_type_symbol
_atom_site_fract_x
_atom_site_fract_y
_atom_site_fract_z
_atom_type_partial_charge
Zn0 Zn 0.04606 0.48809 0.17389 0.0
Zn1 Zn 0.88994 0.42505 0.17276 0.0
C2 C 0.1288 0.47974 0.19763 0.0
O3 O 0.11269 0.4883 0.22199 0.0
C4 C 0.82624 0.4628 0.15184 0.0
O5 O 0.83138 0.44443 0.12729 0.0
O6 O 0.08033 0.56292 0.17765 0.0
O7 O 0.01273 0.47205 0.13517 0.0
O8 O 0.93002 0.44359 0.13522 0.0
C9 C 0.11339 0.58743 0.15858 0.0
O10 O 0.11952 0.56289 0.13727 0.0
O11 O 0.10438 0.47487 0.17413 0.0
C12 C 0.80592 0.33068 0.18882 0.0
O13 O 0.80733 0.35732 0.21136 0.0
O14 O 0.83802 0.3517 0.16879 0.0
O15 O 0.92263 0.42968 0.21225 0.0
O16 O 0.00514 0.45834 0.20922 0.0
O17 O 0.84947 0.46069 0.17442 0.0
C18 C 0.97122 0.45808 0.12189 0.0
C19 C 0.96469 0.43944 0.22357 0.0
Zn20 Zn 0.65659 0.09651 0.49676 0.0
Zn21 Zn 0.61851 0.95906 0.50092 0.0
C22 C 0.75922 0.17353 0.50097 0.0
O23 O 0.73806 0.19092 0.51847 0.0
C24 C 0.52579 0.87505 0.47897 0.0
O25 O 0.55714 0.86171 0.46874 0.0
O26 O 0.64013 0.15188 0.49369 0.0
O27 O 0.61623 0.04937 0.46466 0.0
O28 O 0.6503 0.00094 0.46491 0.0
C29 C 0.6534 0.18028 0.47141 0.0
O30 O 0.67664 0.1722 0.45022 0.0
O31 O 0.73201 0.1305 0.48935 0.0
C32 C 0.61864 0.87576 0.52584 0.0
O33 O 0.58437 0.87832 0.54141 0.0
O34 O 0.6422 0.90915 0.50661 0.0
O35 O 0.62657 0.99222 0.5399 0.0
O36 O 0.64129 0.07083 0.53765 0.0
O37 O 0.54317 0.91634 0.49273 0.0
C38 C 0.62548 0.01849 0.45203 0.0
C39 C 0.63257 0.03184 0.55205 0.0
Zn40 Zn 0.60426 0.58175 0.82585 0.0
Zn41 Zn 0.50995 0.64502 0.82549 0.0
C42 C 0.60011 0.48999 0.84183 0.0
O43 O 0.64117 0.52168 0.85615 0.0
C44 C 0.51335 0.72853 0.79871 0.0
O45 O 0.48541 0.69232 0.78036 0.0
O46 O 0.67916 0.6108 0.82185 0.0
O47 O 0.57798 0.59605 0.78929 0.0
O48 O 0.52509 0.62559 0.78683 0.0
C49 C 0.69504 0.59764 0.80015 0.0
O50 O 0.66285 0.56953 0.77986 0.0
O51 O 0.57564 0.50658 0.82756 0.0
C52 C 0.41614 0.61252 0.85395 0.0
O53 O 0.44665 0.63313 0.87635 0.0
O54 O 0.43438 0.6107 0.8297 0.0
O55 O 0.53973 0.63482 0.86277 0.0
O56 O 0.59071 0.60274 0.86406 0.0
O57 O 0.53096 0.71839 0.82133 0.0
C58 C 0.55161 0.60998 0.77478 0.0
C59 C 0.56714 0.62128 0.87664 0.0
C60 C 0.48634 0.93517 0.19744 0.0
N61 N 0.52198 0.96074 0.21812 0.0
N62 N 0.45746 0.88618 0.20523 0.0
C63 C 0.47895 0.95836 0.17025 0.0
C64 C 0.47666 0.88295 0.23126 0.0
N65 N 0.51513 0.9285 0.23936 0.0
C66 C 0.45766 0.83538 0.2488 0.0
H67 H 0.47947 0.99373 0.17569 0.0
H68 H 0.44326 0.93256 0.15873 0.0
H69 H 0.51049 0.96788 0.15523 0.0
H70 H 0.48911 0.83572 0.26125 0.0
H71 H 0.43946 0.80155 0.23475 0.0
H72 H 0.42924 0.83287 0.26442 0.0
C73 C 0.56212 0.48659 0.52233 0.0
N74 N 0.563 0.51619 0.54414 0.0
N75 N 0.5804 0.45693 0.53172 0.0
C76 C 0.54644 0.48899 0.49161 0.0
C77 C 0.59216 0.46931 0.56 0.0
N78 N 0.58158 0.5053 0.56753 0.0
C79 C 0.61275 0.44536 0.58045 0.0
H80 H 0.51323 0.49439 0.49137 0.0
H81 H 0.53748 0.45442 0.47942 0.0
H82 H 0.57789 0.52194 0.48064 0.0
H83 H 0.65443 0.46957 0.5817 0.0
H84 H 0.60323 0.40738 0.5729 0.0
H85 H 0.59781 0.4423 0.60261 0.0
C86 C 0.05612 0.61016 0.86545 0.0
N87 N 0.07538 0.59654 0.88825 0.0
N88 N 0.02057 0.62045 0.8747 0.0
C89 C 0.07002 0.61136 0.83413 0.0
C90 C 0.01799 0.6118 0.90358 0.0
N91 N 0.05031 0.59584 0.91175 0.0
C92 C 0.98472 0.62056 0.92362 0.0
H93 H 0.10105 0.64975 0.82871 0.0
H94 H 0.03771 0.60285 0.81946 0.0
H95 H 0.08278 0.58397 0.83008 0.0
H96 H 0.94698 0.586 0.92445 0.0
H97 H 0.97936 0.65168 0.91551 0.0
H98 H 0.00104 0.62992 0.94588 0.0
C99 C 0.13066 0.52529 0.46478 0.0
N100 N 0.08502 0.50103 0.45093 0.0
N101 N 0.16099 0.57089 0.45241 0.0
C102 C 0.14467 0.50701 0.49176 0.0
C103 C 0.13239 0.57361 0.43056 0.0
N104 N 0.0864 0.53149 0.42982 0.0
C105 C 0.15129 0.61502 0.40818 0.0
H106 H 0.11222 0.48934 0.5067 0.0
H107 H 0.17726 0.53836 0.50323 0.0
H108 H 0.15524 0.47867 0.48575 0.0
H109 H 0.1898 0.62503 0.40132 0.0
H110 H 0.15307 0.64876 0.41791 0.0
H111 H 0.12637 0.60453 0.38875 0.0
C112 C 0.53959 0.10699 0.80019 0.0
N113 N 0.54511 0.07718 0.78091 0.0
N114 N 0.52374 0.13589 0.78658 0.0
C115 C 0.55051 0.1083 0.8322 0.0
C116 C 0.519 0.122 0.75837 0.0
N117 N 0.53246 0.0867 0.75483 0.0
C118 C 0.5017 0.14337 0.73429 0.0
H119 H 0.53359 0.06933 0.8408 0.0
H120 H 0.53579 0.12906 0.84441 0.0
H121 H 0.59198 0.12696 0.83566 0.0
H122 H 0.53502 0.17677 0.72495 0.0
H123 H 0.47538 0.15499 0.74273 0.0
H124 H 0.48232 0.11551 0.71671 0.0
C125 C 0.51743 0.55641 0.14225 0.0
N126 N 0.55229 0.56545 0.12156 0.0
N127 N 0.4818 0.56653 0.13178 0.0
C128 C 0.52174 0.54471 0.17361 0.0
C129 C 0.49694 0.58339 0.10448 0.0
N130 N 0.53921 0.58192 0.09807 0.0
C131 C 0.47098 0.60285 0.08459 0.0
H132 H 0.50214 0.50328 0.17664 0.0
H133 H 0.50378 0.55998 0.18789 0.0
H134 H 0.56189 0.56095 0.18029 0.0
H135 H 0.45852 0.62545 0.09688 0.0
H136 H 0.43696 0.57041 0.07483 0.0
H137 H 0.49606 0.62696 0.06705 0.0
H138 H 0.19437 0.47973 0.21824 0.0
C139 C 0.17766 0.48109 0.19751 0.0
H140 H 0.1874 0.48999 0.15215 0.0
H141 H 0.42447 0.58824 0.19928 0.0
H142 H 0.41185 0.6503 0.22419 0.0
H143 H 0.3281 0.64313 0.22467 0.0
H144 H 0.25602 0.57331 0.20104 0.0
C145 C 0.20384 0.48868 0.17299 0.0
C146 C 0.25504 0.4941 0.17296 0.0
C147 C 0.29708 0.53651 0.18598 0.0
C148 C 0.34616 0.54245 0.18421 0.0
C149 C 0.38695 0.58339 0.19879 0.0
C150 C 0.38016 0.61904 0.21334 0.0
C151 C 0.33289 0.61485 0.21371 0.0
C152 C 0.29172 0.57426 0.20021 0.0
H153 H 0.42354 0.58605 0.13923 0.0
C154 C 0.43671 0.56027 0.1452 0.0
H155 H 0.4163 0.49077 0.16515 0.0
H156 H 0.18238 0.4068 0.14766 0.0
H157 H 0.19581 0.34667 0.12127 0.0
H158 H 0.28156 0.35985 0.1155 0.0
H159 H 0.35424 0.43276 0.13629 0.0
C160 C 0.40601 0.51927 0.16091 0.0
C161 C 0.3538 0.50801 0.1678 0.0
C162 C 0.31163 0.46498 0.15546 0.0
C163 C 0.26224 0.45789 0.15824 0.0
C164 C 0.2208 0.41448 0.14581 0.0
C165 C 0.22793 0.37957 0.13066 0.0
C166 C 0.27619 0.38696 0.12744 0.0
C167 C 0.31767 0.42908 0.13957 0.0
H168 H 0.83108 0.18882 0.48095 0.0
C169 C 0.81283 0.20551 0.49291 0.0
H170 H 0.81983 0.27168 0.51084 0.0
H171 H 0.05126 0.40943 0.52381 0.0
H172 H 0.02707 0.38829 0.57419 0.0
H173 H 0.94109 0.32114 0.5868 0.0
H174 H 0.87879 0.27497 0.54916 0.0
C175 C 0.83807 0.25523 0.49864 0.0
C176 C 0.89176 0.28979 0.49047 0.0
C177 C 0.92809 0.31587 0.51272 0.0
C178 C 0.97778 0.35448 0.50549 0.0
C179 C 0.01294 0.38025 0.52815 0.0
C180 C 0.9996 0.36827 0.55714 0.0
C181 C 0.9512 0.33046 0.56424 0.0
C182 C 0.91574 0.3044 0.5424 0.0
H183 H 0.00357 0.45262 0.45504 0.0
C184 C 0.03974 0.45476 0.45878 0.0
H185 H 0.07474 0.41301 0.47156 0.0
H186 H 0.83181 0.24889 0.4418 0.0
H187 H 0.85908 0.26521 0.39181 0.0
H188 H 0.94779 0.32576 0.37985 0.0
H189 H 0.00927 0.3718 0.41807 0.0
C190 C 0.03977 0.41334 0.46856 0.0
C191 C 0.99117 0.36705 0.47603 0.0
C192 C 0.95641 0.33792 0.4538 0.0
C193 C 0.90612 0.30046 0.46089 0.0
C194 C 0.87114 0.27563 0.43794 0.0
C195 C 0.88623 0.28489 0.40906 0.0
C196 C 0.93611 0.31913 0.40231 0.0
C197 C 0.97086 0.34569 0.42434 0.0
H198 H 0.50749 0.78537 0.77243 0.0
C199 C 0.5219 0.77939 0.7929 0.0
H200 H 0.55667 0.81176 0.83315 0.0
H201 H 0.60371 0.00348 0.74377 0.0
H202 H 0.66087 0.98286 0.71969 0.0
H203 H 0.66754 0.90931 0.73535 0.0
H204 H 0.61669 0.85595 0.77496 0.0
C205 C 0.54408 0.81736 0.81199 0.0
C206 C 0.54631 0.866 0.80554 0.0
C207 C 0.57726 0.89751 0.78289 0.0
C208 C 0.57387 0.94021 0.77408 0.0
C209 C 0.60458 0.97053 0.75112 0.0
C210 C 0.63772 0.95918 0.73724 0.0
C211 C 0.64142 0.91777 0.74603 0.0
C212 C 0.6118 0.88727 0.76866 0.0
H213 H 0.58637 0.04736 0.80509 0.0
C214 C 0.55852 0.03954 0.78802 0.0
H215 H 0.50135 0.98332 0.7619 0.0
H216 H 0.48503 0.81585 0.85138 0.0
H217 H 0.4291 0.83769 0.87593 0.0
H218 H 0.42346 0.91194 0.86074 0.0
H219 H 0.4736 0.96478 0.82083 0.0
C220 C 0.5323 0.9929 0.77707 0.0
C221 C 0.5399 0.95152 0.78809 0.0
C222 C 0.51088 0.92149 0.81172 0.0
C223 C 0.51426 0.87878 0.82055 0.0
C224 C 0.4841 0.84885 0.84385 0.0
C225 C 0.45182 0.86094 0.85814 0.0
C226 C 0.44863 0.90275 0.84958 0.0
C227 C 0.47763 0.93275 0.82663 0.0
H228 H 0.78086 0.4882 0.17559 0.0
C229 C 0.78974 0.48069 0.1541 0.0
H230 H 0.77343 0.47643 0.10925 0.0
H231 H 0.55251 0.43523 0.11319 0.0
H232 H 0.54094 0.35729 0.09351 0.0
H233 H 0.61163 0.34054 0.09245 0.0
H234 H 0.69451 0.40198 0.11064 0.0
C235 C 0.76545 0.48512 0.13067 0.0
C236 C 0.72253 0.49487 0.1332 0.0
C237 C 0.67381 0.45794 0.12313 0.0
C238 C 0.63261 0.46692 0.12458 0.0
C239 C 0.5849 0.43003 0.11335 0.0
C240 C 0.57771 0.38509 0.10186 0.0
C241 C 0.61753 0.37571 0.1012 0.0
C242 C 0.66504 0.4115 0.11165 0.0
H243 H 0.62916 0.58438 0.11071 0.0
C244 C 0.59612 0.55933 0.12333 0.0
H245 H 0.5619 0.49302 0.14848 0.0
H246 H 0.81179 0.57648 0.15116 0.0
H247 H 0.82228 0.65211 0.17378 0.0
H248 H 0.74903 0.6634 0.18139 0.0
H249 H 0.66513 0.59976 0.16567 0.0
C250 C 0.59606 0.5212 0.13795 0.0
C251 C 0.63969 0.51229 0.13681 0.0
C252 C 0.68806 0.54858 0.14773 0.0
C253 C 0.72983 0.54063 0.14503 0.0
C254 C 0.77833 0.57929 0.15402 0.0
C255 C 0.78497 0.62313 0.16685 0.0
C256 C 0.74378 0.6296 0.17101 0.0
C257 C 0.69583 0.59289 0.16164 0.0
H258 H 0.44595 0.85523 0.48241 0.0
C259 C 0.47071 0.84125 0.47605 0.0
H260 H 0.4748 0.77812 0.46181 0.0
H261 H 0.25467 0.62902 0.51085 0.0
H262 H 0.30599 0.62233 0.54917 0.0
H263 H 0.39864 0.67747 0.54962 0.0
H264 H 0.44027 0.7403 0.51199 0.0
C265 C 0.45063 0.7934 0.46696 0.0
C266 C 0.39498 0.75871 0.46572 0.0
C267 C 0.37125 0.72107 0.48731 0.0
C268 C 0.31796 0.68799 0.48642 0.0
C269 C 0.29513 0.65321 0.50947 0.0
C270 C 0.32414 0.64941 0.53186 0.0
C271 C 0.37627 0.68054 0.53216 0.0
C272 C 0.39971 0.7163 0.51035 0.0
H273 H 0.23878 0.58917 0.46054 0.0
C274 C 0.21399 0.60478 0.4582 0.0
H275 H 0.20782 0.66983 0.45909 0.0
H276 H 0.42909 0.82562 0.4205 0.0
H277 H 0.37861 0.83177 0.38146 0.0
H278 H 0.28632 0.77458 0.37958 0.0
H279 H 0.24432 0.71095 0.4165 0.0
C280 C 0.23311 0.65479 0.46073 0.0
C281 C 0.28868 0.69117 0.46314 0.0
C282 C 0.31261 0.72945 0.44172 0.0
C283 C 0.36578 0.76293 0.44294 0.0
C284 C 0.38883 0.79963 0.4208 0.0
C285 C 0.3603 0.80355 0.39821 0.0
C286 C 0.3084 0.77132 0.39714 0.0
C287 C 0.28469 0.73473 0.41853 0.0
H288 H 0.61854 0.42963 0.84274 0.0
C289 C 0.58819 0.43755 0.83853 0.0
H290 H 0.51284 0.40876 0.8248 0.0
H291 H 0.50943 0.24314 0.7434 0.0
H292 H 0.48241 0.28806 0.71131 0.0
H293 H 0.47978 0.36245 0.72847 0.0
H294 H 0.50486 0.39272 0.77756 0.0
C295 C 0.54305 0.40068 0.82896 0.0
C296 C 0.53593 0.35075 0.82029 0.0
C297 C 0.52154 0.33391 0.79128 0.0
C298 C 0.52322 0.29106 0.78133 0.0
C299 C 0.50893 0.27532 0.75219 0.0
C300 C 0.49333 0.30083 0.73347 0.0
C301 C 0.4919 0.34271 0.74312 0.0
C302 C 0.50631 0.35958 0.77151 0.0
H303 H 0.49339 0.16713 0.81752 0.0
C304 C 0.51779 0.17543 0.79892 0.0
H305 H 0.56936 0.23051 0.77046 0.0
H306 H 0.55112 0.36381 0.87902 0.0
H307 H 0.57888 0.31939 0.91138 0.0
H308 H 0.59241 0.25203 0.89283 0.0
H309 H 0.57665 0.22759 0.84226 0.0
C310 C 0.54454 0.22277 0.78879 0.0
C311 C 0.53929 0.26507 0.80035 0.0
C312 C 0.55185 0.28083 0.82969 0.0
C313 C 0.54797 0.32232 0.83992 0.0
C314 C 0.55658 0.33464 0.8698 0.0
C315 C 0.57205 0.30916 0.88864 0.0
C316 C 0.57938 0.27105 0.87824 0.0
C317 C 0.56962 0.257 0.84914 0.0
H318 H 0.65341 0.8303 0.51455 0.0
C319 C 0.62461 0.83115 0.52766 0.0
H320 H 0.56209 0.78953 0.55514 0.0
H321 H 0.53128 0.59032 0.49239 0.0
H322 H 0.47448 0.60582 0.46266 0.0
H323 H 0.47105 0.68386 0.46835 0.0
H324 H 0.52506 0.74715 0.50351 0.0
C325 C 0.59246 0.79018 0.54289 0.0
C326 C 0.59331 0.74253 0.54054 0.0
C327 C 0.56092 0.70556 0.52024 0.0
C328 C 0.56202 0.66007 0.51748 0.0
C329 C 0.53083 0.62477 0.49612 0.0
C330 C 0.49828 0.63338 0.47874 0.0
C331 C 0.49642 0.67735 0.48189 0.0
C332 C 0.52752 0.7133 0.50222 0.0
H333 H 0.52171 0.55661 0.54816 0.0
C334 C 0.55682 0.55934 0.54137 0.0
H335 H 0.63166 0.60604 0.52831 0.0
H336 H 0.6581 0.8049 0.58247 0.0
H337 H 0.71199 0.78794 0.61409 0.0
H338 H 0.71265 0.70822 0.61027 0.0
H339 H 0.65978 0.64515 0.57479 0.0
C340 C 0.596 0.60372 0.53337 0.0
C341 C 0.59461 0.65122 0.53564 0.0
C342 C 0.62642 0.68799 0.55628 0.0
C343 C 0.6258 0.73376 0.55868 0.0
C344 C 0.65734 0.76958 0.5797 0.0
C345 C 0.68835 0.76029 0.59801 0.0
C346 C 0.68877 0.71543 0.59584 0.0
C347 C 0.65833 0.6796 0.57526 0.0
H348 H 0.75697 0.58958 0.78229 0.0
C349 C 0.74653 0.60525 0.80018 0.0
H350 H 0.76643 0.63762 0.84193 0.0
H351 H 0.88886 0.53115 0.87632 0.0
H352 H 0.81197 0.48161 0.90338 0.0
H353 H 0.73835 0.49281 0.89555 0.0
H354 H 0.74155 0.55404 0.86083 0.0
C355 C 0.77763 0.62429 0.82325 0.0
C356 C 0.82185 0.61706 0.82682 0.0
C357 C 0.81917 0.5807 0.84703 0.0
C358 C 0.86126 0.57369 0.8512 0.0
C359 C 0.85785 0.53772 0.87194 0.0
C360 C 0.8139 0.50899 0.8877 0.0
C361 C 0.7725 0.51533 0.88332 0.0
C362 C 0.77489 0.5507 0.86331 0.0
H363 H 0.98813 0.66734 0.8639 0.0
C364 C 0.98861 0.63333 0.85815 0.0
H365 H 0.9485 0.56226 0.83854 0.0
H366 H 0.83953 0.69028 0.78672 0.0
H367 H 0.91585 0.73839 0.75862 0.0
H368 H 0.98807 0.72445 0.76488 0.0
H369 H 0.98453 0.66248 0.79945 0.0
C370 C 0.95101 0.59846 0.84178 0.0
C371 C 0.90595 0.6031 0.83515 0.0
C372 C 0.90828 0.63863 0.81447 0.0
C373 C 0.86623 0.64589 0.81042 0.0
C374 C 0.87001 0.6826 0.79023 0.0
C375 C 0.91365 0.71056 0.77404 0.0
C376 C 0.95436 0.70279 0.77761 0.0
C377 C 0.95193 0.66729 0.79758 0.0
H378 H 0.14389 0.65983 0.18147 0.0
C379 C 0.15052 0.64072 0.16378 0.0
H380 H 0.20282 0.64445 0.13296 0.0
H381 H 0.35514 0.87738 0.13767 0.0
H382 H 0.31772 0.86999 0.08976 0.0
H383 H 0.24295 0.79044 0.07412 0.0
H384 H 0.20537 0.71768 0.10616 0.0
C385 C 0.19552 0.66306 0.15063 0.0
C386 C 0.23807 0.71191 0.16094 0.0
C387 C 0.25902 0.75419 0.14209 0.0
C388 C 0.3018 0.80018 0.15118 0.0
C389 C 0.32261 0.84161 0.1318 0.0
C390 C 0.30144 0.83788 0.10429 0.0
C391 C 0.25934 0.79308 0.09548 0.0
C392 C 0.2382 0.75159 0.11406 0.0
H393 H 0.412 0.81078 0.18751 0.0
C394 C 0.41358 0.84648 0.19109 0.0
H395 H 0.3717 0.88396 0.19206 0.0
H396 H 0.2118 0.63642 0.20169 0.0
H397 H 0.24478 0.64632 0.25066 0.0
H398 H 0.31228 0.72907 0.26819 0.0
H399 H 0.34757 0.80203 0.23638 0.0
C400 C 0.37153 0.84928 0.1874 0.0
C401 C 0.32319 0.80373 0.17912 0.0
C402 C 0.30033 0.76244 0.19863 0.0
C403 C 0.25911 0.71579 0.18916 0.0
C404 C 0.24071 0.67376 0.20819 0.0
C405 C 0.25973 0.67875 0.23637 0.0
C406 C 0.29791 0.7252 0.24618 0.0
C407 C 0.31817 0.76664 0.22761 0.0
H408 H 0.66758 0.25318 0.45367 0.0
C409 C 0.64856 0.22558 0.47077 0.0
H410 H 0.60689 0.20829 0.50942 0.0
H411 H 0.6911 0.42869 0.55175 0.0
H412 H 0.73404 0.40023 0.58437 0.0
H413 H 0.73074 0.31939 0.57622 0.0
H414 H 0.68397 0.26648 0.53542 0.0
C415 C 0.6246 0.23504 0.49177 0.0
C416 C 0.62926 0.28529 0.49473 0.0
C417 C 0.65752 0.31628 0.51842 0.0
C418 C 0.65984 0.3631 0.52289 0.0
C419 C 0.68774 0.39276 0.5471 0.0
C420 C 0.71285 0.37693 0.56607 0.0
C421 C 0.71097 0.33145 0.5615 0.0
C422 C 0.68379 0.30136 0.538 0.0
H423 H 0.54936 0.3838 0.51108 0.0
C424 C 0.58393 0.41869 0.51612 0.0
H425 H 0.66293 0.45848 0.51697 0.0
H426 H 0.57212 0.23509 0.44696 0.0
H427 H 0.53443 0.26642 0.412 0.0
H428 H 0.54402 0.3506 0.4177 0.0
H429 H 0.59052 0.40349 0.45878 0.0
C430 C 0.62915 0.42331 0.51129 0.0
C431 C 0.63367 0.37874 0.50363 0.0
C432 C 0.60873 0.3495 0.47867 0.0
C433 C 0.60542 0.30209 0.4746 0.0
C434 C 0.57742 0.27218 0.45055 0.0
C435 C 0.55539 0.28962 0.43038 0.0
C436 C 0.56062 0.33694 0.43364 0.0
C437 C 0.58698 0.36671 0.45745 0.0
H438 H 0.34173 0.59209 0.83506 0.0
C439 C 0.36294 0.59974 0.85534 0.0
H440 H 0.36365 0.61152 0.90041 0.0
H441 H 0.21751 0.69876 0.89611 0.0
H442 H 0.29609 0.77026 0.91269 0.0
H443 H 0.3748 0.76681 0.91407 0.0
H444 H 0.37531 0.69179 0.89918 0.0
C445 C 0.34211 0.60262 0.88021 0.0
C446 C 0.29383 0.60334 0.88003 0.0
C447 C 0.29441 0.64794 0.88847 0.0
C448 C 0.24934 0.65044 0.88689 0.0
C449 C 0.25083 0.6951 0.89612 0.0
C450 C 0.29569 0.73645 0.90583 0.0
C451 C 0.33997 0.73448 0.90665 0.0
C452 C 0.33961 0.69094 0.8981 0.0
H453 H 0.11519 0.5581 0.90359 0.0
C454 C 0.11626 0.58591 0.88841 0.0
H455 H 0.16171 0.64502 0.85996 0.0
H456 H 0.27787 0.50984 0.86645 0.0
H457 H 0.20012 0.43938 0.84774 0.0
H458 H 0.12395 0.44643 0.84049 0.0
H459 H 0.12467 0.52339 0.85252 0.0
C460 C 0.15819 0.61371 0.87284 0.0
C461 C 0.20396 0.60882 0.87622 0.0
C462 C 0.20329 0.5641 0.86788 0.0
C463 C 0.24797 0.56092 0.87056 0.0
C464 C 0.24562 0.51497 0.86365 0.0
C465 C 0.20115 0.47414 0.85307 0.0
C466 C 0.15821 0.47805 0.8491 0.0
C467 C 0.15906 0.52241 0.85631 0.0
H468 H 0.7677 0.25652 0.16734 0.0
C469 C 0.76772 0.27685 0.18655 0.0
H470 H 0.73401 0.27179 0.22712 0.0
H471 H 0.55692 0.07065 0.15671 0.0
H472 H 0.54827 0.13048 0.12599 0.0
H473 H 0.60652 0.22183 0.13148 0.0
H474 H 0.67387 0.25379 0.16756 0.0
C475 C 0.73349 0.2525 0.20735 0.0
C476 C 0.69645 0.19773 0.20496 0.0
C477 C 0.6569 0.17976 0.18394 0.0
C478 C 0.62272 0.12716 0.18117 0.0
C479 C 0.58374 0.11019 0.15989 0.0
C480 C 0.57834 0.14415 0.14211 0.0
C481 C 0.61118 0.19556 0.14516 0.0
C482 C 0.64994 0.21339 0.16584 0.0
H483 H 0.56 0.03418 0.23912 0.0
C484 C 0.55737 0.01396 0.21936 0.0
H485 H 0.5887 0.01805 0.17827 0.0
H486 H 0.76712 0.21994 0.24804 0.0
H487 H 0.77589 0.16005 0.27868 0.0
H488 H 0.71813 0.06868 0.27289 0.0
H489 H 0.65093 0.03673 0.23677 0.0
C490 C 0.58987 0.03807 0.19781 0.0
C491 C 0.62742 0.09278 0.19986 0.0
C492 C 0.66719 0.11075 0.22076 0.0
C493 C 0.70126 0.16335 0.2236 0.0
C494 C 0.74029 0.18035 0.24486 0.0
C495 C 0.74588 0.14638 0.26254 0.0
C496 C 0.71335 0.09496 0.25929 0.0
C497 C 0.67453 0.07713 0.23864 0.0
H498 H 0.9373 0.45623 0.07884 0.0
C499 C 0.97193 0.46375 0.09 0.0
H500 H 0.05043 0.49198 0.08615 0.0
H501 H 0.97501 0.45622 0.94782 0.0
H502 H 0.93458 0.36702 0.95883 0.0
H503 H 0.93261 0.33753 0.00907 0.0
H504 H 0.97112 0.39718 0.04862 0.0
C505 C 0.01523 0.48269 0.07507 0.0
C506 C 0.01844 0.49981 0.0445 0.0
C507 C 0.9958 0.46451 0.0217 0.0
C508 C 0.99699 0.48159 0.99276 0.0
C509 C 0.97458 0.44544 0.97029 0.0
C510 C 0.95147 0.39408 0.97628 0.0
C511 C 0.95036 0.37747 0.00456 0.0
C512 C 0.97236 0.4121 0.02708 0.0
H513 H 0.09424 0.59018 0.94806 0.0
C514 C 0.05657 0.57979 0.9403 0.0
H515 H 0.97864 0.53632 0.948 0.0
H516 H 0.06931 0.57729 0.08308 0.0
H517 H 0.1098 0.66646 0.0724 0.0
H518 H 0.10797 0.69633 0.02275 0.0
H519 H 0.06664 0.63744 0.98353 0.0
C520 C 0.01641 0.55077 0.95693 0.0
C521 C 0.02068 0.53395 0.98671 0.0
C522 C 0.0443 0.56937 0.00955 0.0
C523 C 0.04401 0.55217 0.03838 0.0
C524 C 0.06819 0.58816 0.06079 0.0
C525 C 0.09147 0.63955 0.05501 0.0
C526 C 0.09053 0.65635 0.02705 0.0
C527 C 0.06696 0.62192 0.00459 0.0
H528 H 0.58594 0.0209 0.41254 0.0
C529 C 0.60804 0.00527 0.42178 0.0
H530 H 0.6388 0.95837 0.41409 0.0
H531 H 0.47496 0.84361 0.31407 0.0
H532 H 0.45128 0.77769 0.34999 0.0
H533 H 0.49421 0.79588 0.39778 0.0
H534 H 0.56131 0.88018 0.40977 0.0
C535 C 0.61815 0.97577 0.40524 0.0
C536 C 0.59752 0.96368 0.37505 0.0
C537 C 0.55883 0.91414 0.3682 0.0
C538 C 0.53374 0.90388 0.34074 0.0
C539 C 0.4951 0.85389 0.33459 0.0
C540 C 0.48113 0.81555 0.35504 0.0
C541 C 0.50531 0.82577 0.38193 0.0
C542 C 0.5437 0.87438 0.38855 0.0
H543 H 0.58432 0.96042 0.26554 0.0
C544 C 0.54336 0.94115 0.26624 0.0
H545 H 0.4788 0.9139 0.29201 0.0
H546 H 0.67629 0.06054 0.37924 0.0
H547 H 0.69607 0.12859 0.34512 0.0
H548 H 0.6451 0.11353 0.30041 0.0
H549 H 0.576 0.03024 0.28898 0.0
C550 C 0.51973 0.93212 0.29181 0.0
C551 C 0.54721 0.94336 0.32023 0.0
C552 C 0.58575 0.99314 0.3273 0.0
C553 C 0.61238 0.00273 0.35418 0.0
C554 C 0.65314 0.05187 0.35981 0.0
C555 C 0.66507 0.09117 0.34036 0.0
C556 C 0.63661 0.08263 0.31511 0.0
C557 C 0.59739 0.03435 0.30858 0.0
H558 H 0.51607 0.60113 0.73151 0.0
C559 C 0.54896 0.60462 0.74296 0.0
H560 H 0.61781 0.60519 0.73973 0.0
H561 H 0.54312 0.4539 0.63494 0.0
H562 H 0.55295 0.40497 0.67339 0.0
H563 H 0.57484 0.4382 0.72332 0.0
H564 H 0.58443 0.51898 0.73529 0.0
C565 C 0.58489 0.60157 0.72827 0.0
C566 C 0.57715 0.58492 0.6975 0.0
C567 C 0.57238 0.53772 0.69087 0.0
C568 C 0.56222 0.51966 0.66187 0.0
C569 C 0.554 0.4708 0.65623 0.0
C570 C 0.55879 0.44197 0.6782 0.0
C571 C 0.57074 0.46048 0.70633 0.0
C572 C 0.57663 0.50731 0.71283 0.0
H573 H 0.62331 0.53555 0.60807 0.0
C574 C 0.58973 0.52806 0.59571 0.0
H575 H 0.51894 0.52405 0.59703 0.0
H576 H 0.58918 0.67923 0.70232 0.0
H577 H 0.5809 0.72867 0.66349 0.0
H578 H 0.56144 0.69635 0.61333 0.0
H579 H 0.55144 0.61495 0.60153 0.0
C580 C 0.55366 0.53333 0.6086 0.0
C581 C 0.55942 0.54997 0.63931 0.0
C582 C 0.56369 0.5969 0.64594 0.0
C583 C 0.57329 0.6148 0.67504 0.0
C584 C 0.58007 0.66302 0.6808 0.0
C585 C 0.57579 0.69196 0.65867 0.0
C586 C 0.56502 0.67385 0.6304 0.0
C587 C 0.55931 0.62704 0.62394 0.0
H588 H 0.63059 0.00303 0.59647 0.0
C589 C 0.62748 0.03147 0.58387 0.0
H590 H 0.61318 0.09177 0.58466 0.0
H591 H 0.52477 0.9776 0.71214 0.0
H592 H 0.46993 0.90171 0.68499 0.0
H593 H 0.47622 0.89992 0.63171 0.0
H594 H 0.53829 0.97322 0.60554 0.0
C595 C 0.61622 0.06326 0.59723 0.0
C596 C 0.61053 0.06338 0.62933 0.0
C597 C 0.57182 0.02077 0.64398 0.0
C598 C 0.56578 0.02281 0.67444 0.0
C599 C 0.52928 0.97881 0.68888 0.0
C600 C 0.49777 0.9349 0.67357 0.0
C601 C 0.50149 0.93383 0.64361 0.0
C602 C 0.5378 0.97618 0.62886 0.0
H603 H 0.51129 0.06008 0.71026 0.0
C604 C 0.53967 0.06969 0.72723 0.0
H605 H 0.61411 0.08761 0.73667 0.0
H606 H 0.69106 0.1501 0.60855 0.0
H607 H 0.74362 0.22673 0.63558 0.0
H608 H 0.72878 0.23234 0.68755 0.0
H609 H 0.66183 0.1613 0.71287 0.0
C610 C 0.58404 0.0738 0.72045 0.0
C611 C 0.59576 0.06844 0.6898 0.0
C612 C 0.63501 0.11065 0.67528 0.0
C613 C 0.64272 0.10789 0.64512 0.0
C614 C 0.68271 0.15039 0.63128 0.0
C615 C 0.71335 0.19463 0.64655 0.0
C616 C 0.70506 0.19775 0.67582 0.0
C617 C 0.66643 0.15648 0.69011 0.0
H618 H 0.54236 0.63306 0.91909 0.0
C619 C 0.56791 0.62331 0.90865 0.0
H620 H 0.62117 0.59947 0.91486 0.0
H621 H 0.5778 0.67392 0.04348 0.0
H622 H 0.61645 0.75738 0.02253 0.0
H623 H 0.64574 0.77232 0.97187 0.0
H624 H 0.63535 0.70326 0.94171 0.0
C625 C 0.5963 0.61031 0.92508 0.0
C626 C 0.58938 0.60383 0.95709 0.0
C627 C 0.59824 0.64495 0.97492 0.0
C628 C 0.5834 0.63661 0.00453 0.0
C629 C 0.58958 0.67793 0.02118 0.0
C630 C 0.6117 0.72622 0.00937 0.0
C631 C 0.62805 0.73462 0.98083 0.0
C632 C 0.62152 0.69461 0.96371 0.0
H633 H 0.60549 0.61499 0.06991 0.0
C634 C 0.56453 0.59313 0.07048 0.0
H635 H 0.49754 0.55033 0.04646 0.0
H636 H 0.57302 0.51762 0.92985 0.0
H637 H 0.54113 0.43539 0.95187 0.0
H638 H 0.51936 0.42185 0.00381 0.0
H639 H 0.52902 0.49059 0.03398 0.0
C640 C 0.53806 0.5759 0.04562 0.0
C641 C 0.56177 0.58737 0.0165 0.0
C642 C 0.55732 0.54726 0.99933 0.0
C643 C 0.57087 0.55537 0.96955 0.0
C644 C 0.56413 0.514 0.9527 0.0
C645 C 0.54575 0.46646 0.96506 0.0
C646 C 0.53341 0.45881 0.99428 0.0
C647 C 0.53894 0.49854 0.01131 0.0
H648 H 0.99822 0.42494 0.26198 0.0
C649 C 0.96945 0.43372 0.25493 0.0
H650 H 0.92235 0.46179 0.26796 0.0
H651 H 0.9408 0.42199 0.40275 0.0
H652 H 0.85064 0.36736 0.39427 0.0
H653 H 0.81449 0.35458 0.34472 0.0
H654 H 0.86808 0.39703 0.30336 0.0
C655 C 0.94976 0.45092 0.27453 0.0
C656 C 0.97022 0.46141 0.30484 0.0
C657 C 0.93838 0.43603 0.32862 0.0
C658 C 0.95933 0.4425 0.35713 0.0
C659 C 0.92675 0.41769 0.38064 0.0
C660 C 0.87502 0.38635 0.37606 0.0
C661 C 0.85467 0.37915 0.34815 0.0
C662 C 0.8858 0.40365 0.32461 0.0
H663 H 0.04008 0.54679 0.39966 0.0
C664 C 0.04921 0.51856 0.40706 0.0
H665 H 0.04795 0.45155 0.3965 0.0
H666 H 0.03986 0.52771 0.26596 0.0
H667 H 0.1301 0.57952 0.27413 0.0
H668 H 0.16798 0.5806 0.32198 0.0
H669 H 0.11553 0.53113 0.36204 0.0
C670 C 0.03493 0.47749 0.39081 0.0
C671 C 0.01212 0.47292 0.36155 0.0
C672 C 0.04385 0.49903 0.33786 0.0
C673 C 0.02254 0.4954 0.30981 0.0
C674 C 0.05445 0.52621 0.28724 0.0
C675 C 0.1063 0.55665 0.29172 0.0
C676 C 0.12758 0.55745 0.31867 0.0
C677 C 0.09693 0.52909 0.34154 0.0
loop_
_geom_bond_atom_site_label_1
_geom_bond_atom_site_label_2
_geom_bond_distance
_geom_bond_site_symmetry_2
_ccdc_geom_bond_type
Zn0 O6 1.969 . S
Zn0 O7 1.965 . S
Zn0 O11 2.024 . S
Zn0 O16 1.969 . S
Zn1 O8 1.969 . S
Zn1 O14 1.969 . S
Zn1 O15 1.965 . S
Zn1 O17 2.024 . S
C2 O3 1.229 . S
C2 O11 1.058 . S
O3 C2 1.229 . S
C4 O5 1.229 . S
C4 O17 1.058 . S
O5 C4 1.229 . S
O6 Zn0 1.969 . S
O6 C9 1.267 . S
O7 Zn0 1.965 . S
O7 C18 1.260 1_455 S
O8 Zn1 1.969 . S
O8 C18 1.258 . S
C9 O6 1.267 . S
C9 O10 1.228 . S
O10 C9 1.228 . S
O11 Zn0 2.024 . S
O11 C2 1.058 . S
C12 O13 1.228 . S
C12 O14 1.267 . S
O13 C12 1.228 . S
O14 Zn1 1.969 . S
O14 C12 1.267 . S
O15 Zn1 1.965 . S
O15 C19 1.260 1_655 S
O16 Zn0 1.969 . S
O16 C19 1.258 . S
O17 Zn1 2.024 . S
O17 C4 1.058 . S
C18 O7 1.260 1_655 S
C18 O8 1.258 . S
C19 O15 1.260 1_455 S
C19 O16 1.258 . S
Zn20 O26 1.969 . S
Zn20 O27 1.965 . S
Zn20 O31 2.024 . S
Zn20 O36 1.969 . S
Zn21 O28 1.969 . S
Zn21 O34 1.969 . S
Zn21 O35 1.963 . S
Zn21 O37 2.024 . S
C22 O23 1.229 . S
C22 O31 1.058 . S
O23 C22 1.229 . S
C24 O25 1.229 . S
C24 O37 1.058 . S
O25 C24 1.229 . S
O26 Zn20 1.969 . S
O26 C29 1.267 . S
O27 Zn20 1.965 . S
O27 C38 1.260 . S
O28 Zn21 1.969 . S
O28 C38 1.258 1_565 S
C29 O26 1.267 . S
C29 O30 1.228 . S
O30 C29 1.228 . S
O31 Zn20 2.024 . S
O31 C22 1.058 . S
C32 O33 1.228 . S
C32 O34 1.267 . S
O33 C32 1.228 . S
O34 Zn21 1.969 . S
O34 C32 1.267 . S
O35 Zn21 1.963 . S
O35 C39 1.262 1_565 S
O36 Zn20 1.969 . S
O36 C39 1.258 . S
O37 Zn21 2.024 . S
O37 C24 1.058 . S
C38 O27 1.260 . S
C38 O28 1.258 1_545 S
C39 O35 1.262 1_545 S
C39 O36 1.258 . S
Zn40 O46 1.969 . S
Zn40 O47 1.965 . S
Zn40 O51 2.024 . S
Zn40 O56 1.969 . S
Zn41 O48 1.969 . S
Zn41 O54 1.969 . S
Zn41 O55 1.965 . S
Zn41 O57 2.024 . S
C42 O43 1.229 . S
C42 O51 1.058 . S
O43 C42 1.229 . S
C44 O45 1.229 . S
C44 O57 1.058 . S
O45 C44 1.229 . S
O46 Zn40 1.969 . S
O46 C49 1.267 . S
O47 Zn40 1.965 . S
O47 C58 1.260 . S
O48 Zn41 1.969 . S
O48 C58 1.258 . S
C49 O46 1.267 . S
C49 O50 1.228 . S
O50 C49 1.228 . S
O51 Zn40 2.024 . S
O51 C42 1.058 . S
C52 O53 1.228 . S
C52 O54 1.267 . S
O53 C52 1.228 . S
O54 Zn41 1.969 . S
O54 C52 1.267 . S
O55 Zn41 1.965 . S
O55 C59 1.260 . S
O56 Zn40 1.969 . S
O56 C59 1.258 . S
O57 Zn41 2.024 . S
O57 C44 1.058 . S
C58 O47 1.260 . S
C58 O48 1.258 . S
C59 O55 1.260 . S
C59 O56 1.258 . S
C60 N61 1.317 . S
C60 N62 1.348 1_545 S
C60 C63 1.485 . S
N61 C60 1.317 . S
N61 N65 1.370 . S
N62 C60 1.348 1_565 S
N62 C64 1.346 . S
C63 C60 1.485 . S
C63 H67 0.960 . S
C63 H68 0.961 1_545 S
C63 H69 0.960 . S
C64 N62 1.346 . S
C64 N65 1.307 1_565 S
C64 C66 1.486 . S
N65 N61 1.370 . S
N65 C64 1.307 1_545 S
C66 C64 1.486 . S
C66 H70 0.960 . S
C66 H71 0.960 . S
C66 H72 0.959 . S
H67 C63 0.960 . S
H68 C63 0.961 1_565 S
H69 C63 0.960 . S
H70 C66 0.960 . S
H71 C66 0.960 . S
H72 C66 0.959 . S
C73 N74 1.317 . S
C73 N75 1.348 . S
C73 C76 1.485 . S
N74 C73 1.317 . S
N74 N78 1.370 . S
N75 C73 1.348 . S
N75 C77 1.346 . S
C76 C73 1.485 . S
C76 H80 0.960 . S
C76 H81 0.961 . S
C76 H82 0.960 . S
C77 N75 1.346 . S
C77 N78 1.307 . S
C77 C79 1.486 . S
N78 N74 1.370 . S
N78 C77 1.307 . S
C79 C77 1.486 . S
C79 H83 0.960 . S
C79 H84 0.960 . S
C79 H85 0.959 . S
H80 C76 0.960 . S
H81 C76 0.961 . S
H82 C76 0.960 . S
H83 C79 0.960 . S
H84 C79 0.960 . S
H85 C79 0.959 . S
C86 N87 1.317 . S
C86 N88 1.348 . S
C86 C89 1.485 . S
N87 C86 1.317 . S
N87 N91 1.370 . S
N88 C86 1.348 . S
N88 C90 1.346 . S
C89 C86 1.485 . S
C89 H93 0.960 . S
C89 H94 0.961 . S
C89 H95 0.960 . S
C90 N88 1.346 . S
C90 N91 1.307 . S
C90 C92 1.486 1_455 S
N91 N87 1.370 . S
N91 C90 1.307 . S
C92 C90 1.486 1_655 S
C92 H96 0.960 . S
C92 H97 0.960 . S
C92 H98 0.959 . S
H93 C89 0.960 . S
H94 C89 0.961 . S
H95 C89 0.960 . S
H96 C92 0.960 . S
H97 C92 0.960 . S
H98 C92 0.959 . S
C99 N100 1.317 . S
C99 N101 1.348 . S
C99 C102 1.485 . S
N100 C99 1.317 . S
N100 N104 1.370 . S
N101 C99 1.348 . S
N101 C103 1.346 . S
C102 C99 1.485 . S
C102 H106 0.960 . S
C102 H107 0.961 . S
C102 H108 0.960 . S
C103 N101 1.346 . S
C103 N104 1.307 . S
C103 C105 1.486 . S
N104 N100 1.370 . S
N104 C103 1.307 . S
C105 C103 1.486 . S
C105 H109 0.960 . S
C105 H110 0.960 . S
C105 H111 0.959 . S
H106 C102 0.960 . S
H107 C102 0.961 . S
H108 C102 0.960 . S
H109 C105 0.960 . S
H110 C105 0.960 . S
H111 C105 0.959 . S
C112 N113 1.317 . S
C112 N114 1.348 . S
C112 C115 1.485 . S
N113 C112 1.317 . S
N113 N117 1.370 . S
N114 C112 1.348 . S
N114 C116 1.346 . S
C115 C112 1.485 . S
C115 H119 0.960 . S
C115 H120 0.961 . S
C115 H121 0.960 . S
C116 N114 1.346 . S
C116 N117 1.307 . S
C116 C118 1.486 . S
N117 N113 1.370 . S
N117 C116 1.307 . S
C118 C116 1.486 . S
C118 H122 0.960 . S
C118 H123 0.960 . S
C118 H124 0.959 . S
H119 C115 0.960 . S
H120 C115 0.961 . S
H121 C115 0.960 . S
H122 C118 0.960 . S
H123 C118 0.960 . S
H124 C118 0.959 . S
C125 N126 1.317 . S
C125 N127 1.348 . S
C125 C128 1.485 . S
N126 C125 1.317 . S
N126 N130 1.370 . S
N127 C125 1.348 . S
N127 C129 1.346 . S
C128 C125 1.485 . S
C128 H132 0.960 . S
C128 H133 0.961 . S
C128 H134 0.960 . S
C129 N127 1.346 . S
C129 N130 1.307 . S
C129 C131 1.486 . S
N130 N126 1.370 . S
N130 C129 1.307 . S
C131 C129 1.486 . S
C131 H135 0.960 . S
C131 H136 0.960 . S
C131 H137 0.959 . S
H132 C128 0.960 . S
H133 C128 0.961 . S
H134 C128 0.960 . S
H135 C131 0.960 . S
H136 C131 0.960 . S
H137 C131 0.959 . S
H138 C139 0.951 . S
C139 H138 0.951 . S
C139 C145 1.265 . S
H140 C145 0.950 . S
H141 C149 0.949 . S
H142 C150 0.950 . S
H143 C151 0.951 . S
H144 C152 0.951 . S
C145 C139 1.265 . S
C145 H140 0.950 . S
C145 C146 1.478 . S
C146 C145 1.478 . S
C146 C147 1.397 . S
C146 C163 1.394 . S
C147 C146 1.397 . S
C147 C148 1.438 . S
C147 C152 1.429 . S
C148 C147 1.438 . S
C148 C149 1.428 . S
C148 C161 1.394 . S
C149 H141 0.949 . S
C149 C148 1.428 . S
C149 C150 1.345 . S
C150 H142 0.950 . S
C150 C149 1.345 . S
C150 C151 1.424 . S
C151 H143 0.951 . S
C151 C150 1.424 . S
C151 C152 1.347 . S
C152 H144 0.951 . S
C152 C147 1.429 . S
C152 C151 1.347 . S
H153 C154 0.951 . S
C154 H153 0.951 . S
C154 C160 1.265 . S
H155 C160 0.950 . S
H156 C164 0.949 . S
H157 C165 0.950 . S
H158 C166 0.951 . S
H159 C167 0.951 . S
C160 C154 1.265 . S
C160 H155 0.950 . S
C160 C161 1.478 . S
C161 C148 1.394 . S
C161 C160 1.478 . S
C161 C162 1.397 . S
C162 C161 1.397 . S
C162 C163 1.438 . S
C162 C167 1.429 . S
C163 C146 1.394 . S
C163 C162 1.438 . S
C163 C164 1.428 . S
C164 H156 0.949 . S
C164 C163 1.428 . S
C164 C165 1.345 . S
C165 H157 0.950 . S
C165 C164 1.345 . S
C165 C166 1.424 . S
C166 H158 0.951 . S
C166 C165 1.424 . S
C166 C167 1.347 . S
C167 H159 0.951 . S
C167 C162 1.429 . S
C167 C166 1.347 . S
H168 C169 0.951 . S
C169 H168 0.951 . S
C169 C175 1.265 . S
H170 C175 0.950 . S
H171 C179 0.949 . S
H172 C180 0.950 . S
H173 C181 0.951 . S
H174 C182 0.951 . S
C175 C169 1.265 . S
C175 H170 0.950 . S
C175 C176 1.478 . S
C176 C175 1.478 . S
C176 C177 1.397 . S
C176 C193 1.394 . S
C177 C176 1.397 . S
C177 C178 1.438 . S
C177 C182 1.429 . S
C178 C177 1.438 . S
C178 C179 1.428 . S
C178 C191 1.394 . S
C179 H171 0.949 . S
C179 C178 1.428 . S
C179 C180 1.345 . S
C180 H172 0.950 . S
C180 C179 1.345 . S
C180 C181 1.424 . S
C181 H173 0.951 . S
C181 C180 1.424 . S
C181 C182 1.347 . S
C182 H174 0.951 . S
C182 C177 1.429 . S
C182 C181 1.347 . S
H183 C184 0.951 . S
C184 H183 0.951 . S
C184 C190 1.265 . S
H185 C190 0.950 1_455 S
H186 C194 0.949 . S
H187 C195 0.950 . S
H188 C196 0.951 . S
H189 C197 0.951 . S
C190 C184 1.265 . S
C190 H185 0.950 1_655 S
C190 C191 1.478 . S
C191 C178 1.394 . S
C191 C190 1.478 . S
C191 C192 1.397 . S
C192 C191 1.397 . S
C192 C193 1.438 . S
C192 C197 1.429 . S
C193 C176 1.394 . S
C193 C192 1.438 . S
C193 C194 1.428 . S
C194 H186 0.949 . S
C194 C193 1.428 . S
C194 C195 1.345 . S
C195 H187 0.950 . S
C195 C194 1.345 . S
C195 C196 1.424 . S
C196 H188 0.951 . S
C196 C195 1.424 . S
C196 C197 1.347 . S
C197 H189 0.951 . S
C197 C192 1.429 . S
C197 C196 1.347 . S
H198 C199 0.951 . S
C199 H198 0.951 . S
C199 C205 1.265 . S
H200 C205 0.950 . S
H201 C209 0.949 . S
H202 C210 0.950 . S
H203 C211 0.951 . S
H204 C212 0.951 . S
C205 C199 1.265 . S
C205 H200 0.950 . S
C205 C206 1.478 . S
C206 C205 1.478 . S
C206 C207 1.397 . S
C206 C223 1.394 . S
C207 C206 1.397 . S
C207 C208 1.438 . S
C207 C212 1.429 . S
C208 C207 1.438 . S
C208 C209 1.428 . S
C208 C221 1.394 . S
C209 H201 0.949 . S
C209 C208 1.428 . S
C209 C210 1.345 . S
C210 H202 0.950 . S
C210 C209 1.345 . S
C210 C211 1.424 . S
C211 H203 0.951 . S
C211 C210 1.424 . S
C211 C212 1.347 . S
C212 H204 0.951 . S
C212 C207 1.429 . S
C212 C211 1.347 . S
H213 C214 0.951 1_545 S
C214 H213 0.951 1_565 S
C214 C220 1.265 . S
H215 C220 0.950 . S
H216 C224 0.949 . S
H217 C225 0.950 . S
H218 C226 0.951 . S
H219 C227 0.951 . S
C220 C214 1.265 . S
C220 H215 0.950 . S
C220 C221 1.478 . S
C221 C208 1.394 . S
C221 C220 1.478 . S
C221 C222 1.397 . S
C222 C221 1.397 . S
C222 C223 1.438 . S
C222 C227 1.429 . S
C223 C206 1.394 . S
C223 C222 1.438 . S
C223 C224 1.428 . S
C224 H216 0.949 . S
C224 C223 1.428 . S
C224 C225 1.345 . S
C225 H217 0.950 . S
C225 C224 1.345 . S
C225 C226 1.424 . S
C226 H218 0.951 . S
C226 C225 1.424 . S
C226 C227 1.347 . S
C227 H219 0.951 . S
C227 C222 1.429 . S
C227 C226 1.347 . S
H228 C229 0.951 . S
C229 H228 0.951 . S
C229 C235 1.265 . S
H230 C235 0.950 . S
H231 C239 0.949 . S
H232 C240 0.950 . S
H233 C241 0.951 . S
H234 C242 0.951 . S
C235 C229 1.265 . S
C235 H230 0.950 . S
C235 C236 1.478 . S
C236 C235 1.478 . S
C236 C237 1.397 . S
C236 C253 1.394 . S
C237 C236 1.397 . S
C237 C238 1.438 . S
C237 C242 1.429 . S
C238 C237 1.438 . S
C238 C239 1.428 . S
C238 C251 1.394 . S
C239 H231 0.949 . S
C239 C238 1.428 . S
C239 C240 1.345 . S
C240 H232 0.950 . S
C240 C239 1.345 . S
C240 C241 1.424 . S
C241 H233 0.951 . S
C241 C240 1.424 . S
C241 C242 1.347 . S
C242 H234 0.951 . S
C242 C237 1.429 . S
C242 C241 1.347 . S
H243 C244 0.951 . S
C244 H243 0.951 . S
C244 C250 1.265 . S
H245 C250 0.950 . S
H246 C254 0.949 . S
H247 C255 0.950 . S
H248 C256 0.951 . S
H249 C257 0.951 . S
C250 C244 1.265 . S
C250 H245 0.950 . S
C250 C251 1.478 . S
C251 C238 1.394 . S
C251 C250 1.478 . S
C251 C252 1.397 . S
C252 C251 1.397 . S
C252 C253 1.438 . S
C252 C257 1.429 . S
C253 C236 1.394 . S
C253 C252 1.438 . S
C253 C254 1.428 . S
C254 H246 0.949 . S
C254 C253 1.428 . S
C254 C255 1.345 . S
C255 H247 0.950 . S
C255 C254 1.345 . S
C255 C256 1.424 . S
C256 H248 0.951 . S
C256 C255 1.424 . S
C256 C257 1.347 . S
C257 H249 0.951 . S
C257 C252 1.429 . S
C257 C256 1.347 . S
H258 C259 0.951 . S
C259 H258 0.951 . S
C259 C265 1.265 . S
H260 C265 0.950 . S
H261 C269 0.949 . S
H262 C270 0.950 . S
H263 C271 0.951 . S
H264 C272 0.951 . S
C265 C259 1.265 . S
C265 H260 0.950 . S
C265 C266 1.478 . S
C266 C265 1.478 . S
C266 C267 1.397 . S
C266 C283 1.394 . S
C267 C266 1.397 . S
C267 C268 1.438 . S
C267 C272 1.429 . S
C268 C267 1.438 . S
C268 C269 1.428 . S
C268 C281 1.394 . S
C269 H261 0.949 . S
C269 C268 1.428 . S
C269 C270 1.345 . S
C270 H262 0.950 . S
C270 C269 1.345 . S
C270 C271 1.424 . S
C271 H263 0.951 . S
C271 C270 1.424 . S
C271 C272 1.347 . S
C272 H264 0.951 . S
C272 C267 1.429 . S
C272 C271 1.347 . S
H273 C274 0.951 . S
C274 H273 0.951 . S
C274 C280 1.265 . S
H275 C280 0.950 . S
H276 C284 0.949 . S
H277 C285 0.950 . S
H278 C286 0.951 . S
H279 C287 0.951 . S
C280 C274 1.265 . S
C280 H275 0.950 . S
C280 C281 1.478 . S
C281 C268 1.394 . S
C281 C280 1.478 . S
C281 C282 1.397 . S
C282 C281 1.397 . S
C282 C283 1.438 . S
C282 C287 1.429 . S
C283 C266 1.394 . S
C283 C282 1.438 . S
C283 C284 1.428 . S
C284 H276 0.949 . S
C284 C283 1.428 . S
C284 C285 1.345 . S
C285 H277 0.950 . S
C285 C284 1.345 . S
C285 C286 1.424 . S
C286 H278 0.951 . S
C286 C285 1.424 . S
C286 C287 1.347 . S
C287 H279 0.951 . S
C287 C282 1.429 . S
C287 C286 1.347 . S
H288 C289 0.951 . S
C289 H288 0.951 . S
C289 C295 1.265 . S
H290 C295 0.950 . S
H291 C299 0.949 . S
H292 C300 0.950 . S
H293 C301 0.951 . S
H294 C302 0.951 . S
C295 C289 1.265 . S
C295 H290 0.950 . S
C295 C296 1.478 . S
C296 C295 1.478 . S
C296 C297 1.397 . S
C296 C313 1.394 . S
C297 C296 1.397 . S
C297 C298 1.438 . S
C297 C302 1.429 . S
C298 C297 1.438 . S
C298 C299 1.428 . S
C298 C311 1.394 . S
C299 H291 0.949 . S
C299 C298 1.428 . S
C299 C300 1.345 . S
C300 H292 0.950 . S
C300 C299 1.345 . S
C300 C301 1.424 . S
C301 H293 0.951 . S
C301 C300 1.424 . S
C301 C302 1.347 . S
C302 H294 0.951 . S
C302 C297 1.429 . S
C302 C301 1.347 . S
H303 C304 0.951 . S
C304 H303 0.951 . S
C304 C310 1.265 . S
H305 C310 0.950 . S
H306 C314 0.949 . S
H307 C315 0.950 . S
H308 C316 0.951 . S
H309 C317 0.951 . S
C310 C304 1.265 . S
C310 H305 0.950 . S
C310 C311 1.478 . S
C311 C298 1.394 . S
C311 C310 1.478 . S
C311 C312 1.397 . S
C312 C311 1.397 . S
C312 C313 1.438 . S
C312 C317 1.429 . S
C313 C296 1.394 . S
C313 C312 1.438 . S
C313 C314 1.428 . S
C314 H306 0.949 . S
C314 C313 1.428 . S
C314 C315 1.345 . S
C315 H307 0.950 . S
C315 C314 1.345 . S
C315 C316 1.424 . S
C316 H308 0.951 . S
C316 C315 1.424 . S
C316 C317 1.347 . S
C317 H309 0.951 . S
C317 C312 1.429 . S
C317 C316 1.347 . S
H318 C319 0.951 . S
C319 H318 0.951 . S
C319 C325 1.265 . S
H320 C325 0.950 . S
H321 C329 0.949 . S
H322 C330 0.950 . S
H323 C331 0.951 . S
H324 C332 0.951 . S
C325 C319 1.265 . S
C325 H320 0.950 . S
C325 C326 1.478 . S
C326 C325 1.478 . S
C326 C327 1.397 . S
C326 C343 1.394 . S
C327 C326 1.397 . S
C327 C328 1.438 . S
C327 C332 1.429 . S
C328 C327 1.438 . S
C328 C329 1.428 . S
C328 C341 1.394 . S
C329 H321 0.949 . S
C329 C328 1.428 . S
C329 C330 1.345 . S
C330 H322 0.950 . S
C330 C329 1.345 . S
C330 C331 1.424 . S
C331 H323 0.951 . S
C331 C330 1.424 . S
C331 C332 1.347 . S
C332 H324 0.951 . S
C332 C327 1.429 . S
C332 C331 1.347 . S
H333 C334 0.951 . S
C334 H333 0.951 . S
C334 C340 1.265 . S
H335 C340 0.950 . S
H336 C344 0.949 . S
H337 C345 0.950 . S
H338 C346 0.951 . S
H339 C347 0.951 . S
C340 C334 1.265 . S
C340 H335 0.950 . S
C340 C341 1.478 . S
C341 C328 1.394 . S
C341 C340 1.478 . S
C341 C342 1.397 . S
C342 C341 1.397 . S
C342 C343 1.438 . S
C342 C347 1.429 . S
C343 C326 1.394 . S
C343 C342 1.438 . S
C343 C344 1.428 . S
C344 H336 0.949 . S
C344 C343 1.428 . S
C344 C345 1.345 . S
C345 H337 0.950 . S
C345 C344 1.345 . S
C345 C346 1.424 . S
C346 H338 0.951 . S
C346 C345 1.424 . S
C346 C347 1.347 . S
C347 H339 0.951 . S
C347 C342 1.429 . S
C347 C346 1.347 . S
H348 C349 0.951 . S
C349 H348 0.951 . S
C349 C355 1.265 . S
H350 C355 0.950 . S
H351 C359 0.949 . S
H352 C360 0.950 . S
H353 C361 0.951 . S
H354 C362 0.951 . S
C355 C349 1.265 . S
C355 H350 0.950 . S
C355 C356 1.478 . S
C356 C355 1.478 . S
C356 C357 1.397 . S
C356 C373 1.394 . S
C357 C356 1.397 . S
C357 C358 1.438 . S
C357 C362 1.429 . S
C358 C357 1.438 . S
C358 C359 1.428 . S
C358 C371 1.394 . S
C359 H351 0.949 . S
C359 C358 1.428 . S
C359 C360 1.345 . S
C360 H352 0.950 . S
C360 C359 1.345 . S
C360 C361 1.424 . S
C361 H353 0.951 . S
C361 C360 1.424 . S
C361 C362 1.347 . S
C362 H354 0.951 . S
C362 C357 1.429 . S
C362 C361 1.347 . S
H363 C364 0.951 . S
C364 H363 0.951 . S
C364 C370 1.265 . S
H365 C370 0.950 . S
H366 C374 0.949 . S
H367 C375 0.950 . S
H368 C376 0.951 . S
H369 C377 0.951 . S
C370 C364 1.265 . S
C370 H365 0.950 . S
C370 C371 1.478 . S
C371 C358 1.394 . S
C371 C370 1.478 . S
C371 C372 1.397 . S
C372 C371 1.397 . S
C372 C373 1.438 . S
C372 C377 1.429 . S
C373 C356 1.394 . S
C373 C372 1.438 . S
C373 C374 1.428 . S
C374 H366 0.949 . S
C374 C373 1.428 . S
C374 C375 1.345 . S
C375 H367 0.950 . S
C375 C374 1.345 . S
C375 C376 1.424 . S
C376 H368 0.951 . S
C376 C375 1.424 . S
C376 C377 1.347 . S
C377 H369 0.951 . S
C377 C372 1.429 . S
C377 C376 1.347 . S
H378 C379 0.951 . S
C379 H378 0.951 . S
C379 C385 1.265 . S
H380 C385 0.950 . S
H381 C389 0.949 . S
H382 C390 0.950 . S
H383 C391 0.951 . S
H384 C392 0.951 . S
C385 C379 1.265 . S
C385 H380 0.950 . S
C385 C386 1.478 . S
C386 C385 1.478 . S
C386 C387 1.397 . S
C386 C403 1.394 . S
C387 C386 1.397 . S
C387 C388 1.438 . S
C387 C392 1.429 . S
C388 C387 1.438 . S
C388 C389 1.428 . S
C388 C401 1.394 . S
C389 H381 0.949 . S
C389 C388 1.428 . S
C389 C390 1.345 . S
C390 H382 0.950 . S
C390 C389 1.345 . S
C390 C391 1.424 . S
C391 H383 0.951 . S
C391 C390 1.424 . S
C391 C392 1.347 . S
C392 H384 0.951 . S
C392 C387 1.429 . S
C392 C391 1.347 . S
H393 C394 0.951 . S
C394 H393 0.951 . S
C394 C400 1.265 . S
H395 C400 0.950 . S
H396 C404 0.949 . S
H397 C405 0.950 . S
H398 C406 0.951 . S
H399 C407 0.951 . S
C400 C394 1.265 . S
C400 H395 0.950 . S
C400 C401 1.478 . S
C401 C388 1.394 . S
C401 C400 1.478 . S
C401 C402 1.397 . S
C402 C401 1.397 . S
C402 C403 1.438 . S
C402 C407 1.429 . S
C403 C386 1.394 . S
C403 C402 1.438 . S
C403 C404 1.428 . S
C404 H396 0.949 . S
C404 C403 1.428 . S
C404 C405 1.345 . S
C405 H397 0.950 . S
C405 C404 1.345 . S
C405 C406 1.424 . S
C406 H398 0.951 . S
C406 C405 1.424 . S
C406 C407 1.347 . S
C407 H399 0.951 . S
C407 C402 1.429 . S
C407 C406 1.347 . S
H408 C409 0.951 . S
C409 H408 0.951 . S
C409 C415 1.265 . S
H410 C415 0.950 . S
H411 C419 0.949 . S
H412 C420 0.950 . S
H413 C421 0.951 . S
H414 C422 0.951 . S
C415 C409 1.265 . S
C415 H410 0.950 . S
C415 C416 1.478 . S
C416 C415 1.478 . S
C416 C417 1.397 . S
C416 C433 1.394 . S
C417 C416 1.397 . S
C417 C418 1.438 . S
C417 C422 1.429 . S
C418 C417 1.438 . S
C418 C419 1.428 . S
C418 C431 1.394 . S
C419 H411 0.949 . S
C419 C418 1.428 . S
C419 C420 1.345 . S
C420 H412 0.950 . S
C420 C419 1.345 . S
C420 C421 1.424 . S
C421 H413 0.951 . S
C421 C420 1.424 . S
C421 C422 1.347 . S
C422 H414 0.951 . S
C422 C417 1.429 . S
C422 C421 1.347 . S
H423 C424 0.951 . S
C424 H423 0.951 . S
C424 C430 1.265 . S
H425 C430 0.950 . S
H426 C434 0.949 . S
H427 C435 0.950 . S
H428 C436 0.951 . S
H429 C437 0.951 . S
C430 C424 1.265 . S
C430 H425 0.950 . S
C430 C431 1.478 . S
C431 C418 1.394 . S
C431 C430 1.478 . S
C431 C432 1.397 . S
C432 C431 1.397 . S
C432 C433 1.438 . S
C432 C437 1.429 . S
C433 C416 1.394 . S
C433 C432 1.438 . S
C433 C434 1.428 . S
C434 H426 0.949 . S
C434 C433 1.428 . S
C434 C435 1.345 . S
C435 H427 0.950 . S
C435 C434 1.345 . S
C435 C436 1.424 . S
C436 H428 0.951 . S
C436 C435 1.424 . S
C436 C437 1.347 . S
C437 H429 0.951 . S
C437 C432 1.429 . S
C437 C436 1.347 . S
H438 C439 0.951 . S
C439 H438 0.951 . S
C439 C445 1.265 . S
H440 C445 0.950 . S
H441 C449 0.949 . S
H442 C450 0.950 . S
H443 C451 0.951 . S
H444 C452 0.951 . S
C445 C439 1.265 . S
C445 H440 0.950 . S
C445 C446 1.478 . S
C446 C445 1.478 . S
C446 C447 1.397 . S
C446 C463 1.394 . S
C447 C446 1.397 . S
C447 C448 1.438 . S
C447 C452 1.429 . S
C448 C447 1.438 . S
C448 C449 1.428 . S
C448 C461 1.394 . S
C449 H441 0.949 . S
C449 C448 1.428 . S
C449 C450 1.345 . S
C450 H442 0.950 . S
C450 C449 1.345 . S
C450 C451 1.424 . S
C451 H443 0.951 . S
C451 C450 1.424 . S
C451 C452 1.347 . S
C452 H444 0.951 . S
C452 C447 1.429 . S
C452 C451 1.347 . S
H453 C454 0.951 . S
C454 H453 0.951 . S
C454 C460 1.265 . S
H455 C460 0.950 . S
H456 C464 0.949 . S
H457 C465 0.950 . S
H458 C466 0.951 . S
H459 C467 0.951 . S
C460 C454 1.265 . S
C460 H455 0.950 . S
C460 C461 1.478 . S
C461 C448 1.394 . S
C461 C460 1.478 . S
C461 C462 1.397 . S
C462 C461 1.397 . S
C462 C463 1.438 . S
C462 C467 1.429 . S
C463 C446 1.394 . S
C463 C462 1.438 . S
C463 C464 1.428 . S
C464 H456 0.949 . S
C464 C463 1.428 . S
C464 C465 1.345 . S
C465 H457 0.950 . S
C465 C464 1.345 . S
C465 C466 1.424 . S
C466 H458 0.951 . S
C466 C465 1.424 . S
C466 C467 1.347 . S
C467 H459 0.951 . S
C467 C462 1.429 . S
C467 C466 1.347 . S
H468 C469 0.951 . S
C469 H468 0.951 . S
C469 C475 1.265 . S
H470 C475 0.950 . S
H471 C479 0.949 . S
H472 C480 0.950 . S
H473 C481 0.951 . S
H474 C482 0.951 . S
C475 C469 1.265 . S
C475 H470 0.950 . S
C475 C476 1.478 . S
C476 C475 1.478 . S
C476 C477 1.397 . S
C476 C493 1.394 . S
C477 C476 1.397 . S
C477 C478 1.438 . S
C477 C482 1.429 . S
C478 C477 1.438 . S
C478 C479 1.428 . S
C478 C491 1.394 . S
C479 H471 0.949 . S
C479 C478 1.428 . S
C479 C480 1.345 . S
C480 H472 0.950 . S
C480 C479 1.345 . S
C480 C481 1.424 . S
C481 H473 0.951 . S
C481 C480 1.424 . S
C481 C482 1.347 . S
C482 H474 0.951 . S
C482 C477 1.429 . S
C482 C481 1.347 . S
H483 C484 0.951 . S
C484 H483 0.951 . S
C484 C490 1.265 . S
H485 C490 0.950 . S
H486 C494 0.949 . S
H487 C495 0.950 . S
H488 C496 0.951 . S
H489 C497 0.951 . S
C490 C484 1.265 . S
C490 H485 0.950 . S
C490 C491 1.478 . S
C491 C478 1.394 . S
C491 C490 1.478 . S
C491 C492 1.397 . S
C492 C491 1.397 . S
C492 C493 1.438 . S
C492 C497 1.429 . S
C493 C476 1.394 . S
C493 C492 1.438 . S
C493 C494 1.428 . S
C494 H486 0.949 . S
C494 C493 1.428 . S
C494 C495 1.345 . S
C495 H487 0.950 . S
C495 C494 1.345 . S
C495 C496 1.424 . S
C496 H488 0.951 . S
C496 C495 1.424 . S
C496 C497 1.347 . S
C497 H489 0.951 . S
C497 C492 1.429 . S
C497 C496 1.347 . S
H498 C499 0.951 1_655 S
C499 H498 0.951 1_455 S
C499 C505 1.265 . S
H500 C505 0.950 . S
H501 C509 0.949 . S
H502 C510 0.950 . S
H503 C511 0.951 . S
H504 C512 0.951 . S
C505 C499 1.265 . S
C505 H500 0.950 . S
C505 C506 1.478 . S
C506 C505 1.478 . S
C506 C507 1.397 . S
C506 C523 1.394 . S
C507 C506 1.397 . S
C507 C508 1.438 1_554 S
C507 C512 1.429 . S
C508 C507 1.438 1_556 S
C508 C509 1.428 . S
C508 C521 1.394 . S
C509 H501 0.949 . S
C509 C508 1.428 . S
C509 C510 1.345 . S
C510 H502 0.950 . S
C510 C509 1.345 . S
C510 C511 1.424 1_556 S
C511 H503 0.951 . S
C511 C510 1.424 1_554 S
C511 C512 1.347 . S
C512 H504 0.951 . S
C512 C507 1.429 . S
C512 C511 1.347 . S
H513 C514 0.951 . S
C514 H513 0.951 . S
C514 C520 1.265 . S
H515 C520 0.950 1_655 S
H516 C524 0.949 . S
H517 C525 0.950 . S
H518 C526 0.951 . S
H519 C527 0.951 . S
C520 C514 1.265 . S
C520 H515 0.950 1_455 S
C520 C521 1.478 . S
C521 C508 1.394 . S
C521 C520 1.478 . S
C521 C522 1.413 . S
C522 C521 1.413 . S
C522 C523 1.414 1_556 S
C522 C527 1.436 . S
C523 C506 1.394 . S
C523 C522 1.414 1_554 S
C523 C524 1.428 . S
C524 H516 0.949 . S
C524 C523 1.428 . S
C524 C525 1.345 . S
C525 H517 0.950 . S
C525 C524 1.345 . S
C525 C526 1.424 . S
C526 H518 0.951 . S
C526 C525 1.424 . S
C526 C527 1.347 1_554 S
C527 H519 0.951 . S
C527 C522 1.436 . S
C527 C526 1.347 1_556 S
H528 C529 0.951 . S
C529 H528 0.951 . S
C529 C535 1.265 . S
H530 C535 0.950 . S
H531 C539 0.949 . S
H532 C540 0.950 . S
H533 C541 0.951 . S
H534 C542 0.951 . S
C535 C529 1.265 . S
C535 H530 0.950 . S
C535 C536 1.478 . S
C536 C535 1.478 . S
C536 C537 1.397 1_545 S
C536 C553 1.394 . S
C537 C536 1.397 1_565 S
C537 C538 1.438 . S
C537 C542 1.429 . S
C538 C537 1.438 . S
C538 C539 1.428 . S
C538 C551 1.394 1_565 S
C539 H531 0.949 . S
C539 C538 1.428 . S
C539 C540 1.345 . S
C540 H532 0.950 . S
C540 C539 1.345 . S
C540 C541 1.424 . S
C541 H533 0.951 . S
C541 C540 1.424 . S
C541 C542 1.347 . S
C542 H534 0.951 . S
C542 C537 1.429 . S
C542 C541 1.347 . S
H543 C544 0.951 . S
C544 H543 0.951 . S
C544 C550 1.265 . S
H545 C550 0.950 . S
H546 C554 0.949 . S
H547 C555 0.950 . S
H548 C556 0.951 . S
H549 C557 0.951 . S
C550 C544 1.265 . S
C550 H545 0.950 . S
C550 C551 1.478 . S
C551 C538 1.394 1_545 S
C551 C550 1.478 . S
C551 C552 1.397 . S
C552 C551 1.397 . S
C552 C553 1.438 . S
C552 C557 1.429 . S
C553 C536 1.394 . S
C553 C552 1.438 . S
C553 C554 1.428 . S
C554 H546 0.949 . S
C554 C553 1.428 . S
C554 C555 1.345 . S
C555 H547 0.950 . S
C555 C554 1.345 . S
C555 C556 1.424 . S
C556 H548 0.951 . S
C556 C555 1.424 . S
C556 C557 1.347 . S
C557 H549 0.951 . S
C557 C552 1.429 . S
C557 C556 1.347 . S
H558 C559 0.951 . S
C559 H558 0.951 . S
C559 C565 1.265 . S
H560 C565 0.950 . S
H561 C569 0.949 . S
H562 C570 0.950 . S
H563 C571 0.951 . S
H564 C572 0.951 . S
C565 C559 1.265 . S
C565 H560 0.950 . S
C565 C566 1.478 . S
C566 C565 1.478 . S
C566 C567 1.397 . S
C566 C583 1.394 . S
C567 C566 1.397 . S
C567 C568 1.438 . S
C567 C572 1.429 . S
C568 C567 1.438 . S
C568 C569 1.428 . S
C568 C581 1.394 . S
C569 H561 0.949 . S
C569 C568 1.428 . S
C569 C570 1.345 . S
C570 H562 0.950 . S
C570 C569 1.345 . S
C570 C571 1.424 . S
C571 H563 0.951 . S
C571 C570 1.424 . S
C571 C572 1.347 . S
C572 H564 0.951 . S
C572 C567 1.429 . S
C572 C571 1.347 . S
H573 C574 0.951 . S
C574 H573 0.951 . S
C574 C580 1.265 . S
H575 C580 0.950 . S
H576 C584 0.949 . S
H577 C585 0.950 . S
H578 C586 0.951 . S
H579 C587 0.951 . S
C580 C574 1.265 . S
C580 H575 0.950 . S
C580 C581 1.478 . S
C581 C568 1.394 . S
C581 C580 1.478 . S
C581 C582 1.397 . S
C582 C581 1.397 . S
C582 C583 1.438 . S
C582 C587 1.429 . S
C583 C566 1.394 . S
C583 C582 1.438 . S
C583 C584 1.428 . S
C584 H576 0.949 . S
C584 C583 1.428 . S
C584 C585 1.345 . S
C585 H577 0.950 . S
C585 C584 1.345 . S
C585 C586 1.424 . S
C586 H578 0.951 . S
C586 C585 1.424 . S
C586 C587 1.347 . S
C587 H579 0.951 . S
C587 C582 1.429 . S
C587 C586 1.347 . S
H588 C589 0.951 . S
C589 H588 0.951 . S
C589 C595 1.265 . S
H590 C595 0.950 . S
H591 C599 0.949 . S
H592 C600 0.950 . S
H593 C601 0.951 . S
H594 C602 0.951 . S
C595 C589 1.265 . S
C595 H590 0.950 . S
C595 C596 1.478 . S
C596 C595 1.478 . S
C596 C597 1.397 1_545 S
C596 C613 1.394 . S
C597 C596 1.397 1_565 S
C597 C598 1.438 . S
C597 C602 1.429 . S
C598 C597 1.438 . S
C598 C599 1.428 . S
C598 C611 1.394 1_565 S
C599 H591 0.949 . S
C599 C598 1.428 . S
C599 C600 1.345 . S
C600 H592 0.950 . S
C600 C599 1.345 . S
C600 C601 1.424 . S
C601 H593 0.951 . S
C601 C600 1.424 . S
C601 C602 1.347 . S
C602 H594 0.951 . S
C602 C597 1.429 . S
C602 C601 1.347 . S
H603 C604 0.951 . S
C604 H603 0.951 . S
C604 C610 1.265 . S
H605 C610 0.950 . S
H606 C614 0.949 . S
H607 C615 0.950 . S
H608 C616 0.951 . S
H609 C617 0.951 . S
C610 C604 1.265 . S
C610 H605 0.950 . S
C610 C611 1.478 . S
C611 C598 1.394 1_545 S
C611 C610 1.478 . S
C611 C612 1.397 . S
C612 C611 1.397 . S
C612 C613 1.438 . S
C612 C617 1.429 . S
C613 C596 1.394 . S
C613 C612 1.438 . S
C613 C614 1.428 . S
C614 H606 0.949 . S
C614 C613 1.428 . S
C614 C615 1.345 . S
C615 H607 0.950 . S
C615 C614 1.345 . S
C615 C616 1.424 . S
C616 H608 0.951 . S
C616 C615 1.424 . S
C616 C617 1.347 . S
C617 H609 0.951 . S
C617 C612 1.429 . S
C617 C616 1.347 . S
H618 C619 0.951 . S
C619 H618 0.951 . S
C619 C625 1.265 . S
H620 C625 0.950 . S
H621 C629 0.949 . S
H622 C630 0.950 . S
H623 C631 0.951 . S
H624 C632 0.951 . S
C625 C619 1.265 . S
C625 H620 0.950 . S
C625 C626 1.478 . S
C626 C625 1.478 . S
C626 C627 1.397 . S
C626 C643 1.394 . S
C627 C626 1.397 . S
C627 C628 1.438 1_556 S
C627 C632 1.429 . S
C628 C627 1.438 1_554 S
C628 C629 1.428 . S
C628 C641 1.394 . S
C629 H621 0.949 . S
C629 C628 1.428 . S
C629 C630 1.345 . S
C630 H622 0.950 . S
C630 C629 1.345 . S
C630 C631 1.424 1_554 S
C631 H623 0.951 . S
C631 C630 1.424 1_556 S
C631 C632 1.347 . S
C632 H624 0.951 . S
C632 C627 1.429 . S
C632 C631 1.347 . S
H633 C634 0.951 . S
C634 H633 0.951 . S
C634 C640 1.265 . S
H635 C640 0.950 . S
H636 C644 0.949 . S
H637 C645 0.950 . S
H638 C646 0.951 . S
H639 C647 0.951 . S
C640 C634 1.265 . S
C640 H635 0.950 . S
C640 C641 1.478 . S
C641 C628 1.394 . S
C641 C640 1.478 . S
C641 C642 1.397 1_554 S
C642 C641 1.397 1_556 S
C642 C643 1.438 . S
C642 C647 1.429 1_556 S
C643 C626 1.394 . S
C643 C642 1.438 . S
C643 C644 1.428 . S
C644 H636 0.949 . S
C644 C643 1.428 . S
C644 C645 1.345 . S
C645 H637 0.950 . S
C645 C644 1.345 . S
C645 C646 1.424 . S
C646 H638 0.951 . S
C646 C645 1.424 . S
C646 C647 1.347 1_556 S
C647 H639 0.951 . S
C647 C642 1.429 1_554 S
C647 C646 1.347 1_554 S
H648 C649 0.951 . S
C649 H648 0.951 . S
C649 C655 1.265 1_455 S
H650 C655 0.950 . S
H651 C659 0.949 . S
H652 C660 0.950 . S
H653 C661 0.951 . S
H654 C662 0.951 . S
C655 C649 1.265 1_655 S
C655 H650 0.950 . S
C655 C656 1.478 1_655 S
C656 C655 1.478 1_455 S
C656 C657 1.397 1_455 S
C656 C673 1.394 . S
C657 C656 1.397 1_655 S
C657 C658 1.438 . S
C657 C662 1.429 . S
C658 C657 1.438 . S
C658 C659 1.428 . S
C658 C671 1.394 1_655 S
C659 H651 0.949 . S
C659 C658 1.428 . S
C659 C660 1.345 . S
C660 H652 0.950 . S
C660 C659 1.345 . S
C660 C661 1.424 . S
C661 H653 0.951 . S
C661 C660 1.424 . S
C661 C662 1.347 . S
C662 H654 0.951 . S
C662 C657 1.429 . S
C662 C661 1.347 . S
H663 C664 0.951 . S
C664 H663 0.951 . S
C664 C670 1.265 . S
H665 C670 0.950 . S
H666 C674 0.949 . S
H667 C675 0.950 . S
H668 C676 0.951 . S
H669 C677 0.951 . S
C670 C664 1.265 . S
C670 H665 0.950 . S
C670 C671 1.478 . S
C671 C658 1.394 1_455 S
C671 C670 1.478 . S
C671 C672 1.397 . S
C672 C671 1.397 . S
C672 C673 1.438 . S
C672 C677 1.429 . S
C673 C656 1.394 . S
C673 C672 1.438 . S
C673 C674 1.428 . S
C674 H666 0.949 . S
C674 C673 1.428 . S
C674 C675 1.345 . S
C675 H667 0.950 . S
C675 C674 1.345 . S
C675 C676 1.424 . S
C676 H668 0.951 . S
C676 C675 1.424 . S
C676 C677 1.347 . S
C677 H669 0.951 . S
C677 C672 1.429 . S
C677 C676 1.347 . S
C139 C2 1.181 . S
C154 N127 1.168 . S
C169 C22 1.346 . S
C184 N100 1.402 1_655 S
C199 C44 1.214 . S
C214 N113 1.376 1_565 S
C229 C4 1.760 . S
C244 N126 1.855 . S
C274 N101 1.630 . S
C259 C24 1.618 . S
C304 N114 1.607 . S
C289 C42 1.462 . S
C319 C32 1.245 . S
C334 N74 1.243 . S
C349 C49 0.934 . S
C364 N88 0.946 1_655 S
C379 C9 1.346 . S
C394 N62 1.306 . S
C424 N75 1.298 . S
C409 C29 1.213 . S
C454 N87 1.539 . S
C439 C52 1.490 . S
C469 C12 1.230 . S
C484 N61 1.238 . S
C514 N91 1.518 . S
C499 C18 1.485 1_455 S
C529 C38 1.475 . S
C544 N65 1.528 . S
C559 C58 1.486 . S
C574 N78 1.470 . S
C604 N117 1.583 . S
C589 C39 1.580 . S
C634 N130 1.544 . S
C619 C59 1.518 . S
C649 C19 1.482 . S
C664 N104 1.561 . S
