# Generated by pormake.
# Topology ssc, (4,4)-cn, num edge types: 1
# Building blocks:
#     Node 0, Type 0, BuildingBlock: GALJAG_clean_sbu_0, # of connection points: 4
#     Node 1, Type 0, BuildingBlock: GALJAG_clean_sbu_0, # of connection points: 4
#     Node 2, Type 0, BuildingBlock: GALJAG_clean_sbu_0, # of connection points: 4
#     Node 3, Type 0, BuildingBlock: GALJAG_clean_sbu_0, # of connection points: 4
#     Node 4, Type 0, BuildingBlock: GALJAG_clean_sbu_0, # of connection points: 4
#     Node 5, Type 0, BuildingBlock: GALJAG_clean_sbu_0, # of connection points: 4
#     Node 6, Type 0, BuildingBlock: GALJAG_clean_sbu_0, # of connection points: 4
#     Node 7, Type 0, BuildingBlock: GALJAG_clean_sbu_0, # of connection points: 4
#     Node 8, Type 0, BuildingBlock: GALJAG_clean_sbu_0, # of connection points: 4
#     Node 9, Type 0, BuildingBlock: GALJAG_clean_sbu_0, # of connection points: 4
#     Node 10, Type 0, BuildingBlock: GALJAG_clean_sbu_0, # of connection points: 4
#     Node 11, Type 0, BuildingBlock: GALJAG_clean_sbu_0, # of connection points: 4
#     Node 12, Type 1, BuildingBlock: GIZVER_clean_linker_0, # of connection points: 4
#     Node 13, Type 1, BuildingBlock: GIZVER_clean_linker_0, # of connection points: 4
#     Node 14, Type 1, BuildingBlock: GIZVER_clean_linker_0, # of connection points: 4
#     Node 15, Type 1, BuildingBlock: GIZVER_clean_linker_0, # of connection points: 4
#     Node 16, Type 1, BuildingBlock: GIZVER_clean_linker_0, # of connection points: 4
#     Node 17, Type 1, BuildingBlock: GIZVER_clean_linker_0, # of connection points: 4
#     Node 18, Type 1, BuildingBlock: GIZVER_clean_linker_0, # of connection points: 4
#     Node 19, Type 1, BuildingBlock: GIZVER_clean_linker_0, # of connection points: 4
#     Node 20, Type 1, BuildingBlock: GIZVER_clean_linker_0, # of connection points: 4
#     Node 21, Type 1, BuildingBlock: GIZVER_clean_linker_0, # of connection points: 4
#     Node 22, Type 1, BuildingBlock: GIZVER_clean_linker_0, # of connection points: 4
#     Node 23, Type 1, BuildingBlock: GIZVER_clean_linker_0, # of connection points: 4
#     Edge 24, Type (0, 1), BuildingBlock: XIVTED_clean_linker_0, # of connection points: 2
#     Edge 25, Type (0, 1), BuildingBlock: XIVTED_clean_linker_0, # of connection points: 2
#     Edge 26, Type (0, 1), BuildingBlock: XIVTED_clean_linker_0, # of connection points: 2
#     Edge 27, Type (0, 1), BuildingBlock: XIVTED_clean_linker_0, # of connection points: 2
#     Edge 28, Type (0, 1), BuildingBlock: XIVTED_clean_linker_0, # of connection points: 2
#     Edge 29, Type (0, 1), BuildingBlock: XIVTED_clean_linker_0, # of connection points: 2
#     Edge 30, Type (0, 1), BuildingBlock: XIVTED_clean_linker_0, # of connection points: 2
#     Edge 31, Type (0, 1), BuildingBlock: XIVTED_clean_linker_0, # of connection points: 2
#     Edge 32, Type (0, 1), BuildingBlock: XIVTED_clean_linker_0, # of connection points: 2
#     Edge 33, Type (0, 1), BuildingBlock: XIVTED_clean_linker_0, # of connection points: 2
#     Edge 34, Type (0, 1), BuildingBlock: XIVTED_clean_linker_0, # of connection points: 2
#     Edge 35, Type (0, 1), BuildingBlock: XIVTED_clean_linker_0, # of connection points: 2
#     Edge 36, Type (0, 1), BuildingBlock: XIVTED_clean_linker_0, # of connection points: 2
#     Edge 37, Type (0, 1), BuildingBlock: XIVTED_clean_linker_0, # of connection points: 2
#     Edge 38, Type (0, 1), BuildingBlock: XIVTED_clean_linker_0, # of connection points: 2
#     Edge 39, Type (0, 1), BuildingBlock: XIVTED_clean_linker_0, # of connection points: 2
#     Edge 40, Type (0, 1), BuildingBlock: XIVTED_clean_linker_0, # of connection points: 2
#     Edge 41, Type (0, 1), BuildingBlock: XIVTED_clean_linker_0, # of connection points: 2
#     Edge 42, Type (0, 1), BuildingBlock: XIVTED_clean_linker_0, # of connection points: 2
#     Edge 43, Type (0, 1), BuildingBlock: XIVTED_clean_linker_0, # of connection points: 2
#     Edge 44, Type (0, 1), BuildingBlock: XIVTED_clean_linker_0, # of connection points: 2
#     Edge 45, Type (0, 1), BuildingBlock: XIVTED_clean_linker_0, # of connection points: 2
#     Edge 46, Type (0, 1), BuildingBlock: XIVTED_clean_linker_0, # of connection points: 2
#     Edge 47, Type (0, 1), BuildingBlock: XIVTED_clean_linker_0, # of connection points: 2
#     Edge 48, Type (0, 1), BuildingBlock: XIVTED_clean_linker_0, # of connection points: 2
#     Edge 49, Type (0, 1), BuildingBlock: XIVTED_clean_linker_0, # of connection points: 2
#     Edge 50, Type (0, 1), BuildingBlock: XIVTED_clean_linker_0, # of connection points: 2
#     Edge 51, Type (0, 1), BuildingBlock: XIVTED_clean_linker_0, # of connection points: 2
#     Edge 52, Type (0, 1), BuildingBlock: XIVTED_clean_linker_0, # of connection points: 2
#     Edge 53, Type (0, 1), BuildingBlock: XIVTED_clean_linker_0, # of connection points: 2
#     Edge 54, Type (0, 1), BuildingBlock: XIVTED_clean_linker_0, # of connection points: 2
#     Edge 55, Type (0, 1), BuildingBlock: XIVTED_clean_linker_0, # of connection points: 2
#     Edge 56, Type (0, 1), BuildingBlock: XIVTED_clean_linker_0, # of connection points: 2
#     Edge 57, Type (0, 1), BuildingBlock: XIVTED_clean_linker_0, # of connection points: 2
#     Edge 58, Type (0, 1), BuildingBlock: XIVTED_clean_linker_0, # of connection points: 2
#     Edge 59, Type (0, 1), BuildingBlock: XIVTED_clean_linker_0, # of connection points: 2
#     Edge 60, Type (0, 1), BuildingBlock: XIVTED_clean_linker_0, # of connection points: 2
#     Edge 61, Type (0, 1), BuildingBlock: XIVTED_clean_linker_0, # of connection points: 2
#     Edge 62, Type (0, 1), BuildingBlock: XIVTED_clean_linker_0, # of connection points: 2
#     Edge 63, Type (0, 1), BuildingBlock: XIVTED_clean_linker_0, # of connection points: 2
#     Edge 64, Type (0, 1), BuildingBlock: XIVTED_clean_linker_0, # of connection points: 2
#     Edge 65, Type (0, 1), BuildingBlock: XIVTED_clean_linker_0, # of connection points: 2
#     Edge 66, Type (0, 1), BuildingBlock: XIVTED_clean_linker_0, # of connection points: 2
#     Edge 67, Type (0, 1), BuildingBlock: XIVTED_clean_linker_0, # of connection points: 2
#     Edge 68, Type (0, 1), BuildingBlock: XIVTED_clean_linker_0, # of connection points: 2
#     Edge 69, Type (0, 1), BuildingBlock: XIVTED_clean_linker_0, # of connection points: 2
#     Edge 70, Type (0, 1), BuildingBlock: XIVTED_clean_linker_0, # of connection points: 2
#     Edge 71, Type (0, 1), BuildingBlock: XIVTED_clean_linker_0, # of connection points: 2
# Relax obj value: 0.069
# Max RMSD: 0.290
# Mean RMSD: 0.243
data_MOF--net-ssc--node1-GALJAG_clean_sbu_0--node2-GIZVER_clean_linker_0--edge1-XIVTED_clean_linker_0
_symmetry_space_group_name_H-M    P1
_symmetry_Int_Tables_number       1
_symmetry_cell_setting            triclinic
loop_
_symmetry_equiv_pos_as_xyz
'x, y, z'
_cell_length_a     31.602816
_cell_length_b     31.64045
_cell_length_c     31.636191
_cell_angle_alpha  90.14783
_cell_angle_beta   90.080246
_cell_angle_gamma 90.994313
loop_
_atom_site_label
_atom_site_type_symbol
_atom_site_fract_x
_atom_site_fract_y
_atom_site_fract_z
_atom_type_partial_charge
In0 In 0.00467 0.25091 0.12945 0.0
O1 O 0.05204 0.2294 0.18001 0.0
O2 O 0.06815 0.28281 0.14261 0.0
C3 C 0.01493 0.17874 0.08463 0.0
C4 C 0.93875 0.25379 0.18435 0.0
C5 C 0.99119 0.31519 0.07476 0.0
O6 O 0.99203 0.18054 0.11718 0.0
O7 O 0.03418 0.21284 0.07586 0.0
O8 O 0.97857 0.27783 0.06769 0.0
O9 O 0.00848 0.32046 0.11032 0.0
C10 C 0.0782 0.25912 0.17282 0.0
O11 O 0.97476 0.26948 0.19222 0.0
O12 O 0.93531 0.23757 0.14807 0.0
In13 In 0.01666 0.7441 0.38445 0.0
O14 O 0.98317 0.71524 0.44186 0.0
O15 O 0.03214 0.68064 0.41241 0.0
C16 C 0.94773 0.72969 0.33581 0.0
C17 C 0.03575 0.81319 0.43134 0.0
C18 C 0.08102 0.74606 0.32902 0.0
O19 O 0.97999 0.70689 0.33455 0.0
O20 O 0.95009 0.76002 0.36179 0.0
O21 O 0.05047 0.7711 0.32649 0.0
O22 O 0.07922 0.72076 0.3597 0.0
C23 C 0.00496 0.68223 0.44148 0.0
O24 O 0.05573 0.77919 0.43413 0.0
O25 O 0.0062 0.81262 0.40442 0.0
In26 In 0.51746 0.74646 0.63284 0.0
O27 O 0.5365 0.71148 0.57218 0.0
O28 O 0.49597 0.6796 0.61529 0.0
C29 C 0.59171 0.73669 0.67437 0.0
C30 C 0.50596 0.81722 0.58623 0.0
C31 C 0.45542 0.75271 0.6915 0.0
O32 O 0.58795 0.7604 0.64267 0.0
O33 O 0.55839 0.71649 0.6841 0.0
O34 O 0.49083 0.7713 0.69539 0.0
O35 O 0.45088 0.73237 0.65746 0.0
C36 C 0.5146 0.67876 0.58013 0.0
O37 O 0.48372 0.78409 0.58166 0.0
O38 O 0.53322 0.81518 0.61523 0.0
In39 In 0.48121 0.25726 0.86968 0.0
O40 O 0.52045 0.29889 0.82549 0.0
O41 O 0.55002 0.24536 0.85217 0.0
C42 C 0.48733 0.31261 0.93412 0.0
C43 C 0.42125 0.2572 0.80935 0.0
C44 C 0.46064 0.18399 0.90836 0.0
O45 O 0.5089 0.2795 0.93262 0.0
O46 O 0.46307 0.31793 0.90295 0.0
O47 O 0.43929 0.21705 0.91221 0.0
O48 O 0.49232 0.18757 0.88423 0.0
C49 C 0.55342 0.27725 0.82842 0.0
O50 O 0.41976 0.28064 0.84162 0.0
O51 O 0.45293 0.2335 0.80763 0.0
In52 In 0.14042 0.99772 0.24982 0.0
O53 O 0.19048 0.9632 0.2881 0.0
O54 O 0.1612 0.93057 0.23681 0.0
C55 C 0.08658 0.98594 0.31504 0.0
C56 C 0.19286 0.06602 0.24342 0.0
C57 C 0.09302 0.00047 0.17865 0.0
O58 O 0.08221 0.9673 0.28006 0.0
O59 O 0.1176 0.0115 0.31694 0.0
O60 O 0.08601 0.02359 0.2104 0.0
O61 O 0.1251 0.97752 0.18213 0.0
C62 C 0.18719 0.92944 0.26705 0.0
O63 O 0.20077 0.03087 0.22653 0.0
O64 O 0.15775 0.06719 0.26229 0.0
In65 In 0.21339 0.88795 0.55532 0.0
O66 O 0.22072 0.87175 0.48531 0.0
O67 O 0.18168 0.83146 0.52256 0.0
C68 C 0.15076 0.94464 0.55661 0.0
C69 C 0.21302 0.83085 0.61872 0.0
C70 C 0.28617 0.93515 0.5571 0.0
O71 O 0.167 0.93218 0.52248 0.0
O72 O 0.16626 0.92868 0.58949 0.0
O73 O 0.25473 0.94307 0.5801 0.0
O74 O 0.28161 0.90244 0.53461 0.0
C75 C 0.19755 0.83894 0.4868 0.0
O76 O 0.24562 0.83783 0.59656 0.0
O77 O 0.18192 0.85343 0.60959 0.0
In78 In 0.39453 0.00811 0.71993 0.0
O79 O 0.33384 0.97881 0.69259 0.0
O80 O 0.37118 0.94038 0.73229 0.0
C81 C 0.44071 0.00855 0.64825 0.0
C82 C 0.34823 0.07426 0.74514 0.0
C83 C 0.45474 0.01579 0.78011 0.0
O84 O 0.44571 0.98129 0.67684 0.0
O85 O 0.41063 0.03345 0.65473 0.0
O86 O 0.45389 0.03878 0.74774 0.0
O87 O 0.42529 0.98839 0.7822 0.0
C88 C 0.33759 0.94375 0.71099 0.0
O89 O 0.37058 0.07492 0.71215 0.0
O90 O 0.34879 0.04 0.76533 0.0
In91 In 0.23589 0.11676 0.05126 0.0
O92 O 0.20476 0.17752 0.07424 0.0
O93 O 0.23968 0.1424 0.11876 0.0
C94 C 0.16897 0.06172 0.0439 0.0
C95 C 0.2637 0.16269 0.98474 0.0
C96 C 0.3054 0.06977 0.06066 0.0
O97 O 0.20178 0.05372 0.06476 0.0
O98 O 0.16892 0.09825 0.02812 0.0
O99 O 0.2888 0.08943 0.09102 0.0
O100 O 0.28683 0.07373 0.0256 0.0
C101 C 0.21916 0.17537 0.11134 0.0
O102 O 0.27766 0.16804 0.02174 0.0
O103 O 0.23574 0.1339 0.98113 0.0
In104 In 0.72648 0.35637 0.04403 0.0
O105 O 0.74958 0.30822 0.0924 0.0
O106 O 0.69426 0.3427 0.10665 0.0
C107 C 0.79013 0.41373 0.05519 0.0
C108 C 0.72369 0.29416 0.98554 0.0
C109 C 0.66298 0.40213 0.01197 0.0
O110 O 0.75336 0.41871 0.06956 0.0
O111 O 0.7956 0.37856 0.03726 0.0
O112 O 0.69801 0.39862 0.99346 0.0
O113 O 0.66004 0.3826 0.04657 0.0
C114 C 0.71906 0.31381 0.11746 0.0
O115 O 0.69956 0.29468 0.01714 0.0
O116 O 0.74984 0.32469 0.98362 0.0
In117 In 0.87136 0.54477 0.18151 0.0
O118 O 0.85483 0.47689 0.20189 0.0
O119 O 0.80999 0.50866 0.1645 0.0
C120 C 0.93218 0.53074 0.12328 0.0
C121 C 0.82107 0.6109 0.16698 0.0
C122 C 0.91616 0.56766 0.25108 0.0
O123 O 0.90924 0.56288 0.12311 0.0
O124 O 0.92318 0.50429 0.15178 0.0
O125 O 0.92569 0.57993 0.21445 0.0
O126 O 0.88311 0.54485 0.25293 0.0
C127 C 0.81898 0.47559 0.18443 0.0
O128 O 0.82683 0.5965 0.20373 0.0
O129 O 0.84053 0.59185 0.13804 0.0
In130 In 0.75139 0.62395 0.5071 0.0
O131 O 0.72834 0.67801 0.5487 0.0
O132 O 0.77409 0.63699 0.57447 0.0
C133 C 0.68503 0.56949 0.51612 0.0
C134 C 0.75807 0.67935 0.44275 0.0
C135 C 0.81874 0.57869 0.48306 0.0
O136 O 0.72089 0.5632 0.53229 0.0
O137 O 0.68208 0.6042 0.49684 0.0
O138 O 0.78299 0.57441 0.46573 0.0
O139 O 0.82016 0.6049 0.51314 0.0
C140 C 0.75225 0.66963 0.57945 0.0
O141 O 0.78117 0.68154 0.47518 0.0
O142 O 0.7307 0.64984 0.4432 0.0
In143 In 0.64448 0.48384 0.7064 0.0
O144 O 0.67812 0.43243 0.67024 0.0
O145 O 0.69164 0.43841 0.73582 0.0
C146 C 0.59299 0.45648 0.76926 0.0
C147 C 0.69291 0.55561 0.71298 0.0
C148 C 0.59078 0.49556 0.64113 0.0
O149 O 0.62471 0.48033 0.77585 0.0
O150 O 0.5875 0.44624 0.73115 0.0
O151 O 0.59132 0.51947 0.67315 0.0
O152 O 0.61844 0.46735 0.64142 0.0
C153 C 0.69829 0.41892 0.70169 0.0
O154 O 0.70252 0.52501 0.6895 0.0
O155 O 0.65825 0.55064 0.73213 0.0
H156 H 0.12671 0.31284 0.69436 0.0
H157 H 0.05509 0.25914 0.59074 0.0
H158 H 0.10521 0.17854 0.68617 0.0
H159 H 0.08661 0.35947 0.65006 0.0
H160 H 0.10741 0.34104 0.60099 0.0
H161 H 0.00521 0.31315 0.65803 0.0
H162 H 0.92814 0.3545 0.55514 0.0
H163 H 0.06306 0.37309 0.55004 0.0
C164 C 0.11182 0.28569 0.67908 0.0
C165 C 0.11843 0.24503 0.6951 0.0
C166 C 0.08803 0.29126 0.64208 0.0
C167 C 0.07147 0.25555 0.6206 0.0
C168 C 0.07579 0.2151 0.6376 0.0
C169 C 0.09885 0.21021 0.67508 0.0
C170 C 0.08215 0.33525 0.62483 0.0
C171 C 0.03907 0.34051 0.60513 0.0
C172 C 0.00248 0.32679 0.62677 0.0
C173 C 0.96255 0.32999 0.60798 0.0
C174 C 0.95931 0.34891 0.56811 0.0
C175 C 0.99518 0.36545 0.54737 0.0
C176 C 0.03517 0.36039 0.56574 0.0
H177 H 0.08539 0.73447 0.81545 0.0
H178 H 0.01956 0.77526 0.92724 0.0
H179 H 0.08854 0.86524 0.85123 0.0
H180 H 0.04851 0.68306 0.85487 0.0
H181 H 0.05711 0.6962 0.90903 0.0
H182 H 0.96949 0.72092 0.83013 0.0
H183 H 0.87557 0.65482 0.90421 0.0
H184 H 0.00443 0.65948 0.94619 0.0
C185 C 0.07451 0.75964 0.83582 0.0
C186 C 0.08886 0.80119 0.82854 0.0
C187 C 0.04817 0.75011 0.87055 0.0
C188 C 0.0373 0.78271 0.89884 0.0
C189 C 0.0511 0.82457 0.89146 0.0
C190 C 0.07584 0.83348 0.85568 0.0
C191 C 0.03801 0.70432 0.88073 0.0
C192 C 0.99163 0.69483 0.88917 0.0
C193 C 0.9605 0.70441 0.85881 0.0
C194 C 0.91824 0.6907 0.86445 0.0
C195 C 0.90749 0.66754 0.90079 0.0
C196 C 0.93838 0.65574 0.93 0.0
C197 C 0.98032 0.6697 0.92425 0.0
H198 H 0.45 0.64962 0.03351 0.0
H199 H 0.51769 0.72776 0.12341 0.0
H200 H 0.58506 0.6653 0.02509 0.0
H201 H 0.41035 0.69701 0.07945 0.0
H202 H 0.43258 0.66849 0.12209 0.0
H203 H 0.45627 0.77828 0.07961 0.0
H204 H 0.41407 0.83867 0.19312 0.0
H205 H 0.40624 0.70371 0.18204 0.0
C206 C 0.47914 0.66512 0.04378 0.0
C207 C 0.5175 0.65447 0.02457 0.0
C208 C 0.47853 0.69221 0.07896 0.0
C209 C 0.517 0.70936 0.0945 0.0
C210 C 0.55518 0.7014 0.07374 0.0
C211 C 0.555 0.67462 0.03837 0.0
C212 C 0.43717 0.69719 0.10227 0.0
C213 C 0.43466 0.7365 0.12915 0.0
C214 C 0.44478 0.77628 0.11181 0.0
C215 C 0.43878 0.81337 0.13526 0.0
C216 C 0.42221 0.81008 0.17629 0.0
C217 C 0.40976 0.77082 0.19324 0.0
C218 C 0.41687 0.73402 0.16975 0.0
H219 H 0.59845 0.23841 0.3071 0.0
H220 H 0.53986 0.27255 0.42525 0.0
H221 H 0.59594 0.36824 0.34595 0.0
H222 H 0.56588 0.18394 0.34772 0.0
H223 H 0.57718 0.19523 0.40195 0.0
H224 H 0.48608 0.22132 0.32788 0.0
H225 H 0.39396 0.16138 0.40863 0.0
H226 H 0.52535 0.1588 0.44222 0.0
C227 C 0.58802 0.26231 0.32919 0.0
C228 C 0.59859 0.30493 0.32174 0.0
C229 C 0.56528 0.25043 0.36579 0.0
C230 C 0.55488 0.28165 0.39578 0.0
C231 C 0.56521 0.32438 0.38837 0.0
C232 C 0.58599 0.33562 0.35082 0.0
C233 C 0.55662 0.20408 0.37493 0.0
C234 C 0.51075 0.19425 0.38553 0.0
C235 C 0.4783 0.20514 0.35709 0.0
C236 C 0.43599 0.19401 0.36579 0.0
C237 C 0.42636 0.17172 0.40285 0.0
C238 C 0.45827 0.15842 0.43017 0.0
C239 C 0.50052 0.16976 0.42151 0.0
H240 H 0.5183 0.96517 0.15387 0.0
H241 H 0.61731 0.01539 0.23435 0.0
H242 H 0.54175 0.0989 0.16036 0.0
H243 H 0.54866 0.91984 0.2074 0.0
H244 H 0.5985 0.92828 0.18293 0.0
H245 H 0.54476 0.95835 0.28586 0.0
H246 H 0.6466 0.91034 0.36082 0.0
H247 H 0.65448 0.90693 0.22549 0.0
C248 C 0.53494 0.99198 0.16787 0.0
C249 C 0.52549 0.03286 0.15456 0.0
C250 C 0.56704 0.98524 0.19768 0.0
C251 C 0.59078 0.02014 0.21329 0.0
C252 C 0.58094 0.06138 0.20085 0.0
C253 C 0.54776 0.06738 0.17208 0.0
C254 C 0.5777 0.94022 0.20849 0.0
C255 C 0.59833 0.93516 0.2511 0.0
C256 C 0.57622 0.94542 0.28818 0.0
C257 C 0.59397 0.93757 0.32806 0.0
C258 C 0.63415 0.91939 0.33026 0.0
C259 C 0.65594 0.90768 0.29349 0.0
C260 C 0.63818 0.91649 0.25399 0.0
H261 H 0.21648 0.36919 0.56349 0.0
H262 H 0.2778 0.47424 0.50057 0.0
H263 H 0.35206 0.37829 0.55891 0.0
H264 H 0.17368 0.42114 0.53363 0.0
H265 H 0.19902 0.47225 0.53512 0.0
H266 H 0.21945 0.38708 0.45328 0.0
H267 H 0.15477 0.45464 0.3558 0.0
H268 H 0.15314 0.50121 0.48315 0.0
C269 C 0.24504 0.38476 0.55202 0.0
C270 C 0.28456 0.36866 0.56301 0.0
C271 C 0.24232 0.42217 0.52837 0.0
C272 C 0.27964 0.444 0.51644 0.0
C273 C 0.31924 0.42746 0.52653 0.0
C274 C 0.32137 0.38936 0.54875 0.0
C275 C 0.1996 0.44069 0.51955 0.0
C276 C 0.19055 0.44563 0.47294 0.0
C277 C 0.20219 0.41459 0.44322 0.0
C278 C 0.1905 0.41844 0.40056 0.0
C279 C 0.16622 0.45299 0.38809 0.0
C280 C 0.15202 0.48244 0.41776 0.0
C281 C 0.16475 0.47891 0.45998 0.0
H282 H 0.95362 0.0136 0.68634 0.0
H283 H 0.84398 0.95369 0.74237 0.0
H284 H 0.93183 0.88034 0.67065 0.0
H285 H 0.90791 0.05571 0.72635 0.0
H286 H 0.85605 0.03825 0.71153 0.0
H287 H 0.93244 0.01521 0.80132 0.0
H288 H 0.84387 0.05598 0.89521 0.0
H289 H 0.80871 0.05618 0.76436 0.0
C290 C 0.93558 0.98518 0.69401 0.0
C291 C 0.94786 0.94641 0.67701 0.0
C292 C 0.89876 0.98786 0.71862 0.0
C293 C 0.87371 0.95131 0.72555 0.0
C294 C 0.88593 0.91214 0.70903 0.0
C295 C 0.92361 0.9099 0.68574 0.0
C296 C 0.88347 0.03066 0.73207 0.0
C297 C 0.87083 0.03233 0.77799 0.0
C298 C 0.90083 0.02481 0.80992 0.0
C299 C 0.89095 0.03232 0.85257 0.0
C300 C 0.85051 0.04693 0.86284 0.0
C301 C 0.82097 0.05633 0.83123 0.0
C302 C 0.83096 0.04786 0.78897 0.0
H303 H 0.31319 0.65231 0.09783 0.0
H304 H 0.25977 0.55125 0.02175 0.0
H305 H 0.17865 0.64078 0.08129 0.0
H306 H 0.36024 0.60831 0.06072 0.0
H307 H 0.33917 0.55559 0.06474 0.0
H308 H 0.32506 0.64388 0.98446 0.0
H309 H 0.36815 0.56697 0.88187 0.0
H310 H 0.36811 0.51765 0.00823 0.0
C311 C 0.28604 0.63686 0.0831 0.0
C312 C 0.24531 0.65125 0.09187 0.0
C313 C 0.29164 0.60161 0.05665 0.0
C314 C 0.25591 0.5798 0.04026 0.0
C315 C 0.2152 0.59476 0.04814 0.0
C316 C 0.21033 0.63088 0.07316 0.0
C317 C 0.33564 0.58616 0.04793 0.0
C318 C 0.34322 0.5804 0.00121 0.0
C319 C 0.33614 0.61379 0.97282 0.0
C320 C 0.34377 0.60845 0.9295 0.0
C321 C 0.35959 0.56997 0.91492 0.0
C322 C 0.36929 0.53739 0.94312 0.0
C323 C 0.36036 0.54255 0.9862 0.0
H324 H 0.75098 0.79979 0.07328 0.0
H325 H 0.80851 0.90844 0.01343 0.0
H326 H 0.88341 0.82629 0.08998 0.0
H327 H 0.70797 0.84242 0.03153 0.0
H328 H 0.72363 0.89462 0.04681 0.0
H329 H 0.7521 0.82116 0.95612 0.0
H330 H 0.70313 0.90655 0.86346 0.0
H331 H 0.70065 0.94014 0.99472 0.0
C332 C 0.77903 0.81827 0.06524 0.0
C333 C 0.81788 0.808 0.0834 0.0
C334 C 0.77555 0.85396 0.03932 0.0
C335 C 0.81156 0.87962 0.03153 0.0
C336 C 0.851 0.86922 0.04887 0.0
C337 C 0.85386 0.83284 0.07403 0.0
C338 C 0.73218 0.86774 0.02595 0.0
C339 C 0.72977 0.88066 0.98021 0.0
C340 C 0.73973 0.85182 0.94794 0.0
C341 C 0.73126 0.86145 0.90544 0.0
C342 C 0.71287 0.90039 0.89571 0.0
C343 C 0.70105 0.92857 0.92775 0.0
C344 C 0.71072 0.919 0.96979 0.0
H345 H 0.41209 0.5253 0.1864 0.0
H346 H 0.29471 0.48428 0.2434 0.0
H347 H 0.37743 0.39361 0.18773 0.0
H348 H 0.36723 0.57708 0.21274 0.0
H349 H 0.31287 0.56114 0.20771 0.0
H350 H 0.39456 0.53749 0.29298 0.0
H351 H 0.32397 0.60315 0.388 0.0
H352 H 0.28068 0.60273 0.25961 0.0
C353 C 0.39099 0.5 0.19671 0.0
C354 C 0.39978 0.45821 0.18547 0.0
C355 C 0.35363 0.5096 0.21845 0.0
C356 C 0.32475 0.47684 0.2289 0.0
C357 C 0.33395 0.43471 0.21893 0.0
C358 C 0.37192 0.42573 0.19818 0.0
C359 C 0.34252 0.55522 0.22559 0.0
C360 C 0.33628 0.56567 0.27168 0.0
C361 C 0.36675 0.55478 0.30225 0.0
C362 C 0.36189 0.56738 0.34457 0.0
C363 C 0.3267 0.59132 0.35591 0.0
C364 C 0.29782 0.60459 0.32535 0.0
C365 C 0.30252 0.59151 0.28339 0.0
H366 H 0.78968 0.21418 0.60128 0.0
H367 H 0.74304 0.10361 0.53512 0.0
H368 H 0.65615 0.18867 0.59338 0.0
H369 H 0.83873 0.17345 0.5624 0.0
H370 H 0.82431 0.12251 0.58218 0.0
H371 H 0.79958 0.18264 0.48133 0.0
H372 H 0.85203 0.08605 0.40254 0.0
H373 H 0.85454 0.07246 0.53736 0.0
C374 C 0.76344 0.19536 0.58893 0.0
C375 C 0.72195 0.20641 0.59899 0.0
C376 C 0.77133 0.15897 0.56492 0.0
C377 C 0.73713 0.13292 0.55173 0.0
C378 C 0.69533 0.14411 0.56085 0.0
C379 C 0.68814 0.18132 0.58383 0.0
C380 C 0.81651 0.14621 0.55759 0.0
C381 C 0.82371 0.12822 0.51406 0.0
C382 C 0.8136 0.1518 0.47786 0.0
C383 C 0.82279 0.13624 0.43734 0.0
C384 C 0.84227 0.09689 0.43352 0.0
C385 C 0.85431 0.07401 0.4694 0.0
C386 C 0.84447 0.08959 0.50957 0.0
H387 H 0.07816 0.45711 0.67811 0.0
H388 H 0.18469 0.51605 0.74141 0.0
H389 H 0.08435 0.59196 0.69378 0.0
H390 H 0.13206 0.41337 0.70321 0.0
H391 H 0.18275 0.43965 0.70043 0.0
H392 H 0.09842 0.44976 0.78504 0.0
H393 H 0.1764 0.3934 0.87975 0.0
H394 H 0.21893 0.39788 0.75102 0.0
C395 C 0.09356 0.48512 0.69118 0.0
C396 C 0.076 0.52489 0.68411 0.0
C397 C 0.13234 0.48163 0.71254 0.0
C398 C 0.15374 0.51837 0.72686 0.0
C399 C 0.13564 0.55811 0.72136 0.0
C400 C 0.09645 0.5609 0.7009 0.0
C401 C 0.15204 0.43888 0.7176 0.0
C402 C 0.15944 0.42822 0.76343 0.0
C403 C 0.12809 0.43565 0.79408 0.0
C404 C 0.13464 0.42431 0.83636 0.0
C405 C 0.17239 0.40457 0.84763 0.0
C406 C 0.20257 0.39432 0.81695 0.0
C407 C 0.1961 0.40653 0.77495 0.0
H408 H 0.02997 0.39296 0.07858 0.0
H409 H 0.05279 0.39609 0.82894 0.0
H410 H 0.96084 0.30999 0.99375 0.0
H411 H 0.13917 0.45718 0.91625 0.0
H412 H 0.00306 0.38373 0.88713 0.0
H413 H 0.05318 0.43511 0.01798 0.0
C414 C 0.01856 0.38436 0.04736 0.0
C415 C 0.99433 0.3473 0.04102 0.0
C416 C 0.03242 0.4008 0.89335 0.0
C417 C 0.02088 0.39539 0.97175 0.0
C418 C 0.06066 0.40813 0.86011 0.0
C419 C 0.10036 0.42706 0.86807 0.0
C420 C 0.04409 0.41252 0.93468 0.0
C421 C 0.10912 0.44184 0.90904 0.0
C422 C 0.03191 0.40843 0.01281 0.0
C423 C 0.98019 0.33791 -7e-05 0.0
N424 N 0.0815 0.43367 0.94095 0.0
N425 N 0.99436 0.36132 0.9667 0.0
H426 H 0.87361 0.77301 0.33269 0.0
H427 H 0.76479 0.80053 0.15122 0.0
H428 H 0.94261 0.67517 0.26902 0.0
H429 H 0.87611 0.74615 0.09594 0.0
H430 H 0.78058 0.7651 0.21767 0.0
H431 H 0.82555 0.77625 0.27271 0.0
C432 C 0.8779 0.75137 0.30651 0.0
C433 C 0.91279 0.72467 0.3052 0.0
C434 C 0.80141 0.76063 0.19098 0.0
C435 C 0.8578 0.72784 0.23631 0.0
C436 C 0.79203 0.78026 0.15275 0.0
C437 C 0.81997 0.77719 0.11844 0.0
C438 C 0.83922 0.73827 0.19483 0.0
C439 C 0.85447 0.75022 0.12207 0.0
C440 C 0.85013 0.75288 0.27226 0.0
C441 C 0.91657 0.69685 0.27087 0.0
N442 N 0.86358 0.73241 0.1599 0.0
N443 N 0.89011 0.69997 0.23724 0.0
H444 H 0.45643 0.6147 0.58554 0.0
H445 H 0.44524 0.59051 0.33756 0.0
H446 H 0.54961 0.66893 0.50118 0.0
H447 H 0.3553 0.5349 0.42427 0.0
H448 H 0.49394 0.60364 0.39664 0.0
H449 H 0.42849 0.57222 0.52753 0.0
C450 C 0.47189 0.61672 0.55507 0.0
C451 C 0.50495 0.64592 0.54803 0.0
C452 C 0.46405 0.5875 0.40263 0.0
C453 C 0.4734 0.59644 0.48128 0.0
C454 C 0.43643 0.57963 0.36881 0.0
C455 C 0.39598 0.56226 0.37626 0.0
C456 C 0.45085 0.57817 0.44403 0.0
C457 C 0.38599 0.54899 0.41737 0.0
C458 C 0.45598 0.5922 0.52186 0.0
C459 C 0.52371 0.6471 0.50783 0.0
N460 N 0.41287 0.55794 0.44982 0.0
N461 N 0.50728 0.62316 0.47574 0.0
H462 H 0.63105 0.24091 0.83429 0.0
H463 H 0.66424 0.26989 0.59619 0.0
H464 H 0.5614 0.3323 0.76241 0.0
H465 H 0.75915 0.21537 0.67638 0.0
H466 H 0.63483 0.30573 0.65768 0.0
H467 H 0.68657 0.24296 0.78077 0.0
C468 C 0.62785 0.26201 0.80759 0.0
C469 C 0.59103 0.2854 0.80196 0.0
C470 C 0.66285 0.28694 0.66175 0.0
C471 C 0.65394 0.28741 0.74027 0.0
C472 C 0.67965 0.26657 0.6266 0.0
C473 C 0.71342 0.23886 0.63151 0.0
C474 C 0.67945 0.27871 0.70208 0.0
C475 C 0.7327 0.23607 0.67136 0.0
C476 C 0.65966 0.26336 0.77709 0.0
C477 C 0.58887 0.31295 0.76736 0.0
N478 N 0.71468 0.25474 0.70542 0.0
N479 N 0.61937 0.31235 0.73717 0.0
H480 H 0.05145 0.61163 0.4474 0.0
H481 H 0.0078 0.57796 0.68512 0.0
H482 H 0.95189 0.67876 0.51026 0.0
H483 H 0.0711 0.4868 0.60688 0.0
H484 H 0.97607 0.60808 0.62164 0.0
H485 H 0.05196 0.56093 0.50477 0.0
C486 C 0.02886 0.61501 0.47285 0.0
C487 C 0.00151 0.64924 0.47404 0.0
C488 C 0.99576 0.58061 0.61854 0.0
C489 C 0.00201 0.59132 0.54031 0.0
C490 C 0.01376 0.56328 0.65475 0.0
C491 C 0.04333 0.53082 0.65111 0.0
C492 C 0.00796 0.56549 0.5787 0.0
C493 C 0.04917 0.51233 0.61125 0.0
C494 C 0.02905 0.58593 0.50562 0.0
C495 C 0.97356 0.65273 0.50826 0.0
N496 N 0.03271 0.5308 0.57645 0.0
N497 N 0.97501 0.62443 0.54054 0.0
H498 H 0.66341 0.78494 0.66451 0.0
H499 H 0.70317 0.77919 0.90939 0.0
H500 H 0.60485 0.69428 0.74864 0.0
H501 H 0.76138 0.86931 0.82449 0.0
H502 H 0.68483 0.73429 0.84901 0.0
H503 H 0.71496 0.80262 0.71939 0.0
C504 C 0.66215 0.76784 0.69411 0.0
C505 C 0.62917 0.73884 0.7024 0.0
C506 C 0.70259 0.76335 0.8436 0.0
C507 C 0.68817 0.75915 0.76551 0.0
C508 C 0.71347 0.78887 0.8782 0.0
C509 C 0.73291 0.82859 0.87185 0.0
C510 C 0.71077 0.77795 0.80245 0.0
C511 C 0.7454 0.83941 0.83066 0.0
C512 C 0.69169 0.77795 0.72549 0.0
C513 C 0.62933 0.71744 0.74121 0.0
N514 N 0.73325 0.81474 0.79744 0.0
N515 N 0.65779 0.72867 0.7717 0.0
H516 H 0.53163 0.30468 0.00818 0.0
H517 H 0.41374 0.5 0.11149 0.0
H518 H 0.4434 0.38487 0.9439 0.0
H519 H 0.45706 0.39387 0.18421 0.0
H520 H 0.4487 0.4714 0.04933 0.0
H521 H 0.52497 0.34885 0.07169 0.0
C522 C 0.51151 0.33203 0.00719 0.0
C523 C 0.48793 0.34127 0.97084 0.0
C524 C 0.45141 0.45492 0.07914 0.0
C525 C 0.48085 0.39191 0.04267 0.0
C526 C 0.43195 0.47149 0.11483 0.0
C527 C 0.43188 0.4488 0.15289 0.0
C528 C 0.4708 0.41544 0.08158 0.0
C529 C 0.45574 0.41184 0.15516 0.0
C530 C 0.50775 0.3571 0.04334 0.0
C531 C 0.46234 0.37692 0.97117 0.0
N532 N 0.47362 0.39578 0.11969 0.0
N533 N 0.45934 0.40087 0.00659 0.0
H534 H 0.86139 0.2131 0.17885 0.0
H535 H 0.79197 0.11421 0.35919 0.0
H536 H 0.94142 0.28381 0.26514 0.0
H537 H 0.84734 0.21898 0.4283 0.0
H538 H 0.8054 0.15163 0.2934 0.0
H539 H 0.81523 0.19365 0.23786 0.0
C540 C 0.86898 0.22489 0.21018 0.0
C541 C 0.90594 0.24909 0.21734 0.0
C542 C 0.81331 0.16742 0.32277 0.0
C543 C 0.85431 0.22564 0.28539 0.0
C544 C 0.80577 0.14578 0.36049 0.0
C545 C 0.81915 0.16321 0.39921 0.0
C546 C 0.83476 0.20676 0.32377 0.0
C547 C 0.83658 0.20428 0.39919 0.0
C548 C 0.84287 0.21333 0.24406 0.0
C549 C 0.91376 0.26429 0.25834 0.0
N550 N 0.84476 0.22421 0.362 0.0
N551 N 0.88859 0.25174 0.29086 0.0
H552 H 0.09256 0.01612 0.39601 0.0
H553 H 0.84768 0.00543 0.41671 0.0
H554 H 0.01102 0.94301 0.31309 0.0
H555 H 0.9302 0.06454 0.5089 0.0
H556 H 0.9072 0.96468 0.39069 0.0
H557 H 0.03586 0.01744 0.44839 0.0
C558 C 0.06288 0.99989 0.38909 0.0
C559 C 0.05585 0.98069 0.34967 0.0
C560 C 0.91215 0.98562 0.41743 0.0
C561 C 0.99079 0.98252 0.40907 0.0
C562 C 0.87808 0.00873 0.43235 0.0
C563 C 0.8844 0.03912 0.46415 0.0
C564 C 0.95285 0.99391 0.43379 0.0
C565 C 0.92415 0.04183 0.48387 0.0
C566 C 0.03058 0.00045 0.41907 0.0
C567 C 0.01731 0.95914 0.34272 0.0
N568 N 0.95724 0.02047 0.46751 0.0
N569 N 0.98584 0.96149 0.37173 0.0
H570 H 0.14371 0.80876 0.66459 0.0
H571 H 0.11271 0.62587 0.76919 0.0
H572 H 0.27265 0.77259 0.64148 0.0
H573 H 0.21207 0.58118 0.68832 0.0
H574 H 0.13954 0.69822 0.75992 0.0
H575 H 0.13285 0.74547 0.70629 0.0
C576 C 0.17012 0.78785 0.66909 0.0
C577 C 0.20909 0.79586 0.64933 0.0
C578 C 0.15581 0.67262 0.74452 0.0
C579 C 0.19713 0.72301 0.69803 0.0
C580 C 0.14096 0.6313 0.75047 0.0
C581 C 0.15986 0.5978 0.7289 0.0
C582 C 0.18895 0.68039 0.7158 0.0
C583 C 0.19651 0.6063 0.70524 0.0
C584 C 0.16403 0.75173 0.69343 0.0
C585 C 0.24208 0.76753 0.65618 0.0
N586 N 0.20931 0.64697 0.69844 0.0
N587 N 0.23512 0.73186 0.67936 0.0
H588 H 0.45691 0.98245 0.85964 0.0
H589 H 0.70337 0.98689 0.86343 0.0
H590 H 0.53123 0.05592 0.77121 0.0
H591 H 0.62713 0.94417 0.96851 0.0
H592 H 0.64221 0.02426 0.83561 0.0
H593 H 0.51849 0.97888 0.90617 0.0
C594 C 0.48613 0.99822 0.85029 0.0
C595 C 0.4894 0.01862 0.81119 0.0
C596 C 0.63917 0.0077 0.86538 0.0
C597 C 0.56013 0.01417 0.86375 0.0
C598 C 0.6741 0.98643 0.88125 0.0
C599 C 0.67004 0.96173 0.91782 0.0
C600 C 0.59985 0.00338 0.88585 0.0
C601 C 0.63164 0.96261 0.94005 0.0
C602 C 0.52124 0.9964 0.87692 0.0
C603 C 0.52765 0.03927 0.80088 0.0
N604 N 0.59773 0.98214 0.92315 0.0
N605 N 0.56187 0.03571 0.82657 0.0
H606 H 0.25559 0.1808 0.18915 0.0
H607 H 0.25538 0.43208 0.1836 0.0
H608 H 0.18578 0.25381 0.09888 0.0
H609 H 0.34097 0.35844 0.2583 0.0
H610 H 0.21425 0.36767 0.16764 0.0
H611 H 0.27114 0.24541 0.22934 0.0
C612 C 0.24254 0.21028 0.1785 0.0
C613 C 0.21973 0.21197 0.14053 0.0
C614 C 0.24134 0.36574 0.1885 0.0
C615 C 0.23844 0.28625 0.18545 0.0
C616 C 0.26447 0.40259 0.19806 0.0
C617 C 0.30172 0.40036 0.22201 0.0
C618 C 0.2556 0.32656 0.20315 0.0
C619 C 0.3125 0.36131 0.23951 0.0
C620 C 0.25173 0.24721 0.20119 0.0
C621 C 0.20384 0.25109 0.12782 0.0
N622 N 0.28994 0.3258 0.2292 0.0
N623 N 0.21423 0.28681 0.14976 0.0
H624 H 0.02059 0.04462 0.1647 0.0
H625 H 0.85122 0.9551 0.06072 0.0
H626 H 0.09407 0.94258 0.11452 0.0
H627 H 0.93461 0.85171 0.03522 0.0
H628 H 0.9121 0.9997 0.07781 0.0
H629 H 0.96241 0.02386 0.11865 0.0
C630 C 0.02486 0.01848 0.14302 0.0
C631 C 0.062 0.99491 0.14393 0.0
C632 C 0.9176 0.96749 0.06826 0.0
C633 C 0.99519 0.97059 0.09031 0.0
C634 C 0.88253 0.94206 0.05772 0.0
C635 C 0.88772 0.89925 0.0476 0.0
C636 C 0.95818 0.94978 0.06915 0.0
C637 C 0.92909 0.88424 0.04404 0.0
C638 C 0.99143 0.00651 0.11636 0.0
C639 C 0.06586 0.96149 0.11509 0.0
N640 N 0.96259 0.90921 0.05555 0.0
N641 N 0.03265 0.94993 0.09004 0.0
H642 H 0.15451 0.76329 0.48496 0.0
H643 H 0.29445 0.68359 0.29295 0.0
H644 H 0.23527 0.84415 0.40918 0.0
H645 H 0.23535 0.60165 0.38495 0.0
H646 H 0.25563 0.74324 0.3221 0.0
H647 H 0.16555 0.70569 0.43474 0.0
C648 C 0.17385 0.76919 0.45728 0.0
C649 C 0.19507 0.8081 0.45182 0.0
C650 C 0.25054 0.7121 0.33538 0.0
C651 C 0.20827 0.74234 0.39481 0.0
C652 C 0.2722 0.67803 0.31844 0.0
C653 C 0.26775 0.63786 0.33657 0.0
C654 C 0.2245 0.70587 0.37081 0.0
C655 C 0.23946 0.6323 0.37021 0.0
C656 C 0.18027 0.73625 0.42875 0.0
C657 C 0.2191 0.8143 0.41505 0.0
N658 N 0.21916 0.66609 0.38659 0.0
N659 N 0.22574 0.78145 0.38831 0.0
H660 H 0.44355 0.07412 0.593 0.0
H661 H 0.69009 0.05875 0.57524 0.0
H662 H 0.51245 0.96391 0.63054 0.0
H663 H 0.61768 0.1629 0.5281 0.0
H664 H 0.62513 0.01579 0.57884 0.0
H665 H 0.50446 0.09838 0.55238 0.0
C666 C 0.47106 0.05426 0.59154 0.0
C667 C 0.47296 0.01709 0.61542 0.0
C668 C 0.62354 0.0477 0.56673 0.0
C669 C 0.54396 0.04578 0.57056 0.0
C670 C 0.66073 0.07218 0.56439 0.0
C671 C 0.6591 0.11477 0.55224 0.0
C672 C 0.58452 0.06613 0.55722 0.0
C673 C 0.62015 0.1305 0.53864 0.0
C674 C 0.50614 0.06837 0.56862 0.0
C675 C 0.50978 0.99303 0.61291 0.0
N676 N 0.58432 0.10648 0.54229 0.0
N677 N 0.54423 0.00828 0.59172 0.0
H678 H 0.23878 0.15759 0.90201 0.0
H679 H 0.26004 0.39923 0.88171 0.0
H680 H 0.31458 0.23332 0.98793 0.0
H681 H 0.21848 0.31953 0.77871 0.0
H682 H 0.29528 0.3389 0.9134 0.0
H683 H 0.24444 0.21383 0.84969 0.0
C684 C 0.25745 0.18567 0.90948 0.0
C685 C 0.27512 0.19144 0.94978 0.0
C686 C 0.27959 0.33472 0.88319 0.0
C687 C 0.28161 0.25598 0.89011 0.0
C688 C 0.25963 0.36924 0.86509 0.0
C689 C 0.23569 0.36389 0.82809 0.0
C690 C 0.27433 0.29449 0.86473 0.0
C691 C 0.23632 0.32464 0.80752 0.0
C692 C 0.26093 0.21773 0.87945 0.0
C693 C 0.29959 0.22808 0.95754 0.0
N694 N 0.25417 0.29102 0.82676 0.0
N695 N 0.30126 0.25945 0.92834 0.0
H696 H 0.34857 0.05378 0.13352 0.0
H697 H 0.41593 0.83482 0.05445 0.0
H698 H 0.34329 0.02035 0.00126 0.0
H699 H 0.46626 0.88894 0.16989 0.0
H700 H 0.39938 0.90531 0.02999 0.0
H701 H 0.39906 0.99745 0.14507 0.0
C702 C 0.35856 0.03497 0.10678 0.0
C703 C 0.34107 0.04102 0.06657 0.0
C704 C 0.41504 0.90194 0.06023 0.0
C705 C 0.3986 0.97648 0.07954 0.0
C706 C 0.42489 0.86153 0.07418 0.0
C707 C 0.44134 0.85568 0.11497 0.0
C708 C 0.42075 0.93652 0.08765 0.0
C709 C 0.45207 0.89182 0.13889 0.0
C710 C 0.38751 0.00291 0.11335 0.0
C711 C 0.35552 0.01619 0.03292 0.0
N712 N 0.44037 0.93062 0.12545 0.0
N713 N 0.38287 0.9844 0.04031 0.0
H714 H 0.78003 0.4954 0.08065 0.0
H715 H 0.9736 0.57845 0.94014 0.0
H716 H 0.87003 0.41324 0.02133 0.0
H717 H 0.87627 0.65814 0.99003 0.0
H718 H 0.9444 0.51911 0.981 0.0
H719 H 0.82367 0.55634 0.06032 0.0
C720 C 0.80954 0.49009 0.06424 0.0
C721 C 0.82108 0.4492 0.0521 0.0
C722 C 0.92985 0.54973 0.98362 0.0
C723 C 0.871 0.519 0.02822 0.0
C724 C 0.94681 0.5837 0.96071 0.0
C725 C 0.92725 0.62314 0.96182 0.0
C726 C 0.89345 0.55549 0.00834 0.0
C727 C 0.89222 0.62816 0.98841 0.0
C728 C 0.83436 0.52498 0.05244 0.0
C729 C 0.8597 0.44426 0.03092 0.0
N730 N 0.87629 0.59467 0.01043 0.0
N731 N 0.88299 0.47881 0.01911 0.0
H732 H 0.80954 0.65157 0.09229 0.0
H733 H 0.62425 0.73885 0.0362 0.0
H734 H 0.76249 0.64532 0.22005 0.0
H735 H 0.58002 0.68923 0.15528 0.0
H736 H 0.69674 0.73756 0.06283 0.0
H737 H 0.75 0.69457 0.07276 0.0
C738 C 0.78697 0.66009 0.11648 0.0
C739 C 0.79028 0.64401 0.15754 0.0
C740 C 0.67137 0.72705 0.08335 0.0
C741 C 0.72155 0.69378 0.13563 0.0
C742 C 0.62989 0.72844 0.06829 0.0
C743 C 0.59636 0.71312 0.09323 0.0
C744 C 0.67924 0.70896 0.12312 0.0
C745 C 0.60506 0.70085 0.13484 0.0
C746 C 0.7529 0.68514 0.10542 0.0
C747 C 0.76063 0.6565 0.1878 0.0
N748 N 0.64578 0.69807 0.14813 0.0
N749 N 0.72694 0.67986 0.17599 0.0
H750 H 0.60765 0.57231 0.47687 0.0
H751 H 0.594 0.32129 0.46965 0.0
H752 H 0.68775 0.48951 0.54828 0.0
H753 H 0.53061 0.40279 0.38187 0.0
H754 H 0.61038 0.38273 0.51432 0.0
H755 H 0.56264 0.51139 0.45777 0.0
C756 C 0.61531 0.54146 0.48922 0.0
C757 C 0.65213 0.53575 0.51327 0.0
C758 C 0.59195 0.38705 0.48581 0.0
C759 C 0.60131 0.46598 0.49094 0.0
C760 C 0.58211 0.35188 0.46061 0.0
C761 C 0.56158 0.35717 0.4217 0.0
C762 C 0.58133 0.42765 0.4718 0.0
C763 C 0.54711 0.39757 0.41138 0.0
C764 C 0.58974 0.50668 0.47811 0.0
C765 C 0.66015 0.49522 0.52896 0.0
N766 N 0.55801 0.43144 0.43581 0.0
N767 N 0.63547 0.46176 0.51681 0.0
H768 H 0.18117 0.85225 0.22957 0.0
H769 H 0.41624 0.81426 0.26845 0.0
H770 H 0.25334 0.92249 0.32276 0.0
H771 H 0.33412 0.72837 0.19944 0.0
H772 H 0.3549 0.84045 0.30657 0.0
H773 H 0.23276 0.79636 0.23282 0.0
C774 C 0.2074 0.85539 0.25151 0.0
C775 C 0.21371 0.89247 0.27503 0.0
C776 C 0.35041 0.81477 0.28423 0.0
C777 C 0.2727 0.82807 0.27938 0.0
C778 C 0.38553 0.79961 0.26265 0.0
C779 C 0.37993 0.7706 0.22936 0.0
C780 C 0.30975 0.80098 0.27187 0.0
C781 C 0.33979 0.75174 0.22395 0.0
C782 C 0.2366 0.82311 0.2538 0.0
C783 C 0.24789 0.89467 0.30338 0.0
N784 N 0.30593 0.76833 0.2439 0.0
N785 N 0.27674 0.86328 0.30408 0.0
H786 H 0.12126 0.99434 0.49221 0.0
H787 H 0.09004 0.19685 0.55447 0.0
H788 H 0.10829 0.97132 0.62598 0.0
H789 H 0.03218 0.14603 0.66713 0.0
H790 H 0.08886 0.12657 0.5233 0.0
H791 H 0.08087 0.05922 0.50051 0.0
C792 C 0.10945 0.00271 0.5232 0.0
C793 C 0.11949 0.97849 0.55879 0.0
C794 C 0.07465 0.13071 0.55407 0.0
C795 C 0.07402 0.05255 0.56863 0.0
C796 C 0.07538 0.1711 0.57192 0.0
C797 C 0.0622 0.1769 0.61381 0.0
C798 C 0.06091 0.09606 0.57858 0.0
C799 C 0.04365 0.14252 0.6351 0.0
C800 C 0.0866 0.03985 0.52797 0.0
C801 C 0.1025 0.98994 0.59796 0.0
N802 N 0.04458 0.10333 0.61768 0.0
N803 N 0.08112 0.02646 0.60191 0.0
H804 H 0.83121 0.40085 0.22585 0.0
H805 H 0.58526 0.36376 0.26054 0.0
H806 H 0.73586 0.47126 0.16013 0.0
H807 H 0.67901 0.27835 0.30733 0.0
H808 H 0.63943 0.39833 0.21684 0.0
H809 H 0.7765 0.35031 0.2488 0.0
C810 C 0.79883 0.40532 0.2157 0.0
C811 C 0.78793 0.44078 0.19174 0.0
C812 C 0.64812 0.37153 0.23599 0.0
C813 C 0.72502 0.38347 0.21852 0.0
C814 C 0.61712 0.35161 0.26064 0.0
C815 C 0.62775 0.31816 0.2874 0.0
C816 C 0.69029 0.35835 0.23862 0.0
C817 C 0.66952 0.30385 0.28682 0.0
C818 C 0.76759 0.37645 0.22886 0.0
C819 C 0.74558 0.44472 0.17911 0.0
N820 N 0.69946 0.32449 0.2634 0.0
N821 N 0.71559 0.41686 0.19326 0.0
H822 H 0.68021 0.62461 0.76381 0.0
H823 H 0.92762 0.66791 0.78164 0.0
H824 H 0.77365 0.56742 0.68363 0.0
H825 H 0.83576 0.71578 0.86941 0.0
H826 H 0.87017 0.64871 0.733 0.0
H827 H 0.7345 0.67419 0.79006 0.0
C828 C 0.71196 0.62297 0.75113 0.0
C829 C 0.72266 0.59118 0.72222 0.0
C830 C 0.86259 0.66436 0.76245 0.0
C831 C 0.78505 0.64753 0.75247 0.0
C832 C 0.89548 0.67583 0.79002 0.0
C833 C 0.88637 0.69276 0.82994 0.0
C834 C 0.82035 0.6697 0.77503 0.0
C835 C 0.84406 0.70208 0.8392 0.0
C836 C 0.74298 0.6513 0.76616 0.0
C837 C 0.76415 0.59095 0.70647 0.0
N838 N 0.81255 0.68964 0.81238 0.0
N839 N 0.794 0.61809 0.72241 0.0
H840 H 0.55563 0.8891 0.58496 0.0
H841 H 0.51141 0.91305 0.34062 0.0
H842 H 0.45482 0.82496 0.51709 0.0
H843 H 0.61902 0.96855 0.40545 0.0
H844 H 0.47756 0.90006 0.40871 0.0
H845 H 0.56581 0.9365 0.52473 0.0
C846 C 0.53501 0.88558 0.55776 0.0
C847 C 0.50517 0.85228 0.55547 0.0
C848 C 0.50816 0.916 0.40808 0.0
C849 C 0.51701 0.90593 0.4863 0.0
C850 C 0.52738 0.92379 0.36909 0.0
C851 C 0.56857 0.94102 0.36739 0.0
C852 C 0.53045 0.92512 0.44558 0.0
C853 C 0.58768 0.95417 0.40543 0.0
C854 C 0.54088 0.91261 0.52332 0.0
C855 C 0.47884 0.84965 0.51979 0.0
N856 N 0.56889 0.94512 0.44301 0.0
N857 N 0.48596 0.87551 0.48625 0.0
H858 H 0.42306 0.21736 0.73261 0.0
H859 H 0.24557 0.36655 0.63966 0.0
H860 H 0.35009 0.30465 0.80657 0.0
H861 H 0.33452 0.29878 0.56284 0.0
H862 H 0.26964 0.32787 0.70154 0.0
H863 H 0.37815 0.23187 0.67146 0.0
C864 C 0.39719 0.2391 0.73613 0.0
C865 C 0.39063 0.2604 0.77443 0.0
C866 C 0.28314 0.3206 0.67097 0.0
C867 C 0.3394 0.27717 0.7048 0.0
C868 C 0.26904 0.34232 0.63552 0.0
C869 C 0.2886 0.33621 0.59625 0.0
C870 C 0.31686 0.29253 0.66698 0.0
C871 C 0.31913 0.30474 0.59277 0.0
C872 C 0.37166 0.24742 0.70123 0.0
C873 C 0.35647 0.28791 0.77745 0.0
N874 N 0.33288 0.28453 0.62788 0.0
N875 N 0.33245 0.29593 0.7429 0.0
H876 H 0.97246 0.10337 0.09444 0.0
H877 H 0.97033 0.06781 0.84711 0.0
H878 H 0.05167 0.17235 0.00665 0.0
H879 H 0.88696 0.00275 0.93406 0.0
H880 H 0.01442 0.09071 0.90653 0.0
H881 H 0.95491 0.05259 0.03848 0.0
C882 C 0.98698 0.10724 0.06368 0.0
C883 C 0.01284 0.14261 0.05492 0.0
C884 C 0.98702 0.07062 0.9126 0.0
C885 C 0.99235 0.08497 0.99063 0.0
C886 C 0.96206 0.05706 0.87854 0.0
C887 C 0.92434 0.0341 0.88571 0.0
C888 C 0.97394 0.06149 0.95406 0.0
C889 C 0.91525 0.02128 0.92724 0.0
C890 C 0.97686 0.07829 0.0317 0.0
C891 C 0.03105 0.14587 0.01461 0.0
N892 N 0.93931 0.03592 0.95995 0.0
N893 N 0.01976 0.11795 0.98369 0.0
H894 H 0.09033 0.79388 0.25735 0.0
H895 H 0.27595 0.64889 0.17212 0.0
H896 H 0.14672 0.69198 0.32671 0.0
H897 H 0.19502 0.72083 0.09049 0.0
H898 H 0.24368 0.68247 0.2333 0.0
H899 H 0.14135 0.7827 0.20018 0.0
C900 C 0.11391 0.76969 0.26086 0.0
C901 C 0.11438 0.74372 0.29671 0.0
C902 C 0.23381 0.6918 0.20201 0.0
C903 C 0.17275 0.73118 0.23201 0.0
C904 C 0.25259 0.67305 0.16703 0.0
C905 C 0.23755 0.6817 0.12633 0.0
C906 C 0.2 0.71939 0.19612 0.0
C907 C 0.20697 0.71298 0.12154 0.0
C908 C 0.14289 0.76332 0.22829 0.0
C909 C 0.14549 0.71286 0.29973 0.0
N910 N 0.18857 0.73022 0.15614 0.0
N911 N 0.17329 0.70729 0.26769 0.0
H912 H 0.50318 0.10919 0.90862 0.0
H913 H 0.4616 0.08944 0.14718 0.0
H914 H 0.40149 0.1744 0.9704 0.0
H915 H 0.52732 0.99312 0.07799 0.0
H916 H 0.42975 0.11317 0.08122 0.0
H917 H 0.50309 0.05773 0.96608 0.0
C918 C 0.48016 0.11209 0.93378 0.0
C919 C 0.45332 0.14686 0.93561 0.0
C920 C 0.45031 0.08616 0.08048 0.0
C921 C 0.45351 0.08876 0.00163 0.0
C922 C 0.46848 0.0727 0.11814 0.0
C923 C 0.49759 0.03982 0.11779 0.0
C924 C 0.46218 0.06725 0.04213 0.0
C925 C 0.50514 0.01877 0.0795 0.0
C926 C 0.48005 0.08265 0.96657 0.0
C927 C 0.42354 0.14867 0.9684 0.0
N928 N 0.48839 0.03354 0.04295 0.0
N929 N 0.4252 0.12067 0.00075 0.0
H930 H 0.10997 0.21349 0.23954 0.0
H931 H 0.17183 0.33438 0.41026 0.0
H932 H 0.12472 0.33199 0.17358 0.0
H933 H 0.22154 0.42416 0.32009 0.0
H934 H 0.15993 0.28376 0.35318 0.0
H935 H 0.15618 0.24114 0.29591 0.0
C936 C 0.12335 0.24511 0.23671 0.0
C937 C 0.11281 0.27081 0.20228 0.0
C938 C 0.17504 0.31375 0.34579 0.0
C939 C 0.16403 0.30331 0.26725 0.0
C940 C 0.18195 0.34274 0.37862 0.0
C941 C 0.19691 0.38376 0.36971 0.0
C942 C 0.18302 0.32614 0.30381 0.0
C943 C 0.20914 0.39309 0.32812 0.0
C944 C 0.14935 0.26109 0.26913 0.0
C945 C 0.13142 0.31125 0.19982 0.0
N946 N 0.20098 0.3649 0.29661 0.0
N947 N 0.15537 0.32644 0.2322 0.0
H948 H 0.09095 0.817 0.49781 0.0
H949 H 0.9537 0.9943 0.60572 0.0
H950 H 0.99466 0.88854 0.43468 0.0
H951 H 0.01484 0.89303 0.67168 0.0
H952 H 0.99274 0.9759 0.54167 0.0
H953 H 0.08712 0.86522 0.55812 0.0
C954 C 0.06978 0.8435 0.49617 0.0
C955 C 0.042 0.84804 0.46189 0.0
C956 C 0.99845 0.95849 0.57049 0.0
C957 C 0.03744 0.90297 0.53062 0.0
C958 C 0.97653 0.9692 0.60714 0.0
C959 C 0.98055 0.94451 0.64369 0.0
C960 C 0.02453 0.92304 0.57067 0.0
C961 C 0.01041 0.91228 0.64383 0.0
C962 C 0.0676 0.87094 0.53061 0.0
C963 C 0.01584 0.88336 0.46101 0.0
N964 N 0.03075 0.90195 0.60758 0.0
N965 N 0.01354 0.90906 0.49535 0.0
H966 H 0.46266 0.78463 0.7718 0.0
H967 H 0.30164 0.61084 0.85427 0.0
H968 H 0.37906 0.71086 0.69154 0.0
H969 H 0.38267 0.68587 0.93568 0.0
H970 H 0.31549 0.66052 0.79669 0.0
H971 H 0.42076 0.7628 0.83314 0.0
C972 C 0.43489 0.76464 0.76696 0.0
C973 C 0.42492 0.74867 0.72669 0.0
C974 C 0.32949 0.66683 0.82738 0.0
C975 C 0.37719 0.72308 0.79672 0.0
C976 C 0.32138 0.63856 0.86026 0.0
C977 C 0.34149 0.64411 0.89947 0.0
C978 C 0.35867 0.70033 0.83353 0.0
C979 C 0.36667 0.6805 0.90581 0.0
C980 C 0.411 0.7521 0.80202 0.0
C981 C 0.38836 0.72326 0.72217 0.0
N982 N 0.37537 0.70674 0.87284 0.0
N983 N 0.36632 0.71058 0.75686 0.0
H984 H 0.51635 0.41622 0.75978 0.0
H985 H 0.44054 0.50755 0.97992 0.0
H986 H 0.59789 0.47402 0.85385 0.0
H987 H 0.35957 0.48866 0.87154 0.0
H988 H 0.49563 0.46764 0.94434 0.0
H989 H 0.4583 0.41567 0.81092 0.0
C990 C 0.52231 0.4279 0.79149 0.0
C991 C 0.56152 0.44648 0.80228 0.0
C992 C 0.46556 0.47168 0.92875 0.0
C993 C 0.49549 0.44587 0.8606 0.0
C994 C 0.43389 0.49389 0.94921 0.0
C995 C 0.39596 0.50238 0.92813 0.0
C996 C 0.4591 0.45759 0.88717 0.0
C997 C 0.38887 0.48363 0.88843 0.0
C998 C 0.48918 0.42757 0.82059 0.0
C999 C 0.5678 0.46039 0.84396 0.0
N1000 N 0.42054 0.46277 0.86879 0.0
N1001 N 0.53484 0.46052 0.87143 0.0
H1002 H 0.64734 0.31158 0.16485 0.0
H1003 H 0.66735 0.06786 0.19705 0.0
H1004 H 0.76358 0.24506 0.14451 0.0
H1005 H 0.55677 0.13892 0.22943 0.0
H1006 H 0.70907 0.13368 0.1957 0.0
H1007 H 0.62038 0.25228 0.206 0.0
C1008 C 0.66772 0.28491 0.17003 0.0
C1009 C 0.7076 0.28311 0.15083 0.0
C1010 C 0.67593 0.13483 0.20422 0.0
C1011 C 0.67612 0.21397 0.19655 0.0
C1012 C 0.65216 0.09717 0.20529 0.0
C1013 C 0.60837 0.09815 0.2124 0.0
C1014 C 0.65557 0.17359 0.2099 0.0
C1015 C 0.59029 0.13698 0.22281 0.0
C1016 C 0.65216 0.2508 0.19337 0.0
C1017 C 0.73244 0.24757 0.15843 0.0
N1018 N 0.61376 0.17323 0.22038 0.0
N1019 N 0.71591 0.21394 0.1799 0.0
H1020 H 0.90625 0.53835 0.33173 0.0
H1021 H 0.07632 0.49375 0.45672 0.0
H1022 H 0.99326 0.60794 0.25201 0.0
H1023 H 0.15035 0.5364 0.35022 0.0
H1024 H 0.01502 0.52902 0.42761 0.0
H1025 H 0.96186 0.53058 0.38372 0.0
C1026 C 0.93685 0.5531 0.32578 0.0
C1027 C 0.94547 0.57288 0.28709 0.0
C1028 C 0.04447 0.53085 0.41047 0.0
C1029 C 0.00998 0.56424 0.3467 0.0
C1030 C 0.07981 0.51138 0.42758 0.0
C1031 C 0.11822 0.51175 0.40548 0.0
C1032 C 0.0476 0.55087 0.37097 0.0
C1033 C 0.12104 0.53494 0.36788 0.0
C1034 C 0.96891 0.54878 0.35572 0.0
C1035 C 0.98552 0.59172 0.28115 0.0
N1036 N 0.08605 0.55318 0.35158 0.0
N1037 N 0.01654 0.58614 0.31023 0.0
H1038 H 0.80875 0.66287 0.64452 0.0
H1039 H 0.80191 0.90991 0.68873 0.0
H1040 H 0.71471 0.74573 0.59331 0.0
H1041 H 0.90375 0.8297 0.72752 0.0
H1042 H 0.75965 0.84713 0.6705 0.0
H1043 H 0.83306 0.71985 0.69136 0.0
C1044 C 0.79248 0.69271 0.6439 0.0
C1045 C 0.7601 0.69979 0.6145 0.0
C1046 C 0.79081 0.84314 0.68403 0.0
C1047 C 0.78828 0.76535 0.66751 0.0
C1048 C 0.81485 0.87903 0.69478 0.0
C1049 C 0.85661 0.87498 0.70911 0.0
C1050 C 0.80863 0.80293 0.68777 0.0
C1051 C 0.87189 0.83416 0.71593 0.0
C1052 C 0.80652 0.72531 0.67054 0.0
C1053 C 0.74017 0.73906 0.6151 0.0
N1054 N 0.84815 0.79972 0.70461 0.0
N1055 N 0.75513 0.77062 0.64055 0.0
H1056 H 0.57488 0.4369 0.58007 0.0
H1057 H 0.38757 0.41151 0.47665 0.0
H1058 H 0.52724 0.55296 0.6318 0.0
H1059 H 0.34105 0.49805 0.57024 0.0
H1060 H 0.45967 0.43768 0.49019 0.0
H1061 H 0.51181 0.42959 0.53695 0.0
C1062 C 0.55169 0.46169 0.58126 0.0
C1063 C 0.55646 0.49569 0.60943 0.0
C1064 C 0.43382 0.4512 0.50772 0.0
C1065 C 0.4835 0.4877 0.55965 0.0
C1066 C 0.39261 0.43696 0.49918 0.0
C1067 C 0.35865 0.45267 0.5225 0.0
C1068 C 0.44096 0.48007 0.54101 0.0
C1069 C 0.36657 0.48533 0.55155 0.0
C1070 C 0.51551 0.45763 0.55628 0.0
C1071 C 0.52486 0.52625 0.61042 0.0
N1072 N 0.40704 0.4972 0.5608 0.0
N1073 N 0.48935 0.52108 0.58648 0.0
H1074 H 0.75639 0.29433 0.90584 0.0
H1075 H 0.76374 0.04875 0.89631 0.0
H1076 H 0.6885 0.21531 0.99458 0.0
H1077 H 0.79905 0.12905 0.79169 0.0
H1078 H 0.72397 0.1071 0.92673 0.0
H1079 H 0.76191 0.23393 0.8581 0.0
C1080 C 0.74234 0.26427 0.91505 0.0
C1081 C 0.7228 0.25944 0.95447 0.0
C1082 C 0.73938 0.11159 0.89648 0.0
C1083 C 0.72941 0.19003 0.90043 0.0
C1084 C 0.76196 0.07824 0.87909 0.0
C1085 C 0.78549 0.08441 0.84197 0.0
C1086 C 0.74114 0.15143 0.87691 0.0
C1087 C 0.78169 0.12297 0.82057 0.0
C1088 C 0.7452 0.22983 0.88771 0.0
C1089 C 0.70436 0.2201 0.96462 0.0
N1090 N 0.76095 0.15538 0.83892 0.0
N1091 N 0.70892 0.1866 0.93816 0.0
H1092 H 0.99196 0.46874 0.12245 0.0
H1093 H 0.15082 0.62021 0.99775 0.0
H1094 H 0.96049 0.58783 0.06534 0.0
H1095 H 0.19095 0.51638 0.07497 0.0
H1096 H 0.07797 0.59329 0.00159 0.0
H1097 H 0.06149 0.47287 0.0882 0.0
C1098 C 0.99916 0.49509 0.10173 0.0
C1099 C 0.97043 0.52803 0.09674 0.0
C1100 C 0.1028 0.57562 0.01674 0.0
C1101 C 0.04931 0.53246 0.05686 0.0
C1102 C 0.14439 0.59074 0.01408 0.0
C1103 C 0.1766 0.57059 0.03637 0.0
C1104 C 0.09337 0.54068 0.04262 0.0
C1105 C 0.16681 0.53272 0.05739 0.0
C1106 C 0.03878 0.49737 0.08214 0.0
C1107 C 0.98151 0.56158 0.06986 0.0
N1108 N 0.12578 0.51949 0.06094 0.0
N1109 N 0.02008 0.56301 0.05113 0.0
H1110 H 0.80577 0.75219 0.44063 0.0
H1111 H 0.66894 0.83446 0.24982 0.0
H1112 H 0.71779 0.67711 0.36637 0.0
H1113 H 0.72455 0.91416 0.34663 0.0
H1114 H 0.71309 0.77657 0.27319 0.0
H1115 H 0.80063 0.80911 0.38868 0.0
C1116 C 0.78595 0.74741 0.41301 0.0
C1117 C 0.76102 0.71056 0.40838 0.0
C1118 C 0.71654 0.8071 0.28851 0.0
C1119 C 0.75536 0.77513 0.34899 0.0
C1120 C 0.69161 0.84036 0.27495 0.0
C1121 C 0.69218 0.8788 0.29725 0.0
C1122 C 0.74177 0.81235 0.32474 0.0
C1123 C 0.72228 0.88455 0.32947 0.0
C1124 C 0.78319 0.7798 0.38336 0.0
C1125 C 0.7366 0.70556 0.37167 0.0
N1126 N 0.74517 0.85128 0.34302 0.0
N1127 N 0.73383 0.73782 0.34367 0.0
H1128 H 0.82044 0.51064 0.42941 0.0
H1129 H 0.03225 0.44312 0.53678 0.0
H1130 H 0.90017 0.5886 0.50948 0.0
H1131 H 0.94272 0.35664 0.47827 0.0
H1132 H 0.99994 0.501 0.49915 0.0
H1133 H 0.87847 0.4609 0.4216 0.0
C1134 C 0.85047 0.51771 0.44464 0.0
C1135 C 0.85527 0.55294 0.47131 0.0
C1136 C 0.98825 0.46926 0.49337 0.0
C1137 C 0.92148 0.49656 0.46241 0.0
C1138 C 0.00698 0.43596 0.51458 0.0
C1139 C 0.98893 0.39525 0.51198 0.0
C1140 C 0.95124 0.46178 0.46976 0.0
C1141 C 0.9565 0.38796 0.48232 0.0
C1142 C 0.88357 0.48942 0.44005 0.0
C1143 C 0.89494 0.56115 0.48959 0.0
N1144 N 0.93769 0.42118 0.4633 0.0
N1145 N 0.92632 0.53276 0.48542 0.0
H1146 H 0.30297 0.00808 0.60145 0.0
H1147 H 0.40394 0.17083 0.49547 0.0
H1148 H 0.35147 0.93092 0.50053 0.0
H1149 H 0.48265 0.07657 0.4388 0.0
H1150 H 0.3688 0.116 0.53716 0.0
H1151 H 0.35436 0.06356 0.58302 0.0
C1152 C 0.32466 0.00272 0.57557 0.0
C1153 C 0.3222 0.96525 0.5518 0.0
C1154 C 0.39473 0.10713 0.51692 0.0
C1155 C 0.38012 0.02933 0.52933 0.0
C1156 C 0.41487 0.13863 0.49313 0.0
C1157 C 0.4464 0.12819 0.46401 0.0
C1158 C 0.40586 0.06463 0.51115 0.0
C1159 C 0.45881 0.08592 0.46135 0.0
C1160 C 0.35369 0.03468 0.56465 0.0
C1161 C 0.35175 0.95961 0.51925 0.0
N1162 N 0.43791 0.05553 0.48396 0.0
N1163 N 0.37907 0.99153 0.50861 0.0
H1164 H 0.28346 0.07432 0.80261 0.0
H1165 H 0.19715 0.28112 0.69703 0.0
H1166 H 0.35076 0.15432 0.71429 0.0
H1167 H 0.11841 0.18965 0.76222 0.0
H1168 H 0.25915 0.24956 0.7284 0.0
H1169 H 0.23024 0.12924 0.81075 0.0
C1170 C 0.2875 0.10382 0.78565 0.0
C1171 C 0.32079 0.10952 0.75682 0.0
C1172 C 0.22833 0.23712 0.73674 0.0
C1173 C 0.26049 0.17209 0.76608 0.0
C1174 C 0.1927 0.25545 0.71925 0.0
C1175 C 0.15259 0.23716 0.72604 0.0
C1176 C 0.22393 0.20011 0.76067 0.0
C1177 C 0.14899 0.20391 0.75524 0.0
C1178 C 0.25718 0.13508 0.79034 0.0
C1179 C 0.32498 0.14838 0.73609 0.0
N1180 N 0.18438 0.18558 0.77062 0.0
N1181 N 0.29481 0.17796 0.74065 0.0
H1182 H 0.09391 0.07104 0.00169 0.0
H1183 H 0.02114 0.90429 0.88064 0.0
H1184 H 0.17109 0.97723 0.06126 0.0
H1185 H 0.07447 0.82242 0.97453 0.0
H1186 H 0.03631 0.96485 0.92588 0.0
H1187 H 0.04834 0.01462 0.97339 0.0
C1188 C 0.10093 0.03854 0.00916 0.0
C1189 C 0.13677 0.02882 0.0332 0.0
C1190 C 0.04347 0.93377 0.93772 0.0
C1191 C 0.08567 0.96372 -0.00056 0.0
C1192 C 0.03465 0.89902 0.91165 0.0
C1193 C 0.04686 0.85838 0.92373 0.0
C1194 C 0.06528 0.92788 0.97605 0.0
C1195 C 0.06448 0.85324 0.96406 0.0
C1196 C 0.07511 0.00618 0.99258 0.0
C1197 C 0.14413 0.9862 0.04236 0.0
N1198 N 0.07409 0.88769 0.98831 0.0
N1199 N 0.11926 0.95527 0.02491 0.0
H1200 H 0.75657 0.39425 0.76044 0.0
H1201 H 0.89145 0.28827 0.57924 0.0
H1202 H 0.71353 0.36927 0.63317 0.0
H1203 H 0.94411 0.34865 0.69037 0.0
H1204 H 0.82122 0.29067 0.61148 0.0
H1205 H 0.81897 0.35137 0.74675 0.0
C1206 C 0.75976 0.37895 0.72997 0.0
C1207 C 0.73063 0.38625 0.69744 0.0
C1208 C 0.84835 0.30232 0.62925 0.0
C1209 C 0.80139 0.33727 0.68177 0.0
C1210 C 0.88836 0.30103 0.61089 0.0
C1211 C 0.92336 0.31948 0.63166 0.0
C1212 C 0.8434 0.32248 0.66846 0.0
C1213 C 0.91788 0.33458 0.673 0.0
C1214 C 0.79528 0.35449 0.72223 0.0
C1215 C 0.73587 0.36529 0.65877 0.0
N1216 N 0.8784 0.33668 0.68969 0.0
N1217 N 0.77097 0.34225 0.65178 0.0
H1218 H 0.58342 0.40982 0.04304 0.0
H1219 H 0.56759 0.63859 0.95502 0.0
H1220 H 0.66738 0.45923 0.9471 0.0
H1221 H 0.47606 0.57936 0.03808 0.0
H1222 H 0.59308 0.56858 0.93574 0.0
H1223 H 0.53398 0.46574 0.02737 0.0
C1224 C 0.59096 0.43196 0.01799 0.0
C1225 C 0.6298 0.4305 0.99693 0.0
C1226 C 0.56659 0.57091 0.95722 0.0
C1227 C 0.57373 0.49516 0.97931 0.0
C1228 C 0.55189 0.61087 0.9681 0.0
C1229 C 0.52072 0.615 -0.0006 0.0
C1230 C 0.55016 0.53518 0.9782 0.0
C1231 C 0.50072 0.57805 0.01443 0.0
C1232 C 0.56269 0.46389 0.00897 0.0
C1233 C 0.63796 0.45976 0.96454 0.0
N1234 N 0.5167 0.53981 0.0047 0.0
N1235 N 0.61054 0.49159 0.95734 0.0
H1236 H 0.25877 0.94868 0.6756 0.0
H1237 H 0.16509 0.76277 0.82044 0.0
H1238 H 0.33557 0.86821 0.75315 0.0
H1239 H 0.09056 0.86268 0.76785 0.0
H1240 H 0.22675 0.78964 0.78128 0.0
H1241 H 0.19654 0.90545 0.69378 0.0
C1242 C 0.26271 0.92144 0.6958 0.0
C1243 C 0.30225 0.91256 0.71365 0.0
C1244 C 0.19675 0.8053 0.77781 0.0
C1245 C 0.23113 0.86329 0.7349 0.0
C1246 C 0.16145 0.78967 0.79971 0.0
C1247 C 0.12279 0.81072 0.79747 0.0
C1248 C 0.19318 0.84196 0.75319 0.0
C1249 C 0.1199 0.84571 0.77054 0.0
C1250 C 0.22711 0.89694 0.70638 0.0
C1251 C 0.30556 0.87656 0.73921 0.0
N1252 N 0.15471 0.86046 0.74972 0.0
N1253 N 0.27033 0.85356 0.74955 0.0
H1254 H 0.18478 0.14387 0.2805 0.0
H1255 H 0.35959 0.2314 0.37618 0.0
H1256 H 0.27426 0.06653 0.21429 0.0
H1257 H 0.43385 0.16396 0.28503 0.0
H1258 H 0.29621 0.21501 0.33561 0.0
H1259 H 0.24183 0.1932 0.2988 0.0
C1260 C 0.2165 0.13749 0.26953 0.0
C1261 C 0.22499 0.10041 0.2469 0.0
C1262 C 0.32615 0.20475 0.32323 0.0
C1263 C 0.29131 0.156 0.26915 0.0
C1264 C 0.36259 0.2145 0.34652 0.0
C1265 C 0.40181 0.19857 0.33416 0.0
C1266 C 0.32896 0.17822 0.28757 0.0
C1267 C 0.40413 0.17676 0.29567 0.0
C1268 C 0.24942 0.1655 0.28051 0.0
C1269 C 0.26641 0.09428 0.23257 0.0
N1270 N 0.36805 0.1663 0.27431 0.0
N1271 N 0.29808 0.12134 0.24457 0.0
loop_
_geom_bond_atom_site_label_1
_geom_bond_atom_site_label_2
_geom_bond_distance
_geom_bond_site_symmetry_2
_ccdc_geom_bond_type
In0 O1 2.294 . S
In0 O2 2.326 . S
In0 O6 2.266 . S
In0 O7 2.326 1_455 S
In0 O8 2.266 1_455 S
In0 O9 2.326 . S
In0 O11 2.294 1_455 S
In0 O12 2.326 1_455 S
O1 In0 2.294 . S
O1 C10 1.240 . S
O2 In0 2.326 . S
O2 C10 1.252 . S
C3 O6 1.252 1_655 S
C3 O7 1.260 . S
C4 O11 1.240 . S
C4 O12 1.252 . S
C5 O8 1.252 1_455 S
C5 O9 1.260 . S
O6 In0 2.266 . S
O6 C3 1.252 1_455 S
O7 In0 2.326 1_655 S
O7 C3 1.260 . S
O8 In0 2.266 1_655 S
O8 C5 1.252 1_655 S
O9 In0 2.326 . S
O9 C5 1.260 . S
C10 O1 1.240 . S
C10 O2 1.252 . S
O11 In0 2.294 1_655 S
O11 C4 1.240 . S
O12 In0 2.326 1_655 S
O12 C4 1.252 . S
In13 O14 2.294 1_455 S
In13 O15 2.326 . S
In13 O19 2.266 1_455 S
In13 O20 2.326 1_455 S
In13 O21 2.266 . S
In13 O22 2.326 . S
In13 O24 2.294 . S
In13 O25 2.326 1_455 S
O14 In13 2.294 1_655 S
O14 C23 1.240 1_655 S
O15 In13 2.326 . S
O15 C23 1.252 . S
C16 O19 1.252 . S
C16 O20 1.260 . S
C17 O24 1.240 1_655 S
C17 O25 1.252 . S
C18 O21 1.252 . S
C18 O22 1.260 . S
O19 In13 2.266 1_655 S
O19 C16 1.252 . S
O20 In13 2.326 1_655 S
O20 C16 1.260 . S
O21 In13 2.266 . S
O21 C18 1.252 . S
O22 In13 2.326 . S
O22 C18 1.260 . S
C23 O14 1.240 1_455 S
C23 O15 1.252 . S
O24 In13 2.294 . S
O24 C17 1.240 1_455 S
O25 In13 2.326 1_655 S
O25 C17 1.252 . S
In26 O27 2.294 . S
In26 O28 2.326 . S
In26 O32 2.266 . S
In26 O33 2.326 . S
In26 O34 2.266 . S
In26 O35 2.326 . S
In26 O37 2.294 . S
In26 O38 2.326 . S
O27 In26 2.294 . S
O27 C36 1.240 . S
O28 In26 2.326 . S
O28 C36 1.252 . S
C29 O32 1.252 . S
C29 O33 1.260 . S
C30 O37 1.240 . S
C30 O38 1.252 . S
C31 O34 1.252 . S
C31 O35 1.260 . S
O32 In26 2.266 . S
O32 C29 1.252 . S
O33 In26 2.326 . S
O33 C29 1.260 . S
O34 In26 2.266 . S
O34 C31 1.252 . S
O35 In26 2.326 . S
O35 C31 1.260 . S
C36 O27 1.240 . S
C36 O28 1.252 . S
O37 In26 2.294 . S
O37 C30 1.240 . S
O38 In26 2.326 . S
O38 C30 1.252 . S
In39 O40 2.294 . S
In39 O41 2.326 . S
In39 O45 2.266 . S
In39 O46 2.326 . S
In39 O47 2.266 . S
In39 O48 2.326 . S
In39 O50 2.294 . S
In39 O51 2.326 . S
O40 In39 2.294 . S
O40 C49 1.240 . S
O41 In39 2.326 . S
O41 C49 1.252 . S
C42 O45 1.252 . S
C42 O46 1.260 . S
C43 O50 1.240 . S
C43 O51 1.252 . S
C44 O47 1.252 . S
C44 O48 1.260 . S
O45 In39 2.266 . S
O45 C42 1.252 . S
O46 In39 2.326 . S
O46 C42 1.260 . S
O47 In39 2.266 . S
O47 C44 1.252 . S
O48 In39 2.326 . S
O48 C44 1.260 . S
C49 O40 1.240 . S
C49 O41 1.252 . S
O50 In39 2.294 . S
O50 C43 1.240 . S
O51 In39 2.326 . S
O51 C43 1.252 . S
In52 O53 2.294 1_545 S
In52 O54 2.326 1_545 S
In52 O58 2.266 1_545 S
In52 O59 2.326 . S
In52 O60 2.266 . S
In52 O61 2.326 1_545 S
In52 O63 2.294 . S
In52 O64 2.326 . S
O53 In52 2.294 1_565 S
O53 C62 1.240 . S
O54 In52 2.326 1_565 S
O54 C62 1.252 . S
C55 O58 1.252 1_545 S
C55 O59 1.260 . S
C56 O63 1.240 . S
C56 O64 1.252 . S
C57 O60 1.252 1_565 S
C57 O61 1.260 . S
O58 In52 2.266 1_565 S
O58 C55 1.252 1_565 S
O59 In52 2.326 . S
O59 C55 1.260 . S
O60 In52 2.266 . S
O60 C57 1.252 1_545 S
O61 In52 2.326 1_565 S
O61 C57 1.260 . S
C62 O53 1.240 . S
C62 O54 1.252 . S
O63 In52 2.294 . S
O63 C56 1.240 . S
O64 In52 2.326 . S
O64 C56 1.252 . S
In65 O66 2.294 . S
In65 O67 2.326 . S
In65 O71 2.266 . S
In65 O72 2.326 . S
In65 O73 2.266 . S
In65 O74 2.326 . S
In65 O76 2.294 . S
In65 O77 2.326 . S
O66 In65 2.294 . S
O66 C75 1.240 . S
O67 In65 2.326 . S
O67 C75 1.252 . S
C68 O71 1.252 . S
C68 O72 1.260 . S
C69 O76 1.240 . S
C69 O77 1.252 . S
C70 O73 1.252 . S
C70 O74 1.260 . S
O71 In65 2.266 . S
O71 C68 1.252 . S
O72 In65 2.326 . S
O72 C68 1.260 . S
O73 In65 2.266 . S
O73 C70 1.252 . S
O74 In65 2.326 . S
O74 C70 1.260 . S
C75 O66 1.240 . S
C75 O67 1.252 . S
O76 In65 2.294 . S
O76 C69 1.240 . S
O77 In65 2.326 . S
O77 C69 1.252 . S
In78 O79 2.294 1_545 S
In78 O80 2.326 1_545 S
In78 O84 2.266 1_545 S
In78 O85 2.326 . S
In78 O86 2.266 . S
In78 O87 2.326 1_545 S
In78 O89 2.294 . S
In78 O90 2.326 . S
O79 In78 2.294 1_565 S
O79 C88 1.240 . S
O80 In78 2.326 1_565 S
O80 C88 1.252 . S
C81 O84 1.252 1_545 S
C81 O85 1.260 . S
C82 O89 1.240 . S
C82 O90 1.252 . S
C83 O86 1.252 1_565 S
C83 O87 1.260 . S
O84 In78 2.266 1_565 S
O84 C81 1.252 1_565 S
O85 In78 2.326 . S
O85 C81 1.260 . S
O86 In78 2.266 . S
O86 C83 1.252 1_545 S
O87 In78 2.326 1_565 S
O87 C83 1.260 . S
C88 O79 1.240 . S
C88 O80 1.252 . S
O89 In78 2.294 . S
O89 C82 1.240 . S
O90 In78 2.326 . S
O90 C82 1.252 . S
In91 O92 2.294 . S
In91 O93 2.326 . S
In91 O97 2.266 . S
In91 O98 2.326 1_554 S
In91 O99 2.266 1_554 S
In91 O100 2.326 . S
In91 O102 2.294 1_554 S
In91 O103 2.326 1_554 S
O92 In91 2.294 . S
O92 C101 1.240 . S
O93 In91 2.326 . S
O93 C101 1.252 . S
C94 O97 1.252 1_556 S
C94 O98 1.260 . S
C95 O102 1.240 . S
C95 O103 1.252 . S
C96 O99 1.252 1_554 S
C96 O100 1.260 . S
O97 In91 2.266 . S
O97 C94 1.252 1_554 S
O98 In91 2.326 1_556 S
O98 C94 1.260 . S
O99 In91 2.266 1_556 S
O99 C96 1.252 1_556 S
O100 In91 2.326 . S
O100 C96 1.260 . S
C101 O92 1.240 . S
C101 O93 1.252 . S
O102 In91 2.294 1_556 S
O102 C95 1.240 . S
O103 In91 2.326 1_556 S
O103 C95 1.252 . S
In104 O105 2.294 . S
In104 O106 2.326 . S
In104 O110 2.266 . S
In104 O111 2.326 1_554 S
In104 O112 2.266 1_554 S
In104 O113 2.326 . S
In104 O115 2.294 1_554 S
In104 O116 2.326 1_554 S
O105 In104 2.294 . S
O105 C114 1.240 . S
O106 In104 2.326 . S
O106 C114 1.252 . S
C107 O110 1.252 1_556 S
C107 O111 1.260 . S
C108 O115 1.240 . S
C108 O116 1.252 . S
C109 O112 1.252 1_554 S
C109 O113 1.260 . S
O110 In104 2.266 . S
O110 C107 1.252 1_554 S
O111 In104 2.326 1_556 S
O111 C107 1.260 . S
O112 In104 2.266 1_556 S
O112 C109 1.252 1_556 S
O113 In104 2.326 . S
O113 C109 1.260 . S
C114 O105 1.240 . S
C114 O106 1.252 . S
O115 In104 2.294 1_556 S
O115 C108 1.240 . S
O116 In104 2.326 1_556 S
O116 C108 1.252 . S
In117 O118 2.294 . S
In117 O119 2.326 . S
In117 O123 2.266 . S
In117 O124 2.326 . S
In117 O125 2.266 . S
In117 O126 2.326 . S
In117 O128 2.294 . S
In117 O129 2.326 . S
O118 In117 2.294 . S
O118 C127 1.240 . S
O119 In117 2.326 . S
O119 C127 1.252 . S
C120 O123 1.252 . S
C120 O124 1.260 . S
C121 O128 1.240 . S
C121 O129 1.252 . S
C122 O125 1.252 . S
C122 O126 1.260 . S
O123 In117 2.266 . S
O123 C120 1.252 . S
O124 In117 2.326 . S
O124 C120 1.260 . S
O125 In117 2.266 . S
O125 C122 1.252 . S
O126 In117 2.326 . S
O126 C122 1.260 . S
C127 O118 1.240 . S
C127 O119 1.252 . S
O128 In117 2.294 . S
O128 C121 1.240 . S
O129 In117 2.326 . S
O129 C121 1.252 . S
In130 O131 2.294 . S
In130 O132 2.326 . S
In130 O136 2.266 . S
In130 O137 2.326 . S
In130 O138 2.266 . S
In130 O139 2.326 . S
In130 O141 2.294 . S
In130 O142 2.326 . S
O131 In130 2.294 . S
O131 C140 1.240 . S
O132 In130 2.326 . S
O132 C140 1.252 . S
C133 O136 1.252 . S
C133 O137 1.260 . S
C134 O141 1.240 . S
C134 O142 1.252 . S
C135 O138 1.252 . S
C135 O139 1.260 . S
O136 In130 2.266 . S
O136 C133 1.252 . S
O137 In130 2.326 . S
O137 C133 1.260 . S
O138 In130 2.266 . S
O138 C135 1.252 . S
O139 In130 2.326 . S
O139 C135 1.260 . S
C140 O131 1.240 . S
C140 O132 1.252 . S
O141 In130 2.294 . S
O141 C134 1.240 . S
O142 In130 2.326 . S
O142 C134 1.252 . S
In143 O144 2.294 . S
In143 O145 2.326 . S
In143 O149 2.266 . S
In143 O150 2.326 . S
In143 O151 2.266 . S
In143 O152 2.326 . S
In143 O154 2.294 . S
In143 O155 2.326 . S
O144 In143 2.294 . S
O144 C153 1.240 . S
O145 In143 2.326 . S
O145 C153 1.252 . S
C146 O149 1.252 . S
C146 O150 1.260 . S
C147 O154 1.240 . S
C147 O155 1.252 . S
C148 O151 1.252 . S
C148 O152 1.260 . S
O149 In143 2.266 . S
O149 C146 1.252 . S
O150 In143 2.326 . S
O150 C146 1.260 . S
O151 In143 2.266 . S
O151 C148 1.252 . S
O152 In143 2.326 . S
O152 C148 1.260 . S
C153 O144 1.240 . S
C153 O145 1.252 . S
O154 In143 2.294 . S
O154 C147 1.240 . S
O155 In143 2.326 . S
O155 C147 1.252 . S
H156 C164 0.930 . S
H157 C167 0.930 . S
H158 C169 0.930 . S
H159 C170 0.970 . S
H160 C170 0.970 . S
H161 C172 0.930 . S
H162 C174 0.930 . S
H163 C176 0.930 . S
C164 H156 0.930 . S
C164 C165 1.382 . S
C164 C166 1.426 . S
C165 C164 1.382 . S
C165 C169 1.389 . S
C166 C164 1.426 . S
C166 C167 1.375 . S
C166 C170 1.532 . S
C167 H157 0.930 . S
C167 C166 1.375 . S
C167 C168 1.416 . S
C168 C167 1.416 . S
C168 C169 1.371 . S
C169 H158 0.930 . S
C169 C165 1.389 . S
C169 C168 1.371 . S
C170 H159 0.970 . S
C170 H160 0.970 . S
C170 C166 1.532 . S
C170 C171 1.499 . S
C171 C170 1.499 . S
C171 C172 1.370 1_455 S
C171 C176 1.415 1_455 S
C172 H161 0.930 . S
C172 C171 1.370 1_655 S
C172 C173 1.407 . S
C173 C172 1.407 . S
C173 C174 1.365 . S
C174 H162 0.930 . S
C174 C173 1.365 . S
C174 C175 1.393 . S
C175 C174 1.393 . S
C175 C176 1.387 . S
C176 H163 0.930 . S
C176 C171 1.415 1_655 S
C176 C175 1.387 . S
H177 C185 0.930 . S
H178 C188 0.930 . S
H179 C190 0.930 . S
H180 C191 0.970 . S
H181 C191 0.970 . S
H182 C193 0.930 . S
H183 C195 0.930 . S
H184 C197 0.930 1_455 S
C185 H177 0.930 . S
C185 C186 1.382 . S
C185 C187 1.426 . S
C186 C185 1.382 . S
C186 C190 1.389 . S
C187 C185 1.426 . S
C187 C188 1.375 . S
C187 C191 1.532 . S
C188 H178 0.930 . S
C188 C187 1.375 . S
C188 C189 1.416 . S
C189 C188 1.416 . S
C189 C190 1.371 . S
C190 H179 0.930 . S
C190 C186 1.389 . S
C190 C189 1.371 . S
C191 H180 0.970 . S
C191 H181 0.970 . S
C191 C187 1.532 . S
C191 C192 1.499 . S
C192 C191 1.499 . S
C192 C193 1.370 1_455 S
C192 C197 1.415 1_455 S
C193 H182 0.930 . S
C193 C192 1.370 1_655 S
C193 C194 1.407 . S
C194 C193 1.407 . S
C194 C195 1.365 . S
C195 H183 0.930 . S
C195 C194 1.365 . S
C195 C196 1.393 . S
C196 C195 1.393 . S
C196 C197 1.387 . S
C197 H184 0.930 1_655 S
C197 C192 1.415 1_655 S
C197 C196 1.387 . S
H198 C206 0.930 . S
H199 C209 0.930 . S
H200 C211 0.930 . S
H201 C212 0.970 . S
H202 C212 0.970 . S
H203 C214 0.930 . S
H204 C216 0.930 . S
H205 C218 0.930 . S
C206 H198 0.930 . S
C206 C207 1.382 . S
C206 C208 1.426 . S
C207 C206 1.382 . S
C207 C211 1.389 . S
C208 C206 1.426 . S
C208 C209 1.375 . S
C208 C212 1.532 . S
C209 H199 0.930 . S
C209 C208 1.375 . S
C209 C210 1.416 . S
C210 C209 1.416 . S
C210 C211 1.371 . S
C211 H200 0.930 . S
C211 C207 1.389 . S
C211 C210 1.371 . S
C212 H201 0.970 . S
C212 H202 0.970 . S
C212 C208 1.532 . S
C212 C213 1.499 . S
C213 C212 1.499 . S
C213 C214 1.370 . S
C213 C218 1.415 . S
C214 H203 0.930 . S
C214 C213 1.370 . S
C214 C215 1.407 . S
C215 C214 1.407 . S
C215 C216 1.365 . S
C216 H204 0.930 . S
C216 C215 1.365 . S
C216 C217 1.393 . S
C217 C216 1.393 . S
C217 C218 1.387 . S
C218 H205 0.930 . S
C218 C213 1.415 . S
C218 C217 1.387 . S
H219 C227 0.930 . S
H220 C230 0.930 . S
H221 C232 0.930 . S
H222 C233 0.970 . S
H223 C233 0.970 . S
H224 C235 0.930 . S
H225 C237 0.930 . S
H226 C239 0.930 . S
C227 H219 0.930 . S
C227 C228 1.382 . S
C227 C229 1.426 . S
C228 C227 1.382 . S
C228 C232 1.389 . S
C229 C227 1.426 . S
C229 C230 1.375 . S
C229 C233 1.532 . S
C230 H220 0.930 . S
C230 C229 1.375 . S
C230 C231 1.416 . S
C231 C230 1.416 . S
C231 C232 1.371 . S
C232 H221 0.930 . S
C232 C228 1.389 . S
C232 C231 1.371 . S
C233 H222 0.970 . S
C233 H223 0.970 . S
C233 C229 1.532 . S
C233 C234 1.499 . S
C234 C233 1.499 . S
C234 C235 1.370 . S
C234 C239 1.415 . S
C235 H224 0.930 . S
C235 C234 1.370 . S
C235 C236 1.407 . S
C236 C235 1.407 . S
C236 C237 1.365 . S
C237 H225 0.930 . S
C237 C236 1.365 . S
C237 C238 1.393 . S
C238 C237 1.393 . S
C238 C239 1.387 . S
C239 H226 0.930 . S
C239 C234 1.415 . S
C239 C238 1.387 . S
H240 C248 0.930 . S
H241 C251 0.930 . S
H242 C253 0.930 . S
H243 C254 0.970 . S
H244 C254 0.970 . S
H245 C256 0.930 . S
H246 C258 0.930 . S
H247 C260 0.930 . S
C248 H240 0.930 . S
C248 C249 1.382 . S
C248 C250 1.426 1_545 S
C249 C248 1.382 . S
C249 C253 1.389 . S
C250 C248 1.426 1_565 S
C250 C251 1.375 1_565 S
C250 C254 1.532 . S
C251 H241 0.930 . S
C251 C250 1.375 1_545 S
C251 C252 1.416 . S
C252 C251 1.416 . S
C252 C253 1.371 . S
C253 H242 0.930 . S
C253 C249 1.389 . S
C253 C252 1.371 . S
C254 H243 0.970 . S
C254 H244 0.970 . S
C254 C250 1.532 . S
C254 C255 1.499 . S
C255 C254 1.499 . S
C255 C256 1.370 . S
C255 C260 1.415 . S
C256 H245 0.930 . S
C256 C255 1.370 . S
C256 C257 1.407 . S
C257 C256 1.407 . S
C257 C258 1.365 . S
C258 H246 0.930 . S
C258 C257 1.365 . S
C258 C259 1.393 . S
C259 C258 1.393 . S
C259 C260 1.387 . S
C260 H247 0.930 . S
C260 C255 1.415 . S
C260 C259 1.387 . S
H261 C269 0.930 . S
H262 C272 0.930 . S
H263 C274 0.930 . S
H264 C275 0.970 . S
H265 C275 0.970 . S
H266 C277 0.930 . S
H267 C279 0.930 . S
H268 C281 0.930 . S
C269 H261 0.930 . S
C269 C270 1.382 . S
C269 C271 1.426 . S
C270 C269 1.382 . S
C270 C274 1.389 . S
C271 C269 1.426 . S
C271 C272 1.375 . S
C271 C275 1.532 . S
C272 H262 0.930 . S
C272 C271 1.375 . S
C272 C273 1.416 . S
C273 C272 1.416 . S
C273 C274 1.371 . S
C274 H263 0.930 . S
C274 C270 1.389 . S
C274 C273 1.371 . S
C275 H264 0.970 . S
C275 H265 0.970 . S
C275 C271 1.532 . S
C275 C276 1.499 . S
C276 C275 1.499 . S
C276 C277 1.370 . S
C276 C281 1.415 . S
C277 H266 0.930 . S
C277 C276 1.370 . S
C277 C278 1.407 . S
C278 C277 1.407 . S
C278 C279 1.365 . S
C279 H267 0.930 . S
C279 C278 1.365 . S
C279 C280 1.393 . S
C280 C279 1.393 . S
C280 C281 1.387 . S
C281 H268 0.930 . S
C281 C276 1.415 . S
C281 C280 1.387 . S
H282 C290 0.930 . S
H283 C293 0.930 . S
H284 C295 0.930 . S
H285 C296 0.970 . S
H286 C296 0.970 . S
H287 C298 0.930 . S
H288 C300 0.930 . S
H289 C302 0.930 . S
C290 H282 0.930 . S
C290 C291 1.382 . S
C290 C292 1.426 1_565 S
C291 C290 1.382 . S
C291 C295 1.389 . S
C292 C290 1.426 1_545 S
C292 C293 1.375 1_545 S
C292 C296 1.532 . S
C293 H283 0.930 . S
C293 C292 1.375 1_565 S
C293 C294 1.416 . S
C294 C293 1.416 . S
C294 C295 1.371 . S
C295 H284 0.930 . S
C295 C291 1.389 . S
C295 C294 1.371 . S
C296 H285 0.970 . S
C296 H286 0.970 . S
C296 C292 1.532 . S
C296 C297 1.499 . S
C297 C296 1.499 . S
C297 C298 1.370 . S
C297 C302 1.415 . S
C298 H287 0.930 . S
C298 C297 1.370 . S
C298 C299 1.407 . S
C299 C298 1.407 . S
C299 C300 1.365 . S
C300 H288 0.930 . S
C300 C299 1.365 . S
C300 C301 1.393 . S
C301 C300 1.393 . S
C301 C302 1.387 . S
C302 H289 0.930 . S
C302 C297 1.415 . S
C302 C301 1.387 . S
H303 C311 0.930 . S
H304 C314 0.930 . S
H305 C316 0.930 . S
H306 C317 0.970 . S
H307 C317 0.970 . S
H308 C319 0.930 . S
H309 C321 0.930 . S
H310 C323 0.930 . S
C311 H303 0.930 . S
C311 C312 1.382 . S
C311 C313 1.426 . S
C312 C311 1.382 . S
C312 C316 1.389 . S
C313 C311 1.426 . S
C313 C314 1.375 . S
C313 C317 1.532 . S
C314 H304 0.930 . S
C314 C313 1.375 . S
C314 C315 1.416 . S
C315 C314 1.416 . S
C315 C316 1.371 . S
C316 H305 0.930 . S
C316 C312 1.389 . S
C316 C315 1.371 . S
C317 H306 0.970 . S
C317 H307 0.970 . S
C317 C313 1.532 . S
C317 C318 1.499 . S
C318 C317 1.499 . S
C318 C319 1.370 1_554 S
C318 C323 1.415 1_554 S
C319 H308 0.930 . S
C319 C318 1.370 1_556 S
C319 C320 1.407 . S
C320 C319 1.407 . S
C320 C321 1.365 . S
C321 H309 0.930 . S
C321 C320 1.365 . S
C321 C322 1.393 . S
C322 C321 1.393 . S
C322 C323 1.387 . S
C323 H310 0.930 . S
C323 C318 1.415 1_556 S
C323 C322 1.387 . S
H324 C332 0.930 . S
H325 C335 0.930 . S
H326 C337 0.930 . S
H327 C338 0.970 . S
H328 C338 0.970 . S
H329 C340 0.930 . S
H330 C342 0.930 . S
H331 C344 0.930 . S
C332 H324 0.930 . S
C332 C333 1.382 . S
C332 C334 1.426 . S
C333 C332 1.382 . S
C333 C337 1.389 . S
C334 C332 1.426 . S
C334 C335 1.375 . S
C334 C338 1.532 . S
C335 H325 0.930 . S
C335 C334 1.375 . S
C335 C336 1.416 . S
C336 C335 1.416 . S
C336 C337 1.371 . S
C337 H326 0.930 . S
C337 C333 1.389 . S
C337 C336 1.371 . S
C338 H327 0.970 . S
C338 H328 0.970 . S
C338 C334 1.532 . S
C338 C339 1.499 . S
C339 C338 1.499 . S
C339 C340 1.370 1_554 S
C339 C344 1.415 1_554 S
C340 H329 0.930 . S
C340 C339 1.370 1_556 S
C340 C341 1.407 . S
C341 C340 1.407 . S
C341 C342 1.365 . S
C342 H330 0.930 . S
C342 C341 1.365 . S
C342 C343 1.393 . S
C343 C342 1.393 . S
C343 C344 1.387 . S
C344 H331 0.930 . S
C344 C339 1.415 1_556 S
C344 C343 1.387 . S
H345 C353 0.930 . S
H346 C356 0.930 . S
H347 C358 0.930 . S
H348 C359 0.970 . S
H349 C359 0.970 . S
H350 C361 0.930 . S
H351 C363 0.930 . S
H352 C365 0.930 . S
C353 H345 0.930 . S
C353 C354 1.382 . S
C353 C355 1.426 . S
C354 C353 1.382 . S
C354 C358 1.389 . S
C355 C353 1.426 . S
C355 C356 1.375 . S
C355 C359 1.532 . S
C356 H346 0.930 . S
C356 C355 1.375 . S
C356 C357 1.416 . S
C357 C356 1.416 . S
C357 C358 1.371 . S
C358 H347 0.930 . S
C358 C354 1.389 . S
C358 C357 1.371 . S
C359 H348 0.970 . S
C359 H349 0.970 . S
C359 C355 1.532 . S
C359 C360 1.499 . S
C360 C359 1.499 . S
C360 C361 1.370 . S
C360 C365 1.415 . S
C361 H350 0.930 . S
C361 C360 1.370 . S
C361 C362 1.407 . S
C362 C361 1.407 . S
C362 C363 1.365 . S
C363 H351 0.930 . S
C363 C362 1.365 . S
C363 C364 1.393 . S
C364 C363 1.393 . S
C364 C365 1.387 . S
C365 H352 0.930 . S
C365 C360 1.415 . S
C365 C364 1.387 . S
H366 C374 0.930 . S
H367 C377 0.930 . S
H368 C379 0.930 . S
H369 C380 0.970 . S
H370 C380 0.970 . S
H371 C382 0.930 . S
H372 C384 0.930 . S
H373 C386 0.930 . S
C374 H366 0.930 . S
C374 C375 1.382 . S
C374 C376 1.426 . S
C375 C374 1.382 . S
C375 C379 1.389 . S
C376 C374 1.426 . S
C376 C377 1.375 . S
C376 C380 1.532 . S
C377 H367 0.930 . S
C377 C376 1.375 . S
C377 C378 1.416 . S
C378 C377 1.416 . S
C378 C379 1.371 . S
C379 H368 0.930 . S
C379 C375 1.389 . S
C379 C378 1.371 . S
C380 H369 0.970 . S
C380 H370 0.970 . S
C380 C376 1.532 . S
C380 C381 1.499 . S
C381 C380 1.499 . S
C381 C382 1.370 . S
C381 C386 1.415 . S
C382 H371 0.930 . S
C382 C381 1.370 . S
C382 C383 1.407 . S
C383 C382 1.407 . S
C383 C384 1.365 . S
C384 H372 0.930 . S
C384 C383 1.365 . S
C384 C385 1.393 . S
C385 C384 1.393 . S
C385 C386 1.387 . S
C386 H373 0.930 . S
C386 C381 1.415 . S
C386 C385 1.387 . S
H387 C395 0.930 . S
H388 C398 0.930 . S
H389 C400 0.930 . S
H390 C401 0.970 . S
H391 C401 0.970 . S
H392 C403 0.930 . S
H393 C405 0.930 . S
H394 C407 0.930 . S
C395 H387 0.930 . S
C395 C396 1.382 . S
C395 C397 1.426 . S
C396 C395 1.382 . S
C396 C400 1.389 . S
C397 C395 1.426 . S
C397 C398 1.375 . S
C397 C401 1.532 . S
C398 H388 0.930 . S
C398 C397 1.375 . S
C398 C399 1.416 . S
C399 C398 1.416 . S
C399 C400 1.371 . S
C400 H389 0.930 . S
C400 C396 1.389 . S
C400 C399 1.371 . S
C401 H390 0.970 . S
C401 H391 0.970 . S
C401 C397 1.532 . S
C401 C402 1.499 . S
C402 C401 1.499 . S
C402 C403 1.370 . S
C402 C407 1.415 . S
C403 H392 0.930 . S
C403 C402 1.370 . S
C403 C404 1.407 . S
C404 C403 1.407 . S
C404 C405 1.365 . S
C405 H393 0.930 . S
C405 C404 1.365 . S
C405 C406 1.393 . S
C406 C405 1.393 . S
C406 C407 1.387 . S
C407 H394 0.930 . S
C407 C402 1.415 . S
C407 C406 1.387 . S
H408 C414 0.930 . S
H409 C418 0.930 . S
H410 C423 0.928 1_654 S
H411 C421 0.929 . S
H412 C416 0.929 . S
H413 C422 0.929 . S
C414 H408 0.930 . S
C414 C415 1.367 . S
C414 C422 1.378 1_554 S
C415 C414 1.367 . S
C415 C423 1.424 1_554 S
C416 H412 0.929 . S
C416 C418 1.378 . S
C416 C420 1.350 . S
C417 C420 1.463 . S
C417 C422 1.350 . S
C417 N425 1.427 . S
C418 H409 0.930 . S
C418 C416 1.378 . S
C418 C419 1.367 . S
C419 C418 1.367 . S
C419 C421 1.433 . S
C420 C416 1.350 . S
C420 C417 1.463 . S
C420 N424 1.427 . S
C421 H411 0.929 . S
C421 C419 1.433 . S
C421 N424 1.384 . S
C422 H413 0.929 . S
C422 C414 1.378 1_556 S
C422 C417 1.350 . S
C423 H410 0.928 1_456 S
C423 C415 1.424 1_556 S
C423 N425 1.394 . S
N424 C420 1.427 . S
N424 C421 1.384 . S
N425 C417 1.427 . S
N425 C423 1.394 . S
H426 C432 0.930 . S
H427 C436 0.930 . S
H428 C441 0.929 . S
H429 C439 0.929 . S
H430 C434 0.929 . S
H431 C440 0.929 . S
C432 H426 0.930 . S
C432 C433 1.367 . S
C432 C440 1.378 . S
C433 C432 1.367 . S
C433 C441 1.433 . S
C434 H430 0.929 . S
C434 C436 1.378 . S
C434 C438 1.350 . S
C435 C438 1.463 . S
C435 C440 1.350 . S
C435 N443 1.427 . S
C436 H427 0.930 . S
C436 C434 1.378 . S
C436 C437 1.367 . S
C437 C436 1.367 . S
C437 C439 1.433 . S
C438 C434 1.350 . S
C438 C435 1.463 . S
C438 N442 1.427 . S
C439 H429 0.929 . S
C439 C437 1.433 . S
C439 N442 1.384 . S
C440 H431 0.929 . S
C440 C432 1.378 . S
C440 C435 1.350 . S
C441 H428 0.929 . S
C441 C433 1.433 . S
C441 N443 1.384 . S
N442 C438 1.427 . S
N442 C439 1.384 . S
N443 C435 1.427 . S
N443 C441 1.384 . S
H444 C450 0.930 . S
H445 C454 0.930 . S
H446 C459 0.929 . S
H447 C457 0.929 . S
H448 C452 0.929 . S
H449 C458 0.929 . S
C450 H444 0.930 . S
C450 C451 1.367 . S
C450 C458 1.378 . S
C451 C450 1.367 . S
C451 C459 1.433 . S
C452 H448 0.929 . S
C452 C454 1.378 . S
C452 C456 1.350 . S
C453 C456 1.463 . S
C453 C458 1.350 . S
C453 N461 1.427 . S
C454 H445 0.930 . S
C454 C452 1.378 . S
C454 C455 1.367 . S
C455 C454 1.367 . S
C455 C457 1.433 . S
C456 C452 1.350 . S
C456 C453 1.463 . S
C456 N460 1.427 . S
C457 H447 0.929 . S
C457 C455 1.433 . S
C457 N460 1.384 . S
C458 H449 0.929 . S
C458 C450 1.378 . S
C458 C453 1.350 . S
C459 H446 0.929 . S
C459 C451 1.433 . S
C459 N461 1.384 . S
N460 C456 1.427 . S
N460 C457 1.384 . S
N461 C453 1.427 . S
N461 C459 1.384 . S
H462 C468 0.930 . S
H463 C472 0.930 . S
H464 C477 0.929 . S
H465 C475 0.929 . S
H466 C470 0.929 . S
H467 C476 0.929 . S
C468 H462 0.930 . S
C468 C469 1.367 . S
C468 C476 1.378 . S
C469 C468 1.367 . S
C469 C477 1.433 . S
C470 H466 0.929 . S
C470 C472 1.378 . S
C470 C474 1.350 . S
C471 C474 1.463 . S
C471 C476 1.350 . S
C471 N479 1.427 . S
C472 H463 0.930 . S
C472 C470 1.378 . S
C472 C473 1.367 . S
C473 C472 1.367 . S
C473 C475 1.433 . S
C474 C470 1.350 . S
C474 C471 1.463 . S
C474 N478 1.427 . S
C475 H465 0.929 . S
C475 C473 1.433 . S
C475 N478 1.384 . S
C476 H467 0.929 . S
C476 C468 1.378 . S
C476 C471 1.350 . S
C477 H464 0.929 . S
C477 C469 1.433 . S
C477 N479 1.384 . S
N478 C474 1.427 . S
N478 C475 1.384 . S
N479 C471 1.427 . S
N479 C477 1.384 . S
H480 C486 0.930 . S
H481 C490 0.930 . S
H482 C495 0.929 . S
H483 C493 0.929 . S
H484 C488 0.929 . S
H485 C494 0.929 . S
C486 H480 0.930 . S
C486 C487 1.367 . S
C486 C494 1.378 . S
C487 C486 1.367 . S
C487 C495 1.433 . S
C488 H484 0.929 . S
C488 C490 1.378 . S
C488 C492 1.350 . S
C489 C492 1.463 . S
C489 C494 1.350 . S
C489 N497 1.427 . S
C490 H481 0.930 . S
C490 C488 1.378 . S
C490 C491 1.367 . S
C491 C490 1.367 . S
C491 C493 1.433 . S
C492 C488 1.350 . S
C492 C489 1.463 . S
C492 N496 1.427 . S
C493 H483 0.929 . S
C493 C491 1.433 . S
C493 N496 1.384 . S
C494 H485 0.929 . S
C494 C486 1.378 . S
C494 C489 1.350 . S
C495 H482 0.929 . S
C495 C487 1.433 . S
C495 N497 1.384 . S
N496 C492 1.427 . S
N496 C493 1.384 . S
N497 C489 1.427 . S
N497 C495 1.384 . S
H498 C504 0.930 . S
H499 C508 0.930 . S
H500 C513 0.929 . S
H501 C511 0.929 . S
H502 C506 0.929 . S
H503 C512 0.929 . S
C504 H498 0.930 . S
C504 C505 1.367 . S
C504 C512 1.378 . S
C505 C504 1.367 . S
C505 C513 1.433 . S
C506 H502 0.929 . S
C506 C508 1.378 . S
C506 C510 1.350 . S
C507 C510 1.463 . S
C507 C512 1.350 . S
C507 N515 1.427 . S
C508 H499 0.930 . S
C508 C506 1.378 . S
C508 C509 1.367 . S
C509 C508 1.367 . S
C509 C511 1.433 . S
C510 C506 1.350 . S
C510 C507 1.463 . S
C510 N514 1.427 . S
C511 H501 0.929 . S
C511 C509 1.433 . S
C511 N514 1.384 . S
C512 H503 0.929 . S
C512 C504 1.378 . S
C512 C507 1.350 . S
C513 H500 0.929 . S
C513 C505 1.433 . S
C513 N515 1.384 . S
N514 C510 1.427 . S
N514 C511 1.384 . S
N515 C507 1.427 . S
N515 C513 1.384 . S
H516 C522 0.930 . S
H517 C526 0.930 . S
H518 C531 0.929 . S
H519 C529 0.929 . S
H520 C524 0.929 . S
H521 C530 0.929 . S
C522 H516 0.930 . S
C522 C523 1.367 . S
C522 C530 1.378 1_556 S
C523 C522 1.367 . S
C523 C531 1.433 . S
C524 H520 0.929 . S
C524 C526 1.378 . S
C524 C528 1.350 . S
C525 C528 1.463 . S
C525 C530 1.350 . S
C525 N533 1.427 . S
C526 H517 0.930 . S
C526 C524 1.378 . S
C526 C527 1.367 . S
C527 C526 1.367 . S
C527 C529 1.433 . S
C528 C524 1.350 . S
C528 C525 1.463 . S
C528 N532 1.427 . S
C529 H519 0.929 . S
C529 C527 1.433 . S
C529 N532 1.384 . S
C530 H521 0.929 . S
C530 C522 1.378 1_554 S
C530 C525 1.350 . S
C531 H518 0.929 . S
C531 C523 1.433 . S
C531 N533 1.384 1_556 S
N532 C528 1.427 . S
N532 C529 1.384 . S
N533 C525 1.427 . S
N533 C531 1.384 1_554 S
H534 C540 0.930 . S
H535 C544 0.930 . S
H536 C549 0.929 . S
H537 C547 0.929 . S
H538 C542 0.929 . S
H539 C548 0.929 . S
C540 H534 0.930 . S
C540 C541 1.367 . S
C540 C548 1.378 . S
C541 C540 1.367 . S
C541 C549 1.433 . S
C542 H538 0.929 . S
C542 C544 1.378 . S
C542 C546 1.350 . S
C543 C546 1.463 . S
C543 C548 1.350 . S
C543 N551 1.427 . S
C544 H535 0.930 . S
C544 C542 1.378 . S
C544 C545 1.367 . S
C545 C544 1.367 . S
C545 C547 1.433 . S
C546 C542 1.350 . S
C546 C543 1.463 . S
C546 N550 1.427 . S
C547 H537 0.929 . S
C547 C545 1.433 . S
C547 N550 1.384 . S
C548 H539 0.929 . S
C548 C540 1.378 . S
C548 C543 1.350 . S
C549 H536 0.929 . S
C549 C541 1.433 . S
C549 N551 1.384 . S
N550 C546 1.427 . S
N550 C547 1.384 . S
N551 C543 1.427 . S
N551 C549 1.384 . S
H552 C558 0.930 . S
H553 C562 0.930 . S
H554 C567 0.930 1_565 S
H555 C565 0.929 . S
H556 C560 0.929 . S
H557 C566 0.929 . S
C558 H552 0.930 . S
C558 C559 1.367 . S
C558 C566 1.378 1_455 S
C559 C558 1.367 . S
C559 C567 1.440 . S
C560 H556 0.929 . S
C560 C562 1.378 . S
C560 C564 1.350 . S
C561 C564 1.463 . S
C561 C566 1.350 . S
C561 N569 1.427 . S
C562 H553 0.930 . S
C562 C560 1.378 . S
C562 C563 1.367 . S
C563 C562 1.367 . S
C563 C565 1.433 . S
C564 C560 1.350 . S
C564 C561 1.463 . S
C564 N568 1.427 . S
C565 H555 0.929 . S
C565 C563 1.433 . S
C565 N568 1.384 . S
C566 H557 0.929 . S
C566 C558 1.378 1_655 S
C566 C561 1.350 . S
C567 H554 0.930 1_545 S
C567 C559 1.440 . S
C567 N569 1.376 1_455 S
N568 C564 1.427 . S
N568 C565 1.384 . S
N569 C561 1.427 . S
N569 C567 1.376 1_655 S
H570 C576 0.930 . S
H571 C580 0.930 . S
H572 C585 0.929 . S
H573 C583 0.929 . S
H574 C578 0.929 . S
H575 C584 0.929 . S
C576 H570 0.930 . S
C576 C577 1.367 . S
C576 C584 1.378 . S
C577 C576 1.367 . S
C577 C585 1.433 . S
C578 H574 0.929 . S
C578 C580 1.378 . S
C578 C582 1.350 . S
C579 C582 1.463 . S
C579 C584 1.350 . S
C579 N587 1.427 . S
C580 H571 0.930 . S
C580 C578 1.378 . S
C580 C581 1.367 . S
C581 C580 1.367 . S
C581 C583 1.433 . S
C582 C578 1.350 . S
C582 C579 1.463 . S
C582 N586 1.427 . S
C583 H573 0.929 . S
C583 C581 1.433 . S
C583 N586 1.384 . S
C584 H575 0.929 . S
C584 C576 1.378 . S
C584 C579 1.350 . S
C585 H572 0.929 . S
C585 C577 1.433 . S
C585 N587 1.384 . S
N586 C582 1.427 . S
N586 C583 1.384 . S
N587 C579 1.427 . S
N587 C585 1.384 . S
H588 C594 0.930 . S
H589 C598 0.930 . S
H590 C603 0.929 . S
H591 C601 0.929 . S
H592 C596 0.929 1_545 S
H593 C602 0.929 . S
C594 H588 0.930 . S
C594 C595 1.367 . S
C594 C602 1.378 . S
C595 C594 1.367 . S
C595 C603 1.433 1_565 S
C596 H592 0.929 1_565 S
C596 C598 1.378 . S
C596 C600 1.350 . S
C597 C600 1.463 . S
C597 C602 1.350 . S
C597 N605 1.427 1_565 S
C598 H589 0.930 . S
C598 C596 1.378 . S
C598 C599 1.367 . S
C599 C598 1.367 . S
C599 C601 1.433 . S
C600 C596 1.350 . S
C600 C597 1.463 . S
C600 N604 1.427 . S
C601 H591 0.929 . S
C601 C599 1.433 . S
C601 N604 1.384 . S
C602 H593 0.929 . S
C602 C594 1.378 . S
C602 C597 1.350 . S
C603 H590 0.929 . S
C603 C595 1.433 1_545 S
C603 N605 1.384 . S
N604 C600 1.427 . S
N604 C601 1.384 . S
N605 C597 1.427 1_545 S
N605 C603 1.384 . S
H606 C612 0.930 . S
H607 C616 0.930 . S
H608 C621 0.929 . S
H609 C619 0.929 . S
H610 C614 0.929 . S
H611 C620 0.929 . S
C612 H606 0.930 . S
C612 C613 1.367 . S
C612 C620 1.378 . S
C613 C612 1.367 . S
C613 C621 1.433 . S
C614 H610 0.929 . S
C614 C616 1.378 . S
C614 C618 1.350 . S
C615 C618 1.463 . S
C615 C620 1.350 . S
C615 N623 1.427 . S
C616 H607 0.930 . S
C616 C614 1.378 . S
C616 C617 1.367 . S
C617 C616 1.367 . S
C617 C619 1.433 . S
C618 C614 1.350 . S
C618 C615 1.463 . S
C618 N622 1.427 . S
C619 H609 0.929 . S
C619 C617 1.433 . S
C619 N622 1.384 . S
C620 H611 0.929 . S
C620 C612 1.378 . S
C620 C615 1.350 . S
C621 H608 0.929 . S
C621 C613 1.433 . S
C621 N623 1.384 . S
N622 C618 1.427 . S
N622 C619 1.384 . S
N623 C615 1.427 . S
N623 C621 1.384 . S
H624 C630 0.930 . S
H625 C634 0.930 . S
H626 C639 0.929 . S
H627 C637 0.929 . S
H628 C632 0.929 . S
H629 C638 0.929 . S
C630 H624 0.930 . S
C630 C631 1.367 1_545 S
C630 C638 1.378 1_455 S
C631 C630 1.367 1_565 S
C631 C639 1.433 . S
C632 H628 0.929 . S
C632 C634 1.378 . S
C632 C636 1.350 . S
C633 C636 1.463 . S
C633 C638 1.350 1_565 S
C633 N641 1.427 . S
C634 H625 0.930 . S
C634 C632 1.378 . S
C634 C635 1.367 . S
C635 C634 1.367 . S
C635 C637 1.433 . S
C636 C632 1.350 . S
C636 C633 1.463 . S
C636 N640 1.427 . S
C637 H627 0.929 . S
C637 C635 1.433 . S
C637 N640 1.384 . S
C638 H629 0.929 . S
C638 C630 1.378 1_655 S
C638 C633 1.350 1_545 S
C639 H626 0.929 . S
C639 C631 1.433 . S
C639 N641 1.384 1_455 S
N640 C636 1.427 . S
N640 C637 1.384 . S
N641 C633 1.427 . S
N641 C639 1.384 1_655 S
H642 C648 0.930 . S
H643 C652 0.930 . S
H644 C657 0.929 . S
H645 C655 0.929 . S
H646 C650 0.929 . S
H647 C656 0.929 . S
C648 H642 0.930 . S
C648 C649 1.367 . S
C648 C656 1.378 . S
C649 C648 1.367 . S
C649 C657 1.433 . S
C650 H646 0.929 . S
C650 C652 1.378 . S
C650 C654 1.350 . S
C651 C654 1.463 . S
C651 C656 1.350 . S
C651 N659 1.427 . S
C652 H643 0.930 . S
C652 C650 1.378 . S
C652 C653 1.367 . S
C653 C652 1.367 . S
C653 C655 1.433 . S
C654 C650 1.350 . S
C654 C651 1.463 . S
C654 N658 1.427 . S
C655 H645 0.929 . S
C655 C653 1.433 . S
C655 N658 1.384 . S
C656 H647 0.929 . S
C656 C648 1.378 . S
C656 C651 1.350 . S
C657 H644 0.929 . S
C657 C649 1.433 . S
C657 N659 1.384 . S
N658 C654 1.427 . S
N658 C655 1.384 . S
N659 C651 1.427 . S
N659 C657 1.384 . S
H660 C666 0.930 . S
H661 C670 0.930 . S
H662 C675 0.935 . S
H663 C673 0.929 . S
H664 C668 0.929 . S
H665 C674 0.929 . S
C666 H660 0.930 . S
C666 C667 1.367 . S
C666 C674 1.378 . S
C667 C666 1.367 . S
C667 C675 1.429 1_545 S
C668 H664 0.929 . S
C668 C670 1.378 . S
C668 C672 1.350 . S
C669 C672 1.463 . S
C669 C674 1.350 . S
C669 N677 1.427 . S
C670 H661 0.930 . S
C670 C668 1.378 . S
C670 C671 1.367 . S
C671 C670 1.367 . S
C671 C673 1.433 . S
C672 C668 1.350 . S
C672 C669 1.463 . S
C672 N676 1.427 . S
C673 H663 0.929 . S
C673 C671 1.433 . S
C673 N676 1.384 . S
C674 H665 0.929 . S
C674 C666 1.378 . S
C674 C669 1.350 . S
C675 H662 0.935 . S
C675 C667 1.429 1_565 S
C675 N677 1.382 1_565 S
N676 C672 1.427 . S
N676 C673 1.384 . S
N677 C669 1.427 . S
N677 C675 1.382 1_545 S
H678 C684 0.930 . S
H679 C688 0.930 . S
H680 C693 0.929 . S
H681 C691 0.929 . S
H682 C686 0.929 . S
H683 C692 0.929 . S
C684 H678 0.930 . S
C684 C685 1.367 . S
C684 C692 1.378 . S
C685 C684 1.367 . S
C685 C693 1.433 . S
C686 H682 0.929 . S
C686 C688 1.378 . S
C686 C690 1.350 . S
C687 C690 1.463 . S
C687 C692 1.350 . S
C687 N695 1.427 . S
C688 H679 0.930 . S
C688 C686 1.378 . S
C688 C689 1.367 . S
C689 C688 1.367 . S
C689 C691 1.433 . S
C690 C686 1.350 . S
C690 C687 1.463 . S
C690 N694 1.427 . S
C691 H681 0.929 . S
C691 C689 1.433 . S
C691 N694 1.384 . S
C692 H683 0.929 . S
C692 C684 1.378 . S
C692 C687 1.350 . S
C693 H680 0.929 . S
C693 C685 1.433 . S
C693 N695 1.384 . S
N694 C690 1.427 . S
N694 C691 1.384 . S
N695 C687 1.427 . S
N695 C693 1.384 . S
H696 C702 0.941 . S
H697 C706 0.930 . S
H698 C711 0.929 . S
H699 C709 0.929 . S
H700 C704 0.929 . S
H701 C710 0.929 1_556 S
C702 H696 0.941 . S
C702 C703 1.359 1_556 S
C702 C710 1.375 1_546 S
C703 C702 1.359 1_554 S
C703 C711 1.433 . S
C704 H700 0.929 . S
C704 C706 1.378 . S
C704 C708 1.350 . S
C705 C708 1.463 . S
C705 C710 1.350 . S
C705 N713 1.427 . S
C706 H697 0.930 . S
C706 C704 1.378 . S
C706 C707 1.367 . S
C707 C706 1.367 . S
C707 C709 1.433 . S
C708 C704 1.350 . S
C708 C705 1.463 . S
C708 N712 1.427 . S
C709 H699 0.929 . S
C709 C707 1.433 . S
C709 N712 1.384 . S
C710 H701 0.929 1_554 S
C710 C702 1.375 1_564 S
C710 C705 1.350 . S
C711 H698 0.929 . S
C711 C703 1.433 . S
C711 N713 1.384 1_545 S
N712 C708 1.427 . S
N712 C709 1.384 . S
N713 C705 1.427 . S
N713 C711 1.384 1_565 S
H714 C720 0.930 . S
H715 C724 0.930 . S
H716 C729 0.929 . S
H717 C727 0.929 1_554 S
H718 C722 0.929 . S
H719 C728 0.929 . S
C720 H714 0.930 . S
C720 C721 1.367 1_554 S
C720 C728 1.378 . S
C721 C720 1.367 1_556 S
C721 C729 1.433 . S
C722 H718 0.929 . S
C722 C724 1.378 . S
C722 C726 1.350 . S
C723 C726 1.463 . S
C723 C728 1.350 1_556 S
C723 N731 1.427 . S
C724 H715 0.930 . S
C724 C722 1.378 . S
C724 C725 1.367 . S
C725 C724 1.367 . S
C725 C727 1.433 . S
C726 C722 1.350 . S
C726 C723 1.463 . S
C726 N730 1.427 . S
C727 H717 0.929 1_556 S
C727 C725 1.433 . S
C727 N730 1.384 . S
C728 H719 0.929 . S
C728 C720 1.378 . S
C728 C723 1.350 1_554 S
C729 H716 0.929 . S
C729 C721 1.433 . S
C729 N731 1.384 . S
N730 C726 1.427 . S
N730 C727 1.384 . S
N731 C723 1.427 . S
N731 C729 1.384 . S
H732 C738 0.930 . S
H733 C742 0.930 . S
H734 C747 0.929 . S
H735 C745 0.929 . S
H736 C740 0.929 . S
H737 C746 0.929 . S
C738 H732 0.930 . S
C738 C739 1.367 . S
C738 C746 1.378 . S
C739 C738 1.367 . S
C739 C747 1.433 . S
C740 H736 0.929 . S
C740 C742 1.378 . S
C740 C744 1.350 . S
C741 C744 1.463 . S
C741 C746 1.350 . S
C741 N749 1.427 . S
C742 H733 0.930 . S
C742 C740 1.378 . S
C742 C743 1.367 . S
C743 C742 1.367 . S
C743 C745 1.433 . S
C744 C740 1.350 . S
C744 C741 1.463 . S
C744 N748 1.427 . S
C745 H735 0.929 . S
C745 C743 1.433 . S
C745 N748 1.384 . S
C746 H737 0.929 . S
C746 C738 1.378 . S
C746 C741 1.350 . S
C747 H734 0.929 . S
C747 C739 1.433 . S
C747 N749 1.384 . S
N748 C744 1.427 . S
N748 C745 1.384 . S
N749 C741 1.427 . S
N749 C747 1.384 . S
H750 C756 0.930 . S
H751 C760 0.930 . S
H752 C765 0.929 . S
H753 C763 0.929 . S
H754 C758 0.929 . S
H755 C764 0.929 . S
C756 H750 0.930 . S
C756 C757 1.367 . S
C756 C764 1.378 . S
C757 C756 1.367 . S
C757 C765 1.433 . S
C758 H754 0.929 . S
C758 C760 1.378 . S
C758 C762 1.350 . S
C759 C762 1.463 . S
C759 C764 1.350 . S
C759 N767 1.427 . S
C760 H751 0.930 . S
C760 C758 1.378 . S
C760 C761 1.367 . S
C761 C760 1.367 . S
C761 C763 1.433 . S
C762 C758 1.350 . S
C762 C759 1.463 . S
C762 N766 1.427 . S
C763 H753 0.929 . S
C763 C761 1.433 . S
C763 N766 1.384 . S
C764 H755 0.929 . S
C764 C756 1.378 . S
C764 C759 1.350 . S
C765 H752 0.929 . S
C765 C757 1.433 . S
C765 N767 1.384 . S
N766 C762 1.427 . S
N766 C763 1.384 . S
N767 C759 1.427 . S
N767 C765 1.384 . S
H768 C774 0.930 . S
H769 C778 0.930 . S
H770 C783 0.929 . S
H771 C781 0.929 . S
H772 C776 0.929 . S
H773 C782 0.929 . S
C774 H768 0.930 . S
C774 C775 1.367 . S
C774 C782 1.378 . S
C775 C774 1.367 . S
C775 C783 1.433 . S
C776 H772 0.929 . S
C776 C778 1.378 . S
C776 C780 1.350 . S
C777 C780 1.463 . S
C777 C782 1.350 . S
C777 N785 1.427 . S
C778 H769 0.930 . S
C778 C776 1.378 . S
C778 C779 1.367 . S
C779 C778 1.367 . S
C779 C781 1.433 . S
C780 C776 1.350 . S
C780 C777 1.463 . S
C780 N784 1.427 . S
C781 H771 0.929 . S
C781 C779 1.433 . S
C781 N784 1.384 . S
C782 H773 0.929 . S
C782 C774 1.378 . S
C782 C777 1.350 . S
C783 H770 0.929 . S
C783 C775 1.433 . S
C783 N785 1.384 . S
N784 C780 1.427 . S
N784 C781 1.384 . S
N785 C777 1.427 . S
N785 C783 1.384 . S
H786 C792 0.930 . S
H787 C796 0.930 . S
H788 C801 0.929 . S
H789 C799 0.929 . S
H790 C794 0.929 . S
H791 C800 0.929 . S
C792 H786 0.930 . S
C792 C793 1.367 . S
C792 C800 1.378 1_565 S
C793 C792 1.367 . S
C793 C801 1.433 . S
C794 H790 0.929 . S
C794 C796 1.378 . S
C794 C798 1.350 . S
C795 C798 1.463 . S
C795 C800 1.350 . S
C795 N803 1.427 . S
C796 H787 0.930 . S
C796 C794 1.378 . S
C796 C797 1.367 . S
C797 C796 1.367 . S
C797 C799 1.433 . S
C798 C794 1.350 . S
C798 C795 1.463 . S
C798 N802 1.427 . S
C799 H789 0.929 . S
C799 C797 1.433 . S
C799 N802 1.384 . S
C800 H791 0.929 . S
C800 C792 1.378 1_545 S
C800 C795 1.350 . S
C801 H788 0.929 . S
C801 C793 1.433 . S
C801 N803 1.384 1_565 S
N802 C798 1.427 . S
N802 C799 1.384 . S
N803 C795 1.427 . S
N803 C801 1.384 1_545 S
H804 C810 0.930 . S
H805 C814 0.930 . S
H806 C819 0.929 . S
H807 C817 0.929 . S
H808 C812 0.929 . S
H809 C818 0.929 . S
C810 H804 0.930 . S
C810 C811 1.367 . S
C810 C818 1.378 . S
C811 C810 1.367 . S
C811 C819 1.433 . S
C812 H808 0.929 . S
C812 C814 1.378 . S
C812 C816 1.350 . S
C813 C816 1.463 . S
C813 C818 1.350 . S
C813 N821 1.427 . S
C814 H805 0.930 . S
C814 C812 1.378 . S
C814 C815 1.367 . S
C815 C814 1.367 . S
C815 C817 1.433 . S
C816 C812 1.350 . S
C816 C813 1.463 . S
C816 N820 1.427 . S
C817 H807 0.929 . S
C817 C815 1.433 . S
C817 N820 1.384 . S
C818 H809 0.929 . S
C818 C810 1.378 . S
C818 C813 1.350 . S
C819 H806 0.929 . S
C819 C811 1.433 . S
C819 N821 1.384 . S
N820 C816 1.427 . S
N820 C817 1.384 . S
N821 C813 1.427 . S
N821 C819 1.384 . S
H822 C828 0.930 . S
H823 C832 0.930 . S
H824 C837 0.929 . S
H825 C835 0.929 . S
H826 C830 0.929 . S
H827 C836 0.929 . S
C828 H822 0.930 . S
C828 C829 1.367 . S
C828 C836 1.378 . S
C829 C828 1.367 . S
C829 C837 1.433 . S
C830 H826 0.929 . S
C830 C832 1.378 . S
C830 C834 1.350 . S
C831 C834 1.463 . S
C831 C836 1.350 . S
C831 N839 1.427 . S
C832 H823 0.930 . S
C832 C830 1.378 . S
C832 C833 1.367 . S
C833 C832 1.367 . S
C833 C835 1.433 . S
C834 C830 1.350 . S
C834 C831 1.463 . S
C834 N838 1.427 . S
C835 H825 0.929 . S
C835 C833 1.433 . S
C835 N838 1.384 . S
C836 H827 0.929 . S
C836 C828 1.378 . S
C836 C831 1.350 . S
C837 H824 0.929 . S
C837 C829 1.433 . S
C837 N839 1.384 . S
N838 C834 1.427 . S
N838 C835 1.384 . S
N839 C831 1.427 . S
N839 C837 1.384 . S
H840 C846 0.930 . S
H841 C850 0.930 . S
H842 C855 0.929 . S
H843 C853 0.929 . S
H844 C848 0.929 . S
H845 C854 0.929 . S
C846 H840 0.930 . S
C846 C847 1.367 . S
C846 C854 1.378 . S
C847 C846 1.367 . S
C847 C855 1.433 . S
C848 H844 0.929 . S
C848 C850 1.378 . S
C848 C852 1.350 . S
C849 C852 1.463 . S
C849 C854 1.350 . S
C849 N857 1.427 . S
C850 H841 0.930 . S
C850 C848 1.378 . S
C850 C851 1.367 . S
C851 C850 1.367 . S
C851 C853 1.433 . S
C852 C848 1.350 . S
C852 C849 1.463 . S
C852 N856 1.427 . S
C853 H843 0.929 . S
C853 C851 1.433 . S
C853 N856 1.384 . S
C854 H845 0.929 . S
C854 C846 1.378 . S
C854 C849 1.350 . S
C855 H842 0.929 . S
C855 C847 1.433 . S
C855 N857 1.384 . S
N856 C852 1.427 . S
N856 C853 1.384 . S
N857 C849 1.427 . S
N857 C855 1.384 . S
H858 C864 0.930 . S
H859 C868 0.930 . S
H860 C873 0.929 . S
H861 C871 0.929 . S
H862 C866 0.929 . S
H863 C872 0.929 . S
C864 H858 0.930 . S
C864 C865 1.367 . S
C864 C872 1.378 . S
C865 C864 1.367 . S
C865 C873 1.433 . S
C866 H862 0.929 . S
C866 C868 1.378 . S
C866 C870 1.350 . S
C867 C870 1.463 . S
C867 C872 1.350 . S
C867 N875 1.427 . S
C868 H859 0.930 . S
C868 C866 1.378 . S
C868 C869 1.367 . S
C869 C868 1.367 . S
C869 C871 1.433 . S
C870 C866 1.350 . S
C870 C867 1.463 . S
C870 N874 1.427 . S
C871 H861 0.929 . S
C871 C869 1.433 . S
C871 N874 1.384 . S
C872 H863 0.929 . S
C872 C864 1.378 . S
C872 C867 1.350 . S
C873 H860 0.929 . S
C873 C865 1.433 . S
C873 N875 1.384 . S
N874 C870 1.427 . S
N874 C871 1.384 . S
N875 C867 1.427 . S
N875 C873 1.384 . S
H876 C882 0.930 . S
H877 C886 0.930 . S
H878 C891 0.929 . S
H879 C889 0.929 . S
H880 C884 0.929 . S
H881 C890 0.929 1_455 S
C882 H876 0.930 . S
C882 C883 1.367 1_455 S
C882 C890 1.378 1_454 S
C883 C882 1.367 1_655 S
C883 C891 1.433 . S
C884 H880 0.929 . S
C884 C886 1.378 . S
C884 C888 1.350 . S
C885 C888 1.463 . S
C885 C890 1.350 . S
C885 N893 1.427 . S
C886 H877 0.930 . S
C886 C884 1.378 . S
C886 C887 1.367 . S
C887 C886 1.367 . S
C887 C889 1.433 . S
C888 C884 1.350 . S
C888 C885 1.463 . S
C888 N892 1.427 . S
C889 H879 0.929 . S
C889 C887 1.433 . S
C889 N892 1.384 . S
C890 H881 0.929 1_655 S
C890 C882 1.378 1_656 S
C890 C885 1.350 . S
C891 H878 0.929 . S
C891 C883 1.433 . S
C891 N893 1.384 1_554 S
N892 C888 1.427 . S
N892 C889 1.384 . S
N893 C885 1.427 . S
N893 C891 1.384 1_556 S
H894 C900 0.930 . S
H895 C904 0.930 . S
H896 C909 0.929 . S
H897 C907 0.929 . S
H898 C902 0.929 . S
H899 C908 0.929 . S
C900 H894 0.930 . S
C900 C901 1.367 . S
C900 C908 1.378 . S
C901 C900 1.367 . S
C901 C909 1.433 . S
C902 H898 0.929 . S
C902 C904 1.378 . S
C902 C906 1.350 . S
C903 C906 1.463 . S
C903 C908 1.350 . S
C903 N911 1.427 . S
C904 H895 0.930 . S
C904 C902 1.378 . S
C904 C905 1.367 . S
C905 C904 1.367 . S
C905 C907 1.433 . S
C906 C902 1.350 . S
C906 C903 1.463 . S
C906 N910 1.427 . S
C907 H897 0.929 . S
C907 C905 1.433 . S
C907 N910 1.384 . S
C908 H899 0.929 . S
C908 C900 1.378 . S
C908 C903 1.350 . S
C909 H896 0.929 . S
C909 C901 1.433 . S
C909 N911 1.384 . S
N910 C906 1.427 . S
N910 C907 1.384 . S
N911 C903 1.427 . S
N911 C909 1.384 . S
H912 C918 0.930 . S
H913 C922 0.930 . S
H914 C927 0.927 1_556 S
H915 C925 0.929 . S
H916 C920 0.929 . S
H917 C926 0.929 . S
C918 H912 0.930 . S
C918 C919 1.367 . S
C918 C926 1.378 1_556 S
C919 C918 1.367 . S
C919 C927 1.433 1_556 S
C920 H916 0.929 . S
C920 C922 1.378 . S
C920 C924 1.350 . S
C921 C924 1.463 . S
C921 C926 1.350 . S
C921 N929 1.427 . S
C922 H913 0.930 . S
C922 C920 1.378 . S
C922 C923 1.367 . S
C923 C922 1.367 . S
C923 C925 1.433 . S
C924 C920 1.350 . S
C924 C921 1.463 . S
C924 N928 1.427 . S
C925 H915 0.929 . S
C925 C923 1.433 . S
C925 N928 1.384 . S
C926 H917 0.929 . S
C926 C918 1.378 1_554 S
C926 C921 1.350 . S
C927 H914 0.927 1_554 S
C927 C919 1.433 1_554 S
C927 N929 1.384 . S
N928 C924 1.427 . S
N928 C925 1.384 . S
N929 C921 1.427 . S
N929 C927 1.384 . S
H930 C936 0.930 . S
H931 C940 0.930 . S
H932 C945 0.929 . S
H933 C943 0.929 . S
H934 C938 0.929 . S
H935 C944 0.929 . S
C936 H930 0.930 . S
C936 C937 1.367 . S
C936 C944 1.378 . S
C937 C936 1.367 . S
C937 C945 1.433 . S
C938 H934 0.929 . S
C938 C940 1.378 . S
C938 C942 1.350 . S
C939 C942 1.463 . S
C939 C944 1.350 . S
C939 N947 1.427 . S
C940 H931 0.930 . S
C940 C938 1.378 . S
C940 C941 1.367 . S
C941 C940 1.367 . S
C941 C943 1.433 . S
C942 C938 1.350 . S
C942 C939 1.463 . S
C942 N946 1.427 . S
C943 H933 0.929 . S
C943 C941 1.433 . S
C943 N946 1.384 . S
C944 H935 0.929 . S
C944 C936 1.378 . S
C944 C939 1.350 . S
C945 H932 0.929 . S
C945 C937 1.433 . S
C945 N947 1.384 . S
N946 C942 1.427 . S
N946 C943 1.384 . S
N947 C939 1.427 . S
N947 C945 1.384 . S
H948 C954 0.930 . S
H949 C958 0.930 . S
H950 C963 0.929 . S
H951 C961 0.929 . S
H952 C956 0.929 . S
H953 C962 0.929 1_455 S
C954 H948 0.930 . S
C954 C955 1.367 1_455 S
C954 C962 1.378 1_455 S
C955 C954 1.367 1_655 S
C955 C963 1.433 . S
C956 H952 0.929 . S
C956 C958 1.378 . S
C956 C960 1.350 . S
C957 C960 1.463 . S
C957 C962 1.350 . S
C957 N965 1.427 . S
C958 H949 0.930 . S
C958 C956 1.378 . S
C958 C959 1.367 . S
C959 C958 1.367 . S
C959 C961 1.433 . S
C960 C956 1.350 . S
C960 C957 1.463 . S
C960 N964 1.427 . S
C961 H951 0.929 . S
C961 C959 1.433 . S
C961 N964 1.384 . S
C962 H953 0.929 1_655 S
C962 C954 1.378 1_655 S
C962 C957 1.350 . S
C963 H950 0.929 . S
C963 C955 1.433 . S
C963 N965 1.384 . S
N964 C960 1.427 . S
N964 C961 1.384 . S
N965 C957 1.427 . S
N965 C963 1.384 . S
H966 C972 0.930 . S
H967 C976 0.930 . S
H968 C981 0.929 . S
H969 C979 0.929 . S
H970 C974 0.929 . S
H971 C980 0.929 . S
C972 H966 0.930 . S
C972 C973 1.367 . S
C972 C980 1.378 . S
C973 C972 1.367 . S
C973 C981 1.433 . S
C974 H970 0.929 . S
C974 C976 1.378 . S
C974 C978 1.350 . S
C975 C978 1.463 . S
C975 C980 1.350 . S
C975 N983 1.427 . S
C976 H967 0.930 . S
C976 C974 1.378 . S
C976 C977 1.367 . S
C977 C976 1.367 . S
C977 C979 1.433 . S
C978 C974 1.350 . S
C978 C975 1.463 . S
C978 N982 1.427 . S
C979 H969 0.929 . S
C979 C977 1.433 . S
C979 N982 1.384 . S
C980 H971 0.929 . S
C980 C972 1.378 . S
C980 C975 1.350 . S
C981 H968 0.929 . S
C981 C973 1.433 . S
C981 N983 1.384 . S
N982 C978 1.427 . S
N982 C979 1.384 . S
N983 C975 1.427 . S
N983 C981 1.384 . S
H984 C990 0.930 . S
H985 C994 0.930 . S
H986 C999 0.929 . S
H987 C997 0.929 . S
H988 C992 0.929 . S
H989 C998 0.929 . S
C990 H984 0.930 . S
C990 C991 1.367 . S
C990 C998 1.378 . S
C991 C990 1.367 . S
C991 C999 1.433 . S
C992 H988 0.929 . S
C992 C994 1.378 . S
C992 C996 1.350 . S
C993 C996 1.463 . S
C993 C998 1.350 . S
C993 N1001 1.427 . S
C994 H985 0.930 . S
C994 C992 1.378 . S
C994 C995 1.367 . S
C995 C994 1.367 . S
C995 C997 1.433 . S
C996 C992 1.350 . S
C996 C993 1.463 . S
C996 N1000 1.427 . S
C997 H987 0.929 . S
C997 C995 1.433 . S
C997 N1000 1.384 . S
C998 H989 0.929 . S
C998 C990 1.378 . S
C998 C993 1.350 . S
C999 H986 0.929 . S
C999 C991 1.433 . S
C999 N1001 1.384 . S
N1000 C996 1.427 . S
N1000 C997 1.384 . S
N1001 C993 1.427 . S
N1001 C999 1.384 . S
H1002 C1008 0.930 . S
H1003 C1012 0.930 . S
H1004 C1017 0.929 . S
H1005 C1015 0.929 . S
H1006 C1010 0.929 . S
H1007 C1016 0.929 . S
C1008 H1002 0.930 . S
C1008 C1009 1.367 . S
C1008 C1016 1.378 . S
C1009 C1008 1.367 . S
C1009 C1017 1.433 . S
C1010 H1006 0.929 . S
C1010 C1012 1.378 . S
C1010 C1014 1.350 . S
C1011 C1014 1.463 . S
C1011 C1016 1.350 . S
C1011 N1019 1.427 . S
C1012 H1003 0.930 . S
C1012 C1010 1.378 . S
C1012 C1013 1.367 . S
C1013 C1012 1.367 . S
C1013 C1015 1.433 . S
C1014 C1010 1.350 . S
C1014 C1011 1.463 . S
C1014 N1018 1.427 . S
C1015 H1005 0.929 . S
C1015 C1013 1.433 . S
C1015 N1018 1.384 . S
C1016 H1007 0.929 . S
C1016 C1008 1.378 . S
C1016 C1011 1.350 . S
C1017 H1004 0.929 . S
C1017 C1009 1.433 . S
C1017 N1019 1.384 . S
N1018 C1014 1.427 . S
N1018 C1015 1.384 . S
N1019 C1011 1.427 . S
N1019 C1017 1.384 . S
H1020 C1026 0.930 . S
H1021 C1030 0.930 . S
H1022 C1035 0.929 . S
H1023 C1033 0.929 . S
H1024 C1028 0.929 . S
H1025 C1034 0.929 . S
C1026 H1020 0.930 . S
C1026 C1027 1.367 . S
C1026 C1034 1.378 1_655 S
C1027 C1026 1.367 . S
C1027 C1035 1.433 . S
C1028 H1024 0.929 . S
C1028 C1030 1.378 . S
C1028 C1032 1.350 . S
C1029 C1032 1.463 . S
C1029 C1034 1.350 . S
C1029 N1037 1.427 . S
C1030 H1021 0.930 . S
C1030 C1028 1.378 . S
C1030 C1031 1.367 . S
C1031 C1030 1.367 . S
C1031 C1033 1.433 . S
C1032 C1028 1.350 . S
C1032 C1029 1.463 . S
C1032 N1036 1.427 . S
C1033 H1023 0.929 . S
C1033 C1031 1.433 . S
C1033 N1036 1.384 . S
C1034 H1025 0.929 . S
C1034 C1026 1.378 1_455 S
C1034 C1029 1.350 . S
C1035 H1022 0.929 . S
C1035 C1027 1.433 . S
C1035 N1037 1.384 1_655 S
N1036 C1032 1.427 . S
N1036 C1033 1.384 . S
N1037 C1029 1.427 . S
N1037 C1035 1.384 1_455 S
H1038 C1044 0.930 . S
H1039 C1048 0.930 . S
H1040 C1053 0.929 . S
H1041 C1051 0.929 . S
H1042 C1046 0.929 . S
H1043 C1052 0.929 . S
C1044 H1038 0.930 . S
C1044 C1045 1.367 . S
C1044 C1052 1.378 . S
C1045 C1044 1.367 . S
C1045 C1053 1.433 . S
C1046 H1042 0.929 . S
C1046 C1048 1.378 . S
C1046 C1050 1.350 . S
C1047 C1050 1.463 . S
C1047 C1052 1.350 . S
C1047 N1055 1.427 . S
C1048 H1039 0.930 . S
C1048 C1046 1.378 . S
C1048 C1049 1.367 . S
C1049 C1048 1.367 . S
C1049 C1051 1.433 . S
C1050 C1046 1.350 . S
C1050 C1047 1.463 . S
C1050 N1054 1.427 . S
C1051 H1041 0.929 . S
C1051 C1049 1.433 . S
C1051 N1054 1.384 . S
C1052 H1043 0.929 . S
C1052 C1044 1.378 . S
C1052 C1047 1.350 . S
C1053 H1040 0.929 . S
C1053 C1045 1.433 . S
C1053 N1055 1.384 . S
N1054 C1050 1.427 . S
N1054 C1051 1.384 . S
N1055 C1047 1.427 . S
N1055 C1053 1.384 . S
H1056 C1062 0.930 . S
H1057 C1066 0.930 . S
H1058 C1071 0.929 . S
H1059 C1069 0.929 . S
H1060 C1064 0.929 . S
H1061 C1070 0.929 . S
C1062 H1056 0.930 . S
C1062 C1063 1.367 . S
C1062 C1070 1.378 . S
C1063 C1062 1.367 . S
C1063 C1071 1.433 . S
C1064 H1060 0.929 . S
C1064 C1066 1.378 . S
C1064 C1068 1.350 . S
C1065 C1068 1.463 . S
C1065 C1070 1.350 . S
C1065 N1073 1.427 . S
C1066 H1057 0.930 . S
C1066 C1064 1.378 . S
C1066 C1067 1.367 . S
C1067 C1066 1.367 . S
C1067 C1069 1.433 . S
C1068 C1064 1.350 . S
C1068 C1065 1.463 . S
C1068 N1072 1.427 . S
C1069 H1059 0.929 . S
C1069 C1067 1.433 . S
C1069 N1072 1.384 . S
C1070 H1061 0.929 . S
C1070 C1062 1.378 . S
C1070 C1065 1.350 . S
C1071 H1058 0.929 . S
C1071 C1063 1.433 . S
C1071 N1073 1.384 . S
N1072 C1068 1.427 . S
N1072 C1069 1.384 . S
N1073 C1065 1.427 . S
N1073 C1071 1.384 . S
H1074 C1080 0.930 . S
H1075 C1084 0.930 . S
H1076 C1089 0.929 . S
H1077 C1087 0.929 . S
H1078 C1082 0.929 . S
H1079 C1088 0.929 . S
C1080 H1074 0.930 . S
C1080 C1081 1.367 . S
C1080 C1088 1.378 . S
C1081 C1080 1.367 . S
C1081 C1089 1.433 . S
C1082 H1078 0.929 . S
C1082 C1084 1.378 . S
C1082 C1086 1.350 . S
C1083 C1086 1.463 . S
C1083 C1088 1.350 . S
C1083 N1091 1.427 . S
C1084 H1075 0.930 . S
C1084 C1082 1.378 . S
C1084 C1085 1.367 . S
C1085 C1084 1.367 . S
C1085 C1087 1.433 . S
C1086 C1082 1.350 . S
C1086 C1083 1.463 . S
C1086 N1090 1.427 . S
C1087 H1077 0.929 . S
C1087 C1085 1.433 . S
C1087 N1090 1.384 . S
C1088 H1079 0.929 . S
C1088 C1080 1.378 . S
C1088 C1083 1.350 . S
C1089 H1076 0.929 . S
C1089 C1081 1.433 . S
C1089 N1091 1.384 . S
N1090 C1086 1.427 . S
N1090 C1087 1.384 . S
N1091 C1083 1.427 . S
N1091 C1089 1.384 . S
H1092 C1098 0.930 . S
H1093 C1102 0.930 . S
H1094 C1107 0.929 . S
H1095 C1105 0.929 . S
H1096 C1100 0.929 . S
H1097 C1106 0.929 . S
C1098 H1092 0.930 . S
C1098 C1099 1.367 1_455 S
C1098 C1106 1.378 . S
C1099 C1098 1.367 1_655 S
C1099 C1107 1.433 . S
C1100 H1096 0.929 . S
C1100 C1102 1.378 . S
C1100 C1104 1.350 . S
C1101 C1104 1.463 . S
C1101 C1106 1.350 . S
C1101 N1109 1.427 . S
C1102 H1093 0.930 . S
C1102 C1100 1.378 . S
C1102 C1103 1.367 . S
C1103 C1102 1.367 . S
C1103 C1105 1.433 . S
C1104 C1100 1.350 . S
C1104 C1101 1.463 . S
C1104 N1108 1.427 . S
C1105 H1095 0.929 . S
C1105 C1103 1.433 . S
C1105 N1108 1.384 . S
C1106 H1097 0.929 . S
C1106 C1098 1.378 . S
C1106 C1101 1.350 . S
C1107 H1094 0.929 . S
C1107 C1099 1.433 . S
C1107 N1109 1.384 1_655 S
N1108 C1104 1.427 . S
N1108 C1105 1.384 . S
N1109 C1101 1.427 . S
N1109 C1107 1.384 1_455 S
H1110 C1116 0.930 . S
H1111 C1120 0.930 . S
H1112 C1125 0.929 . S
H1113 C1123 0.929 . S
H1114 C1118 0.929 . S
H1115 C1124 0.929 . S
C1116 H1110 0.930 . S
C1116 C1117 1.367 . S
C1116 C1124 1.378 . S
C1117 C1116 1.367 . S
C1117 C1125 1.433 . S
C1118 H1114 0.929 . S
C1118 C1120 1.378 . S
C1118 C1122 1.350 . S
C1119 C1122 1.463 . S
C1119 C1124 1.350 . S
C1119 N1127 1.427 . S
C1120 H1111 0.930 . S
C1120 C1118 1.378 . S
C1120 C1121 1.367 . S
C1121 C1120 1.367 . S
C1121 C1123 1.433 . S
C1122 C1118 1.350 . S
C1122 C1119 1.463 . S
C1122 N1126 1.427 . S
C1123 H1113 0.929 . S
C1123 C1121 1.433 . S
C1123 N1126 1.384 . S
C1124 H1115 0.929 . S
C1124 C1116 1.378 . S
C1124 C1119 1.350 . S
C1125 H1112 0.929 . S
C1125 C1117 1.433 . S
C1125 N1127 1.384 . S
N1126 C1122 1.427 . S
N1126 C1123 1.384 . S
N1127 C1119 1.427 . S
N1127 C1125 1.384 . S
H1128 C1134 0.930 . S
H1129 C1138 0.930 . S
H1130 C1143 0.929 . S
H1131 C1141 0.929 . S
H1132 C1136 0.929 . S
H1133 C1142 0.929 . S
C1134 H1128 0.930 . S
C1134 C1135 1.367 . S
C1134 C1142 1.378 . S
C1135 C1134 1.367 . S
C1135 C1143 1.433 . S
C1136 H1132 0.929 . S
C1136 C1138 1.378 . S
C1136 C1140 1.350 . S
C1137 C1140 1.463 . S
C1137 C1142 1.350 . S
C1137 N1145 1.427 . S
C1138 H1129 0.930 . S
C1138 C1136 1.378 . S
C1138 C1139 1.367 . S
C1139 C1138 1.367 . S
C1139 C1141 1.433 . S
C1140 C1136 1.350 . S
C1140 C1137 1.463 . S
C1140 N1144 1.427 . S
C1141 H1131 0.929 . S
C1141 C1139 1.433 . S
C1141 N1144 1.384 . S
C1142 H1133 0.929 . S
C1142 C1134 1.378 . S
C1142 C1137 1.350 . S
C1143 H1130 0.929 . S
C1143 C1135 1.433 . S
C1143 N1145 1.384 . S
N1144 C1140 1.427 . S
N1144 C1141 1.384 . S
N1145 C1137 1.427 . S
N1145 C1143 1.384 . S
H1146 C1152 0.930 . S
H1147 C1156 0.930 . S
H1148 C1161 0.929 . S
H1149 C1159 0.929 . S
H1150 C1154 0.929 . S
H1151 C1160 0.929 . S
C1152 H1146 0.930 . S
C1152 C1153 1.367 . S
C1152 C1160 1.378 1_565 S
C1153 C1152 1.367 . S
C1153 C1161 1.433 . S
C1154 H1150 0.929 . S
C1154 C1156 1.378 . S
C1154 C1158 1.350 . S
C1155 C1158 1.463 . S
C1155 C1160 1.350 . S
C1155 N1163 1.427 . S
C1156 H1147 0.930 . S
C1156 C1154 1.378 . S
C1156 C1157 1.367 . S
C1157 C1156 1.367 . S
C1157 C1159 1.433 . S
C1158 C1154 1.350 . S
C1158 C1155 1.463 . S
C1158 N1162 1.427 . S
C1159 H1149 0.929 . S
C1159 C1157 1.433 . S
C1159 N1162 1.384 . S
C1160 H1151 0.929 . S
C1160 C1152 1.378 1_545 S
C1160 C1155 1.350 . S
C1161 H1148 0.929 . S
C1161 C1153 1.433 . S
C1161 N1163 1.384 1_565 S
N1162 C1158 1.427 . S
N1162 C1159 1.384 . S
N1163 C1155 1.427 . S
N1163 C1161 1.384 1_545 S
H1164 C1170 0.930 . S
H1165 C1174 0.930 . S
H1166 C1179 0.929 . S
H1167 C1177 0.929 . S
H1168 C1172 0.929 . S
H1169 C1178 0.929 . S
C1170 H1164 0.930 . S
C1170 C1171 1.367 . S
C1170 C1178 1.378 . S
C1171 C1170 1.367 . S
C1171 C1179 1.433 . S
C1172 H1168 0.929 . S
C1172 C1174 1.378 . S
C1172 C1176 1.350 . S
C1173 C1176 1.463 . S
C1173 C1178 1.350 . S
C1173 N1181 1.427 . S
C1174 H1165 0.930 . S
C1174 C1172 1.378 . S
C1174 C1175 1.367 . S
C1175 C1174 1.367 . S
C1175 C1177 1.433 . S
C1176 C1172 1.350 . S
C1176 C1173 1.463 . S
C1176 N1180 1.427 . S
C1177 H1167 0.929 . S
C1177 C1175 1.433 . S
C1177 N1180 1.384 . S
C1178 H1169 0.929 . S
C1178 C1170 1.378 . S
C1178 C1173 1.350 . S
C1179 H1166 0.929 . S
C1179 C1171 1.433 . S
C1179 N1181 1.384 . S
N1180 C1176 1.427 . S
N1180 C1177 1.384 . S
N1181 C1173 1.427 . S
N1181 C1179 1.384 . S
H1182 C1188 0.930 . S
H1183 C1192 0.930 1_554 S
H1184 C1197 0.929 . S
H1185 C1195 0.929 . S
H1186 C1190 0.929 1_554 S
H1187 C1196 0.929 . S
C1188 H1182 0.930 . S
C1188 C1189 1.367 . S
C1188 C1196 1.378 1_545 S
C1189 C1188 1.367 . S
C1189 C1197 1.433 1_556 S
C1190 H1186 0.929 1_556 S
C1190 C1192 1.378 . S
C1190 C1194 1.350 . S
C1191 C1194 1.463 . S
C1191 C1196 1.350 . S
C1191 N1199 1.427 1_556 S
C1192 H1183 0.930 1_556 S
C1192 C1190 1.378 . S
C1192 C1193 1.367 . S
C1193 C1192 1.367 . S
C1193 C1195 1.433 . S
C1194 C1190 1.350 . S
C1194 C1191 1.463 . S
C1194 N1198 1.427 . S
C1195 H1185 0.929 . S
C1195 C1193 1.433 . S
C1195 N1198 1.384 . S
C1196 H1187 0.929 . S
C1196 C1188 1.378 1_565 S
C1196 C1191 1.350 . S
C1197 H1184 0.929 . S
C1197 C1189 1.433 1_554 S
C1197 N1199 1.384 1_545 S
N1198 C1194 1.427 . S
N1198 C1195 1.384 . S
N1199 C1191 1.427 1_554 S
N1199 C1197 1.384 1_565 S
H1200 C1206 0.930 . S
H1201 C1210 0.930 . S
H1202 C1215 0.929 . S
H1203 C1213 0.929 . S
H1204 C1208 0.929 . S
H1205 C1214 0.929 . S
C1206 H1200 0.930 . S
C1206 C1207 1.367 . S
C1206 C1214 1.378 . S
C1207 C1206 1.367 . S
C1207 C1215 1.433 . S
C1208 H1204 0.929 . S
C1208 C1210 1.378 . S
C1208 C1212 1.350 . S
C1209 C1212 1.463 . S
C1209 C1214 1.350 . S
C1209 N1217 1.427 . S
C1210 H1201 0.930 . S
C1210 C1208 1.378 . S
C1210 C1211 1.367 . S
C1211 C1210 1.367 . S
C1211 C1213 1.433 . S
C1212 C1208 1.350 . S
C1212 C1209 1.463 . S
C1212 N1216 1.427 . S
C1213 H1203 0.929 . S
C1213 C1211 1.433 . S
C1213 N1216 1.384 . S
C1214 H1205 0.929 . S
C1214 C1206 1.378 . S
C1214 C1209 1.350 . S
C1215 H1202 0.929 . S
C1215 C1207 1.433 . S
C1215 N1217 1.384 . S
N1216 C1212 1.427 . S
N1216 C1213 1.384 . S
N1217 C1209 1.427 . S
N1217 C1215 1.384 . S
H1218 C1224 0.930 . S
H1219 C1228 0.930 . S
H1220 C1233 0.929 . S
H1221 C1231 0.929 . S
H1222 C1226 0.929 1_556 S
H1223 C1232 0.929 . S
C1224 H1218 0.930 . S
C1224 C1225 1.367 . S
C1224 C1232 1.378 . S
C1225 C1224 1.367 . S
C1225 C1233 1.433 1_554 S
C1226 H1222 0.929 1_554 S
C1226 C1228 1.378 . S
C1226 C1230 1.350 . S
C1227 C1230 1.463 . S
C1227 C1232 1.350 . S
C1227 N1235 1.448 . S
C1228 H1219 0.930 . S
C1228 C1226 1.378 . S
C1228 C1229 1.367 . S
C1229 C1228 1.367 . S
C1229 C1231 1.433 . S
C1230 C1226 1.350 . S
C1230 C1227 1.463 . S
C1230 N1234 1.427 . S
C1231 H1221 0.929 . S
C1231 C1229 1.433 . S
C1231 N1234 1.384 . S
C1232 H1223 0.929 . S
C1232 C1224 1.378 . S
C1232 C1227 1.350 . S
C1233 H1220 0.929 . S
C1233 C1225 1.433 1_556 S
C1233 N1235 1.379 1_556 S
N1234 C1230 1.427 . S
N1234 C1231 1.384 . S
N1235 C1227 1.448 . S
N1235 C1233 1.379 1_554 S
H1236 C1242 0.930 . S
H1237 C1246 0.930 . S
H1238 C1251 0.929 . S
H1239 C1249 0.929 . S
H1240 C1244 0.929 . S
H1241 C1250 0.929 . S
C1242 H1236 0.930 . S
C1242 C1243 1.367 . S
C1242 C1250 1.378 . S
C1243 C1242 1.367 . S
C1243 C1251 1.433 . S
C1244 H1240 0.929 . S
C1244 C1246 1.378 . S
C1244 C1248 1.350 . S
C1245 C1248 1.463 . S
C1245 C1250 1.350 . S
C1245 N1253 1.427 . S
C1246 H1237 0.930 . S
C1246 C1244 1.378 . S
C1246 C1247 1.367 . S
C1247 C1246 1.367 . S
C1247 C1249 1.433 . S
C1248 C1244 1.350 . S
C1248 C1245 1.463 . S
C1248 N1252 1.427 . S
C1249 H1239 0.929 . S
C1249 C1247 1.433 . S
C1249 N1252 1.384 . S
C1250 H1241 0.929 . S
C1250 C1242 1.378 . S
C1250 C1245 1.350 . S
C1251 H1238 0.929 . S
C1251 C1243 1.433 . S
C1251 N1253 1.384 . S
N1252 C1248 1.427 . S
N1252 C1249 1.384 . S
N1253 C1245 1.427 . S
N1253 C1251 1.384 . S
H1254 C1260 0.930 . S
H1255 C1264 0.930 . S
H1256 C1269 0.929 . S
H1257 C1267 0.929 . S
H1258 C1262 0.929 . S
H1259 C1268 0.929 . S
C1260 H1254 0.930 . S
C1260 C1261 1.367 . S
C1260 C1268 1.378 . S
C1261 C1260 1.367 . S
C1261 C1269 1.433 . S
C1262 H1258 0.929 . S
C1262 C1264 1.378 . S
C1262 C1266 1.350 . S
C1263 C1266 1.463 . S
C1263 C1268 1.350 . S
C1263 N1271 1.427 . S
C1264 H1255 0.930 . S
C1264 C1262 1.378 . S
C1264 C1265 1.367 . S
C1265 C1264 1.367 . S
C1265 C1267 1.433 . S
C1266 C1262 1.350 . S
C1266 C1263 1.463 . S
C1266 N1270 1.427 . S
C1267 H1257 0.929 . S
C1267 C1265 1.433 . S
C1267 N1270 1.384 . S
C1268 H1259 0.929 . S
C1268 C1260 1.378 . S
C1268 C1263 1.350 . S
C1269 H1256 0.929 . S
C1269 C1261 1.433 . S
C1269 N1271 1.384 . S
N1270 C1266 1.427 . S
N1270 C1267 1.384 . S
N1271 C1263 1.427 . S
N1271 C1269 1.384 . S
C419 C404 1.150 . S
C415 C5 1.256 . S
C433 C16 1.260 . S
C437 C333 1.114 . S
C451 C36 1.247 . S
C455 C362 1.145 . S
C473 C375 1.090 . S
C469 C49 1.255 . S
C487 C23 1.243 . S
C491 C396 1.077 . S
C509 C341 1.151 . S
C505 C29 1.269 . S
C527 C354 1.063 . S
C523 C42 1.245 . S
C545 C383 1.168 . S
C541 C4 1.253 . S
C559 C55 1.248 . S
C563 C385 1.108 . S
C581 C399 1.169 . S
C577 C69 1.253 . S
C599 C343 1.111 . S
C595 C83 1.242 . S
C617 C357 1.165 . S
C613 C101 1.256 . S
C631 C57 1.245 . S
C635 C336 1.130 . S
C649 C75 1.254 . S
C653 C364 1.104 . S
C667 C81 1.245 . S
C671 C378 1.145 . S
C689 C406 1.134 . S
C685 C95 1.262 . S
C707 C215 1.118 . S
C703 C96 1.248 . S
C725 C196 1.070 . S
C721 C107 1.228 . S
C743 C210 1.163 . S
C739 C121 1.247 . S
C761 C231 1.144 . S
C757 C133 1.240 . S
C775 C62 1.254 . S
C779 C217 1.119 . S
C793 C68 1.252 . S
C797 C168 1.127 . S
C811 C127 1.272 . S
C815 C228 1.104 . S
C829 C147 1.266 . S
C833 C194 1.154 . S
C851 C257 1.142 . S
C847 C30 1.245 . S
C869 C270 1.085 . S
C865 C43 1.245 . S
C883 C3 1.257 . S
C887 C299 1.130 . S
C901 C18 1.256 . S
C905 C312 1.077 . S
C923 C249 1.097 . S
C919 C44 1.250 . S
C941 C278 1.146 . S
C937 C10 1.261 . S
C955 C17 1.238 . S
C959 C291 1.065 . S
C977 C320 1.159 . S
C973 C31 1.256 . S
C991 C146 1.254 . S
C995 C322 1.097 . S
C1009 C114 1.246 . S
C1013 C252 1.151 . S
C1031 C280 1.110 . S
C1027 C122 1.247 . S
C1045 C140 1.253 . S
C1049 C294 1.165 . S
C1067 C273 1.157 . S
C1063 C148 1.248 . S
C1081 C108 1.244 . S
C1085 C301 1.117 . S
C1103 C315 1.148 . S
C1099 C120 1.246 . S
C1121 C259 1.096 . S
C1117 C134 1.249 . S
C1139 C175 1.079 . S
C1135 C135 1.250 . S
C1157 C238 1.105 . S
C1153 C70 1.265 . S
C1171 C82 1.248 . S
C1175 C165 1.090 . S
C1193 C189 1.164 . S
C1189 C94 1.249 . S
C1211 C173 1.160 . S
C1207 C153 1.251 . S
C1225 C109 1.249 . S
C1229 C207 1.094 . S
C1243 C88 1.233 . S
C1247 C186 1.091 . S
C1261 C56 1.237 . S
C1265 C236 1.162 . S
