# Generated by pormake.
# Topology ctn, (3,4)-cn, num edge types: 1
# Building blocks:
#     Node 0, Type 0, BuildingBlock: PAMTOO_clean_linker_0, # of connection points: 3
#     Node 1, Type 0, BuildingBlock: PAMTOO_clean_linker_0, # of connection points: 3
#     Node 2, Type 0, BuildingBlock: PAMTOO_clean_linker_0, # of connection points: 3
#     Node 3, Type 0, BuildingBlock: PAMTOO_clean_linker_0, # of connection points: 3
#     Node 4, Type 0, BuildingBlock: PAMTOO_clean_linker_0, # of connection points: 3
#     Node 5, Type 0, BuildingBlock: PAMTOO_clean_linker_0, # of connection points: 3
#     Node 6, Type 0, BuildingBlock: PAMTOO_clean_linker_0, # of connection points: 3
#     Node 7, Type 0, BuildingBlock: PAMTOO_clean_linker_0, # of connection points: 3
#     Node 8, Type 0, BuildingBlock: PAMTOO_clean_linker_0, # of connection points: 3
#     Node 9, Type 0, BuildingBlock: PAMTOO_clean_linker_0, # of connection points: 3
#     Node 10, Type 0, BuildingBlock: PAMTOO_clean_linker_0, # of connection points: 3
#     Node 11, Type 0, BuildingBlock: PAMTOO_clean_linker_0, # of connection points: 3
#     Node 12, Type 0, BuildingBlock: PAMTOO_clean_linker_0, # of connection points: 3
#     Node 13, Type 0, BuildingBlock: PAMTOO_clean_linker_0, # of connection points: 3
#     Node 14, Type 0, BuildingBlock: PAMTOO_clean_linker_0, # of connection points: 3
#     Node 15, Type 0, BuildingBlock: PAMTOO_clean_linker_0, # of connection points: 3
#     Node 16, Type 1, BuildingBlock: TATPOV_clean_sbu_0, # of connection points: 4
#     Node 17, Type 1, BuildingBlock: TATPOV_clean_sbu_0, # of connection points: 4
#     Node 18, Type 1, BuildingBlock: TATPOV_clean_sbu_0, # of connection points: 4
#     Node 19, Type 1, BuildingBlock: TATPOV_clean_sbu_0, # of connection points: 4
#     Node 20, Type 1, BuildingBlock: TATPOV_clean_sbu_0, # of connection points: 4
#     Node 21, Type 1, BuildingBlock: TATPOV_clean_sbu_0, # of connection points: 4
#     Node 22, Type 1, BuildingBlock: TATPOV_clean_sbu_0, # of connection points: 4
#     Node 23, Type 1, BuildingBlock: TATPOV_clean_sbu_0, # of connection points: 4
#     Node 24, Type 1, BuildingBlock: TATPOV_clean_sbu_0, # of connection points: 4
#     Node 25, Type 1, BuildingBlock: TATPOV_clean_sbu_0, # of connection points: 4
#     Node 26, Type 1, BuildingBlock: TATPOV_clean_sbu_0, # of connection points: 4
#     Node 27, Type 1, BuildingBlock: TATPOV_clean_sbu_0, # of connection points: 4
#     Edge 28, Type (0, 1), BuildingBlock: KIFKEQ_clean_linker_1, # of connection points: 2
#     Edge 29, Type (0, 1), BuildingBlock: KIFKEQ_clean_linker_1, # of connection points: 2
#     Edge 30, Type (0, 1), BuildingBlock: KIFKEQ_clean_linker_1, # of connection points: 2
#     Edge 31, Type (0, 1), BuildingBlock: KIFKEQ_clean_linker_1, # of connection points: 2
#     Edge 32, Type (0, 1), BuildingBlock: KIFKEQ_clean_linker_1, # of connection points: 2
#     Edge 33, Type (0, 1), BuildingBlock: KIFKEQ_clean_linker_1, # of connection points: 2
#     Edge 34, Type (0, 1), BuildingBlock: KIFKEQ_clean_linker_1, # of connection points: 2
#     Edge 35, Type (0, 1), BuildingBlock: KIFKEQ_clean_linker_1, # of connection points: 2
#     Edge 36, Type (0, 1), BuildingBlock: KIFKEQ_clean_linker_1, # of connection points: 2
#     Edge 37, Type (0, 1), BuildingBlock: KIFKEQ_clean_linker_1, # of connection points: 2
#     Edge 38, Type (0, 1), BuildingBlock: KIFKEQ_clean_linker_1, # of connection points: 2
#     Edge 39, Type (0, 1), BuildingBlock: KIFKEQ_clean_linker_1, # of connection points: 2
#     Edge 40, Type (0, 1), BuildingBlock: KIFKEQ_clean_linker_1, # of connection points: 2
#     Edge 41, Type (0, 1), BuildingBlock: KIFKEQ_clean_linker_1, # of connection points: 2
#     Edge 42, Type (0, 1), BuildingBlock: KIFKEQ_clean_linker_1, # of connection points: 2
#     Edge 43, Type (0, 1), BuildingBlock: KIFKEQ_clean_linker_1, # of connection points: 2
#     Edge 44, Type (0, 1), BuildingBlock: KIFKEQ_clean_linker_1, # of connection points: 2
#     Edge 45, Type (0, 1), BuildingBlock: KIFKEQ_clean_linker_1, # of connection points: 2
#     Edge 46, Type (0, 1), BuildingBlock: KIFKEQ_clean_linker_1, # of connection points: 2
#     Edge 47, Type (0, 1), BuildingBlock: KIFKEQ_clean_linker_1, # of connection points: 2
#     Edge 48, Type (0, 1), BuildingBlock: KIFKEQ_clean_linker_1, # of connection points: 2
#     Edge 49, Type (0, 1), BuildingBlock: KIFKEQ_clean_linker_1, # of connection points: 2
#     Edge 50, Type (0, 1), BuildingBlock: KIFKEQ_clean_linker_1, # of connection points: 2
#     Edge 51, Type (0, 1), BuildingBlock: KIFKEQ_clean_linker_1, # of connection points: 2
#     Edge 52, Type (0, 1), BuildingBlock: KIFKEQ_clean_linker_1, # of connection points: 2
#     Edge 53, Type (0, 1), BuildingBlock: KIFKEQ_clean_linker_1, # of connection points: 2
#     Edge 54, Type (0, 1), BuildingBlock: KIFKEQ_clean_linker_1, # of connection points: 2
#     Edge 55, Type (0, 1), BuildingBlock: KIFKEQ_clean_linker_1, # of connection points: 2
#     Edge 56, Type (0, 1), BuildingBlock: KIFKEQ_clean_linker_1, # of connection points: 2
#     Edge 57, Type (0, 1), BuildingBlock: KIFKEQ_clean_linker_1, # of connection points: 2
#     Edge 58, Type (0, 1), BuildingBlock: KIFKEQ_clean_linker_1, # of connection points: 2
#     Edge 59, Type (0, 1), BuildingBlock: KIFKEQ_clean_linker_1, # of connection points: 2
#     Edge 60, Type (0, 1), BuildingBlock: KIFKEQ_clean_linker_1, # of connection points: 2
#     Edge 61, Type (0, 1), BuildingBlock: KIFKEQ_clean_linker_1, # of connection points: 2
#     Edge 62, Type (0, 1), BuildingBlock: KIFKEQ_clean_linker_1, # of connection points: 2
#     Edge 63, Type (0, 1), BuildingBlock: KIFKEQ_clean_linker_1, # of connection points: 2
#     Edge 64, Type (0, 1), BuildingBlock: KIFKEQ_clean_linker_1, # of connection points: 2
#     Edge 65, Type (0, 1), BuildingBlock: KIFKEQ_clean_linker_1, # of connection points: 2
#     Edge 66, Type (0, 1), BuildingBlock: KIFKEQ_clean_linker_1, # of connection points: 2
#     Edge 67, Type (0, 1), BuildingBlock: KIFKEQ_clean_linker_1, # of connection points: 2
#     Edge 68, Type (0, 1), BuildingBlock: KIFKEQ_clean_linker_1, # of connection points: 2
#     Edge 69, Type (0, 1), BuildingBlock: KIFKEQ_clean_linker_1, # of connection points: 2
#     Edge 70, Type (0, 1), BuildingBlock: KIFKEQ_clean_linker_1, # of connection points: 2
#     Edge 71, Type (0, 1), BuildingBlock: KIFKEQ_clean_linker_1, # of connection points: 2
#     Edge 72, Type (0, 1), BuildingBlock: KIFKEQ_clean_linker_1, # of connection points: 2
#     Edge 73, Type (0, 1), BuildingBlock: KIFKEQ_clean_linker_1, # of connection points: 2
#     Edge 74, Type (0, 1), BuildingBlock: KIFKEQ_clean_linker_1, # of connection points: 2
#     Edge 75, Type (0, 1), BuildingBlock: KIFKEQ_clean_linker_1, # of connection points: 2
# Relax obj value: 0.068
# Max RMSD: 0.184
# Mean RMSD: 0.117
data_MOF--net-ctn--node1-TATPOV_clean_sbu_0--node2-PAMTOO_clean_linker_0--edge1-KIFKEQ_clean_linker_1
_symmetry_space_group_name_H-M    P1
_symmetry_Int_Tables_number       1
_symmetry_cell_setting            triclinic
loop_
_symmetry_equiv_pos_as_xyz
'x, y, z'
_cell_length_a     54.236394
_cell_length_b     54.613273
_cell_length_c     55.488728
_cell_angle_alpha  86.214104
_cell_angle_beta   93.561075
_cell_angle_gamma 98.531254
loop_
_atom_site_label
_atom_site_type_symbol
_atom_site_fract_x
_atom_site_fract_y
_atom_site_fract_z
_atom_type_partial_charge
H0 H 1.00065 0.07525 0.05103 0.0
H1 H 0.03459 0.01134 0.07723 0.0
H2 H 0.05786 0.05128 0.01151 0.0
H3 H 0.04685 0.99573 0.01257 0.0
C4 C 0.05757 0.99184 0.02983 0.0
O5 O 0.06443 0.01362 0.0415 0.0
H6 H 0.04526 0.97851 0.04141 0.0
C7 C 0.01392 0.06259 0.04916 0.0
C8 C 0.02911 0.06595 0.02915 0.0
C9 C 0.01556 0.04292 0.06668 0.0
C10 C 0.03282 0.02652 0.06395 0.0
C11 C 0.04802 0.02961 0.0441 0.0
C12 C 0.0462 0.04931 0.02688 0.0
H13 H 0.30049 0.68003 0.28232 0.0
H14 H 0.24887 0.69901 0.22429 0.0
H15 H 0.31568 0.74901 0.23969 0.0
H16 H 0.26888 0.77301 0.22658 0.0
C17 C 0.25966 0.75897 0.214 0.0
O18 O 0.27508 0.74137 0.21175 0.0
H19 H 0.24178 0.75007 0.22159 0.0
C20 C 0.29537 0.69267 0.2676 0.0
C21 C 0.31105 0.71519 0.2628 0.0
C22 C 0.27272 0.6867 0.25402 0.0
C23 C 0.26595 0.70345 0.23533 0.0
C24 C 0.28133 0.72591 0.23042 0.0
C25 C 0.30374 0.73177 0.2441 0.0
H26 H 0.98525 0.47258 0.1292 0.0
H27 H 0.97024 0.44329 0.05865 0.0
H28 H 0.0258 0.41633 0.10716 0.0
H29 H 0.03901 0.42587 0.05696 0.0
C30 C 0.02047 0.42044 0.04751 0.0
O31 O 0.00301 0.41265 0.06452 0.0
H32 H 0.01515 0.43688 0.03662 0.0
C33 C 0.9891 0.46037 0.11572 0.0
C34 C 0.00727 0.44459 0.12109 0.0
C35 C 0.97544 0.46009 0.0933 0.0
C36 C 0.98009 0.44358 0.07624 0.0
C37 C 0.99816 0.42787 0.08135 0.0
C38 C 0.01159 0.42832 0.10369 0.0
H39 H 0.72007 0.81686 0.25375 0.0
H40 H 0.70672 0.73923 0.24013 0.0
H41 H 0.76703 0.78694 0.20687 0.0
H42 H 0.72808 0.75284 0.17696 0.0
C43 C 0.73032 0.7357 0.18844 0.0
O44 O 0.74279 0.74173 0.21019 0.0
H45 H 0.71127 0.72592 0.19192 0.0
C46 C 0.7249 0.80127 0.24484 0.0
C47 C 0.74532 0.80488 0.22995 0.0
C48 C 0.71085 0.77773 0.24875 0.0
C49 C 0.71759 0.75745 0.23769 0.0
C50 C 0.73764 0.7609 0.22235 0.0
C51 C 0.75166 0.78448 0.2188 0.0
H52 H 0.10798 0.97632 0.50367 0.0
H53 H 0.04034 0.97116 0.45802 0.0
H54 H 0.10304 0.02503 0.43978 0.0
H55 H 0.05816 0.04349 0.4208 0.0
C56 C 0.04504 0.02652 0.4257 0.0
O57 O 0.05754 0.00618 0.42656 0.0
H58 H 0.03807 0.02875 0.4438 0.0
C59 C 0.09728 0.98296 0.4881 0.0
C60 C 0.10849 0.0024 0.47273 0.0
C61 C 0.07275 0.97134 0.483 0.0
C62 C 0.05937 0.97956 0.46223 0.0
C63 C 0.07041 0.99875 0.4467 0.0
C64 C 0.09489 0.01002 0.45187 0.0
H65 H 0.18658 0.78272 0.78809 0.0
H66 H 0.2086 0.73181 0.7404 0.0
H67 H 0.25017 0.74509 0.80756 0.0
H68 H 0.27973 0.73966 0.76505 0.0
C69 C 0.26665 0.72471 0.75638 0.0
O70 O 0.24524 0.71925 0.76913 0.0
H71 H 0.2618 0.73153 0.73759 0.0
C72 C 0.19946 0.77045 0.78384 0.0
C73 C 0.21904 0.76591 0.80068 0.0
C74 C 0.19559 0.75851 0.76193 0.0
C75 C 0.21133 0.74137 0.75707 0.0
C76 C 0.23089 0.73658 0.77356 0.0
C77 C 0.23481 0.74892 0.79517 0.0
H78 H 0.9241 0.57274 0.52497 0.0
H79 H 0.96207 0.53517 0.47551 0.0
H80 H 0.99943 0.60095 0.50693 0.0
H81 H 0.01991 0.59624 0.45963 0.0
C82 C 0.00939 0.57755 0.4566 0.0
O83 O 0.00366 0.56555 0.47868 0.0
H84 H 0.99193 0.57981 0.4455 0.0
C85 C 0.94018 0.57148 0.51472 0.0
C86 C 0.96143 0.5895 0.51722 0.0
C87 C 0.94016 0.55133 0.50009 0.0
C88 C 0.96158 0.55008 0.48733 0.0
C89 C 0.98283 0.56782 0.48998 0.0
C90 C 0.98284 0.58731 0.50505 0.0
H91 H 0.8096 0.82047 0.89931 0.0
H92 H 0.86956 0.79979 0.86108 0.0
H93 H 0.82864 0.85639 0.83009 0.0
H94 H 0.83378 0.81561 0.79948 0.0
C95 C 0.85303 0.81221 0.80546 0.0
O96 O 0.8625 0.82858 0.82285 0.0
H97 H 0.85201 0.79281 0.81326 0.0
C98 C 0.82161 0.82319 0.88417 0.0
C99 C 0.8175 0.84097 0.86537 0.0
C100 C 0.84041 0.80817 0.88288 0.0
C101 C 0.85523 0.81139 0.86268 0.0
C102 C 0.85076 0.82849 0.84365 0.0
C103 C 0.83232 0.8436 0.84521 0.0
H104 H 0.30797 0.32117 0.39146 0.0
H105 H 0.37152 0.30549 0.35496 0.0
H106 H 0.32994 0.36199 0.32544 0.0
H107 H 0.33591 0.32424 0.29297 0.0
C108 C 0.35465 0.31965 0.29936 0.0
O109 O 0.36427 0.33503 0.31754 0.0
H110 H 0.35239 0.29996 0.3065 0.0
C111 C 0.32099 0.32522 0.37721 0.0
C112 C 0.31751 0.3442 0.35944 0.0
C113 C 0.34045 0.3109 0.37598 0.0
C114 C 0.35645 0.31613 0.35666 0.0
C115 C 0.35221 0.33399 0.33827 0.0
C116 C 0.33329 0.34849 0.34003 0.0
H117 H 0.5 0.98572 0.62405 0.0
H118 H 0.47631 0.94986 0.55786 0.0
H119 H 0.52446 0.91668 0.60982 0.0
H120 H 0.54086 0.91576 0.56303 0.0
C121 C 0.52335 0.91694 0.55173 0.0
O122 O 0.50345 0.91436 0.56652 0.0
H123 H 0.52535 0.93551 0.54186 0.0
C124 C 0.49959 0.97023 0.61276 0.0
C125 C 0.51372 0.95111 0.6202 0.0
C126 C 0.48558 0.96999 0.59049 0.0
C127 C 0.48672 0.95066 0.57515 0.0
C128 C 0.50122 0.93195 0.58202 0.0
C129 C 0.51404 0.93182 0.60466 0.0
H130 H 0.21468 0.32055 0.74705 0.0
H131 H 0.2043 0.24339 0.73172 0.0
H132 H 0.26311 0.29393 0.69927 0.0
H133 H 0.22649 0.25933 0.66847 0.0
C134 C 0.22881 0.24209 0.67976 0.0
O135 O 0.24067 0.24802 0.70182 0.0
H136 H 0.20984 0.23185 0.68275 0.0
C137 C 0.22014 0.30554 0.7377 0.0
C138 C 0.24056 0.31032 0.72282 0.0
C139 C 0.20693 0.28153 0.74113 0.0
C140 C 0.21449 0.26196 0.72958 0.0
C141 C 0.23455 0.26656 0.71427 0.0
C142 C 0.24772 0.29061 0.71117 0.0
H143 H 0.79899 0.18062 0.78736 0.0
H144 H 0.74398 0.19856 0.73222 0.0
H145 H 0.81258 0.24772 0.7416 0.0
H146 H 0.76685 0.27148 0.73135 0.0
C147 C 0.75734 0.25874 0.7177 0.0
O148 O 0.77057 0.23927 0.71588 0.0
H149 H 0.73828 0.25148 0.72364 0.0
C150 C 0.79294 0.19311 0.77295 0.0
C151 C 0.80884 0.21497 0.76623 0.0
C152 C 0.76939 0.18707 0.76097 0.0
C153 C 0.76177 0.20316 0.74208 0.0
C154 C 0.77739 0.22487 0.73516 0.0
C155 C 0.80077 0.23078 0.7472 0.0
H156 H 0.50127 0.57225 0.54871 0.0
H157 H 0.53868 0.51183 0.57879 0.0
H158 H 0.56212 0.55077 0.5127 0.0
H159 H 0.55765 0.49678 0.51308 0.0
C160 C 0.56474 0.49273 0.53198 0.0
O161 O 0.5696 0.51441 0.54405 0.0
H162 H 0.5499 0.47971 0.54103 0.0
C163 C 0.51551 0.5604 0.54799 0.0
C164 C 0.5315 0.5641 0.52861 0.0
C165 C 0.51777 0.54166 0.5664 0.0
C166 C 0.53625 0.52625 0.56486 0.0
C167 C 0.55204 0.52947 0.54545 0.0
C168 C 0.5498 0.5485 0.52758 0.0
H169 H 0.60816 0.47504 0.99863 0.0
H170 H 0.542 0.46276 0.95103 0.0
H171 H 0.60229 0.51933 0.93204 0.0
H172 H 0.55581 0.53498 0.91624 0.0
C173 C 0.54329 0.51695 0.91805 0.0
O174 O 0.55754 0.49792 0.91896 0.0
H175 H 0.53336 0.51661 0.93507 0.0
C176 C 0.59745 0.47979 0.98229 0.0
C177 C 0.60787 0.49892 0.96621 0.0
C178 C 0.57385 0.46617 0.97688 0.0
C179 C 0.56048 0.4725 0.95536 0.0
C180 C 0.57072 0.49167 0.93934 0.0
C181 C 0.59452 0.50454 0.94457 0.0
H182 H 0.68816 0.27836 0.29074 0.0
H183 H 0.70845 0.22399 0.2456 0.0
H184 H 0.75116 0.24039 0.3115 0.0
H185 H 0.78085 0.23285 0.26848 0.0
C186 C 0.76688 0.21857 0.25988 0.0
O187 O 0.74624 0.21352 0.27377 0.0
H188 H 0.76133 0.22596 0.2415 0.0
C189 C 0.70009 0.26485 0.28732 0.0
C190 C 0.7201 0.26109 0.30389 0.0
C191 C 0.69578 0.25179 0.26604 0.0
C192 C 0.71173 0.2347 0.26154 0.0
C193 C 0.73175 0.23084 0.2778 0.0
C194 C 0.73592 0.24401 0.29884 0.0
H195 H 0.4297 0.06307 0.03868 0.0
H196 H 0.46637 0.02538 0.98826 0.0
H197 H 0.5033 0.09291 0.01652 0.0
H198 H 0.51652 0.08686 0.96487 0.0
C199 C 0.50859 0.06688 0.96468 0.0
O200 O 0.50686 0.0573 0.98828 0.0
H201 H 0.48982 0.06528 0.95507 0.0
C202 C 0.44542 0.06186 0.02793 0.0
C203 C 0.46633 0.08047 0.02916 0.0
C204 C 0.44516 0.04146 0.01353 0.0
C205 C 0.46613 0.04034 1.00008 0.0
C206 C 0.48694 0.05877 1.00128 0.0
C207 C 0.48713 0.07865 0.01592 0.0
Zn208 Zn 0.28123 0.84823 0.00349 0.0
Zn209 Zn 0.24605 0.8775 0.00479 0.0
O210 O 0.24289 0.85466 0.0366 0.0
O211 O 0.27025 0.82909 0.03377 0.0
O212 O 0.21891 0.89931 0.00734 0.0
O213 O 0.30759 0.87839 0.0058 0.0
O214 O 0.27856 0.90275 0.00492 0.0
C215 C 0.25343 0.83629 0.04517 0.0
C216 C 0.24784 0.84418 0.96178 0.0
O217 O 0.23766 0.86014 0.97202 0.0
O218 O 0.2669 0.83604 0.9716 0.0
C219 C 0.19593 0.89201 0.00204 0.0
O220 O 0.18936 0.86975 0.99402 0.0
C221 C 0.30153 0.89991 0.00589 0.0
Zn222 Zn 0.11428 0.43693 0.33375 0.0
Zn223 Zn 0.14328 0.47897 0.31721 0.0
O224 O 0.12329 0.49084 0.34332 0.0
O225 O 0.10033 0.45704 0.35777 0.0
O226 O 0.16578 0.51018 0.30672 0.0
O227 O 0.14556 0.42132 0.34304 0.0
O228 O 0.16832 0.45523 0.32855 0.0
C229 C 0.10715 0.48026 0.35782 0.0
C230 C 0.1045 0.45094 0.28276 0.0
O231 O 0.1218 0.46889 0.28684 0.0
O232 O 0.09802 0.43483 0.29958 0.0
C233 C 0.15834 0.5268 0.29209 0.0
O234 O 0.13521 0.52355 0.28303 0.0
C235 C 0.16672 0.43336 0.33843 0.0
Zn236 Zn 0.83215 0.60325 0.99132 0.0
Zn237 Zn 0.82237 0.61839 0.03353 0.0
O238 O 0.84885 0.59488 0.04343 0.0
O239 O 0.85416 0.58046 0.00828 0.0
O240 O 0.81515 0.63339 0.06448 0.0
O241 O 0.8465 0.63733 0.97907 0.0
O242 O 0.83357 0.65036 0.0121 0.0
C243 C 0.85888 0.58057 0.03091 0.0
C244 C 0.7806 0.59072 1.00147 0.0
O245 O 0.78831 0.59952 0.02175 0.0
O246 O 0.79554 0.59119 0.98475 0.0
C247 C 0.79697 0.625 0.07756 0.0
O248 O 0.7826 0.60439 0.07199 0.0
C249 C 0.8432 0.65498 0.99159 0.0
Zn250 Zn 0.84745 0.01306 0.28717 0.0
Zn251 Zn 0.87584 0.02227 0.2496 0.0
O252 O 0.85651 0.05305 0.24833 0.0
O253 O 0.83308 0.04448 0.2797 0.0
O254 O 0.89868 0.02876 0.22107 0.0
O255 O 0.87744 0.01211 0.31009 0.0
O256 O 0.90135 0.02092 0.27915 0.0
C257 C 0.84009 0.05874 0.26174 0.0
C258 C 0.83618 0.97485 0.25446 0.0
O259 O 0.85379 0.98805 0.24317 0.0
O260 O 0.82959 0.98183 0.27405 0.0
C261 C 0.89386 0.0185 0.20101 0.0
O262 O 0.87277 0.00353 0.19782 0.0
C263 C 0.89899 0.01642 0.30184 0.0
Zn264 Zn 0.33566 0.1007 0.49031 0.0
Zn265 Zn 0.32563 0.12152 0.52981 0.0
O266 O 0.35466 0.10172 0.54173 0.0
O267 O 0.36584 0.08917 0.50759 0.0
O268 O 0.31773 0.13918 0.55895 0.0
O269 O 0.33849 0.13336 0.47133 0.0
O270 O 0.33394 0.15125 0.50484 0.0
C271 C 0.36914 0.09077 0.53024 0.0
C272 C 0.28637 0.08315 0.50506 0.0
O273 O 0.29246 0.09935 0.52073 0.0
O274 O 0.30217 0.07911 0.49048 0.0
C275 C 0.30094 0.13038 0.57347 0.0
O276 O 0.28876 0.10802 0.57063 0.0
C277 C 0.33755 0.15278 0.48225 0.0
Zn278 Zn 0.34588 0.51613 0.78405 0.0
Zn279 Zn 0.3725 0.52609 0.7453 0.0
O280 O 0.35504 0.55798 0.7468 0.0
O281 O 0.3346 0.54943 0.7801 0.0
O282 O 0.39433 0.53282 0.71594 0.0
O283 O 0.37634 0.51148 0.80521 0.0
O284 O 0.39894 0.52173 0.77353 0.0
C285 C 0.34087 0.56421 0.76227 0.0
C286 C 0.33058 0.48047 0.74936 0.0
O287 O 0.34838 0.49337 0.73813 0.0
O288 O 0.32504 0.48685 0.76962 0.0
C289 C 0.39706 0.51581 0.70205 0.0
O290 O 0.38495 0.49341 0.70619 0.0
C291 C 0.39746 0.51556 0.79606 0.0
Zn292 Zn 0.78881 0.35212 0.50585 0.0
Zn293 Zn 0.75006 0.37488 0.50551 0.0
O294 O 0.74938 0.35326 0.53845 0.0
O295 O 0.78141 0.33313 0.53687 0.0
O296 O 0.71957 0.39282 0.50621 0.0
O297 O 0.81217 0.3839 0.50675 0.0
O298 O 0.77976 0.40406 0.50436 0.0
C299 C 0.76313 0.33772 0.54799 0.0
C300 C 0.75732 0.34118 0.46414 0.0
O301 O 0.74415 0.35522 0.47365 0.0
O302 O 0.77779 0.33702 0.47462 0.0
C303 C 0.71525 0.40276 0.52537 0.0
O304 O 0.73057 0.40105 0.5445 0.0
C305 C 0.80336 0.40414 0.50562 0.0
Zn306 Zn 0.61454 0.9328 0.83312 0.0
Zn307 Zn 0.64357 0.97637 0.82129 0.0
O308 O 0.62298 0.98542 0.84825 0.0
O309 O 0.5974 0.95108 0.85654 0.0
O310 O 0.66563 0.00859 0.81312 0.0
O311 O 0.64585 0.91794 0.84423 0.0
O312 O 0.66884 0.95248 0.83144 0.0
C313 C 0.60501 0.97372 0.86001 0.0
C314 C 0.60732 0.95025 0.78314 0.0
O315 O 0.62274 0.96878 0.78984 0.0
O316 O 0.6015 0.93181 0.79784 0.0
C317 C 0.65723 0.02616 0.80054 0.0
O318 O 0.63372 0.02316 0.79258 0.0
C319 C 0.66711 0.93033 0.84066 0.0
Zn320 Zn 0.02158 0.3027 0.85963 0.0
Zn321 Zn 0.02299 0.26004 0.88494 0.0
O322 O 0.0539 0.26306 0.8634 0.0
O323 O 0.05299 0.29939 0.84391 0.0
O324 O 0.02568 0.22868 0.9065 0.0
O325 O 0.0237 0.32192 0.88932 0.0
O326 O 0.02435 0.2866 0.9107 0.0
C327 C 0.06328 0.28013 0.84836 0.0
C328 C 0.97788 0.26724 0.84991 0.0
O329 O 0.98876 0.25358 0.86547 0.0
O330 O 0.98821 0.28905 0.84428 0.0
C331 C 0.01164 0.20793 0.90476 0.0
O332 O 0.99388 0.20558 0.88752 0.0
C333 C 0.02461 0.31008 0.90965 0.0
Zn334 Zn 0.52153 0.8013 0.36098 0.0
Zn335 Zn 0.52246 0.75901 0.38664 0.0
O336 O 0.55418 0.76238 0.36628 0.0
O337 O 0.55448 0.79917 0.34743 0.0
O338 O 0.52503 0.72772 0.40828 0.0
O339 O 0.52002 0.82028 0.39035 0.0
O340 O 0.52214 0.78549 0.41219 0.0
C341 C 0.56447 0.77975 0.35205 0.0
C342 C 0.47886 0.76526 0.34954 0.0
O343 O 0.48887 0.75202 0.36614 0.0
O344 O 0.48958 0.78685 0.34367 0.0
C345 C 0.51285 0.70632 0.40496 0.0
O346 O 0.49713 0.70328 0.38605 0.0
C347 C 0.52073 0.8087 0.41083 0.0
Zn348 Zn 0.95252 0.79381 0.60852 0.0
Zn349 Zn 0.99612 0.78915 0.63317 0.0
O350 O 0.00589 0.81885 0.60879 0.0
O351 O 0.97079 0.82086 0.58704 0.0
O352 O 0.02799 0.78357 0.65273 0.0
O353 O 0.93826 0.80275 0.63876 0.0
O354 O 0.97286 0.79609 0.65944 0.0
C355 C 0.99371 0.82876 0.59129 0.0
C356 C 0.96692 0.74611 0.60484 0.0
O357 O 0.98626 0.75595 0.61685 0.0
O358 O 0.94884 0.75811 0.59972 0.0
C359 C 0.04923 0.79684 0.65088 0.0
O360 O 0.05158 0.81608 0.63527 0.0
C361 C 0.95083 0.80177 0.65871 0.0
Zn362 Zn 0.4574 0.29063 0.10721 0.0
Zn363 Zn 0.50062 0.28802 0.13283 0.0
O364 O 0.51055 0.31619 0.10696 0.0
O365 O 0.47573 0.31627 0.08433 0.0
O366 O 0.53241 0.28572 0.15358 0.0
O367 O 0.44237 0.3018 0.1361 0.0
O368 O 0.47674 0.29642 0.15779 0.0
C369 C 0.4985 0.32476 0.0886 0.0
C370 C 0.47248 0.24256 0.1075 0.0
O371 O 0.4917 0.25335 0.11901 0.0
O372 O 0.45434 0.25416 0.10123 0.0
C373 C 0.54911 0.27319 0.1483 0.0
O374 O 0.54621 0.26151 0.12814 0.0
C375 C 0.45469 0.30208 0.15624 0.0
H376 H 0.2347 0.74716 0.84538 0.0
H377 H 0.21083 0.81307 0.80963 0.0
H378 H 0.2396 0.76707 0.88344 0.0
H379 H 0.21351 0.83215 0.84817 0.0
H380 H 0.2475 0.86913 0.91761 0.0
H381 H 0.24001 0.85079 0.87831 0.0
H382 H 0.21845 0.77881 0.91448 0.0
H383 H 0.2276 0.79716 0.95347 0.0
C384 C 0.23046 0.7659 0.84554 0.0
C385 C 0.22233 0.77836 0.82418 0.0
C386 C 0.23277 0.77722 0.86762 0.0
C387 C 0.22662 0.80123 0.86921 0.0
C388 C 0.21862 0.81376 0.84783 0.0
C389 C 0.2167 0.80258 0.82565 0.0
C390 C 0.24062 0.8495 0.91696 0.0
C391 C 0.23788 0.83453 0.93841 0.0
C392 C 0.23634 0.83889 0.89446 0.0
C393 C 0.22895 0.81311 0.893 0.0
C394 C 0.22484 0.79854 0.91469 0.0
C395 C 0.22963 0.80907 0.93709 0.0
H396 H 0.03999 0.54314 0.47429 0.0
H397 H 0.01559 0.58084 0.40819 0.0
H398 H 0.06526 0.52052 0.4513 0.0
H399 H 0.0411 0.55831 0.38518 0.0
H400 H 0.10864 0.53068 0.35579 0.0
H401 H 0.08645 0.55483 0.38044 0.0
H402 H 0.05645 0.48774 0.4206 0.0
H403 H 0.07854 0.46355 0.39602 0.0
C404 C 0.03984 0.54645 0.45483 0.0
C405 C 0.02519 0.56324 0.44289 0.0
C406 C 0.05437 0.53353 0.44169 0.0
C407 C 0.05501 0.53753 0.41644 0.0
C408 C 0.04104 0.55491 0.40463 0.0
C409 C 0.0263 0.56764 0.41774 0.0
C410 C 0.0975 0.5211 0.37002 0.0
C411 C 0.09529 0.49517 0.37389 0.0
C412 C 0.08468 0.53492 0.38402 0.0
C413 C 0.06966 0.52314 0.40237 0.0
C414 C 0.06804 0.49733 0.4067 0.0
C415 C 0.0806 0.48348 0.39253 0.0
H416 H 0.8405 0.80861 0.93248 0.0
H417 H 0.84568 0.7608 0.8746 0.0
H418 H 0.84488 0.77395 0.96215 0.0
H419 H 0.84977 0.7265 0.90382 0.0
H420 H 0.87616 0.67274 0.95754 0.0
H421 H 0.87848 0.71206 0.93391 0.0
H422 H 0.8223 0.73404 0.97654 0.0
H423 H 0.82071 0.69486 1.00085 0.0
C424 C 0.84257 0.79073 0.92613 0.0
C425 C 0.84311 0.78753 0.90123 0.0
C426 C 0.84507 0.77091 0.94308 0.0
C427 C 0.84809 0.74752 0.9354 0.0
C428 C 0.84828 0.7444 0.91047 0.0
C429 C 0.84587 0.7641 0.89365 0.0
C430 C 0.86469 0.68618 0.9622 0.0
C431 C 0.84802 0.68061 0.98082 0.0
C432 C 0.86587 0.70866 0.94855 0.0
C433 C 0.85009 0.72595 0.9529 0.0
C434 C 0.83471 0.72115 0.97269 0.0
C435 C 0.83378 0.6987 0.98662 0.0
H436 H 0.99668 0.03351 0.4305 0.0
H437 H 0.04558 0.01461 0.37843 0.0
H438 H 0.96233 0.03087 0.39992 0.0
H439 H 0.01092 0.0111 0.34777 0.0
H440 H 0.94831 0.0332 0.29345 0.0
H441 H 0.98397 0.03521 0.3229 0.0
H442 H 0.93517 1.00084 0.37807 0.0
H443 H 0.89974 0.99954 0.34908 0.0
C444 C 0.99995 0.02844 0.41255 0.0
C445 C 0.02363 0.02379 0.40694 0.0
C446 C 0.98025 0.02682 0.39501 0.0
C447 C 0.98373 0.02049 0.37139 0.0
C448 C 0.00758 0.01615 0.36571 0.0
C449 C 0.02736 0.0179 0.38328 0.0
C450 C 0.94528 0.02601 0.31186 0.0
C451 C 0.92113 0.01644 0.31894 0.0
C452 C 0.96572 0.02706 0.32872 0.0
C453 C 0.96243 0.01843 0.35297 0.0
C454 C 0.93836 0.00821 0.35975 0.0
C455 C 0.91801 0.00733 0.34302 0.0
H456 H 0.25432 0.25404 0.6384 0.0
H457 H 0.23569 0.19403 0.6916 0.0
H458 H 0.27397 0.2268 0.6149 0.0
H459 H 0.25603 0.1667 0.66851 0.0
H460 H 0.26259 0.11909 0.60395 0.0
H461 H 0.24794 0.14605 0.63143 0.0
H462 H 0.3081 0.20403 0.61273 0.0
H463 H 0.32236 0.17724 0.58468 0.0
C464 C 0.25481 0.23506 0.64523 0.0
C465 C 0.24332 0.22603 0.66668 0.0
C466 C 0.26621 0.21945 0.63186 0.0
C467 C 0.26651 0.19444 0.63969 0.0
C468 C 0.25579 0.18571 0.66169 0.0
C469 C 0.24432 0.20135 0.67503 0.0
C470 C 0.27286 0.13751 0.60583 0.0
C471 C 0.29356 0.14603 0.59194 0.0
C472 C 0.26452 0.15296 0.62175 0.0
C473 C 0.27673 0.17733 0.62428 0.0
C474 C 0.29796 0.18554 0.61097 0.0
C475 C 0.30625 0.17011 0.59497 0.0
H476 H 0.49923 0.57744 0.58977 0.0
H477 H 0.4975 0.49807 0.59 0.0
H478 H 0.46975 0.57176 0.62157 0.0
H479 H 0.46951 0.4925 0.62307 0.0
H480 H 0.39933 0.48706 0.66415 0.0
H481 H 0.42822 0.49372 0.63182 0.0
H482 H 0.46389 0.56153 0.6627 0.0
H483 H 0.43408 0.5553 0.69452 0.0
C484 C 0.49263 0.55874 0.59658 0.0
C485 C 0.50071 0.53822 0.58698 0.0
C486 C 0.47594 0.5555 0.6152 0.0
C487 C 0.467 0.53164 0.62502 0.0
C488 C 0.4755 0.51116 0.61576 0.0
C489 C 0.49198 0.51438 0.59696 0.0
C490 C 0.41327 0.50346 0.664 0.0
C491 C 0.41436 0.52064 0.68196 0.0
C492 C 0.43006 0.5072 0.64551 0.0
C493 C 0.44872 0.52807 0.64458 0.0
C494 C 0.44966 0.54539 0.66251 0.0
C495 C 0.4326 0.54179 0.68087 0.0
H496 H 0.79545 0.28734 0.69511 0.0
H497 H 0.71661 0.26121 0.68572 0.0
H498 H 0.79494 0.3075 0.65442 0.0
H499 H 0.716 0.28146 0.64487 0.0
H500 H 0.72686 0.34269 0.57961 0.0
H501 H 0.72377 0.325 0.62146 0.0
H502 H 0.7882 0.28891 0.61367 0.0
H503 H 0.79128 0.3061 0.57247 0.0
C504 C 0.77798 0.28621 0.68438 0.0
C505 C 0.7561 0.2728 0.69348 0.0
C506 C 0.77766 0.29763 0.66112 0.0
C507 C 0.75543 0.29593 0.64645 0.0
C508 C 0.73333 0.28322 0.65584 0.0
C509 C 0.7337 0.27158 0.67912 0.0
C510 C 0.7402 0.33082 0.58683 0.0
C511 C 0.75938 0.32597 0.57267 0.0
C512 C 0.73842 0.32071 0.61073 0.0
C513 C 0.756 0.3059 0.6209 0.0
C514 C 0.77469 0.30064 0.60651 0.0
C515 C 0.77631 0.31043 0.58277 0.0
H516 H 0.50196 0.96836 0.663 0.0
H517 H 0.55895 0.9347 0.63159 0.0
H518 H 0.52622 0.96924 0.70156 0.0
H519 H 0.58203 0.93412 0.67073 0.0
H520 H 0.58815 0.91064 0.75683 0.0
H521 H 0.56649 0.91138 0.71672 0.0
H522 H 0.57663 0.99131 0.71423 0.0
H523 H 0.59901 0.99075 0.754 0.0
C524 C 0.51964 0.96128 0.66413 0.0
C525 C 0.52836 0.95145 0.64395 0.0
C526 C 0.53339 0.96165 0.68631 0.0
C527 C 0.55586 0.9517 0.68896 0.0
C528 C 0.56462 0.94174 0.66906 0.0
C529 C 0.5512 0.94189 0.64672 0.0
C530 C 0.58593 0.92837 0.74763 0.0
C531 C 0.59528 0.95064 0.7585 0.0
C532 C 0.57363 0.92876 0.72474 0.0
C533 C 0.56992 0.95139 0.7126 0.0
C534 C 0.57927 0.97366 0.72337 0.0
C535 C 0.59213 0.97331 0.746 0.0
H536 H 0.82183 0.2093 0.81473 0.0
H537 H 0.85287 0.23407 0.74595 0.0
H538 H 0.86291 0.22007 0.83507 0.0
H539 H 0.89373 0.24503 0.76629 0.0
H540 H 0.95291 0.29069 0.8134 0.0
H541 H 0.91261 0.27673 0.7937 0.0
H542 H 0.90625 0.20906 0.83919 0.0
H543 H 0.94693 0.22322 0.85935 0.0
C544 C 0.83744 0.21681 0.80391 0.0
C545 C 0.83395 0.22101 0.7787 0.0
C546 C 0.86098 0.22295 0.81558 0.0
C547 C 0.88157 0.23354 0.80233 0.0
C548 C 0.87817 0.2373 0.77709 0.0
C549 C 0.8547 0.2311 0.76543 0.0
C550 C 0.94305 0.27279 0.81929 0.0
C551 C 0.95325 0.25808 0.838 0.0
C552 C 0.91994 0.26472 0.80782 0.0
C553 C 0.90626 0.24171 0.81474 0.0
C554 C 0.9163 0.22695 0.83354 0.0
C555 C 0.93963 0.235 0.845 0.0
H556 H 0.54926 0.87771 0.54868 0.0
H557 H 0.48906 0.91236 0.51356 0.0
H558 H 0.54663 0.84946 0.51589 0.0
H559 H 0.48597 0.88384 0.48092 0.0
H560 H 0.51454 0.85708 0.4128 0.0
H561 H 0.51264 0.88035 0.44815 0.0
H562 H 0.52164 0.8152 0.49446 0.0
H563 H 0.52389 0.79167 0.45872 0.0
C564 C 0.53517 0.87894 0.53411 0.0
C565 C 0.51953 0.89735 0.53342 0.0
C566 C 0.53357 0.8627 0.5154 0.0
C567 C 0.5163 0.86457 0.49562 0.0
C568 C 0.4998 0.8822 0.49566 0.0
C569 C 0.50141 0.89842 0.51436 0.0
C570 C 0.51608 0.84756 0.43047 0.0
C571 C 0.51944 0.82244 0.43286 0.0
C572 C 0.51474 0.86092 0.4508 0.0
C573 C 0.51675 0.84962 0.47418 0.0
C574 C 0.52012 0.82448 0.47669 0.0
C575 C 0.52136 0.81099 0.45622 0.0
H576 H 0.19621 0.24711 0.77891 0.0
H577 H 0.16769 0.30722 0.7371 0.0
H578 H 0.16194 0.2447 0.80636 0.0
H579 H 0.13337 0.30449 0.76376 0.0
H580 H 0.09571 0.3178 0.82935 0.0
H581 H 0.13008 0.31564 0.80412 0.0
H582 H 0.11638 0.23559 0.81159 0.0
H583 H 0.08195 0.23785 0.83781 0.0
C584 C 0.18237 0.25949 0.77539 0.0
C585 C 0.18478 0.27762 0.75614 0.0
C586 C 0.16276 0.25811 0.79106 0.0
C587 C 0.14519 0.27477 0.78761 0.0
C588 C 0.14697 0.29188 0.76747 0.0
C589 C 0.16656 0.29339 0.75207 0.0
C590 C 0.10005 0.29968 0.8258 0.0
C591 C 0.08587 0.27798 0.83534 0.0
C592 C 0.1197 0.29843 0.81114 0.0
C593 C 0.12563 0.27543 0.80524 0.0
C594 C 0.11226 0.25362 0.8157 0.0
C595 C 0.09256 0.25489 0.83071 0.0
H596 H 0.48862 0.57737 0.50611 0.0
H597 H 0.56883 0.59667 0.50805 0.0
H598 H 0.4845 0.61147 0.47614 0.0
H599 H 0.56475 0.63039 0.47754 0.0
H600 H 0.54536 0.70552 0.44477 0.0
H601 H 0.55006 0.67089 0.47395 0.0
H602 H 0.49259 0.62427 0.43396 0.0
H603 H 0.48765 0.65897 0.40493 0.0
C604 C 0.50539 0.58889 0.50013 0.0
C605 C 0.52906 0.58433 0.50958 0.0
C606 C 0.50304 0.60829 0.48274 0.0
C607 C 0.52429 0.62372 0.47442 0.0
C608 C 0.54798 0.61904 0.48373 0.0
C609 C 0.55033 0.59954 0.50103 0.0
C610 C 0.53374 0.68789 0.44216 0.0
C611 C 0.51609 0.68509 0.42249 0.0
C612 C 0.53655 0.66797 0.45883 0.0
C613 C 0.5217 0.64477 0.45633 0.0
C614 C 0.50413 0.64195 0.43661 0.0
C615 C 0.5014 0.66184 0.41987 0.0
H616 H 0.90449 0.81966 0.80503 0.0
H617 H 0.83785 0.80853 0.75809 0.0
H618 H 0.93016 0.82011 0.77015 0.0
H619 H 0.86311 0.80799 0.72353 0.0
H620 H 0.91204 0.8274 0.66199 0.0
H621 H 0.89057 0.83331 0.69779 0.0
H622 H 0.94135 0.79279 0.74173 0.0
H623 H 0.96358 0.78777 0.70575 0.0
C624 C 0.89539 0.8177 0.78718 0.0
C625 C 0.86923 0.81484 0.78409 0.0
C626 C 0.91004 0.81764 0.76726 0.0
C627 C 0.89876 0.81433 0.74393 0.0
C628 C 0.87254 0.81129 0.74105 0.0
C629 C 0.858 0.81152 0.76086 0.0
C630 C 0.91877 0.8199 0.67931 0.0
C631 C 0.93933 0.80686 0.68101 0.0
C632 C 0.90636 0.82318 0.69986 0.0
C633 C 0.91391 0.81317 0.72265 0.0
C634 C 0.9351 0.80091 0.72452 0.0
C635 C 0.94778 0.7979 0.7039 0.0
H636 H 0.04398 0.92829 0.46986 0.0
H637 H 0.0761 0.96672 0.53257 0.0
H638 H 0.02571 0.89371 0.49615 0.0
H639 H 0.05798 0.93196 0.55886 0.0
H640 H 0.04166 0.85339 0.59611 0.0
H641 H 0.06131 0.88769 0.56998 0.0
H642 H 0.99297 0.88547 0.52535 0.0
H643 H 0.97349 0.85124 0.55105 0.0
C644 C 0.04696 0.92948 0.48926 0.0
C645 C 0.06142 0.95034 0.49909 0.0
C646 C 0.03655 0.90961 0.50433 0.0
C647 C 0.04039 0.9101 0.5296 0.0
C648 C 0.05497 0.93088 0.53946 0.0
C649 C 0.06533 0.9508 0.52438 0.0
C650 C 0.03087 0.8602 0.58069 0.0
C651 C 0.00601 0.84952 0.57569 0.0
C652 C 0.04208 0.87992 0.56581 0.0
C653 C 0.02871 0.88923 0.54555 0.0
C654 C 0.0039 0.87851 0.54059 0.0
C655 C 0.99269 0.85895 0.55547 0.0
H656 H 0.16257 0.72549 0.73638 0.0
H657 H 0.18162 0.80361 0.74795 0.0
H658 H 0.12786 0.73437 0.70856 0.0
H659 H 0.14656 0.8124 0.72076 0.0
H660 H 0.09679 0.82205 0.65249 0.0
H661 H 0.13261 0.81232 0.67813 0.0
H662 H 0.08703 0.74826 0.71009 0.0
H663 H 0.05126 0.75775 0.6842 0.0
C664 C 0.15943 0.74457 0.73288 0.0
C665 C 0.17484 0.76384 0.74443 0.0
C666 C 0.13939 0.74963 0.71715 0.0
C667 C 0.13437 0.7741 0.71247 0.0
C668 C 0.15001 0.79338 0.72376 0.0
C669 C 0.16996 0.78831 0.73955 0.0
C670 C 0.09439 0.80585 0.66494 0.0
C671 C 0.0711 0.79073 0.66631 0.0
C672 C 0.11492 0.80034 0.67973 0.0
C673 C 0.1127 0.77953 0.69621 0.0
C674 C 0.08947 0.76426 0.6974 0.0
C675 C 0.06891 0.76981 0.68265 0.0
H676 H 0.92771 0.62185 0.51495 0.0
H677 H 0.99508 0.60487 0.55366 0.0
H678 H 0.92893 0.65846 0.538 0.0
H679 H 0.99578 0.64072 0.57785 0.0
H680 H 0.00603 0.72259 0.59543 0.0
H681 H 0.00424 0.68375 0.57579 0.0
H682 H 0.92354 0.674 0.57482 0.0
H683 H 0.92551 0.71356 0.59311 0.0
C684 C 0.94253 0.62578 0.52877 0.0
C685 C 0.96134 0.61068 0.53251 0.0
C686 C 0.9432 0.64669 0.54215 0.0
C687 C 0.96248 0.65272 0.55993 0.0
C688 C 0.98093 0.63707 0.56403 0.0
C689 C 0.98049 0.61643 0.55031 0.0
C690 C 0.98794 0.71199 0.59118 0.0
C691 C 0.96592 0.72119 0.5956 0.0
C692 C 0.98686 0.68961 0.58001 0.0
C693 C 0.96371 0.67567 0.57342 0.0
C694 C 0.94171 0.68445 0.57895 0.0
C695 C 0.94281 0.70705 0.58965 0.0
H696 H 0.7268 0.84814 0.21884 0.0
H697 H 0.79615 0.81862 0.23299 0.0
H698 H 0.74932 0.89018 0.21933 0.0
H699 H 0.81883 0.86093 0.23372 0.0
H700 H 0.85239 0.94411 0.22305 0.0
H701 H 0.83109 0.90316 0.21165 0.0
H702 H 0.76941 0.91168 0.25448 0.0
H703 H 0.7903 0.95194 0.26566 0.0
C704 C 0.74693 0.85068 0.2218 0.0
C705 C 0.75967 0.83011 0.22633 0.0
C706 C 0.75984 0.87475 0.22206 0.0
C707 C 0.78581 0.87889 0.22697 0.0
C708 C 0.79883 0.85835 0.2298 0.0
C709 C 0.78586 0.83414 0.22944 0.0
C710 C 0.83414 0.93727 0.2297 0.0
C711 C 0.82308 0.95121 0.24533 0.0
C712 C 0.82204 0.91382 0.2233 0.0
C713 C 0.79851 0.90423 0.23207 0.0
C714 C 0.78731 0.91861 0.24709 0.0
C715 C 0.79942 0.94168 0.25367 0.0
H716 H 0.74293 0.17359 0.24599 0.0
H717 H 0.81597 0.21113 0.26714 0.0
H718 H 0.76051 0.13526 0.24258 0.0
H719 H 0.83365 0.17281 0.26378 0.0
H720 H 0.8595 0.10255 0.23763 0.0
H721 H 0.84195 0.14174 0.23433 0.0
H722 H 0.77818 0.10618 0.27269 0.0
H723 H 0.79548 0.06751 0.27597 0.0
C724 C 0.76274 0.17357 0.24995 0.0
C725 C 0.77798 0.19512 0.2574 0.0
C726 C 0.77283 0.15169 0.24797 0.0
C727 C 0.79847 0.15095 0.25305 0.0
C728 C 0.81388 0.1728 0.25958 0.0
C729 C 0.80373 0.19466 0.26175 0.0
C730 C 0.84159 0.10311 0.24502 0.0
C731 C 0.82895 0.08196 0.25715 0.0
C732 C 0.83163 0.12555 0.2433 0.0
C733 C 0.80867 0.12706 0.25327 0.0
C734 C 0.79574 0.10563 0.26459 0.0
C735 C 0.80579 0.08347 0.2666 0.0
H736 H 0.44563 0.99176 0.00936 0.0
H737 H 0.39507 0.04491 0.01585 0.0
H738 H 0.41064 0.95897 0.00656 0.0
H739 H 0.36 0.01148 0.01541 0.0
H740 H 0.2999 0.94844 0.99017 0.0
H741 H 0.33409 0.98306 0.9918 0.0
H742 H 0.38172 0.9344 0.02939 0.0
H743 H 0.34821 0.89991 0.02636 0.0
C744 C 0.42706 0.99655 0.01022 0.0
C745 C 0.42337 0.0212 0.01269 0.0
C746 C 0.40686 0.97752 0.0091 0.0
C747 C 0.3823 0.98234 0.01103 0.0
C748 C 0.37855 0.00697 0.01361 0.0
C749 C 0.39879 0.02616 0.01428 0.0
C750 C 0.31774 0.94528 0.99873 0.0
C751 C 0.32149 0.92143 0.00785 0.0
C752 C 0.33734 0.96513 0.99982 0.0
C753 C 0.36094 0.96162 0.01048 0.0
C754 C 0.3642 0.93783 0.02034 0.0
C755 C 0.34487 0.91799 0.01877 0.0
H756 H 0.31797 0.3943 0.35504 0.0
H757 H 0.26858 0.32512 0.36377 0.0
H758 H 0.28222 0.41691 0.35259 0.0
H759 H 0.23268 0.34737 0.36016 0.0
H760 H 0.17252 0.39366 0.36977 0.0
H761 H 0.20948 0.37337 0.37772 0.0
H762 H 0.24898 0.42548 0.32628 0.0
H763 H 0.2124 0.44647 0.3194 0.0
C764 C 0.29939 0.38398 0.35645 0.0
C765 C 0.29599 0.35802 0.35969 0.0
C766 C 0.27886 0.39688 0.35485 0.0
C767 C 0.25439 0.38405 0.35601 0.0
C768 C 0.25116 0.35802 0.35964 0.0
C769 C 0.27173 0.34519 0.36163 0.0
C770 C 0.18918 0.40086 0.36031 0.0
C771 C 0.18952 0.42163 0.34391 0.0
C772 C 0.21037 0.38912 0.36473 0.0
C773 C 0.23232 0.39758 0.35255 0.0
C774 C 0.23267 0.4186 0.33637 0.0
C775 C 0.2116 0.43059 0.33226 0.0
H776 H 0.13026 0.01538 0.51686 0.0
H777 H 0.14556 0.01655 0.44126 0.0
H778 H 0.17334 0.03377 0.52615 0.0
H779 H 0.1882 0.0359 0.45038 0.0
H780 H 0.26901 0.04466 0.47681 0.0
H781 H 0.22618 0.02493 0.47013 0.0
H782 H 0.20198 0.0723 0.52056 0.0
H783 H 0.24515 0.09178 0.52774 0.0
C784 C 0.14281 0.01957 0.50222 0.0
C785 C 0.13448 0.0144 0.47832 0.0
C786 C 0.16741 0.03037 0.50752 0.0
C787 C 0.18426 0.03621 0.48904 0.0
C788 C 0.17583 0.03129 0.46511 0.0
C789 C 0.15127 0.02049 0.45982 0.0
C790 C 0.25462 0.0508 0.48663 0.0
C791 C 0.26051 0.06993 0.5027 0.0
C792 C 0.23 0.03958 0.48265 0.0
C793 C 0.21059 0.04726 0.49454 0.0
C794 C 0.21652 0.06586 0.5112 0.0
C795 C 0.24125 0.07707 0.51527 0.0
H796 H 0.71929 0.18039 0.7676 0.0
H797 H 0.78261 0.14074 0.76912 0.0
H798 H 0.69227 0.14172 0.77771 0.0
H799 H 0.7556 0.10196 0.77874 0.0
H800 H 0.70484 0.04065 0.81869 0.0
H801 H 0.73175 0.07968 0.81 0.0
H802 H 0.67409 0.10378 0.76067 0.0
H803 H 0.64692 0.06509 0.76998 0.0
C804 C 0.72738 0.16335 0.76996 0.0
C805 C 0.75306 0.1636 0.76761 0.0
C806 C 0.7119 0.14117 0.77568 0.0
C807 C 0.72171 0.11866 0.779 0.0
C808 C 0.74745 0.11897 0.77672 0.0
C809 C 0.76295 0.14119 0.77117 0.0
C810 C 0.6979 0.05429 0.806 0.0
C811 C 0.67372 0.04976 0.79505 0.0
C812 C 0.71339 0.07664 0.8009 0.0
C813 C 0.70514 0.09493 0.78461 0.0
C814 C 0.68095 0.09032 0.77361 0.0
C815 C 0.6654 0.06804 0.77883 0.0
H816 H 0.45914 0.99462 0.61948 0.0
H817 H 0.47656 0.99094 0.54494 0.0
H818 H 0.43407 0.02723 0.60761 0.0
H819 H 0.44978 0.02174 0.53285 0.0
H820 H 0.41544 0.08938 0.51535 0.0
H821 H 0.44553 0.06305 0.53189 0.0
H822 H 0.39617 0.03515 0.58897 0.0
H823 H 0.3669 0.06296 0.57308 0.0
C824 C 0.45772 1.00074 0.60055 0.0
C825 C 0.47003 0.98999 0.58322 0.0
C826 C 0.44295 0.01926 0.59368 0.0
C827 C 0.43976 0.02735 0.56922 0.0
C828 C 0.45206 0.01653 0.55193 0.0
C829 C 0.46713 0.99836 0.55884 0.0
C830 C 0.41136 0.07801 0.53177 0.0
C831 C 0.38888 0.07814 0.54293 0.0
C832 C 0.42845 0.06261 0.54111 0.0
C833 C 0.42315 0.04633 0.56148 0.0
C834 C 0.40112 0.04745 0.57337 0.0
C835 C 0.38426 0.06339 0.5643 0.0
H836 H 0.58222 0.45959 0.56571 0.0
H837 H 0.59985 0.49904 0.49766 0.0
H838 H 0.61852 0.43806 0.56407 0.0
H839 H 0.63644 0.47785 0.49603 0.0
H840 H 0.68203 0.41405 0.48827 0.0
H841 H 0.64643 0.43643 0.4902 0.0
H842 H 0.6638 0.44479 0.56649 0.0
H843 H 0.69908 0.42223 0.56465 0.0
C844 C 0.59402 0.46374 0.55049 0.0
C845 C 0.58807 0.48068 0.53165 0.0
C846 C 0.61487 0.45151 0.54956 0.0
C847 C 0.63036 0.45604 0.5298 0.0
C848 C 0.6247 0.47354 0.51127 0.0
C849 C 0.60387 0.48581 0.51226 0.0
C850 C 0.67823 0.42063 0.50546 0.0
C851 C 0.69345 0.41628 0.5263 0.0
C852 C 0.65791 0.43362 0.50654 0.0
C853 C 0.6522 0.44247 0.52851 0.0
C854 C 0.66742 0.43804 0.54933 0.0
C855 C 0.68778 0.42518 0.54822 0.0
H856 H 0.76459 0.28238 0.32445 0.0
H857 H 0.68531 0.27093 0.33455 0.0
H858 H 0.77205 0.3028 0.36245 0.0
H859 H 0.69281 0.29139 0.37279 0.0
H860 H 0.71785 0.34906 0.43177 0.0
H861 H 0.70784 0.33117 0.39222 0.0
H862 H 0.76944 0.28927 0.40465 0.0
H863 H 0.77956 0.30709 0.44338 0.0
C864 C 0.74874 0.28412 0.33483 0.0
C865 C 0.72439 0.27475 0.32654 0.0
C866 C 0.753 0.29587 0.35664 0.0
C867 C 0.73304 0.2985 0.37085 0.0
C868 C 0.70858 0.28985 0.36222 0.0
C869 C 0.70431 0.27809 0.34032 0.0
C870 C 0.72915 0.33597 0.42602 0.0
C871 C 0.74964 0.32975 0.44072 0.0
C872 C 0.7234 0.32569 0.40341 0.0
C873 C 0.7381 0.30907 0.39508 0.0
C874 C 0.75811 0.30247 0.41014 0.0
C875 C 0.7638 0.31264 0.43253 0.0
H876 H 0.53887 0.08502 0.92819 0.0
H877 H 0.51336 0.0172 0.96941 0.0
H878 H 0.56281 0.06242 0.90381 0.0
H879 H 0.53818 0.9947 0.94592 0.0
H880 H 0.56092 0.95751 0.88116 0.0
H881 H 0.53867 0.97991 0.90706 0.0
H882 H 0.59837 0.04183 0.9039 0.0
H883 H 0.62016 0.01973 0.87714 0.0
C884 C 0.53885 0.06535 0.93234 0.0
C885 C 0.52481 0.05301 0.95107 0.0
C886 C 0.55265 0.05239 0.91847 0.0
C887 C 0.55264 0.02671 0.92297 0.0
C888 C 0.53849 0.01439 0.94176 0.0
C889 C 0.5245 0.02733 0.95545 0.0
C890 C 0.56938 0.97586 0.88608 0.0
C891 C 0.5923 0.98685 0.87701 0.0
C892 C 0.55666 0.98869 0.90109 0.0
C893 C 0.56666 0.01275 0.90763 0.0
C894 C 0.58986 0.02353 0.89893 0.0
C895 C 0.60246 0.01078 0.8837 0.0
H896 H 0.3303 0.30499 0.42446 0.0
H897 H 0.35498 0.26656 0.3667 0.0
H898 H 0.32996 0.26754 0.45098 0.0
H899 H 0.35713 0.23051 0.39368 0.0
H900 H 0.32816 0.15993 0.43405 0.0
H901 H 0.32952 0.19858 0.41005 0.0
H902 H 0.35262 0.23919 0.47393 0.0
H903 H 0.34981 0.19993 0.49839 0.0
C904 C 0.33591 0.28875 0.41742 0.0
C905 C 0.34254 0.28901 0.39325 0.0
C906 C 0.33609 0.26734 0.4328 0.0
C907 C 0.34321 0.24576 0.42447 0.0
C908 C 0.35088 0.24646 0.40066 0.0
C909 C 0.35018 0.26754 0.38522 0.0
C910 C 0.33365 0.17707 0.44303 0.0
C911 C 0.33912 0.17684 0.4681 0.0
C912 C 0.33462 0.19935 0.42919 0.0
C913 C 0.34165 0.22218 0.43987 0.0
C914 C 0.34698 0.22202 0.46506 0.0
C915 C 0.34554 0.19955 0.47908 0.0
H916 H 0.53785 0.54929 0.8786 0.0
H917 H 0.50537 0.4789 0.91108 0.0
H918 H 0.50392 0.54692 0.84733 0.0
H919 H 0.47165 0.4761 0.87953 0.0
H920 H 0.39952 0.49928 0.84349 0.0
H921 H 0.43606 0.49772 0.87066 0.0
H922 H 0.48372 0.5252 0.81231 0.0
H923 H 0.44678 0.52719 0.7849 0.0
C924 C 0.52363 0.53311 0.87876 0.0
C925 C 0.52407 0.51431 0.89726 0.0
C926 C 0.50428 0.53166 0.86079 0.0
C927 C 0.48496 0.5114 0.861 0.0
C928 C 0.48602 0.49214 0.87904 0.0
C929 C 0.50535 0.49362 0.897 0.0
C930 C 0.41775 0.50489 0.8363 0.0
C931 C 0.42017 0.51348 0.81198 0.0
C932 C 0.43877 0.50378 0.85191 0.0
C933 C 0.46285 0.51124 0.84368 0.0
C934 C 0.46539 0.5195 0.81926 0.0
C935 C 0.44426 0.52054 0.80353 0.0
H936 H 0.75971 0.74826 0.14977 0.0
H937 H 0.73202 0.68605 0.19743 0.0
H938 H 0.7782 0.72074 0.12554 0.0
H939 H 0.75111 0.65836 0.17364 0.0
H940 H 0.75655 0.61502 0.10562 0.0
H941 H 0.74337 0.6413 0.13465 0.0
H942 H 0.80957 0.69452 0.12342 0.0
H943 H 0.82244 0.66849 0.09384 0.0
C944 C 0.75793 0.72869 0.15522 0.0
C945 C 0.74412 0.71915 0.17519 0.0
C946 C 0.76866 0.7129 0.14145 0.0
C947 C 0.766 0.68722 0.14747 0.0
C948 C 0.75314 0.67793 0.16819 0.0
C949 C 0.74235 0.69375 0.18192 0.0
C950 C 0.76846 0.6322 0.1095 0.0
C951 C 0.79046 0.63971 0.09721 0.0
C952 C 0.76096 0.64724 0.12631 0.0
C953 C 0.77531 0.67016 0.13134 0.0
C954 C 0.79782 0.67721 0.11971 0.0
C955 C 0.80529 0.66219 0.10284 0.0
H956 H 0.00294 0.0783 0.09468 0.0
H957 H 0.99026 0.99942 0.08566 0.0
H958 H 0.97395 0.07265 0.12721 0.0
H959 H 0.96181 0.99369 0.11862 0.0
H960 H 0.89039 0.99673 0.15771 0.0
H961 H 0.9203 0.00267 0.12615 0.0
H962 H 0.96891 0.05516 0.1688 0.0
H963 H 0.93876 0.04942 0.2004 0.0
C964 C 0.99401 0.05974 0.09966 0.0
C965 C 0.99888 0.03933 0.08744 0.0
C966 C 0.97756 0.05647 0.1185 0.0
C967 C 0.96543 0.03272 0.12552 0.0
C968 C 0.97057 0.01228 0.11351 0.0
C969 C 0.98711 0.01553 0.09477 0.0
C970 C 0.90742 0.00959 0.16041 0.0
C971 C 0.91211 0.0226 0.18166 0.0
C972 C 0.92469 0.01286 0.14234 0.0
C973 C 0.94712 0.02931 0.14493 0.0
C974 C 0.95175 0.04249 0.1661 0.0
C975 C 0.93449 0.03913 0.18427 0.0
H976 H 0.23454 0.73708 0.17513 0.0
H977 H 0.27235 0.80766 0.19767 0.0
H978 H 0.22764 0.75543 0.13422 0.0
H979 H 0.26555 0.82609 0.15682 0.0
H980 H 0.23532 0.85572 0.08378 0.0
H981 H 0.23266 0.83711 0.12522 0.0
H982 H 0.25678 0.77096 0.10201 0.0
H983 H 0.25945 0.78939 0.061 0.0
C984 C 0.24115 0.75657 0.1713 0.0
C985 C 0.25408 0.77093 0.18941 0.0
C986 C 0.23724 0.76708 0.14796 0.0
C987 C 0.24607 0.79221 0.1423 0.0
C988 C 0.25826 0.80677 0.16069 0.0
C989 C 0.26232 0.7962 0.184 0.0
C990 C 0.23952 0.83702 0.08751 0.0
C991 C 0.24772 0.82406 0.0692 0.0
C992 C 0.2382 0.82646 0.11122 0.0
C993 C 0.24463 0.80262 0.11689 0.0
C994 C 0.2515 0.78925 0.09824 0.0
C995 C 0.25315 0.79988 0.07474 0.0
H996 H 0.02087 0.40543 0.14967 0.0
H997 H 0.027 0.48536 0.14587 0.0
H998 H 0.04554 0.40664 0.18791 0.0
H999 H 0.05069 0.48649 0.18465 0.0
H1000 H 0.11368 0.48169 0.24227 0.0
H1001 H 0.0909 0.47979 0.203 0.0
H1002 H 0.04205 0.41514 0.2295 0.0
H1003 H 0.06516 0.41666 0.26852 0.0
C1004 C 0.0275 0.42327 0.15698 0.0
C1005 C 0.02194 0.44529 0.14467 0.0
C1006 C 0.04141 0.42394 0.17905 0.0
C1007 C 0.05009 0.44666 0.1894 0.0
C1008 C 0.04456 0.46869 0.17708 0.0
C1009 C 0.03067 0.46802 0.15499 0.0
C1010 C 0.09817 0.46698 0.23968 0.0
C1011 C 0.09127 0.44933 0.25858 0.0
C1012 C 0.08499 0.466 0.2172 0.0
C1013 C 0.06458 0.44736 0.21309 0.0
C1014 C 0.05787 0.42956 0.23192 0.0
C1015 C 0.07106 0.43051 0.25437 0.0
H1016 H 0.33091 0.75983 0.28048 0.0
H1017 H 0.34551 0.68448 0.27765 0.0
H1018 H 0.37098 0.77058 0.30234 0.0
H1019 H 0.38576 0.69528 0.29957 0.0
H1020 H 0.44741 0.72141 0.35854 0.0
H1021 H 0.40625 0.70833 0.33881 0.0
H1022 H 0.41442 0.7756 0.29271 0.0
H1023 H 0.45487 0.78875 0.3124 0.0
C1024 C 0.34273 0.74558 0.28442 0.0
C1025 C 0.33508 0.72136 0.27711 0.0
C1026 C 0.36572 0.75172 0.29698 0.0
C1027 C 0.38171 0.73384 0.30252 0.0
C1028 C 0.37381 0.70944 0.29578 0.0
C1029 C 0.35075 0.70327 0.2832 0.0
C1030 C 0.44039 0.73333 0.34416 0.0
C1031 C 0.45442 0.75621 0.33721 0.0
C1032 C 0.41686 0.72581 0.33281 0.0
C1033 C 0.40691 0.74107 0.31437 0.0
C1034 C 0.42122 0.76365 0.30719 0.0
C1035 C 0.44458 0.77111 0.31844 0.0
H1036 H 0.06048 0.41483 0.02246 0.0
H1037 H 0.9841 0.38219 0.03277 0.0
H1038 H 0.06304 0.38606 0.9911 0.0
H1039 H 0.98677 0.35316 1.00151 0.0
H1040 H 0.01094 0.29265 0.95532 0.0
H1041 H 0.01076 0.31708 0.99098 0.0
H1042 H 0.04091 0.38314 0.9494 0.0
H1043 H 0.04084 0.35909 0.91404 0.0
C1044 C 0.04442 0.40113 0.01836 0.0
C1045 C 0.0223 0.40044 0.03042 0.0
C1046 C 0.04584 0.38476 1.00036 0.0
C1047 C 0.02513 0.36732 0.99394 0.0
C1048 C 0.00314 0.36616 0.00636 0.0
C1049 C 1.00162 0.38279 0.02423 0.0
C1050 C 0.01771 0.31234 0.95394 0.0
C1051 C 0.02585 0.32395 0.93187 0.0
C1052 C 0.01747 0.32631 0.97426 0.0
C1053 C 0.02589 0.35198 0.97295 0.0
C1054 C 0.03455 0.36336 0.95103 0.0
C1055 C 0.03437 0.34957 0.93073 0.0
H1056 H 0.67329 0.80567 0.24457 0.0
H1057 H 0.69824 0.74368 0.2864 0.0
H1058 H 0.63858 0.8042 0.27052 0.0
H1059 H 0.6636 0.74253 0.31313 0.0
H1060 H 0.58304 0.73734 0.34206 0.0
H1061 H 0.61831 0.73473 0.31712 0.0
H1062 H 0.63344 0.81476 0.31047 0.0
H1063 H 0.59811 0.81726 0.33439 0.0
C1064 C 0.67135 0.79175 0.25944 0.0
C1065 C 0.68865 0.77501 0.26365 0.0
C1066 C 0.65152 0.79096 0.27445 0.0
C1067 C 0.64855 0.7736 0.29433 0.0
C1068 C 0.6653 0.75614 0.29801 0.0
C1069 C 0.68514 0.7568 0.28274 0.0
C1070 C 0.59413 0.7543 0.33543 0.0
C1071 C 0.58757 0.77749 0.3399 0.0
C1072 C 0.61434 0.75283 0.32116 0.0
C1073 C 0.62842 0.77454 0.31128 0.0
C1074 C 0.62257 0.79764 0.31703 0.0
C1075 C 0.60238 0.79908 0.33096 0.0
H1076 H 0.98638 0.08201 0.00927 0.0
H1077 H 0.06668 0.09668 0.0068 0.0
H1078 H 0.98262 0.11618 0.97935 0.0
H1079 H 0.06288 0.13039 0.97624 0.0
H1080 H 0.04669 0.20619 0.94244 0.0
H1081 H 0.05106 0.17191 0.97214 0.0
H1082 H 0.98839 0.12745 0.93676 0.0
H1083 H 0.98376 0.16182 0.90729 0.0
C1084 C 0.00325 0.09256 0.00238 0.0
C1085 C 0.02685 0.08662 0.01054 0.0
C1086 C 1.00108 0.11199 0.98499 0.0
C1087 C 0.02244 0.12606 0.97531 0.0
C1088 C 0.04604 0.12011 0.98345 0.0
C1089 C 0.04821 0.10061 1.0008 0.0
C1090 C 0.03386 0.18909 0.94094 0.0
C1091 C 0.01483 0.18683 0.92247 0.0
C1092 C 0.03646 0.16937 0.95792 0.0
C1093 C 0.02005 0.14689 0.95691 0.0
C1094 C 1.00115 0.14459 0.93831 0.0
C1095 C 0.99859 0.16428 0.9213 0.0
H1096 H 0.40627 0.32651 0.30009 0.0
H1097 H 0.34055 0.31591 0.25188 0.0
H1098 H 0.43261 0.32575 0.26593 0.0
H1099 H 0.36642 0.31407 0.21809 0.0
H1100 H 0.41651 0.32896 0.15728 0.0
H1101 H 0.39476 0.33731 0.19213 0.0
H1102 H 0.44383 0.2974 0.23895 0.0
H1103 H 0.4664 0.29007 0.20394 0.0
C1104 C 0.39753 0.32446 0.28211 0.0
C1105 C 0.37143 0.32206 0.27845 0.0
C1106 C 0.41255 0.3237 0.26259 0.0
C1107 C 0.40171 0.32006 0.23914 0.0
C1108 C 0.37556 0.31761 0.23568 0.0
C1109 C 0.36065 0.31858 0.25507 0.0
C1110 C 0.4228 0.32214 0.17505 0.0
C1111 C 0.44297 0.3086 0.17785 0.0
C1112 C 0.41024 0.32682 0.19505 0.0
C1113 C 0.4172 0.31767 0.21838 0.0
C1114 C 0.43803 0.30491 0.22131 0.0
C1115 C 0.4509 0.30056 0.20124 0.0
H1116 H 0.57571 0.46344 0.02653 0.0
H1117 H 0.54871 0.4211 0.96472 0.0
H1118 H 0.55885 0.42869 0.05352 0.0
H1119 H 0.53169 0.38654 0.99168 0.0
H1120 H 0.47895 0.34372 0.0462 0.0
H1121 H 0.49785 0.37749 0.01962 0.0
H1122 H 0.56456 0.38538 0.06684 0.0
H1123 H 0.54546 0.35153 0.09384 0.0
C1124 C 0.56636 0.44667 0.01869 0.0
C1125 C 0.56346 0.44512 0.99343 0.0
C1126 C 0.55674 0.42675 0.03417 0.0
C1127 C 0.5439 0.40489 0.02474 0.0
C1128 C 0.54116 0.40328 0.99951 0.0
C1129 C 0.55084 0.42313 0.98405 0.0
C1130 C 0.49768 0.35255 0.05098 0.0
C1131 C 0.51067 0.34489 0.07221 0.0
C1132 C 0.50857 0.37185 0.03561 0.0
C1133 C 0.53272 0.38408 0.04108 0.0
C1134 C 0.54582 0.37644 0.06226 0.0
C1135 C 0.53494 0.35697 0.07764 0.0
H1136 H 0.64789 0.25631 0.27605 0.0
H1137 H 0.69563 0.25635 0.2166 0.0
H1138 H 0.61293 0.26211 0.24749 0.0
H1139 H 0.66076 0.26237 0.188 0.0
H1140 H 0.58644 0.24534 0.1441 0.0
H1141 H 0.62181 0.24063 0.17242 0.0
H1142 H 0.5974 0.2919 0.21874 0.0
H1143 H 0.56167 0.29613 0.1907 0.0
C1144 C 0.65099 0.25783 0.25688 0.0
C1145 C 0.67455 0.25582 0.24862 0.0
C1146 C 0.63094 0.26119 0.24048 0.0
C1147 C 0.63397 0.2627 0.2154 0.0
C1148 C 0.65761 0.26088 0.20716 0.0
C1149 C 0.67763 0.25745 0.22356 0.0
C1150 C 0.58864 0.25567 0.16029 0.0
C1151 C 0.57116 0.27107 0.16513 0.0
C1152 C 0.60903 0.25307 0.17649 0.0
C1153 C 0.6125 0.26586 0.19792 0.0
C1154 C 0.59514 0.28147 0.20262 0.0
C1155 C 0.57471 0.28402 0.18644 0.0
H1156 H 0.43164 0.1118 0.02693 0.0
H1157 H 0.50116 0.09834 0.0637 0.0
H1158 H 0.43315 0.14971 0.04802 0.0
H1159 H 0.50219 0.13554 0.08606 0.0
H1160 H 0.51165 0.2187 0.09892 0.0
H1161 H 0.50974 0.17844 0.08187 0.0
H1162 H 0.42918 0.16776 0.08366 0.0
H1163 H 0.43123 0.20865 0.0992 0.0
C1164 C 0.44698 0.11677 0.03997 0.0
C1165 C 0.46629 0.10226 0.04368 0.0
C1166 C 0.44784 0.13845 0.05224 0.0
C1167 C 0.46782 0.1459 0.06889 0.0
C1168 C 0.48677 0.13081 0.07307 0.0
C1169 C 0.48613 0.10938 0.06042 0.0
C1170 C 0.49359 0.20758 0.09584 0.0
C1171 C 0.47159 0.21689 0.10015 0.0
C1172 C 0.49243 0.18438 0.08616 0.0
C1173 C 0.46925 0.16974 0.08104 0.0
C1174 C 0.44735 0.17868 0.08661 0.0
C1175 C 0.4485 0.20206 0.09576 0.0
H1176 H 0.2912 0.3254 0.72469 0.0
H1177 H 0.22063 0.35328 0.71434 0.0
H1178 H 0.31295 0.36796 0.72599 0.0
H1179 H 0.24226 0.39564 0.71554 0.0
H1180 H 0.28476 0.45763 0.76131 0.0
H1181 H 0.26349 0.41751 0.74987 0.0
H1182 H 0.3236 0.41014 0.70455 0.0
H1183 H 0.34521 0.45076 0.71622 0.0
C1184 C 0.2804 0.34062 0.72214 0.0
C1185 C 0.25417 0.33599 0.71987 0.0
C1186 C 0.29285 0.365 0.72283 0.0
C1187 C 0.27929 0.38517 0.72123 0.0
C1188 C 0.25321 0.3805 0.71733 0.0
C1189 C 0.24081 0.35624 0.71667 0.0
C1190 C 0.29338 0.44766 0.74866 0.0
C1191 C 0.31674 0.45737 0.73975 0.0
C1192 C 0.28107 0.42468 0.74196 0.0
C1193 C 0.29181 0.41061 0.72625 0.0
C1194 C 0.31491 0.42051 0.71678 0.0
C1195 C 0.32719 0.44381 0.72331 0.0
H1196 H 0.29429 0.70428 0.79304 0.0
H1197 H 0.26695 0.69357 0.71931 0.0
H1198 H 0.31408 0.66681 0.79344 0.0
H1199 H 0.28649 0.65582 0.71965 0.0
H1200 H 0.34424 0.60008 0.72439 0.0
H1201 H 0.32765 0.63974 0.72207 0.0
H1202 H 0.29948 0.62256 0.79323 0.0
H1203 H 0.31598 0.58364 0.79569 0.0
C1204 C 0.29263 0.69389 0.7769 0.0
C1205 C 0.27925 0.70185 0.75613 0.0
C1206 C 0.30386 0.6724 0.77711 0.0
C1207 C 0.30187 0.65826 0.75656 0.0
C1208 C 0.28867 0.66642 0.73566 0.0
C1209 C 0.27735 0.68792 0.7355 0.0
C1210 C 0.33459 0.60488 0.73953 0.0
C1211 C 0.3315 0.5886 0.7602 0.0
C1212 C 0.32498 0.62752 0.73817 0.0
C1213 C 0.31236 0.63442 0.75755 0.0
C1214 C 0.30943 0.61812 0.77814 0.0
C1215 C 0.3188 0.59561 0.77944 0.0
H1216 H 0.88978 0.5542 0.50132 0.0
H1217 H 0.94159 0.50171 0.49753 0.0
H1218 H 0.85537 0.51992 0.50364 0.0
H1219 H 0.90731 0.46802 0.4979 0.0
H1220 H 0.84934 0.4104 0.5278 0.0
H1221 H 0.88072 0.44687 0.52649 0.0
H1222 H 0.82967 0.48711 0.48257 0.0
H1223 H 0.79752 0.45039 0.48492 0.0
C1224 C 0.89388 0.53544 0.50082 0.0
C1225 C 0.91863 0.53085 0.49939 0.0
C1226 C 0.87406 0.51579 0.50183 0.0
C1227 C 0.87853 0.49112 0.5013 0.0
C1228 C 0.90314 0.48669 0.49897 0.0
C1229 C 0.92288 0.50618 0.49828 0.0
C1230 C 0.84471 0.42707 0.51797 0.0
C1231 C 0.82109 0.42746 0.50621 0.0
C1232 C 0.86281 0.44798 0.51704 0.0
C1233 C 0.85804 0.46982 0.50388 0.0
C1234 C 0.834 0.4706 0.49287 0.0
C1235 C 0.8156 0.44961 0.49416 0.0
H1236 H 0.76872 0.8225 0.87104 0.0
H1237 H 0.81828 0.89103 0.85899 0.0
H1238 H 0.73295 0.84485 0.8665 0.0
H1239 H 0.78269 0.91389 0.85579 0.0
H1240 H 0.71294 0.94289 0.82186 0.0
H1241 H 0.74949 0.922 0.82972 0.0
H1242 H 0.7096 0.87147 0.8822 0.0
H1243 H 0.67267 0.89152 0.87311 0.0
C1244 C 0.77193 0.84249 0.86802 0.0
C1245 C 0.79619 0.85507 0.86539 0.0
C1246 C 0.75142 0.85541 0.86549 0.0
C1247 C 0.75473 0.88132 0.86068 0.0
C1248 C 0.77923 0.89394 0.85892 0.0
C1249 C 0.79969 0.88092 0.86099 0.0
C1250 C 0.71207 0.92737 0.83514 0.0
C1251 C 0.68988 0.91874 0.84672 0.0
C1252 C 0.73312 0.91544 0.83982 0.0
C1253 C 0.73267 0.89486 0.8566 0.0
C1254 C 0.71061 0.88681 0.86874 0.0
C1255 C 0.68943 0.89843 0.86367 0.0
H1256 H 0.6481 0.50571 0.93846 0.0
H1257 H 0.62359 0.52345 0.00682 0.0
H1258 H 0.68937 0.52832 0.94778 0.0
H1259 H 0.66446 0.54746 0.0158 0.0
H1260 H 0.74828 0.56775 0.0347 0.0
H1261 H 0.70636 0.5456 0.02666 0.0
H1262 H 0.71157 0.56752 0.95055 0.0
H1263 H 0.75383 0.58814 0.95855 0.0
C1264 C 0.65157 0.51479 0.95538 0.0
C1265 C 0.63279 0.51292 0.97192 0.0
C1266 C 0.67516 0.52794 0.96071 0.0
C1267 C 0.68037 0.54004 0.98251 0.0
C1268 C 0.66138 0.53814 0.99902 0.0
C1269 C 0.63791 0.52453 0.99386 0.0
C1270 C 0.74031 0.56786 0.01631 0.0
C1271 C 0.75435 0.57941 0.99722 0.0
C1272 C 0.71622 0.55526 0.01166 0.0
C1273 C 0.70551 0.55442 0.98786 0.0
C1274 C 0.71935 0.56701 0.96899 0.0
C1275 C 0.74354 0.57907 0.97358 0.0
H1276 H 0.28585 0.64035 0.26297 0.0
H1277 H 0.22205 0.67961 0.25706 0.0
H1278 H 0.25848 0.60146 0.2714 0.0
H1279 H 0.19469 0.64087 0.26588 0.0
H1280 H 0.14988 0.56421 0.25875 0.0
H1281 H 0.17773 0.60235 0.24894 0.0
H1282 H 0.23297 0.57999 0.30209 0.0
H1283 H 0.20543 0.54155 0.31137 0.0
C1284 C 0.26599 0.64068 0.26369 0.0
C1285 C 0.2561 0.66303 0.25934 0.0
C1286 C 0.25029 0.61841 0.26856 0.0
C1287 C 0.22434 0.61799 0.26931 0.0
C1288 C 0.21451 0.6404 0.26501 0.0
C1289 C 0.23019 0.66263 0.26001 0.0
C1290 C 0.168 0.5674 0.26829 0.0
C1291 C 0.17541 0.54983 0.28585 0.0
C1292 C 0.18393 0.58936 0.26277 0.0
C1293 C 0.2076 0.59434 0.27477 0.0
C1294 C 0.21504 0.57665 0.29224 0.0
C1295 C 0.19917 0.55464 0.29767 0.0
H1296 H 0.92961 0.4503 0.06953 0.0
H1297 H 0.97892 0.50902 0.10376 0.0
H1298 H 0.9006 0.47931 0.05687 0.0
H1299 H 0.9496 0.538 0.09128 0.0
H1300 H 0.87856 0.57755 0.07803 0.0
H1301 H 0.90566 0.548 0.09575 0.0
H1302 H 0.9035 0.5151 0.02687 0.0
H1303 H 0.87678 0.5441 0.00935 0.0
C1304 C 0.93427 0.46938 0.07438 0.0
C1305 C 0.95678 0.47736 0.0874 0.0
C1306 C 0.91759 0.48599 0.0672 0.0
C1307 C 0.92293 0.511 0.0729 0.0
C1308 C 0.94489 0.5188 0.08679 0.0
C1309 C 0.96167 0.50218 0.09392 0.0
C1310 C 0.88389 0.56397 0.06675 0.0
C1311 C 0.87546 0.56323 0.04228 0.0
C1312 C 0.89944 0.54713 0.07686 0.0
C1313 C 0.9065 0.52907 0.06274 0.0
C1314 C 0.89806 0.52847 0.03835 0.0
C1315 C 0.88285 0.5453 0.02826 0.0
H1316 H 0.06738 0.97185 0.98809 0.0
H1317 H 0.09777 0.98392 0.06073 0.0
H1318 H 0.10151 0.94918 0.98085 0.0
H1319 H 0.13203 0.96104 0.0536 0.0
H1320 H 0.20179 0.93661 0.02352 0.0
H1321 H 0.16965 0.96229 0.02972 0.0
H1322 H 0.11425 0.90919 0.99473 0.0
H1323 H 0.14624 0.88369 0.9884 0.0
C1324 C 0.08159 0.96993 0.00241 0.0
C1325 C 0.08015 0.98005 0.02483 0.0
C1326 C 0.10104 0.95675 0.99835 0.0
C1327 C 0.11952 0.95321 0.01666 0.0
C1328 C 0.1183 0.96368 0.039 0.0
C1329 C 0.09871 0.97677 0.04311 0.0
C1330 C 0.18277 0.93047 0.01706 0.0
C1331 C 0.17664 0.90806 0.00543 0.0
C1332 C 0.16432 0.94513 0.02075 0.0
C1333 C 0.13935 0.93786 0.01268 0.0
C1334 C 0.13332 0.91554 1.0009 0.0
C1335 C 0.15168 0.90082 0.99739 0.0
loop_
_geom_bond_atom_site_label_1
_geom_bond_atom_site_label_2
_geom_bond_distance
_geom_bond_site_symmetry_2
_ccdc_geom_bond_type
H0 C7 0.929 1_655 S
H1 C10 0.930 . S
H2 C12 0.929 . S
H3 C4 0.969 . S
C4 H3 0.969 . S
C4 O5 1.550 1_565 S
C4 H6 0.973 . S
O5 C4 1.550 1_545 S
O5 C11 1.412 . S
H6 C4 0.973 . S
C7 H0 0.929 1_455 S
C7 C8 1.400 . S
C7 C9 1.364 . S
C8 C7 1.400 . S
C8 C12 1.377 . S
C9 C7 1.364 . S
C9 C10 1.374 . S
C10 H1 0.930 . S
C10 C9 1.374 . S
C10 C11 1.383 . S
C11 O5 1.412 . S
C11 C10 1.383 . S
C11 C12 1.394 . S
C12 H2 0.929 . S
C12 C8 1.377 . S
C12 C11 1.394 . S
H13 C20 0.929 . S
H14 C23 0.930 . S
H15 C25 0.929 . S
H16 C17 0.969 . S
C17 H16 0.969 . S
C17 O18 1.550 . S
C17 H19 0.973 . S
O18 C17 1.550 . S
O18 C24 1.412 . S
H19 C17 0.973 . S
C20 H13 0.929 . S
C20 C21 1.400 . S
C20 C22 1.364 . S
C21 C20 1.400 . S
C21 C25 1.377 . S
C22 C20 1.364 . S
C22 C23 1.374 . S
C23 H14 0.930 . S
C23 C22 1.374 . S
C23 C24 1.383 . S
C24 O18 1.412 . S
C24 C23 1.383 . S
C24 C25 1.394 . S
C25 H15 0.929 . S
C25 C21 1.377 . S
C25 C24 1.394 . S
H26 C33 0.929 . S
H27 C36 0.930 . S
H28 C38 0.929 . S
H29 C30 0.969 . S
C30 H29 0.969 . S
C30 O31 1.550 . S
C30 H32 0.973 . S
O31 C30 1.550 . S
O31 C37 1.412 . S
H32 C30 0.973 . S
C33 H26 0.929 . S
C33 C34 1.400 . S
C33 C35 1.364 . S
C34 C33 1.400 . S
C34 C38 1.377 . S
C35 C33 1.364 . S
C35 C36 1.374 . S
C36 H27 0.930 . S
C36 C35 1.374 . S
C36 C37 1.383 . S
C37 O31 1.412 . S
C37 C36 1.383 . S
C37 C38 1.394 . S
C38 H28 0.929 . S
C38 C34 1.377 . S
C38 C37 1.394 . S
H39 C46 0.929 . S
H40 C49 0.930 . S
H41 C51 0.929 . S
H42 C43 0.969 . S
C43 H42 0.969 . S
C43 O44 1.550 . S
C43 H45 0.973 . S
O44 C43 1.550 . S
O44 C50 1.412 . S
H45 C43 0.973 . S
C46 H39 0.929 . S
C46 C47 1.400 . S
C46 C48 1.364 . S
C47 C46 1.400 . S
C47 C51 1.377 . S
C48 C46 1.364 . S
C48 C49 1.374 . S
C49 H40 0.930 . S
C49 C48 1.374 . S
C49 C50 1.383 . S
C50 O44 1.412 . S
C50 C49 1.383 . S
C50 C51 1.394 . S
C51 H41 0.929 . S
C51 C47 1.377 . S
C51 C50 1.394 . S
H52 C59 0.929 . S
H53 C62 0.930 . S
H54 C64 0.929 . S
H55 C56 0.969 . S
C56 H55 0.969 . S
C56 O57 1.550 . S
C56 H58 0.973 . S
O57 C56 1.550 . S
O57 C63 1.412 . S
H58 C56 0.973 . S
C59 H52 0.929 . S
C59 C60 1.400 . S
C59 C61 1.364 . S
C60 C59 1.400 . S
C60 C64 1.377 . S
C61 C59 1.364 . S
C61 C62 1.374 . S
C62 H53 0.930 . S
C62 C61 1.374 . S
C62 C63 1.383 . S
C63 O57 1.412 . S
C63 C62 1.383 . S
C63 C64 1.394 . S
C64 H54 0.929 . S
C64 C60 1.377 . S
C64 C63 1.394 . S
H65 C72 0.929 . S
H66 C75 0.930 . S
H67 C77 0.929 . S
H68 C69 0.969 . S
C69 H68 0.969 . S
C69 O70 1.550 . S
C69 H71 0.973 . S
O70 C69 1.550 . S
O70 C76 1.412 . S
H71 C69 0.973 . S
C72 H65 0.929 . S
C72 C73 1.400 . S
C72 C74 1.364 . S
C73 C72 1.400 . S
C73 C77 1.377 . S
C74 C72 1.364 . S
C74 C75 1.374 . S
C75 H66 0.930 . S
C75 C74 1.374 . S
C75 C76 1.383 . S
C76 O70 1.412 . S
C76 C75 1.383 . S
C76 C77 1.394 . S
C77 H67 0.929 . S
C77 C73 1.377 . S
C77 C76 1.394 . S
H78 C85 0.929 . S
H79 C88 0.930 . S
H80 C90 0.929 1_455 S
H81 C82 0.969 1_655 S
C82 H81 0.969 1_455 S
C82 O83 1.550 . S
C82 H84 0.973 1_455 S
O83 C82 1.550 . S
O83 C89 1.412 1_455 S
H84 C82 0.973 1_655 S
C85 H78 0.929 . S
C85 C86 1.400 . S
C85 C87 1.364 . S
C86 C85 1.400 . S
C86 C90 1.377 . S
C87 C85 1.364 . S
C87 C88 1.374 . S
C88 H79 0.930 . S
C88 C87 1.374 . S
C88 C89 1.383 . S
C89 O83 1.412 1_655 S
C89 C88 1.383 . S
C89 C90 1.394 . S
C90 H80 0.929 1_655 S
C90 C86 1.377 . S
C90 C89 1.394 . S
H91 C98 0.929 . S
H92 C101 0.930 . S
H93 C103 0.929 . S
H94 C95 0.969 . S
C95 H94 0.969 . S
C95 O96 1.550 . S
C95 H97 0.973 . S
O96 C95 1.550 . S
O96 C102 1.412 . S
H97 C95 0.973 . S
C98 H91 0.929 . S
C98 C99 1.400 . S
C98 C100 1.364 . S
C99 C98 1.400 . S
C99 C103 1.377 . S
C100 C98 1.364 . S
C100 C101 1.374 . S
C101 H92 0.930 . S
C101 C100 1.374 . S
C101 C102 1.383 . S
C102 O96 1.412 . S
C102 C101 1.383 . S
C102 C103 1.394 . S
C103 H93 0.929 . S
C103 C99 1.377 . S
C103 C102 1.394 . S
H104 C111 0.929 . S
H105 C114 0.930 . S
H106 C116 0.929 . S
H107 C108 0.969 . S
C108 H107 0.969 . S
C108 O109 1.550 . S
C108 H110 0.973 . S
O109 C108 1.550 . S
O109 C115 1.412 . S
H110 C108 0.973 . S
C111 H104 0.929 . S
C111 C112 1.400 . S
C111 C113 1.364 . S
C112 C111 1.400 . S
C112 C116 1.377 . S
C113 C111 1.364 . S
C113 C114 1.374 . S
C114 H105 0.930 . S
C114 C113 1.374 . S
C114 C115 1.383 . S
C115 O109 1.412 . S
C115 C114 1.383 . S
C115 C116 1.394 . S
C116 H106 0.929 . S
C116 C112 1.377 . S
C116 C115 1.394 . S
H117 C124 0.929 . S
H118 C127 0.930 . S
H119 C129 0.929 . S
H120 C121 0.969 . S
C121 H120 0.969 . S
C121 O122 1.550 . S
C121 H123 0.973 . S
O122 C121 1.550 . S
O122 C128 1.412 . S
H123 C121 0.973 . S
C124 H117 0.929 . S
C124 C125 1.400 . S
C124 C126 1.364 . S
C125 C124 1.400 . S
C125 C129 1.377 . S
C126 C124 1.364 . S
C126 C127 1.374 . S
C127 H118 0.930 . S
C127 C126 1.374 . S
C127 C128 1.383 . S
C128 O122 1.412 . S
C128 C127 1.383 . S
C128 C129 1.394 . S
C129 H119 0.929 . S
C129 C125 1.377 . S
C129 C128 1.394 . S
H130 C137 0.929 . S
H131 C140 0.930 . S
H132 C142 0.929 . S
H133 C134 0.969 . S
C134 H133 0.969 . S
C134 O135 1.550 . S
C134 H136 0.973 . S
O135 C134 1.550 . S
O135 C141 1.412 . S
H136 C134 0.973 . S
C137 H130 0.929 . S
C137 C138 1.400 . S
C137 C139 1.364 . S
C138 C137 1.400 . S
C138 C142 1.377 . S
C139 C137 1.364 . S
C139 C140 1.374 . S
C140 H131 0.930 . S
C140 C139 1.374 . S
C140 C141 1.383 . S
C141 O135 1.412 . S
C141 C140 1.383 . S
C141 C142 1.394 . S
C142 H132 0.929 . S
C142 C138 1.377 . S
C142 C141 1.394 . S
H143 C150 0.929 . S
H144 C153 0.930 . S
H145 C155 0.929 . S
H146 C147 0.969 . S
C147 H146 0.969 . S
C147 O148 1.550 . S
C147 H149 0.973 . S
O148 C147 1.550 . S
O148 C154 1.412 . S
H149 C147 0.973 . S
C150 H143 0.929 . S
C150 C151 1.400 . S
C150 C152 1.364 . S
C151 C150 1.400 . S
C151 C155 1.377 . S
C152 C150 1.364 . S
C152 C153 1.374 . S
C153 H144 0.930 . S
C153 C152 1.374 . S
C153 C154 1.383 . S
C154 O148 1.412 . S
C154 C153 1.383 . S
C154 C155 1.394 . S
C155 H145 0.929 . S
C155 C151 1.377 . S
C155 C154 1.394 . S
H156 C163 0.929 . S
H157 C166 0.930 . S
H158 C168 0.929 . S
H159 C160 0.969 . S
C160 H159 0.969 . S
C160 O161 1.550 . S
C160 H162 0.973 . S
O161 C160 1.550 . S
O161 C167 1.412 . S
H162 C160 0.973 . S
C163 H156 0.929 . S
C163 C164 1.400 . S
C163 C165 1.364 . S
C164 C163 1.400 . S
C164 C168 1.377 . S
C165 C163 1.364 . S
C165 C166 1.374 . S
C166 H157 0.930 . S
C166 C165 1.374 . S
C166 C167 1.383 . S
C167 O161 1.412 . S
C167 C166 1.383 . S
C167 C168 1.394 . S
C168 H158 0.929 . S
C168 C164 1.377 . S
C168 C167 1.394 . S
H169 C176 0.929 1_554 S
H170 C179 0.930 . S
H171 C181 0.929 . S
H172 C173 0.969 . S
C173 H172 0.969 . S
C173 O174 1.550 . S
C173 H175 0.973 . S
O174 C173 1.550 . S
O174 C180 1.412 . S
H175 C173 0.973 . S
C176 H169 0.929 1_556 S
C176 C177 1.400 . S
C176 C178 1.364 . S
C177 C176 1.400 . S
C177 C181 1.377 . S
C178 C176 1.364 . S
C178 C179 1.374 . S
C179 H170 0.930 . S
C179 C178 1.374 . S
C179 C180 1.383 . S
C180 O174 1.412 . S
C180 C179 1.383 . S
C180 C181 1.394 . S
C181 H171 0.929 . S
C181 C177 1.377 . S
C181 C180 1.394 . S
H182 C189 0.929 . S
H183 C192 0.930 . S
H184 C194 0.929 . S
H185 C186 0.969 . S
C186 H185 0.969 . S
C186 O187 1.550 . S
C186 H188 0.973 . S
O187 C186 1.550 . S
O187 C193 1.412 . S
H188 C186 0.973 . S
C189 H182 0.929 . S
C189 C190 1.400 . S
C189 C191 1.364 . S
C190 C189 1.400 . S
C190 C194 1.377 . S
C191 C189 1.364 . S
C191 C192 1.374 . S
C192 H183 0.930 . S
C192 C191 1.374 . S
C192 C193 1.383 . S
C193 O187 1.412 . S
C193 C192 1.383 . S
C193 C194 1.394 . S
C194 H184 0.929 . S
C194 C190 1.377 . S
C194 C193 1.394 . S
H195 C202 0.929 1_554 S
H196 C205 0.930 . S
H197 C207 0.929 . S
H198 C199 0.969 . S
C199 H198 0.969 . S
C199 O200 1.550 . S
C199 H201 0.973 . S
O200 C199 1.550 . S
O200 C206 1.412 . S
H201 C199 0.973 . S
C202 H195 0.929 1_556 S
C202 C203 1.400 . S
C202 C204 1.364 . S
C203 C202 1.400 . S
C203 C207 1.377 . S
C204 C202 1.364 . S
C204 C205 1.374 . S
C205 H196 0.930 . S
C205 C204 1.374 . S
C205 C206 1.383 . S
C206 O200 1.412 . S
C206 C205 1.383 . S
C206 C207 1.394 . S
C207 H197 0.929 . S
C207 C203 1.377 . S
C207 C206 1.394 . S
Zn208 O211 2.048 . S
Zn208 O213 2.039 1_554 S
Zn208 O218 2.042 1_554 S
Zn209 O210 1.962 . S
Zn209 O212 1.986 . S
Zn209 O214 1.996 . S
Zn209 O217 1.943 1_554 S
O210 Zn209 1.962 . S
O210 C215 1.254 . S
O211 Zn208 2.048 . S
O211 C215 1.269 . S
O212 Zn209 1.986 . S
O212 C219 1.262 . S
O213 Zn208 2.039 1_556 S
O213 C221 1.260 . S
O214 Zn209 1.996 . S
O214 C221 1.257 1_554 S
C215 O210 1.254 . S
C215 O211 1.269 . S
C216 O217 1.249 . S
C216 O218 1.270 . S
O217 Zn209 1.943 1_556 S
O217 C216 1.249 . S
O218 Zn208 2.042 1_556 S
O218 C216 1.270 . S
C219 O212 1.262 . S
C219 O220 1.232 . S
O220 C219 1.232 . S
C221 O213 1.260 . S
C221 O214 1.257 1_556 S
Zn222 O225 2.031 . S
Zn222 O227 2.049 . S
Zn222 O232 2.067 . S
Zn223 O224 1.962 . S
Zn223 O226 1.986 . S
Zn223 O228 1.996 . S
Zn223 O231 1.943 . S
O224 Zn223 1.962 . S
O224 C229 1.254 . S
O225 Zn222 2.031 . S
O225 C229 1.269 . S
O226 Zn223 1.986 . S
O226 C233 1.262 . S
O227 Zn222 2.049 . S
O227 C235 1.260 . S
O228 Zn223 1.996 . S
O228 C235 1.257 . S
C229 O224 1.254 . S
C229 O225 1.269 . S
C230 O231 1.249 . S
C230 O232 1.270 . S
O231 Zn223 1.943 . S
O231 C230 1.249 . S
O232 Zn222 2.067 . S
O232 C230 1.270 . S
C233 O226 1.262 . S
C233 O234 1.232 . S
O234 C233 1.232 . S
C235 O227 1.260 . S
C235 O228 1.257 . S
Zn236 O239 2.063 . S
Zn236 O241 2.030 1_554 S
Zn236 O246 2.075 . S
Zn237 O238 1.962 . S
Zn237 O240 1.986 . S
Zn237 O242 1.996 . S
Zn237 O245 1.943 . S
O238 Zn237 1.962 . S
O238 C243 1.254 . S
O239 Zn236 2.063 . S
O239 C243 1.269 . S
O240 Zn237 1.986 . S
O240 C247 1.262 . S
O241 Zn236 2.030 1_556 S
O241 C249 1.260 . S
O242 Zn237 1.996 . S
O242 C249 1.257 1_554 S
C243 O238 1.254 . S
C243 O239 1.269 . S
C244 O245 1.249 . S
C244 O246 1.270 . S
O245 Zn237 1.943 . S
O245 C244 1.249 . S
O246 Zn236 2.075 . S
O246 C244 1.270 . S
C247 O240 1.262 . S
C247 O248 1.232 . S
O248 C247 1.232 . S
C249 O241 1.260 . S
C249 O242 1.257 1_556 S
Zn250 O253 2.031 . S
Zn250 O255 2.034 1_545 S
Zn250 O260 2.067 1_545 S
Zn251 O252 1.962 . S
Zn251 O254 1.986 . S
Zn251 O256 1.996 . S
Zn251 O259 1.943 1_545 S
O252 Zn251 1.962 . S
O252 C257 1.254 . S
O253 Zn250 2.031 . S
O253 C257 1.269 . S
O254 Zn251 1.986 . S
O254 C261 1.262 . S
O255 Zn250 2.034 1_565 S
O255 C263 1.255 1_565 S
O256 Zn251 1.996 . S
O256 C263 1.257 . S
C257 O252 1.254 . S
C257 O253 1.269 . S
C258 O259 1.249 . S
C258 O260 1.270 . S
O259 Zn251 1.943 1_565 S
O259 C258 1.249 . S
O260 Zn250 2.067 1_565 S
O260 C258 1.270 . S
C261 O254 1.262 . S
C261 O262 1.232 . S
O262 C261 1.232 . S
C263 O255 1.255 1_545 S
C263 O256 1.257 . S
Zn264 O267 2.031 . S
Zn264 O269 2.049 . S
Zn264 O274 2.067 . S
Zn265 O266 1.962 . S
Zn265 O268 1.986 . S
Zn265 O270 1.996 . S
Zn265 O273 1.943 . S
O266 Zn265 1.962 . S
O266 C271 1.254 . S
O267 Zn264 2.031 . S
O267 C271 1.269 . S
O268 Zn265 1.986 . S
O268 C275 1.262 . S
O269 Zn264 2.049 . S
O269 C277 1.260 . S
O270 Zn265 1.996 . S
O270 C277 1.257 . S
C271 O266 1.254 . S
C271 O267 1.269 . S
C272 O273 1.249 . S
C272 O274 1.270 . S
O273 Zn265 1.943 . S
O273 C272 1.249 . S
O274 Zn264 2.067 . S
O274 C272 1.270 . S
C275 O268 1.262 . S
C275 O276 1.232 . S
O276 C275 1.232 . S
C277 O269 1.260 . S
C277 O270 1.257 . S
Zn278 O281 2.031 . S
Zn278 O283 2.049 . S
Zn278 O288 2.067 . S
Zn279 O280 1.962 . S
Zn279 O282 1.986 . S
Zn279 O284 1.996 . S
Zn279 O287 1.943 . S
O280 Zn279 1.962 . S
O280 C285 1.254 . S
O281 Zn278 2.031 . S
O281 C285 1.269 . S
O282 Zn279 1.986 . S
O282 C289 1.262 . S
O283 Zn278 2.049 . S
O283 C291 1.260 . S
O284 Zn279 1.996 . S
O284 C291 1.257 . S
C285 O280 1.254 . S
C285 O281 1.269 . S
C286 O287 1.249 . S
C286 O288 1.270 . S
O287 Zn279 1.943 . S
O287 C286 1.249 . S
O288 Zn278 2.067 . S
O288 C286 1.270 . S
C289 O282 1.262 . S
C289 O290 1.232 . S
O290 C289 1.232 . S
C291 O283 1.260 . S
C291 O284 1.257 . S
Zn292 O295 2.031 . S
Zn292 O297 2.049 . S
Zn292 O302 2.067 . S
Zn293 O294 1.962 . S
Zn293 O296 1.986 . S
Zn293 O298 1.996 . S
Zn293 O301 1.943 . S
O294 Zn293 1.962 . S
O294 C299 1.254 . S
O295 Zn292 2.031 . S
O295 C299 1.269 . S
O296 Zn293 1.986 . S
O296 C303 1.262 . S
O297 Zn292 2.049 . S
O297 C305 1.260 . S
O298 Zn293 1.996 . S
O298 C305 1.257 . S
C299 O294 1.254 . S
C299 O295 1.269 . S
C300 O301 1.249 . S
C300 O302 1.270 . S
O301 Zn293 1.943 . S
O301 C300 1.249 . S
O302 Zn292 2.067 . S
O302 C300 1.270 . S
C303 O296 1.262 . S
C303 O304 1.232 . S
O304 C303 1.232 . S
C305 O297 1.260 . S
C305 O298 1.257 . S
Zn306 O309 2.031 . S
Zn306 O311 2.049 . S
Zn306 O316 2.067 . S
Zn307 O308 1.962 . S
Zn307 O310 1.986 . S
Zn307 O312 1.996 1_545 S
Zn307 O315 1.943 . S
O308 Zn307 1.962 . S
O308 C313 1.254 . S
O309 Zn306 2.031 . S
O309 C313 1.269 1_565 S
O310 Zn307 1.986 . S
O310 C317 1.262 . S
O311 Zn306 2.049 . S
O311 C319 1.260 . S
O312 Zn307 1.996 1_565 S
O312 C319 1.257 . S
C313 O308 1.254 . S
C313 O309 1.269 1_545 S
C314 O315 1.249 1_565 S
C314 O316 1.270 . S
O315 Zn307 1.943 . S
O315 C314 1.249 1_545 S
O316 Zn306 2.067 . S
O316 C314 1.270 . S
C317 O310 1.262 . S
C317 O318 1.232 . S
O318 C317 1.232 . S
C319 O311 1.260 . S
C319 O312 1.257 . S
Zn320 O323 2.031 . S
Zn320 O325 2.049 1_455 S
Zn320 O330 2.067 1_455 S
Zn321 O322 1.962 . S
Zn321 O324 1.986 . S
Zn321 O326 1.996 . S
Zn321 O329 1.943 1_455 S
O322 Zn321 1.962 . S
O322 C327 1.254 . S
O323 Zn320 2.031 . S
O323 C327 1.269 . S
O324 Zn321 1.986 . S
O324 C331 1.262 . S
O325 Zn320 2.049 1_655 S
O325 C333 1.260 . S
O326 Zn321 1.996 . S
O326 C333 1.257 1_455 S
C327 O322 1.254 . S
C327 O323 1.269 . S
C328 O329 1.249 . S
C328 O330 1.270 . S
O329 Zn321 1.943 1_655 S
O329 C328 1.249 . S
O330 Zn320 2.067 1_655 S
O330 C328 1.270 . S
C331 O324 1.262 . S
C331 O332 1.232 . S
O332 C331 1.232 . S
C333 O325 1.260 . S
C333 O326 1.257 1_655 S
Zn334 O337 2.031 . S
Zn334 O339 2.049 . S
Zn334 O344 2.067 . S
Zn335 O336 1.962 . S
Zn335 O338 1.986 . S
Zn335 O340 1.996 . S
Zn335 O343 1.943 . S
O336 Zn335 1.962 . S
O336 C341 1.254 . S
O337 Zn334 2.031 . S
O337 C341 1.269 . S
O338 Zn335 1.986 . S
O338 C345 1.262 . S
O339 Zn334 2.049 . S
O339 C347 1.260 . S
O340 Zn335 1.996 . S
O340 C347 1.257 . S
C341 O336 1.254 . S
C341 O337 1.269 . S
C342 O343 1.249 . S
C342 O344 1.270 . S
O343 Zn335 1.943 . S
O343 C342 1.249 . S
O344 Zn334 2.067 . S
O344 C342 1.270 . S
C345 O338 1.262 . S
C345 O346 1.232 . S
O346 C345 1.232 . S
C347 O339 1.260 . S
C347 O340 1.257 . S
Zn348 O351 2.031 1_655 S
Zn348 O353 2.049 . S
Zn348 O358 2.067 . S
Zn349 O350 1.962 . S
Zn349 O352 1.986 . S
Zn349 O354 1.950 1_455 S
Zn349 O357 1.943 . S
O350 Zn349 1.962 . S
O350 C355 1.254 . S
O351 Zn348 2.031 1_455 S
O351 C355 1.269 . S
O352 Zn349 1.986 . S
O352 C359 1.262 . S
O353 Zn348 2.049 . S
O353 C361 1.260 . S
O354 Zn349 1.950 1_655 S
O354 C361 1.302 . S
C355 O350 1.254 . S
C355 O351 1.269 . S
C356 O357 1.249 . S
C356 O358 1.270 1_455 S
O357 Zn349 1.943 . S
O357 C356 1.249 . S
O358 Zn348 2.067 . S
O358 C356 1.270 1_655 S
C359 O352 1.262 . S
C359 O360 1.232 . S
O360 C359 1.232 . S
C361 O353 1.260 . S
C361 O354 1.302 . S
Zn362 O365 2.031 . S
Zn362 O367 2.049 . S
Zn362 O372 2.067 . S
Zn363 O364 1.962 . S
Zn363 O366 1.986 . S
Zn363 O368 1.996 . S
Zn363 O371 1.943 . S
O364 Zn363 1.962 . S
O364 C369 1.254 . S
O365 Zn362 2.031 . S
O365 C369 1.269 . S
O366 Zn363 1.986 . S
O366 C373 1.262 . S
O367 Zn362 2.049 . S
O367 C375 1.260 . S
O368 Zn363 1.996 . S
O368 C375 1.257 . S
C369 O364 1.254 . S
C369 O365 1.269 . S
C370 O371 1.249 . S
C370 O372 1.270 . S
O371 Zn363 1.943 . S
O371 C370 1.249 . S
O372 Zn362 2.067 . S
O372 C370 1.270 . S
C373 O366 1.262 . S
C373 O374 1.232 . S
O374 C373 1.232 . S
C375 O367 1.260 . S
C375 O368 1.257 . S
H376 C384 0.950 . S
H377 C389 0.950 . S
H378 C386 0.950 . S
H379 C388 0.950 . S
H380 C390 0.950 . S
H381 C392 0.950 . S
H382 C394 0.950 . S
H383 C395 0.950 . S
C384 H376 0.950 . S
C384 C385 1.386 . S
C384 C386 1.391 . S
C385 C384 1.386 . S
C385 C389 1.393 . S
C386 H378 0.950 . S
C386 C384 1.391 . S
C386 C387 1.400 . S
C387 C386 1.400 . S
C387 C388 1.398 . S
C387 C393 1.491 . S
C388 H379 0.950 . S
C388 C387 1.398 . S
C388 C389 1.391 . S
C389 H377 0.950 . S
C389 C385 1.393 . S
C389 C388 1.391 . S
C390 H380 0.950 . S
C390 C391 1.386 . S
C390 C392 1.391 . S
C391 C390 1.386 . S
C391 C395 1.393 . S
C392 H381 0.950 . S
C392 C390 1.391 . S
C392 C393 1.400 . S
C393 C387 1.491 . S
C393 C392 1.400 . S
C393 C394 1.398 . S
C394 H382 0.950 . S
C394 C393 1.398 . S
C394 C395 1.391 . S
C395 H383 0.950 . S
C395 C391 1.393 . S
C395 C394 1.391 . S
H396 C404 0.950 . S
H397 C409 0.950 . S
H398 C406 0.950 . S
H399 C408 0.950 . S
H400 C410 0.950 . S
H401 C412 0.950 . S
H402 C414 0.950 . S
H403 C415 0.950 . S
C404 H396 0.950 . S
C404 C405 1.386 . S
C404 C406 1.391 . S
C405 C404 1.386 . S
C405 C409 1.393 . S
C406 H398 0.950 . S
C406 C404 1.391 . S
C406 C407 1.400 . S
C407 C406 1.400 . S
C407 C408 1.398 . S
C407 C413 1.491 . S
C408 H399 0.950 . S
C408 C407 1.398 . S
C408 C409 1.391 . S
C409 H397 0.950 . S
C409 C405 1.393 . S
C409 C408 1.391 . S
C410 H400 0.950 . S
C410 C411 1.386 . S
C410 C412 1.391 . S
C411 C410 1.386 . S
C411 C415 1.393 . S
C412 H401 0.950 . S
C412 C410 1.391 . S
C412 C413 1.400 . S
C413 C407 1.491 . S
C413 C412 1.400 . S
C413 C414 1.398 . S
C414 H402 0.950 . S
C414 C413 1.398 . S
C414 C415 1.391 . S
C415 H403 0.950 . S
C415 C411 1.393 . S
C415 C414 1.391 . S
H416 C424 0.950 . S
H417 C429 0.950 . S
H418 C426 0.950 . S
H419 C428 0.950 . S
H420 C430 0.950 . S
H421 C432 0.950 . S
H422 C434 0.950 . S
H423 C435 0.950 . S
C424 H416 0.950 . S
C424 C425 1.386 . S
C424 C426 1.391 . S
C425 C424 1.386 . S
C425 C429 1.393 . S
C426 H418 0.950 . S
C426 C424 1.391 . S
C426 C427 1.400 . S
C427 C426 1.400 . S
C427 C428 1.398 . S
C427 C433 1.491 . S
C428 H419 0.950 . S
C428 C427 1.398 . S
C428 C429 1.391 . S
C429 H417 0.950 . S
C429 C425 1.393 . S
C429 C428 1.391 . S
C430 H420 0.950 . S
C430 C431 1.386 . S
C430 C432 1.391 . S
C431 C430 1.386 . S
C431 C435 1.393 . S
C432 H421 0.950 . S
C432 C430 1.391 . S
C432 C433 1.400 . S
C433 C427 1.491 . S
C433 C432 1.400 . S
C433 C434 1.398 . S
C434 H422 0.950 . S
C434 C433 1.398 . S
C434 C435 1.391 . S
C435 H423 0.950 . S
C435 C431 1.393 . S
C435 C434 1.391 . S
H436 C444 0.950 . S
H437 C449 0.950 . S
H438 C446 0.950 . S
H439 C448 0.950 . S
H440 C450 0.950 . S
H441 C452 0.950 . S
H442 C454 0.950 . S
H443 C455 0.950 . S
C444 H436 0.950 . S
C444 C445 1.386 1_655 S
C444 C446 1.391 . S
C445 C444 1.386 1_455 S
C445 C449 1.393 . S
C446 H438 0.950 . S
C446 C444 1.391 . S
C446 C447 1.400 . S
C447 C446 1.400 . S
C447 C448 1.398 1_655 S
C447 C453 1.491 . S
C448 H439 0.950 . S
C448 C447 1.398 1_455 S
C448 C449 1.391 . S
C449 H437 0.950 . S
C449 C445 1.393 . S
C449 C448 1.391 . S
C450 H440 0.950 . S
C450 C451 1.385 . S
C450 C452 1.391 1_545 S
C451 C450 1.385 . S
C451 C455 1.391 1_545 S
C452 H441 0.950 . S
C452 C450 1.391 1_565 S
C452 C453 1.400 . S
C453 C447 1.491 . S
C453 C452 1.400 . S
C453 C454 1.398 . S
C454 H442 0.950 . S
C454 C453 1.398 . S
C454 C455 1.391 . S
C455 H443 0.950 . S
C455 C451 1.391 1_565 S
C455 C454 1.391 . S
H456 C464 0.950 . S
H457 C469 0.950 . S
H458 C466 0.950 . S
H459 C468 0.950 . S
H460 C470 0.950 . S
H461 C472 0.950 . S
H462 C474 0.950 . S
H463 C475 0.950 . S
C464 H456 0.950 . S
C464 C465 1.386 . S
C464 C466 1.391 . S
C465 C464 1.386 . S
C465 C469 1.393 . S
C466 H458 0.950 . S
C466 C464 1.391 . S
C466 C467 1.400 . S
C467 C466 1.400 . S
C467 C468 1.398 . S
C467 C473 1.491 . S
C468 H459 0.950 . S
C468 C467 1.398 . S
C468 C469 1.391 . S
C469 H457 0.950 . S
C469 C465 1.393 . S
C469 C468 1.391 . S
C470 H460 0.950 . S
C470 C471 1.386 . S
C470 C472 1.391 . S
C471 C470 1.386 . S
C471 C475 1.393 . S
C472 H461 0.950 . S
C472 C470 1.391 . S
C472 C473 1.400 . S
C473 C467 1.491 . S
C473 C472 1.400 . S
C473 C474 1.398 . S
C474 H462 0.950 . S
C474 C473 1.398 . S
C474 C475 1.391 . S
C475 H463 0.950 . S
C475 C471 1.393 . S
C475 C474 1.391 . S
H476 C484 0.950 . S
H477 C489 0.950 . S
H478 C486 0.950 . S
H479 C488 0.950 . S
H480 C490 0.950 . S
H481 C492 0.950 . S
H482 C494 0.950 . S
H483 C495 0.950 . S
C484 H476 0.950 . S
C484 C485 1.386 . S
C484 C486 1.391 . S
C485 C484 1.386 . S
C485 C489 1.393 . S
C486 H478 0.950 . S
C486 C484 1.391 . S
C486 C487 1.400 . S
C487 C486 1.400 . S
C487 C488 1.398 . S
C487 C493 1.491 . S
C488 H479 0.950 . S
C488 C487 1.398 . S
C488 C489 1.391 . S
C489 H477 0.950 . S
C489 C485 1.393 . S
C489 C488 1.391 . S
C490 H480 0.950 . S
C490 C491 1.386 . S
C490 C492 1.391 . S
C491 C490 1.386 . S
C491 C495 1.393 . S
C492 H481 0.950 . S
C492 C490 1.391 . S
C492 C493 1.400 . S
C493 C487 1.491 . S
C493 C492 1.400 . S
C493 C494 1.398 . S
C494 H482 0.950 . S
C494 C493 1.398 . S
C494 C495 1.391 . S
C495 H483 0.950 . S
C495 C491 1.393 . S
C495 C494 1.391 . S
H496 C504 0.950 . S
H497 C509 0.950 . S
H498 C506 0.950 . S
H499 C508 0.950 . S
H500 C510 0.950 . S
H501 C512 0.950 . S
H502 C514 0.950 . S
H503 C515 0.950 . S
C504 H496 0.950 . S
C504 C505 1.386 . S
C504 C506 1.391 . S
C505 C504 1.386 . S
C505 C509 1.393 . S
C506 H498 0.950 . S
C506 C504 1.391 . S
C506 C507 1.400 . S
C507 C506 1.400 . S
C507 C508 1.398 . S
C507 C513 1.491 . S
C508 H499 0.950 . S
C508 C507 1.398 . S
C508 C509 1.391 . S
C509 H497 0.950 . S
C509 C505 1.393 . S
C509 C508 1.391 . S
C510 H500 0.950 . S
C510 C511 1.386 . S
C510 C512 1.391 . S
C511 C510 1.386 . S
C511 C515 1.393 . S
C512 H501 0.950 . S
C512 C510 1.391 . S
C512 C513 1.400 . S
C513 C507 1.491 . S
C513 C512 1.400 . S
C513 C514 1.398 . S
C514 H502 0.950 . S
C514 C513 1.398 . S
C514 C515 1.391 . S
C515 H503 0.950 . S
C515 C511 1.393 . S
C515 C514 1.391 . S
H516 C524 0.950 . S
H517 C529 0.950 . S
H518 C526 0.950 . S
H519 C528 0.950 . S
H520 C530 0.950 . S
H521 C532 0.950 . S
H522 C534 0.950 . S
H523 C535 0.950 1_545 S
C524 H516 0.950 . S
C524 C525 1.386 . S
C524 C526 1.391 . S
C525 C524 1.386 . S
C525 C529 1.393 . S
C526 H518 0.950 . S
C526 C524 1.391 . S
C526 C527 1.400 . S
C527 C526 1.400 . S
C527 C528 1.398 . S
C527 C533 1.491 . S
C528 H519 0.950 . S
C528 C527 1.398 . S
C528 C529 1.391 . S
C529 H517 0.950 . S
C529 C525 1.393 . S
C529 C528 1.391 . S
C530 H520 0.950 . S
C530 C531 1.386 . S
C530 C532 1.391 . S
C531 C530 1.386 . S
C531 C535 1.393 . S
C532 H521 0.950 . S
C532 C530 1.391 . S
C532 C533 1.400 . S
C533 C527 1.491 . S
C533 C532 1.400 . S
C533 C534 1.398 . S
C534 H522 0.950 . S
C534 C533 1.398 . S
C534 C535 1.391 . S
C535 H523 0.950 1_565 S
C535 C531 1.393 . S
C535 C534 1.391 . S
H536 C544 0.950 . S
H537 C549 0.950 . S
H538 C546 0.950 . S
H539 C548 0.950 . S
H540 C550 0.950 . S
H541 C552 0.950 . S
H542 C554 0.950 . S
H543 C555 0.950 . S
C544 H536 0.950 . S
C544 C545 1.386 . S
C544 C546 1.391 . S
C545 C544 1.386 . S
C545 C549 1.393 . S
C546 H538 0.950 . S
C546 C544 1.391 . S
C546 C547 1.400 . S
C547 C546 1.400 . S
C547 C548 1.398 . S
C547 C553 1.491 . S
C548 H539 0.950 . S
C548 C547 1.398 . S
C548 C549 1.391 . S
C549 H537 0.950 . S
C549 C545 1.393 . S
C549 C548 1.391 . S
C550 H540 0.950 . S
C550 C551 1.386 . S
C550 C552 1.391 . S
C551 C550 1.386 . S
C551 C555 1.393 . S
C552 H541 0.950 . S
C552 C550 1.391 . S
C552 C553 1.400 . S
C553 C547 1.491 . S
C553 C552 1.400 . S
C553 C554 1.398 . S
C554 H542 0.950 . S
C554 C553 1.398 . S
C554 C555 1.391 . S
C555 H543 0.950 . S
C555 C551 1.393 . S
C555 C554 1.391 . S
H556 C564 0.950 . S
H557 C569 0.950 . S
H558 C566 0.950 . S
H559 C568 0.950 . S
H560 C570 0.950 . S
H561 C572 0.950 . S
H562 C574 0.950 . S
H563 C575 0.950 . S
C564 H556 0.950 . S
C564 C565 1.386 . S
C564 C566 1.391 . S
C565 C564 1.386 . S
C565 C569 1.393 . S
C566 H558 0.950 . S
C566 C564 1.391 . S
C566 C567 1.400 . S
C567 C566 1.400 . S
C567 C568 1.398 . S
C567 C573 1.491 . S
C568 H559 0.950 . S
C568 C567 1.398 . S
C568 C569 1.391 . S
C569 H557 0.950 . S
C569 C565 1.393 . S
C569 C568 1.391 . S
C570 H560 0.950 . S
C570 C571 1.386 . S
C570 C572 1.391 . S
C571 C570 1.386 . S
C571 C575 1.393 . S
C572 H561 0.950 . S
C572 C570 1.391 . S
C572 C573 1.400 . S
C573 C567 1.491 . S
C573 C572 1.400 . S
C573 C574 1.398 . S
C574 H562 0.950 . S
C574 C573 1.398 . S
C574 C575 1.391 . S
C575 H563 0.950 . S
C575 C571 1.393 . S
C575 C574 1.391 . S
H576 C584 0.950 . S
H577 C589 0.950 . S
H578 C586 0.950 . S
H579 C588 0.950 . S
H580 C590 0.950 . S
H581 C592 0.950 . S
H582 C594 0.950 . S
H583 C595 0.950 . S
C584 H576 0.950 . S
C584 C585 1.386 . S
C584 C586 1.391 . S
C585 C584 1.386 . S
C585 C589 1.393 . S
C586 H578 0.950 . S
C586 C584 1.391 . S
C586 C587 1.400 . S
C587 C586 1.400 . S
C587 C588 1.398 . S
C587 C593 1.491 . S
C588 H579 0.950 . S
C588 C587 1.398 . S
C588 C589 1.391 . S
C589 H577 0.950 . S
C589 C585 1.393 . S
C589 C588 1.391 . S
C590 H580 0.950 . S
C590 C591 1.386 . S
C590 C592 1.391 . S
C591 C590 1.386 . S
C591 C595 1.393 . S
C592 H581 0.950 . S
C592 C590 1.391 . S
C592 C593 1.400 . S
C593 C587 1.491 . S
C593 C592 1.400 . S
C593 C594 1.398 . S
C594 H582 0.950 . S
C594 C593 1.398 . S
C594 C595 1.391 . S
C595 H583 0.950 . S
C595 C591 1.393 . S
C595 C594 1.391 . S
H596 C604 0.950 . S
H597 C609 0.950 . S
H598 C606 0.950 . S
H599 C608 0.950 . S
H600 C610 0.950 . S
H601 C612 0.950 . S
H602 C614 0.950 . S
H603 C615 0.950 . S
C604 H596 0.950 . S
C604 C605 1.386 . S
C604 C606 1.391 . S
C605 C604 1.386 . S
C605 C609 1.393 . S
C606 H598 0.950 . S
C606 C604 1.391 . S
C606 C607 1.400 . S
C607 C606 1.400 . S
C607 C608 1.398 . S
C607 C613 1.491 . S
C608 H599 0.950 . S
C608 C607 1.398 . S
C608 C609 1.391 . S
C609 H597 0.950 . S
C609 C605 1.393 . S
C609 C608 1.391 . S
C610 H600 0.950 . S
C610 C611 1.386 . S
C610 C612 1.391 . S
C611 C610 1.386 . S
C611 C615 1.393 . S
C612 H601 0.950 . S
C612 C610 1.391 . S
C612 C613 1.400 . S
C613 C607 1.491 . S
C613 C612 1.400 . S
C613 C614 1.398 . S
C614 H602 0.950 . S
C614 C613 1.398 . S
C614 C615 1.391 . S
C615 H603 0.950 . S
C615 C611 1.393 . S
C615 C614 1.391 . S
H616 C624 0.950 . S
H617 C629 0.950 . S
H618 C626 0.950 . S
H619 C628 0.950 . S
H620 C630 0.950 . S
H621 C632 0.950 . S
H622 C634 0.950 . S
H623 C635 0.950 . S
C624 H616 0.950 . S
C624 C625 1.386 . S
C624 C626 1.391 . S
C625 C624 1.386 . S
C625 C629 1.393 . S
C626 H618 0.950 . S
C626 C624 1.391 . S
C626 C627 1.400 . S
C627 C626 1.400 . S
C627 C628 1.398 . S
C627 C633 1.491 . S
C628 H619 0.950 . S
C628 C627 1.398 . S
C628 C629 1.391 . S
C629 H617 0.950 . S
C629 C625 1.393 . S
C629 C628 1.391 . S
C630 H620 0.950 . S
C630 C631 1.386 . S
C630 C632 1.391 . S
C631 C630 1.386 . S
C631 C635 1.393 . S
C632 H621 0.950 . S
C632 C630 1.391 . S
C632 C633 1.400 . S
C633 C627 1.491 . S
C633 C632 1.400 . S
C633 C634 1.398 . S
C634 H622 0.950 . S
C634 C633 1.398 . S
C634 C635 1.391 . S
C635 H623 0.950 . S
C635 C631 1.393 . S
C635 C634 1.391 . S
H636 C644 0.950 . S
H637 C649 0.950 . S
H638 C646 0.950 . S
H639 C648 0.950 . S
H640 C650 0.950 . S
H641 C652 0.950 . S
H642 C654 0.950 . S
H643 C655 0.950 . S
C644 H636 0.950 . S
C644 C645 1.386 . S
C644 C646 1.391 . S
C645 C644 1.386 . S
C645 C649 1.393 . S
C646 H638 0.950 . S
C646 C644 1.391 . S
C646 C647 1.400 . S
C647 C646 1.400 . S
C647 C648 1.398 . S
C647 C653 1.491 . S
C648 H639 0.950 . S
C648 C647 1.398 . S
C648 C649 1.391 . S
C649 H637 0.950 . S
C649 C645 1.393 . S
C649 C648 1.391 . S
C650 H640 0.950 . S
C650 C651 1.386 . S
C650 C652 1.391 . S
C651 C650 1.386 . S
C651 C655 1.393 . S
C652 H641 0.950 . S
C652 C650 1.391 . S
C652 C653 1.400 . S
C653 C647 1.491 . S
C653 C652 1.400 . S
C653 C654 1.398 . S
C654 H642 0.950 . S
C654 C653 1.398 . S
C654 C655 1.391 . S
C655 H643 0.950 . S
C655 C651 1.393 . S
C655 C654 1.391 . S
H656 C664 0.950 . S
H657 C669 0.950 . S
H658 C666 0.950 . S
H659 C668 0.950 . S
H660 C670 0.950 . S
H661 C672 0.950 . S
H662 C674 0.950 . S
H663 C675 0.950 . S
C664 H656 0.950 . S
C664 C665 1.386 . S
C664 C666 1.391 . S
C665 C664 1.386 . S
C665 C669 1.393 . S
C666 H658 0.950 . S
C666 C664 1.391 . S
C666 C667 1.400 . S
C667 C666 1.400 . S
C667 C668 1.398 . S
C667 C673 1.491 . S
C668 H659 0.950 . S
C668 C667 1.398 . S
C668 C669 1.391 . S
C669 H657 0.950 . S
C669 C665 1.393 . S
C669 C668 1.391 . S
C670 H660 0.950 . S
C670 C671 1.386 . S
C670 C672 1.391 . S
C671 C670 1.386 . S
C671 C675 1.393 . S
C672 H661 0.950 . S
C672 C670 1.391 . S
C672 C673 1.400 . S
C673 C667 1.491 . S
C673 C672 1.400 . S
C673 C674 1.398 . S
C674 H662 0.950 . S
C674 C673 1.398 . S
C674 C675 1.391 . S
C675 H663 0.950 . S
C675 C671 1.393 . S
C675 C674 1.391 . S
H676 C684 0.950 . S
H677 C689 0.950 . S
H678 C686 0.950 . S
H679 C688 0.950 . S
H680 C690 0.950 . S
H681 C692 0.950 . S
H682 C694 0.950 . S
H683 C695 0.950 . S
C684 H676 0.950 . S
C684 C685 1.386 . S
C684 C686 1.391 . S
C685 C684 1.386 . S
C685 C689 1.393 1_655 S
C686 H678 0.950 . S
C686 C684 1.391 . S
C686 C687 1.400 . S
C687 C686 1.400 . S
C687 C688 1.398 1_655 S
C687 C693 1.491 . S
C688 H679 0.950 . S
C688 C687 1.398 1_455 S
C688 C689 1.391 . S
C689 H677 0.950 . S
C689 C685 1.393 1_455 S
C689 C688 1.391 . S
C690 H680 0.950 . S
C690 C691 1.386 . S
C690 C692 1.391 . S
C691 C690 1.386 . S
C691 C695 1.393 1_455 S
C692 H681 0.950 . S
C692 C690 1.391 . S
C692 C693 1.400 1_455 S
C693 C687 1.491 . S
C693 C692 1.400 1_655 S
C693 C694 1.398 . S
C694 H682 0.950 . S
C694 C693 1.398 . S
C694 C695 1.391 . S
C695 H683 0.950 . S
C695 C691 1.393 1_655 S
C695 C694 1.391 . S
H696 C704 0.950 . S
H697 C709 0.950 . S
H698 C706 0.950 . S
H699 C708 0.950 . S
H700 C710 0.950 . S
H701 C712 0.950 . S
H702 C714 0.950 . S
H703 C715 0.950 . S
C704 H696 0.950 . S
C704 C705 1.386 . S
C704 C706 1.391 . S
C705 C704 1.386 . S
C705 C709 1.393 . S
C706 H698 0.950 . S
C706 C704 1.391 . S
C706 C707 1.400 . S
C707 C706 1.400 . S
C707 C708 1.398 . S
C707 C713 1.491 . S
C708 H699 0.950 . S
C708 C707 1.398 . S
C708 C709 1.391 . S
C709 H697 0.950 . S
C709 C705 1.393 . S
C709 C708 1.391 . S
C710 H700 0.950 . S
C710 C711 1.386 . S
C710 C712 1.391 . S
C711 C710 1.386 . S
C711 C715 1.393 . S
C712 H701 0.950 . S
C712 C710 1.391 . S
C712 C713 1.400 . S
C713 C707 1.491 . S
C713 C712 1.400 . S
C713 C714 1.398 . S
C714 H702 0.950 . S
C714 C713 1.398 . S
C714 C715 1.391 . S
C715 H703 0.950 . S
C715 C711 1.393 . S
C715 C714 1.391 . S
H716 C724 0.950 . S
H717 C729 0.950 . S
H718 C726 0.950 . S
H719 C728 0.950 . S
H720 C730 0.950 . S
H721 C732 0.950 . S
H722 C734 0.950 . S
H723 C735 0.950 . S
C724 H716 0.950 . S
C724 C725 1.386 . S
C724 C726 1.391 . S
C725 C724 1.386 . S
C725 C729 1.393 . S
C726 H718 0.950 . S
C726 C724 1.391 . S
C726 C727 1.400 . S
C727 C726 1.400 . S
C727 C728 1.398 . S
C727 C733 1.491 . S
C728 H719 0.950 . S
C728 C727 1.398 . S
C728 C729 1.391 . S
C729 H717 0.950 . S
C729 C725 1.393 . S
C729 C728 1.391 . S
C730 H720 0.950 . S
C730 C731 1.386 . S
C730 C732 1.391 . S
C731 C730 1.386 . S
C731 C735 1.393 . S
C732 H721 0.950 . S
C732 C730 1.391 . S
C732 C733 1.400 . S
C733 C727 1.491 . S
C733 C732 1.400 . S
C733 C734 1.398 . S
C734 H722 0.950 . S
C734 C733 1.398 . S
C734 C735 1.391 . S
C735 H723 0.950 . S
C735 C731 1.393 . S
C735 C734 1.391 . S
H736 C744 0.950 1_554 S
H737 C749 0.950 . S
H738 C746 0.950 1_564 S
H739 C748 0.950 . S
H740 C750 0.950 . S
H741 C752 0.963 . S
H742 C754 0.950 . S
H743 C755 0.950 . S
C744 H736 0.950 1_556 S
C744 C745 1.386 . S
C744 C746 1.391 . S
C745 C744 1.386 . S
C745 C749 1.393 . S
C746 H738 0.950 1_546 S
C746 C744 1.391 . S
C746 C747 1.400 . S
C747 C746 1.400 . S
C747 C748 1.398 . S
C747 C753 1.491 1_545 S
C748 H739 0.950 . S
C748 C747 1.398 . S
C748 C749 1.391 . S
C749 H737 0.950 . S
C749 C745 1.393 . S
C749 C748 1.391 . S
C750 H740 0.950 . S
C750 C751 1.386 . S
C750 C752 1.391 . S
C751 C750 1.386 . S
C751 C755 1.393 1_556 S
C752 H741 0.963 . S
C752 C750 1.391 . S
C752 C753 1.400 . S
C753 C747 1.491 1_565 S
C753 C752 1.400 . S
C753 C754 1.398 1_556 S
C754 H742 0.950 . S
C754 C753 1.398 1_554 S
C754 C755 1.391 . S
C755 H743 0.950 . S
C755 C751 1.393 1_554 S
C755 C754 1.391 . S
H756 C764 0.950 . S
H757 C769 0.950 . S
H758 C766 0.950 . S
H759 C768 0.950 . S
H760 C770 0.950 . S
H761 C772 0.950 . S
H762 C774 0.950 . S
H763 C775 0.950 . S
C764 H756 0.950 . S
C764 C765 1.386 . S
C764 C766 1.391 . S
C765 C764 1.386 . S
C765 C769 1.393 . S
C766 H758 0.950 . S
C766 C764 1.391 . S
C766 C767 1.400 . S
C767 C766 1.400 . S
C767 C768 1.398 . S
C767 C773 1.491 . S
C768 H759 0.950 . S
C768 C767 1.398 . S
C768 C769 1.391 . S
C769 H757 0.950 . S
C769 C765 1.393 . S
C769 C768 1.391 . S
C770 H760 0.950 . S
C770 C771 1.386 . S
C770 C772 1.391 . S
C771 C770 1.386 . S
C771 C775 1.393 . S
C772 H761 0.950 . S
C772 C770 1.391 . S
C772 C773 1.400 . S
C773 C767 1.491 . S
C773 C772 1.400 . S
C773 C774 1.398 . S
C774 H762 0.950 . S
C774 C773 1.398 . S
C774 C775 1.391 . S
C775 H763 0.950 . S
C775 C771 1.393 . S
C775 C774 1.391 . S
H776 C784 0.950 . S
H777 C789 0.950 . S
H778 C786 0.950 . S
H779 C788 0.950 . S
H780 C790 0.950 . S
H781 C792 0.950 . S
H782 C794 0.950 . S
H783 C795 0.950 . S
C784 H776 0.950 . S
C784 C785 1.386 1_545 S
C784 C786 1.391 . S
C785 C784 1.386 1_565 S
C785 C789 1.393 . S
C786 H778 0.950 . S
C786 C784 1.391 . S
C786 C787 1.400 . S
C787 C786 1.400 . S
C787 C788 1.398 1_545 S
C787 C793 1.491 . S
C788 H779 0.950 . S
C788 C787 1.398 1_565 S
C788 C789 1.391 . S
C789 H777 0.950 . S
C789 C785 1.393 . S
C789 C788 1.391 . S
C790 H780 0.950 . S
C790 C791 1.386 . S
C790 C792 1.391 . S
C791 C790 1.386 . S
C791 C795 1.393 . S
C792 H781 0.950 . S
C792 C790 1.391 . S
C792 C793 1.400 . S
C793 C787 1.491 . S
C793 C792 1.400 . S
C793 C794 1.398 . S
C794 H782 0.950 . S
C794 C793 1.398 . S
C794 C795 1.391 . S
C795 H783 0.950 . S
C795 C791 1.393 . S
C795 C794 1.391 . S
H796 C804 0.950 . S
H797 C809 0.950 . S
H798 C806 0.950 . S
H799 C808 0.950 . S
H800 C810 0.950 . S
H801 C812 0.950 . S
H802 C814 0.950 . S
H803 C815 0.950 . S
C804 H796 0.950 . S
C804 C805 1.386 . S
C804 C806 1.391 . S
C805 C804 1.386 . S
C805 C809 1.393 . S
C806 H798 0.950 . S
C806 C804 1.391 . S
C806 C807 1.400 . S
C807 C806 1.400 . S
C807 C808 1.398 . S
C807 C813 1.491 . S
C808 H799 0.950 . S
C808 C807 1.398 . S
C808 C809 1.391 . S
C809 H797 0.950 . S
C809 C805 1.393 . S
C809 C808 1.391 . S
C810 H800 0.950 . S
C810 C811 1.386 . S
C810 C812 1.391 . S
C811 C810 1.386 . S
C811 C815 1.393 . S
C812 H801 0.950 . S
C812 C810 1.391 . S
C812 C813 1.400 . S
C813 C807 1.491 . S
C813 C812 1.400 . S
C813 C814 1.398 . S
C814 H802 0.950 . S
C814 C813 1.398 . S
C814 C815 1.391 . S
C815 H803 0.950 . S
C815 C811 1.393 . S
C815 C814 1.391 . S
H816 C824 0.950 . S
H817 C829 0.950 . S
H818 C826 0.950 . S
H819 C828 0.950 . S
H820 C830 0.950 . S
H821 C832 0.950 . S
H822 C834 0.950 . S
H823 C835 0.950 . S
C824 H816 0.950 . S
C824 C825 1.386 . S
C824 C826 1.391 1_565 S
C825 C824 1.386 . S
C825 C829 1.393 1_565 S
C826 H818 0.950 . S
C826 C824 1.391 1_545 S
C826 C827 1.400 . S
C827 C826 1.400 . S
C827 C828 1.398 . S
C827 C833 1.491 . S
C828 H819 0.950 . S
C828 C827 1.398 . S
C828 C829 1.391 . S
C829 H817 0.950 . S
C829 C825 1.393 1_545 S
C829 C828 1.391 . S
C830 H820 0.950 . S
C830 C831 1.386 . S
C830 C832 1.391 . S
C831 C830 1.386 . S
C831 C835 1.393 . S
C832 H821 0.950 . S
C832 C830 1.391 . S
C832 C833 1.400 . S
C833 C827 1.491 . S
C833 C832 1.400 . S
C833 C834 1.398 . S
C834 H822 0.950 . S
C834 C833 1.398 . S
C834 C835 1.391 . S
C835 H823 0.950 . S
C835 C831 1.393 . S
C835 C834 1.391 . S
H836 C844 0.950 . S
H837 C849 0.950 . S
H838 C846 0.950 . S
H839 C848 0.950 . S
H840 C850 0.950 . S
H841 C852 0.950 . S
H842 C854 0.950 . S
H843 C855 0.950 . S
C844 H836 0.950 . S
C844 C845 1.386 . S
C844 C846 1.391 . S
C845 C844 1.386 . S
C845 C849 1.393 . S
C846 H838 0.950 . S
C846 C844 1.391 . S
C846 C847 1.400 . S
C847 C846 1.400 . S
C847 C848 1.398 . S
C847 C853 1.491 . S
C848 H839 0.950 . S
C848 C847 1.398 . S
C848 C849 1.391 . S
C849 H837 0.950 . S
C849 C845 1.393 . S
C849 C848 1.391 . S
C850 H840 0.950 . S
C850 C851 1.386 . S
C850 C852 1.391 . S
C851 C850 1.386 . S
C851 C855 1.393 . S
C852 H841 0.950 . S
C852 C850 1.391 . S
C852 C853 1.400 . S
C853 C847 1.491 . S
C853 C852 1.400 . S
C853 C854 1.398 . S
C854 H842 0.950 . S
C854 C853 1.398 . S
C854 C855 1.391 . S
C855 H843 0.950 . S
C855 C851 1.393 . S
C855 C854 1.391 . S
H856 C864 0.950 . S
H857 C869 0.950 . S
H858 C866 0.950 . S
H859 C868 0.950 . S
H860 C870 0.950 . S
H861 C872 0.950 . S
H862 C874 0.950 . S
H863 C875 0.950 . S
C864 H856 0.950 . S
C864 C865 1.386 . S
C864 C866 1.391 . S
C865 C864 1.386 . S
C865 C869 1.393 . S
C866 H858 0.950 . S
C866 C864 1.391 . S
C866 C867 1.400 . S
C867 C866 1.400 . S
C867 C868 1.398 . S
C867 C873 1.491 . S
C868 H859 0.950 . S
C868 C867 1.398 . S
C868 C869 1.391 . S
C869 H857 0.950 . S
C869 C865 1.393 . S
C869 C868 1.391 . S
C870 H860 0.950 . S
C870 C871 1.386 . S
C870 C872 1.391 . S
C871 C870 1.386 . S
C871 C875 1.393 . S
C872 H861 0.950 . S
C872 C870 1.391 . S
C872 C873 1.400 . S
C873 C867 1.491 . S
C873 C872 1.400 . S
C873 C874 1.398 . S
C874 H862 0.950 . S
C874 C873 1.398 . S
C874 C875 1.391 . S
C875 H863 0.950 . S
C875 C871 1.393 . S
C875 C874 1.391 . S
H876 C884 0.950 . S
H877 C889 0.950 . S
H878 C886 0.950 . S
H879 C888 0.950 . S
H880 C890 0.950 . S
H881 C892 0.950 1_565 S
H882 C894 0.950 . S
H883 C895 0.950 . S
C884 H876 0.950 . S
C884 C885 1.386 . S
C884 C886 1.391 . S
C885 C884 1.386 . S
C885 C889 1.393 . S
C886 H878 0.950 . S
C886 C884 1.391 . S
C886 C887 1.400 . S
C887 C886 1.400 . S
C887 C888 1.398 . S
C887 C893 1.491 . S
C888 H879 0.950 . S
C888 C887 1.398 . S
C888 C889 1.391 . S
C889 H877 0.950 . S
C889 C885 1.393 . S
C889 C888 1.391 . S
C890 H880 0.950 . S
C890 C891 1.386 1_565 S
C890 C892 1.391 1_565 S
C891 C890 1.386 1_545 S
C891 C895 1.393 . S
C892 H881 0.950 1_545 S
C892 C890 1.391 1_545 S
C892 C893 1.400 . S
C893 C887 1.491 . S
C893 C892 1.400 . S
C893 C894 1.398 . S
C894 H882 0.950 . S
C894 C893 1.398 . S
C894 C895 1.391 . S
C895 H883 0.950 . S
C895 C891 1.393 . S
C895 C894 1.391 . S
H896 C904 0.950 . S
H897 C909 0.950 . S
H898 C906 0.950 . S
H899 C908 0.950 . S
H900 C910 0.950 . S
H901 C912 0.950 . S
H902 C914 0.950 . S
H903 C915 0.950 . S
C904 H896 0.950 . S
C904 C905 1.386 . S
C904 C906 1.391 . S
C905 C904 1.386 . S
C905 C909 1.393 . S
C906 H898 0.950 . S
C906 C904 1.391 . S
C906 C907 1.400 . S
C907 C906 1.400 . S
C907 C908 1.398 . S
C907 C913 1.491 . S
C908 H899 0.950 . S
C908 C907 1.398 . S
C908 C909 1.391 . S
C909 H897 0.950 . S
C909 C905 1.393 . S
C909 C908 1.391 . S
C910 H900 0.950 . S
C910 C911 1.386 . S
C910 C912 1.391 . S
C911 C910 1.386 . S
C911 C915 1.393 . S
C912 H901 0.950 . S
C912 C910 1.391 . S
C912 C913 1.400 . S
C913 C907 1.491 . S
C913 C912 1.400 . S
C913 C914 1.398 . S
C914 H902 0.950 . S
C914 C913 1.398 . S
C914 C915 1.391 . S
C915 H903 0.950 . S
C915 C911 1.393 . S
C915 C914 1.391 . S
H916 C924 0.950 . S
H917 C929 0.950 . S
H918 C926 0.950 . S
H919 C928 0.950 . S
H920 C930 0.950 . S
H921 C932 0.950 . S
H922 C934 0.950 . S
H923 C935 0.950 . S
C924 H916 0.950 . S
C924 C925 1.386 . S
C924 C926 1.391 . S
C925 C924 1.386 . S
C925 C929 1.393 . S
C926 H918 0.950 . S
C926 C924 1.391 . S
C926 C927 1.400 . S
C927 C926 1.400 . S
C927 C928 1.398 . S
C927 C933 1.491 . S
C928 H919 0.950 . S
C928 C927 1.398 . S
C928 C929 1.391 . S
C929 H917 0.950 . S
C929 C925 1.393 . S
C929 C928 1.391 . S
C930 H920 0.950 . S
C930 C931 1.386 . S
C930 C932 1.391 . S
C931 C930 1.386 . S
C931 C935 1.393 . S
C932 H921 0.950 . S
C932 C930 1.391 . S
C932 C933 1.400 . S
C933 C927 1.491 . S
C933 C932 1.400 . S
C933 C934 1.398 . S
C934 H922 0.950 . S
C934 C933 1.398 . S
C934 C935 1.391 . S
C935 H923 0.950 . S
C935 C931 1.393 . S
C935 C934 1.391 . S
H936 C944 0.950 . S
H937 C949 0.950 . S
H938 C946 0.950 . S
H939 C948 0.950 . S
H940 C950 0.950 . S
H941 C952 0.950 . S
H942 C954 0.950 . S
H943 C955 0.950 . S
C944 H936 0.950 . S
C944 C945 1.386 . S
C944 C946 1.391 . S
C945 C944 1.386 . S
C945 C949 1.393 . S
C946 H938 0.950 . S
C946 C944 1.391 . S
C946 C947 1.400 . S
C947 C946 1.400 . S
C947 C948 1.398 . S
C947 C953 1.491 . S
C948 H939 0.950 . S
C948 C947 1.398 . S
C948 C949 1.391 . S
C949 H937 0.950 . S
C949 C945 1.393 . S
C949 C948 1.391 . S
C950 H940 0.950 . S
C950 C951 1.386 . S
C950 C952 1.391 . S
C951 C950 1.386 . S
C951 C955 1.393 . S
C952 H941 0.950 . S
C952 C950 1.391 . S
C952 C953 1.400 . S
C953 C947 1.491 . S
C953 C952 1.400 . S
C953 C954 1.398 . S
C954 H942 0.950 . S
C954 C953 1.398 . S
C954 C955 1.391 . S
C955 H943 0.950 . S
C955 C951 1.393 . S
C955 C954 1.391 . S
H956 C964 0.950 . S
H957 C969 0.914 1_565 S
H958 C966 0.950 . S
H959 C968 0.929 1_565 S
H960 C970 0.950 1_565 S
H961 C972 0.950 1_565 S
H962 C974 0.950 . S
H963 C975 0.950 . S
C964 H956 0.950 . S
C964 C965 1.386 1_455 S
C964 C966 1.391 1_455 S
C965 C964 1.386 1_655 S
C965 C969 1.393 . S
C966 H958 0.950 . S
C966 C964 1.391 1_655 S
C966 C967 1.400 . S
C967 C966 1.400 . S
C967 C968 1.398 . S
C967 C973 1.491 . S
C968 H959 0.929 1_545 S
C968 C967 1.398 . S
C968 C969 1.391 . S
C969 H957 0.914 1_545 S
C969 C965 1.393 . S
C969 C968 1.391 . S
C970 H960 0.950 1_545 S
C970 C971 1.386 . S
C970 C972 1.391 . S
C971 C970 1.386 . S
C971 C975 1.393 . S
C972 H961 0.950 1_545 S
C972 C970 1.391 . S
C972 C973 1.400 . S
C973 C967 1.491 . S
C973 C972 1.400 . S
C973 C974 1.398 . S
C974 H962 0.950 . S
C974 C973 1.398 . S
C974 C975 1.391 . S
C975 H963 0.950 . S
C975 C971 1.393 . S
C975 C974 1.391 . S
H976 C984 0.950 . S
H977 C989 0.950 . S
H978 C986 0.950 . S
H979 C988 0.950 . S
H980 C990 0.950 . S
H981 C992 0.950 . S
H982 C994 0.950 . S
H983 C995 0.950 . S
C984 H976 0.950 . S
C984 C985 1.386 . S
C984 C986 1.391 . S
C985 C984 1.386 . S
C985 C989 1.393 . S
C986 H978 0.950 . S
C986 C984 1.391 . S
C986 C987 1.400 . S
C987 C986 1.400 . S
C987 C988 1.398 . S
C987 C993 1.491 . S
C988 H979 0.950 . S
C988 C987 1.398 . S
C988 C989 1.391 . S
C989 H977 0.950 . S
C989 C985 1.393 . S
C989 C988 1.391 . S
C990 H980 0.950 . S
C990 C991 1.386 . S
C990 C992 1.391 . S
C991 C990 1.386 . S
C991 C995 1.393 . S
C992 H981 0.950 . S
C992 C990 1.391 . S
C992 C993 1.400 . S
C993 C987 1.491 . S
C993 C992 1.400 . S
C993 C994 1.398 . S
C994 H982 0.950 . S
C994 C993 1.398 . S
C994 C995 1.391 . S
C995 H983 0.950 . S
C995 C991 1.393 . S
C995 C994 1.391 . S
H996 C1004 0.925 1_655 S
H997 C1009 0.950 . S
H998 C1006 0.950 . S
H999 C1008 0.950 . S
H1000 C1010 0.950 . S
H1001 C1012 0.950 . S
H1002 C1014 0.950 . S
H1003 C1015 0.950 . S
C1004 H996 0.925 1_455 S
C1004 C1005 1.388 . S
C1004 C1006 1.415 . S
C1005 C1004 1.388 . S
C1005 C1009 1.393 . S
C1006 H998 0.950 . S
C1006 C1004 1.415 . S
C1006 C1007 1.400 . S
C1007 C1006 1.400 . S
C1007 C1008 1.398 . S
C1007 C1013 1.491 . S
C1008 H999 0.950 . S
C1008 C1007 1.398 . S
C1008 C1009 1.391 . S
C1009 H997 0.950 . S
C1009 C1005 1.393 . S
C1009 C1008 1.391 . S
C1010 H1000 0.950 . S
C1010 C1011 1.386 . S
C1010 C1012 1.391 . S
C1011 C1010 1.386 . S
C1011 C1015 1.393 . S
C1012 H1001 0.950 . S
C1012 C1010 1.391 . S
C1012 C1013 1.400 . S
C1013 C1007 1.491 . S
C1013 C1012 1.400 . S
C1013 C1014 1.398 . S
C1014 H1002 0.950 . S
C1014 C1013 1.398 . S
C1014 C1015 1.391 . S
C1015 H1003 0.950 . S
C1015 C1011 1.393 . S
C1015 C1014 1.391 . S
H1016 C1024 0.950 . S
H1017 C1029 0.950 . S
H1018 C1026 0.950 . S
H1019 C1028 0.950 . S
H1020 C1030 0.950 . S
H1021 C1032 0.950 . S
H1022 C1034 0.950 . S
H1023 C1035 0.950 . S
C1024 H1016 0.950 . S
C1024 C1025 1.386 . S
C1024 C1026 1.391 . S
C1025 C1024 1.386 . S
C1025 C1029 1.393 . S
C1026 H1018 0.950 . S
C1026 C1024 1.391 . S
C1026 C1027 1.400 . S
C1027 C1026 1.400 . S
C1027 C1028 1.398 . S
C1027 C1033 1.491 . S
C1028 H1019 0.950 . S
C1028 C1027 1.398 . S
C1028 C1029 1.391 . S
C1029 H1017 0.950 . S
C1029 C1025 1.393 . S
C1029 C1028 1.391 . S
C1030 H1020 0.950 . S
C1030 C1031 1.386 . S
C1030 C1032 1.391 . S
C1031 C1030 1.386 . S
C1031 C1035 1.393 . S
C1032 H1021 0.950 . S
C1032 C1030 1.391 . S
C1032 C1033 1.400 . S
C1033 C1027 1.491 . S
C1033 C1032 1.400 . S
C1033 C1034 1.398 . S
C1034 H1022 0.950 . S
C1034 C1033 1.398 . S
C1034 C1035 1.391 . S
C1035 H1023 0.950 . S
C1035 C1031 1.393 . S
C1035 C1034 1.391 . S
H1036 C1044 0.950 1_455 S
H1037 C1049 0.950 . S
H1038 C1046 0.950 1_456 S
H1039 C1048 0.950 . S
H1040 C1050 0.950 . S
H1041 C1052 0.950 . S
H1042 C1054 0.950 . S
H1043 C1055 0.950 . S
C1044 H1036 0.950 1_655 S
C1044 C1045 1.386 . S
C1044 C1046 1.391 . S
C1045 C1044 1.386 . S
C1045 C1049 1.393 . S
C1046 H1038 0.950 1_654 S
C1046 C1044 1.391 . S
C1046 C1047 1.400 1_554 S
C1047 C1046 1.400 1_556 S
C1047 C1048 1.398 1_556 S
C1047 C1053 1.491 . S
C1048 H1039 0.950 . S
C1048 C1047 1.398 1_554 S
C1048 C1049 1.391 . S
C1049 H1037 0.950 . S
C1049 C1045 1.393 . S
C1049 C1048 1.391 . S
C1050 H1040 0.950 . S
C1050 C1051 1.386 . S
C1050 C1052 1.391 . S
C1051 C1050 1.386 . S
C1051 C1055 1.393 1_655 S
C1052 H1041 0.950 . S
C1052 C1050 1.391 . S
C1052 C1053 1.400 . S
C1053 C1047 1.491 . S
C1053 C1052 1.400 . S
C1053 C1054 1.398 1_655 S
C1054 H1042 0.950 . S
C1054 C1053 1.398 1_455 S
C1054 C1055 1.391 . S
C1055 H1043 0.950 . S
C1055 C1051 1.393 1_455 S
C1055 C1054 1.391 . S
H1056 C1064 0.950 . S
H1057 C1069 0.950 . S
H1058 C1066 0.950 . S
H1059 C1068 0.950 . S
H1060 C1070 0.950 . S
H1061 C1072 0.950 . S
H1062 C1074 0.950 . S
H1063 C1075 0.950 . S
C1064 H1056 0.950 . S
C1064 C1065 1.386 . S
C1064 C1066 1.391 . S
C1065 C1064 1.386 . S
C1065 C1069 1.393 . S
C1066 H1058 0.950 . S
C1066 C1064 1.391 . S
C1066 C1067 1.400 . S
C1067 C1066 1.400 . S
C1067 C1068 1.398 . S
C1067 C1073 1.491 . S
C1068 H1059 0.950 . S
C1068 C1067 1.398 . S
C1068 C1069 1.391 . S
C1069 H1057 0.950 . S
C1069 C1065 1.393 . S
C1069 C1068 1.391 . S
C1070 H1060 0.950 . S
C1070 C1071 1.386 . S
C1070 C1072 1.391 . S
C1071 C1070 1.386 . S
C1071 C1075 1.393 . S
C1072 H1061 0.950 . S
C1072 C1070 1.391 . S
C1072 C1073 1.400 . S
C1073 C1067 1.491 . S
C1073 C1072 1.400 . S
C1073 C1074 1.398 . S
C1074 H1062 0.950 . S
C1074 C1073 1.398 . S
C1074 C1075 1.391 . S
C1075 H1063 0.950 . S
C1075 C1071 1.393 . S
C1075 C1074 1.391 . S
H1076 C1084 0.950 . S
H1077 C1089 0.950 . S
H1078 C1086 0.950 . S
H1079 C1088 0.949 . S
H1080 C1090 0.950 . S
H1081 C1092 0.950 . S
H1082 C1094 0.950 . S
H1083 C1095 0.950 . S
C1084 H1076 0.950 . S
C1084 C1085 1.386 1_656 S
C1084 C1086 1.391 . S
C1085 C1084 1.386 1_454 S
C1085 C1089 1.393 . S
C1086 H1078 0.950 . S
C1086 C1084 1.391 . S
C1086 C1087 1.400 1_655 S
C1087 C1086 1.400 1_455 S
C1087 C1088 1.426 . S
C1087 C1093 1.491 . S
C1088 H1079 0.949 . S
C1088 C1087 1.426 . S
C1088 C1089 1.367 1_556 S
C1089 H1077 0.950 . S
C1089 C1085 1.393 . S
C1089 C1088 1.367 1_554 S
C1090 H1080 0.950 . S
C1090 C1091 1.386 . S
C1090 C1092 1.391 . S
C1091 C1090 1.386 . S
C1091 C1095 1.393 1_455 S
C1092 H1081 0.950 . S
C1092 C1090 1.391 . S
C1092 C1093 1.400 . S
C1093 C1087 1.491 . S
C1093 C1092 1.400 . S
C1093 C1094 1.398 1_455 S
C1094 H1082 0.950 . S
C1094 C1093 1.398 1_655 S
C1094 C1095 1.391 . S
C1095 H1083 0.950 . S
C1095 C1091 1.393 1_655 S
C1095 C1094 1.391 . S
H1096 C1104 0.950 . S
H1097 C1109 0.950 . S
H1098 C1106 0.950 . S
H1099 C1108 0.950 . S
H1100 C1110 0.950 . S
H1101 C1112 0.950 . S
H1102 C1114 0.950 . S
H1103 C1115 0.950 . S
C1104 H1096 0.950 . S
C1104 C1105 1.386 . S
C1104 C1106 1.391 . S
C1105 C1104 1.386 . S
C1105 C1109 1.393 . S
C1106 H1098 0.950 . S
C1106 C1104 1.391 . S
C1106 C1107 1.400 . S
C1107 C1106 1.400 . S
C1107 C1108 1.398 . S
C1107 C1113 1.491 . S
C1108 H1099 0.950 . S
C1108 C1107 1.398 . S
C1108 C1109 1.391 . S
C1109 H1097 0.950 . S
C1109 C1105 1.393 . S
C1109 C1108 1.391 . S
C1110 H1100 0.950 . S
C1110 C1111 1.386 . S
C1110 C1112 1.391 . S
C1111 C1110 1.386 . S
C1111 C1115 1.393 . S
C1112 H1101 0.950 . S
C1112 C1110 1.391 . S
C1112 C1113 1.400 . S
C1113 C1107 1.491 . S
C1113 C1112 1.400 . S
C1113 C1114 1.398 . S
C1114 H1102 0.950 . S
C1114 C1113 1.398 . S
C1114 C1115 1.391 . S
C1115 H1103 0.950 . S
C1115 C1111 1.393 . S
C1115 C1114 1.391 . S
H1116 C1124 0.950 . S
H1117 C1129 0.950 . S
H1118 C1126 0.950 . S
H1119 C1128 0.950 . S
H1120 C1130 0.950 . S
H1121 C1132 0.950 . S
H1122 C1134 0.950 . S
H1123 C1135 0.950 . S
C1124 H1116 0.950 . S
C1124 C1125 1.386 . S
C1124 C1126 1.391 . S
C1125 C1124 1.386 . S
C1125 C1129 1.393 1_554 S
C1126 H1118 0.950 . S
C1126 C1124 1.391 . S
C1126 C1127 1.400 . S
C1127 C1126 1.400 . S
C1127 C1128 1.398 . S
C1127 C1133 1.491 . S
C1128 H1119 0.950 . S
C1128 C1127 1.398 . S
C1128 C1129 1.391 1_554 S
C1129 H1117 0.950 . S
C1129 C1125 1.393 1_556 S
C1129 C1128 1.391 1_556 S
C1130 H1120 0.950 . S
C1130 C1131 1.386 . S
C1130 C1132 1.391 . S
C1131 C1130 1.386 . S
C1131 C1135 1.393 . S
C1132 H1121 0.950 . S
C1132 C1130 1.391 . S
C1132 C1133 1.400 . S
C1133 C1127 1.491 . S
C1133 C1132 1.400 . S
C1133 C1134 1.398 . S
C1134 H1122 0.950 . S
C1134 C1133 1.398 . S
C1134 C1135 1.391 . S
C1135 H1123 0.950 . S
C1135 C1131 1.393 . S
C1135 C1134 1.391 . S
H1136 C1144 0.950 . S
H1137 C1149 0.950 . S
H1138 C1146 0.950 . S
H1139 C1148 0.950 . S
H1140 C1150 0.950 . S
H1141 C1152 0.950 . S
H1142 C1154 0.950 . S
H1143 C1155 0.950 . S
C1144 H1136 0.950 . S
C1144 C1145 1.386 . S
C1144 C1146 1.391 . S
C1145 C1144 1.386 . S
C1145 C1149 1.393 . S
C1146 H1138 0.950 . S
C1146 C1144 1.391 . S
C1146 C1147 1.400 . S
C1147 C1146 1.400 . S
C1147 C1148 1.398 . S
C1147 C1153 1.491 . S
C1148 H1139 0.950 . S
C1148 C1147 1.398 . S
C1148 C1149 1.391 . S
C1149 H1137 0.950 . S
C1149 C1145 1.393 . S
C1149 C1148 1.391 . S
C1150 H1140 0.950 . S
C1150 C1151 1.386 . S
C1150 C1152 1.391 . S
C1151 C1150 1.386 . S
C1151 C1155 1.393 . S
C1152 H1141 0.950 . S
C1152 C1150 1.391 . S
C1152 C1153 1.400 . S
C1153 C1147 1.491 . S
C1153 C1152 1.400 . S
C1153 C1154 1.398 . S
C1154 H1142 0.950 . S
C1154 C1153 1.398 . S
C1154 C1155 1.391 . S
C1155 H1143 0.950 . S
C1155 C1151 1.393 . S
C1155 C1154 1.391 . S
H1156 C1164 0.950 . S
H1157 C1169 0.950 . S
H1158 C1166 0.950 . S
H1159 C1168 0.950 . S
H1160 C1170 0.950 . S
H1161 C1172 0.950 . S
H1162 C1174 0.950 . S
H1163 C1175 0.950 . S
C1164 H1156 0.950 . S
C1164 C1165 1.386 . S
C1164 C1166 1.391 . S
C1165 C1164 1.386 . S
C1165 C1169 1.393 . S
C1166 H1158 0.950 . S
C1166 C1164 1.391 . S
C1166 C1167 1.400 . S
C1167 C1166 1.400 . S
C1167 C1168 1.398 . S
C1167 C1173 1.491 . S
C1168 H1159 0.950 . S
C1168 C1167 1.398 . S
C1168 C1169 1.391 . S
C1169 H1157 0.950 . S
C1169 C1165 1.393 . S
C1169 C1168 1.391 . S
C1170 H1160 0.950 . S
C1170 C1171 1.386 . S
C1170 C1172 1.391 . S
C1171 C1170 1.386 . S
C1171 C1175 1.393 . S
C1172 H1161 0.950 . S
C1172 C1170 1.391 . S
C1172 C1173 1.400 . S
C1173 C1167 1.491 . S
C1173 C1172 1.400 . S
C1173 C1174 1.398 . S
C1174 H1162 0.950 . S
C1174 C1173 1.398 . S
C1174 C1175 1.391 . S
C1175 H1163 0.950 . S
C1175 C1171 1.393 . S
C1175 C1174 1.391 . S
H1176 C1184 0.950 . S
H1177 C1189 0.950 . S
H1178 C1186 0.950 . S
H1179 C1188 0.950 . S
H1180 C1190 0.950 . S
H1181 C1192 0.950 . S
H1182 C1194 0.950 . S
H1183 C1195 0.950 . S
C1184 H1176 0.950 . S
C1184 C1185 1.386 . S
C1184 C1186 1.391 . S
C1185 C1184 1.386 . S
C1185 C1189 1.393 . S
C1186 H1178 0.950 . S
C1186 C1184 1.391 . S
C1186 C1187 1.400 . S
C1187 C1186 1.400 . S
C1187 C1188 1.398 . S
C1187 C1193 1.491 . S
C1188 H1179 0.950 . S
C1188 C1187 1.398 . S
C1188 C1189 1.391 . S
C1189 H1177 0.950 . S
C1189 C1185 1.393 . S
C1189 C1188 1.391 . S
C1190 H1180 0.950 . S
C1190 C1191 1.386 . S
C1190 C1192 1.391 . S
C1191 C1190 1.386 . S
C1191 C1195 1.393 . S
C1192 H1181 0.950 . S
C1192 C1190 1.391 . S
C1192 C1193 1.400 . S
C1193 C1187 1.491 . S
C1193 C1192 1.400 . S
C1193 C1194 1.398 . S
C1194 H1182 0.950 . S
C1194 C1193 1.398 . S
C1194 C1195 1.391 . S
C1195 H1183 0.950 . S
C1195 C1191 1.393 . S
C1195 C1194 1.391 . S
H1196 C1204 0.950 . S
H1197 C1209 0.950 . S
H1198 C1206 0.950 . S
H1199 C1208 0.950 . S
H1200 C1210 0.950 . S
H1201 C1212 0.950 . S
H1202 C1214 0.950 . S
H1203 C1215 0.950 . S
C1204 H1196 0.950 . S
C1204 C1205 1.386 . S
C1204 C1206 1.391 . S
C1205 C1204 1.386 . S
C1205 C1209 1.393 . S
C1206 H1198 0.950 . S
C1206 C1204 1.391 . S
C1206 C1207 1.400 . S
C1207 C1206 1.400 . S
C1207 C1208 1.398 . S
C1207 C1213 1.491 . S
C1208 H1199 0.950 . S
C1208 C1207 1.398 . S
C1208 C1209 1.391 . S
C1209 H1197 0.950 . S
C1209 C1205 1.393 . S
C1209 C1208 1.391 . S
C1210 H1200 0.950 . S
C1210 C1211 1.386 . S
C1210 C1212 1.391 . S
C1211 C1210 1.386 . S
C1211 C1215 1.393 . S
C1212 H1201 0.950 . S
C1212 C1210 1.391 . S
C1212 C1213 1.400 . S
C1213 C1207 1.491 . S
C1213 C1212 1.400 . S
C1213 C1214 1.398 . S
C1214 H1202 0.950 . S
C1214 C1213 1.398 . S
C1214 C1215 1.391 . S
C1215 H1203 0.950 . S
C1215 C1211 1.393 . S
C1215 C1214 1.391 . S
H1216 C1224 0.950 . S
H1217 C1229 0.950 . S
H1218 C1226 0.950 . S
H1219 C1228 0.950 . S
H1220 C1230 0.950 . S
H1221 C1232 0.950 . S
H1222 C1234 0.950 . S
H1223 C1235 0.950 . S
C1224 H1216 0.950 . S
C1224 C1225 1.386 . S
C1224 C1226 1.391 . S
C1225 C1224 1.386 . S
C1225 C1229 1.393 . S
C1226 H1218 0.950 . S
C1226 C1224 1.391 . S
C1226 C1227 1.400 . S
C1227 C1226 1.400 . S
C1227 C1228 1.398 . S
C1227 C1233 1.491 . S
C1228 H1219 0.950 . S
C1228 C1227 1.398 . S
C1228 C1229 1.391 . S
C1229 H1217 0.950 . S
C1229 C1225 1.393 . S
C1229 C1228 1.391 . S
C1230 H1220 0.950 . S
C1230 C1231 1.386 . S
C1230 C1232 1.391 . S
C1231 C1230 1.386 . S
C1231 C1235 1.393 . S
C1232 H1221 0.950 . S
C1232 C1230 1.391 . S
C1232 C1233 1.400 . S
C1233 C1227 1.491 . S
C1233 C1232 1.400 . S
C1233 C1234 1.398 . S
C1234 H1222 0.950 . S
C1234 C1233 1.398 . S
C1234 C1235 1.391 . S
C1235 H1223 0.950 . S
C1235 C1231 1.393 . S
C1235 C1234 1.391 . S
H1236 C1244 0.950 . S
H1237 C1249 0.950 . S
H1238 C1246 0.950 . S
H1239 C1248 0.950 . S
H1240 C1250 0.950 . S
H1241 C1252 0.950 . S
H1242 C1254 0.950 . S
H1243 C1255 0.950 . S
C1244 H1236 0.950 . S
C1244 C1245 1.386 . S
C1244 C1246 1.391 . S
C1245 C1244 1.386 . S
C1245 C1249 1.393 . S
C1246 H1238 0.950 . S
C1246 C1244 1.391 . S
C1246 C1247 1.400 . S
C1247 C1246 1.400 . S
C1247 C1248 1.398 . S
C1247 C1253 1.491 . S
C1248 H1239 0.950 . S
C1248 C1247 1.398 . S
C1248 C1249 1.391 . S
C1249 H1237 0.950 . S
C1249 C1245 1.393 . S
C1249 C1248 1.391 . S
C1250 H1240 0.950 . S
C1250 C1251 1.386 . S
C1250 C1252 1.391 . S
C1251 C1250 1.386 . S
C1251 C1255 1.393 . S
C1252 H1241 0.950 . S
C1252 C1250 1.391 . S
C1252 C1253 1.400 . S
C1253 C1247 1.491 . S
C1253 C1252 1.400 . S
C1253 C1254 1.398 . S
C1254 H1242 0.950 . S
C1254 C1253 1.398 . S
C1254 C1255 1.391 . S
C1255 H1243 0.950 . S
C1255 C1251 1.393 . S
C1255 C1254 1.391 . S
H1256 C1264 0.950 . S
H1257 C1269 0.950 . S
H1258 C1266 0.950 . S
H1259 C1268 0.950 . S
H1260 C1270 0.950 . S
H1261 C1272 0.950 . S
H1262 C1274 0.950 . S
H1263 C1275 0.936 1_556 S
C1264 H1256 0.950 . S
C1264 C1265 1.386 . S
C1264 C1266 1.391 . S
C1265 C1264 1.386 . S
C1265 C1269 1.393 1_556 S
C1266 H1258 0.950 . S
C1266 C1264 1.391 . S
C1266 C1267 1.400 1_556 S
C1267 C1266 1.400 1_554 S
C1267 C1268 1.398 . S
C1267 C1273 1.491 . S
C1268 H1259 0.950 . S
C1268 C1267 1.398 . S
C1268 C1269 1.391 . S
C1269 H1257 0.950 . S
C1269 C1265 1.393 1_554 S
C1269 C1268 1.391 . S
C1270 H1260 0.950 . S
C1270 C1271 1.386 . S
C1270 C1272 1.391 . S
C1271 C1270 1.386 . S
C1271 C1275 1.414 . S
C1272 H1261 0.950 . S
C1272 C1270 1.391 . S
C1272 C1273 1.400 . S
C1273 C1267 1.491 . S
C1273 C1272 1.400 . S
C1273 C1274 1.398 1_554 S
C1274 H1262 0.950 . S
C1274 C1273 1.398 1_556 S
C1274 C1275 1.384 1_556 S
C1275 H1263 0.936 1_554 S
C1275 C1271 1.414 . S
C1275 C1274 1.384 1_554 S
H1276 C1284 0.950 . S
H1277 C1289 0.950 . S
H1278 C1286 0.950 . S
H1279 C1288 0.950 . S
H1280 C1290 0.950 . S
H1281 C1292 0.950 . S
H1282 C1294 0.950 . S
H1283 C1295 0.950 . S
C1284 H1276 0.950 . S
C1284 C1285 1.386 . S
C1284 C1286 1.391 . S
C1285 C1284 1.386 . S
C1285 C1289 1.393 . S
C1286 H1278 0.950 . S
C1286 C1284 1.391 . S
C1286 C1287 1.400 . S
C1287 C1286 1.400 . S
C1287 C1288 1.398 . S
C1287 C1293 1.491 . S
C1288 H1279 0.950 . S
C1288 C1287 1.398 . S
C1288 C1289 1.391 . S
C1289 H1277 0.950 . S
C1289 C1285 1.393 . S
C1289 C1288 1.391 . S
C1290 H1280 0.950 . S
C1290 C1291 1.386 . S
C1290 C1292 1.391 . S
C1291 C1290 1.386 . S
C1291 C1295 1.393 . S
C1292 H1281 0.950 . S
C1292 C1290 1.391 . S
C1292 C1293 1.400 . S
C1293 C1287 1.491 . S
C1293 C1292 1.400 . S
C1293 C1294 1.398 . S
C1294 H1282 0.950 . S
C1294 C1293 1.398 . S
C1294 C1295 1.391 . S
C1295 H1283 0.950 . S
C1295 C1291 1.393 . S
C1295 C1294 1.391 . S
H1296 C1304 0.950 . S
H1297 C1309 0.950 . S
H1298 C1306 0.950 . S
H1299 C1308 0.950 . S
H1300 C1310 0.950 . S
H1301 C1312 0.950 . S
H1302 C1314 0.950 . S
H1303 C1315 0.950 . S
C1304 H1296 0.950 . S
C1304 C1305 1.386 . S
C1304 C1306 1.391 . S
C1305 C1304 1.386 . S
C1305 C1309 1.393 . S
C1306 H1298 0.950 . S
C1306 C1304 1.391 . S
C1306 C1307 1.400 . S
C1307 C1306 1.400 . S
C1307 C1308 1.398 . S
C1307 C1313 1.491 . S
C1308 H1299 0.950 . S
C1308 C1307 1.398 . S
C1308 C1309 1.391 . S
C1309 H1297 0.950 . S
C1309 C1305 1.393 . S
C1309 C1308 1.391 . S
C1310 H1300 0.950 . S
C1310 C1311 1.386 . S
C1310 C1312 1.391 . S
C1311 C1310 1.386 . S
C1311 C1315 1.393 . S
C1312 H1301 0.950 . S
C1312 C1310 1.391 . S
C1312 C1313 1.400 . S
C1313 C1307 1.491 . S
C1313 C1312 1.400 . S
C1313 C1314 1.398 . S
C1314 H1302 0.950 . S
C1314 C1313 1.398 . S
C1314 C1315 1.391 . S
C1315 H1303 0.950 . S
C1315 C1311 1.393 . S
C1315 C1314 1.391 . S
H1316 C1324 0.950 . S
H1317 C1329 0.950 1_545 S
H1318 C1326 0.950 1_556 S
H1319 C1328 0.950 . S
H1320 C1330 0.950 . S
H1321 C1332 0.950 . S
H1322 C1334 0.932 1_556 S
H1323 C1335 0.950 . S
C1324 H1316 0.950 . S
C1324 C1325 1.386 . S
C1324 C1326 1.391 . S
C1325 C1324 1.386 . S
C1325 C1329 1.393 . S
C1326 H1318 0.950 1_554 S
C1326 C1324 1.391 . S
C1326 C1327 1.400 . S
C1327 C1326 1.400 . S
C1327 C1328 1.398 . S
C1327 C1333 1.491 . S
C1328 H1319 0.950 . S
C1328 C1327 1.398 . S
C1328 C1329 1.391 . S
C1329 H1317 0.950 1_565 S
C1329 C1325 1.393 . S
C1329 C1328 1.391 . S
C1330 H1320 0.950 . S
C1330 C1331 1.386 . S
C1330 C1332 1.391 . S
C1331 C1330 1.386 . S
C1331 C1335 1.393 1_554 S
C1332 H1321 0.950 . S
C1332 C1330 1.391 . S
C1332 C1333 1.400 . S
C1333 C1327 1.491 . S
C1333 C1332 1.400 . S
C1333 C1334 1.427 . S
C1334 H1322 0.932 1_554 S
C1334 C1333 1.427 . S
C1334 C1335 1.381 1_554 S
C1335 H1323 0.950 . S
C1335 C1331 1.393 1_556 S
C1335 C1334 1.381 1_556 S
C391 C216 1.705 . S
C385 C73 1.744 . S
C411 C229 1.284 . S
C405 C82 1.221 . S
C425 C100 1.932 . S
C431 C249 1.820 . S
C451 C263 1.254 . S
C445 C56 1.268 . S
C471 C275 1.419 . S
C465 C134 1.406 . S
C491 C289 1.672 . S
C485 C165 1.652 . S
C505 C147 1.163 . S
C511 C299 1.199 . S
C531 C314 1.849 . S
C525 C125 1.860 . S
C545 C151 1.391 . S
C551 C328 1.366 . S
C571 C347 1.382 . S
C565 C121 1.373 . S
C585 C139 1.757 . S
C591 C327 1.762 . S
C611 C345 1.257 . S
C605 C164 1.263 . S
C625 C95 1.415 . S
C631 C361 1.380 . S
C645 C61 1.467 . S
C651 C355 1.465 . S
C665 C74 1.460 . S
C671 C359 1.459 . S
C685 C86 1.789 . S
C691 C356 1.762 . S
C705 C47 1.433 . S
C711 C258 1.397 . S
C725 C186 1.257 . S
C731 C257 1.304 . S
C751 C221 1.307 . S
C745 C204 1.429 . S
C771 C235 1.831 . S
C765 C112 1.935 . S
C785 C60 1.397 . S
C791 C272 1.350 . S
C811 C317 1.455 . S
C805 C152 1.459 . S
C831 C271 1.866 . S
C825 C126 1.880 . S
C851 C303 1.231 . S
C845 C160 1.234 . S
C871 C300 1.696 . S
C865 C190 1.742 . S
C885 C199 1.249 . S
C891 C313 1.280 . S
C905 C113 1.930 . S
C911 C277 1.807 . S
C931 C291 1.249 . S
C925 C173 1.263 . S
C945 C43 1.406 . S
C951 C247 1.419 . S
C971 C261 1.672 . S
C965 C9 1.653 1_655 S
C991 C215 1.195 . S
C985 C17 1.155 . S
C1011 C230 1.848 . S
C1005 C34 1.857 1_455 S
C1025 C21 1.387 . S
C1031 C342 1.376 . S
C1045 C30 1.396 . S
C1051 C333 1.361 . S
C1065 C48 1.758 . S
C1071 C341 1.762 . S
C1085 C8 1.264 . S
C1091 C331 1.256 . S
C1111 C375 1.383 . S
C1105 C108 1.417 . S
C1131 C369 1.475 . S
C1125 C178 1.471 1_554 S
C1151 C373 1.466 . S
C1145 C191 1.463 . S
C1165 C203 1.789 1_554 S
C1171 C370 1.763 . S
C1185 C138 1.428 . S
C1191 C286 1.381 . S
C1211 C285 1.305 . S
C1205 C69 1.259 . S
C1231 C305 1.331 . S
C1225 C87 1.432 . S
C1251 C319 1.821 . S
C1245 C99 1.933 . S
C1265 C177 1.396 . S
C1271 C244 1.357 . S
C1291 C233 1.464 . S
C1285 C22 1.456 . S
C1305 C35 1.882 . S
C1311 C243 1.863 . S
C1331 C219 1.231 . S
C1325 C4 1.240 . S
