# Generated by pormake.
# Topology nom, (4,4)-cn, num edge types: 1
# Building blocks:
#     Node 0, Type 0, BuildingBlock: KUFVIS_clean_linker_0, # of connection points: 4
#     Node 1, Type 0, BuildingBlock: KUFVIS_clean_linker_0, # of connection points: 4
#     Node 2, Type 0, BuildingBlock: KUFVIS_clean_linker_0, # of connection points: 4
#     Node 3, Type 0, BuildingBlock: KUFVIS_clean_linker_0, # of connection points: 4
#     Node 4, Type 0, BuildingBlock: KUFVIS_clean_linker_0, # of connection points: 4
#     Node 5, Type 0, BuildingBlock: KUFVIS_clean_linker_0, # of connection points: 4
#     Node 6, Type 1, BuildingBlock: UXUYUI_clean_sbu_0, # of connection points: 4
#     Node 7, Type 1, BuildingBlock: UXUYUI_clean_sbu_0, # of connection points: 4
#     Node 8, Type 1, BuildingBlock: UXUYUI_clean_sbu_0, # of connection points: 4
#     Node 9, Type 1, BuildingBlock: UXUYUI_clean_sbu_0, # of connection points: 4
#     Node 10, Type 1, BuildingBlock: UXUYUI_clean_sbu_0, # of connection points: 4
#     Node 11, Type 1, BuildingBlock: UXUYUI_clean_sbu_0, # of connection points: 4
#     Edge 12, Type (0, 1), BuildingBlock: MIFKUJ_clean_linker_0, # of connection points: 2
#     Edge 13, Type (0, 1), BuildingBlock: MIFKUJ_clean_linker_0, # of connection points: 2
#     Edge 14, Type (0, 1), BuildingBlock: MIFKUJ_clean_linker_0, # of connection points: 2
#     Edge 15, Type (0, 1), BuildingBlock: MIFKUJ_clean_linker_0, # of connection points: 2
#     Edge 16, Type (0, 1), BuildingBlock: MIFKUJ_clean_linker_0, # of connection points: 2
#     Edge 17, Type (0, 1), BuildingBlock: MIFKUJ_clean_linker_0, # of connection points: 2
#     Edge 18, Type (0, 1), BuildingBlock: MIFKUJ_clean_linker_0, # of connection points: 2
#     Edge 19, Type (0, 1), BuildingBlock: MIFKUJ_clean_linker_0, # of connection points: 2
#     Edge 20, Type (0, 1), BuildingBlock: MIFKUJ_clean_linker_0, # of connection points: 2
#     Edge 21, Type (0, 1), BuildingBlock: MIFKUJ_clean_linker_0, # of connection points: 2
#     Edge 22, Type (0, 1), BuildingBlock: MIFKUJ_clean_linker_0, # of connection points: 2
#     Edge 23, Type (0, 1), BuildingBlock: MIFKUJ_clean_linker_0, # of connection points: 2
#     Edge 24, Type (0, 1), BuildingBlock: MIFKUJ_clean_linker_0, # of connection points: 2
#     Edge 25, Type (0, 1), BuildingBlock: MIFKUJ_clean_linker_0, # of connection points: 2
#     Edge 26, Type (0, 1), BuildingBlock: MIFKUJ_clean_linker_0, # of connection points: 2
#     Edge 27, Type (0, 1), BuildingBlock: MIFKUJ_clean_linker_0, # of connection points: 2
#     Edge 28, Type (0, 1), BuildingBlock: MIFKUJ_clean_linker_0, # of connection points: 2
#     Edge 29, Type (0, 1), BuildingBlock: MIFKUJ_clean_linker_0, # of connection points: 2
#     Edge 30, Type (0, 1), BuildingBlock: MIFKUJ_clean_linker_0, # of connection points: 2
#     Edge 31, Type (0, 1), BuildingBlock: MIFKUJ_clean_linker_0, # of connection points: 2
#     Edge 32, Type (0, 1), BuildingBlock: MIFKUJ_clean_linker_0, # of connection points: 2
#     Edge 33, Type (0, 1), BuildingBlock: MIFKUJ_clean_linker_0, # of connection points: 2
#     Edge 34, Type (0, 1), BuildingBlock: MIFKUJ_clean_linker_0, # of connection points: 2
#     Edge 35, Type (0, 1), BuildingBlock: MIFKUJ_clean_linker_0, # of connection points: 2
# Relax obj value: 0.035
# Max RMSD: 0.147
# Mean RMSD: 0.094
data_MOF--net-nom--node1-UXUYUI_clean_sbu_0--node2-KUFVIS_clean_linker_0--edge1-MIFKUJ_clean_linker_0
_symmetry_space_group_name_H-M    P1
_symmetry_Int_Tables_number       1
_symmetry_cell_setting            triclinic
loop_
_symmetry_equiv_pos_as_xyz
'x, y, z'
_cell_length_a     69.414589
_cell_length_b     69.46138
_cell_length_c     70.02426
_cell_angle_alpha  89.942888
_cell_angle_beta   90.054794
_cell_angle_gamma 119.93526
loop_
_atom_site_label
_atom_site_type_symbol
_atom_site_fract_x
_atom_site_fract_y
_atom_site_fract_z
_atom_type_partial_charge
H0 H 0.10047 0.56482 0.34198 0.0
H1 H 0.0495 0.55846 0.30365 0.0
H2 H 0.03233 0.52909 0.36002 0.0
H3 H 1.00504 0.53885 0.35555 0.0
H4 H 0.95111 0.51138 0.31555 0.0
H5 H 0.01589 0.52577 0.29725 0.0
C6 C 0.08295 0.55805 0.33886 0.0
C7 C 0.06714 0.54646 0.35307 0.0
C8 C 0.0767 0.5623 0.32106 0.0
C9 C 0.05414 0.55463 0.3173 0.0
C10 C 0.03773 0.54226 0.33116 0.0
C11 C 0.04453 0.53847 0.34913 0.0
C12 C 0.01363 0.53355 0.32692 0.0
C13 C 0.99898 0.53291 0.34127 0.0
C14 C 0.97649 0.52518 0.3371 0.0
C15 C 0.96862 0.51796 0.3186 0.0
C16 C 0.9827 0.51833 0.30413 0.0
C17 C 1.00513 0.52587 0.30839 0.0
H18 H 0.54779 0.09583 0.50822 0.0
H19 H 0.51443 0.04464 0.46642 0.0
H20 H 0.52328 0.02775 0.52403 0.0
H21 H 0.48693 0.99744 0.51568 0.0
H22 H 0.47588 0.94654 0.4752 0.0
H23 H 0.52137 0.01465 0.46144 0.0
C24 C 0.53936 0.07835 0.50446 0.0
C25 C 0.53657 0.06256 0.51825 0.0
C26 C 0.53147 0.07199 0.48585 0.0
C27 C 0.52062 0.04942 0.48085 0.0
C28 C 0.51726 0.0331 0.4946 0.0
C29 C 0.52523 0.03992 0.51337 0.0
C30 C 0.50575 0.00907 0.4893 0.0
C31 C 0.49065 0.99266 0.50205 0.0
C32 C 0.47958 0.97009 0.49688 0.0
C33 C 0.48425 0.96395 0.47919 0.0
C34 C 0.49918 0.97985 0.46639 0.0
C35 C 0.50974 1.00241 0.47138 0.0
H36 H 0.53844 0.46103 0.63952 0.0
H37 H 0.51119 0.48169 0.6847 0.0
H38 H 0.52351 0.51282 0.62892 0.0
H39 H 0.49324 0.51536 0.63705 0.0
H40 H 0.48252 0.55003 0.68272 0.0
H41 H 0.51779 0.51549 0.69408 0.0
C42 C 0.53182 0.47133 0.6446 0.0
C43 C 0.53087 0.48647 0.63206 0.0
C44 C 0.52515 0.46978 0.66365 0.0
C45 C 0.51707 0.48359 0.67013 0.0
C46 C 0.51601 0.49919 0.65773 0.0
C47 C 0.52346 0.50071 0.63869 0.0
C48 C 0.50699 0.51363 0.66455 0.0
C49 C 0.49573 0.52061 0.65183 0.0
C50 C 0.48746 0.53432 0.65815 0.0
C51 C 0.4897 0.54032 0.67743 0.0
C52 C 0.50029 0.53332 0.69029 0.0
C53 C 0.50921 0.5203 0.6839 0.0
H54 H 0.09962 0.53552 0.80855 0.0
H55 H 0.04914 0.50887 0.85171 0.0
H56 H 0.03361 0.5208 0.79452 0.0
H57 H 1.00036 0.48988 0.8021 0.0
H58 H 0.9529 0.4833 0.84443 0.0
H59 H 0.02211 0.51741 0.85871 0.0
C60 C 0.08243 0.52898 0.81275 0.0
C61 C 0.06715 0.52817 0.79929 0.0
C62 C 0.07617 0.52237 0.83169 0.0
C63 C 0.054 0.51454 0.83718 0.0
C64 C 0.03815 0.51351 0.82384 0.0
C65 C 0.04515 0.5208 0.80493 0.0
C66 C 0.01443 0.50499 0.82957 0.0
C67 C 0.9969 0.49334 0.81636 0.0
C68 C 0.97472 0.48604 0.8215 0.0
C69 C 0.97006 0.4898 0.84012 0.0
C70 C 0.98696 0.50078 0.85359 0.0
C71 C 1.00912 0.50845 0.84828 0.0
H72 H 0.49975 0.94788 0.01475 0.0
H73 H 0.53961 0.9949 0.97164 0.0
H74 H 0.52406 0.017 0.02431 0.0
H75 H 0.55741 0.04742 0.01817 0.0
H76 H 0.57879 0.09389 0.97184 0.0
H77 H 0.53763 0.02462 0.95995 0.0
C78 C 0.50914 0.96488 0.00966 0.0
C79 C 0.51115 0.98199 0.02142 0.0
C80 C 0.51937 0.96935 0.99174 0.0
C81 C 0.5313 0.99149 0.98532 0.0
C82 C 0.53322 0.00914 0.99686 0.0
C83 C 0.52305 1.00404 0.01507 0.0
C84 C 0.54591 0.03274 0.99 0.0
C85 C 0.55734 0.05056 0.00303 0.0
C86 C 0.56859 0.07268 0.99657 0.0
C87 C 0.56957 0.07689 0.97698 0.0
C88 C 0.55883 0.05968 0.96383 0.0
C89 C 0.54655 0.03769 0.9703 0.0
H90 H 0.51039 0.57715 0.13865 0.0
H91 H 0.54233 0.56316 0.18471 0.0
H92 H 0.53319 0.53087 0.12982 0.0
H93 H 0.56741 0.53566 0.13829 0.0
H94 H 0.58554 0.50744 0.1846 0.0
H95 H 0.53916 0.52991 0.19461 0.0
C96 C 0.51848 0.56839 0.14421 0.0
C97 C 0.52135 0.55398 0.13222 0.0
C98 C 0.52575 0.57162 0.16316 0.0
C99 C 0.53606 0.56002 0.17021 0.0
C100 C 0.53919 0.54531 0.1583 0.0
C101 C 0.53135 0.54219 0.13926 0.0
C102 C 0.55144 0.53406 0.16544 0.0
C103 C 0.56546 0.53042 0.15307 0.0
C104 C 0.57786 0.52088 0.15991 0.0
C105 C 0.57623 0.51502 0.17919 0.0
C106 C 0.5626 0.51851 0.19168 0.0
C107 C 0.54992 0.52765 0.1848 0.0
Li108 Li 0.65129 0.40242 0.42981 0.0
Li109 Li 0.64536 0.36878 0.41394 0.0
Li110 Li 0.68083 0.40427 0.41114 0.0
Li111 Li 0.6479 0.40023 0.39465 0.0
C112 C 0.66917 0.38593 0.45364 0.0
N113 N 0.67225 0.38645 0.49301 0.0
C114 C 0.658 0.36613 0.464 0.0
C115 C 0.68215 0.40595 0.4633 0.0
C116 C 0.65971 0.36675 0.4839 0.0
C117 C 0.68342 0.40589 0.48321 0.0
C118 C 0.60628 0.37121 0.42494 0.0
C119 C 0.56963 0.36473 0.43264 0.0
N120 N 0.56823 0.35096 0.44705 0.0
C121 C 0.6044 0.35691 0.43977 0.0
C122 C 0.58869 0.37508 0.42127 0.0
C123 C 0.58507 0.34686 0.45081 0.0
C124 C 0.64813 0.43603 0.44923 0.0
N125 N 0.6434 0.41462 0.4511 0.0
C126 C 0.62514 0.41142 0.48088 0.0
C127 C 0.63238 0.40238 0.46669 0.0
C128 C 0.62947 0.43343 0.47919 0.0
C129 C 0.6415 0.44585 0.4632 0.0
H130 H 0.65677 0.44545 0.43668 0.0
H131 H 0.62886 0.38545 0.46804 0.0
C132 C 0.6455 0.32874 0.42039 0.0
N133 N 0.63235 0.33709 0.41484 0.0
C134 C 0.63672 0.3058 0.42201 0.0
C135 C 0.60109 0.30041 0.41183 0.0
C136 C 0.61061 0.32345 0.41026 0.0
C137 C 0.61415 0.2913 0.41792 0.0
H138 H 0.66277 0.33997 0.42385 0.0
H139 H 0.60056 0.33047 0.4056 0.0
C140 C 0.68814 0.44461 0.40654 0.0
N141 N 0.72734 0.48308 0.39811 0.0
C142 C 0.69359 0.45155 0.38759 0.0
C143 C 0.70252 0.45736 0.42121 0.0
C144 C 0.7135 0.47103 0.38362 0.0
C145 C 0.72229 0.47671 0.41665 0.0
C146 C 0.65433 0.36876 0.37516 0.0
C147 C 0.66774 0.3641 0.36341 0.0
C148 C 0.63151 0.35863 0.37154 0.0
C149 C 0.65808 0.34933 0.34819 0.0
C150 C 0.62249 0.34396 0.35619 0.0
N151 N 0.63585 0.33965 0.34493 0.0
C152 C 0.72545 0.42052 0.42399 0.0
C153 C 0.72129 0.42327 0.39069 0.0
C154 C 0.74852 0.43061 0.42202 0.0
N155 N 0.71239 0.41722 0.40846 0.0
C156 C 0.74428 0.43355 0.38807 0.0
C157 C 0.75826 0.43742 0.40388 0.0
H158 H 0.718 0.41542 0.43794 0.0
H159 H 0.7105 0.42027 0.37854 0.0
C160 C 0.62168 0.41539 0.37768 0.0
N161 N 0.63679 0.40903 0.37344 0.0
C162 C 0.6129 0.42267 0.36329 0.0
C163 C 0.63603 0.41753 0.34043 0.0
C164 C 0.6441 0.40997 0.35526 0.0
C165 C 0.62017 0.42393 0.34441 0.0
H166 H 0.61679 0.41521 0.39234 0.0
H167 H 0.65645 0.40522 0.35231 0.0
O168 O 0.66766 0.38566 0.43414 0.0
O169 O 0.62509 0.38119 0.41392 0.0
O170 O 0.66903 0.42525 0.41067 0.0
O171 O 0.66359 0.38309 0.39017 0.0
H172 H 0.6481 0.35043 0.45678 0.0
H173 H 0.69091 0.42142 0.45553 0.0
H174 H 0.65106 0.35156 0.49209 0.0
H175 H 0.69325 0.4213 0.49086 0.0
H176 H 0.55592 0.36762 0.42997 0.0
H177 H 0.6178 0.35375 0.44287 0.0
H178 H 0.58964 0.38586 0.40975 0.0
H179 H 0.58349 0.33584 0.46238 0.0
H180 H 0.61569 0.401 0.49275 0.0
H181 H 0.64566 0.46298 0.46136 0.0
H182 H 0.64733 0.2995 0.4269 0.0
H183 H 0.5837 0.28984 0.40829 0.0
H184 H 0.68272 0.44186 0.37606 0.0
H185 H 0.69851 0.45231 0.43596 0.0
H186 H 0.718 0.47651 0.36901 0.0
H187 H 0.73363 0.48666 0.42786 0.0
H188 H 0.68543 0.37181 0.36605 0.0
H189 H 0.62086 0.36206 0.38044 0.0
H190 H 0.66826 0.34556 0.33897 0.0
H191 H 0.60486 0.33601 0.35322 0.0
H192 H 0.75865 0.4334 0.43461 0.0
H193 H 0.75102 0.43821 0.37379 0.0
H194 H 0.60104 0.42788 0.36698 0.0
H195 H 0.64207 0.41835 0.32603 0.0
Li196 Li 0.26826 0.64684 0.59568 0.0
Li197 Li 0.29614 0.64037 0.58109 0.0
Li198 Li 0.29526 0.67544 0.57577 0.0
Li199 Li 0.26611 0.64086 0.56106 0.0
C200 C 0.30349 0.6665 0.61898 0.0
N201 N 0.30822 0.67169 0.65811 0.0
C202 C 0.31059 0.65414 0.6296 0.0
C203 C 0.29906 0.6817 0.62821 0.0
C204 C 0.31283 0.65696 0.64938 0.0
C205 C 0.30146 0.68401 0.64803 0.0
C206 C 0.25155 0.60291 0.5942 0.0
C207 C 0.21625 0.57388 0.60599 0.0
N208 N 0.22692 0.56973 0.62031 0.0
C209 C 0.26215 0.59833 0.60903 0.0
C210 C 0.2284 0.59054 0.59262 0.0
C211 C 0.24942 0.58148 0.62207 0.0
C212 C 0.23027 0.64238 0.6136 0.0
N213 N 0.24835 0.64016 0.61698 0.0
C214 C 0.23411 0.62448 0.64775 0.0
C215 C 0.25064 0.63163 0.63378 0.0
C216 C 0.215 0.62615 0.64446 0.0
C217 C 0.21344 0.63561 0.62721 0.0
H218 H 0.22858 0.64887 0.60006 0.0
H219 H 0.26485 0.62954 0.63612 0.0
C220 C 0.33729 0.64265 0.587 0.0
N221 N 0.31545 0.62825 0.5835 0.0
C222 C 0.35207 0.63477 0.58988 0.0
C223 C 0.3217 0.59739 0.58508 0.0
C224 C 0.30755 0.60602 0.58211 0.0
C225 C 0.3443 0.61179 0.58928 0.0
H226 H 0.34315 0.66027 0.58782 0.0
H227 H 0.29014 0.59493 0.57909 0.0
C228 C 0.25978 0.68061 0.57142 0.0
N229 N 0.25468 0.71663 0.56285 0.0
C230 C 0.2539 0.68335 0.55294 0.0
C231 C 0.26279 0.69601 0.5856 0.0
C232 C 0.25146 0.70171 0.54888 0.0
C233 C 0.26023 0.71417 0.58096 0.0
C234 C 0.30465 0.64701 0.54186 0.0
C235 C 0.32146 0.66026 0.52897 0.0
C236 C 0.29385 0.62388 0.5402 0.0
C237 C 0.32716 0.65013 0.51455 0.0
C238 C 0.30004 0.61439 0.52559 0.0
N239 N 0.31642 0.6276 0.51317 0.0
C240 C 0.3284 0.71951 0.58539 0.0
C241 C 0.31135 0.7159 0.5553 0.0
C242 C 0.34184 0.74243 0.58273 0.0
N243 N 0.31346 0.70679 0.5718 0.0
C244 C 0.32412 0.73878 0.5522 0.0
C245 C 0.33978 0.75248 0.56597 0.0
H246 H 0.33006 0.71184 0.59825 0.0
H247 H 0.29966 0.70538 0.54454 0.0
C248 C 0.22376 0.61946 0.54568 0.0
N249 N 0.2454 0.62843 0.54045 0.0
C250 C 0.20688 0.61013 0.53204 0.0
C251 C 0.23486 0.61998 0.50765 0.0
C252 C 0.25124 0.62914 0.52181 0.0
C253 C 0.21229 0.61027 0.5127 0.0
H254 H 0.21963 0.61984 0.5605 0.0
H255 H 0.26855 0.63707 0.51782 0.0
O256 O 0.30129 0.66403 0.59959 0.0
O257 O 0.26374 0.61959 0.58145 0.0
O258 O 0.26244 0.66285 0.57565 0.0
O259 O 0.29915 0.65673 0.55621 0.0
H260 H 0.31425 0.64242 0.62266 0.0
H261 H 0.29378 0.69154 0.62017 0.0
H262 H 0.3182 0.64743 0.6578 0.0
H263 H 0.29797 0.69562 0.65538 0.0
H264 H 0.19832 0.56425 0.60497 0.0
H265 H 0.27999 0.60796 0.61072 0.0
H266 H 0.21987 0.59375 0.58125 0.0
H267 H 0.25743 0.57787 0.63368 0.0
H268 H 0.23594 0.61696 0.66067 0.0
H269 H 0.19921 0.63756 0.62411 0.0
H270 H 0.36939 0.6466 0.59263 0.0
H271 H 0.31482 0.57956 0.58463 0.0
H272 H 0.25148 0.67156 0.54181 0.0
H273 H 0.26711 0.69399 0.60001 0.0
H274 H 0.24706 0.70413 0.53461 0.0
H275 H 0.26264 0.7263 0.59176 0.0
H276 H 0.33002 0.67819 0.53013 0.0
H277 H 0.28077 0.61336 0.55001 0.0
H278 H 0.34013 0.66018 0.50446 0.0
H279 H 0.29182 0.59652 0.52412 0.0
H280 H 0.35394 0.75205 0.5936 0.0
H281 H 0.32154 0.74558 0.53918 0.0
H282 H 0.18975 0.60278 0.53665 0.0
H283 H 0.23985 0.62094 0.49287 0.0
Li284 Li 0.67938 0.29078 0.74496 0.0
Li285 Li 0.64586 0.26328 0.76068 0.0
Li286 Li 0.64856 0.25962 0.72632 0.0
Li287 Li 0.64294 0.28984 0.74006 0.0
C288 C 0.67221 0.2463 0.75971 0.0
N289 N 0.67872 0.22168 0.78737 0.0
C290 C 0.68507 0.25675 0.77585 0.0
C291 C 0.66287 0.22335 0.75755 0.0
C292 C 0.68813 0.24402 0.78969 0.0
C293 C 0.66628 0.21119 0.77172 0.0
C294 C 0.66264 0.30373 0.78158 0.0
C295 C 0.64702 0.31328 0.80818 0.0
N296 N 0.66593 0.31946 0.81834 0.0
C297 C 0.68208 0.31052 0.79216 0.0
C298 C 0.6451 0.30543 0.78952 0.0
C299 C 0.68336 0.3183 0.81077 0.0
C300 C 0.71827 0.33258 0.74692 0.0
N301 N 0.71071 0.31039 0.74673 0.0
C302 C 0.74768 0.31677 0.75069 0.0
C303 C 0.7249 0.3023 0.7482 0.0
C304 C 0.75603 0.33985 0.75143 0.0
C305 C 0.74094 0.34767 0.74916 0.0
H306 H 0.7066 0.33853 0.74555 0.0
H307 H 0.71849 0.28457 0.74777 0.0
C308 C 0.61734 0.22318 0.7785 0.0
N309 N 0.63357 0.24428 0.78258 0.0
C310 C 0.60855 0.20709 0.79282 0.0
C311 C 0.63335 0.23461 0.81541 0.0
C312 C 0.64154 0.25026 0.80065 0.0
C313 C 0.61675 0.21264 0.81153 0.0
H314 H 0.6117 0.21866 0.76394 0.0
H315 H 0.65481 0.26688 0.80356 0.0
C316 C 0.67998 0.29811 0.70564 0.0
N317 N 0.7107 0.30999 0.67654 0.0
C318 C 0.68309 0.31477 0.69273 0.0
C319 C 0.69256 0.28756 0.70383 0.0
C320 C 0.69868 0.32051 0.67809 0.0
C321 C 0.70799 0.29379 0.689 0.0
C322 C 0.60143 0.24899 0.74437 0.0
C323 C 0.58571 0.23536 0.73084 0.0
C324 C 0.59443 0.25405 0.76137 0.0
C325 C 0.56316 0.22718 0.73451 0.0
C326 C 0.57173 0.24553 0.76452 0.0
N327 N 0.55669 0.23239 0.75112 0.0
C328 C 0.62708 0.21667 0.71207 0.0
C329 C 0.64323 0.24355 0.68751 0.0
C330 C 0.61875 0.19947 0.69872 0.0
N331 N 0.63928 0.23817 0.70633 0.0
C332 C 0.63513 0.22685 0.67363 0.0
C333 C 0.62269 0.20442 0.67916 0.0
H334 H 0.62355 0.21292 0.72708 0.0
H335 H 0.65229 0.26076 0.68317 0.0
C336 C 0.63971 0.32873 0.74277 0.0
N337 N 0.62929 0.30754 0.73608 0.0
C338 C 0.63027 0.34223 0.74006 0.0
C339 C 0.59944 0.31176 0.72381 0.0
C340 C 0.60961 0.29897 0.72662 0.0
C341 C 0.6098 0.33381 0.73046 0.0
H342 H 0.65545 0.33519 0.75012 0.0
H343 H 0.60178 0.28218 0.7212 0.0
O344 O 0.66842 0.25844 0.74635 0.0
O345 O 0.66119 0.29628 0.76328 0.0
O346 O 0.66505 0.29257 0.72023 0.0
O347 O 0.62356 0.25719 0.74092 0.0
H348 H 0.69231 0.27445 0.77782 0.0
H349 H 0.65304 0.21497 0.74511 0.0
H350 H 0.69789 0.25189 0.80232 0.0
H351 H 0.65903 0.19339 0.77028 0.0
H352 H 0.63351 0.31457 0.81456 0.0
H353 H 0.69602 0.3098 0.78608 0.0
H354 H 0.63023 0.30093 0.78133 0.0
H355 H 0.69822 0.32346 0.81918 0.0
H356 H 0.75849 0.30985 0.75257 0.0
H357 H 0.74652 0.36526 0.7492 0.0
H358 H 0.59606 0.19026 0.78913 0.0
H359 H 0.64011 0.23957 0.82966 0.0
H360 H 0.67356 0.32317 0.69404 0.0
H361 H 0.69043 0.27468 0.71373 0.0
H362 H 0.70125 0.33336 0.66797 0.0
H363 H 0.71782 0.28575 0.68741 0.0
H364 H 0.5909 0.23126 0.71762 0.0
H365 H 0.60637 0.26427 0.77208 0.0
H366 H 0.5508 0.21668 0.72414 0.0
H367 H 0.56606 0.24931 0.77762 0.0
H368 H 0.60936 0.18248 0.70372 0.0
H369 H 0.63815 0.23151 0.65871 0.0
H370 H 0.63914 0.35919 0.74517 0.0
H371 H 0.58353 0.30431 0.7166 0.0
Li372 Li 0.40183 0.63779 0.92962 0.0
Li373 Li 0.40801 0.67249 0.91442 0.0
Li374 Li 0.37148 0.63636 0.90956 0.0
Li375 Li 0.4064 0.64317 0.89402 0.0
C376 C 0.37677 0.65209 0.95152 0.0
N377 N 0.36035 0.64919 0.98799 0.0
C378 C 0.38831 0.66932 0.96457 0.0
C379 C 0.35664 0.63359 0.95691 0.0
C380 C 0.37981 0.66748 0.98298 0.0
C381 C 0.34868 0.63238 0.97544 0.0
C382 C 0.44929 0.67646 0.91655 0.0
C383 C 0.48129 0.70899 0.9039 0.0
N384 N 0.49235 0.71117 0.92052 0.0
C385 C 0.46103 0.6789 0.93344 0.0
C386 C 0.45953 0.6915 0.90159 0.0
C387 C 0.48276 0.6966 0.9352 0.0
C388 C 0.41038 0.60663 0.94778 0.0
N389 N 0.4094 0.62546 0.95083 0.0
C390 C 0.4228 0.62801 0.98274 0.0
C391 C 0.41547 0.63622 0.96788 0.0
C392 C 0.42398 0.60858 0.97998 0.0
C393 C 0.41744 0.59775 0.96227 0.0
H394 H 0.40625 0.5988 0.9339 0.0
H395 H 0.41534 0.65156 0.96979 0.0
C396 C 0.41569 0.71618 0.90693 0.0
N397 N 0.42136 0.70391 0.91831 0.0
C398 C 0.42513 0.73907 0.90994 0.0
C399 C 0.44633 0.73629 0.93607 0.0
C400 C 0.43619 0.71347 0.93279 0.0
C401 C 0.44075 0.74952 0.9247 0.0
H402 H 0.40363 0.70815 0.89565 0.0
H403 H 0.44013 0.70335 0.9419 0.0
C404 C 0.3706 0.59453 0.91105 0.0
N405 N 0.34194 0.54952 0.91577 0.0
C406 C 0.36757 0.57975 0.89628 0.0
C407 C 0.35923 0.58641 0.92827 0.0
C408 C 0.35295 0.55706 0.89892 0.0
C409 C 0.34478 0.5636 0.93037 0.0
C410 C 0.38984 0.66286 0.87135 0.0
C411 C 0.37095 0.64869 0.86073 0.0
C412 C 0.40835 0.67996 0.86218 0.0
C413 C 0.37106 0.65164 0.84098 0.0
C414 C 0.40781 0.68236 0.84241 0.0
N415 N 0.38934 0.66825 0.8323 0.0
C416 C 0.32953 0.634 0.91305 0.0
C417 C 0.32834 0.60332 0.89726 0.0
C418 C 0.30658 0.62491 0.91059 0.0
N419 N 0.3399 0.62312 0.90644 0.0
C420 C 0.3054 0.59348 0.89476 0.0
C421 C 0.29411 0.60431 0.9013 0.0
H422 H 0.33914 0.64987 0.9201 0.0
H423 H 0.33692 0.5952 0.89166 0.0
C424 C 0.43976 0.64083 0.87276 0.0
N425 N 0.41816 0.63578 0.87234 0.0
C426 C 0.44839 0.63369 0.85814 0.0
C427 C 0.41244 0.61644 0.84277 0.0
C428 C 0.40448 0.62381 0.85776 0.0
C429 C 0.43463 0.62109 0.84294 0.0
H430 H 0.45015 0.64977 0.88477 0.0
H431 H 0.38719 0.61938 0.85803 0.0
O432 O 0.38476 0.65373 0.93339 0.0
O433 O 0.42792 0.65936 0.91466 0.0
O434 O 0.38477 0.61681 0.90862 0.0
O435 O 0.39008 0.66016 0.89067 0.0
H436 H 0.40376 0.68389 0.96058 0.0
H437 H 0.34714 0.62039 0.94685 0.0
H438 H 0.38868 0.68061 0.99327 0.0
H439 H 0.33316 0.61811 0.97981 0.0
H440 H 0.48938 0.72083 0.89247 0.0
H441 H 0.45339 0.66732 0.94512 0.0
H442 H 0.45076 0.6897 0.88836 0.0
H443 H 0.49201 0.69876 0.94823 0.0
H444 H 0.42771 0.6369 0.99617 0.0
H445 H 0.41853 0.583 0.95939 0.0
H446 H 0.41989 0.74833 0.90098 0.0
H447 H 0.45852 0.74342 0.9474 0.0
H448 H 0.37634 0.58575 0.88289 0.0
H449 H 0.36177 0.59754 0.93997 0.0
H450 H 0.35036 0.54544 0.88759 0.0
H451 H 0.33587 0.55709 0.94363 0.0
H452 H 0.35644 0.63544 0.86762 0.0
H453 H 0.42294 0.6913 0.87024 0.0
H454 H 0.35661 0.6407 0.83255 0.0
H455 H 0.42206 0.69546 0.8351 0.0
H456 H 0.29883 0.63416 0.9156 0.0
H457 H 0.29666 0.57747 0.88777 0.0
H458 H 0.46544 0.63731 0.85915 0.0
H459 H 0.40122 0.60695 0.83132 0.0
Li460 Li 0.75817 0.40525 0.07797 0.0
Li461 Li 0.78751 0.39913 0.09361 0.0
Li462 Li 0.78714 0.40404 0.0596 0.0
Li463 Li 0.75892 0.36983 0.0735 0.0
C464 C 0.80722 0.44526 0.07314 0.0
N465 N 0.84113 0.48447 0.05831 0.0
C466 C 0.82886 0.45418 0.08019 0.0
C467 C 0.80278 0.45647 0.05876 0.0
C468 C 0.84579 0.47398 0.07245 0.0
C469 C 0.82016 0.47621 0.05139 0.0
C470 C 0.74848 0.36708 0.11206 0.0
C471 C 0.75412 0.34043 0.12965 0.0
N472 N 0.73626 0.33582 0.14076 0.0
C473 C 0.73017 0.36207 0.12362 0.0
C474 C 0.76057 0.35618 0.11506 0.0
C475 C 0.72426 0.34622 0.13807 0.0
C476 C 0.71745 0.4057 0.07846 0.0
N477 N 0.73976 0.41811 0.08131 0.0
C478 C 0.73644 0.44958 0.09005 0.0
C479 C 0.74941 0.43968 0.0869 0.0
C480 C 0.71327 0.43715 0.0875 0.0
C481 C 0.70382 0.41494 0.08146 0.0
H482 H 0.71025 0.38854 0.07405 0.0
H483 H 0.76719 0.44917 0.08906 0.0
C484 C 0.82696 0.40864 0.11228 0.0
N485 N 0.80643 0.40603 0.11515 0.0
C486 C 0.84246 0.41591 0.12712 0.0
C487 C 0.81507 0.41684 0.14781 0.0
C488 C 0.80016 0.40973 0.1325 0.0
C489 C 0.83672 0.42041 0.14515 0.0
H490 H 0.83155 0.40586 0.09822 0.0
H491 H 0.78373 0.40759 0.13433 0.0
C492 C 0.74765 0.39083 0.03684 0.0
N493 N 0.73309 0.39574 0.0014 0.0
C494 C 0.74092 0.37403 0.02317 0.0
C495 C 0.74653 0.40992 0.03263 0.0
C496 C 0.73374 0.37689 0.00529 0.0
C497 C 0.73924 0.41215 0.01459 0.0
C498 C 0.79751 0.36975 0.06188 0.0
C499 C 0.78861 0.36396 0.04351 0.0
C500 C 0.81257 0.36335 0.06825 0.0
C501 C 0.79488 0.35178 0.03178 0.0
C502 C 0.81842 0.35116 0.05609 0.0
N503 N 0.80953 0.34567 0.03826 0.0
C504 C 0.82925 0.42264 0.04434 0.0
C505 C 0.80352 0.42037 0.02098 0.0
C506 C 0.84665 0.43233 0.03125 0.0
N507 N 0.80821 0.41697 0.03911 0.0
C508 C 0.82044 0.42982 0.00729 0.0
C509 C 0.8424 0.43594 0.01235 0.0
H510 H 0.83253 0.4197 0.05884 0.0
H511 H 0.78674 0.41569 0.017 0.0
C512 C 0.71843 0.33148 0.06529 0.0
N513 N 0.73984 0.33851 0.0703 0.0
C514 C 0.7036 0.30893 0.0621 0.0
C515 C 0.73309 0.3012 0.0694 0.0
C516 C 0.74727 0.32388 0.07269 0.0
C517 C 0.7109 0.29339 0.06387 0.0
H518 H 0.71291 0.34346 0.06368 0.0
H519 H 0.76426 0.32978 0.07698 0.0
O520 O 0.79052 0.42562 0.08024 0.0
O521 O 0.75434 0.38243 0.09777 0.0
O522 O 0.75449 0.38818 0.05449 0.0
O523 O 0.7917 0.38175 0.07362 0.0
H524 H 0.8326 0.44585 0.09139 0.0
H525 H 0.78614 0.44993 0.05325 0.0
H526 H 0.86264 0.48098 0.07768 0.0
H527 H 0.81697 0.48495 0.04015 0.0
H528 H 0.76331 0.33186 0.13214 0.0
H529 H 0.72063 0.37034 0.12142 0.0
H530 H 0.77475 0.35978 0.10622 0.0
H531 H 0.71013 0.34218 0.14714 0.0
H532 H 0.74451 0.46683 0.0944 0.0
H533 H 0.68604 0.40464 0.07952 0.0
H534 H 0.85899 0.41872 0.12427 0.0
H535 H 0.80974 0.41971 0.16151 0.0
H536 H 0.74112 0.35888 0.02633 0.0
H537 H 0.75115 0.42284 0.04316 0.0
H538 H 0.72861 0.36408 0.99454 0.0
H539 H 0.73841 0.42689 0.01111 0.0
H540 H 0.7771 0.36894 0.03834 0.0
H541 H 0.81961 0.3677 0.08245 0.0
H542 H 0.78812 0.34721 0.01751 0.0
H543 H 0.83004 0.34605 0.06084 0.0
H544 H 0.86328 0.43709 0.03599 0.0
H545 H 0.81624 0.43195 0.99285 0.0
H546 H 0.68659 0.3038 0.05832 0.0
H547 H 0.73966 0.29004 0.07077 0.0
Li548 Li 0.40573 0.78064 0.26019 0.0
Li549 Li 0.37147 0.75215 0.2452 0.0
Li550 Li 0.4083 0.75273 0.24034 0.0
Li551 Li 0.40103 0.78063 0.22584 0.0
C552 C 0.39259 0.73983 0.28147 0.0
N553 N 0.39638 0.72322 0.31632 0.0
C554 C 0.37546 0.73253 0.29493 0.0
C555 C 0.4114 0.73814 0.28562 0.0
C556 C 0.37776 0.72435 0.3125 0.0
C557 C 0.41308 0.72985 0.30335 0.0
C558 C 0.37037 0.78909 0.25816 0.0
C559 C 0.34898 0.80685 0.26554 0.0
N560 N 0.34449 0.79732 0.28315 0.0
C561 C 0.36554 0.77952 0.27632 0.0
C562 C 0.36203 0.80291 0.25271 0.0
C563 C 0.35245 0.78386 0.28875 0.0
C564 C 0.42948 0.8226 0.27542 0.0
N565 N 0.41854 0.80098 0.28099 0.0
C566 C 0.42649 0.81172 0.31377 0.0
C567 C 0.41693 0.79525 0.29974 0.0
C568 C 0.43775 0.83426 0.30842 0.0
C569 C 0.43928 0.83956 0.28891 0.0
H570 H 0.4305 0.82664 0.26039 0.0
H571 H 0.40805 0.77798 0.30389 0.0
C572 C 0.33252 0.71341 0.25712 0.0
N573 N 0.34016 0.7333 0.24821 0.0
C574 C 0.30976 0.69961 0.26032 0.0
C575 C 0.30307 0.72672 0.24461 0.0
C576 C 0.32598 0.74005 0.24179 0.0
C577 C 0.29469 0.70627 0.25415 0.0
H578 H 0.34414 0.70833 0.26186 0.0
H579 H 0.33249 0.75591 0.23466 0.0
C580 C 0.44945 0.79498 0.24464 0.0
N581 N 0.49393 0.8144 0.2542 0.0
C582 C 0.46579 0.80895 0.23167 0.0
C583 C 0.45576 0.79113 0.26255 0.0
C584 C 0.48818 0.81853 0.23673 0.0
C585 C 0.47831 0.80104 0.2671 0.0
C586 C 0.38183 0.74743 0.20218 0.0
C587 C 0.3958 0.74404 0.19 0.0
C588 C 0.36535 0.75112 0.19453 0.0
C589 C 0.39313 0.74457 0.17027 0.0
C590 C 0.36325 0.75156 0.17472 0.0
N591 N 0.37707 0.74832 0.1631 0.0
C592 C 0.41053 0.71312 0.24145 0.0
C593 C 0.44242 0.7441 0.22842 0.0
C594 C 0.41983 0.69955 0.23839 0.0
N595 N 0.42191 0.73495 0.2365 0.0
C596 C 0.45239 0.73121 0.22522 0.0
C597 C 0.44106 0.70854 0.23011 0.0
H598 H 0.39414 0.70621 0.24767 0.0
H599 H 0.451 0.76138 0.22429 0.0
C600 C 0.39857 0.81231 0.20193 0.0
N601 N 0.40823 0.79959 0.20412 0.0
C602 C 0.4055 0.82811 0.18733 0.0
C603 C 0.43166 0.81685 0.17713 0.0
C604 C 0.42425 0.80132 0.19195 0.0
C605 C 0.42256 0.83083 0.17487 0.0
H606 H 0.38592 0.81062 0.21184 0.0
H607 H 0.43164 0.79097 0.19403 0.0
O608 O 0.39052 0.7477 0.26408 0.0
O609 O 0.38302 0.78489 0.24567 0.0
O610 O 0.42744 0.78547 0.23985 0.0
O611 O 0.38451 0.74749 0.22151 0.0
H612 H 0.36049 0.73314 0.29188 0.0
H613 H 0.42452 0.74296 0.27524 0.0
H614 H 0.3647 0.71881 0.32306 0.0
H615 H 0.42761 0.72858 0.30676 0.0
H616 H 0.3424 0.81749 0.26149 0.0
H617 H 0.37192 0.76894 0.2808 0.0
H618 H 0.36551 0.81048 0.23871 0.0
H619 H 0.34864 0.77653 0.30286 0.0
H620 H 0.42467 0.80687 0.32865 0.0
H621 H 0.44807 0.85665 0.28409 0.0
H622 H 0.30402 0.68385 0.26747 0.0
H623 H 0.29209 0.7326 0.23975 0.0
H624 H 0.46125 0.81234 0.21781 0.0
H625 H 0.4434 0.78093 0.27295 0.0
H626 H 0.50099 0.82928 0.22679 0.0
H627 H 0.48339 0.7982 0.28094 0.0
H628 H 0.40867 0.74122 0.19575 0.0
H629 H 0.3545 0.75387 0.20381 0.0
H630 H 0.40388 0.74208 0.16065 0.0
H631 H 0.35066 0.75454 0.16857 0.0
H632 H 0.41027 0.68212 0.24212 0.0
H633 H 0.46888 0.73901 0.21904 0.0
H634 H 0.39814 0.83863 0.18627 0.0
H635 H 0.44455 0.81805 0.16767 0.0
H636 H 0.08572 0.60171 0.30485 0.0
H637 H 0.11972 0.62773 0.28755 0.0
H638 H 0.14205 0.57987 0.28971 0.0
H639 H 0.10826 0.55403 0.30696 0.0
H640 H 0.16111 0.64511 0.30283 0.0
H641 H 0.17566 0.58749 0.25178 0.0
H642 H 0.15362 0.55488 0.23125 0.0
H643 H 0.10264 0.57245 0.22646 0.0
H644 H 0.1245 0.60534 0.24671 0.0
H645 H 0.27467 0.68382 0.28696 0.0
H646 H 0.23493 0.66076 0.2934 0.0
H647 H 0.21998 0.67395 0.23673 0.0
H648 H 0.25985 0.69678 0.23003 0.0
H649 H 0.19455 0.62998 0.2463 0.0
H650 H 0.213 0.70003 0.27369 0.0
H651 H 0.23457 0.73341 0.2935 0.0
H652 H 0.21802 0.69276 0.34378 0.0
H653 H 0.19661 0.6591 0.32423 0.0
C654 C 0.0976 0.59656 0.30106 0.0
C655 C 0.09441 0.5759 0.30714 0.0
C656 C 0.11706 0.61145 0.29133 0.0
C657 C 0.13342 0.60574 0.2873 0.0
C658 C 0.12958 0.58457 0.29244 0.0
C659 C 0.1103 0.56982 0.30231 0.0
C660 C 0.15549 0.62251 0.27967 0.0
C661 C 0.16833 0.64189 0.29036 0.0
C662 C 0.16485 0.61845 0.26328 0.0
C663 C 0.15169 0.59882 0.25089 0.0
C664 C 0.15981 0.58447 0.24627 0.0
C665 C 0.14732 0.56591 0.23469 0.0
C666 C 0.12672 0.56156 0.2276 0.0
C667 C 0.11857 0.5758 0.23202 0.0
C668 C 0.13099 0.59438 0.24357 0.0
C669 C 0.26296 0.68168 0.27579 0.0
C670 C 0.27045 0.69216 0.25797 0.0
C671 C 0.24023 0.66864 0.27955 0.0
C672 C 0.22447 0.66581 0.26562 0.0
C673 C 0.23185 0.67598 0.24772 0.0
C674 C 0.25462 0.68914 0.24396 0.0
C675 C 0.20032 0.65214 0.26984 0.0
C676 C 0.18718 0.63333 0.25859 0.0
C677 C 0.19058 0.6568 0.28563 0.0
C678 C 0.20331 0.67702 0.29746 0.0
C679 C 0.21408 0.69819 0.28895 0.0
C680 C 0.22626 0.71717 0.30014 0.0
C681 C 0.2277 0.7152 0.31988 0.0
C682 C 0.2169 0.69426 0.32848 0.0
C683 C 0.20471 0.67522 0.31736 0.0
H684 H 0.23714 0.72992 0.32852 0.0
H685 H 0.11708 0.54719 0.21865 0.0
H686 H 0.51239 0.09775 0.48592 0.0
H687 H 0.52455 0.13222 0.46799 0.0
H688 H 0.57254 0.12142 0.43788 0.0
H689 H 0.56013 0.08669 0.45579 0.0
H690 H 0.59113 0.16223 0.45578 0.0
H691 H 0.53061 0.12005 0.41341 0.0
H692 H 0.49179 0.09371 0.40448 0.0
H693 H 0.47063 0.13609 0.43035 0.0
H694 H 0.50928 0.16255 0.43968 0.0
H695 H 0.63127 0.26491 0.40724 0.0
H696 H 0.61559 0.22512 0.41318 0.0
H697 H 0.55904 0.22291 0.44092 0.0
H698 H 0.57445 0.26256 0.43471 0.0
H699 H 0.54556 0.18695 0.42007 0.0
H700 H 0.6036 0.22586 0.46634 0.0
H701 H 0.64165 0.25211 0.47729 0.0
H702 H 0.66654 0.21572 0.44636 0.0
H703 H 0.62864 0.18941 0.43502 0.0
C704 C 0.52498 0.10239 0.47498 0.0
C705 C 0.53517 0.08955 0.47199 0.0
C706 C 0.53195 0.12207 0.46477 0.0
C707 C 0.54941 0.12937 0.45154 0.0
C708 C 0.55897 0.11603 0.44796 0.0
C709 C 0.55179 0.09616 0.45804 0.0
C710 C 0.55914 0.152 0.44318 0.0
C711 C 0.58132 0.16751 0.44756 0.0
C712 C 0.54614 0.15905 0.433 0.0
C713 C 0.52286 0.14322 0.42736 0.0
C714 C 0.51766 0.12368 0.41733 0.0
C715 C 0.49568 0.10874 0.41217 0.0
C716 C 0.47875 0.11321 0.41687 0.0
C717 C 0.48376 0.13265 0.42672 0.0
C718 C 0.50571 0.14764 0.43192 0.0
C719 C 0.61548 0.25592 0.41459 0.0
C720 C 0.60416 0.26691 0.4206 0.0
C721 C 0.60652 0.23317 0.41797 0.0
C722 C 0.58626 0.22102 0.42776 0.0
C723 C 0.57466 0.23186 0.43331 0.0
C724 C 0.58349 0.25455 0.42976 0.0
C725 C 0.57749 0.19725 0.43287 0.0
C726 C 0.55549 0.18158 0.42798 0.0
C727 C 0.59055 0.19006 0.44283 0.0
C728 C 0.61334 0.20584 0.44965 0.0
C729 C 0.61721 0.22357 0.46175 0.0
C730 C 0.63875 0.23843 0.46805 0.0
C731 C 0.65651 0.23563 0.46247 0.0
C732 C 0.65277 0.2179 0.45063 0.0
C733 C 0.63127 0.203 0.44427 0.0
H734 H 0.67317 0.24715 0.46737 0.0
H735 H 0.46174 0.10162 0.41287 0.0
H736 H 0.45482 0.51023 0.63164 0.0
H737 H 0.43064 0.52179 0.6156 0.0
H738 H 0.46836 0.58688 0.6407 0.0
H739 H 0.49288 0.57584 0.65609 0.0
H740 H 0.42041 0.56159 0.64915 0.0
H741 H 0.4733 0.58516 0.59688 0.0
H742 H 0.49445 0.57909 0.57166 0.0
H743 H 0.4335 0.5305 0.54532 0.0
H744 H 0.41197 0.53605 0.57058 0.0
H745 H 0.37815 0.62749 0.61551 0.0
H746 H 0.40232 0.61263 0.62342 0.0
H747 H 0.3684 0.56023 0.58214 0.0
H748 H 0.34489 0.57583 0.57325 0.0
H749 H 0.41117 0.57412 0.58081 0.0
H750 H 0.35778 0.55127 0.63052 0.0
H751 H 0.33509 0.55471 0.6559 0.0
H752 H 0.39418 0.59768 0.6876 0.0
H753 H 0.41726 0.59481 0.66226 0.0
C754 C 0.45836 0.5272 0.6332 0.0
C755 C 0.47556 0.54204 0.64533 0.0
C756 C 0.44448 0.53373 0.62414 0.0
C757 C 0.44763 0.5551 0.62717 0.0
C758 C 0.46558 0.57027 0.63831 0.0
C759 C 0.47953 0.5639 0.64711 0.0
C760 C 0.43118 0.56125 0.62043 0.0
C761 C 0.41848 0.56452 0.63422 0.0
C762 C 0.4281 0.56414 0.60091 0.0
C763 C 0.44104 0.56081 0.58576 0.0
C764 C 0.46441 0.573 0.58584 0.0
C765 C 0.47646 0.5697 0.5715 0.0
C766 C 0.46533 0.55436 0.55693 0.0
C767 C 0.4421 0.54234 0.55664 0.0
C768 C 0.42997 0.54557 0.57095 0.0
C769 C 0.376 0.61305 0.6078 0.0
C770 C 0.35943 0.60288 0.59373 0.0
C771 C 0.38969 0.60435 0.61256 0.0
C772 C 0.38691 0.58501 0.60368 0.0
C773 C 0.37077 0.57507 0.58931 0.0
C774 C 0.35717 0.5839 0.58439 0.0
C775 C 0.40078 0.57518 0.60963 0.0
C776 C 0.41289 0.57105 0.59573 0.0
C777 C 0.40309 0.57112 0.6291 0.0
C778 C 0.38927 0.573 0.64436 0.0
C779 C 0.36596 0.56162 0.64281 0.0
C780 C 0.35302 0.56344 0.65721 0.0
C781 C 0.36319 0.57645 0.67332 0.0
C782 C 0.38632 0.58764 0.67509 0.0
C783 C 0.39934 0.58591 0.66071 0.0
H784 H 0.35314 0.57782 0.68446 0.0
H785 H 0.47469 0.55183 0.54584 0.0
H786 H 0.96612 0.45057 0.79841 0.0
H787 H 0.93094 0.42593 0.78187 0.0
H788 H 0.90525 0.46847 0.79877 0.0
H789 H 0.94028 0.49327 0.8148 0.0
H790 H 0.88007 0.42269 0.81123 0.0
H791 H 0.91433 0.46695 0.75463 0.0
H792 H 0.94316 0.48325 0.72969 0.0
H793 H 0.92848 0.41801 0.71239 0.0
H794 H 0.89976 0.40133 0.73744 0.0
H795 H 0.77427 0.37827 0.77249 0.0
H796 H 0.81318 0.40314 0.7801 0.0
H797 H 0.83148 0.36158 0.74826 0.0
H798 H 0.79253 0.33721 0.73948 0.0
H799 H 0.86179 0.40374 0.74284 0.0
H800 H 0.82765 0.35867 0.79734 0.0
H801 H 0.79965 0.34053 0.82271 0.0
H802 H 0.81534 0.40431 0.84496 0.0
H803 H 0.84322 0.42286 0.81954 0.0
C804 C 0.95321 0.455 0.79804 0.0
C805 C 0.95582 0.47368 0.80811 0.0
C806 C 0.93312 0.44088 0.78868 0.0
C807 C 0.91545 0.44529 0.7893 0.0
C808 C 0.91862 0.46469 0.79826 0.0
C809 C 0.93863 0.47882 0.80742 0.0
C810 C 0.89289 0.42876 0.78255 0.0
C811 C 0.876 0.4187 0.79626 0.0
C812 C 0.88786 0.42288 0.76312 0.0
C813 C 0.90509 0.43291 0.74806 0.0
C814 C 0.91741 0.45609 0.74565 0.0
C815 C 0.93369 0.46539 0.73145 0.0
C816 C 0.9377 0.45168 0.7195 0.0
C817 C 0.92539 0.42862 0.72168 0.0
C818 C 0.9091 0.41923 0.73586 0.0
C819 C 0.7865 0.37456 0.76671 0.0
C820 C 0.78006 0.35556 0.7554 0.0
C821 C 0.80882 0.3887 0.77132 0.0
C822 C 0.82528 0.38401 0.76513 0.0
C823 C 0.81909 0.36547 0.75335 0.0
C824 C 0.79673 0.3514 0.74853 0.0
C825 C 0.84874 0.39815 0.77151 0.0
C826 C 0.86582 0.40761 0.75783 0.0
C827 C 0.85412 0.40323 0.79106 0.0
C828 C 0.8374 0.39215 0.80643 0.0
C829 C 0.82502 0.36884 0.80756 0.0
C830 C 0.80919 0.35848 0.82196 0.0
C831 C 0.80569 0.37126 0.83541 0.0
C832 C 0.81805 0.39443 0.83452 0.0
C833 C 0.83389 0.40488 0.82013 0.0
H834 H 0.79342 0.36321 0.84655 0.0
H835 H 0.95031 0.45892 0.70852 0.0
H836 H 0.52521 0.93552 0.00411 0.0
H837 H 0.51559 0.90113 0.98761 0.0
H838 H 0.50034 0.92596 0.93663 0.0
H839 H 0.50885 0.96025 0.95369 0.0
H840 H 0.46843 0.88585 0.94296 0.0
H841 H 0.54642 0.91744 0.93945 0.0
H842 H 0.58531 0.93685 0.95058 0.0
H843 H 0.57032 0.88426 0.9905 0.0
H844 H 0.53126 0.86465 0.97981 0.0
H845 H 0.45131 0.78348 0.89886 0.0
H846 H 0.46768 0.8232 0.90548 0.0
H847 H 0.47073 0.81089 0.96541 0.0
H848 H 0.45323 0.77119 0.95926 0.0
H849 H 0.51185 0.84699 0.94806 0.0
H850 H 0.43225 0.81922 0.9535 0.0
H851 H 0.39381 0.80032 0.94123 0.0
H852 H 0.41372 0.84712 0.89505 0.0
H853 H 0.45238 0.8661 0.90691 0.0
C854 C 0.51996 0.93375 0.98933 0.0
C855 C 0.5175 0.95048 0.98027 0.0
C856 C 0.51472 0.91414 0.97979 0.0
C857 C 0.50744 0.91091 0.96074 0.0
C858 C 0.50595 0.92804 0.95132 0.0
C859 C 0.51101 0.9477 0.96099 0.0
C860 C 0.49973 0.88894 0.95146 0.0
C861 C 0.47821 0.87763 0.94365 0.0
C862 C 0.51231 0.87797 0.95244 0.0
C863 C 0.53585 0.88961 0.95887 0.0
C864 C 0.55137 0.91006 0.95068 0.0
C865 C 0.57346 0.9211 0.9569 0.0
C866 C 0.58027 0.9118 0.97125 0.0
C867 C 0.56502 0.89143 0.97938 0.0
C868 C 0.54291 0.88032 0.97321 0.0
C869 C 0.45511 0.78908 0.91351 0.0
C870 C 0.45092 0.77389 0.92848 0.0
C871 C 0.46467 0.81186 0.91721 0.0
C872 C 0.47052 0.81995 0.93591 0.0
C873 C 0.46654 0.80498 0.95084 0.0
C874 C 0.45664 0.78223 0.94723 0.0
C875 C 0.48053 0.84397 0.94016 0.0
C876 C 0.50241 0.85555 0.94702 0.0
C877 C 0.46845 0.85528 0.93803 0.0
C878 C 0.44524 0.84388 0.93093 0.0
C879 C 0.42847 0.82533 0.94061 0.0
C880 C 0.40664 0.81464 0.93376 0.0
C881 C 0.40134 0.82246 0.91733 0.0
C882 C 0.41786 0.84104 0.90775 0.0
C883 C 0.43973 0.85177 0.91453 0.0
H884 H 0.38443 0.81418 0.91205 0.0
H885 H 0.59738 0.92038 0.97605 0.0
H886 H 0.62024 0.53055 0.16743 0.0
H887 H 0.64259 0.51856 0.14977 0.0
H888 H 0.59186 0.49001 0.1063 0.0
H889 H 0.56893 0.50149 0.12442 0.0
H890 H 0.60451 0.46108 0.11744 0.0
H891 H 0.64244 0.53623 0.09671 0.0
H892 H 0.66103 0.57696 0.0999 0.0
H893 H 0.71143 0.57649 0.13517 0.0
H894 H 0.69298 0.53571 0.13242 0.0
H895 H 0.6768 0.43199 0.06757 0.0
H896 H 0.65338 0.44819 0.07488 0.0
H897 H 0.69422 0.48119 0.12394 0.0
H898 H 0.7175 0.46497 0.11686 0.0
H899 H 0.68499 0.50886 0.10402 0.0
H900 H 0.6438 0.4336 0.12838 0.0
H901 H 0.62491 0.39277 0.12584 0.0
H902 H 0.58047 0.39379 0.08367 0.0
H903 H 0.5993 0.43468 0.08579 0.0
C904 C 0.61392 0.52195 0.15399 0.0
C905 C 0.59276 0.51685 0.14736 0.0
C906 C 0.62681 0.51525 0.14381 0.0
C907 C 0.61903 0.50354 0.12659 0.0
C908 C 0.59823 0.49909 0.11953 0.0
C909 C 0.58524 0.50582 0.12978 0.0
C910 C 0.63205 0.49464 0.11694 0.0
C911 C 0.62198 0.47161 0.11406 0.0
C912 C 0.65496 0.50829 0.11284 0.0
C913 C 0.66624 0.53287 0.11442 0.0
C914 C 0.65741 0.54479 0.10524 0.0
C915 C 0.66794 0.56789 0.10696 0.0
C916 C 0.68738 0.5793 0.11774 0.0
C917 C 0.69637 0.56763 0.12681 0.0
C918 C 0.6859 0.54452 0.12515 0.0
C919 C 0.68071 0.44258 0.07999 0.0
C920 C 0.69907 0.44716 0.09162 0.0
C921 C 0.66734 0.45188 0.08411 0.0
C922 C 0.67197 0.46584 0.10002 0.0
C923 C 0.69039 0.4706 0.11152 0.0
C924 C 0.70375 0.46134 0.10741 0.0
C925 C 0.65756 0.4753 0.10502 0.0
C926 C 0.66741 0.49842 0.10704 0.0
C927 C 0.63446 0.46175 0.10832 0.0
C928 C 0.62313 0.43719 0.10707 0.0
C929 C 0.63012 0.42512 0.11845 0.0
C930 C 0.61941 0.40197 0.11711 0.0
C931 C 0.60155 0.39069 0.10455 0.0
C932 C 0.59434 0.40255 0.09336 0.0
C933 C 0.60502 0.4257 0.09463 0.0
H934 H 0.59328 0.37277 0.10354 0.0
H935 H 0.6955 0.59719 0.11906 0.0
H936 H 0.48337 0.9624 0.53484 0.0
H937 H 0.4584 0.92881 0.55311 0.0
H938 H 0.41389 0.90385 0.50481 0.0
H939 H 0.43822 0.93747 0.48697 0.0
H940 H 0.39031 0.89131 0.53564 0.0
H941 H 0.4557 0.89063 0.51294 0.0
H942 H 0.49597 0.90471 0.51004 0.0
H943 H 0.50067 0.89883 0.5707 0.0
H944 H 0.46044 0.88497 0.57397 0.0
H945 H 0.35641 0.77449 0.53195 0.0
H946 H 0.37871 0.81441 0.52657 0.0
H947 H 0.37939 0.82625 0.58698 0.0
H948 H 0.35578 0.78634 0.59258 0.0
H949 H 0.42485 0.84715 0.55658 0.0
H950 H 0.35558 0.8441 0.57688 0.0
H951 H 0.31479 0.82733 0.57585 0.0
H952 H 0.31755 0.83782 0.51523 0.0
H953 H 0.35834 0.85433 0.51589 0.0
C954 C 0.46792 0.95 0.52841 0.0
C955 C 0.46287 0.95236 0.50942 0.0
C956 C 0.45377 0.93072 0.53876 0.0
C957 C 0.43447 0.91352 0.53019 0.0
C958 C 0.42868 0.91675 0.51175 0.0
C959 C 0.44268 0.93594 0.5015 0.0
C960 C 0.42119 0.89138 0.53946 0.0
C961 C 0.39796 0.88181 0.54039 0.0
C962 C 0.43102 0.8788 0.54568 0.0
C963 C 0.45516 0.88706 0.54373 0.0
C964 C 0.46536 0.8925 0.52567 0.0
C965 C 0.48817 0.90042 0.52396 0.0
C966 C 0.50089 0.90274 0.54018 0.0
C967 C 0.49081 0.89708 0.55815 0.0
C968 C 0.46801 0.8892 0.55995 0.0
C969 C 0.36083 0.78545 0.54415 0.0
C970 C 0.35399 0.77695 0.56273 0.0
C971 C 0.37381 0.80831 0.54101 0.0
C972 C 0.38056 0.82319 0.55637 0.0
C973 C 0.37427 0.81496 0.57495 0.0
C974 C 0.36091 0.79208 0.5781 0.0
C975 C 0.39421 0.84733 0.55268 0.0
C976 C 0.41741 0.85707 0.5525 0.0
C977 C 0.38439 0.85992 0.54681 0.0
C978 C 0.35994 0.8502 0.54641 0.0
C979 C 0.34745 0.8426 0.56331 0.0
C980 C 0.32434 0.8332 0.5628 0.0
C981 C 0.31357 0.83144 0.54548 0.0
C982 C 0.3259 0.83915 0.52863 0.0
C983 C 0.34901 0.84855 0.52907 0.0
H984 H 0.29569 0.82417 0.54511 0.0
H985 H 0.51854 0.90886 0.53882 0.0
H986 H 0.54365 0.47767 0.69948 0.0
H987 H 0.55464 0.45415 0.7172 0.0
H988 H 0.52455 0.40371 0.67369 0.0
H989 H 0.51279 0.4266 0.65653 0.0
H990 H 0.51932 0.38435 0.70639 0.0
H991 H 0.58112 0.44511 0.67349 0.0
H992 H 0.60722 0.48453 0.66625 0.0
H993 H 0.62931 0.49585 0.72455 0.0
H994 H 0.60307 0.45655 0.73223 0.0
H995 H 0.5858 0.33399 0.6993 0.0
H996 H 0.56836 0.35653 0.69409 0.0
H997 H 0.59361 0.38915 0.74813 0.0
H998 H 0.61038 0.36594 0.75398 0.0
H999 H 0.60066 0.41844 0.71631 0.0
H1000 H 0.54161 0.35431 0.74672 0.0
H1001 H 0.51645 0.31418 0.75161 0.0
H1002 H 0.49014 0.30849 0.69507 0.0
H1003 H 0.51539 0.34854 0.68973 0.0
C1004 C 0.53879 0.46127 0.69406 0.0
C1005 C 0.52765 0.4541 0.67648 0.0
C1006 C 0.5453 0.44794 0.70407 0.0
C1007 C 0.54095 0.42737 0.69653 0.0
C1008 C 0.52829 0.41954 0.67976 0.0
C1009 C 0.52167 0.43272 0.66989 0.0
C1010 C 0.55093 0.41464 0.70498 0.0
C1011 C 0.53711 0.39184 0.70854 0.0
C1012 C 0.57413 0.4244 0.70812 0.0
C1013 C 0.58994 0.44798 0.70349 0.0
C1014 C 0.59143 0.45605 0.6848 0.0
C1015 C 0.60626 0.47835 0.68061 0.0
C1016 C 0.61987 0.49269 0.69493 0.0
C1017 C 0.61872 0.48474 0.71348 0.0
C1018 C 0.60387 0.46246 0.71776 0.0
C1019 C 0.58738 0.34563 0.7103 0.0
C1020 C 0.59944 0.34793 0.72716 0.0
C1021 C 0.57749 0.35862 0.70721 0.0
C1022 C 0.57955 0.37438 0.72079 0.0
C1023 C 0.59183 0.37707 0.73748 0.0
C1024 C 0.60152 0.36385 0.74072 0.0
C1025 C 0.56908 0.38817 0.71723 0.0
C1026 C 0.58283 0.41111 0.71455 0.0
C1027 C 0.54588 0.37848 0.71456 0.0
C1028 C 0.53051 0.35442 0.71779 0.0
C1029 C 0.53058 0.34448 0.73528 0.0
C1030 C 0.51628 0.32175 0.73814 0.0
C1031 C 0.50173 0.30879 0.72365 0.0
C1032 C 0.50142 0.31855 0.70628 0.0
C1033 C 0.5157 0.34127 0.70334 0.0
H1034 H 0.49068 0.29119 0.72589 0.0
H1035 H 0.63135 0.50995 0.69165 0.0
H1036 H 0.10619 0.50848 0.82702 0.0
H1037 H 0.13966 0.51939 0.84567 0.0
H1038 H 0.11932 0.55265 0.88613 0.0
H1039 H 0.0859 0.5423 0.86691 0.0
H1040 H 0.16021 0.57952 0.87576 0.0
H1041 H 0.12333 0.50591 0.89888 0.0
H1042 H 0.10085 0.46505 0.8979 0.0
H1043 H 0.15037 0.46237 0.86313 0.0
H1044 H 0.17302 0.50324 0.86365 0.0
H1045 H 0.26302 0.6064 0.92449 0.0
H1046 H 0.22312 0.59027 0.91867 0.0
H1047 H 0.22955 0.56273 0.86555 0.0
H1048 H 0.26944 0.57962 0.87063 0.0
H1049 H 0.19323 0.53208 0.8898 0.0
H1050 H 0.22605 0.60673 0.86316 0.0
H1051 H 0.24812 0.64759 0.86507 0.0
H1052 H 0.20495 0.64748 0.909 0.0
H1053 H 0.18279 0.60655 0.90753 0.0
C1054 C 0.10861 0.51773 0.84011 0.0
C1055 C 0.09351 0.52466 0.84545 0.0
C1056 C 0.12772 0.52384 0.85088 0.0
C1057 C 0.13206 0.53676 0.86745 0.0
C1058 C 0.11635 0.54266 0.87343 0.0
C1059 C 0.09716 0.53657 0.86256 0.0
C1060 C 0.15406 0.54588 0.87709 0.0
C1061 C 0.16716 0.56903 0.87932 0.0
C1062 C 0.16337 0.53233 0.8816 0.0
C1063 C 0.14985 0.50769 0.88124 0.0
C1064 C 0.12937 0.49663 0.89091 0.0
C1065 C 0.11661 0.47345 0.89045 0.0
C1066 C 0.12417 0.46112 0.88044 0.0
C1067 C 0.14454 0.47194 0.87089 0.0
C1068 C 0.15737 0.49512 0.87129 0.0
C1069 C 0.25608 0.59717 0.91144 0.0
C1070 C 0.26966 0.59433 0.89808 0.0
C1071 C 0.23319 0.58779 0.90824 0.0
C1072 C 0.22339 0.57521 0.89174 0.0
C1073 C 0.23677 0.57218 0.87849 0.0
C1074 C 0.25962 0.58179 0.88151 0.0
C1075 C 0.1993 0.56555 0.88784 0.0
C1076 C 0.18594 0.54238 0.88668 0.0
C1077 C 0.18966 0.57902 0.88456 0.0
C1078 C 0.20296 0.60359 0.88542 0.0
C1079 C 0.2214 0.61541 0.87336 0.0
C1080 C 0.23389 0.63858 0.87433 0.0
C1081 C 0.22799 0.65012 0.8872 0.0
C1082 C 0.20953 0.63852 0.89908 0.0
C1083 C 0.197 0.61534 0.89818 0.0
H1084 H 0.23768 0.66806 0.88792 0.0
H1085 H 0.11425 0.44318 0.8801 0.0
H1086 H 0.59912 0.08065 0.025 0.0
H1087 H 0.62286 0.11652 0.04098 0.0
H1088 H 0.58712 0.14428 0.01254 0.0
H1089 H 0.56322 0.10866 0.99708 0.0
H1090 H 0.63451 0.1661 0.00547 0.0
H1091 H 0.58094 0.13824 0.05724 0.0
H1092 H 0.55942 0.11173 0.08279 0.0
H1093 H 0.61997 0.12455 0.11036 0.0
H1094 H 0.64187 0.15092 0.08479 0.0
H1095 H 0.67803 0.2753 0.03666 0.0
H1096 H 0.65351 0.23631 0.02921 0.0
H1097 H 0.68537 0.21767 0.07253 0.0
H1098 H 0.70901 0.25673 0.08109 0.0
H1099 H 0.64303 0.18947 0.07329 0.0
H1100 H 0.697 0.21867 0.02378 0.0
H1101 H 0.71986 0.24394 0.998 0.0
H1102 H 0.66099 0.22701 0.96554 0.0
H1103 H 0.63773 0.20194 0.99127 0.0
C1104 C 0.59591 0.09422 0.02273 0.0
C1105 C 0.57953 0.09201 0.00966 0.0
C1106 C 0.60951 0.11469 0.03175 0.0
C1107 C 0.60684 0.13306 0.02775 0.0
C1108 C 0.58952 0.13035 0.01572 0.0
C1109 C 0.5759 0.11 0.00691 0.0
C1110 C 0.62331 0.15573 0.03424 0.0
C1111 C 0.63625 0.17132 0.02027 0.0
C1112 C 0.6262 0.16217 0.05363 0.0
C1113 C 0.61303 0.14633 0.06897 0.0
C1114 C 0.58967 0.13523 0.06863 0.0
C1115 C 0.5774 0.12027 0.08315 0.0
C1116 C 0.58832 0.11639 0.09815 0.0
C1117 C 0.61153 0.12753 0.0987 0.0
C1118 C 0.62388 0.14249 0.08421 0.0
C1119 C 0.67965 0.263 0.04492 0.0
C1120 C 0.69568 0.26937 0.05949 0.0
C1121 C 0.66577 0.24061 0.0404 0.0
C1122 C 0.66788 0.22397 0.04999 0.0
C1123 C 0.68352 0.23017 0.0648 0.0
C1124 C 0.69723 0.25259 0.06952 0.0
C1125 C 0.65382 0.20022 0.04438 0.0
C1126 C 0.64145 0.18434 0.05848 0.0
C1127 C 0.65165 0.19336 0.02505 0.0
C1128 C 0.6656 0.20859 0.00958 0.0
C1129 C 0.68891 0.22049 0.01123 0.0
C1130 C 0.70194 0.23477 0.99661 0.0
C1131 C 0.69188 0.23714 0.98017 0.0
C1132 C 0.66876 0.22521 0.97831 0.0
C1133 C 0.65564 0.21096 0.99291 0.0
H1134 H 0.70201 0.24818 0.96886 0.0
H1135 H 0.57879 0.10481 0.10938 0.0
H1136 H 0.50757 0.56493 0.19903 0.0
H1137 H 0.49591 0.58857 0.21569 0.0
H1138 H 0.52362 0.63675 0.17018 0.0
H1139 H 0.53568 0.6136 0.15388 0.0
H1140 H 0.53049 0.65736 0.20344 0.0
H1141 H 0.46832 0.59682 0.17095 0.0
H1142 H 0.44199 0.55743 0.1638 0.0
H1143 H 0.42044 0.54625 0.22224 0.0
H1144 H 0.44684 0.58553 0.22979 0.0
H1145 H 0.46637 0.71031 0.19937 0.0
H1146 H 0.48333 0.68751 0.19317 0.0
H1147 H 0.45515 0.65114 0.24527 0.0
H1148 H 0.43857 0.67435 0.25195 0.0
H1149 H 0.4493 0.62373 0.21396 0.0
H1150 H 0.50886 0.68722 0.24445 0.0
H1151 H 0.53444 0.7272 0.24972 0.0
H1152 H 0.56044 0.73346 0.19302 0.0
H1153 H 0.53478 0.69358 0.1873 0.0
C1154 C 0.51167 0.58085 0.1929 0.0
C1155 C 0.52234 0.58734 0.17509 0.0
C1156 C 0.50483 0.59424 0.20231 0.0
C1157 C 0.50853 0.61427 0.19401 0.0
C1158 C 0.52049 0.62138 0.17686 0.0
C1159 C 0.5273 0.60807 0.1675 0.0
C1160 C 0.49876 0.62722 0.20225 0.0
C1161 C 0.51273 0.65 0.20571 0.0
C1162 C 0.47562 0.6176 0.20552 0.0
C1163 C 0.45973 0.59402 0.20099 0.0
C1164 C 0.45809 0.58592 0.1823 0.0
C1165 C 0.44314 0.56363 0.17817 0.0
C1166 C 0.42962 0.54934 0.19257 0.0
C1167 C 0.43096 0.55732 0.21112 0.0
C1168 C 0.4459 0.5796 0.21533 0.0
C1169 C 0.46402 0.69773 0.20972 0.0
C1170 C 0.4512 0.69436 0.22626 0.0
C1171 C 0.47367 0.68462 0.20609 0.0
C1172 C 0.47071 0.66778 0.21886 0.0
C1173 C 0.45767 0.66407 0.23523 0.0
C1174 C 0.44811 0.6773 0.23896 0.0
C1175 C 0.481 0.65391 0.21481 0.0
C1176 C 0.4671 0.63099 0.21206 0.0
C1177 C 0.50418 0.66346 0.21196 0.0
C1178 C 0.51978 0.68742 0.21541 0.0
C1179 C 0.51992 0.69715 0.23305 0.0
C1180 C 0.53446 0.71979 0.23613 0.0
C1181 C 0.54903 0.73287 0.2217 0.0
C1182 C 0.54914 0.72331 0.20418 0.0
C1183 C 0.53462 0.70068 0.20102 0.0
H1184 H 0.56027 0.75039 0.22411 0.0
H1185 H 0.41806 0.53209 0.18934 0.0
H1186 H 0.96691 0.50336 0.37138 0.0
H1187 H 0.93335 0.49209 0.39064 0.0
H1188 H 0.9155 0.53091 0.35424 0.0
H1189 H 0.94904 0.54243 0.33533 0.0
H1190 H 0.90156 0.53012 0.3906 0.0
H1191 H 0.90099 0.47814 0.34417 0.0
H1192 H 0.91544 0.45497 0.33108 0.0
H1193 H 0.89722 0.41628 0.38258 0.0
H1194 H 0.88383 0.44011 0.39649 0.0
H1195 H 0.7848 0.4733 0.38144 0.0
H1196 H 0.82495 0.49092 0.37675 0.0
H1197 H 0.82763 0.44464 0.41627 0.0
H1198 H 0.7873 0.42658 0.42071 0.0
H1199 H 0.85105 0.4488 0.3843 0.0
H1200 H 0.84749 0.49814 0.42939 0.0
H1201 H 0.83444 0.52236 0.44295 0.0
H1202 H 0.85916 0.565 0.3939 0.0
H1203 H 0.87207 0.54085 0.37989 0.0
C1204 C 0.95625 0.51016 0.36803 0.0
C1205 C 0.96037 0.52355 0.35179 0.0
C1206 C 0.93702 0.50361 0.37892 0.0
C1207 C 0.92165 0.51026 0.37361 0.0
C1208 C 0.92701 0.52546 0.35857 0.0
C1209 C 0.94615 0.53199 0.34773 0.0
C1210 C 0.89874 0.4992 0.38158 0.0
C1211 C 0.89051 0.51234 0.38926 0.0
C1212 C 0.88438 0.47591 0.38012 0.0
C1213 C 0.8917 0.46112 0.37149 0.0
C1214 C 0.90022 0.46482 0.35279 0.0
C1215 C 0.90823 0.45156 0.34521 0.0
C1216 C 0.90712 0.43406 0.35592 0.0
C1217 C 0.89809 0.42986 0.3743 0.0
C1218 C 0.89043 0.44334 0.38209 0.0
C1219 C 0.7939 0.4668 0.38909 0.0
C1220 C 0.78282 0.4485 0.40143 0.0
C1221 C 0.81691 0.47705 0.38655 0.0
C1222 C 0.82938 0.4693 0.39634 0.0
C1223 C 0.81838 0.45101 0.40865 0.0
C1224 C 0.79535 0.44079 0.41126 0.0
C1225 C 0.85374 0.47977 0.39304 0.0
C1226 C 0.86218 0.4665 0.38609 0.0
C1227 C 0.86825 0.50292 0.39513 0.0
C1228 C 0.86061 0.51758 0.40353 0.0
C1229 C 0.85 0.51259 0.42142 0.0
C1230 C 0.84265 0.52632 0.4292 0.0
C1231 C 0.84593 0.54518 0.41928 0.0
C1232 C 0.85662 0.55038 0.40157 0.0
C1233 C 0.86398 0.53669 0.39371 0.0
H1234 H 0.84023 0.55579 0.42532 0.0
H1235 H 0.91327 0.42377 0.34999 0.0
H1236 H 0.0554 0.556 0.38754 0.0
H1237 H 0.07491 0.5614 0.41798 0.0
H1238 H 0.11697 0.53935 0.39219 0.0
H1239 H 0.0972 0.53343 0.36194 0.0
H1240 H 0.1089 0.52681 0.42938 0.0
H1241 H 0.1327 0.59367 0.39244 0.0
H1242 H 0.12715 0.62152 0.37521 0.0
H1243 H 0.10319 0.63604 0.42663 0.0
H1244 H 0.10829 0.60801 0.4441 0.0
H1245 H 0.20992 0.58575 0.48115 0.0
H1246 H 0.18091 0.57058 0.4567 0.0
H1247 H 0.14509 0.59726 0.48655 0.0
H1248 H 0.17441 0.61321 0.51064 0.0
H1249 H 0.14688 0.60582 0.44954 0.0
H1250 H 0.12754 0.54115 0.48734 0.0
H1251 H 0.13415 0.51361 0.50387 0.0
H1252 H 0.15096 0.49529 0.45051 0.0
H1253 H 0.14474 0.52295 0.43369 0.0
C1254 C 0.06828 0.55157 0.38857 0.0
C1255 C 0.075 0.54458 0.37233 0.0
C1256 C 0.07955 0.55484 0.40591 0.0
C1257 C 0.09773 0.55126 0.40723 0.0
C1258 C 0.10311 0.54237 0.39149 0.0
C1259 C 0.09187 0.53909 0.37419 0.0
C1260 C 0.11275 0.55907 0.42407 0.0
C1261 C 0.11727 0.54408 0.43379 0.0
C1262 C 0.12349 0.58158 0.42994 0.0
C1263 C 0.12063 0.59858 0.41951 0.0
C1264 C 0.1261 0.6027 0.40003 0.0
C1265 C 0.12305 0.61852 0.39023 0.0
C1266 C 0.11476 0.6305 0.39981 0.0
C1267 C 0.10957 0.62672 0.41922 0.0
C1268 C 0.11253 0.61087 0.42908 0.0
C1269 C 0.19594 0.58852 0.48246 0.0
C1270 C 0.1945 0.60068 0.49791 0.0
C1271 C 0.17922 0.57959 0.46859 0.0
C1272 C 0.16062 0.58247 0.46993 0.0
C1273 C 0.15919 0.59467 0.48528 0.0
C1274 C 0.17591 0.60365 0.49913 0.0
C1275 C 0.14313 0.57358 0.45493 0.0
C1276 C 0.13826 0.58844 0.44542 0.0
C1277 C 0.13222 0.551 0.44922 0.0
C1278 C 0.13584 0.53425 0.45928 0.0
C1279 C 0.13279 0.53136 0.47915 0.0
C1280 C 0.13644 0.51571 0.48857 0.0
C1281 C 0.14301 0.50274 0.47825 0.0
C1282 C 0.14588 0.50536 0.45849 0.0
C1283 C 0.14227 0.521 0.449 0.0
H1284 H 0.14584 0.49064 0.48557 0.0
H1285 H 0.11242 0.64274 0.39219 0.0
H1286 H 0.57867 0.09408 0.52739 0.0
H1287 H 0.59229 0.11208 0.55826 0.0
H1288 H 0.52879 0.06719 0.58375 0.0
H1289 H 0.51497 0.04921 0.55257 0.0
H1290 H 0.54148 0.11006 0.59098 0.0
H1291 H 0.57512 0.06512 0.59674 0.0
H1292 H 0.59699 0.04784 0.58656 0.0
H1293 H 0.65502 0.11227 0.58067 0.0
H1294 H 0.63344 0.12998 0.59055 0.0
H1295 H 0.58211 0.16609 0.67929 0.0
H1296 H 0.56695 0.13667 0.65532 0.0
H1297 H 0.62667 0.17261 0.62179 0.0
H1298 H 0.64241 0.20164 0.64614 0.0
H1299 H 0.6132 0.12927 0.6219 0.0
H1300 H 0.57878 0.17396 0.61125 0.0
H1301 H 0.55731 0.19209 0.62028 0.0
H1302 H 0.50113 0.12862 0.63425 0.0
H1303 H 0.52239 0.11014 0.62552 0.0
C1304 C 0.56777 0.08776 0.53968 0.0
C1305 C 0.54575 0.07035 0.53763 0.0
C1306 C 0.5756 0.09797 0.55734 0.0
C1307 C 0.56161 0.09093 0.57337 0.0
C1308 C 0.53988 0.07283 0.57157 0.0
C1309 C 0.53205 0.06249 0.55383 0.0
C1310 C 0.56909 0.10409 0.59129 0.0
C1311 C 0.55688 0.1138 0.59805 0.0
C1312 C 0.5895 0.10947 0.60018 0.0
C1313 C 0.6026 0.09889 0.59429 0.0
C1314 C 0.59251 0.07562 0.59314 0.0
C1315 C 0.60486 0.06574 0.58745 0.0
C1316 C 0.62737 0.07895 0.58294 0.0
C1317 C 0.63758 0.10206 0.58416 0.0
C1318 C 0.6253 0.11203 0.58984 0.0
C1319 C 0.5922 0.16762 0.66697 0.0
C1320 C 0.61349 0.18633 0.66464 0.0
C1321 C 0.58339 0.15085 0.65317 0.0
C1322 C 0.59554 0.15254 0.63662 0.0
C1323 C 0.61695 0.17096 0.63442 0.0
C1324 C 0.62583 0.18768 0.64826 0.0
C1325 C 0.58577 0.1355 0.62132 0.0
C1326 C 0.59759 0.12515 0.61504 0.0
C1327 C 0.56506 0.12963 0.61275 0.0
C1328 C 0.55226 0.14071 0.61796 0.0
C1329 C 0.56191 0.1639 0.61639 0.0
C1330 C 0.54977 0.17423 0.62143 0.0
C1331 C 0.52789 0.16152 0.62789 0.0
C1332 C 0.51809 0.13844 0.62928 0.0
C1333 C 0.53017 0.12803 0.62428 0.0
H1334 H 0.51852 0.16955 0.63178 0.0
H1335 H 0.63691 0.07127 0.57854 0.0
H1336 H 0.46891 0.50908 0.71634 0.0
H1337 H 0.46104 0.5237 0.74529 0.0
H1338 H 0.52225 0.58565 0.73785 0.0
H1339 H 0.52996 0.57107 0.70864 0.0
H1340 H 0.5087 0.57112 0.77816 0.0
H1341 H 0.48292 0.58586 0.71922 0.0
H1342 H 0.464 0.57611 0.68798 0.0
H1343 H 0.40242 0.53069 0.71532 0.0
H1344 H 0.42109 0.53992 0.74673 0.0
H1345 H 0.47601 0.64115 0.82629 0.0
H1346 H 0.49015 0.62546 0.80258 0.0
H1347 H 0.42664 0.56503 0.80158 0.0
H1348 H 0.4125 0.58031 0.82557 0.0
H1349 H 0.44297 0.57972 0.7656 0.0
H1350 H 0.46939 0.56657 0.82507 0.0
H1351 H 0.48903 0.57719 0.85597 0.0
H1352 H 0.55022 0.621 0.82729 0.0
H1353 H 0.53086 0.61087 0.79622 0.0
C1354 C 0.48117 0.52539 0.72145 0.0
C1355 C 0.50017 0.53889 0.71055 0.0
C1356 C 0.47659 0.5338 0.73785 0.0
C1357 C 0.49097 0.55581 0.74355 0.0
C1358 C 0.51103 0.56859 0.7337 0.0
C1359 C 0.5155 0.56025 0.71714 0.0
C1360 C 0.48343 0.56632 0.75784 0.0
C1361 C 0.4945 0.57324 0.77539 0.0
C1362 C 0.4648 0.56893 0.75417 0.0
C1363 C 0.45347 0.56338 0.73531 0.0
C1364 C 0.4654 0.57362 0.71856 0.0
C1365 C 0.45471 0.56823 0.70082 0.0
C1366 C 0.43204 0.55273 0.69966 0.0
C1367 C 0.42 0.54265 0.71624 0.0
C1368 C 0.43062 0.54797 0.73402 0.0
C1369 C 0.46508 0.62444 0.82117 0.0
C1370 C 0.44309 0.61201 0.8279 0.0
C1371 C 0.47319 0.61552 0.80758 0.0
C1372 C 0.4595 0.594 0.80044 0.0
C1373 C 0.43747 0.58169 0.80687 0.0
C1374 C 0.42938 0.59054 0.82052 0.0
C1375 C 0.46803 0.58431 0.78615 0.0
C1376 C 0.45716 0.5776 0.76846 0.0
C1377 C 0.48694 0.5821 0.78968 0.0
C1378 C 0.49863 0.58813 0.80833 0.0
C1379 C 0.48699 0.57861 0.82536 0.0
C1380 C 0.49808 0.58451 0.84291 0.0
C1381 C 0.52084 0.59981 0.8436 0.0
C1382 C 0.53258 0.60918 0.82674 0.0
C1383 C 0.52156 0.60335 0.80915 0.0
H1384 H 0.5294 0.60435 0.8572 0.0
H1385 H 0.4238 0.54859 0.68591 0.0
H1386 H 0.96049 0.5171 0.86508 0.0
H1387 H 0.94219 0.51127 0.896 0.0
H1388 H 0.97995 0.48198 0.91767 0.0
H1389 H 0.99811 0.48753 0.88647 0.0
H1390 H 0.93619 0.45459 0.92172 0.0
H1391 H 0.98639 0.53058 0.9366 0.0
H1392 H 1.00715 0.57103 0.93112 0.0
H1393 H 0.94582 0.57175 0.92659 0.0
H1394 H 0.92466 0.53124 0.93177 0.0
H1395 H 0.87793 0.42907 0.00905 0.0
H1396 H 0.90797 0.44507 0.9858 0.0
H1397 H 0.87814 0.47991 0.95918 0.0
H1398 H 0.84867 0.46506 0.98318 0.0
H1399 H 0.92181 0.50592 0.96034 0.0
H1400 H 0.87194 0.4305 0.94086 0.0
H1401 H 0.85015 0.38983 0.94493 0.0
H1402 H 0.91001 0.38807 0.95652 0.0
H1403 H 0.93214 0.42879 0.95275 0.0
C1404 C 0.96536 0.51003 0.87663 0.0
C1405 C 0.98062 0.50266 0.87341 0.0
C1406 C 0.95496 0.50678 0.89433 0.0
C1407 C 0.95968 0.49618 0.9092 0.0
C1408 C 0.97607 0.4902 0.9064 0.0
C1409 C 0.98657 0.49354 0.88866 0.0
C1410 C 0.94539 0.48876 0.92649 0.0
C1411 C 0.93348 0.46591 0.93047 0.0
C1412 C 0.94126 0.50341 0.9375 0.0
C1413 C 0.95393 0.52782 0.93446 0.0
C1414 C 0.97731 0.53933 0.9343 0.0
C1415 C 0.98916 0.56228 0.93127 0.0
C1416 C 0.97781 0.57395 0.92848 0.0
C1417 C 0.95459 0.56269 0.92876 0.0
C1418 C 0.94266 0.53974 0.93177 0.0
C1419 C 0.87788 0.44044 0.99849 0.0
C1420 C 0.86074 0.44569 0.99803 0.0
C1421 C 0.895 0.44939 0.98503 0.0
C1422 C 0.89518 0.46344 0.97053 0.0
C1423 C 0.87834 0.46905 0.97019 0.0
C1424 C 0.86131 0.46029 0.98379 0.0
C1425 C 0.91251 0.47176 0.9554 0.0
C1426 C 0.92485 0.4947 0.95179 0.0
C1427 C 0.91692 0.45719 0.94455 0.0
C1428 C 0.90366 0.4327 0.94674 0.0
C1429 C 0.88043 0.42145 0.94442 0.0
C1430 C 0.86803 0.39839 0.94664 0.0
C1431 C 0.87868 0.38638 0.95104 0.0
C1432 C 0.90178 0.3974 0.95315 0.0
C1433 C 0.91426 0.42046 0.95096 0.0
H1434 H 0.86905 0.36853 0.95276 0.0
H1435 H 0.98701 0.59172 0.92614 0.0
H1436 H 0.53393 0.98591 0.05379 0.0
H1437 H 0.5182 0.96444 0.08314 0.0
H1438 H 0.45205 0.94153 0.06161 0.0
H1439 H 0.46782 0.96266 0.03205 0.0
H1440 H 0.45907 0.94928 0.10457 0.0
H1441 H 0.46778 0.90991 0.05112 0.0
H1442 H 0.48885 0.90576 0.02467 0.0
H1443 H 0.5384 0.91064 0.06423 0.0
H1444 H 0.5177 0.91507 0.09092 0.0
H1445 H 0.3994 0.84457 0.15215 0.0
H1446 H 0.4144 0.87456 0.12854 0.0
H1447 H 0.48075 0.88754 0.1407 0.0
H1448 H 0.46597 0.85782 0.16444 0.0
H1449 H 0.47368 0.88622 0.10301 0.0
H1450 H 0.46287 0.92197 0.1571 0.0
H1451 H 0.44189 0.92651 0.18341 0.0
H1452 H 0.39646 0.92884 0.14308 0.0
H1453 H 0.41699 0.92398 0.11653 0.0
C1454 C 0.51607 0.97715 0.05577 0.0
C1455 C 0.50202 0.97606 0.04089 0.0
C1456 C 0.5071 0.9648 0.07243 0.0
C1457 C 0.48399 0.95133 0.07443 0.0
C1458 C 0.46991 0.95195 0.06036 0.0
C1459 C 0.47889 0.96406 0.04355 0.0
C1460 C 0.47482 0.93396 0.08938 0.0
C1461 C 0.46205 0.93537 0.10421 0.0
C1462 C 0.47899 0.916 0.08893 0.0
C1463 C 0.49134 0.91308 0.07297 0.0
C1464 C 0.48327 0.91029 0.05416 0.0
C1465 C 0.49512 0.90785 0.03913 0.0
C1466 C 0.515 0.90803 0.04275 0.0
C1467 C 0.52302 0.91055 0.06144 0.0
C1468 C 0.51122 0.913 0.07653 0.0
C1469 C 0.4172 0.85393 0.14993 0.0
C1470 C 0.43146 0.84873 0.16018 0.0
C1471 C 0.42575 0.87108 0.13643 0.0
C1472 C 0.44873 0.88344 0.13298 0.0
C1473 C 0.46297 0.8782 0.1431 0.0
C1474 C 0.45445 0.86109 0.15659 0.0
C1475 C 0.45794 0.90146 0.11848 0.0
C1476 C 0.47071 0.90013 0.10356 0.0
C1477 C 0.4537 0.91942 0.11891 0.0
C1478 C 0.44134 0.92238 0.13484 0.0
C1479 C 0.44829 0.92326 0.15385 0.0
C1480 C 0.43651 0.92593 0.1688 0.0
C1481 C 0.41782 0.9279 0.16492 0.0
C1482 C 0.41092 0.92727 0.14607 0.0
C1483 C 0.42263 0.92458 0.13106 0.0
H1484 H 0.40872 0.92997 0.17652 0.0
H1485 H 0.52416 0.90615 0.03109 0.0
H1486 H 0.59664 0.5389 0.21642 0.0
H1487 H 0.60186 0.52271 0.24562 0.0
H1488 H 0.53475 0.46793 0.2411 0.0
H1489 H 0.5295 0.48418 0.21165 0.0
H1490 H 0.55526 0.48527 0.28186 0.0
H1491 H 0.56558 0.4566 0.22147 0.0
H1492 H 0.58041 0.46262 0.18866 0.0
H1493 H 0.64681 0.5021 0.21026 0.0
H1494 H 0.63231 0.49661 0.2432 0.0
H1495 H 0.57704 0.41163 0.33632 0.0
H1496 H 0.56338 0.42726 0.31201 0.0
H1497 H 0.63092 0.47237 0.2945 0.0
H1498 H 0.64448 0.45613 0.31827 0.0
H1499 H 0.60692 0.45808 0.26456 0.0
H1500 H 0.59884 0.48783 0.32402 0.0
H1501 H 0.58594 0.48631 0.35708 0.0
H1502 H 0.51807 0.44897 0.33836 0.0
H1503 H 0.53059 0.45002 0.3052 0.0
C1504 C 0.58269 0.52394 0.22216 0.0
C1505 C 0.56267 0.51276 0.21194 0.0
C1506 C 0.5857 0.51468 0.23877 0.0
C1507 C 0.56876 0.49406 0.24535 0.0
C1508 C 0.54795 0.48393 0.23625 0.0
C1509 C 0.54494 0.49322 0.21951 0.0
C1510 C 0.57427 0.48162 0.25939 0.0
C1511 C 0.56623 0.47894 0.2781 0.0
C1512 C 0.58901 0.47392 0.25446 0.0
C1513 C 0.59784 0.47632 0.23477 0.0
C1514 C 0.58333 0.46662 0.21921 0.0
C1515 C 0.59167 0.46993 0.2006 0.0
C1516 C 0.61453 0.48277 0.19737 0.0
C1517 C 0.6291 0.49218 0.21278 0.0
C1518 C 0.62084 0.48894 0.23143 0.0
C1519 C 0.58892 0.42484 0.32721 0.0
C1520 C 0.61181 0.43271 0.32917 0.0
C1521 C 0.58113 0.43386 0.3134 0.0
C1522 C 0.59612 0.45133 0.30161 0.0
C1523 C 0.61899 0.45893 0.30339 0.0
C1524 C 0.62674 0.44964 0.31696 0.0
C1525 C 0.58812 0.46173 0.28739 0.0
C1526 C 0.59574 0.4641 0.26848 0.0
C1527 C 0.57322 0.46937 0.29227 0.0
C1528 C 0.56566 0.4688 0.31217 0.0
C1529 C 0.58117 0.47916 0.32697 0.0
C1530 C 0.57393 0.4784 0.34573 0.0
C1531 C 0.5512 0.46749 0.34982 0.0
C1532 C 0.53567 0.45738 0.33517 0.0
C1533 C 0.54283 0.45806 0.31639 0.0
H1534 H 0.54562 0.46693 0.36435 0.0
H1535 H 0.62095 0.4854 0.18294 0.0
H1536 H 0.49404 0.99354 0.43115 0.0
H1537 H 0.48979 0.97411 0.40081 0.0
H1538 H 0.506 0.92882 0.42912 0.0
H1539 H 0.51051 0.94832 0.45929 0.0
H1540 H 0.52128 0.93686 0.39217 0.0
H1541 H 0.45339 0.9164 0.42649 0.0
H1542 H 0.42617 0.92404 0.44227 0.0
H1543 H 0.4158 0.94927 0.38958 0.0
H1544 H 0.4433 0.94213 0.37357 0.0
H1545 H 0.46021 0.83568 0.34116 0.0
H1546 H 0.47566 0.86502 0.36529 0.0
H1547 H 0.45342 0.903 0.33266 0.0
H1548 H 0.43725 0.87342 0.30884 0.0
H1549 H 0.44329 0.9021 0.36936 0.0
H1550 H 0.50865 0.91778 0.33414 0.0
H1551 H 0.53566 0.90922 0.3192 0.0
H1552 H 0.55037 0.89174 0.37395 0.0
H1553 H 0.52322 0.89989 0.38919 0.0
C1554 C 0.49749 0.97996 0.43069 0.0
C1555 C 0.50238 0.97225 0.44753 0.0
C1556 C 0.49491 0.96878 0.41342 0.0
C1557 C 0.49717 0.94976 0.41281 0.0
C1558 C 0.5041 0.94339 0.42927 0.0
C1559 C 0.50661 0.95448 0.44649 0.0
C1560 C 0.48953 0.93479 0.39598 0.0
C1561 C 0.50424 0.92922 0.38716 0.0
C1562 C 0.46733 0.92497 0.38937 0.0
C1563 C 0.45058 0.92898 0.39889 0.0
C1564 C 0.44542 0.92372 0.41831 0.0
C1565 C 0.42994 0.92795 0.42729 0.0
C1566 C 0.4193 0.93718 0.41694 0.0
C1567 C 0.42409 0.94216 0.39758 0.0
C1568 C 0.43963 0.93803 0.38855 0.0
C1569 C 0.45849 0.85021 0.33917 0.0
C1570 C 0.44752 0.8522 0.32302 0.0
C1571 C 0.46757 0.86711 0.35286 0.0
C1572 C 0.466 0.88638 0.35065 0.0
C1573 C 0.45498 0.88836 0.33461 0.0
C1574 C 0.44588 0.87149 0.32093 0.0
C1575 C 0.47502 0.90406 0.36546 0.0
C1576 C 0.46047 0.91002 0.37404 0.0
C1577 C 0.49731 0.91408 0.3719 0.0
C1578 C 0.51376 0.90929 0.36279 0.0
C1579 C 0.51753 0.91196 0.34298 0.0
C1580 C 0.53288 0.9072 0.33445 0.0
C1581 C 0.54469 0.8999 0.34561 0.0
C1582 C 0.54121 0.89739 0.36532 0.0
C1583 C 0.52585 0.9021 0.37392 0.0
H1584 H 0.55657 0.89622 0.33898 0.0
H1585 H 0.40731 0.94044 0.42392 0.0
H1586 H 0.51265 0.45294 0.6065 0.0
H1587 H 0.52978 0.44963 0.57716 0.0
H1588 H 0.58312 0.51724 0.58379 0.0
H1589 H 0.56593 0.52047 0.61343 0.0
H1590 H 0.54355 0.46861 0.54295 0.0
H1591 H 0.63174 0.51701 0.57506 0.0
H1592 H 0.64971 0.52804 0.60672 0.0
H1593 H 0.59389 0.4715 0.63227 0.0
H1594 H 0.57581 0.46002 0.60078 0.0
H1595 H 0.61432 0.46281 0.47333 0.0
H1596 H 0.59927 0.47761 0.49681 0.0
H1597 H 0.60836 0.43959 0.54105 0.0
H1598 H 0.62503 0.42604 0.51796 0.0
H1599 H 0.61791 0.47726 0.55509 0.0
H1600 H 0.55676 0.42253 0.51805 0.0
H1601 H 0.53556 0.40517 0.48866 0.0
H1602 H 0.53209 0.46393 0.47632 0.0
H1603 H 0.55353 0.48175 0.50553 0.0
C1604 C 0.52764 0.46731 0.60132 0.0
C1605 C 0.53805 0.48693 0.61213 0.0
C1606 C 0.53742 0.46543 0.58457 0.0
C1607 C 0.5579 0.48307 0.57843 0.0
C1608 C 0.56741 0.50335 0.58839 0.0
C1609 C 0.55754 0.50527 0.60519 0.0
C1610 C 0.57031 0.47904 0.56317 0.0
C1611 C 0.55995 0.47081 0.54547 0.0
C1612 C 0.59141 0.48124 0.56667 0.0
C1613 C 0.60233 0.48786 0.58562 0.0
C1614 C 0.62336 0.50694 0.58745 0.0
C1615 C 0.63356 0.51326 0.60536 0.0
C1616 C 0.62292 0.50054 0.62151 0.0
C1617 C 0.6021 0.48141 0.61978 0.0
C1618 C 0.59186 0.475 0.60191 0.0
C1619 C 0.61362 0.45793 0.48811 0.0
C1620 C 0.62086 0.44306 0.49364 0.0
C1621 C 0.60468 0.46621 0.50151 0.0
C1622 C 0.60225 0.45943 0.52068 0.0
C1623 C 0.60994 0.44503 0.52634 0.0
C1624 C 0.61922 0.43703 0.51302 0.0
C1625 C 0.59116 0.46673 0.53478 0.0
C1626 C 0.60175 0.47554 0.55231 0.0
C1627 C 0.56988 0.46425 0.53138 0.0
C1628 C 0.55696 0.45356 0.51384 0.0
C1629 C 0.55161 0.4318 0.50899 0.0
C1630 C 0.53954 0.42187 0.49238 0.0
C1631 C 0.53255 0.43346 0.4806 0.0
C1632 C 0.53756 0.45499 0.48544 0.0
C1633 C 0.54966 0.46501 0.50202 0.0
H1634 H 0.52319 0.42575 0.46774 0.0
H1635 H 0.63084 0.50549 0.63536 0.0
H1636 H 0.06246 0.5586 0.77781 0.0
H1637 H 0.08106 0.57518 0.74738 0.0
H1638 H 0.10888 0.53178 0.7466 0.0
H1639 H 0.09009 0.51504 0.77656 0.0
H1640 H 0.12459 0.59833 0.74169 0.0
H1641 H 0.1184 0.52123 0.70249 0.0
H1642 H 0.09077 0.48168 0.69769 0.0
H1643 H 0.03785 0.4953 0.70847 0.0
H1644 H 0.06512 0.53498 0.71305 0.0
H1645 H 0.21769 0.62767 0.68362 0.0
H1646 H 0.18719 0.61138 0.70655 0.0
H1647 H 0.13976 0.58891 0.66033 0.0
H1648 H 0.17016 0.6041 0.63727 0.0
H1649 H 0.12747 0.5572 0.6849 0.0
H1650 H 0.14883 0.63343 0.6893 0.0
H1651 H 0.17435 0.67371 0.69282 0.0
H1652 H 0.1925 0.66324 0.74891 0.0
H1653 H 0.16731 0.62287 0.74562 0.0
C1654 C 0.07204 0.55223 0.7708 0.0
C1655 C 0.07492 0.53561 0.77951 0.0
C1656 C 0.08279 0.5618 0.75353 0.0
C1657 C 0.09631 0.55468 0.74465 0.0
C1658 C 0.09829 0.53736 0.75297 0.0
C1659 C 0.08766 0.52788 0.77016 0.0
C1660 C 0.11008 0.56649 0.72773 0.0
C1661 C 0.12506 0.58939 0.72917 0.0
C1662 C 0.11039 0.55494 0.7112 0.0
C1663 C 0.09385 0.5311 0.70822 0.0
C1664 C 0.10087 0.51582 0.70372 0.0
C1665 C 0.08526 0.49337 0.70107 0.0
C1666 C 0.06257 0.48598 0.70281 0.0
C1667 C 0.05543 0.50104 0.70718 0.0
C1668 C 0.07096 0.52351 0.70983 0.0
C1669 C 0.20079 0.61917 0.6783 0.0
C1670 C 0.19645 0.61727 0.65856 0.0
C1671 C 0.18333 0.6101 0.69146 0.0
C1672 C 0.16112 0.59919 0.6852 0.0
C1673 C 0.15673 0.59735 0.66552 0.0
C1674 C 0.17418 0.60627 0.65235 0.0
C1675 C 0.14258 0.58887 0.69921 0.0
C1676 C 0.12675 0.56624 0.69724 0.0
C1677 C 0.14117 0.60079 0.71504 0.0
C1678 C 0.15626 0.62509 0.71715 0.0
C1679 C 0.15836 0.6397 0.70234 0.0
C1680 C 0.17276 0.66256 0.7043 0.0
C1681 C 0.18506 0.67103 0.72107 0.0
C1682 C 0.18296 0.65666 0.73593 0.0
C1683 C 0.16859 0.63379 0.73403 0.0
H1684 H 0.1962 0.68872 0.72256 0.0
H1685 H 0.05052 0.46858 0.70077 0.0
H1686 H 0.59611 0.07764 0.94252 0.0
H1687 H 0.60261 0.09961 0.91347 0.0
H1688 H 0.53293 0.07922 0.9109 0.0
H1689 H 0.5264 0.0572 0.9402 0.0
H1690 H 0.55696 0.08604 0.87319 0.0
H1691 H 0.55976 0.12214 0.93275 0.0
H1692 H 0.57147 0.13282 0.96614 0.0
H1693 H 0.63986 0.16787 0.94868 0.0
H1694 H 0.62856 0.157 0.91517 0.0
H1695 H 0.57389 0.18047 0.81924 0.0
H1696 H 0.5611 0.15091 0.84319 0.0
H1697 H 0.62884 0.17576 0.86145 0.0
H1698 H 0.64166 0.20546 0.83772 0.0
H1699 H 0.60274 0.16546 0.89136 0.0
H1700 H 0.6007 0.12923 0.8322 0.0
H1701 H 0.58973 0.11776 0.79879 0.0
H1702 H 0.52096 0.08288 0.81519 0.0
H1703 H 0.53151 0.0944 0.84867 0.0
C1704 C 0.58204 0.07706 0.93525 0.0
C1705 C 0.56076 0.06576 0.94345 0.0
C1706 C 0.58577 0.08969 0.91876 0.0
C1707 C 0.5683 0.09125 0.91027 0.0
C1708 C 0.54659 0.07816 0.91729 0.0
C1709 C 0.54284 0.06551 0.93391 0.0
C1710 C 0.57349 0.10904 0.89614 0.0
C1711 C 0.56668 0.10342 0.87714 0.0
C1712 C 0.58645 0.13167 0.90136 0.0
C1713 C 0.59331 0.13855 0.92146 0.0
C1714 C 0.57731 0.13195 0.93604 0.0
C1715 C 0.58387 0.13805 0.95499 0.0
C1716 C 0.6064 0.15094 0.95954 0.0
C1717 C 0.62241 0.15783 0.94513 0.0
C1718 C 0.61594 0.15171 0.92616 0.0
C1719 C 0.58604 0.1796 0.82836 0.0
C1720 C 0.60879 0.19529 0.8266 0.0
C1721 C 0.57872 0.16267 0.84201 0.0
C1722 C 0.59403 0.1609 0.85396 0.0
C1723 C 0.61671 0.17678 0.85242 0.0
C1724 C 0.62401 0.1938 0.83889 0.0
C1725 C 0.58655 0.1426 0.86815 0.0
C1726 C 0.59291 0.14812 0.88729 0.0
C1727 C 0.57325 0.11992 0.863 0.0
C1728 C 0.56688 0.11288 0.8429 0.0
C1729 C 0.58323 0.11925 0.82865 0.0
C1730 C 0.57709 0.11272 0.80971 0.0
C1731 C 0.55466 0.09965 0.80486 0.0
C1732 C 0.53832 0.09303 0.81896 0.0
C1733 C 0.54437 0.09955 0.83792 0.0
H1734 H 0.54994 0.09461 0.79019 0.0
H1735 H 0.61144 0.15565 0.97422 0.0
H1736 H 0.54162 0.58521 0.10513 0.0
H1737 H 0.52415 0.58929 0.07624 0.0
H1738 H 0.46687 0.52473 0.08601 0.0
H1739 H 0.48439 0.52068 0.11516 0.0
H1740 H 0.48155 0.54065 0.04383 0.0
H1741 H 0.45975 0.55895 0.10401 0.0
H1742 H 0.46848 0.57649 0.13582 0.0
H1743 H 0.50951 0.64039 0.11013 0.0
H1744 H 0.50137 0.62315 0.07815 0.0
H1745 H 0.40806 0.56557 0.99163 0.0
H1746 H 0.42389 0.55196 0.01581 0.0
H1747 H 0.47639 0.61913 0.02631 0.0
H1748 H 0.46052 0.6328 0.00237 0.0
H1749 H 0.46159 0.59839 0.05883 0.0
H1750 H 0.4842 0.58147 0.99917 0.0
H1751 H 0.47858 0.56492 0.96707 0.0
H1752 H 0.43841 0.49979 0.99094 0.0
H1753 H 0.44356 0.51599 0.02317 0.0
C1754 C 0.52577 0.57147 0.10059 0.0
C1755 C 0.51435 0.55258 0.11216 0.0
C1756 C 0.51577 0.57384 0.08417 0.0
C1757 C 0.49418 0.55739 0.07915 0.0
C1758 C 0.4836 0.53752 0.08964 0.0
C1759 C 0.49362 0.53517 0.1062 0.0
C1760 C 0.48157 0.56283 0.06523 0.0
C1761 C 0.47679 0.55296 0.04713 0.0
C1762 C 0.47581 0.57921 0.06955 0.0
C1763 C 0.48009 0.58973 0.0887 0.0
C1764 C 0.47073 0.57673 0.10515 0.0
C1765 C 0.47555 0.58661 0.12321 0.0
C1766 C 0.48955 0.60953 0.12501 0.0
C1767 C 0.49868 0.62263 0.10872 0.0
C1768 C 0.49395 0.61282 0.09062 0.0
C1769 C 0.42301 0.57741 0.99908 0.0
C1770 C 0.43304 0.60027 0.99509 0.0
C1771 C 0.43206 0.56961 0.01287 0.0
C1772 C 0.45151 0.58449 0.02273 0.0
C1773 C 0.46136 0.60733 0.01893 0.0
C1774 C 0.45223 0.61514 0.00527 0.0
C1775 C 0.46164 0.57642 0.0371 0.0
C1776 C 0.46602 0.58586 0.05544 0.0
C1777 C 0.4671 0.55973 0.0329 0.0
C1778 C 0.46406 0.54996 0.01355 0.0
C1779 C 0.47403 0.56363 0.99755 0.0
C1780 C 0.47095 0.55431 0.97934 0.0
C1781 C 0.45809 0.53132 0.97696 0.0
C1782 C 0.44833 0.5176 0.9928 0.0
C1783 C 0.45133 0.52683 0.01104 0.0
H1784 H 0.45573 0.52414 0.96285 0.0
H1785 H 0.4933 0.61714 0.13901 0.0
H1786 H 0.95663 0.52978 0.2838 0.0
H1787 H 0.9351 0.51185 0.25515 0.0
H1788 H 0.96539 0.47079 0.252 0.0
H1789 H 0.98693 0.48859 0.28109 0.0
H1790 H 0.95835 0.4881 0.21475 0.0
H1791 H 0.91731 0.44356 0.26862 0.0
H1792 H 0.90168 0.43665 0.3011 0.0
H1793 H 0.86618 0.4708 0.28741 0.0
H1794 H 0.88131 0.47751 0.25463 0.0
H1795 H 0.86906 0.41003 0.15428 0.0
H1796 H 0.89714 0.42627 0.1795 0.0
H1797 H 0.87032 0.46773 0.19679 0.0
H1798 H 0.84264 0.45211 0.1714 0.0
H1799 H 0.87707 0.44665 0.22707 0.0
H1800 H 0.9176 0.48935 0.17184 0.0
H1801 H 0.93274 0.49442 0.13922 0.0
H1802 H 0.97009 0.46296 0.15549 0.0
H1803 H 0.95491 0.45741 0.18816 0.0
C1804 C 0.95896 0.51715 0.27687 0.0
C1805 C 0.97323 0.51036 0.28481 0.0
C1806 C 0.94668 0.50695 0.2605 0.0
C1807 C 0.94845 0.48982 0.25165 0.0
C1808 C 0.96381 0.48399 0.25869 0.0
C1809 C 0.97613 0.4942 0.27523 0.0
C1810 C 0.93274 0.47701 0.23612 0.0
C1811 C 0.94061 0.47866 0.21742 0.0
C1812 C 0.90962 0.46495 0.23963 0.0
C1813 C 0.90056 0.46118 0.25928 0.0
C1814 C 0.90627 0.4497 0.27259 0.0
C1815 C 0.89746 0.44578 0.29104 0.0
C1816 C 0.88311 0.45348 0.29641 0.0
C1817 C 0.87735 0.46491 0.28325 0.0
C1818 C 0.88592 0.46865 0.26469 0.0
C1819 C 0.86925 0.42276 0.16332 0.0
C1820 C 0.85349 0.42969 0.1608 0.0
C1821 C 0.8853 0.43199 0.17774 0.0
C1822 C 0.88588 0.44829 0.18994 0.0
C1823 C 0.87011 0.45511 0.18757 0.0
C1824 C 0.85418 0.44602 0.17311 0.0
C1825 C 0.90255 0.45801 0.20549 0.0
C1826 C 0.89482 0.45583 0.2243 0.0
C1827 C 0.92575 0.46936 0.20199 0.0
C1828 C 0.93491 0.47273 0.18238 0.0
C1829 C 0.92888 0.48332 0.16842 0.0
C1830 C 0.9375 0.48632 0.14993 0.0
C1831 C 0.95231 0.47895 0.14527 0.0
C1832 C 0.95858 0.46862 0.15911 0.0
C1833 C 0.94998 0.46555 0.17761 0.0
H1834 H 0.95898 0.48129 0.13095 0.0
H1835 H 0.87635 0.45048 0.31073 0.0
loop_
_geom_bond_atom_site_label_1
_geom_bond_atom_site_label_2
_geom_bond_distance
_geom_bond_site_symmetry_2
_ccdc_geom_bond_type
H0 C6 0.930 . S
H1 C9 0.931 . S
H2 C11 0.931 . S
H3 C13 0.930 . S
H4 C15 0.930 . S
H5 C17 0.931 1_455 S
C6 H0 0.930 . S
C6 C7 1.380 . S
C6 C8 1.394 . S
C7 C6 1.380 . S
C7 C11 1.382 . S
C8 C6 1.394 . S
C8 C9 1.400 . S
C9 H1 0.931 . S
C9 C8 1.400 . S
C9 C10 1.375 . S
C10 C9 1.375 . S
C10 C11 1.415 . S
C10 C12 1.501 . S
C11 H2 0.931 . S
C11 C7 1.382 . S
C11 C10 1.415 . S
C12 C10 1.501 . S
C12 C13 1.384 1_455 S
C12 C17 1.408 1_455 S
C13 H3 0.930 . S
C13 C12 1.384 1_655 S
C13 C14 1.389 . S
C14 C13 1.389 . S
C14 C15 1.405 . S
C15 H4 0.930 . S
C15 C14 1.405 . S
C15 C16 1.364 . S
C16 C15 1.364 . S
C16 C17 1.400 . S
C17 H5 0.931 1_655 S
C17 C12 1.408 1_655 S
C17 C16 1.400 . S
H18 C24 0.930 . S
H19 C27 0.931 . S
H20 C29 0.931 . S
H21 C31 0.930 . S
H22 C33 0.930 . S
H23 C35 0.931 1_545 S
C24 H18 0.930 . S
C24 C25 1.380 . S
C24 C26 1.394 . S
C25 C24 1.380 . S
C25 C29 1.382 . S
C26 C24 1.394 . S
C26 C27 1.400 . S
C27 H19 0.931 . S
C27 C26 1.400 . S
C27 C28 1.375 . S
C28 C27 1.375 . S
C28 C29 1.415 . S
C28 C30 1.501 . S
C29 H20 0.931 . S
C29 C25 1.382 . S
C29 C28 1.415 . S
C30 C28 1.501 . S
C30 C31 1.384 1_545 S
C30 C35 1.408 1_545 S
C31 H21 0.930 . S
C31 C30 1.384 1_565 S
C31 C32 1.389 . S
C32 C31 1.389 . S
C32 C33 1.405 . S
C33 H22 0.930 . S
C33 C32 1.405 . S
C33 C34 1.364 . S
C34 C33 1.364 . S
C34 C35 1.400 . S
C35 H23 0.931 1_565 S
C35 C30 1.408 1_565 S
C35 C34 1.400 . S
H36 C42 0.930 . S
H37 C45 0.931 . S
H38 C47 0.931 . S
H39 C49 0.930 . S
H40 C51 0.930 . S
H41 C53 0.931 . S
C42 H36 0.930 . S
C42 C43 1.380 . S
C42 C44 1.394 . S
C43 C42 1.380 . S
C43 C47 1.382 . S
C44 C42 1.394 . S
C44 C45 1.400 . S
C45 H37 0.931 . S
C45 C44 1.400 . S
C45 C46 1.375 . S
C46 C45 1.375 . S
C46 C47 1.415 . S
C46 C48 1.501 . S
C47 H38 0.931 . S
C47 C43 1.382 . S
C47 C46 1.415 . S
C48 C46 1.501 . S
C48 C49 1.384 . S
C48 C53 1.408 . S
C49 H39 0.930 . S
C49 C48 1.384 . S
C49 C50 1.389 . S
C50 C49 1.389 . S
C50 C51 1.405 . S
C51 H40 0.930 . S
C51 C50 1.405 . S
C51 C52 1.364 . S
C52 C51 1.364 . S
C52 C53 1.400 . S
C53 H41 0.931 . S
C53 C48 1.408 . S
C53 C52 1.400 . S
H54 C60 0.930 . S
H55 C63 0.931 . S
H56 C65 0.931 . S
H57 C67 0.930 . S
H58 C69 0.930 . S
H59 C71 0.931 1_455 S
C60 H54 0.930 . S
C60 C61 1.380 . S
C60 C62 1.394 . S
C61 C60 1.380 . S
C61 C65 1.382 . S
C62 C60 1.394 . S
C62 C63 1.400 . S
C63 H55 0.931 . S
C63 C62 1.400 . S
C63 C64 1.375 . S
C64 C63 1.375 . S
C64 C65 1.415 . S
C64 C66 1.501 . S
C65 H56 0.931 . S
C65 C61 1.382 . S
C65 C64 1.415 . S
C66 C64 1.501 . S
C66 C67 1.384 1_455 S
C66 C71 1.408 1_455 S
C67 H57 0.930 . S
C67 C66 1.384 1_655 S
C67 C68 1.389 . S
C68 C67 1.389 . S
C68 C69 1.405 . S
C69 H58 0.930 . S
C69 C68 1.405 . S
C69 C70 1.364 . S
C70 C69 1.364 . S
C70 C71 1.400 . S
C71 H59 0.931 1_655 S
C71 C66 1.408 1_655 S
C71 C70 1.400 . S
H72 C78 0.930 . S
H73 C81 0.931 . S
H74 C83 0.931 1_545 S
H75 C85 0.930 . S
H76 C87 0.930 . S
H77 C89 0.931 . S
C78 H72 0.930 . S
C78 C79 1.380 . S
C78 C80 1.394 1_554 S
C79 C78 1.380 . S
C79 C83 1.382 . S
C80 C78 1.394 1_556 S
C80 C81 1.400 . S
C81 H73 0.931 . S
C81 C80 1.400 . S
C81 C82 1.375 1_565 S
C82 C81 1.375 1_545 S
C82 C83 1.415 1_546 S
C82 C84 1.501 . S
C83 H74 0.931 1_565 S
C83 C79 1.382 . S
C83 C82 1.415 1_564 S
C84 C82 1.501 . S
C84 C85 1.384 1_556 S
C84 C89 1.408 . S
C85 H75 0.930 . S
C85 C84 1.384 1_554 S
C85 C86 1.389 1_554 S
C86 C85 1.389 1_556 S
C86 C87 1.405 . S
C87 H76 0.930 . S
C87 C86 1.405 . S
C87 C88 1.364 . S
C88 C87 1.364 . S
C88 C89 1.400 . S
C89 H77 0.931 . S
C89 C84 1.408 . S
C89 C88 1.400 . S
H90 C96 0.930 . S
H91 C99 0.931 . S
H92 C101 0.931 . S
H93 C103 0.930 . S
H94 C105 0.930 . S
H95 C107 0.931 . S
C96 H90 0.930 . S
C96 C97 1.380 . S
C96 C98 1.394 . S
C97 C96 1.380 . S
C97 C101 1.382 . S
C98 C96 1.394 . S
C98 C99 1.400 . S
C99 H91 0.931 . S
C99 C98 1.400 . S
C99 C100 1.375 . S
C100 C99 1.375 . S
C100 C101 1.415 . S
C100 C102 1.501 . S
C101 H92 0.931 . S
C101 C97 1.382 . S
C101 C100 1.415 . S
C102 C100 1.501 . S
C102 C103 1.384 . S
C102 C107 1.408 . S
C103 H93 0.930 . S
C103 C102 1.384 . S
C103 C104 1.389 . S
C104 C103 1.389 . S
C104 C105 1.405 . S
C105 H94 0.930 . S
C105 C104 1.405 . S
C105 C106 1.364 . S
C106 C105 1.364 . S
C106 C107 1.400 . S
C107 H95 0.931 . S
C107 C102 1.408 . S
C107 C106 1.400 . S
Li108 N125 1.990 . S
Li108 O168 1.956 . S
Li108 O169 1.970 . S
Li108 O170 1.961 . S
Li109 N133 1.990 . S
Li109 O168 1.970 . S
Li109 O169 1.956 . S
Li109 O171 1.961 . S
Li110 N155 1.990 . S
Li110 O168 1.961 . S
Li110 O170 1.956 . S
Li110 O171 1.970 . S
Li111 N161 1.990 . S
Li111 O169 1.961 . S
Li111 O170 1.970 . S
Li111 O171 1.956 . S
C112 C114 1.348 . S
C112 C115 1.356 . S
C112 O168 1.325 . S
N113 C116 1.314 . S
N113 C117 1.279 . S
C114 C112 1.348 . S
C114 C116 1.353 . S
C114 H172 0.929 . S
C115 C112 1.356 . S
C115 C117 1.358 . S
C115 H173 0.930 . S
C116 N113 1.314 . S
C116 C114 1.353 . S
C116 H174 0.930 . S
C117 N113 1.279 . S
C117 C115 1.358 . S
C117 H175 0.930 . S
C118 C121 1.348 . S
C118 C122 1.356 . S
C118 O169 1.325 . S
C119 N120 1.279 . S
C119 C122 1.358 . S
C119 H176 0.930 . S
N120 C119 1.279 . S
N120 C123 1.314 . S
C121 C118 1.348 . S
C121 C123 1.353 . S
C121 H177 0.929 . S
C122 C118 1.356 . S
C122 C119 1.358 . S
C122 H178 0.930 . S
C123 N120 1.314 . S
C123 C121 1.353 . S
C123 H179 0.930 . S
C124 N125 1.314 . S
C124 C129 1.353 . S
C124 H130 0.930 . S
N125 Li108 1.990 . S
N125 C124 1.314 . S
N125 C127 1.279 . S
C126 C127 1.358 . S
C126 C128 1.356 . S
C126 H180 0.930 . S
C127 N125 1.279 . S
C127 C126 1.358 . S
C127 H131 0.930 . S
C128 C126 1.356 . S
C128 C129 1.348 . S
C129 C124 1.353 . S
C129 C128 1.348 . S
C129 H181 0.929 . S
H130 C124 0.930 . S
H131 C127 0.930 . S
C132 N133 1.314 . S
C132 C134 1.353 . S
C132 H138 0.930 . S
N133 Li109 1.990 . S
N133 C132 1.314 . S
N133 C136 1.279 . S
C134 C132 1.353 . S
C134 C137 1.348 . S
C134 H182 0.929 . S
C135 C136 1.358 . S
C135 C137 1.356 . S
C135 H183 0.930 . S
C136 N133 1.279 . S
C136 C135 1.358 . S
C136 H139 0.930 . S
C137 C134 1.348 . S
C137 C135 1.356 . S
H138 C132 0.930 . S
H139 C136 0.930 . S
C140 C142 1.348 . S
C140 C143 1.356 . S
C140 O170 1.325 . S
N141 C144 1.314 . S
N141 C145 1.279 . S
C142 C140 1.348 . S
C142 C144 1.353 . S
C142 H184 0.929 . S
C143 C140 1.356 . S
C143 C145 1.358 . S
C143 H185 0.930 . S
C144 N141 1.314 . S
C144 C142 1.353 . S
C144 H186 0.930 . S
C145 N141 1.279 . S
C145 C143 1.358 . S
C145 H187 0.930 . S
C146 C147 1.348 . S
C146 C148 1.356 . S
C146 O171 1.325 . S
C147 C146 1.348 . S
C147 C149 1.353 . S
C147 H188 0.929 . S
C148 C146 1.356 . S
C148 C150 1.358 . S
C148 H189 0.930 . S
C149 C147 1.353 . S
C149 N151 1.314 . S
C149 H190 0.930 . S
C150 C148 1.358 . S
C150 N151 1.279 . S
C150 H191 0.930 . S
N151 C149 1.314 . S
N151 C150 1.279 . S
C152 C154 1.353 . S
C152 N155 1.314 . S
C152 H158 0.930 . S
C153 N155 1.279 . S
C153 C156 1.358 . S
C153 H159 0.930 . S
C154 C152 1.353 . S
C154 C157 1.348 . S
C154 H192 0.929 . S
N155 Li110 1.990 . S
N155 C152 1.314 . S
N155 C153 1.279 . S
C156 C153 1.358 . S
C156 C157 1.356 . S
C156 H193 0.930 . S
C157 C154 1.348 . S
C157 C156 1.356 . S
H158 C152 0.930 . S
H159 C153 0.930 . S
C160 N161 1.314 . S
C160 C162 1.353 . S
C160 H166 0.930 . S
N161 Li111 1.990 . S
N161 C160 1.314 . S
N161 C164 1.279 . S
C162 C160 1.353 . S
C162 C165 1.348 . S
C162 H194 0.929 . S
C163 C164 1.358 . S
C163 C165 1.356 . S
C163 H195 0.930 . S
C164 N161 1.279 . S
C164 C163 1.358 . S
C164 H167 0.930 . S
C165 C162 1.348 . S
C165 C163 1.356 . S
H166 C160 0.930 . S
H167 C164 0.930 . S
O168 Li108 1.956 . S
O168 Li109 1.970 . S
O168 Li110 1.961 . S
O168 C112 1.325 . S
O169 Li108 1.970 . S
O169 Li109 1.956 . S
O169 Li111 1.961 . S
O169 C118 1.325 . S
O170 Li108 1.961 . S
O170 Li110 1.956 . S
O170 Li111 1.970 . S
O170 C140 1.325 . S
O171 Li109 1.961 . S
O171 Li110 1.970 . S
O171 Li111 1.956 . S
O171 C146 1.325 . S
H172 C114 0.929 . S
H173 C115 0.930 . S
H174 C116 0.930 . S
H175 C117 0.930 . S
H176 C119 0.930 . S
H177 C121 0.929 . S
H178 C122 0.930 . S
H179 C123 0.930 . S
H180 C126 0.930 . S
H181 C129 0.929 . S
H182 C134 0.929 . S
H183 C135 0.930 . S
H184 C142 0.929 . S
H185 C143 0.930 . S
H186 C144 0.930 . S
H187 C145 0.930 . S
H188 C147 0.929 . S
H189 C148 0.930 . S
H190 C149 0.930 . S
H191 C150 0.930 . S
H192 C154 0.929 . S
H193 C156 0.930 . S
H194 C162 0.929 . S
H195 C163 0.930 . S
Li196 N213 1.990 . S
Li196 O256 1.956 . S
Li196 O257 1.970 . S
Li196 O258 1.961 . S
Li197 N221 1.990 . S
Li197 O256 1.970 . S
Li197 O257 1.956 . S
Li197 O259 1.961 . S
Li198 N243 1.990 . S
Li198 O256 1.961 . S
Li198 O258 1.956 . S
Li198 O259 1.970 . S
Li199 N249 1.990 . S
Li199 O257 1.961 . S
Li199 O258 1.970 . S
Li199 O259 1.956 . S
C200 C202 1.348 . S
C200 C203 1.356 . S
C200 O256 1.325 . S
N201 C204 1.314 . S
N201 C205 1.279 . S
C202 C200 1.348 . S
C202 C204 1.353 . S
C202 H260 0.929 . S
C203 C200 1.356 . S
C203 C205 1.358 . S
C203 H261 0.930 . S
C204 N201 1.314 . S
C204 C202 1.353 . S
C204 H262 0.930 . S
C205 N201 1.279 . S
C205 C203 1.358 . S
C205 H263 0.930 . S
C206 C209 1.348 . S
C206 C210 1.356 . S
C206 O257 1.325 . S
C207 N208 1.279 . S
C207 C210 1.358 . S
C207 H264 0.930 . S
N208 C207 1.279 . S
N208 C211 1.314 . S
C209 C206 1.348 . S
C209 C211 1.353 . S
C209 H265 0.929 . S
C210 C206 1.356 . S
C210 C207 1.358 . S
C210 H266 0.930 . S
C211 N208 1.314 . S
C211 C209 1.353 . S
C211 H267 0.930 . S
C212 N213 1.314 . S
C212 C217 1.353 . S
C212 H218 0.930 . S
N213 Li196 1.990 . S
N213 C212 1.314 . S
N213 C215 1.279 . S
C214 C215 1.358 . S
C214 C216 1.356 . S
C214 H268 0.930 . S
C215 N213 1.279 . S
C215 C214 1.358 . S
C215 H219 0.930 . S
C216 C214 1.356 . S
C216 C217 1.348 . S
C217 C212 1.353 . S
C217 C216 1.348 . S
C217 H269 0.929 . S
H218 C212 0.930 . S
H219 C215 0.930 . S
C220 N221 1.314 . S
C220 C222 1.353 . S
C220 H226 0.930 . S
N221 Li197 1.990 . S
N221 C220 1.314 . S
N221 C224 1.279 . S
C222 C220 1.353 . S
C222 C225 1.348 . S
C222 H270 0.929 . S
C223 C224 1.358 . S
C223 C225 1.356 . S
C223 H271 0.930 . S
C224 N221 1.279 . S
C224 C223 1.358 . S
C224 H227 0.930 . S
C225 C222 1.348 . S
C225 C223 1.356 . S
H226 C220 0.930 . S
H227 C224 0.930 . S
C228 C230 1.348 . S
C228 C231 1.356 . S
C228 O258 1.325 . S
N229 C232 1.314 . S
N229 C233 1.279 . S
C230 C228 1.348 . S
C230 C232 1.353 . S
C230 H272 0.929 . S
C231 C228 1.356 . S
C231 C233 1.358 . S
C231 H273 0.930 . S
C232 N229 1.314 . S
C232 C230 1.353 . S
C232 H274 0.930 . S
C233 N229 1.279 . S
C233 C231 1.358 . S
C233 H275 0.930 . S
C234 C235 1.348 . S
C234 C236 1.356 . S
C234 O259 1.325 . S
C235 C234 1.348 . S
C235 C237 1.353 . S
C235 H276 0.929 . S
C236 C234 1.356 . S
C236 C238 1.358 . S
C236 H277 0.930 . S
C237 C235 1.353 . S
C237 N239 1.314 . S
C237 H278 0.930 . S
C238 C236 1.358 . S
C238 N239 1.279 . S
C238 H279 0.930 . S
N239 C237 1.314 . S
N239 C238 1.279 . S
C240 C242 1.353 . S
C240 N243 1.314 . S
C240 H246 0.930 . S
C241 N243 1.279 . S
C241 C244 1.358 . S
C241 H247 0.930 . S
C242 C240 1.353 . S
C242 C245 1.348 . S
C242 H280 0.929 . S
N243 Li198 1.990 . S
N243 C240 1.314 . S
N243 C241 1.279 . S
C244 C241 1.358 . S
C244 C245 1.356 . S
C244 H281 0.930 . S
C245 C242 1.348 . S
C245 C244 1.356 . S
H246 C240 0.930 . S
H247 C241 0.930 . S
C248 N249 1.314 . S
C248 C250 1.353 . S
C248 H254 0.930 . S
N249 Li199 1.990 . S
N249 C248 1.314 . S
N249 C252 1.279 . S
C250 C248 1.353 . S
C250 C253 1.348 . S
C250 H282 0.929 . S
C251 C252 1.358 . S
C251 C253 1.356 . S
C251 H283 0.930 . S
C252 N249 1.279 . S
C252 C251 1.358 . S
C252 H255 0.930 . S
C253 C250 1.348 . S
C253 C251 1.356 . S
H254 C248 0.930 . S
H255 C252 0.930 . S
O256 Li196 1.956 . S
O256 Li197 1.970 . S
O256 Li198 1.961 . S
O256 C200 1.325 . S
O257 Li196 1.970 . S
O257 Li197 1.956 . S
O257 Li199 1.961 . S
O257 C206 1.325 . S
O258 Li196 1.961 . S
O258 Li198 1.956 . S
O258 Li199 1.970 . S
O258 C228 1.325 . S
O259 Li197 1.961 . S
O259 Li198 1.970 . S
O259 Li199 1.956 . S
O259 C234 1.325 . S
H260 C202 0.929 . S
H261 C203 0.930 . S
H262 C204 0.930 . S
H263 C205 0.930 . S
H264 C207 0.930 . S
H265 C209 0.929 . S
H266 C210 0.930 . S
H267 C211 0.930 . S
H268 C214 0.930 . S
H269 C217 0.929 . S
H270 C222 0.929 . S
H271 C223 0.930 . S
H272 C230 0.929 . S
H273 C231 0.930 . S
H274 C232 0.930 . S
H275 C233 0.930 . S
H276 C235 0.929 . S
H277 C236 0.930 . S
H278 C237 0.930 . S
H279 C238 0.930 . S
H280 C242 0.929 . S
H281 C244 0.930 . S
H282 C250 0.929 . S
H283 C251 0.930 . S
Li284 N301 1.990 . S
Li284 O344 1.956 . S
Li284 O345 1.970 . S
Li284 O346 1.961 . S
Li285 N309 1.990 . S
Li285 O344 1.970 . S
Li285 O345 1.956 . S
Li285 O347 1.961 . S
Li286 N331 1.990 . S
Li286 O344 1.961 . S
Li286 O346 1.956 . S
Li286 O347 1.970 . S
Li287 N337 1.990 . S
Li287 O345 1.961 . S
Li287 O346 1.970 . S
Li287 O347 1.956 . S
C288 C290 1.348 . S
C288 C291 1.356 . S
C288 O344 1.325 . S
N289 C292 1.314 . S
N289 C293 1.279 . S
C290 C288 1.348 . S
C290 C292 1.353 . S
C290 H348 0.929 . S
C291 C288 1.356 . S
C291 C293 1.358 . S
C291 H349 0.930 . S
C292 N289 1.314 . S
C292 C290 1.353 . S
C292 H350 0.930 . S
C293 N289 1.279 . S
C293 C291 1.358 . S
C293 H351 0.930 . S
C294 C297 1.348 . S
C294 C298 1.356 . S
C294 O345 1.325 . S
C295 N296 1.279 . S
C295 C298 1.358 . S
C295 H352 0.930 . S
N296 C295 1.279 . S
N296 C299 1.314 . S
C297 C294 1.348 . S
C297 C299 1.353 . S
C297 H353 0.929 . S
C298 C294 1.356 . S
C298 C295 1.358 . S
C298 H354 0.930 . S
C299 N296 1.314 . S
C299 C297 1.353 . S
C299 H355 0.930 . S
C300 N301 1.314 . S
C300 C305 1.353 . S
C300 H306 0.930 . S
N301 Li284 1.990 . S
N301 C300 1.314 . S
N301 C303 1.279 . S
C302 C303 1.358 . S
C302 C304 1.356 . S
C302 H356 0.930 . S
C303 N301 1.279 . S
C303 C302 1.358 . S
C303 H307 0.930 . S
C304 C302 1.356 . S
C304 C305 1.348 . S
C305 C300 1.353 . S
C305 C304 1.348 . S
C305 H357 0.929 . S
H306 C300 0.930 . S
H307 C303 0.930 . S
C308 N309 1.314 . S
C308 C310 1.353 . S
C308 H314 0.930 . S
N309 Li285 1.990 . S
N309 C308 1.314 . S
N309 C312 1.279 . S
C310 C308 1.353 . S
C310 C313 1.348 . S
C310 H358 0.929 . S
C311 C312 1.358 . S
C311 C313 1.356 . S
C311 H359 0.930 . S
C312 N309 1.279 . S
C312 C311 1.358 . S
C312 H315 0.930 . S
C313 C310 1.348 . S
C313 C311 1.356 . S
H314 C308 0.930 . S
H315 C312 0.930 . S
C316 C318 1.348 . S
C316 C319 1.356 . S
C316 O346 1.325 . S
N317 C320 1.314 . S
N317 C321 1.279 . S
C318 C316 1.348 . S
C318 C320 1.353 . S
C318 H360 0.929 . S
C319 C316 1.356 . S
C319 C321 1.358 . S
C319 H361 0.930 . S
C320 N317 1.314 . S
C320 C318 1.353 . S
C320 H362 0.930 . S
C321 N317 1.279 . S
C321 C319 1.358 . S
C321 H363 0.930 . S
C322 C323 1.348 . S
C322 C324 1.356 . S
C322 O347 1.325 . S
C323 C322 1.348 . S
C323 C325 1.353 . S
C323 H364 0.929 . S
C324 C322 1.356 . S
C324 C326 1.358 . S
C324 H365 0.930 . S
C325 C323 1.353 . S
C325 N327 1.314 . S
C325 H366 0.930 . S
C326 C324 1.358 . S
C326 N327 1.279 . S
C326 H367 0.930 . S
N327 C325 1.314 . S
N327 C326 1.279 . S
C328 C330 1.353 . S
C328 N331 1.314 . S
C328 H334 0.930 . S
C329 N331 1.279 . S
C329 C332 1.358 . S
C329 H335 0.930 . S
C330 C328 1.353 . S
C330 C333 1.348 . S
C330 H368 0.929 . S
N331 Li286 1.990 . S
N331 C328 1.314 . S
N331 C329 1.279 . S
C332 C329 1.358 . S
C332 C333 1.356 . S
C332 H369 0.930 . S
C333 C330 1.348 . S
C333 C332 1.356 . S
H334 C328 0.930 . S
H335 C329 0.930 . S
C336 N337 1.314 . S
C336 C338 1.353 . S
C336 H342 0.930 . S
N337 Li287 1.990 . S
N337 C336 1.314 . S
N337 C340 1.279 . S
C338 C336 1.353 . S
C338 C341 1.348 . S
C338 H370 0.929 . S
C339 C340 1.358 . S
C339 C341 1.356 . S
C339 H371 0.930 . S
C340 N337 1.279 . S
C340 C339 1.358 . S
C340 H343 0.930 . S
C341 C338 1.348 . S
C341 C339 1.356 . S
H342 C336 0.930 . S
H343 C340 0.930 . S
O344 Li284 1.956 . S
O344 Li285 1.970 . S
O344 Li286 1.961 . S
O344 C288 1.325 . S
O345 Li284 1.970 . S
O345 Li285 1.956 . S
O345 Li287 1.961 . S
O345 C294 1.325 . S
O346 Li284 1.961 . S
O346 Li286 1.956 . S
O346 Li287 1.970 . S
O346 C316 1.325 . S
O347 Li285 1.961 . S
O347 Li286 1.970 . S
O347 Li287 1.956 . S
O347 C322 1.325 . S
H348 C290 0.929 . S
H349 C291 0.930 . S
H350 C292 0.930 . S
H351 C293 0.930 . S
H352 C295 0.930 . S
H353 C297 0.929 . S
H354 C298 0.930 . S
H355 C299 0.930 . S
H356 C302 0.930 . S
H357 C305 0.929 . S
H358 C310 0.929 . S
H359 C311 0.930 . S
H360 C318 0.929 . S
H361 C319 0.930 . S
H362 C320 0.930 . S
H363 C321 0.930 . S
H364 C323 0.929 . S
H365 C324 0.930 . S
H366 C325 0.930 . S
H367 C326 0.930 . S
H368 C330 0.929 . S
H369 C332 0.930 . S
H370 C338 0.929 . S
H371 C339 0.930 . S
Li372 N389 1.990 . S
Li372 O432 1.956 . S
Li372 O433 1.970 . S
Li372 O434 1.961 . S
Li373 N397 1.990 . S
Li373 O432 1.970 . S
Li373 O433 1.956 . S
Li373 O435 1.961 . S
Li374 N419 1.990 . S
Li374 O432 1.961 . S
Li374 O434 1.956 . S
Li374 O435 1.970 . S
Li375 N425 1.990 . S
Li375 O433 1.961 . S
Li375 O434 1.970 . S
Li375 O435 1.956 . S
C376 C378 1.348 . S
C376 C379 1.356 . S
C376 O432 1.325 . S
N377 C380 1.314 . S
N377 C381 1.279 . S
C378 C376 1.348 . S
C378 C380 1.353 . S
C378 H436 0.929 . S
C379 C376 1.356 . S
C379 C381 1.358 . S
C379 H437 0.930 . S
C380 N377 1.314 . S
C380 C378 1.353 . S
C380 H438 0.930 . S
C381 N377 1.279 . S
C381 C379 1.358 . S
C381 H439 0.930 . S
C382 C385 1.348 . S
C382 C386 1.356 . S
C382 O433 1.325 . S
C383 N384 1.279 . S
C383 C386 1.358 . S
C383 H440 0.930 . S
N384 C383 1.279 . S
N384 C387 1.314 . S
C385 C382 1.348 . S
C385 C387 1.353 . S
C385 H441 0.929 . S
C386 C382 1.356 . S
C386 C383 1.358 . S
C386 H442 0.930 . S
C387 N384 1.314 . S
C387 C385 1.353 . S
C387 H443 0.930 . S
C388 N389 1.314 . S
C388 C393 1.353 . S
C388 H394 0.930 . S
N389 Li372 1.990 . S
N389 C388 1.314 . S
N389 C391 1.279 . S
C390 C391 1.358 . S
C390 C392 1.356 . S
C390 H444 0.930 . S
C391 N389 1.279 . S
C391 C390 1.358 . S
C391 H395 0.930 . S
C392 C390 1.356 . S
C392 C393 1.348 . S
C393 C388 1.353 . S
C393 C392 1.348 . S
C393 H445 0.929 . S
H394 C388 0.930 . S
H395 C391 0.930 . S
C396 N397 1.314 . S
C396 C398 1.353 . S
C396 H402 0.930 . S
N397 Li373 1.990 . S
N397 C396 1.314 . S
N397 C400 1.279 . S
C398 C396 1.353 . S
C398 C401 1.348 . S
C398 H446 0.929 . S
C399 C400 1.358 . S
C399 C401 1.356 . S
C399 H447 0.930 . S
C400 N397 1.279 . S
C400 C399 1.358 . S
C400 H403 0.930 . S
C401 C398 1.348 . S
C401 C399 1.356 . S
H402 C396 0.930 . S
H403 C400 0.930 . S
C404 C406 1.348 . S
C404 C407 1.356 . S
C404 O434 1.325 . S
N405 C408 1.314 . S
N405 C409 1.279 . S
C406 C404 1.348 . S
C406 C408 1.353 . S
C406 H448 0.929 . S
C407 C404 1.356 . S
C407 C409 1.358 . S
C407 H449 0.930 . S
C408 N405 1.314 . S
C408 C406 1.353 . S
C408 H450 0.930 . S
C409 N405 1.279 . S
C409 C407 1.358 . S
C409 H451 0.930 . S
C410 C411 1.348 . S
C410 C412 1.356 . S
C410 O435 1.325 . S
C411 C410 1.348 . S
C411 C413 1.353 . S
C411 H452 0.929 . S
C412 C410 1.356 . S
C412 C414 1.358 . S
C412 H453 0.930 . S
C413 C411 1.353 . S
C413 N415 1.314 . S
C413 H454 0.930 . S
C414 C412 1.358 . S
C414 N415 1.279 . S
C414 H455 0.930 . S
N415 C413 1.314 . S
N415 C414 1.279 . S
C416 C418 1.353 . S
C416 N419 1.314 . S
C416 H422 0.930 . S
C417 N419 1.279 . S
C417 C420 1.358 . S
C417 H423 0.930 . S
C418 C416 1.353 . S
C418 C421 1.348 . S
C418 H456 0.929 . S
N419 Li374 1.990 . S
N419 C416 1.314 . S
N419 C417 1.279 . S
C420 C417 1.358 . S
C420 C421 1.356 . S
C420 H457 0.930 . S
C421 C418 1.348 . S
C421 C420 1.356 . S
H422 C416 0.930 . S
H423 C417 0.930 . S
C424 N425 1.314 . S
C424 C426 1.353 . S
C424 H430 0.930 . S
N425 Li375 1.990 . S
N425 C424 1.314 . S
N425 C428 1.279 . S
C426 C424 1.353 . S
C426 C429 1.348 . S
C426 H458 0.929 . S
C427 C428 1.358 . S
C427 C429 1.356 . S
C427 H459 0.930 . S
C428 N425 1.279 . S
C428 C427 1.358 . S
C428 H431 0.930 . S
C429 C426 1.348 . S
C429 C427 1.356 . S
H430 C424 0.930 . S
H431 C428 0.930 . S
O432 Li372 1.956 . S
O432 Li373 1.970 . S
O432 Li374 1.961 . S
O432 C376 1.325 . S
O433 Li372 1.970 . S
O433 Li373 1.956 . S
O433 Li375 1.961 . S
O433 C382 1.325 . S
O434 Li372 1.961 . S
O434 Li374 1.956 . S
O434 Li375 1.970 . S
O434 C404 1.325 . S
O435 Li373 1.961 . S
O435 Li374 1.970 . S
O435 Li375 1.956 . S
O435 C410 1.325 . S
H436 C378 0.929 . S
H437 C379 0.930 . S
H438 C380 0.930 . S
H439 C381 0.930 . S
H440 C383 0.930 . S
H441 C385 0.929 . S
H442 C386 0.930 . S
H443 C387 0.930 . S
H444 C390 0.930 . S
H445 C393 0.929 . S
H446 C398 0.929 . S
H447 C399 0.930 . S
H448 C406 0.929 . S
H449 C407 0.930 . S
H450 C408 0.930 . S
H451 C409 0.930 . S
H452 C411 0.929 . S
H453 C412 0.930 . S
H454 C413 0.930 . S
H455 C414 0.930 . S
H456 C418 0.929 . S
H457 C420 0.930 . S
H458 C426 0.929 . S
H459 C427 0.930 . S
Li460 N477 1.990 . S
Li460 O520 1.956 . S
Li460 O521 1.970 . S
Li460 O522 1.961 . S
Li461 N485 1.990 . S
Li461 O520 1.970 . S
Li461 O521 1.956 . S
Li461 O523 1.961 . S
Li462 N507 1.990 . S
Li462 O520 1.961 . S
Li462 O522 1.956 . S
Li462 O523 1.970 . S
Li463 N513 1.990 . S
Li463 O521 1.961 . S
Li463 O522 1.970 . S
Li463 O523 1.956 . S
C464 C466 1.348 . S
C464 C467 1.356 . S
C464 O520 1.325 . S
N465 C468 1.314 . S
N465 C469 1.279 . S
C466 C464 1.348 . S
C466 C468 1.353 . S
C466 H524 0.929 . S
C467 C464 1.356 . S
C467 C469 1.358 . S
C467 H525 0.930 . S
C468 N465 1.314 . S
C468 C466 1.353 . S
C468 H526 0.930 . S
C469 N465 1.279 . S
C469 C467 1.358 . S
C469 H527 0.930 . S
C470 C473 1.348 . S
C470 C474 1.356 . S
C470 O521 1.325 . S
C471 N472 1.279 . S
C471 C474 1.358 . S
C471 H528 0.930 . S
N472 C471 1.279 . S
N472 C475 1.314 . S
C473 C470 1.348 . S
C473 C475 1.353 . S
C473 H529 0.929 . S
C474 C470 1.356 . S
C474 C471 1.358 . S
C474 H530 0.930 . S
C475 N472 1.314 . S
C475 C473 1.353 . S
C475 H531 0.930 . S
C476 N477 1.314 . S
C476 C481 1.353 . S
C476 H482 0.930 . S
N477 Li460 1.990 . S
N477 C476 1.314 . S
N477 C479 1.279 . S
C478 C479 1.358 . S
C478 C480 1.356 . S
C478 H532 0.930 . S
C479 N477 1.279 . S
C479 C478 1.358 . S
C479 H483 0.930 . S
C480 C478 1.356 . S
C480 C481 1.348 . S
C481 C476 1.353 . S
C481 C480 1.348 . S
C481 H533 0.929 . S
H482 C476 0.930 . S
H483 C479 0.930 . S
C484 N485 1.314 . S
C484 C486 1.353 . S
C484 H490 0.930 . S
N485 Li461 1.990 . S
N485 C484 1.314 . S
N485 C488 1.279 . S
C486 C484 1.353 . S
C486 C489 1.348 . S
C486 H534 0.929 . S
C487 C488 1.358 . S
C487 C489 1.356 . S
C487 H535 0.930 . S
C488 N485 1.279 . S
C488 C487 1.358 . S
C488 H491 0.930 . S
C489 C486 1.348 . S
C489 C487 1.356 . S
H490 C484 0.930 . S
H491 C488 0.930 . S
C492 C494 1.348 . S
C492 C495 1.356 . S
C492 O522 1.325 . S
N493 C496 1.314 . S
N493 C497 1.279 . S
C494 C492 1.348 . S
C494 C496 1.353 . S
C494 H536 0.929 . S
C495 C492 1.356 . S
C495 C497 1.358 . S
C495 H537 0.930 . S
C496 N493 1.314 . S
C496 C494 1.353 . S
C496 H538 0.930 . S
C497 N493 1.279 . S
C497 C495 1.358 . S
C497 H539 0.930 . S
C498 C499 1.348 . S
C498 C500 1.356 . S
C498 O523 1.325 . S
C499 C498 1.348 . S
C499 C501 1.353 . S
C499 H540 0.929 . S
C500 C498 1.356 . S
C500 C502 1.358 . S
C500 H541 0.930 . S
C501 C499 1.353 . S
C501 N503 1.314 . S
C501 H542 0.930 . S
C502 C500 1.358 . S
C502 N503 1.279 . S
C502 H543 0.930 . S
N503 C501 1.314 . S
N503 C502 1.279 . S
C504 C506 1.353 . S
C504 N507 1.314 . S
C504 H510 0.930 . S
C505 N507 1.279 . S
C505 C508 1.358 . S
C505 H511 0.930 . S
C506 C504 1.353 . S
C506 C509 1.348 . S
C506 H544 0.929 . S
N507 Li462 1.990 . S
N507 C504 1.314 . S
N507 C505 1.279 . S
C508 C505 1.358 . S
C508 C509 1.356 . S
C508 H545 0.930 1_554 S
C509 C506 1.348 . S
C509 C508 1.356 . S
H510 C504 0.930 . S
H511 C505 0.930 . S
C512 N513 1.314 . S
C512 C514 1.353 . S
C512 H518 0.930 . S
N513 Li463 1.990 . S
N513 C512 1.314 . S
N513 C516 1.279 . S
C514 C512 1.353 . S
C514 C517 1.348 . S
C514 H546 0.929 . S
C515 C516 1.358 . S
C515 C517 1.356 . S
C515 H547 0.930 . S
C516 N513 1.279 . S
C516 C515 1.358 . S
C516 H519 0.930 . S
C517 C514 1.348 . S
C517 C515 1.356 . S
H518 C512 0.930 . S
H519 C516 0.930 . S
O520 Li460 1.956 . S
O520 Li461 1.970 . S
O520 Li462 1.961 . S
O520 C464 1.325 . S
O521 Li460 1.970 . S
O521 Li461 1.956 . S
O521 Li463 1.961 . S
O521 C470 1.325 . S
O522 Li460 1.961 . S
O522 Li462 1.956 . S
O522 Li463 1.970 . S
O522 C492 1.325 . S
O523 Li461 1.961 . S
O523 Li462 1.970 . S
O523 Li463 1.956 . S
O523 C498 1.325 . S
H524 C466 0.929 . S
H525 C467 0.930 . S
H526 C468 0.930 . S
H527 C469 0.930 . S
H528 C471 0.930 . S
H529 C473 0.929 . S
H530 C474 0.930 . S
H531 C475 0.930 . S
H532 C478 0.930 . S
H533 C481 0.929 . S
H534 C486 0.929 . S
H535 C487 0.930 . S
H536 C494 0.929 . S
H537 C495 0.930 . S
H538 C496 0.930 . S
H539 C497 0.930 . S
H540 C499 0.929 . S
H541 C500 0.930 . S
H542 C501 0.930 . S
H543 C502 0.930 . S
H544 C506 0.929 . S
H545 C508 0.930 1_556 S
H546 C514 0.929 . S
H547 C515 0.930 . S
Li548 N565 1.990 . S
Li548 O608 1.956 . S
Li548 O609 1.970 . S
Li548 O610 1.961 . S
Li549 N573 1.990 . S
Li549 O608 1.970 . S
Li549 O609 1.956 . S
Li549 O611 1.961 . S
Li550 N595 1.990 . S
Li550 O608 1.961 . S
Li550 O610 1.956 . S
Li550 O611 1.970 . S
Li551 N601 1.990 . S
Li551 O609 1.961 . S
Li551 O610 1.970 . S
Li551 O611 1.956 . S
C552 C554 1.348 . S
C552 C555 1.356 . S
C552 O608 1.325 . S
N553 C556 1.314 . S
N553 C557 1.279 . S
C554 C552 1.348 . S
C554 C556 1.353 . S
C554 H612 0.929 . S
C555 C552 1.356 . S
C555 C557 1.358 . S
C555 H613 0.930 . S
C556 N553 1.314 . S
C556 C554 1.353 . S
C556 H614 0.930 . S
C557 N553 1.279 . S
C557 C555 1.358 . S
C557 H615 0.930 . S
C558 C561 1.348 . S
C558 C562 1.356 . S
C558 O609 1.325 . S
C559 N560 1.279 . S
C559 C562 1.358 . S
C559 H616 0.930 . S
N560 C559 1.279 . S
N560 C563 1.314 . S
C561 C558 1.348 . S
C561 C563 1.353 . S
C561 H617 0.929 . S
C562 C558 1.356 . S
C562 C559 1.358 . S
C562 H618 0.930 . S
C563 N560 1.314 . S
C563 C561 1.353 . S
C563 H619 0.930 . S
C564 N565 1.314 . S
C564 C569 1.353 . S
C564 H570 0.930 . S
N565 Li548 1.990 . S
N565 C564 1.314 . S
N565 C567 1.279 . S
C566 C567 1.358 . S
C566 C568 1.356 . S
C566 H620 0.930 . S
C567 N565 1.279 . S
C567 C566 1.358 . S
C567 H571 0.930 . S
C568 C566 1.356 . S
C568 C569 1.348 . S
C569 C564 1.353 . S
C569 C568 1.348 . S
C569 H621 0.929 . S
H570 C564 0.930 . S
H571 C567 0.930 . S
C572 N573 1.314 . S
C572 C574 1.353 . S
C572 H578 0.930 . S
N573 Li549 1.990 . S
N573 C572 1.314 . S
N573 C576 1.279 . S
C574 C572 1.353 . S
C574 C577 1.348 . S
C574 H622 0.929 . S
C575 C576 1.358 . S
C575 C577 1.356 . S
C575 H623 0.930 . S
C576 N573 1.279 . S
C576 C575 1.358 . S
C576 H579 0.930 . S
C577 C574 1.348 . S
C577 C575 1.356 . S
H578 C572 0.930 . S
H579 C576 0.930 . S
C580 C582 1.348 . S
C580 C583 1.356 . S
C580 O610 1.325 . S
N581 C584 1.314 . S
N581 C585 1.279 . S
C582 C580 1.348 . S
C582 C584 1.353 . S
C582 H624 0.929 . S
C583 C580 1.356 . S
C583 C585 1.358 . S
C583 H625 0.930 . S
C584 N581 1.314 . S
C584 C582 1.353 . S
C584 H626 0.930 . S
C585 N581 1.279 . S
C585 C583 1.358 . S
C585 H627 0.930 . S
C586 C587 1.348 . S
C586 C588 1.356 . S
C586 O611 1.325 . S
C587 C586 1.348 . S
C587 C589 1.353 . S
C587 H628 0.929 . S
C588 C586 1.356 . S
C588 C590 1.358 . S
C588 H629 0.930 . S
C589 C587 1.353 . S
C589 N591 1.314 . S
C589 H630 0.930 . S
C590 C588 1.358 . S
C590 N591 1.279 . S
C590 H631 0.930 . S
N591 C589 1.314 . S
N591 C590 1.279 . S
C592 C594 1.353 . S
C592 N595 1.314 . S
C592 H598 0.930 . S
C593 N595 1.279 . S
C593 C596 1.358 . S
C593 H599 0.930 . S
C594 C592 1.353 . S
C594 C597 1.348 . S
C594 H632 0.929 . S
N595 Li550 1.990 . S
N595 C592 1.314 . S
N595 C593 1.279 . S
C596 C593 1.358 . S
C596 C597 1.356 . S
C596 H633 0.930 . S
C597 C594 1.348 . S
C597 C596 1.356 . S
H598 C592 0.930 . S
H599 C593 0.930 . S
C600 N601 1.314 . S
C600 C602 1.353 . S
C600 H606 0.930 . S
N601 Li551 1.990 . S
N601 C600 1.314 . S
N601 C604 1.279 . S
C602 C600 1.353 . S
C602 C605 1.348 . S
C602 H634 0.929 . S
C603 C604 1.358 . S
C603 C605 1.356 . S
C603 H635 0.930 . S
C604 N601 1.279 . S
C604 C603 1.358 . S
C604 H607 0.930 . S
C605 C602 1.348 . S
C605 C603 1.356 . S
H606 C600 0.930 . S
H607 C604 0.930 . S
O608 Li548 1.956 . S
O608 Li549 1.970 . S
O608 Li550 1.961 . S
O608 C552 1.325 . S
O609 Li548 1.970 . S
O609 Li549 1.956 . S
O609 Li551 1.961 . S
O609 C558 1.325 . S
O610 Li548 1.961 . S
O610 Li550 1.956 . S
O610 Li551 1.970 . S
O610 C580 1.325 . S
O611 Li549 1.961 . S
O611 Li550 1.970 . S
O611 Li551 1.956 . S
O611 C586 1.325 . S
H612 C554 0.929 . S
H613 C555 0.930 . S
H614 C556 0.930 . S
H615 C557 0.930 . S
H616 C559 0.930 . S
H617 C561 0.929 . S
H618 C562 0.930 . S
H619 C563 0.930 . S
H620 C566 0.930 . S
H621 C569 0.929 . S
H622 C574 0.929 . S
H623 C575 0.930 . S
H624 C582 0.929 . S
H625 C583 0.930 . S
H626 C584 0.930 . S
H627 C585 0.930 . S
H628 C587 0.929 . S
H629 C588 0.930 . S
H630 C589 0.930 . S
H631 C590 0.930 . S
H632 C594 0.929 . S
H633 C596 0.930 . S
H634 C602 0.929 . S
H635 C603 0.930 . S
H636 C654 0.951 . S
H637 C656 0.951 . S
H638 C658 0.950 . S
H639 C659 0.950 . S
H640 C661 0.950 . S
H641 C664 0.950 . S
H642 C665 0.950 . S
H643 C667 0.950 . S
H644 C668 0.950 . S
H645 C669 0.951 . S
H646 C671 0.951 . S
H647 C673 0.950 . S
H648 C674 0.950 . S
H649 C676 0.950 . S
H650 C679 0.950 . S
H651 C680 0.950 . S
H652 C682 0.950 . S
H653 C683 0.950 . S
C654 H636 0.951 . S
C654 C655 1.366 . S
C654 C656 1.388 . S
C655 C654 1.366 . S
C655 C659 1.385 . S
C656 H637 0.951 . S
C656 C654 1.388 . S
C656 C657 1.366 . S
C657 C656 1.366 . S
C657 C658 1.414 . S
C657 C660 1.499 . S
C658 H638 0.950 . S
C658 C657 1.414 . S
C658 C659 1.374 . S
C659 H639 0.950 . S
C659 C655 1.385 . S
C659 C658 1.374 . S
C660 C657 1.499 . S
C660 C661 1.373 . S
C660 C662 1.389 . S
C661 H640 0.950 . S
C661 C660 1.373 . S
C661 C677 1.377 . S
C662 C660 1.389 . S
C662 C663 1.524 . S
C662 C676 1.377 . S
C663 C662 1.524 . S
C663 C664 1.397 . S
C663 C668 1.363 . S
C664 H641 0.950 . S
C664 C663 1.397 . S
C664 C665 1.334 . S
C665 H642 0.950 . S
C665 C664 1.334 . S
C665 C666 1.287 . S
C666 C665 1.287 . S
C666 C667 1.524 . S
C666 H685 0.913 . S
C667 H643 0.950 . S
C667 C666 1.524 . S
C667 C668 1.415 . S
C668 H644 0.950 . S
C668 C663 1.363 . S
C668 C667 1.415 . S
C669 H645 0.951 . S
C669 C670 1.366 . S
C669 C671 1.388 . S
C670 C669 1.366 . S
C670 C674 1.385 . S
C671 H646 0.951 . S
C671 C669 1.388 . S
C671 C672 1.366 . S
C672 C671 1.366 . S
C672 C673 1.414 . S
C672 C675 1.499 . S
C673 H647 0.950 . S
C673 C672 1.414 . S
C673 C674 1.374 . S
C674 H648 0.950 . S
C674 C670 1.385 . S
C674 C673 1.374 . S
C675 C672 1.499 . S
C675 C676 1.373 . S
C675 C677 1.389 . S
C676 H649 0.950 . S
C676 C662 1.377 . S
C676 C675 1.373 . S
C677 C661 1.377 . S
C677 C675 1.389 . S
C677 C678 1.524 . S
C678 C677 1.524 . S
C678 C679 1.397 . S
C678 C683 1.363 . S
C679 H650 0.950 . S
C679 C678 1.397 . S
C679 C680 1.334 . S
C680 H651 0.950 . S
C680 C679 1.334 . S
C680 C681 1.287 . S
C681 C680 1.287 . S
C681 C682 1.524 . S
C681 H684 0.999 . S
C682 H652 0.950 . S
C682 C681 1.524 . S
C682 C683 1.415 . S
C683 H653 0.950 . S
C683 C678 1.363 . S
C683 C682 1.415 . S
H684 C681 0.999 . S
H685 C666 0.913 . S
H686 C704 0.951 . S
H687 C706 0.951 . S
H688 C708 0.950 . S
H689 C709 0.950 . S
H690 C711 0.950 . S
H691 C714 0.950 . S
H692 C715 0.950 . S
H693 C717 0.950 . S
H694 C718 0.950 . S
H695 C719 0.951 . S
H696 C721 0.951 . S
H697 C723 0.950 . S
H698 C724 0.950 . S
H699 C726 0.950 . S
H700 C729 0.950 . S
H701 C730 0.950 . S
H702 C732 0.950 . S
H703 C733 0.950 . S
C704 H686 0.951 . S
C704 C705 1.366 . S
C704 C706 1.388 . S
C705 C704 1.366 . S
C705 C709 1.385 . S
C706 H687 0.951 . S
C706 C704 1.388 . S
C706 C707 1.366 . S
C707 C706 1.366 . S
C707 C708 1.414 . S
C707 C710 1.499 . S
C708 H688 0.950 . S
C708 C707 1.414 . S
C708 C709 1.374 . S
C709 H689 0.950 . S
C709 C705 1.385 . S
C709 C708 1.374 . S
C710 C707 1.499 . S
C710 C711 1.373 . S
C710 C712 1.389 . S
C711 H690 0.950 . S
C711 C710 1.373 . S
C711 C727 1.377 . S
C712 C710 1.389 . S
C712 C713 1.524 . S
C712 C726 1.377 . S
C713 C712 1.524 . S
C713 C714 1.397 . S
C713 C718 1.363 . S
C714 H691 0.950 . S
C714 C713 1.397 . S
C714 C715 1.334 . S
C715 H692 0.950 . S
C715 C714 1.334 . S
C715 C716 1.287 . S
C716 C715 1.287 . S
C716 C717 1.524 . S
C716 H735 0.913 . S
C717 H693 0.950 . S
C717 C716 1.524 . S
C717 C718 1.415 . S
C718 H694 0.950 . S
C718 C713 1.363 . S
C718 C717 1.415 . S
C719 H695 0.951 . S
C719 C720 1.366 . S
C719 C721 1.388 . S
C720 C719 1.366 . S
C720 C724 1.385 . S
C721 H696 0.951 . S
C721 C719 1.388 . S
C721 C722 1.366 . S
C722 C721 1.366 . S
C722 C723 1.414 . S
C722 C725 1.499 . S
C723 H697 0.950 . S
C723 C722 1.414 . S
C723 C724 1.374 . S
C724 H698 0.950 . S
C724 C720 1.385 . S
C724 C723 1.374 . S
C725 C722 1.499 . S
C725 C726 1.373 . S
C725 C727 1.389 . S
C726 H699 0.950 . S
C726 C712 1.377 . S
C726 C725 1.373 . S
C727 C711 1.377 . S
C727 C725 1.389 . S
C727 C728 1.524 . S
C728 C727 1.524 . S
C728 C729 1.397 . S
C728 C733 1.363 . S
C729 H700 0.950 . S
C729 C728 1.397 . S
C729 C730 1.334 . S
C730 H701 0.950 . S
C730 C729 1.334 . S
C730 C731 1.287 . S
C731 C730 1.287 . S
C731 C732 1.524 . S
C731 H734 0.999 . S
C732 H702 0.950 . S
C732 C731 1.524 . S
C732 C733 1.415 . S
C733 H703 0.950 . S
C733 C728 1.363 . S
C733 C732 1.415 . S
H734 C731 0.999 . S
H735 C716 0.913 . S
H736 C754 0.951 . S
H737 C756 0.951 . S
H738 C758 0.950 . S
H739 C759 0.950 . S
H740 C761 0.950 . S
H741 C764 0.950 . S
H742 C765 0.950 . S
H743 C767 0.950 . S
H744 C768 0.950 . S
H745 C769 0.951 . S
H746 C771 0.951 . S
H747 C773 0.950 . S
H748 C774 0.950 . S
H749 C776 0.950 . S
H750 C779 0.950 . S
H751 C780 0.950 . S
H752 C782 0.950 . S
H753 C783 0.950 . S
C754 H736 0.951 . S
C754 C755 1.366 . S
C754 C756 1.388 . S
C755 C754 1.366 . S
C755 C759 1.385 . S
C756 H737 0.951 . S
C756 C754 1.388 . S
C756 C757 1.366 . S
C757 C756 1.366 . S
C757 C758 1.414 . S
C757 C760 1.499 . S
C758 H738 0.950 . S
C758 C757 1.414 . S
C758 C759 1.374 . S
C759 H739 0.950 . S
C759 C755 1.385 . S
C759 C758 1.374 . S
C760 C757 1.499 . S
C760 C761 1.373 . S
C760 C762 1.389 . S
C761 H740 0.950 . S
C761 C760 1.373 . S
C761 C777 1.377 . S
C762 C760 1.389 . S
C762 C763 1.524 . S
C762 C776 1.377 . S
C763 C762 1.524 . S
C763 C764 1.397 . S
C763 C768 1.363 . S
C764 H741 0.950 . S
C764 C763 1.397 . S
C764 C765 1.334 . S
C765 H742 0.950 . S
C765 C764 1.334 . S
C765 C766 1.287 . S
C766 C765 1.287 . S
C766 C767 1.524 . S
C766 H785 0.913 . S
C767 H743 0.950 . S
C767 C766 1.524 . S
C767 C768 1.415 . S
C768 H744 0.950 . S
C768 C763 1.363 . S
C768 C767 1.415 . S
C769 H745 0.951 . S
C769 C770 1.366 . S
C769 C771 1.388 . S
C770 C769 1.366 . S
C770 C774 1.385 . S
C771 H746 0.951 . S
C771 C769 1.388 . S
C771 C772 1.366 . S
C772 C771 1.366 . S
C772 C773 1.414 . S
C772 C775 1.499 . S
C773 H747 0.950 . S
C773 C772 1.414 . S
C773 C774 1.374 . S
C774 H748 0.950 . S
C774 C770 1.385 . S
C774 C773 1.374 . S
C775 C772 1.499 . S
C775 C776 1.373 . S
C775 C777 1.389 . S
C776 H749 0.950 . S
C776 C762 1.377 . S
C776 C775 1.373 . S
C777 C761 1.377 . S
C777 C775 1.389 . S
C777 C778 1.524 . S
C778 C777 1.524 . S
C778 C779 1.397 . S
C778 C783 1.363 . S
C779 H750 0.950 . S
C779 C778 1.397 . S
C779 C780 1.334 . S
C780 H751 0.950 . S
C780 C779 1.334 . S
C780 C781 1.287 . S
C781 C780 1.287 . S
C781 C782 1.524 . S
C781 H784 0.999 . S
C782 H752 0.950 . S
C782 C781 1.524 . S
C782 C783 1.415 . S
C783 H753 0.950 . S
C783 C778 1.363 . S
C783 C782 1.415 . S
H784 C781 0.999 . S
H785 C766 0.913 . S
H786 C804 0.951 . S
H787 C806 0.951 . S
H788 C808 0.950 . S
H789 C809 0.950 . S
H790 C811 0.950 . S
H791 C814 0.950 . S
H792 C815 0.950 . S
H793 C817 0.950 . S
H794 C818 0.950 . S
H795 C819 0.951 . S
H796 C821 0.951 . S
H797 C823 0.950 . S
H798 C824 0.950 . S
H799 C826 0.950 . S
H800 C829 0.950 . S
H801 C830 0.950 . S
H802 C832 0.950 . S
H803 C833 0.950 . S
C804 H786 0.951 . S
C804 C805 1.366 . S
C804 C806 1.388 . S
C805 C804 1.366 . S
C805 C809 1.385 . S
C806 H787 0.951 . S
C806 C804 1.388 . S
C806 C807 1.366 . S
C807 C806 1.366 . S
C807 C808 1.414 . S
C807 C810 1.499 . S
C808 H788 0.950 . S
C808 C807 1.414 . S
C808 C809 1.374 . S
C809 H789 0.950 . S
C809 C805 1.385 . S
C809 C808 1.374 . S
C810 C807 1.499 . S
C810 C811 1.373 . S
C810 C812 1.389 . S
C811 H790 0.950 . S
C811 C810 1.373 . S
C811 C827 1.377 . S
C812 C810 1.389 . S
C812 C813 1.524 . S
C812 C826 1.377 . S
C813 C812 1.524 . S
C813 C814 1.397 . S
C813 C818 1.363 . S
C814 H791 0.950 . S
C814 C813 1.397 . S
C814 C815 1.334 . S
C815 H792 0.950 . S
C815 C814 1.334 . S
C815 C816 1.287 . S
C816 C815 1.287 . S
C816 C817 1.524 . S
C816 H835 0.913 . S
C817 H793 0.950 . S
C817 C816 1.524 . S
C817 C818 1.415 . S
C818 H794 0.950 . S
C818 C813 1.363 . S
C818 C817 1.415 . S
C819 H795 0.951 . S
C819 C820 1.366 . S
C819 C821 1.388 . S
C820 C819 1.366 . S
C820 C824 1.385 . S
C821 H796 0.951 . S
C821 C819 1.388 . S
C821 C822 1.366 . S
C822 C821 1.366 . S
C822 C823 1.414 . S
C822 C825 1.499 . S
C823 H797 0.950 . S
C823 C822 1.414 . S
C823 C824 1.374 . S
C824 H798 0.950 . S
C824 C820 1.385 . S
C824 C823 1.374 . S
C825 C822 1.499 . S
C825 C826 1.373 . S
C825 C827 1.389 . S
C826 H799 0.950 . S
C826 C812 1.377 . S
C826 C825 1.373 . S
C827 C811 1.377 . S
C827 C825 1.389 . S
C827 C828 1.524 . S
C828 C827 1.524 . S
C828 C829 1.397 . S
C828 C833 1.363 . S
C829 H800 0.950 . S
C829 C828 1.397 . S
C829 C830 1.334 . S
C830 H801 0.950 . S
C830 C829 1.334 . S
C830 C831 1.287 . S
C831 C830 1.287 . S
C831 C832 1.524 . S
C831 H834 0.999 . S
C832 H802 0.950 . S
C832 C831 1.524 . S
C832 C833 1.415 . S
C833 H803 0.950 . S
C833 C828 1.363 . S
C833 C832 1.415 . S
H834 C831 0.999 . S
H835 C816 0.913 . S
H836 C854 0.951 1_554 S
H837 C856 0.951 . S
H838 C858 0.950 . S
H839 C859 0.950 . S
H840 C861 0.950 . S
H841 C864 0.950 . S
H842 C865 0.950 . S
H843 C867 0.950 1_554 S
H844 C868 0.950 . S
H845 C869 0.951 . S
H846 C871 0.951 . S
H847 C873 0.950 . S
H848 C874 0.950 . S
H849 C876 0.950 . S
H850 C879 0.950 . S
H851 C880 0.950 . S
H852 C882 0.950 . S
H853 C883 0.950 . S
C854 H836 0.951 1_556 S
C854 C855 1.366 . S
C854 C856 1.388 . S
C855 C854 1.366 . S
C855 C859 1.385 . S
C856 H837 0.951 . S
C856 C854 1.388 . S
C856 C857 1.366 . S
C857 C856 1.366 . S
C857 C858 1.414 . S
C857 C860 1.499 . S
C858 H838 0.950 . S
C858 C857 1.414 . S
C858 C859 1.374 . S
C859 H839 0.950 . S
C859 C855 1.385 . S
C859 C858 1.374 . S
C860 C857 1.499 . S
C860 C861 1.373 . S
C860 C862 1.389 . S
C861 H840 0.950 . S
C861 C860 1.373 . S
C861 C877 1.377 . S
C862 C860 1.389 . S
C862 C863 1.524 . S
C862 C876 1.377 . S
C863 C862 1.524 . S
C863 C864 1.397 . S
C863 C868 1.363 . S
C864 H841 0.950 . S
C864 C863 1.397 . S
C864 C865 1.334 . S
C865 H842 0.950 . S
C865 C864 1.334 . S
C865 C866 1.287 . S
C866 C865 1.287 . S
C866 C867 1.524 . S
C866 H885 0.913 . S
C867 H843 0.950 1_556 S
C867 C866 1.524 . S
C867 C868 1.415 . S
C868 H844 0.950 . S
C868 C863 1.363 . S
C868 C867 1.415 . S
C869 H845 0.951 . S
C869 C870 1.366 . S
C869 C871 1.388 . S
C870 C869 1.366 . S
C870 C874 1.385 . S
C871 H846 0.951 . S
C871 C869 1.388 . S
C871 C872 1.366 . S
C872 C871 1.366 . S
C872 C873 1.414 . S
C872 C875 1.499 . S
C873 H847 0.950 . S
C873 C872 1.414 . S
C873 C874 1.374 . S
C874 H848 0.950 . S
C874 C870 1.385 . S
C874 C873 1.374 . S
C875 C872 1.499 . S
C875 C876 1.373 . S
C875 C877 1.389 . S
C876 H849 0.950 . S
C876 C862 1.377 . S
C876 C875 1.373 . S
C877 C861 1.377 . S
C877 C875 1.389 . S
C877 C878 1.524 . S
C878 C877 1.524 . S
C878 C879 1.397 . S
C878 C883 1.363 . S
C879 H850 0.950 . S
C879 C878 1.397 . S
C879 C880 1.334 . S
C880 H851 0.950 . S
C880 C879 1.334 . S
C880 C881 1.287 . S
C881 C880 1.287 . S
C881 C882 1.524 . S
C881 H884 0.999 . S
C882 H852 0.950 . S
C882 C881 1.524 . S
C882 C883 1.415 . S
C883 H853 0.950 . S
C883 C878 1.363 . S
C883 C882 1.415 . S
H884 C881 0.999 . S
H885 C866 0.913 . S
H886 C904 0.951 . S
H887 C906 0.951 . S
H888 C908 0.950 . S
H889 C909 0.950 . S
H890 C911 0.950 . S
H891 C914 0.950 . S
H892 C915 0.950 . S
H893 C917 0.950 . S
H894 C918 0.950 . S
H895 C919 0.951 . S
H896 C921 0.951 . S
H897 C923 0.950 . S
H898 C924 0.950 . S
H899 C926 0.950 . S
H900 C929 0.950 . S
H901 C930 0.950 . S
H902 C932 0.950 . S
H903 C933 0.950 . S
C904 H886 0.951 . S
C904 C905 1.366 . S
C904 C906 1.388 . S
C905 C904 1.366 . S
C905 C909 1.385 . S
C906 H887 0.951 . S
C906 C904 1.388 . S
C906 C907 1.366 . S
C907 C906 1.366 . S
C907 C908 1.414 . S
C907 C910 1.499 . S
C908 H888 0.950 . S
C908 C907 1.414 . S
C908 C909 1.374 . S
C909 H889 0.950 . S
C909 C905 1.385 . S
C909 C908 1.374 . S
C910 C907 1.499 . S
C910 C911 1.373 . S
C910 C912 1.389 . S
C911 H890 0.950 . S
C911 C910 1.373 . S
C911 C927 1.377 . S
C912 C910 1.389 . S
C912 C913 1.524 . S
C912 C926 1.377 . S
C913 C912 1.524 . S
C913 C914 1.397 . S
C913 C918 1.363 . S
C914 H891 0.950 . S
C914 C913 1.397 . S
C914 C915 1.334 . S
C915 H892 0.950 . S
C915 C914 1.334 . S
C915 C916 1.287 . S
C916 C915 1.287 . S
C916 C917 1.524 . S
C916 H935 0.913 . S
C917 H893 0.950 . S
C917 C916 1.524 . S
C917 C918 1.415 . S
C918 H894 0.950 . S
C918 C913 1.363 . S
C918 C917 1.415 . S
C919 H895 0.951 . S
C919 C920 1.366 . S
C919 C921 1.388 . S
C920 C919 1.366 . S
C920 C924 1.385 . S
C921 H896 0.951 . S
C921 C919 1.388 . S
C921 C922 1.366 . S
C922 C921 1.366 . S
C922 C923 1.414 . S
C922 C925 1.499 . S
C923 H897 0.950 . S
C923 C922 1.414 . S
C923 C924 1.374 . S
C924 H898 0.950 . S
C924 C920 1.385 . S
C924 C923 1.374 . S
C925 C922 1.499 . S
C925 C926 1.373 . S
C925 C927 1.389 . S
C926 H899 0.950 . S
C926 C912 1.377 . S
C926 C925 1.373 . S
C927 C911 1.377 . S
C927 C925 1.389 . S
C927 C928 1.524 . S
C928 C927 1.524 . S
C928 C929 1.397 . S
C928 C933 1.363 . S
C929 H900 0.950 . S
C929 C928 1.397 . S
C929 C930 1.334 . S
C930 H901 0.950 . S
C930 C929 1.334 . S
C930 C931 1.287 . S
C931 C930 1.287 . S
C931 C932 1.524 . S
C931 H934 0.999 . S
C932 H902 0.950 . S
C932 C931 1.524 . S
C932 C933 1.415 . S
C933 H903 0.950 . S
C933 C928 1.363 . S
C933 C932 1.415 . S
H934 C931 0.999 . S
H935 C916 0.913 . S
H936 C954 0.951 . S
H937 C956 0.951 . S
H938 C958 0.950 . S
H939 C959 0.950 . S
H940 C961 0.950 . S
H941 C964 0.950 . S
H942 C965 0.950 . S
H943 C967 0.950 . S
H944 C968 0.950 . S
H945 C969 0.951 . S
H946 C971 0.951 . S
H947 C973 0.950 . S
H948 C974 0.950 . S
H949 C976 0.950 . S
H950 C979 0.950 . S
H951 C980 0.950 . S
H952 C982 0.950 . S
H953 C983 0.950 . S
C954 H936 0.951 . S
C954 C955 1.366 . S
C954 C956 1.388 . S
C955 C954 1.366 . S
C955 C959 1.385 . S
C956 H937 0.951 . S
C956 C954 1.388 . S
C956 C957 1.366 . S
C957 C956 1.366 . S
C957 C958 1.414 . S
C957 C960 1.499 . S
C958 H938 0.950 . S
C958 C957 1.414 . S
C958 C959 1.374 . S
C959 H939 0.950 . S
C959 C955 1.385 . S
C959 C958 1.374 . S
C960 C957 1.499 . S
C960 C961 1.373 . S
C960 C962 1.389 . S
C961 H940 0.950 . S
C961 C960 1.373 . S
C961 C977 1.377 . S
C962 C960 1.389 . S
C962 C963 1.524 . S
C962 C976 1.377 . S
C963 C962 1.524 . S
C963 C964 1.397 . S
C963 C968 1.363 . S
C964 H941 0.950 . S
C964 C963 1.397 . S
C964 C965 1.334 . S
C965 H942 0.950 . S
C965 C964 1.334 . S
C965 C966 1.287 . S
C966 C965 1.287 . S
C966 C967 1.524 . S
C966 H985 0.913 . S
C967 H943 0.950 . S
C967 C966 1.524 . S
C967 C968 1.415 . S
C968 H944 0.950 . S
C968 C963 1.363 . S
C968 C967 1.415 . S
C969 H945 0.951 . S
C969 C970 1.366 . S
C969 C971 1.388 . S
C970 C969 1.366 . S
C970 C974 1.385 . S
C971 H946 0.951 . S
C971 C969 1.388 . S
C971 C972 1.366 . S
C972 C971 1.366 . S
C972 C973 1.414 . S
C972 C975 1.499 . S
C973 H947 0.950 . S
C973 C972 1.414 . S
C973 C974 1.374 . S
C974 H948 0.950 . S
C974 C970 1.385 . S
C974 C973 1.374 . S
C975 C972 1.499 . S
C975 C976 1.373 . S
C975 C977 1.389 . S
C976 H949 0.950 . S
C976 C962 1.377 . S
C976 C975 1.373 . S
C977 C961 1.377 . S
C977 C975 1.389 . S
C977 C978 1.524 . S
C978 C977 1.524 . S
C978 C979 1.397 . S
C978 C983 1.363 . S
C979 H950 0.950 . S
C979 C978 1.397 . S
C979 C980 1.334 . S
C980 H951 0.950 . S
C980 C979 1.334 . S
C980 C981 1.287 . S
C981 C980 1.287 . S
C981 C982 1.524 . S
C981 H984 0.999 . S
C982 H952 0.950 . S
C982 C981 1.524 . S
C982 C983 1.415 . S
C983 H953 0.950 . S
C983 C978 1.363 . S
C983 C982 1.415 . S
H984 C981 0.999 . S
H985 C966 0.913 . S
H986 C1004 0.951 . S
H987 C1006 0.951 . S
H988 C1008 0.950 . S
H989 C1009 0.950 . S
H990 C1011 0.950 . S
H991 C1014 0.950 . S
H992 C1015 0.950 . S
H993 C1017 0.950 . S
H994 C1018 0.950 . S
H995 C1019 0.951 . S
H996 C1021 0.951 . S
H997 C1023 0.950 . S
H998 C1024 0.950 . S
H999 C1026 0.950 . S
H1000 C1029 0.950 . S
H1001 C1030 0.950 . S
H1002 C1032 0.950 . S
H1003 C1033 0.950 . S
C1004 H986 0.951 . S
C1004 C1005 1.366 . S
C1004 C1006 1.388 . S
C1005 C1004 1.366 . S
C1005 C1009 1.385 . S
C1006 H987 0.951 . S
C1006 C1004 1.388 . S
C1006 C1007 1.366 . S
C1007 C1006 1.366 . S
C1007 C1008 1.414 . S
C1007 C1010 1.499 . S
C1008 H988 0.950 . S
C1008 C1007 1.414 . S
C1008 C1009 1.374 . S
C1009 H989 0.950 . S
C1009 C1005 1.385 . S
C1009 C1008 1.374 . S
C1010 C1007 1.499 . S
C1010 C1011 1.373 . S
C1010 C1012 1.389 . S
C1011 H990 0.950 . S
C1011 C1010 1.373 . S
C1011 C1027 1.377 . S
C1012 C1010 1.389 . S
C1012 C1013 1.524 . S
C1012 C1026 1.377 . S
C1013 C1012 1.524 . S
C1013 C1014 1.397 . S
C1013 C1018 1.363 . S
C1014 H991 0.950 . S
C1014 C1013 1.397 . S
C1014 C1015 1.334 . S
C1015 H992 0.950 . S
C1015 C1014 1.334 . S
C1015 C1016 1.287 . S
C1016 C1015 1.287 . S
C1016 C1017 1.524 . S
C1016 H1035 0.913 . S
C1017 H993 0.950 . S
C1017 C1016 1.524 . S
C1017 C1018 1.415 . S
C1018 H994 0.950 . S
C1018 C1013 1.363 . S
C1018 C1017 1.415 . S
C1019 H995 0.951 . S
C1019 C1020 1.366 . S
C1019 C1021 1.388 . S
C1020 C1019 1.366 . S
C1020 C1024 1.385 . S
C1021 H996 0.951 . S
C1021 C1019 1.388 . S
C1021 C1022 1.366 . S
C1022 C1021 1.366 . S
C1022 C1023 1.414 . S
C1022 C1025 1.499 . S
C1023 H997 0.950 . S
C1023 C1022 1.414 . S
C1023 C1024 1.374 . S
C1024 H998 0.950 . S
C1024 C1020 1.385 . S
C1024 C1023 1.374 . S
C1025 C1022 1.499 . S
C1025 C1026 1.373 . S
C1025 C1027 1.389 . S
C1026 H999 0.950 . S
C1026 C1012 1.377 . S
C1026 C1025 1.373 . S
C1027 C1011 1.377 . S
C1027 C1025 1.389 . S
C1027 C1028 1.524 . S
C1028 C1027 1.524 . S
C1028 C1029 1.397 . S
C1028 C1033 1.363 . S
C1029 H1000 0.950 . S
C1029 C1028 1.397 . S
C1029 C1030 1.334 . S
C1030 H1001 0.950 . S
C1030 C1029 1.334 . S
C1030 C1031 1.287 . S
C1031 C1030 1.287 . S
C1031 C1032 1.524 . S
C1031 H1034 0.999 . S
C1032 H1002 0.950 . S
C1032 C1031 1.524 . S
C1032 C1033 1.415 . S
C1033 H1003 0.950 . S
C1033 C1028 1.363 . S
C1033 C1032 1.415 . S
H1034 C1031 0.999 . S
H1035 C1016 0.913 . S
H1036 C1054 0.951 . S
H1037 C1056 0.951 . S
H1038 C1058 0.950 . S
H1039 C1059 0.950 . S
H1040 C1061 0.950 . S
H1041 C1064 0.950 . S
H1042 C1065 0.950 . S
H1043 C1067 0.950 . S
H1044 C1068 0.950 . S
H1045 C1069 0.951 . S
H1046 C1071 0.951 . S
H1047 C1073 0.950 . S
H1048 C1074 0.950 . S
H1049 C1076 0.950 . S
H1050 C1079 0.950 . S
H1051 C1080 0.950 . S
H1052 C1082 0.950 . S
H1053 C1083 0.950 . S
C1054 H1036 0.951 . S
C1054 C1055 1.366 . S
C1054 C1056 1.388 . S
C1055 C1054 1.366 . S
C1055 C1059 1.385 . S
C1056 H1037 0.951 . S
C1056 C1054 1.388 . S
C1056 C1057 1.366 . S
C1057 C1056 1.366 . S
C1057 C1058 1.414 . S
C1057 C1060 1.499 . S
C1058 H1038 0.950 . S
C1058 C1057 1.414 . S
C1058 C1059 1.374 . S
C1059 H1039 0.950 . S
C1059 C1055 1.385 . S
C1059 C1058 1.374 . S
C1060 C1057 1.499 . S
C1060 C1061 1.373 . S
C1060 C1062 1.389 . S
C1061 H1040 0.950 . S
C1061 C1060 1.373 . S
C1061 C1077 1.377 . S
C1062 C1060 1.389 . S
C1062 C1063 1.524 . S
C1062 C1076 1.377 . S
C1063 C1062 1.524 . S
C1063 C1064 1.397 . S
C1063 C1068 1.363 . S
C1064 H1041 0.950 . S
C1064 C1063 1.397 . S
C1064 C1065 1.334 . S
C1065 H1042 0.950 . S
C1065 C1064 1.334 . S
C1065 C1066 1.287 . S
C1066 C1065 1.287 . S
C1066 C1067 1.524 . S
C1066 H1085 0.913 . S
C1067 H1043 0.950 . S
C1067 C1066 1.524 . S
C1067 C1068 1.415 . S
C1068 H1044 0.950 . S
C1068 C1063 1.363 . S
C1068 C1067 1.415 . S
C1069 H1045 0.951 . S
C1069 C1070 1.366 . S
C1069 C1071 1.388 . S
C1070 C1069 1.366 . S
C1070 C1074 1.385 . S
C1071 H1046 0.951 . S
C1071 C1069 1.388 . S
C1071 C1072 1.366 . S
C1072 C1071 1.366 . S
C1072 C1073 1.414 . S
C1072 C1075 1.499 . S
C1073 H1047 0.950 . S
C1073 C1072 1.414 . S
C1073 C1074 1.374 . S
C1074 H1048 0.950 . S
C1074 C1070 1.385 . S
C1074 C1073 1.374 . S
C1075 C1072 1.499 . S
C1075 C1076 1.373 . S
C1075 C1077 1.389 . S
C1076 H1049 0.950 . S
C1076 C1062 1.377 . S
C1076 C1075 1.373 . S
C1077 C1061 1.377 . S
C1077 C1075 1.389 . S
C1077 C1078 1.524 . S
C1078 C1077 1.524 . S
C1078 C1079 1.397 . S
C1078 C1083 1.363 . S
C1079 H1050 0.950 . S
C1079 C1078 1.397 . S
C1079 C1080 1.334 . S
C1080 H1051 0.950 . S
C1080 C1079 1.334 . S
C1080 C1081 1.287 . S
C1081 C1080 1.287 . S
C1081 C1082 1.524 . S
C1081 H1084 0.999 . S
C1082 H1052 0.950 . S
C1082 C1081 1.524 . S
C1082 C1083 1.415 . S
C1083 H1053 0.950 . S
C1083 C1078 1.363 . S
C1083 C1082 1.415 . S
H1084 C1081 0.999 . S
H1085 C1066 0.913 . S
H1086 C1104 0.951 . S
H1087 C1106 0.951 . S
H1088 C1108 0.922 1_556 S
H1089 C1109 0.957 . S
H1090 C1111 0.950 . S
H1091 C1114 0.950 . S
H1092 C1115 0.950 . S
H1093 C1117 0.950 . S
H1094 C1118 0.950 . S
H1095 C1119 0.951 . S
H1096 C1121 0.951 . S
H1097 C1123 0.950 . S
H1098 C1124 0.950 . S
H1099 C1126 0.950 . S
H1100 C1129 0.950 . S
H1101 C1130 0.950 . S
H1102 C1132 0.950 . S
H1103 C1133 0.950 . S
C1104 H1086 0.951 . S
C1104 C1105 1.366 . S
C1104 C1106 1.388 . S
C1105 C1104 1.366 . S
C1105 C1109 1.380 1_554 S
C1106 H1087 0.951 . S
C1106 C1104 1.388 . S
C1106 C1107 1.366 . S
C1107 C1106 1.366 . S
C1107 C1108 1.414 . S
C1107 C1110 1.499 . S
C1108 H1088 0.922 1_554 S
C1108 C1107 1.414 . S
C1108 C1109 1.371 1_554 S
C1109 H1089 0.957 . S
C1109 C1105 1.380 1_556 S
C1109 C1108 1.371 1_556 S
C1110 C1107 1.499 . S
C1110 C1111 1.373 . S
C1110 C1112 1.389 . S
C1111 H1090 0.950 . S
C1111 C1110 1.373 . S
C1111 C1127 1.377 . S
C1112 C1110 1.389 . S
C1112 C1113 1.524 . S
C1112 C1126 1.377 . S
C1113 C1112 1.524 . S
C1113 C1114 1.397 . S
C1113 C1118 1.363 . S
C1114 H1091 0.950 . S
C1114 C1113 1.397 . S
C1114 C1115 1.334 . S
C1115 H1092 0.950 . S
C1115 C1114 1.334 . S
C1115 C1116 1.287 . S
C1116 C1115 1.287 . S
C1116 C1117 1.524 . S
C1116 H1135 0.913 . S
C1117 H1093 0.950 . S
C1117 C1116 1.524 . S
C1117 C1118 1.415 . S
C1118 H1094 0.950 . S
C1118 C1113 1.363 . S
C1118 C1117 1.415 . S
C1119 H1095 0.951 . S
C1119 C1120 1.366 . S
C1119 C1121 1.388 . S
C1120 C1119 1.366 . S
C1120 C1124 1.385 . S
C1121 H1096 0.951 . S
C1121 C1119 1.388 . S
C1121 C1122 1.366 . S
C1122 C1121 1.366 . S
C1122 C1123 1.414 . S
C1122 C1125 1.499 . S
C1123 H1097 0.950 . S
C1123 C1122 1.414 . S
C1123 C1124 1.374 . S
C1124 H1098 0.950 . S
C1124 C1120 1.385 . S
C1124 C1123 1.374 . S
C1125 C1122 1.499 . S
C1125 C1126 1.373 . S
C1125 C1127 1.389 . S
C1126 H1099 0.950 . S
C1126 C1112 1.377 . S
C1126 C1125 1.373 . S
C1127 C1111 1.377 . S
C1127 C1125 1.389 . S
C1127 C1128 1.524 . S
C1128 C1127 1.524 . S
C1128 C1129 1.397 . S
C1128 C1133 1.363 1_554 S
C1129 H1100 0.950 . S
C1129 C1128 1.397 . S
C1129 C1130 1.334 1_554 S
C1130 H1101 0.950 . S
C1130 C1129 1.334 1_556 S
C1130 C1131 1.287 . S
C1131 C1130 1.287 . S
C1131 C1132 1.524 . S
C1131 H1134 0.999 . S
C1132 H1102 0.950 . S
C1132 C1131 1.524 . S
C1132 C1133 1.415 . S
C1133 H1103 0.950 . S
C1133 C1128 1.363 1_556 S
C1133 C1132 1.415 . S
H1134 C1131 0.999 . S
H1135 C1116 0.913 . S
H1136 C1154 0.951 . S
H1137 C1156 0.951 . S
H1138 C1158 0.950 . S
H1139 C1159 0.950 . S
H1140 C1161 0.950 . S
H1141 C1164 0.950 . S
H1142 C1165 0.950 . S
H1143 C1167 0.950 . S
H1144 C1168 0.950 . S
H1145 C1169 0.951 . S
H1146 C1171 0.951 . S
H1147 C1173 0.950 . S
H1148 C1174 0.950 . S
H1149 C1176 0.950 . S
H1150 C1179 0.950 . S
H1151 C1180 0.950 . S
H1152 C1182 0.950 . S
H1153 C1183 0.950 . S
C1154 H1136 0.951 . S
C1154 C1155 1.366 . S
C1154 C1156 1.388 . S
C1155 C1154 1.366 . S
C1155 C1159 1.385 . S
C1156 H1137 0.951 . S
C1156 C1154 1.388 . S
C1156 C1157 1.366 . S
C1157 C1156 1.366 . S
C1157 C1158 1.414 . S
C1157 C1160 1.499 . S
C1158 H1138 0.950 . S
C1158 C1157 1.414 . S
C1158 C1159 1.374 . S
C1159 H1139 0.950 . S
C1159 C1155 1.385 . S
C1159 C1158 1.374 . S
C1160 C1157 1.499 . S
C1160 C1161 1.373 . S
C1160 C1162 1.389 . S
C1161 H1140 0.950 . S
C1161 C1160 1.373 . S
C1161 C1177 1.377 . S
C1162 C1160 1.389 . S
C1162 C1163 1.524 . S
C1162 C1176 1.377 . S
C1163 C1162 1.524 . S
C1163 C1164 1.397 . S
C1163 C1168 1.363 . S
C1164 H1141 0.950 . S
C1164 C1163 1.397 . S
C1164 C1165 1.334 . S
C1165 H1142 0.950 . S
C1165 C1164 1.334 . S
C1165 C1166 1.287 . S
C1166 C1165 1.287 . S
C1166 C1167 1.524 . S
C1166 H1185 0.913 . S
C1167 H1143 0.950 . S
C1167 C1166 1.524 . S
C1167 C1168 1.415 . S
C1168 H1144 0.950 . S
C1168 C1163 1.363 . S
C1168 C1167 1.415 . S
C1169 H1145 0.951 . S
C1169 C1170 1.366 . S
C1169 C1171 1.388 . S
C1170 C1169 1.366 . S
C1170 C1174 1.385 . S
C1171 H1146 0.951 . S
C1171 C1169 1.388 . S
C1171 C1172 1.366 . S
C1172 C1171 1.366 . S
C1172 C1173 1.414 . S
C1172 C1175 1.499 . S
C1173 H1147 0.950 . S
C1173 C1172 1.414 . S
C1173 C1174 1.374 . S
C1174 H1148 0.950 . S
C1174 C1170 1.385 . S
C1174 C1173 1.374 . S
C1175 C1172 1.499 . S
C1175 C1176 1.373 . S
C1175 C1177 1.389 . S
C1176 H1149 0.950 . S
C1176 C1162 1.377 . S
C1176 C1175 1.373 . S
C1177 C1161 1.377 . S
C1177 C1175 1.389 . S
C1177 C1178 1.524 . S
C1178 C1177 1.524 . S
C1178 C1179 1.397 . S
C1178 C1183 1.363 . S
C1179 H1150 0.950 . S
C1179 C1178 1.397 . S
C1179 C1180 1.334 . S
C1180 H1151 0.950 . S
C1180 C1179 1.334 . S
C1180 C1181 1.287 . S
C1181 C1180 1.287 . S
C1181 C1182 1.524 . S
C1181 H1184 0.999 . S
C1182 H1152 0.950 . S
C1182 C1181 1.524 . S
C1182 C1183 1.415 . S
C1183 H1153 0.950 . S
C1183 C1178 1.363 . S
C1183 C1182 1.415 . S
H1184 C1181 0.999 . S
H1185 C1166 0.913 . S
H1186 C1204 0.951 . S
H1187 C1206 0.951 . S
H1188 C1208 0.950 . S
H1189 C1209 0.950 . S
H1190 C1211 0.950 . S
H1191 C1214 0.950 . S
H1192 C1215 0.950 . S
H1193 C1217 0.950 . S
H1194 C1218 0.950 . S
H1195 C1219 0.951 . S
H1196 C1221 0.951 . S
H1197 C1223 0.950 . S
H1198 C1224 0.950 . S
H1199 C1226 0.950 . S
H1200 C1229 0.950 . S
H1201 C1230 0.950 . S
H1202 C1232 0.950 . S
H1203 C1233 0.950 . S
C1204 H1186 0.951 . S
C1204 C1205 1.366 . S
C1204 C1206 1.388 . S
C1205 C1204 1.366 . S
C1205 C1209 1.385 . S
C1206 H1187 0.951 . S
C1206 C1204 1.388 . S
C1206 C1207 1.366 . S
C1207 C1206 1.366 . S
C1207 C1208 1.414 . S
C1207 C1210 1.499 . S
C1208 H1188 0.950 . S
C1208 C1207 1.414 . S
C1208 C1209 1.374 . S
C1209 H1189 0.950 . S
C1209 C1205 1.385 . S
C1209 C1208 1.374 . S
C1210 C1207 1.499 . S
C1210 C1211 1.373 . S
C1210 C1212 1.389 . S
C1211 H1190 0.950 . S
C1211 C1210 1.373 . S
C1211 C1227 1.377 . S
C1212 C1210 1.389 . S
C1212 C1213 1.524 . S
C1212 C1226 1.377 . S
C1213 C1212 1.524 . S
C1213 C1214 1.397 . S
C1213 C1218 1.363 . S
C1214 H1191 0.950 . S
C1214 C1213 1.397 . S
C1214 C1215 1.334 . S
C1215 H1192 0.950 . S
C1215 C1214 1.334 . S
C1215 C1216 1.287 . S
C1216 C1215 1.287 . S
C1216 C1217 1.524 . S
C1216 H1235 0.913 . S
C1217 H1193 0.950 . S
C1217 C1216 1.524 . S
C1217 C1218 1.415 . S
C1218 H1194 0.950 . S
C1218 C1213 1.363 . S
C1218 C1217 1.415 . S
C1219 H1195 0.951 . S
C1219 C1220 1.366 . S
C1219 C1221 1.388 . S
C1220 C1219 1.366 . S
C1220 C1224 1.385 . S
C1221 H1196 0.951 . S
C1221 C1219 1.388 . S
C1221 C1222 1.366 . S
C1222 C1221 1.366 . S
C1222 C1223 1.414 . S
C1222 C1225 1.499 . S
C1223 H1197 0.950 . S
C1223 C1222 1.414 . S
C1223 C1224 1.374 . S
C1224 H1198 0.950 . S
C1224 C1220 1.385 . S
C1224 C1223 1.374 . S
C1225 C1222 1.499 . S
C1225 C1226 1.373 . S
C1225 C1227 1.389 . S
C1226 H1199 0.950 . S
C1226 C1212 1.377 . S
C1226 C1225 1.373 . S
C1227 C1211 1.377 . S
C1227 C1225 1.389 . S
C1227 C1228 1.524 . S
C1228 C1227 1.524 . S
C1228 C1229 1.397 . S
C1228 C1233 1.363 . S
C1229 H1200 0.950 . S
C1229 C1228 1.397 . S
C1229 C1230 1.334 . S
C1230 H1201 0.950 . S
C1230 C1229 1.334 . S
C1230 C1231 1.287 . S
C1231 C1230 1.287 . S
C1231 C1232 1.524 . S
C1231 H1234 0.999 . S
C1232 H1202 0.950 . S
C1232 C1231 1.524 . S
C1232 C1233 1.415 . S
C1233 H1203 0.950 . S
C1233 C1228 1.363 . S
C1233 C1232 1.415 . S
H1234 C1231 0.999 . S
H1235 C1216 0.913 . S
H1236 C1254 0.951 . S
H1237 C1256 0.951 . S
H1238 C1258 0.950 . S
H1239 C1259 0.950 . S
H1240 C1261 0.950 . S
H1241 C1264 0.950 . S
H1242 C1265 0.950 . S
H1243 C1267 0.950 . S
H1244 C1268 0.950 . S
H1245 C1269 0.951 . S
H1246 C1271 0.951 . S
H1247 C1273 0.950 . S
H1248 C1274 0.950 . S
H1249 C1276 0.950 . S
H1250 C1279 0.950 . S
H1251 C1280 0.950 . S
H1252 C1282 0.950 . S
H1253 C1283 0.950 . S
C1254 H1236 0.951 . S
C1254 C1255 1.366 . S
C1254 C1256 1.388 . S
C1255 C1254 1.366 . S
C1255 C1259 1.385 . S
C1256 H1237 0.951 . S
C1256 C1254 1.388 . S
C1256 C1257 1.366 . S
C1257 C1256 1.366 . S
C1257 C1258 1.414 . S
C1257 C1260 1.499 . S
C1258 H1238 0.950 . S
C1258 C1257 1.414 . S
C1258 C1259 1.374 . S
C1259 H1239 0.950 . S
C1259 C1255 1.385 . S
C1259 C1258 1.374 . S
C1260 C1257 1.499 . S
C1260 C1261 1.373 . S
C1260 C1262 1.389 . S
C1261 H1240 0.950 . S
C1261 C1260 1.373 . S
C1261 C1277 1.377 . S
C1262 C1260 1.389 . S
C1262 C1263 1.524 . S
C1262 C1276 1.377 . S
C1263 C1262 1.524 . S
C1263 C1264 1.397 . S
C1263 C1268 1.363 . S
C1264 H1241 0.950 . S
C1264 C1263 1.397 . S
C1264 C1265 1.334 . S
C1265 H1242 0.950 . S
C1265 C1264 1.334 . S
C1265 C1266 1.287 . S
C1266 C1265 1.287 . S
C1266 C1267 1.524 . S
C1266 H1285 0.913 . S
C1267 H1243 0.950 . S
C1267 C1266 1.524 . S
C1267 C1268 1.415 . S
C1268 H1244 0.950 . S
C1268 C1263 1.363 . S
C1268 C1267 1.415 . S
C1269 H1245 0.951 . S
C1269 C1270 1.366 . S
C1269 C1271 1.388 . S
C1270 C1269 1.366 . S
C1270 C1274 1.385 . S
C1271 H1246 0.951 . S
C1271 C1269 1.388 . S
C1271 C1272 1.366 . S
C1272 C1271 1.366 . S
C1272 C1273 1.414 . S
C1272 C1275 1.499 . S
C1273 H1247 0.950 . S
C1273 C1272 1.414 . S
C1273 C1274 1.374 . S
C1274 H1248 0.950 . S
C1274 C1270 1.385 . S
C1274 C1273 1.374 . S
C1275 C1272 1.499 . S
C1275 C1276 1.373 . S
C1275 C1277 1.389 . S
C1276 H1249 0.950 . S
C1276 C1262 1.377 . S
C1276 C1275 1.373 . S
C1277 C1261 1.377 . S
C1277 C1275 1.389 . S
C1277 C1278 1.524 . S
C1278 C1277 1.524 . S
C1278 C1279 1.397 . S
C1278 C1283 1.363 . S
C1279 H1250 0.950 . S
C1279 C1278 1.397 . S
C1279 C1280 1.334 . S
C1280 H1251 0.950 . S
C1280 C1279 1.334 . S
C1280 C1281 1.287 . S
C1281 C1280 1.287 . S
C1281 C1282 1.524 . S
C1281 H1284 0.999 . S
C1282 H1252 0.950 . S
C1282 C1281 1.524 . S
C1282 C1283 1.415 . S
C1283 H1253 0.950 . S
C1283 C1278 1.363 . S
C1283 C1282 1.415 . S
H1284 C1281 0.999 . S
H1285 C1266 0.913 . S
H1286 C1304 0.951 . S
H1287 C1306 0.951 . S
H1288 C1308 0.950 . S
H1289 C1309 0.950 . S
H1290 C1311 0.950 . S
H1291 C1314 0.950 . S
H1292 C1315 0.950 . S
H1293 C1317 0.950 . S
H1294 C1318 0.950 . S
H1295 C1319 0.951 . S
H1296 C1321 0.951 . S
H1297 C1323 0.950 . S
H1298 C1324 0.950 . S
H1299 C1326 0.950 . S
H1300 C1329 0.950 . S
H1301 C1330 0.950 . S
H1302 C1332 0.950 . S
H1303 C1333 0.950 . S
C1304 H1286 0.951 . S
C1304 C1305 1.366 . S
C1304 C1306 1.388 . S
C1305 C1304 1.366 . S
C1305 C1309 1.385 . S
C1306 H1287 0.951 . S
C1306 C1304 1.388 . S
C1306 C1307 1.366 . S
C1307 C1306 1.366 . S
C1307 C1308 1.414 . S
C1307 C1310 1.499 . S
C1308 H1288 0.950 . S
C1308 C1307 1.414 . S
C1308 C1309 1.374 . S
C1309 H1289 0.950 . S
C1309 C1305 1.385 . S
C1309 C1308 1.374 . S
C1310 C1307 1.499 . S
C1310 C1311 1.373 . S
C1310 C1312 1.389 . S
C1311 H1290 0.950 . S
C1311 C1310 1.373 . S
C1311 C1327 1.377 . S
C1312 C1310 1.389 . S
C1312 C1313 1.524 . S
C1312 C1326 1.377 . S
C1313 C1312 1.524 . S
C1313 C1314 1.397 . S
C1313 C1318 1.363 . S
C1314 H1291 0.950 . S
C1314 C1313 1.397 . S
C1314 C1315 1.334 . S
C1315 H1292 0.950 . S
C1315 C1314 1.334 . S
C1315 C1316 1.287 . S
C1316 C1315 1.287 . S
C1316 C1317 1.524 . S
C1316 H1335 0.913 . S
C1317 H1293 0.950 . S
C1317 C1316 1.524 . S
C1317 C1318 1.415 . S
C1318 H1294 0.950 . S
C1318 C1313 1.363 . S
C1318 C1317 1.415 . S
C1319 H1295 0.951 . S
C1319 C1320 1.366 . S
C1319 C1321 1.388 . S
C1320 C1319 1.366 . S
C1320 C1324 1.385 . S
C1321 H1296 0.951 . S
C1321 C1319 1.388 . S
C1321 C1322 1.366 . S
C1322 C1321 1.366 . S
C1322 C1323 1.414 . S
C1322 C1325 1.499 . S
C1323 H1297 0.950 . S
C1323 C1322 1.414 . S
C1323 C1324 1.374 . S
C1324 H1298 0.950 . S
C1324 C1320 1.385 . S
C1324 C1323 1.374 . S
C1325 C1322 1.499 . S
C1325 C1326 1.373 . S
C1325 C1327 1.389 . S
C1326 H1299 0.950 . S
C1326 C1312 1.377 . S
C1326 C1325 1.373 . S
C1327 C1311 1.377 . S
C1327 C1325 1.389 . S
C1327 C1328 1.524 . S
C1328 C1327 1.524 . S
C1328 C1329 1.397 . S
C1328 C1333 1.363 . S
C1329 H1300 0.950 . S
C1329 C1328 1.397 . S
C1329 C1330 1.334 . S
C1330 H1301 0.950 . S
C1330 C1329 1.334 . S
C1330 C1331 1.287 . S
C1331 C1330 1.287 . S
C1331 C1332 1.524 . S
C1331 H1334 0.999 . S
C1332 H1302 0.950 . S
C1332 C1331 1.524 . S
C1332 C1333 1.415 . S
C1333 H1303 0.950 . S
C1333 C1328 1.363 . S
C1333 C1332 1.415 . S
H1334 C1331 0.999 . S
H1335 C1316 0.913 . S
H1336 C1354 0.951 . S
H1337 C1356 0.951 . S
H1338 C1358 0.950 . S
H1339 C1359 0.950 . S
H1340 C1361 0.950 . S
H1341 C1364 0.950 . S
H1342 C1365 0.950 . S
H1343 C1367 0.950 . S
H1344 C1368 0.950 . S
H1345 C1369 0.951 . S
H1346 C1371 0.951 . S
H1347 C1373 0.950 . S
H1348 C1374 0.950 . S
H1349 C1376 0.950 . S
H1350 C1379 0.950 . S
H1351 C1380 0.950 . S
H1352 C1382 0.950 . S
H1353 C1383 0.950 . S
C1354 H1336 0.951 . S
C1354 C1355 1.366 . S
C1354 C1356 1.388 . S
C1355 C1354 1.366 . S
C1355 C1359 1.385 . S
C1356 H1337 0.951 . S
C1356 C1354 1.388 . S
C1356 C1357 1.366 . S
C1357 C1356 1.366 . S
C1357 C1358 1.414 . S
C1357 C1360 1.499 . S
C1358 H1338 0.950 . S
C1358 C1357 1.414 . S
C1358 C1359 1.374 . S
C1359 H1339 0.950 . S
C1359 C1355 1.385 . S
C1359 C1358 1.374 . S
C1360 C1357 1.499 . S
C1360 C1361 1.373 . S
C1360 C1362 1.389 . S
C1361 H1340 0.950 . S
C1361 C1360 1.373 . S
C1361 C1377 1.377 . S
C1362 C1360 1.389 . S
C1362 C1363 1.524 . S
C1362 C1376 1.377 . S
C1363 C1362 1.524 . S
C1363 C1364 1.397 . S
C1363 C1368 1.363 . S
C1364 H1341 0.950 . S
C1364 C1363 1.397 . S
C1364 C1365 1.334 . S
C1365 H1342 0.950 . S
C1365 C1364 1.334 . S
C1365 C1366 1.287 . S
C1366 C1365 1.287 . S
C1366 C1367 1.524 . S
C1366 H1385 0.913 . S
C1367 H1343 0.950 . S
C1367 C1366 1.524 . S
C1367 C1368 1.415 . S
C1368 H1344 0.950 . S
C1368 C1363 1.363 . S
C1368 C1367 1.415 . S
C1369 H1345 0.951 . S
C1369 C1370 1.366 . S
C1369 C1371 1.388 . S
C1370 C1369 1.366 . S
C1370 C1374 1.385 . S
C1371 H1346 0.951 . S
C1371 C1369 1.388 . S
C1371 C1372 1.366 . S
C1372 C1371 1.366 . S
C1372 C1373 1.414 . S
C1372 C1375 1.499 . S
C1373 H1347 0.950 . S
C1373 C1372 1.414 . S
C1373 C1374 1.374 . S
C1374 H1348 0.950 . S
C1374 C1370 1.385 . S
C1374 C1373 1.374 . S
C1375 C1372 1.499 . S
C1375 C1376 1.373 . S
C1375 C1377 1.389 . S
C1376 H1349 0.950 . S
C1376 C1362 1.377 . S
C1376 C1375 1.373 . S
C1377 C1361 1.377 . S
C1377 C1375 1.389 . S
C1377 C1378 1.524 . S
C1378 C1377 1.524 . S
C1378 C1379 1.397 . S
C1378 C1383 1.363 . S
C1379 H1350 0.950 . S
C1379 C1378 1.397 . S
C1379 C1380 1.334 . S
C1380 H1351 0.950 . S
C1380 C1379 1.334 . S
C1380 C1381 1.287 . S
C1381 C1380 1.287 . S
C1381 C1382 1.524 . S
C1381 H1384 0.999 . S
C1382 H1352 0.950 . S
C1382 C1381 1.524 . S
C1382 C1383 1.415 . S
C1383 H1353 0.950 . S
C1383 C1378 1.363 . S
C1383 C1382 1.415 . S
H1384 C1381 0.999 . S
H1385 C1366 0.913 . S
H1386 C1404 0.951 . S
H1387 C1406 0.951 . S
H1388 C1408 0.950 . S
H1389 C1409 0.950 . S
H1390 C1411 0.950 . S
H1391 C1414 0.950 . S
H1392 C1415 0.950 . S
H1393 C1417 0.950 . S
H1394 C1418 0.950 . S
H1395 C1419 0.951 1_554 S
H1396 C1421 0.951 . S
H1397 C1423 0.950 . S
H1398 C1424 0.950 . S
H1399 C1426 0.950 . S
H1400 C1429 0.950 . S
H1401 C1430 0.950 . S
H1402 C1432 0.950 . S
H1403 C1433 0.950 . S
C1404 H1386 0.951 . S
C1404 C1405 1.366 . S
C1404 C1406 1.388 . S
C1405 C1404 1.366 . S
C1405 C1409 1.385 . S
C1406 H1387 0.951 . S
C1406 C1404 1.388 . S
C1406 C1407 1.366 . S
C1407 C1406 1.366 . S
C1407 C1408 1.414 . S
C1407 C1410 1.499 . S
C1408 H1388 0.950 . S
C1408 C1407 1.414 . S
C1408 C1409 1.374 . S
C1409 H1389 0.950 . S
C1409 C1405 1.385 . S
C1409 C1408 1.374 . S
C1410 C1407 1.499 . S
C1410 C1411 1.373 . S
C1410 C1412 1.389 . S
C1411 H1390 0.950 . S
C1411 C1410 1.373 . S
C1411 C1427 1.377 . S
C1412 C1410 1.389 . S
C1412 C1413 1.524 . S
C1412 C1426 1.377 . S
C1413 C1412 1.524 . S
C1413 C1414 1.397 . S
C1413 C1418 1.363 . S
C1414 H1391 0.950 . S
C1414 C1413 1.397 . S
C1414 C1415 1.334 . S
C1415 H1392 0.950 . S
C1415 C1414 1.334 . S
C1415 C1416 1.287 . S
C1416 C1415 1.287 . S
C1416 C1417 1.524 . S
C1416 H1435 0.913 . S
C1417 H1393 0.950 . S
C1417 C1416 1.524 . S
C1417 C1418 1.415 . S
C1418 H1394 0.950 . S
C1418 C1413 1.363 . S
C1418 C1417 1.415 . S
C1419 H1395 0.951 1_556 S
C1419 C1420 1.366 . S
C1419 C1421 1.388 . S
C1420 C1419 1.366 . S
C1420 C1424 1.385 . S
C1421 H1396 0.951 . S
C1421 C1419 1.388 . S
C1421 C1422 1.366 . S
C1422 C1421 1.366 . S
C1422 C1423 1.414 . S
C1422 C1425 1.499 . S
C1423 H1397 0.950 . S
C1423 C1422 1.414 . S
C1423 C1424 1.374 . S
C1424 H1398 0.950 . S
C1424 C1420 1.385 . S
C1424 C1423 1.374 . S
C1425 C1422 1.499 . S
C1425 C1426 1.373 . S
C1425 C1427 1.389 . S
C1426 H1399 0.950 . S
C1426 C1412 1.377 . S
C1426 C1425 1.373 . S
C1427 C1411 1.377 . S
C1427 C1425 1.389 . S
C1427 C1428 1.524 . S
C1428 C1427 1.524 . S
C1428 C1429 1.397 . S
C1428 C1433 1.363 . S
C1429 H1400 0.950 . S
C1429 C1428 1.397 . S
C1429 C1430 1.334 . S
C1430 H1401 0.950 . S
C1430 C1429 1.334 . S
C1430 C1431 1.287 . S
C1431 C1430 1.287 . S
C1431 C1432 1.524 . S
C1431 H1434 0.999 . S
C1432 H1402 0.950 . S
C1432 C1431 1.524 . S
C1432 C1433 1.415 . S
C1433 H1403 0.950 . S
C1433 C1428 1.363 . S
C1433 C1432 1.415 . S
H1434 C1431 0.999 . S
H1435 C1416 0.913 . S
H1436 C1454 0.951 . S
H1437 C1456 0.951 . S
H1438 C1458 0.950 . S
H1439 C1459 0.950 . S
H1440 C1461 0.950 . S
H1441 C1464 0.950 . S
H1442 C1465 0.950 . S
H1443 C1467 0.950 . S
H1444 C1468 0.950 . S
H1445 C1469 0.951 . S
H1446 C1471 0.951 . S
H1447 C1473 0.950 . S
H1448 C1474 0.950 . S
H1449 C1476 0.950 . S
H1450 C1479 0.950 . S
H1451 C1480 0.950 . S
H1452 C1482 0.950 . S
H1453 C1483 0.950 . S
C1454 H1436 0.951 . S
C1454 C1455 1.366 . S
C1454 C1456 1.388 . S
C1455 C1454 1.366 . S
C1455 C1459 1.385 . S
C1456 H1437 0.951 . S
C1456 C1454 1.388 . S
C1456 C1457 1.366 . S
C1457 C1456 1.366 . S
C1457 C1458 1.414 . S
C1457 C1460 1.499 . S
C1458 H1438 0.950 . S
C1458 C1457 1.414 . S
C1458 C1459 1.374 . S
C1459 H1439 0.950 . S
C1459 C1455 1.385 . S
C1459 C1458 1.374 . S
C1460 C1457 1.499 . S
C1460 C1461 1.373 . S
C1460 C1462 1.389 . S
C1461 H1440 0.950 . S
C1461 C1460 1.373 . S
C1461 C1477 1.377 . S
C1462 C1460 1.389 . S
C1462 C1463 1.524 . S
C1462 C1476 1.377 . S
C1463 C1462 1.524 . S
C1463 C1464 1.397 . S
C1463 C1468 1.363 . S
C1464 H1441 0.950 . S
C1464 C1463 1.397 . S
C1464 C1465 1.334 . S
C1465 H1442 0.950 . S
C1465 C1464 1.334 . S
C1465 C1466 1.287 . S
C1466 C1465 1.287 . S
C1466 C1467 1.524 . S
C1466 H1485 0.913 . S
C1467 H1443 0.950 . S
C1467 C1466 1.524 . S
C1467 C1468 1.415 . S
C1468 H1444 0.950 . S
C1468 C1463 1.363 . S
C1468 C1467 1.415 . S
C1469 H1445 0.951 . S
C1469 C1470 1.366 . S
C1469 C1471 1.388 . S
C1470 C1469 1.366 . S
C1470 C1474 1.385 . S
C1471 H1446 0.951 . S
C1471 C1469 1.388 . S
C1471 C1472 1.366 . S
C1472 C1471 1.366 . S
C1472 C1473 1.414 . S
C1472 C1475 1.499 . S
C1473 H1447 0.950 . S
C1473 C1472 1.414 . S
C1473 C1474 1.374 . S
C1474 H1448 0.950 . S
C1474 C1470 1.385 . S
C1474 C1473 1.374 . S
C1475 C1472 1.499 . S
C1475 C1476 1.373 . S
C1475 C1477 1.389 . S
C1476 H1449 0.950 . S
C1476 C1462 1.377 . S
C1476 C1475 1.373 . S
C1477 C1461 1.377 . S
C1477 C1475 1.389 . S
C1477 C1478 1.524 . S
C1478 C1477 1.524 . S
C1478 C1479 1.397 . S
C1478 C1483 1.363 . S
C1479 H1450 0.950 . S
C1479 C1478 1.397 . S
C1479 C1480 1.334 . S
C1480 H1451 0.950 . S
C1480 C1479 1.334 . S
C1480 C1481 1.287 . S
C1481 C1480 1.287 . S
C1481 C1482 1.524 . S
C1481 H1484 0.999 . S
C1482 H1452 0.950 . S
C1482 C1481 1.524 . S
C1482 C1483 1.415 . S
C1483 H1453 0.950 . S
C1483 C1478 1.363 . S
C1483 C1482 1.415 . S
H1484 C1481 0.999 . S
H1485 C1466 0.913 . S
H1486 C1504 0.951 . S
H1487 C1506 0.951 . S
H1488 C1508 0.950 . S
H1489 C1509 0.950 . S
H1490 C1511 0.950 . S
H1491 C1514 0.950 . S
H1492 C1515 0.950 . S
H1493 C1517 0.950 . S
H1494 C1518 0.950 . S
H1495 C1519 0.951 . S
H1496 C1521 0.951 . S
H1497 C1523 0.950 . S
H1498 C1524 0.950 . S
H1499 C1526 0.950 . S
H1500 C1529 0.950 . S
H1501 C1530 0.950 . S
H1502 C1532 0.950 . S
H1503 C1533 0.950 . S
C1504 H1486 0.951 . S
C1504 C1505 1.366 . S
C1504 C1506 1.388 . S
C1505 C1504 1.366 . S
C1505 C1509 1.385 . S
C1506 H1487 0.951 . S
C1506 C1504 1.388 . S
C1506 C1507 1.366 . S
C1507 C1506 1.366 . S
C1507 C1508 1.414 . S
C1507 C1510 1.499 . S
C1508 H1488 0.950 . S
C1508 C1507 1.414 . S
C1508 C1509 1.374 . S
C1509 H1489 0.950 . S
C1509 C1505 1.385 . S
C1509 C1508 1.374 . S
C1510 C1507 1.499 . S
C1510 C1511 1.373 . S
C1510 C1512 1.389 . S
C1511 H1490 0.950 . S
C1511 C1510 1.373 . S
C1511 C1527 1.377 . S
C1512 C1510 1.389 . S
C1512 C1513 1.524 . S
C1512 C1526 1.377 . S
C1513 C1512 1.524 . S
C1513 C1514 1.397 . S
C1513 C1518 1.363 . S
C1514 H1491 0.950 . S
C1514 C1513 1.397 . S
C1514 C1515 1.334 . S
C1515 H1492 0.950 . S
C1515 C1514 1.334 . S
C1515 C1516 1.287 . S
C1516 C1515 1.287 . S
C1516 C1517 1.524 . S
C1516 H1535 0.913 . S
C1517 H1493 0.950 . S
C1517 C1516 1.524 . S
C1517 C1518 1.415 . S
C1518 H1494 0.950 . S
C1518 C1513 1.363 . S
C1518 C1517 1.415 . S
C1519 H1495 0.951 . S
C1519 C1520 1.366 . S
C1519 C1521 1.388 . S
C1520 C1519 1.366 . S
C1520 C1524 1.385 . S
C1521 H1496 0.951 . S
C1521 C1519 1.388 . S
C1521 C1522 1.366 . S
C1522 C1521 1.366 . S
C1522 C1523 1.414 . S
C1522 C1525 1.499 . S
C1523 H1497 0.950 . S
C1523 C1522 1.414 . S
C1523 C1524 1.374 . S
C1524 H1498 0.950 . S
C1524 C1520 1.385 . S
C1524 C1523 1.374 . S
C1525 C1522 1.499 . S
C1525 C1526 1.373 . S
C1525 C1527 1.389 . S
C1526 H1499 0.950 . S
C1526 C1512 1.377 . S
C1526 C1525 1.373 . S
C1527 C1511 1.377 . S
C1527 C1525 1.389 . S
C1527 C1528 1.524 . S
C1528 C1527 1.524 . S
C1528 C1529 1.397 . S
C1528 C1533 1.363 . S
C1529 H1500 0.950 . S
C1529 C1528 1.397 . S
C1529 C1530 1.334 . S
C1530 H1501 0.950 . S
C1530 C1529 1.334 . S
C1530 C1531 1.287 . S
C1531 C1530 1.287 . S
C1531 C1532 1.524 . S
C1531 H1534 0.999 . S
C1532 H1502 0.950 . S
C1532 C1531 1.524 . S
C1532 C1533 1.415 . S
C1533 H1503 0.950 . S
C1533 C1528 1.363 . S
C1533 C1532 1.415 . S
H1534 C1531 0.999 . S
H1535 C1516 0.913 . S
H1536 C1554 0.951 . S
H1537 C1556 0.951 . S
H1538 C1558 0.950 . S
H1539 C1559 0.950 . S
H1540 C1561 0.950 . S
H1541 C1564 0.950 . S
H1542 C1565 0.950 . S
H1543 C1567 0.950 . S
H1544 C1568 0.950 . S
H1545 C1569 0.951 . S
H1546 C1571 0.951 . S
H1547 C1573 0.950 . S
H1548 C1574 0.950 . S
H1549 C1576 0.950 . S
H1550 C1579 0.950 . S
H1551 C1580 0.950 . S
H1552 C1582 0.950 . S
H1553 C1583 0.950 . S
C1554 H1536 0.951 . S
C1554 C1555 1.366 . S
C1554 C1556 1.388 . S
C1555 C1554 1.366 . S
C1555 C1559 1.385 . S
C1556 H1537 0.951 . S
C1556 C1554 1.388 . S
C1556 C1557 1.366 . S
C1557 C1556 1.366 . S
C1557 C1558 1.414 . S
C1557 C1560 1.499 . S
C1558 H1538 0.950 . S
C1558 C1557 1.414 . S
C1558 C1559 1.374 . S
C1559 H1539 0.950 . S
C1559 C1555 1.385 . S
C1559 C1558 1.374 . S
C1560 C1557 1.499 . S
C1560 C1561 1.373 . S
C1560 C1562 1.389 . S
C1561 H1540 0.950 . S
C1561 C1560 1.373 . S
C1561 C1577 1.377 . S
C1562 C1560 1.389 . S
C1562 C1563 1.524 . S
C1562 C1576 1.377 . S
C1563 C1562 1.524 . S
C1563 C1564 1.397 . S
C1563 C1568 1.363 . S
C1564 H1541 0.950 . S
C1564 C1563 1.397 . S
C1564 C1565 1.334 . S
C1565 H1542 0.950 . S
C1565 C1564 1.334 . S
C1565 C1566 1.287 . S
C1566 C1565 1.287 . S
C1566 C1567 1.524 . S
C1566 H1585 0.913 . S
C1567 H1543 0.950 . S
C1567 C1566 1.524 . S
C1567 C1568 1.415 . S
C1568 H1544 0.950 . S
C1568 C1563 1.363 . S
C1568 C1567 1.415 . S
C1569 H1545 0.951 . S
C1569 C1570 1.366 . S
C1569 C1571 1.388 . S
C1570 C1569 1.366 . S
C1570 C1574 1.385 . S
C1571 H1546 0.951 . S
C1571 C1569 1.388 . S
C1571 C1572 1.366 . S
C1572 C1571 1.366 . S
C1572 C1573 1.414 . S
C1572 C1575 1.499 . S
C1573 H1547 0.950 . S
C1573 C1572 1.414 . S
C1573 C1574 1.374 . S
C1574 H1548 0.950 . S
C1574 C1570 1.385 . S
C1574 C1573 1.374 . S
C1575 C1572 1.499 . S
C1575 C1576 1.373 . S
C1575 C1577 1.389 . S
C1576 H1549 0.950 . S
C1576 C1562 1.377 . S
C1576 C1575 1.373 . S
C1577 C1561 1.377 . S
C1577 C1575 1.389 . S
C1577 C1578 1.524 . S
C1578 C1577 1.524 . S
C1578 C1579 1.397 . S
C1578 C1583 1.363 . S
C1579 H1550 0.950 . S
C1579 C1578 1.397 . S
C1579 C1580 1.334 . S
C1580 H1551 0.950 . S
C1580 C1579 1.334 . S
C1580 C1581 1.287 . S
C1581 C1580 1.287 . S
C1581 C1582 1.524 . S
C1581 H1584 0.999 . S
C1582 H1552 0.950 . S
C1582 C1581 1.524 . S
C1582 C1583 1.415 . S
C1583 H1553 0.950 . S
C1583 C1578 1.363 . S
C1583 C1582 1.415 . S
H1584 C1581 0.999 . S
H1585 C1566 0.913 . S
H1586 C1604 0.951 . S
H1587 C1606 0.951 . S
H1588 C1608 0.950 . S
H1589 C1609 0.950 . S
H1590 C1611 0.950 . S
H1591 C1614 0.950 . S
H1592 C1615 0.950 . S
H1593 C1617 0.950 . S
H1594 C1618 0.950 . S
H1595 C1619 0.951 . S
H1596 C1621 0.951 . S
H1597 C1623 0.950 . S
H1598 C1624 0.950 . S
H1599 C1626 0.950 . S
H1600 C1629 0.950 . S
H1601 C1630 0.950 . S
H1602 C1632 0.950 . S
H1603 C1633 0.950 . S
C1604 H1586 0.951 . S
C1604 C1605 1.366 . S
C1604 C1606 1.388 . S
C1605 C1604 1.366 . S
C1605 C1609 1.385 . S
C1606 H1587 0.951 . S
C1606 C1604 1.388 . S
C1606 C1607 1.366 . S
C1607 C1606 1.366 . S
C1607 C1608 1.414 . S
C1607 C1610 1.499 . S
C1608 H1588 0.950 . S
C1608 C1607 1.414 . S
C1608 C1609 1.374 . S
C1609 H1589 0.950 . S
C1609 C1605 1.385 . S
C1609 C1608 1.374 . S
C1610 C1607 1.499 . S
C1610 C1611 1.373 . S
C1610 C1612 1.389 . S
C1611 H1590 0.950 . S
C1611 C1610 1.373 . S
C1611 C1627 1.377 . S
C1612 C1610 1.389 . S
C1612 C1613 1.524 . S
C1612 C1626 1.377 . S
C1613 C1612 1.524 . S
C1613 C1614 1.397 . S
C1613 C1618 1.363 . S
C1614 H1591 0.950 . S
C1614 C1613 1.397 . S
C1614 C1615 1.334 . S
C1615 H1592 0.950 . S
C1615 C1614 1.334 . S
C1615 C1616 1.287 . S
C1616 C1615 1.287 . S
C1616 C1617 1.524 . S
C1616 H1635 0.913 . S
C1617 H1593 0.950 . S
C1617 C1616 1.524 . S
C1617 C1618 1.415 . S
C1618 H1594 0.950 . S
C1618 C1613 1.363 . S
C1618 C1617 1.415 . S
C1619 H1595 0.951 . S
C1619 C1620 1.366 . S
C1619 C1621 1.388 . S
C1620 C1619 1.366 . S
C1620 C1624 1.385 . S
C1621 H1596 0.951 . S
C1621 C1619 1.388 . S
C1621 C1622 1.366 . S
C1622 C1621 1.366 . S
C1622 C1623 1.414 . S
C1622 C1625 1.499 . S
C1623 H1597 0.950 . S
C1623 C1622 1.414 . S
C1623 C1624 1.374 . S
C1624 H1598 0.950 . S
C1624 C1620 1.385 . S
C1624 C1623 1.374 . S
C1625 C1622 1.499 . S
C1625 C1626 1.373 . S
C1625 C1627 1.389 . S
C1626 H1599 0.950 . S
C1626 C1612 1.377 . S
C1626 C1625 1.373 . S
C1627 C1611 1.377 . S
C1627 C1625 1.389 . S
C1627 C1628 1.524 . S
C1628 C1627 1.524 . S
C1628 C1629 1.397 . S
C1628 C1633 1.363 . S
C1629 H1600 0.950 . S
C1629 C1628 1.397 . S
C1629 C1630 1.334 . S
C1630 H1601 0.950 . S
C1630 C1629 1.334 . S
C1630 C1631 1.287 . S
C1631 C1630 1.287 . S
C1631 C1632 1.524 . S
C1631 H1634 0.999 . S
C1632 H1602 0.950 . S
C1632 C1631 1.524 . S
C1632 C1633 1.415 . S
C1633 H1603 0.950 . S
C1633 C1628 1.363 . S
C1633 C1632 1.415 . S
H1634 C1631 0.999 . S
H1635 C1616 0.913 . S
H1636 C1654 0.951 . S
H1637 C1656 0.951 . S
H1638 C1658 0.950 . S
H1639 C1659 0.950 . S
H1640 C1661 0.950 . S
H1641 C1664 0.950 . S
H1642 C1665 0.950 . S
H1643 C1667 0.950 . S
H1644 C1668 0.950 . S
H1645 C1669 0.951 . S
H1646 C1671 0.951 . S
H1647 C1673 0.950 . S
H1648 C1674 0.950 . S
H1649 C1676 0.950 . S
H1650 C1679 0.950 . S
H1651 C1680 0.950 . S
H1652 C1682 0.950 . S
H1653 C1683 0.950 . S
C1654 H1636 0.951 . S
C1654 C1655 1.366 . S
C1654 C1656 1.388 . S
C1655 C1654 1.366 . S
C1655 C1659 1.385 . S
C1656 H1637 0.951 . S
C1656 C1654 1.388 . S
C1656 C1657 1.366 . S
C1657 C1656 1.366 . S
C1657 C1658 1.414 . S
C1657 C1660 1.499 . S
C1658 H1638 0.950 . S
C1658 C1657 1.414 . S
C1658 C1659 1.374 . S
C1659 H1639 0.950 . S
C1659 C1655 1.385 . S
C1659 C1658 1.374 . S
C1660 C1657 1.499 . S
C1660 C1661 1.373 . S
C1660 C1662 1.389 . S
C1661 H1640 0.950 . S
C1661 C1660 1.373 . S
C1661 C1677 1.377 . S
C1662 C1660 1.389 . S
C1662 C1663 1.524 . S
C1662 C1676 1.377 . S
C1663 C1662 1.524 . S
C1663 C1664 1.397 . S
C1663 C1668 1.363 . S
C1664 H1641 0.950 . S
C1664 C1663 1.397 . S
C1664 C1665 1.334 . S
C1665 H1642 0.950 . S
C1665 C1664 1.334 . S
C1665 C1666 1.287 . S
C1666 C1665 1.287 . S
C1666 C1667 1.524 . S
C1666 H1685 0.913 . S
C1667 H1643 0.950 . S
C1667 C1666 1.524 . S
C1667 C1668 1.415 . S
C1668 H1644 0.950 . S
C1668 C1663 1.363 . S
C1668 C1667 1.415 . S
C1669 H1645 0.951 . S
C1669 C1670 1.366 . S
C1669 C1671 1.388 . S
C1670 C1669 1.366 . S
C1670 C1674 1.385 . S
C1671 H1646 0.951 . S
C1671 C1669 1.388 . S
C1671 C1672 1.366 . S
C1672 C1671 1.366 . S
C1672 C1673 1.414 . S
C1672 C1675 1.499 . S
C1673 H1647 0.950 . S
C1673 C1672 1.414 . S
C1673 C1674 1.374 . S
C1674 H1648 0.950 . S
C1674 C1670 1.385 . S
C1674 C1673 1.374 . S
C1675 C1672 1.499 . S
C1675 C1676 1.373 . S
C1675 C1677 1.389 . S
C1676 H1649 0.950 . S
C1676 C1662 1.377 . S
C1676 C1675 1.373 . S
C1677 C1661 1.377 . S
C1677 C1675 1.389 . S
C1677 C1678 1.524 . S
C1678 C1677 1.524 . S
C1678 C1679 1.397 . S
C1678 C1683 1.363 . S
C1679 H1650 0.950 . S
C1679 C1678 1.397 . S
C1679 C1680 1.334 . S
C1680 H1651 0.950 . S
C1680 C1679 1.334 . S
C1680 C1681 1.287 . S
C1681 C1680 1.287 . S
C1681 C1682 1.524 . S
C1681 H1684 0.999 . S
C1682 H1652 0.950 . S
C1682 C1681 1.524 . S
C1682 C1683 1.415 . S
C1683 H1653 0.950 . S
C1683 C1678 1.363 . S
C1683 C1682 1.415 . S
H1684 C1681 0.999 . S
H1685 C1666 0.913 . S
H1686 C1704 0.951 . S
H1687 C1706 0.951 . S
H1688 C1708 0.950 . S
H1689 C1709 0.950 . S
H1690 C1711 0.950 . S
H1691 C1714 0.950 . S
H1692 C1715 0.950 . S
H1693 C1717 0.950 . S
H1694 C1718 0.950 . S
H1695 C1719 0.951 . S
H1696 C1721 0.951 . S
H1697 C1723 0.950 . S
H1698 C1724 0.950 . S
H1699 C1726 0.950 . S
H1700 C1729 0.950 . S
H1701 C1730 0.950 . S
H1702 C1732 0.950 . S
H1703 C1733 0.950 . S
C1704 H1686 0.951 . S
C1704 C1705 1.366 . S
C1704 C1706 1.388 . S
C1705 C1704 1.366 . S
C1705 C1709 1.385 . S
C1706 H1687 0.951 . S
C1706 C1704 1.388 . S
C1706 C1707 1.366 . S
C1707 C1706 1.366 . S
C1707 C1708 1.414 . S
C1707 C1710 1.499 . S
C1708 H1688 0.950 . S
C1708 C1707 1.414 . S
C1708 C1709 1.374 . S
C1709 H1689 0.950 . S
C1709 C1705 1.385 . S
C1709 C1708 1.374 . S
C1710 C1707 1.499 . S
C1710 C1711 1.373 . S
C1710 C1712 1.389 . S
C1711 H1690 0.950 . S
C1711 C1710 1.373 . S
C1711 C1727 1.377 . S
C1712 C1710 1.389 . S
C1712 C1713 1.524 . S
C1712 C1726 1.377 . S
C1713 C1712 1.524 . S
C1713 C1714 1.397 . S
C1713 C1718 1.363 . S
C1714 H1691 0.950 . S
C1714 C1713 1.397 . S
C1714 C1715 1.334 . S
C1715 H1692 0.950 . S
C1715 C1714 1.334 . S
C1715 C1716 1.287 . S
C1716 C1715 1.287 . S
C1716 C1717 1.524 . S
C1716 H1735 0.913 . S
C1717 H1693 0.950 . S
C1717 C1716 1.524 . S
C1717 C1718 1.415 . S
C1718 H1694 0.950 . S
C1718 C1713 1.363 . S
C1718 C1717 1.415 . S
C1719 H1695 0.951 . S
C1719 C1720 1.366 . S
C1719 C1721 1.388 . S
C1720 C1719 1.366 . S
C1720 C1724 1.385 . S
C1721 H1696 0.951 . S
C1721 C1719 1.388 . S
C1721 C1722 1.366 . S
C1722 C1721 1.366 . S
C1722 C1723 1.414 . S
C1722 C1725 1.499 . S
C1723 H1697 0.950 . S
C1723 C1722 1.414 . S
C1723 C1724 1.374 . S
C1724 H1698 0.950 . S
C1724 C1720 1.385 . S
C1724 C1723 1.374 . S
C1725 C1722 1.499 . S
C1725 C1726 1.373 . S
C1725 C1727 1.389 . S
C1726 H1699 0.950 . S
C1726 C1712 1.377 . S
C1726 C1725 1.373 . S
C1727 C1711 1.377 . S
C1727 C1725 1.389 . S
C1727 C1728 1.524 . S
C1728 C1727 1.524 . S
C1728 C1729 1.397 . S
C1728 C1733 1.363 . S
C1729 H1700 0.950 . S
C1729 C1728 1.397 . S
C1729 C1730 1.334 . S
C1730 H1701 0.950 . S
C1730 C1729 1.334 . S
C1730 C1731 1.287 . S
C1731 C1730 1.287 . S
C1731 C1732 1.524 . S
C1731 H1734 0.999 . S
C1732 H1702 0.950 . S
C1732 C1731 1.524 . S
C1732 C1733 1.415 . S
C1733 H1703 0.950 . S
C1733 C1728 1.363 . S
C1733 C1732 1.415 . S
H1734 C1731 0.999 . S
H1735 C1716 0.913 . S
H1736 C1754 0.951 . S
H1737 C1756 0.951 . S
H1738 C1758 0.950 . S
H1739 C1759 0.950 . S
H1740 C1761 0.950 . S
H1741 C1764 0.950 . S
H1742 C1765 0.950 . S
H1743 C1767 0.950 . S
H1744 C1768 0.950 . S
H1745 C1769 0.951 1_556 S
H1746 C1771 0.951 . S
H1747 C1773 0.950 . S
H1748 C1774 0.950 . S
H1749 C1776 0.950 . S
H1750 C1779 0.950 . S
H1751 C1780 0.950 . S
H1752 C1782 0.950 . S
H1753 C1783 0.950 . S
C1754 H1736 0.951 . S
C1754 C1755 1.366 . S
C1754 C1756 1.388 . S
C1755 C1754 1.366 . S
C1755 C1759 1.385 . S
C1756 H1737 0.951 . S
C1756 C1754 1.388 . S
C1756 C1757 1.366 . S
C1757 C1756 1.366 . S
C1757 C1758 1.414 . S
C1757 C1760 1.499 . S
C1758 H1738 0.950 . S
C1758 C1757 1.414 . S
C1758 C1759 1.374 . S
C1759 H1739 0.950 . S
C1759 C1755 1.385 . S
C1759 C1758 1.374 . S
C1760 C1757 1.499 . S
C1760 C1761 1.373 . S
C1760 C1762 1.389 . S
C1761 H1740 0.950 . S
C1761 C1760 1.373 . S
C1761 C1777 1.377 . S
C1762 C1760 1.389 . S
C1762 C1763 1.524 . S
C1762 C1776 1.377 . S
C1763 C1762 1.524 . S
C1763 C1764 1.397 . S
C1763 C1768 1.363 . S
C1764 H1741 0.950 . S
C1764 C1763 1.397 . S
C1764 C1765 1.334 . S
C1765 H1742 0.950 . S
C1765 C1764 1.334 . S
C1765 C1766 1.287 . S
C1766 C1765 1.287 . S
C1766 C1767 1.524 . S
C1766 H1785 0.913 . S
C1767 H1743 0.950 . S
C1767 C1766 1.524 . S
C1767 C1768 1.415 . S
C1768 H1744 0.950 . S
C1768 C1763 1.363 . S
C1768 C1767 1.415 . S
C1769 H1745 0.951 1_554 S
C1769 C1770 1.368 . S
C1769 C1771 1.388 . S
C1770 C1769 1.368 . S
C1770 C1774 1.395 . S
C1771 H1746 0.951 . S
C1771 C1769 1.388 . S
C1771 C1772 1.366 . S
C1772 C1771 1.366 . S
C1772 C1773 1.414 . S
C1772 C1775 1.499 . S
C1773 H1747 0.950 . S
C1773 C1772 1.414 . S
C1773 C1774 1.374 . S
C1774 H1748 0.950 . S
C1774 C1770 1.395 . S
C1774 C1773 1.374 . S
C1775 C1772 1.499 . S
C1775 C1776 1.373 . S
C1775 C1777 1.389 . S
C1776 H1749 0.950 . S
C1776 C1762 1.377 . S
C1776 C1775 1.373 . S
C1777 C1761 1.377 . S
C1777 C1775 1.389 . S
C1777 C1778 1.524 . S
C1778 C1777 1.524 . S
C1778 C1779 1.397 . S
C1778 C1783 1.363 . S
C1779 H1750 0.950 . S
C1779 C1778 1.397 . S
C1779 C1780 1.334 1_554 S
C1780 H1751 0.950 . S
C1780 C1779 1.334 1_556 S
C1780 C1781 1.287 . S
C1781 C1780 1.287 . S
C1781 C1782 1.524 . S
C1781 H1784 0.999 . S
C1782 H1752 0.950 . S
C1782 C1781 1.524 . S
C1782 C1783 1.415 1_556 S
C1783 H1753 0.950 . S
C1783 C1778 1.363 . S
C1783 C1782 1.415 1_554 S
H1784 C1781 0.999 . S
H1785 C1766 0.913 . S
H1786 C1804 0.951 . S
H1787 C1806 0.951 . S
H1788 C1808 0.950 . S
H1789 C1809 0.950 . S
H1790 C1811 0.950 . S
H1791 C1814 0.950 . S
H1792 C1815 0.950 . S
H1793 C1817 0.950 . S
H1794 C1818 0.950 . S
H1795 C1819 0.951 . S
H1796 C1821 0.951 . S
H1797 C1823 0.950 . S
H1798 C1824 0.950 . S
H1799 C1826 0.950 . S
H1800 C1829 0.950 . S
H1801 C1830 0.950 . S
H1802 C1832 0.950 . S
H1803 C1833 0.950 . S
C1804 H1786 0.951 . S
C1804 C1805 1.366 . S
C1804 C1806 1.388 . S
C1805 C1804 1.366 . S
C1805 C1809 1.385 . S
C1806 H1787 0.951 . S
C1806 C1804 1.388 . S
C1806 C1807 1.366 . S
C1807 C1806 1.366 . S
C1807 C1808 1.414 . S
C1807 C1810 1.499 . S
C1808 H1788 0.950 . S
C1808 C1807 1.414 . S
C1808 C1809 1.374 . S
C1809 H1789 0.950 . S
C1809 C1805 1.385 . S
C1809 C1808 1.374 . S
C1810 C1807 1.499 . S
C1810 C1811 1.373 . S
C1810 C1812 1.389 . S
C1811 H1790 0.950 . S
C1811 C1810 1.373 . S
C1811 C1827 1.377 . S
C1812 C1810 1.389 . S
C1812 C1813 1.524 . S
C1812 C1826 1.377 . S
C1813 C1812 1.524 . S
C1813 C1814 1.397 . S
C1813 C1818 1.363 . S
C1814 H1791 0.950 . S
C1814 C1813 1.397 . S
C1814 C1815 1.334 . S
C1815 H1792 0.950 . S
C1815 C1814 1.334 . S
C1815 C1816 1.287 . S
C1816 C1815 1.287 . S
C1816 C1817 1.524 . S
C1816 H1835 0.913 . S
C1817 H1793 0.950 . S
C1817 C1816 1.524 . S
C1817 C1818 1.415 . S
C1818 H1794 0.950 . S
C1818 C1813 1.363 . S
C1818 C1817 1.415 . S
C1819 H1795 0.951 . S
C1819 C1820 1.366 . S
C1819 C1821 1.388 . S
C1820 C1819 1.366 . S
C1820 C1824 1.385 . S
C1821 H1796 0.951 . S
C1821 C1819 1.388 . S
C1821 C1822 1.366 . S
C1822 C1821 1.366 . S
C1822 C1823 1.414 . S
C1822 C1825 1.499 . S
C1823 H1797 0.950 . S
C1823 C1822 1.414 . S
C1823 C1824 1.374 . S
C1824 H1798 0.950 . S
C1824 C1820 1.385 . S
C1824 C1823 1.374 . S
C1825 C1822 1.499 . S
C1825 C1826 1.373 . S
C1825 C1827 1.389 . S
C1826 H1799 0.950 . S
C1826 C1812 1.377 . S
C1826 C1825 1.373 . S
C1827 C1811 1.377 . S
C1827 C1825 1.389 . S
C1827 C1828 1.524 . S
C1828 C1827 1.524 . S
C1828 C1829 1.397 . S
C1828 C1833 1.363 . S
C1829 H1800 0.950 . S
C1829 C1828 1.397 . S
C1829 C1830 1.334 . S
C1830 H1801 0.950 . S
C1830 C1829 1.334 . S
C1830 C1831 1.287 . S
C1831 C1830 1.287 . S
C1831 C1832 1.524 . S
C1831 H1834 0.999 . S
C1832 H1802 0.950 . S
C1832 C1831 1.524 . S
C1832 C1833 1.415 . S
C1833 H1803 0.950 . S
C1833 C1828 1.363 . S
C1833 C1832 1.415 . S
H1834 C1831 0.999 . S
H1835 C1816 0.913 . S
C670 C577 1.555 . S
C655 C8 1.516 . S
C705 C26 1.518 . S
C720 C137 1.557 . S
C755 C50 1.523 . S
C770 C225 1.567 . S
C805 C68 1.515 . S
C820 C304 1.559 . S
C870 C401 1.555 . S
C855 C80 1.517 . S
C905 C104 1.517 . S
C920 C480 1.560 . S
C955 C32 1.523 . S
C970 C245 1.567 . S
C1005 C44 1.518 . S
C1020 C341 1.556 . S
C1055 C62 1.516 . S
C1070 C421 1.555 . S
C1120 C517 1.560 . S
C1105 C86 1.516 1_554 S
C1170 C597 1.554 . S
C1155 C98 1.516 . S
C1220 C157 1.559 . S
C1205 C14 1.516 . S
C1255 C7 1.462 . S
C1270 C253 1.518 . S
C1305 C25 1.459 . S
C1320 C333 1.515 . S
C1370 C429 1.512 . S
C1355 C52 1.458 . S
C1405 C70 1.463 . S
C1420 C509 1.518 1_556 S
C1470 C605 1.514 . S
C1455 C79 1.459 . S
C1520 C165 1.513 . S
C1505 C106 1.459 . S
C1570 C568 1.512 . S
C1555 C34 1.457 . S
C1605 C43 1.459 . S
C1620 C128 1.516 . S
C1670 C216 1.518 . S
C1655 C61 1.462 . S
C1705 C88 1.459 . S
C1720 C313 1.513 . S
C1755 C97 1.458 . S
C1770 C392 1.501 1_554 S
C1805 C16 1.463 . S
C1820 C489 1.518 . S
