# Generated by pormake.
# Topology anh, (6,3)-cn, num edge types: 1
# Building blocks:
#     Node 0, Type 0, BuildingBlock: BETGAK_clean_sbu_0, # of connection points: 6
#     Node 1, Type 0, BuildingBlock: BETGAK_clean_sbu_0, # of connection points: 6
#     Node 2, Type 0, BuildingBlock: BETGAK_clean_sbu_0, # of connection points: 6
#     Node 3, Type 1, BuildingBlock: ESEHIV_clean_linker_0, # of connection points: 3
#     Node 4, Type 1, BuildingBlock: ESEHIV_clean_linker_0, # of connection points: 3
#     Node 5, Type 1, BuildingBlock: ESEHIV_clean_linker_0, # of connection points: 3
#     Node 6, Type 1, BuildingBlock: ESEHIV_clean_linker_0, # of connection points: 3
#     Node 7, Type 1, BuildingBlock: ESEHIV_clean_linker_0, # of connection points: 3
#     Node 8, Type 1, BuildingBlock: ESEHIV_clean_linker_0, # of connection points: 3
#     Edge 9, Type (0, 1), BuildingBlock: UVAHIK_clean_linker_0, # of connection points: 2
#     Edge 10, Type (0, 1), BuildingBlock: UVAHIK_clean_linker_0, # of connection points: 2
#     Edge 11, Type (0, 1), BuildingBlock: UVAHIK_clean_linker_0, # of connection points: 2
#     Edge 12, Type (0, 1), BuildingBlock: UVAHIK_clean_linker_0, # of connection points: 2
#     Edge 13, Type (0, 1), BuildingBlock: UVAHIK_clean_linker_0, # of connection points: 2
#     Edge 14, Type (0, 1), BuildingBlock: UVAHIK_clean_linker_0, # of connection points: 2
#     Edge 15, Type (0, 1), BuildingBlock: UVAHIK_clean_linker_0, # of connection points: 2
#     Edge 16, Type (0, 1), BuildingBlock: UVAHIK_clean_linker_0, # of connection points: 2
#     Edge 17, Type (0, 1), BuildingBlock: UVAHIK_clean_linker_0, # of connection points: 2
#     Edge 18, Type (0, 1), BuildingBlock: UVAHIK_clean_linker_0, # of connection points: 2
#     Edge 19, Type (0, 1), BuildingBlock: UVAHIK_clean_linker_0, # of connection points: 2
#     Edge 20, Type (0, 1), BuildingBlock: UVAHIK_clean_linker_0, # of connection points: 2
#     Edge 21, Type (0, 1), BuildingBlock: UVAHIK_clean_linker_0, # of connection points: 2
#     Edge 22, Type (0, 1), BuildingBlock: UVAHIK_clean_linker_0, # of connection points: 2
#     Edge 23, Type (0, 1), BuildingBlock: UVAHIK_clean_linker_0, # of connection points: 2
#     Edge 24, Type (0, 1), BuildingBlock: UVAHIK_clean_linker_0, # of connection points: 2
#     Edge 25, Type (0, 1), BuildingBlock: UVAHIK_clean_linker_0, # of connection points: 2
#     Edge 26, Type (0, 1), BuildingBlock: UVAHIK_clean_linker_0, # of connection points: 2
# Relax obj value: 0.183
# Max RMSD: 0.207
# Mean RMSD: 0.155
data_MOF--net-anh--node1-BETGAK_clean_sbu_0--node2-ESEHIV_clean_linker_0--edge1-UVAHIK_clean_linker_0
_symmetry_space_group_name_H-M    P1
_symmetry_Int_Tables_number       1
_symmetry_cell_setting            triclinic
loop_
_symmetry_equiv_pos_as_xyz
'x, y, z'
_cell_length_a     36.671381
_cell_length_b     43.850446
_cell_length_c     67.142996
_cell_angle_alpha  92.303097
_cell_angle_beta   89.761398
_cell_angle_gamma 128.01687
loop_
_atom_site_label
_atom_site_type_symbol
_atom_site_fract_x
_atom_site_fract_y
_atom_site_fract_z
_atom_type_partial_charge
La0 La 0.1147 0.52275 0.14592 0.0
La1 La 1.06027 0.5476 0.16268 0.0
C2 C 0.16928 0.51903 0.12547 0.0
C3 C 0.21947 0.54105 0.12782 0.0
C4 C 0.24147 0.55887 0.14642 0.0
C5 C 0.28839 0.57658 0.1493 0.0
C6 C 0.31409 0.57733 0.13352 0.0
C7 C 0.29262 0.56171 0.11458 0.0
C8 C 0.24548 0.5435 0.11178 0.0
C9 C 0.11026 0.52298 0.18495 0.0
C10 C 0.16375 0.61361 0.15564 0.0
C11 C 1.00624 0.55204 0.18345 0.0
C12 C 0.95972 0.52206 0.19069 0.0
C13 C 0.93036 0.48629 0.18005 0.0
C14 C 0.88641 0.4575 0.18691 0.0
C15 C 0.87058 0.4641 0.20439 0.0
C16 C 0.90017 0.49982 0.21519 0.0
C17 C 0.94468 0.52852 0.20845 0.0
C18 C 1.06653 0.54727 0.12355 0.0
C19 C 1.01272 0.45762 0.1542 0.0
O20 O 0.14505 0.49583 0.13985 0.0
O21 O 0.15555 0.53914 0.12054 0.0
O22 O 0.11362 0.49956 0.17435 0.0
O23 O 0.11409 0.54724 0.17391 0.0
O24 O 0.16513 0.58672 0.14676 0.0
O25 O 0.12669 0.60452 0.16499 0.0
O26 O 1.00937 0.55544 0.16412 0.0
O27 O 1.03927 0.5524 0.19103 0.0
O28 O 1.06608 0.57259 0.13397 0.0
O29 O 1.0608 0.52262 0.13485 0.0
O30 O 1.01489 0.48436 0.16532 0.0
O31 O 1.04608 0.46738 0.1418 0.0
H32 H 0.22193 0.55778 0.15891 0.0
H33 H 0.30421 0.58842 0.16401 0.0
H34 H 0.31162 0.56149 0.10225 0.0
H35 H 0.22905 0.53021 0.09731 0.0
H36 H 0.94104 0.48075 0.16622 0.0
H37 H 0.86403 0.43067 0.17799 0.0
H38 H 0.88858 0.50571 0.22862 0.0
H39 H 0.96706 0.55591 0.21692 0.0
La40 La 0.6226 0.01972 0.48235 0.0
La41 La 0.55937 0.03888 0.47242 0.0
C42 C 0.65846 0.9924 0.49823 0.0
C43 C 0.64528 0.95386 0.50209 0.0
C44 C 0.63081 0.92577 0.48659 0.0
C45 C 0.6212 0.8904 0.49054 0.0
C46 C 0.62546 0.8823 0.51007 0.0
C47 C 0.63892 0.91011 0.52559 0.0
C48 C 0.6489 0.94556 0.52162 0.0
C49 C 0.61809 0.03023 0.44446 0.0
C50 C 0.5142 0.95201 0.47315 0.0
C51 C 0.52454 0.06884 0.45893 0.0
C52 C 0.53492 0.1065 0.46384 0.0
C53 C 0.56246 0.12868 0.48076 0.0
C54 C 0.57148 0.16394 0.48594 0.0
C55 C 0.55343 0.17799 0.47423 0.0
C56 C 0.52634 0.15584 0.45708 0.0
C57 C 0.51715 0.12036 0.45195 0.0
C58 C 0.56585 0.02984 0.5104 0.0
C59 C 0.66886 0.10699 0.47974 0.0
O60 O 0.66411 1.00205 0.47964 0.0
O61 O 0.63671 1.00279 0.50825 0.0
O62 O 0.655 0.03929 0.45346 0.0
O63 O 0.58475 0.01327 0.45615 0.0
O64 O 0.55275 0.96311 0.48248 0.0
O65 O 0.51182 0.97737 0.46455 0.0
O66 O 0.50677 0.04472 0.47336 0.0
O67 O 0.55747 0.0703 0.45013 0.0
O68 O 0.52844 0.02014 0.50174 0.0
O69 O 0.5982 0.0464 0.49831 0.0
O70 O 0.6284 0.09554 0.47254 0.0
O71 O 0.67394 0.08219 0.48703 0.0
H72 H 0.62739 0.93121 0.47138 0.0
H73 H 0.61042 0.86937 0.47832 0.0
H74 H 0.64297 0.90489 0.54076 0.0
H75 H 0.66013 0.9668 0.53379 0.0
H76 H 0.57649 0.11843 0.49015 0.0
H77 H 0.59177 0.17971 0.49942 0.0
H78 H 0.51238 0.16596 0.44757 0.0
H79 H 0.49602 0.10368 0.43877 0.0
La80 La 0.63404 0.56503 0.84506 0.0
La81 La 0.56946 0.47902 0.8477 0.0
C82 C 0.67406 0.63406 0.83606 0.0
C83 C 0.66062 0.65813 0.8302 0.0
C84 C 0.66689 0.68623 0.84385 0.0
C85 C 0.65607 0.71026 0.83836 0.0
C86 C 0.63921 0.70699 0.81901 0.0
C87 C 0.63268 0.67874 0.80536 0.0
C88 C 0.64323 0.65453 0.81089 0.0
C89 C 0.62368 0.53916 0.8809 0.0
C90 C 0.52481 0.52043 0.84863 0.0
C91 C 0.52973 0.40995 0.85678 0.0
C92 C 0.53815 0.38185 0.85194 0.0
C93 C 0.50618 0.34329 0.85719 0.0
C94 C 0.51339 0.31619 0.85191 0.0
C95 C 0.55301 0.32736 0.84144 0.0
C96 C 0.58525 0.36636 0.83653 0.0
C97 C 0.57754 0.39313 0.8415 0.0
C98 C 0.58026 0.50325 0.81126 0.0
C99 C 0.68023 0.52456 0.84516 0.0
O100 O 0.66546 0.6227 0.85438 0.0
O101 O 0.66472 0.60657 0.82329 0.0
O102 O 0.66267 0.56915 0.87455 0.0
O103 O 0.59249 0.52621 0.86778 0.0
O104 O 0.56458 0.5503 0.84145 0.0
O105 O 0.52116 0.49074 0.85543 0.0
O106 O 0.51696 0.41958 0.84168 0.0
O107 O 0.56149 0.44024 0.86804 0.0
O108 O 0.5424 0.47246 0.8177 0.0
O109 O 0.61141 0.51758 0.82463 0.0
O110 O 0.63839 0.49232 0.84887 0.0
O111 O 0.68659 0.55684 0.84117 0.0
H112 H 0.68072 0.68995 0.85876 0.0
H113 H 0.66204 0.73209 0.84912 0.0
H114 H 0.61934 0.67533 0.7904 0.0
H115 H 0.63811 0.63327 0.79996 0.0
H116 H 0.47531 0.33401 0.8651 0.0
H117 H 0.48738 0.28636 0.85566 0.0
H118 H 0.61656 0.37637 0.82881 0.0
H119 H 0.60217 0.42258 0.83698 0.0
H120 H 0.53248 0.97721 0.22727 0.0
H121 H 0.6534 0.09651 0.23 0.0
H122 H 0.59082 0.03734 0.17304 0.0
C123 C 0.55855 1.00346 0.21982 0.0
C124 C 0.55746 1.00334 0.19891 0.0
C125 C 0.59331 0.03678 0.23115 0.0
C126 C 0.62687 0.07043 0.22131 0.0
C127 C 0.62623 0.07114 0.2004 0.0
C128 C 0.59191 0.03711 0.18916 0.0
H129 H 0.61212 0.58237 0.60002 0.0
H130 H 0.6143 0.4858 0.59318 0.0
H131 H 0.59891 0.53207 0.54138 0.0
C132 C 0.6106 0.56112 0.59041 0.0
C133 C 0.60495 0.56059 0.56965 0.0
C134 C 0.61356 0.53407 0.59898 0.0
C135 C 0.61208 0.5068 0.58659 0.0
C136 C 0.60728 0.50614 0.5658 0.0
C137 C 0.60333 0.5329 0.5574 0.0
H138 H 1.04688 0.53406 0.90494 0.0
H139 H 0.15931 0.52839 0.90983 0.0
H140 H 0.10608 0.5245 0.8518 0.0
C141 C 0.07201 0.53192 0.89796 0.0
C142 C 0.07252 0.52927 0.8771 0.0
C143 C 0.10313 0.53173 0.9099 0.0
C144 C 0.13558 0.52911 0.90068 0.0
C145 C 0.13733 0.52663 0.87978 0.0
C146 C 0.10568 0.52697 0.8679 0.0
H147 H 1.02249 0.46391 0.40137 0.0
H148 H 0.14364 0.58316 0.40156 0.0
H149 H 0.08795 0.52768 0.45709 0.0
C150 C 1.04999 0.49051 0.40944 0.0
C151 C 1.05148 0.49182 0.43039 0.0
C152 C 0.08316 0.52323 0.39889 0.0
C153 C 0.11764 0.55772 0.40956 0.0
C154 C 0.11965 0.55971 0.4305 0.0
C155 C 0.08697 0.52635 0.44093 0.0
H156 H 0.59449 0.06825 0.72752 0.0
H157 H 0.58498 0.9658 0.72276 0.0
H158 H 0.59497 0.01645 0.7807 0.0
C159 C 0.59389 0.04627 0.73473 0.0
C160 C 0.59515 0.04611 0.75567 0.0
C161 C 0.5901 0.01736 0.72288 0.0
C162 C 0.58725 0.98782 0.73198 0.0
C163 C 0.58921 0.9874 0.75284 0.0
C164 C 0.59334 0.0167 0.7646 0.0
H165 H 0.52331 0.43366 0.06886 0.0
H166 H 0.55243 0.35455 0.07906 0.0
H167 H 0.52925 0.40589 0.12872 0.0
C168 C 0.52676 0.417 0.0791 0.0
C169 C 0.52403 0.4219 0.09964 0.0
C170 C 0.53709 0.39291 0.07163 0.0
C171 C 0.54396 0.37285 0.08488 0.0
C172 C 0.54033 0.37676 0.10558 0.0
C173 C 0.53054 0.40154 0.1128 0.0
C174 C 0.36598 0.56939 0.152 0.0
C175 C 0.36046 0.58825 0.13735 0.0
C176 C 0.40462 0.57028 0.15213 0.0
C177 C 0.48449 0.5682 0.14859 0.0
H178 H 0.49736 0.54895 0.09316 0.0
C179 C 0.54515 0.47769 0.12251 0.0
C180 C 0.51683 0.45002 0.10708 0.0
C181 C 0.5408 0.5064 0.12811 0.0
C182 C 0.49437 0.55441 0.10873 0.0
H183 H 0.39353 0.6273 0.11321 0.0
H184 H 0.46248 0.63061 0.114 0.0
H185 H 0.4675 0.58378 0.10127 0.0
H186 H 0.46057 0.42954 0.08607 0.0
H187 H 0.45251 0.47899 0.09594 0.0
H188 H 0.50737 0.53512 0.15571 0.0
C189 C 0.43606 0.61361 0.12484 0.0
C190 C 0.47795 0.5751 0.11348 0.0
C191 C 0.3968 0.61198 0.12442 0.0
C192 C 0.48333 0.45088 0.09778 0.0
C193 C 0.47901 0.4794 0.10334 0.0
C194 C 0.50041 0.54695 0.14379 0.0
C195 C 0.4388 0.59046 0.13772 0.0
C196 C 0.47013 0.58029 0.13343 0.0
C197 C 0.50819 0.50788 0.1183 0.0
C198 C 0.50285 0.53799 0.12375 0.0
H199 H 0.33835 0.55082 0.16213 0.0
H200 H 0.405 0.55191 0.16228 0.0
H201 H 0.48033 0.57271 0.16415 0.0
H202 H 0.57157 0.47787 0.1298 0.0
H203 H 0.56357 0.52789 0.13975 0.0
C204 C 0.75418 0.1622 0.48429 0.0
C205 C 0.70916 0.14866 0.4791 0.0
C206 C 0.79235 0.201 0.48181 0.0
C207 C 0.82715 0.28198 0.45114 0.0
H208 H 0.92987 0.34631 0.48904 0.0
C209 C 0.96801 0.44177 0.43714 0.0
C210 C 1.01417 0.45707 0.44078 0.0
C211 C 0.93179 0.40593 0.44426 0.0
C212 C 0.90165 0.32859 0.47822 0.0
H213 H 0.66891 0.16592 0.46816 0.0
H214 H 0.73506 0.23304 0.46392 0.0
H215 H 0.8649 0.27987 0.49696 0.0
H216 H 1.05903 0.44792 0.4553 0.0
H217 H 0.99547 0.38445 0.4675 0.0
H218 H 0.86365 0.32975 0.43218 0.0
C219 C 0.74104 0.21365 0.4696 0.0
C220 C 0.86445 0.29057 0.48278 0.0
C221 C 0.70305 0.1751 0.47212 0.0
C222 C 1.02361 0.43672 0.45245 0.0
C223 C 0.9872 0.40044 0.45941 0.0
C224 C 0.86424 0.31966 0.44654 0.0
C225 C 0.78622 0.2269 0.474 0.0
C226 C 0.82655 0.26702 0.46935 0.0
C227 C 0.94079 0.38412 0.45491 0.0
C228 C 0.9018 0.34372 0.46008 0.0
H229 H 0.76013 0.14264 0.48973 0.0
H230 H 0.82677 0.21033 0.48528 0.0
H231 H 0.79905 0.26431 0.44025 0.0
H232 H 0.95996 0.45714 0.42828 0.0
H233 H 0.8966 0.3949 0.44098 0.0
C234 C 0.64476 0.75111 0.79443 0.0
C235 C 0.62985 0.73378 0.8129 0.0
C236 C 0.63714 0.77713 0.78883 0.0
C237 C 0.61201 0.84171 0.80948 0.0
H238 H 0.58116 0.84115 0.75425 0.0
C239 C 0.62074 0.9663 0.77705 0.0
C240 C 0.58811 0.95673 0.76211 0.0
C241 C 0.62235 0.93776 0.78442 0.0
C242 C 0.58917 0.84144 0.76979 0.0
H243 H 0.59456 0.72961 0.83986 0.0
H244 H 0.58068 0.77473 0.82997 0.0
H245 H 0.58953 0.79323 0.76458 0.0
H246 H 0.52997 0.90961 0.74395 0.0
H247 H 0.53214 0.85967 0.75703 0.0
H248 H 0.6108 0.88958 0.81472 0.0
C249 C 0.59905 0.76876 0.81997 0.0
C250 C 0.59463 0.81427 0.77566 0.0
C251 C 0.60689 0.74285 0.82562 0.0
C252 C 0.55596 0.91788 0.75525 0.0
C253 C 0.55734 0.88933 0.7627 0.0
C254 C 0.60637 0.86886 0.80361 0.0
C255 C 0.61419 0.78628 0.80152 0.0
C256 C 0.60654 0.81427 0.79553 0.0
C257 C 0.59114 0.89902 0.77708 0.0
C258 C 0.59518 0.86921 0.78366 0.0
H259 H 0.66325 0.7452 0.78447 0.0
H260 H 0.65007 0.79063 0.77469 0.0
H261 H 0.6216 0.84277 0.82487 0.0
H262 H 0.6462 0.9961 0.78248 0.0
H263 H 0.64916 0.94635 0.79533 0.0
C264 C 0.79417 0.44818 0.21158 0.0
C265 C 0.82121 0.43571 0.20932 0.0
C266 C 0.7461 0.42162 0.2095 0.0
C267 C 0.64496 0.36392 0.19999 0.0
H268 H 0.63034 0.30699 0.15107 0.0
C269 C 0.52641 0.34342 0.13753 0.0
C270 C 0.55129 0.35835 0.11989 0.0
C271 C 0.54209 0.33269 0.15262 0.0
C272 C 0.63341 0.32229 0.16483 0.0
H273 H 0.81936 0.38541 0.20637 0.0
H274 H 0.7351 0.33868 0.20333 0.0
H275 H 0.69208 0.32735 0.17457 0.0
H276 H 0.6103 0.37125 0.10375 0.0
H277 H 0.63767 0.35294 0.12983 0.0
H278 H 0.58966 0.36284 0.18893 0.0
C279 C 0.75094 0.36907 0.20593 0.0
C280 C 0.66861 0.33361 0.17855 0.0
C281 C 0.79916 0.39577 0.20776 0.0
C282 C 0.59002 0.3595 0.11703 0.0
C283 C 0.60564 0.34879 0.13206 0.0
C284 C 0.6102 0.35314 0.18607 0.0
C285 C 0.72411 0.382 0.20524 0.0
C286 C 0.67711 0.35726 0.19554 0.0
C287 C 0.58291 0.33664 0.15034 0.0
C288 C 0.6065 0.33482 0.16766 0.0
H289 H 0.81024 0.4788 0.21279 0.0
H290 H 0.72702 0.43301 0.20906 0.0
H291 H 0.64939 0.38083 0.21329 0.0
H292 H 0.49586 0.3415 0.13999 0.0
H293 H 0.52348 0.32299 0.16641 0.0
C294 C 0.47477 0.88232 0.48043 0.0
C295 C 0.47338 0.91039 0.47188 0.0
C296 C 0.43574 0.84317 0.47943 0.0
C297 C 0.30827 0.77936 0.47082 0.0
H298 H 0.32136 0.69996 0.45677 0.0
C299 C 0.16001 0.63045 0.43592 0.0
C300 C 0.15541 0.59749 0.44097 0.0
C301 C 0.19712 0.66719 0.44348 0.0
C302 C 0.31714 0.72168 0.46108 0.0
H303 H 0.42982 0.91912 0.4555 0.0
H304 H 0.36238 0.8512 0.45358 0.0
H305 H 0.39042 0.76723 0.46227 0.0
H306 H 0.18502 0.57679 0.4584 0.0
H307 H 0.25063 0.64155 0.47171 0.0
H308 H 0.23506 0.73407 0.46908 0.0
C309 C 0.39328 0.85938 0.46134 0.0
C310 C 0.35674 0.76027 0.4642 0.0
C311 C 0.43218 0.89838 0.4623 0.0
C312 C 0.18774 0.60179 0.45439 0.0
C313 C 0.22539 0.6388 0.46183 0.0
C314 C 0.26879 0.74089 0.46768 0.0
C315 C 0.39443 0.83126 0.46995 0.0
C316 C 0.35274 0.78972 0.46863 0.0
C317 C 0.23082 0.67197 0.45619 0.0
C318 C 0.2727 0.71172 0.46231 0.0
H319 H 0.50592 0.89054 0.48795 0.0
H320 H 0.43775 0.82231 0.48632 0.0
H321 H 0.30391 0.80114 0.47469 0.0
H322 H 0.13547 0.62786 0.42561 0.0
H323 H 0.20046 0.69206 0.43864 0.0
C324 C 0.58095 0.30147 0.81689 0.0
C325 C 0.56025 0.29848 0.83517 0.0
C326 C 0.58802 0.27465 0.81093 0.0
C327 C 0.5428 0.17512 0.81563 0.0
H328 H 0.66178 0.21011 0.79577 0.0
C329 C 0.57088 0.06612 0.78535 0.0
C330 C 0.59697 0.07602 0.76801 0.0
C331 C 0.5698 0.0936 0.79603 0.0
C332 C 0.62818 0.19978 0.80107 0.0
H333 H 0.53099 0.26462 0.86152 0.0
H334 H 0.54181 0.21687 0.85062 0.0
H335 H 0.6526 0.25735 0.8094 0.0
H336 H 0.64417 0.12326 0.74891 0.0
H337 H 0.64055 0.17041 0.76685 0.0
H338 H 0.51751 0.11779 0.80649 0.0
C339 C 0.5528 0.24036 0.84108 0.0
C340 C 0.62307 0.22688 0.80897 0.0
C341 C 0.54639 0.2676 0.84722 0.0
C342 C 0.62301 0.11437 0.76198 0.0
C343 C 0.62151 0.14167 0.7725 0.0
C344 C 0.54768 0.14801 0.80746 0.0
C345 C 0.57388 0.24379 0.82291 0.0
C346 C 0.58019 0.21483 0.81608 0.0
C347 C 0.59443 0.13156 0.78953 0.0
C348 C 0.59029 0.16004 0.7998 0.0
H349 H 0.59105 0.32416 0.80693 0.0
H350 H 0.60364 0.27755 0.79669 0.0
H351 H 0.50926 0.16514 0.82087 0.0
H352 H 0.55011 0.03682 0.79038 0.0
H353 H 0.54917 0.08489 0.80925 0.0
C354 C 0.59232 0.82475 0.53093 0.0
C355 C 0.61736 0.84556 0.51424 0.0
C356 C 0.58708 0.79147 0.53556 0.0
C357 C 0.59861 0.71764 0.51503 0.0
H358 H 0.60954 0.70491 0.57096 0.0
C359 C 0.62468 0.60862 0.5439 0.0
C360 C 0.60069 0.58906 0.56105 0.0
C361 C 0.62355 0.63774 0.53695 0.0
C362 C 0.60585 0.70775 0.55529 0.0
H363 H 0.6561 0.84752 0.48918 0.0
H364 H 0.64762 0.78979 0.49742 0.0
H365 H 0.61339 0.75961 0.56125 0.0
H366 H 0.55434 0.58307 0.58358 0.0
H367 H 0.55265 0.63385 0.57157 0.0
H368 H 0.59202 0.66595 0.50917 0.0
C369 C 0.63124 0.79871 0.50674 0.0
C370 C 0.60795 0.73912 0.5497 0.0
C371 C 0.63619 0.83186 0.50203 0.0
C372 C 0.57412 0.5982 0.57061 0.0
C373 C 0.5731 0.62729 0.56372 0.0
C374 C 0.59677 0.68629 0.52064 0.0
C375 C 0.6071 0.77835 0.52372 0.0
C376 C 0.60423 0.74447 0.52951 0.0
C377 C 0.59847 0.6479 0.54704 0.0
C378 C 0.60022 0.68095 0.54085 0.0
H379 H 0.57678 0.83424 0.54044 0.0
H380 H 0.56738 0.77608 0.54849 0.0
H381 H 0.5951 0.72058 0.49936 0.0
H382 H 0.64569 0.60243 0.53627 0.0
H383 H 0.64367 0.65326 0.52412 0.0
C384 C 0.76622 0.55828 0.84289 0.0
C385 C 0.72092 0.52428 0.8456 0.0
C386 C 0.80446 0.55818 0.84396 0.0
C387 C 0.8398 0.50015 0.86288 0.0
H388 H 0.94733 0.56683 0.83062 0.0
C389 C 0.99107 0.49177 0.86411 0.0
C390 C 1.03599 0.52716 0.86588 0.0
C391 C 0.95308 0.49063 0.85913 0.0
C392 C 0.91771 0.54815 0.83983 0.0
H393 H 0.68095 0.46332 0.85145 0.0
H394 H 0.74679 0.46281 0.85273 0.0
H395 H 0.88068 0.56635 0.82716 0.0
H396 H 0.07634 0.58908 0.86354 0.0
H397 H 1.01032 0.58725 0.85439 0.0
H398 H 0.87672 0.48191 0.87551 0.0
C399 C 0.7532 0.48994 0.85017 0.0
C400 C 0.87934 0.54795 0.8379 0.0
C401 C 0.71507 0.49012 0.84923 0.0
C402 C 1.04234 0.56128 0.86169 0.0
C403 C 1.00433 0.56017 0.85659 0.0
C404 C 0.87793 0.50016 0.86469 0.0
C405 C 0.79868 0.52403 0.84772 0.0
C406 C 0.8397 0.524 0.84945 0.0
C407 C 0.95888 0.52494 0.85589 0.0
C408 C 0.91759 0.52419 0.85323 0.0
H409 H 0.77236 0.58526 0.84017 0.0
H410 H 0.8387 0.58523 0.84226 0.0
H411 H 0.81071 0.4819 0.87241 0.0
H412 H 0.98497 0.46514 0.86776 0.0
H413 H 0.91886 0.46288 0.85847 0.0
C414 C 0.24676 0.66562 0.14713 0.0
C415 C 0.20557 0.65481 0.15583 0.0
C416 C 0.28626 0.70454 0.14763 0.0
C417 C 0.32398 0.80469 0.15589 0.0
H418 H 0.44259 0.8305 0.17041 0.0
C419 C 0.47312 0.9512 0.19263 0.0
C420 C 0.51894 0.96776 0.18775 0.0
C421 C 0.43641 0.91486 0.18448 0.0
C422 C 0.40993 0.82381 0.16595 0.0
H423 H 0.17371 0.67661 0.17179 0.0
H424 H 0.24238 0.74401 0.17288 0.0
H425 H 0.37528 0.76271 0.16457 0.0
H426 H 0.56249 0.96014 0.17007 0.0
H427 H 0.49788 0.89591 0.15577 0.0
H428 H 0.35828 0.86569 0.15799 0.0
C429 C 0.2441 0.72261 0.16538 0.0
C430 C 0.37129 0.78492 0.16263 0.0
C431 C 0.20473 0.68381 0.1649 0.0
C432 C 0.52736 0.94798 0.17393 0.0
C433 C 0.4905 0.91121 0.16592 0.0
C434 C 0.3625 0.84348 0.15928 0.0
C435 C 0.28541 0.73352 0.15679 0.0
C436 C 0.32758 0.77485 0.15806 0.0
C437 C 0.44468 0.89401 0.17138 0.0
C438 C 0.40566 0.85344 0.16483 0.0
H439 H 0.24864 0.64404 0.13999 0.0
H440 H 0.31739 0.71195 0.14075 0.0
H441 H 0.29109 0.79803 0.15193 0.0
H442 H 0.46583 0.96593 0.20329 0.0
H443 H 0.40166 0.90231 0.18919 0.0
C444 C 0.52679 0.21892 0.47828 0.0
C445 C 0.56193 0.21503 0.48032 0.0
C446 C 0.5338 0.25266 0.48542 0.0
C447 C 0.60108 0.33115 0.52347 0.0
H448 H 0.56444 0.38314 0.49415 0.0
C449 C 0.63968 0.47181 0.55572 0.0
C450 C 0.60575 0.47684 0.55314 0.0
C451 C 0.63641 0.44208 0.54517 0.0
C452 C 0.57438 0.36873 0.50265 0.0
H453 H 0.63295 0.24474 0.49054 0.0
H454 H 0.64462 0.30304 0.50336 0.0
H455 H 0.55425 0.32679 0.47871 0.0
H456 H 0.54232 0.45535 0.5372 0.0
H457 H 0.53565 0.40253 0.51911 0.0
H458 H 0.6198 0.37183 0.54762 0.0
C459 C 0.6115 0.27976 0.49642 0.0
C460 C 0.56866 0.33653 0.49375 0.0
C461 C 0.6047 0.24625 0.48913 0.0
C462 C 0.56911 0.45223 0.53935 0.0
C463 C 0.56544 0.42204 0.52895 0.0
C464 C 0.60629 0.36296 0.53243 0.0
C465 C 0.57593 0.28312 0.4949 0.0
C466 C 0.58215 0.31752 0.50406 0.0
C467 C 0.59868 0.41617 0.53198 0.0
C468 C 0.59324 0.38237 0.52214 0.0
H469 H 0.49324 0.19537 0.4718 0.0
H470 H 0.50563 0.25432 0.48418 0.0
H471 H 0.61099 0.31667 0.53193 0.0
H472 H 0.66862 0.49074 0.56608 0.0
H473 H 0.66337 0.43925 0.54752 0.0
C474 C 0.44258 0.49008 0.85812 0.0
C475 C 0.48429 0.52087 0.84983 0.0
C476 C 0.40473 0.49054 0.85969 0.0
C477 C 0.35439 0.53678 0.84053 0.0
H478 H 0.28264 0.49786 0.8884 0.0
C479 C 0.2094 0.55169 0.86026 0.0
C480 C 0.17181 0.52239 0.87122 0.0
C481 C 0.24663 0.55107 0.85594 0.0
C482 C 0.30162 0.50829 0.87473 0.0
H483 H 0.51815 0.57629 0.83644 0.0
H484 H 0.45224 0.57717 0.83927 0.0
H485 H 0.3486 0.49805 0.88448 0.0
H486 H 0.14276 0.46854 0.8853 0.0
H487 H 0.20608 0.4665 0.8772 0.0
H488 H 0.30714 0.54704 0.83084 0.0
C489 C 0.44869 0.55241 0.84444 0.0
C490 C 0.33981 0.50846 0.8725 0.0
C491 C 0.48671 0.552 0.84292 0.0
C492 C 0.17121 0.49154 0.87682 0.0
C493 C 0.20799 0.49072 0.87239 0.0
C494 C 0.31594 0.53649 0.84274 0.0
C495 C 0.40715 0.52179 0.85301 0.0
C496 C 0.36674 0.52247 0.85533 0.0
C497 C 0.2471 0.52106 0.86244 0.0
C498 C 0.28865 0.52195 0.85984 0.0
H499 H 0.43907 0.46546 0.86353 0.0
H500 H 0.37328 0.46607 0.86606 0.0
H501 H 0.37388 0.54752 0.827 0.0
H502 H 0.2112 0.57615 0.85601 0.0
H503 H 0.27598 0.5751 0.84832 0.0
C504 C 0.96579 0.38661 0.14375 0.0
C505 C 0.97217 0.41636 0.15608 0.0
C506 C 0.92793 0.3477 0.14632 0.0
C507 C 0.8445 0.28517 0.18477 0.0
H508 H 0.77124 0.21072 0.14088 0.0
C509 C 0.66921 0.14236 0.19867 0.0
C510 C 0.66089 0.10831 0.19088 0.0
C511 C 0.70618 0.17843 0.19215 0.0
C512 C 0.79171 0.23117 0.15325 0.0
H513 H 0.94354 0.42827 0.18075 0.0
H514 H 0.87751 0.36141 0.18474 0.0
H515 H 0.8389 0.27701 0.13397 0.0
H516 H 0.68289 0.08511 0.16918 0.0
H517 H 0.74812 0.14883 0.15761 0.0
H518 H 0.79736 0.23996 0.20405 0.0
C519 C 0.90193 0.36777 0.1733 0.0
C520 C 0.83045 0.26905 0.14932 0.0
C521 C 0.93964 0.40635 0.17082 0.0
C522 C 0.68859 0.11094 0.17543 0.0
C523 C 0.72586 0.14732 0.16885 0.0
C524 C 0.80591 0.24765 0.18866 0.0
C525 C 0.89586 0.33784 0.16132 0.0
C526 C 0.85674 0.2967 0.16507 0.0
C527 C 0.73585 0.18147 0.17765 0.0
C528 C 0.77852 0.22041 0.17299 0.0
H529 H 0.99023 0.39331 0.13226 0.0
H530 H 0.92439 0.32534 0.13691 0.0
H531 H 0.86467 0.30529 0.19728 0.0
H532 H 0.64783 0.14115 0.21029 0.0
H533 H 0.71229 0.20415 0.19887 0.0
C534 C 0.07963 0.57604 0.09032 0.0
C535 C 0.07201 0.54662 0.10179 0.0
C536 C 0.08453 0.57501 0.06966 0.0
C537 C 1.05705 0.50721 0.02704 0.0
H538 H 0.14716 0.60113 -0.00026 0.0
C539 C 1.0578 0.51167 0.94133 0.0
C540 C 0.10085 0.53339 0.93202 0.0
C541 C 1.05536 0.51351 0.96206 0.0
C542 C 0.12209 0.57458 0.00715 0.0
H543 H 1.06391 0.49327 0.10078 0.0
H544 H 0.073 0.49167 0.06487 0.0
H545 H 0.14165 0.60419 0.03591 0.0
H546 H 0.17514 0.57413 0.93729 0.0
H547 H 0.17091 0.57685 0.97357 0.0
H548 H 1.03796 0.47747 0.99839 0.0
C549 C 0.07455 0.51527 0.07169 0.0
C550 C 0.11855 0.57641 0.02786 0.0
C551 C 0.06962 0.5163 0.09229 0.0
C552 C 0.14145 0.55682 0.94399 0.0
C553 C 0.139 0.55871 0.96477 0.0
C554 C 1.06055 0.50539 0.00636 0.0
C555 C 0.08184 0.5445 0.06008 0.0
C556 C 0.08593 0.54274 0.03806 0.0
C557 C 0.09589 0.53708 0.97406 0.0
C558 C 0.093 0.53905 0.99614 0.0
H559 H 0.08161 0.59974 0.09729 0.0
H560 H 0.0896 0.59777 0.06115 0.0
H561 H 1.0312 0.48076 0.03436 0.0
H562 H 1.02587 0.49295 0.93258 0.0
H563 H 1.02157 0.49679 0.96868 0.0
C564 C 0.65357 0.05168 0.4112 0.0
C565 C 0.61419 0.03355 0.42297 0.0
C566 C 0.64991 0.05357 0.39067 0.0
C567 C 0.56623 1.00489 0.34849 0.0
H568 H 0.66053 0.0974 0.3212 0.0
C569 C 0.55336 0.0191 0.26397 0.0
C570 C 0.59432 0.03669 0.25326 0.0
C571 C 0.55452 0.0195 0.28479 0.0
C572 C 0.63415 0.07122 0.32858 0.0
H573 H 0.54027 1.00386 0.4227 0.0
H574 H 0.5338 0.00727 0.38674 0.0
H575 H 0.66471 0.09738 0.35743 0.0
H576 H 0.66845 0.06778 0.25599 0.0
H577 H 0.67048 0.06835 0.29229 0.0
H578 H 0.53597 0.97857 0.31962 0.0
C579 C 0.56743 0.01965 0.39335 0.0
C580 C 0.63651 0.07123 0.34933 0.0
C581 C 0.57114 0.01788 0.41393 0.0
C582 C 0.63641 0.05451 0.26383 0.0
C583 C 0.63756 0.05488 0.28463 0.0
C584 C 0.5639 1.00486 0.32772 0.0
C585 C 0.60675 0.03731 0.38148 0.0
C586 C 0.60282 0.03796 0.35952 0.0
C587 C 0.59666 0.03747 0.29537 0.0
C588 C 0.59807 0.03791 0.3175 0.0
H589 H 0.68718 0.06402 0.41783 0.0
H590 H 0.68076 0.06697 0.38193 0.0
H591 H 0.54008 0.97863 0.35588 0.0
H592 H 0.52048 0.00559 0.25627 0.0
H593 H 0.52248 0.00625 0.29262 0.0
C594 C 0.63191 0.54253 0.78318 0.0
C595 C 0.58842 0.51131 0.7899 0.0
C596 C 0.63939 0.5483 0.76272 0.0
C597 C 0.60244 0.49532 0.71516 0.0
H598 H 0.63782 0.58838 0.69075 0.0
C599 C 0.58495 0.49859 0.63051 0.0
C600 C 0.61622 0.53329 0.62095 0.0
C601 C 0.58578 0.49788 0.65127 0.0
C602 C 0.62886 0.56247 0.6973 0.0
H603 H 0.51863 0.46196 0.78059 0.0
H604 H 0.5322 0.47137 0.74499 0.0
H605 H 0.63285 0.58467 0.727 0.0
H606 H 0.67359 0.59434 0.62544 0.0
H607 H 0.67641 0.593 0.66173 0.0
H608 H 0.59927 0.4731 0.68582 0.0
C609 C 0.56027 0.49152 0.75551 0.0
C610 C 0.62584 0.56038 0.71806 0.0
C611 C 0.55254 0.48625 0.77586 0.0
C612 C 0.64888 0.56724 0.63251 0.0
C613 C 0.65026 0.56645 0.6533 0.0
C614 C 0.60628 0.49762 0.6945 0.0
C615 C 0.60377 0.52238 0.74875 0.0
C616 C 0.61166 0.52647 0.72709 0.0
C617 C 0.61848 0.53178 0.66299 0.0
C618 C 0.61848 0.53086 0.68519 0.0
H619 H 0.66027 0.56205 0.79367 0.0
H620 H 0.67326 0.57225 0.75779 0.0
H621 H 0.59194 0.46901 0.72186 0.0
H622 H 0.55896 0.47213 0.62195 0.0
H623 H 0.55998 0.47081 0.6581 0.0
C624 C 0.61479 0.05015 0.54129 0.0
C625 C 0.57095 0.02668 0.53176 0.0
C626 C 0.61909 0.04856 0.56182 0.0
C627 C 0.56565 0.98742 0.6039 0.0
H628 H 0.6205 0.08216 0.63621 0.0
C629 C 0.55302 0.98597 0.68949 0.0
C630 C 0.58945 0.01817 0.70092 0.0
C631 C 0.5523 0.98684 0.66872 0.0
C632 C 0.60593 0.05554 0.62748 0.0
H633 H 0.49755 0.9823 0.53581 0.0
H634 H 0.50527 0.97867 0.57171 0.0
H635 H 0.61812 0.08346 0.60002 0.0
H636 H 0.65419 0.0761 0.69985 0.0
H637 H 0.65434 0.0772 0.66357 0.0
H638 H 0.55457 0.95947 0.63108 0.0
C639 C 0.53609 0.99858 0.56333 0.0
C640 C 0.60439 0.05635 0.60674 0.0
C641 C 0.53168 1.00078 0.5429 0.0
C642 C 0.62548 0.05108 0.69129 0.0
C643 C 0.62531 0.0517 0.6705 0.0
C644 C 0.56802 0.9867 0.62462 0.0
C645 C 0.57973 0.02284 0.57299 0.0
C646 C 0.58379 0.02224 0.59482 0.0
C647 C 0.58855 0.01967 0.65891 0.0
C648 C 0.58769 0.02067 0.63674 0.0
H649 H 0.64557 0.07035 0.53296 0.0
H650 H 0.65309 0.06742 0.569 0.0
H651 H 0.54988 0.96081 0.59493 0.0
H652 H 0.52469 0.96037 0.69666 0.0
H653 H 0.52288 0.96192 0.66043 0.0
C654 C 0.57312 0.49093 0.90602 0.0
C655 C 0.61773 0.51965 0.89933 0.0
C656 C 0.56703 0.47165 0.92325 0.0
C657 C 0.62859 0.48165 0.96946 0.0
H658 H 0.52103 0.37431 0.97415 0.0
C659 C 0.58887 0.40671 0.04339 0.0
C660 C 0.54487 0.39241 0.05008 0.0
C661 C 0.59985 0.41552 0.0234 0.0
C662 C 0.55138 0.40421 0.97299 0.0
H663 H 0.69102 0.55058 0.90508 0.0
H664 H 0.68053 0.51643 0.93509 0.0
H665 H 0.5375 0.40425 0.94209 0.0
H666 H 0.47686 0.3734 0.04118 0.0
H667 H 0.49557 0.38795 0.0062 0.0
H668 H 0.642 0.48166 0.00045 0.0
C669 C 0.65018 0.50921 0.92726 0.0
C670 C 0.56067 0.42149 0.95469 0.0
C671 C 0.65625 0.52874 0.91008 0.0
C672 C 0.51093 0.3842 0.03627 0.0
C673 C 0.52166 0.39248 0.01628 0.0
C674 C 0.61955 0.46423 0.98769 0.0
C675 C 0.60546 0.48046 0.93409 0.0
C676 C 0.59867 0.46075 0.95285 0.0
C677 C 0.56674 0.40964 0.00982 0.0
C678 C 0.58022 0.42565 0.98976 0.0
H679 H 0.54286 0.48352 0.89799 0.0
H680 H 0.53214 0.45034 0.92826 0.0
H681 H 0.65783 0.51202 0.9687 0.0
H682 H 0.61569 0.41364 0.05385 0.0
H683 H 0.63476 0.42852 0.01876 0.0
C684 C 0.11151 0.55343 0.21751 0.0
C685 C 0.10549 0.52246 0.20674 0.0
C686 C 0.10695 0.55263 0.23821 0.0
C687 C 0.11157 0.50681 0.28203 0.0
H688 H 1.04866 0.54253 0.3081 0.0
C689 C 0.07343 0.4895 0.36593 0.0
C690 C 0.08195 0.52152 0.37673 0.0
C691 C 0.07411 0.48859 0.34511 0.0
C692 C 1.06668 0.53278 0.30105 0.0
H693 H 0.08982 0.46637 0.20897 0.0
H694 H 0.08159 0.46478 0.24507 0.0
H695 H 1.05441 0.54322 0.27186 0.0
H696 H 0.09647 0.57718 0.3741 0.0
H697 H 0.09846 0.57591 0.33779 0.0
H698 H 0.12407 0.49655 0.31117 0.0
C699 C 0.09033 0.48989 0.23763 0.0
C700 C 0.07001 0.5332 0.2803 0.0
C701 C 0.09488 0.49072 0.21696 0.0
C702 C 0.09034 0.5523 0.36623 0.0
C703 C 0.09096 0.55137 0.34541 0.0
C704 C 0.10824 0.50638 0.30276 0.0
C705 C 0.09645 0.52089 0.24851 0.0
C706 C 0.09255 0.52027 0.27055 0.0
C707 C 0.08323 0.51965 0.33461 0.0
C708 C 0.08583 0.51941 0.31252 0.0
H709 H 0.12028 0.57847 0.20997 0.0
H710 H 0.1125 0.5772 0.24618 0.0
H711 H 0.12983 0.49725 0.27503 0.0
H712 H 1.06718 0.46545 0.37358 0.0
H713 H 1.06747 0.46352 0.33722 0.0
loop_
_geom_bond_atom_site_label_1
_geom_bond_atom_site_label_2
_geom_bond_distance
_geom_bond_site_symmetry_2
_ccdc_geom_bond_type
La0 C2 2.928 . S
La0 O20 2.521 . S
La0 O21 2.628 . S
La0 O22 2.554 . S
La0 O23 2.757 . S
La0 O24 2.470 . S
La0 O29 2.482 . S
La0 O31 2.503 1_455 S
La1 C11 2.928 . S
La1 O23 2.482 1_655 S
La1 O25 2.503 1_655 S
La1 O26 2.521 . S
La1 O27 2.628 . S
La1 O28 2.554 . S
La1 O29 2.757 1_655 S
La1 O30 2.470 . S
C2 La0 2.928 . S
C2 C3 1.503 . S
C2 O20 1.261 . S
C2 O21 1.243 . S
C3 C2 1.503 . S
C3 C4 1.394 . S
C3 C8 1.373 . S
C4 C3 1.394 . S
C4 C5 1.380 . S
C4 H32 0.930 . S
C5 C4 1.380 . S
C5 C6 1.376 . S
C5 H33 0.930 . S
C6 C5 1.376 . S
C6 C7 1.370 . S
C7 C6 1.370 . S
C7 C8 1.396 . S
C7 H34 0.929 . S
C8 C3 1.373 . S
C8 C7 1.396 . S
C8 H35 0.929 . S
C9 O22 1.240 . S
C9 O23 1.289 . S
C10 O24 1.258 . S
C10 O25 1.256 . S
C11 La1 2.928 . S
C11 C12 1.503 . S
C11 O26 1.261 . S
C11 O27 1.243 . S
C12 C11 1.503 . S
C12 C13 1.394 . S
C12 C17 1.373 . S
C13 C12 1.394 . S
C13 C14 1.380 . S
C13 H36 0.930 . S
C14 C13 1.380 . S
C14 C15 1.376 . S
C14 H37 0.930 . S
C15 C14 1.376 . S
C15 C16 1.370 . S
C16 C15 1.370 . S
C16 C17 1.396 . S
C16 H38 0.929 . S
C17 C12 1.373 . S
C17 C16 1.396 . S
C17 H39 0.929 . S
C18 O28 1.240 1_455 S
C18 O29 1.289 . S
C19 O30 1.258 . S
C19 O31 1.256 . S
O20 La0 2.521 . S
O20 C2 1.261 . S
O21 La0 2.628 . S
O21 C2 1.243 . S
O22 La0 2.554 . S
O22 C9 1.240 . S
O23 La0 2.757 . S
O23 La1 2.482 1_455 S
O23 C9 1.289 . S
O24 La0 2.470 . S
O24 C10 1.258 . S
O25 La1 2.503 1_455 S
O25 C10 1.256 . S
O26 La1 2.521 . S
O26 C11 1.261 . S
O27 La1 2.628 . S
O27 C11 1.243 . S
O28 La1 2.554 . S
O28 C18 1.240 1_655 S
O29 La0 2.482 . S
O29 La1 2.757 1_455 S
O29 C18 1.289 . S
O30 La1 2.470 . S
O30 C19 1.258 . S
O31 La0 2.503 1_655 S
O31 C19 1.256 . S
H32 C4 0.930 . S
H33 C5 0.930 . S
H34 C7 0.929 . S
H35 C8 0.929 . S
H36 C13 0.930 . S
H37 C14 0.930 . S
H38 C16 0.929 . S
H39 C17 0.929 . S
La40 C42 2.928 . S
La40 O60 2.521 . S
La40 O61 2.628 . S
La40 O62 2.554 . S
La40 O63 2.757 1_565 S
La40 O64 2.470 . S
La40 O69 2.482 . S
La40 O71 2.503 1_565 S
La41 C51 2.928 . S
La41 O63 2.482 . S
La41 O65 2.503 1_545 S
La41 O66 2.521 . S
La41 O67 2.628 . S
La41 O68 2.554 . S
La41 O69 2.757 1_545 S
La41 O70 2.470 . S
C42 La40 2.928 . S
C42 C43 1.503 . S
C42 O60 1.261 . S
C42 O61 1.243 . S
C43 C42 1.503 . S
C43 C44 1.394 . S
C43 C48 1.373 . S
C44 C43 1.394 . S
C44 C45 1.380 . S
C44 H72 0.930 . S
C45 C44 1.380 . S
C45 C46 1.376 . S
C45 H73 0.930 . S
C46 C45 1.376 . S
C46 C47 1.370 . S
C47 C46 1.370 . S
C47 C48 1.396 . S
C47 H74 0.929 . S
C48 C43 1.373 . S
C48 C47 1.396 . S
C48 H75 0.929 . S
C49 O62 1.240 1_545 S
C49 O63 1.289 . S
C50 O64 1.258 . S
C50 O65 1.256 . S
C51 La41 2.928 . S
C51 C52 1.503 . S
C51 O66 1.261 . S
C51 O67 1.243 . S
C52 C51 1.503 . S
C52 C53 1.394 . S
C52 C57 1.373 . S
C53 C52 1.394 . S
C53 C54 1.380 . S
C53 H76 0.930 . S
C54 C53 1.380 . S
C54 C55 1.376 . S
C54 H77 0.930 . S
C55 C54 1.376 . S
C55 C56 1.370 . S
C56 C55 1.370 . S
C56 C57 1.396 . S
C56 H78 0.929 . S
C57 C52 1.373 . S
C57 C56 1.396 . S
C57 H79 0.929 . S
C58 O68 1.240 . S
C58 O69 1.289 1_545 S
C59 O70 1.258 . S
C59 O71 1.256 . S
O60 La40 2.521 . S
O60 C42 1.261 . S
O61 La40 2.628 . S
O61 C42 1.243 . S
O62 La40 2.554 . S
O62 C49 1.240 1_565 S
O63 La40 2.757 1_545 S
O63 La41 2.482 . S
O63 C49 1.289 . S
O64 La40 2.470 . S
O64 C50 1.258 . S
O65 La41 2.503 1_565 S
O65 C50 1.256 . S
O66 La41 2.521 . S
O66 C51 1.261 . S
O67 La41 2.628 . S
O67 C51 1.243 . S
O68 La41 2.554 . S
O68 C58 1.240 . S
O69 La40 2.482 . S
O69 La41 2.757 1_565 S
O69 C58 1.289 1_565 S
O70 La41 2.470 . S
O70 C59 1.258 . S
O71 La40 2.503 1_545 S
O71 C59 1.256 . S
H72 C44 0.930 . S
H73 C45 0.930 . S
H74 C47 0.929 . S
H75 C48 0.929 . S
H76 C53 0.930 . S
H77 C54 0.930 . S
H78 C56 0.929 . S
H79 C57 0.929 . S
La80 C82 2.928 . S
La80 O100 2.521 . S
La80 O101 2.628 . S
La80 O102 2.554 . S
La80 O103 2.757 . S
La80 O104 2.470 . S
La80 O109 2.482 . S
La80 O111 2.503 . S
La81 C91 2.928 . S
La81 O103 2.482 . S
La81 O105 2.503 . S
La81 O106 2.521 . S
La81 O107 2.628 . S
La81 O108 2.554 . S
La81 O109 2.757 . S
La81 O110 2.470 . S
C82 La80 2.928 . S
C82 C83 1.503 . S
C82 O100 1.261 . S
C82 O101 1.243 . S
C83 C82 1.503 . S
C83 C84 1.394 . S
C83 C88 1.373 . S
C84 C83 1.394 . S
C84 C85 1.380 . S
C84 H112 0.930 . S
C85 C84 1.380 . S
C85 C86 1.376 . S
C85 H113 0.930 . S
C86 C85 1.376 . S
C86 C87 1.370 . S
C87 C86 1.370 . S
C87 C88 1.396 . S
C87 H114 0.929 . S
C88 C83 1.373 . S
C88 C87 1.396 . S
C88 H115 0.929 . S
C89 O102 1.240 . S
C89 O103 1.289 . S
C90 O104 1.258 . S
C90 O105 1.256 . S
C91 La81 2.928 . S
C91 C92 1.503 . S
C91 O106 1.261 . S
C91 O107 1.243 . S
C92 C91 1.503 . S
C92 C93 1.394 . S
C92 C97 1.373 . S
C93 C92 1.394 . S
C93 C94 1.380 . S
C93 H116 0.930 . S
C94 C93 1.380 . S
C94 C95 1.376 . S
C94 H117 0.930 . S
C95 C94 1.376 . S
C95 C96 1.370 . S
C96 C95 1.370 . S
C96 C97 1.396 . S
C96 H118 0.929 . S
C97 C92 1.373 . S
C97 C96 1.396 . S
C97 H119 0.929 . S
C98 O108 1.240 . S
C98 O109 1.289 . S
C99 O110 1.258 . S
C99 O111 1.256 . S
O100 La80 2.521 . S
O100 C82 1.261 . S
O101 La80 2.628 . S
O101 C82 1.243 . S
O102 La80 2.554 . S
O102 C89 1.240 . S
O103 La80 2.757 . S
O103 La81 2.482 . S
O103 C89 1.289 . S
O104 La80 2.470 . S
O104 C90 1.258 . S
O105 La81 2.503 . S
O105 C90 1.256 . S
O106 La81 2.521 . S
O106 C91 1.261 . S
O107 La81 2.628 . S
O107 C91 1.243 . S
O108 La81 2.554 . S
O108 C98 1.240 . S
O109 La80 2.482 . S
O109 La81 2.757 . S
O109 C98 1.289 . S
O110 La81 2.470 . S
O110 C99 1.258 . S
O111 La80 2.503 . S
O111 C99 1.256 . S
H112 C84 0.930 . S
H113 C85 0.930 . S
H114 C87 0.929 . S
H115 C88 0.929 . S
H116 C93 0.930 . S
H117 C94 0.930 . S
H118 C96 0.929 . S
H119 C97 0.929 . S
H120 C123 0.931 . S
H121 C126 0.928 . S
H122 C128 0.930 . S
C123 H120 0.931 . S
C123 C124 1.413 . S
C123 C125 1.360 1_565 S
C124 C123 1.413 . S
C124 C128 1.429 1_565 S
C125 C123 1.360 1_545 S
C125 C126 1.372 . S
C126 H121 0.928 . S
C126 C125 1.372 . S
C126 C127 1.404 . S
C127 C126 1.404 . S
C127 C128 1.391 . S
C128 H122 0.930 . S
C128 C124 1.429 1_545 S
C128 C127 1.391 . S
H129 C132 0.931 . S
H130 C135 0.928 . S
H131 C137 0.930 . S
C132 H129 0.931 . S
C132 C133 1.413 . S
C132 C134 1.360 . S
C133 C132 1.413 . S
C133 C137 1.429 . S
C134 C132 1.360 . S
C134 C135 1.372 . S
C135 H130 0.928 . S
C135 C134 1.372 . S
C135 C136 1.404 . S
C136 C135 1.404 . S
C136 C137 1.391 . S
C137 H131 0.930 . S
C137 C133 1.429 . S
C137 C136 1.391 . S
H138 C141 0.931 1_655 S
H139 C144 0.928 . S
H140 C146 0.930 . S
C141 H138 0.931 1_455 S
C141 C142 1.413 . S
C141 C143 1.360 . S
C142 C141 1.413 . S
C142 C146 1.429 . S
C143 C141 1.360 . S
C143 C144 1.372 . S
C144 H139 0.928 . S
C144 C143 1.372 . S
C144 C145 1.404 . S
C145 C144 1.404 . S
C145 C146 1.391 . S
C146 H140 0.930 . S
C146 C142 1.429 . S
C146 C145 1.391 . S
H147 C150 0.931 . S
H148 C153 0.928 . S
H149 C155 0.930 . S
C150 H147 0.931 . S
C150 C151 1.413 . S
C150 C152 1.360 1_655 S
C151 C150 1.413 . S
C151 C155 1.429 1_655 S
C152 C150 1.360 1_455 S
C152 C153 1.371 . S
C153 H148 0.928 . S
C153 C152 1.371 . S
C153 C154 1.404 . S
C154 C153 1.404 . S
C154 C155 1.391 . S
C155 H149 0.930 . S
C155 C151 1.429 1_455 S
C155 C154 1.391 . S
H156 C159 0.931 . S
H157 C162 0.928 . S
H158 C164 0.930 . S
C159 H156 0.931 . S
C159 C160 1.413 . S
C159 C161 1.386 . S
C160 C159 1.413 . S
C160 C164 1.429 . S
C161 C159 1.386 . S
C161 C162 1.345 1_545 S
C162 H157 0.928 . S
C162 C161 1.345 1_565 S
C162 C163 1.404 . S
C163 C162 1.404 . S
C163 C164 1.391 1_565 S
C164 H158 0.930 . S
C164 C160 1.429 . S
C164 C163 1.391 1_545 S
H165 C168 0.931 . S
H166 C171 0.928 . S
H167 C173 0.930 . S
C168 H165 0.931 . S
C168 C169 1.413 . S
C168 C170 1.360 . S
C169 C168 1.413 . S
C169 C173 1.429 . S
C170 C168 1.360 . S
C170 C171 1.372 . S
C171 H166 0.928 . S
C171 C170 1.372 . S
C171 C172 1.404 . S
C172 C171 1.404 . S
C172 C173 1.391 . S
C173 H167 0.930 . S
C173 C169 1.429 . S
C173 C172 1.391 . S
C174 C175 1.349 . S
C174 C176 1.327 . S
C174 H199 0.950 . S
C175 C174 1.349 . S
C175 C191 1.349 . S
C176 C174 1.327 . S
C176 C195 1.429 . S
C176 H200 0.950 . S
C177 C194 1.574 . S
C177 C196 1.368 . S
C177 H201 0.949 . S
H178 C182 0.949 . S
C179 C180 1.349 . S
C179 C181 1.327 . S
C179 H202 0.950 . S
C180 C179 1.349 . S
C180 C192 1.349 . S
C181 C179 1.327 . S
C181 C197 1.429 . S
C181 H203 0.950 . S
C182 H178 0.949 . S
C182 C190 1.574 . S
C182 C198 1.368 . S
H183 C191 0.950 . S
H184 C189 0.950 . S
H185 C190 0.949 . S
H186 C192 0.950 . S
H187 C193 0.950 . S
H188 C194 0.949 . S
C189 H184 0.950 . S
C189 C191 1.327 . S
C189 C195 1.429 . S
C190 C182 1.574 . S
C190 H185 0.949 . S
C190 C196 1.368 . S
C191 C175 1.349 . S
C191 H183 0.950 . S
C191 C189 1.327 . S
C192 C180 1.349 . S
C192 H186 0.950 . S
C192 C193 1.327 . S
C193 H187 0.950 . S
C193 C192 1.327 . S
C193 C197 1.429 . S
C194 C177 1.574 . S
C194 H188 0.949 . S
C194 C198 1.368 . S
C195 C176 1.429 . S
C195 C189 1.429 . S
C195 C196 1.523 . S
C196 C177 1.368 . S
C196 C190 1.368 . S
C196 C195 1.523 . S
C197 C181 1.429 . S
C197 C193 1.429 . S
C197 C198 1.523 . S
C198 C182 1.368 . S
C198 C194 1.368 . S
C198 C197 1.523 . S
H199 C174 0.950 . S
H200 C176 0.950 . S
H201 C177 0.949 . S
H202 C179 0.950 . S
H203 C181 0.950 . S
C204 C205 1.349 . S
C204 C206 1.327 . S
C204 H229 0.950 . S
C205 C204 1.349 . S
C205 C221 1.349 . S
C206 C204 1.327 . S
C206 C225 1.429 . S
C206 H230 0.950 . S
C207 C224 1.574 . S
C207 C226 1.368 . S
C207 H231 0.949 . S
H208 C212 0.949 . S
C209 C210 1.349 . S
C209 C211 1.327 . S
C209 H232 0.950 . S
C210 C209 1.349 . S
C210 C222 1.349 . S
C211 C209 1.327 . S
C211 C227 1.429 . S
C211 H233 0.950 . S
C212 H208 0.949 . S
C212 C220 1.574 . S
C212 C228 1.368 . S
H213 C221 0.950 . S
H214 C219 0.950 . S
H215 C220 0.949 . S
H216 C222 0.950 . S
H217 C223 0.950 . S
H218 C224 0.949 . S
C219 H214 0.950 . S
C219 C221 1.327 . S
C219 C225 1.429 . S
C220 C212 1.574 . S
C220 H215 0.949 . S
C220 C226 1.368 . S
C221 C205 1.349 . S
C221 H213 0.950 . S
C221 C219 1.327 . S
C222 C210 1.349 . S
C222 H216 0.950 . S
C222 C223 1.327 . S
C223 H217 0.950 . S
C223 C222 1.327 . S
C223 C227 1.429 . S
C224 C207 1.574 . S
C224 H218 0.949 . S
C224 C228 1.368 . S
C225 C206 1.429 . S
C225 C219 1.429 . S
C225 C226 1.523 . S
C226 C207 1.368 . S
C226 C220 1.368 . S
C226 C225 1.523 . S
C227 C211 1.429 . S
C227 C223 1.429 . S
C227 C228 1.523 . S
C228 C212 1.368 . S
C228 C224 1.368 . S
C228 C227 1.523 . S
H229 C204 0.950 . S
H230 C206 0.950 . S
H231 C207 0.949 . S
H232 C209 0.950 . S
H233 C211 0.950 . S
C234 C235 1.349 . S
C234 C236 1.327 . S
C234 H259 0.950 . S
C235 C234 1.349 . S
C235 C251 1.349 . S
C236 C234 1.327 . S
C236 C255 1.429 . S
C236 H260 0.950 . S
C237 C254 1.574 . S
C237 C256 1.368 . S
C237 H261 0.949 . S
H238 C242 0.949 . S
C239 C240 1.349 . S
C239 C241 1.327 . S
C239 H262 0.950 . S
C240 C239 1.349 . S
C240 C252 1.349 . S
C241 C239 1.327 . S
C241 C257 1.429 . S
C241 H263 0.950 . S
C242 H238 0.949 . S
C242 C250 1.574 . S
C242 C258 1.368 . S
H243 C251 0.950 . S
H244 C249 0.950 . S
H245 C250 0.949 . S
H246 C252 0.950 . S
H247 C253 0.950 . S
H248 C254 0.949 . S
C249 H244 0.950 . S
C249 C251 1.327 . S
C249 C255 1.429 . S
C250 C242 1.574 . S
C250 H245 0.949 . S
C250 C256 1.368 . S
C251 C235 1.349 . S
C251 H243 0.950 . S
C251 C249 1.327 . S
C252 C240 1.349 . S
C252 H246 0.950 . S
C252 C253 1.327 . S
C253 H247 0.950 . S
C253 C252 1.327 . S
C253 C257 1.429 . S
C254 C237 1.574 . S
C254 H248 0.949 . S
C254 C258 1.368 . S
C255 C236 1.429 . S
C255 C249 1.429 . S
C255 C256 1.523 . S
C256 C237 1.368 . S
C256 C250 1.368 . S
C256 C255 1.523 . S
C257 C241 1.429 . S
C257 C253 1.429 . S
C257 C258 1.523 . S
C258 C242 1.368 . S
C258 C254 1.368 . S
C258 C257 1.523 . S
H259 C234 0.950 . S
H260 C236 0.950 . S
H261 C237 0.949 . S
H262 C239 0.950 . S
H263 C241 0.950 . S
C264 C265 1.349 . S
C264 C266 1.327 . S
C264 H289 0.950 . S
C265 C264 1.349 . S
C265 C281 1.349 . S
C266 C264 1.327 . S
C266 C285 1.429 . S
C266 H290 0.950 . S
C267 C284 1.574 . S
C267 C286 1.368 . S
C267 H291 0.949 . S
H268 C272 0.949 . S
C269 C270 1.349 . S
C269 C271 1.327 . S
C269 H292 0.950 . S
C270 C269 1.349 . S
C270 C282 1.349 . S
C271 C269 1.327 . S
C271 C287 1.429 . S
C271 H293 0.950 . S
C272 H268 0.949 . S
C272 C280 1.574 . S
C272 C288 1.368 . S
H273 C281 0.950 . S
H274 C279 0.950 . S
H275 C280 0.949 . S
H276 C282 0.950 . S
H277 C283 0.950 . S
H278 C284 0.949 . S
C279 H274 0.950 . S
C279 C281 1.327 . S
C279 C285 1.429 . S
C280 C272 1.574 . S
C280 H275 0.949 . S
C280 C286 1.368 . S
C281 C265 1.349 . S
C281 H273 0.950 . S
C281 C279 1.327 . S
C282 C270 1.349 . S
C282 H276 0.950 . S
C282 C283 1.327 . S
C283 H277 0.950 . S
C283 C282 1.327 . S
C283 C287 1.429 . S
C284 C267 1.574 . S
C284 H278 0.949 . S
C284 C288 1.368 . S
C285 C266 1.429 . S
C285 C279 1.429 . S
C285 C286 1.523 . S
C286 C267 1.368 . S
C286 C280 1.368 . S
C286 C285 1.523 . S
C287 C271 1.429 . S
C287 C283 1.429 . S
C287 C288 1.523 . S
C288 C272 1.368 . S
C288 C284 1.368 . S
C288 C287 1.523 . S
H289 C264 0.950 . S
H290 C266 0.950 . S
H291 C267 0.949 . S
H292 C269 0.950 . S
H293 C271 0.950 . S
C294 C295 1.349 . S
C294 C296 1.327 . S
C294 H319 0.950 . S
C295 C294 1.349 . S
C295 C311 1.349 . S
C296 C294 1.327 . S
C296 C315 1.429 . S
C296 H320 0.950 . S
C297 C314 1.574 . S
C297 C316 1.368 . S
C297 H321 0.949 . S
H298 C302 0.949 . S
C299 C300 1.349 . S
C299 C301 1.327 . S
C299 H322 0.950 . S
C300 C299 1.349 . S
C300 C312 1.349 . S
C301 C299 1.327 . S
C301 C317 1.429 . S
C301 H323 0.950 . S
C302 H298 0.949 . S
C302 C310 1.574 . S
C302 C318 1.368 . S
H303 C311 0.950 . S
H304 C309 0.950 . S
H305 C310 0.949 . S
H306 C312 0.950 . S
H307 C313 0.950 . S
H308 C314 0.949 . S
C309 H304 0.950 . S
C309 C311 1.327 . S
C309 C315 1.429 . S
C310 C302 1.574 . S
C310 H305 0.949 . S
C310 C316 1.368 . S
C311 C295 1.349 . S
C311 H303 0.950 . S
C311 C309 1.327 . S
C312 C300 1.349 . S
C312 H306 0.950 . S
C312 C313 1.327 . S
C313 H307 0.950 . S
C313 C312 1.327 . S
C313 C317 1.429 . S
C314 C297 1.574 . S
C314 H308 0.949 . S
C314 C318 1.368 . S
C315 C296 1.429 . S
C315 C309 1.429 . S
C315 C316 1.523 . S
C316 C297 1.368 . S
C316 C310 1.368 . S
C316 C315 1.523 . S
C317 C301 1.429 . S
C317 C313 1.429 . S
C317 C318 1.523 . S
C318 C302 1.368 . S
C318 C314 1.368 . S
C318 C317 1.523 . S
H319 C294 0.950 . S
H320 C296 0.950 . S
H321 C297 0.949 . S
H322 C299 0.950 . S
H323 C301 0.950 . S
C324 C325 1.349 . S
C324 C326 1.327 . S
C324 H349 0.950 . S
C325 C324 1.349 . S
C325 C341 1.349 . S
C326 C324 1.327 . S
C326 C345 1.429 . S
C326 H350 0.950 . S
C327 C344 1.574 . S
C327 C346 1.368 . S
C327 H351 0.949 . S
H328 C332 0.949 . S
C329 C330 1.349 . S
C329 C331 1.327 . S
C329 H352 0.950 . S
C330 C329 1.349 . S
C330 C342 1.349 . S
C331 C329 1.327 . S
C331 C347 1.429 . S
C331 H353 0.950 . S
C332 H328 0.949 . S
C332 C340 1.574 . S
C332 C348 1.368 . S
H333 C341 0.950 . S
H334 C339 0.950 . S
H335 C340 0.949 . S
H336 C342 0.950 . S
H337 C343 0.950 . S
H338 C344 0.949 . S
C339 H334 0.950 . S
C339 C341 1.327 . S
C339 C345 1.429 . S
C340 C332 1.574 . S
C340 H335 0.949 . S
C340 C346 1.368 . S
C341 C325 1.349 . S
C341 H333 0.950 . S
C341 C339 1.327 . S
C342 C330 1.349 . S
C342 H336 0.950 . S
C342 C343 1.327 . S
C343 H337 0.950 . S
C343 C342 1.327 . S
C343 C347 1.429 . S
C344 C327 1.574 . S
C344 H338 0.949 . S
C344 C348 1.368 . S
C345 C326 1.429 . S
C345 C339 1.429 . S
C345 C346 1.523 . S
C346 C327 1.368 . S
C346 C340 1.368 . S
C346 C345 1.523 . S
C347 C331 1.429 . S
C347 C343 1.429 . S
C347 C348 1.523 . S
C348 C332 1.368 . S
C348 C344 1.368 . S
C348 C347 1.523 . S
H349 C324 0.950 . S
H350 C326 0.950 . S
H351 C327 0.949 . S
H352 C329 0.950 . S
H353 C331 0.950 . S
C354 C355 1.349 . S
C354 C356 1.327 . S
C354 H379 0.950 . S
C355 C354 1.349 . S
C355 C371 1.349 . S
C356 C354 1.327 . S
C356 C375 1.429 . S
C356 H380 0.950 . S
C357 C374 1.574 . S
C357 C376 1.368 . S
C357 H381 0.949 . S
H358 C362 0.949 . S
C359 C360 1.349 . S
C359 C361 1.327 . S
C359 H382 0.950 . S
C360 C359 1.349 . S
C360 C372 1.349 . S
C361 C359 1.327 . S
C361 C377 1.429 . S
C361 H383 0.950 . S
C362 H358 0.949 . S
C362 C370 1.574 . S
C362 C378 1.368 . S
H363 C371 0.950 . S
H364 C369 0.950 . S
H365 C370 0.949 . S
H366 C372 0.950 . S
H367 C373 0.950 . S
H368 C374 0.949 . S
C369 H364 0.950 . S
C369 C371 1.327 . S
C369 C375 1.429 . S
C370 C362 1.574 . S
C370 H365 0.949 . S
C370 C376 1.368 . S
C371 C355 1.349 . S
C371 H363 0.950 . S
C371 C369 1.327 . S
C372 C360 1.349 . S
C372 H366 0.950 . S
C372 C373 1.327 . S
C373 H367 0.950 . S
C373 C372 1.327 . S
C373 C377 1.429 . S
C374 C357 1.574 . S
C374 H368 0.949 . S
C374 C378 1.368 . S
C375 C356 1.429 . S
C375 C369 1.429 . S
C375 C376 1.523 . S
C376 C357 1.368 . S
C376 C370 1.368 . S
C376 C375 1.523 . S
C377 C361 1.429 . S
C377 C373 1.429 . S
C377 C378 1.523 . S
C378 C362 1.368 . S
C378 C374 1.368 . S
C378 C377 1.523 . S
H379 C354 0.950 . S
H380 C356 0.950 . S
H381 C357 0.949 . S
H382 C359 0.950 . S
H383 C361 0.950 . S
C384 C385 1.349 . S
C384 C386 1.327 . S
C384 H409 0.950 . S
C385 C384 1.349 . S
C385 C401 1.349 . S
C386 C384 1.327 . S
C386 C405 1.429 . S
C386 H410 0.950 . S
C387 C404 1.574 . S
C387 C406 1.368 . S
C387 H411 0.949 . S
H388 C392 0.949 . S
C389 C390 1.349 . S
C389 C391 1.327 . S
C389 H412 0.950 . S
C390 C389 1.349 . S
C390 C402 1.349 . S
C391 C389 1.327 . S
C391 C407 1.429 . S
C391 H413 0.950 . S
C392 H388 0.949 . S
C392 C400 1.574 . S
C392 C408 1.368 . S
H393 C401 0.950 . S
H394 C399 0.950 . S
H395 C400 0.949 . S
H396 C402 0.950 . S
H397 C403 0.950 . S
H398 C404 0.949 . S
C399 H394 0.950 . S
C399 C401 1.327 . S
C399 C405 1.429 . S
C400 C392 1.574 . S
C400 H395 0.949 . S
C400 C406 1.368 . S
C401 C385 1.349 . S
C401 H393 0.950 . S
C401 C399 1.327 . S
C402 C390 1.349 . S
C402 H396 0.950 . S
C402 C403 1.327 . S
C403 H397 0.950 . S
C403 C402 1.327 . S
C403 C407 1.429 . S
C404 C387 1.574 . S
C404 H398 0.949 . S
C404 C408 1.368 . S
C405 C386 1.429 . S
C405 C399 1.429 . S
C405 C406 1.523 . S
C406 C387 1.368 . S
C406 C400 1.368 . S
C406 C405 1.523 . S
C407 C391 1.429 . S
C407 C403 1.429 . S
C407 C408 1.523 . S
C408 C392 1.368 . S
C408 C404 1.368 . S
C408 C407 1.523 . S
H409 C384 0.950 . S
H410 C386 0.950 . S
H411 C387 0.949 . S
H412 C389 0.950 . S
H413 C391 0.950 . S
C414 C415 1.349 . S
C414 C416 1.327 . S
C414 H439 0.950 . S
C415 C414 1.349 . S
C415 C431 1.349 . S
C416 C414 1.327 . S
C416 C435 1.429 . S
C416 H440 0.950 . S
C417 C434 1.574 . S
C417 C436 1.368 . S
C417 H441 0.949 . S
H418 C422 0.949 . S
C419 C420 1.349 . S
C419 C421 1.327 . S
C419 H442 0.950 . S
C420 C419 1.349 . S
C420 C432 1.349 . S
C421 C419 1.327 . S
C421 C437 1.429 . S
C421 H443 0.950 . S
C422 H418 0.949 . S
C422 C430 1.574 . S
C422 C438 1.368 . S
H423 C431 0.950 . S
H424 C429 0.950 . S
H425 C430 0.949 . S
H426 C432 0.950 . S
H427 C433 0.950 . S
H428 C434 0.949 . S
C429 H424 0.950 . S
C429 C431 1.327 . S
C429 C435 1.429 . S
C430 C422 1.574 . S
C430 H425 0.949 . S
C430 C436 1.368 . S
C431 C415 1.349 . S
C431 H423 0.950 . S
C431 C429 1.327 . S
C432 C420 1.349 . S
C432 H426 0.950 . S
C432 C433 1.327 . S
C433 H427 0.950 . S
C433 C432 1.327 . S
C433 C437 1.429 . S
C434 C417 1.574 . S
C434 H428 0.949 . S
C434 C438 1.368 . S
C435 C416 1.429 . S
C435 C429 1.429 . S
C435 C436 1.523 . S
C436 C417 1.368 . S
C436 C430 1.368 . S
C436 C435 1.523 . S
C437 C421 1.429 . S
C437 C433 1.429 . S
C437 C438 1.523 . S
C438 C422 1.368 . S
C438 C434 1.368 . S
C438 C437 1.523 . S
H439 C414 0.950 . S
H440 C416 0.950 . S
H441 C417 0.949 . S
H442 C419 0.950 . S
H443 C421 0.950 . S
C444 C445 1.349 . S
C444 C446 1.327 . S
C444 H469 0.950 . S
C445 C444 1.349 . S
C445 C461 1.349 . S
C446 C444 1.327 . S
C446 C465 1.429 . S
C446 H470 0.950 . S
C447 C464 1.574 . S
C447 C466 1.368 . S
C447 H471 0.949 . S
H448 C452 0.949 . S
C449 C450 1.349 . S
C449 C451 1.327 . S
C449 H472 0.950 . S
C450 C449 1.349 . S
C450 C462 1.349 . S
C451 C449 1.327 . S
C451 C467 1.429 . S
C451 H473 0.950 . S
C452 H448 0.949 . S
C452 C460 1.574 . S
C452 C468 1.368 . S
H453 C461 0.950 . S
H454 C459 0.950 . S
H455 C460 0.949 . S
H456 C462 0.950 . S
H457 C463 0.950 . S
H458 C464 0.949 . S
C459 H454 0.950 . S
C459 C461 1.327 . S
C459 C465 1.429 . S
C460 C452 1.574 . S
C460 H455 0.949 . S
C460 C466 1.368 . S
C461 C445 1.349 . S
C461 H453 0.950 . S
C461 C459 1.327 . S
C462 C450 1.349 . S
C462 H456 0.950 . S
C462 C463 1.327 . S
C463 H457 0.950 . S
C463 C462 1.327 . S
C463 C467 1.429 . S
C464 C447 1.574 . S
C464 H458 0.949 . S
C464 C468 1.368 . S
C465 C446 1.429 . S
C465 C459 1.429 . S
C465 C466 1.523 . S
C466 C447 1.368 . S
C466 C460 1.368 . S
C466 C465 1.523 . S
C467 C451 1.429 . S
C467 C463 1.429 . S
C467 C468 1.523 . S
C468 C452 1.368 . S
C468 C464 1.368 . S
C468 C467 1.523 . S
H469 C444 0.950 . S
H470 C446 0.950 . S
H471 C447 0.949 . S
H472 C449 0.950 . S
H473 C451 0.950 . S
C474 C475 1.349 . S
C474 C476 1.327 . S
C474 H499 0.950 . S
C475 C474 1.349 . S
C475 C491 1.349 . S
C476 C474 1.327 . S
C476 C495 1.429 . S
C476 H500 0.950 . S
C477 C494 1.574 . S
C477 C496 1.368 . S
C477 H501 0.949 . S
H478 C482 0.949 . S
C479 C480 1.349 . S
C479 C481 1.327 . S
C479 H502 0.950 . S
C480 C479 1.349 . S
C480 C492 1.349 . S
C481 C479 1.327 . S
C481 C497 1.429 . S
C481 H503 0.950 . S
C482 H478 0.949 . S
C482 C490 1.574 . S
C482 C498 1.368 . S
H483 C491 0.950 . S
H484 C489 0.950 . S
H485 C490 0.949 . S
H486 C492 0.950 . S
H487 C493 0.950 . S
H488 C494 0.949 . S
C489 H484 0.950 . S
C489 C491 1.327 . S
C489 C495 1.429 . S
C490 C482 1.574 . S
C490 H485 0.949 . S
C490 C496 1.368 . S
C491 C475 1.349 . S
C491 H483 0.950 . S
C491 C489 1.327 . S
C492 C480 1.349 . S
C492 H486 0.950 . S
C492 C493 1.327 . S
C493 H487 0.950 . S
C493 C492 1.327 . S
C493 C497 1.429 . S
C494 C477 1.574 . S
C494 H488 0.949 . S
C494 C498 1.368 . S
C495 C476 1.429 . S
C495 C489 1.429 . S
C495 C496 1.523 . S
C496 C477 1.368 . S
C496 C490 1.368 . S
C496 C495 1.523 . S
C497 C481 1.429 . S
C497 C493 1.429 . S
C497 C498 1.523 . S
C498 C482 1.368 . S
C498 C494 1.368 . S
C498 C497 1.523 . S
H499 C474 0.950 . S
H500 C476 0.950 . S
H501 C477 0.949 . S
H502 C479 0.950 . S
H503 C481 0.950 . S
C504 C505 1.349 . S
C504 C506 1.327 . S
C504 H529 0.950 . S
C505 C504 1.349 . S
C505 C521 1.349 . S
C506 C504 1.327 . S
C506 C525 1.429 . S
C506 H530 0.950 . S
C507 C524 1.574 . S
C507 C526 1.368 . S
C507 H531 0.949 . S
H508 C512 0.949 . S
C509 C510 1.349 . S
C509 C511 1.327 . S
C509 H532 0.950 . S
C510 C509 1.349 . S
C510 C522 1.349 . S
C511 C509 1.327 . S
C511 C527 1.429 . S
C511 H533 0.950 . S
C512 H508 0.949 . S
C512 C520 1.574 . S
C512 C528 1.368 . S
H513 C521 0.950 . S
H514 C519 0.950 . S
H515 C520 0.949 . S
H516 C522 0.950 . S
H517 C523 0.950 . S
H518 C524 0.949 . S
C519 H514 0.950 . S
C519 C521 1.327 . S
C519 C525 1.429 . S
C520 C512 1.574 . S
C520 H515 0.949 . S
C520 C526 1.368 . S
C521 C505 1.349 . S
C521 H513 0.950 . S
C521 C519 1.327 . S
C522 C510 1.349 . S
C522 H516 0.950 . S
C522 C523 1.327 . S
C523 H517 0.950 . S
C523 C522 1.327 . S
C523 C527 1.429 . S
C524 C507 1.574 . S
C524 H518 0.949 . S
C524 C528 1.368 . S
C525 C506 1.429 . S
C525 C519 1.429 . S
C525 C526 1.523 . S
C526 C507 1.368 . S
C526 C520 1.368 . S
C526 C525 1.523 . S
C527 C511 1.429 . S
C527 C523 1.429 . S
C527 C528 1.523 . S
C528 C512 1.368 . S
C528 C524 1.368 . S
C528 C527 1.523 . S
H529 C504 0.950 . S
H530 C506 0.950 . S
H531 C507 0.949 . S
H532 C509 0.950 . S
H533 C511 0.950 . S
C534 C535 1.349 . S
C534 C536 1.327 . S
C534 H559 0.950 . S
C535 C534 1.349 . S
C535 C551 1.349 1_455 S
C536 C534 1.327 . S
C536 C555 1.429 . S
C536 H560 0.950 . S
C537 C554 1.574 . S
C537 C556 1.368 1_655 S
C537 H561 0.949 . S
H538 C542 0.949 . S
C539 C540 1.349 . S
C539 C541 1.327 . S
C539 H562 0.950 1_455 S
C540 C539 1.349 . S
C540 C552 1.349 . S
C541 C539 1.327 . S
C541 C557 1.429 . S
C541 H563 0.950 1_455 S
C542 H538 0.949 . S
C542 C550 1.574 . S
C542 C558 1.374 . S
H543 C551 0.950 . S
H544 C549 0.950 . S
H545 C550 0.949 . S
H546 C552 0.950 . S
H547 C553 0.950 . S
H548 C554 0.949 1_556 S
C549 H544 0.950 . S
C549 C551 1.327 . S
C549 C555 1.429 1_655 S
C550 C542 1.574 . S
C550 H545 0.949 . S
C550 C556 1.368 . S
C551 C535 1.349 1_655 S
C551 H543 0.950 . S
C551 C549 1.327 . S
C552 C540 1.349 . S
C552 H546 0.950 . S
C552 C553 1.327 . S
C553 H547 0.950 . S
C553 C552 1.327 . S
C553 C557 1.429 . S
C554 C537 1.574 . S
C554 H548 0.949 1_554 S
C554 C558 1.373 1_655 S
C555 C536 1.429 . S
C555 C549 1.429 1_455 S
C555 C556 1.523 . S
C556 C537 1.368 1_455 S
C556 C550 1.368 . S
C556 C555 1.523 . S
C557 C541 1.429 . S
C557 C553 1.429 . S
C557 C558 1.510 1_556 S
C558 C542 1.374 . S
C558 C554 1.373 1_455 S
C558 C557 1.510 1_554 S
H559 C534 0.950 . S
H560 C536 0.950 . S
H561 C537 0.949 . S
H562 C539 0.950 1_655 S
H563 C541 0.950 1_655 S
C564 C565 1.349 . S
C564 C566 1.327 . S
C564 H589 0.950 . S
C565 C564 1.349 . S
C565 C581 1.349 1_545 S
C566 C564 1.327 . S
C566 C585 1.429 . S
C566 H590 0.950 . S
C567 C584 1.574 . S
C567 C586 1.368 1_565 S
C567 H591 0.949 . S
H568 C572 0.949 . S
C569 C570 1.349 1_565 S
C569 C571 1.327 . S
C569 H592 0.950 . S
C570 C569 1.349 1_545 S
C570 C582 1.349 . S
C571 C569 1.327 . S
C571 C587 1.429 1_565 S
C571 H593 0.950 . S
C572 H568 0.949 . S
C572 C580 1.574 . S
C572 C588 1.368 . S
H573 C581 0.950 . S
H574 C579 0.950 . S
H575 C580 0.949 . S
H576 C582 0.950 . S
H577 C583 0.950 . S
H578 C584 0.949 . S
C579 H574 0.950 . S
C579 C581 1.327 . S
C579 C585 1.429 1_565 S
C580 C572 1.574 . S
C580 H575 0.949 . S
C580 C586 1.368 . S
C581 C565 1.349 1_565 S
C581 H573 0.950 . S
C581 C579 1.327 . S
C582 C570 1.349 . S
C582 H576 0.950 . S
C582 C583 1.327 . S
C583 H577 0.950 . S
C583 C582 1.327 . S
C583 C587 1.429 . S
C584 C567 1.574 . S
C584 H578 0.949 . S
C584 C588 1.368 1_565 S
C585 C566 1.429 . S
C585 C579 1.429 1_545 S
C585 C586 1.523 . S
C586 C567 1.368 1_545 S
C586 C580 1.368 . S
C586 C585 1.523 . S
C587 C571 1.429 1_545 S
C587 C583 1.429 . S
C587 C588 1.523 . S
C588 C572 1.368 . S
C588 C584 1.368 1_545 S
C588 C587 1.523 . S
H589 C564 0.950 . S
H590 C566 0.950 . S
H591 C567 0.949 . S
H592 C569 0.950 . S
H593 C571 0.950 . S
C594 C595 1.349 . S
C594 C596 1.327 . S
C594 H619 0.950 . S
C595 C594 1.349 . S
C595 C611 1.349 . S
C596 C594 1.327 . S
C596 C615 1.429 . S
C596 H620 0.950 . S
C597 C614 1.574 . S
C597 C616 1.368 . S
C597 H621 0.949 . S
H598 C602 0.949 . S
C599 C600 1.349 . S
C599 C601 1.327 . S
C599 H622 0.950 . S
C600 C599 1.349 . S
C600 C612 1.349 . S
C601 C599 1.327 . S
C601 C617 1.429 . S
C601 H623 0.950 . S
C602 H598 0.949 . S
C602 C610 1.574 . S
C602 C618 1.368 . S
H603 C611 0.950 . S
H604 C609 0.950 . S
H605 C610 0.949 . S
H606 C612 0.950 . S
H607 C613 0.950 . S
H608 C614 0.949 . S
C609 H604 0.950 . S
C609 C611 1.327 . S
C609 C615 1.429 . S
C610 C602 1.574 . S
C610 H605 0.949 . S
C610 C616 1.368 . S
C611 C595 1.349 . S
C611 H603 0.950 . S
C611 C609 1.327 . S
C612 C600 1.349 . S
C612 H606 0.950 . S
C612 C613 1.327 . S
C613 H607 0.950 . S
C613 C612 1.327 . S
C613 C617 1.429 . S
C614 C597 1.574 . S
C614 H608 0.949 . S
C614 C618 1.368 . S
C615 C596 1.429 . S
C615 C609 1.429 . S
C615 C616 1.523 . S
C616 C597 1.368 . S
C616 C610 1.368 . S
C616 C615 1.523 . S
C617 C601 1.429 . S
C617 C613 1.429 . S
C617 C618 1.523 . S
C618 C602 1.368 . S
C618 C614 1.368 . S
C618 C617 1.523 . S
H619 C594 0.950 . S
H620 C596 0.950 . S
H621 C597 0.949 . S
H622 C599 0.950 . S
H623 C601 0.950 . S
C624 C625 1.349 . S
C624 C626 1.327 . S
C624 H649 0.950 . S
C625 C624 1.349 . S
C625 C641 1.349 1_545 S
C626 C624 1.327 . S
C626 C645 1.429 . S
C626 H650 0.950 . S
C627 C644 1.574 . S
C627 C646 1.368 1_565 S
C627 H651 0.949 . S
H628 C632 0.949 . S
C629 C630 1.323 1_565 S
C629 C631 1.327 . S
C629 H652 0.950 . S
C630 C629 1.323 1_545 S
C630 C642 1.377 . S
C631 C629 1.327 . S
C631 C647 1.429 1_565 S
C631 H653 0.950 . S
C632 H628 0.949 . S
C632 C640 1.574 . S
C632 C648 1.368 . S
H633 C641 0.950 . S
H634 C639 0.950 . S
H635 C640 0.949 . S
H636 C642 0.950 . S
H637 C643 0.950 . S
H638 C644 0.949 . S
C639 H634 0.950 . S
C639 C641 1.327 . S
C639 C645 1.429 1_565 S
C640 C632 1.574 . S
C640 H635 0.949 . S
C640 C646 1.368 . S
C641 C625 1.349 1_565 S
C641 H633 0.950 . S
C641 C639 1.327 . S
C642 C630 1.377 . S
C642 H636 0.950 . S
C642 C643 1.327 . S
C643 H637 0.950 . S
C643 C642 1.327 . S
C643 C647 1.429 . S
C644 C627 1.574 . S
C644 H638 0.949 . S
C644 C648 1.368 1_565 S
C645 C626 1.429 . S
C645 C639 1.429 1_545 S
C645 C646 1.523 . S
C646 C627 1.368 1_545 S
C646 C640 1.368 . S
C646 C645 1.523 . S
C647 C631 1.429 1_545 S
C647 C643 1.429 . S
C647 C648 1.523 . S
C648 C632 1.368 . S
C648 C644 1.368 1_545 S
C648 C647 1.523 . S
H649 C624 0.950 . S
H650 C626 0.950 . S
H651 C627 0.949 . S
H652 C629 0.950 . S
H653 C631 0.950 . S
C654 C655 1.349 . S
C654 C656 1.327 . S
C654 H679 0.950 . S
C655 C654 1.349 . S
C655 C671 1.349 . S
C656 C654 1.327 . S
C656 C675 1.429 . S
C656 H680 0.950 . S
C657 C674 1.574 . S
C657 C676 1.368 . S
C657 H681 0.949 . S
H658 C662 0.949 . S
C659 C660 1.349 . S
C659 C661 1.327 . S
C659 H682 0.950 . S
C660 C659 1.349 . S
C660 C672 1.349 . S
C661 C659 1.327 . S
C661 C677 1.429 . S
C661 H683 0.950 . S
C662 H658 0.949 . S
C662 C670 1.574 . S
C662 C678 1.368 . S
H663 C671 0.950 . S
H664 C669 0.950 . S
H665 C670 0.949 . S
H666 C672 0.950 . S
H667 C673 0.950 . S
H668 C674 0.949 . S
C669 H664 0.950 . S
C669 C671 1.327 . S
C669 C675 1.429 . S
C670 C662 1.574 . S
C670 H665 0.949 . S
C670 C676 1.368 . S
C671 C655 1.349 . S
C671 H663 0.950 . S
C671 C669 1.327 . S
C672 C660 1.349 . S
C672 H666 0.950 . S
C672 C673 1.327 . S
C673 H667 0.950 . S
C673 C672 1.327 . S
C673 C677 1.429 . S
C674 C657 1.574 . S
C674 H668 0.949 . S
C674 C678 1.368 . S
C675 C656 1.429 . S
C675 C669 1.429 . S
C675 C676 1.523 . S
C676 C657 1.368 . S
C676 C670 1.368 . S
C676 C675 1.523 . S
C677 C661 1.429 . S
C677 C673 1.429 . S
C677 C678 1.523 1_554 S
C678 C662 1.368 . S
C678 C674 1.368 . S
C678 C677 1.523 1_556 S
H679 C654 0.950 . S
H680 C656 0.950 . S
H681 C657 0.949 . S
H682 C659 0.950 . S
H683 C661 0.950 . S
C684 C685 1.349 . S
C684 C686 1.327 . S
C684 H709 0.950 . S
C685 C684 1.349 . S
C685 C701 1.349 . S
C686 C684 1.327 . S
C686 C705 1.429 . S
C686 H710 0.950 . S
C687 C704 1.574 . S
C687 C706 1.368 . S
C687 H711 0.949 . S
H688 C692 0.949 . S
C689 C690 1.349 1_455 S
C689 C691 1.327 . S
C689 H712 0.950 . S
C690 C689 1.349 1_655 S
C690 C702 1.347 1_655 S
C691 C689 1.327 . S
C691 C707 1.429 . S
C691 H713 0.950 . S
C692 H688 0.949 . S
C692 C700 1.574 . S
C692 C708 1.368 . S
H693 C701 0.950 . S
H694 C699 0.950 . S
H695 C700 0.949 . S
H696 C702 0.952 1_655 S
H697 C703 0.950 . S
H698 C704 0.949 . S
C699 H694 0.950 . S
C699 C701 1.327 . S
C699 C705 1.429 . S
C700 C692 1.574 . S
C700 H695 0.949 . S
C700 C706 1.368 . S
C701 C685 1.349 . S
C701 H693 0.950 . S
C701 C699 1.327 . S
C702 C690 1.347 1_455 S
C702 H696 0.952 1_455 S
C702 C703 1.327 . S
C703 H697 0.950 . S
C703 C702 1.327 . S
C703 C707 1.429 . S
C704 C687 1.574 . S
C704 H698 0.949 . S
C704 C708 1.368 . S
C705 C686 1.429 . S
C705 C699 1.429 . S
C705 C706 1.523 . S
C706 C687 1.368 . S
C706 C700 1.368 . S
C706 C705 1.523 . S
C707 C691 1.429 . S
C707 C703 1.429 . S
C707 C708 1.523 . S
C708 C692 1.368 . S
C708 C704 1.368 . S
C708 C707 1.523 . S
H709 C684 0.950 . S
H710 C686 0.950 . S
H711 C687 0.949 . S
H712 C689 0.950 . S
H713 C691 0.950 . S
C175 C6 0.480 . S
C180 C169 0.423 . S
C205 C59 1.766 . S
C210 C151 1.751 . S
C235 C86 1.177 . S
C240 C163 1.194 . S
C265 C15 0.420 . S
C270 C172 0.273 . S
C300 C154 1.786 . S
C295 C50 1.774 . S
C330 C160 1.280 . S
C325 C95 1.259 . S
C355 C46 1.170 . S
C360 C133 1.185 . S
C385 C99 2.961 . S
C390 C142 2.934 1_655 S
C415 C10 1.811 . S
C420 C124 1.841 . S
C450 C136 1.253 . S
C445 C55 1.229 . S
C480 C145 2.847 . S
C475 C90 2.823 . S
C505 C19 1.744 . S
C510 C127 1.732 . S
C540 C143 1.779 . S
C535 C18 1.705 . S
C565 C49 1.323 . S
C570 C125 1.375 . S
C595 C98 1.447 . S
C600 C134 1.509 . S
C630 C161 1.485 . S
C625 C58 1.434 . S
C660 C170 1.081 . S
C655 C89 1.058 . S
C685 C9 1.318 . S
C690 C152 1.362 1_655 S
