# Generated by pormake.
# Topology tsx, (6,3)-cn, num edge types: 1
# Building blocks:
#     Node 0, Type 0, BuildingBlock: JUFBIX_clean_sbu_0, # of connection points: 6
#     Node 1, Type 0, BuildingBlock: JUFBIX_clean_sbu_0, # of connection points: 6
#     Node 2, Type 1, BuildingBlock: MIDCAF_clean_linker_0, # of connection points: 3
#     Node 3, Type 1, BuildingBlock: MIDCAF_clean_linker_0, # of connection points: 3
#     Node 4, Type 1, BuildingBlock: MIDCAF_clean_linker_0, # of connection points: 3
#     Node 5, Type 1, BuildingBlock: MIDCAF_clean_linker_0, # of connection points: 3
#     Edge 6, Type (0, 1), BuildingBlock: CIFDUS_clean_linker_0, # of connection points: 2
#     Edge 7, Type (0, 1), BuildingBlock: CIFDUS_clean_linker_0, # of connection points: 2
#     Edge 8, Type (0, 1), BuildingBlock: CIFDUS_clean_linker_0, # of connection points: 2
#     Edge 9, Type (0, 1), BuildingBlock: CIFDUS_clean_linker_0, # of connection points: 2
#     Edge 10, Type (0, 1), BuildingBlock: CIFDUS_clean_linker_0, # of connection points: 2
#     Edge 11, Type (0, 1), BuildingBlock: CIFDUS_clean_linker_0, # of connection points: 2
#     Edge 12, Type (0, 1), BuildingBlock: CIFDUS_clean_linker_0, # of connection points: 2
#     Edge 13, Type (0, 1), BuildingBlock: CIFDUS_clean_linker_0, # of connection points: 2
#     Edge 14, Type (0, 1), BuildingBlock: CIFDUS_clean_linker_0, # of connection points: 2
#     Edge 15, Type (0, 1), BuildingBlock: CIFDUS_clean_linker_0, # of connection points: 2
#     Edge 16, Type (0, 1), BuildingBlock: CIFDUS_clean_linker_0, # of connection points: 2
#     Edge 17, Type (0, 1), BuildingBlock: CIFDUS_clean_linker_0, # of connection points: 2
# Relax obj value: 0.160
# Max RMSD: 0.168
# Mean RMSD: 0.136
data_MOF--net-tsx--node1-JUFBIX_clean_sbu_0--node2-MIDCAF_clean_linker_0--edge1-CIFDUS_clean_linker_0
_symmetry_space_group_name_H-M    P1
_symmetry_Int_Tables_number       1
_symmetry_cell_setting            triclinic
loop_
_symmetry_equiv_pos_as_xyz
'x, y, z'
_cell_length_a     21.508682
_cell_length_b     25.627532
_cell_length_c     39.145092
_cell_angle_alpha  92.391078
_cell_angle_beta   89.12078
_cell_angle_gamma 98.880173
loop_
_atom_site_label
_atom_site_type_symbol
_atom_site_fract_x
_atom_site_fract_y
_atom_site_fract_z
_atom_type_partial_charge
Co0 Co 0.04619 0.98366 0.01958 0.0
C1 C 0.01189 0.00463 0.95402 0.0
Co2 Co 0.96409 0.02612 0.01824 0.0
C3 C 0.12885 0.90415 0.00623 0.0
C4 C 0.16676 0.96623 0.04174 0.0
N5 N 0.1167 0.94985 0.02155 0.0
N6 N 0.18438 0.89132 0.01632 0.0
C7 C 0.20826 0.9306 0.03856 0.0
H8 H 0.09683 0.88015 0.98871 0.0
H9 H 0.17236 0.0016 0.05818 0.0
C10 C 0.99823 0.00587 0.08386 0.0
N11 N 0.89371 0.0599 0.0184 0.0
C12 C 0.88576 0.10597 0.00477 0.0
C13 C 0.84036 0.045 0.0364 0.0
N14 N 0.82989 0.12057 0.01398 0.0
C15 C 0.80118 0.08214 0.03376 0.0
C16 C 0.93272 0.91645 0.01552 0.0
O17 O 0.04141 0.98538 0.06836 0.0
O18 O 0.95904 0.02569 0.06653 0.0
O19 O 0.91168 0.96005 0.01515 0.0
O20 O 0.99178 0.91689 0.01788 0.0
O21 O 0.96976 0.02625 0.9699 0.0
H22 H 0.83129 0.01004 0.05137 0.0
H23 H 0.92123 0.12933 0.98951 0.0
O24 O 0.05028 0.98271 0.97092 0.0
O25 O 0.09926 0.05084 0.02089 0.0
O26 O 0.01723 0.09208 0.02107 0.0
C27 C 0.07654 0.09383 0.02131 0.0
H28 H 0.25286 0.93371 0.05149 0.0
H29 H 0.75519 0.08104 0.04559 0.0
Co30 Co 0.53949 0.48711 0.50705 0.0
C31 C 0.4974 0.52458 0.44577 0.0
Co32 Co 0.47107 0.54319 0.51238 0.0
C33 C 0.60591 0.39511 0.50547 0.0
C34 C 0.65254 0.46062 0.47784 0.0
N35 N 0.6018 0.44552 0.49787 0.0
N36 N 0.65717 0.37875 0.4908 0.0
C37 C 0.68635 0.4197 0.47337 0.0
H38 H 0.57055 0.37013 0.51985 0.0
H39 H 0.66286 0.49832 0.46588 0.0
C40 C 0.51253 0.50585 0.57367 0.0
N41 N 0.40889 0.58449 0.52191 0.0
C42 C 0.40056 0.63216 0.51088 0.0
C43 C 0.36153 0.57153 0.54443 0.0
N44 N 0.34971 0.64934 0.52576 0.0
C45 C 0.32541 0.61109 0.54692 0.0
C46 C 0.41897 0.43513 0.5066 0.0
O47 O 0.54668 0.47978 0.55495 0.0
O48 O 0.4781 0.53477 0.55977 0.0
O49 O 0.4082 0.48249 0.50951 0.0
O50 O 0.47564 0.42659 0.50481 0.0
O51 O 0.4647 0.55132 0.46491 0.0
H52 H 0.35425 0.53577 0.55866 0.0
H53 H 0.43114 0.6536 0.4923 0.0
O54 O 0.53164 0.49485 0.45922 0.0
O55 O 0.60228 0.54813 0.50961 0.0
O56 O 0.53449 0.60364 0.51503 0.0
C57 C 0.59119 0.59536 0.51289 0.0
H58 H 0.72777 0.41912 0.45736 0.0
H59 H 0.28512 0.61188 0.56372 0.0
C60 C 0.81168 0.08961 0.46567 0.0
C61 C 0.82931 0.12857 0.49159 0.0
C62 C 0.88852 0.1307 0.50702 0.0
C63 C 0.9307 0.09744 0.49493 0.0
H64 H 0.0341 0.95065 0.51591 0.0
H65 H 0.09459 0.88934 0.5416 0.0
H66 H 0.21329 0.89271 0.45132 0.0
H67 H 0.15491 0.95486 0.42651 0.0
H68 H 0.07032 0.94499 0.35628 0.0
H69 H 0.07764 0.9422 0.29431 0.0
H70 H 0.96722 0.06927 0.29119 0.0
H71 H 0.95779 0.07062 0.35333 0.0
H72 H 0.84054 0.02995 0.4318 0.0
H73 H 0.76578 0.08538 0.45398 0.0
H74 H 0.90396 0.16017 0.52697 0.0
H75 H 0.97716 0.10168 0.506 0.0
N76 N 1.00324 0.01139 0.46739 0.0
N77 N 0.04961 0.986 0.4159 0.0
N78 N 0.96566 0.0338 0.41462 0.0
C79 C 0.04704 0.98663 0.45058 0.0
C80 C 0.00944 0.00952 0.3977 0.0
C81 C 0.96238 0.03496 0.44937 0.0
C82 C 0.08905 0.95701 0.46898 0.0
C83 C 0.07413 0.9393 0.50202 0.0
C84 C 0.10851 0.90384 0.51659 0.0
C85 C 0.1584 0.88553 0.49836 0.0
C86 C 0.17568 0.90617 0.46631 0.0
C87 C 0.14157 0.94151 0.45187 0.0
C88 C 0.01343 0.00806 0.35984 0.0
C89 C 0.04751 0.97238 0.34244 0.0
C90 C 0.05208 0.97099 0.30681 0.0
C91 C 0.02331 0.00566 0.28761 0.0
C92 C 0.98921 0.04141 0.30505 0.0
C93 C 0.98403 0.04238 0.34073 0.0
C94 C 0.91477 0.06236 0.46683 0.0
C95 C 0.85428 0.05753 0.45307 0.0
C96 C 0.86836 0.85044 0.57168 0.0
C97 C 0.8375 0.85803 0.54136 0.0
C98 C 0.85242 0.90653 0.52527 0.0
C99 C 0.8966 0.94707 0.53981 0.0
H100 H 0.09699 0.0525 0.52725 0.0
H101 H 0.17596 0.11866 0.50076 0.0
H102 H 0.16091 0.22664 0.58704 0.0
H103 H 0.08346 0.161 0.61359 0.0
H104 H 0.08657 0.07537 0.68747 0.0
H105 H 0.08064 0.07603 0.75005 0.0
H106 H 0.89602 0.98232 0.74463 0.0
H107 H 0.90194 0.98091 0.68234 0.0
H108 H 0.93295 0.88421 0.61031 0.0
H109 H 0.85736 0.81375 0.58485 0.0
H110 H 0.82934 0.91326 0.50181 0.0
H111 H 0.90635 0.98459 0.52753 0.0
N112 N 1.00413 0.02115 0.57244 0.0
N113 N 0.03758 0.06295 0.62512 0.0
N114 N 0.96259 0.98653 0.62404 0.0
C115 C 0.04066 0.06089 0.59034 0.0
C116 C 0.99847 0.02594 0.64212 0.0
C117 C 0.96508 0.98377 0.58937 0.0
C118 C 0.08436 0.10147 0.57259 0.0
C119 C 0.11026 0.09055 0.54034 0.0
C120 C 0.15554 0.12817 0.52527 0.0
C121 C 0.17429 0.17765 0.54188 0.0
C122 C 0.1469 0.18895 0.57357 0.0
C123 C 0.10281 0.15122 0.58885 0.0
C124 C 0.99478 0.02801 0.67995 0.0
C125 C 0.04466 0.05507 0.69965 0.0
C126 C 0.04147 0.05524 0.7354 0.0
C127 C 0.98786 0.02925 0.75205 0.0
C128 C 0.9377 0.00292 0.73239 0.0
C129 C 0.94131 0.00193 0.69674 0.0
C130 C 0.92514 0.93989 0.57098 0.0
C131 C 0.91135 0.89094 0.58638 0.0
C132 C 0.41915 0.66932 0.94555 0.0
C133 C 0.3955 0.66557 0.97912 0.0
C134 C 0.41109 0.62516 -0.00078 0.0
C135 C 0.4481 0.58854 0.98561 0.0
H136 H 0.60828 0.48182 0.00248 0.0
H137 H 0.66105 0.41433 0.02801 0.0
H138 H 0.61257 0.31016 0.93972 0.0
H139 H 0.55991 0.37646 0.91478 0.0
H140 H 0.59029 0.43782 0.84477 0.0
H141 H 0.59743 0.432 0.78269 0.0
H142 H 0.52391 0.57908 0.77753 0.0
H143 H 0.51527 0.58449 0.83959 0.0
H144 H 0.47271 0.63744 0.90593 0.0
H145 H 0.40955 0.70066 0.92962 0.0
H146 H 0.39356 0.62114 0.02521 0.0
H147 H 0.45801 0.55719 0.00143 0.0
N148 N 0.52743 0.51424 0.95424 0.0
N149 N 0.56458 0.47647 0.90366 0.0
N150 N 0.5145 0.55058 0.90105 0.0
C151 C 0.5569 0.47651 0.93809 0.0
C152 C 0.54394 0.51332 0.88493 0.0
C153 C 0.5058 0.5515 0.93556 0.0
C154 C 0.58052 0.43458 0.95661 0.0
C155 C 0.60802 0.44412 0.98903 0.0
C156 C 0.6383 0.40565 0.00349 0.0
C157 C 0.64197 0.35756 0.98541 0.0
C158 C 0.61173 0.34734 0.95383 0.0
C159 C 0.58139 0.3853 0.93964 0.0
C160 C 0.55162 0.51145 0.84725 0.0
C161 C 0.57587 0.46914 0.83048 0.0
C162 C 0.58038 0.46587 0.79485 0.0
C163 C 0.56086 0.50484 0.77519 0.0
C164 C 0.53828 0.54788 0.79197 0.0
C165 C 0.53357 0.5511 0.82758 0.0
C166 C 0.4704 0.59176 0.95166 0.0
C167 C 0.45595 0.63306 0.93204 0.0
C168 C 0.33034 0.3745 0.06418 0.0
C169 C 0.34526 0.34482 0.03506 0.0
C170 C 0.403 0.36019 0.01811 0.0
C171 C 0.44624 0.40259 0.03123 0.0
H172 H 0.57582 0.5761 0.02036 0.0
H173 H 0.66042 0.64041 0.99697 0.0
H174 H 0.77887 0.61795 0.08161 0.0
H175 H 0.69519 0.55386 0.10454 0.0
H176 H 0.58011 0.57725 0.17807 0.0
H177 H 0.57741 0.5763 0.24069 0.0
H178 H 0.46508 0.42145 0.23548 0.0
H179 H 0.46652 0.42249 0.17317 0.0
H180 H 0.36151 0.43672 0.10074 0.0
H181 H 0.2867 0.36353 0.07811 0.0
H182 H 0.41559 0.33836 0.99542 0.0
H183 H 0.49148 0.41196 0.01874 0.0
N184 N 0.53007 0.49605 0.0633 0.0
N185 N 0.57326 0.529 0.11625 0.0
N186 N 0.48018 0.46857 0.11472 0.0
C187 C 0.57597 0.52748 0.08151 0.0
C188 C 0.52548 0.49964 0.133 0.0
C189 C 0.48182 0.46654 0.08004 0.0
C190 C 0.62881 0.56042 0.06439 0.0
C191 C 0.62046 0.58419 0.03345 0.0
C192 C 0.66873 0.62109 0.02019 0.0
C193 C 0.72626 0.63438 0.03753 0.0
C194 C 0.7355 0.60822 0.06742 0.0
C195 C 0.68726 0.57189 0.08076 0.0
C196 C 0.52355 0.49994 0.17073 0.0
C197 C 0.55472 0.54311 0.19031 0.0
C198 C 0.55294 0.54274 0.22604 0.0
C199 C 0.52114 0.49877 0.24264 0.0
C200 C 0.49009 0.45568 0.22313 0.0
C201 C 0.49077 0.45645 0.18752 0.0
C202 C 0.43272 0.42968 0.0617 0.0
C203 C 0.37353 0.4163 0.07734 0.0
H204 H 0.20394 0.11187 0.01299 0.0
H205 H 0.04287 0.19187 0.02986 0.0
H206 H 0.11146 0.27709 0.03192 0.0
H207 H 0.21738 0.32862 0.03204 0.0
H208 H 0.37881 0.2489 0.01665 0.0
H209 H 0.30973 0.16414 0.00973 0.0
C210 C 0.18383 0.14795 0.01707 0.0
C211 C 0.11843 0.1454 0.02168 0.0
C212 C 0.22353 0.19697 0.01812 0.0
C213 C 0.09308 0.1926 0.02649 0.0
C214 C 0.13225 0.24142 0.0276 0.0
C215 C 0.23742 0.29272 0.02696 0.0
C216 C 0.30317 0.29511 0.0251 0.0
C217 C 0.19756 0.24401 0.02388 0.0
C218 C 0.32837 0.24834 0.01787 0.0
C219 C 0.28891 0.19973 0.01432 0.0
H220 H 0.26454 0.84469 0.05281 0.0
H221 H 0.16888 0.83466 0.95615 0.0
H222 H 0.22282 0.76126 0.93698 0.0
H223 H 0.30139 0.7032 0.94652 0.0
H224 H 0.39974 0.71553 0.04248 0.0
H225 H 0.34016 0.78455 0.06316 0.0
C226 C 0.25566 0.82672 0.02747 0.0
C227 C 0.21311 0.84574 0.00582 0.0
C228 C 0.28735 0.7849 0.0165 0.0
C229 C 0.20105 0.82082 0.97341 0.0
C230 C 0.23221 0.77901 0.96236 0.0
C231 C 0.30996 0.72108 0.97194 0.0
C232 C 0.35553 0.70445 0.99278 0.0
C233 C 0.27613 0.76126 0.9835 0.0
C234 C 0.36482 0.72722 0.02596 0.0
C235 C 0.33105 0.767 0.03771 0.0
H236 H 0.95775 0.81549 0.0207 0.0
H237 H 0.80611 0.90509 0.00703 0.0
H238 H 0.72979 0.82472 0.00875 0.0
H239 H 0.70477 0.73051 0.01912 0.0
H240 H 0.85456 0.63994 0.0341 0.0
H241 H 0.93271 0.71892 0.02664 0.0
C242 C 0.90807 0.81731 0.01781 0.0
C243 C 0.88783 0.86641 0.01411 0.0
C244 C 0.86392 0.77076 0.01913 0.0
C245 C 0.8232 0.86799 0.01023 0.0
C246 C 0.77931 0.82198 0.01116 0.0
C247 C 0.75453 0.7277 0.01988 0.0
C248 C 0.77379 0.67948 0.02722 0.0
C249 C 0.79899 0.77334 0.01621 0.0
C250 C 0.83853 0.67677 0.02875 0.0
C251 C 0.88321 0.72192 0.02454 0.0
H252 H 0.75682 0.17541 0.0534 0.0
H253 H 0.84917 0.17177 0.95498 0.0
H254 H 0.80221 0.24789 0.93836 0.0
H255 H 0.72968 0.31158 0.95052 0.0
H256 H 0.63677 0.31565 0.04874 0.0
H257 H 0.68961 0.24338 0.06704 0.0
C258 C 0.76653 0.19129 0.02831 0.0
C259 C 0.80577 0.16764 0.00524 0.0
C260 C 0.73931 0.23499 0.019 0.0
C261 C 0.81927 0.18938 0.97315 0.0
C262 C 0.79219 0.23269 0.96361 0.0
C263 C 0.72125 0.29671 0.97599 0.0
C264 C 0.67889 0.31827 0.99816 0.0
C265 C 0.75141 0.25522 0.98613 0.0
C266 C 0.66922 0.29957 0.03131 0.0
C267 C 0.6991 0.25812 0.04164 0.0
H268 H 0.58757 0.70134 0.50979 0.0
H269 H 0.71494 0.58814 0.51996 0.0
H270 H 0.80324 0.65954 0.52595 0.0
H271 H 0.84371 0.75388 0.5322 0.0
H272 H 0.71816 0.86815 0.52265 0.0
H273 H 0.63017 0.79676 0.51155 0.0
C274 C 0.63469 0.69237 0.51319 0.0
C275 C 0.6444 0.63946 0.51485 0.0
C276 C 0.68571 0.73379 0.51648 0.0
C277 C 0.70591 0.62846 0.5188 0.0
C278 C 0.7566 0.66928 0.5222 0.0
C279 C 0.79716 0.76309 0.5273 0.0
C280 C 0.78721 0.81601 0.52848 0.0
C281 C 0.74692 0.722 0.52159 0.0
C282 C 0.72698 0.82762 0.52164 0.0
C283 C 0.67659 0.78682 0.51567 0.0
H284 H 0.69838 0.32452 0.54092 0.0
H285 H 0.65352 0.31776 0.43397 0.0
H286 H 0.69848 0.23612 0.42538 0.0
H287 H 0.76118 0.17384 0.44671 0.0
H288 H 0.80881 0.17896 0.55366 0.0
H289 H 0.75313 0.25467 0.5639 0.0
C290 C 0.69722 0.30406 0.51608 0.0
C291 C 0.67261 0.32634 0.48806 0.0
C292 C 0.72476 0.25779 0.51125 0.0
C293 C 0.67206 0.30063 0.45574 0.0
C294 C 0.69806 0.25435 0.45085 0.0
C295 C 0.75801 0.19019 0.47255 0.0
C296 C 0.78936 0.17041 0.49934 0.0
C297 C 0.72607 0.23347 0.47821 0.0
C298 C 0.78592 0.19365 0.53241 0.0
C299 C 0.7538 0.23684 0.53833 0.0
H300 H 0.42206 0.32846 0.50192 0.0
H301 H 0.29505 0.44329 0.51409 0.0
H302 H 0.20725 0.37307 0.52266 0.0
H303 H 0.16762 0.28011 0.53197 0.0
H304 H 0.29232 0.16411 0.52021 0.0
H305 H 0.37949 0.23338 0.50557 0.0
C306 C 0.37506 0.33801 0.50605 0.0
C307 C 0.36551 0.39121 0.50779 0.0
C308 C 0.32426 0.29722 0.51109 0.0
C309 C 0.3041 0.40283 0.51288 0.0
C310 C 0.25365 0.36267 0.51783 0.0
C311 C 0.21377 0.27003 0.52576 0.0
C312 C 0.22391 0.21741 0.52743 0.0
C313 C 0.26342 0.30994 0.51779 0.0
C314 C 0.28353 0.20448 0.51894 0.0
C315 C 0.3334 0.2441 0.51086 0.0
H316 H 0.23125 0.66799 0.53797 0.0
H317 H 0.41347 0.74089 0.50188 0.0
H318 H 0.37151 0.8225 0.49279 0.0
H319 H 0.28214 0.8722 0.49376 0.0
H320 H 0.10017 0.7974 0.52924 0.0
H321 H 0.1442 0.7184 0.54171 0.0
C322 C 0.26236 0.70181 0.52867 0.0
C323 C 0.32558 0.69796 0.52062 0.0
C324 C 0.23816 0.74864 0.52385 0.0
C325 C 0.36445 0.74223 0.50784 0.0
C326 C 0.3406 0.78913 0.5029 0.0
C327 C 0.25213 0.83867 0.50432 0.0
C328 C 0.18782 0.84089 0.51046 0.0
C329 C 0.27736 0.79262 0.51058 0.0
C330 C 0.14996 0.79734 0.52472 0.0
C331 C 0.17492 0.75177 0.53145 0.0
H332 H 0.08752 0.99065 0.1294 0.0
H333 H 0.89736 0.02375 0.12297 0.0
H334 H 0.88816 0.02613 0.1852 0.0
H335 H 0.93356 0.01812 0.24137 0.0
H336 H 0.12584 0.99021 0.24811 0.0
H337 H 0.13425 0.98567 0.18591 0.0
C338 C 0.04404 0.99822 0.14164 0.0
C339 C 0.99319 0.00685 0.12158 0.0
C340 C 0.03928 0.00028 0.17751 0.0
C341 C 0.93731 0.01709 0.13782 0.0
C342 C 0.93194 0.01841 0.17341 0.0
C343 C 0.97764 0.01176 0.22934 0.0
C344 C 0.02881 0.0043 0.24959 0.0
C345 C 0.98265 0.01018 0.19351 0.0
C346 C 0.08519 0.99514 0.23331 0.0
C347 C 0.09026 0.99289 0.19767 0.0
H348 H 0.92809 0.03432 0.91032 0.0
H349 H 0.1072 0.97836 0.91296 0.0
H350 H 0.11668 0.98292 0.85083 0.0
H351 H 0.07367 0.00234 0.79555 0.0
H352 H 0.89295 0.055 0.79298 0.0
H353 H 0.88453 0.05236 0.8553 0.0
C354 C 0.96924 0.02311 0.89734 0.0
C355 C 0.01689 0.00611 0.9163 0.0
C356 C 0.97414 0.02535 0.86161 0.0
C357 C 0.06972 0.99145 0.899 0.0
C358 C 0.07528 0.99418 0.86347 0.0
C359 C 0.03276 0.01359 0.80876 0.0
C360 C 0.9841 0.02904 0.78986 0.0
C361 C 0.02782 0.01112 0.84451 0.0
C362 C 0.93083 0.04279 0.80709 0.0
C363 C 0.92606 0.04134 0.84266 0.0
H364 H 0.60143 0.47665 0.61521 0.0
H365 H 0.42081 0.53059 0.61647 0.0
H366 H 0.41943 0.53359 0.67858 0.0
H367 H 0.47001 0.52359 0.73251 0.0
H368 H 0.65234 0.47331 0.73285 0.0
H369 H 0.65217 0.46549 0.67029 0.0
C370 C 0.56167 0.4886 0.62917 0.0
C371 C 0.51152 0.50361 0.61127 0.0
C372 C 0.56149 0.49109 0.66516 0.0
C373 C 0.46032 0.51926 0.62963 0.0
C374 C 0.45938 0.521 0.66518 0.0
C375 C 0.5101 0.51149 0.71893 0.0
C376 C 0.56134 0.49961 0.73729 0.0
C377 C 0.50999 0.50771 0.68317 0.0
C378 C 0.61214 0.48254 0.7193 0.0
C379 C 0.61219 0.47825 0.68353 0.0
H380 H 0.5367 0.45599 0.39908 0.0
H381 H 0.45612 0.60012 0.4083 0.0
H382 H 0.45821 0.60591 0.34599 0.0
H383 H 0.4833 0.56965 0.28878 0.0
H384 H 0.55902 0.42336 0.28028 0.0
H385 H 0.55878 0.41875 0.34256 0.0
C386 C 0.51961 0.48873 0.38749 0.0
C387 C 0.49653 0.52769 0.40822 0.0
C388 C 0.52025 0.49141 0.35183 0.0
C389 C 0.47397 0.56956 0.39283 0.0
C390 C 0.47534 0.57297 0.35725 0.0
C391 C 0.49994 0.53701 0.30074 0.0
C392 C 0.52139 0.49699 0.28026 0.0
C393 C 0.49851 0.53416 0.3365 0.0
C394 C 0.54217 0.45444 0.29573 0.0
C395 C 0.54209 0.45185 0.33124 0.0
loop_
_geom_bond_atom_site_label_1
_geom_bond_atom_site_label_2
_geom_bond_distance
_geom_bond_site_symmetry_2
_ccdc_geom_bond_type
Co0 N5 2.057 . S
Co0 O17 2.021 . S
Co0 O20 2.062 1_455 S
Co0 O24 2.117 1_554 S
Co0 O25 2.020 1_565 S
C1 O21 1.259 1_455 S
C1 O24 1.258 1_545 S
Co2 N11 2.057 . S
Co2 O18 2.117 . S
Co2 O19 2.020 1_545 S
Co2 O21 2.021 1_554 S
Co2 O26 2.062 1_655 S
C3 N5 1.316 . S
C3 N6 1.347 . S
C3 H8 0.931 . S
C4 N5 1.375 1_556 S
C4 C7 1.350 . S
C4 H9 0.930 . S
N5 Co0 2.057 . S
N5 C3 1.316 . S
N5 C4 1.375 1_554 S
N6 C3 1.347 . S
N6 C7 1.373 1_554 S
C7 C4 1.350 . S
C7 N6 1.373 1_556 S
C7 H28 0.931 . S
H8 C3 0.931 . S
H9 C4 0.930 . S
C10 O17 1.259 1_545 S
C10 O18 1.258 1_455 S
N11 Co2 2.057 . S
N11 C12 1.316 . S
N11 C13 1.375 . S
C12 N11 1.316 . S
C12 N14 1.347 . S
C12 H23 0.931 1_554 S
C13 N11 1.375 . S
C13 C15 1.350 . S
C13 H22 0.930 . S
N14 C12 1.347 . S
N14 C15 1.373 . S
C15 C13 1.350 . S
C15 N14 1.373 . S
C15 H29 0.931 . S
C16 O19 1.256 . S
C16 O20 1.255 . S
O17 Co0 2.021 . S
O17 C10 1.259 1_565 S
O18 Co2 2.117 . S
O18 C10 1.258 1_655 S
O19 Co2 2.020 1_565 S
O19 C16 1.256 . S
O20 Co0 2.062 1_655 S
O20 C16 1.255 . S
O21 C1 1.259 1_655 S
O21 Co2 2.021 1_556 S
H22 C13 0.930 . S
H23 C12 0.931 1_556 S
O24 Co0 2.117 1_556 S
O24 C1 1.258 1_565 S
O25 Co0 2.020 1_545 S
O25 C27 1.256 . S
O26 Co2 2.062 1_455 S
O26 C27 1.255 . S
C27 O25 1.256 . S
C27 O26 1.255 . S
H28 C7 0.931 . S
H29 C15 0.931 . S
Co30 N35 2.057 . S
Co30 O47 2.021 . S
Co30 O50 2.062 . S
Co30 O54 2.117 . S
Co30 O55 2.020 . S
C31 O51 1.259 . S
C31 O54 1.258 . S
Co32 N41 2.057 . S
Co32 O48 2.117 . S
Co32 O49 2.020 . S
Co32 O51 2.021 . S
Co32 O56 2.062 . S
C33 N35 1.316 . S
C33 N36 1.347 . S
C33 H38 0.931 . S
C34 N35 1.375 . S
C34 C37 1.350 . S
C34 H39 0.930 . S
N35 Co30 2.057 . S
N35 C33 1.316 . S
N35 C34 1.375 . S
N36 C33 1.347 . S
N36 C37 1.373 . S
C37 C34 1.350 . S
C37 N36 1.373 . S
C37 H58 0.931 . S
H38 C33 0.931 . S
H39 C34 0.930 . S
C40 O47 1.259 . S
C40 O48 1.258 . S
N41 Co32 2.057 . S
N41 C42 1.316 . S
N41 C43 1.375 . S
C42 N41 1.316 . S
C42 N44 1.347 . S
C42 H53 0.931 . S
C43 N41 1.375 . S
C43 C45 1.350 . S
C43 H52 0.930 . S
N44 C42 1.347 . S
N44 C45 1.373 . S
C45 C43 1.350 . S
C45 N44 1.373 . S
C45 H59 0.931 . S
C46 O49 1.256 . S
C46 O50 1.255 . S
O47 Co30 2.021 . S
O47 C40 1.259 . S
O48 Co32 2.117 . S
O48 C40 1.258 . S
O49 Co32 2.020 . S
O49 C46 1.256 . S
O50 Co30 2.062 . S
O50 C46 1.255 . S
O51 C31 1.259 . S
O51 Co32 2.021 . S
H52 C43 0.930 . S
H53 C42 0.931 . S
O54 Co30 2.117 . S
O54 C31 1.258 . S
O55 Co30 2.020 . S
O55 C57 1.256 . S
O56 Co32 2.062 . S
O56 C57 1.255 . S
C57 O55 1.256 . S
C57 O56 1.255 . S
H58 C37 0.931 . S
H59 C45 0.931 . S
C60 C61 1.384 . S
C60 H73 0.947 . S
C60 C95 1.382 . S
C61 C60 1.384 . S
C61 C62 1.378 . S
C62 C61 1.378 . S
C62 C63 1.378 . S
C62 H74 0.952 . S
C63 C62 1.378 . S
C63 H75 0.950 . S
C63 C94 1.383 . S
H64 C83 0.947 . S
H65 C84 0.946 . S
H66 C86 0.953 . S
H67 C87 0.945 . S
H68 C89 0.952 . S
H69 C90 0.949 . S
H70 C92 0.950 . S
H71 C93 0.948 . S
H72 C95 0.951 . S
H73 C60 0.947 . S
H74 C62 0.952 . S
H75 C63 0.950 . S
N76 C79 1.382 1_545 S
N76 C81 1.363 1_455 S
N77 C79 1.371 . S
N77 C80 1.372 1_565 S
N78 C80 1.361 1_655 S
N78 C81 1.377 . S
C79 N76 1.382 1_565 S
C79 N77 1.371 . S
C79 C82 1.480 . S
C80 N77 1.372 1_545 S
C80 N78 1.361 1_455 S
C80 C88 1.457 . S
C81 N76 1.363 1_655 S
C81 N78 1.377 . S
C81 C94 1.479 . S
C82 C79 1.480 . S
C82 C83 1.383 . S
C82 C87 1.385 . S
C83 H64 0.947 . S
C83 C82 1.383 . S
C83 C84 1.388 . S
C84 H65 0.946 . S
C84 C83 1.388 . S
C84 C85 1.384 . S
C85 C84 1.384 . S
C85 C86 1.377 . S
C86 H66 0.953 . S
C86 C85 1.377 . S
C86 C87 1.369 . S
C87 H67 0.945 . S
C87 C82 1.385 . S
C87 C86 1.369 . S
C88 C80 1.457 . S
C88 C89 1.372 1_545 S
C88 C93 1.364 1_455 S
C89 H68 0.952 . S
C89 C88 1.372 1_565 S
C89 C90 1.389 . S
C90 H69 0.949 . S
C90 C89 1.389 . S
C90 C91 1.387 1_565 S
C91 C90 1.387 1_545 S
C91 C92 1.372 1_455 S
C92 H70 0.950 . S
C92 C91 1.372 1_655 S
C92 C93 1.379 . S
C93 H71 0.948 . S
C93 C88 1.364 1_655 S
C93 C92 1.379 . S
C94 C63 1.383 . S
C94 C81 1.479 . S
C94 C95 1.398 . S
C95 C60 1.382 . S
C95 H72 0.951 . S
C95 C94 1.398 . S
C96 C97 1.384 . S
C96 H109 0.947 . S
C96 C131 1.382 . S
C97 C96 1.384 . S
C97 C98 1.378 . S
C98 C97 1.378 . S
C98 C99 1.378 . S
C98 H110 0.952 . S
C99 C98 1.378 . S
C99 H111 0.950 . S
C99 C130 1.383 . S
H100 C119 0.947 . S
H101 C120 0.946 . S
H102 C122 0.953 . S
H103 C123 0.945 . S
H104 C125 0.952 . S
H105 C126 0.949 . S
H106 C128 0.950 . S
H107 C129 0.948 . S
H108 C131 0.951 . S
H109 C96 0.947 . S
H110 C98 0.952 . S
H111 C99 0.950 . S
N112 C115 1.382 . S
N112 C117 1.363 1_445 S
N113 C115 1.371 . S
N113 C116 1.372 . S
N114 C116 1.361 1_665 S
N114 C117 1.377 . S
C115 N112 1.382 . S
C115 N113 1.371 . S
C115 C118 1.480 . S
C116 N113 1.372 . S
C116 N114 1.361 1_445 S
C116 C124 1.457 . S
C117 N112 1.363 1_665 S
C117 N114 1.377 . S
C117 C130 1.479 . S
C118 C115 1.480 . S
C118 C119 1.383 . S
C118 C123 1.385 . S
C119 H100 0.947 . S
C119 C118 1.383 . S
C119 C120 1.388 . S
C120 H101 0.946 . S
C120 C119 1.388 . S
C120 C121 1.384 . S
C121 C120 1.384 . S
C121 C122 1.377 . S
C122 H102 0.953 . S
C122 C121 1.377 . S
C122 C123 1.369 . S
C123 H103 0.945 . S
C123 C118 1.385 . S
C123 C122 1.369 . S
C124 C116 1.457 . S
C124 C125 1.372 . S
C124 C129 1.364 1_445 S
C125 H104 0.952 . S
C125 C124 1.372 . S
C125 C126 1.389 . S
C126 H105 0.949 . S
C126 C125 1.389 . S
C126 C127 1.387 . S
C127 C126 1.387 . S
C127 C128 1.372 1_445 S
C128 H106 0.950 . S
C128 C127 1.372 1_665 S
C128 C129 1.379 . S
C129 H107 0.948 . S
C129 C124 1.364 1_665 S
C129 C128 1.379 . S
C130 C99 1.383 . S
C130 C117 1.479 . S
C130 C131 1.398 . S
C131 C96 1.382 . S
C131 H108 0.951 . S
C131 C130 1.398 . S
C132 C133 1.384 . S
C132 H145 0.947 . S
C132 C167 1.382 . S
C133 C132 1.384 . S
C133 C134 1.378 1_556 S
C134 C133 1.378 1_554 S
C134 C135 1.378 1_554 S
C134 H146 0.952 . S
C135 C134 1.378 1_556 S
C135 H147 0.950 1_556 S
C135 C166 1.383 . S
H136 C155 0.947 1_554 S
H137 C156 0.946 . S
H138 C158 0.953 . S
H139 C159 0.945 . S
H140 C161 0.952 . S
H141 C162 0.949 . S
H142 C164 0.950 . S
H143 C165 0.948 . S
H144 C167 0.951 . S
H145 C132 0.947 . S
H146 C134 0.952 . S
H147 C135 0.950 1_554 S
N148 C151 1.382 . S
N148 C153 1.363 . S
N149 C151 1.371 . S
N149 C152 1.372 . S
N150 C152 1.361 . S
N150 C153 1.377 . S
C151 N148 1.382 . S
C151 N149 1.371 . S
C151 C154 1.480 . S
C152 N149 1.372 . S
C152 N150 1.361 . S
C152 C160 1.457 . S
C153 N148 1.363 . S
C153 N150 1.377 . S
C153 C166 1.479 . S
C154 C151 1.480 . S
C154 C155 1.383 . S
C154 C159 1.385 . S
C155 H136 0.947 1_556 S
C155 C154 1.383 . S
C155 C156 1.388 1_556 S
C156 H137 0.946 . S
C156 C155 1.388 1_554 S
C156 C157 1.384 1_554 S
C157 C156 1.384 1_556 S
C157 C158 1.377 . S
C158 H138 0.953 . S
C158 C157 1.377 . S
C158 C159 1.369 . S
C159 H139 0.945 . S
C159 C154 1.385 . S
C159 C158 1.369 . S
C160 C152 1.457 . S
C160 C161 1.372 . S
C160 C165 1.364 . S
C161 H140 0.952 . S
C161 C160 1.372 . S
C161 C162 1.389 . S
C162 H141 0.949 . S
C162 C161 1.389 . S
C162 C163 1.387 . S
C163 C162 1.387 . S
C163 C164 1.372 . S
C164 H142 0.950 . S
C164 C163 1.372 . S
C164 C165 1.379 . S
C165 H143 0.948 . S
C165 C160 1.364 . S
C165 C164 1.379 . S
C166 C135 1.383 . S
C166 C153 1.479 . S
C166 C167 1.398 . S
C167 C132 1.382 . S
C167 H144 0.951 . S
C167 C166 1.398 . S
C168 C169 1.384 . S
C168 H181 0.947 . S
C168 C203 1.382 . S
C169 C168 1.384 . S
C169 C170 1.378 . S
C170 C169 1.378 . S
C170 C171 1.378 . S
C170 H182 0.952 1_554 S
C171 C170 1.378 . S
C171 H183 0.950 . S
C171 C202 1.383 . S
H172 C191 0.947 . S
H173 C192 0.946 1_556 S
H174 C194 0.953 . S
H175 C195 0.945 . S
H176 C197 0.952 . S
H177 C198 0.949 . S
H178 C200 0.950 . S
H179 C201 0.948 . S
H180 C203 0.951 . S
H181 C168 0.947 . S
H182 C170 0.952 1_556 S
H183 C171 0.950 . S
N184 C187 1.382 . S
N184 C189 1.363 . S
N185 C187 1.371 . S
N185 C188 1.372 . S
N186 C188 1.361 . S
N186 C189 1.377 . S
C187 N184 1.382 . S
C187 N185 1.371 . S
C187 C190 1.480 . S
C188 N185 1.372 . S
C188 N186 1.361 . S
C188 C196 1.457 . S
C189 N184 1.363 . S
C189 N186 1.377 . S
C189 C202 1.479 . S
C190 C187 1.480 . S
C190 C191 1.383 . S
C190 C195 1.385 . S
C191 H172 0.947 . S
C191 C190 1.383 . S
C191 C192 1.388 . S
C192 H173 0.946 1_554 S
C192 C191 1.388 . S
C192 C193 1.384 . S
C193 C192 1.384 . S
C193 C194 1.377 . S
C194 H174 0.953 . S
C194 C193 1.377 . S
C194 C195 1.369 . S
C195 H175 0.945 . S
C195 C190 1.385 . S
C195 C194 1.369 . S
C196 C188 1.457 . S
C196 C197 1.372 . S
C196 C201 1.364 . S
C197 H176 0.952 . S
C197 C196 1.372 . S
C197 C198 1.389 . S
C198 H177 0.949 . S
C198 C197 1.389 . S
C198 C199 1.387 . S
C199 C198 1.387 . S
C199 C200 1.372 . S
C200 H178 0.950 . S
C200 C199 1.372 . S
C200 C201 1.379 . S
C201 H179 0.948 . S
C201 C196 1.364 . S
C201 C200 1.379 . S
C202 C171 1.383 . S
C202 C189 1.479 . S
C202 C203 1.398 . S
C203 C168 1.382 . S
C203 H180 0.951 . S
C203 C202 1.398 . S
H204 C210 0.930 . S
H205 C213 0.930 1_556 S
H206 C214 0.930 1_556 S
H207 C215 0.930 1_556 S
H208 C218 0.930 . S
H209 C219 0.930 . S
C210 H204 0.930 . S
C210 C211 1.355 . S
C210 C212 1.415 . S
C211 C210 1.355 . S
C211 C213 1.419 . S
C212 C210 1.415 . S
C212 C217 1.425 . S
C212 C219 1.409 . S
C213 H205 0.930 1_554 S
C213 C211 1.419 . S
C213 C214 1.362 . S
C214 H206 0.930 1_554 S
C214 C213 1.362 . S
C214 C217 1.409 . S
C215 H207 0.930 1_554 S
C215 C216 1.355 . S
C215 C217 1.415 . S
C216 C215 1.355 . S
C216 C218 1.419 . S
C217 C212 1.425 . S
C217 C214 1.409 . S
C217 C215 1.415 . S
C218 H208 0.930 . S
C218 C216 1.419 . S
C218 C219 1.362 . S
C219 H209 0.930 . S
C219 C212 1.409 . S
C219 C218 1.362 . S
H220 C226 0.935 . S
H221 C229 0.930 . S
H222 C230 0.930 . S
H223 C231 0.930 . S
H224 C234 0.930 . S
H225 C235 0.930 . S
C226 H220 0.935 . S
C226 C227 1.350 1_556 S
C226 C228 1.414 1_556 S
C227 C226 1.350 1_554 S
C227 C229 1.419 . S
C228 C226 1.414 1_554 S
C228 C233 1.425 . S
C228 C235 1.409 1_554 S
C229 H221 0.930 . S
C229 C227 1.419 . S
C229 C230 1.362 . S
C230 H222 0.930 . S
C230 C229 1.362 . S
C230 C233 1.409 . S
C231 H223 0.930 . S
C231 C232 1.355 . S
C231 C233 1.415 . S
C232 C231 1.355 . S
C232 C234 1.419 1_554 S
C233 C228 1.425 . S
C233 C230 1.409 . S
C233 C231 1.415 . S
C234 H224 0.930 . S
C234 C232 1.419 1_556 S
C234 C235 1.362 . S
C235 H225 0.930 . S
C235 C228 1.409 1_556 S
C235 C234 1.362 . S
H236 C242 0.930 . S
H237 C245 0.930 . S
H238 C246 0.930 . S
H239 C247 0.930 1_556 S
H240 C250 0.930 . S
H241 C251 0.930 . S
C242 H236 0.930 . S
C242 C243 1.355 . S
C242 C244 1.415 . S
C243 C242 1.355 . S
C243 C245 1.419 1_554 S
C244 C242 1.415 . S
C244 C249 1.425 . S
C244 C251 1.409 . S
C245 H237 0.930 . S
C245 C243 1.419 1_556 S
C245 C246 1.362 . S
C246 H238 0.930 . S
C246 C245 1.362 . S
C246 C249 1.409 1_556 S
C247 H239 0.930 1_554 S
C247 C248 1.355 . S
C247 C249 1.415 . S
C248 C247 1.355 . S
C248 C250 1.419 . S
C249 C244 1.425 . S
C249 C246 1.409 1_554 S
C249 C247 1.415 . S
C250 H240 0.930 . S
C250 C248 1.419 . S
C250 C251 1.362 . S
C251 H241 0.930 . S
C251 C244 1.409 . S
C251 C250 1.362 . S
H252 C258 0.930 . S
H253 C261 0.930 . S
H254 C262 0.930 . S
H255 C263 0.930 . S
H256 C266 0.930 . S
H257 C267 0.930 . S
C258 H252 0.930 . S
C258 C259 1.355 . S
C258 C260 1.415 . S
C259 C258 1.355 . S
C259 C261 1.419 1_554 S
C260 C258 1.415 . S
C260 C265 1.425 1_554 S
C260 C267 1.409 . S
C261 H253 0.930 . S
C261 C259 1.419 1_556 S
C261 C262 1.362 . S
C262 H254 0.930 . S
C262 C261 1.362 . S
C262 C265 1.409 . S
C263 H255 0.930 . S
C263 C264 1.355 1_556 S
C263 C265 1.415 . S
C264 C263 1.355 1_554 S
C264 C266 1.419 . S
C265 C260 1.425 1_556 S
C265 C262 1.409 . S
C265 C263 1.415 . S
C266 H256 0.930 . S
C266 C264 1.419 . S
C266 C267 1.362 . S
C267 H257 0.930 . S
C267 C260 1.409 . S
C267 C266 1.362 . S
H268 C274 0.930 . S
H269 C277 0.930 . S
H270 C278 0.930 . S
H271 C279 0.930 . S
H272 C282 0.930 . S
H273 C283 0.930 . S
C274 H268 0.930 . S
C274 C275 1.355 . S
C274 C276 1.415 . S
C275 C274 1.355 . S
C275 C277 1.419 . S
C276 C274 1.415 . S
C276 C281 1.425 . S
C276 C283 1.409 . S
C277 H269 0.930 . S
C277 C275 1.419 . S
C277 C278 1.362 . S
C278 H270 0.930 . S
C278 C277 1.362 . S
C278 C281 1.409 . S
C279 H271 0.930 . S
C279 C280 1.355 . S
C279 C281 1.415 . S
C280 C279 1.355 . S
C280 C282 1.419 . S
C281 C276 1.425 . S
C281 C278 1.409 . S
C281 C279 1.415 . S
C282 H272 0.930 . S
C282 C280 1.419 . S
C282 C283 1.362 . S
C283 H273 0.930 . S
C283 C276 1.409 . S
C283 C282 1.362 . S
H284 C290 0.930 . S
H285 C293 0.930 . S
H286 C294 0.930 . S
H287 C295 0.930 . S
H288 C298 0.930 . S
H289 C299 0.930 . S
C290 H284 0.930 . S
C290 C291 1.355 . S
C290 C292 1.415 . S
C291 C290 1.355 . S
C291 C293 1.419 . S
C292 C290 1.415 . S
C292 C297 1.425 . S
C292 C299 1.409 . S
C293 H285 0.930 . S
C293 C291 1.419 . S
C293 C294 1.362 . S
C294 H286 0.930 . S
C294 C293 1.362 . S
C294 C297 1.409 . S
C295 H287 0.930 . S
C295 C296 1.355 . S
C295 C297 1.415 . S
C296 C295 1.355 . S
C296 C298 1.419 . S
C297 C292 1.425 . S
C297 C294 1.409 . S
C297 C295 1.415 . S
C298 H288 0.930 . S
C298 C296 1.419 . S
C298 C299 1.362 . S
C299 H289 0.930 . S
C299 C292 1.409 . S
C299 C298 1.362 . S
H300 C306 0.930 . S
H301 C309 0.930 . S
H302 C310 0.930 . S
H303 C311 0.930 . S
H304 C314 0.930 . S
H305 C315 0.930 . S
C306 H300 0.930 . S
C306 C307 1.355 . S
C306 C308 1.415 . S
C307 C306 1.355 . S
C307 C309 1.419 . S
C308 C306 1.415 . S
C308 C313 1.425 . S
C308 C315 1.409 . S
C309 H301 0.930 . S
C309 C307 1.419 . S
C309 C310 1.362 . S
C310 H302 0.930 . S
C310 C309 1.362 . S
C310 C313 1.409 . S
C311 H303 0.930 . S
C311 C312 1.355 . S
C311 C313 1.415 . S
C312 C311 1.355 . S
C312 C314 1.419 . S
C313 C308 1.425 . S
C313 C310 1.409 . S
C313 C311 1.415 . S
C314 H304 0.930 . S
C314 C312 1.419 . S
C314 C315 1.362 . S
C315 H305 0.930 . S
C315 C308 1.409 . S
C315 C314 1.362 . S
H316 C322 0.930 . S
H317 C325 0.930 . S
H318 C326 0.930 . S
H319 C327 0.930 . S
H320 C330 0.930 . S
H321 C331 0.930 . S
C322 H316 0.930 . S
C322 C323 1.355 . S
C322 C324 1.415 . S
C323 C322 1.355 . S
C323 C325 1.419 . S
C324 C322 1.415 . S
C324 C329 1.425 . S
C324 C331 1.409 . S
C325 H317 0.930 . S
C325 C323 1.419 . S
C325 C326 1.362 . S
C326 H318 0.930 . S
C326 C325 1.362 . S
C326 C329 1.409 . S
C327 H319 0.930 . S
C327 C328 1.355 . S
C327 C329 1.415 . S
C328 C327 1.355 . S
C328 C330 1.419 . S
C329 C324 1.425 . S
C329 C326 1.409 . S
C329 C327 1.415 . S
C330 H320 0.930 . S
C330 C328 1.419 . S
C330 C331 1.362 . S
C331 H321 0.930 . S
C331 C324 1.409 . S
C331 C330 1.362 . S
H332 C338 0.930 . S
H333 C341 0.930 . S
H334 C342 0.930 . S
H335 C343 0.930 . S
H336 C346 0.930 . S
H337 C347 0.930 . S
C338 H332 0.930 . S
C338 C339 1.362 . S
C338 C340 1.415 . S
C339 C338 1.362 . S
C339 C341 1.410 1_445 S
C340 C338 1.415 . S
C340 C345 1.425 1_445 S
C340 C347 1.409 . S
C341 H333 0.930 . S
C341 C339 1.410 1_665 S
C341 C342 1.362 . S
C342 H334 0.930 . S
C342 C341 1.362 . S
C342 C345 1.409 . S
C343 H335 0.930 . S
C343 C344 1.355 1_665 S
C343 C345 1.415 . S
C344 C343 1.355 1_445 S
C344 C346 1.419 . S
C345 C340 1.425 1_665 S
C345 C342 1.409 . S
C345 C343 1.415 . S
C346 H336 0.930 . S
C346 C344 1.419 . S
C346 C347 1.362 . S
C347 H337 0.930 . S
C347 C340 1.409 . S
C347 C346 1.362 . S
H348 C354 0.930 . S
H349 C357 0.930 . S
H350 C358 0.930 . S
H351 C359 0.930 . S
H352 C362 0.930 . S
H353 C363 0.930 . S
C354 H348 0.930 . S
C354 C355 1.355 1_665 S
C354 C356 1.415 . S
C355 C354 1.355 1_445 S
C355 C357 1.419 . S
C356 C354 1.415 . S
C356 C361 1.425 1_665 S
C356 C363 1.409 . S
C357 H349 0.930 . S
C357 C355 1.419 . S
C357 C358 1.362 . S
C358 H350 0.930 . S
C358 C357 1.362 . S
C358 C361 1.409 . S
C359 H351 0.930 . S
C359 C360 1.357 . S
C359 C361 1.415 . S
C360 C359 1.357 . S
C360 C362 1.417 1_445 S
C361 C356 1.425 1_445 S
C361 C358 1.409 . S
C361 C359 1.415 . S
C362 H352 0.930 . S
C362 C360 1.417 1_665 S
C362 C363 1.362 . S
C363 H353 0.930 . S
C363 C356 1.409 . S
C363 C362 1.362 . S
H364 C370 0.930 . S
H365 C373 0.930 . S
H366 C374 0.930 . S
H367 C375 0.930 . S
H368 C378 0.930 . S
H369 C379 0.930 . S
C370 H364 0.930 . S
C370 C371 1.355 . S
C370 C372 1.415 . S
C371 C370 1.355 . S
C371 C373 1.419 . S
C372 C370 1.415 . S
C372 C377 1.425 . S
C372 C379 1.409 . S
C373 H365 0.930 . S
C373 C371 1.419 . S
C373 C374 1.362 . S
C374 H366 0.930 . S
C374 C373 1.362 . S
C374 C377 1.409 . S
C375 H367 0.930 . S
C375 C376 1.355 . S
C375 C377 1.415 . S
C376 C375 1.355 . S
C376 C378 1.419 . S
C377 C372 1.425 . S
C377 C374 1.409 . S
C377 C375 1.415 . S
C378 H368 0.930 . S
C378 C376 1.419 . S
C378 C379 1.362 . S
C379 H369 0.930 . S
C379 C372 1.409 . S
C379 C378 1.362 . S
H380 C386 0.930 . S
H381 C389 0.930 . S
H382 C390 0.930 . S
H383 C391 0.930 . S
H384 C394 0.930 . S
H385 C395 0.930 . S
C386 H380 0.930 . S
C386 C387 1.355 . S
C386 C388 1.415 . S
C387 C386 1.355 . S
C387 C389 1.419 . S
C388 C386 1.415 . S
C388 C393 1.425 . S
C388 C395 1.409 . S
C389 H381 0.930 . S
C389 C387 1.419 . S
C389 C390 1.362 . S
C390 H382 0.930 . S
C390 C389 1.362 . S
C390 C393 1.409 . S
C391 H383 0.930 . S
C391 C392 1.355 . S
C391 C393 1.415 . S
C392 C391 1.355 . S
C392 C394 1.419 . S
C393 C388 1.425 . S
C393 C390 1.409 . S
C393 C391 1.415 . S
C394 H384 0.930 . S
C394 C392 1.419 . S
C394 C395 1.362 . S
C395 H385 0.930 . S
C395 C388 1.409 . S
C395 C394 1.362 . S
C216 C169 1.474 . S
C211 C27 1.524 . S
C227 N6 1.451 . S
C232 C133 1.419 1_554 S
C243 C16 1.505 . S
C248 C193 1.405 . S
C259 N14 1.449 . S
C264 C157 1.438 1_554 S
C275 C57 1.528 . S
C280 C97 1.487 . S
C291 N36 1.395 . S
C296 C61 1.468 . S
C312 C121 1.405 . S
C307 C46 1.505 . S
C328 C85 1.425 . S
C323 N44 1.447 . S
C339 C10 1.393 . S
C344 C91 1.372 . S
C355 C1 1.534 . S
C360 C127 1.525 . S
C376 C163 1.385 . S
C371 C40 1.397 . S
C387 C31 1.524 . S
C392 C199 1.516 . S
