# Generated by pormake.
# Topology ptr, (4,4)-cn, num edge types: 1
# Building blocks:
#     Node 0, Type 0, BuildingBlock: TATPOV_clean_sbu_0, # of connection points: 4
#     Node 1, Type 0, BuildingBlock: TATPOV_clean_sbu_0, # of connection points: 4
#     Node 2, Type 0, BuildingBlock: TATPOV_clean_sbu_0, # of connection points: 4
#     Node 3, Type 0, BuildingBlock: TATPOV_clean_sbu_0, # of connection points: 4
#     Node 4, Type 0, BuildingBlock: TATPOV_clean_sbu_0, # of connection points: 4
#     Node 5, Type 0, BuildingBlock: TATPOV_clean_sbu_0, # of connection points: 4
#     Node 6, Type 0, BuildingBlock: TATPOV_clean_sbu_0, # of connection points: 4
#     Node 7, Type 0, BuildingBlock: TATPOV_clean_sbu_0, # of connection points: 4
#     Node 8, Type 0, BuildingBlock: TATPOV_clean_sbu_0, # of connection points: 4
#     Node 9, Type 0, BuildingBlock: TATPOV_clean_sbu_0, # of connection points: 4
#     Node 10, Type 0, BuildingBlock: TATPOV_clean_sbu_0, # of connection points: 4
#     Node 11, Type 0, BuildingBlock: TATPOV_clean_sbu_0, # of connection points: 4
#     Node 12, Type 0, BuildingBlock: TATPOV_clean_sbu_0, # of connection points: 4
#     Node 13, Type 0, BuildingBlock: TATPOV_clean_sbu_0, # of connection points: 4
#     Node 14, Type 0, BuildingBlock: TATPOV_clean_sbu_0, # of connection points: 4
#     Node 15, Type 0, BuildingBlock: TATPOV_clean_sbu_0, # of connection points: 4
#     Node 16, Type 0, BuildingBlock: TATPOV_clean_sbu_0, # of connection points: 4
#     Node 17, Type 0, BuildingBlock: TATPOV_clean_sbu_0, # of connection points: 4
#     Node 18, Type 1, BuildingBlock: NAWXER_clean_linker_0, # of connection points: 4
#     Node 19, Type 1, BuildingBlock: NAWXER_clean_linker_0, # of connection points: 4
#     Node 20, Type 1, BuildingBlock: NAWXER_clean_linker_0, # of connection points: 4
#     Node 21, Type 1, BuildingBlock: NAWXER_clean_linker_0, # of connection points: 4
#     Node 22, Type 1, BuildingBlock: NAWXER_clean_linker_0, # of connection points: 4
#     Node 23, Type 1, BuildingBlock: NAWXER_clean_linker_0, # of connection points: 4
#     Node 24, Type 1, BuildingBlock: NAWXER_clean_linker_0, # of connection points: 4
#     Node 25, Type 1, BuildingBlock: NAWXER_clean_linker_0, # of connection points: 4
#     Node 26, Type 1, BuildingBlock: NAWXER_clean_linker_0, # of connection points: 4
#     Node 27, Type 1, BuildingBlock: NAWXER_clean_linker_0, # of connection points: 4
#     Node 28, Type 1, BuildingBlock: NAWXER_clean_linker_0, # of connection points: 4
#     Node 29, Type 1, BuildingBlock: NAWXER_clean_linker_0, # of connection points: 4
#     Node 30, Type 1, BuildingBlock: NAWXER_clean_linker_0, # of connection points: 4
#     Node 31, Type 1, BuildingBlock: NAWXER_clean_linker_0, # of connection points: 4
#     Node 32, Type 1, BuildingBlock: NAWXER_clean_linker_0, # of connection points: 4
#     Node 33, Type 1, BuildingBlock: NAWXER_clean_linker_0, # of connection points: 4
#     Node 34, Type 1, BuildingBlock: NAWXER_clean_linker_0, # of connection points: 4
#     Node 35, Type 1, BuildingBlock: NAWXER_clean_linker_0, # of connection points: 4
#     Edge 36, Type (0, 1), BuildingBlock: AJUNOK_clean_linker_0, # of connection points: 2
#     Edge 37, Type (0, 1), BuildingBlock: AJUNOK_clean_linker_0, # of connection points: 2
#     Edge 38, Type (0, 1), BuildingBlock: AJUNOK_clean_linker_0, # of connection points: 2
#     Edge 39, Type (0, 1), BuildingBlock: AJUNOK_clean_linker_0, # of connection points: 2
#     Edge 40, Type (0, 1), BuildingBlock: AJUNOK_clean_linker_0, # of connection points: 2
#     Edge 41, Type (0, 1), BuildingBlock: AJUNOK_clean_linker_0, # of connection points: 2
#     Edge 42, Type (0, 1), BuildingBlock: AJUNOK_clean_linker_0, # of connection points: 2
#     Edge 43, Type (0, 1), BuildingBlock: AJUNOK_clean_linker_0, # of connection points: 2
#     Edge 44, Type (0, 1), BuildingBlock: AJUNOK_clean_linker_0, # of connection points: 2
#     Edge 45, Type (0, 1), BuildingBlock: AJUNOK_clean_linker_0, # of connection points: 2
#     Edge 46, Type (0, 1), BuildingBlock: AJUNOK_clean_linker_0, # of connection points: 2
#     Edge 47, Type (0, 1), BuildingBlock: AJUNOK_clean_linker_0, # of connection points: 2
#     Edge 48, Type (0, 1), BuildingBlock: AJUNOK_clean_linker_0, # of connection points: 2
#     Edge 49, Type (0, 1), BuildingBlock: AJUNOK_clean_linker_0, # of connection points: 2
#     Edge 50, Type (0, 1), BuildingBlock: AJUNOK_clean_linker_0, # of connection points: 2
#     Edge 51, Type (0, 1), BuildingBlock: AJUNOK_clean_linker_0, # of connection points: 2
#     Edge 52, Type (0, 1), BuildingBlock: AJUNOK_clean_linker_0, # of connection points: 2
#     Edge 53, Type (0, 1), BuildingBlock: AJUNOK_clean_linker_0, # of connection points: 2
#     Edge 54, Type (0, 1), BuildingBlock: AJUNOK_clean_linker_0, # of connection points: 2
#     Edge 55, Type (0, 1), BuildingBlock: AJUNOK_clean_linker_0, # of connection points: 2
#     Edge 56, Type (0, 1), BuildingBlock: AJUNOK_clean_linker_0, # of connection points: 2
#     Edge 57, Type (0, 1), BuildingBlock: AJUNOK_clean_linker_0, # of connection points: 2
#     Edge 58, Type (0, 1), BuildingBlock: AJUNOK_clean_linker_0, # of connection points: 2
#     Edge 59, Type (0, 1), BuildingBlock: AJUNOK_clean_linker_0, # of connection points: 2
#     Edge 60, Type (0, 1), BuildingBlock: AJUNOK_clean_linker_0, # of connection points: 2
#     Edge 61, Type (0, 1), BuildingBlock: AJUNOK_clean_linker_0, # of connection points: 2
#     Edge 62, Type (0, 1), BuildingBlock: AJUNOK_clean_linker_0, # of connection points: 2
#     Edge 63, Type (0, 1), BuildingBlock: AJUNOK_clean_linker_0, # of connection points: 2
#     Edge 64, Type (0, 1), BuildingBlock: AJUNOK_clean_linker_0, # of connection points: 2
#     Edge 65, Type (0, 1), BuildingBlock: AJUNOK_clean_linker_0, # of connection points: 2
#     Edge 66, Type (0, 1), BuildingBlock: AJUNOK_clean_linker_0, # of connection points: 2
#     Edge 67, Type (0, 1), BuildingBlock: AJUNOK_clean_linker_0, # of connection points: 2
#     Edge 68, Type (0, 1), BuildingBlock: AJUNOK_clean_linker_0, # of connection points: 2
#     Edge 69, Type (0, 1), BuildingBlock: AJUNOK_clean_linker_0, # of connection points: 2
#     Edge 70, Type (0, 1), BuildingBlock: AJUNOK_clean_linker_0, # of connection points: 2
#     Edge 71, Type (0, 1), BuildingBlock: AJUNOK_clean_linker_0, # of connection points: 2
#     Edge 72, Type (0, 1), BuildingBlock: AJUNOK_clean_linker_0, # of connection points: 2
#     Edge 73, Type (0, 1), BuildingBlock: AJUNOK_clean_linker_0, # of connection points: 2
#     Edge 74, Type (0, 1), BuildingBlock: AJUNOK_clean_linker_0, # of connection points: 2
#     Edge 75, Type (0, 1), BuildingBlock: AJUNOK_clean_linker_0, # of connection points: 2
#     Edge 76, Type (0, 1), BuildingBlock: AJUNOK_clean_linker_0, # of connection points: 2
#     Edge 77, Type (0, 1), BuildingBlock: AJUNOK_clean_linker_0, # of connection points: 2
#     Edge 78, Type (0, 1), BuildingBlock: AJUNOK_clean_linker_0, # of connection points: 2
#     Edge 79, Type (0, 1), BuildingBlock: AJUNOK_clean_linker_0, # of connection points: 2
#     Edge 80, Type (0, 1), BuildingBlock: AJUNOK_clean_linker_0, # of connection points: 2
#     Edge 81, Type (0, 1), BuildingBlock: AJUNOK_clean_linker_0, # of connection points: 2
#     Edge 82, Type (0, 1), BuildingBlock: AJUNOK_clean_linker_0, # of connection points: 2
#     Edge 83, Type (0, 1), BuildingBlock: AJUNOK_clean_linker_0, # of connection points: 2
#     Edge 84, Type (0, 1), BuildingBlock: AJUNOK_clean_linker_0, # of connection points: 2
#     Edge 85, Type (0, 1), BuildingBlock: AJUNOK_clean_linker_0, # of connection points: 2
#     Edge 86, Type (0, 1), BuildingBlock: AJUNOK_clean_linker_0, # of connection points: 2
#     Edge 87, Type (0, 1), BuildingBlock: AJUNOK_clean_linker_0, # of connection points: 2
#     Edge 88, Type (0, 1), BuildingBlock: AJUNOK_clean_linker_0, # of connection points: 2
#     Edge 89, Type (0, 1), BuildingBlock: AJUNOK_clean_linker_0, # of connection points: 2
#     Edge 90, Type (0, 1), BuildingBlock: AJUNOK_clean_linker_0, # of connection points: 2
#     Edge 91, Type (0, 1), BuildingBlock: AJUNOK_clean_linker_0, # of connection points: 2
#     Edge 92, Type (0, 1), BuildingBlock: AJUNOK_clean_linker_0, # of connection points: 2
#     Edge 93, Type (0, 1), BuildingBlock: AJUNOK_clean_linker_0, # of connection points: 2
#     Edge 94, Type (0, 1), BuildingBlock: AJUNOK_clean_linker_0, # of connection points: 2
#     Edge 95, Type (0, 1), BuildingBlock: AJUNOK_clean_linker_0, # of connection points: 2
#     Edge 96, Type (0, 1), BuildingBlock: AJUNOK_clean_linker_0, # of connection points: 2
#     Edge 97, Type (0, 1), BuildingBlock: AJUNOK_clean_linker_0, # of connection points: 2
#     Edge 98, Type (0, 1), BuildingBlock: AJUNOK_clean_linker_0, # of connection points: 2
#     Edge 99, Type (0, 1), BuildingBlock: AJUNOK_clean_linker_0, # of connection points: 2
#     Edge 100, Type (0, 1), BuildingBlock: AJUNOK_clean_linker_0, # of connection points: 2
#     Edge 101, Type (0, 1), BuildingBlock: AJUNOK_clean_linker_0, # of connection points: 2
#     Edge 102, Type (0, 1), BuildingBlock: AJUNOK_clean_linker_0, # of connection points: 2
#     Edge 103, Type (0, 1), BuildingBlock: AJUNOK_clean_linker_0, # of connection points: 2
#     Edge 104, Type (0, 1), BuildingBlock: AJUNOK_clean_linker_0, # of connection points: 2
#     Edge 105, Type (0, 1), BuildingBlock: AJUNOK_clean_linker_0, # of connection points: 2
#     Edge 106, Type (0, 1), BuildingBlock: AJUNOK_clean_linker_0, # of connection points: 2
#     Edge 107, Type (0, 1), BuildingBlock: AJUNOK_clean_linker_0, # of connection points: 2
# Relax obj value: 0.067
# Max RMSD: 0.243
# Mean RMSD: 0.106
data_MOF--net-ptr--node1-TATPOV_clean_sbu_0--node2-NAWXER_clean_linker_0--edge1-AJUNOK_clean_linker_0
_symmetry_space_group_name_H-M    P1
_symmetry_Int_Tables_number       1
_symmetry_cell_setting            triclinic
loop_
_symmetry_equiv_pos_as_xyz
'x, y, z'
_cell_length_a     68.052813
_cell_length_b     69.02353
_cell_length_c     49.224758
_cell_angle_alpha  89.676078
_cell_angle_beta   90.818129
_cell_angle_gamma 121.49595
loop_
_atom_site_label
_atom_site_type_symbol
_atom_site_fract_x
_atom_site_fract_y
_atom_site_fract_z
_atom_type_partial_charge
Zn0 Zn 0.95622 0.34587 0.0063 0.0
Zn1 Zn -0.00022 0.35665 0.01175 0.0
O2 O 0.98107 0.32311 1.00009 0.0
O3 O 0.94453 0.31261 0.00128 0.0
O4 O 0.02956 0.3598 0.02436 0.0
O5 O 0.95568 0.35845 0.04294 0.0
O6 O 0.99158 0.36728 0.04655 0.0
C7 C 0.95987 0.30784 0.99742 0.0
C8 C 0.98958 0.37855 0.966 0.0
O9 O 0.00521 0.37747 0.97928 0.0
O10 O 0.96873 0.36688 0.97346 0.0
C11 C 0.03725 0.3478 0.01545 0.0
O12 O 0.02809 0.33568 0.99328 0.0
C13 C 0.97436 0.36725 0.05642 0.0
Zn14 Zn 0.66146 0.6144 0.0023 0.0
Zn15 Zn 0.65607 0.64869 0.01686 0.0
O16 O 0.68943 0.66485 0.00297 0.0
O17 O 0.69458 0.6366 0.99364 0.0
O18 O 0.65406 0.67443 0.03269 0.0
O19 O 0.65331 0.60017 0.03923 0.0
O20 O 0.64806 0.62789 0.05044 0.0
C21 C 0.70222 0.65766 0.99502 0.0
C22 C 0.62618 0.61759 0.97109 0.0
O23 O 0.63178 0.63476 0.98612 0.0
O24 O 0.63626 0.6066 0.97423 0.0
C25 C 0.66178 0.69356 0.02121 0.0
O26 O 0.67039 0.69664 0.99675 0.0
C27 C 0.64773 0.60977 0.05667 0.0
Zn28 Zn 0.3533 0.96262 0.0357 0.0
Zn29 Zn 0.35211 -0.0004 0.02186 0.0
O30 O 0.32004 0.97808 0.03845 0.0
O31 O 0.32135 0.94807 0.05054 0.0
O32 O 0.34988 0.02586 0.00723 0.0
O33 O 0.35802 0.95682 0.99715 0.0
O34 O 0.35986 0.98873 0.98676 0.0
C35 C 0.31053 0.95841 0.0492 0.0
C36 C 0.38794 0.00398 0.06309 0.0
O37 O 0.37845 0.01324 0.0505 0.0
O38 O 0.38086 0.98315 0.05964 0.0
C39 C 0.33716 0.03231 0.01741 0.0
O40 O 0.32618 0.02285 0.03996 0.0
C41 C 0.36106 0.97163 0.97971 0.0
Zn42 Zn 0.05966 0.6625 0.0116 0.0
Zn43 Zn 0.01794 0.65675 0.00716 0.0
O44 O 0.0397 0.69019 0.01857 0.0
O45 O 0.07463 0.69603 0.01885 0.0
O46 O 0.98926 0.65644 0.99564 0.0
O47 O 0.05841 0.65005 0.97408 0.0
O48 O 0.02367 0.64456 0.97202 0.0
C49 C 0.06133 0.70346 0.02224 0.0
C50 C 0.02526 0.63149 0.05181 0.0
O51 O 0.01087 0.63514 0.0395 0.0
O52 O 0.0459 0.641 0.04372 0.0
C53 C 0.98194 0.66803 0.00672 0.0
O54 O 0.99173 0.67907 0.02937 0.0
C55 C 0.03955 0.64275 0.96131 0.0
Zn56 Zn 0.35461 0.39648 0.03281 0.0
Zn57 Zn 0.35033 0.35794 0.01419 0.0
O58 O 0.31768 0.34871 0.02761 0.0
O59 O 0.3211 0.38077 0.0407 0.0
O60 O 0.3457 0.32888 0.99807 0.0
O61 O 0.36607 0.41157 0.99652 0.0
O62 O 0.36344 0.38019 0.98179 0.0
C63 C 0.30877 0.35953 0.0371 0.0
C64 C 0.38225 0.38227 0.0624 0.0
O65 O 0.37428 0.36629 0.04492 0.0
O66 O 0.37632 0.39688 0.0617 0.0
C67 C 0.33029 0.30925 0.00623 0.0
O68 O 0.31729 0.30759 0.02665 0.0
C69 C 0.36858 0.40058 0.97782 0.0
Zn70 Zn 0.64606 0.03727 0.9913 0.0
Zn71 Zn 0.64786 0.00162 0.00881 0.0
O72 O 0.67974 0.02291 0.99129 0.0
O73 O 0.67828 0.0526 0.97808 0.0
O74 O 0.65193 0.97744 0.02624 0.0
O75 O 0.63927 0.0439 0.02869 0.0
O76 O 0.63863 0.0131 0.04208 0.0
C77 C 0.68907 0.04229 0.97978 0.0
C78 C 0.61312 0.99431 0.96491 0.0
O79 O 0.6214 0.98554 0.98069 0.0
O80 O 0.62065 0.0154 0.96574 0.0
C81 C 0.66072 0.96725 0.01493 0.0
O82 O 0.66681 0.97155 0.98937 0.0
C83 C 0.63631 0.02987 0.0472 0.0
Zn84 Zn 0.60687 0.67533 0.34408 0.0
Zn85 Zn 0.64893 0.68236 0.35186 0.0
O86 O 0.62794 0.64857 0.34155 0.0
O87 O 0.59269 0.64172 0.33828 0.0
O88 O 0.67734 0.68312 0.36537 0.0
O89 O 0.60663 0.68832 0.38078 0.0
O90 O 0.64197 0.6955 0.38523 0.0
C91 C 0.60656 0.63477 0.33693 0.0
C92 C 0.64248 0.70551 0.30423 0.0
O93 O 0.65672 0.70273 0.31828 0.0
O94 O 0.6216 0.69609 0.3114 0.0
C95 C 0.68574 0.67259 0.35405 0.0
O96 O 0.67749 0.66295 0.3303 0.0
C97 C 0.62527 0.69678 0.39433 0.0
Zn98 Zn 0.32058 0.94679 0.33092 0.0
Zn99 Zn 0.32032 0.98241 0.35225 0.0
O100 O 0.35292 0.99661 0.33618 0.0
O101 O 0.35409 0.96684 0.32249 0.0
O102 O 0.32166 0.00856 0.37193 0.0
O103 O 0.3111 0.92994 0.36658 0.0
O104 O 0.31182 0.95965 0.38363 0.0
C105 C 0.36378 0.98805 0.32586 0.0
C106 C 0.28789 0.95674 0.30511 0.0
O107 O 0.29455 0.972 0.3234 0.0
O108 O 0.29672 0.94452 0.30376 0.0
C109 C 0.32702 0.0275 0.36137 0.0
O110 O 0.33131 0.03058 0.33525 0.0
C111 C 0.30869 0.93988 0.38662 0.0
Zn112 Zn 0.00749 0.28508 0.35755 0.0
Zn113 Zn 0.01318 0.32503 0.34611 0.0
O114 O 0.97982 0.30614 0.36051 0.0
O115 O 0.9746 0.27228 0.36723 0.0
O116 O 0.01497 0.3531 0.33094 0.0
O117 O 0.01594 0.28026 0.32044 0.0
O118 O 0.02169 0.31403 0.31164 0.0
C119 C 0.96697 0.2855 0.36786 0.0
C120 C 0.04227 0.3226 0.39129 0.0
O121 O 0.0375 0.33513 0.37698 0.0
O122 O 0.03193 0.30143 0.38666 0.0
C123 C 0.00679 0.36431 0.34097 0.0
O124 O 0.99751 0.35894 0.36516 0.0
C125 C 0.02193 0.29652 0.30406 0.0
Zn126 Zn 0.72176 0.98893 0.36044 0.0
Zn127 Zn 0.68318 0.98812 0.3453 0.0
O128 O 0.70516 0.02068 0.35934 0.0
O129 O 0.73761 0.02238 0.36922 0.0
O130 O 0.6574 0.99042 0.32839 0.0
O131 O 0.72453 0.9778 0.32349 0.0
O132 O 0.69257 0.97666 0.31251 0.0
C133 C 0.72599 0.0319 0.36782 0.0
C134 C 0.68028 0.95822 0.39179 0.0
O135 O 0.66971 0.96461 0.37603 0.0
O136 O 0.70167 0.96607 0.38927 0.0
C137 C 0.64824 0.00057 0.3388 0.0
O138 O 0.65407 0.0086 0.36366 0.0
C139 C 0.70869 0.97334 0.3063 0.0
Zn140 Zn 0.00319 0.71923 0.36054 0.0
Zn141 Zn 0.0082 0.68489 0.34622 0.0
O142 O 0.97475 0.66943 0.36005 0.0
O143 O 0.96975 0.69798 0.36794 0.0
O144 O 0.0097 0.65835 0.33206 0.0
O145 O 0.0127 0.73379 0.32395 0.0
O146 O 0.01703 0.70556 0.31222 0.0
C147 C 0.96195 0.67688 0.36711 0.0
C148 C 0.03734 0.71529 0.39287 0.0
O149 O 0.0323 0.6987 0.3771 0.0
O150 O 0.02715 0.72619 0.38997 0.0
C151 C 0.9941 0.64548 0.31502 0.0
O152 O 0.97844 0.65031 0.30797 0.0
C153 C 0.01794 0.72404 0.30633 0.0
Zn154 Zn 0.31613 0.37529 0.32596 0.0
Zn155 Zn 0.31804 0.33878 0.3397 0.0
O156 O 0.35013 0.36197 0.32474 0.0
O157 O 0.34952 0.39294 0.31634 0.0
O158 O 0.32312 0.31409 0.3529 0.0
O159 O 0.30604 0.3772 0.36371 0.0
O160 O 0.30777 0.3472 0.37456 0.0
C161 C 0.36027 0.38254 0.31676 0.0
C162 C 0.28533 0.33426 0.29453 0.0
O163 O 0.29263 0.32451 0.31018 0.0
O164 O 0.29296 0.3553 0.297 0.0
C165 C 0.3077 0.2961 0.36442 0.0
O166 O 0.28678 0.29244 0.3663 0.0
C167 C 0.30365 0.36256 0.38109 0.0
Zn168 Zn 0.27884 0.01011 0.67815 0.0
Zn169 Zn 0.32004 0.0161 0.68745 0.0
O170 O 0.2989 0.98226 0.6764 0.0
O171 O 0.26412 0.9766 0.67245 0.0
O172 O 0.34826 0.01684 0.70182 0.0
O173 O 0.27759 0.02279 0.71446 0.0
O174 O 0.31238 0.02886 0.72089 0.0
C175 C 0.27745 0.969 0.67138 0.0
C176 C 0.3152 0.04019 0.63951 0.0
O177 O 0.32895 0.03716 0.65424 0.0
O178 O 0.29412 0.03079 0.64572 0.0
C179 C 0.3573 0.00648 0.69162 0.0
O180 O 0.34988 0.99649 0.66787 0.0
C181 C 0.29558 0.03044 0.72908 0.0
Zn182 Zn 0.98079 0.27593 0.65838 0.0
Zn183 Zn 0.98566 0.31212 0.68223 0.0
O184 O 0.01834 0.32334 0.66717 0.0
O185 O 0.01465 0.29152 0.6525 0.0
O186 O 0.98959 0.33974 0.70154 0.0
O187 O 0.9671 0.25704 0.69182 0.0
O188 O 0.97456 0.28811 0.7131 0.0
C189 C 0.02712 0.31263 0.65698 0.0
C190 C 0.95368 0.29143 0.63249 0.0
O191 O 0.96078 0.30509 0.65263 0.0
O192 O 0.96064 0.2778 0.62948 0.0
C193 C 0.99335 0.35728 0.68848 0.0
O194 O 0.99484 0.35733 0.6619 0.0
C195 C 0.96724 0.26691 0.71348 0.0
Zn196 Zn 0.701 0.64503 0.71258 0.0
Zn197 Zn 0.69737 0.67887 0.69158 0.0
O198 O 0.66512 0.65672 0.7074 0.0
O199 O 0.66803 0.62874 0.72415 0.0
O200 O 0.69316 0.70291 0.67339 0.0
O201 O 0.70948 0.63854 0.67637 0.0
O202 O 0.70653 0.66637 0.65908 0.0
C203 C 0.65614 0.63768 0.71963 0.0
C204 C 0.7322 0.68836 0.73749 0.0
O205 O 0.72318 0.69585 0.72083 0.0
O206 O 0.72571 0.66753 0.73786 0.0
C207 C 0.67928 0.70841 0.68233 0.0
O208 O 0.66866 0.69956 0.70526 0.0
C209 C 0.7107 0.65051 0.65615 0.0
Zn210 Zn 0.37157 0.31125 0.70119 0.0
Zn211 Zn 0.33483 0.31353 0.68792 0.0
O212 O 0.35751 0.34533 0.7035 0.0
O213 O 0.38729 0.34305 0.71626 0.0
O214 O 0.30963 0.31721 0.67172 0.0
O215 O 0.37684 0.30508 0.66295 0.0
O216 O 0.34411 0.30296 0.65381 0.0
C217 C 0.37736 0.35423 0.71471 0.0
C218 C 0.32959 0.27914 0.72981 0.0
O219 O 0.3206 0.28917 0.71789 0.0
O220 O 0.35017 0.28477 0.72512 0.0
C221 C 0.30224 0.32922 0.68146 0.0
O222 O 0.30989 0.33891 0.70532 0.0
C223 C 0.36078 0.30092 0.64627 0.0
Zn224 Zn 0.6869 0.06421 0.7061 0.0
Zn225 Zn 0.68202 0.02549 0.68717 0.0
O226 O 0.64981 0.01528 0.70302 0.0
O227 O 0.65394 0.0475 0.71678 0.0
O228 O 0.6791 0.9971 0.67117 0.0
O229 O 0.69525 0.07823 0.66903 0.0
O230 O 0.69148 0.04654 0.65367 0.0
C231 C 0.64142 0.02624 0.71351 0.0
C232 C 0.71716 0.05238 0.73251 0.0
O233 O 0.70797 0.03569 0.716 0.0
O234 O 0.711 0.06679 0.73263 0.0
C235 C 0.66008 0.97901 0.66551 0.0
O236 O 0.64069 0.9779 0.67104 0.0
C237 C 0.69585 0.06667 0.64956 0.0
Zn238 Zn 0.97174 0.70482 0.6513 0.0
Zn239 Zn 0.97387 0.67009 0.67182 0.0
O240 O 0.0062 0.69111 0.65573 0.0
O241 O 0.00529 0.72101 0.64203 0.0
O242 O 0.9772 0.64587 0.69044 0.0
O243 O 0.96178 0.71049 0.6872 0.0
O244 O 0.9652 0.68289 0.70423 0.0
C245 C 0.01619 0.71087 0.64519 0.0
C246 C 0.94023 0.66168 0.62535 0.0
O247 O 0.94776 0.6535 0.64307 0.0
O248 O 0.94806 0.68282 0.62433 0.0
C249 C 0.98541 0.63493 0.67972 0.0
O250 O 0.99106 0.63822 0.65396 0.0
C251 C 0.96069 0.69848 0.70732 0.0
C252 C 0.22244 0.32822 0.11528 0.0
C253 C 0.22122 0.31683 0.09121 0.0
C254 C 0.20279 0.32103 0.13068 0.0
C255 C 0.1816 0.30215 0.12243 0.0
C256 C 0.20023 0.29752 0.0833 0.0
C257 C 0.18044 0.29038 0.09869 0.0
C258 C 0.16035 0.29679 0.13656 0.0
C259 C 0.20486 0.28502 0.19429 0.0
C260 C 0.20968 0.29686 0.21894 0.0
C261 C 0.18728 0.28294 0.17701 0.0
C262 C 0.17497 0.29347 0.18376 0.0
C263 C 0.19647 0.30606 0.22646 0.0
C264 C 0.17936 0.30444 0.20908 0.0
C265 C 0.15777 0.29384 0.16506 0.0
C266 C 0.06683 0.28558 0.18746 0.0
C267 C 0.07393 0.29903 0.21111 0.0
C268 C 0.08314 0.28529 0.17068 0.0
C269 C 0.10671 0.29838 0.17745 0.0
C270 C 0.09756 0.31277 0.21713 0.0
C271 C 0.11375 0.31232 0.20059 0.0
C272 C 0.12419 0.29654 0.1621 0.0
C273 C 0.10475 0.33552 0.10556 0.0
C274 C 0.0906 0.32219 0.08379 0.0
C275 C 0.11592 0.32769 0.1222 0.0
C276 C 0.11351 0.30657 0.11714 0.0
C277 C 0.08844 0.30111 0.07861 0.0
C278 C 0.1 0.29347 0.09501 0.0
C279 C 0.12667 0.29927 0.13376 0.0
H280 H 0.23851 0.34315 0.12172 0.0
H281 H 0.20398 0.33076 0.14849 0.0
H282 H 0.19897 0.28861 0.06469 0.0
H283 H 0.16414 0.27601 0.09177 0.0
H284 H 0.21497 0.27784 0.1882 0.0
H285 H 0.1837 0.27353 0.15823 0.0
H286 H 0.20012 0.31542 0.24534 0.0
H287 H 0.17014 0.31259 0.21511 0.0
H288 H 0.04868 0.27491 0.18236 0.0
H289 H 0.07729 0.27422 0.15308 0.0
H290 H 0.10348 0.32314 0.23535 0.0
H291 H 0.13184 0.32257 0.20619 0.0
H292 H 0.10747 0.35216 0.10955 0.0
H293 H 0.12686 0.33835 0.13872 0.0
H294 H 0.07765 0.29044 0.06202 0.0
H295 H 0.09826 0.27729 0.09058 0.0
N296 N 0.14459 0.29919 0.12204 0.0
N297 N 0.13972 0.29382 0.17651 0.0
C298 C 0.66359 0.89735 0.10467 0.0
C299 C 0.67798 0.90772 0.08229 0.0
C300 C 0.66656 0.88278 0.1216 0.0
C301 C 0.68407 0.87828 0.11663 0.0
C302 C 0.69563 0.90333 0.07741 0.0
C303 C 0.69846 0.88851 0.09427 0.0
C304 C 0.68587 0.86142 0.13343 0.0
C305 C 0.71015 0.92068 0.19149 0.0
C306 C 0.69583 0.91601 0.21397 0.0
C307 C 0.70628 0.90321 0.17374 0.0
C308 C 0.68807 0.88082 0.17828 0.0
C309 C 0.67718 0.89378 0.21786 0.0
C310 C 0.67346 0.87634 0.20033 0.0
C311 C 0.68547 0.8616 0.16207 0.0
C312 C 0.68573 0.77825 0.19818 0.0
C313 C 0.66743 0.76997 0.21652 0.0
C314 C 0.68996 0.79578 0.18008 0.0
C315 C 0.67608 0.80533 0.18045 0.0
C316 C 0.65368 0.7796 0.21676 0.0
C317 C 0.65804 0.79715 0.19904 0.0
C318 C 0.68079 0.82485 0.16317 0.0
C319 C 0.65614 0.76575 0.10545 0.0
C320 C 0.67224 0.76917 0.08551 0.0
C321 C 0.65951 0.78378 0.12177 0.0
C322 C 0.67917 0.80554 0.11863 0.0
C323 C 0.69194 0.79096 0.08251 0.0
C324 C 0.69524 0.80901 0.09873 0.0
C325 C 0.68224 0.82506 0.13457 0.0
H326 H 0.64965 0.90014 0.10879 0.0
H327 H 0.65474 0.87455 0.1382 0.0
H328 H 0.70731 0.9114 0.06067 0.0
H329 H 0.71194 0.8851 0.08992 0.0
H330 H 0.72457 0.93773 0.18801 0.0
H331 H 0.71803 0.90703 0.15714 0.0
H332 H 0.66599 0.8897 0.23514 0.0
H333 H 0.65939 0.8592 0.20432 0.0
H334 H 0.69661 0.77112 0.1978 0.0
H335 H 0.70426 0.80215 0.16624 0.0
H336 H 0.63968 0.77371 0.23098 0.0
H337 H 0.64726 0.8044 0.19986 0.0
H338 H 0.64072 0.74919 0.10811 0.0
H339 H 0.64651 0.78081 0.13643 0.0
H340 H 0.70492 0.79403 0.06776 0.0
H341 H 0.71044 0.8257 0.09585 0.0
N342 N 0.68463 0.84332 0.12077 0.0
N343 N 0.68265 0.8432 0.17572 0.0
C344 C 0.10301 0.78183 0.11277 0.0
C345 C 0.09385 0.78384 0.08795 0.0
C346 C 0.1121 0.79949 0.13167 0.0
C347 C 0.11213 0.81948 0.12611 0.0
C348 C 0.09314 0.80346 0.08265 0.0
C349 C 0.10252 0.82133 0.10151 0.0
C350 C 0.12529 0.83944 0.14403 0.0
C351 C 0.06416 0.78884 0.19436 0.0
C352 C 0.07078 0.78134 0.2174 0.0
C353 C 0.08078 0.80716 0.17905 0.0
C354 C 0.10417 0.81823 0.18672 0.0
C355 C 0.09423 0.79204 0.22444 0.0
C356 C 0.1107 0.81036 0.20938 0.0
C357 C 0.12213 0.83857 0.17234 0.0
C358 C 0.20597 0.92978 0.20858 0.0
C359 C 0.20954 0.92153 0.2331 0.0
C360 C 0.18792 0.91515 0.19094 0.0
C361 C 0.17397 0.89183 0.19702 0.0
C362 C 0.19452 0.89878 0.24017 0.0
C363 C 0.177 0.88407 0.22231 0.0
C364 C 0.15678 0.87492 0.17734 0.0
C365 C 0.22329 0.90598 0.13148 0.0
C366 C 0.2236 0.91619 0.10659 0.0
C367 C 0.20286 0.89348 0.14578 0.0
C368 C 0.18239 0.89138 0.13585 0.0
C369 C 0.20319 0.91431 0.09674 0.0
C370 C 0.18271 0.9019 0.11123 0.0
C371 C 0.16024 0.87548 0.14895 0.0
H372 H 0.1037 0.7668 0.1172 0.0
H373 H 0.12007 0.79793 0.15008 0.0
H374 H 0.0862 0.80531 0.06353 0.0
H375 H 0.10279 0.83679 0.09664 0.0
H376 H 0.04616 0.78079 0.18852 0.0
H377 H 0.07533 0.81306 0.16175 0.0
H378 H 0.09976 0.78676 0.24225 0.0
H379 H 0.12864 0.81857 0.21563 0.0
H380 H 0.21742 0.94736 0.20285 0.0
H381 H 0.18543 0.92194 0.17222 0.0
H382 H 0.19714 0.89208 0.25893 0.0
H383 H 0.16647 0.86632 0.22787 0.0
H384 H 0.23877 0.90713 0.13952 0.0
H385 H 0.20293 0.8848 0.16415 0.0
H386 H 0.20283 0.9216 0.07733 0.0
H387 H 0.16697 0.89998 0.10285 0.0
N388 N 0.14417 0.8579 0.13347 0.0
N389 N 0.13784 0.8564 0.18771 0.0
C390 C 0.31677 0.09361 0.84241 0.0
C391 C 0.2996 0.08418 0.82197 0.0
C392 C 0.31792 0.10972 0.8606 0.0
C393 C 0.30141 0.11614 0.85936 0.0
C394 C 0.28286 0.0903 0.82118 0.0
C395 C 0.28374 0.106 0.83965 0.0
C396 C 0.30374 0.13526 0.87579 0.0
C397 C 0.30086 0.08587 0.93851 0.0
C398 C 0.32146 0.09437 0.95358 0.0
C399 C 0.29728 0.10034 0.92198 0.0
C400 C 0.31426 0.12352 0.92027 0.0
C401 C 0.3384 0.11755 0.95185 0.0
C402 C 0.33471 0.13205 0.93557 0.0
C403 C 0.31055 0.13921 0.90348 0.0
C404 C 0.29719 0.2163 0.93263 0.0
C405 C 0.31725 0.22985 0.94828 0.0
C406 C 0.29456 0.19787 0.91777 0.0
C407 C 0.31202 0.19274 0.91819 0.0
C408 C 0.33459 0.22458 0.94886 0.0
C409 C 0.33189 0.20605 0.93416 0.0
C410 C 0.30955 0.17334 0.90248 0.0
C411 C 0.31702 0.2239 0.8384 0.0
C412 C 0.30038 0.21537 0.81744 0.0
C413 C 0.31742 0.20926 0.85783 0.0
C414 C 0.30077 0.18588 0.8571 0.0
C415 C 0.28347 0.19215 0.81695 0.0
C416 C 0.28359 0.17757 0.83669 0.0
C417 C 0.30298 0.16954 0.87473 0.0
H418 H 0.32965 0.08894 0.84402 0.0
H419 H 0.33226 0.11773 0.87484 0.0
H420 H 0.26952 0.0836 0.80558 0.0
H421 H 0.2709 0.11075 0.83798 0.0
H422 H 0.28762 0.068 0.93934 0.0
H423 H 0.2812 0.09346 0.91072 0.0
H424 H 0.35438 0.12449 0.96334 0.0
H425 H 0.34796 0.14991 0.93469 0.0
H426 H 0.28367 0.22014 0.93164 0.0
H427 H 0.2789 0.1876 0.90598 0.0
H428 H 0.35016 0.23471 0.96087 0.0
H429 H 0.34549 0.20231 0.93493 0.0
H430 H 0.33062 0.24166 0.83872 0.0
H431 H 0.33154 0.21613 0.8724 0.0
H432 H 0.27067 0.18518 0.80073 0.0
H433 H 0.27073 0.15959 0.83538 0.0
N434 N 0.30024 0.15061 0.8627 0.0
N435 N 0.31325 0.15812 0.91566 0.0
C436 C 0.932 0.21166 0.92979 0.0
C437 C 0.92115 0.22232 0.94124 0.0
C438 C 0.91933 0.19215 0.91363 0.0
C439 C 0.89567 0.18294 0.9092 0.0
C440 C 0.89754 0.21313 0.93612 0.0
C441 C 0.88494 0.19357 0.92056 0.0
C442 C 0.88116 0.16162 0.8941 0.0
C443 C 0.91493 0.21439 0.82744 0.0
C444 C 0.92834 0.21026 0.80967 0.0
C445 C 0.90144 0.19836 0.84708 0.0
C446 C 0.90107 0.17787 0.84932 0.0
C447 C 0.92863 0.19012 0.81275 0.0
C448 C 0.91495 0.17399 0.83222 0.0
C449 C 0.88351 0.1592 0.86615 0.0
C450 C 0.7893 0.09739 0.83037 0.0
C451 C 0.79052 0.08286 0.8115 0.0
C452 C 0.80742 0.11015 0.84853 0.0
C453 C 0.82716 0.10859 0.84848 0.0
C454 C 0.81018 0.08101 0.81169 0.0
C455 C 0.82848 0.09399 0.82987 0.0
C456 C 0.84715 0.12418 0.86579 0.0
C457 C 0.78922 0.0749 0.91855 0.0
C458 C 0.78111 0.08561 0.9352 0.0
C459 C 0.8106 0.08777 0.90584 0.0
C460 C 0.82392 0.11148 0.90953 0.0
C461 C 0.79516 0.10895 0.94039 0.0
C462 C 0.81631 0.12174 0.92772 0.0
C463 C 0.84522 0.12631 0.89404 0.0
H464 H 0.95009 0.21812 0.93369 0.0
H465 H 0.92781 0.18397 0.90521 0.0
H466 H 0.88874 0.22115 0.94409 0.0
H467 H 0.86668 0.18675 0.91723 0.0
H468 H 0.91374 0.22936 0.82513 0.0
H469 H 0.89025 0.20139 0.85939 0.0
H470 H 0.93882 0.18647 0.7994 0.0
H471 H 0.91463 0.15814 0.83334 0.0
H472 H 0.77465 0.09957 0.83044 0.0
H473 H 0.80631 0.12185 0.86208 0.0
H474 H 0.81151 0.06975 0.79763 0.0
H475 H 0.84373 0.09281 0.82926 0.0
H476 H 0.77863 0.05685 0.91444 0.0
H477 H 0.81638 0.07931 0.89258 0.0
H478 H 0.7893 0.11748 0.95344 0.0
H479 H 0.82622 0.13992 0.93121 0.0
N480 N 0.8623 0.14501 0.9069 0.0
N481 N 0.86641 0.14051 0.85306 0.0
C482 C 0.80403 0.72167 0.93293 0.0
C483 C 0.79138 0.70099 0.94698 0.0
C484 C 0.82327 0.7263 0.91775 0.0
C485 C 0.83009 0.7103 0.9165 0.0
C486 C 0.7987 0.68537 0.94612 0.0
C487 C 0.81791 0.69005 0.93124 0.0
C488 C 0.84967 0.71402 0.89988 0.0
C489 C 0.7951 0.70411 0.83916 0.0
C490 C 0.8017 0.72147 0.81989 0.0
C491 C 0.81134 0.70425 0.8569 0.0
C492 C 0.83455 0.72197 0.85616 0.0
C493 C 0.82486 0.73933 0.81923 0.0
C494 C 0.84114 0.73957 0.83722 0.0
C495 C 0.85229 0.72044 0.87226 0.0
C496 C 0.91242 0.69296 0.82574 0.0
C497 C 0.92672 0.71178 0.80929 0.0
C498 C 0.9001 0.69499 0.8469 0.0
C499 C 0.90174 0.7158 0.85182 0.0
C500 C 0.92918 0.73286 0.81526 0.0
C501 C 0.9166 0.73477 0.83611 0.0
C502 C 0.88541 0.71694 0.87012 0.0
C503 C 0.93425 0.70814 0.92458 0.0
C504 C 0.9237 0.69052 0.94368 0.0
C505 C 0.9211 0.71463 0.90935 0.0
C506 C 0.89705 0.70313 0.91243 0.0
C507 C 0.89979 0.67917 0.94697 0.0
C508 C 0.88661 0.68536 0.93146 0.0
C509 C 0.88254 0.71014 0.89764 0.0
H510 H 0.79905 0.73421 0.93364 0.0
H511 H 0.83273 0.74226 0.90694 0.0
H512 H 0.78918 0.66916 0.95641 0.0
H513 H 0.82284 0.67746 0.93058 0.0
H514 H 0.77759 0.68966 0.83949 0.0
H515 H 0.80588 0.68983 0.87022 0.0
H516 H 0.83047 0.75275 0.80432 0.0
H517 H 0.85901 0.75316 0.83584 0.0
H518 H 0.90966 0.67637 0.82129 0.0
H519 H 0.88826 0.67999 0.85836 0.0
H520 H 0.94018 0.7477 0.80307 0.0
H521 H 0.91791 0.75092 0.83943 0.0
H522 H 0.95275 0.71724 0.92196 0.0
H523 H 0.92986 0.72897 0.89575 0.0
H524 H 0.8913 0.66545 0.96148 0.0
H525 H 0.86814 0.67623 0.93443 0.0
N526 N 0.86482 0.70908 0.91132 0.0
N527 N 0.87024 0.72188 0.85862 0.0
C528 C 0.73256 0.63287 0.43866 0.0
C529 C 0.74303 0.64986 0.4188 0.0
C530 C 0.74575 0.62668 0.45435 0.0
C531 C 0.76974 0.63785 0.45091 0.0
C532 C 0.76689 0.6609 0.4152 0.0
C533 C 0.78009 0.65499 0.43112 0.0
C534 C 0.78428 0.63118 0.46619 0.0
C535 C 0.7562 0.65177 0.53695 0.0
C536 C 0.74208 0.63364 0.55437 0.0
C537 C 0.76799 0.64876 0.51593 0.0
C538 C 0.76597 0.62765 0.51213 0.0
C539 C 0.73915 0.61221 0.54946 0.0
C540 C 0.75119 0.60933 0.52874 0.0
C541 C 0.78192 0.62562 0.49411 0.0
C542 C 0.87297 0.64299 0.52591 0.0
C543 C 0.86782 0.62598 0.54529 0.0
C544 C 0.85603 0.64113 0.50797 0.0
C545 C 0.83352 0.62214 0.50877 0.0
C546 C 0.84545 0.60657 0.5455 0.0
C547 C 0.82837 0.60481 0.52759 0.0
C548 C 0.81498 0.62204 0.49252 0.0
C549 C 0.86136 0.617 0.43249 0.0
C550 C 0.87386 0.63686 0.41691 0.0
C551 C 0.84269 0.61352 0.448 0.0
C552 C 0.8362 0.62979 0.44795 0.0
C553 C 0.86692 0.6528 0.4166 0.0
C554 C 0.8482 0.6492 0.43175 0.0
C555 C 0.81699 0.62704 0.46452 0.0
H556 H 0.71411 0.62403 0.44157 0.0
H557 H 0.73706 0.61283 0.46862 0.0
H558 H 0.77533 0.67418 0.40014 0.0
H559 H 0.79851 0.66388 0.42789 0.0
H560 H 0.75929 0.6686 0.54055 0.0
H561 H 0.77975 0.66326 0.50372 0.0
H562 H 0.72826 0.59789 0.5624 0.0
H563 H 0.74959 0.59297 0.52627 0.0
H564 H 0.88986 0.65836 0.52547 0.0
H565 H 0.8603 0.65513 0.49433 0.0
H566 H 0.84101 0.593 0.55987 0.0
H567 H 0.81105 0.59012 0.52876 0.0
H568 H 0.866 0.60419 0.43271 0.0
H569 H 0.83334 0.59818 0.45997 0.0
H570 H 0.87636 0.66843 0.40515 0.0
H571 H 0.84351 0.66198 0.4314 0.0
N572 N 0.80167 0.6315 0.45258 0.0
N573 N 0.79735 0.62127 0.50614 0.0
C574 C 0.31715 0.22652 0.44769 0.0
C575 C 0.32904 0.23571 0.42338 0.0
C576 C 0.32162 0.21247 0.46369 0.0
C577 C 0.33845 0.20764 0.45606 0.0
C578 C 0.34538 0.23033 0.41528 0.0
C579 C 0.35002 0.21639 0.43147 0.0
C580 C 0.34269 0.19214 0.47263 0.0
C581 C 0.36454 0.25199 0.52929 0.0
C582 C 0.35088 0.24648 0.55255 0.0
C583 C 0.36197 0.23482 0.51187 0.0
C584 C 0.34572 0.21192 0.51755 0.0
C585 C 0.33419 0.22364 0.55764 0.0
C586 C 0.33177 0.20654 0.54044 0.0
C587 C 0.34433 0.19327 0.50129 0.0
C588 C 0.3554 0.11507 0.53481 0.0
C589 C 0.33846 0.10608 0.55493 0.0
C590 C 0.35723 0.13203 0.51726 0.0
C591 C 0.34222 0.14018 0.51988 0.0
C592 C 0.32373 0.11443 0.55761 0.0
C593 C 0.3257 0.13141 0.5404 0.0
C594 C 0.3438 0.15845 0.50242 0.0
C595 C 0.32052 0.09808 0.44772 0.0
C596 C 0.33609 0.10202 0.42687 0.0
C597 C 0.32287 0.11612 0.46313 0.0
C598 C 0.34087 0.13846 0.45803 0.0
C599 C 0.35378 0.12446 0.4214 0.0
C600 C 0.35608 0.14252 0.43677 0.0
C601 C 0.34312 0.15773 0.47373 0.0
H602 H 0.30439 0.23025 0.45442 0.0
H603 H 0.31164 0.20514 0.48188 0.0
H604 H 0.35439 0.23665 0.39629 0.0
H605 H 0.36266 0.21247 0.4248 0.0
H606 H 0.37746 0.26951 0.5249 0.0
H607 H 0.37317 0.23935 0.49454 0.0
H608 H 0.3236 0.21893 0.57558 0.0
H609 H 0.31919 0.189 0.54527 0.0
H610 H 0.36692 0.10879 0.5325 0.0
H611 H 0.3704 0.13888 0.50188 0.0
H612 H 0.31062 0.10775 0.57308 0.0
H613 H 0.31406 0.13753 0.54294 0.0
H614 H 0.3063 0.08106 0.45187 0.0
H615 H 0.31042 0.11265 0.47878 0.0
H616 H 0.36598 0.128 0.40541 0.0
H617 H 0.36987 0.15967 0.43225 0.0
N618 N 0.34256 0.17459 0.45993 0.0
N619 N 0.3445 0.17625 0.51496 0.0
C620 C 0.77052 0.11661 0.45183 0.0
C621 C 0.76035 0.11625 0.4267 0.0
C622 C 0.77941 0.13556 0.46875 0.0
C623 C 0.77805 0.15445 0.46105 0.0
C624 C 0.7584 0.13485 0.4192 0.0
C625 C 0.76748 0.15397 0.43614 0.0
C626 C 0.79062 0.17563 0.47717 0.0
C627 C 0.73269 0.12666 0.53288 0.0
C628 C 0.7411 0.12026 0.55527 0.0
C629 C 0.748 0.14443 0.51592 0.0
C630 C 0.77179 0.15614 0.52149 0.0
C631 C 0.76493 0.13147 0.56008 0.0
C632 C 0.7801 0.14936 0.54351 0.0
C633 C 0.78841 0.1761 0.50552 0.0
C634 C 0.87283 0.26899 0.53601 0.0
C635 C 0.87646 0.26154 0.56111 0.0
C636 C 0.85443 0.25392 0.51899 0.0
C637 C 0.84019 0.23088 0.52628 0.0
C638 C 0.86124 0.23913 0.56929 0.0
C639 C 0.84344 0.22398 0.55208 0.0
C640 C 0.82229 0.21328 0.5077 0.0
C641 C 0.88567 0.24186 0.45541 0.0
C642 C 0.88437 0.25175 0.43099 0.0
C643 C 0.86647 0.23034 0.47196 0.0
C644 C 0.84567 0.22867 0.46448 0.0
C645 C 0.86386 0.25085 0.42392 0.0
C646 C 0.84452 0.23916 0.44048 0.0
C647 C 0.82446 0.21281 0.47914 0.0
H648 H 0.77205 0.10238 0.45813 0.0
H649 H 0.78822 0.13577 0.48735 0.0
H650 H 0.75062 0.1349 0.39986 0.0
H651 H 0.76667 0.16855 0.42959 0.0
H652 H 0.71433 0.11822 0.52888 0.0
H653 H 0.74126 0.14949 0.49907 0.0
H654 H 0.77179 0.127 0.57738 0.0
H655 H 0.79841 0.15809 0.54807 0.0
H656 H 0.88444 0.28629 0.52939 0.0
H657 H 0.8518 0.26021 0.49997 0.0
H658 H 0.8639 0.23297 0.58845 0.0
H659 H 0.83281 0.20651 0.55866 0.0
H660 H 0.90132 0.24227 0.46114 0.0
H661 H 0.86757 0.2218 0.48993 0.0
H662 H 0.86246 0.25812 0.40497 0.0
H663 H 0.82846 0.2376 0.43409 0.0
N664 N 0.80842 0.19411 0.46509 0.0
N665 N 0.80417 0.19488 0.51947 0.0
C666 C 0.98803 0.55836 0.15815 0.0
C667 C 0.00549 0.5668 0.13862 0.0
C668 C 0.98558 0.54182 0.17684 0.0
C669 C 0.00068 0.53365 0.17634 0.0
C670 C 0.02033 0.55837 0.1381 0.0
C671 C 0.0179 0.54197 0.15665 0.0
C672 C 0.99821 0.5155 0.19482 0.0
C673 C 0.01396 0.57487 0.24756 0.0
C674 C 0.9958 0.57009 0.26498 0.0
C675 C 0.01433 0.55727 0.23416 0.0
C676 C 0.99651 0.5346 0.23792 0.0
C677 C 0.9784 0.54735 0.26943 0.0
C678 C 0.97883 0.52975 0.25611 0.0
C679 C 0.99634 0.51585 0.22336 0.0
C680 C 0.01877 0.44615 0.2575 0.0
C681 C 0.00213 0.43341 0.27719 0.0
C682 C 0.01685 0.46173 0.24125 0.0
C683 C 0.99838 0.46508 0.24449 0.0
C684 C 0.9841 0.43741 0.28112 0.0
C685 C 0.98233 0.45325 0.265 0.0
C686 C 0.99621 0.48123 0.22668 0.0
C687 C 0.97616 0.42121 0.17149 0.0
C688 C 0.98974 0.42615 0.14824 0.0
C689 C 0.97919 0.43871 0.1886 0.0
C690 C 0.99605 0.46143 0.18292 0.0
C691 C 0.00721 0.44875 0.14328 0.0
C692 C 0.01025 0.4662 0.16036 0.0
C693 C 0.99718 0.48047 0.19811 0.0
H694 H 0.97644 0.56466 0.1591 0.0
H695 H 0.97178 0.53527 0.19142 0.0
H696 H 0.03377 0.56435 0.1231 0.0
H697 H 0.02959 0.53578 0.15562 0.0
H698 H 0.02762 0.59226 0.24391 0.0
H699 H 0.02848 0.56137 0.22075 0.0
H700 H 0.96446 0.5432 0.28319 0.0
H701 H 0.96512 0.51235 0.25961 0.0
H702 H 0.03331 0.44405 0.25461 0.0
H703 H 0.02985 0.4712 0.22612 0.0
H704 H 0.97109 0.42793 0.29622 0.0
H705 H 0.96812 0.45582 0.26805 0.0
H706 H 0.96273 0.40389 0.17595 0.0
H707 H 0.96763 0.43455 0.20549 0.0
H708 H 0.01784 0.45308 0.12542 0.0
H709 H 0.02328 0.48357 0.15545 0.0
N710 N 0.99842 0.49776 0.18343 0.0
N711 N 0.99546 0.4987 0.23824 0.0
C712 C 0.46244 0.40476 0.16002 0.0
C713 C 0.45914 0.41289 0.13524 0.0
C714 C 0.48105 0.41917 0.17714 0.0
C715 C 0.49594 0.44217 0.1702 0.0
C716 C 0.47507 0.43517 0.12728 0.0
C717 C 0.4932 0.44968 0.14458 0.0
C718 C 0.51371 0.45913 0.18935 0.0
C719 C 0.44818 0.43321 0.23616 0.0
C720 C 0.44734 0.42266 0.26094 0.0
C721 C 0.46848 0.44426 0.22142 0.0
C722 C 0.4882 0.4446 0.23094 0.0
C723 C 0.4668 0.42236 0.27012 0.0
C724 C 0.48721 0.4335 0.25533 0.0
C725 C 0.51048 0.45944 0.21768 0.0
C726 C 0.56812 0.55414 0.24913 0.0
C727 C 0.57658 0.55288 0.27483 0.0
C728 C 0.55923 0.53585 0.23119 0.0
C729 C 0.55884 0.51595 0.23844 0.0
C730 C 0.57674 0.53323 0.28194 0.0
C731 C 0.56772 0.51479 0.26393 0.0
C732 C 0.54571 0.49535 0.22143 0.0
C733 C 0.60589 0.54464 0.16873 0.0
C734 C 0.59835 0.55258 0.14702 0.0
C735 C 0.58985 0.52621 0.1844 0.0
C736 C 0.56622 0.51532 0.17806 0.0
C737 C 0.57471 0.54187 0.14115 0.0
C738 C 0.55884 0.52334 0.15638 0.0
C739 C 0.54872 0.49528 0.19317 0.0
H740 H 0.45029 0.38753 0.16642 0.0
H741 H 0.48326 0.4125 0.19612 0.0
H742 H 0.47271 0.44178 0.10829 0.0
H743 H 0.50441 0.46717 0.13835 0.0
H744 H 0.43328 0.43347 0.22861 0.0
H745 H 0.46901 0.45328 0.2031 0.0
H746 H 0.46648 0.41436 0.28924 0.0
H747 H 0.5024 0.43399 0.26326 0.0
H748 H 0.56779 0.56912 0.24321 0.0
H749 H 0.55162 0.5369 0.2122 0.0
H750 H 0.58293 0.53178 0.30179 0.0
H751 H 0.56705 0.49938 0.27018 0.0
H752 H 0.62411 0.55253 0.17333 0.0
H753 H 0.59587 0.52016 0.20097 0.0
H754 H 0.56854 0.54739 0.12416 0.0
H755 H 0.54068 0.51521 0.15119 0.0
N756 N 0.53277 0.47713 0.17842 0.0
N757 N 0.52678 0.47734 0.23256 0.0
C758 C 0.46396 0.04496 0.25927 0.0
C759 C 0.45152 0.02528 0.27516 0.0
C760 C 0.48266 0.04833 0.24391 0.0
C761 C 0.48924 0.03213 0.24436 0.0
C762 C 0.45861 0.00946 0.27602 0.0
C763 C 0.47737 0.01294 0.26097 0.0
C764 C 0.50852 0.03488 0.22793 0.0
C765 C 0.4528 0.02069 0.16615 0.0
C766 C 0.45932 0.0365 0.14493 0.0
C767 C 0.46921 0.02217 0.18479 0.0
C768 C 0.4924 0.03982 0.18299 0.0
C769 C 0.48233 0.05454 0.14358 0.0
C770 C 0.49873 0.05613 0.16238 0.0
C771 C 0.51051 0.03952 0.19981 0.0
C772 C 0.58314 0.02119 0.16406 0.0
C773 C 0.59279 0.03758 0.14334 0.0
C774 C 0.56806 0.02159 0.18278 0.0
C775 C 0.56286 0.03881 0.18169 0.0
C776 C 0.58737 0.05464 0.14223 0.0
C777 C 0.57276 0.05533 0.16126 0.0
C778 C 0.54506 0.03836 0.19921 0.0
C779 C 0.5976 0.0389 0.25666 0.0
C780 C 0.58842 0.02074 0.27514 0.0
C781 C 0.583 0.04341 0.24127 0.0
C782 C 0.55895 0.02942 0.24358 0.0
C783 C 0.56448 0.00733 0.27822 0.0
C784 C 0.54989 0.01159 0.26255 0.0
C785 C 0.54289 0.03348 0.22738 0.0
H786 H 0.45925 0.0577 0.25867 0.0
H787 H 0.49195 0.06354 0.2317 0.0
H788 H 0.44927 0.99401 0.28782 0.0
H789 H 0.48221 0.00028 0.26171 0.0
H790 H 0.43525 0.0064 0.16738 0.0
H791 H 0.4639 0.00879 0.19968 0.0
H792 H 0.48776 0.067 0.12747 0.0
H793 H 0.51654 0.06974 0.16034 0.0
H794 H 0.58677 0.0077 0.16538 0.0
H795 H 0.55994 0.00801 0.19749 0.0
H796 H 0.59361 0.06699 0.12596 0.0
H797 H 0.56863 0.06848 0.15952 0.0
H798 H 0.61608 0.04969 0.25433 0.0
H799 H 0.59052 0.05781 0.22761 0.0
H800 H 0.55705 0.99327 0.2924 0.0
H801 H 0.53143 0.00071 0.26501 0.0
N802 N 0.52467 0.03191 0.24047 0.0
N803 N 0.52882 0.04127 0.18673 0.0
C804 C 0.55365 0.99492 0.79004 0.0
C805 C 0.55286 0.98404 0.7657 0.0
C806 C 0.53356 0.98806 0.80437 0.0
C807 C 0.51232 0.96997 0.79482 0.0
C808 C 0.53179 0.96557 0.75641 0.0
C809 C 0.51156 0.95872 0.77077 0.0
C810 C 0.49087 0.96477 0.80833 0.0
C811 C 0.53199 0.94868 0.86634 0.0
C812 C 0.53652 0.95945 0.89173 0.0
C813 C 0.51547 0.94834 0.84867 0.0
C814 C 0.50402 0.95968 0.85568 0.0
C815 C 0.52411 0.96951 0.8994 0.0
C816 C 0.50814 0.9697 0.88158 0.0
C817 C 0.4878 0.96156 0.83676 0.0
C818 C 0.39881 0.95625 0.86005 0.0
C819 C 0.40681 0.9709 0.88267 0.0
C820 C 0.41446 0.95512 0.84293 0.0
C821 C 0.43824 0.96854 0.8484 0.0
C822 C 0.43062 0.98508 0.88716 0.0
C823 C 0.44616 0.98379 0.87032 0.0
C824 C 0.4551 0.96563 0.83327 0.0
C825 C 0.43263 0.00145 0.77604 0.0
C826 C 0.4177 0.98683 0.75556 0.0
C827 C 0.44547 0.9952 0.79213 0.0
C828 C 0.44391 0.97437 0.78782 0.0
C829 C 0.41664 0.96621 0.75084 0.0
C830 C 0.42979 0.96011 0.76674 0.0
C831 C 0.45761 0.96795 0.8049 0.0
H832 H 0.56976 0.00926 0.79747 0.0
H833 H 0.53452 0.99741 0.82244 0.0
H834 H 0.53086 0.95713 0.73753 0.0
H835 H 0.49527 0.94497 0.76286 0.0
H836 H 0.54143 0.94083 0.86008 0.0
H837 H 0.512 0.93956 0.82943 0.0
H838 H 0.52758 0.97819 0.91875 0.0
H839 H 0.49955 0.97844 0.88782 0.0
H840 H 0.3805 0.9452 0.85616 0.0
H841 H 0.408 0.9431 0.82623 0.0
H842 H 0.43723 0.99636 0.90458 0.0
H843 H 0.46444 0.99431 0.87486 0.0
H844 H 0.43444 0.01778 0.7796 0.0
H845 H 0.45676 0.0067 0.80788 0.0
H846 H 0.40532 0.9546 0.7352 0.0
H847 H 0.42861 0.94408 0.76294 0.0
N848 N 0.47544 0.9675 0.79346 0.0
N849 N 0.47009 0.9623 0.84794 0.0
C850 C 0.98549 0.56017 0.76528 0.0
C851 C 0.00029 0.57218 0.74373 0.0
C852 C 0.98881 0.54514 0.78086 0.0
C853 C 0.00692 0.54168 0.77517 0.0
C854 C 0.01799 0.56818 0.7375 0.0
C855 C 0.02119 0.55293 0.75302 0.0
C856 C 0.0103 0.5258 0.79201 0.0
C857 C 0.03434 0.58662 0.84749 0.0
C858 C 0.0205 0.58217 0.87037 0.0
C859 C 0.03074 0.56886 0.83043 0.0
C860 C 0.01337 0.54636 0.83617 0.0
C861 C 0.00273 0.55974 0.87559 0.0
C862 C -0.00069 0.54201 0.85876 0.0
C863 C 0.01128 0.52706 0.82063 0.0
C864 C 0.02139 0.44934 0.8577 0.0
C865 C 0.00487 0.44123 0.87834 0.0
C866 C 0.02291 0.46553 0.83908 0.0
C867 C 0.0079 0.47373 0.84093 0.0
C868 C 0.98999 0.44953 0.88004 0.0
C869 C 0.99158 0.46566 0.86166 0.0
C870 C 0.00969 0.49175 0.82284 0.0
C871 C 0.98772 0.43077 0.76966 0.0
C872 C 0.00313 0.43462 0.74866 0.0
C873 C 0.98976 0.44896 0.78452 0.0
C874 C 0.0075 0.47135 0.77895 0.0
C875 C 0.02076 0.45705 0.74301 0.0
C876 C 0.0228 0.47524 0.75788 0.0
C877 C 0.00957 0.49082 0.79414 0.0
H878 H 0.9712 0.56224 0.76999 0.0
H879 H 0.97708 0.53607 0.79729 0.0
H880 H 0.02957 0.5771 0.7209 0.0
H881 H 0.03506 0.55026 0.74807 0.0
H882 H 0.04827 0.60376 0.8432 0.0
H883 H 0.04212 0.57259 0.81344 0.0
H884 H 0.99212 0.55578 0.8934 0.0
H885 H 0.98596 0.52477 0.86373 0.0
H886 H 0.03297 0.44309 0.8559 0.0
H887 H 0.03595 0.47185 0.82356 0.0
H888 H 0.97725 0.44372 0.8959 0.0
H889 H 0.97997 0.47188 0.86365 0.0
H890 H 0.97383 0.41369 0.77428 0.0
H891 H 0.9773 0.44553 0.80012 0.0
H892 H 0.03312 0.46052 0.72724 0.0
H893 H 0.03651 0.49237 0.75311 0.0
N894 N 0.00983 0.5079 0.77978 0.0
N895 N 0.01066 0.50988 0.83485 0.0
C896 C 0.55372 0.59777 0.77771 0.0
C897 C 0.56213 0.58832 0.7594 0.0
C898 C 0.53271 0.58385 0.79075 0.0
C899 C 0.52008 0.56028 0.78591 0.0
C900 C 0.54862 0.5651 0.75315 0.0
C901 C 0.52782 0.55126 0.76619 0.0
C902 C 0.49963 0.54436 0.80204 0.0
C903 C 0.55813 0.57433 0.86322 0.0
C904 C 0.55508 0.58431 0.88632 0.0
C905 C 0.54018 0.56249 0.84449 0.0
C906 C 0.51891 0.56088 0.84797 0.0
C907 C 0.53398 0.5831 0.88959 0.0
C908 C 0.51603 0.57142 0.87061 0.0
C909 C 0.4988 0.54524 0.83067 0.0
C910 C 0.42592 0.45216 0.86352 0.0
C911 C 0.41653 0.45759 0.88538 0.0
C912 C 0.44061 0.46895 0.84523 0.0
C913 C 0.44522 0.49127 0.84748 0.0
C914 C 0.42125 0.47996 0.88756 0.0
C915 C 0.43535 0.49654 0.86881 0.0
C916 C 0.46263 0.50993 0.8303 0.0
C917 C 0.41152 0.45397 0.7753 0.0
C918 C 0.42249 0.44571 0.75922 0.0
C919 C 0.42453 0.47517 0.78821 0.0
C920 C 0.44862 0.48806 0.78539 0.0
C921 C 0.44617 0.45955 0.75455 0.0
C922 C 0.45909 0.48046 0.7675 0.0
C923 C 0.46379 0.50872 0.80172 0.0
H924 H 0.56389 0.61565 0.78291 0.0
H925 H 0.52682 0.59133 0.80535 0.0
H926 H 0.55464 0.55748 0.73889 0.0
H927 H 0.51837 0.5332 0.76182 0.0
H928 H 0.57417 0.57491 0.8602 0.0
H929 H 0.54265 0.55372 0.82797 0.0
H930 H 0.53094 0.59017 0.90749 0.0
H931 H 0.4996 0.56991 0.8741 0.0
H932 H 0.42228 0.43504 0.86076 0.0
H933 H 0.44876 0.46453 0.82977 0.0
H934 H 0.41466 0.48491 0.90433 0.0
H935 H 0.43906 0.51372 0.87141 0.0
H936 H 0.39318 0.4436 0.77891 0.0
H937 H 0.41595 0.48099 0.80125 0.0
H938 H 0.45489 0.45371 0.74175 0.0
H939 H 0.47757 0.49015 0.7646 0.0
N940 N 0.48214 0.5261 0.78891 0.0
N941 N 0.48011 0.52825 0.84347 0.0
C942 C 0.65121 0.76288 0.50578 0.0
C943 C 0.63345 0.75344 0.48603 0.0
C944 C 0.65363 0.77986 0.52342 0.0
C945 C 0.63782 0.78716 0.52233 0.0
C946 C 0.61738 0.76041 0.48546 0.0
C947 C 0.61954 0.77701 0.50339 0.0
C948 C 0.64148 0.8071 0.53804 0.0
C949 C 0.63897 0.75819 0.60156 0.0
C950 C 0.65995 0.76689 0.6159 0.0
C951 C 0.63494 0.77244 0.58516 0.0
C952 C 0.65188 0.7956 0.58283 0.0
C953 C 0.67679 0.79005 0.6136 0.0
C954 C 0.67269 0.80431 0.59743 0.0
C955 C 0.64807 0.81112 0.56581 0.0
C956 C 0.63714 0.89093 0.58938 0.0
C957 C 0.655 0.90256 0.60861 0.0
C958 C 0.63506 0.8726 0.57486 0.0
C959 C 0.65097 0.86568 0.57897 0.0
C960 C 0.67055 0.89524 0.61328 0.0
C961 C 0.66852 0.87695 0.59863 0.0
C962 C 0.64873 0.84608 0.56378 0.0
C963 C 0.66654 0.89793 0.49772 0.0
C964 C 0.64919 0.89221 0.47797 0.0
C965 C 0.66416 0.88213 0.51727 0.0
C966 C 0.64436 0.86027 0.51756 0.0
C967 C 0.62896 0.87059 0.47898 0.0
C968 C 0.62671 0.85466 0.49837 0.0
C969 C 0.64331 0.8426 0.53575 0.0
H970 H 0.66361 0.75757 0.50718 0.0
H971 H 0.66837 0.78782 0.5371 0.0
H972 H 0.60362 0.75369 0.47038 0.0
H973 H 0.60724 0.78246 0.50187 0.0
H974 H 0.62578 0.74033 0.60285 0.0
H975 H 0.61862 0.76542 0.57439 0.0
H976 H 0.69304 0.79718 0.62455 0.0
H977 H 0.68593 0.82215 0.59605 0.0
H978 H 0.62483 0.89609 0.58545 0.0
H979 H 0.62082 0.86373 0.56058 0.0
H980 H 0.68413 0.90349 0.62847 0.0
H981 H 0.68077 0.8717 0.60255 0.0
H982 H 0.68247 0.91431 0.49735 0.0
H983 H 0.67827 0.88671 0.53142 0.0
H984 H 0.61504 0.86582 0.46448 0.0
H985 H 0.61133 0.83784 0.49817 0.0
N986 N 0.63956 0.82313 0.52417 0.0
N987 N 0.65127 0.83038 0.5776 0.0
C988 C 0.1195 0.74399 0.49029 0.0
C989 C 0.11429 0.75451 0.46925 0.0
C990 C 0.13849 0.75703 0.50764 0.0
C991 C 0.15237 0.7807 0.50407 0.0
C992 C 0.12873 0.77794 0.46515 0.0
C993 C 0.14759 0.79086 0.48226 0.0
C994 C 0.17149 0.79564 0.523 0.0
C995 C 0.10704 0.76826 0.57131 0.0
C996 C 0.10577 0.75548 0.59425 0.0
C997 C 0.12754 0.78063 0.55716 0.0
C998 C 0.14714 0.78016 0.56524 0.0
C999 C 0.12536 0.75495 0.60244 0.0
C1000 C 0.14597 0.76735 0.5881 0.0
C1001 C 0.16929 0.79505 0.55157 0.0
C1002 C 0.23292 0.88845 0.58466 0.0
C1003 C 0.24201 0.88628 0.60945 0.0
C1004 C 0.22229 0.87032 0.56649 0.0
C1005 C 0.22066 0.84964 0.57262 0.0
C1006 C 0.241 0.86587 0.61542 0.0
C1007 C 0.23014 0.84754 0.5972 0.0
C1008 C 0.20599 0.82956 0.55533 0.0
C1009 C 0.26647 0.87504 0.49968 0.0
C1010 C 0.25969 0.88426 0.47861 0.0
C1011 C 0.24987 0.8579 0.51635 0.0
C1012 C 0.22637 0.84963 0.51175 0.0
C1013 C 0.23625 0.87651 0.47487 0.0
C1014 C 0.21977 0.85925 0.4911 0.0
C1015 C 0.20811 0.83006 0.52683 0.0
H1016 H 0.10854 0.7259 0.49379 0.0
H1017 H 0.14206 0.74875 0.52404 0.0
H1018 H 0.12516 0.78638 0.44891 0.0
H1019 H 0.15799 0.80903 0.47895 0.0
H1020 H 0.09222 0.76899 0.56457 0.0
H1021 H 0.1282 0.79107 0.54026 0.0
H1022 H 0.12495 0.74557 0.62035 0.0
H1023 H 0.16107 0.7672 0.59504 0.0
H1024 H 0.23344 0.90403 0.57971 0.0
H1025 H 0.21433 0.87216 0.54825 0.0
H1026 H 0.24771 0.8638 0.63459 0.0
H1027 H 0.2286 0.83157 0.60258 0.0
H1028 H 0.2845 0.88082 0.50289 0.0
H1029 H 0.25527 0.85059 0.53212 0.0
H1030 H 0.23059 0.88321 0.45863 0.0
H1031 H 0.20173 0.85317 0.48728 0.0
N1032 N 0.19085 0.81308 0.51194 0.0
N1033 N 0.18673 0.81193 0.56662 0.0
C1034 C 0.26337 0.37739 0.49825 0.0
C1035 C 0.25569 0.36058 0.478 0.0
C1036 C 0.24759 0.37795 0.51571 0.0
C1037 C 0.22393 0.36191 0.51279 0.0
C1038 C 0.23213 0.34397 0.47604 0.0
C1039 C 0.21641 0.34473 0.49314 0.0
C1040 C 0.20657 0.36415 0.52778 0.0
C1041 C 0.23448 0.33629 0.58925 0.0
C1042 C 0.24725 0.35129 0.61059 0.0
C1043 C 0.22166 0.34121 0.57125 0.0
C1044 C 0.22132 0.36125 0.57413 0.0
C1045 C 0.247 0.37146 0.61335 0.0
C1046 C 0.23389 0.37624 0.59546 0.0
C1047 C 0.20617 0.3653 0.55632 0.0
C1048 C 0.11073 0.33691 0.5793 0.0
C1049 C 0.11313 0.35104 0.60109 0.0
C1050 C 0.12946 0.3423 0.56299 0.0
C1051 C 0.15094 0.3621 0.56793 0.0
C1052 C 0.13437 0.3712 0.60568 0.0
C1053 C 0.15327 0.37657 0.58935 0.0
C1054 C 0.17138 0.36587 0.55311 0.0
C1055 C 0.12432 0.37035 0.49056 0.0
C1056 C 0.1163 0.35319 0.47074 0.0
C1057 C 0.14249 0.37441 0.50821 0.0
C1058 C 0.15281 0.36134 0.50614 0.0
C1059 C 0.12703 0.3406 0.4684 0.0
C1060 C 0.1451 0.34469 0.48578 0.0
C1061 C 0.17179 0.36459 0.52447 0.0
H1062 H 0.28145 0.39049 0.49994 0.0
H1063 H 0.25371 0.39151 0.53052 0.0
H1064 H 0.2257 0.33112 0.46027 0.0
H1065 H 0.19821 0.33226 0.49048 0.0
H1066 H 0.23406 0.3205 0.58675 0.0
H1067 H 0.21152 0.32903 0.55545 0.0
H1068 H 0.25705 0.38361 0.62919 0.0
H1069 H 0.23365 0.39167 0.59819 0.0
H1070 H 0.09446 0.32127 0.57543 0.0
H1071 H 0.12737 0.33045 0.54722 0.0
H1072 H 0.13655 0.38224 0.6225 0.0
H1073 H 0.1698 0.39172 0.59378 0.0
H1074 H 0.11624 0.38023 0.49275 0.0
H1075 H 0.14842 0.38765 0.52342 0.0
H1076 H 0.12127 0.32739 0.45314 0.0
H1077 H 0.15277 0.33442 0.48362 0.0
N1078 N 0.18941 0.36384 0.51308 0.0
N1079 N 0.18867 0.36628 0.56791 0.0
C1080 C 0.99891 0.39234 0.0948 0.0
C1081 C 0.97699 0.37944 0.08232 0.0
C1082 C 0.00268 0.4066 0.11696 0.0
C1083 C 0.98466 0.40838 0.12772 0.0
H1084 H 0.01356 0.39216 0.08677 0.0
H1085 H 0.02 0.41682 0.12526 0.0
S1086 S 0.92366 0.37695 0.10415 0.0
N1087 N 0.93663 0.36826 0.08383 0.0
N1088 N 0.94387 0.39525 0.12525 0.0
C1089 C 0.96244 0.39475 0.11643 0.0
C1090 C 0.95857 0.38024 0.0938 0.0
C1091 C 0.6416 0.58047 0.09117 0.0
C1092 C 0.63873 0.59851 0.08322 0.0
C1093 C 0.6299 0.56674 0.11346 0.0
C1094 C 0.6148 0.57047 0.12848 0.0
H1095 H 0.65214 0.57621 0.07934 0.0
H1096 H 0.63149 0.55221 0.11783 0.0
S1097 S 0.60368 0.6172 0.11886 0.0
N1098 N 0.62161 0.62084 0.09434 0.0
N1099 N 0.59946 0.59476 0.13608 0.0
C1100 C 0.61305 0.58937 0.12211 0.0
C1101 C 0.6251 0.6035 0.09955 0.0
C1102 C 0.40311 0.02061 0.10886 0.0
C1103 C 0.40733 0.01705 0.08206 0.0
C1104 C 0.42044 0.02813 0.12899 0.0
C1105 C 0.44253 0.03247 0.12282 0.0
H1106 H 0.38599 0.01632 0.11462 0.0
H1107 H 0.41628 0.0297 0.14971 0.0
S1108 S 0.4622 0.02656 0.05515 0.0
N1109 N 0.43507 0.01905 0.05006 0.0
N1110 N 0.46777 0.03343 0.08763 0.0
C1111 C 0.44717 0.03 0.09572 0.0
C1112 C 0.42949 0.02215 0.07539 0.0
C1113 C 0.38192 0.99024 0.9369 0.0
C1114 C 0.36855 0.97026 0.95204 0.0
C1115 C 0.39304 0.99009 0.91322 0.0
C1116 C 0.39088 0.9699 0.9036 0.0
H1117 H 0.38502 0.00638 0.94426 0.0
H1118 H 0.4043 0.00606 0.90307 0.0
S1119 S 0.35537 0.91253 0.93364 0.0
N1120 N 0.35182 0.92933 0.95405 0.0
N1121 N 0.37276 0.92913 0.90957 0.0
C1122 C 0.37617 0.94955 0.91734 0.0
C1123 C 0.36501 0.94971 0.94157 0.0
C1124 C 0.97699 0.38993 0.92428 0.0
C1125 C 0.99508 0.39348 0.94191 0.0
C1126 C 0.98067 0.40486 0.90297 0.0
C1127 C 0.00258 0.42402 0.89831 0.0
H1128 H 0.95961 0.37573 0.92727 0.0
H1129 H 0.96605 0.40173 0.89045 0.0
S1130 S 0.05613 0.4405 0.93727 0.0
N1131 N 0.03612 0.41703 0.95222 0.0
N1132 N 0.04294 0.44531 0.91208 0.0
C1133 C 0.02111 0.42731 0.91485 0.0
C1134 C 0.01737 0.412 0.93667 0.0
C1135 C 0.59944 0.58866 0.9373 0.0
C1136 C 0.60777 0.60987 0.94992 0.0
C1137 C 0.58246 0.58071 0.91695 0.0
C1138 C 0.57303 0.59359 0.90814 0.0
H1139 H 0.606 0.57792 0.94321 0.0
H1140 H 0.57651 0.56414 0.90819 0.0
S1141 S 0.58889 0.65041 0.93398 0.0
N1142 N 0.60522 0.64374 0.95193 0.0
N1143 N 0.57332 0.62873 0.91328 0.0
C1144 C 0.58099 0.61478 0.92056 0.0
C1145 C 0.59836 0.62294 0.94148 0.0
C1146 C 0.05253 0.62722 0.92439 0.0
C1147 C 0.03517 0.63006 0.93537 0.0
C1148 C 0.04796 0.61266 0.90229 0.0
C1149 C 0.02585 0.60029 0.8904 0.0
H1150 H 0.0696 0.63561 0.93354 0.0
H1151 H 0.06155 0.61019 0.89538 0.0
S1152 S 0.97515 0.60378 0.90869 0.0
N1153 N 0.99548 0.62087 0.93052 0.0
N1154 N 0.98706 0.59344 0.88915 0.0
C1155 C 0.0087 0.60391 0.90002 0.0
C1156 C 0.01333 0.61884 0.92241 0.0
C1157 C 0.37204 0.42647 0.94031 0.0
C1158 C 0.37883 0.41223 0.95201 0.0
C1159 C 0.38355 0.44012 0.91788 0.0
C1160 C 0.40274 0.44055 0.90672 0.0
H1161 H 0.35795 0.42735 0.94887 0.0
H1162 H 0.37769 0.45086 0.90965 0.0
S1163 S 0.42743 0.40637 0.9306 0.0
N1164 N 0.40532 0.39872 0.95067 0.0
N1165 N 0.42792 0.42528 0.90948 0.0
C1166 C 0.40935 0.42591 0.91798 0.0
C1167 C 0.39719 0.41157 0.94042 0.0
C1168 C 0.59741 0.98609 0.91791 0.0
C1169 C 0.5943 0.98034 0.94561 0.0
C1170 C 0.57858 0.97731 0.89985 0.0
C1171 C 0.55601 0.96297 0.90911 0.0
H1172 H 0.61439 0.99845 0.91049 0.0
H1173 H 0.58153 0.98322 0.87901 0.0
S1174 S 0.53896 0.94147 0.97926 0.0
N1175 N 0.56733 0.95805 0.98104 0.0
N1176 N 0.53171 0.94203 0.9472 0.0
C1177 C 0.55282 0.95604 0.93642 0.0
C1178 C 0.57207 0.96462 0.95468 0.0
C1179 C 0.60988 0.01249 0.08638 0.0
C1180 C 0.62799 0.03187 0.07394 0.0
C1181 C 0.59922 0.01439 0.10954 0.0
C1182 C 0.60657 0.03571 0.12138 0.0
H1183 H 0.60303 0.99588 0.07729 0.0
H1184 H 0.58439 0.99912 0.11736 0.0
S1185 S 0.65629 0.09109 0.0992 0.0
N1186 N 0.65453 0.07266 0.07656 0.0
N1187 N 0.63539 0.0762 0.12094 0.0
C1188 C 0.62586 0.05501 0.1102 0.0
C1189 C 0.63634 0.0531 0.08627 0.0
C1190 C 0.036 0.61875 0.09382 0.0
C1191 C 0.0186 0.6162 0.0757 0.0
C1192 C 0.03126 0.60332 0.11488 0.0
C1193 C 0.00892 0.58455 0.11874 0.0
H1194 H 0.05367 0.63258 0.0914 0.0
H1195 H 0.04539 0.60578 0.12786 0.0
S1196 S 0.95683 0.57069 0.07808 0.0
N1197 N 0.97777 0.5941 0.064 0.0
N1198 N 0.96889 0.56475 0.10355 0.0
C1199 C 0.99106 0.58228 0.10165 0.0
C1200 C 0.9959 0.59817 0.08014 0.0
C1201 C 0.41949 0.38534 0.07461 0.0
C1202 C 0.39961 0.38503 0.08277 0.0
C1203 C 0.43844 0.39292 0.09242 0.0
C1204 C 0.43771 0.39971 0.11909 0.0
H1205 H 0.42105 0.3813 0.05382 0.0
H1206 H 0.45414 0.39459 0.08493 0.0
S1207 S 0.38868 0.39947 0.15108 0.0
N1208 N 0.37967 0.39046 0.11973 0.0
N1209 N 0.41498 0.40396 0.15341 0.0
C1210 C 0.41732 0.39785 0.12802 0.0
C1211 C 0.39831 0.39067 0.10978 0.0
C1212 C 0.60876 0.70517 0.43452 0.0
C1213 C 0.62817 0.70969 0.41958 0.0
C1214 C 0.61079 0.71871 0.45679 0.0
C1215 C 0.63226 0.73753 0.46479 0.0
H1216 H 0.59178 0.69126 0.4287 0.0
H1217 H 0.59529 0.71468 0.46745 0.0
S1218 S 0.68843 0.75672 0.4322 0.0
N1219 N 0.66969 0.73399 0.4147 0.0
N1220 N 0.67339 0.75994 0.45582 0.0
C1221 C 0.65191 0.74191 0.45039 0.0
C1222 C 0.64989 0.72789 0.42797 0.0
C1223 C 0.28871 0.93428 0.43079 0.0
C1224 C 0.29999 0.92764 0.41271 0.0
C1225 C 0.27692 0.92087 0.45327 0.0
C1226 C 0.27632 0.90056 0.45877 0.0
H1227 H 0.28784 0.94926 0.42677 0.0
H1228 H 0.26733 0.92588 0.46578 0.0
S1229 S 0.30542 0.87703 0.41989 0.0
N1230 N 0.31161 0.90044 0.40343 0.0
N1231 N 0.28948 0.87536 0.44582 0.0
C1232 C 0.28884 0.89454 0.44206 0.0
C1233 C 0.30065 0.90804 0.41897 0.0
C1234 C 0.06016 0.31708 0.43271 0.0
C1235 C 0.05994 0.3321 0.41338 0.0
C1236 C 0.07786 0.32446 0.45205 0.0
C1237 C 0.09613 0.34718 0.453 0.0
H1238 H 0.04683 0.29923 0.43253 0.0
H1239 H 0.07763 0.31208 0.4659 0.0
S1240 S 0.10307 0.39386 0.40864 0.0
N1241 N 0.07895 0.37124 0.39763 0.0
N1242 N 0.11246 0.38507 0.43419 0.0
C1243 C 0.09564 0.36273 0.43487 0.0
C1244 C 0.07749 0.3552 0.41501 0.0
C1245 C 0.04647 0.3168 0.26398 0.0
C1246 C 0.0316 0.29621 0.27736 0.0
C1247 C 0.05914 0.31744 0.24141 0.0
C1248 C 0.05711 0.2975 0.23112 0.0
H1249 H 0.04939 0.33272 0.27187 0.0
H1250 H 0.07131 0.33377 0.23261 0.0
S1251 S 0.01848 0.23896 0.25655 0.0
N1252 N 0.01395 0.25511 0.27694 0.0
N1253 N 0.03779 0.25643 0.23454 0.0
C1254 C 0.04115 0.27665 0.24307 0.0
C1255 C 0.02839 0.27598 0.2662 0.0
C1256 C 0.67255 0.73879 0.27743 0.0
C1257 C 0.64989 0.72001 0.27962 0.0
C1258 C 0.67869 0.75436 0.25591 0.0
C1259 C 0.66238 0.7515 0.23593 0.0
H1260 H 0.68527 0.74211 0.2931 0.0
H1261 H 0.6959 0.7693 0.25569 0.0
S1262 S 0.60214 0.70314 0.22972 0.0
N1263 N 0.61205 0.69802 0.25793 0.0
N1264 N 0.62369 0.7272 0.21775 0.0
C1265 C 0.64025 0.732 0.23687 0.0
C1266 C 0.63397 0.71626 0.25866 0.0
C1267 C 0.27035 0.94634 0.25879 0.0
C1268 C 0.26917 0.95222 0.28578 0.0
C1269 C 0.25138 0.93823 0.24104 0.0
C1270 C 0.23049 0.93533 0.24985 0.0
H1271 H 0.28578 0.94722 0.25164 0.0
H1272 H 0.2526 0.93283 0.22082 0.0
S1273 S 0.21879 0.94937 0.31789 0.0
N1274 N 0.24588 0.95599 0.31989 0.0
N1275 N 0.20989 0.93992 0.28663 0.0
C1276 C 0.22934 0.94205 0.27633 0.0
C1277 C 0.24882 0.95078 0.29428 0.0
C1278 C 0.68652 0.95113 0.26515 0.0
C1279 C 0.70732 0.96186 0.28027 0.0
C1280 C 0.68332 0.93717 0.24289 0.0
C1281 C 0.70089 0.93365 0.23459 0.0
H1282 H 0.67213 0.95262 0.27125 0.0
H1283 H 0.6667 0.92849 0.23258 0.0
S1284 S 0.75935 0.95943 0.26534 0.0
N1285 N 0.74641 0.96928 0.28388 0.0
N1286 N 0.74028 0.94303 0.24196 0.0
C1287 C 0.7222 0.94525 0.24844 0.0
C1288 C 0.72544 0.95935 0.27129 0.0
C1289 C 0.04315 0.73178 0.26621 0.0
C1290 C 0.02757 0.73561 0.28013 0.0
C1291 C 0.05606 0.74576 0.24458 0.0
C1292 C 0.05357 0.76382 0.23584 0.0
H1293 H 0.0465 0.71883 0.27312 0.0
H1294 H 0.06886 0.7431 0.23544 0.0
S1295 S 0.01279 0.779 0.26294 0.0
N1296 N 0.00858 0.75725 0.28164 0.0
N1297 N 0.03289 0.78348 0.24103 0.0
C1298 C 0.0368 0.76672 0.24816 0.0
C1299 C 0.02379 0.75263 0.27032 0.0
C1300 C 0.26951 0.33162 0.24806 0.0
C1301 C 0.26755 0.32143 0.27351 0.0
C1302 C 0.25117 0.3222 0.22932 0.0
C1303 C 0.23015 0.30247 0.23558 0.0
H1304 H 0.28501 0.34755 0.24306 0.0
H1305 H 0.2529 0.33122 0.21055 0.0
S1306 S 0.21659 0.26855 0.29863 0.0
N1307 N 0.24349 0.2897 0.30324 0.0
N1308 N 0.20862 0.27235 0.26817 0.0
C1309 C 0.22828 0.29147 0.26032 0.0
C1310 C 0.24715 0.30084 0.27926 0.0
C1311 C 0.29444 0.38197 0.41701 0.0
C1312 C 0.29453 0.36261 0.40829 0.0
C1313 C 0.28317 0.38163 0.44075 0.0
C1314 C 0.27137 0.36186 0.45656 0.0
H1315 H 0.30247 0.39733 0.40493 0.0
H1316 H 0.28258 0.39656 0.44591 0.0
S1317 S 0.26846 0.30744 0.4446 0.0
N1318 N 0.28348 0.3237 0.4189 0.0
N1319 N 0.26209 0.32312 0.46341 0.0
C1320 C 0.27238 0.3428 0.44901 0.0
C1321 C 0.28405 0.34317 0.42495 0.0
C1322 C 0.67103 0.94787 0.44026 0.0
C1323 C 0.66793 0.94112 0.41293 0.0
C1324 C 0.6636 0.93179 0.46121 0.0
C1325 C 0.6532 0.90842 0.45553 0.0
H1326 H 0.68008 0.96576 0.44548 0.0
H1327 H 0.66682 0.93778 0.48203 0.0
S1328 S 0.64116 0.88239 0.38677 0.0
N1329 N 0.65328 0.90988 0.38096 0.0
N1330 N 0.63989 0.87953 0.42015 0.0
C1331 C 0.6493 0.90149 0.42809 0.0
C1332 C 0.65662 0.91791 0.40682 0.0
C1333 C 0.05951 0.74035 0.43208 0.0
C1334 C 0.05565 0.72283 0.41413 0.0
C1335 C 0.07792 0.74968 0.45063 0.0
C1336 C 0.09323 0.74184 0.4522 0.0
H1337 H 0.04858 0.74744 0.43141 0.0
H1338 H 0.08058 0.7636 0.46343 0.0
S1339 S 0.09017 0.69533 0.41155 0.0
N1340 N 0.06814 0.6971 0.40039 0.0
N1341 N 0.10289 0.71485 0.43553 0.0
C1342 C 0.08911 0.72366 0.43546 0.0
C1343 C 0.0703 0.71411 0.41635 0.0
C1344 C 0.27753 0.03727 0.76886 0.0
C1345 C 0.29753 0.04257 0.75468 0.0
C1346 C 0.27855 0.0501 0.7914 0.0
C1347 C 0.29955 0.06903 0.80043 0.0
H1348 H 0.26086 0.02329 0.76222 0.0
H1349 H 0.26261 0.04544 0.80146 0.0
S1350 S 0.35696 0.09003 0.77016 0.0
N1351 N 0.33909 0.06758 0.75166 0.0
N1352 N 0.34093 0.09231 0.79326 0.0
C1353 C 0.3198 0.07416 0.78681 0.0
C1354 C 0.3188 0.0608 0.76412 0.0
C1355 C 0.94587 0.22942 0.73701 0.0
C1356 C 0.95831 0.25331 0.73876 0.0
C1357 C 0.93674 0.21582 0.76007 0.0
C1358 C 0.93971 0.22544 0.78603 0.0
H1359 H 0.94276 0.221 0.71753 0.0
H1360 H 0.92674 0.19755 0.75738 0.0
S1361 S 0.97223 0.28705 0.80228 0.0
N1362 N 0.9739 0.28605 0.76892 0.0
N1363 N 0.957 0.26036 0.81244 0.0
C1364 C 0.95248 0.2493 0.78829 0.0
C1365 C 0.96172 0.26324 0.76466 0.0
C1366 C 0.77349 0.7115 0.75046 0.0
C1367 C 0.75042 0.7034 0.75684 0.0
C1368 C 0.79055 0.71934 0.77089 0.0
C1369 C 0.78497 0.71899 0.79841 0.0
H1370 H 0.77806 0.71017 0.72984 0.0
H1371 H 0.80781 0.72393 0.76533 0.0
S1372 S 0.72745 0.70208 0.825 0.0
N1373 N 0.72317 0.69749 0.79193 0.0
N1374 N 0.75521 0.7124 0.83043 0.0
C1375 C 0.76225 0.71258 0.80468 0.0
C1376 C 0.74495 0.70468 0.78386 0.0
C1377 C 0.72814 0.63316 0.62873 0.0
C1378 C 0.71778 0.64624 0.62954 0.0
C1379 C 0.73555 0.629 0.60433 0.0
C1380 C 0.73278 0.63757 0.57953 0.0
H1381 H 0.73099 0.62632 0.64722 0.0
H1382 H 0.74402 0.61938 0.60506 0.0
S1383 S 0.70532 0.67158 0.57001 0.0
N1384 N 0.70437 0.66713 0.60311 0.0
N1385 N 0.71796 0.65889 0.55699 0.0
C1386 C 0.7221 0.65037 0.57984 0.0
C1387 C 0.71467 0.65478 0.60486 0.0
C1388 C 0.34482 0.07558 0.61548 0.0
C1389 C 0.32333 0.05502 0.61529 0.0
C1390 C 0.35059 0.09167 0.59465 0.0
C1391 C 0.33514 0.08747 0.573 0.0
H1392 H 0.35655 0.07986 0.63262 0.0
H1393 H 0.36655 0.10796 0.59631 0.0
S1394 S 0.27872 0.0348 0.56067 0.0
N1395 N 0.28799 0.03028 0.58981 0.0
N1396 N 0.29896 0.06045 0.55086 0.0
C1397 C 0.31453 0.06633 0.57154 0.0
C1398 C 0.30859 0.05009 0.59265 0.0
C1399 C 0.93729 0.28553 0.58569 0.0
C1400 C 0.93601 0.28984 0.61332 0.0
C1401 C 0.91848 0.27871 0.56799 0.0
C1402 C 0.89764 0.27553 0.57748 0.0
H1403 H 0.95251 0.28626 0.57804 0.0
H1404 H 0.91963 0.27409 0.54732 0.0
S1405 S 0.88611 0.28658 0.64723 0.0
N1406 N 0.91299 0.29253 0.64869 0.0
N1407 N 0.87729 0.2789 0.6155 0.0
C1408 C 0.89662 0.2812 0.60456 0.0
C1409 C 0.91595 0.28862 0.62248 0.0
C1410 C 0.33863 0.27837 0.60532 0.0
C1411 C 0.35986 0.29083 0.61937 0.0
C1412 C 0.33617 0.26505 0.58266 0.0
C1413 C 0.35488 0.26395 0.57293 0.0
H1414 H 0.32344 0.27782 0.61275 0.0
H1415 H 0.31926 0.2548 0.57331 0.0
S1416 S 0.41476 0.29551 0.60014 0.0
N1417 N 0.40049 0.30293 0.62015 0.0
N1418 N 0.39574 0.27784 0.57754 0.0
C1419 C 0.37654 0.27753 0.58553 0.0
C1420 C 0.37905 0.29098 0.60876 0.0
C1421 C 0.71689 0.07229 0.60626 0.0
C1422 C 0.70347 0.07747 0.62265 0.0
C1423 C 0.72792 0.08535 0.58322 0.0
C1424 C 0.72546 0.10364 0.57553 0.0
H1425 H 0.7201 0.05904 0.61219 0.0
H1426 H 0.73929 0.08179 0.57205 0.0
S1427 S 0.68977 0.12217 0.60957 0.0
N1428 N 0.68654 0.10071 0.62812 0.0
N1429 N 0.70708 0.12502 0.58465 0.0
C1430 C 0.71073 0.10788 0.59057 0.0
C1431 C 0.69979 0.09485 0.61421 0.0
C1432 C 0.92645 0.64822 0.57841 0.0
C1433 C 0.92161 0.64694 0.6062 0.0
C1434 C 0.90869 0.6396 0.55883 0.0
C1435 C 0.88549 0.62987 0.56634 0.0
H1436 H 0.94416 0.65708 0.57171 0.0
H1437 H 0.91329 0.64173 0.53758 0.0
S1438 S 0.86403 0.62168 0.63697 0.0
N1439 N 0.89225 0.63406 0.64058 0.0
N1440 N 0.85876 0.61848 0.60393 0.0
C1441 C 0.88041 0.62735 0.59427 0.0
C1442 C 0.89854 0.63584 0.61418 0.0
C1443 C 0.94273 0.71512 0.7352 0.0
C1444 C 0.95324 0.70218 0.734 0.0
C1445 C 0.93465 0.71836 0.75967 0.0
C1446 C 0.93687 0.70899 0.78413 0.0
H1447 H 0.94023 0.72247 0.71696 0.0
H1448 H 0.92605 0.72786 0.75923 0.0
S1449 S 0.96462 0.67515 0.79263 0.0
N1450 N 0.96632 0.68069 0.75977 0.0
N1451 N 0.95149 0.68724 0.80598 0.0
C1452 C 0.94779 0.69642 0.78345 0.0
C1453 C 0.95591 0.69294 0.75838 0.0
C1454 C 0.31484 0.24017 0.74691 0.0
C1455 C 0.31687 0.26136 0.75016 0.0
C1456 C 0.30774 0.22464 0.76838 0.0
C1457 C 0.30304 0.23004 0.79402 0.0
H1458 H 0.31979 0.23603 0.728 0.0
H1459 H 0.30738 0.20891 0.7654 0.0
S1460 S 0.30455 0.28278 0.81245 0.0
N1461 N 0.31227 0.28642 0.78025 0.0
N1462 N 0.29956 0.25742 0.82103 0.0
C1463 C 0.30404 0.25076 0.79719 0.0
C1464 C 0.31079 0.26638 0.7751 0.0
C1465 C 0.73071 0.05361 0.77976 0.0
C1466 C 0.7352 0.05546 0.75185 0.0
C1467 C 0.74859 0.06096 0.79898 0.0
C1468 C 0.77169 0.07094 0.79094 0.0
H1469 H 0.71336 0.04728 0.78676 0.0
H1470 H 0.74441 0.05979 0.82031 0.0
S1471 S 0.79209 0.07886 0.71986 0.0
N1472 N 0.76384 0.0667 0.71683 0.0
N1473 N 0.79778 0.0814 0.75283 0.0
C1474 C 0.7762 0.07188 0.76295 0.0
C1475 C 0.75786 0.06401 0.74342 0.0
C1476 C 0.06494 0.33451 0.0216 0.0
C1477 C 0.05272 0.34376 0.03288 0.0
C1478 C 0.07748 0.32798 0.03811 0.0
C1479 C 0.07807 0.3302 0.06658 0.0
H1480 H 0.06457 0.332 0.99985 0.0
H1481 H 0.08665 0.32099 0.02848 0.0
S1482 S 0.04816 0.35252 0.10641 0.0
N1483 N 0.04191 0.35467 0.07445 0.0
N1484 N 0.06475 0.34168 0.10537 0.0
C1485 C 0.06604 0.33955 0.07811 0.0
C1486 C 0.05356 0.34651 0.06131 0.0
C1487 C 0.65972 0.71077 0.06489 0.0
C1488 C 0.6632 0.71272 0.03661 0.0
C1489 C 0.66243 0.72899 0.08041 0.0
C1490 C 0.66867 0.74991 0.06832 0.0
H1491 H 0.65536 0.6952 0.07535 0.0
H1492 H 0.66013 0.72681 0.10218 0.0
S1493 S 0.67755 0.76327 0.99475 0.0
N1494 N 0.67186 0.73694 0.99694 0.0
N1495 N 0.67657 0.77104 0.02611 0.0
C1496 C 0.67152 0.75193 0.03998 0.0
C1497 C 0.66886 0.73338 0.02414 0.0
C1498 C 0.27728 0.92562 0.07223 0.0
C1499 C 0.28736 0.94775 0.06158 0.0
C1500 C 0.25652 0.91555 0.08622 0.0
C1501 C 0.24486 0.92711 0.09022 0.0
H1502 H 0.28565 0.91599 0.07019 0.0
H1503 H 0.2496 0.89855 0.09416 0.0
S1504 S 0.26298 0.98486 0.06547 0.0
N1505 N 0.28333 0.98052 0.05502 0.0
N1506 N 0.24431 0.96154 0.08177 0.0
C1507 C 0.2542 0.94892 0.07902 0.0
C1508 C 0.27544 0.95925 0.06463 0.0
C1509 C 0.34898 0.06285 0.98249 0.0
C1510 C 0.33339 0.04892 0.00261 0.0
C1511 C 0.34519 0.07776 0.96706 0.0
C1512 C 0.32547 0.07905 0.97084 0.0
H1513 H 0.36422 0.06217 0.9785 0.0
H1514 H 0.35753 0.08803 0.95164 0.0
S1515 S 0.27957 0.04681 0.02116 0.0
N1516 N 0.29765 0.03789 0.02582 0.0
N1517 N 0.29051 0.06578 0.99654 0.0
C1518 C 0.30986 0.06547 0.99101 0.0
C1519 C 0.31384 0.05048 0.00699 0.0
C1520 C 0.93261 0.26606 0.99514 0.0
C1521 C 0.95302 0.28534 0.98637 0.0
C1522 C 0.9234 0.24527 0.98158 0.0
C1523 C 0.93391 0.24314 0.95825 0.0
H1524 H 0.92327 0.26723 0.01207 0.0
H1525 H 0.90732 0.23098 0.98874 0.0
S1526 S 0.98841 0.28858 0.92792 0.0
N1527 N 0.98443 0.30086 0.95421 0.0
N1528 N 0.96655 0.26201 0.92784 0.0
C1529 C 0.95502 0.26206 0.95012 0.0
C1530 C 0.96468 0.28314 0.96437 0.0
C1531 C 0.74412 0.67323 0.99886 0.0
C1532 C 0.72577 0.67348 0.98593 0.0
C1533 C 0.76592 0.68394 0.98714 0.0
C1534 C 0.76995 0.69471 0.96168 0.0
H1535 H 0.74131 0.6638 0.01754 0.0
H1536 H 0.77942 0.68269 0.99738 0.0
S1537 S 0.72742 0.7008 0.92039 0.0
N1538 N 0.71303 0.68652 0.94753 0.0
N1539 N 0.75384 0.70591 0.92467 0.0
C1540 C 0.75196 0.69614 0.9493 0.0
C1541 C 0.72985 0.68559 0.9616 0.0
C1542 C 0.96396 0.67006 0.96299 0.0
C1543 C 0.96557 0.67225 0.99153 0.0
C1544 C 0.95044 0.67607 0.94767 0.0
C1545 C 0.93764 0.68404 0.96032 0.0
H1546 H 0.97378 0.6643 0.95226 0.0
H1547 H 0.94997 0.67447 0.92575 0.0
S1548 S 0.93495 0.69206 0.03426 0.0
N1549 N 0.95269 0.68258 0.03177 0.0
N1550 N 0.92682 0.69335 0.00287 0.0
C1551 C 0.93855 0.68579 0.98879 0.0
C1552 C 0.95264 0.68004 0.00441 0.0
C1553 C 0.34328 0.29032 0.97395 0.0
C1554 C 0.3267 0.28858 0.99227 0.0
C1555 C 0.34019 0.27121 0.96006 0.0
C1556 C 0.3203 0.24968 0.96367 0.0
H1557 H 0.35882 0.30657 0.97027 0.0
H1558 H 0.35333 0.27338 0.94605 0.0
S1559 S 0.27189 0.2356 0.00956 0.0
N1560 N 0.28974 0.26323 0.0135 0.0
N1561 N 0.28404 0.22746 0.98725 0.0
C1562 C 0.30364 0.24759 0.98196 0.0
C1563 C 0.30684 0.26699 0.99632 0.0
C1564 C 0.72701 0.0447 0.97402 0.0
C1565 C 0.7122 0.05266 0.96746 0.0
C1566 C 0.74919 0.05493 0.96297 0.0
C1567 C 0.75718 0.07338 0.94505 0.0
H1568 H 0.72162 0.03079 0.98816 0.0
H1569 H 0.76036 0.04879 0.969 0.0
S1570 S 0.72451 0.09892 0.91867 0.0
N1571 N 0.70675 0.07903 0.93989 0.0
N1572 N 0.74823 0.09797 0.91938 0.0
C1573 C 0.74231 0.08089 0.93751 0.0
C1574 C 0.71988 0.07062 0.94866 0.0
C1575 C 0.66591 0.9533 0.05982 0.0
C1576 C 0.66538 0.9519 0.03127 0.0
C1577 C 0.6704 0.93926 0.07599 0.0
C1578 C 0.67437 0.92306 0.06436 0.0
H1579 H 0.66304 0.96551 0.06988 0.0
H1580 H 0.67083 0.94119 0.09786 0.0
S1581 S 0.67386 0.91175 0.99064 0.0
N1582 N 0.66888 0.93272 0.99201 0.0
N1583 N 0.67674 0.90589 0.02248 0.0
C1584 C 0.67384 0.92139 0.03584 0.0
C1585 C 0.66946 0.93587 0.0193 0.0
C1586 C 0.05511 0.73268 0.04381 0.0
C1587 C 0.07047 0.72634 0.03436 0.0
C1588 C 0.06291 0.75211 0.06 0.0
C1589 C 0.08628 0.76578 0.06731 0.0
H1590 H 0.03677 0.72198 0.03987 0.0
H1591 H 0.05045 0.7558 0.06799 0.0
S1592 S 0.13405 0.75908 0.04462 0.0
N1593 N 0.11069 0.73725 0.03098 0.0
N1594 N 0.12505 0.77347 0.06165 0.0
C1595 C 0.10199 0.76064 0.05656 0.0
C1596 C 0.09417 0.74102 0.03997 0.0
C1597 C 0.27371 0.32459 0.05497 0.0
C1598 C 0.28461 0.34741 0.04644 0.0
C1599 C 0.25249 0.31422 0.0684 0.0
C1600 C 0.24162 0.32638 0.07365 0.0
H1601 H 0.28215 0.31507 0.05256 0.0
H1602 H 0.24511 0.29702 0.07585 0.0
S1603 S 0.26084 0.38496 0.05144 0.0
N1604 N 0.28129 0.3807 0.04123 0.0
N1605 N 0.24163 0.36119 0.06652 0.0
C1606 C 0.2515 0.34855 0.06359 0.0
C1607 C 0.27294 0.35907 0.04995 0.0
C1608 C 0.70305 0.67035 0.39824 0.0
C1609 C 0.70173 0.66807 0.3697 0.0
C1610 C 0.71633 0.66428 0.41397 0.0
C1611 C 0.72911 0.6561 0.40175 0.0
H1612 H 0.69329 0.67632 0.40867 0.0
H1613 H 0.71667 0.66606 0.43585 0.0
S1614 S 0.73219 0.64741 0.32807 0.0
N1615 N 0.7147 0.65722 0.32998 0.0
N1616 N 0.74002 0.64625 0.35966 0.0
C1617 C 0.72837 0.65413 0.37331 0.0
C1618 C 0.71458 0.65999 0.35727 0.0
C1619 C 0.33213 0.06603 0.36637 0.0
C1620 C 0.32906 0.04614 0.37855 0.0
C1621 C 0.33443 0.08401 0.3821 0.0
C1622 C 0.33374 0.08281 0.41064 0.0
H1623 H 0.3327 0.06777 0.34447 0.0
H1624 H 0.33651 0.09887 0.3718 0.0
S1625 S 0.3274 0.0352 0.45279 0.0
N1626 N 0.32616 0.02673 0.42119 0.0
N1627 N 0.33079 0.06064 0.45056 0.0
C1628 C 0.3309 0.06317 0.42314 0.0
C1629 C 0.3285 0.04482 0.40716 0.0
C1630 C 0.93054 0.25404 0.38731 0.0
C1631 C 0.94408 0.27714 0.38007 0.0
C1632 C 0.91083 0.24597 0.40297 0.0
C1633 C 0.90367 0.26057 0.41184 0.0
H1634 H 0.93561 0.24212 0.38175 0.0
H1635 H 0.90141 0.22823 0.40881 0.0
S1636 S 0.93127 0.32188 0.39641 0.0
N1637 N 0.94773 0.31419 0.38142 0.0
N1638 N 0.9103 0.29869 0.41082 0.0
C1639 C 0.91605 0.28335 0.40351 0.0
C1640 C 0.93635 0.29171 0.38761 0.0
C1641 C 0.00192 0.39788 0.3369 0.0
C1642 C 0.00617 0.3821 0.32449 0.0
C1643 C 0.00063 0.41441 0.32154 0.0
C1644 C 0.00343 0.41574 0.29318 0.0
H1645 H -0.00033 0.39755 0.35867 0.0
H1646 H 0.99763 0.42638 0.332 0.0
S1647 S 0.01292 0.37728 0.25046 0.0
N1648 N 0.01215 0.36832 0.28181 0.0
N1649 N 0.0092 0.39897 0.2531 0.0
C1650 C 0.00729 0.39984 0.28047 0.0
C1651 C 0.0088 0.38316 0.29606 0.0
C1652 C 0.5757 0.59877 0.3153 0.0
C1653 C 0.59834 0.61175 0.32579 0.0
C1654 C 0.56861 0.57922 0.29983 0.0
C1655 C 0.58375 0.57168 0.29442 0.0
H1656 H 0.56359 0.6043 0.31784 0.0
H1657 H 0.5513 0.5703 0.29127 0.0
S1658 S 0.64382 0.59756 0.31992 0.0
N1659 N 0.63518 0.61417 0.33187 0.0
N1660 N 0.62166 0.57732 0.3026 0.0
C1661 C 0.60588 0.58345 0.30626 0.0
C1662 C 0.61322 0.6035 0.322 0.0
C1663 C 0.40548 0.00226 0.329 0.0
C1664 C 0.38726 0.00256 0.3158 0.0
C1665 C 0.42686 0.01124 0.31646 0.0
C1666 C 0.43053 0.02032 0.29001 0.0
H1667 H 0.40284 0.99405 0.34858 0.0
H1668 H 0.44026 0.01005 0.32703 0.0
S1669 S 0.38802 0.02548 0.24742 0.0
N1670 N 0.37422 0.01355 0.27581 0.0
N1671 N 0.41413 0.02976 0.25159 0.0
C1672 C 0.41265 0.02167 0.27719 0.0
C1673 C 0.39101 0.01284 0.29023 0.0
C1674 C 0.61766 0.01036 0.33487 0.0
C1675 C 0.63264 0.005 0.32218 0.0
C1676 C 0.60326 0.01529 0.31953 0.0
C1677 C 0.6037 0.0155 0.29099 0.0
H1678 H 0.61695 0.01066 0.35683 0.0
H1679 H 0.59191 0.01926 0.33006 0.0
S1680 S 0.63956 0.00262 0.24771 0.0
N1681 N 0.64674 2e-05 0.27911 0.0
N1682 N 0.61992 0.00965 0.25053 0.0
C1683 C 0.61853 0.0102 0.27801 0.0
C1684 C 0.63292 0.00483 0.29354 0.0
C1685 C 0.01341 0.62376 0.30515 0.0
C1686 C 0.99389 0.62578 0.30271 0.0
C1687 C 0.01391 0.60572 0.29291 0.0
C1688 C 0.99482 0.58885 0.2781 0.0
H1689 H 0.02856 0.63638 0.31628 0.0
H1690 H 0.02932 0.60489 0.29517 0.0
S1691 S 0.93952 0.58601 0.26559 0.0
N1692 N 0.95491 0.60908 0.28429 0.0
N1693 N 0.956 0.57528 0.26141 0.0
C1694 C 0.97516 0.5905 0.27567 0.0
C1695 C 0.97467 0.60893 0.28792 0.0
C1696 C 0.39367 0.38065 0.29927 0.0
C1697 C 0.38387 0.39369 0.30563 0.0
C1698 C 0.41467 0.39027 0.28557 0.0
C1699 C 0.42649 0.41319 0.27772 0.0
H1700 H 0.3847 0.3627 0.304 0.0
H1701 H 0.42127 0.37953 0.28021 0.0
S1702 S 0.41017 0.45547 0.29278 0.0
N1703 N 0.38908 0.43142 0.30537 0.0
N1704 N 0.4284 0.44927 0.2796 0.0
C1705 C 0.41759 0.42668 0.28517 0.0
C1706 C 0.39632 0.417 0.29916 0.0
C1707 C 0.29609 0.25921 0.38733 0.0
C1708 C 0.31369 0.28039 0.3776 0.0
C1709 C 0.30122 0.24469 0.40152 0.0
C1710 C 0.32416 0.25078 0.40667 0.0
H1711 H 0.27815 0.25383 0.38423 0.0
H1712 H 0.28707 0.22859 0.40868 0.0
S1713 S 0.37668 0.30444 0.38596 0.0
N1714 N 0.35513 0.30665 0.37404 0.0
N1715 N 0.36464 0.27951 0.40118 0.0
C1716 C 0.34194 0.27175 0.39677 0.0
C1717 C 0.33675 0.28651 0.38216 0.0
C1718 C 0.72118 0.06331 0.38515 0.0
C1719 C 0.73581 0.05519 0.37894 0.0
C1720 C 0.72942 0.08369 0.39955 0.0
C1721 C 0.75254 0.09661 0.40825 0.0
H1722 H 0.703 0.05337 0.37995 0.0
H1723 H 0.71742 0.08883 0.40498 0.0
S1724 S 0.79873 0.08505 0.39356 0.0
N1725 N 0.77524 0.06334 0.37998 0.0
N1726 N 0.79051 0.1015 0.40704 0.0
C1727 C 0.76763 0.08953 0.40072 0.0
C1728 C 0.75934 0.06887 0.38605 0.0
C1729 C 0.92009 0.66161 0.36355 0.0
C1730 C 0.93844 0.66141 0.37656 0.0
C1731 C 0.89854 0.65177 0.3758 0.0
C1732 C 0.89481 0.642 0.40186 0.0
H1733 H 0.92276 0.67042 0.3444 0.0
H1734 H 0.88506 0.65297 0.36544 0.0
S1735 S 0.93743 0.63635 0.44356 0.0
N1736 N 0.95143 0.64937 0.41567 0.0
N1737 N 0.91117 0.63169 0.4395 0.0
C1738 C 0.91276 0.64055 0.41433 0.0
C1739 C 0.93458 0.65017 0.4015 0.0
C1740 C 0.38661 0.99494 0.69566 0.0
C1741 C 0.37381 0.00314 0.70802 0.0
C1742 C 0.40096 0.98998 0.71107 0.0
C1743 C 0.40298 0.99288 0.73947 0.0
H1744 H 0.38542 0.99216 0.67391 0.0
H1745 H 0.41054 0.9838 0.70064 0.0
S1746 S 0.3723 0.01279 0.782 0.0
N1747 N 0.3639 0.01359 0.75062 0.0
N1748 N 0.3903 0.00368 0.77946 0.0
C1749 C 0.39029 0.00106 0.7521 0.0
C1750 C 0.37587 0.00633 0.73642 0.0
C1751 C 0.99591 0.37751 0.73183 0.0
C1752 C 0.99595 0.37731 0.70319 0.0
C1753 C 0.99822 0.39605 0.7463 0.0
C1754 C 0.00075 0.41522 0.73279 0.0
H1755 H 0.99413 0.36324 0.74327 0.0
H1756 H 0.99827 0.39547 0.7683 0.0
S1757 S 0.00086 0.42301 0.65815 0.0
N1758 N 0.99814 0.39794 0.6619 0.0
N1759 N 0.00228 0.4326 0.6892 0.0
C1760 C 0.00067 0.41525 0.70422 0.0
C1761 C 0.9983 0.39637 0.68943 0.0
C1762 C 0.62307 0.60504 0.74302 0.0
C1763 C 0.63197 0.62585 0.7292 0.0
C1764 C 0.60056 0.59326 0.75266 0.0
C1765 C 0.58591 0.60173 0.74902 0.0
H1766 H 0.63354 0.59765 0.74655 0.0
H1767 H 0.59462 0.57739 0.76331 0.0
S1768 S 0.60019 0.6551 0.71399 0.0
N1769 N 0.62398 0.6543 0.71215 0.0
N1770 N 0.58149 0.63194 0.73055 0.0
C1771 C 0.5944 0.62249 0.73541 0.0
C1772 C 0.61743 0.63455 0.72538 0.0
C1773 C 0.68912 0.73704 0.6453 0.0
C1774 C 0.6742 0.72359 0.66619 0.0
C1775 C 0.68444 0.75106 0.62926 0.0
C1776 C 0.66448 0.75191 0.63318 0.0
H1777 H 0.70461 0.73681 0.64131 0.0
H1778 H 0.6964 0.76111 0.61341 0.0
S1779 S 0.61984 0.72028 0.68504 0.0
N1780 N 0.63862 0.71227 0.68995 0.0
N1781 N 0.62985 0.73848 0.65957 0.0
C1782 C 0.6494 0.73861 0.6539 0.0
C1783 C 0.65428 0.72452 0.67049 0.0
C1784 C 0.24484 0.93244 0.65306 0.0
C1785 C 0.26834 0.94573 0.66048 0.0
C1786 C 0.23633 0.91258 0.63774 0.0
C1787 C 0.25085 0.905 0.62947 0.0
H1788 H 0.23303 0.93795 0.6579 0.0
H1789 H 0.21837 0.90351 0.63142 0.0
S1790 S 0.31289 0.93152 0.64634 0.0
N1791 N 0.30551 0.9484 0.66054 0.0
N1792 N 0.28921 0.91082 0.63172 0.0
C1793 C 0.27392 0.91701 0.63832 0.0
C1794 C 0.28274 0.93742 0.65386 0.0
C1795 C 0.06154 0.34635 0.6362 0.0
C1796 C 0.05131 0.32461 0.64799 0.0
C1797 C 0.08248 0.35566 0.62225 0.0
C1798 C 0.09369 0.34348 0.61984 0.0
H1799 H 0.05264 0.35556 0.63624 0.0
H1800 H 0.08922 0.37182 0.61202 0.0
S1801 S 0.07626 0.28799 0.65133 0.0
N1802 N 0.05563 0.29268 0.65941 0.0
N1803 N 0.09482 0.31021 0.63333 0.0
C1804 C 0.08458 0.32265 0.63339 0.0
C1805 C 0.06341 0.3132 0.64745 0.0
C1806 C 0.28711 0.33178 0.63594 0.0
C1807 C 0.28745 0.33439 0.66431 0.0
C1808 C 0.27427 0.33748 0.61888 0.0
C1809 C 0.261 0.34583 0.62944 0.0
H1810 H 0.29722 0.32567 0.62666 0.0
H1811 H 0.27498 0.33556 0.59715 0.0
S1812 S 0.25462 0.35431 0.70246 0.0
N1813 N 0.27275 0.34522 0.70234 0.0
N1814 N 0.24802 0.35531 0.67027 0.0
C1815 C 0.26085 0.34821 0.65782 0.0
C1816 C 0.27418 0.34261 0.67524 0.0
C1817 C 0.63871 0.93863 0.64936 0.0
C1818 C 0.65964 0.95961 0.65188 0.0
C1819 C 0.63746 0.92025 0.63568 0.0
C1820 C 0.65707 0.92208 0.6239 0.0
H1821 H 0.62306 0.93632 0.65795 0.0
H1822 H 0.62096 0.90445 0.63434 0.0
S1823 S 0.71594 0.97337 0.6239 0.0
N1824 N 0.70049 0.98111 0.6411 0.0
N1825 N 0.69796 0.94664 0.61508 0.0
C1826 C 0.67814 0.94287 0.62633 0.0
C1827 C 0.67946 0.96161 0.64036 0.0
C1828 C 0.05213 0.74533 0.62936 0.0
C1829 C 0.04016 0.72195 0.63528 0.0
C1830 C 0.07368 0.75608 0.61708 0.0
C1831 C 0.08421 0.74392 0.61009 0.0
H1832 H 0.0446 0.75544 0.63372 0.0
H1833 H 0.082 0.77403 0.61251 0.0
S1834 S 0.06091 0.68267 0.62242 0.0
N1835 N 0.04107 0.68715 0.63442 0.0
N1836 N 0.08166 0.70747 0.61094 0.0
C1837 C 0.07301 0.72076 0.61687 0.0
C1838 C 0.05096 0.70974 0.62954 0.0
C1839 C 0.9932 0.60328 0.68382 0.0
C1840 C 0.98931 0.61922 0.69643 0.0
C1841 C 0.99695 0.58828 0.6992 0.0
C1842 C 0.99706 0.58871 0.72778 0.0
H1843 H 0.99309 0.60216 0.66188 0.0
H1844 H -0.00059 0.57601 0.68861 0.0
S1845 S 0.98992 0.62856 0.7708 0.0
N1846 N 0.98704 0.63527 0.73938 0.0
N1847 N 0.99454 0.60744 0.7681 0.0
C1848 C 0.99374 0.60491 0.74065 0.0
C1849 C 0.98976 0.62006 0.72505 0.0
C1850 C 0.38013 0.39174 0.72089 0.0
C1851 C 0.38856 0.37733 0.72677 0.0
C1852 C 0.39073 0.41374 0.73194 0.0
C1853 C 0.41011 0.42201 0.7492 0.0
H1854 H 0.36543 0.38613 0.70735 0.0
H1855 H 0.3841 0.42451 0.72648 0.0
S1856 S 0.4374 0.39051 0.77356 0.0
N1857 N 0.41654 0.37263 0.75282 0.0
N1858 N 0.43618 0.41375 0.7735 0.0
C1859 C 0.4182 0.40759 0.75599 0.0
C1860 C 0.40753 0.38532 0.74479 0.0
C1861 C 0.60596 0.99148 0.73123 0.0
C1862 C 0.61737 0.01444 0.72321 0.0
C1863 C 0.58445 0.98121 0.74404 0.0
C1864 C 0.57381 0.99362 0.74911 0.0
H1865 H 0.61412 0.98171 0.72872 0.0
H1866 H 0.57658 0.96383 0.75101 0.0
S1867 S 0.59457 0.05284 0.72827 0.0
N1868 N 0.61491 0.04828 0.71846 0.0
N1869 N 0.57476 0.02895 0.74258 0.0
C1870 C 0.58432 0.01603 0.73971 0.0
C1871 C 0.60604 0.02645 0.72672 0.0
loop_
_geom_bond_atom_site_label_1
_geom_bond_atom_site_label_2
_geom_bond_distance
_geom_bond_site_symmetry_2
_ccdc_geom_bond_type
Zn0 O3 2.031 1_554 S
Zn0 O5 2.049 . S
Zn0 O10 2.067 1_554 S
Zn1 O2 1.962 1_455 S
Zn1 O4 1.986 . S
Zn1 O6 1.996 1_455 S
Zn1 O9 1.943 1_554 S
O2 Zn1 1.962 1_655 S
O2 C7 1.254 1_554 S
O3 Zn0 2.031 1_556 S
O3 C7 1.269 . S
O4 Zn1 1.986 . S
O4 C11 1.262 . S
O5 Zn0 2.049 . S
O5 C13 1.260 . S
O6 Zn1 1.996 1_655 S
O6 C13 1.257 . S
C7 O2 1.254 1_556 S
C7 O3 1.269 . S
C8 O9 1.249 . S
C8 O10 1.270 1_455 S
O9 Zn1 1.943 1_556 S
O9 C8 1.249 . S
O10 Zn0 2.067 1_556 S
O10 C8 1.270 1_655 S
C11 O4 1.262 . S
C11 O12 1.232 . S
O12 C11 1.232 . S
C13 O5 1.260 . S
C13 O6 1.257 . S
Zn14 O17 2.031 1_554 S
Zn14 O19 2.049 . S
Zn14 O24 2.067 1_554 S
Zn15 O16 1.962 . S
Zn15 O18 1.986 . S
Zn15 O20 1.996 . S
Zn15 O23 1.943 1_554 S
O16 Zn15 1.962 . S
O16 C21 1.254 1_554 S
O17 Zn14 2.031 1_556 S
O17 C21 1.269 . S
O18 Zn15 1.986 . S
O18 C25 1.262 . S
O19 Zn14 2.049 . S
O19 C27 1.260 . S
O20 Zn15 1.996 . S
O20 C27 1.257 . S
C21 O16 1.254 1_556 S
C21 O17 1.269 . S
C22 O23 1.249 . S
C22 O24 1.270 . S
O23 Zn15 1.943 1_556 S
O23 C22 1.249 . S
O24 Zn14 2.067 1_556 S
O24 C22 1.270 . S
C25 O18 1.262 . S
C25 O26 1.232 . S
O26 C25 1.232 . S
C27 O19 1.260 . S
C27 O20 1.257 . S
Zn28 O31 2.031 . S
Zn28 O33 2.049 1_554 S
Zn28 O38 2.067 . S
Zn29 O30 1.962 1_545 S
Zn29 O32 1.986 1_554 S
Zn29 O34 1.996 1_544 S
Zn29 O37 1.943 . S
O30 Zn29 1.962 1_565 S
O30 C35 1.254 . S
O31 Zn28 2.031 . S
O31 C35 1.269 . S
O32 Zn29 1.986 1_556 S
O32 C39 1.262 . S
O33 Zn28 2.049 1_556 S
O33 C41 1.260 . S
O34 Zn29 1.996 1_566 S
O34 C41 1.257 . S
C35 O30 1.254 . S
C35 O31 1.269 . S
C36 O37 1.249 . S
C36 O38 1.270 1_545 S
O37 Zn29 1.943 . S
O37 C36 1.249 . S
O38 Zn28 2.067 . S
O38 C36 1.270 1_565 S
C39 O32 1.262 . S
C39 O40 1.232 1_556 S
O40 C39 1.232 1_554 S
C41 O33 1.260 . S
C41 O34 1.257 . S
Zn42 O45 2.031 . S
Zn42 O47 2.049 1_554 S
Zn42 O52 2.067 . S
Zn43 O44 1.962 1_655 S
Zn43 O46 1.986 1_554 S
Zn43 O48 1.996 1_654 S
Zn43 O51 1.943 . S
O44 Zn43 1.962 1_455 S
O44 C49 1.254 . S
O45 Zn42 2.031 . S
O45 C49 1.269 . S
O46 Zn43 1.986 1_556 S
O46 C53 1.262 . S
O47 Zn42 2.049 1_556 S
O47 C55 1.260 . S
O48 Zn43 1.996 1_456 S
O48 C55 1.257 . S
C49 O44 1.254 . S
C49 O45 1.269 . S
C50 O51 1.249 . S
C50 O52 1.270 1_655 S
O51 Zn43 1.943 . S
O51 C50 1.249 . S
O52 Zn42 2.067 . S
O52 C50 1.270 1_455 S
C53 O46 1.262 . S
C53 O54 1.232 1_556 S
O54 C53 1.232 1_554 S
C55 O47 1.260 . S
C55 O48 1.257 . S
Zn56 O59 2.031 . S
Zn56 O61 2.049 1_554 S
Zn56 O66 2.067 . S
Zn57 O58 1.962 . S
Zn57 O60 1.986 1_554 S
Zn57 O62 1.996 1_554 S
Zn57 O65 1.943 . S
O58 Zn57 1.962 . S
O58 C63 1.254 . S
O59 Zn56 2.031 . S
O59 C63 1.269 . S
O60 Zn57 1.986 1_556 S
O60 C67 1.262 . S
O61 Zn56 2.049 1_556 S
O61 C69 1.260 . S
O62 Zn57 1.996 1_556 S
O62 C69 1.257 . S
C63 O58 1.254 . S
C63 O59 1.269 . S
C64 O65 1.249 . S
C64 O66 1.270 . S
O65 Zn57 1.943 . S
O65 C64 1.249 . S
O66 Zn56 2.067 . S
O66 C64 1.270 . S
C67 O60 1.262 . S
C67 O68 1.232 1_556 S
O68 C67 1.232 1_554 S
C69 O61 1.260 . S
C69 O62 1.257 . S
Zn70 O73 2.031 1_554 S
Zn70 O75 2.049 . S
Zn70 O80 2.067 1_554 S
Zn71 O72 1.962 1_565 S
Zn71 O74 1.986 . S
Zn71 O76 1.996 1_565 S
Zn71 O79 1.943 1_554 S
O72 Zn71 1.962 1_545 S
O72 C77 1.254 1_554 S
O73 Zn70 2.031 1_556 S
O73 C77 1.269 . S
O74 Zn71 1.986 . S
O74 C81 1.262 . S
O75 Zn70 2.049 . S
O75 C83 1.260 . S
O76 Zn71 1.996 1_545 S
O76 C83 1.257 . S
C77 O72 1.254 1_556 S
C77 O73 1.269 . S
C78 O79 1.249 . S
C78 O80 1.270 1_565 S
O79 Zn71 1.943 1_556 S
O79 C78 1.249 . S
O80 Zn70 2.067 1_556 S
O80 C78 1.270 1_545 S
C81 O74 1.262 . S
C81 O82 1.232 . S
O82 C81 1.232 . S
C83 O75 1.260 . S
C83 O76 1.257 . S
Zn84 O87 2.031 . S
Zn84 O89 2.049 . S
Zn84 O94 2.067 . S
Zn85 O86 1.962 . S
Zn85 O88 1.986 . S
Zn85 O90 1.996 . S
Zn85 O93 1.943 . S
O86 Zn85 1.962 . S
O86 C91 1.254 . S
O87 Zn84 2.031 . S
O87 C91 1.269 . S
O88 Zn85 1.986 . S
O88 C95 1.262 . S
O89 Zn84 2.049 . S
O89 C97 1.260 . S
O90 Zn85 1.996 . S
O90 C97 1.257 . S
C91 O86 1.254 . S
C91 O87 1.269 . S
C92 O93 1.249 . S
C92 O94 1.270 . S
O93 Zn85 1.943 . S
O93 C92 1.249 . S
O94 Zn84 2.067 . S
O94 C92 1.270 . S
C95 O88 1.262 . S
C95 O96 1.232 . S
O96 C95 1.232 . S
C97 O89 1.260 . S
C97 O90 1.257 . S
Zn98 O101 2.031 . S
Zn98 O103 2.049 . S
Zn98 O108 2.067 . S
Zn99 O100 1.962 . S
Zn99 O102 1.986 1_565 S
Zn99 O104 1.996 . S
Zn99 O107 1.943 . S
O100 Zn99 1.962 . S
O100 C105 1.254 . S
O101 Zn98 2.031 . S
O101 C105 1.269 . S
O102 Zn99 1.986 1_545 S
O102 C109 1.262 . S
O103 Zn98 2.049 . S
O103 C111 1.260 . S
O104 Zn99 1.996 . S
O104 C111 1.257 . S
C105 O100 1.254 . S
C105 O101 1.269 . S
C106 O107 1.249 . S
C106 O108 1.270 . S
O107 Zn99 1.943 . S
O107 C106 1.249 . S
O108 Zn98 2.067 . S
O108 C106 1.270 . S
C109 O102 1.262 . S
C109 O110 1.232 . S
O110 C109 1.232 . S
C111 O103 1.260 . S
C111 O104 1.257 . S
Zn112 O115 2.024 1_455 S
Zn112 O117 2.049 . S
Zn112 O122 2.067 . S
Zn113 O114 1.962 1_455 S
Zn113 O116 1.986 . S
Zn113 O118 1.996 . S
Zn113 O121 1.943 . S
O114 Zn113 1.962 1_655 S
O114 C119 1.254 . S
O115 Zn112 2.024 1_655 S
O115 C119 1.278 . S
O116 Zn113 1.986 . S
O116 C123 1.262 . S
O117 Zn112 2.049 . S
O117 C125 1.260 . S
O118 Zn113 1.996 . S
O118 C125 1.257 . S
C119 O114 1.254 . S
C119 O115 1.278 . S
C120 O121 1.249 . S
C120 O122 1.270 . S
O121 Zn113 1.943 . S
O121 C120 1.249 . S
O122 Zn112 2.067 . S
O122 C120 1.270 . S
C123 O116 1.262 . S
C123 O124 1.232 . S
O124 C123 1.232 . S
C125 O117 1.260 . S
C125 O118 1.257 . S
Zn126 O129 2.031 1_565 S
Zn126 O131 2.049 . S
Zn126 O136 2.067 . S
Zn127 O128 1.962 1_565 S
Zn127 O130 1.986 . S
Zn127 O132 1.996 . S
Zn127 O135 1.943 . S
O128 Zn127 1.962 1_545 S
O128 C133 1.254 . S
O129 Zn126 2.031 1_545 S
O129 C133 1.269 . S
O130 Zn127 1.986 . S
O130 C137 1.262 . S
O131 Zn126 2.049 . S
O131 C139 1.260 . S
O132 Zn127 1.996 . S
O132 C139 1.257 . S
C133 O128 1.254 . S
C133 O129 1.269 . S
C134 O135 1.249 . S
C134 O136 1.270 . S
O135 Zn127 1.943 . S
O135 C134 1.249 . S
O136 Zn126 2.067 . S
O136 C134 1.270 . S
C137 O130 1.262 . S
C137 O138 1.232 . S
O138 C137 1.232 . S
C139 O131 1.260 . S
C139 O132 1.257 . S
Zn140 O143 2.031 1_455 S
Zn140 O145 2.049 . S
Zn140 O150 2.067 . S
Zn141 O142 1.962 1_455 S
Zn141 O144 1.986 . S
Zn141 O146 1.996 . S
Zn141 O149 1.943 . S
O142 Zn141 1.962 1_655 S
O142 C147 1.254 . S
O143 Zn140 2.031 1_655 S
O143 C147 1.269 . S
O144 Zn141 1.986 . S
O144 C151 1.262 . S
O145 Zn140 2.049 . S
O145 C153 1.260 . S
O146 Zn141 1.996 . S
O146 C153 1.257 . S
C147 O142 1.254 . S
C147 O143 1.269 . S
C148 O149 1.249 . S
C148 O150 1.270 . S
O149 Zn141 1.943 . S
O149 C148 1.249 . S
O150 Zn140 2.067 . S
O150 C148 1.270 . S
C151 O144 1.262 . S
C151 O152 1.232 . S
O152 C151 1.232 . S
C153 O145 1.260 . S
C153 O146 1.257 . S
Zn154 O157 2.031 . S
Zn154 O159 2.049 . S
Zn154 O164 2.067 . S
Zn155 O156 1.962 . S
Zn155 O158 1.986 . S
Zn155 O160 1.996 . S
Zn155 O163 1.943 . S
O156 Zn155 1.962 . S
O156 C161 1.254 . S
O157 Zn154 2.031 . S
O157 C161 1.269 . S
O158 Zn155 1.986 . S
O158 C165 1.262 . S
O159 Zn154 2.049 . S
O159 C167 1.260 . S
O160 Zn155 1.996 . S
O160 C167 1.257 . S
C161 O156 1.254 . S
C161 O157 1.269 . S
C162 O163 1.249 . S
C162 O164 1.270 . S
O163 Zn155 1.943 . S
O163 C162 1.249 . S
O164 Zn154 2.067 . S
O164 C162 1.270 . S
C165 O158 1.262 . S
C165 O166 1.232 . S
O166 C165 1.232 . S
C167 O159 1.260 . S
C167 O160 1.257 . S
Zn168 O171 2.031 . S
Zn168 O173 2.049 . S
Zn168 O178 2.067 . S
Zn169 O170 1.962 1_545 S
Zn169 O172 1.986 . S
Zn169 O174 1.996 . S
Zn169 O177 1.943 . S
O170 Zn169 1.962 1_565 S
O170 C175 1.254 . S
O171 Zn168 2.031 . S
O171 C175 1.269 1_545 S
O172 Zn169 1.986 . S
O172 C179 1.262 . S
O173 Zn168 2.049 . S
O173 C181 1.260 . S
O174 Zn169 1.996 . S
O174 C181 1.257 . S
C175 O170 1.254 . S
C175 O171 1.269 1_565 S
C176 O177 1.249 . S
C176 O178 1.270 . S
O177 Zn169 1.943 . S
O177 C176 1.249 . S
O178 Zn168 2.067 . S
O178 C176 1.270 . S
C179 O172 1.262 . S
C179 O180 1.232 . S
O180 C179 1.232 . S
C181 O173 1.260 . S
C181 O174 1.257 . S
Zn182 O185 2.031 1_655 S
Zn182 O187 2.049 . S
Zn182 O192 2.067 . S
Zn183 O184 1.962 1_655 S
Zn183 O186 1.986 . S
Zn183 O188 1.996 . S
Zn183 O191 1.943 . S
O184 Zn183 1.962 1_455 S
O184 C189 1.254 . S
O185 Zn182 2.031 1_455 S
O185 C189 1.269 . S
O186 Zn183 1.986 . S
O186 C193 1.262 . S
O187 Zn182 2.049 . S
O187 C195 1.260 . S
O188 Zn183 1.996 . S
O188 C195 1.257 . S
C189 O184 1.254 . S
C189 O185 1.269 . S
C190 O191 1.249 . S
C190 O192 1.270 . S
O191 Zn183 1.943 . S
O191 C190 1.249 . S
O192 Zn182 2.067 . S
O192 C190 1.270 . S
C193 O186 1.262 . S
C193 O194 1.232 . S
O194 C193 1.232 . S
C195 O187 1.260 . S
C195 O188 1.257 . S
Zn196 O199 2.031 . S
Zn196 O201 2.049 . S
Zn196 O206 2.067 . S
Zn197 O198 1.962 . S
Zn197 O200 1.986 . S
Zn197 O202 1.996 . S
Zn197 O205 1.943 . S
O198 Zn197 1.962 . S
O198 C203 1.254 . S
O199 Zn196 2.031 . S
O199 C203 1.269 . S
O200 Zn197 1.986 . S
O200 C207 1.262 . S
O201 Zn196 2.049 . S
O201 C209 1.260 . S
O202 Zn197 1.996 . S
O202 C209 1.257 . S
C203 O198 1.254 . S
C203 O199 1.269 . S
C204 O205 1.249 . S
C204 O206 1.270 . S
O205 Zn197 1.943 . S
O205 C204 1.249 . S
O206 Zn196 2.067 . S
O206 C204 1.270 . S
C207 O200 1.262 . S
C207 O208 1.232 . S
O208 C207 1.232 . S
C209 O201 1.260 . S
C209 O202 1.257 . S
Zn210 O213 2.031 . S
Zn210 O215 2.049 . S
Zn210 O220 2.067 . S
Zn211 O212 1.962 . S
Zn211 O214 1.986 . S
Zn211 O216 1.996 . S
Zn211 O219 1.943 . S
O212 Zn211 1.962 . S
O212 C217 1.254 . S
O213 Zn210 2.031 . S
O213 C217 1.269 . S
O214 Zn211 1.986 . S
O214 C221 1.262 . S
O215 Zn210 2.049 . S
O215 C223 1.260 . S
O216 Zn211 1.996 . S
O216 C223 1.257 . S
C217 O212 1.254 . S
C217 O213 1.269 . S
C218 O219 1.249 . S
C218 O220 1.270 . S
O219 Zn211 1.943 . S
O219 C218 1.249 . S
O220 Zn210 2.067 . S
O220 C218 1.270 . S
C221 O214 1.262 . S
C221 O222 1.232 . S
O222 C221 1.232 . S
C223 O215 1.260 . S
C223 O216 1.257 . S
Zn224 O227 2.031 . S
Zn224 O229 2.049 . S
Zn224 O234 2.067 . S
Zn225 O226 1.962 . S
Zn225 O228 1.986 1_545 S
Zn225 O230 1.996 . S
Zn225 O233 1.943 . S
O226 Zn225 1.962 . S
O226 C231 1.254 . S
O227 Zn224 2.031 . S
O227 C231 1.269 . S
O228 Zn225 1.986 1_565 S
O228 C235 1.262 . S
O229 Zn224 2.049 . S
O229 C237 1.260 . S
O230 Zn225 1.996 . S
O230 C237 1.257 . S
C231 O226 1.254 . S
C231 O227 1.269 . S
C232 O233 1.249 . S
C232 O234 1.270 . S
O233 Zn225 1.943 . S
O233 C232 1.249 . S
O234 Zn224 2.067 . S
O234 C232 1.270 . S
C235 O228 1.262 . S
C235 O236 1.232 . S
O236 C235 1.232 . S
C237 O229 1.260 . S
C237 O230 1.257 . S
Zn238 O241 2.031 1_655 S
Zn238 O243 2.049 . S
Zn238 O248 2.067 . S
Zn239 O240 1.962 1_655 S
Zn239 O242 1.986 . S
Zn239 O244 1.996 . S
Zn239 O247 1.943 . S
O240 Zn239 1.962 1_455 S
O240 C245 1.254 . S
O241 Zn238 2.031 1_455 S
O241 C245 1.269 . S
O242 Zn239 1.986 . S
O242 C249 1.262 . S
O243 Zn238 2.049 . S
O243 C251 1.260 . S
O244 Zn239 1.996 . S
O244 C251 1.257 . S
C245 O240 1.254 . S
C245 O241 1.269 . S
C246 O247 1.249 . S
C246 O248 1.270 . S
O247 Zn239 1.943 . S
O247 C246 1.249 . S
O248 Zn238 2.067 . S
O248 C246 1.270 . S
C249 O242 1.262 . S
C249 O250 1.232 . S
O250 C249 1.232 . S
C251 O243 1.260 . S
C251 O244 1.257 . S
C252 C253 1.384 . S
C252 C254 1.384 . S
C252 H280 0.931 . S
C253 C252 1.384 . S
C253 C256 1.382 . S
C254 C252 1.384 . S
C254 C255 1.381 . S
C254 H281 0.930 . S
C255 C254 1.381 . S
C255 C257 1.381 . S
C255 C258 1.487 . S
C256 C253 1.382 . S
C256 C257 1.387 . S
C256 H282 0.930 . S
C257 C255 1.381 . S
C257 C256 1.387 . S
C257 H283 0.931 . S
C258 C255 1.487 . S
C258 C265 1.399 . S
C258 N296 1.343 . S
C259 C260 1.384 . S
C259 C261 1.384 . S
C259 H284 0.931 . S
C260 C259 1.384 . S
C260 C263 1.382 . S
C261 C259 1.384 . S
C261 C262 1.381 . S
C261 H285 0.930 . S
C262 C261 1.381 . S
C262 C264 1.381 . S
C262 C265 1.487 . S
C263 C260 1.382 . S
C263 C264 1.387 . S
C263 H286 0.930 . S
C264 C262 1.381 . S
C264 C263 1.387 . S
C264 H287 0.931 . S
C265 C258 1.399 . S
C265 C262 1.487 . S
C265 N297 1.343 . S
C266 C267 1.384 . S
C266 C268 1.384 . S
C266 H288 0.931 . S
C267 C266 1.384 . S
C267 C270 1.382 . S
C268 C266 1.384 . S
C268 C269 1.381 . S
C268 H289 0.930 . S
C269 C268 1.381 . S
C269 C271 1.381 . S
C269 C272 1.487 . S
C270 C267 1.382 . S
C270 C271 1.387 . S
C270 H290 0.930 . S
C271 C269 1.381 . S
C271 C270 1.387 . S
C271 H291 0.931 . S
C272 C269 1.487 . S
C272 C279 1.399 . S
C272 N297 1.343 . S
C273 C274 1.384 . S
C273 C275 1.384 . S
C273 H292 0.931 . S
C274 C273 1.384 . S
C274 C277 1.382 . S
C275 C273 1.384 . S
C275 C276 1.381 . S
C275 H293 0.930 . S
C276 C275 1.381 . S
C276 C278 1.381 . S
C276 C279 1.487 . S
C277 C274 1.382 . S
C277 C278 1.387 . S
C277 H294 0.930 . S
C278 C276 1.381 . S
C278 C277 1.387 . S
C278 H295 0.931 . S
C279 C272 1.399 . S
C279 C276 1.487 . S
C279 N296 1.343 . S
H280 C252 0.931 . S
H281 C254 0.930 . S
H282 C256 0.930 . S
H283 C257 0.931 . S
H284 C259 0.931 . S
H285 C261 0.930 . S
H286 C263 0.930 . S
H287 C264 0.931 . S
H288 C266 0.931 . S
H289 C268 0.930 . S
H290 C270 0.930 . S
H291 C271 0.931 . S
H292 C273 0.931 . S
H293 C275 0.930 . S
H294 C277 0.930 . S
H295 C278 0.931 . S
N296 C258 1.343 . S
N296 C279 1.343 . S
N297 C265 1.343 . S
N297 C272 1.343 . S
C298 C299 1.384 . S
C298 C300 1.384 . S
C298 H326 0.931 . S
C299 C298 1.384 . S
C299 C302 1.382 . S
C300 C298 1.384 . S
C300 C301 1.381 . S
C300 H327 0.930 . S
C301 C300 1.381 . S
C301 C303 1.381 . S
C301 C304 1.487 . S
C302 C299 1.382 . S
C302 C303 1.387 . S
C302 H328 0.930 . S
C303 C301 1.381 . S
C303 C302 1.387 . S
C303 H329 0.931 . S
C304 C301 1.487 . S
C304 C311 1.399 . S
C304 N342 1.343 . S
C305 C306 1.384 . S
C305 C307 1.384 . S
C305 H330 0.931 . S
C306 C305 1.384 . S
C306 C309 1.382 . S
C307 C305 1.384 . S
C307 C308 1.381 . S
C307 H331 0.930 . S
C308 C307 1.381 . S
C308 C310 1.381 . S
C308 C311 1.487 . S
C309 C306 1.382 . S
C309 C310 1.387 . S
C309 H332 0.930 . S
C310 C308 1.381 . S
C310 C309 1.387 . S
C310 H333 0.931 . S
C311 C304 1.399 . S
C311 C308 1.487 . S
C311 N343 1.343 . S
C312 C313 1.384 . S
C312 C314 1.384 . S
C312 H334 0.931 . S
C313 C312 1.384 . S
C313 C316 1.382 . S
C314 C312 1.384 . S
C314 C315 1.381 . S
C314 H335 0.930 . S
C315 C314 1.381 . S
C315 C317 1.381 . S
C315 C318 1.487 . S
C316 C313 1.382 . S
C316 C317 1.387 . S
C316 H336 0.930 . S
C317 C315 1.381 . S
C317 C316 1.387 . S
C317 H337 0.931 . S
C318 C315 1.487 . S
C318 C325 1.399 . S
C318 N343 1.343 . S
C319 C320 1.384 . S
C319 C321 1.384 . S
C319 H338 0.931 . S
C320 C319 1.384 . S
C320 C323 1.382 . S
C321 C319 1.384 . S
C321 C322 1.381 . S
C321 H339 0.930 . S
C322 C321 1.381 . S
C322 C324 1.381 . S
C322 C325 1.487 . S
C323 C320 1.382 . S
C323 C324 1.387 . S
C323 H340 0.930 . S
C324 C322 1.381 . S
C324 C323 1.387 . S
C324 H341 0.931 . S
C325 C318 1.399 . S
C325 C322 1.487 . S
C325 N342 1.343 . S
H326 C298 0.931 . S
H327 C300 0.930 . S
H328 C302 0.930 . S
H329 C303 0.931 . S
H330 C305 0.931 . S
H331 C307 0.930 . S
H332 C309 0.930 . S
H333 C310 0.931 . S
H334 C312 0.931 . S
H335 C314 0.930 . S
H336 C316 0.930 . S
H337 C317 0.931 . S
H338 C319 0.931 . S
H339 C321 0.930 . S
H340 C323 0.930 . S
H341 C324 0.931 . S
N342 C304 1.343 . S
N342 C325 1.343 . S
N343 C311 1.343 . S
N343 C318 1.343 . S
C344 C345 1.384 . S
C344 C346 1.384 . S
C344 H372 0.931 . S
C345 C344 1.384 . S
C345 C348 1.382 . S
C346 C344 1.384 . S
C346 C347 1.381 . S
C346 H373 0.930 . S
C347 C346 1.381 . S
C347 C349 1.381 . S
C347 C350 1.487 . S
C348 C345 1.382 . S
C348 C349 1.387 . S
C348 H374 0.930 . S
C349 C347 1.381 . S
C349 C348 1.387 . S
C349 H375 0.931 . S
C350 C347 1.487 . S
C350 C357 1.399 . S
C350 N388 1.343 . S
C351 C352 1.384 . S
C351 C353 1.384 . S
C351 H376 0.931 . S
C352 C351 1.384 . S
C352 C355 1.382 . S
C353 C351 1.384 . S
C353 C354 1.381 . S
C353 H377 0.930 . S
C354 C353 1.381 . S
C354 C356 1.381 . S
C354 C357 1.487 . S
C355 C352 1.382 . S
C355 C356 1.387 . S
C355 H378 0.930 . S
C356 C354 1.381 . S
C356 C355 1.387 . S
C356 H379 0.931 . S
C357 C350 1.399 . S
C357 C354 1.487 . S
C357 N389 1.343 . S
C358 C359 1.384 . S
C358 C360 1.384 . S
C358 H380 0.931 . S
C359 C358 1.384 . S
C359 C362 1.382 . S
C360 C358 1.384 . S
C360 C361 1.381 . S
C360 H381 0.930 . S
C361 C360 1.381 . S
C361 C363 1.381 . S
C361 C364 1.487 . S
C362 C359 1.382 . S
C362 C363 1.387 . S
C362 H382 0.930 . S
C363 C361 1.381 . S
C363 C362 1.387 . S
C363 H383 0.931 . S
C364 C361 1.487 . S
C364 C371 1.399 . S
C364 N389 1.343 . S
C365 C366 1.384 . S
C365 C367 1.384 . S
C365 H384 0.931 . S
C366 C365 1.384 . S
C366 C369 1.382 . S
C367 C365 1.384 . S
C367 C368 1.381 . S
C367 H385 0.930 . S
C368 C367 1.381 . S
C368 C370 1.381 . S
C368 C371 1.487 . S
C369 C366 1.382 . S
C369 C370 1.387 . S
C369 H386 0.930 . S
C370 C368 1.381 . S
C370 C369 1.387 . S
C370 H387 0.931 . S
C371 C364 1.399 . S
C371 C368 1.487 . S
C371 N388 1.343 . S
H372 C344 0.931 . S
H373 C346 0.930 . S
H374 C348 0.930 . S
H375 C349 0.931 . S
H376 C351 0.931 . S
H377 C353 0.930 . S
H378 C355 0.930 . S
H379 C356 0.931 . S
H380 C358 0.931 . S
H381 C360 0.930 . S
H382 C362 0.930 . S
H383 C363 0.931 . S
H384 C365 0.931 . S
H385 C367 0.930 . S
H386 C369 0.930 . S
H387 C370 0.931 . S
N388 C350 1.343 . S
N388 C371 1.343 . S
N389 C357 1.343 . S
N389 C364 1.343 . S
C390 C391 1.384 . S
C390 C392 1.384 . S
C390 H418 0.931 . S
C391 C390 1.384 . S
C391 C394 1.382 . S
C392 C390 1.384 . S
C392 C393 1.381 . S
C392 H419 0.930 . S
C393 C392 1.381 . S
C393 C395 1.381 . S
C393 C396 1.487 . S
C394 C391 1.382 . S
C394 C395 1.387 . S
C394 H420 0.930 . S
C395 C393 1.381 . S
C395 C394 1.387 . S
C395 H421 0.931 . S
C396 C393 1.487 . S
C396 C403 1.399 . S
C396 N434 1.343 . S
C397 C398 1.384 . S
C397 C399 1.384 . S
C397 H422 0.931 . S
C398 C397 1.384 . S
C398 C401 1.382 . S
C399 C397 1.384 . S
C399 C400 1.381 . S
C399 H423 0.930 . S
C400 C399 1.381 . S
C400 C402 1.381 . S
C400 C403 1.487 . S
C401 C398 1.382 . S
C401 C402 1.387 . S
C401 H424 0.930 . S
C402 C400 1.381 . S
C402 C401 1.387 . S
C402 H425 0.931 . S
C403 C396 1.399 . S
C403 C400 1.487 . S
C403 N435 1.343 . S
C404 C405 1.384 . S
C404 C406 1.384 . S
C404 H426 0.931 . S
C405 C404 1.384 . S
C405 C408 1.382 . S
C406 C404 1.384 . S
C406 C407 1.381 . S
C406 H427 0.930 . S
C407 C406 1.381 . S
C407 C409 1.381 . S
C407 C410 1.487 . S
C408 C405 1.382 . S
C408 C409 1.387 . S
C408 H428 0.930 . S
C409 C407 1.381 . S
C409 C408 1.387 . S
C409 H429 0.931 . S
C410 C407 1.487 . S
C410 C417 1.399 . S
C410 N435 1.343 . S
C411 C412 1.384 . S
C411 C413 1.384 . S
C411 H430 0.931 . S
C412 C411 1.384 . S
C412 C415 1.382 . S
C413 C411 1.384 . S
C413 C414 1.381 . S
C413 H431 0.930 . S
C414 C413 1.381 . S
C414 C416 1.381 . S
C414 C417 1.487 . S
C415 C412 1.382 . S
C415 C416 1.387 . S
C415 H432 0.930 . S
C416 C414 1.381 . S
C416 C415 1.387 . S
C416 H433 0.931 . S
C417 C410 1.399 . S
C417 C414 1.487 . S
C417 N434 1.343 . S
H418 C390 0.931 . S
H419 C392 0.930 . S
H420 C394 0.930 . S
H421 C395 0.931 . S
H422 C397 0.931 . S
H423 C399 0.930 . S
H424 C401 0.930 . S
H425 C402 0.931 . S
H426 C404 0.931 . S
H427 C406 0.930 . S
H428 C408 0.930 . S
H429 C409 0.931 . S
H430 C411 0.931 . S
H431 C413 0.930 . S
H432 C415 0.930 . S
H433 C416 0.931 . S
N434 C396 1.343 . S
N434 C417 1.343 . S
N435 C403 1.343 . S
N435 C410 1.343 . S
C436 C437 1.384 . S
C436 C438 1.384 . S
C436 H464 0.931 . S
C437 C436 1.384 . S
C437 C440 1.382 . S
C438 C436 1.384 . S
C438 C439 1.381 . S
C438 H465 0.930 . S
C439 C438 1.381 . S
C439 C441 1.381 . S
C439 C442 1.487 . S
C440 C437 1.382 . S
C440 C441 1.387 . S
C440 H466 0.930 . S
C441 C439 1.381 . S
C441 C440 1.387 . S
C441 H467 0.931 . S
C442 C439 1.487 . S
C442 C449 1.399 . S
C442 N480 1.343 . S
C443 C444 1.384 . S
C443 C445 1.384 . S
C443 H468 0.931 . S
C444 C443 1.384 . S
C444 C447 1.382 . S
C445 C443 1.384 . S
C445 C446 1.381 . S
C445 H469 0.930 . S
C446 C445 1.381 . S
C446 C448 1.381 . S
C446 C449 1.487 . S
C447 C444 1.382 . S
C447 C448 1.387 . S
C447 H470 0.930 . S
C448 C446 1.381 . S
C448 C447 1.387 . S
C448 H471 0.931 . S
C449 C442 1.399 . S
C449 C446 1.487 . S
C449 N481 1.343 . S
C450 C451 1.384 . S
C450 C452 1.384 . S
C450 H472 0.931 . S
C451 C450 1.384 . S
C451 C454 1.382 . S
C452 C450 1.384 . S
C452 C453 1.381 . S
C452 H473 0.930 . S
C453 C452 1.381 . S
C453 C455 1.381 . S
C453 C456 1.487 . S
C454 C451 1.382 . S
C454 C455 1.387 . S
C454 H474 0.930 . S
C455 C453 1.381 . S
C455 C454 1.387 . S
C455 H475 0.931 . S
C456 C453 1.487 . S
C456 C463 1.399 . S
C456 N481 1.343 . S
C457 C458 1.384 . S
C457 C459 1.384 . S
C457 H476 0.931 . S
C458 C457 1.384 . S
C458 C461 1.382 . S
C459 C457 1.384 . S
C459 C460 1.381 . S
C459 H477 0.930 . S
C460 C459 1.381 . S
C460 C462 1.381 . S
C460 C463 1.487 . S
C461 C458 1.382 . S
C461 C462 1.387 . S
C461 H478 0.930 . S
C462 C460 1.381 . S
C462 C461 1.387 . S
C462 H479 0.931 . S
C463 C456 1.399 . S
C463 C460 1.487 . S
C463 N480 1.343 . S
H464 C436 0.931 . S
H465 C438 0.930 . S
H466 C440 0.930 . S
H467 C441 0.931 . S
H468 C443 0.931 . S
H469 C445 0.930 . S
H470 C447 0.930 . S
H471 C448 0.931 . S
H472 C450 0.931 . S
H473 C452 0.930 . S
H474 C454 0.930 . S
H475 C455 0.931 . S
H476 C457 0.931 . S
H477 C459 0.930 . S
H478 C461 0.930 . S
H479 C462 0.931 . S
N480 C442 1.343 . S
N480 C463 1.343 . S
N481 C449 1.343 . S
N481 C456 1.343 . S
C482 C483 1.384 . S
C482 C484 1.384 . S
C482 H510 0.931 . S
C483 C482 1.384 . S
C483 C486 1.382 . S
C484 C482 1.384 . S
C484 C485 1.381 . S
C484 H511 0.930 . S
C485 C484 1.381 . S
C485 C487 1.381 . S
C485 C488 1.487 . S
C486 C483 1.382 . S
C486 C487 1.387 . S
C486 H512 0.930 . S
C487 C485 1.381 . S
C487 C486 1.387 . S
C487 H513 0.931 . S
C488 C485 1.487 . S
C488 C495 1.399 . S
C488 N526 1.343 . S
C489 C490 1.384 . S
C489 C491 1.384 . S
C489 H514 0.931 . S
C490 C489 1.384 . S
C490 C493 1.382 . S
C491 C489 1.384 . S
C491 C492 1.381 . S
C491 H515 0.930 . S
C492 C491 1.381 . S
C492 C494 1.381 . S
C492 C495 1.487 . S
C493 C490 1.382 . S
C493 C494 1.387 . S
C493 H516 0.930 . S
C494 C492 1.381 . S
C494 C493 1.387 . S
C494 H517 0.931 . S
C495 C488 1.399 . S
C495 C492 1.487 . S
C495 N527 1.343 . S
C496 C497 1.384 . S
C496 C498 1.384 . S
C496 H518 0.931 . S
C497 C496 1.384 . S
C497 C500 1.382 . S
C498 C496 1.384 . S
C498 C499 1.381 . S
C498 H519 0.930 . S
C499 C498 1.381 . S
C499 C501 1.381 . S
C499 C502 1.487 . S
C500 C497 1.382 . S
C500 C501 1.387 . S
C500 H520 0.930 . S
C501 C499 1.381 . S
C501 C500 1.387 . S
C501 H521 0.931 . S
C502 C499 1.487 . S
C502 C509 1.399 . S
C502 N527 1.343 . S
C503 C504 1.384 . S
C503 C505 1.384 . S
C503 H522 0.931 . S
C504 C503 1.384 . S
C504 C507 1.382 . S
C505 C503 1.384 . S
C505 C506 1.381 . S
C505 H523 0.930 . S
C506 C505 1.381 . S
C506 C508 1.381 . S
C506 C509 1.487 . S
C507 C504 1.382 . S
C507 C508 1.387 . S
C507 H524 0.930 . S
C508 C506 1.381 . S
C508 C507 1.387 . S
C508 H525 0.931 . S
C509 C502 1.399 . S
C509 C506 1.487 . S
C509 N526 1.343 . S
H510 C482 0.931 . S
H511 C484 0.930 . S
H512 C486 0.930 . S
H513 C487 0.931 . S
H514 C489 0.931 . S
H515 C491 0.930 . S
H516 C493 0.930 . S
H517 C494 0.931 . S
H518 C496 0.931 . S
H519 C498 0.930 . S
H520 C500 0.930 . S
H521 C501 0.931 . S
H522 C503 0.931 . S
H523 C505 0.930 . S
H524 C507 0.930 . S
H525 C508 0.931 . S
N526 C488 1.343 . S
N526 C509 1.343 . S
N527 C495 1.343 . S
N527 C502 1.343 . S
C528 C529 1.384 . S
C528 C530 1.384 . S
C528 H556 0.931 . S
C529 C528 1.384 . S
C529 C532 1.382 . S
C530 C528 1.384 . S
C530 C531 1.381 . S
C530 H557 0.930 . S
C531 C530 1.381 . S
C531 C533 1.381 . S
C531 C534 1.487 . S
C532 C529 1.382 . S
C532 C533 1.387 . S
C532 H558 0.930 . S
C533 C531 1.381 . S
C533 C532 1.387 . S
C533 H559 0.931 . S
C534 C531 1.487 . S
C534 C541 1.399 . S
C534 N572 1.343 . S
C535 C536 1.384 . S
C535 C537 1.384 . S
C535 H560 0.931 . S
C536 C535 1.384 . S
C536 C539 1.382 . S
C537 C535 1.384 . S
C537 C538 1.381 . S
C537 H561 0.930 . S
C538 C537 1.381 . S
C538 C540 1.381 . S
C538 C541 1.487 . S
C539 C536 1.382 . S
C539 C540 1.387 . S
C539 H562 0.930 . S
C540 C538 1.381 . S
C540 C539 1.387 . S
C540 H563 0.931 . S
C541 C534 1.399 . S
C541 C538 1.487 . S
C541 N573 1.343 . S
C542 C543 1.384 . S
C542 C544 1.384 . S
C542 H564 0.931 . S
C543 C542 1.384 . S
C543 C546 1.382 . S
C544 C542 1.384 . S
C544 C545 1.381 . S
C544 H565 0.930 . S
C545 C544 1.381 . S
C545 C547 1.381 . S
C545 C548 1.487 . S
C546 C543 1.382 . S
C546 C547 1.387 . S
C546 H566 0.930 . S
C547 C545 1.381 . S
C547 C546 1.387 . S
C547 H567 0.931 . S
C548 C545 1.487 . S
C548 C555 1.399 . S
C548 N573 1.343 . S
C549 C550 1.384 . S
C549 C551 1.384 . S
C549 H568 0.931 . S
C550 C549 1.384 . S
C550 C553 1.382 . S
C551 C549 1.384 . S
C551 C552 1.381 . S
C551 H569 0.930 . S
C552 C551 1.381 . S
C552 C554 1.381 . S
C552 C555 1.487 . S
C553 C550 1.382 . S
C553 C554 1.387 . S
C553 H570 0.930 . S
C554 C552 1.381 . S
C554 C553 1.387 . S
C554 H571 0.931 . S
C555 C548 1.399 . S
C555 C552 1.487 . S
C555 N572 1.343 . S
H556 C528 0.931 . S
H557 C530 0.930 . S
H558 C532 0.930 . S
H559 C533 0.931 . S
H560 C535 0.931 . S
H561 C537 0.930 . S
H562 C539 0.930 . S
H563 C540 0.931 . S
H564 C542 0.931 . S
H565 C544 0.930 . S
H566 C546 0.930 . S
H567 C547 0.931 . S
H568 C549 0.931 . S
H569 C551 0.930 . S
H570 C553 0.930 . S
H571 C554 0.931 . S
N572 C534 1.343 . S
N572 C555 1.343 . S
N573 C541 1.343 . S
N573 C548 1.343 . S
C574 C575 1.384 . S
C574 C576 1.384 . S
C574 H602 0.931 . S
C575 C574 1.384 . S
C575 C578 1.382 . S
C576 C574 1.384 . S
C576 C577 1.381 . S
C576 H603 0.930 . S
C577 C576 1.381 . S
C577 C579 1.381 . S
C577 C580 1.487 . S
C578 C575 1.382 . S
C578 C579 1.387 . S
C578 H604 0.930 . S
C579 C577 1.381 . S
C579 C578 1.387 . S
C579 H605 0.931 . S
C580 C577 1.487 . S
C580 C587 1.399 . S
C580 N618 1.343 . S
C581 C582 1.384 . S
C581 C583 1.384 . S
C581 H606 0.931 . S
C582 C581 1.384 . S
C582 C585 1.382 . S
C583 C581 1.384 . S
C583 C584 1.381 . S
C583 H607 0.930 . S
C584 C583 1.381 . S
C584 C586 1.381 . S
C584 C587 1.487 . S
C585 C582 1.382 . S
C585 C586 1.387 . S
C585 H608 0.930 . S
C586 C584 1.381 . S
C586 C585 1.387 . S
C586 H609 0.931 . S
C587 C580 1.399 . S
C587 C584 1.487 . S
C587 N619 1.343 . S
C588 C589 1.384 . S
C588 C590 1.384 . S
C588 H610 0.931 . S
C589 C588 1.384 . S
C589 C592 1.382 . S
C590 C588 1.384 . S
C590 C591 1.381 . S
C590 H611 0.930 . S
C591 C590 1.381 . S
C591 C593 1.381 . S
C591 C594 1.487 . S
C592 C589 1.382 . S
C592 C593 1.387 . S
C592 H612 0.930 . S
C593 C591 1.381 . S
C593 C592 1.387 . S
C593 H613 0.931 . S
C594 C591 1.487 . S
C594 C601 1.399 . S
C594 N619 1.343 . S
C595 C596 1.384 . S
C595 C597 1.384 . S
C595 H614 0.931 . S
C596 C595 1.384 . S
C596 C599 1.382 . S
C597 C595 1.384 . S
C597 C598 1.381 . S
C597 H615 0.930 . S
C598 C597 1.381 . S
C598 C600 1.381 . S
C598 C601 1.487 . S
C599 C596 1.382 . S
C599 C600 1.387 . S
C599 H616 0.930 . S
C600 C598 1.381 . S
C600 C599 1.387 . S
C600 H617 0.931 . S
C601 C594 1.399 . S
C601 C598 1.487 . S
C601 N618 1.343 . S
H602 C574 0.931 . S
H603 C576 0.930 . S
H604 C578 0.930 . S
H605 C579 0.931 . S
H606 C581 0.931 . S
H607 C583 0.930 . S
H608 C585 0.930 . S
H609 C586 0.931 . S
H610 C588 0.931 . S
H611 C590 0.930 . S
H612 C592 0.930 . S
H613 C593 0.931 . S
H614 C595 0.931 . S
H615 C597 0.930 . S
H616 C599 0.930 . S
H617 C600 0.931 . S
N618 C580 1.343 . S
N618 C601 1.343 . S
N619 C587 1.343 . S
N619 C594 1.343 . S
C620 C621 1.384 . S
C620 C622 1.384 . S
C620 H648 0.931 . S
C621 C620 1.384 . S
C621 C624 1.382 . S
C622 C620 1.384 . S
C622 C623 1.381 . S
C622 H649 0.930 . S
C623 C622 1.381 . S
C623 C625 1.381 . S
C623 C626 1.487 . S
C624 C621 1.382 . S
C624 C625 1.387 . S
C624 H650 0.930 . S
C625 C623 1.381 . S
C625 C624 1.387 . S
C625 H651 0.931 . S
C626 C623 1.487 . S
C626 C633 1.399 . S
C626 N664 1.343 . S
C627 C628 1.384 . S
C627 C629 1.384 . S
C627 H652 0.931 . S
C628 C627 1.384 . S
C628 C631 1.382 . S
C629 C627 1.384 . S
C629 C630 1.381 . S
C629 H653 0.930 . S
C630 C629 1.381 . S
C630 C632 1.381 . S
C630 C633 1.487 . S
C631 C628 1.382 . S
C631 C632 1.387 . S
C631 H654 0.930 . S
C632 C630 1.381 . S
C632 C631 1.387 . S
C632 H655 0.931 . S
C633 C626 1.399 . S
C633 C630 1.487 . S
C633 N665 1.343 . S
C634 C635 1.384 . S
C634 C636 1.384 . S
C634 H656 0.931 . S
C635 C634 1.384 . S
C635 C638 1.382 . S
C636 C634 1.384 . S
C636 C637 1.381 . S
C636 H657 0.930 . S
C637 C636 1.381 . S
C637 C639 1.381 . S
C637 C640 1.487 . S
C638 C635 1.382 . S
C638 C639 1.387 . S
C638 H658 0.930 . S
C639 C637 1.381 . S
C639 C638 1.387 . S
C639 H659 0.931 . S
C640 C637 1.487 . S
C640 C647 1.399 . S
C640 N665 1.343 . S
C641 C642 1.384 . S
C641 C643 1.384 . S
C641 H660 0.931 . S
C642 C641 1.384 . S
C642 C645 1.382 . S
C643 C641 1.384 . S
C643 C644 1.381 . S
C643 H661 0.930 . S
C644 C643 1.381 . S
C644 C646 1.381 . S
C644 C647 1.487 . S
C645 C642 1.382 . S
C645 C646 1.387 . S
C645 H662 0.930 . S
C646 C644 1.381 . S
C646 C645 1.387 . S
C646 H663 0.931 . S
C647 C640 1.399 . S
C647 C644 1.487 . S
C647 N664 1.343 . S
H648 C620 0.931 . S
H649 C622 0.930 . S
H650 C624 0.930 . S
H651 C625 0.931 . S
H652 C627 0.931 . S
H653 C629 0.930 . S
H654 C631 0.930 . S
H655 C632 0.931 . S
H656 C634 0.931 . S
H657 C636 0.930 . S
H658 C638 0.930 . S
H659 C639 0.931 . S
H660 C641 0.931 . S
H661 C643 0.930 . S
H662 C645 0.930 . S
H663 C646 0.931 . S
N664 C626 1.343 . S
N664 C647 1.343 . S
N665 C633 1.343 . S
N665 C640 1.343 . S
C666 C667 1.384 . S
C666 C668 1.384 . S
C666 H694 0.931 . S
C667 C666 1.384 . S
C667 C670 1.382 1_655 S
C668 C666 1.384 . S
C668 C669 1.413 . S
C668 H695 0.930 . S
C669 C668 1.413 . S
C669 C671 1.365 1_655 S
C669 C672 1.470 1_655 S
C670 C667 1.382 1_455 S
C670 C671 1.387 . S
C670 H696 0.930 . S
C671 C669 1.365 1_455 S
C671 C670 1.387 . S
C671 H697 0.931 . S
C672 C669 1.470 1_455 S
C672 C679 1.399 1_455 S
C672 N710 1.346 . S
C673 C674 1.384 . S
C673 C675 1.384 . S
C673 H698 0.931 . S
C674 C673 1.384 . S
C674 C677 1.382 1_455 S
C675 C673 1.384 . S
C675 C676 1.381 . S
C675 H699 0.930 . S
C676 C675 1.381 . S
C676 C678 1.381 1_455 S
C676 C679 1.493 1_455 S
C677 C674 1.382 1_655 S
C677 C678 1.387 . S
C677 H700 0.930 . S
C678 C676 1.381 1_655 S
C678 C677 1.387 . S
C678 H701 0.931 . S
C679 C672 1.399 1_655 S
C679 C676 1.493 1_655 S
C679 N711 1.361 . S
C680 C681 1.384 . S
C680 C682 1.384 . S
C680 H702 0.931 . S
C681 C680 1.384 . S
C681 C684 1.382 1_455 S
C682 C680 1.384 . S
C682 C683 1.426 . S
C682 H703 0.930 . S
C683 C682 1.426 . S
C683 C685 1.359 1_455 S
C683 C686 1.464 . S
C684 C681 1.382 1_655 S
C684 C685 1.387 . S
C684 H704 0.930 . S
C685 C683 1.359 1_655 S
C685 C684 1.387 . S
C685 H705 0.931 . S
C686 C683 1.464 . S
C686 C693 1.398 . S
C686 N711 1.319 1_455 S
C687 C688 1.384 . S
C687 C689 1.384 . S
C687 H706 0.931 . S
C688 C687 1.384 . S
C688 C691 1.382 1_655 S
C689 C687 1.384 . S
C689 C690 1.381 1_655 S
C689 H707 0.930 . S
C690 C689 1.381 1_455 S
C690 C692 1.381 . S
C690 C693 1.499 . S
C691 C688 1.382 1_455 S
C691 C692 1.387 . S
C691 H708 0.930 . S
C692 C690 1.381 . S
C692 C691 1.387 . S
C692 H709 0.931 . S
C693 C686 1.398 . S
C693 C690 1.499 . S
C693 N710 1.331 . S
H694 C666 0.931 . S
H695 C668 0.930 . S
H696 C670 0.930 . S
H697 C671 0.931 . S
H698 C673 0.931 . S
H699 C675 0.930 . S
H700 C677 0.930 . S
H701 C678 0.931 . S
H702 C680 0.931 . S
H703 C682 0.930 . S
H704 C684 0.930 . S
H705 C685 0.931 . S
H706 C687 0.931 . S
H707 C689 0.930 . S
H708 C691 0.930 . S
H709 C692 0.931 . S
N710 C672 1.346 . S
N710 C693 1.331 . S
N711 C679 1.361 . S
N711 C686 1.319 1_655 S
C712 C713 1.384 . S
C712 C714 1.384 . S
C712 H740 0.931 . S
C713 C712 1.384 . S
C713 C716 1.382 . S
C714 C712 1.384 . S
C714 C715 1.381 . S
C714 H741 0.930 . S
C715 C714 1.381 . S
C715 C717 1.381 . S
C715 C718 1.487 . S
C716 C713 1.382 . S
C716 C717 1.387 . S
C716 H742 0.930 . S
C717 C715 1.381 . S
C717 C716 1.387 . S
C717 H743 0.931 . S
C718 C715 1.487 . S
C718 C725 1.399 . S
C718 N756 1.343 . S
C719 C720 1.384 . S
C719 C721 1.384 . S
C719 H744 0.931 . S
C720 C719 1.384 . S
C720 C723 1.382 . S
C721 C719 1.384 . S
C721 C722 1.381 . S
C721 H745 0.930 . S
C722 C721 1.381 . S
C722 C724 1.381 . S
C722 C725 1.487 . S
C723 C720 1.382 . S
C723 C724 1.387 . S
C723 H746 0.930 . S
C724 C722 1.381 . S
C724 C723 1.387 . S
C724 H747 0.931 . S
C725 C718 1.399 . S
C725 C722 1.487 . S
C725 N757 1.343 . S
C726 C727 1.384 . S
C726 C728 1.384 . S
C726 H748 0.931 . S
C727 C726 1.384 . S
C727 C730 1.382 . S
C728 C726 1.384 . S
C728 C729 1.381 . S
C728 H749 0.930 . S
C729 C728 1.381 . S
C729 C731 1.381 . S
C729 C732 1.487 . S
C730 C727 1.382 . S
C730 C731 1.387 . S
C730 H750 0.930 . S
C731 C729 1.381 . S
C731 C730 1.387 . S
C731 H751 0.931 . S
C732 C729 1.487 . S
C732 C739 1.399 . S
C732 N757 1.343 . S
C733 C734 1.384 . S
C733 C735 1.384 . S
C733 H752 0.931 . S
C734 C733 1.384 . S
C734 C737 1.382 . S
C735 C733 1.384 . S
C735 C736 1.381 . S
C735 H753 0.930 . S
C736 C735 1.381 . S
C736 C738 1.381 . S
C736 C739 1.487 . S
C737 C734 1.382 . S
C737 C738 1.387 . S
C737 H754 0.930 . S
C738 C736 1.381 . S
C738 C737 1.387 . S
C738 H755 0.931 . S
C739 C732 1.399 . S
C739 C736 1.487 . S
C739 N756 1.343 . S
H740 C712 0.931 . S
H741 C714 0.930 . S
H742 C716 0.930 . S
H743 C717 0.931 . S
H744 C719 0.931 . S
H745 C721 0.930 . S
H746 C723 0.930 . S
H747 C724 0.931 . S
H748 C726 0.931 . S
H749 C728 0.930 . S
H750 C730 0.930 . S
H751 C731 0.931 . S
H752 C733 0.931 . S
H753 C735 0.930 . S
H754 C737 0.930 . S
H755 C738 0.931 . S
N756 C718 1.343 . S
N756 C739 1.343 . S
N757 C725 1.343 . S
N757 C732 1.343 . S
C758 C759 1.384 1_545 S
C758 C760 1.384 . S
C758 H786 0.931 . S
C759 C758 1.384 1_565 S
C759 C762 1.382 . S
C760 C758 1.384 . S
C760 C761 1.381 1_545 S
C760 H787 0.930 . S
C761 C760 1.381 1_565 S
C761 C763 1.381 . S
C761 C764 1.487 . S
C762 C759 1.382 . S
C762 C763 1.387 . S
C762 H788 0.930 . S
C763 C761 1.381 . S
C763 C762 1.387 . S
C763 H789 0.931 . S
C764 C761 1.487 . S
C764 C771 1.399 1_565 S
C764 N802 1.343 . S
C765 C766 1.384 1_565 S
C765 C767 1.384 . S
C765 H790 0.931 . S
C766 C765 1.384 1_545 S
C766 C769 1.382 . S
C767 C765 1.384 . S
C767 C768 1.381 1_565 S
C767 H791 0.930 . S
C768 C767 1.381 1_545 S
C768 C770 1.381 . S
C768 C771 1.487 . S
C769 C766 1.382 . S
C769 C770 1.387 . S
C769 H792 0.930 . S
C770 C768 1.381 . S
C770 C769 1.387 . S
C770 H793 0.931 . S
C771 C764 1.399 1_545 S
C771 C768 1.487 . S
C771 N803 1.343 . S
C772 C773 1.384 1_565 S
C772 C774 1.384 . S
C772 H794 0.931 . S
C773 C772 1.384 1_545 S
C773 C776 1.382 . S
C774 C772 1.384 . S
C774 C775 1.381 1_565 S
C774 H795 0.930 . S
C775 C774 1.381 1_545 S
C775 C777 1.381 . S
C775 C778 1.487 . S
C776 C773 1.382 . S
C776 C777 1.387 . S
C776 H796 0.930 . S
C777 C775 1.381 . S
C777 C776 1.387 . S
C777 H797 0.931 . S
C778 C775 1.487 . S
C778 C785 1.399 1_545 S
C778 N803 1.343 . S
C779 C780 1.384 1_545 S
C779 C781 1.384 . S
C779 H798 0.931 . S
C780 C779 1.384 1_565 S
C780 C783 1.382 . S
C781 C779 1.384 . S
C781 C782 1.381 1_545 S
C781 H799 0.930 . S
C782 C781 1.381 1_565 S
C782 C784 1.381 . S
C782 C785 1.487 . S
C783 C780 1.382 . S
C783 C784 1.387 . S
C783 H800 0.930 . S
C784 C782 1.381 . S
C784 C783 1.387 . S
C784 H801 0.931 . S
C785 C778 1.399 1_565 S
C785 C782 1.487 . S
C785 N802 1.343 . S
H786 C758 0.931 . S
H787 C760 0.930 . S
H788 C762 0.930 . S
H789 C763 0.931 . S
H790 C765 0.931 . S
H791 C767 0.930 . S
H792 C769 0.930 . S
H793 C770 0.931 . S
H794 C772 0.931 . S
H795 C774 0.930 . S
H796 C776 0.930 . S
H797 C777 0.931 . S
H798 C779 0.931 . S
H799 C781 0.930 . S
H800 C783 0.930 . S
H801 C784 0.931 . S
N802 C764 1.343 . S
N802 C785 1.343 . S
N803 C771 1.343 . S
N803 C778 1.343 . S
C804 C805 1.384 . S
C804 C806 1.384 . S
C804 H832 0.931 . S
C805 C804 1.384 . S
C805 C808 1.382 1_545 S
C806 C804 1.384 . S
C806 C807 1.380 1_545 S
C806 H833 0.930 . S
C807 C806 1.380 1_565 S
C807 C809 1.388 . S
C807 C810 1.494 . S
C808 C805 1.382 1_565 S
C808 C809 1.387 . S
C808 H834 0.930 . S
C809 C807 1.388 . S
C809 C808 1.387 . S
C809 H835 0.931 . S
C810 C807 1.494 . S
C810 C817 1.399 1_565 S
C810 N848 1.359 . S
C811 C812 1.384 . S
C811 C813 1.384 . S
C811 H836 0.931 . S
C812 C811 1.384 . S
C812 C815 1.382 1_565 S
C813 C811 1.384 . S
C813 C814 1.424 . S
C813 H837 0.930 . S
C814 C813 1.424 . S
C814 C816 1.361 1_565 S
C814 C817 1.467 1_565 S
C815 C812 1.382 1_545 S
C815 C816 1.387 . S
C815 H838 0.930 . S
C816 C814 1.361 1_545 S
C816 C815 1.387 . S
C816 H839 0.931 . S
C817 C810 1.399 1_545 S
C817 C814 1.467 1_545 S
C817 N849 1.343 . S
C818 C819 1.384 . S
C818 C820 1.384 . S
C818 H840 0.931 . S
C819 C818 1.384 . S
C819 C822 1.382 1_565 S
C820 C818 1.384 . S
C820 C821 1.378 1_565 S
C820 H841 0.930 . S
C821 C820 1.378 1_545 S
C821 C823 1.395 . S
C821 C824 1.494 . S
C822 C819 1.382 1_545 S
C822 C823 1.387 . S
C822 H842 0.930 . S
C823 C821 1.395 . S
C823 C822 1.387 . S
C823 H843 0.931 . S
C824 C821 1.494 . S
C824 C831 1.399 . S
C824 N849 1.326 . S
C825 C826 1.384 . S
C825 C827 1.384 . S
C825 H844 0.931 . S
C826 C825 1.384 . S
C826 C829 1.382 1_545 S
C827 C825 1.384 . S
C827 C828 1.437 . S
C827 H845 0.930 . S
C828 C827 1.437 . S
C828 C830 1.354 1_545 S
C828 C831 1.461 . S
C829 C826 1.382 1_565 S
C829 C830 1.387 . S
C829 H846 0.930 . S
C830 C828 1.354 1_565 S
C830 C829 1.387 . S
C830 H847 0.931 . S
C831 C824 1.399 . S
C831 C828 1.461 . S
C831 N848 1.314 1_545 S
H832 C804 0.931 . S
H833 C806 0.930 . S
H834 C808 0.930 . S
H835 C809 0.931 . S
H836 C811 0.931 . S
H837 C813 0.930 . S
H838 C815 0.930 . S
H839 C816 0.931 . S
H840 C818 0.931 . S
H841 C820 0.930 . S
H842 C822 0.930 . S
H843 C823 0.931 . S
H844 C825 0.931 . S
H845 C827 0.930 . S
H846 C829 0.930 . S
H847 C830 0.931 . S
N848 C810 1.359 . S
N848 C831 1.314 1_565 S
N849 C817 1.343 . S
N849 C824 1.326 . S
C850 C851 1.384 . S
C850 C852 1.384 . S
C850 H878 0.931 . S
C851 C850 1.384 . S
C851 C854 1.382 1_655 S
C852 C850 1.384 . S
C852 C853 1.438 . S
C852 H879 0.930 . S
C853 C852 1.438 . S
C853 C855 1.354 1_655 S
C853 C856 1.461 . S
C854 C851 1.382 1_455 S
C854 C855 1.387 . S
C854 H880 0.930 . S
C855 C853 1.354 1_455 S
C855 C854 1.387 . S
C855 H881 0.931 . S
C856 C853 1.461 . S
C856 C863 1.399 . S
C856 N894 1.322 1_655 S
C857 C858 1.384 . S
C857 C859 1.384 . S
C857 H882 0.931 . S
C858 C857 1.384 . S
C858 C861 1.382 1_455 S
C859 C857 1.384 . S
C859 C860 1.381 . S
C859 H883 0.930 . S
C860 C859 1.381 . S
C860 C862 1.382 1_455 S
C860 C863 1.496 1_455 S
C861 C858 1.382 1_655 S
C861 C862 1.387 . S
C861 H884 0.930 . S
C862 C860 1.382 1_655 S
C862 C861 1.387 . S
C862 H885 0.931 . S
C863 C856 1.399 . S
C863 C860 1.496 1_655 S
C863 N895 1.359 . S
C864 C865 1.384 . S
C864 C866 1.384 . S
C864 H886 0.931 . S
C865 C864 1.384 . S
C865 C868 1.382 1_455 S
C866 C864 1.384 . S
C866 C867 1.425 . S
C866 H887 0.930 . S
C867 C866 1.425 . S
C867 C869 1.360 1_455 S
C867 C870 1.467 1_455 S
C868 C865 1.382 1_655 S
C868 C869 1.387 . S
C868 H888 0.930 . S
C869 C867 1.360 1_655 S
C869 C868 1.387 . S
C869 H889 0.931 . S
C870 C867 1.467 1_655 S
C870 C877 1.399 1_655 S
C870 N895 1.315 . S
C871 C872 1.384 . S
C871 C873 1.384 . S
C871 H890 0.931 . S
C872 C871 1.384 . S
C872 C875 1.382 1_655 S
C873 C871 1.384 . S
C873 C874 1.383 . S
C873 H891 0.930 . S
C874 C873 1.383 . S
C874 C876 1.375 1_655 S
C874 C877 1.496 1_655 S
C875 C872 1.382 1_455 S
C875 C876 1.387 . S
C875 H892 0.930 . S
C876 C874 1.375 1_455 S
C876 C875 1.387 . S
C876 H893 0.931 . S
C877 C870 1.399 1_455 S
C877 C874 1.496 1_455 S
C877 N894 1.359 . S
H878 C850 0.931 . S
H879 C852 0.930 . S
H880 C854 0.930 . S
H881 C855 0.931 . S
H882 C857 0.931 . S
H883 C859 0.930 . S
H884 C861 0.930 . S
H885 C862 0.931 . S
H886 C864 0.931 . S
H887 C866 0.930 . S
H888 C868 0.930 . S
H889 C869 0.931 . S
H890 C871 0.931 . S
H891 C873 0.930 . S
H892 C875 0.930 . S
H893 C876 0.931 . S
N894 C856 1.322 1_455 S
N894 C877 1.359 . S
N895 C863 1.359 . S
N895 C870 1.315 . S
C896 C897 1.384 . S
C896 C898 1.384 . S
C896 H924 0.931 . S
C897 C896 1.384 . S
C897 C900 1.382 . S
C898 C896 1.384 . S
C898 C899 1.381 . S
C898 H925 0.930 . S
C899 C898 1.381 . S
C899 C901 1.381 . S
C899 C902 1.487 . S
C900 C897 1.382 . S
C900 C901 1.387 . S
C900 H926 0.930 . S
C901 C899 1.381 . S
C901 C900 1.387 . S
C901 H927 0.931 . S
C902 C899 1.487 . S
C902 C909 1.399 . S
C902 N940 1.343 . S
C903 C904 1.384 . S
C903 C905 1.384 . S
C903 H928 0.931 . S
C904 C903 1.384 . S
C904 C907 1.382 . S
C905 C903 1.384 . S
C905 C906 1.381 . S
C905 H929 0.930 . S
C906 C905 1.381 . S
C906 C908 1.381 . S
C906 C909 1.487 . S
C907 C904 1.382 . S
C907 C908 1.387 . S
C907 H930 0.930 . S
C908 C906 1.381 . S
C908 C907 1.387 . S
C908 H931 0.931 . S
C909 C902 1.399 . S
C909 C906 1.487 . S
C909 N941 1.343 . S
C910 C911 1.384 . S
C910 C912 1.384 . S
C910 H932 0.931 . S
C911 C910 1.384 . S
C911 C914 1.382 . S
C912 C910 1.384 . S
C912 C913 1.381 . S
C912 H933 0.930 . S
C913 C912 1.381 . S
C913 C915 1.381 . S
C913 C916 1.487 . S
C914 C911 1.382 . S
C914 C915 1.387 . S
C914 H934 0.930 . S
C915 C913 1.381 . S
C915 C914 1.387 . S
C915 H935 0.931 . S
C916 C913 1.487 . S
C916 C923 1.399 . S
C916 N941 1.343 . S
C917 C918 1.384 . S
C917 C919 1.384 . S
C917 H936 0.931 . S
C918 C917 1.384 . S
C918 C921 1.382 . S
C919 C917 1.384 . S
C919 C920 1.381 . S
C919 H937 0.930 . S
C920 C919 1.381 . S
C920 C922 1.381 . S
C920 C923 1.487 . S
C921 C918 1.382 . S
C921 C922 1.387 . S
C921 H938 0.930 . S
C922 C920 1.381 . S
C922 C921 1.387 . S
C922 H939 0.931 . S
C923 C916 1.399 . S
C923 C920 1.487 . S
C923 N940 1.343 . S
H924 C896 0.931 . S
H925 C898 0.930 . S
H926 C900 0.930 . S
H927 C901 0.931 . S
H928 C903 0.931 . S
H929 C905 0.930 . S
H930 C907 0.930 . S
H931 C908 0.931 . S
H932 C910 0.931 . S
H933 C912 0.930 . S
H934 C914 0.930 . S
H935 C915 0.931 . S
H936 C917 0.931 . S
H937 C919 0.930 . S
H938 C921 0.930 . S
H939 C922 0.931 . S
N940 C902 1.343 . S
N940 C923 1.343 . S
N941 C909 1.343 . S
N941 C916 1.343 . S
C942 C943 1.384 . S
C942 C944 1.384 . S
C942 H970 0.931 . S
C943 C942 1.384 . S
C943 C946 1.382 . S
C944 C942 1.384 . S
C944 C945 1.381 . S
C944 H971 0.930 . S
C945 C944 1.381 . S
C945 C947 1.381 . S
C945 C948 1.487 . S
C946 C943 1.382 . S
C946 C947 1.387 . S
C946 H972 0.930 . S
C947 C945 1.381 . S
C947 C946 1.387 . S
C947 H973 0.931 . S
C948 C945 1.487 . S
C948 C955 1.399 . S
C948 N986 1.343 . S
C949 C950 1.384 . S
C949 C951 1.384 . S
C949 H974 0.931 . S
C950 C949 1.384 . S
C950 C953 1.382 . S
C951 C949 1.384 . S
C951 C952 1.381 . S
C951 H975 0.930 . S
C952 C951 1.381 . S
C952 C954 1.381 . S
C952 C955 1.487 . S
C953 C950 1.382 . S
C953 C954 1.387 . S
C953 H976 0.930 . S
C954 C952 1.381 . S
C954 C953 1.387 . S
C954 H977 0.931 . S
C955 C948 1.399 . S
C955 C952 1.487 . S
C955 N987 1.343 . S
C956 C957 1.384 . S
C956 C958 1.384 . S
C956 H978 0.931 . S
C957 C956 1.384 . S
C957 C960 1.382 . S
C958 C956 1.384 . S
C958 C959 1.381 . S
C958 H979 0.930 . S
C959 C958 1.381 . S
C959 C961 1.381 . S
C959 C962 1.487 . S
C960 C957 1.382 . S
C960 C961 1.387 . S
C960 H980 0.930 . S
C961 C959 1.381 . S
C961 C960 1.387 . S
C961 H981 0.931 . S
C962 C959 1.487 . S
C962 C969 1.399 . S
C962 N987 1.343 . S
C963 C964 1.384 . S
C963 C965 1.384 . S
C963 H982 0.931 . S
C964 C963 1.384 . S
C964 C967 1.382 . S
C965 C963 1.384 . S
C965 C966 1.381 . S
C965 H983 0.930 . S
C966 C965 1.381 . S
C966 C968 1.381 . S
C966 C969 1.487 . S
C967 C964 1.382 . S
C967 C968 1.387 . S
C967 H984 0.930 . S
C968 C966 1.381 . S
C968 C967 1.387 . S
C968 H985 0.931 . S
C969 C962 1.399 . S
C969 C966 1.487 . S
C969 N986 1.343 . S
H970 C942 0.931 . S
H971 C944 0.930 . S
H972 C946 0.930 . S
H973 C947 0.931 . S
H974 C949 0.931 . S
H975 C951 0.930 . S
H976 C953 0.930 . S
H977 C954 0.931 . S
H978 C956 0.931 . S
H979 C958 0.930 . S
H980 C960 0.930 . S
H981 C961 0.931 . S
H982 C963 0.931 . S
H983 C965 0.930 . S
H984 C967 0.930 . S
H985 C968 0.931 . S
N986 C948 1.343 . S
N986 C969 1.343 . S
N987 C955 1.343 . S
N987 C962 1.343 . S
C988 C989 1.384 . S
C988 C990 1.384 . S
C988 H1016 0.931 . S
C989 C988 1.384 . S
C989 C992 1.382 . S
C990 C988 1.384 . S
C990 C991 1.381 . S
C990 H1017 0.930 . S
C991 C990 1.381 . S
C991 C993 1.381 . S
C991 C994 1.487 . S
C992 C989 1.382 . S
C992 C993 1.387 . S
C992 H1018 0.930 . S
C993 C991 1.381 . S
C993 C992 1.387 . S
C993 H1019 0.931 . S
C994 C991 1.487 . S
C994 C1001 1.399 . S
C994 N1032 1.343 . S
C995 C996 1.384 . S
C995 C997 1.384 . S
C995 H1020 0.931 . S
C996 C995 1.384 . S
C996 C999 1.382 . S
C997 C995 1.384 . S
C997 C998 1.381 . S
C997 H1021 0.930 . S
C998 C997 1.381 . S
C998 C1000 1.381 . S
C998 C1001 1.487 . S
C999 C996 1.382 . S
C999 C1000 1.387 . S
C999 H1022 0.930 . S
C1000 C998 1.381 . S
C1000 C999 1.387 . S
C1000 H1023 0.931 . S
C1001 C994 1.399 . S
C1001 C998 1.487 . S
C1001 N1033 1.343 . S
C1002 C1003 1.384 . S
C1002 C1004 1.384 . S
C1002 H1024 0.931 . S
C1003 C1002 1.384 . S
C1003 C1006 1.382 . S
C1004 C1002 1.384 . S
C1004 C1005 1.381 . S
C1004 H1025 0.930 . S
C1005 C1004 1.381 . S
C1005 C1007 1.381 . S
C1005 C1008 1.487 . S
C1006 C1003 1.382 . S
C1006 C1007 1.387 . S
C1006 H1026 0.930 . S
C1007 C1005 1.381 . S
C1007 C1006 1.387 . S
C1007 H1027 0.931 . S
C1008 C1005 1.487 . S
C1008 C1015 1.399 . S
C1008 N1033 1.343 . S
C1009 C1010 1.384 . S
C1009 C1011 1.384 . S
C1009 H1028 0.931 . S
C1010 C1009 1.384 . S
C1010 C1013 1.382 . S
C1011 C1009 1.384 . S
C1011 C1012 1.381 . S
C1011 H1029 0.930 . S
C1012 C1011 1.381 . S
C1012 C1014 1.381 . S
C1012 C1015 1.487 . S
C1013 C1010 1.382 . S
C1013 C1014 1.387 . S
C1013 H1030 0.930 . S
C1014 C1012 1.381 . S
C1014 C1013 1.387 . S
C1014 H1031 0.931 . S
C1015 C1008 1.399 . S
C1015 C1012 1.487 . S
C1015 N1032 1.343 . S
H1016 C988 0.931 . S
H1017 C990 0.930 . S
H1018 C992 0.930 . S
H1019 C993 0.931 . S
H1020 C995 0.931 . S
H1021 C997 0.930 . S
H1022 C999 0.930 . S
H1023 C1000 0.931 . S
H1024 C1002 0.931 . S
H1025 C1004 0.930 . S
H1026 C1006 0.930 . S
H1027 C1007 0.931 . S
H1028 C1009 0.931 . S
H1029 C1011 0.930 . S
H1030 C1013 0.930 . S
H1031 C1014 0.931 . S
N1032 C994 1.343 . S
N1032 C1015 1.343 . S
N1033 C1001 1.343 . S
N1033 C1008 1.343 . S
C1034 C1035 1.384 . S
C1034 C1036 1.384 . S
C1034 H1062 0.931 . S
C1035 C1034 1.384 . S
C1035 C1038 1.382 . S
C1036 C1034 1.384 . S
C1036 C1037 1.381 . S
C1036 H1063 0.930 . S
C1037 C1036 1.381 . S
C1037 C1039 1.381 . S
C1037 C1040 1.487 . S
C1038 C1035 1.382 . S
C1038 C1039 1.387 . S
C1038 H1064 0.930 . S
C1039 C1037 1.381 . S
C1039 C1038 1.387 . S
C1039 H1065 0.931 . S
C1040 C1037 1.487 . S
C1040 C1047 1.399 . S
C1040 N1078 1.343 . S
C1041 C1042 1.384 . S
C1041 C1043 1.384 . S
C1041 H1066 0.931 . S
C1042 C1041 1.384 . S
C1042 C1045 1.382 . S
C1043 C1041 1.384 . S
C1043 C1044 1.381 . S
C1043 H1067 0.930 . S
C1044 C1043 1.381 . S
C1044 C1046 1.381 . S
C1044 C1047 1.487 . S
C1045 C1042 1.382 . S
C1045 C1046 1.387 . S
C1045 H1068 0.930 . S
C1046 C1044 1.381 . S
C1046 C1045 1.387 . S
C1046 H1069 0.931 . S
C1047 C1040 1.399 . S
C1047 C1044 1.487 . S
C1047 N1079 1.343 . S
C1048 C1049 1.384 . S
C1048 C1050 1.384 . S
C1048 H1070 0.931 . S
C1049 C1048 1.384 . S
C1049 C1052 1.382 . S
C1050 C1048 1.384 . S
C1050 C1051 1.381 . S
C1050 H1071 0.930 . S
C1051 C1050 1.381 . S
C1051 C1053 1.381 . S
C1051 C1054 1.487 . S
C1052 C1049 1.382 . S
C1052 C1053 1.387 . S
C1052 H1072 0.930 . S
C1053 C1051 1.381 . S
C1053 C1052 1.387 . S
C1053 H1073 0.931 . S
C1054 C1051 1.487 . S
C1054 C1061 1.399 . S
C1054 N1079 1.343 . S
C1055 C1056 1.384 . S
C1055 C1057 1.384 . S
C1055 H1074 0.931 . S
C1056 C1055 1.384 . S
C1056 C1059 1.382 . S
C1057 C1055 1.384 . S
C1057 C1058 1.381 . S
C1057 H1075 0.930 . S
C1058 C1057 1.381 . S
C1058 C1060 1.381 . S
C1058 C1061 1.487 . S
C1059 C1056 1.382 . S
C1059 C1060 1.387 . S
C1059 H1076 0.930 . S
C1060 C1058 1.381 . S
C1060 C1059 1.387 . S
C1060 H1077 0.931 . S
C1061 C1054 1.399 . S
C1061 C1058 1.487 . S
C1061 N1078 1.343 . S
H1062 C1034 0.931 . S
H1063 C1036 0.930 . S
H1064 C1038 0.930 . S
H1065 C1039 0.931 . S
H1066 C1041 0.931 . S
H1067 C1043 0.930 . S
H1068 C1045 0.930 . S
H1069 C1046 0.931 . S
H1070 C1048 0.931 . S
H1071 C1050 0.930 . S
H1072 C1052 0.930 . S
H1073 C1053 0.931 . S
H1074 C1055 0.931 . S
H1075 C1057 0.930 . S
H1076 C1059 0.930 . S
H1077 C1060 0.931 . S
N1078 C1040 1.343 . S
N1078 C1061 1.343 . S
N1079 C1047 1.343 . S
N1079 C1054 1.343 . S
C1080 C1081 1.369 . S
C1080 C1082 1.419 . S
C1080 H1084 0.930 . S
C1081 C1080 1.369 . S
C1081 C1090 1.429 . S
C1082 C1080 1.419 . S
C1082 C1083 1.363 . S
C1082 H1085 0.917 1_655 S
C1083 C1082 1.363 . S
C1083 C1089 1.428 . S
H1084 C1080 0.930 . S
H1085 C1082 0.917 1_455 S
S1086 N1087 1.613 . S
S1086 N1088 1.610 . S
N1087 S1086 1.613 . S
N1087 C1090 1.350 . S
N1088 S1086 1.610 . S
N1088 C1089 1.351 . S
C1089 C1083 1.428 . S
C1089 N1088 1.351 . S
C1089 C1090 1.434 . S
C1090 C1081 1.429 . S
C1090 N1087 1.350 . S
C1090 C1089 1.434 . S
C1091 C1092 1.369 . S
C1091 C1093 1.419 . S
C1091 H1095 0.930 . S
C1092 C1091 1.369 . S
C1092 C1101 1.429 . S
C1093 C1091 1.419 . S
C1093 C1094 1.363 . S
C1093 H1096 0.929 . S
C1094 C1093 1.363 . S
C1094 C1100 1.428 . S
H1095 C1091 0.930 . S
H1096 C1093 0.929 . S
S1097 N1098 1.613 . S
S1097 N1099 1.610 . S
N1098 S1097 1.613 . S
N1098 C1101 1.350 . S
N1099 S1097 1.610 . S
N1099 C1100 1.351 . S
C1100 C1094 1.428 . S
C1100 N1099 1.351 . S
C1100 C1101 1.434 . S
C1101 C1092 1.429 . S
C1101 N1098 1.350 . S
C1101 C1100 1.434 . S
C1102 C1103 1.369 . S
C1102 C1104 1.419 1_545 S
C1102 H1106 0.930 1_545 S
C1103 C1102 1.369 . S
C1103 C1112 1.429 . S
C1104 C1102 1.419 1_565 S
C1104 C1105 1.363 1_565 S
C1104 H1107 0.929 . S
C1105 C1104 1.363 1_545 S
C1105 C1111 1.428 . S
H1106 C1102 0.930 1_565 S
H1107 C1104 0.929 . S
S1108 N1109 1.613 . S
S1108 N1110 1.610 . S
N1109 S1108 1.613 . S
N1109 C1112 1.350 . S
N1110 S1108 1.610 . S
N1110 C1111 1.351 . S
C1111 C1105 1.428 . S
C1111 N1110 1.351 . S
C1111 C1112 1.434 . S
C1112 C1103 1.429 . S
C1112 N1109 1.350 . S
C1112 C1111 1.434 . S
C1113 C1114 1.369 . S
C1113 C1115 1.419 . S
C1113 H1117 0.930 . S
C1114 C1113 1.369 . S
C1114 C1123 1.429 1_565 S
C1115 C1113 1.419 . S
C1115 C1116 1.363 . S
C1115 H1118 0.929 . S
C1116 C1115 1.363 . S
C1116 C1122 1.428 1_565 S
H1117 C1113 0.930 . S
H1118 C1115 0.929 . S
S1119 N1120 1.613 . S
S1119 N1121 1.610 . S
N1120 S1119 1.613 . S
N1120 C1123 1.350 . S
N1121 S1119 1.610 . S
N1121 C1122 1.351 . S
C1122 C1116 1.428 1_545 S
C1122 N1121 1.351 . S
C1122 C1123 1.434 . S
C1123 C1114 1.429 1_545 S
C1123 N1120 1.350 . S
C1123 C1122 1.434 . S
C1124 C1125 1.369 . S
C1124 C1126 1.419 . S
C1124 H1128 0.930 . S
C1125 C1124 1.369 . S
C1125 C1134 1.429 1_455 S
C1126 C1124 1.419 . S
C1126 C1127 1.363 . S
C1126 H1129 0.929 . S
C1127 C1126 1.363 . S
C1127 C1133 1.428 1_455 S
H1128 C1124 0.930 . S
H1129 C1126 0.929 . S
S1130 N1131 1.613 . S
S1130 N1132 1.610 . S
N1131 S1130 1.613 . S
N1131 C1134 1.350 . S
N1132 S1130 1.610 . S
N1132 C1133 1.351 . S
C1133 C1127 1.428 1_655 S
C1133 N1132 1.351 . S
C1133 C1134 1.434 . S
C1134 C1125 1.429 1_655 S
C1134 N1131 1.350 . S
C1134 C1133 1.434 . S
C1135 C1136 1.369 . S
C1135 C1137 1.419 . S
C1135 H1139 0.930 . S
C1136 C1135 1.369 . S
C1136 C1145 1.429 . S
C1137 C1135 1.419 . S
C1137 C1138 1.363 . S
C1137 H1140 0.929 . S
C1138 C1137 1.363 . S
C1138 C1144 1.428 . S
H1139 C1135 0.930 . S
H1140 C1137 0.929 . S
S1141 N1142 1.613 . S
S1141 N1143 1.610 . S
N1142 S1141 1.613 . S
N1142 C1145 1.350 . S
N1143 S1141 1.610 . S
N1143 C1144 1.351 . S
C1144 C1138 1.428 . S
C1144 N1143 1.351 . S
C1144 C1145 1.434 . S
C1145 C1136 1.429 . S
C1145 N1142 1.350 . S
C1145 C1144 1.434 . S
C1146 C1147 1.369 . S
C1146 C1148 1.419 . S
C1146 H1150 0.930 . S
C1147 C1146 1.369 . S
C1147 C1156 1.429 1_455 S
C1148 C1146 1.419 . S
C1148 C1149 1.363 . S
C1148 H1151 0.929 . S
C1149 C1148 1.363 . S
C1149 C1155 1.428 1_455 S
H1150 C1146 0.930 . S
H1151 C1148 0.929 . S
S1152 N1153 1.613 . S
S1152 N1154 1.610 . S
N1153 S1152 1.613 . S
N1153 C1156 1.350 . S
N1154 S1152 1.610 . S
N1154 C1155 1.351 . S
C1155 C1149 1.428 1_655 S
C1155 N1154 1.351 . S
C1155 C1156 1.434 . S
C1156 C1147 1.429 1_655 S
C1156 N1153 1.350 . S
C1156 C1155 1.434 . S
C1157 C1158 1.369 . S
C1157 C1159 1.419 . S
C1157 H1161 0.930 . S
C1158 C1157 1.369 . S
C1158 C1167 1.429 . S
C1159 C1157 1.419 . S
C1159 C1160 1.363 . S
C1159 H1162 0.929 . S
C1160 C1159 1.363 . S
C1160 C1166 1.428 . S
H1161 C1157 0.930 . S
H1162 C1159 0.929 . S
S1163 N1164 1.613 . S
S1163 N1165 1.610 . S
N1164 S1163 1.613 . S
N1164 C1167 1.350 . S
N1165 S1163 1.610 . S
N1165 C1166 1.351 . S
C1166 C1160 1.428 . S
C1166 N1165 1.351 . S
C1166 C1167 1.434 . S
C1167 C1158 1.429 . S
C1167 N1164 1.350 . S
C1167 C1166 1.434 . S
C1168 C1169 1.369 . S
C1168 C1170 1.419 . S
C1168 H1172 0.930 . S
C1169 C1168 1.369 . S
C1169 C1178 1.429 1_565 S
C1170 C1168 1.419 . S
C1170 C1171 1.363 . S
C1170 H1173 0.929 . S
C1171 C1170 1.363 . S
C1171 C1177 1.428 1_565 S
H1172 C1168 0.930 . S
H1173 C1170 0.929 . S
S1174 N1175 1.613 . S
S1174 N1176 1.610 . S
N1175 S1174 1.613 . S
N1175 C1178 1.350 . S
N1176 S1174 1.610 . S
N1176 C1177 1.351 . S
C1177 C1171 1.428 1_545 S
C1177 N1176 1.351 . S
C1177 C1178 1.434 . S
C1178 C1169 1.429 1_545 S
C1178 N1175 1.350 . S
C1178 C1177 1.434 . S
C1179 C1180 1.369 1_565 S
C1179 C1181 1.419 . S
C1179 H1183 0.930 . S
C1180 C1179 1.369 1_545 S
C1180 C1189 1.429 . S
C1181 C1179 1.419 . S
C1181 C1182 1.363 1_565 S
C1181 H1184 0.929 . S
C1182 C1181 1.363 1_545 S
C1182 C1188 1.428 . S
H1183 C1179 0.930 . S
H1184 C1181 0.929 . S
S1185 N1186 1.613 . S
S1185 N1187 1.610 . S
N1186 S1185 1.613 . S
N1186 C1189 1.350 . S
N1187 S1185 1.610 . S
N1187 C1188 1.351 . S
C1188 C1182 1.428 . S
C1188 N1187 1.351 . S
C1188 C1189 1.434 . S
C1189 C1180 1.429 . S
C1189 N1186 1.350 . S
C1189 C1188 1.434 . S
C1190 C1191 1.369 . S
C1190 C1192 1.419 . S
C1190 H1194 0.930 . S
C1191 C1190 1.369 . S
C1191 C1200 1.429 . S
C1192 C1190 1.419 . S
C1192 C1193 1.363 . S
C1192 H1195 0.929 1_655 S
C1193 C1192 1.363 . S
C1193 C1199 1.428 . S
H1194 C1190 0.930 . S
H1195 C1192 0.929 1_455 S
S1196 N1197 1.613 . S
S1196 N1198 1.610 . S
N1197 S1196 1.613 . S
N1197 C1200 1.350 . S
N1198 S1196 1.610 . S
N1198 C1199 1.351 . S
C1199 C1193 1.428 . S
C1199 N1198 1.351 . S
C1199 C1200 1.434 . S
C1200 C1191 1.429 . S
C1200 N1197 1.350 . S
C1200 C1199 1.434 . S
C1201 C1202 1.369 . S
C1201 C1203 1.419 . S
C1201 H1205 0.930 . S
C1202 C1201 1.369 . S
C1202 C1211 1.429 . S
C1203 C1201 1.419 . S
C1203 C1204 1.363 . S
C1203 H1206 0.929 . S
C1204 C1203 1.363 . S
C1204 C1210 1.428 . S
H1205 C1201 0.930 . S
H1206 C1203 0.929 . S
S1207 N1208 1.613 . S
S1207 N1209 1.610 . S
N1208 S1207 1.613 . S
N1208 C1211 1.350 . S
N1209 S1207 1.610 . S
N1209 C1210 1.351 . S
C1210 C1204 1.428 . S
C1210 N1209 1.351 . S
C1210 C1211 1.434 . S
C1211 C1202 1.429 . S
C1211 N1208 1.350 . S
C1211 C1210 1.434 . S
C1212 C1213 1.369 . S
C1212 C1214 1.419 . S
C1212 H1216 0.930 . S
C1213 C1212 1.369 . S
C1213 C1222 1.429 . S
C1214 C1212 1.419 . S
C1214 C1215 1.363 . S
C1214 H1217 0.929 . S
C1215 C1214 1.363 . S
C1215 C1221 1.428 . S
H1216 C1212 0.930 . S
H1217 C1214 0.929 . S
S1218 N1219 1.613 . S
S1218 N1220 1.610 . S
N1219 S1218 1.613 . S
N1219 C1222 1.350 . S
N1220 S1218 1.610 . S
N1220 C1221 1.351 . S
C1221 C1215 1.428 . S
C1221 N1220 1.351 . S
C1221 C1222 1.434 . S
C1222 C1213 1.429 . S
C1222 N1219 1.350 . S
C1222 C1221 1.434 . S
C1223 C1224 1.369 . S
C1223 C1225 1.419 . S
C1223 H1227 0.930 . S
C1224 C1223 1.369 . S
C1224 C1233 1.429 . S
C1225 C1223 1.419 . S
C1225 C1226 1.363 . S
C1225 H1228 0.929 . S
C1226 C1225 1.363 . S
C1226 C1232 1.428 . S
H1227 C1223 0.930 . S
H1228 C1225 0.929 . S
S1229 N1230 1.613 . S
S1229 N1231 1.610 . S
N1230 S1229 1.613 . S
N1230 C1233 1.350 . S
N1231 S1229 1.610 . S
N1231 C1232 1.351 . S
C1232 C1226 1.428 . S
C1232 N1231 1.351 . S
C1232 C1233 1.434 . S
C1233 C1224 1.429 . S
C1233 N1230 1.350 . S
C1233 C1232 1.434 . S
C1234 C1235 1.369 . S
C1234 C1236 1.419 . S
C1234 H1238 0.930 . S
C1235 C1234 1.369 . S
C1235 C1244 1.429 . S
C1236 C1234 1.419 . S
C1236 C1237 1.363 . S
C1236 H1239 0.929 . S
C1237 C1236 1.363 . S
C1237 C1243 1.428 . S
H1238 C1234 0.930 . S
H1239 C1236 0.929 . S
S1240 N1241 1.613 . S
S1240 N1242 1.610 . S
N1241 S1240 1.613 . S
N1241 C1244 1.350 . S
N1242 S1240 1.610 . S
N1242 C1243 1.351 . S
C1243 C1237 1.428 . S
C1243 N1242 1.351 . S
C1243 C1244 1.434 . S
C1244 C1235 1.429 . S
C1244 N1241 1.350 . S
C1244 C1243 1.434 . S
C1245 C1246 1.369 . S
C1245 C1247 1.419 . S
C1245 H1249 0.930 . S
C1246 C1245 1.369 . S
C1246 C1255 1.429 . S
C1247 C1245 1.419 . S
C1247 C1248 1.363 . S
C1247 H1250 0.929 . S
C1248 C1247 1.363 . S
C1248 C1254 1.428 . S
H1249 C1245 0.930 . S
H1250 C1247 0.929 . S
S1251 N1252 1.613 . S
S1251 N1253 1.610 . S
N1252 S1251 1.613 . S
N1252 C1255 1.350 . S
N1253 S1251 1.610 . S
N1253 C1254 1.351 . S
C1254 C1248 1.428 . S
C1254 N1253 1.351 . S
C1254 C1255 1.434 . S
C1255 C1246 1.429 . S
C1255 N1252 1.350 . S
C1255 C1254 1.434 . S
C1256 C1257 1.369 . S
C1256 C1258 1.419 . S
C1256 H1260 0.930 . S
C1257 C1256 1.369 . S
C1257 C1266 1.429 . S
C1258 C1256 1.419 . S
C1258 C1259 1.363 . S
C1258 H1261 0.929 . S
C1259 C1258 1.363 . S
C1259 C1265 1.428 . S
H1260 C1256 0.930 . S
H1261 C1258 0.929 . S
S1262 N1263 1.613 . S
S1262 N1264 1.610 . S
N1263 S1262 1.613 . S
N1263 C1266 1.350 . S
N1264 S1262 1.610 . S
N1264 C1265 1.351 . S
C1265 C1259 1.428 . S
C1265 N1264 1.351 . S
C1265 C1266 1.434 . S
C1266 C1257 1.429 . S
C1266 N1263 1.350 . S
C1266 C1265 1.434 . S
C1267 C1268 1.369 . S
C1267 C1269 1.419 . S
C1267 H1271 0.930 . S
C1268 C1267 1.369 . S
C1268 C1277 1.429 . S
C1269 C1267 1.419 . S
C1269 C1270 1.363 . S
C1269 H1272 0.929 . S
C1270 C1269 1.363 . S
C1270 C1276 1.428 . S
H1271 C1267 0.930 . S
H1272 C1269 0.929 . S
S1273 N1274 1.613 . S
S1273 N1275 1.610 . S
N1274 S1273 1.613 . S
N1274 C1277 1.350 . S
N1275 S1273 1.610 . S
N1275 C1276 1.351 . S
C1276 C1270 1.428 . S
C1276 N1275 1.351 . S
C1276 C1277 1.434 . S
C1277 C1268 1.429 . S
C1277 N1274 1.350 . S
C1277 C1276 1.434 . S
C1278 C1279 1.369 . S
C1278 C1280 1.419 . S
C1278 H1282 0.930 . S
C1279 C1278 1.369 . S
C1279 C1288 1.429 . S
C1280 C1278 1.419 . S
C1280 C1281 1.363 . S
C1280 H1283 0.929 . S
C1281 C1280 1.363 . S
C1281 C1287 1.428 . S
H1282 C1278 0.930 . S
H1283 C1280 0.929 . S
S1284 N1285 1.613 . S
S1284 N1286 1.610 . S
N1285 S1284 1.613 . S
N1285 C1288 1.350 . S
N1286 S1284 1.610 . S
N1286 C1287 1.351 . S
C1287 C1281 1.428 . S
C1287 N1286 1.351 . S
C1287 C1288 1.434 . S
C1288 C1279 1.429 . S
C1288 N1285 1.350 . S
C1288 C1287 1.434 . S
C1289 C1290 1.369 . S
C1289 C1291 1.419 . S
C1289 H1293 0.930 . S
C1290 C1289 1.369 . S
C1290 C1299 1.429 . S
C1291 C1289 1.419 . S
C1291 C1292 1.363 . S
C1291 H1294 0.929 . S
C1292 C1291 1.363 . S
C1292 C1298 1.428 . S
H1293 C1289 0.930 . S
H1294 C1291 0.929 . S
S1295 N1296 1.613 . S
S1295 N1297 1.610 . S
N1296 S1295 1.613 . S
N1296 C1299 1.350 . S
N1297 S1295 1.610 . S
N1297 C1298 1.351 . S
C1298 C1292 1.428 . S
C1298 N1297 1.351 . S
C1298 C1299 1.434 . S
C1299 C1290 1.429 . S
C1299 N1296 1.350 . S
C1299 C1298 1.434 . S
C1300 C1301 1.369 . S
C1300 C1302 1.419 . S
C1300 H1304 0.930 . S
C1301 C1300 1.369 . S
C1301 C1310 1.429 . S
C1302 C1300 1.419 . S
C1302 C1303 1.363 . S
C1302 H1305 0.929 . S
C1303 C1302 1.363 . S
C1303 C1309 1.428 . S
H1304 C1300 0.930 . S
H1305 C1302 0.929 . S
S1306 N1307 1.613 . S
S1306 N1308 1.610 . S
N1307 S1306 1.613 . S
N1307 C1310 1.350 . S
N1308 S1306 1.610 . S
N1308 C1309 1.351 . S
C1309 C1303 1.428 . S
C1309 N1308 1.351 . S
C1309 C1310 1.434 . S
C1310 C1301 1.429 . S
C1310 N1307 1.350 . S
C1310 C1309 1.434 . S
C1311 C1312 1.369 . S
C1311 C1313 1.419 . S
C1311 H1315 0.930 . S
C1312 C1311 1.369 . S
C1312 C1321 1.429 . S
C1313 C1311 1.419 . S
C1313 C1314 1.363 . S
C1313 H1316 0.929 . S
C1314 C1313 1.363 . S
C1314 C1320 1.428 . S
H1315 C1311 0.930 . S
H1316 C1313 0.929 . S
S1317 N1318 1.613 . S
S1317 N1319 1.610 . S
N1318 S1317 1.613 . S
N1318 C1321 1.350 . S
N1319 S1317 1.610 . S
N1319 C1320 1.351 . S
C1320 C1314 1.428 . S
C1320 N1319 1.351 . S
C1320 C1321 1.434 . S
C1321 C1312 1.429 . S
C1321 N1318 1.350 . S
C1321 C1320 1.434 . S
C1322 C1323 1.369 . S
C1322 C1324 1.419 . S
C1322 H1326 0.930 . S
C1323 C1322 1.369 . S
C1323 C1332 1.429 . S
C1324 C1322 1.419 . S
C1324 C1325 1.363 . S
C1324 H1327 0.929 . S
C1325 C1324 1.363 . S
C1325 C1331 1.428 . S
H1326 C1322 0.930 . S
H1327 C1324 0.929 . S
S1328 N1329 1.613 . S
S1328 N1330 1.610 . S
N1329 S1328 1.613 . S
N1329 C1332 1.350 . S
N1330 S1328 1.610 . S
N1330 C1331 1.351 . S
C1331 C1325 1.428 . S
C1331 N1330 1.351 . S
C1331 C1332 1.434 . S
C1332 C1323 1.429 . S
C1332 N1329 1.350 . S
C1332 C1331 1.434 . S
C1333 C1334 1.369 . S
C1333 C1335 1.419 . S
C1333 H1337 0.930 . S
C1334 C1333 1.369 . S
C1334 C1343 1.429 . S
C1335 C1333 1.419 . S
C1335 C1336 1.363 . S
C1335 H1338 0.929 . S
C1336 C1335 1.363 . S
C1336 C1342 1.428 . S
H1337 C1333 0.930 . S
H1338 C1335 0.929 . S
S1339 N1340 1.613 . S
S1339 N1341 1.610 . S
N1340 S1339 1.613 . S
N1340 C1343 1.350 . S
N1341 S1339 1.610 . S
N1341 C1342 1.351 . S
C1342 C1336 1.428 . S
C1342 N1341 1.351 . S
C1342 C1343 1.434 . S
C1343 C1334 1.429 . S
C1343 N1340 1.350 . S
C1343 C1342 1.434 . S
C1344 C1345 1.369 . S
C1344 C1346 1.419 . S
C1344 H1348 0.930 . S
C1345 C1344 1.369 . S
C1345 C1354 1.429 . S
C1346 C1344 1.419 . S
C1346 C1347 1.363 . S
C1346 H1349 0.929 . S
C1347 C1346 1.363 . S
C1347 C1353 1.428 . S
H1348 C1344 0.930 . S
H1349 C1346 0.929 . S
S1350 N1351 1.613 . S
S1350 N1352 1.610 . S
N1351 S1350 1.613 . S
N1351 C1354 1.350 . S
N1352 S1350 1.610 . S
N1352 C1353 1.351 . S
C1353 C1347 1.428 . S
C1353 N1352 1.351 . S
C1353 C1354 1.434 . S
C1354 C1345 1.429 . S
C1354 N1351 1.350 . S
C1354 C1353 1.434 . S
C1355 C1356 1.369 . S
C1355 C1357 1.419 . S
C1355 H1359 0.930 . S
C1356 C1355 1.369 . S
C1356 C1365 1.429 . S
C1357 C1355 1.419 . S
C1357 C1358 1.363 . S
C1357 H1360 0.929 . S
C1358 C1357 1.363 . S
C1358 C1364 1.428 . S
H1359 C1355 0.930 . S
H1360 C1357 0.929 . S
S1361 N1362 1.613 . S
S1361 N1363 1.610 . S
N1362 S1361 1.613 . S
N1362 C1365 1.350 . S
N1363 S1361 1.610 . S
N1363 C1364 1.351 . S
C1364 C1358 1.428 . S
C1364 N1363 1.351 . S
C1364 C1365 1.434 . S
C1365 C1356 1.429 . S
C1365 N1362 1.350 . S
C1365 C1364 1.434 . S
C1366 C1367 1.369 . S
C1366 C1368 1.419 . S
C1366 H1370 0.930 . S
C1367 C1366 1.369 . S
C1367 C1376 1.429 . S
C1368 C1366 1.419 . S
C1368 C1369 1.363 . S
C1368 H1371 0.929 . S
C1369 C1368 1.363 . S
C1369 C1375 1.428 . S
H1370 C1366 0.930 . S
H1371 C1368 0.929 . S
S1372 N1373 1.613 . S
S1372 N1374 1.610 . S
N1373 S1372 1.613 . S
N1373 C1376 1.350 . S
N1374 S1372 1.610 . S
N1374 C1375 1.351 . S
C1375 C1369 1.428 . S
C1375 N1374 1.351 . S
C1375 C1376 1.434 . S
C1376 C1367 1.429 . S
C1376 N1373 1.350 . S
C1376 C1375 1.434 . S
C1377 C1378 1.369 . S
C1377 C1379 1.419 . S
C1377 H1381 0.930 . S
C1378 C1377 1.369 . S
C1378 C1387 1.429 . S
C1379 C1377 1.419 . S
C1379 C1380 1.363 . S
C1379 H1382 0.929 . S
C1380 C1379 1.363 . S
C1380 C1386 1.428 . S
H1381 C1377 0.930 . S
H1382 C1379 0.929 . S
S1383 N1384 1.613 . S
S1383 N1385 1.610 . S
N1384 S1383 1.613 . S
N1384 C1387 1.350 . S
N1385 S1383 1.610 . S
N1385 C1386 1.351 . S
C1386 C1380 1.428 . S
C1386 N1385 1.351 . S
C1386 C1387 1.434 . S
C1387 C1378 1.429 . S
C1387 N1384 1.350 . S
C1387 C1386 1.434 . S
C1388 C1389 1.369 . S
C1388 C1390 1.419 . S
C1388 H1392 0.930 . S
C1389 C1388 1.369 . S
C1389 C1398 1.429 . S
C1390 C1388 1.419 . S
C1390 C1391 1.363 . S
C1390 H1393 0.929 . S
C1391 C1390 1.363 . S
C1391 C1397 1.428 . S
H1392 C1388 0.930 . S
H1393 C1390 0.929 . S
S1394 N1395 1.613 . S
S1394 N1396 1.610 . S
N1395 S1394 1.613 . S
N1395 C1398 1.350 . S
N1396 S1394 1.610 . S
N1396 C1397 1.351 . S
C1397 C1391 1.428 . S
C1397 N1396 1.351 . S
C1397 C1398 1.434 . S
C1398 C1389 1.429 . S
C1398 N1395 1.350 . S
C1398 C1397 1.434 . S
C1399 C1400 1.369 . S
C1399 C1401 1.419 . S
C1399 H1403 0.930 . S
C1400 C1399 1.369 . S
C1400 C1409 1.429 . S
C1401 C1399 1.419 . S
C1401 C1402 1.363 . S
C1401 H1404 0.929 . S
C1402 C1401 1.363 . S
C1402 C1408 1.428 . S
H1403 C1399 0.930 . S
H1404 C1401 0.929 . S
S1405 N1406 1.613 . S
S1405 N1407 1.610 . S
N1406 S1405 1.613 . S
N1406 C1409 1.350 . S
N1407 S1405 1.610 . S
N1407 C1408 1.351 . S
C1408 C1402 1.428 . S
C1408 N1407 1.351 . S
C1408 C1409 1.434 . S
C1409 C1400 1.429 . S
C1409 N1406 1.350 . S
C1409 C1408 1.434 . S
C1410 C1411 1.369 . S
C1410 C1412 1.419 . S
C1410 H1414 0.930 . S
C1411 C1410 1.369 . S
C1411 C1420 1.429 . S
C1412 C1410 1.419 . S
C1412 C1413 1.363 . S
C1412 H1415 0.929 . S
C1413 C1412 1.363 . S
C1413 C1419 1.428 . S
H1414 C1410 0.930 . S
H1415 C1412 0.929 . S
S1416 N1417 1.613 . S
S1416 N1418 1.610 . S
N1417 S1416 1.613 . S
N1417 C1420 1.350 . S
N1418 S1416 1.610 . S
N1418 C1419 1.351 . S
C1419 C1413 1.428 . S
C1419 N1418 1.351 . S
C1419 C1420 1.434 . S
C1420 C1411 1.429 . S
C1420 N1417 1.350 . S
C1420 C1419 1.434 . S
C1421 C1422 1.369 . S
C1421 C1423 1.419 . S
C1421 H1425 0.930 . S
C1422 C1421 1.369 . S
C1422 C1431 1.429 . S
C1423 C1421 1.419 . S
C1423 C1424 1.363 . S
C1423 H1426 0.929 . S
C1424 C1423 1.363 . S
C1424 C1430 1.428 . S
H1425 C1421 0.930 . S
H1426 C1423 0.929 . S
S1427 N1428 1.613 . S
S1427 N1429 1.610 . S
N1428 S1427 1.613 . S
N1428 C1431 1.350 . S
N1429 S1427 1.610 . S
N1429 C1430 1.351 . S
C1430 C1424 1.428 . S
C1430 N1429 1.351 . S
C1430 C1431 1.434 . S
C1431 C1422 1.429 . S
C1431 N1428 1.350 . S
C1431 C1430 1.434 . S
C1432 C1433 1.369 . S
C1432 C1434 1.419 . S
C1432 H1436 0.930 . S
C1433 C1432 1.369 . S
C1433 C1442 1.429 . S
C1434 C1432 1.419 . S
C1434 C1435 1.363 . S
C1434 H1437 0.929 . S
C1435 C1434 1.363 . S
C1435 C1441 1.428 . S
H1436 C1432 0.930 . S
H1437 C1434 0.929 . S
S1438 N1439 1.613 . S
S1438 N1440 1.610 . S
N1439 S1438 1.613 . S
N1439 C1442 1.350 . S
N1440 S1438 1.610 . S
N1440 C1441 1.351 . S
C1441 C1435 1.428 . S
C1441 N1440 1.351 . S
C1441 C1442 1.434 . S
C1442 C1433 1.429 . S
C1442 N1439 1.350 . S
C1442 C1441 1.434 . S
C1443 C1444 1.369 . S
C1443 C1445 1.419 . S
C1443 H1447 0.930 . S
C1444 C1443 1.369 . S
C1444 C1453 1.429 . S
C1445 C1443 1.419 . S
C1445 C1446 1.363 . S
C1445 H1448 0.929 . S
C1446 C1445 1.363 . S
C1446 C1452 1.428 . S
H1447 C1443 0.930 . S
H1448 C1445 0.929 . S
S1449 N1450 1.613 . S
S1449 N1451 1.610 . S
N1450 S1449 1.613 . S
N1450 C1453 1.350 . S
N1451 S1449 1.610 . S
N1451 C1452 1.351 . S
C1452 C1446 1.428 . S
C1452 N1451 1.351 . S
C1452 C1453 1.434 . S
C1453 C1444 1.429 . S
C1453 N1450 1.350 . S
C1453 C1452 1.434 . S
C1454 C1455 1.369 . S
C1454 C1456 1.419 . S
C1454 H1458 0.930 . S
C1455 C1454 1.369 . S
C1455 C1464 1.429 . S
C1456 C1454 1.419 . S
C1456 C1457 1.363 . S
C1456 H1459 0.929 . S
C1457 C1456 1.363 . S
C1457 C1463 1.428 . S
H1458 C1454 0.930 . S
H1459 C1456 0.929 . S
S1460 N1461 1.613 . S
S1460 N1462 1.610 . S
N1461 S1460 1.613 . S
N1461 C1464 1.350 . S
N1462 S1460 1.610 . S
N1462 C1463 1.351 . S
C1463 C1457 1.428 . S
C1463 N1462 1.351 . S
C1463 C1464 1.434 . S
C1464 C1455 1.429 . S
C1464 N1461 1.350 . S
C1464 C1463 1.434 . S
C1465 C1466 1.369 . S
C1465 C1467 1.419 . S
C1465 H1469 0.930 . S
C1466 C1465 1.369 . S
C1466 C1475 1.429 . S
C1467 C1465 1.419 . S
C1467 C1468 1.363 . S
C1467 H1470 0.929 . S
C1468 C1467 1.363 . S
C1468 C1474 1.428 . S
H1469 C1465 0.930 . S
H1470 C1467 0.929 . S
S1471 N1472 1.613 . S
S1471 N1473 1.610 . S
N1472 S1471 1.613 . S
N1472 C1475 1.350 . S
N1473 S1471 1.610 . S
N1473 C1474 1.351 . S
C1474 C1468 1.428 . S
C1474 N1473 1.351 . S
C1474 C1475 1.434 . S
C1475 C1466 1.429 . S
C1475 N1472 1.350 . S
C1475 C1474 1.434 . S
C1476 C1477 1.369 . S
C1476 C1478 1.419 . S
C1476 H1480 0.930 . S
C1477 C1476 1.369 . S
C1477 C1486 1.429 . S
C1478 C1476 1.419 . S
C1478 C1479 1.363 . S
C1478 H1481 0.929 . S
C1479 C1478 1.363 . S
C1479 C1485 1.428 . S
H1480 C1476 0.930 . S
H1481 C1478 0.929 . S
S1482 N1483 1.613 . S
S1482 N1484 1.610 . S
N1483 S1482 1.613 . S
N1483 C1486 1.350 . S
N1484 S1482 1.610 . S
N1484 C1485 1.351 . S
C1485 C1479 1.428 . S
C1485 N1484 1.351 . S
C1485 C1486 1.434 . S
C1486 C1477 1.429 . S
C1486 N1483 1.350 . S
C1486 C1485 1.434 . S
C1487 C1488 1.369 . S
C1487 C1489 1.419 . S
C1487 H1491 0.930 . S
C1488 C1487 1.369 . S
C1488 C1497 1.429 . S
C1489 C1487 1.419 . S
C1489 C1490 1.363 . S
C1489 H1492 0.929 . S
C1490 C1489 1.363 . S
C1490 C1496 1.428 . S
H1491 C1487 0.930 . S
H1492 C1489 0.929 . S
S1493 N1494 1.613 . S
S1493 N1495 1.610 . S
N1494 S1493 1.613 . S
N1494 C1497 1.350 . S
N1495 S1493 1.610 . S
N1495 C1496 1.351 . S
C1496 C1490 1.428 . S
C1496 N1495 1.351 . S
C1496 C1497 1.434 . S
C1497 C1488 1.429 . S
C1497 N1494 1.350 . S
C1497 C1496 1.434 . S
C1498 C1499 1.369 . S
C1498 C1500 1.419 . S
C1498 H1502 0.930 . S
C1499 C1498 1.369 . S
C1499 C1508 1.429 . S
C1500 C1498 1.419 . S
C1500 C1501 1.363 . S
C1500 H1503 0.929 . S
C1501 C1500 1.363 . S
C1501 C1507 1.428 . S
H1502 C1498 0.930 . S
H1503 C1500 0.929 . S
S1504 N1505 1.613 . S
S1504 N1506 1.610 . S
N1505 S1504 1.613 . S
N1505 C1508 1.350 . S
N1506 S1504 1.610 . S
N1506 C1507 1.351 . S
C1507 C1501 1.428 . S
C1507 N1506 1.351 . S
C1507 C1508 1.434 . S
C1508 C1499 1.429 . S
C1508 N1505 1.350 . S
C1508 C1507 1.434 . S
C1509 C1510 1.369 . S
C1509 C1511 1.419 . S
C1509 H1513 0.930 . S
C1510 C1509 1.369 . S
C1510 C1519 1.429 . S
C1511 C1509 1.419 . S
C1511 C1512 1.363 . S
C1511 H1514 0.929 . S
C1512 C1511 1.363 . S
C1512 C1518 1.428 . S
H1513 C1509 0.930 . S
H1514 C1511 0.929 . S
S1515 N1516 1.613 . S
S1515 N1517 1.610 1_554 S
N1516 S1515 1.613 . S
N1516 C1519 1.350 1_554 S
N1517 S1515 1.610 1_556 S
N1517 C1518 1.351 . S
C1518 C1512 1.428 . S
C1518 N1517 1.351 . S
C1518 C1519 1.434 . S
C1519 C1510 1.429 . S
C1519 N1516 1.350 1_556 S
C1519 C1518 1.434 . S
C1520 C1521 1.369 . S
C1520 C1522 1.419 . S
C1520 H1524 0.930 1_556 S
C1521 C1520 1.369 . S
C1521 C1530 1.429 . S
C1522 C1520 1.419 . S
C1522 C1523 1.363 . S
C1522 H1525 0.929 . S
C1523 C1522 1.363 . S
C1523 C1529 1.428 . S
H1524 C1520 0.930 1_554 S
H1525 C1522 0.929 . S
S1526 N1527 1.613 . S
S1526 N1528 1.610 . S
N1527 S1526 1.613 . S
N1527 C1530 1.350 . S
N1528 S1526 1.610 . S
N1528 C1529 1.351 . S
C1529 C1523 1.428 . S
C1529 N1528 1.351 . S
C1529 C1530 1.434 . S
C1530 C1521 1.429 . S
C1530 N1527 1.350 . S
C1530 C1529 1.434 . S
C1531 C1532 1.369 . S
C1531 C1533 1.419 . S
C1531 H1535 0.930 1_556 S
C1532 C1531 1.369 . S
C1532 C1541 1.429 . S
C1533 C1531 1.419 . S
C1533 C1534 1.363 . S
C1533 H1536 0.929 . S
C1534 C1533 1.363 . S
C1534 C1540 1.428 . S
H1535 C1531 0.930 1_554 S
H1536 C1533 0.929 . S
S1537 N1538 1.613 . S
S1537 N1539 1.610 . S
N1538 S1537 1.613 . S
N1538 C1541 1.350 . S
N1539 S1537 1.610 . S
N1539 C1540 1.351 . S
C1540 C1534 1.428 . S
C1540 N1539 1.351 . S
C1540 C1541 1.434 . S
C1541 C1532 1.429 . S
C1541 N1538 1.350 . S
C1541 C1540 1.434 . S
C1542 C1543 1.369 . S
C1542 C1544 1.419 . S
C1542 H1546 0.930 . S
C1543 C1542 1.369 . S
C1543 C1552 1.429 . S
C1544 C1542 1.419 . S
C1544 C1545 1.363 . S
C1544 H1547 0.929 . S
C1545 C1544 1.363 . S
C1545 C1551 1.428 . S
H1546 C1542 0.930 . S
H1547 C1544 0.929 . S
S1548 N1549 1.613 . S
S1548 N1550 1.610 1_554 S
N1549 S1548 1.613 . S
N1549 C1552 1.350 1_554 S
N1550 S1548 1.610 1_556 S
N1550 C1551 1.351 . S
C1551 C1545 1.428 . S
C1551 N1550 1.351 . S
C1551 C1552 1.434 . S
C1552 C1543 1.429 . S
C1552 N1549 1.350 1_556 S
C1552 C1551 1.434 . S
C1553 C1554 1.369 . S
C1553 C1555 1.419 . S
C1553 H1557 0.930 . S
C1554 C1553 1.369 . S
C1554 C1563 1.429 . S
C1555 C1553 1.419 . S
C1555 C1556 1.363 . S
C1555 H1558 0.929 . S
C1556 C1555 1.363 . S
C1556 C1562 1.428 . S
H1557 C1553 0.930 . S
H1558 C1555 0.929 . S
S1559 N1560 1.613 . S
S1559 N1561 1.610 1_554 S
N1560 S1559 1.613 . S
N1560 C1563 1.350 1_554 S
N1561 S1559 1.610 1_556 S
N1561 C1562 1.351 . S
C1562 C1556 1.428 . S
C1562 N1561 1.351 . S
C1562 C1563 1.434 . S
C1563 C1554 1.429 . S
C1563 N1560 1.350 1_556 S
C1563 C1562 1.434 . S
C1564 C1565 1.369 . S
C1564 C1566 1.419 . S
C1564 H1568 0.930 1_556 S
C1565 C1564 1.369 . S
C1565 C1574 1.429 . S
C1566 C1564 1.419 . S
C1566 C1567 1.363 . S
C1566 H1569 0.929 . S
C1567 C1566 1.363 . S
C1567 C1573 1.428 . S
H1568 C1564 0.930 1_554 S
H1569 C1566 0.929 . S
S1570 N1571 1.613 . S
S1570 N1572 1.610 . S
N1571 S1570 1.613 . S
N1571 C1574 1.350 . S
N1572 S1570 1.610 . S
N1572 C1573 1.351 . S
C1573 C1567 1.428 . S
C1573 N1572 1.351 . S
C1573 C1574 1.434 . S
C1574 C1565 1.429 . S
C1574 N1571 1.350 . S
C1574 C1573 1.434 . S
C1575 C1576 1.369 . S
C1575 C1577 1.419 . S
C1575 H1579 0.930 . S
C1576 C1575 1.369 . S
C1576 C1585 1.429 . S
C1577 C1575 1.419 . S
C1577 C1578 1.363 . S
C1577 H1580 0.929 . S
C1578 C1577 1.363 . S
C1578 C1584 1.428 . S
H1579 C1575 0.930 . S
H1580 C1577 0.929 . S
S1581 N1582 1.613 . S
S1581 N1583 1.610 . S
N1582 S1581 1.613 . S
N1582 C1585 1.350 . S
N1583 S1581 1.610 . S
N1583 C1584 1.351 . S
C1584 C1578 1.428 . S
C1584 N1583 1.351 . S
C1584 C1585 1.434 . S
C1585 C1576 1.429 . S
C1585 N1582 1.350 . S
C1585 C1584 1.434 . S
C1586 C1587 1.369 . S
C1586 C1588 1.419 . S
C1586 H1590 0.930 . S
C1587 C1586 1.369 . S
C1587 C1596 1.429 . S
C1588 C1586 1.419 . S
C1588 C1589 1.363 . S
C1588 H1591 0.929 . S
C1589 C1588 1.363 . S
C1589 C1595 1.428 . S
H1590 C1586 0.930 . S
H1591 C1588 0.929 . S
S1592 N1593 1.613 1_556 S
S1592 N1594 1.610 1_556 S
N1593 S1592 1.613 1_554 S
N1593 C1596 1.350 . S
N1594 S1592 1.610 1_554 S
N1594 C1595 1.351 . S
C1595 C1589 1.428 . S
C1595 N1594 1.351 . S
C1595 C1596 1.434 . S
C1596 C1587 1.429 . S
C1596 N1593 1.350 . S
C1596 C1595 1.434 . S
C1597 C1598 1.369 . S
C1597 C1599 1.419 . S
C1597 H1601 0.930 . S
C1598 C1597 1.369 . S
C1598 C1607 1.429 . S
C1599 C1597 1.419 . S
C1599 C1600 1.363 . S
C1599 H1602 0.929 . S
C1600 C1599 1.363 . S
C1600 C1606 1.428 . S
H1601 C1597 0.930 . S
H1602 C1599 0.929 . S
S1603 N1604 1.613 . S
S1603 N1605 1.610 . S
N1604 S1603 1.613 . S
N1604 C1607 1.350 . S
N1605 S1603 1.610 . S
N1605 C1606 1.351 . S
C1606 C1600 1.428 . S
C1606 N1605 1.351 . S
C1606 C1607 1.434 . S
C1607 C1598 1.429 . S
C1607 N1604 1.350 . S
C1607 C1606 1.434 . S
C1608 C1609 1.369 . S
C1608 C1610 1.419 . S
C1608 H1612 0.930 . S
C1609 C1608 1.369 . S
C1609 C1618 1.429 . S
C1610 C1608 1.419 . S
C1610 C1611 1.363 . S
C1610 H1613 0.929 . S
C1611 C1610 1.363 . S
C1611 C1617 1.428 . S
H1612 C1608 0.930 . S
H1613 C1610 0.929 . S
S1614 N1615 1.613 . S
S1614 N1616 1.610 . S
N1615 S1614 1.613 . S
N1615 C1618 1.350 . S
N1616 S1614 1.610 . S
N1616 C1617 1.351 . S
C1617 C1611 1.428 . S
C1617 N1616 1.351 . S
C1617 C1618 1.434 . S
C1618 C1609 1.429 . S
C1618 N1615 1.350 . S
C1618 C1617 1.434 . S
C1619 C1620 1.369 . S
C1619 C1621 1.419 . S
C1619 H1623 0.930 . S
C1620 C1619 1.369 . S
C1620 C1629 1.429 . S
C1621 C1619 1.419 . S
C1621 C1622 1.363 . S
C1621 H1624 0.929 . S
C1622 C1621 1.363 . S
C1622 C1628 1.428 . S
H1623 C1619 0.930 . S
H1624 C1621 0.929 . S
S1625 N1626 1.613 . S
S1625 N1627 1.610 . S
N1626 S1625 1.613 . S
N1626 C1629 1.350 . S
N1627 S1625 1.610 . S
N1627 C1628 1.351 . S
C1628 C1622 1.428 . S
C1628 N1627 1.351 . S
C1628 C1629 1.434 . S
C1629 C1620 1.429 . S
C1629 N1626 1.350 . S
C1629 C1628 1.434 . S
C1630 C1631 1.369 . S
C1630 C1632 1.419 . S
C1630 H1634 0.930 . S
C1631 C1630 1.369 . S
C1631 C1640 1.429 . S
C1632 C1630 1.419 . S
C1632 C1633 1.363 . S
C1632 H1635 0.929 . S
C1633 C1632 1.363 . S
C1633 C1639 1.428 . S
H1634 C1630 0.930 . S
H1635 C1632 0.929 . S
S1636 N1637 1.613 . S
S1636 N1638 1.610 . S
N1637 S1636 1.613 . S
N1637 C1640 1.350 . S
N1638 S1636 1.610 . S
N1638 C1639 1.351 . S
C1639 C1633 1.428 . S
C1639 N1638 1.351 . S
C1639 C1640 1.434 . S
C1640 C1631 1.429 . S
C1640 N1637 1.350 . S
C1640 C1639 1.434 . S
C1641 C1642 1.369 . S
C1641 C1643 1.419 . S
C1641 H1645 0.930 . S
C1642 C1641 1.369 . S
C1642 C1651 1.429 . S
C1643 C1641 1.419 . S
C1643 C1644 1.363 . S
C1643 H1646 0.929 . S
C1644 C1643 1.363 . S
C1644 C1650 1.428 . S
H1645 C1641 0.930 . S
H1646 C1643 0.929 . S
S1647 N1648 1.613 . S
S1647 N1649 1.610 . S
N1648 S1647 1.613 . S
N1648 C1651 1.350 . S
N1649 S1647 1.610 . S
N1649 C1650 1.351 . S
C1650 C1644 1.428 . S
C1650 N1649 1.351 . S
C1650 C1651 1.434 . S
C1651 C1642 1.429 . S
C1651 N1648 1.350 . S
C1651 C1650 1.434 . S
C1652 C1653 1.369 . S
C1652 C1654 1.419 . S
C1652 H1656 0.930 . S
C1653 C1652 1.369 . S
C1653 C1662 1.429 . S
C1654 C1652 1.419 . S
C1654 C1655 1.363 . S
C1654 H1657 0.929 . S
C1655 C1654 1.363 . S
C1655 C1661 1.428 . S
H1656 C1652 0.930 . S
H1657 C1654 0.929 . S
S1658 N1659 1.613 . S
S1658 N1660 1.610 . S
N1659 S1658 1.613 . S
N1659 C1662 1.350 . S
N1660 S1658 1.610 . S
N1660 C1661 1.351 . S
C1661 C1655 1.428 . S
C1661 N1660 1.351 . S
C1661 C1662 1.434 . S
C1662 C1653 1.429 . S
C1662 N1659 1.350 . S
C1662 C1661 1.434 . S
C1663 C1664 1.369 . S
C1663 C1665 1.419 1_565 S
C1663 H1667 0.930 1_565 S
C1664 C1663 1.369 . S
C1664 C1673 1.429 . S
C1665 C1663 1.419 1_545 S
C1665 C1666 1.363 1_545 S
C1665 H1668 0.929 . S
C1666 C1665 1.363 1_565 S
C1666 C1672 1.428 . S
H1667 C1663 0.930 1_545 S
H1668 C1665 0.929 . S
S1669 N1670 1.613 . S
S1669 N1671 1.610 . S
N1670 S1669 1.613 . S
N1670 C1673 1.350 . S
N1671 S1669 1.610 . S
N1671 C1672 1.351 . S
C1672 C1666 1.428 . S
C1672 N1671 1.351 . S
C1672 C1673 1.434 . S
C1673 C1664 1.429 . S
C1673 N1670 1.350 . S
C1673 C1672 1.434 . S
C1674 C1675 1.369 . S
C1674 C1676 1.419 . S
C1674 H1678 0.930 . S
C1675 C1674 1.369 . S
C1675 C1684 1.429 . S
C1676 C1674 1.419 . S
C1676 C1677 1.363 . S
C1676 H1679 0.929 . S
C1677 C1676 1.363 . S
C1677 C1683 1.428 . S
H1678 C1674 0.930 . S
H1679 C1676 0.929 . S
S1680 N1681 1.613 . S
S1680 N1682 1.610 . S
N1681 S1680 1.613 . S
N1681 C1684 1.350 . S
N1682 S1680 1.610 . S
N1682 C1683 1.351 . S
C1683 C1677 1.428 . S
C1683 N1682 1.351 . S
C1683 C1684 1.434 . S
C1684 C1675 1.429 . S
C1684 N1681 1.350 . S
C1684 C1683 1.434 . S
C1685 C1686 1.369 . S
C1685 C1687 1.419 . S
C1685 H1689 0.930 . S
C1686 C1685 1.369 . S
C1686 C1695 1.429 1_455 S
C1687 C1685 1.419 . S
C1687 C1688 1.363 . S
C1687 H1690 0.929 . S
C1688 C1687 1.363 . S
C1688 C1694 1.428 1_455 S
H1689 C1685 0.930 . S
H1690 C1687 0.929 . S
S1691 N1692 1.613 . S
S1691 N1693 1.610 . S
N1692 S1691 1.613 . S
N1692 C1695 1.350 . S
N1693 S1691 1.610 . S
N1693 C1694 1.351 . S
C1694 C1688 1.428 1_655 S
C1694 N1693 1.351 . S
C1694 C1695 1.434 . S
C1695 C1686 1.429 1_655 S
C1695 N1692 1.350 . S
C1695 C1694 1.434 . S
C1696 C1697 1.369 . S
C1696 C1698 1.419 . S
C1696 H1700 0.930 . S
C1697 C1696 1.369 . S
C1697 C1706 1.429 . S
C1698 C1696 1.419 . S
C1698 C1699 1.363 . S
C1698 H1701 0.929 . S
C1699 C1698 1.363 . S
C1699 C1705 1.428 . S
H1700 C1696 0.930 . S
H1701 C1698 0.929 . S
S1702 N1703 1.613 . S
S1702 N1704 1.610 . S
N1703 S1702 1.613 . S
N1703 C1706 1.350 . S
N1704 S1702 1.610 . S
N1704 C1705 1.351 . S
C1705 C1699 1.428 . S
C1705 N1704 1.351 . S
C1705 C1706 1.434 . S
C1706 C1697 1.429 . S
C1706 N1703 1.350 . S
C1706 C1705 1.434 . S
C1707 C1708 1.369 . S
C1707 C1709 1.419 . S
C1707 H1711 0.930 . S
C1708 C1707 1.369 . S
C1708 C1717 1.429 . S
C1709 C1707 1.419 . S
C1709 C1710 1.363 . S
C1709 H1712 0.929 . S
C1710 C1709 1.363 . S
C1710 C1716 1.428 . S
H1711 C1707 0.930 . S
H1712 C1709 0.929 . S
S1713 N1714 1.613 . S
S1713 N1715 1.610 . S
N1714 S1713 1.613 . S
N1714 C1717 1.350 . S
N1715 S1713 1.610 . S
N1715 C1716 1.351 . S
C1716 C1710 1.428 . S
C1716 N1715 1.351 . S
C1716 C1717 1.434 . S
C1717 C1708 1.429 . S
C1717 N1714 1.350 . S
C1717 C1716 1.434 . S
C1718 C1719 1.369 . S
C1718 C1720 1.419 . S
C1718 H1722 0.930 . S
C1719 C1718 1.369 . S
C1719 C1728 1.429 . S
C1720 C1718 1.419 . S
C1720 C1721 1.363 . S
C1720 H1723 0.929 . S
C1721 C1720 1.363 . S
C1721 C1727 1.428 . S
H1722 C1718 0.930 . S
H1723 C1720 0.929 . S
S1724 N1725 1.613 . S
S1724 N1726 1.610 . S
N1725 S1724 1.613 . S
N1725 C1728 1.350 . S
N1726 S1724 1.610 . S
N1726 C1727 1.351 . S
C1727 C1721 1.428 . S
C1727 N1726 1.351 . S
C1727 C1728 1.434 . S
C1728 C1719 1.429 . S
C1728 N1725 1.350 . S
C1728 C1727 1.434 . S
C1729 C1730 1.369 . S
C1729 C1731 1.419 . S
C1729 H1733 0.930 . S
C1730 C1729 1.369 . S
C1730 C1739 1.429 . S
C1731 C1729 1.419 . S
C1731 C1732 1.363 . S
C1731 H1734 0.929 . S
C1732 C1731 1.363 . S
C1732 C1738 1.428 . S
H1733 C1729 0.930 . S
H1734 C1731 0.929 . S
S1735 N1736 1.613 . S
S1735 N1737 1.610 . S
N1736 S1735 1.613 . S
N1736 C1739 1.350 . S
N1737 S1735 1.610 . S
N1737 C1738 1.351 . S
C1738 C1732 1.428 . S
C1738 N1737 1.351 . S
C1738 C1739 1.434 . S
C1739 C1730 1.429 . S
C1739 N1736 1.350 . S
C1739 C1738 1.434 . S
C1740 C1741 1.369 . S
C1740 C1742 1.419 . S
C1740 H1744 0.930 . S
C1741 C1740 1.369 . S
C1741 C1750 1.429 . S
C1742 C1740 1.419 . S
C1742 C1743 1.363 . S
C1742 H1745 0.929 . S
C1743 C1742 1.363 . S
C1743 C1749 1.428 . S
H1744 C1740 0.930 . S
H1745 C1742 0.929 . S
S1746 N1747 1.613 . S
S1746 N1748 1.610 . S
N1747 S1746 1.613 . S
N1747 C1750 1.350 . S
N1748 S1746 1.610 . S
N1748 C1749 1.351 . S
C1749 C1743 1.428 . S
C1749 N1748 1.351 . S
C1749 C1750 1.434 . S
C1750 C1741 1.429 . S
C1750 N1747 1.350 . S
C1750 C1749 1.434 . S
C1751 C1752 1.369 . S
C1751 C1753 1.419 . S
C1751 H1755 0.930 . S
C1752 C1751 1.369 . S
C1752 C1761 1.429 . S
C1753 C1751 1.419 . S
C1753 C1754 1.363 . S
C1753 H1756 0.929 1_655 S
C1754 C1753 1.363 . S
C1754 C1760 1.428 . S
H1755 C1751 0.930 . S
H1756 C1753 0.929 1_455 S
S1757 N1758 1.613 . S
S1757 N1759 1.610 . S
N1758 S1757 1.613 . S
N1758 C1761 1.350 . S
N1759 S1757 1.610 . S
N1759 C1760 1.351 . S
C1760 C1754 1.428 . S
C1760 N1759 1.351 . S
C1760 C1761 1.434 . S
C1761 C1752 1.429 . S
C1761 N1758 1.350 . S
C1761 C1760 1.434 . S
C1762 C1763 1.369 . S
C1762 C1764 1.419 . S
C1762 H1766 0.930 . S
C1763 C1762 1.369 . S
C1763 C1772 1.429 . S
C1764 C1762 1.419 . S
C1764 C1765 1.363 . S
C1764 H1767 0.929 . S
C1765 C1764 1.363 . S
C1765 C1771 1.428 . S
H1766 C1762 0.930 . S
H1767 C1764 0.929 . S
S1768 N1769 1.613 . S
S1768 N1770 1.610 . S
N1769 S1768 1.613 . S
N1769 C1772 1.350 . S
N1770 S1768 1.610 . S
N1770 C1771 1.351 . S
C1771 C1765 1.428 . S
C1771 N1770 1.351 . S
C1771 C1772 1.434 . S
C1772 C1763 1.429 . S
C1772 N1769 1.350 . S
C1772 C1771 1.434 . S
C1773 C1774 1.369 . S
C1773 C1775 1.419 . S
C1773 H1777 0.930 . S
C1774 C1773 1.369 . S
C1774 C1783 1.429 . S
C1775 C1773 1.419 . S
C1775 C1776 1.363 . S
C1775 H1778 0.929 . S
C1776 C1775 1.363 . S
C1776 C1782 1.428 . S
H1777 C1773 0.930 . S
H1778 C1775 0.929 . S
S1779 N1780 1.613 . S
S1779 N1781 1.610 . S
N1780 S1779 1.613 . S
N1780 C1783 1.350 . S
N1781 S1779 1.610 . S
N1781 C1782 1.351 . S
C1782 C1776 1.428 . S
C1782 N1781 1.351 . S
C1782 C1783 1.434 . S
C1783 C1774 1.429 . S
C1783 N1780 1.350 . S
C1783 C1782 1.434 . S
C1784 C1785 1.369 . S
C1784 C1786 1.419 . S
C1784 H1788 0.930 . S
C1785 C1784 1.369 . S
C1785 C1794 1.429 . S
C1786 C1784 1.419 . S
C1786 C1787 1.363 . S
C1786 H1789 0.929 . S
C1787 C1786 1.363 . S
C1787 C1793 1.428 . S
H1788 C1784 0.930 . S
H1789 C1786 0.929 . S
S1790 N1791 1.613 . S
S1790 N1792 1.610 . S
N1791 S1790 1.613 . S
N1791 C1794 1.350 . S
N1792 S1790 1.610 . S
N1792 C1793 1.351 . S
C1793 C1787 1.428 . S
C1793 N1792 1.351 . S
C1793 C1794 1.434 . S
C1794 C1785 1.429 . S
C1794 N1791 1.350 . S
C1794 C1793 1.434 . S
C1795 C1796 1.369 . S
C1795 C1797 1.419 . S
C1795 H1799 0.930 . S
C1796 C1795 1.369 . S
C1796 C1805 1.429 . S
C1797 C1795 1.419 . S
C1797 C1798 1.363 . S
C1797 H1800 0.929 . S
C1798 C1797 1.363 . S
C1798 C1804 1.428 . S
H1799 C1795 0.930 . S
H1800 C1797 0.929 . S
S1801 N1802 1.613 . S
S1801 N1803 1.610 . S
N1802 S1801 1.613 . S
N1802 C1805 1.350 . S
N1803 S1801 1.610 . S
N1803 C1804 1.351 . S
C1804 C1798 1.428 . S
C1804 N1803 1.351 . S
C1804 C1805 1.434 . S
C1805 C1796 1.429 . S
C1805 N1802 1.350 . S
C1805 C1804 1.434 . S
C1806 C1807 1.369 . S
C1806 C1808 1.419 . S
C1806 H1810 0.930 . S
C1807 C1806 1.369 . S
C1807 C1816 1.429 . S
C1808 C1806 1.419 . S
C1808 C1809 1.363 . S
C1808 H1811 0.929 . S
C1809 C1808 1.363 . S
C1809 C1815 1.428 . S
H1810 C1806 0.930 . S
H1811 C1808 0.929 . S
S1812 N1813 1.613 . S
S1812 N1814 1.610 . S
N1813 S1812 1.613 . S
N1813 C1816 1.350 . S
N1814 S1812 1.610 . S
N1814 C1815 1.351 . S
C1815 C1809 1.428 . S
C1815 N1814 1.351 . S
C1815 C1816 1.434 . S
C1816 C1807 1.429 . S
C1816 N1813 1.350 . S
C1816 C1815 1.434 . S
C1817 C1818 1.369 . S
C1817 C1819 1.419 . S
C1817 H1821 0.930 . S
C1818 C1817 1.369 . S
C1818 C1827 1.429 . S
C1819 C1817 1.419 . S
C1819 C1820 1.363 . S
C1819 H1822 0.929 . S
C1820 C1819 1.363 . S
C1820 C1826 1.428 . S
H1821 C1817 0.930 . S
H1822 C1819 0.929 . S
S1823 N1824 1.613 . S
S1823 N1825 1.610 . S
N1824 S1823 1.613 . S
N1824 C1827 1.350 . S
N1825 S1823 1.610 . S
N1825 C1826 1.351 . S
C1826 C1820 1.428 . S
C1826 N1825 1.351 . S
C1826 C1827 1.434 . S
C1827 C1818 1.429 . S
C1827 N1824 1.350 . S
C1827 C1826 1.434 . S
C1828 C1829 1.369 . S
C1828 C1830 1.419 . S
C1828 H1832 0.930 . S
C1829 C1828 1.369 . S
C1829 C1838 1.429 . S
C1830 C1828 1.419 . S
C1830 C1831 1.363 . S
C1830 H1833 0.929 . S
C1831 C1830 1.363 . S
C1831 C1837 1.428 . S
H1832 C1828 0.930 . S
H1833 C1830 0.929 . S
S1834 N1835 1.613 . S
S1834 N1836 1.610 . S
N1835 S1834 1.613 . S
N1835 C1838 1.350 . S
N1836 S1834 1.610 . S
N1836 C1837 1.351 . S
C1837 C1831 1.428 . S
C1837 N1836 1.351 . S
C1837 C1838 1.434 . S
C1838 C1829 1.429 . S
C1838 N1835 1.350 . S
C1838 C1837 1.434 . S
C1839 C1840 1.369 . S
C1839 C1841 1.419 . S
C1839 H1843 0.930 . S
C1840 C1839 1.369 . S
C1840 C1849 1.429 . S
C1841 C1839 1.419 . S
C1841 C1842 1.363 . S
C1841 H1844 0.929 . S
C1842 C1841 1.363 . S
C1842 C1848 1.428 . S
H1843 C1839 0.930 . S
H1844 C1841 0.929 . S
S1845 N1846 1.613 1_455 S
S1845 N1847 1.610 . S
N1846 S1845 1.613 1_655 S
N1846 C1849 1.350 . S
N1847 S1845 1.610 . S
N1847 C1848 1.351 1_455 S
C1848 C1842 1.428 . S
C1848 N1847 1.351 1_655 S
C1848 C1849 1.434 . S
C1849 C1840 1.429 . S
C1849 N1846 1.350 . S
C1849 C1848 1.434 . S
C1850 C1851 1.369 . S
C1850 C1852 1.419 . S
C1850 H1854 0.930 . S
C1851 C1850 1.369 . S
C1851 C1860 1.429 . S
C1852 C1850 1.419 . S
C1852 C1853 1.363 . S
C1852 H1855 0.929 . S
C1853 C1852 1.363 . S
C1853 C1859 1.428 . S
H1854 C1850 0.930 . S
H1855 C1852 0.929 . S
S1856 N1857 1.613 . S
S1856 N1858 1.610 . S
N1857 S1856 1.613 . S
N1857 C1860 1.350 . S
N1858 S1856 1.610 . S
N1858 C1859 1.351 . S
C1859 C1853 1.428 . S
C1859 N1858 1.351 . S
C1859 C1860 1.434 . S
C1860 C1851 1.429 . S
C1860 N1857 1.350 . S
C1860 C1859 1.434 . S
C1861 C1862 1.369 1_565 S
C1861 C1863 1.419 . S
C1861 H1865 0.930 . S
C1862 C1861 1.369 1_545 S
C1862 C1871 1.429 . S
C1863 C1861 1.419 . S
C1863 C1864 1.363 1_565 S
C1863 H1866 0.929 . S
C1864 C1863 1.363 1_545 S
C1864 C1870 1.428 . S
H1865 C1861 0.930 . S
H1866 C1863 0.929 . S
S1867 N1868 1.613 . S
S1867 N1869 1.610 . S
N1868 S1867 1.613 . S
N1868 C1871 1.350 . S
N1869 S1867 1.610 . S
N1869 C1870 1.351 . S
C1870 C1864 1.428 . S
C1870 N1869 1.351 . S
C1870 C1871 1.434 . S
C1871 C1862 1.429 . S
C1871 N1868 1.350 . S
C1871 C1870 1.434 . S
C1081 C13 1.439 . S
C1083 C688 1.509 . S
C1092 C27 1.378 . S
C1094 C734 1.445 . S
C1105 C766 1.489 . S
C1103 C36 1.366 . S
C1114 C41 1.421 . S
C1116 C819 1.498 . S
C1125 C8 1.439 . S
C1127 C865 1.574 . S
C1136 C22 1.464 . S
C1138 C904 1.528 . S
C1147 C55 1.448 . S
C1149 C858 1.508 . S
C1160 C911 1.450 . S
C1158 C69 1.368 . S
C1171 C812 1.498 . S
C1169 C78 1.383 . S
C1180 C83 1.428 . S
C1182 C773 1.491 . S
C1193 C667 1.577 . S
C1191 C50 1.456 . S
C1202 C64 1.453 . S
C1204 C713 1.513 . S
C1213 C97 1.553 . S
C1215 C943 1.647 . S
C1224 C111 1.418 . S
C1226 C1010 1.498 . S
C1237 C1056 1.577 . S
C1235 C120 1.556 . S
C1246 C125 1.459 . S
C1248 C267 1.551 . S
C1257 C92 1.687 . S
C1259 C313 1.703 . S
C1268 C106 1.527 . S
C1270 C359 1.559 . S
C1279 C139 1.489 . S
C1281 C306 1.577 . S
C1290 C153 1.416 . S
C1292 C352 1.484 . S
C1303 C260 1.591 . S
C1301 C162 1.558 . S
C1314 C1035 1.608 . S
C1312 C167 1.515 . S
C1325 C964 1.709 . S
C1323 C134 1.680 . S
C1336 C989 1.578 . S
C1334 C148 1.559 . S
C1345 C181 1.503 . S
C1347 C391 1.591 . S
C1356 C195 1.420 . S
C1358 C444 1.486 . S
C1367 C204 1.564 . S
C1369 C490 1.602 . S
C1378 C209 1.514 . S
C1380 C536 1.620 . S
C1391 C589 1.703 . S
C1389 C176 1.695 . S
C1402 C635 1.577 . S
C1400 C190 1.555 . S
C1413 C582 1.641 . S
C1411 C223 1.549 . S
C1424 C628 1.506 . S
C1422 C237 1.425 . S
C1433 C246 1.554 . S
C1435 C543 1.587 . S
C1446 C497 1.554 . S
C1444 C251 1.466 . S
C1455 C218 1.683 . S
C1457 C412 1.716 . S
C1468 C451 1.574 . S
C1466 C232 1.530 . S
C1479 C274 1.584 . S
C1477 C11 1.548 . S
C1488 C25 1.467 . S
C1490 C320 1.480 . S
C1501 C366 1.556 . S
C1499 C35 1.581 . S
C1512 C398 1.584 . S
C1510 C39 1.567 . S
C1523 C437 1.614 . S
C1521 C7 1.666 . S
C1534 C483 1.491 . S
C1532 C21 1.554 . S
C1543 C53 1.557 . S
C1545 C504 1.573 . S
C1554 C67 1.455 . S
C1556 C405 1.454 . S
C1565 C77 1.570 . S
C1567 C458 1.521 . S
C1576 C81 1.587 . S
C1578 C299 1.614 . S
C1589 C345 1.637 . S
C1587 C49 1.668 . S
C1598 C63 1.553 . S
C1600 C253 1.509 . S
C1611 C529 1.508 . S
C1609 C95 1.511 . S
C1620 C109 1.523 . S
C1622 C596 1.523 . S
C1631 C119 1.600 . S
C1633 C642 1.563 . S
C1644 C681 1.327 . S
C1642 C123 1.324 . S
C1653 C91 1.587 . S
C1655 C727 1.562 . S
C1664 C105 1.307 . S
C1666 C759 1.309 . S
C1675 C137 1.353 . S
C1677 C780 1.347 . S
C1686 C151 1.242 . S
C1688 C674 1.251 . S
C1699 C720 1.481 . S
C1697 C161 1.508 . S
C1708 C165 1.547 . S
C1710 C575 1.565 . S
C1719 C133 1.668 . S
C1721 C621 1.626 . S
C1732 C550 1.556 . S
C1730 C147 1.610 . S
C1743 C826 1.367 . S
C1741 C179 1.363 . S
C1752 C193 1.240 . S
C1754 C872 1.247 . S
C1763 C203 1.502 . S
C1765 C897 1.468 . S
C1776 C950 1.531 . S
C1774 C207 1.533 . S
C1787 C1003 1.629 . S
C1785 C175 1.670 . S
C1796 C189 1.611 . S
C1798 C1049 1.576 . S
C1807 C221 1.519 . S
C1809 C1042 1.532 . S
C1818 C235 1.521 . S
C1820 C957 1.500 . S
C1831 C996 1.554 . S
C1829 C245 1.585 . S
C1842 C851 1.315 . S
C1840 C249 1.311 . S
C1853 C918 1.549 . S
C1851 C217 1.593 . S
C1862 C231 1.326 . S
C1864 C805 1.327 . S
