# Generated by pormake.
# Topology ptr, (4,4)-cn, num edge types: 1
# Building blocks:
#     Node 0, Type 0, BuildingBlock: CEKHIL_clean_sbu_0, # of connection points: 4
#     Node 1, Type 0, BuildingBlock: CEKHIL_clean_sbu_0, # of connection points: 4
#     Node 2, Type 0, BuildingBlock: CEKHIL_clean_sbu_0, # of connection points: 4
#     Node 3, Type 0, BuildingBlock: CEKHIL_clean_sbu_0, # of connection points: 4
#     Node 4, Type 0, BuildingBlock: CEKHIL_clean_sbu_0, # of connection points: 4
#     Node 5, Type 0, BuildingBlock: CEKHIL_clean_sbu_0, # of connection points: 4
#     Node 6, Type 0, BuildingBlock: CEKHIL_clean_sbu_0, # of connection points: 4
#     Node 7, Type 0, BuildingBlock: CEKHIL_clean_sbu_0, # of connection points: 4
#     Node 8, Type 0, BuildingBlock: CEKHIL_clean_sbu_0, # of connection points: 4
#     Node 9, Type 0, BuildingBlock: CEKHIL_clean_sbu_0, # of connection points: 4
#     Node 10, Type 0, BuildingBlock: CEKHIL_clean_sbu_0, # of connection points: 4
#     Node 11, Type 0, BuildingBlock: CEKHIL_clean_sbu_0, # of connection points: 4
#     Node 12, Type 0, BuildingBlock: CEKHIL_clean_sbu_0, # of connection points: 4
#     Node 13, Type 0, BuildingBlock: CEKHIL_clean_sbu_0, # of connection points: 4
#     Node 14, Type 0, BuildingBlock: CEKHIL_clean_sbu_0, # of connection points: 4
#     Node 15, Type 0, BuildingBlock: CEKHIL_clean_sbu_0, # of connection points: 4
#     Node 16, Type 0, BuildingBlock: CEKHIL_clean_sbu_0, # of connection points: 4
#     Node 17, Type 0, BuildingBlock: CEKHIL_clean_sbu_0, # of connection points: 4
#     Node 18, Type 1, BuildingBlock: GIZVER_clean_linker_0, # of connection points: 4
#     Node 19, Type 1, BuildingBlock: GIZVER_clean_linker_0, # of connection points: 4
#     Node 20, Type 1, BuildingBlock: GIZVER_clean_linker_0, # of connection points: 4
#     Node 21, Type 1, BuildingBlock: GIZVER_clean_linker_0, # of connection points: 4
#     Node 22, Type 1, BuildingBlock: GIZVER_clean_linker_0, # of connection points: 4
#     Node 23, Type 1, BuildingBlock: GIZVER_clean_linker_0, # of connection points: 4
#     Node 24, Type 1, BuildingBlock: GIZVER_clean_linker_0, # of connection points: 4
#     Node 25, Type 1, BuildingBlock: GIZVER_clean_linker_0, # of connection points: 4
#     Node 26, Type 1, BuildingBlock: GIZVER_clean_linker_0, # of connection points: 4
#     Node 27, Type 1, BuildingBlock: GIZVER_clean_linker_0, # of connection points: 4
#     Node 28, Type 1, BuildingBlock: GIZVER_clean_linker_0, # of connection points: 4
#     Node 29, Type 1, BuildingBlock: GIZVER_clean_linker_0, # of connection points: 4
#     Node 30, Type 1, BuildingBlock: GIZVER_clean_linker_0, # of connection points: 4
#     Node 31, Type 1, BuildingBlock: GIZVER_clean_linker_0, # of connection points: 4
#     Node 32, Type 1, BuildingBlock: GIZVER_clean_linker_0, # of connection points: 4
#     Node 33, Type 1, BuildingBlock: GIZVER_clean_linker_0, # of connection points: 4
#     Node 34, Type 1, BuildingBlock: GIZVER_clean_linker_0, # of connection points: 4
#     Node 35, Type 1, BuildingBlock: GIZVER_clean_linker_0, # of connection points: 4
#     Edge 36, Type (0, 1), None
#     Edge 37, Type (0, 1), None
#     Edge 38, Type (0, 1), None
#     Edge 39, Type (0, 1), None
#     Edge 40, Type (0, 1), None
#     Edge 41, Type (0, 1), None
#     Edge 42, Type (0, 1), None
#     Edge 43, Type (0, 1), None
#     Edge 44, Type (0, 1), None
#     Edge 45, Type (0, 1), None
#     Edge 46, Type (0, 1), None
#     Edge 47, Type (0, 1), None
#     Edge 48, Type (0, 1), None
#     Edge 49, Type (0, 1), None
#     Edge 50, Type (0, 1), None
#     Edge 51, Type (0, 1), None
#     Edge 52, Type (0, 1), None
#     Edge 53, Type (0, 1), None
#     Edge 54, Type (0, 1), None
#     Edge 55, Type (0, 1), None
#     Edge 56, Type (0, 1), None
#     Edge 57, Type (0, 1), None
#     Edge 58, Type (0, 1), None
#     Edge 59, Type (0, 1), None
#     Edge 60, Type (0, 1), None
#     Edge 61, Type (0, 1), None
#     Edge 62, Type (0, 1), None
#     Edge 63, Type (0, 1), None
#     Edge 64, Type (0, 1), None
#     Edge 65, Type (0, 1), None
#     Edge 66, Type (0, 1), None
#     Edge 67, Type (0, 1), None
#     Edge 68, Type (0, 1), None
#     Edge 69, Type (0, 1), None
#     Edge 70, Type (0, 1), None
#     Edge 71, Type (0, 1), None
#     Edge 72, Type (0, 1), None
#     Edge 73, Type (0, 1), None
#     Edge 74, Type (0, 1), None
#     Edge 75, Type (0, 1), None
#     Edge 76, Type (0, 1), None
#     Edge 77, Type (0, 1), None
#     Edge 78, Type (0, 1), None
#     Edge 79, Type (0, 1), None
#     Edge 80, Type (0, 1), None
#     Edge 81, Type (0, 1), None
#     Edge 82, Type (0, 1), None
#     Edge 83, Type (0, 1), None
#     Edge 84, Type (0, 1), None
#     Edge 85, Type (0, 1), None
#     Edge 86, Type (0, 1), None
#     Edge 87, Type (0, 1), None
#     Edge 88, Type (0, 1), None
#     Edge 89, Type (0, 1), None
#     Edge 90, Type (0, 1), None
#     Edge 91, Type (0, 1), None
#     Edge 92, Type (0, 1), None
#     Edge 93, Type (0, 1), None
#     Edge 94, Type (0, 1), None
#     Edge 95, Type (0, 1), None
#     Edge 96, Type (0, 1), None
#     Edge 97, Type (0, 1), None
#     Edge 98, Type (0, 1), None
#     Edge 99, Type (0, 1), None
#     Edge 100, Type (0, 1), None
#     Edge 101, Type (0, 1), None
#     Edge 102, Type (0, 1), None
#     Edge 103, Type (0, 1), None
#     Edge 104, Type (0, 1), None
#     Edge 105, Type (0, 1), None
#     Edge 106, Type (0, 1), None
#     Edge 107, Type (0, 1), None
# Relax obj value: 0.048
# Max RMSD: 0.113
# Mean RMSD: 0.078
data_MOF--net-ptr--node1-CEKHIL_clean_sbu_0--node2-GIZVER_clean_linker_0--edge1-none
_symmetry_space_group_name_H-M    P1
_symmetry_Int_Tables_number       1
_symmetry_cell_setting            triclinic
loop_
_symmetry_equiv_pos_as_xyz
'x, y, z'
_cell_length_a     37.14337
_cell_length_b     36.496415
_cell_length_c     22.936423
_cell_angle_alpha  92.428221
_cell_angle_beta   89.471873
_cell_angle_gamma 121.404
loop_
_atom_site_label
_atom_site_type_symbol
_atom_site_fract_x
_atom_site_fract_y
_atom_site_fract_z
_atom_type_partial_charge
Co0 Co 0.01171 0.36281 0.01494 0.0
O1 O 0.023 0.33612 0.07511 0.0
O2 O 0.07281 0.38756 0.02293 0.0
C3 C 0.96127 0.30229 0.97134 0.0
O4 O 0.00779 0.39521 0.94739 0.0
Co5 Co 0.92242 0.35149 0.01846 0.0
O6 O 0.94154 0.38328 0.94584 0.0
C7 C 0.98586 0.40549 0.10628 0.0
C8 C 0.06262 0.36028 0.06401 0.0
C9 C 0.97843 0.39945 0.92491 0.0
O10 O 0.01408 0.4064 0.07288 0.0
O11 O 0.94628 0.38049 0.09682 0.0
O12 O 1.00062 0.31633 0.96078 0.0
O13 O 0.95377 0.32234 0.01301 0.0
Co14 Co 0.65988 0.64743 0.01239 0.0
O15 O 0.6994 0.67789 0.95287 0.0
O16 O 0.70085 0.62935 0.00563 0.0
C17 C 0.66213 0.70505 0.05588 0.0
O18 O 0.62373 0.61123 0.07955 0.0
Co19 Co 0.57452 0.64264 0.00948 0.0
O20 O 0.56221 0.60974 0.08094 0.0
C21 C 0.59125 0.5937 0.92173 0.0
C22 C 0.71689 0.65604 0.96356 0.0
C23 C 0.58711 0.59915 0.10131 0.0
O24 O 0.62275 0.60065 0.95303 0.0
O25 O 0.57061 0.61229 0.93243 0.0
O26 O 0.69065 0.69581 0.06694 0.0
O27 O 0.63573 0.682 0.01386 0.0
Co28 Co 0.35953 1.0013 0.00782 0.0
O29 O 0.32858 0.01203 0.95285 0.0
O30 O 0.3841 0.06299 0.00303 0.0
C31 C 0.30435 0.9501 0.05461 0.0
O32 O 0.39723 1.00029 0.07073 0.0
Co33 Co 0.35181 0.91228 -0.00104 0.0
O34 O 0.38542 0.93301 0.07205 0.0
C35 C 0.40203 0.97569 0.91374 0.0
C36 C 0.35477 0.05269 0.96386 0.0
C37 C 0.40276 0.97156 0.09255 0.0
O38 O 0.39781 0.00332 0.94446 0.0
O39 O 0.38362 0.93599 0.92527 0.0
O40 O 0.31809 0.99049 0.06605 0.0
O41 O 0.32075 0.94178 0.00957 0.0
Co42 Co 0.02412 0.65878 -0.00762 0.0
O43 O 0.01467 0.69054 0.93657 0.0
O44 O 0.96442 0.63912 0.98804 0.0
C45 C 0.07897 0.71368 0.04079 0.0
O46 O 0.02477 0.62127 0.05603 0.0
Co47 Co 0.10604 0.65698 0.97984 0.0
O48 O 0.08872 0.62781 0.05457 0.0
C49 C 0.03786 0.6063 0.89647 0.0
C50 C 0.97495 0.66757 0.94859 0.0
C51 C 0.0527 0.61421 0.07723 0.0
O52 O 0.01463 0.61447 0.92938 0.0
O53 O 0.07759 0.62408 0.90477 0.0
O54 O 0.04075 0.70451 0.05046 0.0
O55 O 0.08342 0.69437 -0.00528 0.0
Co56 Co 0.35686 0.34183 -0.00411 0.0
O57 O 0.31111 0.31418 0.04875 0.0
O58 O 0.32516 0.37075 -0.0013 0.0
C59 C 0.34879 0.28356 0.94827 0.0
O60 O 0.40149 0.37675 0.93548 0.0
Co61 Co 0.43191 0.32747 0.00979 0.0
O62 O 0.45235 0.36034 0.93849 0.0
C63 C 0.42379 0.38484 0.09302 0.0
C64 C 0.30179 0.34263 0.03664 0.0
C65 C 0.43573 0.37961 0.91646 0.0
O66 O 0.3937 0.38116 0.06143 0.0
O67 O 0.44181 0.36354 0.08292 0.0
O68 O 0.32502 0.29855 0.93514 0.0
O69 O 0.37131 0.2999 -0.00436 0.0
Co70 Co 0.64187 1.00141 -0.00205 0.0
O71 O 0.67371 0.99375 0.05512 0.0
O72 O 0.61772 0.94005 0.00953 0.0
C73 C 0.69786 0.04823 0.94738 0.0
O74 O 0.60362 0.99978 0.9326 0.0
Co75 Co 0.65086 0.08907 -0.00239 0.0
O76 O 0.6238 0.06865 0.9191 0.0
C77 C 0.60822 0.03404 0.09403 0.0
C78 C 0.64836 0.95275 0.04749 0.0
C79 C 0.6034 0.029 0.90297 0.0
O80 O 0.60487 0.00322 0.06109 0.0
O81 O 0.63007 0.07325 0.07998 0.0
O82 O 0.68105 0.0071 0.93957 0.0
O83 O 0.68352 0.06082 0.99086 0.0
Co84 Co 0.67819 0.69609 0.34827 0.0
O85 O 0.68944 0.66936 0.40844 0.0
O86 O 0.73928 0.72076 0.35624 0.0
C87 C 0.62768 0.6356 0.30469 0.0
O88 O 0.67432 0.72852 0.28072 0.0
Co89 Co 0.58896 0.68492 0.35181 0.0
O90 O 0.6081 0.71669 0.27917 0.0
C91 C 0.65244 0.73885 0.43963 0.0
C92 C 0.72905 0.69348 0.39733 0.0
C93 C 0.64499 0.73281 0.25824 0.0
O94 O 0.68063 0.73972 0.40621 0.0
O95 O 0.61285 0.7139 0.43017 0.0
O96 O 0.66702 0.64958 0.29412 0.0
O97 O 0.62023 0.65568 0.34636 0.0
Co98 Co 0.32658 0.98071 0.34569 0.0
O99 O 0.3661 0.01118 0.28618 0.0
O100 O 0.36756 0.96264 0.33893 0.0
C101 C 0.32881 0.03832 0.3892 0.0
O102 O 0.29043 0.9445 0.41285 0.0
Co103 Co 0.2412 0.97588 0.34281 0.0
O104 O 0.22889 0.94294 0.41423 0.0
C105 C 0.25794 0.92696 0.25505 0.0
C106 C 0.3836 0.98934 0.29687 0.0
C107 C 0.25381 0.93238 0.4346 0.0
O108 O 0.28946 0.93392 0.28633 0.0
O109 O 0.23728 0.94553 0.26577 0.0
O110 O 0.35734 0.02908 0.40024 0.0
O111 O 0.30241 0.01527 0.34717 0.0
Co112 Co 0.0263 0.33478 0.34117 0.0
O113 O 0.99534 0.34549 0.28621 0.0
O114 O 0.05084 0.39648 0.33639 0.0
C115 C 0.97113 0.28356 0.38796 0.0
O116 O 0.06401 0.33378 0.40408 0.0
Co117 Co 0.01861 0.24578 0.33229 0.0
O118 O 0.05223 0.26652 0.40538 0.0
C119 C 0.06882 0.30921 0.24708 0.0
C120 C 0.02151 0.38615 0.29722 0.0
C121 C 0.06956 0.30506 0.42589 0.0
O122 O 0.06459 0.33683 0.2778 0.0
O123 O 0.05043 0.2695 0.25861 0.0
O124 O 0.98485 0.32394 0.39941 0.0
O125 O 0.98753 0.27526 0.34291 0.0
Co126 Co 0.69092 0.99219 0.32572 0.0
O127 O 0.68148 0.02396 0.26992 0.0
O128 O 0.63122 0.97255 0.32139 0.0
C129 C 0.74578 0.04708 0.37412 0.0
O130 O 0.69155 0.95467 0.38938 0.0
Co131 Co 0.7728 0.99034 0.31318 0.0
O132 O 0.75548 0.96118 0.38791 0.0
C133 C 0.70462 0.93969 0.2298 0.0
C134 C 0.64176 1.001 0.28194 0.0
C135 C 0.71947 0.9476 0.41058 0.0
O136 O 0.6814 0.94787 0.26272 0.0
O137 O 0.74436 0.95747 0.23809 0.0
O138 O 0.70756 0.03793 0.3838 0.0
O139 O 0.75022 0.02777 0.32806 0.0
Co140 Co 0.02335 0.67516 0.3292 0.0
O141 O 0.9776 0.64749 0.38205 0.0
O142 O 0.99162 0.70405 0.33199 0.0
C143 C 0.01531 0.61691 0.28159 0.0
O144 O 0.06798 0.7101 0.26879 0.0
Co145 Co 0.09843 0.66086 0.34313 0.0
O146 O 0.11886 0.69371 0.27182 0.0
C147 C 0.09027 0.71821 0.42634 0.0
C148 C 0.96825 0.67593 0.36993 0.0
C149 C 0.10222 0.71297 0.24978 0.0
O150 O 0.06017 0.7145 0.39475 0.0
O151 O 0.10831 0.69692 0.41626 0.0
O152 O 0.99153 0.63188 0.26845 0.0
O153 O 0.03783 0.63326 0.32897 0.0
Co154 Co 0.30859 0.33466 0.3313 0.0
O155 O 0.34041 0.32698 0.38847 0.0
O156 O 0.28441 0.27329 0.3429 0.0
C157 C 0.3646 0.38144 0.28072 0.0
O158 O 0.27036 0.33305 0.26593 0.0
Co159 Co 0.31766 0.42235 0.33092 0.0
O160 O 0.29055 0.40192 0.25244 0.0
C161 C 0.27499 0.36735 0.42735 0.0
C162 C 0.31505 0.28599 0.38085 0.0
C163 C 0.27013 0.36228 0.23632 0.0
O164 O 0.2716 0.33651 0.39442 0.0
O165 O 0.29686 0.40656 0.4133 0.0
O166 O 0.34777 0.34031 0.27293 0.0
O167 O 0.35028 0.39406 0.32419 0.0
Co168 Co 0.34492 0.02932 0.68159 0.0
O169 O 0.35619 0.00261 0.74175 0.0
O170 O 0.40602 0.05403 0.68957 0.0
C171 C 0.29445 0.96883 0.63799 0.0
O172 O 0.34103 0.06175 0.61405 0.0
Co173 Co 0.25567 0.01808 0.68513 0.0
O174 O 0.27479 0.04988 0.61251 0.0
C175 C 0.31912 0.07205 0.77294 0.0
C176 C 0.39581 0.02675 0.73065 0.0
C177 C 0.31168 0.06602 0.59158 0.0
O178 O 0.34733 0.07293 0.73954 0.0
O179 O 0.27954 0.04708 0.76348 0.0
O180 O 0.33379 0.98284 0.62743 0.0
O181 O 0.28698 0.98889 0.67966 0.0
Co182 Co 0.99337 0.31415 0.67904 0.0
O183 O 0.03287 0.34463 0.61951 0.0
O184 O 0.03437 0.29611 0.67227 0.0
C185 C 0.99556 0.37175 0.72253 0.0
O186 O 0.95724 0.27795 0.7462 0.0
Co187 Co 0.90797 0.30927 0.67617 0.0
O188 O 0.89567 0.27634 0.74759 0.0
C189 C 0.92473 0.26038 0.5884 0.0
C190 C 0.05039 0.32281 0.6302 0.0
C191 C 0.92061 0.2658 0.76796 0.0
O192 O 0.95625 0.26736 0.61968 0.0
O193 O 0.90406 0.27894 0.59912 0.0
O194 O 0.02411 0.36253 0.73358 0.0
O195 O 0.96917 0.34869 0.68051 0.0
Co196 Co 0.69281 0.66804 0.6745 0.0
O197 O 0.66187 0.67879 0.61953 0.0
O198 O 0.71739 0.72974 0.66973 0.0
C199 C 0.63762 0.61684 0.72128 0.0
O200 O 0.73049 0.667 0.73742 0.0
Co201 Co 0.68503 0.579 0.66562 0.0
O202 O 0.71865 0.59971 0.73871 0.0
C203 C 0.73527 0.64241 0.58041 0.0
C204 C 0.68807 0.71945 0.63054 0.0
C205 C 0.736 0.63825 0.75923 0.0
O206 O 0.73108 0.67005 0.61114 0.0
O207 O 0.71684 0.6027 0.59193 0.0
O208 O 0.65136 0.65723 0.73273 0.0
O209 O 0.65401 0.60853 0.67623 0.0
Co210 Co 0.35762 0.32546 0.65906 0.0
O211 O 0.34819 0.35723 0.60326 0.0
O212 O 0.29793 0.30584 0.65472 0.0
C213 C 0.41249 0.38033 0.70747 0.0
O214 O 0.35823 0.28792 0.72271 0.0
Co215 Co 0.43949 0.32358 0.64652 0.0
O216 O 0.42215 0.29441 0.72125 0.0
C217 C 0.3713 0.27293 0.56316 0.0
C218 C 0.30847 0.33429 0.61527 0.0
C219 C 0.38614 0.28083 0.7439 0.0
O220 O 0.34809 0.28113 0.59606 0.0
O221 O 0.41103 0.29069 0.57146 0.0
O222 O 0.37427 0.37119 0.71714 0.0
O223 O 0.41692 0.36102 0.66141 0.0
Co224 Co 0.69019 0.00864 0.66256 0.0
O225 O 0.64444 0.98098 0.71542 0.0
O226 O 0.65847 0.03754 0.66536 0.0
C227 C 0.68214 0.95038 0.61495 0.0
O228 O 0.73482 0.04357 0.60214 0.0
Co229 Co 0.76526 0.99432 0.67649 0.0
O230 O 0.78568 0.02716 0.60517 0.0
C231 C 0.7571 0.05167 0.75971 0.0
C232 C 0.6351 0.00942 0.7033 0.0
C233 C 0.76906 0.04643 0.58312 0.0
O234 O 0.72702 0.04798 0.7281 0.0
O235 O 0.77513 0.03037 0.74963 0.0
O236 O 0.65837 0.96535 0.60181 0.0
O237 O 0.70466 0.96673 0.66232 0.0
Co238 Co 0.97507 0.66794 0.6646 0.0
O239 O 0.00691 0.66029 0.72177 0.0
O240 O 0.95093 0.60658 0.67619 0.0
C241 C 0.03106 0.71476 0.61403 0.0
O242 O 0.93682 0.6663 0.59923 0.0
Co243 Co 0.98405 0.7556 0.66423 0.0
O244 O 0.95695 0.73516 0.58575 0.0
C245 C 0.94142 0.70058 0.76066 0.0
C246 C 0.98157 0.6193 0.71415 0.0
C247 C 0.93656 0.69552 0.56962 0.0
O248 O 0.93805 0.66975 0.72771 0.0
O249 O 0.96327 0.73979 0.74661 0.0
O250 O 0.01426 0.67364 0.60623 0.0
O251 O 0.01671 0.72735 0.6575 0.0
H252 H 0.11695 0.28323 0.19011 0.0
H253 H 0.12426 0.34327 0.02922 0.0
H254 H 0.06334 0.36184 0.17746 0.0
H255 H 0.13808 0.26262 0.09745 0.0
H256 H 0.14904 0.29408 0.0346 0.0
H257 H 0.18928 0.32354 0.19448 0.0
H258 H 0.31723 0.37758 0.14336 0.0
H259 H 0.21919 0.31471 0.01364 0.0
C260 C 0.11265 0.3056 0.16597 0.0
C261 C 0.0904 0.32328 0.19121 0.0
C262 C 0.12865 0.31603 0.10927 0.0
C263 C 0.11726 0.34008 0.07534 0.0
C264 C 0.09244 0.35543 0.09977 0.0
C265 C 0.08293 0.35035 0.15904 0.0
C266 C 0.15233 0.29604 0.08299 0.0
C267 C 0.19867 0.32033 0.10071 0.0
C268 C 0.21178 0.33115 0.16005 0.0
C269 C 0.25462 0.35166 0.17538 0.0
C270 C 0.28423 0.36122 0.13169 0.0
C271 C 0.2717 0.3468 0.07395 0.0
C272 C 0.22901 0.32693 0.0582 0.0
H273 H 0.61797 0.78306 0.21687 0.0
H274 H 0.63233 0.75895 0.03546 0.0
H275 H 0.6792 0.71446 0.16889 0.0
H276 H 0.59539 0.79498 0.06255 0.0
H277 H 0.57994 0.79483 0.13669 0.0
H278 H 0.664 0.85441 0.19958 0.0
H279 H 0.69872 0.9772 0.14057 0.0
H280 H 0.60989 0.86409 0.03883 0.0
C281 C 0.63128 0.7719 0.18343 0.0
C282 C 0.65042 0.74925 0.19948 0.0
C283 C 0.62797 0.77901 0.12441 0.0
C284 C 0.63845 0.75748 0.08114 0.0
C285 C 0.65597 0.73319 0.09739 0.0
C286 C 0.66524 0.7327 0.15624 0.0
C287 C 0.60757 0.80411 0.10828 0.0
C288 C 0.63639 0.85282 0.11518 0.0
C289 C 0.66256 0.87295 0.16533 0.0
C290 C 0.68548 0.91782 0.17333 0.0
C291 C 0.68197 0.94265 0.13212 0.0
C292 C 0.65422 0.9238 0.08421 0.0
C293 C 0.63176 0.87885 0.07546 0.0
H294 H 0.18469 0.76589 0.22425 0.0
H295 H 0.16592 0.7653 0.0388 0.0
H296 H 0.05956 0.70217 0.15257 0.0
H297 H 0.24423 0.79041 0.1572 0.0
H298 H 0.23687 0.79229 0.08055 0.0
H299 H 0.22794 0.84214 0.22597 0.0
H300 H 0.28316 0.96729 0.15874 0.0
H301 H 0.2675 0.86228 0.04654 0.0
C302 C 0.1638 0.75792 0.18695 0.0
C303 C 0.12006 0.73374 0.19462 0.0
C304 C 0.1807 0.77113 0.13127 0.0
C305 C 0.15328 0.75697 0.08225 0.0
C306 C 0.10947 0.73208 0.08984 0.0
C307 C 0.0933 0.72226 0.14637 0.0
C308 C 0.22792 0.79869 0.12455 0.0
C309 C 0.24297 0.84588 0.13381 0.0
C310 C 0.23998 0.86262 0.18913 0.0
C311 C 0.25357 0.90628 0.19719 0.0
C312 C 0.27122 0.93329 0.15089 0.0
C313 C 0.27788 0.91816 0.09725 0.0
C314 C 0.26279 0.8742 0.08821 0.0
H315 H 0.41765 0.2336 0.78403 0.0
H316 H 0.38183 0.23354 0.9628 0.0
H317 H 0.34367 0.28887 0.83305 0.0
H318 H 0.44613 0.20989 0.86031 0.0
H319 H 0.43364 0.2133 0.9356 0.0
H320 H 0.37073 0.15623 0.79683 0.0
H321 H 0.3052 0.03346 0.87068 0.0
H322 H 0.40426 0.14182 0.96999 0.0
C323 C 0.40056 0.24052 0.81683 0.0
C324 C 0.3794 0.26147 0.8013 0.0
C325 C 0.39994 0.22858 0.87462 0.0
C326 C 0.38047 0.24045 0.91764 0.0
C327 C 0.36046 0.26242 0.90279 0.0
C328 C 0.35809 0.27077 0.84426 0.0
C329 C 0.42009 0.20338 0.89059 0.0
C330 C 0.38781 0.15575 0.88675 0.0
C331 C 0.36442 0.13719 0.83472 0.0
C332 C 0.3341 0.0935 0.8301 0.0
C333 C 0.32749 0.06774 0.87673 0.0
C334 C 0.35418 0.08415 0.92601 0.0
C335 C 0.38364 0.12865 0.93191 0.0
H336 H 0.86556 0.18494 0.80795 0.0
H337 H 0.89706 0.22215 0.99097 0.0
H338 H 0.95963 0.31382 0.8601 0.0
H339 H 0.87139 0.13708 0.90711 0.0
H340 H 0.85088 0.15012 0.96889 0.0
H341 H 0.83122 0.11279 0.81198 0.0
H342 H 0.69931 0.03276 0.83638 0.0
H343 H 0.77622 0.12023 0.97566 0.0
C344 C 0.88243 0.20874 0.84263 0.0
C345 C 0.91262 0.25094 0.82781 0.0
C346 C 0.87621 0.19771 0.90212 0.0
C347 C 0.8995 0.23007 0.9455 0.0
C348 C 0.92943 0.27163 0.92994 0.0
C349 C 0.93568 0.28171 0.87162 0.0
C350 C 0.8524 0.15149 0.92048 0.0
C351 C 0.80857 0.12347 0.89473 0.0
C352 C 0.80385 0.10495 0.83807 0.0
C353 C 0.76391 0.07429 0.81631 0.0
C354 C 0.72901 0.06034 0.85169 0.0
C355 C 0.73273 0.07626 0.90906 0.0
C356 C 0.77254 0.1092 0.93027 0.0
H357 H 0.86189 0.66172 0.80058 0.0
H358 H 0.89038 0.6308 0.96694 0.0
H359 H 0.98952 0.70934 0.84963 0.0
H360 H 0.8127 0.58555 0.87311 0.0
H361 H 0.81941 0.60541 0.94642 0.0
H362 H 0.79263 0.61858 0.7948 0.0
H363 H 0.71651 0.66881 0.85137 0.0
H364 H 0.7804 0.63821 0.97846 0.0
C365 C 0.88404 0.66613 0.83416 0.0
C366 C 0.92715 0.68987 0.82112 0.0
C367 C 0.87017 0.64605 0.88814 0.0
C368 C 0.90052 0.64844 0.92727 0.0
C369 C 0.94358 0.67102 0.91368 0.0
C370 C 0.95657 0.69312 0.8617 0.0
C371 C 0.82356 0.61545 0.90051 0.0
C372 C 0.79488 0.63232 0.88781 0.0
C373 C 0.7828 0.63214 0.82984 0.0
C374 C 0.75597 0.64697 0.81693 0.0
C375 C 0.73945 0.66014 0.86212 0.0
C376 C 0.74602 0.65474 0.92038 0.0
C377 C 0.77491 0.64214 0.93346 0.0
H378 H 0.78338 0.6164 0.52342 0.0
H379 H 0.79067 0.67643 0.36252 0.0
H380 H 0.72976 0.69502 0.51077 0.0
H381 H 0.80452 0.5958 0.43077 0.0
H382 H 0.81547 0.62725 0.36791 0.0
H383 H 0.85571 0.65671 0.52778 0.0
H384 H 0.98367 0.71089 0.47665 0.0
H385 H 0.88564 0.64794 0.34693 0.0
C386 C 0.77907 0.63877 0.49928 0.0
C387 C 0.75683 0.65646 0.52452 0.0
C388 C 0.79507 0.64919 0.44257 0.0
C389 C 0.78367 0.67324 0.40865 0.0
C390 C 0.75886 0.6886 0.43308 0.0
C391 C 0.74935 0.68352 0.49234 0.0
C392 C 0.81876 0.62922 0.41629 0.0
C393 C 0.8651 0.65353 0.43401 0.0
C394 C 0.87821 0.66434 0.49336 0.0
C395 C 0.92105 0.68489 0.50867 0.0
C396 C 0.95067 0.6945 0.46498 0.0
C397 C 0.93815 0.68007 0.40724 0.0
C398 C 0.89545 0.66017 0.39149 0.0
H399 H 0.28465 0.11627 0.55026 0.0
H400 H 0.29898 0.09219 0.36883 0.0
H401 H 0.3459 0.04771 0.5022 0.0
H402 H 0.26201 0.1282 0.39596 0.0
H403 H 0.2466 0.12806 0.47012 0.0
H404 H 0.33065 0.18764 0.53297 0.0
H405 H 0.36542 0.31042 0.47392 0.0
H406 H 0.27654 0.19732 0.37221 0.0
C407 C 0.29795 0.10512 0.5168 0.0
C408 C 0.3171 0.08248 0.53283 0.0
C409 C 0.29463 0.11224 0.45779 0.0
C410 C 0.30511 0.09072 0.4145 0.0
C411 C 0.32264 0.06644 0.43073 0.0
C412 C 0.33192 0.06594 0.48957 0.0
C413 C 0.27422 0.13734 0.44169 0.0
C414 C 0.30304 0.18604 0.44857 0.0
C415 C 0.32922 0.20618 0.49871 0.0
C416 C 0.35216 0.25105 0.5067 0.0
C417 C 0.34865 0.27587 0.46549 0.0
C418 C 0.3209 0.25702 0.41758 0.0
C419 C 0.29842 0.21208 0.40884 0.0
H420 H 0.85152 0.09934 0.55757 0.0
H421 H 0.83273 0.09871 0.37212 0.0
H422 H 0.72638 0.03559 0.48591 0.0
H423 H 0.91106 0.12386 0.4905 0.0
H424 H 0.90368 0.12575 0.41386 0.0
H425 H 0.89476 0.17558 0.5593 0.0
H426 H 0.94994 0.30073 0.49211 0.0
H427 H 0.9343 0.19575 0.37986 0.0
C428 C 0.83062 0.09136 0.52027 0.0
C429 C 0.78689 0.06717 0.52795 0.0
C430 C 0.84752 0.10456 0.46459 0.0
C431 C 0.8201 0.09038 0.41557 0.0
C432 C 0.77629 0.06549 0.42317 0.0
C433 C 0.76013 0.05568 0.4797 0.0
C434 C 0.89474 0.13214 0.45786 0.0
C435 C 0.90978 0.17932 0.46713 0.0
C436 C 0.90679 0.19606 0.52247 0.0
C437 C 0.92037 0.23971 0.53053 0.0
C438 C 0.93801 0.26673 0.48424 0.0
C439 C 0.94467 0.25162 0.4306 0.0
C440 C 0.92959 0.20765 0.42154 0.0
H441 H 0.08428 0.56704 0.11738 0.0
H442 H 0.04842 0.56694 0.29614 0.0
H443 H 0.0102 0.62221 0.16637 0.0
H444 H 0.11279 0.54338 0.19368 0.0
H445 H 0.10028 0.54677 0.26896 0.0
H446 H 0.03742 0.48967 0.13017 0.0
H447 H 0.97195 0.3669 0.20402 0.0
H448 H 0.07096 0.47529 0.30336 0.0
C449 C 0.06717 0.57395 0.15017 0.0
C450 C 0.04598 0.59486 0.13463 0.0
C451 C 0.06655 0.562 0.20796 0.0
C452 C 0.04706 0.57385 0.25097 0.0
C453 C 0.02702 0.59579 0.23612 0.0
C454 C 0.02465 0.60414 0.17758 0.0
C455 C 0.08674 0.53685 0.22395 0.0
C456 C 0.05449 0.4892 0.2201 0.0
C457 C 0.03112 0.47064 0.16807 0.0
C458 C 1.00083 0.42694 0.16344 0.0
C459 C 0.99422 0.40118 0.21007 0.0
C460 C 0.0209 0.4176 0.25937 0.0
C461 C 0.05034 0.46212 0.26527 0.0
H462 H 0.53229 0.5182 0.14122 0.0
H463 H 0.56362 0.55538 0.32427 0.0
H464 H 0.62588 0.64722 0.19352 0.0
H465 H 0.53819 0.4704 0.24021 0.0
H466 H 0.51767 0.48331 0.3021 0.0
H467 H 0.49792 0.44601 0.14522 0.0
H468 H 0.36604 0.36593 0.16974 0.0
H469 H 0.44299 0.45344 0.30896 0.0
C470 C 0.54905 0.54202 0.17592 0.0
C471 C 0.5791 0.58428 0.16115 0.0
C472 C 0.54284 0.53097 0.2354 0.0
C473 C 0.56602 0.56333 0.27882 0.0
C474 C 0.59582 0.60495 0.2633 0.0
C475 C 0.60202 0.61507 0.205 0.0
C476 C 0.51914 0.48473 0.2537 0.0
C477 C 0.4753 0.45667 0.228 0.0
C478 C 0.47057 0.43815 0.17134 0.0
C479 C 0.43062 0.40747 0.14961 0.0
C480 C 0.39574 0.39351 0.18503 0.0
C481 C 0.39948 0.40945 0.24239 0.0
C482 C 0.43929 0.4424 0.26358 0.0
H483 H 0.5287 0.99518 0.13396 0.0
H484 H 0.55719 0.96423 0.30029 0.0
H485 H 0.65633 0.04279 0.18299 0.0
H486 H 0.47953 0.91897 0.2065 0.0
H487 H 0.48623 0.93884 0.27979 0.0
H488 H 0.45944 0.95197 0.12816 0.0
H489 H 0.38321 0.00208 0.18468 0.0
H490 H 0.44716 0.97159 0.3118 0.0
C491 C 0.55085 0.99959 0.16754 0.0
C492 C 0.59395 0.02333 0.15449 0.0
C493 C 0.53698 0.9795 0.22151 0.0
C494 C 0.56733 0.98188 0.26063 0.0
C495 C 0.61039 0.00447 0.24704 0.0
C496 C 0.62338 0.02657 0.19507 0.0
C497 C 0.49037 0.94888 0.23388 0.0
C498 C 0.46167 0.96571 0.22117 0.0
C499 C 0.44958 0.96551 0.16319 0.0
C500 C 0.42272 0.9803 0.15026 0.0
C501 C 0.40617 0.99344 0.19544 0.0
C502 C 0.41275 0.98807 0.25371 0.0
C503 C 0.44167 0.9755 0.2668 0.0
H504 H 0.45019 0.94974 0.85678 0.0
H505 H 0.45746 0.00976 0.69587 0.0
H506 H 0.3965 0.02828 0.84409 0.0
H507 H 0.47139 0.92917 0.76416 0.0
H508 H 0.48229 0.9606 0.70128 0.0
H509 H 0.52253 0.99012 0.86114 0.0
H510 H 0.65052 0.04444 0.81 0.0
H511 H 0.55248 0.98136 0.6803 0.0
C512 C 0.44586 0.97209 0.83263 0.0
C513 C 0.42359 0.98975 0.85785 0.0
C514 C 0.46187 0.98252 0.77592 0.0
C515 C 0.45045 0.00656 0.74199 0.0
C516 C 0.42562 0.02189 0.76641 0.0
C517 C 0.4161 0.0168 0.82567 0.0
C518 C 0.48559 0.96258 0.74966 0.0
C519 C 0.53193 0.98694 0.76737 0.0
C520 C 0.54504 0.99778 0.82671 0.0
C521 C 0.58789 0.01838 0.84202 0.0
C522 C 0.61751 0.02801 0.79833 0.0
C523 C 0.60499 0.01356 0.74059 0.0
C524 C 0.56228 0.9936 0.72485 0.0
H525 H 0.95133 0.44965 0.88358 0.0
H526 H 0.96568 0.42557 0.70215 0.0
H527 H 0.01267 0.38117 0.83553 0.0
H528 H 0.92867 0.46154 0.72927 0.0
H529 H 0.91325 0.46138 0.80342 0.0
H530 H 0.99728 0.52102 0.86628 0.0
H531 H 0.03193 0.64377 0.80723 0.0
H532 H 0.94313 0.53063 0.70552 0.0
C533 C 0.96465 0.43851 0.85012 0.0
C534 C 0.98383 0.4159 0.86616 0.0
C535 C 0.96132 0.44561 0.79111 0.0
C536 C 0.97182 0.42411 0.74783 0.0
C537 C 0.98938 0.39986 0.76406 0.0
C538 C 0.99867 0.39938 0.8229 0.0
C539 C 0.94087 0.47068 0.775 0.0
C540 C 0.96966 0.51939 0.78188 0.0
C541 C 0.99583 0.53954 0.83202 0.0
C542 C 0.01872 0.58441 0.84001 0.0
C543 C 0.01519 0.60922 0.7988 0.0
C544 C 0.98744 0.59035 0.75089 0.0
C545 C 0.965 0.5454 0.74215 0.0
H546 H 0.51819 0.43261 0.89096 0.0
H547 H 0.49943 0.43201 0.7055 0.0
H548 H 0.39307 0.36876 0.81924 0.0
H549 H 0.57776 0.45724 0.82395 0.0
H550 H 0.57039 0.45909 0.7473 0.0
H551 H 0.56138 0.50891 0.89269 0.0
H552 H 0.61635 0.63401 0.82538 0.0
H553 H 0.60087 0.52905 0.71324 0.0
C554 C 0.4973 0.42461 0.85365 0.0
C555 C 0.45357 0.40038 0.8613 0.0
C556 C 0.51421 0.43784 0.79798 0.0
C557 C 0.48679 0.42366 0.74895 0.0
C558 C 0.44298 0.39872 0.75652 0.0
C559 C 0.42681 0.38888 0.81305 0.0
C560 C 0.56142 0.46547 0.79129 0.0
C561 C 0.57638 0.51264 0.80052 0.0
C562 C 0.57337 0.52938 0.85584 0.0
C563 C 0.58688 0.57301 0.86387 0.0
C564 C 0.60447 0.60002 0.81755 0.0
C565 C 0.61116 0.5849 0.76392 0.0
C566 C 0.59614 0.54095 0.75491 0.0
H567 H 0.75099 0.90037 0.45073 0.0
H568 H 0.71518 0.90035 0.6295 0.0
H569 H 0.67702 0.95568 0.49973 0.0
H570 H 0.77946 0.87667 0.52703 0.0
H571 H 0.76696 0.88008 0.60231 0.0
H572 H 0.70406 0.82302 0.46353 0.0
H573 H 0.63852 0.70025 0.53735 0.0
H574 H 0.73758 0.80858 0.63669 0.0
C575 C 0.7339 0.90731 0.48352 0.0
C576 C 0.71275 0.92826 0.46799 0.0
C577 C 0.73328 0.89537 0.54132 0.0
C578 C 0.71382 0.90726 0.58434 0.0
C579 C 0.69382 0.92923 0.56948 0.0
C580 C 0.69145 0.93757 0.51094 0.0
C581 C 0.75342 0.87016 0.5573 0.0
C582 C 0.72113 0.82253 0.55345 0.0
C583 C 0.69775 0.80398 0.50142 0.0
C584 C 0.66743 0.76029 0.49679 0.0
C585 C 0.66081 0.73452 0.54341 0.0
C586 C 0.6875 0.75092 0.5927 0.0
C587 C 0.71696 0.79542 0.59861 0.0
H588 H 0.19877 0.8515 0.47457 0.0
H589 H 0.23024 0.88868 0.6576 0.0
H590 H 0.29279 0.98038 0.52676 0.0
H591 H 0.20458 0.80363 0.57369 0.0
H592 H 0.18408 0.81666 0.63549 0.0
H593 H 0.16439 0.77935 0.47858 0.0
H594 H 0.0325 0.69929 0.50304 0.0
H595 H 0.10942 0.78677 0.6423 0.0
C596 C 0.21562 0.8753 0.50926 0.0
C597 C 0.2458 0.91751 0.49445 0.0
C598 C 0.2094 0.86427 0.56874 0.0
C599 C 0.23267 0.89661 0.61213 0.0
C600 C 0.2626 0.93818 0.59659 0.0
C601 C 0.26885 0.94827 0.53827 0.0
C602 C 0.18559 0.81804 0.58709 0.0
C603 C 0.14176 0.79002 0.56134 0.0
C604 C 0.13703 0.77151 0.50468 0.0
C605 C 0.09709 0.74084 0.48293 0.0
C606 C 0.06219 0.72687 0.51833 0.0
C607 C 0.06593 0.74279 0.57571 0.0
C608 C 0.10573 0.77575 0.59691 0.0
H609 H 0.19546 0.32855 0.46728 0.0
H610 H 0.22391 0.29758 0.63362 0.0
H611 H 0.32307 0.37608 0.51632 0.0
H612 H 0.14624 0.25237 0.53982 0.0
H613 H 0.15296 0.27224 0.61312 0.0
H614 H 0.12621 0.28542 0.46149 0.0
H615 H 0.05004 0.33561 0.51802 0.0
H616 H 0.11392 0.30502 0.64513 0.0
C617 C 0.21761 0.33294 0.50086 0.0
C618 C 0.26071 0.35665 0.48781 0.0
C619 C 0.20372 0.31286 0.55483 0.0
C620 C 0.23406 0.31522 0.59396 0.0
C621 C 0.27712 0.33778 0.58037 0.0
C622 C 0.29013 0.35987 0.52839 0.0
C623 C 0.15711 0.28228 0.5672 0.0
C624 C 0.12844 0.29915 0.55449 0.0
C625 C 0.11636 0.29898 0.49652 0.0
C626 C 0.08952 0.31379 0.48359 0.0
C627 C 0.07299 0.32695 0.52878 0.0
C628 C 0.07955 0.32155 0.58705 0.0
C629 C 0.10845 0.30895 0.60013 0.0
loop_
_geom_bond_atom_site_label_1
_geom_bond_atom_site_label_2
_geom_bond_distance
_geom_bond_site_symmetry_2
_ccdc_geom_bond_type
Co0 O1 2.216 . S
Co0 O2 2.091 . S
Co0 O4 2.004 1_554 S
Co0 O10 2.021 . S
Co0 O12 2.137 1_454 S
Co0 O13 2.244 1_455 S
O1 Co0 2.216 . S
O1 C8 1.247 . S
O2 Co0 2.091 . S
O2 C8 1.261 . S
C3 O12 1.247 . S
C3 O13 1.272 1_556 S
O4 Co0 2.004 1_556 S
O4 C9 1.259 1_455 S
Co5 O6 2.061 1_554 S
Co5 O11 2.052 . S
Co5 O13 2.135 . S
O6 Co5 2.061 1_556 S
O6 C9 1.235 . S
C7 O10 1.238 1_655 S
C7 O11 1.241 . S
C8 O1 1.247 . S
C8 O2 1.261 . S
C9 O4 1.259 1_655 S
C9 O6 1.235 . S
O10 Co0 2.021 . S
O10 C7 1.238 1_455 S
O11 Co5 2.052 . S
O11 C7 1.241 . S
O12 Co0 2.137 1_656 S
O12 C3 1.247 . S
O13 Co0 2.244 1_655 S
O13 C3 1.272 1_554 S
O13 Co5 2.135 . S
Co14 O15 2.216 1_554 S
Co14 O16 2.091 . S
Co14 O18 2.004 . S
Co14 O24 2.021 1_554 S
Co14 O26 2.137 . S
Co14 O27 2.244 . S
O15 Co14 2.216 1_556 S
O15 C22 1.247 . S
O16 Co14 2.091 . S
O16 C22 1.261 1_554 S
C17 O26 1.247 . S
C17 O27 1.272 . S
O18 Co14 2.004 . S
O18 C23 1.259 . S
Co19 O20 2.061 . S
Co19 O25 2.052 1_554 S
Co19 O27 2.135 . S
O20 Co19 2.061 . S
O20 C23 1.235 . S
C21 O24 1.238 . S
C21 O25 1.241 . S
C22 O15 1.247 . S
C22 O16 1.261 1_556 S
C23 O18 1.259 . S
C23 O20 1.235 . S
O24 Co14 2.021 1_556 S
O24 C21 1.238 . S
O25 Co19 2.052 1_556 S
O25 C21 1.241 . S
O26 Co14 2.137 . S
O26 C17 1.247 . S
O27 Co14 2.244 . S
O27 C17 1.272 . S
O27 Co19 2.135 . S
Co28 O29 2.216 1_554 S
Co28 O30 2.091 . S
Co28 O32 2.004 . S
Co28 O38 2.021 1_554 S
Co28 O40 2.137 1_545 S
Co28 O41 2.244 1_545 S
O29 Co28 2.216 1_556 S
O29 C36 1.247 . S
O30 Co28 2.091 . S
O30 C36 1.261 1_554 S
C31 O40 1.247 . S
C31 O41 1.272 . S
O32 Co28 2.004 . S
O32 C37 1.259 1_545 S
Co33 O34 2.061 . S
Co33 O39 2.052 1_554 S
Co33 O41 2.135 . S
O34 Co33 2.061 . S
O34 C37 1.235 . S
C35 O38 1.238 1_565 S
C35 O39 1.241 . S
C36 O29 1.247 . S
C36 O30 1.261 1_556 S
C37 O32 1.259 1_565 S
C37 O34 1.235 . S
O38 Co28 2.021 1_556 S
O38 C35 1.238 1_545 S
O39 Co33 2.052 1_556 S
O39 C35 1.241 . S
O40 Co28 2.137 1_565 S
O40 C31 1.247 . S
O41 Co28 2.244 1_565 S
O41 C31 1.272 . S
O41 Co33 2.135 . S
Co42 O43 2.216 1_554 S
Co42 O44 2.091 . S
Co42 O46 2.004 . S
Co42 O52 2.021 1_554 S
Co42 O54 2.137 1_655 S
Co42 O55 2.244 1_655 S
O43 Co42 2.216 1_556 S
O43 C50 1.247 . S
O44 Co42 2.091 . S
O44 C50 1.261 1_554 S
C45 O54 1.247 . S
C45 O55 1.272 . S
O46 Co42 2.004 . S
O46 C51 1.259 1_655 S
Co47 O48 2.061 . S
Co47 O53 2.052 1_554 S
Co47 O55 2.135 . S
O48 Co47 2.061 . S
O48 C51 1.235 . S
C49 O52 1.238 1_455 S
C49 O53 1.241 . S
C50 O43 1.247 . S
C50 O44 1.261 1_556 S
C51 O46 1.259 1_455 S
C51 O48 1.235 . S
O52 Co42 2.021 1_556 S
O52 C49 1.238 1_655 S
O53 Co47 2.052 1_556 S
O53 C49 1.241 . S
O54 Co42 2.137 1_455 S
O54 C45 1.247 . S
O55 Co42 2.244 1_455 S
O55 C45 1.272 . S
O55 Co47 2.135 . S
Co56 O57 2.216 . S
Co56 O58 2.091 . S
Co56 O60 2.004 1_554 S
Co56 O66 2.021 . S
Co56 O68 2.137 1_554 S
Co56 O69 2.244 1_554 S
O57 Co56 2.216 . S
O57 C64 1.247 . S
O58 Co56 2.091 . S
O58 C64 1.261 . S
C59 O68 1.247 . S
C59 O69 1.272 . S
O60 Co56 2.004 1_556 S
O60 C65 1.259 . S
Co61 O62 2.061 . S
Co61 O67 2.052 1_556 S
Co61 O69 2.135 . S
O62 Co61 2.061 . S
O62 C65 1.235 . S
C63 O66 1.238 . S
C63 O67 1.241 . S
C64 O57 1.247 . S
C64 O58 1.261 . S
C65 O60 1.259 . S
C65 O62 1.235 . S
O66 Co56 2.021 . S
O66 C63 1.238 . S
O67 Co61 2.052 1_554 S
O67 C63 1.241 . S
O68 Co56 2.137 1_556 S
O68 C59 1.247 . S
O69 Co56 2.244 1_556 S
O69 C59 1.272 . S
O69 Co61 2.135 . S
Co70 O71 2.216 . S
Co70 O72 2.091 . S
Co70 O74 2.004 1_554 S
Co70 O80 2.021 . S
Co70 O82 2.137 1_564 S
Co70 O83 2.244 1_565 S
O71 Co70 2.216 . S
O71 C78 1.247 . S
O72 Co70 2.091 . S
O72 C78 1.261 . S
C73 O82 1.247 . S
C73 O83 1.272 1_556 S
O74 Co70 2.004 1_556 S
O74 C79 1.259 1_565 S
Co75 O76 2.061 1_554 S
Co75 O81 2.052 . S
Co75 O83 2.135 . S
O76 Co75 2.061 1_556 S
O76 C79 1.235 . S
C77 O80 1.238 1_545 S
C77 O81 1.241 . S
C78 O71 1.247 . S
C78 O72 1.261 . S
C79 O74 1.259 1_545 S
C79 O76 1.235 . S
O80 Co70 2.021 . S
O80 C77 1.238 1_565 S
O81 Co75 2.052 . S
O81 C77 1.241 . S
O82 Co70 2.137 1_546 S
O82 C73 1.247 . S
O83 Co70 2.244 1_545 S
O83 C73 1.272 1_554 S
O83 Co75 2.135 . S
Co84 O85 2.216 . S
Co84 O86 2.091 . S
Co84 O88 2.004 . S
Co84 O94 2.021 . S
Co84 O96 2.137 . S
Co84 O97 2.244 . S
O85 Co84 2.216 . S
O85 C92 1.247 . S
O86 Co84 2.091 . S
O86 C92 1.261 . S
C87 O96 1.247 . S
C87 O97 1.272 . S
O88 Co84 2.004 . S
O88 C93 1.259 . S
Co89 O90 2.061 . S
Co89 O95 2.052 . S
Co89 O97 2.135 . S
O90 Co89 2.061 . S
O90 C93 1.235 . S
C91 O94 1.238 . S
C91 O95 1.241 . S
C92 O85 1.247 . S
C92 O86 1.261 . S
C93 O88 1.259 . S
C93 O90 1.235 . S
O94 Co84 2.021 . S
O94 C91 1.238 . S
O95 Co89 2.052 . S
O95 C91 1.241 . S
O96 Co84 2.137 . S
O96 C87 1.247 . S
O97 Co84 2.244 . S
O97 C87 1.272 . S
O97 Co89 2.135 . S
Co98 O99 2.216 1_565 S
Co98 O100 2.091 . S
Co98 O102 2.004 . S
Co98 O108 2.021 . S
Co98 O110 2.137 1_565 S
Co98 O111 2.244 1_565 S
O99 Co98 2.216 1_545 S
O99 C106 1.252 . S
O100 Co98 2.091 . S
O100 C106 1.258 1_565 S
C101 O110 1.247 . S
C101 O111 1.272 . S
O102 Co98 2.004 . S
O102 C107 1.259 . S
Co103 O104 2.061 . S
Co103 O109 2.052 . S
Co103 O111 2.135 1_565 S
O104 Co103 2.061 . S
O104 C107 1.235 . S
C105 O108 1.238 . S
C105 O109 1.241 . S
C106 O99 1.252 . S
C106 O100 1.258 1_545 S
C107 O102 1.259 . S
C107 O104 1.235 . S
O108 Co98 2.021 . S
O108 C105 1.238 . S
O109 Co103 2.052 . S
O109 C105 1.241 . S
O110 Co98 2.137 1_545 S
O110 C101 1.247 . S
O111 Co98 2.244 1_545 S
O111 C101 1.272 . S
O111 Co103 2.135 1_545 S
Co112 O113 2.216 1_455 S
Co112 O114 2.091 . S
Co112 O116 2.004 . S
Co112 O122 2.021 . S
Co112 O124 2.137 1_455 S
Co112 O125 2.244 1_455 S
O113 Co112 2.216 1_655 S
O113 C120 1.247 1_655 S
O114 Co112 2.091 . S
O114 C120 1.261 . S
C115 O124 1.247 . S
C115 O125 1.272 . S
O116 Co112 2.004 . S
O116 C121 1.259 . S
Co117 O118 2.061 . S
Co117 O123 2.052 . S
Co117 O125 2.135 1_455 S
O118 Co117 2.061 . S
O118 C121 1.235 . S
C119 O122 1.238 . S
C119 O123 1.241 . S
C120 O113 1.247 1_455 S
C120 O114 1.261 . S
C121 O116 1.259 . S
C121 O118 1.235 . S
O122 Co112 2.021 . S
O122 C119 1.238 . S
O123 Co117 2.052 . S
O123 C119 1.241 . S
O124 Co112 2.137 1_655 S
O124 C115 1.247 . S
O125 Co112 2.244 1_655 S
O125 C115 1.272 . S
O125 Co117 2.135 1_655 S
Co126 O127 2.216 1_565 S
Co126 O128 2.091 . S
Co126 O130 2.004 . S
Co126 O136 2.021 . S
Co126 O138 2.137 1_565 S
Co126 O139 2.244 1_565 S
O127 Co126 2.216 1_545 S
O127 C134 1.246 . S
O128 Co126 2.091 . S
O128 C134 1.256 1_565 S
C129 O138 1.247 . S
C129 O139 1.272 . S
O130 Co126 2.004 . S
O130 C135 1.259 . S
Co131 O132 2.061 . S
Co131 O137 2.052 . S
Co131 O139 2.135 1_565 S
O132 Co131 2.061 . S
O132 C135 1.235 . S
C133 O136 1.238 . S
C133 O137 1.241 . S
C134 O127 1.246 . S
C134 O128 1.256 1_545 S
C135 O130 1.259 . S
C135 O132 1.235 . S
O136 Co126 2.021 . S
O136 C133 1.238 . S
O137 Co131 2.052 . S
O137 C133 1.241 . S
O138 Co126 2.137 1_545 S
O138 C129 1.247 . S
O139 Co126 2.244 1_545 S
O139 C129 1.272 . S
O139 Co131 2.135 1_545 S
Co140 O141 2.216 1_455 S
Co140 O142 2.091 1_455 S
Co140 O144 2.004 . S
Co140 O150 2.021 . S
Co140 O152 2.137 1_455 S
Co140 O153 2.244 . S
O141 Co140 2.216 1_655 S
O141 C148 1.247 . S
O142 Co140 2.091 1_655 S
O142 C148 1.261 . S
C143 O152 1.247 1_455 S
C143 O153 1.272 . S
O144 Co140 2.004 . S
O144 C149 1.259 . S
Co145 O146 2.061 . S
Co145 O151 2.052 . S
Co145 O153 2.135 . S
O146 Co145 2.061 . S
O146 C149 1.235 . S
C147 O150 1.238 . S
C147 O151 1.241 . S
C148 O141 1.247 . S
C148 O142 1.261 . S
C149 O144 1.259 . S
C149 O146 1.235 . S
O150 Co140 2.021 . S
O150 C147 1.238 . S
O151 Co145 2.052 . S
O151 C147 1.241 . S
O152 Co140 2.137 1_655 S
O152 C143 1.247 1_655 S
O153 Co140 2.244 . S
O153 C143 1.272 . S
O153 Co145 2.135 . S
Co154 O155 2.216 . S
Co154 O156 2.091 . S
Co154 O158 2.004 . S
Co154 O164 2.021 . S
Co154 O166 2.137 . S
Co154 O167 2.244 . S
O155 Co154 2.216 . S
O155 C162 1.247 . S
O156 Co154 2.091 . S
O156 C162 1.261 . S
C157 O166 1.247 . S
C157 O167 1.272 . S
O158 Co154 2.004 . S
O158 C163 1.259 . S
Co159 O160 2.061 . S
Co159 O165 2.052 . S
Co159 O167 2.135 . S
O160 Co159 2.061 . S
O160 C163 1.235 . S
C161 O164 1.238 . S
C161 O165 1.241 . S
C162 O155 1.247 . S
C162 O156 1.261 . S
C163 O158 1.259 . S
C163 O160 1.235 . S
O164 Co154 2.021 . S
O164 C161 1.238 . S
O165 Co159 2.052 . S
O165 C161 1.241 . S
O166 Co154 2.137 . S
O166 C157 1.247 . S
O167 Co154 2.244 . S
O167 C157 1.272 . S
O167 Co159 2.135 . S
Co168 O169 2.216 1_545 S
Co168 O170 2.091 . S
Co168 O172 2.004 . S
Co168 O178 2.021 . S
Co168 O180 2.137 1_545 S
Co168 O181 2.244 1_545 S
O169 Co168 2.216 1_565 S
O169 C176 1.247 1_565 S
O170 Co168 2.091 . S
O170 C176 1.269 . S
C171 O180 1.247 . S
C171 O181 1.272 . S
O172 Co168 2.004 . S
O172 C177 1.259 . S
Co173 O174 2.061 . S
Co173 O179 2.052 . S
Co173 O181 2.135 1_545 S
O174 Co173 2.061 . S
O174 C177 1.235 . S
C175 O178 1.238 . S
C175 O179 1.241 . S
C176 O169 1.247 1_545 S
C176 O170 1.269 . S
C177 O172 1.259 . S
C177 O174 1.235 . S
O178 Co168 2.021 . S
O178 C175 1.238 . S
O179 Co173 2.052 . S
O179 C175 1.241 . S
O180 Co168 2.137 1_565 S
O180 C171 1.247 . S
O181 Co168 2.244 1_565 S
O181 C171 1.272 . S
O181 Co173 2.135 1_565 S
Co182 O183 2.216 1_655 S
Co182 O184 2.091 1_655 S
Co182 O186 2.004 . S
Co182 O192 2.021 . S
Co182 O194 2.137 1_655 S
Co182 O195 2.244 . S
O183 Co182 2.216 1_455 S
O183 C190 1.247 . S
O184 Co182 2.091 1_455 S
O184 C190 1.261 . S
C185 O194 1.255 . S
C185 O195 1.267 1_455 S
O186 Co182 2.004 . S
O186 C191 1.259 . S
Co187 O188 2.061 . S
Co187 O193 2.052 . S
Co187 O195 2.135 . S
O188 Co187 2.061 . S
O188 C191 1.235 . S
C189 O192 1.238 . S
C189 O193 1.241 . S
C190 O183 1.247 . S
C190 O184 1.261 . S
C191 O186 1.259 . S
C191 O188 1.235 . S
O192 Co182 2.021 . S
O192 C189 1.238 . S
O193 Co187 2.052 . S
O193 C189 1.241 . S
O194 Co182 2.137 1_455 S
O194 C185 1.255 . S
O195 Co182 2.244 . S
O195 C185 1.267 1_655 S
O195 Co187 2.135 . S
Co196 O197 2.216 . S
Co196 O198 2.091 . S
Co196 O200 2.004 . S
Co196 O206 2.021 . S
Co196 O208 2.137 . S
Co196 O209 2.244 . S
O197 Co196 2.216 . S
O197 C204 1.247 . S
O198 Co196 2.091 . S
O198 C204 1.261 . S
C199 O208 1.247 . S
C199 O209 1.272 . S
O200 Co196 2.004 . S
O200 C205 1.259 . S
Co201 O202 2.061 . S
Co201 O207 2.052 . S
Co201 O209 2.135 . S
O202 Co201 2.061 . S
O202 C205 1.235 . S
C203 O206 1.238 . S
C203 O207 1.241 . S
C204 O197 1.247 . S
C204 O198 1.261 . S
C205 O200 1.259 . S
C205 O202 1.235 . S
O206 Co196 2.021 . S
O206 C203 1.238 . S
O207 Co201 2.052 . S
O207 C203 1.241 . S
O208 Co196 2.137 . S
O208 C199 1.247 . S
O209 Co196 2.244 . S
O209 C199 1.272 . S
O209 Co201 2.135 . S
Co210 O211 2.216 . S
Co210 O212 2.091 . S
Co210 O214 2.004 . S
Co210 O220 2.021 . S
Co210 O222 2.137 . S
Co210 O223 2.244 . S
O211 Co210 2.216 . S
O211 C218 1.247 . S
O212 Co210 2.091 . S
O212 C218 1.261 . S
C213 O222 1.247 . S
C213 O223 1.272 . S
O214 Co210 2.004 . S
O214 C219 1.259 . S
Co215 O216 2.061 . S
Co215 O221 2.052 . S
Co215 O223 2.135 . S
O216 Co215 2.061 . S
O216 C219 1.235 . S
C217 O220 1.238 . S
C217 O221 1.241 . S
C218 O211 1.247 . S
C218 O212 1.261 . S
C219 O214 1.259 . S
C219 O216 1.235 . S
O220 Co210 2.021 . S
O220 C217 1.238 . S
O221 Co215 2.052 . S
O221 C217 1.241 . S
O222 Co210 2.137 . S
O222 C213 1.247 . S
O223 Co210 2.244 . S
O223 C213 1.272 . S
O223 Co215 2.135 . S
Co224 O225 2.216 1_545 S
Co224 O226 2.091 . S
Co224 O228 2.004 . S
Co224 O234 2.021 . S
Co224 O236 2.137 1_545 S
Co224 O237 2.244 1_545 S
O225 Co224 2.216 1_565 S
O225 C232 1.231 1_565 S
O226 Co224 2.091 . S
O226 C232 1.272 . S
C227 O236 1.247 . S
C227 O237 1.272 . S
O228 Co224 2.004 . S
O228 C233 1.259 . S
Co229 O230 2.061 . S
Co229 O235 2.052 . S
Co229 O237 2.135 1_545 S
O230 Co229 2.061 . S
O230 C233 1.235 . S
C231 O234 1.238 . S
C231 O235 1.241 . S
C232 O225 1.231 1_545 S
C232 O226 1.272 . S
C233 O228 1.259 . S
C233 O230 1.235 . S
O234 Co224 2.021 . S
O234 C231 1.238 . S
O235 Co229 2.052 . S
O235 C231 1.241 . S
O236 Co224 2.137 1_565 S
O236 C227 1.247 . S
O237 Co224 2.244 1_565 S
O237 C227 1.272 . S
O237 Co229 2.135 1_565 S
Co238 O239 2.216 1_655 S
Co238 O240 2.091 . S
Co238 O242 2.004 . S
Co238 O248 2.021 . S
Co238 O250 2.137 1_655 S
Co238 O251 2.244 1_655 S
O239 Co238 2.216 1_455 S
O239 C246 1.247 1_455 S
O240 Co238 2.091 . S
O240 C246 1.261 . S
C241 O250 1.247 . S
C241 O251 1.272 . S
O242 Co238 2.004 . S
O242 C247 1.259 . S
Co243 O244 2.061 . S
Co243 O249 2.052 . S
Co243 O251 2.135 1_655 S
O244 Co243 2.061 . S
O244 C247 1.235 . S
C245 O248 1.238 . S
C245 O249 1.241 . S
C246 O239 1.247 1_655 S
C246 O240 1.261 . S
C247 O242 1.259 . S
C247 O244 1.235 . S
O248 Co238 2.021 . S
O248 C245 1.238 . S
O249 Co243 2.052 . S
O249 C245 1.241 . S
O250 Co238 2.137 1_455 S
O250 C241 1.247 . S
O251 Co238 2.244 1_455 S
O251 C241 1.272 . S
O251 Co243 2.135 1_455 S
H252 C260 0.930 . S
H253 C263 0.930 . S
H254 C265 0.930 . S
H255 C266 0.970 . S
H256 C266 0.970 . S
H257 C268 0.930 . S
H258 C270 0.930 . S
H259 C272 0.930 . S
C260 H252 0.930 . S
C260 C261 1.382 . S
C260 C262 1.426 . S
C261 C260 1.382 . S
C261 C265 1.389 . S
C262 C260 1.426 . S
C262 C263 1.375 . S
C262 C266 1.532 . S
C263 H253 0.930 . S
C263 C262 1.375 . S
C263 C264 1.416 . S
C264 C263 1.416 . S
C264 C265 1.371 . S
C265 H254 0.930 . S
C265 C261 1.389 . S
C265 C264 1.371 . S
C266 H255 0.970 . S
C266 H256 0.970 . S
C266 C262 1.532 . S
C266 C267 1.499 . S
C267 C266 1.499 . S
C267 C268 1.370 . S
C267 C272 1.415 . S
C268 H257 0.930 . S
C268 C267 1.370 . S
C268 C269 1.407 . S
C269 C268 1.407 . S
C269 C270 1.365 . S
C270 H258 0.930 . S
C270 C269 1.365 . S
C270 C271 1.393 . S
C271 C270 1.393 . S
C271 C272 1.387 . S
C272 H259 0.930 . S
C272 C267 1.415 . S
C272 C271 1.387 . S
H273 C281 0.930 . S
H274 C284 0.930 . S
H275 C286 0.930 . S
H276 C287 0.970 . S
H277 C287 0.970 . S
H278 C289 0.930 . S
H279 C291 0.930 . S
H280 C293 0.930 . S
C281 H273 0.930 . S
C281 C282 1.382 . S
C281 C283 1.426 . S
C282 C281 1.382 . S
C282 C286 1.389 . S
C283 C281 1.426 . S
C283 C284 1.375 . S
C283 C287 1.532 . S
C284 H274 0.930 . S
C284 C283 1.375 . S
C284 C285 1.416 . S
C285 C284 1.416 . S
C285 C286 1.371 . S
C286 H275 0.930 . S
C286 C282 1.389 . S
C286 C285 1.371 . S
C287 H276 0.970 . S
C287 H277 0.970 . S
C287 C283 1.532 . S
C287 C288 1.499 . S
C288 C287 1.499 . S
C288 C289 1.370 . S
C288 C293 1.415 . S
C289 H278 0.930 . S
C289 C288 1.370 . S
C289 C290 1.407 . S
C290 C289 1.407 . S
C290 C291 1.365 . S
C291 H279 0.930 . S
C291 C290 1.365 . S
C291 C292 1.393 . S
C292 C291 1.393 . S
C292 C293 1.387 . S
C293 H280 0.930 . S
C293 C288 1.415 . S
C293 C292 1.387 . S
H294 C302 0.930 . S
H295 C305 0.930 . S
H296 C307 0.930 . S
H297 C308 0.970 . S
H298 C308 0.970 . S
H299 C310 0.930 . S
H300 C312 0.930 . S
H301 C314 0.930 . S
C302 H294 0.930 . S
C302 C303 1.382 . S
C302 C304 1.426 . S
C303 C302 1.382 . S
C303 C307 1.389 . S
C304 C302 1.426 . S
C304 C305 1.375 . S
C304 C308 1.532 . S
C305 H295 0.930 . S
C305 C304 1.375 . S
C305 C306 1.416 . S
C306 C305 1.416 . S
C306 C307 1.371 . S
C307 H296 0.930 . S
C307 C303 1.389 . S
C307 C306 1.371 . S
C308 H297 0.970 . S
C308 H298 0.970 . S
C308 C304 1.532 . S
C308 C309 1.499 . S
C309 C308 1.499 . S
C309 C310 1.370 . S
C309 C314 1.415 . S
C310 H299 0.930 . S
C310 C309 1.370 . S
C310 C311 1.407 . S
C311 C310 1.407 . S
C311 C312 1.365 . S
C312 H300 0.930 . S
C312 C311 1.365 . S
C312 C313 1.393 . S
C313 C312 1.393 . S
C313 C314 1.387 . S
C314 H301 0.930 . S
C314 C309 1.415 . S
C314 C313 1.387 . S
H315 C323 0.930 . S
H316 C326 0.930 . S
H317 C328 0.930 . S
H318 C329 0.970 . S
H319 C329 0.970 . S
H320 C331 0.930 . S
H321 C333 0.930 . S
H322 C335 0.930 . S
C323 H315 0.930 . S
C323 C324 1.382 . S
C323 C325 1.426 . S
C324 C323 1.382 . S
C324 C328 1.389 . S
C325 C323 1.426 . S
C325 C326 1.375 . S
C325 C329 1.532 . S
C326 H316 0.930 . S
C326 C325 1.375 . S
C326 C327 1.416 . S
C327 C326 1.416 . S
C327 C328 1.371 . S
C328 H317 0.930 . S
C328 C324 1.389 . S
C328 C327 1.371 . S
C329 H318 0.970 . S
C329 H319 0.970 . S
C329 C325 1.532 . S
C329 C330 1.499 . S
C330 C329 1.499 . S
C330 C331 1.370 . S
C330 C335 1.415 . S
C331 H320 0.930 . S
C331 C330 1.370 . S
C331 C332 1.407 . S
C332 C331 1.407 . S
C332 C333 1.365 . S
C333 H321 0.930 . S
C333 C332 1.365 . S
C333 C334 1.393 . S
C334 C333 1.393 . S
C334 C335 1.387 . S
C335 H322 0.930 . S
C335 C330 1.415 . S
C335 C334 1.387 . S
H336 C344 0.930 . S
H337 C347 0.930 . S
H338 C349 0.930 . S
H339 C350 0.970 . S
H340 C350 0.970 . S
H341 C352 0.930 . S
H342 C354 0.930 . S
H343 C356 0.930 . S
C344 H336 0.930 . S
C344 C345 1.382 . S
C344 C346 1.426 . S
C345 C344 1.382 . S
C345 C349 1.389 . S
C346 C344 1.426 . S
C346 C347 1.375 . S
C346 C350 1.532 . S
C347 H337 0.930 . S
C347 C346 1.375 . S
C347 C348 1.416 . S
C348 C347 1.416 . S
C348 C349 1.371 . S
C349 H338 0.930 . S
C349 C345 1.389 . S
C349 C348 1.371 . S
C350 H339 0.970 . S
C350 H340 0.970 . S
C350 C346 1.532 . S
C350 C351 1.499 . S
C351 C350 1.499 . S
C351 C352 1.370 . S
C351 C356 1.415 . S
C352 H341 0.930 . S
C352 C351 1.370 . S
C352 C353 1.407 . S
C353 C352 1.407 . S
C353 C354 1.365 . S
C354 H342 0.930 . S
C354 C353 1.365 . S
C354 C355 1.393 . S
C355 C354 1.393 . S
C355 C356 1.387 . S
C356 H343 0.930 . S
C356 C351 1.415 . S
C356 C355 1.387 . S
H357 C365 0.930 . S
H358 C368 0.930 . S
H359 C370 0.930 . S
H360 C371 0.970 . S
H361 C371 0.970 . S
H362 C373 0.930 . S
H363 C375 0.930 . S
H364 C377 0.930 . S
C365 H357 0.930 . S
C365 C366 1.382 . S
C365 C367 1.426 . S
C366 C365 1.382 . S
C366 C370 1.389 . S
C367 C365 1.426 . S
C367 C368 1.375 . S
C367 C371 1.532 . S
C368 H358 0.930 . S
C368 C367 1.375 . S
C368 C369 1.416 . S
C369 C368 1.416 . S
C369 C370 1.371 . S
C370 H359 0.930 . S
C370 C366 1.389 . S
C370 C369 1.371 . S
C371 H360 0.970 . S
C371 H361 0.970 . S
C371 C367 1.532 . S
C371 C372 1.499 . S
C372 C371 1.499 . S
C372 C373 1.370 . S
C372 C377 1.415 . S
C373 H362 0.930 . S
C373 C372 1.370 . S
C373 C374 1.407 . S
C374 C373 1.407 . S
C374 C375 1.365 . S
C375 H363 0.930 . S
C375 C374 1.365 . S
C375 C376 1.393 . S
C376 C375 1.393 . S
C376 C377 1.387 . S
C377 H364 0.930 . S
C377 C372 1.415 . S
C377 C376 1.387 . S
H378 C386 0.930 . S
H379 C389 0.930 . S
H380 C391 0.930 . S
H381 C392 0.970 . S
H382 C392 0.970 . S
H383 C394 0.930 . S
H384 C396 0.930 . S
H385 C398 0.930 . S
C386 H378 0.930 . S
C386 C387 1.382 . S
C386 C388 1.426 . S
C387 C386 1.382 . S
C387 C391 1.389 . S
C388 C386 1.426 . S
C388 C389 1.375 . S
C388 C392 1.532 . S
C389 H379 0.930 . S
C389 C388 1.375 . S
C389 C390 1.416 . S
C390 C389 1.416 . S
C390 C391 1.371 . S
C391 H380 0.930 . S
C391 C387 1.389 . S
C391 C390 1.371 . S
C392 H381 0.970 . S
C392 H382 0.970 . S
C392 C388 1.532 . S
C392 C393 1.499 . S
C393 C392 1.499 . S
C393 C394 1.370 . S
C393 C398 1.415 . S
C394 H383 0.930 . S
C394 C393 1.370 . S
C394 C395 1.407 . S
C395 C394 1.407 . S
C395 C396 1.365 . S
C396 H384 0.930 . S
C396 C395 1.365 . S
C396 C397 1.393 . S
C397 C396 1.393 . S
C397 C398 1.387 . S
C398 H385 0.930 . S
C398 C393 1.415 . S
C398 C397 1.387 . S
H399 C407 0.930 . S
H400 C410 0.930 . S
H401 C412 0.930 . S
H402 C413 0.970 . S
H403 C413 0.970 . S
H404 C415 0.930 . S
H405 C417 0.930 . S
H406 C419 0.930 . S
C407 H399 0.930 . S
C407 C408 1.382 . S
C407 C409 1.426 . S
C408 C407 1.382 . S
C408 C412 1.389 . S
C409 C407 1.426 . S
C409 C410 1.375 . S
C409 C413 1.532 . S
C410 H400 0.930 . S
C410 C409 1.375 . S
C410 C411 1.416 . S
C411 C410 1.416 . S
C411 C412 1.371 . S
C412 H401 0.930 . S
C412 C408 1.389 . S
C412 C411 1.371 . S
C413 H402 0.970 . S
C413 H403 0.970 . S
C413 C409 1.532 . S
C413 C414 1.499 . S
C414 C413 1.499 . S
C414 C415 1.370 . S
C414 C419 1.415 . S
C415 H404 0.930 . S
C415 C414 1.370 . S
C415 C416 1.407 . S
C416 C415 1.407 . S
C416 C417 1.365 . S
C417 H405 0.930 . S
C417 C416 1.365 . S
C417 C418 1.393 . S
C418 C417 1.393 . S
C418 C419 1.387 . S
C419 H406 0.930 . S
C419 C414 1.415 . S
C419 C418 1.387 . S
H420 C428 0.930 . S
H421 C431 0.930 . S
H422 C433 0.930 . S
H423 C434 0.970 . S
H424 C434 0.970 . S
H425 C436 0.930 . S
H426 C438 0.930 . S
H427 C440 0.930 . S
C428 H420 0.930 . S
C428 C429 1.382 . S
C428 C430 1.426 . S
C429 C428 1.382 . S
C429 C433 1.389 . S
C430 C428 1.426 . S
C430 C431 1.375 . S
C430 C434 1.532 . S
C431 H421 0.930 . S
C431 C430 1.375 . S
C431 C432 1.416 . S
C432 C431 1.416 . S
C432 C433 1.371 . S
C433 H422 0.930 . S
C433 C429 1.389 . S
C433 C432 1.371 . S
C434 H423 0.970 . S
C434 H424 0.970 . S
C434 C430 1.532 . S
C434 C435 1.499 . S
C435 C434 1.499 . S
C435 C436 1.370 . S
C435 C440 1.415 . S
C436 H425 0.930 . S
C436 C435 1.370 . S
C436 C437 1.407 . S
C437 C436 1.407 . S
C437 C438 1.365 . S
C438 H426 0.930 . S
C438 C437 1.365 . S
C438 C439 1.393 . S
C439 C438 1.393 . S
C439 C440 1.387 . S
C440 H427 0.930 . S
C440 C435 1.415 . S
C440 C439 1.387 . S
H441 C449 0.930 . S
H442 C452 0.930 . S
H443 C454 0.930 . S
H444 C455 0.970 . S
H445 C455 0.970 . S
H446 C457 0.930 . S
H447 C459 0.930 . S
H448 C461 0.930 . S
C449 H441 0.930 . S
C449 C450 1.382 . S
C449 C451 1.426 . S
C450 C449 1.382 . S
C450 C454 1.389 1_455 S
C451 C449 1.426 . S
C451 C452 1.375 . S
C451 C455 1.532 . S
C452 H442 0.930 . S
C452 C451 1.375 . S
C452 C453 1.416 . S
C453 C452 1.416 . S
C453 C454 1.371 1_455 S
C454 H443 0.930 . S
C454 C450 1.389 1_655 S
C454 C453 1.371 1_655 S
C455 H444 0.970 . S
C455 H445 0.970 . S
C455 C451 1.532 . S
C455 C456 1.499 . S
C456 C455 1.499 . S
C456 C457 1.370 . S
C456 C461 1.415 . S
C457 H446 0.930 . S
C457 C456 1.370 . S
C457 C458 1.407 . S
C458 C457 1.407 . S
C458 C459 1.365 1_455 S
C459 H447 0.930 . S
C459 C458 1.365 1_655 S
C459 C460 1.393 1_655 S
C460 C459 1.393 1_455 S
C460 C461 1.387 . S
C461 H448 0.930 . S
C461 C456 1.415 . S
C461 C460 1.387 . S
H462 C470 0.930 . S
H463 C473 0.930 . S
H464 C475 0.930 . S
H465 C476 0.970 . S
H466 C476 0.970 . S
H467 C478 0.930 . S
H468 C480 0.930 . S
H469 C482 0.930 . S
C470 H462 0.930 . S
C470 C471 1.382 . S
C470 C472 1.426 . S
C471 C470 1.382 . S
C471 C475 1.389 . S
C472 C470 1.426 . S
C472 C473 1.375 . S
C472 C476 1.532 . S
C473 H463 0.930 . S
C473 C472 1.375 . S
C473 C474 1.416 . S
C474 C473 1.416 . S
C474 C475 1.371 . S
C475 H464 0.930 . S
C475 C471 1.389 . S
C475 C474 1.371 . S
C476 H465 0.970 . S
C476 H466 0.970 . S
C476 C472 1.532 . S
C476 C477 1.499 . S
C477 C476 1.499 . S
C477 C478 1.370 . S
C477 C482 1.415 . S
C478 H467 0.930 . S
C478 C477 1.370 . S
C478 C479 1.407 . S
C479 C478 1.407 . S
C479 C480 1.365 . S
C480 H468 0.930 . S
C480 C479 1.365 . S
C480 C481 1.393 . S
C481 C480 1.393 . S
C481 C482 1.387 . S
C482 H469 0.930 . S
C482 C477 1.415 . S
C482 C481 1.387 . S
H483 C491 0.930 . S
H484 C494 0.930 . S
H485 C496 0.930 . S
H486 C497 0.970 . S
H487 C497 0.970 . S
H488 C499 0.930 . S
H489 C501 0.930 . S
H490 C503 0.930 . S
C491 H483 0.930 . S
C491 C492 1.382 . S
C491 C493 1.426 . S
C492 C491 1.382 . S
C492 C496 1.389 1_565 S
C493 C491 1.426 . S
C493 C494 1.375 . S
C493 C497 1.532 . S
C494 H484 0.930 . S
C494 C493 1.375 . S
C494 C495 1.416 . S
C495 C494 1.416 . S
C495 C496 1.371 1_565 S
C496 H485 0.930 . S
C496 C492 1.389 1_545 S
C496 C495 1.371 1_545 S
C497 H486 0.970 . S
C497 H487 0.970 . S
C497 C493 1.532 . S
C497 C498 1.499 . S
C498 C497 1.499 . S
C498 C499 1.370 . S
C498 C503 1.415 . S
C499 H488 0.930 . S
C499 C498 1.370 . S
C499 C500 1.407 . S
C500 C499 1.407 . S
C500 C501 1.365 1_565 S
C501 H489 0.930 . S
C501 C500 1.365 1_545 S
C501 C502 1.393 1_545 S
C502 C501 1.393 1_565 S
C502 C503 1.387 . S
C503 H490 0.930 . S
C503 C498 1.415 . S
C503 C502 1.387 . S
H504 C512 0.930 . S
H505 C515 0.930 . S
H506 C517 0.930 . S
H507 C518 0.970 . S
H508 C518 0.970 . S
H509 C520 0.930 . S
H510 C522 0.930 . S
H511 C524 0.930 . S
C512 H504 0.930 . S
C512 C513 1.382 . S
C512 C514 1.426 . S
C513 C512 1.382 . S
C513 C517 1.389 1_565 S
C514 C512 1.426 . S
C514 C515 1.375 . S
C514 C518 1.532 . S
C515 H505 0.930 . S
C515 C514 1.375 . S
C515 C516 1.416 . S
C516 C515 1.416 . S
C516 C517 1.371 1_565 S
C517 H506 0.930 . S
C517 C513 1.389 1_545 S
C517 C516 1.371 1_545 S
C518 H507 0.970 . S
C518 H508 0.970 . S
C518 C514 1.532 . S
C518 C519 1.499 . S
C519 C518 1.499 . S
C519 C520 1.370 . S
C519 C524 1.415 . S
C520 H509 0.930 . S
C520 C519 1.370 . S
C520 C521 1.407 . S
C521 C520 1.407 . S
C521 C522 1.365 1_565 S
C522 H510 0.930 . S
C522 C521 1.365 1_545 S
C522 C523 1.393 1_545 S
C523 C522 1.393 1_565 S
C523 C524 1.387 . S
C524 H511 0.930 . S
C524 C519 1.415 . S
C524 C523 1.387 . S
H525 C533 0.930 . S
H526 C536 0.930 . S
H527 C538 0.930 . S
H528 C539 0.970 . S
H529 C539 0.970 . S
H530 C541 0.930 . S
H531 C543 0.930 . S
H532 C545 0.930 . S
C533 H525 0.930 . S
C533 C534 1.382 . S
C533 C535 1.426 . S
C534 C533 1.382 . S
C534 C538 1.389 1_455 S
C535 C533 1.426 . S
C535 C536 1.375 . S
C535 C539 1.532 . S
C536 H526 0.930 . S
C536 C535 1.375 . S
C536 C537 1.416 . S
C537 C536 1.416 . S
C537 C538 1.371 1_455 S
C538 H527 0.930 . S
C538 C534 1.389 1_655 S
C538 C537 1.371 1_655 S
C539 H528 0.970 . S
C539 H529 0.970 . S
C539 C535 1.532 . S
C539 C540 1.499 . S
C540 C539 1.499 . S
C540 C541 1.370 . S
C540 C545 1.415 . S
C541 H530 0.930 . S
C541 C540 1.370 . S
C541 C542 1.407 . S
C542 C541 1.407 . S
C542 C543 1.365 1_455 S
C543 H531 0.930 . S
C543 C542 1.365 1_655 S
C543 C544 1.393 1_655 S
C544 C543 1.393 1_455 S
C544 C545 1.387 . S
C545 H532 0.930 . S
C545 C540 1.415 . S
C545 C544 1.387 . S
H546 C554 0.930 . S
H547 C557 0.930 . S
H548 C559 0.930 . S
H549 C560 0.970 . S
H550 C560 0.970 . S
H551 C562 0.930 . S
H552 C564 0.930 . S
H553 C566 0.930 . S
C554 H546 0.930 . S
C554 C555 1.382 . S
C554 C556 1.426 . S
C555 C554 1.382 . S
C555 C559 1.389 . S
C556 C554 1.426 . S
C556 C557 1.375 . S
C556 C560 1.532 . S
C557 H547 0.930 . S
C557 C556 1.375 . S
C557 C558 1.416 . S
C558 C557 1.416 . S
C558 C559 1.371 . S
C559 H548 0.930 . S
C559 C555 1.389 . S
C559 C558 1.371 . S
C560 H549 0.970 . S
C560 H550 0.970 . S
C560 C556 1.532 . S
C560 C561 1.499 . S
C561 C560 1.499 . S
C561 C562 1.370 . S
C561 C566 1.415 . S
C562 H551 0.930 . S
C562 C561 1.370 . S
C562 C563 1.407 . S
C563 C562 1.407 . S
C563 C564 1.365 . S
C564 H552 0.930 . S
C564 C563 1.365 . S
C564 C565 1.393 . S
C565 C564 1.393 . S
C565 C566 1.387 . S
C566 H553 0.930 . S
C566 C561 1.415 . S
C566 C565 1.387 . S
H567 C575 0.930 . S
H568 C578 0.930 . S
H569 C580 0.930 . S
H570 C581 0.970 . S
H571 C581 0.970 . S
H572 C583 0.930 . S
H573 C585 0.930 . S
H574 C587 0.930 . S
C575 H567 0.930 . S
C575 C576 1.382 . S
C575 C577 1.426 . S
C576 C575 1.382 . S
C576 C580 1.389 . S
C577 C575 1.426 . S
C577 C578 1.375 . S
C577 C581 1.532 . S
C578 H568 0.930 . S
C578 C577 1.375 . S
C578 C579 1.416 . S
C579 C578 1.416 . S
C579 C580 1.371 . S
C580 H569 0.930 . S
C580 C576 1.389 . S
C580 C579 1.371 . S
C581 H570 0.970 . S
C581 H571 0.970 . S
C581 C577 1.532 . S
C581 C582 1.499 . S
C582 C581 1.499 . S
C582 C583 1.370 . S
C582 C587 1.415 . S
C583 H572 0.930 . S
C583 C582 1.370 . S
C583 C584 1.407 . S
C584 C583 1.407 . S
C584 C585 1.365 . S
C585 H573 0.930 . S
C585 C584 1.365 . S
C585 C586 1.393 . S
C586 C585 1.393 . S
C586 C587 1.387 . S
C587 H574 0.930 . S
C587 C582 1.415 . S
C587 C586 1.387 . S
H588 C596 0.930 . S
H589 C599 0.930 . S
H590 C601 0.930 . S
H591 C602 0.970 . S
H592 C602 0.970 . S
H593 C604 0.930 . S
H594 C606 0.930 . S
H595 C608 0.930 . S
C596 H588 0.930 . S
C596 C597 1.382 . S
C596 C598 1.426 . S
C597 C596 1.382 . S
C597 C601 1.389 . S
C598 C596 1.426 . S
C598 C599 1.375 . S
C598 C602 1.532 . S
C599 H589 0.930 . S
C599 C598 1.375 . S
C599 C600 1.416 . S
C600 C599 1.416 . S
C600 C601 1.371 . S
C601 H590 0.930 . S
C601 C597 1.389 . S
C601 C600 1.371 . S
C602 H591 0.970 . S
C602 H592 0.970 . S
C602 C598 1.532 . S
C602 C603 1.499 . S
C603 C602 1.499 . S
C603 C604 1.370 . S
C603 C608 1.415 . S
C604 H593 0.930 . S
C604 C603 1.370 . S
C604 C605 1.407 . S
C605 C604 1.407 . S
C605 C606 1.365 . S
C606 H594 0.930 . S
C606 C605 1.365 . S
C606 C607 1.393 . S
C607 C606 1.393 . S
C607 C608 1.387 . S
C608 H595 0.930 . S
C608 C603 1.415 . S
C608 C607 1.387 . S
H609 C617 0.930 . S
H610 C620 0.930 . S
H611 C622 0.930 . S
H612 C623 0.970 . S
H613 C623 0.970 . S
H614 C625 0.930 . S
H615 C627 0.930 . S
H616 C629 0.930 . S
C617 H609 0.930 . S
C617 C618 1.382 . S
C617 C619 1.426 . S
C618 C617 1.382 . S
C618 C622 1.389 . S
C619 C617 1.426 . S
C619 C620 1.375 . S
C619 C623 1.532 . S
C620 H610 0.930 . S
C620 C619 1.375 . S
C620 C621 1.416 . S
C621 C620 1.416 . S
C621 C622 1.371 . S
C622 H611 0.930 . S
C622 C618 1.389 . S
C622 C621 1.371 . S
C623 H612 0.970 . S
C623 H613 0.970 . S
C623 C619 1.532 . S
C623 C624 1.499 . S
C624 C623 1.499 . S
C624 C625 1.370 . S
C624 C629 1.415 . S
C625 H614 0.930 . S
C625 C624 1.370 . S
C625 C626 1.407 . S
C626 C625 1.407 . S
C626 C627 1.365 . S
C627 H615 0.930 . S
C627 C626 1.365 . S
C627 C628 1.393 . S
C628 C627 1.393 . S
C628 C629 1.387 . S
C629 H616 0.930 . S
C629 C624 1.415 . S
C629 C628 1.387 . S
C7 C458 1.594 1_655 S
C23 C471 1.806 . S
C500 C37 1.462 . S
C35 C513 1.578 . S
C9 C534 1.667 1_655 S
C21 C563 1.622 . S
C49 C542 1.571 . S
C555 C65 1.550 . S
C521 C79 1.517 1_565 S
C77 C492 1.663 1_545 S
C450 C51 1.536 . S
C63 C479 1.651 . S
C91 C584 1.632 . S
C107 C597 1.897 . S
C626 C121 1.630 . S
C119 C261 1.758 . S
C93 C282 1.921 . S
C105 C311 1.675 . S
C133 C290 1.642 . S
C149 C303 1.598 . S
C269 C163 1.730 . S
C618 C161 1.640 . S
C576 C135 1.626 . S
C605 C147 1.726 . S
C175 C332 1.603 . S
C191 C345 1.863 . S
C205 C374 1.608 . S
C203 C387 1.792 . S
C408 C177 1.949 . S
C437 C189 1.679 . S
C416 C217 1.679 . S
C429 C233 1.614 . S
C247 C395 1.758 . S
C366 C245 1.614 . S
C219 C324 1.616 . S
C353 C231 1.716 . S
C264 C8 1.479 . S
C17 C285 1.335 . S
C313 C31 1.373 . S
C334 C36 1.408 . S
C348 C3 1.398 . S
C376 C22 1.309 . S
C50 C369 1.360 . S
C59 C327 1.238 . S
C73 C355 1.528 . S
C78 C292 1.583 . S
C306 C45 1.295 . S
C64 C271 1.499 . S
C390 C92 1.443 . S
C101 C411 1.395 . S
C115 C439 1.396 . S
C460 C120 1.383 . S
C87 C474 1.362 . S
C106 C502 1.395 1_545 S
C134 C495 1.355 1_545 S
C143 C453 1.295 . S
C481 C157 1.478 . S
C162 C418 1.520 . S
C129 C432 1.336 . S
C397 C148 1.532 . S
C516 C176 1.303 1_565 S
C185 C537 1.255 . S
C199 C565 1.363 . S
C586 C204 1.351 . S
C600 C171 1.405 . S
C190 C628 1.372 . S
C218 C621 1.333 . S
C227 C579 1.319 . S
C607 C241 1.506 . S
C544 C246 1.362 1_455 S
C558 C213 1.293 . S
C232 C523 1.343 1_545 S
