# Generated by pormake.
# Topology nom, (4,4)-cn, num edge types: 1
# Building blocks:
#     Node 0, Type 0, BuildingBlock: MUDLON_clean_linker_0, # of connection points: 4
#     Node 1, Type 0, BuildingBlock: MUDLON_clean_linker_0, # of connection points: 4
#     Node 2, Type 0, BuildingBlock: MUDLON_clean_linker_0, # of connection points: 4
#     Node 3, Type 0, BuildingBlock: MUDLON_clean_linker_0, # of connection points: 4
#     Node 4, Type 0, BuildingBlock: MUDLON_clean_linker_0, # of connection points: 4
#     Node 5, Type 0, BuildingBlock: MUDLON_clean_linker_0, # of connection points: 4
#     Node 6, Type 1, BuildingBlock: KUFVIS_clean_sbu_0, # of connection points: 4
#     Node 7, Type 1, BuildingBlock: KUFVIS_clean_sbu_0, # of connection points: 4
#     Node 8, Type 1, BuildingBlock: KUFVIS_clean_sbu_0, # of connection points: 4
#     Node 9, Type 1, BuildingBlock: KUFVIS_clean_sbu_0, # of connection points: 4
#     Node 10, Type 1, BuildingBlock: KUFVIS_clean_sbu_0, # of connection points: 4
#     Node 11, Type 1, BuildingBlock: KUFVIS_clean_sbu_0, # of connection points: 4
#     Edge 12, Type (0, 1), BuildingBlock: XIVTED_clean_linker_0, # of connection points: 2
#     Edge 13, Type (0, 1), BuildingBlock: XIVTED_clean_linker_0, # of connection points: 2
#     Edge 14, Type (0, 1), BuildingBlock: XIVTED_clean_linker_0, # of connection points: 2
#     Edge 15, Type (0, 1), BuildingBlock: XIVTED_clean_linker_0, # of connection points: 2
#     Edge 16, Type (0, 1), BuildingBlock: XIVTED_clean_linker_0, # of connection points: 2
#     Edge 17, Type (0, 1), BuildingBlock: XIVTED_clean_linker_0, # of connection points: 2
#     Edge 18, Type (0, 1), BuildingBlock: XIVTED_clean_linker_0, # of connection points: 2
#     Edge 19, Type (0, 1), BuildingBlock: XIVTED_clean_linker_0, # of connection points: 2
#     Edge 20, Type (0, 1), BuildingBlock: XIVTED_clean_linker_0, # of connection points: 2
#     Edge 21, Type (0, 1), BuildingBlock: XIVTED_clean_linker_0, # of connection points: 2
#     Edge 22, Type (0, 1), BuildingBlock: XIVTED_clean_linker_0, # of connection points: 2
#     Edge 23, Type (0, 1), BuildingBlock: XIVTED_clean_linker_0, # of connection points: 2
#     Edge 24, Type (0, 1), BuildingBlock: XIVTED_clean_linker_0, # of connection points: 2
#     Edge 25, Type (0, 1), BuildingBlock: XIVTED_clean_linker_0, # of connection points: 2
#     Edge 26, Type (0, 1), BuildingBlock: XIVTED_clean_linker_0, # of connection points: 2
#     Edge 27, Type (0, 1), BuildingBlock: XIVTED_clean_linker_0, # of connection points: 2
#     Edge 28, Type (0, 1), BuildingBlock: XIVTED_clean_linker_0, # of connection points: 2
#     Edge 29, Type (0, 1), BuildingBlock: XIVTED_clean_linker_0, # of connection points: 2
#     Edge 30, Type (0, 1), BuildingBlock: XIVTED_clean_linker_0, # of connection points: 2
#     Edge 31, Type (0, 1), BuildingBlock: XIVTED_clean_linker_0, # of connection points: 2
#     Edge 32, Type (0, 1), BuildingBlock: XIVTED_clean_linker_0, # of connection points: 2
#     Edge 33, Type (0, 1), BuildingBlock: XIVTED_clean_linker_0, # of connection points: 2
#     Edge 34, Type (0, 1), BuildingBlock: XIVTED_clean_linker_0, # of connection points: 2
#     Edge 35, Type (0, 1), BuildingBlock: XIVTED_clean_linker_0, # of connection points: 2
# Relax obj value: 0.008
# Max RMSD: 0.106
# Mean RMSD: 0.064
data_MOF--net-nom--node1-KUFVIS_clean_sbu_0--node2-MUDLON_clean_linker_0--edge1-XIVTED_clean_linker_0
_symmetry_space_group_name_H-M    P1
_symmetry_Int_Tables_number       1
_symmetry_cell_setting            triclinic
loop_
_symmetry_equiv_pos_as_xyz
'x, y, z'
_cell_length_a     60.096934
_cell_length_b     61.681521
_cell_length_c     61.035065
_cell_angle_alpha  91.053176
_cell_angle_beta   90.5116
_cell_angle_gamma 120.48606
loop_
_atom_site_label
_atom_site_type_symbol
_atom_site_fract_x
_atom_site_fract_y
_atom_site_fract_z
_atom_type_partial_charge
H0 H 0.12457 0.5373 0.2926 0.0
N1 N 0.10056 0.54603 0.32495 0.0
H2 H 0.16156 0.56885 0.27222 0.0
H3 H 0.11694 0.59637 0.32388 0.0
H4 H 0.1539 0.62779 0.30391 0.0
H5 H 0.09125 0.57404 0.35474 0.0
H6 H 0.11204 0.58865 0.39095 0.0
H7 H 0.12893 0.53097 0.34589 0.0
H8 H 0.14891 0.54448 0.38241 0.0
H9 H 0.0662 0.49811 0.33034 0.0
H10 H 0.07297 0.56801 0.31094 0.0
H11 H 0.01958 0.47669 0.32441 0.0
H12 H 0.02654 0.54651 0.30361 0.0
H13 H 0.88081 0.41271 0.27205 0.0
H14 H 0.86203 0.40789 0.23532 0.0
H15 H 0.90229 0.48878 0.23001 0.0
H16 H 0.92156 0.49333 0.26665 0.0
H17 H 0.89614 0.49129 0.29817 0.0
H18 H 0.85905 0.48739 0.31739 0.0
H19 H 0.84457 0.41693 0.34375 0.0
H20 H 0.88167 0.42082 0.32395 0.0
H21 H 0.94236 0.43895 0.28946 0.0
H22 H 0.98888 0.46189 0.29616 0.0
H23 H 0.98499 0.52673 0.31884 0.0
N24 N 0.90963 0.4551 0.29481 0.0
H25 H 0.93868 0.50403 0.3108 0.0
C26 C 0.1181 0.56436 0.30988 0.0
C27 C 0.13039 0.55698 0.29458 0.0
C28 C 0.15148 0.57499 0.28298 0.0
C29 C 0.16076 0.60075 0.28674 0.0
C30 C 0.14731 0.60806 0.30093 0.0
C31 C 0.12609 0.59005 0.31231 0.0
C32 C 0.10893 0.55168 0.34757 0.0
C33 C 0.10363 0.56736 0.3608 0.0
C34 C 0.1154 0.57556 0.38156 0.0
C35 C 0.1325 0.56807 0.38945 0.0
C36 C 0.13638 0.55112 0.37664 0.0
C37 C 0.12481 0.54316 0.35588 0.0
C38 C 0.07318 0.53447 0.32077 0.0
C39 C 0.05759 0.50874 0.32451 0.0
C40 C 0.03094 0.49652 0.32094 0.0
C41 C 0.01918 0.50972 0.31317 0.0
C42 C 0.03482 0.53573 0.30974 0.0
C43 C 0.06155 0.54805 0.31369 0.0
C44 C 0.90229 0.45325 0.27206 0.0
C45 C 0.88595 0.42933 0.26273 0.0
C46 C 0.87511 0.42667 0.24188 0.0
C47 C 0.88032 0.44799 0.22996 0.0
C48 C 0.89794 0.47203 0.2388 0.0
C49 C 0.90886 0.47466 0.25974 0.0
C50 C 0.89176 0.45629 0.30968 0.0
C51 C 0.8855 0.47535 0.30854 0.0
C52 C 0.86418 0.47307 0.31958 0.0
C53 C 0.84862 0.45168 0.33192 0.0
C54 C 0.85588 0.43343 0.33408 0.0
C55 C 0.87723 0.43575 0.32304 0.0
C56 C 0.93691 0.46948 0.29988 0.0
C57 C 0.95161 0.45811 0.29592 0.0
C58 C 0.9782 0.47125 0.29993 0.0
C59 C 0.99082 0.49615 0.30837 0.0
C60 C 0.97605 0.50768 0.31219 0.0
C61 C 0.94938 0.49456 0.30781 0.0
H62 H 0.48777 0.90307 0.48217 0.0
N63 N 0.4768 0.932 0.45824 0.0
H64 H 0.45751 0.86663 0.50324 0.0
H65 H 0.42794 0.92035 0.46917 0.0
H66 H 0.39733 0.88344 0.4895 0.0
H67 H 0.43633 0.92541 0.43213 0.0
H68 H 0.42565 0.90689 0.39531 0.0
H69 H 0.50475 0.91946 0.43341 0.0
H70 H 0.49428 0.90097 0.39616 0.0
H71 H 0.52363 0.96195 0.47496 0.0
H72 H 0.45512 0.96154 0.45299 0.0
H73 H 0.54538 0.00738 0.48162 0.0
H74 H 0.47705 0.00712 0.45832 0.0
H75 H 0.60589 0.12658 0.51839 0.0
H76 H 0.60957 0.14444 0.55541 0.0
H77 H 0.53768 0.14293 0.54455 0.0
H78 H 0.53432 0.12546 0.50768 0.0
H79 H 0.53465 0.12631 0.46818 0.0
H80 H 0.5443 0.16484 0.4494 0.0
H81 H 0.6258 0.19041 0.45408 0.0
H82 H 0.61591 0.15223 0.47336 0.0
H83 H 0.58795 0.08999 0.47 0.0
H84 H 0.56403 0.04474 0.462 0.0
H85 H 0.49407 0.04113 0.48413 0.0
N86 N 0.57044 0.11769 0.48779 0.0
H87 H 0.51795 0.08654 0.49077 0.0
C88 C 0.46004 0.91414 0.47386 0.0
C89 C 0.46826 0.8993 0.48431 0.0
C90 C 0.45099 0.87856 0.49631 0.0
C91 C 0.42505 0.87212 0.49777 0.0
C92 C 0.41719 0.8879 0.48841 0.0
C93 C 0.43465 0.90895 0.47675 0.0
C94 C 0.47147 0.92386 0.43558 0.0
C95 C 0.4494 0.92064 0.42438 0.0
C96 C 0.44332 0.91007 0.40319 0.0
C97 C 0.45906 0.90237 0.39284 0.0
C98 C 0.48161 0.90645 0.4038 0.0
C99 C 0.48771 0.91712 0.42497 0.0
C100 C 0.48797 0.9584 0.46327 0.0
C101 C 0.51334 0.97175 0.47153 0.0
C102 C 0.5258 0.99776 0.47505 0.0
C103 C 0.5132 0.01112 0.47009 0.0
C104 C 0.48738 0.99752 0.46237 0.0
C105 C 0.47481 0.97137 0.45913 0.0
C106 C 0.56984 0.12451 0.51036 0.0
C107 C 0.5907 0.12963 0.52423 0.0
C108 C 0.59283 0.13993 0.54524 0.0
C109 C 0.57394 0.14513 0.55276 0.0
C110 C 0.55236 0.13885 0.53924 0.0
C111 C 0.55041 0.12879 0.51814 0.0
C112 C 0.57468 0.13664 0.47232 0.0
C113 C 0.55451 0.13998 0.46472 0.0
C114 C 0.56008 0.16198 0.45393 0.0
C115 C 0.58587 0.1809 0.45063 0.0
C116 C 0.60578 0.17647 0.45679 0.0
C117 C 0.60019 0.15458 0.46756 0.0
C118 C 0.55493 0.09159 0.48124 0.0
C119 C 0.56737 0.0794 0.47278 0.0
C120 C 0.55368 0.05349 0.46851 0.0
C121 C 0.52715 0.03906 0.4729 0.0
C122 C 0.51444 0.05155 0.48052 0.0
C123 C 0.52816 0.07762 0.4845 0.0
H124 H 0.48904 0.63254 0.65791 0.0
N125 N 0.48581 0.58913 0.66646 0.0
H126 H 0.45776 0.63909 0.63784 0.0
H127 H 0.44566 0.5535 0.64034 0.0
H128 H 0.41509 0.55998 0.61939 0.0
H129 H 0.43924 0.55499 0.68327 0.0
H130 H 0.42395 0.55705 0.7197 0.0
H131 H 0.51347 0.61984 0.69958 0.0
H132 H 0.49857 0.62178 0.7364 0.0
H133 H 0.53393 0.60598 0.65462 0.0
H134 H 0.46227 0.53751 0.66566 0.0
H135 H 0.55483 0.58174 0.64679 0.0
H136 H 0.48224 0.51283 0.65612 0.0
H137 H 0.61701 0.49557 0.6177 0.0
H138 H 0.62113 0.48086 0.58174 0.0
H139 H 0.54156 0.45807 0.56634 0.0
H140 H 0.53713 0.47059 0.60352 0.0
H141 H 0.53938 0.4426 0.64002 0.0
H142 H 0.54532 0.41267 0.66161 0.0
H143 H 0.61741 0.47392 0.68788 0.0
H144 H 0.61132 0.50357 0.66613 0.0
H145 H 0.58331 0.53413 0.61691 0.0
H146 H 0.55974 0.55619 0.62216 0.0
H147 H 0.51032 0.50013 0.66809 0.0
N148 N 0.5753 0.49215 0.63534 0.0
H149 H 0.53261 0.47716 0.66134 0.0
C150 C 0.46991 0.59265 0.65072 0.0
C151 C 0.47322 0.61675 0.64911 0.0
C152 C 0.45529 0.62043 0.63756 0.0
C153 C 0.43362 0.60001 0.62713 0.0
C154 C 0.43118 0.57607 0.62763 0.0
C155 C 0.44897 0.57236 0.63945 0.0
C156 C 0.47755 0.58738 0.68875 0.0
C157 C 0.45248 0.56929 0.6949 0.0
C158 C 0.44377 0.57049 0.71579 0.0
C159 C 0.45996 0.58975 0.73091 0.0
C160 C 0.48546 0.607 0.72502 0.0
C161 C 0.4941 0.6058 0.70412 0.0
C162 C 0.49653 0.57369 0.6603 0.0
C163 C 0.52257 0.58563 0.6548 0.0
C164 C 0.5344 0.57162 0.65016 0.0
C165 C 0.52027 0.54511 0.65053 0.0
C166 C 0.49394 0.53314 0.65588 0.0
C167 C 0.48228 0.54727 0.661 0.0
C168 C 0.57701 0.48461 0.61318 0.0
C169 C 0.60051 0.48742 0.60649 0.0
C170 C 0.60283 0.4792 0.5857 0.0
C171 C 0.58185 0.46863 0.5706 0.0
C172 C 0.55816 0.46585 0.57738 0.0
C173 C 0.55564 0.47336 0.59859 0.0
C174 C 0.57501 0.47529 0.65153 0.0
C175 C 0.55601 0.44959 0.65098 0.0
C176 C 0.55945 0.43255 0.66332 0.0
C177 C 0.58202 0.44094 0.67621 0.0
C178 C 0.60001 0.46688 0.67788 0.0
C179 C 0.59647 0.48386 0.66566 0.0
C180 C 0.55999 0.50398 0.63862 0.0
C181 C 0.56715 0.52643 0.62789 0.0
C182 C 0.55377 0.53921 0.63116 0.0
C183 C 0.53321 0.53028 0.64584 0.0
C184 C 0.52577 0.50754 0.65643 0.0
C185 C 0.53881 0.49439 0.65272 0.0
H186 H 0.1363 0.62845 0.79425 0.0
N187 N 0.09365 0.58552 0.78323 0.0
H188 H 0.1742 0.63381 0.81425 0.0
H189 H 0.09622 0.54893 0.80657 0.0
H190 H 0.13326 0.55429 0.82748 0.0
H191 H 0.10982 0.5553 0.76431 0.0
H192 H 0.12821 0.55984 0.72824 0.0
H193 H 0.09516 0.61555 0.75176 0.0
H194 H 0.11347 0.6201 0.71519 0.0
H195 H 0.06245 0.59438 0.80749 0.0
H196 H 0.06535 0.53501 0.77158 0.0
H197 H 0.01858 0.5641 0.81902 0.0
H198 H 0.02222 0.50495 0.78319 0.0
H199 H 0.90291 0.47713 0.85474 0.0
H200 H 0.88282 0.46924 0.89044 0.0
H201 H 0.91023 0.41806 0.90414 0.0
H202 H 0.9284 0.42465 0.86758 0.0
H203 H 0.90244 0.40275 0.82282 0.0
H204 H 0.86048 0.37607 0.80478 0.0
H205 H 0.84946 0.44004 0.80144 0.0
H206 H 0.89241 0.46684 0.81791 0.0
H207 H 0.95845 0.49459 0.85771 0.0
H208 H 0.99799 0.52844 0.84328 0.0
H209 H 0.97736 0.49236 0.77911 0.0
N210 N 0.92325 0.45055 0.83568 0.0
H211 H 0.93803 0.45794 0.79353 0.0
C212 C 0.11332 0.58843 0.79882 0.0
C213 C 0.13538 0.6123 0.80188 0.0
C214 C 0.15702 0.61531 0.81338 0.0
C215 C 0.15699 0.59442 0.82229 0.0
C216 C 0.13425 0.57072 0.8204 0.0
C217 C 0.11276 0.56767 0.80863 0.0
C218 C 0.10091 0.58508 0.76077 0.0
C219 C 0.1099 0.5691 0.75358 0.0
C220 C 0.12046 0.57171 0.73285 0.0
C221 C 0.12243 0.59042 0.71884 0.0
C222 C 0.11251 0.60571 0.7257 0.0
C223 C 0.10183 0.603 0.74646 0.0
C224 C 0.06731 0.56725 0.78855 0.0
C225 C 0.05358 0.57491 0.80195 0.0
C226 C 0.0286 0.55757 0.80861 0.0
C227 C 0.0168 0.53209 0.80195 0.0
C228 C 0.03046 0.5245 0.78827 0.0
C229 C 0.05538 0.54181 0.78164 0.0
C230 C 0.91661 0.45094 0.85831 0.0
C231 C 0.90461 0.46426 0.86545 0.0
C232 C 0.89337 0.45991 0.88607 0.0
C233 C 0.89431 0.44252 0.90013 0.0
C234 C 0.90829 0.43092 0.89355 0.0
C235 C 0.91907 0.43493 0.87279 0.0
C236 C 0.90029 0.43655 0.82206 0.0
C237 C 0.89113 0.41103 0.81771 0.0
C238 C 0.86696 0.39578 0.8077 0.0
C239 C 0.8511 0.40566 0.80219 0.0
C240 C 0.861 0.43167 0.80545 0.0
C241 C 0.88548 0.44703 0.81511 0.0
C242 C 0.94417 0.4735 0.82671 0.0
C243 C 0.96167 0.49401 0.84036 0.0
C244 C 0.98459 0.51361 0.83208 0.0
C245 C 0.99094 0.51312 0.81004 0.0
C246 C 0.97322 0.49322 0.79623 0.0
C247 C 0.95038 0.47362 0.80448 0.0
H248 H 0.54444 0.12735 0.96186 0.0
N249 N 0.56466 0.09818 0.94919 0.0
H250 H 0.56626 0.16582 0.98463 0.0
H251 H 0.6086 0.11564 0.97175 0.0
H252 H 0.63084 0.1543 0.99426 0.0
H253 H 0.60056 0.11001 0.91949 0.0
H254 H 0.60181 0.12585 0.88282 0.0
H255 H 0.52582 0.10179 0.92931 0.0
H256 H 0.52694 0.11798 0.89256 0.0
H257 H 0.52062 0.08384 0.97245 0.0
H258 H 0.56517 0.05638 0.93993 0.0
H259 H 0.48996 0.04133 0.98398 0.0
H260 H 0.53383 0.01354 0.95007 0.0
H261 H 0.39389 0.89281 0.01516 0.0
H262 H 0.38912 0.87668 0.05206 0.0
H263 H 0.47083 0.9267 0.06459 0.0
H264 H 0.47562 0.94174 0.0276 0.0
H265 H 0.46734 0.90148 0.00133 0.0
H266 H 0.46076 0.86282 0.98369 0.0
H267 H 0.40012 0.85953 0.94274 0.0
H268 H 0.4067 0.89839 0.96066 0.0
H269 H 0.42687 0.95844 0.98491 0.0
H270 H 0.45673 0.00115 0.97298 0.0
H271 H 0.51996 0.98698 0.97952 0.0
N272 N 0.43751 0.92293 0.99504 0.0
H273 H 0.48986 0.9442 0.99003 0.0
C274 C 0.57496 0.11859 0.96517 0.0
C275 C 0.56303 0.13281 0.96924 0.0
C276 C 0.57565 0.15495 0.98212 0.0
C277 C 0.60039 0.16327 0.99116 0.0
C278 C 0.61169 0.14834 0.98781 0.0
C279 C 0.59906 0.12625 0.97494 0.0
C280 C 0.56326 0.10491 0.92702 0.0
C281 C 0.58428 0.11134 0.91351 0.0
C282 C 0.58489 0.1203 0.8926 0.0
C283 C 0.56446 0.12318 0.88482 0.0
C284 C 0.54304 0.11616 0.89822 0.0
C285 C 0.54234 0.1069 0.91914 0.0
C286 C 0.5455 0.07331 0.95564 0.0
C287 C 0.52376 0.06865 0.96769 0.0
C288 C 0.50603 0.04417 0.97408 0.0
C289 C 0.5094 0.02382 0.96817 0.0
C290 C 0.53084 0.02865 0.95551 0.0
C291 C 0.5487 0.05311 0.94949 0.0
C292 C 0.43498 0.91842 0.01833 0.0
C293 C 0.41064 0.9007 0.02608 0.0
C294 C 0.40798 0.89152 0.04724 0.0
C295 C 0.42968 0.90009 0.06129 0.0
C296 C 0.45379 0.91918 0.05406 0.0
C297 C 0.45649 0.9281 0.03279 0.0
C298 C 0.43729 0.90279 0.98239 0.0
C299 C 0.45298 0.89284 0.98827 0.0
C300 C 0.4491 0.8706 0.97828 0.0
C301 C 0.42973 0.85803 0.96205 0.0
C302 C 0.41525 0.86888 0.95516 0.0
C303 C 0.41896 0.89102 0.96534 0.0
C304 C 0.45598 0.94809 0.98844 0.0
C305 C 0.4472 0.96465 0.98366 0.0
C306 C 0.46437 0.98913 0.97702 0.0
C307 C 0.49091 0.99772 0.97525 0.0
C308 C 0.49967 0.98103 0.98021 0.0
C309 C 0.48241 0.95646 0.98647 0.0
H310 H 0.51717 0.41356 0.1266 0.0
N311 N 0.5262 0.4474 0.15827 0.0
H312 H 0.54941 0.40871 0.10612 0.0
H313 H 0.57792 0.48228 0.15679 0.0
H314 H 0.61002 0.47753 0.13656 0.0
H315 H 0.55586 0.48575 0.18756 0.0
H316 H 0.56876 0.4813 0.22452 0.0
H317 H 0.50863 0.40519 0.18009 0.0
H318 H 0.52006 0.40042 0.21749 0.0
H319 H 0.47707 0.43303 0.16339 0.0
H320 H 0.54936 0.49606 0.14362 0.0
H321 H 0.45566 0.45697 0.15701 0.0
H322 H 0.52787 0.51966 0.13579 0.0
H323 H 0.39148 0.53667 0.1117 0.0
H324 H 0.38435 0.54777 0.07549 0.0
H325 H 0.46175 0.5667 0.05791 0.0
H326 H 0.46926 0.55763 0.09513 0.0
H327 H 0.472 0.59207 0.12665 0.0
H328 H 0.471 0.62695 0.14529 0.0
H329 H 0.40454 0.57379 0.18135 0.0
H330 H 0.40546 0.53902 0.1622 0.0
H331 H 0.41756 0.49385 0.12308 0.0
H332 H 0.44063 0.47141 0.12914 0.0
H333 H 0.50834 0.54122 0.1505 0.0
N334 N 0.43484 0.54246 0.12868 0.0
H335 H 0.48554 0.56366 0.14296 0.0
C336 C 0.54502 0.44806 0.14335 0.0
C337 C 0.53736 0.42794 0.12832 0.0
C338 C 0.55578 0.42524 0.11664 0.0
C339 C 0.58223 0.4426 0.11997 0.0
C340 C 0.58977 0.46369 0.13389 0.0
C341 C 0.57137 0.46646 0.14544 0.0
C342 C 0.53157 0.44569 0.18102 0.0
C343 C 0.548 0.4671 0.19404 0.0
C344 C 0.55515 0.46449 0.21528 0.0
C345 C 0.54574 0.44044 0.224 0.0
C346 C 0.52827 0.41919 0.21119 0.0
C347 C 0.52145 0.42184 0.18991 0.0
C348 C 0.51464 0.46243 0.15371 0.0
C349 C 0.48823 0.45195 0.15736 0.0
C350 C 0.47601 0.46566 0.15351 0.0
C351 C 0.48987 0.49023 0.14551 0.0
C352 C 0.51654 0.5009 0.14209 0.0
C353 C 0.52888 0.48725 0.14634 0.0
C354 C 0.43066 0.54601 0.10606 0.0
C355 C 0.40675 0.54294 0.09989 0.0
C356 C 0.40271 0.54915 0.07899 0.0
C357 C 0.42237 0.55802 0.06338 0.0
C358 C 0.44622 0.56035 0.06944 0.0
C359 C 0.45046 0.55477 0.09067 0.0
C360 C 0.43872 0.56293 0.14308 0.0
C361 C 0.45773 0.58796 0.13905 0.0
C362 C 0.45708 0.60789 0.14972 0.0
C363 C 0.43742 0.60314 0.16456 0.0
C364 C 0.41962 0.57807 0.16969 0.0
C365 C 0.4203 0.5582 0.15902 0.0
C366 C 0.44952 0.53028 0.13285 0.0
C367 C 0.43741 0.50426 0.12904 0.0
C368 C 0.45063 0.49146 0.13271 0.0
C369 C 0.47633 0.50435 0.14069 0.0
C370 C 0.48866 0.53062 0.14421 0.0
C371 C 0.47548 0.54351 0.14013 0.0
Mn372 Mn 0.62417 0.38991 0.39956 0.0
Mn373 Mn 0.65462 0.45315 0.40616 0.0
C374 C 0.61065 0.40788 0.426 0.0
C375 C 0.61989 0.35103 0.40692 0.0
C376 C 0.61762 0.42445 0.36824 0.0
O377 O 0.65842 0.4018 0.38442 0.0
O378 O 0.67816 0.44352 0.39199 0.0
C379 C 0.69572 0.46151 0.43817 0.0
N380 N 0.67516 0.46399 0.43253 0.0
C381 C 0.67979 0.48751 0.46585 0.0
C382 C 0.70109 0.48531 0.47198 0.0
C383 C 0.70902 0.47217 0.45811 0.0
C384 C 0.66731 0.47652 0.44578 0.0
H385 H 0.70193 0.4515 0.42752 0.0
C386 C 0.67807 0.42405 0.38409 0.0
O387 O 0.6106 0.35464 0.38901 0.0
O388 O 0.63207 0.37015 0.42047 0.0
N389 N 0.63407 0.46481 0.42006 0.0
C390 C 0.61193 0.4634 0.4126 0.0
C391 C 0.60064 0.47449 0.42511 0.0
C392 C 0.61236 0.48711 0.44502 0.0
C393 C 0.63522 0.48841 0.4523 0.0
C394 C 0.64554 0.47696 0.43917 0.0
H395 H 0.60287 0.45376 0.39728 0.0
O396 O 0.59495 0.38528 0.41833 0.0
O397 O 0.63364 0.41928 0.41787 0.0
O398 O 0.61148 0.40254 0.37442 0.0
O399 O 0.63389 0.44454 0.37866 0.0
C400 C 0.64792 0.50026 0.47225 0.0
C401 C 0.67018 0.49979 0.47903 0.0
H402 H 0.71136 0.49344 0.48737 0.0
H403 H 0.72538 0.4703 0.46277 0.0
H404 H 0.58295 0.47333 0.41941 0.0
H405 H 0.60354 0.49555 0.45467 0.0
H406 H 0.64044 0.50937 0.48272 0.0
H407 H 0.67948 0.50856 0.49461 0.0
Mn408 Mn 0.26972 0.65716 0.55439 0.0
Mn409 Mn 0.23812 0.5942 0.54523 0.0
C410 C 0.23633 0.63849 0.52871 0.0
C411 C 0.30317 0.69757 0.54701 0.0
C412 C 0.22874 0.61884 0.58467 0.0
O413 O 0.29436 0.64716 0.5677 0.0
O414 O 0.27211 0.60547 0.55984 0.0
C415 C 0.27326 0.59241 0.51248 0.0
N416 N 0.24916 0.58708 0.51814 0.0
C417 C 0.23158 0.56757 0.48279 0.0
C418 C 0.25618 0.57271 0.47664 0.0
C419 C 0.27711 0.58523 0.49154 0.0
C420 C 0.22889 0.5751 0.50391 0.0
H421 H 0.28942 0.60213 0.52384 0.0
C422 C 0.29191 0.62534 0.56784 0.0
O423 O 0.29153 0.69255 0.56565 0.0
O424 O 0.29599 0.67898 0.53305 0.0
N425 N 0.20505 0.5807 0.53093 0.0
C426 C 0.18279 0.57803 0.53911 0.0
C427 C 0.16008 0.56619 0.52611 0.0
C428 C 0.16045 0.55709 0.50494 0.0
C429 C 0.18352 0.55979 0.49698 0.0
C430 C 0.20548 0.57152 0.51076 0.0
H431 H 0.18237 0.58498 0.55537 0.0
O432 O 0.24294 0.66037 0.53735 0.0
O433 O 0.2494 0.62826 0.53539 0.0
O434 O 0.24493 0.64149 0.5798 0.0
O435 O 0.22497 0.59978 0.57306 0.0
C436 C 0.18569 0.55171 0.47577 0.0
C437 C 0.20971 0.55567 0.46866 0.0
H438 H 0.25926 0.56731 0.46047 0.0
H439 H 0.29618 0.58937 0.48688 0.0
H440 H 0.14236 0.56419 0.53237 0.0
H441 H 0.14297 0.54822 0.49487 0.0
H442 H 0.16908 0.54275 0.46469 0.0
H443 H 0.21121 0.54969 0.45221 0.0
Mn444 Mn 0.62069 0.2696 0.7236 0.0
Mn445 Mn 0.651 0.23731 0.71194 0.0
C446 C 0.60613 0.24053 0.69477 0.0
C447 C 0.61645 0.30485 0.71949 0.0
C448 C 0.6145 0.22498 0.74978 0.0
O449 O 0.65535 0.29029 0.73972 0.0
O450 O 0.6742 0.26803 0.72983 0.0
C451 C 0.69132 0.27427 0.68319 0.0
N452 N 0.67131 0.25056 0.68643 0.0
C453 C 0.67572 0.23669 0.65047 0.0
C454 C 0.69648 0.26093 0.64679 0.0
C455 C 0.70425 0.27981 0.6632 0.0
C456 C 0.66356 0.23229 0.6707 0.0
H457 H 0.69735 0.28882 0.69577 0.0
C458 C 0.67445 0.28663 0.73977 0.0
O459 O 0.6074 0.29074 0.73644 0.0
O460 O 0.62833 0.29874 0.70521 0.0
N461 N 0.63102 0.20714 0.6946 0.0
C462 C 0.60992 0.18508 0.70037 0.0
C463 C 0.59935 0.1644 0.68557 0.0
C464 C 0.61073 0.1665 0.66512 0.0
C465 C 0.63263 0.18928 0.65967 0.0
C466 C 0.64237 0.20922 0.67511 0.0
H467 H 0.60116 0.18332 0.71609 0.0
O468 O 0.59079 0.24705 0.70367 0.0
O469 O 0.62948 0.25124 0.70292 0.0
O470 O 0.60876 0.24195 0.74641 0.0
O471 O 0.63021 0.22194 0.73799 0.0
C472 C 0.64492 0.19311 0.63938 0.0
C473 C 0.66638 0.21683 0.63474 0.0
H474 H 0.70648 0.26529 0.63138 0.0
H475 H 0.72019 0.29858 0.66045 0.0
H476 H 0.58244 0.14688 0.6899 0.0
H477 H 0.60239 0.15056 0.65368 0.0
H478 H 0.63779 0.17805 0.6271 0.0
H479 H 0.6754 0.21965 0.61895 0.0
Mn480 Mn 0.376 0.64424 0.90175 0.0
Mn481 Mn 0.34189 0.58079 0.90415 0.0
C482 C 0.38829 0.62398 0.92632 0.0
C483 C 0.38307 0.68386 0.91205 0.0
C484 C 0.37963 0.60866 0.86824 0.0
O485 O 0.34208 0.63499 0.88629 0.0
O486 O 0.3203 0.59295 0.89025 0.0
C487 C 0.30206 0.57515 0.93547 0.0
N488 N 0.32127 0.57071 0.92973 0.0
C489 C 0.3146 0.54591 0.96162 0.0
C490 C 0.29464 0.55009 0.96781 0.0
C491 C 0.28842 0.56485 0.95472 0.0
C492 C 0.3275 0.55663 0.94225 0.0
H493 H 0.29718 0.58643 0.92542 0.0
C494 C 0.32179 0.61334 0.88391 0.0
O495 O 0.39134 0.68007 0.89363 0.0
O496 O 0.37036 0.66455 0.92435 0.0
N497 N 0.36023 0.5664 0.91742 0.0
C498 C 0.3812 0.56575 0.90999 0.0
C499 C 0.39067 0.55264 0.92175 0.0
C500 C 0.37829 0.54011 0.94084 0.0
C501 C 0.3566 0.54087 0.94804 0.0
C502 C 0.34807 0.55426 0.93568 0.0
H503 H 0.39072 0.57526 0.89528 0.0
O504 O 0.40483 0.64651 0.92013 0.0
O505 O 0.36503 0.614 0.91801 0.0
O506 O 0.38682 0.6308 0.87552 0.0
O507 O 0.36267 0.5888 0.8775 0.0
C508 C 0.34337 0.52923 0.9672 0.0
C509 C 0.32247 0.53185 0.97405 0.0
H510 H 0.28412 0.54223 0.98268 0.0
H511 H 0.27312 0.56825 0.95945 0.0
H512 H 0.40744 0.55219 0.9161 0.0
H513 H 0.38572 0.53012 0.94992 0.0
H514 H 0.34944 0.51862 0.97704 0.0
H515 H 0.31279 0.52323 0.98906 0.0
Mn516 Mn 0.7454 0.38917 0.06409 0.0
Mn517 Mn 0.77907 0.36095 0.07737 0.0
C518 C 0.77854 0.40756 0.09009 0.0
C519 C 0.71015 0.3944 0.07026 0.0
C520 C 0.78639 0.38902 0.03513 0.0
O521 O 0.72252 0.35319 0.05204 0.0
O522 O 0.74473 0.33548 0.06496 0.0
C523 C 0.74683 0.32951 0.11337 0.0
N524 N 0.77019 0.34756 0.10604 0.0
C525 C 0.79027 0.35194 0.14142 0.0
C526 C 0.76646 0.33327 0.1493 0.0
C527 C 0.74464 0.32206 0.13523 0.0
C528 C 0.79129 0.35856 0.11948 0.0
H529 H 0.72999 0.32091 0.10263 0.0
C530 C 0.72506 0.33411 0.05521 0.0
O531 O 0.72177 0.40003 0.05158 0.0
O532 O 0.71843 0.38497 0.08479 0.0
N533 N 0.81257 0.38356 0.08989 0.0
C534 C 0.83377 0.4022 0.08007 0.0
C535 C 0.85709 0.41575 0.09209 0.0
C536 C 0.85844 0.4099 0.11402 0.0
C537 C 0.83644 0.39049 0.12372 0.0
C538 C 0.81377 0.37753 0.11089 0.0
H539 H 0.83288 0.40675 0.06321 0.0
O540 O 0.77079 0.42111 0.08027 0.0
O541 O 0.76662 0.3839 0.08439 0.0
O542 O 0.77085 0.39689 0.03922 0.0
O543 O 0.78997 0.37476 0.04784 0.0
C544 C 0.836 0.3838 0.14573 0.0
C545 C 0.81292 0.36459 0.15459 0.0
H546 H 0.76466 0.32755 0.16618 0.0
H547 H 0.72616 0.30774 0.14123 0.0
H548 H 0.87398 0.43072 0.08449 0.0
H549 H 0.8764 0.42055 0.1233 0.0
H550 H 0.8532 0.39359 0.15609 0.0
H551 H 0.81271 0.35992 0.17164 0.0
Mn552 Mn 0.37695 0.76417 0.22915 0.0
Mn553 Mn 0.44181 0.79827 0.23585 0.0
C554 C 0.39546 0.79709 0.2546 0.0
C555 C 0.33709 0.72965 0.23766 0.0
C556 C 0.41298 0.80401 0.19739 0.0
O557 O 0.38895 0.74187 0.21478 0.0
O558 O 0.43169 0.76479 0.22248 0.0
C559 C 0.44858 0.76774 0.26924 0.0
N560 N 0.45187 0.79022 0.2629 0.0
C561 C 0.47358 0.81038 0.297 0.0
C562 C 0.47057 0.78747 0.30384 0.0
C563 C 0.45797 0.76606 0.2899 0.0
C564 C 0.46394 0.81094 0.27618 0.0
H565 H 0.43882 0.7512 0.25862 0.0
C566 C 0.41165 0.74497 0.2147 0.0
O567 O 0.34055 0.74088 0.21915 0.0
O568 O 0.35694 0.73806 0.25089 0.0
N569 N 0.45411 0.83092 0.249 0.0
C570 C 0.45408 0.85118 0.24049 0.0
C571 C 0.46526 0.87394 0.25268 0.0
C572 C 0.47648 0.8757 0.27341 0.0
C573 C 0.4765 0.85468 0.28174 0.0
C574 C 0.46524 0.83254 0.26878 0.0
H575 H 0.44547 0.84995 0.22457 0.0
O576 O 0.37225 0.78907 0.247 0.0
O577 O 0.407 0.78559 0.24709 0.0
O578 O 0.3903 0.78823 0.20359 0.0
O579 O 0.43346 0.80847 0.20784 0.0
C580 C 0.48677 0.85467 0.30258 0.0
C581 C 0.48528 0.83253 0.31022 0.0
H582 H 0.47765 0.78606 0.31982 0.0
H583 H 0.45545 0.74828 0.29511 0.0
H584 H 0.46514 0.89008 0.24615 0.0
H585 H 0.48485 0.89322 0.28285 0.0
H586 H 0.49548 0.87148 0.31302 0.0
H587 H 0.49288 0.83265 0.32641 0.0
H588 H 0.17822 0.60541 0.24456 0.0
H589 H 0.3222 0.71067 0.27832 0.0
H590 H 0.20095 0.63908 0.30948 0.0
H591 H 0.29339 0.70246 0.21184 0.0
H592 H 0.27898 0.67907 0.28955 0.0
H593 H 0.22147 0.63624 0.23167 0.0
C594 C 0.19227 0.61935 0.25603 0.0
C595 C 0.186 0.61989 0.27805 0.0
C596 C 0.28213 0.68414 0.27249 0.0
C597 C 0.23531 0.65462 0.26363 0.0
C598 C 0.30682 0.70206 0.26604 0.0
C599 C 0.31137 0.70926 0.24412 0.0
C600 C 0.26184 0.67304 0.25689 0.0
C601 C 0.29066 0.69751 0.22892 0.0
C602 C 0.21684 0.6369 0.24869 0.0
C603 C 0.20487 0.63825 0.2923 0.0
N604 N 0.26674 0.67988 0.23558 0.0
N605 N 0.2287 0.65474 0.28489 0.0
H606 H 0.62331 0.22685 0.46668 0.0
H607 H 0.59049 0.30651 0.38408 0.0
H608 H 0.56262 0.19236 0.41725 0.0
H609 H 0.64033 0.33848 0.44131 0.0
H610 H 0.58294 0.26496 0.3936 0.0
H611 H 0.6328 0.26819 0.45505 0.0
C612 C 0.61216 0.22796 0.45316 0.0
C613 C 0.59223 0.20605 0.44282 0.0
C614 C 0.59556 0.28108 0.40404 0.0
C615 C 0.60278 0.25354 0.42962 0.0
C616 C 0.59995 0.30482 0.39859 0.0
C617 C 0.61602 0.32599 0.41197 0.0
C618 C 0.60747 0.27852 0.42291 0.0
C619 C 0.62774 0.32268 0.43057 0.0
C620 C 0.61746 0.25162 0.44666 0.0
C621 C 0.57806 0.20874 0.42575 0.0
N622 N 0.62323 0.2994 0.43548 0.0
N623 N 0.58363 0.23207 0.41965 0.0
H624 H 0.38125 0.56714 0.62724 0.0
H625 H 0.34244 0.66212 0.57661 0.0
H626 H 0.43805 0.6407 0.60502 0.0
H627 H 0.2899 0.58201 0.5801 0.0
H628 H 0.37736 0.65614 0.59046 0.0
H629 H 0.3472 0.57354 0.61283 0.0
C630 C 0.38668 0.58452 0.61907 0.0
C631 C 0.41275 0.60333 0.61729 0.0
C632 C 0.35816 0.63992 0.58817 0.0
C633 C 0.3735 0.61107 0.60128 0.0
C634 C 0.33819 0.64333 0.5804 0.0
C635 C 0.31316 0.62254 0.57716 0.0
C636 C 0.35298 0.61562 0.59297 0.0
C637 C 0.30886 0.5986 0.58223 0.0
C638 C 0.36713 0.58824 0.61101 0.0
C639 C 0.4183 0.62576 0.60706 0.0
N640 N 0.32851 0.59583 0.58993 0.0
N641 N 0.39885 0.62904 0.59954 0.0
H642 H 0.81751 0.35728 0.81434 0.0
H643 H 0.69544 0.33772 0.74511 0.0
H644 H 0.82224 0.41506 0.77231 0.0
H645 H 0.70874 0.27712 0.7603 0.0
H646 H 0.7381 0.36785 0.76143 0.0
H647 H 0.77371 0.32905 0.80068 0.0
C648 C 0.80954 0.36405 0.80209 0.0
C649 C 0.824 0.38859 0.7942 0.0
C650 C 0.73149 0.34792 0.76126 0.0
C651 C 0.77321 0.35637 0.7791 0.0
C652 C 0.70717 0.33076 0.75215 0.0
C653 C 0.69867 0.30495 0.75134 0.0
C654 C 0.747 0.33903 0.76999 0.0
C655 C 0.71466 0.29689 0.76048 0.0
C656 C 0.78437 0.34792 0.79447 0.0
C657 C 0.81195 0.39641 0.77897 0.0
N658 N 0.73799 0.31384 0.76948 0.0
N659 N 0.78723 0.38034 0.7719 0.0
H660 H 0.42137 0.84003 0.91942 0.0
H661 H 0.37709 0.69933 0.95266 0.0
H662 H 0.4227 0.81827 0.98596 0.0
H663 H 0.40193 0.72615 0.8875 0.0
H664 H 0.38828 0.74182 0.96447 0.0
H665 H 0.4092 0.79731 0.90667 0.0
C666 C 0.41913 0.82626 0.9313 0.0
C667 C 0.42323 0.8327 0.95375 0.0
C668 C 0.39126 0.7384 0.94758 0.0
C669 C 0.40904 0.78394 0.93939 0.0
C670 C 0.38476 0.71413 0.9408 0.0
C671 C 0.38867 0.70923 0.91908 0.0
C672 C 0.40145 0.75788 0.93247 0.0
C673 C 0.39873 0.72916 0.90443 0.0
C674 C 0.41227 0.80198 0.92404 0.0
C675 C 0.4201 0.8142 0.96849 0.0
N676 N 0.40472 0.75263 0.91137 0.0
N677 N 0.41306 0.79065 0.96107 0.0
H678 H 0.62272 0.44494 0.14228 0.0
H679 H 0.68343 0.40881 0.04283 0.0
H680 H 0.58605 0.42714 0.07815 0.0
H681 H 0.69103 0.39389 0.11048 0.0
H682 H 0.65194 0.42117 0.0538 0.0
H683 H 0.65336 0.43313 0.12909 0.0
C684 C 0.62135 0.43887 0.1253 0.0
C685 C 0.60189 0.43713 0.11125 0.0
C686 C 0.66047 0.41502 0.06612 0.0
C687 C 0.63681 0.42326 0.0961 0.0
C688 C 0.67839 0.40799 0.0599 0.0
C689 C 0.68985 0.4003 0.07576 0.0
C690 C 0.65452 0.4148 0.08835 0.0
C691 C 0.68267 0.39961 0.09766 0.0
C692 C 0.63869 0.43188 0.11785 0.0
C693 C 0.60075 0.42866 0.0895 0.0
N694 N 0.66569 0.40698 0.10331 0.0
N695 N 0.61807 0.42211 0.08251 0.0
H696 H 0.38021 0.83623 0.47824 0.0
H697 H 0.33182 0.73863 0.57445 0.0
H698 H 0.42666 0.85191 0.53712 0.0
H699 H 0.31743 0.71575 0.5061 0.0
H700 H 0.36149 0.78219 0.56357 0.0
H701 H 0.35067 0.79383 0.49105 0.0
C702 C 0.38392 0.83085 0.49405 0.0
C703 C 0.40581 0.84755 0.5067 0.0
C704 C 0.35186 0.76752 0.55105 0.0
C705 C 0.37223 0.79915 0.52137 0.0
C706 C 0.33498 0.74276 0.5572 0.0
C707 C 0.32226 0.72359 0.54113 0.0
C708 C 0.35541 0.77313 0.52871 0.0
C709 C 0.32698 0.72991 0.51902 0.0
C710 C 0.36724 0.80663 0.50123 0.0
C711 C 0.40997 0.83951 0.52691 0.0
N712 N 0.34295 0.75418 0.51346 0.0
N713 N 0.39325 0.81584 0.53371 0.0
H714 H 0.62764 0.44168 0.67422 0.0
H715 H 0.58132 0.31467 0.73878 0.0
H716 H 0.5506 0.3982 0.69912 0.0
H717 H 0.6426 0.34379 0.69196 0.0
H718 H 0.57347 0.34909 0.73043 0.0
H719 H 0.63717 0.40996 0.68705 0.0
C720 C 0.61284 0.42563 0.68271 0.0
C721 C 0.58829 0.42262 0.68567 0.0
C722 C 0.5887 0.34795 0.72211 0.0
C723 C 0.59905 0.38606 0.70021 0.0
C724 C 0.59328 0.32844 0.72693 0.0
C725 C 0.61258 0.32636 0.71597 0.0
C726 C 0.60384 0.36567 0.70653 0.0
C727 C 0.62743 0.34461 0.7007 0.0
C728 C 0.61824 0.40743 0.68985 0.0
C729 C 0.56972 0.40117 0.69642 0.0
N730 N 0.62279 0.36351 0.69647 0.0
N731 N 0.57548 0.38368 0.70334 0.0
H732 H 0.17424 0.56098 0.81917 0.0
H733 H 0.31101 0.65119 0.87782 0.0
H734 H 0.19518 0.6339 0.84716 0.0
H735 H 0.2787 0.57116 0.86773 0.0
H736 H 0.27083 0.64686 0.86312 0.0
H737 H 0.2143 0.56585 0.83394 0.0
C738 C 0.18704 0.5779 0.82867 0.0
C739 C 0.18105 0.59696 0.83204 0.0
C740 C 0.27261 0.6303 0.86414 0.0
C741 C 0.22757 0.60294 0.84849 0.0
C742 C 0.29559 0.63276 0.87239 0.0
C743 C 0.29826 0.6115 0.87404 0.0
C744 C 0.25232 0.60648 0.85725 0.0
C745 C 0.27752 0.58807 0.86687 0.0
C746 C 0.21008 0.58075 0.83694 0.0
C747 C 0.19899 0.61879 0.84393 0.0
N748 N 0.2555 0.58622 0.85875 0.0
N749 N 0.22147 0.62122 0.85167 0.0
H750 H 0.60336 0.2078 0.9807 0.0
H751 H 0.71818 0.28864 0.06686 0.0
H752 H 0.63156 0.17567 0.02792 0.0
H753 H 0.68455 0.32163 0.02619 0.0
H754 H 0.6855 0.24712 0.05326 0.0
H755 H 0.63124 0.24933 0.99787 0.0
C756 C 0.61509 0.20938 0.99488 0.0
C757 C 0.61521 0.18816 0.00277 0.0
C758 C 0.68512 0.26337 0.04734 0.0
C759 C 0.64754 0.23578 0.02224 0.0
C760 C 0.7039 0.2872 0.05504 0.0
C761 C 0.70433 0.30879 0.04751 0.0
C762 C 0.66659 0.26091 0.03178 0.0
C763 C 0.68504 0.30555 0.0324 0.0
C764 C 0.63115 0.23315 0.00458 0.0
C765 C 0.63114 0.1915 0.02101 0.0
N766 N 0.66706 0.28205 0.02488 0.0
N767 N 0.64676 0.21484 0.02999 0.0
H768 H 0.47478 0.6505 0.17908 0.0
H769 H 0.3745 0.69802 0.19908 0.0
H770 H 0.39236 0.6036 0.16881 0.0
H771 H 0.45673 0.74423 0.21134 0.0
H772 H 0.38074 0.66344 0.18727 0.0
H773 H 0.4686 0.68525 0.19065 0.0
C774 C 0.45539 0.64748 0.17931 0.0
C775 C 0.43406 0.62404 0.17305 0.0
C776 C 0.39742 0.68118 0.1925 0.0
C777 C 0.42683 0.66374 0.18624 0.0
C778 C 0.39388 0.70099 0.19918 0.0
C779 C 0.4151 0.72416 0.20624 0.0
C780 C 0.42235 0.6845 0.19286 0.0
C781 C 0.43975 0.72677 0.20605 0.0
C782 C 0.45186 0.66731 0.18595 0.0
C783 C 0.40935 0.62118 0.17384 0.0
N784 N 0.44266 0.7072 0.19952 0.0
N785 N 0.40643 0.64079 0.18024 0.0
H786 H 0.8388 0.48628 0.35174 0.0
H787 H 0.68788 0.38839 0.36638 0.0
H788 H 0.80186 0.40774 0.33229 0.0
H789 H 0.72468 0.46792 0.38222 0.0
H790 H 0.72944 0.39479 0.35428 0.0
H791 H 0.79718 0.47952 0.36389 0.0
C792 C 0.82196 0.4676 0.35005 0.0
C793 C 0.8239 0.44756 0.34097 0.0
C794 C 0.72836 0.41083 0.36035 0.0
C795 C 0.77609 0.43964 0.35491 0.0
C796 C 0.7046 0.40721 0.3672 0.0
C797 C 0.70265 0.42763 0.37533 0.0
C798 C 0.75039 0.43503 0.36168 0.0
C799 C 0.7251 0.45157 0.37606 0.0
C800 C 0.79818 0.46373 0.35703 0.0
C801 C 0.80142 0.42368 0.33947 0.0
N802 N 0.74797 0.45457 0.36939 0.0
N803 N 0.77847 0.42041 0.3463 0.0
H804 H 0.18315 0.5831 0.39746 0.0
H805 H 0.18757 0.63036 0.52143 0.0
H806 H 0.11684 0.57894 0.42848 0.0
H807 H 0.25046 0.6287 0.48975 0.0
H808 H 0.16178 0.61428 0.48713 0.0
H809 H 0.20828 0.60153 0.43103 0.0
C810 C 0.17375 0.58584 0.41141 0.0
C811 C 0.14769 0.57917 0.41015 0.0
C812 C 0.18123 0.61747 0.4877 0.0
C813 C 0.17678 0.60106 0.44872 0.0
C814 C 0.19586 0.62661 0.50719 0.0
C815 C 0.22064 0.62984 0.50843 0.0
C816 C 0.19187 0.61216 0.46937 0.0
C817 C 0.23101 0.62554 0.48955 0.0
C818 C 0.18824 0.59664 0.43057 0.0
C819 C 0.13689 0.58391 0.42865 0.0
N820 N 0.21651 0.61673 0.47085 0.0
N821 N 0.15147 0.59453 0.44722 0.0
H822 H 0.61752 0.18736 0.56737 0.0
H823 H 0.56285 0.1955 0.68401 0.0
H824 H 0.53923 0.13501 0.58558 0.0
H825 H 0.63275 0.25541 0.65733 0.0
H826 H 0.55336 0.17222 0.64871 0.0
H827 H 0.62373 0.21143 0.60128 0.0
C828 C 0.60171 0.18081 0.57867 0.0
C829 C 0.5779 0.15909 0.57378 0.0
C830 C 0.5707 0.19051 0.65057 0.0
C831 C 0.58478 0.18663 0.61263 0.0
C832 C 0.57608 0.2037 0.67064 0.0
C833 C 0.5991 0.22676 0.67363 0.0
C834 C 0.58837 0.20079 0.63348 0.0
C835 C 0.61532 0.23713 0.6558 0.0
C836 C 0.60516 0.19468 0.59793 0.0
C837 C 0.55788 0.1517 0.58878 0.0
N838 N 0.60982 0.22393 0.63655 0.0
N839 N 0.56182 0.16537 0.60766 0.0
H840 H 0.46896 0.63357 0.75114 0.0
H841 H 0.37197 0.56485 0.84886 0.0
H842 H 0.42732 0.55306 0.75882 0.0
H843 H 0.41531 0.64554 0.84211 0.0
H844 H 0.39242 0.56022 0.81622 0.0
H845 H 0.45037 0.63835 0.78494 0.0
C846 C 0.45615 0.61689 0.76007 0.0
C847 C 0.44976 0.59285 0.75211 0.0
C848 C 0.39747 0.57894 0.82188 0.0
C849 C 0.42796 0.5982 0.79071 0.0
C850 C 0.38574 0.58163 0.84053 0.0
C851 C 0.39182 0.60565 0.84829 0.0
C852 C 0.41543 0.6004 0.81081 0.0
C853 C 0.40995 0.62665 0.83677 0.0
C854 C 0.44537 0.61963 0.7793 0.0
C855 C 0.43259 0.57193 0.76419 0.0
N856 N 0.42107 0.62352 0.81861 0.0
N857 N 0.42226 0.57509 0.78285 0.0
H858 H 0.86923 0.39588 0.9184 0.0
H859 H 0.79768 0.42978 0.01003 0.0
H860 H 0.88404 0.47164 0.92865 0.0
H861 H 0.81023 0.36698 0.01431 0.0
H862 H 0.82459 0.44352 0.97742 0.0
H863 H 0.84336 0.3833 0.95116 0.0
C864 C 0.86744 0.41004 0.92764 0.0
C865 C 0.87922 0.43502 0.92069 0.0
C866 C 0.82141 0.42675 0.98556 0.0
C867 C 0.8486 0.42029 0.95803 0.0
C868 C 0.80593 0.4188 0.00405 0.0
C869 C 0.80168 0.39718 0.01492 0.0
C870 C 0.83232 0.41275 0.9777 0.0
C871 C 0.81304 0.3838 0.00653 0.0
C872 C 0.85239 0.40271 0.94629 0.0
C873 C 0.8752 0.45214 0.93313 0.0
N874 N 0.82771 0.39172 0.98838 0.0
N875 N 0.86013 0.44443 0.95113 0.0
H876 H 0.38975 0.8818 0.09055 0.0
H877 H 0.45708 0.83378 0.17479 0.0
H878 H 0.46453 0.88963 0.08049 0.0
H879 H 0.37543 0.80772 0.17467 0.0
H880 H 0.46152 0.85836 0.14252 0.0
H881 H 0.38558 0.85862 0.12382 0.0
C882 C 0.40532 0.87872 0.09529 0.0
C883 C 0.42754 0.88775 0.08256 0.0
C884 C 0.44263 0.84722 0.14954 0.0
C885 C 0.42296 0.86145 0.12083 0.0
C886 C 0.44006 0.83317 0.16799 0.0
C887 C 0.41581 0.81852 0.17746 0.0
C888 C 0.42086 0.84689 0.14056 0.0
C889 C 0.39448 0.81857 0.16788 0.0
C890 C 0.40293 0.86553 0.11433 0.0
C891 C 0.44724 0.8835 0.08986 0.0
N892 N 0.39752 0.8326 0.15 0.0
N893 N 0.44446 0.87067 0.10845 0.0
H894 H 0.5554 0.40344 0.23665 0.0
H895 H 0.61647 0.46572 0.35362 0.0
H896 H 0.55758 0.47061 0.26133 0.0
H897 H 0.59154 0.38846 0.336 0.0
H898 H 0.59779 0.46935 0.31907 0.0
H899 H 0.57117 0.39899 0.27216 0.0
C900 C 0.55886 0.41713 0.24957 0.0
C901 C 0.55493 0.43739 0.24588 0.0
C902 C 0.59632 0.45158 0.32284 0.0
C903 C 0.57376 0.43266 0.28662 0.0
C904 C 0.60706 0.44951 0.34253 0.0
C905 C 0.60565 0.42675 0.34773 0.0
C906 C 0.58438 0.43088 0.30811 0.0
C907 C 0.59306 0.40635 0.33274 0.0
C908 C 0.56806 0.41463 0.26985 0.0
C909 C 0.56058 0.45487 0.26322 0.0
N910 N 0.58309 0.40896 0.31356 0.0
N911 N 0.56981 0.45216 0.28279 0.0
H912 H 0.4385 0.91224 0.35655 0.0
H913 H 0.40998 0.78602 0.29267 0.0
H914 H 0.46056 0.86032 0.38068 0.0
H915 H 0.39967 0.84291 0.26235 0.0
H916 H 0.42579 0.81215 0.32612 0.0
H917 H 0.42234 0.88677 0.32255 0.0
C918 C 0.44001 0.89554 0.35467 0.0
C919 C 0.4509 0.8884 0.37148 0.0
C920 C 0.42023 0.81909 0.31217 0.0
C921 C 0.43236 0.85918 0.33278 0.0
C922 C 0.41133 0.80422 0.29309 0.0
C923 C 0.40457 0.81291 0.27464 0.0
C924 C 0.42205 0.84271 0.31288 0.0
C925 C 0.40542 0.83599 0.27619 0.0
C926 C 0.43085 0.88107 0.33526 0.0
C927 C 0.45261 0.86673 0.36809 0.0
N928 N 0.41432 0.85031 0.29498 0.0
N929 N 0.44332 0.85285 0.3492 0.0
H930 H 0.62585 0.48819 0.54598 0.0
H931 H 0.56611 0.40716 0.43696 0.0
H932 H 0.54497 0.43049 0.5432 0.0
H933 H 0.64119 0.42632 0.46233 0.0
H934 H 0.55749 0.42184 0.47207 0.0
H935 H 0.63172 0.47206 0.51142 0.0
C936 C 0.60923 0.47211 0.53829 0.0
C937 C 0.58492 0.46041 0.54815 0.0
C938 C 0.57587 0.42291 0.46979 0.0
C939 C 0.59148 0.4431 0.5073 0.0
C940 C 0.58079 0.41467 0.44986 0.0
C941 C 0.60482 0.41667 0.44656 0.0
C942 C 0.59515 0.4331 0.48632 0.0
C943 C 0.62294 0.42567 0.46391 0.0
C944 C 0.61264 0.46319 0.51826 0.0
C945 C 0.56407 0.44037 0.53642 0.0
N946 N 0.61791 0.43393 0.48294 0.0
N947 N 0.56781 0.43241 0.51655 0.0
H948 H 0.15689 0.63566 0.70126 0.0
H949 H 0.19121 0.57365 0.60042 0.0
H950 H 0.12021 0.55555 0.68888 0.0
H951 H 0.22948 0.65378 0.61378 0.0
H952 H 0.16426 0.56675 0.63216 0.0
H953 H 0.18219 0.64274 0.66829 0.0
C954 C 0.15389 0.61955 0.69146 0.0
C955 C 0.13638 0.59495 0.69789 0.0
C956 C 0.17857 0.58585 0.62816 0.0
C957 C 0.16569 0.60294 0.66028 0.0
C958 C 0.19406 0.58983 0.61003 0.0
C959 C 0.21278 0.61436 0.60436 0.0
C960 C 0.18172 0.60652 0.64078 0.0
C961 C 0.21539 0.63452 0.61748 0.0
C962 C 0.16853 0.62361 0.67273 0.0
C963 C 0.13369 0.57482 0.68472 0.0
N964 N 0.20004 0.63015 0.63505 0.0
N965 N 0.14823 0.57925 0.66659 0.0
H966 H 0.58032 0.11278 0.84626 0.0
H967 H 0.58625 0.22846 0.78363 0.0
H968 H 0.55349 0.15989 0.87436 0.0
H969 H 0.61607 0.18248 0.75848 0.0
H970 H 0.56975 0.20116 0.81528 0.0
H971 H 0.58886 0.13547 0.81218 0.0
C972 C 0.57607 0.12782 0.84518 0.0
C973 C 0.56644 0.13463 0.86324 0.0
C974 C 0.57977 0.19701 0.80273 0.0
C975 C 0.57627 0.16085 0.82424 0.0
C976 C 0.58918 0.21257 0.78464 0.0
C977 C 0.60283 0.20797 0.76843 0.0
C978 C 0.58397 0.17667 0.80455 0.0
C979 C 0.60596 0.18702 0.77063 0.0
C980 C 0.58091 0.14077 0.82571 0.0
C981 C 0.56085 0.15399 0.86081 0.0
N982 N 0.59673 0.17229 0.78836 0.0
N983 N 0.56611 0.16663 0.84173 0.0
H984 H 0.37682 0.53895 0.03942 0.0
H985 H 0.43181 0.62158 0.93438 0.0
H986 H 0.4581 0.59487 0.03662 0.0
H987 H 0.35947 0.60501 0.96237 0.0
H988 H 0.44134 0.60463 0.96718 0.0
H989 H 0.3693 0.55558 0.00624 0.0
C990 C 0.39318 0.55466 0.03195 0.0
C991 C 0.41813 0.56579 0.04141 0.0
C992 C 0.42331 0.60456 0.96595 0.0
C993 C 0.40957 0.58373 0.00229 0.0
C994 C 0.41787 0.61411 0.94734 0.0
C995 C 0.39433 0.61355 0.94541 0.0
C996 C 0.40503 0.59452 0.98256 0.0
C997 C 0.37724 0.60456 0.96285 0.0
C998 C 0.3888 0.56388 0.01276 0.0
C999 C 0.43854 0.58542 0.03008 0.0
N1000 N 0.38273 0.59503 0.98059 0.0
N1001 N 0.43381 0.59373 0.01107 0.0
H1002 H 0.89831 0.47271 0.19114 0.0
H1003 H 0.76211 0.38782 0.12953 0.0
H1004 H 0.82897 0.41658 0.22193 0.0
H1005 H 0.82719 0.44825 0.09779 0.0
H1006 H 0.78636 0.40043 0.16413 0.0
H1007 H 0.8731 0.46601 0.15715 0.0
C1008 C 0.8778 0.45911 0.19078 0.0
C1009 C 0.86577 0.44492 0.20928 0.0
C1010 C 0.79546 0.41113 0.14972 0.0
C1011 C 0.83694 0.43733 0.17072 0.0
C1012 C 0.78164 0.40382 0.12997 0.0
C1013 C 0.79314 0.41654 0.11086 0.0
C1014 C 0.82108 0.43129 0.15034 0.0
C1015 C 0.81805 0.43767 0.11225 0.0
C1016 C 0.86345 0.45531 0.17142 0.0
C1017 C 0.83918 0.42753 0.20794 0.0
N1018 N 0.83149 0.44419 0.13168 0.0
N1019 N 0.82574 0.42419 0.18902 0.0
loop_
_geom_bond_atom_site_label_1
_geom_bond_atom_site_label_2
_geom_bond_distance
_geom_bond_site_symmetry_2
_ccdc_geom_bond_type
H0 C27 0.929 . S
N1 C26 1.433 . S
N1 C32 1.435 . S
N1 C38 1.423 . S
H2 C28 0.930 . S
H3 C31 0.931 . S
H4 C30 0.929 . S
H5 C33 0.930 . S
H6 C34 0.932 . S
H7 C37 0.929 . S
H8 C36 0.931 . S
H9 C39 0.929 . S
H10 C43 0.932 . S
H11 C40 0.931 . S
H12 C42 0.929 . S
H13 C45 0.929 . S
H14 C46 0.930 . S
H15 C48 0.929 . S
H16 C49 0.931 . S
H17 C51 0.930 . S
H18 C52 0.932 . S
H19 C54 0.931 . S
H20 C55 0.929 . S
H21 C57 0.929 . S
H22 C58 0.931 . S
H23 C60 0.929 . S
N24 C44 1.433 . S
N24 C50 1.435 . S
N24 C56 1.423 . S
H25 C61 0.932 . S
C26 N1 1.433 . S
C26 C27 1.363 . S
C26 C31 1.370 . S
C27 H0 0.929 . S
C27 C26 1.363 . S
C27 C28 1.385 . S
C28 H2 0.930 . S
C28 C27 1.385 . S
C28 C29 1.357 . S
C29 C28 1.357 . S
C29 C30 1.406 . S
C30 H4 0.929 . S
C30 C29 1.406 . S
C30 C31 1.391 . S
C31 H3 0.931 . S
C31 C26 1.370 . S
C31 C30 1.391 . S
C32 N1 1.435 . S
C32 C33 1.358 . S
C32 C37 1.371 . S
C33 H5 0.930 . S
C33 C32 1.358 . S
C33 C34 1.405 . S
C34 H6 0.932 . S
C34 C33 1.405 . S
C34 C35 1.383 . S
C35 C34 1.383 . S
C35 C36 1.393 . S
C36 H8 0.931 . S
C36 C35 1.393 . S
C36 C37 1.382 . S
C37 H7 0.929 . S
C37 C32 1.371 . S
C37 C36 1.382 . S
C38 N1 1.423 . S
C38 C39 1.362 . S
C38 C43 1.388 . S
C39 H9 0.929 . S
C39 C38 1.362 . S
C39 C40 1.376 . S
C40 H11 0.931 . S
C40 C39 1.376 . S
C40 C41 1.396 . S
C41 C40 1.396 . S
C41 C42 1.348 . S
C41 C59 1.472 1_455 S
C42 H12 0.929 . S
C42 C41 1.348 . S
C42 C43 1.443 . S
C43 H10 0.932 . S
C43 C38 1.388 . S
C43 C42 1.443 . S
C44 N24 1.433 . S
C44 C45 1.363 . S
C44 C49 1.370 . S
C45 H13 0.929 . S
C45 C44 1.363 . S
C45 C46 1.385 . S
C46 H14 0.930 . S
C46 C45 1.385 . S
C46 C47 1.357 . S
C47 C46 1.357 . S
C47 C48 1.406 . S
C48 H15 0.929 . S
C48 C47 1.406 . S
C48 C49 1.391 . S
C49 H16 0.931 . S
C49 C44 1.370 . S
C49 C48 1.391 . S
C50 N24 1.435 . S
C50 C51 1.358 . S
C50 C55 1.371 . S
C51 H17 0.930 . S
C51 C50 1.358 . S
C51 C52 1.405 . S
C52 H18 0.932 . S
C52 C51 1.405 . S
C52 C53 1.383 . S
C53 C52 1.383 . S
C53 C54 1.393 . S
C54 H19 0.931 . S
C54 C53 1.393 . S
C54 C55 1.382 . S
C55 H20 0.929 . S
C55 C50 1.371 . S
C55 C54 1.382 . S
C56 N24 1.423 . S
C56 C57 1.362 . S
C56 C61 1.388 . S
C57 H21 0.929 . S
C57 C56 1.362 . S
C57 C58 1.376 . S
C58 H22 0.931 . S
C58 C57 1.376 . S
C58 C59 1.396 . S
C59 C41 1.472 1_655 S
C59 C58 1.396 . S
C59 C60 1.348 . S
C60 H23 0.929 . S
C60 C59 1.348 . S
C60 C61 1.443 . S
C61 H25 0.932 . S
C61 C56 1.388 . S
C61 C60 1.443 . S
H62 C89 0.929 . S
N63 C88 1.433 . S
N63 C94 1.435 . S
N63 C100 1.423 . S
H64 C90 0.930 . S
H65 C93 0.931 . S
H66 C92 0.929 . S
H67 C95 0.930 . S
H68 C96 0.932 . S
H69 C99 0.929 . S
H70 C98 0.931 . S
H71 C101 0.929 . S
H72 C105 0.932 . S
H73 C102 0.931 . S
H74 C104 0.929 1_545 S
H75 C107 0.929 . S
H76 C108 0.930 . S
H77 C110 0.929 . S
H78 C111 0.931 . S
H79 C113 0.930 . S
H80 C114 0.932 . S
H81 C116 0.931 . S
H82 C117 0.929 . S
H83 C119 0.929 . S
H84 C120 0.931 . S
H85 C122 0.929 . S
N86 C106 1.433 . S
N86 C112 1.435 . S
N86 C118 1.423 . S
H87 C123 0.932 . S
C88 N63 1.433 . S
C88 C89 1.363 . S
C88 C93 1.370 . S
C89 H62 0.929 . S
C89 C88 1.363 . S
C89 C90 1.385 . S
C90 H64 0.930 . S
C90 C89 1.385 . S
C90 C91 1.357 . S
C91 C90 1.357 . S
C91 C92 1.406 . S
C92 H66 0.929 . S
C92 C91 1.406 . S
C92 C93 1.391 . S
C93 H65 0.931 . S
C93 C88 1.370 . S
C93 C92 1.391 . S
C94 N63 1.435 . S
C94 C95 1.358 . S
C94 C99 1.371 . S
C95 H67 0.930 . S
C95 C94 1.358 . S
C95 C96 1.405 . S
C96 H68 0.932 . S
C96 C95 1.405 . S
C96 C97 1.383 . S
C97 C96 1.383 . S
C97 C98 1.393 . S
C98 H70 0.931 . S
C98 C97 1.393 . S
C98 C99 1.382 . S
C99 H69 0.929 . S
C99 C94 1.371 . S
C99 C98 1.382 . S
C100 N63 1.423 . S
C100 C101 1.362 . S
C100 C105 1.388 . S
C101 H71 0.929 . S
C101 C100 1.362 . S
C101 C102 1.376 . S
C102 H73 0.931 . S
C102 C101 1.376 . S
C102 C103 1.396 1_565 S
C103 C102 1.396 1_545 S
C103 C104 1.348 1_545 S
C103 C121 1.472 . S
C104 H74 0.929 1_565 S
C104 C103 1.348 1_565 S
C104 C105 1.443 . S
C105 H72 0.932 . S
C105 C100 1.388 . S
C105 C104 1.443 . S
C106 N86 1.433 . S
C106 C107 1.363 . S
C106 C111 1.370 . S
C107 H75 0.929 . S
C107 C106 1.363 . S
C107 C108 1.385 . S
C108 H76 0.930 . S
C108 C107 1.385 . S
C108 C109 1.357 . S
C109 C108 1.357 . S
C109 C110 1.406 . S
C110 H77 0.929 . S
C110 C109 1.406 . S
C110 C111 1.391 . S
C111 H78 0.931 . S
C111 C106 1.370 . S
C111 C110 1.391 . S
C112 N86 1.435 . S
C112 C113 1.358 . S
C112 C117 1.371 . S
C113 H79 0.930 . S
C113 C112 1.358 . S
C113 C114 1.405 . S
C114 H80 0.932 . S
C114 C113 1.405 . S
C114 C115 1.383 . S
C115 C114 1.383 . S
C115 C116 1.393 . S
C116 H81 0.931 . S
C116 C115 1.393 . S
C116 C117 1.382 . S
C117 H82 0.929 . S
C117 C112 1.371 . S
C117 C116 1.382 . S
C118 N86 1.423 . S
C118 C119 1.362 . S
C118 C123 1.388 . S
C119 H83 0.929 . S
C119 C118 1.362 . S
C119 C120 1.376 . S
C120 H84 0.931 . S
C120 C119 1.376 . S
C120 C121 1.396 . S
C121 C103 1.472 . S
C121 C120 1.396 . S
C121 C122 1.348 . S
C122 H85 0.929 . S
C122 C121 1.348 . S
C122 C123 1.443 . S
C123 H87 0.932 . S
C123 C118 1.388 . S
C123 C122 1.443 . S
H124 C151 0.929 . S
N125 C150 1.433 . S
N125 C156 1.435 . S
N125 C162 1.423 . S
H126 C152 0.930 . S
H127 C155 0.931 . S
H128 C154 0.929 . S
H129 C157 0.930 . S
H130 C158 0.932 . S
H131 C161 0.929 . S
H132 C160 0.931 . S
H133 C163 0.929 . S
H134 C167 0.932 . S
H135 C164 0.931 . S
H136 C166 0.929 . S
H137 C169 0.929 . S
H138 C170 0.930 . S
H139 C172 0.929 . S
H140 C173 0.931 . S
H141 C175 0.930 . S
H142 C176 0.932 . S
H143 C178 0.931 . S
H144 C179 0.929 . S
H145 C181 0.929 . S
H146 C182 0.931 . S
H147 C184 0.929 . S
N148 C168 1.433 . S
N148 C174 1.435 . S
N148 C180 1.423 . S
H149 C185 0.932 . S
C150 N125 1.433 . S
C150 C151 1.363 . S
C150 C155 1.370 . S
C151 H124 0.929 . S
C151 C150 1.363 . S
C151 C152 1.385 . S
C152 H126 0.930 . S
C152 C151 1.385 . S
C152 C153 1.357 . S
C153 C152 1.357 . S
C153 C154 1.406 . S
C154 H128 0.929 . S
C154 C153 1.406 . S
C154 C155 1.391 . S
C155 H127 0.931 . S
C155 C150 1.370 . S
C155 C154 1.391 . S
C156 N125 1.435 . S
C156 C157 1.358 . S
C156 C161 1.371 . S
C157 H129 0.930 . S
C157 C156 1.358 . S
C157 C158 1.405 . S
C158 H130 0.932 . S
C158 C157 1.405 . S
C158 C159 1.383 . S
C159 C158 1.383 . S
C159 C160 1.393 . S
C160 H132 0.931 . S
C160 C159 1.393 . S
C160 C161 1.382 . S
C161 H131 0.929 . S
C161 C156 1.371 . S
C161 C160 1.382 . S
C162 N125 1.423 . S
C162 C163 1.362 . S
C162 C167 1.388 . S
C163 H133 0.929 . S
C163 C162 1.362 . S
C163 C164 1.376 . S
C164 H135 0.931 . S
C164 C163 1.376 . S
C164 C165 1.396 . S
C165 C164 1.396 . S
C165 C166 1.348 . S
C165 C183 1.472 . S
C166 H136 0.929 . S
C166 C165 1.348 . S
C166 C167 1.443 . S
C167 H134 0.932 . S
C167 C162 1.388 . S
C167 C166 1.443 . S
C168 N148 1.433 . S
C168 C169 1.363 . S
C168 C173 1.370 . S
C169 H137 0.929 . S
C169 C168 1.363 . S
C169 C170 1.385 . S
C170 H138 0.930 . S
C170 C169 1.385 . S
C170 C171 1.357 . S
C171 C170 1.357 . S
C171 C172 1.406 . S
C172 H139 0.929 . S
C172 C171 1.406 . S
C172 C173 1.391 . S
C173 H140 0.931 . S
C173 C168 1.370 . S
C173 C172 1.391 . S
C174 N148 1.435 . S
C174 C175 1.358 . S
C174 C179 1.371 . S
C175 H141 0.930 . S
C175 C174 1.358 . S
C175 C176 1.405 . S
C176 H142 0.932 . S
C176 C175 1.405 . S
C176 C177 1.383 . S
C177 C176 1.383 . S
C177 C178 1.393 . S
C178 H143 0.931 . S
C178 C177 1.393 . S
C178 C179 1.382 . S
C179 H144 0.929 . S
C179 C174 1.371 . S
C179 C178 1.382 . S
C180 N148 1.423 . S
C180 C181 1.362 . S
C180 C185 1.388 . S
C181 H145 0.929 . S
C181 C180 1.362 . S
C181 C182 1.376 . S
C182 H146 0.931 . S
C182 C181 1.376 . S
C182 C183 1.396 . S
C183 C165 1.472 . S
C183 C182 1.396 . S
C183 C184 1.348 . S
C184 H147 0.929 . S
C184 C183 1.348 . S
C184 C185 1.443 . S
C185 H149 0.932 . S
C185 C180 1.388 . S
C185 C184 1.443 . S
H186 C213 0.929 . S
N187 C212 1.433 . S
N187 C218 1.435 . S
N187 C224 1.423 . S
H188 C214 0.930 . S
H189 C217 0.931 . S
H190 C216 0.929 . S
H191 C219 0.930 . S
H192 C220 0.932 . S
H193 C223 0.929 . S
H194 C222 0.931 . S
H195 C225 0.929 . S
H196 C229 0.932 . S
H197 C226 0.931 . S
H198 C228 0.929 . S
H199 C231 0.929 . S
H200 C232 0.930 . S
H201 C234 0.929 . S
H202 C235 0.931 . S
H203 C237 0.930 . S
H204 C238 0.932 . S
H205 C240 0.931 . S
H206 C241 0.929 . S
H207 C243 0.929 . S
H208 C244 0.931 . S
H209 C246 0.929 . S
N210 C230 1.433 . S
N210 C236 1.435 . S
N210 C242 1.423 . S
H211 C247 0.932 . S
C212 N187 1.433 . S
C212 C213 1.363 . S
C212 C217 1.370 . S
C213 H186 0.929 . S
C213 C212 1.363 . S
C213 C214 1.385 . S
C214 H188 0.930 . S
C214 C213 1.385 . S
C214 C215 1.357 . S
C215 C214 1.357 . S
C215 C216 1.406 . S
C216 H190 0.929 . S
C216 C215 1.406 . S
C216 C217 1.391 . S
C217 H189 0.931 . S
C217 C212 1.370 . S
C217 C216 1.391 . S
C218 N187 1.435 . S
C218 C219 1.358 . S
C218 C223 1.371 . S
C219 H191 0.930 . S
C219 C218 1.358 . S
C219 C220 1.405 . S
C220 H192 0.932 . S
C220 C219 1.405 . S
C220 C221 1.383 . S
C221 C220 1.383 . S
C221 C222 1.393 . S
C222 H194 0.931 . S
C222 C221 1.393 . S
C222 C223 1.382 . S
C223 H193 0.929 . S
C223 C218 1.371 . S
C223 C222 1.382 . S
C224 N187 1.423 . S
C224 C225 1.362 . S
C224 C229 1.388 . S
C225 H195 0.929 . S
C225 C224 1.362 . S
C225 C226 1.376 . S
C226 H197 0.931 . S
C226 C225 1.376 . S
C226 C227 1.396 . S
C227 C226 1.396 . S
C227 C228 1.348 . S
C227 C245 1.472 1_455 S
C228 H198 0.929 . S
C228 C227 1.348 . S
C228 C229 1.443 . S
C229 H196 0.932 . S
C229 C224 1.388 . S
C229 C228 1.443 . S
C230 N210 1.433 . S
C230 C231 1.363 . S
C230 C235 1.370 . S
C231 H199 0.929 . S
C231 C230 1.363 . S
C231 C232 1.385 . S
C232 H200 0.930 . S
C232 C231 1.385 . S
C232 C233 1.357 . S
C233 C232 1.357 . S
C233 C234 1.406 . S
C234 H201 0.929 . S
C234 C233 1.406 . S
C234 C235 1.391 . S
C235 H202 0.931 . S
C235 C230 1.370 . S
C235 C234 1.391 . S
C236 N210 1.435 . S
C236 C237 1.358 . S
C236 C241 1.371 . S
C237 H203 0.930 . S
C237 C236 1.358 . S
C237 C238 1.405 . S
C238 H204 0.932 . S
C238 C237 1.405 . S
C238 C239 1.383 . S
C239 C238 1.383 . S
C239 C240 1.393 . S
C240 H205 0.931 . S
C240 C239 1.393 . S
C240 C241 1.382 . S
C241 H206 0.929 . S
C241 C236 1.371 . S
C241 C240 1.382 . S
C242 N210 1.423 . S
C242 C243 1.362 . S
C242 C247 1.388 . S
C243 H207 0.929 . S
C243 C242 1.362 . S
C243 C244 1.376 . S
C244 H208 0.931 . S
C244 C243 1.376 . S
C244 C245 1.396 . S
C245 C227 1.472 1_655 S
C245 C244 1.396 . S
C245 C246 1.348 . S
C246 H209 0.929 . S
C246 C245 1.348 . S
C246 C247 1.443 . S
C247 H211 0.932 . S
C247 C242 1.388 . S
C247 C246 1.443 . S
H248 C275 0.929 . S
N249 C274 1.433 . S
N249 C280 1.435 . S
N249 C286 1.423 . S
H250 C276 0.930 . S
H251 C279 0.931 . S
H252 C278 0.929 . S
H253 C281 0.930 . S
H254 C282 0.932 . S
H255 C285 0.929 . S
H256 C284 0.931 . S
H257 C287 0.929 . S
H258 C291 0.932 . S
H259 C288 0.931 . S
H260 C290 0.929 . S
H261 C293 0.929 . S
H262 C294 0.930 . S
H263 C296 0.929 . S
H264 C297 0.931 . S
H265 C299 0.930 1_554 S
H266 C300 0.932 . S
H267 C302 0.931 . S
H268 C303 0.929 . S
H269 C305 0.929 . S
H270 C306 0.931 1_544 S
H271 C308 0.929 . S
N272 C292 1.433 . S
N272 C298 1.435 1_554 S
N272 C304 1.423 1_554 S
H273 C309 0.932 . S
C274 N249 1.433 . S
C274 C275 1.363 . S
C274 C279 1.370 . S
C275 H248 0.929 . S
C275 C274 1.363 . S
C275 C276 1.385 . S
C276 H250 0.930 . S
C276 C275 1.385 . S
C276 C277 1.357 1_556 S
C277 C276 1.357 1_554 S
C277 C278 1.406 . S
C278 H252 0.929 . S
C278 C277 1.406 . S
C278 C279 1.391 1_554 S
C279 H251 0.931 . S
C279 C274 1.370 . S
C279 C278 1.391 1_556 S
C280 N249 1.435 . S
C280 C281 1.358 . S
C280 C285 1.371 . S
C281 H253 0.930 . S
C281 C280 1.358 . S
C281 C282 1.405 . S
C282 H254 0.932 . S
C282 C281 1.405 . S
C282 C283 1.383 . S
C283 C282 1.383 . S
C283 C284 1.393 . S
C284 H256 0.931 . S
C284 C283 1.393 . S
C284 C285 1.382 . S
C285 H255 0.929 . S
C285 C280 1.371 . S
C285 C284 1.382 . S
C286 N249 1.423 . S
C286 C287 1.362 . S
C286 C291 1.388 . S
C287 H257 0.929 . S
C287 C286 1.362 . S
C287 C288 1.376 . S
C288 H259 0.931 . S
C288 C287 1.376 . S
C288 C289 1.396 . S
C289 C288 1.396 . S
C289 C290 1.348 . S
C289 C307 1.518 . S
C290 H260 0.929 . S
C290 C289 1.348 . S
C290 C291 1.443 . S
C291 H258 0.932 . S
C291 C286 1.388 . S
C291 C290 1.443 . S
C292 N272 1.433 . S
C292 C293 1.363 . S
C292 C297 1.370 . S
C293 H261 0.929 . S
C293 C292 1.363 . S
C293 C294 1.385 . S
C294 H262 0.930 . S
C294 C293 1.385 . S
C294 C295 1.357 . S
C295 C294 1.357 . S
C295 C296 1.406 . S
C296 H263 0.929 . S
C296 C295 1.406 . S
C296 C297 1.391 . S
C297 H264 0.931 . S
C297 C292 1.370 . S
C297 C296 1.391 . S
C298 N272 1.435 1_556 S
C298 C299 1.358 . S
C298 C303 1.371 . S
C299 H265 0.930 1_556 S
C299 C298 1.358 . S
C299 C300 1.405 . S
C300 H266 0.932 . S
C300 C299 1.405 . S
C300 C301 1.383 . S
C301 C300 1.383 . S
C301 C302 1.393 . S
C302 H267 0.931 . S
C302 C301 1.393 . S
C302 C303 1.382 . S
C303 H268 0.929 . S
C303 C298 1.371 . S
C303 C302 1.382 . S
C304 N272 1.423 1_556 S
C304 C305 1.362 1_556 S
C304 C309 1.388 . S
C305 H269 0.929 . S
C305 C304 1.362 1_554 S
C305 C306 1.376 1_554 S
C306 H270 0.931 1_566 S
C306 C305 1.376 1_556 S
C306 C307 1.397 1_565 S
C307 C289 1.518 . S
C307 C306 1.397 1_545 S
C307 C308 1.300 1_545 S
C308 H271 0.929 . S
C308 C307 1.300 1_565 S
C308 C309 1.443 . S
C309 H273 0.932 . S
C309 C304 1.388 . S
C309 C308 1.443 . S
H310 C337 0.929 . S
N311 C336 1.433 . S
N311 C342 1.435 . S
N311 C348 1.423 . S
H312 C338 0.930 . S
H313 C341 0.931 . S
H314 C340 0.929 . S
H315 C343 0.930 . S
H316 C344 0.932 . S
H317 C347 0.929 . S
H318 C346 0.931 . S
H319 C349 0.929 . S
H320 C353 0.932 . S
H321 C350 0.931 . S
H322 C352 0.929 . S
H323 C355 0.929 . S
H324 C356 0.930 . S
H325 C358 0.929 . S
H326 C359 0.931 . S
H327 C361 0.930 . S
H328 C362 0.932 . S
H329 C364 0.931 . S
H330 C365 0.929 . S
H331 C367 0.929 . S
H332 C368 0.931 . S
H333 C370 0.929 . S
N334 C354 1.433 . S
N334 C360 1.435 . S
N334 C366 1.423 . S
H335 C371 0.932 . S
C336 N311 1.433 . S
C336 C337 1.363 . S
C336 C341 1.370 . S
C337 H310 0.929 . S
C337 C336 1.363 . S
C337 C338 1.385 . S
C338 H312 0.930 . S
C338 C337 1.385 . S
C338 C339 1.357 . S
C339 C338 1.357 . S
C339 C340 1.406 . S
C340 H314 0.929 . S
C340 C339 1.406 . S
C340 C341 1.391 . S
C341 H313 0.931 . S
C341 C336 1.370 . S
C341 C340 1.391 . S
C342 N311 1.435 . S
C342 C343 1.358 . S
C342 C347 1.371 . S
C343 H315 0.930 . S
C343 C342 1.358 . S
C343 C344 1.405 . S
C344 H316 0.932 . S
C344 C343 1.405 . S
C344 C345 1.383 . S
C345 C344 1.383 . S
C345 C346 1.393 . S
C346 H318 0.931 . S
C346 C345 1.393 . S
C346 C347 1.382 . S
C347 H317 0.929 . S
C347 C342 1.371 . S
C347 C346 1.382 . S
C348 N311 1.423 . S
C348 C349 1.362 . S
C348 C353 1.388 . S
C349 H319 0.929 . S
C349 C348 1.362 . S
C349 C350 1.376 . S
C350 H321 0.931 . S
C350 C349 1.376 . S
C350 C351 1.396 . S
C351 C350 1.396 . S
C351 C352 1.348 . S
C351 C369 1.472 . S
C352 H322 0.929 . S
C352 C351 1.348 . S
C352 C353 1.443 . S
C353 H320 0.932 . S
C353 C348 1.388 . S
C353 C352 1.443 . S
C354 N334 1.433 . S
C354 C355 1.363 . S
C354 C359 1.370 . S
C355 H323 0.929 . S
C355 C354 1.363 . S
C355 C356 1.385 . S
C356 H324 0.930 . S
C356 C355 1.385 . S
C356 C357 1.357 . S
C357 C356 1.357 . S
C357 C358 1.406 . S
C358 H325 0.929 . S
C358 C357 1.406 . S
C358 C359 1.391 . S
C359 H326 0.931 . S
C359 C354 1.370 . S
C359 C358 1.391 . S
C360 N334 1.435 . S
C360 C361 1.358 . S
C360 C365 1.371 . S
C361 H327 0.930 . S
C361 C360 1.358 . S
C361 C362 1.405 . S
C362 H328 0.932 . S
C362 C361 1.405 . S
C362 C363 1.383 . S
C363 C362 1.383 . S
C363 C364 1.393 . S
C364 H329 0.931 . S
C364 C363 1.393 . S
C364 C365 1.382 . S
C365 H330 0.929 . S
C365 C360 1.371 . S
C365 C364 1.382 . S
C366 N334 1.423 . S
C366 C367 1.362 . S
C366 C371 1.388 . S
C367 H331 0.929 . S
C367 C366 1.362 . S
C367 C368 1.376 . S
C368 H332 0.931 . S
C368 C367 1.376 . S
C368 C369 1.396 . S
C369 C351 1.472 . S
C369 C368 1.396 . S
C369 C370 1.348 . S
C370 H333 0.929 . S
C370 C369 1.348 . S
C370 C371 1.443 . S
C371 H335 0.932 . S
C371 C366 1.388 . S
C371 C370 1.443 . S
Mn372 O377 2.095 . S
Mn372 O387 2.162 . S
Mn372 O388 2.297 . S
Mn372 O396 2.385 . S
Mn372 O397 2.209 . S
Mn372 O398 2.094 . S
Mn373 O378 2.121 . S
Mn373 N380 2.257 . S
Mn373 N389 2.282 . S
Mn373 O397 2.215 . S
Mn373 O399 2.117 . S
C374 O396 1.234 . S
C374 O397 1.283 . S
C375 O387 1.281 . S
C375 O388 1.236 . S
C376 O398 1.240 . S
C376 O399 1.264 . S
O377 Mn372 2.095 . S
O377 C386 1.250 . S
O378 Mn373 2.121 . S
O378 C386 1.258 . S
C379 N380 1.326 . S
C379 C383 1.460 . S
C379 H385 0.929 . S
N380 Mn373 2.257 . S
N380 C379 1.326 . S
N380 C384 1.362 . S
C381 C382 1.258 . S
C381 C384 1.431 . S
C381 C401 1.449 . S
C382 C381 1.258 . S
C382 C383 1.477 . S
C382 H402 0.931 . S
C383 C379 1.460 . S
C383 C382 1.477 . S
C383 H403 0.930 . S
C384 N380 1.362 . S
C384 C381 1.431 . S
C384 C394 1.476 . S
H385 C379 0.929 . S
C386 O377 1.250 . S
C386 O378 1.258 . S
O387 Mn372 2.162 . S
O387 C375 1.281 . S
O388 Mn372 2.297 . S
O388 C375 1.236 . S
N389 Mn373 2.282 . S
N389 C390 1.328 . S
N389 C394 1.318 . S
C390 N389 1.328 . S
C390 C391 1.457 . S
C390 H395 0.929 . S
C391 C390 1.457 . S
C391 C392 1.291 . S
C391 H404 0.931 . S
C392 C391 1.291 . S
C392 C393 1.373 . S
C392 H405 0.929 . S
C393 C392 1.373 . S
C393 C394 1.396 . S
C393 C400 1.403 . S
C394 C384 1.476 . S
C394 N389 1.318 . S
C394 C393 1.396 . S
H395 C390 0.929 . S
O396 Mn372 2.385 . S
O396 C374 1.234 . S
O397 Mn372 2.209 . S
O397 Mn373 2.215 . S
O397 C374 1.283 . S
O398 Mn372 2.094 . S
O398 C376 1.240 . S
O399 Mn373 2.117 . S
O399 C376 1.264 . S
C400 C393 1.403 . S
C400 C401 1.399 . S
C400 H406 0.929 . S
C401 C381 1.449 . S
C401 C400 1.399 . S
C401 H407 0.930 . S
H402 C382 0.931 . S
H403 C383 0.930 . S
H404 C391 0.931 . S
H405 C392 0.929 . S
H406 C400 0.929 . S
H407 C401 0.930 . S
Mn408 O413 2.095 . S
Mn408 O423 2.162 . S
Mn408 O424 2.297 . S
Mn408 O432 2.385 . S
Mn408 O433 2.209 . S
Mn408 O434 2.094 . S
Mn409 O414 2.121 . S
Mn409 N416 2.257 . S
Mn409 N425 2.282 . S
Mn409 O433 2.215 . S
Mn409 O435 2.117 . S
C410 O432 1.234 . S
C410 O433 1.283 . S
C411 O423 1.281 . S
C411 O424 1.236 . S
C412 O434 1.240 . S
C412 O435 1.264 . S
O413 Mn408 2.095 . S
O413 C422 1.250 . S
O414 Mn409 2.121 . S
O414 C422 1.258 . S
C415 N416 1.326 . S
C415 C419 1.460 . S
C415 H421 0.929 . S
N416 Mn409 2.257 . S
N416 C415 1.326 . S
N416 C420 1.362 . S
C417 C418 1.258 . S
C417 C420 1.431 . S
C417 C437 1.449 . S
C418 C417 1.258 . S
C418 C419 1.477 . S
C418 H438 0.931 . S
C419 C415 1.460 . S
C419 C418 1.477 . S
C419 H439 0.930 . S
C420 N416 1.362 . S
C420 C417 1.431 . S
C420 C430 1.476 . S
H421 C415 0.929 . S
C422 O413 1.250 . S
C422 O414 1.258 . S
O423 Mn408 2.162 . S
O423 C411 1.281 . S
O424 Mn408 2.297 . S
O424 C411 1.236 . S
N425 Mn409 2.282 . S
N425 C426 1.328 . S
N425 C430 1.318 . S
C426 N425 1.328 . S
C426 C427 1.457 . S
C426 H431 0.929 . S
C427 C426 1.457 . S
C427 C428 1.291 . S
C427 H440 0.931 . S
C428 C427 1.291 . S
C428 C429 1.373 . S
C428 H441 0.929 . S
C429 C428 1.373 . S
C429 C430 1.396 . S
C429 C436 1.403 . S
C430 C420 1.476 . S
C430 N425 1.318 . S
C430 C429 1.396 . S
H431 C426 0.929 . S
O432 Mn408 2.385 . S
O432 C410 1.234 . S
O433 Mn408 2.209 . S
O433 Mn409 2.215 . S
O433 C410 1.283 . S
O434 Mn408 2.094 . S
O434 C412 1.240 . S
O435 Mn409 2.117 . S
O435 C412 1.264 . S
C436 C429 1.403 . S
C436 C437 1.399 . S
C436 H442 0.929 . S
C437 C417 1.449 . S
C437 C436 1.399 . S
C437 H443 0.930 . S
H438 C418 0.931 . S
H439 C419 0.930 . S
H440 C427 0.931 . S
H441 C428 0.929 . S
H442 C436 0.929 . S
H443 C437 0.930 . S
Mn444 O449 2.095 . S
Mn444 O459 2.162 . S
Mn444 O460 2.297 . S
Mn444 O468 2.385 . S
Mn444 O469 2.209 . S
Mn444 O470 2.094 . S
Mn445 O450 2.121 . S
Mn445 N452 2.257 . S
Mn445 N461 2.282 . S
Mn445 O469 2.215 . S
Mn445 O471 2.117 . S
C446 O468 1.234 . S
C446 O469 1.283 . S
C447 O459 1.281 . S
C447 O460 1.236 . S
C448 O470 1.240 . S
C448 O471 1.264 . S
O449 Mn444 2.095 . S
O449 C458 1.250 . S
O450 Mn445 2.121 . S
O450 C458 1.258 . S
C451 N452 1.326 . S
C451 C455 1.460 . S
C451 H457 0.929 . S
N452 Mn445 2.257 . S
N452 C451 1.326 . S
N452 C456 1.362 . S
C453 C454 1.258 . S
C453 C456 1.431 . S
C453 C473 1.449 . S
C454 C453 1.258 . S
C454 C455 1.477 . S
C454 H474 0.931 . S
C455 C451 1.460 . S
C455 C454 1.477 . S
C455 H475 0.930 . S
C456 N452 1.362 . S
C456 C453 1.431 . S
C456 C466 1.476 . S
H457 C451 0.929 . S
C458 O449 1.250 . S
C458 O450 1.258 . S
O459 Mn444 2.162 . S
O459 C447 1.281 . S
O460 Mn444 2.297 . S
O460 C447 1.236 . S
N461 Mn445 2.282 . S
N461 C462 1.328 . S
N461 C466 1.318 . S
C462 N461 1.328 . S
C462 C463 1.457 . S
C462 H467 0.929 . S
C463 C462 1.457 . S
C463 C464 1.291 . S
C463 H476 0.931 . S
C464 C463 1.291 . S
C464 C465 1.373 . S
C464 H477 0.929 . S
C465 C464 1.373 . S
C465 C466 1.396 . S
C465 C472 1.403 . S
C466 C456 1.476 . S
C466 N461 1.318 . S
C466 C465 1.396 . S
H467 C462 0.929 . S
O468 Mn444 2.385 . S
O468 C446 1.234 . S
O469 Mn444 2.209 . S
O469 Mn445 2.215 . S
O469 C446 1.283 . S
O470 Mn444 2.094 . S
O470 C448 1.240 . S
O471 Mn445 2.117 . S
O471 C448 1.264 . S
C472 C465 1.403 . S
C472 C473 1.399 . S
C472 H478 0.929 . S
C473 C453 1.449 . S
C473 C472 1.399 . S
C473 H479 0.930 . S
H474 C454 0.931 . S
H475 C455 0.930 . S
H476 C463 0.931 . S
H477 C464 0.929 . S
H478 C472 0.929 . S
H479 C473 0.930 . S
Mn480 O485 2.095 . S
Mn480 O495 2.162 . S
Mn480 O496 2.297 . S
Mn480 O504 2.385 . S
Mn480 O505 2.209 . S
Mn480 O506 2.094 . S
Mn481 O486 2.121 . S
Mn481 N488 2.257 . S
Mn481 N497 2.282 . S
Mn481 O505 2.215 . S
Mn481 O507 2.117 . S
C482 O504 1.234 . S
C482 O505 1.283 . S
C483 O495 1.281 . S
C483 O496 1.236 . S
C484 O506 1.240 . S
C484 O507 1.264 . S
O485 Mn480 2.095 . S
O485 C494 1.250 . S
O486 Mn481 2.121 . S
O486 C494 1.258 . S
C487 N488 1.326 . S
C487 C491 1.460 . S
C487 H493 0.929 . S
N488 Mn481 2.257 . S
N488 C487 1.326 . S
N488 C492 1.362 . S
C489 C490 1.258 . S
C489 C492 1.431 . S
C489 C509 1.449 . S
C490 C489 1.258 . S
C490 C491 1.477 . S
C490 H510 0.931 . S
C491 C487 1.460 . S
C491 C490 1.477 . S
C491 H511 0.930 . S
C492 N488 1.362 . S
C492 C489 1.431 . S
C492 C502 1.476 . S
H493 C487 0.929 . S
C494 O485 1.250 . S
C494 O486 1.258 . S
O495 Mn480 2.162 . S
O495 C483 1.281 . S
O496 Mn480 2.297 . S
O496 C483 1.236 . S
N497 Mn481 2.282 . S
N497 C498 1.328 . S
N497 C502 1.318 . S
C498 N497 1.328 . S
C498 C499 1.457 . S
C498 H503 0.929 . S
C499 C498 1.457 . S
C499 C500 1.291 . S
C499 H512 0.931 . S
C500 C499 1.291 . S
C500 C501 1.373 . S
C500 H513 0.929 . S
C501 C500 1.373 . S
C501 C502 1.396 . S
C501 C508 1.403 . S
C502 C492 1.476 . S
C502 N497 1.318 . S
C502 C501 1.396 . S
H503 C498 0.929 . S
O504 Mn480 2.385 . S
O504 C482 1.234 . S
O505 Mn480 2.209 . S
O505 Mn481 2.215 . S
O505 C482 1.283 . S
O506 Mn480 2.094 . S
O506 C484 1.240 . S
O507 Mn481 2.117 . S
O507 C484 1.264 . S
C508 C501 1.403 . S
C508 C509 1.399 . S
C508 H514 0.929 . S
C509 C489 1.449 . S
C509 C508 1.399 . S
C509 H515 0.930 . S
H510 C490 0.931 . S
H511 C491 0.930 . S
H512 C499 0.931 . S
H513 C500 0.929 . S
H514 C508 0.929 . S
H515 C509 0.930 . S
Mn516 O521 2.095 . S
Mn516 O531 2.162 . S
Mn516 O532 2.297 . S
Mn516 O540 2.385 . S
Mn516 O541 2.209 . S
Mn516 O542 2.094 . S
Mn517 O522 2.121 . S
Mn517 N524 2.257 . S
Mn517 N533 2.282 . S
Mn517 O541 2.215 . S
Mn517 O543 2.117 . S
C518 O540 1.234 . S
C518 O541 1.283 . S
C519 O531 1.281 . S
C519 O532 1.236 . S
C520 O542 1.240 . S
C520 O543 1.264 . S
O521 Mn516 2.095 . S
O521 C530 1.250 . S
O522 Mn517 2.121 . S
O522 C530 1.258 . S
C523 N524 1.326 . S
C523 C527 1.460 . S
C523 H529 0.929 . S
N524 Mn517 2.257 . S
N524 C523 1.326 . S
N524 C528 1.362 . S
C525 C526 1.258 . S
C525 C528 1.431 . S
C525 C545 1.449 . S
C526 C525 1.258 . S
C526 C527 1.477 . S
C526 H546 0.931 . S
C527 C523 1.460 . S
C527 C526 1.477 . S
C527 H547 0.930 . S
C528 N524 1.362 . S
C528 C525 1.431 . S
C528 C538 1.476 . S
H529 C523 0.929 . S
C530 O521 1.250 . S
C530 O522 1.258 . S
O531 Mn516 2.162 . S
O531 C519 1.281 . S
O532 Mn516 2.297 . S
O532 C519 1.236 . S
N533 Mn517 2.282 . S
N533 C534 1.328 . S
N533 C538 1.318 . S
C534 N533 1.328 . S
C534 C535 1.457 . S
C534 H539 0.929 . S
C535 C534 1.457 . S
C535 C536 1.291 . S
C535 H548 0.931 . S
C536 C535 1.291 . S
C536 C537 1.373 . S
C536 H549 0.929 . S
C537 C536 1.373 . S
C537 C538 1.396 . S
C537 C544 1.403 . S
C538 C528 1.476 . S
C538 N533 1.318 . S
C538 C537 1.396 . S
H539 C534 0.929 . S
O540 Mn516 2.385 . S
O540 C518 1.234 . S
O541 Mn516 2.209 . S
O541 Mn517 2.215 . S
O541 C518 1.283 . S
O542 Mn516 2.094 . S
O542 C520 1.240 . S
O543 Mn517 2.117 . S
O543 C520 1.264 . S
C544 C537 1.403 . S
C544 C545 1.399 . S
C544 H550 0.929 . S
C545 C525 1.449 . S
C545 C544 1.399 . S
C545 H551 0.930 . S
H546 C526 0.931 . S
H547 C527 0.930 . S
H548 C535 0.931 . S
H549 C536 0.929 . S
H550 C544 0.929 . S
H551 C545 0.930 . S
Mn552 O557 2.095 . S
Mn552 O567 2.162 . S
Mn552 O568 2.297 . S
Mn552 O576 2.385 . S
Mn552 O577 2.209 . S
Mn552 O578 2.094 . S
Mn553 O558 2.121 . S
Mn553 N560 2.257 . S
Mn553 N569 2.282 . S
Mn553 O577 2.215 . S
Mn553 O579 2.117 . S
C554 O576 1.234 . S
C554 O577 1.283 . S
C555 O567 1.281 . S
C555 O568 1.236 . S
C556 O578 1.240 . S
C556 O579 1.264 . S
O557 Mn552 2.095 . S
O557 C566 1.250 . S
O558 Mn553 2.121 . S
O558 C566 1.258 . S
C559 N560 1.326 . S
C559 C563 1.460 . S
C559 H565 0.929 . S
N560 Mn553 2.257 . S
N560 C559 1.326 . S
N560 C564 1.362 . S
C561 C562 1.258 . S
C561 C564 1.431 . S
C561 C581 1.449 . S
C562 C561 1.258 . S
C562 C563 1.477 . S
C562 H582 0.931 . S
C563 C559 1.460 . S
C563 C562 1.477 . S
C563 H583 0.930 . S
C564 N560 1.362 . S
C564 C561 1.431 . S
C564 C574 1.476 . S
H565 C559 0.929 . S
C566 O557 1.250 . S
C566 O558 1.258 . S
O567 Mn552 2.162 . S
O567 C555 1.281 . S
O568 Mn552 2.297 . S
O568 C555 1.236 . S
N569 Mn553 2.282 . S
N569 C570 1.328 . S
N569 C574 1.318 . S
C570 N569 1.328 . S
C570 C571 1.457 . S
C570 H575 0.929 . S
C571 C570 1.457 . S
C571 C572 1.291 . S
C571 H584 0.931 . S
C572 C571 1.291 . S
C572 C573 1.373 . S
C572 H585 0.929 . S
C573 C572 1.373 . S
C573 C574 1.396 . S
C573 C580 1.403 . S
C574 C564 1.476 . S
C574 N569 1.318 . S
C574 C573 1.396 . S
H575 C570 0.929 . S
O576 Mn552 2.385 . S
O576 C554 1.234 . S
O577 Mn552 2.209 . S
O577 Mn553 2.215 . S
O577 C554 1.283 . S
O578 Mn552 2.094 . S
O578 C556 1.240 . S
O579 Mn553 2.117 . S
O579 C556 1.264 . S
C580 C573 1.403 . S
C580 C581 1.399 . S
C580 H586 0.929 . S
C581 C561 1.449 . S
C581 C580 1.399 . S
C581 H587 0.930 . S
H582 C562 0.931 . S
H583 C563 0.930 . S
H584 C571 0.931 . S
H585 C572 0.929 . S
H586 C580 0.929 . S
H587 C581 0.930 . S
H588 C594 0.930 . S
H589 C598 0.930 . S
H590 C603 0.929 . S
H591 C601 0.929 . S
H592 C596 0.929 . S
H593 C602 0.929 . S
C594 H588 0.930 . S
C594 C595 1.367 . S
C594 C602 1.378 . S
C595 C594 1.367 . S
C595 C603 1.433 . S
C596 H592 0.929 . S
C596 C598 1.378 . S
C596 C600 1.350 . S
C597 C600 1.463 . S
C597 C602 1.350 . S
C597 N605 1.427 . S
C598 H589 0.930 . S
C598 C596 1.378 . S
C598 C599 1.367 . S
C599 C598 1.367 . S
C599 C601 1.433 . S
C600 C596 1.350 . S
C600 C597 1.463 . S
C600 N604 1.427 . S
C601 H591 0.929 . S
C601 C599 1.433 . S
C601 N604 1.384 . S
C602 H593 0.929 . S
C602 C594 1.378 . S
C602 C597 1.350 . S
C603 H590 0.929 . S
C603 C595 1.433 . S
C603 N605 1.384 . S
N604 C600 1.427 . S
N604 C601 1.384 . S
N605 C597 1.427 . S
N605 C603 1.384 . S
H606 C612 0.930 . S
H607 C616 0.930 . S
H608 C621 0.929 . S
H609 C619 0.929 . S
H610 C614 0.929 . S
H611 C620 0.929 . S
C612 H606 0.930 . S
C612 C613 1.367 . S
C612 C620 1.378 . S
C613 C612 1.367 . S
C613 C621 1.433 . S
C614 H610 0.929 . S
C614 C616 1.378 . S
C614 C618 1.350 . S
C615 C618 1.463 . S
C615 C620 1.350 . S
C615 N623 1.427 . S
C616 H607 0.930 . S
C616 C614 1.378 . S
C616 C617 1.367 . S
C617 C616 1.367 . S
C617 C619 1.433 . S
C618 C614 1.350 . S
C618 C615 1.463 . S
C618 N622 1.427 . S
C619 H609 0.929 . S
C619 C617 1.433 . S
C619 N622 1.384 . S
C620 H611 0.929 . S
C620 C612 1.378 . S
C620 C615 1.350 . S
C621 H608 0.929 . S
C621 C613 1.433 . S
C621 N623 1.384 . S
N622 C618 1.427 . S
N622 C619 1.384 . S
N623 C615 1.427 . S
N623 C621 1.384 . S
H624 C630 0.930 . S
H625 C634 0.930 . S
H626 C639 0.929 . S
H627 C637 0.929 . S
H628 C632 0.929 . S
H629 C638 0.929 . S
C630 H624 0.930 . S
C630 C631 1.367 . S
C630 C638 1.378 . S
C631 C630 1.367 . S
C631 C639 1.433 . S
C632 H628 0.929 . S
C632 C634 1.378 . S
C632 C636 1.350 . S
C633 C636 1.463 . S
C633 C638 1.350 . S
C633 N641 1.427 . S
C634 H625 0.930 . S
C634 C632 1.378 . S
C634 C635 1.367 . S
C635 C634 1.367 . S
C635 C637 1.433 . S
C636 C632 1.350 . S
C636 C633 1.463 . S
C636 N640 1.427 . S
C637 H627 0.929 . S
C637 C635 1.433 . S
C637 N640 1.384 . S
C638 H629 0.929 . S
C638 C630 1.378 . S
C638 C633 1.350 . S
C639 H626 0.929 . S
C639 C631 1.433 . S
C639 N641 1.384 . S
N640 C636 1.427 . S
N640 C637 1.384 . S
N641 C633 1.427 . S
N641 C639 1.384 . S
H642 C648 0.930 . S
H643 C652 0.930 . S
H644 C657 0.929 . S
H645 C655 0.929 . S
H646 C650 0.929 . S
H647 C656 0.929 . S
C648 H642 0.930 . S
C648 C649 1.367 . S
C648 C656 1.378 . S
C649 C648 1.367 . S
C649 C657 1.433 . S
C650 H646 0.929 . S
C650 C652 1.378 . S
C650 C654 1.350 . S
C651 C654 1.463 . S
C651 C656 1.350 . S
C651 N659 1.427 . S
C652 H643 0.930 . S
C652 C650 1.378 . S
C652 C653 1.367 . S
C653 C652 1.367 . S
C653 C655 1.433 . S
C654 C650 1.350 . S
C654 C651 1.463 . S
C654 N658 1.427 . S
C655 H645 0.929 . S
C655 C653 1.433 . S
C655 N658 1.384 . S
C656 H647 0.929 . S
C656 C648 1.378 . S
C656 C651 1.350 . S
C657 H644 0.929 . S
C657 C649 1.433 . S
C657 N659 1.384 . S
N658 C654 1.427 . S
N658 C655 1.384 . S
N659 C651 1.427 . S
N659 C657 1.384 . S
H660 C666 0.930 . S
H661 C670 0.930 . S
H662 C675 0.929 . S
H663 C673 0.929 . S
H664 C668 0.929 . S
H665 C674 0.929 . S
C666 H660 0.930 . S
C666 C667 1.367 . S
C666 C674 1.378 . S
C667 C666 1.367 . S
C667 C675 1.433 . S
C668 H664 0.929 . S
C668 C670 1.378 . S
C668 C672 1.350 . S
C669 C672 1.463 . S
C669 C674 1.350 . S
C669 N677 1.427 . S
C670 H661 0.930 . S
C670 C668 1.378 . S
C670 C671 1.367 . S
C671 C670 1.367 . S
C671 C673 1.433 . S
C672 C668 1.350 . S
C672 C669 1.463 . S
C672 N676 1.427 . S
C673 H663 0.929 . S
C673 C671 1.433 . S
C673 N676 1.384 . S
C674 H665 0.929 . S
C674 C666 1.378 . S
C674 C669 1.350 . S
C675 H662 0.929 . S
C675 C667 1.433 . S
C675 N677 1.384 . S
N676 C672 1.427 . S
N676 C673 1.384 . S
N677 C669 1.427 . S
N677 C675 1.384 . S
H678 C684 0.930 . S
H679 C688 0.930 . S
H680 C693 0.929 . S
H681 C691 0.929 . S
H682 C686 0.929 . S
H683 C692 0.929 . S
C684 H678 0.930 . S
C684 C685 1.367 . S
C684 C692 1.378 . S
C685 C684 1.367 . S
C685 C693 1.433 . S
C686 H682 0.929 . S
C686 C688 1.378 . S
C686 C690 1.350 . S
C687 C690 1.463 . S
C687 C692 1.350 . S
C687 N695 1.427 . S
C688 H679 0.930 . S
C688 C686 1.378 . S
C688 C689 1.367 . S
C689 C688 1.367 . S
C689 C691 1.433 . S
C690 C686 1.350 . S
C690 C687 1.463 . S
C690 N694 1.427 . S
C691 H681 0.929 . S
C691 C689 1.433 . S
C691 N694 1.384 . S
C692 H683 0.929 . S
C692 C684 1.378 . S
C692 C687 1.350 . S
C693 H680 0.929 . S
C693 C685 1.433 . S
C693 N695 1.384 . S
N694 C690 1.427 . S
N694 C691 1.384 . S
N695 C687 1.427 . S
N695 C693 1.384 . S
H696 C702 0.930 . S
H697 C706 0.930 . S
H698 C711 0.929 . S
H699 C709 0.929 . S
H700 C704 0.929 . S
H701 C710 0.929 . S
C702 H696 0.930 . S
C702 C703 1.367 . S
C702 C710 1.378 . S
C703 C702 1.367 . S
C703 C711 1.433 . S
C704 H700 0.929 . S
C704 C706 1.378 . S
C704 C708 1.350 . S
C705 C708 1.463 . S
C705 C710 1.350 . S
C705 N713 1.427 . S
C706 H697 0.930 . S
C706 C704 1.378 . S
C706 C707 1.367 . S
C707 C706 1.367 . S
C707 C709 1.433 . S
C708 C704 1.350 . S
C708 C705 1.463 . S
C708 N712 1.427 . S
C709 H699 0.929 . S
C709 C707 1.433 . S
C709 N712 1.384 . S
C710 H701 0.929 . S
C710 C702 1.378 . S
C710 C705 1.350 . S
C711 H698 0.929 . S
C711 C703 1.433 . S
C711 N713 1.384 . S
N712 C708 1.427 . S
N712 C709 1.384 . S
N713 C705 1.427 . S
N713 C711 1.384 . S
H714 C720 0.930 . S
H715 C724 0.930 . S
H716 C729 0.929 . S
H717 C727 0.929 . S
H718 C722 0.929 . S
H719 C728 0.929 . S
C720 H714 0.930 . S
C720 C721 1.367 . S
C720 C728 1.378 . S
C721 C720 1.367 . S
C721 C729 1.433 . S
C722 H718 0.929 . S
C722 C724 1.378 . S
C722 C726 1.350 . S
C723 C726 1.463 . S
C723 C728 1.350 . S
C723 N731 1.427 . S
C724 H715 0.930 . S
C724 C722 1.378 . S
C724 C725 1.367 . S
C725 C724 1.367 . S
C725 C727 1.433 . S
C726 C722 1.350 . S
C726 C723 1.463 . S
C726 N730 1.427 . S
C727 H717 0.929 . S
C727 C725 1.433 . S
C727 N730 1.384 . S
C728 H719 0.929 . S
C728 C720 1.378 . S
C728 C723 1.350 . S
C729 H716 0.929 . S
C729 C721 1.433 . S
C729 N731 1.384 . S
N730 C726 1.427 . S
N730 C727 1.384 . S
N731 C723 1.427 . S
N731 C729 1.384 . S
H732 C738 0.930 . S
H733 C742 0.930 . S
H734 C747 0.929 . S
H735 C745 0.929 . S
H736 C740 0.929 . S
H737 C746 0.929 . S
C738 H732 0.930 . S
C738 C739 1.367 . S
C738 C746 1.378 . S
C739 C738 1.367 . S
C739 C747 1.433 . S
C740 H736 0.929 . S
C740 C742 1.378 . S
C740 C744 1.350 . S
C741 C744 1.463 . S
C741 C746 1.350 . S
C741 N749 1.427 . S
C742 H733 0.930 . S
C742 C740 1.378 . S
C742 C743 1.367 . S
C743 C742 1.367 . S
C743 C745 1.433 . S
C744 C740 1.350 . S
C744 C741 1.463 . S
C744 N748 1.427 . S
C745 H735 0.929 . S
C745 C743 1.433 . S
C745 N748 1.384 . S
C746 H737 0.929 . S
C746 C738 1.378 . S
C746 C741 1.350 . S
C747 H734 0.929 . S
C747 C739 1.433 . S
C747 N749 1.384 . S
N748 C744 1.427 . S
N748 C745 1.384 . S
N749 C741 1.427 . S
N749 C747 1.384 . S
H750 C756 0.968 . S
H751 C760 0.930 . S
H752 C765 0.929 . S
H753 C763 0.929 . S
H754 C758 0.929 . S
H755 C764 0.929 . S
C756 H750 0.968 . S
C756 C757 1.367 . S
C756 C764 1.378 . S
C757 C756 1.367 . S
C757 C765 1.433 . S
C758 H754 0.929 . S
C758 C760 1.378 . S
C758 C762 1.350 . S
C759 C762 1.463 . S
C759 C764 1.350 . S
C759 N767 1.427 . S
C760 H751 0.930 . S
C760 C758 1.378 . S
C760 C761 1.367 . S
C761 C760 1.367 . S
C761 C763 1.433 . S
C762 C758 1.350 . S
C762 C759 1.463 . S
C762 N766 1.427 . S
C763 H753 0.929 . S
C763 C761 1.433 . S
C763 N766 1.384 . S
C764 H755 0.929 . S
C764 C756 1.378 . S
C764 C759 1.350 . S
C765 H752 0.929 . S
C765 C757 1.433 . S
C765 N767 1.384 . S
N766 C762 1.427 . S
N766 C763 1.384 . S
N767 C759 1.427 . S
N767 C765 1.384 . S
H768 C774 0.930 . S
H769 C778 0.930 . S
H770 C783 0.929 . S
H771 C781 0.929 . S
H772 C776 0.929 . S
H773 C782 0.929 . S
C774 H768 0.930 . S
C774 C775 1.367 . S
C774 C782 1.378 . S
C775 C774 1.367 . S
C775 C783 1.433 . S
C776 H772 0.929 . S
C776 C778 1.378 . S
C776 C780 1.350 . S
C777 C780 1.463 . S
C777 C782 1.350 . S
C777 N785 1.427 . S
C778 H769 0.930 . S
C778 C776 1.378 . S
C778 C779 1.367 . S
C779 C778 1.367 . S
C779 C781 1.433 . S
C780 C776 1.350 . S
C780 C777 1.463 . S
C780 N784 1.427 . S
C781 H771 0.929 . S
C781 C779 1.433 . S
C781 N784 1.384 . S
C782 H773 0.929 . S
C782 C774 1.378 . S
C782 C777 1.350 . S
C783 H770 0.929 . S
C783 C775 1.433 . S
C783 N785 1.384 . S
N784 C780 1.427 . S
N784 C781 1.384 . S
N785 C777 1.427 . S
N785 C783 1.384 . S
H786 C792 0.930 . S
H787 C796 0.930 . S
H788 C801 0.929 . S
H789 C799 0.929 . S
H790 C794 0.929 . S
H791 C800 0.929 . S
C792 H786 0.930 . S
C792 C793 1.367 . S
C792 C800 1.378 . S
C793 C792 1.367 . S
C793 C801 1.433 . S
C794 H790 0.929 . S
C794 C796 1.378 . S
C794 C798 1.350 . S
C795 C798 1.463 . S
C795 C800 1.350 . S
C795 N803 1.427 . S
C796 H787 0.930 . S
C796 C794 1.378 . S
C796 C797 1.367 . S
C797 C796 1.367 . S
C797 C799 1.433 . S
C798 C794 1.350 . S
C798 C795 1.463 . S
C798 N802 1.427 . S
C799 H789 0.929 . S
C799 C797 1.433 . S
C799 N802 1.384 . S
C800 H791 0.929 . S
C800 C792 1.378 . S
C800 C795 1.350 . S
C801 H788 0.929 . S
C801 C793 1.433 . S
C801 N803 1.384 . S
N802 C798 1.427 . S
N802 C799 1.384 . S
N803 C795 1.427 . S
N803 C801 1.384 . S
H804 C810 0.930 . S
H805 C814 0.930 . S
H806 C819 0.929 . S
H807 C817 0.929 . S
H808 C812 0.929 . S
H809 C818 0.929 . S
C810 H804 0.930 . S
C810 C811 1.367 . S
C810 C818 1.378 . S
C811 C810 1.367 . S
C811 C819 1.433 . S
C812 H808 0.929 . S
C812 C814 1.378 . S
C812 C816 1.350 . S
C813 C816 1.463 . S
C813 C818 1.350 . S
C813 N821 1.427 . S
C814 H805 0.930 . S
C814 C812 1.378 . S
C814 C815 1.367 . S
C815 C814 1.367 . S
C815 C817 1.433 . S
C816 C812 1.350 . S
C816 C813 1.463 . S
C816 N820 1.427 . S
C817 H807 0.929 . S
C817 C815 1.433 . S
C817 N820 1.384 . S
C818 H809 0.929 . S
C818 C810 1.378 . S
C818 C813 1.350 . S
C819 H806 0.929 . S
C819 C811 1.433 . S
C819 N821 1.384 . S
N820 C816 1.427 . S
N820 C817 1.384 . S
N821 C813 1.427 . S
N821 C819 1.384 . S
H822 C828 0.930 . S
H823 C832 0.930 . S
H824 C837 0.929 . S
H825 C835 0.929 . S
H826 C830 0.929 . S
H827 C836 0.929 . S
C828 H822 0.930 . S
C828 C829 1.367 . S
C828 C836 1.378 . S
C829 C828 1.367 . S
C829 C837 1.433 . S
C830 H826 0.929 . S
C830 C832 1.378 . S
C830 C834 1.350 . S
C831 C834 1.463 . S
C831 C836 1.350 . S
C831 N839 1.427 . S
C832 H823 0.930 . S
C832 C830 1.378 . S
C832 C833 1.367 . S
C833 C832 1.367 . S
C833 C835 1.433 . S
C834 C830 1.350 . S
C834 C831 1.463 . S
C834 N838 1.427 . S
C835 H825 0.929 . S
C835 C833 1.433 . S
C835 N838 1.384 . S
C836 H827 0.929 . S
C836 C828 1.378 . S
C836 C831 1.350 . S
C837 H824 0.929 . S
C837 C829 1.433 . S
C837 N839 1.384 . S
N838 C834 1.427 . S
N838 C835 1.384 . S
N839 C831 1.427 . S
N839 C837 1.384 . S
H840 C846 0.930 . S
H841 C850 0.930 . S
H842 C855 0.929 . S
H843 C853 0.929 . S
H844 C848 0.929 . S
H845 C854 0.929 . S
C846 H840 0.930 . S
C846 C847 1.367 . S
C846 C854 1.378 . S
C847 C846 1.367 . S
C847 C855 1.433 . S
C848 H844 0.929 . S
C848 C850 1.378 . S
C848 C852 1.350 . S
C849 C852 1.463 . S
C849 C854 1.350 . S
C849 N857 1.427 . S
C850 H841 0.930 . S
C850 C848 1.378 . S
C850 C851 1.367 . S
C851 C850 1.367 . S
C851 C853 1.433 . S
C852 C848 1.350 . S
C852 C849 1.463 . S
C852 N856 1.427 . S
C853 H843 0.929 . S
C853 C851 1.433 . S
C853 N856 1.384 . S
C854 H845 0.929 . S
C854 C846 1.378 . S
C854 C849 1.350 . S
C855 H842 0.929 . S
C855 C847 1.433 . S
C855 N857 1.384 . S
N856 C852 1.427 . S
N856 C853 1.384 . S
N857 C849 1.427 . S
N857 C855 1.384 . S
H858 C864 0.930 . S
H859 C868 0.930 . S
H860 C873 0.929 . S
H861 C871 0.929 . S
H862 C866 0.929 . S
H863 C872 0.929 . S
C864 H858 0.930 . S
C864 C865 1.367 . S
C864 C872 1.378 . S
C865 C864 1.367 . S
C865 C873 1.433 . S
C866 H862 0.929 . S
C866 C868 1.378 . S
C866 C870 1.350 . S
C867 C870 1.463 . S
C867 C872 1.350 . S
C867 N875 1.427 . S
C868 H859 0.930 . S
C868 C866 1.378 . S
C868 C869 1.367 1_556 S
C869 C868 1.367 1_554 S
C869 C871 1.433 . S
C870 C866 1.350 . S
C870 C867 1.463 . S
C870 N874 1.427 . S
C871 H861 0.929 . S
C871 C869 1.433 . S
C871 N874 1.384 1_554 S
C872 H863 0.929 . S
C872 C864 1.378 . S
C872 C867 1.350 . S
C873 H860 0.929 . S
C873 C865 1.433 . S
C873 N875 1.384 . S
N874 C870 1.427 . S
N874 C871 1.384 1_556 S
N875 C867 1.427 . S
N875 C873 1.384 . S
H876 C882 0.930 . S
H877 C886 0.930 . S
H878 C891 0.929 . S
H879 C889 0.929 . S
H880 C884 0.929 . S
H881 C890 0.929 . S
C882 H876 0.930 . S
C882 C883 1.367 . S
C882 C890 1.378 . S
C883 C882 1.367 . S
C883 C891 1.433 . S
C884 H880 0.929 . S
C884 C886 1.378 . S
C884 C888 1.350 . S
C885 C888 1.463 . S
C885 C890 1.350 . S
C885 N893 1.427 . S
C886 H877 0.930 . S
C886 C884 1.378 . S
C886 C887 1.367 . S
C887 C886 1.367 . S
C887 C889 1.433 . S
C888 C884 1.350 . S
C888 C885 1.463 . S
C888 N892 1.427 . S
C889 H879 0.929 . S
C889 C887 1.433 . S
C889 N892 1.384 . S
C890 H881 0.929 . S
C890 C882 1.378 . S
C890 C885 1.350 . S
C891 H878 0.929 . S
C891 C883 1.433 . S
C891 N893 1.384 . S
N892 C888 1.427 . S
N892 C889 1.384 . S
N893 C885 1.427 . S
N893 C891 1.384 . S
H894 C900 0.930 . S
H895 C904 0.930 . S
H896 C909 0.929 . S
H897 C907 0.929 . S
H898 C902 0.929 . S
H899 C908 0.929 . S
C900 H894 0.930 . S
C900 C901 1.367 . S
C900 C908 1.378 . S
C901 C900 1.367 . S
C901 C909 1.433 . S
C902 H898 0.929 . S
C902 C904 1.378 . S
C902 C906 1.350 . S
C903 C906 1.463 . S
C903 C908 1.350 . S
C903 N911 1.427 . S
C904 H895 0.930 . S
C904 C902 1.378 . S
C904 C905 1.367 . S
C905 C904 1.367 . S
C905 C907 1.433 . S
C906 C902 1.350 . S
C906 C903 1.463 . S
C906 N910 1.427 . S
C907 H897 0.929 . S
C907 C905 1.433 . S
C907 N910 1.384 . S
C908 H899 0.929 . S
C908 C900 1.378 . S
C908 C903 1.350 . S
C909 H896 0.929 . S
C909 C901 1.433 . S
C909 N911 1.384 . S
N910 C906 1.427 . S
N910 C907 1.384 . S
N911 C903 1.427 . S
N911 C909 1.384 . S
H912 C918 0.930 . S
H913 C922 0.930 . S
H914 C927 0.929 . S
H915 C925 0.929 . S
H916 C920 0.929 . S
H917 C926 0.929 . S
C918 H912 0.930 . S
C918 C919 1.367 . S
C918 C926 1.378 . S
C919 C918 1.367 . S
C919 C927 1.433 . S
C920 H916 0.929 . S
C920 C922 1.378 . S
C920 C924 1.350 . S
C921 C924 1.463 . S
C921 C926 1.350 . S
C921 N929 1.427 . S
C922 H913 0.930 . S
C922 C920 1.378 . S
C922 C923 1.367 . S
C923 C922 1.367 . S
C923 C925 1.433 . S
C924 C920 1.350 . S
C924 C921 1.463 . S
C924 N928 1.427 . S
C925 H915 0.929 . S
C925 C923 1.433 . S
C925 N928 1.384 . S
C926 H917 0.929 . S
C926 C918 1.378 . S
C926 C921 1.350 . S
C927 H914 0.929 . S
C927 C919 1.433 . S
C927 N929 1.384 . S
N928 C924 1.427 . S
N928 C925 1.384 . S
N929 C921 1.427 . S
N929 C927 1.384 . S
H930 C936 0.930 . S
H931 C940 0.930 . S
H932 C945 0.929 . S
H933 C943 0.929 . S
H934 C938 0.929 . S
H935 C944 0.929 . S
C936 H930 0.930 . S
C936 C937 1.367 . S
C936 C944 1.378 . S
C937 C936 1.367 . S
C937 C945 1.433 . S
C938 H934 0.929 . S
C938 C940 1.378 . S
C938 C942 1.350 . S
C939 C942 1.463 . S
C939 C944 1.350 . S
C939 N947 1.427 . S
C940 H931 0.930 . S
C940 C938 1.378 . S
C940 C941 1.367 . S
C941 C940 1.367 . S
C941 C943 1.433 . S
C942 C938 1.350 . S
C942 C939 1.463 . S
C942 N946 1.427 . S
C943 H933 0.929 . S
C943 C941 1.433 . S
C943 N946 1.384 . S
C944 H935 0.929 . S
C944 C936 1.378 . S
C944 C939 1.350 . S
C945 H932 0.929 . S
C945 C937 1.433 . S
C945 N947 1.384 . S
N946 C942 1.427 . S
N946 C943 1.384 . S
N947 C939 1.427 . S
N947 C945 1.384 . S
H948 C954 0.930 . S
H949 C958 0.930 . S
H950 C963 0.929 . S
H951 C961 0.929 . S
H952 C956 0.929 . S
H953 C962 0.929 . S
C954 H948 0.930 . S
C954 C955 1.367 . S
C954 C962 1.378 . S
C955 C954 1.367 . S
C955 C963 1.433 . S
C956 H952 0.929 . S
C956 C958 1.378 . S
C956 C960 1.350 . S
C957 C960 1.463 . S
C957 C962 1.350 . S
C957 N965 1.427 . S
C958 H949 0.930 . S
C958 C956 1.378 . S
C958 C959 1.367 . S
C959 C958 1.367 . S
C959 C961 1.433 . S
C960 C956 1.350 . S
C960 C957 1.463 . S
C960 N964 1.427 . S
C961 H951 0.929 . S
C961 C959 1.433 . S
C961 N964 1.384 . S
C962 H953 0.929 . S
C962 C954 1.378 . S
C962 C957 1.350 . S
C963 H950 0.929 . S
C963 C955 1.433 . S
C963 N965 1.384 . S
N964 C960 1.427 . S
N964 C961 1.384 . S
N965 C957 1.427 . S
N965 C963 1.384 . S
H966 C972 0.930 . S
H967 C976 0.930 . S
H968 C981 0.929 . S
H969 C979 0.929 . S
H970 C974 0.929 . S
H971 C980 0.929 . S
C972 H966 0.930 . S
C972 C973 1.367 . S
C972 C980 1.378 . S
C973 C972 1.367 . S
C973 C981 1.433 . S
C974 H970 0.929 . S
C974 C976 1.378 . S
C974 C978 1.350 . S
C975 C978 1.463 . S
C975 C980 1.350 . S
C975 N983 1.427 . S
C976 H967 0.930 . S
C976 C974 1.378 . S
C976 C977 1.367 . S
C977 C976 1.367 . S
C977 C979 1.433 . S
C978 C974 1.350 . S
C978 C975 1.463 . S
C978 N982 1.427 . S
C979 H969 0.929 . S
C979 C977 1.433 . S
C979 N982 1.384 . S
C980 H971 0.929 . S
C980 C972 1.378 . S
C980 C975 1.350 . S
C981 H968 0.929 . S
C981 C973 1.433 . S
C981 N983 1.384 . S
N982 C978 1.427 . S
N982 C979 1.384 . S
N983 C975 1.427 . S
N983 C981 1.384 . S
H984 C990 0.930 . S
H985 C994 0.930 . S
H986 C999 0.929 . S
H987 C997 0.929 . S
H988 C992 0.929 . S
H989 C998 0.929 1_556 S
C990 H984 0.930 . S
C990 C991 1.367 . S
C990 C998 1.378 . S
C991 C990 1.367 . S
C991 C999 1.433 . S
C992 H988 0.929 . S
C992 C994 1.378 . S
C992 C996 1.350 . S
C993 C996 1.485 . S
C993 C998 1.343 1_556 S
C993 N1001 1.413 1_556 S
C994 H985 0.930 . S
C994 C992 1.378 . S
C994 C995 1.367 . S
C995 C994 1.367 . S
C995 C997 1.433 . S
C996 C992 1.350 . S
C996 C993 1.485 . S
C996 N1000 1.427 . S
C997 H987 0.929 . S
C997 C995 1.433 . S
C997 N1000 1.384 . S
C998 H989 0.929 1_554 S
C998 C990 1.378 . S
C998 C993 1.343 1_554 S
C999 H986 0.929 . S
C999 C991 1.433 . S
C999 N1001 1.384 . S
N1000 C996 1.427 . S
N1000 C997 1.384 . S
N1001 C993 1.413 1_554 S
N1001 C999 1.384 . S
H1002 C1008 0.930 . S
H1003 C1012 0.930 . S
H1004 C1017 0.929 . S
H1005 C1015 0.929 . S
H1006 C1010 0.929 . S
H1007 C1016 0.929 . S
C1008 H1002 0.930 . S
C1008 C1009 1.367 . S
C1008 C1016 1.378 . S
C1009 C1008 1.367 . S
C1009 C1017 1.433 . S
C1010 H1006 0.929 . S
C1010 C1012 1.378 . S
C1010 C1014 1.350 . S
C1011 C1014 1.463 . S
C1011 C1016 1.350 . S
C1011 N1019 1.427 . S
C1012 H1003 0.930 . S
C1012 C1010 1.378 . S
C1012 C1013 1.367 . S
C1013 C1012 1.367 . S
C1013 C1015 1.433 . S
C1014 C1010 1.350 . S
C1014 C1011 1.463 . S
C1014 N1018 1.427 . S
C1015 H1005 0.929 . S
C1015 C1013 1.433 . S
C1015 N1018 1.384 . S
C1016 H1007 0.929 . S
C1016 C1008 1.378 . S
C1016 C1011 1.350 . S
C1017 H1004 0.929 . S
C1017 C1009 1.433 . S
C1017 N1019 1.384 . S
N1018 C1014 1.427 . S
N1018 C1015 1.384 . S
N1019 C1011 1.427 . S
N1019 C1017 1.384 . S
C599 C555 1.680 . S
C595 C29 1.599 . S
C613 C115 1.603 . S
C617 C375 1.625 . S
C631 C153 1.581 . S
C635 C422 1.661 . S
C649 C239 1.497 . S
C653 C458 1.501 . S
C671 C483 1.600 . S
C667 C301 1.579 . S
C685 C339 1.800 . S
C689 C519 1.925 . S
C703 C91 1.613 . S
C707 C411 1.721 . S
C721 C177 1.544 . S
C725 C447 1.561 . S
C739 C215 1.516 . S
C743 C494 1.592 . S
C761 C530 1.895 . S
C757 C277 1.797 . S
C779 C566 1.581 . S
C775 C363 1.587 . S
C797 C386 1.550 . S
C793 C53 1.557 . S
C811 C35 1.530 . S
C815 C410 1.546 . S
C829 C109 1.408 . S
C833 C446 1.511 . S
C851 C484 1.468 . S
C847 C159 1.455 . S
C865 C233 1.609 . S
C869 C520 1.720 . S
C887 C556 1.519 . S
C883 C295 1.401 . S
C905 C376 1.349 . S
C901 C345 1.332 . S
C923 C554 1.450 . S
C919 C97 1.438 . S
C937 C171 1.381 . S
C941 C374 1.484 . S
C959 C412 1.545 . S
C955 C221 1.521 . S
C973 C283 1.396 . S
C977 C448 1.408 . S
C991 C357 1.444 . S
C995 C482 1.552 . S
C1009 C47 1.626 . S
C1013 C518 1.719 . S
