# Generated by pormake.
# Topology pyr, (3,6)-cn, num edge types: 1
# Building blocks:
#     Node 0, Type 0, BuildingBlock: BELTOD_clean_linker_0, # of connection points: 3
#     Node 1, Type 0, BuildingBlock: BELTOD_clean_linker_0, # of connection points: 3
#     Node 2, Type 0, BuildingBlock: BELTOD_clean_linker_0, # of connection points: 3
#     Node 3, Type 0, BuildingBlock: BELTOD_clean_linker_0, # of connection points: 3
#     Node 4, Type 0, BuildingBlock: BELTOD_clean_linker_0, # of connection points: 3
#     Node 5, Type 0, BuildingBlock: BELTOD_clean_linker_0, # of connection points: 3
#     Node 6, Type 0, BuildingBlock: BELTOD_clean_linker_0, # of connection points: 3
#     Node 7, Type 0, BuildingBlock: BELTOD_clean_linker_0, # of connection points: 3
#     Node 8, Type 1, BuildingBlock: CIFDUS_clean_sbu_1, # of connection points: 6
#     Node 9, Type 1, BuildingBlock: CIFDUS_clean_sbu_1, # of connection points: 6
#     Node 10, Type 1, BuildingBlock: CIFDUS_clean_sbu_1, # of connection points: 6
#     Node 11, Type 1, BuildingBlock: CIFDUS_clean_sbu_1, # of connection points: 6
#     Edge 12, Type (0, 1), BuildingBlock: AJUNOK_clean_linker_0, # of connection points: 2
#     Edge 13, Type (0, 1), BuildingBlock: AJUNOK_clean_linker_0, # of connection points: 2
#     Edge 14, Type (0, 1), BuildingBlock: AJUNOK_clean_linker_0, # of connection points: 2
#     Edge 15, Type (0, 1), BuildingBlock: AJUNOK_clean_linker_0, # of connection points: 2
#     Edge 16, Type (0, 1), BuildingBlock: AJUNOK_clean_linker_0, # of connection points: 2
#     Edge 17, Type (0, 1), BuildingBlock: AJUNOK_clean_linker_0, # of connection points: 2
#     Edge 18, Type (0, 1), BuildingBlock: AJUNOK_clean_linker_0, # of connection points: 2
#     Edge 19, Type (0, 1), BuildingBlock: AJUNOK_clean_linker_0, # of connection points: 2
#     Edge 20, Type (0, 1), BuildingBlock: AJUNOK_clean_linker_0, # of connection points: 2
#     Edge 21, Type (0, 1), BuildingBlock: AJUNOK_clean_linker_0, # of connection points: 2
#     Edge 22, Type (0, 1), BuildingBlock: AJUNOK_clean_linker_0, # of connection points: 2
#     Edge 23, Type (0, 1), BuildingBlock: AJUNOK_clean_linker_0, # of connection points: 2
#     Edge 24, Type (0, 1), BuildingBlock: AJUNOK_clean_linker_0, # of connection points: 2
#     Edge 25, Type (0, 1), BuildingBlock: AJUNOK_clean_linker_0, # of connection points: 2
#     Edge 26, Type (0, 1), BuildingBlock: AJUNOK_clean_linker_0, # of connection points: 2
#     Edge 27, Type (0, 1), BuildingBlock: AJUNOK_clean_linker_0, # of connection points: 2
#     Edge 28, Type (0, 1), BuildingBlock: AJUNOK_clean_linker_0, # of connection points: 2
#     Edge 29, Type (0, 1), BuildingBlock: AJUNOK_clean_linker_0, # of connection points: 2
#     Edge 30, Type (0, 1), BuildingBlock: AJUNOK_clean_linker_0, # of connection points: 2
#     Edge 31, Type (0, 1), BuildingBlock: AJUNOK_clean_linker_0, # of connection points: 2
#     Edge 32, Type (0, 1), BuildingBlock: AJUNOK_clean_linker_0, # of connection points: 2
#     Edge 33, Type (0, 1), BuildingBlock: AJUNOK_clean_linker_0, # of connection points: 2
#     Edge 34, Type (0, 1), BuildingBlock: AJUNOK_clean_linker_0, # of connection points: 2
#     Edge 35, Type (0, 1), BuildingBlock: AJUNOK_clean_linker_0, # of connection points: 2
# Relax obj value: 0.036
# Max RMSD: 0.108
# Mean RMSD: 0.051
data_MOF--net-pry--node1-CIFDUS_clean_sbu_1--node2-BELTOD_clean_linker_0--edge1-AJUNOK_clean_linker_0
_symmetry_space_group_name_H-M    P1
_symmetry_Int_Tables_number       1
_symmetry_cell_setting            triclinic
loop_
_symmetry_equiv_pos_as_xyz
'x, y, z'
_cell_length_a     32.567851
_cell_length_b     31.592067
_cell_length_c     30.753367
_cell_angle_alpha  92.427717
_cell_angle_beta   91.693278
_cell_angle_gamma 93.114796
loop_
_atom_site_label
_atom_site_type_symbol
_atom_site_fract_x
_atom_site_fract_y
_atom_site_fract_z
_atom_type_partial_charge
P0 P 0.17799 0.17686 0.16729 0.0
H1 H 0.23518 0.19182 0.09842 0.0
H2 H 0.28441 0.14808 0.06265 0.0
H3 H 0.23489 0.03843 0.1267 0.0
H4 H 0.18515 0.08269 0.1626 0.0
H5 H 0.20435 0.25769 0.13285 0.0
H6 H 0.17075 0.31021 0.09165 0.0
H7 H 0.05787 0.23129 0.08689 0.0
H8 H 0.09379 0.17609 0.12373 0.0
H9 H 0.20609 0.12509 0.23624 0.0
H10 H 0.0905 0.17435 0.19699 0.0
O11 O 0.21457 0.20691 0.19481 0.0
H12 H 0.17418 0.09493 0.2994 0.0
H13 H 0.05767 0.14164 0.2583 0.0
C14 C 0.20636 0.14091 0.13347 0.0
C15 C 0.23399 0.1582 0.10405 0.0
C16 C 0.26231 0.133 0.08354 0.0
C17 C 0.264 0.0897 0.09206 0.0
C18 C 0.23492 0.07179 0.11996 0.0
C19 C 0.20628 0.09716 0.1404 0.0
C20 C 0.15112 0.21364 0.13389 0.0
C21 C 0.17242 0.25124 0.12275 0.0
C22 C 0.15293 0.28163 0.09909 0.0
C23 C 0.111 0.27605 0.08648 0.0
C24 C 0.09017 0.23713 0.09555 0.0
C25 C 0.1104 0.2058 0.11798 0.0
C26 C 0.15066 0.15084 0.21049 0.0
C27 C 0.17353 0.12856 0.24048 0.0
C28 C 0.15521 0.11135 0.27683 0.0
C29 C 0.11328 0.11592 0.28444 0.0
C30 C 0.09023 0.13817 0.25426 0.0
C31 C 0.10887 0.15605 0.21813 0.0
P32 P 0.39484 0.91687 0.59211 0.0
H33 H 0.46797 0.95682 0.63788 0.0
H34 H 0.48411 0.97666 0.71456 0.0
H35 H 0.3618 0.93202 0.74765 0.0
H36 H 0.34615 0.91145 0.67117 0.0
H37 H 0.40237 0.86989 0.50927 0.0
H38 H 0.42745 0.7997 0.48989 0.0
H39 H 0.44483 0.77679 0.62636 0.0
H40 H 0.42001 0.84666 0.64553 0.0
H41 H 0.35 0.98657 0.55845 0.0
H42 H 0.32139 0.85902 0.59714 0.0
O43 O 0.42242 0.94966 0.5617 0.0
H44 H 0.27695 0.9958 0.54356 0.0
H45 H 0.24792 0.86816 0.58229 0.0
C46 C 0.40567 0.93312 0.64861 0.0
C47 C 0.44443 0.95181 0.66156 0.0
C48 C 0.4535 0.96361 0.70537 0.0
C49 C 0.42398 0.95672 0.73716 0.0
C50 C 0.3851 0.93808 0.72393 0.0
C51 C 0.37611 0.92627 0.68015 0.0
C52 C 0.40992 0.86378 0.5788 0.0
C53 C 0.41142 0.8496 0.53499 0.0
C54 C 0.42562 0.80955 0.52391 0.0
C55 C 0.43878 0.78318 0.55657 0.0
C56 C 0.43573 0.79689 0.60048 0.0
C57 C 0.42139 0.83679 0.6115 0.0
C58 C 0.34118 0.92188 0.5782 0.0
C59 C 0.32806 0.96025 0.56295 0.0
C60 C 0.2863 0.96541 0.55416 0.0
C61 C 0.25681 0.9324 0.56096 0.0
C62 C 0.27006 0.89394 0.57631 0.0
C63 C 0.31195 0.88869 0.58476 0.0
P64 P 0.69153 0.31662 0.81304 0.0
H65 H 0.76127 0.29976 0.86894 0.0
H66 H 0.80522 0.34538 0.91905 0.0
H67 H 0.71975 0.44453 0.90931 0.0
H68 H 0.67523 0.39821 0.85958 0.0
H69 H 0.6923 0.22406 0.80244 0.0
H70 H 0.65081 0.16637 0.83315 0.0
H71 H 0.57862 0.2583 0.89938 0.0
H72 H 0.6202 0.31607 0.86845 0.0
H73 H 0.705 0.40392 0.78481 0.0
H74 H 0.61959 0.29679 0.75521 0.0
O75 O 0.72865 0.29545 0.78443 0.0
H76 H 0.66951 0.44483 0.73151 0.0
H77 H 0.5862 0.33612 0.69882 0.0
C78 C 0.71637 0.34658 0.85862 0.0
C79 C 0.75146 0.33097 0.87832 0.0
C80 C 0.77634 0.35687 0.9074 0.0
C81 C 0.76642 0.39882 0.91709 0.0
C82 C 0.72844 0.41251 0.90164 0.0
C83 C 0.70328 0.38628 0.87283 0.0
C84 C 0.65934 0.27432 0.83338 0.0
C85 C 0.66742 0.23188 0.82336 0.0
C86 C 0.6438 0.1989 0.84092 0.0
C87 C 0.61165 0.20793 0.86857 0.0
C88 C 0.60304 0.25052 0.87776 0.0
C89 C 0.6268 0.28348 0.86034 0.0
C90 C 0.66371 0.34796 0.77564 0.0
C91 C 0.67834 0.38926 0.76712 0.0
C92 C 0.65872 0.41226 0.7355 0.0
C93 C 0.62527 0.39366 0.71011 0.0
C94 C 0.61156 0.3517 0.71795 0.0
C95 C 0.63053 0.32918 0.7504 0.0
P96 P 0.84976 0.67034 0.37967 0.0
H97 H 0.92238 0.72064 0.358 0.0
H98 H 0.96849 0.76915 0.40151 0.0
H99 H 0.91582 0.72281 0.51901 0.0
H100 H 0.86898 0.67411 0.47466 0.0
H101 H 0.80399 0.64105 0.30062 0.0
H102 H 0.82473 0.61132 0.2302 0.0
H103 H 0.94961 0.60839 0.28056 0.0
H104 H 0.9287 0.63767 0.351 0.0
H105 H 0.78485 0.69483 0.43662 0.0
H106 H 0.83599 0.57846 0.39151 0.0
O107 O 0.82465 0.71137 0.36224 0.0
H108 H 0.72779 0.65448 0.46808 0.0
H109 H 0.77949 0.53767 0.42436 0.0
C110 C 0.8923 0.69358 0.41288 0.0
C111 C 0.92185 0.71946 0.39313 0.0
C112 C 0.9484 0.74727 0.4183 0.0
C113 C 0.94564 0.75032 0.46393 0.0
C114 C 0.91835 0.72169 0.48396 0.0
C115 C 0.89167 0.69365 0.45855 0.0
C116 C 0.86486 0.64215 0.33088 0.0
C117 C 0.83577 0.63357 0.29664 0.0
C118 C 0.84761 0.61671 0.2564 0.0
C119 C 0.88887 0.6082 0.24971 0.0
C120 C 0.91773 0.6155 0.28457 0.0
C121 C 0.90576 0.63201 0.32494 0.0
C122 C 0.81369 0.63957 0.41043 0.0
C123 C 0.78418 0.66049 0.43425 0.0
C124 C 0.75183 0.63742 0.45271 0.0
C125 C 0.74866 0.59299 0.44781 0.0
C126 C 0.78069 0.57199 0.42771 0.0
C127 C 0.81293 0.59518 0.40892 0.0
P128 P 0.88918 0.9029 0.91428 0.0
H129 H 0.85855 0.94469 0.99236 0.0
H130 H 0.79199 0.97209 0.01019 0.0
H131 H 0.74059 0.91991 0.88708 0.0
H132 H 0.80771 0.89364 0.86892 0.0
H133 H 0.96447 0.87859 0.95799 0.0
H134 H 0.98654 0.81282 0.9869 0.0
H135 H 0.87016 0.74988 0.94506 0.0
H136 H 0.84738 0.81709 0.91754 0.0
H137 H 0.8932 0.97524 0.85995 0.0
H138 H 0.8982 0.83976 0.84063 0.0
O139 O 0.9216 0.94068 0.93731 0.0
H140 H 0.90652 0.98435 0.78338 0.0
H141 H 0.91008 0.84846 0.76281 0.0
C142 C 0.83829 0.91749 0.92911 0.0
C143 C 0.83296 0.93909 0.96918 0.0
C144 C 0.79486 0.95489 0.97931 0.0
C145 C 0.7611 0.94927 0.94964 0.0
C146 C 0.76624 0.92622 0.91006 0.0
C147 C 0.80448 0.91055 0.89989 0.0
C148 C 0.90404 0.85308 0.93582 0.0
C149 C 0.94326 0.85095 0.9555 0.0
C150 C 0.95599 0.81308 0.97205 0.0
C151 C 0.93011 0.77587 0.96888 0.0
C152 C 0.89059 0.77805 0.94922 0.0
C153 C 0.87766 0.81635 0.93292 0.0
C154 C 0.89529 0.90694 0.85623 0.0
C155 C 0.89675 0.94731 0.83902 0.0
C156 C 0.90405 0.95244 0.79497 0.0
C157 C 0.90967 0.91719 0.76666 0.0
C158 C 0.90674 0.87641 0.78372 0.0
C159 C 0.89966 0.87133 0.8282 0.0
P160 P 0.66964 0.18506 0.3765 0.0
H161 H 0.68522 0.26914 0.41613 0.0
H162 H 0.64342 0.31649 0.45779 0.0
H163 H 0.5477 0.21665 0.46238 0.0
H164 H 0.58989 0.1693 0.41919 0.0
H165 H 0.75879 0.20158 0.38025 0.0
H166 H 0.81474 0.1658 0.41435 0.0
H167 H 0.72667 0.08029 0.47304 0.0
H168 H 0.67021 0.11603 0.43762 0.0
H169 H 0.58893 0.18838 0.33352 0.0
H170 H 0.68595 0.10099 0.33804 0.0
O171 O 0.69135 0.21908 0.34277 0.0
H172 H 0.55457 0.14551 0.27406 0.0
H173 H 0.65131 0.05749 0.27861 0.0
C174 C 0.64023 0.21613 0.41359 0.0
C175 C 0.65549 0.25713 0.42659 0.0
C176 C 0.6317 0.28406 0.45112 0.0
C177 C 0.59225 0.27032 0.46402 0.0
C178 C 0.57793 0.22822 0.45297 0.0
C179 C 0.60193 0.20118 0.42821 0.0
C180 C 0.71032 0.1611 0.40599 0.0
C181 C 0.7513 0.17548 0.40082 0.0
C182 C 0.7834 0.15533 0.42089 0.0
C183 C 0.77518 0.12057 0.44692 0.0
C184 C 0.73392 0.1071 0.45327 0.0
C185 C 0.70171 0.12739 0.43307 0.0
C186 C 0.6393 0.14723 0.34149 0.0
C187 C 0.60194 0.15895 0.32309 0.0
C188 C 0.58227 0.13431 0.28895 0.0
C189 C 0.59978 0.09754 0.27208 0.0
C190 C 0.63682 0.08534 0.29119 0.0
C191 C 0.65645 0.11004 0.32549 0.0
P192 P 0.37504 0.65382 0.14738 0.0
H193 H 0.34425 0.60409 0.0693 0.0
H194 H 0.27501 0.57761 0.04446 0.0
H195 H 0.2236 0.64648 0.152 0.0
H196 H 0.29259 0.67301 0.17691 0.0
H197 H 0.45194 0.6964 0.12376 0.0
H198 H 0.47265 0.77016 0.11257 0.0
H199 H 0.35194 0.80751 0.1476 0.0
H200 H 0.33108 0.73317 0.15835 0.0
H201 H 0.32172 0.61414 0.21349 0.0
H202 H 0.44684 0.66474 0.20521 0.0
O203 O 0.40748 0.62482 0.11939 0.0
H204 H 0.33548 0.59548 0.28796 0.0
H205 H 0.46214 0.64175 0.27817 0.0
C206 C 0.32375 0.63987 0.1256 0.0
C207 C 0.31812 0.61412 0.08725 0.0
C208 C 0.2786 0.59927 0.07274 0.0
C209 C 0.24431 0.61006 0.09646 0.0
C210 C 0.24976 0.63794 0.13319 0.0
C211 C 0.28916 0.65301 0.14744 0.0
C212 C 0.38958 0.70894 0.14071 0.0
C213 C 0.42979 0.72029 0.12905 0.0
C214 C 0.44179 0.76264 0.12323 0.0
C215 C 0.41389 0.79467 0.12928 0.0
C216 C 0.37394 0.78345 0.14238 0.0
C217 C 0.36198 0.74087 0.14833 0.0
C218 C 0.38301 0.64189 0.20377 0.0
C219 C 0.35203 0.62191 0.22764 0.0
C220 C 0.36024 0.61027 0.27027 0.0
C221 C 0.40014 0.61637 0.28914 0.0
C222 C 0.43086 0.63706 0.26522 0.0
C223 C 0.42226 0.64992 0.22318 0.0
P224 P 0.16092 0.3404 0.65959 0.0
H225 H 0.17594 0.26804 0.60504 0.0
H226 H 0.13268 0.2196 0.55941 0.0
H227 H 0.03061 0.30037 0.57633 0.0
H228 H 0.07507 0.34885 0.62443 0.0
H229 H 0.24308 0.32152 0.63292 0.0
H230 H 0.29803 0.36382 0.60055 0.0
H231 H 0.21714 0.46679 0.5877 0.0
H232 H 0.16198 0.42413 0.62097 0.0
H233 H 0.08197 0.33159 0.70385 0.0
H234 H 0.19083 0.4159 0.71054 0.0
O235 O 0.18525 0.30448 0.68737 0.0
H236 H 0.05619 0.36866 0.76819 0.0
H237 H 0.16647 0.45146 0.77562 0.0
C238 C 0.12827 0.31095 0.61953 0.0
C239 C 0.14443 0.27585 0.59848 0.0
C240 C 0.11958 0.24848 0.57123 0.0
C241 C 0.07782 0.25595 0.56344 0.0
C242 C 0.06253 0.29349 0.5817 0.0
C243 C 0.08773 0.32099 0.60951 0.0
C244 C 0.19907 0.3704 0.63082 0.0
C245 C 0.237 0.35312 0.62301 0.0
C246 C 0.26828 0.37714 0.60401 0.0
C247 C 0.26208 0.41883 0.5923 0.0
C248 C 0.22297 0.43501 0.59727 0.0
C249 C 0.19154 0.41078 0.61625 0.0
C250 C 0.13739 0.37227 0.70093 0.0
C251 C 0.0999 0.35865 0.71848 0.0
C252 C 0.08575 0.37912 0.75607 0.0
C253 C 0.10958 0.41268 0.77758 0.0
C254 C 0.14715 0.42599 0.75981 0.0
C255 C 0.16091 0.40593 0.72211 0.0
O256 O 0.94697 0.03052 0.50398 0.0
Mn257 Mn 0.00388 0.00471 0.51697 0.0
O258 O 0.91941 0.99565 0.44366 0.0
Mn259 Mn 0.96569 0.96727 0.42908 0.0
O260 O 0.06133 0.97941 0.52911 0.0
O261 O 0.02024 0.05632 0.55553 0.0
Mn262 Mn 0.04103 0.03957 0.60533 0.0
O263 O 0.97727 0.97298 0.56992 0.0
O264 O 0.08712 0.01047 0.59213 0.0
O265 O 0.02971 0.03574 0.46342 0.0
O266 O 0.00646 0.99866 0.40247 0.0
O267 O 0.04344 0.09766 0.61039 0.0
O268 O 1.0 0.00874 0.63155 0.0
C269 C 0.98108 0.91414 0.46606 0.0
C270 C 0.91745 0.02264 0.47548 0.0
C271 C 0.09001 0.9856 0.5588 0.0
C272 C 0.02731 0.0947 0.57132 0.0
C273 C 0.97723 0.97985 0.61161 0.0
C274 C 0.0292 0.02813 0.42176 0.0
O275 O 0.98766 0.95326 0.479 0.0
O276 O 0.96456 0.9088 0.42731 0.0
O277 O 0.48671 1.00192 0.94402 0.0
Mn278 Mn 0.50638 0.01223 0.01004 0.0
O279 O 0.49527 0.93293 0.92697 0.0
Mn280 Mn 0.52405 0.92158 0.97718 0.0
O281 O 0.52622 0.02212 0.07585 0.0
O282 O 0.51191 0.07529 1.00059 0.0
Mn283 Mn 0.48851 0.10215 0.04399 0.0
O284 O 0.44367 0.01609 0.02693 0.0
O285 O 0.51674 0.09057 0.09452 0.0
O286 O 0.56915 0.00787 0.99369 0.0
O287 O 0.57894 0.9385 0.98028 0.0
O288 O 0.50736 0.14404 0.00933 0.0
O289 O 0.43367 0.08516 0.04135 0.0
C290 C 0.49101 0.91298 0.03477 0.0
C291 C 0.48277 0.96902 0.91753 0.0
C292 C 0.52922 0.05432 0.10314 0.0
C293 C 0.51989 0.11259 0.98583 0.0
C294 C 0.42024 0.04674 0.03607 0.0
C295 C 0.59251 0.97688 0.98548 0.0
O296 O 0.50065 0.94958 0.01956 0.0
O297 O 0.5037 0.8808 0.01253 0.0
O298 O 0.56137 0.53336 0.50194 0.0
Mn299 Mn 0.50063 0.5168 0.51742 0.0
O300 O 0.57063 0.4883 0.44603 0.0
Mn301 Mn 0.51588 0.47535 0.43069 0.0
O302 O 0.4401 0.50091 0.5337 0.0
O303 O 0.51753 0.52035 0.58118 0.0
Mn304 Mn 0.48562 0.55459 0.6092 0.0
O305 O 0.48819 0.58255 0.51767 0.0
O306 O 0.43235 0.53099 0.60041 0.0
O307 O 0.5132 0.45088 0.51707 0.0
O308 O 0.49601 0.42472 0.45003 0.0
O309 O 0.51948 0.53402 0.65116 0.0
O310 O 0.49592 0.60691 0.58729 0.0
C311 C 0.48174 0.52842 0.41621 0.0
C312 C 0.58451 0.51687 0.47359 0.0
C313 C 0.41818 0.50923 0.56679 0.0
C314 C 0.53344 0.51225 0.61877 0.0
C315 C 0.49147 0.61324 0.54699 0.0
C316 C 0.50538 0.41897 0.48963 0.0
O317 O 0.48144 0.51106 0.45375 0.0
O318 O 0.49919 0.50664 0.38604 0.0
O319 O 0.94051 0.4886 0.99457 0.0
Mn320 Mn 0.99968 0.51307 0.01374 0.0
O321 O 0.92912 0.52544 0.936 0.0
Mn322 Mn 0.98339 0.54423 0.93135 0.0
O323 O 0.0586 0.53651 0.03393 0.0
O324 O 0.98013 0.51742 0.07736 0.0
Mn325 Mn 0.01372 0.48161 0.10032 0.0
O326 O 0.02122 0.45003 0.01637 0.0
O327 O 0.06751 0.50343 0.0962 0.0
O328 O 0.98053 0.57741 0.01321 0.0
O329 O 0.99769 0.59862 0.94903 0.0
O330 O 0.98568 0.49785 0.14645 0.0
O331 O 0.00115 0.42742 0.07907 0.0
C332 C 0.02701 0.50816 0.90703 0.0
C333 C 0.91659 0.49933 0.96352 0.0
C334 C 0.08106 0.52755 0.06702 0.0
C335 C 0.96784 0.52008 0.11769 0.0
C336 C 0.01605 0.41963 0.0426 0.0
C337 C 0.98793 0.6076 0.98722 0.0
O338 O 0.01953 0.50759 0.94917 0.0
O339 O 0.00516 0.53047 0.88162 0.0
C340 C 0.10378 0.05495 0.33406 0.0
C341 C 0.0939 0.09615 0.32296 0.0
C342 C 0.08466 0.03437 0.36829 0.0
C343 C 0.05513 0.05416 0.39326 0.0
H344 H 0.12534 0.03763 0.31505 0.0
H345 H 0.09192 1.002 0.37424 0.0
S346 S 0.01886 0.16201 0.37952 0.0
N347 N 0.05358 0.15665 0.34185 0.0
N348 N 0.01672 0.11701 0.40504 0.0
C349 C 0.04545 0.09549 0.38344 0.0
C350 C 0.06502 0.11669 0.34863 0.0
C351 C 0.42627 0.93148 0.81289 0.0
C352 C 0.43509 0.96413 0.78438 0.0
C353 C 0.43993 0.93483 0.85646 0.0
C354 C 0.46288 0.97106 0.87374 0.0
H355 H 0.41022 0.90213 0.80101 0.0
H356 H 0.43355 0.908 0.87653 0.0
S357 S 0.49102 0.06742 0.81423 0.0
N358 N 0.46575 0.03549 0.77742 0.0
N359 N 0.49157 0.04156 0.85983 0.0
C360 C 0.47021 0.00499 0.84643 0.0
C361 C 0.45648 1.00148 0.80161 0.0
C362 C 0.55938 0.41575 0.67622 0.0
C363 C 0.6027 0.41882 0.67806 0.0
C364 C 0.53691 0.44335 0.65174 0.0
C365 C 0.55672 0.4751 0.6281 0.0
H366 H 0.54249 0.39387 0.6962 0.0
H367 H 0.50373 0.44205 0.65416 0.0
S368 S 0.66884 0.49237 0.61549 0.0
N369 N 0.66436 0.45261 0.64859 0.0
N370 N 0.62148 0.50555 0.60388 0.0
C371 C 0.59967 0.47674 0.62682 0.0
C372 C 0.62282 0.44842 0.65159 0.0
C373 C 0.93658 0.60963 0.18711 0.0
C374 C 0.90206 0.59089 0.20691 0.0
C375 C 0.95427 0.58949 0.1512 0.0
C376 C 0.93828 0.54979 0.13419 0.0
H377 H 0.95149 0.63875 0.20112 0.0
H378 H 0.98324 0.60276 0.13992 0.0
S379 S 0.84604 0.48953 0.17118 0.0
N380 N 0.85032 0.53237 0.20405 0.0
N381 N 0.88405 0.49446 0.13706 0.0
C382 C 0.90174 0.53272 0.15118 0.0
C383 C 0.88357 0.55321 0.18755 0.0
C384 C 0.30964 0.07024 0.03068 0.0
C385 C 0.29832 0.06525 0.07413 0.0
C386 C 0.34779 0.05777 0.01604 0.0
C387 C 0.37598 0.03934 0.04403 0.0
H388 H 0.29021 0.08686 0.00871 0.0
H389 H 0.35691 0.06637 0.98383 0.0
S390 S 0.35945 0.01371 0.15877 0.0
N391 N 0.317 0.03619 0.14359 0.0
N392 N 0.38835 0.01238 0.11554 0.0
C393 C 0.36341 0.03009 0.08602 0.0
C394 C 0.32464 0.0431 0.10121 0.0
C395 C 0.18666 0.93289 0.59166 0.0
C396 C 0.21221 0.93981 0.55628 0.0
C397 C 0.14607 0.94553 0.59101 0.0
C398 C 0.1292 0.96468 0.55462 0.0
H399 H 0.1988 0.91977 0.62105 0.0
H400 H 0.12818 0.94175 0.61989 0.0
S401 S 0.18189 0.9866 0.45221 0.0
N402 N 0.21688 0.96476 0.48273 0.0
N403 N 0.14014 0.98785 0.4814 0.0
C404 C 0.1535 0.96957 0.51804 0.0
C405 C 0.19516 0.95738 0.51895 0.0
C406 C 0.82298 0.42224 0.97202 0.0
C407 C 0.79949 0.42979 0.93423 0.0
C408 C 0.85974 0.44641 0.98294 0.0
C409 C 0.87455 0.47857 0.95608 0.0
H410 H 0.81373 0.39637 0.99225 0.0
H411 H 0.87752 0.43852 0.0115 0.0
S412 S 0.82314 0.5112 0.8539 0.0
N413 N 0.79281 0.47218 0.87073 0.0
N414 N 0.8609 0.51775 0.89085 0.0
C415 C 0.84997 0.48757 0.91927 0.0
C416 C 0.81275 0.46313 0.90843 0.0
C417 C 0.68873 0.57689 0.49603 0.0
C418 C 0.70908 0.56972 0.45677 0.0
C419 C 0.64881 0.55899 0.50206 0.0
C420 C 0.62787 0.53336 0.46898 0.0
H421 H 0.70348 0.5971 0.52192 0.0
H422 H 0.63409 0.56583 0.53249 0.0
S423 S 0.66711 0.50741 0.35894 0.0
N424 N 0.7047 0.53688 0.3839 0.0
N425 N 0.63072 0.50297 0.39485 0.0
C426 C 0.64833 0.52581 0.42971 0.0
C427 C 0.68862 0.54402 0.42371 0.0
C428 C 0.09989 0.35416 0.08482 0.0
C429 C 0.08912 0.3126 0.0682 0.0
C430 C 0.07837 0.389 0.07211 0.0
C431 C 0.04432 0.38431 0.04277 0.0
H432 H 0.12393 0.35994 0.10977 0.0
H433 H 0.08679 0.4197 0.08789 0.0
S434 S 0.00545 0.28404 0.9855 0.0
N435 N 0.04437 0.26997 0.01639 0.0
N436 N 0.00212 0.3356 0.99509 0.0
C437 C 0.03391 0.34362 0.02432 0.0
C438 C 0.0566 0.30783 0.03649 0.0
C439 C 0.54498 0.17234 0.88836 0.0
C440 C 0.58818 0.17353 0.8899 0.0
C441 C 0.52214 0.14674 0.91594 0.0
C442 C 0.54169 0.12155 0.94598 0.0
H443 H 0.52887 0.19344 0.86777 0.0
H444 H 0.48915 0.14966 0.91658 0.0
S445 S 0.65373 0.11039 0.96006 0.0
N446 N 0.6495 0.14445 0.92109 0.0
N447 N 0.60622 0.0967 0.97343 0.0
C448 C 0.58453 0.11955 0.94522 0.0
C449 C 0.60792 0.14557 0.91701 0.0
C450 C 0.0041 0.80451 0.47556 0.0
C451 C 0.96497 0.78878 0.48771 0.0
C452 C 0.01444 0.84823 0.47763 0.0
C453 C 0.98621 0.87717 0.49248 0.0
H454 H 0.02432 0.78373 0.45863 0.0
H455 H 0.04166 0.85958 0.46127 0.0
S456 S 0.88716 0.85135 0.54346 0.0
N457 N 0.90314 0.80493 0.52649 0.0
N458 N 0.92358 0.88689 0.53123 0.0
C459 C 0.95137 0.86127 0.51337 0.0
C460 C 0.94034 0.81686 0.51068 0.0
C461 C 0.43456 0.71002 0.51953 0.0
C462 C 0.45675 0.74186 0.54549 0.0
C463 C 0.44842 0.66851 0.51532 0.0
C464 C 0.485 0.65783 0.53671 0.0
H465 H 0.40502 0.71645 0.50487 0.0
H466 H 0.42873 0.644 0.4984 0.0
S467 S 0.55783 0.73168 0.60151 0.0
N468 N 0.51976 0.76125 0.58745 0.0
N469 N 0.54562 0.68382 0.57971 0.0
C470 C 0.50912 0.69049 0.55921 0.0
C471 C 0.49502 0.73233 0.56365 0.0
C472 C 0.90113 0.9554 0.69693 0.0
C473 C 0.92064 0.92425 0.72038 0.0
C474 C 0.91666 0.96975 0.65767 0.0
C475 C 0.95187 0.95304 0.63983 0.0
H476 H 0.87509 0.97074 0.71038 0.0
H477 H 0.903 0.99648 0.64307 0.0
S478 S 0.01217 0.86822 0.68515 0.0
N479 N 0.97558 0.87501 0.72045 0.0
N480 N 0.0039 0.90154 0.64629 0.0
C481 C 0.9696 0.91954 0.66077 0.0
C482 C 0.95414 0.90514 0.70104 0.0
C483 C 0.6071 0.06815 0.19567 0.0
C484 C 0.5819 0.07543 0.23147 0.0
C485 C 0.58996 0.05622 0.15415 0.0
C486 C 0.54716 0.05083 0.14722 0.0
H487 H 0.64004 0.07487 0.19893 0.0
H488 H 0.61008 0.05461 0.12675 0.0
S489 S 0.46819 0.05914 0.23086 0.0
N490 N 0.51222 0.07076 0.25793 0.0
N491 N 0.48027 0.04912 0.17981 0.0
C492 C 0.52194 0.05457 0.18321 0.0
C493 C 0.53924 0.06664 0.22539 0.0
C494 C 0.44058 0.61914 0.36043 0.0
C495 C 0.41133 0.59762 0.33139 0.0
C496 C 0.45971 0.59808 0.39419 0.0
C497 C 0.44941 0.5552 0.40077 0.0
H498 H 0.45108 0.65155 0.35501 0.0
H499 H 0.48545 0.61418 0.41233 0.0
S500 S 0.37154 0.48563 0.33831 0.0
N501 N 0.37098 0.53139 0.31442 0.0
N502 N 0.40506 0.49331 0.37954 0.0
C503 C 0.41685 0.53491 0.37558 0.0
C504 C 0.39832 0.55568 0.34034 0.0
C505 C 0.09817 0.48031 0.81935 0.0
C506 C 0.09462 0.43572 0.81688 0.0
C507 C 0.08046 0.50348 0.8529 0.0
C508 C 0.05806 0.48325 0.88528 0.0
H509 H 0.11257 0.4977 0.79374 0.0
H510 H 0.08147 0.53775 0.85144 0.0
S511 S 0.04494 0.36733 0.89781 0.0
N512 N 0.07173 0.37205 0.85329 0.0
N513 N 0.0368 0.41618 0.91561 0.0
C514 C 0.0568 0.43881 0.88534 0.0
C515 C 0.07524 0.41493 0.85114 0.0
C516 C 0.70417 0.95759 1.00234 0.0
C517 C 0.72012 0.96516 0.96111 0.0
C518 C 0.66354 0.96644 0.01194 0.0
C519 C 0.63736 0.98377 0.98102 0.0
H520 H 0.72227 0.9421 0.02646 0.0
H521 H 0.65156 0.95678 0.04272 0.0
S522 S 0.66531 0.01493 0.87056 0.0
N523 N 0.70762 0.99569 0.89089 0.0
N524 N 0.63096 0.01121 0.90889 0.0
C525 C 0.65361 0.99424 0.94089 0.0
C526 C 0.69503 0.98521 0.93095 0.0
C527 C 0.80789 0.05145 0.45358 0.0
C528 C 0.8096 0.09551 0.46261 0.0
C529 C 0.8424 0.02776 0.46046 0.0
C530 C 0.87994 0.04706 0.47705 0.0
H531 H 0.78041 0.03545 0.43864 0.0
H532 H 0.8401 0.99426 0.45103 0.0
S533 S 0.89924 0.1606 0.51085 0.0
N534 N 0.85082 0.15694 0.49284 0.0
N535 N 0.91585 0.11222 0.50571 0.0
C536 C 0.88137 0.09055 0.489 0.0
C537 C 0.84621 0.11484 0.48165 0.0
C538 C 0.18028 0.59419 0.04947 0.0
C539 C 0.20386 0.58751 0.08731 0.0
C540 C 0.14077 0.57423 0.04257 0.0
C541 C 0.12386 0.54661 0.07311 0.0
H542 H 0.19206 0.61565 0.02566 0.0
H543 H 0.12324 0.58095 0.01344 0.0
S544 S 0.1764 0.51595 0.17543 0.0
N545 N 0.20948 0.54983 0.15396 0.0
N546 N 0.13611 0.51183 0.14144 0.0
C547 C 0.14837 0.53865 0.11028 0.0
C548 C 0.18813 0.55922 0.11725 0.0
C549 C 0.32536 0.43157 0.54894 0.0
C550 C 0.29793 0.44629 0.57996 0.0
C551 C 0.36328 0.4535 0.54279 0.0
C552 C 0.37534 0.49064 0.56792 0.0
H553 H 0.31811 0.40201 0.53047 0.0
H554 H 0.38411 0.43998 0.51987 0.0
S555 S 0.31277 0.54435 0.6506 0.0
N556 N 0.2842 0.50169 0.63392 0.0
N557 N 0.35489 0.54321 0.62214 0.0
C558 C 0.34702 0.50695 0.59719 0.0
C559 C 0.30846 0.48473 0.60326 0.0
C560 C 0.9861 0.72436 0.96955 0.0
C561 C 0.94638 0.7345 0.98189 0.0
C562 C 1.00097 0.68429 0.97625 0.0
C563 C 0.97699 0.65222 0.99562 0.0
H564 H 0.00515 0.7467 0.95216 0.0
H565 H 0.03062 0.67737 0.96336 0.0
S566 S 0.87341 0.66392 0.03984 0.0
N567 N 0.88517 0.71044 0.01939 0.0
N568 N 0.91312 0.6346 0.03111 0.0
C569 C 0.93848 0.66267 0.01111 0.0
C570 C 0.92312 0.70376 1.00421 0.0
C571 C 0.46551 0.85617 0.13105 0.0
C572 C 0.4263 0.83858 0.11763 0.0
C573 C 0.48462 0.88903 0.10849 0.0
C574 C 0.46511 0.90514 0.07192 0.0
H575 H 0.48323 0.84146 0.15606 0.0
H576 H 0.51684 0.89753 0.11587 0.0
S577 S 0.3589 0.87754 0.03045 0.0
N578 N 0.36575 0.84545 0.07076 0.0
N579 N 0.4019 0.90757 0.02884 0.0
C580 C 0.42368 0.8927 0.06278 0.0
C581 C 0.40419 0.85902 0.08544 0.0
C582 C 0.0151 0.2082 0.56937 0.0
C583 C 0.04976 0.22006 0.54543 0.0
C584 C 0.00119 0.16554 0.57048 0.0
C585 C 0.02165 0.13367 0.54806 0.0
H586 H 0.00253 0.23048 0.59242 0.0
H587 H 0.97865 0.15694 0.59428 0.0
S588 S 0.10322 0.1503 0.46835 0.0
N589 N 0.09462 0.19851 0.48758 0.0
N590 N 0.07087 0.1178 0.4929 0.0
C591 C 0.05057 0.14602 0.51757 0.0
C592 C 0.06395 0.18963 0.51538 0.0
C593 C 0.52493 0.30498 0.46454 0.0
C594 C 0.56458 0.30188 0.4831 0.0
C595 C 0.50286 0.34132 0.47209 0.0
C596 C 0.51965 0.37615 0.49822 0.0
H597 H 0.51238 0.28107 0.44078 0.0
H598 H 0.4742 0.34388 0.45382 0.0
S599 S 0.61786 0.37914 0.56268 0.0
N600 N 0.61596 0.33273 0.53579 0.0
N601 N 0.57516 0.40178 0.54875 0.0
C602 C 0.55686 0.37112 0.52131 0.0
C603 C 0.57924 0.33388 0.51385 0.0
loop_
_geom_bond_atom_site_label_1
_geom_bond_atom_site_label_2
_geom_bond_distance
_geom_bond_site_symmetry_2
_ccdc_geom_bond_type
P0 O11 1.490 . S
P0 C14 1.812 . S
P0 C20 1.803 . S
P0 C26 1.819 . S
H1 C15 0.941 . S
H2 C16 0.939 . S
H3 C18 0.940 . S
H4 C19 0.940 . S
H5 C21 0.939 . S
H6 C22 0.942 . S
H7 C24 0.940 . S
H8 C25 0.939 . S
H9 C27 0.941 . S
H10 C31 0.939 . S
O11 P0 1.490 . S
H12 C28 0.939 . S
H13 C30 0.940 . S
C14 P0 1.812 . S
C14 C15 1.389 . S
C14 C19 1.391 . S
C15 H1 0.941 . S
C15 C14 1.389 . S
C15 C16 1.397 . S
C16 H2 0.939 . S
C16 C15 1.397 . S
C16 C17 1.378 . S
C17 C16 1.378 . S
C17 C18 1.378 . S
C18 H3 0.940 . S
C18 C17 1.378 . S
C18 C19 1.396 . S
C19 H4 0.940 . S
C19 C14 1.391 . S
C19 C18 1.396 . S
C20 P0 1.803 . S
C20 C21 1.378 . S
C20 C25 1.400 . S
C21 H5 0.939 . S
C21 C20 1.378 . S
C21 C22 1.361 . S
C22 H6 0.942 . S
C22 C21 1.361 . S
C22 C23 1.369 . S
C23 C22 1.369 . S
C23 C24 1.404 . S
C24 H7 0.940 . S
C24 C23 1.404 . S
C24 C25 1.389 . S
C25 H8 0.939 . S
C25 C20 1.400 . S
C25 C24 1.389 . S
C26 P0 1.819 . S
C26 C27 1.391 . S
C26 C31 1.391 . S
C27 H9 0.941 . S
C27 C26 1.391 . S
C27 C28 1.396 . S
C28 H12 0.939 . S
C28 C27 1.396 . S
C28 C29 1.397 . S
C29 C28 1.397 . S
C29 C30 1.385 . S
C30 H13 0.940 . S
C30 C29 1.385 . S
C30 C31 1.388 . S
C31 H10 0.939 . S
C31 C26 1.391 . S
C31 C30 1.388 . S
P32 O43 1.490 . S
P32 C46 1.812 . S
P32 C52 1.803 . S
P32 C58 1.819 . S
H33 C47 0.941 . S
H34 C48 0.939 . S
H35 C50 0.940 . S
H36 C51 0.940 . S
H37 C53 0.939 . S
H38 C54 0.942 . S
H39 C56 0.940 . S
H40 C57 0.939 . S
H41 C59 0.941 . S
H42 C63 0.939 . S
O43 P32 1.490 . S
H44 C60 0.939 . S
H45 C62 0.940 . S
C46 P32 1.812 . S
C46 C47 1.389 . S
C46 C51 1.391 . S
C47 H33 0.941 . S
C47 C46 1.389 . S
C47 C48 1.397 . S
C48 H34 0.939 . S
C48 C47 1.397 . S
C48 C49 1.378 . S
C49 C48 1.378 . S
C49 C50 1.378 . S
C50 H35 0.940 . S
C50 C49 1.378 . S
C50 C51 1.396 . S
C51 H36 0.940 . S
C51 C46 1.391 . S
C51 C50 1.396 . S
C52 P32 1.803 . S
C52 C53 1.378 . S
C52 C57 1.400 . S
C53 H37 0.939 . S
C53 C52 1.378 . S
C53 C54 1.361 . S
C54 H38 0.942 . S
C54 C53 1.361 . S
C54 C55 1.369 . S
C55 C54 1.369 . S
C55 C56 1.404 . S
C56 H39 0.940 . S
C56 C55 1.404 . S
C56 C57 1.389 . S
C57 H40 0.939 . S
C57 C52 1.400 . S
C57 C56 1.389 . S
C58 P32 1.819 . S
C58 C59 1.391 . S
C58 C63 1.391 . S
C59 H41 0.941 . S
C59 C58 1.391 . S
C59 C60 1.396 . S
C60 H44 0.939 . S
C60 C59 1.396 . S
C60 C61 1.397 . S
C61 C60 1.397 . S
C61 C62 1.385 . S
C62 H45 0.940 . S
C62 C61 1.385 . S
C62 C63 1.388 . S
C63 H42 0.939 . S
C63 C58 1.391 . S
C63 C62 1.388 . S
P64 O75 1.490 . S
P64 C78 1.812 . S
P64 C84 1.803 . S
P64 C90 1.819 . S
H65 C79 0.941 . S
H66 C80 0.939 . S
H67 C82 0.940 . S
H68 C83 0.940 . S
H69 C85 0.939 . S
H70 C86 0.942 . S
H71 C88 0.940 . S
H72 C89 0.939 . S
H73 C91 0.941 . S
H74 C95 0.939 . S
O75 P64 1.490 . S
H76 C92 0.939 . S
H77 C94 0.940 . S
C78 P64 1.812 . S
C78 C79 1.389 . S
C78 C83 1.391 . S
C79 H65 0.941 . S
C79 C78 1.389 . S
C79 C80 1.397 . S
C80 H66 0.939 . S
C80 C79 1.397 . S
C80 C81 1.378 . S
C81 C80 1.378 . S
C81 C82 1.378 . S
C82 H67 0.940 . S
C82 C81 1.378 . S
C82 C83 1.396 . S
C83 H68 0.940 . S
C83 C78 1.391 . S
C83 C82 1.396 . S
C84 P64 1.803 . S
C84 C85 1.378 . S
C84 C89 1.400 . S
C85 H69 0.939 . S
C85 C84 1.378 . S
C85 C86 1.361 . S
C86 H70 0.942 . S
C86 C85 1.361 . S
C86 C87 1.369 . S
C87 C86 1.369 . S
C87 C88 1.404 . S
C88 H71 0.940 . S
C88 C87 1.404 . S
C88 C89 1.389 . S
C89 H72 0.939 . S
C89 C84 1.400 . S
C89 C88 1.389 . S
C90 P64 1.819 . S
C90 C91 1.391 . S
C90 C95 1.391 . S
C91 H73 0.941 . S
C91 C90 1.391 . S
C91 C92 1.396 . S
C92 H76 0.939 . S
C92 C91 1.396 . S
C92 C93 1.397 . S
C93 C92 1.397 . S
C93 C94 1.385 . S
C94 H77 0.940 . S
C94 C93 1.385 . S
C94 C95 1.388 . S
C95 H74 0.939 . S
C95 C90 1.391 . S
C95 C94 1.388 . S
P96 O107 1.490 . S
P96 C110 1.812 . S
P96 C116 1.803 . S
P96 C122 1.819 . S
H97 C111 0.941 . S
H98 C112 0.939 . S
H99 C114 0.940 . S
H100 C115 0.940 . S
H101 C117 0.939 . S
H102 C118 0.942 . S
H103 C120 0.940 . S
H104 C121 0.939 . S
H105 C123 0.941 . S
H106 C127 0.939 . S
O107 P96 1.490 . S
H108 C124 0.939 . S
H109 C126 0.940 . S
C110 P96 1.812 . S
C110 C111 1.389 . S
C110 C115 1.391 . S
C111 H97 0.941 . S
C111 C110 1.389 . S
C111 C112 1.397 . S
C112 H98 0.939 . S
C112 C111 1.397 . S
C112 C113 1.378 . S
C113 C112 1.378 . S
C113 C114 1.378 . S
C114 H99 0.940 . S
C114 C113 1.378 . S
C114 C115 1.396 . S
C115 H100 0.940 . S
C115 C110 1.391 . S
C115 C114 1.396 . S
C116 P96 1.803 . S
C116 C117 1.378 . S
C116 C121 1.400 . S
C117 H101 0.939 . S
C117 C116 1.378 . S
C117 C118 1.361 . S
C118 H102 0.942 . S
C118 C117 1.361 . S
C118 C119 1.369 . S
C119 C118 1.369 . S
C119 C120 1.404 . S
C120 H103 0.940 . S
C120 C119 1.404 . S
C120 C121 1.389 . S
C121 H104 0.939 . S
C121 C116 1.400 . S
C121 C120 1.389 . S
C122 P96 1.819 . S
C122 C123 1.391 . S
C122 C127 1.391 . S
C123 H105 0.941 . S
C123 C122 1.391 . S
C123 C124 1.396 . S
C124 H108 0.939 . S
C124 C123 1.396 . S
C124 C125 1.397 . S
C125 C124 1.397 . S
C125 C126 1.385 . S
C126 H109 0.940 . S
C126 C125 1.385 . S
C126 C127 1.388 . S
C127 H106 0.939 . S
C127 C122 1.391 . S
C127 C126 1.388 . S
P128 O139 1.490 . S
P128 C142 1.812 . S
P128 C148 1.803 . S
P128 C154 1.819 . S
H129 C143 0.941 . S
H130 C144 0.928 1_554 S
H131 C146 0.940 . S
H132 C147 0.940 . S
H133 C149 0.939 . S
H134 C150 0.942 . S
H135 C152 0.940 . S
H136 C153 0.939 . S
H137 C155 0.941 . S
H138 C159 0.939 . S
O139 P128 1.490 . S
H140 C156 0.942 . S
H141 C158 0.940 . S
C142 P128 1.812 . S
C142 C143 1.389 . S
C142 C147 1.391 . S
C143 H129 0.941 . S
C143 C142 1.389 . S
C143 C144 1.397 . S
C144 H130 0.928 1_556 S
C144 C143 1.397 . S
C144 C145 1.378 . S
C145 C144 1.378 . S
C145 C146 1.378 . S
C146 H131 0.940 . S
C146 C145 1.378 . S
C146 C147 1.396 . S
C147 H132 0.940 . S
C147 C142 1.391 . S
C147 C146 1.396 . S
C148 P128 1.803 . S
C148 C149 1.378 . S
C148 C153 1.400 . S
C149 H133 0.939 . S
C149 C148 1.378 . S
C149 C150 1.361 . S
C150 H134 0.942 . S
C150 C149 1.361 . S
C150 C151 1.369 . S
C151 C150 1.369 . S
C151 C152 1.404 . S
C152 H135 0.940 . S
C152 C151 1.404 . S
C152 C153 1.389 . S
C153 H136 0.939 . S
C153 C148 1.400 . S
C153 C152 1.389 . S
C154 P128 1.819 . S
C154 C155 1.391 . S
C154 C159 1.391 . S
C155 H137 0.941 . S
C155 C154 1.391 . S
C155 C156 1.396 . S
C156 H140 0.942 . S
C156 C155 1.396 . S
C156 C157 1.397 . S
C157 C156 1.397 . S
C157 C158 1.385 . S
C158 H141 0.940 . S
C158 C157 1.385 . S
C158 C159 1.388 . S
C159 H138 0.939 . S
C159 C154 1.391 . S
C159 C158 1.388 . S
P160 O171 1.490 . S
P160 C174 1.812 . S
P160 C180 1.803 . S
P160 C186 1.819 . S
H161 C175 0.941 . S
H162 C176 0.939 . S
H163 C178 0.940 . S
H164 C179 0.940 . S
H165 C181 0.939 . S
H166 C182 0.942 . S
H167 C184 0.940 . S
H168 C185 0.939 . S
H169 C187 0.941 . S
H170 C191 0.939 . S
O171 P160 1.490 . S
H172 C188 0.939 . S
H173 C190 0.940 . S
C174 P160 1.812 . S
C174 C175 1.389 . S
C174 C179 1.391 . S
C175 H161 0.941 . S
C175 C174 1.389 . S
C175 C176 1.397 . S
C176 H162 0.939 . S
C176 C175 1.397 . S
C176 C177 1.378 . S
C177 C176 1.378 . S
C177 C178 1.378 . S
C178 H163 0.940 . S
C178 C177 1.378 . S
C178 C179 1.396 . S
C179 H164 0.940 . S
C179 C174 1.391 . S
C179 C178 1.396 . S
C180 P160 1.803 . S
C180 C181 1.378 . S
C180 C185 1.400 . S
C181 H165 0.939 . S
C181 C180 1.378 . S
C181 C182 1.361 . S
C182 H166 0.942 . S
C182 C181 1.361 . S
C182 C183 1.369 . S
C183 C182 1.369 . S
C183 C184 1.404 . S
C184 H167 0.940 . S
C184 C183 1.404 . S
C184 C185 1.389 . S
C185 H168 0.939 . S
C185 C180 1.400 . S
C185 C184 1.389 . S
C186 P160 1.819 . S
C186 C187 1.391 . S
C186 C191 1.391 . S
C187 H169 0.941 . S
C187 C186 1.391 . S
C187 C188 1.396 . S
C188 H172 0.939 . S
C188 C187 1.396 . S
C188 C189 1.397 . S
C189 C188 1.397 . S
C189 C190 1.385 . S
C190 H173 0.940 . S
C190 C189 1.385 . S
C190 C191 1.388 . S
C191 H170 0.939 . S
C191 C186 1.391 . S
C191 C190 1.388 . S
P192 O203 1.490 . S
P192 C206 1.812 . S
P192 C212 1.803 . S
P192 C218 1.819 . S
H193 C207 0.941 . S
H194 C208 0.939 . S
H195 C210 0.940 . S
H196 C211 0.940 . S
H197 C213 0.939 . S
H198 C214 0.942 . S
H199 C216 0.940 . S
H200 C217 0.939 . S
H201 C219 0.941 . S
H202 C223 0.939 . S
O203 P192 1.490 . S
H204 C220 0.939 . S
H205 C222 0.940 . S
C206 P192 1.812 . S
C206 C207 1.389 . S
C206 C211 1.391 . S
C207 H193 0.941 . S
C207 C206 1.389 . S
C207 C208 1.397 . S
C208 H194 0.939 . S
C208 C207 1.397 . S
C208 C209 1.378 . S
C209 C208 1.378 . S
C209 C210 1.378 . S
C210 H195 0.940 . S
C210 C209 1.378 . S
C210 C211 1.396 . S
C211 H196 0.940 . S
C211 C206 1.391 . S
C211 C210 1.396 . S
C212 P192 1.803 . S
C212 C213 1.378 . S
C212 C217 1.400 . S
C213 H197 0.939 . S
C213 C212 1.378 . S
C213 C214 1.361 . S
C214 H198 0.942 . S
C214 C213 1.361 . S
C214 C215 1.369 . S
C215 C214 1.369 . S
C215 C216 1.404 . S
C216 H199 0.940 . S
C216 C215 1.404 . S
C216 C217 1.389 . S
C217 H200 0.939 . S
C217 C212 1.400 . S
C217 C216 1.389 . S
C218 P192 1.819 . S
C218 C219 1.391 . S
C218 C223 1.391 . S
C219 H201 0.941 . S
C219 C218 1.391 . S
C219 C220 1.396 . S
C220 H204 0.939 . S
C220 C219 1.396 . S
C220 C221 1.397 . S
C221 C220 1.397 . S
C221 C222 1.385 . S
C222 H205 0.940 . S
C222 C221 1.385 . S
C222 C223 1.388 . S
C223 H202 0.939 . S
C223 C218 1.391 . S
C223 C222 1.388 . S
P224 O235 1.490 . S
P224 C238 1.812 . S
P224 C244 1.803 . S
P224 C250 1.819 . S
H225 C239 0.941 . S
H226 C240 0.939 . S
H227 C242 0.940 . S
H228 C243 0.940 . S
H229 C245 0.939 . S
H230 C246 0.942 . S
H231 C248 0.940 . S
H232 C249 0.939 . S
H233 C251 0.941 . S
H234 C255 0.939 . S
O235 P224 1.490 . S
H236 C252 0.939 . S
H237 C254 0.940 . S
C238 P224 1.812 . S
C238 C239 1.389 . S
C238 C243 1.391 . S
C239 H225 0.941 . S
C239 C238 1.389 . S
C239 C240 1.397 . S
C240 H226 0.939 . S
C240 C239 1.397 . S
C240 C241 1.378 . S
C241 C240 1.378 . S
C241 C242 1.378 . S
C242 H227 0.940 . S
C242 C241 1.378 . S
C242 C243 1.396 . S
C243 H228 0.940 . S
C243 C238 1.391 . S
C243 C242 1.396 . S
C244 P224 1.803 . S
C244 C245 1.378 . S
C244 C249 1.400 . S
C245 H229 0.939 . S
C245 C244 1.378 . S
C245 C246 1.361 . S
C246 H230 0.942 . S
C246 C245 1.361 . S
C246 C247 1.369 . S
C247 C246 1.369 . S
C247 C248 1.404 . S
C248 H231 0.940 . S
C248 C247 1.404 . S
C248 C249 1.389 . S
C249 H232 0.939 . S
C249 C244 1.400 . S
C249 C248 1.389 . S
C250 P224 1.819 . S
C250 C251 1.391 . S
C250 C255 1.391 . S
C251 H233 0.941 . S
C251 C250 1.391 . S
C251 C252 1.396 . S
C252 H236 0.939 . S
C252 C251 1.396 . S
C252 C253 1.397 . S
C253 C252 1.397 . S
C253 C254 1.385 . S
C254 H237 0.940 . S
C254 C253 1.385 . S
C254 C255 1.388 . S
C255 H234 0.939 . S
C255 C250 1.391 . S
C255 C254 1.388 . S
O256 Mn257 2.163 1_655 S
O256 C270 1.244 . S
Mn257 O256 2.163 1_455 S
Mn257 O260 2.160 1_545 S
Mn257 O261 2.221 . S
Mn257 O263 2.163 1_445 S
Mn257 O265 2.160 . S
Mn257 O275 2.221 1_445 S
O258 Mn259 2.087 1_545 S
O258 C270 1.256 . S
Mn259 O258 2.087 1_565 S
Mn259 O266 2.089 1_565 S
Mn259 O275 2.290 . S
Mn259 O276 2.251 . S
O260 Mn257 2.160 1_565 S
O260 C271 1.239 . S
O261 Mn257 2.221 . S
O261 Mn262 2.290 . S
O261 C272 1.278 . S
Mn262 O261 2.290 . S
Mn262 O264 2.089 1_545 S
Mn262 O267 2.251 . S
Mn262 O268 2.087 . S
O263 Mn257 2.163 1_665 S
O263 C273 1.244 . S
O264 Mn262 2.089 1_565 S
O264 C271 1.256 . S
O265 Mn257 2.160 . S
O265 C274 1.239 . S
O266 Mn259 2.089 1_545 S
O266 C274 1.256 1_655 S
O267 Mn262 2.251 . S
O267 C272 1.241 . S
O268 Mn262 2.087 . S
O268 C273 1.256 1_445 S
C269 O275 1.278 . S
C269 O276 1.241 . S
C270 O256 1.244 . S
C270 O258 1.256 . S
C271 O260 1.239 . S
C271 O264 1.256 . S
C272 O261 1.278 . S
C272 O267 1.241 . S
C273 O263 1.244 . S
C273 O268 1.256 1_665 S
C274 O265 1.239 . S
C274 O266 1.256 1_455 S
O275 Mn257 2.221 1_665 S
O275 Mn259 2.290 . S
O275 C269 1.278 . S
O276 Mn259 2.251 . S
O276 C269 1.241 . S
O277 Mn278 2.163 1_556 S
O277 C291 1.244 1_545 S
Mn278 O277 2.163 1_554 S
Mn278 O281 2.160 . S
Mn278 O282 2.227 . S
Mn278 O284 2.163 . S
Mn278 O286 2.160 1_554 S
Mn278 O296 2.221 1_545 S
O279 Mn280 2.087 . S
O279 C291 1.256 . S
Mn280 O279 2.087 . S
Mn280 O287 2.089 . S
Mn280 O296 2.290 1_556 S
Mn280 O297 2.251 1_556 S
O281 Mn278 2.160 . S
O281 C292 1.239 . S
O282 Mn278 2.227 . S
O282 Mn283 2.310 . S
O282 C293 1.259 1_554 S
Mn283 O282 2.310 . S
Mn283 O285 2.089 . S
Mn283 O288 2.251 1_554 S
Mn283 O289 2.087 . S
O284 Mn278 2.163 . S
O284 C294 1.244 . S
O285 Mn283 2.089 . S
O285 C292 1.256 . S
O286 Mn278 2.160 1_556 S
O286 C295 1.239 1_545 S
O287 Mn280 2.089 . S
O287 C295 1.256 . S
O288 Mn283 2.251 1_556 S
O288 C293 1.241 . S
O289 Mn283 2.087 . S
O289 C294 1.256 . S
C290 O296 1.278 . S
C290 O297 1.241 . S
C291 O277 1.244 1_565 S
C291 O279 1.256 . S
C292 O281 1.239 . S
C292 O285 1.256 . S
C293 O282 1.259 1_556 S
C293 O288 1.241 . S
C294 O284 1.244 . S
C294 O289 1.256 . S
C295 O286 1.239 1_565 S
C295 O287 1.256 . S
O296 Mn278 2.221 1_565 S
O296 Mn280 2.290 1_554 S
O296 C290 1.278 . S
O297 Mn280 2.251 1_554 S
O297 C290 1.241 . S
O298 Mn299 2.163 . S
O298 C312 1.244 . S
Mn299 O298 2.163 . S
Mn299 O302 2.160 . S
Mn299 O303 2.221 . S
Mn299 O305 2.163 . S
Mn299 O307 2.160 . S
Mn299 O317 2.221 . S
O300 Mn301 2.087 . S
O300 C312 1.256 . S
Mn301 O300 2.087 . S
Mn301 O308 2.089 . S
Mn301 O317 2.290 . S
Mn301 O318 2.251 . S
O302 Mn299 2.160 . S
O302 C313 1.239 . S
O303 Mn299 2.221 . S
O303 Mn304 2.290 . S
O303 C314 1.278 . S
Mn304 O303 2.290 . S
Mn304 O306 2.089 . S
Mn304 O309 2.251 . S
Mn304 O310 2.087 . S
O305 Mn299 2.163 . S
O305 C315 1.244 . S
O306 Mn304 2.089 . S
O306 C313 1.256 . S
O307 Mn299 2.160 . S
O307 C316 1.239 . S
O308 Mn301 2.089 . S
O308 C316 1.256 . S
O309 Mn304 2.251 . S
O309 C314 1.241 . S
O310 Mn304 2.087 . S
O310 C315 1.256 . S
C311 O317 1.278 . S
C311 O318 1.241 . S
C312 O298 1.244 . S
C312 O300 1.256 . S
C313 O302 1.239 . S
C313 O306 1.256 . S
C314 O303 1.278 . S
C314 O309 1.241 . S
C315 O305 1.244 . S
C315 O310 1.256 . S
C316 O307 1.239 . S
C316 O308 1.256 . S
O317 Mn299 2.221 . S
O317 Mn301 2.290 . S
O317 C311 1.278 . S
O318 Mn301 2.251 . S
O318 C311 1.241 . S
O319 Mn320 2.163 1_655 S
O319 C333 1.244 1_554 S
Mn320 O319 2.163 1_455 S
Mn320 O323 2.160 . S
Mn320 O324 2.221 1_455 S
Mn320 O326 2.163 . S
Mn320 O328 2.160 1_454 S
Mn320 O338 2.221 1_554 S
O321 Mn322 2.087 . S
O321 C333 1.256 . S
Mn322 O321 2.087 . S
Mn322 O329 2.089 . S
Mn322 O338 2.290 1_655 S
Mn322 O339 2.251 . S
O323 Mn320 2.160 . S
O323 C334 1.239 . S
O324 Mn320 2.221 1_655 S
O324 Mn325 2.290 1_655 S
O324 C335 1.278 . S
Mn325 O324 2.290 1_455 S
Mn325 O327 2.089 . S
Mn325 O330 2.251 1_455 S
Mn325 O331 2.087 . S
O326 Mn320 2.163 . S
O326 C336 1.244 . S
O327 Mn325 2.089 . S
O327 C334 1.256 . S
O328 Mn320 2.160 1_656 S
O328 C337 1.239 . S
O329 Mn322 2.089 . S
O329 C337 1.256 . S
O330 Mn325 2.251 1_655 S
O330 C335 1.241 . S
O331 Mn325 2.087 . S
O331 C336 1.256 . S
C332 O338 1.278 . S
C332 O339 1.241 1_455 S
C333 O319 1.244 1_556 S
C333 O321 1.256 . S
C334 O323 1.239 . S
C334 O327 1.256 . S
C335 O324 1.278 . S
C335 O330 1.241 . S
C336 O326 1.244 . S
C336 O331 1.256 . S
C337 O328 1.239 . S
C337 O329 1.256 . S
O338 Mn320 2.221 1_556 S
O338 Mn322 2.290 1_455 S
O338 C332 1.278 . S
O339 Mn322 2.251 . S
O339 C332 1.241 1_655 S
C340 C341 1.369 . S
C340 C342 1.419 . S
C340 H344 0.930 . S
C341 C340 1.369 . S
C341 C350 1.429 . S
C342 C340 1.419 . S
C342 C343 1.363 . S
C342 H345 0.933 . S
C343 C342 1.363 . S
C343 C349 1.428 . S
H344 C340 0.930 . S
H345 C342 0.933 . S
S346 N347 1.613 . S
S346 N348 1.610 . S
N347 S346 1.613 . S
N347 C350 1.350 . S
N348 S346 1.610 . S
N348 C349 1.351 . S
C349 C343 1.428 . S
C349 N348 1.351 . S
C349 C350 1.434 . S
C350 C341 1.429 . S
C350 N347 1.350 . S
C350 C349 1.434 . S
C351 C352 1.369 . S
C351 C353 1.419 . S
C351 H355 0.930 . S
C352 C351 1.369 . S
C352 C361 1.429 1_565 S
C353 C351 1.419 . S
C353 C354 1.363 . S
C353 H356 0.929 . S
C354 C353 1.363 . S
C354 C360 1.428 1_565 S
H355 C351 0.930 . S
H356 C353 0.929 . S
S357 N358 1.613 . S
S357 N359 1.610 . S
N358 S357 1.613 . S
N358 C361 1.350 . S
N359 S357 1.610 . S
N359 C360 1.351 . S
C360 C354 1.428 1_545 S
C360 N359 1.351 . S
C360 C361 1.434 . S
C361 C352 1.429 1_545 S
C361 N358 1.350 . S
C361 C360 1.434 . S
C362 C363 1.369 . S
C362 C364 1.419 . S
C362 H366 0.930 . S
C363 C362 1.369 . S
C363 C372 1.429 . S
C364 C362 1.419 . S
C364 C365 1.363 . S
C364 H367 0.929 . S
C365 C364 1.363 . S
C365 C371 1.428 . S
H366 C362 0.930 . S
H367 C364 0.929 . S
S368 N369 1.613 . S
S368 N370 1.610 . S
N369 S368 1.613 . S
N369 C372 1.350 . S
N370 S368 1.610 . S
N370 C371 1.351 . S
C371 C365 1.428 . S
C371 N370 1.351 . S
C371 C372 1.434 . S
C372 C363 1.429 . S
C372 N369 1.350 . S
C372 C371 1.434 . S
C373 C374 1.369 . S
C373 C375 1.419 . S
C373 H377 0.930 . S
C374 C373 1.369 . S
C374 C383 1.429 . S
C375 C373 1.419 . S
C375 C376 1.363 . S
C375 H378 0.929 . S
C376 C375 1.363 . S
C376 C382 1.428 . S
H377 C373 0.930 . S
H378 C375 0.929 . S
S379 N380 1.613 . S
S379 N381 1.610 . S
N380 S379 1.613 . S
N380 C383 1.350 . S
N381 S379 1.610 . S
N381 C382 1.351 . S
C382 C376 1.428 . S
C382 N381 1.351 . S
C382 C383 1.434 . S
C383 C374 1.429 . S
C383 N380 1.350 . S
C383 C382 1.434 . S
C384 C385 1.369 . S
C384 C386 1.419 . S
C384 H388 0.930 . S
C385 C384 1.369 . S
C385 C394 1.429 . S
C386 C384 1.419 . S
C386 C387 1.363 . S
C386 H389 0.929 . S
C387 C386 1.363 . S
C387 C393 1.428 . S
H388 C384 0.930 . S
H389 C386 0.929 . S
S390 N391 1.613 . S
S390 N392 1.610 . S
N391 S390 1.613 . S
N391 C394 1.350 . S
N392 S390 1.610 . S
N392 C393 1.351 . S
C393 C387 1.428 . S
C393 N392 1.351 . S
C393 C394 1.434 . S
C394 C385 1.429 . S
C394 N391 1.350 . S
C394 C393 1.434 . S
C395 C396 1.369 . S
C395 C397 1.419 . S
C395 H399 0.930 . S
C396 C395 1.369 . S
C396 C405 1.429 . S
C397 C395 1.419 . S
C397 C398 1.363 . S
C397 H400 0.929 . S
C398 C397 1.363 . S
C398 C404 1.428 . S
H399 C395 0.930 . S
H400 C397 0.929 . S
S401 N402 1.613 . S
S401 N403 1.610 . S
N402 S401 1.613 . S
N402 C405 1.350 . S
N403 S401 1.610 . S
N403 C404 1.351 . S
C404 C398 1.428 . S
C404 N403 1.351 . S
C404 C405 1.434 . S
C405 C396 1.429 . S
C405 N402 1.350 . S
C405 C404 1.434 . S
C406 C407 1.369 . S
C406 C408 1.419 . S
C406 H410 0.930 . S
C407 C406 1.369 . S
C407 C416 1.429 . S
C408 C406 1.419 . S
C408 C409 1.363 . S
C408 H411 0.929 1_556 S
C409 C408 1.363 . S
C409 C415 1.428 . S
H410 C406 0.930 . S
H411 C408 0.929 1_554 S
S412 N413 1.613 . S
S412 N414 1.610 . S
N413 S412 1.613 . S
N413 C416 1.350 . S
N414 S412 1.610 . S
N414 C415 1.351 . S
C415 C409 1.428 . S
C415 N414 1.351 . S
C415 C416 1.434 . S
C416 C407 1.429 . S
C416 N413 1.350 . S
C416 C415 1.434 . S
C417 C418 1.369 . S
C417 C419 1.419 . S
C417 H421 0.930 . S
C418 C417 1.369 . S
C418 C427 1.429 . S
C419 C417 1.419 . S
C419 C420 1.363 . S
C419 H422 0.929 . S
C420 C419 1.363 . S
C420 C426 1.428 . S
H421 C417 0.930 . S
H422 C419 0.929 . S
S423 N424 1.613 . S
S423 N425 1.610 . S
N424 S423 1.613 . S
N424 C427 1.350 . S
N425 S423 1.610 . S
N425 C426 1.351 . S
C426 C420 1.428 . S
C426 N425 1.351 . S
C426 C427 1.434 . S
C427 C418 1.429 . S
C427 N424 1.350 . S
C427 C426 1.434 . S
C428 C429 1.369 . S
C428 C430 1.419 . S
C428 H432 0.930 . S
C429 C428 1.369 . S
C429 C438 1.429 . S
C430 C428 1.419 . S
C430 C431 1.363 . S
C430 H433 0.929 . S
C431 C430 1.363 . S
C431 C437 1.428 . S
H432 C428 0.930 . S
H433 C430 0.929 . S
S434 N435 1.613 . S
S434 N436 1.610 . S
N435 S434 1.613 . S
N435 C438 1.350 1_556 S
N436 S434 1.610 . S
N436 C437 1.351 1_556 S
C437 C431 1.428 . S
C437 N436 1.351 1_554 S
C437 C438 1.434 . S
C438 C429 1.429 . S
C438 N435 1.350 1_554 S
C438 C437 1.434 . S
C439 C440 1.369 . S
C439 C441 1.419 . S
C439 H443 0.930 . S
C440 C439 1.369 . S
C440 C449 1.429 . S
C441 C439 1.419 . S
C441 C442 1.363 . S
C441 H444 0.929 . S
C442 C441 1.363 . S
C442 C448 1.428 . S
H443 C439 0.930 . S
H444 C441 0.929 . S
S445 N446 1.613 . S
S445 N447 1.610 . S
N446 S445 1.613 . S
N446 C449 1.350 . S
N447 S445 1.610 . S
N447 C448 1.351 . S
C448 C442 1.428 . S
C448 N447 1.351 . S
C448 C449 1.434 . S
C449 C440 1.429 . S
C449 N446 1.350 . S
C449 C448 1.434 . S
C450 C451 1.369 . S
C450 C452 1.419 . S
C450 H454 0.930 1_655 S
C451 C450 1.369 . S
C451 C460 1.429 . S
C452 C450 1.419 . S
C452 C453 1.363 . S
C452 H455 0.929 1_655 S
C453 C452 1.363 . S
C453 C459 1.428 . S
H454 C450 0.930 1_455 S
H455 C452 0.929 1_455 S
S456 N457 1.613 . S
S456 N458 1.610 . S
N457 S456 1.613 . S
N457 C460 1.350 . S
N458 S456 1.610 . S
N458 C459 1.351 . S
C459 C453 1.428 . S
C459 N458 1.351 . S
C459 C460 1.434 . S
C460 C451 1.429 . S
C460 N457 1.350 . S
C460 C459 1.434 . S
C461 C462 1.369 . S
C461 C463 1.419 . S
C461 H465 0.930 . S
C462 C461 1.369 . S
C462 C471 1.429 . S
C463 C461 1.419 . S
C463 C464 1.363 . S
C463 H466 0.929 . S
C464 C463 1.363 . S
C464 C470 1.428 . S
H465 C461 0.930 . S
H466 C463 0.929 . S
S467 N468 1.613 . S
S467 N469 1.610 . S
N468 S467 1.613 . S
N468 C471 1.350 . S
N469 S467 1.610 . S
N469 C470 1.351 . S
C470 C464 1.428 . S
C470 N469 1.351 . S
C470 C471 1.434 . S
C471 C462 1.429 . S
C471 N468 1.350 . S
C471 C470 1.434 . S
C472 C473 1.369 . S
C472 C474 1.419 . S
C472 H476 0.930 1_565 S
C473 C472 1.369 . S
C473 C482 1.429 . S
C474 C472 1.419 . S
C474 C475 1.363 . S
C474 H477 0.929 1_565 S
C475 C474 1.363 . S
C475 C481 1.428 . S
H476 C472 0.930 1_545 S
H477 C474 0.929 1_545 S
S478 N479 1.613 . S
S478 N480 1.610 . S
N479 S478 1.613 . S
N479 C482 1.350 . S
N480 S478 1.610 . S
N480 C481 1.351 . S
C481 C475 1.428 . S
C481 N480 1.351 . S
C481 C482 1.434 . S
C482 C473 1.429 . S
C482 N479 1.350 . S
C482 C481 1.434 . S
C483 C484 1.369 . S
C483 C485 1.419 . S
C483 H487 0.930 . S
C484 C483 1.369 . S
C484 C493 1.429 . S
C485 C483 1.419 . S
C485 C486 1.363 . S
C485 H488 0.929 . S
C486 C485 1.363 . S
C486 C492 1.428 . S
H487 C483 0.930 . S
H488 C485 0.929 . S
S489 N490 1.613 . S
S489 N491 1.610 . S
N490 S489 1.613 . S
N490 C493 1.350 . S
N491 S489 1.610 . S
N491 C492 1.351 . S
C492 C486 1.428 . S
C492 N491 1.351 . S
C492 C493 1.434 . S
C493 C484 1.429 . S
C493 N490 1.350 . S
C493 C492 1.434 . S
C494 C495 1.369 . S
C494 C496 1.419 . S
C494 H498 0.930 . S
C495 C494 1.369 . S
C495 C504 1.429 . S
C496 C494 1.419 . S
C496 C497 1.363 . S
C496 H499 0.929 . S
C497 C496 1.363 . S
C497 C503 1.428 . S
H498 C494 0.930 . S
H499 C496 0.929 . S
S500 N501 1.613 . S
S500 N502 1.610 . S
N501 S500 1.613 . S
N501 C504 1.350 . S
N502 S500 1.610 . S
N502 C503 1.351 . S
C503 C497 1.428 . S
C503 N502 1.351 . S
C503 C504 1.434 . S
C504 C495 1.429 . S
C504 N501 1.350 . S
C504 C503 1.434 . S
C505 C506 1.369 . S
C505 C507 1.419 . S
C505 H509 0.930 . S
C506 C505 1.369 . S
C506 C515 1.429 . S
C507 C505 1.419 . S
C507 C508 1.363 . S
C507 H510 0.929 . S
C508 C507 1.363 . S
C508 C514 1.428 . S
H509 C505 0.930 . S
H510 C507 0.929 . S
S511 N512 1.613 . S
S511 N513 1.610 . S
N512 S511 1.613 . S
N512 C515 1.350 . S
N513 S511 1.610 . S
N513 C514 1.351 . S
C514 C508 1.428 . S
C514 N513 1.351 . S
C514 C515 1.434 . S
C515 C506 1.429 . S
C515 N512 1.350 . S
C515 C514 1.434 . S
C516 C517 1.369 . S
C516 C518 1.419 . S
C516 H520 0.930 1_556 S
C517 C516 1.369 . S
C517 C526 1.429 . S
C518 C516 1.419 . S
C518 C519 1.363 . S
C518 H521 0.929 1_556 S
C519 C518 1.363 . S
C519 C525 1.428 . S
H520 C516 0.930 1_554 S
H521 C518 0.929 1_554 S
S522 N523 1.613 . S
S522 N524 1.610 . S
N523 S522 1.613 . S
N523 C526 1.350 . S
N524 S522 1.610 . S
N524 C525 1.351 . S
C525 C519 1.428 . S
C525 N524 1.351 . S
C525 C526 1.434 . S
C526 C517 1.429 . S
C526 N523 1.350 . S
C526 C525 1.434 . S
C527 C528 1.369 . S
C527 C529 1.419 . S
C527 H531 0.930 . S
C528 C527 1.369 . S
C528 C537 1.429 . S
C529 C527 1.419 . S
C529 C530 1.363 . S
C529 H532 0.929 . S
C530 C529 1.363 . S
C530 C536 1.428 . S
H531 C527 0.930 . S
H532 C529 0.929 . S
S533 N534 1.613 . S
S533 N535 1.610 . S
N534 S533 1.613 . S
N534 C537 1.350 . S
N535 S533 1.610 . S
N535 C536 1.351 . S
C536 C530 1.428 . S
C536 N535 1.351 . S
C536 C537 1.434 . S
C537 C528 1.429 . S
C537 N534 1.350 . S
C537 C536 1.434 . S
C538 C539 1.369 . S
C538 C540 1.419 . S
C538 H542 0.930 . S
C539 C538 1.369 . S
C539 C548 1.429 . S
C540 C538 1.419 . S
C540 C541 1.363 . S
C540 H543 0.929 1_554 S
C541 C540 1.363 . S
C541 C547 1.428 . S
H542 C538 0.930 . S
H543 C540 0.929 1_556 S
S544 N545 1.613 . S
S544 N546 1.610 . S
N545 S544 1.613 . S
N545 C548 1.350 . S
N546 S544 1.610 . S
N546 C547 1.351 . S
C547 C541 1.428 . S
C547 N546 1.351 . S
C547 C548 1.434 . S
C548 C539 1.429 . S
C548 N545 1.350 . S
C548 C547 1.434 . S
C549 C550 1.369 . S
C549 C551 1.419 . S
C549 H553 0.930 . S
C550 C549 1.369 . S
C550 C559 1.429 . S
C551 C549 1.419 . S
C551 C552 1.363 . S
C551 H554 0.929 . S
C552 C551 1.363 . S
C552 C558 1.428 . S
H553 C549 0.930 . S
H554 C551 0.929 . S
S555 N556 1.613 . S
S555 N557 1.610 . S
N556 S555 1.613 . S
N556 C559 1.350 . S
N557 S555 1.610 . S
N557 C558 1.351 . S
C558 C552 1.428 . S
C558 N557 1.351 . S
C558 C559 1.434 . S
C559 C550 1.429 . S
C559 N556 1.350 . S
C559 C558 1.434 . S
C560 C561 1.369 . S
C560 C562 1.419 . S
C560 H564 0.930 . S
C561 C560 1.369 . S
C561 C570 1.429 . S
C562 C560 1.419 . S
C562 C563 1.363 . S
C562 H565 0.929 . S
C563 C562 1.363 . S
C563 C569 1.428 . S
H564 C560 0.930 . S
H565 C562 0.929 . S
S566 N567 1.613 . S
S566 N568 1.610 . S
N567 S566 1.613 . S
N567 C570 1.350 1_554 S
N568 S566 1.610 . S
N568 C569 1.351 1_554 S
C569 C563 1.428 . S
C569 N568 1.351 1_556 S
C569 C570 1.434 . S
C570 C561 1.429 . S
C570 N567 1.350 1_556 S
C570 C569 1.434 . S
C571 C572 1.369 . S
C571 C573 1.419 . S
C571 H575 0.930 . S
C572 C571 1.369 . S
C572 C581 1.429 . S
C573 C571 1.419 . S
C573 C574 1.363 . S
C573 H576 0.929 . S
C574 C573 1.363 . S
C574 C580 1.428 . S
H575 C571 0.930 . S
H576 C573 0.929 . S
S577 N578 1.613 1_556 S
S577 N579 1.610 1_556 S
N578 S577 1.613 1_554 S
N578 C581 1.350 . S
N579 S577 1.610 1_554 S
N579 C580 1.351 . S
C580 C574 1.428 . S
C580 N579 1.351 . S
C580 C581 1.434 . S
C581 C572 1.429 . S
C581 N578 1.350 . S
C581 C580 1.434 . S
C582 C583 1.369 . S
C582 C584 1.419 . S
C582 H586 0.930 1_455 S
C583 C582 1.369 . S
C583 C592 1.429 . S
C584 C582 1.419 . S
C584 C585 1.363 . S
C584 H587 0.929 1_455 S
C585 C584 1.363 . S
C585 C591 1.428 . S
H586 C582 0.930 1_655 S
H587 C584 0.929 1_655 S
S588 N589 1.613 . S
S588 N590 1.610 . S
N589 S588 1.613 . S
N589 C592 1.350 . S
N590 S588 1.610 . S
N590 C591 1.351 . S
C591 C585 1.428 . S
C591 N590 1.351 . S
C591 C592 1.434 . S
C592 C583 1.429 . S
C592 N589 1.350 . S
C592 C591 1.434 . S
C593 C594 1.369 . S
C593 C595 1.419 . S
C593 H597 0.930 . S
C594 C593 1.369 . S
C594 C603 1.429 . S
C595 C593 1.419 . S
C595 C596 1.363 . S
C595 H598 0.929 . S
C596 C595 1.363 . S
C596 C602 1.428 . S
H597 C593 0.930 . S
H598 C595 0.929 . S
S599 N600 1.613 . S
S599 N601 1.610 . S
N600 S599 1.613 . S
N600 C603 1.350 . S
N601 S599 1.610 . S
N601 C602 1.351 . S
C602 C596 1.428 . S
C602 N601 1.351 . S
C602 C603 1.434 . S
C603 C594 1.429 . S
C603 N600 1.350 . S
C603 C602 1.434 . S
C341 C29 1.538 . S
C343 C274 1.570 . S
C352 C49 1.493 . S
C354 C291 1.454 . S
C365 C314 1.236 . S
C363 C93 1.433 . S
C374 C119 1.630 . S
C376 C335 1.379 . S
C387 C294 1.698 . S
C385 C17 1.653 . S
C398 C271 1.663 . S
C396 C61 1.737 . S
C409 C333 1.352 . S
C407 C81 1.354 . S
C420 C312 1.503 . S
C418 C125 1.425 . S
C429 C23 1.600 . S
C431 C336 1.634 . S
C442 C293 1.284 . S
C440 C87 1.516 . S
C451 C113 1.580 . S
C453 C269 1.550 . S
C462 C55 1.553 . S
C464 C315 1.544 . S
C475 C273 1.535 . S
C473 C157 1.613 . S
C484 C189 1.309 . S
C486 C292 1.337 . S
C495 C221 1.539 . S
C497 C311 1.272 . S
C506 C253 1.593 . S
C508 C332 1.358 . S
C517 C145 1.731 . S
C519 C295 1.698 . S
C530 C270 1.653 . S
C528 C183 1.612 . S
C541 C334 1.276 . S
C539 C209 1.337 . S
C552 C313 1.525 . S
C550 C247 1.477 . S
C561 C151 1.559 . S
C563 C337 1.533 . S
C574 C290 1.227 . S
C572 C215 1.529 . S
C585 C272 1.406 . S
C583 C241 1.437 . S
C594 C177 1.438 . S
C596 C316 1.497 . S
