# Generated by pormake.
# Topology zzz, (3,6)-cn, num edge types: 1
# Building blocks:
#     Node 0, Type 0, BuildingBlock: QEWDON_clean_linker_0, # of connection points: 3
#     Node 1, Type 0, BuildingBlock: QEWDON_clean_linker_0, # of connection points: 3
#     Node 2, Type 0, BuildingBlock: QEWDON_clean_linker_0, # of connection points: 3
#     Node 3, Type 0, BuildingBlock: QEWDON_clean_linker_0, # of connection points: 3
#     Node 4, Type 0, BuildingBlock: QEWDON_clean_linker_0, # of connection points: 3
#     Node 5, Type 0, BuildingBlock: QEWDON_clean_linker_0, # of connection points: 3
#     Node 6, Type 0, BuildingBlock: QEWDON_clean_linker_0, # of connection points: 3
#     Node 7, Type 0, BuildingBlock: QEWDON_clean_linker_0, # of connection points: 3
#     Node 8, Type 1, BuildingBlock: KUMBOL_clean_sbu_0, # of connection points: 6
#     Node 9, Type 1, BuildingBlock: KUMBOL_clean_sbu_0, # of connection points: 6
#     Node 10, Type 1, BuildingBlock: KUMBOL_clean_sbu_0, # of connection points: 6
#     Node 11, Type 1, BuildingBlock: KUMBOL_clean_sbu_0, # of connection points: 6
#     Edge 12, Type (0, 1), BuildingBlock: EZIPEK_clean_linker_0, # of connection points: 2
#     Edge 13, Type (0, 1), BuildingBlock: EZIPEK_clean_linker_0, # of connection points: 2
#     Edge 14, Type (0, 1), BuildingBlock: EZIPEK_clean_linker_0, # of connection points: 2
#     Edge 15, Type (0, 1), BuildingBlock: EZIPEK_clean_linker_0, # of connection points: 2
#     Edge 16, Type (0, 1), BuildingBlock: EZIPEK_clean_linker_0, # of connection points: 2
#     Edge 17, Type (0, 1), BuildingBlock: EZIPEK_clean_linker_0, # of connection points: 2
#     Edge 18, Type (0, 1), BuildingBlock: EZIPEK_clean_linker_0, # of connection points: 2
#     Edge 19, Type (0, 1), BuildingBlock: EZIPEK_clean_linker_0, # of connection points: 2
#     Edge 20, Type (0, 1), BuildingBlock: EZIPEK_clean_linker_0, # of connection points: 2
#     Edge 21, Type (0, 1), BuildingBlock: EZIPEK_clean_linker_0, # of connection points: 2
#     Edge 22, Type (0, 1), BuildingBlock: EZIPEK_clean_linker_0, # of connection points: 2
#     Edge 23, Type (0, 1), BuildingBlock: EZIPEK_clean_linker_0, # of connection points: 2
#     Edge 24, Type (0, 1), BuildingBlock: EZIPEK_clean_linker_0, # of connection points: 2
#     Edge 25, Type (0, 1), BuildingBlock: EZIPEK_clean_linker_0, # of connection points: 2
#     Edge 26, Type (0, 1), BuildingBlock: EZIPEK_clean_linker_0, # of connection points: 2
#     Edge 27, Type (0, 1), BuildingBlock: EZIPEK_clean_linker_0, # of connection points: 2
#     Edge 28, Type (0, 1), BuildingBlock: EZIPEK_clean_linker_0, # of connection points: 2
#     Edge 29, Type (0, 1), BuildingBlock: EZIPEK_clean_linker_0, # of connection points: 2
#     Edge 30, Type (0, 1), BuildingBlock: EZIPEK_clean_linker_0, # of connection points: 2
#     Edge 31, Type (0, 1), BuildingBlock: EZIPEK_clean_linker_0, # of connection points: 2
#     Edge 32, Type (0, 1), BuildingBlock: EZIPEK_clean_linker_0, # of connection points: 2
#     Edge 33, Type (0, 1), BuildingBlock: EZIPEK_clean_linker_0, # of connection points: 2
#     Edge 34, Type (0, 1), BuildingBlock: EZIPEK_clean_linker_0, # of connection points: 2
#     Edge 35, Type (0, 1), BuildingBlock: EZIPEK_clean_linker_0, # of connection points: 2
# Relax obj value: 0.154
# Max RMSD: 0.165
# Mean RMSD: 0.078
data_MOF--net-zzz--node1-KUMBOL_clean_sbu_0--node2-QEWDON_clean_linker_0--edge1-EZIPEK_clean_linker_0
_symmetry_space_group_name_H-M    P1
_symmetry_Int_Tables_number       1
_symmetry_cell_setting            triclinic
loop_
_symmetry_equiv_pos_as_xyz
'x, y, z'
_cell_length_a     40.409907
_cell_length_b     40.339838
_cell_length_c     10.991313
_cell_angle_alpha  91.044759
_cell_angle_beta   89.685911
_cell_angle_gamma 90.271669
loop_
_atom_site_label
_atom_site_type_symbol
_atom_site_fract_x
_atom_site_fract_y
_atom_site_fract_z
_atom_type_partial_charge
H0 H 0.76224 0.59165 0.11099 0.0
C1 C 0.7827 0.58302 0.16409 0.0
C2 C 0.81334 0.5996 0.15494 0.0
C3 C 0.77794 0.55544 0.23864 0.0
H4 H 0.86295 0.60289 0.23083 0.0
C5 C 0.83936 0.59008 0.23297 0.0
C6 C 0.83656 0.56333 0.31211 0.0
C7 C 0.80555 0.54569 0.31354 0.0
C8 C 0.74344 0.53886 0.2398 0.0
H9 H 0.80317 0.52464 0.37251 0.0
C10 C 0.71999 0.54045 0.14035 0.0
C11 C 0.6867 0.52786 0.15089 0.0
C12 C 0.73254 0.52323 0.34616 0.0
H13 H 0.74841 0.52176 0.42479 0.0
C14 C 0.70049 0.5103 0.35577 0.0
H15 H 0.72717 0.55152 0.05527 0.0
C16 C 0.67795 0.51274 0.26054 0.0
H17 H 0.65322 0.50283 0.27302 0.0
H18 H 0.69279 0.49866 0.43935 0.0
H19 H 0.02711 0.77785 0.13026 0.0
C20 C 0.02212 0.7954 0.20363 0.0
C21 C 0.03529 0.82722 0.19441 0.0
C22 C 1.00182 0.78679 0.30193 0.0
H23 H 0.03848 0.87654 0.26722 0.0
C24 C 0.02827 0.85193 0.28104 0.0
C25 C 1.01154 0.8452 0.38958 0.0
C26 C 0.99752 0.81197 0.39879 0.0
C27 C 0.98347 0.75302 0.29192 0.0
H28 H 0.98381 0.80572 0.48004 0.0
C29 C 0.99469 0.72449 0.21894 0.0
C30 C 0.97382 0.69578 0.19541 0.0
C31 C 0.95168 0.75081 0.34293 0.0
H32 H 0.9416 0.77117 0.3966 0.0
C33 C 0.93134 0.72334 0.31999 0.0
H34 H 1.0193 0.72448 0.1798 0.0
C35 C 0.94185 0.69686 0.24597 0.0
H36 H 0.92507 0.67624 0.2317 0.0
H37 H 0.90667 0.72277 0.35887 0.0
H38 H 0.80195 0.0482 0.1591 0.0
C39 C 0.78139 0.04294 0.21974 0.0
C40 C 0.75027 0.05455 0.18995 0.0
C41 C 0.78572 0.02273 0.32016 0.0
H42 H 0.69857 0.05407 0.22602 0.0
C43 C 0.72244 0.04626 0.25946 0.0
C44 C 0.72481 0.03204 0.37529 0.0
C45 C 0.75745 1.01859 0.40277 0.0
C46 C 0.81725 1.0016 0.31379 0.0
H47 H 0.76141 1.00553 0.48632 0.0
C48 C 0.85004 1.01468 0.2863 0.0
C49 C 0.87663 0.99412 0.23622 0.0
C50 C 0.81229 0.96761 0.29474 0.0
H51 H 0.78825 0.95658 0.31198 0.0
C52 C 0.83622 0.94837 0.23549 0.0
H53 H 0.85351 0.04094 0.29949 0.0
C54 C 0.86667 0.96186 0.20056 0.0
H55 H 0.88262 0.94635 0.14586 0.0
H56 H 0.83053 0.92285 0.21131 0.0
H57 H 0.59313 0.80043 0.1628 0.0
C58 C 0.58446 0.78116 0.22221 0.0
C59 C 0.59719 0.74898 0.20697 0.0
C60 C 0.56082 0.78887 0.31291 0.0
H61 H 0.59842 0.70033 0.28983 0.0
C62 C 0.5879 0.72492 0.29292 0.0
C63 C 0.56279 0.7304 0.37816 0.0
C64 C 0.54933 0.7628 0.38948 0.0
C65 C 0.55022 0.8246 0.32936 0.0
H66 H 0.53023 0.76758 0.45689 0.0
C67 C 0.54771 0.84676 0.22949 0.0
C68 C 0.54273 0.88129 0.24941 0.0
C69 C 0.54629 0.83782 0.44777 0.0
H70 H 0.54853 0.82217 0.52626 0.0
C71 C 0.54147 0.87178 0.46727 0.0
H72 H 0.55014 0.83745 0.13687 0.0
C73 C 0.54028 0.89329 0.3694 0.0
H74 H 0.5379 0.91962 0.3869 0.0
H75 H 0.53946 0.88164 0.55928 0.0
H76 H 0.27387 0.43996 0.34591 0.0
C77 C 0.25565 0.44964 0.2849 0.0
C78 C 0.22203 0.44468 0.31159 0.0
C79 C 0.26621 0.46731 0.18322 0.0
H80 H 0.172 0.45081 0.24471 0.0
C81 C 0.19803 0.45395 0.2251 0.0
C82 C 0.20634 0.46937 0.11586 0.0
C83 C 0.24093 0.47682 0.09678 0.0
C84 C 0.30371 0.47393 0.16872 0.0
H85 H 0.24775 0.49021 0.01606 0.0
C86 C 0.32755 0.47497 0.26858 0.0
C87 C 0.36283 0.47904 0.2482 0.0
C88 C 0.31637 0.47699 0.05052 0.0
H89 H 0.30034 0.47568 0.97212 0.0
C90 C 0.35017 0.47986 0.02939 0.0
H91 H 0.31882 0.47185 0.36065 0.0
C92 C 0.37265 0.4803 0.12493 0.0
H93 H 0.39848 0.48159 0.10019 0.0
H94 H 0.35925 0.48129 0.93673 0.0
H95 H 0.02367 0.28564 0.30151 0.0
C96 C 0.02961 0.2681 0.22898 0.0
C97 C 1.01766 0.23593 0.23946 0.0
C98 C 0.04515 0.27873 0.12285 0.0
H99 H 1.01323 0.18717 0.16183 0.0
C100 C 0.02296 0.21194 0.14811 0.0
C101 C 0.03662 0.22004 0.03476 0.0
C102 C 0.04791 0.25423 0.02266 0.0
C103 C 0.05239 0.31648 0.11683 0.0
H104 H 0.05792 0.26162 0.93584 0.0
C105 C 0.05638 0.33868 0.22328 0.0
C106 C 0.05611 0.37465 0.21493 0.0
C107 C 0.05115 0.33138 0.00306 0.0
H108 H 0.04775 0.31673 0.92068 0.0
C109 C 0.05249 0.36563 0.99276 0.0
H110 H 0.06007 0.32789 0.31134 0.0
C111 C 0.05432 0.38651 0.09515 0.0
H112 H 0.05381 0.41282 0.07885 0.0
H113 H 0.05083 0.3764 0.90349 0.0
H114 H 0.276 1.01339 0.25154 0.0
C115 C 0.2937 0.02162 0.1842 0.0
C116 C 0.32678 1.0134 0.20122 0.0
C117 C 0.28303 0.03688 0.07796 0.0
H118 H 0.37657 1.01525 0.13492 0.0
C119 C 0.35112 0.02195 0.1165 0.0
C120 C 0.3431 0.03469 0.00277 0.0
C121 C 0.30835 0.04253 0.98404 0.0
C122 C 0.24509 0.04197 0.06499 0.0
H123 H 0.30128 0.05231 0.89712 0.0
C124 C 0.22166 0.0437 0.16703 0.0
C125 C 0.1862 0.04435 0.14963 0.0
C126 C 0.23134 0.04179 0.94795 0.0
H127 H 0.24693 0.03974 0.86796 0.0
C128 C 0.19709 0.04251 0.93079 0.0
H129 H 0.23062 0.04431 0.25951 0.0
C130 C 0.17503 0.0437 0.02912 0.0
H131 H 0.14872 0.04366 0.01078 0.0
H132 H 0.18744 0.04137 0.83921 0.0
H133 H 0.54246 0.27143 0.2135 0.0
C134 C 0.53385 0.28765 0.14388 0.0
C135 C 0.55282 0.31613 0.12362 0.0
C136 C 0.50324 0.28222 0.08523 0.0
H137 H 0.55751 0.36084 0.02105 0.0
C138 C 0.54276 0.33884 0.03639 0.0
C139 C 0.51196 0.33666 0.98145 0.0
C140 C 0.49248 0.30766 0.00287 0.0
C141 C 0.48233 0.25153 0.11792 0.0
H142 H 0.46919 0.30583 0.95588 0.0
C143 C 0.49387 0.22513 0.1943 0.0
C144 C 0.47405 0.19654 0.2205 0.0
C145 C 0.44968 0.24856 0.07469 0.0
H146 H 0.43839 0.26736 0.02051 0.0
C147 C 0.4301 0.22111 0.10097 0.0
H148 H 0.51815 0.22603 0.234 0.0
C149 C 0.44223 0.19532 0.17005 0.0
H150 H 0.42629 0.17407 0.184 0.0
H151 H 0.4052 0.2195 0.06531 0.0
Gd152 Gd 0.99167 0.04555 0.5772 0.0
Gd153 Gd 0.0541 0.02666 0.78922 0.0
C154 C 0.07494 0.11101 0.06957 0.0
C155 C 0.13003 0.12867 0.01293 0.0
C156 C 0.10042 0.0875 0.88834 0.0
C157 C 0.07453 0.08807 0.97014 0.0
C158 C 0.12816 0.10863 0.90768 0.0
C159 C 0.10329 0.13009 0.09331 0.0
C160 C 0.04608 0.11607 0.13699 0.0
C161 C 1.01733 0.0999 0.10092 0.0
N162 N 0.04726 0.06952 0.9438 0.0
C163 C 1.0184 0.07699 0.00421 0.0
H164 H 0.99547 0.06738 0.97535 0.0
C165 C 0.12293 0.06899 0.70165 0.0
N166 N 0.09757 0.06816 0.78604 0.0
C167 C 0.15007 0.09021 0.71523 0.0
C168 C 0.15292 0.10988 0.81928 0.0
H169 H 0.12469 0.05155 0.62766 0.0
H170 H 0.10412 0.14732 0.17001 0.0
H171 H 0.04162 0.06354 0.29603 0.0
H172 H 0.04529 0.13371 0.21249 0.0
H173 H 0.99416 0.10511 0.14722 0.0
H174 H 0.15135 0.14446 0.02975 0.0
H175 H 0.92207 1.00244 0.68764 0.0
H176 H 0.04444 0.97425 0.07595 0.0
H177 H 0.06629 0.02931 0.14431 0.0
H178 H 0.92458 0.90174 0.21065 0.0
H179 H 0.16961 0.09019 0.64742 0.0
H180 H 0.17436 0.12586 0.83064 0.0
H181 H 0.98792 0.92036 0.06457 0.0
H182 H 0.88481 0.95867 0.63764 0.0
N183 N 1.00468 0.0298 0.35948 0.0
C184 C 0.03109 0.98986 0.13906 0.0
C185 C 0.0436 1.02022 0.18468 0.0
C186 C 1.00052 0.98027 0.17526 0.0
C187 C 0.98397 1.00802 0.30845 0.0
C188 C 0.02961 0.03991 0.28156 0.0
N189 N 0.94826 1.00512 0.52022 0.0
C190 C 0.9468 0.99566 0.40275 0.0
C191 C 0.90183 0.96605 0.56659 0.0
C192 C 0.90137 0.94666 0.4582 0.0
C193 C 0.9244 0.99249 0.59651 0.0
C194 C 0.92201 0.95518 0.36424 0.0
H195 H 0.88598 0.92471 0.45095 0.0
O196 O 0.94353 0.06265 0.63533 0.0
O197 O 1.01978 0.06774 0.73823 0.0
O198 O 1.00899 1.0121 0.90553 0.0
O199 O 0.96843 0.02919 0.77103 0.0
O200 O 1.01195 0.09893 0.59879 0.0
O201 O 0.96426 0.07982 0.46551 0.0
O202 O 0.10366 1.00833 0.76729 0.0
O203 O 0.02478 1.00297 0.63173 0.0
O204 O 0.04342 0.05961 0.49839 0.0
O205 O 0.07543 0.02254 0.59684 0.0
O206 O 0.03025 0.97519 0.78505 0.0
O207 O 0.0782 0.99976 0.93477 0.0
C208 C 0.02559 0.09775 0.70494 0.0
C209 C 0.93668 0.92537 0.22653 0.0
C210 C 0.97774 0.93715 0.13276 0.0
C211 C 0.94021 0.0827 0.54514 0.0
C212 C 0.9285 0.11613 0.57932 0.0
C213 C 0.90282 0.12019 0.66529 0.0
C214 C 0.94317 0.14417 0.52931 0.0
C215 C 0.93269 0.17591 0.5647 0.0
C216 C 0.89252 0.15197 0.7015 0.0
C217 C 0.90744 0.17993 0.65137 0.0
C218 C 0.97705 1.0167 0.88067 0.0
C219 C 1.0178 0.97431 0.67645 0.0
C220 C 0.10507 0.99448 0.87188 0.0
C221 C 0.12024 0.9614 0.86713 0.0
C222 C 0.15038 0.95725 0.80393 0.0
C223 C 0.10473 0.93377 0.91735 0.0
C224 C 0.11878 0.9022 0.90238 0.0
C225 C 0.16406 0.92576 0.78737 0.0
C226 C 0.14808 0.89814 0.83501 0.0
C227 C 0.07161 0.04272 0.50539 0.0
H228 H 0.89102 0.0988 0.70544 0.0
H229 H 0.96286 0.14155 0.46239 0.0
H230 H 0.87294 0.15488 0.76836 0.0
H231 H 0.89927 0.20448 0.67907 0.0
H232 H 0.16297 0.97836 0.76488 0.0
H233 H 0.08157 0.93652 0.96657 0.0
H234 H 0.18695 0.92277 0.73686 0.0
H235 H 0.15873 0.87375 0.82135 0.0
Gd236 Gd 0.52252 1.00183 0.58941 0.0
Gd237 Gd 0.54332 0.06493 0.79919 0.0
C238 C 0.45569 0.12125 0.96061 0.0
C239 C 0.45982 0.17409 0.859 0.0
C240 C 0.50193 0.13208 0.82545 0.0
C241 C 0.48454 0.11043 0.89946 0.0
C242 C 0.49048 0.16467 0.80937 0.0
C243 C 0.44228 0.1522 0.93311 0.0
C244 C 0.441 0.10048 0.04629 0.0
C245 C 0.45499 0.06962 0.0683 0.0
N246 N 0.49638 0.07933 0.91535 0.0
C247 C 0.48275 0.05937 0.00131 0.0
H248 H 0.49302 0.03543 0.01805 0.0
C249 C 0.55196 0.14449 0.72247 0.0
N250 N 0.53089 0.12182 0.77419 0.0
C251 C 0.54169 0.17709 0.705 0.0
C252 C 0.51045 0.18699 0.74585 0.0
H253 H 0.57618 0.13698 0.69068 0.0
H254 H 0.41859 0.15965 0.97064 0.0
H255 H 0.50799 0.03128 0.29985 0.0
H256 H 0.41905 0.1081 0.09621 0.0
H257 H 0.44407 0.05347 0.13525 0.0
H258 H 0.44989 0.19853 0.84327 0.0
H259 H 0.56687 0.943 0.73401 0.0
H260 H 0.59726 0.02253 0.09531 0.0
H261 H 0.54109 0.04513 0.12192 0.0
H262 H 0.66014 0.94578 0.32237 0.0
H263 H 0.55786 0.1945 0.65987 0.0
H264 H 0.50249 0.21225 0.7319 0.0
H265 H 0.641 0.98473 0.16912 0.0
H266 H 0.61634 0.9101 0.70316 0.0
N267 N 0.5483 1.00901 0.39478 0.0
C268 C 0.58357 1.01806 0.1784 0.0
C269 C 0.5518 0.03058 0.19246 0.0
C270 C 0.59645 0.99814 0.26862 0.0
C271 C 0.57815 0.99414 0.37756 0.0
C272 C 0.53366 0.02388 0.29752 0.0
N273 N 0.57234 0.97093 0.57156 0.0
C274 C 0.58978 0.97348 0.46619 0.0
C275 C 0.6095 0.9282 0.63637 0.0
C276 C 0.62845 0.93184 0.53153 0.0
C277 C 0.58145 0.94778 0.65461 0.0
C278 C 0.61884 0.95474 0.44504 0.0
H279 H 0.65029 0.91672 0.51783 0.0
O280 O 0.5093 0.95032 0.61528 0.0
O281 O 0.5007 0.02988 0.75239 0.0
O282 O 0.54318 1.01714 0.90942 0.0
O283 O 0.52248 0.9772 0.77565 0.0
O284 O 0.47092 0.02417 0.60289 0.0
O285 O 0.49222 0.97522 0.45625 0.0
O286 O 0.55464 0.09315 0.96482 0.0
O287 O 0.56763 0.02717 0.67009 0.0
O288 O 0.50951 0.05097 0.49599 0.0
O289 O 0.52528 0.09187 0.63295 0.0
O290 O 0.58392 0.07539 0.66028 0.0
O291 O 0.59147 0.06125 0.88565 0.0
C292 C 0.47119 0.03598 0.7131 0.0
C293 C 0.63743 0.95938 0.33857 0.0
C294 C 0.62658 0.98157 0.25155 0.0
C295 C 0.49035 0.94853 0.52082 0.0
C296 C 0.45757 0.93336 0.54076 0.0
C297 C 0.45444 0.905 0.61267 0.0
C298 C 0.42918 0.94722 0.49081 0.0
C299 C 0.398 0.93332 0.51309 0.0
C300 C 0.42322 0.89131 0.63605 0.0
C301 C 0.39492 0.90549 0.5868 0.0
C302 C 0.53394 0.9862 0.88409 0.0
C303 C 0.58932 0.04586 0.61762 0.0
C304 C 0.58563 0.0852 0.96309 0.0
C305 C 0.60996 0.11258 0.96367 0.0
C306 C 0.60075 0.14559 0.94371 0.0
C307 C 0.64349 0.10498 0.97244 0.0
C308 C 0.66786 0.12914 0.9507 0.0
C309 C 0.6248 0.16938 0.91608 0.0
C310 C 0.65828 0.16089 0.91509 0.0
C311 C 0.5136 0.08269 0.52633 0.0
H312 H 0.47608 0.89369 0.65188 0.0
H313 H 0.43112 0.96886 0.434 0.0
H314 H 0.42098 0.86966 0.69231 0.0
H315 H 0.37084 0.89464 0.60443 0.0
H316 H 0.57504 0.15284 0.94565 0.0
H317 H 0.65066 0.07993 0.9948 0.0
H318 H 0.61743 0.19438 0.89501 0.0
H319 H 0.67668 0.17942 0.89231 0.0
Gd320 Gd 0.50031 0.55133 0.7819 0.0
Gd321 Gd 0.55561 0.51653 0.57224 0.0
C322 C 0.64225 0.4484 0.65937 0.0
C323 C 0.68479 0.48743 0.72433 0.0
C324 C 0.63035 0.50727 0.66595 0.0
C325 C 0.62004 0.47495 0.64466 0.0
C326 C 0.66321 0.51385 0.70322 0.0
C327 C 0.67431 0.45475 0.70263 0.0
C328 C 0.63219 0.41647 0.62365 0.0
C329 C 0.60173 0.41208 0.56648 0.0
N330 N 0.58928 0.4697 0.59899 0.0
C331 C 0.58106 0.43937 0.55162 0.0
H332 H 0.55907 0.43688 0.49793 0.0
C333 C 0.62014 0.56436 0.64553 0.0
N334 N 0.60892 0.53233 0.6434 0.0
C335 C 0.65226 0.57212 0.68358 0.0
C336 C 0.67373 0.54678 0.71469 0.0
H337 H 0.60483 0.58419 0.61664 0.0
H338 H 0.69155 0.43466 0.71567 0.0
H339 H 0.47009 0.57673 0.51442 0.0
H340 H 0.64851 0.39545 0.63314 0.0
H341 H 0.59463 0.38796 0.53047 0.0
H342 H 0.70991 0.49205 0.75443 0.0
H343 H 0.48622 0.52357 0.05676 0.0
H344 H 0.36714 0.59584 0.56626 0.0
H345 H 0.41698 0.59619 0.43474 0.0
H346 H 0.34891 0.56795 0.98295 0.0
H347 H 0.66051 0.59768 0.68758 0.0
H348 H 0.69868 0.55285 0.74347 0.0
H349 H 0.34178 0.58471 0.77063 0.0
H350 H 0.44256 0.53259 0.21128 0.0
N351 N 0.44991 0.56088 0.6826 0.0
C352 C 0.39017 0.58593 0.59976 0.0
C353 C 0.4182 0.58607 0.52513 0.0
C354 C 0.39236 0.57372 0.71781 0.0
C355 C 0.42282 0.56076 0.75663 0.0
C356 C 0.44819 0.57434 0.56959 0.0
N357 N 0.45618 0.5377 0.90935 0.0
C358 C 0.42624 0.54938 0.87426 0.0
C359 C 0.43733 0.53618 0.11622 0.0
C360 C 0.4063 0.54751 0.08133 0.0
C361 C 0.46186 0.53065 0.02823 0.0
C362 C 0.40009 0.55333 0.95862 0.0
H363 H 0.38739 0.55187 0.15002 0.0
O364 O 0.51034 0.58098 0.94704 0.0
O365 O 0.55529 0.5439 0.74892 0.0
O366 O 0.53528 0.47265 0.68863 0.0
O367 O 0.49287 0.49504 0.80996 0.0
O368 O 0.53699 0.53042 0.91617 0.0
O369 O 0.47844 0.5996 0.80667 0.0
O370 O 0.54691 0.52859 0.38277 0.0
O371 O 0.50093 0.52946 0.59024 0.0
O372 O 0.51944 0.59482 0.67334 0.0
O373 O 0.55371 0.5719 0.52653 0.0
O374 O 0.51227 0.48359 0.51754 0.0
O375 O 0.59325 0.50772 0.43471 0.0
C376 C 0.56367 0.53163 0.85153 0.0
C377 C 0.36942 0.56529 0.91965 0.0
C378 C 0.36542 0.57501 0.79897 0.0
C379 C 0.4905 0.6046 0.91423 0.0
C380 C 0.49804 0.63914 0.94538 0.0
C381 C 0.47208 0.65952 0.98584 0.0
C382 C 0.52976 0.65243 0.93167 0.0
C383 C 0.53648 0.68513 0.96892 0.0
C384 C 0.47806 0.69272 0.01563 0.0
C385 C 0.51017 0.70537 0.00924 0.0
C386 C 0.50982 0.46876 0.76696 0.0
C387 C 0.48738 0.50264 0.54466 0.0
C388 C 0.57441 0.51524 0.34492 0.0
C389 C 0.57162 0.49 0.24794 0.0
C390 C 0.54995 0.49545 0.15211 0.0
C391 C 0.58555 0.45844 0.26166 0.0
C392 C 0.57414 0.43172 0.19121 0.0
C393 C 0.53967 0.46904 0.07823 0.0
C394 C 0.55135 0.4372 0.0982 0.0
C395 C 0.53893 0.59784 0.57802 0.0
H396 H 0.44716 0.64972 0.99428 0.0
H397 H 0.54937 0.63706 0.89755 0.0
H398 H 0.458 0.70838 0.0473 0.0
H399 H 0.51459 0.73079 0.03859 0.0
H400 H 0.53902 0.51964 0.14146 0.0
H401 H 0.60309 0.45387 0.33322 0.0
H402 H 0.52132 0.47306 0.00983 0.0
H403 H 0.54166 0.41672 0.04455 0.0
Gd404 Gd 0.99546 0.50228 0.81302 0.0
Gd405 Gd 0.04281 0.55809 0.65766 0.0
C406 C 0.07177 0.64798 0.89767 0.0
C407 C 0.06042 0.69355 0.76343 0.0
C408 C 0.04775 0.63673 0.69939 0.0
C409 C 0.05995 0.62521 0.80833 0.0
C410 C 0.04827 0.67105 0.67555 0.0
C411 C 0.07195 0.68207 0.8745 0.0
C412 C 0.08266 0.63599 0.00874 0.0
C413 C 0.08103 0.60217 0.02999 0.0
N414 N 0.05925 0.592 0.82856 0.0
C415 C 0.06892 0.58062 0.93964 0.0
H416 H 0.06587 0.5552 0.96323 0.0
C417 C 0.02519 0.62491 0.50594 0.0
N418 N 0.03508 0.61455 0.61714 0.0
C419 C 0.02625 0.65855 0.4769 0.0
C420 C 0.03715 0.68178 0.56295 0.0
H421 H 1.01799 0.60688 0.43807 0.0
H422 H 0.08089 0.69978 0.94212 0.0
H423 H 0.97557 0.46134 0.5526 0.0
H424 H 0.09171 0.65267 0.07956 0.0
H425 H 0.08845 0.59266 0.11714 0.0
H426 H 0.06087 0.71994 0.74655 0.0
H427 H 1.01833 0.49858 0.10391 0.0
H428 H 0.94831 0.36294 0.64894 0.0
H429 H 0.95358 0.40653 0.49481 0.0
H430 H 0.96491 0.36215 0.07872 0.0
H431 H 1.01953 0.66666 0.3873 0.0
H432 H 0.03771 0.70782 0.54031 0.0
H433 H 0.9534 0.34633 0.86612 0.0
H434 H 1.00323 0.4621 0.2731 0.0
N435 N 0.98608 0.44843 0.73546 0.0
C436 C 0.95911 0.38671 0.67409 0.0
C437 C 0.96198 0.41125 0.58688 0.0
C438 C 0.96924 0.39345 0.79349 0.0
C439 C 0.98313 0.42484 0.82179 0.0
C440 C 0.97507 0.44223 0.61963 0.0
N441 N 1.00388 0.46375 0.96637 0.0
C442 C 0.9913 0.43308 0.94121 0.0
C443 C 1.00078 0.45331 0.18028 0.0
C444 C 0.98764 0.42187 0.15632 0.0
C445 C 1.0096 0.47375 0.08397 0.0
C446 C 0.98339 0.41109 0.03569 0.0
H447 H 0.98098 0.4061 0.23148 0.0
O448 O 0.95733 0.50133 0.95268 0.0
O449 O 1.00187 0.55808 0.79536 0.0
O450 O 0.0801 0.52754 0.76555 0.0
O451 O 0.05009 0.49125 0.8822 0.0
O452 O 0.99386 0.54089 0.96526 0.0
O453 O 0.94493 0.49011 0.76411 0.0
O454 O 0.06474 0.56482 0.47803 0.0
O455 O 0.03632 0.50162 0.66889 0.0
O456 O 0.96671 0.51683 0.64154 0.0
O457 O 0.98952 0.56672 0.58371 0.0
O458 O 0.03268 0.52148 0.50058 0.0
O459 O 0.0923 0.57736 0.6404 0.0
C460 C 0.99837 0.56787 0.90718 0.0
C461 C 0.97044 0.37956 0.0074 0.0
C462 C 0.96394 0.37055 0.88633 0.0
C463 C 0.9344 0.49197 0.87623 0.0
C464 C 0.90151 0.50551 0.89613 0.0
C465 C 0.87728 0.48511 0.94721 0.0
C466 C 0.89433 0.53838 0.86831 0.0
C467 C 0.86335 0.55186 0.8988 0.0
C468 C 0.84602 0.49768 0.97302 0.0
C469 C 0.83923 0.53084 0.95121 0.0
C470 C 0.07963 0.50437 0.8494 0.0
C471 C 0.03487 0.49335 0.55468 0.0
C472 C 0.09329 0.57364 0.52296 0.0
C473 C 0.12252 0.55604 0.47838 0.0
C474 C 0.14294 0.57072 0.39141 0.0
C475 C 0.1321 0.52634 0.53276 0.0
C476 C 0.16236 0.51169 0.50335 0.0
C477 C 0.17303 0.55608 0.36015 0.0
C478 C 0.18268 0.52674 0.41497 0.0
C479 C 0.96458 0.54477 0.58043 0.0
H480 H 0.88268 0.45956 0.96821 0.0
H481 H 0.91308 0.55278 0.82396 0.0
H482 H 0.82731 0.482 0.01353 0.0
H483 H 0.8151 0.54008 0.97776 0.0
H484 H 0.13605 0.5939 0.3504 0.0
H485 H 0.11657 0.51535 0.60061 0.0
H486 H 0.18922 0.56787 0.29516 0.0
H487 H 0.2062 0.51597 0.38858 0.0
C488 C 0.14715 0.07398 0.30666 0.0
C489 C 0.15916 0.04409 0.2511 0.0
C490 C 0.11214 1.01414 0.35156 0.0
C491 C 0.09977 0.04412 0.40679 0.0
N492 N 0.10209 0.10376 0.40911 0.0
N493 N 0.15028 0.98748 0.20381 0.0
C494 C 0.11639 0.07436 0.3761 0.0
C495 C 0.14067 1.01459 0.27057 0.0
N496 N 0.16535 0.10228 0.29295 0.0
N497 N 0.09554 0.98524 0.37252 0.0
H498 H 0.13784 0.96481 0.20043 0.0
H499 H 0.13784 0.96481 0.20043 0.0
H500 H 0.07204 0.98485 0.41212 0.0
H501 H 0.10469 0.96177 0.35161 0.0
H502 H 0.16055 0.12443 0.33956 0.0
H503 H 0.18705 0.10286 0.24114 0.0
H504 H 0.11105 0.12685 0.38387 0.0
H505 H 0.07909 0.10503 0.45153 0.0
C506 C 0.51791 0.15432 0.29392 0.0
C507 C 0.4853 0.16757 0.29975 0.0
C508 C 0.47026 0.11927 0.42536 0.0
C509 C 0.50385 0.1102 0.43976 0.0
N510 N 0.56037 0.12887 0.41341 0.0
N511 N 0.43421 0.16657 0.41712 0.0
C512 C 0.52797 0.13067 0.38198 0.0
C513 C 0.46244 0.15112 0.37866 0.0
N514 N 0.539 0.16251 0.20192 0.0
N515 N 0.44553 0.09787 0.45539 0.0
H516 H 0.42935 0.19133 0.39855 0.0
H517 H 0.41819 0.15607 0.48065 0.0
H518 H 0.45024 0.07391 0.48416 0.0
H519 H 0.42068 0.10302 0.43912 0.0
H520 H 0.5622 0.15152 0.19161 0.0
H521 H 0.53168 0.17653 0.12815 0.0
H522 H 0.57831 0.14481 0.37841 0.0
H523 H 0.56817 0.11454 0.48525 0.0
C524 C 0.42242 0.46625 0.31492 0.0
C525 C 0.39142 0.4808 0.34477 0.0
C526 C 0.42095 0.49858 0.53468 0.0
C527 C 0.45316 0.49648 0.4788 0.0
N528 N 0.48021 0.47763 0.29234 0.0
N529 N 0.36291 0.51206 0.50347 0.0
C530 C 0.45253 0.47993 0.36242 0.0
C531 C 0.39108 0.49759 0.46079 0.0
N532 N 0.42336 0.4376 0.24815 0.0
N533 N 0.41818 0.49602 0.65702 0.0
H534 H 0.34209 0.51511 0.44978 0.0
H535 H 0.36153 0.52325 0.58942 0.0
H536 H 0.43894 0.49281 0.71084 0.0
H537 H 0.39533 0.49379 0.70095 0.0
H538 H 0.44531 0.42426 0.23789 0.0
H539 H 0.40183 0.42564 0.21824 0.0
H540 H 0.47986 0.46648 0.20598 0.0
H541 H 0.50154 0.49084 0.31277 0.0
C542 C 0.04268 0.39968 0.43944 0.0
C543 C 0.05759 0.40181 0.32106 0.0
C544 C 0.06484 0.46259 0.36722 0.0
C545 C 0.0481 0.46103 0.48353 0.0
N546 N 0.04508 0.42218 0.64627 0.0
N547 N 0.09997 0.43354 0.22111 0.0
C548 C 0.0442 0.42772 0.52508 0.0
C549 C 0.07373 0.43281 0.29971 0.0
N550 N 0.02629 0.37163 0.47181 0.0
N551 N 0.07398 0.49221 0.3199 0.0
H552 H 0.10962 0.412 0.18091 0.0
H553 H 0.11454 0.45461 0.20901 0.0
H554 H 0.07602 0.51377 0.37113 0.0
H555 H 0.08065 0.49471 0.22863 0.0
H556 H 1.01605 0.36864 0.558 0.0
H557 H 0.02007 0.35296 0.40966 0.0
H558 H 0.04557 0.39844 0.6822 0.0
H559 H 0.04881 0.44169 0.70786 0.0
C560 C 0.91831 0.03754 0.1619 0.0
C561 C 0.91365 1.0051 0.20982 0.0
C562 C 0.94484 0.98373 0.05389 0.0
C563 C 0.95181 1.01406 0.99215 0.0
N564 N 0.93221 0.07012 0.98523 0.0
N565 N 0.97331 0.9557 0.31369 0.0
C566 C 0.93531 0.04155 0.04744 0.0
C567 C 0.94311 0.98146 0.19363 0.0
N568 N 0.90974 0.06431 0.23197 0.0
N569 N 0.93065 0.95887 0.98685 0.0
H570 H 0.9798 0.94897 0.40306 0.0
H571 H 0.9798 0.94897 0.40306 0.0
H572 H 0.92616 0.96081 0.89386 0.0
H573 H 0.92616 0.96081 0.89386 0.0
H574 H 0.91479 0.08867 0.20765 0.0
H575 H 0.90238 0.06147 0.32236 0.0
H576 H 0.91802 0.09011 0.01597 0.0
H577 H 0.94016 0.07154 0.89561 0.0
C578 C 0.50985 0.9195 0.11822 0.0
C579 C 0.54097 0.90612 0.14793 0.0
C580 C 0.56794 0.94604 0.01042 0.0
C581 C 0.53654 0.95991 0.98129 0.0
N582 N 0.47834 0.96358 0.02466 0.0
N583 N 0.6002 0.90776 0.13181 0.0
C584 C 0.50759 0.94745 0.03961 0.0
C585 C 0.5702 0.91961 0.09593 0.0
N586 N 0.48277 0.9043 0.16677 0.0
N587 N 0.59568 0.95837 0.95599 0.0
H588 H 0.60253 0.88838 0.19266 0.0
H589 H 0.62295 0.91752 0.10582 0.0
H590 H 0.59502 0.97942 0.90325 0.0
H591 H 0.61905 0.94783 0.96032 0.0
H592 H 0.45828 0.91025 0.14799 0.0
H593 H 0.45828 0.91025 0.14799 0.0
H594 H 0.45663 0.95853 0.07212 0.0
H595 H 0.47652 0.98434 0.97069 0.0
C596 C 0.64414 0.56044 0.02477 0.0
C597 C 0.65961 0.52987 0.05267 0.0
C598 C 0.61399 0.50047 0.94143 0.0
C599 C 0.5983 0.53103 0.91276 0.0
N600 N 0.60053 0.59026 0.9215 0.0
N601 N 0.66323 0.4715 0.01037 0.0
C602 C 0.61434 0.56096 0.95222 0.0
C603 C 0.64551 0.50014 0.00297 0.0
N604 N 0.65695 0.58911 0.07333 0.0
N605 N 0.59873 0.4714 0.90954 0.0
H606 H 0.68638 0.47063 0.05178 0.0
H607 H 0.65695 0.44953 0.96503 0.0
H608 H 0.57678 0.47062 0.86055 0.0
H609 H 0.60669 0.44817 0.93627 0.0
H610 H 0.64633 0.61226 0.06412 0.0
H611 H 0.67811 0.58983 0.12696 0.0
H612 H 0.61289 0.61291 0.92487 0.0
H613 H 0.57701 0.59116 0.88454 0.0
C614 C 0.9848 0.63228 0.17246 0.0
C615 C 0.98347 0.66427 0.11877 0.0
C616 C 0.98753 0.63362 0.91797 0.0
C617 C 0.99543 0.60274 0.97399 0.0
N618 N 1.01109 0.57885 0.16666 0.0
N619 N 0.98522 0.69416 0.93128 0.0
C620 C 0.99686 0.60405 0.10443 0.0
C621 C 0.98575 0.66448 0.9888 0.0
N622 N 0.97331 0.62772 0.28784 0.0
N623 N 0.97991 0.63364 0.79793 0.0
H624 H 0.98245 0.71671 0.97792 0.0
H625 H 0.98979 0.69648 0.83846 0.0
H626 H 0.98278 0.61266 0.7436 0.0
H627 H 0.96957 0.65383 0.75447 0.0
H628 H 0.96888 0.60409 0.3217 0.0
H629 H 0.96595 0.64687 0.34638 0.0
H630 H 1.01348 0.57924 0.26087 0.0
H631 H 0.02493 0.5601 0.12529 0.0
C632 C 0.95944 0.22882 0.30858 0.0
C633 C 0.99368 0.22905 0.33687 0.0
C634 C 0.98082 0.21283 0.5434 0.0
C635 C 0.94865 0.20414 0.50497 0.0
N636 N 0.90555 0.20565 0.35539 0.0
N637 N 0.03756 0.22301 0.48267 0.0
C638 C 0.93712 0.21343 0.38958 0.0
C639 C 1.0046 0.22218 0.45566 0.0
N640 N 0.94847 0.2434 0.20516 0.0
N641 N 0.98825 0.21173 0.66374 0.0
H642 H 0.0556 0.23018 0.42008 0.0
H643 H 0.04709 0.2147 0.56451 0.0
H644 H 0.96998 0.2061 0.72739 0.0
H645 H 1.01062 0.22007 0.69997 0.0
H646 H 0.92351 0.24617 0.18478 0.0
H647 H 0.9643 0.25569 0.14556 0.0
H648 H 0.89694 0.20788 0.26678 0.0
H649 H 0.88834 0.19563 0.41575 0.0
C650 C 0.33985 0.95613 0.26331 0.0
C651 C 0.33563 0.98996 0.29689 0.0
C652 C 0.3579 0.97924 0.49746 0.0
C653 C 0.36926 0.94817 0.45318 0.0
N654 N 0.37084 0.90589 0.29552 0.0
N655 N 0.33888 0.03416 0.44667 0.0
C656 C 0.3595 0.93587 0.33748 0.0
C657 C 0.34354 1.00159 0.4153 0.0
N658 N 0.32532 0.94365 0.16015 0.0
N659 N 0.36126 0.98712 0.61781 0.0
H660 H 0.32754 0.05085 0.38884 0.0
H661 H 0.34768 0.04495 0.52708 0.0
H662 H 0.37093 0.97015 0.67844 0.0
H663 H 0.35141 1.00842 0.65848 0.0
H664 H 0.32528 0.91855 0.1363 0.0
H665 H 0.31054 0.958 0.10435 0.0
H666 H 0.36822 0.89761 0.20578 0.0
H667 H 0.38445 0.88993 0.34931 0.0
C668 C 0.55682 0.3463 0.30872 0.0
C669 C 0.57526 0.32912 0.21967 0.0
C670 C 0.60728 0.37929 0.18521 0.0
C671 C 0.57988 0.39753 0.23112 0.0
N672 N 0.52683 0.39743 0.33517 0.0
N673 N 0.62774 0.32625 0.11697 0.0
C674 C 0.55455 0.381 0.2971 0.0
C675 C 0.60462 0.34432 0.17815 0.0
N676 N 0.53757 0.32908 0.38774 0.0
N677 N 0.63429 0.39509 0.13931 0.0
H678 H 0.62559 0.30056 0.10525 0.0
H679 H 0.62559 0.30056 0.10525 0.0
H680 H 0.63681 0.42082 0.14493 0.0
H681 H 0.65423 0.38217 0.10098 0.0
H682 H 0.52245 0.34046 0.45291 0.0
H683 H 0.53911 0.30331 0.39235 0.0
H684 H 0.50573 0.38505 0.3656 0.0
H685 H 0.52428 0.42306 0.32912 0.0
C686 C 0.22662 0.45479 0.53387 0.0
C687 C 0.21161 0.43612 0.43884 0.0
C688 C 0.15819 0.45068 0.52346 0.0
C689 C 0.17331 0.48067 0.5623 0.0
N690 N 0.22013 0.50396 0.66497 0.0
N691 N 0.16526 0.40072 0.39739 0.0
C692 C 0.20704 0.47934 0.59358 0.0
C693 C 0.17805 0.42766 0.45705 0.0
N694 N 0.25888 0.44924 0.56033 0.0
N695 N 0.12597 0.44462 0.55111 0.0
H696 H 0.18063 0.38506 0.34587 0.0
H697 H 0.14019 0.3946 0.39723 0.0
H698 H 0.11243 0.461 0.60606 0.0
H699 H 0.11426 0.42219 0.53068 0.0
H700 H 0.27159 0.46125 0.63083 0.0
H701 H 0.27159 0.46125 0.63083 0.0
H702 H 0.24532 0.50686 0.68143 0.0
H703 H 0.2048 0.52192 0.70525 0.0
C704 C 0.04786 0.84692 0.98537 0.0
C705 C 0.05924 0.83517 0.09797 0.0
C706 C 0.11364 0.85954 0.06461 0.0
C707 C 0.10165 0.87364 0.95635 0.0
N708 N 0.06227 0.87191 0.79341 0.0
N709 N 0.10448 0.82322 0.2323 0.0
C710 C 0.0703 0.8642 0.90977 0.0
C711 C 0.09285 0.83851 0.13141 0.0
N712 N 1.01526 0.8435 0.95498 0.0
N713 N 0.14411 0.86694 0.11021 0.0
H714 H 0.08997 0.80695 0.2829 0.0
H715 H 0.12891 0.82585 0.26154 0.0
H716 H 0.16104 0.88293 0.06948 0.0
H717 H 0.16104 0.88293 0.06948 0.0
H718 H 1.00452 0.85525 0.88152 0.0
H719 H 0.99851 0.83002 0.00729 0.0
H720 H 0.04084 0.86354 0.75042 0.0
H721 H 0.079 0.88394 0.73651 0.0
C722 C 0.73384 0.06831 0.9783 0.0
C723 C 0.74608 0.07886 0.09266 0.0
C724 C 0.71954 0.13245 0.07568 0.0
C725 C 0.70287 0.11996 0.97077 0.0
N726 N 0.7039 0.08332 0.79609 0.0
N727 N 0.76351 0.1242 0.22145 0.0
C728 C 0.71421 0.09059 0.91159 0.0
C729 C 0.74383 0.11241 0.12972 0.0
N730 N 0.73888 0.03643 0.93926 0.0
N731 N 0.70991 0.16142 0.13122 0.0
H732 H 0.781 0.10928 0.26311 0.0
H733 H 0.76483 0.14916 0.24705 0.0
H734 H 0.6929 0.17755 0.09419 0.0
H735 H 0.71797 0.16897 0.21723 0.0
H736 H 0.72761 0.02593 0.8627 0.0
H737 H 0.75398 1.02029 0.98696 0.0
H738 H 0.71222 0.06296 0.74516 0.0
H739 H 0.6889 0.09961 0.74855 0.0
C740 C 0.6225 0.70496 0.08205 0.0
C741 C 0.61518 0.73882 0.09102 0.0
C742 C 0.57671 0.73081 0.9254 0.0
C743 C 0.57077 0.69858 0.97249 0.0
N744 N 0.59169 0.65425 0.1005 0.0
N745 N 0.61061 0.78118 0.94296 0.0
C746 C 0.59581 0.68414 0.04626 0.0
C747 C 0.60112 0.75097 0.98388 0.0
N748 N 0.65048 0.6933 0.13362 0.0
N749 N 0.5579 0.7422 0.83263 0.0
H750 H 0.62876 0.79495 0.98899 0.0
H751 H 0.60205 0.79127 0.86258 0.0
H752 H 0.54084 0.72683 0.7877 0.0
H753 H 0.55935 0.76631 0.80079 0.0
H754 H 0.65657 0.66821 0.13115 0.0
H755 H 0.66797 0.70965 0.17101 0.0
H756 H 0.60787 0.64601 0.16694 0.0
H757 H 0.57105 0.63912 0.08925 0.0
C758 C 0.85264 0.63294 0.03593 0.0
C759 C 0.81952 0.62351 0.05224 0.0
C760 C 0.82242 0.59537 0.85651 0.0
C761 C 0.85562 0.58786 0.88731 0.0
N762 N 0.90599 0.61183 0.97354 0.0
N763 N 0.77266 0.6256 0.91981 0.0
C764 C 0.87249 0.61149 0.96304 0.0
C765 C 0.80404 0.61529 0.94075 0.0
N766 N 0.86477 0.65998 0.09602 0.0
N767 N 0.80821 0.58 0.75864 0.0
H768 H 0.76015 0.64016 0.98472 0.0
H769 H 0.76033 0.62118 0.83809 0.0
H770 H 0.82221 0.56473 0.70052 0.0
H771 H 0.78322 0.58206 0.73753 0.0
H772 H 0.88825 0.66949 0.07766 0.0
H773 H 0.84964 0.67396 0.15464 0.0
H774 H 0.91816 0.62616 0.03947 0.0
H775 H 0.92136 0.59832 0.91557 0.0
C776 C 0.06178 0.1791 0.86765 0.0
C777 C 0.034 0.19217 0.93334 0.0
C778 C 1.00097 0.14391 0.84883 0.0
C779 C 0.02893 0.13021 0.78597 0.0
N780 N 0.08248 0.14329 0.70314 0.0
N781 N 0.97472 0.19098 0.95306 0.0
C782 C 0.05818 0.15056 0.78549 0.0
C783 C 1.00299 0.17539 0.91455 0.0
N784 N 0.09218 0.19297 0.88687 0.0
N785 N 0.97172 0.12715 0.84287 0.0
H786 H 0.97492 0.21518 0.98778 0.0
H787 H 0.95086 0.18231 0.9367 0.0
H788 H 0.96865 0.10634 0.78706 0.0
H789 H 0.95111 0.13276 0.8962 0.0
H790 H 0.11399 0.18304 0.85129 0.0
H791 H 0.09587 0.21312 0.94596 0.0
H792 H 0.10261 0.15882 0.68659 0.0
H793 H 0.08101 0.12271 0.64514 0.0
C794 C 0.39094 1.00531 0.88611 0.0
C795 C 0.37223 0.03504 0.90777 0.0
C796 C 0.41682 0.06478 0.79179 0.0
C797 C 0.43772 0.03609 0.78618 0.0
N798 N 0.43764 0.97659 0.79191 0.0
N799 N 0.36956 0.09395 0.88296 0.0
C800 C 0.42275 1.00575 0.82432 0.0
C801 C 0.38561 0.06485 0.85896 0.0
N802 N 0.37795 0.976 0.92515 0.0
N803 N 0.42633 0.09211 0.72921 0.0
H804 H 0.34713 0.09501 0.93006 0.0
H805 H 0.37936 0.11714 0.86306 0.0
H806 H 0.44961 0.09408 0.68883 0.0
H807 H 0.41085 0.11211 0.7134 0.0
H808 H 0.39157 0.95441 0.93513 0.0
H809 H 0.35313 0.97355 0.95005 0.0
H810 H 0.42681 0.95333 0.80073 0.0
H811 H 0.46067 0.9756 0.74983 0.0
C812 C 0.51968 0.37432 0.79968 0.0
C813 C 0.50194 0.36672 0.90722 0.0
C814 C 0.47906 0.42421 0.90488 0.0
C815 C 0.50074 0.43273 0.80632 0.0
N816 N 0.51743 0.40672 0.61965 0.0
N817 N 0.45655 0.38149 0.0384 0.0
C818 C 0.51462 0.40528 0.7421 0.0
C819 C 0.47907 0.39083 0.95271 0.0
N820 N 0.54094 0.35166 0.74944 0.0
N821 N 0.45775 0.4473 0.95104 0.0
H822 H 0.45711 0.35843 0.07942 0.0
H823 H 0.43528 0.39493 0.05854 0.0
H824 H 0.45091 0.46818 0.90382 0.0
H825 H 0.44499 0.44472 0.03229 0.0
H826 H 0.55699 0.35743 0.67819 0.0
H827 H 0.54338 0.32769 0.78238 0.0
H828 H 0.52568 0.38677 0.5671 0.0
H829 H 0.50677 0.4259 0.57159 0.0
C830 C 0.16779 0.5117 0.01098 0.0
C831 C 0.17711 0.47841 0.03061 0.0
C832 C 0.12286 0.46141 0.93566 0.0
C833 C 0.11393 0.49504 0.9096 0.0
N834 N 0.13925 0.55024 0.88612 0.0
N835 N 0.16621 0.42127 0.98177 0.0
C836 C 0.13964 0.51951 0.93611 0.0
C837 C 0.15534 0.4533 0.98362 0.0
N838 N 0.1853 0.53666 0.06651 0.0
N839 N 0.10062 0.43657 0.91376 0.0
H840 H 0.1895 0.41473 0.01391 0.0
H841 H 0.15405 0.40183 0.93709 0.0
H842 H 0.07746 0.44036 0.87685 0.0
H843 H 0.10428 0.41221 0.93953 0.0
H844 H 0.17717 0.56116 0.06961 0.0
H845 H 0.20628 0.53255 0.11869 0.0
H846 H 0.15929 0.56655 0.8916 0.0
H847 H 0.12187 0.55872 0.82637 0.0
C848 C 0.98384 0.88913 0.53998 0.0
C849 C 1.01256 0.87412 0.48684 0.0
C850 C 0.0448 0.92381 0.56364 0.0
C851 C 1.01576 0.93998 0.60855 0.0
N852 N 0.96124 0.92919 0.68678 0.0
N853 N 0.07266 0.87546 0.48711 0.0
C854 C 0.98652 0.91964 0.61228 0.0
C855 C 0.04338 0.89097 0.51023 0.0
N856 N 0.95352 0.87559 0.51652 0.0
N857 N 0.07496 0.93847 0.58045 0.0
H858 H 0.0746 0.85068 0.45921 0.0
H859 H 0.0746 0.85068 0.45921 0.0
H860 H 0.07794 0.9611 0.6258 0.0
H861 H 0.09704 0.92762 0.55077 0.0
H862 H 0.93144 0.88684 0.54317 0.0
H863 H 0.95037 0.85429 0.46287 0.0
H864 H 0.94075 0.91426 0.70478 0.0
H865 H 0.9626 0.95101 0.73841 0.0
C866 C 0.67029 0.06183 0.43927 0.0
C867 C 0.69223 0.03442 0.45632 0.0
C868 C 0.64833 1.01555 0.60403 0.0
C869 C 0.62397 0.03794 0.55812 0.0
N870 N 0.61367 0.07492 0.39402 0.0
N871 N 0.69662 0.98145 0.55497 0.0
C872 C 0.63565 0.05877 0.46445 0.0
C873 C 0.67977 1.01017 0.53959 0.0
N874 N 0.68241 0.09177 0.40384 0.0
N875 N 0.64223 1.00014 0.7106 0.0
H876 H 0.7169 0.9749 0.50131 0.0
H877 H 0.68812 0.96267 0.61116 0.0
H878 H 0.6207 1.00489 0.75976 0.0
H879 H 0.65976 0.98571 0.75407 0.0
H880 H 0.66722 0.11245 0.39533 0.0
H881 H 0.70777 0.09658 0.398 0.0
H882 H 0.62117 0.08931 0.32071 0.0
H883 H 0.58846 0.06949 0.39862 0.0
C884 C 0.52888 0.67756 0.39027 0.0
C885 C 0.55122 0.70016 0.44758 0.0
C886 C 0.56542 0.65604 0.5924 0.0
C887 C 0.54472 0.63264 0.5291 0.0
N888 N 0.50907 0.62232 0.35541 0.0
N889 N 0.59283 0.71018 0.59856 0.0
C890 C 0.52723 0.6437 0.42548 0.0
C891 C 0.56983 0.68916 0.54827 0.0
N892 N 0.50941 0.68816 0.29805 0.0
N893 N 0.58118 0.64648 0.69495 0.0
H894 H 0.59504 0.73492 0.57338 0.0
H895 H 0.61043 0.7032 0.66173 0.0
H896 H 0.57946 0.62245 0.7258 0.0
H897 H 0.59428 0.66231 0.75298 0.0
H898 H 0.49253 0.67253 0.2537 0.0
H899 H 0.50907 0.71285 0.27136 0.0
H900 H 0.50772 0.59683 0.36921 0.0
H901 H 0.50772 0.59683 0.36921 0.0
C902 C 0.89043 0.5309 0.35474 0.0
C903 C 0.86725 0.55581 0.39093 0.0
C904 C 0.90853 0.57516 0.54672 0.0
C905 C 0.93218 0.55071 0.50815 0.0
N906 N 0.94422 0.50623 0.36357 0.0
N907 N 0.85616 0.60397 0.51604 0.0
C908 C 0.9226 0.52897 0.40998 0.0
C909 C 0.87707 0.57856 0.48542 0.0
N910 N 0.88229 0.50905 0.26347 0.0
N911 N 0.91542 0.59426 0.64687 0.0
H912 H 0.83215 0.6055 0.4823 0.0
H913 H 0.86269 0.62424 0.57068 0.0
H914 H 0.93676 0.59096 0.69667 0.0
H915 H 0.89912 0.61093 0.68791 0.0
H916 H 0.89843 0.49067 0.23168 0.0
H917 H 0.85914 0.50898 0.22208 0.0
H918 H 0.96858 0.50386 0.39306 0.0
H919 H 0.96858 0.50386 0.39306 0.0
loop_
_geom_bond_atom_site_label_1
_geom_bond_atom_site_label_2
_geom_bond_distance
_geom_bond_site_symmetry_2
_ccdc_geom_bond_type
H0 C1 0.949 . S
C1 H0 0.949 . S
C1 C2 1.395 . S
C1 C3 1.391 . S
C2 C1 1.395 . S
C2 C5 1.390 . S
C3 C1 1.391 . S
C3 C7 1.387 . S
C3 C8 1.491 . S
H4 C5 0.950 . S
C5 C2 1.390 . S
C5 H4 0.950 . S
C5 C6 1.378 . S
C6 C5 1.378 . S
C6 C7 1.409 . S
C7 C3 1.387 . S
C7 C6 1.409 . S
C7 H9 0.951 . S
C8 C3 1.491 . S
C8 C10 1.382 . S
C8 C12 1.404 . S
H9 C7 0.951 . S
C10 C8 1.382 . S
C10 C11 1.390 . S
C10 H15 0.949 . S
C11 C10 1.390 . S
C11 C16 1.399 . S
C12 C8 1.404 . S
C12 H13 0.950 . S
C12 C14 1.375 . S
H13 C12 0.950 . S
C14 C12 1.375 . S
C14 C16 1.382 . S
C14 H18 0.950 . S
H15 C10 0.949 . S
C16 C11 1.399 . S
C16 C14 1.382 . S
C16 H17 0.952 . S
H17 C16 0.952 . S
H18 C14 0.950 . S
H19 C20 0.949 . S
C20 H19 0.949 . S
C20 C21 1.395 . S
C20 C22 1.391 . S
C21 C20 1.395 . S
C21 C24 1.390 . S
C22 C20 1.391 . S
C22 C26 1.387 . S
C22 C27 1.491 . S
H23 C24 0.950 . S
C24 C21 1.390 . S
C24 H23 0.950 . S
C24 C25 1.378 . S
C25 C24 1.378 . S
C25 C26 1.409 . S
C26 C22 1.387 . S
C26 C25 1.409 . S
C26 H28 0.951 . S
C27 C22 1.491 . S
C27 C29 1.382 . S
C27 C31 1.404 . S
H28 C26 0.951 . S
C29 C27 1.382 . S
C29 C30 1.390 . S
C29 H34 0.949 . S
C30 C29 1.390 . S
C30 C35 1.399 . S
C31 C27 1.404 . S
C31 H32 0.950 . S
C31 C33 1.375 . S
H32 C31 0.950 . S
C33 C31 1.375 . S
C33 C35 1.382 . S
C33 H37 0.950 . S
H34 C29 0.949 . S
C35 C30 1.399 . S
C35 C33 1.382 . S
C35 H36 0.952 . S
H36 C35 0.952 . S
H37 C33 0.950 . S
H38 C39 0.949 . S
C39 H38 0.949 . S
C39 C40 1.395 . S
C39 C41 1.391 . S
C40 C39 1.395 . S
C40 C43 1.390 . S
C41 C39 1.391 . S
C41 C45 1.387 . S
C41 C46 1.491 . S
H42 C43 0.950 . S
C43 C40 1.390 . S
C43 H42 0.950 . S
C43 C44 1.378 . S
C44 C43 1.378 . S
C44 C45 1.409 . S
C45 C41 1.387 . S
C45 C44 1.409 . S
C45 H47 0.951 . S
C46 C41 1.491 . S
C46 C48 1.382 . S
C46 C50 1.404 . S
H47 C45 0.951 . S
C48 C46 1.382 . S
C48 C49 1.390 . S
C48 H53 0.949 . S
C49 C48 1.390 . S
C49 C54 1.399 . S
C50 C46 1.404 . S
C50 H51 0.950 . S
C50 C52 1.375 . S
H51 C50 0.950 . S
C52 C50 1.375 . S
C52 C54 1.382 . S
C52 H56 0.950 . S
H53 C48 0.949 . S
C54 C49 1.399 . S
C54 C52 1.382 . S
C54 H55 0.952 . S
H55 C54 0.952 . S
H56 C52 0.950 . S
H57 C58 0.949 . S
C58 H57 0.949 . S
C58 C59 1.395 . S
C58 C60 1.391 . S
C59 C58 1.395 . S
C59 C62 1.390 . S
C60 C58 1.391 . S
C60 C64 1.387 . S
C60 C65 1.491 . S
H61 C62 0.950 . S
C62 C59 1.390 . S
C62 H61 0.950 . S
C62 C63 1.378 . S
C63 C62 1.378 . S
C63 C64 1.409 . S
C64 C60 1.387 . S
C64 C63 1.409 . S
C64 H66 0.951 . S
C65 C60 1.491 . S
C65 C67 1.382 . S
C65 C69 1.404 . S
H66 C64 0.951 . S
C67 C65 1.382 . S
C67 C68 1.390 . S
C67 H72 0.949 . S
C68 C67 1.390 . S
C68 C73 1.399 . S
C69 C65 1.404 . S
C69 H70 0.950 . S
C69 C71 1.375 . S
H70 C69 0.950 . S
C71 C69 1.375 . S
C71 C73 1.382 . S
C71 H75 0.950 . S
H72 C67 0.949 . S
C73 C68 1.399 . S
C73 C71 1.382 . S
C73 H74 0.952 . S
H74 C73 0.952 . S
H75 C71 0.950 . S
H76 C77 0.949 . S
C77 H76 0.949 . S
C77 C78 1.395 . S
C77 C79 1.391 1_554 S
C78 C77 1.395 . S
C78 C81 1.390 1_554 S
C79 C77 1.391 1_556 S
C79 C83 1.387 . S
C79 C84 1.491 . S
H80 C81 0.950 . S
C81 C78 1.390 1_556 S
C81 H80 0.950 . S
C81 C82 1.378 . S
C82 C81 1.378 . S
C82 C83 1.409 . S
C83 C79 1.387 . S
C83 C82 1.409 . S
C83 H85 0.951 . S
C84 C79 1.491 . S
C84 C86 1.382 1_556 S
C84 C88 1.404 . S
H85 C83 0.951 . S
C86 C84 1.382 1_554 S
C86 C87 1.390 . S
C86 H91 0.949 . S
C87 C86 1.390 . S
C87 C92 1.399 1_554 S
C88 C84 1.404 . S
C88 H89 0.950 . S
C88 C90 1.375 . S
H89 C88 0.950 . S
C90 C88 1.375 . S
C90 C92 1.382 . S
C90 H94 0.950 . S
H91 C86 0.949 . S
C92 C87 1.399 1_556 S
C92 C90 1.382 . S
C92 H93 0.952 . S
H93 C92 0.952 . S
H94 C90 0.950 . S
H95 C96 0.949 . S
C96 H95 0.949 . S
C96 C97 1.395 . S
C96 C98 1.391 1_554 S
C97 C96 1.395 . S
C97 C100 1.390 1_554 S
C98 C96 1.391 1_556 S
C98 C102 1.387 . S
C98 C103 1.491 . S
H99 C100 0.950 . S
C100 C97 1.390 1_556 S
C100 H99 0.950 . S
C100 C101 1.378 . S
C101 C100 1.378 . S
C101 C102 1.409 . S
C102 C98 1.387 . S
C102 C101 1.409 . S
C102 H104 0.951 . S
C103 C98 1.491 . S
C103 C105 1.382 1_556 S
C103 C107 1.404 . S
H104 C102 0.951 . S
C105 C103 1.382 1_554 S
C105 C106 1.390 . S
C105 H110 0.949 . S
C106 C105 1.390 . S
C106 C111 1.399 1_554 S
C107 C103 1.404 . S
C107 H108 0.950 . S
C107 C109 1.375 . S
H108 C107 0.950 . S
C109 C107 1.375 . S
C109 C111 1.382 . S
C109 H113 0.950 1_455 S
H110 C105 0.949 . S
C111 C106 1.399 1_556 S
C111 C109 1.382 . S
C111 H112 0.952 . S
H112 C111 0.952 . S
H113 C109 0.950 1_655 S
H114 C115 0.949 . S
C115 H114 0.949 . S
C115 C116 1.395 . S
C115 C117 1.391 1_554 S
C116 C115 1.395 . S
C116 C119 1.390 1_554 S
C117 C115 1.391 1_556 S
C117 C121 1.387 . S
C117 C122 1.491 . S
H118 C119 0.950 . S
C119 C116 1.390 1_556 S
C119 H118 0.950 . S
C119 C120 1.378 . S
C120 C119 1.378 . S
C120 C121 1.409 . S
C121 C117 1.387 . S
C121 C120 1.409 . S
C121 H123 0.951 . S
C122 C117 1.491 . S
C122 C124 1.382 1_556 S
C122 C126 1.404 . S
H123 C121 0.951 . S
C124 C122 1.382 1_554 S
C124 C125 1.390 . S
C124 H129 0.949 . S
C125 C124 1.390 . S
C125 C130 1.399 1_554 S
C126 C122 1.404 . S
C126 H127 0.950 . S
C126 C128 1.375 . S
H127 C126 0.950 . S
C128 C126 1.375 . S
C128 C130 1.382 . S
C128 H132 0.950 1_545 S
H129 C124 0.949 . S
C130 C125 1.399 1_556 S
C130 C128 1.382 . S
C130 H131 0.952 . S
H131 C130 0.952 . S
H132 C128 0.950 1_565 S
H133 C134 0.949 . S
C134 H133 0.949 . S
C134 C135 1.395 . S
C134 C136 1.391 1_554 S
C135 C134 1.395 . S
C135 C138 1.390 1_554 S
C136 C134 1.391 1_556 S
C136 C140 1.387 . S
C136 C141 1.491 . S
H137 C138 0.950 . S
C138 C135 1.390 1_556 S
C138 H137 0.950 . S
C138 C139 1.378 . S
C139 C138 1.378 . S
C139 C140 1.409 . S
C140 C136 1.387 . S
C140 C139 1.409 . S
C140 H142 0.951 . S
C141 C136 1.491 . S
C141 C143 1.382 1_556 S
C141 C145 1.404 . S
H142 C140 0.951 . S
C143 C141 1.382 1_554 S
C143 C144 1.390 . S
C143 H148 0.949 . S
C144 C143 1.390 . S
C144 C149 1.399 1_554 S
C145 C141 1.404 . S
C145 H146 0.950 . S
C145 C147 1.375 . S
H146 C145 0.950 . S
C147 C145 1.375 . S
C147 C149 1.382 . S
C147 H151 0.950 . S
H148 C143 0.949 . S
C149 C144 1.399 1_556 S
C149 C147 1.382 . S
C149 H150 0.952 . S
H150 C149 0.952 . S
H151 C147 0.950 . S
Gd152 N183 2.661 1_545 S
Gd152 N189 2.601 . S
Gd152 O196 2.545 . S
Gd152 O197 2.606 1_655 S
Gd152 O199 2.429 . S
Gd152 O200 2.545 1_655 S
Gd152 O201 2.412 . S
Gd152 O203 2.362 1_545 S
Gd152 O204 2.324 1_655 S
Gd152 C211 2.828 . S
Gd153 N162 2.661 1_566 S
Gd153 N166 2.601 1_565 S
Gd153 O197 2.362 1_565 S
Gd153 O198 2.324 1_455 S
Gd153 O202 2.545 . S
Gd153 O203 2.606 1_455 S
Gd153 O205 2.429 . S
Gd153 O206 2.545 . S
Gd153 O207 2.405 1_556 S
Gd153 C220 2.828 . S
C154 C157 1.417 . S
C154 C159 1.431 . S
C154 C160 1.412 . S
C155 C158 1.437 . S
C155 C159 1.317 . S
C155 H174 0.929 . S
C156 C157 1.426 . S
C156 C158 1.413 . S
C156 N166 1.359 1_554 S
C157 C154 1.417 . S
C157 C156 1.426 . S
C157 N162 1.350 . S
C158 C155 1.437 . S
C158 C156 1.413 . S
C158 C168 1.391 . S
C159 C154 1.431 . S
C159 C155 1.317 . S
C159 H170 0.930 . S
C160 C154 1.412 . S
C160 C161 1.355 . S
C160 H172 0.930 . S
C161 C160 1.355 . S
C161 C163 1.402 . S
C161 H173 0.930 1_455 S
N162 Gd153 2.661 1_544 S
N162 C157 1.350 . S
N162 C163 1.307 . S
C163 C161 1.402 . S
C163 N162 1.307 . S
C163 H164 0.930 1_455 S
H164 C163 0.930 1_655 S
C165 N166 1.334 1_565 S
C165 C167 1.394 . S
C165 H169 0.930 . S
N166 Gd153 2.601 1_545 S
N166 C156 1.359 1_556 S
N166 C165 1.334 1_545 S
C167 C165 1.394 . S
C167 C168 1.359 1_566 S
C167 H179 0.930 . S
C168 C158 1.391 . S
C168 C167 1.359 1_544 S
C168 H180 0.929 . S
H169 C165 0.930 . S
H170 C159 0.930 . S
H171 C188 0.930 . S
H172 C160 0.930 . S
H173 C161 0.930 1_655 S
H174 C155 0.929 . S
H175 C193 0.930 . S
H176 C184 0.930 . S
H177 C185 0.930 . S
H178 C209 0.929 . S
H179 C167 0.930 . S
H180 C168 0.929 . S
H181 C210 0.930 . S
H182 C191 0.930 . S
N183 Gd152 2.661 1_565 S
N183 C187 1.350 . S
N183 C188 1.307 1_655 S
C184 H176 0.930 . S
C184 C185 1.355 1_655 S
C184 C186 1.412 . S
C185 H177 0.930 . S
C185 C184 1.355 1_455 S
C185 C188 1.402 . S
C186 C184 1.412 . S
C186 C187 1.417 . S
C186 C210 1.431 . S
C187 N183 1.350 . S
C187 C186 1.417 . S
C187 C190 1.424 1_565 S
C188 H171 0.930 . S
C188 N183 1.307 1_455 S
C188 C185 1.402 . S
N189 Gd152 2.601 . S
N189 C190 1.364 . S
N189 C193 1.334 . S
C190 C187 1.424 1_545 S
C190 N189 1.364 . S
C190 C194 1.412 1_545 S
C191 H182 0.930 . S
C191 C192 1.359 . S
C191 C193 1.394 . S
C192 C191 1.359 . S
C192 C194 1.391 1_545 S
C192 H195 0.929 . S
C193 H175 0.930 . S
C193 N189 1.334 . S
C193 C191 1.394 . S
C194 C190 1.412 1_565 S
C194 C192 1.391 1_565 S
C194 C209 1.437 . S
H195 C192 0.929 . S
O196 Gd152 2.545 . S
O196 C211 1.258 . S
O197 Gd152 2.606 1_455 S
O197 Gd153 2.362 1_545 S
O197 C208 1.284 . S
O198 Gd153 2.324 1_655 S
O198 C218 1.254 1_565 S
O199 Gd152 2.429 . S
O199 C218 1.268 . S
O200 Gd152 2.545 1_455 S
O200 C208 1.250 . S
O201 Gd152 2.412 . S
O201 C211 1.252 . S
O202 Gd153 2.545 . S
O202 C220 1.258 . S
O203 Gd152 2.362 1_565 S
O203 Gd153 2.606 1_655 S
O203 C219 1.284 . S
O204 Gd152 2.324 1_455 S
O204 C227 1.254 . S
O205 Gd153 2.429 . S
O205 C227 1.268 1_565 S
O206 Gd153 2.545 . S
O206 C219 1.250 1_455 S
O207 Gd153 2.405 1_554 S
O207 C220 1.250 1_554 S
C208 O197 1.284 . S
C208 O200 1.250 . S
C209 H178 0.929 . S
C209 C194 1.437 . S
C209 C210 1.317 . S
C210 H181 0.930 . S
C210 C186 1.431 . S
C210 C209 1.317 . S
C211 Gd152 2.828 . S
C211 O196 1.258 . S
C211 O201 1.252 . S
C211 C212 1.497 . S
C212 C211 1.497 . S
C212 C213 1.395 . S
C212 C214 1.380 . S
C213 C212 1.395 . S
C213 C216 1.398 . S
C213 H228 0.930 . S
C214 C212 1.380 . S
C214 C215 1.391 . S
C214 H229 0.930 1_655 S
C215 C214 1.391 . S
C215 C217 1.387 . S
C216 C213 1.398 . S
C216 C217 1.380 . S
C216 H230 0.930 . S
C217 C215 1.387 . S
C217 C216 1.380 . S
C217 H231 0.930 . S
C218 O198 1.254 1_545 S
C218 O199 1.268 . S
C219 O203 1.284 . S
C219 O206 1.250 1_655 S
C220 Gd153 2.828 . S
C220 O202 1.258 . S
C220 O207 1.250 1_556 S
C220 C221 1.497 1_556 S
C221 C220 1.497 1_554 S
C221 C222 1.395 . S
C221 C223 1.380 . S
C222 C221 1.395 . S
C222 C225 1.398 . S
C222 H232 0.930 . S
C223 C221 1.380 . S
C223 C224 1.391 . S
C223 H233 0.930 . S
C224 C223 1.391 . S
C224 C226 1.387 . S
C225 C222 1.398 . S
C225 C226 1.380 . S
C225 H234 0.930 . S
C226 C224 1.387 . S
C226 C225 1.380 . S
C226 H235 0.930 . S
C227 O204 1.254 . S
C227 O205 1.268 1_545 S
H228 C213 0.930 . S
H229 C214 0.930 1_455 S
H230 C216 0.930 . S
H231 C217 0.930 . S
H232 C222 0.930 . S
H233 C223 0.930 . S
H234 C225 0.930 . S
H235 C226 0.930 . S
Gd236 N267 2.661 . S
Gd236 N273 2.601 . S
Gd236 O280 2.545 . S
Gd236 O281 2.606 1_565 S
Gd236 O283 2.429 . S
Gd236 O284 2.545 1_565 S
Gd236 O285 2.412 . S
Gd236 O287 2.362 . S
Gd236 O288 2.324 1_565 S
Gd236 C295 2.828 . S
Gd237 N246 2.661 1_556 S
Gd237 N250 2.601 . S
Gd237 O281 2.362 . S
Gd237 O282 2.324 1_545 S
Gd237 O286 2.545 . S
Gd237 O287 2.606 1_545 S
Gd237 O289 2.429 . S
Gd237 O290 2.545 . S
Gd237 O291 2.412 1_556 S
Gd237 C304 2.828 . S
C238 C241 1.417 . S
C238 C243 1.431 . S
C238 C244 1.412 . S
C239 C242 1.437 . S
C239 C243 1.317 . S
C239 H258 0.929 . S
C240 C241 1.426 . S
C240 C242 1.413 . S
C240 N250 1.359 1_554 S
C241 C238 1.417 . S
C241 C240 1.426 . S
C241 N246 1.350 . S
C242 C239 1.437 . S
C242 C240 1.413 . S
C242 C252 1.391 . S
C243 C238 1.431 . S
C243 C239 1.317 . S
C243 H254 0.930 . S
C244 C238 1.412 . S
C244 C245 1.355 . S
C244 H256 0.930 . S
C245 C244 1.355 . S
C245 C247 1.402 . S
C245 H257 0.930 1_545 S
N246 Gd237 2.661 1_554 S
N246 C241 1.350 . S
N246 C247 1.307 . S
C247 C245 1.402 . S
C247 N246 1.307 . S
C247 H248 0.930 1_545 S
H248 C247 0.930 1_565 S
C249 N250 1.334 . S
C249 C251 1.394 . S
C249 H253 0.930 . S
N250 Gd237 2.601 . S
N250 C240 1.359 1_556 S
N250 C249 1.334 . S
C251 C249 1.394 . S
C251 C252 1.359 1_556 S
C251 H263 0.930 . S
C252 C242 1.391 . S
C252 C251 1.359 1_554 S
C252 H264 0.929 . S
H253 C249 0.930 . S
H254 C243 0.930 . S
H255 C272 0.930 . S
H256 C244 0.930 . S
H257 C245 0.930 1_565 S
H258 C239 0.929 . S
H259 C277 0.930 . S
H260 C268 0.930 . S
H261 C269 0.930 . S
H262 C293 0.929 . S
H263 C251 0.930 . S
H264 C252 0.929 . S
H265 C294 0.930 . S
H266 C275 0.930 . S
N267 Gd236 2.661 . S
N267 C271 1.350 . S
N267 C272 1.307 1_565 S
C268 H260 0.930 . S
C268 C269 1.355 1_565 S
C268 C270 1.412 . S
C269 H261 0.930 . S
C269 C268 1.355 1_545 S
C269 C272 1.402 . S
C270 C268 1.412 . S
C270 C271 1.417 . S
C270 C294 1.431 . S
C271 N267 1.350 . S
C271 C270 1.417 . S
C271 C274 1.426 . S
C272 H255 0.930 . S
C272 N267 1.307 1_545 S
C272 C269 1.402 . S
N273 Gd236 2.601 . S
N273 C274 1.359 . S
N273 C277 1.334 . S
C274 C271 1.426 . S
C274 N273 1.359 . S
C274 C278 1.413 . S
C275 H266 0.930 . S
C275 C276 1.359 . S
C275 C277 1.394 . S
C276 C275 1.359 . S
C276 C278 1.391 . S
C276 H279 0.929 . S
C277 H259 0.930 . S
C277 N273 1.334 . S
C277 C275 1.394 . S
C278 C274 1.413 . S
C278 C276 1.391 . S
C278 C293 1.437 . S
H279 C276 0.929 . S
O280 Gd236 2.545 . S
O280 C295 1.258 . S
O281 Gd236 2.606 1_545 S
O281 Gd237 2.362 . S
O281 C292 1.284 . S
O282 Gd237 2.324 1_565 S
O282 C302 1.254 . S
O283 Gd236 2.429 . S
O283 C302 1.268 . S
O284 Gd236 2.545 1_545 S
O284 C292 1.250 . S
O285 Gd236 2.412 . S
O285 C295 1.252 . S
O286 Gd237 2.545 . S
O286 C304 1.258 . S
O287 Gd236 2.362 . S
O287 Gd237 2.606 1_565 S
O287 C303 1.284 . S
O288 Gd236 2.324 1_545 S
O288 C311 1.254 . S
O289 Gd237 2.429 . S
O289 C311 1.268 . S
O290 Gd237 2.545 . S
O290 C303 1.251 1_545 S
O291 Gd237 2.412 1_554 S
O291 C304 1.252 1_554 S
C292 O281 1.284 . S
C292 O284 1.250 . S
C293 H262 0.929 . S
C293 C278 1.437 . S
C293 C294 1.317 . S
C294 H265 0.930 . S
C294 C270 1.431 . S
C294 C293 1.317 . S
C295 Gd236 2.828 . S
C295 O280 1.258 . S
C295 O285 1.252 . S
C295 C296 1.497 . S
C296 C295 1.497 . S
C296 C297 1.395 . S
C296 C298 1.380 . S
C297 C296 1.395 . S
C297 C300 1.398 . S
C297 H312 0.930 . S
C298 C296 1.380 . S
C298 C299 1.391 . S
C298 H313 0.930 1_565 S
C299 C298 1.391 . S
C299 C301 1.387 . S
C300 C297 1.398 . S
C300 C301 1.380 . S
C300 H314 0.930 . S
C301 C299 1.387 . S
C301 C300 1.380 . S
C301 H315 0.930 . S
C302 O282 1.254 . S
C302 O283 1.268 . S
C303 O287 1.284 . S
C303 O290 1.251 1_565 S
C304 Gd237 2.828 . S
C304 O286 1.258 . S
C304 O291 1.252 1_556 S
C304 C305 1.497 1_556 S
C305 C304 1.497 1_554 S
C305 C306 1.395 . S
C305 C307 1.380 . S
C306 C305 1.395 . S
C306 C309 1.398 . S
C306 H316 0.930 . S
C307 C305 1.380 . S
C307 C308 1.391 . S
C307 H317 0.930 . S
C308 C307 1.391 . S
C308 C310 1.387 . S
C309 C306 1.398 . S
C309 C310 1.380 . S
C309 H318 0.930 . S
C310 C308 1.387 . S
C310 C309 1.380 . S
C310 H319 0.930 . S
C311 O288 1.254 . S
C311 O289 1.268 . S
H312 C297 0.930 . S
H313 C298 0.930 1_545 S
H314 C300 0.930 . S
H315 C301 0.930 . S
H316 C306 0.930 . S
H317 C307 0.930 . S
H318 C309 0.930 . S
H319 C310 0.930 . S
Gd320 N351 2.661 . S
Gd320 N357 2.601 . S
Gd320 O364 2.545 1_556 S
Gd320 O365 2.606 . S
Gd320 O367 2.429 . S
Gd320 O368 2.545 . S
Gd320 O369 2.412 . S
Gd320 O371 2.362 . S
Gd320 O372 2.324 . S
Gd320 C379 2.828 1_556 S
Gd321 N330 2.661 . S
Gd321 N334 2.601 . S
Gd321 O365 2.362 . S
Gd321 O366 2.324 . S
Gd321 O370 2.545 . S
Gd321 O371 2.606 . S
Gd321 O373 2.429 . S
Gd321 O374 2.545 . S
Gd321 O375 2.412 . S
Gd321 C388 2.828 . S
C322 C325 1.417 . S
C322 C327 1.431 . S
C322 C328 1.412 . S
C323 C326 1.437 . S
C323 C327 1.317 . S
C323 H342 0.929 . S
C324 C325 1.426 . S
C324 C326 1.413 . S
C324 N334 1.359 . S
C325 C322 1.417 . S
C325 C324 1.426 . S
C325 N330 1.350 . S
C326 C323 1.437 . S
C326 C324 1.413 . S
C326 C336 1.391 . S
C327 C322 1.431 . S
C327 C323 1.317 . S
C327 H338 0.930 . S
C328 C322 1.412 . S
C328 C329 1.355 . S
C328 H340 0.930 . S
C329 C328 1.355 . S
C329 C331 1.402 . S
C329 H341 0.930 . S
N330 Gd321 2.661 . S
N330 C325 1.350 . S
N330 C331 1.307 . S
C331 C329 1.402 . S
C331 N330 1.307 . S
C331 H332 0.930 . S
H332 C331 0.930 . S
C333 N334 1.334 . S
C333 C335 1.394 . S
C333 H337 0.930 . S
N334 Gd321 2.601 . S
N334 C324 1.359 . S
N334 C333 1.334 . S
C335 C333 1.394 . S
C335 C336 1.359 . S
C335 H347 0.930 . S
C336 C326 1.391 . S
C336 C335 1.359 . S
C336 H348 0.929 . S
H337 C333 0.930 . S
H338 C327 0.930 . S
H339 C356 0.930 . S
H340 C328 0.930 . S
H341 C329 0.930 . S
H342 C323 0.929 . S
H343 C361 0.930 . S
H344 C352 0.930 . S
H345 C353 0.930 . S
H346 C377 0.929 . S
H347 C335 0.930 . S
H348 C336 0.929 . S
H349 C378 0.930 . S
H350 C359 0.930 . S
N351 Gd320 2.661 . S
N351 C355 1.350 . S
N351 C356 1.307 . S
C352 H344 0.930 . S
C352 C353 1.355 . S
C352 C354 1.412 . S
C353 H345 0.930 . S
C353 C352 1.355 . S
C353 C356 1.402 . S
C354 C352 1.412 . S
C354 C355 1.417 . S
C354 C378 1.431 . S
C355 N351 1.350 . S
C355 C354 1.417 . S
C355 C358 1.426 . S
C356 H339 0.930 . S
C356 N351 1.307 . S
C356 C353 1.402 . S
N357 Gd320 2.601 . S
N357 C358 1.359 . S
N357 C361 1.334 1_556 S
C358 C355 1.426 . S
C358 N357 1.359 . S
C358 C362 1.413 . S
C359 H350 0.930 . S
C359 C360 1.359 . S
C359 C361 1.394 . S
C360 C359 1.359 . S
C360 C362 1.391 1_554 S
C360 H363 0.929 . S
C361 H343 0.930 . S
C361 N357 1.334 1_554 S
C361 C359 1.394 . S
C362 C358 1.413 . S
C362 C360 1.391 1_556 S
C362 C377 1.437 . S
H363 C360 0.929 . S
O364 Gd320 2.545 1_554 S
O364 C379 1.258 . S
O365 Gd320 2.606 . S
O365 Gd321 2.362 . S
O365 C376 1.284 . S
O366 Gd321 2.324 . S
O366 C386 1.254 . S
O367 Gd320 2.429 . S
O367 C386 1.268 . S
O368 Gd320 2.545 . S
O368 C376 1.250 . S
O369 Gd320 2.412 . S
O369 C379 1.252 1_556 S
O370 Gd321 2.545 . S
O370 C388 1.258 . S
O371 Gd320 2.362 . S
O371 Gd321 2.606 . S
O371 C387 1.284 . S
O372 Gd320 2.324 . S
O372 C395 1.254 . S
O373 Gd321 2.429 . S
O373 C395 1.268 . S
O374 Gd321 2.545 . S
O374 C387 1.250 . S
O375 Gd321 2.412 . S
O375 C388 1.252 . S
C376 O365 1.284 . S
C376 O368 1.250 . S
C377 H346 0.929 . S
C377 C362 1.437 . S
C377 C378 1.317 . S
C378 H349 0.930 . S
C378 C354 1.431 . S
C378 C377 1.317 . S
C379 Gd320 2.828 1_554 S
C379 O364 1.258 . S
C379 O369 1.252 1_554 S
C379 C380 1.497 . S
C380 C379 1.497 . S
C380 C381 1.395 . S
C380 C382 1.380 . S
C381 C380 1.395 . S
C381 C384 1.398 . S
C381 H396 0.930 . S
C382 C380 1.380 . S
C382 C383 1.391 . S
C382 H397 0.930 . S
C383 C382 1.391 . S
C383 C385 1.387 . S
C384 C381 1.398 . S
C384 C385 1.380 . S
C384 H398 0.930 . S
C385 C383 1.387 . S
C385 C384 1.380 . S
C385 H399 0.930 . S
C386 O366 1.254 . S
C386 O367 1.268 . S
C387 O371 1.284 . S
C387 O374 1.250 . S
C388 Gd321 2.828 . S
C388 O370 1.258 . S
C388 O375 1.252 . S
C388 C389 1.497 . S
C389 C388 1.497 . S
C389 C390 1.395 . S
C389 C391 1.380 . S
C390 C389 1.395 . S
C390 C393 1.398 . S
C390 H400 0.930 . S
C391 C389 1.380 . S
C391 C392 1.391 . S
C391 H401 0.930 . S
C392 C391 1.391 . S
C392 C394 1.387 . S
C393 C390 1.398 . S
C393 C394 1.380 . S
C393 H402 0.930 1_554 S
C394 C392 1.387 . S
C394 C393 1.380 . S
C394 H403 0.930 . S
C395 O372 1.254 . S
C395 O373 1.268 . S
H396 C381 0.930 . S
H397 C382 0.930 . S
H398 C384 0.930 . S
H399 C385 0.930 . S
H400 C390 0.930 . S
H401 C391 0.930 . S
H402 C393 0.930 1_556 S
H403 C394 0.930 . S
Gd404 N435 2.661 . S
Gd404 N441 2.602 1_655 S
Gd404 O448 2.545 1_556 S
Gd404 O449 2.606 1_655 S
Gd404 O451 2.429 1_655 S
Gd404 O452 2.545 . S
Gd404 O453 2.412 . S
Gd404 O455 2.362 1_655 S
Gd404 O456 2.324 . S
Gd404 C463 2.828 1_556 S
Gd405 N414 2.661 . S
Gd405 N418 2.601 . S
Gd405 O449 2.362 . S
Gd405 O450 2.324 . S
Gd405 O454 2.545 . S
Gd405 O455 2.606 . S
Gd405 O457 2.429 1_455 S
Gd405 O458 2.545 . S
Gd405 O459 2.412 . S
Gd405 C472 2.828 . S
C406 C409 1.417 . S
C406 C411 1.431 . S
C406 C412 1.412 . S
C407 C410 1.437 . S
C407 C411 1.317 . S
C407 H426 0.929 . S
C408 C409 1.426 . S
C408 C410 1.413 . S
C408 N418 1.359 . S
C409 C406 1.417 . S
C409 C408 1.426 . S
C409 N414 1.350 . S
C410 C407 1.437 . S
C410 C408 1.413 . S
C410 C420 1.391 . S
C411 C406 1.431 . S
C411 C407 1.317 . S
C411 H422 0.930 . S
C412 C406 1.412 . S
C412 C413 1.355 . S
C412 H424 0.930 . S
C413 C412 1.355 . S
C413 C415 1.402 . S
C413 H425 0.930 . S
N414 Gd405 2.661 . S
N414 C409 1.350 . S
N414 C415 1.307 . S
C415 C413 1.402 . S
C415 N414 1.307 . S
C415 H416 0.930 . S
H416 C415 0.930 . S
C417 N418 1.334 1_655 S
C417 C419 1.394 . S
C417 H421 0.930 . S
N418 Gd405 2.601 . S
N418 C408 1.359 . S
N418 C417 1.334 1_455 S
C419 C417 1.394 . S
C419 C420 1.359 1_655 S
C419 H431 0.930 . S
C420 C410 1.391 . S
C420 C419 1.359 1_455 S
C420 H432 0.929 . S
H421 C417 0.930 . S
H422 C411 0.930 . S
H423 C440 0.930 . S
H424 C412 0.930 . S
H425 C413 0.930 . S
H426 C407 0.929 . S
H427 C445 0.930 . S
H428 C436 0.930 . S
H429 C437 0.930 . S
H430 C461 0.929 . S
H431 C419 0.930 . S
H432 C420 0.929 . S
H433 C462 0.930 . S
H434 C443 0.930 . S
N435 Gd404 2.661 . S
N435 C439 1.350 . S
N435 C440 1.307 . S
C436 H428 0.930 . S
C436 C437 1.355 . S
C436 C438 1.412 . S
C437 H429 0.930 . S
C437 C436 1.355 . S
C437 C440 1.402 . S
C438 C436 1.412 . S
C438 C439 1.417 . S
C438 C462 1.431 . S
C439 N435 1.350 . S
C439 C438 1.417 . S
C439 C442 1.426 . S
C440 H423 0.930 . S
C440 N435 1.307 . S
C440 C437 1.402 . S
N441 Gd404 2.602 1_455 S
N441 C442 1.361 1_455 S
N441 C445 1.333 1_556 S
C442 C439 1.426 . S
C442 N441 1.361 1_655 S
C442 C446 1.413 . S
C443 H434 0.930 . S
C443 C444 1.359 . S
C443 C445 1.394 . S
C444 C443 1.359 . S
C444 C446 1.391 1_454 S
C444 H447 0.929 . S
C445 H427 0.930 . S
C445 N441 1.333 1_554 S
C445 C443 1.394 . S
C446 C442 1.413 . S
C446 C444 1.391 1_656 S
C446 C461 1.437 . S
H447 C444 0.929 . S
O448 Gd404 2.545 1_554 S
O448 C463 1.258 . S
O449 Gd404 2.606 1_455 S
O449 Gd405 2.362 . S
O449 C460 1.284 1_455 S
O450 Gd405 2.324 . S
O450 C470 1.254 . S
O451 Gd404 2.429 1_455 S
O451 C470 1.268 . S
O452 Gd404 2.545 . S
O452 C460 1.250 . S
O453 Gd404 2.412 . S
O453 C463 1.252 1_556 S
O454 Gd405 2.545 . S
O454 C472 1.258 . S
O455 Gd404 2.362 1_455 S
O455 Gd405 2.606 . S
O455 C471 1.284 . S
O456 Gd404 2.324 . S
O456 C479 1.254 . S
O457 Gd405 2.429 1_655 S
O457 C479 1.268 . S
O458 Gd405 2.545 . S
O458 C471 1.250 . S
O459 Gd405 2.412 . S
O459 C472 1.252 . S
C460 O449 1.284 1_655 S
C460 O452 1.250 . S
C461 H430 0.929 . S
C461 C446 1.437 . S
C461 C462 1.317 . S
C462 H433 0.930 . S
C462 C438 1.431 . S
C462 C461 1.317 . S
C463 Gd404 2.828 1_554 S
C463 O448 1.258 . S
C463 O453 1.252 1_554 S
C463 C464 1.497 . S
C464 C463 1.497 . S
C464 C465 1.395 . S
C464 C466 1.380 . S
C465 C464 1.395 . S
C465 C468 1.398 . S
C465 H480 0.930 . S
C466 C464 1.380 . S
C466 C467 1.391 . S
C466 H481 0.930 . S
C467 C466 1.391 . S
C467 C469 1.387 . S
C468 C465 1.398 . S
C468 C469 1.380 . S
C468 H482 0.930 . S
C469 C467 1.387 . S
C469 C468 1.380 . S
C469 H483 0.930 . S
C470 O450 1.254 . S
C470 O451 1.268 . S
C471 O455 1.284 . S
C471 O458 1.250 . S
C472 Gd405 2.828 . S
C472 O454 1.258 . S
C472 O459 1.252 . S
C472 C473 1.497 . S
C473 C472 1.497 . S
C473 C474 1.395 . S
C473 C475 1.380 . S
C474 C473 1.395 . S
C474 C477 1.398 . S
C474 H484 0.930 . S
C475 C473 1.380 . S
C475 C476 1.391 . S
C475 H485 0.930 . S
C476 C475 1.391 . S
C476 C478 1.387 . S
C477 C474 1.398 . S
C477 C478 1.380 . S
C477 H486 0.930 1_554 S
C478 C476 1.387 . S
C478 C477 1.380 . S
C478 H487 0.930 . S
C479 O456 1.254 . S
C479 O457 1.268 . S
H480 C465 0.930 . S
H481 C466 0.930 . S
H482 C468 0.930 . S
H483 C469 0.930 . S
H484 C474 0.930 . S
H485 C475 0.930 . S
H486 C477 0.930 1_556 S
H487 C478 0.930 . S
C488 C489 1.363 . S
C488 C494 1.379 . S
C488 N496 1.356 . S
C489 C488 1.363 . S
C489 C495 1.363 . S
C490 C491 1.363 . S
C490 C495 1.379 . S
C490 N497 1.351 1_545 S
C491 C490 1.363 . S
C491 C494 1.363 . S
N492 C494 1.356 . S
N492 H504 0.984 . S
N492 H505 0.985 . S
N493 C495 1.356 . S
N493 H498 0.984 . S
N493 H499 0.964 1_545 S
C494 C488 1.379 . S
C494 C491 1.363 . S
C494 N492 1.356 . S
C495 C489 1.363 . S
C495 C490 1.379 . S
C495 N493 1.356 . S
N496 C488 1.356 . S
N496 H502 0.984 . S
N496 H503 0.984 . S
N497 C490 1.351 1_565 S
N497 H500 0.984 1_565 S
N497 H501 0.990 . S
H498 N493 0.984 . S
H499 N493 0.964 1_565 S
H500 N497 0.984 1_545 S
H501 N497 0.990 . S
H502 N496 0.984 . S
H503 N496 0.984 . S
H504 N492 0.984 . S
H505 N492 0.985 . S
C506 C507 1.363 . S
C506 C512 1.379 . S
C506 N514 1.356 . S
C507 C506 1.363 . S
C507 C513 1.363 . S
C508 C509 1.363 . S
C508 C513 1.379 . S
C508 N515 1.356 . S
C509 C508 1.363 . S
C509 C512 1.363 . S
N510 C512 1.356 . S
N510 H522 0.984 . S
N510 H523 0.985 . S
N511 C513 1.356 . S
N511 H516 0.984 . S
N511 H517 0.985 . S
C512 C506 1.379 . S
C512 C509 1.363 . S
C512 N510 1.356 . S
C513 C507 1.363 . S
C513 C508 1.379 . S
C513 N511 1.356 . S
N514 C506 1.356 . S
N514 H520 0.984 . S
N514 H521 0.984 . S
N515 C508 1.356 . S
N515 H518 0.984 . S
N515 H519 0.985 . S
H516 N511 0.984 . S
H517 N511 0.985 . S
H518 N515 0.984 . S
H519 N515 0.985 . S
H520 N514 0.984 . S
H521 N514 0.984 . S
H522 N510 0.984 . S
H523 N510 0.985 . S
C524 C525 1.363 . S
C524 C530 1.379 . S
C524 N532 1.356 . S
C525 C524 1.363 . S
C525 C531 1.363 . S
C526 C527 1.363 . S
C526 C531 1.379 . S
C526 N533 1.356 . S
C527 C526 1.363 . S
C527 C530 1.363 . S
N528 C530 1.356 . S
N528 H540 0.984 . S
N528 H541 0.985 . S
N529 C531 1.356 . S
N529 H534 0.984 . S
N529 H535 0.985 . S
C530 C524 1.379 . S
C530 C527 1.363 . S
C530 N528 1.356 . S
C531 C525 1.363 . S
C531 C526 1.379 . S
C531 N529 1.356 . S
N532 C524 1.356 . S
N532 H538 0.984 . S
N532 H539 0.984 . S
N533 C526 1.356 . S
N533 H536 0.984 . S
N533 H537 0.985 . S
H534 N529 0.984 . S
H535 N529 0.985 . S
H536 N533 0.984 . S
H537 N533 0.985 . S
H538 N532 0.984 . S
H539 N532 0.984 . S
H540 N528 0.984 . S
H541 N528 0.985 . S
C542 C543 1.363 . S
C542 C548 1.379 . S
C542 N550 1.356 . S
C543 C542 1.363 . S
C543 C549 1.363 . S
C544 C545 1.363 . S
C544 C549 1.379 . S
C544 N551 1.356 . S
C545 C544 1.363 . S
C545 C548 1.363 . S
N546 C548 1.356 . S
N546 H558 0.984 1_455 S
N546 H559 0.985 . S
N547 C549 1.356 . S
N547 H552 0.984 . S
N547 H553 0.985 . S
C548 C542 1.379 . S
C548 C545 1.363 . S
C548 N546 1.356 . S
C549 C543 1.363 . S
C549 C544 1.379 . S
C549 N547 1.356 . S
N550 C542 1.356 . S
N550 H556 0.984 . S
N550 H557 0.984 . S
N551 C544 1.356 . S
N551 H554 0.984 . S
N551 H555 0.985 . S
H552 N547 0.984 . S
H553 N547 0.985 . S
H554 N551 0.984 . S
H555 N551 0.985 . S
H556 N550 0.984 . S
H557 N550 0.984 . S
H558 N546 0.984 1_655 S
H559 N546 0.985 . S
C560 C561 1.363 . S
C560 C566 1.378 1_564 S
C560 N568 1.356 . S
C561 C560 1.363 . S
C561 C567 1.363 . S
C562 C563 1.363 1_554 S
C562 C567 1.379 . S
C562 N569 1.356 . S
C563 C562 1.363 1_556 S
C563 C566 1.361 1_565 S
N564 C566 1.359 . S
N564 H576 0.984 . S
N564 H577 0.985 . S
N565 C567 1.356 . S
N565 H570 0.984 . S
N565 H571 0.985 . S
C566 C560 1.378 1_546 S
C566 C563 1.361 1_545 S
C566 N564 1.359 . S
C567 C561 1.363 . S
C567 C562 1.379 . S
C567 N565 1.356 . S
N568 C560 1.356 . S
N568 H574 0.985 1_565 S
N568 H575 0.984 . S
N569 C562 1.356 . S
N569 H572 0.984 1_554 S
N569 H573 0.985 . S
H570 N565 0.984 . S
H571 N565 0.985 . S
H572 N569 0.984 1_556 S
H573 N569 0.985 . S
H574 N568 0.985 1_545 S
H575 N568 0.984 . S
H576 N564 0.984 . S
H577 N564 0.985 . S
C578 C579 1.363 . S
C578 C584 1.379 . S
C578 N586 1.356 . S
C579 C578 1.363 . S
C579 C585 1.363 . S
C580 C581 1.363 . S
C580 C585 1.379 1_556 S
C580 N587 1.356 . S
C581 C580 1.363 . S
C581 C584 1.363 1_556 S
N582 C584 1.356 . S
N582 H594 0.984 . S
N582 H595 0.985 1_554 S
N583 C585 1.356 . S
N583 H588 0.984 . S
N583 H589 0.985 . S
C584 C578 1.379 . S
C584 C581 1.363 1_554 S
C584 N582 1.356 . S
C585 C579 1.363 . S
C585 C580 1.379 1_554 S
C585 N583 1.356 . S
N586 C578 1.356 . S
N586 H592 0.984 . S
N586 H593 0.984 . S
N587 C580 1.356 . S
N587 H590 0.984 . S
N587 H591 0.985 . S
H588 N583 0.984 . S
H589 N583 0.985 . S
H590 N587 0.984 . S
H591 N587 0.985 . S
H592 N586 0.984 . S
H593 N586 0.984 . S
H594 N582 0.984 . S
H595 N582 0.985 1_556 S
C596 C597 1.363 . S
C596 C602 1.379 1_554 S
C596 N604 1.356 . S
C597 C596 1.363 . S
C597 C603 1.363 . S
C598 C599 1.363 1_554 S
C598 C603 1.379 . S
C598 N605 1.356 1_554 S
C599 C598 1.363 1_556 S
C599 C602 1.363 . S
N600 C602 1.356 . S
N600 H612 0.984 . S
N600 H613 0.985 . S
N601 C603 1.356 . S
N601 H606 0.984 . S
N601 H607 0.985 . S
C602 C596 1.379 1_556 S
C602 C599 1.363 . S
C602 N600 1.356 . S
C603 C597 1.363 . S
C603 C598 1.379 . S
C603 N601 1.356 . S
N604 C596 1.356 . S
N604 H610 0.984 . S
N604 H611 0.984 . S
N605 C598 1.356 1_556 S
N605 H608 0.984 . S
N605 H609 0.985 . S
H606 N601 0.984 . S
H607 N601 0.985 . S
H608 N605 0.984 . S
H609 N605 0.985 . S
H610 N604 0.984 . S
H611 N604 0.984 . S
H612 N600 0.984 . S
H613 N600 0.985 . S
C614 C615 1.363 . S
C614 C620 1.379 . S
C614 N622 1.356 . S
C615 C614 1.363 . S
C615 C621 1.363 . S
C616 C617 1.363 . S
C616 C621 1.379 1_556 S
C616 N623 1.356 . S
C617 C616 1.363 . S
C617 C620 1.363 1_556 S
N618 C620 1.356 . S
N618 H630 0.984 . S
N618 H631 0.985 1_554 S
N619 C621 1.356 . S
N619 H624 0.984 . S
N619 H625 0.985 . S
C620 C614 1.379 . S
C620 C617 1.363 1_554 S
C620 N618 1.356 . S
C621 C615 1.363 . S
C621 C616 1.379 1_554 S
C621 N619 1.356 . S
N622 C614 1.356 . S
N622 H628 0.984 . S
N622 H629 0.984 . S
N623 C616 1.356 . S
N623 H626 0.984 . S
N623 H627 0.985 . S
H624 N619 0.984 . S
H625 N619 0.985 . S
H626 N623 0.984 . S
H627 N623 0.985 . S
H628 N622 0.984 . S
H629 N622 0.984 . S
H630 N618 0.984 . S
H631 N618 0.985 1_556 S
C632 C633 1.363 . S
C632 C638 1.379 . S
C632 N640 1.356 1_554 S
C633 C632 1.363 . S
C633 C639 1.363 . S
C634 C635 1.363 . S
C634 C639 1.379 . S
C634 N641 1.356 . S
C635 C634 1.363 . S
C635 C638 1.363 . S
N636 C638 1.356 1_655 S
N636 H648 0.984 1_554 S
N636 H649 0.985 . S
N637 C639 1.356 . S
N637 H642 0.984 . S
N637 H643 0.985 . S
C638 C632 1.379 . S
C638 C635 1.363 . S
C638 N636 1.356 1_455 S
C639 C633 1.363 . S
C639 C634 1.379 . S
C639 N637 1.356 . S
N640 C632 1.356 1_556 S
N640 H646 0.984 . S
N640 H647 0.984 . S
N641 C634 1.356 . S
N641 H644 1.009 . S
N641 H645 0.985 . S
H642 N637 0.984 . S
H643 N637 0.985 . S
H644 N641 1.009 . S
H645 N641 0.985 . S
H646 N640 0.984 . S
H647 N640 0.984 . S
H648 N636 0.984 1_556 S
H649 N636 0.985 . S
C650 C651 1.363 . S
C650 C656 1.379 . S
C650 N658 1.356 1_554 S
C651 C650 1.363 . S
C651 C657 1.363 . S
C652 C653 1.363 . S
C652 C657 1.379 . S
C652 N659 1.356 . S
C653 C652 1.363 . S
C653 C656 1.363 . S
N654 C656 1.356 1_565 S
N654 H666 0.984 1_554 S
N654 H667 0.985 . S
N655 C657 1.356 . S
N655 H660 0.984 . S
N655 H661 0.985 . S
C656 C650 1.379 . S
C656 C653 1.363 . S
C656 N654 1.356 1_545 S
C657 C651 1.363 . S
C657 C652 1.379 . S
C657 N655 1.356 . S
N658 C650 1.356 1_556 S
N658 H664 0.984 . S
N658 H665 0.984 . S
N659 C652 1.356 . S
N659 H662 0.984 . S
N659 H663 0.985 . S
H660 N655 0.984 . S
H661 N655 0.985 . S
H662 N659 0.984 . S
H663 N659 0.985 . S
H664 N658 0.984 . S
H665 N658 0.984 . S
H666 N654 0.984 1_556 S
H667 N654 0.985 . S
C668 C669 1.363 . S
C668 C674 1.379 . S
C668 N676 1.356 . S
C669 C668 1.363 . S
C669 C675 1.363 . S
C670 C671 1.363 . S
C670 C675 1.379 . S
C670 N677 1.356 . S
C671 C670 1.363 . S
C671 C674 1.363 . S
N672 C674 1.356 . S
N672 H684 0.984 . S
N672 H685 0.985 . S
N673 C675 1.356 . S
N673 H678 0.984 . S
N673 H679 0.985 1_554 S
C674 C668 1.379 . S
C674 C671 1.363 . S
C674 N672 1.356 . S
C675 C669 1.363 . S
C675 C670 1.379 . S
C675 N673 1.356 . S
N676 C668 1.356 . S
N676 H682 0.984 . S
N676 H683 0.984 . S
N677 C670 1.356 . S
N677 H680 0.984 . S
N677 H681 0.985 . S
H678 N673 0.984 . S
H679 N673 0.985 1_556 S
H680 N677 0.984 . S
H681 N677 0.985 . S
H682 N676 0.984 . S
H683 N676 0.984 . S
H684 N672 0.984 . S
H685 N672 0.985 . S
C686 C687 1.363 . S
C686 C692 1.379 . S
C686 N694 1.356 . S
C687 C686 1.363 . S
C687 C693 1.363 . S
C688 C689 1.363 . S
C688 C693 1.379 . S
C688 N695 1.356 . S
C689 C688 1.363 . S
C689 C692 1.363 . S
N690 C692 1.356 . S
N690 H702 0.984 . S
N690 H703 0.985 . S
N691 C693 1.356 . S
N691 H696 0.984 . S
N691 H697 0.985 . S
C692 C686 1.379 . S
C692 C689 1.363 . S
C692 N690 1.356 . S
C693 C687 1.363 . S
C693 C688 1.379 . S
C693 N691 1.356 . S
N694 C686 1.356 . S
N694 H700 0.984 1_554 S
N694 H701 0.984 . S
N695 C688 1.356 . S
N695 H698 0.984 . S
N695 H699 0.985 . S
H696 N691 0.984 . S
H697 N691 0.985 . S
H698 N695 0.984 . S
H699 N695 0.985 . S
H700 N694 0.984 1_556 S
H701 N694 0.984 . S
H702 N690 0.984 . S
H703 N690 0.985 . S
C704 C705 1.363 . S
C704 C710 1.379 . S
C704 N712 1.356 . S
C705 C704 1.363 . S
C705 C711 1.363 . S
C706 C707 1.363 . S
C706 C711 1.379 1_455 S
C706 N713 1.356 . S
C707 C706 1.363 . S
C707 C710 1.363 1_455 S
N708 C710 1.356 1_455 S
N708 H720 0.984 1_454 S
N708 H721 0.985 . S
N709 C711 1.356 . S
N709 H714 0.984 . S
N709 H715 0.985 . S
C710 C704 1.379 . S
C710 C707 1.363 1_655 S
C710 N708 1.356 1_655 S
C711 C705 1.363 . S
C711 C706 1.379 1_655 S
C711 N709 1.356 . S
N712 C704 1.356 . S
N712 H718 0.984 . S
N712 H719 0.984 . S
N713 C706 1.356 . S
N713 H716 0.984 . S
N713 H717 0.985 . S
H714 N709 0.984 . S
H715 N709 0.985 . S
H716 N713 0.984 . S
H717 N713 0.985 . S
H718 N712 0.984 . S
H719 N712 0.984 . S
H720 N708 0.984 1_656 S
H721 N708 0.985 . S
C722 C723 1.363 . S
C722 C728 1.379 . S
C722 N730 1.356 . S
C723 C722 1.363 . S
C723 C729 1.363 1_565 S
C724 C725 1.363 . S
C724 C729 1.379 . S
C724 N731 1.356 . S
C725 C724 1.363 . S
C725 C728 1.363 1_545 S
N726 C728 1.356 . S
N726 H738 0.984 . S
N726 H739 0.960 1_565 S
N727 C729 1.356 . S
N727 H732 0.984 1_545 S
N727 H733 0.985 . S
C728 C722 1.379 . S
C728 C725 1.363 1_565 S
C728 N726 1.356 . S
C729 C723 1.363 1_545 S
C729 C724 1.379 . S
C729 N727 1.356 . S
N730 C722 1.356 . S
N730 H736 0.984 . S
N730 H737 0.984 . S
N731 C724 1.356 . S
N731 H734 0.984 . S
N731 H735 0.985 . S
H732 N727 0.984 1_565 S
H733 N727 0.985 . S
H734 N731 0.984 . S
H735 N731 0.985 . S
H736 N730 0.984 . S
H737 N730 0.984 . S
H738 N726 0.984 . S
H739 N726 0.960 1_545 S
C740 C741 1.363 . S
C740 C746 1.379 . S
C740 N748 1.356 . S
C741 C740 1.363 . S
C741 C747 1.363 . S
C742 C743 1.363 . S
C742 C747 1.379 . S
C742 N749 1.356 . S
C743 C742 1.363 . S
C743 C746 1.363 . S
N744 C746 1.356 . S
N744 H756 0.984 . S
N744 H757 0.985 . S
N745 C747 1.356 . S
N745 H750 0.984 . S
N745 H751 0.985 . S
C746 C740 1.379 . S
C746 C743 1.363 . S
C746 N744 1.356 . S
C747 C741 1.363 . S
C747 C742 1.379 . S
C747 N745 1.356 . S
N748 C740 1.356 . S
N748 H754 0.984 . S
N748 H755 0.984 . S
N749 C742 1.356 . S
N749 H752 0.984 . S
N749 H753 0.985 1_554 S
H750 N745 0.984 . S
H751 N745 0.985 . S
H752 N749 0.984 . S
H753 N749 0.985 1_556 S
H754 N748 0.984 . S
H755 N748 0.984 . S
H756 N744 0.984 . S
H757 N744 0.985 . S
C758 C759 1.363 . S
C758 C764 1.379 . S
C758 N766 1.356 . S
C759 C758 1.363 . S
C759 C765 1.363 . S
C760 C761 1.363 . S
C760 C765 1.379 . S
C760 N767 1.356 . S
C761 C760 1.363 . S
C761 C764 1.363 . S
N762 C764 1.356 . S
N762 H774 0.984 . S
N762 H775 0.985 . S
N763 C765 1.356 . S
N763 H768 0.984 . S
N763 H769 0.985 . S
C764 C758 1.379 . S
C764 C761 1.363 . S
C764 N762 1.356 . S
C765 C759 1.363 . S
C765 C760 1.379 . S
C765 N763 1.356 . S
N766 C758 1.356 . S
N766 H772 0.984 . S
N766 H773 0.984 . S
N767 C760 1.356 . S
N767 H770 0.984 . S
N767 H771 0.985 . S
H768 N763 0.984 . S
H769 N763 0.985 . S
H770 N767 0.984 . S
H771 N767 0.985 . S
H772 N766 0.984 . S
H773 N766 0.984 . S
H774 N762 0.984 . S
H775 N762 0.985 . S
C776 C777 1.363 . S
C776 C782 1.379 . S
C776 N784 1.356 . S
C777 C776 1.363 . S
C777 C783 1.363 . S
C778 C779 1.363 . S
C778 C783 1.379 . S
C778 N785 1.356 . S
C779 C778 1.363 . S
C779 C782 1.363 . S
N780 C782 1.356 . S
N780 H792 0.984 1_556 S
N780 H793 0.985 . S
N781 C783 1.356 . S
N781 H786 0.984 . S
N781 H787 0.985 . S
C782 C776 1.379 . S
C782 C779 1.363 . S
C782 N780 1.356 . S
C783 C777 1.363 . S
C783 C778 1.379 . S
C783 N781 1.356 . S
N784 C776 1.356 . S
N784 H790 0.984 1_556 S
N784 H791 0.984 . S
N785 C778 1.356 . S
N785 H788 0.984 . S
N785 H789 0.985 1_455 S
H786 N781 0.984 . S
H787 N781 0.985 . S
H788 N785 0.984 . S
H789 N785 0.985 1_655 S
H790 N784 0.984 1_554 S
H791 N784 0.984 . S
H792 N780 0.984 1_554 S
H793 N780 0.985 . S
C794 C795 1.363 . S
C794 C800 1.379 . S
C794 N802 1.356 . S
C795 C794 1.363 . S
C795 C801 1.363 . S
C796 C797 1.363 . S
C796 C801 1.379 . S
C796 N803 1.356 . S
C797 C796 1.363 . S
C797 C800 1.363 . S
N798 C800 1.356 . S
N798 H810 0.984 1_545 S
N798 H811 0.985 . S
N799 C801 1.356 . S
N799 H804 0.984 . S
N799 H805 0.985 . S
C800 C794 1.379 . S
C800 C797 1.363 . S
C800 N798 1.356 . S
C801 C795 1.363 . S
C801 C796 1.379 . S
C801 N799 1.356 . S
N802 C794 1.356 . S
N802 H808 0.984 . S
N802 H809 0.984 . S
N803 C796 1.356 . S
N803 H806 0.984 . S
N803 H807 0.985 1_556 S
H804 N799 0.984 . S
H805 N799 0.985 . S
H806 N803 0.984 . S
H807 N803 0.985 1_554 S
H808 N802 0.984 . S
H809 N802 0.984 . S
H810 N798 0.984 1_565 S
H811 N798 0.985 . S
C812 C813 1.363 . S
C812 C818 1.379 . S
C812 N820 1.356 . S
C813 C812 1.363 . S
C813 C819 1.363 . S
C814 C815 1.363 . S
C814 C819 1.379 . S
C814 N821 1.356 . S
C815 C814 1.363 . S
C815 C818 1.363 . S
N816 C818 1.356 . S
N816 H828 0.984 . S
N816 H829 0.985 . S
N817 C819 1.356 . S
N817 H822 0.984 . S
N817 H823 0.985 1_556 S
C818 C812 1.379 . S
C818 C815 1.363 . S
C818 N816 1.356 . S
C819 C813 1.363 . S
C819 C814 1.379 . S
C819 N817 1.356 . S
N820 C812 1.356 . S
N820 H826 0.984 . S
N820 H827 0.984 . S
N821 C814 1.356 . S
N821 H824 0.984 . S
N821 H825 0.985 1_556 S
H822 N817 0.984 . S
H823 N817 0.985 1_554 S
H824 N821 0.984 . S
H825 N821 0.985 1_554 S
H826 N820 0.984 . S
H827 N820 0.984 . S
H828 N816 0.984 . S
H829 N816 0.985 . S
C830 C831 1.363 . S
C830 C836 1.379 . S
C830 N838 1.356 . S
C831 C830 1.363 . S
C831 C837 1.363 . S
C832 C833 1.363 . S
C832 C837 1.379 . S
C832 N839 1.356 . S
C833 C832 1.363 . S
C833 C836 1.363 . S
N834 C836 1.356 . S
N834 H846 0.984 . S
N834 H847 0.985 . S
N835 C837 1.356 . S
N835 H840 0.984 . S
N835 H841 0.985 . S
C836 C830 1.379 . S
C836 C833 1.363 . S
C836 N834 1.356 . S
C837 C831 1.363 . S
C837 C832 1.379 . S
C837 N835 1.356 . S
N838 C830 1.356 . S
N838 H844 0.984 . S
N838 H845 0.984 . S
N839 C832 1.356 . S
N839 H842 0.984 . S
N839 H843 0.985 . S
H840 N835 0.984 . S
H841 N835 0.985 . S
H842 N839 0.984 . S
H843 N839 0.985 . S
H844 N838 0.984 . S
H845 N838 0.984 . S
H846 N834 0.984 . S
H847 N834 0.985 . S
C848 C849 1.363 . S
C848 C854 1.379 . S
C848 N856 1.356 . S
C849 C848 1.363 . S
C849 C855 1.363 . S
C850 C851 1.363 . S
C850 C855 1.379 . S
C850 N857 1.356 1_655 S
C851 C850 1.363 . S
C851 C854 1.363 . S
N852 C854 1.356 . S
N852 H864 0.984 . S
N852 H865 0.985 . S
N853 C855 1.356 . S
N853 H858 0.984 . S
N853 H859 0.985 1_655 S
C854 C848 1.379 . S
C854 C851 1.363 . S
C854 N852 1.356 . S
C855 C849 1.363 . S
C855 C850 1.379 . S
C855 N853 1.356 . S
N856 C848 1.356 . S
N856 H862 0.984 . S
N856 H863 0.984 . S
N857 C850 1.356 1_455 S
N857 H860 0.984 . S
N857 H861 0.985 . S
H858 N853 0.984 . S
H859 N853 0.985 1_455 S
H860 N857 0.984 . S
H861 N857 0.985 . S
H862 N856 0.984 . S
H863 N856 0.984 . S
H864 N852 0.984 . S
H865 N852 0.985 . S
C866 C867 1.363 . S
C866 C872 1.379 . S
C866 N874 1.356 . S
C867 C866 1.363 . S
C867 C873 1.363 . S
C868 C869 1.363 . S
C868 C873 1.379 . S
C868 N875 1.356 . S
C869 C868 1.363 . S
C869 C872 1.363 . S
N870 C872 1.356 1_545 S
N870 H882 0.984 . S
N870 H883 0.985 . S
N871 C873 1.356 . S
N871 H876 0.984 . S
N871 H877 0.985 . S
C872 C866 1.379 . S
C872 C869 1.363 . S
C872 N870 1.356 1_565 S
C873 C867 1.363 . S
C873 C868 1.379 . S
C873 N871 1.356 . S
N874 C866 1.356 . S
N874 H880 0.984 1_565 S
N874 H881 0.984 . S
N875 C868 1.356 . S
N875 H878 0.984 . S
N875 H879 0.985 . S
H876 N871 0.984 . S
H877 N871 0.985 . S
H878 N875 0.984 . S
H879 N875 0.985 . S
H880 N874 0.984 1_545 S
H881 N874 0.984 . S
H882 N870 0.984 . S
H883 N870 0.985 . S
C884 C885 1.363 . S
C884 C890 1.379 . S
C884 N892 1.356 . S
C885 C884 1.363 . S
C885 C891 1.363 . S
C886 C887 1.363 . S
C886 C891 1.379 . S
C886 N893 1.356 . S
C887 C886 1.363 . S
C887 C890 1.363 . S
N888 C890 1.356 . S
N888 H900 0.984 . S
N888 H901 0.985 . S
N889 C891 1.356 . S
N889 H894 0.984 . S
N889 H895 0.985 . S
C890 C884 1.379 . S
C890 C887 1.363 . S
C890 N888 1.356 . S
C891 C885 1.363 . S
C891 C886 1.379 . S
C891 N889 1.356 . S
N892 C884 1.356 . S
N892 H898 0.984 . S
N892 H899 0.984 . S
N893 C886 1.356 . S
N893 H896 0.984 . S
N893 H897 0.985 . S
H894 N889 0.984 . S
H895 N889 0.985 . S
H896 N893 0.984 . S
H897 N893 0.985 . S
H898 N892 0.984 . S
H899 N892 0.984 . S
H900 N888 0.984 . S
H901 N888 0.985 . S
C902 C903 1.363 . S
C902 C908 1.379 . S
C902 N910 1.356 . S
C903 C902 1.363 . S
C903 C909 1.363 . S
C904 C905 1.363 . S
C904 C909 1.379 . S
C904 N911 1.356 . S
C905 C904 1.363 . S
C905 C908 1.363 . S
N906 C908 1.356 . S
N906 H918 0.984 . S
N906 H919 0.985 . S
N907 C909 1.356 . S
N907 H912 0.984 . S
N907 H913 0.985 . S
C908 C902 1.379 . S
C908 C905 1.363 . S
C908 N906 1.356 . S
C909 C903 1.363 . S
C909 C904 1.379 . S
C909 N907 1.356 . S
N910 C902 1.356 . S
N910 H916 0.984 . S
N910 H917 0.984 . S
N911 C904 1.356 . S
N911 H914 0.984 . S
N911 H915 0.985 . S
H912 N907 0.984 . S
H913 N907 0.985 . S
H914 N911 0.984 . S
H915 N911 0.985 . S
H916 N910 0.984 . S
H917 N910 0.984 . S
H918 N906 0.984 . S
H919 N906 0.985 . S
C489 C125 2.074 . S
C491 C227 2.067 . S
C509 C311 2.078 . S
C507 C144 2.071 . S
C527 C387 1.982 . S
C525 C87 2.131 . S
C545 C471 1.972 . S
C543 C106 2.132 . S
C563 C218 2.066 1_565 S
C561 C49 2.164 . S
C579 C68 2.175 . S
C581 C302 2.079 . S
C597 C11 2.244 . S
C599 C376 1.981 . S
C615 C30 2.234 . S
C617 C460 1.973 . S
C635 C215 0.948 1_455 S
C633 C97 0.891 . S
C653 C299 0.912 1_545 S
C651 C116 0.867 . S
C671 C392 0.904 . S
C669 C135 0.852 . S
C687 C78 0.875 . S
C689 C476 0.938 . S
C705 C21 0.893 . S
C707 C224 0.947 . S
C725 C308 0.912 . S
C723 C40 0.868 . S
C743 C383 0.904 . S
C741 C59 0.853 . S
C759 C2 0.876 . S
C761 C467 0.938 . S
C777 C101 2.107 . S
C779 C208 2.184 . S
C795 C120 2.085 . S
C797 C292 2.162 . S
C815 C386 2.282 . S
C813 C139 2.015 . S
C833 C470 2.303 . S
C831 C82 2.036 . S
C849 C25 2.111 . S
C851 C219 2.184 . S
C869 C303 2.162 . S
C867 C44 2.089 . S
C887 C395 2.282 . S
C885 C63 2.020 . S
C903 C6 2.041 . S
C905 C479 2.303 . S
