# Generated by pormake.
# Topology zzz, (3,6)-cn, num edge types: 1
# Building blocks:
#     Node 0, Type 0, BuildingBlock: QEWDON_clean_linker_0, # of connection points: 3
#     Node 1, Type 0, BuildingBlock: QEWDON_clean_linker_0, # of connection points: 3
#     Node 2, Type 0, BuildingBlock: QEWDON_clean_linker_0, # of connection points: 3
#     Node 3, Type 0, BuildingBlock: QEWDON_clean_linker_0, # of connection points: 3
#     Node 4, Type 0, BuildingBlock: QEWDON_clean_linker_0, # of connection points: 3
#     Node 5, Type 0, BuildingBlock: QEWDON_clean_linker_0, # of connection points: 3
#     Node 6, Type 0, BuildingBlock: QEWDON_clean_linker_0, # of connection points: 3
#     Node 7, Type 0, BuildingBlock: QEWDON_clean_linker_0, # of connection points: 3
#     Node 8, Type 1, BuildingBlock: GEDQOX_clean_sbu_0, # of connection points: 6
#     Node 9, Type 1, BuildingBlock: GEDQOX_clean_sbu_0, # of connection points: 6
#     Node 10, Type 1, BuildingBlock: GEDQOX_clean_sbu_0, # of connection points: 6
#     Node 11, Type 1, BuildingBlock: GEDQOX_clean_sbu_0, # of connection points: 6
#     Edge 12, Type (0, 1), BuildingBlock: CIFDUS_clean_linker_0, # of connection points: 2
#     Edge 13, Type (0, 1), BuildingBlock: CIFDUS_clean_linker_0, # of connection points: 2
#     Edge 14, Type (0, 1), BuildingBlock: CIFDUS_clean_linker_0, # of connection points: 2
#     Edge 15, Type (0, 1), BuildingBlock: CIFDUS_clean_linker_0, # of connection points: 2
#     Edge 16, Type (0, 1), BuildingBlock: CIFDUS_clean_linker_0, # of connection points: 2
#     Edge 17, Type (0, 1), BuildingBlock: CIFDUS_clean_linker_0, # of connection points: 2
#     Edge 18, Type (0, 1), BuildingBlock: CIFDUS_clean_linker_0, # of connection points: 2
#     Edge 19, Type (0, 1), BuildingBlock: CIFDUS_clean_linker_0, # of connection points: 2
#     Edge 20, Type (0, 1), BuildingBlock: CIFDUS_clean_linker_0, # of connection points: 2
#     Edge 21, Type (0, 1), BuildingBlock: CIFDUS_clean_linker_0, # of connection points: 2
#     Edge 22, Type (0, 1), BuildingBlock: CIFDUS_clean_linker_0, # of connection points: 2
#     Edge 23, Type (0, 1), BuildingBlock: CIFDUS_clean_linker_0, # of connection points: 2
#     Edge 24, Type (0, 1), BuildingBlock: CIFDUS_clean_linker_0, # of connection points: 2
#     Edge 25, Type (0, 1), BuildingBlock: CIFDUS_clean_linker_0, # of connection points: 2
#     Edge 26, Type (0, 1), BuildingBlock: CIFDUS_clean_linker_0, # of connection points: 2
#     Edge 27, Type (0, 1), BuildingBlock: CIFDUS_clean_linker_0, # of connection points: 2
#     Edge 28, Type (0, 1), BuildingBlock: CIFDUS_clean_linker_0, # of connection points: 2
#     Edge 29, Type (0, 1), BuildingBlock: CIFDUS_clean_linker_0, # of connection points: 2
#     Edge 30, Type (0, 1), BuildingBlock: CIFDUS_clean_linker_0, # of connection points: 2
#     Edge 31, Type (0, 1), BuildingBlock: CIFDUS_clean_linker_0, # of connection points: 2
#     Edge 32, Type (0, 1), BuildingBlock: CIFDUS_clean_linker_0, # of connection points: 2
#     Edge 33, Type (0, 1), BuildingBlock: CIFDUS_clean_linker_0, # of connection points: 2
#     Edge 34, Type (0, 1), BuildingBlock: CIFDUS_clean_linker_0, # of connection points: 2
#     Edge 35, Type (0, 1), BuildingBlock: CIFDUS_clean_linker_0, # of connection points: 2
# Relax obj value: 0.072
# Max RMSD: 0.171
# Mean RMSD: 0.057
data_MOF--net-zzz--node1-GEDQOX_clean_sbu_0--node2-QEWDON_clean_linker_0--edge1-CIFDUS_clean_linker_0
_symmetry_space_group_name_H-M    P1
_symmetry_Int_Tables_number       1
_symmetry_cell_setting            triclinic
loop_
_symmetry_equiv_pos_as_xyz
'x, y, z'
_cell_length_a     50.686199
_cell_length_b     49.339652
_cell_length_c     15.485561
_cell_angle_alpha  79.791494
_cell_angle_beta   88.746989
_cell_angle_gamma 98.93707
loop_
_atom_site_label
_atom_site_type_symbol
_atom_site_fract_x
_atom_site_fract_y
_atom_site_fract_z
_atom_type_partial_charge
H0 H 0.817 0.55943 0.05492 0.0
C1 C 0.81964 0.55749 0.12489 0.0
C2 C 0.84184 0.54657 0.16162 0.0
C3 C 0.80188 0.56799 0.17684 0.0
H4 H 0.86293 0.53851 0.28045 0.0
C5 C 0.84516 0.54523 0.25189 0.0
C6 C 0.82804 0.55611 0.30407 0.0
C7 C 0.80636 0.56753 0.26638 0.0
C8 C 0.78272 0.58509 0.13351 0.0
H9 H 0.79405 0.57751 0.30511 0.0
C10 C 0.75513 0.57481 0.1339 0.0
C11 C 0.73759 0.59191 0.09091 0.0
C12 C 0.79263 0.61244 0.09112 0.0
H13 H 0.81377 0.62064 0.09037 0.0
C14 C 0.77542 0.62952 0.05018 0.0
H15 H 0.74755 0.55356 0.16578 0.0
C16 C 0.74817 0.61945 0.0502 0.0
H17 H 0.73531 0.63345 0.01878 0.0
H18 H 0.78323 0.6507 0.01839 0.0
H19 H 0.03758 0.81428 0.13944 0.0
C20 C 0.0361 0.81929 0.20458 0.0
C21 C 0.04582 0.8465 0.2176 0.0
C22 C 0.02257 0.79917 0.27412 0.0
H23 H 0.0491 0.87422 0.31107 0.0
C24 C 0.04286 0.85295 0.30148 0.0
C25 C 0.02893 0.83371 0.37081 0.0
C26 C 1.01851 0.80679 0.35681 0.0
C27 C 1.00898 0.77188 0.25636 0.0
H28 H 1.0068 0.79207 0.40922 0.0
C29 C 0.02319 0.75285 0.2243 0.0
C30 C 1.00935 0.72765 0.20446 0.0
C31 C 0.98104 0.76536 0.26865 0.0
H32 H 0.9697 0.77966 0.29252 0.0
C33 C 0.96736 0.74069 0.24842 0.0
H34 H 0.04477 0.7576 0.21501 0.0
C35 C 0.98132 0.72203 0.21639 0.0
H36 H 0.97019 0.7028 0.2027 0.0
H37 H 0.9458 0.73598 0.25778 0.0
H38 H 0.77511 0.06848 0.99839 0.0
C39 C 0.77132 0.06226 0.06884 0.0
C40 C 0.74972 0.07069 0.11007 0.0
C41 C 0.78696 0.04419 0.11718 0.0
H42 H 0.72708 0.06634 0.23234 0.0
C43 C 0.74457 0.0614 0.20065 0.0
C44 C 0.75916 0.04261 0.24913 0.0
C45 C 0.78048 0.03404 0.20725 0.0
C46 C 0.80593 0.03133 0.06955 0.0
H47 H 0.79096 1.01841 0.24324 0.0
C48 C 0.83394 0.0395 0.06874 0.0
C49 C 0.85115 0.02731 0.01928 0.0
C50 C 0.79536 1.01067 0.02256 0.0
H51 H 0.77393 1.00413 0.02255 0.0
C52 C 0.81224 0.99819 0.97548 0.0
H53 H 0.84216 0.05568 0.10416 0.0
C54 C 0.83985 1.0064 0.97366 0.0
H55 H 0.85243 0.99622 0.93666 0.0
H56 H 0.80387 0.98213 0.93989 0.0
H57 H 0.54176 0.80918 0.29922 0.0
C58 C 0.54243 0.7959 0.36254 0.0
C59 C 0.52777 0.76877 0.37696 0.0
C60 C 0.55916 0.80511 0.42684 0.0
H61 H 0.5198 0.7292 0.46521 0.0
C62 C 0.52976 0.7507 0.45633 0.0
C63 C 0.54688 0.75869 0.52002 0.0
C64 C 0.56122 0.78605 0.50587 0.0
C65 C 0.57643 0.83336 0.4072 0.0
H66 H 0.57422 0.79209 0.55607 0.0
C67 C 0.56842 0.85627 0.35039 0.0
C68 C 0.58609 0.88179 0.32596 0.0
C69 C 0.60208 0.83714 0.44095 0.0
H70 H 0.60956 0.82019 0.48214 0.0
C71 C 0.61911 0.86265 0.41945 0.0
H72 H 0.54885 0.85419 0.32334 0.0
C73 C 0.61131 0.88472 0.36211 0.0
H74 H 0.62515 0.90416 0.34545 0.0
H75 H 0.63875 0.86513 0.44598 0.0
H76 H 0.27445 0.58925 0.79908 0.0
C77 C 0.26947 0.57939 0.74301 0.0
C78 C 0.24256 0.57127 0.72764 0.0
C79 C 0.28987 0.57623 0.68373 0.0
H80 H 0.21502 0.55261 0.64362 0.0
C81 C 0.23596 0.55865 0.65556 0.0
C82 C 0.25571 0.55483 0.59635 0.0
C83 C 0.28283 0.56387 0.60992 0.0
C84 C 0.31793 0.58886 0.69516 0.0
H85 H 0.29815 0.56214 0.5622 0.0
C86 C 0.33959 0.57402 0.6925 0.0
C87 C 0.36563 0.58664 0.70757 0.0
C88 C 0.32292 0.61636 0.71119 0.0
H89 H 0.3068 0.6284 0.71238 0.0
C90 C 0.34866 0.62877 0.72547 0.0
H91 H 0.33619 0.55285 0.68012 0.0
C92 C 0.36988 0.61401 0.72392 0.0
H93 H 0.38978 0.62403 0.73517 0.0
H94 H 0.35217 0.64992 0.73781 0.0
H95 H 1.01327 0.29419 0.72201 0.0
C96 C 0.02381 0.28985 0.66568 0.0
C97 C 0.02695 0.26222 0.66187 0.0
C98 C 0.03327 0.31156 0.59403 0.0
H99 H 0.04252 0.23516 0.58624 0.0
C100 C 0.04006 0.25652 0.58862 0.0
C101 C 0.04983 0.27755 0.51797 0.0
C102 C 0.04654 0.30512 0.52039 0.0
C103 C 0.02697 0.34032 0.59055 0.0
H104 H 0.0538 0.32136 0.46453 0.0
C105 C 0.03162 0.35518 0.66074 0.0
C106 C 0.02599 0.38273 0.65227 0.0
C107 C 1.01609 0.35317 0.51407 0.0
H108 H 1.01186 0.34222 0.4599 0.0
C109 C 1.01027 0.38014 0.50648 0.0
H110 H 0.0401 0.34574 0.72008 0.0
C111 C 1.01529 0.39486 0.57474 0.0
H112 H 1.01085 0.41592 0.56699 0.0
H113 H 1.00193 0.38972 0.44715 0.0
H114 H 0.31945 0.04191 0.82465 0.0
C115 C 0.32881 0.05413 0.76349 0.0
C116 C 0.35669 0.06235 0.75553 0.0
C117 C 0.31336 0.05995 0.68983 0.0
H118 H 0.3905 0.0821 0.66963 0.0
C119 C 0.36885 0.07695 0.67531 0.0
C120 C 0.354 0.08269 0.601 0.0
C121 C 0.32613 0.07409 0.60876 0.0
C122 C 0.28481 0.04717 0.69239 0.0
H123 H 0.31442 0.07756 0.55126 0.0
C124 C 0.26482 0.05557 0.74202 0.0
C125 C 0.23781 0.04334 0.7396 0.0
C126 C 0.27754 0.02637 0.64211 0.0
H127 H 0.29257 1.01962 0.60374 0.0
C128 C 0.25092 1.01404 0.64101 0.0
H129 H 0.27014 0.07179 0.78037 0.0
C130 C 0.23116 1.02249 0.68918 0.0
H131 H 0.21052 1.01289 0.68659 0.0
H132 H 0.24555 0.998 0.60214 0.0
H133 H 0.57304 0.29611 0.4694 0.0
C134 C 0.56361 0.31028 0.42298 0.0
C135 C 0.5653 0.33817 0.43288 0.0
C136 C 0.55123 0.30125 0.35009 0.0
H137 H 0.55645 0.37877 0.37807 0.0
C138 C 0.55435 0.35702 0.37121 0.0
C139 C 0.54237 0.34878 0.29781 0.0
C140 C 0.54062 0.32083 0.28737 0.0
C141 C 0.55218 0.27242 0.33431 0.0
H142 H 0.53165 0.31459 0.2296 0.0
C143 C 0.54741 0.2488 0.40316 0.0
C144 C 0.5492 0.22185 0.3863 0.0
C145 C 0.55914 0.26868 0.24934 0.0
H146 H 0.56357 0.28632 0.19567 0.0
C147 C 0.56134 0.2423 0.23276 0.0
H148 H 0.54176 0.2513 0.46881 0.0
C149 C 0.55654 0.21916 0.3003 0.0
H150 H 0.55888 0.19905 0.28501 0.0
H151 H 0.56702 0.2398 0.16719 0.0
Nd152 Nd 0.0393 0.05114 0.86825 0.0
Nd153 Nd 0.06569 0.06758 0.04147 0.0
C154 C 1.0123 1.02309 0.75893 0.0
C155 C 1.01567 0.99779 0.72251 0.0
C156 C 0.99735 0.9729 0.74724 0.0
C157 C 1.00102 0.94861 0.71616 0.0
C158 C 0.02313 0.94865 0.65951 0.0
C159 C 0.04115 0.97375 0.63372 0.0
C160 C 0.03752 0.99792 0.66486 0.0
C161 C 0.09334 0.07153 0.85131 0.0
C162 C 0.06408 1.00373 0.01407 0.0
C163 C 0.09634 0.0951 0.14248 0.0
C164 C 0.0915 0.11874 0.1845 0.0
C165 C 0.11014 0.14355 0.1711 0.0
C166 C 0.10402 0.16737 0.19997 0.0
C167 C 0.07906 0.16685 0.24243 0.0
C168 C 0.06084 0.14167 0.25814 0.0
C169 C 0.06691 0.118 0.22921 0.0
C170 C 1.01 0.0577 0.06209 0.0
C171 C 0.0411 0.11389 0.89962 0.0
O172 O 1.00577 1.01917 0.84304 0.0
O173 O 0.02994 0.04567 0.73258 0.0
O174 O 0.07671 0.07652 0.7899 0.0
O175 O 0.08131 0.05529 0.91769 0.0
O176 O 0.04979 1.00955 0.94429 0.0
O177 O 0.07408 1.02282 0.06001 0.0
O178 O 0.09908 0.10089 0.05646 0.0
O179 O 0.08154 0.07071 0.17231 0.0
O180 O 0.02539 0.06319 0.12469 0.0
O181 O 0.02473 0.05687 0.9971 0.0
O182 O 0.06049 0.10835 0.95215 0.0
O183 O 0.02625 0.09406 0.8661 0.0
H184 H 0.98029 0.97214 0.79152 0.0
H185 H 0.9868 0.92969 0.73776 0.0
H186 H 0.05808 0.97486 0.58861 0.0
H187 H 0.05203 1.01667 0.64393 0.0
H188 H 0.12909 0.14477 0.13576 0.0
H189 H 0.11847 0.18641 0.18651 0.0
H190 H 0.04167 0.14026 0.29237 0.0
H191 H 0.05197 0.09933 0.23994 0.0
Nd192 Nd 0.55782 0.03639 0.85182 0.0
Nd193 Nd 0.54861 0.07722 0.98559 0.0
C194 C 0.57582 0.99747 0.78175 0.0
C195 C 0.60003 1.00099 0.72355 0.0
C196 C 0.61566 0.97971 0.72709 0.0
C197 C 0.64053 0.98478 0.68024 0.0
C198 C 0.65023 1.01134 0.63007 0.0
C199 C 0.63411 0.03228 0.62539 0.0
C200 C 0.60945 0.02722 0.67184 0.0
C201 C 0.55396 0.08923 0.75966 0.0
C202 C 0.61012 0.07598 0.91275 0.0
C203 C 0.5396 0.11667 0.07201 0.0
C204 C 0.51677 0.11879 0.12946 0.0
C205 C 0.5143 0.14402 0.15607 0.0
C206 C 0.4924 0.14574 0.2106 0.0
C207 C 0.47265 0.12218 0.2397 0.0
C208 C 0.47525 0.09703 0.21178 0.0
C209 C 0.49697 0.09542 0.15694 0.0
C210 C 0.54431 1.02125 0.05745 0.0
C211 C 0.49711 0.0413 0.91086 0.0
O212 O 0.58053 1.00108 0.86196 0.0
O213 O 0.55623 1.00999 0.74926 0.0
O214 O 0.55659 0.06821 0.72225 0.0
O215 O 0.55303 0.08113 0.84146 0.0
O216 O 0.60044 0.05737 0.86519 0.0
O217 O 0.59465 0.08714 0.96226 0.0
O218 O 0.53457 0.11739 0.98904 0.0
O219 O 0.55379 0.09731 0.1025 0.0
O220 O 0.52983 0.03785 0.08483 0.0
O221 O 0.56103 0.03484 0.99778 0.0
O222 O 0.50683 0.06484 0.93709 0.0
O223 O 0.51273 1.02416 0.88829 0.0
H224 H 0.60898 0.95946 0.76788 0.0
H225 H 0.65247 0.96823 0.68534 0.0
H226 H 0.6406 0.05278 0.58596 0.0
H227 H 0.59804 0.04415 0.66899 0.0
H228 H 0.52929 0.16235 0.13484 0.0
H229 H 0.49097 0.16554 0.2298 0.0
H230 H 0.46087 0.07828 0.23401 0.0
H231 H 0.49845 0.07577 0.13662 0.0
Nd232 Nd 0.5267 0.55578 0.98593 0.0
Nd233 Nd 0.56065 0.55053 0.82723 0.0
C234 C 0.49058 0.56791 0.09262 0.0
C235 C 0.48305 0.59369 0.11364 0.0
C236 C 0.47561 0.59462 0.20048 0.0
C237 C 0.47118 0.61971 0.22353 0.0
C238 C 0.47412 0.64436 0.15994 0.0
C239 C 0.48038 0.64303 0.07205 0.0
C240 C 0.48488 0.61792 0.04914 0.0
C241 C 0.58127 0.56587 0.00268 0.0
C242 C 0.54398 0.61053 0.82441 0.0
C243 C 0.59733 0.53782 0.72427 0.0
C244 C 0.60421 0.5107 0.71275 0.0
C245 C 0.60396 0.4892 0.78573 0.0
C246 C 0.60406 0.46178 0.77433 0.0
C247 C 0.60508 0.45558 0.68952 0.0
C248 C 0.60775 0.47749 0.61652 0.0
C249 C 0.60711 0.50485 0.62808 0.0
C250 C 0.50661 0.54251 0.80442 0.0
C251 C 0.54229 0.4956 0.98887 0.0
O252 O 0.48564 0.56301 0.01387 0.0
O253 O 0.51398 0.5625 0.11758 0.0
O254 O 0.56459 0.55253 0.06653 0.0
O255 O 0.56892 0.57418 0.93614 0.0
O256 O 0.52647 0.59736 0.88869 0.0
O257 O 0.56283 0.59809 0.79578 0.0
O258 O 0.60249 0.5453 0.79991 0.0
O259 O 0.57381 0.5424 0.69797 0.0
O260 O 0.52441 0.55494 0.74271 0.0
O261 O 0.51766 0.53324 0.87356 0.0
O262 O 0.55996 0.50868 0.92485 0.0
O263 O 0.52367 0.5083 0.01722 0.0
H264 H 0.47418 0.57616 0.25114 0.0
H265 H 0.46687 0.62003 0.29211 0.0
H266 H 0.48258 0.66156 0.02144 0.0
H267 H 0.49052 0.61768 0.98152 0.0
H268 H 0.60226 0.49338 0.85151 0.0
H269 H 0.60206 0.44525 0.83155 0.0
H270 H 0.60829 0.47317 0.55035 0.0
H271 H 0.60728 0.52111 0.57088 0.0
Nd272 Nd 0.03549 0.57101 0.85324 0.0
Nd273 Nd 0.05154 0.53765 0.03366 0.0
C274 C 1.01336 0.59993 0.72142 0.0
C275 C 0.98617 0.60183 0.69234 0.0
C276 C 0.98244 0.62075 0.61665 0.0
C277 C 0.95712 0.62042 0.58232 0.0
C278 C 0.93495 0.60124 0.62356 0.0
C279 C 0.93869 0.58316 0.70195 0.0
C280 C 0.96412 0.58326 0.73527 0.0
C281 C 0.0508 0.52026 0.84706 0.0
C282 C 0.98829 0.5356 0.00169 0.0
C283 C 0.07322 0.50169 0.14575 0.0
C284 C 0.09785 0.50264 0.19587 0.0
C285 C 0.09587 0.49399 0.28734 0.0
C286 C 0.11881 0.49511 0.33604 0.0
C287 C 0.14441 0.50477 0.29441 0.0
C288 C 0.14636 0.51333 0.20254 0.0
C289 C 0.12336 0.51228 0.15384 0.0
C290 C 0.0478 0.59231 0.04944 0.0
C291 C 0.09754 0.57896 0.89411 0.0
O292 O 0.01996 0.60944 0.79301 0.0
O293 O 0.02146 0.57623 0.71813 0.0
O294 O 0.05809 0.54273 0.78876 0.0
O295 O 0.03573 0.5249 0.90757 0.0
O296 O 0.99518 0.55458 0.92977 0.0
O297 O 1.00607 0.52353 0.04954 0.0
O298 O 0.07636 0.50432 0.06022 0.0
O299 O 0.05477 0.51517 0.16986 0.0
O300 O 0.05414 0.5741 0.11359 0.0
O301 O 0.04456 0.58086 0.98349 0.0
O302 O 0.0914 0.55657 0.95645 0.0
O303 O 0.07906 0.59157 0.85225 0.0
H304 H 0.99931 0.63504 0.58206 0.0
H305 H 0.95528 0.6343 0.52102 0.0
H306 H 0.92215 0.56836 0.73631 0.0
H307 H 0.96676 0.56812 0.79266 0.0
H308 H 0.07649 0.48656 0.32137 0.0
H309 H 0.11638 0.48889 0.40678 0.0
H310 H 0.16567 0.52067 0.16806 0.0
H311 H 0.1256 0.51906 0.08329 0.0
H312 H 0.20814 0.08228 0.67403 0.0
H313 H 0.21691 1.02235 0.90547 0.0
H314 H 0.17359 0.02824 0.96723 0.0
H315 H 0.13058 0.04581 0.94543 0.0
H316 H 0.12153 0.1043 0.70977 0.0
H317 H 0.16752 0.10404 0.66024 0.0
C318 C 0.20088 0.07128 0.73925 0.0
C319 C 0.21573 0.05226 0.78596 0.0
C320 C 0.17567 0.07423 0.77289 0.0
C321 C 0.20595 0.03749 0.86934 0.0
C322 C 0.18108 0.04065 0.90409 0.0
C323 C 0.13889 0.05893 0.88418 0.0
C324 C 0.12254 0.07482 0.83086 0.0
C325 C 0.16534 0.05827 0.85513 0.0
C326 C 0.1336 0.0917 0.75164 0.0
C327 C 0.15991 0.09152 0.72312 0.0
H328 H 0.5634 0.21409 0.55973 0.0
H329 H 0.52169 0.17134 0.36987 0.0
H330 H 0.51802 0.12714 0.47101 0.0
H331 H 0.5306 0.09969 0.60653 0.0
H332 H 0.57009 0.14091 0.80241 0.0
H333 H 0.57044 0.18655 0.70684 0.0
C334 C 0.55306 0.1952 0.54124 0.0
C335 C 0.54345 0.19611 0.45592 0.0
C336 C 0.55086 0.16948 0.6006 0.0
C337 C 0.52996 0.1713 0.43377 0.0
C338 C 0.52776 0.14592 0.49178 0.0
C339 C 0.53895 0.11871 0.62885 0.0
C340 C 0.55057 0.11702 0.71074 0.0
C341 C 0.53884 0.14463 0.57412 0.0
C342 C 0.56101 0.14176 0.73951 0.0
C343 C 0.56133 0.16781 0.6846 0.0
H344 H 0.3843 0.55229 0.84098 0.0
H345 H 0.40059 0.59159 0.56981 0.0
H346 H 0.44553 0.57922 0.57389 0.0
H347 H 0.48183 0.56263 0.65975 0.0
H348 H 0.46603 0.52251 0.93067 0.0
H349 H 0.41929 0.52967 0.92203 0.0
C350 C 0.39746 0.55722 0.78223 0.0
C351 C 0.38918 0.57245 0.70476 0.0
C352 C 0.4235 0.55049 0.78576 0.0
C353 C 0.40649 0.57943 0.62946 0.0
C354 C 0.43225 0.57264 0.63217 0.0
C355 C 0.46808 0.5551 0.71664 0.0
C356 C 0.47755 0.54281 0.79655 0.0
C357 C 0.44125 0.55902 0.71073 0.0
C358 C 0.45938 0.53271 0.86911 0.0
C359 C 0.43263 0.53669 0.86403 0.0
H360 H 0.06871 0.42239 0.65582 0.0
H361 H 0.9943 0.38384 0.79578 0.0
H362 H 0.99698 0.42177 0.88034 0.0
H363 H 1.01719 0.46985 0.89678 0.0
H364 H 0.0906 0.50866 0.74923 0.0
H365 H 0.09196 0.46684 0.68692 0.0
C366 C 0.05365 0.42182 0.70729 0.0
C367 C 0.03158 0.40019 0.72071 0.0
C368 C 0.05496 0.44414 0.75337 0.0
C369 C 1.01175 0.4 0.78574 0.0
C370 C 1.01314 0.4219 0.83323 0.0
C371 C 0.03383 0.46878 0.85295 0.0
C372 C 0.05368 0.49245 0.82713 0.0
C373 C 0.03415 0.44468 0.81525 0.0
C374 C 0.07498 0.49082 0.76962 0.0
C375 C 0.07575 0.46691 0.73367 0.0
H376 H 0.885 0.03599 0.15134 0.0
H377 H 0.88411 0.03814 0.87174 0.0
H378 H 0.93285 0.04726 0.86008 0.0
H379 H 0.97608 0.0531 0.92955 0.0
H380 H 0.97743 0.05196 0.2083 0.0
H381 H 0.9285 0.0441 0.22 0.0
C382 C 0.89548 0.03886 0.08778 0.0
C383 C 0.88082 0.03607 0.01276 0.0
C384 C 0.92372 0.04404 0.0814 0.0
C385 C 0.89483 0.03972 0.93088 0.0
C386 C 0.92276 0.04498 0.92401 0.0
C387 C 0.96563 0.05105 0.99281 0.0
C388 C 0.98035 0.05281 0.06805 0.0
C389 C 0.93746 0.04677 0.99893 0.0
C390 C 0.96655 0.0505 0.14944 0.0
C391 C 0.93854 0.04606 0.15617 0.0
H392 H 0.54184 0.9076 0.3251 0.0
H393 H 0.61567 0.90908 0.17946 0.0
H394 H 0.6084 0.95113 0.0795 0.0
H395 H 0.58301 0.98968 0.04024 0.0
H396 H 0.50981 0.98955 0.18735 0.0
H397 H 0.51474 0.945 0.27924 0.0
C398 C 0.55605 0.91692 0.27058 0.0
C399 C 0.57934 0.90532 0.26009 0.0
C400 C 0.55198 0.94155 0.21393 0.0
C401 C 0.59771 0.91776 0.18947 0.0
C402 C 0.59358 0.94183 0.13224 0.0
C403 C 0.56791 0.97968 0.09142 0.0
C404 C 0.54609 0.99295 0.10686 0.0
C405 C 0.57109 0.95426 0.14484 0.0
C406 C 0.52685 0.97982 0.17422 0.0
C407 C 0.52968 0.95434 0.22692 0.0
H408 H 0.7063 0.60173 0.95218 0.0
H409 H 0.70291 0.55907 0.22156 0.0
H410 H 0.65429 0.54626 0.21789 0.0
H411 H 0.6122 0.54953 0.13967 0.0
H412 H 0.61669 0.59456 0.87268 0.0
H413 H 0.66523 0.60449 0.87459 0.0
C414 C 0.69499 0.58978 0.01052 0.0
C415 C 0.70834 0.58171 0.08739 0.0
C416 C 0.66708 0.5831 0.00856 0.0
C417 C 0.69328 0.56549 0.1613 0.0
C418 C 0.66541 0.55836 0.15946 0.0
C419 C 0.62387 0.56148 0.08205 0.0
C420 C 0.6108 0.57131 0.00615 0.0
C421 C 0.65201 0.56742 0.08379 0.0
C422 C 0.62618 0.58672 0.9319 0.0
C423 C 0.65399 0.59243 0.93288 0.0
H424 H 0.99946 0.70209 0.0637 0.0
H425 H 0.05031 0.70427 0.28258 0.0
H426 H 0.06784 0.66321 0.25149 0.0
H427 H 0.06551 0.62401 0.17003 0.0
H428 H 1.0153 0.62268 0.9494 0.0
H429 H 1.00078 0.66597 0.97267 0.0
C430 C 1.0147 0.69381 0.10371 0.0
C431 C 0.02348 0.70614 0.17569 0.0
C432 C 0.0246 0.67016 0.08549 0.0
C433 C 0.04337 0.69532 0.22652 0.0
C434 C 0.05321 0.67167 0.20919 0.0
C435 C 0.05165 0.63344 0.12645 0.0
C436 C 0.04147 0.62014 0.05797 0.0
C437 C 0.04349 0.6585 0.14015 0.0
C438 C 0.02364 0.63264 0.00179 0.0
C439 C 1.0152 0.65732 0.01555 0.0
H440 H 0.05283 0.24454 0.80449 0.0
H441 H 0.98186 0.22426 0.66652 0.0
H442 H 0.97848 0.17493 0.73356 0.0
H443 H 1.00096 0.13673 0.80944 0.0
H444 H 0.07325 0.15842 0.94226 0.0
H445 H 0.07091 0.20749 0.89924 0.0
C446 C 0.03584 0.22949 0.79308 0.0
C447 C 1.01746 0.23795 0.73181 0.0
C448 C 0.03491 0.20106 0.82809 0.0
C449 C 0.99592 0.21821 0.71519 0.0
C450 C 0.99437 0.18991 0.75189 0.0
C451 C 1.01603 0.1522 0.82948 0.0
C452 C 0.03756 0.14365 0.87716 0.0
C453 C 1.01464 0.18089 0.80458 0.0
C454 C 0.05662 0.1641 0.90417 0.0
C455 C 0.05531 0.19238 0.88002 0.0
H456 H 0.38275 1.01873 0.7666 0.0
H457 H 0.37296 0.0882 0.89074 0.0
H458 H 0.41532 0.08501 0.9623 0.0
H459 H 0.45862 0.06842 0.96492 0.0
H460 H 0.46968 1.0011 0.83052 0.0
H461 H 0.42333 0.99724 0.78829 0.0
C462 C 0.38938 0.03225 0.81273 0.0
C463 C 0.37474 0.05341 0.82466 0.0
C464 C 0.41437 0.0312 0.84946 0.0
C465 C 0.38369 0.07141 0.88232 0.0
C466 C 0.40813 0.06988 0.92181 0.0
C467 C 0.45082 0.05258 0.92756 0.0
C468 C 0.46788 0.03549 0.89927 0.0
C469 C 0.42426 0.05083 0.90196 0.0
C470 C 0.45719 1.01476 0.85236 0.0
C471 C 0.43065 1.01255 0.82801 0.0
H472 H 0.54701 0.34606 0.58962 0.0
H473 H 0.61802 0.35825 0.42071 0.0
H474 H 0.63949 0.39436 0.49762 0.0
H475 H 0.63364 0.4291 0.5899 0.0
H476 H 0.56215 0.41729 0.75713 0.0
H477 H 0.54539 0.37413 0.70564 0.0
C478 C 0.56766 0.35569 0.573 0.0
C479 C 0.58107 0.34966 0.50036 0.0
C480 C 0.57948 0.37697 0.6158 0.0
C481 C 0.6076 0.36248 0.47749 0.0
C482 C 0.61967 0.38339 0.52051 0.0
C483 C 0.6148 0.41654 0.6168 0.0
C484 C 0.59895 0.42642 0.67597 0.0
C485 C 0.60518 0.3919 0.58623 0.0
C486 C 0.57466 0.41002 0.71135 0.0
C487 C 0.56498 0.38545 0.6815 0.0
H488 H 0.20631 0.60411 0.67402 0.0
H489 H 0.22945 0.55081 0.90139 0.0
H490 H 0.18711 0.55198 0.97977 0.0
H491 H 0.14121 0.56242 0.97372 0.0
H492 H 0.11775 0.61431 0.74267 0.0
H493 H 0.16278 0.62001 0.67611 0.0
C494 C 0.20226 0.59335 0.74156 0.0
C495 C 0.22063 0.57722 0.78209 0.0
C496 C 0.17778 0.59366 0.78489 0.0
C497 C 0.21549 0.56339 0.86943 0.0
C498 C 0.19124 0.56389 0.91372 0.0
C499 C 0.14603 0.57534 0.90937 0.0
C500 C 0.12593 0.58741 0.86251 0.0
C501 C 0.17184 0.57805 0.87068 0.0
C502 C 0.1327 0.60457 0.77999 0.0
C503 C 0.15844 0.60773 0.7416 0.0
H504 H 0.08814 0.88814 0.20836 0.0
H505 H 0.02117 0.85903 0.06354 0.0
H506 H 0.02364 0.90585 0.97622 0.0
H507 H 0.03832 0.95647 0.96465 0.0
H508 H 0.10164 0.98579 0.12406 0.0
H509 H 0.10666 0.93781 0.18334 0.0
C510 C 0.0746 0.89192 0.15582 0.0
C511 C 0.05418 0.87028 0.1437 0.0
C512 C 0.07479 0.91925 0.11089 0.0
C513 C 0.03708 0.87526 0.07442 0.0
C514 C 0.03814 0.90221 0.02562 0.0
C515 C 0.0535 0.95239 0.01135 0.0
C516 C 0.06917 0.97473 0.04136 0.0
C517 C 0.05582 0.92464 0.04716 0.0
C518 C 0.0889 0.96903 0.10127 0.0
C519 C 0.09191 0.94156 0.13489 0.0
H520 H 0.72882 0.05932 0.95736 0.0
H521 H 0.72328 0.11176 0.15007 0.0
H522 H 0.67998 0.12136 0.09778 0.0
H523 H 0.64023 0.10748 0.0163 0.0
H524 H 0.64704 0.05605 0.82075 0.0
H525 H 0.69333 0.05416 0.85384 0.0
C526 C 0.71875 0.07377 0.98571 0.0
C527 C 0.72903 0.08416 0.05919 0.0
C528 C 0.69368 0.07899 0.95595 0.0
C529 C 0.71552 0.10289 0.09476 0.0
C530 C 0.69066 0.10832 0.06514 0.0
C531 C 0.652 0.09645 0.97935 0.0
C532 C 0.63972 0.08126 0.9181 0.0
C533 C 0.67889 0.09526 0.99887 0.0
C534 C 0.65558 0.06747 0.86986 0.0
C535 C 0.6822 0.0663 0.8887 0.0
H536 H 0.47835 0.73789 0.38369 0.0
H537 H 0.54803 0.77148 0.21083 0.0
H538 H 0.534 0.73806 0.11543 0.0
H539 H 0.50825 0.69277 0.10283 0.0
H540 H 0.44009 0.65714 0.2812 0.0
H541 H 0.44729 0.69769 0.35326 0.0
C542 C 0.48992 0.73845 0.32342 0.0
C543 C 0.5144 0.75671 0.30507 0.0
C544 C 0.48245 0.71823 0.27148 0.0
C545 C 0.52911 0.75761 0.22641 0.0
C546 C 0.5213 0.73819 0.17253 0.0
C547 C 0.49434 0.69427 0.15532 0.0
C548 C 0.47404 0.67164 0.18794 0.0
C549 C 0.49894 0.71736 0.19756 0.0
C550 C 0.4563 0.67397 0.25636 0.0
C551 C 0.46036 0.69717 0.29745 0.0
H552 H 0.87417 0.50659 0.19763 0.0
H553 H 0.86135 0.57645 0.0005 0.0
H554 H 0.90439 0.57656 0.92798 0.0
H555 H 0.94832 0.56248 0.93479 0.0
H556 H 0.96345 0.49527 0.13737 0.0
H557 H 0.91719 0.48927 0.19547 0.0
C558 C 0.88065 0.5217 0.1383 0.0
C559 C 0.86448 0.54175 0.10575 0.0
C560 C 0.90619 0.52269 0.09933 0.0
C561 C 0.873 0.5606 0.02724 0.0
C562 C 0.89792 0.561 0.98629 0.0
C563 C 0.94151 0.546 0.99028 0.0
C564 C 0.95954 0.5294 0.03157 0.0
C565 C 0.91509 0.54296 0.02393 0.0
C566 C 0.95016 0.50849 0.10448 0.0
C567 C 0.92367 0.50503 0.13767 0.0
H568 H 0.02398 0.25622 0.38991 0.0
H569 H 0.10243 0.27639 0.48464 0.0
H570 H 0.11972 0.24527 0.39817 0.0
H571 H 0.11025 0.20611 0.31761 0.0
H572 H 0.03092 0.18508 0.22789 0.0
H573 H 1.01618 0.22245 0.29064 0.0
C574 C 0.04512 0.25473 0.38809 0.0
C575 C 0.06206 0.26886 0.442 0.0
C576 C 0.05451 0.23585 0.3416 0.0
C577 C 0.08923 0.2662 0.44179 0.0
C578 C 0.09896 0.248 0.39365 0.0
C579 C 0.08992 0.21011 0.31001 0.0
C580 C 0.07157 0.19227 0.26997 0.0
C581 C 0.08147 0.23172 0.34666 0.0
C582 C 0.04527 0.19786 0.26076 0.0
C583 C 0.03685 0.21941 0.29601 0.0
H584 H 0.39664 0.12456 0.5646 0.0
H585 H 0.34513 0.06545 0.44371 0.0
H586 H 0.37601 0.07552 0.31448 0.0
H587 H 0.42067 0.09579 0.2461 0.0
H588 H 0.47408 0.15068 0.37664 0.0
H589 H 0.43957 0.14764 0.49104 0.0
C590 C 0.39199 0.11413 0.50945 0.0
C591 C 0.36877 0.09396 0.51461 0.0
C592 C 0.41048 0.11893 0.43745 0.0
C593 C 0.36274 0.08115 0.44166 0.0
C594 C 0.38062 0.08662 0.36812 0.0
C595 C 0.4248 0.10713 0.29948 0.0
C596 C 0.45026 0.12313 0.3029 0.0
C597 C 0.40507 0.10455 0.36704 0.0
C598 C 0.45481 0.13831 0.37146 0.0
C599 C 0.43507 0.13643 0.43756 0.0
H600 H 0.57445 0.38044 0.16568 0.0
H601 H 0.49482 0.36817 0.28321 0.0
H602 H 0.48687 0.41227 0.19396 0.0
H603 H 0.50454 0.45672 0.09311 0.0
H604 H 0.58546 0.4692 0.98389 0.0
H605 H 0.59088 0.42289 0.05785 0.0
C606 C 0.55508 0.38706 0.16933 0.0
C607 C 0.53501 0.3709 0.2291 0.0
C608 C 0.55106 0.41279 0.1201 0.0
C609 C 0.51027 0.38001 0.23587 0.0
C610 C 0.5059 0.40539 0.18571 0.0
C611 C 0.52327 0.4492 0.08494 0.0
C612 C 0.54448 0.46654 0.03177 0.0
C613 C 0.52645 0.42238 0.12937 0.0
C614 C 0.56858 0.45632 0.02227 0.0
C615 C 0.57181 0.42978 0.06539 0.0
H616 H 0.22744 0.50435 0.59024 0.0
H617 H 0.26065 0.58283 0.4273 0.0
H618 H 0.23029 0.57274 0.31184 0.0
H619 H 0.18871 0.54569 0.27109 0.0
H620 H 0.15501 0.46761 0.43761 0.0
H621 H 0.19086 0.47358 0.53817 0.0
C622 C 0.22877 0.51863 0.52777 0.0
C623 C 0.24627 0.54421 0.51689 0.0
C624 C 0.21046 0.51321 0.46374 0.0
C625 C 0.24762 0.56283 0.43648 0.0
C626 C 0.22989 0.55726 0.37122 0.0
C627 C 0.18953 0.5296 0.3281 0.0
C628 C 0.16867 0.50656 0.34762 0.0
C629 C 0.21032 0.53316 0.38611 0.0
C630 C 0.17022 0.486 0.42217 0.0
C631 C 0.19088 0.48927 0.47949 0.0
H632 H 0.0638 0.85758 0.4756 0.0
H633 H 0.97961 0.83625 0.44007 0.0
H634 H 0.96975 0.86859 0.53516 0.0
H635 H 0.98595 0.90875 0.60668 0.0
H636 H 0.0706 0.93025 0.6386 0.0
H637 H 0.07938 0.89242 0.56598 0.0
C638 C 0.04323 0.85927 0.49153 0.0
C639 C 0.02246 0.84452 0.45116 0.0
C640 C 0.03786 0.87869 0.54324 0.0
C641 C 0.99591 0.84707 0.47137 0.0
C642 C 0.99033 0.86595 0.52452 0.0
C643 C 1.00626 0.9048 0.59959 0.0
C644 C 0.02763 0.92294 0.6263 0.0
C645 C 1.01125 0.88281 0.55751 0.0
C646 C 0.05381 0.91732 0.61634 0.0
C647 C 0.05887 0.89548 0.57539 0.0
H648 H 0.75227 0.06677 0.38962 0.0
H649 H 0.73859 0.98781 0.30278 0.0
H650 H 0.70495 0.96917 0.42323 0.0
H651 H 0.67349 0.9788 0.53413 0.0
H652 H 0.68728 0.05839 0.61864 0.0
H653 H 0.72666 0.07331 0.51854 0.0
C654 C 0.74271 0.04511 0.3996 0.0
C655 C 0.74784 0.02866 0.33778 0.0
C656 C 0.72276 0.03495 0.46692 0.0
C657 C 0.73518 1.00073 0.35035 0.0
C658 C 0.71561 0.99024 0.41835 0.0
C659 C 0.68551 0.99911 0.53236 0.0
C660 C 0.6769 1.01776 0.58189 0.0
C661 C 0.70826 1.00766 0.4742 0.0
C662 C 0.69288 0.04396 0.57904 0.0
C663 C 0.71554 0.05247 0.5222 0.0
H664 H 0.51063 0.72361 0.63629 0.0
H665 H 0.59482 0.74285 0.56286 0.0
H666 H 0.60193 0.69877 0.65333 0.0
H667 H 0.58309 0.65215 0.73981 0.0
H668 H 0.4988 0.63386 0.81436 0.0
H669 H 0.49284 0.67987 0.73713 0.0
C670 C 0.53064 0.71846 0.64218 0.0
C671 C 0.55217 0.73648 0.59311 0.0
C672 C 0.53446 0.69289 0.69309 0.0
C673 C 0.57798 0.72953 0.60091 0.0
C674 C 0.58197 0.70411 0.65164 0.0
C675 C 0.56348 0.65836 0.73954 0.0
C676 C 0.54138 0.63942 0.78206 0.0
C677 C 0.5602 0.68518 0.69566 0.0
C678 C 0.51617 0.64795 0.7823 0.0
C679 C 0.5127 0.6743 0.73795 0.0
H680 H 0.84361 0.60516 0.35657 0.0
H681 H 0.83484 0.51619 0.44301 0.0
H682 H 0.8651 0.52278 0.56105 0.0
H683 H 0.90068 0.55319 0.61773 0.0
H684 H 0.91068 0.64241 0.52931 0.0
H685 H 0.87349 0.63638 0.43334 0.0
C686 C 0.84741 0.58735 0.4039 0.0
C687 C 0.83704 0.56025 0.39167 0.0
C688 C 0.86577 0.5913 0.46909 0.0
C689 C 0.84248 0.53722 0.45199 0.0
C690 C 0.86007 0.541 0.51857 0.0
C691 C 0.89426 0.57148 0.57998 0.0
C692 C 0.90899 0.5982 0.57963 0.0
C693 C 0.87291 0.56787 0.52463 0.0
C694 C 0.9003 0.62151 0.52914 0.0
C695 C 0.87888 0.61811 0.47453 0.0
loop_
_geom_bond_atom_site_label_1
_geom_bond_atom_site_label_2
_geom_bond_distance
_geom_bond_site_symmetry_2
_ccdc_geom_bond_type
H0 C1 0.949 . S
C1 H0 0.949 . S
C1 C2 1.395 . S
C1 C3 1.391 1_556 S
C2 C1 1.395 . S
C2 C5 1.390 1_556 S
C3 C1 1.391 1_554 S
C3 C7 1.387 . S
C3 C8 1.491 . S
H4 C5 0.950 . S
C5 C2 1.390 1_554 S
C5 H4 0.950 . S
C5 C6 1.378 . S
C6 C5 1.378 . S
C6 C7 1.409 . S
C7 C3 1.387 . S
C7 C6 1.409 . S
C7 H9 0.951 . S
C8 C3 1.491 . S
C8 C10 1.382 1_554 S
C8 C12 1.404 . S
H9 C7 0.951 . S
C10 C8 1.382 1_556 S
C10 C11 1.390 . S
C10 H15 0.949 . S
C11 C10 1.390 . S
C11 C16 1.399 . S
C12 C8 1.404 . S
C12 H13 0.950 . S
C12 C14 1.375 . S
H13 C12 0.950 . S
C14 C12 1.375 . S
C14 C16 1.382 1_554 S
C14 H18 0.950 . S
H15 C10 0.949 . S
C16 C11 1.399 . S
C16 C14 1.382 1_556 S
C16 H17 0.952 . S
H17 C16 0.952 . S
H18 C14 0.950 . S
H19 C20 0.943 1_556 S
C20 H19 0.943 1_554 S
C20 C21 1.395 . S
C20 C22 1.391 . S
C21 C20 1.395 . S
C21 C24 1.390 . S
C22 C20 1.391 . S
C22 C26 1.387 . S
C22 C27 1.491 . S
H23 C24 0.950 . S
C24 C21 1.390 . S
C24 H23 0.950 . S
C24 C25 1.378 . S
C25 C24 1.378 . S
C25 C26 1.409 . S
C26 C22 1.387 . S
C26 C25 1.409 . S
C26 H28 0.951 . S
C27 C22 1.491 . S
C27 C29 1.382 . S
C27 C31 1.404 . S
H28 C26 0.951 . S
C29 C27 1.382 . S
C29 C30 1.390 . S
C29 H34 0.933 1_655 S
C30 C29 1.390 . S
C30 C35 1.399 . S
C31 C27 1.404 . S
C31 H32 0.950 . S
C31 C33 1.375 . S
H32 C31 0.950 . S
C33 C31 1.375 . S
C33 C35 1.382 . S
C33 H37 0.950 . S
H34 C29 0.933 1_455 S
C35 C30 1.399 . S
C35 C33 1.382 . S
C35 H36 0.952 . S
H36 C35 0.952 . S
H37 C33 0.950 . S
H38 C39 0.949 1_556 S
C39 H38 0.949 1_554 S
C39 C40 1.395 . S
C39 C41 1.391 . S
C40 C39 1.395 . S
C40 C43 1.390 . S
C41 C39 1.391 . S
C41 C45 1.387 . S
C41 C46 1.491 . S
H42 C43 0.950 . S
C43 C40 1.390 . S
C43 H42 0.950 . S
C43 C44 1.378 . S
C44 C43 1.378 . S
C44 C45 1.409 . S
C45 C41 1.387 . S
C45 C44 1.409 . S
C45 H47 0.951 . S
C46 C41 1.491 . S
C46 C48 1.382 . S
C46 C50 1.404 . S
H47 C45 0.951 . S
C48 C46 1.382 . S
C48 C49 1.390 . S
C48 H53 0.949 1_554 S
C49 C48 1.390 . S
C49 C54 1.399 . S
C50 C46 1.404 . S
C50 H51 0.950 . S
C50 C52 1.375 . S
H51 C50 0.950 . S
C52 C50 1.375 . S
C52 C54 1.382 . S
C52 H56 0.950 . S
H53 C48 0.949 1_556 S
C54 C49 1.399 . S
C54 C52 1.382 . S
C54 H55 0.952 . S
H55 C54 0.952 . S
H56 C52 0.950 . S
H57 C58 0.949 . S
C58 H57 0.949 . S
C58 C59 1.395 . S
C58 C60 1.391 . S
C59 C58 1.395 . S
C59 C62 1.390 . S
C60 C58 1.391 . S
C60 C64 1.387 . S
C60 C65 1.491 . S
H61 C62 0.950 . S
C62 C59 1.390 . S
C62 H61 0.950 . S
C62 C63 1.378 . S
C63 C62 1.378 . S
C63 C64 1.409 . S
C64 C60 1.387 . S
C64 C63 1.409 . S
C64 H66 0.951 . S
C65 C60 1.491 . S
C65 C67 1.382 . S
C65 C69 1.404 . S
H66 C64 0.951 . S
C67 C65 1.382 . S
C67 C68 1.390 . S
C67 H72 0.949 . S
C68 C67 1.390 . S
C68 C73 1.399 . S
C69 C65 1.404 . S
C69 H70 0.950 . S
C69 C71 1.375 . S
H70 C69 0.950 . S
C71 C69 1.375 . S
C71 C73 1.382 . S
C71 H75 0.950 . S
H72 C67 0.949 . S
C73 C68 1.399 . S
C73 C71 1.382 . S
C73 H74 0.952 . S
H74 C73 0.952 . S
H75 C71 0.950 . S
H76 C77 0.949 . S
C77 H76 0.949 . S
C77 C78 1.395 . S
C77 C79 1.391 . S
C78 C77 1.395 . S
C78 C81 1.390 . S
C79 C77 1.391 . S
C79 C83 1.387 . S
C79 C84 1.491 . S
H80 C81 0.950 . S
C81 C78 1.390 . S
C81 H80 0.950 . S
C81 C82 1.378 . S
C82 C81 1.378 . S
C82 C83 1.409 . S
C83 C79 1.387 . S
C83 C82 1.409 . S
C83 H85 0.951 . S
C84 C79 1.491 . S
C84 C86 1.382 . S
C84 C88 1.404 . S
H85 C83 0.951 . S
C86 C84 1.382 . S
C86 C87 1.390 . S
C86 H91 0.949 . S
C87 C86 1.390 . S
C87 C92 1.399 . S
C88 C84 1.404 . S
C88 H89 0.950 . S
C88 C90 1.375 . S
H89 C88 0.950 . S
C90 C88 1.375 . S
C90 C92 1.382 . S
C90 H94 0.950 . S
H91 C86 0.949 . S
C92 C87 1.399 . S
C92 C90 1.382 . S
C92 H93 0.952 . S
H93 C92 0.952 . S
H94 C90 0.950 . S
H95 C96 0.949 . S
C96 H95 0.949 . S
C96 C97 1.395 . S
C96 C98 1.391 . S
C97 C96 1.395 . S
C97 C100 1.390 . S
C98 C96 1.391 . S
C98 C102 1.387 . S
C98 C103 1.491 . S
H99 C100 0.950 . S
C100 C97 1.390 . S
C100 H99 0.950 . S
C100 C101 1.378 . S
C101 C100 1.378 . S
C101 C102 1.409 . S
C102 C98 1.387 . S
C102 C101 1.409 . S
C102 H104 0.951 . S
C103 C98 1.491 . S
C103 C105 1.382 . S
C103 C107 1.404 . S
H104 C102 0.951 . S
C105 C103 1.382 . S
C105 C106 1.390 . S
C105 H110 0.949 . S
C106 C105 1.390 . S
C106 C111 1.399 . S
C107 C103 1.404 . S
C107 H108 0.950 . S
C107 C109 1.375 . S
H108 C107 0.950 . S
C109 C107 1.375 . S
C109 C111 1.382 . S
C109 H113 0.950 . S
H110 C105 0.949 . S
C111 C106 1.399 . S
C111 C109 1.382 . S
C111 H112 0.952 . S
H112 C111 0.952 . S
H113 C109 0.950 . S
H114 C115 0.949 . S
C115 H114 0.949 . S
C115 C116 1.395 . S
C115 C117 1.391 . S
C116 C115 1.395 . S
C116 C119 1.390 . S
C117 C115 1.391 . S
C117 C121 1.387 . S
C117 C122 1.491 . S
H118 C119 0.950 . S
C119 C116 1.390 . S
C119 H118 0.950 . S
C119 C120 1.378 . S
C120 C119 1.378 . S
C120 C121 1.409 . S
C121 C117 1.387 . S
C121 C120 1.409 . S
C121 H123 0.951 . S
C122 C117 1.491 . S
C122 C124 1.382 . S
C122 C126 1.404 . S
H123 C121 0.951 . S
C124 C122 1.382 . S
C124 C125 1.390 . S
C124 H129 0.949 . S
C125 C124 1.390 . S
C125 C130 1.399 . S
C126 C122 1.404 . S
C126 H127 0.950 . S
C126 C128 1.375 . S
H127 C126 0.950 . S
C128 C126 1.375 . S
C128 C130 1.382 . S
C128 H132 0.950 . S
H129 C124 0.949 . S
C130 C125 1.399 . S
C130 C128 1.382 . S
C130 H131 0.952 . S
H131 C130 0.952 . S
H132 C128 0.950 . S
H133 C134 0.949 . S
C134 H133 0.949 . S
C134 C135 1.395 . S
C134 C136 1.391 . S
C135 C134 1.395 . S
C135 C138 1.390 . S
C136 C134 1.391 . S
C136 C140 1.387 . S
C136 C141 1.491 . S
H137 C138 0.950 . S
C138 C135 1.390 . S
C138 H137 0.950 . S
C138 C139 1.378 . S
C139 C138 1.378 . S
C139 C140 1.409 . S
C140 C136 1.387 . S
C140 C139 1.409 . S
C140 H142 0.951 . S
C141 C136 1.491 . S
C141 C143 1.382 . S
C141 C145 1.404 . S
H142 C140 0.951 . S
C143 C141 1.382 . S
C143 C144 1.390 . S
C143 H148 0.949 . S
C144 C143 1.390 . S
C144 C149 1.399 . S
C145 C141 1.404 . S
C145 H146 0.950 . S
C145 C147 1.375 . S
H146 C145 0.950 . S
C147 C145 1.375 . S
C147 C149 1.382 . S
C147 H151 0.950 . S
H148 C143 0.949 . S
C149 C144 1.399 . S
C149 C147 1.382 . S
C149 H150 0.952 . S
H150 C149 0.952 . S
H151 C147 0.950 . S
Nd152 C154 2.836 1_545 S
Nd152 O172 2.493 1_445 S
Nd152 O173 2.492 . S
Nd152 O174 2.487 . S
Nd152 O175 2.682 . S
Nd152 O176 2.410 1_545 S
Nd152 O181 2.414 1_455 S
Nd152 O183 2.424 . S
Nd153 C163 2.836 . S
Nd153 O175 2.414 1_554 S
Nd153 O177 2.424 1_545 S
Nd153 O178 2.500 . S
Nd153 O179 2.492 . S
Nd153 O180 2.487 1_455 S
Nd153 O181 2.682 1_454 S
Nd153 O182 2.410 1_554 S
C154 Nd152 2.836 1_565 S
C154 C155 1.498 . S
C154 O172 1.247 1_455 S
C154 O173 1.239 1_565 S
C155 C154 1.498 . S
C155 C156 1.366 1_455 S
C155 C160 1.407 . S
C156 C155 1.366 1_655 S
C156 C157 1.392 . S
C156 H184 0.930 . S
C157 C156 1.392 . S
C157 C158 1.398 1_655 S
C157 H185 0.929 . S
C158 C157 1.398 1_455 S
C158 C159 1.352 . S
C159 C158 1.352 . S
C159 C160 1.384 . S
C159 H186 0.930 . S
C160 C155 1.407 . S
C160 C159 1.384 . S
C160 H187 0.929 . S
C161 O174 1.241 . S
C161 O175 1.273 . S
C162 O176 1.251 . S
C162 O177 1.268 1_556 S
C163 Nd153 2.836 . S
C163 C164 1.498 . S
C163 O178 1.258 . S
C163 O179 1.239 . S
C164 C163 1.498 . S
C164 C165 1.366 . S
C164 C169 1.407 . S
C165 C164 1.366 . S
C165 C166 1.392 . S
C165 H188 0.930 . S
C166 C165 1.392 . S
C166 C167 1.398 . S
C166 H189 0.929 . S
C167 C166 1.398 . S
C167 C168 1.352 . S
C168 C167 1.352 . S
C168 C169 1.384 . S
C168 H190 0.930 . S
C169 C164 1.407 . S
C169 C168 1.384 . S
C169 H191 0.929 . S
C170 O180 1.241 1_556 S
C170 O181 1.273 . S
C171 O182 1.251 . S
C171 O183 1.268 . S
O172 Nd152 2.493 1_665 S
O172 C154 1.247 1_655 S
O173 Nd152 2.492 . S
O173 C154 1.239 1_545 S
O174 Nd152 2.487 . S
O174 C161 1.241 . S
O175 Nd152 2.682 . S
O175 Nd153 2.414 1_556 S
O175 C161 1.273 . S
O176 Nd152 2.410 1_565 S
O176 C162 1.251 . S
O177 Nd153 2.424 1_565 S
O177 C162 1.268 1_554 S
O178 Nd153 2.500 . S
O178 C163 1.258 . S
O179 Nd153 2.492 . S
O179 C163 1.239 . S
O180 Nd153 2.487 1_655 S
O180 C170 1.241 1_554 S
O181 Nd152 2.414 1_655 S
O181 Nd153 2.682 1_656 S
O181 C170 1.273 . S
O182 Nd153 2.410 1_556 S
O182 C171 1.251 . S
O183 Nd152 2.424 . S
O183 C171 1.268 . S
H184 C156 0.930 . S
H185 C157 0.929 . S
H186 C159 0.930 . S
H187 C160 0.929 . S
H188 C165 0.930 . S
H189 C166 0.929 . S
H190 C168 0.930 . S
H191 C169 0.929 . S
Nd192 C194 2.836 . S
Nd192 O212 2.500 1_545 S
Nd192 O213 2.492 . S
Nd192 O214 2.487 . S
Nd192 O215 2.682 . S
Nd192 O216 2.410 . S
Nd192 O221 2.414 . S
Nd192 O223 2.424 . S
Nd193 C203 2.836 . S
Nd193 O215 2.414 1_554 S
Nd193 O217 2.424 . S
Nd193 O218 2.500 . S
Nd193 O219 2.492 . S
Nd193 O220 2.487 1_545 S
Nd193 O221 2.682 1_554 S
Nd193 O222 2.410 1_554 S
C194 Nd192 2.836 . S
C194 C195 1.498 1_545 S
C194 O212 1.258 1_545 S
C194 O213 1.239 . S
C195 C194 1.498 1_565 S
C195 C196 1.366 . S
C195 C200 1.407 1_565 S
C196 C195 1.366 . S
C196 C197 1.392 . S
C196 H224 0.930 . S
C197 C196 1.392 . S
C197 C198 1.398 . S
C197 H225 0.929 . S
C198 C197 1.398 . S
C198 C199 1.352 1_565 S
C199 C198 1.352 1_545 S
C199 C200 1.384 . S
C199 H226 0.930 . S
C200 C195 1.407 1_545 S
C200 C199 1.384 . S
C200 H227 0.929 . S
C201 O214 1.241 . S
C201 O215 1.273 . S
C202 O216 1.251 . S
C202 O217 1.268 1_556 S
C203 Nd193 2.836 . S
C203 C204 1.498 . S
C203 O218 1.258 . S
C203 O219 1.239 . S
C204 C203 1.498 . S
C204 C205 1.366 . S
C204 C209 1.407 . S
C205 C204 1.366 . S
C205 C206 1.392 . S
C205 H228 0.930 . S
C206 C205 1.392 . S
C206 C207 1.398 . S
C206 H229 0.929 . S
C207 C206 1.398 . S
C207 C208 1.352 . S
C208 C207 1.352 . S
C208 C209 1.384 . S
C208 H230 0.930 . S
C209 C204 1.407 . S
C209 C208 1.384 . S
C209 H231 0.929 . S
C210 O220 1.241 . S
C210 O221 1.273 1_564 S
C211 O222 1.251 . S
C211 O223 1.268 . S
O212 Nd192 2.500 1_565 S
O212 C194 1.258 1_565 S
O213 Nd192 2.492 . S
O213 C194 1.239 . S
O214 Nd192 2.487 . S
O214 C201 1.241 . S
O215 Nd192 2.682 . S
O215 Nd193 2.414 1_556 S
O215 C201 1.273 . S
O216 Nd192 2.410 . S
O216 C202 1.251 . S
O217 Nd193 2.424 . S
O217 C202 1.268 1_554 S
O218 Nd193 2.500 . S
O218 C203 1.258 . S
O219 Nd193 2.492 . S
O219 C203 1.239 . S
O220 Nd193 2.487 1_565 S
O220 C210 1.241 . S
O221 Nd192 2.414 . S
O221 Nd193 2.682 1_556 S
O221 C210 1.273 1_546 S
O222 Nd193 2.410 1_556 S
O222 C211 1.251 . S
O223 Nd192 2.424 . S
O223 C211 1.268 . S
H224 C196 0.930 . S
H225 C197 0.929 . S
H226 C199 0.930 . S
H227 C200 0.929 . S
H228 C205 0.930 . S
H229 C206 0.929 . S
H230 C208 0.930 . S
H231 C209 0.929 . S
Nd232 C234 2.836 . S
Nd232 O252 2.500 . S
Nd232 O253 2.492 . S
Nd232 O254 2.487 . S
Nd232 O255 2.682 1_554 S
Nd232 O256 2.410 1_554 S
Nd232 O261 2.414 1_554 S
Nd232 O263 2.424 . S
Nd233 C243 2.836 . S
Nd233 O255 2.414 . S
Nd233 O257 2.424 . S
Nd233 O258 2.500 . S
Nd233 O259 2.492 . S
Nd233 O260 2.487 . S
Nd233 O261 2.682 . S
Nd233 O262 2.410 . S
C234 Nd232 2.836 . S
C234 C235 1.498 . S
C234 O252 1.258 . S
C234 O253 1.239 . S
C235 C234 1.498 . S
C235 C236 1.366 . S
C235 C240 1.407 . S
C236 C235 1.366 . S
C236 C237 1.392 . S
C236 H264 0.930 . S
C237 C236 1.392 . S
C237 C238 1.398 . S
C237 H265 0.929 . S
C238 C237 1.398 . S
C238 C239 1.352 . S
C239 C238 1.352 . S
C239 C240 1.384 . S
C239 H266 0.930 . S
C240 C235 1.407 . S
C240 C239 1.384 . S
C240 H267 0.929 . S
C241 O254 1.241 1_556 S
C241 O255 1.273 . S
C242 O256 1.251 . S
C242 O257 1.268 . S
C243 Nd233 2.836 . S
C243 C244 1.498 . S
C243 O258 1.258 . S
C243 O259 1.239 . S
C244 C243 1.498 . S
C244 C245 1.366 . S
C244 C249 1.407 . S
C245 C244 1.366 . S
C245 C246 1.392 . S
C245 H268 0.930 . S
C246 C245 1.392 . S
C246 C247 1.398 . S
C246 H269 0.929 . S
C247 C246 1.398 . S
C247 C248 1.352 . S
C248 C247 1.352 . S
C248 C249 1.384 . S
C248 H270 0.930 . S
C249 C244 1.407 . S
C249 C248 1.384 . S
C249 H271 0.929 . S
C250 O260 1.241 . S
C250 O261 1.273 . S
C251 O262 1.251 1_554 S
C251 O263 1.268 . S
O252 Nd232 2.500 . S
O252 C234 1.258 . S
O253 Nd232 2.492 . S
O253 C234 1.239 . S
O254 Nd232 2.487 . S
O254 C241 1.241 1_554 S
O255 Nd232 2.682 1_556 S
O255 Nd233 2.414 . S
O255 C241 1.273 . S
O256 Nd232 2.410 1_556 S
O256 C242 1.251 . S
O257 Nd233 2.424 . S
O257 C242 1.268 . S
O258 Nd233 2.500 . S
O258 C243 1.258 . S
O259 Nd233 2.492 . S
O259 C243 1.239 . S
O260 Nd233 2.487 . S
O260 C250 1.241 . S
O261 Nd232 2.414 1_556 S
O261 Nd233 2.682 . S
O261 C250 1.273 . S
O262 Nd233 2.410 . S
O262 C251 1.251 1_556 S
O263 Nd232 2.424 . S
O263 C251 1.268 . S
H264 C236 0.930 . S
H265 C237 0.929 . S
H266 C239 0.930 . S
H267 C240 0.929 . S
H268 C245 0.930 . S
H269 C246 0.929 . S
H270 C248 0.930 . S
H271 C249 0.929 . S
Nd272 C274 2.836 1_455 S
Nd272 O292 2.500 1_455 S
Nd272 O293 2.492 1_455 S
Nd272 O294 2.487 . S
Nd272 O295 2.682 . S
Nd272 O296 2.410 1_455 S
Nd272 O301 2.414 . S
Nd272 O303 2.424 . S
Nd273 C283 2.836 . S
Nd273 O295 2.414 1_554 S
Nd273 O297 2.424 1_455 S
Nd273 O298 2.500 . S
Nd273 O299 2.492 . S
Nd273 O300 2.487 . S
Nd273 O301 2.682 1_554 S
Nd273 O302 2.410 1_554 S
C274 Nd272 2.836 1_655 S
C274 C275 1.498 . S
C274 O292 1.258 . S
C274 O293 1.239 . S
C275 C274 1.498 . S
C275 C276 1.366 . S
C275 C280 1.407 . S
C276 C275 1.366 . S
C276 C277 1.392 . S
C276 H304 0.930 . S
C277 C276 1.392 . S
C277 C278 1.398 . S
C277 H305 0.929 . S
C278 C277 1.398 . S
C278 C279 1.352 . S
C279 C278 1.352 . S
C279 C280 1.384 . S
C279 H306 0.930 . S
C280 C275 1.407 . S
C280 C279 1.384 . S
C280 H307 0.929 . S
C281 O294 1.241 . S
C281 O295 1.273 . S
C282 O296 1.251 . S
C282 O297 1.268 1_556 S
C283 Nd273 2.836 . S
C283 C284 1.498 . S
C283 O298 1.258 . S
C283 O299 1.239 . S
C284 C283 1.498 . S
C284 C285 1.366 . S
C284 C289 1.407 . S
C285 C284 1.366 . S
C285 C286 1.392 . S
C285 H308 0.930 . S
C286 C285 1.392 . S
C286 C287 1.398 . S
C286 H309 0.929 . S
C287 C286 1.398 . S
C287 C288 1.352 . S
C288 C287 1.352 . S
C288 C289 1.384 . S
C288 H310 0.930 . S
C289 C284 1.407 . S
C289 C288 1.384 . S
C289 H311 0.929 . S
C290 O300 1.241 1_556 S
C290 O301 1.273 . S
C291 O302 1.251 . S
C291 O303 1.268 . S
O292 Nd272 2.500 1_655 S
O292 C274 1.258 . S
O293 Nd272 2.492 1_655 S
O293 C274 1.239 . S
O294 Nd272 2.487 . S
O294 C281 1.241 . S
O295 Nd272 2.682 . S
O295 Nd273 2.414 1_556 S
O295 C281 1.273 . S
O296 Nd272 2.410 1_655 S
O296 C282 1.251 . S
O297 Nd273 2.424 1_655 S
O297 C282 1.268 1_554 S
O298 Nd273 2.500 . S
O298 C283 1.258 . S
O299 Nd273 2.492 . S
O299 C283 1.239 . S
O300 Nd273 2.487 . S
O300 C290 1.241 1_554 S
O301 Nd272 2.414 . S
O301 Nd273 2.682 1_556 S
O301 C290 1.273 . S
O302 Nd273 2.410 1_556 S
O302 C291 1.251 . S
O303 Nd272 2.424 . S
O303 C291 1.268 . S
H304 C276 0.930 . S
H305 C277 0.929 . S
H306 C279 0.930 . S
H307 C280 0.929 . S
H308 C285 0.930 . S
H309 C286 0.929 . S
H310 C288 0.930 . S
H311 C289 0.929 . S
H312 C318 0.930 . S
H313 C321 0.930 1_554 S
H314 C322 0.923 1_554 S
H315 C323 0.930 1_554 S
H316 C326 0.930 . S
H317 C327 0.930 . S
C318 H312 0.930 . S
C318 C319 1.355 . S
C318 C320 1.415 . S
C319 C318 1.355 . S
C319 C321 1.419 . S
C320 C318 1.415 . S
C320 C325 1.425 . S
C320 C327 1.409 . S
C321 H313 0.930 1_556 S
C321 C319 1.419 . S
C321 C322 1.364 . S
C322 H314 0.923 1_556 S
C322 C321 1.364 . S
C322 C325 1.415 . S
C323 H315 0.930 1_556 S
C323 C324 1.355 . S
C323 C325 1.415 . S
C324 C323 1.355 . S
C324 C326 1.419 . S
C325 C320 1.425 . S
C325 C322 1.415 . S
C325 C323 1.415 . S
C326 H316 0.930 . S
C326 C324 1.419 . S
C326 C327 1.362 . S
C327 H317 0.930 . S
C327 C320 1.409 . S
C327 C326 1.362 . S
H328 C334 0.930 . S
H329 C337 0.930 . S
H330 C338 0.930 . S
H331 C339 0.930 . S
H332 C342 0.930 . S
H333 C343 0.930 . S
C334 H328 0.930 . S
C334 C335 1.355 . S
C334 C336 1.415 . S
C335 C334 1.355 . S
C335 C337 1.419 . S
C336 C334 1.415 . S
C336 C341 1.425 . S
C336 C343 1.409 . S
C337 H329 0.930 . S
C337 C335 1.419 . S
C337 C338 1.362 . S
C338 H330 0.930 . S
C338 C337 1.362 . S
C338 C341 1.409 . S
C339 H331 0.930 . S
C339 C340 1.355 . S
C339 C341 1.415 . S
C340 C339 1.355 . S
C340 C342 1.419 . S
C341 C336 1.425 . S
C341 C338 1.409 . S
C341 C339 1.415 . S
C342 H332 0.930 . S
C342 C340 1.419 . S
C342 C343 1.362 . S
C343 H333 0.930 . S
C343 C336 1.409 . S
C343 C342 1.362 . S
H344 C350 0.930 1_554 S
H345 C353 0.930 . S
H346 C354 0.930 . S
H347 C355 0.930 . S
H348 C358 0.930 . S
H349 C359 0.930 . S
C350 H344 0.930 1_556 S
C350 C351 1.355 . S
C350 C352 1.415 . S
C351 C350 1.355 . S
C351 C353 1.419 . S
C352 C350 1.415 . S
C352 C357 1.425 . S
C352 C359 1.409 1_556 S
C353 H345 0.930 . S
C353 C351 1.419 . S
C353 C354 1.362 . S
C354 H346 0.930 . S
C354 C353 1.362 . S
C354 C357 1.409 . S
C355 H347 0.930 . S
C355 C356 1.355 . S
C355 C357 1.415 . S
C356 C355 1.355 . S
C356 C358 1.419 1_556 S
C357 C352 1.425 . S
C357 C354 1.409 . S
C357 C355 1.415 . S
C358 H348 0.930 . S
C358 C356 1.419 1_554 S
C358 C359 1.362 . S
C359 H349 0.930 . S
C359 C352 1.409 1_554 S
C359 C358 1.362 . S
H360 C366 0.930 . S
H361 C369 0.930 . S
H362 C370 0.930 . S
H363 C371 0.930 . S
H364 C374 0.930 . S
H365 C375 0.930 . S
C366 H360 0.930 . S
C366 C367 1.355 . S
C366 C368 1.415 . S
C367 C366 1.355 . S
C367 C369 1.419 . S
C368 C366 1.415 . S
C368 C373 1.425 . S
C368 C375 1.409 . S
C369 H361 0.930 . S
C369 C367 1.419 . S
C369 C370 1.362 . S
C370 H362 0.930 . S
C370 C369 1.362 . S
C370 C373 1.409 . S
C371 H363 0.930 . S
C371 C372 1.355 . S
C371 C373 1.415 . S
C372 C371 1.355 . S
C372 C374 1.419 . S
C373 C368 1.425 . S
C373 C370 1.409 . S
C373 C371 1.415 . S
C374 H364 0.930 . S
C374 C372 1.419 . S
C374 C375 1.362 . S
C375 H365 0.930 . S
C375 C368 1.409 . S
C375 C374 1.362 . S
H376 C382 0.930 . S
H377 C385 0.930 . S
H378 C386 0.930 . S
H379 C387 0.930 . S
H380 C390 0.930 . S
H381 C391 0.930 . S
C382 H376 0.930 . S
C382 C383 1.355 1_545 S
C382 C384 1.415 . S
C383 C382 1.355 1_565 S
C383 C385 1.419 . S
C384 C382 1.415 . S
C384 C389 1.425 1_545 S
C384 C391 1.409 . S
C385 H377 0.930 . S
C385 C383 1.419 . S
C385 C386 1.362 . S
C386 H378 0.930 . S
C386 C385 1.362 . S
C386 C389 1.409 . S
C387 H379 0.930 . S
C387 C388 1.355 1_565 S
C387 C389 1.415 . S
C388 C387 1.355 1_545 S
C388 C390 1.419 . S
C389 C384 1.425 1_565 S
C389 C386 1.409 . S
C389 C387 1.415 . S
C390 H380 0.930 . S
C390 C388 1.419 . S
C390 C391 1.362 . S
C391 H381 0.930 . S
C391 C384 1.409 . S
C391 C390 1.362 . S
H392 C398 0.930 . S
H393 C401 0.930 . S
H394 C402 0.930 . S
H395 C403 0.930 . S
H396 C406 0.930 . S
H397 C407 0.930 . S
C398 H392 0.930 . S
C398 C399 1.355 . S
C398 C400 1.415 . S
C399 C398 1.355 . S
C399 C401 1.419 . S
C400 C398 1.415 . S
C400 C405 1.425 . S
C400 C407 1.409 . S
C401 H393 0.930 . S
C401 C399 1.419 . S
C401 C402 1.362 . S
C402 H394 0.930 . S
C402 C401 1.362 . S
C402 C405 1.409 . S
C403 H395 0.930 . S
C403 C404 1.355 . S
C403 C405 1.415 . S
C404 C403 1.355 . S
C404 C406 1.419 . S
C405 C400 1.425 . S
C405 C402 1.409 . S
C405 C403 1.415 . S
C406 H396 0.930 . S
C406 C404 1.419 . S
C406 C407 1.362 . S
C407 H397 0.930 . S
C407 C400 1.409 . S
C407 C406 1.362 . S
H408 C414 0.930 . S
H409 C417 0.930 . S
H410 C418 0.930 . S
H411 C419 0.930 1_554 S
H412 C422 0.930 . S
H413 C423 0.930 . S
C414 H408 0.930 . S
C414 C415 1.355 . S
C414 C416 1.415 . S
C415 C414 1.355 . S
C415 C417 1.419 1_556 S
C416 C414 1.415 . S
C416 C421 1.425 . S
C416 C423 1.409 . S
C417 H409 0.930 . S
C417 C415 1.419 1_554 S
C417 C418 1.362 . S
C418 H410 0.930 . S
C418 C417 1.362 . S
C418 C421 1.409 1_554 S
C419 H411 0.930 1_556 S
C419 C420 1.355 . S
C419 C421 1.415 . S
C420 C419 1.355 . S
C420 C422 1.419 . S
C421 C416 1.425 . S
C421 C418 1.409 1_556 S
C421 C419 1.415 . S
C422 H412 0.930 . S
C422 C420 1.419 . S
C422 C423 1.362 . S
C423 H413 0.930 . S
C423 C416 1.409 . S
C423 C422 1.362 . S
H424 C430 0.930 . S
H425 C433 0.930 . S
H426 C434 0.930 . S
H427 C435 0.932 . S
H428 C438 0.930 . S
H429 C439 0.930 . S
C430 H424 0.930 . S
C430 C431 1.355 1_556 S
C430 C432 1.415 . S
C431 C430 1.355 1_554 S
C431 C433 1.419 1_655 S
C432 C430 1.415 . S
C432 C437 1.425 1_656 S
C432 C439 1.409 . S
C433 H425 0.930 . S
C433 C431 1.419 1_455 S
C433 C434 1.362 . S
C434 H426 0.930 . S
C434 C433 1.362 . S
C434 C437 1.409 . S
C435 H427 0.932 . S
C435 C436 1.350 1_554 S
C435 C437 1.416 . S
C436 C435 1.350 1_556 S
C436 C438 1.419 1_455 S
C437 C432 1.425 1_454 S
C437 C434 1.409 . S
C437 C435 1.416 . S
C438 H428 0.930 . S
C438 C436 1.419 1_655 S
C438 C439 1.362 . S
C439 H429 0.930 . S
C439 C432 1.409 . S
C439 C438 1.362 . S
H440 C446 0.930 . S
H441 C449 0.930 . S
H442 C450 0.930 . S
H443 C451 0.930 . S
H444 C454 0.930 . S
H445 C455 0.930 . S
C446 H440 0.930 . S
C446 C447 1.355 . S
C446 C448 1.415 . S
C447 C446 1.355 . S
C447 C449 1.419 . S
C448 C446 1.415 . S
C448 C453 1.425 . S
C448 C455 1.409 . S
C449 H441 0.930 . S
C449 C447 1.419 . S
C449 C450 1.362 . S
C450 H442 0.930 . S
C450 C449 1.362 . S
C450 C453 1.409 . S
C451 H443 0.930 . S
C451 C452 1.355 . S
C451 C453 1.415 . S
C452 C451 1.355 . S
C452 C454 1.419 . S
C453 C448 1.425 . S
C453 C450 1.409 . S
C453 C451 1.415 . S
C454 H444 0.930 . S
C454 C452 1.419 . S
C454 C455 1.362 . S
C455 H445 0.930 . S
C455 C448 1.409 . S
C455 C454 1.362 . S
H456 C462 0.930 . S
H457 C465 0.930 . S
H458 C466 0.930 . S
H459 C467 0.930 . S
H460 C470 0.930 . S
H461 C471 0.930 . S
C462 H456 0.930 . S
C462 C463 1.355 . S
C462 C464 1.415 . S
C463 C462 1.355 . S
C463 C465 1.419 . S
C464 C462 1.415 . S
C464 C469 1.425 . S
C464 C471 1.409 . S
C465 H457 0.930 . S
C465 C463 1.419 . S
C465 C466 1.362 . S
C466 H458 0.930 . S
C466 C465 1.362 . S
C466 C469 1.409 . S
C467 H459 0.930 . S
C467 C468 1.355 . S
C467 C469 1.415 . S
C468 C467 1.355 . S
C468 C470 1.419 . S
C469 C464 1.425 . S
C469 C466 1.409 . S
C469 C467 1.415 . S
C470 H460 0.930 . S
C470 C468 1.419 . S
C470 C471 1.362 . S
C471 H461 0.930 . S
C471 C464 1.409 . S
C471 C470 1.362 . S
H472 C478 0.930 . S
H473 C481 0.930 . S
H474 C482 0.930 . S
H475 C483 0.930 . S
H476 C486 0.930 . S
H477 C487 0.930 . S
C478 H472 0.930 . S
C478 C479 1.355 . S
C478 C480 1.415 . S
C479 C478 1.355 . S
C479 C481 1.419 . S
C480 C478 1.415 . S
C480 C485 1.425 . S
C480 C487 1.409 . S
C481 H473 0.930 . S
C481 C479 1.419 . S
C481 C482 1.362 . S
C482 H474 0.930 . S
C482 C481 1.362 . S
C482 C485 1.409 . S
C483 H475 0.930 . S
C483 C484 1.355 . S
C483 C485 1.415 . S
C484 C483 1.355 . S
C484 C486 1.419 . S
C485 C480 1.425 . S
C485 C482 1.409 . S
C485 C483 1.415 . S
C486 H476 0.930 . S
C486 C484 1.419 . S
C486 C487 1.362 . S
C487 H477 0.930 . S
C487 C480 1.409 . S
C487 C486 1.362 . S
H488 C494 0.930 . S
H489 C497 0.930 . S
H490 C498 0.930 . S
H491 C499 0.930 . S
H492 C502 0.930 . S
H493 C503 0.930 . S
C494 H488 0.930 . S
C494 C495 1.355 . S
C494 C496 1.415 . S
C495 C494 1.355 . S
C495 C497 1.419 . S
C496 C494 1.415 . S
C496 C501 1.425 . S
C496 C503 1.409 . S
C497 H489 0.930 . S
C497 C495 1.419 . S
C497 C498 1.362 . S
C498 H490 0.930 . S
C498 C497 1.362 . S
C498 C501 1.409 . S
C499 H491 0.930 . S
C499 C500 1.355 . S
C499 C501 1.415 . S
C500 C499 1.355 . S
C500 C502 1.419 . S
C501 C496 1.425 . S
C501 C498 1.409 . S
C501 C499 1.415 . S
C502 H492 0.930 . S
C502 C500 1.419 . S
C502 C503 1.362 . S
C503 H493 0.930 . S
C503 C496 1.409 . S
C503 C502 1.362 . S
H504 C510 0.930 . S
H505 C513 0.930 . S
H506 C514 0.930 . S
H507 C515 0.930 1_655 S
H508 C518 0.930 . S
H509 C519 0.930 . S
C510 H504 0.930 . S
C510 C511 1.355 1_456 S
C510 C512 1.415 . S
C511 C510 1.355 1_654 S
C511 C513 1.419 . S
C512 C510 1.415 . S
C512 C517 1.425 1_456 S
C512 C519 1.409 . S
C513 H505 0.930 . S
C513 C511 1.419 . S
C513 C514 1.362 . S
C514 H506 0.930 . S
C514 C513 1.362 . S
C514 C517 1.409 . S
C515 H507 0.930 1_455 S
C515 C516 1.355 1_554 S
C515 C517 1.415 1_455 S
C516 C515 1.355 1_556 S
C516 C518 1.419 . S
C517 C512 1.425 1_654 S
C517 C514 1.409 . S
C517 C515 1.415 1_655 S
C518 H508 0.930 . S
C518 C516 1.419 . S
C518 C519 1.362 . S
C519 H509 0.930 . S
C519 C512 1.409 . S
C519 C518 1.362 . S
H520 C526 0.930 . S
H521 C529 0.928 1_554 S
H522 C530 0.930 . S
H523 C531 0.930 . S
H524 C534 0.930 . S
H525 C535 0.930 . S
C526 H520 0.930 . S
C526 C527 1.355 . S
C526 C528 1.415 . S
C527 C526 1.355 . S
C527 C529 1.419 1_565 S
C528 C526 1.415 . S
C528 C533 1.425 1_565 S
C528 C535 1.409 . S
C529 H521 0.928 1_556 S
C529 C527 1.419 1_545 S
C529 C530 1.362 . S
C530 H522 0.930 . S
C530 C529 1.362 . S
C530 C533 1.409 . S
C531 H523 0.930 . S
C531 C532 1.355 . S
C531 C533 1.415 . S
C532 C531 1.355 . S
C532 C534 1.419 1_545 S
C533 C528 1.425 1_545 S
C533 C530 1.409 . S
C533 C531 1.415 . S
C534 H524 0.930 . S
C534 C532 1.419 1_565 S
C534 C535 1.362 . S
C535 H525 0.930 . S
C535 C528 1.409 . S
C535 C534 1.362 . S
H536 C542 0.930 . S
H537 C545 0.930 . S
H538 C546 0.930 . S
H539 C547 0.930 . S
H540 C550 0.930 . S
H541 C551 0.930 . S
C542 H536 0.930 . S
C542 C543 1.355 . S
C542 C544 1.415 . S
C543 C542 1.355 . S
C543 C545 1.419 . S
C544 C542 1.415 . S
C544 C549 1.425 . S
C544 C551 1.409 . S
C545 H537 0.930 . S
C545 C543 1.419 . S
C545 C546 1.362 . S
C546 H538 0.930 . S
C546 C545 1.362 . S
C546 C549 1.409 . S
C547 H539 0.930 . S
C547 C548 1.355 . S
C547 C549 1.415 . S
C548 C547 1.355 . S
C548 C550 1.419 . S
C549 C544 1.425 . S
C549 C546 1.409 . S
C549 C547 1.415 . S
C550 H540 0.930 . S
C550 C548 1.419 . S
C550 C551 1.362 . S
C551 H541 0.930 . S
C551 C544 1.409 . S
C551 C550 1.362 . S
H552 C558 0.930 1_554 S
H553 C561 0.930 . S
H554 C562 0.930 . S
H555 C563 0.930 . S
H556 C566 0.930 . S
H557 C567 0.930 . S
C558 H552 0.930 1_556 S
C558 C559 1.355 . S
C558 C560 1.415 . S
C559 C558 1.355 . S
C559 C561 1.419 . S
C560 C558 1.415 . S
C560 C565 1.425 . S
C560 C567 1.409 1_556 S
C561 H553 0.930 . S
C561 C559 1.419 . S
C561 C562 1.362 . S
C562 H554 0.930 . S
C562 C561 1.362 . S
C562 C565 1.409 . S
C563 H555 0.930 . S
C563 C564 1.355 . S
C563 C565 1.415 . S
C564 C563 1.355 . S
C564 C566 1.419 1_556 S
C565 C560 1.425 . S
C565 C562 1.409 . S
C565 C563 1.415 . S
C566 H556 0.930 . S
C566 C564 1.419 1_554 S
C566 C567 1.362 . S
C567 H557 0.930 . S
C567 C560 1.409 1_554 S
C567 C566 1.362 . S
H568 C574 0.930 . S
H569 C577 0.930 . S
H570 C578 0.930 . S
H571 C579 0.930 . S
H572 C582 0.930 . S
H573 C583 0.930 . S
C574 H568 0.930 . S
C574 C575 1.355 . S
C574 C576 1.415 . S
C575 C574 1.355 . S
C575 C577 1.419 . S
C576 C574 1.415 . S
C576 C581 1.425 . S
C576 C583 1.409 . S
C577 H569 0.930 . S
C577 C575 1.419 . S
C577 C578 1.362 . S
C578 H570 0.930 . S
C578 C577 1.362 . S
C578 C581 1.409 . S
C579 H571 0.930 . S
C579 C580 1.355 . S
C579 C581 1.415 . S
C580 C579 1.355 . S
C580 C582 1.419 . S
C581 C576 1.425 . S
C581 C578 1.409 . S
C581 C579 1.415 . S
C582 H572 0.930 . S
C582 C580 1.419 . S
C582 C583 1.362 . S
C583 H573 0.930 . S
C583 C576 1.409 . S
C583 C582 1.362 . S
H584 C590 0.930 . S
H585 C593 0.930 . S
H586 C594 0.930 . S
H587 C595 0.930 . S
H588 C598 0.930 . S
H589 C599 0.930 . S
C590 H584 0.930 . S
C590 C591 1.355 . S
C590 C592 1.415 . S
C591 C590 1.355 . S
C591 C593 1.419 . S
C592 C590 1.415 . S
C592 C597 1.425 . S
C592 C599 1.409 . S
C593 H585 0.930 . S
C593 C591 1.419 . S
C593 C594 1.362 . S
C594 H586 0.930 . S
C594 C593 1.362 . S
C594 C597 1.409 . S
C595 H587 0.930 . S
C595 C596 1.355 . S
C595 C597 1.415 . S
C596 C595 1.355 . S
C596 C598 1.419 . S
C597 C592 1.425 . S
C597 C594 1.409 . S
C597 C595 1.415 . S
C598 H588 0.930 . S
C598 C596 1.419 . S
C598 C599 1.362 . S
C599 H589 0.930 . S
C599 C592 1.409 . S
C599 C598 1.362 . S
H600 C606 0.930 . S
H601 C609 0.930 . S
H602 C610 0.930 . S
H603 C611 0.930 . S
H604 C614 0.930 . S
H605 C615 0.930 . S
C606 H600 0.930 . S
C606 C607 1.355 . S
C606 C608 1.415 . S
C607 C606 1.355 . S
C607 C609 1.419 . S
C608 C606 1.415 . S
C608 C613 1.425 . S
C608 C615 1.409 . S
C609 H601 0.930 . S
C609 C607 1.419 . S
C609 C610 1.362 . S
C610 H602 0.930 . S
C610 C609 1.362 . S
C610 C613 1.409 . S
C611 H603 0.930 . S
C611 C612 1.355 . S
C611 C613 1.415 . S
C612 C611 1.355 . S
C612 C614 1.419 . S
C613 C608 1.425 . S
C613 C610 1.409 . S
C613 C611 1.415 . S
C614 H604 0.930 . S
C614 C612 1.419 . S
C614 C615 1.362 . S
C615 H605 0.930 . S
C615 C608 1.409 . S
C615 C614 1.362 . S
H616 C622 0.930 . S
H617 C625 0.930 . S
H618 C626 0.930 . S
H619 C627 0.930 . S
H620 C630 0.930 . S
H621 C631 0.930 . S
C622 H616 0.930 . S
C622 C623 1.355 . S
C622 C624 1.415 . S
C623 C622 1.355 . S
C623 C625 1.419 . S
C624 C622 1.415 . S
C624 C629 1.425 . S
C624 C631 1.409 . S
C625 H617 0.930 . S
C625 C623 1.419 . S
C625 C626 1.362 . S
C626 H618 0.930 . S
C626 C625 1.362 . S
C626 C629 1.409 . S
C627 H619 0.930 . S
C627 C628 1.355 . S
C627 C629 1.415 . S
C628 C627 1.355 . S
C628 C630 1.419 . S
C629 C624 1.425 . S
C629 C626 1.409 . S
C629 C627 1.415 . S
C630 H620 0.930 . S
C630 C628 1.419 . S
C630 C631 1.362 . S
C631 H621 0.930 . S
C631 C624 1.409 . S
C631 C630 1.362 . S
H632 C638 0.930 . S
H633 C641 0.930 . S
H634 C642 0.930 . S
H635 C643 0.930 . S
H636 C646 0.930 . S
H637 C647 0.930 . S
C638 H632 0.930 . S
C638 C639 1.355 1_455 S
C638 C640 1.415 . S
C639 C638 1.355 1_655 S
C639 C641 1.419 . S
C640 C638 1.415 . S
C640 C645 1.425 1_455 S
C640 C647 1.409 . S
C641 H633 0.930 . S
C641 C639 1.419 . S
C641 C642 1.362 . S
C642 H634 0.930 . S
C642 C641 1.362 . S
C642 C645 1.409 . S
C643 H635 0.930 . S
C643 C644 1.355 1_655 S
C643 C645 1.415 . S
C644 C643 1.355 1_455 S
C644 C646 1.419 . S
C645 C640 1.425 1_655 S
C645 C642 1.409 . S
C645 C643 1.415 . S
C646 H636 0.930 . S
C646 C644 1.419 . S
C646 C647 1.362 . S
C647 H637 0.930 . S
C647 C640 1.409 . S
C647 C646 1.362 . S
H648 C654 0.930 . S
H649 C657 0.930 . S
H650 C658 0.930 . S
H651 C659 0.930 . S
H652 C662 0.930 . S
H653 C663 0.930 1_545 S
C654 H648 0.930 . S
C654 C655 1.355 . S
C654 C656 1.415 . S
C655 C654 1.355 . S
C655 C657 1.419 . S
C656 C654 1.415 . S
C656 C661 1.425 . S
C656 C663 1.409 . S
C657 H649 0.930 . S
C657 C655 1.419 . S
C657 C658 1.362 . S
C658 H650 0.930 . S
C658 C657 1.362 . S
C658 C661 1.409 . S
C659 H651 0.930 . S
C659 C660 1.355 . S
C659 C661 1.415 . S
C660 C659 1.355 . S
C660 C662 1.419 . S
C661 C656 1.425 . S
C661 C658 1.409 . S
C661 C659 1.415 . S
C662 H652 0.930 . S
C662 C660 1.419 . S
C662 C663 1.362 . S
C663 H653 0.930 1_565 S
C663 C656 1.409 . S
C663 C662 1.362 . S
H664 C670 0.930 . S
H665 C673 0.930 . S
H666 C674 0.930 . S
H667 C675 0.930 . S
H668 C678 0.930 . S
H669 C679 0.930 . S
C670 H664 0.930 . S
C670 C671 1.355 . S
C670 C672 1.415 . S
C671 C670 1.355 . S
C671 C673 1.419 . S
C672 C670 1.415 . S
C672 C677 1.425 . S
C672 C679 1.409 . S
C673 H665 0.930 . S
C673 C671 1.419 . S
C673 C674 1.362 . S
C674 H666 0.930 . S
C674 C673 1.362 . S
C674 C677 1.409 . S
C675 H667 0.930 . S
C675 C676 1.355 . S
C675 C677 1.415 . S
C676 C675 1.355 . S
C676 C678 1.419 . S
C677 C672 1.425 . S
C677 C674 1.409 . S
C677 C675 1.415 . S
C678 H668 0.930 . S
C678 C676 1.419 . S
C678 C679 1.362 . S
C679 H669 0.930 . S
C679 C672 1.409 . S
C679 C678 1.362 . S
H680 C686 0.930 . S
H681 C689 0.930 . S
H682 C690 0.930 . S
H683 C691 0.930 . S
H684 C694 0.930 . S
H685 C695 0.930 . S
C686 H680 0.930 . S
C686 C687 1.355 . S
C686 C688 1.415 . S
C687 C686 1.355 . S
C687 C689 1.419 . S
C688 C686 1.415 . S
C688 C693 1.425 . S
C688 C695 1.409 . S
C689 H681 0.930 . S
C689 C687 1.419 . S
C689 C690 1.362 . S
C690 H682 0.930 . S
C690 C689 1.362 . S
C690 C693 1.409 . S
C691 H683 0.930 . S
C691 C692 1.355 . S
C691 C693 1.415 . S
C692 C691 1.355 . S
C692 C694 1.419 . S
C693 C688 1.425 . S
C693 C690 1.409 . S
C693 C691 1.415 . S
C694 H684 0.930 . S
C694 C692 1.419 . S
C694 C695 1.362 . S
C695 H685 0.930 . S
C695 C688 1.409 . S
C695 C694 1.362 . S
C319 C125 1.470 . S
C324 C161 1.639 . S
C340 C201 1.347 . S
C335 C144 1.442 . S
C356 C250 1.466 . S
C351 C87 1.241 . S
C372 C281 1.775 . S
C367 C106 1.708 . S
C388 C170 1.654 . S
C383 C49 1.575 1_556 S
C399 C68 1.448 . S
C404 C210 1.266 . S
C415 C11 1.293 . S
C420 C241 1.477 . S
C431 C30 1.796 . S
C436 C290 1.832 . S
C452 C171 1.257 . S
C447 C97 1.087 . S
C468 C211 1.665 . S
C463 C116 1.483 . S
C484 C247 0.941 . S
C479 C135 0.876 . S
C495 C78 1.269 . S
C500 C291 1.450 . S
C511 C21 1.035 . S
C516 C162 1.247 . S
C532 C202 1.646 . S
C527 C40 1.418 1_556 S
C548 C238 0.941 . S
C543 C59 0.882 . S
C559 C2 1.314 . S
C564 C282 1.451 . S
C575 C101 1.603 . S
C580 C167 1.647 . S
C591 C120 1.409 . S
C596 C207 1.415 . S
C612 C251 1.953 . S
C607 C139 1.814 . S
C628 C287 1.414 . S
C623 C82 1.400 . S
C639 C25 1.613 . S
C644 C158 1.644 . S
C660 C198 1.386 . S
C655 C44 1.399 . S
C676 C242 1.953 . S
C671 C63 1.802 . S
C687 C6 1.396 . S
C692 C278 1.411 . S
