# Generated by pormake.
# Topology pyr, (3,6)-cn, num edge types: 1
# Building blocks:
#     Node 0, Type 0, BuildingBlock: CUQRIR_clean_linker_1, # of connection points: 3
#     Node 1, Type 0, BuildingBlock: CUQRIR_clean_linker_1, # of connection points: 3
#     Node 2, Type 0, BuildingBlock: CUQRIR_clean_linker_1, # of connection points: 3
#     Node 3, Type 0, BuildingBlock: CUQRIR_clean_linker_1, # of connection points: 3
#     Node 4, Type 0, BuildingBlock: CUQRIR_clean_linker_1, # of connection points: 3
#     Node 5, Type 0, BuildingBlock: CUQRIR_clean_linker_1, # of connection points: 3
#     Node 6, Type 0, BuildingBlock: CUQRIR_clean_linker_1, # of connection points: 3
#     Node 7, Type 0, BuildingBlock: CUQRIR_clean_linker_1, # of connection points: 3
#     Node 8, Type 1, BuildingBlock: BETDIP_clean_sbu_0, # of connection points: 6
#     Node 9, Type 1, BuildingBlock: BETDIP_clean_sbu_0, # of connection points: 6
#     Node 10, Type 1, BuildingBlock: BETDIP_clean_sbu_0, # of connection points: 6
#     Node 11, Type 1, BuildingBlock: BETDIP_clean_sbu_0, # of connection points: 6
#     Edge 12, Type (0, 1), BuildingBlock: AJUNOK_clean_linker_0, # of connection points: 2
#     Edge 13, Type (0, 1), BuildingBlock: AJUNOK_clean_linker_0, # of connection points: 2
#     Edge 14, Type (0, 1), BuildingBlock: AJUNOK_clean_linker_0, # of connection points: 2
#     Edge 15, Type (0, 1), BuildingBlock: AJUNOK_clean_linker_0, # of connection points: 2
#     Edge 16, Type (0, 1), BuildingBlock: AJUNOK_clean_linker_0, # of connection points: 2
#     Edge 17, Type (0, 1), BuildingBlock: AJUNOK_clean_linker_0, # of connection points: 2
#     Edge 18, Type (0, 1), BuildingBlock: AJUNOK_clean_linker_0, # of connection points: 2
#     Edge 19, Type (0, 1), BuildingBlock: AJUNOK_clean_linker_0, # of connection points: 2
#     Edge 20, Type (0, 1), BuildingBlock: AJUNOK_clean_linker_0, # of connection points: 2
#     Edge 21, Type (0, 1), BuildingBlock: AJUNOK_clean_linker_0, # of connection points: 2
#     Edge 22, Type (0, 1), BuildingBlock: AJUNOK_clean_linker_0, # of connection points: 2
#     Edge 23, Type (0, 1), BuildingBlock: AJUNOK_clean_linker_0, # of connection points: 2
#     Edge 24, Type (0, 1), BuildingBlock: AJUNOK_clean_linker_0, # of connection points: 2
#     Edge 25, Type (0, 1), BuildingBlock: AJUNOK_clean_linker_0, # of connection points: 2
#     Edge 26, Type (0, 1), BuildingBlock: AJUNOK_clean_linker_0, # of connection points: 2
#     Edge 27, Type (0, 1), BuildingBlock: AJUNOK_clean_linker_0, # of connection points: 2
#     Edge 28, Type (0, 1), BuildingBlock: AJUNOK_clean_linker_0, # of connection points: 2
#     Edge 29, Type (0, 1), BuildingBlock: AJUNOK_clean_linker_0, # of connection points: 2
#     Edge 30, Type (0, 1), BuildingBlock: AJUNOK_clean_linker_0, # of connection points: 2
#     Edge 31, Type (0, 1), BuildingBlock: AJUNOK_clean_linker_0, # of connection points: 2
#     Edge 32, Type (0, 1), BuildingBlock: AJUNOK_clean_linker_0, # of connection points: 2
#     Edge 33, Type (0, 1), BuildingBlock: AJUNOK_clean_linker_0, # of connection points: 2
#     Edge 34, Type (0, 1), BuildingBlock: AJUNOK_clean_linker_0, # of connection points: 2
#     Edge 35, Type (0, 1), BuildingBlock: AJUNOK_clean_linker_0, # of connection points: 2
# Relax obj value: 0.296
# Max RMSD: 0.308
# Mean RMSD: 0.179
data_MOF--net-pyr--node1-BETDIP_clean_sbu_0--node2-CUQRIR_clean_linker_1--edge1-AJUNOK_clean_linker_0
_symmetry_space_group_name_H-M    P1
_symmetry_Int_Tables_number       1
_symmetry_cell_setting            triclinic
loop_
_symmetry_equiv_pos_as_xyz
'x, y, z'
_cell_length_a     23.640015
_cell_length_b     25.907402
_cell_length_c     24.698436
_cell_angle_alpha  87.320298
_cell_angle_beta   93.613705
_cell_angle_gamma 109.51724
loop_
_atom_site_label
_atom_site_type_symbol
_atom_site_fract_x
_atom_site_fract_y
_atom_site_fract_z
_atom_type_partial_charge
C0 C 0.45588 0.45479 0.29331 0.0
N1 N 0.47133 0.41088 0.31121 0.0
N2 N 0.45042 0.45752 0.23827 0.0
C3 C 0.43585 0.48963 0.33015 0.0
C4 C 0.47185 0.41778 0.22381 0.0
N5 N 0.4847 0.38982 0.26781 0.0
C6 C 0.47098 0.40049 0.16648 0.0
H7 H 0.38697 0.48226 0.3234 0.0
H8 H 0.4597 0.53352 0.32075 0.0
H9 H 0.44583 0.48115 0.37352 0.0
H10 H 0.46468 0.43203 0.137 0.0
H11 H 0.43383 0.36124 0.16004 0.0
H12 H 0.51366 0.3933 0.15952 0.0
C13 C 0.12174 0.82242 0.77776 0.0
N14 N 0.1087 0.86348 0.80015 0.0
N15 N 0.1432 0.79364 0.81594 0.0
C16 C 0.12188 0.81495 0.71769 0.0
C17 C 0.13908 0.81694 0.86284 0.0
N18 N 0.11966 0.86028 0.85339 0.0
C19 C 0.1658 0.80422 0.91671 0.0
H20 H 0.10955 0.77085 0.70895 0.0
H21 H 0.16779 0.83605 0.70359 0.0
H22 H 0.08995 0.83208 0.69485 0.0
H23 H 0.20989 0.83632 0.92526 0.0
H24 H 0.17228 0.76371 0.91662 0.0
H25 H 0.13594 0.80431 0.94958 0.0
C26 C 0.60287 0.39934 0.91586 0.0
N27 N 0.63486 0.39328 0.96308 0.0
N28 N 0.62756 0.44954 0.89048 0.0
C29 C 0.54982 0.35473 0.89209 0.0
C30 C 0.67551 0.47403 0.92488 0.0
N31 N 0.68131 0.44025 0.96756 0.0
C32 C 0.71312 0.53378 0.92054 0.0
H33 H 0.5499 0.31369 0.90699 0.0
H34 H 0.54999 0.35685 0.84712 0.0
H35 H 0.5079 0.36057 0.90387 0.0
H36 H 0.72497 0.55138 0.96151 0.0
H37 H 0.68903 0.55769 0.89607 0.0
H38 H 0.75563 0.53807 0.90126 0.0
C39 C 0.8519 0.72778 0.4013 0.0
N40 N 0.90504 0.76576 0.38587 0.0
N41 N 0.82847 0.74478 0.44313 0.0
C42 C 0.82198 0.67348 0.37485 0.0
C43 C 0.86888 0.79462 0.45374 0.0
N44 N 0.91571 0.80869 0.41988 0.0
C45 C 0.86383 0.82933 0.49972 0.0
H46 H 0.82385 0.6783 0.33007 0.0
H47 H 0.77437 0.65516 0.38554 0.0
H48 H 0.84625 0.64489 0.38876 0.0
H49 H 0.82138 0.81192 0.52076 0.0
H50 H 0.86761 0.87119 0.48428 0.0
H51 H 0.90088 0.83277 0.53064 0.0
C52 C 0.59391 0.84213 0.98158 0.0
N53 N 0.62762 0.83259 0.9435 0.0
N54 N 0.56056 0.87248 0.9606 0.0
C55 C 0.60042 0.82965 1.04128 0.0
C56 C 0.57318 0.87834 0.90748 0.0
N57 N 0.61494 0.85539 0.89716 0.0
C58 C 0.55395 0.91629 0.86832 0.0
H59 H 0.61815 0.79516 1.04844 0.0
H60 H 0.55625 0.81949 1.05974 0.0
H61 H 0.63169 0.86643 1.06148 0.0
H62 H 0.58672 0.95836 0.87174 0.0
H63 H 0.50911 0.91727 0.87802 0.0
H64 H 0.55255 0.90303 0.82601 0.0
C65 C 0.95189 0.3943 0.52133 0.0
N66 N 0.96962 0.37742 0.47627 0.0
N67 N 0.9264 0.43345 0.50899 0.0
C68 C 0.95012 0.36612 0.5761 0.0
C69 C 0.93297 0.44163 0.4548 0.0
N70 N 0.95508 0.40506 0.43411 0.0
C71 C 0.90723 0.47893 0.42042 0.0
H72 H 0.91137 0.32742 0.57625 0.0
H73 H 0.94522 0.39259 0.60831 0.0
H74 H 0.99159 0.35552 0.5847 0.0
H75 H 0.923 0.5204 0.43764 0.0
H76 H 0.85744 0.46341 0.42078 0.0
H77 H 0.92108 0.48213 0.37794 0.0
C78 C 0.35306 0.71568 0.31977 0.0
N79 N 0.40216 0.75501 0.34245 0.0
N80 N 0.32521 0.73664 0.27917 0.0
C81 C 0.33282 0.65592 0.33681 0.0
C82 C 0.35761 0.79055 0.27822 0.0
N83 N 0.4053 0.80281 0.31527 0.0
C84 C 0.34173 0.83198 0.24068 0.0
H85 H 0.36958 0.63905 0.33234 0.0
H86 H 0.29279 0.63135 0.31231 0.0
H87 H 0.32225 0.65153 0.38026 0.0
H88 H 0.29333 0.81738 0.22773 0.0
H89 H 0.36824 0.8388 0.20393 0.0
H90 H 0.35226 0.87178 0.26062 0.0
C91 C 0.10285 0.38918 0.82871 0.0
N92 N 0.13451 0.38441 0.7847 0.0
N93 N 0.1251 0.43997 0.85176 0.0
C94 C 0.04708 0.34569 0.8472 0.0
C95 C 0.1716 0.4661 0.81955 0.0
N96 N 0.17751 0.4337 0.77915 0.0
C97 C 0.21367 0.52329 0.82964 0.0
H98 H 1.02164 0.32097 0.81261 0.0
H99 H 1.01776 0.36425 0.86675 0.0
H100 H 0.05998 0.31825 0.87767 0.0
H101 H 0.25952 0.52864 0.81695 0.0
H102 H 0.21604 0.53301 0.87318 0.0
H103 H 0.19658 0.55282 0.80592 0.0
Tb104 Tb 0.99412 0.09284 0.59749 0.0
Tb105 Tb 0.10277 0.11571 0.56252 0.0
C106 C 0.88256 1.06233 0.60915 0.0
C107 C 0.84571 1.02561 0.64989 0.0
C108 C 0.7858 0.99456 0.6368 0.0
C109 C 0.75082 0.95977 0.67603 0.0
C110 C 0.77565 0.95571 0.72862 0.0
C111 C 0.83621 0.98567 0.74092 0.0
C112 C 0.871 1.0202 0.70186 0.0
C113 C 0.06953 0.17804 0.65592 0.0
C114 C 0.06697 1.03544 0.6654 0.0
C115 C 0.21386 0.13756 0.55097 0.0
C116 C 0.26661 0.18392 0.5369 0.0
C117 C 0.26746 0.23792 0.54104 0.0
C118 C 0.31217 0.2807 0.51654 0.0
C119 C 0.35538 0.26955 0.48678 0.0
C120 C 0.35781 0.21621 0.48748 0.0
C121 C 0.31349 0.17353 0.51247 0.0
C122 C 1.02686 1.02824 0.50751 0.0
C123 C 1.02952 0.18074 0.50509 0.0
O124 O 0.9076 1.03905 0.57684 0.0
O125 O 0.92026 0.10826 0.62709 0.0
O126 O 0.06902 0.17131 0.60477 0.0
O127 O 1.02932 0.13462 0.67485 0.0
O128 O 1.01176 1.03333 0.65333 0.0
O129 O 0.11074 1.06889 0.63751 0.0
O130 O 0.1908 0.13892 0.59725 0.0
O131 O 0.17265 0.12158 0.51199 0.0
O132 O 1.03006 1.03683 0.55842 0.0
O133 O 0.06464 1.07175 0.48646 0.0
O134 O 0.08457 0.18637 0.52361 0.0
O135 O 0.98681 0.13646 0.52069 0.0
H136 H 0.76588 0.99793 0.59663 0.0
H137 H 0.70389 0.9378 0.66593 0.0
H138 H 0.85618 0.98336 0.78127 0.0
H139 H 0.9174 1.04344 0.71257 0.0
H140 H 0.23153 0.24655 0.55989 0.0
H141 H 0.30975 0.32175 0.51648 0.0
H142 H 0.39042 0.2067 0.46443 0.0
H143 H 0.31333 0.13191 0.50919 0.0
Tb144 Tb 0.5905 0.11745 0.19021 0.0
Tb145 Tb 0.47562 0.10433 0.15315 0.0
C146 C 0.70225 0.13512 0.20061 0.0
C147 C 0.75605 0.18307 0.20933 0.0
C148 C 0.75409 0.23596 0.19781 0.0
C149 C 0.80005 0.28127 0.21817 0.0
C150 C 0.84786 0.27401 0.25088 0.0
C151 C 0.85284 0.22156 0.25725 0.0
C152 C 0.80698 0.17623 0.2366 0.0
C153 C 0.51343 1.03026 0.2433 0.0
C154 C 0.52829 0.18605 0.24426 0.0
C155 C 0.36422 0.08936 0.14118 0.0
C156 C 0.31477 1.06232 0.10154 0.0
C157 C 0.28356 1.00574 0.10592 0.0
C158 C 0.24065 0.97969 1.06569 0.0
C159 C 0.22813 1.00971 1.02049 0.0
C160 C 0.25626 1.06673 1.01787 0.0
C161 C 0.29903 0.09287 1.05818 0.0
C162 C 0.55549 0.18591 0.09536 0.0
C163 C 0.53391 1.04083 0.08955 0.0
O164 O 0.67275 0.13328 0.15387 0.0
O165 O 0.66643 0.12196 0.24088 0.0
O166 O 0.51155 1.04367 0.19304 0.0
O167 O 0.55831 1.06855 0.26498 0.0
O168 O 0.58041 0.18957 0.22561 0.0
O169 O 0.48254 0.14266 0.23128 0.0
O170 O 0.38713 1.05781 0.1713 0.0
O171 O 0.40594 0.13295 0.12376 0.0
O172 O 0.55701 0.17652 0.14649 0.0
O173 O 0.5077 0.14852 1.0763 0.0
O174 O 0.48111 1.04193 0.1013 0.0
O175 O 0.58285 1.07167 0.11605 0.0
H176 H 0.715 0.24193 0.17679 0.0
H177 H 0.79515 0.32137 0.2132 0.0
H178 H 0.88865 0.21484 0.28309 0.0
H179 H 0.809 0.13554 0.24574 0.0
H180 H 0.29373 0.98118 0.13936 0.0
H181 H 0.21977 0.93557 1.06836 0.0
H182 H 0.24693 0.09068 0.98347 0.0
H183 H 0.32126 0.13674 1.05438 0.0
Tb184 Tb 0.51481 0.63688 0.64755 0.0
Tb185 Tb 0.49787 0.54224 0.57903 0.0
C186 C 0.50077 0.71412 0.69642 0.0
C187 C 0.44712 0.72198 0.71634 0.0
C188 C 0.3929 0.70762 0.68471 0.0
C189 C 0.34186 0.71411 0.70462 0.0
C190 C 0.34381 0.73399 0.75691 0.0
C191 C 0.39792 0.74737 0.7888 0.0
C192 C 0.4492 0.74155 0.76858 0.0
C193 C 0.56424 0.56477 0.69371 0.0
C194 C 0.38841 0.53377 0.64838 0.0
C195 C 0.52057 0.46011 0.54946 0.0
C196 C 0.57884 0.45044 0.55391 0.0
C197 C 0.62203 0.47437 0.59538 0.0
C198 C 0.67986 0.47079 0.59575 0.0
C199 C 0.69557 0.44324 0.5546 0.0
C200 C 0.6518 0.41833 0.51389 0.0
C201 C 0.59418 0.42218 0.5135 0.0
C202 C 0.46685 0.61954 0.51569 0.0
C203 C 0.61674 0.64346 0.57116 0.0
O204 O 0.5037 0.7139 0.64376 0.0
O205 O 0.51655 0.67503 0.72102 0.0
O206 O 0.51437 0.55468 0.66621 0.0
O207 O 0.58884 0.61777 0.69342 0.0
O208 O 0.42009 0.58476 0.66286 0.0
O209 O 0.40931 0.50779 0.61372 0.0
O210 O 0.49588 0.46126 0.59506 0.0
O211 O 0.51864 0.50032 0.51642 0.0
O212 O 0.48453 0.62075 0.56558 0.0
O213 O 0.46151 0.57038 0.50156 0.0
O214 O 0.59419 0.58956 0.57481 0.0
O215 O 0.58928 0.6733 0.59366 0.0
H216 H 0.38998 0.69176 0.64443 0.0
H217 H 0.30142 0.70492 0.67847 0.0
H218 H 0.40068 0.7627 0.8293 0.0
H219 H 0.49044 0.75216 0.7938 0.0
H220 H 0.61148 0.49692 0.62679 0.0
H221 H 0.71235 0.48979 0.62796 0.0
H222 H 0.66271 0.39721 0.48134 0.0
H223 H 0.56212 0.40445 0.48081 0.0
Tb224 Tb 1.00855 0.64151 1.08072 0.0
Tb225 Tb 1.00417 0.55256 0.15852 0.0
C226 C 0.98261 0.70638 1.01218 0.0
C227 C 0.9379 0.7341 1.00278 0.0
C228 C 0.91621 0.73968 0.94945 0.0
C229 C 0.86774 0.75872 0.9395 0.0
C230 C 0.8406 0.77284 0.9828 0.0
C231 C 0.86363 0.76887 1.03614 0.0
C232 C 0.91189 0.74942 1.04603 0.0
C233 C 0.11354 0.65035 0.1336 0.0
C234 C 0.97171 0.65397 0.20428 0.0
C235 C 0.04381 0.48968 0.21762 0.0
C236 C 0.10275 0.48144 0.21532 0.0
C237 C 0.14927 0.50634 0.25373 0.0
C238 C 0.20763 0.50627 0.24773 0.0
C239 C 0.22082 0.48105 0.20331 0.0
C240 C 0.17402 0.45451 0.16585 0.0
C241 C 0.11562 0.45484 0.17166 0.0
C242 C 0.89719 0.53778 0.10741 0.0
C243 C 0.04989 0.54788 1.03496 0.0
O244 O 0.96036 0.6531 1.01016 0.0
O245 O 1.02288 0.72257 1.05223 0.0
O246 O 0.0618 0.6339 0.15116 0.0
O247 O 0.10835 0.66647 0.08348 0.0
O248 O 0.97002 0.66938 0.15165 0.0
O249 O 0.98582 0.60876 0.2169 0.0
O250 O 0.04695 0.53844 0.23184 0.0
O251 O 1.00476 0.47246 0.17693 0.0
O252 O 0.94877 0.55782 0.08793 0.0
O253 O 0.90535 0.5234 0.15775 0.0
O254 O 0.04855 0.53043 0.08713 0.0
O255 O 0.03348 0.59131 1.02266 0.0
H256 H 0.93555 0.72758 0.91559 0.0
H257 H 0.85089 0.76171 0.89806 0.0
H258 H 0.84297 0.77897 1.07022 0.0
H259 H 0.92776 0.74474 0.0873 0.0
H260 H 0.1408 0.52711 0.28783 0.0
H261 H 0.24238 0.52552 0.27821 0.0
H262 H 0.18281 0.43413 0.13163 0.0
H263 H 0.08099 0.43533 0.14122 0.0
C264 C 0.47739 0.35845 0.39657 0.0
C265 C 0.44351 0.37727 0.35672 0.0
C266 C 0.44927 0.32463 0.44016 0.0
C267 C 0.38665 0.30911 0.44463 0.0
H268 H 0.52547 0.36951 0.39343 0.0
H269 H 0.47632 0.31012 0.47014 0.0
S270 S 0.27733 0.33922 0.34468 0.0
N271 N 0.34368 0.37174 0.32045 0.0
N272 N 0.29128 0.30966 0.40217 0.0
C273 C 0.35238 0.32616 0.40375 0.0
C274 C 0.38068 0.35977 0.35971 0.0
C275 C 0.10896 0.90416 0.93657 0.0
C276 C 0.13815 0.90643 0.88831 0.0
C277 C 0.13637 0.94042 0.97847 0.0
C278 C 0.19344 0.98021 0.97285 0.0
H279 H 0.06687 0.8717 0.94328 0.0
H280 H 0.11436 0.9355 1.01646 0.0
S281 S 0.28787 1.00217 0.85409 0.0
N282 N 0.22657 0.95098 0.83735 0.0
N283 N 0.27722 1.02034 0.91478 0.0
C284 C 0.2213 0.98465 0.92349 0.0
C285 C 0.19381 0.94742 0.88146 0.0
C286 C 0.55052 0.47298 0.82605 0.0
C287 C 0.60977 0.47241 0.83831 0.0
C288 C 0.53507 0.50013 0.77835 0.0
C289 C 0.57817 0.52907 0.74056 0.0
H290 H 0.51607 0.45382 0.85444 0.0
H291 H 0.48938 0.50033 0.77226 0.0
S292 S 0.73777 0.53547 0.74928 0.0
N293 N 0.70971 0.49868 0.80374 0.0
N294 N 0.68213 0.55211 0.71814 0.0
C295 C 0.63686 0.52741 0.75166 0.0
C296 C 0.65216 0.49861 0.79908 0.0
C297 C 0.96519 0.71142 0.34963 0.0
C298 C 0.93877 0.75348 0.34151 0.0
C299 C 0.97595 0.68096 0.30629 0.0
C300 C 0.96074 0.68927 0.25057 0.0
H301 H 0.97414 0.69919 0.39091 0.0
H302 H 0.99526 0.6492 0.31713 0.0
S303 S 0.8886 0.79288 0.20463 0.0
N304 N 0.89655 0.79985 0.27111 0.0
N305 N 0.91729 0.74508 0.19127 0.0
C306 C 0.93558 0.7321 0.24162 0.0
C307 C 0.92447 0.76298 0.28598 0.0
C308 C 0.55387 0.3365 0.26783 0.0
C309 C 0.49509 0.33809 0.26728 0.0
C310 C 0.56463 0.28657 0.26415 0.0
C311 C 0.51682 0.2364 0.26023 0.0
H312 H 0.59156 0.37434 0.26957 0.0
H313 H 0.61064 0.2876 0.26225 0.0
S314 S 0.3542 0.21981 0.2605 0.0
N315 N 0.38884 0.28649 0.26408 0.0
N316 N 0.40789 0.19236 0.25944 0.0
C317 C 0.45769 0.23779 0.26229 0.0
C318 C 0.4471 0.28871 0.26505 0.0
C319 C 0.14278 0.94106 0.73475 0.0
C320 C 0.10019 0.91 0.77112 0.0
C321 C 0.13287 0.98343 0.70271 0.0
C322 C 0.07953 0.99579 0.70536 0.0
H323 H 0.18363 0.93181 0.73042 0.0
H324 H 0.16627 1.00508 0.67414 0.0
S325 S 0.95658 0.92895 0.79815 0.0
N326 N 1.00542 0.89638 0.81131 0.0
N327 N 0.98548 0.97568 0.75052 0.0
C328 C 0.03768 0.96632 0.74338 0.0
C329 C 0.04841 0.92357 0.7765 0.0
C330 C 0.79188 0.47134 0.98599 0.0
C331 C 0.73357 0.45387 1.00606 0.0
C332 C 0.84373 0.49853 1.01856 0.0
C333 C 0.84049 0.50891 1.07362 0.0
H334 H 0.79708 0.46608 0.94356 0.0
H335 H 0.88683 0.51184 1.00011 0.0
S336 S 0.69931 0.46899 0.14766 0.0
N337 N 0.67623 0.44807 0.08536 0.0
N338 N 0.77331 0.49651 0.14744 0.0
C339 C 0.7827 0.48943 0.09505 0.0
C340 C 0.72956 0.46255 1.0613 0.0
C341 C 0.7668 0.6692 0.50343 0.0
C342 C 0.77335 0.71707 0.47128 0.0
C343 C 0.71641 0.64568 0.53564 0.0
C344 C 0.67106 0.66979 0.53812 0.0
H345 H 0.80147 0.65044 0.50438 0.0
H346 H 0.7135 0.60882 0.55954 0.0
S347 S 0.6638 0.79187 0.45681 0.0
N348 N 0.7273 0.78459 0.44023 0.0
N349 N 0.63444 0.74208 0.50151 0.0
C350 C 0.67653 0.71681 0.50492 0.0
C351 C 0.72696 0.73986 0.47134 0.0
C352 C 0.34666 0.42199 0.20015 0.0
C353 C 0.39849 0.4673 0.2118 0.0
C354 C 0.28973 0.42753 0.19371 0.0
C355 C 0.28226 0.47858 0.19889 0.0
H356 H 0.34926 0.38102 0.20133 0.0
H357 H 0.25091 0.39083 0.1889 0.0
S358 S 0.40447 0.6116 0.21783 0.0
N359 N 0.43962 0.56601 0.21948 0.0
N360 N 0.33219 0.57671 0.20795 0.0
C361 C 0.33411 0.52505 0.2053 0.0
C362 C 0.39231 0.51936 0.2113 0.0
C363 C 0.65662 0.31392 1.01468 0.0
C364 C 0.61871 0.34565 1.00187 0.0
C365 C 0.63738 0.26391 1.04651 0.0
C366 C 0.57922 0.24281 1.06741 0.0
H367 H 0.70077 0.32677 0.99833 0.0
H368 H 0.66779 0.24066 1.05334 0.0
S369 S 0.46452 0.31221 1.05056 0.0
N370 N 0.52154 0.3533 1.01716 0.0
N371 N 0.48581 0.26074 1.07492 0.0
C372 C 0.54207 0.27531 1.05644 0.0
C373 C 0.56159 0.32601 1.02449 0.0
C374 C 1.00012 0.87387 0.4746 0.0
C375 C 0.9629 0.8633 0.42577 0.0
C376 C 1.01998 0.92579 0.50078 0.0
C377 C 1.00608 0.97205 0.47912 0.0
H378 H 1.0083 0.83957 0.49632 0.0
H379 H 0.04543 0.92919 0.53924 0.0
S380 S 0.91692 0.97118 0.34933 0.0
N381 N 0.91705 0.90746 0.35613 0.0
N382 N 0.9575 1.00422 0.40182 0.0
C383 C 0.97377 0.96373 0.42805 0.0
C384 C 0.95208 0.91041 0.40235 0.0
C385 C 0.25128 0.8106 0.81399 0.0
C386 C 0.19208 0.77471 0.8062 0.0
C387 C 0.29999 0.79619 0.79953 0.0
C388 C 0.29126 0.74539 0.77638 0.0
H389 H 0.25966 0.85093 0.82976 0.0
H390 H 0.34462 0.82603 0.80458 0.0
S391 S 0.14453 0.63675 0.74897 0.0
N392 N 0.12678 0.68658 0.77499 0.0
N393 N 0.21862 0.65827 0.74835 0.0
C394 C 0.23211 0.70863 0.76949 0.0
C395 C 0.18242 0.7236 0.78423 0.0
C396 C 0.69909 0.92991 0.8611 0.0
C397 C 0.65773 0.87684 0.8561 0.0
C398 C 0.73787 0.95435 0.82009 0.0
C399 C 0.73707 0.92627 0.77264 0.0
H400 H 0.70043 0.95317 0.8965 0.0
H401 H 0.76747 0.9962 0.82494 0.0
S402 S 0.64317 0.78321 0.74382 0.0
N403 N 0.62155 0.79476 0.80314 0.0
N404 N 0.69574 0.84046 0.72525 0.0
C405 C 0.69784 0.87203 0.76818 0.0
C406 C 0.65797 0.84721 0.81027 0.0
C407 C 0.86941 0.3606 0.37227 0.0
C408 C 0.93194 0.37954 0.38308 0.0
C409 C 0.84377 0.33005 0.32692 0.0
C410 C 0.87938 0.31558 0.2911 0.0
H411 H 0.83963 0.36719 0.40071 0.0
H412 H 0.79517 0.31464 0.32183 0.0
S413 S 0.04544 0.35492 0.30083 0.0
N414 N 1.02931 0.38324 0.3538 0.0
N415 N 0.9805 0.32275 0.26865 0.0
C416 C 0.94213 0.33446 0.30081 0.0
C417 C 0.96855 0.36704 0.34687 0.0
C418 C 0.41618 0.73673 0.44282 0.0
C419 C 0.43744 0.74131 0.38946 0.0
C420 C 0.42902 0.70113 0.48477 0.0
C421 C 0.46238 0.66614 0.4756 0.0
H422 H 0.38507 0.75766 0.45101 0.0
H423 H 0.40883 0.69816 0.52345 0.0
S424 S 0.53155 0.66298 0.34503 0.0
N425 N 0.49724 0.70867 0.33265 0.0
N426 N 0.51942 0.64192 0.40875 0.0
C427 C 0.48608 0.67222 0.42343 0.0
C428 C 0.47442 0.70943 0.38158 0.0
C429 C 0.10918 0.44847 0.95287 0.0
C430 C 0.10322 0.46382 0.89719 0.0
C431 C 0.09245 0.47483 0.99664 0.0
C432 C 0.06859 0.51858 0.98805 0.0
H433 H 0.12796 0.41623 0.96294 0.0
H434 H 0.09886 0.46084 1.03781 0.0
S435 S 0.03939 0.57205 0.84982 0.0
N436 N 0.06882 0.52465 0.83705 0.0
N437 N 0.03778 0.57281 0.91647 0.0
C438 C 0.06167 0.53323 0.93221 0.0
C439 C 0.07876 0.5066 0.88806 0.0
C440 C 0.49642 0.9103 1.0105 0.0
C441 C 0.5521 0.91559 0.99009 0.0
C442 C 0.48979 0.95227 1.04094 0.0
C443 C 0.53886 1.00034 1.05176 0.0
H444 H 0.45848 0.87334 1.00364 0.0
H445 H 0.44665 0.9462 1.05758 0.0
S446 S 0.69304 1.03369 1.00409 0.0
N447 N 0.65596 0.97223 0.98097 0.0
N448 N 0.64391 1.05129 1.0369 0.0
C449 C 0.59415 1.00625 1.02997 0.0
C450 C 0.60067 0.96375 0.99949 0.0
C451 C 0.04383 0.32948 0.47489 0.0
C452 C 0.9838 0.32768 0.47303 0.0
C453 C 0.05852 0.28109 0.4801 0.0
C454 C 1.01348 0.22926 0.48397 0.0
H455 H 0.07956 0.3687 0.4749 0.0
H456 H 0.10555 0.28467 0.48461 0.0
S457 S 0.84873 0.20368 0.47202 0.0
N458 N 0.87911 0.27105 0.46899 0.0
N459 N 0.90555 0.17983 0.47801 0.0
C460 C 0.95297 0.22727 0.4774 0.0
C461 C 0.93839 0.27657 0.47239 0.0
C462 C 0.21637 0.68514 0.26265 0.0
C463 C 0.27413 0.70893 0.24291 0.0
C464 C 0.1653 0.66477 0.22705 0.0
C465 C 0.16962 0.6678 0.17003 0.0
H466 H 0.2105 0.68399 0.30587 0.0
H467 H 0.12175 0.64817 0.24446 0.0
S468 S 0.31173 0.72199 0.09827 0.0
N469 N 0.33337 0.73063 0.16312 0.0
N470 N 0.23779 0.69353 0.09627 0.0
C471 C 0.22755 0.68973 0.15003 0.0
C472 C 0.27955 0.71 0.18637 0.0
C473 C 0.27214 0.43069 0.73959 0.0
C474 C 0.22424 0.45186 0.739 0.0
C475 C 0.32355 0.45572 0.70839 0.0
C476 C 0.33013 0.50373 0.67582 0.0
H477 H 0.27107 0.39596 0.76615 0.0
H478 H 0.35976 0.43873 0.71177 0.0
S479 S 0.21447 0.57115 0.65415 0.0
N480 N 0.18471 0.52047 0.6979 0.0
N481 N 0.28105 0.56795 0.64176 0.0
C482 C 0.28155 0.5238 0.67338 0.0
C483 C 0.22896 0.49785 0.70414 0.0
C484 C 0.68445 0.76994 0.93298 0.0
C485 C 0.68093 0.818 0.95405 0.0
C486 C 0.7366 0.75573 0.94208 0.0
C487 C 0.78671 0.78937 0.97245 0.0
H488 H 0.64648 0.74322 0.90971 0.0
H489 H 0.73747 0.71786 0.9259 0.0
S490 S 0.80156 0.92269 1.03083 0.0
N491 N 0.73285 0.90132 1.0025 0.0
N492 N 0.83077 0.87457 1.02026 0.0
C493 C 0.784 0.83821 0.99254 0.0
C494 C 0.73111 0.85265 0.98305 0.0
C495 C 0.44687 0.90181 0.33911 0.0
C496 C 0.4526 0.85704 0.31157 0.0
C497 C 0.46804 0.9571 0.31805 0.0
C498 C 0.49417 0.97111 0.2669 0.0
H499 H 0.4211 0.89339 0.37513 0.0
H500 H 0.46064 0.98881 0.34079 0.0
S501 S 0.5245 0.8715 0.17931 0.0
N502 N 0.49215 0.83341 0.23166 0.0
N503 N 0.52864 0.93483 0.1916 0.0
C504 C 0.50312 0.92751 0.24036 0.0
C505 C 0.48379 0.87183 0.26284 0.0
C506 C 0.10966 0.2814 0.77526 0.0
C507 C 0.12307 0.33473 0.75105 0.0
C508 C 0.09379 0.23261 0.74449 0.0
C509 C 0.09145 0.23293 0.68687 0.0
H510 H 0.11108 0.27696 0.81902 0.0
H511 H 0.083 0.1937 0.76656 0.0
S512 S 0.12362 0.36066 0.60132 0.0
N513 N 0.13171 0.38326 0.66371 0.0
N514 N 0.1062 0.2934 0.60715 0.0
C515 C 0.10656 0.28599 0.66188 0.0
C516 C 0.12131 0.33588 0.6933 0.0
C517 C 0.8221 0.38809 0.53396 0.0
C518 C 0.87325 0.43556 0.53323 0.0
C519 C 0.76545 0.39068 0.5437 0.0
C520 C 0.75748 0.44092 0.55278 0.0
H521 H 0.82531 0.34913 0.52333 0.0
H522 H 0.72711 0.35329 0.54192 0.0
S523 S 0.87772 0.57668 0.55775 0.0
N524 N 0.91317 0.53362 0.54527 0.0
N525 N 0.80629 0.53912 0.56281 0.0
C526 C 0.80876 0.48841 0.55483 0.0
C527 C 0.86668 0.48558 0.5451 0.0
loop_
_geom_bond_atom_site_label_1
_geom_bond_atom_site_label_2
_geom_bond_distance
_geom_bond_site_symmetry_2
_ccdc_geom_bond_type
C0 N1 1.317 . S
C0 N2 1.348 . S
C0 C3 1.485 . S
N1 C0 1.317 . S
N1 N5 1.370 . S
N2 C0 1.348 . S
N2 C4 1.346 . S
C3 C0 1.485 . S
C3 H7 0.960 . S
C3 H8 0.961 . S
C3 H9 0.960 . S
C4 N2 1.346 . S
C4 N5 1.307 . S
C4 C6 1.486 . S
N5 N1 1.370 . S
N5 C4 1.307 . S
C6 C4 1.486 . S
C6 H10 0.960 . S
C6 H11 0.960 . S
C6 H12 0.959 . S
H7 C3 0.960 . S
H8 C3 0.961 . S
H9 C3 0.960 . S
H10 C6 0.960 . S
H11 C6 0.960 . S
H12 C6 0.959 . S
C13 N14 1.317 . S
C13 N15 1.348 . S
C13 C16 1.485 . S
N14 C13 1.317 . S
N14 N18 1.370 . S
N15 C13 1.348 . S
N15 C17 1.346 . S
C16 C13 1.485 . S
C16 H20 0.960 1_455 S
C16 H21 0.961 . S
C16 H22 0.960 . S
C17 N15 1.346 . S
C17 N18 1.307 . S
C17 C19 1.486 . S
N18 N14 1.370 . S
N18 C17 1.307 . S
C19 C17 1.486 . S
C19 H23 0.960 . S
C19 H24 0.960 . S
C19 H25 0.959 . S
H20 C16 0.960 1_655 S
H21 C16 0.961 . S
H22 C16 0.960 . S
H23 C19 0.960 . S
H24 C19 0.960 . S
H25 C19 0.959 . S
C26 N27 1.317 . S
C26 N28 1.348 . S
C26 C29 1.485 . S
N27 C26 1.317 . S
N27 N31 1.370 . S
N28 C26 1.348 . S
N28 C30 1.346 . S
C29 C26 1.485 . S
C29 H33 0.960 . S
C29 H34 0.961 . S
C29 H35 0.960 . S
C30 N28 1.346 . S
C30 N31 1.307 . S
C30 C32 1.486 . S
N31 N27 1.370 . S
N31 C30 1.307 . S
C32 C30 1.486 . S
C32 H36 0.960 . S
C32 H37 0.960 . S
C32 H38 0.959 . S
H33 C29 0.960 . S
H34 C29 0.961 . S
H35 C29 0.960 . S
H36 C32 0.960 . S
H37 C32 0.960 . S
H38 C32 0.959 . S
C39 N40 1.317 . S
C39 N41 1.348 . S
C39 C42 1.485 . S
N40 C39 1.317 . S
N40 N44 1.370 . S
N41 C39 1.348 . S
N41 C43 1.346 . S
C42 C39 1.485 . S
C42 H46 0.960 . S
C42 H47 0.961 . S
C42 H48 0.960 . S
C43 N41 1.346 . S
C43 N44 1.307 . S
C43 C45 1.486 . S
N44 N40 1.370 . S
N44 C43 1.307 . S
C45 C43 1.486 . S
C45 H49 0.960 . S
C45 H50 0.960 . S
C45 H51 0.959 . S
H46 C42 0.960 . S
H47 C42 0.961 . S
H48 C42 0.960 . S
H49 C45 0.960 . S
H50 C45 0.960 . S
H51 C45 0.959 . S
C52 N53 1.317 . S
C52 N54 1.348 . S
C52 C55 1.485 . S
N53 C52 1.317 . S
N53 N57 1.370 . S
N54 C52 1.348 . S
N54 C56 1.346 . S
C55 C52 1.485 . S
C55 H59 0.960 . S
C55 H60 0.961 . S
C55 H61 0.960 . S
C56 N54 1.346 . S
C56 N57 1.307 . S
C56 C58 1.486 . S
N57 N53 1.370 . S
N57 C56 1.307 . S
C58 C56 1.486 . S
C58 H62 0.960 . S
C58 H63 0.960 . S
C58 H64 0.959 . S
H59 C55 0.960 . S
H60 C55 0.961 . S
H61 C55 0.960 . S
H62 C58 0.960 . S
H63 C58 0.960 . S
H64 C58 0.959 . S
C65 N66 1.317 . S
C65 N67 1.348 . S
C65 C68 1.485 . S
N66 C65 1.317 . S
N66 N70 1.370 . S
N67 C65 1.348 . S
N67 C69 1.346 . S
C68 C65 1.485 . S
C68 H72 0.960 . S
C68 H73 0.961 1_655 S
C68 H74 0.960 1_655 S
C69 N67 1.346 . S
C69 N70 1.307 . S
C69 C71 1.486 . S
N70 N66 1.370 . S
N70 C69 1.307 . S
C71 C69 1.486 . S
C71 H75 0.960 . S
C71 H76 0.960 . S
C71 H77 0.959 . S
H72 C68 0.960 . S
H73 C68 0.961 1_455 S
H74 C68 0.960 1_455 S
H75 C71 0.960 . S
H76 C71 0.960 . S
H77 C71 0.959 . S
C78 N79 1.317 . S
C78 N80 1.348 . S
C78 C81 1.485 . S
N79 C78 1.317 . S
N79 N83 1.370 . S
N80 C78 1.348 . S
N80 C82 1.346 . S
C81 C78 1.485 . S
C81 H85 0.960 . S
C81 H86 0.961 . S
C81 H87 0.960 . S
C82 N80 1.346 . S
C82 N83 1.307 . S
C82 C84 1.486 . S
N83 N79 1.370 . S
N83 C82 1.307 . S
C84 C82 1.486 . S
C84 H88 0.960 . S
C84 H89 0.960 . S
C84 H90 0.959 . S
H85 C81 0.960 . S
H86 C81 0.961 . S
H87 C81 0.960 . S
H88 C84 0.960 . S
H89 C84 0.960 . S
H90 C84 0.959 . S
C91 N92 1.317 . S
C91 N93 1.348 . S
C91 C94 1.485 . S
N92 C91 1.317 . S
N92 N96 1.370 . S
N93 C91 1.348 . S
N93 C95 1.346 . S
C94 C91 1.485 . S
C94 H98 0.960 . S
C94 H99 0.961 . S
C94 H100 0.960 . S
C95 N93 1.346 . S
C95 N96 1.307 . S
C95 C97 1.486 . S
N96 N92 1.370 . S
N96 C95 1.307 . S
C97 C95 1.486 . S
C97 H101 0.960 . S
C97 H102 0.960 . S
C97 H103 0.959 . S
H98 C94 0.960 . S
H99 C94 0.961 . S
H100 C94 0.960 . S
H101 C97 0.960 . S
H102 C97 0.960 . S
H103 C97 0.959 . S
Tb104 C106 2.809 1_545 S
Tb104 O124 2.484 1_545 S
Tb104 O125 2.440 1_545 S
Tb104 O126 2.658 1_655 S
Tb104 O127 2.409 1_655 S
Tb104 O128 2.378 1_645 S
Tb104 O132 2.325 1_645 S
Tb104 O135 2.341 . S
Tb105 C115 2.809 . S
Tb105 O126 2.325 . S
Tb105 O129 2.341 1_545 S
Tb105 O130 2.484 . S
Tb105 O131 2.440 . S
Tb105 O132 2.658 1_545 S
Tb105 O133 2.409 1_545 S
Tb105 O134 2.378 . S
C106 Tb104 2.809 1_565 S
C106 C107 1.514 . S
C106 O124 1.248 . S
C106 O125 1.266 . S
C107 C106 1.514 . S
C107 C108 1.359 . S
C107 C112 1.348 . S
C108 C107 1.359 . S
C108 C109 1.380 . S
C108 H136 0.929 . S
C109 C108 1.380 . S
C109 C110 1.347 . S
C109 H137 0.931 . S
C110 C109 1.347 . S
C110 C111 1.369 . S
C111 C110 1.369 . S
C111 C112 1.408 . S
C111 H138 0.930 . S
C112 C107 1.348 . S
C112 C111 1.408 . S
C112 H139 0.930 . S
C113 O126 1.281 . S
C113 O127 1.254 . S
C114 O128 1.236 . S
C114 O129 1.266 . S
C115 Tb105 2.809 . S
C115 C116 1.514 . S
C115 O130 1.248 . S
C115 O131 1.266 . S
C116 C115 1.514 . S
C116 C117 1.359 . S
C116 C121 1.348 . S
C117 C116 1.359 . S
C117 C118 1.380 . S
C117 H140 0.929 . S
C118 C117 1.380 . S
C118 C119 1.347 . S
C118 H141 0.931 . S
C119 C118 1.347 . S
C119 C120 1.369 . S
C120 C119 1.369 . S
C120 C121 1.408 . S
C120 H142 0.930 . S
C121 C116 1.348 . S
C121 C120 1.408 . S
C121 H143 0.930 . S
C122 O132 1.281 . S
C122 O133 1.254 . S
C123 O134 1.236 . S
C123 O135 1.266 1_455 S
O124 Tb104 2.484 1_565 S
O124 C106 1.248 . S
O125 Tb104 2.440 1_565 S
O125 C106 1.266 . S
O126 Tb104 2.658 1_455 S
O126 Tb105 2.325 . S
O126 C113 1.281 . S
O127 Tb104 2.409 1_455 S
O127 C113 1.254 . S
O128 Tb104 2.378 1_465 S
O128 C114 1.236 . S
O129 Tb105 2.341 1_565 S
O129 C114 1.266 . S
O130 Tb105 2.484 . S
O130 C115 1.248 . S
O131 Tb105 2.440 . S
O131 C115 1.266 . S
O132 Tb104 2.325 1_465 S
O132 Tb105 2.658 1_565 S
O132 C122 1.281 . S
O133 Tb105 2.409 1_565 S
O133 C122 1.254 . S
O134 Tb105 2.378 . S
O134 C123 1.236 . S
O135 Tb104 2.341 . S
O135 C123 1.266 1_655 S
H136 C108 0.929 . S
H137 C109 0.931 . S
H138 C111 0.930 . S
H139 C112 0.930 . S
H140 C117 0.929 . S
H141 C118 0.931 . S
H142 C120 0.930 . S
H143 C121 0.930 . S
Tb144 C146 2.809 . S
Tb144 O164 2.484 . S
Tb144 O165 2.440 . S
Tb144 O166 2.658 1_545 S
Tb144 O167 2.409 1_545 S
Tb144 O168 2.378 . S
Tb144 O172 2.325 . S
Tb144 O175 2.341 1_545 S
Tb145 C155 2.809 1_544 S
Tb145 O166 2.325 1_545 S
Tb145 O169 2.341 . S
Tb145 O170 2.484 1_545 S
Tb145 O171 2.440 1_554 S
Tb145 O172 2.658 . S
Tb145 O173 2.409 1_554 S
Tb145 O174 2.378 1_544 S
C146 Tb144 2.809 . S
C146 C147 1.514 . S
C146 O164 1.248 . S
C146 O165 1.266 . S
C147 C146 1.514 . S
C147 C148 1.359 . S
C147 C152 1.348 . S
C148 C147 1.359 . S
C148 C149 1.380 . S
C148 H176 0.929 . S
C149 C148 1.380 . S
C149 C150 1.347 . S
C149 H177 0.931 . S
C150 C149 1.347 . S
C150 C151 1.369 . S
C151 C150 1.369 . S
C151 C152 1.408 . S
C151 H178 0.930 . S
C152 C147 1.348 . S
C152 C151 1.408 . S
C152 H179 0.930 . S
C153 O166 1.281 . S
C153 O167 1.254 . S
C154 O168 1.236 . S
C154 O169 1.266 . S
C155 Tb145 2.809 1_566 S
C155 C156 1.514 . S
C155 O170 1.248 1_556 S
C155 O171 1.266 1_565 S
C156 C155 1.514 . S
C156 C157 1.359 . S
C156 C161 1.348 . S
C157 C156 1.359 . S
C157 C158 1.380 . S
C157 H180 0.929 . S
C158 C157 1.380 . S
C158 C159 1.347 . S
C158 H181 0.931 . S
C159 C158 1.347 . S
C159 C160 1.369 . S
C160 C159 1.369 . S
C160 C161 1.408 . S
C160 H182 0.930 . S
C161 C156 1.348 . S
C161 C160 1.408 . S
C161 H183 0.930 . S
C162 O172 1.281 . S
C162 O173 1.254 1_554 S
C163 O174 1.236 1_554 S
C163 O175 1.266 . S
O164 Tb144 2.484 . S
O164 C146 1.248 . S
O165 Tb144 2.440 . S
O165 C146 1.266 . S
O166 Tb144 2.658 1_565 S
O166 Tb145 2.325 1_565 S
O166 C153 1.281 . S
O167 Tb144 2.409 1_565 S
O167 C153 1.254 . S
O168 Tb144 2.378 . S
O168 C154 1.236 . S
O169 Tb145 2.341 . S
O169 C154 1.266 . S
O170 Tb145 2.484 1_565 S
O170 C155 1.248 1_554 S
O171 Tb145 2.440 1_556 S
O171 C155 1.266 1_545 S
O172 Tb144 2.325 . S
O172 Tb145 2.658 . S
O172 C162 1.281 . S
O173 Tb145 2.409 1_556 S
O173 C162 1.254 1_556 S
O174 Tb145 2.378 1_566 S
O174 C163 1.236 1_556 S
O175 Tb144 2.341 1_565 S
O175 C163 1.266 . S
H176 C148 0.929 . S
H177 C149 0.931 . S
H178 C151 0.930 . S
H179 C152 0.930 . S
H180 C157 0.929 . S
H181 C158 0.931 . S
H182 C160 0.930 . S
H183 C161 0.930 . S
Tb184 C186 2.809 . S
Tb184 O204 2.484 . S
Tb184 O205 2.440 . S
Tb184 O206 2.658 . S
Tb184 O207 2.409 . S
Tb184 O208 2.378 . S
Tb184 O212 2.325 . S
Tb184 O215 2.341 . S
Tb185 C195 2.809 . S
Tb185 O206 2.325 . S
Tb185 O209 2.341 . S
Tb185 O210 2.484 . S
Tb185 O211 2.440 . S
Tb185 O212 2.658 . S
Tb185 O213 2.409 . S
Tb185 O214 2.378 . S
C186 Tb184 2.809 . S
C186 C187 1.514 . S
C186 O204 1.248 . S
C186 O205 1.266 . S
C187 C186 1.514 . S
C187 C188 1.359 . S
C187 C192 1.348 . S
C188 C187 1.359 . S
C188 C189 1.380 . S
C188 H216 0.929 . S
C189 C188 1.380 . S
C189 C190 1.347 . S
C189 H217 0.931 . S
C190 C189 1.347 . S
C190 C191 1.369 . S
C191 C190 1.369 . S
C191 C192 1.408 . S
C191 H218 0.930 . S
C192 C187 1.348 . S
C192 C191 1.408 . S
C192 H219 0.930 . S
C193 O206 1.281 . S
C193 O207 1.254 . S
C194 O208 1.236 . S
C194 O209 1.266 . S
C195 Tb185 2.809 . S
C195 C196 1.514 . S
C195 O210 1.248 . S
C195 O211 1.266 . S
C196 C195 1.514 . S
C196 C197 1.359 . S
C196 C201 1.348 . S
C197 C196 1.359 . S
C197 C198 1.380 . S
C197 H220 0.929 . S
C198 C197 1.380 . S
C198 C199 1.347 . S
C198 H221 0.931 . S
C199 C198 1.347 . S
C199 C200 1.369 . S
C200 C199 1.369 . S
C200 C201 1.408 . S
C200 H222 0.930 . S
C201 C196 1.348 . S
C201 C200 1.408 . S
C201 H223 0.930 . S
C202 O212 1.281 . S
C202 O213 1.254 . S
C203 O214 1.236 . S
C203 O215 1.266 . S
O204 Tb184 2.484 . S
O204 C186 1.248 . S
O205 Tb184 2.440 . S
O205 C186 1.266 . S
O206 Tb184 2.658 . S
O206 Tb185 2.325 . S
O206 C193 1.281 . S
O207 Tb184 2.409 . S
O207 C193 1.254 . S
O208 Tb184 2.378 . S
O208 C194 1.236 . S
O209 Tb185 2.341 . S
O209 C194 1.266 . S
O210 Tb185 2.484 . S
O210 C195 1.248 . S
O211 Tb185 2.440 . S
O211 C195 1.266 . S
O212 Tb184 2.325 . S
O212 Tb185 2.658 . S
O212 C202 1.281 . S
O213 Tb185 2.409 . S
O213 C202 1.254 . S
O214 Tb185 2.378 . S
O214 C203 1.236 . S
O215 Tb184 2.341 . S
O215 C203 1.266 . S
H216 C188 0.929 . S
H217 C189 0.931 . S
H218 C191 0.930 . S
H219 C192 0.930 . S
H220 C197 0.929 . S
H221 C198 0.931 . S
H222 C200 0.930 . S
H223 C201 0.930 . S
Tb224 C226 2.812 . S
Tb224 O244 2.488 . S
Tb224 O245 2.442 . S
Tb224 O246 2.656 1_656 S
Tb224 O247 2.407 1_656 S
Tb224 O248 2.379 1_556 S
Tb224 O252 2.326 . S
Tb224 O255 2.339 1_655 S
Tb225 C235 2.809 . S
Tb225 O246 2.325 . S
Tb225 O249 2.341 1_455 S
Tb225 O250 2.484 . S
Tb225 O251 2.440 . S
Tb225 O252 2.658 1_454 S
Tb225 O253 2.409 1_455 S
Tb225 O254 2.378 1_554 S
C226 Tb224 2.812 . S
C226 C227 1.514 . S
C226 O244 1.248 . S
C226 O245 1.266 . S
C227 C226 1.514 . S
C227 C228 1.359 . S
C227 C232 1.348 . S
C228 C227 1.359 . S
C228 C229 1.380 . S
C228 H256 0.929 . S
C229 C228 1.380 . S
C229 C230 1.347 . S
C229 H257 0.931 . S
C230 C229 1.347 . S
C230 C231 1.369 . S
C231 C230 1.369 . S
C231 C232 1.408 . S
C231 H258 0.930 . S
C232 C227 1.348 . S
C232 C231 1.408 . S
C232 H259 0.930 . S
C233 O246 1.281 . S
C233 O247 1.254 . S
C234 O248 1.236 . S
C234 O249 1.266 . S
C235 Tb225 2.809 . S
C235 C236 1.514 . S
C235 O250 1.248 . S
C235 O251 1.266 . S
C236 C235 1.514 . S
C236 C237 1.359 . S
C236 C241 1.348 . S
C237 C236 1.359 . S
C237 C238 1.380 . S
C237 H260 0.929 . S
C238 C237 1.380 . S
C238 C239 1.347 . S
C238 H261 0.931 . S
C239 C238 1.347 . S
C239 C240 1.369 . S
C240 C239 1.369 . S
C240 C241 1.408 . S
C240 H262 0.930 . S
C241 C236 1.348 . S
C241 C240 1.408 . S
C241 H263 0.930 . S
C242 O252 1.281 . S
C242 O253 1.254 1_556 S
C243 O254 1.236 . S
C243 O255 1.266 . S
O244 Tb224 2.488 . S
O244 C226 1.248 . S
O245 Tb224 2.442 . S
O245 C226 1.266 . S
O246 Tb224 2.656 1_454 S
O246 Tb225 2.325 . S
O246 C233 1.281 . S
O247 Tb224 2.407 1_454 S
O247 C233 1.254 . S
O248 Tb224 2.379 1_554 S
O248 C234 1.236 . S
O249 Tb225 2.341 1_655 S
O249 C234 1.266 . S
O250 Tb225 2.484 . S
O250 C235 1.248 . S
O251 Tb225 2.440 . S
O251 C235 1.266 . S
O252 Tb224 2.326 . S
O252 Tb225 2.658 1_656 S
O252 C242 1.281 . S
O253 Tb225 2.409 1_655 S
O253 C242 1.254 1_554 S
O254 Tb225 2.378 1_556 S
O254 C243 1.236 . S
O255 Tb224 2.339 1_455 S
O255 C243 1.266 . S
H256 C228 0.929 . S
H257 C229 0.931 . S
H258 C231 0.930 . S
H259 C232 0.930 . S
H260 C237 0.929 . S
H261 C238 0.931 . S
H262 C240 0.930 . S
H263 C241 0.930 . S
C264 C265 1.369 . S
C264 C266 1.419 . S
C264 H268 0.930 . S
C265 C264 1.369 . S
C265 C274 1.429 . S
C266 C264 1.419 . S
C266 C267 1.363 . S
C266 H269 0.929 . S
C267 C266 1.363 . S
C267 C273 1.428 . S
H268 C264 0.930 . S
H269 C266 0.929 . S
S270 N271 1.613 . S
S270 N272 1.610 . S
N271 S270 1.613 . S
N271 C274 1.350 . S
N272 S270 1.610 . S
N272 C273 1.351 . S
C273 C267 1.428 . S
C273 N272 1.351 . S
C273 C274 1.434 . S
C274 C265 1.429 . S
C274 N271 1.350 . S
C274 C273 1.434 . S
C275 C276 1.369 . S
C275 C277 1.419 . S
C275 H279 0.930 . S
C276 C275 1.369 . S
C276 C285 1.429 . S
C277 C275 1.419 . S
C277 C278 1.363 . S
C277 H280 0.929 . S
C278 C277 1.363 . S
C278 C284 1.428 . S
H279 C275 0.930 . S
H280 C277 0.929 . S
S281 N282 1.613 . S
S281 N283 1.610 . S
N282 S281 1.613 . S
N282 C285 1.350 . S
N283 S281 1.610 . S
N283 C284 1.351 . S
C284 C278 1.428 . S
C284 N283 1.351 . S
C284 C285 1.434 . S
C285 C276 1.429 . S
C285 N282 1.350 . S
C285 C284 1.434 . S
C286 C287 1.369 . S
C286 C288 1.419 . S
C286 H290 0.930 . S
C287 C286 1.369 . S
C287 C296 1.429 . S
C288 C286 1.419 . S
C288 C289 1.363 . S
C288 H291 0.929 . S
C289 C288 1.363 . S
C289 C295 1.428 . S
H290 C286 0.930 . S
H291 C288 0.929 . S
S292 N293 1.613 . S
S292 N294 1.610 . S
N293 S292 1.613 . S
N293 C296 1.350 . S
N294 S292 1.610 . S
N294 C295 1.351 . S
C295 C289 1.428 . S
C295 N294 1.351 . S
C295 C296 1.434 . S
C296 C287 1.429 . S
C296 N293 1.350 . S
C296 C295 1.434 . S
C297 C298 1.369 . S
C297 C299 1.419 . S
C297 H301 0.930 . S
C298 C297 1.369 . S
C298 C307 1.429 . S
C299 C297 1.419 . S
C299 C300 1.363 . S
C299 H302 0.929 . S
C300 C299 1.363 . S
C300 C306 1.428 . S
H301 C297 0.930 . S
H302 C299 0.929 . S
S303 N304 1.613 . S
S303 N305 1.610 . S
N304 S303 1.613 . S
N304 C307 1.350 . S
N305 S303 1.610 . S
N305 C306 1.351 . S
C306 C300 1.428 . S
C306 N305 1.351 . S
C306 C307 1.434 . S
C307 C298 1.429 . S
C307 N304 1.350 . S
C307 C306 1.434 . S
C308 C309 1.369 . S
C308 C310 1.419 . S
C308 H312 0.930 . S
C309 C308 1.369 . S
C309 C318 1.429 . S
C310 C308 1.419 . S
C310 C311 1.363 . S
C310 H313 0.929 . S
C311 C310 1.363 . S
C311 C317 1.428 . S
H312 C308 0.930 . S
H313 C310 0.929 . S
S314 N315 1.613 . S
S314 N316 1.610 . S
N315 S314 1.613 . S
N315 C318 1.350 . S
N316 S314 1.610 . S
N316 C317 1.351 . S
C317 C311 1.428 . S
C317 N316 1.351 . S
C317 C318 1.434 . S
C318 C309 1.429 . S
C318 N315 1.350 . S
C318 C317 1.434 . S
C319 C320 1.369 . S
C319 C321 1.419 . S
C319 H323 0.930 . S
C320 C319 1.369 . S
C320 C329 1.429 1_455 S
C321 C319 1.419 . S
C321 C322 1.363 . S
C321 H324 0.929 . S
C322 C321 1.363 . S
C322 C328 1.428 . S
H323 C319 0.930 . S
H324 C321 0.929 . S
S325 N326 1.613 . S
S325 N327 1.610 . S
N326 S325 1.613 . S
N326 C329 1.350 . S
N327 S325 1.610 . S
N327 C328 1.351 1_655 S
C328 C322 1.428 . S
C328 N327 1.351 1_455 S
C328 C329 1.434 1_455 S
C329 C320 1.429 1_655 S
C329 N326 1.350 . S
C329 C328 1.434 1_655 S
C330 C331 1.369 . S
C330 C332 1.419 . S
C330 H334 0.930 . S
C331 C330 1.369 . S
C331 C340 1.429 . S
C332 C330 1.419 . S
C332 C333 1.363 . S
C332 H335 0.929 . S
C333 C332 1.363 . S
C333 C339 1.428 . S
H334 C330 0.930 . S
H335 C332 0.929 . S
S336 N337 1.613 . S
S336 N338 1.610 . S
N337 S336 1.613 . S
N337 C340 1.350 . S
N338 S336 1.610 . S
N338 C339 1.351 . S
C339 C333 1.428 . S
C339 N338 1.351 . S
C339 C340 1.434 . S
C340 C331 1.429 . S
C340 N337 1.350 . S
C340 C339 1.434 . S
C341 C342 1.369 . S
C341 C343 1.419 . S
C341 H345 0.930 . S
C342 C341 1.369 . S
C342 C351 1.429 . S
C343 C341 1.419 . S
C343 C344 1.363 . S
C343 H346 0.929 . S
C344 C343 1.363 . S
C344 C350 1.428 . S
H345 C341 0.930 . S
H346 C343 0.929 . S
S347 N348 1.613 . S
S347 N349 1.610 . S
N348 S347 1.613 . S
N348 C351 1.350 . S
N349 S347 1.610 . S
N349 C350 1.351 . S
C350 C344 1.428 . S
C350 N349 1.351 . S
C350 C351 1.434 . S
C351 C342 1.429 . S
C351 N348 1.350 . S
C351 C350 1.434 . S
C352 C353 1.369 . S
C352 C354 1.419 . S
C352 H356 0.930 . S
C353 C352 1.369 . S
C353 C362 1.429 . S
C354 C352 1.419 . S
C354 C355 1.363 . S
C354 H357 0.929 . S
C355 C354 1.363 . S
C355 C361 1.428 . S
H356 C352 0.930 . S
H357 C354 0.929 . S
S358 N359 1.613 . S
S358 N360 1.610 . S
N359 S358 1.613 . S
N359 C362 1.350 . S
N360 S358 1.610 . S
N360 C361 1.351 . S
C361 C355 1.428 . S
C361 N360 1.351 . S
C361 C362 1.434 . S
C362 C353 1.429 . S
C362 N359 1.350 . S
C362 C361 1.434 . S
C363 C364 1.369 . S
C363 C365 1.419 . S
C363 H367 0.930 . S
C364 C363 1.369 . S
C364 C373 1.429 . S
C365 C363 1.419 . S
C365 C366 1.363 . S
C365 H368 0.929 . S
C366 C365 1.363 . S
C366 C372 1.428 . S
H367 C363 0.930 . S
H368 C365 0.929 . S
S369 N370 1.613 1_554 S
S369 N371 1.610 . S
N370 S369 1.613 1_556 S
N370 C373 1.350 . S
N371 S369 1.610 . S
N371 C372 1.351 1_554 S
C372 C366 1.428 . S
C372 N371 1.351 1_556 S
C372 C373 1.434 . S
C373 C364 1.429 . S
C373 N370 1.350 . S
C373 C372 1.434 . S
C374 C375 1.369 . S
C374 C376 1.419 . S
C374 H378 0.930 . S
C375 C374 1.369 . S
C375 C384 1.429 . S
C376 C374 1.419 . S
C376 C377 1.363 . S
C376 H379 0.929 . S
C377 C376 1.363 . S
C377 C383 1.428 . S
H378 C374 0.930 . S
H379 C376 0.929 . S
S380 N381 1.613 . S
S380 N382 1.610 . S
N381 S380 1.613 . S
N381 C384 1.350 . S
N382 S380 1.610 . S
N382 C383 1.351 . S
C383 C377 1.428 . S
C383 N382 1.351 . S
C383 C384 1.434 . S
C384 C375 1.429 . S
C384 N381 1.350 . S
C384 C383 1.434 . S
C385 C386 1.369 . S
C385 C387 1.419 . S
C385 H389 0.930 . S
C386 C385 1.369 . S
C386 C395 1.429 . S
C387 C385 1.419 . S
C387 C388 1.363 . S
C387 H390 0.929 . S
C388 C387 1.363 . S
C388 C394 1.428 . S
H389 C385 0.930 . S
H390 C387 0.929 . S
S391 N392 1.613 . S
S391 N393 1.610 . S
N392 S391 1.613 . S
N392 C395 1.350 . S
N393 S391 1.610 . S
N393 C394 1.351 . S
C394 C388 1.428 . S
C394 N393 1.351 . S
C394 C395 1.434 . S
C395 C386 1.429 . S
C395 N392 1.350 . S
C395 C394 1.434 . S
C396 C397 1.369 . S
C396 C398 1.419 . S
C396 H400 0.930 . S
C397 C396 1.369 . S
C397 C406 1.429 . S
C398 C396 1.419 . S
C398 C399 1.363 . S
C398 H401 0.929 . S
C399 C398 1.363 . S
C399 C405 1.428 . S
H400 C396 0.930 . S
H401 C398 0.929 . S
S402 N403 1.613 . S
S402 N404 1.610 . S
N403 S402 1.613 . S
N403 C406 1.350 . S
N404 S402 1.610 . S
N404 C405 1.351 . S
C405 C399 1.428 . S
C405 N404 1.351 . S
C405 C406 1.434 . S
C406 C397 1.429 . S
C406 N403 1.350 . S
C406 C405 1.434 . S
C407 C408 1.369 . S
C407 C409 1.419 . S
C407 H411 0.930 . S
C408 C407 1.369 . S
C408 C417 1.429 . S
C409 C407 1.419 . S
C409 C410 1.363 . S
C409 H412 0.929 . S
C410 C409 1.363 . S
C410 C416 1.428 . S
H411 C407 0.930 . S
H412 C409 0.929 . S
S413 N414 1.613 . S
S413 N415 1.610 . S
N414 S413 1.613 . S
N414 C417 1.350 . S
N415 S413 1.610 . S
N415 C416 1.351 . S
C416 C410 1.428 . S
C416 N415 1.351 . S
C416 C417 1.434 . S
C417 C408 1.429 . S
C417 N414 1.350 . S
C417 C416 1.434 . S
C418 C419 1.369 . S
C418 C420 1.419 . S
C418 H422 0.930 . S
C419 C418 1.369 . S
C419 C428 1.429 . S
C420 C418 1.419 . S
C420 C421 1.363 . S
C420 H423 0.929 . S
C421 C420 1.363 . S
C421 C427 1.428 . S
H422 C418 0.930 . S
H423 C420 0.929 . S
S424 N425 1.613 . S
S424 N426 1.610 . S
N425 S424 1.613 . S
N425 C428 1.350 . S
N426 S424 1.610 . S
N426 C427 1.351 . S
C427 C421 1.428 . S
C427 N426 1.351 . S
C427 C428 1.434 . S
C428 C419 1.429 . S
C428 N425 1.350 . S
C428 C427 1.434 . S
C429 C430 1.369 . S
C429 C431 1.419 . S
C429 H433 0.930 . S
C430 C429 1.369 . S
C430 C439 1.429 . S
C431 C429 1.419 . S
C431 C432 1.363 . S
C431 H434 0.929 . S
C432 C431 1.363 . S
C432 C438 1.428 . S
H433 C429 0.930 . S
H434 C431 0.929 . S
S435 N436 1.613 1_655 S
S435 N437 1.610 . S
N436 S435 1.613 1_455 S
N436 C439 1.350 . S
N437 S435 1.610 . S
N437 C438 1.351 1_655 S
C438 C432 1.428 . S
C438 N437 1.351 1_455 S
C438 C439 1.434 . S
C439 C430 1.429 . S
C439 N436 1.350 . S
C439 C438 1.434 . S
C440 C441 1.369 . S
C440 C442 1.419 . S
C440 H444 0.930 . S
C441 C440 1.369 . S
C441 C450 1.429 . S
C442 C440 1.419 . S
C442 C443 1.363 . S
C442 H445 0.929 . S
C443 C442 1.363 . S
C443 C449 1.432 . S
H444 C440 0.930 . S
H445 C442 0.929 . S
S446 N447 1.613 1_554 S
S446 N448 1.610 . S
N447 S446 1.613 1_556 S
N447 C450 1.350 . S
N448 S446 1.610 . S
N448 C449 1.334 1_554 S
C449 C443 1.432 . S
C449 N448 1.334 1_556 S
C449 C450 1.448 . S
C450 C441 1.429 . S
C450 N447 1.350 . S
C450 C449 1.448 . S
C451 C452 1.369 1_455 S
C451 C453 1.419 . S
C451 H455 0.930 . S
C452 C451 1.369 1_655 S
C452 C461 1.429 . S
C453 C451 1.419 . S
C453 C454 1.363 . S
C453 H456 0.929 . S
C454 C453 1.363 . S
C454 C460 1.428 1_455 S
H455 C451 0.930 . S
H456 C453 0.929 . S
S457 N458 1.613 . S
S457 N459 1.610 . S
N458 S457 1.613 . S
N458 C461 1.350 . S
N459 S457 1.610 . S
N459 C460 1.351 . S
C460 C454 1.428 1_655 S
C460 N459 1.351 . S
C460 C461 1.434 . S
C461 C452 1.429 . S
C461 N458 1.350 . S
C461 C460 1.434 . S
C462 C463 1.369 . S
C462 C464 1.419 . S
C462 H466 0.930 . S
C463 C462 1.369 . S
C463 C472 1.429 . S
C464 C462 1.419 . S
C464 C465 1.363 . S
C464 H467 0.929 . S
C465 C464 1.363 . S
C465 C471 1.428 . S
H466 C462 0.930 . S
H467 C464 0.929 . S
S468 N469 1.613 . S
S468 N470 1.610 . S
N469 S468 1.613 . S
N469 C472 1.350 . S
N470 S468 1.610 . S
N470 C471 1.351 . S
C471 C465 1.428 . S
C471 N470 1.351 . S
C471 C472 1.434 . S
C472 C463 1.429 . S
C472 N469 1.350 . S
C472 C471 1.434 . S
C473 C474 1.369 . S
C473 C475 1.419 . S
C473 H477 0.930 . S
C474 C473 1.369 . S
C474 C483 1.429 . S
C475 C473 1.419 . S
C475 C476 1.363 . S
C475 H478 0.929 . S
C476 C475 1.363 . S
C476 C482 1.428 . S
H477 C473 0.930 . S
H478 C475 0.929 . S
S479 N480 1.613 . S
S479 N481 1.610 . S
N480 S479 1.613 . S
N480 C483 1.350 . S
N481 S479 1.610 . S
N481 C482 1.351 . S
C482 C476 1.428 . S
C482 N481 1.351 . S
C482 C483 1.434 . S
C483 C474 1.429 . S
C483 N480 1.350 . S
C483 C482 1.434 . S
C484 C485 1.369 . S
C484 C486 1.419 . S
C484 H488 0.930 . S
C485 C484 1.369 . S
C485 C494 1.429 . S
C486 C484 1.419 . S
C486 C487 1.363 . S
C486 H489 0.929 . S
C487 C486 1.363 . S
C487 C493 1.428 . S
H488 C484 0.930 . S
H489 C486 0.929 . S
S490 N491 1.613 . S
S490 N492 1.610 . S
N491 S490 1.613 . S
N491 C494 1.350 . S
N492 S490 1.610 . S
N492 C493 1.351 . S
C493 C487 1.428 . S
C493 N492 1.351 . S
C493 C494 1.434 . S
C494 C485 1.429 . S
C494 N491 1.350 . S
C494 C493 1.434 . S
C495 C496 1.369 . S
C495 C497 1.419 . S
C495 H499 0.930 . S
C496 C495 1.369 . S
C496 C505 1.429 . S
C497 C495 1.419 . S
C497 C498 1.363 . S
C497 H500 0.929 . S
C498 C497 1.363 . S
C498 C504 1.428 . S
H499 C495 0.930 . S
H500 C497 0.929 . S
S501 N502 1.613 . S
S501 N503 1.610 . S
N502 S501 1.613 . S
N502 C505 1.350 . S
N503 S501 1.610 . S
N503 C504 1.351 . S
C504 C498 1.428 . S
C504 N503 1.351 . S
C504 C505 1.434 . S
C505 C496 1.429 . S
C505 N502 1.350 . S
C505 C504 1.434 . S
C506 C507 1.369 . S
C506 C508 1.419 . S
C506 H510 0.930 . S
C507 C506 1.369 . S
C507 C516 1.429 . S
C508 C506 1.419 . S
C508 C509 1.363 . S
C508 H511 0.929 . S
C509 C508 1.363 . S
C509 C515 1.428 . S
H510 C506 0.930 . S
H511 C508 0.929 . S
S512 N513 1.613 . S
S512 N514 1.610 . S
N513 S512 1.613 . S
N513 C516 1.350 . S
N514 S512 1.610 . S
N514 C515 1.351 . S
C515 C509 1.428 . S
C515 N514 1.351 . S
C515 C516 1.434 . S
C516 C507 1.429 . S
C516 N513 1.350 . S
C516 C515 1.434 . S
C517 C518 1.369 . S
C517 C519 1.419 . S
C517 H521 0.930 . S
C518 C517 1.369 . S
C518 C527 1.429 . S
C519 C517 1.419 . S
C519 C520 1.363 . S
C519 H522 0.929 . S
C520 C519 1.363 . S
C520 C526 1.428 . S
H521 C517 0.930 . S
H522 C519 0.929 . S
S523 N524 1.613 . S
S523 N525 1.610 . S
N524 S523 1.613 . S
N524 C527 1.350 . S
N525 S523 1.610 . S
N525 C526 1.351 . S
C526 C520 1.428 . S
C526 N525 1.351 . S
C526 C527 1.434 . S
C527 C518 1.429 . S
C527 N524 1.350 . S
C527 C526 1.434 . S
C265 N1 1.074 . S
C267 C119 1.131 . S
C276 N18 1.003 . S
C278 C159 1.067 . S
C289 C193 2.062 . S
C287 N28 2.077 . S
C298 N40 2.825 . S
C300 C234 2.822 . S
C311 C154 1.638 . S
C309 N5 1.594 . S
C322 C114 1.737 . S
C320 N14 1.580 . S
C333 C242 1.789 . S
C331 N31 1.796 . S
C344 C203 1.664 . S
C342 N41 1.715 . S
C353 N2 1.326 . S
C355 C239 1.338 . S
C366 C162 2.270 1_556 S
C364 N27 2.329 . S
C375 N44 2.505 . S
C377 C122 2.528 1_655 S
C386 N15 1.250 . S
C388 C190 1.299 . S
C399 C110 1.593 . S
C397 N57 1.666 . S
C408 N70 0.945 . S
C410 C150 1.010 . S
C419 N79 2.272 . S
C421 C202 2.381 . S
C430 N93 2.618 . S
C432 C243 2.525 . S
C441 N54 1.343 . S
C443 C163 1.452 1_556 S
C454 C123 2.221 . S
C452 N66 2.175 . S
C465 C233 1.494 . S
C463 N80 1.472 . S
C476 C194 1.806 . S
C474 N96 1.894 . S
C485 N53 1.454 . S
C487 C230 1.523 . S
C498 C153 1.875 . S
C496 N83 1.847 . S
C509 C113 2.473 . S
C507 N92 2.657 . S
C518 N67 1.582 . S
C520 C199 1.636 . S
