# Generated by pormake.
# Topology ssb, (4,4)-cn, num edge types: 1
# Building blocks:
#     Node 0, Type 0, BuildingBlock: MUDLON_clean_linker_0, # of connection points: 4
#     Node 1, Type 0, BuildingBlock: MUDLON_clean_linker_0, # of connection points: 4
#     Node 2, Type 0, BuildingBlock: MUDLON_clean_linker_0, # of connection points: 4
#     Node 3, Type 0, BuildingBlock: MUDLON_clean_linker_0, # of connection points: 4
#     Node 4, Type 0, BuildingBlock: MUDLON_clean_linker_0, # of connection points: 4
#     Node 5, Type 0, BuildingBlock: MUDLON_clean_linker_0, # of connection points: 4
#     Node 6, Type 0, BuildingBlock: MUDLON_clean_linker_0, # of connection points: 4
#     Node 7, Type 0, BuildingBlock: MUDLON_clean_linker_0, # of connection points: 4
#     Node 8, Type 1, BuildingBlock: NAWXER_clean_sbu_0, # of connection points: 4
#     Node 9, Type 1, BuildingBlock: NAWXER_clean_sbu_0, # of connection points: 4
#     Node 10, Type 1, BuildingBlock: NAWXER_clean_sbu_0, # of connection points: 4
#     Node 11, Type 1, BuildingBlock: NAWXER_clean_sbu_0, # of connection points: 4
#     Node 12, Type 1, BuildingBlock: NAWXER_clean_sbu_0, # of connection points: 4
#     Node 13, Type 1, BuildingBlock: NAWXER_clean_sbu_0, # of connection points: 4
#     Node 14, Type 1, BuildingBlock: NAWXER_clean_sbu_0, # of connection points: 4
#     Node 15, Type 1, BuildingBlock: NAWXER_clean_sbu_0, # of connection points: 4
#     Edge 16, Type (0, 1), BuildingBlock: UVAHIK_clean_linker_0, # of connection points: 2
#     Edge 17, Type (0, 1), BuildingBlock: UVAHIK_clean_linker_0, # of connection points: 2
#     Edge 18, Type (0, 1), BuildingBlock: UVAHIK_clean_linker_0, # of connection points: 2
#     Edge 19, Type (0, 1), BuildingBlock: UVAHIK_clean_linker_0, # of connection points: 2
#     Edge 20, Type (0, 1), BuildingBlock: UVAHIK_clean_linker_0, # of connection points: 2
#     Edge 21, Type (0, 1), BuildingBlock: UVAHIK_clean_linker_0, # of connection points: 2
#     Edge 22, Type (0, 1), BuildingBlock: UVAHIK_clean_linker_0, # of connection points: 2
#     Edge 23, Type (0, 1), BuildingBlock: UVAHIK_clean_linker_0, # of connection points: 2
#     Edge 24, Type (0, 1), BuildingBlock: UVAHIK_clean_linker_0, # of connection points: 2
#     Edge 25, Type (0, 1), BuildingBlock: UVAHIK_clean_linker_0, # of connection points: 2
#     Edge 26, Type (0, 1), BuildingBlock: UVAHIK_clean_linker_0, # of connection points: 2
#     Edge 27, Type (0, 1), BuildingBlock: UVAHIK_clean_linker_0, # of connection points: 2
#     Edge 28, Type (0, 1), BuildingBlock: UVAHIK_clean_linker_0, # of connection points: 2
#     Edge 29, Type (0, 1), BuildingBlock: UVAHIK_clean_linker_0, # of connection points: 2
#     Edge 30, Type (0, 1), BuildingBlock: UVAHIK_clean_linker_0, # of connection points: 2
#     Edge 31, Type (0, 1), BuildingBlock: UVAHIK_clean_linker_0, # of connection points: 2
#     Edge 32, Type (0, 1), BuildingBlock: UVAHIK_clean_linker_0, # of connection points: 2
#     Edge 33, Type (0, 1), BuildingBlock: UVAHIK_clean_linker_0, # of connection points: 2
#     Edge 34, Type (0, 1), BuildingBlock: UVAHIK_clean_linker_0, # of connection points: 2
#     Edge 35, Type (0, 1), BuildingBlock: UVAHIK_clean_linker_0, # of connection points: 2
#     Edge 36, Type (0, 1), BuildingBlock: UVAHIK_clean_linker_0, # of connection points: 2
#     Edge 37, Type (0, 1), BuildingBlock: UVAHIK_clean_linker_0, # of connection points: 2
#     Edge 38, Type (0, 1), BuildingBlock: UVAHIK_clean_linker_0, # of connection points: 2
#     Edge 39, Type (0, 1), BuildingBlock: UVAHIK_clean_linker_0, # of connection points: 2
#     Edge 40, Type (0, 1), BuildingBlock: UVAHIK_clean_linker_0, # of connection points: 2
#     Edge 41, Type (0, 1), BuildingBlock: UVAHIK_clean_linker_0, # of connection points: 2
#     Edge 42, Type (0, 1), BuildingBlock: UVAHIK_clean_linker_0, # of connection points: 2
#     Edge 43, Type (0, 1), BuildingBlock: UVAHIK_clean_linker_0, # of connection points: 2
#     Edge 44, Type (0, 1), BuildingBlock: UVAHIK_clean_linker_0, # of connection points: 2
#     Edge 45, Type (0, 1), BuildingBlock: UVAHIK_clean_linker_0, # of connection points: 2
#     Edge 46, Type (0, 1), BuildingBlock: UVAHIK_clean_linker_0, # of connection points: 2
#     Edge 47, Type (0, 1), BuildingBlock: UVAHIK_clean_linker_0, # of connection points: 2
# Relax obj value: 0.003
# Max RMSD: 0.049
# Mean RMSD: 0.025
data_MOF--net-ssb--node1-NAWXER_clean_sbu_0--node2-MUDLON_clean_linker_0--edge1-UVAHIK_clean_linker_0
_symmetry_space_group_name_H-M    P1
_symmetry_Int_Tables_number       1
_symmetry_cell_setting            triclinic
loop_
_symmetry_equiv_pos_as_xyz
'x, y, z'
_cell_length_a     73.811815
_cell_length_b     73.764556
_cell_length_c     64.450162
_cell_angle_alpha  89.997269
_cell_angle_beta   90.02881
_cell_angle_gamma 89.980784
loop_
_atom_site_label
_atom_site_type_symbol
_atom_site_fract_x
_atom_site_fract_y
_atom_site_fract_z
_atom_type_partial_charge
H0 H 0.256 0.2737 0.12984 0.0
N1 N 0.27175 0.26533 0.16562 0.0
H2 H 0.24725 0.30385 0.11731 0.0
H3 H 0.27443 0.29722 0.18729 0.0
H4 H 0.26572 0.32728 0.17499 0.0
H5 H 0.30266 0.28435 0.17482 0.0
H6 H 0.33319 0.27695 0.16361 0.0
H7 H 0.2827 0.23498 0.14743 0.0
H8 H 0.31351 0.22657 0.13756 0.0
H9 H 0.24482 0.24173 0.16578 0.0
H10 H 0.2807 0.2711 0.20628 0.0
H11 H 0.23031 0.22766 0.19565 0.0
H12 H 0.26537 0.25826 0.23657 0.0
H13 H 0.17699 0.19232 0.29066 0.0
H14 H 0.15259 0.20497 0.3119 0.0
H15 H 0.18633 0.2511 0.32649 0.0
H16 H 0.21065 0.23833 0.30503 0.0
H17 H 0.22865 0.21465 0.32133 0.0
H18 H 0.24142 0.19367 0.34677 0.0
H19 H 0.22889 0.14868 0.30644 0.0
H20 H 0.21554 0.16977 0.28119 0.0
H21 H 0.19581 0.21665 0.25068 0.0
H22 H 0.21046 0.23287 0.22244 0.0
H23 H 0.26088 0.2324 0.25669 0.0
N24 N 0.21027 0.20521 0.28597 0.0
H25 H 0.24576 0.21748 0.28547 0.0
C26 C 0.2659 0.28316 0.15939 0.0
C27 C 0.25799 0.28535 0.13979 0.0
C28 C 0.25294 0.30255 0.13274 0.0
C29 C 0.25584 0.31795 0.14516 0.0
C30 C 0.26349 0.31569 0.16498 0.0
C31 C 0.26841 0.29846 0.17208 0.0
C32 C 0.29028 0.2604 0.16144 0.0
C33 C 0.30487 0.27178 0.1666 0.0
C34 C 0.32248 0.26735 0.16037 0.0
C35 C 0.32598 0.25121 0.14934 0.0
C36 C 0.3114 0.23938 0.1454 0.0
C37 C 0.29377 0.24403 0.15122 0.0
C38 C 0.26353 0.25765 0.18383 0.0
C39 C 0.24932 0.24535 0.18124 0.0
C40 C 0.24093 0.23748 0.19841 0.0
C41 C 0.24637 0.24201 0.21872 0.0
C42 C 0.26082 0.25433 0.22125 0.0
C43 C 0.26945 0.26193 0.20395 0.0
C44 C 0.19557 0.21431 0.29637 0.0
C45 C 0.17894 0.20533 0.29813 0.0
C46 C 0.16504 0.2126 0.31022 0.0
C47 C 0.16759 0.229 0.32094 0.0
C48 C 0.18407 0.23835 0.31858 0.0
C49 C 0.19793 0.23112 0.30629 0.0
C50 C 0.22084 0.19369 0.29944 0.0
C51 C 0.22875 0.20032 0.31782 0.0
C52 C 0.23607 0.18833 0.33236 0.0
C53 C 0.23596 0.16958 0.32861 0.0
C54 C 0.22919 0.16309 0.30965 0.0
C55 C 0.22159 0.17507 0.29525 0.0
C56 C 0.21955 0.2156 0.27018 0.0
C57 C 0.20997 0.22026 0.25218 0.0
C58 C 0.21848 0.22936 0.23592 0.0
C59 C 0.23703 0.23369 0.23696 0.0
C60 C 0.24657 0.22945 0.25528 0.0
C61 C 0.2379 0.22067 0.2718 0.0
H62 H 0.70262 0.35414 0.23327 0.0
N63 N 0.71364 0.3201 0.23685 0.0
H64 H 0.71536 0.37771 0.21091 0.0
H65 H 0.74612 0.3181 0.21637 0.0
H66 H 0.75898 0.34157 0.19392 0.0
H67 H 0.72034 0.30275 0.19995 0.0
H68 H 0.69748 0.29223 0.17541 0.0
H69 H 0.67841 0.31597 0.24403 0.0
H70 H 0.6554 0.30489 0.21956 0.0
H71 H 0.7185 0.32912 0.27611 0.0
H72 H 0.73194 0.28792 0.23129 0.0
H73 H 0.73557 0.31282 0.30263 0.0
H74 H 0.74835 0.27101 0.25791 0.0
H75 H 0.79007 0.28156 0.37843 0.0
H76 H 0.81856 0.29576 0.38901 0.0
H77 H 0.84564 0.27003 0.33729 0.0
H78 H 0.81738 0.25526 0.32764 0.0
H79 H 0.79831 0.22892 0.32652 0.0
H80 H 0.80015 0.19769 0.33942 0.0
H81 H 0.7715 0.2138 0.39493 0.0
H82 H 0.77026 0.24498 0.38212 0.0
H83 H 0.75264 0.27324 0.3512 0.0
H84 H 0.73436 0.28676 0.32363 0.0
H85 H 0.77503 0.27125 0.2787 0.0
N86 N 0.78497 0.25804 0.34785 0.0
H87 H 0.7926 0.25692 0.30627 0.0
C88 C 0.72332 0.33441 0.22643 0.0
C89 C 0.71517 0.35151 0.22511 0.0
C90 C 0.72249 0.36493 0.21236 0.0
C91 C 0.73811 0.36144 0.20055 0.0
C92 C 0.74681 0.34457 0.20267 0.0
C93 C 0.73954 0.33118 0.21558 0.0
C94 C 0.70103 0.31044 0.22381 0.0
C95 C 0.70627 0.30305 0.20458 0.0
C96 C 0.6932 0.29704 0.19052 0.0
C97 C 0.67473 0.29795 0.19557 0.0
C98 C 0.66959 0.30402 0.21536 0.0
C99 C 0.68266 0.31032 0.22931 0.0
C100 C 0.72375 0.30972 0.25185 0.0
C101 C 0.725 0.31642 0.2721 0.0
C102 C 0.73463 0.30697 0.28725 0.0
C103 C 0.74317 0.29041 0.28254 0.0
C104 C 0.74205 0.28375 0.26209 0.0
C105 C 0.73251 0.29336 0.24685 0.0
C106 C 0.80157 0.26746 0.35227 0.0
C107 C 0.80217 0.2792 0.36932 0.0
C108 C 0.81844 0.28739 0.37521 0.0
C109 C 0.83447 0.28404 0.36403 0.0
C110 C 0.83365 0.27272 0.34646 0.0
C111 C 0.8174 0.26439 0.34074 0.0
C112 C 0.78423 0.23923 0.35352 0.0
C113 C 0.79232 0.22566 0.34137 0.0
C114 C 0.79329 0.2078 0.34874 0.0
C115 C 0.7862 0.2033 0.36836 0.0
C116 C 0.77745 0.21686 0.37998 0.0
C117 C 0.77655 0.23462 0.37263 0.0
C118 C 0.77404 0.26436 0.33087 0.0
C119 C 0.75743 0.27259 0.33533 0.0
C120 C 0.74713 0.28045 0.31956 0.0
C121 C 0.75337 0.28044 0.29892 0.0
C122 C 0.76975 0.27149 0.29436 0.0
C123 C 0.77995 0.26342 0.31019 0.0
H124 H 0.78582 0.75211 0.35952 0.0
N125 N 0.77155 0.77844 0.33665 0.0
H126 H 0.81664 0.75048 0.37353 0.0
H127 H 0.79978 0.801 0.3266 0.0
H128 H 0.83054 0.79933 0.34013 0.0
H129 H 0.77007 0.81184 0.31827 0.0
H130 H 0.75994 0.83992 0.33481 0.0
H131 H 0.7539 0.7815 0.37225 0.0
H132 H 0.74289 0.80932 0.38859 0.0
H133 H 0.74239 0.75863 0.32946 0.0
H134 H 0.78736 0.78416 0.29847 0.0
H135 H 0.73151 0.74693 0.29634 0.0
H136 H 0.7773 0.77164 0.26546 0.0
H137 H 0.71417 0.69555 0.1912 0.0
H138 H 0.73043 0.67203 0.1722 0.0
H139 H 0.77767 0.70664 0.16944 0.0
H140 H 0.76083 0.73043 0.18781 0.0
H141 H 0.7361 0.7512 0.171 0.0
H142 H 0.71578 0.76883 0.14874 0.0
H143 H 0.66973 0.74725 0.18208 0.0
H144 H 0.69026 0.73034 0.20464 0.0
H145 H 0.72573 0.71277 0.23915 0.0
H146 H 0.73782 0.7249 0.27154 0.0
H147 H 0.75547 0.77304 0.23896 0.0
N148 N 0.726 0.72806 0.20198 0.0
H149 H 0.74433 0.76018 0.20649 0.0
C150 C 0.79043 0.7766 0.34207 0.0
C151 C 0.79566 0.76224 0.35496 0.0
C152 C 0.81327 0.76134 0.36289 0.0
C153 C 0.82602 0.77487 0.35807 0.0
C154 C 0.82097 0.78886 0.34441 0.0
C155 C 0.80336 0.78974 0.33651 0.0
C156 C 0.76299 0.79465 0.34427 0.0
C157 C 0.764 0.8112 0.33353 0.0
C158 C 0.75804 0.82723 0.34296 0.0
C159 C 0.75084 0.82693 0.36319 0.0
C160 C 0.74875 0.81012 0.37322 0.0
C161 C 0.75487 0.79419 0.36387 0.0
C162 C 0.76577 0.77201 0.3166 0.0
C163 C 0.75001 0.76153 0.31549 0.0
C164 C 0.74393 0.75472 0.29653 0.0
C165 C 0.75366 0.75805 0.27813 0.0
C166 C 0.76936 0.76886 0.27921 0.0
C167 C 0.77528 0.77592 0.29822 0.0
C168 C 0.73633 0.71456 0.19105 0.0
C169 C 0.72805 0.69799 0.18649 0.0
C170 C 0.73745 0.68453 0.17578 0.0
C171 C 0.7555 0.68728 0.16949 0.0
C172 C 0.76377 0.70406 0.17393 0.0
C173 C 0.75423 0.71763 0.18455 0.0
C174 C 0.71459 0.73953 0.1895 0.0
C175 C 0.72164 0.75056 0.17368 0.0
C176 C 0.70998 0.76051 0.16088 0.0
C177 C 0.69106 0.75949 0.16355 0.0
C178 C 0.68418 0.7487 0.17975 0.0
C179 C 0.69585 0.7389 0.19259 0.0
C180 C 0.73385 0.73562 0.22052 0.0
C181 C 0.73232 0.72588 0.23906 0.0
C182 C 0.7391 0.73296 0.25758 0.0
C183 C 0.74738 0.75015 0.25805 0.0
C184 C 0.74929 0.75974 0.23926 0.0
C185 C 0.74274 0.75247 0.22063 0.0
H186 H 0.30721 0.77043 0.16733 0.0
N187 N 0.29311 0.74423 0.19038 0.0
H188 H 0.33892 0.77377 0.15709 0.0
H189 H 0.32177 0.72642 0.208 0.0
H190 H 0.35354 0.72984 0.19821 0.0
H191 H 0.28968 0.71329 0.21365 0.0
H192 H 0.28609 0.68243 0.1999 0.0
H193 H 0.28626 0.73481 0.1516 0.0
H194 H 0.28296 0.70407 0.13777 0.0
H195 H 0.26193 0.76178 0.18904 0.0
H196 H 0.30294 0.74305 0.23154 0.0
H197 H 0.24564 0.77601 0.21771 0.0
H198 H 0.28727 0.75794 0.26019 0.0
H199 H 0.21741 0.84079 0.31152 0.0
H200 H 0.23217 0.8642 0.33215 0.0
H201 H 0.27551 0.8268 0.34678 0.0
H202 H 0.26001 0.80319 0.32681 0.0
H203 H 0.23132 0.78657 0.34121 0.0
H204 H 0.20646 0.77376 0.36168 0.0
H205 H 0.16809 0.79331 0.31624 0.0
H206 H 0.19305 0.80618 0.296 0.0
H207 H 0.2327 0.81746 0.26715 0.0
H208 H 0.24885 0.8016 0.23951 0.0
H209 H 0.26098 0.75783 0.28196 0.0
N210 N 0.22788 0.80686 0.30594 0.0
H211 H 0.24546 0.77426 0.3097 0.0
C212 C 0.31212 0.74822 0.18832 0.0
C213 C 0.31737 0.76191 0.17455 0.0
C214 C 0.3355 0.76379 0.16877 0.0
C215 C 0.34874 0.75194 0.17669 0.0
C216 C 0.34362 0.739 0.19162 0.0
C217 C 0.32547 0.73714 0.19738 0.0
C218 C 0.28811 0.72634 0.18355 0.0
C219 C 0.28775 0.71142 0.19715 0.0
C220 C 0.28576 0.69382 0.18929 0.0
C221 C 0.28446 0.69095 0.16779 0.0
C222 C 0.28413 0.70594 0.15439 0.0
C223 C 0.28586 0.72345 0.16224 0.0
C224 C 0.28371 0.75161 0.20803 0.0
C225 C 0.26742 0.76081 0.20459 0.0
C226 C 0.25824 0.76906 0.22098 0.0
C227 C 0.26529 0.76841 0.24126 0.0
C228 C 0.2814 0.75867 0.24481 0.0
C229 C 0.2905 0.75025 0.22836 0.0
C230 C 0.23766 0.82039 0.31747 0.0
C231 C 0.23015 0.83773 0.31911 0.0
C232 C 0.23873 0.85112 0.33078 0.0
C233 C 0.25522 0.84752 0.34099 0.0
C234 C 0.26279 0.83005 0.33927 0.0
C235 C 0.25403 0.81656 0.32771 0.0
C236 C 0.21393 0.79738 0.31711 0.0
C237 C 0.21759 0.7878 0.3355 0.0
C238 C 0.20338 0.78045 0.34714 0.0
C239 C 0.18531 0.78266 0.34064 0.0
C240 C 0.18184 0.7916 0.32178 0.0
C241 C 0.19603 0.79886 0.31016 0.0
C242 C 0.2377 0.797 0.29032 0.0
C243 C 0.2389 0.80445 0.27042 0.0
C244 C 0.248 0.79528 0.25464 0.0
C245 C 0.25603 0.77828 0.25839 0.0
C246 C 0.25506 0.77092 0.27853 0.0
C247 C 0.24605 0.78024 0.29439 0.0
H248 H 0.19857 0.85247 0.73494 0.0
N249 N 0.20849 0.81793 0.73755 0.0
H250 H 0.21168 0.87594 0.71269 0.0
H251 H 0.24046 0.81523 0.71613 0.0
H252 H 0.2537 0.83861 0.6939 0.0
H253 H 0.21316 0.80259 0.69906 0.0
H254 H 0.18916 0.79413 0.67494 0.0
H255 H 0.17322 0.81479 0.74589 0.0
H256 H 0.14904 0.80554 0.72178 0.0
H257 H 0.22403 0.82679 0.77325 0.0
H258 H 0.21797 0.78201 0.73071 0.0
H259 H 0.24342 0.80819 0.79527 0.0
H260 H 0.23608 0.76305 0.75323 0.0
H261 H 0.28733 0.7551 0.86622 0.0
H262 H 0.31327 0.76861 0.88432 0.0
H263 H 0.34647 0.75967 0.83004 0.0
H264 H 0.32059 0.74586 0.81237 0.0
H265 H 0.30202 0.707 0.82708 0.0
H266 H 0.29184 0.68021 0.84591 0.0
H267 H 0.24651 0.71077 0.87016 0.0
H268 H 0.2575 0.73766 0.85235 0.0
H269 H 0.26485 0.76676 0.84056 0.0
H270 H 0.24466 0.78475 0.81886 0.0
H271 H 0.26508 0.75707 0.76444 0.0
N272 N 0.28778 0.73994 0.82751 0.0
H273 H 0.28411 0.73821 0.78666 0.0
C274 C 0.21844 0.83214 0.72717 0.0
C275 C 0.21086 0.84954 0.7264 0.0
C276 C 0.21839 0.86291 0.7137 0.0
C277 C 0.23364 0.85906 0.70141 0.0
C278 C 0.24181 0.84189 0.703 0.0
C279 C 0.23433 0.82856 0.71582 0.0
C280 C 0.19497 0.80968 0.7243 0.0
C281 C 0.19927 0.80323 0.70431 0.0
C282 C 0.18556 0.79833 0.69051 0.0
C283 C 0.16734 0.79937 0.69652 0.0
C284 C 0.16304 0.80462 0.71687 0.0
C285 C 0.17679 0.80986 0.7306 0.0
C286 C 0.21938 0.80599 0.75033 0.0
C287 C 0.22667 0.81287 0.7688 0.0
C288 C 0.23764 0.80212 0.78149 0.0
C289 C 0.24135 0.78397 0.77621 0.0
C290 C 0.23387 0.77702 0.75773 0.0
C291 C 0.22323 0.78792 0.74481 0.0
C292 C 0.30218 0.74935 0.838 0.0
C293 C 0.30016 0.75622 0.85821 0.0
C294 C 0.31498 0.76401 0.86848 0.0
C295 C 0.332 0.76504 0.8587 0.0
C296 C 0.33367 0.75877 0.83818 0.0
C297 C 0.31891 0.75099 0.82799 0.0
C298 C 0.2805 0.72428 0.838 0.0
C299 C 0.28984 0.70783 0.8364 0.0
C300 C 0.28387 0.69249 0.84708 0.0
C301 C 0.26819 0.69316 0.8595 0.0
C302 C 0.25874 0.70971 0.86097 0.0
C303 C 0.26492 0.72515 0.85052 0.0
C304 C 0.2757 0.75086 0.8152 0.0
C305 C 0.26468 0.76433 0.82402 0.0
C306 C 0.25332 0.77484 0.81146 0.0
C307 C 0.2531 0.77245 0.78975 0.0
C308 C 0.26444 0.75909 0.78106 0.0
C309 C 0.27547 0.74836 0.79369 0.0
H310 H 0.30045 0.25832 0.85163 0.0
N311 N 0.28819 0.28322 0.82547 0.0
H312 H 0.33152 0.25495 0.8643 0.0
H313 H 0.31819 0.2995 0.80878 0.0
H314 H 0.34922 0.29603 0.82102 0.0
H315 H 0.29082 0.31584 0.8056 0.0
H316 H 0.28693 0.34558 0.82191 0.0
H317 H 0.27253 0.2898 0.86158 0.0
H318 H 0.26758 0.31937 0.87769 0.0
H319 H 0.25788 0.26424 0.82527 0.0
H320 H 0.29897 0.28582 0.78478 0.0
H321 H 0.24298 0.24997 0.79568 0.0
H322 H 0.28481 0.27079 0.75519 0.0
H323 H 0.22061 0.18536 0.70364 0.0
H324 H 0.23717 0.1618 0.68493 0.0
H325 H 0.27671 0.20157 0.66554 0.0
H326 H 0.2597 0.22515 0.68407 0.0
H327 H 0.23198 0.24133 0.67163 0.0
H328 H 0.20712 0.2543 0.65125 0.0
H329 H 0.16858 0.23242 0.69503 0.0
H330 H 0.19355 0.21939 0.71518 0.0
H331 H 0.23264 0.20924 0.74505 0.0
H332 H 0.24755 0.22514 0.77352 0.0
H333 H 0.25949 0.26986 0.7323 0.0
N334 N 0.22856 0.22024 0.7063 0.0
H335 H 0.24533 0.2533 0.7037 0.0
C336 C 0.30695 0.2791 0.82933 0.0
C337 C 0.31115 0.26621 0.84452 0.0
C338 C 0.32891 0.2643 0.8517 0.0
C339 C 0.34281 0.27536 0.84379 0.0
C340 C 0.33876 0.2875 0.82763 0.0
C341 C 0.32099 0.28938 0.82046 0.0
C342 C 0.28228 0.30068 0.83264 0.0
C343 C 0.28557 0.31657 0.82125 0.0
C344 C 0.28321 0.33356 0.83057 0.0
C345 C 0.27734 0.33485 0.8513 0.0
C346 C 0.27264 0.31887 0.86192 0.0
C347 C 0.27522 0.30198 0.8527 0.0
C348 C 0.27963 0.2758 0.80733 0.0
C349 C 0.26371 0.26579 0.80995 0.0
C350 C 0.25534 0.25752 0.79303 0.0
C351 C 0.26286 0.2589 0.77303 0.0
C352 C 0.27858 0.26946 0.77032 0.0
C353 C 0.28683 0.27796 0.78731 0.0
C354 C 0.23895 0.20687 0.69526 0.0
C355 C 0.23288 0.18892 0.69537 0.0
C356 C 0.24245 0.17549 0.68481 0.0
C357 C 0.2584 0.17975 0.67389 0.0
C358 C 0.26444 0.19786 0.6737 0.0
C359 C 0.25479 0.21133 0.68432 0.0
C360 C 0.2145 0.22932 0.69487 0.0
C361 C 0.2182 0.23953 0.67695 0.0
C362 C 0.20399 0.247 0.66538 0.0
C363 C 0.1859 0.24428 0.67148 0.0
C364 C 0.18236 0.23455 0.68979 0.0
C365 C 0.19655 0.22718 0.70135 0.0
C366 C 0.23767 0.23015 0.72243 0.0
C367 C 0.23854 0.22245 0.74223 0.0
C368 C 0.24693 0.23166 0.75848 0.0
C369 C 0.2545 0.24896 0.75534 0.0
C370 C 0.2539 0.25654 0.73529 0.0
C371 C 0.24565 0.24716 0.71893 0.0
H372 H 0.79682 0.23154 0.68062 0.0
N373 N 0.80065 0.21802 0.72007 0.0
H374 H 0.82126 0.23993 0.65707 0.0
H375 H 0.83569 0.22136 0.72921 0.0
H376 H 0.86034 0.23031 0.70569 0.0
H377 H 0.80941 0.18338 0.72434 0.0
H378 H 0.79628 0.15742 0.70626 0.0
H379 H 0.77022 0.21872 0.6958 0.0
H380 H 0.7576 0.19304 0.67655 0.0
H381 H 0.79123 0.25357 0.71154 0.0
H382 H 0.78558 0.21055 0.7564 0.0
H383 H 0.77502 0.27404 0.73436 0.0
H384 H 0.76798 0.23054 0.77868 0.0
H385 H 0.71802 0.33541 0.81512 0.0
H386 H 0.73068 0.36106 0.83406 0.0
H387 H 0.77636 0.32794 0.85232 0.0
H388 H 0.76305 0.30222 0.83444 0.0
H389 H 0.73357 0.28647 0.8515 0.0
H390 H 0.70891 0.27309 0.8718 0.0
H391 H 0.67173 0.28385 0.82144 0.0
H392 H 0.69645 0.29743 0.80145 0.0
H393 H 0.73166 0.30305 0.77189 0.0
H394 H 0.74766 0.28259 0.74839 0.0
H395 H 0.77008 0.25431 0.80137 0.0
N396 N 0.73062 0.30186 0.81301 0.0
H397 H 0.75283 0.27382 0.82441 0.0
C398 C 0.81446 0.2255 0.70669 0.0
C399 C 0.81058 0.23122 0.68632 0.0
C400 C 0.82457 0.23606 0.67284 0.0
C401 C 0.84267 0.23558 0.67953 0.0
C402 C 0.84648 0.23083 0.70018 0.0
C403 C 0.83247 0.22573 0.71359 0.0
C404 C 0.791 0.20292 0.71116 0.0
C405 C 0.79787 0.18545 0.71422 0.0
C406 C 0.79045 0.1707 0.70369 0.0
C407 C 0.77613 0.17316 0.68952 0.0
C408 C 0.76859 0.1906 0.68733 0.0
C409 C 0.77588 0.20534 0.69818 0.0
C410 C 0.78993 0.23042 0.73236 0.0
C411 C 0.78637 0.24838 0.72618 0.0
C412 C 0.77683 0.26013 0.73928 0.0
C413 C 0.77021 0.25412 0.7586 0.0
C414 C 0.77326 0.23594 0.76429 0.0
C415 C 0.78315 0.22436 0.75144 0.0
C416 C 0.73955 0.31691 0.82306 0.0
C417 C 0.73084 0.33377 0.82309 0.0
C418 C 0.73821 0.34847 0.83385 0.0
C419 C 0.75468 0.34671 0.84471 0.0
C420 C 0.76356 0.32981 0.8444 0.0
C421 C 0.756 0.31502 0.83388 0.0
C422 C 0.71673 0.29303 0.82499 0.0
C423 C 0.72014 0.2858 0.8448 0.0
C424 C 0.70605 0.27809 0.85634 0.0
C425 C 0.68832 0.27751 0.84829 0.0
C426 C 0.68515 0.28435 0.82824 0.0
C427 C 0.69922 0.29201 0.81675 0.0
C428 C 0.74127 0.29021 0.79984 0.0
C429 C 0.7401 0.29243 0.77831 0.0
C430 C 0.74938 0.28076 0.76493 0.0
C431 C 0.76032 0.2667 0.77284 0.0
C432 C 0.76159 0.26468 0.79455 0.0
C433 C 0.75195 0.2761 0.80787 0.0
H434 H 0.76874 0.78011 0.63026 0.0
N435 N 0.7811 0.76699 0.66581 0.0
H436 H 0.76796 0.81187 0.61908 0.0
H437 H 0.79014 0.79646 0.68959 0.0
H438 H 0.78988 0.82823 0.6783 0.0
H439 H 0.81472 0.77775 0.67913 0.0
H440 H 0.84353 0.765 0.66853 0.0
H441 H 0.7864 0.73689 0.64405 0.0
H442 H 0.81532 0.72305 0.63446 0.0
H443 H 0.74788 0.75365 0.66511 0.0
H444 H 0.79204 0.76612 0.7064 0.0
H445 H 0.73071 0.74084 0.694 0.0
H446 H 0.77486 0.75356 0.73563 0.0
H447 H 0.67555 0.69622 0.77889 0.0
H448 H 0.65167 0.70817 0.80131 0.0
H449 H 0.68877 0.74876 0.82448 0.0
H450 H 0.71263 0.73649 0.80211 0.0
H451 H 0.73293 0.712 0.81043 0.0
H452 H 0.74275 0.68915 0.83556 0.0
H453 H 0.71614 0.64761 0.79945 0.0
H454 H 0.7062 0.67064 0.77451 0.0
H455 H 0.69794 0.7314 0.75096 0.0
H456 H 0.7152 0.74871 0.72568 0.0
H457 H 0.76451 0.72343 0.74715 0.0
N458 N 0.71003 0.70629 0.77761 0.0
H459 H 0.74752 0.70644 0.77265 0.0
C460 C 0.7796 0.78592 0.6606 0.0
C461 C 0.77314 0.79059 0.64089 0.0
C462 C 0.77269 0.80869 0.63457 0.0
C463 C 0.77894 0.82246 0.64782 0.0
C464 C 0.78514 0.81783 0.66775 0.0
C465 C 0.78527 0.7997 0.6742 0.0
C466 C 0.79835 0.75852 0.6619 0.0
C467 C 0.81466 0.76586 0.66934 0.0
C468 C 0.83124 0.75832 0.66346 0.0
C469 C 0.8319 0.74302 0.6504 0.0
C470 C 0.81545 0.73509 0.64406 0.0
C471 C 0.79888 0.74286 0.64965 0.0
C472 C 0.77115 0.76076 0.6836 0.0
C473 C 0.75373 0.75381 0.68053 0.0
C474 C 0.74393 0.74661 0.69709 0.0
C475 C 0.7514 0.74622 0.71717 0.0
C476 C 0.7688 0.75353 0.72032 0.0
C477 C 0.7786 0.7608 0.70367 0.0
C478 C 0.69579 0.71539 0.78888 0.0
C479 C 0.67837 0.70789 0.78854 0.0
C480 C 0.66476 0.71479 0.80132 0.0
C481 C 0.66834 0.72938 0.81476 0.0
C482 C 0.68566 0.73735 0.81451 0.0
C483 C 0.69928 0.73042 0.80169 0.0
C484 C 0.71883 0.69295 0.79055 0.0
C485 C 0.72948 0.69794 0.80775 0.0
C486 C 0.73515 0.68486 0.82204 0.0
C487 C 0.73007 0.66662 0.81955 0.0
C488 C 0.72007 0.66159 0.80189 0.0
C489 C 0.71455 0.67466 0.78755 0.0
C490 C 0.72116 0.71787 0.7645 0.0
C491 C 0.71253 0.72989 0.75072 0.0
C492 C 0.72241 0.73967 0.73605 0.0
C493 C 0.74125 0.73745 0.73439 0.0
C494 C 0.75005 0.72571 0.74828 0.0
C495 C 0.74017 0.71592 0.76303 0.0
C496 C 0.987 0.26213 0.53208 0.0
C497 C 0.03336 0.26239 0.47828 0.0
O498 O 0.99382 0.27796 0.52943 0.0
Zn499 Zn 0.01372 0.29048 0.50949 0.0
O500 O 0.99253 0.24899 0.52102 0.0
Zn501 Zn 0.01026 0.26214 0.50519 0.0
O502 O 0.03008 0.26965 0.52781 0.0
O503 O 0.0316 0.29952 0.52901 0.0
O504 O 0.02447 0.24897 0.48528 0.0
O505 O 0.0306 0.27826 0.48586 0.0
O506 O 0.99918 0.30758 0.49363 0.0
O507 O 0.99394 0.27894 0.48573 0.0
C508 C 0.03704 0.28414 0.53539 0.0
C509 C 0.99088 0.29584 0.48275 0.0
C510 C 0.75191 0.03603 0.5367 0.0
C511 C 0.74936 0.99165 0.48041 0.0
O512 O 0.76755 0.03068 0.5306 0.0
Zn513 Zn 0.77897 0.01286 0.50792 0.0
O514 O 0.73777 0.02998 0.52779 0.0
Zn515 Zn 0.75009 0.01419 0.50818 0.0
O516 O 0.76191 0.99397 0.52807 0.0
O517 O 0.79166 0.99546 0.52513 0.0
O518 O 0.736 0.99929 0.48931 0.0
O519 O 0.76555 0.9957 0.48594 0.0
O520 O 0.79273 0.02908 0.49041 0.0
O521 O 0.76321 0.03314 0.48781 0.0
C522 C 0.7777 0.98818 0.53314 0.0
C523 C 0.77938 0.03747 0.48246 0.0
C524 C 0.99224 0.73629 0.53364 0.0
C525 C 0.03789 0.74764 0.48059 0.0
O526 O 0.99489 0.75323 0.5304 0.0
Zn527 Zn 0.01082 0.76993 0.51002 0.0
O528 O 0.00067 0.72451 0.52298 0.0
Zn529 Zn 0.01475 0.74158 0.5069 0.0
O530 O 0.03108 0.7547 0.53043 0.0
O531 O 0.02491 0.784 0.52923 0.0
O532 O 0.03274 0.7324 0.48761 0.0
O533 O 0.0307 0.76221 0.48763 0.0
O534 O 0.99277 0.78225 0.4936 0.0
O535 O 0.99418 0.75295 0.48708 0.0
C536 C 0.03365 0.77088 0.53718 0.0
C537 C 0.98708 0.76854 0.48362 0.0
C538 C 0.30001 0.03472 0.53957 0.0
C539 C 0.29426 0.98873 0.48565 0.0
O540 O 0.31283 0.02707 0.52976 0.0
Zn541 Zn 0.29757 0.01157 0.51273 0.0
O542 O 0.28351 0.03078 0.53541 0.0
Zn543 Zn 0.26894 0.01367 0.51447 0.0
O544 O 0.25531 0.99842 0.53291 0.0
O545 O 0.2848 0.99402 0.53521 0.0
O546 O 0.27895 0.99499 0.49172 0.0
O547 O 0.30881 0.99421 0.49411 0.0
O548 O 0.28533 0.03083 0.49163 0.0
O549 O 0.25591 0.03094 0.49789 0.0
C550 C 0.26865 0.99031 0.54122 0.0
C551 C 0.26939 0.03695 0.48776 0.0
C552 C 0.49493 0.76095 0.0335 0.0
C553 C 0.53571 0.76097 0.97407 0.0
O554 O 0.49955 0.777 0.02795 0.0
Zn555 Zn 0.51598 0.78956 0.00455 0.0
O556 O 0.50089 0.74738 0.02347 0.0
Zn557 Zn 0.51518 0.76067 0.00357 0.0
O558 O 0.53623 0.772 0.02223 0.0
O559 O 0.53447 0.80183 0.02098 0.0
O560 O 0.52874 0.74736 0.98318 0.0
O561 O 0.53199 0.77703 0.98045 0.0
O562 O 0.49814 0.80356 0.989 0.0
O563 O 0.4953 0.77398 0.98494 0.0
C564 C 0.54227 0.78758 0.02765 0.0
C565 C 0.49011 0.79013 0.9807 0.0
C566 C 0.2726 0.5331 0.04168 0.0
C567 C 0.27093 0.48986 0.98454 0.0
O568 O 0.28592 0.52654 0.03172 0.0
Zn569 Zn 0.27209 0.51161 0.01287 0.0
O570 O 0.2564 0.52871 0.03654 0.0
Zn571 Zn 0.24326 0.51218 0.01371 0.0
O572 O 0.22998 0.49496 0.03055 0.0
O573 O 0.25967 0.49192 0.03292 0.0
O574 O 0.25507 0.4946 0.99067 0.0
O575 O 0.28484 0.49655 0.99331 0.0
O576 O 0.25979 0.53107 0.99277 0.0
O577 O 0.23015 0.53007 0.99728 0.0
C578 C 0.24368 0.48689 0.03818 0.0
C579 C 0.2439 0.53687 0.98833 0.0
C580 C 0.54086 0.24493 0.98539 0.0
C581 C 0.49264 0.24276 0.03734 0.0
O582 O 0.53487 0.2606 0.99055 0.0
Zn583 Zn 0.51559 0.27212 0.01142 0.0
O584 O 0.53448 0.23085 0.99411 0.0
Zn585 Zn 0.51686 0.24328 0.01157 0.0
O586 O 0.49851 0.25493 0.98937 0.0
O587 O 0.49951 0.28468 0.99269 0.0
O588 O 0.50037 0.22933 0.02869 0.0
O589 O 0.4972 0.25896 0.03237 0.0
O590 O 0.53072 0.28614 0.0297 0.0
O591 O 0.53377 0.2566 0.0341 0.0
C592 C 0.49312 0.27072 0.98375 0.0
C593 C 0.53789 0.27288 0.03924 0.0
C594 C 0.79279 0.5402 0.0375 0.0
C595 C 0.79011 0.49357 0.98367 0.0
O596 O 0.8061 0.53329 0.02779 0.0
Zn597 Zn 0.79202 0.51667 0.01083 0.0
O598 O 0.7766 0.53506 0.03329 0.0
Zn599 Zn 0.76326 0.51668 0.01254 0.0
O600 O 0.75086 0.50052 0.03116 0.0
O601 O 0.78061 0.49837 0.03338 0.0
O602 O 0.77447 0.49873 0.98992 0.0
O603 O 0.80432 0.50008 0.99196 0.0
O604 O 0.77842 0.53521 0.99007 0.0
O605 O 0.749 0.53261 0.99546 0.0
C606 C 0.7648 0.49347 0.03946 0.0
C607 C 0.7621 0.53994 0.98581 0.0
C608 C 0.13508 0.23487 0.33021 0.0
C609 C 0.15351 0.23553 0.33559 0.0
C610 C 0.12175 0.23931 0.34475 0.0
C611 C 0.09684 0.23669 0.38192 0.0
H612 H 0.10384 0.27443 0.42301 0.0
C613 C 0.05148 0.24244 0.45453 0.0
C614 C 0.04678 0.25989 0.46144 0.0
C615 C 0.06421 0.24016 0.43869 0.0
C616 C 0.10156 0.26395 0.41153 0.0
H617 H 0.17245 0.24165 0.36033 0.0
H618 H 0.14926 0.2492 0.38577 0.0
H619 H 0.12621 0.27029 0.39566 0.0
H620 H 0.05164 0.28863 0.45695 0.0
H621 H 0.07355 0.28466 0.4291 0.0
H622 H 0.072 0.23061 0.3975 0.0
C623 C 0.14505 0.24558 0.37022 0.0
C624 C 0.11451 0.26144 0.39598 0.0
C625 C 0.15837 0.24125 0.35563 0.0
C626 C 0.05503 0.27499 0.45209 0.0
C627 C 0.06768 0.27271 0.43618 0.0
C628 C 0.08385 0.23926 0.39741 0.0
C629 C 0.12656 0.2444 0.36506 0.0
C630 C 0.11238 0.24769 0.38105 0.0
C631 C 0.07247 0.25527 0.4293 0.0
C632 C 0.0861 0.25283 0.4125 0.0
H633 H 0.13095 0.23073 0.31479 0.0
H634 H 0.10767 0.23861 0.34011 0.0
H635 H 0.09484 0.22582 0.37087 0.0
H636 H 0.04543 0.23052 0.46147 0.0
H637 H 0.06778 0.22652 0.43402 0.0
C638 C 0.79279 0.18261 0.39827 0.0
C639 C 0.78842 0.18479 0.37718 0.0
C640 C 0.7942 0.16536 0.407 0.0
C641 C 0.8043 0.12746 0.42044 0.0
H642 H 0.7671 0.09249 0.40634 0.0
C643 C 0.79974 0.05775 0.4614 0.0
C644 C 0.78223 0.05245 0.46747 0.0
C645 C 0.8022 0.07241 0.44787 0.0
C646 C 0.77758 0.10211 0.41048 0.0
H647 H 0.78256 0.17045 0.34859 0.0
H648 H 0.78531 0.14019 0.36381 0.0
H649 H 0.76858 0.12115 0.38765 0.0
H650 H 0.75358 0.05824 0.46374 0.0
H651 H 0.75786 0.08381 0.4406 0.0
H652 H 0.81273 0.10882 0.44397 0.0
C653 C 0.7874 0.15191 0.37364 0.0
C654 C 0.77857 0.11846 0.39957 0.0
C655 C 0.78598 0.16924 0.36488 0.0
C656 C 0.76726 0.06191 0.4594 0.0
C657 C 0.76972 0.07652 0.44594 0.0
C658 C 0.80328 0.11113 0.43139 0.0
C659 C 0.79137 0.14978 0.39487 0.0
C660 C 0.79169 0.13152 0.40474 0.0
C661 C 0.7872 0.08207 0.44011 0.0
C662 C 0.78964 0.09843 0.42687 0.0
H663 H 0.79508 0.19428 0.40812 0.0
H664 H 0.79705 0.16428 0.42344 0.0
H665 H 0.81478 0.13708 0.42459 0.0
H666 H 0.81156 0.0507 0.46726 0.0
H667 H 0.81585 0.0762 0.44353 0.0
C668 C 0.85384 0.75886 0.37136 0.0
C669 C 0.8441 0.77503 0.36829 0.0
C670 C 0.87029 0.75897 0.38214 0.0
C671 C 0.89548 0.78563 0.42092 0.0
H672 H 0.93609 0.75571 0.40411 0.0
C673 C 0.96377 0.78715 0.46476 0.0
C674 C 0.97199 0.77028 0.46856 0.0
C675 C 0.94901 0.78851 0.4512 0.0
C676 C 0.92482 0.76404 0.4091 0.0
H677 H 0.84414 0.80401 0.37406 0.0
H678 H 0.87294 0.80422 0.39251 0.0
H679 H 0.90878 0.75653 0.38276 0.0
H680 H 0.97129 0.74165 0.46081 0.0
H681 H 0.94551 0.744 0.43745 0.0
H682 H 0.91134 0.79294 0.44741 0.0
C683 C 0.86778 0.79144 0.38673 0.0
C684 C 0.90918 0.76451 0.39686 0.0
C685 C 0.85137 0.79134 0.37592 0.0
C686 C 0.96532 0.75487 0.45823 0.0
C687 C 0.95059 0.75623 0.4447 0.0
C688 C 0.91109 0.78515 0.43318 0.0
C689 C 0.87735 0.77523 0.39017 0.0
C690 C 0.89427 0.77522 0.4027 0.0
C691 C 0.94215 0.77303 0.44114 0.0
C692 C 0.92591 0.77424 0.42751 0.0
H693 H 0.84868 0.74609 0.36553 0.0
H694 H 0.87724 0.74622 0.38466 0.0
H695 H 0.88414 0.79381 0.42605 0.0
H696 H 0.96861 0.7993 0.4724 0.0
H697 H 0.94299 0.8017 0.44859 0.0
C698 C 0.26283 0.8802 0.34785 0.0
C699 C 0.26395 0.86188 0.35385 0.0
C700 C 0.26891 0.89391 0.36103 0.0
C701 C 0.29813 0.90657 0.40353 0.0
H702 H 0.25894 0.93835 0.42024 0.0
C703 C 0.30545 0.95981 0.46975 0.0
C704 C 0.29452 0.97534 0.46872 0.0
C705 C 0.30364 0.94608 0.45485 0.0
C706 C 0.27021 0.92995 0.41547 0.0
H707 H 0.27342 0.84371 0.37807 0.0
H708 H 0.28464 0.86782 0.40076 0.0
H709 H 0.25318 0.91435 0.39538 0.0
H710 H 0.27419 0.98948 0.45073 0.0
H711 H 0.27187 0.96634 0.42408 0.0
H712 H 0.31537 0.92251 0.42309 0.0
C713 C 0.27883 0.87139 0.38587 0.0
C714 C 0.26681 0.91607 0.40133 0.0
C715 C 0.27244 0.85761 0.37282 0.0
C716 C 0.28258 0.97747 0.45199 0.0
C717 C 0.28113 0.96406 0.43684 0.0
C718 C 0.30168 0.92077 0.41741 0.0
C719 C 0.27663 0.88964 0.38029 0.0
C720 C 0.2807 0.90428 0.39523 0.0
C721 C 0.29114 0.94786 0.43841 0.0
C722 C 0.28774 0.93271 0.42353 0.0
H723 H 0.25687 0.88401 0.33313 0.0
H724 H 0.26725 0.90793 0.35635 0.0
H725 H 0.30904 0.89759 0.39898 0.0
H726 H 0.31469 0.95787 0.48262 0.0
H727 H 0.31151 0.9338 0.45673 0.0
C728 C 0.15253 0.80719 0.66303 0.0
C729 C 0.15293 0.79645 0.68097 0.0
C730 C 0.13911 0.80461 0.64807 0.0
C731 C 0.09439 0.7821 0.63915 0.0
H732 H 0.10675 0.79082 0.58151 0.0
C733 C 0.05092 0.76006 0.56817 0.0
C734 C 0.04665 0.77408 0.55422 0.0
C735 C 0.0633 0.76297 0.58424 0.0
C736 C 0.10312 0.78844 0.59757 0.0
H737 H 0.1398 0.77463 0.69753 0.0
H738 H 0.11675 0.76937 0.67091 0.0
H739 H 0.12972 0.79482 0.60823 0.0
H740 H 0.05202 0.80208 0.54605 0.0
H741 H 0.07421 0.80694 0.57381 0.0
H742 H 0.06793 0.77491 0.62801 0.0
C743 C 0.12641 0.78021 0.66858 0.0
C744 C 0.11622 0.79084 0.61296 0.0
C745 C 0.13966 0.78309 0.68379 0.0
C746 C 0.05503 0.79105 0.55661 0.0
C747 C 0.06773 0.79382 0.5724 0.0
C748 C 0.0814 0.77932 0.62366 0.0
C749 C 0.12597 0.79093 0.65046 0.0
C750 C 0.11202 0.78788 0.63402 0.0
C751 C 0.07194 0.77981 0.58635 0.0
C752 C 0.08564 0.78262 0.60278 0.0
H753 H 0.16251 0.81776 0.6607 0.0
H754 H 0.139 0.81351 0.63472 0.0
H755 H 0.09048 0.77996 0.65515 0.0
H756 H 0.04459 0.74687 0.56676 0.0
H757 H 0.06642 0.75195 0.59477 0.0
C758 C 0.2699 0.14784 0.67109 0.0
C759 C 0.26828 0.16528 0.66247 0.0
C760 C 0.2773 0.13364 0.65957 0.0
C761 C 0.30445 0.12175 0.61349 0.0
H762 H 0.27358 0.07927 0.61237 0.0
C763 C 0.30925 0.0657 0.55052 0.0
C764 C 0.30355 0.04818 0.55579 0.0
C765 C 0.30842 0.07968 0.5652 0.0
C766 C 0.28266 0.09078 0.61279 0.0
H767 H 0.27405 0.18164 0.63529 0.0
H768 H 0.28718 0.15677 0.6152 0.0
H769 H 0.26599 0.10438 0.63496 0.0
H770 H 0.2936 0.03103 0.58046 0.0
H771 H 0.29315 0.05503 0.60648 0.0
H772 H 0.32113 0.10808 0.5912 0.0
C773 C 0.28271 0.15417 0.63093 0.0
C774 C 0.27822 0.10526 0.62573 0.0
C775 C 0.27518 0.1684 0.64244 0.0
C776 C 0.29814 0.04449 0.57617 0.0
C777 C 0.29765 0.05831 0.59094 0.0
C778 C 0.30905 0.10711 0.60065 0.0
C779 C 0.28339 0.13655 0.63919 0.0
C780 C 0.28896 0.12095 0.62613 0.0
C781 C 0.302 0.07627 0.58543 0.0
C782 C 0.29812 0.09147 0.60004 0.0
H783 H 0.26512 0.14506 0.68665 0.0
H784 H 0.27795 0.12026 0.66647 0.0
H785 H 0.31302 0.13366 0.61358 0.0
H786 H 0.31317 0.06884 0.53472 0.0
H787 H 0.31173 0.09332 0.56029 0.0
C788 C 0.87165 0.25104 0.66937 0.0
C789 C 0.85754 0.23899 0.6646 0.0
C790 C 0.88568 0.25403 0.65517 0.0
C791 C 0.89781 0.24701 0.59941 0.0
H792 H 0.94664 0.25561 0.61933 0.0
C793 C 0.96113 0.24419 0.54663 0.0
C794 C 0.97263 0.25934 0.54775 0.0
C795 C 0.94715 0.24194 0.56104 0.0
C796 C 0.93303 0.25331 0.61359 0.0
H797 H 0.84723 0.22023 0.64161 0.0
H798 H 0.87192 0.22484 0.61721 0.0
H799 H 0.92212 0.25118 0.64421 0.0
H800 H 0.97877 0.28378 0.5651 0.0
H801 H 0.95459 0.27955 0.59058 0.0
H802 H 0.90899 0.24856 0.56877 0.0
C803 C 0.87195 0.23257 0.63149 0.0
C804 C 0.91893 0.25088 0.62781 0.0
C805 C 0.8578 0.22983 0.64551 0.0
C806 C 0.97008 0.272 0.56379 0.0
C807 C 0.95632 0.26956 0.57843 0.0
C808 C 0.91196 0.24913 0.58522 0.0
C809 C 0.88606 0.24478 0.63604 0.0
C810 C 0.9011 0.24768 0.62093 0.0
C811 C 0.94463 0.25459 0.57707 0.0
C812 C 0.92969 0.25231 0.59218 0.0
H813 H 0.87168 0.25834 0.68395 0.0
H814 H 0.8961 0.26375 0.65913 0.0
H815 H 0.88425 0.24501 0.59343 0.0
H816 H 0.96272 0.23424 0.53441 0.0
H817 H 0.93837 0.23022 0.55975 0.0
C818 C 0.76429 0.84916 0.63072 0.0
C819 C 0.77949 0.84147 0.64042 0.0
C820 C 0.76518 0.86659 0.62231 0.0
C821 C 0.79687 0.89827 0.59904 0.0
H822 H 0.758 0.93306 0.60622 0.0
C823 C 0.79618 0.96729 0.55573 0.0
C824 C 0.77929 0.97285 0.54789 0.0
C825 C 0.79736 0.95258 0.56944 0.0
C826 C 0.76891 0.92346 0.60389 0.0
H827 H 0.80747 0.84598 0.64918 0.0
H828 H 0.80912 0.87648 0.63414 0.0
H829 H 0.7577 0.90488 0.62598 0.0
H830 H 0.75043 0.96722 0.54825 0.0
H831 H 0.75252 0.94151 0.57148 0.0
H832 H 0.8077 0.9164 0.57628 0.0
C833 C 0.7965 0.86902 0.63319 0.0
C834 C 0.76876 0.90736 0.6153 0.0
C835 C 0.79552 0.85167 0.6419 0.0
C836 C 0.76366 0.96342 0.55409 0.0
C837 C 0.76484 0.94871 0.5676 0.0
C838 C 0.79693 0.9143 0.58742 0.0
C839 C 0.78137 0.87659 0.62317 0.0
C840 C 0.78256 0.89446 0.61272 0.0
C841 C 0.78169 0.94307 0.5755 0.0
C842 C 0.78274 0.92693 0.58938 0.0
H843 H 0.75176 0.8416 0.62944 0.0
H844 H 0.75335 0.87203 0.61453 0.0
H845 H 0.80762 0.88849 0.59663 0.0
H846 H 0.80847 0.97431 0.55132 0.0
H847 H 0.81054 0.94873 0.57537 0.0
C848 C 0.85096 0.7297 0.62181 0.0
C849 C 0.84958 0.73626 0.64229 0.0
C850 C 0.86782 0.72537 0.61331 0.0
C851 C 0.91341 0.74102 0.61498 0.0
H852 H 0.92579 0.69785 0.58373 0.0
C853 C 0.97952 0.73919 0.56906 0.0
C854 C 0.97903 0.7309 0.54952 0.0
C855 C 0.96557 0.73633 0.58328 0.0
C856 C 0.92251 0.71009 0.5922 0.0
H857 H 0.86498 0.74212 0.67024 0.0
H858 H 0.89447 0.73541 0.65492 0.0
H859 H 0.89734 0.69901 0.60312 0.0
H860 H 0.96409 0.71276 0.5295 0.0
H861 H 0.93904 0.70856 0.55373 0.0
H862 H 0.93755 0.75282 0.60309 0.0
C863 C 0.88238 0.73357 0.64562 0.0
C864 C 0.90629 0.71064 0.60343 0.0
C865 C 0.86549 0.73758 0.65428 0.0
C866 C 0.96476 0.71914 0.54463 0.0
C867 C 0.95046 0.71671 0.55861 0.0
C868 C 0.92937 0.74065 0.60342 0.0
C869 C 0.88369 0.72777 0.62494 0.0
C870 C 0.90157 0.72618 0.61477 0.0
C871 C 0.95043 0.72567 0.57796 0.0
C872 C 0.93412 0.72525 0.59167 0.0
H873 H 0.83915 0.72875 0.61191 0.0
H874 H 0.86853 0.72112 0.59724 0.0
H875 H 0.90991 0.75328 0.62332 0.0
H876 H 0.99054 0.74821 0.57317 0.0
H877 H 0.96646 0.74296 0.59823 0.0
C878 C 0.24374 0.86672 0.66537 0.0
C879 C 0.23996 0.87239 0.68574 0.0
C880 C 0.24794 0.87937 0.64999 0.0
C881 C 0.26363 0.92614 0.64115 0.0
H882 H 0.23846 0.92113 0.58859 0.0
C883 C 0.24815 0.97082 0.56282 0.0
C884 C 0.2657 0.97678 0.55787 0.0
C885 C 0.24545 0.95802 0.57852 0.0
C886 C 0.24553 0.92275 0.60321 0.0
H887 H 0.23828 0.8957 0.70612 0.0
H888 H 0.24565 0.91786 0.67919 0.0
H889 H 0.23348 0.89885 0.616 0.0
H890 H 0.29419 0.97405 0.56564 0.0
H891 H 0.28944 0.95177 0.59307 0.0
H892 H 0.27556 0.95015 0.62837 0.0
C893 C 0.24536 0.90361 0.67516 0.0
C894 C 0.24282 0.90989 0.61882 0.0
C895 C 0.24103 0.89095 0.69053 0.0
C896 C 0.28049 0.96974 0.56904 0.0
C897 C 0.27777 0.95706 0.58485 0.0
C898 C 0.26645 0.93893 0.62545 0.0
C899 C 0.24855 0.89797 0.65464 0.0
C900 C 0.25181 0.91147 0.63797 0.0
C901 C 0.26023 0.95103 0.58972 0.0
C902 C 0.25737 0.9374 0.60635 0.0
H903 H 0.24283 0.85254 0.66113 0.0
H904 H 0.25052 0.87461 0.63437 0.0
H905 H 0.27081 0.92765 0.65571 0.0
H906 H 0.23647 0.97599 0.55453 0.0
H907 H 0.23176 0.95376 0.58207 0.0
C908 C 0.1562 0.23868 0.654 0.0
C909 C 0.17071 0.25046 0.65814 0.0
C910 C 0.14217 0.24396 0.64083 0.0
C911 C 0.11866 0.28302 0.61839 0.0
H912 H 0.10355 0.24789 0.57712 0.0
C913 C 0.06337 0.29706 0.5554 0.0
C914 C 0.05172 0.2825 0.55092 0.0
C915 C 0.07822 0.2946 0.5687 0.0
C916 C 0.10745 0.2578 0.58869 0.0
H917 H 0.18171 0.27718 0.65205 0.0
H918 H 0.15698 0.28648 0.6289 0.0
H919 H 0.12891 0.24095 0.59984 0.0
H920 H 0.04587 0.2543 0.55778 0.0
H921 H 0.07129 0.25018 0.58113 0.0
H922 H 0.09687 0.29974 0.60739 0.0
C923 C 0.15656 0.27315 0.63594 0.0
C924 C 0.12202 0.25383 0.60166 0.0
C925 C 0.17074 0.26779 0.64903 0.0
C926 C 0.05474 0.26573 0.56064 0.0
C927 C 0.06941 0.26333 0.57395 0.0
C928 C 0.10393 0.28698 0.60543 0.0
C929 C 0.14226 0.26118 0.63152 0.0
C930 C 0.1276 0.26623 0.61688 0.0
C931 C 0.08159 0.27757 0.57777 0.0
C932 C 0.09795 0.27423 0.59069 0.0
H933 H 0.15587 0.22518 0.66059 0.0
H934 H 0.13123 0.23452 0.63789 0.0
H935 H 0.12267 0.29281 0.63004 0.0
H936 H 0.06138 0.31015 0.54813 0.0
H937 H 0.08737 0.30584 0.57133 0.0
C938 C 0.7518 0.15569 0.67037 0.0
C939 C 0.77009 0.15784 0.67612 0.0
C940 C 0.74654 0.14152 0.65717 0.0
C941 C 0.76174 0.09686 0.6381 0.0
H942 H 0.73338 0.10731 0.58886 0.0
C943 C 0.76646 0.05317 0.56555 0.0
C944 C 0.75074 0.04899 0.55422 0.0
C945 C 0.76585 0.06537 0.58202 0.0
C946 C 0.741 0.10409 0.60274 0.0
H947 H 0.79719 0.14694 0.67189 0.0
H948 H 0.78799 0.12223 0.64949 0.0
H949 H 0.73761 0.13085 0.61525 0.0
H950 H 0.72197 0.05443 0.55133 0.0
H951 H 0.72095 0.07606 0.58028 0.0
H952 H 0.76563 0.07036 0.62545 0.0
C953 C 0.77766 0.13129 0.65542 0.0
C954 C 0.74343 0.11756 0.61783 0.0
C955 C 0.78292 0.14547 0.66837 0.0
C956 C 0.73431 0.05735 0.55979 0.0
C957 C 0.73373 0.06976 0.57628 0.0
C958 C 0.7593 0.08345 0.62311 0.0
C959 C 0.75944 0.12913 0.64965 0.0
C960 C 0.75434 0.11423 0.63532 0.0
C961 C 0.74951 0.0738 0.58762 0.0
C962 C 0.74943 0.0871 0.60493 0.0
H963 H 0.74153 0.16487 0.67615 0.0
H964 H 0.73239 0.14014 0.65301 0.0
H965 H 0.76989 0.09379 0.65164 0.0
H966 H 0.77937 0.04702 0.56173 0.0
H967 H 0.77832 0.06843 0.59017 0.0
C968 C 0.86778 0.28039 0.37055 0.0
C969 C 0.85214 0.29124 0.37155 0.0
C970 C 0.88407 0.28634 0.37913 0.0
C971 C 0.90124 0.31487 0.4207 0.0
H972 H 0.94762 0.30267 0.39613 0.0
C973 C 0.96819 0.31768 0.46766 0.0
C974 C 0.9776 0.30113 0.46671 0.0
C975 C 0.95427 0.32141 0.45344 0.0
C976 C 0.93478 0.3063 0.40314 0.0
H977 H 0.84168 0.31729 0.38167 0.0
H978 H 0.87017 0.32751 0.39713 0.0
H979 H 0.92005 0.30013 0.37542 0.0
H980 H 0.98057 0.27602 0.44952 0.0
H981 H 0.95661 0.28251 0.42489 0.0
H982 H 0.9159 0.32013 0.44876 0.0
C983 C 0.86969 0.31435 0.38968 0.0
C984 C 0.91901 0.30482 0.3913 0.0
C985 C 0.85338 0.30845 0.38091 0.0
C986 C 0.97348 0.28884 0.45076 0.0
C987 C 0.95984 0.29265 0.43648 0.0
C988 C 0.91704 0.31633 0.43258 0.0
C989 C 0.88515 0.30325 0.38909 0.0
C990 C 0.90201 0.30838 0.4002 0.0
C991 C 0.94984 0.30879 0.43786 0.0
C992 C 0.93388 0.31133 0.42415 0.0
H993 H 0.86732 0.26692 0.36389 0.0
H994 H 0.89564 0.27731 0.37878 0.0
H995 H 0.88833 0.31763 0.42803 0.0
H996 H 0.97109 0.32738 0.47982 0.0
H997 H 0.94679 0.33398 0.45483 0.0
C998 C 0.73971 0.85931 0.36444 0.0
C999 C 0.74713 0.84411 0.37455 0.0
C1000 C 0.73779 0.87583 0.37495 0.0
C1001 C 0.75811 0.90052 0.4186 0.0
H1002 H 0.71684 0.93281 0.41371 0.0
C1003 C 0.73014 0.96792 0.46298 0.0
C1004 C 0.74667 0.97728 0.46469 0.0
C1005 C 0.72874 0.95264 0.45013 0.0
C1006 C 0.72841 0.92388 0.41525 0.0
H1007 H 0.75807 0.8344 0.4038 0.0
H1008 H 0.75432 0.86288 0.4221 0.0
H1009 H 0.71661 0.90353 0.39562 0.0
H1010 H 0.77421 0.97884 0.45308 0.0
H1011 H 0.77167 0.95257 0.43056 0.0
H1012 H 0.76986 0.92049 0.4384 0.0
C1013 C 0.75016 0.86213 0.406 0.0
C1014 C 0.72834 0.90721 0.40479 0.0
C1015 C 0.75208 0.84569 0.39555 0.0
C1016 C 0.76137 0.97176 0.45238 0.0
C1017 C 0.75994 0.95665 0.43952 0.0
C1018 C 0.75821 0.9171 0.42894 0.0
C1019 C 0.74336 0.87749 0.39574 0.0
C1020 C 0.74318 0.89532 0.40647 0.0
C1021 C 0.74382 0.94655 0.43875 0.0
C1022 C 0.74341 0.92902 0.42738 0.0
H1023 H 0.73559 0.85851 0.34834 0.0
H1024 H 0.73256 0.88745 0.36661 0.0
H1025 H 0.76986 0.89181 0.42 0.0
H1026 H 0.71857 0.97187 0.47228 0.0
H1027 H 0.71614 0.94512 0.44989 0.0
C1028 C 0.15549 0.78887 0.35755 0.0
C1029 C 0.17007 0.77698 0.35418 0.0
C1030 C 0.14151 0.78418 0.37106 0.0
C1031 C 0.11829 0.74624 0.39616 0.0
H1032 H 0.10355 0.78314 0.43554 0.0
C1033 C 0.0641 0.73437 0.46071 0.0
C1034 C 0.05245 0.749 0.46489 0.0
C1035 C 0.07872 0.73649 0.44703 0.0
C1036 C 0.10732 0.77274 0.42449 0.0
H1037 H 0.18123 0.75067 0.36198 0.0
H1038 H 0.15657 0.74239 0.38569 0.0
H1039 H 0.12853 0.78915 0.41196 0.0
H1040 H 0.04641 0.777 0.45717 0.0
H1041 H 0.07141 0.78052 0.43313 0.0
H1042 H 0.09677 0.72995 0.4085 0.0
C1043 C 0.15606 0.75534 0.3778 0.0
C1044 C 0.12169 0.77618 0.41103 0.0
C1045 C 0.1702 0.76012 0.36438 0.0
C1046 C 0.05528 0.76552 0.45455 0.0
C1047 C 0.06972 0.76759 0.44083 0.0
C1048 C 0.10375 0.74282 0.40959 0.0
C1049 C 0.14171 0.76746 0.38147 0.0
C1050 C 0.12716 0.7631 0.39652 0.0
C1051 C 0.08186 0.75325 0.43722 0.0
C1052 C 0.09792 0.75617 0.42369 0.0
H1053 H 0.1551 0.80204 0.35012 0.0
H1054 H 0.13053 0.79371 0.37343 0.0
H1055 H 0.12222 0.73593 0.38507 0.0
H1056 H 0.06227 0.72148 0.46846 0.0
H1057 H 0.08785 0.72519 0.44464 0.0
C1058 C 0.23366 0.15824 0.36497 0.0
C1059 C 0.2414 0.15677 0.34516 0.0
C1060 C 0.23773 0.14558 0.38037 0.0
C1061 C 0.25684 0.09921 0.38758 0.0
H1062 H 0.25653 0.11344 0.44552 0.0
C1063 C 0.27968 0.05279 0.45555 0.0
C1064 C 0.26682 0.0508 0.47147 0.0
C1065 C 0.27722 0.06578 0.44 0.0
C1066 C 0.2566 0.10931 0.42938 0.0
H1067 H 0.25976 0.14124 0.32596 0.0
H1068 H 0.26762 0.11951 0.35314 0.0
H1069 H 0.2521 0.13634 0.41872 0.0
H1070 H 0.24144 0.06097 0.48376 0.0
H1071 H 0.23743 0.08407 0.45684 0.0
H1072 H 0.26196 0.07221 0.3985 0.0
C1073 C 0.25793 0.13008 0.35667 0.0
C1074 C 0.25396 0.12238 0.41399 0.0
C1075 C 0.25357 0.14259 0.34112 0.0
C1076 C 0.25154 0.06217 0.47165 0.0
C1077 C 0.24928 0.07541 0.45635 0.0
C1078 C 0.25985 0.08621 0.40299 0.0
C1079 C 0.24991 0.13128 0.37648 0.0
C1080 C 0.25379 0.11749 0.39285 0.0
C1081 C 0.26206 0.07726 0.44035 0.0
C1082 C 0.25953 0.09112 0.42401 0.0
H1083 H 0.22399 0.16889 0.36836 0.0
H1084 H 0.23092 0.14679 0.39518 0.0
H1085 H 0.2565 0.09479 0.37157 0.0
H1086 H 0.29155 0.04417 0.45496 0.0
H1087 H 0.28728 0.06701 0.42784 0.0
C1088 C 0.65919 0.73908 0.85056 0.0
C1089 C 0.65438 0.73536 0.82988 0.0
C1090 C 0.64591 0.74312 0.86528 0.0
C1091 C 0.61583 0.75981 0.89118 0.0
H1092 H 0.57238 0.73024 0.89108 0.0
C1093 C 0.55624 0.7736 0.94678 0.0
C1094 C 0.54836 0.75846 0.95649 0.0
C1095 C 0.56863 0.77136 0.93062 0.0
C1096 C 0.58447 0.73855 0.89137 0.0
H1097 H 0.63189 0.73374 0.80829 0.0
H1098 H 0.60869 0.74082 0.83403 0.0
H1099 H 0.59524 0.72576 0.86424 0.0
H1100 H 0.54717 0.72907 0.95662 0.0
H1101 H 0.56892 0.72517 0.92846 0.0
H1102 H 0.60528 0.77229 0.91859 0.0
C1103 C 0.62273 0.7403 0.8389 0.0
C1104 C 0.59747 0.73614 0.87585 0.0
C1105 C 0.63601 0.73628 0.82416 0.0
C1106 C 0.55297 0.74102 0.94946 0.0
C1107 C 0.56537 0.73878 0.93326 0.0
C1108 C 0.60282 0.76225 0.90666 0.0
C1109 C 0.62751 0.74353 0.85969 0.0
C1110 C 0.61335 0.74667 0.87565 0.0
C1111 C 0.57343 0.75393 0.92375 0.0
C1112 C 0.58703 0.75158 0.907 0.0
H1113 H 0.67317 0.7382 0.85557 0.0
H1114 H 0.65003 0.74531 0.88122 0.0
H1115 H 0.62784 0.76823 0.89136 0.0
H1116 H 0.55295 0.78724 0.95173 0.0
H1117 H 0.5744 0.78331 0.92343 0.0
C1118 C 0.26476 0.65929 0.86297 0.0
C1119 C 0.26211 0.67678 0.87122 0.0
C1120 C 0.26051 0.64389 0.8746 0.0
C1121 C 0.23337 0.62562 0.91664 0.0
H1122 H 0.27401 0.59342 0.9262 0.0
C1123 C 0.23089 0.56648 0.97637 0.0
C1124 C 0.2421 0.55144 0.97284 0.0
C1125 C 0.23154 0.58146 0.96298 0.0
C1126 C 0.26233 0.60194 0.92337 0.0
H1127 H 0.25224 0.69153 0.89814 0.0
H1128 H 0.24418 0.66452 0.91801 0.0
H1129 H 0.27789 0.6199 0.90432 0.0
H1130 H 0.26175 0.53954 0.95199 0.0
H1131 H 0.26201 0.56489 0.92795 0.0
H1132 H 0.2176 0.60743 0.93517 0.0
C1133 C 0.24971 0.66292 0.90255 0.0
C1134 C 0.26466 0.61723 0.91093 0.0
C1135 C 0.25428 0.67837 0.89108 0.0
C1136 C 0.25312 0.55111 0.95514 0.0
C1137 C 0.25341 0.56578 0.94151 0.0
C1138 C 0.2309 0.61005 0.92878 0.0
C1139 C 0.25314 0.64556 0.89456 0.0
C1140 C 0.25025 0.62923 0.90749 0.0
C1141 C 0.24314 0.58148 0.94559 0.0
C1142 C 0.24538 0.59797 0.93234 0.0
H1143 H 0.27027 0.65743 0.84756 0.0
H1144 H 0.26311 0.63062 0.86804 0.0
H1145 H 0.22204 0.63471 0.91413 0.0
H1146 H 0.22238 0.56706 0.99004 0.0
H1147 H 0.22351 0.59328 0.96681 0.0
C1148 C 0.36943 0.29208 0.85842 0.0
C1149 C 0.36092 0.27551 0.85382 0.0
C1150 C 0.38544 0.29249 0.86995 0.0
C1151 C 0.42354 0.26437 0.88872 0.0
H1152 H 0.42421 0.29848 0.93452 0.0
C1153 C 0.47204 0.25672 0.95799 0.0
C1154 C 0.47947 0.27239 0.96702 0.0
C1155 C 0.45894 0.25804 0.94246 0.0
C1156 C 0.42442 0.28909 0.92161 0.0
H1157 H 0.36299 0.24632 0.85693 0.0
H1158 H 0.39091 0.24702 0.87727 0.0
H1159 H 0.39916 0.29899 0.90994 0.0
H1160 H 0.47915 0.30179 0.96655 0.0
H1161 H 0.45633 0.30411 0.93921 0.0
H1162 H 0.44871 0.25432 0.90055 0.0
C1163 C 0.38522 0.25971 0.87185 0.0
C1164 C 0.41004 0.28937 0.90752 0.0
C1165 C 0.36915 0.2593 0.86036 0.0
C1166 C 0.47363 0.28945 0.95998 0.0
C1167 C 0.46051 0.29078 0.94437 0.0
C1168 C 0.43796 0.26413 0.90278 0.0
C1169 C 0.39333 0.27633 0.87712 0.0
C1170 C 0.40932 0.27685 0.89109 0.0
C1171 C 0.45296 0.27508 0.9355 0.0
C1172 C 0.43843 0.27631 0.91957 0.0
H1173 H 0.36334 0.30483 0.85383 0.0
H1174 H 0.39148 0.30549 0.87358 0.0
H1175 H 0.42349 0.25472 0.87605 0.0
H1176 H 0.47617 0.24334 0.96306 0.0
H1177 H 0.45319 0.24567 0.93624 0.0
C1178 C 0.77107 0.35942 0.87591 0.0
C1179 C 0.76211 0.36228 0.85687 0.0
C1180 C 0.77684 0.3741 0.88798 0.0
C1181 C 0.76394 0.41985 0.90025 0.0
H1182 H 0.81215 0.42612 0.92307 0.0
C1183 C 0.77962 0.48226 0.94954 0.0
C1184 C 0.79107 0.48022 0.96673 0.0
C1185 C 0.77839 0.46866 0.93458 0.0
C1186 C 0.79855 0.42448 0.91707 0.0
H1187 H 0.75319 0.38304 0.83522 0.0
H1188 H 0.76252 0.40853 0.85678 0.0
H1189 H 0.80579 0.40041 0.90017 0.0
H1190 H 0.81061 0.4627 0.98166 0.0
H1191 H 0.80783 0.43832 0.95609 0.0
H1192 H 0.75618 0.44305 0.91775 0.0
C1193 C 0.76506 0.39487 0.86224 0.0
C1194 C 0.79498 0.40981 0.90386 0.0
C1195 C 0.75958 0.38023 0.85 0.0
C1196 C 0.8018 0.46459 0.9684 0.0
C1197 C 0.8002 0.45067 0.95367 0.0
C1198 C 0.76737 0.43424 0.91373 0.0
C1199 C 0.77353 0.39194 0.88145 0.0
C1200 C 0.77766 0.40746 0.89524 0.0
C1201 C 0.78812 0.45234 0.9368 0.0
C1202 C 0.78476 0.43691 0.92224 0.0
H1203 H 0.77306 0.34587 0.88193 0.0
H1204 H 0.7832 0.37152 0.90284 0.0
H1205 H 0.75038 0.41815 0.8941 0.0
H1206 H 0.77135 0.49432 0.94785 0.0
H1207 H 0.76946 0.47085 0.92149 0.0
C1208 C 0.64644 0.28242 0.18334 0.0
C1209 C 0.66087 0.29433 0.17954 0.0
C1210 C 0.63307 0.27969 0.16825 0.0
C1211 C 0.62328 0.28786 0.11201 0.0
H1212 H 0.57368 0.27933 0.12925 0.0
C1213 C 0.56148 0.29193 0.0567 0.0
C1214 C 0.55109 0.27599 0.05607 0.0
C1215 C 0.57468 0.29428 0.07204 0.0
C1216 C 0.5875 0.28168 0.12429 0.0
H1217 H 0.67253 0.31305 0.1574 0.0
H1218 H 0.64895 0.30899 0.13149 0.0
H1219 H 0.59726 0.28307 0.15545 0.0
H1220 H 0.54591 0.25029 0.0713 0.0
H1221 H 0.56861 0.2547 0.0985 0.0
H1222 H 0.61319 0.28712 0.08082 0.0
C1223 C 0.64817 0.30112 0.14564 0.0
C1224 C 0.60107 0.28367 0.13925 0.0
C1225 C 0.66168 0.30354 0.16052 0.0
C1226 C 0.55379 0.26267 0.07137 0.0
C1227 C 0.56668 0.26521 0.08696 0.0
C1228 C 0.60964 0.28625 0.0971 0.0
C1229 C 0.63367 0.28913 0.14924 0.0
C1230 C 0.61918 0.28675 0.13333 0.0
C1231 C 0.57738 0.28092 0.08726 0.0
C1232 C 0.59167 0.2831 0.10312 0.0
H1233 H 0.64559 0.27514 0.1979 0.0
H1234 H 0.62235 0.2701 0.1715 0.0
H1235 H 0.63706 0.28978 0.10675 0.0
H1236 H 0.55972 0.30238 0.04505 0.0
H1237 H 0.58276 0.30654 0.07206 0.0
C1238 C 0.77709 0.67669 0.14161 0.0
C1239 C 0.76538 0.67266 0.15819 0.0
C1240 C 0.78515 0.66276 0.13006 0.0
C1241 C 0.79271 0.6124 0.12976 0.0
H1242 H 0.79323 0.61875 0.07004 0.0
C1243 C 0.78362 0.55514 0.07041 0.0
C1244 C 0.79546 0.55434 0.05339 0.0
C1245 C 0.78462 0.56946 0.0845 0.0
C1246 C 0.79348 0.6169 0.08672 0.0
H1247 H 0.75386 0.65071 0.17632 0.0
H1248 H 0.76702 0.62664 0.15576 0.0
H1249 H 0.78612 0.64448 0.09235 0.0
H1250 H 0.81783 0.56763 0.03788 0.0
H1251 H 0.81912 0.59326 0.06231 0.0
H1252 H 0.79878 0.58444 0.12383 0.0
C1253 C 0.77034 0.6405 0.15175 0.0
C1254 C 0.78945 0.63165 0.09957 0.0
C1255 C 0.76248 0.65438 0.16339 0.0
C1256 C 0.80865 0.56791 0.05098 0.0
C1257 C 0.80933 0.58255 0.06484 0.0
C1258 C 0.79641 0.59761 0.11689 0.0
C1259 C 0.7816 0.64445 0.13473 0.0
C1260 C 0.78851 0.62949 0.12126 0.0
C1261 C 0.79719 0.5835 0.08161 0.0
C1262 C 0.79641 0.59964 0.09525 0.0
H1263 H 0.7796 0.69061 0.13709 0.0
H1264 H 0.79396 0.66638 0.11729 0.0
H1265 H 0.79263 0.61028 0.14638 0.0
H1266 H 0.77335 0.54483 0.07263 0.0
H1267 H 0.775 0.56996 0.09719 0.0
C1268 C 0.37543 0.73519 0.16226 0.0
C1269 C 0.36723 0.75176 0.16761 0.0
C1270 C 0.39157 0.73489 0.15098 0.0
C1271 C 0.43012 0.76304 0.13312 0.0
H1272 H 0.42907 0.73106 0.08536 0.0
C1273 C 0.47566 0.77376 0.06182 0.0
C1274 C 0.4825 0.75852 0.05131 0.0
C1275 C 0.46347 0.7717 0.07819 0.0
C1276 C 0.42978 0.73983 0.09881 0.0
H1277 H 0.37012 0.78098 0.16637 0.0
H1278 H 0.39821 0.78047 0.14643 0.0
H1279 H 0.40474 0.72972 0.11075 0.0
H1280 H 0.48221 0.72914 0.05008 0.0
H1281 H 0.46097 0.72555 0.07885 0.0
H1282 H 0.45501 0.77341 0.12091 0.0
C1283 C 0.39219 0.76771 0.15105 0.0
C1284 C 0.41581 0.73907 0.11338 0.0
C1285 C 0.37602 0.76801 0.16231 0.0
C1286 C 0.47712 0.74115 0.05779 0.0
C1287 C 0.4649 0.7391 0.07422 0.0
C1288 C 0.44413 0.76378 0.11856 0.0
C1289 C 0.39989 0.75114 0.1448 0.0
C1290 C 0.41567 0.75086 0.13052 0.0
C1291 C 0.45783 0.75437 0.0845 0.0
C1292 C 0.44395 0.7524 0.10104 0.0
H1293 H 0.36894 0.72242 0.16589 0.0
H1294 H 0.39729 0.72192 0.14663 0.0
H1295 H 0.4305 0.77213 0.14631 0.0
H1296 H 0.4795 0.78734 0.05724 0.0
H1297 H 0.45808 0.78377 0.08552 0.0
C1298 C 0.26402 0.35058 0.13963 0.0
C1299 C 0.25158 0.33634 0.13711 0.0
C1300 C 0.26057 0.36765 0.13111 0.0
C1301 C 0.23353 0.39004 0.09005 0.0
H1302 H 0.25071 0.43375 0.11707 0.0
C1303 C 0.22532 0.46144 0.05341 0.0
C1304 C 0.24156 0.47135 0.0525 0.0
C1305 C 0.22414 0.44577 0.06564 0.0
C1306 C 0.24582 0.42166 0.10936 0.0
H1307 H 0.22546 0.32902 0.12424 0.0
H1308 H 0.21925 0.35893 0.10962 0.0
H1309 H 0.25289 0.40475 0.13508 0.0
H1310 H 0.26903 0.47305 0.06435 0.0
H1311 H 0.26689 0.44597 0.08577 0.0
H1312 H 0.22659 0.40704 0.06428 0.0
C1313 C 0.23188 0.3568 0.11781 0.0
C1314 C 0.24714 0.40501 0.11962 0.0
C1315 C 0.23541 0.33967 0.12622 0.0
C1316 C 0.25634 0.46568 0.06464 0.0
C1317 C 0.25508 0.45022 0.07704 0.0
C1318 C 0.23206 0.40673 0.07987 0.0
C1319 C 0.24451 0.37097 0.11996 0.0
C1320 C 0.2414 0.38892 0.10992 0.0
C1321 C 0.23909 0.43993 0.07744 0.0
C1322 C 0.23855 0.42265 0.08924 0.0
H1323 H 0.27673 0.34837 0.14767 0.0
H1324 H 0.27079 0.37808 0.13275 0.0
H1325 H 0.22917 0.37794 0.08196 0.0
H1326 H 0.21372 0.46546 0.04419 0.0
H1327 H 0.21161 0.43813 0.06575 0.0
C1328 C 0.36014 0.25316 0.15158 0.0
C1329 C 0.34448 0.24721 0.14108 0.0
C1330 C 0.37733 0.25073 0.14287 0.0
C1331 C 0.40395 0.22401 0.10641 0.0
H1332 H 0.4305 0.26833 0.09578 0.0
C1333 C 0.46491 0.22658 0.04987 0.0
C1334 C 0.478 0.24013 0.05261 0.0
C1335 C 0.44968 0.22589 0.06282 0.0
C1336 C 0.42362 0.2557 0.09902 0.0
H1337 H 0.33502 0.23364 0.11312 0.0
H1338 H 0.36502 0.22872 0.09859 0.0
H1339 H 0.40231 0.26952 0.11513 0.0
H1340 H 0.48626 0.26277 0.07176 0.0
H1341 H 0.46051 0.26091 0.09515 0.0
H1342 H 0.42534 0.21003 0.09077 0.0
C1343 C 0.36385 0.23535 0.11353 0.0
C1344 C 0.40735 0.25646 0.11003 0.0
C1345 C 0.34664 0.23811 0.12199 0.0
C1346 C 0.4762 0.25232 0.06919 0.0
C1347 C 0.46129 0.25134 0.08245 0.0
C1348 C 0.42047 0.22316 0.09578 0.0
C1349 C 0.3793 0.24192 0.1237 0.0
C1350 C 0.39725 0.24068 0.11358 0.0
C1351 C 0.44747 0.23851 0.07907 0.0
C1352 C 0.43045 0.23904 0.09166 0.0
H1353 H 0.35918 0.25984 0.16649 0.0
H1354 H 0.3891 0.25581 0.15105 0.0
H1355 H 0.39639 0.21163 0.10906 0.0
H1356 H 0.46595 0.21711 0.03707 0.0
H1357 H 0.43932 0.21594 0.05945 0.0
C1358 C 0.74842 0.36902 0.16457 0.0
C1359 C 0.74424 0.37477 0.1848 0.0
C1360 C 0.75212 0.38166 0.149 0.0
C1361 C 0.76521 0.42917 0.13939 0.0
H1362 H 0.73992 0.42233 0.08719 0.0
C1363 C 0.7459 0.4726 0.0613 0.0
C1364 C 0.76295 0.47977 0.05612 0.0
C1365 C 0.74427 0.45962 0.077 0.0
C1366 C 0.74702 0.42446 0.1017 0.0
H1367 H 0.74146 0.39823 0.20479 0.0
H1368 H 0.74795 0.42036 0.17756 0.0
H1369 H 0.73661 0.39991 0.11478 0.0
H1370 H 0.79165 0.47899 0.06348 0.0
H1371 H 0.78874 0.4564 0.09089 0.0
H1372 H 0.77545 0.45385 0.12635 0.0
C1373 C 0.74836 0.40606 0.17376 0.0
C1374 C 0.74528 0.41153 0.11741 0.0
C1375 C 0.74452 0.39341 0.18931 0.0
C1376 C 0.77831 0.47374 0.06706 0.0
C1377 C 0.77665 0.46087 0.08286 0.0
C1378 C 0.76707 0.44204 0.1236 0.0
C1379 C 0.75184 0.40033 0.15335 0.0
C1380 C 0.75429 0.41378 0.13646 0.0
C1381 C 0.75963 0.45364 0.08796 0.0
C1382 C 0.7579 0.43986 0.10463 0.0
H1383 H 0.74813 0.35476 0.16055 0.0
H1384 H 0.75496 0.37684 0.13346 0.0
H1385 H 0.77239 0.43122 0.15386 0.0
H1386 H 0.73381 0.47696 0.05319 0.0
H1387 H 0.73095 0.45441 0.08073 0.0
C1388 C 0.68225 0.76881 0.12738 0.0
C1389 C 0.67842 0.76853 0.14875 0.0
C1390 C 0.66939 0.77511 0.11318 0.0
C1391 C 0.62461 0.79859 0.10831 0.0
H1392 H 0.61931 0.7666 0.06099 0.0
C1393 C 0.56661 0.80504 0.0467 0.0
C1394 C 0.55848 0.78847 0.04122 0.0
C1395 C 0.58236 0.80529 0.05892 0.0
C1396 C 0.6206 0.77569 0.07411 0.0
H1397 H 0.6585 0.776 0.17198 0.0
H1398 H 0.63583 0.78625 0.14721 0.0
H1399 H 0.64502 0.76292 0.08402 0.0
H1400 H 0.56031 0.75923 0.04478 0.0
H1401 H 0.58734 0.75973 0.06597 0.0
H1402 H 0.5995 0.81069 0.09876 0.0
C1403 C 0.64885 0.7818 0.14139 0.0
C1404 C 0.63551 0.77374 0.0872 0.0
C1405 C 0.66178 0.77565 0.15561 0.0
C1406 C 0.56624 0.77226 0.04849 0.0
C1407 C 0.58187 0.77252 0.06057 0.0
C1408 C 0.60959 0.80051 0.09516 0.0
C1409 C 0.65229 0.78112 0.11994 0.0
C1410 C 0.63755 0.7849 0.10474 0.0
C1411 C 0.59027 0.78898 0.06574 0.0
C1412 C 0.6072 0.78874 0.07824 0.0
H1413 H 0.69486 0.76337 0.12145 0.0
H1414 H 0.67266 0.77472 0.0968 0.0
H1415 H 0.62588 0.80758 0.12151 0.0
H1416 H 0.56094 0.81776 0.04137 0.0
H1417 H 0.58854 0.8182 0.06268 0.0
C1418 C 0.27195 0.65936 0.16569 0.0
C1419 C 0.2845 0.67242 0.15903 0.0
C1420 C 0.27141 0.64229 0.15623 0.0
C1421 C 0.29786 0.61022 0.12467 0.0
H1422 H 0.25143 0.59587 0.1019 0.0
C1423 C 0.29128 0.5567 0.05972 0.0
C1424 C 0.27543 0.54624 0.05867 0.0
C1425 C 0.29301 0.57036 0.07464 0.0
C1426 C 0.26446 0.59937 0.1085 0.0
H1427 H 0.30684 0.67772 0.1381 0.0
H1428 H 0.30604 0.64787 0.12177 0.0
H1429 H 0.25336 0.62256 0.12392 0.0
H1430 H 0.24944 0.54106 0.07317 0.0
H1431 H 0.25273 0.5643 0.09966 0.0
H1432 H 0.30902 0.58706 0.10932 0.0
C1433 C 0.29657 0.65081 0.13416 0.0
C1434 C 0.26553 0.61473 0.12109 0.0
C1435 C 0.29692 0.66792 0.14336 0.0
C1436 C 0.26172 0.5491 0.07342 0.0
C1437 C 0.26357 0.56252 0.08853 0.0
C1438 C 0.29676 0.59469 0.11229 0.0
C1439 C 0.28364 0.63793 0.14026 0.0
C1440 C 0.28228 0.62049 0.12897 0.0
C1441 C 0.27903 0.57365 0.08905 0.0
C1442 C 0.28009 0.58924 0.10371 0.0
H1443 H 0.26225 0.66256 0.17776 0.0
H1444 H 0.26134 0.63255 0.16125 0.0
H1445 H 0.31093 0.61431 0.13072 0.0
H1446 H 0.30203 0.55483 0.04849 0.0
H1447 H 0.30502 0.57877 0.07434 0.0
C1448 C 0.36485 0.76253 0.86799 0.0
C1449 C 0.34825 0.77168 0.87008 0.0
C1450 C 0.38019 0.76841 0.87869 0.0
C1451 C 0.39474 0.79453 0.92446 0.0
H1452 H 0.44178 0.78965 0.89823 0.0
C1453 C 0.46322 0.80769 0.96736 0.0
C1454 C 0.47485 0.79263 0.96611 0.0
C1455 C 0.4479 0.8088 0.9545 0.0
C1456 C 0.42873 0.7912 0.90572 0.0
H1457 H 0.3348 0.79427 0.8851 0.0
H1458 H 0.36174 0.80462 0.90387 0.0
H1459 H 0.41438 0.78488 0.87784 0.0
H1460 H 0.48003 0.76737 0.94994 0.0
H1461 H 0.45372 0.76951 0.92738 0.0
H1462 H 0.4093 0.80053 0.95247 0.0
C1463 C 0.36279 0.79279 0.894 0.0
C1464 C 0.41303 0.78836 0.89409 0.0
C1465 C 0.34736 0.78686 0.88326 0.0
C1466 C 0.47128 0.77911 0.95133 0.0
C1467 C 0.45627 0.78038 0.9383 0.0
C1468 C 0.41051 0.79751 0.93608 0.0
C1469 C 0.37941 0.78364 0.89178 0.0
C1470 C 0.39585 0.78936 0.90347 0.0
C1471 C 0.44428 0.79508 0.93991 0.0
C1472 C 0.42765 0.79528 0.92696 0.0
H1473 H 0.36594 0.75054 0.85838 0.0
H1474 H 0.39261 0.76072 0.87702 0.0
H1475 H 0.38175 0.79534 0.9322 0.0
H1476 H 0.46563 0.81826 0.97869 0.0
H1477 H 0.43885 0.82028 0.95602 0.0
C1478 C 0.27214 0.36866 0.85265 0.0
C1479 C 0.2775 0.3525 0.86246 0.0
C1480 C 0.27275 0.38518 0.86335 0.0
C1481 C 0.29303 0.4068 0.9101 0.0
H1482 H 0.25291 0.44039 0.90493 0.0
C1483 C 0.25739 0.46712 0.96036 0.0
C1484 C 0.27277 0.47633 0.96772 0.0
C1485 C 0.259 0.45378 0.94514 0.0
C1486 C 0.2642 0.43113 0.90661 0.0
H1487 H 0.28819 0.34118 0.89106 0.0
H1488 H 0.28854 0.36962 0.90981 0.0
H1489 H 0.25377 0.41339 0.88321 0.0
H1490 H 0.30186 0.47915 0.96436 0.0
H1491 H 0.30465 0.45605 0.93742 0.0
H1492 H 0.30295 0.42394 0.93428 0.0
C1493 C 0.28412 0.36969 0.89378 0.0
C1494 C 0.26481 0.41576 0.89395 0.0
C1495 C 0.2836 0.35327 0.88311 0.0
C1496 C 0.28977 0.4722 0.95914 0.0
C1497 C 0.29137 0.45891 0.94375 0.0
C1498 C 0.29235 0.42208 0.92287 0.0
C1499 C 0.27876 0.38587 0.88406 0.0
C1500 C 0.27904 0.4032 0.89586 0.0
C1501 C 0.27602 0.44939 0.93673 0.0
C1502 C 0.27773 0.43425 0.92159 0.0
H1503 H 0.26733 0.36854 0.83677 0.0
H1504 H 0.26863 0.39742 0.85534 0.0
H1505 H 0.30439 0.39761 0.91171 0.0
H1506 H 0.24409 0.46992 0.96668 0.0
H1507 H 0.24693 0.44653 0.94044 0.0
C1508 C 0.65638 0.2798 0.86113 0.0
C1509 C 0.67302 0.27054 0.86098 0.0
C1510 C 0.64196 0.27357 0.87315 0.0
C1511 C 0.63129 0.2455 0.9189 0.0
H1512 H 0.58219 0.25141 0.89851 0.0
C1513 C 0.56712 0.22903 0.96826 0.0
C1514 C 0.55505 0.24375 0.96925 0.0
C1515 C 0.5813 0.22901 0.95376 0.0
C1516 C 0.59583 0.24959 0.90437 0.0
H1517 H 0.68748 0.24731 0.87327 0.0
H1518 H 0.66216 0.23632 0.8943 0.0
H1519 H 0.60767 0.25742 0.87548 0.0
H1520 H 0.54791 0.26958 0.95538 0.0
H1521 H 0.57227 0.26937 0.93005 0.0
H1522 H 0.61927 0.23794 0.94795 0.0
C1523 C 0.66038 0.24855 0.88523 0.0
C1524 C 0.61044 0.25314 0.89124 0.0
C1525 C 0.67488 0.25484 0.87319 0.0
C1526 C 0.55704 0.25808 0.95508 0.0
C1527 C 0.57092 0.25791 0.94046 0.0
C1528 C 0.61662 0.24182 0.93203 0.0
C1529 C 0.64373 0.25785 0.88534 0.0
C1530 C 0.62835 0.2517 0.89852 0.0
C1531 C 0.58334 0.24351 0.93977 0.0
C1532 C 0.59877 0.24437 0.92506 0.0
H1533 H 0.6546 0.29215 0.85226 0.0
H1534 H 0.62952 0.28135 0.87324 0.0
H1535 H 0.64489 0.24434 0.92506 0.0
H1536 H 0.56592 0.21783 0.97904 0.0
H1537 H 0.5907 0.21772 0.95351 0.0
C1538 C 0.72034 0.64132 0.84286 0.0
C1539 C 0.73402 0.65313 0.83602 0.0
C1540 C 0.72363 0.62912 0.85899 0.0
C1541 C 0.75474 0.62061 0.90311 0.0
H1542 H 0.73293 0.57279 0.90176 0.0
C1543 C 0.77316 0.56357 0.96101 0.0
C1544 C 0.75871 0.55354 0.96938 0.0
C1545 C 0.77016 0.57601 0.94503 0.0
C1546 C 0.73896 0.58616 0.90243 0.0
H1547 H 0.76196 0.66123 0.84047 0.0
H1548 H 0.76788 0.63962 0.86839 0.0
H1549 H 0.72822 0.59351 0.8728 0.0
H1550 H 0.72975 0.54881 0.96763 0.0
H1551 H 0.72455 0.57048 0.93956 0.0
H1552 H 0.76572 0.61303 0.93264 0.0
C1553 C 0.75447 0.64004 0.86159 0.0
C1554 C 0.73626 0.59806 0.88586 0.0
C1555 C 0.75113 0.65237 0.84553 0.0
C1556 C 0.74116 0.55633 0.96153 0.0
C1557 C 0.7382 0.56865 0.94538 0.0
C1558 C 0.75757 0.60863 0.9196 0.0
C1559 C 0.74072 0.62832 0.8686 0.0
C1560 C 0.74404 0.61548 0.88601 0.0
C1561 C 0.75268 0.57857 0.93693 0.0
C1562 C 0.74965 0.59132 0.91947 0.0
H1563 H 0.70691 0.64183 0.8361 0.0
H1564 H 0.7126 0.62059 0.86423 0.0
H1565 H 0.76068 0.63401 0.90394 0.0
H1566 H 0.78685 0.56177 0.96673 0.0
H1567 H 0.7816 0.58336 0.9387 0.0
loop_
_geom_bond_atom_site_label_1
_geom_bond_atom_site_label_2
_geom_bond_distance
_geom_bond_site_symmetry_2
_ccdc_geom_bond_type
H0 C27 0.929 . S
N1 C26 1.433 . S
N1 C32 1.435 . S
N1 C38 1.423 . S
H2 C28 0.930 . S
H3 C31 0.931 . S
H4 C30 0.929 . S
H5 C33 0.930 . S
H6 C34 0.932 . S
H7 C37 0.929 . S
H8 C36 0.931 . S
H9 C39 0.929 . S
H10 C43 0.932 . S
H11 C40 0.931 . S
H12 C42 0.929 . S
H13 C45 0.929 . S
H14 C46 0.930 . S
H15 C48 0.929 . S
H16 C49 0.931 . S
H17 C51 0.930 . S
H18 C52 0.932 . S
H19 C54 0.931 . S
H20 C55 0.929 . S
H21 C57 0.929 . S
H22 C58 0.931 . S
H23 C60 0.929 . S
N24 C44 1.433 . S
N24 C50 1.435 . S
N24 C56 1.423 . S
H25 C61 0.932 . S
C26 N1 1.433 . S
C26 C27 1.363 . S
C26 C31 1.370 . S
C27 H0 0.929 . S
C27 C26 1.363 . S
C27 C28 1.385 . S
C28 H2 0.930 . S
C28 C27 1.385 . S
C28 C29 1.357 . S
C29 C28 1.357 . S
C29 C30 1.406 . S
C30 H4 0.929 . S
C30 C29 1.406 . S
C30 C31 1.391 . S
C31 H3 0.931 . S
C31 C26 1.370 . S
C31 C30 1.391 . S
C32 N1 1.435 . S
C32 C33 1.358 . S
C32 C37 1.371 . S
C33 H5 0.930 . S
C33 C32 1.358 . S
C33 C34 1.405 . S
C34 H6 0.932 . S
C34 C33 1.405 . S
C34 C35 1.383 . S
C35 C34 1.383 . S
C35 C36 1.393 . S
C36 H8 0.931 . S
C36 C35 1.393 . S
C36 C37 1.382 . S
C37 H7 0.929 . S
C37 C32 1.371 . S
C37 C36 1.382 . S
C38 N1 1.423 . S
C38 C39 1.362 . S
C38 C43 1.388 . S
C39 H9 0.929 . S
C39 C38 1.362 . S
C39 C40 1.376 . S
C40 H11 0.931 . S
C40 C39 1.376 . S
C40 C41 1.396 . S
C41 C40 1.396 . S
C41 C42 1.348 . S
C41 C59 1.472 . S
C42 H12 0.929 . S
C42 C41 1.348 . S
C42 C43 1.443 . S
C43 H10 0.932 . S
C43 C38 1.388 . S
C43 C42 1.443 . S
C44 N24 1.433 . S
C44 C45 1.363 . S
C44 C49 1.370 . S
C45 H13 0.929 . S
C45 C44 1.363 . S
C45 C46 1.385 . S
C46 H14 0.930 . S
C46 C45 1.385 . S
C46 C47 1.357 . S
C47 C46 1.357 . S
C47 C48 1.406 . S
C48 H15 0.929 . S
C48 C47 1.406 . S
C48 C49 1.391 . S
C49 H16 0.931 . S
C49 C44 1.370 . S
C49 C48 1.391 . S
C50 N24 1.435 . S
C50 C51 1.358 . S
C50 C55 1.371 . S
C51 H17 0.930 . S
C51 C50 1.358 . S
C51 C52 1.405 . S
C52 H18 0.932 . S
C52 C51 1.405 . S
C52 C53 1.383 . S
C53 C52 1.383 . S
C53 C54 1.393 . S
C54 H19 0.931 . S
C54 C53 1.393 . S
C54 C55 1.382 . S
C55 H20 0.929 . S
C55 C50 1.371 . S
C55 C54 1.382 . S
C56 N24 1.423 . S
C56 C57 1.362 . S
C56 C61 1.388 . S
C57 H21 0.929 . S
C57 C56 1.362 . S
C57 C58 1.376 . S
C58 H22 0.931 . S
C58 C57 1.376 . S
C58 C59 1.396 . S
C59 C41 1.472 . S
C59 C58 1.396 . S
C59 C60 1.348 . S
C60 H23 0.929 . S
C60 C59 1.348 . S
C60 C61 1.443 . S
C61 H25 0.932 . S
C61 C56 1.388 . S
C61 C60 1.443 . S
H62 C89 0.929 . S
N63 C88 1.433 . S
N63 C94 1.435 . S
N63 C100 1.423 . S
H64 C90 0.930 . S
H65 C93 0.931 . S
H66 C92 0.929 . S
H67 C95 0.930 . S
H68 C96 0.932 . S
H69 C99 0.929 . S
H70 C98 0.931 . S
H71 C101 0.929 . S
H72 C105 0.932 . S
H73 C102 0.931 . S
H74 C104 0.929 . S
H75 C107 0.929 . S
H76 C108 0.930 . S
H77 C110 0.929 . S
H78 C111 0.931 . S
H79 C113 0.930 . S
H80 C114 0.932 . S
H81 C116 0.931 . S
H82 C117 0.929 . S
H83 C119 0.929 . S
H84 C120 0.931 . S
H85 C122 0.929 . S
N86 C106 1.433 . S
N86 C112 1.435 . S
N86 C118 1.423 . S
H87 C123 0.932 . S
C88 N63 1.433 . S
C88 C89 1.363 . S
C88 C93 1.370 . S
C89 H62 0.929 . S
C89 C88 1.363 . S
C89 C90 1.385 . S
C90 H64 0.930 . S
C90 C89 1.385 . S
C90 C91 1.357 . S
C91 C90 1.357 . S
C91 C92 1.406 . S
C92 H66 0.929 . S
C92 C91 1.406 . S
C92 C93 1.391 . S
C93 H65 0.931 . S
C93 C88 1.370 . S
C93 C92 1.391 . S
C94 N63 1.435 . S
C94 C95 1.358 . S
C94 C99 1.371 . S
C95 H67 0.930 . S
C95 C94 1.358 . S
C95 C96 1.405 . S
C96 H68 0.932 . S
C96 C95 1.405 . S
C96 C97 1.383 . S
C97 C96 1.383 . S
C97 C98 1.393 . S
C98 H70 0.931 . S
C98 C97 1.393 . S
C98 C99 1.382 . S
C99 H69 0.929 . S
C99 C94 1.371 . S
C99 C98 1.382 . S
C100 N63 1.423 . S
C100 C101 1.362 . S
C100 C105 1.388 . S
C101 H71 0.929 . S
C101 C100 1.362 . S
C101 C102 1.376 . S
C102 H73 0.931 . S
C102 C101 1.376 . S
C102 C103 1.396 . S
C103 C102 1.396 . S
C103 C104 1.348 . S
C103 C121 1.472 . S
C104 H74 0.929 . S
C104 C103 1.348 . S
C104 C105 1.443 . S
C105 H72 0.932 . S
C105 C100 1.388 . S
C105 C104 1.443 . S
C106 N86 1.433 . S
C106 C107 1.363 . S
C106 C111 1.370 . S
C107 H75 0.929 . S
C107 C106 1.363 . S
C107 C108 1.385 . S
C108 H76 0.930 . S
C108 C107 1.385 . S
C108 C109 1.357 . S
C109 C108 1.357 . S
C109 C110 1.406 . S
C110 H77 0.929 . S
C110 C109 1.406 . S
C110 C111 1.391 . S
C111 H78 0.931 . S
C111 C106 1.370 . S
C111 C110 1.391 . S
C112 N86 1.435 . S
C112 C113 1.358 . S
C112 C117 1.371 . S
C113 H79 0.930 . S
C113 C112 1.358 . S
C113 C114 1.405 . S
C114 H80 0.932 . S
C114 C113 1.405 . S
C114 C115 1.383 . S
C115 C114 1.383 . S
C115 C116 1.393 . S
C116 H81 0.931 . S
C116 C115 1.393 . S
C116 C117 1.382 . S
C117 H82 0.929 . S
C117 C112 1.371 . S
C117 C116 1.382 . S
C118 N86 1.423 . S
C118 C119 1.362 . S
C118 C123 1.388 . S
C119 H83 0.929 . S
C119 C118 1.362 . S
C119 C120 1.376 . S
C120 H84 0.931 . S
C120 C119 1.376 . S
C120 C121 1.396 . S
C121 C103 1.472 . S
C121 C120 1.396 . S
C121 C122 1.348 . S
C122 H85 0.929 . S
C122 C121 1.348 . S
C122 C123 1.443 . S
C123 H87 0.932 . S
C123 C118 1.388 . S
C123 C122 1.443 . S
H124 C151 0.929 . S
N125 C150 1.433 . S
N125 C156 1.435 . S
N125 C162 1.423 . S
H126 C152 0.930 . S
H127 C155 0.931 . S
H128 C154 0.929 . S
H129 C157 0.930 . S
H130 C158 0.932 . S
H131 C161 0.929 . S
H132 C160 0.931 . S
H133 C163 0.929 . S
H134 C167 0.932 . S
H135 C164 0.931 . S
H136 C166 0.929 . S
H137 C169 0.929 . S
H138 C170 0.930 . S
H139 C172 0.929 . S
H140 C173 0.931 . S
H141 C175 0.930 . S
H142 C176 0.932 . S
H143 C178 0.931 . S
H144 C179 0.929 . S
H145 C181 0.929 . S
H146 C182 0.931 . S
H147 C184 0.929 . S
N148 C168 1.433 . S
N148 C174 1.435 . S
N148 C180 1.423 . S
H149 C185 0.932 . S
C150 N125 1.433 . S
C150 C151 1.363 . S
C150 C155 1.370 . S
C151 H124 0.929 . S
C151 C150 1.363 . S
C151 C152 1.385 . S
C152 H126 0.930 . S
C152 C151 1.385 . S
C152 C153 1.357 . S
C153 C152 1.357 . S
C153 C154 1.406 . S
C154 H128 0.929 . S
C154 C153 1.406 . S
C154 C155 1.391 . S
C155 H127 0.931 . S
C155 C150 1.370 . S
C155 C154 1.391 . S
C156 N125 1.435 . S
C156 C157 1.358 . S
C156 C161 1.371 . S
C157 H129 0.930 . S
C157 C156 1.358 . S
C157 C158 1.405 . S
C158 H130 0.932 . S
C158 C157 1.405 . S
C158 C159 1.383 . S
C159 C158 1.383 . S
C159 C160 1.393 . S
C160 H132 0.931 . S
C160 C159 1.393 . S
C160 C161 1.382 . S
C161 H131 0.929 . S
C161 C156 1.371 . S
C161 C160 1.382 . S
C162 N125 1.423 . S
C162 C163 1.362 . S
C162 C167 1.388 . S
C163 H133 0.929 . S
C163 C162 1.362 . S
C163 C164 1.376 . S
C164 H135 0.931 . S
C164 C163 1.376 . S
C164 C165 1.396 . S
C165 C164 1.396 . S
C165 C166 1.348 . S
C165 C183 1.472 . S
C166 H136 0.929 . S
C166 C165 1.348 . S
C166 C167 1.443 . S
C167 H134 0.932 . S
C167 C162 1.388 . S
C167 C166 1.443 . S
C168 N148 1.433 . S
C168 C169 1.363 . S
C168 C173 1.370 . S
C169 H137 0.929 . S
C169 C168 1.363 . S
C169 C170 1.385 . S
C170 H138 0.930 . S
C170 C169 1.385 . S
C170 C171 1.357 . S
C171 C170 1.357 . S
C171 C172 1.406 . S
C172 H139 0.929 . S
C172 C171 1.406 . S
C172 C173 1.391 . S
C173 H140 0.931 . S
C173 C168 1.370 . S
C173 C172 1.391 . S
C174 N148 1.435 . S
C174 C175 1.358 . S
C174 C179 1.371 . S
C175 H141 0.930 . S
C175 C174 1.358 . S
C175 C176 1.405 . S
C176 H142 0.932 . S
C176 C175 1.405 . S
C176 C177 1.383 . S
C177 C176 1.383 . S
C177 C178 1.393 . S
C178 H143 0.931 . S
C178 C177 1.393 . S
C178 C179 1.382 . S
C179 H144 0.929 . S
C179 C174 1.371 . S
C179 C178 1.382 . S
C180 N148 1.423 . S
C180 C181 1.362 . S
C180 C185 1.388 . S
C181 H145 0.929 . S
C181 C180 1.362 . S
C181 C182 1.376 . S
C182 H146 0.931 . S
C182 C181 1.376 . S
C182 C183 1.396 . S
C183 C165 1.472 . S
C183 C182 1.396 . S
C183 C184 1.348 . S
C184 H147 0.929 . S
C184 C183 1.348 . S
C184 C185 1.443 . S
C185 H149 0.932 . S
C185 C180 1.388 . S
C185 C184 1.443 . S
H186 C213 0.929 . S
N187 C212 1.433 . S
N187 C218 1.435 . S
N187 C224 1.423 . S
H188 C214 0.930 . S
H189 C217 0.931 . S
H190 C216 0.929 . S
H191 C219 0.930 . S
H192 C220 0.932 . S
H193 C223 0.929 . S
H194 C222 0.931 . S
H195 C225 0.929 . S
H196 C229 0.932 . S
H197 C226 0.931 . S
H198 C228 0.929 . S
H199 C231 0.929 . S
H200 C232 0.930 . S
H201 C234 0.929 . S
H202 C235 0.931 . S
H203 C237 0.930 . S
H204 C238 0.932 . S
H205 C240 0.931 . S
H206 C241 0.929 . S
H207 C243 0.929 . S
H208 C244 0.931 . S
H209 C246 0.929 . S
N210 C230 1.433 . S
N210 C236 1.435 . S
N210 C242 1.423 . S
H211 C247 0.932 . S
C212 N187 1.433 . S
C212 C213 1.363 . S
C212 C217 1.370 . S
C213 H186 0.929 . S
C213 C212 1.363 . S
C213 C214 1.385 . S
C214 H188 0.930 . S
C214 C213 1.385 . S
C214 C215 1.357 . S
C215 C214 1.357 . S
C215 C216 1.406 . S
C216 H190 0.929 . S
C216 C215 1.406 . S
C216 C217 1.391 . S
C217 H189 0.931 . S
C217 C212 1.370 . S
C217 C216 1.391 . S
C218 N187 1.435 . S
C218 C219 1.358 . S
C218 C223 1.371 . S
C219 H191 0.930 . S
C219 C218 1.358 . S
C219 C220 1.405 . S
C220 H192 0.932 . S
C220 C219 1.405 . S
C220 C221 1.383 . S
C221 C220 1.383 . S
C221 C222 1.393 . S
C222 H194 0.931 . S
C222 C221 1.393 . S
C222 C223 1.382 . S
C223 H193 0.929 . S
C223 C218 1.371 . S
C223 C222 1.382 . S
C224 N187 1.423 . S
C224 C225 1.362 . S
C224 C229 1.388 . S
C225 H195 0.929 . S
C225 C224 1.362 . S
C225 C226 1.376 . S
C226 H197 0.931 . S
C226 C225 1.376 . S
C226 C227 1.396 . S
C227 C226 1.396 . S
C227 C228 1.348 . S
C227 C245 1.472 . S
C228 H198 0.929 . S
C228 C227 1.348 . S
C228 C229 1.443 . S
C229 H196 0.932 . S
C229 C224 1.388 . S
C229 C228 1.443 . S
C230 N210 1.433 . S
C230 C231 1.363 . S
C230 C235 1.370 . S
C231 H199 0.929 . S
C231 C230 1.363 . S
C231 C232 1.385 . S
C232 H200 0.930 . S
C232 C231 1.385 . S
C232 C233 1.357 . S
C233 C232 1.357 . S
C233 C234 1.406 . S
C234 H201 0.929 . S
C234 C233 1.406 . S
C234 C235 1.391 . S
C235 H202 0.931 . S
C235 C230 1.370 . S
C235 C234 1.391 . S
C236 N210 1.435 . S
C236 C237 1.358 . S
C236 C241 1.371 . S
C237 H203 0.930 . S
C237 C236 1.358 . S
C237 C238 1.405 . S
C238 H204 0.932 . S
C238 C237 1.405 . S
C238 C239 1.383 . S
C239 C238 1.383 . S
C239 C240 1.393 . S
C240 H205 0.931 . S
C240 C239 1.393 . S
C240 C241 1.382 . S
C241 H206 0.929 . S
C241 C236 1.371 . S
C241 C240 1.382 . S
C242 N210 1.423 . S
C242 C243 1.362 . S
C242 C247 1.388 . S
C243 H207 0.929 . S
C243 C242 1.362 . S
C243 C244 1.376 . S
C244 H208 0.931 . S
C244 C243 1.376 . S
C244 C245 1.396 . S
C245 C227 1.472 . S
C245 C244 1.396 . S
C245 C246 1.348 . S
C246 H209 0.929 . S
C246 C245 1.348 . S
C246 C247 1.443 . S
C247 H211 0.932 . S
C247 C242 1.388 . S
C247 C246 1.443 . S
H248 C275 0.929 . S
N249 C274 1.433 . S
N249 C280 1.435 . S
N249 C286 1.423 . S
H250 C276 0.930 . S
H251 C279 0.931 . S
H252 C278 0.929 . S
H253 C281 0.930 . S
H254 C282 0.932 . S
H255 C285 0.929 . S
H256 C284 0.931 . S
H257 C287 0.929 . S
H258 C291 0.932 . S
H259 C288 0.931 . S
H260 C290 0.929 . S
H261 C293 0.929 . S
H262 C294 0.930 . S
H263 C296 0.929 . S
H264 C297 0.931 . S
H265 C299 0.930 . S
H266 C300 0.932 . S
H267 C302 0.931 . S
H268 C303 0.929 . S
H269 C305 0.929 . S
H270 C306 0.931 . S
H271 C308 0.929 . S
N272 C292 1.433 . S
N272 C298 1.435 . S
N272 C304 1.423 . S
H273 C309 0.932 . S
C274 N249 1.433 . S
C274 C275 1.363 . S
C274 C279 1.370 . S
C275 H248 0.929 . S
C275 C274 1.363 . S
C275 C276 1.385 . S
C276 H250 0.930 . S
C276 C275 1.385 . S
C276 C277 1.357 . S
C277 C276 1.357 . S
C277 C278 1.406 . S
C278 H252 0.929 . S
C278 C277 1.406 . S
C278 C279 1.391 . S
C279 H251 0.931 . S
C279 C274 1.370 . S
C279 C278 1.391 . S
C280 N249 1.435 . S
C280 C281 1.358 . S
C280 C285 1.371 . S
C281 H253 0.930 . S
C281 C280 1.358 . S
C281 C282 1.405 . S
C282 H254 0.932 . S
C282 C281 1.405 . S
C282 C283 1.383 . S
C283 C282 1.383 . S
C283 C284 1.393 . S
C284 H256 0.931 . S
C284 C283 1.393 . S
C284 C285 1.382 . S
C285 H255 0.929 . S
C285 C280 1.371 . S
C285 C284 1.382 . S
C286 N249 1.423 . S
C286 C287 1.362 . S
C286 C291 1.388 . S
C287 H257 0.929 . S
C287 C286 1.362 . S
C287 C288 1.376 . S
C288 H259 0.931 . S
C288 C287 1.376 . S
C288 C289 1.396 . S
C289 C288 1.396 . S
C289 C290 1.348 . S
C289 C307 1.472 . S
C290 H260 0.929 . S
C290 C289 1.348 . S
C290 C291 1.443 . S
C291 H258 0.932 . S
C291 C286 1.388 . S
C291 C290 1.443 . S
C292 N272 1.433 . S
C292 C293 1.363 . S
C292 C297 1.370 . S
C293 H261 0.929 . S
C293 C292 1.363 . S
C293 C294 1.385 . S
C294 H262 0.930 . S
C294 C293 1.385 . S
C294 C295 1.357 . S
C295 C294 1.357 . S
C295 C296 1.406 . S
C296 H263 0.929 . S
C296 C295 1.406 . S
C296 C297 1.391 . S
C297 H264 0.931 . S
C297 C292 1.370 . S
C297 C296 1.391 . S
C298 N272 1.435 . S
C298 C299 1.358 . S
C298 C303 1.371 . S
C299 H265 0.930 . S
C299 C298 1.358 . S
C299 C300 1.405 . S
C300 H266 0.932 . S
C300 C299 1.405 . S
C300 C301 1.383 . S
C301 C300 1.383 . S
C301 C302 1.393 . S
C302 H267 0.931 . S
C302 C301 1.393 . S
C302 C303 1.382 . S
C303 H268 0.929 . S
C303 C298 1.371 . S
C303 C302 1.382 . S
C304 N272 1.423 . S
C304 C305 1.362 . S
C304 C309 1.388 . S
C305 H269 0.929 . S
C305 C304 1.362 . S
C305 C306 1.376 . S
C306 H270 0.931 . S
C306 C305 1.376 . S
C306 C307 1.396 . S
C307 C289 1.472 . S
C307 C306 1.396 . S
C307 C308 1.348 . S
C308 H271 0.929 . S
C308 C307 1.348 . S
C308 C309 1.443 . S
C309 H273 0.932 . S
C309 C304 1.388 . S
C309 C308 1.443 . S
H310 C337 0.929 . S
N311 C336 1.433 . S
N311 C342 1.435 . S
N311 C348 1.423 . S
H312 C338 0.930 . S
H313 C341 0.931 . S
H314 C340 0.929 . S
H315 C343 0.930 . S
H316 C344 0.932 . S
H317 C347 0.929 . S
H318 C346 0.931 . S
H319 C349 0.929 . S
H320 C353 0.932 . S
H321 C350 0.931 . S
H322 C352 0.929 . S
H323 C355 0.929 . S
H324 C356 0.930 . S
H325 C358 0.929 . S
H326 C359 0.931 . S
H327 C361 0.930 . S
H328 C362 0.932 . S
H329 C364 0.931 . S
H330 C365 0.929 . S
H331 C367 0.929 . S
H332 C368 0.931 . S
H333 C370 0.929 . S
N334 C354 1.433 . S
N334 C360 1.435 . S
N334 C366 1.423 . S
H335 C371 0.932 . S
C336 N311 1.433 . S
C336 C337 1.363 . S
C336 C341 1.370 . S
C337 H310 0.929 . S
C337 C336 1.363 . S
C337 C338 1.385 . S
C338 H312 0.930 . S
C338 C337 1.385 . S
C338 C339 1.357 . S
C339 C338 1.357 . S
C339 C340 1.406 . S
C340 H314 0.929 . S
C340 C339 1.406 . S
C340 C341 1.391 . S
C341 H313 0.931 . S
C341 C336 1.370 . S
C341 C340 1.391 . S
C342 N311 1.435 . S
C342 C343 1.358 . S
C342 C347 1.371 . S
C343 H315 0.930 . S
C343 C342 1.358 . S
C343 C344 1.405 . S
C344 H316 0.932 . S
C344 C343 1.405 . S
C344 C345 1.383 . S
C345 C344 1.383 . S
C345 C346 1.393 . S
C346 H318 0.931 . S
C346 C345 1.393 . S
C346 C347 1.382 . S
C347 H317 0.929 . S
C347 C342 1.371 . S
C347 C346 1.382 . S
C348 N311 1.423 . S
C348 C349 1.362 . S
C348 C353 1.388 . S
C349 H319 0.929 . S
C349 C348 1.362 . S
C349 C350 1.376 . S
C350 H321 0.931 . S
C350 C349 1.376 . S
C350 C351 1.396 . S
C351 C350 1.396 . S
C351 C352 1.348 . S
C351 C369 1.472 . S
C352 H322 0.929 . S
C352 C351 1.348 . S
C352 C353 1.443 . S
C353 H320 0.932 . S
C353 C348 1.388 . S
C353 C352 1.443 . S
C354 N334 1.433 . S
C354 C355 1.363 . S
C354 C359 1.370 . S
C355 H323 0.929 . S
C355 C354 1.363 . S
C355 C356 1.385 . S
C356 H324 0.930 . S
C356 C355 1.385 . S
C356 C357 1.357 . S
C357 C356 1.357 . S
C357 C358 1.406 . S
C358 H325 0.929 . S
C358 C357 1.406 . S
C358 C359 1.391 . S
C359 H326 0.931 . S
C359 C354 1.370 . S
C359 C358 1.391 . S
C360 N334 1.435 . S
C360 C361 1.358 . S
C360 C365 1.371 . S
C361 H327 0.930 . S
C361 C360 1.358 . S
C361 C362 1.405 . S
C362 H328 0.932 . S
C362 C361 1.405 . S
C362 C363 1.383 . S
C363 C362 1.383 . S
C363 C364 1.393 . S
C364 H329 0.931 . S
C364 C363 1.393 . S
C364 C365 1.382 . S
C365 H330 0.929 . S
C365 C360 1.371 . S
C365 C364 1.382 . S
C366 N334 1.423 . S
C366 C367 1.362 . S
C366 C371 1.388 . S
C367 H331 0.929 . S
C367 C366 1.362 . S
C367 C368 1.376 . S
C368 H332 0.931 . S
C368 C367 1.376 . S
C368 C369 1.396 . S
C369 C351 1.472 . S
C369 C368 1.396 . S
C369 C370 1.348 . S
C370 H333 0.929 . S
C370 C369 1.348 . S
C370 C371 1.443 . S
C371 H335 0.932 . S
C371 C366 1.388 . S
C371 C370 1.443 . S
H372 C399 0.929 . S
N373 C398 1.433 . S
N373 C404 1.435 . S
N373 C410 1.423 . S
H374 C400 0.930 . S
H375 C403 0.931 . S
H376 C402 0.929 . S
H377 C405 0.930 . S
H378 C406 0.932 . S
H379 C409 0.929 . S
H380 C408 0.931 . S
H381 C411 0.929 . S
H382 C415 0.932 . S
H383 C412 0.931 . S
H384 C414 0.929 . S
H385 C417 0.929 . S
H386 C418 0.930 . S
H387 C420 0.929 . S
H388 C421 0.931 . S
H389 C423 0.930 . S
H390 C424 0.932 . S
H391 C426 0.931 . S
H392 C427 0.929 . S
H393 C429 0.929 . S
H394 C430 0.931 . S
H395 C432 0.929 . S
N396 C416 1.433 . S
N396 C422 1.435 . S
N396 C428 1.423 . S
H397 C433 0.932 . S
C398 N373 1.433 . S
C398 C399 1.363 . S
C398 C403 1.370 . S
C399 H372 0.929 . S
C399 C398 1.363 . S
C399 C400 1.385 . S
C400 H374 0.930 . S
C400 C399 1.385 . S
C400 C401 1.357 . S
C401 C400 1.357 . S
C401 C402 1.406 . S
C402 H376 0.929 . S
C402 C401 1.406 . S
C402 C403 1.391 . S
C403 H375 0.931 . S
C403 C398 1.370 . S
C403 C402 1.391 . S
C404 N373 1.435 . S
C404 C405 1.358 . S
C404 C409 1.371 . S
C405 H377 0.930 . S
C405 C404 1.358 . S
C405 C406 1.405 . S
C406 H378 0.932 . S
C406 C405 1.405 . S
C406 C407 1.383 . S
C407 C406 1.383 . S
C407 C408 1.393 . S
C408 H380 0.931 . S
C408 C407 1.393 . S
C408 C409 1.382 . S
C409 H379 0.929 . S
C409 C404 1.371 . S
C409 C408 1.382 . S
C410 N373 1.423 . S
C410 C411 1.362 . S
C410 C415 1.388 . S
C411 H381 0.929 . S
C411 C410 1.362 . S
C411 C412 1.376 . S
C412 H383 0.931 . S
C412 C411 1.376 . S
C412 C413 1.396 . S
C413 C412 1.396 . S
C413 C414 1.348 . S
C413 C431 1.472 . S
C414 H384 0.929 . S
C414 C413 1.348 . S
C414 C415 1.443 . S
C415 H382 0.932 . S
C415 C410 1.388 . S
C415 C414 1.443 . S
C416 N396 1.433 . S
C416 C417 1.363 . S
C416 C421 1.370 . S
C417 H385 0.929 . S
C417 C416 1.363 . S
C417 C418 1.385 . S
C418 H386 0.930 . S
C418 C417 1.385 . S
C418 C419 1.357 . S
C419 C418 1.357 . S
C419 C420 1.406 . S
C420 H387 0.929 . S
C420 C419 1.406 . S
C420 C421 1.391 . S
C421 H388 0.931 . S
C421 C416 1.370 . S
C421 C420 1.391 . S
C422 N396 1.435 . S
C422 C423 1.358 . S
C422 C427 1.371 . S
C423 H389 0.930 . S
C423 C422 1.358 . S
C423 C424 1.405 . S
C424 H390 0.932 . S
C424 C423 1.405 . S
C424 C425 1.383 . S
C425 C424 1.383 . S
C425 C426 1.393 . S
C426 H391 0.931 . S
C426 C425 1.393 . S
C426 C427 1.382 . S
C427 H392 0.929 . S
C427 C422 1.371 . S
C427 C426 1.382 . S
C428 N396 1.423 . S
C428 C429 1.362 . S
C428 C433 1.388 . S
C429 H393 0.929 . S
C429 C428 1.362 . S
C429 C430 1.376 . S
C430 H394 0.931 . S
C430 C429 1.376 . S
C430 C431 1.396 . S
C431 C413 1.472 . S
C431 C430 1.396 . S
C431 C432 1.348 . S
C432 H395 0.929 . S
C432 C431 1.348 . S
C432 C433 1.443 . S
C433 H397 0.932 . S
C433 C428 1.388 . S
C433 C432 1.443 . S
H434 C461 0.929 . S
N435 C460 1.433 . S
N435 C466 1.435 . S
N435 C472 1.423 . S
H436 C462 0.930 . S
H437 C465 0.931 . S
H438 C464 0.929 . S
H439 C467 0.930 . S
H440 C468 0.932 . S
H441 C471 0.929 . S
H442 C470 0.931 . S
H443 C473 0.929 . S
H444 C477 0.932 . S
H445 C474 0.931 . S
H446 C476 0.929 . S
H447 C479 0.929 . S
H448 C480 0.930 . S
H449 C482 0.929 . S
H450 C483 0.931 . S
H451 C485 0.930 . S
H452 C486 0.932 . S
H453 C488 0.931 . S
H454 C489 0.929 . S
H455 C491 0.929 . S
H456 C492 0.931 . S
H457 C494 0.929 . S
N458 C478 1.433 . S
N458 C484 1.435 . S
N458 C490 1.423 . S
H459 C495 0.932 . S
C460 N435 1.433 . S
C460 C461 1.363 . S
C460 C465 1.370 . S
C461 H434 0.929 . S
C461 C460 1.363 . S
C461 C462 1.385 . S
C462 H436 0.930 . S
C462 C461 1.385 . S
C462 C463 1.357 . S
C463 C462 1.357 . S
C463 C464 1.406 . S
C464 H438 0.929 . S
C464 C463 1.406 . S
C464 C465 1.391 . S
C465 H437 0.931 . S
C465 C460 1.370 . S
C465 C464 1.391 . S
C466 N435 1.435 . S
C466 C467 1.358 . S
C466 C471 1.371 . S
C467 H439 0.930 . S
C467 C466 1.358 . S
C467 C468 1.405 . S
C468 H440 0.932 . S
C468 C467 1.405 . S
C468 C469 1.383 . S
C469 C468 1.383 . S
C469 C470 1.393 . S
C470 H442 0.931 . S
C470 C469 1.393 . S
C470 C471 1.382 . S
C471 H441 0.929 . S
C471 C466 1.371 . S
C471 C470 1.382 . S
C472 N435 1.423 . S
C472 C473 1.362 . S
C472 C477 1.388 . S
C473 H443 0.929 . S
C473 C472 1.362 . S
C473 C474 1.376 . S
C474 H445 0.931 . S
C474 C473 1.376 . S
C474 C475 1.396 . S
C475 C474 1.396 . S
C475 C476 1.348 . S
C475 C493 1.472 . S
C476 H446 0.929 . S
C476 C475 1.348 . S
C476 C477 1.443 . S
C477 H444 0.932 . S
C477 C472 1.388 . S
C477 C476 1.443 . S
C478 N458 1.433 . S
C478 C479 1.363 . S
C478 C483 1.370 . S
C479 H447 0.929 . S
C479 C478 1.363 . S
C479 C480 1.385 . S
C480 H448 0.930 . S
C480 C479 1.385 . S
C480 C481 1.357 . S
C481 C480 1.357 . S
C481 C482 1.406 . S
C482 H449 0.929 . S
C482 C481 1.406 . S
C482 C483 1.391 . S
C483 H450 0.931 . S
C483 C478 1.370 . S
C483 C482 1.391 . S
C484 N458 1.435 . S
C484 C485 1.358 . S
C484 C489 1.371 . S
C485 H451 0.930 . S
C485 C484 1.358 . S
C485 C486 1.405 . S
C486 H452 0.932 . S
C486 C485 1.405 . S
C486 C487 1.383 . S
C487 C486 1.383 . S
C487 C488 1.393 . S
C488 H453 0.931 . S
C488 C487 1.393 . S
C488 C489 1.382 . S
C489 H454 0.929 . S
C489 C484 1.371 . S
C489 C488 1.382 . S
C490 N458 1.423 . S
C490 C491 1.362 . S
C490 C495 1.388 . S
C491 H455 0.929 . S
C491 C490 1.362 . S
C491 C492 1.376 . S
C492 H456 0.931 . S
C492 C491 1.376 . S
C492 C493 1.396 . S
C493 C475 1.472 . S
C493 C492 1.396 . S
C493 C494 1.348 . S
C494 H457 0.929 . S
C494 C493 1.348 . S
C494 C495 1.443 . S
C495 H459 0.932 . S
C495 C490 1.388 . S
C495 C494 1.443 . S
C496 O498 1.247 . S
C496 O500 1.258 . S
C497 O504 1.247 . S
C497 O505 1.258 . S
O498 C496 1.247 . S
O498 Zn499 2.028 1_655 S
Zn499 O498 2.028 1_455 S
Zn499 O503 2.035 . S
Zn499 O505 2.035 . S
Zn499 O506 2.028 1_455 S
O500 C496 1.258 . S
O500 Zn501 2.035 1_655 S
Zn501 O500 2.035 1_455 S
Zn501 O502 2.028 . S
Zn501 O504 2.028 . S
Zn501 O507 2.035 1_455 S
O502 Zn501 2.028 . S
O502 C508 1.247 . S
O503 Zn499 2.035 . S
O503 C508 1.258 . S
O504 C497 1.247 . S
O504 Zn501 2.028 . S
O505 C497 1.258 . S
O505 Zn499 2.035 . S
O506 Zn499 2.028 1_655 S
O506 C509 1.247 . S
O507 Zn501 2.035 1_655 S
O507 C509 1.258 . S
C508 O502 1.247 . S
C508 O503 1.258 . S
C509 O506 1.247 . S
C509 O507 1.258 . S
C510 O512 1.247 . S
C510 O514 1.258 . S
C511 O518 1.247 . S
C511 O519 1.258 . S
O512 C510 1.247 . S
O512 Zn513 2.028 . S
Zn513 O512 2.028 . S
Zn513 O517 2.035 1_545 S
Zn513 O519 2.035 1_545 S
Zn513 O520 2.028 . S
O514 C510 1.258 . S
O514 Zn515 2.035 . S
Zn515 O514 2.035 . S
Zn515 O516 2.028 1_545 S
Zn515 O518 2.028 1_545 S
Zn515 O521 2.035 . S
O516 Zn515 2.028 1_565 S
O516 C522 1.247 . S
O517 Zn513 2.035 1_565 S
O517 C522 1.258 . S
O518 C511 1.247 . S
O518 Zn515 2.028 1_565 S
O519 C511 1.258 . S
O519 Zn513 2.035 1_565 S
O520 Zn513 2.028 . S
O520 C523 1.247 . S
O521 Zn515 2.035 . S
O521 C523 1.258 . S
C522 O516 1.247 . S
C522 O517 1.258 . S
C523 O520 1.247 . S
C523 O521 1.258 . S
C524 O526 1.247 . S
C524 O528 1.258 . S
C525 O532 1.247 . S
C525 O533 1.258 . S
O526 C524 1.247 . S
O526 Zn527 2.028 1_655 S
Zn527 O526 2.028 1_455 S
Zn527 O531 2.035 . S
Zn527 O533 2.035 . S
Zn527 O534 2.028 1_455 S
O528 C524 1.258 . S
O528 Zn529 2.035 1_655 S
Zn529 O528 2.035 1_455 S
Zn529 O530 2.028 . S
Zn529 O532 2.028 . S
Zn529 O535 2.035 1_455 S
O530 Zn529 2.028 . S
O530 C536 1.247 . S
O531 Zn527 2.035 . S
O531 C536 1.258 . S
O532 C525 1.247 . S
O532 Zn529 2.028 . S
O533 C525 1.258 . S
O533 Zn527 2.035 . S
O534 Zn527 2.028 1_655 S
O534 C537 1.247 . S
O535 Zn529 2.035 1_655 S
O535 C537 1.258 . S
C536 O530 1.247 . S
C536 O531 1.258 . S
C537 O534 1.247 . S
C537 O535 1.258 . S
C538 O540 1.247 . S
C538 O542 1.258 . S
C539 O546 1.247 . S
C539 O547 1.258 . S
O540 C538 1.247 . S
O540 Zn541 2.028 . S
Zn541 O540 2.028 . S
Zn541 O545 2.035 1_545 S
Zn541 O547 2.035 1_545 S
Zn541 O548 2.028 . S
O542 C538 1.258 . S
O542 Zn543 2.035 . S
Zn543 O542 2.035 . S
Zn543 O544 2.028 1_545 S
Zn543 O546 2.028 1_545 S
Zn543 O549 2.035 . S
O544 Zn543 2.028 1_565 S
O544 C550 1.247 . S
O545 Zn541 2.035 1_565 S
O545 C550 1.258 . S
O546 C539 1.247 . S
O546 Zn543 2.028 1_565 S
O547 C539 1.258 . S
O547 Zn541 2.035 1_565 S
O548 Zn541 2.028 . S
O548 C551 1.247 . S
O549 Zn543 2.035 . S
O549 C551 1.258 . S
C550 O544 1.247 . S
C550 O545 1.258 . S
C551 O548 1.247 . S
C551 O549 1.258 . S
C552 O554 1.247 . S
C552 O556 1.258 . S
C553 O560 1.247 . S
C553 O561 1.258 . S
O554 C552 1.247 . S
O554 Zn555 2.028 . S
Zn555 O554 2.028 . S
Zn555 O559 2.035 . S
Zn555 O561 2.035 1_554 S
Zn555 O562 2.028 1_554 S
O556 C552 1.258 . S
O556 Zn557 2.035 . S
Zn557 O556 2.035 . S
Zn557 O558 2.028 . S
Zn557 O560 2.028 1_554 S
Zn557 O563 2.035 1_554 S
O558 Zn557 2.028 . S
O558 C564 1.247 . S
O559 Zn555 2.035 . S
O559 C564 1.258 . S
O560 C553 1.247 . S
O560 Zn557 2.028 1_556 S
O561 C553 1.258 . S
O561 Zn555 2.035 1_556 S
O562 Zn555 2.028 1_556 S
O562 C565 1.247 . S
O563 Zn557 2.035 1_556 S
O563 C565 1.258 . S
C564 O558 1.247 . S
C564 O559 1.258 . S
C565 O562 1.247 . S
C565 O563 1.258 . S
C566 O568 1.247 . S
C566 O570 1.258 . S
C567 O574 1.247 . S
C567 O575 1.258 . S
O568 C566 1.247 . S
O568 Zn569 2.028 . S
Zn569 O568 2.028 . S
Zn569 O573 2.035 . S
Zn569 O575 2.035 1_554 S
Zn569 O576 2.028 1_554 S
O570 C566 1.258 . S
O570 Zn571 2.035 . S
Zn571 O570 2.035 . S
Zn571 O572 2.028 . S
Zn571 O574 2.028 1_554 S
Zn571 O577 2.035 1_554 S
O572 Zn571 2.028 . S
O572 C578 1.247 . S
O573 Zn569 2.035 . S
O573 C578 1.258 . S
O574 C567 1.247 . S
O574 Zn571 2.028 1_556 S
O575 C567 1.258 . S
O575 Zn569 2.035 1_556 S
O576 Zn569 2.028 1_556 S
O576 C579 1.247 . S
O577 Zn571 2.035 1_556 S
O577 C579 1.258 . S
C578 O572 1.247 . S
C578 O573 1.258 . S
C579 O576 1.247 . S
C579 O577 1.258 . S
C580 O582 1.247 . S
C580 O584 1.258 . S
C581 O588 1.247 . S
C581 O589 1.258 . S
O582 C580 1.247 . S
O582 Zn583 2.028 1_556 S
Zn583 O582 2.028 1_554 S
Zn583 O587 2.035 1_554 S
Zn583 O589 2.035 . S
Zn583 O590 2.028 . S
O584 C580 1.258 . S
O584 Zn585 2.035 1_556 S
Zn585 O584 2.035 1_554 S
Zn585 O586 2.028 1_554 S
Zn585 O588 2.028 . S
Zn585 O591 2.035 . S
O586 Zn585 2.028 1_556 S
O586 C592 1.247 . S
O587 Zn583 2.035 1_556 S
O587 C592 1.258 . S
O588 C581 1.247 . S
O588 Zn585 2.028 . S
O589 C581 1.258 . S
O589 Zn583 2.035 . S
O590 Zn583 2.028 . S
O590 C593 1.247 . S
O591 Zn585 2.035 . S
O591 C593 1.258 . S
C592 O586 1.247 . S
C592 O587 1.258 . S
C593 O590 1.247 . S
C593 O591 1.258 . S
C594 O596 1.247 . S
C594 O598 1.258 . S
C595 O602 1.247 . S
C595 O603 1.258 . S
O596 C594 1.247 . S
O596 Zn597 2.028 . S
Zn597 O596 2.028 . S
Zn597 O601 2.035 . S
Zn597 O603 2.035 1_554 S
Zn597 O604 2.028 1_554 S
O598 C594 1.258 . S
O598 Zn599 2.035 . S
Zn599 O598 2.035 . S
Zn599 O600 2.028 . S
Zn599 O602 2.028 1_554 S
Zn599 O605 2.035 1_554 S
O600 Zn599 2.028 . S
O600 C606 1.247 . S
O601 Zn597 2.035 . S
O601 C606 1.258 . S
O602 C595 1.247 . S
O602 Zn599 2.028 1_556 S
O603 C595 1.258 . S
O603 Zn597 2.035 1_556 S
O604 Zn597 2.028 1_556 S
O604 C607 1.247 . S
O605 Zn599 2.035 1_556 S
O605 C607 1.258 . S
C606 O600 1.247 . S
C606 O601 1.258 . S
C607 O604 1.247 . S
C607 O605 1.258 . S
C608 C609 1.349 . S
C608 C610 1.327 . S
C608 H633 0.950 . S
C609 C608 1.349 . S
C609 C625 1.349 . S
C610 C608 1.327 . S
C610 C629 1.429 . S
C610 H634 0.950 . S
C611 C628 1.574 . S
C611 C630 1.368 . S
C611 H635 0.949 . S
H612 C616 0.949 . S
C613 C614 1.349 . S
C613 C615 1.327 . S
C613 H636 0.950 . S
C614 C613 1.349 . S
C614 C626 1.349 . S
C615 C613 1.327 . S
C615 C631 1.429 . S
C615 H637 0.950 . S
C616 H612 0.949 . S
C616 C624 1.574 . S
C616 C632 1.368 . S
H617 C625 0.950 . S
H618 C623 0.950 . S
H619 C624 0.949 . S
H620 C626 0.950 . S
H621 C627 0.950 . S
H622 C628 0.949 . S
C623 H618 0.950 . S
C623 C625 1.327 . S
C623 C629 1.429 . S
C624 C616 1.574 . S
C624 H619 0.949 . S
C624 C630 1.368 . S
C625 C609 1.349 . S
C625 H617 0.950 . S
C625 C623 1.327 . S
C626 C614 1.349 . S
C626 H620 0.950 . S
C626 C627 1.327 . S
C627 H621 0.950 . S
C627 C626 1.327 . S
C627 C631 1.429 . S
C628 C611 1.574 . S
C628 H622 0.949 . S
C628 C632 1.368 . S
C629 C610 1.429 . S
C629 C623 1.429 . S
C629 C630 1.523 . S
C630 C611 1.368 . S
C630 C624 1.368 . S
C630 C629 1.523 . S
C631 C615 1.429 . S
C631 C627 1.429 . S
C631 C632 1.523 . S
C632 C616 1.368 . S
C632 C628 1.368 . S
C632 C631 1.523 . S
H633 C608 0.950 . S
H634 C610 0.950 . S
H635 C611 0.949 . S
H636 C613 0.950 . S
H637 C615 0.950 . S
C638 C639 1.349 . S
C638 C640 1.327 . S
C638 H663 0.950 . S
C639 C638 1.349 . S
C639 C655 1.349 . S
C640 C638 1.327 . S
C640 C659 1.429 . S
C640 H664 0.950 . S
C641 C658 1.574 . S
C641 C660 1.368 . S
C641 H665 0.949 . S
H642 C646 0.949 . S
C643 C644 1.349 . S
C643 C645 1.327 . S
C643 H666 0.950 . S
C644 C643 1.349 . S
C644 C656 1.349 . S
C645 C643 1.327 . S
C645 C661 1.429 . S
C645 H667 0.950 . S
C646 H642 0.949 . S
C646 C654 1.574 . S
C646 C662 1.368 . S
H647 C655 0.950 . S
H648 C653 0.950 . S
H649 C654 0.949 . S
H650 C656 0.950 . S
H651 C657 0.950 . S
H652 C658 0.949 . S
C653 H648 0.950 . S
C653 C655 1.327 . S
C653 C659 1.429 . S
C654 C646 1.574 . S
C654 H649 0.949 . S
C654 C660 1.368 . S
C655 C639 1.349 . S
C655 H647 0.950 . S
C655 C653 1.327 . S
C656 C644 1.349 . S
C656 H650 0.950 . S
C656 C657 1.327 . S
C657 H651 0.950 . S
C657 C656 1.327 . S
C657 C661 1.429 . S
C658 C641 1.574 . S
C658 H652 0.949 . S
C658 C662 1.368 . S
C659 C640 1.429 . S
C659 C653 1.429 . S
C659 C660 1.523 . S
C660 C641 1.368 . S
C660 C654 1.368 . S
C660 C659 1.523 . S
C661 C645 1.429 . S
C661 C657 1.429 . S
C661 C662 1.523 . S
C662 C646 1.368 . S
C662 C658 1.368 . S
C662 C661 1.523 . S
H663 C638 0.950 . S
H664 C640 0.950 . S
H665 C641 0.949 . S
H666 C643 0.950 . S
H667 C645 0.950 . S
C668 C669 1.349 . S
C668 C670 1.327 . S
C668 H693 0.950 . S
C669 C668 1.349 . S
C669 C685 1.349 . S
C670 C668 1.327 . S
C670 C689 1.429 . S
C670 H694 0.950 . S
C671 C688 1.574 . S
C671 C690 1.368 . S
C671 H695 0.949 . S
H672 C676 0.949 . S
C673 C674 1.349 . S
C673 C675 1.327 . S
C673 H696 0.950 . S
C674 C673 1.349 . S
C674 C686 1.349 . S
C675 C673 1.327 . S
C675 C691 1.429 . S
C675 H697 0.950 . S
C676 H672 0.949 . S
C676 C684 1.574 . S
C676 C692 1.368 . S
H677 C685 0.950 . S
H678 C683 0.950 . S
H679 C684 0.949 . S
H680 C686 0.950 . S
H681 C687 0.950 . S
H682 C688 0.949 . S
C683 H678 0.950 . S
C683 C685 1.327 . S
C683 C689 1.429 . S
C684 C676 1.574 . S
C684 H679 0.949 . S
C684 C690 1.368 . S
C685 C669 1.349 . S
C685 H677 0.950 . S
C685 C683 1.327 . S
C686 C674 1.349 . S
C686 H680 0.950 . S
C686 C687 1.327 . S
C687 H681 0.950 . S
C687 C686 1.327 . S
C687 C691 1.429 . S
C688 C671 1.574 . S
C688 H682 0.949 . S
C688 C692 1.368 . S
C689 C670 1.429 . S
C689 C683 1.429 . S
C689 C690 1.523 . S
C690 C671 1.368 . S
C690 C684 1.368 . S
C690 C689 1.523 . S
C691 C675 1.429 . S
C691 C687 1.429 . S
C691 C692 1.523 . S
C692 C676 1.368 . S
C692 C688 1.368 . S
C692 C691 1.523 . S
H693 C668 0.950 . S
H694 C670 0.950 . S
H695 C671 0.949 . S
H696 C673 0.950 . S
H697 C675 0.950 . S
C698 C699 1.349 . S
C698 C700 1.327 . S
C698 H723 0.950 . S
C699 C698 1.349 . S
C699 C715 1.349 . S
C700 C698 1.327 . S
C700 C719 1.429 . S
C700 H724 0.950 . S
C701 C718 1.574 . S
C701 C720 1.368 . S
C701 H725 0.949 . S
H702 C706 0.949 . S
C703 C704 1.349 . S
C703 C705 1.327 . S
C703 H726 0.950 . S
C704 C703 1.349 . S
C704 C716 1.349 . S
C705 C703 1.327 . S
C705 C721 1.429 . S
C705 H727 0.950 . S
C706 H702 0.949 . S
C706 C714 1.574 . S
C706 C722 1.368 . S
H707 C715 0.950 . S
H708 C713 0.950 . S
H709 C714 0.949 . S
H710 C716 0.950 . S
H711 C717 0.950 . S
H712 C718 0.949 . S
C713 H708 0.950 . S
C713 C715 1.327 . S
C713 C719 1.429 . S
C714 C706 1.574 . S
C714 H709 0.949 . S
C714 C720 1.368 . S
C715 C699 1.349 . S
C715 H707 0.950 . S
C715 C713 1.327 . S
C716 C704 1.349 . S
C716 H710 0.950 . S
C716 C717 1.327 . S
C717 H711 0.950 . S
C717 C716 1.327 . S
C717 C721 1.429 . S
C718 C701 1.574 . S
C718 H712 0.949 . S
C718 C722 1.368 . S
C719 C700 1.429 . S
C719 C713 1.429 . S
C719 C720 1.523 . S
C720 C701 1.368 . S
C720 C714 1.368 . S
C720 C719 1.523 . S
C721 C705 1.429 . S
C721 C717 1.429 . S
C721 C722 1.523 . S
C722 C706 1.368 . S
C722 C718 1.368 . S
C722 C721 1.523 . S
H723 C698 0.950 . S
H724 C700 0.950 . S
H725 C701 0.949 . S
H726 C703 0.950 . S
H727 C705 0.950 . S
C728 C729 1.349 . S
C728 C730 1.327 . S
C728 H753 0.950 . S
C729 C728 1.349 . S
C729 C745 1.349 . S
C730 C728 1.327 . S
C730 C749 1.429 . S
C730 H754 0.950 . S
C731 C748 1.574 . S
C731 C750 1.368 . S
C731 H755 0.949 . S
H732 C736 0.949 . S
C733 C734 1.349 . S
C733 C735 1.327 . S
C733 H756 0.950 . S
C734 C733 1.349 . S
C734 C746 1.349 . S
C735 C733 1.327 . S
C735 C751 1.429 . S
C735 H757 0.950 . S
C736 H732 0.949 . S
C736 C744 1.574 . S
C736 C752 1.368 . S
H737 C745 0.950 . S
H738 C743 0.950 . S
H739 C744 0.949 . S
H740 C746 0.950 . S
H741 C747 0.950 . S
H742 C748 0.949 . S
C743 H738 0.950 . S
C743 C745 1.327 . S
C743 C749 1.429 . S
C744 C736 1.574 . S
C744 H739 0.949 . S
C744 C750 1.368 . S
C745 C729 1.349 . S
C745 H737 0.950 . S
C745 C743 1.327 . S
C746 C734 1.349 . S
C746 H740 0.950 . S
C746 C747 1.327 . S
C747 H741 0.950 . S
C747 C746 1.327 . S
C747 C751 1.429 . S
C748 C731 1.574 . S
C748 H742 0.949 . S
C748 C752 1.368 . S
C749 C730 1.429 . S
C749 C743 1.429 . S
C749 C750 1.523 . S
C750 C731 1.368 . S
C750 C744 1.368 . S
C750 C749 1.523 . S
C751 C735 1.429 . S
C751 C747 1.429 . S
C751 C752 1.523 . S
C752 C736 1.368 . S
C752 C748 1.368 . S
C752 C751 1.523 . S
H753 C728 0.950 . S
H754 C730 0.950 . S
H755 C731 0.949 . S
H756 C733 0.950 . S
H757 C735 0.950 . S
C758 C759 1.349 . S
C758 C760 1.327 . S
C758 H783 0.950 . S
C759 C758 1.349 . S
C759 C775 1.349 . S
C760 C758 1.327 . S
C760 C779 1.429 . S
C760 H784 0.950 . S
C761 C778 1.574 . S
C761 C780 1.368 . S
C761 H785 0.949 . S
H762 C766 0.949 . S
C763 C764 1.349 . S
C763 C765 1.327 . S
C763 H786 0.950 . S
C764 C763 1.349 . S
C764 C776 1.349 . S
C765 C763 1.327 . S
C765 C781 1.429 . S
C765 H787 0.950 . S
C766 H762 0.949 . S
C766 C774 1.574 . S
C766 C782 1.368 . S
H767 C775 0.950 . S
H768 C773 0.950 . S
H769 C774 0.949 . S
H770 C776 0.950 . S
H771 C777 0.950 . S
H772 C778 0.949 . S
C773 H768 0.950 . S
C773 C775 1.327 . S
C773 C779 1.429 . S
C774 C766 1.574 . S
C774 H769 0.949 . S
C774 C780 1.368 . S
C775 C759 1.349 . S
C775 H767 0.950 . S
C775 C773 1.327 . S
C776 C764 1.349 . S
C776 H770 0.950 . S
C776 C777 1.327 . S
C777 H771 0.950 . S
C777 C776 1.327 . S
C777 C781 1.429 . S
C778 C761 1.574 . S
C778 H772 0.949 . S
C778 C782 1.368 . S
C779 C760 1.429 . S
C779 C773 1.429 . S
C779 C780 1.523 . S
C780 C761 1.368 . S
C780 C774 1.368 . S
C780 C779 1.523 . S
C781 C765 1.429 . S
C781 C777 1.429 . S
C781 C782 1.523 . S
C782 C766 1.368 . S
C782 C778 1.368 . S
C782 C781 1.523 . S
H783 C758 0.950 . S
H784 C760 0.950 . S
H785 C761 0.949 . S
H786 C763 0.950 . S
H787 C765 0.950 . S
C788 C789 1.349 . S
C788 C790 1.327 . S
C788 H813 0.950 . S
C789 C788 1.349 . S
C789 C805 1.349 . S
C790 C788 1.327 . S
C790 C809 1.429 . S
C790 H814 0.950 . S
C791 C808 1.574 . S
C791 C810 1.368 . S
C791 H815 0.949 . S
H792 C796 0.949 . S
C793 C794 1.349 . S
C793 C795 1.327 . S
C793 H816 0.950 . S
C794 C793 1.349 . S
C794 C806 1.349 . S
C795 C793 1.327 . S
C795 C811 1.429 . S
C795 H817 0.950 . S
C796 H792 0.949 . S
C796 C804 1.574 . S
C796 C812 1.368 . S
H797 C805 0.950 . S
H798 C803 0.950 . S
H799 C804 0.949 . S
H800 C806 0.950 . S
H801 C807 0.950 . S
H802 C808 0.949 . S
C803 H798 0.950 . S
C803 C805 1.327 . S
C803 C809 1.429 . S
C804 C796 1.574 . S
C804 H799 0.949 . S
C804 C810 1.368 . S
C805 C789 1.349 . S
C805 H797 0.950 . S
C805 C803 1.327 . S
C806 C794 1.349 . S
C806 H800 0.950 . S
C806 C807 1.327 . S
C807 H801 0.950 . S
C807 C806 1.327 . S
C807 C811 1.429 . S
C808 C791 1.574 . S
C808 H802 0.949 . S
C808 C812 1.368 . S
C809 C790 1.429 . S
C809 C803 1.429 . S
C809 C810 1.523 . S
C810 C791 1.368 . S
C810 C804 1.368 . S
C810 C809 1.523 . S
C811 C795 1.429 . S
C811 C807 1.429 . S
C811 C812 1.523 . S
C812 C796 1.368 . S
C812 C808 1.368 . S
C812 C811 1.523 . S
H813 C788 0.950 . S
H814 C790 0.950 . S
H815 C791 0.949 . S
H816 C793 0.950 . S
H817 C795 0.950 . S
C818 C819 1.349 . S
C818 C820 1.327 . S
C818 H843 0.950 . S
C819 C818 1.349 . S
C819 C835 1.349 . S
C820 C818 1.327 . S
C820 C839 1.429 . S
C820 H844 0.950 . S
C821 C838 1.574 . S
C821 C840 1.368 . S
C821 H845 0.949 . S
H822 C826 0.949 . S
C823 C824 1.349 . S
C823 C825 1.327 . S
C823 H846 0.950 . S
C824 C823 1.349 . S
C824 C836 1.349 . S
C825 C823 1.327 . S
C825 C841 1.429 . S
C825 H847 0.950 . S
C826 H822 0.949 . S
C826 C834 1.574 . S
C826 C842 1.368 . S
H827 C835 0.950 . S
H828 C833 0.950 . S
H829 C834 0.949 . S
H830 C836 0.950 . S
H831 C837 0.950 . S
H832 C838 0.949 . S
C833 H828 0.950 . S
C833 C835 1.327 . S
C833 C839 1.429 . S
C834 C826 1.574 . S
C834 H829 0.949 . S
C834 C840 1.368 . S
C835 C819 1.349 . S
C835 H827 0.950 . S
C835 C833 1.327 . S
C836 C824 1.349 . S
C836 H830 0.950 . S
C836 C837 1.327 . S
C837 H831 0.950 . S
C837 C836 1.327 . S
C837 C841 1.429 . S
C838 C821 1.574 . S
C838 H832 0.949 . S
C838 C842 1.368 . S
C839 C820 1.429 . S
C839 C833 1.429 . S
C839 C840 1.523 . S
C840 C821 1.368 . S
C840 C834 1.368 . S
C840 C839 1.523 . S
C841 C825 1.429 . S
C841 C837 1.429 . S
C841 C842 1.523 . S
C842 C826 1.368 . S
C842 C838 1.368 . S
C842 C841 1.523 . S
H843 C818 0.950 . S
H844 C820 0.950 . S
H845 C821 0.949 . S
H846 C823 0.950 . S
H847 C825 0.950 . S
C848 C849 1.349 . S
C848 C850 1.327 . S
C848 H873 0.950 . S
C849 C848 1.349 . S
C849 C865 1.349 . S
C850 C848 1.327 . S
C850 C869 1.429 . S
C850 H874 0.950 . S
C851 C868 1.574 . S
C851 C870 1.368 . S
C851 H875 0.949 . S
H852 C856 0.949 . S
C853 C854 1.349 . S
C853 C855 1.327 . S
C853 H876 0.950 . S
C854 C853 1.349 . S
C854 C866 1.349 . S
C855 C853 1.327 . S
C855 C871 1.429 . S
C855 H877 0.950 . S
C856 H852 0.949 . S
C856 C864 1.574 . S
C856 C872 1.368 . S
H857 C865 0.950 . S
H858 C863 0.950 . S
H859 C864 0.949 . S
H860 C866 0.950 . S
H861 C867 0.950 . S
H862 C868 0.949 . S
C863 H858 0.950 . S
C863 C865 1.327 . S
C863 C869 1.429 . S
C864 C856 1.574 . S
C864 H859 0.949 . S
C864 C870 1.368 . S
C865 C849 1.349 . S
C865 H857 0.950 . S
C865 C863 1.327 . S
C866 C854 1.349 . S
C866 H860 0.950 . S
C866 C867 1.327 . S
C867 H861 0.950 . S
C867 C866 1.327 . S
C867 C871 1.429 . S
C868 C851 1.574 . S
C868 H862 0.949 . S
C868 C872 1.368 . S
C869 C850 1.429 . S
C869 C863 1.429 . S
C869 C870 1.523 . S
C870 C851 1.368 . S
C870 C864 1.368 . S
C870 C869 1.523 . S
C871 C855 1.429 . S
C871 C867 1.429 . S
C871 C872 1.523 . S
C872 C856 1.368 . S
C872 C868 1.368 . S
C872 C871 1.523 . S
H873 C848 0.950 . S
H874 C850 0.950 . S
H875 C851 0.949 . S
H876 C853 0.950 . S
H877 C855 0.950 . S
C878 C879 1.349 . S
C878 C880 1.327 . S
C878 H903 0.950 . S
C879 C878 1.349 . S
C879 C895 1.349 . S
C880 C878 1.327 . S
C880 C899 1.429 . S
C880 H904 0.950 . S
C881 C898 1.574 . S
C881 C900 1.368 . S
C881 H905 0.949 . S
H882 C886 0.949 . S
C883 C884 1.349 . S
C883 C885 1.327 . S
C883 H906 0.950 . S
C884 C883 1.349 . S
C884 C896 1.349 . S
C885 C883 1.327 . S
C885 C901 1.429 . S
C885 H907 0.950 . S
C886 H882 0.949 . S
C886 C894 1.574 . S
C886 C902 1.368 . S
H887 C895 0.950 . S
H888 C893 0.950 . S
H889 C894 0.949 . S
H890 C896 0.950 . S
H891 C897 0.950 . S
H892 C898 0.949 . S
C893 H888 0.950 . S
C893 C895 1.327 . S
C893 C899 1.429 . S
C894 C886 1.574 . S
C894 H889 0.949 . S
C894 C900 1.368 . S
C895 C879 1.349 . S
C895 H887 0.950 . S
C895 C893 1.327 . S
C896 C884 1.349 . S
C896 H890 0.950 . S
C896 C897 1.327 . S
C897 H891 0.950 . S
C897 C896 1.327 . S
C897 C901 1.429 . S
C898 C881 1.574 . S
C898 H892 0.949 . S
C898 C902 1.368 . S
C899 C880 1.429 . S
C899 C893 1.429 . S
C899 C900 1.523 . S
C900 C881 1.368 . S
C900 C894 1.368 . S
C900 C899 1.523 . S
C901 C885 1.429 . S
C901 C897 1.429 . S
C901 C902 1.523 . S
C902 C886 1.368 . S
C902 C898 1.368 . S
C902 C901 1.523 . S
H903 C878 0.950 . S
H904 C880 0.950 . S
H905 C881 0.949 . S
H906 C883 0.950 . S
H907 C885 0.950 . S
C908 C909 1.349 . S
C908 C910 1.327 . S
C908 H933 0.950 . S
C909 C908 1.349 . S
C909 C925 1.349 . S
C910 C908 1.327 . S
C910 C929 1.429 . S
C910 H934 0.950 . S
C911 C928 1.574 . S
C911 C930 1.368 . S
C911 H935 0.949 . S
H912 C916 0.949 . S
C913 C914 1.349 . S
C913 C915 1.327 . S
C913 H936 0.950 . S
C914 C913 1.349 . S
C914 C926 1.349 . S
C915 C913 1.327 . S
C915 C931 1.429 . S
C915 H937 0.950 . S
C916 H912 0.949 . S
C916 C924 1.574 . S
C916 C932 1.368 . S
H917 C925 0.950 . S
H918 C923 0.950 . S
H919 C924 0.949 . S
H920 C926 0.950 . S
H921 C927 0.950 . S
H922 C928 0.949 . S
C923 H918 0.950 . S
C923 C925 1.327 . S
C923 C929 1.429 . S
C924 C916 1.574 . S
C924 H919 0.949 . S
C924 C930 1.368 . S
C925 C909 1.349 . S
C925 H917 0.950 . S
C925 C923 1.327 . S
C926 C914 1.349 . S
C926 H920 0.950 . S
C926 C927 1.327 . S
C927 H921 0.950 . S
C927 C926 1.327 . S
C927 C931 1.429 . S
C928 C911 1.574 . S
C928 H922 0.949 . S
C928 C932 1.368 . S
C929 C910 1.429 . S
C929 C923 1.429 . S
C929 C930 1.523 . S
C930 C911 1.368 . S
C930 C924 1.368 . S
C930 C929 1.523 . S
C931 C915 1.429 . S
C931 C927 1.429 . S
C931 C932 1.523 . S
C932 C916 1.368 . S
C932 C928 1.368 . S
C932 C931 1.523 . S
H933 C908 0.950 . S
H934 C910 0.950 . S
H935 C911 0.949 . S
H936 C913 0.950 . S
H937 C915 0.950 . S
C938 C939 1.349 . S
C938 C940 1.327 . S
C938 H963 0.950 . S
C939 C938 1.349 . S
C939 C955 1.349 . S
C940 C938 1.327 . S
C940 C959 1.429 . S
C940 H964 0.950 . S
C941 C958 1.574 . S
C941 C960 1.368 . S
C941 H965 0.949 . S
H942 C946 0.949 . S
C943 C944 1.349 . S
C943 C945 1.327 . S
C943 H966 0.950 . S
C944 C943 1.349 . S
C944 C956 1.349 . S
C945 C943 1.327 . S
C945 C961 1.429 . S
C945 H967 0.950 . S
C946 H942 0.949 . S
C946 C954 1.574 . S
C946 C962 1.368 . S
H947 C955 0.950 . S
H948 C953 0.950 . S
H949 C954 0.949 . S
H950 C956 0.950 . S
H951 C957 0.950 . S
H952 C958 0.949 . S
C953 H948 0.950 . S
C953 C955 1.327 . S
C953 C959 1.429 . S
C954 C946 1.574 . S
C954 H949 0.949 . S
C954 C960 1.368 . S
C955 C939 1.349 . S
C955 H947 0.950 . S
C955 C953 1.327 . S
C956 C944 1.349 . S
C956 H950 0.950 . S
C956 C957 1.327 . S
C957 H951 0.950 . S
C957 C956 1.327 . S
C957 C961 1.429 . S
C958 C941 1.574 . S
C958 H952 0.949 . S
C958 C962 1.368 . S
C959 C940 1.429 . S
C959 C953 1.429 . S
C959 C960 1.523 . S
C960 C941 1.368 . S
C960 C954 1.368 . S
C960 C959 1.523 . S
C961 C945 1.429 . S
C961 C957 1.429 . S
C961 C962 1.523 . S
C962 C946 1.368 . S
C962 C958 1.368 . S
C962 C961 1.523 . S
H963 C938 0.950 . S
H964 C940 0.950 . S
H965 C941 0.949 . S
H966 C943 0.950 . S
H967 C945 0.950 . S
C968 C969 1.349 . S
C968 C970 1.327 . S
C968 H993 0.950 . S
C969 C968 1.349 . S
C969 C985 1.349 . S
C970 C968 1.327 . S
C970 C989 1.429 . S
C970 H994 0.950 . S
C971 C988 1.574 . S
C971 C990 1.368 . S
C971 H995 0.949 . S
H972 C976 0.949 . S
C973 C974 1.349 . S
C973 C975 1.327 . S
C973 H996 0.950 . S
C974 C973 1.349 . S
C974 C986 1.349 . S
C975 C973 1.327 . S
C975 C991 1.429 . S
C975 H997 0.950 . S
C976 H972 0.949 . S
C976 C984 1.574 . S
C976 C992 1.368 . S
H977 C985 0.950 . S
H978 C983 0.950 . S
H979 C984 0.949 . S
H980 C986 0.950 . S
H981 C987 0.950 . S
H982 C988 0.949 . S
C983 H978 0.950 . S
C983 C985 1.327 . S
C983 C989 1.429 . S
C984 C976 1.574 . S
C984 H979 0.949 . S
C984 C990 1.368 . S
C985 C969 1.349 . S
C985 H977 0.950 . S
C985 C983 1.327 . S
C986 C974 1.349 . S
C986 H980 0.950 . S
C986 C987 1.327 . S
C987 H981 0.950 . S
C987 C986 1.327 . S
C987 C991 1.429 . S
C988 C971 1.574 . S
C988 H982 0.949 . S
C988 C992 1.368 . S
C989 C970 1.429 . S
C989 C983 1.429 . S
C989 C990 1.523 . S
C990 C971 1.368 . S
C990 C984 1.368 . S
C990 C989 1.523 . S
C991 C975 1.429 . S
C991 C987 1.429 . S
C991 C992 1.523 . S
C992 C976 1.368 . S
C992 C988 1.368 . S
C992 C991 1.523 . S
H993 C968 0.950 . S
H994 C970 0.950 . S
H995 C971 0.949 . S
H996 C973 0.950 . S
H997 C975 0.950 . S
C998 C999 1.349 . S
C998 C1000 1.327 . S
C998 H1023 0.950 . S
C999 C998 1.349 . S
C999 C1015 1.349 . S
C1000 C998 1.327 . S
C1000 C1019 1.429 . S
C1000 H1024 0.950 . S
C1001 C1018 1.574 . S
C1001 C1020 1.368 . S
C1001 H1025 0.949 . S
H1002 C1006 0.949 . S
C1003 C1004 1.349 . S
C1003 C1005 1.327 . S
C1003 H1026 0.950 . S
C1004 C1003 1.349 . S
C1004 C1016 1.349 . S
C1005 C1003 1.327 . S
C1005 C1021 1.429 . S
C1005 H1027 0.950 . S
C1006 H1002 0.949 . S
C1006 C1014 1.574 . S
C1006 C1022 1.368 . S
H1007 C1015 0.950 . S
H1008 C1013 0.950 . S
H1009 C1014 0.949 . S
H1010 C1016 0.950 . S
H1011 C1017 0.950 . S
H1012 C1018 0.949 . S
C1013 H1008 0.950 . S
C1013 C1015 1.327 . S
C1013 C1019 1.429 . S
C1014 C1006 1.574 . S
C1014 H1009 0.949 . S
C1014 C1020 1.368 . S
C1015 C999 1.349 . S
C1015 H1007 0.950 . S
C1015 C1013 1.327 . S
C1016 C1004 1.349 . S
C1016 H1010 0.950 . S
C1016 C1017 1.327 . S
C1017 H1011 0.950 . S
C1017 C1016 1.327 . S
C1017 C1021 1.429 . S
C1018 C1001 1.574 . S
C1018 H1012 0.949 . S
C1018 C1022 1.368 . S
C1019 C1000 1.429 . S
C1019 C1013 1.429 . S
C1019 C1020 1.523 . S
C1020 C1001 1.368 . S
C1020 C1014 1.368 . S
C1020 C1019 1.523 . S
C1021 C1005 1.429 . S
C1021 C1017 1.429 . S
C1021 C1022 1.523 . S
C1022 C1006 1.368 . S
C1022 C1018 1.368 . S
C1022 C1021 1.523 . S
H1023 C998 0.950 . S
H1024 C1000 0.950 . S
H1025 C1001 0.949 . S
H1026 C1003 0.950 . S
H1027 C1005 0.950 . S
C1028 C1029 1.349 . S
C1028 C1030 1.327 . S
C1028 H1053 0.950 . S
C1029 C1028 1.349 . S
C1029 C1045 1.349 . S
C1030 C1028 1.327 . S
C1030 C1049 1.429 . S
C1030 H1054 0.950 . S
C1031 C1048 1.574 . S
C1031 C1050 1.368 . S
C1031 H1055 0.949 . S
H1032 C1036 0.949 . S
C1033 C1034 1.349 . S
C1033 C1035 1.327 . S
C1033 H1056 0.950 . S
C1034 C1033 1.349 . S
C1034 C1046 1.349 . S
C1035 C1033 1.327 . S
C1035 C1051 1.429 . S
C1035 H1057 0.950 . S
C1036 H1032 0.949 . S
C1036 C1044 1.574 . S
C1036 C1052 1.368 . S
H1037 C1045 0.950 . S
H1038 C1043 0.950 . S
H1039 C1044 0.949 . S
H1040 C1046 0.950 . S
H1041 C1047 0.950 . S
H1042 C1048 0.949 . S
C1043 H1038 0.950 . S
C1043 C1045 1.327 . S
C1043 C1049 1.429 . S
C1044 C1036 1.574 . S
C1044 H1039 0.949 . S
C1044 C1050 1.368 . S
C1045 C1029 1.349 . S
C1045 H1037 0.950 . S
C1045 C1043 1.327 . S
C1046 C1034 1.349 . S
C1046 H1040 0.950 . S
C1046 C1047 1.327 . S
C1047 H1041 0.950 . S
C1047 C1046 1.327 . S
C1047 C1051 1.429 . S
C1048 C1031 1.574 . S
C1048 H1042 0.949 . S
C1048 C1052 1.368 . S
C1049 C1030 1.429 . S
C1049 C1043 1.429 . S
C1049 C1050 1.523 . S
C1050 C1031 1.368 . S
C1050 C1044 1.368 . S
C1050 C1049 1.523 . S
C1051 C1035 1.429 . S
C1051 C1047 1.429 . S
C1051 C1052 1.523 . S
C1052 C1036 1.368 . S
C1052 C1048 1.368 . S
C1052 C1051 1.523 . S
H1053 C1028 0.950 . S
H1054 C1030 0.950 . S
H1055 C1031 0.949 . S
H1056 C1033 0.950 . S
H1057 C1035 0.950 . S
C1058 C1059 1.349 . S
C1058 C1060 1.327 . S
C1058 H1083 0.950 . S
C1059 C1058 1.349 . S
C1059 C1075 1.349 . S
C1060 C1058 1.327 . S
C1060 C1079 1.429 . S
C1060 H1084 0.950 . S
C1061 C1078 1.574 . S
C1061 C1080 1.368 . S
C1061 H1085 0.949 . S
H1062 C1066 0.949 . S
C1063 C1064 1.349 . S
C1063 C1065 1.327 . S
C1063 H1086 0.950 . S
C1064 C1063 1.349 . S
C1064 C1076 1.349 . S
C1065 C1063 1.327 . S
C1065 C1081 1.429 . S
C1065 H1087 0.950 . S
C1066 H1062 0.949 . S
C1066 C1074 1.574 . S
C1066 C1082 1.368 . S
H1067 C1075 0.950 . S
H1068 C1073 0.950 . S
H1069 C1074 0.949 . S
H1070 C1076 0.950 . S
H1071 C1077 0.950 . S
H1072 C1078 0.949 . S
C1073 H1068 0.950 . S
C1073 C1075 1.327 . S
C1073 C1079 1.429 . S
C1074 C1066 1.574 . S
C1074 H1069 0.949 . S
C1074 C1080 1.368 . S
C1075 C1059 1.349 . S
C1075 H1067 0.950 . S
C1075 C1073 1.327 . S
C1076 C1064 1.349 . S
C1076 H1070 0.950 . S
C1076 C1077 1.327 . S
C1077 H1071 0.950 . S
C1077 C1076 1.327 . S
C1077 C1081 1.429 . S
C1078 C1061 1.574 . S
C1078 H1072 0.949 . S
C1078 C1082 1.368 . S
C1079 C1060 1.429 . S
C1079 C1073 1.429 . S
C1079 C1080 1.523 . S
C1080 C1061 1.368 . S
C1080 C1074 1.368 . S
C1080 C1079 1.523 . S
C1081 C1065 1.429 . S
C1081 C1077 1.429 . S
C1081 C1082 1.523 . S
C1082 C1066 1.368 . S
C1082 C1078 1.368 . S
C1082 C1081 1.523 . S
H1083 C1058 0.950 . S
H1084 C1060 0.950 . S
H1085 C1061 0.949 . S
H1086 C1063 0.950 . S
H1087 C1065 0.950 . S
C1088 C1089 1.349 . S
C1088 C1090 1.327 . S
C1088 H1113 0.950 . S
C1089 C1088 1.349 . S
C1089 C1105 1.349 . S
C1090 C1088 1.327 . S
C1090 C1109 1.429 . S
C1090 H1114 0.950 . S
C1091 C1108 1.574 . S
C1091 C1110 1.368 . S
C1091 H1115 0.949 . S
H1092 C1096 0.949 . S
C1093 C1094 1.349 . S
C1093 C1095 1.327 . S
C1093 H1116 0.950 . S
C1094 C1093 1.349 . S
C1094 C1106 1.349 . S
C1095 C1093 1.327 . S
C1095 C1111 1.429 . S
C1095 H1117 0.950 . S
C1096 H1092 0.949 . S
C1096 C1104 1.574 . S
C1096 C1112 1.368 . S
H1097 C1105 0.950 . S
H1098 C1103 0.950 . S
H1099 C1104 0.949 . S
H1100 C1106 0.950 . S
H1101 C1107 0.950 . S
H1102 C1108 0.949 . S
C1103 H1098 0.950 . S
C1103 C1105 1.327 . S
C1103 C1109 1.429 . S
C1104 C1096 1.574 . S
C1104 H1099 0.949 . S
C1104 C1110 1.368 . S
C1105 C1089 1.349 . S
C1105 H1097 0.950 . S
C1105 C1103 1.327 . S
C1106 C1094 1.349 . S
C1106 H1100 0.950 . S
C1106 C1107 1.327 . S
C1107 H1101 0.950 . S
C1107 C1106 1.327 . S
C1107 C1111 1.429 . S
C1108 C1091 1.574 . S
C1108 H1102 0.949 . S
C1108 C1112 1.368 . S
C1109 C1090 1.429 . S
C1109 C1103 1.429 . S
C1109 C1110 1.523 . S
C1110 C1091 1.368 . S
C1110 C1104 1.368 . S
C1110 C1109 1.523 . S
C1111 C1095 1.429 . S
C1111 C1107 1.429 . S
C1111 C1112 1.523 . S
C1112 C1096 1.368 . S
C1112 C1108 1.368 . S
C1112 C1111 1.523 . S
H1113 C1088 0.950 . S
H1114 C1090 0.950 . S
H1115 C1091 0.949 . S
H1116 C1093 0.950 . S
H1117 C1095 0.950 . S
C1118 C1119 1.349 . S
C1118 C1120 1.327 . S
C1118 H1143 0.950 . S
C1119 C1118 1.349 . S
C1119 C1135 1.349 . S
C1120 C1118 1.327 . S
C1120 C1139 1.429 . S
C1120 H1144 0.950 . S
C1121 C1138 1.574 . S
C1121 C1140 1.368 . S
C1121 H1145 0.949 . S
H1122 C1126 0.949 . S
C1123 C1124 1.349 . S
C1123 C1125 1.327 . S
C1123 H1146 0.950 . S
C1124 C1123 1.349 . S
C1124 C1136 1.349 . S
C1125 C1123 1.327 . S
C1125 C1141 1.429 . S
C1125 H1147 0.950 . S
C1126 H1122 0.949 . S
C1126 C1134 1.574 . S
C1126 C1142 1.368 . S
H1127 C1135 0.950 . S
H1128 C1133 0.950 . S
H1129 C1134 0.949 . S
H1130 C1136 0.950 . S
H1131 C1137 0.950 . S
H1132 C1138 0.949 . S
C1133 H1128 0.950 . S
C1133 C1135 1.327 . S
C1133 C1139 1.429 . S
C1134 C1126 1.574 . S
C1134 H1129 0.949 . S
C1134 C1140 1.368 . S
C1135 C1119 1.349 . S
C1135 H1127 0.950 . S
C1135 C1133 1.327 . S
C1136 C1124 1.349 . S
C1136 H1130 0.950 . S
C1136 C1137 1.327 . S
C1137 H1131 0.950 . S
C1137 C1136 1.327 . S
C1137 C1141 1.429 . S
C1138 C1121 1.574 . S
C1138 H1132 0.949 . S
C1138 C1142 1.368 . S
C1139 C1120 1.429 . S
C1139 C1133 1.429 . S
C1139 C1140 1.523 . S
C1140 C1121 1.368 . S
C1140 C1134 1.368 . S
C1140 C1139 1.523 . S
C1141 C1125 1.429 . S
C1141 C1137 1.429 . S
C1141 C1142 1.523 . S
C1142 C1126 1.368 . S
C1142 C1138 1.368 . S
C1142 C1141 1.523 . S
H1143 C1118 0.950 . S
H1144 C1120 0.950 . S
H1145 C1121 0.949 . S
H1146 C1123 0.950 . S
H1147 C1125 0.950 . S
C1148 C1149 1.349 . S
C1148 C1150 1.327 . S
C1148 H1173 0.950 . S
C1149 C1148 1.349 . S
C1149 C1165 1.349 . S
C1150 C1148 1.327 . S
C1150 C1169 1.429 . S
C1150 H1174 0.950 . S
C1151 C1168 1.574 . S
C1151 C1170 1.368 . S
C1151 H1175 0.949 . S
H1152 C1156 0.949 . S
C1153 C1154 1.349 . S
C1153 C1155 1.327 . S
C1153 H1176 0.950 . S
C1154 C1153 1.349 . S
C1154 C1166 1.349 . S
C1155 C1153 1.327 . S
C1155 C1171 1.429 . S
C1155 H1177 0.950 . S
C1156 H1152 0.949 . S
C1156 C1164 1.574 . S
C1156 C1172 1.368 . S
H1157 C1165 0.950 . S
H1158 C1163 0.950 . S
H1159 C1164 0.949 . S
H1160 C1166 0.950 . S
H1161 C1167 0.950 . S
H1162 C1168 0.949 . S
C1163 H1158 0.950 . S
C1163 C1165 1.327 . S
C1163 C1169 1.429 . S
C1164 C1156 1.574 . S
C1164 H1159 0.949 . S
C1164 C1170 1.368 . S
C1165 C1149 1.349 . S
C1165 H1157 0.950 . S
C1165 C1163 1.327 . S
C1166 C1154 1.349 . S
C1166 H1160 0.950 . S
C1166 C1167 1.327 . S
C1167 H1161 0.950 . S
C1167 C1166 1.327 . S
C1167 C1171 1.429 . S
C1168 C1151 1.574 . S
C1168 H1162 0.949 . S
C1168 C1172 1.368 . S
C1169 C1150 1.429 . S
C1169 C1163 1.429 . S
C1169 C1170 1.523 . S
C1170 C1151 1.368 . S
C1170 C1164 1.368 . S
C1170 C1169 1.523 . S
C1171 C1155 1.429 . S
C1171 C1167 1.429 . S
C1171 C1172 1.523 . S
C1172 C1156 1.368 . S
C1172 C1168 1.368 . S
C1172 C1171 1.523 . S
H1173 C1148 0.950 . S
H1174 C1150 0.950 . S
H1175 C1151 0.949 . S
H1176 C1153 0.950 . S
H1177 C1155 0.950 . S
C1178 C1179 1.349 . S
C1178 C1180 1.327 . S
C1178 H1203 0.950 . S
C1179 C1178 1.349 . S
C1179 C1195 1.349 . S
C1180 C1178 1.327 . S
C1180 C1199 1.429 . S
C1180 H1204 0.950 . S
C1181 C1198 1.574 . S
C1181 C1200 1.368 . S
C1181 H1205 0.949 . S
H1182 C1186 0.949 . S
C1183 C1184 1.349 . S
C1183 C1185 1.327 . S
C1183 H1206 0.950 . S
C1184 C1183 1.349 . S
C1184 C1196 1.349 . S
C1185 C1183 1.327 . S
C1185 C1201 1.429 . S
C1185 H1207 0.950 . S
C1186 H1182 0.949 . S
C1186 C1194 1.574 . S
C1186 C1202 1.368 . S
H1187 C1195 0.950 . S
H1188 C1193 0.950 . S
H1189 C1194 0.949 . S
H1190 C1196 0.950 . S
H1191 C1197 0.950 . S
H1192 C1198 0.949 . S
C1193 H1188 0.950 . S
C1193 C1195 1.327 . S
C1193 C1199 1.429 . S
C1194 C1186 1.574 . S
C1194 H1189 0.949 . S
C1194 C1200 1.368 . S
C1195 C1179 1.349 . S
C1195 H1187 0.950 . S
C1195 C1193 1.327 . S
C1196 C1184 1.349 . S
C1196 H1190 0.950 . S
C1196 C1197 1.327 . S
C1197 H1191 0.950 . S
C1197 C1196 1.327 . S
C1197 C1201 1.429 . S
C1198 C1181 1.574 . S
C1198 H1192 0.949 . S
C1198 C1202 1.368 . S
C1199 C1180 1.429 . S
C1199 C1193 1.429 . S
C1199 C1200 1.523 . S
C1200 C1181 1.368 . S
C1200 C1194 1.368 . S
C1200 C1199 1.523 . S
C1201 C1185 1.429 . S
C1201 C1197 1.429 . S
C1201 C1202 1.523 . S
C1202 C1186 1.368 . S
C1202 C1198 1.368 . S
C1202 C1201 1.523 . S
H1203 C1178 0.950 . S
H1204 C1180 0.950 . S
H1205 C1181 0.949 . S
H1206 C1183 0.950 . S
H1207 C1185 0.950 . S
C1208 C1209 1.349 . S
C1208 C1210 1.327 . S
C1208 H1233 0.950 . S
C1209 C1208 1.349 . S
C1209 C1225 1.349 . S
C1210 C1208 1.327 . S
C1210 C1229 1.429 . S
C1210 H1234 0.950 . S
C1211 C1228 1.574 . S
C1211 C1230 1.368 . S
C1211 H1235 0.949 . S
H1212 C1216 0.949 . S
C1213 C1214 1.349 . S
C1213 C1215 1.327 . S
C1213 H1236 0.950 . S
C1214 C1213 1.349 . S
C1214 C1226 1.349 . S
C1215 C1213 1.327 . S
C1215 C1231 1.429 . S
C1215 H1237 0.950 . S
C1216 H1212 0.949 . S
C1216 C1224 1.574 . S
C1216 C1232 1.368 . S
H1217 C1225 0.950 . S
H1218 C1223 0.950 . S
H1219 C1224 0.949 . S
H1220 C1226 0.950 . S
H1221 C1227 0.950 . S
H1222 C1228 0.949 . S
C1223 H1218 0.950 . S
C1223 C1225 1.327 . S
C1223 C1229 1.429 . S
C1224 C1216 1.574 . S
C1224 H1219 0.949 . S
C1224 C1230 1.368 . S
C1225 C1209 1.349 . S
C1225 H1217 0.950 . S
C1225 C1223 1.327 . S
C1226 C1214 1.349 . S
C1226 H1220 0.950 . S
C1226 C1227 1.327 . S
C1227 H1221 0.950 . S
C1227 C1226 1.327 . S
C1227 C1231 1.429 . S
C1228 C1211 1.574 . S
C1228 H1222 0.949 . S
C1228 C1232 1.368 . S
C1229 C1210 1.429 . S
C1229 C1223 1.429 . S
C1229 C1230 1.523 . S
C1230 C1211 1.368 . S
C1230 C1224 1.368 . S
C1230 C1229 1.523 . S
C1231 C1215 1.429 . S
C1231 C1227 1.429 . S
C1231 C1232 1.523 . S
C1232 C1216 1.368 . S
C1232 C1228 1.368 . S
C1232 C1231 1.523 . S
H1233 C1208 0.950 . S
H1234 C1210 0.950 . S
H1235 C1211 0.949 . S
H1236 C1213 0.950 . S
H1237 C1215 0.950 . S
C1238 C1239 1.349 . S
C1238 C1240 1.327 . S
C1238 H1263 0.950 . S
C1239 C1238 1.349 . S
C1239 C1255 1.349 . S
C1240 C1238 1.327 . S
C1240 C1259 1.429 . S
C1240 H1264 0.950 . S
C1241 C1258 1.574 . S
C1241 C1260 1.368 . S
C1241 H1265 0.949 . S
H1242 C1246 0.949 . S
C1243 C1244 1.349 . S
C1243 C1245 1.327 . S
C1243 H1266 0.950 . S
C1244 C1243 1.349 . S
C1244 C1256 1.349 . S
C1245 C1243 1.327 . S
C1245 C1261 1.429 . S
C1245 H1267 0.950 . S
C1246 H1242 0.949 . S
C1246 C1254 1.574 . S
C1246 C1262 1.368 . S
H1247 C1255 0.950 . S
H1248 C1253 0.950 . S
H1249 C1254 0.949 . S
H1250 C1256 0.950 . S
H1251 C1257 0.950 . S
H1252 C1258 0.949 . S
C1253 H1248 0.950 . S
C1253 C1255 1.327 . S
C1253 C1259 1.429 . S
C1254 C1246 1.574 . S
C1254 H1249 0.949 . S
C1254 C1260 1.368 . S
C1255 C1239 1.349 . S
C1255 H1247 0.950 . S
C1255 C1253 1.327 . S
C1256 C1244 1.349 . S
C1256 H1250 0.950 . S
C1256 C1257 1.327 . S
C1257 H1251 0.950 . S
C1257 C1256 1.327 . S
C1257 C1261 1.429 . S
C1258 C1241 1.574 . S
C1258 H1252 0.949 . S
C1258 C1262 1.368 . S
C1259 C1240 1.429 . S
C1259 C1253 1.429 . S
C1259 C1260 1.523 . S
C1260 C1241 1.368 . S
C1260 C1254 1.368 . S
C1260 C1259 1.523 . S
C1261 C1245 1.429 . S
C1261 C1257 1.429 . S
C1261 C1262 1.523 . S
C1262 C1246 1.368 . S
C1262 C1258 1.368 . S
C1262 C1261 1.523 . S
H1263 C1238 0.950 . S
H1264 C1240 0.950 . S
H1265 C1241 0.949 . S
H1266 C1243 0.950 . S
H1267 C1245 0.950 . S
C1268 C1269 1.349 . S
C1268 C1270 1.327 . S
C1268 H1293 0.950 . S
C1269 C1268 1.349 . S
C1269 C1285 1.349 . S
C1270 C1268 1.327 . S
C1270 C1289 1.429 . S
C1270 H1294 0.950 . S
C1271 C1288 1.574 . S
C1271 C1290 1.368 . S
C1271 H1295 0.949 . S
H1272 C1276 0.949 . S
C1273 C1274 1.349 . S
C1273 C1275 1.327 . S
C1273 H1296 0.950 . S
C1274 C1273 1.349 . S
C1274 C1286 1.349 . S
C1275 C1273 1.327 . S
C1275 C1291 1.429 . S
C1275 H1297 0.950 . S
C1276 H1272 0.949 . S
C1276 C1284 1.574 . S
C1276 C1292 1.368 . S
H1277 C1285 0.950 . S
H1278 C1283 0.950 . S
H1279 C1284 0.949 . S
H1280 C1286 0.950 . S
H1281 C1287 0.950 . S
H1282 C1288 0.949 . S
C1283 H1278 0.950 . S
C1283 C1285 1.327 . S
C1283 C1289 1.429 . S
C1284 C1276 1.574 . S
C1284 H1279 0.949 . S
C1284 C1290 1.368 . S
C1285 C1269 1.349 . S
C1285 H1277 0.950 . S
C1285 C1283 1.327 . S
C1286 C1274 1.349 . S
C1286 H1280 0.950 . S
C1286 C1287 1.327 . S
C1287 H1281 0.950 . S
C1287 C1286 1.327 . S
C1287 C1291 1.429 . S
C1288 C1271 1.574 . S
C1288 H1282 0.949 . S
C1288 C1292 1.368 . S
C1289 C1270 1.429 . S
C1289 C1283 1.429 . S
C1289 C1290 1.523 . S
C1290 C1271 1.368 . S
C1290 C1284 1.368 . S
C1290 C1289 1.523 . S
C1291 C1275 1.429 . S
C1291 C1287 1.429 . S
C1291 C1292 1.523 . S
C1292 C1276 1.368 . S
C1292 C1288 1.368 . S
C1292 C1291 1.523 . S
H1293 C1268 0.950 . S
H1294 C1270 0.950 . S
H1295 C1271 0.949 . S
H1296 C1273 0.950 . S
H1297 C1275 0.950 . S
C1298 C1299 1.349 . S
C1298 C1300 1.327 . S
C1298 H1323 0.950 . S
C1299 C1298 1.349 . S
C1299 C1315 1.349 . S
C1300 C1298 1.327 . S
C1300 C1319 1.429 . S
C1300 H1324 0.950 . S
C1301 C1318 1.574 . S
C1301 C1320 1.368 . S
C1301 H1325 0.949 . S
H1302 C1306 0.949 . S
C1303 C1304 1.349 . S
C1303 C1305 1.327 . S
C1303 H1326 0.950 . S
C1304 C1303 1.349 . S
C1304 C1316 1.349 . S
C1305 C1303 1.327 . S
C1305 C1321 1.429 . S
C1305 H1327 0.950 . S
C1306 H1302 0.949 . S
C1306 C1314 1.574 . S
C1306 C1322 1.368 . S
H1307 C1315 0.950 . S
H1308 C1313 0.950 . S
H1309 C1314 0.949 . S
H1310 C1316 0.950 . S
H1311 C1317 0.950 . S
H1312 C1318 0.949 . S
C1313 H1308 0.950 . S
C1313 C1315 1.327 . S
C1313 C1319 1.429 . S
C1314 C1306 1.574 . S
C1314 H1309 0.949 . S
C1314 C1320 1.368 . S
C1315 C1299 1.349 . S
C1315 H1307 0.950 . S
C1315 C1313 1.327 . S
C1316 C1304 1.349 . S
C1316 H1310 0.950 . S
C1316 C1317 1.327 . S
C1317 H1311 0.950 . S
C1317 C1316 1.327 . S
C1317 C1321 1.429 . S
C1318 C1301 1.574 . S
C1318 H1312 0.949 . S
C1318 C1322 1.368 . S
C1319 C1300 1.429 . S
C1319 C1313 1.429 . S
C1319 C1320 1.523 . S
C1320 C1301 1.368 . S
C1320 C1314 1.368 . S
C1320 C1319 1.523 . S
C1321 C1305 1.429 . S
C1321 C1317 1.429 . S
C1321 C1322 1.523 . S
C1322 C1306 1.368 . S
C1322 C1318 1.368 . S
C1322 C1321 1.523 . S
H1323 C1298 0.950 . S
H1324 C1300 0.950 . S
H1325 C1301 0.949 . S
H1326 C1303 0.950 . S
H1327 C1305 0.950 . S
C1328 C1329 1.349 . S
C1328 C1330 1.327 . S
C1328 H1353 0.950 . S
C1329 C1328 1.349 . S
C1329 C1345 1.349 . S
C1330 C1328 1.327 . S
C1330 C1349 1.429 . S
C1330 H1354 0.950 . S
C1331 C1348 1.574 . S
C1331 C1350 1.368 . S
C1331 H1355 0.949 . S
H1332 C1336 0.949 . S
C1333 C1334 1.349 . S
C1333 C1335 1.327 . S
C1333 H1356 0.950 . S
C1334 C1333 1.349 . S
C1334 C1346 1.349 . S
C1335 C1333 1.327 . S
C1335 C1351 1.429 . S
C1335 H1357 0.950 . S
C1336 H1332 0.949 . S
C1336 C1344 1.574 . S
C1336 C1352 1.368 . S
H1337 C1345 0.950 . S
H1338 C1343 0.950 . S
H1339 C1344 0.949 . S
H1340 C1346 0.950 . S
H1341 C1347 0.950 . S
H1342 C1348 0.949 . S
C1343 H1338 0.950 . S
C1343 C1345 1.327 . S
C1343 C1349 1.429 . S
C1344 C1336 1.574 . S
C1344 H1339 0.949 . S
C1344 C1350 1.368 . S
C1345 C1329 1.349 . S
C1345 H1337 0.950 . S
C1345 C1343 1.327 . S
C1346 C1334 1.349 . S
C1346 H1340 0.950 . S
C1346 C1347 1.327 . S
C1347 H1341 0.950 . S
C1347 C1346 1.327 . S
C1347 C1351 1.429 . S
C1348 C1331 1.574 . S
C1348 H1342 0.949 . S
C1348 C1352 1.368 . S
C1349 C1330 1.429 . S
C1349 C1343 1.429 . S
C1349 C1350 1.523 . S
C1350 C1331 1.368 . S
C1350 C1344 1.368 . S
C1350 C1349 1.523 . S
C1351 C1335 1.429 . S
C1351 C1347 1.429 . S
C1351 C1352 1.523 . S
C1352 C1336 1.368 . S
C1352 C1348 1.368 . S
C1352 C1351 1.523 . S
H1353 C1328 0.950 . S
H1354 C1330 0.950 . S
H1355 C1331 0.949 . S
H1356 C1333 0.950 . S
H1357 C1335 0.950 . S
C1358 C1359 1.349 . S
C1358 C1360 1.327 . S
C1358 H1383 0.950 . S
C1359 C1358 1.349 . S
C1359 C1375 1.349 . S
C1360 C1358 1.327 . S
C1360 C1379 1.429 . S
C1360 H1384 0.950 . S
C1361 C1378 1.574 . S
C1361 C1380 1.368 . S
C1361 H1385 0.949 . S
H1362 C1366 0.949 . S
C1363 C1364 1.349 . S
C1363 C1365 1.327 . S
C1363 H1386 0.950 . S
C1364 C1363 1.349 . S
C1364 C1376 1.349 . S
C1365 C1363 1.327 . S
C1365 C1381 1.429 . S
C1365 H1387 0.950 . S
C1366 H1362 0.949 . S
C1366 C1374 1.574 . S
C1366 C1382 1.368 . S
H1367 C1375 0.950 . S
H1368 C1373 0.950 . S
H1369 C1374 0.949 . S
H1370 C1376 0.950 . S
H1371 C1377 0.950 . S
H1372 C1378 0.949 . S
C1373 H1368 0.950 . S
C1373 C1375 1.327 . S
C1373 C1379 1.429 . S
C1374 C1366 1.574 . S
C1374 H1369 0.949 . S
C1374 C1380 1.368 . S
C1375 C1359 1.349 . S
C1375 H1367 0.950 . S
C1375 C1373 1.327 . S
C1376 C1364 1.349 . S
C1376 H1370 0.950 . S
C1376 C1377 1.327 . S
C1377 H1371 0.950 . S
C1377 C1376 1.327 . S
C1377 C1381 1.429 . S
C1378 C1361 1.574 . S
C1378 H1372 0.949 . S
C1378 C1382 1.368 . S
C1379 C1360 1.429 . S
C1379 C1373 1.429 . S
C1379 C1380 1.523 . S
C1380 C1361 1.368 . S
C1380 C1374 1.368 . S
C1380 C1379 1.523 . S
C1381 C1365 1.429 . S
C1381 C1377 1.429 . S
C1381 C1382 1.523 . S
C1382 C1366 1.368 . S
C1382 C1378 1.368 . S
C1382 C1381 1.523 . S
H1383 C1358 0.950 . S
H1384 C1360 0.950 . S
H1385 C1361 0.949 . S
H1386 C1363 0.950 . S
H1387 C1365 0.950 . S
C1388 C1389 1.349 . S
C1388 C1390 1.327 . S
C1388 H1413 0.950 . S
C1389 C1388 1.349 . S
C1389 C1405 1.349 . S
C1390 C1388 1.327 . S
C1390 C1409 1.429 . S
C1390 H1414 0.950 . S
C1391 C1408 1.574 . S
C1391 C1410 1.368 . S
C1391 H1415 0.949 . S
H1392 C1396 0.949 . S
C1393 C1394 1.349 . S
C1393 C1395 1.327 . S
C1393 H1416 0.950 . S
C1394 C1393 1.349 . S
C1394 C1406 1.349 . S
C1395 C1393 1.327 . S
C1395 C1411 1.429 . S
C1395 H1417 0.950 . S
C1396 H1392 0.949 . S
C1396 C1404 1.574 . S
C1396 C1412 1.368 . S
H1397 C1405 0.950 . S
H1398 C1403 0.950 . S
H1399 C1404 0.949 . S
H1400 C1406 0.950 . S
H1401 C1407 0.950 . S
H1402 C1408 0.949 . S
C1403 H1398 0.950 . S
C1403 C1405 1.327 . S
C1403 C1409 1.429 . S
C1404 C1396 1.574 . S
C1404 H1399 0.949 . S
C1404 C1410 1.368 . S
C1405 C1389 1.349 . S
C1405 H1397 0.950 . S
C1405 C1403 1.327 . S
C1406 C1394 1.349 . S
C1406 H1400 0.950 . S
C1406 C1407 1.327 . S
C1407 H1401 0.950 . S
C1407 C1406 1.327 . S
C1407 C1411 1.429 . S
C1408 C1391 1.574 . S
C1408 H1402 0.949 . S
C1408 C1412 1.368 . S
C1409 C1390 1.429 . S
C1409 C1403 1.429 . S
C1409 C1410 1.523 . S
C1410 C1391 1.368 . S
C1410 C1404 1.368 . S
C1410 C1409 1.523 . S
C1411 C1395 1.429 . S
C1411 C1407 1.429 . S
C1411 C1412 1.523 . S
C1412 C1396 1.368 . S
C1412 C1408 1.368 . S
C1412 C1411 1.523 . S
H1413 C1388 0.950 . S
H1414 C1390 0.950 . S
H1415 C1391 0.949 . S
H1416 C1393 0.950 . S
H1417 C1395 0.950 . S
C1418 C1419 1.349 . S
C1418 C1420 1.327 . S
C1418 H1443 0.950 . S
C1419 C1418 1.349 . S
C1419 C1435 1.349 . S
C1420 C1418 1.327 . S
C1420 C1439 1.429 . S
C1420 H1444 0.950 . S
C1421 C1438 1.574 . S
C1421 C1440 1.368 . S
C1421 H1445 0.949 . S
H1422 C1426 0.949 . S
C1423 C1424 1.349 . S
C1423 C1425 1.327 . S
C1423 H1446 0.950 . S
C1424 C1423 1.349 . S
C1424 C1436 1.349 . S
C1425 C1423 1.327 . S
C1425 C1441 1.429 . S
C1425 H1447 0.950 . S
C1426 H1422 0.949 . S
C1426 C1434 1.574 . S
C1426 C1442 1.368 . S
H1427 C1435 0.950 . S
H1428 C1433 0.950 . S
H1429 C1434 0.949 . S
H1430 C1436 0.950 . S
H1431 C1437 0.950 . S
H1432 C1438 0.949 . S
C1433 H1428 0.950 . S
C1433 C1435 1.327 . S
C1433 C1439 1.429 . S
C1434 C1426 1.574 . S
C1434 H1429 0.949 . S
C1434 C1440 1.368 . S
C1435 C1419 1.349 . S
C1435 H1427 0.950 . S
C1435 C1433 1.327 . S
C1436 C1424 1.349 . S
C1436 H1430 0.950 . S
C1436 C1437 1.327 . S
C1437 H1431 0.950 . S
C1437 C1436 1.327 . S
C1437 C1441 1.429 . S
C1438 C1421 1.574 . S
C1438 H1432 0.949 . S
C1438 C1442 1.368 . S
C1439 C1420 1.429 . S
C1439 C1433 1.429 . S
C1439 C1440 1.523 . S
C1440 C1421 1.368 . S
C1440 C1434 1.368 . S
C1440 C1439 1.523 . S
C1441 C1425 1.429 . S
C1441 C1437 1.429 . S
C1441 C1442 1.523 . S
C1442 C1426 1.368 . S
C1442 C1438 1.368 . S
C1442 C1441 1.523 . S
H1443 C1418 0.950 . S
H1444 C1420 0.950 . S
H1445 C1421 0.949 . S
H1446 C1423 0.950 . S
H1447 C1425 0.950 . S
C1448 C1449 1.349 . S
C1448 C1450 1.327 . S
C1448 H1473 0.950 . S
C1449 C1448 1.349 . S
C1449 C1465 1.349 . S
C1450 C1448 1.327 . S
C1450 C1469 1.429 . S
C1450 H1474 0.950 . S
C1451 C1468 1.574 . S
C1451 C1470 1.368 . S
C1451 H1475 0.949 . S
H1452 C1456 0.949 . S
C1453 C1454 1.349 . S
C1453 C1455 1.327 . S
C1453 H1476 0.950 . S
C1454 C1453 1.349 . S
C1454 C1466 1.349 . S
C1455 C1453 1.327 . S
C1455 C1471 1.429 . S
C1455 H1477 0.950 . S
C1456 H1452 0.949 . S
C1456 C1464 1.574 . S
C1456 C1472 1.368 . S
H1457 C1465 0.950 . S
H1458 C1463 0.950 . S
H1459 C1464 0.949 . S
H1460 C1466 0.950 . S
H1461 C1467 0.950 . S
H1462 C1468 0.949 . S
C1463 H1458 0.950 . S
C1463 C1465 1.327 . S
C1463 C1469 1.429 . S
C1464 C1456 1.574 . S
C1464 H1459 0.949 . S
C1464 C1470 1.368 . S
C1465 C1449 1.349 . S
C1465 H1457 0.950 . S
C1465 C1463 1.327 . S
C1466 C1454 1.349 . S
C1466 H1460 0.950 . S
C1466 C1467 1.327 . S
C1467 H1461 0.950 . S
C1467 C1466 1.327 . S
C1467 C1471 1.429 . S
C1468 C1451 1.574 . S
C1468 H1462 0.949 . S
C1468 C1472 1.368 . S
C1469 C1450 1.429 . S
C1469 C1463 1.429 . S
C1469 C1470 1.523 . S
C1470 C1451 1.368 . S
C1470 C1464 1.368 . S
C1470 C1469 1.523 . S
C1471 C1455 1.429 . S
C1471 C1467 1.429 . S
C1471 C1472 1.523 . S
C1472 C1456 1.368 . S
C1472 C1468 1.368 . S
C1472 C1471 1.523 . S
H1473 C1448 0.950 . S
H1474 C1450 0.950 . S
H1475 C1451 0.949 . S
H1476 C1453 0.950 . S
H1477 C1455 0.950 . S
C1478 C1479 1.349 . S
C1478 C1480 1.327 . S
C1478 H1503 0.950 . S
C1479 C1478 1.349 . S
C1479 C1495 1.349 . S
C1480 C1478 1.327 . S
C1480 C1499 1.429 . S
C1480 H1504 0.950 . S
C1481 C1498 1.574 . S
C1481 C1500 1.368 . S
C1481 H1505 0.949 . S
H1482 C1486 0.949 . S
C1483 C1484 1.349 . S
C1483 C1485 1.327 . S
C1483 H1506 0.950 . S
C1484 C1483 1.349 . S
C1484 C1496 1.349 . S
C1485 C1483 1.327 . S
C1485 C1501 1.429 . S
C1485 H1507 0.950 . S
C1486 H1482 0.949 . S
C1486 C1494 1.574 . S
C1486 C1502 1.368 . S
H1487 C1495 0.950 . S
H1488 C1493 0.950 . S
H1489 C1494 0.949 . S
H1490 C1496 0.950 . S
H1491 C1497 0.950 . S
H1492 C1498 0.949 . S
C1493 H1488 0.950 . S
C1493 C1495 1.327 . S
C1493 C1499 1.429 . S
C1494 C1486 1.574 . S
C1494 H1489 0.949 . S
C1494 C1500 1.368 . S
C1495 C1479 1.349 . S
C1495 H1487 0.950 . S
C1495 C1493 1.327 . S
C1496 C1484 1.349 . S
C1496 H1490 0.950 . S
C1496 C1497 1.327 . S
C1497 H1491 0.950 . S
C1497 C1496 1.327 . S
C1497 C1501 1.429 . S
C1498 C1481 1.574 . S
C1498 H1492 0.949 . S
C1498 C1502 1.368 . S
C1499 C1480 1.429 . S
C1499 C1493 1.429 . S
C1499 C1500 1.523 . S
C1500 C1481 1.368 . S
C1500 C1494 1.368 . S
C1500 C1499 1.523 . S
C1501 C1485 1.429 . S
C1501 C1497 1.429 . S
C1501 C1502 1.523 . S
C1502 C1486 1.368 . S
C1502 C1498 1.368 . S
C1502 C1501 1.523 . S
H1503 C1478 0.950 . S
H1504 C1480 0.950 . S
H1505 C1481 0.949 . S
H1506 C1483 0.950 . S
H1507 C1485 0.950 . S
C1508 C1509 1.349 . S
C1508 C1510 1.327 . S
C1508 H1533 0.950 . S
C1509 C1508 1.349 . S
C1509 C1525 1.349 . S
C1510 C1508 1.327 . S
C1510 C1529 1.429 . S
C1510 H1534 0.950 . S
C1511 C1528 1.574 . S
C1511 C1530 1.368 . S
C1511 H1535 0.949 . S
H1512 C1516 0.949 . S
C1513 C1514 1.349 . S
C1513 C1515 1.327 . S
C1513 H1536 0.950 . S
C1514 C1513 1.349 . S
C1514 C1526 1.349 . S
C1515 C1513 1.327 . S
C1515 C1531 1.429 . S
C1515 H1537 0.950 . S
C1516 H1512 0.949 . S
C1516 C1524 1.574 . S
C1516 C1532 1.368 . S
H1517 C1525 0.950 . S
H1518 C1523 0.950 . S
H1519 C1524 0.949 . S
H1520 C1526 0.950 . S
H1521 C1527 0.950 . S
H1522 C1528 0.949 . S
C1523 H1518 0.950 . S
C1523 C1525 1.327 . S
C1523 C1529 1.429 . S
C1524 C1516 1.574 . S
C1524 H1519 0.949 . S
C1524 C1530 1.368 . S
C1525 C1509 1.349 . S
C1525 H1517 0.950 . S
C1525 C1523 1.327 . S
C1526 C1514 1.349 . S
C1526 H1520 0.950 . S
C1526 C1527 1.327 . S
C1527 H1521 0.950 . S
C1527 C1526 1.327 . S
C1527 C1531 1.429 . S
C1528 C1511 1.574 . S
C1528 H1522 0.949 . S
C1528 C1532 1.368 . S
C1529 C1510 1.429 . S
C1529 C1523 1.429 . S
C1529 C1530 1.523 . S
C1530 C1511 1.368 . S
C1530 C1524 1.368 . S
C1530 C1529 1.523 . S
C1531 C1515 1.429 . S
C1531 C1527 1.429 . S
C1531 C1532 1.523 . S
C1532 C1516 1.368 . S
C1532 C1528 1.368 . S
C1532 C1531 1.523 . S
H1533 C1508 0.950 . S
H1534 C1510 0.950 . S
H1535 C1511 0.949 . S
H1536 C1513 0.950 . S
H1537 C1515 0.950 . S
C1538 C1539 1.349 . S
C1538 C1540 1.327 . S
C1538 H1563 0.950 . S
C1539 C1538 1.349 . S
C1539 C1555 1.349 . S
C1540 C1538 1.327 . S
C1540 C1559 1.429 . S
C1540 H1564 0.950 . S
C1541 C1558 1.574 . S
C1541 C1560 1.368 . S
C1541 H1565 0.949 . S
H1542 C1546 0.949 . S
C1543 C1544 1.349 . S
C1543 C1545 1.327 . S
C1543 H1566 0.950 . S
C1544 C1543 1.349 . S
C1544 C1556 1.349 . S
C1545 C1543 1.327 . S
C1545 C1561 1.429 . S
C1545 H1567 0.950 . S
C1546 H1542 0.949 . S
C1546 C1554 1.574 . S
C1546 C1562 1.368 . S
H1547 C1555 0.950 . S
H1548 C1553 0.950 . S
H1549 C1554 0.949 . S
H1550 C1556 0.950 . S
H1551 C1557 0.950 . S
H1552 C1558 0.949 . S
C1553 H1548 0.950 . S
C1553 C1555 1.327 . S
C1553 C1559 1.429 . S
C1554 C1546 1.574 . S
C1554 H1549 0.949 . S
C1554 C1560 1.368 . S
C1555 C1539 1.349 . S
C1555 H1547 0.950 . S
C1555 C1553 1.327 . S
C1556 C1544 1.349 . S
C1556 H1550 0.950 . S
C1556 C1557 1.327 . S
C1557 H1551 0.950 . S
C1557 C1556 1.327 . S
C1557 C1561 1.429 . S
C1558 C1541 1.574 . S
C1558 H1552 0.949 . S
C1558 C1562 1.368 . S
C1559 C1540 1.429 . S
C1559 C1553 1.429 . S
C1559 C1560 1.523 . S
C1560 C1541 1.368 . S
C1560 C1554 1.368 . S
C1560 C1559 1.523 . S
C1561 C1545 1.429 . S
C1561 C1557 1.429 . S
C1561 C1562 1.523 . S
C1562 C1546 1.368 . S
C1562 C1558 1.368 . S
C1562 C1561 1.523 . S
H1563 C1538 0.950 . S
H1564 C1540 0.950 . S
H1565 C1541 0.949 . S
H1566 C1543 0.950 . S
H1567 C1545 0.950 . S
C614 C497 1.627 . S
C609 C47 1.520 . S
C644 C523 1.491 . S
C639 C115 1.455 . S
C674 C537 1.545 . S
C669 C153 1.414 . S
C704 C539 1.680 . S
C699 C233 1.562 . S
C729 C283 1.453 . S
C734 C536 1.491 . S
C764 C538 1.627 . S
C759 C357 1.520 . S
C794 C496 1.680 . S
C789 C401 1.552 . S
C824 C522 1.544 . S
C819 C463 1.414 . S
C854 C524 1.380 . S
C849 C469 1.347 . S
C884 C550 1.531 . S
C879 C277 1.432 . S
C914 C508 1.513 . S
C909 C363 1.494 . S
C944 C510 1.356 . S
C939 C407 1.331 . S
C974 C509 1.531 . S
C969 C109 1.429 . S
C1004 C511 1.380 . S
C999 C159 1.347 . S
C1034 C525 1.356 . S
C1029 C239 1.326 . S
C1064 C551 1.513 . S
C1059 C53 1.494 . S
C1094 C553 1.627 . S
C1089 C481 1.520 . S
C1119 C301 1.455 . S
C1124 C579 1.491 . S
C1149 C339 1.414 . S
C1154 C592 1.544 . S
C1179 C419 1.562 . S
C1184 C595 1.680 . S
C1209 C97 1.453 . S
C1214 C593 1.491 . S
C1239 C171 1.520 . S
C1244 C594 1.627 . S
C1269 C215 1.553 . S
C1274 C552 1.680 . S
C1304 C578 1.544 . S
C1299 C29 1.414 . S
C1334 C581 1.380 . S
C1329 C35 1.347 . S
C1359 C91 1.432 . S
C1364 C606 1.531 . S
C1389 C177 1.494 . S
C1394 C564 1.512 . S
C1419 C221 1.331 . S
C1424 C566 1.356 . S
C1454 C565 1.531 . S
C1449 C295 1.429 . S
C1484 C567 1.380 . S
C1479 C345 1.347 . S
C1509 C425 1.327 . S
C1514 C580 1.356 . S
C1544 C607 1.513 . S
C1539 C487 1.494 . S
