# Generated by pormake.
# Topology pth, (4,4)-cn, num edge types: 1
# Building blocks:
#     Node 0, Type 0, BuildingBlock: QUQFOY_clean_sbu_3, # of connection points: 4
#     Node 1, Type 0, BuildingBlock: QUQFOY_clean_sbu_3, # of connection points: 4
#     Node 2, Type 0, BuildingBlock: QUQFOY_clean_sbu_3, # of connection points: 4
#     Node 3, Type 1, BuildingBlock: NAHDIM_clean_linker_0, # of connection points: 4
#     Node 4, Type 1, BuildingBlock: NAHDIM_clean_linker_0, # of connection points: 4
#     Node 5, Type 1, BuildingBlock: NAHDIM_clean_linker_0, # of connection points: 4
#     Edge 6, Type (0, 1), BuildingBlock: MIFKUJ_clean_linker_0, # of connection points: 2
#     Edge 7, Type (0, 1), BuildingBlock: MIFKUJ_clean_linker_0, # of connection points: 2
#     Edge 8, Type (0, 1), BuildingBlock: MIFKUJ_clean_linker_0, # of connection points: 2
#     Edge 9, Type (0, 1), BuildingBlock: MIFKUJ_clean_linker_0, # of connection points: 2
#     Edge 10, Type (0, 1), BuildingBlock: MIFKUJ_clean_linker_0, # of connection points: 2
#     Edge 11, Type (0, 1), BuildingBlock: MIFKUJ_clean_linker_0, # of connection points: 2
#     Edge 12, Type (0, 1), BuildingBlock: MIFKUJ_clean_linker_0, # of connection points: 2
#     Edge 13, Type (0, 1), BuildingBlock: MIFKUJ_clean_linker_0, # of connection points: 2
#     Edge 14, Type (0, 1), BuildingBlock: MIFKUJ_clean_linker_0, # of connection points: 2
#     Edge 15, Type (0, 1), BuildingBlock: MIFKUJ_clean_linker_0, # of connection points: 2
#     Edge 16, Type (0, 1), BuildingBlock: MIFKUJ_clean_linker_0, # of connection points: 2
#     Edge 17, Type (0, 1), BuildingBlock: MIFKUJ_clean_linker_0, # of connection points: 2
# Relax obj value: 0.007
# Max RMSD: 0.056
# Mean RMSD: 0.049
data_MOF--net-pth--node1-QUQFOY_clean_sbu_3--node2-NAHDIM_clean_linker_0--edge1-MIFKUJ_clean_linker_0
_symmetry_space_group_name_H-M    P1
_symmetry_Int_Tables_number       1
_symmetry_cell_setting            triclinic
loop_
_symmetry_equiv_pos_as_xyz
'x, y, z'
_cell_length_a     38.875467
_cell_length_b     38.596282
_cell_length_c     101.18467
_cell_angle_alpha  89.703382
_cell_angle_beta   91.171084
_cell_angle_gamma 120.83358
loop_
_atom_site_label
_atom_site_type_symbol
_atom_site_fract_x
_atom_site_fract_y
_atom_site_fract_z
_atom_type_partial_charge
C0 C -0.00515 0.12719 0.07806 0.0
O1 O 0.97668 0.12713 0.06748 0.0
Cd2 Cd 0.97167 0.08867 0.04812 0.0
O3 O 0.01024 0.10501 0.07906 0.0
Cd4 Cd 0.01719 0.05522 0.06581 0.0
C5 C 0.07239 0.12722 0.04338 0.0
O6 O 0.95237 0.02078 0.05375 0.0
O7 O -0.0015 0.00975 0.04719 0.0
O8 O -0.00113 0.01131 0.08495 0.0
C9 C 0.96268 0.00191 0.04605 0.0
O10 O 0.03923 0.12362 0.03962 0.0
C11 C 0.03012 0.00871 0.08522 0.0
O12 O 0.07408 0.10742 0.05326 0.0
O13 O 0.0563 0.02879 0.07661 0.0
C14 C 0.11624 0.06313 0.40674 0.0
O15 O 0.13821 0.08735 0.39788 0.0
Cd16 Cd 0.11032 0.09605 0.37773 0.0
O17 O 0.07817 0.04586 0.40581 0.0
Cd18 Cd 0.02541 0.04646 0.39149 0.0
C19 C 0.04527 0.99586 0.36883 0.0
O20 O 0.06391 0.11612 0.38376 0.0
O21 O 0.00874 0.07696 0.3731 0.0
O22 O -0.00024 0.0546 0.41224 0.0
C23 C 0.03877 0.11213 0.37482 0.0
O24 O 0.07757 0.02941 0.36708 0.0
C25 C 0.96315 0.02957 0.40957 0.0
O26 O 0.02045 0.99249 0.37752 0.0
O27 O 0.95518 0.01136 0.3985 0.0
C28 C 0.98757 0.08698 0.71374 0.0
O29 O 0.98949 0.10356 0.72476 0.0
Cd30 Cd 0.02709 0.10412 0.74383 0.0
O31 O 0.00674 0.06868 0.71206 0.0
Cd32 Cd 0.05222 0.0537 0.72548 0.0
C33 C 0.98117 0.00182 0.74842 0.0
O34 O 0.09086 0.12003 0.73589 0.0
O35 O 0.10117 0.07438 0.74395 0.0
O36 O 0.08969 0.06274 0.70535 0.0
C37 C 0.1106 0.11104 0.74384 0.0
O38 O 0.98927 0.03612 0.75281 0.0
C39 C 0.09182 0.0312 0.70681 0.0
O40 O -0.00248 -0.00093 0.738 0.0
O41 O 0.07436 0.00934 0.71674 0.0
C42 C 0.98923 0.61438 0.31536 0.0
C43 C 0.01334 0.64923 0.30584 0.0
C44 C 0.01408 0.62578 0.28369 0.0
C45 C 0.05521 0.64792 0.28114 0.0
C46 C 0.07204 0.63358 0.27211 0.0
C47 C 0.04714 0.59639 0.26551 0.0
C48 C 0.0053 0.57514 0.26755 0.0
C49 C 0.98923 0.59045 0.27652 0.0
C50 C 0.11658 0.6576 0.2699 0.0
C51 C 0.97783 0.53556 0.2606 0.0
C52 C 0.20187 0.42363 0.2725 0.0
C53 C 0.16239 0.41995 0.27649 0.0
C54 C 0.15029 0.47613 0.27593 0.0
C55 C 0.10986 0.45456 0.2718 0.0
C56 C 0.09157 0.47465 0.2662 0.0
C57 C 0.11424 0.51706 0.26471 0.0
C58 C 0.15426 0.539 0.26958 0.0
C59 C 0.17162 0.51818 0.27526 0.0
C60 C 0.04847 0.4505 0.26147 0.0
C61 C 0.1791 0.58429 0.26833 0.0
C62 C 0.15524 0.48929 0.1803 0.0
C63 C 0.11596 0.467 0.18491 0.0
C64 C 0.09852 0.48636 0.19126 0.0
C65 C 0.12129 0.52868 0.19334 0.0
C66 C 0.16049 0.55124 0.18832 0.0
C67 C 0.17663 0.53121 0.18164 0.0
C68 C 0.05599 0.46144 0.19592 0.0
C69 C 0.1857 0.59638 0.19019 0.0
C70 C 0.01196 0.65704 0.14911 0.0
C71 C 0.0169 0.68611 0.1603 0.0
C72 C 0.05406 0.67051 0.17704 0.0
C73 C 0.02264 0.63153 0.18016 0.0
C74 C 0.0295 0.60631 0.18848 0.0
C75 C 0.06824 0.62063 0.19398 0.0
C76 C 0.09934 0.66052 0.1914 0.0
C77 C 0.0918 0.68484 0.18292 0.0
C78 C -0.00437 0.56406 0.19117 0.0
C79 C 0.14084 0.67712 0.19732 0.0
C80 C 0.06522 0.57814 0.25737 0.0
C81 C 0.07992 0.55629 0.26399 0.0
C82 C 0.09737 0.53813 0.25709 0.0
C83 C 0.09962 0.54104 0.24317 0.0
C84 C 0.11674 0.52283 0.23593 0.0
C85 C 0.11857 0.5255 0.22224 0.0
C86 C 0.10352 0.54662 0.21523 0.0
C87 C 0.10492 0.54909 0.20128 0.0
C88 C 0.09186 0.57232 0.19469 0.0
C89 C 0.07728 0.59322 0.20164 0.0
C90 C 0.07391 0.58958 0.21554 0.0
C91 C 0.05806 0.60897 0.22282 0.0
C92 C 0.0549 0.60509 0.23652 0.0
C93 C 0.06805 0.5822 0.24346 0.0
C94 C 0.08484 0.56306 0.23633 0.0
C95 C 0.08722 0.56625 0.22235 0.0
C96 C 0.20845 0.43689 0.1776 0.0
C97 C 0.1676 0.43379 0.1774 0.0
O98 O -0.00224 0.63757 0.2931 0.0
O99 O 0.04983 0.69509 0.16831 0.0
O100 O 0.17336 0.47148 0.17442 0.0
O101 O 0.16977 0.4575 0.28049 0.0
H102 H 0.04467 0.65557 0.30656 0.0
H103 H 0.99275 0.58843 0.31278 0.0
H104 H 0.95683 0.60412 0.31473 0.0
H105 H 0.00029 0.6238 0.32569 0.0
H106 H 0.07421 0.67622 0.28629 0.0
H107 H 0.95739 0.574 0.27841 0.0
H108 H 0.13064 0.64126 0.27426 0.0
H109 H 0.13096 0.68812 0.27447 0.0
H110 H 0.12264 0.66079 0.25915 0.0
H111 H 0.94597 0.52282 0.26322 0.0
H112 H 0.9869 0.51335 0.26324 0.0
H113 H 0.98052 0.53984 0.24974 0.0
H114 H 0.14265 0.40933 0.26748 0.0
H115 H 0.19675 0.39377 0.26936 0.0
H116 H 0.22406 0.43537 0.28084 0.0
H117 H 0.21464 0.44478 0.26408 0.0
H118 H 0.09264 0.42207 0.27284 0.0
H119 H 0.20255 0.53457 0.27873 0.0
H120 H 0.03137 0.46398 0.26534 0.0
H121 H 0.03373 0.41846 0.26459 0.0
H122 H 0.04714 0.45146 0.25052 0.0
H123 H 0.20978 0.59691 0.27263 0.0
H124 H 0.16415 0.59826 0.27344 0.0
H125 H 0.18145 0.59284 0.25775 0.0
H126 H 0.15519 0.42452 0.18749 0.0
H127 H 0.09884 0.43459 0.18349 0.0
H128 H 0.20669 0.54812 0.17783 0.0
H129 H 0.05621 0.45808 0.20682 0.0
H130 H 0.04007 0.43082 0.19139 0.0
H131 H 0.03896 0.47669 0.19354 0.0
H132 H 0.21729 0.60855 0.18733 0.0
H133 H 0.18532 0.60473 0.20065 0.0
H134 H 0.17296 0.61106 0.18398 0.0
H135 H 0.98941 0.67204 0.16634 0.0
H136 H 0.98659 0.65147 0.14241 0.0
H137 H 0.00547 0.62753 0.1531 0.0
H138 H 0.03971 0.66974 0.14326 0.0
H139 H 0.99291 0.62027 0.17599 0.0
H140 H 0.11571 0.71508 0.18061 0.0
H141 H 0.99154 0.55939 0.20199 0.0
H142 H 0.00323 0.54191 0.18736 0.0
H143 H 0.96688 0.55777 0.18648 0.0
H144 H 0.16087 0.70967 0.19515 0.0
H145 H 0.15438 0.6602 0.19332 0.0
H146 H 0.13915 0.673 0.2082 0.0
H147 H 0.07807 0.55367 0.27467 0.0
H148 H 0.12883 0.50613 0.24075 0.0
H149 H 0.13212 0.51085 0.21725 0.0
H150 H 0.09394 0.57493 0.18402 0.0
H151 H 0.04763 0.62709 0.21798 0.0
H152 H 0.04224 0.62045 0.24161 0.0
H153 H 0.2222 0.44552 0.1677 0.0
H154 H 0.20542 0.40767 0.1805 0.0
H155 H 0.2288 0.46019 0.1849 0.0
C156 C 0.379 0.94238 0.64279 0.0
C157 C 0.38064 0.97914 0.63635 0.0
C158 C 0.40517 0.98569 0.61421 0.0
C159 C 0.43181 0.0269 0.61228 0.0
C160 C 0.463 0.04008 0.60324 0.0
C161 C 0.4679 0.01127 0.59622 0.0
C162 C 0.44109 0.96953 0.59832 0.0
C163 C 0.40947 0.95731 0.6071 0.0
C164 C 0.49062 0.08475 0.60119 0.0
C165 C 0.4459 0.93778 0.59137 0.0
C166 C 0.779 0.17093 0.60305 0.0
C167 C 0.75142 0.13914 0.61299 0.0
C168 C 0.68861 0.09179 0.60112 0.0
C169 C 0.66436 0.0516 0.59711 0.0
C170 C 0.62614 0.03747 0.59148 0.0
C171 C 0.61213 0.06454 0.58962 0.0
C172 C 0.63657 0.10537 0.59355 0.0
C173 C 0.67452 0.1186 0.5993 0.0
C174 C 0.60075 0.99365 0.5875 0.0
C175 C 0.62262 0.13508 0.59158 0.0
C176 C 0.64053 0.05934 0.50179 0.0
C177 C 0.62297 0.02389 0.50922 0.0
C178 C 0.59083 0.01447 0.51751 0.0
C179 C 0.57687 0.04181 0.51863 0.0
C180 C 0.59428 0.07735 0.51091 0.0
C181 C 0.62554 0.0853 0.5024 0.0
C182 C 0.57205 0.97545 0.52512 0.0
C183 C 0.58029 0.1072 0.51178 0.0
C184 C 0.25982 0.94738 0.52773 0.0
C185 C 0.29364 0.97422 0.51834 0.0
C186 C 0.35393 0.96941 0.51771 0.0
C187 C 0.36603 0.94165 0.52036 0.0
C188 C 0.40573 0.9546 0.52421 0.0
C189 C 0.43394 0.99641 0.52529 0.0
C190 C 0.42253 0.02466 0.52173 0.0
C191 C 0.38266 0.01086 0.51787 0.0
C192 C 0.41716 0.92368 0.52765 0.0
C193 C 0.45217 0.06944 0.52244 0.0
C194 C 0.50106 0.02467 0.58673 0.0
C195 C 0.53969 0.0385 0.59183 0.0
C196 C 0.57201 0.05022 0.58348 0.0
C197 C 0.56577 0.04757 0.56961 0.0
C198 C 0.59755 0.05888 0.56092 0.0
C199 C 0.59085 0.05485 0.5473 0.0
C200 C 0.55209 0.03932 0.54184 0.0
C201 C 0.54465 0.03362 0.52802 0.0
C202 C 0.50591 0.01937 0.52292 0.0
C203 C 0.47423 0.0106 0.53126 0.0
C204 C 0.48093 0.01525 0.5451 0.0
C205 C 0.4496 0.00622 0.55377 0.0
C206 C 0.45621 0.00982 0.56739 0.0
C207 C 0.49439 0.02249 0.57288 0.0
C208 C 0.52672 0.03323 0.56431 0.0
C209 C 0.51992 0.02933 0.5504 0.0
C210 C 0.73569 0.12219 0.50103 0.0
C211 C 0.70891 0.07677 0.49854 0.0
O212 O 0.37483 0.97285 0.62282 0.0
O213 O 0.31444 0.95516 0.51514 0.0
O214 O 0.67174 0.0687 0.49386 0.0
O215 O 0.72524 0.10319 0.60655 0.0
H216 H 0.41071 0.00606 0.63858 0.0
H217 H 0.40265 0.93775 0.63869 0.0
H218 H 0.34936 0.91479 0.64085 0.0
H219 H 0.38426 0.94699 0.65364 0.0
H220 H 0.42781 0.04862 0.61774 0.0
H221 H 0.38851 0.92551 0.6087 0.0
H222 H 0.52079 0.09399 0.60534 0.0
H223 H 0.4797 0.10295 0.60607 0.0
H224 H 0.49384 0.09175 0.59046 0.0
H225 H 0.42704 0.90741 0.59575 0.0
H226 H 0.47769 0.9457 0.59183 0.0
H227 H 0.43703 0.9362 0.5808 0.0
H228 H 0.73432 0.15072 0.61818 0.0
H229 H 0.80066 0.19937 0.60828 0.0
H230 H 0.76121 0.17773 0.59592 0.0
H231 H 0.79585 0.16007 0.59737 0.0
H232 H 0.67547 0.03116 0.59851 0.0
H233 H 0.69296 0.14994 0.60218 0.0
H234 H 0.5958 0.9913 0.57662 0.0
H235 H 0.57092 0.98 0.59211 0.0
H236 H 0.61489 0.97592 0.59041 0.0
H237 H 0.64592 0.16626 0.59455 0.0
H238 H 0.59553 0.12566 0.59751 0.0
H239 H 0.61415 0.13518 0.58104 0.0
H240 H 0.70576 0.06091 0.50808 0.0
H241 H 0.6343 0.00354 0.50843 0.0
H242 H 0.63921 0.1124 0.49646 0.0
H243 H 0.5814 0.98197 0.53569 0.0
H244 H 0.58125 0.95446 0.52136 0.0
H245 H 0.53885 0.96016 0.52457 0.0
H246 H 0.60003 0.1355 0.50636 0.0
H247 H 0.5792 0.11482 0.52228 0.0
H248 H 0.54949 0.09344 0.50751 0.0
H249 H 0.313 0.00261 0.52401 0.0
H250 H 0.2413 0.96102 0.52979 0.0
H251 H 0.27285 0.94441 0.53724 0.0
H252 H 0.24032 0.91664 0.52353 0.0
H253 H 0.34385 0.90971 0.51991 0.0
H254 H 0.37402 0.03253 0.51512 0.0
H255 H 0.42422 0.92539 0.5384 0.0
H256 H 0.44451 0.93027 0.5223 0.0
H257 H 0.3928 0.89247 0.52518 0.0
H258 H 0.43902 0.08751 0.51886 0.0
H259 H 0.47866 0.07695 0.51643 0.0
H260 H 0.46286 0.07833 0.53282 0.0
H261 H 0.54463 0.03993 0.60246 0.0
H262 H 0.62796 0.07067 0.56455 0.0
H263 H 0.61646 0.06388 0.54112 0.0
H264 H 0.50035 0.01512 0.51234 0.0
H265 H 0.41946 0.99595 0.55015 0.0
H266 H 0.43091 0.00229 0.57356 0.0
H267 H 0.73991 0.13916 0.49171 0.0
H268 H 0.76546 0.12944 0.50507 0.0
H269 H 0.72166 0.13228 0.50835 0.0
C270 C 0.65354 0.61063 0.80151 0.0
C271 C 0.6604 0.64743 0.8094 0.0
C272 C 0.63866 0.62525 0.83184 0.0
C273 C 0.61121 0.63791 0.83391 0.0
C274 C 0.58187 0.61964 0.84361 0.0
C275 C 0.57977 0.58776 0.85124 0.0
C276 C 0.60776 0.57525 0.84919 0.0
C277 C 0.63739 0.59482 0.83969 0.0
C278 C 0.55319 0.63443 0.84568 0.0
C279 C 0.60617 0.54084 0.85689 0.0
C280 C 0.25134 0.37036 0.85971 0.0
C281 C 0.29057 0.37792 0.85388 0.0
C282 C 0.35486 0.44153 0.85347 0.0
C283 C 0.37973 0.42497 0.854 0.0
C284 C 0.42069 0.44924 0.85724 0.0
C285 C 0.43687 0.49068 0.86005 0.0
C286 C 0.41229 0.50776 0.8588 0.0
C287 C 0.37161 0.48292 0.85541 0.0
C288 C 0.44641 0.43043 0.8581 0.0
C289 C 0.42869 0.55199 0.86151 0.0
C290 C 0.43018 0.43342 0.94573 0.0
C291 C 0.46195 0.43097 0.94034 0.0
C292 C 0.49006 0.46177 0.93227 0.0
C293 C 0.48681 0.49605 0.92969 0.0
C294 C 0.45606 0.49955 0.93559 0.0
C295 C 0.42804 0.46805 0.9435 0.0
C296 C 0.5228 0.45729 0.92624 0.0
C297 C 0.45221 0.53605 0.93323 0.0
C298 C 0.76848 0.77516 0.92164 0.0
C299 C 0.73953 0.75976 0.93318 0.0
C300 C 0.68999 0.68727 0.93124 0.0
C301 C 0.68818 0.6512 0.92802 0.0
C302 C 0.65231 0.61751 0.92344 0.0
C303 C 0.61744 0.62013 0.9221 0.0
C304 C 0.61859 0.65593 0.92592 0.0
C305 C 0.65474 0.68899 0.93059 0.0
C306 C 0.65181 0.57941 0.91979 0.0
C307 C 0.58162 0.65931 0.92494 0.0
C308 C 0.54785 0.56671 0.86114 0.0
C309 C 0.50904 0.53902 0.85654 0.0
C310 C 0.47844 0.51572 0.86533 0.0
C311 C 0.48709 0.51826 0.87905 0.0
C312 C 0.45794 0.49267 0.88808 0.0
C313 C 0.46699 0.49494 0.90153 0.0
C314 C 0.50495 0.52415 0.90655 0.0
C315 C 0.51438 0.52696 0.92023 0.0
C316 C 0.55139 0.55817 0.92499 0.0
C317 C 0.57995 0.58603 0.91636 0.0
C318 C 0.57215 0.58193 0.90256 0.0
C319 C 0.60111 0.60787 0.89353 0.0
C320 C 0.59337 0.60285 0.87996 0.0
C321 C 0.55597 0.57249 0.87492 0.0
C322 C 0.5258 0.54728 0.88387 0.0
C323 C 0.5343 0.55115 0.89767 0.0
C324 C 0.37864 0.33929 0.94222 0.0
C325 C 0.39445 0.3647 0.95495 0.0
O326 O 0.66735 0.64259 0.82259 0.0
O327 O 0.72596 0.71918 0.93518 0.0
O328 O 0.40075 0.40311 0.9529 0.0
O329 O 0.31467 0.4187 0.85127 0.0
H330 H 0.63306 0.64965 0.80824 0.0
H331 H 0.62718 0.58293 0.80536 0.0
H332 H 0.68018 0.60717 0.80237 0.0
H333 H 0.64758 0.61373 0.79091 0.0
H334 H 0.61314 0.6625 0.82811 0.0
H335 H 0.6591 0.58568 0.83808 0.0
H336 H 0.52301 0.61147 0.84185 0.0
H337 H 0.56267 0.66331 0.8405 0.0
H338 H 0.55061 0.63868 0.85639 0.0
H339 H 0.62589 0.53086 0.85269 0.0
H340 H 0.57502 0.51467 0.85703 0.0
H341 H 0.61599 0.55056 0.86727 0.0
H342 H 0.305 0.36845 0.86156 0.0
H343 H 0.23145 0.33779 0.86191 0.0
H344 H 0.23544 0.38005 0.85273 0.0
H345 H 0.2577 0.38771 0.86907 0.0
H346 H 0.36726 0.39317 0.85199 0.0
H347 H 0.35229 0.49548 0.85474 0.0
H348 H 0.47396 0.44837 0.85229 0.0
H349 H 0.43035 0.39878 0.85442 0.0
H350 H 0.45589 0.43074 0.86855 0.0
H351 H 0.40589 0.5608 0.85977 0.0
H352 H 0.45462 0.57052 0.85509 0.0
H353 H 0.43962 0.55914 0.87194 0.0
H354 H 0.42311 0.36698 0.95813 0.0
H355 H 0.46479 0.40493 0.94217 0.0
H356 H 0.40378 0.47 0.94781 0.0
H357 H 0.52027 0.45748 0.91529 0.0
H358 H 0.52151 0.42896 0.92929 0.0
H359 H 0.55254 0.48328 0.9292 0.0
H360 H 0.42842 0.53556 0.93927 0.0
H361 H 0.44503 0.53731 0.92263 0.0
H362 H 0.48116 0.56399 0.93558 0.0
H363 H 0.71475 0.76482 0.93032 0.0
H364 H 0.78071 0.80797 0.92019 0.0
H365 H 0.75233 0.75904 0.91242 0.0
H366 H 0.7937 0.76984 0.92341 0.0
H367 H 0.71528 0.6498 0.92886 0.0
H368 H 0.65495 0.71573 0.93385 0.0
H369 H 0.64537 0.57345 0.90904 0.0
H370 H 0.62753 0.55333 0.9251 0.0
H371 H 0.68076 0.58134 0.92219 0.0
H372 H 0.58754 0.68942 0.92813 0.0
H373 H 0.55781 0.63591 0.93118 0.0
H374 H 0.56997 0.65375 0.91458 0.0
H375 H 0.5025 0.53566 0.84599 0.0
H376 H 0.428 0.47001 0.88483 0.0
H377 H 0.44359 0.4739 0.90796 0.0
H378 H 0.55809 0.56075 0.93552 0.0
H379 H 0.63033 0.63194 0.89684 0.0
H380 H 0.61691 0.62334 0.87346 0.0
H381 H 0.37238 0.30819 0.94406 0.0
H382 H 0.40096 0.35247 0.93429 0.0
H383 H 0.35064 0.33766 0.93862 0.0
H384 H 0.01415 0.12349 0.10395 0.0
H385 H 0.03277 0.17496 0.12112 0.0
H386 H 0.01072 0.24758 0.09368 0.0
H387 H 0.99123 0.19593 0.07652 0.0
H388 H 0.09016 0.28577 0.10657 0.0
H389 H 0.95 0.21114 0.11677 0.0
H390 H 0.88605 0.14991 0.12213 0.0
H391 H 0.93973 0.13393 0.15736 0.0
H392 H 0.0042 0.19476 0.15211 0.0
H393 H 0.14595 0.44375 0.15185 0.0
H394 H 0.10637 0.39134 0.13546 0.0
H395 H 0.09009 0.29992 0.16359 0.0
H396 H 0.12764 0.35225 0.18029 0.0
H397 H 0.0254 0.27203 0.14958 0.0
H398 H 0.1647 0.33761 0.13939 0.0
H399 H 0.23199 0.39493 0.1346 0.0
H400 H 0.18494 0.42305 0.1001 0.0
H401 H 0.11721 0.36619 0.1048 0.0
C402 C 0.0126 0.1501 0.10163 0.0
C403 C 0.00134 0.15572 0.08887 0.0
C404 C 0.02312 0.17937 0.11146 0.0
C405 C 0.02306 0.21496 0.10863 0.0
C406 C 0.0108 0.22021 0.09603 0.0
C407 C -0.00043 0.19062 0.08626 0.0
C408 C 0.03913 0.24807 0.11849 0.0
C409 C 0.07567 0.28321 0.11588 0.0
C410 C 0.02082 0.24384 0.13078 0.0
C411 C 0.98204 0.20733 0.13398 0.0
C412 C 0.94828 0.19438 0.1256 0.0
C413 C 0.91191 0.15978 0.12863 0.0
C414 C 0.90885 0.13799 0.14006 0.0
C415 C 0.94215 0.15082 0.1485 0.0
C416 C 0.9786 0.18538 0.14551 0.0
C417 C 0.13322 0.41248 0.15466 0.0
C418 C 0.13977 0.40207 0.16742 0.0
C419 C 0.11087 0.3825 0.14521 0.0
C420 C 0.09591 0.34164 0.14817 0.0
C421 C 0.10128 0.33116 0.16103 0.0
C422 C 0.12285 0.36106 0.17056 0.0
C423 C 0.07671 0.31 0.13771 0.0
C424 C 0.03974 0.27499 0.14022 0.0
C425 C 0.09514 0.31382 0.12541 0.0
C426 C 0.13583 0.34795 0.12253 0.0
C427 C 0.16866 0.3562 0.13084 0.0
C428 C 0.20688 0.38858 0.12813 0.0
C429 C 0.21272 0.41269 0.11707 0.0
C430 C 0.18035 0.4044 0.10868 0.0
C431 C 0.14205 0.37209 0.11136 0.0
H432 H 0.24233 0.43774 0.11499 0.0
H433 H 0.88066 0.11122 0.14239 0.0
H434 H 0.88413 0.0011 0.40366 0.0
H435 H 0.83388 -0.00021 0.41829 0.0
H436 H 0.9203 0.04388 0.45055 0.0
H437 H 0.97088 0.0462 0.43595 0.0
H438 H 0.83754 0.97754 0.45672 0.0
H439 H 0.91175 0.11002 0.4362 0.0
H440 H 0.93747 0.15515 0.41696 0.0
H441 H 0.81736 0.10742 0.4019 0.0
H442 H 0.79098 0.06155 0.42097 0.0
H443 H 0.76914 0.06178 0.50348 0.0
H444 H 0.80562 0.0451 0.48788 0.0
H445 H 0.7293 0.04342 0.45598 0.0
H446 H 0.69434 0.06249 0.47146 0.0
H447 H 0.80053 0.08114 0.44813 0.0
H448 H 0.72394 0.95434 0.46919 0.0
H449 H 0.69554 0.90644 0.48764 0.0
H450 H 0.81382 0.9375 0.50067 0.0
H451 H 0.843 0.98603 0.4824 0.0
C452 C 0.8922 0.00992 0.41392 0.0
C453 C 0.93144 0.02396 0.41866 0.0
C454 C 0.86353 0.00921 0.42224 0.0
C455 C 0.87352 0.02184 0.43546 0.0
C456 C 0.91206 0.03392 0.44038 0.0
C457 C 0.94092 0.03539 0.43202 0.0
C458 C 0.84496 0.02547 0.44394 0.0
C459 C 0.82946 0.00024 0.45494 0.0
C460 C 0.83362 0.05428 0.44131 0.0
C461 C 0.84945 0.08203 0.42991 0.0
C462 C 0.89086 0.10889 0.42872 0.0
C463 C 0.90555 0.13465 0.41786 0.0
C464 C 0.87907 0.13406 0.40819 0.0
C465 C 0.83784 0.10778 0.40938 0.0
C466 C 0.823 0.08191 0.42021 0.0
C467 C 0.75988 0.05735 0.49316 0.0
C468 C 0.72837 0.06269 0.48878 0.0
C469 C 0.78055 0.04753 0.48424 0.0
C470 C 0.7697 0.04201 0.47075 0.0
C471 C 0.7381 0.04718 0.46635 0.0
C472 C 0.71788 0.05779 0.47524 0.0
C473 C 0.79299 0.03338 0.46117 0.0
C474 C 0.80778 0.05784 0.44992 0.0
C475 C 0.80307 0.00332 0.46348 0.0
C476 C 0.78567 0.97406 0.47447 0.0
C477 C 0.74392 0.95117 0.47604 0.0
C478 C 0.72768 0.92387 0.48646 0.0
C479 C 0.75286 0.91899 0.49534 0.0
C480 C 0.79435 0.94133 0.49379 0.0
C481 C 0.81075 0.9687 0.48339 0.0
H482 H 0.74023 0.89784 0.5034 0.0
H483 H 0.8905 0.15403 0.39979 0.0
H484 H 0.95136 -0.0031 0.77299 0.0
H485 H 0.90061 0.93686 0.78426 0.0
H486 H 0.89183 0.86333 0.7509 0.0
H487 H 0.94362 0.9233 0.73969 0.0
H488 H 0.82627 0.88861 0.77854 0.0
H489 H 0.86285 0.76821 0.76088 0.0
H490 H 0.92179 0.76393 0.7549 0.0
H491 H -0.00238 0.86804 0.77898 0.0
H492 H 0.9391 0.87263 0.78524 0.0
H493 H 0.65972 0.69478 0.78939 0.0
H494 H 0.71636 0.75439 0.77966 0.0
H495 H 0.79729 0.74449 0.80711 0.0
H496 H 0.74087 0.68388 0.81649 0.0
H497 H 0.8293 0.76241 0.78403 0.0
H498 H 0.76841 0.81586 0.81124 0.0
H499 H 0.71341 0.82291 0.81986 0.0
H500 H 0.69387 0.8583 0.78144 0.0
H501 H 0.74843 0.85093 0.77256 0.0
C502 C 0.93888 0.96793 0.76807 0.0
C503 C 0.95155 0.96492 0.75542 0.0
C504 C 0.90976 0.9336 0.77452 0.0
C505 C 0.89246 0.89547 0.76848 0.0
C506 C 0.90519 0.89229 0.75588 0.0
C507 C 0.9347 0.92664 0.74945 0.0
C508 C 0.86007 0.85945 0.77521 0.0
C509 C 0.82701 0.86105 0.77974 0.0
C510 C 0.86127 0.82367 0.77703 0.0
C511 C 0.89662 0.82099 0.77341 0.0
C512 C 0.89208 0.79011 0.76493 0.0
C513 C 0.92542 0.78764 0.76149 0.0
C514 C 0.96344 0.81578 0.76652 0.0
C515 C 0.96818 0.84637 0.77504 0.0
C516 C 0.93494 0.84894 0.77852 0.0
C517 C 0.68959 0.7056 0.79341 0.0
C518 C 0.69568 0.68541 0.80396 0.0
C519 C 0.72193 0.73967 0.78786 0.0
C520 C 0.76106 0.75451 0.79284 0.0
C521 C 0.76737 0.73383 0.80317 0.0
C522 C 0.73505 0.69944 0.80862 0.0
C523 C 0.79535 0.79149 0.7872 0.0
C524 C 0.82865 0.79002 0.78284 0.0
C525 C 0.795 0.82785 0.78589 0.0
C526 C 0.76228 0.8325 0.79121 0.0
C527 C 0.75221 0.82488 0.80461 0.0
C528 C 0.72113 0.82897 0.80955 0.0
C529 C 0.7001 0.84095 0.8012 0.0
C530 C 0.71016 0.84898 0.7879 0.0
C531 C 0.74118 0.84489 0.78291 0.0
H532 H 0.67604 0.8441 0.80504 0.0
H533 H 0.98921 0.81383 0.76384 0.0
H534 H 0.97689 0.96015 0.10369 0.0
H535 H 0.98113 0.91133 0.11796 0.0
H536 H 0.09728 0.94707 0.1025 0.0
H537 H 0.09285 0.99561 0.08794 0.0
H538 H 0.05144 0.86767 0.10255 0.0
H539 H 0.08676 0.97183 0.13434 0.0
H540 H 0.08036 0.023 0.14674 0.0
H541 H 0.96761 0.93066 0.16179 0.0
H542 H 0.97305 0.87896 0.14933 0.0
H543 H 0.08386 0.74687 0.14843 0.0
H544 H 0.09159 0.80679 0.13721 0.0
H545 H 0.97066 0.77182 0.14714 0.0
H546 H 0.96277 0.71179 0.15837 0.0
H547 H 0.02485 0.85443 0.15062 0.0
H548 H 0.98832 0.75154 0.11735 0.0
H549 H -0.00434 0.70076 0.10507 0.0
H550 H 0.11288 0.79247 0.09298 0.0
H551 H 0.10647 0.84373 0.10537 0.0
C552 C 0.00358 0.958 0.10342 0.0
C553 C 0.03454 0.98176 0.09467 0.0
C554 C 0.00605 0.93017 0.11165 0.0
C555 C 0.03972 0.92579 0.11142 0.0
C556 C 0.07104 0.94999 0.10287 0.0
C557 C 0.06853 0.97779 0.09458 0.0
C558 C 0.04094 0.89422 0.11954 0.0
C559 C 0.04644 0.86531 0.11312 0.0
C560 C 0.03356 0.89056 0.13328 0.0
C561 C 0.03018 0.92155 0.14081 0.0
C562 C 0.06045 0.96246 0.14021 0.0
C563 C 0.05702 0.99156 0.14727 0.0
C564 C 0.02356 0.9801 0.15503 0.0
C565 C 0.9935 0.93949 0.15577 0.0
C566 C -0.00324 0.91027 0.14873 0.0
C567 C 0.05913 0.75228 0.14835 0.0
C568 C 0.02279 0.72484 0.15436 0.0
C569 C 0.06352 0.78638 0.14191 0.0
C570 C 0.03162 0.79358 0.14129 0.0
C571 C -0.00432 0.76685 0.14756 0.0
C572 C 0.99119 0.7326 0.15395 0.0
C573 C 0.03506 0.82797 0.13359 0.0
C574 C 0.03032 0.85723 0.14009 0.0
C575 C 0.04332 0.83211 0.11993 0.0
C576 C 0.0471 0.80138 0.11241 0.0
C577 C 0.0158 0.76082 0.11217 0.0
C578 C 0.01977 0.73196 0.10517 0.0
C579 C 0.05476 0.74336 0.09828 0.0
C580 C 0.08582 0.78367 0.09834 0.0
C581 C 0.08203 0.81264 0.10535 0.0
H582 H 0.05778 0.72097 0.09287 0.0
H583 H 0.02096 0.00267 0.16048 0.0
H584 H 0.19185 0.1107 0.41698 0.0
H585 H 0.22318 0.09588 0.43558 0.0
H586 H 0.11517 0.98014 0.44032 0.0
H587 H 0.08302 0.99589 0.42217 0.0
H588 H 0.14126 0.00878 0.46308 0.0
H589 H 0.20419 0.99375 0.42534 0.0
H590 H 0.24086 0.01292 0.40443 0.0
H591 H 0.34193 0.11294 0.42391 0.0
H592 H 0.30565 0.09468 0.4449 0.0
H593 H 0.23606 0.92093 0.50052 0.0
H594 H 0.20757 0.93674 0.48124 0.0
H595 H 0.2892 0.06378 0.48801 0.0
H596 H 0.31676 0.04832 0.50767 0.0
H597 H 0.27731 0.02843 0.45962 0.0
H598 H 0.20853 0.03962 0.49766 0.0
H599 H 0.17026 0.0136 0.51812 0.0
H600 H 0.07743 0.91128 0.49679 0.0
H601 H 0.11552 0.93641 0.47623 0.0
C602 C 0.17479 0.08212 0.42201 0.0
C603 C 0.13503 0.0544 0.41811 0.0
C604 C 0.19283 0.07352 0.43259 0.0
C605 C 0.17192 0.03647 0.43921 0.0
C606 C 0.13203 0.00891 0.43538 0.0
C607 C 0.11367 0.01791 0.425 0.0
C608 C 0.19133 0.02669 0.45027 0.0
C609 C 0.17079 0.01264 0.46219 0.0
C610 C 0.2301 0.03199 0.44927 0.0
C611 C 0.25204 0.04307 0.43667 0.0
C612 C 0.23412 0.02001 0.42514 0.0
C613 C 0.25486 0.03068 0.41328 0.0
C614 C 0.29366 0.06419 0.41283 0.0
C615 C 0.31185 0.08703 0.42426 0.0
C616 C 0.29123 0.07651 0.43615 0.0
C617 C 0.24769 0.95223 0.49799 0.0
C618 C 0.27777 0.98346 0.50586 0.0
C619 C 0.23161 0.96116 0.48693 0.0
C620 C 0.24611 0.00138 0.48334 0.0
C621 C 0.27758 0.03256 0.49071 0.0
C622 C 0.29313 0.02369 0.50194 0.0
C623 C 0.22717 0.01084 0.47221 0.0
C624 C 0.24779 0.02469 0.46036 0.0
C625 C 0.18817 0.00451 0.47314 0.0
C626 C 0.16507 0.98966 0.48545 0.0
C627 C 0.18014 0.01138 0.49736 0.0
C628 C 0.15845 -0.00317 0.50897 0.0
C629 C 0.12149 0.96075 0.50876 0.0
C630 C 0.10609 0.9392 0.49694 0.0
C631 C 0.12771 0.95359 0.4853 0.0
H632 H 0.10473 0.94953 0.51776 0.0
H633 H 0.30966 0.0724 0.40364 0.0
H634 H 0.13438 0.19067 0.74616 0.0
H635 H 0.17479 0.23722 0.76396 0.0
H636 H 0.1893 0.14407 0.78218 0.0
H637 H 0.1486 0.09713 0.76442 0.0
H638 H 0.16403 0.17904 0.79949 0.0
H639 H 0.26812 0.22412 0.76795 0.0
H640 H 0.29966 0.24794 0.74631 0.0
H641 H 0.28889 0.35284 0.74962 0.0
H642 H 0.25674 0.32936 0.7712 0.0
H643 H 0.29012 0.30727 0.85067 0.0
H644 H 0.26917 0.26352 0.83108 0.0
H645 H 0.24901 0.34861 0.80961 0.0
H646 H 0.27049 0.39268 0.82912 0.0
H647 H 0.28221 0.31638 0.79398 0.0
H648 H 0.17249 0.2688 0.82386 0.0
H649 H 0.13928 0.24563 0.84529 0.0
H650 H 0.15872 0.14571 0.84468 0.0
H651 H 0.19263 0.16867 0.82332 0.0
C652 C 0.14657 0.18021 0.75386 0.0
C653 C 0.13814 0.14017 0.75393 0.0
C654 C 0.16985 0.20693 0.76399 0.0
C655 C 0.18526 0.19418 0.77434 0.0
C656 C 0.17772 0.15451 0.77426 0.0
C657 C 0.15453 0.12777 0.76411 0.0
C658 C 0.20657 0.22133 0.78573 0.0
C659 C 0.1904 0.20873 0.79832 0.0
C660 C 0.24027 0.2605 0.78413 0.0
C661 C 0.25971 0.27479 0.77116 0.0
C662 C 0.27217 0.25211 0.76402 0.0
C663 C 0.29022 0.26558 0.75177 0.0
C664 C 0.2962 0.30183 0.74658 0.0
C665 C 0.28422 0.32474 0.75365 0.0
C666 C 0.26612 0.31139 0.7659 0.0
C667 C 0.28189 0.3169 0.84169 0.0
C668 C 0.28209 0.35338 0.84137 0.0
C669 C 0.26982 0.29188 0.83054 0.0
C670 C 0.25716 0.30266 0.81895 0.0
C671 C 0.25878 0.3398 0.81844 0.0
C672 C 0.27095 0.36488 0.82958 0.0
C673 C 0.23955 0.27402 0.80768 0.0
C674 C 0.25623 0.28642 0.79514 0.0
C675 C 0.20609 0.23471 0.80927 0.0
C676 C 0.18549 0.22071 0.82207 0.0
C677 C 0.16996 0.24207 0.82835 0.0
C678 C 0.15098 0.22895 0.84047 0.0
C679 C 0.14699 0.19429 0.84636 0.0
C680 C 0.1619 0.1726 0.84011 0.0
C681 C 0.18099 0.18565 0.828 0.0
H682 H 0.13227 0.18417 0.85575 0.0
H683 H 0.31018 0.31221 0.73709 0.0
H684 H 0.93638 0.11551 0.71494 0.0
H685 H 0.89571 0.11977 0.69709 0.0
H686 H 0.94129 0.06779 0.66996 0.0
H687 H 0.98247 0.06348 0.68784 0.0
H688 H 0.94168 0.13443 0.65969 0.0
H689 H 0.84855 0.01104 0.68045 0.0
H690 H 0.81201 0.96617 0.69895 0.0
H691 H 0.76094 0.03884 0.70789 0.0
H692 H 0.79766 0.08453 0.68955 0.0
H693 H 0.79642 0.10359 0.60933 0.0
H694 H 0.8364 0.09177 0.62579 0.0
H695 H 0.8009 0.14503 0.65598 0.0
H696 H 0.76125 0.15728 0.63955 0.0
H697 H 0.79469 0.07284 0.66375 0.0
H698 H 0.89112 0.19828 0.64388 0.0
H699 H 0.92784 0.24336 0.62544 0.0
H700 H 0.97257 0.16628 0.61482 0.0
H701 H 0.93559 0.12038 0.6331 0.0
C702 C 0.93782 0.10488 0.7052 0.0
C703 C 0.96268 0.08907 0.70283 0.0
C704 C 0.91437 0.10719 0.69501 0.0
C705 C 0.91517 0.09371 0.68225 0.0
C706 C 0.94017 0.07823 0.67977 0.0
C707 C 0.96356 0.07568 0.69 0.0
C708 C 0.8903 0.0966 0.6715 0.0
C709 C 0.90944 0.12034 0.66045 0.0
C710 C 0.84835 0.07885 0.67264 0.0
C711 C 0.82615 0.05142 0.68368 0.0
C712 C 0.8298 0.01766 0.68642 0.0
C713 C 0.809 0.99204 0.69687 0.0
C714 C 0.78424 -0.0003 0.70461 0.0
C715 C 0.78016 0.03297 0.70189 0.0
C716 C 0.80093 0.05872 0.69146 0.0
C717 C 0.79731 0.11288 0.61947 0.0
C718 C 0.77583 0.13146 0.62316 0.0
C719 C 0.82011 0.10614 0.62885 0.0
C720 C 0.82173 0.11773 0.64207 0.0
C721 C 0.79998 0.13584 0.64582 0.0
C722 C 0.77744 0.14289 0.63643 0.0
C723 C 0.84614 0.11105 0.65204 0.0
C724 C 0.82688 0.0866 0.66294 0.0
C725 C 0.88794 0.1281 0.65075 0.0
C726 C 0.9102 0.15564 0.63976 0.0
C727 C 0.90847 0.19073 0.63753 0.0
C728 C 0.9294 0.21647 0.62713 0.0
C729 C 0.95242 0.20762 0.61893 0.0
C730 C 0.95465 0.17305 0.62115 0.0
C731 C 0.93373 0.14717 0.63154 0.0
H732 H 0.96862 0.22761 0.61088 0.0
H733 H 0.76815 0.97982 0.71269 0.0
H734 H 0.97449 0.95145 0.03075 0.0
H735 H 0.93313 0.9098 0.01224 0.0
H736 H 0.84941 0.94979 0.01849 0.0
H737 H 0.89045 0.99108 0.03735 0.0
H738 H 0.81058 0.87077 0.01265 0.0
H739 H 0.91781 0.99035 -0.00608 0.0
H740 H 0.9879 0.04368 0.99023 0.0
H741 H 0.01413 0.95519 0.9761 0.0
H742 H 0.94436 0.90123 0.97988 0.0
H743 H 0.72201 0.80899 0.94748 0.0
H744 H 0.75638 0.84866 0.96738 0.0
H745 H 0.83718 0.80321 0.96693 0.0
H746 H 0.80253 0.76298 0.94717 0.0
H747 H 0.87561 0.88768 0.96948 0.0
H748 H 0.76739 0.76808 0.98895 0.0
H749 H 0.6966 0.71606 0.99219 0.0
H750 H 0.67147 0.80714 0.00434 0.0
H751 H 0.74204 0.85982 0.00098 0.0
C752 C 0.94718 0.95129 0.02824 0.0
C753 C 0.93589 0.97482 0.03543 0.0
C754 C 0.92364 0.92757 0.01762 0.0
C755 C 0.88863 0.92735 0.0138 0.0
C756 C 0.87647 0.94973 0.02122 0.0
C757 C 0.89992 0.9733 0.03197 0.0
C758 C 0.86535 0.9042 0.00191 0.0
C759 C 0.82464 0.87492 0.00316 0.0
C760 C 0.88383 0.90927 0.98955 0.0
C761 C 0.92589 0.94168 0.98729 0.0
C762 C 0.93859 0.98221 0.99013 0.0
C763 C 0.97826 0.01256 0.988 0.0
C764 C 0.00545 0.00281 0.98296 0.0
C765 C 0.99303 0.96269 0.98001 0.0
C766 C 0.95342 0.93222 0.98213 0.0
C767 C 0.74696 0.80731 0.95168 0.0
C768 C 0.75984 0.78318 0.94572 0.0
C769 C 0.76647 0.82988 0.96304 0.0
C770 C 0.79926 0.8288 0.9686 0.0
C771 C 0.81199 0.80451 0.96275 0.0
C772 C 0.79225 0.78162 0.95148 0.0
C773 C 0.82116 0.85394 0.9803 0.0
C774 C 0.86158 0.88371 0.97897 0.0
C775 C 0.80232 0.84958 0.99252 0.0
C776 C 0.7599 0.81794 -0.00543 0.0
C777 C 0.74669 0.77707 0.99219 0.0
C778 C 0.70662 0.74745 -0.00592 0.0
C779 C 0.67952 0.7583 -0.00157 0.0
C780 C 0.69248 0.79879 0.00095 0.0
C781 C 0.73251 0.82853 -0.00094 0.0
H782 H 0.64852 0.73532 -0.00011 0.0
H783 H 0.03611 0.02632 0.98129 0.0
H784 H 0.09919 0.98601 0.35509 0.0
H785 H 0.08731 0.92725 0.34247 0.0
H786 H 0.96161 0.86681 0.35152 0.0
H787 H 0.97375 0.92522 0.36472 0.0
H788 H 0.98526 0.81623 0.35411 0.0
H789 H -0.00132 0.9063 0.31983 0.0
H790 H 0.0288 0.97028 0.30754 0.0
H791 H 0.13425 0.96382 0.30119 0.0
H792 H 0.10503 0.9001 0.31362 0.0
H793 H 0.94819 0.65916 0.30823 0.0
H794 H 0.94756 0.71812 0.31686 0.0
H795 H 0.07647 0.78301 0.32048 0.0
H796 H 0.07728 0.72397 0.3122 0.0
H797 H 0.04226 0.82892 0.30968 0.0
H798 H 0.02793 0.74106 0.34657 0.0
H799 H -0.00547 0.67595 0.35823 0.0
H800 H 0.8849 0.67754 0.3584 0.0
H801 H 0.91753 0.74241 0.34653 0.0
C802 C 0.06893 0.96034 0.35434 0.0
C803 C 0.03737 0.96035 0.36087 0.0
C804 C 0.06211 0.92678 0.34702 0.0
C805 C 0.02338 0.8928 0.34576 0.0
C806 C 0.99173 0.8927 0.35228 0.0
C807 C -0.00131 0.92611 0.35981 0.0
C808 C 0.01657 0.85689 0.33813 0.0
C809 C -0.003 0.819 0.34428 0.0
C810 C 0.03208 0.86028 0.32531 0.0
C811 C 0.04974 0.89851 0.31774 0.0
C812 C 0.0284 0.91864 0.31589 0.0
C813 C 0.04531 0.95485 0.30889 0.0
C814 C 0.08344 0.97113 0.30361 0.0
C815 C 0.10471 0.95118 0.30529 0.0
C816 C 0.08797 0.91498 0.3123 0.0
C817 C 0.97636 0.68602 0.31086 0.0
C818 C 0.01274 0.68667 0.30984 0.0
C819 C 0.97596 0.71966 0.31573 0.0
C820 C 0.01195 0.75468 0.31941 0.0
C821 C 0.0484 0.75619 0.3177 0.0
C822 C 0.04879 0.72242 0.31303 0.0
C823 C 0.01175 0.78897 0.3258 0.0
C824 C 0.03001 0.82637 0.31942 0.0
C825 C -0.00554 0.78505 0.33828 0.0
C826 C 0.97502 0.74631 0.34553 0.0
C827 C -0.00339 0.72735 0.34899 0.0
C828 C 0.97784 0.69052 0.35565 0.0
C829 C 0.93758 0.67256 0.35902 0.0
C830 C 0.91605 0.69145 0.35576 0.0
C831 C 0.93467 0.72824 0.34907 0.0
H832 H 0.92311 0.64405 0.36418 0.0
H833 H 0.09648 -0.00082 0.2982 0.0
H834 H 0.11264 0.97392 0.71004 0.0
H835 H 0.1588 0.96416 0.69673 0.0
H836 H 0.171 0.05719 0.67004 0.0
H837 H 0.1258 0.06796 0.68354 0.0
H838 H 0.16165 0.94267 0.67256 0.0
H839 H 0.26613 0.11093 0.65937 0.0
H840 H 0.28699 0.17831 0.66843 0.0
H841 H 0.26031 0.12946 0.70761 0.0
H842 H 0.23981 0.06196 0.69881 0.0
H843 H 0.30308 0.95274 0.62716 0.0
H844 H 0.25197 0.9616 0.63764 0.0
H845 H 0.33461 0.02654 0.66986 0.0
H846 H 0.38637 0.01943 0.65907 0.0
H847 H 0.29576 0.06195 0.66426 0.0
H848 H 0.25822 0.92425 0.67174 0.0
H849 H 0.24089 0.85539 0.66548 0.0
H850 H 0.13972 0.84028 0.64265 0.0
H851 H 0.15678 0.90929 0.64863 0.0
C852 C 0.12485 0.99204 0.70126 0.0
C853 C 0.11589 0.022 0.69791 0.0
C854 C 0.15118 0.98636 0.69364 0.0
C855 C 0.16894 0.0104 0.6825 0.0
C856 C 0.15836 0.03887 0.67875 0.0
C857 C 0.13237 0.04487 0.68644 0.0
C858 C 0.19987 0.00689 0.67521 0.0
C859 C 0.19091 0.96878 0.67069 0.0
C860 C 0.23839 0.04078 0.673 0.0
C861 C 0.251 0.08134 0.6784 0.0
C862 C 0.26483 0.11462 0.66992 0.0
C863 C 0.27658 0.15282 0.67501 0.0
C864 C 0.27483 0.15813 0.68858 0.0
C865 C 0.26149 0.12528 0.6971 0.0
C866 C 0.24976 0.08704 0.69206 0.0
C867 C 0.31059 0.96956 0.63635 0.0
C868 C 0.34907 0.98614 0.64217 0.0
C869 C 0.28117 0.97421 0.64241 0.0
C870 C 0.28921 0.99438 0.65463 0.0
C871 C 0.32766 0.01106 0.66041 0.0
C872 C 0.35722 0.00697 0.65425 0.0
C873 C 0.2576 -0.0023 0.66156 0.0
C874 C 0.2664 0.03584 0.66601 0.0
C875 C 0.21943 0.96361 0.66409 0.0
C876 C 0.20902 0.92207 0.66052 0.0
C877 C 0.23244 0.90634 0.66531 0.0
C878 C 0.22265 0.86727 0.66182 0.0
C879 C 0.18929 0.84351 0.65364 0.0
C880 C 0.16559 0.85874 0.64896 0.0
C881 C 0.17529 0.89781 0.6524 0.0
H882 H 0.18175 0.81327 0.65096 0.0
H883 H 0.28391 0.18771 0.6925 0.0
H884 H 0.08066 0.18114 0.02442 0.0
H885 H 0.13855 0.2225 0.01086 0.0
H886 H 0.20469 0.17605 0.03137 0.0
H887 H 0.14665 0.13465 0.04526 0.0
H888 H 0.2514 0.25726 0.02666 0.0
H889 H 0.16393 0.13865 0.00163 0.0
H890 H 0.09931 0.08637 0.99192 0.0
H891 H 0.09246 0.17612 0.96868 0.0
H892 H 0.1568 0.22911 0.97843 0.0
H893 H 0.39722 0.31974 0.97564 0.0
H894 H 0.34559 0.28125 0.99192 0.0
H895 H 0.27118 0.32289 0.97444 0.0
H896 H 0.32269 0.36135 0.95812 0.0
H897 H 0.23052 0.24128 0.978 0.0
H898 H 0.31799 0.36014 0.00383 0.0
H899 H 0.38256 0.4116 0.01385 0.0
H900 H 0.39007 0.3196 0.03547 0.0
H901 H 0.32576 0.26749 0.02543 0.0
C902 C 0.1075 0.17971 0.02613 0.0
C903 C 0.10883 0.15419 0.03584 0.0
C904 C 0.14059 0.20339 0.01834 0.0
C905 C 0.17565 0.20178 0.01993 0.0
C906 C 0.1778 0.17756 0.02994 0.0
C907 C 0.14461 0.15388 0.03784 0.0
C908 C 0.20933 0.22456 0.01081 0.0
C909 C 0.24706 0.25335 0.01602 0.0
C910 C 0.20346 0.21978 -0.00308 0.0
C911 C 0.16506 0.18791 0.99085 0.0
C912 C 0.14854 0.14729 -0.00549 0.0
C913 C 0.11195 0.11751 0.98899 0.0
C914 C 0.09173 0.12791 0.9797 0.0
C915 C 0.10814 0.16811 0.97588 0.0
C916 C 0.14469 0.19803 0.98139 0.0
C917 C 0.37012 0.3212 0.97543 0.0
C918 C 0.36424 0.34407 0.96575 0.0
C919 C 0.34068 0.29921 0.98472 0.0
C920 C 0.3047 0.29949 0.98446 0.0
C921 C 0.29879 0.32239 0.97484 0.0
C922 C 0.32828 0.34451 0.96559 0.0
C923 C 0.27244 0.27453 -0.00618 0.0
C924 C 0.23494 0.24513 0.98863 0.0
C925 C 0.27868 0.27858 0.0077 0.0
C926 C 0.31728 0.30988 0.01377 0.0
C927 C 0.33358 0.35085 0.01063 0.0
C928 C 0.3701 0.38014 0.01633 0.0
C929 C 0.39047 0.36887 0.02526 0.0
C930 C 0.37429 0.32828 0.02854 0.0
C931 C 0.33779 0.29886 0.02285 0.0
H932 H 0.41873 0.39159 0.02966 0.0
H933 H 0.06338 0.10482 0.97545 0.0
H934 H -0.00466 0.10872 0.3528 0.0
H935 H 0.01125 0.16238 0.33683 0.0
H936 H 0.11577 0.24426 0.36018 0.0
H937 H 0.1001 0.19068 0.37624 0.0
H938 H 0.07244 0.27953 0.35023 0.0
H939 H 0.12794 0.20074 0.3346 0.0
H940 H 0.12506 0.13775 0.32818 0.0
H941 H 0.03729 0.11653 0.29789 0.0
H942 H 0.03921 0.17914 0.30427 0.0
H943 H 0.1876 0.4276 0.30246 0.0
H944 H 0.16098 0.3763 0.31974 0.0
H945 H 0.06827 0.29314 0.29265 0.0
H946 H 0.09565 0.34407 0.27524 0.0
H947 H 0.10168 0.25743 0.30456 0.0
H948 H 0.04819 0.3375 0.31896 0.0
H949 H 0.0494 0.39968 0.32534 0.0
H950 H 0.1304 0.41792 0.35767 0.0
H951 H 0.13015 0.35614 0.35136 0.0
C952 C 0.02153 0.13823 0.35461 0.0
C953 C 0.04668 0.1454 0.36572 0.0
C954 C 0.03058 0.16882 0.34547 0.0
C955 C 0.06488 0.20711 0.34728 0.0
C956 C 0.08917 0.21486 0.35862 0.0
C957 C 0.08027 0.1842 0.36774 0.0
C958 C 0.07653 0.2384 0.33699 0.0
C959 C 0.07922 0.27498 0.34027 0.0
C960 C 0.08433 0.23186 0.32393 0.0
C961 C 0.08341 0.1944 0.32001 0.0
C962 C 0.10779 0.18248 0.32664 0.0
C963 C 0.10637 0.14687 0.323 0.0
C964 C 0.08093 0.12309 0.31266 0.0
C965 C 0.05694 0.13494 0.30591 0.0
C966 C 0.0582 0.1705 0.30953 0.0
C967 C 0.16126 0.39851 0.30027 0.0
C968 C 0.14358 0.3898 0.28754 0.0
C969 C 0.14593 0.36928 0.31015 0.0
C970 C 0.11232 0.33095 0.30755 0.0
C971 C 0.09418 0.3225 0.2949 0.0
C972 C 0.10971 0.35162 0.28498 0.0
C973 C 0.0977 0.29892 0.31774 0.0
C974 C 0.09458 0.26209 0.31447 0.0
C975 C 0.08926 0.3052 0.33077 0.0
C976 C 0.08942 0.34235 0.33461 0.0
C977 C 0.06652 0.35493 0.32737 0.0
C978 C 0.06698 0.39008 0.33098 0.0
C979 C 0.09003 0.41279 0.34189 0.0
C980 C 0.11259 0.40033 0.34922 0.0
C981 C 0.11227 0.36522 0.34563 0.0
H982 H 0.09035 0.43999 0.34467 0.0
H983 H 0.07986 0.09553 0.30985 0.0
loop_
_geom_bond_atom_site_label_1
_geom_bond_atom_site_label_2
_geom_bond_distance
_geom_bond_site_symmetry_2
_ccdc_geom_bond_type
C0 O1 1.306 . S
C0 O3 1.160 . S
O1 C0 1.306 . S
O1 Cd2 2.228 . S
Cd2 O1 2.228 . S
Cd2 O6 2.273 1_455 S
Cd2 O10 2.277 . S
O3 C0 1.160 . S
O3 Cd4 2.203 . S
Cd4 O3 2.203 . S
Cd4 O6 2.411 1_455 S
Cd4 O7 2.333 1_545 S
Cd4 O8 2.352 1_545 S
Cd4 O12 2.277 . S
Cd4 O13 2.360 . S
C5 O10 1.209 . S
C5 O12 1.226 . S
O6 Cd2 2.273 1_655 S
O6 Cd4 2.411 1_655 S
O6 C9 1.320 1_545 S
O7 Cd4 2.333 1_565 S
O7 C9 1.214 1_455 S
O8 Cd4 2.352 1_565 S
O8 C11 1.258 . S
C9 O6 1.320 1_565 S
C9 O7 1.214 1_655 S
O10 Cd2 2.277 . S
O10 C5 1.209 . S
C11 O8 1.258 . S
C11 O13 1.282 1_565 S
O12 Cd4 2.277 . S
O12 C5 1.226 . S
O13 Cd4 2.360 . S
O13 C11 1.282 1_545 S
C14 O15 1.306 . S
C14 O17 1.160 . S
O15 C14 1.306 . S
O15 Cd16 2.228 . S
Cd16 O15 2.228 . S
Cd16 O20 2.273 . S
Cd16 O24 2.277 . S
O17 C14 1.160 . S
O17 Cd18 2.203 . S
Cd18 O17 2.203 . S
Cd18 O20 2.411 . S
Cd18 O21 2.333 . S
Cd18 O22 2.352 . S
Cd18 O26 2.277 1_545 S
Cd18 O27 2.356 1_455 S
C19 O24 1.209 1_565 S
C19 O26 1.226 . S
O20 Cd16 2.273 . S
O20 Cd18 2.411 . S
O20 C23 1.320 . S
O21 Cd18 2.333 . S
O21 C23 1.214 . S
O22 Cd18 2.352 . S
O22 C25 1.258 1_455 S
C23 O20 1.320 . S
C23 O21 1.214 . S
O24 Cd16 2.277 . S
O24 C19 1.209 1_545 S
C25 O22 1.258 1_655 S
C25 O27 1.282 . S
O26 Cd18 2.277 1_565 S
O26 C19 1.226 . S
O27 Cd18 2.356 1_655 S
O27 C25 1.282 . S
C28 O29 1.306 . S
C28 O31 1.160 1_655 S
O29 C28 1.306 . S
O29 Cd30 2.228 1_655 S
Cd30 O29 2.228 1_455 S
Cd30 O34 2.273 . S
Cd30 O38 2.277 1_455 S
O31 C28 1.160 1_455 S
O31 Cd32 2.203 . S
Cd32 O31 2.203 . S
Cd32 O34 2.411 . S
Cd32 O35 2.333 . S
Cd32 O36 2.352 . S
Cd32 O40 2.277 1_545 S
Cd32 O41 2.356 . S
C33 O38 1.209 1_565 S
C33 O40 1.226 1_655 S
O34 Cd30 2.273 . S
O34 Cd32 2.411 . S
O34 C37 1.320 . S
O35 Cd32 2.333 . S
O35 C37 1.214 . S
O36 Cd32 2.352 . S
O36 C39 1.258 . S
C37 O34 1.320 . S
C37 O35 1.214 . S
O38 Cd30 2.277 1_655 S
O38 C33 1.209 1_545 S
C39 O36 1.258 . S
C39 O41 1.282 . S
O40 Cd32 2.277 1_565 S
O40 C33 1.226 1_455 S
O41 Cd32 2.356 . S
O41 C39 1.282 . S
C42 C43 1.560 . S
C42 H103 0.959 1_455 S
C42 H104 0.959 1_455 S
C42 H105 0.960 . S
C43 C42 1.560 . S
C43 O98 1.426 . S
C43 H102 0.980 . S
C44 C45 1.407 . S
C44 C49 1.418 . S
C44 O98 1.334 . S
C45 C44 1.407 . S
C45 C46 1.360 . S
C45 H106 0.929 . S
C46 C45 1.360 . S
C46 C47 1.401 . S
C46 C50 1.527 . S
C47 C46 1.401 . S
C47 C48 1.405 . S
C47 C80 1.587 . S
C48 C47 1.405 . S
C48 C49 1.332 . S
C48 C51 1.496 1_455 S
C49 C44 1.418 . S
C49 C48 1.332 . S
C49 H107 0.929 1_455 S
C50 C46 1.527 . S
C50 H108 0.959 . S
C50 H109 0.961 . S
C50 H110 0.961 . S
C51 C48 1.496 1_655 S
C51 H111 0.960 . S
C51 H112 0.960 . S
C51 H113 0.961 . S
C52 C53 1.517 . S
C52 H115 0.961 . S
C52 H116 0.960 . S
C52 H117 0.959 . S
C53 C52 1.517 . S
C53 O101 1.468 . S
C53 H114 0.980 . S
C54 C55 1.349 . S
C54 C59 1.367 . S
C54 O101 1.408 . S
C55 C54 1.349 . S
C55 C56 1.407 . S
C55 H118 0.930 . S
C56 C55 1.407 . S
C56 C57 1.449 . S
C56 C60 1.535 . S
C57 C56 1.449 . S
C57 C58 1.384 . S
C57 C82 1.553 . S
C58 C57 1.384 . S
C58 C59 1.364 . S
C58 C61 1.450 . S
C59 C54 1.367 . S
C59 C58 1.364 . S
C59 H119 0.931 . S
C60 C56 1.535 . S
C60 H120 0.959 . S
C60 H121 0.961 . S
C60 H122 0.959 . S
C61 C58 1.450 . S
C61 H123 0.960 . S
C61 H124 0.960 . S
C61 H125 0.960 . S
C62 C63 1.309 . S
C62 C67 1.304 . S
C62 O100 1.435 . S
C63 C62 1.309 . S
C63 C64 1.476 . S
C63 H127 0.930 . S
C64 C63 1.476 . S
C64 C65 1.400 . S
C64 C68 1.567 . S
C65 C64 1.400 . S
C65 C66 1.373 . S
C65 C87 1.432 . S
C66 C65 1.373 . S
C66 C67 1.339 . S
C66 C69 1.530 . S
C67 C62 1.304 . S
C67 C66 1.339 . S
C67 H128 0.930 . S
C68 C64 1.567 . S
C68 H129 0.961 . S
C68 H130 0.960 1_455 S
C68 H131 0.958 1_455 S
C69 C66 1.530 . S
C69 H132 0.961 . S
C69 H133 0.960 . S
C69 H134 0.960 . S
C70 C71 1.530 . S
C70 H136 0.961 . S
C70 H137 0.961 . S
C70 H138 0.959 . S
C71 C70 1.530 . S
C71 O99 1.412 . S
C71 H135 0.980 . S
C72 C73 1.288 . S
C72 C77 1.377 . S
C72 O99 1.393 . S
C73 C72 1.288 . S
C73 C74 1.369 . S
C73 H139 0.932 1_455 S
C74 C73 1.369 . S
C74 C75 1.398 . S
C74 C78 1.527 1_455 S
C75 C74 1.398 . S
C75 C76 1.380 . S
C75 C89 1.497 . S
C76 C75 1.380 . S
C76 C77 1.383 . S
C76 C79 1.603 . S
C77 C72 1.377 . S
C77 C76 1.383 . S
C77 H140 0.929 . S
C78 C74 1.527 1_655 S
C78 H141 0.961 . S
C78 H142 0.959 . S
C78 H143 0.959 . S
C79 C76 1.603 . S
C79 H144 0.960 . S
C79 H145 0.962 . S
C79 H146 0.961 . S
C80 C47 1.587 . S
C80 C81 1.360 . S
C80 C93 1.412 . S
C81 C80 1.360 . S
C81 C82 1.365 . S
C81 H147 0.929 . S
C82 C57 1.553 . S
C82 C81 1.365 . S
C82 C83 1.404 . S
C83 C82 1.404 . S
C83 C84 1.395 . S
C83 C94 1.451 . S
C84 C83 1.395 . S
C84 C85 1.322 . S
C84 H148 0.930 . S
C85 C84 1.322 . S
C85 C86 1.459 . S
C85 H149 0.929 . S
C86 C85 1.459 . S
C86 C87 1.445 . S
C86 C95 1.395 . S
C87 C65 1.432 . S
C87 C86 1.445 . S
C87 C88 1.370 . S
C88 C87 1.370 . S
C88 C89 1.438 . S
C88 H150 0.930 . S
C89 C75 1.497 . S
C89 C88 1.438 . S
C89 C90 1.360 . S
C90 C89 1.360 . S
C90 C91 1.401 . S
C90 C95 1.446 . S
C91 C90 1.401 . S
C91 C92 1.347 . S
C91 H151 0.929 . S
C92 C91 1.347 . S
C92 C93 1.455 . S
C92 H152 0.930 . S
C93 C80 1.412 . S
C93 C92 1.455 . S
C93 C94 1.331 . S
C94 C83 1.451 . S
C94 C93 1.331 . S
C94 C95 1.497 . S
C95 C86 1.395 . S
C95 C90 1.446 . S
C95 C94 1.497 . S
C96 C97 1.582 . S
C96 H153 0.962 . S
C96 H154 0.959 . S
C96 H155 0.958 . S
C97 C96 1.582 . S
C97 O100 1.458 . S
C97 H126 0.980 . S
O98 C43 1.426 . S
O98 C44 1.334 . S
O99 C71 1.412 . S
O99 C72 1.393 . S
O100 C62 1.435 . S
O100 C97 1.458 . S
O101 C53 1.468 . S
O101 C54 1.408 . S
H102 C43 0.980 . S
H103 C42 0.959 1_655 S
H104 C42 0.959 1_655 S
H105 C42 0.960 . S
H106 C45 0.929 . S
H107 C49 0.929 1_655 S
H108 C50 0.959 . S
H109 C50 0.961 . S
H110 C50 0.961 . S
H111 C51 0.960 . S
H112 C51 0.960 . S
H113 C51 0.961 . S
H114 C53 0.980 . S
H115 C52 0.961 . S
H116 C52 0.960 . S
H117 C52 0.959 . S
H118 C55 0.930 . S
H119 C59 0.931 . S
H120 C60 0.959 . S
H121 C60 0.961 . S
H122 C60 0.959 . S
H123 C61 0.960 . S
H124 C61 0.960 . S
H125 C61 0.960 . S
H126 C97 0.980 . S
H127 C63 0.930 . S
H128 C67 0.930 . S
H129 C68 0.961 . S
H130 C68 0.960 1_655 S
H131 C68 0.958 1_655 S
H132 C69 0.961 . S
H133 C69 0.960 . S
H134 C69 0.960 . S
H135 C71 0.980 . S
H136 C70 0.961 . S
H137 C70 0.961 . S
H138 C70 0.959 . S
H139 C73 0.932 1_655 S
H140 C77 0.929 . S
H141 C78 0.961 . S
H142 C78 0.959 . S
H143 C78 0.959 . S
H144 C79 0.960 . S
H145 C79 0.962 . S
H146 C79 0.961 . S
H147 C81 0.929 . S
H148 C84 0.930 . S
H149 C85 0.929 . S
H150 C88 0.930 . S
H151 C91 0.929 . S
H152 C92 0.930 . S
H153 C96 0.962 . S
H154 C96 0.959 . S
H155 C96 0.958 . S
C156 C157 1.547 1_565 S
C156 H217 0.986 . S
C156 H218 0.969 . S
C156 H219 0.938 1_565 S
C157 C156 1.547 1_545 S
C157 O212 1.426 . S
C157 H216 0.980 . S
C158 C159 1.407 . S
C158 C163 1.403 1_545 S
C158 O212 1.334 . S
C159 C158 1.407 . S
C159 C160 1.360 . S
C159 H220 0.929 . S
C160 C159 1.360 . S
C160 C161 1.401 . S
C160 C164 1.527 . S
C161 C160 1.401 . S
C161 C162 1.405 . S
C161 C194 1.587 . S
C162 C161 1.405 . S
C162 C163 1.335 1_545 S
C162 C165 1.496 1_545 S
C163 C158 1.403 1_565 S
C163 C162 1.335 1_565 S
C163 H221 0.941 . S
C164 C160 1.527 . S
C164 H222 0.959 . S
C164 H223 0.961 . S
C164 H224 0.961 . S
C165 C162 1.496 1_565 S
C165 H225 0.960 . S
C165 H226 0.960 . S
C165 H227 0.961 . S
C166 C167 1.517 . S
C166 H229 0.961 . S
C166 H230 0.960 . S
C166 H231 0.959 . S
C167 C166 1.517 . S
C167 O215 1.468 . S
C167 H228 0.980 . S
C168 C169 1.349 . S
C168 C173 1.367 . S
C168 O215 1.408 . S
C169 C168 1.349 . S
C169 C170 1.407 . S
C169 H232 0.930 . S
C170 C169 1.407 . S
C170 C171 1.449 . S
C170 C174 1.535 . S
C171 C170 1.449 . S
C171 C172 1.384 . S
C171 C196 1.553 . S
C172 C171 1.384 . S
C172 C173 1.364 . S
C172 C175 1.450 . S
C173 C168 1.367 . S
C173 C172 1.364 . S
C173 H233 0.931 . S
C174 C170 1.535 . S
C174 H234 0.959 . S
C174 H235 0.948 1_545 S
C174 H236 0.959 1_545 S
C175 C172 1.450 . S
C175 H237 0.960 . S
C175 H238 0.960 . S
C175 H239 0.960 . S
C176 C177 1.309 . S
C176 C181 1.304 . S
C176 O214 1.435 . S
C177 C176 1.309 . S
C177 C178 1.476 . S
C177 H241 0.930 . S
C178 C177 1.476 . S
C178 C179 1.400 . S
C178 C182 1.573 . S
C179 C178 1.400 . S
C179 C180 1.373 . S
C179 C201 1.432 . S
C180 C179 1.373 . S
C180 C181 1.339 . S
C180 C183 1.530 . S
C181 C176 1.304 . S
C181 C180 1.339 . S
C181 H242 0.930 . S
C182 C178 1.573 . S
C182 H243 0.965 . S
C182 H244 0.952 1_545 S
C182 H245 0.956 1_545 S
C183 C180 1.530 . S
C183 H246 0.961 . S
C183 H247 0.960 . S
C183 H248 0.960 . S
C184 C185 1.530 . S
C184 H250 0.961 . S
C184 H251 0.961 1_545 S
C184 H252 0.959 1_545 S
C185 C184 1.530 . S
C185 O213 1.412 . S
C185 H249 0.980 . S
C186 C187 1.288 1_545 S
C186 C191 1.377 . S
C186 O213 1.393 . S
C187 C186 1.288 1_565 S
C187 C188 1.369 1_565 S
C187 H253 0.932 . S
C188 C187 1.369 1_545 S
C188 C189 1.398 . S
C188 C192 1.527 1_545 S
C189 C188 1.398 . S
C189 C190 1.380 . S
C189 C203 1.497 . S
C190 C189 1.380 . S
C190 C191 1.383 . S
C190 C193 1.603 . S
C191 C186 1.377 . S
C191 C190 1.383 . S
C191 H254 0.929 . S
C192 C188 1.527 1_565 S
C192 H255 0.961 . S
C192 H256 0.959 . S
C192 H257 0.959 . S
C193 C190 1.603 . S
C193 H258 0.960 . S
C193 H259 0.962 . S
C193 H260 0.961 . S
C194 C161 1.587 . S
C194 C195 1.360 . S
C194 C207 1.412 . S
C195 C194 1.360 . S
C195 C196 1.365 . S
C195 H261 0.929 . S
C196 C171 1.553 . S
C196 C195 1.365 . S
C196 C197 1.404 . S
C197 C196 1.404 . S
C197 C198 1.395 . S
C197 C208 1.451 . S
C198 C197 1.395 . S
C198 C199 1.322 . S
C198 H262 0.930 . S
C199 C198 1.322 . S
C199 C200 1.459 . S
C199 H263 0.929 . S
C200 C199 1.459 . S
C200 C201 1.445 . S
C200 C209 1.395 . S
C201 C179 1.432 . S
C201 C200 1.445 . S
C201 C202 1.370 . S
C202 C201 1.370 . S
C202 C203 1.438 . S
C202 H264 0.930 . S
C203 C189 1.497 . S
C203 C202 1.438 . S
C203 C204 1.360 . S
C204 C203 1.360 . S
C204 C205 1.401 . S
C204 C209 1.446 . S
C205 C204 1.401 . S
C205 C206 1.347 . S
C205 H265 0.929 . S
C206 C205 1.347 . S
C206 C207 1.455 . S
C206 H266 0.930 . S
C207 C194 1.412 . S
C207 C206 1.455 . S
C207 C208 1.331 . S
C208 C197 1.451 . S
C208 C207 1.331 . S
C208 C209 1.497 . S
C209 C200 1.395 . S
C209 C204 1.446 . S
C209 C208 1.497 . S
C210 C211 1.582 . S
C210 H267 0.962 . S
C210 H268 0.959 . S
C210 H269 0.958 . S
C211 C210 1.582 . S
C211 O214 1.458 . S
C211 H240 0.980 . S
O212 C157 1.426 . S
O212 C158 1.334 . S
O213 C185 1.412 . S
O213 C186 1.393 . S
O214 C176 1.435 . S
O214 C211 1.458 . S
O215 C167 1.468 . S
O215 C168 1.408 . S
H216 C157 0.980 . S
H217 C156 0.986 . S
H218 C156 0.969 . S
H219 C156 0.938 1_545 S
H220 C159 0.929 . S
H221 C163 0.941 . S
H222 C164 0.959 . S
H223 C164 0.961 . S
H224 C164 0.961 . S
H225 C165 0.960 . S
H226 C165 0.960 . S
H227 C165 0.961 . S
H228 C167 0.980 . S
H229 C166 0.961 . S
H230 C166 0.960 . S
H231 C166 0.959 . S
H232 C169 0.930 . S
H233 C173 0.931 . S
H234 C174 0.959 . S
H235 C174 0.948 1_565 S
H236 C174 0.959 1_565 S
H237 C175 0.960 . S
H238 C175 0.960 . S
H239 C175 0.960 . S
H240 C211 0.980 . S
H241 C177 0.930 . S
H242 C181 0.930 . S
H243 C182 0.965 . S
H244 C182 0.952 1_565 S
H245 C182 0.956 1_565 S
H246 C183 0.961 . S
H247 C183 0.960 . S
H248 C183 0.960 . S
H249 C185 0.980 . S
H250 C184 0.961 . S
H251 C184 0.961 1_565 S
H252 C184 0.959 1_565 S
H253 C187 0.932 . S
H254 C191 0.929 . S
H255 C192 0.961 . S
H256 C192 0.959 . S
H257 C192 0.959 . S
H258 C193 0.960 . S
H259 C193 0.962 . S
H260 C193 0.961 . S
H261 C195 0.929 . S
H262 C198 0.930 . S
H263 C199 0.929 . S
H264 C202 0.930 . S
H265 C205 0.929 . S
H266 C206 0.930 . S
H267 C210 0.962 . S
H268 C210 0.959 . S
H269 C210 0.958 . S
C270 C271 1.560 . S
C270 H331 0.959 . S
C270 H332 0.959 . S
C270 H333 0.960 . S
C271 C270 1.560 . S
C271 O326 1.426 . S
C271 H330 0.980 . S
C272 C273 1.407 . S
C272 C277 1.418 . S
C272 O326 1.334 . S
C273 C272 1.407 . S
C273 C274 1.360 . S
C273 H334 0.929 . S
C274 C273 1.360 . S
C274 C275 1.401 . S
C274 C278 1.527 . S
C275 C274 1.401 . S
C275 C276 1.405 . S
C275 C308 1.587 . S
C276 C275 1.405 . S
C276 C277 1.332 . S
C276 C279 1.496 . S
C277 C272 1.418 . S
C277 C276 1.332 . S
C277 H335 0.929 . S
C278 C274 1.527 . S
C278 H336 0.959 . S
C278 H337 0.961 . S
C278 H338 0.961 . S
C279 C276 1.496 . S
C279 H339 0.960 . S
C279 H340 0.960 . S
C279 H341 0.961 . S
C280 C281 1.517 . S
C280 H343 0.961 . S
C280 H344 0.960 . S
C280 H345 0.959 . S
C281 C280 1.517 . S
C281 O329 1.468 . S
C281 H342 0.980 . S
C282 C283 1.349 . S
C282 C287 1.367 . S
C282 O329 1.408 . S
C283 C282 1.349 . S
C283 C284 1.407 . S
C283 H346 0.930 . S
C284 C283 1.407 . S
C284 C285 1.449 . S
C284 C288 1.535 . S
C285 C284 1.449 . S
C285 C286 1.384 . S
C285 C310 1.553 . S
C286 C285 1.384 . S
C286 C287 1.364 . S
C286 C289 1.450 . S
C287 C282 1.367 . S
C287 C286 1.364 . S
C287 H347 0.931 . S
C288 C284 1.535 . S
C288 H348 0.959 . S
C288 H349 0.961 . S
C288 H350 0.959 . S
C289 C286 1.450 . S
C289 H351 0.960 . S
C289 H352 0.960 . S
C289 H353 0.960 . S
C290 C291 1.309 . S
C290 C295 1.304 . S
C290 O328 1.435 . S
C291 C290 1.309 . S
C291 C292 1.476 . S
C291 H355 0.930 . S
C292 C291 1.476 . S
C292 C293 1.400 . S
C292 C296 1.567 . S
C293 C292 1.400 . S
C293 C294 1.373 . S
C293 C315 1.432 . S
C294 C293 1.373 . S
C294 C295 1.339 . S
C294 C297 1.530 . S
C295 C290 1.304 . S
C295 C294 1.339 . S
C295 H356 0.930 . S
C296 C292 1.567 . S
C296 H357 0.961 . S
C296 H358 0.960 . S
C296 H359 0.958 . S
C297 C294 1.530 . S
C297 H360 0.961 . S
C297 H361 0.960 . S
C297 H362 0.960 . S
C298 C299 1.530 . S
C298 H364 0.961 . S
C298 H365 0.961 . S
C298 H366 0.959 . S
C299 C298 1.530 . S
C299 O327 1.412 . S
C299 H363 0.980 . S
C300 C301 1.288 . S
C300 C305 1.377 . S
C300 O327 1.393 . S
C301 C300 1.288 . S
C301 C302 1.369 . S
C301 H367 0.932 . S
C302 C301 1.369 . S
C302 C303 1.398 . S
C302 C306 1.527 . S
C303 C302 1.398 . S
C303 C304 1.380 . S
C303 C317 1.497 . S
C304 C303 1.380 . S
C304 C305 1.383 . S
C304 C307 1.603 . S
C305 C300 1.377 . S
C305 C304 1.383 . S
C305 H368 0.929 . S
C306 C302 1.527 . S
C306 H369 0.961 . S
C306 H370 0.959 . S
C306 H371 0.959 . S
C307 C304 1.603 . S
C307 H372 0.960 . S
C307 H373 0.962 . S
C307 H374 0.961 . S
C308 C275 1.587 . S
C308 C309 1.360 . S
C308 C321 1.412 . S
C309 C308 1.360 . S
C309 C310 1.365 . S
C309 H375 0.929 . S
C310 C285 1.553 . S
C310 C309 1.365 . S
C310 C311 1.404 . S
C311 C310 1.404 . S
C311 C312 1.395 . S
C311 C322 1.451 . S
C312 C311 1.395 . S
C312 C313 1.322 . S
C312 H376 0.930 . S
C313 C312 1.322 . S
C313 C314 1.459 . S
C313 H377 0.929 . S
C314 C313 1.459 . S
C314 C315 1.445 . S
C314 C323 1.395 . S
C315 C293 1.432 . S
C315 C314 1.445 . S
C315 C316 1.370 . S
C316 C315 1.370 . S
C316 C317 1.438 . S
C316 H378 0.930 . S
C317 C303 1.497 . S
C317 C316 1.438 . S
C317 C318 1.360 . S
C318 C317 1.360 . S
C318 C319 1.401 . S
C318 C323 1.446 . S
C319 C318 1.401 . S
C319 C320 1.347 . S
C319 H379 0.929 . S
C320 C319 1.347 . S
C320 C321 1.455 . S
C320 H380 0.930 . S
C321 C308 1.412 . S
C321 C320 1.455 . S
C321 C322 1.331 . S
C322 C311 1.451 . S
C322 C321 1.331 . S
C322 C323 1.497 . S
C323 C314 1.395 . S
C323 C318 1.446 . S
C323 C322 1.497 . S
C324 C325 1.582 . S
C324 H381 0.962 . S
C324 H382 0.959 . S
C324 H383 0.958 . S
C325 C324 1.582 . S
C325 O328 1.458 . S
C325 H354 0.980 . S
O326 C271 1.426 . S
O326 C272 1.334 . S
O327 C299 1.412 . S
O327 C300 1.393 . S
O328 C290 1.435 . S
O328 C325 1.458 . S
O329 C281 1.468 . S
O329 C282 1.408 . S
H330 C271 0.980 . S
H331 C270 0.959 . S
H332 C270 0.959 . S
H333 C270 0.960 . S
H334 C273 0.929 . S
H335 C277 0.929 . S
H336 C278 0.959 . S
H337 C278 0.961 . S
H338 C278 0.961 . S
H339 C279 0.960 . S
H340 C279 0.960 . S
H341 C279 0.961 . S
H342 C281 0.980 . S
H343 C280 0.961 . S
H344 C280 0.960 . S
H345 C280 0.959 . S
H346 C283 0.930 . S
H347 C287 0.931 . S
H348 C288 0.959 . S
H349 C288 0.961 . S
H350 C288 0.959 . S
H351 C289 0.960 . S
H352 C289 0.960 . S
H353 C289 0.960 . S
H354 C325 0.980 . S
H355 C291 0.930 . S
H356 C295 0.930 . S
H357 C296 0.961 . S
H358 C296 0.960 . S
H359 C296 0.958 . S
H360 C297 0.961 . S
H361 C297 0.960 . S
H362 C297 0.960 . S
H363 C299 0.980 . S
H364 C298 0.961 . S
H365 C298 0.961 . S
H366 C298 0.959 . S
H367 C301 0.932 . S
H368 C305 0.929 . S
H369 C306 0.961 . S
H370 C306 0.959 . S
H371 C306 0.959 . S
H372 C307 0.960 . S
H373 C307 0.962 . S
H374 C307 0.961 . S
H375 C309 0.929 . S
H376 C312 0.930 . S
H377 C313 0.929 . S
H378 C316 0.930 . S
H379 C319 0.929 . S
H380 C320 0.930 . S
H381 C324 0.962 . S
H382 C324 0.959 . S
H383 C324 0.958 . S
H384 C402 0.951 . S
H385 C404 0.951 . S
H386 C406 0.950 . S
H387 C407 0.950 . S
H388 C409 0.950 . S
H389 C412 0.950 . S
H390 C413 0.950 . S
H391 C415 0.950 . S
H392 C416 0.950 . S
H393 C417 0.951 . S
H394 C419 0.951 . S
H395 C421 0.950 . S
H396 C422 0.950 . S
H397 C424 0.939 1_655 S
H398 C427 0.950 . S
H399 C428 0.950 . S
H400 C430 0.950 . S
H401 C431 0.950 . S
C402 H384 0.951 . S
C402 C403 1.366 . S
C402 C404 1.388 . S
C403 C402 1.366 . S
C403 C407 1.385 . S
C404 H385 0.951 . S
C404 C402 1.388 . S
C404 C405 1.366 . S
C405 C404 1.366 . S
C405 C406 1.414 . S
C405 C408 1.499 . S
C406 H386 0.950 . S
C406 C405 1.414 . S
C406 C407 1.374 . S
C407 H387 0.950 . S
C407 C403 1.385 . S
C407 C406 1.374 . S
C408 C405 1.499 . S
C408 C409 1.373 . S
C408 C410 1.389 . S
C409 H388 0.950 . S
C409 C408 1.373 . S
C409 C425 1.377 . S
C410 C408 1.389 . S
C410 C411 1.524 1_455 S
C410 C424 1.377 . S
C411 C410 1.524 1_655 S
C411 C412 1.397 . S
C411 C416 1.363 . S
C412 H389 0.950 . S
C412 C411 1.397 . S
C412 C413 1.334 . S
C413 H390 0.950 . S
C413 C412 1.334 . S
C413 C414 1.287 . S
C414 C413 1.287 . S
C414 C415 1.524 . S
C414 H433 0.913 . S
C415 H391 0.950 . S
C415 C414 1.524 . S
C415 C416 1.415 . S
C416 H392 0.950 . S
C416 C411 1.363 . S
C416 C415 1.415 . S
C417 H393 0.951 . S
C417 C418 1.366 . S
C417 C419 1.388 . S
C418 C417 1.366 . S
C418 C422 1.385 . S
C419 H394 0.951 . S
C419 C417 1.388 . S
C419 C420 1.366 . S
C420 C419 1.366 . S
C420 C421 1.414 . S
C420 C423 1.499 . S
C421 H395 0.950 . S
C421 C420 1.414 . S
C421 C422 1.374 . S
C422 H396 0.950 . S
C422 C418 1.385 . S
C422 C421 1.374 . S
C423 C420 1.499 . S
C423 C424 1.373 . S
C423 C425 1.389 . S
C424 H397 0.939 1_455 S
C424 C410 1.377 . S
C424 C423 1.373 . S
C425 C409 1.377 . S
C425 C423 1.389 . S
C425 C426 1.524 . S
C426 C425 1.524 . S
C426 C427 1.397 . S
C426 C431 1.363 . S
C427 H398 0.950 . S
C427 C426 1.397 . S
C427 C428 1.334 . S
C428 H399 0.950 . S
C428 C427 1.334 . S
C428 C429 1.287 . S
C429 C428 1.287 . S
C429 C430 1.524 . S
C429 H432 0.999 . S
C430 H400 0.950 . S
C430 C429 1.524 . S
C430 C431 1.415 . S
C431 H401 0.950 . S
C431 C426 1.363 . S
C431 C430 1.415 . S
H432 C429 0.999 . S
H433 C414 0.913 . S
H434 C452 0.951 . S
H435 C454 0.951 . S
H436 C456 0.950 . S
H437 C457 0.950 . S
H438 C459 0.950 . S
H439 C462 0.950 . S
H440 C463 0.950 . S
H441 C465 0.950 . S
H442 C466 0.950 . S
H443 C467 0.951 . S
H444 C469 0.951 . S
H445 C471 0.950 . S
H446 C472 0.950 . S
H447 C474 0.950 . S
H448 C477 0.950 . S
H449 C478 0.950 . S
H450 C480 0.950 . S
H451 C481 0.950 1_545 S
C452 H434 0.951 . S
C452 C453 1.366 . S
C452 C454 1.388 . S
C453 C452 1.366 . S
C453 C457 1.385 . S
C454 H435 0.951 . S
C454 C452 1.388 . S
C454 C455 1.366 . S
C455 C454 1.366 . S
C455 C456 1.414 . S
C455 C458 1.499 . S
C456 H436 0.950 . S
C456 C455 1.414 . S
C456 C457 1.374 . S
C457 H437 0.950 . S
C457 C453 1.385 . S
C457 C456 1.374 . S
C458 C455 1.499 . S
C458 C459 1.373 . S
C458 C460 1.389 . S
C459 H438 0.950 . S
C459 C458 1.373 . S
C459 C475 1.377 . S
C460 C458 1.389 . S
C460 C461 1.524 . S
C460 C474 1.377 . S
C461 C460 1.524 . S
C461 C462 1.397 . S
C461 C466 1.363 . S
C462 H439 0.950 . S
C462 C461 1.397 . S
C462 C463 1.334 . S
C463 H440 0.950 . S
C463 C462 1.334 . S
C463 C464 1.287 . S
C464 C463 1.287 . S
C464 C465 1.524 . S
C464 H483 0.913 . S
C465 H441 0.950 . S
C465 C464 1.524 . S
C465 C466 1.415 . S
C466 H442 0.950 . S
C466 C461 1.363 . S
C466 C465 1.415 . S
C467 H443 0.951 . S
C467 C468 1.366 . S
C467 C469 1.388 . S
C468 C467 1.366 . S
C468 C472 1.385 . S
C469 H444 0.951 . S
C469 C467 1.388 . S
C469 C470 1.366 . S
C470 C469 1.366 . S
C470 C471 1.414 . S
C470 C473 1.499 . S
C471 H445 0.950 . S
C471 C470 1.414 . S
C471 C472 1.374 . S
C472 H446 0.950 . S
C472 C468 1.385 . S
C472 C471 1.374 . S
C473 C470 1.499 . S
C473 C474 1.373 . S
C473 C475 1.389 . S
C474 H447 0.950 . S
C474 C460 1.377 . S
C474 C473 1.373 . S
C475 C459 1.377 . S
C475 C473 1.389 . S
C475 C476 1.524 1_545 S
C476 C475 1.524 1_565 S
C476 C477 1.397 . S
C476 C481 1.363 . S
C477 H448 0.950 . S
C477 C476 1.397 . S
C477 C478 1.334 . S
C478 H449 0.950 . S
C478 C477 1.334 . S
C478 C479 1.287 . S
C479 C478 1.287 . S
C479 C480 1.524 . S
C479 H482 0.999 . S
C480 H450 0.950 . S
C480 C479 1.524 . S
C480 C481 1.415 . S
C481 H451 0.950 1_565 S
C481 C476 1.363 . S
C481 C480 1.415 . S
H482 C479 0.999 . S
H483 C464 0.913 . S
H484 C502 0.951 . S
H485 C504 0.951 . S
H486 C506 0.950 . S
H487 C507 0.950 . S
H488 C509 0.950 . S
H489 C512 0.950 . S
H490 C513 0.950 . S
H491 C515 0.950 . S
H492 C516 0.950 . S
H493 C517 0.951 . S
H494 C519 0.951 . S
H495 C521 0.950 . S
H496 C522 0.950 . S
H497 C524 0.950 . S
H498 C527 0.950 . S
H499 C528 0.950 . S
H500 C530 0.950 . S
H501 C531 0.950 . S
C502 H484 0.951 . S
C502 C503 1.366 . S
C502 C504 1.388 . S
C503 C502 1.366 . S
C503 C507 1.385 . S
C504 H485 0.951 . S
C504 C502 1.388 . S
C504 C505 1.366 . S
C505 C504 1.366 . S
C505 C506 1.414 . S
C505 C508 1.499 . S
C506 H486 0.950 . S
C506 C505 1.414 . S
C506 C507 1.374 . S
C507 H487 0.950 . S
C507 C503 1.385 . S
C507 C506 1.374 . S
C508 C505 1.499 . S
C508 C509 1.373 . S
C508 C510 1.389 . S
C509 H488 0.950 . S
C509 C508 1.373 . S
C509 C525 1.377 . S
C510 C508 1.389 . S
C510 C511 1.524 . S
C510 C524 1.377 . S
C511 C510 1.524 . S
C511 C512 1.397 . S
C511 C516 1.363 . S
C512 H489 0.950 . S
C512 C511 1.397 . S
C512 C513 1.334 . S
C513 H490 0.950 . S
C513 C512 1.334 . S
C513 C514 1.287 . S
C514 C513 1.287 . S
C514 C515 1.524 . S
C514 H533 0.913 1_655 S
C515 H491 0.950 . S
C515 C514 1.524 . S
C515 C516 1.415 . S
C516 H492 0.950 . S
C516 C511 1.363 . S
C516 C515 1.415 . S
C517 H493 0.951 . S
C517 C518 1.366 . S
C517 C519 1.388 . S
C518 C517 1.366 . S
C518 C522 1.385 . S
C519 H494 0.951 . S
C519 C517 1.388 . S
C519 C520 1.366 . S
C520 C519 1.366 . S
C520 C521 1.414 . S
C520 C523 1.499 . S
C521 H495 0.950 . S
C521 C520 1.414 . S
C521 C522 1.374 . S
C522 H496 0.950 . S
C522 C518 1.385 . S
C522 C521 1.374 . S
C523 C520 1.499 . S
C523 C524 1.373 . S
C523 C525 1.389 . S
C524 H497 0.950 . S
C524 C510 1.377 . S
C524 C523 1.373 . S
C525 C509 1.377 . S
C525 C523 1.389 . S
C525 C526 1.524 . S
C526 C525 1.524 . S
C526 C527 1.397 . S
C526 C531 1.363 . S
C527 H498 0.950 . S
C527 C526 1.397 . S
C527 C528 1.334 . S
C528 H499 0.950 . S
C528 C527 1.334 . S
C528 C529 1.287 . S
C529 C528 1.287 . S
C529 C530 1.524 . S
C529 H532 0.999 . S
C530 H500 0.950 . S
C530 C529 1.524 . S
C530 C531 1.415 . S
C531 H501 0.950 . S
C531 C526 1.363 . S
C531 C530 1.415 . S
H532 C529 0.999 . S
H533 C514 0.913 1_455 S
H534 C552 0.951 . S
H535 C554 0.951 . S
H536 C556 0.950 . S
H537 C557 0.950 . S
H538 C559 0.950 . S
H539 C562 0.950 . S
H540 C563 0.950 1_545 S
H541 C565 0.950 . S
H542 C566 0.950 . S
H543 C567 0.951 . S
H544 C569 0.951 . S
H545 C571 0.950 . S
H546 C572 0.950 . S
H547 C574 0.950 . S
H548 C577 0.950 . S
H549 C578 0.950 . S
H550 C580 0.950 . S
H551 C581 0.950 . S
C552 H534 0.951 . S
C552 C553 1.366 . S
C552 C554 1.388 . S
C553 C552 1.366 . S
C553 C557 1.385 . S
C554 H535 0.951 . S
C554 C552 1.388 . S
C554 C555 1.366 . S
C555 C554 1.366 . S
C555 C556 1.414 . S
C555 C558 1.499 . S
C556 H536 0.950 . S
C556 C555 1.414 . S
C556 C557 1.374 . S
C557 H537 0.950 . S
C557 C553 1.385 . S
C557 C556 1.374 . S
C558 C555 1.499 . S
C558 C559 1.373 . S
C558 C560 1.389 . S
C559 H538 0.950 . S
C559 C558 1.373 . S
C559 C575 1.377 . S
C560 C558 1.389 . S
C560 C561 1.524 . S
C560 C574 1.377 . S
C561 C560 1.524 . S
C561 C562 1.397 . S
C561 C566 1.363 . S
C562 H539 0.950 . S
C562 C561 1.397 . S
C562 C563 1.334 . S
C563 H540 0.950 1_565 S
C563 C562 1.334 . S
C563 C564 1.287 . S
C564 C563 1.287 . S
C564 C565 1.524 . S
C564 H583 0.913 1_565 S
C565 H541 0.950 . S
C565 C564 1.524 . S
C565 C566 1.415 . S
C566 H542 0.950 . S
C566 C561 1.363 . S
C566 C565 1.415 . S
C567 H543 0.951 . S
C567 C568 1.366 . S
C567 C569 1.388 . S
C568 C567 1.366 . S
C568 C572 1.385 . S
C569 H544 0.951 . S
C569 C567 1.388 . S
C569 C570 1.366 . S
C570 C569 1.366 . S
C570 C571 1.414 . S
C570 C573 1.499 . S
C571 H545 0.950 . S
C571 C570 1.414 . S
C571 C572 1.374 . S
C572 H546 0.950 . S
C572 C568 1.385 . S
C572 C571 1.374 . S
C573 C570 1.499 . S
C573 C574 1.373 . S
C573 C575 1.389 . S
C574 H547 0.950 . S
C574 C560 1.377 . S
C574 C573 1.373 . S
C575 C559 1.377 . S
C575 C573 1.389 . S
C575 C576 1.524 . S
C576 C575 1.524 . S
C576 C577 1.397 . S
C576 C581 1.363 . S
C577 H548 0.950 . S
C577 C576 1.397 . S
C577 C578 1.334 . S
C578 H549 0.950 . S
C578 C577 1.334 . S
C578 C579 1.287 . S
C579 C578 1.287 . S
C579 C580 1.524 . S
C579 H582 0.999 . S
C580 H550 0.950 . S
C580 C579 1.524 . S
C580 C581 1.415 . S
C581 H551 0.950 . S
C581 C576 1.363 . S
C581 C580 1.415 . S
H582 C579 0.999 . S
H583 C564 0.913 1_545 S
H584 C602 0.951 . S
H585 C604 0.951 . S
H586 C606 0.950 1_565 S
H587 C607 0.950 1_565 S
H588 C609 0.950 . S
H589 C612 0.950 . S
H590 C613 0.950 . S
H591 C615 0.950 . S
H592 C616 0.950 . S
H593 C617 0.951 1_565 S
H594 C619 0.951 1_565 S
H595 C621 0.950 . S
H596 C622 0.950 . S
H597 C624 0.950 . S
H598 C627 0.950 . S
H599 C628 0.950 . S
H600 C630 0.950 . S
H601 C631 0.950 . S
C602 H584 0.951 . S
C602 C603 1.366 . S
C602 C604 1.388 . S
C603 C602 1.366 . S
C603 C607 1.385 . S
C604 H585 0.951 . S
C604 C602 1.388 . S
C604 C605 1.366 . S
C605 C604 1.366 . S
C605 C606 1.414 . S
C605 C608 1.499 . S
C606 H586 0.950 1_545 S
C606 C605 1.414 . S
C606 C607 1.374 . S
C607 H587 0.950 1_545 S
C607 C603 1.385 . S
C607 C606 1.374 . S
C608 C605 1.499 . S
C608 C609 1.373 . S
C608 C610 1.389 . S
C609 H588 0.950 . S
C609 C608 1.373 . S
C609 C625 1.377 . S
C610 C608 1.389 . S
C610 C611 1.524 . S
C610 C624 1.377 . S
C611 C610 1.524 . S
C611 C612 1.397 . S
C611 C616 1.363 . S
C612 H589 0.950 . S
C612 C611 1.397 . S
C612 C613 1.334 . S
C613 H590 0.950 . S
C613 C612 1.334 . S
C613 C614 1.287 . S
C614 C613 1.287 . S
C614 C615 1.524 . S
C614 H633 0.913 . S
C615 H591 0.950 . S
C615 C614 1.524 . S
C615 C616 1.415 . S
C616 H592 0.950 . S
C616 C611 1.363 . S
C616 C615 1.415 . S
C617 H593 0.951 1_545 S
C617 C618 1.366 . S
C617 C619 1.388 . S
C618 C617 1.366 . S
C618 C622 1.385 . S
C619 H594 0.951 1_545 S
C619 C617 1.388 . S
C619 C620 1.366 . S
C620 C619 1.366 . S
C620 C621 1.414 . S
C620 C623 1.499 . S
C621 H595 0.950 . S
C621 C620 1.414 . S
C621 C622 1.374 . S
C622 H596 0.950 . S
C622 C618 1.385 . S
C622 C621 1.374 . S
C623 C620 1.499 . S
C623 C624 1.373 . S
C623 C625 1.389 . S
C624 H597 0.950 . S
C624 C610 1.377 . S
C624 C623 1.373 . S
C625 C609 1.377 . S
C625 C623 1.389 . S
C625 C626 1.524 . S
C626 C625 1.524 . S
C626 C627 1.397 . S
C626 C631 1.363 1_545 S
C627 H598 0.950 . S
C627 C626 1.397 . S
C627 C628 1.334 . S
C628 H599 0.950 . S
C628 C627 1.334 . S
C628 C629 1.287 1_545 S
C629 C628 1.287 1_565 S
C629 C630 1.524 . S
C629 H632 0.999 . S
C630 H600 0.950 . S
C630 C629 1.524 . S
C630 C631 1.415 . S
C631 H601 0.950 . S
C631 C626 1.363 1_565 S
C631 C630 1.415 . S
H632 C629 0.999 . S
H633 C614 0.913 . S
H634 C652 0.951 . S
H635 C654 0.951 . S
H636 C656 0.950 . S
H637 C657 0.950 . S
H638 C659 0.950 . S
H639 C662 0.950 . S
H640 C663 0.950 . S
H641 C665 0.950 . S
H642 C666 0.950 . S
H643 C667 0.951 . S
H644 C669 0.951 . S
H645 C671 0.950 . S
H646 C672 0.950 . S
H647 C674 0.950 . S
H648 C677 0.950 . S
H649 C678 0.950 . S
H650 C680 0.950 . S
H651 C681 0.950 . S
C652 H634 0.951 . S
C652 C653 1.366 . S
C652 C654 1.388 . S
C653 C652 1.366 . S
C653 C657 1.385 . S
C654 H635 0.951 . S
C654 C652 1.388 . S
C654 C655 1.366 . S
C655 C654 1.366 . S
C655 C656 1.414 . S
C655 C658 1.499 . S
C656 H636 0.950 . S
C656 C655 1.414 . S
C656 C657 1.374 . S
C657 H637 0.950 . S
C657 C653 1.385 . S
C657 C656 1.374 . S
C658 C655 1.499 . S
C658 C659 1.373 . S
C658 C660 1.389 . S
C659 H638 0.950 . S
C659 C658 1.373 . S
C659 C675 1.377 . S
C660 C658 1.389 . S
C660 C661 1.524 . S
C660 C674 1.377 . S
C661 C660 1.524 . S
C661 C662 1.397 . S
C661 C666 1.363 . S
C662 H639 0.950 . S
C662 C661 1.397 . S
C662 C663 1.334 . S
C663 H640 0.950 . S
C663 C662 1.334 . S
C663 C664 1.287 . S
C664 C663 1.287 . S
C664 C665 1.524 . S
C664 H683 0.913 . S
C665 H641 0.950 . S
C665 C664 1.524 . S
C665 C666 1.415 . S
C666 H642 0.950 . S
C666 C661 1.363 . S
C666 C665 1.415 . S
C667 H643 0.951 . S
C667 C668 1.366 . S
C667 C669 1.388 . S
C668 C667 1.366 . S
C668 C672 1.385 . S
C669 H644 0.951 . S
C669 C667 1.388 . S
C669 C670 1.366 . S
C670 C669 1.366 . S
C670 C671 1.414 . S
C670 C673 1.499 . S
C671 H645 0.950 . S
C671 C670 1.414 . S
C671 C672 1.374 . S
C672 H646 0.950 . S
C672 C668 1.385 . S
C672 C671 1.374 . S
C673 C670 1.499 . S
C673 C674 1.373 . S
C673 C675 1.389 . S
C674 H647 0.950 . S
C674 C660 1.377 . S
C674 C673 1.373 . S
C675 C659 1.377 . S
C675 C673 1.389 . S
C675 C676 1.524 . S
C676 C675 1.524 . S
C676 C677 1.397 . S
C676 C681 1.363 . S
C677 H648 0.950 . S
C677 C676 1.397 . S
C677 C678 1.334 . S
C678 H649 0.950 . S
C678 C677 1.334 . S
C678 C679 1.287 . S
C679 C678 1.287 . S
C679 C680 1.524 . S
C679 H682 0.999 . S
C680 H650 0.950 . S
C680 C679 1.524 . S
C680 C681 1.415 . S
C681 H651 0.950 . S
C681 C676 1.363 . S
C681 C680 1.415 . S
H682 C679 0.999 . S
H683 C664 0.913 . S
H684 C702 0.951 . S
H685 C704 0.951 . S
H686 C706 0.950 . S
H687 C707 0.950 1_455 S
H688 C709 0.950 . S
H689 C712 0.950 . S
H690 C713 0.950 . S
H691 C715 0.950 . S
H692 C716 0.950 . S
H693 C717 0.951 . S
H694 C719 0.951 . S
H695 C721 0.950 . S
H696 C722 0.950 . S
H697 C724 0.950 1_565 S
H698 C727 0.950 . S
H699 C728 0.950 . S
H700 C730 0.950 . S
H701 C731 0.950 . S
C702 H684 0.951 . S
C702 C703 1.366 . S
C702 C704 1.388 . S
C703 C702 1.366 . S
C703 C707 1.385 . S
C704 H685 0.951 . S
C704 C702 1.388 . S
C704 C705 1.366 . S
C705 C704 1.366 . S
C705 C706 1.414 . S
C705 C708 1.499 . S
C706 H686 0.950 . S
C706 C705 1.414 . S
C706 C707 1.374 . S
C707 H687 0.950 1_655 S
C707 C703 1.385 . S
C707 C706 1.374 . S
C708 C705 1.499 . S
C708 C709 1.373 . S
C708 C710 1.389 . S
C709 H688 0.950 . S
C709 C708 1.373 . S
C709 C725 1.377 . S
C710 C708 1.389 . S
C710 C711 1.524 1_545 S
C710 C724 1.377 . S
C711 C710 1.524 1_565 S
C711 C712 1.397 . S
C711 C716 1.363 . S
C712 H689 0.950 . S
C712 C711 1.397 . S
C712 C713 1.334 . S
C713 H690 0.950 . S
C713 C712 1.334 . S
C713 C714 1.287 . S
C714 C713 1.287 . S
C714 C715 1.524 . S
C714 H733 0.913 . S
C715 H691 0.950 . S
C715 C714 1.524 . S
C715 C716 1.415 . S
C716 H692 0.950 . S
C716 C711 1.363 . S
C716 C715 1.415 . S
C717 H693 0.951 . S
C717 C718 1.366 . S
C717 C719 1.388 . S
C718 C717 1.366 . S
C718 C722 1.385 . S
C719 H694 0.951 . S
C719 C717 1.388 . S
C719 C720 1.366 . S
C720 C719 1.366 . S
C720 C721 1.414 . S
C720 C723 1.499 . S
C721 H695 0.950 . S
C721 C720 1.414 . S
C721 C722 1.374 . S
C722 H696 0.950 . S
C722 C718 1.385 . S
C722 C721 1.374 . S
C723 C720 1.499 . S
C723 C724 1.373 . S
C723 C725 1.389 . S
C724 H697 0.950 1_545 S
C724 C710 1.377 . S
C724 C723 1.373 . S
C725 C709 1.377 . S
C725 C723 1.389 . S
C725 C726 1.524 . S
C726 C725 1.524 . S
C726 C727 1.397 . S
C726 C731 1.363 . S
C727 H698 0.950 . S
C727 C726 1.397 . S
C727 C728 1.334 . S
C728 H699 0.950 . S
C728 C727 1.334 . S
C728 C729 1.287 . S
C729 C728 1.287 . S
C729 C730 1.524 . S
C729 H732 0.999 . S
C730 H700 0.950 . S
C730 C729 1.524 . S
C730 C731 1.415 . S
C731 H701 0.950 . S
C731 C726 1.363 . S
C731 C730 1.415 . S
H732 C729 0.999 . S
H733 C714 0.913 . S
H734 C752 0.927 1_455 S
H735 C754 0.951 . S
H736 C756 0.950 . S
H737 C757 0.950 . S
H738 C759 0.950 . S
H739 C762 0.950 1_554 S
H740 C763 0.950 . S
H741 C765 0.950 . S
H742 C766 0.950 . S
H743 C767 0.951 . S
H744 C769 0.951 . S
H745 C771 0.950 . S
H746 C772 0.950 . S
H747 C774 0.950 . S
H748 C777 0.950 . S
H749 C778 0.950 . S
H750 C780 0.950 . S
H751 C781 0.950 . S
C752 H734 0.927 1_655 S
C752 C753 1.366 . S
C752 C754 1.388 . S
C753 C752 1.366 . S
C753 C757 1.385 . S
C754 H735 0.951 . S
C754 C752 1.388 . S
C754 C755 1.366 . S
C755 C754 1.366 . S
C755 C756 1.414 . S
C755 C758 1.499 . S
C756 H736 0.950 . S
C756 C755 1.414 . S
C756 C757 1.374 . S
C757 H737 0.950 . S
C757 C753 1.385 . S
C757 C756 1.374 . S
C758 C755 1.499 . S
C758 C759 1.373 . S
C758 C760 1.366 1_554 S
C759 H738 0.950 . S
C759 C758 1.373 . S
C759 C775 1.377 . S
C760 C758 1.366 1_556 S
C760 C761 1.535 . S
C760 C774 1.391 . S
C761 C760 1.535 . S
C761 C762 1.397 . S
C761 C766 1.363 . S
C762 H739 0.950 1_556 S
C762 C761 1.397 . S
C762 C763 1.334 1_565 S
C763 H740 0.950 . S
C763 C762 1.334 1_545 S
C763 C764 1.287 . S
C764 C763 1.287 . S
C764 C765 1.524 1_545 S
C764 H783 0.913 . S
C765 H741 0.950 . S
C765 C764 1.524 1_565 S
C765 C766 1.415 . S
C766 H742 0.950 . S
C766 C761 1.363 . S
C766 C765 1.415 . S
C767 H743 0.951 . S
C767 C768 1.366 . S
C767 C769 1.388 . S
C768 C767 1.366 . S
C768 C772 1.385 . S
C769 H744 0.951 . S
C769 C767 1.388 . S
C769 C770 1.366 . S
C770 C769 1.366 . S
C770 C771 1.414 . S
C770 C773 1.499 . S
C771 H745 0.950 . S
C771 C770 1.414 . S
C771 C772 1.374 . S
C772 H746 0.950 . S
C772 C768 1.385 . S
C772 C771 1.374 . S
C773 C770 1.499 . S
C773 C774 1.373 . S
C773 C775 1.389 1_556 S
C774 H747 0.950 . S
C774 C760 1.391 . S
C774 C773 1.373 . S
C775 C759 1.377 . S
C775 C773 1.389 1_554 S
C775 C776 1.524 . S
C776 C775 1.524 . S
C776 C777 1.397 . S
C776 C781 1.363 . S
C777 H748 0.950 . S
C777 C776 1.397 . S
C777 C778 1.334 . S
C778 H749 0.950 . S
C778 C777 1.334 . S
C778 C779 1.287 . S
C779 C778 1.287 . S
C779 C780 1.524 . S
C779 H782 0.999 . S
C780 H750 0.950 . S
C780 C779 1.524 . S
C780 C781 1.415 . S
C781 H751 0.950 . S
C781 C776 1.363 . S
C781 C780 1.415 . S
H782 C779 0.999 . S
H783 C764 0.913 . S
H784 C802 0.951 . S
H785 C804 0.951 . S
H786 C806 0.950 1_655 S
H787 C807 0.950 1_655 S
H788 C809 0.950 1_655 S
H789 C812 0.950 . S
H790 C813 0.950 1_545 S
H791 C815 0.950 . S
H792 C816 0.950 . S
H793 C817 0.951 . S
H794 C819 0.951 . S
H795 C821 0.950 . S
H796 C822 0.950 . S
H797 C824 0.950 . S
H798 C827 0.950 . S
H799 C828 0.950 . S
H800 C830 0.950 . S
H801 C831 0.950 . S
C802 H784 0.951 . S
C802 C803 1.366 . S
C802 C804 1.388 . S
C803 C802 1.366 . S
C803 C807 1.385 . S
C804 H785 0.951 . S
C804 C802 1.388 . S
C804 C805 1.366 . S
C805 C804 1.366 . S
C805 C806 1.414 . S
C805 C808 1.499 . S
C806 H786 0.950 1_455 S
C806 C805 1.414 . S
C806 C807 1.374 . S
C807 H787 0.950 1_455 S
C807 C803 1.385 . S
C807 C806 1.374 . S
C808 C805 1.499 . S
C808 C809 1.373 . S
C808 C810 1.389 . S
C809 H788 0.950 1_455 S
C809 C808 1.373 . S
C809 C825 1.377 . S
C810 C808 1.389 . S
C810 C811 1.524 . S
C810 C824 1.377 . S
C811 C810 1.524 . S
C811 C812 1.397 . S
C811 C816 1.363 . S
C812 H789 0.950 . S
C812 C811 1.397 . S
C812 C813 1.334 . S
C813 H790 0.950 1_565 S
C813 C812 1.334 . S
C813 C814 1.287 . S
C814 C813 1.287 . S
C814 C815 1.524 . S
C814 H833 0.913 1_565 S
C815 H791 0.950 . S
C815 C814 1.524 . S
C815 C816 1.415 . S
C816 H792 0.950 . S
C816 C811 1.363 . S
C816 C815 1.415 . S
C817 H793 0.951 . S
C817 C818 1.366 . S
C817 C819 1.388 . S
C818 C817 1.366 . S
C818 C822 1.385 . S
C819 H794 0.951 . S
C819 C817 1.388 . S
C819 C820 1.366 . S
C820 C819 1.366 . S
C820 C821 1.414 . S
C820 C823 1.499 . S
C821 H795 0.950 . S
C821 C820 1.414 . S
C821 C822 1.374 . S
C822 H796 0.950 . S
C822 C818 1.385 . S
C822 C821 1.374 . S
C823 C820 1.499 . S
C823 C824 1.373 . S
C823 C825 1.389 . S
C824 H797 0.950 . S
C824 C810 1.377 . S
C824 C823 1.373 . S
C825 C809 1.377 . S
C825 C823 1.389 . S
C825 C826 1.524 1_455 S
C826 C825 1.524 1_655 S
C826 C827 1.397 . S
C826 C831 1.363 . S
C827 H798 0.950 . S
C827 C826 1.397 . S
C827 C828 1.334 . S
C828 H799 0.950 . S
C828 C827 1.334 . S
C828 C829 1.287 . S
C829 C828 1.287 . S
C829 C830 1.524 . S
C829 H832 0.999 . S
C830 H800 0.950 . S
C830 C829 1.524 . S
C830 C831 1.415 . S
C831 H801 0.950 . S
C831 C826 1.363 . S
C831 C830 1.415 . S
H832 C829 0.999 . S
H833 C814 0.913 1_545 S
H834 C852 0.951 . S
H835 C854 0.951 . S
H836 C856 0.950 . S
H837 C857 0.950 . S
H838 C859 0.950 1_565 S
H839 C862 0.950 . S
H840 C863 0.950 . S
H841 C865 0.950 . S
H842 C866 0.950 . S
H843 C867 0.951 . S
H844 C869 0.951 . S
H845 C871 0.950 . S
H846 C872 0.950 . S
H847 C874 0.950 . S
H848 C877 0.950 . S
H849 C878 0.950 . S
H850 C880 0.950 . S
H851 C881 0.950 . S
C852 H834 0.951 . S
C852 C853 1.366 . S
C852 C854 1.388 . S
C853 C852 1.366 . S
C853 C857 1.385 . S
C854 H835 0.951 . S
C854 C852 1.388 . S
C854 C855 1.366 . S
C855 C854 1.366 . S
C855 C856 1.414 . S
C855 C858 1.499 . S
C856 H836 0.950 . S
C856 C855 1.414 . S
C856 C857 1.374 . S
C857 H837 0.950 . S
C857 C853 1.385 . S
C857 C856 1.374 . S
C858 C855 1.499 . S
C858 C859 1.373 . S
C858 C860 1.389 . S
C859 H838 0.950 1_545 S
C859 C858 1.373 . S
C859 C875 1.377 . S
C860 C858 1.389 . S
C860 C861 1.524 . S
C860 C874 1.377 . S
C861 C860 1.524 . S
C861 C862 1.397 . S
C861 C866 1.363 . S
C862 H839 0.950 . S
C862 C861 1.397 . S
C862 C863 1.334 . S
C863 H840 0.950 . S
C863 C862 1.334 . S
C863 C864 1.287 . S
C864 C863 1.287 . S
C864 C865 1.524 . S
C864 H883 0.913 . S
C865 H841 0.950 . S
C865 C864 1.524 . S
C865 C866 1.415 . S
C866 H842 0.950 . S
C866 C861 1.363 . S
C866 C865 1.415 . S
C867 H843 0.951 . S
C867 C868 1.366 . S
C867 C869 1.388 . S
C868 C867 1.366 . S
C868 C872 1.385 . S
C869 H844 0.951 . S
C869 C867 1.388 . S
C869 C870 1.366 . S
C870 C869 1.366 . S
C870 C871 1.414 . S
C870 C873 1.499 . S
C871 H845 0.950 . S
C871 C870 1.414 . S
C871 C872 1.374 . S
C872 H846 0.950 . S
C872 C868 1.385 . S
C872 C871 1.374 . S
C873 C870 1.499 . S
C873 C874 1.373 . S
C873 C875 1.389 . S
C874 H847 0.950 . S
C874 C860 1.377 . S
C874 C873 1.373 . S
C875 C859 1.377 . S
C875 C873 1.389 . S
C875 C876 1.524 1_545 S
C876 C875 1.524 1_565 S
C876 C877 1.397 . S
C876 C881 1.363 . S
C877 H848 0.950 . S
C877 C876 1.397 . S
C877 C878 1.334 . S
C878 H849 0.950 . S
C878 C877 1.334 . S
C878 C879 1.287 . S
C879 C878 1.287 . S
C879 C880 1.524 . S
C879 H882 0.999 . S
C880 H850 0.950 . S
C880 C879 1.524 . S
C880 C881 1.415 . S
C881 H851 0.950 . S
C881 C876 1.363 . S
C881 C880 1.415 . S
H882 C879 0.999 . S
H883 C864 0.913 . S
H884 C902 0.951 . S
H885 C904 0.951 . S
H886 C906 0.950 . S
H887 C907 0.950 . S
H888 C909 0.950 . S
H889 C912 0.950 . S
H890 C913 0.950 . S
H891 C915 0.950 . S
H892 C916 0.947 1_554 S
H893 C917 0.951 . S
H894 C919 0.951 . S
H895 C921 0.950 . S
H896 C922 0.950 . S
H897 C924 0.950 . S
H898 C927 0.950 . S
H899 C928 0.950 . S
H900 C930 0.950 . S
H901 C931 0.950 . S
C902 H884 0.951 . S
C902 C903 1.366 . S
C902 C904 1.388 . S
C903 C902 1.366 . S
C903 C907 1.385 . S
C904 H885 0.951 . S
C904 C902 1.388 . S
C904 C905 1.366 . S
C905 C904 1.366 . S
C905 C906 1.414 . S
C905 C908 1.499 . S
C906 H886 0.950 . S
C906 C905 1.414 . S
C906 C907 1.374 . S
C907 H887 0.950 . S
C907 C903 1.385 . S
C907 C906 1.374 . S
C908 C905 1.499 . S
C908 C909 1.373 . S
C908 C910 1.443 . S
C909 H888 0.950 . S
C909 C908 1.373 . S
C909 C925 1.377 . S
C910 C908 1.443 . S
C910 C911 1.518 1_554 S
C910 C924 1.327 1_554 S
C911 C910 1.518 1_556 S
C911 C912 1.413 . S
C911 C916 1.365 . S
C912 H889 0.950 . S
C912 C911 1.413 . S
C912 C913 1.334 . S
C913 H890 0.950 . S
C913 C912 1.334 . S
C913 C914 1.287 . S
C914 C913 1.287 . S
C914 C915 1.524 . S
C914 H933 0.913 . S
C915 H891 0.950 . S
C915 C914 1.524 . S
C915 C916 1.415 . S
C916 H892 0.947 1_556 S
C916 C911 1.365 . S
C916 C915 1.415 . S
C917 H893 0.951 . S
C917 C918 1.366 . S
C917 C919 1.388 . S
C918 C917 1.366 . S
C918 C922 1.385 . S
C919 H894 0.951 . S
C919 C917 1.388 . S
C919 C920 1.366 . S
C920 C919 1.366 . S
C920 C921 1.414 . S
C920 C923 1.499 . S
C921 H895 0.950 . S
C921 C920 1.414 . S
C921 C922 1.374 . S
C922 H896 0.950 . S
C922 C918 1.385 . S
C922 C921 1.374 . S
C923 C920 1.499 . S
C923 C924 1.373 . S
C923 C925 1.389 1_556 S
C924 H897 0.950 . S
C924 C910 1.327 1_556 S
C924 C923 1.373 . S
C925 C909 1.377 . S
C925 C923 1.389 1_554 S
C925 C926 1.524 . S
C926 C925 1.524 . S
C926 C927 1.397 . S
C926 C931 1.363 . S
C927 H898 0.950 . S
C927 C926 1.397 . S
C927 C928 1.334 . S
C928 H899 0.950 . S
C928 C927 1.334 . S
C928 C929 1.287 . S
C929 C928 1.287 . S
C929 C930 1.524 . S
C929 H932 0.999 . S
C930 H900 0.950 . S
C930 C929 1.524 . S
C930 C931 1.415 . S
C931 H901 0.950 . S
C931 C926 1.363 . S
C931 C930 1.415 . S
H932 C929 0.999 . S
H933 C914 0.913 . S
H934 C952 0.951 . S
H935 C954 0.951 . S
H936 C956 0.950 . S
H937 C957 0.950 . S
H938 C959 0.950 . S
H939 C962 0.950 . S
H940 C963 0.950 . S
H941 C965 0.950 . S
H942 C966 0.950 . S
H943 C967 0.951 . S
H944 C969 0.951 . S
H945 C971 0.950 . S
H946 C972 0.950 . S
H947 C974 0.950 . S
H948 C977 0.950 1_655 S
H949 C978 0.950 . S
H950 C980 0.950 . S
H951 C981 0.950 . S
C952 H934 0.951 . S
C952 C953 1.366 . S
C952 C954 1.388 . S
C953 C952 1.366 . S
C953 C957 1.385 . S
C954 H935 0.951 . S
C954 C952 1.388 . S
C954 C955 1.366 . S
C955 C954 1.366 . S
C955 C956 1.414 . S
C955 C958 1.499 . S
C956 H936 0.950 . S
C956 C955 1.414 . S
C956 C957 1.374 . S
C957 H937 0.950 . S
C957 C953 1.385 . S
C957 C956 1.374 . S
C958 C955 1.499 . S
C958 C959 1.373 . S
C958 C960 1.389 . S
C959 H938 0.950 . S
C959 C958 1.373 . S
C959 C975 1.377 . S
C960 C958 1.389 . S
C960 C961 1.524 . S
C960 C974 1.377 . S
C961 C960 1.524 . S
C961 C962 1.397 . S
C961 C966 1.363 . S
C962 H939 0.950 . S
C962 C961 1.397 . S
C962 C963 1.334 . S
C963 H940 0.950 . S
C963 C962 1.334 . S
C963 C964 1.287 . S
C964 C963 1.287 . S
C964 C965 1.524 . S
C964 H983 0.913 . S
C965 H941 0.950 . S
C965 C964 1.524 . S
C965 C966 1.415 . S
C966 H942 0.950 . S
C966 C961 1.363 . S
C966 C965 1.415 . S
C967 H943 0.951 . S
C967 C968 1.366 . S
C967 C969 1.388 . S
C968 C967 1.366 . S
C968 C972 1.385 . S
C969 H944 0.951 . S
C969 C967 1.388 . S
C969 C970 1.366 . S
C970 C969 1.366 . S
C970 C971 1.414 . S
C970 C973 1.499 . S
C971 H945 0.950 . S
C971 C970 1.414 . S
C971 C972 1.374 . S
C972 H946 0.950 . S
C972 C968 1.385 . S
C972 C971 1.374 . S
C973 C970 1.499 . S
C973 C974 1.373 . S
C973 C975 1.389 . S
C974 H947 0.950 . S
C974 C960 1.377 . S
C974 C973 1.373 . S
C975 C959 1.377 . S
C975 C973 1.389 . S
C975 C976 1.524 . S
C976 C975 1.524 . S
C976 C977 1.397 . S
C976 C981 1.363 . S
C977 H948 0.950 1_455 S
C977 C976 1.397 . S
C977 C978 1.334 1_455 S
C978 H949 0.950 . S
C978 C977 1.334 1_655 S
C978 C979 1.287 1_655 S
C979 C978 1.287 1_455 S
C979 C980 1.524 . S
C979 H982 0.999 . S
C980 H950 0.950 . S
C980 C979 1.524 . S
C980 C981 1.415 . S
C981 H951 0.950 . S
C981 C976 1.363 . S
C981 C980 1.415 . S
H982 C979 0.999 . S
H983 C964 0.913 . S
C418 C97 1.145 . S
C403 C0 1.533 . S
C453 C25 1.574 . S
C468 C211 1.164 . S
C503 C33 1.331 . S
C518 C271 1.031 . S
C553 C11 1.332 . S
C568 C71 1.069 . S
C618 C185 1.127 . S
C603 C14 1.399 . S
C653 C37 1.520 . S
C668 C281 0.950 . S
C718 C167 0.915 . S
C703 C28 1.488 . S
C753 C9 1.425 . S
C768 C299 1.129 . S
C818 C43 1.067 . S
C803 C19 1.359 . S
C868 C157 1.032 . S
C853 C39 1.308 . S
C918 C325 1.204 . S
C903 C5 1.592 . S
C953 C23 1.559 . S
C968 C53 0.961 . S
