# Generated by pormake.
# Topology zzz, (3,6)-cn, num edge types: 1
# Building blocks:
#     Node 0, Type 0, BuildingBlock: BETDAH_clean_linker_0, # of connection points: 3
#     Node 1, Type 0, BuildingBlock: BETDAH_clean_linker_0, # of connection points: 3
#     Node 2, Type 0, BuildingBlock: BETDAH_clean_linker_0, # of connection points: 3
#     Node 3, Type 0, BuildingBlock: BETDAH_clean_linker_0, # of connection points: 3
#     Node 4, Type 0, BuildingBlock: BETDAH_clean_linker_0, # of connection points: 3
#     Node 5, Type 0, BuildingBlock: BETDAH_clean_linker_0, # of connection points: 3
#     Node 6, Type 0, BuildingBlock: BETDAH_clean_linker_0, # of connection points: 3
#     Node 7, Type 0, BuildingBlock: BETDAH_clean_linker_0, # of connection points: 3
#     Node 8, Type 1, BuildingBlock: NUHQIS_clean_sbu_0, # of connection points: 6
#     Node 9, Type 1, BuildingBlock: NUHQIS_clean_sbu_0, # of connection points: 6
#     Node 10, Type 1, BuildingBlock: NUHQIS_clean_sbu_0, # of connection points: 6
#     Node 11, Type 1, BuildingBlock: NUHQIS_clean_sbu_0, # of connection points: 6
#     Edge 12, Type (0, 1), BuildingBlock: TEMPAE_clean_linker_10, # of connection points: 2
#     Edge 13, Type (0, 1), BuildingBlock: TEMPAE_clean_linker_10, # of connection points: 2
#     Edge 14, Type (0, 1), BuildingBlock: TEMPAE_clean_linker_10, # of connection points: 2
#     Edge 15, Type (0, 1), BuildingBlock: TEMPAE_clean_linker_10, # of connection points: 2
#     Edge 16, Type (0, 1), BuildingBlock: TEMPAE_clean_linker_10, # of connection points: 2
#     Edge 17, Type (0, 1), BuildingBlock: TEMPAE_clean_linker_10, # of connection points: 2
#     Edge 18, Type (0, 1), BuildingBlock: TEMPAE_clean_linker_10, # of connection points: 2
#     Edge 19, Type (0, 1), BuildingBlock: TEMPAE_clean_linker_10, # of connection points: 2
#     Edge 20, Type (0, 1), BuildingBlock: TEMPAE_clean_linker_10, # of connection points: 2
#     Edge 21, Type (0, 1), BuildingBlock: TEMPAE_clean_linker_10, # of connection points: 2
#     Edge 22, Type (0, 1), BuildingBlock: TEMPAE_clean_linker_10, # of connection points: 2
#     Edge 23, Type (0, 1), BuildingBlock: TEMPAE_clean_linker_10, # of connection points: 2
#     Edge 24, Type (0, 1), BuildingBlock: TEMPAE_clean_linker_10, # of connection points: 2
#     Edge 25, Type (0, 1), BuildingBlock: TEMPAE_clean_linker_10, # of connection points: 2
#     Edge 26, Type (0, 1), BuildingBlock: TEMPAE_clean_linker_10, # of connection points: 2
#     Edge 27, Type (0, 1), BuildingBlock: TEMPAE_clean_linker_10, # of connection points: 2
#     Edge 28, Type (0, 1), BuildingBlock: TEMPAE_clean_linker_10, # of connection points: 2
#     Edge 29, Type (0, 1), BuildingBlock: TEMPAE_clean_linker_10, # of connection points: 2
#     Edge 30, Type (0, 1), BuildingBlock: TEMPAE_clean_linker_10, # of connection points: 2
#     Edge 31, Type (0, 1), BuildingBlock: TEMPAE_clean_linker_10, # of connection points: 2
#     Edge 32, Type (0, 1), BuildingBlock: TEMPAE_clean_linker_10, # of connection points: 2
#     Edge 33, Type (0, 1), BuildingBlock: TEMPAE_clean_linker_10, # of connection points: 2
#     Edge 34, Type (0, 1), BuildingBlock: TEMPAE_clean_linker_10, # of connection points: 2
#     Edge 35, Type (0, 1), BuildingBlock: TEMPAE_clean_linker_10, # of connection points: 2
# Relax obj value: 0.252
# Max RMSD: 0.157
# Mean RMSD: 0.138
data_MOF--net-zzz--node1-NUHQIS_clean_sbu_0--node2-BETDAH_clean_linker_0--edge1-TEMPAE_clean_linker_10
_symmetry_space_group_name_H-M    P1
_symmetry_Int_Tables_number       1
_symmetry_cell_setting            triclinic
loop_
_symmetry_equiv_pos_as_xyz
'x, y, z'
_cell_length_a     52.802893
_cell_length_b     52.872069
_cell_length_c     14.224184
_cell_angle_alpha  89.760078
_cell_angle_beta   90.27753
_cell_angle_gamma 90.13987
loop_
_atom_site_label
_atom_site_type_symbol
_atom_site_fract_x
_atom_site_fract_y
_atom_site_fract_z
_atom_type_partial_charge
H0 H 0.81651 0.53298 0.27358 0.0
H1 H 0.73725 0.52184 0.23101 0.0
H2 H 0.76727 0.52716 0.51324 0.0
C3 C 0.79782 0.53077 0.30349 0.0
C4 C 0.79515 0.52928 0.40163 0.0
C5 C 0.77732 0.52689 0.24233 0.0
C6 C 0.75293 0.52501 0.27892 0.0
C7 C 0.74894 0.52641 0.37657 0.0
C8 C 0.77022 0.52786 0.438 0.0
N9 N 0.7239 0.52518 0.41391 0.0
C10 C 0.70203 0.52435 0.35771 0.0
H11 H 0.03905 0.81669 0.35065 0.0
H12 H 0.02795 0.74208 0.24074 0.0
H13 H 1.00271 0.76026 0.52149 0.0
C14 C 0.03234 0.79743 0.36043 0.0
C15 C 0.02101 0.79068 0.44547 0.0
C16 C 0.03446 0.78024 0.28628 0.0
C17 C 0.02609 0.75529 0.29829 0.0
C18 C 1.01462 0.74782 0.38348 0.0
C19 C 1.0118 0.76577 0.45642 0.0
N20 N 1.00547 0.72267 0.39728 0.0
C21 C 1.00694 0.70337 0.33054 0.0
H22 H 0.71824 0.0537 0.39751 0.0
H23 H 0.79237 0.0409 0.28643 0.0
H24 H 0.76154 0.9904 0.49694 0.0
C25 C 0.73576 0.04308 0.39843 0.0
C26 C 0.73723 0.02122 0.45368 0.0
C27 C 0.75534 0.05011 0.33757 0.0
C28 C 0.77764 0.03582 0.33578 0.0
C29 C 0.78044 0.01467 0.39575 0.0
C30 C 0.76002 1.00737 0.45433 0.0
N31 N 0.80293 0.99976 0.39556 0.0
C32 C 0.82357 1.00362 0.33576 0.0
H33 H 0.4795 0.72285 0.35024 0.0
H34 H 0.49561 0.7976 0.25117 0.0
H35 H 0.52397 0.77312 0.5224 0.0
C36 C 0.48783 0.74129 0.36333 0.0
C37 C 0.50149 0.7455 0.44657 0.0
C38 C 0.4857 0.75994 0.29373 0.0
C39 C 0.49719 0.78351 0.30635 0.0
C40 C 0.5109 0.78858 0.38943 0.0
C41 C 0.51322 0.76937 0.45892 0.0
N42 N 0.52269 0.81258 0.40424 0.0
C43 C 0.52133 0.83295 0.34114 0.0
H44 H 0.22448 0.47518 0.1178 0.0
H45 H 0.29745 0.4888 0.24277 0.0
H46 H 0.27871 0.52052 0.97081 0.0
C47 C 0.24359 0.48261 0.11297 0.0
C48 C 0.24955 0.49758 0.03526 0.0
C49 C 0.26033 0.47998 0.18942 0.0
C50 C 0.28466 0.49057 0.18336 0.0
C51 C 0.29184 0.50458 0.10317 0.0
C52 C 0.27386 0.50863 0.03027 0.0
N53 N 0.3164 0.5158 0.09617 0.0
C54 C 0.33549 0.51391 0.16461 0.0
H55 H 1.00451 0.21471 0.22901 0.0
H56 H 1.0135 0.29273 0.29888 0.0
H57 H 0.03213 0.26664 0.0195 0.0
C58 C 1.00987 0.23367 0.20751 0.0
C59 C 0.01771 0.23803 0.11499 0.0
C60 C 1.00817 0.25324 0.27302 0.0
C61 C 0.01516 0.27777 0.24754 0.0
C62 C 0.02447 0.28273 0.15653 0.0
C63 C 0.0256 0.26276 0.09019 0.0
N64 N 0.03248 0.30756 0.1302 0.0
C65 C 0.03245 0.32825 0.19131 0.0
H66 H 0.31201 0.99072 0.17647 0.0
H67 H 0.23707 1.00058 0.2847 0.0
H68 H 0.25537 0.02641 1.00384 0.0
C69 C 0.2927 0.99722 0.16622 0.0
C70 C 0.28595 1.0085 0.08075 0.0
C71 C 0.27539 0.99472 0.23998 0.0
C72 C 0.25036 1.00276 0.22745 0.0
C73 C 0.24288 0.01426 0.14202 0.0
C74 C 0.26092 0.01738 0.06925 0.0
N75 N 0.21761 0.02304 0.12771 0.0
C76 C 0.1982 0.02128 0.19417 0.0
H77 H 0.5511 0.3119 0.15044 0.0
H78 H 0.53287 0.23869 0.25813 0.0
H79 H 0.49883 0.26481 0.99789 0.0
C80 C 0.54139 0.29405 0.14088 0.0
C81 C 0.52513 0.2909 0.06385 0.0
C82 C 0.54424 0.27544 0.21008 0.0
C83 C 0.53087 0.25271 0.20292 0.0
C84 C 0.51469 0.24847 0.12533 0.0
C85 C 0.51161 0.26782 0.0566 0.0
N86 N 0.50108 0.22525 0.11563 0.0
C87 C 0.50278 0.20484 0.17847 0.0
Tb88 Tb 0.03126 1.00671 0.8508 0.0
Eu89 Eu 0.991 0.02183 0.68652 0.0
C90 C 0.04989 0.01749 0.64449 0.0
C91 C 0.01677 0.06466 0.81953 0.0
C92 C 0.07778 0.96767 0.97402 0.0
C93 C 0.09471 0.93056 0.89572 0.0
C94 C 0.08547 0.95533 0.8916 0.0
C95 C 0.08065 0.95548 0.06067 0.0
C96 C 0.08951 0.9307 0.06483 0.0
C97 C 0.09597 0.91754 0.98214 0.0
C98 C 0.06319 0.99128 0.96959 0.0
O99 O 0.99661 0.01772 0.92363 0.0
O100 O 0.96996 1.00438 0.80845 0.0
O101 O 1.00126 0.98142 0.65546 0.0
O102 O 1.01471 0.97075 0.80396 0.0
C103 C 0.9739 1.01063 0.89636 0.0
O104 O 0.95139 0.02827 0.65065 0.0
O105 O 0.97985 0.03181 0.54289 0.0
O106 O 0.02978 0.03155 0.62967 0.0
O107 O 0.05083 1.00206 0.71701 0.0
O108 O 0.03358 0.04806 0.84956 0.0
O109 O 0.99745 0.05812 0.76618 0.0
C110 C 1.00759 0.96428 0.7184 0.0
O111 O 0.06871 1.00694 0.90156 0.0
O112 O 0.03881 0.98831 0.97872 0.0
C113 C 0.94696 0.06215 0.54306 0.0
C114 C 0.93696 0.11404 0.5145 0.0
C115 C 0.92653 0.1012 0.59185 0.0
C116 C 0.93149 0.07551 0.60608 0.0
C117 C 0.95567 0.07446 0.46201 0.0
C118 C 0.95095 0.10013 0.44829 0.0
C119 C 0.9565 0.03662 0.56657 0.0
H120 H 0.09979 0.92131 0.83076 0.0
H121 H 0.0832 0.96435 0.82356 0.0
H122 H 0.07448 0.96456 0.12477 0.0
H123 H 0.08951 0.92142 0.13277 0.0
H124 H 0.91528 0.11117 0.64318 0.0
H125 H 0.92413 0.06648 0.66876 0.0
H126 H 0.96743 0.06461 0.41183 0.0
H127 H 0.95967 0.1093 0.38841 0.0
Tb128 Tb 0.51655 0.03784 0.83066 0.0
Eu129 Eu 0.50275 0.99621 0.67196 0.0
C130 C 0.50643 0.05449 0.62387 0.0
C131 C 0.45912 0.02212 0.79827 0.0
C132 C 0.55547 0.07621 0.98804 0.0
C133 C 0.58842 0.10608 0.03283 0.0
C134 C 0.56361 0.10119 1.00269 0.0
C135 C 0.57234 0.05618 1.00394 0.0
C136 C 0.59692 0.06102 0.03479 0.0
C137 C 0.60522 0.08598 0.04926 0.0
C138 C 0.53051 0.07118 0.94624 0.0
O139 O 0.52663 1.00094 0.89182 0.0
O140 O 0.49664 0.97823 0.81358 0.0
O141 O 0.5452 0.99314 0.68827 0.0
O142 O 0.55219 0.0319 0.75571 0.0
C143 C 0.51236 0.98056 0.88455 0.0
O144 O 0.50264 0.95705 0.62396 0.0
O145 O 0.48612 0.98642 0.53642 0.0
O146 O 0.51416 0.03216 0.59635 0.0
O147 O 0.49927 0.05763 0.71136 0.0
O148 O 0.47661 0.02978 0.85811 0.0
O149 O 0.46512 1.01271 0.71587 0.0
C150 C 0.56059 1.01147 0.71354 0.0
O151 O 0.52938 0.0748 0.85583 0.0
O152 O 0.51952 0.05005 0.97075 0.0
C153 C 0.46434 0.94789 0.54356 0.0
C154 C 0.41382 0.93059 0.53168 0.0
C155 C 0.42707 0.9295 0.61763 0.0
C156 C 0.45206 0.93825 0.62368 0.0
C157 C 0.45183 0.94737 0.45683 0.0
C158 C 0.42687 0.93892 0.45084 0.0
C159 C 0.48821 0.96215 0.55157 0.0
H160 H 0.59444 0.12545 0.04382 0.0
H161 H 0.55093 0.11688 0.98912 0.0
H162 H 0.56669 0.0368 0.99077 0.0
H163 H 0.60964 0.04522 0.04583 0.0
H164 H 0.41784 0.92295 0.68104 0.0
H165 H 0.46127 0.93865 0.69189 0.0
H166 H 0.46081 0.95508 0.3946 0.0
H167 H 0.41736 0.9407 0.38356 0.0
Tb168 Tb 0.49762 0.52544 0.84416 0.0
Eu169 Eu 0.53942 0.51393 0.68283 0.0
C170 C 0.48075 0.51444 0.63423 0.0
C171 C 0.51357 0.46808 0.80457 0.0
C172 C 0.45015 0.56265 0.96182 0.0
C173 C 0.42818 0.59391 0.0543 0.0
C174 C 0.436 0.56894 0.04112 0.0
C175 C 0.45438 0.58091 0.89168 0.0
C176 C 0.44699 0.60591 0.90548 0.0
C177 C 0.43499 0.61293 0.98934 0.0
C178 C 0.46407 0.53875 0.95871 0.0
O179 O 0.5321 0.5148 0.9201 0.0
O180 O 0.55924 0.5302 0.81052 0.0
O181 O 0.52732 0.55417 0.65672 0.0
O182 O 0.51292 0.56271 0.80468 0.0
C183 C 0.55479 0.52283 0.89708 0.0
O184 O 0.57804 0.50207 0.65374 0.0
O185 O 0.55378 0.51428 0.53912 0.0
O186 O 0.50194 0.5022 0.6191 0.0
O187 O 0.47847 0.5291 0.70807 0.0
O188 O 0.49779 0.48404 0.84442 0.0
O189 O 0.53135 0.47546 0.74598 0.0
C190 C 0.5198 0.57039 0.72032 0.0
O191 O 0.45949 0.52444 0.88617 0.0
O192 O 0.4883 0.54117 0.97436 0.0
C193 C 0.58086 0.47923 0.51397 0.0
C194 C 0.5893 0.42934 0.45391 0.0
C195 C 0.60862 0.44282 0.49993 0.0
C196 C 0.60445 0.46766 0.52931 0.0
C197 C 0.56202 0.46617 0.46381 0.0
C198 C 0.56623 0.44151 0.43395 0.0
C199 C 0.57484 0.50292 0.56285 0.0
H200 H 0.4184 0.59869 0.11852 0.0
H201 H 0.43241 0.55497 0.09536 0.0
H202 H 0.46507 0.57625 0.82939 0.0
H203 H 0.45267 0.61999 0.85417 0.0
H204 H 0.62663 0.43393 0.51538 0.0
H205 H 0.6192 0.47739 0.56824 0.0
H206 H 0.54353 0.47444 0.45174 0.0
H207 H 0.55086 0.43149 0.39963 0.0
Tb208 Tb 1.01367 0.49947 0.82499 0.0
Eu209 Eu 0.02753 0.5388 0.65888 0.0
C210 C 0.02691 0.47924 0.6266 0.0
C211 C 0.07087 0.51383 0.79139 0.0
C212 C 0.97036 0.46184 0.96583 0.0
C213 C 0.92879 0.44643 0.91711 0.0
C214 C 0.95499 0.44756 0.90444 0.0
C215 C 0.9592 0.47331 0.04402 0.0
C216 C 0.93303 0.47228 0.05642 0.0
C217 C 0.91741 0.45945 0.99158 0.0
C218 C 0.997 0.46763 0.9417 0.0
O219 O 1.00457 0.53654 0.88516 0.0
O220 O 0.02748 0.56282 0.78863 0.0
O221 O 0.98576 0.54455 0.68189 0.0
O222 O 0.97926 0.50474 0.73982 0.0
C223 C 0.01503 0.55869 0.86686 0.0
O224 O 0.05136 0.56883 0.60144 0.0
O225 O 0.02212 0.55214 0.51439 0.0
O226 O 0.01915 0.50095 0.59286 0.0
O227 O 0.03225 0.47712 0.7164 0.0
O228 O 0.05347 0.50826 0.85433 0.0
O229 O 0.06443 0.52064 0.70547 0.0
C230 C 0.97042 0.52573 0.70191 0.0
O231 O 1.00379 0.46196 0.8566 0.0
O232 O 1.00534 0.48995 0.96546 0.0
C233 C 0.06356 0.55468 0.45423 0.0
C234 C 0.10885 0.53057 0.40575 0.0
C235 C 0.1082 0.55698 0.41531 0.0
C236 C 0.08563 0.569 0.44003 0.0
C237 C 0.06384 0.52861 0.43428 0.0
C238 C 0.08637 0.51663 0.41121 0.0
C239 C 0.0436 0.56444 0.51584 0.0
H240 H 0.91739 0.43601 0.86694 0.0
H241 H 0.96299 0.4382 0.84391 0.0
H242 H 0.97052 0.48431 0.09279 0.0
H243 H 0.92498 0.48282 0.1141 0.0
H244 H 0.12548 0.56801 0.41084 0.0
H245 H 0.08596 0.589 0.45631 0.0
H246 H 0.0472 0.51698 0.44489 0.0
H247 H 0.08651 0.49626 0.40281 0.0
C248 C 0.17661 0.03617 0.33784 0.0
C249 C 0.17711 0.02024 0.25958 0.0
C250 C 0.15589 0.03597 0.40004 0.0
C251 C 0.13516 0.01939 0.38354 0.0
C252 C 0.13577 1.00316 0.30433 0.0
C253 C 0.15672 1.00384 0.24322 0.0
C254 C 0.15615 0.05356 0.48332 0.0
C255 C 0.11423 0.98517 0.28373 0.0
C256 C 0.09259 1.00223 0.59112 0.0
C257 C 0.07155 0.01807 0.57702 0.0
C258 C 0.11323 1.00239 0.52872 0.0
C259 C 0.11306 0.01883 0.44978 0.0
C260 C 0.09188 0.03484 0.43489 0.0
C261 C 0.07143 0.03427 0.49845 0.0
C262 C 0.13527 0.98491 0.54742 0.0
C263 C 0.09085 0.05267 0.35184 0.0
H264 H 0.19239 0.04892 0.35015 0.0
H265 H 0.15709 0.9916 0.18226 0.0
H266 H 0.13945 0.06624 0.48026 0.0
H267 H 0.15479 0.04247 0.54951 0.0
H268 H 0.17357 0.06536 0.48617 0.0
H269 H 0.11817 0.9729 0.22232 0.0
H270 H 0.11052 0.97295 0.34578 0.0
H271 H 0.09668 0.99603 0.26929 0.0
H272 H 0.09301 0.98958 0.65125 0.0
H273 H 0.05535 0.04659 0.48652 0.0
H274 H 0.15292 0.9961 0.55629 0.0
H275 H 0.13808 0.97223 0.48641 0.0
H276 H 0.13246 0.9731 0.61132 0.0
H277 H 0.10716 0.06592 0.35445 0.0
H278 H 0.07307 0.06387 0.3498 0.0
H279 H 0.09236 0.04185 0.28547 0.0
C280 C 0.48251 0.16707 0.24915 0.0
C281 C 0.50359 0.18305 0.24139 0.0
C282 C 0.48288 0.14585 0.30948 0.0
C283 C 0.50489 0.14046 0.36355 0.0
C284 C 0.5263 0.1566 0.35524 0.0
C285 C 0.52538 0.1777 0.2942 0.0
C286 C 0.45965 0.12924 0.31568 0.0
C287 C 0.55014 0.15166 0.41121 0.0
C288 C 0.4976 0.10026 0.58615 0.0
C289 C 0.50573 0.07631 0.55648 0.0
C290 C 0.49728 0.12117 0.52439 0.0
C291 C 0.50529 0.11827 0.43006 0.0
C292 C 0.5135 0.09415 0.39949 0.0
C293 C 0.51363 0.07353 0.46285 0.0
C294 C 0.48838 0.14645 0.5603 0.0
C295 C 0.52221 0.09012 0.29972 0.0
H296 H 0.46567 0.17121 0.20799 0.0
H297 H 0.54172 0.19004 0.28788 0.0
H298 H 0.46458 0.10949 0.29731 0.0
H299 H 0.45248 0.12901 0.38887 0.0
H300 H 0.44421 0.13575 0.26818 0.0
H301 H 0.5652 0.1658 0.39628 0.0
H302 H 0.54588 0.15205 0.4875 0.0
H303 H 0.5575 0.13254 0.39505 0.0
H304 H 0.49151 0.10276 0.65816 0.0
H305 H 0.52002 0.0552 0.43889 0.0
H306 H 0.4719 0.15304 0.51828 0.0
H307 H 0.50362 0.16077 0.552 0.0
H308 H 0.48284 0.14567 0.6355 0.0
H309 H 0.50678 0.0951 0.24981 0.0
H310 H 0.52803 0.07027 0.28669 0.0
H311 H 0.53846 0.10277 0.28401 0.0
C312 C 0.35893 0.49295 0.29515 0.0
C313 C 0.35632 0.51321 0.23217 0.0
C314 C 0.37916 0.49214 0.36035 0.0
C315 C 0.39721 0.51208 0.36261 0.0
C316 C 0.39448 0.5326 0.29876 0.0
C317 C 0.37414 0.53285 0.23415 0.0
C318 C 0.38114 0.47 0.42727 0.0
C319 C 0.41307 0.55434 0.2987 0.0
C320 C 0.43581 0.52396 0.58638 0.0
C321 C 0.45934 0.51306 0.56502 0.0
C322 C 0.41546 0.52344 0.522 0.0
C323 C 0.41855 0.51188 0.43308 0.0
C324 C 0.4422 0.50071 0.4111 0.0
C325 C 0.46222 0.50132 0.47728 0.0
C326 C 0.39067 0.53554 0.54893 0.0
C327 C 0.44645 0.48837 0.31703 0.0
H328 H 0.34514 0.47773 0.29346 0.0
H329 H 0.37216 0.5485 0.18512 0.0
H330 H 0.39967 0.46047 0.41857 0.0
H331 H 0.38024 0.47679 0.5009 0.0
H332 H 0.3658 0.4559 0.41609 0.0
H333 H 0.40735 0.56964 0.24941 0.0
H334 H 0.41484 0.56245 0.37023 0.0
H335 H 0.43208 0.54741 0.27837 0.0
H336 H 0.43321 0.53301 0.65387 0.0
H337 H 0.48026 0.49288 0.45963 0.0
H338 H 0.37507 0.52152 0.54347 0.0
H339 H 0.38621 0.55122 0.49955 0.0
H340 H 0.39106 0.54316 0.62158 0.0
H341 H 0.43216 0.47328 0.30531 0.0
H342 H 0.46565 0.47998 0.31135 0.0
H343 H 0.44402 0.50254 0.25997 0.0
C344 C 0.05394 0.36468 0.26643 0.0
C345 C 0.03227 0.34968 0.25503 0.0
C346 C 0.05395 0.38564 0.32741 0.0
C347 C 0.03171 0.39173 0.37811 0.0
C348 C 1.00981 0.3764 0.36677 0.0
C349 C 1.01038 0.35555 0.30539 0.0
C350 C 0.07771 0.40136 0.33724 0.0
C351 C 0.9857 0.38214 0.41903 0.0
C352 C 0.03656 0.43321 0.59743 0.0
C353 C 0.02901 0.45696 0.56284 0.0
C354 C 0.03774 0.41193 0.53817 0.0
C355 C 0.0312 0.41431 0.44171 0.0
C356 C 0.02383 0.43829 0.40622 0.0
C357 C 0.02283 0.45923 0.46695 0.0
C358 C 0.04578 0.38679 0.57904 0.0
C359 C 0.01669 0.4418 0.30406 0.0
H360 H 0.07089 0.36006 0.2274 0.0
H361 H 0.99364 0.34386 0.29651 0.0
H362 H 0.07386 0.42115 0.3154 0.0
H363 H 0.08385 0.40183 0.41193 0.0
H364 H 0.09352 0.39394 0.29419 0.0
H365 H 0.97045 0.36824 0.40362 0.0
H366 H 0.98939 0.38213 0.49589 0.0
H367 H 0.97887 0.4013 0.39969 0.0
H368 H 0.04138 0.43115 0.67121 0.0
H369 H 0.01695 0.47741 0.43911 0.0
H370 H 0.06242 0.37947 0.54045 0.0
H371 H 0.03028 0.37277 0.57063 0.0
H372 H 0.05074 0.38811 0.65486 0.0
H373 H 0.03258 0.43589 0.25847 0.0
H374 H 1.01179 0.46173 0.28695 0.0
H375 H 1.00022 0.42961 0.28648 0.0
C376 C 0.85126 0.0279 0.22707 0.0
C377 C 0.84574 1.0055 0.27573 0.0
C378 C 0.87256 0.02959 0.16783 0.0
C379 C 0.8887 1.00836 0.15715 0.0
C380 C 0.88321 0.9858 0.20748 0.0
C381 C 0.86179 0.98466 0.26605 0.0
C382 C 0.87763 0.05399 0.11573 0.0
C383 C 0.89979 0.96273 0.19851 0.0
C384 C 0.92806 1.00253 0.93368 0.0
C385 C 0.95231 1.01002 0.96402 0.0
C386 C 0.90732 1.0021 0.99545 0.0
C387 C 0.91067 1.00932 0.09053 0.0
C388 C 0.93507 0.01698 0.12177 0.0
C389 C 0.95554 0.01723 0.05831 0.0
C390 C 0.88173 0.99381 0.95879 0.0
C391 C 0.93954 0.02488 0.22238 0.0
H392 H 0.83885 0.04405 0.23488 0.0
H393 H 0.85751 0.96735 0.30401 0.0
H394 H 0.89697 0.06096 0.13234 0.0
H395 H 0.87678 0.05065 0.03883 0.0
H396 H 0.86377 0.06898 0.13363 0.0
H397 H 0.89343 0.94693 0.24449 0.0
H398 H 0.89969 0.95611 0.12459 0.0
H399 H 0.91965 0.96756 0.21693 0.0
H400 H 0.9252 0.99698 0.86114 0.0
H401 H 0.97411 0.02313 0.0827 0.0
H402 H 0.86762 1.00901 0.96973 0.0
H403 H 0.87511 0.97695 0.99841 0.0
H404 H 0.88214 0.98908 0.88278 0.0
H405 H 0.92702 0.04096 0.24026 0.0
H406 H 0.9595 0.03059 0.23561 0.0
H407 H 0.93469 1.00906 0.27059 0.0
C408 C 0.5369 0.8562 0.20116 0.0
C409 C 0.52036 0.85458 0.27752 0.0
C410 C 0.53629 0.87713 0.13936 0.0
C411 C 0.51865 0.89692 0.15423 0.0
C412 C 0.50194 0.89526 0.2319 0.0
C413 C 0.50305 0.87415 0.29271 0.0
C414 C 0.55436 0.87794 0.05751 0.0
C415 C 0.48281 0.91576 0.25078 0.0
C416 C 0.53008 0.96103 0.03394 0.0
C417 C 0.51401 0.95954 0.95513 0.0
C418 C 0.53169 0.94096 0.09959 0.0
C419 C 0.51697 0.91874 0.0863 0.0
C420 C 0.50068 0.91721 0.0071 0.0
C421 C 0.49939 0.93751 0.94296 0.0
C422 C 0.54922 0.94348 0.18311 0.0
C423 C 0.48459 0.89402 0.9898 0.0
H424 H 0.55033 0.84105 0.18964 0.0
H425 H 0.49032 0.8729 0.35217 0.0
H426 H 0.54355 0.87822 0.99045 0.0
H427 H 0.56583 0.89553 0.06 0.0
H428 H 0.56737 0.86146 0.05704 0.0
H429 H 0.47012 0.91085 0.31018 0.0
H430 H 0.49281 0.93368 0.26751 0.0
H431 H 0.47103 0.91928 0.18729 0.0
H432 H 0.54144 0.9779 0.04439 0.0
H433 H 0.48688 0.93598 0.88261 0.0
H434 H 0.56346 0.92808 0.18244 0.0
H435 H 0.53831 0.9415 0.24921 0.0
H436 H 0.55931 0.96194 0.18392 0.0
H437 H 0.49686 0.87713 0.98288 0.0
H438 H 0.47278 0.89579 0.92527 0.0
H439 H 0.47192 0.89063 0.0506 0.0
C440 C 0.67516 0.50246 0.23998 0.0
C441 C 0.67985 0.5236 0.29646 0.0
C442 C 0.65425 0.50179 0.17792 0.0
C443 C 0.63766 0.52284 0.17193 0.0
C444 C 0.64228 0.54411 0.23014 0.0
C445 C 0.66333 0.54423 0.29162 0.0
C446 C 0.65013 0.4787 0.11769 0.0
C447 C 0.6252 0.56694 0.2264 0.0
C448 C 0.59987 0.53235 0.94439 0.0
C449 C 0.57573 0.52321 0.9685 0.0
C450 C 0.62001 0.53239 0.00976 0.0
C451 C 0.61616 0.52302 0.10215 0.0
C452 C 0.59184 0.51381 0.12722 0.0
C453 C 0.57197 0.51404 0.06035 0.0
C454 C 0.64553 0.54241 0.97963 0.0
C455 C 0.58682 0.50356 0.22467 0.0
H456 H 0.68801 0.48652 0.24369 0.0
H457 H 0.66701 0.5606 0.33532 0.0
H458 H 0.63084 0.47095 0.12929 0.0
H459 H 0.65146 0.48398 0.0423 0.0
H460 H 0.66418 0.4636 0.13278 0.0
H461 H 0.63084 0.58161 0.27818 0.0
H462 H 0.62565 0.57544 0.15497 0.0
H463 H 0.60534 0.56122 0.24036 0.0
H464 H 0.60313 0.53947 0.87391 0.0
H465 H 0.5535 0.50685 0.08005 0.0
H466 H 0.66004 0.52738 0.98714 0.0
H467 H 0.65137 0.55827 0.02579 0.0
H468 H 0.64546 0.54918 0.9056 0.0
H469 H 0.59948 0.48728 0.23945 0.0
H470 H 0.56688 0.49728 0.23362 0.0
H471 H 0.59111 0.51824 0.27796 0.0
C472 C 0.98826 0.67912 0.19877 0.0
C473 C 1.00781 0.68252 0.26431 0.0
C474 C 0.98859 0.65871 0.13536 0.0
C475 C 1.009 0.64129 0.13761 0.0
C476 C 0.02874 0.64471 0.20448 0.0
C477 C 0.02789 0.6653 0.26703 0.0
C478 C 0.96714 0.65584 0.06566 0.0
C479 C 0.05084 0.62669 0.20962 0.0
C480 C 1.00075 0.57633 0.02289 0.0
C481 C 1.0128 0.57983 0.93592 0.0
C482 C 0.99929 0.5961 0.08902 0.0
C483 C 1.01012 0.62004 0.06806 0.0
C484 C 0.02217 0.62371 0.98028 0.0
C485 C 0.02336 0.60367 0.91563 0.0
C486 C 0.98627 0.59132 0.18167 0.0
C487 C 0.03399 0.64884 0.95471 0.0
H488 H 0.97267 0.69243 0.19718 0.0
H489 H 0.04294 0.66792 0.31822 0.0
H490 H 0.97458 0.65698 0.99295 0.0
H491 H 0.95816 0.63697 0.07388 0.0
H492 H 0.9524 0.67059 0.07431 0.0
H493 H 0.06444 0.63171 0.26643 0.0
H494 H 0.04393 0.60713 0.22208 0.0
H495 H 0.06105 0.6267 0.14163 0.0
H496 H 0.99257 0.55806 0.03977 0.0
H497 H 0.03275 0.60675 0.84897 0.0
H498 H 0.97062 0.60502 0.19108 0.0
H499 H 0.99985 0.59423 0.24042 0.0
H500 H 0.97844 0.57184 0.18685 0.0
H501 H 0.0195 0.66398 0.95713 0.0
H502 H 0.04254 0.64873 0.88351 0.0
H503 H 0.04892 0.65377 0.00667 0.0
C504 C 0.97226 0.25407 0.38431 0.0
C505 C 0.99728 0.24706 0.36542 0.0
C506 C 0.95693 0.23859 0.441 0.0
C507 C 0.96688 0.21548 0.47536 0.0
C508 C 0.99333 0.21103 0.47028 0.0
C509 C 1.00835 0.22734 0.4166 0.0
C510 C 0.9294 0.24532 0.4524 0.0
C511 C 1.00511 0.1869 0.50697 0.0
C512 C 0.93934 0.15732 0.58738 0.0
C513 C 0.93609 0.14211 0.50724 0.0
C514 C 0.94568 0.18305 0.57844 0.0
C515 C 0.95003 0.19321 0.48793 0.0
C516 C 0.94347 0.17883 0.40736 0.0
C517 C 0.93595 0.15364 0.41844 0.0
C518 C 0.94954 0.19886 0.6654 0.0
C519 C 0.94725 0.18891 0.30876 0.0
H520 H 0.96381 0.26972 0.34603 0.0
H521 H 0.0279 0.22237 0.40277 0.0
H522 H 0.92053 0.23491 0.51163 0.0
H523 H 0.92741 0.26596 0.46443 0.0
H524 H 0.91892 0.24078 0.38679 0.0
H525 H 0.02612 0.18731 0.5032 0.0
H526 H 0.99965 0.1836 0.58093 0.0
H527 H 0.99817 0.1706 0.46505 0.0
H528 H 0.93885 0.14888 0.65687 0.0
H529 H 0.93205 0.14235 0.35658 0.0
H530 H 0.94051 0.21764 0.656 0.0
H531 H 0.97002 0.20224 0.67758 0.0
H532 H 0.94154 0.18956 0.72886 0.0
H533 H 0.93726 0.20714 0.29947 0.0
H534 H 0.94024 0.1756 0.25421 0.0
H535 H 0.9677 0.19231 0.29634 0.0
C536 C 0.27583 0.96105 0.36447 0.0
C537 C 0.28485 0.98419 0.32975 0.0
C538 C 0.2905 0.94684 0.4284 0.0
C539 C 0.3149 0.95575 0.45428 0.0
C540 C 0.32243 0.98057 0.42787 0.0
C541 C 0.30693 0.99467 0.36786 0.0
C542 C 0.28058 0.92156 0.46108 0.0
C543 C 0.34828 0.99114 0.45238 0.0
C544 C 0.37011 0.93607 0.59904 0.0
C545 C 0.38581 0.92697 0.52703 0.0
C546 C 0.34436 0.94098 0.58153 0.0
C547 C 0.33484 0.93823 0.48916 0.0
C548 C 0.34933 0.92496 0.42196 0.0
C549 C 0.37452 0.91886 0.44291 0.0
C550 C 0.32805 0.95177 0.65824 0.0
C551 C 0.33955 0.92037 0.32354 0.0
H552 H 0.25845 0.95313 0.3362 0.0
H553 H 0.31349 1.01288 0.34207 0.0
H554 H 0.28075 0.90804 0.40165 0.0
H555 H 0.29178 0.91358 0.52033 0.0
H556 H 0.26056 0.92348 0.4835 0.0
H557 H 0.35084 1.0109 0.4273 0.0
H558 H 0.35123 0.99087 0.5294 0.0
H559 H 0.36325 0.9793 0.42035 0.0
H560 H 0.37817 0.9416 0.66604 0.0
H561 H 0.38609 0.91016 0.38929 0.0
H562 H 0.30909 0.94264 0.65694 0.0
H563 H 0.32511 0.97229 0.64633 0.0
H564 H 0.33673 0.94905 0.72883 0.0
H565 H 0.35281 0.90884 0.28118 0.0
H566 H 0.33659 0.93872 0.2869 0.0
H567 H 0.32106 0.91044 0.3262 0.0
C568 C 0.58483 0.28734 0.28372 0.0
C569 C 0.55889 0.2825 0.29421 0.0
C570 C 0.59639 0.30719 0.33315 0.0
C571 C 0.58135 0.32249 0.39192 0.0
C572 C 0.55662 0.3144 0.41612 0.0
C573 C 0.54566 0.29418 0.36699 0.0
C574 C 0.62339 0.31419 0.3109 0.0
C575 C 0.54027 0.3296 0.48162 0.0
C576 C 0.6009 0.38509 0.50096 0.0
C577 C 0.59202 0.40213 0.43244 0.0
C578 C 0.5992 0.35884 0.48692 0.0
C579 C 0.58795 0.34964 0.40325 0.0
C580 C 0.58053 0.3669 0.33154 0.0
C581 C 0.58291 0.39287 0.34684 0.0
C582 C 0.60812 0.34132 0.56413 0.0
C583 C 0.56852 0.35814 0.24062 0.0
H584 H 0.5951 0.27808 0.22777 0.0
H585 H 0.52562 0.29025 0.3753 0.0
H586 H 0.62358 0.32874 0.25447 0.0
H587 H 0.63307 0.32223 0.37352 0.0
H588 H 0.6342 0.29753 0.2859 0.0
H589 H 0.52338 0.31873 0.50494 0.0
H590 H 0.55121 0.33556 0.54447 0.0
H591 H 0.53368 0.34695 0.44479 0.0
H592 H 0.60794 0.39219 0.56755 0.0
H593 H 0.57656 0.40605 0.29314 0.0
H594 H 0.61361 0.3225 0.53682 0.0
H595 H 0.59263 0.33863 0.61569 0.0
H596 H 0.62452 0.34963 0.60238 0.0
H597 H 0.58121 0.34469 0.20441 0.0
H598 H 0.5644 0.37403 0.19157 0.0
H599 H 0.55045 0.34821 0.25593 0.0
C600 C 0.24913 0.49031 0.3526 0.0
C601 C 0.24924 0.47223 0.28078 0.0
C602 C 0.22703 0.49434 0.4047 0.0
C603 C 0.20513 0.48001 0.38268 0.0
C604 C 0.20752 0.45786 0.32799 0.0
C605 C 0.23028 0.45359 0.28042 0.0
C606 C 0.22576 0.51708 0.46809 0.0
C607 C 0.18495 0.44154 0.30393 0.0
C608 C 0.14051 0.50034 0.47045 0.0
C609 C 0.13316 0.51725 0.39922 0.0
C610 C 0.16398 0.48801 0.46698 0.0
C611 C 0.18004 0.49241 0.38936 0.0
C612 C 0.17231 0.50921 0.31631 0.0
C613 C 0.14903 0.52163 0.32287 0.0
C614 C 0.17163 0.47056 0.54638 0.0
C615 C 0.18829 0.51378 0.22994 0.0
H616 H 0.26428 0.50414 0.35684 0.0
H617 H 0.23099 0.43874 0.22809 0.0
H618 H 0.21911 0.53365 0.42665 0.0
H619 H 0.21227 0.51395 0.52655 0.0
H620 H 0.2447 0.52171 0.49778 0.0
H621 H 0.19089 0.42189 0.28783 0.0
H622 H 0.1709 0.44106 0.36148 0.0
H623 H 0.17549 0.44941 0.24038 0.0
H624 H 0.12805 0.49719 0.52978 0.0
H625 H 0.14301 0.53454 0.2677 0.0
H626 H 0.18937 0.47747 0.57961 0.0
H627 H 0.17557 0.45136 0.51919 0.0
H628 H 0.15675 0.46909 0.60107 0.0
H629 H 0.20783 0.51938 0.2498 0.0
H630 H 0.18034 0.52878 0.18361 0.0
H631 H 0.18938 0.49605 0.18886 0.0
C632 C 0.03418 0.81195 0.15918 0.0
C633 C 0.04463 0.78978 0.19633 0.0
C634 C 0.04791 0.82715 0.09722 0.0
C635 C 0.07229 0.81922 0.06786 0.0
C636 C 0.0811 0.79483 0.09361 0.0
C637 C 0.06729 0.78046 0.15941 0.0
C638 C 0.03742 0.85298 0.07277 0.0
C639 C 0.10583 0.78449 0.05817 0.0
C640 C 0.08995 0.87358 0.9169 0.0
C641 C 0.10006 0.88961 0.98658 0.0
C642 C 0.08547 0.84787 0.93637 0.0
C643 C 0.08962 0.83875 0.02855 0.0
C644 C 0.10405 0.85347 0.09228 0.0
C645 C 0.10974 0.8786 0.06915 0.0
C646 C 0.07357 0.8312 0.86253 0.0
C647 C 0.11034 0.844 0.18991 0.0
H648 H 0.0163 0.81873 0.18657 0.0
H649 H 0.07516 0.763 0.18694 0.0
H650 H 0.05023 0.86797 0.09988 0.0
H651 H 0.03608 0.85527 0.99558 0.0
H652 H 0.01828 0.85612 0.10257 0.0
H653 H 0.10319 0.76458 0.03548 0.0
H654 H 0.11355 0.79559 0.9984 0.0
H655 H 0.11994 0.78427 0.11626 0.0
H656 H 0.0833 0.88132 0.85068 0.0
H657 H 0.11938 0.89034 0.12042 0.0
H658 H 0.05302 0.82901 0.87616 0.0
H659 H 0.08208 0.81203 0.86537 0.0
H660 H 0.07603 0.8392 0.79084 0.0
H661 H 0.1227 0.85737 0.22915 0.0
H662 H 0.12009 0.82551 0.18588 0.0
H663 H 0.09263 0.8412 0.23049 0.0
C664 C 0.73915 0.09228 0.29107 0.0
C665 C 0.74907 0.06886 0.26393 0.0
C666 C 0.7198 0.1037 0.23806 0.0
C667 C 0.71025 0.09102 0.158 0.0
C668 C 0.724 0.07045 0.12042 0.0
C669 C 0.74355 0.05963 0.17405 0.0
C670 C 0.70677 0.12671 0.27683 0.0
C671 C 0.71512 0.05691 0.03308 0.0
C672 C 0.64019 0.07667 0.16025 0.0
C673 C 0.63135 0.09043 0.08287 0.0
C674 C 0.66561 0.0777 0.18726 0.0
C675 C 0.68279 0.09295 0.13541 0.0
C676 C 0.67371 0.10801 0.05994 0.0
C677 C 0.64792 0.10667 0.03471 0.0
C678 C 0.67407 0.06173 0.26992 0.0
C679 C 0.69111 0.12533 0.00558 0.0
H680 H 0.74381 0.09969 0.36003 0.0
H681 H 0.75151 0.04169 0.15238 0.0
H682 H 0.69937 0.13888 0.21929 0.0
H683 H 0.69052 0.12064 0.32073 0.0
H684 H 0.71985 0.13798 0.32161 0.0
H685 H 0.73051 0.0454 1.00198 0.0
H686 H 0.69926 0.04402 0.05166 0.0
H687 H 0.70809 0.07048 0.97942 0.0
H688 H 0.62719 0.06455 0.19852 0.0
H689 H 0.64093 0.1175 0.97519 0.0
H690 H 0.68202 0.07406 0.32561 0.0
H691 H 0.68906 0.04837 0.24793 0.0
H692 H 0.65829 0.05064 0.30093 0.0
H693 H 0.69532 0.14228 0.04865 0.0
H694 H 0.6824 0.13171 0.93832 0.0
H695 H 0.70941 0.11598 0.99028 0.0
C696 C 0.48761 0.74148 0.13559 0.0
C697 C 0.47305 0.75289 0.20535 0.0
C698 C 0.4767 0.72361 0.07507 0.0
C699 C 0.45078 0.71731 0.08566 0.0
C700 C 0.43527 0.73236 0.14372 0.0
C701 C 0.44671 0.74981 0.20464 0.0
C702 C 0.49369 0.7087 0.01092 0.0
C703 C 0.40726 0.7273 0.15206 0.0
C704 C 0.42922 0.65913 0.95023 0.0
C705 C 0.4342 0.63999 0.01654 0.0
C706 C 0.43308 0.68475 0.97251 0.0
C707 C 0.44251 0.69119 0.06263 0.0
C708 C 0.44634 0.67199 0.13112 0.0
C709 C 0.44206 0.64675 0.10723 0.0
C710 C 0.42825 0.70446 0.89767 0.0
C711 C 0.45657 0.6778 0.22831 0.0
H712 H 0.508 0.74402 0.13637 0.0
H713 H 0.43549 0.75883 0.25858 0.0
H714 H 0.48442 0.7058 0.9417 0.0
H715 H 0.51218 0.7183 0.99986 0.0
H716 H 0.49731 0.68978 0.04233 0.0
H717 H 0.3971 0.74411 0.17927 0.0
H718 H 0.39903 0.72192 0.08299 0.0
H719 H 0.40414 0.71136 0.20171 0.0
H720 H 0.423 0.65407 0.88002 0.0
H721 H 0.44652 0.63215 0.15837 0.0
H722 H 0.44523 0.70611 0.85233 0.0
H723 H 0.42421 0.72332 0.92797 0.0
H724 H 0.41212 0.69879 0.85193 0.0
H725 H 0.47568 0.68645 0.22273 0.0
H726 H 0.45806 0.66065 0.27339 0.0
H727 H 0.44412 0.69154 0.26421 0.0
C728 C 0.80151 0.53262 0.09472 0.0
C729 C 0.783 0.51924 0.14474 0.0
C730 C 0.81812 0.51976 0.03526 0.0
C731 C 0.81544 0.49324 0.02506 0.0
C732 C 0.79302 0.48131 0.05635 0.0
C733 C 0.777 0.49446 0.11743 0.0
C734 C 0.84095 0.53367 0.99777 0.0
C735 C 0.78808 0.4537 0.03775 0.0
C736 C 0.87459 0.46604 0.91687 0.0
C737 C 0.88941 0.46185 0.99782 0.0
C738 C 0.84919 0.47366 0.92367 0.0
C739 C 0.83879 0.47797 0.01337 0.0
C740 C 0.85287 0.47125 0.09494 0.0
C741 C 0.87783 0.46289 0.08592 0.0
C742 C 0.83426 0.47843 0.83477 0.0
C743 C 0.84242 0.47485 0.19252 0.0
H744 H 0.80551 0.5521 0.11342 0.0
H745 H 0.76211 0.4842 0.15352 0.0
H746 H 0.85792 0.52839 0.03979 0.0
H747 H 0.8445 0.52834 0.92376 0.0
H748 H 0.83856 0.55451 1.00134 0.0
H749 H 0.76743 0.44961 0.03771 0.0
H750 H 0.79622 0.44786 0.9694 0.0
H751 H 0.79698 0.44212 0.09406 0.0
H752 H 0.88314 0.46484 0.84828 0.0
H753 H 0.88879 0.45857 0.14857 0.0
H754 H 0.83848 0.46363 0.782 0.0
H755 H 0.83998 0.49691 0.80434 0.0
H756 H 0.81353 0.47871 0.84705 0.0
H757 H 0.85633 0.46991 0.24848 0.0
H758 H 0.82531 0.46298 0.20232 0.0
H759 H 0.83679 0.49485 0.20156 0.0
C760 C 0.03735 0.21031 0.98909 0.0
C761 C 0.01695 0.21609 0.04812 0.0
C762 C 0.03826 0.18704 0.94031 0.0
C763 C 0.01862 0.16889 0.9524 0.0
C764 C 0.99742 0.17529 0.00788 0.0
C765 C 0.99662 0.19886 0.05289 0.0
C766 C 0.06073 0.18144 0.87886 0.0
C767 C 0.97613 0.15667 0.02445 0.0
C768 C 1.00768 0.11104 0.79649 0.0
C769 C 0.01912 0.09164 0.84929 0.0
C770 C 1.0086 0.13643 0.82633 0.0
C771 C 0.02063 0.14266 0.91255 0.0
C772 C 0.03256 0.12317 0.96534 0.0
C773 C 0.03195 0.09804 0.93255 0.0
C774 C 0.99608 0.15649 0.76662 0.0
C775 C 0.04499 0.12865 0.05889 0.0
H776 H 0.05311 0.22341 0.98434 0.0
H777 H 0.98037 0.20335 0.096 0.0
H778 H 0.07262 0.16668 0.91263 0.0
H779 H 0.05434 0.17396 0.80991 0.0
H780 H 0.07263 0.1985 0.86671 0.0
H781 H 0.96084 0.16467 0.06866 0.0
H782 H 0.96776 0.1506 0.95656 0.0
H783 H 0.98364 0.1395 0.05993 0.0
H784 H 0.99789 0.10638 0.73163 0.0
H785 H 0.04072 0.08322 0.97421 0.0
H786 H 1.00913 0.17273 0.75617 0.0
H787 H 0.97907 0.16372 0.80294 0.0
H788 H 0.99018 0.14913 0.69683 0.0
H789 H 0.05942 0.14377 0.05092 0.0
H790 H 0.05424 0.11168 0.0898 0.0
H791 H 0.03058 0.13562 0.10902 0.0
C792 C 0.31387 0.03523 0.97635 0.0
C793 C 0.30622 1.01128 0.00831 0.0
C794 C 0.33719 0.03853 0.92941 0.0
C795 C 0.35333 0.01746 0.91506 0.0
C796 C 0.34463 0.99302 0.94031 0.0
C797 C 0.32125 0.99024 0.98615 0.0
C798 C 0.34519 0.06473 0.89952 0.0
C799 C 0.36083 0.96992 0.92508 0.0
C800 C 0.41247 0.01909 0.75996 0.0
C801 C 0.43188 0.02292 0.82639 0.0
C802 C 0.38678 0.01844 0.78664 0.0
C803 C 0.38018 0.02103 0.88266 0.0
C804 C 0.39969 0.0253 0.94977 0.0
C805 C 0.42515 0.02642 0.92083 0.0
C806 C 0.36706 1.01382 0.71166 0.0
C807 C 0.39375 0.02775 0.05309 0.0
H808 H 0.30245 0.05158 0.9934 0.0
H809 H 0.31539 0.97165 0.01017 0.0
H810 H 0.36117 0.07122 0.94436 0.0
H811 H 0.35198 0.06449 0.82578 0.0
H812 H 0.32949 0.07858 0.90525 0.0
H813 H 0.36759 0.9693 0.85143 0.0
H814 H 0.37778 0.97089 0.97139 0.0
H815 H 0.35047 0.95208 0.94059 0.0
H816 H 0.4173 0.01635 0.68672 0.0
H817 H 0.43989 0.02926 0.97305 0.0
H818 H 0.37302 0.02217 0.64344 0.0
H819 H 0.3483 0.02163 0.73056 0.0
H820 H 0.36505 0.99313 0.70154 0.0
H821 H 0.3799 0.04317 0.0641 0.0
H822 H 0.41091 0.03172 0.09612 0.0
H823 H 0.38496 1.00997 0.07903 0.0
C824 C 0.49792 0.32138 0.96883 0.0
C825 C 0.52196 0.31296 0.99764 0.0
C826 C 0.49476 0.34532 0.92535 0.0
C827 C 0.51598 0.36154 0.91269 0.0
C828 C 0.54039 0.35244 0.93648 0.0
C829 C 0.54308 0.32818 0.976 0.0
C830 C 0.46852 0.35373 0.89724 0.0
C831 C 0.5636 0.369 0.9268 0.0
C832 C 0.5167 0.42192 0.76269 0.0
C833 C 0.51207 0.44071 0.82994 0.0
C834 C 0.51654 0.39601 0.78722 0.0
C835 C 0.51278 0.38866 0.88224 0.0
C836 C 0.50801 0.40764 0.95022 0.0
C837 C 0.50722 0.4333 0.92291 0.0
C838 C 0.52089 0.37656 0.71161 0.0
C839 C 0.50492 0.40097 0.05287 0.0
H840 H 0.48143 0.30993 0.98471 0.0
H841 H 0.56186 0.32169 0.99543 0.0
H842 H 0.46171 0.36818 0.94736 0.0
H843 H 0.46877 0.36257 0.82632 0.0
H844 H 0.45483 0.33774 0.89695 0.0
H845 H 0.58132 0.35884 0.94563 0.0
H846 H 0.5653 0.37618 0.85379 0.0
H847 H 0.56181 0.38567 0.97347 0.0
H848 H 0.52034 0.4275 0.69056 0.0
H849 H 0.50391 0.44771 0.97542 0.0
H850 H 0.50682 0.36101 0.71748 0.0
H851 H 0.53994 0.36808 0.72035 0.0
H852 H 0.51963 0.38491 0.63993 0.0
H853 H 0.50113 0.41784 0.09686 0.0
H854 H 0.52239 0.39165 0.07939 0.0
H855 H 0.48912 0.38734 0.06186 0.0
C856 C 0.2155 0.52654 0.9765 0.0
C857 C 0.22831 0.50343 0.96903 0.0
C858 C 0.19076 0.5296 0.93995 0.0
C859 C 0.17843 0.50904 0.89481 0.0
C860 C 0.19199 0.48619 0.882 0.0
C861 C 0.2166 0.48363 0.91967 0.0
C862 C 0.17721 0.55429 0.95578 0.0
C863 C 0.17982 0.46371 0.83478 0.0
C864 C 0.10605 0.50443 0.90759 0.0
C865 C 0.09843 0.51238 0.81741 0.0
C866 C 0.13187 0.50337 0.93347 0.0
C867 C 0.15081 0.51058 0.86806 0.0
C868 C 0.14327 0.51872 0.77703 0.0
C869 C 0.11731 0.51945 0.75279 0.0
C870 C 0.13884 0.49472 0.03155 0.0
C871 C 0.16267 0.52693 0.70546 0.0
H872 H 0.22406 0.54163 0.01722 0.0
H873 H 0.2261 0.4655 0.916 0.0
H874 H 0.16747 0.56061 0.89056 0.0
H875 H 0.16252 0.55159 0.01046 0.0
H876 H 0.19035 0.56945 0.97936 0.0
H877 H 0.19384 0.44877 0.81801 0.0
H878 H 0.16528 0.45548 0.88204 0.0
H879 H 0.17011 0.46956 0.76897 0.0
H880 H 0.0918 0.49902 0.95847 0.0
H881 H 0.11183 0.52577 0.68302 0.0
H882 H 0.14776 0.51059 0.0703 0.0
H883 H 0.15288 0.47916 0.02871 0.0
H884 H 0.12212 0.48809 0.07197 0.0
H885 H 0.17317 0.54366 0.73196 0.0
H886 H 0.15395 0.53189 0.63663 0.0
H887 H 0.17674 0.51169 0.69472 0.0
C888 C 0.99425 0.81882 0.54702 0.0
C889 C 0.01827 0.8109 0.51775 0.0
C890 C 0.99105 0.84224 0.59289 0.0
C891 C 1.01231 0.85815 0.60902 0.0
C892 C 0.03679 0.84915 0.58681 0.0
C893 C 0.03945 0.8257 0.54176 0.0
C894 C 0.96476 0.85064 0.61909 0.0
C895 C 0.06007 0.86516 0.60372 0.0
C896 C 1.00453 0.92985 0.59729 0.0
C897 C 1.00713 0.93698 0.69183 0.0
C898 C 1.00558 0.90429 0.57016 0.0
C899 C 1.00893 0.88512 0.63916 0.0
C900 C 1.01071 0.89214 0.73509 0.0
C901 C 1.01011 0.91791 0.76007 0.0
C902 C 1.00389 0.89788 0.46693 0.0
C903 C 1.01441 0.87276 0.81188 0.0
H904 H 0.97779 0.80758 0.52835 0.0
H905 H 0.05808 0.81964 0.51956 0.0
H906 H 0.96462 0.85775 0.69242 0.0
H907 H 0.95882 0.86646 0.57252 0.0
H908 H 0.95068 0.83509 0.61255 0.0
H909 H 0.07783 0.85426 0.59423 0.0
H910 H 0.06012 0.88131 0.5536 0.0
H911 H 0.05993 0.87311 0.67575 0.0
H912 H 1.00232 0.94432 0.54372 0.0
H913 H 1.01217 0.92307 0.8334 0.0
H914 H 0.98833 0.88414 0.45456 0.0
H915 H 0.02175 0.88879 0.44417 0.0
H916 H 1.00052 0.91483 0.42224 0.0
H917 H 0.03499 0.87038 0.82432 0.0
H918 H 1.00622 0.85408 0.79328 0.0
H919 H 1.00584 0.8792 0.8788 0.0
C920 C 0.69143 1.00985 0.44543 0.0
C921 C 0.71346 1.01242 0.50032 0.0
C922 C 0.66745 1.00719 0.48656 0.0
C923 C 0.66522 1.00673 0.58573 0.0
C924 C 0.68758 1.00751 0.64172 0.0
C925 C 0.71148 1.01049 0.59834 0.0
C926 C 0.64435 1.00654 0.4235 0.0
C927 C 0.68619 1.00645 0.74753 0.0
C928 C 0.60246 0.03208 0.67823 0.0
C929 C 0.58799 1.00993 0.68856 0.0
C930 C 0.62778 0.03121 0.64773 0.0
C931 C 0.63935 1.00757 0.62933 0.0
C932 C 0.62521 0.98507 0.64398 0.0
C933 C 0.59965 0.98652 0.67199 0.0
C934 C 0.6418 0.05575 0.63115 0.0
C935 C 0.63688 0.95945 0.62766 0.0
H936 H 0.69289 1.01119 0.36955 0.0
H937 H 0.72838 1.0126 0.64115 0.0
H938 H 0.63174 0.99059 0.44297 0.0
H939 H 0.63339 0.02425 0.43245 0.0
H940 H 0.64939 1.00466 0.34812 0.0
H941 H 0.67841 0.0245 0.7743 0.0
H942 H 0.67324 0.99108 0.77043 0.0
H943 H 0.70509 1.0034 0.78019 0.0
H944 H 0.59367 0.05027 0.69052 0.0
H945 H 0.58875 0.96927 0.68074 0.0
H946 H 0.64644 0.05763 0.55541 0.0
H947 H 0.65995 0.0558 0.67072 0.0
H948 H 0.63058 0.0725 0.65254 0.0
H949 H 0.64027 0.95677 0.55145 0.0
H950 H 0.62456 0.94381 0.65299 0.0
H951 H 0.65551 0.95815 0.66381 0.0
C952 C 0.48305 0.70802 0.53214 0.0
C953 C 0.50395 0.72395 0.51534 0.0
C954 C 0.48577 0.68451 0.57769 0.0
C955 C 0.50995 0.6767 0.60989 0.0
C956 C 0.53072 0.69367 0.60096 0.0
C957 C 0.52753 0.717 0.55333 0.0
C958 C 0.46304 0.66723 0.58473 0.0
C959 C 0.55667 0.68652 0.63677 0.0
C960 C 0.51219 0.6164 0.76148 0.0
C961 C 0.51852 0.5979 0.69483 0.0
C962 C 0.51004 0.6422 0.73608 0.0
C963 C 0.51394 0.64977 0.64133 0.0
C964 C 0.52044 0.63117 0.57411 0.0
C965 C 0.52281 0.60568 0.60166 0.0
C966 C 0.50313 0.66124 0.81042 0.0
C967 C 0.52421 0.63807 0.47193 0.0
H968 H 0.46459 0.71339 0.50506 0.0
H969 H 0.54383 0.72905 0.54112 0.0
H970 H 0.46568 0.65076 0.53768 0.0
H971 H 0.46104 0.65979 0.65731 0.0
H972 H 0.44517 0.67691 0.56441 0.0
H973 H 0.56983 0.70295 0.63744 0.0
H974 H 0.55542 0.67858 0.70895 0.0
H975 H 0.56478 0.67167 0.59108 0.0
H976 H 0.50873 0.61074 0.83361 0.0
H977 H 0.52754 0.59171 0.54912 0.0
H978 H 0.48351 0.66799 0.79833 0.0
H979 H 0.51582 0.67797 0.8065 0.0
H980 H 0.50422 0.65309 0.88244 0.0
H981 H 0.50655 0.6464 0.44281 0.0
H982 H 0.52944 0.62149 0.42848 0.0
H983 H 0.53933 0.65257 0.46531 0.0
C984 C 0.84055 0.51568 0.42318 0.0
C985 C 0.81897 0.52738 0.46106 0.0
C986 C 0.8643 0.51662 0.46722 0.0
C987 C 0.86662 0.52729 0.55791 0.0
C988 C 0.8445 0.53711 0.60157 0.0
C989 C 0.82113 0.53765 0.55179 0.0
C990 C 0.88665 0.50619 0.41372 0.0
C991 C 0.84532 0.54756 0.70004 0.0
C992 C 0.92747 0.50558 0.68084 0.0
C993 C 0.94312 0.52702 0.67317 0.0
C994 C 0.90237 0.50569 0.64678 0.0
C995 C 0.89218 0.52793 0.60539 0.0
C996 C 0.90772 0.54981 0.59916 0.0
C997 C 0.93286 0.54913 0.63334 0.0
C998 C 0.88726 0.48148 0.65023 0.0
C999 C 0.8983 0.5735 0.55114 0.0
H1000 H 0.83922 0.50597 0.35687 0.0
H1001 H 0.80478 0.54642 0.58362 0.0
H1002 H 0.90522 0.51285 0.44071 0.0
H1003 H 0.88617 0.48522 0.41693 0.0
H1004 H 0.88524 0.51152 0.3382 0.0
H1005 H 0.82691 0.54463 0.73599 0.0
H1006 H 0.8605 0.53875 0.74323 0.0
H1007 H 0.84886 0.56823 0.69669 0.0
H1008 H 0.93508 0.4883 0.7108 0.0
H1009 H 0.9447 0.5658 0.62656 0.0
H1010 H 0.88555 0.47354 0.57855 0.0
H1011 H 0.86784 0.48523 0.67558 0.0
H1012 H 0.8964 0.4669 0.69519 0.0
H1013 H 0.89244 0.5691 0.47792 0.0
H1014 H 0.9129 0.58866 0.54922 0.0
H1015 H 0.88143 0.58079 0.58822 0.0
loop_
_geom_bond_atom_site_label_1
_geom_bond_atom_site_label_2
_geom_bond_distance
_geom_bond_site_symmetry_2
_ccdc_geom_bond_type
H0 C3 0.929 . S
H1 C6 0.929 . S
H2 C8 0.930 . S
C3 H0 0.929 . S
C3 C4 1.398 . S
C3 C5 1.396 . S
C4 C3 1.398 . S
C4 C8 1.407 . S
C5 C3 1.396 . S
C5 C6 1.394 . S
C6 H1 0.929 . S
C6 C5 1.394 . S
C6 C7 1.382 . S
C7 C6 1.382 . S
C7 C8 1.392 . S
C7 N9 1.420 . S
C8 H2 0.930 . S
C8 C4 1.407 . S
C8 C7 1.392 . S
N9 C7 1.420 . S
N9 C10 1.244 . S
C10 N9 1.244 . S
H11 C14 0.929 . S
H12 C17 0.929 . S
H13 C19 0.930 . S
C14 H11 0.929 . S
C14 C15 1.395 1_655 S
C14 C16 1.395 1_655 S
C15 C14 1.395 1_455 S
C15 C19 1.413 . S
C16 C14 1.395 1_455 S
C16 C17 1.397 . S
C17 H12 0.929 . S
C17 C16 1.397 . S
C17 C18 1.382 . S
C18 C17 1.382 . S
C18 C19 1.392 . S
C18 N20 1.420 . S
C19 H13 0.930 . S
C19 C15 1.413 . S
C19 C18 1.392 . S
N20 C18 1.420 . S
N20 C21 1.232 1_455 S
C21 N20 1.232 1_655 S
H22 C25 0.929 . S
H23 C28 0.929 . S
H24 C30 0.930 . S
C25 H22 0.929 . S
C25 C26 1.395 1_565 S
C25 C27 1.395 1_565 S
C26 C25 1.395 1_545 S
C26 C30 1.413 . S
C27 C25 1.395 1_545 S
C27 C28 1.397 . S
C28 H23 0.929 . S
C28 C27 1.397 . S
C28 C29 1.382 . S
C29 C28 1.382 . S
C29 C30 1.392 . S
C29 N31 1.420 . S
C30 H24 0.930 . S
C30 C26 1.413 . S
C30 C29 1.392 . S
N31 C29 1.420 . S
N31 C32 1.232 1_545 S
C32 N31 1.232 1_565 S
H33 C36 0.929 . S
H34 C39 0.929 . S
H35 C41 0.930 . S
C36 H33 0.929 . S
C36 C37 1.398 . S
C36 C38 1.396 . S
C37 C36 1.398 . S
C37 C41 1.407 . S
C38 C36 1.396 . S
C38 C39 1.394 . S
C39 H34 0.929 . S
C39 C38 1.394 . S
C39 C40 1.382 . S
C40 C39 1.382 . S
C40 C41 1.392 . S
C40 N42 1.420 . S
C41 H35 0.930 . S
C41 C37 1.407 . S
C41 C40 1.392 . S
N42 C40 1.420 . S
N42 C43 1.244 . S
C43 N42 1.244 . S
H44 C47 0.929 . S
H45 C50 0.929 . S
H46 C52 0.930 . S
C47 H44 0.929 . S
C47 C48 1.398 1_554 S
C47 C49 1.396 . S
C48 C47 1.398 1_556 S
C48 C52 1.407 . S
C49 C47 1.396 . S
C49 C50 1.394 . S
C50 H45 0.929 . S
C50 C49 1.394 . S
C50 C51 1.382 . S
C51 C50 1.382 . S
C51 C52 1.392 1_554 S
C51 N53 1.420 . S
C52 H46 0.930 . S
C52 C48 1.407 . S
C52 C51 1.392 1_556 S
N53 C51 1.420 . S
N53 C54 1.244 . S
C54 N53 1.244 . S
H55 C58 0.929 . S
H56 C61 0.929 . S
H57 C63 0.930 . S
C58 H55 0.929 . S
C58 C59 1.395 1_654 S
C58 C60 1.394 1_655 S
C59 C58 1.395 1_456 S
C59 C63 1.416 . S
C60 C58 1.394 1_455 S
C60 C61 1.398 . S
C61 H56 0.929 . S
C61 C60 1.398 . S
C61 C62 1.382 . S
C62 C61 1.382 . S
C62 C63 1.392 1_554 S
C62 N64 1.420 . S
C63 H57 0.930 . S
C63 C59 1.416 . S
C63 C62 1.392 1_556 S
N64 C62 1.420 . S
N64 C65 1.236 1_455 S
C65 N64 1.236 1_655 S
H66 C69 0.929 . S
H67 C72 0.929 . S
H68 C74 0.930 . S
C69 H66 0.929 . S
C69 C70 1.395 1_564 S
C69 C71 1.394 1_565 S
C70 C69 1.395 1_546 S
C70 C74 1.416 . S
C71 C69 1.394 1_545 S
C71 C72 1.398 . S
C72 H67 0.929 . S
C72 C71 1.398 . S
C72 C73 1.382 . S
C73 C72 1.382 . S
C73 C74 1.392 1_554 S
C73 N75 1.420 . S
C74 H68 0.930 . S
C74 C70 1.416 . S
C74 C73 1.392 1_556 S
N75 C73 1.420 . S
N75 C76 1.237 1_545 S
C76 N75 1.237 1_565 S
H77 C80 0.929 . S
H78 C83 0.929 . S
H79 C85 0.930 . S
C80 H77 0.929 . S
C80 C81 1.398 1_554 S
C80 C82 1.396 . S
C81 C80 1.398 1_556 S
C81 C85 1.407 . S
C82 C80 1.396 . S
C82 C83 1.394 . S
C83 H78 0.929 . S
C83 C82 1.394 . S
C83 C84 1.382 . S
C84 C83 1.382 . S
C84 C85 1.392 1_554 S
C84 N86 1.420 . S
C85 H79 0.930 . S
C85 C81 1.407 . S
C85 C84 1.392 1_556 S
N86 C84 1.420 . S
N86 C87 1.244 . S
C87 N86 1.244 . S
Tb88 C98 2.825 . S
Tb88 O99 2.347 1_455 S
Tb88 O102 2.366 . S
Tb88 O107 2.418 . S
Tb88 O108 2.384 1_565 S
Tb88 O111 2.479 . S
Tb88 O112 2.471 . S
Eu89 O100 2.418 . S
Eu89 O101 2.384 1_545 S
Eu89 O104 2.479 . S
Eu89 O105 2.471 . S
Eu89 O106 2.347 1_655 S
Eu89 O109 2.366 . S
Eu89 C119 2.825 . S
C90 O106 1.259 1_565 S
C90 O107 1.265 . S
C91 O108 1.255 . S
C91 O109 1.265 1_455 S
C92 C94 1.380 . S
C92 C95 1.374 . S
C92 C98 1.507 1_554 S
C93 C94 1.384 . S
C93 C97 1.387 . S
C93 H120 0.930 . S
C94 C92 1.380 . S
C94 C93 1.384 . S
C94 H121 0.931 . S
C95 C92 1.374 . S
C95 C96 1.390 . S
C95 H122 0.930 1_455 S
C96 C95 1.390 . S
C96 C97 1.391 . S
C96 H123 0.930 1_455 S
C97 C93 1.387 . S
C97 C96 1.391 . S
C98 Tb88 2.825 . S
C98 C92 1.507 1_556 S
C98 O111 1.238 . S
C98 O112 1.247 . S
O99 Tb88 2.347 1_655 S
O99 C103 1.259 1_565 S
O100 Eu89 2.418 . S
O100 C103 1.265 . S
O101 Eu89 2.384 1_565 S
O101 C110 1.255 . S
O102 Tb88 2.366 . S
O102 C110 1.265 1_455 S
C103 O99 1.259 1_545 S
C103 O100 1.265 . S
O104 Eu89 2.479 . S
O104 C119 1.238 . S
O105 Eu89 2.471 . S
O105 C119 1.247 . S
O106 Eu89 2.347 1_455 S
O106 C90 1.259 1_545 S
O107 Tb88 2.418 . S
O107 C90 1.265 . S
O108 Tb88 2.384 1_545 S
O108 C91 1.255 . S
O109 Eu89 2.366 . S
O109 C91 1.265 1_655 S
C110 O101 1.255 . S
C110 O102 1.265 1_655 S
O111 Tb88 2.479 . S
O111 C98 1.238 . S
O112 Tb88 2.471 . S
O112 C98 1.247 . S
C113 C116 1.380 . S
C113 C117 1.374 . S
C113 C119 1.507 . S
C114 C115 1.387 . S
C114 C118 1.391 . S
C115 C114 1.387 . S
C115 C116 1.384 . S
C115 H124 0.930 . S
C116 C113 1.380 . S
C116 C115 1.384 . S
C116 H125 0.931 . S
C117 C113 1.374 . S
C117 C118 1.390 . S
C117 H126 0.930 1_655 S
C118 C114 1.391 . S
C118 C117 1.390 . S
C118 H127 0.930 1_655 S
C119 Eu89 2.825 . S
C119 O104 1.238 . S
C119 O105 1.247 . S
C119 C113 1.507 . S
H120 C93 0.930 . S
H121 C94 0.931 . S
H122 C95 0.930 1_655 S
H123 C96 0.930 1_655 S
H124 C115 0.930 . S
H125 C116 0.931 . S
H126 C117 0.930 1_455 S
H127 C118 0.930 1_455 S
Tb128 C138 2.825 . S
Tb128 O139 2.347 1_545 S
Tb128 O142 2.366 . S
Tb128 O147 2.418 . S
Tb128 O148 2.384 . S
Tb128 O151 2.479 . S
Tb128 O152 2.471 . S
Eu129 O140 2.418 . S
Eu129 O141 2.384 . S
Eu129 O144 2.479 . S
Eu129 O145 2.471 . S
Eu129 O146 2.347 1_565 S
Eu129 O149 2.366 . S
Eu129 C159 2.825 . S
C130 O146 1.259 . S
C130 O147 1.265 . S
C131 O148 1.255 . S
C131 O149 1.265 1_545 S
C132 C134 1.380 . S
C132 C135 1.374 . S
C132 C138 1.507 1_554 S
C133 C134 1.384 . S
C133 C137 1.387 . S
C133 H160 0.930 . S
C134 C132 1.380 . S
C134 C133 1.384 . S
C134 H161 0.931 . S
C135 C132 1.374 . S
C135 C136 1.390 . S
C135 H162 0.930 1_545 S
C136 C135 1.390 . S
C136 C137 1.391 . S
C136 H163 0.930 1_545 S
C137 C133 1.387 . S
C137 C136 1.391 . S
C138 Tb128 2.825 . S
C138 C132 1.507 1_556 S
C138 O151 1.238 . S
C138 O152 1.247 . S
O139 Tb128 2.347 1_565 S
O139 C143 1.259 . S
O140 Eu129 2.418 . S
O140 C143 1.265 . S
O141 Eu129 2.384 . S
O141 C150 1.255 . S
O142 Tb128 2.366 . S
O142 C150 1.265 1_545 S
C143 O139 1.259 . S
C143 O140 1.265 . S
O144 Eu129 2.479 . S
O144 C159 1.238 . S
O145 Eu129 2.471 . S
O145 C159 1.247 . S
O146 Eu129 2.347 1_545 S
O146 C130 1.259 . S
O147 Tb128 2.418 . S
O147 C130 1.265 . S
O148 Tb128 2.384 . S
O148 C131 1.255 . S
O149 Eu129 2.366 . S
O149 C131 1.265 1_565 S
C150 O141 1.255 . S
C150 O142 1.265 1_565 S
O151 Tb128 2.479 . S
O151 C138 1.238 . S
O152 Tb128 2.471 . S
O152 C138 1.247 . S
C153 C156 1.380 . S
C153 C157 1.374 . S
C153 C159 1.507 . S
C154 C155 1.387 . S
C154 C158 1.391 . S
C155 C154 1.387 . S
C155 C156 1.384 . S
C155 H164 0.930 . S
C156 C153 1.380 . S
C156 C155 1.384 . S
C156 H165 0.931 . S
C157 C153 1.374 . S
C157 C158 1.390 . S
C157 H166 0.930 1_565 S
C158 C154 1.391 . S
C158 C157 1.390 . S
C158 H167 0.930 1_565 S
C159 Eu129 2.825 . S
C159 O144 1.238 . S
C159 O145 1.247 . S
C159 C153 1.507 . S
H160 C133 0.930 . S
H161 C134 0.931 . S
H162 C135 0.930 1_565 S
H163 C136 0.930 1_565 S
H164 C155 0.930 . S
H165 C156 0.931 . S
H166 C157 0.930 1_545 S
H167 C158 0.930 1_545 S
Tb168 C178 2.825 . S
Tb168 O179 2.347 . S
Tb168 O182 2.366 . S
Tb168 O187 2.418 . S
Tb168 O188 2.384 . S
Tb168 O191 2.479 . S
Tb168 O192 2.471 . S
Eu169 O180 2.418 . S
Eu169 O181 2.384 . S
Eu169 O184 2.479 . S
Eu169 O185 2.471 . S
Eu169 O186 2.347 . S
Eu169 O189 2.366 . S
Eu169 C199 2.825 . S
C170 O186 1.259 . S
C170 O187 1.265 . S
C171 O188 1.255 . S
C171 O189 1.265 . S
C172 C174 1.380 . S
C172 C175 1.374 . S
C172 C178 1.507 1_554 S
C173 C174 1.384 . S
C173 C177 1.387 . S
C173 H200 0.930 . S
C174 C172 1.380 . S
C174 C173 1.384 . S
C174 H201 0.931 . S
C175 C172 1.374 . S
C175 C176 1.390 . S
C175 H202 0.930 . S
C176 C175 1.390 . S
C176 C177 1.391 . S
C176 H203 0.930 . S
C177 C173 1.387 . S
C177 C176 1.391 . S
C178 Tb168 2.825 . S
C178 C172 1.507 1_556 S
C178 O191 1.238 . S
C178 O192 1.247 . S
O179 Tb168 2.347 . S
O179 C183 1.259 . S
O180 Eu169 2.418 . S
O180 C183 1.265 . S
O181 Eu169 2.384 . S
O181 C190 1.255 . S
O182 Tb168 2.366 . S
O182 C190 1.265 . S
C183 O179 1.259 . S
C183 O180 1.265 . S
O184 Eu169 2.479 . S
O184 C199 1.238 . S
O185 Eu169 2.471 . S
O185 C199 1.247 . S
O186 Eu169 2.347 . S
O186 C170 1.259 . S
O187 Tb168 2.418 . S
O187 C170 1.265 . S
O188 Tb168 2.384 . S
O188 C171 1.255 . S
O189 Eu169 2.366 . S
O189 C171 1.265 . S
C190 O181 1.255 . S
C190 O182 1.265 . S
O191 Tb168 2.479 . S
O191 C178 1.238 . S
O192 Tb168 2.471 . S
O192 C178 1.247 . S
C193 C196 1.380 . S
C193 C197 1.374 . S
C193 C199 1.507 . S
C194 C195 1.387 . S
C194 C198 1.391 . S
C195 C194 1.387 . S
C195 C196 1.384 . S
C195 H204 0.930 . S
C196 C193 1.380 . S
C196 C195 1.384 . S
C196 H205 0.931 . S
C197 C193 1.374 . S
C197 C198 1.390 . S
C197 H206 0.930 . S
C198 C194 1.391 . S
C198 C197 1.390 . S
C198 H207 0.930 . S
C199 Eu169 2.825 . S
C199 O184 1.238 . S
C199 O185 1.247 . S
C199 C193 1.507 . S
H200 C173 0.930 . S
H201 C174 0.931 . S
H202 C175 0.930 . S
H203 C176 0.930 . S
H204 C195 0.930 . S
H205 C196 0.931 . S
H206 C197 0.930 . S
H207 C198 0.930 . S
Tb208 C218 2.825 . S
Tb208 O219 2.347 . S
Tb208 O222 2.366 . S
Tb208 O227 2.418 . S
Tb208 O228 2.384 1_655 S
Tb208 O231 2.479 . S
Tb208 O232 2.471 . S
Eu209 O220 2.418 . S
Eu209 O221 2.384 1_455 S
Eu209 O224 2.479 . S
Eu209 O225 2.471 . S
Eu209 O226 2.347 . S
Eu209 O229 2.366 . S
Eu209 C239 2.825 . S
C210 O226 1.259 1_655 S
C210 O227 1.265 . S
C211 O228 1.255 . S
C211 O229 1.265 . S
C212 C214 1.380 . S
C212 C215 1.374 . S
C212 C218 1.507 1_554 S
C213 C214 1.384 . S
C213 C217 1.387 . S
C213 H240 0.930 . S
C214 C212 1.380 . S
C214 C213 1.384 . S
C214 H241 0.931 . S
C215 C212 1.374 . S
C215 C216 1.390 . S
C215 H242 0.930 . S
C216 C215 1.390 . S
C216 C217 1.391 . S
C216 H243 0.930 . S
C217 C213 1.387 . S
C217 C216 1.391 . S
C218 Tb208 2.825 . S
C218 C212 1.507 1_556 S
C218 O231 1.238 . S
C218 O232 1.247 . S
O219 Tb208 2.347 . S
O219 C223 1.259 1_655 S
O220 Eu209 2.418 . S
O220 C223 1.265 . S
O221 Eu209 2.384 1_655 S
O221 C230 1.255 . S
O222 Tb208 2.366 . S
O222 C230 1.265 . S
C223 O219 1.259 1_455 S
C223 O220 1.265 . S
O224 Eu209 2.479 . S
O224 C239 1.238 . S
O225 Eu209 2.471 . S
O225 C239 1.247 . S
O226 Eu209 2.347 . S
O226 C210 1.259 1_455 S
O227 Tb208 2.418 . S
O227 C210 1.265 . S
O228 Tb208 2.384 1_455 S
O228 C211 1.255 . S
O229 Eu209 2.366 . S
O229 C211 1.265 . S
C230 O221 1.255 . S
C230 O222 1.265 . S
O231 Tb208 2.479 . S
O231 C218 1.238 . S
O232 Tb208 2.471 . S
O232 C218 1.247 . S
C233 C236 1.380 . S
C233 C237 1.374 . S
C233 C239 1.507 . S
C234 C235 1.387 . S
C234 C238 1.391 . S
C235 C234 1.387 . S
C235 C236 1.384 . S
C235 H244 0.930 . S
C236 C233 1.380 . S
C236 C235 1.384 . S
C236 H245 0.931 . S
C237 C233 1.374 . S
C237 C238 1.390 . S
C237 H246 0.930 . S
C238 C234 1.391 . S
C238 C237 1.390 . S
C238 H247 0.930 . S
C239 Eu209 2.825 . S
C239 O224 1.238 . S
C239 O225 1.247 . S
C239 C233 1.507 . S
H240 C213 0.930 . S
H241 C214 0.931 . S
H242 C215 0.930 . S
H243 C216 0.930 . S
H244 C235 0.930 . S
H245 C236 0.931 . S
H246 C237 0.930 . S
H247 C238 0.930 . S
C248 C249 1.391 . S
C248 C250 1.394 . S
C248 H264 0.931 . S
C249 C248 1.391 . S
C249 C253 1.376 1_545 S
C250 C248 1.394 . S
C250 C251 1.369 . S
C250 C254 1.531 . S
C251 C250 1.369 . S
C251 C252 1.410 1_545 S
C251 C259 1.503 . S
C252 C251 1.410 1_565 S
C252 C253 1.392 . S
C252 C255 1.511 . S
C253 C249 1.376 1_565 S
C253 C252 1.392 . S
C253 H265 0.929 . S
C254 C250 1.531 . S
C254 H266 0.960 . S
C254 H267 0.962 . S
C254 H268 0.960 . S
C255 C252 1.511 . S
C255 H269 0.961 . S
C255 H270 0.961 . S
C255 H271 0.961 . S
C256 C257 1.351 1_565 S
C256 C258 1.363 . S
C256 H272 0.931 . S
C257 C256 1.351 1_545 S
C257 C261 1.431 . S
C258 C256 1.363 . S
C258 C259 1.370 1_565 S
C258 C262 1.524 . S
C259 C251 1.503 . S
C259 C258 1.370 1_545 S
C259 C260 1.403 . S
C260 C259 1.403 . S
C260 C261 1.404 . S
C260 C263 1.539 . S
C261 C257 1.431 . S
C261 C260 1.404 . S
C261 H273 0.930 . S
C262 C258 1.524 . S
C262 H274 0.956 . S
C262 H275 0.961 . S
C262 H276 0.961 . S
C263 C260 1.539 . S
C263 H277 0.958 . S
C263 H278 0.961 . S
C263 H279 0.960 . S
H264 C248 0.931 . S
H265 C253 0.929 . S
H266 C254 0.960 . S
H267 C254 0.962 . S
H268 C254 0.960 . S
H269 C255 0.961 . S
H270 C255 0.961 . S
H271 C255 0.961 . S
H272 C256 0.931 . S
H273 C261 0.930 . S
H274 C262 0.956 . S
H275 C262 0.961 . S
H276 C262 0.961 . S
H277 C263 0.958 . S
H278 C263 0.961 . S
H279 C263 0.960 . S
C280 C281 1.391 . S
C280 C282 1.394 . S
C280 H296 0.931 . S
C281 C280 1.391 . S
C281 C285 1.376 . S
C282 C280 1.394 . S
C282 C283 1.369 . S
C282 C286 1.531 . S
C283 C282 1.369 . S
C283 C284 1.410 . S
C283 C291 1.503 . S
C284 C283 1.410 . S
C284 C285 1.392 . S
C284 C287 1.511 . S
C285 C281 1.376 . S
C285 C284 1.392 . S
C285 H297 0.929 . S
C286 C282 1.531 . S
C286 H298 0.960 . S
C286 H299 0.962 . S
C286 H300 0.960 . S
C287 C284 1.511 . S
C287 H301 0.961 . S
C287 H302 0.961 . S
C287 H303 0.961 . S
C288 C289 1.370 . S
C288 C290 1.363 . S
C288 H304 0.931 . S
C289 C288 1.370 . S
C289 C293 1.408 . S
C290 C288 1.363 . S
C290 C291 1.370 . S
C290 C294 1.524 . S
C291 C283 1.503 . S
C291 C290 1.370 . S
C291 C292 1.403 . S
C292 C291 1.403 . S
C292 C293 1.404 . S
C292 C295 1.539 . S
C293 C289 1.408 . S
C293 C292 1.404 . S
C293 H305 0.930 . S
C294 C290 1.524 . S
C294 H306 0.956 . S
C294 H307 0.961 . S
C294 H308 0.961 . S
C295 C292 1.539 . S
C295 H309 0.958 . S
C295 H310 0.961 . S
C295 H311 0.960 . S
H296 C280 0.931 . S
H297 C285 0.929 . S
H298 C286 0.960 . S
H299 C286 0.962 . S
H300 C286 0.960 . S
H301 C287 0.961 . S
H302 C287 0.961 . S
H303 C287 0.961 . S
H304 C288 0.931 . S
H305 C293 0.930 . S
H306 C294 0.956 . S
H307 C294 0.961 . S
H308 C294 0.961 . S
H309 C295 0.958 . S
H310 C295 0.961 . S
H311 C295 0.960 . S
C312 C313 1.391 . S
C312 C314 1.394 . S
C312 H328 0.931 . S
C313 C312 1.391 . S
C313 C317 1.376 . S
C314 C312 1.394 . S
C314 C315 1.369 . S
C314 C318 1.531 . S
C315 C314 1.369 . S
C315 C316 1.410 . S
C315 C323 1.503 . S
C316 C315 1.410 . S
C316 C317 1.392 . S
C316 C319 1.511 . S
C317 C313 1.376 . S
C317 C316 1.392 . S
C317 H329 0.929 . S
C318 C314 1.531 . S
C318 H330 0.960 . S
C318 H331 0.962 . S
C318 H332 0.960 . S
C319 C316 1.511 . S
C319 H333 0.961 . S
C319 H334 0.961 . S
C319 H335 0.961 . S
C320 C321 1.370 . S
C320 C322 1.363 . S
C320 H336 0.931 . S
C321 C320 1.370 . S
C321 C325 1.408 . S
C322 C320 1.363 . S
C322 C323 1.370 . S
C322 C326 1.524 . S
C323 C315 1.503 . S
C323 C322 1.370 . S
C323 C324 1.403 . S
C324 C323 1.403 . S
C324 C325 1.404 . S
C324 C327 1.539 . S
C325 C321 1.408 . S
C325 C324 1.404 . S
C325 H337 0.930 . S
C326 C322 1.524 . S
C326 H338 0.956 . S
C326 H339 0.961 . S
C326 H340 0.961 . S
C327 C324 1.539 . S
C327 H341 0.958 . S
C327 H342 0.961 . S
C327 H343 0.960 . S
H328 C312 0.931 . S
H329 C317 0.929 . S
H330 C318 0.960 . S
H331 C318 0.962 . S
H332 C318 0.960 . S
H333 C319 0.961 . S
H334 C319 0.961 . S
H335 C319 0.961 . S
H336 C320 0.931 . S
H337 C325 0.930 . S
H338 C326 0.956 . S
H339 C326 0.961 . S
H340 C326 0.961 . S
H341 C327 0.958 . S
H342 C327 0.961 . S
H343 C327 0.960 . S
C344 C345 1.391 1_455 S
C344 C346 1.394 . S
C344 H360 0.931 . S
C345 C344 1.391 1_655 S
C345 C349 1.376 . S
C346 C344 1.394 . S
C346 C347 1.369 1_455 S
C346 C350 1.531 . S
C347 C346 1.369 1_655 S
C347 C348 1.410 . S
C347 C355 1.503 . S
C348 C347 1.410 . S
C348 C349 1.392 . S
C348 C351 1.511 . S
C349 C345 1.376 . S
C349 C348 1.392 . S
C349 H361 0.929 . S
C350 C346 1.531 . S
C350 H362 0.960 . S
C350 H363 0.962 . S
C350 H364 0.960 . S
C351 C348 1.511 . S
C351 H365 0.961 . S
C351 H366 0.961 . S
C351 H367 0.961 . S
C352 C353 1.374 . S
C352 C354 1.363 . S
C352 H368 0.931 . S
C353 C352 1.374 . S
C353 C357 1.405 1_455 S
C354 C352 1.363 . S
C354 C355 1.370 1_455 S
C354 C358 1.524 . S
C355 C347 1.503 . S
C355 C354 1.370 1_655 S
C355 C356 1.403 . S
C356 C355 1.403 . S
C356 C357 1.404 . S
C356 C359 1.539 . S
C357 C353 1.405 1_655 S
C357 C356 1.404 . S
C357 H369 0.930 . S
C358 C354 1.524 . S
C358 H370 0.956 . S
C358 H371 0.961 . S
C358 H372 0.961 . S
C359 C356 1.539 . S
C359 H373 0.958 . S
C359 H374 0.961 . S
C359 H375 0.960 . S
H360 C344 0.931 . S
H361 C349 0.929 . S
H362 C350 0.960 . S
H363 C350 0.962 . S
H364 C350 0.960 . S
H365 C351 0.961 . S
H366 C351 0.961 . S
H367 C351 0.961 . S
H368 C352 0.931 . S
H369 C357 0.930 . S
H370 C358 0.956 . S
H371 C358 0.961 . S
H372 C358 0.961 . S
H373 C359 0.958 . S
H374 C359 0.961 . S
H375 C359 0.960 . S
C376 C377 1.391 . S
C376 C378 1.394 . S
C376 H392 0.931 . S
C377 C376 1.391 . S
C377 C381 1.376 1_545 S
C378 C376 1.394 . S
C378 C379 1.369 . S
C378 C382 1.531 . S
C379 C378 1.369 . S
C379 C380 1.410 1_545 S
C379 C387 1.503 . S
C380 C379 1.410 1_565 S
C380 C381 1.392 . S
C380 C383 1.511 . S
C381 C377 1.376 1_565 S
C381 C380 1.392 . S
C381 H393 0.929 . S
C382 C378 1.531 . S
C382 H394 0.960 . S
C382 H395 0.962 . S
C382 H396 0.960 . S
C383 C380 1.511 . S
C383 H397 0.961 . S
C383 H398 0.961 . S
C383 H399 0.961 . S
C384 C385 1.365 1_565 S
C384 C386 1.363 1_556 S
C384 H400 0.931 . S
C385 C384 1.365 1_545 S
C385 C389 1.414 1_556 S
C386 C384 1.363 1_554 S
C386 C387 1.370 1_565 S
C386 C390 1.524 . S
C387 C379 1.503 . S
C387 C386 1.370 1_545 S
C387 C388 1.403 . S
C388 C387 1.403 . S
C388 C389 1.404 . S
C388 C391 1.539 . S
C389 C385 1.414 1_554 S
C389 C388 1.404 . S
C389 H401 0.930 . S
C390 C386 1.524 . S
C390 H402 0.956 . S
C390 H403 0.961 . S
C390 H404 0.961 1_554 S
C391 C388 1.539 . S
C391 H405 0.958 . S
C391 H406 0.961 . S
C391 H407 0.960 . S
H392 C376 0.931 . S
H393 C381 0.929 . S
H394 C382 0.960 . S
H395 C382 0.962 . S
H396 C382 0.960 . S
H397 C383 0.961 . S
H398 C383 0.961 . S
H399 C383 0.961 . S
H400 C384 0.931 . S
H401 C389 0.930 . S
H402 C390 0.956 . S
H403 C390 0.961 . S
H404 C390 0.961 1_556 S
H405 C391 0.958 . S
H406 C391 0.961 . S
H407 C391 0.960 . S
C408 C409 1.391 . S
C408 C410 1.394 . S
C408 H424 0.931 . S
C409 C408 1.391 . S
C409 C413 1.376 . S
C410 C408 1.394 . S
C410 C411 1.369 . S
C410 C414 1.531 . S
C411 C410 1.369 . S
C411 C412 1.410 . S
C411 C419 1.503 . S
C412 C411 1.410 . S
C412 C413 1.392 . S
C412 C415 1.511 . S
C413 C409 1.376 . S
C413 C412 1.392 . S
C413 H425 0.929 . S
C414 C410 1.531 . S
C414 H426 0.960 . S
C414 H427 0.962 . S
C414 H428 0.960 . S
C415 C412 1.511 . S
C415 H429 0.961 . S
C415 H430 0.961 . S
C415 H431 0.961 . S
C416 C417 1.370 1_554 S
C416 C418 1.363 . S
C416 H432 0.931 . S
C417 C416 1.370 1_556 S
C417 C421 1.408 . S
C418 C416 1.363 . S
C418 C419 1.370 . S
C418 C422 1.524 . S
C419 C411 1.503 . S
C419 C418 1.370 . S
C419 C420 1.403 1_554 S
C420 C419 1.403 1_556 S
C420 C421 1.404 . S
C420 C423 1.539 . S
C421 C417 1.408 . S
C421 C420 1.404 . S
C421 H433 0.930 . S
C422 C418 1.524 . S
C422 H434 0.956 . S
C422 H435 0.961 . S
C422 H436 0.961 . S
C423 C420 1.539 . S
C423 H437 0.958 . S
C423 H438 0.961 . S
C423 H439 0.960 1_556 S
H424 C408 0.931 . S
H425 C413 0.929 . S
H426 C414 0.960 . S
H427 C414 0.962 . S
H428 C414 0.960 . S
H429 C415 0.961 . S
H430 C415 0.961 . S
H431 C415 0.961 . S
H432 C416 0.931 . S
H433 C421 0.930 . S
H434 C422 0.956 . S
H435 C422 0.961 . S
H436 C422 0.961 . S
H437 C423 0.958 . S
H438 C423 0.961 . S
H439 C423 0.960 1_554 S
C440 C441 1.391 . S
C440 C442 1.394 . S
C440 H456 0.931 . S
C441 C440 1.391 . S
C441 C445 1.376 . S
C442 C440 1.394 . S
C442 C443 1.369 . S
C442 C446 1.531 . S
C443 C442 1.369 . S
C443 C444 1.410 . S
C443 C451 1.503 . S
C444 C443 1.410 . S
C444 C445 1.392 . S
C444 C447 1.511 . S
C445 C441 1.376 . S
C445 C444 1.392 . S
C445 H457 0.929 . S
C446 C442 1.531 . S
C446 H458 0.960 . S
C446 H459 0.962 . S
C446 H460 0.960 . S
C447 C444 1.511 . S
C447 H461 0.961 . S
C447 H462 0.961 . S
C447 H463 0.961 . S
C448 C449 1.370 . S
C448 C450 1.363 1_556 S
C448 H464 0.931 . S
C449 C448 1.370 . S
C449 C453 1.408 1_556 S
C450 C448 1.363 1_554 S
C450 C451 1.370 . S
C450 C454 1.524 . S
C451 C443 1.503 . S
C451 C450 1.370 . S
C451 C452 1.403 . S
C452 C451 1.403 . S
C452 C453 1.404 . S
C452 C455 1.539 . S
C453 C449 1.408 1_554 S
C453 C452 1.404 . S
C453 H465 0.930 1_554 S
C454 C450 1.524 . S
C454 H466 0.956 . S
C454 H467 0.961 . S
C454 H468 0.961 1_554 S
C455 C452 1.539 . S
C455 H469 0.958 . S
C455 H470 0.961 . S
C455 H471 0.960 . S
H456 C440 0.931 . S
H457 C445 0.929 . S
H458 C446 0.960 . S
H459 C446 0.962 . S
H460 C446 0.960 . S
H461 C447 0.961 . S
H462 C447 0.961 . S
H463 C447 0.961 . S
H464 C448 0.931 . S
H465 C453 0.930 1_556 S
H466 C454 0.956 . S
H467 C454 0.961 . S
H468 C454 0.961 1_556 S
H469 C455 0.958 . S
H470 C455 0.961 . S
H471 C455 0.960 . S
C472 C473 1.373 1_655 S
C472 C474 1.394 . S
C472 H488 0.931 . S
C473 C472 1.373 1_455 S
C473 C477 1.394 . S
C474 C472 1.394 . S
C474 C475 1.369 1_655 S
C474 C478 1.531 . S
C475 C474 1.369 1_455 S
C475 C476 1.410 . S
C475 C483 1.504 . S
C476 C475 1.410 . S
C476 C477 1.392 . S
C476 C479 1.511 . S
C477 C473 1.394 . S
C477 C476 1.392 . S
C477 H489 0.929 . S
C478 C474 1.531 . S
C478 H490 0.960 . S
C478 H491 0.962 . S
C478 H492 0.960 . S
C479 C476 1.511 . S
C479 H493 0.961 . S
C479 H494 0.961 . S
C479 H495 0.961 . S
C480 C481 1.376 1_554 S
C480 C482 1.363 . S
C480 H496 0.931 . S
C481 C480 1.376 1_556 S
C481 C485 1.402 1_655 S
C482 C480 1.363 . S
C482 C483 1.363 1_655 S
C482 C486 1.524 . S
C483 C475 1.504 . S
C483 C482 1.363 1_455 S
C483 C484 1.409 1_554 S
C484 C483 1.409 1_556 S
C484 C485 1.404 . S
C484 C487 1.539 . S
C485 C481 1.402 1_455 S
C485 C484 1.404 . S
C485 H497 0.930 . S
C486 C482 1.524 . S
C486 H498 0.956 . S
C486 H499 0.961 . S
C486 H500 0.961 . S
C487 C484 1.539 . S
C487 H501 0.958 . S
C487 H502 0.961 . S
C487 H503 0.960 1_556 S
H488 C472 0.931 . S
H489 C477 0.929 . S
H490 C478 0.960 . S
H491 C478 0.962 . S
H492 C478 0.960 . S
H493 C479 0.961 . S
H494 C479 0.961 . S
H495 C479 0.961 . S
H496 C480 0.931 . S
H497 C485 0.930 . S
H498 C486 0.956 . S
H499 C486 0.961 . S
H500 C486 0.961 . S
H501 C487 0.958 . S
H502 C487 0.961 . S
H503 C487 0.960 1_554 S
C504 C505 1.391 1_655 S
C504 C506 1.394 . S
C504 H520 0.931 . S
C505 C504 1.391 1_455 S
C505 C509 1.376 . S
C506 C504 1.394 . S
C506 C507 1.369 . S
C506 C510 1.531 . S
C507 C506 1.369 . S
C507 C508 1.410 1_655 S
C507 C515 1.503 . S
C508 C507 1.410 1_455 S
C508 C509 1.392 . S
C508 C511 1.511 . S
C509 C505 1.376 . S
C509 C508 1.392 . S
C509 H521 0.929 . S
C510 C506 1.531 . S
C510 H522 0.960 . S
C510 H523 0.962 . S
C510 H524 0.960 . S
C511 C508 1.511 . S
C511 H525 0.961 . S
C511 H526 0.961 . S
C511 H527 0.961 . S
C512 C513 1.370 . S
C512 C514 1.363 . S
C512 H528 0.931 . S
C513 C512 1.370 . S
C513 C517 1.408 . S
C514 C512 1.363 . S
C514 C515 1.370 . S
C514 C518 1.524 . S
C515 C507 1.503 . S
C515 C514 1.370 . S
C515 C516 1.403 . S
C516 C515 1.403 . S
C516 C517 1.404 . S
C516 C519 1.539 . S
C517 C513 1.408 . S
C517 C516 1.404 . S
C517 H529 0.930 . S
C518 C514 1.524 . S
C518 H530 0.956 . S
C518 H531 0.961 1_655 S
C518 H532 0.961 . S
C519 C516 1.539 . S
C519 H533 0.958 . S
C519 H534 0.961 . S
C519 H535 0.960 . S
H520 C504 0.931 . S
H521 C509 0.929 . S
H522 C510 0.960 . S
H523 C510 0.962 . S
H524 C510 0.960 . S
H525 C511 0.961 . S
H526 C511 0.961 . S
H527 C511 0.961 . S
H528 C512 0.931 . S
H529 C517 0.930 . S
H530 C518 0.956 . S
H531 C518 0.961 1_455 S
H532 C518 0.961 . S
H533 C519 0.958 . S
H534 C519 0.961 . S
H535 C519 0.960 . S
C536 C537 1.391 1_565 S
C536 C538 1.394 . S
C536 H552 0.931 . S
C537 C536 1.391 1_545 S
C537 C541 1.376 . S
C538 C536 1.394 . S
C538 C539 1.369 . S
C538 C542 1.531 . S
C539 C538 1.369 . S
C539 C540 1.410 1_565 S
C539 C547 1.503 . S
C540 C539 1.410 1_545 S
C540 C541 1.392 . S
C540 C543 1.511 . S
C541 C537 1.376 . S
C541 C540 1.392 . S
C541 H553 0.929 . S
C542 C538 1.531 . S
C542 H554 0.960 . S
C542 H555 0.962 . S
C542 H556 0.960 . S
C543 C540 1.511 . S
C543 H557 0.961 . S
C543 H558 0.961 1_545 S
C543 H559 0.961 . S
C544 C545 1.370 . S
C544 C546 1.363 . S
C544 H560 0.931 . S
C545 C544 1.370 . S
C545 C549 1.408 . S
C546 C544 1.363 . S
C546 C547 1.370 . S
C546 C550 1.524 . S
C547 C539 1.503 . S
C547 C546 1.370 . S
C547 C548 1.403 1_565 S
C548 C547 1.403 1_545 S
C548 C549 1.404 1_545 S
C548 C551 1.539 . S
C549 C545 1.408 . S
C549 C548 1.404 1_565 S
C549 H561 0.930 1_565 S
C550 C546 1.524 . S
C550 H562 0.956 . S
C550 H563 0.961 . S
C550 H564 0.961 . S
C551 C548 1.539 . S
C551 H565 0.958 . S
C551 H566 0.961 . S
C551 H567 0.960 . S
H552 C536 0.931 . S
H553 C541 0.929 . S
H554 C542 0.960 . S
H555 C542 0.962 . S
H556 C542 0.960 . S
H557 C543 0.961 . S
H558 C543 0.961 1_565 S
H559 C543 0.961 . S
H560 C544 0.931 . S
H561 C549 0.930 1_545 S
H562 C550 0.956 . S
H563 C550 0.961 . S
H564 C550 0.961 . S
H565 C551 0.958 . S
H566 C551 0.961 . S
H567 C551 0.960 . S
C568 C569 1.391 . S
C568 C570 1.394 . S
C568 H584 0.931 . S
C569 C568 1.391 . S
C569 C573 1.376 . S
C570 C568 1.394 . S
C570 C571 1.369 . S
C570 C574 1.531 . S
C571 C570 1.369 . S
C571 C572 1.410 . S
C571 C579 1.503 . S
C572 C571 1.410 . S
C572 C573 1.392 . S
C572 C575 1.511 . S
C573 C569 1.376 . S
C573 C572 1.392 . S
C573 H585 0.929 . S
C574 C570 1.531 . S
C574 H586 0.960 . S
C574 H587 0.962 . S
C574 H588 0.960 . S
C575 C572 1.511 . S
C575 H589 0.961 . S
C575 H590 0.961 . S
C575 H591 0.961 . S
C576 C577 1.370 . S
C576 C578 1.363 . S
C576 H592 0.931 . S
C577 C576 1.370 . S
C577 C581 1.408 . S
C578 C576 1.363 . S
C578 C579 1.370 . S
C578 C582 1.524 . S
C579 C571 1.503 . S
C579 C578 1.370 . S
C579 C580 1.403 . S
C580 C579 1.403 . S
C580 C581 1.404 . S
C580 C583 1.539 . S
C581 C577 1.408 . S
C581 C580 1.404 . S
C581 H593 0.930 . S
C582 C578 1.524 . S
C582 H594 0.956 . S
C582 H595 0.961 . S
C582 H596 0.961 . S
C583 C580 1.539 . S
C583 H597 0.958 . S
C583 H598 0.961 . S
C583 H599 0.960 . S
H584 C568 0.931 . S
H585 C573 0.929 . S
H586 C574 0.960 . S
H587 C574 0.962 . S
H588 C574 0.960 . S
H589 C575 0.961 . S
H590 C575 0.961 . S
H591 C575 0.961 . S
H592 C576 0.931 . S
H593 C581 0.930 . S
H594 C582 0.956 . S
H595 C582 0.961 . S
H596 C582 0.961 . S
H597 C583 0.958 . S
H598 C583 0.961 . S
H599 C583 0.960 . S
C600 C601 1.391 . S
C600 C602 1.394 . S
C600 H616 0.931 . S
C601 C600 1.391 . S
C601 C605 1.376 . S
C602 C600 1.394 . S
C602 C603 1.369 . S
C602 C606 1.531 . S
C603 C602 1.369 . S
C603 C604 1.410 . S
C603 C611 1.503 . S
C604 C603 1.410 . S
C604 C605 1.392 . S
C604 C607 1.511 . S
C605 C601 1.376 . S
C605 C604 1.392 . S
C605 H617 0.929 . S
C606 C602 1.531 . S
C606 H618 0.960 . S
C606 H619 0.962 . S
C606 H620 0.960 . S
C607 C604 1.511 . S
C607 H621 0.961 . S
C607 H622 0.961 . S
C607 H623 0.961 . S
C608 C609 1.370 . S
C608 C610 1.363 . S
C608 H624 0.931 . S
C609 C608 1.370 . S
C609 C613 1.408 . S
C610 C608 1.363 . S
C610 C611 1.370 . S
C610 C614 1.524 . S
C611 C603 1.503 . S
C611 C610 1.370 . S
C611 C612 1.403 . S
C612 C611 1.403 . S
C612 C613 1.404 . S
C612 C615 1.539 . S
C613 C609 1.408 . S
C613 C612 1.404 . S
C613 H625 0.930 . S
C614 C610 1.524 . S
C614 H626 0.956 . S
C614 H627 0.961 . S
C614 H628 0.961 . S
C615 C612 1.539 . S
C615 H629 0.958 . S
C615 H630 0.961 . S
C615 H631 0.960 . S
H616 C600 0.931 . S
H617 C605 0.929 . S
H618 C606 0.960 . S
H619 C606 0.962 . S
H620 C606 0.960 . S
H621 C607 0.961 . S
H622 C607 0.961 . S
H623 C607 0.961 . S
H624 C608 0.931 . S
H625 C613 0.930 . S
H626 C614 0.956 . S
H627 C614 0.961 . S
H628 C614 0.961 . S
H629 C615 0.958 . S
H630 C615 0.961 . S
H631 C615 0.960 . S
C632 C633 1.391 . S
C632 C634 1.394 . S
C632 H648 0.931 . S
C633 C632 1.391 . S
C633 C637 1.376 1_655 S
C634 C632 1.394 . S
C634 C635 1.369 1_655 S
C634 C638 1.531 . S
C635 C634 1.369 1_455 S
C635 C636 1.410 . S
C635 C643 1.503 . S
C636 C635 1.410 . S
C636 C637 1.392 . S
C636 C639 1.511 . S
C637 C633 1.376 1_455 S
C637 C636 1.392 . S
C637 H649 0.929 . S
C638 C634 1.531 . S
C638 H650 0.960 . S
C638 H651 0.962 . S
C638 H652 0.960 . S
C639 C636 1.511 . S
C639 H653 0.961 . S
C639 H654 0.961 . S
C639 H655 0.961 . S
C640 C641 1.370 . S
C640 C642 1.363 . S
C640 H656 0.931 . S
C641 C640 1.370 . S
C641 C645 1.408 . S
C642 C640 1.363 . S
C642 C643 1.370 . S
C642 C646 1.524 . S
C643 C635 1.503 . S
C643 C642 1.370 . S
C643 C644 1.403 . S
C644 C643 1.403 . S
C644 C645 1.404 . S
C644 C647 1.539 . S
C645 C641 1.408 . S
C645 C644 1.404 . S
C645 H657 0.930 . S
C646 C642 1.524 . S
C646 H658 0.956 1_455 S
C646 H659 0.961 . S
C646 H660 0.961 . S
C647 C644 1.539 . S
C647 H661 0.958 . S
C647 H662 0.961 . S
C647 H663 0.960 . S
H648 C632 0.931 . S
H649 C637 0.929 . S
H650 C638 0.960 . S
H651 C638 0.962 . S
H652 C638 0.960 . S
H653 C639 0.961 . S
H654 C639 0.961 . S
H655 C639 0.961 . S
H656 C640 0.931 . S
H657 C645 0.930 . S
H658 C646 0.956 1_655 S
H659 C646 0.961 . S
H660 C646 0.961 . S
H661 C647 0.958 . S
H662 C647 0.961 . S
H663 C647 0.960 . S
C664 C665 1.358 1_545 S
C664 C666 1.394 . S
C664 H680 0.931 . S
C665 C664 1.358 1_565 S
C665 C669 1.400 . S
C666 C664 1.394 . S
C666 C667 1.369 . S
C666 C670 1.531 . S
C667 C666 1.369 . S
C667 C668 1.410 1_545 S
C667 C675 1.503 . S
C668 C667 1.410 1_565 S
C668 C669 1.392 . S
C668 C671 1.511 . S
C669 C665 1.400 . S
C669 C668 1.392 . S
C669 H681 0.929 . S
C670 C666 1.531 . S
C670 H682 0.960 . S
C670 H683 0.962 . S
C670 H684 0.960 . S
C671 C668 1.511 . S
C671 H685 0.961 . S
C671 H686 0.961 . S
C671 H687 0.961 . S
C672 C673 1.370 . S
C672 C674 1.363 . S
C672 H688 0.931 . S
C673 C672 1.370 . S
C673 C677 1.408 . S
C674 C672 1.363 . S
C674 C675 1.370 . S
C674 C678 1.524 . S
C675 C667 1.503 . S
C675 C674 1.370 . S
C675 C676 1.403 . S
C676 C675 1.403 . S
C676 C677 1.404 . S
C676 C679 1.539 . S
C677 C673 1.408 . S
C677 C676 1.404 . S
C677 H689 0.930 1_554 S
C678 C674 1.524 . S
C678 H690 0.956 . S
C678 H691 0.961 1_545 S
C678 H692 0.961 . S
C679 C676 1.539 . S
C679 H693 0.958 . S
C679 H694 0.961 1_554 S
C679 H695 0.960 . S
H680 C664 0.931 . S
H681 C669 0.929 . S
H682 C670 0.960 . S
H683 C670 0.962 . S
H684 C670 0.960 . S
H685 C671 0.961 . S
H686 C671 0.961 . S
H687 C671 0.961 . S
H688 C672 0.931 . S
H689 C677 0.930 1_556 S
H690 C678 0.956 . S
H691 C678 0.961 1_565 S
H692 C678 0.961 . S
H693 C679 0.958 . S
H694 C679 0.961 1_556 S
H695 C679 0.960 . S
C696 C697 1.391 . S
C696 C698 1.394 . S
C696 H712 0.931 . S
C697 C696 1.391 . S
C697 C701 1.376 . S
C698 C696 1.394 . S
C698 C699 1.369 . S
C698 C702 1.531 . S
C699 C698 1.369 . S
C699 C700 1.410 . S
C699 C707 1.503 . S
C700 C699 1.410 . S
C700 C701 1.392 . S
C700 C703 1.511 . S
C701 C697 1.376 . S
C701 C700 1.392 . S
C701 H713 0.929 . S
C702 C698 1.531 . S
C702 H714 0.960 . S
C702 H715 0.962 . S
C702 H716 0.960 . S
C703 C700 1.511 . S
C703 H717 0.961 . S
C703 H718 0.961 . S
C703 H719 0.961 . S
C704 C705 1.370 . S
C704 C706 1.363 . S
C704 H720 0.931 . S
C705 C704 1.370 . S
C705 C709 1.408 . S
C706 C704 1.363 . S
C706 C707 1.370 . S
C706 C710 1.524 . S
C707 C699 1.503 . S
C707 C706 1.370 . S
C707 C708 1.403 . S
C708 C707 1.403 . S
C708 C709 1.404 . S
C708 C711 1.539 . S
C709 C705 1.408 . S
C709 C708 1.404 . S
C709 H721 0.930 . S
C710 C706 1.524 . S
C710 H722 0.956 . S
C710 H723 0.961 . S
C710 H724 0.961 . S
C711 C708 1.539 . S
C711 H725 0.958 . S
C711 H726 0.961 . S
C711 H727 0.960 . S
H712 C696 0.931 . S
H713 C701 0.929 . S
H714 C702 0.960 . S
H715 C702 0.962 . S
H716 C702 0.960 . S
H717 C703 0.961 . S
H718 C703 0.961 . S
H719 C703 0.961 . S
H720 C704 0.931 . S
H721 C709 0.930 . S
H722 C710 0.956 . S
H723 C710 0.961 . S
H724 C710 0.961 . S
H725 C711 0.958 . S
H726 C711 0.961 . S
H727 C711 0.960 . S
C728 C729 1.391 . S
C728 C730 1.394 . S
C728 H744 0.931 . S
C729 C728 1.391 . S
C729 C733 1.376 . S
C730 C728 1.394 . S
C730 C731 1.369 . S
C730 C734 1.531 . S
C731 C730 1.369 . S
C731 C732 1.410 . S
C731 C739 1.503 . S
C732 C731 1.410 . S
C732 C733 1.392 . S
C732 C735 1.511 . S
C733 C729 1.376 . S
C733 C732 1.392 . S
C733 H745 0.929 . S
C734 C730 1.531 . S
C734 H746 0.960 . S
C734 H747 0.962 . S
C734 H748 0.960 . S
C735 C732 1.511 . S
C735 H749 0.961 . S
C735 H750 0.961 . S
C735 H751 0.961 . S
C736 C737 1.370 . S
C736 C738 1.363 . S
C736 H752 0.931 . S
C737 C736 1.370 . S
C737 C741 1.408 . S
C738 C736 1.363 . S
C738 C739 1.370 . S
C738 C742 1.524 . S
C739 C731 1.503 . S
C739 C738 1.370 . S
C739 C740 1.403 . S
C740 C739 1.403 . S
C740 C741 1.404 . S
C740 C743 1.539 . S
C741 C737 1.408 . S
C741 C740 1.404 . S
C741 H753 0.930 . S
C742 C738 1.524 . S
C742 H754 0.956 . S
C742 H755 0.961 . S
C742 H756 0.961 . S
C743 C740 1.539 . S
C743 H757 0.958 . S
C743 H758 0.961 . S
C743 H759 0.960 . S
H744 C728 0.931 . S
H745 C733 0.929 . S
H746 C734 0.960 . S
H747 C734 0.962 . S
H748 C734 0.960 . S
H749 C735 0.961 . S
H750 C735 0.961 . S
H751 C735 0.961 . S
H752 C736 0.931 . S
H753 C741 0.930 . S
H754 C742 0.956 . S
H755 C742 0.961 . S
H756 C742 0.961 . S
H757 C743 0.958 . S
H758 C743 0.961 . S
H759 C743 0.960 . S
C760 C761 1.408 . S
C760 C762 1.394 . S
C760 H776 0.931 . S
C761 C760 1.408 . S
C761 C765 1.359 1_455 S
C762 C760 1.394 . S
C762 C763 1.369 . S
C762 C766 1.531 . S
C763 C762 1.369 . S
C763 C764 1.410 1_455 S
C763 C771 1.503 . S
C764 C763 1.410 1_655 S
C764 C765 1.392 . S
C764 C767 1.511 . S
C765 C761 1.359 1_655 S
C765 C764 1.392 . S
C765 H777 0.929 . S
C766 C762 1.531 . S
C766 H778 0.960 . S
C766 H779 0.962 . S
C766 H780 0.960 1_556 S
C767 C764 1.511 . S
C767 H781 0.961 . S
C767 H782 0.961 . S
C767 H783 0.961 . S
C768 C769 1.370 . S
C768 C770 1.363 . S
C768 H784 0.931 . S
C769 C768 1.370 . S
C769 C773 1.408 1_455 S
C770 C768 1.363 . S
C770 C771 1.370 . S
C770 C774 1.524 . S
C771 C763 1.503 . S
C771 C770 1.370 . S
C771 C772 1.403 1_455 S
C772 C771 1.403 1_655 S
C772 C773 1.404 . S
C772 C775 1.539 1_556 S
C773 C769 1.408 1_655 S
C773 C772 1.404 . S
C773 H785 0.930 . S
C774 C770 1.524 . S
C774 H786 0.956 . S
C774 H787 0.961 . S
C774 H788 0.961 . S
C775 C772 1.539 1_554 S
C775 H789 0.958 . S
C775 H790 0.961 . S
C775 H791 0.960 . S
H776 C760 0.931 . S
H777 C765 0.929 . S
H778 C766 0.960 . S
H779 C766 0.962 . S
H780 C766 0.960 1_554 S
H781 C767 0.961 . S
H782 C767 0.961 . S
H783 C767 0.961 . S
H784 C768 0.931 . S
H785 C773 0.930 . S
H786 C774 0.956 . S
H787 C774 0.961 . S
H788 C774 0.961 . S
H789 C775 0.958 . S
H790 C775 0.961 . S
H791 C775 0.960 . S
C792 C793 1.391 . S
C792 C794 1.394 . S
C792 H808 0.931 . S
C793 C792 1.391 . S
C793 C797 1.376 1_545 S
C794 C792 1.394 . S
C794 C795 1.369 . S
C794 C798 1.531 . S
C795 C794 1.369 . S
C795 C796 1.410 . S
C795 C803 1.503 . S
C796 C795 1.410 . S
C796 C797 1.392 1_545 S
C796 C799 1.511 1_546 S
C797 C793 1.376 1_565 S
C797 C796 1.392 1_565 S
C797 H809 0.929 1_556 S
C798 C794 1.531 . S
C798 H810 0.960 . S
C798 H811 0.962 . S
C798 H812 0.960 . S
C799 C796 1.511 1_564 S
C799 H813 0.961 . S
C799 H814 0.961 . S
C799 H815 0.961 1_565 S
C800 C801 1.370 1_565 S
C800 C802 1.363 . S
C800 H816 0.931 . S
C801 C800 1.370 1_545 S
C801 C805 1.408 . S
C802 C800 1.363 . S
C802 C803 1.370 1_565 S
C802 C806 1.524 . S
C803 C795 1.503 . S
C803 C802 1.370 1_545 S
C803 C804 1.403 . S
C804 C803 1.403 . S
C804 C805 1.404 . S
C804 C807 1.539 . S
C805 C801 1.408 . S
C805 C804 1.404 . S
C805 H817 0.930 . S
C806 C802 1.524 . S
C806 H818 0.956 . S
C806 H819 0.961 . S
C806 H820 0.961 . S
C807 C804 1.539 . S
C807 H821 0.958 . S
C807 H822 0.961 . S
C807 H823 0.960 . S
H808 C792 0.931 . S
H809 C797 0.929 1_554 S
H810 C798 0.960 . S
H811 C798 0.962 . S
H812 C798 0.960 . S
H813 C799 0.961 . S
H814 C799 0.961 . S
H815 C799 0.961 1_545 S
H816 C800 0.931 . S
H817 C805 0.930 . S
H818 C806 0.956 . S
H819 C806 0.961 . S
H820 C806 0.961 . S
H821 C807 0.958 . S
H822 C807 0.961 . S
H823 C807 0.960 . S
C824 C825 1.391 . S
C824 C826 1.394 . S
C824 H840 0.931 . S
C825 C824 1.391 . S
C825 C829 1.376 . S
C826 C824 1.394 . S
C826 C827 1.369 . S
C826 C830 1.531 . S
C827 C826 1.369 . S
C827 C828 1.410 . S
C827 C835 1.503 . S
C828 C827 1.410 . S
C828 C829 1.392 . S
C828 C831 1.511 . S
C829 C825 1.376 . S
C829 C828 1.392 . S
C829 H841 0.929 . S
C830 C826 1.531 . S
C830 H842 0.960 . S
C830 H843 0.962 . S
C830 H844 0.960 1_556 S
C831 C828 1.511 . S
C831 H845 0.961 . S
C831 H846 0.961 . S
C831 H847 0.961 . S
C832 C833 1.370 . S
C832 C834 1.363 . S
C832 H848 0.931 . S
C833 C832 1.370 . S
C833 C837 1.408 . S
C834 C832 1.363 . S
C834 C835 1.370 . S
C834 C838 1.524 . S
C835 C827 1.503 . S
C835 C834 1.370 . S
C835 C836 1.403 . S
C836 C835 1.403 . S
C836 C837 1.404 . S
C836 C839 1.539 1_556 S
C837 C833 1.408 . S
C837 C836 1.404 . S
C837 H849 0.930 . S
C838 C834 1.524 . S
C838 H850 0.956 . S
C838 H851 0.961 . S
C838 H852 0.961 . S
C839 C836 1.539 1_554 S
C839 H853 0.958 . S
C839 H854 0.961 . S
C839 H855 0.960 . S
H840 C824 0.931 . S
H841 C829 0.929 . S
H842 C830 0.960 . S
H843 C830 0.962 . S
H844 C830 0.960 1_554 S
H845 C831 0.961 . S
H846 C831 0.961 . S
H847 C831 0.961 . S
H848 C832 0.931 . S
H849 C837 0.930 . S
H850 C838 0.956 . S
H851 C838 0.961 . S
H852 C838 0.961 . S
H853 C839 0.958 . S
H854 C839 0.961 . S
H855 C839 0.960 . S
C856 C857 1.391 . S
C856 C858 1.394 . S
C856 H872 0.931 . S
C857 C856 1.391 . S
C857 C861 1.376 . S
C858 C856 1.394 . S
C858 C859 1.369 . S
C858 C862 1.531 . S
C859 C858 1.369 . S
C859 C860 1.410 . S
C859 C867 1.503 . S
C860 C859 1.410 . S
C860 C861 1.392 . S
C860 C863 1.511 . S
C861 C857 1.376 . S
C861 C860 1.392 . S
C861 H873 0.929 . S
C862 C858 1.531 . S
C862 H874 0.960 . S
C862 H875 0.962 1_556 S
C862 H876 0.960 1_556 S
C863 C860 1.511 . S
C863 H877 0.961 . S
C863 H878 0.961 . S
C863 H879 0.961 . S
C864 C865 1.370 . S
C864 C866 1.363 . S
C864 H880 0.931 . S
C865 C864 1.370 . S
C865 C869 1.408 . S
C866 C864 1.363 . S
C866 C867 1.370 . S
C866 C870 1.524 . S
C867 C859 1.503 . S
C867 C866 1.370 . S
C867 C868 1.403 . S
C868 C867 1.403 . S
C868 C869 1.404 . S
C868 C871 1.539 . S
C869 C865 1.408 . S
C869 C868 1.404 . S
C869 H881 0.930 . S
C870 C866 1.524 . S
C870 H882 0.956 1_556 S
C870 H883 0.961 . S
C870 H884 0.961 . S
C871 C868 1.539 . S
C871 H885 0.958 . S
C871 H886 0.961 . S
C871 H887 0.960 . S
H872 C856 0.931 . S
H873 C861 0.929 . S
H874 C862 0.960 . S
H875 C862 0.962 1_554 S
H876 C862 0.960 1_554 S
H877 C863 0.961 . S
H878 C863 0.961 . S
H879 C863 0.961 . S
H880 C864 0.931 . S
H881 C869 0.930 . S
H882 C870 0.956 1_554 S
H883 C870 0.961 . S
H884 C870 0.961 . S
H885 C871 0.958 . S
H886 C871 0.961 . S
H887 C871 0.960 . S
C888 C889 1.431 . S
C888 C890 1.394 . S
C888 H904 0.931 . S
C889 C888 1.431 . S
C889 C893 1.338 1_655 S
C890 C888 1.394 . S
C890 C891 1.369 . S
C890 C894 1.531 . S
C891 C890 1.369 . S
C891 C892 1.410 1_655 S
C891 C899 1.503 . S
C892 C891 1.410 1_455 S
C892 C893 1.392 . S
C892 C895 1.511 . S
C893 C889 1.338 1_455 S
C893 C892 1.392 . S
C893 H905 0.929 . S
C894 C890 1.531 . S
C894 H906 0.960 . S
C894 H907 0.962 . S
C894 H908 0.960 . S
C895 C892 1.511 . S
C895 H909 0.961 . S
C895 H910 0.961 . S
C895 H911 0.961 . S
C896 C897 1.370 . S
C896 C898 1.363 . S
C896 H912 0.931 . S
C897 C896 1.370 . S
C897 C901 1.408 . S
C898 C896 1.363 . S
C898 C899 1.370 . S
C898 C902 1.524 . S
C899 C891 1.503 . S
C899 C898 1.370 . S
C899 C900 1.400 1_655 S
C900 C899 1.400 1_455 S
C900 C901 1.403 1_455 S
C900 C903 1.544 . S
C901 C897 1.408 . S
C901 C900 1.403 1_655 S
C901 H913 0.930 1_655 S
C902 C898 1.524 . S
C902 H914 0.956 . S
C902 H915 0.961 . S
C902 H916 0.961 . S
C903 C900 1.544 . S
C903 H917 0.958 1_455 S
C903 H918 0.961 . S
C903 H919 0.960 . S
H904 C888 0.931 . S
H905 C893 0.929 . S
H906 C894 0.960 . S
H907 C894 0.962 . S
H908 C894 0.960 . S
H909 C895 0.961 . S
H910 C895 0.961 . S
H911 C895 0.961 . S
H912 C896 0.931 . S
H913 C901 0.930 1_455 S
H914 C902 0.956 . S
H915 C902 0.961 . S
H916 C902 0.961 . S
H917 C903 0.958 1_655 S
H918 C903 0.961 . S
H919 C903 0.960 . S
C920 C921 1.391 . S
C920 C922 1.394 . S
C920 H936 0.931 . S
C921 C920 1.391 . S
C921 C925 1.376 . S
C922 C920 1.394 . S
C922 C923 1.369 . S
C922 C926 1.531 . S
C923 C922 1.369 . S
C923 C924 1.410 . S
C923 C931 1.503 . S
C924 C923 1.410 . S
C924 C925 1.393 . S
C924 C927 1.508 1_565 S
C925 C921 1.376 . S
C925 C924 1.393 . S
C925 H937 0.928 1_565 S
C926 C922 1.531 . S
C926 H938 0.960 . S
C926 H939 0.962 . S
C926 H940 0.960 . S
C927 C924 1.508 1_545 S
C927 H941 0.975 . S
C927 H942 0.970 . S
C927 H943 0.941 1_545 S
C928 C929 1.370 1_545 S
C928 C930 1.363 . S
C928 H944 0.931 . S
C929 C928 1.370 1_565 S
C929 C933 1.408 . S
C930 C928 1.363 . S
C930 C931 1.370 1_545 S
C930 C934 1.524 . S
C931 C923 1.503 . S
C931 C930 1.370 1_565 S
C931 C932 1.403 . S
C932 C931 1.403 . S
C932 C933 1.404 . S
C932 C935 1.539 . S
C933 C929 1.408 . S
C933 C932 1.404 . S
C933 H945 0.930 . S
C934 C930 1.524 . S
C934 H946 0.956 . S
C934 H947 0.961 . S
C934 H948 0.961 . S
C935 C932 1.539 . S
C935 H949 0.958 . S
C935 H950 0.961 . S
C935 H951 0.960 . S
H936 C920 0.931 . S
H937 C925 0.928 1_545 S
H938 C926 0.960 . S
H939 C926 0.962 . S
H940 C926 0.960 . S
H941 C927 0.975 . S
H942 C927 0.970 . S
H943 C927 0.941 1_565 S
H944 C928 0.931 . S
H945 C933 0.930 . S
H946 C934 0.956 . S
H947 C934 0.961 . S
H948 C934 0.961 . S
H949 C935 0.958 . S
H950 C935 0.961 . S
H951 C935 0.960 . S
C952 C953 1.391 . S
C952 C954 1.394 . S
C952 H968 0.931 . S
C953 C952 1.391 . S
C953 C957 1.376 . S
C954 C952 1.394 . S
C954 C955 1.369 . S
C954 C958 1.531 . S
C955 C954 1.369 . S
C955 C956 1.410 . S
C955 C963 1.503 . S
C956 C955 1.410 . S
C956 C957 1.392 . S
C956 C959 1.511 . S
C957 C953 1.376 . S
C957 C956 1.392 . S
C957 H969 0.929 . S
C958 C954 1.531 . S
C958 H970 0.960 . S
C958 H971 0.962 . S
C958 H972 0.960 . S
C959 C956 1.511 . S
C959 H973 0.961 . S
C959 H974 0.961 . S
C959 H975 0.961 . S
C960 C961 1.370 . S
C960 C962 1.363 . S
C960 H976 0.931 . S
C961 C960 1.370 . S
C961 C965 1.408 . S
C962 C960 1.363 . S
C962 C963 1.370 . S
C962 C966 1.524 . S
C963 C955 1.503 . S
C963 C962 1.370 . S
C963 C964 1.403 . S
C964 C963 1.403 . S
C964 C965 1.404 . S
C964 C967 1.539 . S
C965 C961 1.408 . S
C965 C964 1.404 . S
C965 H977 0.930 . S
C966 C962 1.524 . S
C966 H978 0.956 . S
C966 H979 0.961 . S
C966 H980 0.961 . S
C967 C964 1.539 . S
C967 H981 0.958 . S
C967 H982 0.961 . S
C967 H983 0.960 . S
H968 C952 0.931 . S
H969 C957 0.929 . S
H970 C958 0.960 . S
H971 C958 0.962 . S
H972 C958 0.960 . S
H973 C959 0.961 . S
H974 C959 0.961 . S
H975 C959 0.961 . S
H976 C960 0.931 . S
H977 C965 0.930 . S
H978 C966 0.956 . S
H979 C966 0.961 . S
H980 C966 0.961 . S
H981 C967 0.958 . S
H982 C967 0.961 . S
H983 C967 0.960 . S
C984 C985 1.391 . S
C984 C986 1.394 . S
C984 H1000 0.931 . S
C985 C984 1.391 . S
C985 C989 1.376 . S
C986 C984 1.394 . S
C986 C987 1.369 . S
C986 C990 1.531 . S
C987 C986 1.369 . S
C987 C988 1.410 . S
C987 C995 1.503 . S
C988 C987 1.410 . S
C988 C989 1.392 . S
C988 C991 1.511 . S
C989 C985 1.376 . S
C989 C988 1.392 . S
C989 H1001 0.929 . S
C990 C986 1.531 . S
C990 H1002 0.960 . S
C990 H1003 0.962 . S
C990 H1004 0.960 . S
C991 C988 1.511 . S
C991 H1005 0.961 . S
C991 H1006 0.961 . S
C991 H1007 0.961 . S
C992 C993 1.370 . S
C992 C994 1.363 . S
C992 H1008 0.931 . S
C993 C992 1.370 . S
C993 C997 1.408 . S
C994 C992 1.363 . S
C994 C995 1.370 . S
C994 C998 1.524 . S
C995 C987 1.503 . S
C995 C994 1.370 . S
C995 C996 1.403 . S
C996 C995 1.403 . S
C996 C997 1.404 . S
C996 C999 1.539 . S
C997 C993 1.408 . S
C997 C996 1.404 . S
C997 H1009 0.930 . S
C998 C994 1.524 . S
C998 H1010 0.956 . S
C998 H1011 0.961 . S
C998 H1012 0.961 . S
C999 C996 1.539 . S
C999 H1013 0.958 . S
C999 H1014 0.961 . S
C999 H1015 0.960 . S
H1000 C984 0.931 . S
H1001 C989 0.929 . S
H1002 C990 0.960 . S
H1003 C990 0.962 . S
H1004 C990 0.960 . S
H1005 C991 0.961 . S
H1006 C991 0.961 . S
H1007 C991 0.961 . S
H1008 C992 0.931 . S
H1009 C997 0.930 . S
H1010 C998 0.956 . S
H1011 C998 0.961 . S
H1012 C998 0.961 . S
H1013 C999 0.958 . S
H1014 C999 0.961 . S
H1015 C999 0.960 . S
C249 C76 1.854 1_545 S
C257 C90 1.967 1_545 S
C289 C130 1.979 . S
C281 C87 1.860 . S
C321 C170 1.988 . S
C313 C54 1.875 . S
C353 C210 1.973 1_455 S
C345 C65 1.859 . S
C385 C103 1.970 . S
C377 C32 1.861 1_545 S
C409 C43 1.802 . S
C417 C143 1.983 . S
C441 C10 1.868 . S
C449 C183 1.984 . S
C473 C21 1.803 1_455 S
C481 C223 1.975 1_655 S
C513 C114 0.454 . S
C505 C60 0.415 . S
C545 C154 0.449 . S
C537 C71 0.530 . S
C577 C194 0.460 . S
C569 C82 0.482 . S
C601 C49 0.466 . S
C609 C234 0.483 . S
C633 C16 0.415 1_655 S
C641 C97 0.466 . S
C673 C137 0.480 . S
C665 C27 0.564 1_565 S
C705 C177 0.495 . S
C697 C38 0.439 . S
C729 C5 0.419 . S
C737 C217 0.483 . S
C761 C59 2.005 . S
C769 C91 2.292 . S
C793 C70 1.997 . S
C801 C131 2.274 . S
C833 C171 2.257 . S
C825 C81 1.962 . S
C865 C211 2.280 . S
C857 C48 2.041 . S
C889 C15 2.074 1_655 S
C897 C110 2.300 . S
C929 C150 2.272 . S
C921 C26 2.019 1_565 S
C961 C190 2.254 . S
C953 C37 1.984 . S
C985 C4 2.024 . S
C993 C230 2.293 . S
