# Generated by pormake.
# Topology pyr, (3,6)-cn, num edge types: 1
# Building blocks:
#     Node 0, Type 0, BuildingBlock: PAMTOO_clean_linker_0, # of connection points: 3
#     Node 1, Type 0, BuildingBlock: PAMTOO_clean_linker_0, # of connection points: 3
#     Node 2, Type 0, BuildingBlock: PAMTOO_clean_linker_0, # of connection points: 3
#     Node 3, Type 0, BuildingBlock: PAMTOO_clean_linker_0, # of connection points: 3
#     Node 4, Type 0, BuildingBlock: PAMTOO_clean_linker_0, # of connection points: 3
#     Node 5, Type 0, BuildingBlock: PAMTOO_clean_linker_0, # of connection points: 3
#     Node 6, Type 0, BuildingBlock: PAMTOO_clean_linker_0, # of connection points: 3
#     Node 7, Type 0, BuildingBlock: PAMTOO_clean_linker_0, # of connection points: 3
#     Node 8, Type 1, BuildingBlock: MIFKUJ_clean_sbu_0, # of connection points: 6
#     Node 9, Type 1, BuildingBlock: MIFKUJ_clean_sbu_0, # of connection points: 6
#     Node 10, Type 1, BuildingBlock: MIFKUJ_clean_sbu_0, # of connection points: 6
#     Node 11, Type 1, BuildingBlock: MIFKUJ_clean_sbu_0, # of connection points: 6
#     Edge 12, Type (0, 1), BuildingBlock: EZIPEK_clean_linker_0, # of connection points: 2
#     Edge 13, Type (0, 1), BuildingBlock: EZIPEK_clean_linker_0, # of connection points: 2
#     Edge 14, Type (0, 1), BuildingBlock: EZIPEK_clean_linker_0, # of connection points: 2
#     Edge 15, Type (0, 1), BuildingBlock: EZIPEK_clean_linker_0, # of connection points: 2
#     Edge 16, Type (0, 1), BuildingBlock: EZIPEK_clean_linker_0, # of connection points: 2
#     Edge 17, Type (0, 1), BuildingBlock: EZIPEK_clean_linker_0, # of connection points: 2
#     Edge 18, Type (0, 1), BuildingBlock: EZIPEK_clean_linker_0, # of connection points: 2
#     Edge 19, Type (0, 1), BuildingBlock: EZIPEK_clean_linker_0, # of connection points: 2
#     Edge 20, Type (0, 1), BuildingBlock: EZIPEK_clean_linker_0, # of connection points: 2
#     Edge 21, Type (0, 1), BuildingBlock: EZIPEK_clean_linker_0, # of connection points: 2
#     Edge 22, Type (0, 1), BuildingBlock: EZIPEK_clean_linker_0, # of connection points: 2
#     Edge 23, Type (0, 1), BuildingBlock: EZIPEK_clean_linker_0, # of connection points: 2
#     Edge 24, Type (0, 1), BuildingBlock: EZIPEK_clean_linker_0, # of connection points: 2
#     Edge 25, Type (0, 1), BuildingBlock: EZIPEK_clean_linker_0, # of connection points: 2
#     Edge 26, Type (0, 1), BuildingBlock: EZIPEK_clean_linker_0, # of connection points: 2
#     Edge 27, Type (0, 1), BuildingBlock: EZIPEK_clean_linker_0, # of connection points: 2
#     Edge 28, Type (0, 1), BuildingBlock: EZIPEK_clean_linker_0, # of connection points: 2
#     Edge 29, Type (0, 1), BuildingBlock: EZIPEK_clean_linker_0, # of connection points: 2
#     Edge 30, Type (0, 1), BuildingBlock: EZIPEK_clean_linker_0, # of connection points: 2
#     Edge 31, Type (0, 1), BuildingBlock: EZIPEK_clean_linker_0, # of connection points: 2
#     Edge 32, Type (0, 1), BuildingBlock: EZIPEK_clean_linker_0, # of connection points: 2
#     Edge 33, Type (0, 1), BuildingBlock: EZIPEK_clean_linker_0, # of connection points: 2
#     Edge 34, Type (0, 1), BuildingBlock: EZIPEK_clean_linker_0, # of connection points: 2
#     Edge 35, Type (0, 1), BuildingBlock: EZIPEK_clean_linker_0, # of connection points: 2
# Relax obj value: 0.096
# Max RMSD: 0.219
# Mean RMSD: 0.139
data_MOF--net-pyr--node1-MIFKUJ_clean_sbu_0--node2-PAMTOO_clean_linker_0--edge1-EZIPEK_clean_linker_0
_symmetry_space_group_name_H-M    P1
_symmetry_Int_Tables_number       1
_symmetry_cell_setting            triclinic
loop_
_symmetry_equiv_pos_as_xyz
'x, y, z'
_cell_length_a     28.600505
_cell_length_b     26.789969
_cell_length_c     27.498746
_cell_angle_alpha  84.358275
_cell_angle_beta   88.715085
_cell_angle_gamma 102.94543
loop_
_atom_site_label
_atom_site_type_symbol
_atom_site_fract_x
_atom_site_fract_y
_atom_site_fract_z
_atom_type_partial_charge
H0 H 0.15112 0.22426 0.29109 0.0
H1 H 0.24963 0.12405 0.30897 0.0
H2 H 0.25538 0.22329 0.17592 0.0
H3 H 0.25985 0.11921 0.16703 0.0
C4 C 0.28634 0.11444 0.19517 0.0
O5 O 0.29461 0.15543 0.22303 0.0
H6 H 0.26899 0.07844 0.21847 0.0
C7 C 0.18138 0.21067 0.27746 0.0
C8 C 0.20147 0.22896 0.23011 0.0
C9 C 0.19756 0.17166 0.3055 0.0
C10 C 0.2369 0.15419 0.28773 0.0
C11 C 0.25808 0.17352 0.24125 0.0
C12 C 0.2399 0.21007 0.21249 0.0
H13 H 0.30561 0.91811 0.75758 0.0
H14 H 0.28957 0.82482 0.63719 0.0
H15 H 0.40428 0.82221 0.73494 0.0
H16 H 0.41765 0.84707 0.61497 0.0
C17 C 0.39347 0.80899 0.61103 0.0
O18 O 0.36699 0.78917 0.6542 0.0
H19 H 0.36671 0.81479 0.58386 0.0
C20 C 0.31723 0.89017 0.73706 0.0
C21 C 0.35772 0.87177 0.75104 0.0
C22 C 0.29245 0.87339 0.69591 0.0
C23 C 0.30807 0.83743 0.66932 0.0
C24 C 0.34924 0.81996 0.68248 0.0
C25 C 0.37323 0.83645 0.72385 0.0
H26 H 0.75234 0.26971 0.89926 0.0
H27 H 0.64678 0.2683 0.79059 0.0
H28 H 0.7584 0.40455 0.798 0.0
H29 H 0.62786 0.38098 0.78056 0.0
C30 C 0.63765 0.3662 0.74617 0.0
O31 O 0.68483 0.36195 0.74862 0.0
H32 H 0.61431 0.32744 0.74361 0.0
C33 C 0.73815 0.28893 0.86831 0.0
C34 C 0.76071 0.33979 0.85089 0.0
C35 C 0.69581 0.26373 0.84813 0.0
C36 C 0.67876 0.28812 0.80705 0.0
C37 C 0.70131 0.33887 0.78871 0.0
C38 C 0.74136 0.3652 0.81171 0.0
H39 H 0.82507 0.7223 0.35803 0.0
H40 H 0.83555 0.59835 0.27358 0.0
H41 H 0.95244 0.73168 0.26789 0.0
H42 H 0.93917 0.68869 0.16983 0.0
C43 C 0.91852 0.6494 0.18376 0.0
O44 O 0.9206 0.64207 0.23405 0.0
H45 H 0.88019 0.64611 0.1756 0.0
C46 C 0.84428 0.70685 0.3308 0.0
C47 C 0.89048 0.73378 0.31368 0.0
C48 C 0.82479 0.65773 0.31742 0.0
C49 C 0.84999 0.6368 0.28342 0.0
C50 C 0.89548 0.66405 0.26458 0.0
C51 C 0.91618 0.71211 0.2804 0.0
H52 H 0.78937 0.89976 0.7436 0.0
H53 H 0.79501 0.80893 0.88067 0.0
H54 H 0.90464 0.82176 0.76848 0.0
H55 H 0.83973 0.71189 0.82471 0.0
C56 C 0.85425 0.72528 0.85953 0.0
O57 O 0.87163 0.77793 0.85492 0.0
H58 H 0.82271 0.71471 0.88591 0.0
C59 C 0.80642 0.8744 0.76654 0.0
C60 C 0.84981 0.86366 0.75004 0.0
C61 C 0.78707 0.85573 0.81412 0.0
C62 C 0.80945 0.8234 0.84391 0.0
C63 C 0.8508 0.80997 0.82658 0.0
C64 C 0.87139 0.83078 0.7804 0.0
H65 H 0.7707 0.10306 0.2649 0.0
H66 H 0.66647 0.19612 0.26731 0.0
H67 H 0.76131 0.19292 0.38544 0.0
H68 H 0.63427 0.18897 0.38533 0.0
C69 C 0.64628 0.22704 0.36364 0.0
O70 O 0.69385 0.23525 0.34789 0.0
H71 H 0.62307 0.22414 0.33168 0.0
C72 C 0.75433 0.12956 0.28286 0.0
C73 C 0.77162 0.1466 0.32747 0.0
C74 C 0.71472 0.14529 0.26238 0.0
C75 C 0.69553 0.18187 0.28411 0.0
C76 C 0.71208 0.19888 0.32834 0.0
C77 C 0.74887 0.17985 0.35094 0.0
H78 H 0.34095 0.71886 0.10188 0.0
H79 H 0.31792 0.60908 0.2301 0.0
H80 H 0.43403 0.74236 0.22303 0.0
H81 H 0.45578 0.63784 0.24332 0.0
C82 C 0.42529 0.62093 0.27019 0.0
O83 O 0.3946 0.65379 0.27229 0.0
H84 H 0.40698 0.58482 0.2554 0.0
C85 C 0.3511 0.70676 0.13814 0.0
C86 C 0.39096 0.73661 0.15916 0.0
C87 C 0.32386 0.66158 0.16424 0.0
C88 C 0.33778 0.64487 0.2104 0.0
C89 C 0.37805 0.67338 0.23082 0.0
C90 C 0.40329 0.72018 0.20634 0.0
H91 H 0.09941 0.27263 0.80927 0.0
H92 H 0.21215 0.41139 0.79299 0.0
H93 H 0.2101 0.29723 0.69461 0.0
H94 H 0.30668 0.35406 0.74173 0.0
C95 C 0.2997 0.39224 0.72914 0.0
O96 O 0.25308 0.38772 0.71557 0.0
H97 H 0.30574 0.41424 0.76157 0.0
C98 C 0.1321 0.29593 0.7909 0.0
C99 C 0.15269 0.27868 0.75049 0.0
C100 C 0.15341 0.34419 0.80646 0.0
C101 C 0.19557 0.37398 0.78192 0.0
C102 C 0.21543 0.35694 0.7417 0.0
C103 C 0.19436 0.30957 0.72629 0.0
Zn104 Zn 0.07418 0.02264 0.58334 0.0
Zn105 Zn 0.97324 0.99714 0.46753 0.0
C106 C 0.1084 0.11477 0.63003 0.0
O107 O 0.13885 0.12569 0.59198 0.0
C108 C 0.93481 0.91443 0.41466 0.0
O109 O 0.89539 0.9226 0.43456 0.0
O110 O 0.1162 0.9723 0.60297 0.0
O111 O 0.00489 0.98449 0.57726 0.0
O112 O 0.94271 0.96096 0.53198 0.0
C113 C 0.14057 0.97603 0.64117 0.0
O114 O 0.13539 0.00988 0.67102 0.0
O115 O 0.07674 0.07267 0.63453 0.0
C116 C 0.93525 0.07593 0.40634 0.0
O117 O 0.97891 0.09377 0.38693 0.0
O118 O 0.92715 0.03865 0.44 0.0
O119 O 0.04089 0.03809 0.47477 0.0
O120 O 0.10323 0.06304 0.51899 0.0
O121 O 0.9752 0.94222 0.42351 0.0
C122 C 0.96155 0.96066 0.57331 0.0
C123 C 0.0835 0.06424 0.47805 0.0
Zn124 Zn 0.56772 0.96129 0.96235 0.0
Zn125 Zn 0.52285 0.03967 0.04011 0.0
C126 C 0.49647 0.92037 0.8952 0.0
O127 O 0.52122 0.88455 0.89635 0.0
C128 C 0.58085 0.08054 0.11862 0.0
O129 O 0.54341 0.09904 0.12869 0.0
O130 O 0.61517 0.92512 0.93348 0.0
O131 O 0.60491 0.03471 0.96045 0.0
O132 O 0.54574 0.07389 0.97188 0.0
C133 C 0.62914 0.93342 0.88863 0.0
O134 O 0.61096 0.96475 0.85887 0.0
O135 O 0.50935 0.95763 0.92085 0.0
C136 C 0.43438 0.0509 0.08877 0.0
O137 O 0.42304 0.00047 0.09072 0.0
O138 O 0.4737 0.076 0.06716 0.0
O139 O 0.4924 0.96384 0.05131 0.0
O140 O 0.5439 0.9201 0.02614 0.0
O141 O 0.58032 0.05338 0.08309 0.0
C142 C 0.58623 0.07322 0.95207 0.0
C143 C 0.50626 0.92208 0.05053 0.0
Zn144 Zn 0.57005 0.48752 0.47641 0.0
Zn145 Zn 0.53309 0.56905 0.54433 0.0
C146 C 0.66597 0.53548 0.44039 0.0
O147 O 0.67454 0.49265 0.46165 0.0
C148 C 0.45219 0.51587 0.60365 0.0
O149 O 0.4707 0.55305 0.62983 0.0
O150 O 0.57607 0.42421 0.44392 0.0
O151 O 0.57829 0.47149 0.5485 0.0
O152 O 0.58724 0.54579 0.5803 0.0
C153 C 0.60015 0.39342 0.46319 0.0
O154 O 0.61805 0.40062 0.50618 0.0
O155 O 0.62447 0.54438 0.44544 0.0
C156 C 0.48308 0.64713 0.55481 0.0
O157 O 0.45625 0.6185 0.52521 0.0
O158 O 0.5216 0.63494 0.56872 0.0
O159 O 0.53852 0.58598 0.47153 0.0
O160 O 0.50949 0.50681 0.45457 0.0
O161 O 0.47228 0.5135 0.56252 0.0
C162 C 0.59122 0.49919 0.58292 0.0
C163 C 0.51312 0.55494 0.4453 0.0
Zn164 Zn 0.0036 0.50655 0.97689 0.0
Zn165 Zn 0.0778 0.45229 0.07264 0.0
C166 C 0.93328 0.41833 0.9505 0.0
O167 O 0.97075 0.39962 0.94096 0.0
C168 C 0.15519 0.51617 0.11855 0.0
O169 O 0.14517 0.47747 0.15313 0.0
O170 O 0.99775 0.57007 0.93369 0.0
O171 O 0.01578 0.53116 0.04374 0.0
O172 O 0.01381 0.46448 0.09817 0.0
C173 C 0.95834 0.58252 0.94277 0.0
O174 O 0.92897 0.55562 0.97795 0.0
O175 O 0.93846 0.45903 0.97191 0.0
C176 C 0.12751 0.37264 0.09766 0.0
O177 O 0.14321 0.38609 0.05206 0.0
O178 O 0.0962 0.39401 0.11511 0.0
O179 O 0.08523 0.43495 0.00335 0.0
O180 O 0.05021 0.47387 0.94485 0.0
O181 O 0.13008 0.51544 0.08088 0.0
C182 C 1.00037 0.50564 0.0845 0.0
C183 C 0.0769 0.44372 0.95858 0.0
C184 C 0.16895 0.16906 0.39349 0.0
C185 C 0.16907 0.14436 0.3502 0.0
C186 C 0.11703 0.06583 0.39216 0.0
C187 C 0.11222 0.09226 0.43367 0.0
N188 N 0.12751 0.17216 0.47065 0.0
N189 N 0.13498 0.07296 0.30507 0.0
C190 C 0.13667 0.14478 0.43355 0.0
C191 C 0.14069 0.09382 0.34858 0.0
N192 N 0.20038 0.21514 0.39671 0.0
N193 N 0.1014 0.01348 0.39494 0.0
H194 H 0.15105 0.09222 0.27199 0.0
H195 H 0.11052 0.03856 0.30103 0.0
H196 H 0.08575 0.99087 0.42668 0.0
H197 H 0.10871 0.9919 0.36738 0.0
H198 H 0.2056 0.23246 0.42906 0.0
H199 H 0.22431 0.23394 0.36798 0.0
H200 H 0.14071 0.21172 0.47026 0.0
H201 H 0.10287 0.15637 0.49967 0.0
C202 C 0.38324 0.85498 0.83644 0.0
C203 C 0.38532 0.88971 0.79369 0.0
C204 C 0.44806 0.95291 0.82833 0.0
C205 C 0.45253 0.91438 0.86621 0.0
N206 N 0.42089 0.83103 0.91072 0.0
N207 N 0.42021 0.97133 0.74734 0.0
C208 C 0.41867 0.86619 0.87176 0.0
C209 C 0.41719 0.93901 0.78959 0.0
N210 N 0.34689 0.81165 0.84325 0.0
N211 N 0.47316 0.00261 0.82903 0.0
H212 H 0.39805 0.96296 0.71825 0.0
H213 H 0.44692 0.00487 0.73954 0.0
H214 H 0.49614 0.0147 0.8564 0.0
H215 H 0.46738 0.03316 0.80528 0.0
H216 H 0.34065 0.78641 0.87517 0.0
H217 H 0.32023 0.80296 0.8181 0.0
H218 H 0.40218 0.7927 0.91375 0.0
H219 H 0.44252 0.84017 0.94012 0.0
C220 C 0.58453 0.41976 0.70501 0.0
C221 C 0.62767 0.40176 0.70255 0.0
C222 C 0.65038 0.45484 0.62372 0.0
C223 C 0.60839 0.47411 0.62758 0.0
N224 N 0.54142 0.48418 0.67694 0.0
N225 N 0.68942 0.38586 0.64818 0.0
C226 C 0.57727 0.45929 0.66975 0.0
C227 C 0.6578 0.41503 0.65898 0.0
N228 N 0.54849 0.39612 0.73881 0.0
N229 N 0.68363 0.47553 0.58655 0.0
H230 H 0.68955 0.35058 0.6677 0.0
H231 H 0.71004 0.39193 0.61555 0.0
H232 H 0.67897 0.5051 0.56082 0.0
H233 H 0.71754 0.46746 0.58433 0.0
H234 H 0.51404 0.40288 0.73813 0.0
H235 H 0.55062 0.36517 0.76409 0.0
H236 H 0.51996 0.47855 0.70899 0.0
H237 H 0.5373 0.51528 0.65322 0.0
C238 C 0.91623 0.58591 0.11939 0.0
C239 C 0.93921 0.60953 0.15947 0.0
C240 C 0.99667 0.55342 0.15859 0.0
C241 C 0.9738 0.53064 0.11853 0.0
N242 N 0.90236 0.51147 0.07377 0.0
N243 N 0.01133 0.62685 0.20521 0.0
C244 C 0.93065 0.54281 0.10295 0.0
C245 C 0.98201 0.59603 0.17621 0.0
N246 N 0.88405 0.60747 0.09362 0.0
N247 N 0.03121 0.53321 0.1812 0.0
H248 H 0.00483 0.66141 0.21491 0.0
H249 H 0.04521 0.62177 0.21444 0.0
H250 H 0.04311 0.50226 0.16935 0.0
H251 H 0.04365 0.54316 0.21506 0.0
H252 H 0.86991 0.59428 0.06142 0.0
H253 H 0.87666 0.6427 0.09989 0.0
H254 H 0.86785 0.51493 0.06511 0.0
H255 H 0.91174 0.4787 0.06269 0.0
C256 C 0.3619 0.07889 0.19624 0.0
C257 C 0.33306 0.1088 0.17106 0.0
C258 C 0.38034 0.11267 0.09467 0.0
C259 C 0.40469 0.07696 0.11806 0.0
N260 N 0.42556 0.0322 0.19185 0.0
N261 N 0.32893 0.17223 0.1038 0.0
C262 C 0.39787 0.06239 0.16936 0.0
C263 C 0.34683 0.13155 0.12255 0.0
N264 N 0.35559 0.06787 0.24593 0.0
N265 N 0.38691 0.12602 0.0453 0.0
H266 H 0.30615 0.18841 0.12423 0.0
H267 H 0.3408 0.19364 0.07039 0.0
H268 H 0.41152 0.11355 0.02367 0.0
H269 H 0.36583 0.14676 0.02513 0.0
H270 H 0.37593 0.0477 0.2676 0.0
H271 H 0.33158 0.08222 0.26665 0.0
H272 H 0.4202 0.0157 0.22792 0.0
H273 H 0.45474 0.02329 0.174 0.0
C274 C 0.25737 0.9307 0.63602 0.0
C275 C 0.25159 0.89583 0.67928 0.0
C276 C 0.17142 0.91093 0.69579 0.0
C277 C 0.17647 0.94439 0.65161 0.0
N278 N 0.22079 0.97992 0.57546 0.0
N279 N 0.20056 0.84527 0.7456 0.0
C280 C 0.21816 0.95187 0.62016 0.0
C281 C 0.20782 0.88381 0.70783 0.0
N282 N 0.30135 0.94621 0.61176 0.0
N283 N 0.1319 0.90544 0.7265 0.0
H284 H 0.2263 0.82439 0.75518 0.0
H285 H 0.16783 0.83094 0.76494 0.0
H286 H 0.10254 0.92092 0.71716 0.0
H287 H 0.129 0.88755 0.76214 0.0
H288 H 0.30956 0.97594 0.58341 0.0
H289 H 0.3313 0.93248 0.62249 0.0
H290 H 0.24722 0.98098 0.54847 0.0
H291 H 0.19483 -0.00049 0.56363 0.0
C292 C 0.84961 0.37914 0.84891 0.0
C293 C 0.80438 0.36574 0.87486 0.0
C294 C 0.84395 0.38461 0.95136 0.0
C295 C 0.88862 0.40105 0.92483 0.0
N296 N 0.9313 0.42932 0.84646 0.0
N297 N 0.75754 0.36984 0.94777 0.0
C298 C 0.89075 0.40294 0.87298 0.0
C299 C 0.80125 0.37274 0.92529 0.0
N300 N 0.85391 0.36729 0.80204 0.0
N301 N 0.84233 0.37879 0.00134 0.0
H302 H 0.72602 0.36463 0.92869 0.0
H303 H 0.75331 0.37857 0.98346 0.0
H304 H 0.87299 0.387 0.02163 0.0
H305 H 0.81112 0.36166 0.02246 0.0
H306 H 0.88701 0.37144 0.78358 0.0
H307 H 0.82494 0.34897 0.78311 0.0
H308 H 0.93282 0.4361 0.80842 0.0
H309 H 0.96162 0.44941 0.86238 0.0
C310 C 0.73621 0.61683 0.32897 0.0
C311 C 0.78308 0.62508 0.34687 0.0
C312 C 0.75043 0.58543 0.42783 0.0
C313 C 0.70433 0.5711 0.40887 0.0
N314 N 0.65447 0.56592 0.33861 0.0
N315 N 0.83587 0.6058 0.40972 0.0
C316 C 0.69724 0.58509 0.35867 0.0
C317 C 0.7905 0.60597 0.39527 0.0
N318 N 0.72891 0.63962 0.284 0.0
N319 N 0.75576 0.58103 0.4772 0.0
H320 H 0.86608 0.61795 0.38595 0.0
H321 H 0.84283 0.58814 0.4434 0.0
H322 H 0.72664 0.56853 0.50232 0.0
H323 H 0.7881 0.59543 0.49307 0.0
H324 H 0.6949 0.63963 0.2712 0.0
H325 H 0.75698 0.66173 0.26089 0.0
H326 H 0.6492 0.57061 0.30124 0.0
H327 H 0.62532 0.54155 0.35844 0.0
C328 C 0.2127 0.31056 0.17339 0.0
C329 C 0.18127 0.2659 0.19727 0.0
C330 C 0.11364 0.29128 0.15579 0.0
C331 C 0.14619 0.33331 0.12863 0.0
N332 N 0.22943 0.37075 0.10111 0.0
N333 N 0.10334 0.20693 0.20072 0.0
C334 C 0.1965 0.33902 0.13374 0.0
C335 C 0.13197 0.25441 0.18593 0.0
N336 N 0.25762 0.32751 0.1899 0.0
N337 N 0.06522 0.2852 0.15155 0.0
H338 H 0.11589 0.17722 0.2195 0.0
H339 H 0.06837 0.19491 0.18969 0.0
H340 H 0.05007 0.30628 0.1249 0.0
H341 H 0.04006 0.26019 0.1758 0.0
H342 H 0.28025 0.3625 0.17619 0.0
H343 H 0.26999 0.30977 0.22093 0.0
H344 H 0.2657 0.36976 0.10057 0.0
H345 H 0.22106 0.39445 0.07203 0.0
C346 C 0.65386 0.21149 0.92373 0.0
C347 C 0.66705 0.21414 0.87335 0.0
C348 C 0.62283 0.12431 0.87308 0.0
C349 C 0.61513 0.12079 0.92457 0.0
N350 N 0.63875 0.15674 0.99954 0.0
N351 N 0.67184 0.16909 0.80207 0.0
C352 C 0.63523 0.16304 0.95013 0.0
C353 C 0.65361 0.16941 0.84834 0.0
N354 N 0.65659 0.25528 0.94614 0.0
N355 N 0.6004 0.08504 0.84781 0.0
H356 H 0.69618 0.20052 0.78369 0.0
H357 H 0.66654 0.13609 0.78388 0.0
H358 H 0.57867 0.05115 0.86513 0.0
H359 H 0.60051 0.08776 0.80975 0.0
H360 H 0.64426 0.25467 0.98223 0.0
H361 H 0.6651 0.29187 0.92695 0.0
H362 H 0.65916 0.18544 0.01826 0.0
H363 H 0.62696 0.12122 0.02015 0.0
C364 C 0.91707 0.77544 0.38861 0.0
C365 C 0.91306 0.78063 0.33711 0.0
C366 C 0.93775 0.87454 0.33618 0.0
C367 C 0.93215 0.86882 0.38796 0.0
N368 N 0.91392 0.81392 0.46419 0.0
N369 N 0.91813 0.83535 0.26114 0.0
C370 C 0.92121 0.81927 0.41444 0.0
C371 C 0.92385 0.83028 0.31043 0.0
N372 N 0.91804 0.72855 0.41254 0.0
N373 N 0.95572 0.9222 0.31175 0.0
H374 H 0.90797 0.80392 0.2411 0.0
H375 H 0.92039 0.87065 0.24057 0.0
H376 H 0.96485 0.95547 0.32952 0.0
H377 H 0.96527 0.92817 0.27451 0.0
H378 H 0.91824 0.69654 0.3939 0.0
H379 H 0.92433 0.72287 0.44961 0.0
H380 H 0.89961 0.77864 0.48451 0.0
H381 H 0.9194 0.84509 0.48499 0.0
C382 C 0.42948 0.76507 0.54475 0.0
C383 C 0.42407 0.77278 0.59495 0.0
C384 C 0.46595 0.70416 0.61854 0.0
C385 C 0.46882 0.69416 0.56887 0.0
N386 N 0.46866 0.72639 0.48398 0.0
N387 N 0.45946 0.76752 0.67339 0.0
C388 C 0.45488 0.72788 0.5317 0.0
C389 C 0.44901 0.74767 0.63008 0.0
N390 N 0.41132 0.79376 0.50926 0.0
N391 N 0.47806 0.67186 0.65517 0.0
H392 H 0.45343 0.80321 0.67986 0.0
H393 H 0.48054 0.75298 0.69913 0.0
H394 H 0.494 0.64173 0.6491 0.0
H395 H 0.46986 0.67365 0.692 0.0
H396 H 0.4064 0.78377 0.47377 0.0
H397 H 0.40118 0.8278 0.51492 0.0
H398 H 0.46386 0.75299 0.45539 0.0
H399 H 0.48974 0.70181 0.47344 0.0
C400 C 0.88883 0.85758 0.66812 0.0
C401 C 0.8746 0.88856 0.70231 0.0
C402 C 0.91 0.96577 0.64644 0.0
C403 C 0.93123 0.93551 0.61716 0.0
N404 N 0.94482 0.85268 0.60214 0.0
N405 N 0.88057 0.97404 0.72728 0.0
C406 C 0.92174 0.88134 0.62852 0.0
C407 C 0.88713 0.94323 0.6922 0.0
N408 N 0.86955 0.80574 0.67243 0.0
N409 N 0.91123 0.01601 0.63043 0.0
H410 H 0.86805 0.95977 0.76282 0.0
H411 H 0.89294 0.01394 0.72284 0.0
H412 H 0.92834 0.03419 0.59738 0.0
H413 H 0.8914 0.03796 0.64776 0.0
H414 H 0.87552 0.78194 0.6463 0.0
H415 H 0.84348 0.78742 0.69946 0.0
H416 H 0.9434 0.81383 0.61218 0.0
H417 H 0.96851 0.86878 0.57238 0.0
C418 C 0.66452 0.07203 0.22152 0.0
C419 C 0.69148 0.12388 0.21859 0.0
C420 C 0.65018 0.14563 0.14542 0.0
C421 C 0.62387 0.09372 0.14779 0.0
N422 N 0.61537 0.00486 0.17972 0.0
N423 N 0.72114 0.20462 0.16928 0.0
C424 C 0.63477 0.0559 0.18261 0.0
C425 C 0.68823 0.15872 0.17732 0.0
N426 N 0.66381 0.03936 0.26304 0.0
N427 N 0.63736 0.18298 0.11459 0.0
H428 H 0.74966 0.21468 0.19213 0.0
H429 H 0.72297 0.22987 0.1376 0.0
H430 H 0.60948 0.17514 0.09072 0.0
H431 H 0.65208 0.22216 0.11526 0.0
H432 H 0.64041 0.00325 0.2693 0.0
H433 H 0.68355 0.04979 0.29316 0.0
H434 H 0.62592 0.97549 0.20132 0.0
H435 H 0.59195 0.99174 0.15283 0.0
C436 C 0.48877 0.63814 0.33275 0.0
C437 C 0.44362 0.60939 0.32037 0.0
C438 C 0.43901 0.55378 0.39757 0.0
C439 C 0.48848 0.57512 0.40347 0.0
N440 N 0.56253 0.63394 0.37173 0.0
N441 N 0.3726 0.54235 0.3434 0.0
C442 C 0.5139 0.61675 0.37009 0.0
C443 C 0.41761 0.56803 0.35366 0.0
N444 N 0.50737 0.68616 0.30941 0.0
N445 N 0.41194 0.52206 0.43485 0.0
H446 H 0.35332 0.55528 0.31497 0.0
H447 H 0.35489 0.50738 0.36232 0.0
H448 H 0.42571 0.51285 0.4685 0.0
H449 H 0.37482 0.50911 0.43452 0.0
H450 H 0.53832 0.71042 0.32024 0.0
H451 H 0.48875 0.70409 0.28346 0.0
H452 H 0.58289 0.66085 0.34503 0.0
H453 H 0.58342 0.61752 0.39629 0.0
C454 C 0.12003 0.41564 0.83499 0.0
C455 C 0.13058 0.36659 0.84573 0.0
C456 C 0.0999 0.36444 0.92997 0.0
C457 C 0.09744 0.41716 0.92094 0.0
N458 N 0.11999 0.49629 0.86652 0.0
N459 N 0.13985 0.29895 0.90717 0.0
C460 C 0.11176 0.44381 0.87389 0.0
C461 C 0.12331 0.34222 0.89436 0.0
N462 N 0.11699 0.43512 0.78767 0.0
N463 N 0.07773 0.33447 0.97074 0.0
H464 H 0.15814 0.28212 0.88251 0.0
H465 H 0.13947 0.28294 0.94335 0.0
H466 H 0.05644 0.34721 0.99584 0.0
H467 H 0.07567 0.29497 0.97642 0.0
H468 H 0.10554 0.46903 0.77855 0.0
H469 H 0.12047 0.41449 0.75803 0.0
H470 H 0.134 0.51717 0.83337 0.0
H471 H 0.11899 0.51919 0.8949 0.0
C472 C 0.75441 0.92647 0.84531 0.0
C473 C 0.74647 0.87452 0.83484 0.0
C474 C 0.66334 0.85901 0.86763 0.0
C475 C 0.6696 0.91263 0.87124 0.0
N476 N 0.72015 0.99866 0.85995 0.0
N477 N 0.69261 0.79165 0.83216 0.0
C478 C 0.71478 0.94678 0.85866 0.0
C479 C 0.70074 0.8407 0.84521 0.0
N480 N 0.80027 0.95547 0.8456 0.0
N481 N 0.62191 0.82557 0.8859 0.0
H482 H 0.71916 0.77699 0.81573 0.0
H483 H 0.6588 0.76678 0.83409 0.0
H484 H 0.59316 0.83759 0.9011 0.0
H485 H 0.61742 0.7857 0.88948 0.0
H486 H 0.80872 0.99207 0.85738 0.0
H487 H 0.8304 0.9407 0.83953 0.0
H488 H 0.75036 0.0257 0.84501 0.0
H489 H 0.69335 0.01514 0.87326 0.0
C490 C 0.8556 0.1656 0.35976 0.0
C491 C 0.8134 0.12921 0.34951 0.0
C492 C 0.8546 0.05953 0.36937 0.0
C493 C 0.89415 0.09501 0.38575 0.0
N494 N 0.92748 0.18092 0.40624 0.0
N495 N 0.76917 0.04047 0.35887 0.0
C496 C 0.8933 0.14788 0.38384 0.0
C497 C 0.81181 0.07578 0.35854 0.0
N498 N 0.86091 0.21674 0.34458 0.0
N499 N 0.85842 0.01089 0.36201 0.0
H500 H 0.73648 0.05119 0.35519 0.0
H501 H 0.7658 0.00124 0.36893 0.0
H502 H 0.89034 0.99863 0.36628 0.0
H503 H 0.83182 0.98515 0.34603 0.0
H504 H 0.89277 0.24398 0.34746 0.0
H505 H 0.83552 0.23124 0.32446 0.0
H506 H 0.92545 0.21865 0.4104 0.0
H507 H 0.95529 0.16922 0.42474 0.0
C508 C 0.28196 0.59923 0.10757 0.0
C509 C 0.27945 0.63176 0.14481 0.0
C510 C 0.19436 0.59183 0.16151 0.0
C511 C 0.19632 0.55967 0.12381 0.0
N512 N 0.23906 0.53888 0.05465 0.0
N513 N 0.2315 0.66926 0.19738 0.0
C514 C 0.2391 0.56579 0.0944 0.0
C515 C 0.23493 0.63137 0.16851 0.0
N516 N 0.32559 0.59803 0.08696 0.0
N517 N 0.15429 0.58346 0.19182 0.0
H518 H 0.26066 0.69919 0.20276 0.0
H519 H 0.19904 0.67399 0.21197 0.0
H520 H 0.12352 0.5556 0.18711 0.0
H521 H 0.15276 0.60142 0.22354 0.0
H522 H 0.3306 0.57091 0.0639 0.0
H523 H 0.35766 0.6222 0.09539 0.0
H524 H 0.26754 0.54589 0.02878 0.0
H525 H 0.2092 0.51191 0.04535 0.0
C526 C 0.33496 0.47428 0.67377 0.0
C527 C 0.33312 0.42117 0.68706 0.0
C528 C 0.4045 0.42687 0.63415 0.0
C529 C 0.40694 0.48007 0.62222 0.0
N530 N 0.36523 0.54883 0.61525 0.0
N531 N 0.35311 0.34388 0.66236 0.0
C532 C 0.36889 0.50183 0.63691 0.0
C533 C 0.36365 0.39627 0.66162 0.0
N534 N 0.30574 0.49909 0.69738 0.0
N535 N 0.44194 0.406 0.62174 0.0
H536 H 0.32121 0.32046 0.67815 0.0
H537 H 0.37276 0.32447 0.64164 0.0
H538 H 0.47226 0.42692 0.60109 0.0
H539 H 0.44418 0.3688 0.63488 0.0
H540 H 0.31008 0.53896 0.69312 0.0
H541 H 0.27898 0.48068 0.72359 0.0
H542 H 0.33582 0.56479 0.6211 0.0
H543 H 0.38919 0.56907 0.58719 0.0
C544 C 0.91463 0.67047 0.84629 0.0
C545 C 0.89288 0.69843 0.87793 0.0
C546 C 0.93475 0.6655 0.94638 0.0
C547 C 0.94556 0.62837 0.91739 0.0
N548 N 0.94476 0.59379 0.83949 0.0
N549 N 0.8858 0.72657 0.95819 0.0
C550 C 0.93609 0.63084 0.86697 0.0
C551 C 0.90468 0.69784 0.92792 0.0
N552 N 0.91562 0.68236 0.79678 0.0
N553 N 0.95356 0.66972 0.99147 0.0
H554 H 0.86603 0.75321 0.94582 0.0
H555 H 0.88788 0.72241 0.99607 0.0
H556 H 0.97633 0.64681 0.00536 0.0
H557 H 0.95058 0.69886 0.01295 0.0
H558 H 0.93394 0.66539 0.7723 0.0
H559 H 0.90353 0.71377 0.78064 0.0
H560 H 0.93296 0.59036 0.80413 0.0
H561 H 0.96084 0.56435 0.85313 0.0
C562 C 0.39857 0.823 0.10982 0.0
C563 C 0.42066 0.78427 0.13134 0.0
C564 C 0.49944 0.83999 0.10641 0.0
C565 C 0.47703 0.8745 0.07823 0.0
N566 N 0.4039 0.8892 0.04259 0.0
N567 N 0.49281 0.75119 0.13735 0.0
C568 C 0.42613 0.86332 0.07681 0.0
C569 C 0.47137 0.79129 0.12596 0.0
N570 N 0.35196 0.82272 0.12207 0.0
N571 N 0.54685 0.85412 0.11645 0.0
H572 H 0.47346 0.71374 0.1482 0.0
H573 H 0.52935 0.75403 0.13031 0.0
H574 H 0.56812 0.89071 0.10565 0.0
H575 H 0.56327 0.83149 0.14048 0.0
H576 H 0.33595 0.85277 0.10998 0.0
H577 H 0.33128 0.79582 0.14859 0.0
H578 H 0.367 0.879 0.03803 0.0
H579 H 0.42264 0.91629 0.01504 0.0
C580 C 0.16138 0.19219 0.73242 0.0
C581 C 0.13225 0.22854 0.73171 0.0
C582 C 0.07916 0.1796 0.67553 0.0
C583 C 0.11369 0.14984 0.66898 0.0
N584 N 0.18969 0.12963 0.68909 0.0
N585 N 0.06395 0.25876 0.70122 0.0
C586 C 0.15519 0.15626 0.69719 0.0
C587 C 0.0906 0.22221 0.70373 0.0
N588 N 0.19532 0.19265 0.76668 0.0
N589 N 0.03608 0.16807 0.65383 0.0
H590 H 0.07079 0.29023 0.72156 0.0
H591 H 0.03685 0.25974 0.67674 0.0
H592 H 0.02734 0.13879 0.63103 0.0
H593 H 0.00759 0.18482 0.66147 0.0
H594 H 0.21511 0.16448 0.77194 0.0
H595 H 0.20008 0.21851 0.79317 0.0
H596 H 0.22322 0.13743 0.70434 0.0
H597 H 0.18633 0.10212 0.66437 0.0
C598 C 0.64193 0.32123 0.36355 0.0
C599 C 0.63851 0.27198 0.3901 0.0
C600 C 0.60432 0.30141 0.46134 0.0
C601 C 0.61117 0.3516 0.43653 0.0
N602 N 0.6478 0.41223 0.36774 0.0
N603 N 0.63331 0.22332 0.4698 0.0
C604 C 0.63307 0.36247 0.38857 0.0
C605 C 0.62479 0.26438 0.44068 0.0
N606 N 0.65324 0.3288 0.31438 0.0
N607 N 0.57701 0.28841 0.50405 0.0
H608 H 0.6531 0.19829 0.45771 0.0
H609 H 0.62684 0.21853 0.50762 0.0
H610 H 0.55979 0.31387 0.51958 0.0
H611 H 0.5672 0.25076 0.52094 0.0
H612 H 0.65028 0.36183 0.29243 0.0
H613 H 0.66276 0.30105 0.29462 0.0
H614 H 0.66915 0.42267 0.33554 0.0
H615 H 0.64276 0.44383 0.38465 0.0
loop_
_geom_bond_atom_site_label_1
_geom_bond_atom_site_label_2
_geom_bond_distance
_geom_bond_site_symmetry_2
_ccdc_geom_bond_type
H0 C7 0.929 . S
H1 C10 0.930 . S
H2 C12 0.929 . S
H3 C4 0.969 . S
C4 H3 0.969 . S
C4 O5 1.550 . S
C4 H6 0.973 . S
O5 C4 1.550 . S
O5 C11 1.412 . S
H6 C4 0.973 . S
C7 H0 0.929 . S
C7 C8 1.400 . S
C7 C9 1.364 . S
C8 C7 1.400 . S
C8 C12 1.377 . S
C9 C7 1.364 . S
C9 C10 1.374 . S
C10 H1 0.930 . S
C10 C9 1.374 . S
C10 C11 1.383 . S
C11 O5 1.412 . S
C11 C10 1.383 . S
C11 C12 1.394 . S
C12 H2 0.929 . S
C12 C8 1.377 . S
C12 C11 1.394 . S
H13 C20 0.929 . S
H14 C23 0.930 . S
H15 C25 0.929 . S
H16 C17 0.969 . S
C17 H16 0.969 . S
C17 O18 1.550 . S
C17 H19 0.973 . S
O18 C17 1.550 . S
O18 C24 1.412 . S
H19 C17 0.973 . S
C20 H13 0.929 . S
C20 C21 1.400 . S
C20 C22 1.364 . S
C21 C20 1.400 . S
C21 C25 1.377 . S
C22 C20 1.364 . S
C22 C23 1.374 . S
C23 H14 0.930 . S
C23 C22 1.374 . S
C23 C24 1.383 . S
C24 O18 1.412 . S
C24 C23 1.383 . S
C24 C25 1.394 . S
C25 H15 0.929 . S
C25 C21 1.377 . S
C25 C24 1.394 . S
H26 C33 0.929 . S
H27 C36 0.930 . S
H28 C38 0.929 . S
H29 C30 0.969 . S
C30 H29 0.969 . S
C30 O31 1.550 . S
C30 H32 0.973 . S
O31 C30 1.550 . S
O31 C37 1.412 . S
H32 C30 0.973 . S
C33 H26 0.929 . S
C33 C34 1.400 . S
C33 C35 1.364 . S
C34 C33 1.400 . S
C34 C38 1.377 . S
C35 C33 1.364 . S
C35 C36 1.374 . S
C36 H27 0.930 . S
C36 C35 1.374 . S
C36 C37 1.383 . S
C37 O31 1.412 . S
C37 C36 1.383 . S
C37 C38 1.394 . S
C38 H28 0.929 . S
C38 C34 1.377 . S
C38 C37 1.394 . S
H39 C46 0.929 . S
H40 C49 0.930 . S
H41 C51 0.929 . S
H42 C43 0.969 . S
C43 H42 0.969 . S
C43 O44 1.550 . S
C43 H45 0.973 . S
O44 C43 1.550 . S
O44 C50 1.412 . S
H45 C43 0.973 . S
C46 H39 0.929 . S
C46 C47 1.400 . S
C46 C48 1.364 . S
C47 C46 1.400 . S
C47 C51 1.377 . S
C48 C46 1.364 . S
C48 C49 1.374 . S
C49 H40 0.930 . S
C49 C48 1.374 . S
C49 C50 1.383 . S
C50 O44 1.412 . S
C50 C49 1.383 . S
C50 C51 1.394 . S
C51 H41 0.929 . S
C51 C47 1.377 . S
C51 C50 1.394 . S
H52 C59 0.929 . S
H53 C62 0.930 . S
H54 C64 0.929 . S
H55 C56 0.969 . S
C56 H55 0.969 . S
C56 O57 1.550 . S
C56 H58 0.973 . S
O57 C56 1.550 . S
O57 C63 1.412 . S
H58 C56 0.973 . S
C59 H52 0.929 . S
C59 C60 1.400 . S
C59 C61 1.364 . S
C60 C59 1.400 . S
C60 C64 1.377 . S
C61 C59 1.364 . S
C61 C62 1.374 . S
C62 H53 0.930 . S
C62 C61 1.374 . S
C62 C63 1.383 . S
C63 O57 1.412 . S
C63 C62 1.383 . S
C63 C64 1.394 . S
C64 H54 0.929 . S
C64 C60 1.377 . S
C64 C63 1.394 . S
H65 C72 0.929 . S
H66 C75 0.930 . S
H67 C77 0.929 . S
H68 C69 0.969 . S
C69 H68 0.969 . S
C69 O70 1.550 . S
C69 H71 0.973 . S
O70 C69 1.550 . S
O70 C76 1.412 . S
H71 C69 0.973 . S
C72 H65 0.929 . S
C72 C73 1.400 . S
C72 C74 1.364 . S
C73 C72 1.400 . S
C73 C77 1.377 . S
C74 C72 1.364 . S
C74 C75 1.374 . S
C75 H66 0.930 . S
C75 C74 1.374 . S
C75 C76 1.383 . S
C76 O70 1.412 . S
C76 C75 1.383 . S
C76 C77 1.394 . S
C77 H67 0.929 . S
C77 C73 1.377 . S
C77 C76 1.394 . S
H78 C85 0.929 . S
H79 C88 0.930 . S
H80 C90 0.929 . S
H81 C82 0.969 . S
C82 H81 0.969 . S
C82 O83 1.550 . S
C82 H84 0.973 . S
O83 C82 1.550 . S
O83 C89 1.412 . S
H84 C82 0.973 . S
C85 H78 0.929 . S
C85 C86 1.400 . S
C85 C87 1.364 . S
C86 C85 1.400 . S
C86 C90 1.377 . S
C87 C85 1.364 . S
C87 C88 1.374 . S
C88 H79 0.930 . S
C88 C87 1.374 . S
C88 C89 1.383 . S
C89 O83 1.412 . S
C89 C88 1.383 . S
C89 C90 1.394 . S
C90 H80 0.929 . S
C90 C86 1.377 . S
C90 C89 1.394 . S
H91 C98 0.929 . S
H92 C101 0.930 . S
H93 C103 0.929 . S
H94 C95 0.969 . S
C95 H94 0.969 . S
C95 O96 1.550 . S
C95 H97 0.973 . S
O96 C95 1.550 . S
O96 C102 1.412 . S
H97 C95 0.973 . S
C98 H91 0.929 . S
C98 C99 1.400 . S
C98 C100 1.364 . S
C99 C98 1.400 . S
C99 C103 1.377 . S
C100 C98 1.364 . S
C100 C101 1.374 . S
C101 H92 0.930 . S
C101 C100 1.374 . S
C101 C102 1.383 . S
C102 O96 1.412 . S
C102 C101 1.383 . S
C102 C103 1.394 . S
C103 H93 0.929 . S
C103 C99 1.377 . S
C103 C102 1.394 . S
Zn104 O110 1.969 1_545 S
Zn104 O111 1.965 1_545 S
Zn104 O115 2.024 . S
Zn104 O120 1.969 . S
Zn105 O112 1.969 . S
Zn105 O118 1.969 1_565 S
Zn105 O119 1.965 1_665 S
Zn105 O121 2.024 . S
C106 O107 1.229 . S
C106 O115 1.058 . S
O107 C106 1.229 . S
C108 O109 1.229 . S
C108 O121 1.058 . S
O109 C108 1.229 . S
O110 Zn104 1.969 1_565 S
O110 C113 1.267 . S
O111 Zn104 1.965 1_565 S
O111 C122 1.260 1_455 S
O112 Zn105 1.969 . S
O112 C122 1.258 . S
C113 O110 1.267 . S
C113 O114 1.228 . S
O114 C113 1.228 . S
O115 Zn104 2.024 . S
O115 C106 1.058 . S
C116 O117 1.228 . S
C116 O118 1.267 . S
O117 C116 1.228 . S
O118 Zn105 1.969 1_545 S
O118 C116 1.267 . S
O119 Zn105 1.965 1_445 S
O119 C123 1.260 . S
O120 Zn104 1.969 . S
O120 C123 1.258 . S
O121 Zn105 2.024 . S
O121 C108 1.058 . S
C122 O111 1.260 1_655 S
C122 O112 1.258 . S
C123 O119 1.260 . S
C123 O120 1.258 . S
Zn124 O130 1.969 . S
Zn124 O131 1.965 1_565 S
Zn124 O135 2.024 . S
Zn124 O140 1.969 1_556 S
Zn125 O132 1.969 . S
Zn125 O138 1.969 . S
Zn125 O139 1.965 1_545 S
Zn125 O141 2.024 . S
C126 O127 1.229 . S
C126 O135 1.058 . S
O127 C126 1.229 . S
C128 O129 1.229 . S
C128 O141 1.058 . S
O129 C128 1.229 . S
O130 Zn124 1.969 . S
O130 C133 1.267 . S
O131 Zn124 1.965 1_545 S
O131 C142 1.260 . S
O132 Zn125 1.969 . S
O132 C142 1.258 1_554 S
C133 O130 1.267 . S
C133 O134 1.228 . S
O134 C133 1.228 . S
O135 Zn124 2.024 . S
O135 C126 1.058 . S
C136 O137 1.228 . S
C136 O138 1.267 . S
O137 C136 1.228 . S
O138 Zn125 1.969 . S
O138 C136 1.267 . S
O139 Zn125 1.965 1_565 S
O139 C143 1.260 . S
O140 Zn124 1.969 1_554 S
O140 C143 1.258 . S
O141 Zn125 2.024 . S
O141 C128 1.058 . S
C142 O131 1.260 . S
C142 O132 1.258 1_556 S
C143 O139 1.260 . S
C143 O140 1.258 . S
Zn144 O150 1.969 . S
Zn144 O151 1.965 . S
Zn144 O155 2.024 . S
Zn144 O160 1.969 . S
Zn145 O152 1.969 . S
Zn145 O158 1.969 . S
Zn145 O159 1.965 . S
Zn145 O161 2.024 . S
C146 O147 1.229 . S
C146 O155 1.058 . S
O147 C146 1.229 . S
C148 O149 1.229 . S
C148 O161 1.058 . S
O149 C148 1.229 . S
O150 Zn144 1.969 . S
O150 C153 1.267 . S
O151 Zn144 1.965 . S
O151 C162 1.260 . S
O152 Zn145 1.969 . S
O152 C162 1.258 . S
C153 O150 1.267 . S
C153 O154 1.228 . S
O154 C153 1.228 . S
O155 Zn144 2.024 . S
O155 C146 1.058 . S
C156 O157 1.228 . S
C156 O158 1.267 . S
O157 C156 1.228 . S
O158 Zn145 1.969 . S
O158 C156 1.267 . S
O159 Zn145 1.965 . S
O159 C163 1.260 . S
O160 Zn144 1.969 . S
O160 C163 1.258 . S
O161 Zn145 2.024 . S
O161 C148 1.058 . S
C162 O151 1.260 . S
C162 O152 1.258 . S
C163 O159 1.260 . S
C163 O160 1.258 . S
Zn164 O170 1.969 . S
Zn164 O171 1.965 1_656 S
Zn164 O175 2.024 . S
Zn164 O180 1.969 1_655 S
Zn165 O172 1.969 . S
Zn165 O178 1.969 . S
Zn165 O179 1.965 . S
Zn165 O181 2.024 . S
C166 O167 1.229 . S
C166 O175 1.058 . S
O167 C166 1.229 . S
C168 O169 1.229 . S
C168 O181 1.058 . S
O169 C168 1.229 . S
O170 Zn164 1.969 . S
O170 C173 1.267 . S
O171 Zn164 1.965 1_454 S
O171 C182 1.260 . S
O172 Zn165 1.969 . S
O172 C182 1.258 . S
C173 O170 1.267 . S
C173 O174 1.228 . S
O174 C173 1.228 . S
O175 Zn164 2.024 . S
O175 C166 1.058 . S
C176 O177 1.228 . S
C176 O178 1.267 . S
O177 C176 1.228 . S
O178 Zn165 1.969 . S
O178 C176 1.267 . S
O179 Zn165 1.965 . S
O179 C183 1.260 1_554 S
O180 Zn164 1.969 1_455 S
O180 C183 1.258 . S
O181 Zn165 2.024 . S
O181 C168 1.058 . S
C182 O171 1.260 . S
C182 O172 1.258 . S
C183 O179 1.260 1_556 S
C183 O180 1.258 . S
C184 C185 1.363 . S
C184 C190 1.379 . S
C184 N192 1.356 . S
C185 C184 1.363 . S
C185 C191 1.363 . S
C186 C187 1.363 . S
C186 C191 1.379 . S
C186 N193 1.356 . S
C187 C186 1.363 . S
C187 C190 1.363 . S
N188 C190 1.356 . S
N188 H200 0.984 . S
N188 H201 0.985 . S
N189 C191 1.356 . S
N189 H194 0.984 . S
N189 H195 0.985 . S
C190 C184 1.379 . S
C190 C187 1.363 . S
C190 N188 1.356 . S
C191 C185 1.363 . S
C191 C186 1.379 . S
C191 N189 1.356 . S
N192 C184 1.356 . S
N192 H198 0.984 . S
N192 H199 0.984 . S
N193 C186 1.356 . S
N193 H196 0.984 . S
N193 H197 0.987 . S
H194 N189 0.984 . S
H195 N189 0.985 . S
H196 N193 0.984 . S
H197 N193 0.987 . S
H198 N192 0.984 . S
H199 N192 0.984 . S
H200 N188 0.984 . S
H201 N188 0.985 . S
C202 C203 1.363 . S
C202 C208 1.379 . S
C202 N210 1.356 . S
C203 C202 1.363 . S
C203 C209 1.363 . S
C204 C205 1.363 . S
C204 C209 1.379 . S
C204 N211 1.356 1_565 S
C205 C204 1.363 . S
C205 C208 1.363 . S
N206 C208 1.356 . S
N206 H218 0.984 . S
N206 H219 0.985 . S
N207 C209 1.356 . S
N207 H212 0.984 . S
N207 H213 0.985 1_565 S
C208 C202 1.379 . S
C208 C205 1.363 . S
C208 N206 1.356 . S
C209 C203 1.363 . S
C209 C204 1.379 . S
C209 N207 1.356 . S
N210 C202 1.356 . S
N210 H216 0.984 . S
N210 H217 0.984 . S
N211 C204 1.356 1_545 S
N211 H214 0.984 . S
N211 H215 0.985 . S
H212 N207 0.984 . S
H213 N207 0.985 1_545 S
H214 N211 0.984 . S
H215 N211 0.985 . S
H216 N210 0.984 . S
H217 N210 0.984 . S
H218 N206 0.984 . S
H219 N206 0.985 . S
C220 C221 1.363 . S
C220 C226 1.379 . S
C220 N228 1.356 . S
C221 C220 1.363 . S
C221 C227 1.363 . S
C222 C223 1.363 . S
C222 C227 1.379 . S
C222 N229 1.356 . S
C223 C222 1.363 . S
C223 C226 1.363 . S
N224 C226 1.356 . S
N224 H236 0.984 . S
N224 H237 0.985 . S
N225 C227 1.356 . S
N225 H230 0.984 . S
N225 H231 0.985 . S
C226 C220 1.379 . S
C226 C223 1.363 . S
C226 N224 1.356 . S
C227 C221 1.363 . S
C227 C222 1.379 . S
C227 N225 1.356 . S
N228 C220 1.356 . S
N228 H234 0.984 . S
N228 H235 0.984 . S
N229 C222 1.356 . S
N229 H232 0.984 . S
N229 H233 0.985 . S
H230 N225 0.984 . S
H231 N225 0.985 . S
H232 N229 0.984 . S
H233 N229 0.985 . S
H234 N228 0.984 . S
H235 N228 0.984 . S
H236 N224 0.984 . S
H237 N224 0.985 . S
C238 C239 1.363 . S
C238 C244 1.379 . S
C238 N246 1.356 . S
C239 C238 1.363 . S
C239 C245 1.363 . S
C240 C241 1.363 . S
C240 C245 1.379 . S
C240 N247 1.356 1_655 S
C241 C240 1.363 . S
C241 C244 1.363 . S
N242 C244 1.356 . S
N242 H254 0.984 . S
N242 H255 0.985 . S
N243 C245 1.356 . S
N243 H248 0.984 . S
N243 H249 0.985 1_655 S
C244 C238 1.379 . S
C244 C241 1.363 . S
C244 N242 1.356 . S
C245 C239 1.363 . S
C245 C240 1.379 . S
C245 N243 1.356 . S
N246 C238 1.356 . S
N246 H252 0.984 . S
N246 H253 0.984 . S
N247 C240 1.356 1_455 S
N247 H250 0.984 . S
N247 H251 0.985 . S
H248 N243 0.984 . S
H249 N243 0.985 1_455 S
H250 N247 0.984 . S
H251 N247 0.985 . S
H252 N246 0.984 . S
H253 N246 0.984 . S
H254 N242 0.984 . S
H255 N242 0.985 . S
C256 C257 1.363 . S
C256 C262 1.379 . S
C256 N264 1.356 . S
C257 C256 1.363 . S
C257 C263 1.363 . S
C258 C259 1.363 . S
C258 C263 1.379 . S
C258 N265 1.356 . S
C259 C258 1.363 . S
C259 C262 1.363 . S
N260 C262 1.356 . S
N260 H272 0.984 . S
N260 H273 0.985 . S
N261 C263 1.356 . S
N261 H266 0.984 . S
N261 H267 0.985 . S
C262 C256 1.379 . S
C262 C259 1.363 . S
C262 N260 1.356 . S
C263 C257 1.363 . S
C263 C258 1.379 . S
C263 N261 1.356 . S
N264 C256 1.356 . S
N264 H270 0.984 . S
N264 H271 0.984 . S
N265 C258 1.356 . S
N265 H268 0.984 . S
N265 H269 0.985 . S
H266 N261 0.984 . S
H267 N261 0.985 . S
H268 N265 0.984 . S
H269 N265 0.985 . S
H270 N264 0.984 . S
H271 N264 0.984 . S
H272 N260 0.984 . S
H273 N260 0.985 . S
C274 C275 1.363 . S
C274 C280 1.379 . S
C274 N282 1.356 . S
C275 C274 1.363 . S
C275 C281 1.363 . S
C276 C277 1.363 . S
C276 C281 1.379 . S
C276 N283 1.356 . S
C277 C276 1.363 . S
C277 C280 1.363 . S
N278 C280 1.356 . S
N278 H290 0.984 . S
N278 H291 0.985 . S
N279 C281 1.356 . S
N279 H284 0.984 . S
N279 H285 0.985 . S
C280 C274 1.379 . S
C280 C277 1.363 . S
C280 N278 1.356 . S
C281 C275 1.363 . S
C281 C276 1.379 . S
C281 N279 1.356 . S
N282 C274 1.356 . S
N282 H288 0.984 . S
N282 H289 0.984 . S
N283 C276 1.356 . S
N283 H286 0.984 . S
N283 H287 0.985 . S
H284 N279 0.984 . S
H285 N279 0.985 . S
H286 N283 0.984 . S
H287 N283 0.985 . S
H288 N282 0.984 . S
H289 N282 0.984 . S
H290 N278 0.984 . S
H291 N278 0.985 . S
C292 C293 1.363 . S
C292 C298 1.379 . S
C292 N300 1.356 . S
C293 C292 1.363 . S
C293 C299 1.363 . S
C294 C295 1.363 . S
C294 C299 1.379 . S
C294 N301 1.356 . S
C295 C294 1.363 . S
C295 C298 1.363 . S
N296 C298 1.356 . S
N296 H308 0.984 . S
N296 H309 0.985 . S
N297 C299 1.356 . S
N297 H302 0.984 . S
N297 H303 0.985 . S
C298 C292 1.379 . S
C298 C295 1.363 . S
C298 N296 1.356 . S
C299 C293 1.363 . S
C299 C294 1.379 . S
C299 N297 1.356 . S
N300 C292 1.356 . S
N300 H306 0.984 . S
N300 H307 0.984 . S
N301 C294 1.356 . S
N301 H304 0.984 1_556 S
N301 H305 0.985 1_556 S
H302 N297 0.984 . S
H303 N297 0.985 . S
H304 N301 0.984 1_554 S
H305 N301 0.985 1_554 S
H306 N300 0.984 . S
H307 N300 0.984 . S
H308 N296 0.984 . S
H309 N296 0.985 . S
C310 C311 1.363 . S
C310 C316 1.379 . S
C310 N318 1.356 . S
C311 C310 1.363 . S
C311 C317 1.363 . S
C312 C313 1.363 . S
C312 C317 1.379 . S
C312 N319 1.356 . S
C313 C312 1.363 . S
C313 C316 1.363 . S
N314 C316 1.356 . S
N314 H326 0.984 . S
N314 H327 0.985 . S
N315 C317 1.356 . S
N315 H320 0.984 . S
N315 H321 0.985 . S
C316 C310 1.379 . S
C316 C313 1.363 . S
C316 N314 1.356 . S
C317 C311 1.363 . S
C317 C312 1.379 . S
C317 N315 1.356 . S
N318 C310 1.356 . S
N318 H324 0.984 . S
N318 H325 0.984 . S
N319 C312 1.356 . S
N319 H322 0.984 . S
N319 H323 0.985 . S
H320 N315 0.984 . S
H321 N315 0.985 . S
H322 N319 0.984 . S
H323 N319 0.985 . S
H324 N318 0.984 . S
H325 N318 0.984 . S
H326 N314 0.984 . S
H327 N314 0.985 . S
C328 C329 1.363 . S
C328 C334 1.379 . S
C328 N336 1.356 . S
C329 C328 1.363 . S
C329 C335 1.363 . S
C330 C331 1.363 . S
C330 C335 1.379 . S
C330 N337 1.356 . S
C331 C330 1.363 . S
C331 C334 1.363 . S
N332 C334 1.356 . S
N332 H344 0.984 . S
N332 H345 0.985 . S
N333 C335 1.356 . S
N333 H338 0.984 . S
N333 H339 0.985 . S
C334 C328 1.379 . S
C334 C331 1.363 . S
C334 N332 1.356 . S
C335 C329 1.363 . S
C335 C330 1.379 . S
C335 N333 1.356 . S
N336 C328 1.356 . S
N336 H342 0.984 . S
N336 H343 0.984 . S
N337 C330 1.356 . S
N337 H340 0.984 . S
N337 H341 0.985 . S
H338 N333 0.984 . S
H339 N333 0.985 . S
H340 N337 0.984 . S
H341 N337 0.985 . S
H342 N336 0.984 . S
H343 N336 0.984 . S
H344 N332 0.984 . S
H345 N332 0.985 . S
C346 C347 1.363 . S
C346 C352 1.379 . S
C346 N354 1.356 . S
C347 C346 1.363 . S
C347 C353 1.363 . S
C348 C349 1.363 . S
C348 C353 1.379 . S
C348 N355 1.356 . S
C349 C348 1.363 . S
C349 C352 1.363 . S
N350 C352 1.356 . S
N350 H362 0.984 1_556 S
N350 H363 0.985 . S
N351 C353 1.356 . S
N351 H356 0.984 . S
N351 H357 0.985 . S
C352 C346 1.379 . S
C352 C349 1.363 . S
C352 N350 1.356 . S
C353 C347 1.363 . S
C353 C348 1.379 . S
C353 N351 1.356 . S
N354 C346 1.356 . S
N354 H360 0.984 . S
N354 H361 0.984 . S
N355 C348 1.356 . S
N355 H358 0.984 . S
N355 H359 0.985 . S
H356 N351 0.984 . S
H357 N351 0.985 . S
H358 N355 0.984 . S
H359 N355 0.985 . S
H360 N354 0.984 . S
H361 N354 0.984 . S
H362 N350 0.984 1_554 S
H363 N350 0.985 . S
C364 C365 1.363 . S
C364 C370 1.379 . S
C364 N372 1.356 . S
C365 C364 1.363 . S
C365 C371 1.363 . S
C366 C367 1.363 . S
C366 C371 1.379 . S
C366 N373 1.356 . S
C367 C366 1.363 . S
C367 C370 1.363 . S
N368 C370 1.356 . S
N368 H380 0.984 . S
N368 H381 0.985 . S
N369 C371 1.356 . S
N369 H374 0.984 . S
N369 H375 0.985 . S
C370 C364 1.379 . S
C370 C367 1.363 . S
C370 N368 1.356 . S
C371 C365 1.363 . S
C371 C366 1.379 . S
C371 N369 1.356 . S
N372 C364 1.356 . S
N372 H378 0.984 . S
N372 H379 0.984 . S
N373 C366 1.356 . S
N373 H376 0.984 . S
N373 H377 0.985 1_655 S
H374 N369 0.984 . S
H375 N369 0.985 . S
H376 N373 0.984 . S
H377 N373 0.985 1_455 S
H378 N372 0.984 . S
H379 N372 0.984 . S
H380 N368 0.984 . S
H381 N368 0.985 . S
C382 C383 1.363 . S
C382 C388 1.379 . S
C382 N390 1.356 . S
C383 C382 1.363 . S
C383 C389 1.363 . S
C384 C385 1.363 . S
C384 C389 1.379 . S
C384 N391 1.356 . S
C385 C384 1.363 . S
C385 C388 1.363 . S
N386 C388 1.356 . S
N386 H398 0.984 . S
N386 H399 0.985 . S
N387 C389 1.356 . S
N387 H392 0.984 . S
N387 H393 0.985 . S
C388 C382 1.379 . S
C388 C385 1.363 . S
C388 N386 1.356 . S
C389 C383 1.363 . S
C389 C384 1.379 . S
C389 N387 1.356 . S
N390 C382 1.356 . S
N390 H396 0.984 . S
N390 H397 0.984 . S
N391 C384 1.356 . S
N391 H394 0.984 . S
N391 H395 0.985 . S
H392 N387 0.984 . S
H393 N387 0.985 . S
H394 N391 0.984 . S
H395 N391 0.985 . S
H396 N390 0.984 . S
H397 N390 0.984 . S
H398 N386 0.984 . S
H399 N386 0.985 . S
C400 C401 1.363 . S
C400 C406 1.379 . S
C400 N408 1.356 . S
C401 C400 1.363 . S
C401 C407 1.363 . S
C402 C403 1.363 . S
C402 C407 1.379 . S
C402 N409 1.375 . S
C403 C402 1.363 . S
C403 C406 1.363 . S
N404 C406 1.356 . S
N404 H416 0.974 1_655 S
N404 H417 0.985 1_655 S
N405 C407 1.356 . S
N405 H410 0.984 . S
N405 H411 0.985 . S
C406 C400 1.379 . S
C406 C403 1.363 . S
C406 N404 1.356 . S
C407 C401 1.363 . S
C407 C402 1.379 . S
C407 N405 1.356 . S
N408 C400 1.356 . S
N408 H414 0.984 . S
N408 H415 0.984 . S
N409 C402 1.375 . S
N409 H412 0.983 1_565 S
N409 H413 0.968 1_565 S
H410 N405 0.984 . S
H411 N405 0.985 . S
H412 N409 0.983 1_545 S
H413 N409 0.968 1_545 S
H414 N408 0.984 . S
H415 N408 0.984 . S
H416 N404 0.974 1_455 S
H417 N404 0.985 1_455 S
C418 C419 1.363 . S
C418 C424 1.379 . S
C418 N426 1.356 . S
C419 C418 1.363 . S
C419 C425 1.363 . S
C420 C421 1.363 . S
C420 C425 1.379 . S
C420 N427 1.356 . S
C421 C420 1.363 . S
C421 C424 1.363 . S
N422 C424 1.356 . S
N422 H434 0.984 1_545 S
N422 H435 0.985 . S
N423 C425 1.356 . S
N423 H428 0.984 . S
N423 H429 0.985 . S
C424 C418 1.379 . S
C424 C421 1.363 . S
C424 N422 1.356 . S
C425 C419 1.363 . S
C425 C420 1.379 . S
C425 N423 1.356 . S
N426 C418 1.356 . S
N426 H432 0.984 . S
N426 H433 0.984 . S
N427 C420 1.356 . S
N427 H430 0.984 . S
N427 H431 0.985 . S
H428 N423 0.984 . S
H429 N423 0.985 . S
H430 N427 0.984 . S
H431 N427 0.985 . S
H432 N426 0.984 . S
H433 N426 0.984 . S
H434 N422 0.984 1_565 S
H435 N422 0.985 . S
C436 C437 1.363 . S
C436 C442 1.379 . S
C436 N444 1.356 . S
C437 C436 1.363 . S
C437 C443 1.363 . S
C438 C439 1.363 . S
C438 C443 1.379 . S
C438 N445 1.356 . S
C439 C438 1.363 . S
C439 C442 1.363 . S
N440 C442 1.356 . S
N440 H452 0.984 . S
N440 H453 0.985 . S
N441 C443 1.356 . S
N441 H446 0.984 . S
N441 H447 0.985 . S
C442 C436 1.379 . S
C442 C439 1.363 . S
C442 N440 1.356 . S
C443 C437 1.363 . S
C443 C438 1.379 . S
C443 N441 1.356 . S
N444 C436 1.356 . S
N444 H450 0.984 . S
N444 H451 0.984 . S
N445 C438 1.356 . S
N445 H448 0.984 . S
N445 H449 0.985 . S
H446 N441 0.984 . S
H447 N441 0.985 . S
H448 N445 0.984 . S
H449 N445 0.985 . S
H450 N444 0.984 . S
H451 N444 0.984 . S
H452 N440 0.984 . S
H453 N440 0.985 . S
C454 C455 1.363 . S
C454 C460 1.379 . S
C454 N462 1.356 . S
C455 C454 1.363 . S
C455 C461 1.363 . S
C456 C457 1.363 . S
C456 C461 1.379 . S
C456 N463 1.356 . S
C457 C456 1.363 . S
C457 C460 1.363 . S
N458 C460 1.356 . S
N458 H470 0.984 . S
N458 H471 0.985 . S
N459 C461 1.356 . S
N459 H464 0.984 . S
N459 H465 0.985 . S
C460 C454 1.379 . S
C460 C457 1.363 . S
C460 N458 1.356 . S
C461 C455 1.363 . S
C461 C456 1.379 . S
C461 N459 1.356 . S
N462 C454 1.356 . S
N462 H468 0.984 . S
N462 H469 0.984 . S
N463 C456 1.356 . S
N463 H466 0.984 1_556 S
N463 H467 0.985 1_556 S
H464 N459 0.984 . S
H465 N459 0.985 . S
H466 N463 0.984 1_554 S
H467 N463 0.985 1_554 S
H468 N462 0.984 . S
H469 N462 0.984 . S
H470 N458 0.984 . S
H471 N458 0.985 . S
C472 C473 1.363 . S
C472 C478 1.379 . S
C472 N480 1.356 . S
C473 C472 1.363 . S
C473 C479 1.363 . S
C474 C475 1.363 . S
C474 C479 1.379 . S
C474 N481 1.356 . S
C475 C474 1.363 . S
C475 C478 1.363 . S
N476 C478 1.356 . S
N476 H488 0.984 1_565 S
N476 H489 0.985 . S
N477 C479 1.356 . S
N477 H482 0.984 . S
N477 H483 0.985 . S
C478 C472 1.379 . S
C478 C475 1.363 . S
C478 N476 1.356 . S
C479 C473 1.363 . S
C479 C474 1.379 . S
C479 N477 1.356 . S
N480 C472 1.356 . S
N480 H486 0.984 . S
N480 H487 0.984 . S
N481 C474 1.356 . S
N481 H484 0.984 . S
N481 H485 0.985 . S
H482 N477 0.984 . S
H483 N477 0.985 . S
H484 N481 0.984 . S
H485 N481 0.985 . S
H486 N480 0.984 . S
H487 N480 0.984 . S
H488 N476 0.984 1_545 S
H489 N476 0.985 . S
C490 C491 1.363 . S
C490 C496 1.379 . S
C490 N498 1.356 . S
C491 C490 1.363 . S
C491 C497 1.363 . S
C492 C493 1.363 . S
C492 C497 1.379 . S
C492 N499 1.356 . S
C493 C492 1.363 . S
C493 C496 1.363 . S
N494 C496 1.356 . S
N494 H506 0.984 . S
N494 H507 0.985 . S
N495 C497 1.356 . S
N495 H500 0.984 . S
N495 H501 0.985 . S
C496 C490 1.379 . S
C496 C493 1.363 . S
C496 N494 1.356 . S
C497 C491 1.363 . S
C497 C492 1.379 . S
C497 N495 1.356 . S
N498 C490 1.356 . S
N498 H504 0.984 . S
N498 H505 0.984 . S
N499 C492 1.356 . S
N499 H502 0.984 . S
N499 H503 0.985 1_545 S
H500 N495 0.984 . S
H501 N495 0.985 . S
H502 N499 0.984 . S
H503 N499 0.985 1_565 S
H504 N498 0.984 . S
H505 N498 0.984 . S
H506 N494 0.984 . S
H507 N494 0.985 . S
C508 C509 1.363 . S
C508 C514 1.379 . S
C508 N516 1.356 . S
C509 C508 1.363 . S
C509 C515 1.363 . S
C510 C511 1.363 . S
C510 C515 1.379 . S
C510 N517 1.356 . S
C511 C510 1.363 . S
C511 C514 1.363 . S
N512 C514 1.356 . S
N512 H524 0.984 . S
N512 H525 0.985 . S
N513 C515 1.356 . S
N513 H518 0.984 . S
N513 H519 0.985 . S
C514 C508 1.379 . S
C514 C511 1.363 . S
C514 N512 1.356 . S
C515 C509 1.363 . S
C515 C510 1.379 . S
C515 N513 1.356 . S
N516 C508 1.356 . S
N516 H522 0.984 . S
N516 H523 0.984 . S
N517 C510 1.356 . S
N517 H520 0.984 . S
N517 H521 0.985 . S
H518 N513 0.984 . S
H519 N513 0.985 . S
H520 N517 0.984 . S
H521 N517 0.985 . S
H522 N516 0.984 . S
H523 N516 0.984 . S
H524 N512 0.984 . S
H525 N512 0.985 . S
C526 C527 1.363 . S
C526 C532 1.379 . S
C526 N534 1.356 . S
C527 C526 1.363 . S
C527 C533 1.363 . S
C528 C529 1.363 . S
C528 C533 1.379 . S
C528 N535 1.356 . S
C529 C528 1.363 . S
C529 C532 1.363 . S
N530 C532 1.356 . S
N530 H542 0.984 . S
N530 H543 0.985 . S
N531 C533 1.356 . S
N531 H536 0.984 . S
N531 H537 0.985 . S
C532 C526 1.379 . S
C532 C529 1.363 . S
C532 N530 1.356 . S
C533 C527 1.363 . S
C533 C528 1.379 . S
C533 N531 1.356 . S
N534 C526 1.356 . S
N534 H540 0.984 . S
N534 H541 0.984 . S
N535 C528 1.356 . S
N535 H538 0.984 . S
N535 H539 0.985 . S
H536 N531 0.984 . S
H537 N531 0.985 . S
H538 N535 0.984 . S
H539 N535 0.985 . S
H540 N534 0.984 . S
H541 N534 0.984 . S
H542 N530 0.984 . S
H543 N530 0.985 . S
C544 C545 1.363 . S
C544 C550 1.379 . S
C544 N552 1.356 . S
C545 C544 1.363 . S
C545 C551 1.363 . S
C546 C547 1.363 . S
C546 C551 1.379 . S
C546 N553 1.356 . S
C547 C546 1.363 . S
C547 C550 1.363 . S
N548 C550 1.356 . S
N548 H560 0.984 . S
N548 H561 0.985 . S
N549 C551 1.356 . S
N549 H554 0.984 . S
N549 H555 0.985 . S
C550 C544 1.379 . S
C550 C547 1.363 . S
C550 N548 1.356 . S
C551 C545 1.363 . S
C551 C546 1.379 . S
C551 N549 1.356 . S
N552 C544 1.356 . S
N552 H558 0.984 . S
N552 H559 0.984 . S
N553 C546 1.356 . S
N553 H556 0.984 . S
N553 H557 0.983 1_556 S
H554 N549 0.984 . S
H555 N549 0.985 . S
H556 N553 0.984 . S
H557 N553 0.983 1_554 S
H558 N552 0.984 . S
H559 N552 0.984 . S
H560 N548 0.984 . S
H561 N548 0.985 . S
C562 C563 1.363 . S
C562 C568 1.379 . S
C562 N570 1.356 . S
C563 C562 1.363 . S
C563 C569 1.363 . S
C564 C565 1.363 . S
C564 C569 1.379 . S
C564 N571 1.356 . S
C565 C564 1.363 . S
C565 C568 1.363 . S
N566 C568 1.356 . S
N566 H578 0.984 . S
N566 H579 0.985 . S
N567 C569 1.356 . S
N567 H572 0.984 . S
N567 H573 0.985 . S
C568 C562 1.379 . S
C568 C565 1.363 . S
C568 N566 1.356 . S
C569 C563 1.363 . S
C569 C564 1.379 . S
C569 N567 1.356 . S
N570 C562 1.356 . S
N570 H576 0.984 . S
N570 H577 0.984 . S
N571 C564 1.356 . S
N571 H574 0.984 . S
N571 H575 0.985 . S
H572 N567 0.984 . S
H573 N567 0.985 . S
H574 N571 0.984 . S
H575 N571 0.985 . S
H576 N570 0.984 . S
H577 N570 0.984 . S
H578 N566 0.984 . S
H579 N566 0.985 . S
C580 C581 1.363 . S
C580 C586 1.379 . S
C580 N588 1.356 . S
C581 C580 1.363 . S
C581 C587 1.363 . S
C582 C583 1.363 . S
C582 C587 1.379 . S
C582 N589 1.356 . S
C583 C582 1.363 . S
C583 C586 1.363 . S
N584 C586 1.356 . S
N584 H596 0.984 . S
N584 H597 0.985 . S
N585 C587 1.356 . S
N585 H590 0.984 . S
N585 H591 0.985 . S
C586 C580 1.379 . S
C586 C583 1.363 . S
C586 N584 1.356 . S
C587 C581 1.363 . S
C587 C582 1.379 . S
C587 N585 1.356 . S
N588 C580 1.356 . S
N588 H594 0.984 . S
N588 H595 0.984 . S
N589 C582 1.356 . S
N589 H592 0.984 . S
N589 H593 0.985 . S
H590 N585 0.984 . S
H591 N585 0.985 . S
H592 N589 0.984 . S
H593 N589 0.985 . S
H594 N588 0.984 . S
H595 N588 0.984 . S
H596 N584 0.984 . S
H597 N584 0.985 . S
C598 C599 1.363 . S
C598 C604 1.379 . S
C598 N606 1.356 . S
C599 C598 1.363 . S
C599 C605 1.363 . S
C600 C601 1.363 . S
C600 C605 1.379 . S
C600 N607 1.356 . S
C601 C600 1.363 . S
C601 C604 1.363 . S
N602 C604 1.356 . S
N602 H614 0.984 . S
N602 H615 0.985 . S
N603 C605 1.356 . S
N603 H608 0.984 . S
N603 H609 0.985 . S
C604 C598 1.379 . S
C604 C601 1.363 . S
C604 N602 1.356 . S
C605 C599 1.363 . S
C605 C600 1.379 . S
C605 N603 1.356 . S
N606 C598 1.356 . S
N606 H612 0.984 . S
N606 H613 0.984 . S
N607 C600 1.356 . S
N607 H610 0.984 . S
N607 H611 0.985 . S
H608 N603 0.984 . S
H609 N603 0.985 . S
H610 N607 0.984 . S
H611 N607 0.985 . S
H612 N606 0.984 . S
H613 N606 0.984 . S
H614 N602 0.984 . S
H615 N602 0.985 . S
C185 C9 1.781 . S
C187 C123 1.776 . S
C203 C21 1.347 . S
C205 C126 1.370 . S
C223 C162 1.534 . S
C221 C30 1.528 . S
C239 C43 1.559 . S
C241 C182 1.562 1_655 S
C259 C136 1.533 . S
C257 C4 1.530 . S
C277 C113 1.897 . S
C275 C22 1.897 . S
C295 C166 1.337 . S
C293 C34 1.474 . S
C313 C146 1.257 . S
C311 C48 1.329 . S
C329 C8 1.458 . S
C331 C176 1.396 . S
C349 C142 1.735 . S
C347 C35 1.747 . S
C365 C47 1.721 . S
C367 C108 1.700 . S
C383 C17 1.265 . S
C385 C156 1.198 . S
C403 C122 1.455 . S
C401 C60 1.474 . S
C419 C74 1.429 . S
C421 C128 1.379 . S
C437 C82 1.394 . S
C439 C163 1.421 . S
C455 C100 1.937 . S
C457 C183 1.904 . S
C473 C61 1.884 . S
C475 C133 1.859 . S
C493 C116 1.544 . S
C491 C73 1.575 . S
C511 C168 1.698 . S
C509 C87 1.763 . S
C529 C148 1.192 . S
C527 C95 1.326 . S
C545 C56 1.438 . S
C547 C173 1.343 . S
C565 C143 1.719 . S
C563 C86 1.759 . S
C583 C106 1.709 . S
C581 C99 1.713 . S
C599 C69 1.230 . S
C601 C153 1.239 . S
