# Generated by pormake.
# Topology pyr, (3,6)-cn, num edge types: 1
# Building blocks:
#     Node 0, Type 0, BuildingBlock: BETDIP_clean_linker_0, # of connection points: 3
#     Node 1, Type 0, BuildingBlock: BETDIP_clean_linker_0, # of connection points: 3
#     Node 2, Type 0, BuildingBlock: BETDIP_clean_linker_0, # of connection points: 3
#     Node 3, Type 0, BuildingBlock: BETDIP_clean_linker_0, # of connection points: 3
#     Node 4, Type 0, BuildingBlock: BETDIP_clean_linker_0, # of connection points: 3
#     Node 5, Type 0, BuildingBlock: BETDIP_clean_linker_0, # of connection points: 3
#     Node 6, Type 0, BuildingBlock: BETDIP_clean_linker_0, # of connection points: 3
#     Node 7, Type 0, BuildingBlock: BETDIP_clean_linker_0, # of connection points: 3
#     Node 8, Type 1, BuildingBlock: PAMTOO_clean_sbu_0, # of connection points: 6
#     Node 9, Type 1, BuildingBlock: PAMTOO_clean_sbu_0, # of connection points: 6
#     Node 10, Type 1, BuildingBlock: PAMTOO_clean_sbu_0, # of connection points: 6
#     Node 11, Type 1, BuildingBlock: PAMTOO_clean_sbu_0, # of connection points: 6
#     Edge 12, Type (0, 1), BuildingBlock: UVAHIK_clean_linker_0, # of connection points: 2
#     Edge 13, Type (0, 1), BuildingBlock: UVAHIK_clean_linker_0, # of connection points: 2
#     Edge 14, Type (0, 1), BuildingBlock: UVAHIK_clean_linker_0, # of connection points: 2
#     Edge 15, Type (0, 1), BuildingBlock: UVAHIK_clean_linker_0, # of connection points: 2
#     Edge 16, Type (0, 1), BuildingBlock: UVAHIK_clean_linker_0, # of connection points: 2
#     Edge 17, Type (0, 1), BuildingBlock: UVAHIK_clean_linker_0, # of connection points: 2
#     Edge 18, Type (0, 1), BuildingBlock: UVAHIK_clean_linker_0, # of connection points: 2
#     Edge 19, Type (0, 1), BuildingBlock: UVAHIK_clean_linker_0, # of connection points: 2
#     Edge 20, Type (0, 1), BuildingBlock: UVAHIK_clean_linker_0, # of connection points: 2
#     Edge 21, Type (0, 1), BuildingBlock: UVAHIK_clean_linker_0, # of connection points: 2
#     Edge 22, Type (0, 1), BuildingBlock: UVAHIK_clean_linker_0, # of connection points: 2
#     Edge 23, Type (0, 1), BuildingBlock: UVAHIK_clean_linker_0, # of connection points: 2
#     Edge 24, Type (0, 1), BuildingBlock: UVAHIK_clean_linker_0, # of connection points: 2
#     Edge 25, Type (0, 1), BuildingBlock: UVAHIK_clean_linker_0, # of connection points: 2
#     Edge 26, Type (0, 1), BuildingBlock: UVAHIK_clean_linker_0, # of connection points: 2
#     Edge 27, Type (0, 1), BuildingBlock: UVAHIK_clean_linker_0, # of connection points: 2
#     Edge 28, Type (0, 1), BuildingBlock: UVAHIK_clean_linker_0, # of connection points: 2
#     Edge 29, Type (0, 1), BuildingBlock: UVAHIK_clean_linker_0, # of connection points: 2
#     Edge 30, Type (0, 1), BuildingBlock: UVAHIK_clean_linker_0, # of connection points: 2
#     Edge 31, Type (0, 1), BuildingBlock: UVAHIK_clean_linker_0, # of connection points: 2
#     Edge 32, Type (0, 1), BuildingBlock: UVAHIK_clean_linker_0, # of connection points: 2
#     Edge 33, Type (0, 1), BuildingBlock: UVAHIK_clean_linker_0, # of connection points: 2
#     Edge 34, Type (0, 1), BuildingBlock: UVAHIK_clean_linker_0, # of connection points: 2
#     Edge 35, Type (0, 1), BuildingBlock: UVAHIK_clean_linker_0, # of connection points: 2
# Relax obj value: 0.092
# Max RMSD: 0.181
# Mean RMSD: 0.129
data_MOF--net-pyr--node1-PAMTOO_clean_sbu_0--node2-BETDIP_clean_linker_0--edge1-UVAHIK_clean_linker_0
_symmetry_space_group_name_H-M    P1
_symmetry_Int_Tables_number       1
_symmetry_cell_setting            triclinic
loop_
_symmetry_equiv_pos_as_xyz
'x, y, z'
_cell_length_a     47.500238
_cell_length_b     49.281843
_cell_length_c     51.514917
_cell_angle_alpha  91.271076
_cell_angle_beta   88.245409
_cell_angle_gamma 107.81008
loop_
_atom_site_label
_atom_site_type_symbol
_atom_site_fract_x
_atom_site_fract_y
_atom_site_fract_z
_atom_type_partial_charge
H0 H 0.29673 0.28666 0.22119 0.0
H1 H 0.35088 0.27839 0.15482 0.0
H2 H 0.33051 0.21511 0.21414 0.0
H3 H 0.32909 0.30701 0.13615 0.0
C4 C 0.31809 0.31681 0.15063 0.0
C5 C 0.31014 0.27534 0.21104 0.0
C6 C 0.31185 0.24953 0.22072 0.0
C7 C 0.32368 0.28574 0.18721 0.0
C8 C 0.34022 0.27069 0.17324 0.0
C9 C 0.34241 0.24501 0.18288 0.0
C10 C 0.32847 0.23479 0.20666 0.0
N11 N 0.31808 0.31018 0.17732 0.0
H12 H 0.17603 0.78946 0.73021 0.0
H13 H 0.17823 0.73849 0.66188 0.0
H14 H 0.23749 0.74111 0.72395 0.0
H15 H 0.13271 0.74564 0.65454 0.0
C16 C 0.13679 0.76726 0.66196 0.0
C17 C 0.18479 0.77432 0.71981 0.0
C18 C 0.20778 0.76611 0.73034 0.0
C19 C 0.17375 0.76432 0.69541 0.0
C20 C 0.18567 0.74548 0.68125 0.0
C21 C 0.2083 0.73654 0.69179 0.0
C22 C 0.21893 0.74669 0.71645 0.0
N23 N 0.15312 0.77637 0.68484 0.0
H24 H 0.68989 0.40324 0.82976 0.0
H25 H 0.61635 0.32592 0.82747 0.0
H26 H 0.68487 0.33552 0.88253 0.0
H27 H 0.60969 0.34064 0.78826 0.0
C28 C 0.61879 0.36366 0.78744 0.0
C29 C 0.67848 0.38223 0.8372 0.0
C30 C 0.69093 0.37112 0.85726 0.0
C31 C 0.65186 0.36612 0.82593 0.0
C32 C 0.63707 0.33857 0.83552 0.0
C33 C 0.6492 0.32715 0.85571 0.0
C34 C 0.67592 0.34377 0.86644 0.0
N35 N 0.6409 0.37852 0.80517 0.0
H36 H 0.82276 0.62342 0.34223 0.0
H37 H 0.89106 0.70142 0.32399 0.0
H38 H 0.83486 0.69766 0.39139 0.0
H39 H 0.88446 0.68324 0.28362 0.0
C40 C 0.87974 0.66037 0.28549 0.0
C41 C 0.83454 0.64542 0.34701 0.0
C42 C 0.82569 0.65873 0.36879 0.0
C43 C 0.85769 0.66066 0.33048 0.0
C44 C 0.87281 0.68943 0.33627 0.0
C45 C 0.86421 0.70301 0.35797 0.0
C46 C 0.84093 0.68741 0.37421 0.0
N47 N 0.86488 0.64643 0.30813 0.0
H48 H 0.65207 0.75308 0.90401 0.0
H49 H 0.71385 0.7526 0.84146 0.0
H50 H 0.6696 0.81664 0.84465 0.0
H51 H 0.69599 0.70284 0.85058 0.0
C52 C 0.70032 0.70656 0.87117 0.0
C53 C 0.66306 0.76197 0.88599 0.0
C54 C 0.65807 0.78619 0.87559 0.0
C55 C 0.68234 0.74917 0.87332 0.0
C56 C 0.69748 0.76125 0.85042 0.0
C57 C 0.69317 0.78573 0.84004 0.0
C58 C 0.67295 0.79766 0.85248 0.0
N59 N 0.6883 0.72579 0.88513 0.0
H60 H 0.84411 0.25764 0.32511 0.0
H61 H 0.81649 0.28623 0.39843 0.0
H62 H 0.76431 0.28156 0.33115 0.0
H63 H 0.8505 0.27136 0.41532 0.0
C64 C 0.86237 0.26251 0.40084 0.0
C65 C 0.82873 0.26571 0.33645 0.0
C66 C 0.80386 0.26932 0.32471 0.0
C67 C 0.8335 0.27133 0.363 0.0
C68 C 0.81349 0.28173 0.37791 0.0
C69 C 0.78853 0.28547 0.36639 0.0
C70 C 0.78395 0.27929 0.33985 0.0
N71 N 0.85742 0.2642 0.37394 0.0
H72 H 0.3216 0.63608 0.2277 0.0
H73 H 0.39839 0.71067 0.23083 0.0
H74 H 0.3379 0.69904 0.16826 0.0
H75 H 0.41522 0.6856 0.25805 0.0
C76 C 0.39706 0.66917 0.26697 0.0
C77 C 0.33513 0.65608 0.21956 0.0
C78 C 0.32699 0.6656 0.19625 0.0
C79 C 0.3612 0.67168 0.23203 0.0
C80 C 0.37864 0.6979 0.22135 0.0
C81 C 0.37057 0.7078 0.19807 0.0
C82 C 0.34476 0.69137 0.18582 0.0
N83 N 0.36891 0.66016 0.25507 0.0
H84 H 0.10742 0.31049 0.72941 0.0
H85 H 0.17436 0.38936 0.71254 0.0
H86 H 0.16275 0.31748 0.66056 0.0
H87 H 0.1763 0.38529 0.76006 0.0
C88 C 0.1528 0.38229 0.7631 0.0
C89 C 0.12495 0.32291 0.71663 0.0
C90 C 0.13318 0.31042 0.69403 0.0
C91 C 0.14027 0.35103 0.72368 0.0
C92 C 0.1633 0.3673 0.70747 0.0
C93 C 0.1715 0.35545 0.68448 0.0
C94 C 0.15633 0.32696 0.67803 0.0
N95 N 0.13206 0.36263 0.74712 0.0
Dy96 Dy 0.03171 0.02118 0.50888 0.0
Dy97 Dy 0.9652 0.99796 0.53627 0.0
C98 C 0.01609 0.04826 0.56156 0.0
O99 O 0.03629 0.99444 0.54193 0.0
O100 O 0.98796 0.96657 0.54731 0.0
O101 O 0.07874 0.0428 0.51034 0.0
O102 O 0.05946 0.02062 0.47521 0.0
O103 O 0.96245 0.98358 0.49476 0.0
O104 O 0.00805 0.97802 0.49339 0.0
O105 O 0.96685 0.03858 0.5176 0.0
O106 O 0.00533 0.0442 0.48786 0.0
O107 O 0.9237 0.96452 0.54012 0.0
O108 O 0.93004 1.00472 0.5607 0.0
C109 C 0.01635 0.97155 0.5509 0.0
O110 O 0.02884 0.05374 0.53849 0.0
O111 O 0.99493 0.02438 0.56634 0.0
C112 C 0.10269 0.05914 0.47018 0.0
C113 C 0.13791 0.09821 0.43448 0.0
C114 C 0.11151 0.10192 0.44468 0.0
C115 C 0.09386 0.08234 0.46237 0.0
C116 C 0.12957 0.05614 0.46089 0.0
C117 C 0.14705 0.0755 0.44318 0.0
C118 C 0.08338 0.03647 0.4862 0.0
C119 C 0.98115 0.97119 0.4848 0.0
C120 C 0.98238 0.05116 0.49731 0.0
C121 C 0.89875 0.96347 0.58066 0.0
C122 C 0.87003 0.93404 0.62497 0.0
C123 C 0.89418 0.9273 0.61317 0.0
C124 C 0.90856 0.94202 0.59124 0.0
C125 C 0.87484 0.97034 0.5925 0.0
C126 C 0.86063 0.95582 0.6145 0.0
C127 C 0.91281 0.97875 0.55721 0.0
H128 H 0.10396 0.11921 0.43817 0.0
H129 H 0.073 0.08479 0.46934 0.0
H130 H 0.13664 0.03831 0.46676 0.0
H131 H 0.16749 0.07238 0.43588 0.0
H132 H 0.90204 0.91079 0.62099 0.0
H133 H 0.92719 0.93656 0.5825 0.0
H134 H 0.867 0.98683 0.58459 0.0
H135 H 0.84188 0.96124 0.62302 0.0
Dy136 Dy 0.47973 0.01123 1.01486 0.0
Dy137 Dy 0.53948 0.03106 0.04976 0.0
C138 C 0.48725 0.97327 0.06168 0.0
O139 O 0.46893 0.03282 0.05071 0.0
O140 O 0.5153 0.06242 0.05919 0.0
O141 O 0.43281 0.99001 1.0114 0.0
O142 O 0.45854 0.01329 0.97896 0.0
O143 O 0.55006 0.05812 1.01407 0.0
O144 O 0.50281 0.05665 1.00498 0.0
O145 O 0.54113 0.99224 0.02777 0.0
O146 O 0.51301 0.99499 0.99318 0.0
O147 O 0.58698 0.04095 0.05221 0.0
O148 O 0.55986 0.04094 0.08696 0.0
C149 C 0.48644 0.05598 0.06153 0.0
O150 O 0.4785 0.9729 0.03771 0.0
O151 O 0.50605 0.99623 0.07177 0.0
C152 C 0.4172 0.97364 0.96862 0.0
C153 C 0.3832 0.93349 0.93294 0.0
C154 C 0.37879 0.92896 0.9598 0.0
C155 C 0.39555 0.94893 0.9775 0.0
C156 C 0.42208 0.97768 0.94175 0.0
C157 C 0.40538 0.95779 0.92414 0.0
C158 C 0.43298 0.99637 0.98691 0.0
C159 C 0.53148 0.06845 1.00224 0.0
C160 C 0.53248 0.98503 1.00399 0.0
C161 C 0.6093 0.07164 0.08687 0.0
C162 C 0.65307 0.11643 0.11084 0.0
C163 C 0.62347 0.11655 0.11092 0.0
C164 C 0.60176 0.09436 0.099 0.0
C165 C 0.63897 0.07216 0.0857 0.0
C166 C 0.66068 0.09437 0.09749 0.0
C167 C 0.58662 0.04619 0.07713 0.0
H168 H 0.36168 0.91052 0.96713 0.0
H169 H 0.39101 0.94536 0.99808 0.0
H170 H 0.4384 0.99658 0.93425 0.0
H171 H 0.40958 0.96166 0.90356 0.0
H172 H 0.6168 0.13307 0.12121 0.0
H173 H 0.57899 0.0945 0.10005 0.0
H174 H 0.64524 0.05489 0.07633 0.0
H175 H 0.68334 0.0939 0.09667 0.0
Dy176 Dy 0.49643 0.48281 0.5124 0.0
Dy177 Dy 0.5023 0.54198 0.54532 0.0
C178 C 0.52227 0.49234 0.57012 0.0
O179 O 0.44998 0.48054 0.52387 0.0
O180 O 0.46157 0.50941 0.55991 0.0
O181 O 0.48385 0.43681 0.50961 0.0
O182 O 0.50359 0.46246 0.47638 0.0
O183 O 0.47266 0.54168 0.51217 0.0
O184 O 0.49101 0.51457 0.48401 0.0
O185 O 0.54226 0.55112 0.51912 0.0
O186 O 0.5447 0.50558 0.51438 0.0
O187 O 0.50714 0.58711 0.54566 0.0
O188 O 0.5026 0.56442 0.5818 0.0
C189 C 0.44241 0.48994 0.54625 0.0
O190 O 0.50529 0.47449 0.55351 0.0
O191 O 0.52906 0.52009 0.56727 0.0
C192 C 0.5169 0.4212 0.48248 0.0
C193 C 0.56077 0.39442 0.47199 0.0
C194 C 0.56327 0.41343 0.49322 0.0
C195 C 0.54157 0.42677 0.49836 0.0
C196 C 0.51398 0.40194 0.46163 0.0
C197 C 0.5357 0.38865 0.45641 0.0
C198 C 0.49547 0.43708 0.4863 0.0
C199 C 0.47691 0.53341 0.48837 0.0
C200 C 0.5569 0.53322 0.51254 0.0
C201 C 0.47757 0.59866 0.57881 0.0
C202 C 0.42993 0.61941 0.59239 0.0
C203 C 0.42556 0.58995 0.59017 0.0
C204 C 0.44911 0.57968 0.58329 0.0
C205 C 0.48207 0.62807 0.581 0.0
C206 C 0.45841 0.6384 0.58767 0.0
C207 C 0.50207 0.58775 0.57064 0.0
H208 H 0.58207 0.41813 0.50578 0.0
H209 H 0.54428 0.44182 0.51446 0.0
H210 H 0.49525 0.3977 0.44899 0.0
H211 H 0.53326 0.37453 0.43965 0.0
H212 H 0.4038 0.57483 0.59332 0.0
H213 H 0.44501 0.55688 0.58127 0.0
H214 H 0.50383 0.64302 0.57738 0.0
H215 H 0.46242 0.66121 0.58939 0.0
Dy216 Dy 0.01526 0.55269 1.00876 0.0
Dy217 Dy 0.00655 0.49049 0.03548 0.0
C218 C 0.97784 0.53489 0.06208 0.0
O219 O 0.05926 0.55681 0.02589 0.0
O220 O 0.04344 0.52165 0.05635 0.0
O221 O 0.02381 0.59834 1.01115 0.0
O222 O 0.0165 0.5766 0.9739 0.0
O223 O 0.04371 0.49744 1.00633 0.0
O224 O 0.0267 0.52405 0.9789 0.0
O225 O 0.97245 0.48323 1.00484 0.0
O226 O 0.96769 0.52805 1.00367 0.0
O227 O 1.00016 0.44546 0.03036 0.0
O228 O 0.00402 0.46418 0.06903 0.0
C229 C 0.06346 0.54436 0.04715 0.0
O230 O 0.99655 0.55518 0.04856 0.0
O231 O 0.97413 0.50779 0.05705 0.0
C232 C 0.99564 0.6134 0.98092 0.0
C233 C 0.94902 0.6333 0.96594 0.0
C234 C 0.94569 0.61595 0.98781 0.0
C235 C 0.96875 0.60594 0.99515 0.0
C236 C 0.99937 0.63133 0.95953 0.0
C237 C 0.97622 0.64121 0.95207 0.0
C238 C 0.01852 0.60018 0.98668 0.0
C239 C 0.0423 0.50687 0.98302 0.0
C240 C 0.95778 0.50065 0.9983 0.0
C241 C 0.02773 0.4296 0.06032 0.0
C242 C 0.07457 0.40888 0.07298 0.0
C243 C 0.07856 0.42959 0.05376 0.0
C244 C 0.05541 0.43996 0.04758 0.0
C245 C 0.02346 0.40869 0.07928 0.0
C246 C 0.04674 0.39841 0.08561 0.0
C247 C 0.00409 0.44194 0.05486 0.0
H248 H 0.92488 0.6092 0.99865 0.0
H249 H 0.96528 0.5917 1.01148 0.0
H250 H 0.01988 0.63706 0.9482 0.0
H251 H 0.97946 0.65473 0.93525 0.0
H252 H 0.09985 0.43839 0.04399 0.0
H253 H 0.05927 0.45642 0.03314 0.0
H254 H 0.0023 0.40063 0.08941 0.0
H255 H 0.04301 0.38231 0.10039 0.0
C256 C 0.28053 0.20729 0.24538 0.0
C257 C 0.29469 0.23684 0.24445 0.0
C258 C 0.26461 0.19499 0.26753 0.0
C259 C 0.22356 0.20826 0.3245 0.0
H260 H 0.23835 0.14065 0.35025 0.0
C261 C 0.16308 0.1465 0.41563 0.0
C262 C 0.15518 0.11665 0.41361 0.0
C263 C 0.18083 0.1635 0.39625 0.0
C264 C 0.23374 0.15935 0.34319 0.0
H265 H 0.30263 0.27669 0.26602 0.0
H266 H 0.27403 0.25502 0.30475 0.0
H267 H 0.26817 0.16623 0.31409 0.0
H268 H 0.15802 0.08115 0.38922 0.0
H269 H 0.18833 0.11055 0.35536 0.0
H270 H 0.18843 0.20078 0.35317 0.0
C271 C 0.27559 0.24154 0.28822 0.0
C272 C 0.25091 0.17404 0.32256 0.0
C273 C 0.29188 0.25389 0.26606 0.0
C274 C 0.16438 0.10412 0.39154 0.0
C275 C 0.18183 0.12099 0.3722 0.0
C276 C 0.20611 0.19335 0.34511 0.0
C277 C 0.26213 0.21193 0.2892 0.0
C278 C 0.24563 0.19829 0.31269 0.0
C279 C 0.19076 0.15086 0.37451 0.0
C280 C 0.21064 0.16837 0.35428 0.0
H281 H 0.28142 0.19358 0.22885 0.0
H282 H 0.25392 0.17216 0.26761 0.0
H283 H 0.21903 0.22688 0.31714 0.0
H284 H 0.15623 0.15664 0.43249 0.0
H285 H 0.18738 0.18646 0.39861 0.0
C286 C 0.22952 0.81032 0.7567 0.0
C287 C 0.22266 0.78059 0.75401 0.0
C288 C 0.24603 0.82467 0.77748 0.0
C289 C 0.27076 0.81711 0.84285 0.0
H290 H 0.33453 0.88501 0.82432 0.0
C291 C 0.35643 0.88414 0.91641 0.0
C292 C 0.36388 0.91388 0.91401 0.0
C293 C 0.33895 0.86599 0.89783 0.0
C294 C 0.31666 0.86626 0.82988 0.0
H295 H 0.2269 0.74247 0.77152 0.0
H296 H 0.25604 0.76778 0.80807 0.0
H297 H 0.30385 0.85667 0.79052 0.0
H298 H 0.35761 0.94788 0.8911 0.0
H299 H 0.3272 0.91644 0.85893 0.0
H300 H 0.28347 0.8271 0.88238 0.0
C301 C 0.24847 0.77984 0.794 0.0
C302 C 0.29912 0.85002 0.81051 0.0
C303 C 0.23199 0.76541 0.77305 0.0
C304 C 0.35288 0.92508 0.89313 0.0
C305 C 0.33545 0.90704 0.87468 0.0
C306 C 0.28833 0.83351 0.86235 0.0
C307 C 0.25614 0.80968 0.79608 0.0
C308 C 0.27567 0.82558 0.8168 0.0
C309 C 0.32861 0.87732 0.87658 0.0
C310 C 0.31113 0.85855 0.85607 0.0
H311 H 0.22306 0.82272 0.74221 0.0
H312 H 0.25129 0.84765 0.77878 0.0
H313 H 0.25279 0.79837 0.84821 0.0
H314 H 0.36468 0.87493 0.93228 0.0
H315 H 0.33414 0.84318 0.89974 0.0
C316 C 0.58948 0.36269 0.74775 0.0
C317 C 0.60949 0.37863 0.76602 0.0
C318 C 0.58047 0.37607 0.72728 0.0
C319 C 0.60097 0.44339 0.68962 0.0
H320 H 0.52008 0.41371 0.66695 0.0
C321 C 0.55202 0.49856 0.61097 0.0
C322 C 0.53338 0.48058 0.59276 0.0
C323 C 0.56177 0.48719 0.63248 0.0
C324 C 0.54284 0.42214 0.67283 0.0
H325 H 0.63571 0.42136 0.77714 0.0
H326 H 0.61969 0.44485 0.74162 0.0
H327 H 0.53586 0.39229 0.70371 0.0
H328 H 0.5108 0.43633 0.58298 0.0
H329 H 0.52776 0.4167 0.62018 0.0
H330 H 0.60778 0.47336 0.65866 0.0
C331 C 0.61123 0.42186 0.74286 0.0
C332 C 0.55195 0.4098 0.69397 0.0
C333 C 0.62031 0.4084 0.76337 0.0
C334 C 0.52499 0.45095 0.59657 0.0
C335 C 0.5346 0.43963 0.61808 0.0
C336 C 0.5918 0.45584 0.66848 0.0
C337 C 0.59112 0.40588 0.72451 0.0
C338 C 0.58123 0.42 0.70255 0.0
C339 C 0.55299 0.45755 0.63644 0.0
C340 C 0.56267 0.44518 0.65961 0.0
H341 H 0.58087 0.33971 0.7492 0.0
H342 H 0.56541 0.3629 0.71338 0.0
H343 H 0.62377 0.4517 0.69539 0.0
H344 H 0.55896 0.52148 0.60872 0.0
H345 H 0.57574 0.50168 0.64629 0.0
C346 C 0.89737 0.65814 0.23981 0.0
C347 C 0.88591 0.64389 0.26288 0.0
C348 C 0.90302 0.64306 0.21805 0.0
C349 C 0.91851 0.577 0.19807 0.0
H350 H 0.89998 0.59756 0.12986 0.0
C351 C 0.94708 0.52392 0.10338 0.0
C352 C 0.96135 0.54336 0.08401 0.0
C353 C 0.93352 0.53295 0.125 0.0
C354 C 0.90534 0.59161 0.14877 0.0
H355 H 0.87156 0.60266 0.28148 0.0
H356 H 0.88151 0.57624 0.24334 0.0
H357 H 0.88498 0.61969 0.16845 0.0
H358 H 0.97158 0.58724 0.07166 0.0
H359 H 0.94819 0.60285 0.10914 0.0
H360 H 0.93956 0.54944 0.17828 0.0
C361 C 0.88616 0.59912 0.24213 0.0
C362 C 0.8968 0.60431 0.17086 0.0
C363 C 0.88037 0.61423 0.26391 0.0
C364 C 0.96094 0.57171 0.08628 0.0
C365 C 0.94728 0.58064 0.1077 0.0
C366 C 0.92712 0.56429 0.17592 0.0
C367 C 0.89742 0.61337 0.21892 0.0
C368 C 0.90389 0.59766 0.19572 0.0
C369 C 0.93371 0.5615 0.12746 0.0
C370 C 0.92123 0.57198 0.15101 0.0
H371 H 0.90193 0.68101 0.23858 0.0
H372 H 0.91218 0.65475 0.20062 0.0
H373 H 0.92445 0.57156 0.21696 0.0
H374 H 0.94702 0.50193 0.10218 0.0
H375 H 0.92303 0.51767 0.13985 0.0
C376 C 0.38727 0.23924 0.15921 0.0
C377 C 0.35777 0.22764 0.16781 0.0
C378 C 0.40235 0.22172 0.14733 0.0
C379 C 0.39873 0.14556 0.1428 0.0
H380 H 0.4549 0.16995 0.08538 0.0
C381 C 0.44276 0.06763 0.08142 0.0
C382 C 0.47322 0.07592 0.07536 0.0
C383 C 0.42993 0.08684 0.09333 0.0
C384 C 0.43949 0.163 0.10159 0.0
H385 H 0.32029 0.18927 0.1694 0.0
H386 H 0.34614 0.15891 0.1481 0.0
H387 H 0.42968 0.20264 0.10386 0.0
H388 H 0.51415 0.11088 0.07715 0.0
H389 H 0.49158 0.14451 0.09787 0.0
H390 H 0.40809 0.10577 0.14021 0.0
C391 C 0.3581 0.18121 0.15127 0.0
C392 C 0.42506 0.1817 0.11219 0.0
C393 C 0.34321 0.19861 0.16331 0.0
C394 C 0.49063 0.1038 0.08165 0.0
C395 C 0.47771 0.12313 0.09333 0.0
C396 C 0.41293 0.12685 0.13209 0.0
C397 C 0.38806 0.19236 0.14369 0.0
C398 C 0.40427 0.17308 0.13277 0.0
C399 C 0.44723 0.11483 0.09922 0.0
C400 C 0.43326 0.13528 0.11126 0.0
H401 H 0.39894 0.26158 0.16257 0.0
H402 H 0.42545 0.23097 0.14183 0.0
H403 H 0.38343 0.13843 0.15907 0.0
H404 H 0.42872 0.04632 0.07682 0.0
H405 H 0.40632 0.07995 0.09745 0.0
C406 C 0.09917 0.77633 0.63316 0.0
C407 C 0.12322 0.78683 0.64963 0.0
C408 C 0.08614 0.79506 0.62194 0.0
C409 C 0.10245 0.86835 0.60115 0.0
H410 H 0.01888 0.85909 0.61174 0.0
C411 C 0.05483 0.95755 0.57452 0.0
C412 C 0.02652 0.95001 0.56402 0.0
C413 C 0.06542 0.93686 0.58517 0.0
C414 C 0.04216 0.86179 0.6082 0.0
H415 H 0.15304 0.8251 0.66679 0.0
H416 H 0.13079 0.85766 0.64675 0.0
H417 H 0.03965 0.82342 0.62837 0.0
H418 H 0.98686 0.91491 0.55675 0.0
H419 H 0.00567 0.87859 0.57448 0.0
H420 H 0.1052 0.90615 0.58051 0.0
C421 C 0.12176 0.83501 0.64278 0.0
C422 C 0.054 0.84136 0.61779 0.0
C423 C 0.13436 0.81633 0.65434 0.0
C424 C 0.00874 0.92141 0.56486 0.0
C425 C 0.01952 0.90059 0.57513 0.0
C426 C 0.09059 0.88848 0.59121 0.0
C427 C 0.09749 0.82457 0.62658 0.0
C428 C 0.08432 0.84473 0.61467 0.0
C429 C 0.04817 0.90799 0.58513 0.0
C430 C 0.06038 0.88577 0.59495 0.0
H431 H 0.09027 0.75366 0.62924 0.0
H432 H 0.06749 0.78657 0.6094 0.0
H433 H 0.12587 0.87121 0.59827 0.0
H434 H 0.06893 0.97948 0.57442 0.0
H435 H 0.08724 0.94357 0.59334 0.0
C436 C 0.74062 0.37353 0.87425 0.0
C437 C 0.71979 0.3875 0.86867 0.0
C438 C 0.76687 0.38799 0.88657 0.0
C439 C 0.80048 0.45082 0.92848 0.0
H440 H 0.87262 0.43257 0.91086 0.0
C441 C 0.91328 0.50697 0.97678 0.0
C442 C 0.93007 0.48922 0.9836 0.0
C443 C 0.88783 0.49627 0.96202 0.0
C444 C 0.85261 0.43776 0.91617 0.0
H445 H 0.7107 0.42798 0.87117 0.0
H446 H 0.75698 0.45353 0.89235 0.0
H447 H 0.82863 0.41168 0.88548 0.0
H448 H 0.93288 0.44613 0.9804 0.0
H449 H 0.88865 0.42759 0.95485 0.0
H450 H 0.82465 0.47691 0.95926 0.0
C451 C 0.75269 0.43116 0.8875 0.0
C452 C 0.82734 0.42576 0.9016 0.0
C453 C 0.72632 0.41662 0.87509 0.0
C454 C 0.9206 0.46048 0.97551 0.0
C455 C 0.89531 0.44986 0.96066 0.0
C456 C 0.82586 0.46295 0.94301 0.0
C457 C 0.77321 0.41695 0.89358 0.0
C458 C 0.80076 0.43173 0.9078 0.0
C459 C 0.8787 0.46763 0.95357 0.0
C460 C 0.85211 0.45619 0.93729 0.0
H461 H 0.73652 0.35121 0.86926 0.0
H462 H 0.78187 0.37619 0.89117 0.0
H463 H 0.78036 0.45569 0.93402 0.0
H464 H 0.91992 0.52923 0.98263 0.0
H465 H 0.87565 0.51058 0.95677 0.0
C466 C 0.78005 0.65751 0.39497 0.0
C467 C 0.79991 0.64333 0.38546 0.0
C468 C 0.75626 0.64369 0.41123 0.0
C469 C 0.70679 0.57389 0.42868 0.0
H470 H 0.68888 0.61466 0.48909 0.0
C471 C 0.60382 0.52576 0.49487 0.0
C472 C 0.5875 0.54438 0.50196 0.0
C473 C 0.63203 0.53623 0.48337 0.0
C474 C 0.69348 0.60304 0.47223 0.0
H475 H 0.80996 0.60324 0.38533 0.0
H476 H 0.76768 0.57879 0.41347 0.0
H477 H 0.73392 0.63571 0.46335 0.0
H478 H 0.5883 0.58866 0.50299 0.0
H479 H 0.6371 0.60678 0.48264 0.0
H480 H 0.66583 0.54168 0.43697 0.0
C481 C 0.77088 0.60074 0.40834 0.0
C482 C 0.7193 0.61506 0.45754 0.0
C483 C 0.79496 0.6147 0.39218 0.0
C484 C 0.60026 0.57372 0.49785 0.0
C485 C 0.62839 0.58415 0.48632 0.0
C486 C 0.68082 0.56191 0.44329 0.0
C487 C 0.75149 0.61524 0.4182 0.0
C488 C 0.72588 0.6009 0.43531 0.0
C489 C 0.6445 0.56552 0.47871 0.0
C490 C 0.67356 0.57666 0.46491 0.0
H491 H 0.7827 0.67931 0.38965 0.0
H492 H 0.74128 0.65519 0.41806 0.0
H493 H 0.71126 0.56261 0.41153 0.0
H494 H 0.59469 0.50303 0.49786 0.0
H495 H 0.64401 0.52137 0.47803 0.0
C496 C 0.29183 0.33239 0.11534 0.0
C497 C 0.29716 0.33138 0.14189 0.0
C498 C 0.26924 0.34273 0.10717 0.0
C499 C 0.19842 0.34978 0.13096 0.0
H500 H 0.20504 0.39928 0.07216 0.0
C501 C 0.10563 0.39691 0.10667 0.0
C502 C 0.09975 0.3991 0.08038 0.0
C503 C 0.13018 0.38906 0.11371 0.0
C504 C 0.20273 0.38514 0.08842 0.0
H505 H 0.28427 0.342 0.18069 0.0
H506 H 0.24505 0.35998 0.16645 0.0
H507 H 0.24815 0.38612 0.0851 0.0
H508 H 0.11454 0.39414 0.04083 0.0
H509 H 0.15719 0.37996 0.05309 0.0
H510 H 0.15304 0.34831 0.13416 0.0
C511 C 0.25793 0.35236 0.15195 0.0
C512 C 0.22744 0.37771 0.09586 0.0
C513 C 0.28052 0.34218 0.16008 0.0
C514 C 0.11872 0.39293 0.06126 0.0
C515 C 0.14321 0.38492 0.06829 0.0
C516 C 0.17371 0.35703 0.12345 0.0
C517 C 0.25157 0.3521 0.12549 0.0
C518 C 0.22556 0.36011 0.11732 0.0
C519 C 0.14932 0.38305 0.09461 0.0
C520 C 0.17558 0.37493 0.10219 0.0
H521 H 0.30437 0.3242 0.10096 0.0
H522 H 0.26478 0.34223 0.08664 0.0
H523 H 0.19615 0.33569 0.14727 0.0
H524 H 0.09166 0.40198 0.12183 0.0
H525 H 0.13449 0.3883 0.13416 0.0
C526 C 0.6517 0.28033 0.87212 0.0
C527 C 0.63454 0.29801 0.8661 0.0
C528 C 0.63905 0.25442 0.88466 0.0
C529 C 0.57436 0.21682 0.92636 0.0
H530 H 0.60405 0.15251 0.91376 0.0
C531 C 0.52308 0.10777 0.97634 0.0
C532 C 0.54276 0.09426 0.98588 0.0
C533 C 0.53337 0.13197 0.96085 0.0
C534 C 0.59569 0.17036 0.91767 0.0
H535 H 0.59015 0.30148 0.86764 0.0
H536 H 0.56774 0.25572 0.88896 0.0
H537 H 0.62231 0.19476 0.88697 0.0
H538 H 0.58884 0.09577 0.98644 0.0
H539 H 0.60679 0.13797 0.95927 0.0
H540 H 0.54759 0.1922 0.95698 0.0
C541 C 0.59126 0.2623 0.88447 0.0
C542 C 0.60617 0.19466 0.9023 0.0
C543 C 0.60401 0.28839 0.87192 0.0
C544 C 0.57305 0.10559 0.97946 0.0
C545 C 0.58331 0.12969 0.96374 0.0
C546 C 0.56372 0.19241 0.94161 0.0
C547 C 0.60873 0.24517 0.89142 0.0
C548 C 0.59592 0.21841 0.90658 0.0
C549 C 0.5636 0.14322 0.95426 0.0
C550 C 0.57446 0.16897 0.93763 0.0
H551 H 0.67522 0.28684 0.86759 0.0
H552 H 0.65339 0.24213 0.88983 0.0
H553 H 0.56625 0.23475 0.93061 0.0
H554 H 0.4996 0.09971 0.98086 0.0
H555 H 0.51753 0.14164 0.9537 0.0
C556 C 0.86182 0.75143 0.37098 0.0
C557 C 0.87894 0.73359 0.36384 0.0
C558 C 0.8753 0.77953 0.37895 0.0
C559 C 0.94315 0.82374 0.4089 0.0
H560 H 0.91106 0.88527 0.39468 0.0
C561 C 0.99196 0.93514 0.45452 0.0
C562 C 0.9714 0.94762 0.46563 0.0
C563 C 0.9827 0.91131 0.43815 0.0
C564 C 0.92018 0.86827 0.3989 0.0
H565 H 0.92364 0.73151 0.35836 0.0
H566 H 0.94738 0.78092 0.37209 0.0
H567 H 0.89176 0.83942 0.37222 0.0
H568 H 0.9251 0.94547 0.46749 0.0
H569 H 0.90883 0.90357 0.43909 0.0
H570 H 0.97104 0.85224 0.43602 0.0
C571 C 0.92346 0.77298 0.3718 0.0
C572 C 0.90917 0.84204 0.38602 0.0
C573 C 0.90991 0.7448 0.36374 0.0
C574 C 0.94149 0.93636 0.45924 0.0
C575 C 0.9322 0.91243 0.44286 0.0
C576 C 0.95416 0.84994 0.42175 0.0
C577 C 0.90626 0.79049 0.37994 0.0
C578 C 0.92018 0.81932 0.39122 0.0
C579 C 0.95265 0.89934 0.43252 0.0
C580 C 0.94248 0.87236 0.41721 0.0
H581 H 0.83789 0.74346 0.3709 0.0
H582 H 0.86138 0.79229 0.38531 0.0
H583 H 0.9518 0.80657 0.41368 0.0
H584 H 0.01524 0.94345 0.45883 0.0
H585 H 0.99907 0.90202 0.43015 0.0
C586 C 0.23499 0.72811 0.65125 0.0
C587 C 0.22357 0.71938 0.67622 0.0
C588 C 0.25387 0.71505 0.63839 0.0
C589 C 0.28068 0.65211 0.63786 0.0
H590 H 0.35513 0.70524 0.61435 0.0
C591 C 0.385 0.61759 0.61989 0.0
C592 C 0.40473 0.63014 0.59956 0.0
C593 C 0.36107 0.62741 0.62657 0.0
C594 C 0.33432 0.69002 0.62033 0.0
H595 H 0.22138 0.68915 0.70667 0.0
H596 H 0.2541 0.66609 0.68411 0.0
H597 H 0.31499 0.72312 0.6295 0.0
H598 H 0.41461 0.6625 0.56997 0.0
H599 H 0.37254 0.67944 0.58132 0.0
H600 H 0.29996 0.61899 0.62883 0.0
C601 C 0.24856 0.68303 0.67448 0.0
C602 C 0.3113 0.70031 0.62903 0.0
C603 C 0.22996 0.69628 0.68744 0.0
C604 C 0.39997 0.65268 0.58596 0.0
C605 C 0.37586 0.66237 0.59249 0.0
C606 C 0.30361 0.64178 0.62893 0.0
C607 C 0.26139 0.69283 0.65015 0.0
C608 C 0.28443 0.68151 0.63829 0.0
C609 C 0.35612 0.64988 0.61293 0.0
C610 C 0.33092 0.66065 0.62051 0.0
H611 H 0.23063 0.74604 0.64227 0.0
H612 H 0.26327 0.72286 0.61955 0.0
H613 H 0.26009 0.63712 0.64464 0.0
H614 H 0.38833 0.60042 0.63094 0.0
H615 H 0.34676 0.61769 0.64278 0.0
C616 C 0.71757 0.7841 0.79621 0.0
C617 C 0.71129 0.80004 0.81736 0.0
C618 C 0.73518 0.79779 0.77522 0.0
C619 C 0.76051 0.86682 0.74246 0.0
H620 H 0.82361 0.83962 0.71394 0.0
C621 C 0.84597 0.93274 0.66902 0.0
C622 C 0.85418 0.91813 0.64784 0.0
C623 C 0.82942 0.91775 0.68987 0.0
C624 C 0.80586 0.84728 0.72149 0.0
H625 H 0.71936 0.8428 0.83333 0.0
H626 H 0.74956 0.86656 0.79661 0.0
H627 H 0.79215 0.81404 0.74957 0.0
H628 H 0.85191 0.87642 0.63201 0.0
H629 H 0.82264 0.85012 0.66835 0.0
H630 H 0.77385 0.89985 0.71439 0.0
C631 C 0.74052 0.84354 0.79608 0.0
C632 C 0.78788 0.83263 0.74187 0.0
C633 C 0.72311 0.8299 0.81708 0.0
C634 C 0.84611 0.88823 0.64821 0.0
C635 C 0.82938 0.87319 0.66903 0.0
C636 C 0.77834 0.88135 0.72204 0.0
C637 C 0.74672 0.82766 0.77493 0.0
C638 C 0.76517 0.84241 0.75268 0.0
C639 C 0.82052 0.88778 0.68994 0.0
C640 C 0.80139 0.87191 0.71144 0.0
H641 H 0.70862 0.76108 0.79576 0.0
H642 H 0.73941 0.78503 0.75904 0.0
H643 H 0.74286 0.87457 0.75012 0.0
H644 H 0.85232 0.95581 0.66944 0.0
H645 H 0.82356 0.92967 0.70594 0.0
C646 C 0.79987 0.2343 0.28794 0.0
C647 C 0.79708 0.26037 0.2973 0.0
C648 C 0.78996 0.22402 0.26331 0.0
C649 C 0.73469 0.22835 0.21709 0.0
H650 H 0.77128 0.18294 0.1733 0.0
C651 C 0.67574 0.16643 0.12791 0.0
C652 C 0.67535 0.13779 0.12645 0.0
C653 C 0.69492 0.18571 0.14463 0.0
C654 C 0.7608 0.19558 0.18533 0.0
H655 H 0.78343 0.29697 0.28754 0.0
H656 H 0.76605 0.27898 0.24448 0.0
H657 H 0.79788 0.20946 0.21029 0.0
H658 H 0.69519 0.10713 0.14117 0.0
H659 H 0.72848 0.14059 0.17014 0.0
H660 H 0.6972 0.2137 0.19279 0.0
C661 C 0.7755 0.2663 0.25637 0.0
C662 C 0.77603 0.21075 0.20649 0.0
C663 C 0.78544 0.27659 0.28101 0.0
C664 C 0.69525 0.12913 0.14142 0.0
C665 C 0.7144 0.14836 0.15807 0.0
C666 C 0.71946 0.21317 0.19595 0.0
C667 C 0.77701 0.23959 0.2475 0.0
C668 C 0.76283 0.22674 0.22299 0.0
C669 C 0.71411 0.17674 0.16022 0.0
C670 C 0.73203 0.19603 0.18023 0.0
H671 H 0.80835 0.2211 0.30013 0.0
H672 H 0.79107 0.20319 0.25724 0.0
H673 H 0.72371 0.24015 0.22959 0.0
H674 H 0.66097 0.17386 0.11636 0.0
H675 H 0.69444 0.20754 0.14563 0.0
C676 C 0.43212 0.66305 0.29994 0.0
C677 C 0.40334 0.65478 0.29029 0.0
C678 C 0.43896 0.64959 0.32147 0.0
C679 C 0.40554 0.60511 0.37851 0.0
H680 H 0.4806 0.58918 0.3777 0.0
C681 C 0.45144 0.56651 0.46975 0.0
C682 C 0.4664 0.54605 0.46592 0.0
C683 C 0.44261 0.57907 0.44851 0.0
C684 C 0.45943 0.59323 0.37824 0.0
H685 H 0.35896 0.62593 0.29599 0.0
H686 H 0.37088 0.60229 0.33358 0.0
H687 H 0.46721 0.61183 0.3405 0.0
H688 H 0.48332 0.52254 0.43647 0.0
H689 H 0.46784 0.54418 0.39966 0.0
H690 H 0.39768 0.58616 0.41622 0.0
C691 C 0.3882 0.61939 0.32457 0.0
C692 C 0.45188 0.60658 0.35696 0.0
C693 C 0.38138 0.63284 0.3029 0.0
C694 C 0.47196 0.53826 0.44027 0.0
C695 C 0.46323 0.55085 0.41907 0.0
C696 C 0.41317 0.59185 0.3999 0.0
C697 C 0.41716 0.62745 0.33406 0.0
C698 C 0.42485 0.61279 0.35676 0.0
C699 C 0.44861 0.5716 0.42284 0.0
C700 C 0.44024 0.58569 0.40007 0.0
H701 H 0.44949 0.67997 0.29072 0.0
H702 H 0.46137 0.65676 0.32839 0.0
H703 H 0.38466 0.60973 0.3792 0.0
H704 H 0.4468 0.57312 0.48919 0.0
H705 H 0.43167 0.59514 0.45223 0.0
C706 C 0.16202 0.40627 0.80646 0.0
C707 C 0.14282 0.39596 0.78584 0.0
C708 C 0.15279 0.41911 0.8282 0.0
C709 C 0.1054 0.46038 0.84893 0.0
H710 H 0.10268 0.42788 0.91716 0.0
C711 C 0.04645 0.49726 0.93554 0.0
C712 C 0.05656 0.49639 0.96074 0.0
C713 C 0.05863 0.48605 0.91448 0.0
C714 C 0.10385 0.43768 0.8984 0.0
H715 H 0.09924 0.3915 0.77132 0.0
H716 H 0.08346 0.41488 0.80905 0.0
H717 H 0.12134 0.40665 0.87982 0.0
H718 H 0.08788 0.48378 0.98362 0.0
H719 H 0.11027 0.46548 0.94669 0.0
H720 H 0.08904 0.49201 0.86721 0.0
C721 C 0.10542 0.41254 0.80852 0.0
C722 C 0.11434 0.42532 0.87701 0.0
C723 C 0.11439 0.39909 0.78706 0.0
C724 C 0.07955 0.4846 0.9644 0.0
C725 C 0.0922 0.4739 0.94321 0.0
C726 C 0.09554 0.47314 0.87035 0.0
C727 C 0.12449 0.42248 0.8293 0.0
C728 C 0.11479 0.43634 0.85209 0.0
C729 C 0.08171 0.47421 0.91795 0.0
C730 C 0.09414 0.4617 0.89537 0.0
H731 H 0.18405 0.40412 0.80587 0.0
H732 H 0.16786 0.42676 0.844 0.0
H733 H 0.10591 0.4694 0.82987 0.0
H734 H 0.02849 0.50588 0.93214 0.0
H735 H 0.04935 0.48613 0.89556 0.0
C736 C 0.64319 0.80734 0.91639 0.0
C737 C 0.63946 0.80124 0.88973 0.0
C738 C 0.62902 0.82515 0.92894 0.0
C739 C 0.56939 0.85834 0.92371 0.0
H740 H 0.62079 0.91792 0.96624 0.0
C741 C 0.5357 0.95524 0.96432 0.0
C742 C 0.5438 0.96382 0.98995 0.0
C743 C 0.54622 0.93469 0.95163 0.0
C744 C 0.606 0.90124 0.95469 0.0
H745 H 0.61655 0.80746 0.85568 0.0
H746 H 0.59189 0.83872 0.87761 0.0
H747 H 0.6397 0.88171 0.9461 0.0
H748 H 0.56905 0.95724 0.0224 0.0
H749 H 0.58685 0.92145 1.00053 0.0
H750 H 0.53563 0.87796 0.93245 0.0
C751 C 0.60577 0.82976 0.88879 0.0
C752 C 0.61685 0.88045 0.94319 0.0
C753 C 0.62004 0.81205 0.87621 0.0
C754 C 0.56252 0.95138 1.00258 0.0
C755 C 0.57289 0.93089 0.98998 0.0
C756 C 0.55845 0.87913 0.93536 0.0
C757 C 0.61076 0.83712 0.91512 0.0
C758 C 0.59866 0.8587 0.92768 0.0
C759 C 0.56501 0.92235 0.96434 0.0
C760 C 0.57662 0.90073 0.95111 0.0
H761 H 0.65816 0.79949 0.92729 0.0
H762 H 0.63293 0.83013 0.94936 0.0
H763 H 0.55484 0.84176 0.91192 0.0
H764 H 0.52128 0.96438 0.95405 0.0
H765 H 0.53995 0.92875 0.93177 0.0
C766 C 0.87791 0.23657 0.43585 0.0
C767 C 0.87967 0.24422 0.40966 0.0
C768 C 0.89152 0.21694 0.44409 0.0
C769 C 0.94852 0.18254 0.42824 0.0
H770 H 0.89776 0.12098 0.46948 0.0
C771 C 0.98307 0.08442 0.46051 0.0
C772 C 0.97362 0.07449 0.48565 0.0
C773 C 0.97317 0.1057 0.44972 0.0
C774 C 0.91241 0.13818 0.45826 0.0
H775 H 0.89834 0.23852 0.3717 0.0
H776 H 0.92243 0.20437 0.38623 0.0
H777 H 0.87865 0.1581 0.45434 0.0
H778 H 0.94773 0.08022 0.51966 0.0
H779 H 0.93133 0.1173 0.50131 0.0
H780 H 0.98253 0.16277 0.43267 0.0
C781 C 0.91036 0.21345 0.40032 0.0
C782 C 0.9014 0.15942 0.44956 0.0
C783 C 0.89645 0.23289 0.39202 0.0
C784 C 0.95499 0.08689 0.50003 0.0
C785 C 0.94542 0.10815 0.48943 0.0
C786 C 0.95972 0.16132 0.43722 0.0
C787 C 0.90743 0.2048 0.42632 0.0
C788 C 0.9194 0.18202 0.43475 0.0
C789 C 0.95385 0.11749 0.46399 0.0
C790 C 0.94188 0.13912 0.45269 0.0
H791 H 0.8652 0.24507 0.44984 0.0
H792 H 0.88923 0.21091 0.46432 0.0
H793 H 0.96284 0.19974 0.4168 0.0
H794 H 0.99751 0.07535 0.449 0.0
H795 H 0.98007 0.1124 0.43004 0.0
C796 C 0.27209 0.6413 0.1946 0.0
C797 C 0.30011 0.64903 0.18224 0.0
C798 C 0.24653 0.62894 0.18031 0.0
C799 C 0.22062 0.62112 0.11191 0.0
H800 H 0.15105 0.56659 0.14208 0.0
C801 C 0.10935 0.58428 0.05826 0.0
C802 C 0.09127 0.55605 0.06162 0.0
C803 C 0.13475 0.59541 0.07304 0.0
C804 C 0.17036 0.58155 0.13315 0.0
H805 H 0.32355 0.64853 0.14562 0.0
H806 H 0.27938 0.62598 0.12093 0.0
H807 H 0.19531 0.58454 0.16758 0.0
H808 H 0.0863 0.51708 0.08258 0.0
H809 H 0.13082 0.53601 0.1075 0.0
H810 H 0.19614 0.61731 0.07715 0.0
C811 C 0.27676 0.63035 0.1414 0.0
C812 C 0.19572 0.59222 0.14801 0.0
C813 C 0.30217 0.64303 0.15559 0.0
C814 C 0.09952 0.53905 0.07968 0.0
C815 C 0.12503 0.55002 0.09418 0.0
C816 C 0.1954 0.61024 0.09698 0.0
C817 C 0.24847 0.62371 0.15337 0.0
C818 C 0.22128 0.61215 0.13761 0.0
C819 C 0.14291 0.57846 0.09132 0.0
C820 C 0.16985 0.59026 0.10734 0.0
H821 H 0.26987 0.64595 0.21508 0.0
H822 H 0.22522 0.62442 0.19025 0.0
H823 H 0.23956 0.63683 0.10326 0.0
H824 H 0.10353 0.598 0.04464 0.0
H825 H 0.14762 0.6175 0.07045 0.0
C826 C 0.19541 0.36899 0.64034 0.0
C827 C 0.19641 0.37237 0.66755 0.0
C828 C 0.2196 0.38345 0.62459 0.0
C829 C 0.28633 0.44529 0.62272 0.0
H830 H 0.31802 0.40001 0.57432 0.0
C831 C 0.4052 0.48578 0.5824 0.0
C832 C 0.41196 0.47807 0.55708 0.0
C833 C 0.37692 0.47434 0.59326 0.0
C834 C 0.30918 0.41313 0.5873 0.0
H835 H 0.22369 0.3941 0.69936 0.0
H836 H 0.26543 0.41993 0.67178 0.0
H837 H 0.27174 0.37778 0.59809 0.0
H838 H 0.394 0.45268 0.52308 0.0
H839 H 0.34419 0.43301 0.54196 0.0
H840 H 0.32353 0.48068 0.61204 0.0
C841 C 0.24586 0.40603 0.66273 0.0
C842 C 0.28272 0.40034 0.60099 0.0
C843 C 0.22187 0.39128 0.67851 0.0
C844 C 0.38955 0.45892 0.54269 0.0
C845 C 0.36105 0.44757 0.55356 0.0
C846 C 0.31256 0.45817 0.60883 0.0
C847 C 0.24511 0.40196 0.63566 0.0
C848 C 0.27142 0.41617 0.61924 0.0
C849 C 0.35445 0.45505 0.57906 0.0
C850 C 0.32474 0.4421 0.59143 0.0
H851 H 0.17596 0.35511 0.63114 0.0
H852 H 0.21836 0.3802 0.60373 0.0
H853 H 0.27783 0.45806 0.6364 0.0
H854 H 0.4219 0.50038 0.59414 0.0
H855 H 0.37294 0.48016 0.61312 0.0
C856 C 0.73909 0.68238 0.86651 0.0
C857 C 0.72308 0.69602 0.8826 0.0
C858 C 0.76269 0.67476 0.87623 0.0
C859 C 0.79591 0.66102 0.93614 0.0
H860 H 0.86865 0.68215 0.89462 0.0
C861 C 0.90555 0.65139 0.9745 0.0
C862 C 0.92365 0.64178 0.95683 0.0
C863 C 0.88096 0.65827 0.96591 0.0
C864 C 0.84844 0.67575 0.90632 0.0
H865 H 0.71833 0.71145 0.92176 0.0
H866 H 0.75953 0.69791 0.93883 0.0
H867 H 0.82508 0.69214 0.87887 0.0
H868 H 0.92996 0.63143 0.91639 0.0
H869 H 0.88696 0.64304 0.90142 0.0
H870 H 0.81912 0.64427 0.96346 0.0
C871 C 0.75384 0.69315 0.91868 0.0
C872 C 0.82348 0.68151 0.89729 0.0
C873 C 0.73034 0.70099 0.90889 0.0
C874 C 0.91672 0.63928 0.9304 0.0
C875 C 0.89206 0.64595 0.92184 0.0
C876 C 0.82085 0.65504 0.94511 0.0
C877 C 0.77059 0.68045 0.90231 0.0
C878 C 0.79694 0.67414 0.91206 0.0
C879 C 0.87383 0.65549 0.93948 0.0
C880 C 0.84741 0.66228 0.93027 0.0
H881 H 0.73385 0.67829 0.84619 0.0
H882 H 0.77495 0.66463 0.86327 0.0
H883 H 0.77567 0.65491 0.94783 0.0
H884 H 0.91052 0.65375 0.99497 0.0
H885 H 0.8677 0.66599 0.97997 0.0
C886 C 0.39246 0.73715 0.159 0.0
C887 C 0.3883 0.73534 0.18615 0.0
C888 C 0.40502 0.76343 0.1471 0.0
C889 C 0.45043 0.83793 0.15631 0.0
H890 H 0.40542 0.85145 0.09912 0.0
C891 C 0.48084 0.94729 0.10417 0.0
C892 C 0.47645 0.94685 0.07726 0.0
C893 C 0.47067 0.92219 0.11861 0.0
C894 C 0.41861 0.848 0.11476 0.0
H895 H 0.3959 0.75981 0.22214 0.0
H896 H 0.41859 0.80595 0.20121 0.0
H897 H 0.38839 0.80656 0.12203 0.0
H898 H 0.45846 0.91942 0.0444 0.0
H899 H 0.44164 0.87586 0.06919 0.0
H900 H 0.4811 0.87915 0.14862 0.0
C901 C 0.41174 0.78683 0.18923 0.0
C902 C 0.40871 0.82222 0.12799 0.0
C903 C 0.39885 0.76041 0.20121 0.0
C904 C 0.46193 0.92068 0.06513 0.0
C905 C 0.45208 0.89562 0.07946 0.0
C906 C 0.46059 0.86371 0.14282 0.0
C907 C 0.41414 0.78868 0.16198 0.0
C908 C 0.4246 0.81673 0.14876 0.0
C909 C 0.45609 0.89595 0.10647 0.0
C910 C 0.44495 0.86901 0.12166 0.0
H911 H 0.38528 0.71822 0.14681 0.0
H912 H 0.40718 0.76405 0.1261 0.0
H913 H 0.46319 0.83427 0.17219 0.0
H914 H 0.49189 0.96708 0.11416 0.0
H915 H 0.4739 0.92347 0.13937 0.0
C916 C 0.08755 0.26784 0.69052 0.0
C917 C 0.11834 0.27997 0.6873 0.0
C918 C 0.07371 0.23953 0.68295 0.0
C919 C 0.08993 0.17224 0.66301 0.0
H920 H 0.0173 0.15688 0.6251 0.0
C921 C 0.05487 0.08826 0.58188 0.0
C922 C 0.02565 0.07002 0.58224 0.0
C923 C 0.06376 0.1104 0.60007 0.0
C924 C 0.03729 0.16073 0.63606 0.0
H925 H 0.15882 0.27133 0.67476 0.0
H926 H 0.13479 0.22283 0.66052 0.0
H927 H 0.03742 0.20284 0.6471 0.0
H928 H 0.98286 0.06027 0.60199 0.0
H929 H 0.99831 0.09995 0.63348 0.0
H930 H 0.09068 0.13074 0.65033 0.0
C931 C 0.12121 0.23481 0.66928 0.0
C932 C 0.04883 0.18703 0.64873 0.0
C933 C 0.135 0.26291 0.67703 0.0
C934 C 0.00556 0.07398 0.60144 0.0
C935 C 0.01432 0.09664 0.61932 0.0
C936 C 0.07864 0.14618 0.65 0.0
C937 C 0.09035 0.22276 0.67192 0.0
C938 C 0.07577 0.19343 0.66175 0.0
C939 C 0.04347 0.11511 0.61864 0.0
C940 C 0.05262 0.14049 0.6359 0.0
H941 H 0.07403 0.2804 0.6983 0.0
H942 H 0.04996 0.23088 0.68556 0.0
H943 H 0.11027 0.17607 0.67342 0.0
H944 H 0.07082 0.08561 0.56733 0.0
H945 H 0.08628 0.12452 0.599 0.0
C946 C 0.73616 0.27839 0.38071 0.0
C947 C 0.76612 0.29442 0.382 0.0
C948 C 0.71445 0.28785 0.39337 0.0
C949 C 0.70199 0.33966 0.44266 0.0
H950 H 0.63059 0.32928 0.40396 0.0
C951 C 0.61461 0.39763 0.46743 0.0
C952 C 0.58465 0.38148 0.46543 0.0
C953 C 0.63703 0.38605 0.45963 0.0
C954 C 0.65022 0.33204 0.41517 0.0
H955 H 0.79709 0.33239 0.39817 0.0
H956 H 0.75902 0.3495 0.41991 0.0
H957 H 0.6693 0.3111 0.38609 0.0
H958 H 0.55492 0.33999 0.45478 0.0
H959 H 0.59401 0.31999 0.44084 0.0
H960 H 0.68288 0.36136 0.47144 0.0
C961 C 0.75229 0.32933 0.40946 0.0
C962 C 0.67244 0.32155 0.40497 0.0
C963 C 0.77411 0.31963 0.39698 0.0
C964 C 0.57771 0.35323 0.4561 0.0
C965 C 0.6001 0.34173 0.44816 0.0
C966 C 0.67976 0.35039 0.4528 0.0
C967 C 0.72213 0.31381 0.40736 0.0
C968 C 0.69857 0.32507 0.4186 0.0
C969 C 0.62999 0.35814 0.44951 0.0
C970 C 0.6536 0.34657 0.43918 0.0
H971 H 0.72949 0.25861 0.36962 0.0
H972 H 0.69157 0.27492 0.39191 0.0
H973 H 0.72166 0.34252 0.45382 0.0
H974 H 0.62079 0.41958 0.4742 0.0
H975 H 0.65985 0.3993 0.46065 0.0
loop_
_geom_bond_atom_site_label_1
_geom_bond_atom_site_label_2
_geom_bond_distance
_geom_bond_site_symmetry_2
_ccdc_geom_bond_type
H0 C5 0.930 . S
H1 C8 0.930 . S
H2 C10 0.930 . S
H3 C4 1.016 . S
C4 H3 1.016 . S
C4 N11 1.286 . S
C5 H0 0.930 . S
C5 C6 1.397 . S
C5 C7 1.361 . S
C6 C5 1.397 . S
C6 C10 1.390 . S
C7 C5 1.361 . S
C7 C8 1.393 . S
C7 N11 1.413 . S
C8 H1 0.930 . S
C8 C7 1.393 . S
C8 C9 1.399 . S
C9 C8 1.399 . S
C9 C10 1.381 . S
C10 H2 0.930 . S
C10 C6 1.390 . S
C10 C9 1.381 . S
N11 C4 1.286 . S
N11 C7 1.413 . S
H12 C17 0.930 . S
H13 C20 0.930 . S
H14 C22 0.930 . S
H15 C16 1.016 . S
C16 H15 1.016 . S
C16 N23 1.286 . S
C17 H12 0.930 . S
C17 C18 1.397 . S
C17 C19 1.361 . S
C18 C17 1.397 . S
C18 C22 1.390 . S
C19 C17 1.361 . S
C19 C20 1.393 . S
C19 N23 1.413 . S
C20 H13 0.930 . S
C20 C19 1.393 . S
C20 C21 1.399 . S
C21 C20 1.399 . S
C21 C22 1.381 . S
C22 H14 0.930 . S
C22 C18 1.390 . S
C22 C21 1.381 . S
N23 C16 1.286 . S
N23 C19 1.413 . S
H24 C29 0.930 . S
H25 C32 0.930 . S
H26 C34 0.930 . S
H27 C28 1.016 . S
C28 H27 1.016 . S
C28 N35 1.286 . S
C29 H24 0.930 . S
C29 C30 1.397 . S
C29 C31 1.361 . S
C30 C29 1.397 . S
C30 C34 1.390 . S
C31 C29 1.361 . S
C31 C32 1.393 . S
C31 N35 1.413 . S
C32 H25 0.930 . S
C32 C31 1.393 . S
C32 C33 1.399 . S
C33 C32 1.399 . S
C33 C34 1.381 . S
C34 H26 0.930 . S
C34 C30 1.390 . S
C34 C33 1.381 . S
N35 C28 1.286 . S
N35 C31 1.413 . S
H36 C41 0.930 . S
H37 C44 0.930 . S
H38 C46 0.930 . S
H39 C40 1.016 . S
C40 H39 1.016 . S
C40 N47 1.286 . S
C41 H36 0.930 . S
C41 C42 1.397 . S
C41 C43 1.361 . S
C42 C41 1.397 . S
C42 C46 1.390 . S
C43 C41 1.361 . S
C43 C44 1.393 . S
C43 N47 1.413 . S
C44 H37 0.930 . S
C44 C43 1.393 . S
C44 C45 1.399 . S
C45 C44 1.399 . S
C45 C46 1.381 . S
C46 H38 0.930 . S
C46 C42 1.390 . S
C46 C45 1.381 . S
N47 C40 1.286 . S
N47 C43 1.413 . S
H48 C53 0.930 . S
H49 C56 0.930 . S
H50 C58 0.930 . S
H51 C52 1.016 . S
C52 H51 1.016 . S
C52 N59 1.286 . S
C53 H48 0.930 . S
C53 C54 1.397 . S
C53 C55 1.361 . S
C54 C53 1.397 . S
C54 C58 1.390 . S
C55 C53 1.361 . S
C55 C56 1.393 . S
C55 N59 1.413 . S
C56 H49 0.930 . S
C56 C55 1.393 . S
C56 C57 1.399 . S
C57 C56 1.399 . S
C57 C58 1.381 . S
C58 H50 0.930 . S
C58 C54 1.390 . S
C58 C57 1.381 . S
N59 C52 1.286 . S
N59 C55 1.413 . S
H60 C65 0.930 . S
H61 C68 0.930 . S
H62 C70 0.930 . S
H63 C64 1.016 . S
C64 H63 1.016 . S
C64 N71 1.286 . S
C65 H60 0.930 . S
C65 C66 1.397 . S
C65 C67 1.361 . S
C66 C65 1.397 . S
C66 C70 1.390 . S
C67 C65 1.361 . S
C67 C68 1.393 . S
C67 N71 1.413 . S
C68 H61 0.930 . S
C68 C67 1.393 . S
C68 C69 1.399 . S
C69 C68 1.399 . S
C69 C70 1.381 . S
C70 H62 0.930 . S
C70 C66 1.390 . S
C70 C69 1.381 . S
N71 C64 1.286 . S
N71 C67 1.413 . S
H72 C77 0.930 . S
H73 C80 0.930 . S
H74 C82 0.930 . S
H75 C76 1.016 . S
C76 H75 1.016 . S
C76 N83 1.286 . S
C77 H72 0.930 . S
C77 C78 1.397 . S
C77 C79 1.361 . S
C78 C77 1.397 . S
C78 C82 1.390 . S
C79 C77 1.361 . S
C79 C80 1.393 . S
C79 N83 1.413 . S
C80 H73 0.930 . S
C80 C79 1.393 . S
C80 C81 1.399 . S
C81 C80 1.399 . S
C81 C82 1.381 . S
C82 H74 0.930 . S
C82 C78 1.390 . S
C82 C81 1.381 . S
N83 C76 1.286 . S
N83 C79 1.413 . S
H84 C89 0.930 . S
H85 C92 0.930 . S
H86 C94 0.930 . S
H87 C88 1.016 . S
C88 H87 1.016 . S
C88 N95 1.286 . S
C89 H84 0.930 . S
C89 C90 1.397 . S
C89 C91 1.361 . S
C90 C89 1.397 . S
C90 C94 1.390 . S
C91 C89 1.361 . S
C91 C92 1.393 . S
C91 N95 1.413 . S
C92 H85 0.930 . S
C92 C91 1.393 . S
C92 C93 1.399 . S
C93 C92 1.399 . S
C93 C94 1.381 . S
C94 H86 0.930 . S
C94 C90 1.390 . S
C94 C93 1.381 . S
N95 C88 1.286 . S
N95 C91 1.413 . S
Dy96 O99 2.307 1_545 S
Dy96 O101 2.395 . S
Dy96 O102 2.379 . S
Dy96 O104 2.339 1_545 S
Dy96 O106 2.265 1_455 S
Dy96 O110 2.275 . S
Dy96 C118 2.738 . S
Dy97 O100 2.298 1_655 S
Dy97 O103 2.275 . S
Dy97 O105 2.307 1_565 S
Dy97 O107 2.395 . S
Dy97 O108 2.379 . S
Dy97 O111 2.339 1_565 S
Dy97 C127 2.738 . S
C98 O110 1.254 . S
C98 O111 1.257 1_455 S
O99 Dy96 2.307 1_565 S
O99 C109 1.266 . S
O100 Dy97 2.298 1_455 S
O100 C109 1.236 . S
O101 Dy96 2.395 . S
O101 C118 1.255 . S
O102 Dy96 2.379 . S
O102 C118 1.249 . S
O103 Dy97 2.275 . S
O103 C119 1.254 . S
O104 Dy96 2.339 1_565 S
O104 C119 1.257 1_455 S
O105 Dy97 2.307 1_545 S
O105 C120 1.266 . S
O106 Dy96 2.265 1_655 S
O106 C120 1.267 . S
O107 Dy97 2.395 . S
O107 C127 1.255 . S
O108 Dy97 2.379 . S
O108 C127 1.249 . S
C109 O99 1.266 . S
C109 O100 1.236 . S
O110 Dy96 2.275 . S
O110 C98 1.254 . S
O111 Dy97 2.339 1_545 S
O111 C98 1.257 1_655 S
C112 C115 1.344 . S
C112 C116 1.328 . S
C112 C118 1.516 . S
C113 C114 1.304 . S
C113 C117 1.323 . S
C114 C113 1.304 . S
C114 C115 1.371 . S
C114 H128 0.930 . S
C115 C112 1.344 . S
C115 C114 1.371 . S
C115 H129 0.931 . S
C116 C112 1.328 . S
C116 C117 1.433 . S
C116 H130 0.931 . S
C117 C113 1.323 . S
C117 C116 1.433 . S
C117 H131 0.933 . S
C118 Dy96 2.738 . S
C118 O101 1.255 . S
C118 O102 1.249 . S
C118 C112 1.516 . S
C119 O103 1.254 . S
C119 O104 1.257 1_655 S
C120 O105 1.266 . S
C120 O106 1.267 . S
C121 C124 1.344 . S
C121 C125 1.328 . S
C121 C127 1.516 . S
C122 C123 1.304 . S
C122 C126 1.323 . S
C123 C122 1.304 . S
C123 C124 1.371 . S
C123 H132 0.930 . S
C124 C121 1.344 . S
C124 C123 1.371 . S
C124 H133 0.931 . S
C125 C121 1.328 . S
C125 C126 1.433 . S
C125 H134 0.931 . S
C126 C122 1.323 . S
C126 C125 1.433 . S
C126 H135 0.933 . S
C127 Dy97 2.738 . S
C127 O107 1.255 . S
C127 O108 1.249 . S
C127 C121 1.516 . S
H128 C114 0.930 . S
H129 C115 0.931 . S
H130 C116 0.931 . S
H131 C117 0.933 . S
H132 C123 0.930 . S
H133 C124 0.931 . S
H134 C125 0.931 . S
H135 C126 0.933 . S
Dy136 O139 2.307 1_556 S
Dy136 O141 2.395 1_545 S
Dy136 O142 2.379 1_545 S
Dy136 O144 2.339 . S
Dy136 O146 2.298 1_545 S
Dy136 O150 2.275 1_546 S
Dy136 C158 2.738 1_545 S
Dy137 O140 2.298 . S
Dy137 O143 2.273 1_554 S
Dy137 O145 2.302 1_544 S
Dy137 O147 2.395 . S
Dy137 O148 2.379 . S
Dy137 O151 2.339 1_545 S
Dy137 C167 2.738 . S
C138 O150 1.254 . S
C138 O151 1.257 . S
O139 Dy136 2.307 1_554 S
O139 C149 1.266 . S
O140 Dy137 2.298 . S
O140 C149 1.236 . S
O141 Dy136 2.395 1_565 S
O141 C158 1.255 . S
O142 Dy136 2.379 1_565 S
O142 C158 1.249 . S
O143 Dy137 2.273 1_556 S
O143 C159 1.256 . S
O144 Dy136 2.339 . S
O144 C159 1.257 . S
O145 Dy137 2.302 1_566 S
O145 C160 1.273 . S
O146 Dy136 2.298 1_565 S
O146 C160 1.236 . S
O147 Dy137 2.395 . S
O147 C167 1.255 . S
O148 Dy137 2.379 . S
O148 C167 1.249 . S
C149 O139 1.266 . S
C149 O140 1.236 . S
O150 Dy136 2.275 1_564 S
O150 C138 1.254 . S
O151 Dy137 2.339 1_565 S
O151 C138 1.257 . S
C152 C155 1.344 . S
C152 C156 1.328 . S
C152 C158 1.516 . S
C153 C154 1.304 . S
C153 C157 1.323 . S
C154 C153 1.304 . S
C154 C155 1.371 . S
C154 H168 0.930 . S
C155 C152 1.344 . S
C155 C154 1.371 . S
C155 H169 0.931 . S
C156 C152 1.328 . S
C156 C157 1.433 . S
C156 H170 0.931 . S
C157 C153 1.323 . S
C157 C156 1.433 . S
C157 H171 0.933 . S
C158 Dy136 2.738 1_565 S
C158 O141 1.255 . S
C158 O142 1.249 . S
C158 C152 1.516 . S
C159 O143 1.256 . S
C159 O144 1.257 . S
C160 O145 1.273 . S
C160 O146 1.236 . S
C161 C164 1.344 . S
C161 C165 1.328 . S
C161 C167 1.516 . S
C162 C163 1.304 . S
C162 C166 1.323 . S
C163 C162 1.304 . S
C163 C164 1.371 . S
C163 H172 0.930 . S
C164 C161 1.344 . S
C164 C163 1.371 . S
C164 H173 0.931 . S
C165 C161 1.328 . S
C165 C166 1.433 . S
C165 H174 0.931 . S
C166 C162 1.323 . S
C166 C165 1.433 . S
C166 H175 0.933 . S
C167 Dy137 2.738 . S
C167 O147 1.255 . S
C167 O148 1.249 . S
C167 C161 1.516 . S
H168 C154 0.930 . S
H169 C155 0.931 . S
H170 C156 0.931 . S
H171 C157 0.933 . S
H172 C163 0.930 . S
H173 C164 0.931 . S
H174 C165 0.931 . S
H175 C166 0.933 . S
Dy176 O179 2.307 . S
Dy176 O181 2.395 . S
Dy176 O182 2.379 . S
Dy176 O184 2.339 . S
Dy176 O186 2.298 . S
Dy176 O190 2.275 . S
Dy176 C198 2.738 . S
Dy177 O180 2.298 . S
Dy177 O183 2.275 . S
Dy177 O185 2.307 . S
Dy177 O187 2.395 . S
Dy177 O188 2.379 . S
Dy177 O191 2.339 . S
Dy177 C207 2.738 . S
C178 O190 1.254 . S
C178 O191 1.257 . S
O179 Dy176 2.307 . S
O179 C189 1.266 . S
O180 Dy177 2.298 . S
O180 C189 1.236 . S
O181 Dy176 2.395 . S
O181 C198 1.255 . S
O182 Dy176 2.379 . S
O182 C198 1.249 . S
O183 Dy177 2.275 . S
O183 C199 1.254 . S
O184 Dy176 2.339 . S
O184 C199 1.257 . S
O185 Dy177 2.307 . S
O185 C200 1.266 . S
O186 Dy176 2.298 . S
O186 C200 1.236 . S
O187 Dy177 2.395 . S
O187 C207 1.255 . S
O188 Dy177 2.379 . S
O188 C207 1.249 . S
C189 O179 1.266 . S
C189 O180 1.236 . S
O190 Dy176 2.275 . S
O190 C178 1.254 . S
O191 Dy177 2.339 . S
O191 C178 1.257 . S
C192 C195 1.344 . S
C192 C196 1.328 . S
C192 C198 1.516 . S
C193 C194 1.304 . S
C193 C197 1.323 . S
C194 C193 1.304 . S
C194 C195 1.371 . S
C194 H208 0.930 . S
C195 C192 1.344 . S
C195 C194 1.371 . S
C195 H209 0.931 . S
C196 C192 1.328 . S
C196 C197 1.433 . S
C196 H210 0.931 . S
C197 C193 1.323 . S
C197 C196 1.433 . S
C197 H211 0.933 . S
C198 Dy176 2.738 . S
C198 O181 1.255 . S
C198 O182 1.249 . S
C198 C192 1.516 . S
C199 O183 1.254 . S
C199 O184 1.257 . S
C200 O185 1.266 . S
C200 O186 1.236 . S
C201 C204 1.344 . S
C201 C205 1.328 . S
C201 C207 1.516 . S
C202 C203 1.304 . S
C202 C206 1.323 . S
C203 C202 1.304 . S
C203 C204 1.371 . S
C203 H212 0.930 . S
C204 C201 1.344 . S
C204 C203 1.371 . S
C204 H213 0.931 . S
C205 C201 1.328 . S
C205 C206 1.433 . S
C205 H214 0.931 . S
C206 C202 1.323 . S
C206 C205 1.433 . S
C206 H215 0.933 . S
C207 Dy177 2.738 . S
C207 O187 1.255 . S
C207 O188 1.249 . S
C207 C201 1.516 . S
H208 C194 0.930 . S
H209 C195 0.931 . S
H210 C196 0.931 . S
H211 C197 0.933 . S
H212 C203 0.930 . S
H213 C204 0.931 . S
H214 C205 0.931 . S
H215 C206 0.933 . S
Dy216 O219 2.307 1_556 S
Dy216 O221 2.395 1_455 S
Dy216 O222 2.379 1_455 S
Dy216 O224 2.339 . S
Dy216 O226 2.298 1_455 S
Dy216 O230 2.275 1_456 S
Dy216 C238 2.738 1_455 S
Dy217 O220 2.298 . S
Dy217 O223 2.275 1_554 S
Dy217 O225 2.307 1_455 S
Dy217 O227 2.395 . S
Dy217 O228 2.379 . S
Dy217 O231 2.339 1_455 S
Dy217 C247 2.738 . S
C218 O230 1.254 . S
C218 O231 1.257 . S
O219 Dy216 2.307 1_554 S
O219 C229 1.266 . S
O220 Dy217 2.298 . S
O220 C229 1.236 . S
O221 Dy216 2.395 1_655 S
O221 C238 1.255 . S
O222 Dy216 2.379 1_655 S
O222 C238 1.249 . S
O223 Dy217 2.275 1_556 S
O223 C239 1.254 . S
O224 Dy216 2.339 . S
O224 C239 1.257 . S
O225 Dy217 2.307 1_655 S
O225 C240 1.266 1_554 S
O226 Dy216 2.298 1_655 S
O226 C240 1.236 . S
O227 Dy217 2.395 . S
O227 C247 1.255 . S
O228 Dy217 2.379 . S
O228 C247 1.249 . S
C229 O219 1.266 . S
C229 O220 1.236 . S
O230 Dy216 2.275 1_654 S
O230 C218 1.254 . S
O231 Dy217 2.339 1_655 S
O231 C218 1.257 . S
C232 C235 1.344 . S
C232 C236 1.328 . S
C232 C238 1.516 . S
C233 C234 1.304 . S
C233 C237 1.323 . S
C234 C233 1.304 . S
C234 C235 1.371 . S
C234 H248 0.930 . S
C235 C232 1.344 . S
C235 C234 1.371 . S
C235 H249 0.931 . S
C236 C232 1.328 . S
C236 C237 1.433 . S
C236 H250 0.931 . S
C237 C233 1.323 . S
C237 C236 1.433 . S
C237 H251 0.933 . S
C238 Dy216 2.738 1_655 S
C238 O221 1.255 . S
C238 O222 1.249 . S
C238 C232 1.516 . S
C239 O223 1.254 . S
C239 O224 1.257 . S
C240 O225 1.266 1_556 S
C240 O226 1.236 . S
C241 C244 1.344 . S
C241 C245 1.328 . S
C241 C247 1.516 . S
C242 C243 1.304 . S
C242 C246 1.323 . S
C243 C242 1.304 . S
C243 C244 1.371 . S
C243 H252 0.930 . S
C244 C241 1.344 . S
C244 C243 1.371 . S
C244 H253 0.931 . S
C245 C241 1.328 . S
C245 C246 1.433 . S
C245 H254 0.931 . S
C246 C242 1.323 . S
C246 C245 1.433 . S
C246 H255 0.933 . S
C247 Dy217 2.738 . S
C247 O227 1.255 . S
C247 O228 1.249 . S
C247 C241 1.516 . S
H248 C234 0.930 . S
H249 C235 0.931 . S
H250 C236 0.931 . S
H251 C237 0.933 . S
H252 C243 0.930 . S
H253 C244 0.931 . S
H254 C245 0.931 . S
H255 C246 0.933 . S
C256 C257 1.349 . S
C256 C258 1.327 . S
C256 H281 0.950 . S
C257 C256 1.349 . S
C257 C273 1.349 . S
C258 C256 1.327 . S
C258 C277 1.429 . S
C258 H282 0.950 . S
C259 C276 1.574 . S
C259 C278 1.368 . S
C259 H283 0.949 . S
H260 C264 0.949 . S
C261 C262 1.349 . S
C261 C263 1.327 . S
C261 H284 0.950 . S
C262 C261 1.349 . S
C262 C274 1.349 . S
C263 C261 1.327 . S
C263 C279 1.429 . S
C263 H285 0.950 . S
C264 H260 0.949 . S
C264 C272 1.574 . S
C264 C280 1.368 . S
H265 C273 0.950 . S
H266 C271 0.950 . S
H267 C272 0.949 . S
H268 C274 0.950 . S
H269 C275 0.950 . S
H270 C276 0.949 . S
C271 H266 0.950 . S
C271 C273 1.327 . S
C271 C277 1.429 . S
C272 C264 1.574 . S
C272 H267 0.949 . S
C272 C278 1.368 . S
C273 C257 1.349 . S
C273 H265 0.950 . S
C273 C271 1.327 . S
C274 C262 1.349 . S
C274 H268 0.950 . S
C274 C275 1.327 . S
C275 H269 0.950 . S
C275 C274 1.327 . S
C275 C279 1.429 . S
C276 C259 1.574 . S
C276 H270 0.949 . S
C276 C280 1.368 . S
C277 C258 1.429 . S
C277 C271 1.429 . S
C277 C278 1.523 . S
C278 C259 1.368 . S
C278 C272 1.368 . S
C278 C277 1.523 . S
C279 C263 1.429 . S
C279 C275 1.429 . S
C279 C280 1.523 . S
C280 C264 1.368 . S
C280 C276 1.368 . S
C280 C279 1.523 . S
H281 C256 0.950 . S
H282 C258 0.950 . S
H283 C259 0.949 . S
H284 C261 0.950 . S
H285 C263 0.950 . S
C286 C287 1.349 . S
C286 C288 1.327 . S
C286 H311 0.950 . S
C287 C286 1.349 . S
C287 C303 1.349 . S
C288 C286 1.327 . S
C288 C307 1.429 . S
C288 H312 0.950 . S
C289 C306 1.574 . S
C289 C308 1.368 . S
C289 H313 0.949 . S
H290 C294 0.949 . S
C291 C292 1.349 . S
C291 C293 1.327 . S
C291 H314 0.950 . S
C292 C291 1.349 . S
C292 C304 1.349 . S
C293 C291 1.327 . S
C293 C309 1.429 . S
C293 H315 0.950 . S
C294 H290 0.949 . S
C294 C302 1.574 . S
C294 C310 1.368 . S
H295 C303 0.950 . S
H296 C301 0.950 . S
H297 C302 0.949 . S
H298 C304 0.950 . S
H299 C305 0.950 . S
H300 C306 0.949 . S
C301 H296 0.950 . S
C301 C303 1.327 . S
C301 C307 1.429 . S
C302 C294 1.574 . S
C302 H297 0.949 . S
C302 C308 1.368 . S
C303 C287 1.349 . S
C303 H295 0.950 . S
C303 C301 1.327 . S
C304 C292 1.349 . S
C304 H298 0.950 . S
C304 C305 1.327 . S
C305 H299 0.950 . S
C305 C304 1.327 . S
C305 C309 1.429 . S
C306 C289 1.574 . S
C306 H300 0.949 . S
C306 C310 1.368 . S
C307 C288 1.429 . S
C307 C301 1.429 . S
C307 C308 1.523 . S
C308 C289 1.368 . S
C308 C302 1.368 . S
C308 C307 1.523 . S
C309 C293 1.429 . S
C309 C305 1.429 . S
C309 C310 1.523 . S
C310 C294 1.368 . S
C310 C306 1.368 . S
C310 C309 1.523 . S
H311 C286 0.950 . S
H312 C288 0.950 . S
H313 C289 0.949 . S
H314 C291 0.950 . S
H315 C293 0.950 . S
C316 C317 1.349 . S
C316 C318 1.327 . S
C316 H341 0.950 . S
C317 C316 1.349 . S
C317 C333 1.349 . S
C318 C316 1.327 . S
C318 C337 1.429 . S
C318 H342 0.950 . S
C319 C336 1.574 . S
C319 C338 1.368 . S
C319 H343 0.949 . S
H320 C324 0.949 . S
C321 C322 1.349 . S
C321 C323 1.327 . S
C321 H344 0.950 . S
C322 C321 1.349 . S
C322 C334 1.349 . S
C323 C321 1.327 . S
C323 C339 1.429 . S
C323 H345 0.950 . S
C324 H320 0.949 . S
C324 C332 1.574 . S
C324 C340 1.368 . S
H325 C333 0.950 . S
H326 C331 0.950 . S
H327 C332 0.949 . S
H328 C334 0.950 . S
H329 C335 0.950 . S
H330 C336 0.949 . S
C331 H326 0.950 . S
C331 C333 1.327 . S
C331 C337 1.429 . S
C332 C324 1.574 . S
C332 H327 0.949 . S
C332 C338 1.368 . S
C333 C317 1.349 . S
C333 H325 0.950 . S
C333 C331 1.327 . S
C334 C322 1.349 . S
C334 H328 0.950 . S
C334 C335 1.327 . S
C335 H329 0.950 . S
C335 C334 1.327 . S
C335 C339 1.429 . S
C336 C319 1.574 . S
C336 H330 0.949 . S
C336 C340 1.368 . S
C337 C318 1.429 . S
C337 C331 1.429 . S
C337 C338 1.523 . S
C338 C319 1.368 . S
C338 C332 1.368 . S
C338 C337 1.523 . S
C339 C323 1.429 . S
C339 C335 1.429 . S
C339 C340 1.523 . S
C340 C324 1.368 . S
C340 C336 1.368 . S
C340 C339 1.523 . S
H341 C316 0.950 . S
H342 C318 0.950 . S
H343 C319 0.949 . S
H344 C321 0.950 . S
H345 C323 0.950 . S
C346 C347 1.349 . S
C346 C348 1.327 . S
C346 H371 0.950 . S
C347 C346 1.349 . S
C347 C363 1.349 . S
C348 C346 1.327 . S
C348 C367 1.429 . S
C348 H372 0.950 . S
C349 C366 1.574 . S
C349 C368 1.368 . S
C349 H373 0.949 . S
H350 C354 0.949 . S
C351 C352 1.349 . S
C351 C353 1.327 . S
C351 H374 0.950 . S
C352 C351 1.349 . S
C352 C364 1.349 . S
C353 C351 1.327 . S
C353 C369 1.429 . S
C353 H375 0.950 . S
C354 H350 0.949 . S
C354 C362 1.574 . S
C354 C370 1.368 . S
H355 C363 0.950 . S
H356 C361 0.950 . S
H357 C362 0.949 . S
H358 C364 0.950 . S
H359 C365 0.950 . S
H360 C366 0.949 . S
C361 H356 0.950 . S
C361 C363 1.327 . S
C361 C367 1.429 . S
C362 C354 1.574 . S
C362 H357 0.949 . S
C362 C368 1.368 . S
C363 C347 1.349 . S
C363 H355 0.950 . S
C363 C361 1.327 . S
C364 C352 1.349 . S
C364 H358 0.950 . S
C364 C365 1.327 . S
C365 H359 0.950 . S
C365 C364 1.327 . S
C365 C369 1.429 . S
C366 C349 1.574 . S
C366 H360 0.949 . S
C366 C370 1.368 . S
C367 C348 1.429 . S
C367 C361 1.429 . S
C367 C368 1.523 . S
C368 C349 1.368 . S
C368 C362 1.368 . S
C368 C367 1.523 . S
C369 C353 1.429 . S
C369 C365 1.429 . S
C369 C370 1.523 . S
C370 C354 1.368 . S
C370 C366 1.368 . S
C370 C369 1.523 . S
H371 C346 0.950 . S
H372 C348 0.950 . S
H373 C349 0.949 . S
H374 C351 0.950 . S
H375 C353 0.950 . S
C376 C377 1.349 . S
C376 C378 1.327 . S
C376 H401 0.950 . S
C377 C376 1.349 . S
C377 C393 1.349 . S
C378 C376 1.327 . S
C378 C397 1.429 . S
C378 H402 0.950 . S
C379 C396 1.574 . S
C379 C398 1.368 . S
C379 H403 0.949 . S
H380 C384 0.949 . S
C381 C382 1.349 . S
C381 C383 1.327 . S
C381 H404 0.950 . S
C382 C381 1.349 . S
C382 C394 1.349 . S
C383 C381 1.327 . S
C383 C399 1.429 . S
C383 H405 0.950 . S
C384 H380 0.949 . S
C384 C392 1.574 . S
C384 C400 1.368 . S
H385 C393 0.950 . S
H386 C391 0.950 . S
H387 C392 0.949 . S
H388 C394 0.950 . S
H389 C395 0.950 . S
H390 C396 0.949 . S
C391 H386 0.950 . S
C391 C393 1.327 . S
C391 C397 1.429 . S
C392 C384 1.574 . S
C392 H387 0.949 . S
C392 C398 1.368 . S
C393 C377 1.349 . S
C393 H385 0.950 . S
C393 C391 1.327 . S
C394 C382 1.349 . S
C394 H388 0.950 . S
C394 C395 1.327 . S
C395 H389 0.950 . S
C395 C394 1.327 . S
C395 C399 1.429 . S
C396 C379 1.574 . S
C396 H390 0.949 . S
C396 C400 1.368 . S
C397 C378 1.429 . S
C397 C391 1.429 . S
C397 C398 1.523 . S
C398 C379 1.368 . S
C398 C392 1.368 . S
C398 C397 1.523 . S
C399 C383 1.429 . S
C399 C395 1.429 . S
C399 C400 1.523 . S
C400 C384 1.368 . S
C400 C396 1.368 . S
C400 C399 1.523 . S
H401 C376 0.950 . S
H402 C378 0.950 . S
H403 C379 0.949 . S
H404 C381 0.950 . S
H405 C383 0.950 . S
C406 C407 1.349 . S
C406 C408 1.327 . S
C406 H431 0.950 . S
C407 C406 1.349 . S
C407 C423 1.349 . S
C408 C406 1.327 . S
C408 C427 1.429 . S
C408 H432 0.950 . S
C409 C426 1.574 . S
C409 C428 1.368 . S
C409 H433 0.949 . S
H410 C414 0.949 . S
C411 C412 1.349 . S
C411 C413 1.327 . S
C411 H434 0.950 . S
C412 C411 1.349 . S
C412 C424 1.349 . S
C413 C411 1.327 . S
C413 C429 1.429 . S
C413 H435 0.950 . S
C414 H410 0.949 . S
C414 C422 1.574 . S
C414 C430 1.368 . S
H415 C423 0.950 . S
H416 C421 0.950 . S
H417 C422 0.949 . S
H418 C424 0.950 . S
H419 C425 0.950 . S
H420 C426 0.949 . S
C421 H416 0.950 . S
C421 C423 1.327 . S
C421 C427 1.429 . S
C422 C414 1.574 . S
C422 H417 0.949 . S
C422 C428 1.368 . S
C423 C407 1.349 . S
C423 H415 0.950 . S
C423 C421 1.327 . S
C424 C412 1.349 . S
C424 H418 0.950 . S
C424 C425 1.327 . S
C425 H419 0.950 . S
C425 C424 1.327 . S
C425 C429 1.429 . S
C426 C409 1.574 . S
C426 H420 0.949 . S
C426 C430 1.368 . S
C427 C408 1.429 . S
C427 C421 1.429 . S
C427 C428 1.523 . S
C428 C409 1.368 . S
C428 C422 1.368 . S
C428 C427 1.523 . S
C429 C413 1.429 . S
C429 C425 1.429 . S
C429 C430 1.523 . S
C430 C414 1.368 . S
C430 C426 1.368 . S
C430 C429 1.523 . S
H431 C406 0.950 . S
H432 C408 0.950 . S
H433 C409 0.949 . S
H434 C411 0.950 . S
H435 C413 0.950 . S
C436 C437 1.349 . S
C436 C438 1.327 . S
C436 H461 0.950 . S
C437 C436 1.349 . S
C437 C453 1.349 . S
C438 C436 1.327 . S
C438 C457 1.429 . S
C438 H462 0.950 . S
C439 C456 1.574 . S
C439 C458 1.368 . S
C439 H463 0.949 . S
H440 C444 0.949 . S
C441 C442 1.349 . S
C441 C443 1.327 . S
C441 H464 0.950 . S
C442 C441 1.349 . S
C442 C454 1.349 . S
C443 C441 1.327 . S
C443 C459 1.429 . S
C443 H465 0.950 . S
C444 H440 0.949 . S
C444 C452 1.574 . S
C444 C460 1.368 . S
H445 C453 0.950 . S
H446 C451 0.950 . S
H447 C452 0.949 . S
H448 C454 0.950 . S
H449 C455 0.950 . S
H450 C456 0.949 . S
C451 H446 0.950 . S
C451 C453 1.327 . S
C451 C457 1.429 . S
C452 C444 1.574 . S
C452 H447 0.949 . S
C452 C458 1.368 . S
C453 C437 1.349 . S
C453 H445 0.950 . S
C453 C451 1.327 . S
C454 C442 1.349 . S
C454 H448 0.950 . S
C454 C455 1.327 . S
C455 H449 0.950 . S
C455 C454 1.327 . S
C455 C459 1.429 . S
C456 C439 1.574 . S
C456 H450 0.949 . S
C456 C460 1.368 . S
C457 C438 1.429 . S
C457 C451 1.429 . S
C457 C458 1.523 . S
C458 C439 1.368 . S
C458 C452 1.368 . S
C458 C457 1.523 . S
C459 C443 1.429 . S
C459 C455 1.429 . S
C459 C460 1.523 . S
C460 C444 1.368 . S
C460 C456 1.368 . S
C460 C459 1.523 . S
H461 C436 0.950 . S
H462 C438 0.950 . S
H463 C439 0.949 . S
H464 C441 0.950 . S
H465 C443 0.950 . S
C466 C467 1.349 . S
C466 C468 1.327 . S
C466 H491 0.950 . S
C467 C466 1.349 . S
C467 C483 1.349 . S
C468 C466 1.327 . S
C468 C487 1.429 . S
C468 H492 0.950 . S
C469 C486 1.574 . S
C469 C488 1.368 . S
C469 H493 0.949 . S
H470 C474 0.949 . S
C471 C472 1.349 . S
C471 C473 1.327 . S
C471 H494 0.950 . S
C472 C471 1.349 . S
C472 C484 1.349 . S
C473 C471 1.327 . S
C473 C489 1.429 . S
C473 H495 0.950 . S
C474 H470 0.949 . S
C474 C482 1.574 . S
C474 C490 1.368 . S
H475 C483 0.950 . S
H476 C481 0.950 . S
H477 C482 0.949 . S
H478 C484 0.950 . S
H479 C485 0.950 . S
H480 C486 0.949 . S
C481 H476 0.950 . S
C481 C483 1.327 . S
C481 C487 1.429 . S
C482 C474 1.574 . S
C482 H477 0.949 . S
C482 C488 1.368 . S
C483 C467 1.349 . S
C483 H475 0.950 . S
C483 C481 1.327 . S
C484 C472 1.349 . S
C484 H478 0.950 . S
C484 C485 1.327 . S
C485 H479 0.950 . S
C485 C484 1.327 . S
C485 C489 1.429 . S
C486 C469 1.574 . S
C486 H480 0.949 . S
C486 C490 1.368 . S
C487 C468 1.429 . S
C487 C481 1.429 . S
C487 C488 1.523 . S
C488 C469 1.368 . S
C488 C482 1.368 . S
C488 C487 1.523 . S
C489 C473 1.429 . S
C489 C485 1.429 . S
C489 C490 1.523 . S
C490 C474 1.368 . S
C490 C486 1.368 . S
C490 C489 1.523 . S
H491 C466 0.950 . S
H492 C468 0.950 . S
H493 C469 0.949 . S
H494 C471 0.950 . S
H495 C473 0.950 . S
C496 C497 1.349 . S
C496 C498 1.327 . S
C496 H521 0.950 . S
C497 C496 1.349 . S
C497 C513 1.349 . S
C498 C496 1.327 . S
C498 C517 1.429 . S
C498 H522 0.950 . S
C499 C516 1.574 . S
C499 C518 1.368 . S
C499 H523 0.949 . S
H500 C504 0.949 . S
C501 C502 1.349 . S
C501 C503 1.327 . S
C501 H524 0.950 . S
C502 C501 1.349 . S
C502 C514 1.349 . S
C503 C501 1.327 . S
C503 C519 1.429 . S
C503 H525 0.950 . S
C504 H500 0.949 . S
C504 C512 1.574 . S
C504 C520 1.368 . S
H505 C513 0.950 . S
H506 C511 0.950 . S
H507 C512 0.949 . S
H508 C514 0.950 . S
H509 C515 0.950 . S
H510 C516 0.949 . S
C511 H506 0.950 . S
C511 C513 1.327 . S
C511 C517 1.429 . S
C512 C504 1.574 . S
C512 H507 0.949 . S
C512 C518 1.368 . S
C513 C497 1.349 . S
C513 H505 0.950 . S
C513 C511 1.327 . S
C514 C502 1.349 . S
C514 H508 0.950 . S
C514 C515 1.327 . S
C515 H509 0.950 . S
C515 C514 1.327 . S
C515 C519 1.429 . S
C516 C499 1.574 . S
C516 H510 0.949 . S
C516 C520 1.368 . S
C517 C498 1.429 . S
C517 C511 1.429 . S
C517 C518 1.523 . S
C518 C499 1.368 . S
C518 C512 1.368 . S
C518 C517 1.523 . S
C519 C503 1.429 . S
C519 C515 1.429 . S
C519 C520 1.523 . S
C520 C504 1.368 . S
C520 C516 1.368 . S
C520 C519 1.523 . S
H521 C496 0.950 . S
H522 C498 0.950 . S
H523 C499 0.949 . S
H524 C501 0.950 . S
H525 C503 0.950 . S
C526 C527 1.349 . S
C526 C528 1.327 . S
C526 H551 0.950 . S
C527 C526 1.349 . S
C527 C543 1.349 . S
C528 C526 1.327 . S
C528 C547 1.429 . S
C528 H552 0.950 . S
C529 C546 1.574 . S
C529 C548 1.368 . S
C529 H553 0.949 . S
H530 C534 0.949 . S
C531 C532 1.349 . S
C531 C533 1.327 . S
C531 H554 0.950 . S
C532 C531 1.349 . S
C532 C544 1.349 . S
C533 C531 1.327 . S
C533 C549 1.429 . S
C533 H555 0.950 . S
C534 H530 0.949 . S
C534 C542 1.574 . S
C534 C550 1.368 . S
H535 C543 0.950 . S
H536 C541 0.950 . S
H537 C542 0.949 . S
H538 C544 0.950 . S
H539 C545 0.950 . S
H540 C546 0.949 . S
C541 H536 0.950 . S
C541 C543 1.327 . S
C541 C547 1.429 . S
C542 C534 1.574 . S
C542 H537 0.949 . S
C542 C548 1.368 . S
C543 C527 1.349 . S
C543 H535 0.950 . S
C543 C541 1.327 . S
C544 C532 1.349 . S
C544 H538 0.950 . S
C544 C545 1.327 . S
C545 H539 0.950 . S
C545 C544 1.327 . S
C545 C549 1.429 . S
C546 C529 1.574 . S
C546 H540 0.949 . S
C546 C550 1.368 . S
C547 C528 1.429 . S
C547 C541 1.429 . S
C547 C548 1.523 . S
C548 C529 1.368 . S
C548 C542 1.368 . S
C548 C547 1.523 . S
C549 C533 1.429 . S
C549 C545 1.429 . S
C549 C550 1.523 . S
C550 C534 1.368 . S
C550 C546 1.368 . S
C550 C549 1.523 . S
H551 C526 0.950 . S
H552 C528 0.950 . S
H553 C529 0.949 . S
H554 C531 0.950 . S
H555 C533 0.950 . S
C556 C557 1.349 . S
C556 C558 1.327 . S
C556 H581 0.950 . S
C557 C556 1.349 . S
C557 C573 1.349 . S
C558 C556 1.327 . S
C558 C577 1.429 . S
C558 H582 0.950 . S
C559 C576 1.574 . S
C559 C578 1.368 . S
C559 H583 0.949 . S
H560 C564 0.949 . S
C561 C562 1.349 . S
C561 C563 1.327 . S
C561 H584 0.950 . S
C562 C561 1.349 . S
C562 C574 1.349 . S
C563 C561 1.327 . S
C563 C579 1.429 . S
C563 H585 0.950 . S
C564 H560 0.949 . S
C564 C572 1.574 . S
C564 C580 1.368 . S
H565 C573 0.950 . S
H566 C571 0.950 . S
H567 C572 0.949 . S
H568 C574 0.950 . S
H569 C575 0.950 . S
H570 C576 0.949 . S
C571 H566 0.950 . S
C571 C573 1.327 . S
C571 C577 1.429 . S
C572 C564 1.574 . S
C572 H567 0.949 . S
C572 C578 1.368 . S
C573 C557 1.349 . S
C573 H565 0.950 . S
C573 C571 1.327 . S
C574 C562 1.349 . S
C574 H568 0.950 . S
C574 C575 1.327 . S
C575 H569 0.950 . S
C575 C574 1.327 . S
C575 C579 1.429 . S
C576 C559 1.574 . S
C576 H570 0.949 . S
C576 C580 1.368 . S
C577 C558 1.429 . S
C577 C571 1.429 . S
C577 C578 1.523 . S
C578 C559 1.368 . S
C578 C572 1.368 . S
C578 C577 1.523 . S
C579 C563 1.429 . S
C579 C575 1.429 . S
C579 C580 1.523 . S
C580 C564 1.368 . S
C580 C576 1.368 . S
C580 C579 1.523 . S
H581 C556 0.950 . S
H582 C558 0.950 . S
H583 C559 0.949 . S
H584 C561 0.950 . S
H585 C563 0.950 . S
C586 C587 1.349 . S
C586 C588 1.327 . S
C586 H611 0.950 . S
C587 C586 1.349 . S
C587 C603 1.349 . S
C588 C586 1.327 . S
C588 C607 1.429 . S
C588 H612 0.950 . S
C589 C606 1.574 . S
C589 C608 1.368 . S
C589 H613 0.949 . S
H590 C594 0.949 . S
C591 C592 1.349 . S
C591 C593 1.327 . S
C591 H614 0.950 . S
C592 C591 1.349 . S
C592 C604 1.349 . S
C593 C591 1.327 . S
C593 C609 1.429 . S
C593 H615 0.950 . S
C594 H590 0.949 . S
C594 C602 1.574 . S
C594 C610 1.368 . S
H595 C603 0.950 . S
H596 C601 0.950 . S
H597 C602 0.949 . S
H598 C604 0.950 . S
H599 C605 0.950 . S
H600 C606 0.949 . S
C601 H596 0.950 . S
C601 C603 1.327 . S
C601 C607 1.429 . S
C602 C594 1.574 . S
C602 H597 0.949 . S
C602 C608 1.368 . S
C603 C587 1.349 . S
C603 H595 0.950 . S
C603 C601 1.327 . S
C604 C592 1.349 . S
C604 H598 0.950 . S
C604 C605 1.327 . S
C605 H599 0.950 . S
C605 C604 1.327 . S
C605 C609 1.429 . S
C606 C589 1.574 . S
C606 H600 0.949 . S
C606 C610 1.368 . S
C607 C588 1.429 . S
C607 C601 1.429 . S
C607 C608 1.523 . S
C608 C589 1.368 . S
C608 C602 1.368 . S
C608 C607 1.523 . S
C609 C593 1.429 . S
C609 C605 1.429 . S
C609 C610 1.523 . S
C610 C594 1.368 . S
C610 C606 1.368 . S
C610 C609 1.523 . S
H611 C586 0.950 . S
H612 C588 0.950 . S
H613 C589 0.949 . S
H614 C591 0.950 . S
H615 C593 0.950 . S
C616 C617 1.349 . S
C616 C618 1.327 . S
C616 H641 0.950 . S
C617 C616 1.349 . S
C617 C633 1.349 . S
C618 C616 1.327 . S
C618 C637 1.429 . S
C618 H642 0.950 . S
C619 C636 1.574 . S
C619 C638 1.368 . S
C619 H643 0.949 . S
H620 C624 0.949 . S
C621 C622 1.349 . S
C621 C623 1.327 . S
C621 H644 0.950 . S
C622 C621 1.349 . S
C622 C634 1.349 . S
C623 C621 1.327 . S
C623 C639 1.429 . S
C623 H645 0.950 . S
C624 H620 0.949 . S
C624 C632 1.574 . S
C624 C640 1.368 . S
H625 C633 0.950 . S
H626 C631 0.950 . S
H627 C632 0.949 . S
H628 C634 0.950 . S
H629 C635 0.950 . S
H630 C636 0.949 . S
C631 H626 0.950 . S
C631 C633 1.327 . S
C631 C637 1.429 . S
C632 C624 1.574 . S
C632 H627 0.949 . S
C632 C638 1.368 . S
C633 C617 1.349 . S
C633 H625 0.950 . S
C633 C631 1.327 . S
C634 C622 1.349 . S
C634 H628 0.950 . S
C634 C635 1.327 . S
C635 H629 0.950 . S
C635 C634 1.327 . S
C635 C639 1.429 . S
C636 C619 1.574 . S
C636 H630 0.949 . S
C636 C640 1.368 . S
C637 C618 1.429 . S
C637 C631 1.429 . S
C637 C638 1.523 . S
C638 C619 1.368 . S
C638 C632 1.368 . S
C638 C637 1.523 . S
C639 C623 1.429 . S
C639 C635 1.429 . S
C639 C640 1.523 . S
C640 C624 1.368 . S
C640 C636 1.368 . S
C640 C639 1.523 . S
H641 C616 0.950 . S
H642 C618 0.950 . S
H643 C619 0.949 . S
H644 C621 0.950 . S
H645 C623 0.950 . S
C646 C647 1.349 . S
C646 C648 1.327 . S
C646 H671 0.950 . S
C647 C646 1.349 . S
C647 C663 1.349 . S
C648 C646 1.327 . S
C648 C667 1.429 . S
C648 H672 0.950 . S
C649 C666 1.574 . S
C649 C668 1.368 . S
C649 H673 0.949 . S
H650 C654 0.949 . S
C651 C652 1.349 . S
C651 C653 1.327 . S
C651 H674 0.950 . S
C652 C651 1.349 . S
C652 C664 1.349 . S
C653 C651 1.327 . S
C653 C669 1.429 . S
C653 H675 0.950 . S
C654 H650 0.949 . S
C654 C662 1.574 . S
C654 C670 1.368 . S
H655 C663 0.950 . S
H656 C661 0.950 . S
H657 C662 0.949 . S
H658 C664 0.950 . S
H659 C665 0.950 . S
H660 C666 0.949 . S
C661 H656 0.950 . S
C661 C663 1.327 . S
C661 C667 1.429 . S
C662 C654 1.574 . S
C662 H657 0.949 . S
C662 C668 1.368 . S
C663 C647 1.349 . S
C663 H655 0.950 . S
C663 C661 1.327 . S
C664 C652 1.349 . S
C664 H658 0.950 . S
C664 C665 1.327 . S
C665 H659 0.950 . S
C665 C664 1.327 . S
C665 C669 1.429 . S
C666 C649 1.574 . S
C666 H660 0.949 . S
C666 C670 1.368 . S
C667 C648 1.429 . S
C667 C661 1.429 . S
C667 C668 1.523 . S
C668 C649 1.368 . S
C668 C662 1.368 . S
C668 C667 1.523 . S
C669 C653 1.429 . S
C669 C665 1.429 . S
C669 C670 1.523 . S
C670 C654 1.368 . S
C670 C666 1.368 . S
C670 C669 1.523 . S
H671 C646 0.950 . S
H672 C648 0.950 . S
H673 C649 0.949 . S
H674 C651 0.950 . S
H675 C653 0.950 . S
C676 C677 1.349 . S
C676 C678 1.327 . S
C676 H701 0.950 . S
C677 C676 1.349 . S
C677 C693 1.349 . S
C678 C676 1.327 . S
C678 C697 1.429 . S
C678 H702 0.950 . S
C679 C696 1.574 . S
C679 C698 1.368 . S
C679 H703 0.949 . S
H680 C684 0.949 . S
C681 C682 1.349 . S
C681 C683 1.327 . S
C681 H704 0.950 . S
C682 C681 1.349 . S
C682 C694 1.349 . S
C683 C681 1.327 . S
C683 C699 1.429 . S
C683 H705 0.950 . S
C684 H680 0.949 . S
C684 C692 1.574 . S
C684 C700 1.368 . S
H685 C693 0.950 . S
H686 C691 0.950 . S
H687 C692 0.949 . S
H688 C694 0.950 . S
H689 C695 0.950 . S
H690 C696 0.949 . S
C691 H686 0.950 . S
C691 C693 1.327 . S
C691 C697 1.429 . S
C692 C684 1.574 . S
C692 H687 0.949 . S
C692 C698 1.368 . S
C693 C677 1.349 . S
C693 H685 0.950 . S
C693 C691 1.327 . S
C694 C682 1.349 . S
C694 H688 0.950 . S
C694 C695 1.327 . S
C695 H689 0.950 . S
C695 C694 1.327 . S
C695 C699 1.429 . S
C696 C679 1.574 . S
C696 H690 0.949 . S
C696 C700 1.368 . S
C697 C678 1.429 . S
C697 C691 1.429 . S
C697 C698 1.523 . S
C698 C679 1.368 . S
C698 C692 1.368 . S
C698 C697 1.523 . S
C699 C683 1.429 . S
C699 C695 1.429 . S
C699 C700 1.523 . S
C700 C684 1.368 . S
C700 C696 1.368 . S
C700 C699 1.523 . S
H701 C676 0.950 . S
H702 C678 0.950 . S
H703 C679 0.949 . S
H704 C681 0.950 . S
H705 C683 0.950 . S
C706 C707 1.349 . S
C706 C708 1.327 . S
C706 H731 0.950 . S
C707 C706 1.349 . S
C707 C723 1.349 . S
C708 C706 1.327 . S
C708 C727 1.429 . S
C708 H732 0.950 . S
C709 C726 1.574 . S
C709 C728 1.368 . S
C709 H733 0.949 . S
H710 C714 0.949 . S
C711 C712 1.349 . S
C711 C713 1.327 . S
C711 H734 0.950 . S
C712 C711 1.349 . S
C712 C724 1.349 . S
C713 C711 1.327 . S
C713 C729 1.429 . S
C713 H735 0.950 . S
C714 H710 0.949 . S
C714 C722 1.574 . S
C714 C730 1.368 . S
H715 C723 0.950 . S
H716 C721 0.950 . S
H717 C722 0.949 . S
H718 C724 0.950 . S
H719 C725 0.950 . S
H720 C726 0.949 . S
C721 H716 0.950 . S
C721 C723 1.327 . S
C721 C727 1.429 . S
C722 C714 1.574 . S
C722 H717 0.949 . S
C722 C728 1.368 . S
C723 C707 1.349 . S
C723 H715 0.950 . S
C723 C721 1.327 . S
C724 C712 1.349 . S
C724 H718 0.950 . S
C724 C725 1.327 . S
C725 H719 0.950 . S
C725 C724 1.327 . S
C725 C729 1.429 . S
C726 C709 1.574 . S
C726 H720 0.949 . S
C726 C730 1.368 . S
C727 C708 1.429 . S
C727 C721 1.429 . S
C727 C728 1.523 . S
C728 C709 1.368 . S
C728 C722 1.368 . S
C728 C727 1.523 . S
C729 C713 1.429 . S
C729 C725 1.429 . S
C729 C730 1.523 . S
C730 C714 1.368 . S
C730 C726 1.368 . S
C730 C729 1.523 . S
H731 C706 0.950 . S
H732 C708 0.950 . S
H733 C709 0.949 . S
H734 C711 0.950 . S
H735 C713 0.950 . S
C736 C737 1.349 . S
C736 C738 1.327 . S
C736 H761 0.950 . S
C737 C736 1.349 . S
C737 C753 1.349 . S
C738 C736 1.327 . S
C738 C757 1.429 . S
C738 H762 0.950 . S
C739 C756 1.574 . S
C739 C758 1.368 . S
C739 H763 0.949 . S
H740 C744 0.949 . S
C741 C742 1.349 . S
C741 C743 1.327 . S
C741 H764 0.950 . S
C742 C741 1.349 . S
C742 C754 1.349 . S
C743 C741 1.327 . S
C743 C759 1.429 . S
C743 H765 0.950 . S
C744 H740 0.949 . S
C744 C752 1.574 . S
C744 C760 1.368 . S
H745 C753 0.950 . S
H746 C751 0.950 . S
H747 C752 0.949 . S
H748 C754 0.950 . S
H749 C755 0.950 . S
H750 C756 0.949 . S
C751 H746 0.950 . S
C751 C753 1.327 . S
C751 C757 1.429 . S
C752 C744 1.574 . S
C752 H747 0.949 . S
C752 C758 1.368 . S
C753 C737 1.349 . S
C753 H745 0.950 . S
C753 C751 1.327 . S
C754 C742 1.349 . S
C754 H748 0.950 . S
C754 C755 1.327 . S
C755 H749 0.950 . S
C755 C754 1.327 . S
C755 C759 1.429 . S
C756 C739 1.574 . S
C756 H750 0.949 . S
C756 C760 1.368 . S
C757 C738 1.429 . S
C757 C751 1.429 . S
C757 C758 1.523 . S
C758 C739 1.368 . S
C758 C752 1.368 . S
C758 C757 1.523 . S
C759 C743 1.429 . S
C759 C755 1.429 . S
C759 C760 1.523 . S
C760 C744 1.368 . S
C760 C756 1.368 . S
C760 C759 1.523 . S
H761 C736 0.950 . S
H762 C738 0.950 . S
H763 C739 0.949 . S
H764 C741 0.950 . S
H765 C743 0.950 . S
C766 C767 1.349 . S
C766 C768 1.327 . S
C766 H791 0.950 . S
C767 C766 1.349 . S
C767 C783 1.349 . S
C768 C766 1.327 . S
C768 C787 1.429 . S
C768 H792 0.950 . S
C769 C786 1.574 . S
C769 C788 1.368 . S
C769 H793 0.949 . S
H770 C774 0.949 . S
C771 C772 1.349 . S
C771 C773 1.327 . S
C771 H794 0.950 . S
C772 C771 1.349 . S
C772 C784 1.349 . S
C773 C771 1.327 . S
C773 C789 1.429 . S
C773 H795 0.950 . S
C774 H770 0.949 . S
C774 C782 1.574 . S
C774 C790 1.368 . S
H775 C783 0.950 . S
H776 C781 0.950 . S
H777 C782 0.949 . S
H778 C784 0.950 . S
H779 C785 0.950 . S
H780 C786 0.949 . S
C781 H776 0.950 . S
C781 C783 1.327 . S
C781 C787 1.429 . S
C782 C774 1.574 . S
C782 H777 0.949 . S
C782 C788 1.368 . S
C783 C767 1.349 . S
C783 H775 0.950 . S
C783 C781 1.327 . S
C784 C772 1.349 . S
C784 H778 0.950 . S
C784 C785 1.327 . S
C785 H779 0.950 . S
C785 C784 1.327 . S
C785 C789 1.429 . S
C786 C769 1.574 . S
C786 H780 0.949 . S
C786 C790 1.368 . S
C787 C768 1.429 . S
C787 C781 1.429 . S
C787 C788 1.523 . S
C788 C769 1.368 . S
C788 C782 1.368 . S
C788 C787 1.523 . S
C789 C773 1.429 . S
C789 C785 1.429 . S
C789 C790 1.523 . S
C790 C774 1.368 . S
C790 C786 1.368 . S
C790 C789 1.523 . S
H791 C766 0.950 . S
H792 C768 0.950 . S
H793 C769 0.949 . S
H794 C771 0.950 . S
H795 C773 0.950 . S
C796 C797 1.349 . S
C796 C798 1.327 . S
C796 H821 0.950 . S
C797 C796 1.349 . S
C797 C813 1.349 . S
C798 C796 1.327 . S
C798 C817 1.429 . S
C798 H822 0.950 . S
C799 C816 1.574 . S
C799 C818 1.368 . S
C799 H823 0.949 . S
H800 C804 0.949 . S
C801 C802 1.349 . S
C801 C803 1.327 . S
C801 H824 0.950 . S
C802 C801 1.349 . S
C802 C814 1.349 . S
C803 C801 1.327 . S
C803 C819 1.429 . S
C803 H825 0.950 . S
C804 H800 0.949 . S
C804 C812 1.574 . S
C804 C820 1.368 . S
H805 C813 0.950 . S
H806 C811 0.950 . S
H807 C812 0.949 . S
H808 C814 0.950 . S
H809 C815 0.950 . S
H810 C816 0.949 . S
C811 H806 0.950 . S
C811 C813 1.327 . S
C811 C817 1.429 . S
C812 C804 1.574 . S
C812 H807 0.949 . S
C812 C818 1.368 . S
C813 C797 1.349 . S
C813 H805 0.950 . S
C813 C811 1.327 . S
C814 C802 1.349 . S
C814 H808 0.950 . S
C814 C815 1.327 . S
C815 H809 0.950 . S
C815 C814 1.327 . S
C815 C819 1.429 . S
C816 C799 1.574 . S
C816 H810 0.949 . S
C816 C820 1.368 . S
C817 C798 1.429 . S
C817 C811 1.429 . S
C817 C818 1.523 . S
C818 C799 1.368 . S
C818 C812 1.368 . S
C818 C817 1.523 . S
C819 C803 1.429 . S
C819 C815 1.429 . S
C819 C820 1.523 . S
C820 C804 1.368 . S
C820 C816 1.368 . S
C820 C819 1.523 . S
H821 C796 0.950 . S
H822 C798 0.950 . S
H823 C799 0.949 . S
H824 C801 0.950 . S
H825 C803 0.950 . S
C826 C827 1.349 . S
C826 C828 1.327 . S
C826 H851 0.950 . S
C827 C826 1.349 . S
C827 C843 1.349 . S
C828 C826 1.327 . S
C828 C847 1.429 . S
C828 H852 0.950 . S
C829 C846 1.574 . S
C829 C848 1.368 . S
C829 H853 0.949 . S
H830 C834 0.949 . S
C831 C832 1.349 . S
C831 C833 1.327 . S
C831 H854 0.950 . S
C832 C831 1.349 . S
C832 C844 1.349 . S
C833 C831 1.327 . S
C833 C849 1.429 . S
C833 H855 0.950 . S
C834 H830 0.949 . S
C834 C842 1.574 . S
C834 C850 1.368 . S
H835 C843 0.950 . S
H836 C841 0.950 . S
H837 C842 0.949 . S
H838 C844 0.950 . S
H839 C845 0.950 . S
H840 C846 0.949 . S
C841 H836 0.950 . S
C841 C843 1.327 . S
C841 C847 1.429 . S
C842 C834 1.574 . S
C842 H837 0.949 . S
C842 C848 1.368 . S
C843 C827 1.349 . S
C843 H835 0.950 . S
C843 C841 1.327 . S
C844 C832 1.349 . S
C844 H838 0.950 . S
C844 C845 1.327 . S
C845 H839 0.950 . S
C845 C844 1.327 . S
C845 C849 1.429 . S
C846 C829 1.574 . S
C846 H840 0.949 . S
C846 C850 1.368 . S
C847 C828 1.429 . S
C847 C841 1.429 . S
C847 C848 1.523 . S
C848 C829 1.368 . S
C848 C842 1.368 . S
C848 C847 1.523 . S
C849 C833 1.429 . S
C849 C845 1.429 . S
C849 C850 1.523 . S
C850 C834 1.368 . S
C850 C846 1.368 . S
C850 C849 1.523 . S
H851 C826 0.950 . S
H852 C828 0.950 . S
H853 C829 0.949 . S
H854 C831 0.950 . S
H855 C833 0.950 . S
C856 C857 1.349 . S
C856 C858 1.327 . S
C856 H881 0.950 . S
C857 C856 1.349 . S
C857 C873 1.349 . S
C858 C856 1.327 . S
C858 C877 1.429 . S
C858 H882 0.950 . S
C859 C876 1.574 . S
C859 C878 1.368 . S
C859 H883 0.949 . S
H860 C864 0.949 . S
C861 C862 1.349 . S
C861 C863 1.327 . S
C861 H884 0.950 . S
C862 C861 1.349 . S
C862 C874 1.349 . S
C863 C861 1.327 . S
C863 C879 1.429 . S
C863 H885 0.950 . S
C864 H860 0.949 . S
C864 C872 1.574 . S
C864 C880 1.368 . S
H865 C873 0.950 . S
H866 C871 0.950 . S
H867 C872 0.949 . S
H868 C874 0.950 . S
H869 C875 0.950 . S
H870 C876 0.949 . S
C871 H866 0.950 . S
C871 C873 1.327 . S
C871 C877 1.429 . S
C872 C864 1.574 . S
C872 H867 0.949 . S
C872 C878 1.368 . S
C873 C857 1.349 . S
C873 H865 0.950 . S
C873 C871 1.327 . S
C874 C862 1.349 . S
C874 H868 0.950 . S
C874 C875 1.327 . S
C875 H869 0.950 . S
C875 C874 1.327 . S
C875 C879 1.429 . S
C876 C859 1.574 . S
C876 H870 0.949 . S
C876 C880 1.368 . S
C877 C858 1.429 . S
C877 C871 1.429 . S
C877 C878 1.523 . S
C878 C859 1.368 . S
C878 C872 1.368 . S
C878 C877 1.523 . S
C879 C863 1.429 . S
C879 C875 1.429 . S
C879 C880 1.523 . S
C880 C864 1.368 . S
C880 C876 1.368 . S
C880 C879 1.523 . S
H881 C856 0.950 . S
H882 C858 0.950 . S
H883 C859 0.949 . S
H884 C861 0.950 . S
H885 C863 0.950 . S
C886 C887 1.349 . S
C886 C888 1.327 . S
C886 H911 0.950 . S
C887 C886 1.349 . S
C887 C903 1.349 . S
C888 C886 1.327 . S
C888 C907 1.429 . S
C888 H912 0.950 . S
C889 C906 1.574 . S
C889 C908 1.368 . S
C889 H913 0.949 . S
H890 C894 0.949 . S
C891 C892 1.349 . S
C891 C893 1.327 . S
C891 H914 0.950 . S
C892 C891 1.349 . S
C892 C904 1.349 . S
C893 C891 1.327 . S
C893 C909 1.429 . S
C893 H915 0.950 . S
C894 H890 0.949 . S
C894 C902 1.574 . S
C894 C910 1.368 . S
H895 C903 0.950 . S
H896 C901 0.950 . S
H897 C902 0.949 . S
H898 C904 0.950 . S
H899 C905 0.950 . S
H900 C906 0.949 . S
C901 H896 0.950 . S
C901 C903 1.327 . S
C901 C907 1.429 . S
C902 C894 1.574 . S
C902 H897 0.949 . S
C902 C908 1.368 . S
C903 C887 1.349 . S
C903 H895 0.950 . S
C903 C901 1.327 . S
C904 C892 1.349 . S
C904 H898 0.950 . S
C904 C905 1.327 . S
C905 H899 0.950 . S
C905 C904 1.327 . S
C905 C909 1.429 . S
C906 C889 1.574 . S
C906 H900 0.949 . S
C906 C910 1.368 . S
C907 C888 1.429 . S
C907 C901 1.429 . S
C907 C908 1.523 . S
C908 C889 1.368 . S
C908 C902 1.368 . S
C908 C907 1.523 . S
C909 C893 1.429 . S
C909 C905 1.429 . S
C909 C910 1.523 . S
C910 C894 1.368 . S
C910 C906 1.368 . S
C910 C909 1.523 . S
H911 C886 0.950 . S
H912 C888 0.950 . S
H913 C889 0.949 . S
H914 C891 0.950 . S
H915 C893 0.950 . S
C916 C917 1.349 . S
C916 C918 1.327 . S
C916 H941 0.950 . S
C917 C916 1.349 . S
C917 C933 1.349 . S
C918 C916 1.327 . S
C918 C937 1.429 . S
C918 H942 0.950 . S
C919 C936 1.574 . S
C919 C938 1.368 . S
C919 H943 0.949 . S
H920 C924 0.949 . S
C921 C922 1.349 . S
C921 C923 1.327 . S
C921 H944 0.950 . S
C922 C921 1.349 . S
C922 C934 1.349 . S
C923 C921 1.327 . S
C923 C939 1.429 . S
C923 H945 0.950 . S
C924 H920 0.949 . S
C924 C932 1.574 . S
C924 C940 1.368 . S
H925 C933 0.950 . S
H926 C931 0.950 . S
H927 C932 0.949 . S
H928 C934 0.950 . S
H929 C935 0.950 . S
H930 C936 0.949 . S
C931 H926 0.950 . S
C931 C933 1.327 . S
C931 C937 1.429 . S
C932 C924 1.574 . S
C932 H927 0.949 . S
C932 C938 1.368 . S
C933 C917 1.349 . S
C933 H925 0.950 . S
C933 C931 1.327 . S
C934 C922 1.349 . S
C934 H928 0.950 . S
C934 C935 1.327 . S
C935 H929 0.950 . S
C935 C934 1.327 . S
C935 C939 1.429 . S
C936 C919 1.574 . S
C936 H930 0.949 . S
C936 C940 1.368 . S
C937 C918 1.429 . S
C937 C931 1.429 . S
C937 C938 1.523 . S
C938 C919 1.368 . S
C938 C932 1.368 . S
C938 C937 1.523 . S
C939 C923 1.429 . S
C939 C935 1.429 . S
C939 C940 1.523 . S
C940 C924 1.368 . S
C940 C936 1.368 . S
C940 C939 1.523 . S
H941 C916 0.950 . S
H942 C918 0.950 . S
H943 C919 0.949 . S
H944 C921 0.950 . S
H945 C923 0.950 . S
C946 C947 1.349 . S
C946 C948 1.327 . S
C946 H971 0.950 . S
C947 C946 1.349 . S
C947 C963 1.349 . S
C948 C946 1.327 . S
C948 C967 1.429 . S
C948 H972 0.950 . S
C949 C966 1.574 . S
C949 C968 1.368 . S
C949 H973 0.949 . S
H950 C954 0.949 . S
C951 C952 1.349 . S
C951 C953 1.327 . S
C951 H974 0.950 . S
C952 C951 1.349 . S
C952 C964 1.349 . S
C953 C951 1.327 . S
C953 C969 1.429 . S
C953 H975 0.950 . S
C954 H950 0.949 . S
C954 C962 1.574 . S
C954 C970 1.368 . S
H955 C963 0.950 . S
H956 C961 0.950 . S
H957 C962 0.949 . S
H958 C964 0.950 . S
H959 C965 0.950 . S
H960 C966 0.949 . S
C961 H956 0.950 . S
C961 C963 1.327 . S
C961 C967 1.429 . S
C962 C954 1.574 . S
C962 H957 0.949 . S
C962 C968 1.368 . S
C963 C947 1.349 . S
C963 H955 0.950 . S
C963 C961 1.327 . S
C964 C952 1.349 . S
C964 H958 0.950 . S
C964 C965 1.327 . S
C965 H959 0.950 . S
C965 C964 1.327 . S
C965 C969 1.429 . S
C966 C949 1.574 . S
C966 H960 0.949 . S
C966 C970 1.368 . S
C967 C948 1.429 . S
C967 C961 1.429 . S
C967 C968 1.523 . S
C968 C949 1.368 . S
C968 C962 1.368 . S
C968 C967 1.523 . S
C969 C953 1.429 . S
C969 C965 1.429 . S
C969 C970 1.523 . S
C970 C954 1.368 . S
C970 C966 1.368 . S
C970 C969 1.523 . S
H971 C946 0.950 . S
H972 C948 0.950 . S
H973 C949 0.949 . S
H974 C951 0.950 . S
H975 C953 0.950 . S
C257 C6 1.070 . S
C262 C113 1.092 . S
C287 C18 1.342 . S
C292 C153 1.350 . S
C322 C178 2.485 . S
C317 C28 2.524 . S
C347 C40 1.658 . S
C352 C218 1.616 . S
C382 C149 1.963 . S
C377 C9 1.911 . S
C412 C109 1.687 . S
C407 C16 1.639 . S
C442 C240 1.591 . S
C437 C30 1.607 . S
C472 C200 1.175 . S
C467 C42 1.191 . S
C497 C4 1.161 . S
C502 C242 1.159 . S
C532 C159 2.346 . S
C527 C33 2.377 . S
C557 C45 1.820 . S
C562 C119 1.795 . S
C587 C21 1.402 . S
C592 C202 1.427 . S
C622 C122 1.125 . S
C617 C57 1.109 . S
C647 C66 1.314 . S
C652 C162 1.340 . S
C677 C76 2.579 . S
C682 C199 2.535 . S
C707 C88 1.564 . S
C712 C239 1.532 . S
C737 C54 1.897 . S
C742 C160 1.948 . S
C772 C120 1.783 . S
C767 C64 1.754 . S
C802 C229 1.469 . S
C797 C78 1.488 . S
C832 C189 1.239 . S
C827 C93 1.248 . S
C857 C52 1.151 . S
C862 C233 1.171 . S
C892 C138 2.330 . S
C887 C81 2.357 . S
C922 C98 1.754 . S
C917 C90 1.784 . S
C947 C69 1.403 . S
C952 C193 1.441 . S
