# Generated by pormake.
# Topology anh, (6,3)-cn, num edge types: 1
# Building blocks:
#     Node 0, Type 0, BuildingBlock: BETGAK_clean_sbu_0, # of connection points: 6
#     Node 1, Type 0, BuildingBlock: BETGAK_clean_sbu_0, # of connection points: 6
#     Node 2, Type 0, BuildingBlock: BETGAK_clean_sbu_0, # of connection points: 6
#     Node 3, Type 1, BuildingBlock: BETDAH_clean_linker_0, # of connection points: 3
#     Node 4, Type 1, BuildingBlock: BETDAH_clean_linker_0, # of connection points: 3
#     Node 5, Type 1, BuildingBlock: BETDAH_clean_linker_0, # of connection points: 3
#     Node 6, Type 1, BuildingBlock: BETDAH_clean_linker_0, # of connection points: 3
#     Node 7, Type 1, BuildingBlock: BETDAH_clean_linker_0, # of connection points: 3
#     Node 8, Type 1, BuildingBlock: BETDAH_clean_linker_0, # of connection points: 3
#     Edge 9, Type (0, 1), BuildingBlock: XUDNAN_clean_linker_2, # of connection points: 2
#     Edge 10, Type (0, 1), BuildingBlock: XUDNAN_clean_linker_2, # of connection points: 2
#     Edge 11, Type (0, 1), BuildingBlock: XUDNAN_clean_linker_2, # of connection points: 2
#     Edge 12, Type (0, 1), BuildingBlock: XUDNAN_clean_linker_2, # of connection points: 2
#     Edge 13, Type (0, 1), BuildingBlock: XUDNAN_clean_linker_2, # of connection points: 2
#     Edge 14, Type (0, 1), BuildingBlock: XUDNAN_clean_linker_2, # of connection points: 2
#     Edge 15, Type (0, 1), BuildingBlock: XUDNAN_clean_linker_2, # of connection points: 2
#     Edge 16, Type (0, 1), BuildingBlock: XUDNAN_clean_linker_2, # of connection points: 2
#     Edge 17, Type (0, 1), BuildingBlock: XUDNAN_clean_linker_2, # of connection points: 2
#     Edge 18, Type (0, 1), BuildingBlock: XUDNAN_clean_linker_2, # of connection points: 2
#     Edge 19, Type (0, 1), BuildingBlock: XUDNAN_clean_linker_2, # of connection points: 2
#     Edge 20, Type (0, 1), BuildingBlock: XUDNAN_clean_linker_2, # of connection points: 2
#     Edge 21, Type (0, 1), BuildingBlock: XUDNAN_clean_linker_2, # of connection points: 2
#     Edge 22, Type (0, 1), BuildingBlock: XUDNAN_clean_linker_2, # of connection points: 2
#     Edge 23, Type (0, 1), BuildingBlock: XUDNAN_clean_linker_2, # of connection points: 2
#     Edge 24, Type (0, 1), BuildingBlock: XUDNAN_clean_linker_2, # of connection points: 2
#     Edge 25, Type (0, 1), BuildingBlock: XUDNAN_clean_linker_2, # of connection points: 2
#     Edge 26, Type (0, 1), BuildingBlock: XUDNAN_clean_linker_2, # of connection points: 2
# Relax obj value: 0.153
# Max RMSD: 0.181
# Mean RMSD: 0.111
data_MOF--net-anh--node1-BETGAK_clean_sbu_0--node2-BETDAH_clean_linker_0--edge1-XUDNAN_clean_linker_2
_symmetry_space_group_name_H-M    P1
_symmetry_Int_Tables_number       1
_symmetry_cell_setting            triclinic
loop_
_symmetry_equiv_pos_as_xyz
'x, y, z'
_cell_length_a     30.29667
_cell_length_b     38.014871
_cell_length_c     48.961544
_cell_angle_alpha  94.210946
_cell_angle_beta   90.148666
_cell_angle_gamma 129.919
loop_
_atom_site_label
_atom_site_type_symbol
_atom_site_fract_x
_atom_site_fract_y
_atom_site_fract_z
_atom_type_partial_charge
La0 La 0.23932 0.592 0.15738 0.0
La1 La 0.15453 0.60385 0.1742 0.0
C2 C 0.30806 0.58576 0.1341 0.0
C3 C 0.30642 0.54628 0.12996 0.0
C4 C 0.27819 0.51202 0.1482 0.0
C5 C 0.27272 0.47275 0.14334 0.0
C6 C 0.29473 0.46663 0.11993 0.0
C7 C 0.3233 0.50121 0.10176 0.0
C8 C 0.32905 0.54074 0.10676 0.0
C9 C 0.22169 0.58812 0.20985 0.0
C10 C 0.27875 0.69253 0.16812 0.0
C11 C 1.07615 0.59743 0.19749 0.0
C12 C 1.01276 0.56371 0.1923 0.0
C13 C 0.98654 0.56473 0.16903 0.0
C14 C 0.92786 0.52988 0.16225 0.0
C15 C 0.89355 0.49331 0.17872 0.0
C16 C 0.91927 0.493 0.20254 0.0
C17 C 0.97836 0.52797 0.2093 0.0
C18 C 0.16437 0.59922 0.12046 0.0
C19 C 0.11373 0.50192 0.16422 0.0
O20 O 0.26637 0.58058 0.12085 0.0
O21 O 0.31658 0.60304 0.1596 0.0
O22 O 0.23222 0.56427 0.19586 0.0
O23 O 0.22532 0.61558 0.19499 0.0
O24 O 0.2872 0.66599 0.15463 0.0
O25 O 0.23217 0.67513 0.18165 0.0
O26 O 0.10536 0.62472 0.17826 0.0
O27 O 1.10006 0.58138 0.20689 0.0
O28 O 0.15141 0.6224 0.13301 0.0
O29 O 0.16582 0.57699 0.1376 0.0
O30 O 1.10206 0.52871 0.17329 0.0
O31 O 0.16406 0.51906 0.15451 0.0
H32 H 0.25972 0.51533 0.1661 0.0
H33 H 0.2513 0.44723 0.15798 0.0
H34 H 0.34009 0.4973 0.08336 0.0
H35 H 0.35019 0.56653 0.09226 0.0
H36 H 1.01157 0.59163 0.15541 0.0
H37 H 0.90993 0.53085 0.14345 0.0
H38 H 0.89392 0.46557 0.21579 0.0
H39 H 0.99741 0.52642 0.22743 0.0
La40 La 0.71469 0.09665 0.48127 0.0
La41 La 0.64527 0.12713 0.47569 0.0
C42 C 0.75507 0.0603 0.49743 0.0
C43 C 0.73362 0.01602 0.5065 0.0
C44 C 0.76938 1.00468 0.50526 0.0
C45 C 0.75048 0.96293 0.51367 0.0
C46 C 0.69528 0.93158 0.5235 0.0
C47 C 0.65942 0.9431 0.52478 0.0
C48 C 0.67841 0.985 0.51627 0.0
C49 C 0.70913 0.11715 0.43209 0.0
C50 C 0.57699 0.02244 0.47028 0.0
C51 C 0.60837 0.16776 0.4635 0.0
C52 C 0.62974 0.21488 0.47052 0.0
C53 C 0.66337 0.24046 0.49504 0.0
C54 C 0.681 0.28425 0.50228 0.0
C55 C 0.66603 0.30346 0.48494 0.0
C56 C 0.63418 0.27845 0.45994 0.0
C57 C 0.61599 0.2344 0.45285 0.0
C58 C 0.65322 0.1077 0.5249 0.0
C59 C 0.7838 0.20274 0.48384 0.0
O60 O 0.74335 0.05977 0.4716 0.0
O61 O 0.748 0.08506 0.5137 0.0
O62 O 0.75253 0.12215 0.44235 0.0
O63 O 0.66839 0.09644 0.44791 0.0
O64 O 0.62435 0.03194 0.48089 0.0
O65 O 0.57758 0.05503 0.46196 0.0
O66 O 0.59092 0.14223 0.48395 0.0
O67 O 0.64003 0.16389 0.44765 0.0
O68 O 0.60768 0.09928 0.51453 0.0
O69 O 0.69276 0.12845 0.50862 0.0
O70 O 0.73391 0.19295 0.4785 0.0
O71 O 0.78689 0.17037 0.48815 0.0
H72 H 0.81215 0.02827 0.49784 0.0
H73 H 0.77946 0.95544 0.51279 0.0
H74 H 0.61648 0.9195 0.532 0.0
H75 H 0.65007 0.99311 0.51728 0.0
H76 H 0.67524 0.22627 0.50879 0.0
H77 H 0.70609 0.30303 0.52149 0.0
H78 H 0.62178 0.29236 0.44628 0.0
H79 H 0.59042 0.21529 0.43378 0.0
La80 La 0.64154 0.5727 0.85587 0.0
La81 La 0.5618 0.47252 0.83436 0.0
C82 C 0.69834 0.65852 0.8584 0.0
C83 C 0.68937 0.68924 0.84827 0.0
C84 C 0.63463 0.67692 0.84687 0.0
C85 C 0.62662 0.7053 0.83542 0.0
C86 C 0.67329 0.74659 0.82522 0.0
C87 C 0.72811 0.75893 0.82696 0.0
C88 C 0.73598 0.73049 0.83833 0.0
C89 C 0.5988 0.51445 0.89351 0.0
C90 C 0.50483 0.51742 0.84459 0.0
C91 C 0.50847 0.38714 0.82762 0.0
C92 C 0.52319 0.35687 0.82275 0.0
C93 C 0.52661 0.34294 0.79597 0.0
C94 C 0.53776 0.31254 0.7916 0.0
C95 C 0.54528 0.29515 0.8139 0.0
C96 C 0.54266 0.30965 0.84065 0.0
C97 C 0.53151 0.33994 0.84502 0.0
C98 C 0.60045 0.53027 0.79671 0.0
C99 C 0.6975 0.52608 0.84977 0.0
O100 O 0.6662 0.63311 0.87783 0.0
O101 O 0.70304 0.63533 0.83929 0.0
O102 O 0.64973 0.55502 0.89651 0.0
O103 O 0.57383 0.51017 0.87153 0.0
O104 O 0.55837 0.55781 0.84574 0.0
O105 O 0.4961 0.47836 0.84346 0.0
O106 O 0.5156 0.41137 0.80778 0.0
O107 O 0.52548 0.41104 0.85163 0.0
O108 O 0.54913 0.49038 0.79558 0.0
O109 O 0.62888 0.53528 0.81773 0.0
O110 O 0.64483 0.48736 0.84151 0.0
O111 O 0.70783 0.56541 0.85604 0.0
H112 H 0.59803 0.6453 0.85447 0.0
H113 H 0.58398 0.69504 0.83472 0.0
H114 H 0.76481 0.79015 0.81901 0.0
H115 H 0.77846 0.7404 0.83898 0.0
H116 H 0.51981 0.35494 0.77835 0.0
H117 H 0.53883 0.30163 0.77073 0.0
H118 H 0.54904 0.29744 0.8583 0.0
H119 H 0.52881 0.34971 0.8659 0.0
H120 H 0.59165 0.01505 0.23664 0.0
H121 H 0.73312 0.15336 0.21862 0.0
H122 H 0.61962 0.04816 0.15311 0.0
C123 C 0.61738 0.03986 0.22193 0.0
C124 C 0.60093 0.02599 0.19388 0.0
C125 C 0.66438 0.08595 0.23114 0.0
C126 C 0.69648 0.11793 0.21172 0.0
C127 C 0.68071 0.10427 0.18347 0.0
C128 C 0.63234 0.05853 0.17482 0.0
N129 N 0.71153 0.13561 0.16323 0.0
C130 C 0.76566 0.17916 0.16792 0.0
H131 H 0.70465 0.55252 0.60448 0.0
H132 H 0.63662 0.62282 0.60116 0.0
H133 H 0.64278 0.55862 0.52716 0.0
C134 C 0.68675 0.56423 0.59262 0.0
C135 C 0.67679 0.55322 0.56402 0.0
C136 C 0.67199 0.58903 0.60617 0.0
C137 C 0.6486 0.60411 0.5908 0.0
C138 C 0.63898 0.59362 0.56217 0.0
C139 C 0.65229 0.56778 0.54912 0.0
N140 N 0.61337 0.60646 0.54595 0.0
C141 C 0.61927 0.6456 0.55211 0.0
H142 H 1.02807 0.55246 0.9238 0.0
H143 H 0.17073 0.55655 0.90693 0.0
H144 H 1.0686 0.54538 0.84025 0.0
C145 C 1.0553 0.55316 0.90913 0.0
C146 C 1.04215 0.54895 0.88082 0.0
C147 C 1.10095 0.55517 0.91869 0.0
C148 C 0.13513 0.5543 0.89963 0.0
C149 C 0.12418 0.55111 0.87133 0.0
C150 C 1.07749 0.5483 0.86212 0.0
N151 N 0.15915 0.55082 0.8517 0.0
C152 C 0.20028 0.54547 0.85687 0.0
H153 H 0.27129 0.69779 0.40323 0.0
H154 H 0.12687 0.55973 0.4204 0.0
H155 H 0.20644 0.6725 0.48361 0.0
C156 C 0.24094 0.67383 0.41738 0.0
C157 C 0.24421 0.69057 0.44443 0.0
C158 C 0.19822 0.6268 0.40832 0.0
C159 C 0.16 0.59599 0.42718 0.0
C160 C 0.16311 0.61231 0.45449 0.0
C161 C 0.20459 0.65972 0.46274 0.0
N162 N 0.12459 0.58248 0.47402 0.0
C163 C 1.08866 0.53448 0.47081 0.0
H164 H 0.63375 0.10903 0.71617 0.0
H165 H 0.67882 0.02357 0.72566 0.0
H166 H 0.6543 0.08125 0.79675 0.0
C167 C 0.64424 0.09334 0.7294 0.0
C168 C 0.64124 0.09787 0.7579 0.0
C169 C 0.65802 0.06682 0.71763 0.0
C170 C 0.66839 0.04418 0.73463 0.0
C171 C 0.66747 0.04988 0.7633 0.0
C172 C 0.6546 0.07701 0.77463 0.0
N173 N 0.68059 0.03009 0.78165 0.0
C174 C 0.67579 0.99149 0.77524 0.0
H175 H 0.57194 0.3387 0.04301 0.0
H176 H 0.38831 0.26194 0.03506 0.0
H177 H 0.46177 0.24208 0.10063 0.0
C178 C 0.52893 0.31317 0.04967 0.0
C179 C 0.52252 0.29235 0.07358 0.0
C180 C 0.48099 0.30265 0.03522 0.0
C181 C 0.42594 0.26931 0.04477 0.0
C182 C 0.41891 0.24654 0.06783 0.0
C183 C 0.46715 0.25755 0.08184 0.0
N184 N 0.36458 0.21722 0.07923 0.0
C185 C 0.33392 0.23247 0.08376 0.0
H186 H 0.37344 0.45939 0.09992 0.0
H187 H 0.19994 0.37786 0.12786 0.0
H188 H 0.18956 0.30789 0.12052 0.0
H189 H 0.34219 0.37345 0.04617 0.0
H190 H 0.41114 0.38785 0.0519 0.0
H191 H 0.40435 0.43134 0.05886 0.0
H192 H 0.44658 0.44768 0.10871 0.0
H193 H 0.45348 0.40428 0.10189 0.0
H194 H 0.41319 0.40092 0.13011 0.0
H195 H 0.19942 0.2469 0.11147 0.0
H196 H 0.22964 0.2003 0.10104 0.0
H197 H 0.39466 0.3217 0.07792 0.0
C198 C 0.33289 0.42676 0.1041 0.0
C199 C 0.28761 0.42422 0.11455 0.0
C200 C 0.23563 0.38085 0.12023 0.0
C201 C 0.22912 0.34082 0.11594 0.0
C202 C 0.27477 0.34466 0.10575 0.0
C203 C 0.32555 0.38651 0.0998 0.0
C204 C 0.3685 0.38155 0.08952 0.0
C205 C 0.38233 0.3943 0.05985 0.0
C206 C 0.42368 0.4103 0.10871 0.0
C207 C 0.33422 0.3305 0.09093 0.0
C208 C 0.28014 0.30966 0.10025 0.0
C209 C 0.24145 0.26276 0.10393 0.0
C210 C 0.25875 0.23661 0.09799 0.0
C211 C 0.31394 0.25774 0.08855 0.0
C212 C 0.3519 0.30496 0.08488 0.0
H213 H 0.79376 0.27927 0.47912 0.0
H214 H 0.89587 0.23679 0.48786 0.0
H215 H 0.98471 0.31688 0.48437 0.0
H216 H 0.87744 0.35941 0.42989 0.0
H217 H 0.87014 0.4005 0.44397 0.0
H218 H 0.81454 0.34014 0.44785 0.0
H219 H 0.82387 0.35803 0.50047 0.0
H220 H 0.8791 0.41854 0.49689 0.0
H221 H 0.89338 0.39024 0.51871 0.0
H222 H 1.06264 0.40158 0.47867 0.0
H223 H 0.12386 0.48529 0.47401 0.0
H224 H 0.97142 0.47275 0.46934 0.0
C225 C 0.83479 0.28672 0.4805 0.0
C226 C 0.83764 0.25148 0.48381 0.0
C227 C 0.89237 0.26301 0.48547 0.0
C228 C 0.94312 0.30845 0.48339 0.0
C229 C 0.93862 0.34212 0.47974 0.0
C230 C 0.88584 0.33188 0.47855 0.0
C231 C 0.89277 0.3744 0.47464 0.0
C232 C 0.86189 0.36822 0.44747 0.0
C233 C 0.87101 0.38598 0.49915 0.0
C234 C 0.95779 0.41025 0.47374 0.0
C235 C 0.98339 0.39084 0.4766 0.0
C236 C 1.04304 0.41709 0.47643 0.0
C237 C 1.07743 0.46446 0.47366 0.0
C238 C 1.0521 0.48496 0.4711 0.0
C239 C 0.9916 0.45756 0.471 0.0
H240 H 0.74418 0.84102 0.8321 0.0
H241 H 0.58357 0.7204 0.79026 0.0
H242 H 0.5701 0.77073 0.76976 0.0
H243 H 0.69752 0.90409 0.84858 0.0
H244 H 0.76571 0.95921 0.84336 0.0
H245 H 0.7636 0.91361 0.85345 0.0
H246 H 0.81916 0.92081 0.81109 0.0
H247 H 0.82111 0.9663 0.80076 0.0
H248 H 0.79091 0.91592 0.77728 0.0
H249 H 0.57261 0.83473 0.75522 0.0
H250 H 0.58901 0.90679 0.74997 0.0
H251 H 0.74825 0.98467 0.80072 0.0
C252 C 0.70658 0.82514 0.81829 0.0
C253 C 0.66504 0.77672 0.81272 0.0
C254 C 0.61575 0.75738 0.79504 0.0
C255 C 0.60798 0.78571 0.7831 0.0
C256 C 0.64992 0.83333 0.78899 0.0
C257 C 0.69816 0.85285 0.80625 0.0
C258 C 0.73559 0.90478 0.81034 0.0
C259 C 0.74087 0.92138 0.84073 0.0
C260 C 0.79522 0.92833 0.7992 0.0
C261 C 0.70055 0.91151 0.79298 0.0
C262 C 0.65148 0.86996 0.7806 0.0
C263 C 0.61122 0.86747 0.76455 0.0
C264 C 0.62088 0.9084 0.76156 0.0
C265 C 0.67028 0.95085 0.77454 0.0
C266 C 0.71082 0.95252 0.79012 0.0
H267 H 0.81666 0.49909 0.15525 0.0
H268 H 0.83146 0.40043 0.18172 0.0
H269 H 0.73454 0.33658 0.15997 0.0
H270 H 0.66029 0.42919 0.16143 0.0
H271 H 0.65232 0.4493 0.13111 0.0
H272 H 0.71883 0.48608 0.15223 0.0
H273 H 0.77504 0.49517 0.10969 0.0
H274 H 0.70876 0.45789 0.08854 0.0
H275 H 0.75589 0.44445 0.09026 0.0
H276 H 0.63884 0.28378 0.13105 0.0
H277 H 0.55307 0.24772 0.09903 0.0
H278 H 0.60591 0.3826 0.09072 0.0
C279 C 0.79942 0.46407 0.15677 0.0
C280 C 0.83205 0.45481 0.16988 0.0
C281 C 0.80729 0.40841 0.17182 0.0
C282 C 0.7523 0.3719 0.15944 0.0
C283 C 0.72253 0.38248 0.14551 0.0
C284 C 0.74513 0.42752 0.14443 0.0
C285 C 0.70681 0.43034 0.12675 0.0
C286 C 0.68315 0.44987 0.14391 0.0
C287 C 0.73853 0.45862 0.10237 0.0
C288 C 0.65984 0.37997 0.11735 0.0
C289 C 0.66892 0.35262 0.12859 0.0
C290 C 0.63118 0.30488 0.12227 0.0
C291 C 0.58285 0.28473 0.10407 0.0
C292 C 0.57367 0.31256 0.09217 0.0
C293 C 0.61257 0.36062 0.09911 0.0
H294 H 0.55787 0.94096 0.4617 0.0
H295 H 0.47059 0.99633 0.47535 0.0
H296 H 0.37702 0.91735 0.47356 0.0
H297 H 0.45032 0.84864 0.41213 0.0
H298 H 0.4573 0.80805 0.42302 0.0
H299 H 0.51798 0.86886 0.42761 0.0
H300 H 0.52664 0.86383 0.47959 0.0
H301 H 0.4658 0.80296 0.47516 0.0
H302 H 0.46499 0.8403 0.49966 0.0
H303 H 0.29291 0.83261 0.47072 0.0
H304 H 0.22253 0.74759 0.46136 0.0
H305 H 0.36232 0.74648 0.44553 0.0
C306 C 0.51902 0.93632 0.46449 0.0
C307 C 0.5214 0.97471 0.46878 0.0
C308 C 0.46966 0.96738 0.47192 0.0
C309 C 0.41636 0.92265 0.47113 0.0
C310 C 0.41529 0.88549 0.46676 0.0
C311 C 0.46508 0.89173 0.46306 0.0
C312 C 0.45127 0.84578 0.45669 0.0
C313 C 0.47034 0.84266 0.42817 0.0
C314 C 0.47881 0.83776 0.47911 0.0
C315 C 0.38599 0.81286 0.45723 0.0
C316 C 0.36631 0.8365 0.46364 0.0
C317 C 0.30777 0.8137 0.46561 0.0
C318 C 0.26815 0.7655 0.4604 0.0
C319 C 0.28715 0.74076 0.4528 0.0
C320 C 0.34685 0.76476 0.45136 0.0
H321 H 0.61283 0.29384 0.77682 0.0
H322 H 0.49587 0.21801 0.84052 0.0
H323 H 0.50916 0.16054 0.8335 0.0
H324 H 0.5651 0.19426 0.7318 0.0
H325 H 0.63616 0.22 0.72103 0.0
H326 H 0.61842 0.25589 0.73129 0.0
H327 H 0.70516 0.30329 0.76742 0.0
H328 H 0.72316 0.26753 0.75728 0.0
H329 H 0.71114 0.27407 0.79265 0.0
H330 H 0.53355 0.11078 0.81939 0.0
H331 H 0.56758 0.07144 0.79895 0.0
H332 H 0.66931 0.17916 0.74435 0.0
C333 C 0.58977 0.26501 0.78918 0.0
C334 C 0.55359 0.26066 0.80937 0.0
C335 C 0.5246 0.22259 0.82528 0.0
C336 C 0.53157 0.18958 0.82133 0.0
C337 C 0.56762 0.19498 0.80137 0.0
C338 C 0.59625 0.23166 0.78552 0.0
C339 C 0.63234 0.22912 0.76541 0.0
C340 C 0.61176 0.22454 0.73562 0.0
C341 C 0.69677 0.27099 0.77104 0.0
C342 C 0.61925 0.18517 0.77239 0.0
C343 C 0.58188 0.16615 0.79322 0.0
C344 C 0.56312 0.12547 0.80318 0.0
C345 C 0.58306 0.10356 0.79155 0.0
C346 C 0.62155 0.12234 0.77019 0.0
C347 C 0.6397 0.16375 0.76053 0.0
H348 H 0.70942 0.87327 0.49781 0.0
H349 H 0.63737 0.8897 0.56914 0.0
H350 H 0.60958 0.81771 0.58472 0.0
H351 H 0.60222 0.74945 0.48627 0.0
H352 H 0.6536 0.74273 0.47576 0.0
H353 H 0.66594 0.79464 0.47017 0.0
H354 H 0.76568 0.84333 0.49694 0.0
H355 H 0.75353 0.79157 0.50276 0.0
H356 H 0.77007 0.83168 0.53144 0.0
H357 H 0.59243 0.74435 0.59305 0.0
H358 H 0.58414 0.67476 0.59207 0.0
H359 H 0.66848 0.70819 0.51559 0.0
C360 C 0.68795 0.86186 0.51677 0.0
C361 C 0.67577 0.88721 0.53233 0.0
C362 C 0.6467 0.87062 0.55677 0.0
C363 C 0.63108 0.82994 0.56586 0.0
C364 C 0.64461 0.80619 0.55019 0.0
C365 C 0.67206 0.82147 0.52606 0.0
C366 C 0.68188 0.78993 0.5129 0.0
C367 C 0.64893 0.76788 0.4846 0.0
C368 C 0.74663 0.81567 0.51091 0.0
C369 C 0.65618 0.75464 0.53349 0.0
C370 C 0.6348 0.76444 0.5549 0.0
C371 C 0.60899 0.73638 0.57637 0.0
C372 C 0.60458 0.69716 0.57574 0.0
C373 C 0.626 0.68682 0.55385 0.0
C374 C 0.65215 0.71584 0.5326 0.0
H375 H 0.80234 0.58235 0.88177 0.0
H376 H 0.70304 0.46597 0.81945 0.0
H377 H 0.78074 0.46155 0.81941 0.0
H378 H 0.94497 0.63499 0.85812 0.0
H379 H 0.97914 0.65076 0.89211 0.0
H380 H 0.91704 0.64662 0.88659 0.0
H381 H 0.86456 0.58854 0.92314 0.0
H382 H 0.92654 0.59259 0.92881 0.0
H383 H 0.8567 0.53719 0.91974 0.0
H384 H 0.87068 0.47027 0.82518 0.0
H385 H 0.96098 0.48668 0.83951 0.0
H386 H 1.00172 0.59421 0.90033 0.0
C387 C 0.79716 0.55616 0.86798 0.0
C388 C 0.74619 0.52473 0.8504 0.0
C389 C 0.74119 0.49053 0.8331 0.0
C390 C 0.78541 0.48781 0.83285 0.0
C391 C 0.83483 0.51908 0.85033 0.0
C392 C 0.84075 0.55228 0.86787 0.0
C393 C 0.89725 0.58006 0.88557 0.0
C394 C 0.93695 0.63114 0.88027 0.0
C395 C 0.88555 0.57424 0.91612 0.0
C396 C 0.92214 0.55749 0.87512 0.0
C397 C 0.88562 0.52275 0.85454 0.0
C398 C 0.89944 0.49736 0.84135 0.0
C399 C 0.95129 0.50719 0.84952 0.0
C400 C 0.98919 0.54184 0.87105 0.0
C401 C 0.97395 0.56732 0.8839 0.0
H402 H 0.39296 0.75065 0.18596 0.0
H403 H 0.25956 0.74741 0.14989 0.0
H404 H 0.32957 0.83233 0.1496 0.0
H405 H 0.45482 0.85181 0.23175 0.0
H406 H 0.52799 0.87405 0.22962 0.0
H407 H 0.46911 0.81287 0.22447 0.0
H408 H 0.50484 0.80956 0.17709 0.0
H409 H 0.56383 0.8708 0.18208 0.0
H410 H 0.51495 0.84619 0.15197 0.0
H411 H 0.4142 0.91746 0.15313 0.0
H412 H 0.50439 0.99764 0.16507 0.0
H413 H 0.5804 0.94642 0.20286 0.0
C414 C 0.37901 0.76799 0.17768 0.0
C415 C 0.32142 0.74287 0.16753 0.0
C416 C 0.30381 0.76638 0.15753 0.0
C417 C 0.34324 0.81445 0.15722 0.0
C418 C 0.39982 0.83848 0.16749 0.0
C419 C 0.41752 0.81617 0.17793 0.0
C420 C 0.47942 0.85048 0.18982 0.0
C421 C 0.48302 0.84709 0.22075 0.0
C422 C 0.51804 0.84385 0.17431 0.0
C423 C 0.49372 0.89549 0.18444 0.0
C424 C 0.44754 0.88775 0.17108 0.0
C425 C 0.45058 0.92395 0.16365 0.0
C426 C 0.50191 0.96928 0.17039 0.0
C427 C 0.54899 0.97796 0.18484 0.0
C428 C 0.54483 0.94055 0.19183 0.0
H429 H 0.64922 0.33056 0.53426 0.0
H430 H 0.71455 0.37679 0.4546 0.0
H431 H 0.73253 0.44934 0.46784 0.0
H432 H 0.57332 0.37122 0.5387 0.0
H433 H 0.58826 0.38802 0.57511 0.0
H434 H 0.58667 0.34235 0.56053 0.0
H435 H 0.69013 0.38571 0.58169 0.0
H436 H 0.69203 0.43158 0.59639 0.0
H437 H 0.74741 0.44423 0.57446 0.0
H438 H 0.73725 0.51423 0.48866 0.0
H439 H 0.72567 0.56565 0.51478 0.0
H440 H 0.65454 0.47579 0.58041 0.0
C441 C 0.66857 0.35646 0.51987 0.0
C442 C 0.68098 0.34838 0.49349 0.0
C443 C 0.70475 0.38244 0.4749 0.0
C444 C 0.71536 0.42376 0.4823 0.0
C445 C 0.70184 0.43038 0.50834 0.0
C446 C 0.67893 0.39766 0.52684 0.0
C447 C 0.66417 0.41163 0.55271 0.0
C448 C 0.59926 0.37621 0.557 0.0
C449 C 0.70062 0.41871 0.5778 0.0
C450 C 0.68131 0.45692 0.54569 0.0
C451 C 0.70357 0.46738 0.52015 0.0
C452 C 0.72019 0.50651 0.50875 0.0
C453 C 0.71312 0.53536 0.52367 0.0
C454 C 0.68917 0.52479 0.54965 0.0
C455 C 0.67392 0.48532 0.56086 0.0
H456 H 0.49548 0.586 0.83987 0.0
H457 H 0.39601 0.44292 0.85567 0.0
H458 H 0.3107 0.43642 0.86187 0.0
H459 H 0.4288 0.61345 0.88874 0.0
H460 H 0.42797 0.6494 0.86709 0.0
H461 H 0.4826 0.64386 0.86406 0.0
H462 H 0.4533 0.6176 0.81238 0.0
H463 H 0.39863 0.62309 0.81515 0.0
H464 H 0.37931 0.56916 0.8015 0.0
H465 H 0.23489 0.44429 0.8671 0.0
H466 H 0.17273 0.46541 0.8681 0.0
H467 H 0.31692 0.60259 0.84808 0.0
C468 C 0.45586 0.55337 0.84472 0.0
C469 C 0.45332 0.51502 0.84731 0.0
C470 C 0.39989 0.47291 0.8534 0.0
C471 C 0.35082 0.46882 0.85711 0.0
C472 C 0.35477 0.50701 0.85458 0.0
C473 C 0.4057 0.54846 0.8483 0.0
C474 C 0.39713 0.58367 0.84613 0.0
C475 C 0.43647 0.62505 0.8678 0.0
C476 C 0.40772 0.59929 0.81706 0.0
C477 C 0.33363 0.55547 0.85218 0.0
C478 C 0.31036 0.51139 0.85718 0.0
C479 C 0.25271 0.47873 0.86322 0.0
C480 C 0.21765 0.49103 0.86385 0.0
C481 C 0.23983 0.53559 0.85843 0.0
C482 C 0.29882 0.56832 0.8526 0.0
H483 H 0.99827 0.45227 0.17149 0.0
H484 H 0.12693 0.43694 0.15772 0.0
H485 H 1.05213 0.3528 0.15923 0.0
H486 H 0.91517 0.36426 0.21791 0.0
H487 H 0.84718 0.34533 0.20389 0.0
H488 H 0.91185 0.40425 0.20261 0.0
H489 H 0.89327 0.3954 0.1495 0.0
H490 H 0.82868 0.33659 0.15121 0.0
H491 H 0.88389 0.34934 0.12913 0.0
H492 H 0.96307 0.27008 0.16217 0.0
H493 H 0.86519 0.19454 0.16372 0.0
H494 H 0.79432 0.26342 0.17457 0.0
C495 C 1.01085 0.43129 0.16888 0.0
C496 C 1.06861 0.4513 0.16457 0.0
C497 C 1.083 0.42246 0.16098 0.0
C498 C 1.04084 0.37462 0.16192 0.0
C499 C 0.98437 0.35605 0.16629 0.0
C500 C 0.96923 0.38345 0.16949 0.0
C501 C 0.90514 0.35475 0.17293 0.0
C502 C 0.89419 0.36793 0.201 0.0
C503 C 0.87602 0.35929 0.14929 0.0
C504 C 0.88652 0.30687 0.17134 0.0
C505 C 0.93299 0.30842 0.16763 0.0
C506 C 0.92646 0.26849 0.16515 0.0
C507 C 0.87092 0.22585 0.16613 0.0
C508 C 0.82293 0.22362 0.16951 0.0
C509 C 0.83075 0.26452 0.17229 0.0
H510 H 0.14546 0.63585 0.08006 0.0
H511 H 0.1673 0.53596 0.09287 0.0
H512 H 0.15515 0.5152 0.04294 0.0
H513 H 1.03423 0.56642 0.02554 0.0
H514 H 1.05896 0.61418 0.00636 0.0
H515 H 1.07213 0.62312 0.04311 0.0
H516 H 0.18164 0.68636 0.03793 0.0
H517 H 0.16879 0.67775 0.00116 0.0
H518 H 0.21858 0.67301 0.01668 0.0
H519 H 0.13966 0.50438 0.9919 0.0
H520 H 0.12034 0.50328 0.94276 0.0
H521 H 0.10527 0.60831 0.96218 0.0
C522 C 0.1481 0.60988 0.07228 0.0
C523 C 0.15841 0.5881 0.09034 0.0
C524 C 0.16078 0.55384 0.07944 0.0
C525 C 0.15353 0.54157 0.05108 0.0
C526 C 0.14337 0.56356 0.03382 0.0
C527 C 0.14043 0.59688 0.04393 0.0
C528 C 0.12745 0.61419 0.0208 0.0
C529 C 1.06976 0.60385 0.02416 0.0
C530 C 0.17708 0.6659 0.01904 0.0
C531 C 0.12358 0.58538 0.99618 0.0
C532 C 0.13316 0.55658 0.00423 0.0
C533 C 0.13224 0.52686 0.98533 0.0
C534 C 0.12148 0.52664 0.95744 0.0
C535 C 0.11158 0.55585 0.94855 0.0
C536 C 0.11233 0.58539 0.96833 0.0
H537 H 0.68738 0.05726 0.3894 0.0
H538 H 0.71729 0.18414 0.40954 0.0
H539 H 0.71157 0.19148 0.35995 0.0
H540 H 0.77045 0.09154 0.33024 0.0
H541 H 0.72164 0.03571 0.31102 0.0
H542 H 0.72703 0.0402 0.34795 0.0
H543 H 0.61692 0.99443 0.34878 0.0
H544 H 0.61112 0.98946 0.31184 0.0
H545 H 0.58498 0.01417 0.33135 0.0
H546 H 0.70449 0.18523 0.30805 0.0
H547 H 0.69068 0.1638 0.25799 0.0
H548 H 0.66604 0.04096 0.27204 0.0
C549 C 0.69215 0.08628 0.38322 0.0
C550 C 0.70195 0.1199 0.40293 0.0
C551 C 0.70871 0.15775 0.39449 0.0
C552 C 0.70594 0.16229 0.36646 0.0
C553 C 0.69644 0.1286 0.34735 0.0
C554 C 0.68924 0.09115 0.35538 0.0
C555 C 0.67923 0.05964 0.33084 0.0
C556 C 0.72747 0.05662 0.32997 0.0
C557 C 0.61951 1.01159 0.3307 0.0
C558 C 0.68202 0.08519 0.3077 0.0
C559 C 0.69228 0.125 0.31762 0.0
C560 C 0.6965 0.15417 0.30006 0.0
C561 C 0.68907 0.1419 0.27166 0.0
C562 C 0.67737 0.10075 0.26108 0.0
C563 C 0.67448 0.07244 0.27947 0.0
H564 H 0.54332 0.52512 0.75177 0.0
H565 H 0.71483 0.59023 0.78605 0.0
H566 H 0.75472 0.62083 0.74157 0.0
H567 H 0.55433 0.48711 0.68887 0.0
H568 H 0.51413 0.4977 0.66924 0.0
H569 H 0.50067 0.48718 0.70465 0.0
H570 H 0.52133 0.56451 0.71521 0.0
H571 H 0.53441 0.57517 0.67966 0.0
H572 H 0.58851 0.61718 0.7062 0.0
H573 H 0.77246 0.63227 0.69129 0.0
H574 H 0.76782 0.62945 0.64053 0.0
H575 H 0.58565 0.56052 0.6399 0.0
C576 C 0.5895 0.54693 0.7501 0.0
C577 C 0.6261 0.55541 0.77222 0.0
C578 C 0.68619 0.58367 0.76934 0.0
C579 C 0.70914 0.6011 0.74415 0.0
C580 C 0.6715 0.59068 0.72235 0.0
C581 C 0.61305 0.565 0.72528 0.0
C582 C 0.58115 0.55598 0.69835 0.0
C583 C 0.53488 0.50392 0.68979 0.0
C584 C 0.55481 0.57964 0.69996 0.0
C585 C 0.63025 0.57878 0.67947 0.0
C586 C 0.68215 0.59885 0.69367 0.0
C587 C 0.73241 0.61781 0.6801 0.0
C588 C 0.72941 0.61594 0.65133 0.0
C589 C 0.67666 0.59561 0.63653 0.0
C590 C 0.62683 0.5775 0.65087 0.0
H591 H 0.72205 0.16043 0.57085 0.0
H592 H 0.58746 0.01923 0.53718 0.0
H593 H 0.58422 0.99212 0.58223 0.0
H594 H 0.79334 0.13941 0.6215 0.0
H595 H 0.80446 0.18144 0.64709 0.0
H596 H 0.80408 0.18885 0.61116 0.0
H597 H 0.72371 0.19438 0.6174 0.0
H598 H 0.72375 0.18691 0.65323 0.0
H599 H 0.65774 0.14843 0.63181 0.0
H600 H 0.58983 0.98118 0.63195 0.0
H601 H 0.59697 0.98765 0.68281 0.0
H602 H 0.72184 0.13641 0.68463 0.0
C603 C 0.69329 0.12379 0.57292 0.0
C604 C 0.65592 0.09165 0.5507 0.0
C605 C 0.61697 0.04409 0.55408 0.0
C606 C 0.61502 0.02847 0.57951 0.0
C607 C 0.65162 0.06106 0.60138 0.0
C608 C 0.6897 0.10779 0.59838 0.0
C609 C 0.71865 0.13599 0.62577 0.0
C610 C 0.78401 0.16301 0.62641 0.0
C611 C 0.70512 0.16831 0.63244 0.0
C612 C 0.68986 0.09799 0.64473 0.0
C613 C 0.65246 0.05495 0.63023 0.0
C614 C 0.61939 0.01468 0.64348 0.0
C615 C 0.62378 0.0186 0.67231 0.0
C616 C 0.66 0.06246 0.68745 0.0
C617 C 0.69405 0.10248 0.67343 0.0
H618 H 0.64614 0.51499 0.94206 0.0
H619 H 0.48782 0.43508 0.89001 0.0
H620 H 0.44183 0.37196 0.9197 0.0
H621 H 0.63964 0.42271 0.95995 0.0
H622 H 0.66431 0.44464 0.99541 0.0
H623 H 0.68616 0.48386 0.96981 0.0
H624 H 0.64561 0.51768 0.99703 0.0
H625 H 0.62427 0.47889 0.02286 0.0
H626 H 0.5717 0.47952 0.00618 0.0
H627 H 0.41563 0.31498 0.95243 0.0
H628 H 0.4053 0.27164 0.99022 0.0
H629 H 0.57466 0.39251 0.02555 0.0
C630 C 0.60178 0.48425 0.93706 0.0
C631 C 0.57118 0.47919 0.91319 0.0
C632 C 0.51277 0.43899 0.90763 0.0
C633 C 0.48607 0.403 0.92446 0.0
C634 C 0.51774 0.40832 0.94736 0.0
C635 C 0.57374 0.4483 0.95417 0.0
C636 C 0.59677 0.44562 0.98077 0.0
C637 C 0.64986 0.44943 0.9762 0.0
C638 C 0.61037 0.48262 0.00302 0.0
C639 C 0.54536 0.39761 0.98739 0.0
C640 C 0.5006 0.37658 0.96765 0.0
C641 C 0.44983 0.33141 0.96843 0.0
C642 C 0.44424 0.30715 0.99022 0.0
C643 C 0.48863 0.32834 0.01144 0.0
C644 C 0.53985 0.37444 0.00976 0.0
H645 H 0.22034 0.64631 0.24634 0.0
H646 H 0.19686 0.52071 0.23941 0.0
H647 H 0.18211 0.51423 0.28886 0.0
H648 H 0.30105 0.69209 0.31023 0.0
H649 H 0.26963 0.7166 0.3235 0.0
H650 H 0.27326 0.70945 0.28704 0.0
H651 H 0.16279 0.66156 0.28005 0.0
H652 H 0.15885 0.66875 0.31653 0.0
H653 H 0.11509 0.61175 0.29863 0.0
H654 H 0.17565 0.52344 0.33933 0.0
H655 H 0.17924 0.54867 0.38785 0.0
H656 H 0.20684 0.66825 0.36255 0.0
C657 C 0.21131 0.6172 0.25525 0.0
C658 C 0.20969 0.58399 0.23914 0.0
C659 C 0.19839 0.54659 0.25146 0.0
C660 C 0.18976 0.54249 0.2795 0.0
C661 C 0.19255 0.57612 0.295 0.0
C662 C 0.20293 0.61273 0.28338 0.0
C663 C 0.2066 0.64528 0.30504 0.0
C664 C 0.26618 0.69371 0.30653 0.0
C665 C 0.15793 0.64691 0.29974 0.0
C666 C 0.19795 0.62173 0.3306 0.0
C667 C 0.18929 0.58163 0.3243 0.0
C668 C 0.18186 0.55457 0.34454 0.0
C669 C 0.18376 0.56907 0.37203 0.0
C670 C 0.19339 0.61042 0.37905 0.0
C671 C 0.19998 0.6367 0.35791 0.0
loop_
_geom_bond_atom_site_label_1
_geom_bond_atom_site_label_2
_geom_bond_distance
_geom_bond_site_symmetry_2
_ccdc_geom_bond_type
La0 C2 2.928 . S
La0 O20 2.521 . S
La0 O21 2.628 . S
La0 O22 2.554 . S
La0 O23 2.757 . S
La0 O24 2.470 . S
La0 O29 2.482 . S
La0 O31 2.503 1_455 S
La1 C11 2.928 1_455 S
La1 O23 2.482 . S
La1 O25 2.503 . S
La1 O26 2.521 1_455 S
La1 O27 2.628 1_455 S
La1 O28 2.554 . S
La1 O29 2.757 . S
La1 O30 2.470 1_455 S
C2 La0 2.928 . S
C2 C3 1.503 . S
C2 O20 1.261 . S
C2 O21 1.243 . S
C3 C2 1.503 . S
C3 C4 1.394 . S
C3 C8 1.373 . S
C4 C3 1.394 . S
C4 C5 1.380 . S
C4 H32 0.930 . S
C5 C4 1.380 . S
C5 C6 1.376 . S
C5 H33 0.930 . S
C6 C5 1.376 . S
C6 C7 1.370 . S
C7 C6 1.370 . S
C7 C8 1.396 . S
C7 H34 0.929 . S
C8 C3 1.373 . S
C8 C7 1.396 . S
C8 H35 0.929 . S
C9 O22 1.240 . S
C9 O23 1.289 . S
C10 O24 1.258 . S
C10 O25 1.256 . S
C11 La1 2.928 1_655 S
C11 C12 1.503 . S
C11 O26 1.261 . S
C11 O27 1.243 . S
C12 C11 1.503 . S
C12 C13 1.394 . S
C12 C17 1.373 . S
C13 C12 1.394 . S
C13 C14 1.380 . S
C13 H36 0.930 . S
C14 C13 1.380 . S
C14 C15 1.376 . S
C14 H37 0.930 . S
C15 C14 1.376 . S
C15 C16 1.370 . S
C16 C15 1.370 . S
C16 C17 1.396 . S
C16 H38 0.929 . S
C17 C12 1.373 . S
C17 C16 1.396 . S
C17 H39 0.929 . S
C18 O28 1.240 . S
C18 O29 1.289 . S
C19 O30 1.258 . S
C19 O31 1.256 . S
O20 La0 2.521 . S
O20 C2 1.261 . S
O21 La0 2.628 . S
O21 C2 1.243 . S
O22 La0 2.554 . S
O22 C9 1.240 . S
O23 La0 2.757 . S
O23 La1 2.482 . S
O23 C9 1.289 . S
O24 La0 2.470 . S
O24 C10 1.258 . S
O25 La1 2.503 . S
O25 C10 1.256 . S
O26 La1 2.521 1_655 S
O26 C11 1.261 . S
O27 La1 2.628 1_655 S
O27 C11 1.243 . S
O28 La1 2.554 . S
O28 C18 1.240 . S
O29 La0 2.482 . S
O29 La1 2.757 . S
O29 C18 1.289 . S
O30 La1 2.470 1_655 S
O30 C19 1.258 . S
O31 La0 2.503 1_655 S
O31 C19 1.256 . S
H32 C4 0.930 . S
H33 C5 0.930 . S
H34 C7 0.929 . S
H35 C8 0.929 . S
H36 C13 0.930 . S
H37 C14 0.930 . S
H38 C16 0.929 . S
H39 C17 0.929 . S
La40 C42 2.928 1_545 S
La40 O60 2.521 1_545 S
La40 O61 2.628 1_545 S
La40 O62 2.554 . S
La40 O63 2.757 . S
La40 O64 2.470 1_545 S
La40 O69 2.482 . S
La40 O71 2.503 . S
La41 C51 2.928 . S
La41 O63 2.482 . S
La41 O65 2.503 1_545 S
La41 O66 2.521 . S
La41 O67 2.628 . S
La41 O68 2.554 . S
La41 O69 2.757 . S
La41 O70 2.470 . S
C42 La40 2.928 1_565 S
C42 C43 1.503 . S
C42 O60 1.261 . S
C42 O61 1.243 . S
C43 C42 1.503 . S
C43 C44 1.394 . S
C43 C48 1.373 . S
C44 C43 1.394 . S
C44 C45 1.380 . S
C44 H72 0.930 . S
C45 C44 1.380 . S
C45 C46 1.376 . S
C45 H73 0.930 . S
C46 C45 1.376 . S
C46 C47 1.370 . S
C47 C46 1.370 . S
C47 C48 1.396 . S
C47 H74 0.929 . S
C48 C43 1.373 . S
C48 C47 1.396 . S
C48 H75 0.929 . S
C49 O62 1.240 . S
C49 O63 1.289 . S
C50 O64 1.258 . S
C50 O65 1.256 . S
C51 La41 2.928 . S
C51 C52 1.503 . S
C51 O66 1.261 . S
C51 O67 1.243 . S
C52 C51 1.503 . S
C52 C53 1.394 . S
C52 C57 1.373 . S
C53 C52 1.394 . S
C53 C54 1.380 . S
C53 H76 0.930 . S
C54 C53 1.380 . S
C54 C55 1.376 . S
C54 H77 0.930 . S
C55 C54 1.376 . S
C55 C56 1.370 . S
C56 C55 1.370 . S
C56 C57 1.396 . S
C56 H78 0.929 . S
C57 C52 1.373 . S
C57 C56 1.396 . S
C57 H79 0.929 . S
C58 O68 1.240 . S
C58 O69 1.289 . S
C59 O70 1.258 . S
C59 O71 1.256 . S
O60 La40 2.521 1_565 S
O60 C42 1.261 . S
O61 La40 2.628 1_565 S
O61 C42 1.243 . S
O62 La40 2.554 . S
O62 C49 1.240 . S
O63 La40 2.757 . S
O63 La41 2.482 . S
O63 C49 1.289 . S
O64 La40 2.470 1_565 S
O64 C50 1.258 . S
O65 La41 2.503 1_565 S
O65 C50 1.256 . S
O66 La41 2.521 . S
O66 C51 1.261 . S
O67 La41 2.628 . S
O67 C51 1.243 . S
O68 La41 2.554 . S
O68 C58 1.240 . S
O69 La40 2.482 . S
O69 La41 2.757 . S
O69 C58 1.289 . S
O70 La41 2.470 . S
O70 C59 1.258 . S
O71 La40 2.503 . S
O71 C59 1.256 . S
H72 C44 0.930 . S
H73 C45 0.930 . S
H74 C47 0.929 . S
H75 C48 0.929 . S
H76 C53 0.930 . S
H77 C54 0.930 . S
H78 C56 0.929 . S
H79 C57 0.929 . S
La80 C82 2.928 . S
La80 O100 2.521 . S
La80 O101 2.628 . S
La80 O102 2.554 . S
La80 O103 2.757 . S
La80 O104 2.470 . S
La80 O109 2.482 . S
La80 O111 2.503 . S
La81 C91 2.928 . S
La81 O103 2.482 . S
La81 O105 2.503 . S
La81 O106 2.521 . S
La81 O107 2.628 . S
La81 O108 2.554 . S
La81 O109 2.757 . S
La81 O110 2.470 . S
C82 La80 2.928 . S
C82 C83 1.503 . S
C82 O100 1.261 . S
C82 O101 1.243 . S
C83 C82 1.503 . S
C83 C84 1.394 . S
C83 C88 1.373 . S
C84 C83 1.394 . S
C84 C85 1.380 . S
C84 H112 0.930 . S
C85 C84 1.380 . S
C85 C86 1.376 . S
C85 H113 0.930 . S
C86 C85 1.376 . S
C86 C87 1.370 . S
C87 C86 1.370 . S
C87 C88 1.396 . S
C87 H114 0.929 . S
C88 C83 1.373 . S
C88 C87 1.396 . S
C88 H115 0.929 . S
C89 O102 1.240 . S
C89 O103 1.289 . S
C90 O104 1.258 . S
C90 O105 1.256 . S
C91 La81 2.928 . S
C91 C92 1.503 . S
C91 O106 1.261 . S
C91 O107 1.243 . S
C92 C91 1.503 . S
C92 C93 1.394 . S
C92 C97 1.373 . S
C93 C92 1.394 . S
C93 C94 1.380 . S
C93 H116 0.930 . S
C94 C93 1.380 . S
C94 C95 1.376 . S
C94 H117 0.930 . S
C95 C94 1.376 . S
C95 C96 1.370 . S
C96 C95 1.370 . S
C96 C97 1.396 . S
C96 H118 0.929 . S
C97 C92 1.373 . S
C97 C96 1.396 . S
C97 H119 0.929 . S
C98 O108 1.240 . S
C98 O109 1.289 . S
C99 O110 1.258 . S
C99 O111 1.256 . S
O100 La80 2.521 . S
O100 C82 1.261 . S
O101 La80 2.628 . S
O101 C82 1.243 . S
O102 La80 2.554 . S
O102 C89 1.240 . S
O103 La80 2.757 . S
O103 La81 2.482 . S
O103 C89 1.289 . S
O104 La80 2.470 . S
O104 C90 1.258 . S
O105 La81 2.503 . S
O105 C90 1.256 . S
O106 La81 2.521 . S
O106 C91 1.261 . S
O107 La81 2.628 . S
O107 C91 1.243 . S
O108 La81 2.554 . S
O108 C98 1.240 . S
O109 La80 2.482 . S
O109 La81 2.757 . S
O109 C98 1.289 . S
O110 La81 2.470 . S
O110 C99 1.258 . S
O111 La80 2.503 . S
O111 C99 1.256 . S
H112 C84 0.930 . S
H113 C85 0.930 . S
H114 C87 0.929 . S
H115 C88 0.929 . S
H116 C93 0.930 . S
H117 C94 0.930 . S
H118 C96 0.929 . S
H119 C97 0.929 . S
H120 C123 0.929 . S
H121 C126 0.929 . S
H122 C128 0.930 . S
C123 H120 0.929 . S
C123 C124 1.398 . S
C123 C125 1.396 1_565 S
C124 C123 1.398 . S
C124 C128 1.407 1_565 S
C125 C123 1.396 1_545 S
C125 C126 1.394 . S
C126 H121 0.929 . S
C126 C125 1.394 . S
C126 C127 1.382 . S
C127 C126 1.382 . S
C127 C128 1.392 . S
C127 N129 1.420 . S
C128 H122 0.930 . S
C128 C124 1.407 1_545 S
C128 C127 1.392 . S
N129 C127 1.420 . S
N129 C130 1.244 . S
C130 N129 1.244 . S
H131 C134 0.929 . S
H132 C137 0.929 . S
H133 C139 0.930 . S
C134 H131 0.929 . S
C134 C135 1.398 . S
C134 C136 1.396 . S
C135 C134 1.398 . S
C135 C139 1.407 . S
C136 C134 1.396 . S
C136 C137 1.394 . S
C137 H132 0.929 . S
C137 C136 1.394 . S
C137 C138 1.382 . S
C138 C137 1.382 . S
C138 C139 1.392 . S
C138 N140 1.420 . S
C139 H133 0.930 . S
C139 C135 1.407 . S
C139 C138 1.392 . S
N140 C138 1.420 . S
N140 C141 1.244 . S
C141 N140 1.244 . S
H142 C145 0.929 . S
H143 C148 0.929 . S
H144 C150 0.930 . S
C145 H142 0.929 . S
C145 C146 1.398 . S
C145 C147 1.396 . S
C146 C145 1.398 . S
C146 C150 1.407 . S
C147 C145 1.396 . S
C147 C148 1.394 . S
C148 H143 0.929 . S
C148 C147 1.394 . S
C148 C149 1.382 . S
C149 C148 1.382 . S
C149 C150 1.392 . S
C149 N151 1.420 . S
C150 H144 0.930 . S
C150 C146 1.407 . S
C150 C149 1.392 . S
N151 C149 1.420 . S
N151 C152 1.244 . S
C152 N151 1.244 . S
H153 C156 0.929 . S
H154 C159 0.929 . S
H155 C161 0.930 . S
C156 H153 0.929 . S
C156 C157 1.398 . S
C156 C158 1.396 . S
C157 C156 1.398 . S
C157 C161 1.407 . S
C158 C156 1.396 . S
C158 C159 1.394 1_455 S
C159 H154 0.929 . S
C159 C158 1.394 1_655 S
C159 C160 1.382 . S
C160 C159 1.382 . S
C160 C161 1.392 1_655 S
C160 N162 1.420 . S
C161 H155 0.930 . S
C161 C157 1.407 . S
C161 C160 1.392 1_455 S
N162 C160 1.420 . S
N162 C163 1.244 . S
C163 N162 1.244 . S
H164 C167 0.929 . S
H165 C170 0.929 1_565 S
H166 C172 0.930 . S
C167 H164 0.929 . S
C167 C168 1.398 . S
C167 C169 1.396 . S
C168 C167 1.398 . S
C168 C172 1.407 . S
C169 C167 1.396 . S
C169 C170 1.394 . S
C170 H165 0.929 1_545 S
C170 C169 1.394 . S
C170 C171 1.382 . S
C171 C170 1.382 . S
C171 C172 1.392 . S
C171 N173 1.420 . S
C172 H166 0.930 . S
C172 C168 1.407 . S
C172 C171 1.392 . S
N173 C171 1.420 . S
N173 C174 1.244 1_545 S
C174 N173 1.244 1_565 S
H175 C178 0.929 . S
H176 C181 0.929 . S
H177 C183 0.930 . S
C178 H175 0.929 . S
C178 C179 1.398 . S
C178 C180 1.396 . S
C179 C178 1.398 . S
C179 C183 1.407 . S
C180 C178 1.396 . S
C180 C181 1.394 . S
C181 H176 0.929 . S
C181 C180 1.394 . S
C181 C182 1.382 . S
C182 C181 1.382 . S
C182 C183 1.392 . S
C182 N184 1.420 . S
C183 H177 0.930 . S
C183 C179 1.407 . S
C183 C182 1.392 . S
N184 C182 1.420 . S
N184 C185 1.244 . S
C185 N184 1.244 . S
H186 C198 0.930 . S
H187 C200 0.930 . S
H188 C201 0.930 . S
H189 C205 0.959 . S
H190 C205 0.959 . S
H191 C205 0.961 . S
H192 C206 0.960 . S
H193 C206 0.961 . S
H194 C206 0.959 . S
H195 C209 0.929 . S
H196 C210 0.931 . S
H197 C212 0.930 . S
C198 H186 0.930 . S
C198 C199 1.399 . S
C198 C203 1.399 . S
C199 C198 1.399 . S
C199 C200 1.376 . S
C200 H187 0.930 . S
C200 C199 1.376 . S
C200 C201 1.388 . S
C201 H188 0.930 . S
C201 C200 1.388 . S
C201 C202 1.390 . S
C202 C201 1.390 . S
C202 C203 1.394 . S
C202 C208 1.465 . S
C203 C198 1.399 . S
C203 C202 1.394 . S
C203 C204 1.516 . S
C204 C203 1.516 . S
C204 C205 1.502 . S
C204 C206 1.561 . S
C204 C207 1.526 . S
C205 H189 0.959 . S
C205 H190 0.959 . S
C205 H191 0.961 . S
C205 C204 1.502 . S
C206 H192 0.960 . S
C206 H193 0.961 . S
C206 H194 0.959 . S
C206 C204 1.561 . S
C207 C204 1.526 . S
C207 C208 1.396 . S
C207 C212 1.390 . S
C208 C202 1.465 . S
C208 C207 1.396 . S
C208 C209 1.399 . S
C209 H195 0.929 . S
C209 C208 1.399 . S
C209 C210 1.385 . S
C210 H196 0.931 . S
C210 C209 1.385 . S
C210 C211 1.389 . S
C211 C210 1.389 . S
C211 C212 1.387 . S
C212 H197 0.930 . S
C212 C207 1.390 . S
C212 C211 1.387 . S
H213 C225 0.930 . S
H214 C227 0.930 . S
H215 C228 0.930 . S
H216 C232 0.959 . S
H217 C232 0.959 . S
H218 C232 0.961 . S
H219 C233 0.960 . S
H220 C233 0.961 . S
H221 C233 0.959 . S
H222 C236 0.929 . S
H223 C237 0.931 . S
H224 C239 0.930 . S
C225 H213 0.930 . S
C225 C226 1.399 . S
C225 C230 1.399 . S
C226 C225 1.399 . S
C226 C227 1.376 . S
C227 H214 0.930 . S
C227 C226 1.376 . S
C227 C228 1.388 . S
C228 H215 0.930 . S
C228 C227 1.388 . S
C228 C229 1.390 . S
C229 C228 1.390 . S
C229 C230 1.394 . S
C229 C235 1.465 . S
C230 C225 1.399 . S
C230 C229 1.394 . S
C230 C231 1.516 . S
C231 C230 1.516 . S
C231 C232 1.502 . S
C231 C233 1.561 . S
C231 C234 1.526 . S
C232 H216 0.959 . S
C232 H217 0.959 . S
C232 H218 0.961 . S
C232 C231 1.502 . S
C233 H219 0.960 . S
C233 H220 0.961 . S
C233 H221 0.959 . S
C233 C231 1.561 . S
C234 C231 1.526 . S
C234 C235 1.396 . S
C234 C239 1.390 . S
C235 C229 1.465 . S
C235 C234 1.396 . S
C235 C236 1.399 . S
C236 H222 0.929 . S
C236 C235 1.399 . S
C236 C237 1.385 . S
C237 H223 0.931 . S
C237 C236 1.385 . S
C237 C238 1.389 . S
C238 C237 1.389 . S
C238 C239 1.387 . S
C239 H224 0.930 . S
C239 C234 1.390 . S
C239 C238 1.387 . S
H240 C252 0.930 . S
H241 C254 0.930 . S
H242 C255 0.930 . S
H243 C259 0.959 . S
H244 C259 0.959 . S
H245 C259 0.961 . S
H246 C260 0.960 . S
H247 C260 0.961 . S
H248 C260 0.959 . S
H249 C263 0.929 . S
H250 C264 0.931 . S
H251 C266 0.930 . S
C252 H240 0.930 . S
C252 C253 1.399 . S
C252 C257 1.399 . S
C253 C252 1.399 . S
C253 C254 1.376 . S
C254 H241 0.930 . S
C254 C253 1.376 . S
C254 C255 1.388 . S
C255 H242 0.930 . S
C255 C254 1.388 . S
C255 C256 1.390 . S
C256 C255 1.390 . S
C256 C257 1.394 . S
C256 C262 1.465 . S
C257 C252 1.399 . S
C257 C256 1.394 . S
C257 C258 1.516 . S
C258 C257 1.516 . S
C258 C259 1.502 . S
C258 C260 1.561 . S
C258 C261 1.526 . S
C259 H243 0.959 . S
C259 H244 0.959 . S
C259 H245 0.961 . S
C259 C258 1.502 . S
C260 H246 0.960 . S
C260 H247 0.961 . S
C260 H248 0.959 . S
C260 C258 1.561 . S
C261 C258 1.526 . S
C261 C262 1.396 . S
C261 C266 1.390 . S
C262 C256 1.465 . S
C262 C261 1.396 . S
C262 C263 1.399 . S
C263 H249 0.929 . S
C263 C262 1.399 . S
C263 C264 1.385 . S
C264 H250 0.931 . S
C264 C263 1.385 . S
C264 C265 1.389 . S
C265 C264 1.389 . S
C265 C266 1.387 . S
C266 H251 0.930 . S
C266 C261 1.390 . S
C266 C265 1.387 . S
H267 C279 0.930 . S
H268 C281 0.930 . S
H269 C282 0.930 . S
H270 C286 0.959 . S
H271 C286 0.959 . S
H272 C286 0.961 . S
H273 C287 0.960 . S
H274 C287 0.961 . S
H275 C287 0.959 . S
H276 C290 0.929 . S
H277 C291 0.931 . S
H278 C293 0.930 . S
C279 H267 0.930 . S
C279 C280 1.399 . S
C279 C284 1.399 . S
C280 C279 1.399 . S
C280 C281 1.376 . S
C281 H268 0.930 . S
C281 C280 1.376 . S
C281 C282 1.388 . S
C282 H269 0.930 . S
C282 C281 1.388 . S
C282 C283 1.390 . S
C283 C282 1.390 . S
C283 C284 1.394 . S
C283 C289 1.465 . S
C284 C279 1.399 . S
C284 C283 1.394 . S
C284 C285 1.516 . S
C285 C284 1.516 . S
C285 C286 1.502 . S
C285 C287 1.561 . S
C285 C288 1.526 . S
C286 H270 0.959 . S
C286 H271 0.959 . S
C286 H272 0.961 . S
C286 C285 1.502 . S
C287 H273 0.960 . S
C287 H274 0.961 . S
C287 H275 0.959 . S
C287 C285 1.561 . S
C288 C285 1.526 . S
C288 C289 1.396 . S
C288 C293 1.390 . S
C289 C283 1.465 . S
C289 C288 1.396 . S
C289 C290 1.399 . S
C290 H276 0.929 . S
C290 C289 1.399 . S
C290 C291 1.385 . S
C291 H277 0.931 . S
C291 C290 1.385 . S
C291 C292 1.389 . S
C292 C291 1.389 . S
C292 C293 1.387 . S
C293 H278 0.930 . S
C293 C288 1.390 . S
C293 C292 1.387 . S
H294 C306 0.930 . S
H295 C308 0.930 . S
H296 C309 0.930 . S
H297 C313 0.959 . S
H298 C313 0.959 . S
H299 C313 0.961 . S
H300 C314 0.960 . S
H301 C314 0.961 . S
H302 C314 0.959 . S
H303 C317 0.929 . S
H304 C318 0.931 . S
H305 C320 0.930 . S
C306 H294 0.930 . S
C306 C307 1.399 . S
C306 C311 1.399 . S
C307 C306 1.399 . S
C307 C308 1.376 . S
C308 H295 0.930 . S
C308 C307 1.376 . S
C308 C309 1.388 . S
C309 H296 0.930 . S
C309 C308 1.388 . S
C309 C310 1.390 . S
C310 C309 1.390 . S
C310 C311 1.394 . S
C310 C316 1.465 . S
C311 C306 1.399 . S
C311 C310 1.394 . S
C311 C312 1.516 . S
C312 C311 1.516 . S
C312 C313 1.502 . S
C312 C314 1.561 . S
C312 C315 1.526 . S
C313 H297 0.959 . S
C313 H298 0.959 . S
C313 H299 0.961 . S
C313 C312 1.502 . S
C314 H300 0.960 . S
C314 H301 0.961 . S
C314 H302 0.959 . S
C314 C312 1.561 . S
C315 C312 1.526 . S
C315 C316 1.396 . S
C315 C320 1.390 . S
C316 C310 1.465 . S
C316 C315 1.396 . S
C316 C317 1.399 . S
C317 H303 0.929 . S
C317 C316 1.399 . S
C317 C318 1.385 . S
C318 H304 0.931 . S
C318 C317 1.385 . S
C318 C319 1.389 . S
C319 C318 1.389 . S
C319 C320 1.387 . S
C320 H305 0.930 . S
C320 C315 1.390 . S
C320 C319 1.387 . S
H321 C333 0.930 . S
H322 C335 0.930 . S
H323 C336 0.930 . S
H324 C340 0.959 . S
H325 C340 0.959 . S
H326 C340 0.961 . S
H327 C341 0.960 . S
H328 C341 0.961 . S
H329 C341 0.959 . S
H330 C344 0.929 . S
H331 C345 0.931 . S
H332 C347 0.930 . S
C333 H321 0.930 . S
C333 C334 1.399 . S
C333 C338 1.399 . S
C334 C333 1.399 . S
C334 C335 1.376 . S
C335 H322 0.930 . S
C335 C334 1.376 . S
C335 C336 1.388 . S
C336 H323 0.930 . S
C336 C335 1.388 . S
C336 C337 1.390 . S
C337 C336 1.390 . S
C337 C338 1.394 . S
C337 C343 1.465 . S
C338 C333 1.399 . S
C338 C337 1.394 . S
C338 C339 1.516 . S
C339 C338 1.516 . S
C339 C340 1.502 . S
C339 C341 1.561 . S
C339 C342 1.526 . S
C340 H324 0.959 . S
C340 H325 0.959 . S
C340 H326 0.961 . S
C340 C339 1.502 . S
C341 H327 0.960 . S
C341 H328 0.961 . S
C341 H329 0.959 . S
C341 C339 1.561 . S
C342 C339 1.526 . S
C342 C343 1.396 . S
C342 C347 1.390 . S
C343 C337 1.465 . S
C343 C342 1.396 . S
C343 C344 1.399 . S
C344 H330 0.929 . S
C344 C343 1.399 . S
C344 C345 1.385 . S
C345 H331 0.931 . S
C345 C344 1.385 . S
C345 C346 1.389 . S
C346 C345 1.389 . S
C346 C347 1.387 . S
C347 H332 0.930 . S
C347 C342 1.390 . S
C347 C346 1.387 . S
H348 C360 0.930 . S
H349 C362 0.930 . S
H350 C363 0.930 . S
H351 C367 0.959 . S
H352 C367 0.959 . S
H353 C367 0.961 . S
H354 C368 0.960 . S
H355 C368 0.961 . S
H356 C368 0.959 . S
H357 C371 0.929 . S
H358 C372 0.931 . S
H359 C374 0.930 . S
C360 H348 0.930 . S
C360 C361 1.399 . S
C360 C365 1.399 . S
C361 C360 1.399 . S
C361 C362 1.376 . S
C362 H349 0.930 . S
C362 C361 1.376 . S
C362 C363 1.388 . S
C363 H350 0.930 . S
C363 C362 1.388 . S
C363 C364 1.390 . S
C364 C363 1.390 . S
C364 C365 1.394 . S
C364 C370 1.465 . S
C365 C360 1.399 . S
C365 C364 1.394 . S
C365 C366 1.516 . S
C366 C365 1.516 . S
C366 C367 1.502 . S
C366 C368 1.561 . S
C366 C369 1.526 . S
C367 H351 0.959 . S
C367 H352 0.959 . S
C367 H353 0.961 . S
C367 C366 1.502 . S
C368 H354 0.960 . S
C368 H355 0.961 . S
C368 H356 0.959 . S
C368 C366 1.561 . S
C369 C366 1.526 . S
C369 C370 1.396 . S
C369 C374 1.390 . S
C370 C364 1.465 . S
C370 C369 1.396 . S
C370 C371 1.399 . S
C371 H357 0.929 . S
C371 C370 1.399 . S
C371 C372 1.385 . S
C372 H358 0.931 . S
C372 C371 1.385 . S
C372 C373 1.389 . S
C373 C372 1.389 . S
C373 C374 1.387 . S
C374 H359 0.930 . S
C374 C369 1.390 . S
C374 C373 1.387 . S
H375 C387 0.930 . S
H376 C389 0.930 . S
H377 C390 0.930 . S
H378 C394 0.959 . S
H379 C394 0.959 . S
H380 C394 0.961 . S
H381 C395 0.960 . S
H382 C395 0.961 . S
H383 C395 0.959 . S
H384 C398 0.929 . S
H385 C399 0.931 . S
H386 C401 0.930 . S
C387 H375 0.930 . S
C387 C388 1.399 . S
C387 C392 1.399 . S
C388 C387 1.399 . S
C388 C389 1.376 . S
C389 H376 0.930 . S
C389 C388 1.376 . S
C389 C390 1.388 . S
C390 H377 0.930 . S
C390 C389 1.388 . S
C390 C391 1.390 . S
C391 C390 1.390 . S
C391 C392 1.394 . S
C391 C397 1.465 . S
C392 C387 1.399 . S
C392 C391 1.394 . S
C392 C393 1.516 . S
C393 C392 1.516 . S
C393 C394 1.502 . S
C393 C395 1.561 . S
C393 C396 1.526 . S
C394 H378 0.959 . S
C394 H379 0.959 . S
C394 H380 0.961 . S
C394 C393 1.502 . S
C395 H381 0.960 . S
C395 H382 0.961 . S
C395 H383 0.959 . S
C395 C393 1.561 . S
C396 C393 1.526 . S
C396 C397 1.396 . S
C396 C401 1.390 . S
C397 C391 1.465 . S
C397 C396 1.396 . S
C397 C398 1.399 . S
C398 H384 0.929 . S
C398 C397 1.399 . S
C398 C399 1.385 . S
C399 H385 0.931 . S
C399 C398 1.385 . S
C399 C400 1.389 . S
C400 C399 1.389 . S
C400 C401 1.387 . S
C401 H386 0.930 . S
C401 C396 1.390 . S
C401 C400 1.387 . S
H402 C414 0.930 . S
H403 C416 0.930 . S
H404 C417 0.930 . S
H405 C421 0.959 . S
H406 C421 0.959 . S
H407 C421 0.961 . S
H408 C422 0.960 . S
H409 C422 0.961 . S
H410 C422 0.959 . S
H411 C425 0.929 . S
H412 C426 0.931 . S
H413 C428 0.930 . S
C414 H402 0.930 . S
C414 C415 1.399 . S
C414 C419 1.399 . S
C415 C414 1.399 . S
C415 C416 1.376 . S
C416 H403 0.930 . S
C416 C415 1.376 . S
C416 C417 1.388 . S
C417 H404 0.930 . S
C417 C416 1.388 . S
C417 C418 1.390 . S
C418 C417 1.390 . S
C418 C419 1.394 . S
C418 C424 1.465 . S
C419 C414 1.399 . S
C419 C418 1.394 . S
C419 C420 1.516 . S
C420 C419 1.516 . S
C420 C421 1.502 . S
C420 C422 1.561 . S
C420 C423 1.526 . S
C421 H405 0.959 . S
C421 H406 0.959 . S
C421 H407 0.961 . S
C421 C420 1.502 . S
C422 H408 0.960 . S
C422 H409 0.961 . S
C422 H410 0.959 . S
C422 C420 1.561 . S
C423 C420 1.526 . S
C423 C424 1.396 . S
C423 C428 1.390 . S
C424 C418 1.465 . S
C424 C423 1.396 . S
C424 C425 1.399 . S
C425 H411 0.929 . S
C425 C424 1.399 . S
C425 C426 1.385 . S
C426 H412 0.931 . S
C426 C425 1.385 . S
C426 C427 1.389 . S
C427 C426 1.389 . S
C427 C428 1.387 . S
C428 H413 0.930 . S
C428 C423 1.390 . S
C428 C427 1.387 . S
H429 C441 0.930 . S
H430 C443 0.930 . S
H431 C444 0.930 . S
H432 C448 0.959 . S
H433 C448 0.959 . S
H434 C448 0.961 . S
H435 C449 0.960 . S
H436 C449 0.961 . S
H437 C449 0.959 . S
H438 C452 0.929 . S
H439 C453 0.931 . S
H440 C455 0.930 . S
C441 H429 0.930 . S
C441 C442 1.399 . S
C441 C446 1.399 . S
C442 C441 1.399 . S
C442 C443 1.376 . S
C443 H430 0.930 . S
C443 C442 1.376 . S
C443 C444 1.388 . S
C444 H431 0.930 . S
C444 C443 1.388 . S
C444 C445 1.390 . S
C445 C444 1.390 . S
C445 C446 1.394 . S
C445 C451 1.465 . S
C446 C441 1.399 . S
C446 C445 1.394 . S
C446 C447 1.516 . S
C447 C446 1.516 . S
C447 C448 1.502 . S
C447 C449 1.561 . S
C447 C450 1.526 . S
C448 H432 0.959 . S
C448 H433 0.959 . S
C448 H434 0.961 . S
C448 C447 1.502 . S
C449 H435 0.960 . S
C449 H436 0.961 . S
C449 H437 0.959 . S
C449 C447 1.561 . S
C450 C447 1.526 . S
C450 C451 1.396 . S
C450 C455 1.390 . S
C451 C445 1.465 . S
C451 C450 1.396 . S
C451 C452 1.399 . S
C452 H438 0.929 . S
C452 C451 1.399 . S
C452 C453 1.385 . S
C453 H439 0.931 . S
C453 C452 1.385 . S
C453 C454 1.389 . S
C454 C453 1.389 . S
C454 C455 1.387 . S
C455 H440 0.930 . S
C455 C450 1.390 . S
C455 C454 1.387 . S
H456 C468 0.930 . S
H457 C470 0.930 . S
H458 C471 0.930 . S
H459 C475 0.959 . S
H460 C475 0.959 . S
H461 C475 0.961 . S
H462 C476 0.960 . S
H463 C476 0.961 . S
H464 C476 0.959 . S
H465 C479 0.929 . S
H466 C480 0.931 . S
H467 C482 0.930 . S
C468 H456 0.930 . S
C468 C469 1.399 . S
C468 C473 1.399 . S
C469 C468 1.399 . S
C469 C470 1.376 . S
C470 H457 0.930 . S
C470 C469 1.376 . S
C470 C471 1.388 . S
C471 H458 0.930 . S
C471 C470 1.388 . S
C471 C472 1.390 . S
C472 C471 1.390 . S
C472 C473 1.394 . S
C472 C478 1.465 . S
C473 C468 1.399 . S
C473 C472 1.394 . S
C473 C474 1.516 . S
C474 C473 1.516 . S
C474 C475 1.502 . S
C474 C476 1.561 . S
C474 C477 1.526 . S
C475 H459 0.959 . S
C475 H460 0.959 . S
C475 H461 0.961 . S
C475 C474 1.502 . S
C476 H462 0.960 . S
C476 H463 0.961 . S
C476 H464 0.959 . S
C476 C474 1.561 . S
C477 C474 1.526 . S
C477 C478 1.396 . S
C477 C482 1.390 . S
C478 C472 1.465 . S
C478 C477 1.396 . S
C478 C479 1.399 . S
C479 H465 0.929 . S
C479 C478 1.399 . S
C479 C480 1.385 . S
C480 H466 0.931 . S
C480 C479 1.385 . S
C480 C481 1.389 . S
C481 C480 1.389 . S
C481 C482 1.387 . S
C482 H467 0.930 . S
C482 C477 1.390 . S
C482 C481 1.387 . S
H483 C495 0.930 . S
H484 C497 0.930 . S
H485 C498 0.930 . S
H486 C502 0.959 . S
H487 C502 0.959 . S
H488 C502 0.961 . S
H489 C503 0.960 . S
H490 C503 0.961 . S
H491 C503 0.959 . S
H492 C506 0.929 . S
H493 C507 0.931 . S
H494 C509 0.930 . S
C495 H483 0.930 . S
C495 C496 1.399 . S
C495 C500 1.399 . S
C496 C495 1.399 . S
C496 C497 1.376 . S
C497 H484 0.930 . S
C497 C496 1.376 . S
C497 C498 1.388 . S
C498 H485 0.930 . S
C498 C497 1.388 . S
C498 C499 1.390 . S
C499 C498 1.390 . S
C499 C500 1.394 . S
C499 C505 1.465 . S
C500 C495 1.399 . S
C500 C499 1.394 . S
C500 C501 1.516 . S
C501 C500 1.516 . S
C501 C502 1.502 . S
C501 C503 1.561 . S
C501 C504 1.526 . S
C502 H486 0.959 . S
C502 H487 0.959 . S
C502 H488 0.961 . S
C502 C501 1.502 . S
C503 H489 0.960 . S
C503 H490 0.961 . S
C503 H491 0.959 . S
C503 C501 1.561 . S
C504 C501 1.526 . S
C504 C505 1.396 . S
C504 C509 1.390 . S
C505 C499 1.465 . S
C505 C504 1.396 . S
C505 C506 1.399 . S
C506 H492 0.929 . S
C506 C505 1.399 . S
C506 C507 1.385 . S
C507 H493 0.931 . S
C507 C506 1.385 . S
C507 C508 1.389 . S
C508 C507 1.389 . S
C508 C509 1.387 . S
C509 H494 0.930 . S
C509 C504 1.390 . S
C509 C508 1.387 . S
H510 C522 0.930 . S
H511 C524 0.930 . S
H512 C525 0.930 . S
H513 C529 0.959 . S
H514 C529 0.959 1_556 S
H515 C529 0.961 . S
H516 C530 0.960 . S
H517 C530 0.961 . S
H518 C530 0.959 . S
H519 C533 0.929 . S
H520 C534 0.931 . S
H521 C536 0.930 . S
C522 H510 0.930 . S
C522 C523 1.399 . S
C522 C527 1.399 . S
C523 C522 1.399 . S
C523 C524 1.376 . S
C524 H511 0.930 . S
C524 C523 1.376 . S
C524 C525 1.388 . S
C525 H512 0.930 . S
C525 C524 1.388 . S
C525 C526 1.390 . S
C526 C525 1.390 . S
C526 C527 1.394 . S
C526 C532 1.465 1_554 S
C527 C522 1.399 . S
C527 C526 1.394 . S
C527 C528 1.516 . S
C528 C527 1.516 . S
C528 C529 1.502 . S
C528 C530 1.561 . S
C528 C531 1.526 1_554 S
C529 H513 0.959 . S
C529 H514 0.959 1_554 S
C529 H515 0.961 . S
C529 C528 1.502 . S
C530 H516 0.960 . S
C530 H517 0.961 . S
C530 H518 0.959 . S
C530 C528 1.561 . S
C531 C528 1.526 1_556 S
C531 C532 1.396 . S
C531 C536 1.390 . S
C532 C526 1.465 1_556 S
C532 C531 1.396 . S
C532 C533 1.399 . S
C533 H519 0.929 . S
C533 C532 1.399 . S
C533 C534 1.385 . S
C534 H520 0.931 . S
C534 C533 1.385 . S
C534 C535 1.389 . S
C535 C534 1.389 . S
C535 C536 1.387 . S
C536 H521 0.930 . S
C536 C531 1.390 . S
C536 C535 1.387 . S
H537 C549 0.930 1_565 S
H538 C551 0.930 . S
H539 C552 0.930 . S
H540 C556 0.959 1_545 S
H541 C556 0.959 . S
H542 C556 0.961 . S
H543 C557 0.960 . S
H544 C557 0.961 . S
H545 C557 0.959 . S
H546 C560 0.929 . S
H547 C561 0.931 . S
H548 C563 0.930 1_565 S
C549 H537 0.930 1_545 S
C549 C550 1.399 . S
C549 C554 1.399 . S
C550 C549 1.399 . S
C550 C551 1.376 . S
C551 H538 0.930 . S
C551 C550 1.376 . S
C551 C552 1.388 . S
C552 H539 0.930 . S
C552 C551 1.388 . S
C552 C553 1.390 . S
C553 C552 1.390 . S
C553 C554 1.394 . S
C553 C559 1.465 . S
C554 C549 1.399 . S
C554 C553 1.394 . S
C554 C555 1.516 1_545 S
C555 C554 1.516 1_565 S
C555 C556 1.502 . S
C555 C557 1.561 . S
C555 C558 1.526 1_565 S
C556 H540 0.959 1_565 S
C556 H541 0.959 . S
C556 H542 0.961 . S
C556 C555 1.502 . S
C557 H543 0.960 . S
C557 H544 0.961 . S
C557 H545 0.959 . S
C557 C555 1.561 . S
C558 C555 1.526 1_545 S
C558 C559 1.396 . S
C558 C563 1.390 . S
C559 C553 1.465 . S
C559 C558 1.396 . S
C559 C560 1.399 . S
C560 H546 0.929 . S
C560 C559 1.399 . S
C560 C561 1.385 . S
C561 H547 0.931 . S
C561 C560 1.385 . S
C561 C562 1.389 . S
C562 C561 1.389 . S
C562 C563 1.387 . S
C563 H548 0.930 1_545 S
C563 C558 1.390 . S
C563 C562 1.387 . S
H564 C576 0.930 . S
H565 C578 0.930 . S
H566 C579 0.930 . S
H567 C583 0.959 . S
H568 C583 0.959 . S
H569 C583 0.961 . S
H570 C584 0.960 . S
H571 C584 0.961 . S
H572 C584 0.959 . S
H573 C587 0.929 . S
H574 C588 0.931 . S
H575 C590 0.930 . S
C576 H564 0.930 . S
C576 C577 1.399 . S
C576 C581 1.399 . S
C577 C576 1.399 . S
C577 C578 1.376 . S
C578 H565 0.930 . S
C578 C577 1.376 . S
C578 C579 1.388 . S
C579 H566 0.930 . S
C579 C578 1.388 . S
C579 C580 1.390 . S
C580 C579 1.390 . S
C580 C581 1.394 . S
C580 C586 1.465 . S
C581 C576 1.399 . S
C581 C580 1.394 . S
C581 C582 1.516 . S
C582 C581 1.516 . S
C582 C583 1.502 . S
C582 C584 1.561 . S
C582 C585 1.526 . S
C583 H567 0.959 . S
C583 H568 0.959 . S
C583 H569 0.961 . S
C583 C582 1.502 . S
C584 H570 0.960 . S
C584 H571 0.961 . S
C584 H572 0.959 . S
C584 C582 1.561 . S
C585 C582 1.526 . S
C585 C586 1.396 . S
C585 C590 1.390 . S
C586 C580 1.465 . S
C586 C585 1.396 . S
C586 C587 1.399 . S
C587 H573 0.929 . S
C587 C586 1.399 . S
C587 C588 1.385 . S
C588 H574 0.931 . S
C588 C587 1.385 . S
C588 C589 1.389 . S
C589 C588 1.389 . S
C589 C590 1.387 . S
C590 H575 0.930 . S
C590 C585 1.390 . S
C590 C589 1.387 . S
H591 C603 0.930 . S
H592 C605 0.930 . S
H593 C606 0.930 . S
H594 C610 0.959 . S
H595 C610 0.959 . S
H596 C610 0.961 . S
H597 C611 0.960 . S
H598 C611 0.961 . S
H599 C611 0.959 . S
H600 C614 0.929 . S
H601 C615 0.931 . S
H602 C617 0.930 . S
C603 H591 0.930 . S
C603 C604 1.399 . S
C603 C608 1.399 . S
C604 C603 1.399 . S
C604 C605 1.376 1_545 S
C605 H592 0.930 . S
C605 C604 1.376 1_565 S
C605 C606 1.388 . S
C606 H593 0.930 . S
C606 C605 1.388 . S
C606 C607 1.390 1_565 S
C607 C606 1.390 1_545 S
C607 C608 1.394 . S
C607 C613 1.465 . S
C608 C603 1.399 . S
C608 C607 1.394 . S
C608 C609 1.516 . S
C609 C608 1.516 . S
C609 C610 1.502 . S
C609 C611 1.561 . S
C609 C612 1.526 . S
C610 H594 0.959 . S
C610 H595 0.959 . S
C610 H596 0.961 . S
C610 C609 1.502 . S
C611 H597 0.960 . S
C611 H598 0.961 . S
C611 H599 0.959 . S
C611 C609 1.561 . S
C612 C609 1.526 . S
C612 C613 1.396 . S
C612 C617 1.390 . S
C613 C607 1.465 . S
C613 C612 1.396 . S
C613 C614 1.399 1_545 S
C614 H600 0.929 . S
C614 C613 1.399 1_565 S
C614 C615 1.385 . S
C615 H601 0.931 . S
C615 C614 1.385 . S
C615 C616 1.389 1_565 S
C616 C615 1.389 1_545 S
C616 C617 1.387 . S
C617 H602 0.930 . S
C617 C612 1.390 . S
C617 C616 1.387 . S
H618 C630 0.930 . S
H619 C632 0.930 . S
H620 C633 0.930 . S
H621 C637 0.959 . S
H622 C637 0.959 1_554 S
H623 C637 0.961 . S
H624 C638 0.960 . S
H625 C638 0.961 1_554 S
H626 C638 0.959 . S
H627 C641 0.929 . S
H628 C642 0.931 . S
H629 C644 0.930 . S
C630 H618 0.930 . S
C630 C631 1.399 . S
C630 C635 1.399 . S
C631 C630 1.399 . S
C631 C632 1.376 . S
C632 H619 0.930 . S
C632 C631 1.376 . S
C632 C633 1.388 . S
C633 H620 0.930 . S
C633 C632 1.388 . S
C633 C634 1.390 . S
C634 C633 1.390 . S
C634 C635 1.394 . S
C634 C640 1.465 . S
C635 C630 1.399 . S
C635 C634 1.394 . S
C635 C636 1.516 . S
C636 C635 1.516 . S
C636 C637 1.502 . S
C636 C638 1.561 . S
C636 C639 1.526 1_556 S
C637 H621 0.959 . S
C637 H622 0.959 1_556 S
C637 H623 0.961 . S
C637 C636 1.502 . S
C638 H624 0.960 . S
C638 H625 0.961 1_556 S
C638 H626 0.959 . S
C638 C636 1.561 . S
C639 C636 1.526 1_554 S
C639 C640 1.396 1_554 S
C639 C644 1.390 . S
C640 C634 1.465 . S
C640 C639 1.396 1_556 S
C640 C641 1.399 . S
C641 H627 0.929 . S
C641 C640 1.399 . S
C641 C642 1.385 1_556 S
C642 H628 0.931 . S
C642 C641 1.385 1_554 S
C642 C643 1.389 . S
C643 C642 1.389 . S
C643 C644 1.387 . S
C644 H629 0.930 . S
C644 C639 1.390 . S
C644 C643 1.387 . S
H645 C657 0.930 1_655 S
H646 C659 0.930 . S
H647 C660 0.930 . S
H648 C664 0.959 . S
H649 C664 0.959 . S
H650 C664 0.961 . S
H651 C665 0.960 . S
H652 C665 0.961 . S
H653 C665 0.959 1_455 S
H654 C668 0.929 . S
H655 C669 0.931 . S
H656 C671 0.930 . S
C657 H645 0.930 1_455 S
C657 C658 1.399 . S
C657 C662 1.399 . S
C658 C657 1.399 . S
C658 C659 1.376 . S
C659 H646 0.930 . S
C659 C658 1.376 . S
C659 C660 1.388 . S
C660 H647 0.930 . S
C660 C659 1.388 . S
C660 C661 1.390 . S
C661 C660 1.390 . S
C661 C662 1.394 . S
C661 C667 1.465 . S
C662 C657 1.399 . S
C662 C661 1.394 . S
C662 C663 1.516 1_455 S
C663 C662 1.516 1_655 S
C663 C664 1.502 . S
C663 C665 1.561 . S
C663 C666 1.526 1_655 S
C664 H648 0.959 . S
C664 H649 0.959 . S
C664 H650 0.961 . S
C664 C663 1.502 . S
C665 H651 0.960 . S
C665 H652 0.961 . S
C665 H653 0.959 1_655 S
C665 C663 1.561 . S
C666 C663 1.526 1_455 S
C666 C667 1.396 . S
C666 C671 1.390 1_455 S
C667 C661 1.465 . S
C667 C666 1.396 . S
C667 C668 1.399 . S
C668 H654 0.929 . S
C668 C667 1.399 . S
C668 C669 1.385 . S
C669 H655 0.931 . S
C669 C668 1.385 . S
C669 C670 1.389 . S
C670 C669 1.389 . S
C670 C671 1.387 1_455 S
C671 H656 0.930 . S
C671 C666 1.390 1_655 S
C671 C670 1.387 1_655 S
C199 C6 0.713 . S
C211 C185 0.802 . S
C226 C59 1.930 . S
C238 C163 1.864 . S
C253 C86 1.293 . S
C265 C174 1.302 . S
C280 C15 0.254 . S
C292 C179 0.177 . S
C319 C157 1.813 . S
C307 C50 1.836 . S
C346 C168 1.181 . S
C334 C95 1.176 . S
C361 C46 1.262 . S
C373 C141 1.269 . S
C388 C99 3.040 . S
C400 C146 3.005 1_655 S
C415 C10 1.846 . S
C427 C124 1.841 . S
C454 C135 1.160 . S
C442 C55 1.156 . S
C481 C152 3.031 . S
C469 C90 3.057 . S
C496 C19 1.928 . S
C508 C130 1.885 . S
C535 C147 1.730 . S
C523 C18 1.715 . S
C550 C49 1.439 . S
C562 C125 1.472 . S
C577 C98 1.514 . S
C589 C136 1.551 . S
C616 C169 1.523 . S
C604 C58 1.486 . S
C643 C180 1.266 . S
C631 C89 1.245 . S
C658 C9 1.369 . S
C670 C158 1.411 . S
