# Generated by pormake.
# Topology nom, (4,4)-cn, num edge types: 1
# Building blocks:
#     Node 0, Type 0, BuildingBlock: NAHDIM_clean_linker_0, # of connection points: 4
#     Node 1, Type 0, BuildingBlock: NAHDIM_clean_linker_0, # of connection points: 4
#     Node 2, Type 0, BuildingBlock: NAHDIM_clean_linker_0, # of connection points: 4
#     Node 3, Type 0, BuildingBlock: NAHDIM_clean_linker_0, # of connection points: 4
#     Node 4, Type 0, BuildingBlock: NAHDIM_clean_linker_0, # of connection points: 4
#     Node 5, Type 0, BuildingBlock: NAHDIM_clean_linker_0, # of connection points: 4
#     Node 6, Type 1, BuildingBlock: QUQFOY_clean_sbu_1, # of connection points: 4
#     Node 7, Type 1, BuildingBlock: QUQFOY_clean_sbu_1, # of connection points: 4
#     Node 8, Type 1, BuildingBlock: QUQFOY_clean_sbu_1, # of connection points: 4
#     Node 9, Type 1, BuildingBlock: QUQFOY_clean_sbu_1, # of connection points: 4
#     Node 10, Type 1, BuildingBlock: QUQFOY_clean_sbu_1, # of connection points: 4
#     Node 11, Type 1, BuildingBlock: QUQFOY_clean_sbu_1, # of connection points: 4
#     Edge 12, Type (0, 1), BuildingBlock: AJUNOK_clean_linker_0, # of connection points: 2
#     Edge 13, Type (0, 1), BuildingBlock: AJUNOK_clean_linker_0, # of connection points: 2
#     Edge 14, Type (0, 1), BuildingBlock: AJUNOK_clean_linker_0, # of connection points: 2
#     Edge 15, Type (0, 1), BuildingBlock: AJUNOK_clean_linker_0, # of connection points: 2
#     Edge 16, Type (0, 1), BuildingBlock: AJUNOK_clean_linker_0, # of connection points: 2
#     Edge 17, Type (0, 1), BuildingBlock: AJUNOK_clean_linker_0, # of connection points: 2
#     Edge 18, Type (0, 1), BuildingBlock: AJUNOK_clean_linker_0, # of connection points: 2
#     Edge 19, Type (0, 1), BuildingBlock: AJUNOK_clean_linker_0, # of connection points: 2
#     Edge 20, Type (0, 1), BuildingBlock: AJUNOK_clean_linker_0, # of connection points: 2
#     Edge 21, Type (0, 1), BuildingBlock: AJUNOK_clean_linker_0, # of connection points: 2
#     Edge 22, Type (0, 1), BuildingBlock: AJUNOK_clean_linker_0, # of connection points: 2
#     Edge 23, Type (0, 1), BuildingBlock: AJUNOK_clean_linker_0, # of connection points: 2
#     Edge 24, Type (0, 1), BuildingBlock: AJUNOK_clean_linker_0, # of connection points: 2
#     Edge 25, Type (0, 1), BuildingBlock: AJUNOK_clean_linker_0, # of connection points: 2
#     Edge 26, Type (0, 1), BuildingBlock: AJUNOK_clean_linker_0, # of connection points: 2
#     Edge 27, Type (0, 1), BuildingBlock: AJUNOK_clean_linker_0, # of connection points: 2
#     Edge 28, Type (0, 1), BuildingBlock: AJUNOK_clean_linker_0, # of connection points: 2
#     Edge 29, Type (0, 1), BuildingBlock: AJUNOK_clean_linker_0, # of connection points: 2
#     Edge 30, Type (0, 1), BuildingBlock: AJUNOK_clean_linker_0, # of connection points: 2
#     Edge 31, Type (0, 1), BuildingBlock: AJUNOK_clean_linker_0, # of connection points: 2
#     Edge 32, Type (0, 1), BuildingBlock: AJUNOK_clean_linker_0, # of connection points: 2
#     Edge 33, Type (0, 1), BuildingBlock: AJUNOK_clean_linker_0, # of connection points: 2
#     Edge 34, Type (0, 1), BuildingBlock: AJUNOK_clean_linker_0, # of connection points: 2
#     Edge 35, Type (0, 1), BuildingBlock: AJUNOK_clean_linker_0, # of connection points: 2
# Relax obj value: 0.086
# Max RMSD: 0.161
# Mean RMSD: 0.148
data_MOF--net-nom--node1-QUQFOY_clean_sbu_1--node2-NAHDIM_clean_linker_0--edge1-AJUNOK_clean_linker_0
_symmetry_space_group_name_H-M    P1
_symmetry_Int_Tables_number       1
_symmetry_cell_setting            triclinic
loop_
_symmetry_equiv_pos_as_xyz
'x, y, z'
_cell_length_a     48.921266
_cell_length_b     49.114165
_cell_length_c     54.347637
_cell_angle_alpha  90.175514
_cell_angle_beta   90.136405
_cell_angle_gamma 119.98269
loop_
_atom_site_label
_atom_site_type_symbol
_atom_site_fract_x
_atom_site_fract_y
_atom_site_fract_z
_atom_type_partial_charge
C0 C 0.20544 0.584 0.21705 0.0
C1 C 0.20847 0.60178 0.24107 0.0
C2 C 0.15313 0.58288 0.25318 0.0
C3 C 0.14548 0.55223 0.25983 0.0
C4 C 0.11499 0.53049 0.26795 0.0
C5 C 0.09184 0.53965 0.26963 0.0
C6 C 0.0996 0.57056 0.26322 0.0
C7 C 0.13015 0.59172 0.25504 0.0
C8 C 0.10739 0.49765 0.27466 0.0
C9 C 0.07555 0.58117 0.26492 0.0
C10 C 0.87619 0.35633 0.19222 0.0
C11 C 0.88846 0.39172 0.19102 0.0
C12 C 0.94116 0.42429 0.20765 0.0
C13 C 0.93961 0.44927 0.21868 0.0
C14 C 0.961 0.46729 0.23734 0.0
C15 C 0.9837 0.45938 0.24552 0.0
C16 C 0.9854 0.4343 0.23411 0.0
C17 C 0.96441 0.41745 0.21494 0.0
C18 C 0.9594 0.49478 0.24819 0.0
C19 C 0.00925 0.42517 0.2422 0.0
C20 C 0.87014 0.40822 0.38533 0.0
C21 C 0.88097 0.43685 0.37302 0.0
C22 C 0.913 0.45583 0.36721 0.0
C23 C 0.93451 0.44538 0.37301 0.0
C24 C 0.92368 0.41666 0.38571 0.0
C25 C 0.89168 0.39877 0.39214 0.0
C26 C 0.92371 0.48705 0.35486 0.0
C27 C 0.94574 0.40463 0.39221 0.0
C28 C 0.16992 0.60277 0.42462 0.0
C29 C 0.1514 0.57502 0.44194 0.0
C30 C 0.09599 0.55231 0.43056 0.0
C31 C 0.07679 0.56427 0.42293 0.0
C32 C 0.05174 0.54742 0.40639 0.0
C33 C 0.04556 0.51766 0.39776 0.0
C34 C 0.06358 0.50452 0.40678 0.0
C35 C 0.08863 0.522 0.42313 0.0
C36 C 0.03271 0.56189 0.39736 0.0
C37 C 0.05693 0.47239 0.39856 0.0
C38 C 0.05933 0.5168 0.27769 0.0
C39 C 0.03702 0.49924 0.2596 0.0
C40 C 0.00588 0.47744 0.26578 0.0
C41 C 0.9965 0.47311 0.29074 0.0
C42 C 0.96551 0.45107 0.29771 0.0
C43 C 0.95622 0.44796 0.3222 0.0
C44 C 0.97765 0.46652 0.34073 0.0
C45 C 0.96816 0.46444 0.36559 0.0
C46 C 0.99066 0.48167 0.38374 0.0
C47 C 0.02234 0.5015 0.37767 0.0
C48 C 0.03183 0.50533 0.35276 0.0
C49 C 0.06319 0.52642 0.34592 0.0
C50 C 0.07225 0.53025 0.32137 0.0
C51 C 0.0504 0.51291 0.30272 0.0
C52 C 0.01879 0.49121 0.30922 0.0
C53 C 0.00942 0.48765 0.33426 0.0
C54 C 0.80217 0.34826 0.36641 0.0
C55 C 0.81388 0.38183 0.37581 0.0
O56 O 0.18199 0.60467 0.24468 0.0
O57 O 0.12124 0.57043 0.44517 0.0
O58 O 0.83928 0.38971 0.39144 0.0
O59 O 0.92103 0.40702 0.18939 0.0
H60 H 0.21119 0.58876 0.25673 0.0
H61 H 0.18492 0.5598 0.21783 0.0
H62 H 0.20211 0.59616 0.2011 0.0
H63 H 0.22698 0.58227 0.21406 0.0
H64 H 0.16298 0.54497 0.2586 0.0
H65 H 0.13628 0.61542 0.24993 0.0
H66 H 0.08758 0.48028 0.26305 0.0
H67 H 0.12792 0.49406 0.27226 0.0
H68 H 0.0996 0.49284 0.29412 0.0
H69 H 0.08556 0.60626 0.25986 0.0
H70 H 0.05533 0.56656 0.25251 0.0
H71 H 0.06624 0.57778 0.28396 0.0
H72 H 0.8811 0.39858 0.20828 0.0
H73 H 0.8502 0.34307 0.1948 0.0
H74 H 0.88212 0.34806 0.17505 0.0
H75 H 0.88722 0.35111 0.20804 0.0
H76 H 0.92201 0.45493 0.21237 0.0
H77 H 0.96554 0.39832 0.20594 0.0
H78 H 0.9834 0.51568 0.24971 0.0
H79 H 0.94434 0.50107 0.23699 0.0
H80 H 0.94939 0.48876 0.26699 0.0
H81 H 0.00465 0.40259 0.23382 0.0
H82 H 0.03323 0.44379 0.23674 0.0
H83 H 0.0091 0.42303 0.26255 0.0
H84 H 0.8213 0.39717 0.35929 0.0
H85 H 0.86457 0.44478 0.36835 0.0
H86 H 0.88314 0.37682 0.40193 0.0
H87 H 0.92773 0.48502 0.33502 0.0
H88 H 0.90586 0.49464 0.35644 0.0
H89 H 0.94628 0.50559 0.36298 0.0
H90 H 0.93289 0.38006 0.39904 0.0
H91 H 0.95992 0.40569 0.37593 0.0
H92 H 0.96239 0.41979 0.40678 0.0
H93 H 0.15035 0.554 0.4333 0.0
H94 H 0.19421 0.60688 0.42196 0.0
H95 H 0.15802 0.59761 0.40638 0.0
H96 H 0.17131 0.62449 0.43216 0.0
H97 H 0.08228 0.58743 0.42923 0.0
H98 H 0.10238 0.51192 0.43006 0.0
H99 H 0.03576 0.5656 0.37718 0.0
H100 H 0.00724 0.54561 0.40081 0.0
H101 H 0.0398 0.58478 0.40645 0.0
H102 H 0.0709 0.46418 0.40911 0.0
H103 H 0.03144 0.45504 0.40067 0.0
H104 H 0.06275 0.47313 0.37875 0.0
H105 H 0.04401 0.50256 0.24042 0.0
H106 H 0.94797 0.43616 0.28427 0.0
H107 H 0.93199 0.43081 0.32643 0.0
H108 H 0.98344 0.47968 0.40282 0.0
H109 H 0.08107 0.54047 0.35944 0.0
H110 H 0.09663 0.547 0.31719 0.0
H111 H 0.79083 0.33097 0.38147 0.0
H112 H 0.78536 0.34247 0.35085 0.0
H113 H 0.8224 0.34625 0.35937 0.0
C114 C 0.36983 0.83784 0.62043 0.0
C115 C 0.36268 0.82652 0.59367 0.0
C116 C 0.36752 0.87284 0.57201 0.0
C117 C 0.40061 0.88925 0.56978 0.0
C118 C 0.41661 0.91965 0.5599 0.0
C119 C 0.39941 0.9345 0.55281 0.0
C120 C 0.36618 0.91829 0.55532 0.0
C121 C 0.35067 0.88748 0.56452 0.0
C122 C 0.45201 0.93594 0.55714 0.0
C123 C 0.34708 0.93356 0.54842 0.0
C124 C 0.53031 0.16681 0.64687 0.0
C125 C 0.50753 0.14503 0.62819 0.0
C126 C 0.49505 0.09624 0.60663 0.0
C127 C 0.46716 0.09148 0.59522 0.0
C128 C 0.45126 0.06714 0.57798 0.0
C129 C 0.46417 0.04799 0.57133 0.0
C130 C 0.49236 0.05292 0.58273 0.0
C131 C 0.50708 0.07667 0.60053 0.0
C132 C 0.42069 0.06196 0.56688 0.0
C133 C 0.50697 0.03311 0.57624 0.0
C134 C 0.50264 0.14745 0.42883 0.0
C135 C 0.47 0.13053 0.43351 0.0
C136 C 0.45489 0.0986 0.4398 0.0
C137 C 0.4726 0.08307 0.44119 0.0
C138 C 0.50509 0.09954 0.43533 0.0
C139 C 0.51966 0.13155 0.42916 0.0
C140 C 0.42009 0.08165 0.44566 0.0
C141 C 0.52456 0.08356 0.43638 0.0
C142 C 0.32871 0.83336 0.39397 0.0
C143 C 0.36075 0.85947 0.38492 0.0
C144 C 0.37715 0.91436 0.39354 0.0
C145 C 0.3633 0.93225 0.4 0.0
C146 C 0.37963 0.95938 0.41458 0.0
C147 C 0.41078 0.96902 0.42241 0.0
C148 C 0.42578 0.95237 0.41428 0.0
C149 C 0.40879 0.92516 0.39988 0.0
C150 C 0.36315 0.97696 0.42252 0.0
C151 C 0.45932 0.96262 0.42165 0.0
C152 C 0.41637 0.96714 0.54314 0.0
C153 C 0.43096 0.99186 0.56008 0.0
C154 C 0.44848 0.02307 0.5523 0.0
C155 C 0.45137 0.03004 0.52687 0.0
C156 C 0.46906 0.06112 0.51836 0.0
C157 C 0.47105 0.06781 0.49336 0.0
C158 C 0.45597 0.04363 0.47582 0.0
C159 C 0.45744 0.05025 0.45037 0.0
C160 C 0.44284 0.02558 0.43336 0.0
C161 C 0.42634 0.99431 0.44115 0.0
C162 C 0.42405 0.98729 0.46657 0.0
C163 C 0.40717 0.9561 0.47504 0.0
C164 C 0.40482 0.94942 0.50006 0.0
C165 C 0.41897 0.97366 0.51763 0.0
C166 C 0.43635 0.00525 0.5095 0.0
C167 C 0.43888 0.01205 0.48394 0.0
C168 C 0.50464 0.20323 0.45696 0.0
C169 C 0.5081 0.20004 0.42915 0.0
O170 O 0.35091 0.84311 0.58114 0.0
O171 O 0.35924 0.88668 0.38154 0.0
O172 O 0.51864 0.179 0.42451 0.0
O173 O 0.51087 0.11904 0.62376 0.0
H174 H 0.38461 0.8302 0.58471 0.0
H175 H 0.38781 0.86323 0.62112 0.0
H176 H 0.34811 0.83438 0.62971 0.0
H177 H 0.37928 0.82473 0.63063 0.0
H178 H 0.41434 0.8787 0.57552 0.0
H179 H 0.32521 0.87478 0.56631 0.0
H180 H 0.46315 0.95513 0.57096 0.0
H181 H 0.46131 0.91966 0.55993 0.0
H182 H 0.45913 0.94664 0.53861 0.0
H183 H 0.32184 0.91891 0.55354 0.0
H184 H 0.35693 0.95683 0.55763 0.0
H185 H 0.34851 0.93759 0.52827 0.0
H186 H 0.48264 0.13905 0.63136 0.0
H187 H 0.51529 0.16619 0.66277 0.0
H188 H 0.54013 0.15344 0.65683 0.0
H189 H 0.55864 0.20774 0.62693 0.0
H190 H 0.45739 0.10629 0.59986 0.0
H191 H 0.52851 0.08044 0.60954 0.0
H192 H 0.4027 0.03656 0.56684 0.0
H193 H 0.4111 0.07504 0.57698 0.0
H194 H 0.42472 0.07004 0.54751 0.0
H195 H 0.53155 0.04355 0.58327 0.0
H196 H 0.49272 0.00952 0.58456 0.0
H197 H 0.50706 0.02999 0.556 0.0
H198 H 0.48479 0.19138 0.42006 0.0
H199 H 0.45616 0.14211 0.43276 0.0
H200 H 0.54472 0.14458 0.42526 0.0
H201 H 0.41655 0.07397 0.46516 0.0
H202 H 0.4093 0.09662 0.44271 0.0
H203 H 0.40749 0.06025 0.43401 0.0
H204 H 0.54918 0.09915 0.43013 0.0
H205 H 0.52515 0.07614 0.45556 0.0
H206 H 0.51351 0.06205 0.42472 0.0
H207 H 0.37789 0.86278 0.39972 0.0
H208 H 0.32922 0.81116 0.39645 0.0
H209 H 0.32319 0.84019 0.41199 0.0
H210 H 0.30961 0.82916 0.38076 0.0
H211 H 0.33909 0.92406 0.39451 0.0
H212 H 0.42011 0.91218 0.39386 0.0
H213 H 0.36127 0.97652 0.4429 0.0
H214 H 0.37726 0.00194 0.41689 0.0
H215 H 0.3391 0.96678 0.41448 0.0
H216 H 0.46882 0.94949 0.41151 0.0
H217 H 0.47476 0.98816 0.41823 0.0
H218 H 0.46025 0.95867 0.44166 0.0
H219 H 0.42895 0.9867 0.57961 0.0
H220 H 0.4814 0.08072 0.53094 0.0
H221 H 0.48469 0.09222 0.48798 0.0
H222 H 0.44396 0.0308 0.41389 0.0
H223 H 0.39549 0.93641 0.46245 0.0
H224 H 0.39161 0.92498 0.50544 0.0
H225 H 0.49723 0.22089 0.46056 0.0
H226 H 0.48645 0.18061 0.46491 0.0
H227 H 0.52734 0.21067 0.46665 0.0
C228 C 0.64725 0.46126 0.76258 0.0
C229 C 0.63158 0.44346 0.73877 0.0
C230 C 0.59432 0.46136 0.72655 0.0
C231 C 0.61683 0.492 0.71939 0.0
C232 C 0.60728 0.51275 0.71032 0.0
C233 C 0.57472 0.50259 0.70831 0.0
C234 C 0.55211 0.47164 0.71518 0.0
C235 C 0.56228 0.45151 0.72427 0.0
C236 C 0.6319 0.54563 0.70309 0.0
C237 C 0.51719 0.45994 0.7132 0.0
C238 C 0.55974 0.63134 0.83481 0.0
C239 C 0.5318 0.61397 0.81714 0.0
C240 C 0.5398 0.61238 0.77322 0.0
C241 C 0.5155 0.58162 0.76826 0.0
C242 C 0.51695 0.56517 0.74765 0.0
C243 C 0.54326 0.57985 0.73178 0.0
C244 C 0.56699 0.6114 0.7361 0.0
C245 C 0.56469 0.62744 0.75668 0.0
C246 C 0.49083 0.53184 0.74321 0.0
C247 C 0.59532 0.62777 0.71951 0.0
C248 C 0.46511 0.61814 0.60075 0.0
C249 C 0.44784 0.58581 0.60567 0.0
C250 C 0.46311 0.56822 0.60819 0.0
C251 C 0.4963 0.58332 0.60565 0.0
C252 C 0.51343 0.6154 0.59894 0.0
C253 C 0.49749 0.63238 0.59635 0.0
C254 C 0.44398 0.53384 0.61465 0.0
C255 C 0.54875 0.63205 0.59576 0.0
C256 C 0.58906 0.43927 0.56558 0.0
C257 C 0.59747 0.4627 0.54448 0.0
C258 C 0.56222 0.48362 0.55083 0.0
C259 C 0.53057 0.47041 0.55752 0.0
C260 C 0.52053 0.48701 0.57254 0.0
C261 C 0.54272 0.51775 0.58051 0.0
C262 C 0.57419 0.5322 0.57195 0.0
C263 C 0.58365 0.51491 0.55722 0.0
C264 C 0.48672 0.47112 0.58105 0.0
C265 C 0.59819 0.56536 0.57938 0.0
C266 C 0.56405 0.52452 0.69995 0.0
C267 C 0.55953 0.54235 0.71782 0.0
C268 C 0.54703 0.56155 0.71168 0.0
C269 C 0.53844 0.5629 0.68707 0.0
C270 C 0.52458 0.58094 0.68046 0.0
C271 C 0.5162 0.58207 0.65616 0.0
C272 C 0.52163 0.56542 0.63748 0.0
C273 C 0.51321 0.56642 0.61269 0.0
C274 C 0.52008 0.55058 0.59445 0.0
C275 C 0.53448 0.533 0.60047 0.0
C276 C 0.54169 0.53053 0.62531 0.0
C277 C 0.55477 0.51178 0.6321 0.0
C278 C 0.56197 0.50964 0.65653 0.0
C279 C 0.55677 0.52648 0.67507 0.0
C280 C 0.54372 0.5456 0.66865 0.0
C281 C 0.5357 0.54721 0.64379 0.0
C282 C 0.44377 0.66437 0.63369 0.0
C283 C 0.42966 0.634 0.61844 0.0
O284 O 0.60205 0.44055 0.7361 0.0
O285 O 0.57144 0.46558 0.53844 0.0
O286 O 0.4513 0.63622 0.60096 0.0
O287 O 0.54029 0.62773 0.79413 0.0
H288 H 0.64658 0.45632 0.72277 0.0
H289 H 0.65041 0.48525 0.76211 0.0
H290 H 0.63248 0.44872 0.77875 0.0
H291 H 0.67087 0.4635 0.76482 0.0
H292 H 0.64175 0.50004 0.72109 0.0
H293 H 0.54513 0.42783 0.72982 0.0
H294 H 0.62951 0.56293 0.71475 0.0
H295 H 0.65629 0.54974 0.70507 0.0
H296 H 0.62809 0.55001 0.68369 0.0
H297 H 0.50263 0.43496 0.71879 0.0
H298 H 0.51102 0.47452 0.72504 0.0
H299 H 0.51103 0.46233 0.69396 0.0
H300 H 0.52704 0.58932 0.81644 0.0
H301 H 0.55336 0.62088 0.85348 0.0
H302 H 0.5801 0.62927 0.82817 0.0
H303 H 0.56715 0.65669 0.83601 0.0
H304 H 0.49561 0.57037 0.78065 0.0
H305 H 0.58306 0.65136 0.76056 0.0
H306 H 0.49984 0.5155 0.74688 0.0
H307 H 0.47016 0.5253 0.75526 0.0
H308 H 0.483 0.52862 0.72369 0.0
H309 H 0.61209 0.65212 0.72577 0.0
H310 H 0.60794 0.61424 0.71881 0.0
H311 H 0.58749 0.62871 0.7005 0.0
H312 H 0.42515 0.61533 0.63209 0.0
H313 H 0.42252 0.57447 0.60805 0.0
H314 H 0.5105 0.65724 0.59212 0.0
H315 H 0.44987 0.53031 0.63368 0.0
H316 H 0.41819 0.52486 0.6135 0.0
H317 H 0.45002 0.51973 0.60212 0.0
H318 H 0.55841 0.65654 0.58914 0.0
H319 H 0.56011 0.63266 0.61363 0.0
H320 H 0.55513 0.61894 0.58247 0.0
H321 H 0.61729 0.48569 0.55073 0.0
H322 H 0.60964 0.43654 0.57041 0.0
H323 H 0.58244 0.44797 0.58213 0.0
H324 H 0.56885 0.41595 0.56034 0.0
H325 H 0.51408 0.44644 0.55197 0.0
H326 H 0.60782 0.52579 0.55096 0.0
H327 H 0.48592 0.46796 0.60131 0.0
H328 H 0.47634 0.48618 0.57688 0.0
H329 H 0.472 0.44777 0.57221 0.0
H330 H 0.62009 0.57483 0.56829 0.0
H331 H 0.58809 0.58108 0.57732 0.0
H332 H 0.60451 0.56574 0.59905 0.0
H333 H 0.56542 0.54092 0.73686 0.0
H334 H 0.51992 0.59428 0.69403 0.0
H335 H 0.50558 0.59634 0.65221 0.0
H336 H 0.51411 0.5519 0.57542 0.0
H337 H 0.55943 0.49832 0.61865 0.0
H338 H 0.5719 0.49479 0.66067 0.0
H339 H 0.45309 0.6855 0.62188 0.0
H340 H 0.42578 0.66399 0.64636 0.0
H341 H 0.46372 0.66648 0.64496 0.0
C342 C 0.19454 0.5394 0.94365 0.0
C343 C 0.20519 0.5435 0.91677 0.0
C344 C 0.1583 0.50101 0.89609 0.0
C345 C 0.1417 0.51736 0.89314 0.0
C346 C 0.11035 0.50193 0.88477 0.0
C347 C 0.09483 0.46927 0.87988 0.0
C348 C 0.11142 0.45272 0.88262 0.0
C349 C 0.1431 0.46894 0.89037 0.0
C350 C 0.09375 0.52058 0.88129 0.0
C351 C 0.09556 0.41788 0.87756 0.0
C352 C 0.87409 0.3822 0.98783 0.0
C353 C 0.89468 0.37767 0.97013 0.0
C354 C 0.9416 0.41014 0.94542 0.0
C355 C 0.94383 0.38539 0.93442 0.0
C356 C 0.96536 0.39128 0.91531 0.0
C357 C 0.98411 0.42234 0.90648 0.0
C358 C 0.98167 0.4472 0.91751 0.0
C359 C 0.96084 0.44077 0.93714 0.0
C360 C 0.96807 0.36434 0.9046 0.0
C361 C 0.00121 0.4807 0.90885 0.0
C362 C 0.8668 0.35209 0.76927 0.0
C363 C 0.88429 0.33723 0.77497 0.0
C364 C 0.91679 0.35485 0.77982 0.0
C365 C 0.93224 0.38805 0.77917 0.0
C366 C 0.915 0.40312 0.77286 0.0
C367 C 0.88251 0.38489 0.76789 0.0
C368 C 0.93456 0.33795 0.78608 0.0
C369 C 0.93081 0.43847 0.7719 0.0
C370 C 0.17115 0.50866 0.72405 0.0
C371 C 0.14788 0.51483 0.70961 0.0
C372 C 0.09462 0.4735 0.71934 0.0
C373 C 0.08061 0.44159 0.72502 0.0
C374 C 0.05546 0.42767 0.74169 0.0
C375 C 0.0439 0.44616 0.7525 0.0
C376 C 0.05652 0.47789 0.7454 0.0
C377 C 0.08173 0.49122 0.7288 0.0
C378 C 0.04214 0.39365 0.74859 0.0
C379 C 0.04408 0.49799 0.75602 0.0
C380 C 0.06099 0.45246 0.87257 0.0
C381 C 0.03849 0.44306 0.89123 0.0
C382 C 0.0063 0.42905 0.88576 0.0
C383 C 0.99602 0.42351 0.86095 0.0
C384 C 0.96384 0.4095 0.85473 0.0
C385 C 0.95397 0.40379 0.83028 0.0
C386 C 0.97594 0.4126 0.81106 0.0
C387 C 0.96613 0.40679 0.78614 0.0
C388 C 0.98868 0.41758 0.76742 0.0
C389 C 0.02094 0.43347 0.77298 0.0
C390 C 0.03114 0.43802 0.79779 0.0
C391 C 0.0634 0.4528 0.80398 0.0
C392 C 0.07323 0.45736 0.82843 0.0
C393 C 0.05121 0.44751 0.84766 0.0
C394 C 0.01859 0.43274 0.84186 0.0
C395 C 0.00854 0.42773 0.81689 0.0
C396 C 0.80946 0.29697 0.7967 0.0
C397 C 0.81461 0.30404 0.76907 0.0
O398 O 0.18873 0.51503 0.90431 0.0
O399 O 0.12054 0.48656 0.70479 0.0
O400 O 0.83498 0.33591 0.76534 0.0
O401 O 0.92152 0.40564 0.96415 0.0
H402 H 0.20062 0.56118 0.90803 0.0
H403 H 0.16901 0.5317 0.9446 0.0
H404 H 0.19847 0.52142 0.95279 0.0
H405 H 0.20781 0.56203 0.95381 0.0
H406 H 0.15278 0.54218 0.89714 0.0
H407 H 0.156 0.45646 0.89254 0.0
H408 H 0.07515 0.51351 0.89543 0.0
H409 H 0.11012 0.54631 0.88295 0.0
H410 H 0.0821 0.5155 0.86296 0.0
H411 H 0.11146 0.40824 0.88113 0.0
H412 H 0.07427 0.40526 0.88925 0.0
H413 H 0.08763 0.4131 0.85807 0.0
H414 H 0.8996 0.35849 0.97496 0.0
H415 H 0.87402 0.36917 0.00487 0.0
H416 H 0.88889 0.40619 0.99637 0.0
H417 H 0.83317 0.36982 0.9674 0.0
H418 H 0.92926 0.36158 0.94091 0.0
H419 H 0.95904 0.45968 0.94588 0.0
H420 H 0.99325 0.37087 0.90307 0.0
H421 H 0.95554 0.34273 0.91589 0.0
H422 H 0.95774 0.35891 0.88581 0.0
H423 H 0.99163 0.4957 0.91545 0.0
H424 H 0.02553 0.49061 0.9162 0.0
H425 H 0.00253 0.48186 0.88846 0.0
H426 H 0.82502 0.29057 0.76085 0.0
H427 H 0.87289 0.31192 0.77594 0.0
H428 H 0.86902 0.39624 0.76334 0.0
H429 H 0.94238 0.3427 0.80559 0.0
H430 H 0.91992 0.31212 0.78342 0.0
H431 H 0.956 0.34687 0.77451 0.0
H432 H 0.914 0.44667 0.76719 0.0
H433 H 0.94189 0.44865 0.78999 0.0
H434 H 0.94989 0.4476 0.75797 0.0
H435 H 0.14278 0.53032 0.72137 0.0
H436 H 0.19338 0.5311 0.72766 0.0
H437 H 0.16069 0.49777 0.74202 0.0
H438 H 0.17677 0.49247 0.71383 0.0
H439 H 0.09033 0.42797 0.71714 0.0
H440 H 0.09145 0.51551 0.72338 0.0
H441 H 0.04672 0.39203 0.76841 0.0
H442 H 0.01617 0.38065 0.74582 0.0
H443 H 0.05262 0.38203 0.73764 0.0
H444 H 0.05435 0.52127 0.74692 0.0
H445 H 0.01799 0.48576 0.75415 0.0
H446 H 0.04981 0.50181 0.77596 0.0
H447 H 0.0462 0.44748 0.9103 0.0
H448 H 0.94585 0.40256 0.86869 0.0
H449 H 0.92888 0.39266 0.82665 0.0
H450 H 0.98106 0.41354 0.74834 0.0
H451 H 0.08148 0.46093 0.78999 0.0
H452 H 0.09834 0.46882 0.83206 0.0
H453 H 0.79286 0.27152 0.79966 0.0
H454 H 0.83201 0.30312 0.80605 0.0
H455 H 0.79963 0.31072 0.80542 0.0
C456 C 0.39228 0.82628 0.88143 0.0
C457 C 0.40548 0.82243 0.90595 0.0
C458 C 0.44294 0.87671 0.91968 0.0
C459 C 0.42054 0.88577 0.92528 0.0
C460 C 0.43016 0.91619 0.93414 0.0
C461 C 0.46268 0.93776 0.93759 0.0
C462 C 0.48514 0.92842 0.93246 0.0
C463 C 0.47492 0.89804 0.92349 0.0
C464 C 0.40568 0.92543 0.93966 0.0
C465 C 0.52001 0.95063 0.93625 0.0
C466 C 0.47481 0.09367 0.82846 0.0
C467 C 0.50572 0.11815 0.84084 0.0
C468 C 0.51486 0.08652 0.87159 0.0
C469 C 0.53428 0.07415 0.87728 0.0
C470 C 0.52843 0.05487 0.89781 0.0
C471 C 0.50198 0.04732 0.9128 0.0
C472 C 0.48235 0.06009 0.90736 0.0
C473 C 0.48929 0.08002 0.88701 0.0
C474 C 0.55015 0.04203 0.90305 0.0
C475 C 0.45371 0.05221 0.92276 0.0
C476 C 0.57914 0.15839 0.06002 0.0
C477 C 0.59336 0.14039 0.05541 0.0
C478 C 0.5763 0.11025 0.04517 0.0
C479 C 0.54367 0.09721 0.04038 0.0
C480 C 0.52911 0.11553 0.04457 0.0
C481 C 0.54718 0.14627 0.05396 0.0
C482 C 0.59312 0.09207 0.04032 0.0
C483 C 0.49433 0.10228 0.03982 0.0
C484 C 0.46115 0.86528 0.09875 0.0
C485 C 0.45051 0.8849 0.1135 0.0
C486 C 0.48169 0.93901 0.10013 0.0
C487 C 0.51216 0.95676 0.09084 0.0
C488 C 0.51919 0.98009 0.07319 0.0
C489 C 0.49524 0.98631 0.06532 0.0
C490 C 0.46479 0.96962 0.07581 0.0
C491 C 0.45829 0.94601 0.09309 0.0
C492 C 0.5521 0.99775 0.06278 0.0
C493 C 0.43899 0.97631 0.06837 0.0
C494 C 0.47356 0.97051 0.94568 0.0
C495 C 0.48015 0.99297 0.92751 0.0
C496 C 0.49415 0.0249 0.9334 0.0
C497 C 0.50176 0.03489 0.95815 0.0
C498 C 0.5174 0.06695 0.96461 0.0
C499 C 0.52499 0.07649 0.98902 0.0
C500 C 0.51697 0.05433 0.00794 0.0
C501 C 0.52469 0.06372 0.0328 0.0
C502 C 0.51661 0.04101 0.05109 0.0
C503 C 0.50159 0.00904 0.04522 0.0
C504 C 0.494 0.99918 0.02045 0.0
C505 C 0.47965 0.96721 0.01385 0.0
C506 C 0.47278 0.95775 0.9894 0.0
C507 C 0.47984 0.97985 0.97063 0.0
C508 C 0.49409 0.01219 0.97686 0.0
C509 C 0.50144 0.0219 0.00179 0.0
C510 C 0.57237 0.20926 0.09553 0.0
C511 C 0.59225 0.21197 0.07293 0.0
O512 O 0.43519 0.84805 0.91028 0.0
O513 O 0.47554 0.91536 0.11591 0.0
O514 O 0.59697 0.18649 0.07141 0.0
O515 O 0.52157 0.10402 0.85084 0.0
H516 H 0.38937 0.82041 0.92112 0.0
H517 H 0.38977 0.84751 0.88186 0.0
H518 H 0.40827 0.82873 0.86604 0.0
H519 H 0.36862 0.80554 0.87785 0.0
H520 H 0.39565 0.86952 0.92254 0.0
H521 H 0.49198 0.89078 0.91923 0.0
H522 H 0.40944 0.94518 0.92757 0.0
H523 H 0.38123 0.90565 0.93687 0.0
H524 H 0.40831 0.93382 0.95899 0.0
H525 H 0.53441 0.93961 0.9316 0.0
H526 H 0.52782 0.97177 0.92464 0.0
H527 H 0.52466 0.95861 0.95572 0.0
H528 H 0.50033 0.13045 0.85564 0.0
H529 H 0.46287 0.10547 0.81984 0.0
H530 H 0.47932 0.08031 0.81407 0.0
H531 H 0.45839 0.07664 0.84209 0.0
H532 H 0.55404 0.07945 0.86534 0.0
H533 H 0.47436 0.08991 0.88313 0.0
H534 H 0.53831 0.01696 0.89734 0.0
H535 H 0.57271 0.0549 0.89282 0.0
H536 H 0.55548 0.04329 0.92303 0.0
H537 H 0.43912 0.06148 0.91469 0.0
H538 H 0.43883 0.02633 0.92475 0.0
H539 H 0.46133 0.06237 0.94147 0.0
H540 H 0.57987 0.21308 0.05607 0.0
H541 H 0.61809 0.15009 0.06005 0.0
H542 H 0.536 0.16015 0.05725 0.0
H543 H 0.58482 0.07848 0.02287 0.0
H544 H 0.61911 0.10779 0.03936 0.0
H545 H 0.58802 0.07526 0.05554 0.0
H546 H 0.48624 0.11896 0.04513 0.0
H547 H 0.48914 0.09649 0.01999 0.0
H548 H 0.48051 0.08013 0.05027 0.0
H549 H 0.43076 0.88468 0.10319 0.0
H550 H 0.44139 0.84071 0.09673 0.0
H551 H 0.46868 0.87539 0.08008 0.0
H552 H 0.48134 0.86508 0.10799 0.0
H553 H 0.53015 0.95151 0.09685 0.0
H554 H 0.43501 0.93311 0.10115 0.0
H555 H 0.55129 0.99828 0.04238 0.0
H556 H 0.56379 0.02237 0.06955 0.0
H557 H 0.56669 0.98727 0.06837 0.0
H558 H 0.41769 0.96368 0.08007 0.0
H559 H 0.44771 0.00194 0.06954 0.0
H560 H 0.43212 0.96895 0.04895 0.0
H561 H 0.47524 0.98558 0.9084 0.0
H562 H 0.52413 0.08504 0.95083 0.0
H563 H 0.53719 0.10147 0.9929 0.0
H564 H 0.52286 0.04836 0.07011 0.0
H565 H 0.47375 0.94911 0.02748 0.0
H566 H 0.46182 0.93285 0.9854 0.0
H567 H 0.58373 0.20749 0.1127 0.0
H568 H 0.56933 0.23018 0.09686 0.0
H569 H 0.54862 0.18808 0.09413 0.0
C570 C 0.66749 0.48788 0.0446 0.0
C571 C 0.67617 0.48323 0.07076 0.0
C572 C 0.67213 0.52452 0.09358 0.0
C573 C 0.63896 0.50877 0.09473 0.0
C574 C 0.62319 0.52375 0.10418 0.0
C575 C 0.64079 0.55539 0.11219 0.0
C576 C 0.67416 0.57124 0.11134 0.0
C577 C 0.68936 0.55542 0.10231 0.0
C578 C 0.58759 0.50587 0.10498 0.0
C579 C 0.69372 0.60507 0.11946 0.0
C580 C 0.56848 0.65594 0.99846 0.0
C581 C 0.54377 0.65249 0.01745 0.0
C582 C 0.54969 0.62036 0.04957 0.0
C583 C 0.57967 0.64336 0.05811 0.0
C584 C 0.59509 0.63637 0.07676 0.0
C585 C 0.57994 0.60609 0.08739 0.0
C586 C 0.54958 0.58313 0.0791 0.0
C587 C 0.535 0.59057 0.06017 0.0
C588 C 0.62744 0.66133 0.08529 0.0
C589 C 0.53247 0.55074 0.09028 0.0
C590 C 0.53252 0.67186 0.22577 0.0
C591 C 0.56543 0.68661 0.22262 0.0
C592 C 0.58009 0.66898 0.21729 0.0
C593 C 0.56158 0.63592 0.2151 0.0
C594 C 0.52865 0.62088 0.21905 0.0
C595 C 0.51458 0.63909 0.22444 0.0
C596 C 0.61535 0.68573 0.21348 0.0
C597 C 0.50827 0.58564 0.21702 0.0
C598 C 0.65651 0.56316 0.33124 0.0
C599 C 0.65633 0.53975 0.31237 0.0
C600 C 0.62442 0.54347 0.27872 0.0
C601 C 0.64689 0.57374 0.27071 0.0
C602 C 0.63966 0.58847 0.25173 0.0
C603 C 0.60959 0.57249 0.24039 0.0
C604 C 0.58709 0.54195 0.24823 0.0
C605 C 0.59485 0.52789 0.26733 0.0
C606 C 0.66413 0.62107 0.24371 0.0
C607 C 0.55485 0.52417 0.23641 0.0
C608 C 0.62419 0.57231 0.1201 0.0
C609 C 0.61217 0.58335 0.10173 0.0
C610 C 0.59523 0.59843 0.10766 0.0
C611 C 0.59098 0.60375 0.13255 0.0
C612 C 0.57485 0.61968 0.13907 0.0
C613 C 0.57043 0.62448 0.16361 0.0
C614 C 0.5814 0.61297 0.18259 0.0
C615 C 0.5766 0.61734 0.20761 0.0
C616 C 0.58656 0.60439 0.226 0.0
C617 C 0.60163 0.58741 0.22007 0.0
C618 C 0.60772 0.5838 0.19521 0.0
C619 C 0.62355 0.56755 0.18867 0.0
C620 C 0.62924 0.56397 0.16411 0.0
C621 C 0.61901 0.57621 0.14515 0.0
C622 C 0.60267 0.59235 0.15136 0.0
C623 C 0.59738 0.59649 0.17641 0.0
C624 C 0.535 0.72948 0.19973 0.0
C625 C 0.52929 0.72028 0.22701 0.0
O626 O 0.6884 0.51115 0.08401 0.0
O627 O 0.62991 0.5284 0.29735 0.0
O628 O 0.51712 0.68817 0.22972 0.0
O629 O 0.53401 0.62549 0.03117 0.0
H630 H 0.65479 0.46481 0.08015 0.0
H631 H 0.64914 0.49486 0.0451 0.0
H632 H 0.68856 0.50654 0.03501 0.0
H633 H 0.65793 0.46564 0.03389 0.0
H634 H 0.625 0.48486 0.08817 0.0
H635 H 0.7149 0.56742 0.10145 0.0
H636 H 0.57837 0.51365 0.08949 0.0
H637 H 0.57783 0.4801 0.10318 0.0
H638 H 0.5789 0.51068 0.12239 0.0
H639 H 0.71936 0.61453 0.11648 0.0
H640 H 0.68626 0.61983 0.10922 0.0
H641 H 0.68976 0.60711 0.13931 0.0
H642 H 0.55396 0.67328 0.02993 0.0
H643 H 0.58973 0.65802 0.00761 0.0
H644 H 0.55862 0.63517 0.98598 0.0
H645 H 0.57605 0.67744 0.98729 0.0
H646 H 0.59123 0.66671 0.05036 0.0
H647 H 0.51185 0.57306 0.05352 0.0
H648 H 0.64417 0.65231 0.08401 0.0
H649 H 0.63678 0.68321 0.07431 0.0
H650 H 0.62641 0.66712 0.1049 0.0
H651 H 0.50833 0.53611 0.08257 0.0
H652 H 0.54606 0.53859 0.08685 0.0
H653 H 0.53071 0.55259 0.11052 0.0
H654 H 0.55205 0.73311 0.2372 0.0
H655 H 0.57992 0.71188 0.22398 0.0
H656 H 0.48929 0.62783 0.22709 0.0
H657 H 0.62046 0.68248 0.19414 0.0
H658 H 0.62675 0.71132 0.21741 0.0
H659 H 0.62613 0.67539 0.22553 0.0
H660 H 0.48297 0.5775 0.2205 0.0
H661 H 0.51058 0.57779 0.19835 0.0
H662 H 0.51645 0.57423 0.23045 0.0
H663 H 0.67795 0.55149 0.30089 0.0
H664 H 0.67756 0.57206 0.34343 0.0
H665 H 0.6574 0.58364 0.32193 0.0
H666 H 0.63489 0.55172 0.34273 0.0
H667 H 0.67004 0.58609 0.27913 0.0
H668 H 0.57773 0.50455 0.27358 0.0
H669 H 0.67008 0.62051 0.22408 0.0
H670 H 0.65441 0.63716 0.24525 0.0
H671 H 0.68613 0.63076 0.25484 0.0
H672 H 0.54021 0.50038 0.24437 0.0
H673 H 0.54229 0.53758 0.23879 0.0
H674 H 0.55732 0.52172 0.21633 0.0
H675 H 0.61533 0.57943 0.08254 0.0
H676 H 0.56558 0.6288 0.12527 0.0
H677 H 0.55796 0.63703 0.1675 0.0
H678 H 0.58234 0.60737 0.24515 0.0
H679 H 0.63182 0.55748 0.20247 0.0
H680 H 0.64155 0.55128 0.16016 0.0
H681 H 0.54394 0.75506 0.19764 0.0
H682 H 0.55287 0.7244 0.19183 0.0
H683 H 0.51283 0.71623 0.18891 0.0
O684 O 0.61358 0.40429 0.44101 0.0
Cd685 Cd 0.61821 0.3868 0.40782 0.0
Cd686 Cd 0.67913 0.42353 0.41789 0.0
O687 O 0.66364 0.4286 0.452 0.0
O688 O 0.57649 0.34831 0.40216 0.0
O689 O 0.62053 0.34706 0.40814 0.0
C690 C 0.59029 0.33199 0.40505 0.0
C691 C 0.71693 0.4083 0.41291 0.0
C692 C 0.63504 0.42008 0.45676 0.0
C693 C 0.65298 0.44187 0.37506 0.0
O694 O 0.676 0.44985 0.38978 0.0
O695 O 0.62757 0.41581 0.37784 0.0
O696 O 0.7246 0.43616 0.42045 0.0
O697 O 0.68734 0.38858 0.40917 0.0
O698 O 0.22529 0.57426 0.60685 0.0
Cd699 Cd 0.25449 0.59596 0.57738 0.0
Cd700 Cd 0.23445 0.63803 0.58573 0.0
O701 O 0.21306 0.6106 0.61621 0.0
O702 O 0.28389 0.57869 0.5768 0.0
O703 O 0.29954 0.62891 0.5834 0.0
C704 C 0.30635 0.60676 0.58182 0.0
C705 C 0.27122 0.69138 0.59012 0.0
C706 C 0.21132 0.58436 0.62064 0.0
C707 C 0.21731 0.60354 0.53697 0.0
O708 O 0.21392 0.62191 0.5516 0.0
O709 O 0.23392 0.59139 0.5433 0.0
O710 O 0.24131 0.68146 0.59087 0.0
O711 O 0.27996 0.67077 0.58718 0.0
O712 O 0.6032 0.20686 0.75345 0.0
Cd713 Cd 0.63181 0.2361 0.72607 0.0
Cd714 Cd 0.59621 0.26272 0.73253 0.0
O715 O 0.57876 0.23301 0.76224 0.0
O716 O 0.66871 0.22945 0.72557 0.0
O717 O 0.67263 0.27495 0.73533 0.0
C718 C 0.68607 0.25818 0.73273 0.0
C719 C 0.6102 0.31523 0.73754 0.0
C720 C 0.5836 0.21034 0.76643 0.0
C721 C 0.59025 0.23049 0.68415 0.0
O722 O 0.5793 0.24331 0.6983 0.0
O723 O 0.61308 0.2269 0.69097 0.0
O724 O 0.58113 0.29306 0.73754 0.0
O725 O 0.63173 0.30753 0.73509 0.0
O726 O 0.45231 0.66778 0.93926 0.0
Cd727 Cd 0.43114 0.67003 0.90714 0.0
Cd728 Cd 0.39535 0.60831 0.91514 0.0
O729 O 0.42147 0.61735 0.94698 0.0
O730 O 0.4488 0.71603 0.90174 0.0
O731 O 0.39816 0.6832 0.90797 0.0
C732 C 0.42069 0.71156 0.90434 0.0
C733 C 0.34148 0.59038 0.91562 0.0
C734 C 0.44489 0.64398 0.95269 0.0
C735 C 0.43664 0.6266 0.87091 0.0
O736 O 0.41691 0.60404 0.88414 0.0
O737 O 0.44396 0.65472 0.87614 0.0
O738 O 0.35201 0.57118 0.91881 0.0
O739 O 0.36182 0.61971 0.91226 0.0
O740 O 0.79452 0.36222 0.03667 0.0
Cd741 Cd 0.7716 0.36186 0.06875 0.0
Cd742 Cd 0.80606 0.425 0.0609 0.0
O743 O 0.81795 0.4129 0.02802 0.0
O744 O 0.74267 0.31633 0.07521 0.0
O745 O 0.72538 0.34915 0.06719 0.0
C746 C 0.71927 0.32109 0.07239 0.0
C747 C 0.76908 0.44137 0.06323 0.0
C748 C 0.81141 0.38511 0.02257 0.0
C749 C 0.8218 0.40263 0.10611 0.0
O750 O 0.83125 0.42582 0.09159 0.0
O751 O 0.79745 0.37644 0.10106 0.0
O752 O 0.79844 0.46141 0.05901 0.0
O753 O 0.76119 0.41227 0.06601 0.0
O754 O 0.4306 0.82769 0.225 0.0
Cd755 Cd 0.42362 0.80111 0.25615 0.0
Cd756 Cd 0.36224 0.77891 0.24521 0.0
O757 O 0.38089 0.8035 0.21325 0.0
O758 O 0.46409 0.80157 0.2613 0.0
O759 O 0.41958 0.75871 0.25104 0.0
C760 C 0.44957 0.77218 0.25532 0.0
C761 C 0.31967 0.72788 0.24154 0.0
C762 C 0.40965 0.82332 0.20915 0.0
C763 C 0.38643 0.81444 0.29281 0.0
O764 O 0.36434 0.80301 0.27693 0.0
O765 O 0.41199 0.81436 0.28884 0.0
O766 O 0.31649 0.75207 0.23794 0.0
O767 O 0.34738 0.73266 0.24728 0.0
C768 C 0.26547 0.64048 0.2521 0.0
C769 C 0.2374 0.63437 0.24012 0.0
C770 C 0.29229 0.6706 0.25197 0.0
C771 C 0.292 0.69575 0.23989 0.0
H772 H 0.26658 0.6219 0.26193 0.0
H773 H 0.31312 0.67434 0.26191 0.0
S774 S 0.22568 0.69133 0.20331 0.0
N775 N 0.21197 0.65541 0.21397 0.0
N776 N 0.26209 0.71198 0.21399 0.0
C777 C 0.2645 0.6897 0.22705 0.0
C778 C 0.23733 0.65903 0.22702 0.0
C779 C 0.51881 0.25029 0.40844 0.0
C780 C 0.53092 0.23224 0.41879 0.0
C781 C 0.53853 0.28202 0.40268 0.0
C782 C 0.57125 0.29723 0.40719 0.0
H783 H 0.49362 0.24014 0.40574 0.0
H784 H 0.52774 0.29503 0.39558 0.0
S785 S 0.61519 0.26003 0.43263 0.0
N786 N 0.57799 0.23151 0.43223 0.0
N787 N 0.6152 0.29118 0.42126 0.0
C788 C 0.58397 0.27911 0.41641 0.0
C789 C 0.56379 0.24669 0.42233 0.0
C790 C 0.37122 0.59774 0.61156 0.0
C791 C 0.39864 0.62644 0.60626 0.0
C792 C 0.34164 0.59094 0.60248 0.0
C793 C 0.33826 0.6128 0.58811 0.0
H794 H 0.37248 0.58065 0.62334 0.0
H795 H 0.32108 0.56898 0.6077 0.0
S796 S 0.40281 0.68914 0.56573 0.0
N797 N 0.42081 0.67499 0.58277 0.0
N798 N 0.36481 0.6629 0.56697 0.0
C799 C 0.36548 0.64093 0.58169 0.0
C800 C 0.39578 0.64752 0.59037 0.0
C801 C 0.76853 0.31218 0.75828 0.0
C802 C 0.78297 0.29358 0.75671 0.0
C803 C 0.73765 0.30106 0.74961 0.0
C804 C 0.71984 0.27077 0.73927 0.0
H805 H 0.78089 0.33516 0.76691 0.0
H806 H 0.72738 0.316 0.75175 0.0
S807 S 0.74706 0.21299 0.73058 0.0
N808 N 0.77724 0.2436 0.74374 0.0
N809 N 0.71951 0.22275 0.72733 0.0
C810 C 0.73431 0.25223 0.7371 0.0
C811 C 0.76569 0.26357 0.74592 0.0
C812 C 0.43432 0.79362 0.89378 0.0
C813 C 0.40814 0.79295 0.90513 0.0
C814 C 0.43786 0.76706 0.89338 0.0
C815 C 0.41504 0.7385 0.9038 0.0
H816 H 0.45251 0.81504 0.88542 0.0
H817 H 0.45876 0.76902 0.88485 0.0
S818 S 0.34095 0.72362 0.93413 0.0
N819 N 0.35817 0.76088 0.92588 0.0
N820 N 0.36463 0.71073 0.92493 0.0
C821 C 0.38813 0.73708 0.91437 0.0
C822 C 0.38468 0.7643 0.915 0.0
C823 C 0.73256 0.49382 0.06737 0.0
C824 C 0.70008 0.47214 0.06961 0.0
C825 C 0.75467 0.48369 0.0653 0.0
C826 C 0.74517 0.45148 0.06511 0.0
H827 H 0.74097 0.51883 0.06714 0.0
H828 H 0.7794 0.5013 0.06387 0.0
S829 S 0.66257 0.38519 0.06821 0.0
N830 N 0.65937 0.41704 0.06996 0.0
N831 N 0.70072 0.39793 0.06607 0.0
C832 C 0.71268 0.42956 0.06675 0.0
C833 C 0.69022 0.4399 0.06888 0.0
C834 C 0.3064 0.78013 0.5924 0.0
C835 C 0.33914 0.79149 0.59283 0.0
C836 C 0.28466 0.74777 0.59176 0.0
C837 C 0.29473 0.72544 0.59187 0.0
H838 H 0.29748 0.79635 0.5924 0.0
H839 H 0.25975 0.74026 0.59099 0.0
S840 S 0.37782 0.74303 0.59584 0.0
N841 N 0.38046 0.77786 0.59533 0.0
N842 N 0.33976 0.71715 0.59423 0.0
C843 C 0.32737 0.73649 0.59321 0.0
C844 C 0.34947 0.76942 0.59378 0.0
C845 C 0.60055 0.38573 0.7501 0.0
C846 C 0.62772 0.41082 0.73955 0.0
C847 C 0.59557 0.35512 0.74979 0.0
C848 C 0.61791 0.34837 0.73956 0.0
H849 H 0.58258 0.38961 0.75823 0.0
H850 H 0.57383 0.33652 0.75748 0.0
S851 S 0.69484 0.40621 0.71248 0.0
N852 N 0.67851 0.42731 0.72051 0.0
N853 N 0.66942 0.36966 0.72036 0.0
C854 C 0.64605 0.37344 0.73028 0.0
C855 C 0.65092 0.40466 0.73025 0.0
C856 C 0.25259 0.53526 0.91783 0.0
C857 C 0.24046 0.55579 0.91561 0.0
C858 C 0.28522 0.54663 0.91775 0.0
C859 C 0.30706 0.57901 0.9157 0.0
H860 H 0.23673 0.51021 0.91974 0.0
H861 H 0.29334 0.52984 0.91937 0.0
S862 S 0.28734 0.6427 0.91094 0.0
N863 N 0.25282 0.61011 0.91242 0.0
N864 N 0.31399 0.63152 0.91217 0.0
C865 C 0.2952 0.59982 0.91386 0.0
C866 C 0.26201 0.58822 0.91394 0.0
C867 C 0.63162 0.26801 0.06047 0.0
C868 C 0.62444 0.24142 0.07478 0.0
C869 C 0.66215 0.29437 0.06046 0.0
C870 C 0.68653 0.29483 0.07456 0.0
H871 H 0.61374 0.26812 0.04875 0.0
H872 H 0.66694 0.31399 0.04865 0.0
S873 S 0.679 0.23319 0.11779 0.0
N874 N 0.64351 0.21885 0.10554 0.0
N875 N 0.70081 0.26794 0.10502 0.0
C876 C 0.67929 0.26913 0.08985 0.0
C877 C 0.64825 0.24259 0.09016 0.0
C878 C 0.51924 0.75885 0.25038 0.0
C879 C 0.5068 0.7301 0.23763 0.0
C880 C 0.50011 0.7713 0.2572 0.0
C881 C 0.46771 0.75569 0.25138 0.0
H882 H 0.54428 0.77248 0.25435 0.0
H883 H 0.5112 0.794 0.26631 0.0
S884 S 0.42307 0.67876 0.21922 0.0
N885 N 0.45971 0.68562 0.22029 0.0
N886 N 0.42363 0.70897 0.23315 0.0
C887 C 0.45461 0.72624 0.23952 0.0
C888 C 0.47418 0.71353 0.23256 0.0
C889 C 0.75604 0.36572 0.38458 0.0
C890 C 0.78861 0.38642 0.38871 0.0
C891 C 0.73308 0.37225 0.39357 0.0
C892 C 0.74147 0.40004 0.40671 0.0
H893 H 0.74771 0.34451 0.37378 0.0
H894 H 0.70857 0.35586 0.38926 0.0
S895 S 0.82286 0.46172 0.42365 0.0
N896 N 0.82756 0.43562 0.40787 0.0
N897 N 0.78443 0.44783 0.42455 0.0
C898 C 0.77367 0.42056 0.41167 0.0
C899 C 0.79712 0.41385 0.40264 0.0
C900 C 0.16514 0.60094 0.48402 0.0
C901 C 0.16817 0.58141 0.46657 0.0
C902 C 0.18114 0.60793 0.50659 0.0
C903 C 0.20115 0.59595 0.51262 0.0
H904 H 0.15027 0.61098 0.48016 0.0
H905 H 0.17769 0.62288 0.51939 0.0
S906 S 0.21881 0.54533 0.47247 0.0
N907 N 0.19379 0.55139 0.45625 0.0
N908 N 0.22393 0.56442 0.49867 0.0
C909 C 0.20487 0.57684 0.4951 0.0
C910 C 0.18849 0.56971 0.47209 0.0
C911 C 0.51539 0.19872 0.62649 0.0
C912 C 0.52544 0.17019 0.61214 0.0
C913 C 0.53948 0.21971 0.65293 0.0
C914 C 0.57422 0.21704 0.66074 0.0
H915 H 0.49306 0.19761 0.62307 0.0
H916 H 0.53249 0.23309 0.66452 0.0
S917 S 0.60754 0.16582 0.62329 0.0
N918 N 0.57568 0.15604 0.60541 0.0
N919 N 0.61182 0.19121 0.64598 0.0
C920 C 0.58724 0.19557 0.64164 0.0
C921 C 0.56518 0.17417 0.61535 0.0
C922 C 0.50359 0.64389 0.82743 0.0
C923 C 0.50326 0.6151 0.82658 0.0
C924 C 0.48026 0.6468 0.84007 0.0
C925 C 0.45564 0.62101 0.85238 0.0
H926 H 0.52299 0.66472 0.81937 0.0
H927 H 0.48269 0.66992 0.84138 0.0
S928 S 0.44112 0.53914 0.85184 0.0
N929 N 0.47421 0.55944 0.83634 0.0
N930 N 0.43006 0.56464 0.85984 0.0
C931 C 0.45351 0.59144 0.84973 0.0
C932 C 0.47744 0.58857 0.83698 0.0
C933 C 0.86829 0.4073 0.95387 0.0
C934 C 0.86926 0.36965 0.9539 0.0
C935 C 0.84779 0.41208 0.97976 0.0
C936 C 0.82498 0.37955 0.00046 0.0
H937 H 0.88401 0.42707 0.94258 0.0
H938 H 0.84972 0.43469 0.98313 0.0
S939 S 0.81345 0.29007 0.99589 0.0
N940 N 0.83706 0.30561 0.97124 0.0
N941 N 0.80466 0.31565 0.0095 0.0
C942 C 0.82002 0.341 0.99506 0.0
C943 C 0.83931 0.33397 0.97023 0.0
C944 C 0.46107 0.87565 0.15749 0.0
C945 C 0.43918 0.87062 0.13869 0.0
C946 C 0.45121 0.86093 0.18036 0.0
C947 C 0.41907 0.84025 0.18532 0.0
H948 H 0.48611 0.89074 0.15435 0.0
H949 H 0.4691 0.86539 0.19407 0.0
S950 S 0.35232 0.81886 0.14201 0.0
N951 N 0.38401 0.84343 0.12638 0.0
N952 N 0.36529 0.81571 0.16931 0.0
C953 C 0.39688 0.83517 0.16668 0.0
C954 C 0.40699 0.85024 0.14339 0.0
C955 C 0.6272 0.48648 0.33322 0.0
C956 C 0.65598 0.51259 0.32591 0.0
C957 C 0.62652 0.46279 0.34794 0.0
C958 C 0.65456 0.46463 0.35648 0.0
H959 H 0.60494 0.48469 0.32811 0.0
H960 H 0.60377 0.44368 0.35359 0.0
S961 S 0.73607 0.52764 0.34207 0.0
N962 N 0.71318 0.53838 0.32776 0.0
N963 N 0.71198 0.49408 0.35572 0.0
C964 C 0.68351 0.49023 0.3489 0.0
C965 C 0.68418 0.51418 0.33366 0.0
C966 C 0.352 0.84655 0.33947 0.0
C967 C 0.36952 0.84992 0.36096 0.0
C968 C 0.35795 0.83544 0.31753 0.0
C969 C 0.38188 0.82753 0.31608 0.0
H970 H 0.33314 0.85204 0.33974 0.0
H971 H 0.34349 0.83291 0.3016 0.0
S972 S 0.43524 0.83313 0.367 0.0
N973 N 0.41223 0.84508 0.37937 0.0
N974 N 0.42378 0.82462 0.33803 0.0
C975 C 0.40014 0.83155 0.33729 0.0
C976 C 0.39385 0.8426 0.35973 0.0
C977 C 0.58529 0.42908 0.5061 0.0
C978 C 0.60787 0.45158 0.52222 0.0
C979 C 0.59438 0.41865 0.48536 0.0
C980 C 0.62643 0.4299 0.48 0.0
H981 H 0.56034 0.41967 0.50942 0.0
H982 H 0.57598 0.40179 0.47331 0.0
S983 S 0.69472 0.48661 0.51795 0.0
N984 N 0.66356 0.48304 0.53257 0.0
N985 N 0.68079 0.46344 0.49358 0.0
C986 C 0.64925 0.45146 0.49656 0.0
C987 C 0.63994 0.46219 0.51767 0.0
C988 C 0.17262 0.56389 0.6835 0.0
C989 C 0.16246 0.53167 0.68574 0.0
C990 C 0.18771 0.58055 0.66218 0.0
C991 C 0.19368 0.56576 0.64238 0.0
H992 H 0.16919 0.57646 0.69849 0.0
H993 H 0.19542 0.6054 0.66149 0.0
S994 S 0.1707 0.48141 0.63865 0.0
N995 N 0.15851 0.48533 0.66603 0.0
N996 N 0.18717 0.51662 0.62605 0.0
C997 C 0.18328 0.53342 0.64424 0.0
C998 C 0.16765 0.51641 0.66588 0.0
C999 C 0.52942 0.17178 0.82097 0.0
C1000 C 0.52693 0.14201 0.82196 0.0
C1001 C 0.54818 0.19389 0.80323 0.0
C1002 C 0.56516 0.18708 0.78574 0.0
H1003 H 0.51662 0.17798 0.83395 0.0
H1004 H 0.54924 0.21645 0.80319 0.0
S1005 S 0.5654 0.11181 0.77978 0.0
N1006 N 0.54219 0.10646 0.80343 0.0
N1007 N 0.57754 0.14792 0.77022 0.0
C1008 C 0.56277 0.1573 0.78648 0.0
C1009 C 0.54356 0.13478 0.80447 0.0
C1010 C 0.49143 0.62119 0.99506 0.0
C1011 C 0.51554 0.65037 0.00404 0.0
C1012 C 0.46728 0.61917 0.97996 0.0
C1013 C 0.46664 0.64631 0.97267 0.0
H1014 H 0.4918 0.59977 -0.00101 0.0
H1015 H 0.45007 0.59628 0.97281 0.0
S1016 S 0.52316 0.72818 0.9922 0.0
N1017 N 0.53635 0.70678 0.00554 0.0
N1018 N 0.49113 0.70312 0.97684 0.0
C1019 C 0.4899 0.67552 0.98222 0.0
C1020 C 0.51434 0.67752 0.99785 0.0
C1021 C 0.84135 0.39002 0.17079 0.0
C1022 C 0.87356 0.39913 0.16932 0.0
C1023 C 0.82497 0.39231 0.15048 0.0
C1024 C 0.84038 0.40475 0.12812 0.0
H1025 H 0.82838 0.37983 0.18758 0.0
H1026 H 0.79989 0.38372 0.15213 0.0
S1027 S 0.92451 0.43335 0.1143 0.0
N1028 N 0.9203 0.42162 0.14317 0.0
N1029 N 0.88955 0.42726 0.10552 0.0
C1030 C 0.87278 0.41532 0.12653 0.0
C1031 C 0.88938 0.41216 0.14698 0.0
loop_
_geom_bond_atom_site_label_1
_geom_bond_atom_site_label_2
_geom_bond_distance
_geom_bond_site_symmetry_2
_ccdc_geom_bond_type
C0 C1 1.560 . S
C0 H61 0.959 . S
C0 H62 0.959 . S
C0 H63 0.960 . S
C1 C0 1.560 . S
C1 O56 1.426 . S
C1 H60 0.980 . S
C2 C3 1.407 . S
C2 C7 1.418 . S
C2 O56 1.334 . S
C3 C2 1.407 . S
C3 C4 1.360 . S
C3 H64 0.929 . S
C4 C3 1.360 . S
C4 C5 1.401 . S
C4 C8 1.527 . S
C5 C4 1.401 . S
C5 C6 1.405 . S
C5 C38 1.587 . S
C6 C5 1.405 . S
C6 C7 1.332 . S
C6 C9 1.496 . S
C7 C2 1.418 . S
C7 C6 1.332 . S
C7 H65 0.929 . S
C8 C4 1.527 . S
C8 H66 0.959 . S
C8 H67 0.961 . S
C8 H68 0.961 . S
C9 C6 1.496 . S
C9 H69 0.960 . S
C9 H70 0.960 . S
C9 H71 0.961 . S
C10 C11 1.517 . S
C10 H73 0.961 . S
C10 H74 0.960 . S
C10 H75 0.959 . S
C11 C10 1.517 . S
C11 O59 1.468 . S
C11 H72 0.980 . S
C12 C13 1.349 . S
C12 C17 1.367 . S
C12 O59 1.408 . S
C13 C12 1.349 . S
C13 C14 1.407 . S
C13 H76 0.930 . S
C14 C13 1.407 . S
C14 C15 1.449 . S
C14 C18 1.535 . S
C15 C14 1.449 . S
C15 C16 1.384 . S
C15 C40 1.553 1_655 S
C16 C15 1.384 . S
C16 C17 1.364 . S
C16 C19 1.450 . S
C17 C12 1.367 . S
C17 C16 1.364 . S
C17 H77 0.931 . S
C18 C14 1.535 . S
C18 H78 0.959 1_655 S
C18 H79 0.961 1_655 S
C18 H80 0.959 . S
C19 C16 1.450 . S
C19 H81 0.960 . S
C19 H82 0.960 1_655 S
C19 H83 0.960 . S
C20 C21 1.309 . S
C20 C25 1.304 . S
C20 O58 1.435 . S
C21 C20 1.309 . S
C21 C22 1.476 . S
C21 H85 0.930 . S
C22 C21 1.476 . S
C22 C23 1.400 . S
C22 C26 1.567 . S
C23 C22 1.400 . S
C23 C24 1.373 . S
C23 C45 1.432 . S
C24 C23 1.373 . S
C24 C25 1.339 . S
C24 C27 1.530 . S
C25 C20 1.304 . S
C25 C24 1.339 . S
C25 H86 0.930 . S
C26 C22 1.567 . S
C26 H87 0.961 . S
C26 H88 0.960 . S
C26 H89 0.958 . S
C27 C24 1.530 . S
C27 H90 0.961 . S
C27 H91 0.960 . S
C27 H92 0.960 . S
C28 C29 1.530 . S
C28 H94 0.961 . S
C28 H95 0.961 . S
C28 H96 0.959 . S
C29 C28 1.530 . S
C29 O57 1.412 . S
C29 H93 0.980 . S
C30 C31 1.288 . S
C30 C35 1.377 . S
C30 O57 1.393 . S
C31 C30 1.288 . S
C31 C32 1.369 . S
C31 H97 0.932 . S
C32 C31 1.369 . S
C32 C33 1.398 . S
C32 C36 1.527 . S
C33 C32 1.398 . S
C33 C34 1.380 . S
C33 C47 1.497 . S
C34 C33 1.380 . S
C34 C35 1.383 . S
C34 C37 1.603 . S
C35 C30 1.377 . S
C35 C34 1.383 . S
C35 H98 0.929 . S
C36 C32 1.527 . S
C36 H99 0.961 . S
C36 H100 0.959 . S
C36 H101 0.959 . S
C37 C34 1.603 . S
C37 H102 0.960 . S
C37 H103 0.962 . S
C37 H104 0.961 . S
C38 C5 1.587 . S
C38 C39 1.360 . S
C38 C51 1.412 . S
C39 C38 1.360 . S
C39 C40 1.365 . S
C39 H105 0.929 . S
C40 C15 1.553 1_455 S
C40 C39 1.365 . S
C40 C41 1.404 . S
C41 C40 1.404 . S
C41 C42 1.395 1_455 S
C41 C52 1.451 . S
C42 C41 1.395 1_655 S
C42 C43 1.322 . S
C42 H106 0.930 . S
C43 C42 1.322 . S
C43 C44 1.459 . S
C43 H107 0.929 . S
C44 C43 1.459 . S
C44 C45 1.445 . S
C44 C53 1.395 1_655 S
C45 C23 1.432 . S
C45 C44 1.445 . S
C45 C46 1.370 . S
C46 C45 1.370 . S
C46 C47 1.438 1_655 S
C46 H108 0.930 . S
C47 C33 1.497 . S
C47 C46 1.438 1_455 S
C47 C48 1.360 . S
C48 C47 1.360 . S
C48 C49 1.401 . S
C48 C53 1.446 . S
C49 C48 1.401 . S
C49 C50 1.347 . S
C49 H109 0.929 . S
C50 C49 1.347 . S
C50 C51 1.455 . S
C50 H110 0.930 . S
C51 C38 1.412 . S
C51 C50 1.455 . S
C51 C52 1.331 . S
C52 C41 1.451 . S
C52 C51 1.331 . S
C52 C53 1.497 . S
C53 C44 1.395 1_455 S
C53 C48 1.446 . S
C53 C52 1.497 . S
C54 C55 1.582 . S
C54 H111 0.962 . S
C54 H112 0.959 . S
C54 H113 0.958 . S
C55 C54 1.582 . S
C55 O58 1.458 . S
C55 H84 0.980 . S
O56 C1 1.426 . S
O56 C2 1.334 . S
O57 C29 1.412 . S
O57 C30 1.393 . S
O58 C20 1.435 . S
O58 C55 1.458 . S
O59 C11 1.468 . S
O59 C12 1.408 . S
H60 C1 0.980 . S
H61 C0 0.959 . S
H62 C0 0.959 . S
H63 C0 0.960 . S
H64 C3 0.929 . S
H65 C7 0.929 . S
H66 C8 0.959 . S
H67 C8 0.961 . S
H68 C8 0.961 . S
H69 C9 0.960 . S
H70 C9 0.960 . S
H71 C9 0.961 . S
H72 C11 0.980 . S
H73 C10 0.961 . S
H74 C10 0.960 . S
H75 C10 0.959 . S
H76 C13 0.930 . S
H77 C17 0.931 . S
H78 C18 0.959 1_455 S
H79 C18 0.961 1_455 S
H80 C18 0.959 . S
H81 C19 0.960 . S
H82 C19 0.960 1_455 S
H83 C19 0.960 . S
H84 C55 0.980 . S
H85 C21 0.930 . S
H86 C25 0.930 . S
H87 C26 0.961 . S
H88 C26 0.960 . S
H89 C26 0.958 . S
H90 C27 0.961 . S
H91 C27 0.960 . S
H92 C27 0.960 . S
H93 C29 0.980 . S
H94 C28 0.961 . S
H95 C28 0.961 . S
H96 C28 0.959 . S
H97 C31 0.932 . S
H98 C35 0.929 . S
H99 C36 0.961 . S
H100 C36 0.959 . S
H101 C36 0.959 . S
H102 C37 0.960 . S
H103 C37 0.962 . S
H104 C37 0.961 . S
H105 C39 0.929 . S
H106 C42 0.930 . S
H107 C43 0.929 . S
H108 C46 0.930 . S
H109 C49 0.929 . S
H110 C50 0.930 . S
H111 C54 0.962 . S
H112 C54 0.959 . S
H113 C54 0.958 . S
C114 C115 1.560 . S
C114 H175 0.959 . S
C114 H176 0.959 . S
C114 H177 0.960 . S
C115 C114 1.560 . S
C115 O170 1.426 . S
C115 H174 0.980 . S
C116 C117 1.407 . S
C116 C121 1.418 . S
C116 O170 1.334 . S
C117 C116 1.407 . S
C117 C118 1.360 . S
C117 H178 0.929 . S
C118 C117 1.360 . S
C118 C119 1.401 . S
C118 C122 1.527 . S
C119 C118 1.401 . S
C119 C120 1.405 . S
C119 C152 1.587 . S
C120 C119 1.405 . S
C120 C121 1.332 . S
C120 C123 1.496 . S
C121 C116 1.418 . S
C121 C120 1.332 . S
C121 H179 0.929 . S
C122 C118 1.527 . S
C122 H180 0.959 . S
C122 H181 0.961 . S
C122 H182 0.961 . S
C123 C120 1.496 . S
C123 H183 0.960 . S
C123 H184 0.960 . S
C123 H185 0.961 . S
C124 C125 1.517 . S
C124 H187 0.961 . S
C124 H188 0.960 . S
C124 H189 0.959 . S
C125 C124 1.517 . S
C125 O173 1.468 . S
C125 H186 0.980 . S
C126 C127 1.349 . S
C126 C131 1.367 . S
C126 O173 1.408 . S
C127 C126 1.349 . S
C127 C128 1.407 . S
C127 H190 0.930 . S
C128 C127 1.407 . S
C128 C129 1.449 . S
C128 C132 1.535 . S
C129 C128 1.449 . S
C129 C130 1.384 . S
C129 C154 1.553 . S
C130 C129 1.384 . S
C130 C131 1.364 . S
C130 C133 1.450 . S
C131 C126 1.367 . S
C131 C130 1.364 . S
C131 H191 0.931 . S
C132 C128 1.535 . S
C132 H192 0.959 . S
C132 H193 0.961 . S
C132 H194 0.959 . S
C133 C130 1.450 . S
C133 H195 0.960 . S
C133 H196 0.960 . S
C133 H197 0.960 . S
C134 C135 1.309 . S
C134 C139 1.304 . S
C134 O172 1.435 . S
C135 C134 1.309 . S
C135 C136 1.476 . S
C135 H199 0.930 . S
C136 C135 1.476 . S
C136 C137 1.400 . S
C136 C140 1.567 . S
C137 C136 1.400 . S
C137 C138 1.373 . S
C137 C159 1.432 . S
C138 C137 1.373 . S
C138 C139 1.339 . S
C138 C141 1.530 . S
C139 C134 1.304 . S
C139 C138 1.339 . S
C139 H200 0.930 . S
C140 C136 1.567 . S
C140 H201 0.961 . S
C140 H202 0.960 . S
C140 H203 0.958 . S
C141 C138 1.530 . S
C141 H204 0.961 . S
C141 H205 0.960 . S
C141 H206 0.960 . S
C142 C143 1.530 . S
C142 H208 0.961 . S
C142 H209 0.961 . S
C142 H210 0.959 . S
C143 C142 1.530 . S
C143 O171 1.412 . S
C143 H207 0.980 . S
C144 C145 1.288 . S
C144 C149 1.377 . S
C144 O171 1.393 . S
C145 C144 1.288 . S
C145 C146 1.369 . S
C145 H211 0.932 . S
C146 C145 1.369 . S
C146 C147 1.398 . S
C146 C150 1.527 1_565 S
C147 C146 1.398 . S
C147 C148 1.380 . S
C147 C161 1.497 1_565 S
C148 C147 1.380 . S
C148 C149 1.383 . S
C148 C151 1.603 . S
C149 C144 1.377 . S
C149 C148 1.383 . S
C149 H212 0.929 . S
C150 C146 1.527 1_545 S
C150 H213 0.961 . S
C150 H214 0.959 . S
C150 H215 0.959 1_545 S
C151 C148 1.603 . S
C151 H216 0.960 . S
C151 H217 0.962 . S
C151 H218 0.961 . S
C152 C119 1.587 . S
C152 C153 1.360 . S
C152 C165 1.412 . S
C153 C152 1.360 . S
C153 C154 1.365 1_565 S
C153 H219 0.929 . S
C154 C129 1.553 . S
C154 C153 1.365 1_545 S
C154 C155 1.404 . S
C155 C154 1.404 . S
C155 C156 1.395 . S
C155 C166 1.451 . S
C156 C155 1.395 . S
C156 C157 1.322 . S
C156 H220 0.930 . S
C157 C156 1.322 . S
C157 C158 1.459 . S
C157 H221 0.929 . S
C158 C157 1.459 . S
C158 C159 1.445 . S
C158 C167 1.395 . S
C159 C137 1.432 . S
C159 C158 1.445 . S
C159 C160 1.370 . S
C160 C159 1.370 . S
C160 C161 1.438 . S
C160 H222 0.930 . S
C161 C147 1.497 1_545 S
C161 C160 1.438 . S
C161 C162 1.360 1_545 S
C162 C161 1.360 1_565 S
C162 C163 1.401 . S
C162 C167 1.446 1_565 S
C163 C162 1.401 . S
C163 C164 1.347 . S
C163 H223 0.929 . S
C164 C163 1.347 . S
C164 C165 1.455 . S
C164 H224 0.930 . S
C165 C152 1.412 . S
C165 C164 1.455 . S
C165 C166 1.331 1_565 S
C166 C155 1.451 . S
C166 C165 1.331 1_545 S
C166 C167 1.497 . S
C167 C158 1.395 . S
C167 C162 1.446 1_545 S
C167 C166 1.497 . S
C168 C169 1.582 . S
C168 H225 0.962 . S
C168 H226 0.959 . S
C168 H227 0.958 . S
C169 C168 1.582 . S
C169 O172 1.458 . S
C169 H198 0.980 . S
O170 C115 1.426 . S
O170 C116 1.334 . S
O171 C143 1.412 . S
O171 C144 1.393 . S
O172 C134 1.435 . S
O172 C169 1.458 . S
O173 C125 1.468 . S
O173 C126 1.408 . S
H174 C115 0.980 . S
H175 C114 0.959 . S
H176 C114 0.959 . S
H177 C114 0.960 . S
H178 C117 0.929 . S
H179 C121 0.929 . S
H180 C122 0.959 . S
H181 C122 0.961 . S
H182 C122 0.961 . S
H183 C123 0.960 . S
H184 C123 0.960 . S
H185 C123 0.961 . S
H186 C125 0.980 . S
H187 C124 0.961 . S
H188 C124 0.960 . S
H189 C124 0.959 . S
H190 C127 0.930 . S
H191 C131 0.931 . S
H192 C132 0.959 . S
H193 C132 0.961 . S
H194 C132 0.959 . S
H195 C133 0.960 . S
H196 C133 0.960 . S
H197 C133 0.960 . S
H198 C169 0.980 . S
H199 C135 0.930 . S
H200 C139 0.930 . S
H201 C140 0.961 . S
H202 C140 0.960 . S
H203 C140 0.958 . S
H204 C141 0.961 . S
H205 C141 0.960 . S
H206 C141 0.960 . S
H207 C143 0.980 . S
H208 C142 0.961 . S
H209 C142 0.961 . S
H210 C142 0.959 . S
H211 C145 0.932 . S
H212 C149 0.929 . S
H213 C150 0.961 . S
H214 C150 0.959 . S
H215 C150 0.959 1_565 S
H216 C151 0.960 . S
H217 C151 0.962 . S
H218 C151 0.961 . S
H219 C153 0.929 . S
H220 C156 0.930 . S
H221 C157 0.929 . S
H222 C160 0.930 . S
H223 C163 0.929 . S
H224 C164 0.930 . S
H225 C168 0.962 . S
H226 C168 0.959 . S
H227 C168 0.958 . S
C228 C229 1.560 . S
C228 H289 0.959 . S
C228 H290 0.959 . S
C228 H291 0.960 . S
C229 C228 1.560 . S
C229 O284 1.426 . S
C229 H288 0.980 . S
C230 C231 1.407 . S
C230 C235 1.418 . S
C230 O284 1.334 . S
C231 C230 1.407 . S
C231 C232 1.360 . S
C231 H292 0.929 . S
C232 C231 1.360 . S
C232 C233 1.401 . S
C232 C236 1.527 . S
C233 C232 1.401 . S
C233 C234 1.405 . S
C233 C266 1.587 . S
C234 C233 1.405 . S
C234 C235 1.332 . S
C234 C237 1.496 . S
C235 C230 1.418 . S
C235 C234 1.332 . S
C235 H293 0.929 . S
C236 C232 1.527 . S
C236 H294 0.959 . S
C236 H295 0.961 . S
C236 H296 0.961 . S
C237 C234 1.496 . S
C237 H297 0.960 . S
C237 H298 0.960 . S
C237 H299 0.961 . S
C238 C239 1.517 . S
C238 H301 0.961 . S
C238 H302 0.960 . S
C238 H303 0.959 . S
C239 C238 1.517 . S
C239 O287 1.468 . S
C239 H300 0.980 . S
C240 C241 1.349 . S
C240 C245 1.367 . S
C240 O287 1.408 . S
C241 C240 1.349 . S
C241 C242 1.407 . S
C241 H304 0.930 . S
C242 C241 1.407 . S
C242 C243 1.449 . S
C242 C246 1.535 . S
C243 C242 1.449 . S
C243 C244 1.384 . S
C243 C268 1.553 . S
C244 C243 1.384 . S
C244 C245 1.364 . S
C244 C247 1.450 . S
C245 C240 1.367 . S
C245 C244 1.364 . S
C245 H305 0.931 . S
C246 C242 1.535 . S
C246 H306 0.959 . S
C246 H307 0.961 . S
C246 H308 0.959 . S
C247 C244 1.450 . S
C247 H309 0.960 . S
C247 H310 0.960 . S
C247 H311 0.960 . S
C248 C249 1.309 . S
C248 C253 1.304 . S
C248 O286 1.435 . S
C249 C248 1.309 . S
C249 C250 1.476 . S
C249 H313 0.930 . S
C250 C249 1.476 . S
C250 C251 1.400 . S
C250 C254 1.567 . S
C251 C250 1.400 . S
C251 C252 1.373 . S
C251 C273 1.432 . S
C252 C251 1.373 . S
C252 C253 1.339 . S
C252 C255 1.530 . S
C253 C248 1.304 . S
C253 C252 1.339 . S
C253 H314 0.930 . S
C254 C250 1.567 . S
C254 H315 0.961 . S
C254 H316 0.960 . S
C254 H317 0.958 . S
C255 C252 1.530 . S
C255 H318 0.961 . S
C255 H319 0.960 . S
C255 H320 0.960 . S
C256 C257 1.530 . S
C256 H322 0.961 . S
C256 H323 0.961 . S
C256 H324 0.959 . S
C257 C256 1.530 . S
C257 O285 1.412 . S
C257 H321 0.980 . S
C258 C259 1.288 . S
C258 C263 1.377 . S
C258 O285 1.393 . S
C259 C258 1.288 . S
C259 C260 1.369 . S
C259 H325 0.932 . S
C260 C259 1.369 . S
C260 C261 1.398 . S
C260 C264 1.527 . S
C261 C260 1.398 . S
C261 C262 1.380 . S
C261 C275 1.497 . S
C262 C261 1.380 . S
C262 C263 1.383 . S
C262 C265 1.603 . S
C263 C258 1.377 . S
C263 C262 1.383 . S
C263 H326 0.929 . S
C264 C260 1.527 . S
C264 H327 0.961 . S
C264 H328 0.959 . S
C264 H329 0.959 . S
C265 C262 1.603 . S
C265 H330 0.960 . S
C265 H331 0.962 . S
C265 H332 0.961 . S
C266 C233 1.587 . S
C266 C267 1.360 . S
C266 C279 1.412 . S
C267 C266 1.360 . S
C267 C268 1.365 . S
C267 H333 0.929 . S
C268 C243 1.553 . S
C268 C267 1.365 . S
C268 C269 1.404 . S
C269 C268 1.404 . S
C269 C270 1.395 . S
C269 C280 1.451 . S
C270 C269 1.395 . S
C270 C271 1.322 . S
C270 H334 0.930 . S
C271 C270 1.322 . S
C271 C272 1.459 . S
C271 H335 0.929 . S
C272 C271 1.459 . S
C272 C273 1.445 . S
C272 C281 1.395 . S
C273 C251 1.432 . S
C273 C272 1.445 . S
C273 C274 1.370 . S
C274 C273 1.370 . S
C274 C275 1.438 . S
C274 H336 0.930 . S
C275 C261 1.497 . S
C275 C274 1.438 . S
C275 C276 1.360 . S
C276 C275 1.360 . S
C276 C277 1.401 . S
C276 C281 1.446 . S
C277 C276 1.401 . S
C277 C278 1.347 . S
C277 H337 0.929 . S
C278 C277 1.347 . S
C278 C279 1.455 . S
C278 H338 0.930 . S
C279 C266 1.412 . S
C279 C278 1.455 . S
C279 C280 1.331 . S
C280 C269 1.451 . S
C280 C279 1.331 . S
C280 C281 1.497 . S
C281 C272 1.395 . S
C281 C276 1.446 . S
C281 C280 1.497 . S
C282 C283 1.582 . S
C282 H339 0.962 . S
C282 H340 0.959 . S
C282 H341 0.958 . S
C283 C282 1.582 . S
C283 O286 1.458 . S
C283 H312 0.980 . S
O284 C229 1.426 . S
O284 C230 1.334 . S
O285 C257 1.412 . S
O285 C258 1.393 . S
O286 C248 1.435 . S
O286 C283 1.458 . S
O287 C239 1.468 . S
O287 C240 1.408 . S
H288 C229 0.980 . S
H289 C228 0.959 . S
H290 C228 0.959 . S
H291 C228 0.960 . S
H292 C231 0.929 . S
H293 C235 0.929 . S
H294 C236 0.959 . S
H295 C236 0.961 . S
H296 C236 0.961 . S
H297 C237 0.960 . S
H298 C237 0.960 . S
H299 C237 0.961 . S
H300 C239 0.980 . S
H301 C238 0.961 . S
H302 C238 0.960 . S
H303 C238 0.959 . S
H304 C241 0.930 . S
H305 C245 0.931 . S
H306 C246 0.959 . S
H307 C246 0.961 . S
H308 C246 0.959 . S
H309 C247 0.960 . S
H310 C247 0.960 . S
H311 C247 0.960 . S
H312 C283 0.980 . S
H313 C249 0.930 . S
H314 C253 0.930 . S
H315 C254 0.961 . S
H316 C254 0.960 . S
H317 C254 0.958 . S
H318 C255 0.961 . S
H319 C255 0.960 . S
H320 C255 0.960 . S
H321 C257 0.980 . S
H322 C256 0.961 . S
H323 C256 0.961 . S
H324 C256 0.959 . S
H325 C259 0.932 . S
H326 C263 0.929 . S
H327 C264 0.961 . S
H328 C264 0.959 . S
H329 C264 0.959 . S
H330 C265 0.960 . S
H331 C265 0.962 . S
H332 C265 0.961 . S
H333 C267 0.929 . S
H334 C270 0.930 . S
H335 C271 0.929 . S
H336 C274 0.930 . S
H337 C277 0.929 . S
H338 C278 0.930 . S
H339 C282 0.962 . S
H340 C282 0.959 . S
H341 C282 0.958 . S
C342 C343 1.560 . S
C342 H403 0.959 . S
C342 H404 0.959 . S
C342 H405 0.960 . S
C343 C342 1.560 . S
C343 O398 1.426 . S
C343 H402 0.980 . S
C344 C345 1.407 . S
C344 C349 1.418 . S
C344 O398 1.334 . S
C345 C344 1.407 . S
C345 C346 1.360 . S
C345 H406 0.929 . S
C346 C345 1.360 . S
C346 C347 1.401 . S
C346 C350 1.527 . S
C347 C346 1.401 . S
C347 C348 1.405 . S
C347 C380 1.587 . S
C348 C347 1.405 . S
C348 C349 1.332 . S
C348 C351 1.496 . S
C349 C344 1.418 . S
C349 C348 1.332 . S
C349 H407 0.929 . S
C350 C346 1.527 . S
C350 H408 0.959 . S
C350 H409 0.961 . S
C350 H410 0.961 . S
C351 C348 1.496 . S
C351 H411 0.960 . S
C351 H412 0.960 . S
C351 H413 0.961 . S
C352 C353 1.530 . S
C352 H415 0.949 1_556 S
C352 H416 0.952 1_556 S
C352 H417 0.966 . S
C353 C352 1.530 . S
C353 O401 1.468 . S
C353 H414 0.980 . S
C354 C355 1.349 . S
C354 C359 1.367 . S
C354 O401 1.408 . S
C355 C354 1.349 . S
C355 C356 1.407 . S
C355 H418 0.930 . S
C356 C355 1.407 . S
C356 C357 1.449 . S
C356 C360 1.535 . S
C357 C356 1.449 . S
C357 C358 1.384 . S
C357 C382 1.553 1_655 S
C358 C357 1.384 . S
C358 C359 1.364 . S
C358 C361 1.450 . S
C359 C354 1.367 . S
C359 C358 1.364 . S
C359 H419 0.931 . S
C360 C356 1.535 . S
C360 H420 0.959 1_655 S
C360 H421 0.961 1_655 S
C360 H422 0.959 . S
C361 C358 1.450 . S
C361 H423 0.960 . S
C361 H424 0.960 1_655 S
C361 H425 0.960 . S
C362 C363 1.309 . S
C362 C367 1.304 . S
C362 O400 1.435 . S
C363 C362 1.309 . S
C363 C364 1.476 . S
C363 H427 0.930 . S
C364 C363 1.476 . S
C364 C365 1.400 . S
C364 C368 1.567 . S
C365 C364 1.400 . S
C365 C366 1.373 . S
C365 C387 1.432 . S
C366 C365 1.373 . S
C366 C367 1.339 . S
C366 C369 1.530 . S
C367 C362 1.304 . S
C367 C366 1.339 . S
C367 H428 0.930 . S
C368 C364 1.567 . S
C368 H429 0.961 . S
C368 H430 0.960 . S
C368 H431 0.958 . S
C369 C366 1.530 . S
C369 H432 0.961 . S
C369 H433 0.960 . S
C369 H434 0.960 . S
C370 C371 1.530 . S
C370 H436 0.961 . S
C370 H437 0.961 . S
C370 H438 0.959 . S
C371 C370 1.530 . S
C371 O399 1.412 . S
C371 H435 0.980 . S
C372 C373 1.288 . S
C372 C377 1.377 . S
C372 O399 1.393 . S
C373 C372 1.288 . S
C373 C374 1.369 . S
C373 H439 0.932 . S
C374 C373 1.369 . S
C374 C375 1.398 . S
C374 C378 1.527 . S
C375 C374 1.398 . S
C375 C376 1.380 . S
C375 C389 1.497 . S
C376 C375 1.380 . S
C376 C377 1.383 . S
C376 C379 1.603 . S
C377 C372 1.377 . S
C377 C376 1.383 . S
C377 H440 0.929 . S
C378 C374 1.527 . S
C378 H441 0.961 . S
C378 H442 0.959 . S
C378 H443 0.959 . S
C379 C376 1.603 . S
C379 H444 0.960 . S
C379 H445 0.962 . S
C379 H446 0.961 . S
C380 C347 1.587 . S
C380 C381 1.360 . S
C380 C393 1.412 . S
C381 C380 1.360 . S
C381 C382 1.365 . S
C381 H447 0.929 . S
C382 C357 1.553 1_455 S
C382 C381 1.365 . S
C382 C383 1.404 . S
C383 C382 1.404 . S
C383 C384 1.395 1_455 S
C383 C394 1.451 . S
C384 C383 1.395 1_655 S
C384 C385 1.322 . S
C384 H448 0.930 . S
C385 C384 1.322 . S
C385 C386 1.459 . S
C385 H449 0.929 . S
C386 C385 1.459 . S
C386 C387 1.445 . S
C386 C395 1.395 1_655 S
C387 C365 1.432 . S
C387 C386 1.445 . S
C387 C388 1.370 . S
C388 C387 1.370 . S
C388 C389 1.438 1_655 S
C388 H450 0.930 . S
C389 C375 1.497 . S
C389 C388 1.438 1_455 S
C389 C390 1.360 . S
C390 C389 1.360 . S
C390 C391 1.401 . S
C390 C395 1.446 . S
C391 C390 1.401 . S
C391 C392 1.347 . S
C391 H451 0.929 . S
C392 C391 1.347 . S
C392 C393 1.455 . S
C392 H452 0.930 . S
C393 C380 1.412 . S
C393 C392 1.455 . S
C393 C394 1.331 . S
C394 C383 1.451 . S
C394 C393 1.331 . S
C394 C395 1.497 . S
C395 C386 1.395 1_455 S
C395 C390 1.446 . S
C395 C394 1.497 . S
C396 C397 1.582 . S
C396 H453 0.962 . S
C396 H454 0.959 . S
C396 H455 0.958 . S
C397 C396 1.582 . S
C397 O400 1.458 . S
C397 H426 0.980 . S
O398 C343 1.426 . S
O398 C344 1.334 . S
O399 C371 1.412 . S
O399 C372 1.393 . S
O400 C362 1.435 . S
O400 C397 1.458 . S
O401 C353 1.468 . S
O401 C354 1.408 . S
H402 C343 0.980 . S
H403 C342 0.959 . S
H404 C342 0.959 . S
H405 C342 0.960 . S
H406 C345 0.929 . S
H407 C349 0.929 . S
H408 C350 0.959 . S
H409 C350 0.961 . S
H410 C350 0.961 . S
H411 C351 0.960 . S
H412 C351 0.960 . S
H413 C351 0.961 . S
H414 C353 0.980 . S
H415 C352 0.949 1_554 S
H416 C352 0.952 1_554 S
H417 C352 0.966 . S
H418 C355 0.930 . S
H419 C359 0.931 . S
H420 C360 0.959 1_455 S
H421 C360 0.961 1_455 S
H422 C360 0.959 . S
H423 C361 0.960 . S
H424 C361 0.960 1_455 S
H425 C361 0.960 . S
H426 C397 0.980 . S
H427 C363 0.930 . S
H428 C367 0.930 . S
H429 C368 0.961 . S
H430 C368 0.960 . S
H431 C368 0.958 . S
H432 C369 0.961 . S
H433 C369 0.960 . S
H434 C369 0.960 . S
H435 C371 0.980 . S
H436 C370 0.961 . S
H437 C370 0.961 . S
H438 C370 0.959 . S
H439 C373 0.932 . S
H440 C377 0.929 . S
H441 C378 0.961 . S
H442 C378 0.959 . S
H443 C378 0.959 . S
H444 C379 0.960 . S
H445 C379 0.962 . S
H446 C379 0.961 . S
H447 C381 0.929 . S
H448 C384 0.930 . S
H449 C385 0.929 . S
H450 C388 0.930 . S
H451 C391 0.929 . S
H452 C392 0.930 . S
H453 C396 0.962 . S
H454 C396 0.959 . S
H455 C396 0.958 . S
C456 C457 1.560 . S
C456 H517 0.959 . S
C456 H518 0.959 . S
C456 H519 0.960 . S
C457 C456 1.560 . S
C457 O512 1.426 . S
C457 H516 0.980 . S
C458 C459 1.407 . S
C458 C463 1.418 . S
C458 O512 1.334 . S
C459 C458 1.407 . S
C459 C460 1.360 . S
C459 H520 0.929 . S
C460 C459 1.360 . S
C460 C461 1.401 . S
C460 C464 1.527 . S
C461 C460 1.401 . S
C461 C462 1.405 . S
C461 C494 1.587 . S
C462 C461 1.405 . S
C462 C463 1.332 . S
C462 C465 1.496 . S
C463 C458 1.418 . S
C463 C462 1.332 . S
C463 H521 0.929 . S
C464 C460 1.527 . S
C464 H522 0.959 . S
C464 H523 0.961 . S
C464 H524 0.961 . S
C465 C462 1.496 . S
C465 H525 0.960 . S
C465 H526 0.960 . S
C465 H527 0.961 . S
C466 C467 1.517 . S
C466 H529 0.961 . S
C466 H530 0.960 . S
C466 H531 0.959 . S
C467 C466 1.517 . S
C467 O515 1.468 . S
C467 H528 0.980 . S
C468 C469 1.349 . S
C468 C473 1.367 . S
C468 O515 1.408 . S
C469 C468 1.349 . S
C469 C470 1.407 . S
C469 H532 0.930 . S
C470 C469 1.407 . S
C470 C471 1.449 . S
C470 C474 1.535 . S
C471 C470 1.449 . S
C471 C472 1.384 . S
C471 C496 1.553 . S
C472 C471 1.384 . S
C472 C473 1.364 . S
C472 C475 1.450 . S
C473 C468 1.367 . S
C473 C472 1.364 . S
C473 H533 0.931 . S
C474 C470 1.535 . S
C474 H534 0.959 . S
C474 H535 0.961 . S
C474 H536 0.959 . S
C475 C472 1.450 . S
C475 H537 0.960 . S
C475 H538 0.960 . S
C475 H539 0.960 . S
C476 C477 1.309 . S
C476 C481 1.304 . S
C476 O514 1.435 . S
C477 C476 1.309 . S
C477 C478 1.476 . S
C477 H541 0.930 . S
C478 C477 1.476 . S
C478 C479 1.400 . S
C478 C482 1.567 . S
C479 C478 1.400 . S
C479 C480 1.373 . S
C479 C501 1.432 . S
C480 C479 1.373 . S
C480 C481 1.339 . S
C480 C483 1.530 . S
C481 C476 1.304 . S
C481 C480 1.339 . S
C481 H542 0.930 . S
C482 C478 1.567 . S
C482 H543 0.961 . S
C482 H544 0.960 . S
C482 H545 0.958 . S
C483 C480 1.530 . S
C483 H546 0.961 . S
C483 H547 0.960 . S
C483 H548 0.960 . S
C484 C485 1.530 . S
C484 H550 0.961 . S
C484 H551 0.961 . S
C484 H552 0.959 . S
C485 C484 1.530 . S
C485 O513 1.412 . S
C485 H549 0.980 . S
C486 C487 1.288 . S
C486 C491 1.377 . S
C486 O513 1.393 . S
C487 C486 1.288 . S
C487 C488 1.369 . S
C487 H553 0.932 . S
C488 C487 1.369 . S
C488 C489 1.398 . S
C488 C492 1.527 1_565 S
C489 C488 1.398 . S
C489 C490 1.380 . S
C489 C503 1.497 1_565 S
C490 C489 1.380 . S
C490 C491 1.383 . S
C490 C493 1.603 . S
C491 C486 1.377 . S
C491 C490 1.383 . S
C491 H554 0.929 . S
C492 C488 1.527 1_545 S
C492 H555 0.961 . S
C492 H556 0.959 . S
C492 H557 0.931 1_545 S
C493 C490 1.603 . S
C493 H558 0.960 . S
C493 H559 0.962 . S
C493 H560 0.961 . S
C494 C461 1.587 . S
C494 C495 1.360 . S
C494 C507 1.412 . S
C495 C494 1.360 . S
C495 C496 1.365 1_565 S
C495 H561 0.929 . S
C496 C471 1.553 . S
C496 C495 1.365 1_545 S
C496 C497 1.404 . S
C497 C496 1.404 . S
C497 C498 1.395 . S
C497 C508 1.451 . S
C498 C497 1.395 . S
C498 C499 1.322 . S
C498 H562 0.930 . S
C499 C498 1.322 . S
C499 C500 1.459 1_556 S
C499 H563 0.929 . S
C500 C499 1.459 1_554 S
C500 C501 1.445 . S
C500 C509 1.395 . S
C501 C479 1.432 . S
C501 C500 1.445 . S
C501 C502 1.370 . S
C502 C501 1.370 . S
C502 C503 1.438 . S
C502 H564 0.930 . S
C503 C489 1.497 1_545 S
C503 C502 1.438 . S
C503 C504 1.360 1_545 S
C504 C503 1.360 1_565 S
C504 C505 1.401 . S
C504 C509 1.446 1_565 S
C505 C504 1.401 . S
C505 C506 1.347 1_554 S
C505 H565 0.929 . S
C506 C505 1.347 1_556 S
C506 C507 1.455 . S
C506 H566 0.930 . S
C507 C494 1.412 . S
C507 C506 1.455 . S
C507 C508 1.331 1_565 S
C508 C497 1.451 . S
C508 C507 1.331 1_545 S
C508 C509 1.497 1_556 S
C509 C500 1.395 . S
C509 C504 1.446 1_545 S
C509 C508 1.497 1_554 S
C510 C511 1.582 . S
C510 H567 0.962 . S
C510 H568 0.959 . S
C510 H569 0.958 . S
C511 C510 1.582 . S
C511 O514 1.458 . S
C511 H540 0.980 . S
O512 C457 1.426 . S
O512 C458 1.334 . S
O513 C485 1.412 . S
O513 C486 1.393 . S
O514 C476 1.435 . S
O514 C511 1.458 . S
O515 C467 1.468 . S
O515 C468 1.408 . S
H516 C457 0.980 . S
H517 C456 0.959 . S
H518 C456 0.959 . S
H519 C456 0.960 . S
H520 C459 0.929 . S
H521 C463 0.929 . S
H522 C464 0.959 . S
H523 C464 0.961 . S
H524 C464 0.961 . S
H525 C465 0.960 . S
H526 C465 0.960 . S
H527 C465 0.961 . S
H528 C467 0.980 . S
H529 C466 0.961 . S
H530 C466 0.960 . S
H531 C466 0.959 . S
H532 C469 0.930 . S
H533 C473 0.931 . S
H534 C474 0.959 . S
H535 C474 0.961 . S
H536 C474 0.959 . S
H537 C475 0.960 . S
H538 C475 0.960 . S
H539 C475 0.960 . S
H540 C511 0.980 . S
H541 C477 0.930 . S
H542 C481 0.930 . S
H543 C482 0.961 . S
H544 C482 0.960 . S
H545 C482 0.958 . S
H546 C483 0.961 . S
H547 C483 0.960 . S
H548 C483 0.960 . S
H549 C485 0.980 . S
H550 C484 0.961 . S
H551 C484 0.961 . S
H552 C484 0.959 . S
H553 C487 0.932 . S
H554 C491 0.929 . S
H555 C492 0.961 . S
H556 C492 0.959 . S
H557 C492 0.931 1_565 S
H558 C493 0.960 . S
H559 C493 0.962 . S
H560 C493 0.961 . S
H561 C495 0.929 . S
H562 C498 0.930 . S
H563 C499 0.929 . S
H564 C502 0.930 . S
H565 C505 0.929 . S
H566 C506 0.930 . S
H567 C510 0.962 . S
H568 C510 0.959 . S
H569 C510 0.958 . S
C570 C571 1.560 . S
C570 H631 0.959 . S
C570 H632 0.959 . S
C570 H633 0.960 . S
C571 C570 1.560 . S
C571 O626 1.426 . S
C571 H630 0.980 . S
C572 C573 1.407 . S
C572 C577 1.418 . S
C572 O626 1.334 . S
C573 C572 1.407 . S
C573 C574 1.360 . S
C573 H634 0.929 . S
C574 C573 1.360 . S
C574 C575 1.401 . S
C574 C578 1.527 . S
C575 C574 1.401 . S
C575 C576 1.405 . S
C575 C608 1.587 . S
C576 C575 1.405 . S
C576 C577 1.332 . S
C576 C579 1.496 . S
C577 C572 1.418 . S
C577 C576 1.332 . S
C577 H635 0.929 . S
C578 C574 1.527 . S
C578 H636 0.959 . S
C578 H637 0.961 . S
C578 H638 0.961 . S
C579 C576 1.496 . S
C579 H639 0.960 . S
C579 H640 0.960 . S
C579 H641 0.961 . S
C580 C581 1.517 1_556 S
C580 H643 0.961 . S
C580 H644 0.960 . S
C580 H645 0.959 . S
C581 C580 1.517 1_554 S
C581 O629 1.468 . S
C581 H642 0.980 . S
C582 C583 1.349 . S
C582 C587 1.367 . S
C582 O629 1.408 . S
C583 C582 1.349 . S
C583 C584 1.407 . S
C583 H646 0.930 . S
C584 C583 1.407 . S
C584 C585 1.449 . S
C584 C588 1.535 . S
C585 C584 1.449 . S
C585 C586 1.384 . S
C585 C610 1.553 . S
C586 C585 1.384 . S
C586 C587 1.364 . S
C586 C589 1.450 . S
C587 C582 1.367 . S
C587 C586 1.364 . S
C587 H647 0.931 . S
C588 C584 1.535 . S
C588 H648 0.959 . S
C588 H649 0.961 . S
C588 H650 0.959 . S
C589 C586 1.450 . S
C589 H651 0.960 . S
C589 H652 0.960 . S
C589 H653 0.960 . S
C590 C591 1.309 . S
C590 C595 1.304 . S
C590 O628 1.435 . S
C591 C590 1.309 . S
C591 C592 1.476 . S
C591 H655 0.930 . S
C592 C591 1.476 . S
C592 C593 1.400 . S
C592 C596 1.567 . S
C593 C592 1.400 . S
C593 C594 1.373 . S
C593 C615 1.432 . S
C594 C593 1.373 . S
C594 C595 1.339 . S
C594 C597 1.530 . S
C595 C590 1.304 . S
C595 C594 1.339 . S
C595 H656 0.930 . S
C596 C592 1.567 . S
C596 H657 0.961 . S
C596 H658 0.960 . S
C596 H659 0.958 . S
C597 C594 1.530 . S
C597 H660 0.961 . S
C597 H661 0.960 . S
C597 H662 0.960 . S
C598 C599 1.530 . S
C598 H664 0.961 . S
C598 H665 0.961 . S
C598 H666 0.959 . S
C599 C598 1.530 . S
C599 O627 1.412 . S
C599 H663 0.980 . S
C600 C601 1.288 . S
C600 C605 1.377 . S
C600 O627 1.393 . S
C601 C600 1.288 . S
C601 C602 1.369 . S
C601 H667 0.932 . S
C602 C601 1.369 . S
C602 C603 1.398 . S
C602 C606 1.527 . S
C603 C602 1.398 . S
C603 C604 1.380 . S
C603 C617 1.497 . S
C604 C603 1.380 . S
C604 C605 1.383 . S
C604 C607 1.603 . S
C605 C600 1.377 . S
C605 C604 1.383 . S
C605 H668 0.929 . S
C606 C602 1.527 . S
C606 H669 0.961 . S
C606 H670 0.959 . S
C606 H671 0.959 . S
C607 C604 1.603 . S
C607 H672 0.960 . S
C607 H673 0.962 . S
C607 H674 0.961 . S
C608 C575 1.587 . S
C608 C609 1.360 . S
C608 C621 1.412 . S
C609 C608 1.360 . S
C609 C610 1.365 . S
C609 H675 0.929 . S
C610 C585 1.553 . S
C610 C609 1.365 . S
C610 C611 1.404 . S
C611 C610 1.404 . S
C611 C612 1.395 . S
C611 C622 1.451 . S
C612 C611 1.395 . S
C612 C613 1.322 . S
C612 H676 0.930 . S
C613 C612 1.322 . S
C613 C614 1.459 . S
C613 H677 0.929 . S
C614 C613 1.459 . S
C614 C615 1.445 . S
C614 C623 1.395 . S
C615 C593 1.432 . S
C615 C614 1.445 . S
C615 C616 1.370 . S
C616 C615 1.370 . S
C616 C617 1.438 . S
C616 H678 0.930 . S
C617 C603 1.497 . S
C617 C616 1.438 . S
C617 C618 1.360 . S
C618 C617 1.360 . S
C618 C619 1.401 . S
C618 C623 1.446 . S
C619 C618 1.401 . S
C619 C620 1.347 . S
C619 H679 0.929 . S
C620 C619 1.347 . S
C620 C621 1.455 . S
C620 H680 0.930 . S
C621 C608 1.412 . S
C621 C620 1.455 . S
C621 C622 1.331 . S
C622 C611 1.451 . S
C622 C621 1.331 . S
C622 C623 1.497 . S
C623 C614 1.395 . S
C623 C618 1.446 . S
C623 C622 1.497 . S
C624 C625 1.582 . S
C624 H681 0.962 . S
C624 H682 0.959 . S
C624 H683 0.958 . S
C625 C624 1.582 . S
C625 O628 1.458 . S
C625 H654 0.980 . S
O626 C571 1.426 . S
O626 C572 1.334 . S
O627 C599 1.412 . S
O627 C600 1.393 . S
O628 C590 1.435 . S
O628 C625 1.458 . S
O629 C581 1.468 . S
O629 C582 1.408 . S
H630 C571 0.980 . S
H631 C570 0.959 . S
H632 C570 0.959 . S
H633 C570 0.960 . S
H634 C573 0.929 . S
H635 C577 0.929 . S
H636 C578 0.959 . S
H637 C578 0.961 . S
H638 C578 0.961 . S
H639 C579 0.960 . S
H640 C579 0.960 . S
H641 C579 0.961 . S
H642 C581 0.980 . S
H643 C580 0.961 . S
H644 C580 0.960 . S
H645 C580 0.959 . S
H646 C583 0.930 . S
H647 C587 0.931 . S
H648 C588 0.959 . S
H649 C588 0.961 . S
H650 C588 0.959 . S
H651 C589 0.960 . S
H652 C589 0.960 . S
H653 C589 0.960 . S
H654 C625 0.980 . S
H655 C591 0.930 . S
H656 C595 0.930 . S
H657 C596 0.961 . S
H658 C596 0.960 . S
H659 C596 0.958 . S
H660 C597 0.961 . S
H661 C597 0.960 . S
H662 C597 0.960 . S
H663 C599 0.980 . S
H664 C598 0.961 . S
H665 C598 0.961 . S
H666 C598 0.959 . S
H667 C601 0.932 . S
H668 C605 0.929 . S
H669 C606 0.961 . S
H670 C606 0.959 . S
H671 C606 0.959 . S
H672 C607 0.960 . S
H673 C607 0.962 . S
H674 C607 0.961 . S
H675 C609 0.929 . S
H676 C612 0.930 . S
H677 C613 0.929 . S
H678 C616 0.930 . S
H679 C619 0.929 . S
H680 C620 0.930 . S
H681 C624 0.962 . S
H682 C624 0.959 . S
H683 C624 0.958 . S
O684 Cd685 2.223 . S
O684 C692 1.315 . S
Cd685 O684 2.223 . S
Cd685 O688 2.297 . S
Cd685 O689 2.439 . S
Cd685 O695 2.240 . S
Cd686 O687 2.240 . S
Cd686 O694 2.223 . S
Cd686 O696 2.297 . S
Cd686 O697 2.439 . S
O687 Cd686 2.240 . S
O687 C692 1.279 . S
O688 Cd685 2.297 . S
O688 C690 1.247 . S
O689 Cd685 2.439 . S
O689 C690 1.208 . S
C690 O688 1.247 . S
C690 O689 1.208 . S
C691 O696 1.247 . S
C691 O697 1.208 . S
C692 O684 1.315 . S
C692 O687 1.279 . S
C693 O694 1.315 . S
C693 O695 1.279 . S
O694 Cd686 2.223 . S
O694 C693 1.315 . S
O695 Cd685 2.240 . S
O695 C693 1.279 . S
O696 Cd686 2.297 . S
O696 C691 1.247 . S
O697 Cd686 2.439 . S
O697 C691 1.208 . S
O698 Cd699 2.223 . S
O698 C706 1.315 . S
Cd699 O698 2.223 . S
Cd699 O702 2.297 . S
Cd699 O703 2.439 . S
Cd699 O709 2.240 . S
Cd700 O701 2.240 . S
Cd700 O708 2.223 . S
Cd700 O710 2.297 . S
Cd700 O711 2.439 . S
O701 Cd700 2.240 . S
O701 C706 1.279 . S
O702 Cd699 2.297 . S
O702 C704 1.247 . S
O703 Cd699 2.439 . S
O703 C704 1.208 . S
C704 O702 1.247 . S
C704 O703 1.208 . S
C705 O710 1.247 . S
C705 O711 1.208 . S
C706 O698 1.315 . S
C706 O701 1.279 . S
C707 O708 1.315 . S
C707 O709 1.279 . S
O708 Cd700 2.223 . S
O708 C707 1.315 . S
O709 Cd699 2.240 . S
O709 C707 1.279 . S
O710 Cd700 2.297 . S
O710 C705 1.247 . S
O711 Cd700 2.439 . S
O711 C705 1.208 . S
O712 Cd713 2.223 . S
O712 C720 1.315 . S
Cd713 O712 2.223 . S
Cd713 O716 2.297 . S
Cd713 O717 2.439 . S
Cd713 O723 2.240 . S
Cd714 O715 2.240 . S
Cd714 O722 2.223 . S
Cd714 O724 2.297 . S
Cd714 O725 2.439 . S
O715 Cd714 2.240 . S
O715 C720 1.279 . S
O716 Cd713 2.297 . S
O716 C718 1.247 . S
O717 Cd713 2.439 . S
O717 C718 1.208 . S
C718 O716 1.247 . S
C718 O717 1.208 . S
C719 O724 1.247 . S
C719 O725 1.208 . S
C720 O712 1.315 . S
C720 O715 1.279 . S
C721 O722 1.315 . S
C721 O723 1.279 . S
O722 Cd714 2.223 . S
O722 C721 1.315 . S
O723 Cd713 2.240 . S
O723 C721 1.279 . S
O724 Cd714 2.297 . S
O724 C719 1.247 . S
O725 Cd714 2.439 . S
O725 C719 1.208 . S
O726 Cd727 2.223 . S
O726 C734 1.315 . S
Cd727 O726 2.223 . S
Cd727 O730 2.297 . S
Cd727 O731 2.439 . S
Cd727 O737 2.240 . S
Cd728 O729 2.240 . S
Cd728 O736 2.223 . S
Cd728 O738 2.297 . S
Cd728 O739 2.439 . S
O729 Cd728 2.240 . S
O729 C734 1.279 . S
O730 Cd727 2.297 . S
O730 C732 1.247 . S
O731 Cd727 2.439 . S
O731 C732 1.208 . S
C732 O730 1.247 . S
C732 O731 1.208 . S
C733 O738 1.247 . S
C733 O739 1.208 . S
C734 O726 1.315 . S
C734 O729 1.279 . S
C735 O736 1.315 . S
C735 O737 1.279 . S
O736 Cd728 2.223 . S
O736 C735 1.315 . S
O737 Cd727 2.240 . S
O737 C735 1.279 . S
O738 Cd728 2.297 . S
O738 C733 1.247 . S
O739 Cd728 2.439 . S
O739 C733 1.208 . S
O740 Cd741 2.223 . S
O740 C748 1.315 . S
Cd741 O740 2.223 . S
Cd741 O744 2.297 . S
Cd741 O745 2.439 . S
Cd741 O751 2.240 . S
Cd742 O743 2.240 . S
Cd742 O750 2.223 . S
Cd742 O752 2.297 . S
Cd742 O753 2.439 . S
O743 Cd742 2.240 . S
O743 C748 1.279 . S
O744 Cd741 2.297 . S
O744 C746 1.247 . S
O745 Cd741 2.439 . S
O745 C746 1.208 . S
C746 O744 1.247 . S
C746 O745 1.208 . S
C747 O752 1.247 . S
C747 O753 1.208 . S
C748 O740 1.315 . S
C748 O743 1.279 . S
C749 O750 1.315 . S
C749 O751 1.279 . S
O750 Cd742 2.223 . S
O750 C749 1.315 . S
O751 Cd741 2.240 . S
O751 C749 1.279 . S
O752 Cd742 2.297 . S
O752 C747 1.247 . S
O753 Cd742 2.439 . S
O753 C747 1.208 . S
O754 Cd755 2.223 . S
O754 C762 1.315 . S
Cd755 O754 2.223 . S
Cd755 O758 2.297 . S
Cd755 O759 2.439 . S
Cd755 O765 2.240 . S
Cd756 O757 2.240 . S
Cd756 O764 2.223 . S
Cd756 O766 2.297 . S
Cd756 O767 2.439 . S
O757 Cd756 2.240 . S
O757 C762 1.279 . S
O758 Cd755 2.297 . S
O758 C760 1.247 . S
O759 Cd755 2.439 . S
O759 C760 1.208 . S
C760 O758 1.247 . S
C760 O759 1.208 . S
C761 O766 1.247 . S
C761 O767 1.208 . S
C762 O754 1.315 . S
C762 O757 1.279 . S
C763 O764 1.315 . S
C763 O765 1.279 . S
O764 Cd756 2.223 . S
O764 C763 1.315 . S
O765 Cd755 2.240 . S
O765 C763 1.279 . S
O766 Cd756 2.297 . S
O766 C761 1.247 . S
O767 Cd756 2.439 . S
O767 C761 1.208 . S
C768 C769 1.369 . S
C768 C770 1.419 . S
C768 H772 0.930 . S
C769 C768 1.369 . S
C769 C778 1.429 . S
C770 C768 1.419 . S
C770 C771 1.363 . S
C770 H773 0.929 . S
C771 C770 1.363 . S
C771 C777 1.428 . S
H772 C768 0.930 . S
H773 C770 0.929 . S
S774 N775 1.613 . S
S774 N776 1.610 . S
N775 S774 1.613 . S
N775 C778 1.350 . S
N776 S774 1.610 . S
N776 C777 1.351 . S
C777 C771 1.428 . S
C777 N776 1.351 . S
C777 C778 1.434 . S
C778 C769 1.429 . S
C778 N775 1.350 . S
C778 C777 1.434 . S
C779 C780 1.369 . S
C779 C781 1.419 . S
C779 H783 0.930 . S
C780 C779 1.369 . S
C780 C789 1.429 . S
C781 C779 1.419 . S
C781 C782 1.363 . S
C781 H784 0.929 . S
C782 C781 1.363 . S
C782 C788 1.428 . S
H783 C779 0.930 . S
H784 C781 0.929 . S
S785 N786 1.613 . S
S785 N787 1.610 . S
N786 S785 1.613 . S
N786 C789 1.350 . S
N787 S785 1.610 . S
N787 C788 1.351 . S
C788 C782 1.428 . S
C788 N787 1.351 . S
C788 C789 1.434 . S
C789 C780 1.429 . S
C789 N786 1.350 . S
C789 C788 1.434 . S
C790 C791 1.369 . S
C790 C792 1.419 . S
C790 H794 0.930 . S
C791 C790 1.369 . S
C791 C800 1.429 . S
C792 C790 1.419 . S
C792 C793 1.363 . S
C792 H795 0.929 . S
C793 C792 1.363 . S
C793 C799 1.428 . S
H794 C790 0.930 . S
H795 C792 0.929 . S
S796 N797 1.613 . S
S796 N798 1.610 . S
N797 S796 1.613 . S
N797 C800 1.350 . S
N798 S796 1.610 . S
N798 C799 1.351 . S
C799 C793 1.428 . S
C799 N798 1.351 . S
C799 C800 1.434 . S
C800 C791 1.429 . S
C800 N797 1.350 . S
C800 C799 1.434 . S
C801 C802 1.369 . S
C801 C803 1.419 . S
C801 H805 0.930 . S
C802 C801 1.369 . S
C802 C811 1.429 . S
C803 C801 1.419 . S
C803 C804 1.363 . S
C803 H806 0.929 . S
C804 C803 1.363 . S
C804 C810 1.428 . S
H805 C801 0.930 . S
H806 C803 0.929 . S
S807 N808 1.613 . S
S807 N809 1.610 . S
N808 S807 1.613 . S
N808 C811 1.350 . S
N809 S807 1.610 . S
N809 C810 1.351 . S
C810 C804 1.428 . S
C810 N809 1.351 . S
C810 C811 1.434 . S
C811 C802 1.429 . S
C811 N808 1.350 . S
C811 C810 1.434 . S
C812 C813 1.369 . S
C812 C814 1.419 . S
C812 H816 0.930 . S
C813 C812 1.369 . S
C813 C822 1.429 . S
C814 C812 1.419 . S
C814 C815 1.363 . S
C814 H817 0.929 . S
C815 C814 1.363 . S
C815 C821 1.428 . S
H816 C812 0.930 . S
H817 C814 0.929 . S
S818 N819 1.613 . S
S818 N820 1.610 . S
N819 S818 1.613 . S
N819 C822 1.350 . S
N820 S818 1.610 . S
N820 C821 1.351 . S
C821 C815 1.428 . S
C821 N820 1.351 . S
C821 C822 1.434 . S
C822 C813 1.429 . S
C822 N819 1.350 . S
C822 C821 1.434 . S
C823 C824 1.369 . S
C823 C825 1.419 . S
C823 H827 0.930 . S
C824 C823 1.369 . S
C824 C833 1.429 . S
C825 C823 1.419 . S
C825 C826 1.363 . S
C825 H828 0.929 . S
C826 C825 1.363 . S
C826 C832 1.428 . S
H827 C823 0.930 . S
H828 C825 0.929 . S
S829 N830 1.613 . S
S829 N831 1.610 . S
N830 S829 1.613 . S
N830 C833 1.350 . S
N831 S829 1.610 . S
N831 C832 1.351 . S
C832 C826 1.428 . S
C832 N831 1.351 . S
C832 C833 1.434 . S
C833 C824 1.429 . S
C833 N830 1.350 . S
C833 C832 1.434 . S
C834 C835 1.369 . S
C834 C836 1.419 . S
C834 H838 0.930 . S
C835 C834 1.369 . S
C835 C844 1.429 . S
C836 C834 1.419 . S
C836 C837 1.363 . S
C836 H839 0.929 . S
C837 C836 1.363 . S
C837 C843 1.428 . S
H838 C834 0.930 . S
H839 C836 0.929 . S
S840 N841 1.613 . S
S840 N842 1.610 . S
N841 S840 1.613 . S
N841 C844 1.350 . S
N842 S840 1.610 . S
N842 C843 1.351 . S
C843 C837 1.428 . S
C843 N842 1.351 . S
C843 C844 1.434 . S
C844 C835 1.429 . S
C844 N841 1.350 . S
C844 C843 1.434 . S
C845 C846 1.369 . S
C845 C847 1.419 . S
C845 H849 0.930 . S
C846 C845 1.369 . S
C846 C855 1.429 . S
C847 C845 1.419 . S
C847 C848 1.363 . S
C847 H850 0.929 . S
C848 C847 1.363 . S
C848 C854 1.428 . S
H849 C845 0.930 . S
H850 C847 0.929 . S
S851 N852 1.613 . S
S851 N853 1.610 . S
N852 S851 1.613 . S
N852 C855 1.350 . S
N853 S851 1.610 . S
N853 C854 1.351 . S
C854 C848 1.428 . S
C854 N853 1.351 . S
C854 C855 1.434 . S
C855 C846 1.429 . S
C855 N852 1.350 . S
C855 C854 1.434 . S
C856 C857 1.369 . S
C856 C858 1.419 . S
C856 H860 0.930 . S
C857 C856 1.369 . S
C857 C866 1.429 . S
C858 C856 1.419 . S
C858 C859 1.363 . S
C858 H861 0.929 . S
C859 C858 1.363 . S
C859 C865 1.428 . S
H860 C856 0.930 . S
H861 C858 0.929 . S
S862 N863 1.613 . S
S862 N864 1.610 . S
N863 S862 1.613 . S
N863 C866 1.350 . S
N864 S862 1.610 . S
N864 C865 1.351 . S
C865 C859 1.428 . S
C865 N864 1.351 . S
C865 C866 1.434 . S
C866 C857 1.429 . S
C866 N863 1.350 . S
C866 C865 1.434 . S
C867 C868 1.369 . S
C867 C869 1.419 . S
C867 H871 0.930 . S
C868 C867 1.369 . S
C868 C877 1.429 . S
C869 C867 1.419 . S
C869 C870 1.363 . S
C869 H872 0.929 . S
C870 C869 1.363 . S
C870 C876 1.428 . S
H871 C867 0.930 . S
H872 C869 0.929 . S
S873 N874 1.613 . S
S873 N875 1.610 . S
N874 S873 1.613 . S
N874 C877 1.350 . S
N875 S873 1.610 . S
N875 C876 1.351 . S
C876 C870 1.428 . S
C876 N875 1.351 . S
C876 C877 1.434 . S
C877 C868 1.429 . S
C877 N874 1.350 . S
C877 C876 1.434 . S
C878 C879 1.369 . S
C878 C880 1.419 . S
C878 H882 0.930 . S
C879 C878 1.369 . S
C879 C888 1.429 . S
C880 C878 1.419 . S
C880 C881 1.363 . S
C880 H883 0.929 . S
C881 C880 1.363 . S
C881 C887 1.428 . S
H882 C878 0.930 . S
H883 C880 0.929 . S
S884 N885 1.613 . S
S884 N886 1.610 . S
N885 S884 1.613 . S
N885 C888 1.350 . S
N886 S884 1.610 . S
N886 C887 1.351 . S
C887 C881 1.428 . S
C887 N886 1.351 . S
C887 C888 1.434 . S
C888 C879 1.429 . S
C888 N885 1.350 . S
C888 C887 1.434 . S
C889 C890 1.369 . S
C889 C891 1.419 . S
C889 H893 0.930 . S
C890 C889 1.369 . S
C890 C899 1.429 . S
C891 C889 1.419 . S
C891 C892 1.363 . S
C891 H894 0.929 . S
C892 C891 1.363 . S
C892 C898 1.428 . S
H893 C889 0.930 . S
H894 C891 0.929 . S
S895 N896 1.613 . S
S895 N897 1.610 . S
N896 S895 1.613 . S
N896 C899 1.350 . S
N897 S895 1.610 . S
N897 C898 1.351 . S
C898 C892 1.428 . S
C898 N897 1.351 . S
C898 C899 1.434 . S
C899 C890 1.429 . S
C899 N896 1.350 . S
C899 C898 1.434 . S
C900 C901 1.369 . S
C900 C902 1.419 . S
C900 H904 0.930 . S
C901 C900 1.369 . S
C901 C910 1.429 . S
C902 C900 1.419 . S
C902 C903 1.363 . S
C902 H905 0.929 . S
C903 C902 1.363 . S
C903 C909 1.428 . S
H904 C900 0.930 . S
H905 C902 0.929 . S
S906 N907 1.613 . S
S906 N908 1.610 . S
N907 S906 1.613 . S
N907 C910 1.350 . S
N908 S906 1.610 . S
N908 C909 1.351 . S
C909 C903 1.428 . S
C909 N908 1.351 . S
C909 C910 1.434 . S
C910 C901 1.429 . S
C910 N907 1.350 . S
C910 C909 1.434 . S
C911 C912 1.369 . S
C911 C913 1.419 . S
C911 H915 0.930 . S
C912 C911 1.369 . S
C912 C921 1.429 . S
C913 C911 1.419 . S
C913 C914 1.363 . S
C913 H916 0.929 . S
C914 C913 1.363 . S
C914 C920 1.428 . S
H915 C911 0.930 . S
H916 C913 0.929 . S
S917 N918 1.613 . S
S917 N919 1.610 . S
N918 S917 1.613 . S
N918 C921 1.350 . S
N919 S917 1.610 . S
N919 C920 1.351 . S
C920 C914 1.428 . S
C920 N919 1.351 . S
C920 C921 1.434 . S
C921 C912 1.429 . S
C921 N918 1.350 . S
C921 C920 1.434 . S
C922 C923 1.369 . S
C922 C924 1.419 . S
C922 H926 0.930 . S
C923 C922 1.369 . S
C923 C932 1.429 . S
C924 C922 1.419 . S
C924 C925 1.363 . S
C924 H927 0.929 . S
C925 C924 1.363 . S
C925 C931 1.428 . S
H926 C922 0.930 . S
H927 C924 0.929 . S
S928 N929 1.613 . S
S928 N930 1.610 . S
N929 S928 1.613 . S
N929 C932 1.350 . S
N930 S928 1.610 . S
N930 C931 1.351 . S
C931 C925 1.428 . S
C931 N930 1.351 . S
C931 C932 1.434 . S
C932 C923 1.429 . S
C932 N929 1.350 . S
C932 C931 1.434 . S
C933 C934 1.369 . S
C933 C935 1.419 . S
C933 H937 0.930 . S
C934 C933 1.369 . S
C934 C943 1.429 1_556 S
C935 C933 1.419 . S
C935 C936 1.363 1_556 S
C935 H938 0.929 . S
C936 C935 1.363 1_554 S
C936 C942 1.428 . S
H937 C933 0.930 . S
H938 C935 0.929 . S
S939 N940 1.613 . S
S939 N941 1.610 . S
N940 S939 1.613 . S
N940 C943 1.350 . S
N941 S939 1.610 . S
N941 C942 1.351 . S
C942 C936 1.428 . S
C942 N941 1.351 . S
C942 C943 1.434 . S
C943 C934 1.429 1_554 S
C943 N940 1.350 . S
C943 C942 1.434 . S
C944 C945 1.369 . S
C944 C946 1.419 . S
C944 H948 0.930 . S
C945 C944 1.369 . S
C945 C954 1.429 . S
C946 C944 1.419 . S
C946 C947 1.363 . S
C946 H949 0.929 . S
C947 C946 1.363 . S
C947 C953 1.428 . S
H948 C944 0.930 . S
H949 C946 0.929 . S
S950 N951 1.613 . S
S950 N952 1.610 . S
N951 S950 1.613 . S
N951 C954 1.350 . S
N952 S950 1.610 . S
N952 C953 1.351 . S
C953 C947 1.428 . S
C953 N952 1.351 . S
C953 C954 1.434 . S
C954 C945 1.429 . S
C954 N951 1.350 . S
C954 C953 1.434 . S
C955 C956 1.369 . S
C955 C957 1.419 . S
C955 H959 0.930 . S
C956 C955 1.369 . S
C956 C965 1.429 . S
C957 C955 1.419 . S
C957 C958 1.363 . S
C957 H960 0.929 . S
C958 C957 1.363 . S
C958 C964 1.428 . S
H959 C955 0.930 . S
H960 C957 0.929 . S
S961 N962 1.613 . S
S961 N963 1.610 . S
N962 S961 1.613 . S
N962 C965 1.350 . S
N963 S961 1.610 . S
N963 C964 1.351 . S
C964 C958 1.428 . S
C964 N963 1.351 . S
C964 C965 1.434 . S
C965 C956 1.429 . S
C965 N962 1.350 . S
C965 C964 1.434 . S
C966 C967 1.369 . S
C966 C968 1.419 . S
C966 H970 0.930 . S
C967 C966 1.369 . S
C967 C976 1.429 . S
C968 C966 1.419 . S
C968 C969 1.363 . S
C968 H971 0.929 . S
C969 C968 1.363 . S
C969 C975 1.428 . S
H970 C966 0.930 . S
H971 C968 0.929 . S
S972 N973 1.613 . S
S972 N974 1.610 . S
N973 S972 1.613 . S
N973 C976 1.350 . S
N974 S972 1.610 . S
N974 C975 1.351 . S
C975 C969 1.428 . S
C975 N974 1.351 . S
C975 C976 1.434 . S
C976 C967 1.429 . S
C976 N973 1.350 . S
C976 C975 1.434 . S
C977 C978 1.369 . S
C977 C979 1.419 . S
C977 H981 0.930 . S
C978 C977 1.369 . S
C978 C987 1.429 . S
C979 C977 1.419 . S
C979 C980 1.363 . S
C979 H982 0.929 . S
C980 C979 1.363 . S
C980 C986 1.428 . S
H981 C977 0.930 . S
H982 C979 0.929 . S
S983 N984 1.613 . S
S983 N985 1.610 . S
N984 S983 1.613 . S
N984 C987 1.350 . S
N985 S983 1.610 . S
N985 C986 1.351 . S
C986 C980 1.428 . S
C986 N985 1.351 . S
C986 C987 1.434 . S
C987 C978 1.429 . S
C987 N984 1.350 . S
C987 C986 1.434 . S
C988 C989 1.369 . S
C988 C990 1.419 . S
C988 H992 0.930 . S
C989 C988 1.369 . S
C989 C998 1.429 . S
C990 C988 1.419 . S
C990 C991 1.363 . S
C990 H993 0.929 . S
C991 C990 1.363 . S
C991 C997 1.428 . S
H992 C988 0.930 . S
H993 C990 0.929 . S
S994 N995 1.613 . S
S994 N996 1.610 . S
N995 S994 1.613 . S
N995 C998 1.350 . S
N996 S994 1.610 . S
N996 C997 1.351 . S
C997 C991 1.428 . S
C997 N996 1.351 . S
C997 C998 1.434 . S
C998 C989 1.429 . S
C998 N995 1.350 . S
C998 C997 1.434 . S
C999 C1000 1.369 . S
C999 C1001 1.419 . S
C999 H1003 0.930 . S
C1000 C999 1.369 . S
C1000 C1009 1.429 . S
C1001 C999 1.419 . S
C1001 C1002 1.363 . S
C1001 H1004 0.929 . S
C1002 C1001 1.363 . S
C1002 C1008 1.428 . S
H1003 C999 0.930 . S
H1004 C1001 0.929 . S
S1005 N1006 1.613 . S
S1005 N1007 1.610 . S
N1006 S1005 1.613 . S
N1006 C1009 1.350 . S
N1007 S1005 1.610 . S
N1007 C1008 1.351 . S
C1008 C1002 1.428 . S
C1008 N1007 1.351 . S
C1008 C1009 1.434 . S
C1009 C1000 1.429 . S
C1009 N1006 1.350 . S
C1009 C1008 1.434 . S
C1010 C1011 1.369 1_556 S
C1010 C1012 1.419 . S
C1010 H1014 0.930 . S
C1011 C1010 1.369 1_554 S
C1011 C1020 1.433 . S
C1012 C1010 1.419 . S
C1012 C1013 1.363 . S
C1012 H1015 0.929 . S
C1013 C1012 1.363 . S
C1013 C1019 1.428 . S
H1014 C1010 0.930 . S
H1015 C1012 0.929 . S
S1016 N1017 1.613 . S
S1016 N1018 1.610 1_554 S
N1017 S1016 1.613 . S
N1017 C1020 1.364 . S
N1018 S1016 1.610 1_556 S
N1018 C1019 1.351 . S
C1019 C1013 1.428 . S
C1019 N1018 1.351 . S
C1019 C1020 1.416 1_556 S
C1020 C1011 1.433 . S
C1020 N1017 1.364 . S
C1020 C1019 1.416 1_554 S
C1021 C1022 1.369 . S
C1021 C1023 1.419 . S
C1021 H1025 0.930 . S
C1022 C1021 1.369 . S
C1022 C1031 1.429 . S
C1023 C1021 1.419 . S
C1023 C1024 1.363 . S
C1023 H1026 0.929 . S
C1024 C1023 1.363 . S
C1024 C1030 1.428 . S
H1025 C1021 0.930 . S
H1026 C1023 0.929 . S
S1027 N1028 1.613 . S
S1027 N1029 1.610 . S
N1028 S1027 1.613 . S
N1028 C1031 1.350 . S
N1029 S1027 1.610 . S
N1029 C1030 1.351 . S
C1030 C1024 1.428 . S
C1030 N1029 1.351 . S
C1030 C1031 1.434 . S
C1031 C1022 1.429 . S
C1031 N1028 1.350 . S
C1031 C1030 1.434 . S
C771 C761 2.091 . S
C769 C1 1.612 . S
C780 C169 1.032 . S
C782 C690 1.523 . S
C791 C283 1.916 . S
C793 C704 2.161 . S
C802 C397 0.929 . S
C804 C718 1.418 . S
C815 C732 1.975 . S
C813 C457 1.544 . S
C824 C571 1.290 . S
C826 C747 1.372 . S
C835 C115 1.344 . S
C837 C705 1.459 . S
C846 C229 1.520 . S
C848 C719 1.975 . S
C857 C343 1.317 . S
C859 C733 1.375 . S
C870 C746 2.041 . S
C868 C511 1.815 . S
C881 C760 1.514 . S
C879 C625 0.997 . S
C892 C691 2.170 . S
C890 C55 1.939 . S
C901 C29 1.117 . S
C903 C707 1.516 . S
C912 C125 1.142 . S
C914 C721 1.958 . S
C925 C735 1.504 . S
C923 C239 1.007 . S
C934 C353 1.134 . S
C936 C748 1.913 . S
C947 C762 1.481 . S
C945 C485 1.054 . S
C958 C693 1.929 . S
C956 C599 1.831 . S
C969 C763 1.914 . S
C967 C143 1.831 . S
C978 C257 1.101 . S
C980 C692 1.528 . S
C991 C706 1.878 . S
C989 C371 1.798 . S
C1000 C467 1.019 . S
C1002 C720 1.508 . S
C1011 C581 1.109 . S
C1013 C734 1.905 . S
C1022 C11 1.025 . S
C1024 C749 1.553 . S
