# Generated by pormake.
# Topology rtl, (3,6)-cn, num edge types: 1
# Building blocks:
#     Node 0, Type 0, BuildingBlock: BETDIP_clean_linker_0, # of connection points: 3
#     Node 1, Type 0, BuildingBlock: BETDIP_clean_linker_0, # of connection points: 3
#     Node 2, Type 0, BuildingBlock: BETDIP_clean_linker_0, # of connection points: 3
#     Node 3, Type 0, BuildingBlock: BETDIP_clean_linker_0, # of connection points: 3
#     Node 4, Type 1, BuildingBlock: KUMJIN_clean_sbu_1, # of connection points: 6
#     Node 5, Type 1, BuildingBlock: KUMJIN_clean_sbu_1, # of connection points: 6
#     Edge 6, Type (0, 1), BuildingBlock: AJUNOK_clean_linker_0, # of connection points: 2
#     Edge 7, Type (0, 1), BuildingBlock: AJUNOK_clean_linker_0, # of connection points: 2
#     Edge 8, Type (0, 1), BuildingBlock: AJUNOK_clean_linker_0, # of connection points: 2
#     Edge 9, Type (0, 1), BuildingBlock: AJUNOK_clean_linker_0, # of connection points: 2
#     Edge 10, Type (0, 1), BuildingBlock: AJUNOK_clean_linker_0, # of connection points: 2
#     Edge 11, Type (0, 1), BuildingBlock: AJUNOK_clean_linker_0, # of connection points: 2
#     Edge 12, Type (0, 1), BuildingBlock: AJUNOK_clean_linker_0, # of connection points: 2
#     Edge 13, Type (0, 1), BuildingBlock: AJUNOK_clean_linker_0, # of connection points: 2
#     Edge 14, Type (0, 1), BuildingBlock: AJUNOK_clean_linker_0, # of connection points: 2
#     Edge 15, Type (0, 1), BuildingBlock: AJUNOK_clean_linker_0, # of connection points: 2
#     Edge 16, Type (0, 1), BuildingBlock: AJUNOK_clean_linker_0, # of connection points: 2
#     Edge 17, Type (0, 1), BuildingBlock: AJUNOK_clean_linker_0, # of connection points: 2
# Relax obj value: 0.054
# Max RMSD: 0.240
# Mean RMSD: 0.172
data_MOF--net-rtl--node1-KUMJIN_clean_sbu_1--node2-BETDIP_clean_linker_0--edge1-AJUNOK_clean_linker_0
_symmetry_space_group_name_H-M    P1
_symmetry_Int_Tables_number       1
_symmetry_cell_setting            triclinic
loop_
_symmetry_equiv_pos_as_xyz
'x, y, z'
_cell_length_a     26.172318
_cell_length_b     26.59025
_cell_length_c     20.813445
_cell_angle_alpha  74.096922
_cell_angle_beta   99.558409
_cell_angle_gamma 91.477639
loop_
_atom_site_label
_atom_site_type_symbol
_atom_site_fract_x
_atom_site_fract_y
_atom_site_fract_z
_atom_type_partial_charge
H0 H 0.23443 0.83501 0.89856 0.0
H1 H 0.22881 0.79248 0.11202 0.0
H2 H 0.13771 0.92333 0.97631 0.0
H3 H 0.28749 0.73248 0.12173 0.0
C4 C 0.30158 0.73623 0.07459 0.0
C5 C 0.22047 0.84231 0.94149 0.0
C6 C 0.18353 0.88203 0.93078 0.0
C7 C 0.23901 0.81125 0.00695 0.0
C8 C 0.21791 0.8187 0.06211 0.0
C9 C 0.18078 0.8591 0.05187 0.0
C10 C 0.16568 0.89169 0.98587 0.0
N11 N 0.27813 0.77293 0.01391 0.0
H12 H 0.72824 0.74111 0.78376 0.0
H13 H 0.72698 0.72576 0.5821 0.0
H14 H 0.62857 0.63111 0.70992 0.0
H15 H 0.76014 0.80295 0.56171 0.0
C16 C 0.78303 0.80755 0.60812 0.0
C17 C 0.71325 0.72362 0.74332 0.0
C18 C 0.67555 0.68478 0.75325 0.0
C19 C 0.7315 0.74003 0.68094 0.0
C20 C 0.71245 0.71568 0.62956 0.0
C21 C 0.67452 0.67723 0.63923 0.0
C22 C 0.65655 0.66205 0.70119 0.0
N23 N 0.7696 0.77981 0.672 0.0
H24 H 0.78342 0.21922 0.98379 0.0
H25 H 0.81367 0.20919 0.19736 0.0
H26 H 0.89536 0.10743 0.12049 0.0
H27 H 0.73267 0.23987 0.17728 0.0
C28 C 0.7281 0.26785 0.12761 0.0
C29 C 0.80344 0.20111 0.03459 0.0
C30 C 0.84006 0.16047 0.04565 0.0
C31 C 0.79196 0.2179 0.08926 0.0
C32 C 0.81954 0.1953 0.15483 0.0
C33 C 0.85605 0.15496 0.16588 0.0
C34 C 0.86583 0.13758 0.11158 0.0
N35 N 0.75372 0.25822 0.07671 0.0
H36 H 0.33633 0.31426 0.35028 0.0
H37 H 0.31793 0.30737 0.55397 0.0
H38 H 0.43308 0.40612 0.46159 0.0
H39 H 0.30066 0.22374 0.55809 0.0
C40 C 0.27479 0.2276 0.51035 0.0
C41 C 0.34769 0.32645 0.39613 0.0
C42 C 0.38706 0.36331 0.39909 0.0
C43 C 0.32413 0.30407 0.45303 0.0
C44 C 0.33826 0.32143 0.51145 0.0
C45 C 0.37753 0.35801 0.51537 0.0
C46 C 0.40223 0.37838 0.45907 0.0
N47 N 0.28607 0.2648 0.45077 0.0
Eu48 Eu 0.06209 0.9726 0.51508 0.0
C49 C 0.93867 0.18026 0.47063 0.0
N50 N 0.98266 0.1636 0.516 0.0
C51 C 0.01808 0.24917 0.48509 0.0
C52 C 0.93312 0.23239 0.42976 0.0
C53 C 0.02201 0.19707 0.52423 0.0
C54 C 0.9735 0.26691 0.4376 0.0
C55 C 0.85461 0.16035 0.41482 0.0
C56 C 0.89984 0.14452 0.46328 0.0
C57 C 0.84911 0.21217 0.37386 0.0
C58 C 0.88815 0.24812 0.38147 0.0
Eu59 Eu 0.98637 0.07499 0.57872 0.0
N60 N 0.90685 0.09407 0.50224 0.0
C61 C 0.8162 0.12358 0.40886 0.0
C62 C 0.86814 0.05901 0.49925 0.0
C63 C 0.82273 0.0729 0.45188 0.0
H64 H 0.05625 0.18375 0.56153 0.0
H65 H 0.79255 0.04461 0.44906 0.0
H66 H 1.00248 0.8591 0.56671 0.0
H67 H 0.26498 0.02345 0.58453 0.0
H68 H 0.87123 0.02063 0.53394 0.0
H69 H 0.781 0.13416 0.37212 0.0
H70 H 0.17942 0.03366 0.5131 0.0
H71 H 0.04944 0.27561 0.49158 0.0
H72 H 0.81479 0.22485 0.33608 0.0
H73 H 0.8834 0.2879 0.34928 0.0
H74 H 0.02108 0.77362 0.65197 0.0
H75 H 0.97075 0.30722 0.407 0.0
H76 H 0.28608 0.94466 0.68094 0.0
N77 N 0.0766 0.88934 0.59284 0.0
C78 C 0.12451 0.88014 0.6315 0.0
C79 C 0.05037 0.80329 0.64691 0.0
C80 C 0.13667 0.83192 0.68085 0.0
C81 C 0.03981 0.85176 0.59907 0.0
C82 C 0.0989 0.79339 0.68818 0.0
N83 N 0.14845 0.96591 0.57465 0.0
C84 C 0.18626 1.00113 0.55781 0.0
C85 C 0.21059 0.911 0.6634 0.0
C86 C 0.16093 0.91971 0.62308 0.0
C87 C 0.24757 0.94984 0.65103 0.0
C88 C 0.2357 0.99454 0.597 0.0
H89 H 0.10679 0.75591 0.72559 0.0
H90 H 0.19537 0.78744 0.76079 0.0
H91 H 0.26009 0.85643 0.74536 0.0
O92 O 0.08862 0.9856 0.41691 0.0
O93 O 0.05352 0.95601 0.62563 0.0
O94 O 0.05849 0.0354 0.64818 0.0
O95 O 0.07601 0.90753 0.47557 0.0
O96 O 0.0903 0.05701 0.49404 0.0
O97 O 0.07279 0.08654 0.58315 0.0
O98 O 0.9333 0.06246 0.65187 0.0
O99 O 0.99304 0.09126 0.46758 0.0
O100 O 0.98815 0.01037 0.44873 0.0
O101 O 0.98489 0.12762 0.6429 0.0
O102 O 0.95764 0.99087 0.6007 0.0
O103 O 0.97659 0.95632 0.51598 0.0
C104 C 0.06986 0.98528 0.6658 0.0
C105 C 0.0609 0.922 0.35828 0.0
C106 C 0.06789 0.89176 0.25907 0.0
C107 C 0.0151 0.87852 0.25504 0.0
C108 C 1.00816 0.9099 0.35192 0.0
C109 C 0.98543 0.88843 0.30029 0.0
C110 C 0.09013 0.91458 0.31069 0.0
C111 C 0.09861 0.08904 0.53316 0.0
C112 C 0.08707 0.93628 0.41868 0.0
C113 C 0.18557 0.824 0.72211 0.0
C114 C 0.22233 0.86343 0.71355 0.0
C115 C 0.97952 0.06102 0.4277 0.0
C116 C 0.96336 0.08788 0.75062 0.0
C117 C 0.94085 0.09079 0.85852 0.0
C118 C 0.98441 0.05873 0.89246 0.0
C119 C 1.00659 0.05585 0.78535 0.0
C120 C 0.93075 0.10573 0.78733 0.0
C121 C 0.01713 0.04153 0.85594 0.0
C122 C 0.95045 0.95628 0.56511 0.0
C123 C 0.95083 0.10081 0.67645 0.0
H124 H 0.99656 0.85994 0.21726 0.0
H125 H 0.98504 0.91555 0.38813 0.0
H126 H 0.94494 0.87826 0.29628 0.0
H127 H 0.13016 0.92634 0.31472 0.0
H128 H 0.99326 0.04726 0.94729 0.0
H129 H 0.03194 0.04164 0.75799 0.0
H130 H 0.89709 0.13019 0.76073 0.0
H131 H 0.05058 0.01682 0.88239 0.0
Eu132 Eu 0.47988 0.50662 0.00754 0.0
C133 C 0.69517 0.59208 0.10353 0.0
N134 N 0.67516 0.54583 0.13475 0.0
C135 C 0.75731 0.50249 0.15153 0.0
C136 C 0.74745 0.59497 0.09436 0.0
C137 C 0.70518 0.50139 0.15908 0.0
C138 C 0.77857 0.54946 0.11906 0.0
C139 C 0.68191 0.68403 0.04267 0.0
C140 C 0.66255 0.63617 0.07778 0.0
C141 C 0.73404 0.687 0.03376 0.0
C142 C 0.76671 0.64266 0.05958 0.0
Eu143 Eu 0.58729 0.54793 0.14538 0.0
N144 N 0.61165 0.63182 0.08512 0.0
C145 C 0.64822 0.72752 0.01723 0.0
C146 C 0.57937 0.67473 0.06316 0.0
C147 C 0.59691 0.72295 0.02812 0.0
H148 H 0.68903 0.46519 0.185 0.0
H149 H 0.57092 0.75671 0.01006 0.0
H150 H 0.37923 0.59121 0.96243 0.0
H151 H 0.48523 0.295 0.12513 0.0
H152 H 0.5404 0.67261 0.07343 0.0
H153 H 0.6616 0.76495 0.98993 0.0
H154 H 0.51883 0.37893 0.06572 0.0
H155 H 0.78107 0.46715 0.17076 0.0
H156 H 0.74945 0.72342 0.00671 0.0
H157 H 0.80672 0.64554 0.0518 0.0
H158 H 0.28802 0.59329 0.97911 0.0
H159 H 0.81889 0.55009 0.11285 0.0
H160 H 0.39566 0.29018 0.14954 0.0
N161 N 0.39141 0.51113 0.01612 0.0
C162 C 0.36993 0.46588 0.04771 0.0
C163 C 0.3107 0.55727 0.999 0.0
C164 C 0.31785 0.46496 0.05742 0.0
C165 C 0.36247 0.55619 0.99036 0.0
C166 C 0.28837 0.51154 0.03309 0.0
N167 N 0.45078 0.42266 0.06104 0.0
C168 C 0.48053 0.37812 0.07815 0.0
C169 C 0.37914 0.37275 0.10318 0.0
C170 C 0.40033 0.42027 0.07037 0.0
C171 C 0.41049 0.32747 0.12417 0.0
C172 C 0.46117 0.33009 0.11082 0.0
H173 H 0.24823 0.51248 0.03968 0.0
H174 H 0.25704 0.41638 0.09921 0.0
H175 H 0.31063 0.33572 0.13921 0.0
O176 O 0.49216 0.46968 0.92911 0.0
O177 O 0.46229 0.49229 0.11501 0.0
O178 O 0.54089 0.4764 0.18608 0.0
O179 O 0.43134 0.5279 0.90761 0.0
O180 O 0.55941 0.46527 0.03454 0.0
O181 O 0.59076 0.46297 0.14626 0.0
O182 O 0.58328 0.59368 0.21674 0.0
O183 O 0.60597 0.55452 0.04057 0.0
O184 O 0.52765 0.57843 0.97304 0.0
O185 O 0.63667 0.52775 0.24484 0.0
O186 O 0.50601 0.5831 0.12573 0.0
O187 O 0.47629 0.59026 0.0131 0.0
C188 C 0.4905 0.47055 0.17415 0.0
C189 C 0.41661 0.45975 0.85442 0.0
C190 C 0.39167 0.41536 0.76594 0.0
C191 C 0.34939 0.39393 0.79719 0.0
C192 C 0.37374 0.43831 0.88408 0.0
C193 C 0.34047 0.40553 0.85574 0.0
C194 C 0.42535 0.44846 0.79481 0.0
C195 C 0.59038 0.44556 0.09274 0.0
C196 C 0.45241 0.49325 0.88593 0.0
C197 C 0.29691 0.4178 0.09095 0.0
C198 C 0.32745 0.37184 0.11375 0.0
C199 C 0.57843 0.57791 0.98184 0.0
C200 C 0.60039 0.54781 0.33153 0.0
C201 C 0.6008 0.56277 0.44184 0.0
C202 C 0.56599 0.52166 0.45684 0.0
C203 C 0.56515 0.50743 0.34674 0.0
C204 C 0.61823 0.57528 0.37916 0.0
C205 C 0.5483 0.49416 0.40937 0.0
C206 C 0.47268 0.60178 0.06975 0.0
C207 C 0.61645 0.56389 0.26478 0.0
H208 H 0.32278 0.36865 0.77568 0.0
H209 H 0.36571 0.44701 0.92895 0.0
H210 H 0.30756 0.38919 0.87913 0.0
H211 H 0.45835 0.46482 0.77148 0.0
H212 H 0.5526 0.51077 0.50524 0.0
H213 H 0.55044 0.48668 0.30996 0.0
H214 H 0.64463 0.60727 0.36673 0.0
H215 H 0.52121 0.46279 0.4209 0.0
C216 C 0.21354 0.17079 0.57533 0.0
C217 C 0.2281 0.19454 0.512 0.0
C218 C 0.17085 0.13797 0.58127 0.0
C219 C 0.14159 0.1265 0.52425 0.0
H220 H 0.23544 0.17763 0.62102 0.0
H221 H 0.16153 0.12047 0.63126 0.0
S222 S 0.16225 0.17964 0.34629 0.0
N223 N 0.20867 0.20559 0.39048 0.0
N224 N 0.12901 0.14266 0.40188 0.0
C225 C 0.1553 0.15025 0.46036 0.0
C226 C 0.19839 0.18461 0.45413 0.0
C227 C 0.36762 0.70833 0.01499 0.0
C228 C 0.34525 0.70178 0.07381 0.0
C229 C 0.40906 0.67614 0.01404 0.0
C230 C 0.42966 0.63623 0.07177 0.0
H231 H 0.35327 0.73861 0.96925 0.0
H232 H 0.42516 0.68264 0.96779 0.0
S233 S 0.38366 0.60145 0.23755 0.0
N234 N 0.34617 0.65158 0.19066 0.0
N235 N 0.42362 0.59096 0.18878 0.0
C236 C 0.40756 0.62917 0.13076 0.0
C237 C 0.36543 0.66189 0.13173 0.0
C238 C 0.84248 0.86238 0.5371 0.0
C239 C 0.82708 0.84418 0.60104 0.0
C240 C 0.88294 0.89774 0.52634 0.0
C241 C 0.90922 0.91714 0.57888 0.0
H242 H 0.82296 0.84917 0.4947 0.0
H243 H 0.89294 0.91079 0.47599 0.0
S244 S 0.88529 0.88093 0.7566 0.0
N245 N 0.8425 0.84729 0.71841 0.0
N246 N 0.91805 0.91438 0.698 0.0
C247 C 0.89458 0.89904 0.64334 0.0
C248 C 0.8537 0.86238 0.65454 0.0
C249 C 0.67247 0.32154 0.17021 0.0
C250 C 0.69324 0.31399 0.11531 0.0
C251 C 0.63948 0.36421 0.1624 0.0
C252 C 0.62539 0.40087 0.09909 0.0
H253 H 0.68194 0.2942 0.21998 0.0
H254 H 0.62447 0.36814 0.20631 0.0
S255 S 0.67021 0.40035 0.93923 0.0
N256 N 0.69818 0.34777 0.99535 0.0
N257 N 0.63568 0.42777 0.98061 0.0
C258 C 0.64584 0.394 0.04359 0.0
C259 C 0.67996 0.35068 0.05168 0.0
C260 C 0.10082 0.87989 0.09241 0.0
C261 C 0.15392 0.86573 0.10739 0.0
C262 C 0.07426 0.88903 0.14116 0.0
C263 C 0.09859 0.88229 0.20861 0.0
H264 H 0.079 0.88409 0.04219 0.0
H265 H 0.03411 0.90189 0.12518 0.0
S266 S 0.23646 0.84197 0.27666 0.0
N267 N 0.23019 0.84566 0.19528 0.0
N268 N 0.17873 0.8569 0.28905 0.0
C269 C 0.15135 0.86633 0.22534 0.0
C270 C 0.17916 0.85907 0.17457 0.0
C271 C 0.60569 0.67873 0.82284 0.0
C272 C 0.65613 0.66485 0.81811 0.0
C273 C 0.58103 0.65101 0.87654 0.0
C274 C 0.6058 0.60807 0.92696 0.0
H275 H 0.58439 0.70986 0.78316 0.0
H276 H 0.54196 0.66272 0.87783 0.0
S277 S 0.7375 0.5552 0.93556 0.0
N278 N 0.7299 0.60568 0.86747 0.0
N279 N 0.6836 0.55272 0.96771 0.0
C280 C 0.65671 0.59449 0.92322 0.0
C281 C 0.68184 0.62307 0.86891 0.0
C282 C 0.88014 0.07959 0.26803 0.0
C283 C 0.88648 0.13217 0.23356 0.0
C284 C 0.91118 0.05625 0.33044 0.0
C285 C 0.94969 0.08479 0.35985 0.0
H286 H 0.85096 0.05648 0.24655 0.0
H287 H 0.9044 0.01597 0.35628 0.0
S288 S 0.98531 0.22188 0.2851 0.0
N289 N 0.93579 0.21102 0.23046 0.0
N290 N 0.99517 0.16707 0.34692 0.0
C291 C 0.95721 0.13703 0.32471 0.0
C292 C 0.92527 0.1608 0.26172 0.0
C293 C 0.39679 0.33606 0.64177 0.0
C294 C 0.39143 0.37435 0.57895 0.0
C295 C 0.40029 0.34989 0.70252 0.0
C296 C 0.39916 0.40258 0.70306 0.0
H297 H 0.39605 0.2949 0.64379 0.0
H298 H 0.40172 0.31905 0.74932 0.0
S299 S 0.39133 0.51807 0.55358 0.0
N300 N 0.38922 0.46747 0.52164 0.0
N301 N 0.39673 0.49337 0.63646 0.0
C302 C 0.39767 0.44138 0.64135 0.0
C303 C 0.39366 0.4273 0.57911 0.0
C304 C 0.68965 0.62942 0.55559 0.0
C305 C 0.65477 0.65096 0.58595 0.0
C306 C 0.67187 0.60112 0.50878 0.0
C307 C 0.61863 0.5932 0.49096 0.0
H308 H 0.73104 0.63334 0.56936 0.0
H309 H 0.70005 0.58445 0.48735 0.0
S310 S 0.51126 0.64578 0.55109 0.0
N311 N 0.56438 0.66559 0.59128 0.0
N312 N 0.53108 0.61201 0.50372 0.0
C313 C 0.58331 0.61557 0.51969 0.0
C314 C 0.60135 0.64456 0.56704 0.0
C315 C 0.87392 0.17921 0.93583 0.0
C316 C 0.8549 0.14307 0.98923 0.0
C317 C 0.89927 0.16215 0.89085 0.0
C318 C 0.90654 0.10848 0.89827 0.0
H319 H 0.87214 0.22071 0.9314 0.0
H320 H 0.91587 0.19097 0.85259 0.0
S321 S 0.85634 0.9987 0.02252 0.0
N322 N 0.83908 0.05162 0.04123 0.0
N323 N 0.88728 0.01971 0.95746 0.0
C324 C 0.88442 0.07224 0.94829 0.0
C325 C 0.85839 0.08951 0.99354 0.0
C326 C 0.38572 0.42245 0.28228 0.0
C327 C 0.41279 0.38657 0.33979 0.0
C328 C 0.41098 0.44882 0.2285 0.0
C329 C 0.46407 0.43976 0.22993 0.0
H330 H 0.3452 0.43146 0.27988 0.0
H331 H 0.38897 0.4776 0.18643 0.0
S332 S 0.55054 0.34519 0.36683 0.0
N333 N 0.49437 0.34113 0.39404 0.0
N334 N 0.54147 0.38865 0.29192 0.0
C335 C 0.49083 0.40211 0.28615 0.0
C336 C 0.4653 0.37607 0.34134 0.0
C337 C 0.12189 0.88169 0.82695 0.0
C338 C 0.15788 0.90897 0.86183 0.0
C339 C 0.09279 0.90716 0.76426 0.0
C340 C 0.09955 0.96047 0.73354 0.0
H341 H 0.11531 0.84065 0.84912 0.0
H342 H 0.0645 0.8849 0.7399 0.0
S343 S 0.18915 0.04907 0.80533 0.0
N344 N 0.19818 0.99193 0.86303 0.0
N345 N 0.14498 0.03972 0.74333 0.0
C346 C 0.13551 0.98818 0.76819 0.0
C347 C 0.16449 0.96236 0.83273 0.0
loop_
_geom_bond_atom_site_label_1
_geom_bond_atom_site_label_2
_geom_bond_distance
_geom_bond_site_symmetry_2
_ccdc_geom_bond_type
H0 C5 0.930 . S
H1 C8 0.930 . S
H2 C10 0.930 . S
H3 C4 1.016 . S
C4 H3 1.016 . S
C4 N11 1.286 . S
C5 H0 0.930 . S
C5 C6 1.397 . S
C5 C7 1.361 1_556 S
C6 C5 1.397 . S
C6 C10 1.390 1_556 S
C7 C5 1.361 1_554 S
C7 C8 1.393 . S
C7 N11 1.413 . S
C8 H1 0.930 . S
C8 C7 1.393 . S
C8 C9 1.399 . S
C9 C8 1.399 . S
C9 C10 1.381 . S
C10 H2 0.930 . S
C10 C6 1.390 1_554 S
C10 C9 1.381 . S
N11 C4 1.286 . S
N11 C7 1.413 . S
H12 C17 0.930 . S
H13 C20 0.930 . S
H14 C22 0.930 . S
H15 C16 1.016 . S
C16 H15 1.016 . S
C16 N23 1.286 . S
C17 H12 0.930 . S
C17 C18 1.397 . S
C17 C19 1.361 . S
C18 C17 1.397 . S
C18 C22 1.390 . S
C19 C17 1.361 . S
C19 C20 1.393 . S
C19 N23 1.413 . S
C20 H13 0.930 . S
C20 C19 1.393 . S
C20 C21 1.399 . S
C21 C20 1.399 . S
C21 C22 1.381 . S
C22 H14 0.930 . S
C22 C18 1.390 . S
C22 C21 1.381 . S
N23 C16 1.286 . S
N23 C19 1.413 . S
H24 C29 0.930 1_556 S
H25 C32 0.930 . S
H26 C34 0.930 . S
H27 C28 1.016 . S
C28 H27 1.016 . S
C28 N35 1.286 . S
C29 H24 0.930 1_554 S
C29 C30 1.397 . S
C29 C31 1.361 . S
C30 C29 1.397 . S
C30 C34 1.390 . S
C31 C29 1.361 . S
C31 C32 1.393 . S
C31 N35 1.413 . S
C32 H25 0.930 . S
C32 C31 1.393 . S
C32 C33 1.399 . S
C33 C32 1.399 . S
C33 C34 1.381 . S
C34 H26 0.930 . S
C34 C30 1.390 . S
C34 C33 1.381 . S
N35 C28 1.286 . S
N35 C31 1.413 . S
H36 C41 0.930 . S
H37 C44 0.930 . S
H38 C46 0.930 . S
H39 C40 1.016 . S
C40 H39 1.016 . S
C40 N47 1.286 . S
C41 H36 0.930 . S
C41 C42 1.397 . S
C41 C43 1.361 . S
C42 C41 1.397 . S
C42 C46 1.390 . S
C43 C41 1.361 . S
C43 C44 1.393 . S
C43 N47 1.413 . S
C44 H37 0.930 . S
C44 C43 1.393 . S
C44 C45 1.399 . S
C45 C44 1.399 . S
C45 C46 1.381 . S
C46 H38 0.930 . S
C46 C42 1.390 . S
C46 C45 1.381 . S
N47 C40 1.286 . S
N47 C43 1.413 . S
Eu48 N77 2.600 . S
Eu48 N83 2.562 . S
Eu48 O92 2.462 . S
Eu48 O93 2.373 . S
Eu48 O95 2.432 . S
Eu48 O96 2.291 1_565 S
Eu48 O100 2.335 1_465 S
Eu48 O103 2.372 1_455 S
Eu48 C112 2.787 . S
C49 N50 1.365 . S
C49 C52 1.405 . S
C49 C56 1.448 . S
N50 C49 1.365 . S
N50 C53 1.319 1_655 S
N50 Eu59 2.600 . S
C51 C53 1.397 . S
C51 C54 1.367 1_455 S
C51 H71 0.931 . S
C52 C49 1.405 . S
C52 C54 1.403 . S
C52 C58 1.439 . S
C53 N50 1.319 1_455 S
C53 C51 1.397 . S
C53 H64 0.930 . S
C54 C51 1.367 1_655 S
C54 C52 1.403 . S
C54 H75 0.929 . S
C55 C56 1.430 . S
C55 C57 1.387 . S
C55 C61 1.404 . S
C56 C49 1.448 . S
C56 C55 1.430 . S
C56 N60 1.351 . S
C57 C55 1.387 . S
C57 C58 1.374 . S
C57 H72 0.931 . S
C58 C52 1.439 . S
C58 C57 1.374 . S
C58 H73 0.931 . S
Eu59 N50 2.600 . S
Eu59 N60 2.562 . S
Eu59 O94 2.335 1_655 S
Eu59 O97 2.372 1_655 S
Eu59 O98 2.462 . S
Eu59 O99 2.373 . S
Eu59 O101 2.432 . S
Eu59 O102 2.291 1_545 S
Eu59 C123 2.787 . S
N60 C56 1.351 . S
N60 Eu59 2.562 . S
N60 C62 1.325 . S
C61 C55 1.404 . S
C61 C63 1.366 . S
C61 H69 0.930 . S
C62 N60 1.325 . S
C62 C63 1.416 . S
C62 H68 0.929 . S
C63 C61 1.366 . S
C63 C62 1.416 . S
C63 H65 0.930 . S
H64 C53 0.930 . S
H65 C63 0.930 . S
H66 C81 0.930 1_655 S
H67 C88 0.930 . S
H68 C62 0.929 . S
H69 C61 0.930 . S
H70 C84 0.929 . S
H71 C51 0.931 . S
H72 C57 0.931 . S
H73 C58 0.931 . S
H74 C79 0.931 1_655 S
H75 C54 0.929 . S
H76 C87 0.930 . S
N77 Eu48 2.600 . S
N77 C78 1.365 . S
N77 C81 1.319 . S
C78 N77 1.365 . S
C78 C80 1.405 . S
C78 C86 1.448 . S
C79 H74 0.931 1_455 S
C79 C81 1.397 . S
C79 C82 1.367 . S
C80 C78 1.405 . S
C80 C82 1.403 . S
C80 C113 1.439 . S
C81 H66 0.930 1_455 S
C81 N77 1.319 . S
C81 C79 1.397 . S
C82 C79 1.367 . S
C82 C80 1.403 . S
C82 H89 0.929 . S
N83 Eu48 2.562 . S
N83 C84 1.325 . S
N83 C86 1.351 . S
C84 H70 0.929 . S
C84 N83 1.325 . S
C84 C88 1.416 . S
C85 C86 1.430 . S
C85 C87 1.404 . S
C85 C114 1.387 . S
C86 C78 1.448 . S
C86 N83 1.351 . S
C86 C85 1.430 . S
C87 H76 0.930 . S
C87 C85 1.404 . S
C87 C88 1.366 . S
C88 H67 0.930 . S
C88 C84 1.416 . S
C88 C87 1.366 . S
H89 C82 0.929 . S
H90 C113 0.931 . S
H91 C114 0.931 . S
O92 Eu48 2.462 . S
O92 C112 1.252 . S
O93 Eu48 2.373 . S
O93 C104 1.249 . S
O94 Eu59 2.335 1_455 S
O94 C104 1.264 1_545 S
O95 Eu48 2.432 . S
O95 C112 1.268 . S
O96 Eu48 2.291 1_545 S
O96 C111 1.255 . S
O97 Eu59 2.372 1_455 S
O97 C111 1.257 . S
O98 Eu59 2.462 . S
O98 C123 1.252 . S
O99 Eu59 2.373 . S
O99 C115 1.249 . S
O100 Eu48 2.335 1_645 S
O100 C115 1.264 . S
O101 Eu59 2.432 . S
O101 C123 1.268 . S
O102 Eu59 2.291 1_565 S
O102 C122 1.255 . S
O103 Eu48 2.372 1_655 S
O103 C122 1.257 . S
C104 O93 1.249 . S
C104 O94 1.264 1_565 S
C105 C108 1.382 . S
C105 C110 1.390 . S
C105 C112 1.506 . S
C106 C107 1.398 . S
C106 C110 1.392 . S
C107 C106 1.398 . S
C107 C109 1.372 . S
C107 H124 0.931 . S
C108 C105 1.382 . S
C108 C109 1.390 . S
C108 H125 0.931 . S
C109 C107 1.372 . S
C109 C108 1.390 . S
C109 H126 0.929 . S
C110 C105 1.390 . S
C110 C106 1.392 . S
C110 H127 0.930 . S
C111 O96 1.255 . S
C111 O97 1.257 . S
C112 Eu48 2.787 . S
C112 O92 1.252 . S
C112 O95 1.268 . S
C112 C105 1.506 . S
C113 C80 1.439 . S
C113 H90 0.931 . S
C113 C114 1.374 . S
C114 C85 1.387 . S
C114 H91 0.931 . S
C114 C113 1.374 . S
C115 O99 1.249 . S
C115 O100 1.264 . S
C116 C119 1.382 . S
C116 C120 1.390 . S
C116 C123 1.506 . S
C117 C118 1.398 . S
C117 C120 1.392 . S
C118 C117 1.398 . S
C118 C121 1.372 . S
C118 H128 0.931 . S
C119 C116 1.382 . S
C119 C121 1.390 . S
C119 H129 0.931 . S
C120 C116 1.390 . S
C120 C117 1.392 . S
C120 H130 0.930 . S
C121 C118 1.372 . S
C121 C119 1.390 . S
C121 H131 0.929 . S
C122 O102 1.255 . S
C122 O103 1.257 . S
C123 Eu59 2.787 . S
C123 O98 1.252 . S
C123 O101 1.268 . S
C123 C116 1.506 . S
H124 C107 0.931 . S
H125 C108 0.931 . S
H126 C109 0.929 . S
H127 C110 0.930 . S
H128 C118 0.931 . S
H129 C119 0.931 . S
H130 C120 0.930 . S
H131 C121 0.929 . S
Eu132 N161 2.600 . S
Eu132 N167 2.562 . S
Eu132 O176 2.462 1_554 S
Eu132 O177 2.373 . S
Eu132 O179 2.432 1_554 S
Eu132 O180 2.291 . S
Eu132 O184 2.335 1_554 S
Eu132 O187 2.372 . S
Eu132 C196 2.787 1_554 S
C133 N134 1.365 . S
C133 C136 1.405 . S
C133 C140 1.448 . S
N134 C133 1.365 . S
N134 C137 1.319 . S
N134 Eu143 2.600 . S
C135 C137 1.397 . S
C135 C138 1.367 . S
C135 H155 0.931 . S
C136 C133 1.405 . S
C136 C138 1.403 . S
C136 C142 1.439 . S
C137 N134 1.319 . S
C137 C135 1.397 . S
C137 H148 0.930 . S
C138 C135 1.367 . S
C138 C136 1.403 . S
C138 H159 0.929 . S
C139 C140 1.430 . S
C139 C141 1.387 . S
C139 C145 1.404 . S
C140 C133 1.448 . S
C140 C139 1.430 . S
C140 N144 1.351 . S
C141 C139 1.387 . S
C141 C142 1.374 . S
C141 H156 0.931 . S
C142 C136 1.439 . S
C142 C141 1.374 . S
C142 H157 0.931 . S
Eu143 N134 2.600 . S
Eu143 N144 2.562 . S
Eu143 O178 2.335 . S
Eu143 O181 2.372 . S
Eu143 O182 2.462 . S
Eu143 O183 2.373 . S
Eu143 O185 2.432 . S
Eu143 O186 2.291 . S
Eu143 C207 2.787 . S
N144 C140 1.351 . S
N144 Eu143 2.562 . S
N144 C146 1.325 . S
C145 C139 1.404 . S
C145 C147 1.366 . S
C145 H153 0.930 . S
C146 N144 1.325 . S
C146 C147 1.416 . S
C146 H152 0.929 . S
C147 C145 1.366 . S
C147 C146 1.416 . S
C147 H149 0.930 . S
H148 C137 0.930 . S
H149 C147 0.930 . S
H150 C165 0.930 . S
H151 C172 0.930 . S
H152 C146 0.929 . S
H153 C145 0.930 . S
H154 C168 0.929 . S
H155 C135 0.931 . S
H156 C141 0.931 . S
H157 C142 0.931 . S
H158 C163 0.931 . S
H159 C138 0.929 . S
H160 C171 0.930 . S
N161 Eu132 2.600 . S
N161 C162 1.365 . S
N161 C165 1.319 1_554 S
C162 N161 1.365 . S
C162 C164 1.405 . S
C162 C170 1.448 . S
C163 H158 0.931 . S
C163 C165 1.397 . S
C163 C166 1.367 1_556 S
C164 C162 1.405 . S
C164 C166 1.403 . S
C164 C197 1.439 . S
C165 H150 0.930 . S
C165 N161 1.319 1_556 S
C165 C163 1.397 . S
C166 C163 1.367 1_554 S
C166 C164 1.403 . S
C166 H173 0.929 . S
N167 Eu132 2.562 . S
N167 C168 1.325 . S
N167 C170 1.351 . S
C168 H154 0.929 . S
C168 N167 1.325 . S
C168 C172 1.416 . S
C169 C170 1.430 . S
C169 C171 1.404 . S
C169 C198 1.387 . S
C170 C162 1.448 . S
C170 N167 1.351 . S
C170 C169 1.430 . S
C171 H160 0.930 . S
C171 C169 1.404 . S
C171 C172 1.366 . S
C172 H151 0.930 . S
C172 C168 1.416 . S
C172 C171 1.366 . S
H173 C166 0.929 . S
H174 C197 0.931 . S
H175 C198 0.931 . S
O176 Eu132 2.462 1_556 S
O176 C196 1.252 . S
O177 Eu132 2.373 . S
O177 C188 1.249 . S
O178 Eu143 2.335 . S
O178 C188 1.264 . S
O179 Eu132 2.432 1_556 S
O179 C196 1.268 . S
O180 Eu132 2.291 . S
O180 C195 1.255 . S
O181 Eu143 2.372 . S
O181 C195 1.257 . S
O182 Eu143 2.462 . S
O182 C207 1.252 . S
O183 Eu143 2.373 . S
O183 C199 1.249 1_554 S
O184 Eu132 2.335 1_556 S
O184 C199 1.264 . S
O185 Eu143 2.432 . S
O185 C207 1.268 . S
O186 Eu143 2.291 . S
O186 C206 1.255 . S
O187 Eu132 2.372 . S
O187 C206 1.257 . S
C188 O177 1.249 . S
C188 O178 1.264 . S
C189 C192 1.382 . S
C189 C194 1.390 . S
C189 C196 1.506 . S
C190 C191 1.398 . S
C190 C194 1.392 . S
C191 C190 1.398 . S
C191 C193 1.372 . S
C191 H208 0.931 . S
C192 C189 1.382 . S
C192 C193 1.390 . S
C192 H209 0.931 . S
C193 C191 1.372 . S
C193 C192 1.390 . S
C193 H210 0.929 . S
C194 C189 1.390 . S
C194 C190 1.392 . S
C194 H211 0.930 . S
C195 O180 1.255 . S
C195 O181 1.257 . S
C196 Eu132 2.787 1_556 S
C196 O176 1.252 . S
C196 O179 1.268 . S
C196 C189 1.506 . S
C197 C164 1.439 . S
C197 H174 0.931 . S
C197 C198 1.374 . S
C198 C169 1.387 . S
C198 H175 0.931 . S
C198 C197 1.374 . S
C199 O183 1.249 1_556 S
C199 O184 1.264 . S
C200 C203 1.382 . S
C200 C204 1.390 . S
C200 C207 1.506 . S
C201 C202 1.398 . S
C201 C204 1.392 . S
C202 C201 1.398 . S
C202 C205 1.372 . S
C202 H212 0.931 . S
C203 C200 1.382 . S
C203 C205 1.390 . S
C203 H213 0.931 . S
C204 C200 1.390 . S
C204 C201 1.392 . S
C204 H214 0.930 . S
C205 C202 1.372 . S
C205 C203 1.390 . S
C205 H215 0.929 . S
C206 O186 1.255 . S
C206 O187 1.257 . S
C207 Eu143 2.787 . S
C207 O182 1.252 . S
C207 O185 1.268 . S
C207 C200 1.506 . S
H208 C191 0.931 . S
H209 C192 0.931 . S
H210 C193 0.929 . S
H211 C194 0.930 . S
H212 C202 0.931 . S
H213 C203 0.931 . S
H214 C204 0.930 . S
H215 C205 0.929 . S
C216 C217 1.369 . S
C216 C218 1.419 . S
C216 H220 0.930 . S
C217 C216 1.369 . S
C217 C226 1.429 . S
C218 C216 1.419 . S
C218 C219 1.363 . S
C218 H221 0.929 . S
C219 C218 1.363 . S
C219 C225 1.428 . S
H220 C216 0.930 . S
H221 C218 0.929 . S
S222 N223 1.613 . S
S222 N224 1.610 . S
N223 S222 1.613 . S
N223 C226 1.350 . S
N224 S222 1.610 . S
N224 C225 1.351 . S
C225 C219 1.428 . S
C225 N224 1.351 . S
C225 C226 1.434 . S
C226 C217 1.429 . S
C226 N223 1.350 . S
C226 C225 1.434 . S
C227 C228 1.369 . S
C227 C229 1.419 . S
C227 H231 0.930 1_554 S
C228 C227 1.369 . S
C228 C237 1.429 . S
C229 C227 1.419 . S
C229 C230 1.363 . S
C229 H232 0.929 1_554 S
C230 C229 1.363 . S
C230 C236 1.428 . S
H231 C227 0.930 1_556 S
H232 C229 0.929 1_556 S
S233 N234 1.613 . S
S233 N235 1.610 . S
N234 S233 1.613 . S
N234 C237 1.350 . S
N235 S233 1.610 . S
N235 C236 1.351 . S
C236 C230 1.428 . S
C236 N235 1.351 . S
C236 C237 1.434 . S
C237 C228 1.429 . S
C237 N234 1.350 . S
C237 C236 1.434 . S
C238 C239 1.369 . S
C238 C240 1.419 . S
C238 H242 0.930 . S
C239 C238 1.369 . S
C239 C248 1.429 . S
C240 C238 1.419 . S
C240 C241 1.363 . S
C240 H243 0.929 . S
C241 C240 1.363 . S
C241 C247 1.428 . S
H242 C238 0.930 . S
H243 C240 0.929 . S
S244 N245 1.613 . S
S244 N246 1.610 . S
N245 S244 1.613 . S
N245 C248 1.350 . S
N246 S244 1.610 . S
N246 C247 1.351 . S
C247 C241 1.428 . S
C247 N246 1.351 . S
C247 C248 1.434 . S
C248 C239 1.429 . S
C248 N245 1.350 . S
C248 C247 1.434 . S
C249 C250 1.369 . S
C249 C251 1.419 . S
C249 H253 0.930 . S
C250 C249 1.369 . S
C250 C259 1.429 . S
C251 C249 1.419 . S
C251 C252 1.363 . S
C251 H254 0.929 . S
C252 C251 1.363 . S
C252 C258 1.428 . S
H253 C249 0.930 . S
H254 C251 0.929 . S
S255 N256 1.613 . S
S255 N257 1.610 . S
N256 S255 1.613 . S
N256 C259 1.350 . S
N257 S255 1.610 . S
N257 C258 1.351 . S
C258 C252 1.428 . S
C258 N257 1.351 . S
C258 C259 1.434 . S
C259 C250 1.429 . S
C259 N256 1.350 . S
C259 C258 1.434 . S
C260 C261 1.369 . S
C260 C262 1.419 . S
C260 H264 0.930 . S
C261 C260 1.369 . S
C261 C270 1.429 . S
C262 C260 1.419 . S
C262 C263 1.363 . S
C262 H265 0.929 . S
C263 C262 1.363 . S
C263 C269 1.428 . S
H264 C260 0.930 . S
H265 C262 0.929 . S
S266 N267 1.613 . S
S266 N268 1.610 . S
N267 S266 1.613 . S
N267 C270 1.350 . S
N268 S266 1.610 . S
N268 C269 1.351 . S
C269 C263 1.428 . S
C269 N268 1.351 . S
C269 C270 1.434 . S
C270 C261 1.429 . S
C270 N267 1.350 . S
C270 C269 1.434 . S
C271 C272 1.369 . S
C271 C273 1.419 . S
C271 H275 0.930 . S
C272 C271 1.369 . S
C272 C281 1.429 . S
C273 C271 1.419 . S
C273 C274 1.363 . S
C273 H276 0.929 . S
C274 C273 1.363 . S
C274 C280 1.428 . S
H275 C271 0.930 . S
H276 C273 0.929 . S
S277 N278 1.613 . S
S277 N279 1.610 . S
N278 S277 1.613 . S
N278 C281 1.350 . S
N279 S277 1.610 . S
N279 C280 1.351 . S
C280 C274 1.428 . S
C280 N279 1.351 . S
C280 C281 1.434 . S
C281 C272 1.429 . S
C281 N278 1.350 . S
C281 C280 1.434 . S
C282 C283 1.369 . S
C282 C284 1.419 . S
C282 H286 0.930 . S
C283 C282 1.369 . S
C283 C292 1.429 . S
C284 C282 1.419 . S
C284 C285 1.363 . S
C284 H287 0.929 . S
C285 C284 1.363 . S
C285 C291 1.428 . S
H286 C282 0.930 . S
H287 C284 0.929 . S
S288 N289 1.613 . S
S288 N290 1.610 . S
N289 S288 1.613 . S
N289 C292 1.350 . S
N290 S288 1.610 . S
N290 C291 1.351 . S
C291 C285 1.428 . S
C291 N290 1.351 . S
C291 C292 1.434 . S
C292 C283 1.429 . S
C292 N289 1.350 . S
C292 C291 1.434 . S
C293 C294 1.369 . S
C293 C295 1.419 . S
C293 H297 0.930 . S
C294 C293 1.369 . S
C294 C303 1.429 . S
C295 C293 1.419 . S
C295 C296 1.363 . S
C295 H298 0.929 . S
C296 C295 1.363 . S
C296 C302 1.428 . S
H297 C293 0.930 . S
H298 C295 0.929 . S
S299 N300 1.613 . S
S299 N301 1.610 . S
N300 S299 1.613 . S
N300 C303 1.350 . S
N301 S299 1.610 . S
N301 C302 1.351 . S
C302 C296 1.428 . S
C302 N301 1.351 . S
C302 C303 1.434 . S
C303 C294 1.429 . S
C303 N300 1.350 . S
C303 C302 1.434 . S
C304 C305 1.369 . S
C304 C306 1.419 . S
C304 H308 0.930 . S
C305 C304 1.369 . S
C305 C314 1.429 . S
C306 C304 1.419 . S
C306 C307 1.363 . S
C306 H309 0.929 . S
C307 C306 1.363 . S
C307 C313 1.428 . S
H308 C304 0.930 . S
H309 C306 0.929 . S
S310 N311 1.613 . S
S310 N312 1.610 . S
N311 S310 1.613 . S
N311 C314 1.350 . S
N312 S310 1.610 . S
N312 C313 1.351 . S
C313 C307 1.428 . S
C313 N312 1.351 . S
C313 C314 1.434 . S
C314 C305 1.429 . S
C314 N311 1.350 . S
C314 C313 1.434 . S
C315 C316 1.369 . S
C315 C317 1.419 . S
C315 H319 0.930 . S
C316 C315 1.369 . S
C316 C325 1.429 . S
C317 C315 1.419 . S
C317 C318 1.363 . S
C317 H320 0.929 . S
C318 C317 1.363 . S
C318 C324 1.428 . S
H319 C315 0.930 . S
H320 C317 0.929 . S
S321 N322 1.613 1_566 S
S321 N323 1.610 . S
N322 S321 1.613 1_544 S
N322 C325 1.350 1_554 S
N323 S321 1.610 . S
N323 C324 1.351 1_565 S
C324 C318 1.428 . S
C324 N323 1.351 1_545 S
C324 C325 1.434 . S
C325 C316 1.429 . S
C325 N322 1.350 1_556 S
C325 C324 1.434 . S
C326 C327 1.369 . S
C326 C328 1.419 . S
C326 H330 0.930 . S
C327 C326 1.369 . S
C327 C336 1.429 . S
C328 C326 1.419 . S
C328 C329 1.363 . S
C328 H331 0.929 . S
C329 C328 1.363 . S
C329 C335 1.428 . S
H330 C326 0.930 . S
H331 C328 0.929 . S
S332 N333 1.613 . S
S332 N334 1.610 . S
N333 S332 1.613 . S
N333 C336 1.350 . S
N334 S332 1.610 . S
N334 C335 1.351 . S
C335 C329 1.428 . S
C335 N334 1.351 . S
C335 C336 1.434 . S
C336 C327 1.429 . S
C336 N333 1.350 . S
C336 C335 1.434 . S
C337 C338 1.369 . S
C337 C339 1.419 . S
C337 H341 0.930 . S
C338 C337 1.369 . S
C338 C347 1.429 . S
C339 C337 1.419 . S
C339 C340 1.363 . S
C339 H342 0.929 . S
C340 C339 1.363 . S
C340 C346 1.428 . S
H341 C337 0.930 . S
H342 C339 0.929 . S
S343 N344 1.613 . S
S343 N345 1.610 . S
N344 S343 1.613 . S
N344 C347 1.350 . S
N345 S343 1.610 . S
N345 C346 1.351 . S
C346 C340 1.428 . S
C346 N345 1.351 . S
C346 C347 1.434 . S
C347 C338 1.429 . S
C347 N344 1.350 . S
C347 C346 1.434 . S
C219 C111 1.637 . S
C217 C40 1.640 . S
C228 C4 1.645 . S
C230 C206 1.638 . S
C239 C16 1.633 . S
C241 C122 1.656 . S
C250 C28 1.605 . S
C252 C195 1.612 . S
C263 C106 1.408 . S
C261 C9 1.592 . S
C274 C199 1.687 . S
C272 C18 1.684 . S
C283 C33 1.621 . S
C285 C115 1.649 . S
C294 C45 1.590 . S
C296 C190 1.428 . S
C307 C201 1.396 . S
C305 C21 1.561 . S
C318 C117 1.370 . S
C316 C30 1.551 1_556 S
C329 C188 1.628 . S
C327 C42 1.614 . S
C338 C6 1.575 . S
C340 C104 1.599 . S
