# Generated by pormake.
# Topology zzz, (3,6)-cn, num edge types: 1
# Building blocks:
#     Node 0, Type 0, BuildingBlock: KAKCAD_clean_linker_0, # of connection points: 3
#     Node 1, Type 0, BuildingBlock: KAKCAD_clean_linker_0, # of connection points: 3
#     Node 2, Type 0, BuildingBlock: KAKCAD_clean_linker_0, # of connection points: 3
#     Node 3, Type 0, BuildingBlock: KAKCAD_clean_linker_0, # of connection points: 3
#     Node 4, Type 0, BuildingBlock: KAKCAD_clean_linker_0, # of connection points: 3
#     Node 5, Type 0, BuildingBlock: KAKCAD_clean_linker_0, # of connection points: 3
#     Node 6, Type 0, BuildingBlock: KAKCAD_clean_linker_0, # of connection points: 3
#     Node 7, Type 0, BuildingBlock: KAKCAD_clean_linker_0, # of connection points: 3
#     Node 8, Type 1, BuildingBlock: JUFBIX_clean_sbu_0, # of connection points: 6
#     Node 9, Type 1, BuildingBlock: JUFBIX_clean_sbu_0, # of connection points: 6
#     Node 10, Type 1, BuildingBlock: JUFBIX_clean_sbu_0, # of connection points: 6
#     Node 11, Type 1, BuildingBlock: JUFBIX_clean_sbu_0, # of connection points: 6
#     Edge 12, Type (0, 1), BuildingBlock: MIFKUJ_clean_linker_0, # of connection points: 2
#     Edge 13, Type (0, 1), BuildingBlock: MIFKUJ_clean_linker_0, # of connection points: 2
#     Edge 14, Type (0, 1), BuildingBlock: MIFKUJ_clean_linker_0, # of connection points: 2
#     Edge 15, Type (0, 1), BuildingBlock: MIFKUJ_clean_linker_0, # of connection points: 2
#     Edge 16, Type (0, 1), BuildingBlock: MIFKUJ_clean_linker_0, # of connection points: 2
#     Edge 17, Type (0, 1), BuildingBlock: MIFKUJ_clean_linker_0, # of connection points: 2
#     Edge 18, Type (0, 1), BuildingBlock: MIFKUJ_clean_linker_0, # of connection points: 2
#     Edge 19, Type (0, 1), BuildingBlock: MIFKUJ_clean_linker_0, # of connection points: 2
#     Edge 20, Type (0, 1), BuildingBlock: MIFKUJ_clean_linker_0, # of connection points: 2
#     Edge 21, Type (0, 1), BuildingBlock: MIFKUJ_clean_linker_0, # of connection points: 2
#     Edge 22, Type (0, 1), BuildingBlock: MIFKUJ_clean_linker_0, # of connection points: 2
#     Edge 23, Type (0, 1), BuildingBlock: MIFKUJ_clean_linker_0, # of connection points: 2
#     Edge 24, Type (0, 1), BuildingBlock: MIFKUJ_clean_linker_0, # of connection points: 2
#     Edge 25, Type (0, 1), BuildingBlock: MIFKUJ_clean_linker_0, # of connection points: 2
#     Edge 26, Type (0, 1), BuildingBlock: MIFKUJ_clean_linker_0, # of connection points: 2
#     Edge 27, Type (0, 1), BuildingBlock: MIFKUJ_clean_linker_0, # of connection points: 2
#     Edge 28, Type (0, 1), BuildingBlock: MIFKUJ_clean_linker_0, # of connection points: 2
#     Edge 29, Type (0, 1), BuildingBlock: MIFKUJ_clean_linker_0, # of connection points: 2
#     Edge 30, Type (0, 1), BuildingBlock: MIFKUJ_clean_linker_0, # of connection points: 2
#     Edge 31, Type (0, 1), BuildingBlock: MIFKUJ_clean_linker_0, # of connection points: 2
#     Edge 32, Type (0, 1), BuildingBlock: MIFKUJ_clean_linker_0, # of connection points: 2
#     Edge 33, Type (0, 1), BuildingBlock: MIFKUJ_clean_linker_0, # of connection points: 2
#     Edge 34, Type (0, 1), BuildingBlock: MIFKUJ_clean_linker_0, # of connection points: 2
#     Edge 35, Type (0, 1), BuildingBlock: MIFKUJ_clean_linker_0, # of connection points: 2
# Relax obj value: 0.295
# Max RMSD: 0.219
# Mean RMSD: 0.189
data_MOF--net-zzz--node1-JUFBIX_clean_sbu_0--node2-KAKCAD_clean_linker_0--edge1-MIFKUJ_clean_linker_0
_symmetry_space_group_name_H-M    P1
_symmetry_Int_Tables_number       1
_symmetry_cell_setting            triclinic
loop_
_symmetry_equiv_pos_as_xyz
'x, y, z'
_cell_length_a     71.283153
_cell_length_b     73.506027
_cell_length_c     28.181867
_cell_angle_alpha  83.974644
_cell_angle_beta   90.183954
_cell_angle_gamma 86.86548
loop_
_atom_site_label
_atom_site_type_symbol
_atom_site_fract_x
_atom_site_fract_y
_atom_site_fract_z
_atom_type_partial_charge
C0 C 0.81268 0.55988 0.13181 0.0
C1 C 0.82904 0.54946 0.1474 0.0
C2 C 0.79793 0.56247 0.1635 0.0
C3 C 0.79916 0.55435 0.21105 0.0
C4 C 0.81556 0.5437 0.22601 0.0
C5 C 0.83038 0.54147 0.19471 0.0
C6 C 0.78341 0.55653 0.24499 0.0
C7 C 0.76461 0.55697 0.22972 0.0
C8 C 0.74984 0.55741 0.26259 0.0
C9 C 0.7539 0.55723 0.31158 0.0
C10 C 0.77267 0.55713 0.32702 0.0
C11 C 0.78718 0.55711 0.29366 0.0
C12 C 0.77807 0.5559 0.37787 0.0
C13 C 0.77934 0.57188 0.40058 0.0
C14 C 0.78642 0.53936 0.39941 0.0
C15 C 0.79702 0.53899 0.44126 0.0
C16 C 0.79956 0.5552 0.46247 0.0
C17 C 0.73039 0.55713 0.24456 0.0
C18 C 0.72302 0.57169 0.21261 0.0
C19 C 0.72032 0.54126 0.2531 0.0
C20 C 0.70365 0.53956 0.22784 0.0
C21 C 0.69669 0.55379 0.19383 0.0
C22 C 0.70625 0.57013 0.18793 0.0
C23 C 0.78992 0.57152 0.44272 0.0
H24 H 0.81142 0.56615 0.09532 0.0
H25 H 0.78565 0.57092 0.15078 0.0
H26 H 0.81688 0.53673 0.26176 0.0
H27 H 0.84277 0.5331 0.20718 0.0
H28 H 0.76134 0.55622 0.19241 0.0
H29 H 0.80156 0.55727 0.30617 0.0
H30 H 0.74262 0.55705 0.3373 0.0
H31 H 0.77328 0.58484 0.384 0.0
H32 H 0.78593 0.52697 0.38181 0.0
H33 H 0.80437 0.52621 0.45477 0.0
H34 H 0.73063 0.58403 0.20544 0.0
H35 H 0.72593 0.52977 0.27712 0.0
H36 H 0.79131 0.5842 0.45846 0.0
H37 H 0.70112 0.58156 0.16306 0.0
H38 H 0.69684 0.52671 0.23311 0.0
C39 C 0.01527 0.80322 0.09844 0.0
C40 C 0.02986 0.81503 0.10272 0.0
C41 C 0.01157 0.78985 0.13559 0.0
C42 C 0.02223 0.78822 0.17795 0.0
C43 C 0.03708 0.7998 0.18191 0.0
C44 C 0.04096 0.81302 0.14438 0.0
C45 C 0.01732 0.77491 0.21842 0.0
C46 C 0.01436 0.75677 0.21109 0.0
C47 C 0.00875 0.74421 0.24861 0.0
C48 C 0.00564 0.75007 0.29419 0.0
C49 C 0.00895 0.76828 0.30202 0.0
C50 C 0.01486 0.78049 0.26405 0.0
C51 C 0.00634 0.77536 0.34899 0.0
C52 C 0.98824 0.77974 0.36533 0.0
C53 C 0.02192 0.78145 0.37211 0.0
C54 C 0.01945 0.79267 0.40893 0.0
C55 C 0.00132 0.79829 0.42309 0.0
C56 C 0.00679 0.72509 0.23815 0.0
C57 C 0.98896 0.71855 0.23106 0.0
C58 C 0.02276 0.71505 0.22414 0.0
C59 C 0.02094 0.69953 0.20022 0.0
C60 C 0.00308 0.69374 0.18957 0.0
C61 C 0.98711 0.70291 0.2071 0.0
C62 C 0.98574 0.7911 0.40214 0.0
H63 H 0.00656 0.80451 0.06656 0.0
H64 H 0.99998 0.78115 0.1318 0.0
H65 H 0.04556 0.79871 0.21415 0.0
H66 H 0.0522 0.82208 0.14856 0.0
H67 H 0.01652 0.75233 0.17589 0.0
H68 H 0.01702 0.79459 0.26982 0.0
H69 H 0.00118 0.7405 0.32332 0.0
H70 H 0.97601 0.77549 0.34738 0.0
H71 H 0.03601 0.77837 0.35977 0.0
H72 H 0.03178 0.79761 0.4249 0.0
H73 H 0.97643 0.72629 0.24075 0.0
H74 H 0.03664 0.71996 0.2288 0.0
H75 H 0.97157 0.79522 0.4119 0.0
H76 H 0.97316 0.69881 0.19929 0.0
H77 H 0.03351 0.69259 0.18785 0.0
C78 C 0.70519 0.94528 0.09585 0.0
C79 C 0.69021 0.95841 0.09838 0.0
C80 C 0.72049 0.94462 0.12744 0.0
C81 C 0.72099 0.95708 0.16195 0.0
C82 C 0.70625 0.97049 0.16337 0.0
C83 C 0.69106 0.97113 0.13204 0.0
C84 C 0.73651 0.95612 0.19739 0.0
C85 C 0.75534 0.95446 0.18364 0.0
C86 C 0.76997 0.95544 0.21687 0.0
C87 C 0.76551 0.95787 0.26468 0.0
C88 C 0.74662 0.95936 0.27863 0.0
C89 C 0.73236 0.95818 0.24503 0.0
C90 C 0.74087 0.96303 0.32721 0.0
C91 C 0.74365 0.94956 0.36601 0.0
C92 C 0.72887 0.97845 0.33233 0.0
C93 C 0.71838 0.97958 0.37366 0.0
C94 C 0.71975 0.96534 0.41124 0.0
C95 C 0.78965 0.95557 0.19964 0.0
C96 C 0.79602 0.94326 0.16749 0.0
C97 C 0.80137 0.96935 0.21051 0.0
C98 C 0.81858 0.97147 0.18739 0.0
C99 C 0.82447 0.95979 0.15316 0.0
C100 C 0.81324 0.94533 0.14456 0.0
C101 C 0.73322 0.95074 0.40784 0.0
H102 H 0.70489 0.93531 0.0702 0.0
H103 H 0.73167 0.93414 0.12565 0.0
H104 H 0.70648 0.98057 0.18875 0.0
H105 H 0.68 0.98173 0.13398 0.0
H106 H 0.75857 0.95345 0.14641 0.0
H107 H 0.7178 0.95918 0.25607 0.0
H108 H 0.77657 0.95899 0.29049 0.0
H109 H 0.75276 0.93748 0.36267 0.0
H110 H 0.72644 0.98897 0.30266 0.0
H111 H 0.70812 0.99096 0.37417 0.0
H112 H 0.78734 0.93243 0.15869 0.0
H113 H 0.79679 0.97911 0.2349 0.0
H114 H 0.735 0.93972 0.43642 0.0
H115 H 0.81728 0.93615 0.11826 0.0
H116 H 0.82704 0.9826 0.19529 0.0
C117 C 0.47646 0.71176 0.38102 0.0
C118 C 0.49432 0.70939 0.40281 0.0
C119 C 0.474 0.72183 0.33636 0.0
C120 C 0.48929 0.72992 0.31294 0.0
C121 C 0.50677 0.72892 0.33635 0.0
C122 C 0.50929 0.71866 0.38089 0.0
C123 C 0.48806 0.73539 0.26102 0.0
C124 C 0.49073 0.75338 0.24093 0.0
C125 C 0.49054 0.75759 0.19091 0.0
C126 C 0.48791 0.74355 0.16157 0.0
C127 C 0.48556 0.72553 0.1814 0.0
C128 C 0.48534 0.72168 0.23111 0.0
C129 C 0.48422 0.71046 0.1506 0.0
C130 C 0.47291 0.71261 0.10923 0.0
C131 C 0.49441 0.6937 0.16269 0.0
C132 C 0.49323 0.67936 0.13436 0.0
C133 C 0.4819 0.68143 0.09307 0.0
C134 C 0.49316 0.77649 0.16848 0.0
C135 C 0.48281 0.79158 0.1838 0.0
C136 C 0.50504 0.77934 0.12901 0.0
C137 C 0.50599 0.79671 0.10414 0.0
C138 C 0.49506 0.81171 0.1181 0.0
C139 C 0.48369 0.80901 0.15873 0.0
C140 C 0.47171 0.6982 0.08079 0.0
H141 H 0.46468 0.70465 0.39665 0.0
H142 H 0.46046 0.72223 0.31859 0.0
H143 H 0.5188 0.73484 0.31858 0.0
H144 H 0.52318 0.71718 0.39702 0.0
H145 H 0.49312 0.76394 0.26401 0.0
H146 H 0.48344 0.7078 0.24682 0.0
H147 H 0.48795 0.74661 0.1231 0.0
H148 H 0.46482 0.72535 0.09918 0.0
H149 H 0.50345 0.69168 0.19399 0.0
H150 H 0.50106 0.66654 0.14519 0.0
H151 H 0.47349 0.78978 0.21401 0.0
H152 H 0.51335 0.768 0.11667 0.0
H153 H 0.46295 0.70024 0.04899 0.0
H154 H 0.47527 0.82033 0.17073 0.0
H155 H 0.51476 0.79822 0.07282 0.0
C156 C 0.18725 0.47809 0.40332 0.0
C157 C 0.17 0.46997 0.39912 0.0
C158 C 0.20236 0.4738 0.37435 0.0
C159 C 0.20071 0.46103 0.34093 0.0
C160 C 0.18373 0.4523 0.33823 0.0
C161 C 0.16852 0.45681 0.36668 0.0
C162 C 0.21618 0.45782 0.30693 0.0
C163 C 0.23505 0.45818 0.3209 0.0
C164 C 0.24965 0.45718 0.28763 0.0
C165 C 0.24526 0.45505 0.23978 0.0
C166 C 0.22639 0.45435 0.22566 0.0
C167 C 0.21206 0.45576 0.2592 0.0
C168 C 0.22067 0.45388 0.17548 0.0
C169 C 0.21585 0.47044 0.14775 0.0
C170 C 0.21528 0.43742 0.15991 0.0
C171 C 0.2042 0.43761 0.11872 0.0
C172 C 0.19799 0.45433 0.09288 0.0
C173 C 0.26915 0.45955 0.3036 0.0
C174 C 0.27264 0.47405 0.33052 0.0
C175 C 0.28393 0.44677 0.29596 0.0
C176 C 0.30164 0.44803 0.31696 0.0
C177 C 0.3049 0.46221 0.34544 0.0
C178 C 0.29024 0.47536 0.35118 0.0
C179 C 0.20463 0.47069 0.10687 0.0
H180 H 0.18906 0.48799 0.42859 0.0
H181 H 0.21511 0.48098 0.37718 0.0
H182 H 0.18204 0.44217 0.31351 0.0
H183 H 0.15544 0.45035 0.36208 0.0
H184 H 0.23846 0.45946 0.35787 0.0
H185 H 0.19756 0.45609 0.24724 0.0
H186 H 0.25631 0.4546 0.21355 0.0
H187 H 0.21947 0.48333 0.15986 0.0
H188 H 0.21857 0.42452 0.18136 0.0
H189 H 0.19971 0.42472 0.10857 0.0
H190 H 0.26154 0.48417 0.33672 0.0
H191 H 0.28157 0.43543 0.27544 0.0
H192 H 0.20002 0.48386 0.08852 0.0
H193 H 0.29208 0.48632 0.37333 0.0
H194 H 0.31269 0.43777 0.31151 0.0
C195 C 0.96563 0.2157 0.41807 0.0
C196 C 0.9775 0.19979 0.42646 0.0
C197 C 0.96954 0.22922 0.38122 0.0
C198 C 0.98517 0.22682 0.35181 0.0
C199 C 0.9969 0.21082 0.36006 0.0
C200 C 0.99314 0.19748 0.39709 0.0
C201 C 0.98961 0.24096 0.31287 0.0
C202 C 0.99052 0.25928 0.32154 0.0
C203 C 0.99656 0.27248 0.28597 0.0
C204 C 0.00154 0.26717 0.24071 0.0
C205 C 0.99994 0.24883 0.23138 0.0
C206 C 0.99409 0.23592 0.26763 0.0
C207 C 0.00448 0.24215 0.18486 0.0
C208 C 0.98976 0.23817 0.15511 0.0
C209 C 0.0227 0.23494 0.17695 0.0
C210 C 0.02589 0.22291 0.14205 0.0
C211 C 0.01089 0.21776 0.11459 0.0
C212 C 0.99819 0.29141 0.29868 0.0
C213 C 0.98264 0.30044 0.31819 0.0
C214 C 0.0158 0.29902 0.30005 0.0
C215 C 0.01801 0.31472 0.32348 0.0
C216 C 0.00262 0.32314 0.34561 0.0
C217 C 0.9848 0.31614 0.3412 0.0
C218 C 0.99293 0.22619 0.12014 0.0
H219 H 0.9535 0.21777 0.44034 0.0
H220 H 0.96027 0.24144 0.37539 0.0
H221 H 0.00914 0.20873 0.33819 0.0
H222 H 0.00239 0.18523 0.40248 0.0
H223 H 0.98732 0.26314 0.35685 0.0
H224 H 0.99317 0.22176 0.26059 0.0
H225 H 0.00635 0.27718 0.21308 0.0
H226 H 0.97551 0.24319 0.16146 0.0
H227 H 0.03418 0.23748 0.20022 0.0
H228 H 0.03995 0.21689 0.13827 0.0
H229 H 0.96894 0.29473 0.31796 0.0
H230 H 0.02804 0.29218 0.28579 0.0
H231 H 0.98101 0.22245 0.10007 0.0
H232 H 0.97266 0.32208 0.35815 0.0
H233 H 0.0319 0.31988 0.32573 0.0
C234 C 0.29523 0.0694 0.43642 0.0
C235 C 0.30993 0.08055 0.42147 0.0
C236 C 0.27942 0.06882 0.40751 0.0
C237 C 0.27784 0.07953 0.36313 0.0
C238 C 0.29201 0.09159 0.34967 0.0
C239 C 0.30797 0.092 0.37842 0.0
C240 C 0.26257 0.07651 0.32919 0.0
C241 C 0.24464 0.07227 0.34568 0.0
C242 C 0.2311 0.06637 0.31516 0.0
C243 C 0.23539 0.06544 0.26664 0.0
C244 C 0.25313 0.07031 0.24939 0.0
C245 C 0.26653 0.07577 0.28078 0.0
C246 C 0.25917 0.0682 0.20007 0.0
C247 C 0.26344 0.05063 0.18646 0.0
C248 C 0.26529 0.08351 0.17158 0.0
C249 C 0.2769 0.08125 0.13259 0.0
C250 C 0.28281 0.0636 0.12167 0.0
C251 C 0.21302 0.06042 0.33591 0.0
C252 C 0.21322 0.04907 0.3793 0.0
C253 C 0.19565 0.06728 0.31577 0.0
C254 C 0.17889 0.0638 0.34033 0.0
C255 C 0.17934 0.05348 0.38533 0.0
C256 C 0.19662 0.0457 0.40375 0.0
C257 C 0.27518 0.04833 0.14748 0.0
H258 H 0.29647 0.06023 0.46911 0.0
H259 H 0.26899 0.05914 0.41881 0.0
H260 H 0.29108 0.10029 0.31616 0.0
H261 H 0.31904 0.10086 0.36634 0.0
H262 H 0.2413 0.07323 0.38287 0.0
H263 H 0.28052 0.07839 0.2677 0.0
H264 H 0.22525 0.06058 0.24287 0.0
H265 H 0.25914 0.03862 0.20847 0.0
H266 H 0.26229 0.09718 0.18173 0.0
H267 H 0.28223 0.0933 0.11282 0.0
H268 H 0.22637 0.04327 0.39519 0.0
H269 H 0.19512 0.07607 0.28239 0.0
H270 H 0.2795 0.03456 0.14013 0.0
H271 H 0.19734 0.03733 0.4378 0.0
H272 H 0.16573 0.06991 0.32529 0.0
C273 C 0.48564 0.31423 0.15596 0.0
C274 C 0.50097 0.31354 0.1248 0.0
C275 C 0.48642 0.30407 0.20074 0.0
C276 C 0.50243 0.29286 0.21508 0.0
C277 C 0.51712 0.29095 0.1827 0.0
C278 C 0.51642 0.30124 0.13789 0.0
C279 C 0.50547 0.28688 0.26634 0.0
C280 C 0.50623 0.26832 0.28498 0.0
C281 C 0.50915 0.26345 0.33439 0.0
C282 C 0.51123 0.27739 0.36442 0.0
C283 C 0.51093 0.29582 0.34578 0.0
C284 C 0.50798 0.30043 0.29685 0.0
C285 C 0.5137 0.31038 0.37715 0.0
C286 C 0.50283 0.31151 0.4183 0.0
C287 C 0.52681 0.32364 0.36503 0.0
C288 C 0.52881 0.33797 0.39311 0.0
C289 C 0.51755 0.33944 0.43346 0.0
C290 C 0.50995 0.244 0.35574 0.0
C291 C 0.4968 0.23172 0.34301 0.0
C292 C 0.52312 0.23802 0.39209 0.0
C293 C 0.52246 0.22067 0.41711 0.0
C294 C 0.50875 0.20873 0.40613 0.0
C295 C 0.49624 0.2142 0.36794 0.0
C296 C 0.50463 0.32602 0.44604 0.0
H297 H 0.47363 0.32369 0.14735 0.0
H298 H 0.47506 0.30594 0.22553 0.0
H299 H 0.52971 0.28258 0.19336 0.0
H300 H 0.52837 0.30028 0.11448 0.0
H301 H 0.50462 0.25783 0.26123 0.0
H302 H 0.50754 0.31472 0.28233 0.0
H303 H 0.5132 0.27393 0.40252 0.0
H304 H 0.49257 0.30148 0.42822 0.0
H305 H 0.53543 0.32297 0.3336 0.0
H306 H 0.53876 0.34823 0.38246 0.0
H307 H 0.48643 0.23593 0.3153 0.0
H308 H 0.53374 0.24695 0.402 0.0
H309 H 0.49586 0.32683 0.47714 0.0
H310 H 0.48553 0.20524 0.35872 0.0
H311 H 0.53255 0.21666 0.44563 0.0
Co312 Co 0.0068 0.01584 0.79123 0.0
C313 C 0.97418 0.9994 0.82267 0.0
Co314 Co 0.9941 0.99958 0.73843 0.0
C315 C 0.00988 0.04532 0.85209 0.0
C316 C 0.03448 0.02721 0.85512 0.0
N317 N 0.01716 0.02985 0.83534 0.0
N318 N 0.02196 0.0524 0.88143 0.0
C319 C 0.03743 0.04094 0.8835 0.0
H320 H 0.99602 0.05139 0.84263 0.0
H321 H 0.04458 0.01629 0.84832 0.0
C322 C 0.02667 0.0161 0.70688 0.0
N323 N 0.98429 0.98581 0.69295 0.0
C324 C 0.98367 0.96738 0.69369 0.0
C325 C 0.97966 0.99238 0.64766 0.0
N326 N 0.9792 0.96231 0.6505 0.0
C327 C 0.97659 0.97803 0.62158 0.0
C328 C 0.98118 0.03589 0.72941 0.0
O329 O 0.02673 0.0216 0.74821 0.0
O330 O 0.01358 0.00628 0.69552 0.0
O331 O 0.97927 0.02063 0.71305 0.0
O332 O 0.99262 0.03674 0.7636 0.0
O333 O 0.97463 0.99306 0.78223 0.0
H334 H 0.97978 0.00663 0.63349 0.0
H335 H 0.98782 0.95778 0.72418 0.0
O336 O 0.98682 0.00992 0.83331 0.0
O337 O 0.02079 0.99453 0.81847 0.0
O338 O 0.00914 0.97887 0.7643 0.0
C339 C 0.01976 0.97952 0.80023 0.0
H340 H 0.05026 0.04272 0.90271 0.0
H341 H 0.9736 0.979 0.58368 0.0
Co342 Co 0.49184 0.01539 0.78121 0.0
C343 C 0.49062 0.97755 0.79723 0.0
Co344 Co 0.5054 1.00072 0.72463 0.0
C345 C 0.4616 0.02467 0.84302 0.0
C346 C 0.48447 0.04207 0.84782 0.0
N347 N 0.47909 0.02758 0.82672 0.0
N348 N 0.45566 0.03688 0.87322 0.0
C349 C 0.47015 0.04783 0.87631 0.0
H350 H 0.45336 0.01389 0.83212 0.0
H351 H 0.49774 0.04837 0.84177 0.0
C352 C 0.50664 0.03853 0.70849 0.0
N353 N 0.51826 0.98861 0.67873 0.0
C354 C 0.53688 0.9888 0.67005 0.0
C355 C 0.51157 0.97784 0.64731 0.0
N356 N 0.54208 0.97857 0.63491 0.0
C357 C 0.5262 0.97173 0.62006 0.0
C358 C 0.46858 0.01053 0.70392 0.0
O359 O 0.49815 0.03819 0.74818 0.0
O360 O 0.51161 0.0235 0.69236 0.0
O361 O 0.48297 0.00229 0.68799 0.0
O362 O 0.46947 0.01662 0.74434 0.0
O363 O 0.49903 0.97787 0.75739 0.0
H364 H 0.49704 0.97451 0.6446 0.0
H365 H 0.54652 0.99646 0.68874 0.0
O366 O 0.48576 0.99259 0.81346 0.0
O367 O 0.51435 0.01408 0.8179 0.0
O368 O 0.52763 0.99951 0.76177 0.0
C369 C 0.52873 0.00593 0.80167 0.0
H370 H 0.47029 0.05958 0.89635 0.0
H371 H 0.52534 0.96266 0.59234 0.0
Co372 Co 0.51611 0.51181 0.77049 0.0
C373 C 0.50087 0.47954 0.80906 0.0
Co374 Co 0.48611 0.51003 0.75194 0.0
C375 C 0.54797 0.51407 0.833 0.0
C376 C 0.55551 0.51754 0.75929 0.0
N377 N 0.54094 0.51386 0.78846 0.0
N378 N 0.56627 0.51802 0.83278 0.0
C379 C 0.57106 0.52009 0.78635 0.0
H380 H 0.53957 0.51227 0.86489 0.0
H381 H 0.5547 0.51895 0.72074 0.0
C382 C 0.50131 0.54236 0.71349 0.0
N383 N 0.46123 0.50845 0.73317 0.0
C384 C 0.45415 0.49689 0.70423 0.0
C385 C 0.4469 0.52071 0.73936 0.0
N386 N 0.43615 0.50172 0.69131 0.0
C387 C 0.43152 0.51663 0.71371 0.0
C388 C 0.4908 0.52642 0.83378 0.0
O389 O 0.5163 0.53518 0.73379 0.0
O390 O 0.48644 0.53355 0.71685 0.0
O391 O 0.47827 0.5212 0.80692 0.0
O392 O 0.50799 0.52354 0.82388 0.0
O393 O 0.48604 0.48642 0.78724 0.0
H394 H 0.44787 0.53252 0.75896 0.0
H395 H 0.46239 0.4859 0.69019 0.0
O396 O 0.51562 0.4886 0.80702 0.0
O397 O 0.52397 0.49991 0.71658 0.0
O398 O 0.49425 0.49909 0.69748 0.0
C399 C 0.5114 0.49551 0.68852 0.0
H400 H 0.58473 0.52358 0.77274 0.0
H401 H 0.41821 0.5245 0.71023 0.0
Co402 Co 0.00196 0.5188 0.78121 0.0
C403 C 0.02921 0.4916 0.81534 0.0
Co404 Co 0.9952 0.49044 0.76985 0.0
C405 C 0.99907 0.55202 0.82865 0.0
C406 C 0.02355 0.55068 0.78517 0.0
N407 N 0.00787 0.54185 0.79712 0.0
N408 N 0.00875 0.56664 0.8374 0.0
C409 C 0.02409 0.56589 0.80967 0.0
H410 H 0.98607 0.54844 0.84607 0.0
H411 H 0.03442 0.54584 0.76216 0.0
C412 C 0.96803 0.5178 0.73545 0.0
N413 N 0.98933 0.46742 0.75368 0.0
C414 C 0.99889 0.45681 0.72442 0.0
C415 C 0.97259 0.45982 0.75999 0.0
N416 N 0.9886 0.44327 0.7112 0.0
C417 C 0.97208 0.44506 0.73378 0.0
C418 C 0.98116 0.50004 0.8536 0.0
O419 O 0.97903 0.52877 0.75171 0.0
O420 O 0.97273 0.50076 0.73904 0.0
O421 O 0.98187 0.48686 0.82782 0.0
O422 O 0.98942 0.51452 0.84005 0.0
O423 O 0.01791 0.4804 0.80125 0.0
H424 H 0.96099 0.46546 0.77945 0.0
H425 H 0.01253 0.45985 0.70981 0.0
O426 O 0.02474 0.50867 0.81004 0.0
O427 O 0.01453 0.52264 0.72203 0.0
O428 O 0.00836 0.49442 0.71202 0.0
C429 C 0.01587 0.50918 0.69717 0.0
H430 H 0.03548 0.57506 0.80911 0.0
H431 H 0.96012 0.43688 0.72965 0.0
H432 H 0.14449 0.04347 0.3592 0.0
H433 H 0.11721 0.03839 0.41102 0.0
H434 H 0.14846 0.05466 0.52955 0.0
H435 H 0.17567 0.05933 0.47839 0.0
H436 H 0.13246 0.02465 0.55667 0.0
H437 H 0.11205 0.08217 0.47065 0.0
H438 H 0.1043 0.1039 0.3997 0.0
H439 H 0.06204 0.0691 0.35814 0.0
H440 H 0.06973 0.04702 0.42853 0.0
H441 H 0.05835 0.03438 0.72109 0.0
H442 H 0.08309 0.04196 0.66344 0.0
H443 H 0.05324 0.01692 0.55625 0.0
H444 H 0.02843 0.00932 0.61347 0.0
H445 H 0.06764 0.05085 0.52206 0.0
H446 H 0.08859 0.99349 0.60958 0.0
H447 H 0.09609 0.97267 0.68237 0.0
H448 H 0.13748 0.00864 0.72261 0.0
H449 H 0.13002 0.02982 0.65035 0.0
C450 C 0.1454 0.04612 0.39621 0.0
C451 C 0.16223 0.0516 0.41492 0.0
C452 C 0.12982 0.04326 0.42578 0.0
C453 C 0.13074 0.04618 0.47428 0.0
C454 C 0.14741 0.05216 0.49244 0.0
C455 C 0.16297 0.05481 0.46317 0.0
C456 C 0.11477 0.04225 0.507 0.0
C457 C 0.11836 0.03061 0.54925 0.0
C458 C 0.09622 0.04963 0.497 0.0
C459 C 0.09163 0.06284 0.45456 0.0
C460 C 0.10123 0.07907 0.44615 0.0
C461 C 0.09682 0.09146 0.40608 0.0
C462 C 0.08273 0.08785 0.37435 0.0
C463 C 0.07298 0.07186 0.3827 0.0
C464 C 0.07735 0.05941 0.42268 0.0
C465 C 0.05702 0.03053 0.68523 0.0
C466 C 0.0415 0.0211 0.67202 0.0
C467 C 0.07116 0.03486 0.65235 0.0
C468 C 0.07003 0.02989 0.6057 0.0
C469 C 0.05437 0.02086 0.59209 0.0
C470 C 0.04027 0.01645 0.62495 0.0
C471 C 0.08551 0.03352 0.57162 0.0
C472 C 0.0818 0.04498 0.52921 0.0
C473 C 0.104 0.02612 0.58154 0.0
C474 C 0.10862 0.01332 0.62479 0.0
C475 C 0.09919 0.99703 0.63413 0.0
C476 C 0.10345 0.98516 0.67527 0.0
C477 C 0.11722 0.98935 0.70716 0.0
C478 C 0.1268 0.00542 0.6979 0.0
C479 C 0.12257 0.01735 0.65685 0.0
H480 H 0.1205 0.98014 0.73899 0.0
H481 H 0.07933 0.09747 0.34336 0.0
H482 H 0.50827 0.20317 0.50298 0.0
H483 H 0.50736 0.17417 0.55349 0.0
H484 H 0.50489 0.14525 0.42824 0.0
H485 H 0.50534 0.17449 0.37733 0.0
H486 H 0.48242 0.13053 0.4953 0.0
H487 H 0.54638 0.14706 0.49084 0.0
H488 H 0.57265 0.16714 0.49769 0.0
H489 H 0.5602 0.17022 0.6457 0.0
H490 H 0.53368 0.15036 0.63957 0.0
H491 H 0.51388 0.04352 0.61325 0.0
H492 H 0.51371 0.07249 0.56193 0.0
H493 H 0.50377 0.10223 0.68421 0.0
H494 H 0.50355 0.07323 0.73594 0.0
H495 H 0.53263 0.11589 0.61802 0.0
H496 H 0.4685 0.09833 0.62065 0.0
H497 H 0.44339 0.07707 0.61219 0.0
H498 H 0.45756 0.07465 0.46497 0.0
H499 H 0.48301 0.09562 0.47277 0.0
C500 C 0.50755 0.19063 0.48619 0.0
C501 C 0.50716 0.19105 0.43621 0.0
C502 C 0.50704 0.17405 0.51509 0.0
C503 C 0.50649 0.15745 0.49472 0.0
C504 C 0.50541 0.15786 0.44478 0.0
C505 C 0.50569 0.17455 0.41574 0.0
C506 C 0.50755 0.13973 0.52575 0.0
C507 C 0.49354 0.12724 0.52166 0.0
C508 C 0.52192 0.13548 0.56072 0.0
C509 C 0.53793 0.14736 0.56462 0.0
C510 C 0.54916 0.15212 0.52476 0.0
C511 C 0.56411 0.16345 0.52853 0.0
C512 C 0.56806 0.16998 0.57207 0.0
C513 C 0.5571 0.16516 0.61198 0.0
C514 C 0.54212 0.15386 0.60839 0.0
C515 C 0.51189 0.05621 0.62941 0.0
C516 C 0.50874 0.05609 0.67871 0.0
C517 C 0.51168 0.07274 0.59995 0.0
C518 C 0.50855 0.08944 0.61928 0.0
C519 C 0.50615 0.08944 0.66869 0.0
C520 C 0.50604 0.07289 0.69814 0.0
C521 C 0.50749 0.10688 0.58766 0.0
C522 C 0.52153 0.11925 0.59161 0.0
C523 C 0.49328 0.11088 0.55233 0.0
C524 C 0.47782 0.09841 0.54744 0.0
C525 C 0.46639 0.09313 0.58658 0.0
C526 C 0.45207 0.08115 0.58189 0.0
C527 C 0.44891 0.07448 0.5381 0.0
C528 C 0.46004 0.07981 0.49889 0.0
C529 C 0.47441 0.09175 0.50342 0.0
H530 H 0.43782 0.06522 0.5345 0.0
H531 H 0.57964 0.17875 0.57492 0.0
H532 H 0.32634 0.43366 0.39259 0.0
H533 H 0.35335 0.43559 0.44536 0.0
H534 H 0.35061 0.49437 0.41294 0.0
H535 H 0.32432 0.49244 0.35855 0.0
H536 H 0.38582 0.4825 0.42231 0.0
H537 H 0.32901 0.47198 0.51327 0.0
H538 H 0.30145 0.45481 0.53965 0.0
H539 H 0.33767 0.40812 0.58998 0.0
H540 H 0.36544 0.42496 0.56333 0.0
H541 H 0.41205 0.52088 0.6282 0.0
H542 H 0.39432 0.50915 0.56489 0.0
H543 H 0.4181 0.45463 0.6072 0.0
H544 H 0.43613 0.46642 0.67099 0.0
H545 H 0.37685 0.45846 0.59146 0.0
H546 H 0.43412 0.47258 0.51274 0.0
H547 H 0.46072 0.49156 0.48963 0.0
H548 H 0.4228 0.53311 0.41845 0.0
H549 H 0.39591 0.51452 0.44186 0.0
C550 C 0.33181 0.44694 0.3957 0.0
C551 C 0.32296 0.46293 0.37181 0.0
C552 C 0.34713 0.44805 0.42634 0.0
C553 C 0.35377 0.46517 0.43407 0.0
C554 C 0.3457 0.481 0.40795 0.0
C555 C 0.33052 0.47989 0.37713 0.0
C556 C 0.36817 0.46697 0.47149 0.0
C557 C 0.38384 0.47722 0.45925 0.0
C558 C 0.36591 0.45973 0.51968 0.0
C559 C 0.34925 0.44963 0.53578 0.0
C560 C 0.33107 0.45801 0.52965 0.0
C561 C 0.31543 0.44835 0.54469 0.0
C562 C 0.31781 0.43037 0.56633 0.0
C563 C 0.33585 0.42203 0.5731 0.0
C564 C 0.35154 0.43162 0.55805 0.0
C565 C 0.41339 0.50637 0.62445 0.0
C566 C 0.42537 0.49454 0.65485 0.0
C567 C 0.40337 0.49971 0.58797 0.0
C568 C 0.40498 0.48106 0.58124 0.0
C569 C 0.41671 0.46909 0.61182 0.0
C570 C 0.42701 0.47583 0.64805 0.0
C571 C 0.39409 0.47437 0.5423 0.0
C572 C 0.37907 0.46329 0.5543 0.0
C573 C 0.39682 0.48101 0.49402 0.0
C574 C 0.41297 0.49218 0.47932 0.0
C575 C 0.43142 0.48582 0.49246 0.0
C576 C 0.44657 0.4965 0.47926 0.0
C577 C 0.44345 0.51354 0.45263 0.0
C578 C 0.42519 0.51991 0.43907 0.0
C579 C 0.40999 0.50929 0.45225 0.0
H580 H 0.45519 0.5218 0.44245 0.0
H581 H 0.30568 0.42291 0.57796 0.0
H582 H 0.0311 0.32567 0.40985 0.0
H583 H 0.03309 0.34764 0.46881 0.0
H584 H 0.98158 0.3756 0.41356 0.0
H585 H 0.97981 0.35402 0.3535 0.0
H586 H 0.00605 0.39988 0.43798 0.0
H587 H 0.98167 0.34376 0.51089 0.0
H588 H 0.98215 0.31044 0.53419 0.0
H589 H 0.03307 0.31319 0.61435 0.0
H590 H 0.03302 0.34651 0.59095 0.0
H591 H 0.96489 0.43508 0.64266 0.0
H592 H 0.97215 0.4163 0.57756 0.0
H593 H 0.02918 0.40669 0.62927 0.0
H594 H 0.02204 0.42598 0.69413 0.0
H595 H 0.00628 0.37372 0.60769 0.0
H596 H 0.02948 0.43039 0.53879 0.0
H597 H 0.02858 0.46372 0.5156 0.0
H598 H 0.97938 0.45998 0.42966 0.0
H599 H 0.97994 0.42661 0.45252 0.0
C600 C 0.02043 0.33675 0.40938 0.0
C601 C 0.00521 0.33797 0.37703 0.0
C602 C 0.02149 0.34921 0.44352 0.0
C603 C 0.0073 0.3631 0.44626 0.0
C604 C 0.99264 0.36495 0.41239 0.0
C605 C 0.99158 0.35251 0.37825 0.0
C606 C 0.00706 0.37501 0.48596 0.0
C607 C 0.00603 0.39413 0.47503 0.0
C608 C 0.00744 0.36758 0.53451 0.0
C609 C 0.00746 0.34757 0.5487 0.0
C610 C 0.99305 0.33723 0.53316 0.0
C611 C 0.99323 0.31835 0.54644 0.0
C612 C 0.00766 0.3097 0.57561 0.0
C613 C 0.02192 0.31991 0.59167 0.0
C614 C 0.02182 0.33879 0.57843 0.0
C615 C 0.97894 0.42889 0.64033 0.0
C616 C 0.99288 0.43183 0.67367 0.0
C617 C 0.98311 0.41829 0.60295 0.0
C618 C 0.0012 0.41017 0.59859 0.0
C619 C 0.01514 0.41289 0.63204 0.0
C620 C 0.01108 0.42388 0.66892 0.0
C621 C 0.00514 0.39848 0.55954 0.0
C622 C 0.00667 0.37942 0.57062 0.0
C623 C 0.00519 0.40595 0.51122 0.0
C624 C 0.00464 0.42603 0.49777 0.0
C625 C 0.01835 0.4367 0.51535 0.0
C626 C 0.01794 0.45559 0.50215 0.0
C627 C 0.00388 0.46398 0.47137 0.0
C628 C 0.99024 0.45347 0.45357 0.0
C629 C 0.99063 0.43456 0.46654 0.0
H630 H 0.00359 0.4786 0.46119 0.0
H631 H 0.00778 0.29508 0.58587 0.0
H632 H 0.85153 0.9351 0.12547 0.0
H633 H 0.87764 0.94127 0.07087 0.0
H634 H 0.86167 0.99903 0.0593 0.0
H635 H 0.83534 0.99294 0.11282 0.0
H636 H 0.86792 0.98761 0.97278 0.0
H637 H 0.89976 0.98198 0.12468 0.0
H638 H 0.90932 0.96679 0.20392 0.0
H639 H 0.93546 0.92174 0.13873 0.0
H640 H 0.92583 0.93655 0.05909 0.0
H641 H 0.97074 0.00897 0.91339 0.0
H642 H 0.946 0.00143 0.97065 0.0
H643 H 0.91917 0.97119 0.86883 0.0
H644 H 0.94388 0.97875 0.811 0.0
H645 H 0.93454 0.96894 0.01253 0.0
H646 H 0.87131 0.97793 0.88249 0.0
H647 H 0.86206 0.99507 0.80518 0.0
H648 H 0.89923 0.0371 0.83079 0.0
H649 H 0.90849 0.02035 0.90849 0.0
C650 C 0.85362 0.94912 0.11139 0.0
C651 C 0.84138 0.96353 0.12364 0.0
C652 C 0.8686 0.95264 0.08041 0.0
C653 C 0.87164 0.97063 0.06111 0.0
C654 C 0.85959 0.98504 0.07374 0.0
C655 C 0.84467 0.98155 0.10479 0.0
C656 C 0.88706 0.97445 0.02676 0.0
C657 C 0.88248 0.98348 0.98147 0.0
C658 C 0.90607 0.96919 0.03815 0.0
C659 C 0.91191 0.96029 0.08597 0.0
C660 C 0.90741 0.96876 0.12727 0.0
C661 C 0.91287 0.96023 0.17225 0.0
C662 C 0.92294 0.94329 0.17637 0.0
C663 C 0.92763 0.93485 0.1355 0.0
C664 C 0.92219 0.94331 0.09043 0.0
C665 C 0.95959 1.0007 0.90306 0.0
C666 C 0.95923 0.99456 0.85744 0.0
C667 C 0.94551 0.99633 0.93599 0.0
C668 C 0.93069 0.98585 0.92395 0.0
C669 C 0.93039 0.97946 0.8787 0.0
C670 C 0.94453 0.98378 0.84572 0.0
C671 C 0.91537 0.982 0.95854 0.0
C672 C 0.91996 0.97294 0.00379 0.0
C673 C 0.89639 0.98745 0.94737 0.0
C674 C 0.89074 0.99777 0.90103 0.0
C675 C 0.87745 0.99086 0.87166 0.0
C676 C 0.87222 1.0005 0.82778 0.0
C677 C 0.8801 0.01713 0.81301 0.0
C678 C 0.89319 0.02419 0.84218 0.0
C679 C 0.89845 0.01461 0.88612 0.0
H680 H 0.87605 0.02456 0.77901 0.0
H681 H 0.92716 0.93671 0.21123 0.0
H682 H 0.46463 0.83509 0.0925 0.0
H683 H 0.46382 0.86333 0.0382 0.0
H684 H 0.52383 0.85703 0.02069 0.0
H685 H 0.52483 0.82906 0.07615 0.0
H686 H 0.5132 0.89221 0.0269 0.0
H687 H 0.49433 0.84436 0.93725 0.0
H688 H 0.47561 0.8186 0.9196 0.0
H689 H 0.42536 0.85379 0.9129 0.0
H690 H 0.44375 0.87971 0.93119 0.0
H691 H 0.49849 0.94264 0.77391 0.0
H692 H 0.49903 0.91415 0.82775 0.0
H693 H 0.47924 0.94437 0.94258 0.0
H694 H 0.4785 0.97279 0.88924 0.0
H695 H 0.47172 0.89638 0.88387 0.0
H696 H 0.506 0.92671 0.04324 0.0
H697 H 0.52661 0.95157 0.05703 0.0
H698 H 0.54978 0.94977 0.91707 0.0
H699 H 0.52965 0.92461 0.90285 0.0
C700 C 0.47771 0.83988 0.07786 0.0
C701 C 0.49479 0.82974 0.08852 0.0
C702 C 0.4772 0.85594 0.0464 0.0
C703 C 0.49373 0.86214 0.02475 0.0
C704 C 0.51089 0.85246 0.03674 0.0
C705 C 0.51142 0.8364 0.0682 0.0
C706 C 0.49304 0.87841 0.98855 0.0
C707 C 0.50409 0.89314 0.99572 0.0
C708 C 0.48149 0.87946 0.94724 0.0
C709 C 0.4704 0.86393 0.93602 0.0
C710 C 0.47927 0.84657 0.93236 0.0
C711 C 0.46872 0.83195 0.92219 0.0
C712 C 0.4493 0.83455 0.91525 0.0
C713 C 0.4404 0.85179 0.91835 0.0
C714 C 0.45088 0.86646 0.92857 0.0
C715 C 0.49397 0.94317 0.81042 0.0
C716 C 0.48853 0.96001 0.8273 0.0
C717 C 0.49429 0.9269 0.84111 0.0
C718 C 0.48943 0.92722 0.88926 0.0
C719 C 0.48326 0.94387 0.90567 0.0
C720 C 0.48276 0.96009 0.875 0.0
C721 C 0.49148 0.91031 0.92294 0.0
C722 C 0.48075 0.89546 0.9152 0.0
C723 C 0.5036 0.90903 0.96324 0.0
C724 C 0.5161 0.92391 0.97178 0.0
C725 C 0.51555 0.93155 0.01549 0.0
C726 C 0.52717 0.94568 0.0234 0.0
C727 C 0.53943 0.95229 0.98788 0.0
C728 C 0.54022 0.94468 0.94449 0.0
C729 C 0.5287 0.93049 0.93649 0.0
H730 H 0.54832 0.9633 0.99402 0.0
H731 H 0.44116 0.82321 0.90737 0.0
H732 H 0.66473 0.53507 0.21553 0.0
H733 H 0.63962 0.52897 0.16075 0.0
H734 H 0.66673 0.56038 0.04544 0.0
H735 H 0.69208 0.56604 0.09907 0.0
H736 H 0.62804 0.56813 0.04683 0.0
H737 H 0.67214 0.51506 0.05647 0.0
H738 H 0.6904 0.48883 0.09908 0.0
H739 H 0.63938 0.46597 0.1519 0.0
H740 H 0.62083 0.49222 0.11009 0.0
H741 H 0.5953 0.54036 0.83281 0.0
H742 H 0.61421 0.54634 0.90106 0.0
H743 H 0.58189 0.50966 0.99342 0.0
H744 H 0.56308 0.50324 0.92471 0.0
H745 H 0.61928 0.50426 0.01262 0.0
H746 H 0.57472 0.55475 0.99607 0.0
H747 H 0.55577 0.58083 0.95517 0.0
H748 H 0.60597 0.60864 0.91842 0.0
H749 H 0.62527 0.58257 0.95842 0.0
C750 C 0.6654 0.54064 0.1785 0.0
C751 C 0.68051 0.55109 0.16194 0.0
C752 C 0.65098 0.53721 0.1473 0.0
C753 C 0.65134 0.54419 0.09898 0.0
C754 C 0.66609 0.55498 0.08265 0.0
C755 C 0.68055 0.55829 0.1136 0.0
C756 C 0.63686 0.53975 0.06463 0.0
C757 C 0.62617 0.55419 0.03913 0.0
C758 C 0.63399 0.5215 0.05575 0.0
C759 C 0.64512 0.5057 0.08065 0.0
C760 C 0.66483 0.50452 0.0775 0.0
C761 C 0.67523 0.48963 0.10145 0.0
C762 C 0.66606 0.47577 0.12831 0.0
C763 C 0.64647 0.47674 0.13116 0.0
C764 C 0.63601 0.49161 0.10734 0.0
C765 C 0.59229 0.53338 0.86745 0.0
C766 C 0.57766 0.52128 0.87318 0.0
C767 C 0.60301 0.53699 0.90661 0.0
C768 C 0.59931 0.52864 0.95249 0.0
C769 C 0.58491 0.51633 0.95838 0.0
C770 C 0.57411 0.51276 0.91913 0.0
C771 C 0.61077 0.53269 0.99388 0.0
C772 C 0.62089 0.5182 0.02072 0.0
C773 C 0.61299 0.55089 0.0043 0.0
C774 C 0.60146 0.56662 0.98001 0.0
C775 C 0.58174 0.56635 0.97892 0.0
C776 C 0.57092 0.58115 0.95594 0.0
C777 C 0.57966 0.59638 0.93418 0.0
C778 C 0.59922 0.59683 0.93531 0.0
C779 C 0.61011 0.58205 0.95817 0.0
H780 H 0.57126 0.60786 0.91656 0.0
H781 H 0.67413 0.46426 0.14681 0.0
H782 H 0.98084 0.66403 0.19703 0.0
H783 H 0.978 0.64133 0.13941 0.0
H784 H 0.01795 0.66942 0.04791 0.0
H785 H 0.02085 0.69193 0.10491 0.0
H786 H 0.98577 0.66053 0.9992 0.0
H787 H 0.03196 0.63163 0.1149 0.0
H788 H 0.0427 0.61935 0.19582 0.0
H789 H 0.99843 0.58183 0.20522 0.0
H790 H 0.98727 0.59407 0.12454 0.0
H791 H 0.02021 0.60119 0.83706 0.0
H792 H 0.01557 0.6216 0.89931 0.0
H793 H 0.98368 0.58122 0.98091 0.0
H794 H 0.98883 0.56043 0.91935 0.0
H795 H 0.0066 0.59514 0.03818 0.0
H796 H 0.9621 0.62063 0.92142 0.0
H797 H 0.95006 0.63233 0.84131 0.0
H798 H 0.98811 0.67583 0.83489 0.0
H799 H 0.0006 0.66421 0.91471 0.0
C800 C 0.989 0.66531 0.16462 0.0
C801 C 0.00123 0.67964 0.15579 0.0
C802 C 0.9874 0.65234 0.13182 0.0
C803 C 0.99782 0.65366 0.08941 0.0
C804 C 0.00979 0.66811 0.08035 0.0
C805 C 0.01156 0.68088 0.11322 0.0
C806 C 0.99653 0.64005 0.05418 0.0
C807 C 0.9904 0.64624 0.0076 0.0
C808 C 0.0019 0.62128 0.06559 0.0
C809 C 0.00865 0.61392 0.11397 0.0
C810 C 0.02442 0.62088 0.1344 0.0
C811 C 0.0306 0.6139 0.18018 0.0
C812 C 0.02122 0.59986 0.20571 0.0
C813 C 0.00566 0.59273 0.18545 0.0
C814 C 0.99941 0.59967 0.1397 0.0
C815 C 0.01221 0.59662 0.8682 0.0
C816 C 0.00486 0.57916 0.87293 0.0
C817 C 0.00939 0.6084 0.90367 0.0
C818 C 0.99897 0.60313 0.9446 0.0
C819 C 0.99163 0.58569 0.94955 0.0
C820 C 0.99446 0.57386 0.91402 0.0
C821 C 0.99632 0.6157 0.9826 0.0
C822 C 0.00167 0.60934 0.02974 0.0
C823 C 0.98994 0.63429 0.97187 0.0
C824 C 0.98238 0.64146 0.92398 0.0
C825 C 0.96799 0.63262 0.90282 0.0
C826 C 0.96107 0.63925 0.85746 0.0
C827 C 0.96833 0.6548 0.83299 0.0
C828 C 0.9825 0.66378 0.85389 0.0
C829 C 0.98949 0.65719 0.89922 0.0
H830 H 0.96296 0.65992 0.79786 0.0
H831 H 0.02603 0.59448 0.24115 0.0
H832 H 0.94437 0.18372 0.44691 0.0
H833 H 0.93954 0.15701 0.5046 0.0
H834 H 0.99736 0.15683 0.55073 0.0
H835 H 0.00225 0.18327 0.49296 0.0
H836 H 0.98925 0.12427 0.52793 0.0
H837 H 0.96101 0.16921 0.62198 0.0
H838 H 0.93889 0.19473 0.63835 0.0
H839 H 0.89226 0.1619 0.61621 0.0
H840 H 0.91412 0.13625 0.59908 0.0
H841 H 0.97839 0.06958 0.7619 0.0
H842 H 0.97079 0.09878 0.71431 0.0
H843 H 0.95676 0.0701 0.59426 0.0
H844 H 0.96424 0.04079 0.64161 0.0
H845 H 0.94104 0.11689 0.65416 0.0
H846 H 0.98436 0.08937 0.5028 0.0
H847 H 0.00842 0.0649 0.49046 0.0
H848 H 0.02805 0.06492 0.63464 0.0
H849 H 0.00439 0.08966 0.64749 0.0
C850 C 0.9559 0.17816 0.4701 0.0
C851 C 0.97373 0.18537 0.46529 0.0
C852 C 0.95314 0.16293 0.50298 0.0
C853 C 0.96812 0.15492 0.53179 0.0
C854 C 0.98566 0.16272 0.52853 0.0
C855 C 0.98845 0.17779 0.49556 0.0
C856 C 0.96615 0.13755 0.56257 0.0
C857 C 0.97865 0.12269 0.55538 0.0
C858 C 0.95234 0.13548 0.59842 0.0
C859 C 0.9392 0.15088 0.60875 0.0
C860 C 0.94604 0.16748 0.62019 0.0
C861 C 0.93355 0.18196 0.6297 0.0
C862 C 0.91418 0.17995 0.62819 0.0
C863 C 0.90727 0.16344 0.6173 0.0
C864 C 0.9197 0.14893 0.60773 0.0
C865 C 0.97315 0.06946 0.72582 0.0
C866 C 0.97225 0.05293 0.70513 0.0
C867 C 0.96868 0.08616 0.69883 0.0
C868 C 0.96348 0.08652 0.65074 0.0
C869 C 0.96085 0.07002 0.63135 0.0
C870 C 0.96516 0.0533 0.65844 0.0
C871 C 0.9641 0.1038 0.6192 0.0
C872 C 0.95143 0.11853 0.62621 0.0
C873 C 0.97799 0.10595 0.58363 0.0
C874 C 0.99242 0.09118 0.57626 0.0
C875 C 0.99384 0.08418 0.53181 0.0
C876 C 0.00742 0.07028 0.52472 0.0
C877 C 0.01971 0.06333 0.56179 0.0
C878 C 0.01848 0.07028 0.60602 0.0
C879 C 0.00498 0.08423 0.61322 0.0
H880 H 0.03022 0.05262 0.55613 0.0
H881 H 0.90453 0.19118 0.63556 0.0
H882 H 0.31541 0.07956 0.51779 0.0
H883 H 0.34455 0.07031 0.56223 0.0
H884 H 0.37412 0.06698 0.42984 0.0
H885 H 0.34502 0.07607 0.38525 0.0
H886 H 0.37776 0.03516 0.49016 0.0
H887 H 0.38513 0.09886 0.49847 0.0
H888 H 0.3758 0.13048 0.51387 0.0
H889 H 0.36708 0.11236 0.6616 0.0
H890 H 0.3761 0.08057 0.64697 0.0
H891 H 0.46611 0.0112 0.60711 0.0
H892 H 0.44033 0.02495 0.55568 0.0
H893 H 0.40787 0.03545 0.67991 0.0
H894 H 0.4338 0.02223 0.73149 0.0
H895 H 0.40761 0.06515 0.61843 0.0
H896 H 0.39742 0.00137 0.60931 0.0
H897 H 0.40627 0.96954 0.59471 0.0
H898 H 0.41962 0.98763 0.44951 0.0
H899 H 0.41107 0.01961 0.46344 0.0
C900 C 0.32823 0.07721 0.49823 0.0
C901 C 0.32797 0.07847 0.44814 0.0
C902 C 0.34486 0.07203 0.52359 0.0
C903 C 0.36146 0.06797 0.49924 0.0
C904 C 0.36144 0.07009 0.4492 0.0
C905 C 0.34485 0.07542 0.42382 0.0
C906 C 0.37819 0.05962 0.52602 0.0
C907 C 0.38454 0.04185 0.51761 0.0
C908 C 0.38665 0.0682 0.56258 0.0
C909 C 0.38112 0.08729 0.5715 0.0
C910 C 0.38105 0.10158 0.53415 0.0
C911 C 0.37586 0.11955 0.54277 0.0
C912 C 0.37081 0.12342 0.58865 0.0
C913 C 0.37098 0.10934 0.62605 0.0
C914 C 0.37615 0.09134 0.61763 0.0
C915 C 0.45331 0.01606 0.62346 0.0
C916 C 0.45192 0.01558 0.6733 0.0
C917 C 0.43861 0.02397 0.59403 0.0
C918 C 0.42216 0.03118 0.61399 0.0
C919 C 0.42049 0.03006 0.66378 0.0
C920 C 0.43524 0.02237 0.69319 0.0
C921 C 0.40695 0.04055 0.58316 0.0
C922 C 0.40091 0.05852 0.59076 0.0
C923 C 0.39868 0.03212 0.54601 0.0
C924 C 0.40379 0.0129 0.53756 0.0
C925 C 0.40238 0.99857 0.57438 0.0
C926 C 0.40732 0.98051 0.5662 0.0
C927 C 0.41355 0.97657 0.52125 0.0
C928 C 0.41481 0.9907 0.48433 0.0
C929 C 0.40991 0.0088 0.49233 0.0
H930 H 0.41737 0.96258 0.51499 0.0
H931 H 0.3668 0.13734 0.59525 0.0
H932 H 0.48858 0.36166 0.46017 0.0
H933 H 0.49041 0.38956 0.49971 0.0
H934 H 0.55079 0.38104 0.50878 0.0
H935 H 0.549 0.35341 0.46774 0.0
H936 H 0.50149 0.39699 0.58237 0.0
H937 H 0.57131 0.42181 0.50079 0.0
H938 H 0.59009 0.4194 0.42807 0.0
H939 H 0.54023 0.41087 0.3493 0.0
H940 H 0.52113 0.41347 0.42134 0.0
H941 H 0.5449 0.47705 0.67291 0.0
H942 H 0.54953 0.45217 0.62187 0.0
H943 H 0.49315 0.46321 0.56643 0.0
H944 H 0.48837 0.48798 0.61692 0.0
H945 H 0.54258 0.44608 0.51841 0.0
H946 H 0.47244 0.42212 0.59326 0.0
H947 H 0.45163 0.42797 0.66049 0.0
H948 H 0.49948 0.43743 0.74567 0.0
H949 H 0.52055 0.43106 0.67967 0.0
C950 C 0.50222 0.36568 0.471 0.0
C951 C 0.51866 0.35547 0.46077 0.0
C952 C 0.50326 0.38162 0.49353 0.0
C953 C 0.52076 0.38758 0.50658 0.0
C954 C 0.53716 0.37698 0.49802 0.0
C955 C 0.53614 0.36117 0.4748 0.0
C956 C 0.52173 0.40502 0.52844 0.0
C957 C 0.51039 0.40771 0.56806 0.0
C958 C 0.53353 0.41901 0.5103 0.0
C959 C 0.54484 0.41762 0.46662 0.0
C960 C 0.56436 0.41947 0.46791 0.0
C961 C 0.57505 0.41807 0.42681 0.0
C962 C 0.56636 0.41492 0.38414 0.0
C963 C 0.54695 0.41324 0.38242 0.0
C964 C 0.53619 0.41466 0.42338 0.0
C965 C 0.53373 0.47458 0.64862 0.0
C966 C 0.51614 0.48416 0.64965 0.0
C967 C 0.53643 0.46042 0.61942 0.0
C968 C 0.52155 0.45575 0.59121 0.0
C969 C 0.50471 0.46657 0.58839 0.0
C970 C 0.502 0.48066 0.61745 0.0
C971 C 0.52225 0.43791 0.57149 0.0
C972 C 0.53386 0.43519 0.53265 0.0
C973 C 0.51051 0.42397 0.58983 0.0
C974 C 0.49806 0.42631 0.63124 0.0
C975 C 0.47853 0.42522 0.62655 0.0
C976 C 0.46668 0.42865 0.66446 0.0
C977 C 0.47421 0.43316 0.70729 0.0
C978 C 0.49362 0.43407 0.71243 0.0
C979 C 0.50553 0.43047 0.67484 0.0
H980 H 0.46502 0.43588 0.73652 0.0
H981 H 0.57467 0.41382 0.35238 0.0
H982 H 0.14229 0.44867 0.43841 0.0
H983 H 0.11442 0.45862 0.48114 0.0
H984 H 0.13253 0.5139 0.46779 0.0
H985 H 0.15994 0.50439 0.42294 0.0
H986 H 0.12126 0.49855 0.56356 0.0
H987 H 0.09993 0.50633 0.3988 0.0
H988 H 0.0943 0.49594 0.31987 0.0
H989 H 0.05894 0.45478 0.38343 0.0
H990 H 0.06463 0.4647 0.46289 0.0
H991 H 0.0397 0.53556 0.66365 0.0
H992 H 0.06424 0.5325 0.60392 0.0
H993 H 0.04461 0.47992 0.57775 0.0
H994 H 0.01978 0.48315 0.6356 0.0
H995 H 0.05677 0.49636 0.49811 0.0
H996 H 0.0796 0.48285 0.65798 0.0
H997 H 0.08489 0.48873 0.74136 0.0
H998 H 0.11714 0.53473 0.69364 0.0
H999 H 0.11183 0.52923 0.60981 0.0
C1000 C 0.14028 0.463 0.44393 0.0
C1001 C 0.15342 0.47571 0.42707 0.0
C1002 C 0.12439 0.46862 0.46859 0.0
C1003 C 0.12146 0.48698 0.47727 0.0
C1004 C 0.13464 0.49965 0.46141 0.0
C1005 C 0.15038 0.49412 0.43613 0.0
C1006 C 0.10468 0.49294 0.50332 0.0
C1007 C 0.10716 0.49844 0.54897 0.0
C1008 C 0.08633 0.49209 0.48475 0.0
C1009 C 0.0829 0.48614 0.4369 0.0
C1010 C 0.09112 0.49494 0.39604 0.0
C1011 C 0.08789 0.48915 0.35117 0.0
C1012 C 0.07632 0.47467 0.34665 0.0
C1013 C 0.06793 0.46597 0.38698 0.0
C1014 C 0.07115 0.47167 0.43194 0.0
C1015 C 0.0403 0.52361 0.64415 0.0
C1016 C 0.02802 0.50946 0.65489 0.0
C1017 C 0.05439 0.52181 0.6103 0.0
C1018 C 0.05648 0.50578 0.58723 0.0
C1019 C 0.0433 0.49237 0.59519 0.0
C1020 C 0.02916 0.49421 0.62858 0.0
C1021 C 0.07331 0.50204 0.55842 0.0
C1022 C 0.07087 0.49683 0.51242 0.0
C1023 C 0.09169 0.50252 0.57731 0.0
C1024 C 0.09512 0.50577 0.62762 0.0
C1025 C 0.08771 0.4943 0.66526 0.0
C1026 C 0.09072 0.49755 0.7126 0.0
C1027 C 0.10128 0.51215 0.72281 0.0
C1028 C 0.10892 0.52346 0.68566 0.0
C1029 C 0.10593 0.52028 0.63822 0.0
H1030 H 0.10358 0.51465 0.75949 0.0
H1031 H 0.07382 0.47023 0.31187 0.0
H1032 H 0.06238 0.82421 0.05707 0.0
H1033 H 0.06651 0.85007 0.99605 0.0
H1034 H 0.00758 0.86626 0.00551 0.0
H1035 H 0.00337 0.84014 0.06455 0.0
H1036 H 0.01659 0.87009 0.9183 0.0
H1037 H 0.04424 0.88694 0.06321 0.0
H1038 H 0.06625 0.8833 0.13173 0.0
H1039 H 0.11306 0.88479 0.03611 0.0
H1040 H 0.0913 0.88822 0.96701 0.0
H1041 H 0.03043 0.97242 0.8933 0.0
H1042 H 0.03869 0.94245 0.93587 0.0
H1043 H 0.03864 0.91816 0.80282 0.0
H1044 H 0.02927 0.94806 0.76038 0.0
H1045 H 0.06341 0.91582 0.94264 0.0
H1046 H 0.0189 0.87654 0.81997 0.0
H1047 H 0.99252 0.88194 0.76238 0.0
H1048 H 0.97303 0.92936 0.82875 0.0
H1049 H 0.99892 0.9239 0.88768 0.0
C1050 C 0.05036 0.8333 0.04572 0.0
C1051 C 0.03256 0.83024 0.06523 0.0
C1052 C 0.05272 0.84807 0.01107 0.0
C1053 C 0.03739 0.86024 0.99644 0.0
C1054 C 0.0196 0.85701 0.01583 0.0
C1055 C 0.01719 0.84211 0.04964 0.0
C1056 C 0.03965 0.87665 0.9619 0.0
C1057 C 0.02696 0.88 0.92339 0.0
C1058 C 0.05309 0.88966 0.96857 0.0
C1059 C 0.06617 0.8876 0.01002 0.0
C1060 C 0.05923 0.88635 0.05684 0.0
C1061 C 0.07165 0.88435 0.09576 0.0
C1062 C 0.09104 0.88375 0.08828 0.0
C1063 C 0.09804 0.88521 0.04185 0.0
C1064 C 0.08567 0.88719 0.0028 0.0
C1065 C 0.03257 0.96076 0.873 0.0
C1066 C 0.02888 0.96246 0.82375 0.0
C1067 C 0.03736 0.94362 0.89735 0.0
C1068 C 0.03884 0.92795 0.87273 0.0
C1069 C 0.03708 0.92997 0.82275 0.0
C1070 C 0.03181 0.94705 0.79852 0.0
C1071 C 0.0399 0.90954 0.90014 0.0
C1072 C 0.0533 0.90573 0.93697 0.0
C1073 C 0.02656 0.89642 0.89325 0.0
C1074 C 0.01102 0.89995 0.85775 0.0
C1075 C 0.00897 0.88811 0.82226 0.0
C1076 C 0.9941 0.89117 0.78942 0.0
C1077 C 0.9812 0.90605 0.79169 0.0
C1078 C 0.98308 0.91787 0.82692 0.0
C1079 C 0.99783 0.91478 0.86012 0.0
H1080 H 0.96964 0.90831 0.76644 0.0
H1081 H 0.10063 0.8822 0.11846 0.0
H1082 H 0.65334 0.96314 0.12167 0.0
H1083 H 0.62642 0.96856 0.06758 0.0
H1084 H 0.66253 0.96043 0.9481 0.0
H1085 H 0.68976 0.95564 0.00219 0.0
H1086 H 0.64163 0.99092 0.93065 0.0
H1087 H 0.62975 0.92959 0.98693 0.0
H1088 H 0.62502 0.90253 0.04413 0.0
H1089 H 0.57687 0.9302 0.101 0.0
H1090 H 0.58153 0.95758 0.04485 0.0
H1091 H 0.56324 0.99518 0.77037 0.0
H1092 H 0.59124 0.98557 0.81849 0.0
H1093 H 0.56165 0.99809 0.94539 0.0
H1094 H 0.53344 0.00777 0.89735 0.0
H1095 H 0.57992 0.96338 0.95362 0.0
H1096 H 0.59422 0.02572 0.90027 0.0
H1097 H 0.59858 0.05185 0.83965 0.0
H1098 H 0.64197 0.02056 0.7739 0.0
H1099 H 0.6377 0.99417 0.83381 0.0
C1100 C 0.65554 0.9624 0.08389 0.0
C1101 C 0.67368 0.95918 0.06606 0.0
C1102 C 0.6401 0.96529 0.05306 0.0
C1103 C 0.64243 0.96478 0.00381 0.0
C1104 C 0.66043 0.96084 0.98603 0.0
C1105 C 0.67594 0.95799 0.01695 0.0
C1106 C 0.62635 0.97003 0.97086 0.0
C1107 C 0.62824 0.98465 0.93518 0.0
C1108 C 0.60876 0.96209 0.97733 0.0
C1109 C 0.60613 0.94575 0.01192 0.0
C1110 C 0.61829 0.93001 0.01201 0.0
C1111 C 0.61559 0.91459 0.04421 0.0
C1112 C 0.60069 0.91467 0.07629 0.0
C1113 C 0.58844 0.93017 0.07622 0.0
C1114 C 0.59111 0.94565 0.0442 0.0
C1115 C 0.56274 0.99614 0.80844 0.0
C1116 C 0.54617 0.0023 0.83013 0.0
C1117 C 0.57876 0.99065 0.83583 0.0
C1118 C 0.5785 0.99121 0.88536 0.0
C1119 C 0.56209 0.99763 0.90711 0.0
C1120 C 0.54606 0.00327 0.87964 0.0
C1121 C 0.59516 0.98445 0.91465 0.0
C1122 C 0.59336 0.96954 0.94931 0.0
C1123 C 0.61284 0.992 0.90707 0.0
C1124 C 0.61551 0.00792 0.87126 0.0
C1125 C 0.60459 0.02437 0.87268 0.0
C1126 C 0.60707 0.03924 0.83849 0.0
C1127 C 0.62051 0.03785 0.80288 0.0
C1128 C 0.63155 0.02161 0.80147 0.0
C1129 C 0.62912 0.0067 0.83557 0.0
H1130 H 0.6224 0.04937 0.77643 0.0
H1131 H 0.59861 0.90269 0.10111 0.0
H1132 H 0.45058 0.66943 0.05189 0.0
H1133 H 0.44867 0.64262 0.00762 0.0
H1134 H 0.50851 0.63147 0.02472 0.0
H1135 H 0.51062 0.65853 0.06727 0.0
H1136 H 0.49761 0.62629 0.93711 0.0
H1137 H 0.47686 0.60878 0.09797 0.0
H1138 H 0.45685 0.61134 0.16846 0.0
H1139 H 0.40795 0.60363 0.08507 0.0
H1140 H 0.42766 0.60127 0.01389 0.0
H1141 H 0.51385 0.53593 0.90304 0.0
H1142 H 0.50813 0.56104 0.95201 0.0
H1143 H 0.45104 0.56867 0.89965 0.0
H1144 H 0.45661 0.54341 0.85025 0.0
H1145 H 0.45718 0.57642 0.99958 0.0
H1146 H 0.47935 0.59049 0.84034 0.0
H1147 H 0.50041 0.58501 0.77381 0.0
H1148 H 0.5476 0.59885 0.8552 0.0
H1149 H 0.52687 0.60367 0.92328 0.0
C1150 C 0.46336 0.66143 0.0455 0.0
C1151 C 0.48073 0.66598 0.06347 0.0
C1152 C 0.46222 0.64603 0.02061 0.0
C1153 C 0.47841 0.6349 0.01354 0.0
C1154 C 0.49583 0.63981 0.02996 0.0
C1155 C 0.49698 0.65519 0.05466 0.0
C1156 C 0.47732 0.6178 0.99035 0.0
C1157 C 0.48883 0.61538 0.95094 0.0
C1158 C 0.46554 0.6037 0.00775 0.0
C1159 C 0.4537 0.60507 0.05051 0.0
C1160 C 0.46182 0.60778 0.09459 0.0
C1161 C 0.45054 0.60917 0.13467 0.0
C1162 C 0.43113 0.6077 0.13121 0.0
C1163 C 0.42298 0.6048 0.08767 0.0
C1164 C 0.4342 0.60343 0.04746 0.0
C1165 C 0.4999 0.54256 0.90291 0.0
C1166 C 0.48579 0.53799 0.87202 0.0
C1167 C 0.49665 0.55686 0.93106 0.0
C1168 C 0.47929 0.56686 0.92857 0.0
C1169 C 0.46454 0.5611 0.90179 0.0
C1170 C 0.46777 0.54672 0.87353 0.0
C1171 C 0.47776 0.58487 0.94738 0.0
C1172 C 0.46575 0.58746 0.98557 0.0
C1173 C 0.48913 0.59913 0.929 0.0
C1174 C 0.50155 0.5972 0.88727 0.0
C1175 C 0.49425 0.59213 0.84441 0.0
C1176 C 0.50616 0.58905 0.80644 0.0
C1177 C 0.52537 0.59148 0.81034 0.0
C1178 C 0.53271 0.59694 0.85231 0.0
C1179 C 0.52089 0.59979 0.89068 0.0
H1180 H 0.53455 0.58924 0.78074 0.0
H1181 H 0.42242 0.60878 0.16228 0.0
H1182 H 0.82755 0.53392 0.06416 0.0
H1183 H 0.85427 0.52483 0.01528 0.0
H1184 H 0.89211 0.5486 0.1081 0.0
H1185 H 0.86551 0.55732 0.15763 0.0
H1186 H 0.89799 0.55585 0.00221 0.0
H1187 H 0.89029 0.50726 0.13064 0.0
H1188 H 0.87164 0.48483 0.17834 0.0
H1189 H 0.85947 0.45916 0.05256 0.0
H1190 H 0.87782 0.48166 0.00397 0.0
H1191 H 0.98384 0.51948 0.92995 0.0
H1192 H 0.95858 0.52644 0.98468 0.0
H1193 H 0.92341 0.48957 0.92058 0.0
H1194 H 0.94895 0.48197 0.86713 0.0
H1195 H 0.9154 0.48923 0.011 0.0
H1196 H 0.92371 0.53547 0.88202 0.0
H1197 H 0.9407 0.55807 0.8303 0.0
H1198 H 0.94898 0.58904 0.94891 0.0
H1199 H 0.9327 0.56624 0.0018 0.0
C1200 C 0.84155 0.53746 0.07349 0.0
C1201 C 0.84461 0.54626 0.11446 0.0
C1202 C 0.85674 0.53223 0.04579 0.0
C1203 C 0.87508 0.53601 0.0584 0.0
C1204 C 0.87803 0.54562 0.09793 0.0
C1205 C 0.8629 0.55053 0.12612 0.0
C1206 C 0.89132 0.5289 0.03228 0.0
C1207 C 0.90201 0.54133 0.00442 0.0
C1208 C 0.89606 0.50992 0.03435 0.0
C1209 C 0.88525 0.49625 0.06362 0.0
C1210 C 0.8835 0.49693 0.1131 0.0
C1211 C 0.87301 0.48419 0.1403 0.0
C1212 C 0.86433 0.47061 0.11847 0.0
C1213 C 0.86618 0.4697 0.06941 0.0
C1214 C 0.87663 0.48244 0.04203 0.0
C1215 C 0.97093 0.5124 0.92867 0.0
C1216 C 0.96824 0.5003 0.89415 0.0
C1217 C 0.95646 0.51651 0.95962 0.0
C1218 C 0.93891 0.509 0.95557 0.0
C1219 C 0.93678 0.49567 0.924 0.0
C1220 C 0.95141 0.49127 0.89362 0.0
C1221 C 0.9224 0.51619 0.98103 0.0
C1222 C 0.91154 0.50378 0.00866 0.0
C1223 C 0.9173 0.53523 0.97796 0.0
C1224 C 0.92715 0.54899 0.94609 0.0
C1225 C 0.92935 0.54697 0.89725 0.0
C1226 C 0.93889 0.55982 0.86771 0.0
C1227 C 0.94599 0.57495 0.88634 0.0
C1228 C 0.94357 0.57726 0.93456 0.0
C1229 C 0.93424 0.56434 0.96439 0.0
H1230 H 0.95335 0.5849 0.86343 0.0
H1231 H 0.85621 0.46075 0.13959 0.0
H1232 H 0.9956 0.21455 0.02608 0.0
H1233 H 0.99742 0.18762 0.98152 0.0
H1234 H 0.0332 0.15868 0.09145 0.0
H1235 H 0.0315 0.18544 0.1359 0.0
H1236 H 0.04563 0.15174 0.00657 0.0
H1237 H 0.98526 0.15208 0.08391 0.0
H1238 H 0.95402 0.1654 0.1029 0.0
H1239 H 0.93837 0.1702 0.95466 0.0
H1240 H 0.96963 0.15712 0.93472 0.0
H1241 H 0.03744 0.05985 0.96453 0.0
H1242 H 0.03532 0.08893 0.99939 0.0
H1243 H 0.99934 0.11257 0.88307 0.0
H1244 H 0.00124 0.08332 0.84832 0.0
H1245 H 0.98692 0.12359 0.96464 0.0
H1246 H 0.04667 0.12152 0.8878 0.0
H1247 H 0.07786 0.10807 0.86895 0.0
H1248 H 0.09476 0.10662 0.01575 0.0
H1249 H 0.06357 0.11983 0.03561 0.0
C1250 C 0.00392 0.20247 0.04064 0.0
C1251 C 0.01341 0.20222 0.08463 0.0
C1252 C 0.00492 0.18706 0.01517 0.0
C1253 C 0.01523 0.17096 0.0334 0.0
C1254 C 0.02518 0.1709 0.07651 0.0
C1255 C 0.02427 0.1863 0.10183 0.0
C1256 C 0.0154 0.15401 0.00846 0.0
C1257 C 0.03278 0.14551 0.99781 0.0
C1258 C 0.99866 0.14606 0.99578 0.0
C1259 C 0.97984 0.15381 0.00778 0.0
C1260 C 0.9752 0.15609 0.05533 0.0
C1261 C 0.95749 0.16358 0.06627 0.0
C1262 C 0.94424 0.16869 0.02999 0.0
C1263 C 0.94866 0.16626 0.98271 0.0
C1264 C 0.96636 0.15881 0.97158 0.0
C1265 C 0.02911 0.07124 0.94629 0.0
C1266 C 0.01965 0.06928 0.9034 0.0
C1267 C 0.02792 0.0879 0.96622 0.0
C1268 C 0.0175 0.10313 0.94339 0.0
C1269 C 0.00755 0.10107 0.9013 0.0
C1270 C 0.0086 0.08432 0.88152 0.0
C1271 C 0.01716 0.12117 0.96339 0.0
C1272 C 0.99977 0.12988 0.97306 0.0
C1273 C 0.03389 0.12934 0.97516 0.0
C1274 C 0.05272 0.12154 0.96325 0.0
C1275 C 0.057 0.11823 0.91612 0.0
C1276 C 0.07468 0.11066 0.90524 0.0
C1277 C 0.08827 0.10646 0.94114 0.0
C1278 C 0.08421 0.10987 0.98798 0.0
C1279 C 0.06654 0.11742 0.99906 0.0
H1280 H 0.10195 0.10059 0.93266 0.0
H1281 H 0.93053 0.17448 0.03853 0.0
H1282 H 0.28695 0.03945 0.05339 0.0
H1283 H 0.31459 0.03424 0.00383 0.0
H1284 H 0.34248 0.0765 0.06731 0.0
H1285 H 0.31504 0.08187 0.11605 0.0
H1286 H 0.34922 0.07943 0.97633 0.0
H1287 H 0.35128 0.02967 0.10274 0.0
H1288 H 0.33918 0.003 0.15124 0.0
H1289 H 0.33578 0.97445 0.02641 0.0
H1290 H 0.34764 0.00106 0.97705 0.0
H1291 H 0.44571 0.05694 0.94624 0.0
H1292 H 0.41467 0.06087 0.9806 0.0
H1293 H 0.39272 0.02437 0.88681 0.0
H1294 H 0.42355 0.02072 0.85081 0.0
H1295 H 0.38129 0.01755 0.98397 0.0
H1296 H 0.38258 0.06726 0.85965 0.0
H1297 H 0.39595 0.09396 0.81426 0.0
H1298 H 0.39423 0.12274 0.93927 0.0
H1299 H 0.3811 0.0961 0.98561 0.0
C1300 C 0.29895 0.04768 0.05645 0.0
C1301 C 0.29872 0.06116 0.08843 0.0
C1302 C 0.31476 0.04467 0.02825 0.0
C1303 C 0.33074 0.05485 0.03215 0.0
C1304 C 0.33033 0.06853 0.06336 0.0
C1305 C 0.31455 0.07164 0.09113 0.0
C1306 C 0.34816 0.05114 0.00495 0.0
C1307 C 0.35625 0.06591 0.97832 0.0
C1308 C 0.35722 0.03343 0.00653 0.0
C1309 C 0.35012 0.01743 0.03614 0.0
C1310 C 0.34781 0.01775 0.08559 0.0
C1311 C 0.34102 0.00265 0.11323 0.0
C1312 C 0.33665 0.98706 0.09189 0.0
C1313 C 0.33913 0.98654 0.04287 0.0
C1314 C 0.34589 0.00163 0.01505 0.0
C1315 C 0.43437 0.04983 0.93232 0.0
C1316 C 0.43737 0.03859 0.8952 0.0
C1317 C 0.41658 0.05206 0.95231 0.0
C1318 C 0.40138 0.04302 0.93598 0.0
C1319 C 0.4043 0.03145 0.89992 0.0
C1320 C 0.42205 0.02935 0.87948 0.0
C1321 C 0.38242 0.0459 0.95643 0.0
C1322 C 0.37409 0.03101 0.98165 0.0
C1323 C 0.37323 0.06352 0.95404 0.0
C1324 C 0.381 0.07962 0.92619 0.0
C1325 C 0.38519 0.07923 0.87756 0.0
C1326 C 0.3927 0.09436 0.85164 0.0
C1327 C 0.39597 0.11002 0.87389 0.0
C1328 C 0.3917 0.11059 0.92209 0.0
C1329 C 0.3842 0.09549 0.94818 0.0
H1330 H 0.40179 0.12172 0.85377 0.0
H1331 H 0.3314 0.97538 0.11336 0.0
H1332 H 0.53068 0.33359 0.09532 0.0
H1333 H 0.53067 0.35984 0.03463 0.0
H1334 H 0.47302 0.35195 0.99912 0.0
H1335 H 0.47297 0.32537 0.05958 0.0
H1336 H 0.49561 0.36279 0.9181 0.0
H1337 H 0.48023 0.38155 0.07236 0.0
H1338 H 0.48492 0.38281 0.15865 0.0
H1339 H 0.53783 0.40702 0.13176 0.0
H1340 H 0.53359 0.40563 0.0453 0.0
H1341 H 0.47315 0.45493 0.81445 0.0
H1342 H 0.4736 0.42483 0.86097 0.0
H1343 H 0.52946 0.43245 0.91188 0.0
H1344 H 0.52915 0.46248 0.86561 0.0
H1345 H 0.50672 0.42133 0.98403 0.0
H1346 H 0.52397 0.40079 0.83269 0.0
H1347 H 0.52115 0.39823 0.74641 0.0
H1348 H 0.46605 0.37803 0.76699 0.0
H1349 H 0.46869 0.38022 0.8536 0.0
C1350 C 0.51815 0.33706 0.07372 0.0
C1351 C 0.50179 0.3274 0.08245 0.0
C1352 C 0.51812 0.35218 0.03928 0.0
C1353 C 0.50177 0.35798 0.01285 0.0
C1354 C 0.48577 0.34772 0.01926 0.0
C1355 C 0.48574 0.33261 0.05397 0.0
C1356 C 0.50099 0.3756 0.9817 0.0
C1357 C 0.49778 0.37563 0.93253 0.0
C1358 C 0.50416 0.39231 1.00045 0.0
C1359 C 0.50668 0.39331 0.05239 0.0
C1360 C 0.49294 0.38701 0.08487 0.0
C1361 C 0.4955 0.38776 0.13381 0.0
C1362 C 0.51169 0.39495 0.15069 0.0
C1363 C 0.52532 0.40144 0.11864 0.0
C1364 C 0.52283 0.40067 0.06966 0.0
C1365 C 0.48555 0.45018 0.83548 0.0
C1366 C 0.50108 0.46116 0.83648 0.0
C1367 C 0.48583 0.43291 0.86175 0.0
C1368 C 0.50161 0.42633 0.88971 0.0
C1369 C 0.51714 0.43723 0.89054 0.0
C1370 C 0.51693 0.45441 0.86405 0.0
C1371 C 0.50159 0.40855 0.92019 0.0
C1372 C 0.50453 0.40851 0.96946 0.0
C1373 C 0.49828 0.39188 0.90145 0.0
C1374 C 0.49646 0.39081 0.84946 0.0
C1375 C 0.51122 0.39589 0.81875 0.0
C1376 C 0.50971 0.39439 0.76987 0.0
C1377 C 0.49342 0.388 0.75121 0.0
C1378 C 0.47866 0.38297 0.78149 0.0
C1379 C 0.4802 0.38424 0.83051 0.0
H1380 H 0.49222 0.387 0.71328 0.0
H1381 H 0.51365 0.39553 0.18859 0.0
H1382 H 0.16777 0.43276 0.09134 0.0
H1383 H 0.14105 0.43652 0.03635 0.0
H1384 H 0.16646 0.48183 0.95629 0.0
H1385 H 0.19371 0.47777 0.01007 0.0
H1386 H 0.12974 0.48998 0.98676 0.0
H1387 H 0.16307 0.44353 0.9067 0.0
H1388 H 0.17967 0.41349 0.90148 0.0
H1389 H 0.13028 0.38631 0.94929 0.0
H1390 H 0.11346 0.41619 0.95546 0.0
H1391 H 0.06118 0.50992 0.80966 0.0
H1392 H 0.09126 0.50103 0.84914 0.0
H1393 H 0.06902 0.45047 0.91057 0.0
H1394 H 0.039 0.459 0.86872 0.0
H1395 H 0.10442 0.4443 0.88942 0.0
H1396 H 0.07136 0.48875 0.97437 0.0
H1397 H 0.05375 0.51793 0.98411 0.0
H1398 H 0.10131 0.54776 0.93475 0.0
H1399 H 0.11912 0.51875 0.92406 0.0
C1400 C 0.16807 0.44316 0.06122 0.0
C1401 C 0.183 0.455 0.05543 0.0
C1402 C 0.15265 0.44536 0.02992 0.0
C1403 C 0.15175 0.45947 0.99228 0.0
C1404 C 0.16685 0.47089 0.98526 0.0
C1405 C 0.18239 0.46859 0.01623 0.0
C1406 C 0.13438 0.46326 0.96281 0.0
C1407 C 0.12437 0.48012 0.9648 0.0
C1408 C 0.12699 0.45008 0.93581 0.0
C1409 C 0.13706 0.4321 0.93197 0.0
C1410 C 0.1558 0.43114 0.91651 0.0
C1411 C 0.16524 0.41414 0.91329 0.0
C1412 C 0.15605 0.398 0.92516 0.0
C1413 C 0.13738 0.39882 0.94016 0.0
C1414 C 0.12789 0.41579 0.94347 0.0
C1415 C 0.06273 0.49685 0.83137 0.0
C1416 C 0.04767 0.48526 0.83681 0.0
C1417 C 0.07992 0.4918 0.85406 0.0
C1418 C 0.08229 0.47532 0.88409 0.0
C1419 C 0.06752 0.46332 0.88792 0.0
C1420 C 0.05036 0.4682 0.86416 0.0
C1421 C 0.09986 0.47115 0.91289 0.0
C1422 C 0.10983 0.4542 0.91114 0.0
C1423 C 0.10709 0.48411 0.94101 0.0
C1424 C 0.09652 0.50158 0.94803 0.0
C1425 C 0.07803 0.50154 0.96535 0.0
C1426 C 0.06801 0.51805 0.97105 0.0
C1427 C 0.07639 0.53469 0.95995 0.0
C1428 C 0.09483 0.53486 0.94328 0.0
C1429 C 0.1049 0.51839 0.93744 0.0
H1430 H 0.06861 0.54746 0.96434 0.0
H1431 H 0.16338 0.38485 0.92264 0.0
H1432 H 0.97575 0.80092 0.49581 0.0
H1433 H 0.97092 0.82608 0.54602 0.0
H1434 H 0.01594 0.85413 0.47356 0.0
H1435 H 0.02084 0.82921 0.42374 0.0
H1436 H 0.01845 0.85713 0.56538 0.0
H1437 H 0.96866 0.86545 0.44692 0.0
H1438 H 0.94119 0.85644 0.40328 0.0
H1439 H 0.91037 0.84969 0.53405 0.0
H1440 H 0.93777 0.85844 0.57857 0.0
H1441 H 0.99569 0.95197 0.57109 0.0
H1442 H 0.99824 0.92113 0.54548 0.0
H1443 H 0.96812 0.90051 0.6704 0.0
H1444 H 0.96586 0.93159 0.69668 0.0
H1445 H 0.95635 0.89105 0.56657 0.0
H1446 H 0.00598 0.88696 0.68261 0.0
H1447 H 0.03331 0.89815 0.72235 0.0
H1448 H 0.06447 0.89844 0.59211 0.0
H1449 H 0.03716 0.88757 0.55144 0.0
C1450 C 0.98463 0.81244 0.49068 0.0
C1451 C 0.99875 0.81295 0.45583 0.0
C1452 C 0.98186 0.82683 0.51942 0.0
C1453 C 0.99298 0.84213 0.51346 0.0
C1454 C 0.00726 0.84247 0.47923 0.0
C1455 C 0.01008 0.82812 0.45078 0.0
C1456 C 0.98961 0.85812 0.5415 0.0
C1457 C 0.00485 0.8645 0.56557 0.0
C1458 C 0.97179 0.86763 0.54283 0.0
C1459 C 0.95533 0.86236 0.51614 0.0
C1460 C 0.95608 0.86189 0.46641 0.0
C1461 C 0.94051 0.85686 0.44152 0.0
C1462 C 0.92406 0.85244 0.46591 0.0
C1463 C 0.92313 0.85308 0.51523 0.0
C1464 C 0.93867 0.85808 0.54031 0.0
C1465 C 0.98954 0.94088 0.59297 0.0
C1466 C 0.98052 0.9441 0.6358 0.0
C1467 C 0.99106 0.92328 0.57842 0.0
C1468 C 0.98334 0.90858 0.60599 0.0
C1469 C 0.97413 0.91172 0.64862 0.0
C1470 C 0.97294 0.92935 0.66373 0.0
C1471 C 0.98522 0.89004 0.58957 0.0
C1472 C 0.96979 0.88333 0.56734 0.0
C1473 C 0.00287 0.88031 0.58958 0.0
C1474 C 0.01945 0.8866 0.61392 0.0
C1475 C 0.0186 0.88956 0.66238 0.0
C1476 C 0.0341 0.89582 0.68509 0.0
C1477 C 0.05061 0.89904 0.65974 0.0
C1478 C 0.05166 0.89595 0.61169 0.0
C1479 C 0.03617 0.88973 0.58881 0.0
H1480 H 0.0626 0.90389 0.67734 0.0
H1481 H 0.91202 0.84856 0.44656 0.0
H1482 H 0.70277 0.99416 0.45316 0.0
H1483 H 0.67451 0.99365 0.50101 0.0
H1484 H 0.67646 0.93463 0.50847 0.0
H1485 H 0.70365 0.93515 0.45656 0.0
H1486 H 0.64379 0.94519 0.48748 0.0
H1487 H 0.6839 0.96016 0.60932 0.0
H1488 H 0.70816 0.97628 0.64817 0.0
H1489 H 0.67413 0.02652 0.62638 0.0
H1490 H 0.64977 0.01078 0.58675 0.0
H1491 H 0.5734 0.97176 0.68897 0.0
H1492 H 0.60549 0.96616 0.66122 0.0
H1493 H 0.58535 0.97368 0.51534 0.0
H1494 H 0.55314 0.97811 0.5436 0.0
H1495 H 0.62854 0.98475 0.61565 0.0
H1496 H 0.61193 0.95173 0.44173 0.0
H1497 H 0.58896 0.93141 0.41298 0.0
H1498 H 0.57868 0.90935 0.55714 0.0
H1499 H 0.60177 0.92936 0.58671 0.0
C1500 C 0.69726 0.98102 0.46495 0.0
C1501 C 0.70544 0.96473 0.44997 0.0
C1502 C 0.68118 0.98073 0.49318 0.0
C1503 C 0.67323 0.96409 0.50871 0.0
C1504 C 0.68217 0.94769 0.49676 0.0
C1505 C 0.698 0.948 0.46752 0.0
C1506 C 0.65469 0.96395 0.53322 0.0
C1507 C 0.64057 0.95372 0.51584 0.0
C1508 C 0.65041 0.97471 0.57107 0.0
C1509 C 0.66505 0.9843 0.59473 0.0
C1510 C 0.68164 0.97468 0.61247 0.0
C1511 C 0.69541 0.98375 0.63469 0.0
C1512 C 0.69271 0.00242 0.63966 0.0
C1513 C 0.67621 0.01206 0.62248 0.0
C1514 C 0.66241 0.00306 0.60019 0.0
C1515 C 0.5759 0.97205 0.65102 0.0
C1516 C 0.56087 0.97522 0.61833 0.0
C1517 C 0.59423 0.96891 0.63512 0.0
C1518 C 0.59796 0.96921 0.5861 0.0
C1519 C 0.5829 0.97278 0.55338 0.0
C1520 C 0.5645 0.97542 0.56941 0.0
C1521 C 0.6176 0.96628 0.56918 0.0
C1522 C 0.63188 0.976 0.5878 0.0
C1523 C 0.62225 0.9544 0.53399 0.0
C1524 C 0.60848 0.94217 0.51644 0.0
C1525 C 0.60484 0.94248 0.46727 0.0
C1526 C 0.59178 0.93103 0.45084 0.0
C1527 C 0.58233 0.91913 0.48322 0.0
C1528 C 0.58596 0.91862 0.53211 0.0
C1529 C 0.59902 0.93002 0.54873 0.0
H1530 H 0.57221 0.91029 0.47043 0.0
H1531 H 0.70338 0.00941 0.65688 0.0
H1532 H 0.52288 0.68308 0.41478 0.0
H1533 H 0.52545 0.65657 0.47494 0.0
H1534 H 0.4756 0.6766 0.54342 0.0
H1535 H 0.47297 0.70332 0.48329 0.0
H1536 H 0.50401 0.65981 0.60888 0.0
H1537 H 0.46959 0.6478 0.46922 0.0
H1538 H 0.46474 0.64688 0.38285 0.0
H1539 H 0.51335 0.60994 0.37838 0.0
H1540 H 0.51867 0.61089 0.46466 0.0
H1541 H 0.47287 0.55963 0.65799 0.0
H1542 H 0.47236 0.5899 0.61286 0.0
H1543 H 0.52822 0.5975 0.66369 0.0
H1544 H 0.52897 0.56703 0.70863 0.0
H1545 H 0.49621 0.60111 0.54051 0.0
H1546 H 0.53097 0.64219 0.67547 0.0
H1547 H 0.53191 0.64493 0.76206 0.0
H1548 H 0.4766 0.62476 0.77661 0.0
H1549 H 0.47551 0.62155 0.69035 0.0
C1550 C 0.51277 0.68217 0.44344 0.0
C1551 C 0.49768 0.69528 0.44422 0.0
C1552 C 0.5142 0.66693 0.47761 0.0
C1553 C 0.50062 0.66455 0.51332 0.0
C1554 C 0.48623 0.6782 0.51613 0.0
C1555 C 0.48469 0.69339 0.48165 0.0
C1556 C 0.50035 0.647 0.54444 0.0
C1557 C 0.50244 0.64696 0.59397 0.0
C1558 C 0.49789 0.63028 0.52504 0.0
C1559 C 0.49465 0.62958 0.47326 0.0
C1560 C 0.47934 0.63961 0.44973 0.0
C1561 C 0.47649 0.63906 0.40081 0.0
C1562 C 0.48876 0.6284 0.37511 0.0
C1563 C 0.50388 0.61822 0.39832 0.0
C1564 C 0.50681 0.61875 0.44723 0.0
C1565 C 0.48506 0.56772 0.65971 0.0
C1566 C 0.50101 0.56085 0.68668 0.0
C1567 C 0.48472 0.58504 0.63393 0.0
C1568 C 0.5002 0.59598 0.6351 0.0
C1569 C 0.51605 0.58934 0.66262 0.0
C1570 C 0.51651 0.57187 0.68797 0.0
C1571 C 0.50013 0.61382 0.60504 0.0
C1572 C 0.498 0.61392 0.55551 0.0
C1573 C 0.50224 0.63057 0.62454 0.0
C1574 C 0.50322 0.63153 0.67667 0.0
C1575 C 0.51907 0.63824 0.69728 0.0
C1576 C 0.51963 0.63986 0.74626 0.0
C1577 C 0.50431 0.63507 0.77479 0.0
C1578 C 0.48846 0.62847 0.75447 0.0
C1579 C 0.48794 0.62657 0.70565 0.0
H1580 H 0.50474 0.63638 0.81267 0.0
H1581 H 0.48653 0.62798 0.33724 0.0
H1582 H 0.80807 0.52865 0.53683 0.0
H1583 H 0.83525 0.52646 0.59013 0.0
H1584 H 0.8507 0.57997 0.53034 0.0
H1585 H 0.82422 0.58175 0.47476 0.0
H1586 H 0.87988 0.55808 0.5324 0.0
H1587 H 0.83446 0.57091 0.64874 0.0
H1588 H 0.80518 0.56802 0.69456 0.0
H1589 H 0.8225 0.51264 0.74673 0.0
H1590 H 0.85178 0.5151 0.70068 0.0
H1591 H 0.95634 0.55305 0.70189 0.0
H1592 H 0.92622 0.56344 0.66277 0.0
H1593 H 0.90822 0.50811 0.68111 0.0
H1594 H 0.93822 0.49759 0.71936 0.0
H1595 H 0.88034 0.53538 0.70451 0.0
H1596 H 0.92399 0.52264 0.57838 0.0
H1597 H 0.95339 0.52651 0.53347 0.0
H1598 H 0.93894 0.58401 0.50193 0.0
H1599 H 0.90955 0.5805 0.54729 0.0
C1600 C 0.81716 0.54003 0.53513 0.0
C1601 C 0.81394 0.55532 0.50107 0.0
C1602 C 0.83262 0.53886 0.56617 0.0
C1603 C 0.84504 0.55311 0.56465 0.0
C1604 C 0.84135 0.56878 0.5323 0.0
C1605 C 0.82601 0.56987 0.50084 0.0
C1606 C 0.86269 0.55091 0.59373 0.0
C1607 C 0.87987 0.55353 0.57029 0.0
C1608 C 0.86286 0.54472 0.6431 0.0
C1609 C 0.84527 0.54316 0.67095 0.0
C1610 C 0.83197 0.55807 0.6697 0.0
C1611 C 0.81538 0.55651 0.69576 0.0
C1612 C 0.81197 0.54015 0.72347 0.0
C1613 C 0.82516 0.52531 0.72524 0.0
C1614 C 0.84177 0.52679 0.69921 0.0
C1615 C 0.94593 0.54313 0.69771 0.0
C1616 C 0.94972 0.52448 0.71331 0.0
C1617 C 0.92875 0.54908 0.67542 0.0
C1618 C 0.91503 0.53652 0.66903 0.0
C1619 C 0.9186 0.51802 0.68582 0.0
C1620 C 0.93582 0.51202 0.70738 0.0
C1621 C 0.89726 0.54233 0.64288 0.0
C1622 C 0.88015 0.54029 0.66684 0.0
C1623 C 0.89711 0.54926 0.59416 0.0
C1624 C 0.91471 0.55135 0.5667 0.0
C1625 C 0.92717 0.53613 0.56223 0.0
C1626 C 0.94381 0.53826 0.53663 0.0
C1627 C 0.94806 0.55551 0.51499 0.0
C1628 C 0.93565 0.57066 0.51879 0.0
C1629 C 0.919 0.56861 0.54443 0.0
H1630 H 0.96095 0.55713 0.49517 0.0
H1631 H 0.79911 0.53897 0.74362 0.0
loop_
_geom_bond_atom_site_label_1
_geom_bond_atom_site_label_2
_geom_bond_distance
_geom_bond_site_symmetry_2
_ccdc_geom_bond_type
C0 C1 1.386 . S
C0 C2 1.397 1_556 S
C0 H24 0.931 . S
C1 C0 1.386 . S
C1 C5 1.397 1_556 S
C2 C0 1.397 1_554 S
C2 C3 1.384 . S
C2 H25 0.930 . S
C3 C2 1.384 . S
C3 C4 1.377 . S
C3 C6 1.481 . S
C4 C3 1.377 . S
C4 C5 1.389 . S
C4 H26 0.929 . S
C5 C1 1.397 1_554 S
C5 C4 1.389 . S
C5 H27 0.931 . S
C6 C3 1.481 . S
C6 C7 1.387 . S
C6 C11 1.390 . S
C7 C6 1.387 . S
C7 C8 1.401 . S
C7 H28 0.930 . S
C8 C7 1.401 . S
C8 C9 1.376 . S
C8 C17 1.511 . S
C9 C8 1.376 . S
C9 C10 1.392 . S
C9 H30 0.931 . S
C10 C9 1.392 . S
C10 C11 1.361 . S
C10 C12 1.500 . S
C11 C6 1.390 . S
C11 C10 1.361 . S
C11 H29 0.931 . S
C12 C10 1.500 . S
C12 C13 1.371 . S
C12 C14 1.365 . S
C13 C12 1.371 . S
C13 C23 1.386 . S
C13 H31 0.931 . S
C14 C12 1.365 . S
C14 C15 1.409 . S
C14 H32 0.929 . S
C15 C14 1.409 . S
C15 C16 1.380 . S
C15 H33 0.930 . S
C16 C15 1.380 . S
C16 C23 1.357 . S
C17 C8 1.511 . S
C17 C18 1.341 . S
C17 C19 1.371 . S
C18 C17 1.341 . S
C18 C22 1.394 . S
C18 H34 0.930 . S
C19 C17 1.371 . S
C19 C20 1.392 . S
C19 H35 0.931 . S
C20 C19 1.392 . S
C20 C21 1.331 . S
C20 H38 0.932 . S
C21 C20 1.331 . S
C21 C22 1.336 . S
C22 C18 1.394 . S
C22 C21 1.336 . S
C22 H37 0.929 . S
C23 C13 1.386 . S
C23 C16 1.357 . S
C23 H36 0.928 . S
H24 C0 0.931 . S
H25 C2 0.930 . S
H26 C4 0.929 . S
H27 C5 0.931 . S
H28 C7 0.930 . S
H29 C11 0.931 . S
H30 C9 0.931 . S
H31 C13 0.931 . S
H32 C14 0.929 . S
H33 C15 0.930 . S
H34 C18 0.930 . S
H35 C19 0.931 . S
H36 C23 0.928 . S
H37 C22 0.929 . S
H38 C20 0.932 . S
C39 C40 1.395 . S
C39 C41 1.397 1_556 S
C39 H63 0.931 . S
C40 C39 1.395 . S
C40 C44 1.389 1_656 S
C41 C39 1.397 1_554 S
C41 C42 1.389 . S
C41 H64 0.930 . S
C42 C41 1.389 . S
C42 C43 1.372 1_655 S
C42 C45 1.479 . S
C43 C42 1.372 1_455 S
C43 C44 1.389 . S
C43 H65 0.929 . S
C44 C40 1.389 1_454 S
C44 C43 1.389 . S
C44 H66 0.931 . S
C45 C42 1.479 . S
C45 C46 1.390 . S
C45 C50 1.390 . S
C46 C45 1.390 . S
C46 C47 1.401 . S
C46 H67 0.930 . S
C47 C46 1.401 . S
C47 C48 1.376 . S
C47 C56 1.514 . S
C48 C47 1.376 . S
C48 C49 1.389 . S
C48 H69 0.936 . S
C49 C48 1.389 . S
C49 C50 1.362 . S
C49 C51 1.499 1_655 S
C50 C45 1.390 . S
C50 C49 1.362 . S
C50 H68 0.931 . S
C51 C49 1.499 1_455 S
C51 C52 1.363 1_455 S
C51 C53 1.374 . S
C52 C51 1.363 1_655 S
C52 C62 1.386 . S
C52 H70 0.931 . S
C53 C51 1.374 . S
C53 C54 1.409 . S
C53 H71 0.929 . S
C54 C53 1.409 . S
C54 C55 1.378 . S
C54 H72 0.930 . S
C55 C54 1.378 . S
C55 C62 1.360 1_455 S
C56 C47 1.514 . S
C56 C57 1.341 . S
C56 C58 1.371 1_655 S
C57 C56 1.341 . S
C57 C61 1.394 . S
C57 H73 0.930 . S
C58 C56 1.371 1_455 S
C58 C59 1.392 . S
C58 H74 0.931 . S
C59 C58 1.392 . S
C59 C60 1.322 1_455 S
C59 H77 0.932 . S
C60 C59 1.322 1_655 S
C60 C61 1.344 . S
C61 C57 1.394 . S
C61 C60 1.344 . S
C61 H76 0.929 . S
C62 C52 1.386 . S
C62 C55 1.360 1_655 S
C62 H75 0.928 . S
H63 C39 0.931 . S
H64 C41 0.930 . S
H65 C43 0.929 . S
H66 C44 0.931 . S
H67 C46 0.930 . S
H68 C50 0.931 . S
H69 C48 0.936 . S
H70 C52 0.931 . S
H71 C53 0.929 . S
H72 C54 0.930 . S
H73 C57 0.930 . S
H74 C58 0.931 . S
H75 C62 0.928 . S
H76 C61 0.929 . S
H77 C59 0.932 . S
C78 C79 1.386 . S
C78 C80 1.397 1_556 S
C78 H102 0.931 . S
C79 C78 1.386 . S
C79 C83 1.397 1_556 S
C80 C78 1.397 1_554 S
C80 C81 1.384 . S
C80 H103 0.931 . S
C81 C80 1.384 . S
C81 C82 1.377 . S
C81 C84 1.481 . S
C82 C81 1.377 . S
C82 C83 1.389 . S
C82 H104 0.929 . S
C83 C79 1.397 1_554 S
C83 C82 1.389 . S
C83 H105 0.931 . S
C84 C81 1.481 . S
C84 C85 1.387 . S
C84 C89 1.390 . S
C85 C84 1.387 . S
C85 C86 1.401 . S
C85 H106 0.930 . S
C86 C85 1.401 . S
C86 C87 1.376 . S
C86 C95 1.511 . S
C87 C86 1.376 . S
C87 C88 1.392 . S
C87 H108 0.931 . S
C88 C87 1.392 . S
C88 C89 1.361 . S
C88 C90 1.500 . S
C89 C84 1.390 . S
C89 C88 1.361 . S
C89 H107 0.931 . S
C90 C88 1.500 . S
C90 C91 1.371 . S
C90 C92 1.365 . S
C91 C90 1.371 . S
C91 C101 1.386 . S
C91 H109 0.931 . S
C92 C90 1.365 . S
C92 C93 1.409 . S
C92 H110 0.929 . S
C93 C92 1.409 . S
C93 C94 1.380 . S
C93 H111 0.930 . S
C94 C93 1.380 . S
C94 C101 1.357 . S
C95 C86 1.511 . S
C95 C96 1.341 . S
C95 C97 1.371 . S
C96 C95 1.341 . S
C96 C100 1.394 . S
C96 H112 0.930 . S
C97 C95 1.371 . S
C97 C98 1.392 . S
C97 H113 0.931 . S
C98 C97 1.392 . S
C98 C99 1.331 . S
C98 H116 0.932 . S
C99 C98 1.331 . S
C99 C100 1.336 . S
C100 C96 1.394 . S
C100 C99 1.336 . S
C100 H115 0.929 . S
C101 C91 1.386 . S
C101 C94 1.357 . S
C101 H114 0.928 . S
H102 C78 0.931 . S
H103 C80 0.931 . S
H104 C82 0.929 . S
H105 C83 0.931 . S
H106 C85 0.930 . S
H107 C89 0.931 . S
H108 C87 0.931 . S
H109 C91 0.931 . S
H110 C92 0.929 . S
H111 C93 0.930 . S
H112 C96 0.930 . S
H113 C97 0.931 . S
H114 C101 0.928 . S
H115 C100 0.929 . S
H116 C98 0.932 . S
C117 C118 1.386 . S
C117 C119 1.397 . S
C117 H141 0.931 . S
C118 C117 1.386 . S
C118 C122 1.397 . S
C119 C117 1.397 . S
C119 C120 1.384 . S
C119 H142 0.930 . S
C120 C119 1.384 . S
C120 C121 1.377 . S
C120 C123 1.481 . S
C121 C120 1.377 . S
C121 C122 1.389 . S
C121 H143 0.929 . S
C122 C118 1.397 . S
C122 C121 1.389 . S
C122 H144 0.931 . S
C123 C120 1.481 . S
C123 C124 1.387 . S
C123 C128 1.390 . S
C124 C123 1.387 . S
C124 C125 1.401 . S
C124 H145 0.930 . S
C125 C124 1.401 . S
C125 C126 1.376 . S
C125 C134 1.511 . S
C126 C125 1.376 . S
C126 C127 1.392 . S
C126 H147 0.931 . S
C127 C126 1.392 . S
C127 C128 1.361 . S
C127 C129 1.500 . S
C128 C123 1.390 . S
C128 C127 1.361 . S
C128 H146 0.931 . S
C129 C127 1.500 . S
C129 C130 1.371 . S
C129 C131 1.365 . S
C130 C129 1.371 . S
C130 C140 1.386 1_554 S
C130 H148 0.931 . S
C131 C129 1.365 . S
C131 C132 1.409 . S
C131 H149 0.929 . S
C132 C131 1.409 . S
C132 C133 1.380 1_554 S
C132 H150 0.930 . S
C133 C132 1.380 1_556 S
C133 C140 1.357 . S
C134 C125 1.511 . S
C134 C135 1.341 . S
C134 C136 1.371 . S
C135 C134 1.341 . S
C135 C139 1.394 . S
C135 H151 0.930 . S
C136 C134 1.371 . S
C136 C137 1.392 . S
C136 H152 0.931 . S
C137 C136 1.392 . S
C137 C138 1.331 . S
C137 H155 0.932 . S
C138 C137 1.331 . S
C138 C139 1.336 . S
C139 C135 1.394 . S
C139 C138 1.336 . S
C139 H154 0.929 . S
C140 C130 1.386 1_556 S
C140 C133 1.357 . S
C140 H153 0.928 . S
H141 C117 0.931 . S
H142 C119 0.930 . S
H143 C121 0.929 . S
H144 C122 0.931 . S
H145 C124 0.930 . S
H146 C128 0.931 . S
H147 C126 0.931 . S
H148 C130 0.931 . S
H149 C131 0.929 . S
H150 C132 0.930 . S
H151 C135 0.930 . S
H152 C136 0.931 . S
H153 C140 0.928 . S
H154 C139 0.929 . S
H155 C137 0.932 . S
C156 C157 1.386 . S
C156 C158 1.397 . S
C156 H180 0.931 . S
C157 C156 1.386 . S
C157 C161 1.397 . S
C158 C156 1.397 . S
C158 C159 1.384 . S
C158 H181 0.930 . S
C159 C158 1.384 . S
C159 C160 1.377 . S
C159 C162 1.481 . S
C160 C159 1.377 . S
C160 C161 1.389 . S
C160 H182 0.929 . S
C161 C157 1.397 . S
C161 C160 1.389 . S
C161 H183 0.931 . S
C162 C159 1.481 . S
C162 C163 1.387 . S
C162 C167 1.390 . S
C163 C162 1.387 . S
C163 C164 1.401 . S
C163 H184 0.930 . S
C164 C163 1.401 . S
C164 C165 1.376 . S
C164 C173 1.511 . S
C165 C164 1.376 . S
C165 C166 1.392 . S
C165 H186 0.931 . S
C166 C165 1.392 . S
C166 C167 1.361 . S
C166 C168 1.500 . S
C167 C162 1.390 . S
C167 C166 1.361 . S
C167 H185 0.931 . S
C168 C166 1.500 . S
C168 C169 1.371 . S
C168 C170 1.365 . S
C169 C168 1.371 . S
C169 C179 1.386 . S
C169 H187 0.931 . S
C170 C168 1.365 . S
C170 C171 1.409 . S
C170 H188 0.929 . S
C171 C170 1.409 . S
C171 C172 1.380 . S
C171 H189 0.930 . S
C172 C171 1.380 . S
C172 C179 1.357 . S
C173 C164 1.511 . S
C173 C174 1.341 . S
C173 C175 1.371 . S
C174 C173 1.341 . S
C174 C178 1.394 . S
C174 H190 0.930 . S
C175 C173 1.371 . S
C175 C176 1.392 . S
C175 H191 0.931 . S
C176 C175 1.392 . S
C176 C177 1.331 . S
C176 H194 0.932 . S
C177 C176 1.331 . S
C177 C178 1.336 . S
C178 C174 1.394 . S
C178 C177 1.336 . S
C178 H193 0.929 . S
C179 C169 1.386 . S
C179 C172 1.357 . S
C179 H192 0.928 . S
H180 C156 0.931 . S
H181 C158 0.930 . S
H182 C160 0.929 . S
H183 C161 0.931 . S
H184 C163 0.930 . S
H185 C167 0.931 . S
H186 C165 0.931 . S
H187 C169 0.931 . S
H188 C170 0.929 . S
H189 C171 0.930 . S
H190 C174 0.930 . S
H191 C175 0.931 . S
H192 C179 0.928 . S
H193 C178 0.929 . S
H194 C176 0.932 . S
C195 C196 1.386 . S
C195 C197 1.397 . S
C195 H219 0.931 . S
C196 C195 1.386 . S
C196 C200 1.397 1_655 S
C197 C195 1.397 . S
C197 C198 1.380 . S
C197 H220 0.930 . S
C198 C197 1.380 . S
C198 C199 1.381 1_655 S
C198 C201 1.482 . S
C199 C198 1.381 1_455 S
C199 C200 1.389 . S
C199 H221 0.929 . S
C200 C196 1.397 1_455 S
C200 C199 1.389 . S
C200 H222 0.931 . S
C201 C198 1.482 . S
C201 C202 1.389 . S
C201 C206 1.390 . S
C202 C201 1.389 . S
C202 C203 1.399 . S
C202 H223 0.935 . S
C203 C202 1.399 . S
C203 C204 1.376 . S
C203 C212 1.511 . S
C204 C203 1.376 . S
C204 C205 1.393 1_655 S
C204 H225 0.932 . S
C205 C204 1.393 1_455 S
C205 C206 1.361 1_455 S
C205 C207 1.499 . S
C206 C201 1.390 . S
C206 C205 1.361 1_655 S
C206 H224 0.931 1_655 S
C207 C205 1.499 . S
C207 C208 1.358 1_455 S
C207 C209 1.379 . S
C208 C207 1.358 1_655 S
C208 C218 1.386 . S
C208 H226 0.931 . S
C209 C207 1.379 . S
C209 C210 1.409 . S
C209 H227 0.929 . S
C210 C209 1.409 . S
C210 C211 1.384 . S
C210 H228 0.930 . S
C211 C210 1.384 . S
C211 C218 1.354 1_455 S
C212 C203 1.511 . S
C212 C213 1.341 . S
C212 C214 1.371 1_655 S
C213 C212 1.341 . S
C213 C217 1.394 . S
C213 H229 0.930 . S
C214 C212 1.371 1_455 S
C214 C215 1.392 . S
C214 H230 0.931 . S
C215 C214 1.392 . S
C215 C216 1.326 1_455 S
C215 H233 0.932 . S
C216 C215 1.326 1_655 S
C216 C217 1.341 . S
C217 C213 1.394 . S
C217 C216 1.341 . S
C217 H232 0.929 . S
C218 C208 1.386 . S
C218 C211 1.354 1_655 S
C218 H231 0.928 . S
H219 C195 0.931 . S
H220 C197 0.930 . S
H221 C199 0.929 . S
H222 C200 0.931 . S
H223 C202 0.935 . S
H224 C206 0.931 1_455 S
H225 C204 0.932 . S
H226 C208 0.931 . S
H227 C209 0.929 . S
H228 C210 0.930 . S
H229 C213 0.930 . S
H230 C214 0.931 . S
H231 C218 0.928 . S
H232 C217 0.929 . S
H233 C215 0.932 . S
C234 C235 1.386 . S
C234 C236 1.397 . S
C234 H258 0.931 . S
C235 C234 1.386 . S
C235 C239 1.397 . S
C236 C234 1.397 . S
C236 C237 1.384 . S
C236 H259 0.930 . S
C237 C236 1.384 . S
C237 C238 1.377 . S
C237 C240 1.481 . S
C238 C237 1.377 . S
C238 C239 1.389 . S
C238 H260 0.929 . S
C239 C235 1.397 . S
C239 C238 1.389 . S
C239 H261 0.931 . S
C240 C237 1.481 . S
C240 C241 1.387 . S
C240 C245 1.390 . S
C241 C240 1.387 . S
C241 C242 1.401 . S
C241 H262 0.930 . S
C242 C241 1.401 . S
C242 C243 1.376 . S
C242 C251 1.511 . S
C243 C242 1.376 . S
C243 C244 1.392 . S
C243 H264 0.931 . S
C244 C243 1.392 . S
C244 C245 1.361 . S
C244 C246 1.500 . S
C245 C240 1.390 . S
C245 C244 1.361 . S
C245 H263 0.931 . S
C246 C244 1.500 . S
C246 C247 1.371 . S
C246 C248 1.365 . S
C247 C246 1.371 . S
C247 C257 1.386 . S
C247 H265 0.931 . S
C248 C246 1.365 . S
C248 C249 1.409 . S
C248 H266 0.929 . S
C249 C248 1.409 . S
C249 C250 1.380 . S
C249 H267 0.930 . S
C250 C249 1.380 . S
C250 C257 1.357 . S
C251 C242 1.511 . S
C251 C252 1.341 . S
C251 C253 1.371 . S
C252 C251 1.341 . S
C252 C256 1.394 . S
C252 H268 0.930 . S
C253 C251 1.371 . S
C253 C254 1.392 . S
C253 H269 0.931 . S
C254 C253 1.392 . S
C254 C255 1.331 . S
C254 H272 0.932 . S
C255 C254 1.331 . S
C255 C256 1.336 . S
C256 C252 1.394 . S
C256 C255 1.336 . S
C256 H271 0.929 . S
C257 C247 1.386 . S
C257 C250 1.357 . S
C257 H270 0.928 . S
H258 C234 0.931 . S
H259 C236 0.930 . S
H260 C238 0.929 . S
H261 C239 0.931 . S
H262 C241 0.930 . S
H263 C245 0.931 . S
H264 C243 0.931 . S
H265 C247 0.931 . S
H266 C248 0.929 . S
H267 C249 0.930 . S
H268 C252 0.930 . S
H269 C253 0.931 . S
H270 C257 0.928 . S
H271 C256 0.929 . S
H272 C254 0.932 . S
C273 C274 1.386 . S
C273 C275 1.397 . S
C273 H297 0.931 . S
C274 C273 1.386 . S
C274 C278 1.397 . S
C275 C273 1.397 . S
C275 C276 1.384 . S
C275 H298 0.930 . S
C276 C275 1.384 . S
C276 C277 1.377 . S
C276 C279 1.481 . S
C277 C276 1.377 . S
C277 C278 1.389 . S
C277 H299 0.929 . S
C278 C274 1.397 . S
C278 C277 1.389 . S
C278 H300 0.931 . S
C279 C276 1.481 . S
C279 C280 1.387 . S
C279 C284 1.390 . S
C280 C279 1.387 . S
C280 C281 1.401 . S
C280 H301 0.930 . S
C281 C280 1.401 . S
C281 C282 1.376 . S
C281 C290 1.511 . S
C282 C281 1.376 . S
C282 C283 1.392 . S
C282 H303 0.931 . S
C283 C282 1.392 . S
C283 C284 1.361 . S
C283 C285 1.500 . S
C284 C279 1.390 . S
C284 C283 1.361 . S
C284 H302 0.931 . S
C285 C283 1.500 . S
C285 C286 1.371 . S
C285 C287 1.365 . S
C286 C285 1.371 . S
C286 C296 1.386 . S
C286 H304 0.931 . S
C287 C285 1.365 . S
C287 C288 1.409 . S
C287 H305 0.929 . S
C288 C287 1.409 . S
C288 C289 1.380 . S
C288 H306 0.930 . S
C289 C288 1.380 . S
C289 C296 1.357 . S
C290 C281 1.511 . S
C290 C291 1.341 . S
C290 C292 1.371 . S
C291 C290 1.341 . S
C291 C295 1.394 . S
C291 H307 0.930 . S
C292 C290 1.371 . S
C292 C293 1.392 . S
C292 H308 0.931 . S
C293 C292 1.392 . S
C293 C294 1.331 . S
C293 H311 0.932 . S
C294 C293 1.331 . S
C294 C295 1.336 . S
C295 C291 1.394 . S
C295 C294 1.336 . S
C295 H310 0.929 . S
C296 C286 1.386 . S
C296 C289 1.357 . S
C296 H309 0.928 . S
H297 C273 0.931 . S
H298 C275 0.930 . S
H299 C277 0.929 . S
H300 C278 0.931 . S
H301 C280 0.930 . S
H302 C284 0.931 . S
H303 C282 0.931 . S
H304 C286 0.931 . S
H305 C287 0.929 . S
H306 C288 0.930 . S
H307 C291 0.930 . S
H308 C292 0.931 . S
H309 C296 0.928 . S
H310 C295 0.929 . S
H311 C293 0.932 . S
Co312 N317 2.057 . S
Co312 O329 2.021 . S
Co312 O332 2.062 1_455 S
Co312 O336 2.117 1_455 S
Co312 O337 2.020 1_545 S
C313 O333 1.259 1_545 S
C313 O336 1.258 . S
Co314 N323 2.057 . S
Co314 O330 2.117 1_665 S
Co314 O331 2.020 1_565 S
Co314 O333 2.021 . S
Co314 O338 2.062 1_655 S
C315 N317 1.316 . S
C315 N318 1.347 . S
C315 H320 0.931 . S
C316 N317 1.375 1_655 S
C316 C319 1.350 . S
C316 H321 0.930 . S
N317 Co312 2.057 . S
N317 C315 1.316 . S
N317 C316 1.375 1_455 S
N318 C315 1.347 . S
N318 C319 1.373 1_455 S
C319 C316 1.350 . S
C319 N318 1.373 1_655 S
C319 H340 0.931 . S
H320 C315 0.931 . S
H321 C316 0.930 . S
C322 O329 1.259 . S
C322 O330 1.258 . S
N323 Co314 2.057 . S
N323 C324 1.316 . S
N323 C325 1.375 1_655 S
C324 N323 1.316 . S
C324 N326 1.347 . S
C324 H335 0.931 . S
C325 N323 1.375 1_455 S
C325 C327 1.350 . S
C325 H334 0.930 . S
N326 C324 1.347 . S
N326 C327 1.373 1_655 S
C327 C325 1.350 . S
C327 N326 1.373 1_455 S
C327 H341 0.931 . S
C328 O331 1.256 . S
C328 O332 1.255 . S
O329 Co312 2.021 . S
O329 C322 1.259 . S
O330 Co314 2.117 1_445 S
O330 C322 1.258 . S
O331 Co314 2.020 1_545 S
O331 C328 1.256 . S
O332 Co312 2.062 1_655 S
O332 C328 1.255 . S
O333 C313 1.259 1_565 S
O333 Co314 2.021 . S
H334 C325 0.930 . S
H335 C324 0.931 . S
O336 Co312 2.117 1_655 S
O336 C313 1.258 . S
O337 Co312 2.020 1_565 S
O337 C339 1.256 . S
O338 Co314 2.062 1_455 S
O338 C339 1.255 . S
C339 O337 1.256 . S
C339 O338 1.255 . S
H340 C319 0.931 . S
H341 C327 0.931 . S
Co342 N347 2.057 . S
Co342 O359 2.021 . S
Co342 O362 2.062 . S
Co342 O366 2.117 1_545 S
Co342 O367 2.020 . S
C343 O363 1.259 . S
C343 O366 1.258 . S
Co344 N353 2.053 1_545 S
Co344 O360 2.150 . S
Co344 O361 2.023 . S
Co344 O363 1.991 1_545 S
Co344 O368 2.063 1_545 S
C345 N347 1.316 . S
C345 N348 1.347 . S
C345 H350 0.931 . S
C346 N347 1.375 . S
C346 C349 1.350 . S
C346 H351 0.930 1_545 S
N347 Co342 2.057 . S
N347 C345 1.316 . S
N347 C346 1.375 . S
N348 C345 1.347 . S
N348 C349 1.373 . S
C349 C346 1.350 . S
C349 N348 1.373 . S
C349 H370 0.931 . S
H350 C345 0.931 . S
H351 C346 0.930 1_565 S
C352 O359 1.259 . S
C352 O360 1.258 . S
N353 Co344 2.053 1_565 S
N353 C354 1.316 . S
N353 C355 1.375 1_565 S
C354 N353 1.316 . S
C354 N356 1.347 . S
C354 H365 0.931 . S
C355 N353 1.375 1_545 S
C355 C357 1.350 . S
C355 H364 0.930 . S
N356 C354 1.347 . S
N356 C357 1.373 1_565 S
C357 C355 1.350 . S
C357 N356 1.373 1_545 S
C357 H371 0.931 . S
C358 O361 1.256 . S
C358 O362 1.255 . S
O359 Co342 2.021 . S
O359 C352 1.259 . S
O360 Co344 2.150 . S
O360 C352 1.258 . S
O361 Co344 2.023 . S
O361 C358 1.256 . S
O362 Co342 2.062 . S
O362 C358 1.255 . S
O363 C343 1.259 . S
O363 Co344 1.991 1_565 S
H364 C355 0.930 . S
H365 C354 0.931 . S
O366 Co342 2.117 1_565 S
O366 C343 1.258 . S
O367 Co342 2.020 . S
O367 C369 1.256 . S
O368 Co344 2.063 1_565 S
O368 C369 1.255 1_565 S
C369 O367 1.256 . S
C369 O368 1.255 1_545 S
H370 C349 0.931 . S
H371 C357 0.931 . S
Co372 N377 2.057 . S
Co372 O389 2.021 . S
Co372 O392 2.062 . S
Co372 O396 2.117 . S
Co372 O397 2.020 . S
C373 O393 1.259 . S
C373 O396 1.258 . S
Co374 N383 2.057 . S
Co374 O390 2.117 . S
Co374 O391 2.020 . S
Co374 O393 2.021 . S
Co374 O398 2.062 . S
C375 N377 1.316 . S
C375 N378 1.347 . S
C375 H380 0.931 . S
C376 N377 1.375 . S
C376 C379 1.350 . S
C376 H381 0.930 . S
N377 Co372 2.057 . S
N377 C375 1.316 . S
N377 C376 1.375 . S
N378 C375 1.347 . S
N378 C379 1.373 . S
C379 C376 1.350 . S
C379 N378 1.373 . S
C379 H400 0.931 . S
H380 C375 0.931 . S
H381 C376 0.930 . S
C382 O389 1.259 . S
C382 O390 1.258 . S
N383 Co374 2.057 . S
N383 C384 1.316 . S
N383 C385 1.375 . S
C384 N383 1.316 . S
C384 N386 1.347 . S
C384 H395 0.931 . S
C385 N383 1.375 . S
C385 C387 1.350 . S
C385 H394 0.930 . S
N386 C384 1.347 . S
N386 C387 1.373 . S
C387 C385 1.350 . S
C387 N386 1.373 . S
C387 H401 0.931 . S
C388 O391 1.256 . S
C388 O392 1.255 . S
O389 Co372 2.021 . S
O389 C382 1.259 . S
O390 Co374 2.117 . S
O390 C382 1.258 . S
O391 Co374 2.020 . S
O391 C388 1.256 . S
O392 Co372 2.062 . S
O392 C388 1.255 . S
O393 C373 1.259 . S
O393 Co374 2.021 . S
H394 C385 0.930 . S
H395 C384 0.931 . S
O396 Co372 2.117 . S
O396 C373 1.258 . S
O397 Co372 2.020 . S
O397 C399 1.256 . S
O398 Co374 2.062 . S
O398 C399 1.255 . S
C399 O397 1.256 . S
C399 O398 1.255 . S
H400 C379 0.931 . S
H401 C387 0.931 . S
Co402 N407 2.057 . S
Co402 O419 2.021 1_455 S
Co402 O422 2.062 1_455 S
Co402 O426 2.117 . S
Co402 O427 2.020 . S
C403 O423 1.259 . S
C403 O426 1.258 . S
Co404 N413 2.057 . S
Co404 O420 2.117 . S
Co404 O421 2.020 . S
Co404 O423 2.021 1_655 S
Co404 O428 2.062 1_655 S
C405 N407 1.316 . S
C405 N408 1.347 . S
C405 H410 0.931 1_455 S
C406 N407 1.375 . S
C406 C409 1.350 . S
C406 H411 0.930 . S
N407 Co402 2.057 . S
N407 C405 1.316 . S
N407 C406 1.375 . S
N408 C405 1.347 . S
N408 C409 1.373 . S
C409 C406 1.350 . S
C409 N408 1.373 . S
C409 H430 0.931 . S
H410 C405 0.931 1_655 S
H411 C406 0.930 . S
C412 O419 1.259 . S
C412 O420 1.258 . S
N413 Co404 2.057 . S
N413 C414 1.316 . S
N413 C415 1.375 . S
C414 N413 1.316 . S
C414 N416 1.347 . S
C414 H425 0.931 1_655 S
C415 N413 1.375 . S
C415 C417 1.350 . S
C415 H424 0.930 . S
N416 C414 1.347 . S
N416 C417 1.373 . S
C417 C415 1.350 . S
C417 N416 1.373 . S
C417 H431 0.931 . S
C418 O421 1.256 . S
C418 O422 1.255 . S
O419 Co402 2.021 1_655 S
O419 C412 1.259 . S
O420 Co404 2.117 . S
O420 C412 1.258 . S
O421 Co404 2.020 . S
O421 C418 1.256 . S
O422 Co402 2.062 1_655 S
O422 C418 1.255 . S
O423 C403 1.259 . S
O423 Co404 2.021 1_455 S
H424 C415 0.930 . S
H425 C414 0.931 1_455 S
O426 Co402 2.117 . S
O426 C403 1.258 . S
O427 Co402 2.020 . S
O427 C429 1.256 . S
O428 Co404 2.062 1_455 S
O428 C429 1.255 . S
C429 O427 1.256 . S
C429 O428 1.255 . S
H430 C409 0.931 . S
H431 C417 0.931 . S
H432 C450 0.951 . S
H433 C452 0.951 . S
H434 C454 0.950 . S
H435 C455 0.950 . S
H436 C457 0.950 . S
H437 C460 0.950 . S
H438 C461 0.950 . S
H439 C463 0.950 . S
H440 C464 0.950 . S
H441 C465 0.951 . S
H442 C467 0.951 . S
H443 C469 0.950 . S
H444 C470 0.950 . S
H445 C472 0.950 . S
H446 C475 0.961 . S
H447 C476 0.950 . S
H448 C478 0.950 . S
H449 C479 0.950 . S
C450 H432 0.951 . S
C450 C451 1.366 . S
C450 C452 1.388 . S
C451 C450 1.366 . S
C451 C455 1.385 . S
C452 H433 0.951 . S
C452 C450 1.388 . S
C452 C453 1.366 . S
C453 C452 1.366 . S
C453 C454 1.414 . S
C453 C456 1.499 . S
C454 H434 0.950 . S
C454 C453 1.414 . S
C454 C455 1.374 . S
C455 H435 0.950 . S
C455 C451 1.385 . S
C455 C454 1.374 . S
C456 C453 1.499 . S
C456 C457 1.373 . S
C456 C458 1.389 . S
C457 H436 0.950 . S
C457 C456 1.373 . S
C457 C473 1.377 . S
C458 C456 1.389 . S
C458 C459 1.524 . S
C458 C472 1.377 . S
C459 C458 1.524 . S
C459 C460 1.397 . S
C459 C464 1.363 . S
C460 H437 0.950 . S
C460 C459 1.397 . S
C460 C461 1.334 . S
C461 H438 0.950 . S
C461 C460 1.334 . S
C461 C462 1.287 . S
C462 C461 1.287 . S
C462 C463 1.524 . S
C462 H481 0.913 . S
C463 H439 0.950 . S
C463 C462 1.524 . S
C463 C464 1.415 . S
C464 H440 0.950 . S
C464 C459 1.363 . S
C464 C463 1.415 . S
C465 H441 0.951 . S
C465 C466 1.366 . S
C465 C467 1.388 . S
C466 C465 1.366 . S
C466 C470 1.385 . S
C467 H442 0.951 . S
C467 C465 1.388 . S
C467 C468 1.366 . S
C468 C467 1.366 . S
C468 C469 1.414 . S
C468 C471 1.499 . S
C469 H443 0.950 . S
C469 C468 1.414 . S
C469 C470 1.374 . S
C470 H444 0.950 . S
C470 C466 1.385 . S
C470 C469 1.374 . S
C471 C468 1.499 . S
C471 C472 1.373 . S
C471 C473 1.389 . S
C472 H445 0.950 . S
C472 C458 1.377 . S
C472 C471 1.373 . S
C473 C457 1.377 . S
C473 C471 1.389 . S
C473 C474 1.524 . S
C474 C473 1.524 . S
C474 C475 1.397 . S
C474 C479 1.363 . S
C475 H446 0.961 . S
C475 C474 1.397 . S
C475 C476 1.334 1_545 S
C476 H447 0.950 . S
C476 C475 1.334 1_565 S
C476 C477 1.287 . S
C477 C476 1.287 . S
C477 C478 1.524 1_565 S
C477 H480 0.999 . S
C478 H448 0.950 . S
C478 C477 1.524 1_545 S
C478 C479 1.415 . S
C479 H449 0.950 . S
C479 C474 1.363 . S
C479 C478 1.415 . S
H480 C477 0.999 . S
H481 C462 0.913 . S
H482 C500 0.951 . S
H483 C502 0.951 . S
H484 C504 0.950 . S
H485 C505 0.950 . S
H486 C507 0.950 . S
H487 C510 0.950 . S
H488 C511 0.950 . S
H489 C513 0.950 . S
H490 C514 0.950 . S
H491 C515 0.951 . S
H492 C517 0.951 . S
H493 C519 0.950 . S
H494 C520 0.950 . S
H495 C522 0.950 . S
H496 C525 0.950 . S
H497 C526 0.950 . S
H498 C528 0.950 . S
H499 C529 0.950 . S
C500 H482 0.951 . S
C500 C501 1.366 . S
C500 C502 1.388 . S
C501 C500 1.366 . S
C501 C505 1.385 . S
C502 H483 0.951 . S
C502 C500 1.388 . S
C502 C503 1.366 . S
C503 C502 1.366 . S
C503 C504 1.414 . S
C503 C506 1.499 . S
C504 H484 0.950 . S
C504 C503 1.414 . S
C504 C505 1.374 . S
C505 H485 0.950 . S
C505 C501 1.385 . S
C505 C504 1.374 . S
C506 C503 1.499 . S
C506 C507 1.373 . S
C506 C508 1.389 . S
C507 H486 0.950 . S
C507 C506 1.373 . S
C507 C523 1.377 . S
C508 C506 1.389 . S
C508 C509 1.524 . S
C508 C522 1.377 . S
C509 C508 1.524 . S
C509 C510 1.397 . S
C509 C514 1.363 . S
C510 H487 0.950 . S
C510 C509 1.397 . S
C510 C511 1.334 . S
C511 H488 0.950 . S
C511 C510 1.334 . S
C511 C512 1.287 . S
C512 C511 1.287 . S
C512 C513 1.524 . S
C512 H531 0.913 . S
C513 H489 0.950 . S
C513 C512 1.524 . S
C513 C514 1.415 . S
C514 H490 0.950 . S
C514 C509 1.363 . S
C514 C513 1.415 . S
C515 H491 0.951 . S
C515 C516 1.366 . S
C515 C517 1.388 . S
C516 C515 1.366 . S
C516 C520 1.385 . S
C517 H492 0.951 . S
C517 C515 1.388 . S
C517 C518 1.366 . S
C518 C517 1.366 . S
C518 C519 1.414 . S
C518 C521 1.499 . S
C519 H493 0.950 . S
C519 C518 1.414 . S
C519 C520 1.374 . S
C520 H494 0.950 . S
C520 C516 1.385 . S
C520 C519 1.374 . S
C521 C518 1.499 . S
C521 C522 1.373 . S
C521 C523 1.389 . S
C522 H495 0.950 . S
C522 C508 1.377 . S
C522 C521 1.373 . S
C523 C507 1.377 . S
C523 C521 1.389 . S
C523 C524 1.524 . S
C524 C523 1.524 . S
C524 C525 1.397 . S
C524 C529 1.363 . S
C525 H496 0.950 . S
C525 C524 1.397 . S
C525 C526 1.334 . S
C526 H497 0.950 . S
C526 C525 1.334 . S
C526 C527 1.287 . S
C527 C526 1.287 . S
C527 C528 1.524 . S
C527 H530 0.999 . S
C528 H498 0.950 . S
C528 C527 1.524 . S
C528 C529 1.415 . S
C529 H499 0.950 . S
C529 C524 1.363 . S
C529 C528 1.415 . S
H530 C527 0.999 . S
H531 C512 0.913 . S
H532 C550 0.951 . S
H533 C552 0.951 . S
H534 C554 0.950 . S
H535 C555 0.950 . S
H536 C557 0.950 . S
H537 C560 0.950 . S
H538 C561 0.950 . S
H539 C563 0.950 . S
H540 C564 0.950 . S
H541 C565 0.951 . S
H542 C567 0.951 . S
H543 C569 0.950 . S
H544 C570 0.950 . S
H545 C572 0.950 . S
H546 C575 0.950 . S
H547 C576 0.950 . S
H548 C578 0.950 . S
H549 C579 0.950 . S
C550 H532 0.951 . S
C550 C551 1.366 . S
C550 C552 1.388 . S
C551 C550 1.366 . S
C551 C555 1.385 . S
C552 H533 0.951 . S
C552 C550 1.388 . S
C552 C553 1.366 . S
C553 C552 1.366 . S
C553 C554 1.414 . S
C553 C556 1.499 . S
C554 H534 0.950 . S
C554 C553 1.414 . S
C554 C555 1.374 . S
C555 H535 0.950 . S
C555 C551 1.385 . S
C555 C554 1.374 . S
C556 C553 1.499 . S
C556 C557 1.373 . S
C556 C558 1.389 . S
C557 H536 0.950 . S
C557 C556 1.373 . S
C557 C573 1.377 . S
C558 C556 1.389 . S
C558 C559 1.524 . S
C558 C572 1.377 . S
C559 C558 1.524 . S
C559 C560 1.397 . S
C559 C564 1.363 . S
C560 H537 0.950 . S
C560 C559 1.397 . S
C560 C561 1.334 . S
C561 H538 0.950 . S
C561 C560 1.334 . S
C561 C562 1.287 . S
C562 C561 1.287 . S
C562 C563 1.524 . S
C562 H581 0.913 . S
C563 H539 0.950 . S
C563 C562 1.524 . S
C563 C564 1.415 . S
C564 H540 0.950 . S
C564 C559 1.363 . S
C564 C563 1.415 . S
C565 H541 0.951 . S
C565 C566 1.366 . S
C565 C567 1.388 . S
C566 C565 1.366 . S
C566 C570 1.385 . S
C567 H542 0.951 . S
C567 C565 1.388 . S
C567 C568 1.366 . S
C568 C567 1.366 . S
C568 C569 1.414 . S
C568 C571 1.499 . S
C569 H543 0.950 . S
C569 C568 1.414 . S
C569 C570 1.374 . S
C570 H544 0.950 . S
C570 C566 1.385 . S
C570 C569 1.374 . S
C571 C568 1.499 . S
C571 C572 1.373 . S
C571 C573 1.389 . S
C572 H545 0.950 . S
C572 C558 1.377 . S
C572 C571 1.373 . S
C573 C557 1.377 . S
C573 C571 1.389 . S
C573 C574 1.524 . S
C574 C573 1.524 . S
C574 C575 1.397 . S
C574 C579 1.363 . S
C575 H546 0.950 . S
C575 C574 1.397 . S
C575 C576 1.334 . S
C576 H547 0.950 . S
C576 C575 1.334 . S
C576 C577 1.287 . S
C577 C576 1.287 . S
C577 C578 1.524 . S
C577 H580 0.999 . S
C578 H548 0.950 . S
C578 C577 1.524 . S
C578 C579 1.415 . S
C579 H549 0.950 . S
C579 C574 1.363 . S
C579 C578 1.415 . S
H580 C577 0.999 . S
H581 C562 0.913 . S
H582 C600 0.951 . S
H583 C602 0.951 . S
H584 C604 0.950 . S
H585 C605 0.950 . S
H586 C607 0.950 . S
H587 C610 0.950 . S
H588 C611 0.950 . S
H589 C613 0.950 . S
H590 C614 0.950 . S
H591 C615 0.951 . S
H592 C617 0.951 . S
H593 C619 0.950 . S
H594 C620 0.950 . S
H595 C622 0.950 1_455 S
H596 C625 0.901 1_455 S
H597 C626 0.950 1_455 S
H598 C628 0.950 . S
H599 C629 0.950 . S
C600 H582 0.951 . S
C600 C601 1.350 1_455 S
C600 C602 1.388 . S
C601 C600 1.350 1_655 S
C601 C605 1.401 . S
C602 H583 0.951 . S
C602 C600 1.388 . S
C602 C603 1.366 1_455 S
C603 C602 1.366 1_655 S
C603 C604 1.414 . S
C603 C606 1.499 . S
C604 H584 0.950 . S
C604 C603 1.414 . S
C604 C605 1.374 . S
C605 H585 0.950 . S
C605 C601 1.401 . S
C605 C604 1.374 . S
C606 C603 1.499 . S
C606 C607 1.373 . S
C606 C608 1.389 . S
C607 H586 0.950 . S
C607 C606 1.373 . S
C607 C623 1.377 . S
C608 C606 1.389 . S
C608 C609 1.524 1_655 S
C608 C622 1.377 . S
C609 C608 1.524 1_455 S
C609 C610 1.397 1_455 S
C609 C614 1.363 . S
C610 H587 0.950 . S
C610 C609 1.397 1_655 S
C610 C611 1.334 . S
C611 H588 0.950 . S
C611 C610 1.334 . S
C611 C612 1.287 1_655 S
C612 C611 1.287 1_455 S
C612 C613 1.524 . S
C612 H631 0.913 . S
C613 H589 0.950 . S
C613 C612 1.524 . S
C613 C614 1.415 . S
C614 H590 0.950 . S
C614 C609 1.363 . S
C614 C613 1.415 . S
C615 H591 0.951 . S
C615 C616 1.366 . S
C615 C617 1.388 . S
C616 C615 1.366 . S
C616 C620 1.385 1_655 S
C617 H592 0.951 . S
C617 C615 1.388 . S
C617 C618 1.366 . S
C618 C617 1.366 . S
C618 C619 1.414 1_655 S
C618 C621 1.499 . S
C619 H593 0.950 . S
C619 C618 1.414 1_455 S
C619 C620 1.374 . S
C620 H594 0.950 . S
C620 C616 1.385 1_455 S
C620 C619 1.374 . S
C621 C618 1.499 . S
C621 C622 1.374 . S
C621 C623 1.389 . S
C622 H595 0.950 1_655 S
C622 C608 1.377 . S
C622 C621 1.374 . S
C623 C607 1.377 . S
C623 C621 1.389 . S
C623 C624 1.524 . S
C624 C623 1.524 . S
C624 C625 1.442 . S
C624 C629 1.363 . S
C625 H596 0.901 1_655 S
C625 C624 1.442 . S
C625 C626 1.340 . S
C626 H597 0.950 1_655 S
C626 C625 1.340 . S
C626 C627 1.287 . S
C627 C626 1.287 . S
C627 C628 1.524 . S
C627 H630 0.999 . S
C628 H598 0.950 . S
C628 C627 1.524 . S
C628 C629 1.415 . S
C629 H599 0.950 . S
C629 C624 1.363 . S
C629 C628 1.415 . S
H630 C627 0.999 . S
H631 C612 0.913 . S
H632 C650 0.951 . S
H633 C652 0.951 . S
H634 C654 0.950 . S
H635 C655 0.950 . S
H636 C657 0.950 . S
H637 C660 0.950 . S
H638 C661 0.950 . S
H639 C663 0.950 . S
H640 C664 0.950 . S
H641 C665 0.951 . S
H642 C667 0.958 . S
H643 C669 0.950 . S
H644 C670 0.950 . S
H645 C672 0.950 . S
H646 C675 0.950 . S
H647 C676 0.950 . S
H648 C678 0.950 . S
H649 C679 0.950 1_545 S
C650 H632 0.951 . S
C650 C651 1.366 . S
C650 C652 1.388 . S
C651 C650 1.366 . S
C651 C655 1.385 . S
C652 H633 0.951 . S
C652 C650 1.388 . S
C652 C653 1.366 1_554 S
C653 C652 1.366 1_556 S
C653 C654 1.414 . S
C653 C656 1.499 . S
C654 H634 0.950 . S
C654 C653 1.414 . S
C654 C655 1.374 1_556 S
C655 H635 0.950 . S
C655 C651 1.385 . S
C655 C654 1.374 1_554 S
C656 C653 1.499 . S
C656 C657 1.373 . S
C656 C658 1.389 . S
C657 H636 0.950 . S
C657 C656 1.373 . S
C657 C673 1.377 . S
C658 C656 1.389 . S
C658 C659 1.524 1_556 S
C658 C672 1.377 . S
C659 C658 1.524 1_554 S
C659 C660 1.397 . S
C659 C664 1.363 . S
C660 H637 0.950 . S
C660 C659 1.397 . S
C660 C661 1.334 . S
C661 H638 0.950 . S
C661 C660 1.334 . S
C661 C662 1.287 . S
C662 C661 1.287 . S
C662 C663 1.524 . S
C662 H681 0.913 . S
C663 H639 0.950 . S
C663 C662 1.524 . S
C663 C664 1.415 . S
C664 H640 0.950 . S
C664 C659 1.363 . S
C664 C663 1.415 . S
C665 H641 0.951 . S
C665 C666 1.366 1_545 S
C665 C667 1.393 . S
C666 C665 1.366 1_565 S
C666 C670 1.385 . S
C667 H642 0.958 . S
C667 C665 1.393 . S
C667 C668 1.353 1_545 S
C668 C667 1.353 1_565 S
C668 C669 1.414 . S
C668 C671 1.499 . S
C669 H643 0.950 . S
C669 C668 1.414 . S
C669 C670 1.374 . S
C670 H644 0.950 . S
C670 C666 1.385 . S
C670 C669 1.374 . S
C671 C668 1.499 . S
C671 C672 1.373 . S
C671 C673 1.389 . S
C672 H645 0.950 . S
C672 C658 1.377 . S
C672 C671 1.373 . S
C673 C657 1.377 . S
C673 C671 1.389 . S
C673 C674 1.524 . S
C674 C673 1.524 . S
C674 C675 1.397 . S
C674 C679 1.363 . S
C675 H646 0.950 . S
C675 C674 1.397 . S
C675 C676 1.334 . S
C676 H647 0.950 . S
C676 C675 1.334 . S
C676 C677 1.287 . S
C677 C676 1.287 . S
C677 C678 1.524 1_565 S
C677 H680 0.999 . S
C678 H648 0.950 . S
C678 C677 1.524 1_545 S
C678 C679 1.415 1_545 S
C679 H649 0.950 1_565 S
C679 C674 1.363 . S
C679 C678 1.415 1_565 S
H680 C677 0.999 . S
H681 C662 0.913 . S
H682 C700 0.951 . S
H683 C702 0.951 . S
H684 C704 0.950 . S
H685 C705 0.950 . S
H686 C707 0.950 1_554 S
H687 C710 0.950 . S
H688 C711 0.950 . S
H689 C713 0.950 . S
H690 C714 0.950 . S
H691 C715 0.951 . S
H692 C717 0.951 . S
H693 C719 0.950 . S
H694 C720 0.950 . S
H695 C722 0.950 . S
H696 C725 0.950 . S
H697 C726 0.950 . S
H698 C728 0.950 . S
H699 C729 0.950 . S
C700 H682 0.951 . S
C700 C701 1.366 . S
C700 C702 1.388 1_554 S
C701 C700 1.366 . S
C701 C705 1.385 . S
C702 H683 0.951 . S
C702 C700 1.388 1_556 S
C702 C703 1.366 . S
C703 C702 1.366 . S
C703 C704 1.414 1_556 S
C703 C706 1.499 . S
C704 H684 0.950 . S
C704 C703 1.414 1_554 S
C704 C705 1.374 . S
C705 H685 0.950 . S
C705 C701 1.385 . S
C705 C704 1.374 . S
C706 C703 1.499 . S
C706 C707 1.373 . S
C706 C708 1.389 . S
C707 H686 0.950 1_556 S
C707 C706 1.373 . S
C707 C723 1.377 . S
C708 C706 1.389 . S
C708 C709 1.524 . S
C708 C722 1.377 . S
C709 C708 1.524 . S
C709 C710 1.397 . S
C709 C714 1.363 . S
C710 H687 0.950 . S
C710 C709 1.397 . S
C710 C711 1.334 . S
C711 H688 0.950 . S
C711 C710 1.334 . S
C711 C712 1.287 . S
C712 C711 1.287 . S
C712 C713 1.524 . S
C712 H731 0.913 . S
C713 H689 0.950 . S
C713 C712 1.524 . S
C713 C714 1.415 . S
C714 H690 0.950 . S
C714 C709 1.363 . S
C714 C713 1.415 . S
C715 H691 0.951 . S
C715 C716 1.366 . S
C715 C717 1.388 . S
C716 C715 1.366 . S
C716 C720 1.385 . S
C717 H692 0.951 . S
C717 C715 1.388 . S
C717 C718 1.366 . S
C718 C717 1.366 . S
C718 C719 1.414 . S
C718 C721 1.499 . S
C719 H693 0.950 . S
C719 C718 1.414 . S
C719 C720 1.374 . S
C720 H694 0.950 . S
C720 C716 1.385 . S
C720 C719 1.374 . S
C721 C718 1.499 . S
C721 C722 1.373 . S
C721 C723 1.389 . S
C722 H695 0.950 . S
C722 C708 1.377 . S
C722 C721 1.373 . S
C723 C707 1.377 . S
C723 C721 1.389 . S
C723 C724 1.524 . S
C724 C723 1.524 . S
C724 C725 1.397 . S
C724 C729 1.363 1_556 S
C725 H696 0.950 . S
C725 C724 1.397 . S
C725 C726 1.334 . S
C726 H697 0.950 . S
C726 C725 1.334 . S
C726 C727 1.287 1_556 S
C727 C726 1.287 1_554 S
C727 C728 1.524 . S
C727 H730 0.999 . S
C728 H698 0.950 . S
C728 C727 1.524 . S
C728 C729 1.415 . S
C729 H699 0.950 . S
C729 C724 1.363 1_554 S
C729 C728 1.415 . S
H730 C727 0.999 . S
H731 C712 0.913 . S
H732 C750 0.951 . S
H733 C752 0.951 . S
H734 C754 0.950 . S
H735 C755 0.950 1_556 S
H736 C757 0.950 . S
H737 C760 0.951 1_556 S
H738 C761 0.950 . S
H739 C763 0.950 . S
H740 C764 0.950 . S
H741 C765 0.951 . S
H742 C767 0.951 . S
H743 C769 0.950 . S
H744 C770 0.950 . S
H745 C772 0.950 . S
H746 C775 0.950 . S
H747 C776 0.950 . S
H748 C778 0.950 . S
H749 C779 0.950 . S
C750 H732 0.951 . S
C750 C751 1.366 . S
C750 C752 1.388 . S
C751 C750 1.366 . S
C751 C755 1.385 . S
C752 H733 0.951 . S
C752 C750 1.388 . S
C752 C753 1.366 . S
C753 C752 1.366 . S
C753 C754 1.414 1_554 S
C753 C756 1.499 1_554 S
C754 H734 0.950 . S
C754 C753 1.414 1_556 S
C754 C755 1.374 1_556 S
C755 H735 0.950 1_554 S
C755 C751 1.385 . S
C755 C754 1.374 1_554 S
C756 C753 1.499 1_556 S
C756 C757 1.373 . S
C756 C758 1.389 . S
C757 H736 0.950 . S
C757 C756 1.373 . S
C757 C773 1.377 . S
C758 C756 1.389 . S
C758 C759 1.524 1_556 S
C758 C772 1.377 . S
C759 C758 1.524 1_554 S
C759 C760 1.397 . S
C759 C764 1.363 . S
C760 H737 0.951 1_554 S
C760 C759 1.397 . S
C760 C761 1.334 . S
C761 H738 0.950 . S
C761 C760 1.334 . S
C761 C762 1.287 . S
C762 C761 1.287 . S
C762 C763 1.524 . S
C762 H781 0.913 . S
C763 H739 0.950 . S
C763 C762 1.524 . S
C763 C764 1.415 . S
C764 H740 0.950 . S
C764 C759 1.363 . S
C764 C763 1.415 . S
C765 H741 0.951 . S
C765 C766 1.366 . S
C765 C767 1.388 . S
C766 C765 1.366 . S
C766 C770 1.385 . S
C767 H742 0.951 . S
C767 C765 1.388 . S
C767 C768 1.366 . S
C768 C767 1.366 . S
C768 C769 1.414 . S
C768 C771 1.499 . S
C769 H743 0.950 . S
C769 C768 1.414 . S
C769 C770 1.374 . S
C770 H744 0.950 . S
C770 C766 1.385 . S
C770 C769 1.374 . S
C771 C768 1.499 . S
C771 C772 1.373 . S
C771 C773 1.389 . S
C772 H745 0.950 . S
C772 C758 1.377 . S
C772 C771 1.373 . S
C773 C757 1.377 . S
C773 C771 1.389 . S
C773 C774 1.524 . S
C774 C773 1.524 . S
C774 C775 1.397 . S
C774 C779 1.363 . S
C775 H746 0.950 . S
C775 C774 1.397 . S
C775 C776 1.334 . S
C776 H747 0.950 . S
C776 C775 1.334 . S
C776 C777 1.287 . S
C777 C776 1.287 . S
C777 C778 1.524 . S
C777 H780 0.999 . S
C778 H748 0.950 . S
C778 C777 1.524 . S
C778 C779 1.415 . S
C779 H749 0.950 . S
C779 C774 1.363 . S
C779 C778 1.415 . S
H780 C777 0.999 . S
H781 C762 0.913 . S
H782 C800 0.951 . S
H783 C802 0.951 . S
H784 C804 0.950 1_556 S
H785 C805 0.950 . S
H786 C807 0.967 . S
H787 C810 0.950 . S
H788 C811 0.950 . S
H789 C813 0.950 . S
H790 C814 0.950 . S
H791 C815 0.951 . S
H792 C817 0.951 . S
H793 C819 0.955 . S
H794 C820 0.950 1_655 S
H795 C822 0.950 . S
H796 C825 0.950 . S
H797 C826 0.950 . S
H798 C828 0.950 . S
H799 C829 0.950 1_455 S
C800 H782 0.951 . S
C800 C801 1.358 1_655 S
C800 C802 1.388 . S
C801 C800 1.358 1_455 S
C801 C805 1.393 . S
C802 H783 0.951 . S
C802 C800 1.388 . S
C802 C803 1.366 1_655 S
C803 C802 1.366 1_455 S
C803 C804 1.414 . S
C803 C806 1.499 1_554 S
C804 H784 0.950 1_554 S
C804 C803 1.414 . S
C804 C805 1.374 . S
C805 H785 0.950 . S
C805 C801 1.393 . S
C805 C804 1.374 . S
C806 C803 1.499 1_556 S
C806 C807 1.357 1_455 S
C806 C808 1.389 . S
C807 H786 0.967 . S
C807 C806 1.357 1_655 S
C807 C823 1.381 . S
C808 C806 1.389 . S
C808 C809 1.524 1_556 S
C808 C822 1.377 . S
C809 C808 1.524 1_554 S
C809 C810 1.397 . S
C809 C814 1.363 . S
C810 H787 0.950 . S
C810 C809 1.397 . S
C810 C811 1.334 . S
C811 H788 0.950 . S
C811 C810 1.334 . S
C811 C812 1.287 . S
C812 C811 1.287 . S
C812 C813 1.524 . S
C812 H831 0.913 . S
C813 H789 0.950 . S
C813 C812 1.524 . S
C813 C814 1.415 . S
C814 H790 0.950 . S
C814 C809 1.363 . S
C814 C813 1.415 . S
C815 H791 0.951 . S
C815 C816 1.366 . S
C815 C817 1.388 . S
C816 C815 1.366 . S
C816 C820 1.385 . S
C817 H792 0.951 . S
C817 C815 1.388 . S
C817 C818 1.366 . S
C818 C817 1.366 . S
C818 C819 1.410 1_455 S
C818 C821 1.499 . S
C819 H793 0.955 . S
C819 C818 1.410 1_655 S
C819 C820 1.373 1_655 S
C820 H794 0.950 1_455 S
C820 C816 1.385 . S
C820 C819 1.373 1_455 S
C821 C818 1.499 . S
C821 C822 1.373 . S
C821 C823 1.389 1_455 S
C822 H795 0.950 . S
C822 C808 1.377 . S
C822 C821 1.373 . S
C823 C807 1.381 . S
C823 C821 1.389 1_655 S
C823 C824 1.524 . S
C824 C823 1.524 . S
C824 C825 1.397 . S
C824 C829 1.363 . S
C825 H796 0.950 . S
C825 C824 1.397 . S
C825 C826 1.334 . S
C826 H797 0.950 . S
C826 C825 1.334 . S
C826 C827 1.287 . S
C827 C826 1.287 . S
C827 C828 1.524 . S
C827 H830 0.999 . S
C828 H798 0.950 . S
C828 C827 1.524 . S
C828 C829 1.415 . S
C829 H799 0.950 1_655 S
C829 C824 1.363 . S
C829 C828 1.415 . S
H830 C827 0.999 . S
H831 C812 0.913 . S
H832 C850 0.951 . S
H833 C852 0.951 . S
H834 C854 0.950 . S
H835 C855 0.950 . S
H836 C857 0.950 . S
H837 C860 0.950 . S
H838 C861 0.950 . S
H839 C863 0.950 . S
H840 C864 0.950 . S
H841 C865 0.951 1_455 S
H842 C867 0.930 1_455 S
H843 C869 0.950 . S
H844 C870 0.950 . S
H845 C872 0.950 . S
H846 C875 0.950 . S
H847 C876 0.950 . S
H848 C878 0.950 . S
H849 C879 0.950 . S
C850 H832 0.951 . S
C850 C851 1.366 1_655 S
C850 C852 1.388 . S
C851 C850 1.366 1_455 S
C851 C855 1.385 . S
C852 H833 0.951 . S
C852 C850 1.388 . S
C852 C853 1.366 . S
C853 C852 1.366 . S
C853 C854 1.414 1_655 S
C853 C856 1.499 . S
C854 H834 0.950 . S
C854 C853 1.414 1_455 S
C854 C855 1.374 . S
C855 H835 0.950 . S
C855 C851 1.385 . S
C855 C854 1.374 . S
C856 C853 1.499 . S
C856 C857 1.373 1_655 S
C856 C858 1.389 . S
C857 H836 0.950 . S
C857 C856 1.373 1_455 S
C857 C873 1.377 . S
C858 C856 1.389 . S
C858 C859 1.524 . S
C858 C872 1.377 . S
C859 C858 1.524 . S
C859 C860 1.397 . S
C859 C864 1.363 . S
C860 H837 0.950 . S
C860 C859 1.397 . S
C860 C861 1.334 . S
C861 H838 0.950 . S
C861 C860 1.334 . S
C861 C862 1.287 . S
C862 C861 1.287 . S
C862 C863 1.524 . S
C862 H881 0.913 . S
C863 H839 0.950 . S
C863 C862 1.524 . S
C863 C864 1.415 . S
C864 H840 0.950 . S
C864 C859 1.363 . S
C864 C863 1.415 . S
C865 H841 0.951 1_655 S
C865 C866 1.366 . S
C865 C867 1.395 . S
C866 C865 1.366 . S
C866 C870 1.385 . S
C867 H842 0.930 1_655 S
C867 C865 1.395 . S
C867 C868 1.380 . S
C868 C867 1.380 . S
C868 C869 1.414 . S
C868 C871 1.499 . S
C869 H843 0.950 . S
C869 C868 1.414 . S
C869 C870 1.374 . S
C870 H844 0.950 . S
C870 C866 1.385 . S
C870 C869 1.374 . S
C871 C868 1.499 . S
C871 C872 1.373 . S
C871 C873 1.389 1_655 S
C872 H845 0.950 . S
C872 C858 1.377 . S
C872 C871 1.373 . S
C873 C857 1.377 . S
C873 C871 1.389 1_455 S
C873 C874 1.524 . S
C874 C873 1.524 . S
C874 C875 1.397 . S
C874 C879 1.363 . S
C875 H846 0.950 . S
C875 C874 1.397 . S
C875 C876 1.334 . S
C876 H847 0.950 . S
C876 C875 1.334 . S
C876 C877 1.287 . S
C877 C876 1.287 . S
C877 C878 1.524 . S
C877 H880 0.999 . S
C878 H848 0.950 . S
C878 C877 1.524 . S
C878 C879 1.415 . S
C879 H849 0.950 . S
C879 C874 1.363 . S
C879 C878 1.415 . S
H880 C877 0.999 . S
H881 C862 0.913 . S
H882 C900 0.951 . S
H883 C902 0.951 . S
H884 C904 0.950 . S
H885 C905 0.950 . S
H886 C907 0.950 . S
H887 C910 0.950 . S
H888 C911 0.950 . S
H889 C913 0.950 . S
H890 C914 0.950 . S
H891 C915 0.951 . S
H892 C917 0.951 . S
H893 C919 0.950 . S
H894 C920 0.966 . S
H895 C922 0.950 . S
H896 C925 0.950 . S
H897 C926 0.950 . S
H898 C928 0.950 . S
H899 C929 0.950 . S
C900 H882 0.951 . S
C900 C901 1.366 . S
C900 C902 1.388 . S
C901 C900 1.366 . S
C901 C905 1.385 . S
C902 H883 0.951 . S
C902 C900 1.388 . S
C902 C903 1.366 . S
C903 C902 1.366 . S
C903 C904 1.414 . S
C903 C906 1.499 . S
C904 H884 0.950 . S
C904 C903 1.414 . S
C904 C905 1.374 . S
C905 H885 0.950 . S
C905 C901 1.385 . S
C905 C904 1.374 . S
C906 C903 1.499 . S
C906 C907 1.373 . S
C906 C908 1.389 . S
C907 H886 0.950 . S
C907 C906 1.373 . S
C907 C923 1.377 . S
C908 C906 1.389 . S
C908 C909 1.524 . S
C908 C922 1.377 . S
C909 C908 1.524 . S
C909 C910 1.397 . S
C909 C914 1.363 . S
C910 H887 0.950 . S
C910 C909 1.397 . S
C910 C911 1.334 . S
C911 H888 0.950 . S
C911 C910 1.334 . S
C911 C912 1.287 . S
C912 C911 1.287 . S
C912 C913 1.524 . S
C912 H931 0.913 . S
C913 H889 0.950 . S
C913 C912 1.524 . S
C913 C914 1.415 . S
C914 H890 0.950 . S
C914 C909 1.363 . S
C914 C913 1.415 . S
C915 H891 0.951 . S
C915 C916 1.366 . S
C915 C917 1.388 . S
C916 C915 1.366 . S
C916 C920 1.385 . S
C917 H892 0.951 . S
C917 C915 1.388 . S
C917 C918 1.366 . S
C918 C917 1.366 . S
C918 C919 1.414 . S
C918 C921 1.499 . S
C919 H893 0.950 . S
C919 C918 1.414 . S
C919 C920 1.374 . S
C920 H894 0.966 . S
C920 C916 1.385 . S
C920 C919 1.374 . S
C921 C918 1.499 . S
C921 C922 1.373 . S
C921 C923 1.389 . S
C922 H895 0.950 . S
C922 C908 1.377 . S
C922 C921 1.373 . S
C923 C907 1.377 . S
C923 C921 1.389 . S
C923 C924 1.524 . S
C924 C923 1.524 . S
C924 C925 1.397 . S
C924 C929 1.363 . S
C925 H896 0.950 . S
C925 C924 1.397 . S
C925 C926 1.334 1_545 S
C926 H897 0.950 . S
C926 C925 1.334 1_565 S
C926 C927 1.299 . S
C927 C926 1.299 . S
C927 C928 1.480 1_565 S
C927 H930 1.032 . S
C928 H898 0.950 . S
C928 C927 1.480 1_545 S
C928 C929 1.415 . S
C929 H899 0.950 . S
C929 C924 1.363 . S
C929 C928 1.415 . S
H930 C927 1.032 . S
H931 C912 0.913 . S
H932 C950 0.951 . S
H933 C952 0.951 . S
H934 C954 0.950 . S
H935 C955 0.950 . S
H936 C957 0.950 . S
H937 C960 0.950 . S
H938 C961 0.950 . S
H939 C963 0.950 . S
H940 C964 0.950 . S
H941 C965 0.951 . S
H942 C967 0.951 . S
H943 C969 0.950 . S
H944 C970 0.950 . S
H945 C972 0.950 . S
H946 C975 0.950 . S
H947 C976 0.950 . S
H948 C978 0.950 . S
H949 C979 0.950 . S
C950 H932 0.951 . S
C950 C951 1.366 . S
C950 C952 1.388 . S
C951 C950 1.366 . S
C951 C955 1.385 . S
C952 H933 0.951 . S
C952 C950 1.388 . S
C952 C953 1.366 . S
C953 C952 1.366 . S
C953 C954 1.414 . S
C953 C956 1.499 . S
C954 H934 0.950 . S
C954 C953 1.414 . S
C954 C955 1.374 . S
C955 H935 0.950 . S
C955 C951 1.385 . S
C955 C954 1.374 . S
C956 C953 1.499 . S
C956 C957 1.373 . S
C956 C958 1.389 . S
C957 H936 0.950 . S
C957 C956 1.373 . S
C957 C973 1.377 . S
C958 C956 1.389 . S
C958 C959 1.524 . S
C958 C972 1.377 . S
C959 C958 1.524 . S
C959 C960 1.397 . S
C959 C964 1.363 . S
C960 H937 0.950 . S
C960 C959 1.397 . S
C960 C961 1.334 . S
C961 H938 0.950 . S
C961 C960 1.334 . S
C961 C962 1.287 . S
C962 C961 1.287 . S
C962 C963 1.524 . S
C962 H981 0.913 . S
C963 H939 0.950 . S
C963 C962 1.524 . S
C963 C964 1.415 . S
C964 H940 0.950 . S
C964 C959 1.363 . S
C964 C963 1.415 . S
C965 H941 0.951 . S
C965 C966 1.366 . S
C965 C967 1.388 . S
C966 C965 1.366 . S
C966 C970 1.385 . S
C967 H942 0.951 . S
C967 C965 1.388 . S
C967 C968 1.366 . S
C968 C967 1.366 . S
C968 C969 1.414 . S
C968 C971 1.499 . S
C969 H943 0.950 . S
C969 C968 1.414 . S
C969 C970 1.374 . S
C970 H944 0.950 . S
C970 C966 1.385 . S
C970 C969 1.374 . S
C971 C968 1.499 . S
C971 C972 1.373 . S
C971 C973 1.389 . S
C972 H945 0.950 . S
C972 C958 1.377 . S
C972 C971 1.373 . S
C973 C957 1.377 . S
C973 C971 1.389 . S
C973 C974 1.524 . S
C974 C973 1.524 . S
C974 C975 1.397 . S
C974 C979 1.363 . S
C975 H946 0.950 . S
C975 C974 1.397 . S
C975 C976 1.334 . S
C976 H947 0.950 . S
C976 C975 1.334 . S
C976 C977 1.287 . S
C977 C976 1.287 . S
C977 C978 1.524 . S
C977 H980 0.999 . S
C978 H948 0.950 . S
C978 C977 1.524 . S
C978 C979 1.415 . S
C979 H949 0.950 . S
C979 C974 1.363 . S
C979 C978 1.415 . S
H980 C977 0.999 . S
H981 C962 0.913 . S
H982 C1000 0.951 . S
H983 C1002 0.951 . S
H984 C1004 0.950 . S
H985 C1005 0.950 . S
H986 C1007 0.950 . S
H987 C1010 0.950 . S
H988 C1011 0.950 . S
H989 C1013 0.950 . S
H990 C1014 0.950 . S
H991 C1015 0.951 . S
H992 C1017 0.951 . S
H993 C1019 0.950 . S
H994 C1020 0.950 . S
H995 C1022 0.950 . S
H996 C1025 0.950 . S
H997 C1026 0.950 . S
H998 C1028 0.950 . S
H999 C1029 0.950 . S
C1000 H982 0.951 . S
C1000 C1001 1.366 . S
C1000 C1002 1.388 . S
C1001 C1000 1.366 . S
C1001 C1005 1.385 . S
C1002 H983 0.951 . S
C1002 C1000 1.388 . S
C1002 C1003 1.366 . S
C1003 C1002 1.366 . S
C1003 C1004 1.414 . S
C1003 C1006 1.499 . S
C1004 H984 0.950 . S
C1004 C1003 1.414 . S
C1004 C1005 1.374 . S
C1005 H985 0.950 . S
C1005 C1001 1.385 . S
C1005 C1004 1.374 . S
C1006 C1003 1.499 . S
C1006 C1007 1.373 . S
C1006 C1008 1.389 . S
C1007 H986 0.950 . S
C1007 C1006 1.373 . S
C1007 C1023 1.377 . S
C1008 C1006 1.389 . S
C1008 C1009 1.524 . S
C1008 C1022 1.377 . S
C1009 C1008 1.524 . S
C1009 C1010 1.397 . S
C1009 C1014 1.363 . S
C1010 H987 0.950 . S
C1010 C1009 1.397 . S
C1010 C1011 1.334 . S
C1011 H988 0.950 . S
C1011 C1010 1.334 . S
C1011 C1012 1.287 . S
C1012 C1011 1.287 . S
C1012 C1013 1.524 . S
C1012 H1031 0.913 . S
C1013 H989 0.950 . S
C1013 C1012 1.524 . S
C1013 C1014 1.415 . S
C1014 H990 0.950 . S
C1014 C1009 1.363 . S
C1014 C1013 1.415 . S
C1015 H991 0.951 . S
C1015 C1016 1.366 . S
C1015 C1017 1.388 . S
C1016 C1015 1.366 . S
C1016 C1020 1.385 . S
C1017 H992 0.951 . S
C1017 C1015 1.388 . S
C1017 C1018 1.366 . S
C1018 C1017 1.366 . S
C1018 C1019 1.414 . S
C1018 C1021 1.499 . S
C1019 H993 0.950 . S
C1019 C1018 1.414 . S
C1019 C1020 1.374 . S
C1020 H994 0.950 . S
C1020 C1016 1.385 . S
C1020 C1019 1.374 . S
C1021 C1018 1.499 . S
C1021 C1022 1.373 . S
C1021 C1023 1.389 . S
C1022 H995 0.950 . S
C1022 C1008 1.377 . S
C1022 C1021 1.373 . S
C1023 C1007 1.377 . S
C1023 C1021 1.389 . S
C1023 C1024 1.524 . S
C1024 C1023 1.524 . S
C1024 C1025 1.397 . S
C1024 C1029 1.363 . S
C1025 H996 0.950 . S
C1025 C1024 1.397 . S
C1025 C1026 1.334 . S
C1026 H997 0.950 . S
C1026 C1025 1.334 . S
C1026 C1027 1.287 . S
C1027 C1026 1.287 . S
C1027 C1028 1.524 . S
C1027 H1030 0.999 . S
C1028 H998 0.950 . S
C1028 C1027 1.524 . S
C1028 C1029 1.415 . S
C1029 H999 0.950 . S
C1029 C1024 1.363 . S
C1029 C1028 1.415 . S
H1030 C1027 0.999 . S
H1031 C1012 0.913 . S
H1032 C1050 0.951 . S
H1033 C1052 0.951 1_554 S
H1034 C1054 0.950 . S
H1035 C1055 0.950 . S
H1036 C1057 0.950 . S
H1037 C1060 0.950 1_556 S
H1038 C1061 0.950 . S
H1039 C1063 0.950 1_455 S
H1040 C1064 0.950 . S
H1041 C1065 0.951 1_655 S
H1042 C1067 0.952 . S
H1043 C1069 0.950 . S
H1044 C1070 0.950 . S
H1045 C1072 0.950 . S
H1046 C1075 0.950 . S
H1047 C1076 0.950 . S
H1048 C1078 0.950 . S
H1049 C1079 0.950 1_655 S
C1050 H1032 0.951 . S
C1050 C1051 1.366 1_454 S
C1050 C1052 1.388 1_554 S
C1051 C1050 1.366 1_656 S
C1051 C1055 1.385 . S
C1052 H1033 0.951 1_556 S
C1052 C1050 1.388 1_556 S
C1052 C1053 1.387 . S
C1053 C1052 1.387 . S
C1053 C1054 1.389 1_455 S
C1053 C1056 1.505 . S
C1054 H1034 0.950 . S
C1054 C1053 1.389 1_655 S
C1054 C1055 1.374 . S
C1055 H1035 0.950 . S
C1055 C1051 1.385 . S
C1055 C1054 1.374 . S
C1056 C1053 1.505 . S
C1056 C1057 1.373 . S
C1056 C1058 1.389 . S
C1057 H1036 0.950 . S
C1057 C1056 1.373 . S
C1057 C1073 1.377 . S
C1058 C1056 1.389 . S
C1058 C1059 1.526 1_455 S
C1058 C1072 1.375 . S
C1059 C1058 1.526 1_655 S
C1059 C1060 1.397 1_556 S
C1059 C1064 1.363 1_656 S
C1060 H1037 0.950 1_554 S
C1060 C1059 1.397 1_554 S
C1060 C1061 1.334 . S
C1061 H1038 0.950 . S
C1061 C1060 1.334 . S
C1061 C1062 1.287 . S
C1062 C1061 1.287 . S
C1062 C1063 1.524 . S
C1062 H1081 0.913 . S
C1063 H1039 0.950 1_655 S
C1063 C1062 1.524 . S
C1063 C1064 1.415 1_655 S
C1064 H1040 0.950 . S
C1064 C1059 1.363 1_454 S
C1064 C1063 1.415 1_455 S
C1065 H1041 0.951 1_455 S
C1065 C1066 1.366 . S
C1065 C1067 1.388 1_455 S
C1066 C1065 1.366 . S
C1066 C1070 1.385 . S
C1067 H1042 0.952 . S
C1067 C1065 1.388 1_655 S
C1067 C1068 1.365 1_655 S
C1068 C1067 1.365 1_455 S
C1068 C1069 1.414 . S
C1068 C1071 1.499 . S
C1069 H1043 0.950 . S
C1069 C1068 1.414 . S
C1069 C1070 1.374 . S
C1070 H1044 0.950 . S
C1070 C1066 1.385 . S
C1070 C1069 1.374 . S
C1071 C1068 1.499 . S
C1071 C1072 1.373 . S
C1071 C1073 1.389 . S
C1072 H1045 0.950 . S
C1072 C1058 1.375 . S
C1072 C1071 1.373 . S
C1073 C1057 1.377 . S
C1073 C1071 1.389 . S
C1073 C1074 1.524 . S
C1074 C1073 1.524 . S
C1074 C1075 1.397 . S
C1074 C1079 1.363 . S
C1075 H1046 0.950 . S
C1075 C1074 1.397 . S
C1075 C1076 1.334 . S
C1076 H1047 0.950 . S
C1076 C1075 1.334 . S
C1076 C1077 1.287 . S
C1077 C1076 1.287 . S
C1077 C1078 1.524 . S
C1077 H1080 0.999 . S
C1078 H1048 0.950 . S
C1078 C1077 1.524 . S
C1078 C1079 1.415 . S
C1079 H1049 0.950 1_455 S
C1079 C1074 1.363 . S
C1079 C1078 1.415 . S
H1080 C1077 0.999 . S
H1081 C1062 0.913 . S
H1082 C1100 0.951 . S
H1083 C1102 0.951 . S
H1084 C1104 0.950 . S
H1085 C1105 0.950 . S
H1086 C1107 0.950 . S
H1087 C1110 0.950 . S
H1088 C1111 0.950 . S
H1089 C1113 0.950 . S
H1090 C1114 0.950 . S
H1091 C1115 0.951 . S
H1092 C1117 0.951 . S
H1093 C1119 0.950 . S
H1094 C1120 0.950 . S
H1095 C1122 0.950 . S
H1096 C1125 0.950 1_565 S
H1097 C1126 0.950 . S
H1098 C1128 0.950 . S
H1099 C1129 0.950 . S
C1100 H1082 0.951 . S
C1100 C1101 1.366 . S
C1100 C1102 1.388 . S
C1101 C1100 1.366 . S
C1101 C1105 1.385 . S
C1102 H1083 0.951 . S
C1102 C1100 1.388 . S
C1102 C1103 1.366 . S
C1103 C1102 1.366 . S
C1103 C1104 1.414 . S
C1103 C1106 1.499 . S
C1104 H1084 0.950 . S
C1104 C1103 1.414 . S
C1104 C1105 1.374 . S
C1105 H1085 0.950 . S
C1105 C1101 1.385 . S
C1105 C1104 1.374 . S
C1106 C1103 1.499 . S
C1106 C1107 1.373 . S
C1106 C1108 1.389 . S
C1107 H1086 0.950 . S
C1107 C1106 1.373 . S
C1107 C1123 1.377 . S
C1108 C1106 1.389 . S
C1108 C1109 1.524 . S
C1108 C1122 1.377 . S
C1109 C1108 1.524 . S
C1109 C1110 1.397 . S
C1109 C1114 1.363 . S
C1110 H1087 0.950 . S
C1110 C1109 1.397 . S
C1110 C1111 1.334 . S
C1111 H1088 0.950 . S
C1111 C1110 1.334 . S
C1111 C1112 1.287 . S
C1112 C1111 1.287 . S
C1112 C1113 1.524 . S
C1112 H1131 0.913 . S
C1113 H1089 0.950 . S
C1113 C1112 1.524 . S
C1113 C1114 1.415 . S
C1114 H1090 0.950 . S
C1114 C1109 1.363 . S
C1114 C1113 1.415 . S
C1115 H1091 0.951 . S
C1115 C1116 1.366 . S
C1115 C1117 1.388 . S
C1116 C1115 1.366 . S
C1116 C1120 1.385 1_545 S
C1117 H1092 0.951 . S
C1117 C1115 1.388 . S
C1117 C1118 1.366 1_545 S
C1118 C1117 1.366 1_565 S
C1118 C1119 1.414 . S
C1118 C1121 1.499 . S
C1119 H1093 0.950 . S
C1119 C1118 1.414 . S
C1119 C1120 1.374 . S
C1120 H1094 0.950 . S
C1120 C1116 1.385 1_565 S
C1120 C1119 1.374 . S
C1121 C1118 1.499 . S
C1121 C1122 1.373 . S
C1121 C1123 1.389 . S
C1122 H1095 0.950 . S
C1122 C1108 1.377 . S
C1122 C1121 1.373 . S
C1123 C1107 1.377 . S
C1123 C1121 1.389 . S
C1123 C1124 1.524 1_565 S
C1124 C1123 1.524 1_545 S
C1124 C1125 1.397 . S
C1124 C1129 1.363 . S
C1125 H1096 0.950 1_545 S
C1125 C1124 1.397 . S
C1125 C1126 1.334 . S
C1126 H1097 0.950 . S
C1126 C1125 1.334 . S
C1126 C1127 1.287 . S
C1127 C1126 1.287 . S
C1127 C1128 1.524 . S
C1127 H1130 0.999 . S
C1128 H1098 0.950 . S
C1128 C1127 1.524 . S
C1128 C1129 1.415 . S
C1129 H1099 0.950 . S
C1129 C1124 1.363 . S
C1129 C1128 1.415 . S
H1130 C1127 0.999 . S
H1131 C1112 0.913 . S
H1132 C1150 0.951 . S
H1133 C1152 0.951 . S
H1134 C1154 0.950 . S
H1135 C1155 0.950 . S
H1136 C1157 0.950 . S
H1137 C1160 0.950 . S
H1138 C1161 0.950 1_554 S
H1139 C1163 0.950 . S
H1140 C1164 0.950 . S
H1141 C1165 0.951 . S
H1142 C1167 0.951 . S
H1143 C1169 0.950 . S
H1144 C1170 0.950 . S
H1145 C1172 0.950 . S
H1146 C1175 0.950 . S
H1147 C1176 0.950 . S
H1148 C1178 0.950 . S
H1149 C1179 0.950 . S
C1150 H1132 0.951 . S
C1150 C1151 1.366 . S
C1150 C1152 1.388 . S
C1151 C1150 1.366 . S
C1151 C1155 1.385 1_556 S
C1152 H1133 0.951 . S
C1152 C1150 1.388 . S
C1152 C1153 1.366 . S
C1153 C1152 1.366 . S
C1153 C1154 1.414 . S
C1153 C1156 1.499 . S
C1154 H1134 0.950 . S
C1154 C1153 1.414 . S
C1154 C1155 1.374 1_556 S
C1155 H1135 0.950 . S
C1155 C1151 1.385 1_554 S
C1155 C1154 1.374 1_554 S
C1156 C1153 1.499 . S
C1156 C1157 1.373 . S
C1156 C1158 1.389 . S
C1157 H1136 0.950 . S
C1157 C1156 1.373 . S
C1157 C1173 1.377 . S
C1158 C1156 1.389 . S
C1158 C1159 1.524 . S
C1158 C1172 1.377 . S
C1159 C1158 1.524 . S
C1159 C1160 1.397 . S
C1159 C1164 1.363 . S
C1160 H1137 0.950 . S
C1160 C1159 1.397 . S
C1160 C1161 1.334 . S
C1161 H1138 0.950 1_556 S
C1161 C1160 1.334 . S
C1161 C1162 1.287 . S
C1162 C1161 1.287 . S
C1162 C1163 1.524 . S
C1162 H1181 0.913 . S
C1163 H1139 0.950 . S
C1163 C1162 1.524 . S
C1163 C1164 1.415 . S
C1164 H1140 0.950 . S
C1164 C1159 1.363 . S
C1164 C1163 1.415 . S
C1165 H1141 0.951 . S
C1165 C1166 1.366 . S
C1165 C1167 1.388 . S
C1166 C1165 1.366 . S
C1166 C1170 1.385 . S
C1167 H1142 0.951 . S
C1167 C1165 1.388 . S
C1167 C1168 1.366 . S
C1168 C1167 1.366 . S
C1168 C1169 1.414 . S
C1168 C1171 1.499 . S
C1169 H1143 0.950 . S
C1169 C1168 1.414 . S
C1169 C1170 1.374 . S
C1170 H1144 0.950 . S
C1170 C1166 1.385 . S
C1170 C1169 1.374 . S
C1171 C1168 1.499 . S
C1171 C1172 1.373 . S
C1171 C1173 1.389 . S
C1172 H1145 0.950 . S
C1172 C1158 1.377 . S
C1172 C1171 1.373 . S
C1173 C1157 1.377 . S
C1173 C1171 1.389 . S
C1173 C1174 1.524 . S
C1174 C1173 1.524 . S
C1174 C1175 1.397 . S
C1174 C1179 1.363 . S
C1175 H1146 0.950 . S
C1175 C1174 1.397 . S
C1175 C1176 1.334 . S
C1176 H1147 0.950 . S
C1176 C1175 1.334 . S
C1176 C1177 1.287 . S
C1177 C1176 1.287 . S
C1177 C1178 1.524 . S
C1177 H1180 0.999 . S
C1178 H1148 0.950 . S
C1178 C1177 1.524 . S
C1178 C1179 1.415 . S
C1179 H1149 0.950 . S
C1179 C1174 1.363 . S
C1179 C1178 1.415 . S
H1180 C1177 0.999 . S
H1181 C1162 0.913 . S
H1182 C1200 0.951 . S
H1183 C1202 0.951 . S
H1184 C1204 0.950 . S
H1185 C1205 0.950 1_554 S
H1186 C1207 0.950 . S
H1187 C1210 0.950 . S
H1188 C1211 0.950 1_554 S
H1189 C1213 0.950 . S
H1190 C1214 0.950 . S
H1191 C1215 0.951 . S
H1192 C1217 0.951 . S
H1193 C1219 0.950 . S
H1194 C1220 0.950 . S
H1195 C1222 0.950 . S
H1196 C1225 0.950 . S
H1197 C1226 0.950 . S
H1198 C1228 0.950 . S
H1199 C1229 0.950 . S
C1200 H1182 0.951 . S
C1200 C1201 1.366 . S
C1200 C1202 1.388 . S
C1201 C1200 1.366 . S
C1201 C1205 1.385 . S
C1202 H1183 0.951 . S
C1202 C1200 1.388 . S
C1202 C1203 1.366 . S
C1203 C1202 1.366 . S
C1203 C1204 1.414 . S
C1203 C1206 1.499 . S
C1204 H1184 0.950 . S
C1204 C1203 1.414 . S
C1204 C1205 1.374 . S
C1205 H1185 0.950 1_556 S
C1205 C1201 1.385 . S
C1205 C1204 1.374 . S
C1206 C1203 1.499 . S
C1206 C1207 1.373 . S
C1206 C1208 1.389 . S
C1207 H1186 0.950 . S
C1207 C1206 1.373 . S
C1207 C1223 1.377 . S
C1208 C1206 1.389 . S
C1208 C1209 1.524 . S
C1208 C1222 1.377 . S
C1209 C1208 1.524 . S
C1209 C1210 1.397 . S
C1209 C1214 1.363 . S
C1210 H1187 0.950 . S
C1210 C1209 1.397 . S
C1210 C1211 1.334 . S
C1211 H1188 0.950 1_556 S
C1211 C1210 1.334 . S
C1211 C1212 1.287 . S
C1212 C1211 1.287 . S
C1212 C1213 1.524 . S
C1212 H1231 0.913 . S
C1213 H1189 0.950 . S
C1213 C1212 1.524 . S
C1213 C1214 1.415 . S
C1214 H1190 0.950 . S
C1214 C1209 1.363 . S
C1214 C1213 1.415 . S
C1215 H1191 0.951 . S
C1215 C1216 1.366 . S
C1215 C1217 1.388 . S
C1216 C1215 1.366 . S
C1216 C1220 1.385 . S
C1217 H1192 0.951 . S
C1217 C1215 1.388 . S
C1217 C1218 1.366 . S
C1218 C1217 1.366 . S
C1218 C1219 1.414 . S
C1218 C1221 1.499 . S
C1219 H1193 0.950 . S
C1219 C1218 1.414 . S
C1219 C1220 1.374 . S
C1220 H1194 0.950 . S
C1220 C1216 1.385 . S
C1220 C1219 1.374 . S
C1221 C1218 1.499 . S
C1221 C1222 1.373 . S
C1221 C1223 1.389 . S
C1222 H1195 0.950 . S
C1222 C1208 1.377 . S
C1222 C1221 1.373 . S
C1223 C1207 1.377 . S
C1223 C1221 1.389 . S
C1223 C1224 1.524 . S
C1224 C1223 1.524 . S
C1224 C1225 1.397 . S
C1224 C1229 1.363 . S
C1225 H1196 0.950 . S
C1225 C1224 1.397 . S
C1225 C1226 1.334 . S
C1226 H1197 0.950 . S
C1226 C1225 1.334 . S
C1226 C1227 1.287 . S
C1227 C1226 1.287 . S
C1227 C1228 1.524 . S
C1227 H1230 0.999 . S
C1228 H1198 0.950 . S
C1228 C1227 1.524 . S
C1228 C1229 1.415 . S
C1229 H1199 0.950 . S
C1229 C1224 1.363 . S
C1229 C1228 1.415 . S
H1230 C1227 0.999 . S
H1231 C1212 0.913 . S
H1232 C1250 0.951 . S
H1233 C1252 0.951 . S
H1234 C1254 0.950 . S
H1235 C1255 0.950 . S
H1236 C1257 0.950 . S
H1237 C1260 0.950 . S
H1238 C1261 0.950 . S
H1239 C1263 0.950 . S
H1240 C1264 0.950 . S
H1241 C1265 0.954 . S
H1242 C1267 0.935 1_655 S
H1243 C1269 0.950 . S
H1244 C1270 0.950 . S
H1245 C1272 0.950 1_556 S
H1246 C1275 0.950 . S
H1247 C1276 0.950 . S
H1248 C1278 0.950 . S
H1249 C1279 0.950 . S
C1250 H1232 0.951 . S
C1250 C1251 1.383 . S
C1250 C1252 1.388 . S
C1251 C1250 1.383 . S
C1251 C1255 1.369 1_455 S
C1252 H1233 0.951 . S
C1252 C1250 1.388 . S
C1252 C1253 1.366 . S
C1253 C1252 1.366 . S
C1253 C1254 1.414 1_455 S
C1253 C1256 1.499 . S
C1254 H1234 0.950 . S
C1254 C1253 1.414 1_655 S
C1254 C1255 1.374 . S
C1255 H1235 0.950 . S
C1255 C1251 1.369 1_655 S
C1255 C1254 1.374 . S
C1256 C1253 1.499 . S
C1256 C1257 1.373 . S
C1256 C1258 1.389 1_455 S
C1257 H1236 0.950 . S
C1257 C1256 1.373 . S
C1257 C1273 1.377 . S
C1258 C1256 1.389 1_655 S
C1258 C1259 1.524 . S
C1258 C1272 1.377 . S
C1259 C1258 1.524 . S
C1259 C1260 1.397 . S
C1259 C1264 1.363 1_554 S
C1260 H1237 0.950 . S
C1260 C1259 1.397 . S
C1260 C1261 1.334 . S
C1261 H1238 0.950 . S
C1261 C1260 1.334 . S
C1261 C1262 1.287 1_554 S
C1262 C1261 1.287 1_556 S
C1262 C1263 1.524 . S
C1262 H1281 0.913 . S
C1263 H1239 0.950 . S
C1263 C1262 1.524 . S
C1263 C1264 1.415 . S
C1264 H1240 0.950 . S
C1264 C1259 1.363 1_556 S
C1264 C1263 1.415 . S
C1265 H1241 0.954 . S
C1265 C1266 1.366 . S
C1265 C1267 1.388 1_556 S
C1266 C1265 1.366 . S
C1266 C1270 1.385 . S
C1267 H1242 0.935 1_455 S
C1267 C1265 1.388 1_554 S
C1267 C1268 1.366 1_554 S
C1268 C1267 1.366 1_556 S
C1268 C1269 1.414 . S
C1268 C1271 1.499 1_556 S
C1269 H1243 0.950 . S
C1269 C1268 1.414 . S
C1269 C1270 1.374 . S
C1270 H1244 0.950 . S
C1270 C1266 1.385 . S
C1270 C1269 1.374 . S
C1271 C1268 1.499 1_554 S
C1271 C1272 1.373 1_455 S
C1271 C1273 1.389 . S
C1272 H1245 0.950 1_554 S
C1272 C1258 1.377 . S
C1272 C1271 1.373 1_655 S
C1273 C1257 1.377 . S
C1273 C1271 1.389 . S
C1273 C1274 1.524 . S
C1274 C1273 1.524 . S
C1274 C1275 1.397 . S
C1274 C1279 1.363 . S
C1275 H1246 0.950 . S
C1275 C1274 1.397 . S
C1275 C1276 1.334 . S
C1276 H1247 0.950 . S
C1276 C1275 1.334 . S
C1276 C1277 1.287 . S
C1277 C1276 1.287 . S
C1277 C1278 1.524 . S
C1277 H1280 0.999 . S
C1278 H1248 0.950 . S
C1278 C1277 1.524 . S
C1278 C1279 1.415 . S
C1279 H1249 0.950 . S
C1279 C1274 1.363 . S
C1279 C1278 1.415 . S
H1280 C1277 0.999 . S
H1281 C1262 0.913 . S
H1282 C1300 0.951 . S
H1283 C1302 0.951 . S
H1284 C1304 0.950 . S
H1285 C1305 0.950 . S
H1286 C1307 0.950 . S
H1287 C1310 0.950 . S
H1288 C1311 0.950 . S
H1289 C1313 0.950 1_556 S
H1290 C1314 0.950 1_556 S
H1291 C1315 0.951 1_554 S
H1292 C1317 0.951 . S
H1293 C1319 0.950 . S
H1294 C1320 0.950 . S
H1295 C1322 0.950 . S
H1296 C1325 0.950 . S
H1297 C1326 0.950 . S
H1298 C1328 0.950 . S
H1299 C1329 0.950 . S
C1300 H1282 0.951 . S
C1300 C1301 1.366 . S
C1300 C1302 1.388 . S
C1301 C1300 1.366 . S
C1301 C1305 1.385 . S
C1302 H1283 0.951 . S
C1302 C1300 1.388 . S
C1302 C1303 1.366 . S
C1303 C1302 1.366 . S
C1303 C1304 1.414 . S
C1303 C1306 1.499 . S
C1304 H1284 0.950 . S
C1304 C1303 1.414 . S
C1304 C1305 1.374 . S
C1305 H1285 0.950 . S
C1305 C1301 1.385 . S
C1305 C1304 1.374 . S
C1306 C1303 1.499 . S
C1306 C1307 1.373 . S
C1306 C1308 1.389 . S
C1307 H1286 0.950 . S
C1307 C1306 1.373 . S
C1307 C1323 1.377 . S
C1308 C1306 1.389 . S
C1308 C1309 1.524 . S
C1308 C1322 1.377 . S
C1309 C1308 1.524 . S
C1309 C1310 1.397 . S
C1309 C1314 1.363 . S
C1310 H1287 0.950 . S
C1310 C1309 1.397 . S
C1310 C1311 1.334 . S
C1311 H1288 0.950 . S
C1311 C1310 1.334 . S
C1311 C1312 1.287 . S
C1312 C1311 1.287 . S
C1312 C1313 1.524 . S
C1312 H1331 0.913 . S
C1313 H1289 0.950 1_554 S
C1313 C1312 1.524 . S
C1313 C1314 1.415 . S
C1314 H1290 0.950 1_554 S
C1314 C1309 1.363 . S
C1314 C1313 1.415 . S
C1315 H1291 0.951 1_556 S
C1315 C1316 1.366 . S
C1315 C1317 1.388 1_556 S
C1316 C1315 1.366 . S
C1316 C1320 1.385 . S
C1317 H1292 0.951 . S
C1317 C1315 1.388 1_554 S
C1317 C1318 1.366 . S
C1318 C1317 1.366 . S
C1318 C1319 1.414 1_554 S
C1318 C1321 1.499 . S
C1319 H1293 0.950 . S
C1319 C1318 1.414 1_556 S
C1319 C1320 1.374 . S
C1320 H1294 0.950 . S
C1320 C1316 1.385 . S
C1320 C1319 1.374 . S
C1321 C1318 1.499 . S
C1321 C1322 1.373 . S
C1321 C1323 1.389 . S
C1322 H1295 0.950 . S
C1322 C1308 1.377 . S
C1322 C1321 1.373 . S
C1323 C1307 1.377 . S
C1323 C1321 1.389 . S
C1323 C1324 1.524 . S
C1324 C1323 1.524 . S
C1324 C1325 1.397 . S
C1324 C1329 1.363 . S
C1325 H1296 0.950 . S
C1325 C1324 1.397 . S
C1325 C1326 1.334 . S
C1326 H1297 0.950 . S
C1326 C1325 1.334 . S
C1326 C1327 1.287 . S
C1327 C1326 1.287 . S
C1327 C1328 1.524 . S
C1327 H1330 0.999 . S
C1328 H1298 0.950 . S
C1328 C1327 1.524 . S
C1328 C1329 1.415 . S
C1329 H1299 0.950 . S
C1329 C1324 1.363 . S
C1329 C1328 1.415 . S
H1330 C1327 0.999 . S
H1331 C1312 0.913 . S
H1332 C1350 0.951 . S
H1333 C1352 0.951 . S
H1334 C1354 0.950 . S
H1335 C1355 0.950 . S
H1336 C1357 0.957 . S
H1337 C1360 0.950 . S
H1338 C1361 0.950 . S
H1339 C1363 0.950 . S
H1340 C1364 0.950 . S
H1341 C1365 0.951 . S
H1342 C1367 0.951 . S
H1343 C1369 0.950 . S
H1344 C1370 0.950 . S
H1345 C1372 0.950 . S
H1346 C1375 0.950 . S
H1347 C1376 0.950 . S
H1348 C1378 0.950 . S
H1349 C1379 0.950 . S
C1350 H1332 0.951 . S
C1350 C1351 1.366 . S
C1350 C1352 1.388 . S
C1351 C1350 1.366 . S
C1351 C1355 1.385 . S
C1352 H1333 0.951 . S
C1352 C1350 1.388 . S
C1352 C1353 1.366 . S
C1353 C1352 1.366 . S
C1353 C1354 1.414 . S
C1353 C1356 1.499 . S
C1354 H1334 0.950 . S
C1354 C1353 1.414 . S
C1354 C1355 1.374 . S
C1355 H1335 0.950 . S
C1355 C1351 1.385 . S
C1355 C1354 1.374 . S
C1356 C1353 1.499 . S
C1356 C1357 1.373 . S
C1356 C1358 1.389 . S
C1357 H1336 0.957 . S
C1357 C1356 1.373 . S
C1357 C1373 1.377 1_554 S
C1358 C1356 1.389 . S
C1358 C1359 1.524 . S
C1358 C1372 1.377 . S
C1359 C1358 1.524 . S
C1359 C1360 1.397 . S
C1359 C1364 1.363 . S
C1360 H1337 0.950 . S
C1360 C1359 1.397 . S
C1360 C1361 1.334 . S
C1361 H1338 0.950 . S
C1361 C1360 1.334 . S
C1361 C1362 1.287 . S
C1362 C1361 1.287 . S
C1362 C1363 1.524 . S
C1362 H1381 0.913 . S
C1363 H1339 0.950 . S
C1363 C1362 1.524 . S
C1363 C1364 1.415 . S
C1364 H1340 0.950 . S
C1364 C1359 1.363 . S
C1364 C1363 1.415 . S
C1365 H1341 0.951 . S
C1365 C1366 1.366 . S
C1365 C1367 1.388 . S
C1366 C1365 1.366 . S
C1366 C1370 1.385 . S
C1367 H1342 0.951 . S
C1367 C1365 1.388 . S
C1367 C1368 1.366 . S
C1368 C1367 1.366 . S
C1368 C1369 1.414 . S
C1368 C1371 1.499 . S
C1369 H1343 0.950 . S
C1369 C1368 1.414 . S
C1369 C1370 1.374 . S
C1370 H1344 0.950 . S
C1370 C1366 1.385 . S
C1370 C1369 1.374 . S
C1371 C1368 1.499 . S
C1371 C1372 1.373 1_556 S
C1371 C1373 1.389 . S
C1372 H1345 0.950 . S
C1372 C1358 1.377 . S
C1372 C1371 1.373 1_554 S
C1373 C1357 1.377 1_556 S
C1373 C1371 1.389 . S
C1373 C1374 1.524 . S
C1374 C1373 1.524 . S
C1374 C1375 1.397 . S
C1374 C1379 1.363 . S
C1375 H1346 0.950 . S
C1375 C1374 1.397 . S
C1375 C1376 1.334 . S
C1376 H1347 0.950 . S
C1376 C1375 1.334 . S
C1376 C1377 1.287 . S
C1377 C1376 1.287 . S
C1377 C1378 1.524 . S
C1377 H1380 0.999 . S
C1378 H1348 0.950 . S
C1378 C1377 1.524 . S
C1378 C1379 1.415 . S
C1379 H1349 0.950 . S
C1379 C1374 1.363 . S
C1379 C1378 1.415 . S
H1380 C1377 0.999 . S
H1381 C1362 0.913 . S
H1382 C1400 0.951 . S
H1383 C1402 0.951 . S
H1384 C1404 0.950 . S
H1385 C1405 0.950 . S
H1386 C1407 0.950 . S
H1387 C1410 0.950 . S
H1388 C1411 0.950 . S
H1389 C1413 0.950 . S
H1390 C1414 0.950 . S
H1391 C1415 0.951 . S
H1392 C1417 0.951 . S
H1393 C1419 0.950 1_554 S
H1394 C1420 0.950 . S
H1395 C1422 0.950 . S
H1396 C1425 0.950 . S
H1397 C1426 0.950 . S
H1398 C1428 0.950 . S
H1399 C1429 0.950 . S
C1400 H1382 0.951 . S
C1400 C1401 1.366 . S
C1400 C1402 1.388 . S
C1401 C1400 1.366 . S
C1401 C1405 1.385 . S
C1402 H1383 0.951 . S
C1402 C1400 1.388 . S
C1402 C1403 1.366 . S
C1403 C1402 1.366 . S
C1403 C1404 1.414 . S
C1403 C1406 1.499 . S
C1404 H1384 0.950 . S
C1404 C1403 1.414 . S
C1404 C1405 1.374 . S
C1405 H1385 0.950 . S
C1405 C1401 1.385 . S
C1405 C1404 1.374 . S
C1406 C1403 1.499 . S
C1406 C1407 1.373 . S
C1406 C1408 1.389 . S
C1407 H1386 0.950 . S
C1407 C1406 1.373 . S
C1407 C1423 1.377 1_554 S
C1408 C1406 1.389 . S
C1408 C1409 1.524 . S
C1408 C1422 1.377 . S
C1409 C1408 1.524 . S
C1409 C1410 1.397 . S
C1409 C1414 1.363 . S
C1410 H1387 0.950 . S
C1410 C1409 1.397 . S
C1410 C1411 1.334 . S
C1411 H1388 0.950 . S
C1411 C1410 1.334 . S
C1411 C1412 1.287 . S
C1412 C1411 1.287 . S
C1412 C1413 1.524 . S
C1412 H1431 0.913 . S
C1413 H1389 0.950 . S
C1413 C1412 1.524 . S
C1413 C1414 1.415 . S
C1414 H1390 0.950 . S
C1414 C1409 1.363 . S
C1414 C1413 1.415 . S
C1415 H1391 0.951 . S
C1415 C1416 1.366 . S
C1415 C1417 1.388 . S
C1416 C1415 1.366 . S
C1416 C1420 1.385 . S
C1417 H1392 0.951 . S
C1417 C1415 1.388 . S
C1417 C1418 1.366 . S
C1418 C1417 1.366 . S
C1418 C1419 1.414 . S
C1418 C1421 1.499 . S
C1419 H1393 0.950 1_556 S
C1419 C1418 1.414 . S
C1419 C1420 1.374 . S
C1420 H1394 0.950 . S
C1420 C1416 1.385 . S
C1420 C1419 1.374 . S
C1421 C1418 1.499 . S
C1421 C1422 1.373 1_556 S
C1421 C1423 1.389 . S
C1422 H1395 0.950 . S
C1422 C1408 1.377 . S
C1422 C1421 1.373 1_554 S
C1423 C1407 1.377 1_556 S
C1423 C1421 1.389 . S
C1423 C1424 1.524 . S
C1424 C1423 1.524 . S
C1424 C1425 1.397 . S
C1424 C1429 1.363 . S
C1425 H1396 0.950 . S
C1425 C1424 1.397 . S
C1425 C1426 1.334 . S
C1426 H1397 0.950 . S
C1426 C1425 1.334 . S
C1426 C1427 1.287 . S
C1427 C1426 1.287 . S
C1427 C1428 1.524 . S
C1427 H1430 0.999 . S
C1428 H1398 0.950 . S
C1428 C1427 1.524 . S
C1428 C1429 1.415 . S
C1429 H1399 0.950 . S
C1429 C1424 1.363 . S
C1429 C1428 1.415 . S
H1430 C1427 0.999 . S
H1431 C1412 0.913 . S
H1432 C1450 0.951 . S
H1433 C1452 0.951 . S
H1434 C1454 0.950 . S
H1435 C1455 0.950 . S
H1436 C1457 0.950 . S
H1437 C1460 0.950 . S
H1438 C1461 0.950 . S
H1439 C1463 0.950 . S
H1440 C1464 0.950 . S
H1441 C1465 0.941 1_455 S
H1442 C1467 0.951 . S
H1443 C1469 0.950 . S
H1444 C1470 0.950 . S
H1445 C1472 0.950 . S
H1446 C1475 0.950 . S
H1447 C1476 0.950 . S
H1448 C1478 0.950 . S
H1449 C1479 0.950 . S
C1450 H1432 0.951 . S
C1450 C1451 1.390 . S
C1450 C1452 1.388 . S
C1451 C1450 1.390 . S
C1451 C1455 1.363 1_655 S
C1452 H1433 0.951 . S
C1452 C1450 1.388 . S
C1452 C1453 1.366 . S
C1453 C1452 1.366 . S
C1453 C1454 1.414 1_655 S
C1453 C1456 1.499 . S
C1454 H1434 0.950 . S
C1454 C1453 1.414 1_455 S
C1454 C1455 1.374 . S
C1455 H1435 0.950 . S
C1455 C1451 1.363 1_455 S
C1455 C1454 1.374 . S
C1456 C1453 1.499 . S
C1456 C1457 1.373 1_655 S
C1456 C1458 1.389 . S
C1457 H1436 0.950 . S
C1457 C1456 1.373 1_455 S
C1457 C1473 1.377 . S
C1458 C1456 1.389 . S
C1458 C1459 1.524 . S
C1458 C1472 1.377 . S
C1459 C1458 1.524 . S
C1459 C1460 1.397 . S
C1459 C1464 1.363 . S
C1460 H1437 0.950 . S
C1460 C1459 1.397 . S
C1460 C1461 1.334 . S
C1461 H1438 0.950 . S
C1461 C1460 1.334 . S
C1461 C1462 1.287 . S
C1462 C1461 1.287 . S
C1462 C1463 1.524 . S
C1462 H1481 0.913 . S
C1463 H1439 0.950 . S
C1463 C1462 1.524 . S
C1463 C1464 1.415 . S
C1464 H1440 0.950 . S
C1464 C1459 1.363 . S
C1464 C1463 1.415 . S
C1465 H1441 0.941 1_655 S
C1465 C1466 1.376 . S
C1465 C1467 1.387 1_655 S
C1466 C1465 1.376 . S
C1466 C1470 1.385 . S
C1467 H1442 0.951 . S
C1467 C1465 1.387 1_455 S
C1467 C1468 1.366 1_455 S
C1468 C1467 1.366 1_655 S
C1468 C1469 1.414 . S
C1468 C1471 1.499 . S
C1469 H1443 0.950 . S
C1469 C1468 1.414 . S
C1469 C1470 1.374 . S
C1470 H1444 0.950 . S
C1470 C1466 1.385 . S
C1470 C1469 1.374 . S
C1471 C1468 1.499 . S
C1471 C1472 1.373 . S
C1471 C1473 1.389 1_655 S
C1472 H1445 0.950 . S
C1472 C1458 1.377 . S
C1472 C1471 1.373 . S
C1473 C1457 1.377 . S
C1473 C1471 1.389 1_455 S
C1473 C1474 1.524 . S
C1474 C1473 1.524 . S
C1474 C1475 1.397 . S
C1474 C1479 1.363 . S
C1475 H1446 0.950 . S
C1475 C1474 1.397 . S
C1475 C1476 1.334 . S
C1476 H1447 0.950 . S
C1476 C1475 1.334 . S
C1476 C1477 1.287 . S
C1477 C1476 1.287 . S
C1477 C1478 1.524 . S
C1477 H1480 0.999 . S
C1478 H1448 0.950 . S
C1478 C1477 1.524 . S
C1478 C1479 1.415 . S
C1479 H1449 0.950 . S
C1479 C1474 1.363 . S
C1479 C1478 1.415 . S
H1480 C1477 0.999 . S
H1481 C1462 0.913 . S
H1482 C1500 0.951 . S
H1483 C1502 0.951 . S
H1484 C1504 0.950 . S
H1485 C1505 0.950 . S
H1486 C1507 0.950 . S
H1487 C1510 0.950 . S
H1488 C1511 0.950 . S
H1489 C1513 0.950 . S
H1490 C1514 0.946 1_545 S
H1491 C1515 0.951 . S
H1492 C1517 0.951 . S
H1493 C1519 0.950 . S
H1494 C1520 0.950 1_545 S
H1495 C1522 0.950 . S
H1496 C1525 0.950 . S
H1497 C1526 0.950 . S
H1498 C1528 0.950 . S
H1499 C1529 0.950 . S
C1500 H1482 0.951 . S
C1500 C1501 1.366 . S
C1500 C1502 1.388 . S
C1501 C1500 1.366 . S
C1501 C1505 1.385 . S
C1502 H1483 0.951 . S
C1502 C1500 1.388 . S
C1502 C1503 1.366 . S
C1503 C1502 1.366 . S
C1503 C1504 1.414 . S
C1503 C1506 1.499 . S
C1504 H1484 0.950 . S
C1504 C1503 1.414 . S
C1504 C1505 1.374 . S
C1505 H1485 0.950 . S
C1505 C1501 1.385 . S
C1505 C1504 1.374 . S
C1506 C1503 1.499 . S
C1506 C1507 1.373 . S
C1506 C1508 1.389 . S
C1507 H1486 0.950 . S
C1507 C1506 1.373 . S
C1507 C1523 1.377 . S
C1508 C1506 1.389 . S
C1508 C1509 1.524 . S
C1508 C1522 1.377 . S
C1509 C1508 1.524 . S
C1509 C1510 1.397 . S
C1509 C1514 1.378 . S
C1510 H1487 0.950 . S
C1510 C1509 1.397 . S
C1510 C1511 1.334 . S
C1511 H1488 0.950 . S
C1511 C1510 1.334 . S
C1511 C1512 1.288 1_565 S
C1512 C1511 1.288 1_545 S
C1512 C1513 1.523 . S
C1512 H1531 0.912 . S
C1513 H1489 0.950 . S
C1513 C1512 1.523 . S
C1513 C1514 1.405 1_545 S
C1514 H1490 0.946 1_565 S
C1514 C1509 1.378 . S
C1514 C1513 1.405 1_565 S
C1515 H1491 0.951 . S
C1515 C1516 1.366 . S
C1515 C1517 1.388 . S
C1516 C1515 1.366 . S
C1516 C1520 1.385 . S
C1517 H1492 0.951 . S
C1517 C1515 1.388 . S
C1517 C1518 1.366 . S
C1518 C1517 1.366 . S
C1518 C1519 1.414 . S
C1518 C1521 1.499 . S
C1519 H1493 0.950 . S
C1519 C1518 1.414 . S
C1519 C1520 1.374 . S
C1520 H1494 0.950 1_565 S
C1520 C1516 1.385 . S
C1520 C1519 1.374 . S
C1521 C1518 1.499 . S
C1521 C1522 1.373 . S
C1521 C1523 1.389 . S
C1522 H1495 0.950 . S
C1522 C1508 1.377 . S
C1522 C1521 1.373 . S
C1523 C1507 1.377 . S
C1523 C1521 1.389 . S
C1523 C1524 1.524 . S
C1524 C1523 1.524 . S
C1524 C1525 1.397 . S
C1524 C1529 1.363 . S
C1525 H1496 0.950 . S
C1525 C1524 1.397 . S
C1525 C1526 1.334 . S
C1526 H1497 0.950 . S
C1526 C1525 1.334 . S
C1526 C1527 1.287 . S
C1527 C1526 1.287 . S
C1527 C1528 1.524 . S
C1527 H1530 0.999 . S
C1528 H1498 0.950 . S
C1528 C1527 1.524 . S
C1528 C1529 1.415 . S
C1529 H1499 0.950 . S
C1529 C1524 1.363 . S
C1529 C1528 1.415 . S
H1530 C1527 0.999 . S
H1531 C1512 0.912 . S
H1532 C1550 0.951 . S
H1533 C1552 0.951 . S
H1534 C1554 0.950 . S
H1535 C1555 0.950 . S
H1536 C1557 0.950 . S
H1537 C1560 0.950 . S
H1538 C1561 0.950 . S
H1539 C1563 0.950 . S
H1540 C1564 0.950 . S
H1541 C1565 0.951 . S
H1542 C1567 0.951 . S
H1543 C1569 0.950 . S
H1544 C1570 0.950 . S
H1545 C1572 0.950 . S
H1546 C1575 0.950 . S
H1547 C1576 0.950 . S
H1548 C1578 0.950 . S
H1549 C1579 0.950 . S
C1550 H1532 0.951 . S
C1550 C1551 1.366 . S
C1550 C1552 1.388 . S
C1551 C1550 1.366 . S
C1551 C1555 1.385 . S
C1552 H1533 0.951 . S
C1552 C1550 1.388 . S
C1552 C1553 1.366 . S
C1553 C1552 1.366 . S
C1553 C1554 1.414 . S
C1553 C1556 1.499 . S
C1554 H1534 0.950 . S
C1554 C1553 1.414 . S
C1554 C1555 1.374 . S
C1555 H1535 0.950 . S
C1555 C1551 1.385 . S
C1555 C1554 1.374 . S
C1556 C1553 1.499 . S
C1556 C1557 1.373 . S
C1556 C1558 1.389 . S
C1557 H1536 0.950 . S
C1557 C1556 1.373 . S
C1557 C1573 1.377 . S
C1558 C1556 1.389 . S
C1558 C1559 1.524 . S
C1558 C1572 1.377 . S
C1559 C1558 1.524 . S
C1559 C1560 1.397 . S
C1559 C1564 1.363 . S
C1560 H1537 0.950 . S
C1560 C1559 1.397 . S
C1560 C1561 1.334 . S
C1561 H1538 0.950 . S
C1561 C1560 1.334 . S
C1561 C1562 1.287 . S
C1562 C1561 1.287 . S
C1562 C1563 1.524 . S
C1562 H1581 0.913 . S
C1563 H1539 0.950 . S
C1563 C1562 1.524 . S
C1563 C1564 1.415 . S
C1564 H1540 0.950 . S
C1564 C1559 1.363 . S
C1564 C1563 1.415 . S
C1565 H1541 0.951 . S
C1565 C1566 1.366 . S
C1565 C1567 1.388 . S
C1566 C1565 1.366 . S
C1566 C1570 1.385 . S
C1567 H1542 0.951 . S
C1567 C1565 1.388 . S
C1567 C1568 1.366 . S
C1568 C1567 1.366 . S
C1568 C1569 1.414 . S
C1568 C1571 1.499 . S
C1569 H1543 0.950 . S
C1569 C1568 1.414 . S
C1569 C1570 1.374 . S
C1570 H1544 0.950 . S
C1570 C1566 1.385 . S
C1570 C1569 1.374 . S
C1571 C1568 1.499 . S
C1571 C1572 1.373 . S
C1571 C1573 1.389 . S
C1572 H1545 0.950 . S
C1572 C1558 1.377 . S
C1572 C1571 1.373 . S
C1573 C1557 1.377 . S
C1573 C1571 1.389 . S
C1573 C1574 1.524 . S
C1574 C1573 1.524 . S
C1574 C1575 1.397 . S
C1574 C1579 1.363 . S
C1575 H1546 0.950 . S
C1575 C1574 1.397 . S
C1575 C1576 1.334 . S
C1576 H1547 0.950 . S
C1576 C1575 1.334 . S
C1576 C1577 1.287 . S
C1577 C1576 1.287 . S
C1577 C1578 1.524 . S
C1577 H1580 0.999 . S
C1578 H1548 0.950 . S
C1578 C1577 1.524 . S
C1578 C1579 1.415 . S
C1579 H1549 0.950 . S
C1579 C1574 1.363 . S
C1579 C1578 1.415 . S
H1580 C1577 0.999 . S
H1581 C1562 0.913 . S
H1582 C1600 0.951 . S
H1583 C1602 0.951 . S
H1584 C1604 0.950 . S
H1585 C1605 0.950 . S
H1586 C1607 0.950 . S
H1587 C1610 0.950 . S
H1588 C1611 0.950 . S
H1589 C1613 0.950 . S
H1590 C1614 0.950 . S
H1591 C1615 0.951 . S
H1592 C1617 0.951 . S
H1593 C1619 0.950 . S
H1594 C1620 0.950 . S
H1595 C1622 0.950 . S
H1596 C1625 0.950 . S
H1597 C1626 0.950 . S
H1598 C1628 0.950 . S
H1599 C1629 0.950 . S
C1600 H1582 0.951 . S
C1600 C1601 1.366 . S
C1600 C1602 1.388 . S
C1601 C1600 1.366 . S
C1601 C1605 1.385 . S
C1602 H1583 0.951 . S
C1602 C1600 1.388 . S
C1602 C1603 1.366 . S
C1603 C1602 1.366 . S
C1603 C1604 1.414 . S
C1603 C1606 1.499 . S
C1604 H1584 0.950 . S
C1604 C1603 1.414 . S
C1604 C1605 1.374 . S
C1605 H1585 0.950 . S
C1605 C1601 1.385 . S
C1605 C1604 1.374 . S
C1606 C1603 1.499 . S
C1606 C1607 1.373 . S
C1606 C1608 1.389 . S
C1607 H1586 0.950 . S
C1607 C1606 1.373 . S
C1607 C1623 1.377 . S
C1608 C1606 1.389 . S
C1608 C1609 1.524 . S
C1608 C1622 1.377 . S
C1609 C1608 1.524 . S
C1609 C1610 1.397 . S
C1609 C1614 1.363 . S
C1610 H1587 0.950 . S
C1610 C1609 1.397 . S
C1610 C1611 1.334 . S
C1611 H1588 0.950 . S
C1611 C1610 1.334 . S
C1611 C1612 1.287 . S
C1612 C1611 1.287 . S
C1612 C1613 1.524 . S
C1612 H1631 0.913 . S
C1613 H1589 0.950 . S
C1613 C1612 1.524 . S
C1613 C1614 1.415 . S
C1614 H1590 0.950 . S
C1614 C1609 1.363 . S
C1614 C1613 1.415 . S
C1615 H1591 0.951 . S
C1615 C1616 1.366 . S
C1615 C1617 1.388 . S
C1616 C1615 1.366 . S
C1616 C1620 1.385 . S
C1617 H1592 0.951 . S
C1617 C1615 1.388 . S
C1617 C1618 1.366 . S
C1618 C1617 1.366 . S
C1618 C1619 1.414 . S
C1618 C1621 1.499 . S
C1619 H1593 0.950 . S
C1619 C1618 1.414 . S
C1619 C1620 1.374 . S
C1620 H1594 0.950 . S
C1620 C1616 1.385 . S
C1620 C1619 1.374 . S
C1621 C1618 1.499 . S
C1621 C1622 1.373 . S
C1621 C1623 1.389 . S
C1622 H1595 0.950 . S
C1622 C1608 1.377 . S
C1622 C1621 1.373 . S
C1623 C1607 1.377 . S
C1623 C1621 1.389 . S
C1623 C1624 1.524 . S
C1624 C1623 1.524 . S
C1624 C1625 1.397 . S
C1624 C1629 1.363 . S
C1625 H1596 0.950 . S
C1625 C1624 1.397 . S
C1625 C1626 1.334 . S
C1626 H1597 0.950 . S
C1626 C1625 1.334 . S
C1626 C1627 1.287 . S
C1627 C1626 1.287 . S
C1627 C1628 1.524 . S
C1627 H1630 0.999 . S
C1628 H1598 0.950 . S
C1628 C1627 1.524 . S
C1628 C1629 1.415 . S
C1629 H1599 0.950 . S
C1629 C1624 1.363 . S
C1629 C1628 1.415 . S
H1630 C1627 0.999 . S
H1631 C1612 0.913 . S
C451 C255 1.754 . S
C466 C322 1.781 . S
C516 C352 1.685 . S
C501 C294 1.661 . S
C566 N386 1.701 . S
C551 C177 1.696 . S
C616 N416 1.268 . S
C601 C216 1.308 . S
C666 C313 1.786 1_565 S
C651 C99 1.773 . S
C701 C138 1.664 . S
C716 C343 1.685 . S
C751 C21 1.709 . S
C766 N378 1.701 . S
C801 C60 1.309 1_455 S
C816 N408 1.268 . S
C866 C328 0.727 . S
C851 C196 0.741 1_455 S
C916 C358 0.314 . S
C901 C235 0.467 . S
C966 C399 0.204 . S
C951 C289 0.267 . S
C1001 C157 0.481 . S
C1016 C429 0.376 . S
C1051 C40 0.740 . S
C1066 C339 0.721 . S
C1116 C369 0.315 . S
C1101 C79 0.448 . S
C1166 C388 0.204 . S
C1151 C133 0.270 . S
C1201 C1 0.457 . S
C1216 C418 0.382 . S
C1251 C211 1.603 . S
C1266 N318 1.640 . S
C1301 C250 1.744 . S
C1316 N348 1.788 . S
C1366 C373 1.810 . S
C1351 C274 1.743 . S
C1416 C403 2.103 . S
C1401 C172 2.005 . S
C1451 C55 1.604 1_655 S
C1466 N326 1.643 . S
C1516 N356 1.788 . S
C1501 C94 1.741 . S
C1566 C382 1.810 . S
C1551 C118 1.745 . S
C1601 C16 2.005 . S
C1616 C412 2.108 . S
