# Generated by pormake.
# Topology ptr, (4,4)-cn, num edge types: 1
# Building blocks:
#     Node 0, Type 0, BuildingBlock: AZAVOO_clean_sbu_0, # of connection points: 4
#     Node 1, Type 0, BuildingBlock: AZAVOO_clean_sbu_0, # of connection points: 4
#     Node 2, Type 0, BuildingBlock: AZAVOO_clean_sbu_0, # of connection points: 4
#     Node 3, Type 0, BuildingBlock: AZAVOO_clean_sbu_0, # of connection points: 4
#     Node 4, Type 0, BuildingBlock: AZAVOO_clean_sbu_0, # of connection points: 4
#     Node 5, Type 0, BuildingBlock: AZAVOO_clean_sbu_0, # of connection points: 4
#     Node 6, Type 0, BuildingBlock: AZAVOO_clean_sbu_0, # of connection points: 4
#     Node 7, Type 0, BuildingBlock: AZAVOO_clean_sbu_0, # of connection points: 4
#     Node 8, Type 0, BuildingBlock: AZAVOO_clean_sbu_0, # of connection points: 4
#     Node 9, Type 0, BuildingBlock: AZAVOO_clean_sbu_0, # of connection points: 4
#     Node 10, Type 0, BuildingBlock: AZAVOO_clean_sbu_0, # of connection points: 4
#     Node 11, Type 0, BuildingBlock: AZAVOO_clean_sbu_0, # of connection points: 4
#     Node 12, Type 0, BuildingBlock: AZAVOO_clean_sbu_0, # of connection points: 4
#     Node 13, Type 0, BuildingBlock: AZAVOO_clean_sbu_0, # of connection points: 4
#     Node 14, Type 0, BuildingBlock: AZAVOO_clean_sbu_0, # of connection points: 4
#     Node 15, Type 0, BuildingBlock: AZAVOO_clean_sbu_0, # of connection points: 4
#     Node 16, Type 0, BuildingBlock: AZAVOO_clean_sbu_0, # of connection points: 4
#     Node 17, Type 0, BuildingBlock: AZAVOO_clean_sbu_0, # of connection points: 4
#     Node 18, Type 1, BuildingBlock: KUFVIS_clean_linker_0, # of connection points: 4
#     Node 19, Type 1, BuildingBlock: KUFVIS_clean_linker_0, # of connection points: 4
#     Node 20, Type 1, BuildingBlock: KUFVIS_clean_linker_0, # of connection points: 4
#     Node 21, Type 1, BuildingBlock: KUFVIS_clean_linker_0, # of connection points: 4
#     Node 22, Type 1, BuildingBlock: KUFVIS_clean_linker_0, # of connection points: 4
#     Node 23, Type 1, BuildingBlock: KUFVIS_clean_linker_0, # of connection points: 4
#     Node 24, Type 1, BuildingBlock: KUFVIS_clean_linker_0, # of connection points: 4
#     Node 25, Type 1, BuildingBlock: KUFVIS_clean_linker_0, # of connection points: 4
#     Node 26, Type 1, BuildingBlock: KUFVIS_clean_linker_0, # of connection points: 4
#     Node 27, Type 1, BuildingBlock: KUFVIS_clean_linker_0, # of connection points: 4
#     Node 28, Type 1, BuildingBlock: KUFVIS_clean_linker_0, # of connection points: 4
#     Node 29, Type 1, BuildingBlock: KUFVIS_clean_linker_0, # of connection points: 4
#     Node 30, Type 1, BuildingBlock: KUFVIS_clean_linker_0, # of connection points: 4
#     Node 31, Type 1, BuildingBlock: KUFVIS_clean_linker_0, # of connection points: 4
#     Node 32, Type 1, BuildingBlock: KUFVIS_clean_linker_0, # of connection points: 4
#     Node 33, Type 1, BuildingBlock: KUFVIS_clean_linker_0, # of connection points: 4
#     Node 34, Type 1, BuildingBlock: KUFVIS_clean_linker_0, # of connection points: 4
#     Node 35, Type 1, BuildingBlock: KUFVIS_clean_linker_0, # of connection points: 4
#     Edge 36, Type (0, 1), BuildingBlock: OJICUG_clean_linker_0, # of connection points: 2
#     Edge 37, Type (0, 1), BuildingBlock: OJICUG_clean_linker_0, # of connection points: 2
#     Edge 38, Type (0, 1), BuildingBlock: OJICUG_clean_linker_0, # of connection points: 2
#     Edge 39, Type (0, 1), BuildingBlock: OJICUG_clean_linker_0, # of connection points: 2
#     Edge 40, Type (0, 1), BuildingBlock: OJICUG_clean_linker_0, # of connection points: 2
#     Edge 41, Type (0, 1), BuildingBlock: OJICUG_clean_linker_0, # of connection points: 2
#     Edge 42, Type (0, 1), BuildingBlock: OJICUG_clean_linker_0, # of connection points: 2
#     Edge 43, Type (0, 1), BuildingBlock: OJICUG_clean_linker_0, # of connection points: 2
#     Edge 44, Type (0, 1), BuildingBlock: OJICUG_clean_linker_0, # of connection points: 2
#     Edge 45, Type (0, 1), BuildingBlock: OJICUG_clean_linker_0, # of connection points: 2
#     Edge 46, Type (0, 1), BuildingBlock: OJICUG_clean_linker_0, # of connection points: 2
#     Edge 47, Type (0, 1), BuildingBlock: OJICUG_clean_linker_0, # of connection points: 2
#     Edge 48, Type (0, 1), BuildingBlock: OJICUG_clean_linker_0, # of connection points: 2
#     Edge 49, Type (0, 1), BuildingBlock: OJICUG_clean_linker_0, # of connection points: 2
#     Edge 50, Type (0, 1), BuildingBlock: OJICUG_clean_linker_0, # of connection points: 2
#     Edge 51, Type (0, 1), BuildingBlock: OJICUG_clean_linker_0, # of connection points: 2
#     Edge 52, Type (0, 1), BuildingBlock: OJICUG_clean_linker_0, # of connection points: 2
#     Edge 53, Type (0, 1), BuildingBlock: OJICUG_clean_linker_0, # of connection points: 2
#     Edge 54, Type (0, 1), BuildingBlock: OJICUG_clean_linker_0, # of connection points: 2
#     Edge 55, Type (0, 1), BuildingBlock: OJICUG_clean_linker_0, # of connection points: 2
#     Edge 56, Type (0, 1), BuildingBlock: OJICUG_clean_linker_0, # of connection points: 2
#     Edge 57, Type (0, 1), BuildingBlock: OJICUG_clean_linker_0, # of connection points: 2
#     Edge 58, Type (0, 1), BuildingBlock: OJICUG_clean_linker_0, # of connection points: 2
#     Edge 59, Type (0, 1), BuildingBlock: OJICUG_clean_linker_0, # of connection points: 2
#     Edge 60, Type (0, 1), BuildingBlock: OJICUG_clean_linker_0, # of connection points: 2
#     Edge 61, Type (0, 1), BuildingBlock: OJICUG_clean_linker_0, # of connection points: 2
#     Edge 62, Type (0, 1), BuildingBlock: OJICUG_clean_linker_0, # of connection points: 2
#     Edge 63, Type (0, 1), BuildingBlock: OJICUG_clean_linker_0, # of connection points: 2
#     Edge 64, Type (0, 1), BuildingBlock: OJICUG_clean_linker_0, # of connection points: 2
#     Edge 65, Type (0, 1), BuildingBlock: OJICUG_clean_linker_0, # of connection points: 2
#     Edge 66, Type (0, 1), BuildingBlock: OJICUG_clean_linker_0, # of connection points: 2
#     Edge 67, Type (0, 1), BuildingBlock: OJICUG_clean_linker_0, # of connection points: 2
#     Edge 68, Type (0, 1), BuildingBlock: OJICUG_clean_linker_0, # of connection points: 2
#     Edge 69, Type (0, 1), BuildingBlock: OJICUG_clean_linker_0, # of connection points: 2
#     Edge 70, Type (0, 1), BuildingBlock: OJICUG_clean_linker_0, # of connection points: 2
#     Edge 71, Type (0, 1), BuildingBlock: OJICUG_clean_linker_0, # of connection points: 2
#     Edge 72, Type (0, 1), BuildingBlock: OJICUG_clean_linker_0, # of connection points: 2
#     Edge 73, Type (0, 1), BuildingBlock: OJICUG_clean_linker_0, # of connection points: 2
#     Edge 74, Type (0, 1), BuildingBlock: OJICUG_clean_linker_0, # of connection points: 2
#     Edge 75, Type (0, 1), BuildingBlock: OJICUG_clean_linker_0, # of connection points: 2
#     Edge 76, Type (0, 1), BuildingBlock: OJICUG_clean_linker_0, # of connection points: 2
#     Edge 77, Type (0, 1), BuildingBlock: OJICUG_clean_linker_0, # of connection points: 2
#     Edge 78, Type (0, 1), BuildingBlock: OJICUG_clean_linker_0, # of connection points: 2
#     Edge 79, Type (0, 1), BuildingBlock: OJICUG_clean_linker_0, # of connection points: 2
#     Edge 80, Type (0, 1), BuildingBlock: OJICUG_clean_linker_0, # of connection points: 2
#     Edge 81, Type (0, 1), BuildingBlock: OJICUG_clean_linker_0, # of connection points: 2
#     Edge 82, Type (0, 1), BuildingBlock: OJICUG_clean_linker_0, # of connection points: 2
#     Edge 83, Type (0, 1), BuildingBlock: OJICUG_clean_linker_0, # of connection points: 2
#     Edge 84, Type (0, 1), BuildingBlock: OJICUG_clean_linker_0, # of connection points: 2
#     Edge 85, Type (0, 1), BuildingBlock: OJICUG_clean_linker_0, # of connection points: 2
#     Edge 86, Type (0, 1), BuildingBlock: OJICUG_clean_linker_0, # of connection points: 2
#     Edge 87, Type (0, 1), BuildingBlock: OJICUG_clean_linker_0, # of connection points: 2
#     Edge 88, Type (0, 1), BuildingBlock: OJICUG_clean_linker_0, # of connection points: 2
#     Edge 89, Type (0, 1), BuildingBlock: OJICUG_clean_linker_0, # of connection points: 2
#     Edge 90, Type (0, 1), BuildingBlock: OJICUG_clean_linker_0, # of connection points: 2
#     Edge 91, Type (0, 1), BuildingBlock: OJICUG_clean_linker_0, # of connection points: 2
#     Edge 92, Type (0, 1), BuildingBlock: OJICUG_clean_linker_0, # of connection points: 2
#     Edge 93, Type (0, 1), BuildingBlock: OJICUG_clean_linker_0, # of connection points: 2
#     Edge 94, Type (0, 1), BuildingBlock: OJICUG_clean_linker_0, # of connection points: 2
#     Edge 95, Type (0, 1), BuildingBlock: OJICUG_clean_linker_0, # of connection points: 2
#     Edge 96, Type (0, 1), BuildingBlock: OJICUG_clean_linker_0, # of connection points: 2
#     Edge 97, Type (0, 1), BuildingBlock: OJICUG_clean_linker_0, # of connection points: 2
#     Edge 98, Type (0, 1), BuildingBlock: OJICUG_clean_linker_0, # of connection points: 2
#     Edge 99, Type (0, 1), BuildingBlock: OJICUG_clean_linker_0, # of connection points: 2
#     Edge 100, Type (0, 1), BuildingBlock: OJICUG_clean_linker_0, # of connection points: 2
#     Edge 101, Type (0, 1), BuildingBlock: OJICUG_clean_linker_0, # of connection points: 2
#     Edge 102, Type (0, 1), BuildingBlock: OJICUG_clean_linker_0, # of connection points: 2
#     Edge 103, Type (0, 1), BuildingBlock: OJICUG_clean_linker_0, # of connection points: 2
#     Edge 104, Type (0, 1), BuildingBlock: OJICUG_clean_linker_0, # of connection points: 2
#     Edge 105, Type (0, 1), BuildingBlock: OJICUG_clean_linker_0, # of connection points: 2
#     Edge 106, Type (0, 1), BuildingBlock: OJICUG_clean_linker_0, # of connection points: 2
#     Edge 107, Type (0, 1), BuildingBlock: OJICUG_clean_linker_0, # of connection points: 2
# Relax obj value: 0.077
# Max RMSD: 0.244
# Mean RMSD: 0.133
data_MOF--net-ptr--node1-AZAVOO_clean_sbu_0--node2-KUFVIS_clean_linker_0--edge1-OJICUG_clean_linker_0
_symmetry_space_group_name_H-M    P1
_symmetry_Int_Tables_number       1
_symmetry_cell_setting            triclinic
loop_
_symmetry_equiv_pos_as_xyz
'x, y, z'
_cell_length_a     58.809121
_cell_length_b     57.591234
_cell_length_c     34.775909
_cell_angle_alpha  91.659739
_cell_angle_beta   92.127628
_cell_angle_gamma 119.95031
loop_
_atom_site_label
_atom_site_type_symbol
_atom_site_fract_x
_atom_site_fract_y
_atom_site_fract_z
_atom_type_partial_charge
Mg0 Mg 0.03687 0.37983 0.95869 0.0
O1 O 0.03169 0.40233 0.01051 0.0
O2 O 0.99858 0.40943 -0.00588 0.0
Mg3 Mg 0.98285 0.39221 0.9329 0.0
C4 C 0.01659 0.4117 0.01821 0.0
C5 C 0.07908 0.36317 0.98009 0.0
O6 O 0.07864 0.36063 0.94237 0.0
O7 O 0.99938 0.34077 0.97217 0.0
O8 O 0.96783 0.34936 0.95266 0.0
O9 O 0.06482 0.41892 0.93406 0.0
O10 O 0.02168 0.39746 0.92248 0.0
C11 C 0.97505 0.33353 0.96637 0.0
C12 C 0.04421 0.41846 0.91867 0.0
O13 O 0.06375 0.36997 -0.00462 0.0
Mg14 Mg 0.65065 0.65883 0.02241 0.0
O15 O 0.62308 0.63471 0.96973 0.0
O16 O 0.58272 0.62545 0.98388 0.0
Mg17 Mg 0.58411 0.64243 0.04454 0.0
C18 C 0.59844 0.62388 0.96099 0.0
C19 C 0.7046 0.66691 0.00176 0.0
O20 O 0.70147 0.65544 0.03476 0.0
O21 O 0.6487 0.69624 0.0083 0.0
O22 O 0.60916 0.68621 0.02746 0.0
O23 O 0.6438 0.62093 0.04686 0.0
O24 O 0.61954 0.63965 0.05789 0.0
C25 C 0.63129 0.70277 0.01453 0.0
C26 C 0.62358 0.61981 0.06222 0.0
O27 O 0.68685 0.67145 0.98829 0.0
Mg28 Mg 0.3576 0.97482 0.95086 0.0
O29 O 0.38693 0.9852 0.00336 0.0
O30 O 0.42664 0.01613 0.98584 0.0
Mg31 Mg 0.42318 0.02555 0.92362 0.0
C32 C 0.41164 1.00082 0.01073 0.0
C33 C 0.30368 0.93013 0.9807 0.0
O34 O 0.30468 0.91582 0.95139 0.0
O35 O 0.35849 0.01476 0.96056 0.0
O36 O 0.39826 0.04411 0.94159 0.0
O37 O 0.36622 0.94291 0.92936 0.0
O38 O 0.38817 0.98564 0.91546 0.0
C39 C 0.37617 0.03874 0.95444 0.0
C40 C 0.38585 0.96224 0.91349 0.0
O41 O 0.32245 0.95405 0.98789 0.0
Mg42 Mg 0.98851 0.64215 0.04928 0.0
O43 O 0.9929 0.61977 -0.00372 0.0
O44 O 0.02599 0.61253 0.01261 0.0
Mg45 Mg 0.04202 0.62868 0.07403 0.0
C46 C 1.00806 0.61044 0.98849 0.0
C47 C 0.93791 0.64195 0.01209 0.0
O48 O 0.92536 0.61825 0.02665 0.0
O49 O 0.02642 0.68072 0.03619 0.0
O50 O 0.05788 0.67196 0.05552 0.0
O51 O 0.96013 0.60292 0.07389 0.0
O52 O 1.0033 0.62361 0.08406 0.0
C53 C 0.05072 0.68788 0.04202 0.0
C54 C 0.98071 0.6029 0.08838 0.0
O55 O 0.96295 0.65525 0.01523 0.0
Mg56 Mg 0.37037 0.36111 0.97448 0.0
O57 O 0.40141 0.38267 0.02463 0.0
O58 O 0.4407 0.39299 0.00325 0.0
Mg59 Mg 0.43438 0.37639 0.94096 0.0
C60 C 0.42633 0.39319 0.02971 0.0
C61 C 0.3136 0.33905 0.00118 0.0
O62 O 0.30753 0.32991 0.96504 0.0
O63 O 0.37182 0.32295 0.9838 0.0
O64 O 0.41001 0.33263 0.95945 0.0
O65 O 0.37663 0.39982 0.95381 0.0
O66 O 0.39909 0.38032 0.93564 0.0
C67 C 0.38868 0.31625 0.97462 0.0
C68 C 0.39543 0.4006 0.93472 0.0
O69 O 0.33744 0.3505 0.01417 0.0
Mg70 Mg 0.66672 0.04372 0.05319 0.0
O71 O 0.6388 0.03574 -0.00066 0.0
O72 O 0.59841 1.00554 0.01552 0.0
Mg73 Mg 0.59989 0.99446 0.07734 0.0
C74 C 0.61403 0.02095 -0.00874 0.0
C75 C 0.72128 0.08841 0.02727 0.0
O76 O 0.71817 0.10264 0.05458 0.0
O77 O 0.66417 1.0031 0.04232 0.0
O78 O 0.62378 0.97454 0.05998 0.0
O79 O 0.65973 0.07654 0.07541 0.0
O80 O 0.63566 0.03355 0.08713 0.0
C81 C 0.64584 0.97929 0.04773 0.0
C82 C 0.63925 0.05746 0.09008 0.0
O83 O 0.70328 0.06426 0.01921 0.0
Mg84 Mg 0.69943 0.70728 0.28757 0.0
O85 O 0.69327 0.72904 0.33935 0.0
O86 O 0.65815 0.7331 0.32429 0.0
Mg87 Mg 0.64176 0.71402 0.26401 0.0
C88 C 0.67722 0.73709 0.34755 0.0
C89 C 0.74283 0.69212 0.30945 0.0
O90 O 0.7413 0.68754 0.27195 0.0
O91 O 0.66431 0.66693 0.30255 0.0
O92 O 0.63024 0.67206 0.28507 0.0
O93 O 0.72474 0.74674 0.26199 0.0
O94 O 0.68156 0.72257 0.25157 0.0
C95 C 0.63954 0.65781 0.29829 0.0
C96 C 0.70319 0.74454 0.24717 0.0
O97 O 0.72814 0.7 0.32408 0.0
Mg98 Mg 0.32121 0.98402 0.36728 0.0
O99 O 0.29195 0.96003 0.3164 0.0
O100 O 0.25131 0.94681 0.33473 0.0
Mg101 Mg 0.25515 0.96445 0.39599 0.0
C102 C 0.26703 0.94743 0.30991 0.0
C103 C 0.3787 0.00816 0.34048 0.0
O104 O 0.38524 0.01701 0.37669 0.0
O105 O 0.31691 0.02038 0.3553 0.0
O106 O 0.27744 0.00837 0.37689 0.0
O107 O 0.31715 0.94652 0.38959 0.0
O108 O 0.29197 0.96353 0.40497 0.0
C109 C 0.29877 0.02564 0.36259 0.0
C110 C 0.29706 0.94421 0.4068 0.0
O111 O 0.35469 0.99624 0.32834 0.0
Mg112 Mg 0.02551 0.31131 0.28509 0.0
O113 O 0.05577 0.32174 0.33619 0.0
O114 O 0.09518 0.35299 0.31833 0.0
Mg115 Mg 0.09037 0.36259 0.25658 0.0
C116 C 0.08049 0.33738 0.34321 0.0
C117 C 0.9684 0.27299 0.31052 0.0
O118 O 0.96253 0.27172 0.27342 0.0
O119 O 0.02574 0.35101 0.2965 0.0
O120 O 0.0652 0.38047 0.27656 0.0
O121 O 0.03388 0.27981 0.26232 0.0
O122 O 0.05542 0.32255 0.24809 0.0
C123 C 0.0433 0.37505 0.29024 0.0
C124 C 0.0531 0.29911 0.24581 0.0
O125 O 0.99198 0.28827 0.3237 0.0
Mg126 Mg 0.65641 0.97792 0.38367 0.0
O127 O 0.66037 0.95569 0.33003 0.0
O128 O 0.69431 0.94945 0.3445 0.0
Mg129 Mg 0.71169 0.96689 0.40502 0.0
C130 C 0.67561 0.94665 0.32138 0.0
C131 C 0.60511 0.97708 0.34687 0.0
O132 O 0.59225 0.95297 0.36007 0.0
O133 O 0.69292 0.01713 0.36941 0.0
O134 O 0.72581 0.00989 0.38581 0.0
O135 O 0.62926 0.93858 0.4086 0.0
O136 O 0.67255 0.96008 0.41756 0.0
C137 C 0.71746 0.02514 0.37337 0.0
C138 C 0.65024 0.93902 0.42233 0.0
O139 O 0.6301 0.99035 0.35086 0.0
Mg140 Mg 0.03327 0.69821 0.29966 0.0
O141 O 0.06111 0.72224 0.35212 0.0
O142 O 0.10224 0.73685 0.33467 0.0
Mg143 Mg 0.10038 0.72051 0.27324 0.0
C144 C 0.08602 0.73547 0.35914 0.0
C145 C 0.97839 0.68436 0.32382 0.0
O146 O 0.97964 0.69582 0.29123 0.0
O147 O 0.03918 0.66287 0.31118 0.0
O148 O 0.07921 0.67617 0.29086 0.0
O149 O 0.03623 0.73552 0.27779 0.0
O150 O 0.0631 0.72037 0.26377 0.0
C151 C 0.05785 0.65834 0.30443 0.0
C152 C 0.05706 0.73899 0.26156 0.0
O153 O 0.99776 0.68191 0.33572 0.0
Mg154 Mg 0.33287 0.37314 0.38464 0.0
O155 O 0.30363 0.3641 0.33245 0.0
O156 O 0.26356 0.33421 0.35014 0.0
Mg157 Mg 0.26676 0.32422 0.41215 0.0
C158 C 0.27878 0.34929 0.32526 0.0
C159 C 0.38352 0.41889 0.34945 0.0
O160 O 0.37863 0.43427 0.37221 0.0
O161 O 0.33032 0.33228 0.37423 0.0
O162 O 0.29027 0.30411 0.39351 0.0
O163 O 0.32617 0.40615 0.40661 0.0
O164 O 0.30262 0.3635 0.42039 0.0
C165 C 0.31203 0.30856 0.38037 0.0
C166 C 0.30615 0.38742 0.42257 0.0
O167 O 0.36812 0.39358 0.3478 0.0
Mg168 Mg 0.3659 0.04039 0.61855 0.0
O169 O 0.36184 0.06291 0.67165 0.0
O170 O 0.329 0.07057 0.65558 0.0
Mg171 Mg 0.31277 0.05448 0.59421 0.0
C172 C 0.3469 0.07246 0.67959 0.0
C173 C 0.41639 0.0407 0.6559 0.0
O174 O 0.42878 0.06461 0.64195 0.0
O175 O 0.32786 1.002 0.63176 0.0
O176 O 0.29661 0.01114 0.61271 0.0
O177 O 0.3945 0.07952 0.59403 0.0
O178 O 0.35134 0.05923 0.58393 0.0
C179 C 0.3036 0.99506 0.62609 0.0
C180 C 0.37404 0.07981 0.57965 0.0
O181 O 0.39136 0.02712 0.65236 0.0
Mg182 Mg 0.98797 0.32359 0.69433 0.0
O183 O 0.9579 0.30178 0.64344 0.0
O184 O 0.91858 0.29423 0.66045 0.0
Mg185 Mg 0.92338 0.30979 0.72312 0.0
C186 C 0.93337 0.29265 0.6358 0.0
C187 C 0.04553 0.34585 0.66855 0.0
O188 O 0.05176 0.35618 0.70412 0.0
O189 O 0.98752 0.3622 0.68337 0.0
O190 O 0.94911 0.35349 0.70589 0.0
O191 O 0.98055 0.28486 0.71616 0.0
O192 O 0.95812 0.30493 0.73174 0.0
C193 C 0.97092 0.36949 0.69156 0.0
C194 C 0.9614 0.28444 0.73385 0.0
O195 O 0.02157 0.33351 0.65598 0.0
Mg196 Mg 0.68848 0.64087 0.61508 0.0
O197 O 0.71635 0.64898 0.66895 0.0
O198 O 0.75673 0.67932 0.65293 0.0
Mg199 Mg 0.7552 0.69037 0.59106 0.0
C200 C 0.74109 0.66384 0.67712 0.0
C201 C 0.63381 0.59636 0.64101 0.0
O202 O 0.63657 0.58217 0.61323 0.0
O203 O 0.69078 0.68136 0.6258 0.0
O204 O 0.73108 0.71016 0.60811 0.0
O205 O 0.69558 0.60811 0.59313 0.0
O206 O 0.7196 0.65107 0.58118 0.0
C207 C 0.70894 0.70523 0.6203 0.0
C208 C 0.71606 0.62717 0.57842 0.0
O209 O 0.65202 0.62038 0.64922 0.0
Mg210 Mg 0.31989 0.30416 0.71016 0.0
O211 O 0.32471 0.28133 0.65844 0.0
O212 O 0.35783 0.27419 0.67449 0.0
Mg213 Mg 0.37384 0.2916 0.73562 0.0
C214 C 0.33968 0.27184 0.65061 0.0
C215 C 0.27811 0.32146 0.68828 0.0
O216 O 0.27829 0.32393 0.72598 0.0
O217 O 0.35741 0.34306 0.69649 0.0
O218 O 0.389 0.33453 0.71597 0.0
O219 O 0.29194 0.26519 0.73515 0.0
O220 O 0.33511 0.28659 0.74636 0.0
C221 C 0.38174 0.35034 0.7023 0.0
C222 C 0.31259 0.26565 0.75039 0.0
O223 O 0.29327 0.3143 0.67333 0.0
Mg224 Mg 0.70532 0.02573 0.64686 0.0
O225 O 0.73274 0.04897 0.70003 0.0
O226 O 0.77284 0.05693 0.68677 0.0
Mg227 Mg 0.77143 0.03985 0.62618 0.0
C228 C 0.75723 0.05904 0.70929 0.0
C229 C 0.65155 0.01898 0.66718 0.0
O230 O 0.65495 0.03081 0.63445 0.0
O231 O 0.70564 0.98748 0.66087 0.0
O232 O 0.745 0.99617 0.6427 0.0
O233 O 0.71389 0.06428 0.62271 0.0
O234 O 0.73695 0.04418 0.61208 0.0
C235 C 0.7225 0.98014 0.65508 0.0
C236 C 0.73392 0.06466 0.60781 0.0
O237 O 0.66902 0.01396 0.68044 0.0
Mg238 Mg 0.99616 0.7068 0.71578 0.0
O239 O 0.9674 0.69652 0.66252 0.0
O240 O 0.92762 0.66539 0.6795 0.0
Mg241 Mg 0.93043 0.65591 0.74189 0.0
C242 C 0.94275 0.68075 0.65476 0.0
C243 C 0.05025 0.75166 0.68767 0.0
O244 O 0.04873 0.76565 0.71696 0.0
O245 O 0.99549 0.667 0.70636 0.0
O246 O 0.95568 0.63747 0.72496 0.0
O247 O 0.98744 0.73867 0.73691 0.0
O248 O 0.96529 0.69587 0.75049 0.0
C249 C 0.97792 0.643 0.7125 0.0
C250 C 0.96769 0.71931 0.75253 0.0
O251 O 0.03166 0.72776 0.6798 0.0
H252 H 0.26861 0.34734 0.14879 0.0
H253 H 0.20558 0.33011 0.06548 0.0
H254 H 0.19696 0.33954 0.18686 0.0
H255 H 0.15677 0.3031 0.16897 0.0
H256 H 0.09731 0.31094 0.10634 0.0
H257 H 0.17534 0.34815 0.06603 0.0
C258 C 0.24921 0.34453 0.14208 0.0
C259 C 0.23405 0.34422 0.17219 0.0
C260 C 0.2395 0.34025 0.10356 0.0
C261 C 0.21346 0.33426 0.09511 0.0
C262 C 0.19757 0.33333 0.12513 0.0
C263 C 0.20844 0.33908 0.1635 0.0
C264 C 0.16945 0.3256 0.11738 0.0
C265 C 0.15094 0.31022 0.14408 0.0
C266 C 0.12509 0.30512 0.14029 0.0
C267 C 0.11713 0.31409 0.10851 0.0
C268 C 0.13506 0.32976 0.08187 0.0
C269 C 0.16123 0.3352 0.08584 0.0
H270 H 0.66086 0.92656 0.14497 0.0
H271 H 0.67016 0.87404 0.06571 0.0
H272 H 0.66797 0.86159 0.18823 0.0
H273 H 0.69479 0.84675 0.1762 0.0
H274 H 0.68706 0.78148 0.10488 0.0
H275 H 0.655 0.82893 0.06253 0.0
C276 C 0.66293 0.90904 0.1399 0.0
C277 C 0.66478 0.89523 0.17103 0.0
C278 C 0.66432 0.9011 0.10213 0.0
C279 C 0.66823 0.87926 0.09508 0.0
C280 C 0.67016 0.8648 0.12609 0.0
C281 C 0.66776 0.87279 0.16393 0.0
C282 C 0.67524 0.84192 0.11948 0.0
C283 C 0.68809 0.83534 0.14885 0.0
C284 C 0.6921 0.81348 0.14362 0.0
C285 C 0.68475 0.79898 0.10824 0.0
C286 C 0.67157 0.80456 0.07886 0.0
C287 C 0.66645 0.82575 0.08465 0.0
H288 H 0.25782 0.91245 0.13281 0.0
H289 H 0.19012 0.85813 0.06026 0.0
H290 H 0.18605 0.86107 0.18411 0.0
H291 H 0.1457 0.84572 0.17351 0.0
H292 H 0.08308 0.77542 0.11654 0.0
H293 H 0.15674 0.81568 0.06378 0.0
C294 C 0.23716 0.89735 0.12984 0.0
C295 C 0.22268 0.88923 0.16266 0.0
C296 C 0.22557 0.8863 0.09304 0.0
C297 C 0.19901 0.86588 0.08895 0.0
C298 C 0.184 0.85636 0.12168 0.0
C299 C 0.19654 0.86807 0.15839 0.0
C300 C 0.15535 0.83478 0.11814 0.0
C301 C 0.13885 0.83195 0.14846 0.0
C302 C 0.11338 0.81007 0.14852 0.0
C303 C 0.10262 0.79284 0.11581 0.0
C304 C 0.11795 0.79497 0.08488 0.0
C305 C 0.14455 0.81553 0.08642 0.0
H306 H 0.3597 0.09036 0.85727 0.0
H307 H 0.34843 0.14174 0.93634 0.0
H308 H 0.35018 0.15398 0.81397 0.0
H309 H 0.31946 0.1643 0.82709 0.0
H310 H 0.32848 0.23209 0.89363 0.0
H311 H 0.36466 0.18849 0.9367 0.0
C312 C 0.357 0.10749 0.86229 0.0
C313 C 0.35473 0.12105 0.83111 0.0
C314 C 0.35522 0.11518 0.90006 0.0
C315 C 0.35053 0.13652 0.90704 0.0
C316 C 0.34799 0.1505 0.87593 0.0
C317 C 0.35084 0.1429 0.83818 0.0
C318 C 0.34174 0.1725 0.88215 0.0
C319 C 0.32692 0.17697 0.85336 0.0
C320 C 0.32236 0.19853 0.85735 0.0
C321 C 0.33104 0.2147 0.89135 0.0
C322 C 0.34621 0.21119 0.92007 0.0
C323 C 0.35177 0.19022 0.91536 0.0
H324 H 0.77092 0.09864 0.88362 0.0
H325 H 0.83523 0.16464 0.94849 0.0
H326 H 0.83439 0.15665 0.8238 0.0
H327 H 0.87448 0.18112 0.82733 0.0
H328 H 0.93747 0.25108 0.88331 0.0
H329 H 0.86876 0.20469 0.94523 0.0
C330 C 0.7899 0.11688 0.88444 0.0
C331 C 0.80242 0.12565 0.85031 0.0
C332 C 0.8014 0.13128 0.91959 0.0
C333 C 0.82641 0.15458 0.92073 0.0
C334 C 0.83976 0.16409 0.88649 0.0
C335 C 0.82657 0.14963 0.8513 0.0
C336 C 0.86728 0.18829 0.88688 0.0
C337 C 0.88186 0.19378 0.8534 0.0
C338 C 0.90656 0.21656 0.85205 0.0
C339 C 0.9185 0.23301 0.88507 0.0
C340 C 0.90514 0.22859 0.91884 0.0
C341 C 0.87927 0.20667 0.91958 0.0
H342 H 0.75131 0.66539 0.85464 0.0
H343 H 0.81627 0.68524 0.93567 0.0
H344 H 0.82158 0.67045 0.81482 0.0
H345 H 0.86197 0.70835 0.83037 0.0
H346 H 0.92377 0.70447 0.89273 0.0
H347 H 0.84634 0.66622 0.93576 0.0
C348 C 0.77092 0.66861 0.86069 0.0
C349 C 0.78521 0.66739 0.83026 0.0
C350 C 0.78184 0.67488 0.89869 0.0
C351 C 0.80752 0.67961 0.90651 0.0
C352 C 0.82238 0.67867 0.87621 0.0
C353 C 0.81069 0.67188 0.83834 0.0
C354 C 0.85069 0.68678 0.88286 0.0
C355 C 0.86855 0.70202 0.8554 0.0
C356 C 0.89481 0.70843 0.859 0.0
C357 C 0.90372 0.70066 0.8912 0.0
C358 C 0.88661 0.68557 0.91922 0.0
C359 C 0.85991 0.67856 0.91492 0.0
H360 H 0.93185 0.67719 0.47591 0.0
H361 H 0.86648 0.65729 0.39567 0.0
H362 H 0.86055 0.6687 0.51728 0.0
H363 H 0.81972 0.63214 0.50064 0.0
H364 H 0.75988 0.64012 0.43915 0.0
H365 H 0.83739 0.67654 0.39717 0.0
C366 C 0.91193 0.67318 0.47023 0.0
C367 C 0.89734 0.67317 0.50107 0.0
C368 C 0.90108 0.66767 0.4322 0.0
C369 C 0.87511 0.66219 0.42492 0.0
C370 C 0.86 0.66189 0.45558 0.0
C371 C 0.87158 0.66795 0.49346 0.0
C372 C 0.83191 0.6544 0.44882 0.0
C373 C 0.81367 0.63924 0.47595 0.0
C374 C 0.78779 0.63412 0.47257 0.0
C375 C 0.77968 0.64322 0.44104 0.0
C376 C 0.79739 0.65862 0.41396 0.0
C377 C 0.82347 0.66386 0.41741 0.0
H378 H 0.32534 0.25324 0.47389 0.0
H379 H 0.33567 0.20171 0.39354 0.0
H380 H 0.33463 0.1892 0.51582 0.0
H381 H 0.36657 0.18064 0.50151 0.0
H382 H 0.3565 0.1115 0.43761 0.0
H383 H 0.3187 0.15358 0.39419 0.0
C384 C 0.32779 0.23599 0.46843 0.0
C385 C 0.33014 0.22225 0.49931 0.0
C386 C 0.3293 0.22844 0.43045 0.0
C387 C 0.33374 0.20692 0.42294 0.0
C388 C 0.33639 0.19278 0.45382 0.0
C389 C 0.3338 0.20034 0.49177 0.0
C390 C 0.34286 0.17092 0.44751 0.0
C391 C 0.35856 0.16734 0.47588 0.0
C392 C 0.36324 0.14584 0.47249 0.0
C393 C 0.3538 0.12882 0.43936 0.0
C394 C 0.3378 0.13141 0.41101 0.0
C395 C 0.33213 0.1524 0.41515 0.0
H396 H 0.92068 0.25837 0.45813 0.0
H397 H 0.86187 0.18613 0.39699 0.0
H398 H 0.84951 0.20811 0.51144 0.0
H399 H 0.82689 0.16602 0.51751 0.0
H400 H 0.7575 0.10279 0.46046 0.0
H401 H 0.81892 0.15818 0.39241 0.0
C402 C 0.9016 0.24021 0.45711 0.0
C403 C 0.88659 0.23419 0.48927 0.0
C404 C 0.89268 0.22314 0.42382 0.0
C405 C 0.86788 0.19963 0.42234 0.0
C406 C 0.85181 0.1933 0.45416 0.0
C407 C 0.8613 0.21159 0.4869 0.0
C408 C 0.82587 0.16748 0.45471 0.0
C409 C 0.8156 0.15722 0.49054 0.0
C410 C 0.79067 0.1348 0.4923 0.0
C411 C 0.77622 0.12113 0.45854 0.0
C412 C 0.78676 0.12875 0.4227 0.0
C413 C 0.81138 0.15225 0.4205 0.0
H414 H 0.02786 0.4283 0.19564 0.0
H415 H 0.01892 0.48115 0.27537 0.0
H416 H 0.02089 0.49358 0.15309 0.0
H417 H 0.98886 0.50253 0.1673 0.0
H418 H 1.00094 0.57293 0.23 0.0
H419 H 0.03764 0.52988 0.27376 0.0
C420 C 0.02584 0.44584 0.20093 0.0
C421 C 0.02429 0.45992 0.16992 0.0
C422 C 0.02432 0.45357 0.23881 0.0
C423 C 0.02071 0.47567 0.24605 0.0
C424 C 0.01869 0.49002 0.215 0.0
C425 C 0.02123 0.48225 0.1772 0.0
C426 C 0.01293 0.51239 0.22095 0.0
C427 C 0.99728 0.51609 0.19262 0.0
C428 C 0.99312 0.53794 0.19576 0.0
C429 C 1.00325 0.55537 0.22844 0.0
C430 C 0.01928 0.55268 0.25662 0.0
C431 C 0.02428 0.53123 0.25287 0.0
H432 H 0.43598 0.42907 0.20372 0.0
H433 H 0.49597 0.49676 0.27122 0.0
H434 H 0.5119 0.47518 0.15945 0.0
H435 H 0.5328 0.51807 0.15253 0.0
H436 H 0.60211 0.58032 0.21134 0.0
H437 H 0.53943 0.52459 0.27757 0.0
C438 C 0.45617 0.44529 0.207 0.0
C439 C 0.47266 0.4508 0.17651 0.0
C440 C 0.46505 0.46075 0.24188 0.0
C441 C 0.49007 0.48402 0.24507 0.0
C442 C 0.50708 0.49046 0.2145 0.0
C443 C 0.49851 0.4724 0.18163 0.0
C444 C 0.53328 0.51602 0.21516 0.0
C445 C 0.54395 0.52662 0.17972 0.0
C446 C 0.569 0.54893 0.17859 0.0
C447 C 0.58328 0.56202 0.21275 0.0
C448 C 0.57235 0.55408 0.24835 0.0
C449 C 0.54745 0.53076 0.24979 0.0
H450 H 0.42241 1.00367 0.18809 0.0
H451 H 0.48611 0.02125 0.27024 0.0
H452 H 0.49435 0.01296 0.14852 0.0
H453 H 0.53456 0.04955 0.1667 0.0
H454 H 0.59468 0.04298 0.22962 0.0
H455 H 0.51646 1.00442 0.2694 0.0
C456 C 0.44197 1.00681 0.19438 0.0
C457 C 0.45709 1.00757 0.16392 0.0
C458 C 0.45193 0.01096 0.23278 0.0
C459 C 0.47809 0.01725 0.24069 0.0
C460 C 0.4939 0.01862 0.21035 0.0
C461 C 0.48288 0.01306 0.17212 0.0
C462 C 0.52207 0.02659 0.21783 0.0
C463 C 0.54054 0.04244 0.19147 0.0
C464 C 0.56663 0.04829 0.19562 0.0
C465 C 0.57477 0.03957 0.22758 0.0
C466 C 0.55699 0.02393 0.25455 0.0
C467 C 0.5305 0.01732 0.24948 0.0
H468 H 0.60399 0.01959 0.81375 0.0
H469 H 0.539 0.99896 0.73243 0.0
H470 H 0.53298 0.01292 0.85331 0.0
H471 H 0.49278 0.97478 0.83735 0.0
H472 H 0.43078 0.97791 0.77425 0.0
H473 H 0.5085 0.01732 0.73233 0.0
C474 C 0.58427 0.01605 0.80764 0.0
C475 C 0.56974 0.01684 0.83803 0.0
C476 C 0.57346 0.00977 0.76959 0.0
C477 C 0.54763 1.00457 0.76166 0.0
C478 C 0.53251 1.00504 0.79191 0.0
C479 C 0.54408 0.01184 0.82984 0.0
C480 C 0.50412 0.99657 0.78504 0.0
C481 C 0.48619 0.98105 0.81228 0.0
C482 C 0.4598 0.97424 0.80833 0.0
C483 C 0.45091 0.98198 0.77605 0.0
C484 C 0.46812 0.9974 0.74835 0.0
C485 C 0.49489 1.00474 0.75295 0.0
H486 H 0.99504 0.59205 0.81079 0.0
H487 H 1.00859 0.54223 0.732 0.0
H488 H 1.00671 0.52983 0.85436 0.0
H489 H 0.0375 0.51986 0.84211 0.0
H490 H 0.03122 0.45362 0.77482 0.0
H491 H 0.99442 0.49636 0.73077 0.0
C492 C 0.99837 0.57532 0.80586 0.0
C493 C 1.00114 0.56208 0.8371 0.0
C494 C 1.0005 0.56785 0.76814 0.0
C495 C 1.00614 0.54716 0.76126 0.0
C496 C 1.0091 0.53344 0.79241 0.0
C497 C 1.0058 0.54074 0.8301 0.0
C498 C 0.01616 0.512 0.78624 0.0
C499 C 0.03072 0.50754 0.81549 0.0
C500 C 0.03587 0.48638 0.81153 0.0
C501 C 0.02822 0.47074 0.77708 0.0
C502 C 0.01339 0.47425 0.74781 0.0
C503 C 1.00713 0.49473 0.75254 0.0
H504 H 0.58505 0.58519 0.78643 0.0
H505 H 0.52026 0.52035 0.72044 0.0
H506 H 0.52128 0.5264 0.84522 0.0
H507 H 0.48061 0.50452 0.84031 0.0
H508 H 0.41803 0.43372 0.785 0.0
H509 H 0.48754 0.47924 0.72418 0.0
C510 C 0.56601 0.56703 0.78532 0.0
C511 C 0.55347 0.55785 0.81937 0.0
C512 C 0.55442 0.55312 0.74987 0.0
C513 C 0.52927 0.52999 0.74834 0.0
C514 C 0.51595 0.52014 0.78246 0.0
C515 C 0.52922 0.53394 0.81793 0.0
C516 C 0.48831 0.49627 0.78169 0.0
C517 C 0.47337 0.49139 0.81464 0.0
C518 C 0.44866 0.4686 0.81605 0.0
C519 C 0.437 0.45178 0.78323 0.0
C520 C 0.4507 0.45578 0.74985 0.0
C521 C 0.47665 0.47758 0.74931 0.0
H522 H 0.69167 0.75705 0.52343 0.0
H523 H 0.68162 0.80863 0.60352 0.0
H524 H 0.68214 0.82074 0.48093 0.0
H525 H 0.65526 0.83522 0.49369 0.0
H526 H 0.66366 0.90084 0.56488 0.0
H527 H 0.69592 0.85346 0.60673 0.0
C528 C 0.68907 0.77421 0.52875 0.0
C529 C 0.68645 0.78773 0.4978 0.0
C530 C 0.68788 0.78206 0.56665 0.0
C531 C 0.68335 0.80346 0.57402 0.0
C532 C 0.68065 0.81762 0.54317 0.0
C533 C 0.68286 0.80973 0.50516 0.0
C534 C 0.67525 0.84025 0.5501 0.0
C535 C 0.66214 0.8467 0.52097 0.0
C536 C 0.65826 0.86865 0.52619 0.0
C537 C 0.66581 0.88323 0.56153 0.0
C538 C 0.67918 0.87773 0.59074 0.0
C539 C 0.68425 0.85651 0.58483 0.0
H540 H 0.09572 0.77044 0.53672 0.0
H541 H 0.16381 0.82496 0.60832 0.0
H542 H 0.16691 0.82226 0.48427 0.0
H543 H 0.20739 0.83779 0.49431 0.0
H544 H 0.27043 0.9076 0.5516 0.0
H545 H 0.19688 0.86752 0.60467 0.0
C546 C 0.11635 0.78566 0.53932 0.0
C547 C 0.13051 0.7939 0.50623 0.0
C548 C 0.12824 0.7967 0.57596 0.0
C549 C 0.15473 0.81724 0.57971 0.0
C550 C 0.16942 0.8269 0.54675 0.0
C551 C 0.15663 0.81518 0.51015 0.0
C552 C 0.19803 0.84852 0.55005 0.0
C553 C 0.21438 0.85142 0.51951 0.0
C554 C 0.23992 0.87317 0.51952 0.0
C555 C 0.25084 0.89027 0.55233 0.0
C556 C 0.23561 0.88816 0.58337 0.0
C557 C 0.20897 0.86768 0.58188 0.0
H558 H 0.09118 0.34011 0.51988 0.0
H559 H 0.15438 0.3576 0.60301 0.0
H560 H 0.16331 0.34937 0.48144 0.0
H561 H 0.20357 0.38557 0.49983 0.0
H562 H 0.26249 0.37634 0.5616 0.0
H563 H 0.18448 0.33957 0.60183 0.0
C564 C 0.11071 0.34327 0.52649 0.0
C565 C 0.12602 0.34405 0.4963 0.0
C566 C 0.12041 0.34739 0.56502 0.0
C567 C 0.14655 0.35366 0.57336 0.0
C568 C 0.16256 0.35504 0.54325 0.0
C569 C 0.15176 0.34953 0.50488 0.0
C570 C 0.19066 0.36264 0.55098 0.0
C571 C 0.20928 0.37813 0.52447 0.0
C572 C 0.23503 0.3829 0.52807 0.0
C573 C 0.24277 0.37345 0.55954 0.0
C574 C 0.22473 0.35769 0.58602 0.0
C575 C 0.19868 0.35261 0.5822 0.0
C576 C 0.039 0.42826 0.08425 0.0
C577 C 0.01984 0.42559 0.0563 0.0
H578 H 0.05588 0.4418 0.14177 0.0
C579 C 1.00346 0.43608 0.06525 0.0
H580 H 0.05211 0.42066 0.07826 0.0
C581 C 1.00561 0.44815 0.10164 0.0
C582 C 0.02418 0.45002 0.12996 0.0
H583 H 0.98856 0.43454 0.0444 0.0
H584 H 0.99205 0.45512 0.10802 0.0
C585 C 0.04115 0.44035 0.12067 0.0
C586 C 0.61677 0.58206 0.10247 0.0
C587 C 0.60683 0.59741 0.08596 0.0
H588 H 0.6122 0.55425 0.14536 0.0
C589 C 0.58205 0.59299 0.09569 0.0
H590 H 0.63582 0.58503 0.09549 0.0
C591 C 0.56834 0.57493 0.12351 0.0
C592 C 0.57941 0.56138 0.14226 0.0
H593 H 0.57377 0.60429 0.08319 0.0
H594 H 0.55006 0.57306 0.13241 0.0
C595 C 0.60329 0.56439 0.1308 0.0
C596 C 0.45023 0.01994 0.05888 0.0
C597 C 0.42353 1.00138 0.0493 0.0
H598 H 0.48169 0.0365 0.10248 0.0
C599 C 0.40847 0.98362 0.07698 0.0
H600 H 0.46249 0.03389 0.03825 0.0
C601 C 0.41966 0.98491 0.1137 0.0
C602 C 0.44611 1.00409 0.12365 0.0
H603 H 0.38796 0.96886 0.07047 0.0
H604 H 0.40748 0.97109 0.13452 0.0
C605 C 0.46136 0.0213 0.09563 0.0
C606 C 0.43213 0.97646 0.90222 0.0
C607 C 0.40534 0.95837 0.8936 0.0
H608 H 0.47088 0.99494 0.8819 0.0
C609 C 0.39751 0.94092 0.86071 0.0
H610 H 0.43852 0.98998 0.92764 0.0
C611 C 0.41601 0.94389 0.83425 0.0
C612 C 0.44248 0.9641 0.84084 0.0
H613 H 0.37687 0.92696 0.85351 0.0
H614 H 0.40929 0.93209 0.80714 0.0
C615 C 0.45065 0.97912 0.87619 0.0
C616 C 0.02743 0.44899 0.90085 0.0
C617 C 0.04624 0.44099 0.89719 0.0
H618 H 0.01029 0.47099 0.87708 0.0
C619 C 0.06512 0.45257 0.86967 0.0
H620 H 0.01298 0.4407 0.92235 0.0
C621 C 0.06347 0.46976 0.84352 0.0
C622 C 0.04335 0.47613 0.84533 0.0
H623 H 0.07982 0.44666 0.8664 0.0
H624 H 0.07673 0.4766 0.8203 0.0
C625 C 0.02617 0.46666 0.87538 0.0
C626 C 0.60325 0.60313 0.8994 0.0
C627 C 0.58726 0.60746 0.92431 0.0
H628 H 0.60509 0.58358 0.84722 0.0
C629 C 0.56008 0.59486 0.91473 0.0
H630 H 0.62421 0.61231 0.90601 0.0
C631 C 0.54917 0.57839 0.88114 0.0
C632 C 0.56512 0.57411 0.85621 0.0
H633 H 0.54711 0.59765 0.9332 0.0
H634 H 0.52824 0.56942 0.87431 0.0
C635 C 0.59229 0.58664 0.86572 0.0
C636 C 0.9854 0.59311 0.92262 0.0
C637 C 1.005 0.59664 0.95038 0.0
H638 H 0.96829 0.57872 0.86536 0.0
C639 C 0.02202 0.58694 0.94137 0.0
H640 H 0.9718 0.60006 0.92869 0.0
C641 C 0.02006 0.57481 0.90514 0.0
C642 C 1.00101 0.57201 0.87697 0.0
H643 H 0.0373 0.58916 0.96205 0.0
H644 H 0.03414 0.56854 0.89876 0.0
C645 C 0.98341 0.58089 0.88632 0.0
C646 C 0.4375 0.43159 0.90589 0.0
C647 C 0.41099 0.42313 0.9107 0.0
H648 H 0.47075 0.45416 0.87255 0.0
C649 C 0.39853 0.43424 0.88892 0.0
H650 H 0.44757 0.42356 0.92276 0.0
C651 C 0.41165 0.45144 0.85985 0.0
C652 C 0.4376 0.45834 0.85321 0.0
H653 H 0.37803 0.42792 0.89221 0.0
H654 H 0.40104 0.45786 0.84092 0.0
C655 C 0.45083 0.44936 0.87761 0.0
C656 C 0.57569 1.00409 0.94308 0.0
C657 C 0.60266 0.0214 0.95268 0.0
H658 H 0.54428 0.98908 0.89964 0.0
C659 C 0.61834 0.03878 0.92506 0.0
H660 H 0.56292 0.99048 0.96361 0.0
C661 C 0.60744 0.03823 0.88834 0.0
C662 C 0.58066 0.02021 0.87839 0.0
H663 H 0.63909 0.05258 0.93158 0.0
H664 H 0.62009 0.05163 0.86751 0.0
C665 C 0.56486 1.00348 0.90643 0.0
C666 C 0.59349 0.04517 0.10151 0.0
C667 C 0.62046 0.06228 0.11021 0.0
H668 H 0.55486 0.02812 0.12186 0.0
C669 C 0.62894 0.07961 0.1433 0.0
H670 H 0.58662 0.03177 0.07592 0.0
C671 C 0.61078 0.07736 0.16991 0.0
C672 C 0.58402 0.05804 0.1632 0.0
H673 H 0.64973 0.09283 0.15052 0.0
H674 H 0.61788 0.08895 0.19716 0.0
C675 C 0.57533 0.04327 0.12766 0.0
C676 C 0.96143 0.5701 0.1394 0.0
C677 C 0.97876 0.58033 0.10967 0.0
H678 H 0.95235 0.54805 0.19075 0.0
C679 C 0.99685 0.57158 0.10416 0.0
H680 H 0.94738 0.57668 0.14418 0.0
C681 C 0.99914 0.55463 0.12996 0.0
C682 C 0.98379 0.54672 0.16216 0.0
H683 H 0.01016 0.57895 0.08108 0.0
H684 H 0.01463 0.54984 0.12678 0.0
C685 C 0.96417 0.55366 0.16585 0.0
C686 C 0.46056 0.43331 0.06844 0.0
C687 C 0.43917 0.40706 0.06704 0.0
H688 H 0.48717 0.46807 0.10364 0.0
C689 C 0.42984 0.39448 0.10144 0.0
H690 H 0.46796 0.4434 0.04209 0.0
C691 C 0.44163 0.40808 0.13691 0.0
C692 C 0.4623 0.435 0.13874 0.0
H693 H 0.41356 0.37405 0.10088 0.0
H694 H 0.43424 0.39745 0.16281 0.0
C695 C 0.47174 0.4473 0.10386 0.0
C696 C 0.70107 0.75606 0.41218 0.0
C697 C 0.68079 0.75171 0.38512 0.0
H698 H 0.71919 0.7715 0.46867 0.0
C699 C 0.66376 0.76134 0.3944 0.0
H700 H 0.71472 0.74919 0.4059 0.0
C701 C 0.66638 0.77416 0.43036 0.0
C702 C 0.68602 0.77758 0.45789 0.0
H703 H 0.64803 0.75854 0.37418 0.0
H704 H 0.65234 0.78041 0.43716 0.0
C705 C 0.70365 0.76885 0.44815 0.0
C706 C 0.29326 0.91006 0.45225 0.0
C707 C 0.28104 0.92064 0.42886 0.0
H708 H 0.28934 0.88585 0.50009 0.0
C709 C 0.2539 0.91036 0.4299 0.0
H710 H 0.31422 0.91767 0.45172 0.0
C711 C 0.23957 0.89152 0.45646 0.0
C712 C 0.25236 0.88326 0.48299 0.0
H713 H 0.24399 0.91782 0.41152 0.0
H714 H 0.21907 0.88556 0.45884 0.0
C715 C 0.27906 0.89171 0.47959 0.0
C716 C 0.11928 0.35639 0.39114 0.0
C717 C 0.09261 0.33775 0.38154 0.0
H718 H 0.15071 0.37303 0.43486 0.0
C719 C 0.07764 0.31981 0.40912 0.0
H720 H 0.13146 0.37045 0.37056 0.0
C721 C 0.08883 0.32111 0.44582 0.0
C722 C 0.11519 0.34046 0.45589 0.0
H723 H 0.05716 0.30498 0.4026 0.0
H724 H 0.07668 0.30721 0.46659 0.0
C725 C 0.13043 0.35774 0.42791 0.0
C726 C 0.06353 0.27594 0.19406 0.0
C727 C 0.07212 0.29491 0.22526 0.0
H728 H 0.07425 0.26413 0.1418 0.0
C729 C 0.09905 0.31286 0.23262 0.0
H730 H 0.04276 0.26199 0.18797 0.0
C731 C 0.11704 0.31358 0.20702 0.0
C732 C 0.10817 0.2968 0.17325 0.0
H733 H 0.10602 0.32745 0.25682 0.0
H734 H 0.13747 0.32915 0.21158 0.0
C735 C 0.08148 0.27708 0.16785 0.0
C736 C 0.68277 0.77196 0.22884 0.0
C737 C 0.70332 0.76638 0.2259 0.0
H738 H 0.6639 0.79257 0.2057 0.0
C739 C 0.72286 0.7803 0.20001 0.0
H740 H 0.66775 0.76187 0.24907 0.0
C741 C 0.72053 0.79769 0.17496 0.0
C742 C 0.69908 0.80201 0.17637 0.0
H743 H 0.73891 0.77632 0.19728 0.0
H744 H 0.73459 0.80655 0.15303 0.0
C745 C 0.68081 0.78985 0.20452 0.0
C746 C 0.23726 0.90509 0.27117 0.0
C747 C 0.25595 0.93253 0.27264 0.0
H748 H 0.21332 0.86944 0.23573 0.0
C749 C 0.26413 0.94559 0.23831 0.0
H750 H 0.23097 0.89462 0.29752 0.0
C751 C 0.25323 0.93157 0.20287 0.0
C752 C 0.23461 0.90385 0.20088 0.0
H753 H 0.27844 0.96683 0.23894 0.0
H754 H 0.25913 0.94275 0.1771 0.0
C755 C 0.22702 0.89077 0.23567 0.0
C756 C 0.68761 0.92118 0.27451 0.0
C757 C 0.67153 0.93203 0.28362 0.0
H758 H 0.69796 0.90099 0.23205 0.0
C759 C 0.65175 0.92872 0.25635 0.0
H760 H 0.70293 0.92313 0.29487 0.0
C761 C 0.64876 0.91569 0.22037 0.0
C762 C 0.66546 0.9057 0.21087 0.0
H763 H 0.63884 0.93653 0.26251 0.0
H764 H 0.63362 0.91382 0.19969 0.0
C765 C 0.68459 0.90817 0.23861 0.0
C766 C 0.09998 0.77387 0.23911 0.0
C767 C 0.0727 0.76282 0.23972 0.0
H768 H 0.13471 0.79915 0.21029 0.0
C769 C 0.06006 0.77266 0.21571 0.0
H770 H 0.1102 0.76698 0.25792 0.0
C771 C 0.07403 0.79095 0.18817 0.0
C772 C 0.10091 0.80008 0.18513 0.0
H773 H 0.03899 0.76444 0.21587 0.0
H774 H 0.06348 0.7962 0.16723 0.0
C775 C 0.11405 0.79264 0.21232 0.0
C776 C 0.2402 0.33134 0.27719 0.0
C777 C 0.26701 0.34937 0.28686 0.0
H778 H 0.20881 0.31556 0.23349 0.0
C779 C 0.28234 0.36717 0.25941 0.0
H780 H 0.22773 0.3174 0.29766 0.0
C781 C 0.27131 0.36634 0.22275 0.0
C782 C 0.24477 0.34758 0.21261 0.0
H783 H 0.30294 0.38155 0.26602 0.0
H784 H 0.28372 0.38011 0.20206 0.0
C785 C 0.22922 0.33043 0.24048 0.0
C786 C 0.2606 0.37568 0.43498 0.0
C787 C 0.28767 0.39272 0.44277 0.0
H788 H 0.22223 0.36023 0.45584 0.0
C789 C 0.29668 0.41126 0.47453 0.0
H790 H 0.25331 0.36138 0.41039 0.0
C791 C 0.27892 0.41043 0.50088 0.0
C792 C 0.25201 0.39139 0.49513 0.0
H793 H 0.31755 0.42448 0.48101 0.0
H794 H 0.2864 0.42293 0.52734 0.0
C795 C 0.24283 0.37525 0.46076 0.0
C796 C 0.66831 0.90942 0.43989 0.0
C797 C 0.6488 0.91647 0.4433 0.0
H798 H 0.68577 0.88743 0.46288 0.0
C799 C 0.62941 0.90366 0.46981 0.0
H800 H 0.68322 0.91869 0.41923 0.0
C801 C 0.63102 0.88597 0.49507 0.0
C802 C 0.65157 0.88027 0.49329 0.0
H803 H 0.61417 0.90881 0.47294 0.0
H804 H 0.6172 0.87802 0.51747 0.0
C805 C 0.66952 0.89123 0.46442 0.0
C806 C 0.08869 0.73741 0.43083 0.0
C807 C 0.09662 0.75047 0.39646 0.0
H808 H 0.09409 0.74029 0.492 0.0
C809 C 0.11512 0.77798 0.39787 0.0
H810 H 0.07458 0.71611 0.43026 0.0
C811 C 0.1255 0.79233 0.4333 0.0
C812 C 0.11827 0.77924 0.46812 0.0
H813 H 0.12127 0.78845 0.3715 0.0
H814 H 0.1391 0.81368 0.43317 0.0
C815 C 0.09974 0.75148 0.46622 0.0
C816 C 0.3336 0.09654 0.72678 0.0
C817 C 0.35019 0.08631 0.71773 0.0
H818 H 0.32204 0.11543 0.76947 0.0
C819 C 0.36959 0.08935 0.7455 0.0
H820 H 0.31849 0.09471 0.70609 0.0
C821 C 0.37179 0.1016 0.78184 0.0
C822 C 0.35462 0.11102 0.79122 0.0
H823 H 0.38286 0.08197 0.7394 0.0
H824 H 0.38675 0.10338 0.80281 0.0
C825 C 0.33578 0.10872 0.76305 0.0
C826 C 0.91904 0.25507 0.76345 0.0
C827 C 0.94515 0.26213 0.75787 0.0
H828 H 0.88575 0.23359 0.79725 0.0
C829 C 0.95666 0.24972 0.77879 0.0
H830 H 0.90966 0.2641 0.7473 0.0
C831 C 0.94313 0.23256 0.80767 0.0
C832 C 0.91767 0.227 0.81501 0.0
H833 H 0.97683 0.25491 0.77495 0.0
H834 H 0.95311 0.22507 0.82591 0.0
C835 C 0.90527 0.23736 0.79158 0.0
C836 C 0.73661 0.64602 0.74335 0.0
C837 C 0.75241 0.66327 0.71569 0.0
H838 H 0.73471 0.63315 0.80091 0.0
C839 C 0.77943 0.6803 0.72524 0.0
H840 H 0.71581 0.63244 0.73686 0.0
C841 C 0.79021 0.68076 0.76187 0.0
C842 C 0.7743 0.66416 0.78993 0.0
H843 H 0.79229 0.6938 0.70468 0.0
H844 H 0.81085 0.69494 0.76863 0.0
C845 C 0.74745 0.64643 0.78005 0.0
C846 C 0.72609 0.60407 0.52612 0.0
C847 C 0.73481 0.62223 0.55832 0.0
H848 H 0.7367 0.59344 0.47281 0.0
C849 C 0.76181 0.63957 0.56627 0.0
H850 H 0.70526 0.59064 0.51948 0.0
C851 C 0.77976 0.64077 0.54021 0.0
C852 C 0.77079 0.62506 0.50546 0.0
H853 H 0.76888 0.65359 0.59119 0.0
H854 H 0.80026 0.65603 0.54529 0.0
C855 C 0.74401 0.60566 0.49954 0.0
C856 C 0.35819 0.11134 0.56364 0.0
C857 C 0.37629 0.10255 0.5585 0.0
H858 H 0.34082 0.13338 0.5408 0.0
C859 C 0.39406 0.11305 0.52934 0.0
H860 H 0.34457 0.1038 0.58632 0.0
C861 C 0.39176 0.1298 0.503 0.0
C862 C 0.37212 0.13676 0.50623 0.0
H863 H 0.40815 0.10648 0.52488 0.0
H864 H 0.40394 0.13564 0.4785 0.0
C865 C 0.35632 0.12857 0.53795 0.0
C866 C 0.93618 0.27271 0.57258 0.0
C867 C 0.92151 0.27883 0.59765 0.0
H868 H 0.93653 0.25342 0.51956 0.0
C869 C 0.89525 0.27079 0.5864 0.0
H870 H 0.95637 0.27837 0.58037 0.0
C871 C 0.88388 0.25669 0.551 0.0
C872 C 0.89851 0.25027 0.52621 0.0
H873 H 0.8834 0.27526 0.60499 0.0
H874 H 0.86368 0.25088 0.54305 0.0
C875 C 0.9248 0.25851 0.53749 0.0
C876 C 0.31616 0.25416 0.58545 0.0
C877 C 0.33599 0.25757 0.6127 0.0
H878 H 0.29827 0.23965 0.52863 0.0
C879 C 0.35252 0.24735 0.60327 0.0
H880 H 0.30289 0.26149 0.59185 0.0
C881 C 0.34988 0.23487 0.56703 0.0
C882 C 0.33064 0.23229 0.53935 0.0
H883 H 0.36793 0.24946 0.62358 0.0
H884 H 0.36358 0.22818 0.56019 0.0
C885 C 0.3135 0.24164 0.54921 0.0
C886 C 0.74328 0.104 0.56938 0.0
C887 C 0.75164 0.087 0.58466 0.0
H888 H 0.74957 0.13297 0.52756 0.0
C889 C 0.77567 0.08974 0.57413 0.0
H890 H 0.72485 0.10237 0.57699 0.0
C891 C 0.79004 0.1077 0.54657 0.0
C892 C 0.7804 0.12289 0.52896 0.0
H893 H 0.78275 0.07713 0.5856 0.0
H894 H 0.80756 0.10819 0.53686 0.0
C895 C 0.75742 0.12162 0.54134 0.0
C896 C 0.90429 0.66166 0.60647 0.0
C897 C 0.93106 0.67998 0.6159 0.0
H898 H 0.8728 0.6451 0.56301 0.0
C899 C 0.94631 0.69722 0.58783 0.0
H900 H 0.89187 0.64809 0.62733 0.0
C901 C 0.93519 0.69569 0.55093 0.0
C902 C 0.9086 0.67684 0.54125 0.0
H903 H 0.9669 0.71174 0.5942 0.0
H904 H 0.94748 0.70913 0.52985 0.0
C905 C 0.89323 0.66009 0.56961 0.0
C906 C 0.92156 0.70514 0.76474 0.0
C907 C 0.9484 0.7233 0.77272 0.0
H908 H 0.88305 0.68692 0.7859 0.0
C909 C 0.95655 0.74106 0.80531 0.0
H910 H 0.91493 0.69137 0.73957 0.0
C911 C 0.93835 0.73835 0.83214 0.0
C912 C 0.91184 0.71814 0.82615 0.0
H913 H 0.97724 0.75508 0.81201 0.0
H914 H 0.94532 0.7504 0.85903 0.0
C915 C 0.90332 0.70276 0.7911 0.0
C916 C 0.32916 0.23484 0.76737 0.0
C917 C 0.31067 0.24318 0.77188 0.0
H918 H 0.34644 0.21278 0.79047 0.0
C919 C 0.29241 0.23214 0.80033 0.0
H920 H 0.34314 0.24275 0.7452 0.0
C921 C 0.29444 0.21517 0.82651 0.0
C922 C 0.31429 0.20847 0.8238 0.0
H923 H 0.27799 0.23835 0.80428 0.0
H924 H 0.28174 0.20878 0.85041 0.0
C925 C 0.33077 0.21737 0.79288 0.0
C926 C 0.75254 0.08011 0.77062 0.0
C927 C 0.76843 0.0754 0.74601 0.0
H928 H 0.75086 0.10013 0.82241 0.0
C929 C 0.79556 0.08768 0.7558 0.0
H930 H 0.73162 0.07116 0.76386 0.0
C931 C 0.80654 0.1043 0.78924 0.0
C932 C 0.7907 0.10903 0.8138 0.0
H933 H 0.80845 0.08459 0.73754 0.0
H934 H 0.82743 0.11311 0.7962 0.0
C935 C 0.76356 0.09673 0.80416 0.0
C936 C 0.10847 0.34333 -0.01018 0.0
C937 C 0.09682 0.35769 0.00469 0.0
H938 H 0.13025 0.32329 0.00287 0.0
C939 C 0.10153 0.36607 0.0439 0.0
H940 H 0.10533 0.33675 0.95962 0.0
C941 C 0.11616 0.3589 0.06814 0.0
C942 C 0.12621 0.34294 0.05392 0.0
H943 H 0.09324 0.37751 0.05617 0.0
H944 H 0.11839 0.36456 0.09864 0.0
C945 C 0.12296 0.33586 0.01435 0.0
C946 C 0.62218 0.74007 0.0298 0.0
C947 C 0.6391 0.73164 0.01528 0.0
H948 H 0.61959 0.77126 0.06087 0.0
C949 C 0.66537 0.75117 0.01022 0.0
H950 H 0.60169 0.72572 0.03338 0.0
C951 C 0.67549 0.77738 0.02564 0.0
C952 C 0.65947 0.78442 0.04614 0.0
H953 H 0.67888 0.74559 -0.00156 0.0
H954 H 0.6965 0.79107 0.02597 0.0
C955 C 0.63234 0.76633 0.04518 0.0
C956 C 0.27756 0.93561 0.03132 0.0
C957 C 0.28124 0.9186 0.00581 0.0
H958 H 0.25628 0.93862 0.0778 0.0
C959 C 0.26395 0.89071 0.00571 0.0
H960 H 0.29017 0.95719 0.03162 0.0
C961 C 0.24447 0.88 0.03251 0.0
C962 C 0.24198 0.89706 0.05955 0.0
H963 H 0.26619 0.87712 0.98613 0.0
H964 H 0.23238 0.85841 0.03346 0.0
C965 C 0.25806 0.92497 0.05767 0.0
C966 C 0.38993 0.08739 0.95522 0.0
C967 C 0.36967 0.06049 0.95571 0.0
H968 H 0.40071 0.12687 0.93826 0.0
C969 C 0.34349 0.05444 0.94921 0.0
H970 H 0.41028 0.09276 0.96065 0.0
C971 C 0.33808 0.07413 0.93657 0.0
C972 C 0.35873 0.10008 0.93089 0.0
H973 H 0.32742 0.03396 0.94954 0.0
H974 H 0.31812 0.06825 0.92683 0.0
C975 C 0.38447 0.10706 0.94293 0.0
C976 C 0.96167 0.28508 0.97358 0.0
C977 C 0.95455 0.30487 0.9694 0.0
H978 H 0.95027 0.24381 0.96226 0.0
C979 C 0.92783 0.29653 0.96106 0.0
H980 H 0.98192 0.29063 0.98054 0.0
C981 C 0.9096 0.26955 0.9511 0.0
C982 C 0.91781 0.25052 0.94927 0.0
H983 H 0.92145 0.31113 0.95841 0.0
H984 H 0.8901 0.26434 0.93987 0.0
C985 C 0.9434 0.2581 0.96367 0.0
C986 C 0.73273 0.68808 0.94688 0.0
C987 C 0.7273 0.67233 0.97897 0.0
H988 H 0.75512 0.70209 0.89717 0.0
C989 C 0.7427 0.66049 0.98755 0.0
H990 H 0.72156 0.69786 0.9399 0.0
C991 C 0.76187 0.66274 0.96278 0.0
C992 C 0.76595 0.67696 0.92924 0.0
H993 H 0.73908 0.64837 0.0123 0.0
H994 H 0.77236 0.6521 0.96864 0.0
C995 C 0.75197 0.69052 0.92245 0.0
C996 C 0.89696 0.63681 0.97798 0.0
C997 C 0.92312 0.65335 -0.00741 0.0
H998 H 0.86462 0.63409 0.94329 0.0
C999 C 0.93535 0.68106 0.9878 0.0
H1000 H 0.88692 0.61539 0.98155 0.0
C1001 C 0.92235 0.6918 0.96699 0.0
C1002 C 0.89698 0.67506 0.94968 0.0
H1003 H 0.95526 0.69445 -0.00057 0.0
H1004 H 0.93273 0.71315 0.9627 0.0
C1005 C 0.88404 0.64755 0.9565 0.0
C1006 C 0.39725 0.27864 0.95852 0.0
C1007 C 0.38112 0.28748 0.97479 0.0
H1008 H 0.39856 0.24611 0.92925 0.0
C1009 C 0.35564 0.26814 0.98406 0.0
H1010 H 0.41715 0.29288 0.95164 0.0
C1011 C 0.34516 0.24127 0.97157 0.0
C1012 C 0.36002 0.23334 0.94981 0.0
H1013 H 0.3428 0.27409 -0.00273 0.0
H1014 H 0.32446 0.22742 0.97467 0.0
C1015 C 0.38674 0.25171 0.94613 0.0
C1016 C 0.75231 0.08357 0.98556 0.0
C1017 C 0.74512 0.10035 0.00517 0.0
H1018 H 0.77697 0.0806 0.94447 0.0
C1019 C 0.76005 0.12825 0.00166 0.0
H1020 H 0.74156 0.06206 0.98842 0.0
C1021 C 0.78029 0.13889 0.97611 0.0
C1022 C 0.78597 0.12176 0.95417 0.0
H1023 H 0.75505 0.14165 0.01679 0.0
H1024 H 0.79014 0.16018 0.97149 0.0
C1025 C 0.7727 0.0942 0.96064 0.0
C1026 C 0.63077 0.93029 0.04731 0.0
C1027 C 0.65152 0.95694 0.04653 0.0
H1028 H 0.61903 0.89062 0.06447 0.0
C1029 C 0.67749 0.96224 0.05277 0.0
H1030 H 0.61056 0.92548 0.04209 0.0
C1031 C 0.68226 0.94212 0.06541 0.0
C1032 C 0.66118 0.91647 0.07134 0.0
H1033 H 0.69393 0.9825 0.05221 0.0
H1034 H 0.70212 0.94747 0.07492 0.0
C1035 C 0.63559 0.91019 0.05959 0.0
C1036 C 0.09755 0.72559 0.05082 0.0
C1037 C 0.07113 0.71654 0.03888 0.0
H1038 H 0.13415 0.75883 0.07353 0.0
C1039 C 0.06389 0.73576 0.03027 0.0
H1040 H 0.10405 0.71143 0.05699 0.0
C1041 C 0.08147 0.76306 0.03899 0.0
C1042 C 0.10648 0.77156 0.05675 0.0
H1043 H 0.04391 0.72965 0.02034 0.0
H1044 H 0.07434 0.77708 0.03656 0.0
C1045 C 0.11508 0.7529 0.05968 0.0
C1046 C 0.26691 0.32065 0.01938 0.0
C1047 C 0.29379 0.33979 0.0251 0.0
H1048 H 0.22829 0.30557 0.04016 0.0
C1049 C 0.30191 0.36054 0.05359 0.0
H1050 H 0.26017 0.30465 -0.00282 0.0
C1051 C 0.28377 0.3616 0.07699 0.0
C1052 C 0.25713 0.34151 0.07329 0.0
H1053 H 0.32237 0.37604 0.05792 0.0
H1054 H 0.29079 0.37777 0.099 0.0
C1055 C 0.24868 0.32136 0.04359 0.0
C1056 C 0.76427 0.6949 0.37408 0.0
C1057 C 0.76033 0.68677 0.3348 0.0
H1058 H 0.7799 0.69293 0.4296 0.0
C1059 C 0.77216 0.67238 0.32071 0.0
H1060 H 0.7558 0.70632 0.38581 0.0
C1061 C 0.78611 0.66473 0.34601 0.0
C1062 C 0.78849 0.6715 0.38559 0.0
H1063 H 0.76962 0.66596 0.29051 0.0
H1064 H 0.79369 0.65228 0.33503 0.0
C1065 C 0.77823 0.68741 0.39913 0.0
C1066 C 0.32912 0.0739 0.34931 0.0
C1067 C 0.30465 0.05392 0.36112 0.0
H1068 H 0.35872 0.11547 0.35478 0.0
C1069 C 0.28819 0.06199 0.37831 0.0
H1070 H 0.34215 0.06853 0.33535 0.0
C1071 C 0.29767 0.08907 0.38893 0.0
C1072 C 0.32368 0.10843 0.38249 0.0
H1073 H 0.26905 0.04723 0.38728 0.0
H1074 H 0.2859 0.09427 0.40659 0.0
C1075 C 0.33853 0.10093 0.35989 0.0
C1076 C 0.92117 0.24676 0.32749 0.0
C1077 C 0.94803 0.25664 0.33705 0.0
H1078 H 0.88214 0.22798 0.34789 0.0
C1079 C 0.95559 0.25152 0.37309 0.0
H1080 H 0.9148 0.25023 0.2997 0.0
C1081 C 0.937 0.23836 0.39999 0.0
C1082 C 0.91046 0.23042 0.39175 0.0
H1083 H 0.97605 0.25832 0.38098 0.0
H1084 H 0.94359 0.23565 0.42815 0.0
C1085 C 0.90248 0.23382 0.3548 0.0
C1086 C 0.01101 0.39135 0.28529 0.0
C1087 C 0.037 0.39698 0.29246 0.0
H1088 H 0.98633 0.40609 0.2632 0.0
C1089 C 0.05748 0.42388 0.2934 0.0
H1090 H 0.99479 0.37088 0.28439 0.0
C1091 C 0.0525 0.44408 0.28199 0.0
C1092 C 0.02702 0.43768 0.26931 0.0
H1093 H 0.07769 0.42892 0.2993 0.0
H1094 H 0.06899 0.46394 0.27842 0.0
C1095 C 1.00608 0.41158 0.27351 0.0
C1096 C 0.59363 0.61871 0.29942 0.0
C1097 C 0.62095 0.62868 0.30216 0.0
H1098 H 0.55571 0.58531 0.28208 0.0
C1099 C 0.62995 0.61018 0.30081 0.0
H1100 H 0.58592 0.63228 0.30119 0.0
C1101 C 0.61243 0.58308 0.29033 0.0
C1102 C 0.58573 0.57414 0.28101 0.0
H1103 H 0.65079 0.61702 0.30335 0.0
H1104 H 0.62037 0.57007 0.28404 0.0
C1105 C 0.57614 0.59158 0.28919 0.0
C1106 C 0.42511 0.028 0.32026 0.0
C1107 C 0.39832 0.00854 0.31501 0.0
H1108 H 0.46339 0.04431 0.29787 0.0
C1109 C 0.39005 0.98862 0.28516 0.0
H1110 H 0.43198 0.0434 0.34339 0.0
C1111 C 0.40792 0.98863 0.26017 0.0
C1112 C 0.43445 0.00898 0.26368 0.0
H1113 H 0.36965 0.9729 0.28104 0.0
H1114 H 0.40079 0.973 0.23732 0.0
C1115 C 0.44308 0.02835 0.29453 0.0
C1116 C 0.56506 0.97312 0.31149 0.0
C1117 C 0.59087 0.98913 0.32771 0.0
H1118 H 0.53384 0.97166 0.27549 0.0
C1119 C 0.6035 0.01703 0.3245 0.0
H1120 H 0.55475 0.95156 0.31379 0.0
C1121 C 0.59132 0.02853 0.30358 0.0
C1122 C 0.56639 0.01239 0.2847 0.0
H1123 H 0.62314 0.03 0.33739 0.0
H1124 H 0.60202 0.05002 0.30048 0.0
C1125 C 0.55296 0.98465 0.28995 0.0
C1126 C 0.02863 0.61013 0.31887 0.0
C1127 C 0.05257 0.63027 0.30579 0.0
H1128 H 0.99945 0.5684 0.31458 0.0
C1129 C 0.06882 0.62247 0.28737 0.0
H1130 H 0.0158 0.61532 0.3338 0.0
C1131 C 0.0595 0.59538 0.27692 0.0
C1132 C 0.03386 0.57579 0.28476 0.0
H1133 H 0.08755 0.63737 0.27734 0.0
H1134 H 0.07094 0.5903 0.25834 0.0
C1135 C 0.01937 0.58312 0.30843 0.0
C1136 C 0.42022 0.45837 0.31923 0.0
C1137 C 0.40651 0.43071 0.32544 0.0
H1138 H 0.44986 0.48985 0.28768 0.0
C1139 C 0.41445 0.41402 0.30748 0.0
H1140 H 0.41464 0.47176 0.33293 0.0
C1141 C 0.4347 0.4244 0.28235 0.0
C1142 C 0.44733 0.45167 0.27415 0.0
H1143 H 0.40466 0.39275 0.31218 0.0
H1144 H 0.43987 0.41083 0.26812 0.0
C1145 C 0.44049 0.46879 0.29364 0.0
C1146 C 0.29623 0.25934 0.37871 0.0
C1147 C 0.31726 0.28588 0.37828 0.0
H1148 H 0.28397 0.21921 0.3942 0.0
C1149 C 0.34309 0.29059 0.38353 0.0
H1150 H 0.27611 0.25495 0.37425 0.0
C1151 C 0.34753 0.26993 0.39469 0.0
C1152 C 0.32624 0.24429 0.40023 0.0
H1153 H 0.35974 0.31076 0.38325 0.0
H1154 H 0.36736 0.27481 0.40349 0.0
C1155 C 0.30071 0.2387 0.38954 0.0
C1156 C 0.72867 0.07324 0.37035 0.0
C1157 C 0.73688 0.05409 0.36988 0.0
H1158 H 0.73929 0.1138 0.38616 0.0
C1159 C 0.76402 0.06325 0.37341 0.0
H1160 H 0.70799 0.06704 0.36715 0.0
C1161 C 0.78204 0.09028 0.38335 0.0
C1162 C 0.77315 0.10846 0.39044 0.0
H1163 H 0.77114 0.04916 0.37238 0.0
H1164 H 0.80227 0.09601 0.39099 0.0
C1165 C 0.74669 0.10024 0.38059 0.0
C1166 C 0.93856 0.68653 0.34153 0.0
C1167 C 0.95592 0.67672 0.34811 0.0
H1168 H 0.90743 0.69137 0.36328 0.0
C1169 C 0.95267 0.66096 0.37969 0.0
H1170 H 0.94051 0.69862 0.31725 0.0
C1171 C 0.93353 0.65648 0.40555 0.0
C1172 C 0.91748 0.66799 0.40068 0.0
H1173 H 0.96543 0.65272 0.38512 0.0
H1174 H 0.93197 0.64485 0.43026 0.0
C1175 C 0.91951 0.68225 0.36771 0.0
C1176 C 0.4194 1.00167 0.67947 0.0
C1177 C 0.43134 0.02942 0.67522 0.0
H1178 H 0.42236 0.96964 0.7041 0.0
C1179 C 0.45737 0.04613 0.69024 0.0
H1180 H 0.39961 0.98817 0.66752 0.0
C1181 C 0.47041 0.03548 0.71161 0.0
C1182 C 0.45773 0.00791 0.71793 0.0
H1183 H 0.4672 0.06759 0.68709 0.0
H1184 H 0.4897 0.04904 0.72517 0.0
C1185 C 0.43253 0.99103 0.70019 0.0
C1186 C 1.00522 0.41749 0.68432 0.0
C1187 C 0.97916 0.39844 0.69142 0.0
H1188 H 0.03669 0.45785 0.69589 0.0
C1189 C 0.96278 0.40759 0.70585 0.0
H1190 H 0.01829 0.41131 0.67255 0.0
C1191 C 0.97336 0.43443 0.71877 0.0
C1192 C 1.0004 0.4524 0.71743 0.0
H1193 H 0.94245 0.39358 0.71097 0.0
H1194 H 0.96111 0.44016 0.73428 0.0
C1195 C 0.01576 0.44429 0.69727 0.0
C1196 C 0.59494 0.55652 0.66641 0.0
C1197 C 0.61018 0.58446 0.66356 0.0
H1198 H 0.56479 0.52445 0.6963 0.0
C1199 C 0.60356 0.60129 0.6843 0.0
H1200 H 0.59949 0.54308 0.65042 0.0
C1201 C 0.58341 0.59062 0.70961 0.0
C1202 C 0.5698 0.56296 0.71531 0.0
H1203 H 0.61457 0.62285 0.682 0.0
H1204 H 0.57955 0.60422 0.72658 0.0
C1205 C 0.57492 0.54583 0.69231 0.0
C1206 C 0.72334 0.75407 0.61965 0.0
C1207 C 0.70291 0.72735 0.62141 0.0
H1208 H 0.73412 0.79342 0.60204 0.0
C1209 C 0.67674 0.72166 0.61639 0.0
H1210 H 0.7437 0.7592 0.62392 0.0
C1211 C 0.67133 0.74142 0.60405 0.0
C1212 C 0.69198 0.76712 0.59721 0.0
H1213 H 0.66053 0.70134 0.61776 0.0
H1214 H 0.65124 0.73573 0.59552 0.0
C1215 C 0.71788 0.77382 0.60767 0.0
C1216 C 0.25662 0.95765 0.61752 0.0
C1217 C 0.28301 0.96647 0.62931 0.0
H1218 H 0.21983 0.92461 0.59496 0.0
C1219 C 0.29003 0.94708 0.63788 0.0
H1220 H 0.25028 0.97195 0.61138 0.0
C1221 C 0.27224 0.91981 0.62924 0.0
C1222 C 0.24724 0.91152 0.61159 0.0
H1223 H 0.30999 0.95302 0.64771 0.0
H1224 H 0.2792 0.90565 0.63161 0.0
C1225 C 0.23888 0.93038 0.60873 0.0
C1226 C 0.0578 0.32528 0.61549 0.0
C1227 C 0.06557 0.3457 0.64444 0.0
H1228 H 0.06935 0.30906 0.5693 0.0
C1229 C 0.09233 0.36527 0.65013 0.0
H1230 H 0.03745 0.3095 0.61106 0.0
C1231 C 0.11074 0.36528 0.62557 0.0
C1232 C 0.1026 0.34546 0.59545 0.0
H1233 H 0.09884 0.38106 0.6726 0.0
H1234 H 0.131 0.38136 0.62908 0.0
C1235 C 0.07612 0.32497 0.59166 0.0
C1236 C 0.25742 0.32042 0.62376 0.0
C1237 C 0.26109 0.3277 0.66332 0.0
H1238 H 0.24208 0.3235 0.56865 0.0
C1239 C 0.24919 0.34181 0.67821 0.0
H1240 H 0.26592 0.30921 0.61141 0.0
C1241 C 0.23543 0.35004 0.6535 0.0
C1242 C 0.23325 0.34406 0.61369 0.0
H1243 H 0.25152 0.34756 0.70866 0.0
H1244 H 0.22785 0.3623 0.66515 0.0
C1245 C 0.24357 0.3284 0.59931 0.0
C1246 C 0.68716 0.9322 0.65904 0.0
C1247 C 0.71369 0.95102 0.65418 0.0
H1248 H 0.65513 0.8928 0.64316 0.0
C1249 C 0.72997 0.94173 0.63974 0.0
H1250 H 0.67412 0.93844 0.67076 0.0
C1251 C 0.71902 0.91538 0.62428 0.0
C1252 C 0.69173 0.89806 0.62319 0.0
H1253 H 0.75062 0.95551 0.6363 0.0
H1254 H 0.73137 0.90982 0.60873 0.0
C1255 C 0.67625 0.9059 0.64356 0.0
C1256 C 0.08971 0.79156 0.66318 0.0
C1257 C 0.07294 0.76359 0.66316 0.0
H1258 H 0.12082 0.82422 0.63531 0.0
C1259 C 0.07726 0.74685 0.63803 0.0
H1260 H 0.08696 0.80493 0.6825 0.0
C1261 C 0.09677 0.75782 0.61178 0.0
C1262 C 0.11221 0.78577 0.60968 0.0
H1263 H 0.06505 0.72522 0.63784 0.0
H1264 H 0.09897 0.7444 0.59176 0.0
C1265 C 0.10921 0.80261 0.63648 0.0
C1266 C 0.96469 0.5945 0.71296 0.0
C1267 C 0.98471 0.62145 0.71176 0.0
H1268 H 0.95453 0.55536 0.73075 0.0
C1269 C 0.01103 0.62786 0.71794 0.0
H1270 H 0.94425 0.58885 0.70779 0.0
C1271 C 0.01685 0.60853 0.73091 0.0
C1272 C 0.99647 0.58256 0.73722 0.0
H1273 H 0.02693 0.64839 0.71707 0.0
H1274 H 0.03694 0.61471 0.74035 0.0
C1275 C 0.97056 0.57519 0.72558 0.0
C1276 C 0.42884 0.38763 0.70871 0.0
C1277 C 0.40215 0.37906 0.69949 0.0
H1278 H 0.46622 0.42007 0.73062 0.0
C1279 C 0.39486 0.39868 0.69467 0.0
H1280 H 0.43535 0.37317 0.71192 0.0
C1281 C 0.41285 0.42571 0.70472 0.0
C1282 C 0.43834 0.43353 0.71985 0.0
H1283 H 0.37465 0.39295 0.68703 0.0
H1284 H 0.40581 0.43987 0.7055 0.0
C1285 C 0.44679 0.41466 0.7188 0.0
C1286 C 0.61332 0.02526 0.68135 0.0
C1287 C 0.62874 0.01341 0.68981 0.0
H1288 H 0.5834 0.03329 0.70016 0.0
C1289 C 0.6231 0.99734 0.72159 0.0
H1290 H 0.61709 0.0376 0.65684 0.0
C1291 C 0.60366 0.99459 0.74583 0.0
C1292 C 0.58963 0.00809 0.73913 0.0
H1293 H 0.63427 0.98754 0.72849 0.0
H1294 H 0.60038 0.98279 0.7709 0.0
C1295 C 0.59392 0.02266 0.70591 0.0
loop_
_geom_bond_atom_site_label_1
_geom_bond_atom_site_label_2
_geom_bond_distance
_geom_bond_site_symmetry_2
_ccdc_geom_bond_type
Mg0 O1 2.028 1_556 S
Mg0 O7 1.986 1_455 S
Mg0 O9 2.114 . S
Mg0 O10 2.251 1_455 S
Mg0 O13 2.010 1_556 S
O1 Mg0 2.028 1_554 S
O1 C4 1.250 1_455 S
O2 Mg3 2.028 1_554 S
O2 C4 1.248 . S
Mg3 O2 2.028 1_556 S
Mg3 O8 2.032 . S
Mg3 O10 2.079 . S
C4 O1 1.250 1_655 S
C4 O2 1.248 . S
C5 O6 1.264 1_554 S
C5 O13 1.249 . S
O6 C5 1.264 1_556 S
O7 Mg0 1.986 1_655 S
O7 C11 1.246 . S
O8 Mg3 2.032 . S
O8 C11 1.259 . S
O9 Mg0 2.114 . S
O9 C12 1.252 . S
O10 Mg0 2.251 1_655 S
O10 Mg3 2.079 . S
O10 C12 1.273 1_655 S
C11 O7 1.246 . S
C11 O8 1.259 . S
C12 O9 1.252 . S
C12 O10 1.273 1_455 S
O13 Mg0 2.010 1_554 S
O13 C5 1.249 . S
Mg14 O15 2.028 1_554 S
Mg14 O21 1.986 . S
Mg14 O23 2.114 . S
Mg14 O24 2.251 . S
Mg14 O27 2.010 . S
O15 Mg14 2.028 1_556 S
O15 C18 1.250 . S
O16 Mg17 2.028 1_556 S
O16 C18 1.248 . S
Mg17 O16 2.028 1_554 S
Mg17 O22 2.032 . S
Mg17 O24 2.079 . S
C18 O15 1.250 . S
C18 O16 1.248 . S
C19 O20 1.264 . S
C19 O27 1.249 . S
O20 C19 1.264 . S
O21 Mg14 1.986 . S
O21 C25 1.246 . S
O22 Mg17 2.032 . S
O22 C25 1.259 . S
O23 Mg14 2.114 . S
O23 C26 1.252 . S
O24 Mg14 2.251 . S
O24 Mg17 2.079 . S
O24 C26 1.273 . S
C25 O21 1.246 . S
C25 O22 1.259 . S
C26 O23 1.252 . S
C26 O24 1.273 . S
O27 Mg14 2.010 . S
O27 C19 1.249 . S
Mg28 O29 2.024 1_556 S
Mg28 O35 1.986 1_565 S
Mg28 O37 2.114 . S
Mg28 O38 2.251 1_565 S
Mg28 O41 2.010 1_556 S
O29 Mg28 2.024 1_554 S
O29 C32 1.245 1_565 S
O30 Mg31 2.028 1_554 S
O30 C32 1.248 . S
Mg31 O30 2.028 1_556 S
Mg31 O36 2.032 . S
Mg31 O38 2.079 . S
C32 O29 1.245 1_545 S
C32 O30 1.248 . S
C33 O34 1.264 1_554 S
C33 O41 1.249 . S
O34 C33 1.264 1_556 S
O35 Mg28 1.986 1_545 S
O35 C39 1.246 . S
O36 Mg31 2.032 . S
O36 C39 1.259 . S
O37 Mg28 2.114 . S
O37 C40 1.252 . S
O38 Mg28 2.251 1_545 S
O38 Mg31 2.079 . S
O38 C40 1.273 1_545 S
C39 O35 1.246 . S
C39 O36 1.259 . S
C40 O37 1.252 . S
C40 O38 1.273 1_565 S
O41 Mg28 2.010 1_554 S
O41 C33 1.249 . S
Mg42 O43 2.028 1_554 S
Mg42 O49 1.986 1_655 S
Mg42 O51 2.114 . S
Mg42 O52 2.251 1_655 S
Mg42 O55 2.010 . S
O43 Mg42 2.028 1_556 S
O43 C46 1.250 1_655 S
O44 Mg45 2.028 1_556 S
O44 C46 1.248 . S
Mg45 O44 2.028 1_554 S
Mg45 O50 2.032 . S
Mg45 O52 2.079 . S
C46 O43 1.250 1_455 S
C46 O44 1.248 . S
C47 O48 1.264 . S
C47 O55 1.249 . S
O48 C47 1.264 . S
O49 Mg42 1.986 1_455 S
O49 C53 1.246 . S
O50 Mg45 2.032 . S
O50 C53 1.259 . S
O51 Mg42 2.114 . S
O51 C54 1.252 . S
O52 Mg42 2.251 1_455 S
O52 Mg45 2.079 . S
O52 C54 1.273 1_455 S
C53 O49 1.246 . S
C53 O50 1.259 . S
C54 O51 1.252 . S
C54 O52 1.273 1_655 S
O55 Mg42 2.010 . S
O55 C47 1.249 . S
Mg56 O57 2.028 1_556 S
Mg56 O63 1.986 . S
Mg56 O65 2.114 . S
Mg56 O66 2.251 . S
Mg56 O69 2.010 1_556 S
O57 Mg56 2.028 1_554 S
O57 C60 1.250 . S
O58 Mg59 2.028 1_554 S
O58 C60 1.248 . S
Mg59 O58 2.028 1_556 S
Mg59 O64 2.032 . S
Mg59 O66 2.079 . S
C60 O57 1.250 . S
C60 O58 1.248 . S
C61 O62 1.264 . S
C61 O69 1.249 . S
O62 C61 1.264 . S
O63 Mg56 1.986 . S
O63 C67 1.246 . S
O64 Mg59 2.032 . S
O64 C67 1.259 . S
O65 Mg56 2.114 . S
O65 C68 1.252 . S
O66 Mg56 2.251 . S
O66 Mg59 2.079 . S
O66 C68 1.273 . S
C67 O63 1.246 . S
C67 O64 1.259 . S
C68 O65 1.252 . S
C68 O66 1.273 . S
O69 Mg56 2.010 1_554 S
O69 C61 1.249 . S
Mg70 O71 2.028 1_554 S
Mg70 O77 1.986 1_545 S
Mg70 O79 2.114 . S
Mg70 O80 2.251 1_545 S
Mg70 O83 2.010 . S
O71 Mg70 2.028 1_556 S
O71 C74 1.250 1_545 S
O72 Mg73 2.028 1_556 S
O72 C74 1.248 . S
Mg73 O72 2.028 1_554 S
Mg73 O78 2.032 . S
Mg73 O80 2.079 . S
C74 O71 1.250 1_565 S
C74 O72 1.248 . S
C75 O76 1.264 . S
C75 O83 1.249 . S
O76 C75 1.264 . S
O77 Mg70 1.986 1_565 S
O77 C81 1.246 . S
O78 Mg73 2.032 . S
O78 C81 1.259 . S
O79 Mg70 2.114 . S
O79 C82 1.252 . S
O80 Mg70 2.251 1_565 S
O80 Mg73 2.079 . S
O80 C82 1.273 1_565 S
C81 O77 1.246 . S
C81 O78 1.259 . S
C82 O79 1.252 . S
C82 O80 1.273 1_545 S
O83 Mg70 2.010 . S
O83 C75 1.249 . S
Mg84 O85 2.028 . S
Mg84 O91 1.986 . S
Mg84 O93 2.114 . S
Mg84 O94 2.251 . S
Mg84 O97 2.010 . S
O85 Mg84 2.028 . S
O85 C88 1.250 . S
O86 Mg87 2.028 . S
O86 C88 1.248 . S
Mg87 O86 2.028 . S
Mg87 O92 2.032 . S
Mg87 O94 2.079 . S
C88 O85 1.250 . S
C88 O86 1.248 . S
C89 O90 1.264 . S
C89 O97 1.249 . S
O90 C89 1.264 . S
O91 Mg84 1.986 . S
O91 C95 1.246 . S
O92 Mg87 2.032 . S
O92 C95 1.259 . S
O93 Mg84 2.114 . S
O93 C96 1.252 . S
O94 Mg84 2.251 . S
O94 Mg87 2.079 . S
O94 C96 1.273 . S
C95 O91 1.246 . S
C95 O92 1.259 . S
C96 O93 1.252 . S
C96 O94 1.273 . S
O97 Mg84 2.010 . S
O97 C89 1.249 . S
Mg98 O99 2.028 . S
Mg98 O105 1.986 1_565 S
Mg98 O107 2.114 . S
Mg98 O108 2.251 . S
Mg98 O111 2.010 . S
O99 Mg98 2.028 . S
O99 C102 1.250 . S
O100 Mg101 2.028 . S
O100 C102 1.248 . S
Mg101 O100 2.028 . S
Mg101 O106 2.032 1_565 S
Mg101 O108 2.079 . S
C102 O99 1.250 . S
C102 O100 1.248 . S
C103 O104 1.264 . S
C103 O111 1.249 . S
O104 C103 1.264 . S
O105 Mg98 1.986 1_545 S
O105 C109 1.246 . S
O106 Mg101 2.032 1_545 S
O106 C109 1.259 . S
O107 Mg98 2.114 . S
O107 C110 1.252 . S
O108 Mg98 2.251 . S
O108 Mg101 2.079 . S
O108 C110 1.273 . S
C109 O105 1.246 . S
C109 O106 1.259 . S
C110 O107 1.252 . S
C110 O108 1.273 . S
O111 Mg98 2.010 . S
O111 C103 1.249 . S
Mg112 O113 2.028 . S
Mg112 O119 1.986 . S
Mg112 O121 2.114 . S
Mg112 O122 2.251 . S
Mg112 O125 2.010 1_455 S
O113 Mg112 2.028 . S
O113 C116 1.250 . S
O114 Mg115 2.028 . S
O114 C116 1.248 . S
Mg115 O114 2.028 . S
Mg115 O120 2.032 . S
Mg115 O122 2.079 . S
C116 O113 1.250 . S
C116 O114 1.248 . S
C117 O118 1.264 . S
C117 O125 1.249 . S
O118 C117 1.264 . S
O119 Mg112 1.986 . S
O119 C123 1.246 . S
O120 Mg115 2.032 . S
O120 C123 1.259 . S
O121 Mg112 2.114 . S
O121 C124 1.252 . S
O122 Mg112 2.251 . S
O122 Mg115 2.079 . S
O122 C124 1.273 . S
C123 O119 1.246 . S
C123 O120 1.259 . S
C124 O121 1.252 . S
C124 O122 1.273 . S
O125 Mg112 2.010 1_655 S
O125 C117 1.249 . S
Mg126 O127 2.028 . S
Mg126 O133 1.986 1_565 S
Mg126 O135 2.114 . S
Mg126 O136 2.251 . S
Mg126 O139 2.010 . S
O127 Mg126 2.028 . S
O127 C130 1.250 . S
O128 Mg129 2.028 . S
O128 C130 1.248 . S
Mg129 O128 2.028 . S
Mg129 O134 2.032 1_565 S
Mg129 O136 2.079 . S
C130 O127 1.250 . S
C130 O128 1.248 . S
C131 O132 1.264 . S
C131 O139 1.249 . S
O132 C131 1.264 . S
O133 Mg126 1.986 1_545 S
O133 C137 1.246 . S
O134 Mg129 2.032 1_545 S
O134 C137 1.259 . S
O135 Mg126 2.114 . S
O135 C138 1.252 . S
O136 Mg126 2.251 . S
O136 Mg129 2.079 . S
O136 C138 1.273 . S
C137 O133 1.246 . S
C137 O134 1.259 . S
C138 O135 1.252 . S
C138 O136 1.273 . S
O139 Mg126 2.010 . S
O139 C131 1.249 . S
Mg140 O141 2.028 . S
Mg140 O147 1.986 . S
Mg140 O149 2.114 . S
Mg140 O150 2.251 . S
Mg140 O153 2.010 1_455 S
O141 Mg140 2.028 . S
O141 C144 1.250 . S
O142 Mg143 2.028 . S
O142 C144 1.248 . S
Mg143 O142 2.028 . S
Mg143 O148 2.032 . S
Mg143 O150 2.079 . S
C144 O141 1.250 . S
C144 O142 1.248 . S
C145 O146 1.264 . S
C145 O153 1.249 . S
O146 C145 1.264 . S
O147 Mg140 1.986 . S
O147 C151 1.246 . S
O148 Mg143 2.032 . S
O148 C151 1.259 . S
O149 Mg140 2.114 . S
O149 C152 1.252 . S
O150 Mg140 2.251 . S
O150 Mg143 2.079 . S
O150 C152 1.273 . S
C151 O147 1.246 . S
C151 O148 1.259 . S
C152 O149 1.252 . S
C152 O150 1.273 . S
O153 Mg140 2.010 1_655 S
O153 C145 1.249 . S
Mg154 O155 2.028 . S
Mg154 O161 1.986 . S
Mg154 O163 2.114 . S
Mg154 O164 2.251 . S
Mg154 O167 2.010 . S
O155 Mg154 2.028 . S
O155 C158 1.250 . S
O156 Mg157 2.028 . S
O156 C158 1.248 . S
Mg157 O156 2.028 . S
Mg157 O162 2.032 . S
Mg157 O164 2.079 . S
C158 O155 1.250 . S
C158 O156 1.248 . S
C159 O160 1.264 . S
C159 O167 1.249 . S
O160 C159 1.264 . S
O161 Mg154 1.986 . S
O161 C165 1.246 . S
O162 Mg157 2.032 . S
O162 C165 1.259 . S
O163 Mg154 2.114 . S
O163 C166 1.252 . S
O164 Mg154 2.251 . S
O164 Mg157 2.079 . S
O164 C166 1.273 . S
C165 O161 1.246 . S
C165 O162 1.259 . S
C166 O163 1.252 . S
C166 O164 1.273 . S
O167 Mg154 2.010 . S
O167 C159 1.249 . S
Mg168 O169 2.028 . S
Mg168 O175 1.986 1_545 S
Mg168 O177 2.114 . S
Mg168 O178 2.251 . S
Mg168 O181 2.010 . S
O169 Mg168 2.028 . S
O169 C172 1.250 . S
O170 Mg171 2.028 . S
O170 C172 1.248 . S
Mg171 O170 2.028 . S
Mg171 O176 2.032 1_545 S
Mg171 O178 2.079 . S
C172 O169 1.250 . S
C172 O170 1.248 . S
C173 O174 1.264 . S
C173 O181 1.249 . S
O174 C173 1.264 . S
O175 Mg168 1.986 1_565 S
O175 C179 1.246 . S
O176 Mg171 2.032 1_565 S
O176 C179 1.259 . S
O177 Mg168 2.114 . S
O177 C180 1.252 . S
O178 Mg168 2.251 . S
O178 Mg171 2.079 . S
O178 C180 1.273 . S
C179 O175 1.246 . S
C179 O176 1.259 . S
C180 O177 1.252 . S
C180 O178 1.273 . S
O181 Mg168 2.010 . S
O181 C173 1.249 . S
Mg182 O183 2.028 . S
Mg182 O189 1.986 . S
Mg182 O191 2.114 . S
Mg182 O192 2.251 . S
Mg182 O195 2.010 1_655 S
O183 Mg182 2.028 . S
O183 C186 1.250 . S
O184 Mg185 2.028 . S
O184 C186 1.248 . S
Mg185 O184 2.028 . S
Mg185 O190 2.032 . S
Mg185 O192 2.079 . S
C186 O183 1.250 . S
C186 O184 1.248 . S
C187 O188 1.264 . S
C187 O195 1.249 . S
O188 C187 1.264 . S
O189 Mg182 1.986 . S
O189 C193 1.246 . S
O190 Mg185 2.032 . S
O190 C193 1.259 . S
O191 Mg182 2.114 . S
O191 C194 1.252 . S
O192 Mg182 2.251 . S
O192 Mg185 2.079 . S
O192 C194 1.273 . S
C193 O189 1.246 . S
C193 O190 1.259 . S
C194 O191 1.252 . S
C194 O192 1.273 . S
O195 Mg182 2.010 1_455 S
O195 C187 1.249 . S
Mg196 O197 2.028 . S
Mg196 O203 1.986 . S
Mg196 O205 2.114 . S
Mg196 O206 2.251 . S
Mg196 O209 2.010 . S
O197 Mg196 2.028 . S
O197 C200 1.250 . S
O198 Mg199 2.028 . S
O198 C200 1.248 . S
Mg199 O198 2.028 . S
Mg199 O204 2.032 . S
Mg199 O206 2.079 . S
C200 O197 1.250 . S
C200 O198 1.248 . S
C201 O202 1.264 . S
C201 O209 1.249 . S
O202 C201 1.264 . S
O203 Mg196 1.986 . S
O203 C207 1.246 . S
O204 Mg199 2.032 . S
O204 C207 1.259 . S
O205 Mg196 2.114 . S
O205 C208 1.252 . S
O206 Mg196 2.251 . S
O206 Mg199 2.079 . S
O206 C208 1.273 . S
C207 O203 1.246 . S
C207 O204 1.259 . S
C208 O205 1.252 . S
C208 O206 1.273 . S
O209 Mg196 2.010 . S
O209 C201 1.249 . S
Mg210 O211 2.028 . S
Mg210 O217 1.986 . S
Mg210 O219 2.114 . S
Mg210 O220 2.251 . S
Mg210 O223 2.010 . S
O211 Mg210 2.028 . S
O211 C214 1.250 . S
O212 Mg213 2.028 . S
O212 C214 1.248 . S
Mg213 O212 2.028 . S
Mg213 O218 2.032 . S
Mg213 O220 2.079 . S
C214 O211 1.250 . S
C214 O212 1.248 . S
C215 O216 1.264 . S
C215 O223 1.249 . S
O216 C215 1.264 . S
O217 Mg210 1.986 . S
O217 C221 1.246 . S
O218 Mg213 2.032 . S
O218 C221 1.259 . S
O219 Mg210 2.114 . S
O219 C222 1.252 . S
O220 Mg210 2.251 . S
O220 Mg213 2.079 . S
O220 C222 1.273 . S
C221 O217 1.246 . S
C221 O218 1.259 . S
C222 O219 1.252 . S
C222 O220 1.273 . S
O223 Mg210 2.010 . S
O223 C215 1.249 . S
Mg224 O225 2.028 . S
Mg224 O231 1.986 1_545 S
Mg224 O233 2.114 . S
Mg224 O234 2.251 . S
Mg224 O237 2.010 . S
O225 Mg224 2.028 . S
O225 C228 1.250 . S
O226 Mg227 2.028 . S
O226 C228 1.248 . S
Mg227 O226 2.028 . S
Mg227 O232 2.032 1_545 S
Mg227 O234 2.079 . S
C228 O225 1.250 . S
C228 O226 1.248 . S
C229 O230 1.264 . S
C229 O237 1.249 . S
O230 C229 1.264 . S
O231 Mg224 1.986 1_565 S
O231 C235 1.246 . S
O232 Mg227 2.032 1_565 S
O232 C235 1.259 . S
O233 Mg224 2.114 . S
O233 C236 1.252 . S
O234 Mg224 2.251 . S
O234 Mg227 2.079 . S
O234 C236 1.273 . S
C235 O231 1.246 . S
C235 O232 1.259 . S
C236 O233 1.252 . S
C236 O234 1.273 . S
O237 Mg224 2.010 . S
O237 C229 1.249 . S
Mg238 O239 2.028 . S
Mg238 O245 1.986 . S
Mg238 O247 2.114 . S
Mg238 O248 2.251 . S
Mg238 O251 2.010 1_655 S
O239 Mg238 2.028 . S
O239 C242 1.250 . S
O240 Mg241 2.028 . S
O240 C242 1.248 . S
Mg241 O240 2.028 . S
Mg241 O246 2.032 . S
Mg241 O248 2.079 . S
C242 O239 1.250 . S
C242 O240 1.248 . S
C243 O244 1.264 . S
C243 O251 1.249 . S
O244 C243 1.264 . S
O245 Mg238 1.986 . S
O245 C249 1.246 . S
O246 Mg241 2.032 . S
O246 C249 1.259 . S
O247 Mg238 2.114 . S
O247 C250 1.252 . S
O248 Mg238 2.251 . S
O248 Mg241 2.079 . S
O248 C250 1.273 . S
C249 O245 1.246 . S
C249 O246 1.259 . S
C250 O247 1.252 . S
C250 O248 1.273 . S
O251 Mg238 2.010 1_455 S
O251 C243 1.249 . S
H252 C258 0.930 . S
H253 C261 0.931 . S
H254 C263 0.931 . S
H255 C265 0.930 . S
H256 C267 0.930 . S
H257 C269 0.931 . S
C258 H252 0.930 . S
C258 C259 1.380 . S
C258 C260 1.394 . S
C259 C258 1.380 . S
C259 C263 1.382 . S
C260 C258 1.394 . S
C260 C261 1.400 . S
C261 H253 0.931 . S
C261 C260 1.400 . S
C261 C262 1.375 . S
C262 C261 1.375 . S
C262 C263 1.415 . S
C262 C264 1.501 . S
C263 H254 0.931 . S
C263 C259 1.382 . S
C263 C262 1.415 . S
C264 C262 1.501 . S
C264 C265 1.384 . S
C264 C269 1.408 . S
C265 H255 0.930 . S
C265 C264 1.384 . S
C265 C266 1.389 . S
C266 C265 1.389 . S
C266 C267 1.405 . S
C267 H256 0.930 . S
C267 C266 1.405 . S
C267 C268 1.364 . S
C268 C267 1.364 . S
C268 C269 1.400 . S
C269 H257 0.931 . S
C269 C264 1.408 . S
C269 C268 1.400 . S
H270 C276 0.930 . S
H271 C279 0.931 . S
H272 C281 0.931 . S
H273 C283 0.930 . S
H274 C285 0.930 . S
H275 C287 0.931 . S
C276 H270 0.930 . S
C276 C277 1.380 . S
C276 C278 1.394 . S
C277 C276 1.380 . S
C277 C281 1.382 . S
C278 C276 1.394 . S
C278 C279 1.400 . S
C279 H271 0.931 . S
C279 C278 1.400 . S
C279 C280 1.375 . S
C280 C279 1.375 . S
C280 C281 1.415 . S
C280 C282 1.501 . S
C281 H272 0.931 . S
C281 C277 1.382 . S
C281 C280 1.415 . S
C282 C280 1.501 . S
C282 C283 1.384 . S
C282 C287 1.408 . S
C283 H273 0.930 . S
C283 C282 1.384 . S
C283 C284 1.389 . S
C284 C283 1.389 . S
C284 C285 1.405 . S
C285 H274 0.930 . S
C285 C284 1.405 . S
C285 C286 1.364 . S
C286 C285 1.364 . S
C286 C287 1.400 . S
C287 H275 0.931 . S
C287 C282 1.408 . S
C287 C286 1.400 . S
H288 C294 0.930 . S
H289 C297 0.931 . S
H290 C299 0.931 . S
H291 C301 0.930 . S
H292 C303 0.930 . S
H293 C305 0.931 . S
C294 H288 0.930 . S
C294 C295 1.380 . S
C294 C296 1.394 . S
C295 C294 1.380 . S
C295 C299 1.382 . S
C296 C294 1.394 . S
C296 C297 1.400 . S
C297 H289 0.931 . S
C297 C296 1.400 . S
C297 C298 1.375 . S
C298 C297 1.375 . S
C298 C299 1.415 . S
C298 C300 1.501 . S
C299 H290 0.931 . S
C299 C295 1.382 . S
C299 C298 1.415 . S
C300 C298 1.501 . S
C300 C301 1.384 . S
C300 C305 1.408 . S
C301 H291 0.930 . S
C301 C300 1.384 . S
C301 C302 1.389 . S
C302 C301 1.389 . S
C302 C303 1.405 . S
C303 H292 0.930 . S
C303 C302 1.405 . S
C303 C304 1.364 . S
C304 C303 1.364 . S
C304 C305 1.400 . S
C305 H293 0.931 . S
C305 C300 1.408 . S
C305 C304 1.400 . S
H306 C312 0.930 . S
H307 C315 0.931 . S
H308 C317 0.931 . S
H309 C319 0.930 . S
H310 C321 0.930 . S
H311 C323 0.931 . S
C312 H306 0.930 . S
C312 C313 1.380 . S
C312 C314 1.394 . S
C313 C312 1.380 . S
C313 C317 1.382 . S
C314 C312 1.394 . S
C314 C315 1.400 . S
C315 H307 0.931 . S
C315 C314 1.400 . S
C315 C316 1.375 . S
C316 C315 1.375 . S
C316 C317 1.415 . S
C316 C318 1.501 . S
C317 H308 0.931 . S
C317 C313 1.382 . S
C317 C316 1.415 . S
C318 C316 1.501 . S
C318 C319 1.384 . S
C318 C323 1.408 . S
C319 H309 0.930 . S
C319 C318 1.384 . S
C319 C320 1.389 . S
C320 C319 1.389 . S
C320 C321 1.405 . S
C321 H310 0.930 . S
C321 C320 1.405 . S
C321 C322 1.364 . S
C322 C321 1.364 . S
C322 C323 1.400 . S
C323 H311 0.931 . S
C323 C318 1.408 . S
C323 C322 1.400 . S
H324 C330 0.930 . S
H325 C333 0.931 . S
H326 C335 0.931 . S
H327 C337 0.930 . S
H328 C339 0.930 . S
H329 C341 0.931 . S
C330 H324 0.930 . S
C330 C331 1.380 . S
C330 C332 1.394 . S
C331 C330 1.380 . S
C331 C335 1.382 . S
C332 C330 1.394 . S
C332 C333 1.400 . S
C333 H325 0.931 . S
C333 C332 1.400 . S
C333 C334 1.375 . S
C334 C333 1.375 . S
C334 C335 1.415 . S
C334 C336 1.501 . S
C335 H326 0.931 . S
C335 C331 1.382 . S
C335 C334 1.415 . S
C336 C334 1.501 . S
C336 C337 1.384 . S
C336 C341 1.408 . S
C337 H327 0.930 . S
C337 C336 1.384 . S
C337 C338 1.389 . S
C338 C337 1.389 . S
C338 C339 1.405 . S
C339 H328 0.930 . S
C339 C338 1.405 . S
C339 C340 1.364 . S
C340 C339 1.364 . S
C340 C341 1.400 . S
C341 H329 0.931 . S
C341 C336 1.408 . S
C341 C340 1.400 . S
H342 C348 0.930 . S
H343 C351 0.931 . S
H344 C353 0.931 . S
H345 C355 0.930 . S
H346 C357 0.930 . S
H347 C359 0.931 . S
C348 H342 0.930 . S
C348 C349 1.380 . S
C348 C350 1.394 . S
C349 C348 1.380 . S
C349 C353 1.382 . S
C350 C348 1.394 . S
C350 C351 1.400 . S
C351 H343 0.931 . S
C351 C350 1.400 . S
C351 C352 1.375 . S
C352 C351 1.375 . S
C352 C353 1.415 . S
C352 C354 1.501 . S
C353 H344 0.931 . S
C353 C349 1.382 . S
C353 C352 1.415 . S
C354 C352 1.501 . S
C354 C355 1.384 . S
C354 C359 1.408 . S
C355 H345 0.930 . S
C355 C354 1.384 . S
C355 C356 1.389 . S
C356 C355 1.389 . S
C356 C357 1.405 . S
C357 H346 0.930 . S
C357 C356 1.405 . S
C357 C358 1.364 . S
C358 C357 1.364 . S
C358 C359 1.400 . S
C359 H347 0.931 . S
C359 C354 1.408 . S
C359 C358 1.400 . S
H360 C366 0.930 . S
H361 C369 0.931 . S
H362 C371 0.931 . S
H363 C373 0.930 . S
H364 C375 0.930 . S
H365 C377 0.931 . S
C366 H360 0.930 . S
C366 C367 1.380 . S
C366 C368 1.394 . S
C367 C366 1.380 . S
C367 C371 1.382 . S
C368 C366 1.394 . S
C368 C369 1.400 . S
C369 H361 0.931 . S
C369 C368 1.400 . S
C369 C370 1.375 . S
C370 C369 1.375 . S
C370 C371 1.415 . S
C370 C372 1.501 . S
C371 H362 0.931 . S
C371 C367 1.382 . S
C371 C370 1.415 . S
C372 C370 1.501 . S
C372 C373 1.384 . S
C372 C377 1.408 . S
C373 H363 0.930 . S
C373 C372 1.384 . S
C373 C374 1.389 . S
C374 C373 1.389 . S
C374 C375 1.405 . S
C375 H364 0.930 . S
C375 C374 1.405 . S
C375 C376 1.364 . S
C376 C375 1.364 . S
C376 C377 1.400 . S
C377 H365 0.931 . S
C377 C372 1.408 . S
C377 C376 1.400 . S
H378 C384 0.930 . S
H379 C387 0.931 . S
H380 C389 0.931 . S
H381 C391 0.930 . S
H382 C393 0.930 . S
H383 C395 0.931 . S
C384 H378 0.930 . S
C384 C385 1.380 . S
C384 C386 1.394 . S
C385 C384 1.380 . S
C385 C389 1.382 . S
C386 C384 1.394 . S
C386 C387 1.400 . S
C387 H379 0.931 . S
C387 C386 1.400 . S
C387 C388 1.375 . S
C388 C387 1.375 . S
C388 C389 1.415 . S
C388 C390 1.501 . S
C389 H380 0.931 . S
C389 C385 1.382 . S
C389 C388 1.415 . S
C390 C388 1.501 . S
C390 C391 1.384 . S
C390 C395 1.408 . S
C391 H381 0.930 . S
C391 C390 1.384 . S
C391 C392 1.389 . S
C392 C391 1.389 . S
C392 C393 1.405 . S
C393 H382 0.930 . S
C393 C392 1.405 . S
C393 C394 1.364 . S
C394 C393 1.364 . S
C394 C395 1.400 . S
C395 H383 0.931 . S
C395 C390 1.408 . S
C395 C394 1.400 . S
H396 C402 0.930 . S
H397 C405 0.931 . S
H398 C407 0.931 . S
H399 C409 0.930 . S
H400 C411 0.930 . S
H401 C413 0.931 . S
C402 H396 0.930 . S
C402 C403 1.380 . S
C402 C404 1.394 . S
C403 C402 1.380 . S
C403 C407 1.382 . S
C404 C402 1.394 . S
C404 C405 1.400 . S
C405 H397 0.931 . S
C405 C404 1.400 . S
C405 C406 1.375 . S
C406 C405 1.375 . S
C406 C407 1.415 . S
C406 C408 1.501 . S
C407 H398 0.931 . S
C407 C403 1.382 . S
C407 C406 1.415 . S
C408 C406 1.501 . S
C408 C409 1.384 . S
C408 C413 1.408 . S
C409 H399 0.930 . S
C409 C408 1.384 . S
C409 C410 1.389 . S
C410 C409 1.389 . S
C410 C411 1.405 . S
C411 H400 0.930 . S
C411 C410 1.405 . S
C411 C412 1.364 . S
C412 C411 1.364 . S
C412 C413 1.400 . S
C413 H401 0.931 . S
C413 C408 1.408 . S
C413 C412 1.400 . S
H414 C420 0.922 . S
H415 C423 0.931 . S
H416 C425 0.931 . S
H417 C427 0.930 . S
H418 C429 0.930 . S
H419 C431 0.940 . S
C420 H414 0.922 . S
C420 C421 1.386 . S
C420 C422 1.396 1_655 S
C421 C420 1.386 . S
C421 C425 1.382 . S
C422 C420 1.396 1_455 S
C422 C423 1.400 . S
C423 H415 0.931 . S
C423 C422 1.400 . S
C423 C424 1.375 . S
C424 C423 1.375 . S
C424 C425 1.415 1_455 S
C424 C426 1.501 . S
C425 H416 0.931 . S
C425 C421 1.382 . S
C425 C424 1.415 1_655 S
C426 C424 1.501 . S
C426 C427 1.384 . S
C426 C431 1.425 . S
C427 H417 0.930 . S
C427 C426 1.384 . S
C427 C428 1.389 . S
C428 C427 1.389 . S
C428 C429 1.405 . S
C429 H418 0.930 . S
C429 C428 1.405 . S
C429 C430 1.358 . S
C430 C429 1.358 . S
C430 C431 1.392 . S
C431 H419 0.940 . S
C431 C426 1.425 . S
C431 C430 1.392 . S
H432 C438 0.930 . S
H433 C441 0.931 . S
H434 C443 0.931 . S
H435 C445 0.930 . S
H436 C447 0.930 . S
H437 C449 0.931 . S
C438 H432 0.930 . S
C438 C439 1.380 . S
C438 C440 1.394 . S
C439 C438 1.380 . S
C439 C443 1.382 . S
C440 C438 1.394 . S
C440 C441 1.400 . S
C441 H433 0.931 . S
C441 C440 1.400 . S
C441 C442 1.375 . S
C442 C441 1.375 . S
C442 C443 1.415 . S
C442 C444 1.501 . S
C443 H434 0.931 . S
C443 C439 1.382 . S
C443 C442 1.415 . S
C444 C442 1.501 . S
C444 C445 1.384 . S
C444 C449 1.408 . S
C445 H435 0.930 . S
C445 C444 1.384 . S
C445 C446 1.389 . S
C446 C445 1.389 . S
C446 C447 1.405 . S
C447 H436 0.930 . S
C447 C446 1.405 . S
C447 C448 1.364 . S
C448 C447 1.364 . S
C448 C449 1.400 . S
C449 H437 0.931 . S
C449 C444 1.408 . S
C449 C448 1.400 . S
H450 C456 0.943 . S
H451 C459 0.931 . S
H452 C461 0.931 . S
H453 C463 0.930 . S
H454 C465 0.930 . S
H455 C467 0.937 . S
C456 H450 0.943 . S
C456 C457 1.378 . S
C456 C458 1.384 1_545 S
C457 C456 1.378 . S
C457 C461 1.382 . S
C458 C456 1.384 1_565 S
C458 C459 1.400 . S
C459 H451 0.931 . S
C459 C458 1.400 . S
C459 C460 1.375 . S
C460 C459 1.375 . S
C460 C461 1.415 1_565 S
C460 C462 1.501 . S
C461 H452 0.931 . S
C461 C457 1.382 . S
C461 C460 1.415 1_545 S
C462 C460 1.501 . S
C462 C463 1.384 . S
C462 C467 1.408 . S
C463 H453 0.930 . S
C463 C462 1.384 . S
C463 C464 1.389 . S
C464 C463 1.389 . S
C464 C465 1.405 . S
C465 H454 0.930 . S
C465 C464 1.405 . S
C465 C466 1.377 . S
C466 C465 1.377 . S
C466 C467 1.378 . S
C467 H455 0.937 . S
C467 C462 1.408 . S
C467 C466 1.378 . S
H468 C474 0.910 . S
H469 C477 0.931 . S
H470 C479 0.927 . S
H471 C481 0.930 . S
H472 C483 0.930 . S
H473 C485 0.931 . S
C474 H468 0.910 . S
C474 C475 1.386 . S
C474 C476 1.416 1_545 S
C475 C474 1.386 . S
C475 C479 1.405 1_545 S
C476 C474 1.416 1_565 S
C476 C477 1.383 . S
C477 H469 0.931 . S
C477 C476 1.383 . S
C477 C478 1.375 . S
C478 C477 1.375 . S
C478 C479 1.409 . S
C478 C480 1.501 . S
C479 H470 0.927 . S
C479 C475 1.405 1_565 S
C479 C478 1.409 . S
C480 C478 1.501 . S
C480 C481 1.384 . S
C480 C485 1.408 1_565 S
C481 H471 0.930 . S
C481 C480 1.384 . S
C481 C482 1.389 . S
C482 C481 1.389 . S
C482 C483 1.405 . S
C483 H472 0.930 . S
C483 C482 1.405 . S
C483 C484 1.364 1_565 S
C484 C483 1.364 1_545 S
C484 C485 1.400 . S
C485 H473 0.931 . S
C485 C480 1.408 1_545 S
C485 C484 1.400 . S
H486 C492 0.960 . S
H487 C495 0.931 . S
H488 C497 0.933 . S
H489 C499 0.930 . S
H490 C501 0.930 . S
H491 C503 0.931 . S
C492 H486 0.960 . S
C492 C493 1.371 . S
C492 C494 1.372 1_655 S
C493 C492 1.371 . S
C493 C497 1.357 1_655 S
C494 C492 1.372 1_455 S
C494 C495 1.414 . S
C495 H487 0.931 . S
C495 C494 1.414 . S
C495 C496 1.375 . S
C496 C495 1.375 . S
C496 C497 1.427 . S
C496 C498 1.501 . S
C497 H488 0.933 . S
C497 C493 1.357 1_455 S
C497 C496 1.427 . S
C498 C496 1.501 . S
C498 C499 1.384 . S
C498 C503 1.408 1_455 S
C499 H489 0.930 . S
C499 C498 1.384 . S
C499 C500 1.389 . S
C500 C499 1.389 . S
C500 C501 1.405 . S
C501 H490 0.930 . S
C501 C500 1.405 . S
C501 C502 1.364 1_455 S
C502 C501 1.364 1_655 S
C502 C503 1.400 . S
C503 H491 0.931 . S
C503 C498 1.408 1_655 S
C503 C502 1.400 . S
H504 C510 0.930 . S
H505 C513 0.931 . S
H506 C515 0.931 . S
H507 C517 0.930 . S
H508 C519 0.930 . S
H509 C521 0.931 . S
C510 H504 0.930 . S
C510 C511 1.380 . S
C510 C512 1.394 . S
C511 C510 1.380 . S
C511 C515 1.382 . S
C512 C510 1.394 . S
C512 C513 1.400 . S
C513 H505 0.931 . S
C513 C512 1.400 . S
C513 C514 1.375 . S
C514 C513 1.375 . S
C514 C515 1.415 . S
C514 C516 1.501 . S
C515 H506 0.931 . S
C515 C511 1.382 . S
C515 C514 1.415 . S
C516 C514 1.501 . S
C516 C517 1.384 . S
C516 C521 1.408 . S
C517 H507 0.930 . S
C517 C516 1.384 . S
C517 C518 1.389 . S
C518 C517 1.389 . S
C518 C519 1.405 . S
C519 H508 0.930 . S
C519 C518 1.405 . S
C519 C520 1.364 . S
C520 C519 1.364 . S
C520 C521 1.400 . S
C521 H509 0.931 . S
C521 C516 1.408 . S
C521 C520 1.400 . S
H522 C528 0.930 . S
H523 C531 0.931 . S
H524 C533 0.931 . S
H525 C535 0.930 . S
H526 C537 0.930 . S
H527 C539 0.931 . S
C528 H522 0.930 . S
C528 C529 1.380 . S
C528 C530 1.394 . S
C529 C528 1.380 . S
C529 C533 1.382 . S
C530 C528 1.394 . S
C530 C531 1.400 . S
C531 H523 0.931 . S
C531 C530 1.400 . S
C531 C532 1.375 . S
C532 C531 1.375 . S
C532 C533 1.415 . S
C532 C534 1.501 . S
C533 H524 0.931 . S
C533 C529 1.382 . S
C533 C532 1.415 . S
C534 C532 1.501 . S
C534 C535 1.384 . S
C534 C539 1.408 . S
C535 H525 0.930 . S
C535 C534 1.384 . S
C535 C536 1.389 . S
C536 C535 1.389 . S
C536 C537 1.405 . S
C537 H526 0.930 . S
C537 C536 1.405 . S
C537 C538 1.364 . S
C538 C537 1.364 . S
C538 C539 1.400 . S
C539 H527 0.931 . S
C539 C534 1.408 . S
C539 C538 1.400 . S
H540 C546 0.930 . S
H541 C549 0.931 . S
H542 C551 0.931 . S
H543 C553 0.930 . S
H544 C555 0.930 . S
H545 C557 0.931 . S
C546 H540 0.930 . S
C546 C547 1.380 . S
C546 C548 1.394 . S
C547 C546 1.380 . S
C547 C551 1.382 . S
C548 C546 1.394 . S
C548 C549 1.400 . S
C549 H541 0.931 . S
C549 C548 1.400 . S
C549 C550 1.375 . S
C550 C549 1.375 . S
C550 C551 1.415 . S
C550 C552 1.501 . S
C551 H542 0.931 . S
C551 C547 1.382 . S
C551 C550 1.415 . S
C552 C550 1.501 . S
C552 C553 1.384 . S
C552 C557 1.408 . S
C553 H543 0.930 . S
C553 C552 1.384 . S
C553 C554 1.389 . S
C554 C553 1.389 . S
C554 C555 1.405 . S
C555 H544 0.930 . S
C555 C554 1.405 . S
C555 C556 1.364 . S
C556 C555 1.364 . S
C556 C557 1.400 . S
C557 H545 0.931 . S
C557 C552 1.408 . S
C557 C556 1.400 . S
H558 C564 0.930 . S
H559 C567 0.931 . S
H560 C569 0.931 . S
H561 C571 0.930 . S
H562 C573 0.930 . S
H563 C575 0.931 . S
C564 H558 0.930 . S
C564 C565 1.380 . S
C564 C566 1.394 . S
C565 C564 1.380 . S
C565 C569 1.382 . S
C566 C564 1.394 . S
C566 C567 1.400 . S
C567 H559 0.931 . S
C567 C566 1.400 . S
C567 C568 1.375 . S
C568 C567 1.375 . S
C568 C569 1.415 . S
C568 C570 1.501 . S
C569 H560 0.931 . S
C569 C565 1.382 . S
C569 C568 1.415 . S
C570 C568 1.501 . S
C570 C571 1.384 . S
C570 C575 1.408 . S
C571 H561 0.930 . S
C571 C570 1.384 . S
C571 C572 1.389 . S
C572 C571 1.389 . S
C572 C573 1.405 . S
C573 H562 0.930 . S
C573 C572 1.405 . S
C573 C574 1.364 . S
C574 C573 1.364 . S
C574 C575 1.400 . S
C575 H563 0.931 . S
C575 C570 1.408 . S
C575 C574 1.400 . S
C576 C577 1.387 1_455 S
C576 H580 0.950 . S
C576 C585 1.390 . S
C577 C576 1.387 1_655 S
C577 C579 1.387 . S
H578 C585 0.950 . S
C579 C577 1.387 . S
C579 C581 1.390 . S
C579 H583 0.950 . S
H580 C576 0.950 . S
C581 C579 1.390 . S
C581 C582 1.387 . S
C581 H584 0.950 . S
C582 C581 1.387 . S
C582 C585 1.387 1_655 S
H583 C579 0.950 . S
H584 C581 0.950 . S
C585 C576 1.390 . S
C585 H578 0.950 . S
C585 C582 1.387 1_455 S
C586 C587 1.387 . S
C586 H590 0.950 . S
C586 C595 1.390 . S
C587 C586 1.387 . S
C587 C589 1.387 . S
H588 C595 0.950 . S
C589 C587 1.387 . S
C589 C591 1.390 . S
C589 H593 0.950 . S
H590 C586 0.950 . S
C591 C589 1.390 . S
C591 C592 1.387 . S
C591 H594 0.950 . S
C592 C591 1.387 . S
C592 C595 1.387 . S
H593 C589 0.950 . S
H594 C591 0.950 . S
C595 C586 1.390 . S
C595 H588 0.950 . S
C595 C592 1.387 . S
C596 C597 1.387 . S
C596 H600 0.950 . S
C596 C605 1.390 . S
C597 C596 1.387 . S
C597 C599 1.387 1_545 S
H598 C605 0.950 . S
C599 C597 1.387 1_565 S
C599 C601 1.390 . S
C599 H603 0.950 . S
H600 C596 0.950 . S
C601 C599 1.390 . S
C601 C602 1.387 1_565 S
C601 H604 0.950 . S
C602 C601 1.387 1_545 S
C602 C605 1.387 . S
H603 C599 0.950 . S
H604 C601 0.950 . S
C605 C596 1.390 . S
C605 H598 0.950 . S
C605 C602 1.387 . S
C606 C607 1.387 1_545 S
C606 H610 0.950 . S
C606 C615 1.390 . S
C607 C606 1.387 1_565 S
C607 C609 1.387 . S
H608 C615 0.950 . S
C609 C607 1.387 . S
C609 C611 1.390 . S
C609 H613 0.950 . S
H610 C606 0.950 . S
C611 C609 1.390 . S
C611 C612 1.387 . S
C611 H614 0.950 . S
C612 C611 1.387 . S
C612 C615 1.387 1_565 S
H613 C609 0.950 . S
H614 C611 0.950 . S
C615 C606 1.390 . S
C615 H608 0.950 . S
C615 C612 1.387 1_545 S
C616 C617 1.387 . S
C616 H620 0.950 . S
C616 C625 1.390 . S
C617 C616 1.387 . S
C617 C619 1.387 . S
H618 C625 0.950 . S
C619 C617 1.387 . S
C619 C621 1.390 . S
C619 H623 0.950 . S
H620 C616 0.950 . S
C621 C619 1.390 . S
C621 C622 1.387 . S
C621 H624 0.950 . S
C622 C621 1.387 . S
C622 C625 1.387 . S
H623 C619 0.950 . S
H624 C621 0.950 . S
C625 C616 1.390 . S
C625 H618 0.950 . S
C625 C622 1.387 . S
C626 C627 1.387 . S
C626 H630 0.950 . S
C626 C635 1.390 . S
C627 C626 1.387 . S
C627 C629 1.387 . S
H628 C635 0.950 . S
C629 C627 1.387 . S
C629 C631 1.390 . S
C629 H633 0.950 . S
H630 C626 0.950 . S
C631 C629 1.390 . S
C631 C632 1.387 . S
C631 H634 0.950 . S
C632 C631 1.387 . S
C632 C635 1.387 . S
H633 C629 0.950 . S
H634 C631 0.950 . S
C635 C626 1.390 . S
C635 H628 0.950 . S
C635 C632 1.387 . S
C636 C637 1.387 1_655 S
C636 H640 0.950 . S
C636 C645 1.390 . S
C637 C636 1.387 1_455 S
C637 C639 1.387 . S
H638 C645 0.950 . S
C639 C637 1.387 . S
C639 C641 1.390 . S
C639 H643 0.950 . S
H640 C636 0.950 . S
C641 C639 1.390 . S
C641 C642 1.387 . S
C641 H644 0.950 . S
C642 C641 1.387 . S
C642 C645 1.387 1_455 S
H643 C639 0.950 . S
H644 C641 0.950 . S
C645 C636 1.390 . S
C645 H638 0.950 . S
C645 C642 1.387 1_655 S
C646 C647 1.387 . S
C646 H650 0.950 . S
C646 C655 1.390 . S
C647 C646 1.387 . S
C647 C649 1.387 . S
H648 C655 0.950 . S
C649 C647 1.387 . S
C649 C651 1.390 . S
C649 H653 0.950 . S
H650 C646 0.950 . S
C651 C649 1.390 . S
C651 C652 1.387 . S
C651 H654 0.950 . S
C652 C651 1.387 . S
C652 C655 1.387 . S
H653 C649 0.950 . S
H654 C651 0.950 . S
C655 C646 1.390 . S
C655 H648 0.950 . S
C655 C652 1.387 . S
C656 C657 1.387 . S
C656 H660 0.950 . S
C656 C665 1.390 . S
C657 C656 1.387 . S
C657 C659 1.387 1_565 S
H658 C665 0.950 . S
C659 C657 1.387 1_545 S
C659 C661 1.390 . S
C659 H663 0.950 . S
H660 C656 0.950 . S
C661 C659 1.390 . S
C661 C662 1.387 1_545 S
C661 H664 0.950 . S
C662 C661 1.387 1_565 S
C662 C665 1.387 . S
H663 C659 0.950 . S
H664 C661 0.950 . S
C665 C656 1.390 . S
C665 H658 0.950 . S
C665 C662 1.387 . S
C666 C667 1.387 1_565 S
C666 H670 0.950 . S
C666 C675 1.390 . S
C667 C666 1.387 1_545 S
C667 C669 1.387 . S
H668 C675 0.950 . S
C669 C667 1.387 . S
C669 C671 1.390 . S
C669 H673 0.950 . S
H670 C666 0.950 . S
C671 C669 1.390 . S
C671 C672 1.387 . S
C671 H674 0.950 . S
C672 C671 1.387 . S
C672 C675 1.387 1_545 S
H673 C669 0.950 . S
H674 C671 0.950 . S
C675 C666 1.390 . S
C675 H668 0.950 . S
C675 C672 1.387 1_565 S
C676 C677 1.387 . S
C676 H680 0.950 . S
C676 C685 1.390 . S
C677 C676 1.387 . S
C677 C679 1.387 1_655 S
H678 C685 0.950 . S
C679 C677 1.387 1_455 S
C679 C681 1.390 . S
C679 H683 0.950 . S
H680 C676 0.950 . S
C681 C679 1.390 . S
C681 C682 1.387 1_455 S
C681 H684 0.950 . S
C682 C681 1.387 1_655 S
C682 C685 1.387 . S
H683 C679 0.950 . S
H684 C681 0.950 . S
C685 C676 1.390 . S
C685 H678 0.950 . S
C685 C682 1.387 . S
C686 C687 1.387 . S
C686 H690 0.950 . S
C686 C695 1.390 . S
C687 C686 1.387 . S
C687 C689 1.387 . S
H688 C695 0.950 . S
C689 C687 1.387 . S
C689 C691 1.390 . S
C689 H693 0.950 . S
H690 C686 0.950 . S
C691 C689 1.390 . S
C691 C692 1.387 . S
C691 H694 0.950 . S
C692 C691 1.387 . S
C692 C695 1.387 . S
H693 C689 0.950 . S
H694 C691 0.950 . S
C695 C686 1.390 . S
C695 H688 0.950 . S
C695 C692 1.387 . S
C696 C697 1.387 . S
C696 H700 0.950 . S
C696 C705 1.390 . S
C697 C696 1.387 . S
C697 C699 1.387 . S
H698 C705 0.950 . S
C699 C697 1.387 . S
C699 C701 1.390 . S
C699 H703 0.950 . S
H700 C696 0.950 . S
C701 C699 1.390 . S
C701 C702 1.387 . S
C701 H704 0.950 . S
C702 C701 1.387 . S
C702 C705 1.387 . S
H703 C699 0.950 . S
H704 C701 0.950 . S
C705 C696 1.390 . S
C705 H698 0.950 . S
C705 C702 1.387 . S
C706 C707 1.387 . S
C706 H710 0.950 . S
C706 C715 1.390 . S
C707 C706 1.387 . S
C707 C709 1.387 . S
H708 C715 0.950 . S
C709 C707 1.387 . S
C709 C711 1.390 . S
C709 H713 0.950 . S
H710 C706 0.950 . S
C711 C709 1.390 . S
C711 C712 1.387 . S
C711 H714 0.950 . S
C712 C711 1.387 . S
C712 C715 1.387 . S
H713 C709 0.950 . S
H714 C711 0.950 . S
C715 C706 1.390 . S
C715 H708 0.950 . S
C715 C712 1.387 . S
C716 C717 1.387 . S
C716 H720 0.950 . S
C716 C725 1.390 . S
C717 C716 1.387 . S
C717 C719 1.387 . S
H718 C725 0.950 . S
C719 C717 1.387 . S
C719 C721 1.390 . S
C719 H723 0.950 . S
H720 C716 0.950 . S
C721 C719 1.390 . S
C721 C722 1.387 . S
C721 H724 0.950 . S
C722 C721 1.387 . S
C722 C725 1.387 . S
H723 C719 0.950 . S
H724 C721 0.950 . S
C725 C716 1.390 . S
C725 H718 0.950 . S
C725 C722 1.387 . S
C726 C727 1.387 . S
C726 H730 0.950 . S
C726 C735 1.390 . S
C727 C726 1.387 . S
C727 C729 1.387 . S
H728 C735 0.950 . S
C729 C727 1.387 . S
C729 C731 1.390 . S
C729 H733 0.950 . S
H730 C726 0.950 . S
C731 C729 1.390 . S
C731 C732 1.387 . S
C731 H734 0.950 . S
C732 C731 1.387 . S
C732 C735 1.387 . S
H733 C729 0.950 . S
H734 C731 0.950 . S
C735 C726 1.390 . S
C735 H728 0.950 . S
C735 C732 1.387 . S
C736 C737 1.387 . S
C736 H740 0.950 . S
C736 C745 1.390 . S
C737 C736 1.387 . S
C737 C739 1.387 . S
H738 C745 0.950 . S
C739 C737 1.387 . S
C739 C741 1.390 . S
C739 H743 0.950 . S
H740 C736 0.950 . S
C741 C739 1.390 . S
C741 C742 1.387 . S
C741 H744 0.950 . S
C742 C741 1.387 . S
C742 C745 1.387 . S
H743 C739 0.950 . S
H744 C741 0.950 . S
C745 C736 1.390 . S
C745 H738 0.950 . S
C745 C742 1.387 . S
C746 C747 1.387 . S
C746 H750 0.950 . S
C746 C755 1.390 . S
C747 C746 1.387 . S
C747 C749 1.387 . S
H748 C755 0.950 . S
C749 C747 1.387 . S
C749 C751 1.390 . S
C749 H753 0.950 . S
H750 C746 0.950 . S
C751 C749 1.390 . S
C751 C752 1.387 . S
C751 H754 0.950 . S
C752 C751 1.387 . S
C752 C755 1.387 . S
H753 C749 0.950 . S
H754 C751 0.950 . S
C755 C746 1.390 . S
C755 H748 0.950 . S
C755 C752 1.387 . S
C756 C757 1.387 . S
C756 H760 0.950 . S
C756 C765 1.390 . S
C757 C756 1.387 . S
C757 C759 1.387 . S
H758 C765 0.950 . S
C759 C757 1.387 . S
C759 C761 1.390 . S
C759 H763 0.950 . S
H760 C756 0.950 . S
C761 C759 1.390 . S
C761 C762 1.387 . S
C761 H764 0.950 . S
C762 C761 1.387 . S
C762 C765 1.387 . S
H763 C759 0.950 . S
H764 C761 0.950 . S
C765 C756 1.390 . S
C765 H758 0.950 . S
C765 C762 1.387 . S
C766 C767 1.387 . S
C766 H770 0.950 . S
C766 C775 1.390 . S
C767 C766 1.387 . S
C767 C769 1.387 . S
H768 C775 0.950 . S
C769 C767 1.387 . S
C769 C771 1.390 . S
C769 H773 0.950 . S
H770 C766 0.950 . S
C771 C769 1.390 . S
C771 C772 1.387 . S
C771 H774 0.950 . S
C772 C771 1.387 . S
C772 C775 1.387 . S
H773 C769 0.950 . S
H774 C771 0.950 . S
C775 C766 1.390 . S
C775 H768 0.950 . S
C775 C772 1.387 . S
C776 C777 1.387 . S
C776 H780 0.950 . S
C776 C785 1.390 . S
C777 C776 1.387 . S
C777 C779 1.387 . S
H778 C785 0.950 . S
C779 C777 1.387 . S
C779 C781 1.390 . S
C779 H783 0.950 . S
H780 C776 0.950 . S
C781 C779 1.390 . S
C781 C782 1.387 . S
C781 H784 0.950 . S
C782 C781 1.387 . S
C782 C785 1.387 . S
H783 C779 0.950 . S
H784 C781 0.950 . S
C785 C776 1.390 . S
C785 H778 0.950 . S
C785 C782 1.387 . S
C786 C787 1.387 . S
C786 H790 0.950 . S
C786 C795 1.390 . S
C787 C786 1.387 . S
C787 C789 1.387 . S
H788 C795 0.950 . S
C789 C787 1.387 . S
C789 C791 1.390 . S
C789 H793 0.950 . S
H790 C786 0.950 . S
C791 C789 1.390 . S
C791 C792 1.387 . S
C791 H794 0.950 . S
C792 C791 1.387 . S
C792 C795 1.387 . S
H793 C789 0.950 . S
H794 C791 0.950 . S
C795 C786 1.390 . S
C795 H788 0.950 . S
C795 C792 1.387 . S
C796 C797 1.387 . S
C796 H800 0.950 . S
C796 C805 1.390 . S
C797 C796 1.387 . S
C797 C799 1.387 . S
H798 C805 0.950 . S
C799 C797 1.387 . S
C799 C801 1.390 . S
C799 H803 0.950 . S
H800 C796 0.950 . S
C801 C799 1.390 . S
C801 C802 1.387 . S
C801 H804 0.950 . S
C802 C801 1.387 . S
C802 C805 1.387 . S
H803 C799 0.950 . S
H804 C801 0.950 . S
C805 C796 1.390 . S
C805 H798 0.950 . S
C805 C802 1.387 . S
C806 C807 1.387 . S
C806 H810 0.950 . S
C806 C815 1.390 . S
C807 C806 1.387 . S
C807 C809 1.387 . S
H808 C815 0.950 . S
C809 C807 1.387 . S
C809 C811 1.390 . S
C809 H813 0.950 . S
H810 C806 0.950 . S
C811 C809 1.390 . S
C811 C812 1.387 . S
C811 H814 0.950 . S
C812 C811 1.387 . S
C812 C815 1.387 . S
H813 C809 0.950 . S
H814 C811 0.950 . S
C815 C806 1.390 . S
C815 H808 0.950 . S
C815 C812 1.387 . S
C816 C817 1.387 . S
C816 H820 0.950 . S
C816 C825 1.390 . S
C817 C816 1.387 . S
C817 C819 1.387 . S
H818 C825 0.950 . S
C819 C817 1.387 . S
C819 C821 1.390 . S
C819 H823 0.950 . S
H820 C816 0.950 . S
C821 C819 1.390 . S
C821 C822 1.387 . S
C821 H824 0.950 . S
C822 C821 1.387 . S
C822 C825 1.387 . S
H823 C819 0.950 . S
H824 C821 0.950 . S
C825 C816 1.390 . S
C825 H818 0.950 . S
C825 C822 1.387 . S
C826 C827 1.387 . S
C826 H830 0.950 . S
C826 C835 1.390 . S
C827 C826 1.387 . S
C827 C829 1.387 . S
H828 C835 0.950 . S
C829 C827 1.387 . S
C829 C831 1.390 . S
C829 H833 0.950 . S
H830 C826 0.950 . S
C831 C829 1.390 . S
C831 C832 1.387 . S
C831 H834 0.950 . S
C832 C831 1.387 . S
C832 C835 1.387 . S
H833 C829 0.950 . S
H834 C831 0.950 . S
C835 C826 1.390 . S
C835 H828 0.950 . S
C835 C832 1.387 . S
C836 C837 1.387 . S
C836 H840 0.950 . S
C836 C845 1.390 . S
C837 C836 1.387 . S
C837 C839 1.387 . S
H838 C845 0.950 . S
C839 C837 1.387 . S
C839 C841 1.390 . S
C839 H843 0.950 . S
H840 C836 0.950 . S
C841 C839 1.390 . S
C841 C842 1.387 . S
C841 H844 0.950 . S
C842 C841 1.387 . S
C842 C845 1.387 . S
H843 C839 0.950 . S
H844 C841 0.950 . S
C845 C836 1.390 . S
C845 H838 0.950 . S
C845 C842 1.387 . S
C846 C847 1.387 . S
C846 H850 0.950 . S
C846 C855 1.390 . S
C847 C846 1.387 . S
C847 C849 1.387 . S
H848 C855 0.950 . S
C849 C847 1.387 . S
C849 C851 1.390 . S
C849 H853 0.950 . S
H850 C846 0.950 . S
C851 C849 1.390 . S
C851 C852 1.387 . S
C851 H854 0.950 . S
C852 C851 1.387 . S
C852 C855 1.387 . S
H853 C849 0.950 . S
H854 C851 0.950 . S
C855 C846 1.390 . S
C855 H848 0.950 . S
C855 C852 1.387 . S
C856 C857 1.387 . S
C856 H860 0.950 . S
C856 C865 1.390 . S
C857 C856 1.387 . S
C857 C859 1.387 . S
H858 C865 0.950 . S
C859 C857 1.387 . S
C859 C861 1.390 . S
C859 H863 0.950 . S
H860 C856 0.950 . S
C861 C859 1.390 . S
C861 C862 1.387 . S
C861 H864 0.950 . S
C862 C861 1.387 . S
C862 C865 1.387 . S
H863 C859 0.950 . S
H864 C861 0.950 . S
C865 C856 1.390 . S
C865 H858 0.950 . S
C865 C862 1.387 . S
C866 C867 1.387 . S
C866 H870 0.950 . S
C866 C875 1.390 . S
C867 C866 1.387 . S
C867 C869 1.387 . S
H868 C875 0.950 . S
C869 C867 1.387 . S
C869 C871 1.390 . S
C869 H873 0.950 . S
H870 C866 0.950 . S
C871 C869 1.390 . S
C871 C872 1.387 . S
C871 H874 0.950 . S
C872 C871 1.387 . S
C872 C875 1.387 . S
H873 C869 0.950 . S
H874 C871 0.950 . S
C875 C866 1.390 . S
C875 H868 0.950 . S
C875 C872 1.387 . S
C876 C877 1.387 . S
C876 H880 0.950 . S
C876 C885 1.390 . S
C877 C876 1.387 . S
C877 C879 1.387 . S
H878 C885 0.950 . S
C879 C877 1.387 . S
C879 C881 1.390 . S
C879 H883 0.950 . S
H880 C876 0.950 . S
C881 C879 1.390 . S
C881 C882 1.387 . S
C881 H884 0.950 . S
C882 C881 1.387 . S
C882 C885 1.387 . S
H883 C879 0.950 . S
H884 C881 0.950 . S
C885 C876 1.390 . S
C885 H878 0.950 . S
C885 C882 1.387 . S
C886 C887 1.387 . S
C886 H890 0.950 . S
C886 C895 1.390 . S
C887 C886 1.387 . S
C887 C889 1.387 . S
H888 C895 0.950 . S
C889 C887 1.387 . S
C889 C891 1.390 . S
C889 H893 0.950 . S
H890 C886 0.950 . S
C891 C889 1.390 . S
C891 C892 1.387 . S
C891 H894 0.950 . S
C892 C891 1.387 . S
C892 C895 1.387 . S
H893 C889 0.950 . S
H894 C891 0.950 . S
C895 C886 1.390 . S
C895 H888 0.950 . S
C895 C892 1.387 . S
C896 C897 1.387 . S
C896 H900 0.950 . S
C896 C905 1.390 . S
C897 C896 1.387 . S
C897 C899 1.387 . S
H898 C905 0.950 . S
C899 C897 1.387 . S
C899 C901 1.390 . S
C899 H903 0.950 . S
H900 C896 0.950 . S
C901 C899 1.390 . S
C901 C902 1.387 . S
C901 H904 0.950 . S
C902 C901 1.387 . S
C902 C905 1.387 . S
H903 C899 0.950 . S
H904 C901 0.950 . S
C905 C896 1.390 . S
C905 H898 0.950 . S
C905 C902 1.387 . S
C906 C907 1.387 . S
C906 H910 0.950 . S
C906 C915 1.390 . S
C907 C906 1.387 . S
C907 C909 1.387 . S
H908 C915 0.950 . S
C909 C907 1.387 . S
C909 C911 1.390 . S
C909 H913 0.950 . S
H910 C906 0.950 . S
C911 C909 1.390 . S
C911 C912 1.387 . S
C911 H914 0.950 . S
C912 C911 1.387 . S
C912 C915 1.387 . S
H913 C909 0.950 . S
H914 C911 0.950 . S
C915 C906 1.390 . S
C915 H908 0.950 . S
C915 C912 1.387 . S
C916 C917 1.387 . S
C916 H920 0.950 . S
C916 C925 1.390 . S
C917 C916 1.387 . S
C917 C919 1.387 . S
H918 C925 0.950 . S
C919 C917 1.387 . S
C919 C921 1.390 . S
C919 H923 0.950 . S
H920 C916 0.950 . S
C921 C919 1.390 . S
C921 C922 1.387 . S
C921 H924 0.950 . S
C922 C921 1.387 . S
C922 C925 1.387 . S
H923 C919 0.950 . S
H924 C921 0.950 . S
C925 C916 1.390 . S
C925 H918 0.950 . S
C925 C922 1.387 . S
C926 C927 1.387 . S
C926 H930 0.950 . S
C926 C935 1.390 . S
C927 C926 1.387 . S
C927 C929 1.387 . S
H928 C935 0.950 . S
C929 C927 1.387 . S
C929 C931 1.390 . S
C929 H933 0.950 . S
H930 C926 0.950 . S
C931 C929 1.390 . S
C931 C932 1.387 . S
C931 H934 0.950 . S
C932 C931 1.387 . S
C932 C935 1.387 . S
H933 C929 0.950 . S
H934 C931 0.950 . S
C935 C926 1.390 . S
C935 H928 0.950 . S
C935 C932 1.387 . S
C936 C937 1.387 . S
C936 H940 0.941 1_554 S
C936 C945 1.390 . S
C937 C936 1.387 . S
C937 C939 1.387 . S
H938 C945 0.950 . S
C939 C937 1.387 . S
C939 C941 1.390 . S
C939 H943 0.950 . S
H940 C936 0.941 1_556 S
C941 C939 1.390 . S
C941 C942 1.387 . S
C941 H944 0.950 . S
C942 C941 1.387 . S
C942 C945 1.387 . S
H943 C939 0.950 . S
H944 C941 0.950 . S
C945 C936 1.390 . S
C945 H938 0.950 . S
C945 C942 1.387 . S
C946 C947 1.387 . S
C946 H950 0.950 . S
C946 C955 1.390 . S
C947 C946 1.387 . S
C947 C949 1.387 . S
H948 C955 0.950 . S
C949 C947 1.387 . S
C949 C951 1.390 . S
C949 H953 0.950 . S
H950 C946 0.950 . S
C951 C949 1.390 . S
C951 C952 1.387 . S
C951 H954 0.950 . S
C952 C951 1.387 . S
C952 C955 1.387 . S
H953 C949 0.950 . S
H954 C951 0.950 . S
C955 C946 1.390 . S
C955 H948 0.950 . S
C955 C952 1.387 . S
C956 C957 1.387 . S
C956 H960 0.950 . S
C956 C965 1.390 . S
C957 C956 1.387 . S
C957 C959 1.387 . S
H958 C965 0.950 . S
C959 C957 1.387 . S
C959 C961 1.390 . S
C959 H963 0.950 . S
H960 C956 0.950 . S
C961 C959 1.390 . S
C961 C962 1.387 . S
C961 H964 0.950 . S
C962 C961 1.387 . S
C962 C965 1.387 . S
H963 C959 0.950 . S
H964 C961 0.950 . S
C965 C956 1.390 . S
C965 H958 0.950 . S
C965 C962 1.387 . S
C966 C967 1.387 . S
C966 H970 0.950 . S
C966 C975 1.390 . S
C967 C966 1.387 . S
C967 C969 1.387 1_556 S
H968 C975 0.950 . S
C969 C967 1.387 1_554 S
C969 C971 1.390 1_554 S
C969 H973 0.950 . S
H970 C966 0.950 . S
C971 C969 1.390 1_556 S
C971 C972 1.387 . S
C971 H974 0.950 1_556 S
C972 C971 1.387 . S
C972 C975 1.387 . S
H973 C969 0.950 . S
H974 C971 0.950 1_554 S
C975 C966 1.390 . S
C975 H968 0.950 . S
C975 C972 1.387 . S
C976 C977 1.387 . S
C976 H980 0.950 1_556 S
C976 C985 1.390 . S
C977 C976 1.387 . S
C977 C979 1.387 . S
H978 C985 0.950 . S
C979 C977 1.387 . S
C979 C981 1.390 . S
C979 H983 0.950 . S
H980 C976 0.950 1_554 S
C981 C979 1.390 . S
C981 C982 1.387 . S
C981 H984 0.950 . S
C982 C981 1.387 . S
C982 C985 1.387 . S
H983 C979 0.950 . S
H984 C981 0.950 . S
C985 C976 1.390 . S
C985 H978 0.950 . S
C985 C982 1.387 . S
C986 C987 1.387 . S
C986 H990 0.950 . S
C986 C995 1.390 . S
C987 C986 1.387 . S
C987 C989 1.387 . S
H988 C995 0.950 . S
C989 C987 1.387 . S
C989 C991 1.390 . S
C989 H993 0.950 . S
H990 C986 0.950 . S
C991 C989 1.390 . S
C991 C992 1.387 . S
C991 H994 0.950 . S
C992 C991 1.387 . S
C992 C995 1.387 . S
H993 C989 0.950 . S
H994 C991 0.950 . S
C995 C986 1.390 . S
C995 H988 0.950 . S
C995 C992 1.387 . S
C996 C997 1.387 . S
C996 H1000 0.950 . S
C996 C1005 1.390 . S
C997 C996 1.387 . S
C997 C999 1.387 . S
H998 C1005 0.950 . S
C999 C997 1.387 . S
C999 C1001 1.390 . S
C999 H1003 0.950 . S
H1000 C996 0.950 . S
C1001 C999 1.390 . S
C1001 C1002 1.387 . S
C1001 H1004 0.950 . S
C1002 C1001 1.387 . S
C1002 C1005 1.387 . S
H1003 C999 0.950 . S
H1004 C1001 0.950 . S
C1005 C996 1.390 . S
C1005 H998 0.950 . S
C1005 C1002 1.387 . S
C1006 C1007 1.387 . S
C1006 H1010 0.950 . S
C1006 C1015 1.390 . S
C1007 C1006 1.387 . S
C1007 C1009 1.387 . S
H1008 C1015 0.950 . S
C1009 C1007 1.387 . S
C1009 C1011 1.390 . S
C1009 H1013 0.950 1_556 S
H1010 C1006 0.950 . S
C1011 C1009 1.390 . S
C1011 C1012 1.387 . S
C1011 H1014 0.950 . S
C1012 C1011 1.387 . S
C1012 C1015 1.387 . S
H1013 C1009 0.950 1_554 S
H1014 C1011 0.950 . S
C1015 C1006 1.390 . S
C1015 H1008 0.950 . S
C1015 C1012 1.387 . S
C1016 C1017 1.387 . S
C1016 H1020 0.950 . S
C1016 C1025 1.390 . S
C1017 C1016 1.387 . S
C1017 C1019 1.387 . S
H1018 C1025 0.950 . S
C1019 C1017 1.387 . S
C1019 C1021 1.390 . S
C1019 H1023 0.950 1_556 S
H1020 C1016 0.950 . S
C1021 C1019 1.390 . S
C1021 C1022 1.387 . S
C1021 H1024 0.950 . S
C1022 C1021 1.387 . S
C1022 C1025 1.387 . S
H1023 C1019 0.950 1_554 S
H1024 C1021 0.950 . S
C1025 C1016 1.390 . S
C1025 H1018 0.950 . S
C1025 C1022 1.387 . S
C1026 C1027 1.387 . S
C1026 H1030 0.950 . S
C1026 C1035 1.390 . S
C1027 C1026 1.387 . S
C1027 C1029 1.387 . S
H1028 C1035 0.950 . S
C1029 C1027 1.387 . S
C1029 C1031 1.390 . S
C1029 H1033 0.950 . S
H1030 C1026 0.950 . S
C1031 C1029 1.390 . S
C1031 C1032 1.387 . S
C1031 H1034 0.950 . S
C1032 C1031 1.387 . S
C1032 C1035 1.387 . S
H1033 C1029 0.950 . S
H1034 C1031 0.950 . S
C1035 C1026 1.390 . S
C1035 H1028 0.950 . S
C1035 C1032 1.387 . S
C1036 C1037 1.387 . S
C1036 H1040 0.950 . S
C1036 C1045 1.390 . S
C1037 C1036 1.387 . S
C1037 C1039 1.387 . S
H1038 C1045 0.950 . S
C1039 C1037 1.387 . S
C1039 C1041 1.390 . S
C1039 H1043 0.950 1_554 S
H1040 C1036 0.950 . S
C1041 C1039 1.390 . S
C1041 C1042 1.387 . S
C1041 H1044 0.950 . S
C1042 C1041 1.387 . S
C1042 C1045 1.387 . S
H1043 C1039 0.950 1_556 S
H1044 C1041 0.950 . S
C1045 C1036 1.390 . S
C1045 H1038 0.950 . S
C1045 C1042 1.387 . S
C1046 C1047 1.387 . S
C1046 H1050 0.950 . S
C1046 C1055 1.390 . S
C1047 C1046 1.387 . S
C1047 C1049 1.387 . S
H1048 C1055 0.950 . S
C1049 C1047 1.387 . S
C1049 C1051 1.390 . S
C1049 H1053 0.950 . S
H1050 C1046 0.950 . S
C1051 C1049 1.390 . S
C1051 C1052 1.387 . S
C1051 H1054 0.950 . S
C1052 C1051 1.387 . S
C1052 C1055 1.387 . S
H1053 C1049 0.950 . S
H1054 C1051 0.950 . S
C1055 C1046 1.390 . S
C1055 H1048 0.950 . S
C1055 C1052 1.387 . S
C1056 C1057 1.387 . S
C1056 H1060 0.950 . S
C1056 C1065 1.390 . S
C1057 C1056 1.387 . S
C1057 C1059 1.387 . S
H1058 C1065 0.950 . S
C1059 C1057 1.387 . S
C1059 C1061 1.390 . S
C1059 H1063 0.950 . S
H1060 C1056 0.950 . S
C1061 C1059 1.390 . S
C1061 C1062 1.387 . S
C1061 H1064 0.950 . S
C1062 C1061 1.387 . S
C1062 C1065 1.387 . S
H1063 C1059 0.950 . S
H1064 C1061 0.950 . S
C1065 C1056 1.390 . S
C1065 H1058 0.950 . S
C1065 C1062 1.387 . S
C1066 C1067 1.387 . S
C1066 H1070 0.950 . S
C1066 C1075 1.390 . S
C1067 C1066 1.387 . S
C1067 C1069 1.387 . S
H1068 C1075 0.950 . S
C1069 C1067 1.387 . S
C1069 C1071 1.390 . S
C1069 H1073 0.950 . S
H1070 C1066 0.950 . S
C1071 C1069 1.390 . S
C1071 C1072 1.387 . S
C1071 H1074 0.950 . S
C1072 C1071 1.387 . S
C1072 C1075 1.387 . S
H1073 C1069 0.950 . S
H1074 C1071 0.950 . S
C1075 C1066 1.390 . S
C1075 H1068 0.950 . S
C1075 C1072 1.387 . S
C1076 C1077 1.387 . S
C1076 H1080 0.950 . S
C1076 C1085 1.390 . S
C1077 C1076 1.387 . S
C1077 C1079 1.387 . S
H1078 C1085 0.950 . S
C1079 C1077 1.387 . S
C1079 C1081 1.390 . S
C1079 H1083 0.950 . S
H1080 C1076 0.950 . S
C1081 C1079 1.390 . S
C1081 C1082 1.387 . S
C1081 H1084 0.950 . S
C1082 C1081 1.387 . S
C1082 C1085 1.387 . S
H1083 C1079 0.950 . S
H1084 C1081 0.950 . S
C1085 C1076 1.390 . S
C1085 H1078 0.950 . S
C1085 C1082 1.387 . S
C1086 C1087 1.387 . S
C1086 H1090 0.950 . S
C1086 C1095 1.390 . S
C1087 C1086 1.387 . S
C1087 C1089 1.387 . S
H1088 C1095 0.950 1_655 S
C1089 C1087 1.387 . S
C1089 C1091 1.390 . S
C1089 H1093 0.950 . S
H1090 C1086 0.950 . S
C1091 C1089 1.390 . S
C1091 C1092 1.387 . S
C1091 H1094 0.950 . S
C1092 C1091 1.387 . S
C1092 C1095 1.387 . S
H1093 C1089 0.950 . S
H1094 C1091 0.950 . S
C1095 C1086 1.390 . S
C1095 H1088 0.950 1_455 S
C1095 C1092 1.387 . S
C1096 C1097 1.387 . S
C1096 H1100 0.950 . S
C1096 C1105 1.390 . S
C1097 C1096 1.387 . S
C1097 C1099 1.387 . S
H1098 C1105 0.950 . S
C1099 C1097 1.387 . S
C1099 C1101 1.390 . S
C1099 H1103 0.950 . S
H1100 C1096 0.950 . S
C1101 C1099 1.390 . S
C1101 C1102 1.387 . S
C1101 H1104 0.950 . S
C1102 C1101 1.387 . S
C1102 C1105 1.387 . S
H1103 C1099 0.950 . S
H1104 C1101 0.950 . S
C1105 C1096 1.390 . S
C1105 H1098 0.950 . S
C1105 C1102 1.387 . S
C1106 C1107 1.387 1_545 S
C1106 H1110 0.950 . S
C1106 C1115 1.390 . S
C1107 C1106 1.387 1_565 S
C1107 C1109 1.387 . S
H1108 C1115 0.950 . S
C1109 C1107 1.387 . S
C1109 C1111 1.390 . S
C1109 H1113 0.950 . S
H1110 C1106 0.950 . S
C1111 C1109 1.390 . S
C1111 C1112 1.387 . S
C1111 H1114 0.950 . S
C1112 C1111 1.387 . S
C1112 C1115 1.387 1_565 S
H1113 C1109 0.950 . S
H1114 C1111 0.950 . S
C1115 C1106 1.390 . S
C1115 H1108 0.950 . S
C1115 C1112 1.387 1_545 S
C1116 C1117 1.387 . S
C1116 H1120 0.950 . S
C1116 C1125 1.390 . S
C1117 C1116 1.387 . S
C1117 C1119 1.387 1_565 S
H1118 C1125 0.950 . S
C1119 C1117 1.387 1_545 S
C1119 C1121 1.390 . S
C1119 H1123 0.950 . S
H1120 C1116 0.950 . S
C1121 C1119 1.390 . S
C1121 C1122 1.387 1_545 S
C1121 H1124 0.950 . S
C1122 C1121 1.387 1_565 S
C1122 C1125 1.387 . S
H1123 C1119 0.950 . S
H1124 C1121 0.950 . S
C1125 C1116 1.390 . S
C1125 H1118 0.950 . S
C1125 C1122 1.387 . S
C1126 C1127 1.387 . S
C1126 H1130 0.950 . S
C1126 C1135 1.390 1_455 S
C1127 C1126 1.387 . S
C1127 C1129 1.387 . S
H1128 C1135 0.950 . S
C1129 C1127 1.387 . S
C1129 C1131 1.390 . S
C1129 H1133 0.950 . S
H1130 C1126 0.950 . S
C1131 C1129 1.390 . S
C1131 C1132 1.387 . S
C1131 H1134 0.950 . S
C1132 C1131 1.387 . S
C1132 C1135 1.387 1_455 S
H1133 C1129 0.950 . S
H1134 C1131 0.950 . S
C1135 C1126 1.390 1_655 S
C1135 H1128 0.950 . S
C1135 C1132 1.387 1_655 S
C1136 C1137 1.387 . S
C1136 H1140 0.950 . S
C1136 C1145 1.390 . S
C1137 C1136 1.387 . S
C1137 C1139 1.387 . S
H1138 C1145 0.950 . S
C1139 C1137 1.387 . S
C1139 C1141 1.390 . S
C1139 H1143 0.950 . S
H1140 C1136 0.950 . S
C1141 C1139 1.390 . S
C1141 C1142 1.387 . S
C1141 H1144 0.950 . S
C1142 C1141 1.387 . S
C1142 C1145 1.387 . S
H1143 C1139 0.950 . S
H1144 C1141 0.950 . S
C1145 C1136 1.390 . S
C1145 H1138 0.950 . S
C1145 C1142 1.387 . S
C1146 C1147 1.387 . S
C1146 H1150 0.950 . S
C1146 C1155 1.390 . S
C1147 C1146 1.387 . S
C1147 C1149 1.387 . S
H1148 C1155 0.950 . S
C1149 C1147 1.387 . S
C1149 C1151 1.390 . S
C1149 H1153 0.950 . S
H1150 C1146 0.950 . S
C1151 C1149 1.390 . S
C1151 C1152 1.387 . S
C1151 H1154 0.950 . S
C1152 C1151 1.387 . S
C1152 C1155 1.387 . S
H1153 C1149 0.950 . S
H1154 C1151 0.950 . S
C1155 C1146 1.390 . S
C1155 H1148 0.950 . S
C1155 C1152 1.387 . S
C1156 C1157 1.387 . S
C1156 H1160 0.950 . S
C1156 C1165 1.390 . S
C1157 C1156 1.387 . S
C1157 C1159 1.387 . S
H1158 C1165 0.950 . S
C1159 C1157 1.387 . S
C1159 C1161 1.390 . S
C1159 H1163 0.950 . S
H1160 C1156 0.950 . S
C1161 C1159 1.390 . S
C1161 C1162 1.387 . S
C1161 H1164 0.950 . S
C1162 C1161 1.387 . S
C1162 C1165 1.387 . S
H1163 C1159 0.950 . S
H1164 C1161 0.950 . S
C1165 C1156 1.390 . S
C1165 H1158 0.950 . S
C1165 C1162 1.387 . S
C1166 C1167 1.387 . S
C1166 H1170 0.950 . S
C1166 C1175 1.390 . S
C1167 C1166 1.387 . S
C1167 C1169 1.387 . S
H1168 C1175 0.950 . S
C1169 C1167 1.387 . S
C1169 C1171 1.390 . S
C1169 H1173 0.950 . S
H1170 C1166 0.950 . S
C1171 C1169 1.390 . S
C1171 C1172 1.387 . S
C1171 H1174 0.950 . S
C1172 C1171 1.387 . S
C1172 C1175 1.387 . S
H1173 C1169 0.950 . S
H1174 C1171 0.950 . S
C1175 C1166 1.390 . S
C1175 H1168 0.950 . S
C1175 C1172 1.387 . S
C1176 C1177 1.387 1_565 S
C1176 H1180 0.950 . S
C1176 C1185 1.390 . S
C1177 C1176 1.387 1_545 S
C1177 C1179 1.387 . S
H1178 C1185 0.950 . S
C1179 C1177 1.387 . S
C1179 C1181 1.390 . S
C1179 H1183 0.950 . S
H1180 C1176 0.950 . S
C1181 C1179 1.390 . S
C1181 C1182 1.387 . S
C1181 H1184 0.950 . S
C1182 C1181 1.387 . S
C1182 C1185 1.387 1_545 S
H1183 C1179 0.950 . S
H1184 C1181 0.950 . S
C1185 C1176 1.390 . S
C1185 H1178 0.950 . S
C1185 C1182 1.387 1_565 S
C1186 C1187 1.387 1_455 S
C1186 H1190 0.950 . S
C1186 C1195 1.390 . S
C1187 C1186 1.387 1_655 S
C1187 C1189 1.387 . S
H1188 C1195 0.950 . S
C1189 C1187 1.387 . S
C1189 C1191 1.390 . S
C1189 H1193 0.950 . S
H1190 C1186 0.950 . S
C1191 C1189 1.390 . S
C1191 C1192 1.387 . S
C1191 H1194 0.950 . S
C1192 C1191 1.387 . S
C1192 C1195 1.387 1_655 S
H1193 C1189 0.950 . S
H1194 C1191 0.950 . S
C1195 C1186 1.390 . S
C1195 H1188 0.950 . S
C1195 C1192 1.387 1_455 S
C1196 C1197 1.387 . S
C1196 H1200 0.950 . S
C1196 C1205 1.390 . S
C1197 C1196 1.387 . S
C1197 C1199 1.387 . S
H1198 C1205 0.950 . S
C1199 C1197 1.387 . S
C1199 C1201 1.390 . S
C1199 H1203 0.950 . S
H1200 C1196 0.950 . S
C1201 C1199 1.390 . S
C1201 C1202 1.387 . S
C1201 H1204 0.950 . S
C1202 C1201 1.387 . S
C1202 C1205 1.387 . S
H1203 C1199 0.950 . S
H1204 C1201 0.950 . S
C1205 C1196 1.390 . S
C1205 H1198 0.950 . S
C1205 C1202 1.387 . S
C1206 C1207 1.387 . S
C1206 H1210 0.950 . S
C1206 C1215 1.390 . S
C1207 C1206 1.387 . S
C1207 C1209 1.387 . S
H1208 C1215 0.950 . S
C1209 C1207 1.387 . S
C1209 C1211 1.390 . S
C1209 H1213 0.950 . S
H1210 C1206 0.950 . S
C1211 C1209 1.390 . S
C1211 C1212 1.387 . S
C1211 H1214 0.950 . S
C1212 C1211 1.387 . S
C1212 C1215 1.387 . S
H1213 C1209 0.950 . S
H1214 C1211 0.950 . S
C1215 C1206 1.390 . S
C1215 H1208 0.950 . S
C1215 C1212 1.387 . S
C1216 C1217 1.387 . S
C1216 H1220 0.950 . S
C1216 C1225 1.390 . S
C1217 C1216 1.387 . S
C1217 C1219 1.387 . S
H1218 C1225 0.950 . S
C1219 C1217 1.387 . S
C1219 C1221 1.390 . S
C1219 H1223 0.950 . S
H1220 C1216 0.950 . S
C1221 C1219 1.390 . S
C1221 C1222 1.387 . S
C1221 H1224 0.950 . S
C1222 C1221 1.387 . S
C1222 C1225 1.387 . S
H1223 C1219 0.950 . S
H1224 C1221 0.950 . S
C1225 C1216 1.390 . S
C1225 H1218 0.950 . S
C1225 C1222 1.387 . S
C1226 C1227 1.387 . S
C1226 H1230 0.950 . S
C1226 C1235 1.390 . S
C1227 C1226 1.387 . S
C1227 C1229 1.387 . S
H1228 C1235 0.950 . S
C1229 C1227 1.387 . S
C1229 C1231 1.390 . S
C1229 H1233 0.950 . S
H1230 C1226 0.950 . S
C1231 C1229 1.390 . S
C1231 C1232 1.387 . S
C1231 H1234 0.950 . S
C1232 C1231 1.387 . S
C1232 C1235 1.387 . S
H1233 C1229 0.950 . S
H1234 C1231 0.950 . S
C1235 C1226 1.390 . S
C1235 H1228 0.950 . S
C1235 C1232 1.387 . S
C1236 C1237 1.387 . S
C1236 H1240 0.950 . S
C1236 C1245 1.390 . S
C1237 C1236 1.387 . S
C1237 C1239 1.387 . S
H1238 C1245 0.950 . S
C1239 C1237 1.387 . S
C1239 C1241 1.390 . S
C1239 H1243 0.950 . S
H1240 C1236 0.950 . S
C1241 C1239 1.390 . S
C1241 C1242 1.387 . S
C1241 H1244 0.950 . S
C1242 C1241 1.387 . S
C1242 C1245 1.387 . S
H1243 C1239 0.950 . S
H1244 C1241 0.950 . S
C1245 C1236 1.390 . S
C1245 H1238 0.950 . S
C1245 C1242 1.387 . S
C1246 C1247 1.387 . S
C1246 H1250 0.950 . S
C1246 C1255 1.390 . S
C1247 C1246 1.387 . S
C1247 C1249 1.387 . S
H1248 C1255 0.950 . S
C1249 C1247 1.387 . S
C1249 C1251 1.390 . S
C1249 H1253 0.950 . S
H1250 C1246 0.950 . S
C1251 C1249 1.390 . S
C1251 C1252 1.387 . S
C1251 H1254 0.950 . S
C1252 C1251 1.387 . S
C1252 C1255 1.387 . S
H1253 C1249 0.950 . S
H1254 C1251 0.950 . S
C1255 C1246 1.390 . S
C1255 H1248 0.950 . S
C1255 C1252 1.387 . S
C1256 C1257 1.387 . S
C1256 H1260 0.950 . S
C1256 C1265 1.390 . S
C1257 C1256 1.387 . S
C1257 C1259 1.387 . S
H1258 C1265 0.950 . S
C1259 C1257 1.387 . S
C1259 C1261 1.390 . S
C1259 H1263 0.950 . S
H1260 C1256 0.950 . S
C1261 C1259 1.390 . S
C1261 C1262 1.387 . S
C1261 H1264 0.950 . S
C1262 C1261 1.387 . S
C1262 C1265 1.387 . S
H1263 C1259 0.950 . S
H1264 C1261 0.950 . S
C1265 C1256 1.390 . S
C1265 H1258 0.950 . S
C1265 C1262 1.387 . S
C1266 C1267 1.387 . S
C1266 H1270 0.950 . S
C1266 C1275 1.390 . S
C1267 C1266 1.387 . S
C1267 C1269 1.387 . S
H1268 C1275 0.950 . S
C1269 C1267 1.387 . S
C1269 C1271 1.390 . S
C1269 H1273 0.950 . S
H1270 C1266 0.950 . S
C1271 C1269 1.390 . S
C1271 C1272 1.387 . S
C1271 H1274 0.974 . S
C1272 C1271 1.387 . S
C1272 C1275 1.387 . S
H1273 C1269 0.950 . S
H1274 C1271 0.974 . S
C1275 C1266 1.390 . S
C1275 H1268 0.950 . S
C1275 C1272 1.387 . S
C1276 C1277 1.387 . S
C1276 H1280 0.950 . S
C1276 C1285 1.390 . S
C1277 C1276 1.387 . S
C1277 C1279 1.387 . S
H1278 C1285 0.950 . S
C1279 C1277 1.387 . S
C1279 C1281 1.390 . S
C1279 H1283 0.950 . S
H1280 C1276 0.950 . S
C1281 C1279 1.390 . S
C1281 C1282 1.387 . S
C1281 H1284 0.950 . S
C1282 C1281 1.387 . S
C1282 C1285 1.387 . S
H1283 C1279 0.950 . S
H1284 C1281 0.950 . S
C1285 C1276 1.390 . S
C1285 H1278 0.950 . S
C1285 C1282 1.387 . S
C1286 C1287 1.387 . S
C1286 H1290 0.950 . S
C1286 C1295 1.390 . S
C1287 C1286 1.387 . S
C1287 C1289 1.387 1_545 S
H1288 C1295 0.950 . S
C1289 C1287 1.387 1_565 S
C1289 C1291 1.390 . S
C1289 H1293 0.950 . S
H1290 C1286 0.950 . S
C1291 C1289 1.390 . S
C1291 C1292 1.387 1_565 S
C1291 H1294 0.950 . S
C1292 C1291 1.387 1_545 S
C1292 C1295 1.387 . S
H1293 C1289 0.950 . S
H1294 C1291 0.950 . S
C1295 C1286 1.390 . S
C1295 H1288 0.950 . S
C1295 C1292 1.387 . S
C577 C4 1.544 . S
C582 C421 1.570 . S
C587 C26 1.574 . S
C592 C446 1.546 . S
C602 C457 1.528 . S
C597 C32 1.503 . S
C607 C40 1.518 . S
C612 C482 1.503 . S
C617 C12 1.551 . S
C622 C500 1.538 . S
C627 C18 1.521 . S
C632 C511 1.547 . S
C637 C46 1.544 . S
C642 C493 1.568 1_455 S
C652 C518 1.530 . S
C647 C68 1.549 . S
C662 C475 1.530 1_565 S
C657 C74 1.514 . S
C667 C82 1.519 . S
C672 C464 1.513 1_545 S
C682 C428 1.545 1_655 S
C677 C54 1.557 . S
C687 C60 1.507 . S
C692 C439 1.538 . S
C697 C88 1.575 . S
C702 C529 1.600 . S
C707 C110 1.593 . S
C712 C554 1.560 . S
C722 C565 1.564 . S
C717 C116 1.541 . S
C727 C124 1.537 . S
C732 C266 1.511 . S
C737 C96 1.572 . S
C742 C284 1.548 . S
C747 C102 1.533 . S
C752 C295 1.553 . S
C757 C130 1.543 . S
C762 C277 1.572 . S
C767 C152 1.571 . S
C772 C302 1.551 . S
C782 C259 1.556 . S
C777 C158 1.525 . S
C792 C572 1.513 . S
C787 C166 1.530 . S
C802 C536 1.529 . S
C797 C138 1.546 . S
C812 C547 1.558 . S
C807 C144 1.526 . S
C817 C172 1.561 . S
C822 C313 1.583 . S
C827 C194 1.595 . S
C832 C338 1.566 . S
C837 C200 1.545 . S
C842 C349 1.567 . S
C847 C208 1.548 . S
C852 C374 1.522 . S
C862 C392 1.546 . S
C857 C180 1.571 . S
C872 C403 1.564 . S
C867 C186 1.539 . S
C882 C385 1.592 . S
C877 C214 1.559 . S
C892 C410 1.544 . S
C887 C236 1.566 . S
C897 C242 1.516 . S
C902 C367 1.549 . S
C912 C356 1.496 . S
C907 C250 1.512 . S
C917 C222 1.555 . S
C922 C320 1.539 . S
C932 C331 1.548 . S
C927 C228 1.520 . S
C942 C268 1.378 . S
C937 C5 1.221 . S
C947 C25 1.396 . S
C952 C286 1.323 . S
C962 C296 1.380 . S
C957 C33 1.242 . S
C972 C314 1.329 . S
C967 C39 1.371 . S
C982 C340 1.346 . S
C977 C11 1.405 . S
C992 C350 1.338 . S
C987 C19 1.187 1_556 S
C997 C47 1.258 1_556 S
C1002 C358 1.397 . S
C1007 C67 1.451 . S
C1012 C322 1.335 . S
C1017 C75 1.264 1_556 S
C1022 C332 1.412 . S
C1027 C81 1.433 . S
C1032 C278 1.366 . S
C1042 C304 1.347 . S
C1037 C53 1.455 . S
C1047 C61 1.207 . S
C1052 C260 1.368 . S
C1062 C376 1.358 . S
C1057 C89 1.195 . S
C1067 C109 1.423 . S
C1072 C394 1.354 . S
C1077 C117 1.214 . S
C1082 C404 1.363 . S
C1092 C422 1.289 . S
C1087 C123 1.333 . S
C1097 C95 1.389 . S
C1102 C448 1.324 . S
C1107 C103 1.179 . S
C1112 C458 1.304 . S
C1117 C131 1.183 . S
C1122 C466 1.328 . S
C1127 C151 1.399 . S
C1132 C430 1.295 . S
C1142 C440 1.379 . S
C1137 C159 1.225 . S
C1147 C165 1.428 . S
C1152 C386 1.348 . S
C1157 C137 1.471 . S
C1162 C412 1.357 . S
C1172 C368 1.390 . S
C1167 C145 1.230 . S
C1182 C484 1.315 . S
C1177 C173 1.181 . S
C1187 C193 1.349 . S
C1192 C502 1.292 . S
C1197 C201 1.189 . S
C1202 C512 1.338 . S
C1212 C530 1.309 . S
C1207 C207 1.371 . S
C1222 C556 1.355 . S
C1217 C179 1.426 . S
C1227 C187 1.206 . S
C1232 C566 1.357 . S
C1237 C215 1.232 . S
C1242 C574 1.375 . S
C1247 C235 1.475 . S
C1252 C538 1.358 . S
C1262 C548 1.396 . S
C1257 C243 1.243 . S
C1272 C494 1.282 1_655 S
C1267 C249 1.351 . S
C1282 C520 1.335 . S
C1277 C221 1.443 . S
C1287 C229 1.183 . S
C1292 C476 1.333 1_545 S
