# Generated by pormake.
# Topology ssa, (4,4)-cn, num edge types: 1
# Building blocks:
#     Node 0, Type 0, BuildingBlock: IZENUY_clean_linker_0, # of connection points: 4
#     Node 1, Type 0, BuildingBlock: IZENUY_clean_linker_0, # of connection points: 4
#     Node 2, Type 0, BuildingBlock: IZENUY_clean_linker_0, # of connection points: 4
#     Node 3, Type 0, BuildingBlock: IZENUY_clean_linker_0, # of connection points: 4
#     Node 4, Type 0, BuildingBlock: IZENUY_clean_linker_0, # of connection points: 4
#     Node 5, Type 0, BuildingBlock: IZENUY_clean_linker_0, # of connection points: 4
#     Node 6, Type 1, BuildingBlock: MUDLON_clean_sbu_0, # of connection points: 4
#     Node 7, Type 1, BuildingBlock: MUDLON_clean_sbu_0, # of connection points: 4
#     Node 8, Type 1, BuildingBlock: MUDLON_clean_sbu_0, # of connection points: 4
#     Node 9, Type 1, BuildingBlock: MUDLON_clean_sbu_0, # of connection points: 4
#     Node 10, Type 1, BuildingBlock: MUDLON_clean_sbu_0, # of connection points: 4
#     Node 11, Type 1, BuildingBlock: MUDLON_clean_sbu_0, # of connection points: 4
#     Edge 12, Type (0, 1), BuildingBlock: EYOCIG_clean_linker_4, # of connection points: 2
#     Edge 13, Type (0, 1), BuildingBlock: EYOCIG_clean_linker_4, # of connection points: 2
#     Edge 14, Type (0, 1), BuildingBlock: EYOCIG_clean_linker_4, # of connection points: 2
#     Edge 15, Type (0, 1), BuildingBlock: EYOCIG_clean_linker_4, # of connection points: 2
#     Edge 16, Type (0, 1), BuildingBlock: EYOCIG_clean_linker_4, # of connection points: 2
#     Edge 17, Type (0, 1), BuildingBlock: EYOCIG_clean_linker_4, # of connection points: 2
#     Edge 18, Type (0, 1), BuildingBlock: EYOCIG_clean_linker_4, # of connection points: 2
#     Edge 19, Type (0, 1), BuildingBlock: EYOCIG_clean_linker_4, # of connection points: 2
#     Edge 20, Type (0, 1), BuildingBlock: EYOCIG_clean_linker_4, # of connection points: 2
#     Edge 21, Type (0, 1), BuildingBlock: EYOCIG_clean_linker_4, # of connection points: 2
#     Edge 22, Type (0, 1), BuildingBlock: EYOCIG_clean_linker_4, # of connection points: 2
#     Edge 23, Type (0, 1), BuildingBlock: EYOCIG_clean_linker_4, # of connection points: 2
#     Edge 24, Type (0, 1), BuildingBlock: EYOCIG_clean_linker_4, # of connection points: 2
#     Edge 25, Type (0, 1), BuildingBlock: EYOCIG_clean_linker_4, # of connection points: 2
#     Edge 26, Type (0, 1), BuildingBlock: EYOCIG_clean_linker_4, # of connection points: 2
#     Edge 27, Type (0, 1), BuildingBlock: EYOCIG_clean_linker_4, # of connection points: 2
#     Edge 28, Type (0, 1), BuildingBlock: EYOCIG_clean_linker_4, # of connection points: 2
#     Edge 29, Type (0, 1), BuildingBlock: EYOCIG_clean_linker_4, # of connection points: 2
#     Edge 30, Type (0, 1), BuildingBlock: EYOCIG_clean_linker_4, # of connection points: 2
#     Edge 31, Type (0, 1), BuildingBlock: EYOCIG_clean_linker_4, # of connection points: 2
#     Edge 32, Type (0, 1), BuildingBlock: EYOCIG_clean_linker_4, # of connection points: 2
#     Edge 33, Type (0, 1), BuildingBlock: EYOCIG_clean_linker_4, # of connection points: 2
#     Edge 34, Type (0, 1), BuildingBlock: EYOCIG_clean_linker_4, # of connection points: 2
#     Edge 35, Type (0, 1), BuildingBlock: EYOCIG_clean_linker_4, # of connection points: 2
# Relax obj value: 0.000
# Max RMSD: 0.033
# Mean RMSD: 0.020
data_MOF--net-ssa--node1-MUDLON_clean_sbu_0--node2-IZENUY_clean_linker_0--edge1-EYOCIG_clean_linker_4
_symmetry_space_group_name_H-M    P1
_symmetry_Int_Tables_number       1
_symmetry_cell_setting            triclinic
loop_
_symmetry_equiv_pos_as_xyz
'x, y, z'
_cell_length_a     40.499107
_cell_length_b     40.570818
_cell_length_c     34.28791
_cell_angle_alpha  90.779721
_cell_angle_beta   90.639574
_cell_angle_gamma 120.02737
loop_
_atom_site_label
_atom_site_type_symbol
_atom_site_fract_x
_atom_site_fract_y
_atom_site_fract_z
_atom_type_partial_charge
H0 H 0.93045 0.41845 1.01917 0.0
H1 H 0.92692 0.52299 1.01443 0.0
H2 H 0.85659 0.42969 0.93602 0.0
H3 H 0.0055 0.54701 0.09569 0.0
H4 H 0.00832 0.4424 0.1061 0.0
H5 H 0.08278 0.54025 0.17761 0.0
N6 N -0.03988 0.49054 0.05072 0.0
N7 N -0.02512 0.47388 0.06748 0.0
C8 C 0.91934 0.43536 1.00654 0.0
C9 C 0.89197 0.41987 0.97602 0.0
C10 C 0.93214 0.47295 1.02046 0.0
C11 C 0.91726 0.49425 1.00375 0.0
C12 C 0.89015 0.4786 0.97341 0.0
C13 C 0.87772 0.44166 0.95962 0.0
C14 C 0.01694 0.53066 0.10897 0.0
C15 C 0.0456 0.54779 0.13801 0.0
C16 C 0.00333 0.4923 0.09724 0.0
C17 C 0.01863 0.47177 0.11494 0.0
C18 C 0.04724 0.48919 0.1438 0.0
C19 C 0.06057 0.52696 0.15516 0.0
H20 H 0.53454 0.02839 0.5908 0.0
H21 H 0.43001 0.03229 0.59596 0.0
H22 H 0.52271 0.10029 0.67603 0.0
H23 H 0.40656 0.95396 0.51311 0.0
H24 H 0.51139 0.95087 0.50538 0.0
H25 H 0.41407 0.87513 0.43383 0.0
N26 N 0.46267 -0.00056 0.55893 0.0
N27 N 0.47946 -0.01538 0.54242 0.0
C28 C 0.5176 0.03943 0.60365 0.0
C29 C 0.53285 0.06594 0.63489 0.0
C30 C 0.48015 0.02712 0.58947 0.0
C31 C 0.45874 0.04173 0.60665 0.0
C32 C 0.47414 0.06797 0.63777 0.0
C33 C 0.51098 0.07995 0.65174 0.0
C34 C 0.42309 0.94238 0.50043 0.0
C35 C 0.40616 0.91314 0.47192 0.0
C36 C 0.46138 0.95613 0.51267 0.0
C37 C 0.48212 0.94054 0.49595 0.0
C38 C 0.46501 0.91141 0.46762 0.0
C39 C 0.42723 0.89788 0.45573 0.0
H40 H 0.43255 0.42113 1.01453 0.0
H41 H 0.53935 0.52657 1.0049 0.0
H42 H 0.51717 0.42845 0.93522 0.0
H43 H 0.48787 0.54811 0.09096 0.0
H44 H 0.37685 0.44675 0.09569 0.0
H45 H 0.40701 0.54107 0.17499 0.0
N46 N 0.47425 0.49411 1.04258 0.0
N47 N 0.4428 0.47736 0.05897 0.0
C48 C 0.46025 0.43778 1.00154 0.0
C49 C 0.47218 0.42078 0.97347 0.0
C50 C 0.48455 0.4762 1.01307 0.0
C51 C 0.52051 0.49713 0.99598 0.0
C52 C 0.53221 0.47988 0.96789 0.0
C53 C 0.50798 0.44185 0.95682 0.0
C54 C 0.45987 0.5322 0.10354 0.0
C55 C 0.45018 0.54849 0.13435 0.0
C56 C 0.43339 0.49524 0.08934 0.0
C57 C 0.39725 0.47519 0.10632 0.0
C58 C 0.38781 0.49182 0.13721 0.0
C59 C 0.41432 0.5283 0.15101 0.0
H60 H -0.00621 0.44957 0.51524 0.0
H61 H -0.00682 0.55538 0.50607 0.0
H62 H 0.07026 0.53592 0.4378 0.0
H63 H 0.92009 0.50382 0.59017 0.0
H64 H 0.91248 0.39384 0.59525 0.0
H65 H 0.84698 0.4217 0.67275 0.0
N66 N -0.03854 0.49062 0.54275 0.0
N67 N 0.94693 0.45934 0.5592 0.0
C68 C 0.00447 0.47733 0.50258 0.0
C69 C 0.0336 0.4901 0.47502 0.0
C70 C -0.01028 0.50109 0.51391 0.0
C71 C 0.00419 0.537 0.49727 0.0
C72 C 0.03315 0.54941 0.46996 0.0
C73 C 0.04763 0.52598 0.45892 0.0
C74 C 0.9084 0.47586 0.60263 0.0
C75 C 0.88218 0.46553 0.63292 0.0
C76 C 0.91954 0.44985 0.58886 0.0
C77 C 0.90399 0.41384 0.60557 0.0
C78 C 0.87789 0.40387 0.63572 0.0
C79 C 0.86718 0.42965 0.64925 0.0
H80 H 0.43517 0.01265 1.0204 0.0
H81 H 0.5451 0.01977 1.01448 0.0
H82 H 0.51836 0.08752 0.93951 0.0
H83 H 0.49063 0.93973 0.09439 0.0
H84 H 0.38376 0.93844 0.10458 0.0
H85 H 0.40633 0.86451 0.17431 0.0
N86 N 0.47953 -0.01479 0.0504 0.0
N87 N 0.44826 0.97051 0.067 0.0
C88 C 0.46318 0.02436 1.0079 0.0
C89 C 0.47395 0.0514 0.97843 0.0
C90 C 0.48901 0.01273 1.02102 0.0
C91 C 0.52518 0.02849 1.00448 0.0
C92 C 0.53558 0.05538 0.9752 0.0
C93 C 0.51001 0.06657 0.96225 0.0
C94 C 0.46292 0.92882 0.10741 0.0
C95 C 0.4512 0.90061 0.13575 0.0
C96 C 0.43837 0.94258 0.096 0.0
C97 C 0.40264 0.92799 0.11326 0.0
C98 C 0.39123 0.89994 0.14139 0.0
C99 C 0.41543 0.88637 0.15247 0.0
H100 H 0.40306 0.4519 0.51909 0.0
H101 H 0.50736 0.56053 0.51497 0.0
H102 H 0.41319 0.53555 0.4374 0.0
H103 H 0.53033 0.50384 0.59459 0.0
H104 H 0.42406 0.39794 0.60492 0.0
H105 H 0.52204 0.42002 0.675 0.0
N106 N 0.47463 0.49434 0.55065 0.0
N107 N 0.45724 0.46291 0.56683 0.0
C108 C 0.4199 0.47985 0.50679 0.0
C109 C 0.4042 0.49113 0.4768 0.0
C110 C 0.45741 0.50491 0.52072 0.0
C111 C 0.4786 0.54111 0.50432 0.0
C112 C 0.46257 0.55208 0.47427 0.0
C113 C 0.42558 0.52698 0.46064 0.0
C114 C 0.51345 0.47627 0.60764 0.0
C115 C 0.5302 0.46449 0.636 0.0
C116 C 0.47493 0.45222 0.59617 0.0
C117 C 0.45364 0.41654 0.61362 0.0
C118 C 0.47069 0.40497 0.64206 0.0
C119 C 0.50885 0.429 0.65301 0.0
Mg120 Mg 0.20145 0.45331 0.32112 0.0
C121 C 0.14652 0.44078 0.25892 0.0
O122 O 0.13998 0.40625 0.26531 0.0
C123 C 0.24935 0.43696 0.37219 0.0
O124 O 0.22601 0.40352 0.35619 0.0
C125 C 0.1393 0.43991 0.37486 0.0
O126 O 0.12677 0.40589 0.35928 0.0
O127 O 0.17136 0.46729 0.36475 0.0
O128 O 0.17231 0.4687 0.27858 0.0
O129 O 0.24481 0.46949 0.27691 0.0
C130 C 0.24382 0.44246 0.25676 0.0
O131 O 0.21749 0.40722 0.2633 0.0
O132 O 0.24623 0.46555 0.36326 0.0
Mg133 Mg 0.72892 0.21686 0.81131 0.0
C134 C 0.68493 0.15935 0.74841 0.0
O135 O 0.71225 0.15172 0.75558 0.0
C136 C 0.79233 0.26578 0.86674 0.0
O137 O 0.80391 0.24304 0.85296 0.0
C138 C 0.68282 0.15716 0.86478 0.0
O139 O 0.70564 0.14611 0.85031 0.0
O140 O 0.68537 0.18805 0.85373 0.0
O141 O 0.68414 0.18606 0.76739 0.0
O142 O 0.75571 0.2603 0.76848 0.0
C143 C 0.78236 0.25894 0.75078 0.0
O144 O 0.79068 0.23248 0.75931 0.0
O145 O 0.76072 0.26182 0.85475 0.0
Mg146 Mg 0.49971 0.7475 0.30183 0.0
C147 C 0.48396 0.78984 0.23984 0.0
O148 O 0.44886 0.7637 0.24748 0.0
C149 C 0.4849 0.68621 0.35896 0.0
O150 O 0.45012 0.6728 0.34494 0.0
C151 C 0.49289 0.7975 0.35808 0.0
O152 O 0.45751 0.77377 0.34693 0.0
O153 O 0.51977 0.79404 0.34371 0.0
O154 O 0.5116 0.79014 0.25795 0.0
O155 O 0.51983 0.72088 0.26101 0.0
C156 C 0.49271 0.69245 0.24314 0.0
O157 O 0.45731 0.68298 0.25035 0.0
O158 O 0.51178 0.71736 0.34665 0.0
Mg159 Mg 0.73122 0.51404 0.80197 0.0
C160 C 0.67699 0.50291 0.73984 0.0
O161 O 0.66783 0.46799 0.7486 0.0
C162 C 0.78022 0.50622 0.85904 0.0
O163 O 0.75826 0.47117 0.84592 0.0
C164 C 0.67085 0.50345 0.85764 0.0
O165 O 0.65889 0.46805 0.84673 0.0
O166 O 0.70137 0.53007 0.84377 0.0
O167 O 0.70444 0.53075 0.75795 0.0
O168 O 0.77653 0.5288 0.76045 0.0
C169 C 0.77725 0.50156 0.7426 0.0
O170 O 0.75101 0.46633 0.74944 0.0
O171 O 0.77584 0.53281 0.84574 0.0
Mg172 Mg 0.19814 0.74763 0.31175 0.0
C173 C 0.15573 0.6906 0.24739 0.0
O174 O 0.18207 0.68184 0.25573 0.0
C175 C 0.26027 0.79818 0.36822 0.0
O176 O 0.27378 0.77695 0.35474 0.0
C177 C 0.14692 0.68984 0.36466 0.0
O178 O 0.16967 0.6773 0.35358 0.0
O179 O 0.15163 0.72099 0.35166 0.0
O180 O 0.15515 0.71749 0.26612 0.0
O181 O 0.22489 0.7925 0.27024 0.0
C182 C 0.25182 0.79203 0.2522 0.0
O183 O 0.26028 0.7654 0.25947 0.0
O184 O 0.22811 0.79241 0.35584 0.0
Mg185 Mg 0.43133 0.21375 0.82094 0.0
C186 C 0.44213 0.17134 0.75817 0.0
O187 O 0.47719 0.1976 0.76763 0.0
C188 C 0.43832 0.27274 0.87501 0.0
O189 O 0.47315 0.28617 0.86243 0.0
C190 C 0.44176 0.16156 0.87371 0.0
O191 O 0.47665 0.18276 0.86136 0.0
O192 O 0.41562 0.16785 0.86193 0.0
O193 O 0.41443 0.17025 0.77614 0.0
O194 O 0.41735 0.2435 0.7771 0.0
C195 C 0.44443 0.2694 0.75811 0.0
O196 O 0.47959 0.27728 0.76509 0.0
O197 O 0.412 0.24049 0.86256 0.0
C198 C 0.0812 0.45843 0.18188 0.0
C199 C 0.06365 0.4692 0.16254 0.0
C200 C 0.10389 0.451 0.20756 0.0
C201 C 0.12342 0.44644 0.23105 0.0
C202 C 0.59991 0.09573 0.67004 0.0
C203 C 0.57063 0.0796 0.65098 0.0
C204 C 0.63087 0.1175 0.69616 0.0
C205 C 0.65552 0.13663 0.72002 0.0
C206 C 0.49107 0.61565 0.16804 0.0
C207 C 0.47615 0.58602 0.14973 0.0
C208 C 0.49961 0.64672 0.19325 0.0
C209 C 0.49987 0.66949 0.21632 0.0
C210 C 0.85342 0.50339 0.66718 0.0
C211 C 0.8695 0.49048 0.64836 0.0
C212 C 0.82981 0.50956 0.69277 0.0
C213 C 0.80706 0.50866 0.71581 0.0
C214 C 0.3262 0.86724 0.178 0.0
C215 C 0.35469 0.88426 0.15937 0.0
C216 C 0.29647 0.84367 0.20281 0.0
C217 C 0.27462 0.82138 0.22564 0.0
C218 C 0.44013 0.34098 0.68051 0.0
C219 C 0.45019 0.36872 0.6608 0.0
C220 C 0.43578 0.31247 0.70665 0.0
C221 C 0.43735 0.2916 0.73044 0.0
C222 C 0.49615 0.87611 0.43238 0.0
C223 C 0.48526 0.89438 0.45046 0.0
C224 C 0.5016 0.85113 0.40796 0.0
C225 C 0.50054 0.82773 0.38524 0.0
C226 C 0.59744 0.50971 0.93142 0.0
C227 C 0.56909 0.49991 0.95016 0.0
C228 C 0.62688 0.51362 0.90675 0.0
C229 C 0.64859 0.51155 0.88437 0.0
C230 C 0.06745 0.61531 0.43551 0.0
C231 C 0.0494 0.58646 0.45324 0.0
C232 C 0.09271 0.6454 0.412 0.0
C233 C 0.11651 0.66753 0.39046 0.0
C234 C 0.43734 0.08244 0.94627 0.0
C235 C 0.44956 0.0652 0.96409 0.0
C236 C 0.43208 0.10749 0.92207 0.0
C237 C 0.43372 0.13132 0.90018 0.0
C238 C 0.33599 0.45382 0.4445 0.0
C239 C 0.36598 0.46712 0.46203 0.0
C240 C 0.30412 0.44525 0.42054 0.0
C241 C 0.27902 0.4412 0.39843 0.0
C242 C 0.85988 0.35209 0.94226 0.0
C243 C 0.87717 0.38169 0.96062 0.0
C244 C 0.83656 0.32069 0.9172 0.0
C245 C 0.81619 0.29571 0.89418 0.0
C246 C 0.85666 0.5106 0.9369 0.0
C247 C 0.87413 0.49952 0.95594 0.0
C248 C 0.83233 0.51562 0.9112 0.0
C249 C 0.80941 0.51401 0.88753 0.0
C250 C 0.3367 0.87879 0.44196 0.0
C251 C 0.36713 0.89742 0.45862 0.0
C252 C 0.30544 0.85277 0.41816 0.0
C253 C 0.28287 0.8287 0.39561 0.0
C254 C 0.43613 0.35063 0.94583 0.0
C255 C 0.4488 0.38157 0.96126 0.0
C256 C 0.42966 0.31858 0.92324 0.0
C257 C 0.43047 0.29548 0.90147 0.0
C258 C 0.06975 0.45684 0.44644 0.0
C259 C 0.05052 0.46789 0.46241 0.0
C260 C 0.09461 0.45 0.42343 0.0
C261 C 0.1155 0.44609 0.40134 0.0
C262 C 0.60084 0.09029 0.93937 0.0
C263 C 0.57244 0.07243 0.95787 0.0
C264 C 0.63078 0.1135 0.91464 0.0
C265 C 0.65447 0.1336 0.89188 0.0
C266 C 0.49195 0.61656 0.43716 0.0
C267 C 0.48271 0.58891 0.45673 0.0
C268 C 0.49488 0.64453 0.41109 0.0
C269 C 0.49237 0.66497 0.38745 0.0
C270 C 0.44119 0.09941 0.67649 0.0
C271 C 0.45278 0.08301 0.6564 0.0
C272 C 0.43521 0.12202 0.70372 0.0
C273 C 0.43579 0.14334 0.72877 0.0
C274 C 0.32397 0.46223 0.17623 0.0
C275 C 0.3515 0.47236 0.15609 0.0
C276 C 0.29507 0.45495 0.20322 0.0
C277 C 0.27195 0.44985 0.22778 0.0
C278 C 0.84474 0.33957 0.67313 0.0
C279 C 0.86168 0.36751 0.65385 0.0
C280 C 0.82304 0.31016 0.69898 0.0
C281 C 0.80437 0.28683 0.72267 0.0
C282 C 0.48637 0.86704 0.1656 0.0
C283 C 0.47464 0.88523 0.14881 0.0
C284 C 0.4917 0.84212 0.1899 0.0
C285 C 0.49057 0.81933 0.21293 0.0
C286 C 0.60001 0.50127 0.66465 0.0
C287 C 0.56924 0.48812 0.64871 0.0
C288 C 0.6315 0.50869 0.68867 0.0
C289 C 0.65386 0.5089 0.71222 0.0
C290 C 0.07879 0.61654 0.16903 0.0
C291 C 0.06063 0.58657 0.15152 0.0
C292 C 0.10369 0.64663 0.19463 0.0
C293 C 0.12637 0.66799 0.21894 0.0
loop_
_geom_bond_atom_site_label_1
_geom_bond_atom_site_label_2
_geom_bond_distance
_geom_bond_site_symmetry_2
_ccdc_geom_bond_type
H0 C8 0.940 . S
H1 C11 0.940 . S
H2 C13 0.940 . S
H3 C14 0.940 . S
H4 C17 0.940 . S
H5 C19 0.940 . S
N6 N7 1.183 1_655 S
N6 C10 1.480 1_554 S
N7 N6 1.183 1_455 S
N7 C16 1.477 . S
C8 H0 0.940 . S
C8 C9 1.390 . S
C8 C10 1.322 . S
C9 C8 1.390 . S
C9 C13 1.370 . S
C10 N6 1.480 1_556 S
C10 C8 1.322 . S
C10 C11 1.447 . S
C11 H1 0.940 . S
C11 C10 1.447 . S
C11 C12 1.373 . S
C12 C11 1.373 . S
C12 C13 1.417 . S
C13 H2 0.940 . S
C13 C9 1.370 . S
C13 C12 1.417 . S
C14 H3 0.940 . S
C14 C15 1.390 . S
C14 C16 1.322 . S
C15 C14 1.390 . S
C15 C19 1.370 . S
C16 N7 1.477 . S
C16 C14 1.322 . S
C16 C17 1.447 . S
C17 H4 0.940 . S
C17 C16 1.447 . S
C17 C18 1.373 . S
C18 C17 1.373 . S
C18 C19 1.417 . S
C19 H5 0.940 . S
C19 C15 1.370 . S
C19 C18 1.417 . S
H20 C28 0.940 . S
H21 C31 0.940 . S
H22 C33 0.940 . S
H23 C34 0.940 . S
H24 C37 0.940 . S
H25 C39 0.940 . S
N26 N27 1.190 . S
N26 C30 1.477 . S
N27 N26 1.190 . S
N27 C36 1.477 1_545 S
C28 H20 0.940 . S
C28 C29 1.390 . S
C28 C30 1.322 . S
C29 C28 1.390 . S
C29 C33 1.370 . S
C30 N26 1.477 . S
C30 C28 1.322 . S
C30 C31 1.447 . S
C31 H21 0.940 . S
C31 C30 1.447 . S
C31 C32 1.373 . S
C32 C31 1.373 . S
C32 C33 1.417 . S
C33 H22 0.940 . S
C33 C29 1.370 . S
C33 C32 1.417 . S
C34 H23 0.940 . S
C34 C35 1.390 . S
C34 C36 1.322 . S
C35 C34 1.390 . S
C35 C39 1.370 . S
C36 N27 1.477 1_565 S
C36 C34 1.322 . S
C36 C37 1.447 . S
C37 H24 0.940 . S
C37 C36 1.447 . S
C37 C38 1.373 . S
C38 C37 1.373 . S
C38 C39 1.417 . S
C39 H25 0.940 . S
C39 C35 1.370 . S
C39 C38 1.417 . S
H40 C48 0.940 . S
H41 C51 0.940 . S
H42 C53 0.940 . S
H43 C54 0.940 . S
H44 C57 0.940 . S
H45 C59 0.940 . S
N46 N47 1.190 1_556 S
N46 C50 1.477 . S
N47 N46 1.190 1_554 S
N47 C56 1.477 . S
C48 H40 0.940 . S
C48 C49 1.390 . S
C48 C50 1.322 . S
C49 C48 1.390 . S
C49 C53 1.370 . S
C50 N46 1.477 . S
C50 C48 1.322 . S
C50 C51 1.447 . S
C51 H41 0.940 . S
C51 C50 1.447 . S
C51 C52 1.373 . S
C52 C51 1.373 . S
C52 C53 1.417 . S
C53 H42 0.940 . S
C53 C49 1.370 . S
C53 C52 1.417 . S
C54 H43 0.940 . S
C54 C55 1.390 . S
C54 C56 1.322 . S
C55 C54 1.390 . S
C55 C59 1.370 . S
C56 N47 1.477 . S
C56 C54 1.322 . S
C56 C57 1.447 . S
C57 H44 0.940 . S
C57 C56 1.447 . S
C57 C58 1.373 . S
C58 C57 1.373 . S
C58 C59 1.417 . S
C59 H45 0.940 . S
C59 C55 1.370 . S
C59 C58 1.417 . S
H60 C68 0.940 . S
H61 C71 0.940 . S
H62 C73 0.940 . S
H63 C74 0.940 . S
H64 C77 0.940 . S
H65 C79 0.940 . S
N66 N67 1.190 . S
N66 C70 1.477 1_655 S
N67 N66 1.190 . S
N67 C76 1.477 . S
C68 H60 0.940 . S
C68 C69 1.390 . S
C68 C70 1.322 . S
C69 C68 1.390 . S
C69 C73 1.370 . S
C70 N66 1.477 1_455 S
C70 C68 1.322 . S
C70 C71 1.447 . S
C71 H61 0.940 . S
C71 C70 1.447 . S
C71 C72 1.373 . S
C72 C71 1.373 . S
C72 C73 1.417 . S
C73 H62 0.940 . S
C73 C69 1.370 . S
C73 C72 1.417 . S
C74 H63 0.940 . S
C74 C75 1.390 . S
C74 C76 1.322 . S
C75 C74 1.390 . S
C75 C79 1.370 . S
C76 N67 1.477 . S
C76 C74 1.322 . S
C76 C77 1.447 . S
C77 H64 0.940 . S
C77 C76 1.447 . S
C77 C78 1.373 . S
C78 C77 1.373 . S
C78 C79 1.417 . S
C79 H65 0.940 . S
C79 C75 1.370 . S
C79 C78 1.417 . S
H80 C88 0.940 . S
H81 C91 0.940 . S
H82 C93 0.940 . S
H83 C94 0.940 . S
H84 C97 0.940 . S
H85 C99 0.940 . S
N86 N87 1.190 . S
N86 C90 1.477 1_554 S
N87 N86 1.190 . S
N87 C96 1.477 1_545 S
C88 H80 0.940 . S
C88 C89 1.390 . S
C88 C90 1.322 . S
C89 C88 1.390 . S
C89 C93 1.370 . S
C90 N86 1.477 1_556 S
C90 C88 1.322 . S
C90 C91 1.447 . S
C91 H81 0.940 . S
C91 C90 1.447 . S
C91 C92 1.373 . S
C92 C91 1.373 . S
C92 C93 1.417 . S
C93 H82 0.940 . S
C93 C89 1.370 . S
C93 C92 1.417 . S
C94 H83 0.940 . S
C94 C95 1.390 . S
C94 C96 1.322 . S
C95 C94 1.390 . S
C95 C99 1.370 . S
C96 N87 1.477 1_565 S
C96 C94 1.322 . S
C96 C97 1.447 . S
C97 H84 0.940 . S
C97 C96 1.447 . S
C97 C98 1.373 . S
C98 C97 1.373 . S
C98 C99 1.417 . S
C99 H85 0.940 . S
C99 C95 1.370 . S
C99 C98 1.417 . S
H100 C108 0.940 . S
H101 C111 0.940 . S
H102 C113 0.940 . S
H103 C114 0.940 . S
H104 C117 0.940 . S
H105 C119 0.940 . S
N106 N107 1.190 . S
N106 C110 1.477 . S
N107 N106 1.190 . S
N107 C116 1.477 . S
C108 H100 0.940 . S
C108 C109 1.390 . S
C108 C110 1.322 . S
C109 C108 1.390 . S
C109 C113 1.370 . S
C110 N106 1.477 . S
C110 C108 1.322 . S
C110 C111 1.447 . S
C111 H101 0.940 . S
C111 C110 1.447 . S
C111 C112 1.373 . S
C112 C111 1.373 . S
C112 C113 1.417 . S
C113 H102 0.940 . S
C113 C109 1.370 . S
C113 C112 1.417 . S
C114 H103 0.940 . S
C114 C115 1.390 . S
C114 C116 1.322 . S
C115 C114 1.390 . S
C115 C119 1.370 . S
C116 N107 1.477 . S
C116 C114 1.322 . S
C116 C117 1.447 . S
C117 H104 0.940 . S
C117 C116 1.447 . S
C117 C118 1.373 . S
C118 C117 1.373 . S
C118 C119 1.417 . S
C119 H105 0.940 . S
C119 C115 1.370 . S
C119 C118 1.417 . S
Mg120 O127 2.141 . S
Mg120 O128 2.048 . S
Mg120 O129 2.048 . S
Mg120 O132 2.141 . S
C121 O122 1.313 . S
C121 O128 1.195 . S
O122 C121 1.313 . S
C123 O124 1.245 . S
C123 O132 1.289 . S
O124 C123 1.245 . S
C125 O126 1.245 . S
C125 O127 1.289 . S
O126 C125 1.245 . S
O127 Mg120 2.141 . S
O127 C125 1.289 . S
O128 Mg120 2.048 . S
O128 C121 1.195 . S
O129 Mg120 2.048 . S
O129 C130 1.195 . S
C130 O129 1.195 . S
C130 O131 1.313 . S
O131 C130 1.313 . S
O132 Mg120 2.141 . S
O132 C123 1.289 . S
Mg133 O140 2.141 . S
Mg133 O141 2.048 . S
Mg133 O142 2.048 . S
Mg133 O145 2.141 . S
C134 O135 1.313 . S
C134 O141 1.195 . S
O135 C134 1.313 . S
C136 O137 1.245 . S
C136 O145 1.289 . S
O137 C136 1.245 . S
C138 O139 1.245 . S
C138 O140 1.289 . S
O139 C138 1.245 . S
O140 Mg133 2.141 . S
O140 C138 1.289 . S
O141 Mg133 2.048 . S
O141 C134 1.195 . S
O142 Mg133 2.048 . S
O142 C143 1.195 . S
C143 O142 1.195 . S
C143 O144 1.313 . S
O144 C143 1.313 . S
O145 Mg133 2.141 . S
O145 C136 1.289 . S
Mg146 O153 2.141 . S
Mg146 O154 2.048 . S
Mg146 O155 2.048 . S
Mg146 O158 2.141 . S
C147 O148 1.313 . S
C147 O154 1.195 . S
O148 C147 1.313 . S
C149 O150 1.245 . S
C149 O158 1.289 . S
O150 C149 1.245 . S
C151 O152 1.245 . S
C151 O153 1.289 . S
O152 C151 1.245 . S
O153 Mg146 2.141 . S
O153 C151 1.289 . S
O154 Mg146 2.048 . S
O154 C147 1.195 . S
O155 Mg146 2.048 . S
O155 C156 1.195 . S
C156 O155 1.195 . S
C156 O157 1.313 . S
O157 C156 1.313 . S
O158 Mg146 2.141 . S
O158 C149 1.289 . S
Mg159 O166 2.141 . S
Mg159 O167 2.048 . S
Mg159 O168 2.048 . S
Mg159 O171 2.141 . S
C160 O161 1.313 . S
C160 O167 1.195 . S
O161 C160 1.313 . S
C162 O163 1.245 . S
C162 O171 1.289 . S
O163 C162 1.245 . S
C164 O165 1.245 . S
C164 O166 1.289 . S
O165 C164 1.245 . S
O166 Mg159 2.141 . S
O166 C164 1.289 . S
O167 Mg159 2.048 . S
O167 C160 1.195 . S
O168 Mg159 2.048 . S
O168 C169 1.195 . S
C169 O168 1.195 . S
C169 O170 1.313 . S
O170 C169 1.313 . S
O171 Mg159 2.141 . S
O171 C162 1.289 . S
Mg172 O179 2.141 . S
Mg172 O180 2.048 . S
Mg172 O181 2.048 . S
Mg172 O184 2.141 . S
C173 O174 1.313 . S
C173 O180 1.195 . S
O174 C173 1.313 . S
C175 O176 1.245 . S
C175 O184 1.289 . S
O176 C175 1.245 . S
C177 O178 1.245 . S
C177 O179 1.289 . S
O178 C177 1.245 . S
O179 Mg172 2.141 . S
O179 C177 1.289 . S
O180 Mg172 2.048 . S
O180 C173 1.195 . S
O181 Mg172 2.048 . S
O181 C182 1.195 . S
C182 O181 1.195 . S
C182 O183 1.313 . S
O183 C182 1.313 . S
O184 Mg172 2.141 . S
O184 C175 1.289 . S
Mg185 O192 2.141 . S
Mg185 O193 2.048 . S
Mg185 O194 2.048 . S
Mg185 O197 2.141 . S
C186 O187 1.313 . S
C186 O193 1.195 . S
O187 C186 1.313 . S
C188 O189 1.245 . S
C188 O197 1.289 . S
O189 C188 1.245 . S
C190 O191 1.245 . S
C190 O192 1.289 . S
O191 C190 1.245 . S
O192 Mg185 2.141 . S
O192 C190 1.289 . S
O193 Mg185 2.048 . S
O193 C186 1.195 . S
O194 Mg185 2.048 . S
O194 C195 1.195 . S
C195 O194 1.195 . S
C195 O196 1.313 . S
O196 C195 1.313 . S
O197 Mg185 2.141 . S
O197 C188 1.289 . S
C198 C199 1.170 . S
C198 C200 1.380 . S
C199 C198 1.170 . S
C200 C198 1.380 . S
C200 C201 1.170 . S
C201 C200 1.170 . S
C202 C203 1.170 . S
C202 C204 1.380 . S
C203 C202 1.170 . S
C204 C202 1.380 . S
C204 C205 1.170 . S
C205 C204 1.170 . S
C206 C207 1.170 . S
C206 C208 1.380 . S
C207 C206 1.170 . S
C208 C206 1.380 . S
C208 C209 1.170 . S
C209 C208 1.170 . S
C210 C211 1.170 . S
C210 C212 1.380 . S
C211 C210 1.170 . S
C212 C210 1.380 . S
C212 C213 1.170 . S
C213 C212 1.170 . S
C214 C215 1.170 . S
C214 C216 1.380 . S
C215 C214 1.170 . S
C216 C214 1.380 . S
C216 C217 1.170 . S
C217 C216 1.170 . S
C218 C219 1.170 . S
C218 C220 1.380 . S
C219 C218 1.170 . S
C220 C218 1.380 . S
C220 C221 1.170 . S
C221 C220 1.170 . S
C222 C223 1.170 . S
C222 C224 1.380 . S
C223 C222 1.170 . S
C224 C222 1.380 . S
C224 C225 1.170 . S
C225 C224 1.170 . S
C226 C227 1.170 . S
C226 C228 1.380 . S
C227 C226 1.170 . S
C228 C226 1.380 . S
C228 C229 1.170 . S
C229 C228 1.170 . S
C230 C231 1.170 . S
C230 C232 1.380 . S
C231 C230 1.170 . S
C232 C230 1.380 . S
C232 C233 1.170 . S
C233 C232 1.170 . S
C234 C235 1.170 . S
C234 C236 1.380 . S
C235 C234 1.170 . S
C236 C234 1.380 . S
C236 C237 1.170 . S
C237 C236 1.170 . S
C238 C239 1.170 . S
C238 C240 1.380 . S
C239 C238 1.170 . S
C240 C238 1.380 . S
C240 C241 1.170 . S
C241 C240 1.170 . S
C242 C243 1.170 . S
C242 C244 1.380 . S
C243 C242 1.170 . S
C244 C242 1.380 . S
C244 C245 1.170 . S
C245 C244 1.170 . S
C246 C247 1.170 . S
C246 C248 1.380 . S
C247 C246 1.170 . S
C248 C246 1.380 . S
C248 C249 1.170 . S
C249 C248 1.170 . S
C250 C251 1.170 . S
C250 C252 1.380 . S
C251 C250 1.170 . S
C252 C250 1.380 . S
C252 C253 1.170 . S
C253 C252 1.170 . S
C254 C255 1.170 . S
C254 C256 1.380 . S
C255 C254 1.170 . S
C256 C254 1.380 . S
C256 C257 1.170 . S
C257 C256 1.170 . S
C258 C259 1.170 . S
C258 C260 1.380 . S
C259 C258 1.170 . S
C260 C258 1.380 . S
C260 C261 1.170 . S
C261 C260 1.170 . S
C262 C263 1.170 . S
C262 C264 1.380 . S
C263 C262 1.170 . S
C264 C262 1.380 . S
C264 C265 1.170 . S
C265 C264 1.170 . S
C266 C267 1.170 . S
C266 C268 1.380 . S
C267 C266 1.170 . S
C268 C266 1.380 . S
C268 C269 1.170 . S
C269 C268 1.170 . S
C270 C271 1.170 . S
C270 C272 1.380 . S
C271 C270 1.170 . S
C272 C270 1.380 . S
C272 C273 1.170 . S
C273 C272 1.170 . S
C274 C275 1.170 . S
C274 C276 1.380 . S
C275 C274 1.170 . S
C276 C274 1.380 . S
C276 C277 1.170 . S
C277 C276 1.170 . S
C278 C279 1.170 . S
C278 C280 1.380 . S
C279 C278 1.170 . S
C280 C278 1.380 . S
C280 C281 1.170 . S
C281 C280 1.170 . S
C282 C283 1.170 . S
C282 C284 1.380 . S
C283 C282 1.170 . S
C284 C282 1.380 . S
C284 C285 1.170 . S
C285 C284 1.170 . S
C286 C287 1.170 . S
C286 C288 1.380 . S
C287 C286 1.170 . S
C288 C286 1.380 . S
C288 C289 1.170 . S
C289 C288 1.170 . S
C290 C291 1.170 . S
C290 C292 1.380 . S
C291 C290 1.170 . S
C292 C290 1.380 . S
C292 C293 1.170 . S
C293 C292 1.170 . S
C199 C18 1.407 . S
C201 C121 1.465 . S
C203 C29 1.448 . S
C205 C134 1.541 . S
C209 C156 1.486 . S
C207 C55 1.419 . S
C213 C169 1.533 . S
C211 C75 1.441 . S
C217 C182 1.466 . S
C215 C98 1.435 . S
C221 C195 1.516 . S
C219 C118 1.484 . S
C223 C38 1.419 . S
C225 C151 1.452 . S
C227 C52 1.487 . S
C229 C164 1.514 . S
C233 C177 1.468 . S
C231 C72 1.439 . S
C237 C190 1.530 . S
C235 C89 1.427 . S
C239 C109 1.411 . S
C241 C123 1.487 . S
C245 C136 1.545 . S
C243 C9 1.412 . S
C249 C162 1.434 . S
C247 C12 1.424 . S
C251 C35 1.431 . S
C253 C175 1.529 . S
C257 C188 1.479 . S
C255 C49 1.384 . S
C259 C69 1.465 . S
C261 C125 1.544 . S
C263 C92 1.435 . S
C265 C138 1.465 . S
C267 C112 1.462 . S
C269 C149 1.486 . S
C271 C32 1.406 . S
C273 C186 1.440 . S
C277 C130 1.524 . S
C275 C58 1.495 . S
C279 C78 1.420 . S
C281 C143 1.484 . S
C283 C95 1.485 . S
C285 C147 1.546 . S
C287 C115 1.415 . S
C289 C160 1.472 . S
C291 C15 1.453 . S
C293 C173 1.521 . S
