# Generated by pormake.
# Topology zzz, (3,6)-cn, num edge types: 1
# Building blocks:
#     Node 0, Type 0, BuildingBlock: BETDAH_clean_linker_0, # of connection points: 3
#     Node 1, Type 0, BuildingBlock: BETDAH_clean_linker_0, # of connection points: 3
#     Node 2, Type 0, BuildingBlock: BETDAH_clean_linker_0, # of connection points: 3
#     Node 3, Type 0, BuildingBlock: BETDAH_clean_linker_0, # of connection points: 3
#     Node 4, Type 0, BuildingBlock: BETDAH_clean_linker_0, # of connection points: 3
#     Node 5, Type 0, BuildingBlock: BETDAH_clean_linker_0, # of connection points: 3
#     Node 6, Type 0, BuildingBlock: BETDAH_clean_linker_0, # of connection points: 3
#     Node 7, Type 0, BuildingBlock: BETDAH_clean_linker_0, # of connection points: 3
#     Node 8, Type 1, BuildingBlock: CUKXOW_clean_sbu_0, # of connection points: 6
#     Node 9, Type 1, BuildingBlock: CUKXOW_clean_sbu_0, # of connection points: 6
#     Node 10, Type 1, BuildingBlock: CUKXOW_clean_sbu_0, # of connection points: 6
#     Node 11, Type 1, BuildingBlock: CUKXOW_clean_sbu_0, # of connection points: 6
#     Edge 12, Type (0, 1), BuildingBlock: OJICUG_clean_linker_0, # of connection points: 2
#     Edge 13, Type (0, 1), BuildingBlock: OJICUG_clean_linker_0, # of connection points: 2
#     Edge 14, Type (0, 1), BuildingBlock: OJICUG_clean_linker_0, # of connection points: 2
#     Edge 15, Type (0, 1), BuildingBlock: OJICUG_clean_linker_0, # of connection points: 2
#     Edge 16, Type (0, 1), BuildingBlock: OJICUG_clean_linker_0, # of connection points: 2
#     Edge 17, Type (0, 1), BuildingBlock: OJICUG_clean_linker_0, # of connection points: 2
#     Edge 18, Type (0, 1), BuildingBlock: OJICUG_clean_linker_0, # of connection points: 2
#     Edge 19, Type (0, 1), BuildingBlock: OJICUG_clean_linker_0, # of connection points: 2
#     Edge 20, Type (0, 1), BuildingBlock: OJICUG_clean_linker_0, # of connection points: 2
#     Edge 21, Type (0, 1), BuildingBlock: OJICUG_clean_linker_0, # of connection points: 2
#     Edge 22, Type (0, 1), BuildingBlock: OJICUG_clean_linker_0, # of connection points: 2
#     Edge 23, Type (0, 1), BuildingBlock: OJICUG_clean_linker_0, # of connection points: 2
#     Edge 24, Type (0, 1), BuildingBlock: OJICUG_clean_linker_0, # of connection points: 2
#     Edge 25, Type (0, 1), BuildingBlock: OJICUG_clean_linker_0, # of connection points: 2
#     Edge 26, Type (0, 1), BuildingBlock: OJICUG_clean_linker_0, # of connection points: 2
#     Edge 27, Type (0, 1), BuildingBlock: OJICUG_clean_linker_0, # of connection points: 2
#     Edge 28, Type (0, 1), BuildingBlock: OJICUG_clean_linker_0, # of connection points: 2
#     Edge 29, Type (0, 1), BuildingBlock: OJICUG_clean_linker_0, # of connection points: 2
#     Edge 30, Type (0, 1), BuildingBlock: OJICUG_clean_linker_0, # of connection points: 2
#     Edge 31, Type (0, 1), BuildingBlock: OJICUG_clean_linker_0, # of connection points: 2
#     Edge 32, Type (0, 1), BuildingBlock: OJICUG_clean_linker_0, # of connection points: 2
#     Edge 33, Type (0, 1), BuildingBlock: OJICUG_clean_linker_0, # of connection points: 2
#     Edge 34, Type (0, 1), BuildingBlock: OJICUG_clean_linker_0, # of connection points: 2
#     Edge 35, Type (0, 1), BuildingBlock: OJICUG_clean_linker_0, # of connection points: 2
# Relax obj value: 0.060
# Max RMSD: 0.120
# Mean RMSD: 0.079
data_MOF--net-zzz--node1-CUKXOW_clean_sbu_0--node2-BETDAH_clean_linker_0--edge1-OJICUG_clean_linker_0
_symmetry_space_group_name_H-M    P1
_symmetry_Int_Tables_number       1
_symmetry_cell_setting            triclinic
loop_
_symmetry_equiv_pos_as_xyz
'x, y, z'
_cell_length_a     35.714398
_cell_length_b     37.584024
_cell_length_c     12.707962
_cell_angle_alpha  94.65877
_cell_angle_beta   85.540304
_cell_angle_gamma 93.805362
loop_
_atom_site_label
_atom_site_type_symbol
_atom_site_fract_x
_atom_site_fract_y
_atom_site_fract_z
_atom_type_partial_charge
H0 H 0.88512 0.5589 0.16037 0.0
H1 H 0.80507 0.51549 0.94067 0.0
H2 H 0.77479 0.52292 0.27662 0.0
C3 C 0.85664 0.54945 0.14398 0.0
C4 C 0.83048 0.544 0.22939 0.0
C5 C 0.84832 0.53907 0.0396 0.0
C6 C 0.81187 0.52439 0.02052 0.0
C7 C 0.78496 0.51946 0.10665 0.0
C8 C 0.79483 0.52845 0.21054 0.0
N9 N 0.74889 0.50249 0.09333 0.0
C10 C 0.72718 0.50664 0.00979 0.0
H11 H 0.04602 0.89143 0.1795 0.0
H12 H 1.00529 0.8389 0.89473 0.0
H13 H 0.99426 0.78492 0.18225 0.0
C14 C 0.03464 0.8674 0.1369 0.0
C15 C 0.0223 0.83774 0.19284 0.0
C16 C 0.02779 0.86852 0.0306 0.0
C17 C 1.01182 0.838 -0.02368 0.0
C18 C 1.00137 0.8071 0.02947 0.0
C19 C 1.00575 0.80728 0.1388 0.0
N20 N 0.9799 0.77909 -0.02298 0.0
C21 C 0.99233 0.74496 0.95244 0.0
H22 H 0.64685 1.0124 0.1049 0.0
H23 H 0.75204 0.99285 0.92918 0.0
H24 H 0.73684 0.97426 0.26151 0.0
C25 C 0.67547 1.00403 0.10239 0.0
C26 C 0.68936 0.99392 0.19434 0.0
C27 C 0.69764 1.00356 0.0071 0.0
C28 C 0.73481 0.99315 0.00321 0.0
C29 C 0.74901 0.98236 0.09573 0.0
C30 C 0.72585 0.98217 0.19033 0.0
N31 N 0.78621 0.97142 0.09711 0.0
C32 C 0.81584 0.98125 0.02589 0.0
H33 H 0.59208 0.65525 0.17619 0.0
H34 H 0.52286 0.71904 0.0136 0.0
H35 H 0.56595 0.76012 0.30765 0.0
C36 C 0.57931 0.68024 0.16955 0.0
C37 C 0.58136 0.70684 0.2529 0.0
C38 C 0.55559 0.68268 0.08782 0.0
C39 C 0.54114 0.71606 0.076 0.0
C40 C 0.54719 0.74486 0.1522 0.0
C41 C 0.56547 0.73946 0.24303 0.0
N42 N 0.52901 0.77709 0.14926 0.0
C43 C 0.53631 0.80019 0.06905 0.0
H44 H 0.1807 0.54647 0.20542 0.0
H45 H 0.25678 0.51488 0.42207 0.0
H46 H 0.28684 0.50727 0.08608 0.0
C47 C 0.20826 0.53819 0.22041 0.0
C48 C 0.23338 0.52882 0.13482 0.0
C49 C 0.21573 0.53218 0.32357 0.0
C50 C 0.251 0.52033 0.34269 0.0
C51 C 0.27745 0.51266 0.25633 0.0
C52 C 0.26782 0.51576 0.15268 0.0
N53 N 0.31223 0.49805 0.26888 0.0
C54 C 0.33393 0.5064 0.35445 0.0
H55 H 1.01432 0.1699 0.23109 0.0
H56 H 0.04799 0.22306 0.52301 0.0
H57 H 0.05889 0.27919 0.23881 0.0
C58 C 0.02408 0.19413 0.2759 0.0
C59 C 0.03501 0.22472 0.22268 0.0
C60 C 0.02942 0.19292 0.38306 0.0
C61 C 0.04292 0.2239 0.44025 0.0
C62 C 0.05207 0.25558 0.38999 0.0
C63 C 0.04885 0.25587 0.27993 0.0
N64 N 0.06944 0.28472 0.44972 0.0
C65 C 0.06225 0.32044 0.44543 0.0
H66 H 0.4047 0.0296 0.31414 0.0
H67 H 0.30487 0.06221 0.49651 0.0
H68 H 0.3206 0.07957 0.16365 0.0
C69 C 0.37743 0.04102 0.31796 0.0
C70 C 0.36486 0.05341 0.22716 0.0
C71 C 0.35626 0.04426 0.41474 0.0
C72 C 0.3212 0.05944 0.42115 0.0
C73 C 0.30814 0.07205 0.32959 0.0
C74 C 0.33054 0.06972 0.23367 0.0
N75 N 0.27309 0.08777 0.33125 0.0
C76 C 0.24219 0.07893 0.39939 0.0
H77 H 0.50589 0.37983 0.16899 0.0
H78 H 0.47796 0.31813 0.43816 0.0
H79 H 0.44473 0.27828 0.12922 0.0
C80 C 0.49397 0.35552 0.20243 0.0
C81 C 0.47623 0.32924 0.13661 0.0
C82 C 0.4933 0.35277 0.31169 0.0
C83 C 0.47881 0.32072 0.3537 0.0
C84 C 0.46215 0.29325 0.2869 0.0
C85 C 0.45968 0.29827 0.17915 0.0
N86 N 0.44362 0.26239 0.32847 0.0
C87 C 0.46069 0.23998 0.38959 0.0
Tb88 Tb 0.0247 0.99568 0.63715 0.0
C89 C 0.09858 0.04486 0.61337 0.0
Tb90 Tb 0.0315 0.06652 0.78084 0.0
O91 O 0.02433 0.02522 0.49568 0.0
O92 O 1.00478 0.04768 0.64287 0.0
O93 O 0.08384 1.01145 0.60311 0.0
C94 C 0.03902 0.13419 0.86504 0.0
O95 O 0.08051 0.07124 0.66698 0.0
C96 C 0.04364 1.00794 0.86914 0.0
C97 C 0.9577 0.01715 0.80505 0.0
O98 O 0.0638 0.11037 0.86359 0.0
O99 O 1.00979 0.11973 0.81966 0.0
O100 O 0.03193 0.03663 0.92198 0.0
O101 O 0.05148 1.01463 0.77461 0.0
O102 O 0.97238 0.0506 0.81558 0.0
O103 O 0.97578 0.99086 0.75108 0.0
C104 C 1.0176 0.92808 0.5529 0.0
O105 O 0.99255 0.95167 0.55489 0.0
O106 O 0.04681 0.94272 0.59789 0.0
C107 C 1.01277 0.05404 0.54803 0.0
Tb108 Tb 0.5258 0.06254 0.67797 0.0
C109 C 0.57798 1.00854 0.54317 0.0
Tb110 Tb 0.52747 0.98285 0.74231 0.0
O111 O 0.584 0.07644 0.7186 0.0
O112 O 0.55241 0.03416 0.78466 0.0
O113 O 0.5586 0.03759 0.54484 0.0
C114 C 0.54162 0.92302 0.82899 0.0
O115 O 0.57231 0.98455 0.61509 0.0
C116 C 0.46795 0.99756 0.64886 0.0
C117 C 0.47567 0.0368 0.87775 0.0
O118 O 0.53105 0.92443 0.73372 0.0
O119 O 0.54478 0.95525 0.87395 0.0
O120 O 0.46878 0.96995 0.70352 0.0
O121 O 0.5009 1.01138 0.63606 0.0
O122 O 0.49513 1.00782 0.87641 0.0
O123 O 0.48107 0.0605 0.80513 0.0
C124 C 0.50813 0.12103 0.59047 0.0
O125 O 0.51583 0.11998 0.68863 0.0
O126 O 0.51022 0.08928 0.5428 0.0
C127 C 0.5852 0.04853 0.77204 0.0
Tb128 Tb 0.54527 0.54902 0.63129 0.0
C129 C 0.46222 0.51881 0.59971 0.0
Tb130 Tb 0.51272 0.48478 0.75532 0.0
O131 O 0.54269 0.51599 0.48152 0.0
O132 O 0.54953 0.49299 0.62097 0.0
O133 O 0.48643 0.54721 0.59435 0.0
C134 C 0.48724 0.42069 0.81741 0.0
O135 O 0.46898 0.4901 0.64806 0.0
C136 C 0.51343 0.5473 0.86376 0.0
C137 C 0.59586 0.51397 0.78477 0.0
O138 O 0.47069 0.45039 0.8401 0.0
O139 O 0.5181 0.42721 0.75961 0.0
O140 O 0.51417 0.51705 0.90619 0.0
O141 O 0.50844 0.54108 0.7669 0.0
O142 O 0.57152 0.48573 0.78807 0.0
O143 O 0.58899 0.54347 0.74008 0.0
C144 C 0.57261 0.61207 0.56443 0.0
O145 O 0.58914 0.58216 0.54751 0.0
O146 O 0.54072 0.60616 0.61771 0.0
C147 C 0.54405 0.48606 0.52503 0.0
Tb148 Tb 1.00021 0.53814 0.60537 0.0
C149 C 0.04041 0.46671 0.58856 0.0
Tb150 Tb 0.06317 0.53256 0.75288 0.0
O151 O 0.04071 0.53427 0.46678 0.0
O152 O 0.05717 0.55671 0.61237 0.0
O153 O 1.00888 0.48156 0.57196 0.0
C154 C 0.12929 0.526 0.82964 0.0
O155 O 0.06674 0.48353 0.64633 0.0
C156 C 0.99404 0.52355 0.83768 0.0
C157 C 0.02271 0.60393 0.76967 0.0
O158 O 0.09961 0.50459 0.84438 0.0
O159 O 0.12153 0.55149 0.7735 0.0
O160 O 0.02223 0.53627 0.89107 0.0
O161 O 1.00635 0.5139 0.74544 0.0
O162 O 0.05414 0.58912 0.7872 0.0
O163 O 0.99671 0.5871 0.71111 0.0
C164 C 0.93391 0.54668 0.53257 0.0
O165 O 0.96437 0.56674 0.51425 0.0
O166 O 0.94105 0.52104 0.58906 0.0
C167 C 0.06909 0.54677 0.51983 0.0
C168 C 0.1882 0.09661 0.51974 0.0
C169 C 0.20761 0.06985 0.45987 0.0
H170 H 0.13838 0.10975 0.61552 0.0
C171 C 0.19183 0.03472 0.45226 0.0
H172 H 0.19996 0.12397 0.52551 0.0
C173 C 0.15655 0.02643 0.50316 0.0
C174 C 0.13651 0.05327 0.5622 0.0
H175 H 0.20644 1.01381 0.40534 0.0
H176 H 0.14484 0.99911 0.49493 0.0
C177 C 0.15293 0.08841 0.5707 0.0
C178 C 0.48238 0.21514 0.54816 0.0
C179 C 0.475 0.21132 0.44086 0.0
H180 H 0.49894 0.1892 0.68062 0.0
C181 C 0.47933 0.17831 0.38322 0.0
H182 H 0.47888 0.24044 0.594 0.0
C183 C 0.49048 0.14921 0.4322 0.0
C184 C 0.49755 0.15261 0.53989 0.0
H185 H 0.47348 0.17483 0.30045 0.0
H186 H 0.49317 0.1239 0.38582 0.0
C187 C 0.4937 0.18591 0.59748 0.0
C188 C 0.3891 0.54167 0.41879 0.0
C189 C 0.36268 0.51264 0.42829 0.0
H190 H 0.44145 0.56664 0.46615 0.0
C191 C 0.36758 0.48703 0.49914 0.0
H192 H 0.38595 0.56139 0.36294 0.0
C193 C 0.39935 0.48975 0.55763 0.0
C194 C 0.4268 0.51812 0.54577 0.0
H195 H 0.34763 0.46418 0.50629 0.0
H196 H 0.40284 0.46901 0.60984 0.0
C197 C 0.42089 0.54451 0.47745 0.0
C198 C 0.08736 0.38008 0.50728 0.0
C199 C 0.05772 0.35831 0.46648 0.0
H200 H 0.10527 0.43142 0.57744 0.0
C201 C 0.02281 0.37263 0.46004 0.0
H202 H 0.11443 0.36932 0.51389 0.0
C203 C 1.01736 0.40826 0.49678 0.0
C204 C 0.04667 0.42988 0.54169 0.0
H205 H 0.99946 0.356 0.42993 0.0
H206 H 0.98987 0.41844 0.49313 0.0
C207 C 0.08195 0.41553 0.54449 0.0
C208 C 0.86518 0.02621 -0.02915 0.0
C209 C 0.84962 0.99099 -0.03731 0.0
H210 H 0.91168 0.06228 0.92718 0.0
C211 C 0.8688 0.96463 0.90027 0.0
H212 H 0.85078 0.0468 0.01976 0.0
C213 C 0.90366 0.97327 0.84767 0.0
C214 C 0.91994 1.00846 0.85704 0.0
H215 H 0.85724 0.93721 0.89404 0.0
H216 H 0.91806 0.95219 0.80112 0.0
C217 C 0.90006 0.03494 0.91825 0.0
C218 C 0.5554 0.86304 0.04551 0.0
C219 C 0.54204 0.82962 0.00191 0.0
H220 H 0.56607 0.91882 0.02409 0.0
C221 C 0.53127 0.82622 0.89758 0.0
H222 H 0.56364 0.86619 0.12622 0.0
C223 C 0.53273 0.85638 0.83865 0.0
C224 C 0.54468 0.89024 0.88397 0.0
H225 H 0.52065 0.80059 0.86295 0.0
H226 H 0.52318 0.85347 0.7594 0.0
C227 C 0.55672 0.89311 -0.01287 0.0
C228 C 0.67537 0.47728 0.91472 0.0
C229 C 0.69775 0.50832 0.93953 0.0
H230 H 0.62564 0.45469 0.8461 0.0
C231 C 0.68797 0.5412 0.90847 0.0
H232 H 0.68232 0.45173 0.93946 0.0
C233 C 0.65535 0.5431 0.85504 0.0
C234 C 0.63196 0.51214 0.83348 0.0
H235 H 0.70476 0.56553 0.92868 0.0
H236 H 0.64782 0.56892 0.83406 0.0
C237 C 0.64276 0.47912 0.86219 0.0
C238 C 0.97295 0.68857 0.85626 0.0
C239 C 1.0002 0.70905 0.91181 0.0
H240 H 0.9586 0.63947 0.76797 0.0
C241 C 0.03499 0.69501 0.9223 0.0
H242 H 0.94595 0.69909 0.84712 0.0
C243 C 0.04248 0.6607 0.87669 0.0
C244 C 1.01529 0.64015 0.81949 0.0
H245 H 0.05643 0.71064 -0.03534 0.0
H246 H 0.06962 0.65046 0.88542 0.0
C247 C 0.98036 0.65449 0.81055 0.0
C248 C 1.00441 0.15297 0.52527 0.0
C249 C 0.02559 0.15787 0.42924 0.0
H250 H 0.98247 0.11543 0.63653 0.0
C251 C 0.04264 0.12854 0.37395 0.0
H252 H 0.99084 0.17515 0.56885 0.0
C253 C 0.03807 0.09482 0.41257 0.0
C254 C 1.01655 0.08973 0.50763 0.0
H255 H 0.05965 0.13172 0.30052 0.0
H256 H 0.05169 0.07278 0.36829 0.0
C257 C 0.99972 0.11898 0.56389 0.0
C258 C 0.37597 0.9975 0.52163 0.0
C259 C 0.37424 0.03397 0.50696 0.0
H260 H 0.40744 0.95736 0.57936 0.0
C261 C 0.40042 0.05876 0.55297 0.0
H262 H 0.35662 0.97787 0.48425 0.0
C263 C 0.43006 0.04697 0.60364 0.0
C264 C 0.43385 1.01034 0.60975 0.0
H265 H 0.40007 0.08694 0.54073 0.0
H266 H 0.45059 0.0665 0.6347 0.0
C267 C 0.40539 0.98578 0.57406 0.0
C268 C 0.4896 0.41816 0.35507 0.0
C269 C 0.50335 0.38569 0.37873 0.0
H270 H 0.49252 0.47507 0.38078 0.0
C271 C 0.52868 0.38614 0.4581 0.0
H272 H 0.46921 0.41862 0.2964 0.0
C273 C 0.54159 0.41887 0.50826 0.0
C274 C 0.52954 0.45126 0.47852 0.0
H275 H 0.53959 0.36152 0.47804 0.0
H276 H 0.56195 0.41898 0.56718 0.0
C277 C 0.50298 0.45053 0.40307 0.0
C278 C 0.15421 0.50458 0.38314 0.0
C279 C 0.18285 0.53135 0.40146 0.0
H280 H 0.09547 0.48928 0.40307 0.0
C281 C 0.17473 0.56152 0.46993 0.0
H282 H 0.15971 0.48138 0.32907 0.0
C283 C 0.13785 0.56575 0.51404 0.0
C284 C 0.10869 0.5405 0.48671 0.0
H285 H 0.19616 0.58286 0.48307 0.0
H286 H 0.13166 0.58982 0.5634 0.0
C287 C 0.11738 0.50939 0.4238 0.0
C288 C 0.05249 0.90884 0.88895 0.0
C289 C 0.0313 0.90358 -0.01533 0.0
H290 H 0.07442 0.94692 0.77922 0.0
C291 C 1.01403 0.93267 0.04067 0.0
H292 H 0.0662 0.88683 0.84492 0.0
C293 C 1.01841 0.96655 0.00308 0.0
C294 C 0.03999 0.97206 0.90841 0.0
H295 H 0.9971 0.92917 0.11407 0.0
H296 H 1.00465 0.98839 0.04792 0.0
C297 C 0.05705 0.94303 0.85145 0.0
C298 C 0.65348 0.98832 0.86902 0.0
C299 C 0.67945 1.01343 0.91466 0.0
H300 H 0.60346 0.97989 0.7867 0.0
C301 C 0.67737 0.0498 0.89926 0.0
H302 H 0.65416 0.9602 0.88164 0.0
C303 C 0.64774 0.0611 0.84673 0.0
C304 C 0.6195 0.03622 0.81139 0.0
H305 H 0.69656 0.06968 0.93625 0.0
H306 H 0.64539 0.08946 0.841 0.0
C307 C 0.62373 0.99968 0.81788 0.0
C308 C 0.53197 0.64751 0.92364 0.0
C309 C 0.54202 0.64877 0.02879 0.0
H310 H 0.51173 0.6145 0.79182 0.0
C311 C 0.53822 0.61673 0.08066 0.0
H312 H 0.53324 0.67156 0.88176 0.0
C313 C 0.52863 0.58418 0.02666 0.0
C314 C 0.5207 0.58265 0.92043 0.0
H315 H 0.54282 0.61641 0.16375 0.0
H316 H 0.5276 0.5601 0.06854 0.0
C317 C 0.52062 0.61473 0.87084 0.0
C318 C 0.88911 0.50733 0.89675 0.0
C319 C 0.88054 0.53904 -0.04204 0.0
H320 H 0.93244 0.4777 0.80908 0.0
C321 C 0.90821 0.56751 -0.0372 0.0
H322 H 0.86854 0.48487 0.89177 0.0
C323 C 0.94501 0.56251 0.9222 0.0
C324 C 0.95436 0.5298 0.86944 0.0
H325 H 0.9023 0.59253 0.00773 0.0
H326 H 0.9664 0.58383 0.93552 0.0
C327 C 0.92579 0.50297 0.8513 0.0
C328 C 1.00617 0.21007 0.05256 0.0
C329 C 0.03888 0.21909 0.10612 0.0
H330 H 0.98066 0.17572 0.93167 0.0
C331 C 0.07331 0.20702 0.06062 0.0
H332 H 0.97921 0.21857 0.08706 0.0
C333 C 0.074 0.18154 -0.02601 0.0
C334 C 0.04037 0.16856 0.93028 0.0
H335 H 0.09881 0.21315 0.10123 0.0
H336 H 0.10025 0.16959 0.94795 0.0
C337 C 1.00695 0.18503 -0.03533 0.0
C338 C 0.40079 0.07813 0.06896 0.0
C339 C 0.38865 0.04884 0.12743 0.0
H340 H 0.43853 0.09747 0.94355 0.0
C341 C 0.40334 1.01546 0.09845 0.0
H342 H 0.38995 0.10418 0.09056 0.0
C343 C 0.43133 1.01178 0.01688 0.0
C344 C 0.44505 0.04133 -0.03851 0.0
H345 H 0.39405 0.99239 0.14167 0.0
H346 H 0.44247 0.98571 -0.0018 0.0
C347 C 0.4288 0.07436 -0.01401 0.0
C348 C 0.5024 0.33878 0.95449 0.0
C349 C 0.47115 0.33857 0.02856 0.0
H350 H 0.53167 0.36503 0.82613 0.0
C351 C 0.44119 0.35975 0.01505 0.0
H352 H 0.52612 0.32318 -0.03515 0.0
C353 C 0.44476 0.38444 0.93784 0.0
C354 C 0.47812 0.38782 0.87248 0.0
H355 H 0.41717 0.36049 0.07264 0.0
H356 H 0.42296 0.40305 0.93604 0.0
C357 C 0.50573 0.36308 0.87607 0.0
C358 C 0.19993 0.49345 -0.00347 0.0
C359 C 0.21881 0.52587 0.02957 0.0
H360 H 0.15584 0.46825 0.90678 0.0
C361 C 0.21295 0.55702 -0.019 0.0
H362 H 0.20358 0.46933 0.03496 0.0
C363 C 0.18597 0.55634 0.90681 0.0
C364 C 0.16399 0.52474 0.88337 0.0
H365 H 0.2267 0.58238 0.00744 0.0
H366 H 0.17992 0.58117 0.8757 0.0
C367 C 0.17235 0.49295 0.92453 0.0
C368 C 0.98413 0.85574 0.35511 0.0
C369 C 1.01874 0.84427 0.30913 0.0
H370 H 0.95671 0.89229 0.46946 0.0
C371 C 0.05145 0.85358 0.36236 0.0
H372 H 0.95863 0.84936 0.31467 0.0
C373 C 0.05036 0.87816 0.45123 0.0
C374 C 1.01665 0.89397 0.48663 0.0
H375 H 0.07851 0.8455 0.32743 0.0
H376 H 0.07657 0.88768 0.48435 0.0
C377 C 0.98314 0.88079 0.4427 0.0
C378 C 0.65416 0.96854 0.35283 0.0
C379 C 0.66536 0.99788 0.29372 0.0
H380 H 0.61699 0.94865 0.47885 0.0
C381 C 0.6496 0.0308 0.32161 0.0
H382 H 0.66589 0.94284 0.33189 0.0
C383 C 0.62158 0.034 0.40317 0.0
C384 C 0.60875 1.00438 0.45951 0.0
H385 H 0.65811 0.05387 0.27754 0.0
H386 H 0.6097 0.05977 0.42096 0.0
C387 C 0.626 0.9718 0.43576 0.0
C388 C 0.56121 0.69731 0.4402 0.0
C389 C 0.58963 0.69531 0.35733 0.0
H390 H 0.53362 0.67198 0.57239 0.0
C391 C 0.61849 0.67188 0.36306 0.0
H392 H 0.5386 0.71506 0.4386 0.0
C393 C 0.61505 0.64647 0.43832 0.0
C394 C 0.58324 0.64487 0.51019 0.0
H395 H 0.64107 0.67015 0.30113 0.0
H396 H 0.63533 0.6261 0.4336 0.0
C397 C 0.55803 0.6722 0.51615 0.0
C398 C 0.86534 0.58102 0.36395 0.0
C399 C 0.84418 0.54927 0.3363 0.0
H400 H 0.91138 0.60479 0.44823 0.0
C401 C 0.84653 0.51931 0.39414 0.0
H402 H 0.86376 0.60447 0.32053 0.0
C403 C 0.87371 0.51954 0.46765 0.0
C404 C 0.89873 0.54961 0.48268 0.0
H405 H 0.83061 0.49449 0.37377 0.0
H406 H 0.87757 0.49511 0.5042 0.0
C407 C 0.89281 0.58107 0.43591 0.0
loop_
_geom_bond_atom_site_label_1
_geom_bond_atom_site_label_2
_geom_bond_distance
_geom_bond_site_symmetry_2
_ccdc_geom_bond_type
H0 C3 0.929 . S
H1 C6 0.929 . S
H2 C8 0.930 . S
C3 H0 0.929 . S
C3 C4 1.398 . S
C3 C5 1.403 . S
C4 C3 1.398 . S
C4 C8 1.407 . S
C5 C3 1.403 . S
C5 C6 1.393 1_554 S
C6 H1 0.929 . S
C6 C5 1.393 1_556 S
C6 C7 1.382 1_556 S
C7 C6 1.382 1_554 S
C7 C8 1.392 . S
C7 N9 1.420 . S
C8 H2 0.930 . S
C8 C4 1.407 . S
C8 C7 1.392 . S
N9 C7 1.420 . S
N9 C10 1.244 . S
C10 N9 1.244 . S
H11 C14 0.929 . S
H12 C17 0.929 . S
H13 C19 0.930 . S
C14 H11 0.929 . S
C14 C15 1.398 . S
C14 C16 1.396 1_554 S
C15 C14 1.398 . S
C15 C19 1.407 . S
C16 C14 1.396 1_556 S
C16 C17 1.394 . S
C17 H12 0.929 . S
C17 C16 1.394 . S
C17 C18 1.382 1_556 S
C18 C17 1.382 1_554 S
C18 C19 1.392 . S
C18 N20 1.420 . S
C19 H13 0.930 . S
C19 C15 1.407 . S
C19 C18 1.392 . S
N20 C18 1.420 . S
N20 C21 1.244 1_554 S
C21 N20 1.244 1_556 S
H22 C25 0.929 . S
H23 C28 0.929 1_556 S
H24 C30 0.930 . S
C25 H22 0.929 . S
C25 C26 1.398 . S
C25 C27 1.396 . S
C26 C25 1.398 . S
C26 C30 1.407 . S
C27 C25 1.396 . S
C27 C28 1.394 . S
C28 H23 0.929 1_554 S
C28 C27 1.394 . S
C28 C29 1.382 . S
C29 C28 1.382 . S
C29 C30 1.392 . S
C29 N31 1.420 . S
C30 H24 0.930 . S
C30 C26 1.407 . S
C30 C29 1.392 . S
N31 C29 1.420 . S
N31 C32 1.244 . S
C32 N31 1.244 . S
H33 C36 0.929 . S
H34 C39 0.929 1_556 S
H35 C41 0.930 . S
C36 H33 0.929 . S
C36 C37 1.398 . S
C36 C38 1.396 . S
C37 C36 1.398 . S
C37 C41 1.407 . S
C38 C36 1.396 . S
C38 C39 1.394 . S
C39 H34 0.929 1_554 S
C39 C38 1.394 . S
C39 C40 1.382 . S
C40 C39 1.382 . S
C40 C41 1.392 . S
C40 N42 1.420 . S
C41 H35 0.930 . S
C41 C37 1.407 . S
C41 C40 1.392 . S
N42 C40 1.420 . S
N42 C43 1.244 . S
C43 N42 1.244 . S
H44 C47 0.929 . S
H45 C50 0.929 . S
H46 C52 0.930 . S
C47 H44 0.929 . S
C47 C48 1.398 . S
C47 C49 1.396 . S
C48 C47 1.398 . S
C48 C52 1.407 . S
C49 C47 1.396 . S
C49 C50 1.394 . S
C50 H45 0.929 . S
C50 C49 1.394 . S
C50 C51 1.382 . S
C51 C50 1.382 . S
C51 C52 1.392 . S
C51 N53 1.420 . S
C52 H46 0.930 . S
C52 C48 1.407 . S
C52 C51 1.392 . S
N53 C51 1.420 . S
N53 C54 1.244 . S
C54 N53 1.244 . S
H55 C58 0.929 . S
H56 C61 0.929 . S
H57 C63 0.930 . S
C58 H55 0.929 . S
C58 C59 1.398 . S
C58 C60 1.396 . S
C59 C58 1.398 . S
C59 C63 1.407 . S
C60 C58 1.396 . S
C60 C61 1.394 . S
C61 H56 0.929 . S
C61 C60 1.394 . S
C61 C62 1.382 . S
C62 C61 1.382 . S
C62 C63 1.392 . S
C62 N64 1.420 . S
C63 H57 0.930 . S
C63 C59 1.407 . S
C63 C62 1.392 . S
N64 C62 1.420 . S
N64 C65 1.244 . S
C65 N64 1.244 . S
H66 C69 0.929 . S
H67 C72 0.929 . S
H68 C74 0.930 . S
C69 H66 0.929 . S
C69 C70 1.398 . S
C69 C71 1.396 . S
C70 C69 1.398 . S
C70 C74 1.407 . S
C71 C69 1.396 . S
C71 C72 1.394 . S
C72 H67 0.929 . S
C72 C71 1.394 . S
C72 C73 1.382 . S
C73 C72 1.382 . S
C73 C74 1.392 . S
C73 N75 1.420 . S
C74 H68 0.930 . S
C74 C70 1.407 . S
C74 C73 1.392 . S
N75 C73 1.420 . S
N75 C76 1.244 . S
C76 N75 1.244 . S
H77 C80 0.929 . S
H78 C83 0.929 . S
H79 C85 0.930 . S
C80 H77 0.929 . S
C80 C81 1.398 . S
C80 C82 1.396 . S
C81 C80 1.398 . S
C81 C85 1.407 . S
C82 C80 1.396 . S
C82 C83 1.394 . S
C83 H78 0.929 . S
C83 C82 1.394 . S
C83 C84 1.382 . S
C84 C83 1.382 . S
C84 C85 1.392 . S
C84 N86 1.420 . S
C85 H79 0.930 . S
C85 C81 1.407 . S
C85 C84 1.392 . S
N86 C84 1.420 . S
N86 C87 1.244 . S
C87 N86 1.244 . S
Tb88 O91 2.453 1_565 S
Tb88 O92 2.596 1_665 S
Tb88 O93 2.374 1_665 S
Tb88 O101 2.341 1_655 S
Tb88 O103 2.353 1_565 S
Tb88 O105 2.427 . S
Tb88 O106 2.513 1_655 S
C89 O93 1.251 . S
C89 O95 1.263 . S
Tb90 O92 2.343 . S
Tb90 O95 2.353 . S
Tb90 O98 2.427 . S
Tb90 O99 2.513 1_455 S
Tb90 O100 2.453 1_545 S
Tb90 O101 2.598 1_545 S
Tb90 O102 2.374 1_455 S
O91 Tb88 2.453 1_545 S
O91 C107 1.245 1_655 S
O92 Tb88 2.596 1_445 S
O92 Tb90 2.343 . S
O92 C107 1.259 . S
O93 Tb88 2.374 1_445 S
O93 C89 1.251 . S
C94 O98 1.275 . S
C94 O99 1.246 1_455 S
O95 C89 1.263 . S
O95 Tb90 2.353 . S
C96 O100 1.245 . S
C96 O101 1.260 . S
C97 O102 1.250 . S
C97 O103 1.263 . S
O98 Tb90 2.427 . S
O98 C94 1.275 . S
O99 Tb90 2.513 1_655 S
O99 C94 1.246 1_655 S
O100 Tb90 2.453 1_565 S
O100 C96 1.245 . S
O101 Tb88 2.341 1_455 S
O101 Tb90 2.598 1_565 S
O101 C96 1.260 . S
O102 Tb90 2.374 1_655 S
O102 C97 1.250 . S
O103 Tb88 2.353 1_545 S
O103 C97 1.263 . S
C104 O105 1.275 . S
C104 O106 1.246 1_655 S
O105 Tb88 2.427 . S
O105 C104 1.275 . S
O106 Tb88 2.513 1_455 S
O106 C104 1.246 1_455 S
C107 O91 1.245 1_455 S
C107 O92 1.259 . S
Tb108 O111 2.453 . S
Tb108 O112 2.596 1_545 S
Tb108 O113 2.374 . S
Tb108 O121 2.343 . S
Tb108 O123 2.353 . S
Tb108 O125 2.427 . S
Tb108 O126 2.513 . S
C109 O113 1.227 1_565 S
C109 O115 1.281 . S
Tb110 O112 2.343 . S
Tb110 O115 2.353 . S
Tb110 O118 2.427 . S
Tb110 O119 2.513 . S
Tb110 O120 2.453 . S
Tb110 O121 2.596 1_565 S
Tb110 O122 2.374 . S
O111 Tb108 2.453 . S
O111 C127 1.245 . S
O112 Tb108 2.596 1_565 S
O112 Tb110 2.343 . S
O112 C127 1.259 1_565 S
O113 Tb108 2.374 . S
O113 C109 1.227 1_545 S
C114 O118 1.275 . S
C114 O119 1.246 . S
O115 C109 1.281 . S
O115 Tb110 2.353 . S
C116 O120 1.245 1_545 S
C116 O121 1.259 . S
C117 O122 1.250 1_545 S
C117 O123 1.263 . S
O118 Tb110 2.427 . S
O118 C114 1.275 . S
O119 Tb110 2.513 . S
O119 C114 1.246 . S
O120 Tb110 2.453 . S
O120 C116 1.245 1_565 S
O121 Tb108 2.343 . S
O121 Tb110 2.596 1_545 S
O121 C116 1.259 . S
O122 Tb110 2.374 . S
O122 C117 1.250 1_565 S
O123 Tb108 2.353 . S
O123 C117 1.263 . S
C124 O125 1.275 . S
C124 O126 1.246 . S
O125 Tb108 2.427 . S
O125 C124 1.275 . S
O126 Tb108 2.513 . S
O126 C124 1.246 . S
C127 O111 1.245 . S
C127 O112 1.259 1_545 S
Tb128 O131 2.453 . S
Tb128 O132 2.596 . S
Tb128 O133 2.374 . S
Tb128 O141 2.343 . S
Tb128 O143 2.353 . S
Tb128 O145 2.427 . S
Tb128 O146 2.513 . S
C129 O133 1.251 . S
C129 O135 1.263 . S
Tb130 O132 2.343 . S
Tb130 O135 2.353 . S
Tb130 O138 2.427 . S
Tb130 O139 2.513 . S
Tb130 O140 2.453 . S
Tb130 O141 2.596 . S
Tb130 O142 2.374 . S
O131 Tb128 2.453 . S
O131 C147 1.245 . S
O132 Tb128 2.596 . S
O132 Tb130 2.343 . S
O132 C147 1.259 . S
O133 Tb128 2.374 . S
O133 C129 1.251 . S
C134 O138 1.275 . S
C134 O139 1.246 . S
O135 C129 1.263 . S
O135 Tb130 2.353 . S
C136 O140 1.245 . S
C136 O141 1.259 . S
C137 O142 1.250 . S
C137 O143 1.263 . S
O138 Tb130 2.427 . S
O138 C134 1.275 . S
O139 Tb130 2.513 . S
O139 C134 1.246 . S
O140 Tb130 2.453 . S
O140 C136 1.245 . S
O141 Tb128 2.343 . S
O141 Tb130 2.596 . S
O141 C136 1.259 . S
O142 Tb130 2.374 . S
O142 C137 1.250 . S
O143 Tb128 2.353 . S
O143 C137 1.263 . S
C144 O145 1.275 . S
C144 O146 1.246 . S
O145 Tb128 2.427 . S
O145 C144 1.275 . S
O146 Tb128 2.513 . S
O146 C144 1.246 . S
C147 O131 1.245 . S
C147 O132 1.259 . S
Tb148 O151 2.453 1_655 S
Tb148 O152 2.596 1_655 S
Tb148 O153 2.374 1_655 S
Tb148 O161 2.343 . S
Tb148 O163 2.353 1_655 S
Tb148 O165 2.427 . S
Tb148 O166 2.513 . S
C149 O153 1.251 . S
C149 O155 1.263 . S
Tb150 O152 2.343 . S
Tb150 O155 2.353 . S
Tb150 O158 2.427 . S
Tb150 O159 2.513 . S
Tb150 O160 2.453 1_455 S
Tb150 O161 2.596 1_455 S
Tb150 O162 2.374 . S
O151 Tb148 2.453 1_455 S
O151 C167 1.245 . S
O152 Tb148 2.596 1_455 S
O152 Tb150 2.343 . S
O152 C167 1.259 . S
O153 Tb148 2.374 1_455 S
O153 C149 1.251 . S
C154 O158 1.275 . S
C154 O159 1.246 . S
O155 C149 1.263 . S
O155 Tb150 2.353 . S
C156 O160 1.245 . S
C156 O161 1.259 . S
C157 O162 1.255 . S
C157 O163 1.263 . S
O158 Tb150 2.427 . S
O158 C154 1.275 . S
O159 Tb150 2.513 . S
O159 C154 1.246 . S
O160 Tb150 2.453 1_655 S
O160 C156 1.245 . S
O161 Tb148 2.343 . S
O161 Tb150 2.596 1_655 S
O161 C156 1.259 . S
O162 Tb150 2.374 . S
O162 C157 1.255 . S
O163 Tb148 2.353 1_455 S
O163 C157 1.263 . S
C164 O165 1.275 . S
C164 O166 1.246 . S
O165 Tb148 2.427 . S
O165 C164 1.275 . S
O166 Tb148 2.513 . S
O166 C164 1.246 . S
C167 O151 1.245 . S
C167 O152 1.259 . S
C168 C169 1.387 . S
C168 H172 0.950 . S
C168 C177 1.390 . S
C169 C168 1.387 . S
C169 C171 1.387 . S
H170 C177 0.950 . S
C171 C169 1.387 . S
C171 C173 1.390 . S
C171 H175 0.950 . S
H172 C168 0.950 . S
C173 C171 1.390 . S
C173 C174 1.387 . S
C173 H176 0.950 . S
C174 C173 1.387 . S
C174 C177 1.387 . S
H175 C171 0.950 . S
H176 C173 0.950 . S
C177 C168 1.390 . S
C177 H170 0.950 . S
C177 C174 1.387 . S
C178 C179 1.387 . S
C178 H182 0.950 . S
C178 C187 1.390 . S
C179 C178 1.387 . S
C179 C181 1.387 . S
H180 C187 0.950 . S
C181 C179 1.387 . S
C181 C183 1.390 . S
C181 H185 0.950 . S
H182 C178 0.950 . S
C183 C181 1.390 . S
C183 C184 1.387 . S
C183 H186 0.950 . S
C184 C183 1.387 . S
C184 C187 1.387 . S
H185 C181 0.950 . S
H186 C183 0.950 . S
C187 C178 1.390 . S
C187 H180 0.950 . S
C187 C184 1.387 . S
C188 C189 1.387 . S
C188 H192 0.950 . S
C188 C197 1.390 . S
C189 C188 1.387 . S
C189 C191 1.387 . S
H190 C197 0.950 . S
C191 C189 1.387 . S
C191 C193 1.390 . S
C191 H195 0.950 . S
H192 C188 0.950 . S
C193 C191 1.390 . S
C193 C194 1.387 . S
C193 H196 0.950 . S
C194 C193 1.387 . S
C194 C197 1.387 . S
H195 C191 0.950 . S
H196 C193 0.950 . S
C197 C188 1.390 . S
C197 H190 0.950 . S
C197 C194 1.387 . S
C198 C199 1.387 . S
C198 H202 0.950 . S
C198 C207 1.390 . S
C199 C198 1.387 . S
C199 C201 1.387 . S
H200 C207 0.950 . S
C201 C199 1.387 . S
C201 C203 1.390 . S
C201 H205 0.950 . S
H202 C198 0.950 . S
C203 C201 1.390 . S
C203 C204 1.387 . S
C203 H206 0.950 . S
C204 C203 1.387 . S
C204 C207 1.387 . S
H205 C201 0.950 . S
H206 C203 0.950 . S
C207 C198 1.390 . S
C207 H200 0.950 . S
C207 C204 1.387 . S
C208 C209 1.387 1_545 S
C208 H212 0.950 1_556 S
C208 C217 1.390 . S
C209 C208 1.387 1_565 S
C209 C211 1.387 . S
H210 C217 0.950 . S
C211 C209 1.387 . S
C211 C213 1.390 . S
C211 H215 0.950 . S
H212 C208 0.950 1_554 S
C213 C211 1.390 . S
C213 C214 1.387 . S
C213 H216 0.950 . S
C214 C213 1.387 . S
C214 C217 1.387 1_565 S
H215 C211 0.950 . S
H216 C213 0.950 . S
C217 C208 1.390 . S
C217 H210 0.950 . S
C217 C214 1.387 1_545 S
C218 C219 1.387 1_554 S
C218 H222 0.950 . S
C218 C227 1.390 1_554 S
C219 C218 1.387 1_556 S
C219 C221 1.387 . S
H220 C227 0.950 1_554 S
C221 C219 1.387 . S
C221 C223 1.390 . S
C221 H225 0.950 . S
H222 C218 0.950 . S
C223 C221 1.390 . S
C223 C224 1.387 . S
C223 H226 0.950 . S
C224 C223 1.387 . S
C224 C227 1.387 . S
H225 C221 0.950 . S
H226 C223 0.950 . S
C227 C218 1.390 1_556 S
C227 H220 0.950 1_556 S
C227 C224 1.387 . S
C228 C229 1.387 . S
C228 H232 0.950 1_556 S
C228 C237 1.390 . S
C229 C228 1.387 . S
C229 C231 1.387 . S
H230 C237 0.950 . S
C231 C229 1.387 . S
C231 C233 1.390 . S
C231 H235 0.950 . S
H232 C228 0.950 1_554 S
C233 C231 1.390 . S
C233 C234 1.387 . S
C233 H236 0.950 . S
C234 C233 1.387 . S
C234 C237 1.387 . S
H235 C231 0.950 . S
H236 C233 0.950 . S
C237 C228 1.390 . S
C237 H230 0.950 . S
C237 C234 1.387 . S
C238 C239 1.387 . S
C238 H242 0.950 . S
C238 C247 1.390 . S
C239 C238 1.387 . S
C239 C241 1.387 . S
H240 C247 0.950 . S
C241 C239 1.387 . S
C241 C243 1.390 . S
C241 H245 0.950 1_556 S
H242 C238 0.950 . S
C243 C241 1.390 . S
C243 C244 1.387 . S
C243 H246 0.950 1_656 S
C244 C243 1.387 . S
C244 C247 1.387 . S
H245 C241 0.950 1_554 S
H246 C243 0.950 1_454 S
C247 C238 1.390 . S
C247 H240 0.950 . S
C247 C244 1.387 . S
C248 C249 1.387 . S
C248 H252 0.950 . S
C248 C257 1.390 . S
C249 C248 1.387 . S
C249 C251 1.387 . S
H250 C257 0.950 . S
C251 C249 1.387 . S
C251 C253 1.390 . S
C251 H255 0.950 . S
H252 C248 0.950 . S
C253 C251 1.390 . S
C253 C254 1.387 . S
C253 H256 0.950 . S
C254 C253 1.387 . S
C254 C257 1.387 . S
H255 C251 0.950 . S
H256 C253 0.950 . S
C257 C248 1.390 . S
C257 H250 0.950 . S
C257 C254 1.387 . S
C258 C259 1.387 . S
C258 H262 0.950 . S
C258 C267 1.390 . S
C259 C258 1.387 . S
C259 C261 1.387 . S
H260 C267 0.950 1_565 S
C261 C259 1.387 . S
C261 C263 1.390 . S
C261 H265 0.950 . S
H262 C258 0.950 . S
C263 C261 1.390 . S
C263 C264 1.387 . S
C263 H266 0.950 . S
C264 C263 1.387 . S
C264 C267 1.387 . S
H265 C261 0.950 . S
H266 C263 0.950 . S
C267 C258 1.390 . S
C267 H260 0.950 1_545 S
C267 C264 1.387 . S
C268 C269 1.387 . S
C268 H272 0.950 . S
C268 C277 1.390 . S
C269 C268 1.387 . S
C269 C271 1.387 . S
H270 C277 0.950 . S
C271 C269 1.387 . S
C271 C273 1.390 . S
C271 H275 0.950 . S
H272 C268 0.950 . S
C273 C271 1.390 . S
C273 C274 1.387 . S
C273 H276 0.950 . S
C274 C273 1.387 . S
C274 C277 1.387 . S
H275 C271 0.950 . S
H276 C273 0.950 . S
C277 C268 1.390 . S
C277 H270 0.950 . S
C277 C274 1.387 . S
C278 C279 1.387 . S
C278 H282 0.950 . S
C278 C287 1.390 . S
C279 C278 1.387 . S
C279 C281 1.387 . S
H280 C287 0.950 . S
C281 C279 1.387 . S
C281 C283 1.390 . S
C281 H285 0.950 . S
H282 C278 0.950 . S
C283 C281 1.390 . S
C283 C284 1.387 . S
C283 H286 0.950 . S
C284 C283 1.387 . S
C284 C287 1.387 . S
H285 C281 0.950 . S
H286 C283 0.950 . S
C287 C278 1.390 . S
C287 H280 0.950 . S
C287 C284 1.387 . S
C288 C289 1.387 . S
C288 H292 0.950 . S
C288 C297 1.390 . S
C289 C288 1.387 . S
C289 C291 1.387 . S
H290 C297 0.950 1_455 S
C291 C289 1.387 . S
C291 C293 1.390 . S
C291 H295 0.950 1_556 S
H292 C288 0.950 . S
C293 C291 1.390 . S
C293 C294 1.387 . S
C293 H296 0.950 . S
C294 C293 1.387 . S
C294 C297 1.387 . S
H295 C291 0.950 1_554 S
H296 C293 0.950 . S
C297 C288 1.390 . S
C297 H290 0.950 1_655 S
C297 C294 1.387 . S
C298 C299 1.387 . S
C298 H302 0.950 . S
C298 C307 1.390 . S
C299 C298 1.387 . S
C299 C301 1.387 1_565 S
H300 C307 0.950 . S
C301 C299 1.387 1_545 S
C301 C303 1.390 . S
C301 H305 0.950 1_556 S
H302 C298 0.950 . S
C303 C301 1.390 . S
C303 C304 1.387 1_545 S
C303 H306 0.950 . S
C304 C303 1.387 1_565 S
C304 C307 1.387 . S
H305 C301 0.950 1_554 S
H306 C303 0.950 . S
C307 C298 1.390 . S
C307 H300 0.950 . S
C307 C304 1.387 . S
C308 C309 1.387 . S
C308 H312 0.950 . S
C308 C317 1.390 . S
C309 C308 1.387 . S
C309 C311 1.387 1_556 S
H310 C317 0.950 . S
C311 C309 1.387 1_554 S
C311 C313 1.390 1_554 S
C311 H315 0.950 . S
H312 C308 0.950 . S
C313 C311 1.390 1_556 S
C313 C314 1.387 . S
C313 H316 0.950 1_556 S
C314 C313 1.387 . S
C314 C317 1.387 . S
H315 C311 0.950 . S
H316 C313 0.950 1_554 S
C317 C308 1.390 . S
C317 H310 0.950 . S
C317 C314 1.387 . S
C318 C319 1.387 . S
C318 H322 0.950 . S
C318 C327 1.390 . S
C319 C318 1.387 . S
C319 C321 1.387 . S
H320 C327 0.950 . S
C321 C319 1.387 . S
C321 C323 1.390 . S
C321 H325 0.950 . S
H322 C318 0.950 . S
C323 C321 1.390 . S
C323 C324 1.387 . S
C323 H326 0.950 . S
C324 C323 1.387 . S
C324 C327 1.387 . S
H325 C321 0.950 . S
H326 C323 0.950 . S
C327 C318 1.390 . S
C327 H320 0.950 . S
C327 C324 1.387 . S
C328 C329 1.387 . S
C328 H332 0.950 . S
C328 C337 1.390 . S
C329 C328 1.387 . S
C329 C331 1.387 . S
H330 C337 0.950 1_655 S
C331 C329 1.387 . S
C331 C333 1.390 . S
C331 H335 0.950 . S
H332 C328 0.950 . S
C333 C331 1.390 . S
C333 C334 1.387 . S
C333 H336 0.950 1_554 S
C334 C333 1.387 . S
C334 C337 1.387 . S
H335 C331 0.950 . S
H336 C333 0.950 1_556 S
C337 C328 1.390 . S
C337 H330 0.950 1_455 S
C337 C334 1.387 . S
C338 C339 1.387 . S
C338 H342 0.950 . S
C338 C347 1.390 . S
C339 C338 1.387 . S
C339 C341 1.387 . S
H340 C347 0.950 1_556 S
C341 C339 1.387 . S
C341 C343 1.390 . S
C341 H345 0.950 1_545 S
H342 C338 0.950 . S
C343 C341 1.390 . S
C343 C344 1.387 . S
C343 H346 0.950 1_545 S
C344 C343 1.387 . S
C344 C347 1.387 . S
H345 C341 0.950 1_565 S
H346 C343 0.950 1_565 S
C347 C338 1.390 . S
C347 H340 0.950 1_554 S
C347 C344 1.387 . S
C348 C349 1.387 . S
C348 H352 0.950 . S
C348 C357 1.390 . S
C349 C348 1.387 . S
C349 C351 1.387 . S
H350 C357 0.950 . S
C351 C349 1.387 . S
C351 C353 1.390 1_554 S
C351 H355 0.950 . S
H352 C348 0.950 . S
C353 C351 1.390 1_556 S
C353 C354 1.387 1_556 S
C353 H356 0.950 . S
C354 C353 1.387 1_554 S
C354 C357 1.387 . S
H355 C351 0.950 . S
H356 C353 0.950 . S
C357 C348 1.390 . S
C357 H350 0.950 . S
C357 C354 1.387 . S
C358 C359 1.387 . S
C358 H362 0.950 . S
C358 C367 1.390 . S
C359 C358 1.387 . S
C359 C361 1.387 . S
H360 C367 0.950 . S
C361 C359 1.387 . S
C361 C363 1.390 . S
C361 H365 0.950 . S
H362 C358 0.950 . S
C363 C361 1.390 . S
C363 C364 1.387 . S
C363 H366 0.950 . S
C364 C363 1.387 . S
C364 C367 1.387 . S
H365 C361 0.950 . S
H366 C363 0.950 . S
C367 C358 1.390 . S
C367 H360 0.950 . S
C367 C364 1.387 . S
C368 C369 1.387 . S
C368 H372 0.950 . S
C368 C377 1.390 . S
C369 C368 1.387 . S
C369 C371 1.387 . S
H370 C377 0.950 . S
C371 C369 1.387 . S
C371 C373 1.390 . S
C371 H375 0.950 . S
H372 C368 0.950 . S
C373 C371 1.390 . S
C373 C374 1.387 . S
C373 H376 0.950 . S
C374 C373 1.387 . S
C374 C377 1.387 . S
H375 C371 0.950 . S
H376 C373 0.950 . S
C377 C368 1.390 . S
C377 H370 0.950 . S
C377 C374 1.387 . S
C378 C379 1.387 . S
C378 H382 0.950 . S
C378 C387 1.390 . S
C379 C378 1.387 . S
C379 C381 1.387 1_565 S
H380 C387 0.950 . S
C381 C379 1.387 1_545 S
C381 C383 1.390 . S
C381 H385 0.950 . S
H382 C378 0.950 . S
C383 C381 1.390 . S
C383 C384 1.387 1_545 S
C383 H386 0.950 . S
C384 C383 1.387 1_565 S
C384 C387 1.387 . S
H385 C381 0.950 . S
H386 C383 0.950 . S
C387 C378 1.390 . S
C387 H380 0.950 . S
C387 C384 1.387 . S
C388 C389 1.387 . S
C388 H392 0.950 . S
C388 C397 1.390 . S
C389 C388 1.387 . S
C389 C391 1.387 . S
H390 C397 0.950 . S
C391 C389 1.387 . S
C391 C393 1.390 . S
C391 H395 0.950 . S
H392 C388 0.950 . S
C393 C391 1.390 . S
C393 C394 1.387 . S
C393 H396 0.950 . S
C394 C393 1.387 . S
C394 C397 1.387 . S
H395 C391 0.950 . S
H396 C393 0.950 . S
C397 C388 1.390 . S
C397 H390 0.950 . S
C397 C394 1.387 . S
C398 C399 1.387 . S
C398 H402 0.950 . S
C398 C407 1.390 . S
C399 C398 1.387 . S
C399 C401 1.387 . S
H400 C407 0.950 . S
C401 C399 1.387 . S
C401 C403 1.390 . S
C401 H405 0.950 . S
H402 C398 0.950 . S
C403 C401 1.390 . S
C403 C404 1.387 . S
C403 H406 0.950 . S
C404 C403 1.387 . S
C404 C407 1.387 . S
H405 C401 0.950 . S
H406 C403 0.950 . S
C407 C398 1.390 . S
C407 H400 0.950 . S
C407 C404 1.387 . S
C169 C76 1.558 . S
C174 C89 1.598 . S
C184 C124 1.613 . S
C179 C87 1.534 . S
C194 C129 1.380 . S
C189 C54 1.354 . S
C204 C149 1.547 . S
C199 C65 1.511 . S
C214 C97 1.598 1_565 S
C209 C32 1.566 1_556 S
C219 C43 1.549 1_556 S
C224 C114 1.613 . S
C229 C10 1.355 1_556 S
C234 C137 1.379 . S
C239 C21 1.523 . S
C244 C157 1.542 1_655 S
C254 C107 1.427 . S
C249 C60 1.367 . S
C264 C116 1.200 . S
C259 C71 1.167 . S
C274 C147 1.464 . S
C269 C82 1.402 . S
C279 C49 1.108 . S
C284 C167 1.126 . S
C289 C16 1.353 . S
C294 C96 1.429 1_655 S
C304 C127 1.199 1_565 S
C299 C27 1.162 1_556 S
C314 C136 1.463 . S
C309 C38 1.387 1_556 S
C319 C5 1.100 1_556 S
C324 C156 1.126 . S
C329 C59 1.470 . S
C334 C94 1.479 1_554 S
C339 C70 1.505 . S
C344 C117 1.570 1_554 S
C354 C134 1.576 1_554 S
C349 C81 1.527 . S
C364 C154 1.562 1_554 S
C359 C48 1.540 . S
C369 C15 1.459 . S
C374 C104 1.478 . S
C384 C109 1.576 . S
C379 C26 1.491 . S
C394 C144 1.575 . S
C389 C37 1.513 . S
C399 C4 1.534 . S
C404 C164 1.565 . S
