# Generated by pormake.
# Topology pyr, (3,6)-cn, num edge types: 1
# Building blocks:
#     Node 0, Type 0, BuildingBlock: BELTOD_clean_linker_0, # of connection points: 3
#     Node 1, Type 0, BuildingBlock: BELTOD_clean_linker_0, # of connection points: 3
#     Node 2, Type 0, BuildingBlock: BELTOD_clean_linker_0, # of connection points: 3
#     Node 3, Type 0, BuildingBlock: BELTOD_clean_linker_0, # of connection points: 3
#     Node 4, Type 0, BuildingBlock: BELTOD_clean_linker_0, # of connection points: 3
#     Node 5, Type 0, BuildingBlock: BELTOD_clean_linker_0, # of connection points: 3
#     Node 6, Type 0, BuildingBlock: BELTOD_clean_linker_0, # of connection points: 3
#     Node 7, Type 0, BuildingBlock: BELTOD_clean_linker_0, # of connection points: 3
#     Node 8, Type 1, BuildingBlock: INOVEN_clean_sbu_0, # of connection points: 6
#     Node 9, Type 1, BuildingBlock: INOVEN_clean_sbu_0, # of connection points: 6
#     Node 10, Type 1, BuildingBlock: INOVEN_clean_sbu_0, # of connection points: 6
#     Node 11, Type 1, BuildingBlock: INOVEN_clean_sbu_0, # of connection points: 6
#     Edge 12, Type (0, 1), BuildingBlock: MIFKUJ_clean_linker_0, # of connection points: 2
#     Edge 13, Type (0, 1), BuildingBlock: MIFKUJ_clean_linker_0, # of connection points: 2
#     Edge 14, Type (0, 1), BuildingBlock: MIFKUJ_clean_linker_0, # of connection points: 2
#     Edge 15, Type (0, 1), BuildingBlock: MIFKUJ_clean_linker_0, # of connection points: 2
#     Edge 16, Type (0, 1), BuildingBlock: MIFKUJ_clean_linker_0, # of connection points: 2
#     Edge 17, Type (0, 1), BuildingBlock: MIFKUJ_clean_linker_0, # of connection points: 2
#     Edge 18, Type (0, 1), BuildingBlock: MIFKUJ_clean_linker_0, # of connection points: 2
#     Edge 19, Type (0, 1), BuildingBlock: MIFKUJ_clean_linker_0, # of connection points: 2
#     Edge 20, Type (0, 1), BuildingBlock: MIFKUJ_clean_linker_0, # of connection points: 2
#     Edge 21, Type (0, 1), BuildingBlock: MIFKUJ_clean_linker_0, # of connection points: 2
#     Edge 22, Type (0, 1), BuildingBlock: MIFKUJ_clean_linker_0, # of connection points: 2
#     Edge 23, Type (0, 1), BuildingBlock: MIFKUJ_clean_linker_0, # of connection points: 2
#     Edge 24, Type (0, 1), BuildingBlock: MIFKUJ_clean_linker_0, # of connection points: 2
#     Edge 25, Type (0, 1), BuildingBlock: MIFKUJ_clean_linker_0, # of connection points: 2
#     Edge 26, Type (0, 1), BuildingBlock: MIFKUJ_clean_linker_0, # of connection points: 2
#     Edge 27, Type (0, 1), BuildingBlock: MIFKUJ_clean_linker_0, # of connection points: 2
#     Edge 28, Type (0, 1), BuildingBlock: MIFKUJ_clean_linker_0, # of connection points: 2
#     Edge 29, Type (0, 1), BuildingBlock: MIFKUJ_clean_linker_0, # of connection points: 2
#     Edge 30, Type (0, 1), BuildingBlock: MIFKUJ_clean_linker_0, # of connection points: 2
#     Edge 31, Type (0, 1), BuildingBlock: MIFKUJ_clean_linker_0, # of connection points: 2
#     Edge 32, Type (0, 1), BuildingBlock: MIFKUJ_clean_linker_0, # of connection points: 2
#     Edge 33, Type (0, 1), BuildingBlock: MIFKUJ_clean_linker_0, # of connection points: 2
#     Edge 34, Type (0, 1), BuildingBlock: MIFKUJ_clean_linker_0, # of connection points: 2
#     Edge 35, Type (0, 1), BuildingBlock: MIFKUJ_clean_linker_0, # of connection points: 2
# Relax obj value: 0.076
# Max RMSD: 0.122
# Mean RMSD: 0.056
data_MOF--net-pyr--node1-INOVEN_clean_sbu_0--node2-BELTOD_clean_linker_0--edge1-MIFKUJ_clean_linker_0
_symmetry_space_group_name_H-M    P1
_symmetry_Int_Tables_number       1
_symmetry_cell_setting            triclinic
loop_
_symmetry_equiv_pos_as_xyz
'x, y, z'
_cell_length_a     55.51629
_cell_length_b     56.81146
_cell_length_c     50.46553
_cell_angle_alpha  90.715969
_cell_angle_beta   88.207476
_cell_angle_gamma 100.0475
loop_
_atom_site_label
_atom_site_type_symbol
_atom_site_fract_x
_atom_site_fract_y
_atom_site_fract_z
_atom_type_partial_charge
P0 P 0.32912 0.3081 0.24529 0.0
H1 H 0.37795 0.30864 0.22147 0.0
H2 H 0.39779 0.27728 0.20112 0.0
H3 H 0.33047 0.22669 0.21137 0.0
H4 H 0.31078 0.25806 0.23153 0.0
H5 H 0.32914 0.35904 0.23732 0.0
H6 H 0.30448 0.38027 0.21006 0.0
H7 H 0.27 0.31298 0.17612 0.0
H8 H 0.29539 0.29203 0.20282 0.0
H9 H 0.33259 0.27439 0.28745 0.0
H10 H 0.27736 0.31115 0.25766 0.0
O11 O 0.35065 0.32708 0.2607 0.0
H12 H 0.3022 0.25215 0.31819 0.0
H13 H 0.24694 0.28863 0.28759 0.0
C14 C 0.34311 0.28552 0.22856 0.0
C15 C 0.36748 0.29081 0.21926 0.0
C16 C 0.37875 0.27292 0.20755 0.0
C17 C 0.36577 0.24946 0.20502 0.0
C18 C 0.34108 0.24448 0.21357 0.0
C19 C 0.32979 0.26241 0.22503 0.0
C20 C 0.31428 0.324 0.22185 0.0
C21 C 0.31671 0.34892 0.22353 0.0
C22 C 0.30238 0.36102 0.20811 0.0
C23 C 0.28507 0.34834 0.19101 0.0
C24 C 0.28336 0.32339 0.18875 0.0
C25 C 0.29785 0.31134 0.20405 0.0
C26 C 0.30719 0.29406 0.26987 0.0
C27 C 0.31397 0.27776 0.28761 0.0
C28 C 0.29656 0.26497 0.30505 0.0
C29 C 0.27207 0.26842 0.30515 0.0
C30 C 0.26565 0.28563 0.28818 0.0
C31 C 0.28307 0.29839 0.27078 0.0
P32 P 0.32532 0.90545 0.58605 0.0
H33 H 0.37405 0.91051 0.60789 0.0
H34 H 0.38838 0.91204 0.65337 0.0
H35 H 0.31373 0.90739 0.68294 0.0
H36 H 0.29963 0.90474 0.6377 0.0
H37 H 0.34319 0.88047 0.54021 0.0
H38 H 0.34099 0.83797 0.52982 0.0
H39 H 0.29736 0.81978 0.60146 0.0
H40 H 0.29981 0.86227 0.6118 0.0
H41 H 0.30935 0.94888 0.60519 0.0
H42 H 0.27835 0.88516 0.56226 0.0
O43 O 0.34583 0.92194 0.56593 0.0
H44 H 0.26995 0.96264 0.60481 0.0
H45 H 0.23899 0.8987 0.56203 0.0
C46 C 0.3359 0.90823 0.61944 0.0
C47 C 0.36086 0.91001 0.62423 0.0
C48 C 0.369 0.91091 0.65024 0.0
C49 C 0.35223 0.90992 0.67187 0.0
C50 C 0.32716 0.9079 0.66683 0.0
C51 C 0.31908 0.90679 0.64089 0.0
C52 C 0.32208 0.87441 0.57703 0.0
C53 C 0.33303 0.86733 0.55357 0.0
C54 C 0.33156 0.84305 0.54753 0.0
C55 C 0.31912 0.82557 0.56493 0.0
C56 C 0.30734 0.83285 0.58788 0.0
C57 C 0.30876 0.85709 0.59382 0.0
C58 C 0.29664 0.91584 0.5842 0.0
C59 C 0.29405 0.93785 0.59574 0.0
C60 C 0.27154 0.9456 0.59567 0.0
C61 C 0.25136 0.93159 0.58366 0.0
C62 C 0.25424 0.90986 0.57141 0.0
C63 C 0.27673 0.90206 0.57165 0.0
P64 P 0.67089 0.34663 0.8425 0.0
H65 H 0.71171 0.33257 0.86892 0.0
H66 H 0.74489 0.35405 0.89498 0.0
H67 H 0.71326 0.41818 0.89056 0.0
H68 H 0.67939 0.39607 0.86547 0.0
H69 H 0.64481 0.30096 0.82315 0.0
H70 H 0.62156 0.26573 0.84496 0.0
H71 H 0.63081 0.30207 0.92065 0.0
H72 H 0.65449 0.33729 0.89853 0.0
H73 H 0.68531 0.39244 0.81525 0.0
H74 H 0.61942 0.34035 0.82628 0.0
O75 O 0.68726 0.33443 0.81953 0.0
H76 H 0.66449 0.41411 0.78404 0.0
H77 H 0.59879 0.36156 0.79447 0.0
C78 C 0.6933 0.36276 0.86467 0.0
C79 C 0.71177 0.35121 0.87376 0.0
C80 C 0.73095 0.36366 0.88848 0.0
C81 C 0.73228 0.38813 0.89446 0.0
C82 C 0.71302 0.39941 0.88637 0.0
C83 C 0.69365 0.3868 0.87176 0.0
C84 C 0.6516 0.32175 0.85917 0.0
C85 C 0.64172 0.30144 0.84444 0.0
C86 C 0.62826 0.28127 0.85698 0.0
C87 C 0.62428 0.28087 0.88468 0.0
C88 C 0.63377 0.30153 0.89936 0.0
C89 C 0.64721 0.3218 0.88671 0.0
C90 C 0.65382 0.36511 0.82394 0.0
C91 C 0.66615 0.38602 0.81163 0.0
C92 C 0.65427 0.39832 0.79356 0.0
C93 C 0.62996 0.38957 0.78671 0.0
C94 C 0.61755 0.36873 0.79921 0.0
C95 C 0.62932 0.35668 0.81765 0.0
P96 P 0.81856 0.70891 0.34177 0.0
H97 H 0.86737 0.73696 0.33324 0.0
H98 H 0.89078 0.76998 0.35824 0.0
H99 H 0.8363 0.75857 0.42186 0.0
H100 H 0.81291 0.72573 0.39671 0.0
H101 H 0.82192 0.70503 0.28397 0.0
H102 H 0.84318 0.68141 0.2537 0.0
H103 H 0.8724 0.64981 0.32029 0.0
H104 H 0.85084 0.67375 0.35079 0.0
H105 H 0.76549 0.70153 0.33679 0.0
H106 H 0.81679 0.67466 0.38569 0.0
O107 O 0.80614 0.72738 0.32305 0.0
H108 H 0.73158 0.67773 0.36112 0.0
H109 H 0.78263 0.64989 0.40987 0.0
C110 C 0.83866 0.72841 0.36331 0.0
C111 C 0.86083 0.74107 0.35291 0.0
C112 C 0.87406 0.76015 0.3671 0.0
C113 C 0.86536 0.767 0.39202 0.0
C114 C 0.84367 0.7536 0.40289 0.0
C115 C 0.83031 0.73468 0.38853 0.0
C116 C 0.83483 0.69128 0.31974 0.0
C117 C 0.83296 0.69315 0.29221 0.0
C118 C 0.84526 0.67965 0.27482 0.0
C119 C 0.85966 0.66378 0.28449 0.0
C120 C 0.86135 0.66175 0.31216 0.0
C121 C 0.84911 0.67547 0.32962 0.0
C122 C 0.79376 0.69005 0.3595 0.0
C123 C 0.76953 0.69035 0.35268 0.0
C124 C 0.75002 0.67647 0.36654 0.0
C125 C 0.75423 0.66171 0.38749 0.0
C126 C 0.77864 0.66121 0.39407 0.0
C127 C 0.79822 0.67522 0.38015 0.0
P128 P 0.72219 0.81688 0.86054 0.0
H129 H 0.69189 0.81363 0.90903 0.0
H130 H 0.65495 0.8301 0.9204 0.0
H131 H 0.64799 0.8466 0.83801 0.0
H132 H 0.68477 0.83024 0.82678 0.0
H133 H 0.76972 0.80699 0.87226 0.0
H134 H 0.78422 0.77158 0.88747 0.0
H135 H 0.70964 0.73399 0.89427 0.0
H136 H 0.69512 0.76991 0.87885 0.0
H137 H 0.7401 0.85463 0.82278 0.0
H138 H 0.71965 0.77783 0.82136 0.0
O139 O 0.73963 0.84093 0.87346 0.0
H140 H 0.75452 0.85402 0.77675 0.0
H141 H 0.7339 0.77705 0.77494 0.0
C142 C 0.69102 0.82051 0.86707 0.0
C143 C 0.68183 0.81988 0.89328 0.0
C144 C 0.66073 0.82933 0.89975 0.0
C145 C 0.64874 0.83983 0.88009 0.0
C146 C 0.65699 0.83881 0.85358 0.0
C147 C 0.67799 0.82928 0.84713 0.0
C148 C 0.73136 0.79119 0.87498 0.0
C149 C 0.75642 0.79126 0.87738 0.0
C150 C 0.7647 0.77092 0.88578 0.0
C151 C 0.74807 0.74996 0.89183 0.0
C152 C 0.72283 0.74996 0.88984 0.0
C153 C 0.71452 0.77044 0.88116 0.0
C154 C 0.72942 0.81626 0.8256 0.0
C155 C 0.73843 0.83764 0.81241 0.0
C156 C 0.74642 0.83726 0.78597 0.0
C157 C 0.74542 0.81544 0.77219 0.0
C158 C 0.73513 0.79409 0.78512 0.0
C159 C 0.72701 0.79453 0.81162 0.0
P160 P 0.79128 0.27731 0.39426 0.0
H161 H 0.77174 0.3213 0.40196 0.0
H162 H 0.74455 0.33406 0.43607 0.0
H163 H 0.74682 0.26993 0.48039 0.0
H164 H 0.77407 0.25725 0.44606 0.0
H165 H 0.80401 0.23138 0.37693 0.0
H166 H 0.83168 0.20689 0.39418 0.0
H167 H 0.85557 0.26142 0.45286 0.0
H168 H 0.82693 0.28548 0.43603 0.0
H169 H 0.77627 0.28053 0.33931 0.0
H170 H 0.7558 0.23442 0.4065 0.0
O171 O 0.80633 0.30003 0.37637 0.0
H172 H 0.74501 0.25577 0.31318 0.0
H173 H 0.72405 0.21 0.38084 0.0
C174 C 0.77522 0.28857 0.42172 0.0
C175 C 0.76693 0.31031 0.41935 0.0
C176 C 0.75142 0.31758 0.4389 0.0
C177 C 0.74367 0.30303 0.46098 0.0
C178 C 0.75247 0.28147 0.46358 0.0
C179 C 0.76814 0.2743 0.44406 0.0
C180 C 0.81293 0.25993 0.40573 0.0
C181 C 0.81506 0.23805 0.3936 0.0
C182 C 0.83118 0.22417 0.40329 0.0
C183 C 0.8458 0.23213 0.42501 0.0
C184 C 0.84427 0.25456 0.43642 0.0
C185 C 0.828 0.26837 0.42678 0.0
C186 C 0.76835 0.25927 0.3748 0.0
C187 C 0.76497 0.26516 0.34848 0.0
C188 C 0.74695 0.25109 0.33364 0.0
C189 C 0.73199 0.23093 0.34495 0.0
C190 C 0.73542 0.22522 0.37143 0.0
C191 C 0.75345 0.23927 0.3862 0.0
P192 P 0.35283 0.68884 0.2001 0.0
H193 H 0.33456 0.6619 0.15303 0.0
H194 H 0.29375 0.64633 0.1375 0.0
H195 H 0.26201 0.67813 0.20524 0.0
H196 H 0.30337 0.69362 0.22103 0.0
H197 H 0.3943 0.71299 0.16786 0.0
H198 H 0.40852 0.75421 0.1553 0.0
H199 H 0.3498 0.7758 0.20263 0.0
H200 H 0.33515 0.7338 0.21476 0.0
H201 H 0.33228 0.64671 0.23097 0.0
H202 H 0.38276 0.71232 0.2436 0.0
O203 O 0.37102 0.67316 0.18313 0.0
H204 H 0.3438 0.63117 0.27281 0.0
H205 H 0.39435 0.69688 0.28566 0.0
C206 C 0.32213 0.67868 0.18846 0.0
C207 C 0.31893 0.66553 0.16472 0.0
C208 C 0.29549 0.65652 0.15583 0.0
C209 C 0.27455 0.6607 0.17026 0.0
C210 C 0.27775 0.67459 0.19365 0.0
C211 C 0.30136 0.68342 0.20273 0.0
C212 C 0.36358 0.72012 0.19232 0.0
C213 C 0.38439 0.72645 0.17572 0.0
C214 C 0.39269 0.75026 0.16862 0.0
C215 C 0.38049 0.76858 0.17803 0.0
C216 C 0.35958 0.76222 0.19478 0.0
C217 C 0.35124 0.73821 0.2019 0.0
C218 C 0.35616 0.68094 0.23433 0.0
C219 C 0.34526 0.65812 0.24316 0.0
C220 C 0.35213 0.6491 0.26697 0.0
C221 C 0.37016 0.66267 0.28257 0.0
C222 C 0.38026 0.68601 0.2743 0.0
C223 C 0.37353 0.69493 0.25026 0.0
P224 P 0.16918 0.36263 0.73528 0.0
H225 H 0.18408 0.32858 0.69725 0.0
H226 H 0.16168 0.29439 0.67319 0.0
H227 H 0.09362 0.30957 0.70698 0.0
H228 H 0.11605 0.34425 0.73043 0.0
H229 H 0.20834 0.40072 0.75082 0.0
H230 H 0.24167 0.42568 0.7263 0.0
H231 H 0.2133 0.39365 0.65289 0.0
H232 H 0.17919 0.37015 0.67747 0.0
H233 H 0.13914 0.34766 0.78242 0.0
H234 H 0.15755 0.41161 0.73567 0.0
O235 O 0.18541 0.34867 0.75527 0.0
H236 H 0.11665 0.36885 0.81447 0.0
H237 H 0.13498 0.43298 0.76765 0.0
C238 C 0.1518 0.33932 0.71531 0.0
C239 C 0.16428 0.32492 0.69902 0.0
C240 C 0.15147 0.30534 0.68531 0.0
C241 C 0.12588 0.29931 0.68815 0.0
C242 C 0.11335 0.31376 0.70446 0.0
C243 C 0.12618 0.33366 0.7178 0.0
C244 C 0.19144 0.38325 0.71612 0.0
C245 C 0.20911 0.3994 0.72939 0.0
C246 C 0.22838 0.41348 0.71528 0.0
C247 C 0.23068 0.41149 0.68749 0.0
C248 C 0.21226 0.39593 0.67419 0.0
C249 C 0.19275 0.38215 0.68834 0.0
C250 C 0.15023 0.37807 0.75677 0.0
C251 C 0.13812 0.36623 0.77891 0.0
C252 C 0.12517 0.37837 0.7972 0.0
C253 C 0.12412 0.40271 0.7938 0.0
C254 C 0.13573 0.41435 0.77112 0.0
C255 C 0.14856 0.40211 0.75272 0.0
Gd256 Gd 0.00264 0.04491 0.51247 0.0
Gd257 Gd 0.98539 1.02455 0.56685 0.0
C258 C 0.01509 0.07727 0.56481 0.0
C259 C 0.01065 0.06345 0.46605 0.0
C260 C 0.03131 0.07999 0.45393 0.0
C261 C 0.05551 0.07849 0.46002 0.0
C262 C 0.02693 0.09782 0.43666 0.0
C263 C 0.07077 0.11208 0.43116 0.0
C264 C 0.04651 0.1138 0.4254 0.0
C265 C 0.07504 0.0943 0.44865 0.0
C266 C 0.03815 0.03115 0.5408 0.0
C267 C 0.97203 0.99105 0.51471 0.0
C268 C 0.972 0.99758 0.60731 0.0
C269 C 0.95691 0.97359 0.609 0.0
C270 C 0.93854 0.96644 0.59057 0.0
C271 C 0.96003 0.95804 0.62944 0.0
C272 C 0.92515 0.92937 0.61432 0.0
C273 C 0.94425 0.93604 0.63209 0.0
C274 C 0.92289 0.94454 0.59314 0.0
C275 C 0.95731 0.05305 0.54514 0.0
O276 O 0.00871 0.07725 0.53969 0.0
O277 O 0.01174 0.05733 0.57883 0.0
O278 O 0.015 0.04215 0.47179 0.0
O279 O 0.99806 0.07257 0.48475 0.0
O280 O 0.0417 0.04902 0.52469 0.0
O281 O 0.01636 1.02039 0.53979 0.0
O282 O 0.97091 0.99321 0.54076 0.0
O283 O 0.98251 1.00885 0.49934 0.0
O284 O 0.96039 1.01442 0.59997 0.0
O285 O 0.99359 0.99904 0.59564 0.0
O286 O 0.96201 0.05333 0.57014 0.0
O287 O 0.96711 0.03747 0.53319 0.0
H288 H 0.05938 0.06512 0.47361 0.0
H289 H 0.00838 0.09936 0.43189 0.0
H290 H 0.0427 0.12726 0.41189 0.0
H291 H 0.09351 0.09279 0.45378 0.0
H292 H 0.93572 0.97811 0.5746 0.0
H293 H 0.97413 0.96321 0.64379 0.0
H294 H 0.94627 0.92479 0.64876 0.0
H295 H 0.90853 0.93978 0.579 0.0
Gd296 Gd 0.52093 0.04082 0.05781 0.0
Gd297 Gd 0.46942 1.02385 0.03196 0.0
C298 C 0.4729 0.06245 0.07957 0.0
C299 C 0.56077 0.06469 0.0765 0.0
C300 C 0.56928 0.07564 0.10176 0.0
C301 C 0.56083 0.06518 0.12615 0.0
C302 C 0.58586 0.09724 0.10139 0.0
C303 C 0.586 0.09773 0.14955 0.0
C304 C 0.59413 0.10824 0.12507 0.0
C305 C 0.56927 0.07609 0.1499 0.0
C306 C 0.49411 0.99965 0.07685 0.0
C307 C 0.51795 1.00549 1.00893 0.0
C308 C 0.42976 0.99721 1.01718 0.0
C309 C 0.42221 0.9873 0.99107 0.0
C310 C 0.42888 1.00074 0.96802 0.0
C311 C 0.41039 0.96349 0.98882 0.0
C312 C 0.41247 0.96647 0.94066 0.0
C313 C 0.40554 0.95313 0.96382 0.0
C314 C 0.42393 0.99048 0.9431 0.0
C315 C 0.4971 0.06039 1.00339 0.0
O316 O 0.4969 0.06321 0.07984 0.0
O317 O 0.45823 0.04731 0.06453 0.0
O318 O 0.55602 0.04131 0.07545 0.0
O319 O 0.54458 0.07471 0.0647 0.0
O320 O 0.51783 1.00411 0.07549 0.0
O321 O 0.48576 1.01795 0.07017 0.0
O322 O 0.49419 0.99997 1.01434 0.0
O323 O 0.53178 1.02429 1.01968 0.0
O324 O 0.43186 1.02049 1.02009 0.0
O325 O 0.44787 0.98856 1.02723 0.0
O326 O 0.47507 0.05049 0.99733 0.0
O327 O 0.50232 0.04977 1.02346 0.0
H328 H 0.54777 0.04861 0.12683 0.0
H329 H 0.59248 0.10559 0.08274 0.0
H330 H 0.60726 0.12475 0.12421 0.0
H331 H 0.56259 0.06773 0.16851 0.0
H332 H 0.43831 1.01908 0.96919 0.0
H333 H 0.40546 0.95273 1.00639 0.0
H334 H 0.39691 0.93454 0.96264 0.0
H335 H 0.42911 1.00141 0.92572 0.0
Gd336 Gd 0.49965 0.50888 0.51957 0.0
Gd337 Gd 0.49193 0.54706 0.55876 0.0
C338 C 0.51842 0.5067 0.58091 0.0
C339 C 0.51879 0.47829 0.49147 0.0
C340 C 0.53219 0.4591 0.49812 0.0
C341 C 0.52602 0.44526 0.52104 0.0
C342 C 0.55251 0.45571 0.48235 0.0
C343 C 0.56078 0.42524 0.51256 0.0
C344 C 0.56671 0.43895 0.48951 0.0
C345 C 0.54014 0.42834 0.52813 0.0
C346 C 0.45508 0.50197 0.54368 0.0
C347 C 0.4737 0.54958 0.49755 0.0
C348 C 0.47198 0.5764 0.58795 0.0
C349 C 0.45335 0.59112 0.58313 0.0
C350 C 0.45397 0.61274 0.59687 0.0
C351 C 0.43578 0.58442 0.56375 0.0
C352 C 0.42052 0.62163 0.57084 0.0
C353 C 0.4195 0.59957 0.55764 0.0
C354 C 0.43764 0.62786 0.59084 0.0
C355 C 0.53647 0.55432 0.53412 0.0
O356 O 0.51871 0.49871 0.55611 0.0
O357 O 0.50748 0.52478 0.58772 0.0
O358 O 0.49556 0.47507 0.49848 0.0
O359 O 0.53027 0.49999 0.49626 0.0
O360 O 0.45876 0.49691 0.51888 0.0
O361 O 0.47512 0.50935 0.55466 0.0
O362 O 0.47115 0.55569 0.5228 0.0
O363 O 0.48681 0.53312 0.49047 0.0
O364 O 0.49284 0.58269 0.575 0.0
O365 O 0.46433 0.55327 0.5879 0.0
O366 O 0.53285 0.55953 0.55891 0.0
O367 O 0.51632 0.54669 0.52345 0.0
H368 H 0.51056 0.44782 0.53372 0.0
H369 H 0.55763 0.46632 0.46471 0.0
H370 H 0.58237 0.4367 0.47699 0.0
H371 H 0.53531 0.41813 0.54609 0.0
H372 H 0.46738 0.61812 0.61192 0.0
H373 H 0.43494 0.56772 0.55297 0.0
H374 H 0.40665 0.59434 0.54203 0.0
H375 H 0.43857 0.64455 0.60169 0.0
Gd376 Gd 0.00075 0.50456 0.05475 0.0
Gd377 Gd 0.98876 0.55532 0.03644 0.0
C378 C 0.04119 0.55399 0.0624 0.0
C379 C 0.02013 0.46706 0.06201 0.0
C380 C 0.04394 0.46101 0.06935 0.0
C381 C 0.04766 0.45531 0.09575 0.0
C382 C 0.06268 0.4598 0.05021 0.0
C383 C 0.08847 0.44773 0.08395 0.0
C384 C 0.08473 0.45322 0.05744 0.0
C385 C 0.06965 0.44885 0.10296 0.0
C386 C 0.97444 0.5277 0.08909 0.0
C387 C 0.95063 0.50563 1.02503 0.0
C388 C 0.96854 0.59278 0.03637 0.0
C389 C 0.94921 0.60064 1.02136 0.0
C390 C 0.9426 0.59062 0.99648 0.0
C391 C 0.93557 0.61664 0.0333 0.0
C392 C 0.90841 0.61216 0.99601 0.0
C393 C 0.91533 0.62236 1.02074 0.0
C394 C 0.92243 0.59653 0.98376 0.0
C395 C 0.00823 0.53158 0.99605 0.0
O396 O 0.03629 0.53019 0.06181 0.0
O397 O 0.02513 0.56749 0.05549 0.0
O398 O 0.00796 0.47675 0.0806 0.0
O399 O 0.01881 0.47643 0.03859 0.0
O400 O 0.97119 0.50453 0.08677 0.0
O401 O 0.992 0.53713 0.07413 0.0
O402 O 0.9538 0.52905 1.02934 0.0
O403 O 0.96752 0.49258 1.03028 0.0
O404 O 0.98932 0.59166 1.02356 0.0
O405 O 0.96089 0.57434 0.05165 0.0
O406 O 0.00147 0.55212 0.99278 0.0
O407 O 0.00357 0.52582 1.01968 0.0
H408 H 0.03344 0.45561 0.11088 0.0
H409 H 0.06031 0.46382 1.02962 0.0
H410 H 0.09889 0.45257 0.04233 0.0
H411 H 0.07169 0.44422 0.12343 0.0
H412 H 0.95271 0.5779 0.98719 0.0
H413 H 0.94027 0.62431 0.05262 0.0
H414 H 0.90499 0.63471 1.0304 0.0
H415 H 0.91743 0.58845 0.96471 0.0
H416 H 0.26715 0.2204 0.31388 0.0
H417 H 0.23385 0.19466 0.33764 0.0
H418 H 0.19976 0.25573 0.35632 0.0
H419 H 0.23354 0.28181 0.33337 0.0
H420 H 0.19623 0.22544 0.39803 0.0
H421 H 0.18028 0.21957 0.30508 0.0
H422 H 0.18976 0.2129 0.25781 0.0
H423 H 0.19906 0.14118 0.27467 0.0
H424 H 0.18997 0.14755 0.32213 0.0
H425 H 0.07602 0.16062 0.42597 0.0
H426 H 0.11098 0.18781 0.40629 0.0
H427 H 0.14763 0.12807 0.38943 0.0
H428 H 0.11267 0.10081 0.40874 0.0
H429 H 0.14958 0.15817 0.34711 0.0
H430 H 0.16512 0.16412 0.44022 0.0
H431 H 0.15533 0.17093 0.48738 0.0
H432 H 0.14621 0.24261 0.47009 0.0
H433 H 0.1556 0.2361 0.42272 0.0
C434 C 0.25286 0.22848 0.32351 0.0
C435 C 0.25294 0.25317 0.32159 0.0
C436 C 0.2337 0.21368 0.33686 0.0
C437 C 0.21412 0.22323 0.34834 0.0
C438 C 0.21462 0.24798 0.34745 0.0
C439 C 0.23383 0.26282 0.33414 0.0
C440 C 0.19267 0.20724 0.36029 0.0
C441 C 0.18583 0.21091 0.38682 0.0
C442 C 0.17935 0.18805 0.34575 0.0
C443 C 0.18468 0.18412 0.3172 0.0
C444 C 0.18453 0.20244 0.29874 0.0
C445 C 0.1898 0.1987 0.27191 0.0
C446 C 0.19507 0.17665 0.26325 0.0
C447 C 0.19501 0.15826 0.28141 0.0
C448 C 0.18978 0.16192 0.30827 0.0
C449 C 0.09148 0.1533 0.41791 0.0
C450 C 0.09167 0.12862 0.41895 0.0
C451 C 0.11149 0.16884 0.40688 0.0
C452 C 0.13196 0.15995 0.39664 0.0
C453 C 0.13203 0.13529 0.39732 0.0
C454 C 0.11214 0.11978 0.40849 0.0
C455 C 0.15323 0.17627 0.38489 0.0
C456 C 0.15999 0.17269 0.35834 0.0
C457 C 0.16639 0.19555 0.39939 0.0
C458 C 0.1608 0.19953 0.42787 0.0
C459 C 0.16081 0.18126 0.44643 0.0
C460 C 0.15538 0.18508 0.47321 0.0
C461 C 0.15008 0.20716 0.48171 0.0
C462 C 0.15027 0.2255 0.46346 0.0
C463 C 0.15567 0.22176 0.43665 0.0
H464 H 0.14588 0.21009 0.50245 0.0
H465 H 0.19915 0.17378 0.24247 0.0
H466 H 0.33031 0.8852 0.71503 0.0
H467 H 0.34207 0.89035 0.76126 0.0
H468 H 0.40535 0.94203 0.73787 0.0
H469 H 0.39333 0.93767 0.6916 0.0
H470 H 0.41394 0.90808 0.77761 0.0
H471 H 0.35908 0.96303 0.7593 0.0
H472 H 0.32083 0.97363 0.7434 0.0
H473 H 0.27919 0.92659 0.8006 0.0
H474 H 0.31721 0.91542 0.81656 0.0
H475 H 0.44259 0.97269 0.8964 0.0
H476 H 0.43348 0.95789 0.85168 0.0
H477 H 0.36342 0.91978 0.87985 0.0
H478 H 0.37191 0.93559 0.92449 0.0
H479 H 0.35753 0.94368 0.83796 0.0
H480 H 0.41071 0.88912 0.8579 0.0
H481 H 0.44791 0.87621 0.87364 0.0
H482 H 0.49153 0.92006 0.81509 0.0
H483 H 0.45453 0.93312 0.79887 0.0
C484 C 0.34669 0.89775 0.71966 0.0
C485 C 0.36069 0.91128 0.6996 0.0
C486 C 0.35348 0.90049 0.74606 0.0
C487 C 0.37446 0.91667 0.75289 0.0
C488 C 0.38913 0.92938 0.73289 0.0
C489 C 0.38224 0.92682 0.70647 0.0
C490 C 0.38008 0.92158 0.78107 0.0
C491 C 0.40177 0.91604 0.79083 0.0
C492 C 0.3638 0.93134 0.79835 0.0
C493 C 0.34096 0.93819 0.78891 0.0
C494 C 0.34175 0.95479 0.76832 0.0
C495 C 0.32012 0.96093 0.75933 0.0
C496 C 0.29759 0.95074 0.77093 0.0
C497 C 0.29665 0.93443 0.7916 0.0
C498 C 0.31824 0.9282 0.80064 0.0
C499 C 0.42519 0.96122 0.89309 0.0
C500 C 0.40785 0.95556 0.91399 0.0
C501 C 0.42017 0.95244 0.86755 0.0
C502 C 0.39785 0.93751 0.8624 0.0
C503 C 0.3808 0.93123 0.88337 0.0
C504 C 0.38575 0.94014 0.90892 0.0
C505 C 0.39151 0.9302 0.83479 0.0
C506 C 0.36967 0.93543 0.82498 0.0
C507 C 0.40755 0.91992 0.81761 0.0
C508 C 0.42987 0.91221 0.8273 0.0
C509 C 0.42825 0.89609 0.84846 0.0
C510 C 0.44928 0.88866 0.85738 0.0
C511 C 0.47208 0.89735 0.84541 0.0
C512 C 0.47386 0.91335 0.82434 0.0
C513 C 0.45285 0.92067 0.81519 0.0
H514 H 0.48837 0.8917 0.85248 0.0
H515 H 0.28086 0.95551 0.76394 0.0
H516 H 0.62883 0.43739 0.78126 0.0
H517 H 0.60977 0.45686 0.7463 0.0
H518 H 0.58568 0.38836 0.70932 0.0
H519 H 0.60443 0.36877 0.7444 0.0
H520 H 0.60815 0.42546 0.67312 0.0
H521 H 0.54509 0.41182 0.7421 0.0
H522 H 0.5284 0.41441 0.78769 0.0
H523 H 0.54459 0.49106 0.78442 0.0
H524 H 0.56172 0.48891 0.73891 0.0
H525 H 0.52911 0.46137 0.58007 0.0
H526 H 0.54722 0.44128 0.61486 0.0
H527 H 0.55363 0.50502 0.66342 0.0
H528 H 0.53421 0.5247 0.62919 0.0
H529 H 0.54038 0.46986 0.694 0.0
H530 H 0.60835 0.48564 0.63076 0.0
H531 H 0.62747 0.48624 0.58588 0.0
H532 H 0.60392 0.41039 0.57881 0.0
H533 H 0.58503 0.40933 0.62379 0.0
C534 C 0.61946 0.42648 0.76569 0.0
C535 C 0.61803 0.4015 0.76573 0.0
C536 C 0.60852 0.43762 0.74575 0.0
C537 C 0.59621 0.42409 0.72517 0.0
C538 C 0.59505 0.39919 0.72496 0.0
C539 C 0.60561 0.38799 0.74514 0.0
C540 C 0.58441 0.43589 0.70402 0.0
C541 C 0.59314 0.43493 0.67767 0.0
C542 C 0.5653 0.44888 0.7099 0.0
C543 C 0.55491 0.45019 0.7372 0.0
C544 C 0.54529 0.42922 0.75119 0.0
C545 C 0.53571 0.43061 0.777 0.0
C546 C 0.5355 0.45289 0.78897 0.0
C547 C 0.5448 0.47382 0.77513 0.0
C548 C 0.55443 0.47252 0.74932 0.0
C549 C 0.53447 0.47116 0.5981 0.0
C550 C 0.53027 0.4947 0.60174 0.0
C551 C 0.54506 0.45969 0.61801 0.0
C552 C 0.55244 0.47169 0.64178 0.0
C553 C 0.5482 0.49524 0.64539 0.0
C554 C 0.53713 0.50654 0.62571 0.0
C555 C 0.56417 0.45963 0.66298 0.0
C556 C 0.55543 0.46048 0.68939 0.0
C557 C 0.58362 0.44699 0.65729 0.0
C558 C 0.59541 0.44739 0.63057 0.0
C559 C 0.60738 0.46909 0.61962 0.0
C560 C 0.61821 0.46951 0.59421 0.0
C561 C 0.61705 0.44834 0.57955 0.0
C562 C 0.605 0.42674 0.59024 0.0
C563 C 0.59438 0.42618 0.61576 0.0
H564 H 0.62552 0.44871 0.55993 0.0
H565 H 0.52807 0.45393 0.80895 0.0
H566 H 0.8635 0.6163 0.28743 0.0
H567 H 0.88286 0.5925 0.25504 0.0
H568 H 0.90448 0.65497 0.20639 0.0
H569 H 0.88493 0.67871 0.2385 0.0
H570 H 0.8872 0.61916 0.17603 0.0
H571 H 0.94584 0.63071 0.24447 0.0
H572 H 0.96087 0.62992 0.28986 0.0
H573 H 0.93864 0.55366 0.29187 0.0
H574 H 0.92317 0.55403 0.24659 0.0
H575 H 0.98183 0.57593 0.0981 0.0
H576 H 0.96124 0.59786 0.13138 0.0
H577 H 0.92002 0.53144 0.16063 0.0
H578 H 0.93967 0.5094 0.12645 0.0
H579 H 0.94666 0.56787 0.2005 0.0
H580 H 0.8887 0.55751 0.13055 0.0
H581 H 0.87562 0.55956 0.08454 0.0
H582 H 0.89914 0.63567 0.08498 0.0
H583 H 0.91288 0.63401 0.13087 0.0
C584 C 0.87264 0.62503 0.26999 0.0
C585 C 0.87261 0.64943 0.26559 0.0
C586 C 0.88372 0.61138 0.25143 0.0
C587 C 0.89537 0.6219 0.22823 0.0
C588 C 0.89555 0.64633 0.22398 0.0
C589 C 0.88433 0.65991 0.24239 0.0
C590 C 0.90692 0.60746 0.20811 0.0
C591 C 0.90041 0.6082 0.18144 0.0
C592 C 0.92389 0.59272 0.215 0.0
C593 C 0.9331 0.59243 0.24225 0.0
C594 C 0.94397 0.61379 0.25468 0.0
C595 C 0.9526 0.61342 0.28037 0.0
C596 C 0.95065 0.59176 0.29377 0.0
C597 C 0.9401 0.57043 0.28148 0.0
C598 C 0.93141 0.57071 0.2558 0.0
C599 C 0.96806 0.566 0.11128 0.0
C600 C 0.96202 0.54096 0.1093 0.0
C601 C 0.95646 0.57856 0.13042 0.0
C602 C 0.93906 0.56628 0.1484 0.0
C603 C 0.93337 0.54124 0.1469 0.0
C604 C 0.94455 0.5287 0.12733 0.0
C605 C 0.92688 0.57971 0.16873 0.0
C606 C 0.93336 0.57882 0.19529 0.0
C607 C 0.91013 0.59451 0.16173 0.0
C608 C 0.90208 0.59559 0.13406 0.0
C609 C 0.89139 0.57465 0.12074 0.0
C610 C 0.8838 0.57574 0.0947 0.0
C611 C 0.88657 0.59772 0.08185 0.0
C612 C 0.89701 0.61865 0.09498 0.0
C613 C 0.90472 0.61764 0.121 0.0
H614 H 0.88053 0.59852 0.06176 0.0
H615 H 0.95735 0.59151 0.31365 0.0
H616 H 0.39552 0.25076 0.16059 0.0
H617 H 0.41465 0.21827 0.14178 0.0
H618 H 0.38261 0.1721 0.20548 0.0
H619 H 0.36361 0.20453 0.22448 0.0
H620 H 0.43153 0.1687 0.194 0.0
H621 H 0.3561 0.16621 0.14837 0.0
H622 H 0.32646 0.1832 0.12238 0.0
H623 H 0.38021 0.19998 0.05929 0.0
H624 H 0.41029 0.18338 0.0851 0.0
H625 H 0.42441 0.0631 0.09069 0.0
H626 H 0.40682 0.09364 0.11527 0.0
H627 H 0.47934 0.13231 0.12969 0.0
H628 H 0.49707 0.10155 0.10581 0.0
H629 H 0.40924 0.13864 0.10373 0.0
H630 H 0.47889 0.16596 0.18595 0.0
H631 H 0.50749 0.14815 0.21265 0.0
H632 H 0.46268 0.07893 0.20436 0.0
H633 H 0.43367 0.09637 0.17787 0.0
C634 C 0.39275 0.23375 0.17069 0.0
C635 C 0.37794 0.23011 0.19389 0.0
C636 C 0.40359 0.21521 0.15989 0.0
C637 C 0.39991 0.19277 0.17218 0.0
C638 C 0.38566 0.18928 0.19571 0.0
C639 C 0.37466 0.20774 0.20638 0.0
C640 C 0.41014 0.17264 0.16 0.0
C641 C 0.42673 0.1621 0.17425 0.0
C642 C 0.40361 0.16392 0.13438 0.0
C643 C 0.38551 0.17377 0.11877 0.0
C644 C 0.36165 0.17369 0.12904 0.0
C645 C 0.34476 0.18322 0.11433 0.0
C646 C 0.35146 0.19272 0.08922 0.0
C647 C 0.37505 0.19265 0.07875 0.0
C648 C 0.39202 0.18317 0.0934 0.0
C649 C 0.43664 0.07794 0.09937 0.0
C650 C 0.46216 0.07984 0.09627 0.0
C651 C 0.42655 0.09543 0.11337 0.0
C652 C 0.44173 0.11523 0.12448 0.0
C653 C 0.46722 0.117 0.12174 0.0
C654 C 0.47735 0.0994 0.10797 0.0
C655 C 0.43082 0.13459 0.13764 0.0
C656 C 0.41412 0.14513 0.1235 0.0
C657 C 0.43714 0.14314 0.16345 0.0
C658 C 0.45423 0.13246 0.17972 0.0
C659 C 0.47508 0.14696 0.18992 0.0
C660 C 0.49138 0.13693 0.205 0.0
C661 C 0.48693 0.11242 0.21014 0.0
C662 C 0.46614 0.0979 0.20028 0.0
C663 C 0.44978 0.10785 0.1852 0.0
H664 H 0.49958 0.10469 0.22179 0.0
H665 H 0.33836 0.20009 0.07786 0.0
H666 H 0.22092 0.93128 0.54223 0.0
H667 H 0.18235 0.94639 0.54171 0.0
H668 H 0.18905 0.96509 0.62464 0.0
H669 H 0.22787 0.95023 0.62517 0.0
H670 H 0.13932 0.93544 0.56644 0.0
H671 H 0.16648 1.01682 0.63551 0.0
H672 H 0.20365 0.04359 0.65023 0.0
H673 H 0.2414 1.0303 0.57749 0.0
H674 H 0.20438 1.00374 0.56221 0.0
H675 H 0.03516 0.99211 0.57282 0.0
H676 H 0.06922 0.97437 0.58857 0.0
H677 H 0.12039 1.02928 0.54822 0.0
H678 H 0.08663 0.04778 0.53403 0.0
H679 H 0.13923 1.0202 0.59128 0.0
H680 H 0.09832 0.97105 0.52074 0.0
H681 H 0.06275 0.94608 0.50029 0.0
H682 H 0.05571 0.8976 0.56581 0.0
H683 H 0.09109 0.92245 0.58677 0.0
C684 C 0.21404 0.93839 0.56041 0.0
C685 C 0.22746 0.93976 0.58368 0.0
C686 C 0.192 0.94698 0.56011 0.0
C687 C 0.18294 0.95706 0.58307 0.0
C688 C 0.1959 0.95773 0.60659 0.0
C689 C 0.21807 0.94931 0.60685 0.0
C690 C 0.16054 0.96782 0.58186 0.0
C691 C 0.13923 0.95393 0.57205 0.0
C692 C 0.16047 0.99197 0.58902 0.0
C693 C 0.18277 1.00806 0.59791 0.0
C694 C 0.18271 1.01966 0.62266 0.0
C695 C 0.20374 0.0348 0.63109 0.0
C696 C 0.2249 0.03856 0.61485 0.0
C697 C 0.22504 1.02729 0.59009 0.0
C698 C 0.20405 1.01217 0.58155 0.0
C699 C 0.05371 1.00061 0.56784 0.0
C700 C 0.05829 1.02122 0.55213 0.0
C701 C 0.07315 0.99037 0.57664 0.0
C702 C 0.09739 1.00021 0.56916 0.0
C703 C 0.1019 1.02133 0.55429 0.0
C704 C 0.08256 0.03182 0.54603 0.0
C705 C 0.11813 0.98803 0.57518 0.0
C706 C 0.13913 1.00159 0.58609 0.0
C707 C 0.11818 0.9638 0.5682 0.0
C708 C 0.09715 0.94871 0.55543 0.0
C709 C 0.0891 0.95512 0.53082 0.0
C710 C 0.06899 0.94099 0.51915 0.0
C711 C 0.05693 0.92031 0.53178 0.0
C712 C 0.06503 0.91365 0.55607 0.0
C713 C 0.08512 0.92774 0.56785 0.0
H714 H 0.04135 0.90941 0.52272 0.0
H715 H 0.24117 0.05027 0.62143 0.0
H716 H 0.78045 0.38294 0.88858 0.0
H717 H 0.81571 0.40376 0.91206 0.0
H718 H 0.76956 0.44583 0.9547 0.0
H719 H 0.73383 0.4246 0.93166 0.0
H720 H 0.81383 0.47327 0.93723 0.0
H721 H 0.78761 0.40075 0.98551 0.0
H722 H 0.77535 0.3572 0.99096 0.0
H723 H 0.84551 0.34646 0.95981 0.0
H724 H 0.85807 0.38995 0.95381 0.0
H725 H 0.90593 0.51973 1.02847 0.0
H726 H 0.86783 0.50078 1.00839 0.0
H727 H 0.90482 0.44665 0.97339 0.0
H728 H 0.94257 0.46479 0.99482 0.0
H729 H 0.86299 0.42605 0.98886 0.0
H730 H 0.88902 0.49844 0.93874 0.0
H731 H 0.90155 0.54202 0.93341 0.0
H732 H 0.83252 0.55331 0.96721 0.0
H733 H 0.81969 0.5098 0.97308 0.0
C734 C 0.77758 0.39638 0.90318 0.0
C735 C 0.75401 0.40172 0.90838 0.0
C736 C 0.7979 0.40842 0.91651 0.0
C737 C 0.79535 0.42622 0.93543 0.0
C738 C 0.77205 0.43217 0.9402 0.0
C739 C 0.7516 0.42001 0.92693 0.0
C740 C 0.817 0.43811 0.95049 0.0
C741 C 0.82443 0.46301 0.94881 0.0
C742 C 0.83114 0.42476 0.96526 0.0
C743 C 0.8237 0.3986 0.969 0.0
C744 C 0.80036 0.38909 0.97964 0.0
C745 C 0.79336 0.36442 0.98286 0.0
C746 C 0.80962 0.34907 0.97568 0.0
C747 C 0.83293 0.35837 0.96533 0.0
C748 C 0.84 0.38303 0.96204 0.0
C749 C 0.90591 0.50373 1.01656 0.0
C750 C 0.92733 0.49379 1.01323 0.0
C751 C 0.8841 0.49298 1.00484 0.0
C752 C 0.88334 0.47249 0.98869 0.0
C753 C 0.90473 0.46243 0.98564 0.0
C754 C 0.92638 0.47283 0.99791 0.0
C755 C 0.86035 0.46129 0.97523 0.0
C756 C 0.85254 0.43644 0.97727 0.0
C757 C 0.84599 0.47474 0.96067 0.0
C758 C 0.85348 0.50086 0.95655 0.0
C759 C 0.87655 0.51022 0.94513 0.0
C760 C 0.8837 0.53491 0.94201 0.0
C761 C 0.86785 0.55042 0.95001 0.0
C762 C 0.84478 0.54127 0.96105 0.0
C763 C 0.83754 0.51659 0.96425 0.0
H764 H 0.87342 0.56952 0.9476 0.0
H765 H 0.80417 0.32997 0.97819 0.0
H766 H 0.74936 0.65302 0.44113 0.0
H767 H 0.71355 0.63188 0.46576 0.0
H768 H 0.67512 0.61741 0.3928 0.0
H769 H 0.71092 0.63805 0.36799 0.0
H770 H 0.64715 0.63497 0.43001 0.0
H771 H 0.69558 0.5732 0.42482 0.0
H772 H 0.73239 0.55504 0.42981 0.0
H773 H 0.72931 0.56715 0.5139 0.0
H774 H 0.69266 0.58572 0.50937 0.0
H775 H 0.54448 0.55421 0.48042 0.0
H776 H 0.58243 0.56992 0.45565 0.0
H777 H 0.61921 0.5877 0.52913 0.0
H778 H 0.58124 0.57204 0.55401 0.0
H779 H 0.64811 0.5679 0.49179 0.0
H780 H 0.60003 0.63047 0.49642 0.0
H781 H 0.56295 0.64813 0.49113 0.0
H782 H 0.56537 0.63402 0.40739 0.0
H783 H 0.6023 0.61593 0.41224 0.0
C784 C 0.73348 0.64498 0.43023 0.0
C785 C 0.73309 0.64742 0.40251 0.0
C786 C 0.71294 0.63294 0.44439 0.0
C787 C 0.69158 0.623 0.43116 0.0
C788 C 0.69129 0.62505 0.40349 0.0
C789 C 0.7118 0.63697 0.38933 0.0
C790 C 0.66921 0.61128 0.44618 0.0
C791 C 0.64732 0.62007 0.44321 0.0
C792 C 0.66946 0.59219 0.46391 0.0
C793 C 0.69153 0.58109 0.46672 0.0
C794 C 0.70288 0.5722 0.44435 0.0
C795 C 0.72369 0.56179 0.4471 0.0
C796 C 0.73323 0.56001 0.47215 0.0
C797 C 0.72193 0.56858 0.49451 0.0
C798 C 0.70113 0.57903 0.49186 0.0
C799 C 0.5607 0.5613 0.49129 0.0
C800 C 0.55985 0.56208 0.51916 0.0
C801 C 0.58237 0.57033 0.47712 0.0
C802 C 0.60363 0.58024 0.49052 0.0
C803 C 0.60305 0.58018 0.51837 0.0
C804 C 0.58132 0.57131 0.53255 0.0
C805 C 0.62613 0.59155 0.47549 0.0
C806 C 0.648 0.58275 0.47852 0.0
C807 C 0.62589 0.61062 0.45775 0.0
C808 C 0.60378 0.62162 0.45474 0.0
C809 C 0.59254 0.63095 0.47691 0.0
C810 C 0.57157 0.64107 0.47398 0.0
C811 C 0.56177 0.64213 0.44895 0.0
C812 C 0.57297 0.63314 0.42678 0.0
C813 C 0.59393 0.62297 0.4296 0.0
H814 H 0.54553 0.64997 0.44673 0.0
H815 H 0.74933 0.55193 0.47424 0.0
H816 H 0.26255 0.38444 0.21029 0.0
H817 H 0.23187 0.40305 0.18912 0.0
H818 H 0.23612 0.35843 0.11996 0.0
H819 H 0.26778 0.34034 0.1406 0.0
H820 H 0.23182 0.40354 0.10619 0.0
H821 H 0.19046 0.34381 0.1658 0.0
H822 H 0.1819 0.32291 0.20848 0.0
H823 H 0.16444 0.38676 0.24497 0.0
H824 H 0.17324 0.40816 0.20257 0.0
H825 H 0.11449 0.41724 0.05778 0.0
H826 H 0.15045 0.40239 0.07315 0.0
H827 H 0.15027 0.44612 0.14362 0.0
H828 H 0.11456 0.46119 0.1283 0.0
H829 H 0.15251 0.4004 0.15533 0.0
H830 H 0.19391 0.46007 0.09514 0.0
H831 H 0.20224 0.48051 0.05216 0.0
H832 H 0.21888 0.4161 1.01625 0.0
H833 H 0.21032 0.39517 0.05896 0.0
C834 C 0.25743 0.37889 0.19034 0.0
C835 C 0.26764 0.3608 0.17719 0.0
C836 C 0.23964 0.38939 0.17838 0.0
C837 C 0.23138 0.38183 0.15315 0.0
C838 C 0.24212 0.36443 0.13951 0.0
C839 C 0.26005 0.35396 0.15144 0.0
C840 C 0.21086 0.39147 0.1416 0.0
C841 C 0.21435 0.4026 0.11675 0.0
C842 C 0.18819 0.39052 0.15556 0.0
C843 C 0.18273 0.37765 0.18106 0.0
C844 C 0.18497 0.35345 0.18297 0.0
C845 C 0.18005 0.3415 0.20711 0.0
C846 C 0.17269 0.35351 0.22944 0.0
C847 C 0.17017 0.37748 0.22766 0.0
C848 C 0.1751 0.38953 0.20358 0.0
C849 C 0.1224 0.42403 0.0763 0.0
C850 C 0.11156 0.44027 0.09191 0.0
C851 C 0.14292 0.4155 0.08508 0.0
C852 C 0.15304 0.42316 0.10954 0.0
C853 C 0.14266 0.43986 0.12477 0.0
C854 C 0.12221 0.44839 0.11602 0.0
C855 C 0.17354 0.41281 0.12009 0.0
C856 C 0.16997 0.40139 0.14474 0.0
C857 C 0.19603 0.41343 0.10587 0.0
C858 C 0.20122 0.42599 0.08019 0.0
C859 C 0.19914 0.4502 0.07803 0.0
C860 C 0.20395 0.46189 0.05373 0.0
C861 C 0.21102 0.44959 0.03147 0.0
C862 C 0.21336 0.42559 0.03349 0.0
C863 C 0.20856 0.41381 0.05775 0.0
H864 H 0.21474 0.45867 1.01267 0.0
H865 H 0.16889 0.34423 0.24811 0.0
H866 H 0.58375 0.25003 0.86767 0.0
H867 H 0.56309 0.21295 0.88819 0.0
H868 H 0.61297 0.22439 0.95275 0.0
H869 H 0.63427 0.26122 0.93187 0.0
H870 H 0.60672 0.17854 0.93619 0.0
H871 H 0.5533 0.23397 0.96015 0.0
H872 H 0.52765 0.26428 0.95175 0.0
H873 H 0.48183 0.21448 0.90218 0.0
H874 H 0.50741 0.18397 0.91001 0.0
H875 H 0.54079 0.08682 1.01853 0.0
H876 H 0.56233 0.12444 0.9999 0.0
H877 H 0.50822 0.12007 0.93962 0.0
H878 H 0.48584 0.08331 0.95956 0.0
H879 H 0.51716 0.16311 0.95495 0.0
H880 H 0.57044 0.10798 0.9293 0.0
H881 H 0.596 0.07735 0.93657 0.0
H882 H 0.64199 0.12578 0.98735 0.0
H883 H 0.61652 0.1566 0.98065 0.0
C884 C 0.59046 0.24467 0.88618 0.0
C885 C 0.61077 0.25878 0.89804 0.0
C886 C 0.57843 0.22349 0.89806 0.0
C887 C 0.58624 0.21585 0.92223 0.0
C888 C 0.60649 0.22986 0.93415 0.0
C889 C 0.61853 0.25109 0.92229 0.0
C890 C 0.5735 0.19311 0.93482 0.0
C891 C 0.58718 0.1753 0.94063 0.0
C892 C 0.54789 0.18848 0.94005 0.0
C893 C 0.5324 0.20676 0.93548 0.0
C894 C 0.53785 0.22954 0.94731 0.0
C895 C 0.52331 0.24674 0.94268 0.0
C896 C 0.50316 0.24133 0.92639 0.0
C897 C 0.49747 0.21867 0.91477 0.0
C898 C 0.51196 0.2014 0.91932 0.0
C899 C 0.53344 0.09396 1.0015 0.0
C900 C 0.51148 0.08218 0.99081 0.0
C901 C 0.54594 0.11541 0.99051 0.0
C902 C 0.53723 0.12522 0.96796 0.0
C903 C 0.51544 0.11313 0.95701 0.0
C904 C 0.50271 0.09197 0.96836 0.0
C905 C 0.5503 0.14827 0.95614 0.0
C906 C 0.5367 0.16623 0.95051 0.0
C907 C 0.57596 0.15293 0.95085 0.0
C908 C 0.59145 0.13452 0.95466 0.0
C909 C 0.58593 0.11205 0.94213 0.0
C910 C 0.6004 0.09466 0.94614 0.0
C911 C 0.62057 0.0996 0.96246 0.0
C912 C 0.62635 0.12197 0.97474 0.0
C913 C 0.61192 0.13941 0.97082 0.0
H914 H 0.63174 0.08611 0.96555 0.0
H915 H 0.49193 0.25467 0.92283 0.0
H916 H 0.88213 0.81071 0.37013 0.0
H917 H 0.90089 0.84747 0.39225 0.0
H918 H 0.89556 0.81033 0.46684 0.0
H919 H 0.87604 0.77351 0.44475 0.0
H920 H 0.88352 0.85165 0.47528 0.0
H921 H 0.95152 0.82683 0.43047 0.0
H922 H 0.97533 0.81317 0.39306 0.0
H923 H 0.97278 0.878 0.35123 0.0
H924 H 0.94865 0.89192 0.38824 0.0
H925 H 0.95965 0.94796 0.53948 0.0
H926 H 0.94286 0.90935 0.52007 0.0
H927 H 0.94282 0.94224 0.44348 0.0
H928 H 0.96054 0.98098 0.46271 0.0
H929 H 0.95901 0.90167 0.4383 0.0
H930 H 0.88635 0.92328 0.48353 0.0
H931 H 0.86443 0.93626 0.5229 0.0
H932 H 0.88015 0.87676 0.56681 0.0
H933 H 0.90163 0.86312 0.5275 0.0
C934 C 0.88523 0.81026 0.39119 0.0
C935 C 0.87782 0.78907 0.40561 0.0
C936 C 0.89601 0.83135 0.40386 0.0
C937 C 0.90016 0.83173 0.43123 0.0
C938 C 0.89267 0.81059 0.44573 0.0
C939 C 0.88154 0.78952 0.43308 0.0
C940 C 0.91181 0.85433 0.44463 0.0
C941 C 0.90022 0.86236 0.46733 0.0
C942 C 0.93354 0.86861 0.43436 0.0
C943 C 0.94808 0.86033 0.41205 0.0
C944 C 0.95588 0.8381 0.41321 0.0
C945 C 0.96946 0.83032 0.39209 0.0
C946 C 0.97552 0.84468 0.36976 0.0
C947 C 0.96805 0.86688 0.36853 0.0
C948 C 0.95444 0.87474 0.38959 0.0
C949 C 0.95592 0.94709 0.51852 0.0
C950 C 0.96128 0.96769 0.5027 0.0
C951 C 0.94616 0.92491 0.50744 0.0
C952 C 0.941 0.92281 0.48035 0.0
C953 C 0.9465 0.94334 0.46445 0.0
C954 C 0.9566 0.96552 0.47547 0.0
C955 C 0.93041 0.89919 0.46845 0.0
C956 C 0.94229 0.89091 0.44614 0.0
C957 C 0.9092 0.88453 0.47931 0.0
C958 C 0.89557 0.89222 0.50262 0.0
C959 C 0.88499 0.91291 0.50156 0.0
C960 C 0.87257 0.92032 0.52382 0.0
C961 C 0.87072 0.90722 0.54727 0.0
C962 C 0.88133 0.88672 0.54854 0.0
C963 C 0.89348 0.87905 0.52623 0.0
H964 H 0.86111 0.913 0.56447 0.0
H965 H 0.98603 0.83862 0.35343 0.0
H966 H 0.31288 0.79997 0.51841 0.0
H967 H 0.31905 0.75869 0.51059 0.0
H968 H 0.3352 0.75293 0.59315 0.0
H969 H 0.32868 0.79366 0.60104 0.0
H970 H 0.3588 0.74204 0.5138 0.0
H971 H 0.32343 0.69881 0.616 0.0
H972 H 0.28831 0.69877 0.64711 0.0
H973 H 0.24589 0.71914 0.58432 0.0
H974 H 0.28061 0.71895 0.5527 0.0
H975 H 0.43311 0.66979 0.56473 0.0
H976 H 0.4067 0.69808 0.55405 0.0
H977 H 0.34544 0.6402 0.54761 0.0
H978 H 0.37175 0.61169 0.55942 0.0
H979 H 0.33252 0.6749 0.57602 0.0
H980 H 0.36984 0.67071 0.4918 0.0
H981 H 0.40291 0.6694 0.45832 0.0
H982 H 0.43656 0.74059 0.48002 0.0
H983 H 0.40396 0.74224 0.5139 0.0
C984 C 0.31738 0.78968 0.53491 0.0
C985 C 0.32023 0.79997 0.56035 0.0
C986 C 0.32082 0.76612 0.53045 0.0
C987 C 0.32722 0.75253 0.55135 0.0
C988 C 0.32953 0.76271 0.57684 0.0
C989 C 0.3259 0.78609 0.58134 0.0
C990 C 0.33432 0.72884 0.54636 0.0
C991 C 0.35278 0.7272 0.52712 0.0
C992 C 0.32581 0.70909 0.56305 0.0
C993 C 0.3047 0.70891 0.58195 0.0
C994 C 0.30656 0.70308 0.60874 0.0
C995 C 0.28673 0.70316 0.6265 0.0
C996 C 0.2649 0.70897 0.61771 0.0
C997 C 0.26283 0.71469 0.59112 0.0
C998 C 0.2826 0.71463 0.57328 0.0
C999 C 0.414 0.66305 0.56116 0.0
C1000 C 0.40447 0.63854 0.56316 0.0
C1001 C 0.39899 0.67921 0.55461 0.0
C1002 C 0.37418 0.67122 0.54956 0.0
C1003 C 0.36459 0.64671 0.5512 0.0
C1004 C 0.37965 0.63046 0.55785 0.0
C1005 C 0.35816 0.68895 0.54482 0.0
C1006 C 0.338 0.68942 0.56217 0.0
C1007 C 0.36471 0.70737 0.52596 0.0
C1008 C 0.3844 0.70657 0.50547 0.0
C1009 C 0.38435 0.68605 0.48954 0.0
C1010 C 0.40302 0.68525 0.47047 0.0
C1011 C 0.42182 0.7049 0.46706 0.0
C1012 C 0.42197 0.7254 0.48267 0.0
C1013 C 0.40336 0.72629 0.50177 0.0
H1014 H 0.43629 0.70427 0.45235 0.0
H1015 H 0.24957 0.70904 0.63149 0.0
H1016 H 0.77525 0.78493 0.75388 0.0
H1017 H 0.80305 0.79069 0.71513 0.0
H1018 H 0.77198 0.85169 0.69246 0.0
H1019 H 0.74357 0.84557 0.73068 0.0
H1020 H 0.78924 0.82834 0.64864 0.0
H1021 H 0.8169 0.85936 0.73551 0.0
H1022 H 0.82476 0.85462 0.78282 0.0
H1023 H 0.8726 0.80499 0.76229 0.0
H1024 H 0.86469 0.80919 0.71483 0.0
H1025 H 0.87597 0.927 0.613 0.0
H1026 H 0.84418 0.89452 0.62773 0.0
H1027 H 0.89888 0.85128 0.64289 0.0
H1028 H 0.93107 0.88421 0.6283 0.0
H1029 H 0.87188 0.85384 0.68485 0.0
H1030 H 0.85202 0.83214 0.59611 0.0
H1031 H 0.84394 0.83818 0.54912 0.0
H1032 H 0.78266 0.87143 0.57214 0.0
H1033 H 0.79027 0.86548 0.61927 0.0
C1034 C 0.77361 0.79895 0.74006 0.0
C1035 C 0.75757 0.81513 0.74562 0.0
C1036 C 0.78958 0.80226 0.71796 0.0
C1037 C 0.78989 0.82191 0.70127 0.0
C1038 C 0.77212 0.83648 0.70517 0.0
C1039 C 0.75608 0.83313 0.72719 0.0
C1040 C 0.81118 0.83008 0.68325 0.0
C1041 C 0.8074 0.83377 0.65637 0.0
C1042 C 0.83496 0.83662 0.69328 0.0
C1043 C 0.83998 0.83435 0.72172 0.0
C1044 C 0.82898 0.84734 0.74112 0.0
C1045 C 0.83344 0.84475 0.76794 0.0
C1046 C 0.84911 0.82946 0.77556 0.0
C1047 C 0.86041 0.81678 0.75636 0.0
C1048 C 0.85594 0.81924 0.7295 0.0
C1049 C 0.88123 0.91032 0.61866 0.0
C1050 C 0.90602 0.90815 0.61954 0.0
C1051 C 0.86297 0.89162 0.62694 0.0
C1052 C 0.86903 0.87024 0.63611 0.0
C1053 C 0.89374 0.86756 0.63576 0.0
C1054 C 0.91211 0.88639 0.62759 0.0
C1055 C 0.85001 0.85278 0.65013 0.0
C1056 C 0.8541 0.84752 0.67652 0.0
C1057 C 0.8266 0.8449 0.63957 0.0
C1058 C 0.82176 0.84839 0.61124 0.0
C1059 C 0.83684 0.84077 0.59116 0.0
C1060 C 0.83229 0.84411 0.56449 0.0
C1061 C 0.81284 0.85524 0.55765 0.0
C1062 C 0.79773 0.86282 0.57746 0.0
C1063 C 0.80206 0.85934 0.60416 0.0
H1064 H 0.80948 0.85796 0.537 0.0
H1065 H 0.85255 0.82747 0.79634 0.0
H1066 H 0.72065 0.18208 0.3441 0.0
H1067 H 0.69104 0.1569 0.31649 0.0
H1068 H 0.67187 0.21978 0.28153 0.0
H1069 H 0.70082 0.24515 0.30983 0.0
H1070 H 0.63159 0.18562 0.29051 0.0
H1071 H 0.71224 0.19021 0.2503 0.0
H1072 H 0.75585 0.18646 0.24902 0.0
H1073 H 0.73636 0.11159 0.26617 0.0
H1074 H 0.69261 0.11498 0.26791 0.0
H1075 H 0.59091 0.1448 0.16356 0.0
H1076 H 0.61099 0.16434 0.20244 0.0
H1077 H 0.62296 0.09605 0.23067 0.0
H1078 H 0.60318 0.07642 0.19151 0.0
H1079 H 0.66463 0.12938 0.22908 0.0
H1080 H 0.5829 0.12435 0.26285 0.0
H1081 H 0.53956 0.12878 0.26166 0.0
H1082 H 0.56083 0.20488 0.25496 0.0
H1083 H 0.60434 0.2009 0.25556 0.0
C1084 C 0.70983 0.19058 0.33089 0.0
C1085 C 0.71323 0.21564 0.32902 0.0
C1086 C 0.69304 0.17615 0.315 0.0
C1087 C 0.67948 0.18648 0.29675 0.0
C1088 C 0.6822 0.21146 0.29546 0.0
C1089 C 0.69895 0.22592 0.31141 0.0
C1090 C 0.66358 0.17131 0.27789 0.0
C1091 C 0.63879 0.17341 0.27696 0.0
C1092 C 0.67291 0.15499 0.26065 0.0
C1093 C 0.69919 0.15291 0.25955 0.0
C1094 C 0.71727 0.17299 0.25402 0.0
C1095 C 0.74201 0.17093 0.25317 0.0
C1096 C 0.74888 0.14882 0.25759 0.0
C1097 C 0.73101 0.12871 0.2628 0.0
C1098 C 0.70625 0.1307 0.26371 0.0
C1099 C 0.59765 0.13394 0.17818 0.0
C1100 C 0.59564 0.10913 0.17449 0.0
C1101 C 0.60891 0.14508 0.20048 0.0
C1102 C 0.61832 0.1316 0.21949 0.0
C1103 C 0.61572 0.10673 0.21624 0.0
C1104 C 0.60432 0.09554 0.19399 0.0
C1105 C 0.63267 0.14383 0.24146 0.0
C1106 C 0.65725 0.14125 0.24292 0.0
C1107 C 0.62313 0.15977 0.25901 0.0
C1108 C 0.59694 0.1623 0.25906 0.0
C1109 C 0.57836 0.14203 0.26093 0.0
C1110 C 0.55375 0.14446 0.26038 0.0
C1111 C 0.54745 0.16709 0.2582 0.0
C1112 C 0.56574 0.18735 0.25663 0.0
C1113 C 0.59039 0.18502 0.2571 0.0
H1114 H 0.52838 0.16893 0.25778 0.0
H1115 H 0.76804 0.14725 0.25692 0.0
H1116 H 0.37974 0.68261 0.33206 0.0
H1117 H 0.39558 0.6646 0.3703 0.0
H1118 H 0.39865 0.60056 0.32437 0.0
H1119 H 0.38213 0.61818 0.28659 0.0
H1120 H 0.38283 0.58759 0.37074 0.0
H1121 H 0.45098 0.64592 0.33916 0.0
H1122 H 0.47253 0.68609 0.32648 0.0
H1123 H 0.46018 0.71222 0.40508 0.0
H1124 H 0.4383 0.67221 0.4181 0.0
H1125 H 0.46754 0.53679 0.44528 0.0
H1126 H 0.44851 0.55695 0.41111 0.0
H1127 H 0.43444 0.61043 0.46807 0.0
H1128 H 0.45325 0.59023 0.50254 0.0
H1129 H 0.45437 0.62984 0.419 0.0
H1130 H 0.38839 0.57014 0.4507 0.0
H1131 H 0.36831 0.52941 0.46302 0.0
H1132 H 0.37821 0.50525 0.3831 0.0
H1133 H 0.39871 0.54579 0.37038 0.0
C1134 C 0.38381 0.66469 0.33015 0.0
C1135 C 0.37956 0.65184 0.30622 0.0
C1136 C 0.39301 0.6544 0.35202 0.0
C1137 C 0.39876 0.63122 0.35033 0.0
C1138 C 0.39436 0.61838 0.32645 0.0
C1139 C 0.38485 0.6285 0.30477 0.0
C1140 C 0.40926 0.62014 0.37323 0.0
C1141 C 0.39866 0.59682 0.381 0.0
C1142 C 0.42958 0.63218 0.38735 0.0
C1143 C 0.44276 0.65618 0.37952 0.0
C1144 C 0.45271 0.66028 0.35367 0.0
C1145 C 0.46501 0.683 0.34643 0.0
C1146 C 0.46765 0.70171 0.36494 0.0
C1147 C 0.45807 0.69772 0.39075 0.0
C1148 C 0.44574 0.67504 0.39807 0.0
C1149 C 0.46039 0.55282 0.45063 0.0
C1150 C 0.46193 0.5618 0.47676 0.0
C1151 C 0.44944 0.56432 0.43102 0.0
C1152 C 0.43991 0.58519 0.43697 0.0
C1153 C 0.44165 0.59438 0.46296 0.0
C1154 C 0.45233 0.58271 0.48269 0.0
C1155 C 0.42817 0.5973 0.41599 0.0
C1156 C 0.4385 0.62075 0.40869 0.0
C1157 C 0.40776 0.58532 0.40212 0.0
C1158 C 0.39529 0.56096 0.40965 0.0
C1159 C 0.38647 0.5561 0.4358 0.0
C1160 C 0.37498 0.53306 0.44285 0.0
C1161 C 0.37203 0.51474 0.42387 0.0
C1162 C 0.38052 0.51945 0.39779 0.0
C1163 C 0.39206 0.54247 0.39064 0.0
H1164 H 0.36313 0.49691 0.42937 0.0
H1165 H 0.47718 0.71929 0.3593 0.0
H1166 H 0.08045 0.38757 0.82067 0.0
H1167 H 0.06056 0.40902 0.85491 0.0
H1168 H 0.11978 0.46904 0.84805 0.0
H1169 H 0.13963 0.44778 0.81368 0.0
H1170 H 0.07264 0.42514 0.90261 0.0
H1171 H 0.09928 0.52075 0.8602 0.0
H1172 H 0.1079 0.54053 0.81683 0.0
H1173 H 0.06358 0.48091 0.77879 0.0
H1174 H 0.05443 0.46092 0.82195 0.0
H1175 H 0.04515 0.5065 1.00229 0.0
H1176 H 0.06532 0.48519 0.96815 0.0
H1177 H 0.01649 0.50385 0.90998 0.0
H1178 H 0.99772 0.52672 0.94386 0.0
H1179 H 0.05714 0.50721 0.88737 0.0
H1180 H 0.01179 0.44434 0.94198 0.0
H1181 H -0.00018 0.42466 0.98487 0.0
H1182 H 0.07421 0.41628 0.9961 0.0
H1183 H 0.08664 0.43609 0.95335 0.0
C1184 C 0.08928 0.40533 0.82648 0.0
C1185 C 0.1116 0.41598 0.81424 0.0
C1186 C 0.07787 0.41759 0.84611 0.0
C1187 C 0.08848 0.4408 0.854 0.0
C1188 C 0.11091 0.45137 0.84202 0.0
C1189 C 0.12224 0.43919 0.82228 0.0
C1190 C 0.07606 0.45396 0.87464 0.0
C1191 C 0.06919 0.44306 0.89923 0.0
C1192 C 0.07122 0.47726 0.8703 0.0
C1193 C 0.07639 0.48925 0.84428 0.0
C1194 C 0.09131 0.51191 0.84259 0.0
C1195 C 0.0963 0.52315 0.81804 0.0
C1196 C 0.08636 0.51195 0.79506 0.0
C1197 C 0.07134 0.48952 0.79659 0.0
C1198 C 0.06627 0.47822 0.82108 0.0
C1199 C 0.03868 0.50583 0.98222 0.0
C1200 C 0.0197 0.5179 0.97568 0.0
C1201 C 0.05013 0.49355 0.96267 0.0
C1202 C 0.04212 0.49222 0.93638 0.0
C1203 C 0.02311 0.50445 0.92999 0.0
C1204 C 0.01226 0.51742 0.94936 0.0
C1205 C 0.05361 0.47843 0.91547 0.0
C1206 C 0.06043 0.48924 0.8908 0.0
C1207 C 0.05782 0.45481 0.91953 0.0
C1208 C 0.05015 0.44179 0.94454 0.0
C1209 C 0.02557 0.43825 0.95358 0.0
C1210 C 0.01872 0.4271 0.97787 0.0
C1211 C 0.03625 0.41924 0.9932 0.0
C1212 C 0.06064 0.42234 0.98417 0.0
C1213 C 0.06759 0.43348 0.95989 0.0
H1214 H 0.03094 0.41075 1.01208 0.0
H1215 H 0.09027 0.52067 0.77608 0.0
H1216 H 0.64742 0.88485 0.86351 0.0
H1217 H 0.6213 0.91227 0.88079 0.0
H1218 H 0.58273 0.85689 0.93163 0.0
H1219 H 0.60912 0.82921 0.91457 0.0
H1220 H 0.55342 0.89182 0.90215 0.0
H1221 H 0.62026 0.88702 0.96189 0.0
H1222 H 0.6638 0.88751 0.97065 0.0
H1223 H 0.68247 0.95775 0.93732 0.0
H1224 H 0.63903 0.95747 0.92794 0.0
H1225 H 0.5013 0.9583 1.00038 0.0
H1226 H 0.52085 0.9303 0.97418 0.0
H1227 H 0.57941 0.98758 0.95137 0.0
H1228 H 0.56044 1.01555 0.97897 0.0
H1229 H 0.59817 0.95187 0.96349 0.0
H1230 H 0.53272 0.95987 0.90688 0.0
H1231 H 0.48981 0.96102 0.89645 0.0
H1232 H 0.46886 0.88786 0.92027 0.0
H1233 H 0.51161 0.88628 0.93095 0.0
C1234 C 0.63294 0.87825 0.87782 0.0
C1235 C 0.63027 0.85487 0.88769 0.0
C1236 C 0.61809 0.89397 0.88769 0.0
C1237 C 0.60015 0.88653 0.9074 0.0
C1238 C 0.59642 0.86283 0.91626 0.0
C1239 C 0.61156 0.84713 0.90666 0.0
C1240 C 0.58758 0.90439 0.92093 0.0
C1241 C 0.563 0.90484 0.91579 0.0
C1242 C 0.60045 0.92178 0.93795 0.0
C1243 C 0.62647 0.92211 0.94395 0.0
C1244 C 0.63368 0.90247 0.9562 0.0
C1245 C 0.65833 0.90272 0.96132 0.0
C1246 C 0.6759 0.92262 0.95448 0.0
C1247 C 0.66884 0.94233 0.94257 0.0
C1248 C 0.64422 0.94214 0.93736 0.0
C1249 C 0.51824 0.965 0.98958 0.0
C1250 C 0.52934 0.98913 0.99164 0.0
C1251 C 0.52933 0.94897 0.97441 0.0
C1252 C 0.55138 0.95684 0.96025 0.0
C1253 C 0.56236 0.98106 0.96203 0.0
C1254 C 0.55152 0.99704 0.97776 0.0
C1255 C 0.56367 0.93948 0.94501 0.0
C1256 C 0.58838 0.93907 0.94976 0.0
C1257 C 0.55094 0.92243 0.92729 0.0
C1258 C 0.52536 0.92302 0.91992 0.0
C1259 C 0.51895 0.94404 0.90994 0.0
C1260 C 0.49466 0.94477 0.90398 0.0
C1261 C 0.47661 0.92458 0.90785 0.0
C1262 C 0.48286 0.90351 0.91737 0.0
C1263 C 0.50713 0.90265 0.92327 0.0
H1264 H 0.4578 0.92519 0.90334 0.0
H1265 H 0.69497 0.92279 0.95846 0.0
H1266 H 0.87366 0.20355 0.39842 0.0
H1267 H 0.89569 0.17441 0.41745 0.0
H1268 H 0.87626 0.19646 0.49616 0.0
H1269 H 0.8536 0.22516 0.4774 0.0
H1270 H 0.92582 0.18825 0.48963 0.0
H1271 H 0.84249 0.14997 0.47141 0.0
H1272 H 0.8074 0.13845 0.44236 0.0
H1273 H 0.85086 0.10082 0.39076 0.0
H1274 H 0.88633 0.11244 0.41932 0.0
H1275 H 0.9405 0.0908 0.56812 0.0
H1276 H 0.92388 0.1222 0.54594 0.0
H1277 H 0.933 0.08799 0.4703 0.0
H1278 H 0.94865 0.05598 0.4926 0.0
H1279 H 0.89117 0.103 0.47255 0.0
H1280 H 0.97337 0.13752 0.49028 0.0
H1281 H 0.00979 0.14854 0.51748 0.0
H1282 H 0.97169 0.19309 0.56669 0.0
H1283 H 0.93484 0.18203 0.54005 0.0
C1284 C 0.87408 0.20224 0.41979 0.0
C1285 C 0.86162 0.21651 0.43639 0.0
C1286 C 0.88682 0.18571 0.43059 0.0
C1287 C 0.88738 0.18322 0.45816 0.0
C1288 C 0.87607 0.19823 0.47482 0.0
C1289 C 0.86319 0.21466 0.46404 0.0
C1290 C 0.89812 0.16376 0.46964 0.0
C1291 C 0.91819 0.1696 0.48612 0.0
C1292 C 0.88853 0.13949 0.46432 0.0
C1293 C 0.86712 0.13228 0.44734 0.0
C1294 C 0.84461 0.13939 0.45376 0.0
C1295 C 0.82465 0.13283 0.4374 0.0
C1296 C 0.82692 0.11897 0.41469 0.0
C1297 C 0.84914 0.11159 0.40833 0.0
C1298 C 0.86917 0.11815 0.42461 0.0
C1299 C 0.93878 0.08992 0.54678 0.0
C1300 C 0.94609 0.07119 0.53197 0.0
C1301 C 0.92948 0.10795 0.53412 0.0
C1302 C 0.92772 0.10772 0.50641 0.0
C1303 C 0.93438 0.08861 0.49169 0.0
C1304 C 0.9434 0.07041 0.50439 0.0
C1305 C 0.91881 0.12738 0.49286 0.0
C1306 C 0.89903 0.12161 0.47596 0.0
C1307 C 0.92898 0.15169 0.49746 0.0
C1308 C 0.95125 0.15879 0.51327 0.0
C1309 C 0.97269 0.14956 0.507 0.0
C1310 C 0.99342 0.1558 0.52232 0.0
C1311 C 0.99303 0.17145 0.54384 0.0
C1312 C 0.97194 0.18095 0.55003 0.0
C1313 C 0.95113 0.17471 0.53481 0.0
H1314 H 0.00909 0.17626 0.55565 0.0
H1315 H 0.81144 0.1139 0.40204 0.0
H1316 H 0.25862 0.61519 0.15243 0.0
H1317 H 0.21889 0.59834 0.1346 0.0
H1318 H 0.19432 0.66555 0.14822 0.0
H1319 H 0.23407 0.68236 0.16677 0.0
H1320 H 0.1583 0.63074 0.16005 0.0
H1321 H 0.21282 0.64709 0.08493 0.0
H1322 H 0.25012 0.64597 0.05745 0.0
H1323 H 0.23214 0.56942 0.05267 0.0
H1324 H 0.19489 0.57006 0.08044 0.0
H1325 H 0.05591 0.60136 0.07552 0.0
H1326 H 0.09491 0.62033 0.09387 0.0
H1327 H 0.12017 0.55275 0.09091 0.0
H1328 H 0.08128 0.53361 0.07256 0.0
H1329 H 0.15545 0.58949 0.07267 0.0
H1330 H 0.10076 0.57409 0.14892 0.0
H1331 H 0.06314 0.57634 0.17543 0.0
H1332 H 0.08124 0.65297 0.17645 0.0
H1333 H 0.11882 0.65119 0.14961 0.0
C1334 C 0.24479 0.62643 0.1516 0.0
C1335 C 0.24967 0.65024 0.16078 0.0
C1336 C 0.22203 0.61678 0.1413 0.0
C1337 C 0.20362 0.63077 0.13937 0.0
C1338 C 0.20817 0.65435 0.14929 0.0
C1339 C 0.23091 0.66396 0.15994 0.0
C1340 C 0.17983 0.62076 0.12686 0.0
C1341 C 0.15773 0.62206 0.14076 0.0
C1342 C 0.17884 0.60906 0.1018 0.0
C1343 C 0.20117 0.60861 0.08497 0.0
C1344 C 0.21691 0.63 0.07817 0.0
C1345 C 0.23803 0.62946 0.06252 0.0
C1346 C 0.24353 0.60763 0.05337 0.0
C1347 C 0.22787 0.58631 0.0598 0.0
C1348 C 0.20674 0.58676 0.07547 0.0
C1349 C 0.06976 0.5905 0.07864 0.0
C1350 C 0.0653 0.56587 0.07256 0.0
C1351 C 0.09206 0.60138 0.08929 0.0
C1352 C 0.11047 0.58796 0.09406 0.0
C1353 C 0.10628 0.56351 0.08749 0.0
C1354 C 0.08394 0.55257 0.07703 0.0
C1355 C 0.13406 0.5993 0.10597 0.0
C1356 C 0.15608 0.59826 0.09192 0.0
C1357 C 0.13495 0.61143 0.13073 0.0
C1358 C 0.11247 0.61251 0.14703 0.0
C1359 C 0.09662 0.59143 0.15462 0.0
C1360 C 0.07532 0.59262 0.16974 0.0
C1361 C 0.06977 0.61478 0.17756 0.0
C1362 C 0.08555 0.63581 0.17035 0.0
C1363 C 0.10686 0.63473 0.1552 0.0
H1364 H 0.05327 0.61566 0.18926 0.0
H1365 H 0.25989 0.60725 0.04126 0.0
H1366 H 0.23365 0.43019 0.63693 0.0
H1367 H 0.27036 0.44867 0.61187 0.0
H1368 H 0.31436 0.44206 0.67928 0.0
H1369 H 0.27815 0.42254 0.70411 0.0
H1370 H 0.32577 0.48801 0.65211 0.0
H1371 H 0.31393 0.40248 0.63393 0.0
H1372 H 0.28996 0.36412 0.6192 0.0
H1373 H 0.28179 0.39411 0.54299 0.0
H1374 H 0.30542 0.43278 0.55743 0.0
H1375 H 0.44611 0.5002 0.59719 0.0
H1376 H 0.40672 0.48813 0.6206 0.0
H1377 H 0.37052 0.47901 0.54576 0.0
H1378 H 0.41008 0.4902 0.5223 0.0
H1379 H 0.35304 0.44324 0.57503 0.0
H1380 H 0.36622 0.52708 0.5893 0.0
H1381 H 0.38937 0.56654 0.6017 0.0
H1382 H 0.39304 0.54282 0.68168 0.0
H1383 H 0.37021 0.50307 0.66968 0.0
C1384 C 0.25109 0.43246 0.64648 0.0
C1385 C 0.25271 0.42463 0.67267 0.0
C1386 C 0.27206 0.44326 0.63214 0.0
C1387 C 0.2951 0.44673 0.6437 0.0
C1388 C 0.29674 0.43974 0.67004 0.0
C1389 C 0.27588 0.42865 0.68427 0.0
C1390 C 0.3177 0.4563 0.62793 0.0
C1391 C 0.33189 0.47819 0.63537 0.0
C1392 C 0.32524 0.44387 0.60558 0.0
C1393 C 0.31119 0.42058 0.59686 0.0
C1394 C 0.30684 0.40095 0.61411 0.0
C1395 C 0.29335 0.37914 0.6058 0.0
C1396 C 0.2843 0.3767 0.5802 0.0
C1397 C 0.28878 0.39604 0.56283 0.0
C1398 C 0.30222 0.4179 0.57106 0.0
C1399 C 0.42971 0.49577 0.58577 0.0
C1400 C 0.43113 0.4961 0.55794 0.0
C1401 C 0.40715 0.48899 0.59916 0.0
C1402 C 0.38546 0.48291 0.58503 0.0
C1403 C 0.38691 0.48356 0.55717 0.0
C1404 C 0.40951 0.49003 0.54377 0.0
C1405 C 0.36146 0.47499 0.59924 0.0
C1406 C 0.34695 0.45333 0.59157 0.0
C1407 C 0.35341 0.48794 0.62101 0.0
C1408 C 0.36665 0.51201 0.62853 0.0
C1409 C 0.37207 0.53023 0.60951 0.0
C1410 C 0.38514 0.55265 0.61646 0.0
C1411 C 0.39274 0.55716 0.64244 0.0
C1412 C 0.38716 0.53929 0.66155 0.0
C1413 C 0.37412 0.51681 0.6547 0.0
H1414 H 0.40289 0.57452 0.64776 0.0
H1415 H 0.27386 0.3598 0.5738 0.0
H1416 H 0.78529 0.73105 0.8685 0.0
H1417 H 0.80497 0.69932 0.88526 0.0
H1418 H 0.752 0.68811 0.9503 0.0
H1419 H 0.73245 0.72042 0.93378 0.0
H1420 H 0.79783 0.69437 0.96737 0.0
H1421 H 0.75332 0.64499 0.90231 0.0
H1422 H 0.73723 0.63383 0.85807 0.0
H1423 H 0.81043 0.63774 0.82621 0.0
H1424 H 0.827 0.64927 0.87018 0.0
H1425 H 0.86255 0.60991 1.01768 0.0
H1426 H 0.828 0.62456 0.99862 0.0
H1427 H 0.87097 0.64319 0.92678 0.0
H1428 H 0.90531 0.62783 0.94556 0.0
H1429 H 0.82397 0.62794 0.91549 0.0
H1430 H 0.86805 0.68413 0.97741 0.0
H1431 H 0.88531 0.69645 1.0209 0.0
H1432 H 0.81351 0.68105 0.05756 0.0
H1433 H 0.79587 0.66831 1.01431 0.0
C1434 C 0.77765 0.72164 0.88621 0.0
C1435 C 0.7575 0.72836 0.90001 0.0
C1436 C 0.78876 0.70331 0.89562 0.0
C1437 C 0.77987 0.69119 0.91894 0.0
C1438 C 0.7591 0.69718 0.93219 0.0
C1439 C 0.74788 0.71553 0.9227 0.0
C1440 C 0.794 0.67426 0.9308 0.0
C1441 C 0.803 0.67944 0.95627 0.0
C1442 C 0.80128 0.65518 0.91607 0.0
C1443 C 0.79141 0.64813 0.88956 0.0
C1444 C 0.766 0.64364 0.88584 0.0
C1445 C 0.7568 0.63721 0.86081 0.0
C1446 C 0.7728 0.63511 0.83933 0.0
C1447 C 0.79806 0.63938 0.84286 0.0
C1448 C 0.80736 0.64582 0.86786 0.0
C1449 C 0.86445 0.61685 0.99769 0.0
C1450 C 0.88666 0.61815 0.98321 0.0
C1451 C 0.84473 0.62519 0.98681 0.0
C1452 C 0.84709 0.63549 0.96151 0.0
C1453 C 0.86876 0.6354 0.94638 0.0
C1454 C 0.88838 0.62671 0.95712 0.0
C1455 C 0.82804 0.64836 0.95179 0.0
C1456 C 0.81827 0.64252 0.92675 0.0
C1457 C 0.82016 0.66701 0.96679 0.0
C1458 C 0.83069 0.67503 0.9927 0.0
C1459 C 0.85597 0.68325 0.99478 0.0
C1460 C 0.86582 0.69031 1.01938 0.0
C1461 C 0.85052 0.68947 0.042 0.0
C1462 C 0.82534 0.68165 0.04004 0.0
C1463 C 0.8154 0.67451 1.01549 0.0
H1464 H 0.85818 0.69492 0.06103 0.0
H1465 H 0.76564 0.63014 0.81997 0.0
H1466 H 0.35398 0.8037 0.1657 0.0
H1467 H 0.36964 0.84448 0.15053 0.0
H1468 H 0.44359 0.83158 0.15613 0.0
H1469 H 0.42818 0.79141 0.17234 0.0
H1470 H 0.4416 0.8743 0.17407 0.0
H1471 H 0.41235 0.83006 0.09558 0.0
H1472 H 0.38153 0.80535 0.0681 0.0
H1473 H 0.33688 0.85994 0.07249 0.0
H1474 H 0.36732 0.88485 0.10029 0.0
H1475 H 0.51142 0.96008 0.09135 0.0
H1476 H 0.48873 0.92294 0.10975 0.0
H1477 H 0.4213 0.95027 0.10445 0.0
H1478 H 0.44414 0.98776 0.08569 0.0
H1479 H 0.41581 0.90301 0.08879 0.0
H1480 H 0.44735 0.94879 0.1639 0.0
H1481 H 0.47888 0.97356 0.19046 0.0
H1482 H 0.51961 0.91593 0.19204 0.0
H1483 H 0.4885 0.89093 0.16515 0.0
C1484 C 0.37358 0.80964 0.16406 0.0
C1485 C 0.38975 0.79401 0.17006 0.0
C1486 C 0.38254 0.83294 0.15505 0.0
C1487 C 0.40787 0.84115 0.15166 0.0
C1488 C 0.42398 0.82579 0.15836 0.0
C1489 C 0.41508 0.80262 0.16743 0.0
C1490 C 0.41788 0.86558 0.1411 0.0
C1491 C 0.43605 0.88043 0.15531 0.0
C1492 C 0.41023 0.87412 0.11699 0.0
C1493 C 0.39196 0.85918 0.10027 0.0
C1494 C 0.39587 0.83671 0.09086 0.0
C1495 C 0.37849 0.82268 0.0752 0.0
C1496 C 0.35722 0.83103 0.06863 0.0
C1497 C 0.35333 0.85347 0.07764 0.0
C1498 C 0.37064 0.86755 0.09334 0.0
C1499 C 0.49175 0.95825 0.09406 0.0
C1500 C 0.47961 0.97696 0.08723 0.0
C1501 C 0.47877 0.93697 0.10469 0.0
C1502 C 0.45329 0.93384 0.10897 0.0
C1503 C 0.44095 0.95226 0.1015 0.0
C1504 C 0.45401 0.97369 0.09083 0.0
C1505 C 0.43991 0.91135 0.12147 0.0
C1506 C 0.42113 0.89694 0.10768 0.0
C1507 C 0.44701 0.90313 0.14595 0.0
C1508 C 0.46566 0.91804 0.16235 0.0
C1509 C 0.46311 0.94145 0.16977 0.0
C1510 C 0.4809 0.95553 0.1849 0.0
C1511 C 0.50126 0.94634 0.19289 0.0
C1512 C 0.50384 0.92303 0.18582 0.0
C1513 C 0.48611 0.90889 0.17067 0.0
H1514 H 0.51502 0.95727 0.2046 0.0
H1515 H 0.34379 0.82015 0.05649 0.0
H1516 H 0.12999 0.28528 0.63634 0.0
H1517 H 0.10965 0.24816 0.61539 0.0
H1518 H 0.07209 0.22646 0.6895 0.0
H1519 H 0.0921 0.26371 0.71044 0.0
H1520 H 0.09653 0.19088 0.66348 0.0
H1521 H 0.04038 0.24403 0.6445 0.0
H1522 H 0.02868 0.2806 0.62692 0.0
H1523 H 0.05393 0.26335 0.54897 0.0
H1524 H 0.06615 0.22686 0.56617 0.0
H1525 H 0.01777 0.08792 0.61782 0.0
H1526 H 0.03496 0.12595 0.63862 0.0
H1527 H 0.0546 0.15656 0.56141 0.0
H1528 H 0.03632 0.11889 0.54055 0.0
H1529 H 0.03943 0.18827 0.58946 0.0
H1530 H 0.0973 0.13743 0.60566 0.0
H1531 H 0.11178 0.10139 0.6209 0.0
H1532 H 0.08765 0.11462 0.70051 0.0
H1533 H 0.07272 0.15057 0.68567 0.0
C1534 C 0.11728 0.27264 0.6481 0.0
C1535 C 0.11258 0.27743 0.67501 0.0
C1536 C 0.10564 0.25149 0.63611 0.0
C1537 C 0.08933 0.23455 0.65088 0.0
C1538 C 0.08459 0.23929 0.67773 0.0
C1539 C 0.0959 0.26063 0.68962 0.0
C1540 C 0.07771 0.21163 0.63847 0.0
C1541 C 0.08376 0.19022 0.64753 0.0
C1542 C 0.06176 0.21088 0.61704 0.0
C1543 C 0.05445 0.23285 0.6067 0.0
C1544 C 0.04368 0.24816 0.62367 0.0
C1545 C 0.0369 0.26885 0.61376 0.0
C1546 C 0.04063 0.27434 0.58686 0.0
C1547 C 0.05109 0.25911 0.56981 0.0
C1548 C 0.05794 0.23841 0.57963 0.0
C1549 C 0.02581 0.10274 0.60528 0.0
C1550 C 0.02583 0.10029 0.57752 0.0
C1551 C 0.03579 0.12451 0.61721 0.0
C1552 C 0.04669 0.14417 0.60171 0.0
C1553 C 0.04645 0.14177 0.57394 0.0
C1554 C 0.03603 0.12014 0.56199 0.0
C1555 C 0.05817 0.16722 0.61437 0.0
C1556 C 0.05216 0.18874 0.60538 0.0
C1557 C 0.07463 0.16812 0.63548 0.0
C1558 C 0.08367 0.14656 0.6445 0.0
C1559 C 0.09493 0.13256 0.62638 0.0
C1560 C 0.10324 0.11216 0.63495 0.0
C1561 C 0.10058 0.10569 0.66164 0.0
C1562 C 0.08967 0.11964 0.67983 0.0
C1563 C 0.08129 0.14004 0.67136 0.0
H1564 H 0.10703 0.08989 0.66824 0.0
H1565 H 0.03535 0.29035 0.57923 0.0
H1566 H 0.70274 0.274 0.48066 0.0
H1567 H 0.66802 0.28633 0.50478 0.0
H1568 H 0.70682 0.35903 0.50678 0.0
H1569 H 0.74176 0.34674 0.48322 0.0
H1570 H 0.6777 0.34747 0.55222 0.0
H1571 H 0.67136 0.33991 0.45567 0.0
H1572 H 0.66999 0.31725 0.41356 0.0
H1573 H 0.60818 0.26751 0.44354 0.0
H1574 H 0.60944 0.28974 0.48599 0.0
H1575 H 0.61033 0.43304 0.51468 0.0
H1576 H 0.63666 0.4038 0.52263 0.0
H1577 H 0.57307 0.34903 0.5348 0.0
H1578 H 0.54645 0.37856 0.52741 0.0
H1579 H 0.60712 0.34054 0.4929 0.0
H1580 H 0.60828 0.35185 0.58617 0.0
H1581 H 0.60979 0.37328 0.62909 0.0
H1582 H 0.67896 0.41542 0.60581 0.0
H1583 H 0.67807 0.39389 0.56294 0.0
C1584 C 0.70418 0.29246 0.48702 0.0
C1585 C 0.72481 0.30951 0.47976 0.0
C1586 C 0.6843 0.29947 0.5007 0.0
C1587 C 0.68476 0.32363 0.50721 0.0
C1588 C 0.70611 0.3403 0.5019 0.0
C1589 C 0.72595 0.33331 0.48822 0.0
C1590 C 0.66216 0.33235 0.5159 0.0
C1591 C 0.66215 0.34581 0.5394 0.0
C1592 C 0.64153 0.3295 0.49961 0.0
C1593 C 0.6407 0.31626 0.47408 0.0
C1594 C 0.6576 0.32403 0.45333 0.0
C1595 C 0.65683 0.31129 0.42941 0.0
C1596 C 0.63906 0.2909 0.42591 0.0
C1597 C 0.62198 0.28326 0.44631 0.0
C1598 C 0.62272 0.29591 0.4703 0.0
C1599 C 0.60195 0.41487 0.51952 0.0
C1600 C 0.5764 0.40799 0.52026 0.0
C1601 C 0.61698 0.39825 0.52435 0.0
C1602 C 0.60677 0.37435 0.52961 0.0
C1603 C 0.58123 0.3675 0.53118 0.0
C1604 C 0.56611 0.38432 0.52689 0.0
C1605 C 0.62304 0.35637 0.52872 0.0
C1606 C 0.62207 0.34133 0.50642 0.0
C1607 C 0.64266 0.3577 0.54612 0.0
C1608 C 0.64305 0.37134 0.57136 0.0
C1609 C 0.62377 0.36574 0.59019 0.0
C1610 C 0.62461 0.37776 0.61458 0.0
C1611 C 0.64447 0.39568 0.62018 0.0
C1612 C 0.66361 0.4015 0.60147 0.0
C1613 C 0.66303 0.38929 0.57719 0.0
H1614 H 0.64496 0.40512 0.63898 0.0
H1615 H 0.63849 0.28106 0.40737 0.0
loop_
_geom_bond_atom_site_label_1
_geom_bond_atom_site_label_2
_geom_bond_distance
_geom_bond_site_symmetry_2
_ccdc_geom_bond_type
P0 O11 1.490 . S
P0 C14 1.812 . S
P0 C20 1.803 . S
P0 C26 1.819 . S
H1 C15 0.941 . S
H2 C16 0.939 . S
H3 C18 0.940 . S
H4 C19 0.940 . S
H5 C21 0.939 . S
H6 C22 0.942 . S
H7 C24 0.940 . S
H8 C25 0.939 . S
H9 C27 0.941 . S
H10 C31 0.939 . S
O11 P0 1.490 . S
H12 C28 0.939 . S
H13 C30 0.940 . S
C14 P0 1.812 . S
C14 C15 1.389 . S
C14 C19 1.391 . S
C15 H1 0.941 . S
C15 C14 1.389 . S
C15 C16 1.397 . S
C16 H2 0.939 . S
C16 C15 1.397 . S
C16 C17 1.378 . S
C17 C16 1.378 . S
C17 C18 1.378 . S
C18 H3 0.940 . S
C18 C17 1.378 . S
C18 C19 1.396 . S
C19 H4 0.940 . S
C19 C14 1.391 . S
C19 C18 1.396 . S
C20 P0 1.803 . S
C20 C21 1.378 . S
C20 C25 1.400 . S
C21 H5 0.939 . S
C21 C20 1.378 . S
C21 C22 1.361 . S
C22 H6 0.942 . S
C22 C21 1.361 . S
C22 C23 1.369 . S
C23 C22 1.369 . S
C23 C24 1.404 . S
C24 H7 0.940 . S
C24 C23 1.404 . S
C24 C25 1.389 . S
C25 H8 0.939 . S
C25 C20 1.400 . S
C25 C24 1.389 . S
C26 P0 1.819 . S
C26 C27 1.391 . S
C26 C31 1.391 . S
C27 H9 0.941 . S
C27 C26 1.391 . S
C27 C28 1.396 . S
C28 H12 0.939 . S
C28 C27 1.396 . S
C28 C29 1.397 . S
C29 C28 1.397 . S
C29 C30 1.385 . S
C30 H13 0.940 . S
C30 C29 1.385 . S
C30 C31 1.388 . S
C31 H10 0.939 . S
C31 C26 1.391 . S
C31 C30 1.388 . S
P32 O43 1.490 . S
P32 C46 1.812 . S
P32 C52 1.803 . S
P32 C58 1.819 . S
H33 C47 0.941 . S
H34 C48 0.939 . S
H35 C50 0.940 . S
H36 C51 0.940 . S
H37 C53 0.939 . S
H38 C54 0.942 . S
H39 C56 0.940 . S
H40 C57 0.939 . S
H41 C59 0.941 . S
H42 C63 0.939 . S
O43 P32 1.490 . S
H44 C60 0.939 . S
H45 C62 0.940 . S
C46 P32 1.812 . S
C46 C47 1.389 . S
C46 C51 1.391 . S
C47 H33 0.941 . S
C47 C46 1.389 . S
C47 C48 1.397 . S
C48 H34 0.939 . S
C48 C47 1.397 . S
C48 C49 1.378 . S
C49 C48 1.378 . S
C49 C50 1.378 . S
C50 H35 0.940 . S
C50 C49 1.378 . S
C50 C51 1.396 . S
C51 H36 0.940 . S
C51 C46 1.391 . S
C51 C50 1.396 . S
C52 P32 1.803 . S
C52 C53 1.378 . S
C52 C57 1.400 . S
C53 H37 0.939 . S
C53 C52 1.378 . S
C53 C54 1.361 . S
C54 H38 0.942 . S
C54 C53 1.361 . S
C54 C55 1.369 . S
C55 C54 1.369 . S
C55 C56 1.404 . S
C56 H39 0.940 . S
C56 C55 1.404 . S
C56 C57 1.389 . S
C57 H40 0.939 . S
C57 C52 1.400 . S
C57 C56 1.389 . S
C58 P32 1.819 . S
C58 C59 1.391 . S
C58 C63 1.391 . S
C59 H41 0.941 . S
C59 C58 1.391 . S
C59 C60 1.396 . S
C60 H44 0.939 . S
C60 C59 1.396 . S
C60 C61 1.397 . S
C61 C60 1.397 . S
C61 C62 1.385 . S
C62 H45 0.940 . S
C62 C61 1.385 . S
C62 C63 1.388 . S
C63 H42 0.939 . S
C63 C58 1.391 . S
C63 C62 1.388 . S
P64 O75 1.490 . S
P64 C78 1.812 . S
P64 C84 1.803 . S
P64 C90 1.819 . S
H65 C79 0.941 . S
H66 C80 0.939 . S
H67 C82 0.940 . S
H68 C83 0.940 . S
H69 C85 0.939 . S
H70 C86 0.942 . S
H71 C88 0.940 . S
H72 C89 0.939 . S
H73 C91 0.941 . S
H74 C95 0.939 . S
O75 P64 1.490 . S
H76 C92 0.939 . S
H77 C94 0.940 . S
C78 P64 1.812 . S
C78 C79 1.389 . S
C78 C83 1.391 . S
C79 H65 0.941 . S
C79 C78 1.389 . S
C79 C80 1.397 . S
C80 H66 0.939 . S
C80 C79 1.397 . S
C80 C81 1.378 . S
C81 C80 1.378 . S
C81 C82 1.378 . S
C82 H67 0.940 . S
C82 C81 1.378 . S
C82 C83 1.396 . S
C83 H68 0.940 . S
C83 C78 1.391 . S
C83 C82 1.396 . S
C84 P64 1.803 . S
C84 C85 1.378 . S
C84 C89 1.400 . S
C85 H69 0.939 . S
C85 C84 1.378 . S
C85 C86 1.361 . S
C86 H70 0.942 . S
C86 C85 1.361 . S
C86 C87 1.369 . S
C87 C86 1.369 . S
C87 C88 1.404 . S
C88 H71 0.940 . S
C88 C87 1.404 . S
C88 C89 1.389 . S
C89 H72 0.939 . S
C89 C84 1.400 . S
C89 C88 1.389 . S
C90 P64 1.819 . S
C90 C91 1.391 . S
C90 C95 1.391 . S
C91 H73 0.941 . S
C91 C90 1.391 . S
C91 C92 1.396 . S
C92 H76 0.939 . S
C92 C91 1.396 . S
C92 C93 1.397 . S
C93 C92 1.397 . S
C93 C94 1.385 . S
C94 H77 0.940 . S
C94 C93 1.385 . S
C94 C95 1.388 . S
C95 H74 0.939 . S
C95 C90 1.391 . S
C95 C94 1.388 . S
P96 O107 1.490 . S
P96 C110 1.812 . S
P96 C116 1.803 . S
P96 C122 1.819 . S
H97 C111 0.941 . S
H98 C112 0.939 . S
H99 C114 0.940 . S
H100 C115 0.940 . S
H101 C117 0.939 . S
H102 C118 0.942 . S
H103 C120 0.940 . S
H104 C121 0.939 . S
H105 C123 0.941 . S
H106 C127 0.939 . S
O107 P96 1.490 . S
H108 C124 0.939 . S
H109 C126 0.940 . S
C110 P96 1.812 . S
C110 C111 1.389 . S
C110 C115 1.391 . S
C111 H97 0.941 . S
C111 C110 1.389 . S
C111 C112 1.397 . S
C112 H98 0.939 . S
C112 C111 1.397 . S
C112 C113 1.378 . S
C113 C112 1.378 . S
C113 C114 1.378 . S
C114 H99 0.940 . S
C114 C113 1.378 . S
C114 C115 1.396 . S
C115 H100 0.940 . S
C115 C110 1.391 . S
C115 C114 1.396 . S
C116 P96 1.803 . S
C116 C117 1.378 . S
C116 C121 1.400 . S
C117 H101 0.939 . S
C117 C116 1.378 . S
C117 C118 1.361 . S
C118 H102 0.942 . S
C118 C117 1.361 . S
C118 C119 1.369 . S
C119 C118 1.369 . S
C119 C120 1.404 . S
C120 H103 0.940 . S
C120 C119 1.404 . S
C120 C121 1.389 . S
C121 H104 0.939 . S
C121 C116 1.400 . S
C121 C120 1.389 . S
C122 P96 1.819 . S
C122 C123 1.391 . S
C122 C127 1.391 . S
C123 H105 0.941 . S
C123 C122 1.391 . S
C123 C124 1.396 . S
C124 H108 0.939 . S
C124 C123 1.396 . S
C124 C125 1.397 . S
C125 C124 1.397 . S
C125 C126 1.385 . S
C126 H109 0.940 . S
C126 C125 1.385 . S
C126 C127 1.388 . S
C127 H106 0.939 . S
C127 C122 1.391 . S
C127 C126 1.388 . S
P128 O139 1.490 . S
P128 C142 1.812 . S
P128 C148 1.803 . S
P128 C154 1.819 . S
H129 C143 0.941 . S
H130 C144 0.939 . S
H131 C146 0.940 . S
H132 C147 0.940 . S
H133 C149 0.939 . S
H134 C150 0.942 . S
H135 C152 0.940 . S
H136 C153 0.939 . S
H137 C155 0.941 . S
H138 C159 0.939 . S
O139 P128 1.490 . S
H140 C156 0.939 . S
H141 C158 0.940 . S
C142 P128 1.812 . S
C142 C143 1.389 . S
C142 C147 1.391 . S
C143 H129 0.941 . S
C143 C142 1.389 . S
C143 C144 1.397 . S
C144 H130 0.939 . S
C144 C143 1.397 . S
C144 C145 1.378 . S
C145 C144 1.378 . S
C145 C146 1.378 . S
C146 H131 0.940 . S
C146 C145 1.378 . S
C146 C147 1.396 . S
C147 H132 0.940 . S
C147 C142 1.391 . S
C147 C146 1.396 . S
C148 P128 1.803 . S
C148 C149 1.378 . S
C148 C153 1.400 . S
C149 H133 0.939 . S
C149 C148 1.378 . S
C149 C150 1.361 . S
C150 H134 0.942 . S
C150 C149 1.361 . S
C150 C151 1.369 . S
C151 C150 1.369 . S
C151 C152 1.404 . S
C152 H135 0.940 . S
C152 C151 1.404 . S
C152 C153 1.389 . S
C153 H136 0.939 . S
C153 C148 1.400 . S
C153 C152 1.389 . S
C154 P128 1.819 . S
C154 C155 1.391 . S
C154 C159 1.391 . S
C155 H137 0.941 . S
C155 C154 1.391 . S
C155 C156 1.396 . S
C156 H140 0.939 . S
C156 C155 1.396 . S
C156 C157 1.397 . S
C157 C156 1.397 . S
C157 C158 1.385 . S
C158 H141 0.940 . S
C158 C157 1.385 . S
C158 C159 1.388 . S
C159 H138 0.939 . S
C159 C154 1.391 . S
C159 C158 1.388 . S
P160 O171 1.490 . S
P160 C174 1.812 . S
P160 C180 1.803 . S
P160 C186 1.819 . S
H161 C175 0.941 . S
H162 C176 0.939 . S
H163 C178 0.940 . S
H164 C179 0.940 . S
H165 C181 0.939 . S
H166 C182 0.942 . S
H167 C184 0.940 . S
H168 C185 0.939 . S
H169 C187 0.941 . S
H170 C191 0.939 . S
O171 P160 1.490 . S
H172 C188 0.939 . S
H173 C190 0.940 . S
C174 P160 1.812 . S
C174 C175 1.389 . S
C174 C179 1.391 . S
C175 H161 0.941 . S
C175 C174 1.389 . S
C175 C176 1.397 . S
C176 H162 0.939 . S
C176 C175 1.397 . S
C176 C177 1.378 . S
C177 C176 1.378 . S
C177 C178 1.378 . S
C178 H163 0.940 . S
C178 C177 1.378 . S
C178 C179 1.396 . S
C179 H164 0.940 . S
C179 C174 1.391 . S
C179 C178 1.396 . S
C180 P160 1.803 . S
C180 C181 1.378 . S
C180 C185 1.400 . S
C181 H165 0.939 . S
C181 C180 1.378 . S
C181 C182 1.361 . S
C182 H166 0.942 . S
C182 C181 1.361 . S
C182 C183 1.369 . S
C183 C182 1.369 . S
C183 C184 1.404 . S
C184 H167 0.940 . S
C184 C183 1.404 . S
C184 C185 1.389 . S
C185 H168 0.939 . S
C185 C180 1.400 . S
C185 C184 1.389 . S
C186 P160 1.819 . S
C186 C187 1.391 . S
C186 C191 1.391 . S
C187 H169 0.941 . S
C187 C186 1.391 . S
C187 C188 1.396 . S
C188 H172 0.939 . S
C188 C187 1.396 . S
C188 C189 1.397 . S
C189 C188 1.397 . S
C189 C190 1.385 . S
C190 H173 0.940 . S
C190 C189 1.385 . S
C190 C191 1.388 . S
C191 H170 0.939 . S
C191 C186 1.391 . S
C191 C190 1.388 . S
P192 O203 1.490 . S
P192 C206 1.812 . S
P192 C212 1.803 . S
P192 C218 1.819 . S
H193 C207 0.941 . S
H194 C208 0.939 . S
H195 C210 0.940 . S
H196 C211 0.940 . S
H197 C213 0.939 . S
H198 C214 0.942 . S
H199 C216 0.940 . S
H200 C217 0.939 . S
H201 C219 0.941 . S
H202 C223 0.939 . S
O203 P192 1.490 . S
H204 C220 0.939 . S
H205 C222 0.940 . S
C206 P192 1.812 . S
C206 C207 1.389 . S
C206 C211 1.391 . S
C207 H193 0.941 . S
C207 C206 1.389 . S
C207 C208 1.397 . S
C208 H194 0.939 . S
C208 C207 1.397 . S
C208 C209 1.378 . S
C209 C208 1.378 . S
C209 C210 1.378 . S
C210 H195 0.940 . S
C210 C209 1.378 . S
C210 C211 1.396 . S
C211 H196 0.940 . S
C211 C206 1.391 . S
C211 C210 1.396 . S
C212 P192 1.803 . S
C212 C213 1.378 . S
C212 C217 1.400 . S
C213 H197 0.939 . S
C213 C212 1.378 . S
C213 C214 1.361 . S
C214 H198 0.942 . S
C214 C213 1.361 . S
C214 C215 1.369 . S
C215 C214 1.369 . S
C215 C216 1.404 . S
C216 H199 0.940 . S
C216 C215 1.404 . S
C216 C217 1.389 . S
C217 H200 0.939 . S
C217 C212 1.400 . S
C217 C216 1.389 . S
C218 P192 1.819 . S
C218 C219 1.391 . S
C218 C223 1.391 . S
C219 H201 0.941 . S
C219 C218 1.391 . S
C219 C220 1.396 . S
C220 H204 0.939 . S
C220 C219 1.396 . S
C220 C221 1.397 . S
C221 C220 1.397 . S
C221 C222 1.385 . S
C222 H205 0.940 . S
C222 C221 1.385 . S
C222 C223 1.388 . S
C223 H202 0.939 . S
C223 C218 1.391 . S
C223 C222 1.388 . S
P224 O235 1.490 . S
P224 C238 1.812 . S
P224 C244 1.803 . S
P224 C250 1.819 . S
H225 C239 0.941 . S
H226 C240 0.939 . S
H227 C242 0.940 . S
H228 C243 0.940 . S
H229 C245 0.939 . S
H230 C246 0.942 . S
H231 C248 0.940 . S
H232 C249 0.939 . S
H233 C251 0.941 . S
H234 C255 0.939 . S
O235 P224 1.490 . S
H236 C252 0.939 . S
H237 C254 0.940 . S
C238 P224 1.812 . S
C238 C239 1.389 . S
C238 C243 1.391 . S
C239 H225 0.941 . S
C239 C238 1.389 . S
C239 C240 1.397 . S
C240 H226 0.939 . S
C240 C239 1.397 . S
C240 C241 1.378 . S
C241 C240 1.378 . S
C241 C242 1.378 . S
C242 H227 0.940 . S
C242 C241 1.378 . S
C242 C243 1.396 . S
C243 H228 0.940 . S
C243 C238 1.391 . S
C243 C242 1.396 . S
C244 P224 1.803 . S
C244 C245 1.378 . S
C244 C249 1.400 . S
C245 H229 0.939 . S
C245 C244 1.378 . S
C245 C246 1.361 . S
C246 H230 0.942 . S
C246 C245 1.361 . S
C246 C247 1.369 . S
C247 C246 1.369 . S
C247 C248 1.404 . S
C248 H231 0.940 . S
C248 C247 1.404 . S
C248 C249 1.389 . S
C249 H232 0.939 . S
C249 C244 1.400 . S
C249 C248 1.389 . S
C250 P224 1.819 . S
C250 C251 1.391 . S
C250 C255 1.391 . S
C251 H233 0.941 . S
C251 C250 1.391 . S
C251 C252 1.396 . S
C252 H236 0.939 . S
C252 C251 1.396 . S
C252 C253 1.397 . S
C253 C252 1.397 . S
C253 C254 1.385 . S
C254 H237 0.940 . S
C254 C253 1.385 . S
C254 C255 1.388 . S
C255 H234 0.939 . S
C255 C250 1.391 . S
C255 C254 1.388 . S
Gd256 C259 2.818 . S
Gd256 O276 2.377 . S
Gd256 O278 2.448 . S
Gd256 O279 2.506 . S
Gd256 O280 2.435 1_545 S
Gd256 O281 2.717 1_545 S
Gd256 O283 2.395 1_445 S
Gd256 O287 2.327 1_455 S
Gd257 C268 2.814 . S
Gd257 O277 2.400 1_665 S
Gd257 O281 2.325 1_655 S
Gd257 O282 2.373 . S
Gd257 O284 2.446 . S
Gd257 O285 2.501 . S
Gd257 O286 2.439 1_565 S
Gd257 O287 2.720 1_565 S
C258 O276 1.240 . S
C258 O277 1.240 . S
C259 Gd256 2.818 . S
C259 C260 1.510 . S
C259 O278 1.249 . S
C259 O279 1.252 . S
C260 C259 1.510 . S
C260 C261 1.404 . S
C260 C262 1.352 . S
C261 C260 1.404 . S
C261 C265 1.389 . S
C261 H288 0.930 . S
C262 C260 1.352 . S
C262 C264 1.374 . S
C262 H289 0.931 . S
C263 C264 1.359 . S
C263 C265 1.364 . S
C264 C262 1.374 . S
C264 C263 1.359 . S
C264 H290 0.931 . S
C265 C261 1.389 . S
C265 C263 1.364 . S
C265 H291 0.931 . S
C266 O280 1.256 . S
C266 O281 1.257 . S
C267 O282 1.240 . S
C267 O283 1.240 . S
C268 Gd257 2.814 . S
C268 C269 1.510 . S
C268 O284 1.249 . S
C268 O285 1.252 . S
C269 C268 1.510 . S
C269 C270 1.404 . S
C269 C271 1.352 . S
C270 C269 1.404 . S
C270 C274 1.389 . S
C270 H292 0.930 . S
C271 C269 1.352 . S
C271 C273 1.374 . S
C271 H293 0.931 . S
C272 C273 1.359 . S
C272 C274 1.364 . S
C273 C271 1.374 . S
C273 C272 1.359 . S
C273 H294 0.931 . S
C274 C270 1.389 . S
C274 C272 1.364 . S
C274 H295 0.931 . S
C275 O286 1.256 . S
C275 O287 1.257 . S
O276 Gd256 2.377 . S
O276 C258 1.240 . S
O277 Gd257 2.400 1_445 S
O277 C258 1.240 . S
O278 Gd256 2.448 . S
O278 C259 1.249 . S
O279 Gd256 2.506 . S
O279 C259 1.252 . S
O280 Gd256 2.435 1_565 S
O280 C266 1.256 . S
O281 Gd256 2.717 1_565 S
O281 Gd257 2.325 1_455 S
O281 C266 1.257 . S
O282 Gd257 2.373 . S
O282 C267 1.240 . S
O283 Gd256 2.395 1_665 S
O283 C267 1.240 . S
O284 Gd257 2.446 . S
O284 C268 1.249 . S
O285 Gd257 2.501 . S
O285 C268 1.252 . S
O286 Gd257 2.439 1_545 S
O286 C275 1.256 . S
O287 Gd256 2.327 1_655 S
O287 Gd257 2.720 1_545 S
O287 C275 1.257 . S
H288 C261 0.930 . S
H289 C262 0.931 . S
H290 C264 0.931 . S
H291 C265 0.931 . S
H292 C270 0.930 . S
H293 C271 0.931 . S
H294 C273 0.931 . S
H295 C274 0.931 . S
Gd296 C299 2.818 . S
Gd296 O316 2.377 . S
Gd296 O318 2.448 . S
Gd296 O319 2.506 . S
Gd296 O320 2.435 1_545 S
Gd296 O321 2.717 1_545 S
Gd296 O323 2.395 1_544 S
Gd296 O327 2.327 1_554 S
Gd297 C308 2.818 1_545 S
Gd297 O317 2.395 1_556 S
Gd297 O321 2.327 1_546 S
Gd297 O322 2.377 1_545 S
Gd297 O324 2.452 . S
Gd297 O325 2.506 1_545 S
Gd297 O326 2.435 . S
Gd297 O327 2.717 . S
C298 O316 1.240 . S
C298 O317 1.240 . S
C299 Gd296 2.818 . S
C299 C300 1.510 . S
C299 O318 1.249 . S
C299 O319 1.252 . S
C300 C299 1.510 . S
C300 C301 1.404 . S
C300 C302 1.352 . S
C301 C300 1.404 . S
C301 C305 1.389 . S
C301 H328 0.930 . S
C302 C300 1.352 . S
C302 C304 1.374 . S
C302 H329 0.931 . S
C303 C304 1.359 . S
C303 C305 1.364 . S
C304 C302 1.374 . S
C304 C303 1.359 . S
C304 H330 0.931 . S
C305 C301 1.389 . S
C305 C303 1.364 . S
C305 H331 0.931 . S
C306 O320 1.256 . S
C306 O321 1.257 . S
C307 O322 1.240 . S
C307 O323 1.240 . S
C308 Gd297 2.818 1_565 S
C308 C309 1.510 . S
C308 O324 1.209 1_565 S
C308 O325 1.252 . S
C309 C308 1.510 . S
C309 C310 1.404 . S
C309 C311 1.352 . S
C310 C309 1.404 . S
C310 C314 1.389 . S
C310 H332 0.930 . S
C311 C309 1.352 . S
C311 C313 1.374 . S
C311 H333 0.931 . S
C312 C313 1.359 . S
C312 C314 1.364 . S
C313 C311 1.374 . S
C313 C312 1.359 . S
C313 H334 0.931 . S
C314 C310 1.389 . S
C314 C312 1.364 . S
C314 H335 0.931 . S
C315 O326 1.256 . S
C315 O327 1.257 . S
O316 Gd296 2.377 . S
O316 C298 1.240 . S
O317 Gd297 2.395 1_554 S
O317 C298 1.240 . S
O318 Gd296 2.448 . S
O318 C299 1.249 . S
O319 Gd296 2.506 . S
O319 C299 1.252 . S
O320 Gd296 2.435 1_565 S
O320 C306 1.256 . S
O321 Gd296 2.717 1_565 S
O321 Gd297 2.327 1_564 S
O321 C306 1.257 . S
O322 Gd297 2.377 1_565 S
O322 C307 1.240 . S
O323 Gd296 2.395 1_566 S
O323 C307 1.240 . S
O324 Gd297 2.452 . S
O324 C308 1.209 1_545 S
O325 Gd297 2.506 1_565 S
O325 C308 1.252 . S
O326 Gd297 2.435 . S
O326 C315 1.256 . S
O327 Gd296 2.327 1_556 S
O327 Gd297 2.717 . S
O327 C315 1.257 . S
H328 C301 0.930 . S
H329 C302 0.931 . S
H330 C304 0.931 . S
H331 C305 0.931 . S
H332 C310 0.930 . S
H333 C311 0.931 . S
H334 C313 0.931 . S
H335 C314 0.931 . S
Gd336 C339 2.818 . S
Gd336 O356 2.377 . S
Gd336 O358 2.448 . S
Gd336 O359 2.506 . S
Gd336 O360 2.435 . S
Gd336 O361 2.717 . S
Gd336 O363 2.395 . S
Gd336 O367 2.327 . S
Gd337 C348 2.818 . S
Gd337 O357 2.395 . S
Gd337 O361 2.327 . S
Gd337 O362 2.377 . S
Gd337 O364 2.448 . S
Gd337 O365 2.506 . S
Gd337 O366 2.435 . S
Gd337 O367 2.717 . S
C338 O356 1.240 . S
C338 O357 1.240 . S
C339 Gd336 2.818 . S
C339 C340 1.510 . S
C339 O358 1.249 . S
C339 O359 1.252 . S
C340 C339 1.510 . S
C340 C341 1.404 . S
C340 C342 1.352 . S
C341 C340 1.404 . S
C341 C345 1.389 . S
C341 H368 0.930 . S
C342 C340 1.352 . S
C342 C344 1.374 . S
C342 H369 0.931 . S
C343 C344 1.359 . S
C343 C345 1.364 . S
C344 C342 1.374 . S
C344 C343 1.359 . S
C344 H370 0.931 . S
C345 C341 1.389 . S
C345 C343 1.364 . S
C345 H371 0.931 . S
C346 O360 1.256 . S
C346 O361 1.257 . S
C347 O362 1.240 . S
C347 O363 1.240 . S
C348 Gd337 2.818 . S
C348 C349 1.510 . S
C348 O364 1.249 . S
C348 O365 1.252 . S
C349 C348 1.510 . S
C349 C350 1.404 . S
C349 C351 1.352 . S
C350 C349 1.404 . S
C350 C354 1.389 . S
C350 H372 0.930 . S
C351 C349 1.352 . S
C351 C353 1.374 . S
C351 H373 0.931 . S
C352 C353 1.359 . S
C352 C354 1.364 . S
C353 C351 1.374 . S
C353 C352 1.359 . S
C353 H374 0.931 . S
C354 C350 1.389 . S
C354 C352 1.364 . S
C354 H375 0.931 . S
C355 O366 1.256 . S
C355 O367 1.257 . S
O356 Gd336 2.377 . S
O356 C338 1.240 . S
O357 Gd337 2.395 . S
O357 C338 1.240 . S
O358 Gd336 2.448 . S
O358 C339 1.249 . S
O359 Gd336 2.506 . S
O359 C339 1.252 . S
O360 Gd336 2.435 . S
O360 C346 1.256 . S
O361 Gd336 2.717 . S
O361 Gd337 2.327 . S
O361 C346 1.257 . S
O362 Gd337 2.377 . S
O362 C347 1.240 . S
O363 Gd336 2.395 . S
O363 C347 1.240 . S
O364 Gd337 2.448 . S
O364 C348 1.249 . S
O365 Gd337 2.506 . S
O365 C348 1.252 . S
O366 Gd337 2.435 . S
O366 C355 1.256 . S
O367 Gd336 2.327 . S
O367 Gd337 2.717 . S
O367 C355 1.257 . S
H368 C341 0.930 . S
H369 C342 0.931 . S
H370 C344 0.931 . S
H371 C345 0.931 . S
H372 C350 0.930 . S
H373 C351 0.931 . S
H374 C353 0.931 . S
H375 C354 0.931 . S
Gd376 C379 2.818 . S
Gd376 O396 2.377 . S
Gd376 O398 2.448 . S
Gd376 O399 2.506 . S
Gd376 O400 2.435 1_455 S
Gd376 O401 2.717 1_455 S
Gd376 O403 2.405 1_455 S
Gd376 O407 2.327 1_554 S
Gd377 C388 2.818 . S
Gd377 O397 2.395 1_656 S
Gd377 O401 2.327 1_556 S
Gd377 O402 2.377 . S
Gd377 O404 2.448 . S
Gd377 O405 2.506 . S
Gd377 O406 2.435 1_655 S
Gd377 O407 2.717 1_655 S
C378 O396 1.240 . S
C378 O397 1.240 . S
C379 Gd376 2.818 . S
C379 C380 1.510 . S
C379 O398 1.249 . S
C379 O399 1.252 . S
C380 C379 1.510 . S
C380 C381 1.404 . S
C380 C382 1.352 . S
C381 C380 1.404 . S
C381 C385 1.389 . S
C381 H408 0.930 . S
C382 C380 1.352 . S
C382 C384 1.374 . S
C382 H409 0.931 . S
C383 C384 1.359 . S
C383 C385 1.364 . S
C384 C382 1.374 . S
C384 C383 1.359 . S
C384 H410 0.931 . S
C385 C381 1.389 . S
C385 C383 1.364 . S
C385 H411 0.931 . S
C386 O400 1.256 . S
C386 O401 1.257 . S
C387 O402 1.240 . S
C387 O403 1.226 1_556 S
C388 Gd377 2.818 . S
C388 C389 1.510 . S
C388 O404 1.249 . S
C388 O405 1.252 . S
C389 C388 1.510 . S
C389 C390 1.404 . S
C389 C391 1.352 . S
C390 C389 1.404 . S
C390 C394 1.389 . S
C390 H412 0.930 . S
C391 C389 1.352 . S
C391 C393 1.374 . S
C391 H413 0.931 . S
C392 C393 1.359 . S
C392 C394 1.364 . S
C393 C391 1.374 . S
C393 C392 1.359 . S
C393 H414 0.931 . S
C394 C390 1.389 . S
C394 C392 1.364 . S
C394 H415 0.931 . S
C395 O406 1.256 . S
C395 O407 1.257 . S
O396 Gd376 2.377 . S
O396 C378 1.240 . S
O397 Gd377 2.395 1_454 S
O397 C378 1.240 . S
O398 Gd376 2.448 . S
O398 C379 1.249 . S
O399 Gd376 2.506 . S
O399 C379 1.252 . S
O400 Gd376 2.435 1_655 S
O400 C386 1.256 . S
O401 Gd376 2.717 1_655 S
O401 Gd377 2.327 1_554 S
O401 C386 1.257 . S
O402 Gd377 2.377 . S
O402 C387 1.240 . S
O403 Gd376 2.405 1_655 S
O403 C387 1.226 1_554 S
O404 Gd377 2.448 . S
O404 C388 1.249 . S
O405 Gd377 2.506 . S
O405 C388 1.252 . S
O406 Gd377 2.435 1_455 S
O406 C395 1.256 . S
O407 Gd376 2.327 1_556 S
O407 Gd377 2.717 1_455 S
O407 C395 1.257 . S
H408 C381 0.930 . S
H409 C382 0.931 . S
H410 C384 0.931 . S
H411 C385 0.931 . S
H412 C390 0.930 . S
H413 C391 0.931 . S
H414 C393 0.931 . S
H415 C394 0.931 . S
H416 C434 0.951 . S
H417 C436 0.951 . S
H418 C438 0.950 . S
H419 C439 0.950 . S
H420 C441 0.950 . S
H421 C444 0.950 . S
H422 C445 0.950 . S
H423 C447 0.950 . S
H424 C448 0.950 . S
H425 C449 0.951 . S
H426 C451 0.951 . S
H427 C453 0.950 . S
H428 C454 0.950 . S
H429 C456 0.950 . S
H430 C459 0.950 . S
H431 C460 0.950 . S
H432 C462 0.950 . S
H433 C463 0.950 . S
C434 H416 0.951 . S
C434 C435 1.366 . S
C434 C436 1.388 . S
C435 C434 1.366 . S
C435 C439 1.385 . S
C436 H417 0.951 . S
C436 C434 1.388 . S
C436 C437 1.366 . S
C437 C436 1.366 . S
C437 C438 1.414 . S
C437 C440 1.499 . S
C438 H418 0.950 . S
C438 C437 1.414 . S
C438 C439 1.374 . S
C439 H419 0.950 . S
C439 C435 1.385 . S
C439 C438 1.374 . S
C440 C437 1.499 . S
C440 C441 1.373 . S
C440 C442 1.389 . S
C441 H420 0.950 . S
C441 C440 1.373 . S
C441 C457 1.377 . S
C442 C440 1.389 . S
C442 C443 1.524 . S
C442 C456 1.377 . S
C443 C442 1.524 . S
C443 C444 1.397 . S
C443 C448 1.363 . S
C444 H421 0.950 . S
C444 C443 1.397 . S
C444 C445 1.334 . S
C445 H422 0.950 . S
C445 C444 1.334 . S
C445 C446 1.287 . S
C446 C445 1.287 . S
C446 C447 1.524 . S
C446 H465 0.913 . S
C447 H423 0.950 . S
C447 C446 1.524 . S
C447 C448 1.415 . S
C448 H424 0.950 . S
C448 C443 1.363 . S
C448 C447 1.415 . S
C449 H425 0.951 . S
C449 C450 1.366 . S
C449 C451 1.388 . S
C450 C449 1.366 . S
C450 C454 1.385 . S
C451 H426 0.951 . S
C451 C449 1.388 . S
C451 C452 1.366 . S
C452 C451 1.366 . S
C452 C453 1.414 . S
C452 C455 1.499 . S
C453 H427 0.950 . S
C453 C452 1.414 . S
C453 C454 1.374 . S
C454 H428 0.950 . S
C454 C450 1.385 . S
C454 C453 1.374 . S
C455 C452 1.499 . S
C455 C456 1.373 . S
C455 C457 1.389 . S
C456 H429 0.950 . S
C456 C442 1.377 . S
C456 C455 1.373 . S
C457 C441 1.377 . S
C457 C455 1.389 . S
C457 C458 1.524 . S
C458 C457 1.524 . S
C458 C459 1.397 . S
C458 C463 1.363 . S
C459 H430 0.950 . S
C459 C458 1.397 . S
C459 C460 1.334 . S
C460 H431 0.950 . S
C460 C459 1.334 . S
C460 C461 1.287 . S
C461 C460 1.287 . S
C461 C462 1.524 . S
C461 H464 0.999 . S
C462 H432 0.950 . S
C462 C461 1.524 . S
C462 C463 1.415 . S
C463 H433 0.950 . S
C463 C458 1.363 . S
C463 C462 1.415 . S
H464 C461 0.999 . S
H465 C446 0.913 . S
H466 C484 0.951 . S
H467 C486 0.951 . S
H468 C488 0.950 . S
H469 C489 0.950 . S
H470 C491 0.950 . S
H471 C494 0.950 . S
H472 C495 0.950 . S
H473 C497 0.950 . S
H474 C498 0.950 . S
H475 C499 0.951 . S
H476 C501 0.951 . S
H477 C503 0.950 . S
H478 C504 0.950 . S
H479 C506 0.950 . S
H480 C509 0.950 . S
H481 C510 0.950 . S
H482 C512 0.950 . S
H483 C513 0.950 . S
C484 H466 0.951 . S
C484 C485 1.366 . S
C484 C486 1.388 . S
C485 C484 1.366 . S
C485 C489 1.385 . S
C486 H467 0.951 . S
C486 C484 1.388 . S
C486 C487 1.366 . S
C487 C486 1.366 . S
C487 C488 1.414 . S
C487 C490 1.499 . S
C488 H468 0.950 . S
C488 C487 1.414 . S
C488 C489 1.374 . S
C489 H469 0.950 . S
C489 C485 1.385 . S
C489 C488 1.374 . S
C490 C487 1.499 . S
C490 C491 1.373 . S
C490 C492 1.389 . S
C491 H470 0.950 . S
C491 C490 1.373 . S
C491 C507 1.377 . S
C492 C490 1.389 . S
C492 C493 1.524 . S
C492 C506 1.377 . S
C493 C492 1.524 . S
C493 C494 1.397 . S
C493 C498 1.363 . S
C494 H471 0.950 . S
C494 C493 1.397 . S
C494 C495 1.334 . S
C495 H472 0.950 . S
C495 C494 1.334 . S
C495 C496 1.287 . S
C496 C495 1.287 . S
C496 C497 1.524 . S
C496 H515 0.913 . S
C497 H473 0.950 . S
C497 C496 1.524 . S
C497 C498 1.415 . S
C498 H474 0.950 . S
C498 C493 1.363 . S
C498 C497 1.415 . S
C499 H475 0.951 . S
C499 C500 1.366 . S
C499 C501 1.388 . S
C500 C499 1.366 . S
C500 C504 1.385 . S
C501 H476 0.951 . S
C501 C499 1.388 . S
C501 C502 1.366 . S
C502 C501 1.366 . S
C502 C503 1.414 . S
C502 C505 1.499 . S
C503 H477 0.950 . S
C503 C502 1.414 . S
C503 C504 1.374 . S
C504 H478 0.950 . S
C504 C500 1.385 . S
C504 C503 1.374 . S
C505 C502 1.499 . S
C505 C506 1.373 . S
C505 C507 1.389 . S
C506 H479 0.950 . S
C506 C492 1.377 . S
C506 C505 1.373 . S
C507 C491 1.377 . S
C507 C505 1.389 . S
C507 C508 1.524 . S
C508 C507 1.524 . S
C508 C509 1.397 . S
C508 C513 1.363 . S
C509 H480 0.950 . S
C509 C508 1.397 . S
C509 C510 1.334 . S
C510 H481 0.950 . S
C510 C509 1.334 . S
C510 C511 1.287 . S
C511 C510 1.287 . S
C511 C512 1.524 . S
C511 H514 0.999 . S
C512 H482 0.950 . S
C512 C511 1.524 . S
C512 C513 1.415 . S
C513 H483 0.950 . S
C513 C508 1.363 . S
C513 C512 1.415 . S
H514 C511 0.999 . S
H515 C496 0.913 . S
H516 C534 0.951 . S
H517 C536 0.951 . S
H518 C538 0.950 . S
H519 C539 0.950 . S
H520 C541 0.950 . S
H521 C544 0.950 . S
H522 C545 0.950 . S
H523 C547 0.950 . S
H524 C548 0.950 . S
H525 C549 0.951 . S
H526 C551 0.951 . S
H527 C553 0.950 . S
H528 C554 0.950 . S
H529 C556 0.950 . S
H530 C559 0.950 . S
H531 C560 0.950 . S
H532 C562 0.950 . S
H533 C563 0.950 . S
C534 H516 0.951 . S
C534 C535 1.366 . S
C534 C536 1.388 . S
C535 C534 1.366 . S
C535 C539 1.385 . S
C536 H517 0.951 . S
C536 C534 1.388 . S
C536 C537 1.366 . S
C537 C536 1.366 . S
C537 C538 1.414 . S
C537 C540 1.499 . S
C538 H518 0.950 . S
C538 C537 1.414 . S
C538 C539 1.374 . S
C539 H519 0.950 . S
C539 C535 1.385 . S
C539 C538 1.374 . S
C540 C537 1.499 . S
C540 C541 1.373 . S
C540 C542 1.389 . S
C541 H520 0.950 . S
C541 C540 1.373 . S
C541 C557 1.377 . S
C542 C540 1.389 . S
C542 C543 1.524 . S
C542 C556 1.377 . S
C543 C542 1.524 . S
C543 C544 1.397 . S
C543 C548 1.363 . S
C544 H521 0.950 . S
C544 C543 1.397 . S
C544 C545 1.334 . S
C545 H522 0.950 . S
C545 C544 1.334 . S
C545 C546 1.287 . S
C546 C545 1.287 . S
C546 C547 1.524 . S
C546 H565 0.913 . S
C547 H523 0.950 . S
C547 C546 1.524 . S
C547 C548 1.415 . S
C548 H524 0.950 . S
C548 C543 1.363 . S
C548 C547 1.415 . S
C549 H525 0.951 . S
C549 C550 1.366 . S
C549 C551 1.388 . S
C550 C549 1.366 . S
C550 C554 1.385 . S
C551 H526 0.951 . S
C551 C549 1.388 . S
C551 C552 1.366 . S
C552 C551 1.366 . S
C552 C553 1.414 . S
C552 C555 1.499 . S
C553 H527 0.950 . S
C553 C552 1.414 . S
C553 C554 1.374 . S
C554 H528 0.950 . S
C554 C550 1.385 . S
C554 C553 1.374 . S
C555 C552 1.499 . S
C555 C556 1.373 . S
C555 C557 1.389 . S
C556 H529 0.950 . S
C556 C542 1.377 . S
C556 C555 1.373 . S
C557 C541 1.377 . S
C557 C555 1.389 . S
C557 C558 1.524 . S
C558 C557 1.524 . S
C558 C559 1.397 . S
C558 C563 1.363 . S
C559 H530 0.950 . S
C559 C558 1.397 . S
C559 C560 1.334 . S
C560 H531 0.950 . S
C560 C559 1.334 . S
C560 C561 1.287 . S
C561 C560 1.287 . S
C561 C562 1.524 . S
C561 H564 0.999 . S
C562 H532 0.950 . S
C562 C561 1.524 . S
C562 C563 1.415 . S
C563 H533 0.950 . S
C563 C558 1.363 . S
C563 C562 1.415 . S
H564 C561 0.999 . S
H565 C546 0.913 . S
H566 C584 0.951 . S
H567 C586 0.951 . S
H568 C588 0.950 . S
H569 C589 0.950 . S
H570 C591 0.950 . S
H571 C594 0.950 . S
H572 C595 0.950 . S
H573 C597 0.950 . S
H574 C598 0.950 . S
H575 C599 0.951 . S
H576 C601 0.951 . S
H577 C603 0.950 . S
H578 C604 0.950 . S
H579 C606 0.950 . S
H580 C609 0.950 . S
H581 C610 0.950 . S
H582 C612 0.950 . S
H583 C613 0.950 . S
C584 H566 0.951 . S
C584 C585 1.366 . S
C584 C586 1.388 . S
C585 C584 1.366 . S
C585 C589 1.385 . S
C586 H567 0.951 . S
C586 C584 1.388 . S
C586 C587 1.366 . S
C587 C586 1.366 . S
C587 C588 1.414 . S
C587 C590 1.499 . S
C588 H568 0.950 . S
C588 C587 1.414 . S
C588 C589 1.374 . S
C589 H569 0.950 . S
C589 C585 1.385 . S
C589 C588 1.374 . S
C590 C587 1.499 . S
C590 C591 1.373 . S
C590 C592 1.389 . S
C591 H570 0.950 . S
C591 C590 1.373 . S
C591 C607 1.377 . S
C592 C590 1.389 . S
C592 C593 1.524 . S
C592 C606 1.377 . S
C593 C592 1.524 . S
C593 C594 1.397 . S
C593 C598 1.363 . S
C594 H571 0.950 . S
C594 C593 1.397 . S
C594 C595 1.334 . S
C595 H572 0.950 . S
C595 C594 1.334 . S
C595 C596 1.287 . S
C596 C595 1.287 . S
C596 C597 1.524 . S
C596 H615 0.913 1_655 S
C597 H573 0.950 . S
C597 C596 1.524 . S
C597 C598 1.415 . S
C598 H574 0.950 . S
C598 C593 1.363 . S
C598 C597 1.415 . S
C599 H575 0.951 . S
C599 C600 1.366 . S
C599 C601 1.388 . S
C600 C599 1.366 . S
C600 C604 1.385 . S
C601 H576 0.951 . S
C601 C599 1.388 . S
C601 C602 1.366 . S
C602 C601 1.366 . S
C602 C603 1.414 . S
C602 C605 1.499 . S
C603 H577 0.950 . S
C603 C602 1.414 . S
C603 C604 1.374 . S
C604 H578 0.950 . S
C604 C600 1.385 . S
C604 C603 1.374 . S
C605 C602 1.499 . S
C605 C606 1.373 . S
C605 C607 1.389 . S
C606 H579 0.950 . S
C606 C592 1.377 . S
C606 C605 1.373 . S
C607 C591 1.377 . S
C607 C605 1.389 . S
C607 C608 1.524 . S
C608 C607 1.524 . S
C608 C609 1.397 . S
C608 C613 1.363 . S
C609 H580 0.950 . S
C609 C608 1.397 . S
C609 C610 1.334 . S
C610 H581 0.950 . S
C610 C609 1.334 . S
C610 C611 1.287 . S
C611 C610 1.287 . S
C611 C612 1.524 . S
C611 H614 0.999 . S
C612 H582 0.950 . S
C612 C611 1.524 . S
C612 C613 1.415 . S
C613 H583 0.950 . S
C613 C608 1.363 . S
C613 C612 1.415 . S
H614 C611 0.999 . S
H615 C596 0.913 1_455 S
H616 C634 0.951 . S
H617 C636 0.951 . S
H618 C638 0.950 . S
H619 C639 0.950 . S
H620 C641 0.950 . S
H621 C644 0.950 . S
H622 C645 0.950 . S
H623 C647 0.950 . S
H624 C648 0.950 . S
H625 C649 0.951 . S
H626 C651 0.951 . S
H627 C653 0.950 . S
H628 C654 0.950 . S
H629 C656 0.950 . S
H630 C659 0.950 . S
H631 C660 0.950 . S
H632 C662 0.950 . S
H633 C663 0.950 . S
C634 H616 0.951 . S
C634 C635 1.366 . S
C634 C636 1.388 . S
C635 C634 1.366 . S
C635 C639 1.385 . S
C636 H617 0.951 . S
C636 C634 1.388 . S
C636 C637 1.366 . S
C637 C636 1.366 . S
C637 C638 1.414 . S
C637 C640 1.499 . S
C638 H618 0.950 . S
C638 C637 1.414 . S
C638 C639 1.374 . S
C639 H619 0.950 . S
C639 C635 1.385 . S
C639 C638 1.374 . S
C640 C637 1.499 . S
C640 C641 1.373 . S
C640 C642 1.389 . S
C641 H620 0.950 . S
C641 C640 1.373 . S
C641 C657 1.377 . S
C642 C640 1.389 . S
C642 C643 1.524 . S
C642 C656 1.377 . S
C643 C642 1.524 . S
C643 C644 1.397 . S
C643 C648 1.363 . S
C644 H621 0.950 . S
C644 C643 1.397 . S
C644 C645 1.334 . S
C645 H622 0.950 . S
C645 C644 1.334 . S
C645 C646 1.287 . S
C646 C645 1.287 . S
C646 C647 1.524 . S
C646 H665 0.913 . S
C647 H623 0.950 . S
C647 C646 1.524 . S
C647 C648 1.415 . S
C648 H624 0.950 . S
C648 C643 1.363 . S
C648 C647 1.415 . S
C649 H625 0.951 . S
C649 C650 1.366 . S
C649 C651 1.388 . S
C650 C649 1.366 . S
C650 C654 1.385 . S
C651 H626 0.951 . S
C651 C649 1.388 . S
C651 C652 1.366 . S
C652 C651 1.366 . S
C652 C653 1.414 . S
C652 C655 1.499 . S
C653 H627 0.950 . S
C653 C652 1.414 . S
C653 C654 1.374 . S
C654 H628 0.950 . S
C654 C650 1.385 . S
C654 C653 1.374 . S
C655 C652 1.499 . S
C655 C656 1.373 . S
C655 C657 1.389 . S
C656 H629 0.950 . S
C656 C642 1.377 . S
C656 C655 1.373 . S
C657 C641 1.377 . S
C657 C655 1.389 . S
C657 C658 1.524 . S
C658 C657 1.524 . S
C658 C659 1.397 . S
C658 C663 1.363 . S
C659 H630 0.950 . S
C659 C658 1.397 . S
C659 C660 1.334 . S
C660 H631 0.950 . S
C660 C659 1.334 . S
C660 C661 1.287 . S
C661 C660 1.287 . S
C661 C662 1.524 . S
C661 H664 0.999 . S
C662 H632 0.950 . S
C662 C661 1.524 . S
C662 C663 1.415 . S
C663 H633 0.950 . S
C663 C658 1.363 . S
C663 C662 1.415 . S
H664 C661 0.999 . S
H665 C646 0.913 . S
H666 C684 0.951 . S
H667 C686 0.951 . S
H668 C688 0.950 . S
H669 C689 0.950 . S
H670 C691 0.950 . S
H671 C694 0.950 . S
H672 C695 0.950 . S
H673 C697 0.950 . S
H674 C698 0.950 . S
H675 C699 0.951 . S
H676 C701 0.951 . S
H677 C703 0.950 . S
H678 C704 0.950 . S
H679 C706 0.950 . S
H680 C709 0.950 . S
H681 C710 0.950 . S
H682 C712 0.950 . S
H683 C713 0.950 . S
C684 H666 0.951 . S
C684 C685 1.366 . S
C684 C686 1.388 . S
C685 C684 1.366 . S
C685 C689 1.385 . S
C686 H667 0.951 . S
C686 C684 1.388 . S
C686 C687 1.366 . S
C687 C686 1.366 . S
C687 C688 1.414 . S
C687 C690 1.499 . S
C688 H668 0.950 . S
C688 C687 1.414 . S
C688 C689 1.374 . S
C689 H669 0.950 . S
C689 C685 1.385 . S
C689 C688 1.374 . S
C690 C687 1.499 . S
C690 C691 1.373 . S
C690 C692 1.389 . S
C691 H670 0.950 . S
C691 C690 1.373 . S
C691 C707 1.377 . S
C692 C690 1.389 . S
C692 C693 1.524 . S
C692 C706 1.377 . S
C693 C692 1.524 . S
C693 C694 1.397 . S
C693 C698 1.363 . S
C694 H671 0.950 . S
C694 C693 1.397 . S
C694 C695 1.334 . S
C695 H672 0.950 . S
C695 C694 1.334 . S
C695 C696 1.287 . S
C696 C695 1.287 . S
C696 C697 1.524 . S
C696 H715 0.913 . S
C697 H673 0.950 . S
C697 C696 1.524 . S
C697 C698 1.415 . S
C698 H674 0.950 . S
C698 C693 1.363 . S
C698 C697 1.415 . S
C699 H675 0.951 . S
C699 C700 1.366 . S
C699 C701 1.388 . S
C700 C699 1.366 . S
C700 C704 1.385 . S
C701 H676 0.951 . S
C701 C699 1.388 . S
C701 C702 1.366 . S
C702 C701 1.366 . S
C702 C703 1.414 . S
C702 C705 1.499 . S
C703 H677 0.950 . S
C703 C702 1.414 . S
C703 C704 1.374 . S
C704 H678 0.950 . S
C704 C700 1.385 . S
C704 C703 1.374 . S
C705 C702 1.499 . S
C705 C706 1.373 . S
C705 C707 1.389 . S
C706 H679 0.950 . S
C706 C692 1.377 . S
C706 C705 1.373 . S
C707 C691 1.377 . S
C707 C705 1.389 . S
C707 C708 1.524 . S
C708 C707 1.524 . S
C708 C709 1.397 . S
C708 C713 1.363 . S
C709 H680 0.950 . S
C709 C708 1.397 . S
C709 C710 1.334 . S
C710 H681 0.950 . S
C710 C709 1.334 . S
C710 C711 1.287 . S
C711 C710 1.287 . S
C711 C712 1.524 . S
C711 H714 0.999 . S
C712 H682 0.950 . S
C712 C711 1.524 . S
C712 C713 1.415 . S
C713 H683 0.950 . S
C713 C708 1.363 . S
C713 C712 1.415 . S
H714 C711 0.999 . S
H715 C696 0.913 . S
H716 C734 0.951 . S
H717 C736 0.951 . S
H718 C738 0.950 . S
H719 C739 0.950 . S
H720 C741 0.950 . S
H721 C744 0.950 . S
H722 C745 0.950 . S
H723 C747 0.950 . S
H724 C748 0.950 . S
H725 C749 0.951 . S
H726 C751 0.951 . S
H727 C753 0.950 . S
H728 C754 0.950 . S
H729 C756 0.950 . S
H730 C759 0.950 . S
H731 C760 0.950 . S
H732 C762 0.950 . S
H733 C763 0.950 . S
C734 H716 0.951 . S
C734 C735 1.366 . S
C734 C736 1.388 . S
C735 C734 1.366 . S
C735 C739 1.385 . S
C736 H717 0.951 . S
C736 C734 1.388 . S
C736 C737 1.366 . S
C737 C736 1.366 . S
C737 C738 1.414 . S
C737 C740 1.499 . S
C738 H718 0.950 . S
C738 C737 1.414 . S
C738 C739 1.374 . S
C739 H719 0.950 . S
C739 C735 1.385 . S
C739 C738 1.374 . S
C740 C737 1.499 . S
C740 C741 1.373 . S
C740 C742 1.389 . S
C741 H720 0.950 . S
C741 C740 1.373 . S
C741 C757 1.377 . S
C742 C740 1.389 . S
C742 C743 1.524 . S
C742 C756 1.377 . S
C743 C742 1.524 . S
C743 C744 1.397 . S
C743 C748 1.363 . S
C744 H721 0.950 . S
C744 C743 1.397 . S
C744 C745 1.334 . S
C745 H722 0.950 . S
C745 C744 1.334 . S
C745 C746 1.287 . S
C746 C745 1.287 . S
C746 C747 1.524 . S
C746 H765 0.913 . S
C747 H723 0.950 . S
C747 C746 1.524 . S
C747 C748 1.415 . S
C748 H724 0.950 . S
C748 C743 1.363 . S
C748 C747 1.415 . S
C749 H725 0.951 . S
C749 C750 1.366 . S
C749 C751 1.388 . S
C750 C749 1.366 . S
C750 C754 1.385 . S
C751 H726 0.951 . S
C751 C749 1.388 . S
C751 C752 1.366 . S
C752 C751 1.366 . S
C752 C753 1.414 . S
C752 C755 1.499 . S
C753 H727 0.950 . S
C753 C752 1.414 . S
C753 C754 1.374 . S
C754 H728 0.950 . S
C754 C750 1.385 . S
C754 C753 1.374 . S
C755 C752 1.499 . S
C755 C756 1.373 . S
C755 C757 1.389 . S
C756 H729 0.950 . S
C756 C742 1.377 . S
C756 C755 1.373 . S
C757 C741 1.377 . S
C757 C755 1.389 . S
C757 C758 1.524 . S
C758 C757 1.524 . S
C758 C759 1.397 . S
C758 C763 1.363 . S
C759 H730 0.950 . S
C759 C758 1.397 . S
C759 C760 1.334 . S
C760 H731 0.950 . S
C760 C759 1.334 . S
C760 C761 1.287 . S
C761 C760 1.287 . S
C761 C762 1.524 . S
C761 H764 0.999 . S
C762 H732 0.950 . S
C762 C761 1.524 . S
C762 C763 1.415 . S
C763 H733 0.950 . S
C763 C758 1.363 . S
C763 C762 1.415 . S
H764 C761 0.999 . S
H765 C746 0.913 . S
H766 C784 0.951 . S
H767 C786 0.951 . S
H768 C788 0.950 . S
H769 C789 0.950 . S
H770 C791 0.950 . S
H771 C794 0.950 . S
H772 C795 0.950 . S
H773 C797 0.950 . S
H774 C798 0.950 . S
H775 C799 0.951 . S
H776 C801 0.951 . S
H777 C803 0.950 . S
H778 C804 0.950 . S
H779 C806 0.950 . S
H780 C809 0.950 . S
H781 C810 0.950 . S
H782 C812 0.950 . S
H783 C813 0.950 . S
C784 H766 0.951 . S
C784 C785 1.366 . S
C784 C786 1.388 . S
C785 C784 1.366 . S
C785 C789 1.385 . S
C786 H767 0.951 . S
C786 C784 1.388 . S
C786 C787 1.366 . S
C787 C786 1.366 . S
C787 C788 1.414 . S
C787 C790 1.499 . S
C788 H768 0.950 . S
C788 C787 1.414 . S
C788 C789 1.374 . S
C789 H769 0.950 . S
C789 C785 1.385 . S
C789 C788 1.374 . S
C790 C787 1.499 . S
C790 C791 1.373 . S
C790 C792 1.389 . S
C791 H770 0.950 . S
C791 C790 1.373 . S
C791 C807 1.377 . S
C792 C790 1.389 . S
C792 C793 1.524 . S
C792 C806 1.377 . S
C793 C792 1.524 . S
C793 C794 1.397 . S
C793 C798 1.363 . S
C794 H771 0.950 . S
C794 C793 1.397 . S
C794 C795 1.334 . S
C795 H772 0.950 . S
C795 C794 1.334 . S
C795 C796 1.287 . S
C796 C795 1.287 . S
C796 C797 1.524 . S
C796 H815 0.913 . S
C797 H773 0.950 . S
C797 C796 1.524 . S
C797 C798 1.415 . S
C798 H774 0.950 . S
C798 C793 1.363 . S
C798 C797 1.415 . S
C799 H775 0.951 . S
C799 C800 1.366 . S
C799 C801 1.388 . S
C800 C799 1.366 . S
C800 C804 1.385 . S
C801 H776 0.951 . S
C801 C799 1.388 . S
C801 C802 1.366 . S
C802 C801 1.366 . S
C802 C803 1.414 . S
C802 C805 1.499 . S
C803 H777 0.950 . S
C803 C802 1.414 . S
C803 C804 1.374 . S
C804 H778 0.950 . S
C804 C800 1.385 . S
C804 C803 1.374 . S
C805 C802 1.499 . S
C805 C806 1.373 . S
C805 C807 1.389 . S
C806 H779 0.950 . S
C806 C792 1.377 . S
C806 C805 1.373 . S
C807 C791 1.377 . S
C807 C805 1.389 . S
C807 C808 1.524 . S
C808 C807 1.524 . S
C808 C809 1.397 . S
C808 C813 1.363 . S
C809 H780 0.950 . S
C809 C808 1.397 . S
C809 C810 1.334 . S
C810 H781 0.950 . S
C810 C809 1.334 . S
C810 C811 1.287 . S
C811 C810 1.287 . S
C811 C812 1.524 . S
C811 H814 0.999 . S
C812 H782 0.950 . S
C812 C811 1.524 . S
C812 C813 1.415 . S
C813 H783 0.950 . S
C813 C808 1.363 . S
C813 C812 1.415 . S
H814 C811 0.999 . S
H815 C796 0.913 . S
H816 C834 0.951 . S
H817 C836 0.951 . S
H818 C838 0.950 . S
H819 C839 0.950 . S
H820 C841 0.950 . S
H821 C844 0.950 . S
H822 C845 0.950 . S
H823 C847 0.950 . S
H824 C848 0.950 . S
H825 C849 0.951 . S
H826 C851 0.951 . S
H827 C853 0.950 . S
H828 C854 0.950 . S
H829 C856 0.950 . S
H830 C859 0.950 . S
H831 C860 0.950 . S
H832 C862 0.950 . S
H833 C863 0.950 . S
C834 H816 0.951 . S
C834 C835 1.366 . S
C834 C836 1.388 . S
C835 C834 1.366 . S
C835 C839 1.385 . S
C836 H817 0.951 . S
C836 C834 1.388 . S
C836 C837 1.366 . S
C837 C836 1.366 . S
C837 C838 1.414 . S
C837 C840 1.499 . S
C838 H818 0.950 . S
C838 C837 1.414 . S
C838 C839 1.374 . S
C839 H819 0.950 . S
C839 C835 1.385 . S
C839 C838 1.374 . S
C840 C837 1.499 . S
C840 C841 1.373 . S
C840 C842 1.389 . S
C841 H820 0.950 . S
C841 C840 1.373 . S
C841 C857 1.377 . S
C842 C840 1.389 . S
C842 C843 1.524 . S
C842 C856 1.377 . S
C843 C842 1.524 . S
C843 C844 1.397 . S
C843 C848 1.363 . S
C844 H821 0.950 . S
C844 C843 1.397 . S
C844 C845 1.334 . S
C845 H822 0.950 . S
C845 C844 1.334 . S
C845 C846 1.287 . S
C846 C845 1.287 . S
C846 C847 1.524 . S
C846 H865 0.913 . S
C847 H823 0.950 . S
C847 C846 1.524 . S
C847 C848 1.415 . S
C848 H824 0.950 . S
C848 C843 1.363 . S
C848 C847 1.415 . S
C849 H825 0.951 . S
C849 C850 1.366 . S
C849 C851 1.388 . S
C850 C849 1.366 . S
C850 C854 1.385 . S
C851 H826 0.951 . S
C851 C849 1.388 . S
C851 C852 1.366 . S
C852 C851 1.366 . S
C852 C853 1.414 . S
C852 C855 1.499 . S
C853 H827 0.950 . S
C853 C852 1.414 . S
C853 C854 1.374 . S
C854 H828 0.950 . S
C854 C850 1.385 . S
C854 C853 1.374 . S
C855 C852 1.499 . S
C855 C856 1.373 . S
C855 C857 1.389 . S
C856 H829 0.950 . S
C856 C842 1.377 . S
C856 C855 1.373 . S
C857 C841 1.377 . S
C857 C855 1.389 . S
C857 C858 1.524 . S
C858 C857 1.524 . S
C858 C859 1.397 . S
C858 C863 1.363 . S
C859 H830 0.950 . S
C859 C858 1.397 . S
C859 C860 1.334 . S
C860 H831 0.950 . S
C860 C859 1.334 . S
C860 C861 1.287 . S
C861 C860 1.287 . S
C861 C862 1.524 . S
C861 H864 0.999 . S
C862 H832 0.950 . S
C862 C861 1.524 . S
C862 C863 1.415 . S
C863 H833 0.950 . S
C863 C858 1.363 . S
C863 C862 1.415 . S
H864 C861 0.999 . S
H865 C846 0.913 . S
H866 C884 0.951 . S
H867 C886 0.951 . S
H868 C888 0.950 . S
H869 C889 0.950 . S
H870 C891 0.950 . S
H871 C894 0.950 . S
H872 C895 0.950 . S
H873 C897 0.950 . S
H874 C898 0.950 . S
H875 C899 0.951 . S
H876 C901 0.951 . S
H877 C903 0.950 . S
H878 C904 0.950 . S
H879 C906 0.950 . S
H880 C909 0.950 . S
H881 C910 0.950 . S
H882 C912 0.950 . S
H883 C913 0.950 . S
C884 H866 0.951 . S
C884 C885 1.366 . S
C884 C886 1.388 . S
C885 C884 1.366 . S
C885 C889 1.385 . S
C886 H867 0.951 . S
C886 C884 1.388 . S
C886 C887 1.366 . S
C887 C886 1.366 . S
C887 C888 1.414 . S
C887 C890 1.499 . S
C888 H868 0.950 . S
C888 C887 1.414 . S
C888 C889 1.374 . S
C889 H869 0.950 . S
C889 C885 1.385 . S
C889 C888 1.374 . S
C890 C887 1.499 . S
C890 C891 1.373 . S
C890 C892 1.389 . S
C891 H870 0.950 . S
C891 C890 1.373 . S
C891 C907 1.377 . S
C892 C890 1.389 . S
C892 C893 1.524 . S
C892 C906 1.377 . S
C893 C892 1.524 . S
C893 C894 1.397 . S
C893 C898 1.363 . S
C894 H871 0.950 . S
C894 C893 1.397 . S
C894 C895 1.334 . S
C895 H872 0.950 . S
C895 C894 1.334 . S
C895 C896 1.287 . S
C896 C895 1.287 . S
C896 C897 1.524 . S
C896 H915 0.913 . S
C897 H873 0.950 . S
C897 C896 1.524 . S
C897 C898 1.415 . S
C898 H874 0.950 . S
C898 C893 1.363 . S
C898 C897 1.415 . S
C899 H875 0.951 . S
C899 C900 1.366 . S
C899 C901 1.388 . S
C900 C899 1.366 . S
C900 C904 1.385 . S
C901 H876 0.951 . S
C901 C899 1.388 . S
C901 C902 1.366 . S
C902 C901 1.366 . S
C902 C903 1.414 . S
C902 C905 1.499 . S
C903 H877 0.950 . S
C903 C902 1.414 . S
C903 C904 1.374 . S
C904 H878 0.950 . S
C904 C900 1.385 . S
C904 C903 1.374 . S
C905 C902 1.499 . S
C905 C906 1.373 . S
C905 C907 1.389 . S
C906 H879 0.950 . S
C906 C892 1.377 . S
C906 C905 1.373 . S
C907 C891 1.377 . S
C907 C905 1.389 . S
C907 C908 1.524 . S
C908 C907 1.524 . S
C908 C909 1.397 . S
C908 C913 1.363 . S
C909 H880 0.950 . S
C909 C908 1.397 . S
C909 C910 1.334 . S
C910 H881 0.950 . S
C910 C909 1.334 . S
C910 C911 1.287 1_556 S
C911 C910 1.287 1_554 S
C911 C912 1.524 . S
C911 H914 0.999 . S
C912 H882 0.950 . S
C912 C911 1.524 . S
C912 C913 1.415 1_554 S
C913 H883 0.950 . S
C913 C908 1.363 . S
C913 C912 1.415 1_556 S
H914 C911 0.999 . S
H915 C896 0.913 . S
H916 C934 0.951 . S
H917 C936 0.951 . S
H918 C938 0.950 . S
H919 C939 0.950 . S
H920 C941 0.950 . S
H921 C944 0.950 . S
H922 C945 0.950 . S
H923 C947 0.950 . S
H924 C948 0.950 . S
H925 C949 0.951 . S
H926 C951 0.951 . S
H927 C953 0.950 . S
H928 C954 0.950 . S
H929 C956 0.950 . S
H930 C959 0.950 . S
H931 C960 0.950 . S
H932 C962 0.950 . S
H933 C963 0.950 . S
C934 H916 0.951 . S
C934 C935 1.366 . S
C934 C936 1.388 . S
C935 C934 1.366 . S
C935 C939 1.385 . S
C936 H917 0.951 . S
C936 C934 1.388 . S
C936 C937 1.366 . S
C937 C936 1.366 . S
C937 C938 1.414 . S
C937 C940 1.499 . S
C938 H918 0.950 . S
C938 C937 1.414 . S
C938 C939 1.374 . S
C939 H919 0.950 . S
C939 C935 1.385 . S
C939 C938 1.374 . S
C940 C937 1.499 . S
C940 C941 1.373 . S
C940 C942 1.389 . S
C941 H920 0.950 . S
C941 C940 1.373 . S
C941 C957 1.377 . S
C942 C940 1.389 . S
C942 C943 1.524 . S
C942 C956 1.377 . S
C943 C942 1.524 . S
C943 C944 1.397 . S
C943 C948 1.363 . S
C944 H921 0.950 . S
C944 C943 1.397 . S
C944 C945 1.334 . S
C945 H922 0.950 . S
C945 C944 1.334 . S
C945 C946 1.287 . S
C946 C945 1.287 . S
C946 C947 1.524 . S
C946 H965 0.913 . S
C947 H923 0.950 . S
C947 C946 1.524 . S
C947 C948 1.415 . S
C948 H924 0.950 . S
C948 C943 1.363 . S
C948 C947 1.415 . S
C949 H925 0.951 . S
C949 C950 1.366 . S
C949 C951 1.388 . S
C950 C949 1.366 . S
C950 C954 1.385 . S
C951 H926 0.951 . S
C951 C949 1.388 . S
C951 C952 1.366 . S
C952 C951 1.366 . S
C952 C953 1.414 . S
C952 C955 1.499 . S
C953 H927 0.950 . S
C953 C952 1.414 . S
C953 C954 1.374 . S
C954 H928 0.950 . S
C954 C950 1.385 . S
C954 C953 1.374 . S
C955 C952 1.499 . S
C955 C956 1.373 . S
C955 C957 1.389 . S
C956 H929 0.950 . S
C956 C942 1.377 . S
C956 C955 1.373 . S
C957 C941 1.377 . S
C957 C955 1.389 . S
C957 C958 1.524 . S
C958 C957 1.524 . S
C958 C959 1.397 . S
C958 C963 1.363 . S
C959 H930 0.950 . S
C959 C958 1.397 . S
C959 C960 1.334 . S
C960 H931 0.950 . S
C960 C959 1.334 . S
C960 C961 1.287 . S
C961 C960 1.287 . S
C961 C962 1.524 . S
C961 H964 0.999 . S
C962 H932 0.950 . S
C962 C961 1.524 . S
C962 C963 1.415 . S
C963 H933 0.950 . S
C963 C958 1.363 . S
C963 C962 1.415 . S
H964 C961 0.999 . S
H965 C946 0.913 . S
H966 C984 0.951 . S
H967 C986 0.951 . S
H968 C988 0.950 . S
H969 C989 0.950 . S
H970 C991 0.950 . S
H971 C994 0.950 . S
H972 C995 0.950 . S
H973 C997 0.950 . S
H974 C998 0.950 . S
H975 C999 0.951 . S
H976 C1001 0.951 . S
H977 C1003 0.950 . S
H978 C1004 0.950 . S
H979 C1006 0.950 . S
H980 C1009 0.950 . S
H981 C1010 0.950 . S
H982 C1012 0.950 . S
H983 C1013 0.950 . S
C984 H966 0.951 . S
C984 C985 1.366 . S
C984 C986 1.388 . S
C985 C984 1.366 . S
C985 C989 1.385 . S
C986 H967 0.951 . S
C986 C984 1.388 . S
C986 C987 1.366 . S
C987 C986 1.366 . S
C987 C988 1.414 . S
C987 C990 1.499 . S
C988 H968 0.950 . S
C988 C987 1.414 . S
C988 C989 1.374 . S
C989 H969 0.950 . S
C989 C985 1.385 . S
C989 C988 1.374 . S
C990 C987 1.499 . S
C990 C991 1.373 . S
C990 C992 1.389 . S
C991 H970 0.950 . S
C991 C990 1.373 . S
C991 C1007 1.377 . S
C992 C990 1.389 . S
C992 C993 1.524 . S
C992 C1006 1.377 . S
C993 C992 1.524 . S
C993 C994 1.397 . S
C993 C998 1.363 . S
C994 H971 0.950 . S
C994 C993 1.397 . S
C994 C995 1.334 . S
C995 H972 0.950 . S
C995 C994 1.334 . S
C995 C996 1.287 . S
C996 C995 1.287 . S
C996 C997 1.524 . S
C996 H1015 0.913 . S
C997 H973 0.950 . S
C997 C996 1.524 . S
C997 C998 1.415 . S
C998 H974 0.950 . S
C998 C993 1.363 . S
C998 C997 1.415 . S
C999 H975 0.951 . S
C999 C1000 1.366 . S
C999 C1001 1.388 . S
C1000 C999 1.366 . S
C1000 C1004 1.385 . S
C1001 H976 0.951 . S
C1001 C999 1.388 . S
C1001 C1002 1.366 . S
C1002 C1001 1.366 . S
C1002 C1003 1.414 . S
C1002 C1005 1.499 . S
C1003 H977 0.950 . S
C1003 C1002 1.414 . S
C1003 C1004 1.374 . S
C1004 H978 0.950 . S
C1004 C1000 1.385 . S
C1004 C1003 1.374 . S
C1005 C1002 1.499 . S
C1005 C1006 1.373 . S
C1005 C1007 1.389 . S
C1006 H979 0.950 . S
C1006 C992 1.377 . S
C1006 C1005 1.373 . S
C1007 C991 1.377 . S
C1007 C1005 1.389 . S
C1007 C1008 1.524 . S
C1008 C1007 1.524 . S
C1008 C1009 1.397 . S
C1008 C1013 1.363 . S
C1009 H980 0.950 . S
C1009 C1008 1.397 . S
C1009 C1010 1.334 . S
C1010 H981 0.950 . S
C1010 C1009 1.334 . S
C1010 C1011 1.287 . S
C1011 C1010 1.287 . S
C1011 C1012 1.524 . S
C1011 H1014 0.999 . S
C1012 H982 0.950 . S
C1012 C1011 1.524 . S
C1012 C1013 1.415 . S
C1013 H983 0.950 . S
C1013 C1008 1.363 . S
C1013 C1012 1.415 . S
H1014 C1011 0.999 . S
H1015 C996 0.913 . S
H1016 C1034 0.951 . S
H1017 C1036 0.951 . S
H1018 C1038 0.950 . S
H1019 C1039 0.950 . S
H1020 C1041 0.950 . S
H1021 C1044 0.950 . S
H1022 C1045 0.950 . S
H1023 C1047 0.950 . S
H1024 C1048 0.950 . S
H1025 C1049 0.951 . S
H1026 C1051 0.951 . S
H1027 C1053 0.950 . S
H1028 C1054 0.950 . S
H1029 C1056 0.950 . S
H1030 C1059 0.950 . S
H1031 C1060 0.950 . S
H1032 C1062 0.950 . S
H1033 C1063 0.950 . S
C1034 H1016 0.951 . S
C1034 C1035 1.366 . S
C1034 C1036 1.388 . S
C1035 C1034 1.366 . S
C1035 C1039 1.385 . S
C1036 H1017 0.951 . S
C1036 C1034 1.388 . S
C1036 C1037 1.366 . S
C1037 C1036 1.366 . S
C1037 C1038 1.414 . S
C1037 C1040 1.499 . S
C1038 H1018 0.950 . S
C1038 C1037 1.414 . S
C1038 C1039 1.374 . S
C1039 H1019 0.950 . S
C1039 C1035 1.385 . S
C1039 C1038 1.374 . S
C1040 C1037 1.499 . S
C1040 C1041 1.373 . S
C1040 C1042 1.389 . S
C1041 H1020 0.950 . S
C1041 C1040 1.373 . S
C1041 C1057 1.377 . S
C1042 C1040 1.389 . S
C1042 C1043 1.524 . S
C1042 C1056 1.377 . S
C1043 C1042 1.524 . S
C1043 C1044 1.397 . S
C1043 C1048 1.363 . S
C1044 H1021 0.950 . S
C1044 C1043 1.397 . S
C1044 C1045 1.334 . S
C1045 H1022 0.950 . S
C1045 C1044 1.334 . S
C1045 C1046 1.287 . S
C1046 C1045 1.287 . S
C1046 C1047 1.524 . S
C1046 H1065 0.913 . S
C1047 H1023 0.950 . S
C1047 C1046 1.524 . S
C1047 C1048 1.415 . S
C1048 H1024 0.950 . S
C1048 C1043 1.363 . S
C1048 C1047 1.415 . S
C1049 H1025 0.951 . S
C1049 C1050 1.366 . S
C1049 C1051 1.388 . S
C1050 C1049 1.366 . S
C1050 C1054 1.385 . S
C1051 H1026 0.951 . S
C1051 C1049 1.388 . S
C1051 C1052 1.366 . S
C1052 C1051 1.366 . S
C1052 C1053 1.414 . S
C1052 C1055 1.499 . S
C1053 H1027 0.950 . S
C1053 C1052 1.414 . S
C1053 C1054 1.374 . S
C1054 H1028 0.950 . S
C1054 C1050 1.385 . S
C1054 C1053 1.374 . S
C1055 C1052 1.499 . S
C1055 C1056 1.373 . S
C1055 C1057 1.389 . S
C1056 H1029 0.950 . S
C1056 C1042 1.377 . S
C1056 C1055 1.373 . S
C1057 C1041 1.377 . S
C1057 C1055 1.389 . S
C1057 C1058 1.524 . S
C1058 C1057 1.524 . S
C1058 C1059 1.397 . S
C1058 C1063 1.363 . S
C1059 H1030 0.950 . S
C1059 C1058 1.397 . S
C1059 C1060 1.334 . S
C1060 H1031 0.950 . S
C1060 C1059 1.334 . S
C1060 C1061 1.287 . S
C1061 C1060 1.287 . S
C1061 C1062 1.524 . S
C1061 H1064 0.999 . S
C1062 H1032 0.950 . S
C1062 C1061 1.524 . S
C1062 C1063 1.415 . S
C1063 H1033 0.950 . S
C1063 C1058 1.363 . S
C1063 C1062 1.415 . S
H1064 C1061 0.999 . S
H1065 C1046 0.913 . S
H1066 C1084 0.951 . S
H1067 C1086 0.951 . S
H1068 C1088 0.950 . S
H1069 C1089 0.950 . S
H1070 C1091 0.950 . S
H1071 C1094 0.950 . S
H1072 C1095 0.950 . S
H1073 C1097 0.950 . S
H1074 C1098 0.950 . S
H1075 C1099 0.951 . S
H1076 C1101 0.951 . S
H1077 C1103 0.950 . S
H1078 C1104 0.950 . S
H1079 C1106 0.950 . S
H1080 C1109 0.950 . S
H1081 C1110 0.950 . S
H1082 C1112 0.950 . S
H1083 C1113 0.950 . S
C1084 H1066 0.951 . S
C1084 C1085 1.366 . S
C1084 C1086 1.388 . S
C1085 C1084 1.366 . S
C1085 C1089 1.385 . S
C1086 H1067 0.951 . S
C1086 C1084 1.388 . S
C1086 C1087 1.366 . S
C1087 C1086 1.366 . S
C1087 C1088 1.414 . S
C1087 C1090 1.499 . S
C1088 H1068 0.950 . S
C1088 C1087 1.414 . S
C1088 C1089 1.374 . S
C1089 H1069 0.950 . S
C1089 C1085 1.385 . S
C1089 C1088 1.374 . S
C1090 C1087 1.499 . S
C1090 C1091 1.373 . S
C1090 C1092 1.389 . S
C1091 H1070 0.950 . S
C1091 C1090 1.373 . S
C1091 C1107 1.377 . S
C1092 C1090 1.389 . S
C1092 C1093 1.524 . S
C1092 C1106 1.377 . S
C1093 C1092 1.524 . S
C1093 C1094 1.397 . S
C1093 C1098 1.363 . S
C1094 H1071 0.950 . S
C1094 C1093 1.397 . S
C1094 C1095 1.334 . S
C1095 H1072 0.950 . S
C1095 C1094 1.334 . S
C1095 C1096 1.287 . S
C1096 C1095 1.287 . S
C1096 C1097 1.524 . S
C1096 H1115 0.913 . S
C1097 H1073 0.950 . S
C1097 C1096 1.524 . S
C1097 C1098 1.415 . S
C1098 H1074 0.950 . S
C1098 C1093 1.363 . S
C1098 C1097 1.415 . S
C1099 H1075 0.951 . S
C1099 C1100 1.366 . S
C1099 C1101 1.388 . S
C1100 C1099 1.366 . S
C1100 C1104 1.385 . S
C1101 H1076 0.951 . S
C1101 C1099 1.388 . S
C1101 C1102 1.366 . S
C1102 C1101 1.366 . S
C1102 C1103 1.414 . S
C1102 C1105 1.499 . S
C1103 H1077 0.950 . S
C1103 C1102 1.414 . S
C1103 C1104 1.374 . S
C1104 H1078 0.950 . S
C1104 C1100 1.385 . S
C1104 C1103 1.374 . S
C1105 C1102 1.499 . S
C1105 C1106 1.373 . S
C1105 C1107 1.389 . S
C1106 H1079 0.950 . S
C1106 C1092 1.377 . S
C1106 C1105 1.373 . S
C1107 C1091 1.377 . S
C1107 C1105 1.389 . S
C1107 C1108 1.524 . S
C1108 C1107 1.524 . S
C1108 C1109 1.397 . S
C1108 C1113 1.363 . S
C1109 H1080 0.950 . S
C1109 C1108 1.397 . S
C1109 C1110 1.334 . S
C1110 H1081 0.950 . S
C1110 C1109 1.334 . S
C1110 C1111 1.287 . S
C1111 C1110 1.287 . S
C1111 C1112 1.524 . S
C1111 H1114 0.999 . S
C1112 H1082 0.950 . S
C1112 C1111 1.524 . S
C1112 C1113 1.415 . S
C1113 H1083 0.950 . S
C1113 C1108 1.363 . S
C1113 C1112 1.415 . S
H1114 C1111 0.999 . S
H1115 C1096 0.913 . S
H1116 C1134 0.951 . S
H1117 C1136 0.951 . S
H1118 C1138 0.950 . S
H1119 C1139 0.950 . S
H1120 C1141 0.950 . S
H1121 C1144 0.950 . S
H1122 C1145 0.950 . S
H1123 C1147 0.950 . S
H1124 C1148 0.950 . S
H1125 C1149 0.951 . S
H1126 C1151 0.951 . S
H1127 C1153 0.950 . S
H1128 C1154 0.950 . S
H1129 C1156 0.950 . S
H1130 C1159 0.950 . S
H1131 C1160 0.950 . S
H1132 C1162 0.950 . S
H1133 C1163 0.950 . S
C1134 H1116 0.951 . S
C1134 C1135 1.366 . S
C1134 C1136 1.388 . S
C1135 C1134 1.366 . S
C1135 C1139 1.385 . S
C1136 H1117 0.951 . S
C1136 C1134 1.388 . S
C1136 C1137 1.366 . S
C1137 C1136 1.366 . S
C1137 C1138 1.414 . S
C1137 C1140 1.499 . S
C1138 H1118 0.950 . S
C1138 C1137 1.414 . S
C1138 C1139 1.374 . S
C1139 H1119 0.950 . S
C1139 C1135 1.385 . S
C1139 C1138 1.374 . S
C1140 C1137 1.499 . S
C1140 C1141 1.373 . S
C1140 C1142 1.389 . S
C1141 H1120 0.950 . S
C1141 C1140 1.373 . S
C1141 C1157 1.377 . S
C1142 C1140 1.389 . S
C1142 C1143 1.524 . S
C1142 C1156 1.377 . S
C1143 C1142 1.524 . S
C1143 C1144 1.397 . S
C1143 C1148 1.363 . S
C1144 H1121 0.950 . S
C1144 C1143 1.397 . S
C1144 C1145 1.334 . S
C1145 H1122 0.950 . S
C1145 C1144 1.334 . S
C1145 C1146 1.287 . S
C1146 C1145 1.287 . S
C1146 C1147 1.524 . S
C1146 H1165 0.913 . S
C1147 H1123 0.950 . S
C1147 C1146 1.524 . S
C1147 C1148 1.415 . S
C1148 H1124 0.950 . S
C1148 C1143 1.363 . S
C1148 C1147 1.415 . S
C1149 H1125 0.951 . S
C1149 C1150 1.366 . S
C1149 C1151 1.388 . S
C1150 C1149 1.366 . S
C1150 C1154 1.385 . S
C1151 H1126 0.951 . S
C1151 C1149 1.388 . S
C1151 C1152 1.366 . S
C1152 C1151 1.366 . S
C1152 C1153 1.414 . S
C1152 C1155 1.499 . S
C1153 H1127 0.950 . S
C1153 C1152 1.414 . S
C1153 C1154 1.374 . S
C1154 H1128 0.950 . S
C1154 C1150 1.385 . S
C1154 C1153 1.374 . S
C1155 C1152 1.499 . S
C1155 C1156 1.373 . S
C1155 C1157 1.389 . S
C1156 H1129 0.950 . S
C1156 C1142 1.377 . S
C1156 C1155 1.373 . S
C1157 C1141 1.377 . S
C1157 C1155 1.389 . S
C1157 C1158 1.524 . S
C1158 C1157 1.524 . S
C1158 C1159 1.397 . S
C1158 C1163 1.363 . S
C1159 H1130 0.950 . S
C1159 C1158 1.397 . S
C1159 C1160 1.334 . S
C1160 H1131 0.950 . S
C1160 C1159 1.334 . S
C1160 C1161 1.287 . S
C1161 C1160 1.287 . S
C1161 C1162 1.524 . S
C1161 H1164 0.999 . S
C1162 H1132 0.950 . S
C1162 C1161 1.524 . S
C1162 C1163 1.415 . S
C1163 H1133 0.950 . S
C1163 C1158 1.363 . S
C1163 C1162 1.415 . S
H1164 C1161 0.999 . S
H1165 C1146 0.913 . S
H1166 C1184 0.951 . S
H1167 C1186 0.951 . S
H1168 C1188 0.950 . S
H1169 C1189 0.950 . S
H1170 C1191 0.950 . S
H1171 C1194 0.950 . S
H1172 C1195 0.950 . S
H1173 C1197 0.950 . S
H1174 C1198 0.950 . S
H1175 C1199 0.951 . S
H1176 C1201 0.951 . S
H1177 C1203 0.950 . S
H1178 C1204 0.950 . S
H1179 C1206 0.950 . S
H1180 C1209 0.950 . S
H1181 C1210 0.950 . S
H1182 C1212 0.950 . S
H1183 C1213 0.950 . S
C1184 H1166 0.951 . S
C1184 C1185 1.366 . S
C1184 C1186 1.388 . S
C1185 C1184 1.366 . S
C1185 C1189 1.385 . S
C1186 H1167 0.951 . S
C1186 C1184 1.388 . S
C1186 C1187 1.366 . S
C1187 C1186 1.366 . S
C1187 C1188 1.414 . S
C1187 C1190 1.499 . S
C1188 H1168 0.950 . S
C1188 C1187 1.414 . S
C1188 C1189 1.374 . S
C1189 H1169 0.950 . S
C1189 C1185 1.385 . S
C1189 C1188 1.374 . S
C1190 C1187 1.499 . S
C1190 C1191 1.373 . S
C1190 C1192 1.389 . S
C1191 H1170 0.950 . S
C1191 C1190 1.373 . S
C1191 C1207 1.377 . S
C1192 C1190 1.389 . S
C1192 C1193 1.524 . S
C1192 C1206 1.377 . S
C1193 C1192 1.524 . S
C1193 C1194 1.397 . S
C1193 C1198 1.363 . S
C1194 H1171 0.950 . S
C1194 C1193 1.397 . S
C1194 C1195 1.334 . S
C1195 H1172 0.950 . S
C1195 C1194 1.334 . S
C1195 C1196 1.287 . S
C1196 C1195 1.287 . S
C1196 C1197 1.524 . S
C1196 H1215 0.913 . S
C1197 H1173 0.950 . S
C1197 C1196 1.524 . S
C1197 C1198 1.415 . S
C1198 H1174 0.950 . S
C1198 C1193 1.363 . S
C1198 C1197 1.415 . S
C1199 H1175 0.951 . S
C1199 C1200 1.366 . S
C1199 C1201 1.388 . S
C1200 C1199 1.366 . S
C1200 C1204 1.385 . S
C1201 H1176 0.951 . S
C1201 C1199 1.388 . S
C1201 C1202 1.366 . S
C1202 C1201 1.366 . S
C1202 C1203 1.414 . S
C1202 C1205 1.499 . S
C1203 H1177 0.950 . S
C1203 C1202 1.414 . S
C1203 C1204 1.374 . S
C1204 H1178 0.950 . S
C1204 C1200 1.385 . S
C1204 C1203 1.374 . S
C1205 C1202 1.499 . S
C1205 C1206 1.373 . S
C1205 C1207 1.389 . S
C1206 H1179 0.950 . S
C1206 C1192 1.377 . S
C1206 C1205 1.373 . S
C1207 C1191 1.377 . S
C1207 C1205 1.389 . S
C1207 C1208 1.524 . S
C1208 C1207 1.524 . S
C1208 C1209 1.397 . S
C1208 C1213 1.363 . S
C1209 H1180 0.950 . S
C1209 C1208 1.397 . S
C1209 C1210 1.334 . S
C1210 H1181 0.950 . S
C1210 C1209 1.334 . S
C1210 C1211 1.287 . S
C1211 C1210 1.287 . S
C1211 C1212 1.524 . S
C1211 H1214 0.999 . S
C1212 H1182 0.950 . S
C1212 C1211 1.524 . S
C1212 C1213 1.415 . S
C1213 H1183 0.950 . S
C1213 C1208 1.363 . S
C1213 C1212 1.415 . S
H1214 C1211 0.999 . S
H1215 C1196 0.913 . S
H1216 C1234 0.951 . S
H1217 C1236 0.951 . S
H1218 C1238 0.950 . S
H1219 C1239 0.950 . S
H1220 C1241 0.950 . S
H1221 C1244 0.950 . S
H1222 C1245 0.950 . S
H1223 C1247 0.950 . S
H1224 C1248 0.950 . S
H1225 C1249 0.951 . S
H1226 C1251 0.951 . S
H1227 C1253 0.950 . S
H1228 C1254 0.950 . S
H1229 C1256 0.950 . S
H1230 C1259 0.950 . S
H1231 C1260 0.950 . S
H1232 C1262 0.950 . S
H1233 C1263 0.950 . S
C1234 H1216 0.951 . S
C1234 C1235 1.366 . S
C1234 C1236 1.388 . S
C1235 C1234 1.366 . S
C1235 C1239 1.385 . S
C1236 H1217 0.951 . S
C1236 C1234 1.388 . S
C1236 C1237 1.366 . S
C1237 C1236 1.366 . S
C1237 C1238 1.414 . S
C1237 C1240 1.499 . S
C1238 H1218 0.950 . S
C1238 C1237 1.414 . S
C1238 C1239 1.374 . S
C1239 H1219 0.950 . S
C1239 C1235 1.385 . S
C1239 C1238 1.374 . S
C1240 C1237 1.499 . S
C1240 C1241 1.373 . S
C1240 C1242 1.389 . S
C1241 H1220 0.950 . S
C1241 C1240 1.373 . S
C1241 C1257 1.377 . S
C1242 C1240 1.389 . S
C1242 C1243 1.524 . S
C1242 C1256 1.377 . S
C1243 C1242 1.524 . S
C1243 C1244 1.397 . S
C1243 C1248 1.363 . S
C1244 H1221 0.950 . S
C1244 C1243 1.397 . S
C1244 C1245 1.334 . S
C1245 H1222 0.950 . S
C1245 C1244 1.334 . S
C1245 C1246 1.287 . S
C1246 C1245 1.287 . S
C1246 C1247 1.524 . S
C1246 H1265 0.913 . S
C1247 H1223 0.950 . S
C1247 C1246 1.524 . S
C1247 C1248 1.415 . S
C1248 H1224 0.950 . S
C1248 C1243 1.363 . S
C1248 C1247 1.415 . S
C1249 H1225 0.951 . S
C1249 C1250 1.366 . S
C1249 C1251 1.388 . S
C1250 C1249 1.366 . S
C1250 C1254 1.385 . S
C1251 H1226 0.951 . S
C1251 C1249 1.388 . S
C1251 C1252 1.366 . S
C1252 C1251 1.366 . S
C1252 C1253 1.414 . S
C1252 C1255 1.499 . S
C1253 H1227 0.950 . S
C1253 C1252 1.414 . S
C1253 C1254 1.374 . S
C1254 H1228 0.950 . S
C1254 C1250 1.385 . S
C1254 C1253 1.374 . S
C1255 C1252 1.499 . S
C1255 C1256 1.373 . S
C1255 C1257 1.389 . S
C1256 H1229 0.950 . S
C1256 C1242 1.377 . S
C1256 C1255 1.373 . S
C1257 C1241 1.377 . S
C1257 C1255 1.389 . S
C1257 C1258 1.524 . S
C1258 C1257 1.524 . S
C1258 C1259 1.397 . S
C1258 C1263 1.363 . S
C1259 H1230 0.950 . S
C1259 C1258 1.397 . S
C1259 C1260 1.334 . S
C1260 H1231 0.950 . S
C1260 C1259 1.334 . S
C1260 C1261 1.287 . S
C1261 C1260 1.287 . S
C1261 C1262 1.524 . S
C1261 H1264 0.999 . S
C1262 H1232 0.950 . S
C1262 C1261 1.524 . S
C1262 C1263 1.415 . S
C1263 H1233 0.950 . S
C1263 C1258 1.363 . S
C1263 C1262 1.415 . S
H1264 C1261 0.999 . S
H1265 C1246 0.913 . S
H1266 C1284 0.951 . S
H1267 C1286 0.951 . S
H1268 C1288 0.950 . S
H1269 C1289 0.950 . S
H1270 C1291 0.950 . S
H1271 C1294 0.950 . S
H1272 C1295 0.950 . S
H1273 C1297 0.950 . S
H1274 C1298 0.950 . S
H1275 C1299 0.951 . S
H1276 C1301 0.951 . S
H1277 C1303 0.950 . S
H1278 C1304 0.950 . S
H1279 C1306 0.950 . S
H1280 C1309 0.950 . S
H1281 C1310 0.950 . S
H1282 C1312 0.950 . S
H1283 C1313 0.950 . S
C1284 H1266 0.951 . S
C1284 C1285 1.366 . S
C1284 C1286 1.388 . S
C1285 C1284 1.366 . S
C1285 C1289 1.385 . S
C1286 H1267 0.951 . S
C1286 C1284 1.388 . S
C1286 C1287 1.366 . S
C1287 C1286 1.366 . S
C1287 C1288 1.414 . S
C1287 C1290 1.499 . S
C1288 H1268 0.950 . S
C1288 C1287 1.414 . S
C1288 C1289 1.374 . S
C1289 H1269 0.950 . S
C1289 C1285 1.385 . S
C1289 C1288 1.374 . S
C1290 C1287 1.499 . S
C1290 C1291 1.373 . S
C1290 C1292 1.389 . S
C1291 H1270 0.950 . S
C1291 C1290 1.373 . S
C1291 C1307 1.377 . S
C1292 C1290 1.389 . S
C1292 C1293 1.524 . S
C1292 C1306 1.377 . S
C1293 C1292 1.524 . S
C1293 C1294 1.397 . S
C1293 C1298 1.363 . S
C1294 H1271 0.950 . S
C1294 C1293 1.397 . S
C1294 C1295 1.334 . S
C1295 H1272 0.950 . S
C1295 C1294 1.334 . S
C1295 C1296 1.287 . S
C1296 C1295 1.287 . S
C1296 C1297 1.524 . S
C1296 H1315 0.913 . S
C1297 H1273 0.950 . S
C1297 C1296 1.524 . S
C1297 C1298 1.415 . S
C1298 H1274 0.950 . S
C1298 C1293 1.363 . S
C1298 C1297 1.415 . S
C1299 H1275 0.951 . S
C1299 C1300 1.366 . S
C1299 C1301 1.388 . S
C1300 C1299 1.366 . S
C1300 C1304 1.385 . S
C1301 H1276 0.951 . S
C1301 C1299 1.388 . S
C1301 C1302 1.366 . S
C1302 C1301 1.366 . S
C1302 C1303 1.414 . S
C1302 C1305 1.499 . S
C1303 H1277 0.950 . S
C1303 C1302 1.414 . S
C1303 C1304 1.374 . S
C1304 H1278 0.950 . S
C1304 C1300 1.385 . S
C1304 C1303 1.374 . S
C1305 C1302 1.499 . S
C1305 C1306 1.373 . S
C1305 C1307 1.389 . S
C1306 H1279 0.950 . S
C1306 C1292 1.377 . S
C1306 C1305 1.373 . S
C1307 C1291 1.377 . S
C1307 C1305 1.389 . S
C1307 C1308 1.524 . S
C1308 C1307 1.524 . S
C1308 C1309 1.397 . S
C1308 C1313 1.363 . S
C1309 H1280 0.950 . S
C1309 C1308 1.397 . S
C1309 C1310 1.334 . S
C1310 H1281 0.950 . S
C1310 C1309 1.334 . S
C1310 C1311 1.287 . S
C1311 C1310 1.287 . S
C1311 C1312 1.524 . S
C1311 H1314 0.999 . S
C1312 H1282 0.950 . S
C1312 C1311 1.524 . S
C1312 C1313 1.415 . S
C1313 H1283 0.950 . S
C1313 C1308 1.363 . S
C1313 C1312 1.415 . S
H1314 C1311 0.999 . S
H1315 C1296 0.913 . S
H1316 C1334 0.951 . S
H1317 C1336 0.951 . S
H1318 C1338 0.950 . S
H1319 C1339 0.950 . S
H1320 C1341 0.950 . S
H1321 C1344 0.950 . S
H1322 C1345 0.950 . S
H1323 C1347 0.950 . S
H1324 C1348 0.950 . S
H1325 C1349 0.951 . S
H1326 C1351 0.951 . S
H1327 C1353 0.950 . S
H1328 C1354 0.950 . S
H1329 C1356 0.950 . S
H1330 C1359 0.950 . S
H1331 C1360 0.950 . S
H1332 C1362 0.950 . S
H1333 C1363 0.950 . S
C1334 H1316 0.951 . S
C1334 C1335 1.366 . S
C1334 C1336 1.388 . S
C1335 C1334 1.366 . S
C1335 C1339 1.385 . S
C1336 H1317 0.951 . S
C1336 C1334 1.388 . S
C1336 C1337 1.366 . S
C1337 C1336 1.366 . S
C1337 C1338 1.414 . S
C1337 C1340 1.499 . S
C1338 H1318 0.950 . S
C1338 C1337 1.414 . S
C1338 C1339 1.374 . S
C1339 H1319 0.950 . S
C1339 C1335 1.385 . S
C1339 C1338 1.374 . S
C1340 C1337 1.499 . S
C1340 C1341 1.373 . S
C1340 C1342 1.389 . S
C1341 H1320 0.950 . S
C1341 C1340 1.373 . S
C1341 C1357 1.377 . S
C1342 C1340 1.389 . S
C1342 C1343 1.524 . S
C1342 C1356 1.377 . S
C1343 C1342 1.524 . S
C1343 C1344 1.397 . S
C1343 C1348 1.363 . S
C1344 H1321 0.950 . S
C1344 C1343 1.397 . S
C1344 C1345 1.334 . S
C1345 H1322 0.950 . S
C1345 C1344 1.334 . S
C1345 C1346 1.287 . S
C1346 C1345 1.287 . S
C1346 C1347 1.524 . S
C1346 H1365 0.913 . S
C1347 H1323 0.950 . S
C1347 C1346 1.524 . S
C1347 C1348 1.415 . S
C1348 H1324 0.950 . S
C1348 C1343 1.363 . S
C1348 C1347 1.415 . S
C1349 H1325 0.951 . S
C1349 C1350 1.366 . S
C1349 C1351 1.388 . S
C1350 C1349 1.366 . S
C1350 C1354 1.385 . S
C1351 H1326 0.951 . S
C1351 C1349 1.388 . S
C1351 C1352 1.366 . S
C1352 C1351 1.366 . S
C1352 C1353 1.414 . S
C1352 C1355 1.499 . S
C1353 H1327 0.950 . S
C1353 C1352 1.414 . S
C1353 C1354 1.374 . S
C1354 H1328 0.950 . S
C1354 C1350 1.385 . S
C1354 C1353 1.374 . S
C1355 C1352 1.499 . S
C1355 C1356 1.373 . S
C1355 C1357 1.389 . S
C1356 H1329 0.950 . S
C1356 C1342 1.377 . S
C1356 C1355 1.373 . S
C1357 C1341 1.377 . S
C1357 C1355 1.389 . S
C1357 C1358 1.524 . S
C1358 C1357 1.524 . S
C1358 C1359 1.397 . S
C1358 C1363 1.363 . S
C1359 H1330 0.950 . S
C1359 C1358 1.397 . S
C1359 C1360 1.334 . S
C1360 H1331 0.950 . S
C1360 C1359 1.334 . S
C1360 C1361 1.287 . S
C1361 C1360 1.287 . S
C1361 C1362 1.524 . S
C1361 H1364 0.999 . S
C1362 H1332 0.950 . S
C1362 C1361 1.524 . S
C1362 C1363 1.415 . S
C1363 H1333 0.950 . S
C1363 C1358 1.363 . S
C1363 C1362 1.415 . S
H1364 C1361 0.999 . S
H1365 C1346 0.913 . S
H1366 C1384 0.951 . S
H1367 C1386 0.951 . S
H1368 C1388 0.950 . S
H1369 C1389 0.950 . S
H1370 C1391 0.950 . S
H1371 C1394 0.950 . S
H1372 C1395 0.950 . S
H1373 C1397 0.950 . S
H1374 C1398 0.950 . S
H1375 C1399 0.951 . S
H1376 C1401 0.951 . S
H1377 C1403 0.950 . S
H1378 C1404 0.950 . S
H1379 C1406 0.950 . S
H1380 C1409 0.950 . S
H1381 C1410 0.950 . S
H1382 C1412 0.950 . S
H1383 C1413 0.950 . S
C1384 H1366 0.951 . S
C1384 C1385 1.366 . S
C1384 C1386 1.388 . S
C1385 C1384 1.366 . S
C1385 C1389 1.385 . S
C1386 H1367 0.951 . S
C1386 C1384 1.388 . S
C1386 C1387 1.366 . S
C1387 C1386 1.366 . S
C1387 C1388 1.414 . S
C1387 C1390 1.499 . S
C1388 H1368 0.950 . S
C1388 C1387 1.414 . S
C1388 C1389 1.374 . S
C1389 H1369 0.950 . S
C1389 C1385 1.385 . S
C1389 C1388 1.374 . S
C1390 C1387 1.499 . S
C1390 C1391 1.373 . S
C1390 C1392 1.389 . S
C1391 H1370 0.950 . S
C1391 C1390 1.373 . S
C1391 C1407 1.377 . S
C1392 C1390 1.389 . S
C1392 C1393 1.524 . S
C1392 C1406 1.377 . S
C1393 C1392 1.524 . S
C1393 C1394 1.397 . S
C1393 C1398 1.363 . S
C1394 H1371 0.950 . S
C1394 C1393 1.397 . S
C1394 C1395 1.334 . S
C1395 H1372 0.950 . S
C1395 C1394 1.334 . S
C1395 C1396 1.287 . S
C1396 C1395 1.287 . S
C1396 C1397 1.524 . S
C1396 H1415 0.913 . S
C1397 H1373 0.950 . S
C1397 C1396 1.524 . S
C1397 C1398 1.415 . S
C1398 H1374 0.950 . S
C1398 C1393 1.363 . S
C1398 C1397 1.415 . S
C1399 H1375 0.951 . S
C1399 C1400 1.366 . S
C1399 C1401 1.388 . S
C1400 C1399 1.366 . S
C1400 C1404 1.385 . S
C1401 H1376 0.951 . S
C1401 C1399 1.388 . S
C1401 C1402 1.366 . S
C1402 C1401 1.366 . S
C1402 C1403 1.414 . S
C1402 C1405 1.499 . S
C1403 H1377 0.950 . S
C1403 C1402 1.414 . S
C1403 C1404 1.374 . S
C1404 H1378 0.950 . S
C1404 C1400 1.385 . S
C1404 C1403 1.374 . S
C1405 C1402 1.499 . S
C1405 C1406 1.373 . S
C1405 C1407 1.389 . S
C1406 H1379 0.950 . S
C1406 C1392 1.377 . S
C1406 C1405 1.373 . S
C1407 C1391 1.377 . S
C1407 C1405 1.389 . S
C1407 C1408 1.524 . S
C1408 C1407 1.524 . S
C1408 C1409 1.397 . S
C1408 C1413 1.363 . S
C1409 H1380 0.950 . S
C1409 C1408 1.397 . S
C1409 C1410 1.334 . S
C1410 H1381 0.950 . S
C1410 C1409 1.334 . S
C1410 C1411 1.287 . S
C1411 C1410 1.287 . S
C1411 C1412 1.524 . S
C1411 H1414 0.999 . S
C1412 H1382 0.950 . S
C1412 C1411 1.524 . S
C1412 C1413 1.415 . S
C1413 H1383 0.950 . S
C1413 C1408 1.363 . S
C1413 C1412 1.415 . S
H1414 C1411 0.999 . S
H1415 C1396 0.913 . S
H1416 C1434 0.951 . S
H1417 C1436 0.951 . S
H1418 C1438 0.950 . S
H1419 C1439 0.950 . S
H1420 C1441 0.950 . S
H1421 C1444 0.950 . S
H1422 C1445 0.950 . S
H1423 C1447 0.950 . S
H1424 C1448 0.950 . S
H1425 C1449 0.951 . S
H1426 C1451 0.951 . S
H1427 C1453 0.950 . S
H1428 C1454 0.950 . S
H1429 C1456 0.950 . S
H1430 C1459 0.950 . S
H1431 C1460 0.950 . S
H1432 C1462 0.950 . S
H1433 C1463 0.950 . S
C1434 H1416 0.951 . S
C1434 C1435 1.366 . S
C1434 C1436 1.388 . S
C1435 C1434 1.366 . S
C1435 C1439 1.385 . S
C1436 H1417 0.951 . S
C1436 C1434 1.388 . S
C1436 C1437 1.366 . S
C1437 C1436 1.366 . S
C1437 C1438 1.414 . S
C1437 C1440 1.499 . S
C1438 H1418 0.950 . S
C1438 C1437 1.414 . S
C1438 C1439 1.374 . S
C1439 H1419 0.950 . S
C1439 C1435 1.385 . S
C1439 C1438 1.374 . S
C1440 C1437 1.499 . S
C1440 C1441 1.373 . S
C1440 C1442 1.389 . S
C1441 H1420 0.950 . S
C1441 C1440 1.373 . S
C1441 C1457 1.377 . S
C1442 C1440 1.389 . S
C1442 C1443 1.524 . S
C1442 C1456 1.377 . S
C1443 C1442 1.524 . S
C1443 C1444 1.397 . S
C1443 C1448 1.363 . S
C1444 H1421 0.950 . S
C1444 C1443 1.397 . S
C1444 C1445 1.334 . S
C1445 H1422 0.950 . S
C1445 C1444 1.334 . S
C1445 C1446 1.287 . S
C1446 C1445 1.287 . S
C1446 C1447 1.524 . S
C1446 H1465 0.913 . S
C1447 H1423 0.950 . S
C1447 C1446 1.524 . S
C1447 C1448 1.415 . S
C1448 H1424 0.950 . S
C1448 C1443 1.363 . S
C1448 C1447 1.415 . S
C1449 H1425 0.951 . S
C1449 C1450 1.366 . S
C1449 C1451 1.388 . S
C1450 C1449 1.366 . S
C1450 C1454 1.385 . S
C1451 H1426 0.951 . S
C1451 C1449 1.388 . S
C1451 C1452 1.366 . S
C1452 C1451 1.366 . S
C1452 C1453 1.414 . S
C1452 C1455 1.499 . S
C1453 H1427 0.950 . S
C1453 C1452 1.414 . S
C1453 C1454 1.374 . S
C1454 H1428 0.950 . S
C1454 C1450 1.385 . S
C1454 C1453 1.374 . S
C1455 C1452 1.499 . S
C1455 C1456 1.373 . S
C1455 C1457 1.389 . S
C1456 H1429 0.950 . S
C1456 C1442 1.377 . S
C1456 C1455 1.373 . S
C1457 C1441 1.377 . S
C1457 C1455 1.389 . S
C1457 C1458 1.524 . S
C1458 C1457 1.524 . S
C1458 C1459 1.397 . S
C1458 C1463 1.363 . S
C1459 H1430 0.950 . S
C1459 C1458 1.397 . S
C1459 C1460 1.334 . S
C1460 H1431 0.950 . S
C1460 C1459 1.334 . S
C1460 C1461 1.287 . S
C1461 C1460 1.287 . S
C1461 C1462 1.524 . S
C1461 H1464 0.999 . S
C1462 H1432 0.950 . S
C1462 C1461 1.524 . S
C1462 C1463 1.415 . S
C1463 H1433 0.950 . S
C1463 C1458 1.363 . S
C1463 C1462 1.415 . S
H1464 C1461 0.999 . S
H1465 C1446 0.913 . S
H1466 C1484 0.951 . S
H1467 C1486 0.951 . S
H1468 C1488 0.950 . S
H1469 C1489 0.950 . S
H1470 C1491 0.950 . S
H1471 C1494 0.950 . S
H1472 C1495 0.950 . S
H1473 C1497 0.950 . S
H1474 C1498 0.950 . S
H1475 C1499 0.951 . S
H1476 C1501 0.951 . S
H1477 C1503 0.950 . S
H1478 C1504 0.950 . S
H1479 C1506 0.950 . S
H1480 C1509 0.950 . S
H1481 C1510 0.950 . S
H1482 C1512 0.950 . S
H1483 C1513 0.950 . S
C1484 H1466 0.951 . S
C1484 C1485 1.366 . S
C1484 C1486 1.388 . S
C1485 C1484 1.366 . S
C1485 C1489 1.385 . S
C1486 H1467 0.951 . S
C1486 C1484 1.388 . S
C1486 C1487 1.366 . S
C1487 C1486 1.366 . S
C1487 C1488 1.414 . S
C1487 C1490 1.499 . S
C1488 H1468 0.950 . S
C1488 C1487 1.414 . S
C1488 C1489 1.374 . S
C1489 H1469 0.950 . S
C1489 C1485 1.385 . S
C1489 C1488 1.374 . S
C1490 C1487 1.499 . S
C1490 C1491 1.373 . S
C1490 C1492 1.389 . S
C1491 H1470 0.950 . S
C1491 C1490 1.373 . S
C1491 C1507 1.377 . S
C1492 C1490 1.389 . S
C1492 C1493 1.524 . S
C1492 C1506 1.377 . S
C1493 C1492 1.524 . S
C1493 C1494 1.397 . S
C1493 C1498 1.363 . S
C1494 H1471 0.950 . S
C1494 C1493 1.397 . S
C1494 C1495 1.334 . S
C1495 H1472 0.950 . S
C1495 C1494 1.334 . S
C1495 C1496 1.287 . S
C1496 C1495 1.287 . S
C1496 C1497 1.524 . S
C1496 H1515 0.913 . S
C1497 H1473 0.950 . S
C1497 C1496 1.524 . S
C1497 C1498 1.415 . S
C1498 H1474 0.950 . S
C1498 C1493 1.363 . S
C1498 C1497 1.415 . S
C1499 H1475 0.951 . S
C1499 C1500 1.366 . S
C1499 C1501 1.388 . S
C1500 C1499 1.366 . S
C1500 C1504 1.385 . S
C1501 H1476 0.951 . S
C1501 C1499 1.388 . S
C1501 C1502 1.366 . S
C1502 C1501 1.366 . S
C1502 C1503 1.414 . S
C1502 C1505 1.499 . S
C1503 H1477 0.950 . S
C1503 C1502 1.414 . S
C1503 C1504 1.374 . S
C1504 H1478 0.950 . S
C1504 C1500 1.385 . S
C1504 C1503 1.374 . S
C1505 C1502 1.499 . S
C1505 C1506 1.373 . S
C1505 C1507 1.389 . S
C1506 H1479 0.950 . S
C1506 C1492 1.377 . S
C1506 C1505 1.373 . S
C1507 C1491 1.377 . S
C1507 C1505 1.389 . S
C1507 C1508 1.524 . S
C1508 C1507 1.524 . S
C1508 C1509 1.397 . S
C1508 C1513 1.363 . S
C1509 H1480 0.950 . S
C1509 C1508 1.397 . S
C1509 C1510 1.334 . S
C1510 H1481 0.950 . S
C1510 C1509 1.334 . S
C1510 C1511 1.287 . S
C1511 C1510 1.287 . S
C1511 C1512 1.524 . S
C1511 H1514 0.999 . S
C1512 H1482 0.950 . S
C1512 C1511 1.524 . S
C1512 C1513 1.415 . S
C1513 H1483 0.950 . S
C1513 C1508 1.363 . S
C1513 C1512 1.415 . S
H1514 C1511 0.999 . S
H1515 C1496 0.913 . S
H1516 C1534 0.951 . S
H1517 C1536 0.951 . S
H1518 C1538 0.950 . S
H1519 C1539 0.950 . S
H1520 C1541 0.950 . S
H1521 C1544 0.950 . S
H1522 C1545 0.950 . S
H1523 C1547 0.950 . S
H1524 C1548 0.950 . S
H1525 C1549 0.951 . S
H1526 C1551 0.951 . S
H1527 C1553 0.950 . S
H1528 C1554 0.950 . S
H1529 C1556 0.950 . S
H1530 C1559 0.950 . S
H1531 C1560 0.950 . S
H1532 C1562 0.950 . S
H1533 C1563 0.950 . S
C1534 H1516 0.951 . S
C1534 C1535 1.366 . S
C1534 C1536 1.388 . S
C1535 C1534 1.366 . S
C1535 C1539 1.385 . S
C1536 H1517 0.951 . S
C1536 C1534 1.388 . S
C1536 C1537 1.366 . S
C1537 C1536 1.366 . S
C1537 C1538 1.414 . S
C1537 C1540 1.499 . S
C1538 H1518 0.950 . S
C1538 C1537 1.414 . S
C1538 C1539 1.374 . S
C1539 H1519 0.950 . S
C1539 C1535 1.385 . S
C1539 C1538 1.374 . S
C1540 C1537 1.499 . S
C1540 C1541 1.373 . S
C1540 C1542 1.389 . S
C1541 H1520 0.950 . S
C1541 C1540 1.373 . S
C1541 C1557 1.377 . S
C1542 C1540 1.389 . S
C1542 C1543 1.524 . S
C1542 C1556 1.377 . S
C1543 C1542 1.524 . S
C1543 C1544 1.397 . S
C1543 C1548 1.363 . S
C1544 H1521 0.950 . S
C1544 C1543 1.397 . S
C1544 C1545 1.334 . S
C1545 H1522 0.950 . S
C1545 C1544 1.334 . S
C1545 C1546 1.287 . S
C1546 C1545 1.287 . S
C1546 C1547 1.524 . S
C1546 H1565 0.913 . S
C1547 H1523 0.950 . S
C1547 C1546 1.524 . S
C1547 C1548 1.415 . S
C1548 H1524 0.950 . S
C1548 C1543 1.363 . S
C1548 C1547 1.415 . S
C1549 H1525 0.951 . S
C1549 C1550 1.366 . S
C1549 C1551 1.388 . S
C1550 C1549 1.366 . S
C1550 C1554 1.385 . S
C1551 H1526 0.951 . S
C1551 C1549 1.388 . S
C1551 C1552 1.366 . S
C1552 C1551 1.366 . S
C1552 C1553 1.414 . S
C1552 C1555 1.499 . S
C1553 H1527 0.950 . S
C1553 C1552 1.414 . S
C1553 C1554 1.374 . S
C1554 H1528 0.950 . S
C1554 C1550 1.385 . S
C1554 C1553 1.374 . S
C1555 C1552 1.499 . S
C1555 C1556 1.373 . S
C1555 C1557 1.389 . S
C1556 H1529 0.950 . S
C1556 C1542 1.377 . S
C1556 C1555 1.373 . S
C1557 C1541 1.377 . S
C1557 C1555 1.389 . S
C1557 C1558 1.524 . S
C1558 C1557 1.524 . S
C1558 C1559 1.397 . S
C1558 C1563 1.363 . S
C1559 H1530 0.950 . S
C1559 C1558 1.397 . S
C1559 C1560 1.334 . S
C1560 H1531 0.950 . S
C1560 C1559 1.334 . S
C1560 C1561 1.287 . S
C1561 C1560 1.287 . S
C1561 C1562 1.524 . S
C1561 H1564 0.999 . S
C1562 H1532 0.950 . S
C1562 C1561 1.524 . S
C1562 C1563 1.415 . S
C1563 H1533 0.950 . S
C1563 C1558 1.363 . S
C1563 C1562 1.415 . S
H1564 C1561 0.999 . S
H1565 C1546 0.913 . S
H1566 C1584 0.951 . S
H1567 C1586 0.951 . S
H1568 C1588 0.950 . S
H1569 C1589 0.950 . S
H1570 C1591 0.950 . S
H1571 C1594 0.950 . S
H1572 C1595 0.950 . S
H1573 C1597 0.950 . S
H1574 C1598 0.950 . S
H1575 C1599 0.951 . S
H1576 C1601 0.951 . S
H1577 C1603 0.950 . S
H1578 C1604 0.950 . S
H1579 C1606 0.950 . S
H1580 C1609 0.950 . S
H1581 C1610 0.950 . S
H1582 C1612 0.950 . S
H1583 C1613 0.950 . S
C1584 H1566 0.951 . S
C1584 C1585 1.366 . S
C1584 C1586 1.388 . S
C1585 C1584 1.366 . S
C1585 C1589 1.385 . S
C1586 H1567 0.951 . S
C1586 C1584 1.388 . S
C1586 C1587 1.366 . S
C1587 C1586 1.366 . S
C1587 C1588 1.414 . S
C1587 C1590 1.499 . S
C1588 H1568 0.950 . S
C1588 C1587 1.414 . S
C1588 C1589 1.374 . S
C1589 H1569 0.950 . S
C1589 C1585 1.385 . S
C1589 C1588 1.374 . S
C1590 C1587 1.499 . S
C1590 C1591 1.373 . S
C1590 C1592 1.389 . S
C1591 H1570 0.950 . S
C1591 C1590 1.373 . S
C1591 C1607 1.377 . S
C1592 C1590 1.389 . S
C1592 C1593 1.524 . S
C1592 C1606 1.377 . S
C1593 C1592 1.524 . S
C1593 C1594 1.397 . S
C1593 C1598 1.363 . S
C1594 H1571 0.950 . S
C1594 C1593 1.397 . S
C1594 C1595 1.334 . S
C1595 H1572 0.950 . S
C1595 C1594 1.334 . S
C1595 C1596 1.287 . S
C1596 C1595 1.287 . S
C1596 C1597 1.524 . S
C1596 H1615 0.913 . S
C1597 H1573 0.950 . S
C1597 C1596 1.524 . S
C1597 C1598 1.415 . S
C1598 H1574 0.950 . S
C1598 C1593 1.363 . S
C1598 C1597 1.415 . S
C1599 H1575 0.951 . S
C1599 C1600 1.366 . S
C1599 C1601 1.388 . S
C1600 C1599 1.366 . S
C1600 C1604 1.385 . S
C1601 H1576 0.951 . S
C1601 C1599 1.388 . S
C1601 C1602 1.366 . S
C1602 C1601 1.366 . S
C1602 C1603 1.414 . S
C1602 C1605 1.499 . S
C1603 H1577 0.950 . S
C1603 C1602 1.414 . S
C1603 C1604 1.374 . S
C1604 H1578 0.950 . S
C1604 C1600 1.385 . S
C1604 C1603 1.374 . S
C1605 C1602 1.499 . S
C1605 C1606 1.373 . S
C1605 C1607 1.389 . S
C1606 H1579 0.950 . S
C1606 C1592 1.377 . S
C1606 C1605 1.373 . S
C1607 C1591 1.377 . S
C1607 C1605 1.389 . S
C1607 C1608 1.524 . S
C1608 C1607 1.524 . S
C1608 C1609 1.397 . S
C1608 C1613 1.363 . S
C1609 H1580 0.950 . S
C1609 C1608 1.397 . S
C1609 C1610 1.334 . S
C1610 H1581 0.950 . S
C1610 C1609 1.334 . S
C1610 C1611 1.287 . S
C1611 C1610 1.287 . S
C1611 C1612 1.524 . S
C1611 H1614 0.999 . S
C1612 H1582 0.950 . S
C1612 C1611 1.524 . S
C1612 C1613 1.415 . S
C1613 H1583 0.950 . S
C1613 C1608 1.363 . S
C1613 C1612 1.415 . S
H1614 C1611 0.999 . S
H1615 C1596 0.913 . S
C435 C29 1.233 . S
C450 C263 1.236 . S
C485 C49 0.893 . S
C500 C312 0.904 . S
C550 C338 2.454 . S
C535 C93 2.441 . S
C585 C119 2.219 . S
C600 C386 2.210 . S
C650 C298 2.352 . S
C635 C17 2.344 . S
C700 C266 0.930 . S
C685 C61 0.944 . S
C750 C387 1.848 . S
C735 C81 1.854 . S
C800 C355 1.543 . S
C785 C125 1.532 . S
C835 C23 1.667 . S
C850 C383 1.668 . S
C900 C315 2.273 . S
C885 C87 2.305 . S
C935 C113 2.319 . S
C950 C267 2.356 . S
C985 C55 0.755 . S
C1000 C352 0.756 . S
C1050 C272 1.199 . S
C1035 C157 1.089 . S
C1085 C189 0.962 . S
C1100 C303 0.968 . S
C1135 C221 2.390 . S
C1150 C347 2.407 . S
C1185 C253 2.298 . S
C1200 C395 2.302 . S
C1235 C145 2.249 . S
C1250 C307 2.442 . S
C1300 C275 0.872 . S
C1285 C183 0.881 . S
C1350 C378 1.895 . S
C1335 C209 1.880 . S
C1400 C346 1.489 . S
C1385 C247 1.480 . S
C1435 C151 1.551 . S
C1450 C392 1.681 . S
C1500 C306 2.270 . S
C1485 C215 2.293 . S
C1550 C258 2.305 . S
C1535 C241 2.261 . S
C1585 C177 0.750 . S
C1600 C343 0.749 . S
