# Generated by pormake.
# Topology sqc, (4,8)-cn, num edge types: 1
# Building blocks:
#     Node 0, Type 0, BuildingBlock: MIFKUJ_clean_linker_1, # of connection points: 4
#     Node 1, Type 0, BuildingBlock: MIFKUJ_clean_linker_1, # of connection points: 4
#     Node 2, Type 0, BuildingBlock: MIFKUJ_clean_linker_1, # of connection points: 4
#     Node 3, Type 0, BuildingBlock: MIFKUJ_clean_linker_1, # of connection points: 4
#     Node 4, Type 0, BuildingBlock: MIFKUJ_clean_linker_1, # of connection points: 4
#     Node 5, Type 0, BuildingBlock: MIFKUJ_clean_linker_1, # of connection points: 4
#     Node 6, Type 0, BuildingBlock: MIFKUJ_clean_linker_1, # of connection points: 4
#     Node 7, Type 0, BuildingBlock: MIFKUJ_clean_linker_1, # of connection points: 4
#     Node 8, Type 1, BuildingBlock: VETTIZ_charged_sbu_0, # of connection points: 8
#     Node 9, Type 1, BuildingBlock: VETTIZ_charged_sbu_0, # of connection points: 8
#     Node 10, Type 1, BuildingBlock: VETTIZ_charged_sbu_0, # of connection points: 8
#     Node 11, Type 1, BuildingBlock: VETTIZ_charged_sbu_0, # of connection points: 8
#     Edge 12, Type (0, 1), BuildingBlock: TEMPAE_clean_linker_10, # of connection points: 2
#     Edge 13, Type (0, 1), BuildingBlock: TEMPAE_clean_linker_10, # of connection points: 2
#     Edge 14, Type (0, 1), BuildingBlock: TEMPAE_clean_linker_10, # of connection points: 2
#     Edge 15, Type (0, 1), BuildingBlock: TEMPAE_clean_linker_10, # of connection points: 2
#     Edge 16, Type (0, 1), BuildingBlock: TEMPAE_clean_linker_10, # of connection points: 2
#     Edge 17, Type (0, 1), BuildingBlock: TEMPAE_clean_linker_10, # of connection points: 2
#     Edge 18, Type (0, 1), BuildingBlock: TEMPAE_clean_linker_10, # of connection points: 2
#     Edge 19, Type (0, 1), BuildingBlock: TEMPAE_clean_linker_10, # of connection points: 2
#     Edge 20, Type (0, 1), BuildingBlock: TEMPAE_clean_linker_10, # of connection points: 2
#     Edge 21, Type (0, 1), BuildingBlock: TEMPAE_clean_linker_10, # of connection points: 2
#     Edge 22, Type (0, 1), BuildingBlock: TEMPAE_clean_linker_10, # of connection points: 2
#     Edge 23, Type (0, 1), BuildingBlock: TEMPAE_clean_linker_10, # of connection points: 2
#     Edge 24, Type (0, 1), BuildingBlock: TEMPAE_clean_linker_10, # of connection points: 2
#     Edge 25, Type (0, 1), BuildingBlock: TEMPAE_clean_linker_10, # of connection points: 2
#     Edge 26, Type (0, 1), BuildingBlock: TEMPAE_clean_linker_10, # of connection points: 2
#     Edge 27, Type (0, 1), BuildingBlock: TEMPAE_clean_linker_10, # of connection points: 2
#     Edge 28, Type (0, 1), BuildingBlock: TEMPAE_clean_linker_10, # of connection points: 2
#     Edge 29, Type (0, 1), BuildingBlock: TEMPAE_clean_linker_10, # of connection points: 2
#     Edge 30, Type (0, 1), BuildingBlock: TEMPAE_clean_linker_10, # of connection points: 2
#     Edge 31, Type (0, 1), BuildingBlock: TEMPAE_clean_linker_10, # of connection points: 2
#     Edge 32, Type (0, 1), BuildingBlock: TEMPAE_clean_linker_10, # of connection points: 2
#     Edge 33, Type (0, 1), BuildingBlock: TEMPAE_clean_linker_10, # of connection points: 2
#     Edge 34, Type (0, 1), BuildingBlock: TEMPAE_clean_linker_10, # of connection points: 2
#     Edge 35, Type (0, 1), BuildingBlock: TEMPAE_clean_linker_10, # of connection points: 2
#     Edge 36, Type (0, 1), BuildingBlock: TEMPAE_clean_linker_10, # of connection points: 2
#     Edge 37, Type (0, 1), BuildingBlock: TEMPAE_clean_linker_10, # of connection points: 2
#     Edge 38, Type (0, 1), BuildingBlock: TEMPAE_clean_linker_10, # of connection points: 2
#     Edge 39, Type (0, 1), BuildingBlock: TEMPAE_clean_linker_10, # of connection points: 2
#     Edge 40, Type (0, 1), BuildingBlock: TEMPAE_clean_linker_10, # of connection points: 2
#     Edge 41, Type (0, 1), BuildingBlock: TEMPAE_clean_linker_10, # of connection points: 2
#     Edge 42, Type (0, 1), BuildingBlock: TEMPAE_clean_linker_10, # of connection points: 2
#     Edge 43, Type (0, 1), BuildingBlock: TEMPAE_clean_linker_10, # of connection points: 2
# Relax obj value: 0.137
# Max RMSD: 0.270
# Mean RMSD: 0.176
data_MOF--net-sqc--node1-VETTIZ_charged_sbu_0--node2-MIFKUJ_clean_linker_1--edge1-TEMPAE_clean_linker_10
_symmetry_space_group_name_H-M    P1
_symmetry_Int_Tables_number       1
_symmetry_cell_setting            triclinic
loop_
_symmetry_equiv_pos_as_xyz
'x, y, z'
_cell_length_a     28.791242
_cell_length_b     28.736727
_cell_length_c     82.530643
_cell_angle_alpha  89.64578
_cell_angle_beta   89.642737
_cell_angle_gamma 90.001608
loop_
_atom_site_label
_atom_site_type_symbol
_atom_site_fract_x
_atom_site_fract_y
_atom_site_fract_z
_atom_type_partial_charge
H0 H 0.93328 0.94821 0.48563 0.0
H1 H 0.86443 0.93384 0.46937 0.0
H2 H 0.83651 0.0815 0.46754 0.0
H3 H 0.90578 0.09578 0.4839 0.0
H4 H 0.00905 0.99003 0.4783 0.0
H5 H 0.90053 0.00614 0.5211 0.0
H6 H 0.83923 0.03001 0.53988 0.0
H7 H 0.88466 0.17292 0.53531 0.0
H8 H 0.94662 0.14851 0.51686 0.0
H9 H 0.09318 0.13461 0.5153 0.0
H10 H 0.15729 0.15288 0.53339 0.0
H11 H 0.17668 0.00624 0.54311 0.0
H12 H 0.11163 0.98823 0.52517 0.0
H13 H 0.01446 0.09089 0.52672 0.0
H14 H 0.13088 0.06213 0.48429 0.0
H15 H 0.19864 0.02455 0.47207 0.0
H16 H 0.1373 0.88975 0.48176 0.0
H17 H 0.06909 0.92777 0.49341 0.0
C18 C 0.92476 0.02303 0.48603 0.0
C19 C 0.9124 0.97755 0.48175 0.0
C20 C 0.87316 0.96943 0.47236 0.0
C21 C 0.8454 0.00663 0.46695 0.0
C22 C 0.85715 0.05215 0.47154 0.0
C23 C 0.89661 0.06028 0.48095 0.0
C24 C 0.96861 0.03156 0.49492 0.0
C25 C 0.01002 0.01176 0.489 0.0
C26 C 0.97027 0.0599 0.50884 0.0
C27 C 0.92799 0.07559 0.51753 0.0
C28 C 0.89654 0.04275 0.52384 0.0
C29 C 0.86159 0.05646 0.53463 0.0
C30 C 0.85744 0.10331 0.53929 0.0
C31 C 0.88758 0.13641 0.53228 0.0
C32 C 0.92265 0.12263 0.52158 0.0
C33 C 0.0979 0.0601 0.51881 0.0
C34 C 0.11178 0.10636 0.52111 0.0
C35 C 0.1485 0.11672 0.53142 0.0
C36 C 0.17192 0.08098 0.53972 0.0
C37 C 0.15896 0.03449 0.53699 0.0
C38 C 0.12222 0.02413 0.52661 0.0
C39 C 0.05457 0.0503 0.50991 0.0
C40 C 0.0133 0.06972 0.51589 0.0
C41 C 0.05288 0.02027 0.49645 0.0
C42 C 0.09505 0.99771 0.48977 0.0
C43 C 0.13226 0.02448 0.48385 0.0
C44 C 0.17105 1.00288 0.47692 0.0
C45 C 0.1735 0.95402 0.47587 0.0
C46 C 0.13631 0.9274 0.48206 0.0
C47 C 0.09739 0.94905 0.48883 0.0
H48 H 0.24769 0.83092 0.79701 0.0
H49 H 0.22442 0.90335 0.81024 0.0
H50 H 0.16385 0.95203 0.76556 0.0
H51 H 0.1853 0.87895 0.75249 0.0
H52 H 0.20258 0.76394 0.78605 0.0
H53 H 0.31591 0.86106 0.76177 0.0
H54 H 0.35108 0.9281 0.74793 0.0
H55 H 0.26631 0.90187 0.70599 0.0
H56 H 0.23104 0.83495 0.71992 0.0
H57 H 0.20232 0.69095 0.72202 0.0
H58 H 0.2174 0.61989 0.7066 0.0
H59 H 0.30937 0.57178 0.74433 0.0
H60 H 0.29491 0.64324 0.7595 0.0
H61 H 0.26929 0.75623 0.7306 0.0
H62 H 0.16038 0.6508 0.759 0.0
H63 H 0.14142 0.58023 0.77453 0.0
H64 H 0.23958 0.62041 0.81125 0.0
H65 H 0.25883 0.69045 0.79558 0.0
C66 C 0.21875 0.84936 0.77366 0.0
C67 C 0.2294 0.85708 0.79002 0.0
C68 C 0.21619 0.89849 0.79758 0.0
C69 C 0.19247 0.93325 0.78889 0.0
C70 C 0.18263 0.92604 0.77246 0.0
C71 C 0.19514 0.88431 0.76498 0.0
C72 C 0.22997 0.80399 0.7659 0.0
C73 C 0.21781 0.76238 0.77402 0.0
C74 C 0.25022 0.80156 0.75023 0.0
C75 C 0.27052 0.84312 0.74194 0.0
C76 C 0.30462 0.86993 0.74964 0.0
C77 C 0.32501 0.90799 0.74167 0.0
C78 C 0.31152 0.92025 0.72586 0.0
C79 C 0.27718 0.89353 0.71821 0.0
C80 C 0.25715 0.85515 0.72612 0.0
C81 C 0.24734 0.67225 0.74193 0.0
C82 C 0.22547 0.66488 0.727 0.0
C83 C 0.23384 0.62418 0.71827 0.0
C84 C 0.26465 0.59036 0.72424 0.0
C85 C 0.28579 0.59745 0.73935 0.0
C86 C 0.27729 0.63806 0.7481 0.0
C87 C 0.24065 0.71681 0.75057 0.0
C88 C 0.25401 0.75814 0.74263 0.0
C89 C 0.2235 0.71871 0.76667 0.0
C90 C 0.21123 0.67591 0.77607 0.0
C91 C 0.17802 0.64426 0.77035 0.0
C92 C 0.16704 0.60404 0.77928 0.0
C93 C 0.18914 0.5945 0.79411 0.0
C94 C 0.2224 0.62628 0.79978 0.0
C95 C 0.23311 0.6666 0.7909 0.0
H96 H 0.43913 1.00191 0.05588 0.0
H97 H 0.36759 0.96911 0.06734 0.0
H98 H 0.32333 0.92983 0.01946 0.0
H99 H 0.3954 0.96145 0.00806 0.0
H100 H 0.50997 0.97031 0.04165 0.0
H101 H 0.3974 0.07868 0.02726 0.0
H102 H 0.32571 0.11325 0.01685 0.0
H103 H 0.36597 0.07504 0.96827 0.0
H104 H 0.43661 0.03874 0.97871 0.0
H105 H 0.5756 0.9995 0.979 0.0
H106 H 0.64481 0.01877 0.96312 0.0
H107 H 0.6921 0.10773 1.00175 0.0
H108 H 0.62341 0.08654 0.01782 0.0
H109 H 0.50861 0.0668 0.99165 0.0
H110 H 0.62211 0.94901 0.01224 0.0
H111 H 0.69367 0.92675 0.02633 0.0
H112 H 0.65133 0.00881 0.06753 0.0
H113 H 0.58031 0.03115 0.05336 0.0
C114 C 0.42271 0.9848 0.03105 0.0
C115 C 0.41427 0.98598 0.04783 0.0
C116 C 0.37331 0.96721 0.05438 0.0
C117 C 0.33973 0.94701 0.04429 0.0
C118 C 0.34822 0.9457 0.02752 0.0
C119 C 0.38943 0.96391 0.021 0.0
C120 C 0.46645 1.00462 0.02401 0.0
C121 C 0.50942 0.99188 0.03082 0.0
C122 C 0.46614 0.0341 0.01014 0.0
C123 C 0.42244 0.05537 1.00383 0.0
C124 C 0.39057 0.07698 0.01439 0.0
C125 C 0.34969 0.097 0.00845 0.0
C126 C 0.34041 0.09697 0.99176 0.0
C127 C 0.37251 0.076 0.98118 0.0
C128 C 0.41293 0.05525 0.98715 0.0
C129 C 0.5944 0.04149 0.99959 0.0
C130 C 0.60106 0.02296 0.98407 0.0
C131 C 0.64059 0.03433 0.97495 0.0
C132 C 0.67417 0.06517 0.98103 0.0
C133 C 0.66749 0.08338 0.99671 0.0
C134 C 0.62808 0.07153 0.00591 0.0
C135 C 0.55129 0.03022 0.00879 0.0
C136 C 0.50858 0.04518 1.00247 0.0
C137 C 0.55185 0.00497 0.02355 0.0
C138 C 0.59592 0.99192 0.03172 0.0
C139 C 0.6285 0.96252 0.02424 0.0
C140 C 0.66925 0.94966 0.03234 0.0
C141 C 0.67832 0.96619 0.04803 0.0
C142 C 0.64579 0.99602 0.05538 0.0
C143 C 0.60497 0.0085 0.04735 0.0
H144 H 0.20923 0.19862 0.31363 0.0
H145 H 0.24684 0.13912 0.33022 0.0
H146 H 0.31341 0.08376 0.28739 0.0
H147 H 0.27772 0.14486 0.27104 0.0
H148 H 0.25042 0.2652 0.29846 0.0
H149 H 0.14391 0.14763 0.2812 0.0
H150 H 0.12051 0.0713 0.27086 0.0
H151 H 0.20173 0.09595 0.22748 0.0
H152 H 0.22495 0.17207 0.23783 0.0
H153 H 0.21392 0.30652 0.2299 0.0
H154 H 0.19476 0.37219 0.21261 0.0
H155 H 0.1461 0.44789 0.25462 0.0
H156 H 0.15885 0.37972 0.27126 0.0
H157 H 0.17153 0.24742 0.24567 0.0
H158 H 0.29506 0.35408 0.26853 0.0
H159 H 0.32986 0.41754 0.28393 0.0
H160 H 0.21567 0.41069 0.31819 0.0
H161 H 0.18269 0.34582 0.30317 0.0
C162 C 0.24021 0.17615 0.29102 0.0
C163 C 0.23163 0.17342 0.30778 0.0
C164 C 0.25303 0.13917 0.31726 0.0
C165 C 0.28351 0.10674 0.31019 0.0
C166 C 0.29082 0.10862 0.29331 0.0
C167 C 0.2697 0.14311 0.28386 0.0
C168 C 0.22267 0.21649 0.28142 0.0
C169 C 0.23234 0.2612 0.28704 0.0
C170 C 0.19999 0.21162 0.26638 0.0
C171 C 0.18619 0.16538 0.26026 0.0
C172 C 0.15685 0.1364 0.2695 0.0
C173 C 0.14345 0.09296 0.2636 0.0
C174 C 0.15962 0.07769 0.24845 0.0
C175 C 0.18933 0.10662 0.2393 0.0
C176 C 0.20224 0.15023 0.24512 0.0
C177 C 0.18909 0.33794 0.25212 0.0
C178 C 0.19846 0.337 0.23538 0.0
C179 C 0.18817 0.37534 0.22547 0.0
C180 C 0.16928 0.41649 0.23203 0.0
C181 C 0.15993 0.41718 0.24883 0.0
C182 C 0.1686 0.3782 0.2586 0.0
C183 C 0.20016 0.29663 0.26259 0.0
C184 C 0.18926 0.25156 0.25713 0.0
C185 C 0.22158 0.30096 0.27791 0.0
C186 C 0.23637 0.3457 0.28473 0.0
C187 C 0.27712 0.36718 0.27914 0.0
C188 C 0.29688 0.4034 0.28796 0.0
C189 C 0.27589 0.41868 0.30245 0.0
C190 C 0.23332 0.39896 0.30733 0.0
C191 C 0.21409 0.36236 0.29867 0.0
H192 H 0.75991 0.32751 0.24082 0.0
H193 H 0.7842 0.40113 0.22825 0.0
H194 H 0.88035 0.42384 0.26735 0.0
H195 H 0.8556 0.35026 0.27999 0.0
H196 H 0.81186 0.24986 0.24765 0.0
H197 H 0.72107 0.36041 0.27444 0.0
H198 H 0.69829 0.42933 0.28964 0.0
H199 H 0.76798 0.37536 0.33189 0.0
H200 H 0.79278 0.307 0.3164 0.0
H201 H 0.80967 0.1607 0.30939 0.0
H202 H 0.78532 0.08861 0.32313 0.0
H203 H 0.67872 0.06909 0.28725 0.0
H204 H 0.70348 0.14087 0.27347 0.0
H205 H 0.74956 0.23955 0.30372 0.0
H206 H 0.84391 0.12899 0.27313 0.0
H207 H 0.85948 0.06163 0.256 0.0
H208 H 0.76488 0.11612 0.2201 0.0
H209 H 0.75051 0.1839 0.23716 0.0
C210 C 0.80583 0.33353 0.26135 0.0
C211 C 0.78611 0.3484 0.2467 0.0
C212 C 0.79975 0.39055 0.23961 0.0
C213 C 0.83398 0.41818 0.24689 0.0
C214 C 0.85394 0.40312 0.2615 0.0
C215 C 0.83975 0.36127 0.26873 0.0
C216 C 0.79141 0.28867 0.26881 0.0
C217 C 0.79783 0.24763 0.25987 0.0
C218 C 0.77298 0.28609 0.28476 0.0
C219 C 0.75975 0.32864 0.29407 0.0
C220 C 0.73273 0.36375 0.28682 0.0
C221 C 0.71939 0.40314 0.29556 0.0
C222 C 0.73166 0.40792 0.31192 0.0
C223 C 0.75804 0.37259 0.3193 0.0
C224 C 0.77216 0.33349 0.31044 0.0
C225 C 0.75846 0.15594 0.2904 0.0
C226 C 0.78136 0.14059 0.30442 0.0
C227 C 0.76761 0.09941 0.3122 0.0
C228 C 0.73012 0.07344 0.30625 0.0
C229 C 0.70757 0.08865 0.29211 0.0
C230 C 0.72178 0.12943 0.28421 0.0
C231 C 0.77132 0.2009 0.28273 0.0
C232 C 0.76411 0.24198 0.29159 0.0
C233 C 0.78781 0.20368 0.26657 0.0
C234 C 0.79584 0.1615 0.2565 0.0
C235 C 0.82619 0.12619 0.26164 0.0
C236 C 0.83495 0.08754 0.25181 0.0
C237 C 0.81348 0.08318 0.23659 0.0
C238 C 0.78268 0.11847 0.23159 0.0
C239 C 0.7742 0.15722 0.24138 0.0
H240 H 0.67004 0.837 0.74838 0.0
H241 H 0.63738 0.9052 0.73488 0.0
H242 H 0.77612 0.95799 0.72625 0.0
H243 H 0.8083 0.89034 0.74041 0.0
H244 H 0.73131 0.77379 0.73399 0.0
H245 H 0.72669 0.88377 0.77705 0.0
H246 H 0.74348 0.95545 0.79141 0.0
H247 H 0.88824 0.9159 0.79398 0.0
H248 H 0.87185 0.84673 0.77823 0.0
H249 H 0.88586 0.70729 0.77262 0.0
H250 H 0.91336 0.63339 0.78406 0.0
H251 H 0.77229 0.58223 0.78545 0.0
H252 H 0.74507 0.65603 0.77418 0.0
H253 H 0.82636 0.77327 0.78389 0.0
H254 H 0.83188 0.6708 0.7372 0.0
H255 H 0.81458 0.59942 0.72216 0.0
H256 H 0.66779 0.62493 0.72856 0.0
H257 H 0.6852 0.69572 0.74362 0.0
C258 C 0.74151 0.85881 0.74544 0.0
C259 C 0.69333 0.86352 0.74368 0.0
C260 C 0.67477 0.90237 0.73583 0.0
C261 C 0.70408 0.937 0.72931 0.0
C262 C 0.75245 0.93237 0.73128 0.0
C263 C 0.77097 0.89367 0.73932 0.0
C264 C 0.76075 0.81593 0.75281 0.0
C265 C 0.75181 0.7737 0.74498 0.0
C266 C 0.78836 0.81628 0.76698 0.0
C267 C 0.79812 0.85997 0.77611 0.0
C268 C 0.76232 0.89111 0.78027 0.0
C269 C 0.7719 0.93195 0.78882 0.0
C270 C 0.81739 0.94217 0.79389 0.0
C271 C 0.85296 0.91034 0.78998 0.0
C272 C 0.84351 0.8701 0.78113 0.0
C273 C 0.81349 0.68705 0.77236 0.0
C274 C 0.86089 0.68019 0.77545 0.0
C275 C 0.87654 0.63794 0.78195 0.0
C276 C 0.84503 0.60178 0.7855 0.0
C277 C 0.79755 0.60897 0.78252 0.0
C278 C 0.78193 0.65124 0.77614 0.0
C279 C 0.79683 0.73133 0.76502 0.0
C280 C 0.80625 0.77371 0.77283 0.0
C281 C 0.76976 0.73154 0.75079 0.0
C282 C 0.7598 0.6884 0.74162 0.0
C283 C 0.796 0.66082 0.7354 0.0
C284 C 0.78612 0.62026 0.72675 0.0
C285 C 0.73986 0.60647 0.72428 0.0
C286 C 0.70378 0.63431 0.73047 0.0
C287 C 0.71365 0.67494 0.73897 0.0
H288 H 0.42062 0.41732 0.99592 0.0
H289 H 0.35362 0.39764 0.97913 0.0
H290 H 0.30955 0.54097 0.97969 0.0
H291 H 0.37801 0.5615 0.99555 0.0
H292 H 0.49109 0.46279 0.9902 0.0
H293 H 0.38577 0.47816 0.03504 0.0
H294 H 0.31699 0.50065 0.0505 0.0
H295 H 0.34062 0.64457 0.03698 0.0
H296 H 0.41124 0.62172 0.02257 0.0
H297 H 0.55948 0.62384 0.02231 0.0
H298 H 0.63227 0.65427 0.03321 0.0
H299 H 0.67674 0.51427 0.04435 0.0
H300 H 0.60339 0.484 0.03385 0.0
H301 H 0.48937 0.57403 0.03588 0.0
H302 H 0.60974 0.54446 0.99466 0.0
H303 H 0.68201 0.5087 0.98509 0.0
H304 H 0.62556 0.37245 0.99544 0.0
H305 H 0.55377 0.40832 0.00537 0.0
C306 C 0.4044 0.4909 0.99728 0.0
C307 C 0.3967 0.44467 0.99246 0.0
C308 C 0.35844 0.43336 0.98289 0.0
C309 C 0.32669 0.46787 0.97821 0.0
C310 C 0.3335 0.5138 0.9833 0.0
C311 C 0.37236 0.52535 0.99254 0.0
C312 C 0.44766 0.5037 0.00607 0.0
C313 C 0.49046 0.48644 1.00039 0.0
C314 C 0.44736 0.53451 0.0194 0.0
C315 C 0.40361 0.54827 0.02769 0.0
C316 C 0.37593 0.51454 0.03541 0.0
C317 C 0.33625 0.52755 0.04415 0.0
C318 C 0.32279 0.57464 0.04514 0.0
C319 C 0.35015 0.60814 0.03693 0.0
C320 C 0.39045 0.59516 0.02853 0.0
C321 C 0.57611 0.55158 0.02707 0.0
C322 C 0.58473 0.59969 0.02721 0.0
C323 C 0.62637 0.61703 0.03337 0.0
C324 C 0.66035 0.58658 0.03944 0.0
C325 C 0.65152 0.53846 0.03946 0.0
C326 C 0.60957 0.52117 0.03351 0.0
C327 C 0.53252 0.53357 0.01983 0.0
C328 C 0.48973 0.55004 0.02578 0.0
C329 C 0.5328 0.50027 0.00723 0.0
C330 C 0.57644 0.47913 1.00092 0.0
C331 C 0.61309 0.50693 0.99506 0.0
C332 C 0.65441 0.48648 0.98964 0.0
C333 C 0.65953 0.4378 0.98965 0.0
C334 C 0.62256 0.41003 0.99528 0.0
C335 C 0.58151 0.4305 1.00089 0.0
H336 H 0.94177 0.46202 0.48114 0.0
H337 H 0.87286 0.47347 0.46431 0.0
H338 H 0.82072 0.57427 0.49851 0.0
H339 H 0.89006 0.56352 0.51506 0.0
H340 H 0.00637 0.52757 0.4881 0.0
H341 H 0.90285 0.42722 0.51977 0.0
H342 H 0.83304 0.40755 0.53552 0.0
H343 H 0.86076 0.52171 0.56784 0.0
H344 H 0.93061 0.54124 0.55204 0.0
H345 H 0.07995 0.53996 0.55399 0.0
H346 H 0.14923 0.51794 0.56947 0.0
H347 H 0.18693 0.41991 0.5322 0.0
H348 H 0.11791 0.44193 0.51681 0.0
H349 H 0.008 0.48401 0.54632 0.0
H350 H 0.11143 0.58233 0.51783 0.0
H351 H 0.17889 0.61075 0.50256 0.0
H352 H 0.14999 0.51222 0.46462 0.0
H353 H 0.08292 0.48338 0.48007 0.0
C354 C 0.92099 0.51175 0.4994 0.0
C355 C 0.91528 0.48632 0.48506 0.0
C356 C 0.87579 0.49266 0.47551 0.0
C357 C 0.84149 0.52492 0.48004 0.0
C358 C 0.84681 0.54953 0.4946 0.0
C359 C 0.8862 0.54309 0.50416 0.0
C360 C 0.96468 0.50771 0.50876 0.0
C361 C 0.00687 0.51723 0.50076 0.0
C362 C 0.96499 0.49684 0.52551 0.0
C363 C 0.92179 0.48583 0.53469 0.0
C364 C 0.89371 0.44821 0.53018 0.0
C365 C 0.85404 0.43683 0.53924 0.0
C366 C 0.84152 0.46306 0.55293 0.0
C367 C 0.86936 0.5011 0.55729 0.0
C368 C 0.90935 0.51213 0.54833 0.0
C369 C 0.0939 0.49278 0.5342 0.0
C370 C 0.10346 0.51412 0.54908 0.0
C371 C 0.14305 0.50166 0.55787 0.0
C372 C 0.17324 0.46705 0.55206 0.0
C373 C 0.16403 0.44641 0.53702 0.0
C374 C 0.12484 0.45926 0.52816 0.0
C375 C 0.04991 0.50253 0.52552 0.0
C376 C 0.00763 0.49434 0.53366 0.0
C377 C 0.04943 0.51553 0.50896 0.0
C378 C 0.09225 0.53042 0.50018 0.0
C379 C 0.11999 0.56634 0.50634 0.0
C380 C 0.15823 0.58294 0.49751 0.0
C381 C 0.16963 0.56391 0.48234 0.0
C382 C 0.1423 0.52739 0.47632 0.0
C383 C 0.10386 0.51101 0.4851 0.0
Fe384 Fe 0.99617 0.7542 0.16057 0.0
O385 O 0.03271 0.78464 0.14288 0.0
Fe386 Fe 0.89042 0.73163 0.14292 0.0
Fe387 Fe 0.10068 0.78241 0.14277 0.0
O388 O 0.95837 0.7294 0.14246 0.0
O389 O 0.95839 0.72962 0.14082 0.0
O390 O 0.03246 0.78534 0.14116 0.0
Fe391 Fe 0.99543 0.75912 0.12283 0.0
C392 C 0.069 0.82059 0.17506 0.0
O393 O 0.03685 0.69592 0.15957 0.0
O394 O 0.10554 0.73046 0.16049 0.0
O395 O 0.94988 0.72666 0.10636 0.0
O396 O 0.89588 0.68927 0.12286 0.0
O397 O 0.89963 0.68166 0.16059 0.0
O398 O 0.95353 0.71694 0.17698 0.0
O399 O 0.10753 0.73249 0.12528 0.0
O400 O 0.03743 0.7009 0.12135 0.0
C401 C 0.92292 0.68476 0.17395 0.0
O402 O 0.95305 0.81753 0.12227 0.0
O403 O 0.88333 0.78505 0.12663 0.0
O404 O 0.03981 0.78657 0.17752 0.0
O405 O 0.09149 0.82802 0.16161 0.0
C406 C 0.07967 0.6951 0.163 0.0
C407 C 0.08154 0.70055 0.11979 0.0
C408 C 0.07582 0.82265 0.1096 0.0
O409 O 0.09509 0.82894 0.12365 0.0
O410 O 0.04156 0.79395 0.10672 0.0
C411 C 0.91571 0.6974 0.1089 0.0
O412 O 0.88585 0.77996 0.16171 0.0
O413 O 0.95575 0.81231 0.16212 0.0
C414 C 0.90877 0.81799 0.12126 0.0
C415 C 0.91285 0.81324 0.16561 0.0
Fe416 Fe 0.53927 0.74582 0.43019 0.0
O417 O 0.54247 0.74458 0.40636 0.0
Fe418 Fe 0.51539 0.80207 0.39349 0.0
Fe419 Fe 0.5128 0.69393 0.39359 0.0
O420 O 0.54246 0.74944 0.40636 0.0
O421 O 0.48611 0.75109 0.38075 0.0
O422 O 0.48601 0.74648 0.38076 0.0
Fe423 Fe 0.4869 0.7481 0.35705 0.0
C424 C 0.57799 0.65248 0.41997 0.0
O425 O 0.48881 0.69526 0.43222 0.0
O426 O 0.45452 0.6947 0.40827 0.0
O427 O 0.44386 0.80506 0.3595 0.0
O428 O 0.48177 0.85056 0.3782 0.0
O429 O 0.45728 0.8041 0.40793 0.0
O430 O 0.48802 0.79561 0.43248 0.0
O431 O 0.47658 0.648 0.37852 0.0
O432 O 0.43845 0.69611 0.36035 0.0
C433 C 0.45476 0.80737 0.42324 0.0
O434 O 0.54003 0.79572 0.35446 0.0
O435 O 0.57312 0.80327 0.37869 0.0
O436 O 0.58478 0.69139 0.42752 0.0
O437 O 0.54688 0.64544 0.40879 0.0
C438 C 0.45338 0.68803 0.4235 0.0
C439 C 0.44499 0.6564 0.36762 0.0
C440 C 0.56696 0.67898 0.36367 0.0
O441 O 0.57024 0.68977 0.37856 0.0
O442 O 0.53393 0.69422 0.35493 0.0
C443 C 0.45134 0.8444 0.36672 0.0
O444 O 0.55102 0.84853 0.40887 0.0
O445 O 0.58503 0.80024 0.4279 0.0
C446 C 0.57327 0.80932 0.36339 0.0
C447 C 0.58032 0.84008 0.42056 0.0
Fe448 Fe 0.50286 0.29599 0.67772 0.0
O449 O 0.50571 0.29785 0.65392 0.0
Fe450 Fe 0.45229 0.26516 0.64113 0.0
Fe451 Fe 0.55971 0.27364 0.64114 0.0
O452 O 0.50113 0.2973 0.65396 0.0
O453 O 0.50615 0.24058 0.6284 0.0
O454 O 0.51078 0.24111 0.62837 0.0
Fe455 Fe 0.50866 0.2421 0.60461 0.0
C456 C 0.59277 0.34374 0.66712 0.0
O457 O 0.55651 0.24902 0.68008 0.0
O458 O 0.56479 0.21607 0.65585 0.0
O459 O 0.45752 0.19227 0.60742 0.0
O460 O 0.40817 0.22758 0.62577 0.0
O461 O 0.4549 0.20721 0.65594 0.0
O462 O 0.4567 0.24114 0.68011 0.0
O463 O 0.6097 0.24323 0.62578 0.0
O464 O 0.56685 0.20096 0.60732 0.0
C465 C 0.44914 0.20582 0.67124 0.0
O466 O 0.45469 0.28877 0.60225 0.0
O467 O 0.44653 0.32255 0.62631 0.0
O468 O 0.5533 0.34631 0.67479 0.0
O469 O 0.60375 0.31254 0.65632 0.0
C470 C 0.5684 0.21496 0.67118 0.0
C471 C 0.60553 0.2127 0.61424 0.0
C472 C 0.56684 0.33035 0.61106 0.0
O473 O 0.55803 0.33125 0.62619 0.0
O474 O 0.55523 0.29611 0.60225 0.0
C475 C 0.41724 0.1975 0.6144 0.0
O476 O 0.40198 0.29697 0.65609 0.0
O477 O 0.44517 0.33733 0.67496 0.0
C478 C 0.43914 0.32134 0.61114 0.0
C479 C 0.40702 0.32838 0.66729 0.0
Fe480 Fe 1.00222 0.26537 0.90927 0.0
O481 O 0.03253 0.22882 0.89166 0.0
Fe482 Fe 0.97402 0.3691 0.89009 0.0
Fe483 Fe 0.03274 0.16056 0.8918 0.0
O484 O 0.97433 0.30084 0.89087 0.0
O485 O 0.9744 0.3008 0.88916 0.0
O486 O 0.03263 0.22879 0.88992 0.0
Fe487 Fe 0.00435 0.26404 0.87137 0.0
C488 C 0.0706 0.19243 0.92413 0.0
O489 O 0.94589 0.22238 0.90953 0.0
O490 O 0.98109 0.15372 0.90954 0.0
O491 O 0.97018 0.30769 0.85458 0.0
O492 O 0.93016 0.36018 0.87062 0.0
O493 O 0.92674 0.35995 0.90851 0.0
O494 O 0.96408 0.30813 0.92542 0.0
O495 O 0.98345 0.15161 0.87443 0.0
O496 O 0.94746 0.2195 0.87046 0.0
C497 C 0.93169 0.33875 0.92232 0.0
O498 O 0.06123 0.30854 0.87015 0.0
O499 O 0.0254 0.37701 0.87311 0.0
O500 O 0.03812 0.22357 0.92642 0.0
O501 O 0.07779 0.1708 0.91058 0.0
C502 C 0.94634 0.17941 0.91304 0.0
C503 C 0.94934 0.17524 0.86918 0.0
C504 C 0.07109 0.1868 0.85847 0.0
O505 O 0.07883 0.16795 0.87258 0.0
O506 O 0.04034 0.21919 0.85552 0.0
C507 C 0.93967 0.3408 0.85677 0.0
O508 O 0.02375 0.37729 0.90806 0.0
O509 O 0.05844 0.30836 0.90965 0.0
C510 C 0.05967 0.35272 0.86836 0.0
C511 C 0.05813 0.35185 0.91209 0.0
C512 C 0.20833 0.89151 0.4584 0.0
C513 C 0.21432 0.93092 0.46816 0.0
C514 C 0.24642 0.86944 0.45104 0.0
C515 C 0.29158 0.88771 0.4532 0.0
C516 C 0.29795 0.92745 0.463 0.0
C517 C 0.25934 0.94836 0.47044 0.0
C518 C 0.23821 0.82692 0.44078 0.0
C519 C 0.3456 0.94799 0.46557 0.0
C520 C 0.39796 0.81216 0.44612 0.0
C521 C 0.41209 0.82662 0.43061 0.0
C522 C 0.35799 0.83076 0.45343 0.0
C523 C 0.33227 0.86548 0.44518 0.0
C524 C 0.3461 0.87977 0.42941 0.0
C525 C 0.38561 0.85976 0.42224 0.0
C526 C 0.34356 0.81355 0.47004 0.0
C527 C 0.31976 0.91687 0.42026 0.0
H528 H 0.1737 0.87816 0.45631 0.0
H529 H 0.26451 0.97825 0.47816 0.0
H530 H 0.24428 0.83578 0.42784 0.0
H531 H 0.26295 0.79885 0.44404 0.0
H532 H 0.20226 0.81334 0.44214 0.0
H533 H 0.34458 0.97945 0.47333 0.0
H534 H 0.36858 0.92179 0.47134 0.0
H535 H 0.3615 0.95751 0.45373 0.0
H536 H 0.41799 0.78594 0.4525 0.0
H537 H 0.3965 0.87099 0.41023 0.0
H538 H 0.30637 0.80343 0.47008 0.0
H539 H 0.34764 0.84193 0.47897 0.0
H540 H 0.36451 0.78321 0.47409 0.0
H541 H 0.28295 0.90632 0.41886 0.0
H542 H 0.33479 0.92372 0.40804 0.0
H543 H 0.31998 0.94979 0.42722 0.0
C544 C 0.3054 0.99338 0.70921 0.0
C545 C 0.33315 0.96083 0.71739 0.0
C546 C 0.32514 0.03233 0.70143 0.0
C547 C 0.37394 0.03872 0.70165 0.0
C548 C 0.40224 0.00561 0.70968 0.0
C549 C 0.38148 0.96724 0.71753 0.0
C550 C 0.29368 0.06711 0.6932 0.0
C551 C 0.45443 0.01076 0.70997 0.0
C552 C 0.42569 0.12148 0.67006 0.0
C553 C 0.43137 0.16241 0.67904 0.0
C554 C 0.4079 0.08071 0.67731 0.0
C555 C 0.39509 0.08088 0.69392 0.0
C556 C 0.40133 0.12185 0.70309 0.0
C557 C 0.41953 0.16193 0.69558 0.0
C558 C 0.40237 0.03756 0.66716 0.0
C559 C 0.38803 0.1236 0.72081 0.0
H560 H 0.26801 0.98887 0.7092 0.0
H561 H 0.40316 0.94189 0.72366 0.0
H562 H 0.29759 0.10172 0.69892 0.0
H563 H 0.30369 0.07104 0.68026 0.0
H564 H 0.25654 0.05674 0.69389 0.0
H565 H 0.47163 0.98161 0.71649 0.0
H566 H 0.46823 0.01229 0.6974 0.0
H567 H 0.46406 0.04389 0.71591 0.0
H568 H 0.43502 0.12125 0.65732 0.0
H569 H 0.42386 0.1932 0.70269 0.0
H570 H 0.36518 0.0276 0.66665 0.0
H571 H 0.42132 0.00805 0.67279 0.0
H572 H 0.41548 0.04259 0.65458 0.0
H573 H 0.35043 0.11609 0.72227 0.0
H574 H 0.39546 0.158 0.72628 0.0
H575 H 0.4072 0.09649 0.72767 0.0
C576 C 0.25368 0.10602 0.99168 0.0
C577 C 0.29728 0.11828 0.98528 0.0
C578 C 0.21249 0.12169 0.98435 0.0
C579 C 0.21509 0.15065 0.97041 0.0
C580 C 0.25911 0.16564 0.96463 0.0
C581 C 0.29962 0.14899 0.97205 0.0
C582 C 0.16645 0.1045 0.99085 0.0
C583 C 0.26355 0.19712 0.94998 0.0
C584 C 0.12827 0.13843 0.93651 0.0
C585 C 0.10263 0.17993 0.93757 0.0
C586 C 0.16327 0.12769 0.9476 0.0
C587 C 0.17318 0.15907 0.96025 0.0
C588 C 0.14567 0.19968 0.96207 0.0
C589 C 0.11054 0.20967 0.9507 0.0
C590 C 0.1912 0.08367 0.94525 0.0
C591 C 0.15431 0.23312 0.97575 0.0
H592 H 0.25177 0.08223 1.00191 0.0
H593 H 0.33331 0.15916 0.96727 0.0
H594 H 0.1403 0.13282 0.9909 0.0
H595 H 0.15322 0.07657 0.98288 0.0
H596 H 0.1696 0.09014 1.00332 0.0
H597 H 0.29973 0.20955 0.94808 0.0
H598 H 0.25253 0.17808 0.939 0.0
H599 H 0.24044 0.22775 0.95129 0.0
H600 H 0.12188 0.11453 0.92666 0.0
H601 H 0.09063 0.24152 0.95174 0.0
H602 H 0.19227 0.06321 0.95668 0.0
H603 H 0.22753 0.09274 0.94196 0.0
H604 H 0.17682 0.06127 0.93558 0.0
H605 H 0.14923 0.21506 0.98754 0.0
H606 H 0.1308 0.26374 0.97527 0.0
H607 H 0.19082 0.24547 0.97534 0.0
C608 C 0.17585 1.00246 0.23451 0.0
C609 C 0.14384 0.03285 0.24167 0.0
C610 C 0.16084 0.96321 0.226 0.0
C611 C 0.11263 0.95461 0.22443 0.0
C612 C 0.08032 0.98346 0.23261 0.0
C613 C 0.09637 0.02224 0.24117 0.0
C614 C 0.19651 0.93275 0.21778 0.0
C615 C 0.02863 0.97629 0.23127 0.0
C616 C 0.08313 0.90143 0.18402 0.0
C617 C 0.07636 0.85454 0.18813 0.0
C618 C 0.09262 0.93457 0.19589 0.0
C619 C 0.09656 0.92034 0.21226 0.0
C620 C 0.08814 0.87328 0.2166 0.0
C621 C 0.07757 0.84086 0.20445 0.0
C622 C 0.09943 0.98473 0.19082 0.0
C623 C 0.09156 0.85712 0.23397 0.0
H624 H 0.21265 0.01024 0.23513 0.0
H625 H 0.07149 0.0458 0.24665 0.0
H626 H 0.18867 0.89545 0.22002 0.0
H627 H 0.19535 0.93875 0.20449 0.0
H628 H 0.2323 0.94014 0.22201 0.0
H629 H 0.01038 0.98832 0.24238 0.0
H630 H 0.01569 0.99745 0.22095 0.0
H631 H 0.01944 0.93937 0.22913 0.0
H632 H 0.08104 0.91226 0.17144 0.0
H633 H 0.07196 0.80462 0.20763 0.0
H634 H 0.13567 0.9956 0.19329 0.0
H635 H 0.07608 0.00757 0.19798 0.0
H636 H 0.09234 0.99048 0.17774 0.0
H637 H 0.12765 0.86187 0.23831 0.0
H638 H 0.0818 0.81994 0.23547 0.0
H639 H 0.06864 0.87855 0.2418 0.0
C640 C 0.20827 0.07096 0.56705 0.0
C641 C 0.20808 0.0927 0.55177 0.0
C642 C 0.24042 0.08394 0.57892 0.0
C643 C 0.27311 0.11941 0.57539 0.0
C644 C 0.27342 0.14106 0.55993 0.0
C645 C 0.24094 0.12741 0.54831 0.0
C646 C 0.23895 0.06031 0.5953 0.0
C647 C 0.30788 0.17894 0.55569 0.0
C648 C 0.33301 0.19046 0.60768 0.0
C649 C 0.37803 0.17185 0.60716 0.0
C650 C 0.29758 0.17208 0.59802 0.0
C651 C 0.30742 0.13402 0.58774 0.0
C652 C 0.35183 0.11297 0.58808 0.0
C653 C 0.38663 0.13221 0.59776 0.0
C654 C 0.25066 0.19555 0.59798 0.0
C655 C 0.36356 0.07211 0.57739 0.0
H656 H 0.18248 0.0446 0.56987 0.0
H657 H 0.24121 0.14397 0.53647 0.0
H658 H 0.27323 0.04461 0.59806 0.0
H659 H 0.23162 0.08637 0.60485 0.0
H660 H 0.21205 0.03264 0.59599 0.0
H661 H 0.30375 0.19193 0.54307 0.0
H662 H 0.30357 0.20866 0.56408 0.0
H663 H 0.34384 0.16574 0.55713 0.0
H664 H 0.32611 0.22124 0.61484 0.0
H665 H 0.42124 0.11736 0.59743 0.0
H666 H 0.22241 0.16935 0.59872 0.0
H667 H 0.24629 0.21512 0.58646 0.0
H668 H 0.24661 0.22029 0.60818 0.0
H669 H 0.3365 0.04478 0.57847 0.0
H670 H 0.39776 0.05653 0.58043 0.0
H671 H 0.36455 0.08369 0.56454 0.0
C672 C 0.15073 0.97214 0.81166 0.0
C673 C 0.17611 0.97592 0.79718 0.0
C674 C 0.13468 0.01184 0.81973 0.0
C675 C 0.14495 0.05658 0.81333 0.0
C676 C 0.1704 0.06065 0.79865 0.0
C677 C 0.18535 0.02017 0.79065 0.0
C678 C 0.10693 0.00586 0.83521 0.0
C679 C 0.18262 0.10768 0.79159 0.0
C680 C 0.06834 0.1511 0.83107 0.0
C681 C 0.09429 0.16395 0.84464 0.0
C682 C 0.08567 0.11825 0.82003 0.0
C683 C 0.13025 0.09863 0.82251 0.0
C684 C 0.15819 0.11496 0.83534 0.0
C685 C 0.13963 0.14701 0.84637 0.0
C686 C 0.05459 0.10149 0.80661 0.0
C687 C 0.20626 0.09576 0.83822 0.0
H688 H 0.14298 0.93791 0.81658 0.0
H689 H 0.20511 0.02308 0.77947 0.0
H690 H 0.12592 0.02163 0.84546 0.0
H691 H 0.07314 0.02418 0.83418 0.0
H692 H 0.10014 0.96869 0.83815 0.0
H693 H 0.20105 0.1049 0.77977 0.0
H694 H 0.15074 0.12877 0.78988 0.0
H695 H 0.20512 0.12682 0.80014 0.0
H696 H 0.03301 0.16367 0.82984 0.0
H697 H 0.15974 0.15701 0.85686 0.0
H698 H 0.04231 0.06578 0.80951 0.0
H699 H 0.07397 0.09977 0.79498 0.0
H700 H 0.02379 0.1243 0.80499 0.0
H701 H 0.2035 0.05977 0.84309 0.0
H702 H 0.226 0.11704 0.84702 0.0
H703 H 0.22622 0.09412 0.8267 0.0
C704 C 0.2528 0.9375 0.04445 0.0
C705 C 0.29615 0.92719 0.05131 0.0
C706 C 0.21133 0.92084 0.05153 0.0
C707 C 0.21328 0.89291 0.06571 0.0
C708 C 0.25709 0.881 0.0723 0.0
C709 C 0.29787 0.89849 0.06509 0.0
C710 C 0.16543 0.93433 0.04413 0.0
C711 C 0.26089 0.85063 0.08724 0.0
C712 C 0.1189 0.88991 0.09788 0.0
C713 C 0.10025 0.84529 0.09585 0.0
C714 C 0.15325 0.90727 0.08733 0.0
C715 C 0.16993 0.87904 0.07454 0.0
C716 C 0.14863 0.83535 0.07168 0.0
C717 C 0.11379 0.81905 0.08235 0.0
C718 C 0.17435 0.9543 0.09072 0.0
C719 C 0.16523 0.80406 0.05823 0.0
H720 H 0.25123 0.95979 0.03383 0.0
H721 H 0.33129 0.88973 0.07027 0.0
H722 H 0.14375 0.90296 0.04219 0.0
H723 H 0.14609 0.95725 0.05258 0.0
H724 H 0.16986 0.95293 0.03238 0.0
H725 H 0.29752 0.84248 0.09031 0.0
H726 H 0.24456 0.86842 0.09772 0.0
H727 H 0.24194 0.81746 0.08542 0.0
H728 H 0.10855 0.91019 0.10833 0.0
H729 H 0.10004 0.7842 0.08089 0.0
H730 H 0.1772 0.97518 0.07941 0.0
H731 H 0.20998 0.94957 0.09552 0.0
H732 H 0.15371 0.97425 0.09973 0.0
H733 H 0.17214 0.82428 0.04698 0.0
H734 H 0.13958 0.7763 0.05556 0.0
H735 H 0.19828 0.78724 0.06187 0.0
C736 C 0.35503 0.06063 0.317 0.0
C737 C 0.30852 0.07188 0.32039 0.0
C738 C 0.37859 0.02654 0.32602 0.0
C739 C 0.35532 1.00329 0.33888 0.0
C740 C 0.30903 0.01574 0.34281 0.0
C741 C 0.28612 0.04967 0.33348 0.0
C742 C 0.42789 0.01419 0.32138 0.0
C743 C 0.2831 0.99196 0.3565 0.0
C744 C 0.39497 0.87978 0.34724 0.0
C745 C 0.42461 0.88518 0.36058 0.0
C746 C 0.37174 0.91777 0.34034 0.0
C747 C 0.37771 0.96261 0.34696 0.0
C748 C 0.40631 0.96838 0.36072 0.0
C749 C 0.4296 0.92962 0.36735 0.0
C750 C 0.34176 0.90999 0.32563 0.0
C751 C 0.41302 0.01563 0.36823 0.0
H752 H 0.37309 0.07835 0.30719 0.0
H753 H 0.25015 0.05783 0.33617 0.0
H754 H 0.45075 0.01582 0.33212 0.0
H755 H 0.42908 0.97794 0.31683 0.0
H756 H 0.44215 0.03767 0.31183 0.0
H757 H 0.24947 0.00926 0.35923 0.0
H758 H 0.27607 0.95525 0.35323 0.0
H759 H 0.30447 0.99149 0.36764 0.0
H760 H 0.39049 0.8458 0.34185 0.0
H761 H 0.45215 0.9343 0.37768 0.0
H762 H 0.35596 0.9299 0.31515 0.0
H763 H 0.30604 0.92293 0.32793 0.0
H764 H 0.3397 0.87271 0.32223 0.0
H765 H 0.43137 0.0389 0.35954 0.0
H766 H 0.43346 0.01378 0.37959 0.0
H767 H 0.37885 0.03177 0.37093 0.0
C768 C 0.77828 0.09832 0.55214 0.0
C769 C 0.8231 0.11744 0.55187 0.0
C770 C 0.74539 0.11215 0.56377 0.0
C771 C 0.7575 0.14617 0.57535 0.0
C772 C 0.80295 0.16481 0.5754 0.0
C773 C 0.83526 0.15007 0.56372 0.0
C774 C 0.69717 0.09154 0.56331 0.0
C775 C 0.81708 0.20122 0.58754 0.0
C776 C 0.65752 0.21936 0.59069 0.0
C777 C 0.64773 0.19836 0.60566 0.0
C778 C 0.694 0.20341 0.58094 0.0
C779 C 0.72127 0.16544 0.58632 0.0
C780 C 0.71242 0.14507 0.60174 0.0
C781 C 0.67547 0.16187 0.6113 0.0
C782 C 0.70228 0.2262 0.56462 0.0
C783 C 0.74081 0.10455 0.60785 0.0
H784 H 0.76846 0.07336 0.54298 0.0
H785 H 0.87015 0.16421 0.56386 0.0
H786 H 0.68712 0.07807 0.57546 0.0
H787 H 0.67176 0.11897 0.55999 0.0
H788 H 0.69444 0.0628 0.55443 0.0
H789 H 0.85432 0.21089 0.58637 0.0
H790 H 0.79576 0.23301 0.58584 0.0
H791 H 0.81051 0.18835 0.60004 0.0
H792 H 0.63573 0.24767 0.58644 0.0
H793 H 0.66735 0.14566 0.62287 0.0
H794 H 0.69735 0.20038 0.55484 0.0
H795 H 0.7386 0.23888 0.56373 0.0
H796 H 0.67844 0.25593 0.56241 0.0
H797 H 0.73481 0.07384 0.60006 0.0
H798 H 0.73185 0.09504 0.62056 0.0
H799 H 0.7784 0.11287 0.60714 0.0
C800 C 0.74382 0.99635 0.31985 0.0
C801 C 0.71313 0.03179 0.31517 0.0
C802 C 0.72765 0.95664 0.32818 0.0
C803 C 0.67987 0.95285 0.33216 0.0
C804 C 0.64898 0.98908 0.32773 0.0
C805 C 0.66593 0.02787 0.31916 0.0
C806 C 0.76148 0.9186 0.33261 0.0
C807 C 0.59794 0.98688 0.33203 0.0
C808 C 0.61575 0.83944 0.33903 0.0
C809 C 0.60911 0.83968 0.35589 0.0
C810 C 0.64187 0.8743 0.33125 0.0
C811 C 0.66132 0.91062 0.34051 0.0
C812 C 0.65784 0.90901 0.35764 0.0
C813 C 0.63188 0.87341 0.36514 0.0
C814 C 0.64588 0.87393 0.313 0.0
C815 C 0.67805 0.94674 0.36809 0.0
H816 H 0.78034 0.99936 0.31673 0.0
H817 H 0.6423 0.05559 0.31575 0.0
H818 H 0.76104 0.91272 0.34591 0.0
H819 H 0.75088 0.88548 0.32686 0.0
H820 H 0.79757 0.92696 0.32873 0.0
H821 H 0.57892 0.01873 0.32824 0.0
H822 H 0.5817 0.95643 0.32611 0.0
H823 H 0.59356 0.98222 0.34531 0.0
H824 H 0.59877 0.8131 0.33182 0.0
H825 H 0.62694 0.87394 0.37817 0.0
H826 H 0.68218 0.88101 0.30912 0.0
H827 H 0.62374 0.90186 0.30783 0.0
H828 H 0.63473 0.84017 0.30781 0.0
H829 H 0.711 0.96059 0.36298 0.0
H830 H 0.68463 0.93374 0.38056 0.0
H831 H 0.65293 0.97595 0.36885 0.0
C832 C 0.74615 0.98273 0.0662 0.0
C833 C 0.72029 0.95082 0.05712 0.0
C834 C 0.78293 0.96791 0.07612 0.0
C835 C 0.79382 0.91994 0.07715 0.0
C836 C 0.76914 0.88781 0.06747 0.0
C837 C 0.73285 0.90366 0.05754 0.0
C838 C 0.80879 1.00336 0.08602 0.0
C839 C 0.77938 0.83627 0.06825 0.0
C840 C 0.90273 0.87023 0.0969 0.0
C841 C 0.88462 0.85441 0.11175 0.0
C842 C 0.87434 0.89421 0.08576 0.0
C843 C 0.82697 0.90242 0.08964 0.0
C844 C 0.80982 0.88971 0.10516 0.0
C845 C 0.83882 0.86596 0.11599 0.0
C846 C 0.89417 0.9077 0.06944 0.0
C847 C 0.75976 0.89799 0.10992 0.0
H848 H 0.7371 0.01933 0.06575 0.0
H849 H 0.71288 0.87874 0.05067 0.0
H850 H 0.79969 0.99888 0.09902 0.0
H851 H 0.84684 0.99811 0.08482 0.0
H852 H 0.80029 0.03961 0.08234 0.0
H853 H 0.75969 0.81634 0.05907 0.0
H854 H 0.81701 0.82986 0.06636 0.0
H855 H 0.77012 0.82255 0.08045 0.0
H856 H 0.93794 0.86094 0.09349 0.0
H857 H 0.82476 0.85392 0.1275 0.0
H858 H 0.88284 0.94324 0.06593 0.0
H859 H 0.88111 0.88336 0.06013 0.0
H860 H 0.93273 0.9064 0.06932 0.0
H861 H 0.74996 0.93475 0.10763 0.0
H862 H 0.75299 0.88973 0.12289 0.0
H863 H 0.73682 0.87589 0.10243 0.0
C864 C 0.79539 1.00221 0.81493 0.0
C865 C 0.82776 0.98479 0.80365 0.0
C866 C 0.8065 0.03965 0.82513 0.0
C867 C 0.85152 0.05939 0.82443 0.0
C868 C 0.88356 0.04354 0.8126 0.0
C869 C 0.87106 0.00709 0.80223 0.0
C870 C 0.77079 0.05642 0.83722 0.0
C871 C 0.93218 0.06315 0.81151 0.0
C872 C 0.89187 0.16876 0.84634 0.0
C873 C 0.91443 0.14902 0.85973 0.0
C874 C 0.86815 0.14038 0.83519 0.0
C875 C 0.86773 0.09136 0.83744 0.0
C876 C 0.88748 0.07196 0.85161 0.0
C877 C 0.90997 0.10102 0.86262 0.0
C878 C 0.84611 0.16261 0.82054 0.0
C879 C 0.88825 0.02 0.85456 0.0
H880 H 0.76188 0.98552 0.81633 0.0
H881 H 0.89591 0.99535 0.79324 0.0
H882 H 0.77957 0.0431 0.84946 0.0
H883 H 0.77067 0.09499 0.83779 0.0
H884 H 0.73529 0.04423 0.83418 0.0
H885 H 0.95184 0.04941 0.80095 0.0
H886 H 0.93108 0.10163 0.81057 0.0
H887 H 0.95149 0.0542 0.8227 0.0
H888 H 0.89513 0.20579 0.84401 0.0
H889 H 0.92669 0.08557 0.87309 0.0
H890 H 0.81216 0.14612 0.81788 0.0
H891 H 0.86895 0.15756 0.80982 0.0
H892 H 0.8408 0.20057 0.82221 0.0
H893 H 0.85273 0.00537 0.85373 0.0
H894 H 0.90265 0.01076 0.86662 0.0
H895 H 0.90981 1.00299 0.84511 0.0
C896 C 0.76125 0.0183 0.46005 0.0
C897 C 0.80418 0.99719 0.45673 0.0
C898 C 0.72067 1.00363 0.45218 0.0
C899 C 0.72322 0.96675 0.4409 0.0
C900 C 0.76712 0.94849 0.43643 0.0
C901 C 0.80703 0.96404 0.44437 0.0
C902 C 0.67475 0.02482 0.45702 0.0
C903 C 0.77159 0.90928 0.42442 0.0
C904 C 0.63224 0.87257 0.44157 0.0
C905 C 0.61138 0.87765 0.42633 0.0
C906 C 0.66684 0.90298 0.44674 0.0
C907 C 0.68073 0.94025 0.43655 0.0
C908 C 0.65738 0.94806 0.4217 0.0
C909 C 0.62299 0.91638 0.41667 0.0
C910 C 0.69046 0.89332 0.46273 0.0
C911 C 0.67004 0.98867 0.4109 0.0
H912 H 0.75879 0.04423 0.4695 0.0
H913 H 0.84037 0.94862 0.44141 0.0
H914 H 0.65091 0.02723 0.44654 0.0
H915 H 0.6579 1.00248 0.46636 0.0
H916 H 0.6794 0.06007 0.46222 0.0
H917 H 0.80823 0.90332 0.42067 0.0
H918 H 0.75802 0.8767 0.42998 0.0
H919 H 0.75071 0.9166 0.41345 0.0
H920 H 0.62267 0.84358 0.44937 0.0
H921 H 0.60664 0.92095 0.40498 0.0
H922 H 0.68973 0.92477 0.47044 0.0
H923 H 0.72744 0.88424 0.46056 0.0
H924 H 0.67388 0.86426 0.46956 0.0
H925 H 0.67245 0.02109 0.41808 0.0
H926 H 0.64436 0.99393 0.40107 0.0
H927 H 0.70468 0.98262 0.40534 0.0
C928 C 0.82834 0.04874 0.20898 0.0
C929 C 0.82401 0.04264 0.22584 0.0
C930 C 0.8397 0.01133 0.19878 0.0
C931 C 0.84744 0.96659 0.20553 0.0
C932 C 0.84253 0.95998 0.22248 0.0
C933 C 0.83071 0.99792 0.2324 0.0
C934 C 0.84454 0.01997 0.18078 0.0
C935 C 0.85091 0.913 0.23022 0.0
C936 C 0.84755 0.85956 0.17821 0.0
C937 C 0.89525 0.85288 0.17546 0.0
C938 C 0.83135 0.89662 0.18784 0.0
C939 C 0.86359 0.92746 0.19502 0.0
C940 C 0.91169 0.92084 0.19225 0.0
C941 C 0.92686 0.88398 0.18248 0.0
C942 C 0.77976 0.90275 0.19036 0.0
C943 C 0.94735 0.95257 0.1997 0.0
H944 H 0.824 0.08311 0.20375 0.0
H945 H 0.82675 0.99246 0.24533 0.0
H946 H 0.88118 0.01464 0.17699 0.0
H947 H 0.82308 0.99476 0.17398 0.0
H948 H 0.83396 0.0558 0.17727 0.0
H949 H 0.84364 0.91303 0.24345 0.0
H950 H 0.82876 0.88627 0.22446 0.0
H951 H 0.8876 0.90249 0.22826 0.0
H952 H 0.82282 0.83591 0.17282 0.0
H953 H 0.96383 0.87925 0.18055 0.0
H954 H 0.76903 0.93794 0.18624 0.0
H955 H 0.77118 0.90006 0.20346 0.0
H956 H 0.75917 0.8764 0.18373 0.0
H957 H 0.94337 0.98832 0.19476 0.0
H958 H 0.9835 0.94076 0.19734 0.0
H959 H 0.94175 0.95445 0.21299 0.0
C960 C 0.75891 0.08639 0.97791 0.0
C961 C 0.71521 0.07908 0.97088 0.0
C962 C 0.7973 0.10075 0.9685 0.0
C963 C 0.79222 0.10748 0.95159 0.0
C964 C 0.74853 0.09936 0.94436 0.0
C965 C 0.71061 0.08567 0.95407 0.0
C966 C 0.84316 0.1095 0.97672 0.0
C967 C 0.74157 0.1061 0.92637 0.0
C968 C 0.87453 0.19064 0.92979 0.0
C969 C 0.9066 0.1602 0.92255 0.0
C970 C 0.8375 0.17391 0.93929 0.0
C971 C 0.83185 0.12539 0.94158 0.0
C972 C 0.86377 0.09433 0.93421 0.0
C973 C 0.90093 0.1121 0.92486 0.0
C974 C 0.80465 0.20835 0.947 0.0
C975 C 0.85859 0.04235 0.93618 0.0
H976 H 0.76324 0.08076 0.99081 0.0
H977 H 0.67699 0.08107 0.94848 0.0
H978 H 0.87084 0.08816 0.97103 0.0
H979 H 0.85322 0.14654 0.97513 0.0
H980 H 0.84184 0.10136 0.98989 0.0
H981 H 0.70631 0.09546 0.92245 0.0
H982 H 0.74679 0.14324 0.9231 0.0
H983 H 0.76766 0.08565 0.91949 0.0
H984 H 0.87865 0.2279 0.92824 0.0
H985 H 0.9254 0.0883 0.9193 0.0
H986 H 0.80578 0.20469 0.96038 0.0
H987 H 0.76846 0.20124 0.94321 0.0
H988 H 0.81338 0.24484 0.9437 0.0
H989 H 0.86009 0.03273 0.94921 0.0
H990 H 0.88603 0.02284 0.92958 0.0
H991 H 0.82417 0.03117 0.93165 0.0
C992 C 0.64581 0.97111 0.71006 0.0
C993 C 0.68418 0.97727 0.72027 0.0
C994 C 0.62607 0.0088 0.7017 0.0
C995 C 0.64573 0.05364 0.70329 0.0
C996 C 0.68479 0.06008 0.71337 0.0
C997 C 0.70333 0.02191 0.72182 0.0
C998 C 0.58418 1.0006 0.69116 0.0
C999 C 0.70672 0.10743 0.71534 0.0
C1000 C 0.62047 0.14533 0.67114 0.0
C1001 C 0.58745 0.17298 0.67908 0.0
C1002 C 0.63976 0.10624 0.67886 0.0
C1003 C 0.62482 0.09411 0.69472 0.0
C1004 C 0.59034 0.12112 0.70256 0.0
C1005 C 0.57246 0.16054 0.6947 0.0
C1006 C 0.67665 0.07843 0.67017 0.0
C1007 C 0.57238 0.10841 0.71924 0.0
H1008 H 0.63129 0.93666 0.70849 0.0
H1009 H 0.73249 0.02724 0.72984 0.0
H1010 H 0.55613 0.02558 0.69422 0.0
H1011 H 0.59367 0.00658 0.67827 0.0
H1012 H 0.57033 0.96468 0.69247 0.0
H1013 H 0.73804 0.10627 0.72313 0.0
H1014 H 0.71673 0.12188 0.70332 0.0
H1015 H 0.68124 0.13177 0.72081 0.0
H1016 H 0.63203 0.15492 0.65904 0.0
H1017 H 0.54624 0.18142 0.70073 0.0
H1018 H 0.66564 0.04158 0.66918 0.0
H1019 H 0.7093 0.07888 0.67724 0.0
H1020 H 0.68403 0.09219 0.6578 0.0
H1021 H 0.55892 0.07222 0.71929 0.0
H1022 H 0.54417 0.13201 0.72336 0.0
H1023 H 0.60112 0.10984 0.72811 0.0
C1024 C 0.74637 0.43265 0.98746 0.0
C1025 C 0.70243 0.41612 0.98304 0.0
C1026 C 0.78692 0.41535 0.98008 0.0
C1027 C 0.78333 0.38148 0.96775 0.0
C1028 C 0.73914 0.36311 0.96383 0.0
C1029 C 0.69931 0.38034 0.97164 0.0
C1030 C 0.83334 0.43531 0.98482 0.0
C1031 C 0.7336 0.32685 0.95083 0.0
C1032 C 0.8683 0.38984 0.9327 0.0
C1033 C 0.89691 0.35077 0.93504 0.0
C1034 C 0.83203 0.4003 0.94341 0.0
C1035 C 0.82405 0.37141 0.95707 0.0
C1036 C 0.85357 0.33273 0.95992 0.0
C1037 C 0.88978 0.32282 0.94886 0.0
C1038 C 0.80115 0.44157 0.93973 0.0
C1039 C 0.84666 0.30169 0.97454 0.0
H1040 H 0.74895 0.45978 0.99648 0.0
H1041 H 0.6654 0.36742 0.96821 0.0
H1042 H 0.85934 0.40715 0.98634 0.0
H1043 H 0.84617 0.4588 0.97506 0.0
H1044 H 0.83111 0.45548 0.99624 0.0
H1045 H 0.69659 0.3184 0.9485 0.0
H1046 H 0.74982 0.33893 0.93931 0.0
H1047 H 0.75156 0.2945 0.95458 0.0
H1048 H 0.87359 0.41217 0.92222 0.0
H1049 H 0.91162 0.29261 0.95081 0.0
H1050 H 0.80103 0.46606 0.95007 0.0
H1051 H 0.76487 0.42963 0.93799 0.0
H1052 H 0.81239 0.46084 0.92867 0.0
H1053 H 0.85289 0.32194 0.98572 0.0
H1054 H 0.8704 0.27121 0.97444 0.0
H1055 H 0.81031 0.28898 0.97513 0.0
C1056 C 0.89711 0.46953 0.23593 0.0
C1057 C 0.84973 0.46177 0.23887 0.0
C1058 C 0.91213 0.50823 0.22683 0.0
C1059 C 0.87901 0.54023 0.22077 0.0
C1060 C 0.83131 0.53378 0.22445 0.0
C1061 C 0.81721 0.49438 0.23334 0.0
C1062 C 0.96316 0.51367 0.22306 0.0
C1063 C 0.79493 0.56738 0.2184 0.0
C1064 C 0.91737 0.65692 0.20286 0.0
C1065 C 0.91442 0.64793 0.18623 0.0
C1066 C 0.90645 0.6221 0.21436 0.0
C1067 C 0.89336 0.57718 0.20902 0.0
C1068 C 0.89221 0.56762 0.19223 0.0
C1069 C 0.9023 0.60316 0.18108 0.0
C1070 C 0.90751 0.63372 0.23216 0.0
C1071 C 0.8796 0.51996 0.186 0.0
H1072 H 0.92228 0.4442 0.24014 0.0
H1073 H 0.78059 0.48866 0.23577 0.0
H1074 H 0.96921 0.50948 0.20986 0.0
H1075 H 0.97478 0.54914 0.22632 0.0
H1076 H 0.98486 0.48787 0.22965 0.0
H1077 H 0.7602 0.56038 0.22383 0.0
H1078 H 0.80507 0.60369 0.22118 0.0
H1079 H 0.79213 0.56464 0.20504 0.0
H1080 H 0.92676 0.69149 0.20688 0.0
H1081 H 0.90081 0.59578 0.16822 0.0
H1082 H 0.92978 0.60859 0.23877 0.0
H1083 H 0.87199 0.63073 0.23735 0.0
H1084 H 0.92063 0.66947 0.23435 0.0
H1085 H 0.90243 0.49318 0.19152 0.0
H1086 H 0.88272 0.51763 0.17261 0.0
H1087 H 0.84333 0.51138 0.18953 0.0
C1088 C 0.77655 0.49859 0.46195 0.0
C1089 C 0.80143 0.53478 0.46927 0.0
C1090 C 0.73803 0.50809 0.45205 0.0
C1091 C 0.72433 0.55482 0.44938 0.0
C1092 C 0.75017 0.59142 0.4564 0.0
C1093 C 0.78826 0.58094 0.46625 0.0
C1094 C 0.71139 0.46823 0.44476 0.0
C1095 C 0.73708 0.64183 0.45377 0.0
C1096 C 0.64714 0.60221 0.41621 0.0
C1097 C 0.60765 0.61387 0.42527 0.0
C1098 C 0.68428 0.57834 0.4235 0.0
C1099 C 0.68147 0.5663 0.44017 0.0
C1100 C 0.63944 0.57371 0.44878 0.0
C1101 C 0.60313 0.59784 0.44123 0.0
C1102 C 0.72818 0.57072 0.41381 0.0
C1103 C 0.63458 0.56094 0.46648 0.0
H1104 H 0.78656 0.46282 0.46428 0.0
H1105 H 0.80797 0.60906 0.47157 0.0
H1106 H 0.67607 0.46666 0.45019 0.0
H1107 H 0.70715 0.47374 0.43154 0.0
H1108 H 0.72881 0.43422 0.44682 0.0
H1109 H 0.76191 0.66613 0.45954 0.0
H1110 H 0.73578 0.64985 0.44061 0.0
H1111 H 0.70195 0.64841 0.45886 0.0
H1112 H 0.65074 0.6153 0.40391 0.0
H1113 H 0.57261 0.60743 0.44823 0.0
H1114 H 0.74488 0.53722 0.41709 0.0
H1115 H 0.75316 0.59903 0.41648 0.0
H1116 H 0.72127 0.5711 0.40059 0.0
H1117 H 0.64909 0.52584 0.46888 0.0
H1118 H 0.59776 0.56158 0.47057 0.0
H1119 H 0.65442 0.58616 0.47386 0.0
C1120 C 0.7499 0.55431 0.70017 0.0
C1121 C 0.72869 0.5635 0.71517 0.0
C1122 C 0.73583 0.51623 0.69075 0.0
C1123 C 0.69994 0.48668 0.69654 0.0
C1124 C 0.68021 0.49451 0.71205 0.0
C1125 C 0.69474 0.53284 0.72114 0.0
C1126 C 0.75766 0.50908 0.67428 0.0
C1127 C 0.64216 0.46362 0.71878 0.0
C1128 C 0.61352 0.42665 0.66951 0.0
C1129 C 0.62668 0.38002 0.67116 0.0
C1130 C 0.63952 0.46221 0.67661 0.0
C1131 C 0.67914 0.45065 0.68589 0.0
C1132 C 0.69442 0.40376 0.68663 0.0
C1133 C 0.66796 0.36881 0.67915 0.0
C1134 C 0.62234 0.51173 0.67526 0.0
C1135 C 0.73643 0.39001 0.69638 0.0
H1136 H 0.77608 0.57802 0.69549 0.0
H1137 H 0.67887 0.53936 0.73286 0.0
H1138 H 0.76736 0.47205 0.67261 0.0
H1139 H 0.73213 0.51803 0.66474 0.0
H1140 H 0.78905 0.53102 0.67246 0.0
H1141 H 0.6333 0.47204 0.73155 0.0
H1142 H 0.6104 0.46772 0.71135 0.0
H1143 H 0.65272 0.42655 0.71816 0.0
H1144 H 0.58145 0.43507 0.66331 0.0
H1145 H 0.67772 0.33257 0.68054 0.0
H1146 H 0.65137 0.5356 0.67215 0.0
H1147 H 0.60787 0.52287 0.68712 0.0
H1148 H 0.59483 0.51559 0.66597 0.0
H1149 H 0.76556 0.41453 0.69414 0.0
H1150 H 0.74822 0.35415 0.69353 0.0
H1151 H 0.72768 0.39153 0.70948 0.0
C1152 C 0.74717 0.5855 0.0421 0.0
C1153 C 0.70413 0.60499 0.04634 0.0
C1154 C 0.7884 0.60061 0.04945 0.0
C1155 C 0.78628 0.63521 0.06158 0.0
C1156 C 0.74308 0.65622 0.06542 0.0
C1157 C 0.70262 0.64105 0.05767 0.0
C1158 C 0.8339 0.57838 0.04467 0.0
C1159 C 0.73912 0.69296 0.07837 0.0
C1160 C 0.86739 0.63427 0.09737 0.0
C1161 C 0.8927 0.67544 0.09489 0.0
C1162 C 0.83475 0.61915 0.08605 0.0
C1163 C 0.82758 0.6455 0.07175 0.0
C1164 C 0.85617 0.68464 0.06842 0.0
C1165 C 0.88844 0.6993 0.08009 0.0
C1166 C 0.80507 0.57727 0.09016 0.0
C1167 C 0.85034 0.71307 0.05314 0.0
H1168 H 0.74852 0.55811 0.03313 0.0
H1169 H 0.66939 0.65606 0.06102 0.0
H1170 H 0.86099 0.60536 0.04274 0.0
H1171 H 0.84596 0.55522 0.05459 0.0
H1172 H 0.83074 0.5574 0.03347 0.0
H1173 H 0.70355 0.70775 0.07923 0.0
H1174 H 0.74827 0.6776 0.09031 0.0
H1175 H 0.76388 0.72173 0.07591 0.0
H1176 H 0.87095 0.61536 0.10871 0.0
H1177 H 0.90773 0.73126 0.07811 0.0
H1178 H 0.80437 0.55269 0.07987 0.0
H1179 H 0.7688 0.58868 0.09246 0.0
H1180 H 0.81766 0.55839 0.10107 0.0
H1181 H 0.8453 0.69016 0.04252 0.0
H1182 H 0.88074 0.73602 0.05082 0.0
H1183 H 0.81902 0.73531 0.0543 0.0
C1184 C 0.69213 0.44299 0.33616 0.0
C1185 C 0.71528 0.44897 0.32128 0.0
C1186 C 0.67201 0.48104 0.34424 0.0
C1187 C 0.67578 0.5263 0.33743 0.0
C1188 C 0.70129 0.53278 0.32285 0.0
C1189 C 0.72032 0.49403 0.31488 0.0
C1190 C 0.64445 0.47239 0.35959 0.0
C1191 C 0.70686 0.58044 0.31529 0.0
C1192 C 0.57816 0.61263 0.34478 0.0
C1193 C 0.59634 0.64113 0.35696 0.0
C1194 C 0.60335 0.57489 0.33862 0.0
C1195 C 0.64862 0.56579 0.34443 0.0
C1196 C 0.66749 0.59456 0.35666 0.0
C1197 C 0.64081 0.63152 0.36298 0.0
C1198 C 0.58117 0.54449 0.32594 0.0
C1199 C 0.71584 0.5864 0.363 0.0
H1200 H 0.68787 0.40819 0.34109 0.0
H1201 H 0.73865 0.49887 0.30348 0.0
H1202 H 0.65546 0.49663 0.36924 0.0
H1203 H 0.6071 0.47902 0.35727 0.0
H1204 H 0.64834 0.43611 0.36411 0.0
H1205 H 0.73216 0.58045 0.30507 0.0
H1206 H 0.67284 0.59265 0.31066 0.0
H1207 H 0.71853 0.60582 0.32449 0.0
H1208 H 0.54342 0.61908 0.34029 0.0
H1209 H 0.6549 0.65319 0.37246 0.0
H1210 H 0.5809 0.50769 0.33009 0.0
H1211 H 0.60173 0.54609 0.31454 0.0
H1212 H 0.54489 0.55508 0.32325 0.0
H1213 H 0.71795 0.55148 0.36876 0.0
H1214 H 0.72618 0.61293 0.37203 0.0
H1215 H 0.74124 0.58699 0.35284 0.0
C1216 C 0.79284 0.40365 0.56742 0.0
C1217 C 0.80002 0.45011 0.56278 0.0
C1218 C 0.75337 0.39043 0.57639 0.0
C1219 C 0.71989 0.4244 0.58069 0.0
C1220 C 0.72731 0.47153 0.57628 0.0
C1221 C 0.76745 0.48388 0.56744 0.0
C1222 C 0.74722 0.3399 0.58109 0.0
C1223 C 0.69222 0.50863 0.58048 0.0
C1224 C 0.60096 0.3709 0.58704 0.0
C1225 C 0.5997 0.3645 0.6039 0.0
C1226 C 0.63846 0.39343 0.57943 0.0
C1227 C 0.67596 0.40958 0.58889 0.0
C1228 C 0.67325 0.40638 0.60602 0.0
C1229 C 0.63494 0.38408 0.61335 0.0
C1230 C 0.63954 0.39662 0.56116 0.0
C1231 C 0.71242 0.42312 0.61656 0.0
H1232 H 0.81832 0.37758 0.56408 0.0
H1233 H 0.77279 0.51981 0.56381 0.0
H1234 H 0.74483 0.33652 0.59447 0.0
H1235 H 0.71429 0.32638 0.57606 0.0
H1236 H 0.77626 0.31777 0.5767 0.0
H1237 H 0.70448 0.54405 0.57709 0.0
H1238 H 0.6592 0.50169 0.57407 0.0
H1239 H 0.68442 0.50786 0.59366 0.0
H1240 H 0.57368 0.35606 0.57969 0.0
H1241 H 0.63439 0.37899 0.62638 0.0
H1242 H 0.66548 0.37163 0.55634 0.0
H1243 H 0.65023 0.43196 0.55714 0.0
H1244 H 0.60526 0.38844 0.55577 0.0
H1245 H 0.74216 0.39875 0.61549 0.0
H1246 H 0.70196 0.425 0.62953 0.0
H1247 H 0.7247 0.45792 0.61254 0.0
C1248 C 0.84342 0.5145 0.78772 0.0
C1249 C 0.86113 0.55738 0.79293 0.0
C1250 C 0.85548 0.47271 0.79557 0.0
C1251 C 0.88559 0.47393 0.80905 0.0
C1252 C 0.90496 0.51692 0.81396 0.0
C1253 C 0.89254 0.55805 0.80583 0.0
C1254 C 0.83458 0.42759 0.78985 0.0
C1255 C 0.9369 0.51995 0.82837 0.0
C1256 C 0.87786 0.38905 0.84411 0.0
C1257 C 0.91958 0.36431 0.84243 0.0
C1258 C 0.86459 0.42252 0.83262 0.0
C1259 C 0.89374 0.43147 0.81909 0.0
C1260 C 0.93375 0.40365 0.81655 0.0
C1261 C 0.94616 0.37015 0.82826 0.0
C1262 C 0.82148 0.45111 0.83577 0.0
C1263 C 0.96522 0.4117 0.80211 0.0
H1264 H 0.81963 0.51371 0.77759 0.0
H1265 H 0.90599 0.59105 0.81003 0.0
H1266 H 0.86175 0.40042 0.78872 0.0
H1267 H 0.8088 0.41495 0.7989 0.0
H1268 H 0.81687 0.43164 0.778 0.0
H1269 H 0.95411 0.55445 0.82918 0.0
H1270 H 0.91654 0.51396 0.83965 0.0
H1271 H 0.96407 0.49266 0.82778 0.0
H1272 H 0.857 0.38438 0.85499 0.0
H1273 H 0.97858 0.35132 0.82692 0.0
H1274 H 0.80003 0.45364 0.82469 0.0
H1275 H 0.83168 0.48699 0.83915 0.0
H1276 H 0.79983 0.43626 0.84572 0.0
H1277 H 0.99477 0.38685 0.80179 0.0
H1278 H 0.97927 0.44763 0.80237 0.0
H1279 H 0.94514 0.40832 0.79076 0.0
C1280 C 0.24274 0.55944 0.0569 0.0
C1281 C 0.28156 0.58885 0.05514 0.0
C1282 C 0.20512 0.57141 0.06702 0.0
C1283 C 0.20556 0.6144 0.07528 0.0
C1284 C 0.24376 0.64494 0.07317 0.0
C1285 C 0.28145 0.63153 0.06338 0.0
C1286 C 0.16535 0.53763 0.06913 0.0
C1287 C 0.24531 0.69161 0.0815 0.0
C1288 C 0.09712 0.67274 0.09201 0.0
C1289 C 0.10391 0.66748 0.1087 0.0
C1290 C 0.12862 0.65343 0.08084 0.0
C1291 C 0.16704 0.62737 0.08656 0.0
C1292 C 0.17155 0.61872 0.10341 0.0
C1293 C 0.14038 0.63966 0.11431 0.0
C1294 C 0.1231 0.66442 0.06305 0.0
C1295 C 0.21134 0.59035 0.11003 0.0
H1296 H 0.24162 0.52685 0.05039 0.0
H1297 H 0.31132 0.65432 0.06251 0.0
H1298 H 0.16231 0.52716 0.08206 0.0
H1299 H 0.13215 0.55455 0.06575 0.0
H1300 H 0.1699 0.50583 0.0617 0.0
H1301 H 0.27517 0.71319 0.07736 0.0
H1302 H 0.21279 0.71127 0.07924 0.0
H1303 H 0.24808 0.68633 0.09479 0.0
H1304 H 0.06957 0.69536 0.08774 0.0
H1305 H 0.14598 0.63639 0.12725 0.0
H1306 H 0.1244 0.63204 0.05582 0.0
H1307 H 0.15232 0.68676 0.05889 0.0
H1308 H 0.08997 0.68278 0.06047 0.0
H1309 H 0.21598 0.55796 0.10295 0.0
H1310 H 0.20592 0.58094 0.12298 0.0
H1311 H 0.244 0.61066 0.10896 0.0
C1312 C 0.12978 0.54013 0.80622 0.0
C1313 C 0.17653 0.55249 0.80395 0.0
C1314 C 0.11705 0.50269 0.81636 0.0
C1315 C 0.15188 0.47658 0.82441 0.0
C1316 C 0.19921 0.48777 0.8217 0.0
C1317 C 0.21095 0.52569 0.81158 0.0
C1318 C 0.06613 0.49238 0.819 0.0
C1319 C 0.23739 0.4605 0.82984 0.0
C1320 C 0.10815 0.42268 0.86367 0.0
C1321 C 0.09519 0.37796 0.85873 0.0
C1322 C 0.12959 0.45404 0.8529 0.0
C1323 C 0.13816 0.4405 0.83668 0.0
C1324 C 0.12859 0.39404 0.83199 0.0
C1325 C 0.10719 0.36319 0.84311 0.0
C1326 C 0.13938 0.50294 0.85855 0.0
C1327 C 0.1374 0.37802 0.81488 0.0
H1328 H 0.10292 0.56085 0.80052 0.0
H1329 H 0.24719 0.53456 0.80971 0.0
H1330 H 0.05903 0.4549 0.81704 0.0
H1331 H 0.0564 0.50033 0.83172 0.0
H1332 H 0.04355 0.51312 0.81082 0.0
H1333 H 0.27241 0.47073 0.82535 0.0
H1334 H 0.23592 0.46625 0.84312 0.0
H1335 H 0.23251 0.42268 0.82781 0.0
H1336 H 0.09869 0.43419 0.87575 0.0
H1337 H 0.09647 0.32893 0.83915 0.0
H1338 H 0.11479 0.52741 0.85266 0.0
H1339 H 0.175 0.51375 0.85499 0.0
H1340 H 0.13564 0.50636 0.8719 0.0
H1341 H 0.11051 0.39295 0.80679 0.0
H1342 H 0.13609 0.3395 0.81391 0.0
H1343 H 0.1717 0.3904 0.81042 0.0
C1344 C 0.22007 0.40317 0.56451 0.0
C1345 C 0.21317 0.45091 0.5619 0.0
C1346 C 0.25789 0.38689 0.57354 0.0
C1347 C 0.29003 0.41914 0.57996 0.0
C1348 C 0.283 0.46746 0.57751 0.0
C1349 C 0.24438 0.48281 0.5686 0.0
C1350 C 0.26369 0.33507 0.57607 0.0
C1351 C 0.31685 0.50279 0.58397 0.0
C1352 C 0.36725 0.3697 0.613 0.0
C1353 C 0.40542 0.35408 0.60391 0.0
C1354 C 0.33028 0.39322 0.60552 0.0
C1355 C 0.33188 0.40166 0.58859 0.0
C1356 C 0.37183 0.38872 0.57959 0.0
C1357 C 0.40793 0.36472 0.58734 0.0
C1358 C 0.28822 0.40609 0.61555 0.0
C1359 C 0.3753 0.39777 0.56158 0.0
H1360 H 0.19558 0.37849 0.55954 0.0
H1361 H 0.23917 0.51973 0.56653 0.0
H1362 H 0.29634 0.32318 0.57021 0.0
H1363 H 0.26642 0.32695 0.5892 0.0
H1364 H 0.23436 0.31482 0.57101 0.0
H1365 H 0.30539 0.53912 0.58162 0.0
H1366 H 0.32135 0.4979 0.59721 0.0
H1367 H 0.35139 0.49764 0.57821 0.0
H1368 H 0.36481 0.36081 0.62575 0.0
H1369 H 0.43751 0.35282 0.58029 0.0
H1370 H 0.25845 0.38387 0.61204 0.0
H1371 H 0.27812 0.44275 0.61321 0.0
H1372 H 0.29434 0.40147 0.62874 0.0
H1373 H 0.35046 0.375 0.55514 0.0
H1374 H 0.41075 0.3909 0.55677 0.0
H1375 H 0.36583 0.43434 0.55875 0.0
C1376 C 0.3244 0.49016 0.30641 0.0
C1377 C 0.29984 0.45243 0.31306 0.0
C1378 C 0.34833 0.52124 0.31637 0.0
C1379 C 0.34706 0.51473 0.33339 0.0
C1380 C 0.32228 0.47687 0.3402 0.0
C1381 C 0.29931 0.44594 0.32994 0.0
C1382 C 0.3748 0.56114 0.3087 0.0
C1383 C 0.31989 0.46917 0.35831 0.0
C1384 C 0.44062 0.5756 0.35741 0.0
C1385 C 0.41808 0.61714 0.36142 0.0
C1386 C 0.41756 0.5412 0.34857 0.0
C1387 C 0.3707 0.5484 0.34406 0.0
C1388 C 0.34709 0.58918 0.34898 0.0
C1389 C 0.37133 0.62342 0.35744 0.0
C1390 C 0.4441 0.49855 0.34327 0.0
C1391 C 0.29684 0.59756 0.34469 0.0
H1392 H 0.32466 0.49563 0.2934 0.0
H1393 H 0.28138 0.41624 0.33518 0.0
H1394 H 0.35983 0.59472 0.31275 0.0
H1395 H 0.41157 0.56035 0.31265 0.0
H1396 H 0.37396 0.56012 0.29525 0.0
H1397 H 0.2988 0.43816 0.36166 0.0
H1398 H 0.35538 0.4646 0.36322 0.0
H1399 H 0.30457 0.50015 0.36426 0.0
H1400 H 0.47708 0.57126 0.36029 0.0
H1401 H 0.35411 0.65572 0.3606 0.0
H1402 H 0.44778 0.49877 0.32987 0.0
H1403 H 0.4248 0.46652 0.34668 0.0
H1404 H 0.47934 0.49689 0.34865 0.0
H1405 H 0.29359 0.60209 0.33139 0.0
H1406 H 0.28251 0.62899 0.35069 0.0
H1407 H 0.27535 0.56707 0.34824 0.0
C1408 C 0.24153 0.46003 0.97345 0.0
C1409 C 0.28715 0.45599 0.96768 0.0
C1410 C 0.20384 0.44611 0.96389 0.0
C1411 C 0.21209 0.42898 0.94806 0.0
C1412 C 0.25817 0.42672 0.94198 0.0
C1413 C 0.29523 0.43964 0.95197 0.0
C1414 C 0.1554 0.44799 0.97096 0.0
C1415 C 0.2684 0.4093 0.92511 0.0
C1416 C 0.12534 0.34355 0.93077 0.0
C1417 C 0.0978 0.37225 0.92093 0.0
C1418 C 0.16259 0.36163 0.93957 0.0
C1419 C 0.17305 0.40965 0.93843 0.0
C1420 C 0.14604 0.43877 0.92825 0.0
C1421 C 0.10834 0.4198 0.91974 0.0
C1422 C 0.18999 0.32931 0.95038 0.0
C1423 C 0.15716 0.48982 0.92628 0.0
H1424 H 0.23552 0.47262 0.98564 0.0
H1425 H 0.33065 0.4369 0.94754 0.0
H1426 H 0.13208 0.46788 0.96282 0.0
H1427 H 0.14119 0.41218 0.97202 0.0
H1428 H 0.15463 0.46426 0.98314 0.0
H1429 H 0.30541 0.41426 0.92163 0.0
H1430 H 0.26009 0.37167 0.9244 0.0
H1431 H 0.24625 0.42761 0.91615 0.0
H1432 H 0.11727 0.30681 0.93185 0.0
H1433 H 0.08749 0.44204 0.91201 0.0
H1434 H 0.18237 0.33753 0.96325 0.0
H1435 H 0.22785 0.3339 0.94845 0.0
H1436 H 0.18128 0.29226 0.94821 0.0
H1437 H 0.15345 0.50764 0.9381 0.0
H1438 H 0.13418 0.50727 0.91735 0.0
H1439 H 0.19378 0.49419 0.92228 0.0
C1440 C 0.2425 0.52328 0.70641 0.0
C1441 C 0.27685 0.54907 0.71436 0.0
C1442 C 0.25426 0.4842 0.69706 0.0
C1443 C 0.30144 0.47093 0.69559 0.0
C1444 C 0.33622 0.49734 0.7034 0.0
C1445 C 0.32348 0.53595 0.71268 0.0
C1446 C 0.2163 0.45674 0.68898 0.0
C1447 C 0.38705 0.48467 0.70205 0.0
C1448 C 0.34837 0.35089 0.68762 0.0
C1449 C 0.36707 0.35682 0.67207 0.0
C1450 C 0.32212 0.38626 0.69488 0.0
C1451 C 0.31529 0.4287 0.68641 0.0
C1452 C 0.33029 0.43288 0.67007 0.0
C1453 C 0.35634 0.39678 0.66309 0.0
C1454 C 0.30634 0.38008 0.71223 0.0
C1455 C 0.32347 0.47733 0.66055 0.0
H1456 H 0.20637 0.53324 0.70773 0.0
H1457 H 0.35021 0.55631 0.71853 0.0
H1458 H 0.22377 0.4533 0.67584 0.0
H1459 H 0.21502 0.42106 0.69417 0.0
H1460 H 0.18163 0.47314 0.69054 0.0
H1461 H 0.40977 0.50952 0.70854 0.0
H1462 H 0.39284 0.44934 0.70715 0.0
H1463 H 0.39787 0.48392 0.68913 0.0
H1464 H 0.35739 0.32008 0.69458 0.0
H1465 H 0.37184 0.40168 0.65121 0.0
H1466 H 0.27083 0.39419 0.71401 0.0
H1467 H 0.32999 0.3996 0.7203 0.0
H1468 H 0.30663 0.34291 0.71602 0.0
H1469 H 0.28819 0.4917 0.6626 0.0
H1470 H 0.32877 0.47195 0.64735 0.0
H1471 H 0.34889 0.50369 0.66468 0.0
C1472 C 0.24104 0.55209 0.46525 0.0
C1473 C 0.20958 0.58248 0.47276 0.0
C1474 C 0.27952 0.56916 0.45651 0.0
C1475 C 0.28657 0.61782 0.45514 0.0
C1476 C 0.2544 0.6487 0.46241 0.0
C1477 C 0.21642 0.63066 0.47119 0.0
C1478 C 0.31329 0.53509 0.44908 0.0
C1479 C 0.26047 0.70079 0.4611 0.0
C1480 C 0.40976 0.66105 0.44815 0.0
C1481 C 0.41033 0.67025 0.43142 0.0
C1482 C 0.36974 0.64412 0.45597 0.0
C1483 C 0.32899 0.63632 0.44689 0.0
C1484 C 0.32903 0.64591 0.43002 0.0
C1485 C 0.36973 0.66268 0.42248 0.0
C1486 C 0.37121 0.63435 0.47397 0.0
C1487 C 0.28609 0.63846 0.41997 0.0
H1488 H 0.23617 0.51484 0.46653 0.0
H1489 H 0.19184 0.65434 0.47676 0.0
H1490 H 0.31758 0.54243 0.43594 0.0
H1491 H 0.34791 0.53913 0.45474 0.0
H1492 H 0.30185 0.49841 0.45066 0.0
H1493 H 0.23101 0.72013 0.46662 0.0
H1494 H 0.29297 0.71134 0.46722 0.0
H1495 H 0.2638 0.71132 0.44819 0.0
H1496 H 0.44077 0.66691 0.45523 0.0
H1497 H 0.36967 0.66989 0.40957 0.0
H1498 H 0.36251 0.59733 0.47638 0.0
H1499 H 0.34484 0.65582 0.48032 0.0
H1500 H 0.40579 0.64182 0.47925 0.0
H1501 H 0.27513 0.6015 0.42074 0.0
H1502 H 0.29172 0.64776 0.40702 0.0
H1503 H 0.25706 0.65977 0.42479 0.0
C1504 C 0.18458 0.4666 0.20711 0.0
C1505 C 0.15903 0.4581 0.22145 0.0
C1506 C 0.1743 0.50453 0.19688 0.0
C1507 C 0.13893 0.53623 0.20133 0.0
C1508 C 0.11403 0.529 0.21596 0.0
C1509 C 0.12353 0.48966 0.22559 0.0
C1510 C 0.20092 0.51034 0.18117 0.0
C1511 C 0.07736 0.56306 0.22148 0.0
C1512 C 0.13553 0.65759 0.18234 0.0
C1513 C 0.09802 0.65366 0.17167 0.0
C1514 C 0.14978 0.6195 0.1919 0.0
C1515 C 0.12666 0.57617 0.19048 0.0
C1516 C 0.08998 0.57161 0.17924 0.0
C1517 C 0.07582 0.61046 0.17012 0.0
C1518 C 0.18822 0.62621 0.20402 0.0
C1519 C 0.06478 0.52596 0.17715 0.0
H1520 H 0.21292 0.44376 0.2038 0.0
H1521 H 0.10247 0.48366 0.2363 0.0
H1522 H 0.17645 0.51039 0.17083 0.0
H1523 H 0.21922 0.5443 0.18098 0.0
H1524 H 0.22687 0.48225 0.17929 0.0
H1525 H 0.06113 0.55264 0.2332 0.0
H1526 H 0.09306 0.59805 0.22291 0.0
H1527 H 0.04987 0.56633 0.2122 0.0
H1528 H 0.15255 0.69097 0.18372 0.0
H1529 H 0.04694 0.60709 0.16184 0.0
H1530 H 0.2158 0.59979 0.20222 0.0
H1531 H 0.17426 0.62129 0.21648 0.0
H1532 H 0.20411 0.66138 0.20313 0.0
H1533 H 0.09006 0.49744 0.17506 0.0
H1534 H 0.04002 0.52701 0.16688 0.0
H1535 H 0.04512 0.51733 0.18838 0.0
loop_
_geom_bond_atom_site_label_1
_geom_bond_atom_site_label_2
_geom_bond_distance
_geom_bond_site_symmetry_2
_ccdc_geom_bond_type
H0 C19 0.949 . S
H1 C20 0.950 . S
H2 C22 0.940 1_545 S
H3 C23 0.950 . S
H4 C25 0.950 . S
H5 C28 0.950 1_565 S
H6 C29 0.950 . S
H7 C31 0.951 . S
H8 C32 0.949 . S
H9 C34 0.949 . S
H10 C35 0.950 . S
H11 C37 0.950 . S
H12 C38 0.950 1_565 S
H13 C40 0.950 . S
H14 C43 0.950 . S
H15 C44 0.950 1_545 S
H16 C46 0.951 . S
H17 C47 0.949 . S
C18 C19 1.376 . S
C18 C23 1.386 1_565 S
C18 C24 1.483 . S
C19 H0 0.949 . S
C19 C18 1.376 . S
C19 C20 1.397 . S
C20 H1 0.950 . S
C20 C19 1.397 . S
C20 C21 1.391 . S
C21 C20 1.391 . S
C21 C22 1.420 . S
C22 H2 0.940 1_565 S
C22 C21 1.420 . S
C22 C23 1.363 1_565 S
C23 H3 0.950 . S
C23 C18 1.386 1_545 S
C23 C22 1.363 1_545 S
C24 C18 1.483 . S
C24 C25 1.382 . S
C24 C26 1.403 1_565 S
C25 H4 0.950 . S
C25 C24 1.382 . S
C25 C41 1.411 1_655 S
C26 C24 1.403 1_545 S
C26 C27 1.489 . S
C26 C40 1.411 1_655 S
C27 C26 1.489 . S
C27 C28 1.383 . S
C27 C32 1.382 . S
C28 H5 0.950 1_545 S
C28 C27 1.383 . S
C28 C29 1.395 . S
C29 H6 0.950 . S
C29 C28 1.395 . S
C29 C30 1.288 . S
C30 C29 1.288 . S
C30 C31 1.392 . S
C31 H7 0.951 . S
C31 C30 1.392 . S
C31 C32 1.392 . S
C32 H8 0.949 . S
C32 C27 1.382 . S
C32 C31 1.392 . S
C33 C34 1.376 . S
C33 C38 1.386 . S
C33 C39 1.483 . S
C34 H9 0.949 . S
C34 C33 1.376 . S
C34 C35 1.397 . S
C35 H10 0.950 . S
C35 C34 1.397 . S
C35 C36 1.391 . S
C36 C35 1.391 . S
C36 C37 1.405 . S
C37 H11 0.950 . S
C37 C36 1.405 . S
C37 C38 1.367 . S
C38 H12 0.950 1_545 S
C38 C33 1.386 . S
C38 C37 1.367 . S
C39 C33 1.483 . S
C39 C40 1.382 . S
C39 C41 1.403 1_545 S
C40 H13 0.950 . S
C40 C26 1.411 1_455 S
C40 C39 1.382 . S
C41 C25 1.411 1_455 S
C41 C39 1.403 1_565 S
C41 C42 1.489 . S
C42 C41 1.489 . S
C42 C43 1.383 1_565 S
C42 C47 1.382 . S
C43 H14 0.950 . S
C43 C42 1.383 1_545 S
C43 C44 1.395 1_545 S
C44 H15 0.950 1_565 S
C44 C43 1.395 1_565 S
C44 C45 1.288 . S
C45 C44 1.288 . S
C45 C46 1.392 . S
C46 H16 0.951 . S
C46 C45 1.392 . S
C46 C47 1.392 . S
C47 H17 0.949 . S
C47 C42 1.382 . S
C47 C46 1.392 . S
H48 C67 0.949 . S
H49 C68 0.950 . S
H50 C70 0.950 . S
H51 C71 0.950 . S
H52 C73 0.950 . S
H53 C76 0.950 . S
H54 C77 0.950 . S
H55 C79 0.951 . S
H56 C80 0.949 . S
H57 C82 0.949 . S
H58 C83 0.950 . S
H59 C85 0.950 . S
H60 C86 0.950 . S
H61 C88 0.950 . S
H62 C91 0.950 . S
H63 C92 0.950 . S
H64 C94 0.951 . S
H65 C95 0.949 . S
C66 C67 1.376 . S
C66 C71 1.386 . S
C66 C72 1.483 . S
C67 H48 0.949 . S
C67 C66 1.376 . S
C67 C68 1.397 . S
C68 H49 0.950 . S
C68 C67 1.397 . S
C68 C69 1.391 . S
C69 C68 1.391 . S
C69 C70 1.405 . S
C70 H50 0.950 . S
C70 C69 1.405 . S
C70 C71 1.367 . S
C71 H51 0.950 . S
C71 C66 1.386 . S
C71 C70 1.367 . S
C72 C66 1.483 . S
C72 C73 1.382 . S
C72 C74 1.403 . S
C73 H52 0.950 . S
C73 C72 1.382 . S
C73 C89 1.411 . S
C74 C72 1.403 . S
C74 C75 1.489 . S
C74 C88 1.411 . S
C75 C74 1.489 . S
C75 C76 1.383 . S
C75 C80 1.382 . S
C76 H53 0.950 . S
C76 C75 1.383 . S
C76 C77 1.395 . S
C77 H54 0.950 . S
C77 C76 1.395 . S
C77 C78 1.288 . S
C78 C77 1.288 . S
C78 C79 1.392 . S
C79 H55 0.951 . S
C79 C78 1.392 . S
C79 C80 1.392 . S
C80 H56 0.949 . S
C80 C75 1.382 . S
C80 C79 1.392 . S
C81 C82 1.376 . S
C81 C86 1.386 . S
C81 C87 1.483 . S
C82 H57 0.949 . S
C82 C81 1.376 . S
C82 C83 1.397 . S
C83 H58 0.950 . S
C83 C82 1.397 . S
C83 C84 1.391 . S
C84 C83 1.391 . S
C84 C85 1.405 . S
C85 H59 0.950 . S
C85 C84 1.405 . S
C85 C86 1.367 . S
C86 H60 0.950 . S
C86 C81 1.386 . S
C86 C85 1.367 . S
C87 C81 1.483 . S
C87 C88 1.382 . S
C87 C89 1.403 . S
C88 H61 0.950 . S
C88 C74 1.411 . S
C88 C87 1.382 . S
C89 C73 1.411 . S
C89 C87 1.403 . S
C89 C90 1.489 . S
C90 C89 1.489 . S
C90 C91 1.383 . S
C90 C95 1.382 . S
C91 H62 0.950 . S
C91 C90 1.383 . S
C91 C92 1.395 . S
C92 H63 0.950 . S
C92 C91 1.395 . S
C92 C93 1.288 . S
C93 C92 1.288 . S
C93 C94 1.392 . S
C94 H64 0.951 . S
C94 C93 1.392 . S
C94 C95 1.392 . S
C95 H65 0.949 . S
C95 C90 1.382 . S
C95 C94 1.392 . S
H96 C115 0.949 1_545 S
H97 C116 0.950 . S
H98 C118 0.950 . S
H99 C119 0.950 . S
H100 C121 0.950 . S
H101 C124 0.950 . S
H102 C125 0.950 . S
H103 C127 0.951 . S
H104 C128 0.949 . S
H105 C130 0.949 1_565 S
H106 C131 0.950 . S
H107 C133 0.946 . S
H108 C134 0.950 . S
H109 C136 0.950 . S
H110 C139 0.950 . S
H111 C140 0.950 . S
H112 C142 0.951 . S
H113 C143 0.955 . S
C114 C115 1.376 . S
C114 C119 1.386 . S
C114 C120 1.483 . S
C115 H96 0.949 1_565 S
C115 C114 1.376 . S
C115 C116 1.397 . S
C116 H97 0.950 . S
C116 C115 1.397 . S
C116 C117 1.391 . S
C117 C116 1.391 . S
C117 C118 1.405 . S
C118 H98 0.950 . S
C118 C117 1.405 . S
C118 C119 1.367 . S
C119 H99 0.950 . S
C119 C114 1.386 . S
C119 C118 1.367 . S
C120 C114 1.483 . S
C120 C121 1.382 . S
C120 C122 1.403 1_565 S
C121 H100 0.950 . S
C121 C120 1.382 . S
C121 C137 1.411 . S
C122 C120 1.403 1_545 S
C122 C123 1.489 1_554 S
C122 C136 1.411 1_554 S
C123 C122 1.489 1_556 S
C123 C124 1.383 1_556 S
C123 C128 1.382 . S
C124 H101 0.950 . S
C124 C123 1.383 1_554 S
C124 C125 1.395 1_554 S
C125 H102 0.950 . S
C125 C124 1.395 1_556 S
C125 C126 1.288 . S
C126 C125 1.288 . S
C126 C127 1.392 . S
C127 H103 0.951 . S
C127 C126 1.392 . S
C127 C128 1.392 . S
C128 H104 0.949 . S
C128 C123 1.382 . S
C128 C127 1.392 . S
C129 C130 1.376 . S
C129 C134 1.386 1_556 S
C129 C135 1.483 1_556 S
C130 H105 0.949 1_545 S
C130 C129 1.376 . S
C130 C131 1.397 . S
C131 H106 0.950 . S
C131 C130 1.397 . S
C131 C132 1.391 . S
C132 C131 1.391 . S
C132 C133 1.405 . S
C133 H107 0.946 . S
C133 C132 1.405 . S
C133 C134 1.367 1_556 S
C134 H108 0.950 . S
C134 C129 1.386 1_554 S
C134 C133 1.367 1_554 S
C135 C129 1.483 1_554 S
C135 C136 1.382 1_554 S
C135 C137 1.403 1_545 S
C136 H109 0.950 . S
C136 C122 1.411 1_556 S
C136 C135 1.382 1_556 S
C137 C121 1.411 . S
C137 C135 1.403 1_565 S
C137 C138 1.489 . S
C138 C137 1.489 . S
C138 C139 1.383 . S
C138 C143 1.382 . S
C139 H110 0.950 . S
C139 C138 1.383 . S
C139 C140 1.395 . S
C140 H111 0.950 . S
C140 C139 1.395 . S
C140 C141 1.288 . S
C141 C140 1.288 . S
C141 C142 1.392 . S
C142 H112 0.951 . S
C142 C141 1.392 . S
C142 C143 1.392 . S
C143 H113 0.955 . S
C143 C138 1.382 . S
C143 C142 1.392 . S
H144 C163 0.949 . S
H145 C164 0.950 . S
H146 C166 0.950 . S
H147 C167 0.950 . S
H148 C169 0.950 . S
H149 C172 0.950 . S
H150 C173 0.950 . S
H151 C175 0.951 . S
H152 C176 0.949 . S
H153 C178 0.949 . S
H154 C179 0.950 . S
H155 C181 0.950 . S
H156 C182 0.950 . S
H157 C184 0.950 . S
H158 C187 0.950 . S
H159 C188 0.950 . S
H160 C190 0.951 . S
H161 C191 0.949 . S
C162 C163 1.376 . S
C162 C167 1.386 . S
C162 C168 1.483 . S
C163 H144 0.949 . S
C163 C162 1.376 . S
C163 C164 1.397 . S
C164 H145 0.950 . S
C164 C163 1.397 . S
C164 C165 1.391 . S
C165 C164 1.391 . S
C165 C166 1.405 . S
C166 H146 0.950 . S
C166 C165 1.405 . S
C166 C167 1.367 . S
C167 H147 0.950 . S
C167 C162 1.386 . S
C167 C166 1.367 . S
C168 C162 1.483 . S
C168 C169 1.382 . S
C168 C170 1.403 . S
C169 H148 0.950 . S
C169 C168 1.382 . S
C169 C185 1.411 . S
C170 C168 1.403 . S
C170 C171 1.489 . S
C170 C184 1.411 . S
C171 C170 1.489 . S
C171 C172 1.383 . S
C171 C176 1.382 . S
C172 H149 0.950 . S
C172 C171 1.383 . S
C172 C173 1.395 . S
C173 H150 0.950 . S
C173 C172 1.395 . S
C173 C174 1.288 . S
C174 C173 1.288 . S
C174 C175 1.392 . S
C175 H151 0.951 . S
C175 C174 1.392 . S
C175 C176 1.392 . S
C176 H152 0.949 . S
C176 C171 1.382 . S
C176 C175 1.392 . S
C177 C178 1.376 . S
C177 C182 1.386 . S
C177 C183 1.483 . S
C178 H153 0.949 . S
C178 C177 1.376 . S
C178 C179 1.397 . S
C179 H154 0.950 . S
C179 C178 1.397 . S
C179 C180 1.391 . S
C180 C179 1.391 . S
C180 C181 1.405 . S
C181 H155 0.950 . S
C181 C180 1.405 . S
C181 C182 1.367 . S
C182 H156 0.950 . S
C182 C177 1.386 . S
C182 C181 1.367 . S
C183 C177 1.483 . S
C183 C184 1.382 . S
C183 C185 1.403 . S
C184 H157 0.950 . S
C184 C170 1.411 . S
C184 C183 1.382 . S
C185 C169 1.411 . S
C185 C183 1.403 . S
C185 C186 1.489 . S
C186 C185 1.489 . S
C186 C187 1.383 . S
C186 C191 1.382 . S
C187 H158 0.950 . S
C187 C186 1.383 . S
C187 C188 1.395 . S
C188 H159 0.950 . S
C188 C187 1.395 . S
C188 C189 1.288 . S
C189 C188 1.288 . S
C189 C190 1.392 . S
C190 H160 0.951 . S
C190 C189 1.392 . S
C190 C191 1.392 . S
C191 H161 0.949 . S
C191 C186 1.382 . S
C191 C190 1.392 . S
H192 C211 0.949 . S
H193 C212 0.950 . S
H194 C214 0.950 . S
H195 C215 0.950 . S
H196 C217 0.950 . S
H197 C220 0.950 . S
H198 C221 0.950 . S
H199 C223 0.951 . S
H200 C224 0.949 . S
H201 C226 0.949 . S
H202 C227 0.950 . S
H203 C229 0.950 . S
H204 C230 0.950 . S
H205 C232 0.950 . S
H206 C235 0.950 . S
H207 C236 0.950 . S
H208 C238 0.951 . S
H209 C239 0.949 . S
C210 C211 1.376 . S
C210 C215 1.386 . S
C210 C216 1.483 . S
C211 H192 0.949 . S
C211 C210 1.376 . S
C211 C212 1.397 . S
C212 H193 0.950 . S
C212 C211 1.397 . S
C212 C213 1.391 . S
C213 C212 1.391 . S
C213 C214 1.405 . S
C214 H194 0.950 . S
C214 C213 1.405 . S
C214 C215 1.367 . S
C215 H195 0.950 . S
C215 C210 1.386 . S
C215 C214 1.367 . S
C216 C210 1.483 . S
C216 C217 1.382 . S
C216 C218 1.403 . S
C217 H196 0.950 . S
C217 C216 1.382 . S
C217 C233 1.411 . S
C218 C216 1.403 . S
C218 C219 1.489 . S
C218 C232 1.411 . S
C219 C218 1.489 . S
C219 C220 1.383 . S
C219 C224 1.382 . S
C220 H197 0.950 . S
C220 C219 1.383 . S
C220 C221 1.395 . S
C221 H198 0.950 . S
C221 C220 1.395 . S
C221 C222 1.288 . S
C222 C221 1.288 . S
C222 C223 1.392 . S
C223 H199 0.951 . S
C223 C222 1.392 . S
C223 C224 1.392 . S
C224 H200 0.949 . S
C224 C219 1.382 . S
C224 C223 1.392 . S
C225 C226 1.376 . S
C225 C230 1.386 . S
C225 C231 1.483 . S
C226 H201 0.949 . S
C226 C225 1.376 . S
C226 C227 1.397 . S
C227 H202 0.950 . S
C227 C226 1.397 . S
C227 C228 1.391 . S
C228 C227 1.391 . S
C228 C229 1.405 . S
C229 H203 0.950 . S
C229 C228 1.405 . S
C229 C230 1.367 . S
C230 H204 0.950 . S
C230 C225 1.386 . S
C230 C229 1.367 . S
C231 C225 1.483 . S
C231 C232 1.382 . S
C231 C233 1.403 . S
C232 H205 0.950 . S
C232 C218 1.411 . S
C232 C231 1.382 . S
C233 C217 1.411 . S
C233 C231 1.403 . S
C233 C234 1.489 . S
C234 C233 1.489 . S
C234 C235 1.383 . S
C234 C239 1.382 . S
C235 H206 0.950 . S
C235 C234 1.383 . S
C235 C236 1.395 . S
C236 H207 0.950 . S
C236 C235 1.395 . S
C236 C237 1.288 . S
C237 C236 1.288 . S
C237 C238 1.392 . S
C238 H208 0.951 . S
C238 C237 1.392 . S
C238 C239 1.392 . S
C239 H209 0.949 . S
C239 C234 1.382 . S
C239 C238 1.392 . S
H240 C259 0.949 . S
H241 C260 0.950 . S
H242 C262 0.950 . S
H243 C263 0.950 . S
H244 C265 0.950 . S
H245 C268 0.950 . S
H246 C269 0.950 . S
H247 C271 0.951 . S
H248 C272 0.949 . S
H249 C274 0.949 . S
H250 C275 0.950 . S
H251 C277 0.950 . S
H252 C278 0.950 . S
H253 C280 0.950 . S
H254 C283 0.950 . S
H255 C284 0.950 . S
H256 C286 0.951 . S
H257 C287 0.949 . S
C258 C259 1.376 . S
C258 C263 1.386 . S
C258 C264 1.483 . S
C259 H240 0.949 . S
C259 C258 1.376 . S
C259 C260 1.397 . S
C260 H241 0.950 . S
C260 C259 1.397 . S
C260 C261 1.391 . S
C261 C260 1.391 . S
C261 C262 1.405 . S
C262 H242 0.950 . S
C262 C261 1.405 . S
C262 C263 1.367 . S
C263 H243 0.950 . S
C263 C258 1.386 . S
C263 C262 1.367 . S
C264 C258 1.483 . S
C264 C265 1.382 . S
C264 C266 1.403 . S
C265 H244 0.950 . S
C265 C264 1.382 . S
C265 C281 1.411 . S
C266 C264 1.403 . S
C266 C267 1.489 . S
C266 C280 1.411 . S
C267 C266 1.489 . S
C267 C268 1.383 . S
C267 C272 1.382 . S
C268 H245 0.950 . S
C268 C267 1.383 . S
C268 C269 1.395 . S
C269 H246 0.950 . S
C269 C268 1.395 . S
C269 C270 1.288 . S
C270 C269 1.288 . S
C270 C271 1.392 . S
C271 H247 0.951 . S
C271 C270 1.392 . S
C271 C272 1.392 . S
C272 H248 0.949 . S
C272 C267 1.382 . S
C272 C271 1.392 . S
C273 C274 1.376 . S
C273 C278 1.386 . S
C273 C279 1.483 . S
C274 H249 0.949 . S
C274 C273 1.376 . S
C274 C275 1.397 . S
C275 H250 0.950 . S
C275 C274 1.397 . S
C275 C276 1.391 . S
C276 C275 1.391 . S
C276 C277 1.405 . S
C277 H251 0.950 . S
C277 C276 1.405 . S
C277 C278 1.367 . S
C278 H252 0.950 . S
C278 C273 1.386 . S
C278 C277 1.367 . S
C279 C273 1.483 . S
C279 C280 1.382 . S
C279 C281 1.403 . S
C280 H253 0.950 . S
C280 C266 1.411 . S
C280 C279 1.382 . S
C281 C265 1.411 . S
C281 C279 1.403 . S
C281 C282 1.489 . S
C282 C281 1.489 . S
C282 C283 1.383 . S
C282 C287 1.382 . S
C283 H254 0.950 . S
C283 C282 1.383 . S
C283 C284 1.395 . S
C284 H255 0.950 . S
C284 C283 1.395 . S
C284 C285 1.288 . S
C285 C284 1.288 . S
C285 C286 1.392 . S
C286 H256 0.951 . S
C286 C285 1.392 . S
C286 C287 1.392 . S
C287 H257 0.949 . S
C287 C282 1.382 . S
C287 C286 1.392 . S
H288 C307 0.949 . S
H289 C308 0.950 . S
H290 C310 0.950 . S
H291 C311 0.950 . S
H292 C313 0.950 . S
H293 C316 0.950 . S
H294 C317 0.950 . S
H295 C319 0.951 . S
H296 C320 0.949 . S
H297 C322 0.949 . S
H298 C323 0.950 . S
H299 C325 0.950 . S
H300 C326 0.950 . S
H301 C328 0.950 . S
H302 C331 0.950 . S
H303 C332 0.950 . S
H304 C334 0.951 . S
H305 C335 0.949 . S
C306 C307 1.376 . S
C306 C311 1.386 . S
C306 C312 1.483 1_556 S
C307 H288 0.949 . S
C307 C306 1.376 . S
C307 C308 1.397 . S
C308 H289 0.950 . S
C308 C307 1.397 . S
C308 C309 1.391 . S
C309 C308 1.391 . S
C309 C310 1.405 . S
C310 H290 0.950 . S
C310 C309 1.405 . S
C310 C311 1.367 . S
C311 H291 0.950 . S
C311 C306 1.386 . S
C311 C310 1.367 . S
C312 C306 1.483 1_554 S
C312 C313 1.382 1_554 S
C312 C314 1.403 . S
C313 H292 0.950 . S
C313 C312 1.382 1_556 S
C313 C329 1.411 1_556 S
C314 C312 1.403 . S
C314 C315 1.489 . S
C314 C328 1.411 . S
C315 C314 1.489 . S
C315 C316 1.383 . S
C315 C320 1.382 . S
C316 H293 0.950 . S
C316 C315 1.383 . S
C316 C317 1.395 . S
C317 H294 0.950 . S
C317 C316 1.395 . S
C317 C318 1.288 . S
C318 C317 1.288 . S
C318 C319 1.392 . S
C319 H295 0.951 . S
C319 C318 1.392 . S
C319 C320 1.392 . S
C320 H296 0.949 . S
C320 C315 1.382 . S
C320 C319 1.392 . S
C321 C322 1.376 . S
C321 C326 1.386 . S
C321 C327 1.483 . S
C322 H297 0.949 . S
C322 C321 1.376 . S
C322 C323 1.397 . S
C323 H298 0.950 . S
C323 C322 1.397 . S
C323 C324 1.391 . S
C324 C323 1.391 . S
C324 C325 1.405 . S
C325 H299 0.950 . S
C325 C324 1.405 . S
C325 C326 1.367 . S
C326 H300 0.950 . S
C326 C321 1.386 . S
C326 C325 1.367 . S
C327 C321 1.483 . S
C327 C328 1.382 . S
C327 C329 1.403 . S
C328 H301 0.950 . S
C328 C314 1.411 . S
C328 C327 1.382 . S
C329 C313 1.411 1_554 S
C329 C327 1.403 . S
C329 C330 1.489 1_554 S
C330 C329 1.489 1_556 S
C330 C331 1.383 . S
C330 C335 1.382 . S
C331 H302 0.950 . S
C331 C330 1.383 . S
C331 C332 1.395 . S
C332 H303 0.950 . S
C332 C331 1.395 . S
C332 C333 1.288 . S
C333 C332 1.288 . S
C333 C334 1.392 . S
C334 H304 0.951 . S
C334 C333 1.392 . S
C334 C335 1.392 . S
C335 H305 0.949 . S
C335 C330 1.382 . S
C335 C334 1.392 . S
H336 C355 0.949 . S
H337 C356 0.950 . S
H338 C358 0.950 . S
H339 C359 0.950 . S
H340 C361 0.950 . S
H341 C364 0.950 . S
H342 C365 0.950 . S
H343 C367 0.951 . S
H344 C368 0.949 . S
H345 C370 0.949 . S
H346 C371 0.950 . S
H347 C373 0.950 . S
H348 C374 0.950 . S
H349 C376 0.950 . S
H350 C379 0.950 . S
H351 C380 0.950 . S
H352 C382 0.951 . S
H353 C383 0.949 . S
C354 C355 1.376 . S
C354 C359 1.386 . S
C354 C360 1.483 . S
C355 H336 0.949 . S
C355 C354 1.376 . S
C355 C356 1.397 . S
C356 H337 0.950 . S
C356 C355 1.397 . S
C356 C357 1.391 . S
C357 C356 1.391 . S
C357 C358 1.405 . S
C358 H338 0.950 . S
C358 C357 1.405 . S
C358 C359 1.367 . S
C359 H339 0.950 . S
C359 C354 1.386 . S
C359 C358 1.367 . S
C360 C354 1.483 . S
C360 C361 1.382 . S
C360 C362 1.403 . S
C361 H340 0.950 . S
C361 C360 1.382 . S
C361 C377 1.411 1_655 S
C362 C360 1.403 . S
C362 C363 1.489 . S
C362 C376 1.411 1_655 S
C363 C362 1.489 . S
C363 C364 1.383 . S
C363 C368 1.382 . S
C364 H341 0.950 . S
C364 C363 1.383 . S
C364 C365 1.395 . S
C365 H342 0.950 . S
C365 C364 1.395 . S
C365 C366 1.288 . S
C366 C365 1.288 . S
C366 C367 1.392 . S
C367 H343 0.951 . S
C367 C366 1.392 . S
C367 C368 1.392 . S
C368 H344 0.949 . S
C368 C363 1.382 . S
C368 C367 1.392 . S
C369 C370 1.376 . S
C369 C374 1.386 . S
C369 C375 1.483 . S
C370 H345 0.949 . S
C370 C369 1.376 . S
C370 C371 1.397 . S
C371 H346 0.950 . S
C371 C370 1.397 . S
C371 C372 1.391 . S
C372 C371 1.391 . S
C372 C373 1.405 . S
C373 H347 0.950 . S
C373 C372 1.405 . S
C373 C374 1.367 . S
C374 H348 0.950 . S
C374 C369 1.386 . S
C374 C373 1.367 . S
C375 C369 1.483 . S
C375 C376 1.382 . S
C375 C377 1.403 . S
C376 H349 0.950 . S
C376 C362 1.411 1_455 S
C376 C375 1.382 . S
C377 C361 1.411 1_455 S
C377 C375 1.403 . S
C377 C378 1.489 . S
C378 C377 1.489 . S
C378 C379 1.383 . S
C378 C383 1.382 . S
C379 H350 0.950 . S
C379 C378 1.383 . S
C379 C380 1.395 . S
C380 H351 0.950 . S
C380 C379 1.395 . S
C380 C381 1.288 . S
C381 C380 1.288 . S
C381 C382 1.392 . S
C382 H352 0.951 . S
C382 C381 1.392 . S
C382 C383 1.392 . S
C383 H353 0.949 . S
C383 C378 1.382 . S
C383 C382 1.392 . S
Fe384 O385 1.886 . S
Fe384 O388 1.715 1_455 S
Fe384 O393 2.077 . S
Fe384 O398 1.935 1_455 S
Fe384 O404 2.077 . S
Fe384 O413 1.935 1_455 S
O385 Fe384 1.886 . S
O385 Fe387 1.715 . S
Fe386 O388 1.886 . S
Fe386 O389 1.715 . S
Fe386 O396 1.935 . S
Fe386 O397 2.077 . S
Fe386 O403 1.935 . S
Fe386 O412 2.077 . S
Fe387 O385 1.715 . S
Fe387 O390 1.886 . S
Fe387 O394 1.935 . S
Fe387 O399 2.077 . S
Fe387 O405 1.935 . S
Fe387 O409 2.077 . S
O388 Fe384 1.715 1_655 S
O388 Fe386 1.886 . S
O389 Fe386 1.715 . S
O389 Fe391 1.902 . S
O390 Fe387 1.886 . S
O390 Fe391 1.699 1_455 S
Fe391 O389 1.902 . S
Fe391 O390 1.699 1_655 S
Fe391 O395 2.092 . S
Fe391 O400 1.923 1_655 S
Fe391 O402 2.092 . S
Fe391 O410 1.923 1_655 S
C392 O404 1.381 . S
C392 O405 1.421 . S
O393 Fe384 2.077 . S
O393 C406 1.381 . S
O394 Fe387 1.935 . S
O394 C406 1.421 . S
O395 Fe391 2.092 . S
O395 C411 1.381 . S
O396 Fe386 1.935 . S
O396 C411 1.421 . S
O397 Fe386 2.077 . S
O397 C401 1.381 . S
O398 Fe384 1.935 1_655 S
O398 C401 1.421 . S
O399 Fe387 2.077 . S
O399 C407 1.381 . S
O400 Fe391 1.923 1_455 S
O400 C407 1.421 . S
C401 O397 1.381 . S
C401 O398 1.421 . S
O402 Fe391 2.092 . S
O402 C414 1.381 . S
O403 Fe386 1.935 . S
O403 C414 1.421 . S
O404 Fe384 2.077 . S
O404 C392 1.381 . S
O405 Fe387 1.935 . S
O405 C392 1.421 . S
C406 O393 1.381 . S
C406 O394 1.421 . S
C407 O399 1.381 . S
C407 O400 1.421 . S
C408 O409 1.381 . S
C408 O410 1.421 . S
O409 Fe387 2.077 . S
O409 C408 1.381 . S
O410 Fe391 1.923 1_455 S
O410 C408 1.421 . S
C411 O395 1.381 . S
C411 O396 1.421 . S
O412 Fe386 2.077 . S
O412 C415 1.381 . S
O413 Fe384 1.935 1_655 S
O413 C415 1.421 . S
C414 O402 1.381 . S
C414 O403 1.421 . S
C415 O412 1.381 . S
C415 O413 1.421 . S
Fe416 O417 1.886 . S
Fe416 O420 1.715 . S
Fe416 O425 2.077 . S
Fe416 O430 1.935 . S
Fe416 O436 2.077 . S
Fe416 O445 1.935 . S
O417 Fe416 1.886 . S
O417 Fe419 1.715 . S
Fe418 O420 1.886 . S
Fe418 O421 1.715 . S
Fe418 O428 1.935 . S
Fe418 O429 2.077 . S
Fe418 O435 1.935 . S
Fe418 O444 2.077 . S
Fe419 O417 1.715 . S
Fe419 O422 1.886 . S
Fe419 O426 1.935 . S
Fe419 O431 2.077 . S
Fe419 O437 1.935 . S
Fe419 O441 2.077 . S
O420 Fe416 1.715 . S
O420 Fe418 1.886 . S
O421 Fe418 1.715 . S
O421 Fe423 1.886 . S
O422 Fe419 1.886 . S
O422 Fe423 1.715 . S
Fe423 O421 1.886 . S
Fe423 O422 1.715 . S
Fe423 O427 2.077 . S
Fe423 O432 1.935 . S
Fe423 O434 2.077 . S
Fe423 O442 1.935 . S
C424 O436 1.381 . S
C424 O437 1.421 . S
O425 Fe416 2.077 . S
O425 C438 1.381 . S
O426 Fe419 1.935 . S
O426 C438 1.421 . S
O427 Fe423 2.077 . S
O427 C443 1.381 . S
O428 Fe418 1.935 . S
O428 C443 1.421 . S
O429 Fe418 2.077 . S
O429 C433 1.381 . S
O430 Fe416 1.935 . S
O430 C433 1.421 . S
O431 Fe419 2.077 . S
O431 C439 1.381 . S
O432 Fe423 1.935 . S
O432 C439 1.421 . S
C433 O429 1.381 . S
C433 O430 1.421 . S
O434 Fe423 2.077 . S
O434 C446 1.381 . S
O435 Fe418 1.935 . S
O435 C446 1.421 . S
O436 Fe416 2.077 . S
O436 C424 1.381 . S
O437 Fe419 1.935 . S
O437 C424 1.421 . S
C438 O425 1.381 . S
C438 O426 1.421 . S
C439 O431 1.381 . S
C439 O432 1.421 . S
C440 O441 1.381 . S
C440 O442 1.421 . S
O441 Fe419 2.077 . S
O441 C440 1.381 . S
O442 Fe423 1.935 . S
O442 C440 1.421 . S
C443 O427 1.381 . S
C443 O428 1.421 . S
O444 Fe418 2.077 . S
O444 C447 1.381 . S
O445 Fe416 1.935 . S
O445 C447 1.421 . S
C446 O434 1.381 . S
C446 O435 1.421 . S
C447 O444 1.381 . S
C447 O445 1.421 . S
Fe448 O449 1.886 . S
Fe448 O452 1.715 . S
Fe448 O457 2.077 . S
Fe448 O462 1.935 . S
Fe448 O468 2.077 . S
Fe448 O477 1.935 . S
O449 Fe448 1.886 . S
O449 Fe451 1.715 . S
Fe450 O452 1.886 . S
Fe450 O453 1.715 . S
Fe450 O460 1.935 . S
Fe450 O461 2.077 . S
Fe450 O467 1.935 . S
Fe450 O476 2.077 . S
Fe451 O449 1.715 . S
Fe451 O454 1.886 . S
Fe451 O458 1.935 . S
Fe451 O463 2.077 . S
Fe451 O469 1.935 . S
Fe451 O473 2.077 . S
O452 Fe448 1.715 . S
O452 Fe450 1.886 . S
O453 Fe450 1.715 . S
O453 Fe455 1.886 . S
O454 Fe451 1.886 . S
O454 Fe455 1.715 . S
Fe455 O453 1.886 . S
Fe455 O454 1.715 . S
Fe455 O459 2.077 . S
Fe455 O464 1.935 . S
Fe455 O466 2.077 . S
Fe455 O474 1.935 . S
C456 O468 1.381 . S
C456 O469 1.421 . S
O457 Fe448 2.077 . S
O457 C470 1.381 . S
O458 Fe451 1.935 . S
O458 C470 1.421 . S
O459 Fe455 2.077 . S
O459 C475 1.381 . S
O460 Fe450 1.935 . S
O460 C475 1.421 . S
O461 Fe450 2.077 . S
O461 C465 1.381 . S
O462 Fe448 1.935 . S
O462 C465 1.421 . S
O463 Fe451 2.077 . S
O463 C471 1.381 . S
O464 Fe455 1.935 . S
O464 C471 1.421 . S
C465 O461 1.381 . S
C465 O462 1.421 . S
O466 Fe455 2.077 . S
O466 C478 1.381 . S
O467 Fe450 1.935 . S
O467 C478 1.421 . S
O468 Fe448 2.077 . S
O468 C456 1.381 . S
O469 Fe451 1.935 . S
O469 C456 1.421 . S
C470 O457 1.381 . S
C470 O458 1.421 . S
C471 O463 1.381 . S
C471 O464 1.421 . S
C472 O473 1.381 . S
C472 O474 1.421 . S
O473 Fe451 2.077 . S
O473 C472 1.381 . S
O474 Fe455 1.935 . S
O474 C472 1.421 . S
C475 O459 1.381 . S
C475 O460 1.421 . S
O476 Fe450 2.077 . S
O476 C479 1.381 . S
O477 Fe448 1.935 . S
O477 C479 1.421 . S
C478 O466 1.381 . S
C478 O467 1.421 . S
C479 O476 1.381 . S
C479 O477 1.421 . S
Fe480 O481 1.886 . S
Fe480 O484 1.715 . S
Fe480 O489 2.076 1_455 S
Fe480 O494 1.934 1_455 S
Fe480 O500 2.078 . S
Fe480 O509 1.936 . S
O481 Fe480 1.886 . S
O481 Fe483 1.715 . S
Fe482 O484 1.886 . S
Fe482 O485 1.715 . S
Fe482 O492 1.935 1_455 S
Fe482 O493 2.077 1_455 S
Fe482 O499 1.936 . S
Fe482 O508 2.078 . S
Fe483 O481 1.715 . S
Fe483 O486 1.886 . S
Fe483 O490 1.935 1_455 S
Fe483 O495 2.077 1_455 S
Fe483 O501 1.936 . S
Fe483 O505 2.078 . S
O484 Fe480 1.715 . S
O484 Fe482 1.886 . S
O485 Fe482 1.715 . S
O485 Fe487 1.886 . S
O486 Fe483 1.886 . S
O486 Fe487 1.715 . S
Fe487 O485 1.886 . S
Fe487 O486 1.715 . S
Fe487 O491 2.077 1_455 S
Fe487 O496 1.935 1_455 S
Fe487 O498 2.077 . S
Fe487 O506 1.935 . S
C488 O500 1.381 . S
C488 O501 1.421 . S
O489 Fe480 2.076 1_655 S
O489 C502 1.381 . S
O490 Fe483 1.935 1_655 S
O490 C502 1.421 . S
O491 Fe487 2.077 1_655 S
O491 C507 1.381 . S
O492 Fe482 1.935 1_655 S
O492 C507 1.421 . S
O493 Fe482 2.077 1_655 S
O493 C497 1.381 . S
O494 Fe480 1.934 1_655 S
O494 C497 1.421 . S
O495 Fe483 2.077 1_655 S
O495 C503 1.381 . S
O496 Fe487 1.935 1_655 S
O496 C503 1.421 . S
C497 O493 1.381 . S
C497 O494 1.421 . S
O498 Fe487 2.077 . S
O498 C510 1.381 . S
O499 Fe482 1.936 . S
O499 C510 1.421 . S
O500 Fe480 2.078 . S
O500 C488 1.381 . S
O501 Fe483 1.936 . S
O501 C488 1.421 . S
C502 O489 1.381 . S
C502 O490 1.421 . S
C503 O495 1.381 . S
C503 O496 1.421 . S
C504 O505 1.381 . S
C504 O506 1.421 . S
O505 Fe483 2.078 . S
O505 C504 1.381 . S
O506 Fe487 1.935 . S
O506 C504 1.421 . S
C507 O491 1.381 . S
C507 O492 1.421 . S
O508 Fe482 2.078 . S
O508 C511 1.381 . S
O509 Fe480 1.936 . S
O509 C511 1.421 . S
C510 O498 1.381 . S
C510 O499 1.421 . S
C511 O508 1.381 . S
C511 O509 1.421 . S
C512 C513 1.391 . S
C512 C514 1.394 . S
C512 H528 0.931 . S
C513 C512 1.391 . S
C513 C517 1.376 . S
C514 C512 1.394 . S
C514 C515 1.369 . S
C514 C518 1.531 . S
C515 C514 1.369 . S
C515 C516 1.410 . S
C515 C523 1.503 . S
C516 C515 1.410 . S
C516 C517 1.392 . S
C516 C519 1.511 . S
C517 C513 1.376 . S
C517 C516 1.392 . S
C517 H529 0.929 . S
C518 C514 1.531 . S
C518 H530 0.960 . S
C518 H531 0.962 . S
C518 H532 0.960 . S
C519 C516 1.511 . S
C519 H533 0.961 . S
C519 H534 0.961 . S
C519 H535 0.961 . S
C520 C521 1.370 . S
C520 C522 1.363 . S
C520 H536 0.931 . S
C521 C520 1.370 . S
C521 C525 1.408 . S
C522 C520 1.363 . S
C522 C523 1.370 . S
C522 C526 1.524 . S
C523 C515 1.503 . S
C523 C522 1.370 . S
C523 C524 1.403 . S
C524 C523 1.403 . S
C524 C525 1.404 . S
C524 C527 1.539 . S
C525 C521 1.408 . S
C525 C524 1.404 . S
C525 H537 0.930 . S
C526 C522 1.524 . S
C526 H538 0.956 . S
C526 H539 0.961 . S
C526 H540 0.961 . S
C527 C524 1.539 . S
C527 H541 0.958 . S
C527 H542 0.961 . S
C527 H543 0.960 . S
H528 C512 0.931 . S
H529 C517 0.929 . S
H530 C518 0.960 . S
H531 C518 0.962 . S
H532 C518 0.960 . S
H533 C519 0.961 . S
H534 C519 0.961 . S
H535 C519 0.961 . S
H536 C520 0.931 . S
H537 C525 0.930 . S
H538 C526 0.956 . S
H539 C526 0.961 . S
H540 C526 0.961 . S
H541 C527 0.958 . S
H542 C527 0.961 . S
H543 C527 0.960 . S
C544 C545 1.391 1_545 S
C544 C546 1.394 . S
C544 H560 0.931 . S
C545 C544 1.391 1_565 S
C545 C549 1.376 . S
C546 C544 1.394 . S
C546 C547 1.369 . S
C546 C550 1.531 . S
C547 C546 1.369 . S
C547 C548 1.410 . S
C547 C555 1.503 . S
C548 C547 1.410 . S
C548 C549 1.392 1_545 S
C548 C551 1.511 . S
C549 C545 1.376 . S
C549 C548 1.392 1_565 S
C549 H561 0.929 . S
C550 C546 1.531 . S
C550 H562 0.960 . S
C550 H563 0.962 . S
C550 H564 0.960 . S
C551 C548 1.511 . S
C551 H565 0.961 1_545 S
C551 H566 0.961 . S
C551 H567 0.961 . S
C552 C553 1.370 . S
C552 C554 1.363 . S
C552 H568 0.931 . S
C553 C552 1.370 . S
C553 C557 1.408 . S
C554 C552 1.363 . S
C554 C555 1.370 . S
C554 C558 1.524 . S
C555 C547 1.503 . S
C555 C554 1.370 . S
C555 C556 1.403 . S
C556 C555 1.403 . S
C556 C557 1.404 . S
C556 C559 1.539 . S
C557 C553 1.408 . S
C557 C556 1.404 . S
C557 H569 0.930 . S
C558 C554 1.524 . S
C558 H570 0.956 . S
C558 H571 0.961 . S
C558 H572 0.961 . S
C559 C556 1.539 . S
C559 H573 0.958 . S
C559 H574 0.961 . S
C559 H575 0.960 . S
H560 C544 0.931 . S
H561 C549 0.929 . S
H562 C550 0.960 . S
H563 C550 0.962 . S
H564 C550 0.960 . S
H565 C551 0.961 1_565 S
H566 C551 0.961 . S
H567 C551 0.961 . S
H568 C552 0.931 . S
H569 C557 0.930 . S
H570 C558 0.956 . S
H571 C558 0.961 . S
H572 C558 0.961 . S
H573 C559 0.958 . S
H574 C559 0.961 . S
H575 C559 0.960 . S
C576 C577 1.391 . S
C576 C578 1.394 . S
C576 H592 0.931 . S
C577 C576 1.391 . S
C577 C581 1.376 . S
C578 C576 1.394 . S
C578 C579 1.369 . S
C578 C582 1.531 . S
C579 C578 1.369 . S
C579 C580 1.410 . S
C579 C587 1.503 . S
C580 C579 1.410 . S
C580 C581 1.392 . S
C580 C583 1.511 . S
C581 C577 1.376 . S
C581 C580 1.392 . S
C581 H593 0.929 . S
C582 C578 1.531 . S
C582 H594 0.960 . S
C582 H595 0.962 . S
C582 H596 0.960 . S
C583 C580 1.511 . S
C583 H597 0.961 . S
C583 H598 0.961 . S
C583 H599 0.961 . S
C584 C585 1.370 . S
C584 C586 1.363 . S
C584 H600 0.931 . S
C585 C584 1.370 . S
C585 C589 1.408 . S
C586 C584 1.363 . S
C586 C587 1.370 . S
C586 C590 1.524 . S
C587 C579 1.503 . S
C587 C586 1.370 . S
C587 C588 1.403 . S
C588 C587 1.403 . S
C588 C589 1.404 . S
C588 C591 1.539 . S
C589 C585 1.408 . S
C589 C588 1.404 . S
C589 H601 0.930 . S
C590 C586 1.524 . S
C590 H602 0.956 . S
C590 H603 0.961 . S
C590 H604 0.961 . S
C591 C588 1.539 . S
C591 H605 0.958 . S
C591 H606 0.961 . S
C591 H607 0.960 . S
H592 C576 0.931 . S
H593 C581 0.929 . S
H594 C582 0.960 . S
H595 C582 0.962 . S
H596 C582 0.960 . S
H597 C583 0.961 . S
H598 C583 0.961 . S
H599 C583 0.961 . S
H600 C584 0.931 . S
H601 C589 0.930 . S
H602 C590 0.956 . S
H603 C590 0.961 . S
H604 C590 0.961 . S
H605 C591 0.958 . S
H606 C591 0.961 . S
H607 C591 0.960 . S
C608 C609 1.391 . S
C608 C610 1.394 1_545 S
C608 H624 0.931 . S
C609 C608 1.391 . S
C609 C613 1.376 . S
C610 C608 1.394 1_565 S
C610 C611 1.369 . S
C610 C614 1.531 . S
C611 C610 1.369 . S
C611 C612 1.410 . S
C611 C619 1.503 . S
C612 C611 1.410 . S
C612 C613 1.392 1_565 S
C612 C615 1.511 . S
C613 C609 1.376 . S
C613 C612 1.392 1_545 S
C613 H625 0.929 . S
C614 C610 1.531 . S
C614 H626 0.960 . S
C614 H627 0.962 . S
C614 H628 0.960 . S
C615 C612 1.511 . S
C615 H629 0.961 . S
C615 H630 0.961 . S
C615 H631 0.961 . S
C616 C617 1.370 . S
C616 C618 1.363 . S
C616 H632 0.931 . S
C617 C616 1.370 . S
C617 C621 1.408 . S
C618 C616 1.363 . S
C618 C619 1.370 . S
C618 C622 1.524 . S
C619 C611 1.503 . S
C619 C618 1.370 . S
C619 C620 1.403 . S
C620 C619 1.403 . S
C620 C621 1.404 . S
C620 C623 1.539 . S
C621 C617 1.408 . S
C621 C620 1.404 . S
C621 H633 0.930 . S
C622 C618 1.524 . S
C622 H634 0.956 1_565 S
C622 H635 0.961 1_565 S
C622 H636 0.961 . S
C623 C620 1.539 . S
C623 H637 0.958 . S
C623 H638 0.961 . S
C623 H639 0.960 . S
H624 C608 0.931 . S
H625 C613 0.929 . S
H626 C614 0.960 . S
H627 C614 0.962 . S
H628 C614 0.960 . S
H629 C615 0.961 . S
H630 C615 0.961 . S
H631 C615 0.961 . S
H632 C616 0.931 . S
H633 C621 0.930 . S
H634 C622 0.956 1_545 S
H635 C622 0.961 1_545 S
H636 C622 0.961 . S
H637 C623 0.958 . S
H638 C623 0.961 . S
H639 C623 0.960 . S
C640 C641 1.391 . S
C640 C642 1.394 . S
C640 H656 0.931 . S
C641 C640 1.391 . S
C641 C645 1.376 . S
C642 C640 1.394 . S
C642 C643 1.369 . S
C642 C646 1.531 . S
C643 C642 1.369 . S
C643 C644 1.410 . S
C643 C651 1.503 . S
C644 C643 1.410 . S
C644 C645 1.392 . S
C644 C647 1.511 . S
C645 C641 1.376 . S
C645 C644 1.392 . S
C645 H657 0.929 . S
C646 C642 1.531 . S
C646 H658 0.960 . S
C646 H659 0.962 . S
C646 H660 0.960 . S
C647 C644 1.511 . S
C647 H661 0.961 . S
C647 H662 0.961 . S
C647 H663 0.961 . S
C648 C649 1.370 . S
C648 C650 1.363 . S
C648 H664 0.931 . S
C649 C648 1.370 . S
C649 C653 1.408 . S
C650 C648 1.363 . S
C650 C651 1.370 . S
C650 C654 1.524 . S
C651 C643 1.503 . S
C651 C650 1.370 . S
C651 C652 1.403 . S
C652 C651 1.403 . S
C652 C653 1.404 . S
C652 C655 1.539 . S
C653 C649 1.408 . S
C653 C652 1.404 . S
C653 H665 0.930 . S
C654 C650 1.524 . S
C654 H666 0.956 . S
C654 H667 0.961 . S
C654 H668 0.961 . S
C655 C652 1.539 . S
C655 H669 0.958 . S
C655 H670 0.961 . S
C655 H671 0.960 . S
H656 C640 0.931 . S
H657 C645 0.929 . S
H658 C646 0.960 . S
H659 C646 0.962 . S
H660 C646 0.960 . S
H661 C647 0.961 . S
H662 C647 0.961 . S
H663 C647 0.961 . S
H664 C648 0.931 . S
H665 C653 0.930 . S
H666 C654 0.956 . S
H667 C654 0.961 . S
H668 C654 0.961 . S
H669 C655 0.958 . S
H670 C655 0.961 . S
H671 C655 0.960 . S
C672 C673 1.391 . S
C672 C674 1.394 . S
C672 H688 0.931 . S
C673 C672 1.391 . S
C673 C677 1.376 1_565 S
C674 C672 1.394 . S
C674 C675 1.369 1_565 S
C674 C678 1.531 . S
C675 C674 1.369 1_545 S
C675 C676 1.410 . S
C675 C683 1.503 . S
C676 C675 1.410 . S
C676 C677 1.392 . S
C676 C679 1.511 . S
C677 C673 1.376 1_545 S
C677 C676 1.392 . S
C677 H689 0.929 . S
C678 C674 1.531 . S
C678 H690 0.956 1_565 S
C678 H691 0.962 . S
C678 H692 0.960 . S
C679 C676 1.511 . S
C679 H693 0.961 . S
C679 H694 0.961 . S
C679 H695 0.961 . S
C680 C681 1.370 . S
C680 C682 1.363 . S
C680 H696 0.931 . S
C681 C680 1.370 . S
C681 C685 1.408 . S
C682 C680 1.363 . S
C682 C683 1.370 . S
C682 C686 1.524 . S
C683 C675 1.503 . S
C683 C682 1.370 . S
C683 C684 1.403 . S
C684 C683 1.403 . S
C684 C685 1.404 . S
C684 C687 1.539 . S
C685 C681 1.408 . S
C685 C684 1.404 . S
C685 H697 0.930 . S
C686 C682 1.524 . S
C686 H698 0.956 . S
C686 H699 0.961 . S
C686 H700 0.961 . S
C687 C684 1.539 . S
C687 H701 0.958 . S
C687 H702 0.961 . S
C687 H703 0.960 . S
H688 C672 0.931 . S
H689 C677 0.929 . S
H690 C678 0.956 1_545 S
H691 C678 0.962 . S
H692 C678 0.960 . S
H693 C679 0.961 . S
H694 C679 0.961 . S
H695 C679 0.961 . S
H696 C680 0.931 . S
H697 C685 0.930 . S
H698 C686 0.956 . S
H699 C686 0.961 . S
H700 C686 0.961 . S
H701 C687 0.958 . S
H702 C687 0.961 . S
H703 C687 0.960 . S
C704 C705 1.391 . S
C704 C706 1.394 . S
C704 H720 0.931 . S
C705 C704 1.391 . S
C705 C709 1.376 . S
C706 C704 1.394 . S
C706 C707 1.369 . S
C706 C710 1.531 . S
C707 C706 1.369 . S
C707 C708 1.410 . S
C707 C715 1.503 . S
C708 C707 1.410 . S
C708 C709 1.392 . S
C708 C711 1.511 . S
C709 C705 1.376 . S
C709 C708 1.392 . S
C709 H721 0.929 . S
C710 C706 1.531 . S
C710 H722 0.960 . S
C710 H723 0.962 . S
C710 H724 0.960 . S
C711 C708 1.511 . S
C711 H725 0.961 . S
C711 H726 0.961 . S
C711 H727 0.961 . S
C712 C713 1.370 . S
C712 C714 1.363 . S
C712 H728 0.931 . S
C713 C712 1.370 . S
C713 C717 1.408 . S
C714 C712 1.363 . S
C714 C715 1.370 . S
C714 C718 1.524 . S
C715 C707 1.503 . S
C715 C714 1.370 . S
C715 C716 1.403 . S
C716 C715 1.403 . S
C716 C717 1.404 . S
C716 C719 1.539 . S
C717 C713 1.408 . S
C717 C716 1.404 . S
C717 H729 0.930 . S
C718 C714 1.524 . S
C718 H730 0.956 . S
C718 H731 0.961 . S
C718 H732 0.961 . S
C719 C716 1.539 . S
C719 H733 0.958 . S
C719 H734 0.961 . S
C719 H735 0.960 . S
H720 C704 0.931 . S
H721 C709 0.929 . S
H722 C710 0.960 . S
H723 C710 0.962 . S
H724 C710 0.960 . S
H725 C711 0.961 . S
H726 C711 0.961 . S
H727 C711 0.961 . S
H728 C712 0.931 . S
H729 C717 0.930 . S
H730 C718 0.956 . S
H731 C718 0.961 . S
H732 C718 0.961 . S
H733 C719 0.958 . S
H734 C719 0.961 . S
H735 C719 0.960 . S
C736 C737 1.391 . S
C736 C738 1.394 . S
C736 H752 0.931 . S
C737 C736 1.391 . S
C737 C741 1.376 . S
C738 C736 1.394 . S
C738 C739 1.369 1_545 S
C738 C742 1.531 . S
C739 C738 1.369 1_565 S
C739 C740 1.410 . S
C739 C747 1.503 . S
C740 C739 1.410 . S
C740 C741 1.392 1_565 S
C740 C743 1.511 . S
C741 C737 1.376 . S
C741 C740 1.392 1_545 S
C741 H753 0.929 . S
C742 C738 1.531 . S
C742 H754 0.960 1_545 S
C742 H755 0.962 1_545 S
C742 H756 0.960 . S
C743 C740 1.511 . S
C743 H757 0.961 . S
C743 H758 0.961 . S
C743 H759 0.961 . S
C744 C745 1.370 . S
C744 C746 1.363 . S
C744 H760 0.931 . S
C745 C744 1.370 . S
C745 C749 1.408 . S
C746 C744 1.363 . S
C746 C747 1.370 . S
C746 C750 1.524 . S
C747 C739 1.503 . S
C747 C746 1.370 . S
C747 C748 1.403 . S
C748 C747 1.403 . S
C748 C749 1.404 . S
C748 C751 1.539 . S
C749 C745 1.408 . S
C749 C748 1.404 . S
C749 H761 0.930 . S
C750 C746 1.524 . S
C750 H762 0.956 . S
C750 H763 0.961 . S
C750 H764 0.961 . S
C751 C748 1.539 . S
C751 H765 0.958 1_565 S
C751 H766 0.961 . S
C751 H767 0.960 1_565 S
H752 C736 0.931 . S
H753 C741 0.929 . S
H754 C742 0.960 1_565 S
H755 C742 0.962 1_565 S
H756 C742 0.960 . S
H757 C743 0.961 . S
H758 C743 0.961 . S
H759 C743 0.961 . S
H760 C744 0.931 . S
H761 C749 0.930 . S
H762 C750 0.956 . S
H763 C750 0.961 . S
H764 C750 0.961 . S
H765 C751 0.958 1_545 S
H766 C751 0.961 . S
H767 C751 0.960 1_545 S
C768 C769 1.391 . S
C768 C770 1.394 . S
C768 H784 0.931 . S
C769 C768 1.391 . S
C769 C773 1.376 . S
C770 C768 1.394 . S
C770 C771 1.369 . S
C770 C774 1.531 . S
C771 C770 1.369 . S
C771 C772 1.410 . S
C771 C779 1.503 . S
C772 C771 1.410 . S
C772 C773 1.392 . S
C772 C775 1.511 . S
C773 C769 1.376 . S
C773 C772 1.392 . S
C773 H785 0.929 . S
C774 C770 1.531 . S
C774 H786 0.960 . S
C774 H787 0.962 . S
C774 H788 0.960 . S
C775 C772 1.511 . S
C775 H789 0.961 . S
C775 H790 0.961 . S
C775 H791 0.961 . S
C776 C777 1.370 . S
C776 C778 1.363 . S
C776 H792 0.931 . S
C777 C776 1.370 . S
C777 C781 1.408 . S
C778 C776 1.363 . S
C778 C779 1.370 . S
C778 C782 1.524 . S
C779 C771 1.503 . S
C779 C778 1.370 . S
C779 C780 1.403 . S
C780 C779 1.403 . S
C780 C781 1.404 . S
C780 C783 1.539 . S
C781 C777 1.408 . S
C781 C780 1.404 . S
C781 H793 0.930 . S
C782 C778 1.524 . S
C782 H794 0.956 . S
C782 H795 0.961 . S
C782 H796 0.961 . S
C783 C780 1.539 . S
C783 H797 0.958 . S
C783 H798 0.961 . S
C783 H799 0.960 . S
H784 C768 0.931 . S
H785 C773 0.929 . S
H786 C774 0.960 . S
H787 C774 0.962 . S
H788 C774 0.960 . S
H789 C775 0.961 . S
H790 C775 0.961 . S
H791 C775 0.961 . S
H792 C776 0.931 . S
H793 C781 0.930 . S
H794 C782 0.956 . S
H795 C782 0.961 . S
H796 C782 0.961 . S
H797 C783 0.958 . S
H798 C783 0.961 . S
H799 C783 0.960 . S
C800 C801 1.391 . S
C800 C802 1.394 . S
C800 H816 0.931 . S
C801 C800 1.391 . S
C801 C805 1.376 . S
C802 C800 1.394 . S
C802 C803 1.369 1_545 S
C802 C806 1.531 . S
C803 C802 1.369 1_565 S
C803 C804 1.410 . S
C803 C811 1.503 . S
C804 C803 1.410 . S
C804 C805 1.392 1_565 S
C804 C807 1.511 . S
C805 C801 1.376 . S
C805 C804 1.392 1_545 S
C805 H817 0.929 . S
C806 C802 1.531 . S
C806 H818 0.960 1_545 S
C806 H819 0.962 1_545 S
C806 H820 0.960 . S
C807 C804 1.511 . S
C807 H821 0.961 . S
C807 H822 0.961 . S
C807 H823 0.961 . S
C808 C809 1.370 . S
C808 C810 1.363 . S
C808 H824 0.931 . S
C809 C808 1.370 . S
C809 C813 1.408 . S
C810 C808 1.363 . S
C810 C811 1.370 . S
C810 C814 1.524 . S
C811 C803 1.503 . S
C811 C810 1.370 . S
C811 C812 1.403 . S
C812 C811 1.403 . S
C812 C813 1.404 . S
C812 C815 1.539 . S
C813 C809 1.408 . S
C813 C812 1.404 . S
C813 H825 0.930 . S
C814 C810 1.524 . S
C814 H826 0.956 . S
C814 H827 0.961 . S
C814 H828 0.961 . S
C815 C812 1.539 . S
C815 H829 0.958 1_565 S
C815 H830 0.961 . S
C815 H831 0.960 1_565 S
H816 C800 0.931 . S
H817 C805 0.929 . S
H818 C806 0.960 1_565 S
H819 C806 0.962 1_565 S
H820 C806 0.960 . S
H821 C807 0.961 . S
H822 C807 0.961 . S
H823 C807 0.961 . S
H824 C808 0.931 . S
H825 C813 0.930 . S
H826 C814 0.956 . S
H827 C814 0.961 . S
H828 C814 0.961 . S
H829 C815 0.958 1_545 S
H830 C815 0.961 . S
H831 C815 0.960 1_545 S
C832 C833 1.391 . S
C832 C834 1.394 . S
C832 H848 0.931 . S
C833 C832 1.391 . S
C833 C837 1.376 . S
C834 C832 1.394 . S
C834 C835 1.369 . S
C834 C838 1.531 . S
C835 C834 1.369 . S
C835 C836 1.410 . S
C835 C843 1.503 . S
C836 C835 1.410 . S
C836 C837 1.392 . S
C836 C839 1.511 . S
C837 C833 1.376 . S
C837 C836 1.392 . S
C837 H849 0.929 . S
C838 C834 1.531 . S
C838 H850 0.960 . S
C838 H851 0.962 . S
C838 H852 0.960 1_565 S
C839 C836 1.511 . S
C839 H853 0.961 . S
C839 H854 0.961 . S
C839 H855 0.961 . S
C840 C841 1.370 . S
C840 C842 1.363 . S
C840 H856 0.931 . S
C841 C840 1.370 . S
C841 C845 1.408 . S
C842 C840 1.363 . S
C842 C843 1.370 . S
C842 C846 1.524 . S
C843 C835 1.503 . S
C843 C842 1.370 . S
C843 C844 1.403 . S
C844 C843 1.403 . S
C844 C845 1.404 . S
C844 C847 1.539 . S
C845 C841 1.408 . S
C845 C844 1.404 . S
C845 H857 0.930 . S
C846 C842 1.524 . S
C846 H858 0.956 . S
C846 H859 0.961 . S
C846 H860 0.961 . S
C847 C844 1.539 . S
C847 H861 0.958 . S
C847 H862 0.961 . S
C847 H863 0.960 . S
H848 C832 0.931 . S
H849 C837 0.929 . S
H850 C838 0.960 . S
H851 C838 0.962 . S
H852 C838 0.960 1_545 S
H853 C839 0.961 . S
H854 C839 0.961 . S
H855 C839 0.961 . S
H856 C840 0.931 . S
H857 C845 0.930 . S
H858 C846 0.956 . S
H859 C846 0.961 . S
H860 C846 0.961 . S
H861 C847 0.958 . S
H862 C847 0.961 . S
H863 C847 0.960 . S
C864 C865 1.391 . S
C864 C866 1.394 1_565 S
C864 H880 0.931 . S
C865 C864 1.391 . S
C865 C869 1.376 . S
C866 C864 1.394 1_545 S
C866 C867 1.369 . S
C866 C870 1.531 . S
C867 C866 1.369 . S
C867 C868 1.410 . S
C867 C875 1.503 . S
C868 C867 1.410 . S
C868 C869 1.392 1_545 S
C868 C871 1.511 . S
C869 C865 1.376 . S
C869 C868 1.392 1_565 S
C869 H881 0.929 . S
C870 C866 1.531 . S
C870 H882 0.960 . S
C870 H883 0.962 . S
C870 H884 0.960 . S
C871 C868 1.511 . S
C871 H885 0.961 . S
C871 H886 0.961 . S
C871 H887 0.961 1_545 S
C872 C873 1.370 . S
C872 C874 1.363 . S
C872 H888 0.931 . S
C873 C872 1.370 . S
C873 C877 1.408 . S
C874 C872 1.363 . S
C874 C875 1.370 . S
C874 C878 1.524 . S
C875 C867 1.503 . S
C875 C874 1.370 . S
C875 C876 1.403 . S
C876 C875 1.403 . S
C876 C877 1.404 . S
C876 C879 1.539 . S
C877 C873 1.408 . S
C877 C876 1.404 . S
C877 H889 0.930 . S
C878 C874 1.524 . S
C878 H890 0.956 . S
C878 H891 0.961 . S
C878 H892 0.961 . S
C879 C876 1.539 . S
C879 H893 0.958 . S
C879 H894 0.961 . S
C879 H895 0.960 1_545 S
H880 C864 0.931 . S
H881 C869 0.929 . S
H882 C870 0.960 . S
H883 C870 0.962 . S
H884 C870 0.960 . S
H885 C871 0.961 . S
H886 C871 0.961 . S
H887 C871 0.961 1_565 S
H888 C872 0.931 . S
H889 C877 0.930 . S
H890 C878 0.956 . S
H891 C878 0.961 . S
H892 C878 0.961 . S
H893 C879 0.958 . S
H894 C879 0.961 . S
H895 C879 0.960 1_565 S
C896 C897 1.391 . S
C896 C898 1.394 . S
C896 H912 0.931 . S
C897 C896 1.391 . S
C897 C901 1.376 . S
C898 C896 1.394 . S
C898 C899 1.369 . S
C898 C902 1.531 . S
C899 C898 1.369 . S
C899 C900 1.410 . S
C899 C907 1.503 . S
C900 C899 1.410 . S
C900 C901 1.392 . S
C900 C903 1.511 . S
C901 C897 1.376 . S
C901 C900 1.392 . S
C901 H913 0.929 . S
C902 C898 1.531 . S
C902 H914 0.960 . S
C902 H915 0.962 . S
C902 H916 0.960 . S
C903 C900 1.511 . S
C903 H917 0.961 . S
C903 H918 0.961 . S
C903 H919 0.961 . S
C904 C905 1.370 . S
C904 C906 1.363 . S
C904 H920 0.931 . S
C905 C904 1.370 . S
C905 C909 1.408 . S
C906 C904 1.363 . S
C906 C907 1.370 . S
C906 C910 1.524 . S
C907 C899 1.503 . S
C907 C906 1.370 . S
C907 C908 1.403 . S
C908 C907 1.403 . S
C908 C909 1.404 . S
C908 C911 1.539 . S
C909 C905 1.408 . S
C909 C908 1.404 . S
C909 H921 0.930 . S
C910 C906 1.524 . S
C910 H922 0.956 . S
C910 H923 0.961 . S
C910 H924 0.961 . S
C911 C908 1.539 . S
C911 H925 0.958 . S
C911 H926 0.961 . S
C911 H927 0.960 . S
H912 C896 0.931 . S
H913 C901 0.929 . S
H914 C902 0.960 . S
H915 C902 0.962 . S
H916 C902 0.960 . S
H917 C903 0.961 . S
H918 C903 0.961 . S
H919 C903 0.961 . S
H920 C904 0.931 . S
H921 C909 0.930 . S
H922 C910 0.956 . S
H923 C910 0.961 . S
H924 C910 0.961 . S
H925 C911 0.958 . S
H926 C911 0.961 . S
H927 C911 0.960 . S
C928 C929 1.391 . S
C928 C930 1.394 . S
C928 H944 0.931 . S
C929 C928 1.391 . S
C929 C933 1.376 . S
C930 C928 1.394 . S
C930 C931 1.369 1_545 S
C930 C934 1.531 . S
C931 C930 1.369 1_565 S
C931 C932 1.410 . S
C931 C939 1.503 . S
C932 C931 1.410 . S
C932 C933 1.392 1_565 S
C932 C935 1.511 . S
C933 C929 1.376 . S
C933 C932 1.392 1_545 S
C933 H945 0.929 . S
C934 C930 1.531 . S
C934 H946 0.960 . S
C934 H947 0.962 . S
C934 H948 0.960 . S
C935 C932 1.511 . S
C935 H949 0.961 . S
C935 H950 0.961 . S
C935 H951 0.961 . S
C936 C937 1.370 . S
C936 C938 1.363 . S
C936 H952 0.931 . S
C937 C936 1.370 . S
C937 C941 1.408 . S
C938 C936 1.363 . S
C938 C939 1.370 . S
C938 C942 1.524 . S
C939 C931 1.503 . S
C939 C938 1.370 . S
C939 C940 1.403 . S
C940 C939 1.403 . S
C940 C941 1.404 . S
C940 C943 1.539 . S
C941 C937 1.408 . S
C941 C940 1.404 . S
C941 H953 0.930 . S
C942 C938 1.524 . S
C942 H954 0.956 . S
C942 H955 0.961 . S
C942 H956 0.961 . S
C943 C940 1.539 . S
C943 H957 0.958 1_565 S
C943 H958 0.961 . S
C943 H959 0.960 . S
H944 C928 0.931 . S
H945 C933 0.929 . S
H946 C934 0.960 . S
H947 C934 0.962 . S
H948 C934 0.960 . S
H949 C935 0.961 . S
H950 C935 0.961 . S
H951 C935 0.961 . S
H952 C936 0.931 . S
H953 C941 0.930 . S
H954 C942 0.956 . S
H955 C942 0.961 . S
H956 C942 0.961 . S
H957 C943 0.958 1_545 S
H958 C943 0.961 . S
H959 C943 0.960 . S
C960 C961 1.391 . S
C960 C962 1.394 . S
C960 H976 0.931 . S
C961 C960 1.391 . S
C961 C965 1.376 . S
C962 C960 1.394 . S
C962 C963 1.369 . S
C962 C966 1.531 . S
C963 C962 1.369 . S
C963 C964 1.410 . S
C963 C971 1.503 . S
C964 C963 1.410 . S
C964 C965 1.392 . S
C964 C967 1.511 . S
C965 C961 1.376 . S
C965 C964 1.392 . S
C965 H977 0.929 . S
C966 C962 1.531 . S
C966 H978 0.960 . S
C966 H979 0.962 . S
C966 H980 0.960 . S
C967 C964 1.511 . S
C967 H981 0.961 . S
C967 H982 0.961 . S
C967 H983 0.961 . S
C968 C969 1.370 . S
C968 C970 1.363 . S
C968 H984 0.931 . S
C969 C968 1.370 . S
C969 C973 1.408 . S
C970 C968 1.363 . S
C970 C971 1.370 . S
C970 C974 1.524 . S
C971 C963 1.503 . S
C971 C970 1.370 . S
C971 C972 1.403 . S
C972 C971 1.403 . S
C972 C973 1.404 . S
C972 C975 1.539 . S
C973 C969 1.408 . S
C973 C972 1.404 . S
C973 H985 0.930 . S
C974 C970 1.524 . S
C974 H986 0.956 . S
C974 H987 0.961 . S
C974 H988 0.961 . S
C975 C972 1.539 . S
C975 H989 0.958 . S
C975 H990 0.961 . S
C975 H991 0.960 . S
H976 C960 0.931 . S
H977 C965 0.929 . S
H978 C966 0.960 . S
H979 C966 0.962 . S
H980 C966 0.960 . S
H981 C967 0.961 . S
H982 C967 0.961 . S
H983 C967 0.961 . S
H984 C968 0.931 . S
H985 C973 0.930 . S
H986 C974 0.956 . S
H987 C974 0.961 . S
H988 C974 0.961 . S
H989 C975 0.958 . S
H990 C975 0.961 . S
H991 C975 0.960 . S
C992 C993 1.391 . S
C992 C994 1.394 1_565 S
C992 H1008 0.931 . S
C993 C992 1.391 . S
C993 C997 1.376 . S
C994 C992 1.394 1_545 S
C994 C995 1.369 . S
C994 C998 1.531 . S
C995 C994 1.369 . S
C995 C996 1.410 . S
C995 C1003 1.503 . S
C996 C995 1.410 . S
C996 C997 1.392 1_545 S
C996 C999 1.511 . S
C997 C993 1.376 . S
C997 C996 1.392 1_565 S
C997 H1009 0.929 . S
C998 C994 1.531 . S
C998 H1010 0.960 . S
C998 H1011 0.962 . S
C998 H1012 0.960 . S
C999 C996 1.511 . S
C999 H1013 0.961 . S
C999 H1014 0.961 . S
C999 H1015 0.961 . S
C1000 C1001 1.370 . S
C1000 C1002 1.363 . S
C1000 H1016 0.931 . S
C1001 C1000 1.370 . S
C1001 C1005 1.408 . S
C1002 C1000 1.363 . S
C1002 C1003 1.370 . S
C1002 C1006 1.524 . S
C1003 C995 1.503 . S
C1003 C1002 1.370 . S
C1003 C1004 1.403 . S
C1004 C1003 1.403 . S
C1004 C1005 1.404 . S
C1004 C1007 1.539 . S
C1005 C1001 1.408 . S
C1005 C1004 1.404 . S
C1005 H1017 0.930 . S
C1006 C1002 1.524 . S
C1006 H1018 0.956 . S
C1006 H1019 0.961 . S
C1006 H1020 0.961 . S
C1007 C1004 1.539 . S
C1007 H1021 0.958 . S
C1007 H1022 0.961 . S
C1007 H1023 0.960 . S
H1008 C992 0.931 . S
H1009 C997 0.929 . S
H1010 C998 0.960 . S
H1011 C998 0.962 . S
H1012 C998 0.960 . S
H1013 C999 0.961 . S
H1014 C999 0.961 . S
H1015 C999 0.961 . S
H1016 C1000 0.931 . S
H1017 C1005 0.930 . S
H1018 C1006 0.956 . S
H1019 C1006 0.961 . S
H1020 C1006 0.961 . S
H1021 C1007 0.958 . S
H1022 C1007 0.961 . S
H1023 C1007 0.960 . S
C1024 C1025 1.391 . S
C1024 C1026 1.394 . S
C1024 H1040 0.931 . S
C1025 C1024 1.391 . S
C1025 C1029 1.376 . S
C1026 C1024 1.394 . S
C1026 C1027 1.369 . S
C1026 C1030 1.531 . S
C1027 C1026 1.369 . S
C1027 C1028 1.410 . S
C1027 C1035 1.503 . S
C1028 C1027 1.410 . S
C1028 C1029 1.392 . S
C1028 C1031 1.511 . S
C1029 C1025 1.376 . S
C1029 C1028 1.392 . S
C1029 H1041 0.929 . S
C1030 C1026 1.531 . S
C1030 H1042 0.960 . S
C1030 H1043 0.962 . S
C1030 H1044 0.960 . S
C1031 C1028 1.511 . S
C1031 H1045 0.961 . S
C1031 H1046 0.961 . S
C1031 H1047 0.961 . S
C1032 C1033 1.370 . S
C1032 C1034 1.363 . S
C1032 H1048 0.931 . S
C1033 C1032 1.370 . S
C1033 C1037 1.408 . S
C1034 C1032 1.363 . S
C1034 C1035 1.370 . S
C1034 C1038 1.524 . S
C1035 C1027 1.503 . S
C1035 C1034 1.370 . S
C1035 C1036 1.403 . S
C1036 C1035 1.403 . S
C1036 C1037 1.404 . S
C1036 C1039 1.539 . S
C1037 C1033 1.408 . S
C1037 C1036 1.404 . S
C1037 H1049 0.930 . S
C1038 C1034 1.524 . S
C1038 H1050 0.956 . S
C1038 H1051 0.961 . S
C1038 H1052 0.961 . S
C1039 C1036 1.539 . S
C1039 H1053 0.958 . S
C1039 H1054 0.961 . S
C1039 H1055 0.960 . S
H1040 C1024 0.931 . S
H1041 C1029 0.929 . S
H1042 C1030 0.960 . S
H1043 C1030 0.962 . S
H1044 C1030 0.960 . S
H1045 C1031 0.961 . S
H1046 C1031 0.961 . S
H1047 C1031 0.961 . S
H1048 C1032 0.931 . S
H1049 C1037 0.930 . S
H1050 C1038 0.956 . S
H1051 C1038 0.961 . S
H1052 C1038 0.961 . S
H1053 C1039 0.958 . S
H1054 C1039 0.961 . S
H1055 C1039 0.960 . S
C1056 C1057 1.391 . S
C1056 C1058 1.394 . S
C1056 H1072 0.931 . S
C1057 C1056 1.391 . S
C1057 C1061 1.376 . S
C1058 C1056 1.394 . S
C1058 C1059 1.369 . S
C1058 C1062 1.531 . S
C1059 C1058 1.369 . S
C1059 C1060 1.410 . S
C1059 C1067 1.503 . S
C1060 C1059 1.410 . S
C1060 C1061 1.392 . S
C1060 C1063 1.511 . S
C1061 C1057 1.376 . S
C1061 C1060 1.392 . S
C1061 H1073 0.929 . S
C1062 C1058 1.531 . S
C1062 H1074 0.960 . S
C1062 H1075 0.962 . S
C1062 H1076 0.960 . S
C1063 C1060 1.511 . S
C1063 H1077 0.961 . S
C1063 H1078 0.961 . S
C1063 H1079 0.961 . S
C1064 C1065 1.370 . S
C1064 C1066 1.363 . S
C1064 H1080 0.931 . S
C1065 C1064 1.370 . S
C1065 C1069 1.408 . S
C1066 C1064 1.363 . S
C1066 C1067 1.370 . S
C1066 C1070 1.524 . S
C1067 C1059 1.503 . S
C1067 C1066 1.370 . S
C1067 C1068 1.403 . S
C1068 C1067 1.403 . S
C1068 C1069 1.404 . S
C1068 C1071 1.539 . S
C1069 C1065 1.408 . S
C1069 C1068 1.404 . S
C1069 H1081 0.930 . S
C1070 C1066 1.524 . S
C1070 H1082 0.956 . S
C1070 H1083 0.961 . S
C1070 H1084 0.961 . S
C1071 C1068 1.539 . S
C1071 H1085 0.958 . S
C1071 H1086 0.961 . S
C1071 H1087 0.960 . S
H1072 C1056 0.931 . S
H1073 C1061 0.929 . S
H1074 C1062 0.960 . S
H1075 C1062 0.962 . S
H1076 C1062 0.960 . S
H1077 C1063 0.961 . S
H1078 C1063 0.961 . S
H1079 C1063 0.961 . S
H1080 C1064 0.931 . S
H1081 C1069 0.930 . S
H1082 C1070 0.956 . S
H1083 C1070 0.961 . S
H1084 C1070 0.961 . S
H1085 C1071 0.958 . S
H1086 C1071 0.961 . S
H1087 C1071 0.960 . S
C1088 C1089 1.391 . S
C1088 C1090 1.394 . S
C1088 H1104 0.931 . S
C1089 C1088 1.391 . S
C1089 C1093 1.376 . S
C1090 C1088 1.394 . S
C1090 C1091 1.369 . S
C1090 C1094 1.531 . S
C1091 C1090 1.369 . S
C1091 C1092 1.410 . S
C1091 C1099 1.503 . S
C1092 C1091 1.410 . S
C1092 C1093 1.392 . S
C1092 C1095 1.511 . S
C1093 C1089 1.376 . S
C1093 C1092 1.392 . S
C1093 H1105 0.929 . S
C1094 C1090 1.531 . S
C1094 H1106 0.960 . S
C1094 H1107 0.962 . S
C1094 H1108 0.960 . S
C1095 C1092 1.511 . S
C1095 H1109 0.961 . S
C1095 H1110 0.961 . S
C1095 H1111 0.961 . S
C1096 C1097 1.370 . S
C1096 C1098 1.363 . S
C1096 H1112 0.931 . S
C1097 C1096 1.370 . S
C1097 C1101 1.408 . S
C1098 C1096 1.363 . S
C1098 C1099 1.370 . S
C1098 C1102 1.524 . S
C1099 C1091 1.503 . S
C1099 C1098 1.370 . S
C1099 C1100 1.403 . S
C1100 C1099 1.403 . S
C1100 C1101 1.404 . S
C1100 C1103 1.539 . S
C1101 C1097 1.408 . S
C1101 C1100 1.404 . S
C1101 H1113 0.930 . S
C1102 C1098 1.524 . S
C1102 H1114 0.956 . S
C1102 H1115 0.961 . S
C1102 H1116 0.961 . S
C1103 C1100 1.539 . S
C1103 H1117 0.958 . S
C1103 H1118 0.961 . S
C1103 H1119 0.960 . S
H1104 C1088 0.931 . S
H1105 C1093 0.929 . S
H1106 C1094 0.960 . S
H1107 C1094 0.962 . S
H1108 C1094 0.960 . S
H1109 C1095 0.961 . S
H1110 C1095 0.961 . S
H1111 C1095 0.961 . S
H1112 C1096 0.931 . S
H1113 C1101 0.930 . S
H1114 C1102 0.956 . S
H1115 C1102 0.961 . S
H1116 C1102 0.961 . S
H1117 C1103 0.958 . S
H1118 C1103 0.961 . S
H1119 C1103 0.960 . S
C1120 C1121 1.391 . S
C1120 C1122 1.394 . S
C1120 H1136 0.931 . S
C1121 C1120 1.391 . S
C1121 C1125 1.376 . S
C1122 C1120 1.394 . S
C1122 C1123 1.369 . S
C1122 C1126 1.531 . S
C1123 C1122 1.369 . S
C1123 C1124 1.410 . S
C1123 C1131 1.503 . S
C1124 C1123 1.410 . S
C1124 C1125 1.392 . S
C1124 C1127 1.511 . S
C1125 C1121 1.376 . S
C1125 C1124 1.392 . S
C1125 H1137 0.929 . S
C1126 C1122 1.531 . S
C1126 H1138 0.960 . S
C1126 H1139 0.962 . S
C1126 H1140 0.960 . S
C1127 C1124 1.511 . S
C1127 H1141 0.961 . S
C1127 H1142 0.961 . S
C1127 H1143 0.961 . S
C1128 C1129 1.370 . S
C1128 C1130 1.363 . S
C1128 H1144 0.931 . S
C1129 C1128 1.370 . S
C1129 C1133 1.408 . S
C1130 C1128 1.363 . S
C1130 C1131 1.370 . S
C1130 C1134 1.524 . S
C1131 C1123 1.503 . S
C1131 C1130 1.370 . S
C1131 C1132 1.403 . S
C1132 C1131 1.403 . S
C1132 C1133 1.404 . S
C1132 C1135 1.539 . S
C1133 C1129 1.408 . S
C1133 C1132 1.404 . S
C1133 H1145 0.930 . S
C1134 C1130 1.524 . S
C1134 H1146 0.956 . S
C1134 H1147 0.961 . S
C1134 H1148 0.961 . S
C1135 C1132 1.539 . S
C1135 H1149 0.958 . S
C1135 H1150 0.961 . S
C1135 H1151 0.960 . S
H1136 C1120 0.931 . S
H1137 C1125 0.929 . S
H1138 C1126 0.960 . S
H1139 C1126 0.962 . S
H1140 C1126 0.960 . S
H1141 C1127 0.961 . S
H1142 C1127 0.961 . S
H1143 C1127 0.961 . S
H1144 C1128 0.931 . S
H1145 C1133 0.930 . S
H1146 C1134 0.956 . S
H1147 C1134 0.961 . S
H1148 C1134 0.961 . S
H1149 C1135 0.958 . S
H1150 C1135 0.961 . S
H1151 C1135 0.960 . S
C1152 C1153 1.391 . S
C1152 C1154 1.394 . S
C1152 H1168 0.931 . S
C1153 C1152 1.391 . S
C1153 C1157 1.376 . S
C1154 C1152 1.394 . S
C1154 C1155 1.369 . S
C1154 C1158 1.531 . S
C1155 C1154 1.369 . S
C1155 C1156 1.410 . S
C1155 C1163 1.503 . S
C1156 C1155 1.410 . S
C1156 C1157 1.392 . S
C1156 C1159 1.511 . S
C1157 C1153 1.376 . S
C1157 C1156 1.392 . S
C1157 H1169 0.929 . S
C1158 C1154 1.531 . S
C1158 H1170 0.960 . S
C1158 H1171 0.962 . S
C1158 H1172 0.960 . S
C1159 C1156 1.511 . S
C1159 H1173 0.961 . S
C1159 H1174 0.961 . S
C1159 H1175 0.961 . S
C1160 C1161 1.370 . S
C1160 C1162 1.363 . S
C1160 H1176 0.931 . S
C1161 C1160 1.370 . S
C1161 C1165 1.408 . S
C1162 C1160 1.363 . S
C1162 C1163 1.370 . S
C1162 C1166 1.524 . S
C1163 C1155 1.503 . S
C1163 C1162 1.370 . S
C1163 C1164 1.403 . S
C1164 C1163 1.403 . S
C1164 C1165 1.404 . S
C1164 C1167 1.539 . S
C1165 C1161 1.408 . S
C1165 C1164 1.404 . S
C1165 H1177 0.930 . S
C1166 C1162 1.524 . S
C1166 H1178 0.956 . S
C1166 H1179 0.961 . S
C1166 H1180 0.961 . S
C1167 C1164 1.539 . S
C1167 H1181 0.958 . S
C1167 H1182 0.961 . S
C1167 H1183 0.960 . S
H1168 C1152 0.931 . S
H1169 C1157 0.929 . S
H1170 C1158 0.960 . S
H1171 C1158 0.962 . S
H1172 C1158 0.960 . S
H1173 C1159 0.961 . S
H1174 C1159 0.961 . S
H1175 C1159 0.961 . S
H1176 C1160 0.931 . S
H1177 C1165 0.930 . S
H1178 C1166 0.956 . S
H1179 C1166 0.961 . S
H1180 C1166 0.961 . S
H1181 C1167 0.958 . S
H1182 C1167 0.961 . S
H1183 C1167 0.960 . S
C1184 C1185 1.391 . S
C1184 C1186 1.394 . S
C1184 H1200 0.931 . S
C1185 C1184 1.391 . S
C1185 C1189 1.376 . S
C1186 C1184 1.394 . S
C1186 C1187 1.369 . S
C1186 C1190 1.531 . S
C1187 C1186 1.369 . S
C1187 C1188 1.410 . S
C1187 C1195 1.503 . S
C1188 C1187 1.410 . S
C1188 C1189 1.392 . S
C1188 C1191 1.511 . S
C1189 C1185 1.376 . S
C1189 C1188 1.392 . S
C1189 H1201 0.929 . S
C1190 C1186 1.531 . S
C1190 H1202 0.960 . S
C1190 H1203 0.962 . S
C1190 H1204 0.960 . S
C1191 C1188 1.511 . S
C1191 H1205 0.961 . S
C1191 H1206 0.961 . S
C1191 H1207 0.961 . S
C1192 C1193 1.370 . S
C1192 C1194 1.363 . S
C1192 H1208 0.931 . S
C1193 C1192 1.370 . S
C1193 C1197 1.408 . S
C1194 C1192 1.363 . S
C1194 C1195 1.370 . S
C1194 C1198 1.524 . S
C1195 C1187 1.503 . S
C1195 C1194 1.370 . S
C1195 C1196 1.403 . S
C1196 C1195 1.403 . S
C1196 C1197 1.404 . S
C1196 C1199 1.539 . S
C1197 C1193 1.408 . S
C1197 C1196 1.404 . S
C1197 H1209 0.930 . S
C1198 C1194 1.524 . S
C1198 H1210 0.956 . S
C1198 H1211 0.961 . S
C1198 H1212 0.961 . S
C1199 C1196 1.539 . S
C1199 H1213 0.958 . S
C1199 H1214 0.961 . S
C1199 H1215 0.960 . S
H1200 C1184 0.931 . S
H1201 C1189 0.929 . S
H1202 C1190 0.960 . S
H1203 C1190 0.962 . S
H1204 C1190 0.960 . S
H1205 C1191 0.961 . S
H1206 C1191 0.961 . S
H1207 C1191 0.961 . S
H1208 C1192 0.931 . S
H1209 C1197 0.930 . S
H1210 C1198 0.956 . S
H1211 C1198 0.961 . S
H1212 C1198 0.961 . S
H1213 C1199 0.958 . S
H1214 C1199 0.961 . S
H1215 C1199 0.960 . S
C1216 C1217 1.391 . S
C1216 C1218 1.394 . S
C1216 H1232 0.931 . S
C1217 C1216 1.391 . S
C1217 C1221 1.376 . S
C1218 C1216 1.394 . S
C1218 C1219 1.369 . S
C1218 C1222 1.531 . S
C1219 C1218 1.369 . S
C1219 C1220 1.410 . S
C1219 C1227 1.503 . S
C1220 C1219 1.410 . S
C1220 C1221 1.392 . S
C1220 C1223 1.511 . S
C1221 C1217 1.376 . S
C1221 C1220 1.392 . S
C1221 H1233 0.929 . S
C1222 C1218 1.531 . S
C1222 H1234 0.960 . S
C1222 H1235 0.962 . S
C1222 H1236 0.960 . S
C1223 C1220 1.511 . S
C1223 H1237 0.961 . S
C1223 H1238 0.961 . S
C1223 H1239 0.961 . S
C1224 C1225 1.370 . S
C1224 C1226 1.363 . S
C1224 H1240 0.931 . S
C1225 C1224 1.370 . S
C1225 C1229 1.408 . S
C1226 C1224 1.363 . S
C1226 C1227 1.370 . S
C1226 C1230 1.524 . S
C1227 C1219 1.503 . S
C1227 C1226 1.370 . S
C1227 C1228 1.403 . S
C1228 C1227 1.403 . S
C1228 C1229 1.404 . S
C1228 C1231 1.539 . S
C1229 C1225 1.408 . S
C1229 C1228 1.404 . S
C1229 H1241 0.930 . S
C1230 C1226 1.524 . S
C1230 H1242 0.956 . S
C1230 H1243 0.961 . S
C1230 H1244 0.961 . S
C1231 C1228 1.539 . S
C1231 H1245 0.958 . S
C1231 H1246 0.961 . S
C1231 H1247 0.960 . S
H1232 C1216 0.931 . S
H1233 C1221 0.929 . S
H1234 C1222 0.960 . S
H1235 C1222 0.962 . S
H1236 C1222 0.960 . S
H1237 C1223 0.961 . S
H1238 C1223 0.961 . S
H1239 C1223 0.961 . S
H1240 C1224 0.931 . S
H1241 C1229 0.930 . S
H1242 C1230 0.956 . S
H1243 C1230 0.961 . S
H1244 C1230 0.961 . S
H1245 C1231 0.958 . S
H1246 C1231 0.961 . S
H1247 C1231 0.960 . S
C1248 C1249 1.391 . S
C1248 C1250 1.394 . S
C1248 H1264 0.931 . S
C1249 C1248 1.391 . S
C1249 C1253 1.376 . S
C1250 C1248 1.394 . S
C1250 C1251 1.369 . S
C1250 C1254 1.531 . S
C1251 C1250 1.369 . S
C1251 C1252 1.410 . S
C1251 C1259 1.503 . S
C1252 C1251 1.410 . S
C1252 C1253 1.392 . S
C1252 C1255 1.511 . S
C1253 C1249 1.376 . S
C1253 C1252 1.392 . S
C1253 H1265 0.929 . S
C1254 C1250 1.531 . S
C1254 H1266 0.960 . S
C1254 H1267 0.962 . S
C1254 H1268 0.960 . S
C1255 C1252 1.511 . S
C1255 H1269 0.961 . S
C1255 H1270 0.961 . S
C1255 H1271 0.961 . S
C1256 C1257 1.370 . S
C1256 C1258 1.363 . S
C1256 H1272 0.931 . S
C1257 C1256 1.370 . S
C1257 C1261 1.408 . S
C1258 C1256 1.363 . S
C1258 C1259 1.370 . S
C1258 C1262 1.524 . S
C1259 C1251 1.503 . S
C1259 C1258 1.370 . S
C1259 C1260 1.403 . S
C1260 C1259 1.403 . S
C1260 C1261 1.404 . S
C1260 C1263 1.539 . S
C1261 C1257 1.408 . S
C1261 C1260 1.404 . S
C1261 H1273 0.930 . S
C1262 C1258 1.524 . S
C1262 H1274 0.956 . S
C1262 H1275 0.961 . S
C1262 H1276 0.961 . S
C1263 C1260 1.539 . S
C1263 H1277 0.958 . S
C1263 H1278 0.961 . S
C1263 H1279 0.960 . S
H1264 C1248 0.931 . S
H1265 C1253 0.929 . S
H1266 C1254 0.960 . S
H1267 C1254 0.962 . S
H1268 C1254 0.960 . S
H1269 C1255 0.961 . S
H1270 C1255 0.961 . S
H1271 C1255 0.961 . S
H1272 C1256 0.931 . S
H1273 C1261 0.930 . S
H1274 C1262 0.956 . S
H1275 C1262 0.961 . S
H1276 C1262 0.961 . S
H1277 C1263 0.958 . S
H1278 C1263 0.961 . S
H1279 C1263 0.960 . S
C1280 C1281 1.391 . S
C1280 C1282 1.394 . S
C1280 H1296 0.931 . S
C1281 C1280 1.391 . S
C1281 C1285 1.376 . S
C1282 C1280 1.394 . S
C1282 C1283 1.369 . S
C1282 C1286 1.531 . S
C1283 C1282 1.369 . S
C1283 C1284 1.410 . S
C1283 C1291 1.503 . S
C1284 C1283 1.410 . S
C1284 C1285 1.392 . S
C1284 C1287 1.511 . S
C1285 C1281 1.376 . S
C1285 C1284 1.392 . S
C1285 H1297 0.929 . S
C1286 C1282 1.531 . S
C1286 H1298 0.960 . S
C1286 H1299 0.962 . S
C1286 H1300 0.960 . S
C1287 C1284 1.511 . S
C1287 H1301 0.961 . S
C1287 H1302 0.961 . S
C1287 H1303 0.961 . S
C1288 C1289 1.370 . S
C1288 C1290 1.363 . S
C1288 H1304 0.931 . S
C1289 C1288 1.370 . S
C1289 C1293 1.408 . S
C1290 C1288 1.363 . S
C1290 C1291 1.370 . S
C1290 C1294 1.524 . S
C1291 C1283 1.503 . S
C1291 C1290 1.370 . S
C1291 C1292 1.403 . S
C1292 C1291 1.403 . S
C1292 C1293 1.404 . S
C1292 C1295 1.539 . S
C1293 C1289 1.408 . S
C1293 C1292 1.404 . S
C1293 H1305 0.930 . S
C1294 C1290 1.524 . S
C1294 H1306 0.956 . S
C1294 H1307 0.961 . S
C1294 H1308 0.961 . S
C1295 C1292 1.539 . S
C1295 H1309 0.958 . S
C1295 H1310 0.961 . S
C1295 H1311 0.960 . S
H1296 C1280 0.931 . S
H1297 C1285 0.929 . S
H1298 C1286 0.960 . S
H1299 C1286 0.962 . S
H1300 C1286 0.960 . S
H1301 C1287 0.961 . S
H1302 C1287 0.961 . S
H1303 C1287 0.961 . S
H1304 C1288 0.931 . S
H1305 C1293 0.930 . S
H1306 C1294 0.956 . S
H1307 C1294 0.961 . S
H1308 C1294 0.961 . S
H1309 C1295 0.958 . S
H1310 C1295 0.961 . S
H1311 C1295 0.960 . S
C1312 C1313 1.391 . S
C1312 C1314 1.394 . S
C1312 H1328 0.931 . S
C1313 C1312 1.391 . S
C1313 C1317 1.376 . S
C1314 C1312 1.394 . S
C1314 C1315 1.369 . S
C1314 C1318 1.531 . S
C1315 C1314 1.369 . S
C1315 C1316 1.410 . S
C1315 C1323 1.503 . S
C1316 C1315 1.410 . S
C1316 C1317 1.392 . S
C1316 C1319 1.511 . S
C1317 C1313 1.376 . S
C1317 C1316 1.392 . S
C1317 H1329 0.929 . S
C1318 C1314 1.531 . S
C1318 H1330 0.960 . S
C1318 H1331 0.962 . S
C1318 H1332 0.960 . S
C1319 C1316 1.511 . S
C1319 H1333 0.961 . S
C1319 H1334 0.961 . S
C1319 H1335 0.961 . S
C1320 C1321 1.370 . S
C1320 C1322 1.363 . S
C1320 H1336 0.931 . S
C1321 C1320 1.370 . S
C1321 C1325 1.408 . S
C1322 C1320 1.363 . S
C1322 C1323 1.370 . S
C1322 C1326 1.524 . S
C1323 C1315 1.503 . S
C1323 C1322 1.370 . S
C1323 C1324 1.403 . S
C1324 C1323 1.403 . S
C1324 C1325 1.404 . S
C1324 C1327 1.539 . S
C1325 C1321 1.408 . S
C1325 C1324 1.404 . S
C1325 H1337 0.930 . S
C1326 C1322 1.524 . S
C1326 H1338 0.956 . S
C1326 H1339 0.961 . S
C1326 H1340 0.961 . S
C1327 C1324 1.539 . S
C1327 H1341 0.958 . S
C1327 H1342 0.961 . S
C1327 H1343 0.960 . S
H1328 C1312 0.931 . S
H1329 C1317 0.929 . S
H1330 C1318 0.960 . S
H1331 C1318 0.962 . S
H1332 C1318 0.960 . S
H1333 C1319 0.961 . S
H1334 C1319 0.961 . S
H1335 C1319 0.961 . S
H1336 C1320 0.931 . S
H1337 C1325 0.930 . S
H1338 C1326 0.956 . S
H1339 C1326 0.961 . S
H1340 C1326 0.961 . S
H1341 C1327 0.958 . S
H1342 C1327 0.961 . S
H1343 C1327 0.960 . S
C1344 C1345 1.391 . S
C1344 C1346 1.394 . S
C1344 H1360 0.931 . S
C1345 C1344 1.391 . S
C1345 C1349 1.376 . S
C1346 C1344 1.394 . S
C1346 C1347 1.369 . S
C1346 C1350 1.531 . S
C1347 C1346 1.369 . S
C1347 C1348 1.410 . S
C1347 C1355 1.503 . S
C1348 C1347 1.410 . S
C1348 C1349 1.392 . S
C1348 C1351 1.511 . S
C1349 C1345 1.376 . S
C1349 C1348 1.392 . S
C1349 H1361 0.929 . S
C1350 C1346 1.531 . S
C1350 H1362 0.960 . S
C1350 H1363 0.962 . S
C1350 H1364 0.960 . S
C1351 C1348 1.511 . S
C1351 H1365 0.961 . S
C1351 H1366 0.961 . S
C1351 H1367 0.961 . S
C1352 C1353 1.370 . S
C1352 C1354 1.363 . S
C1352 H1368 0.931 . S
C1353 C1352 1.370 . S
C1353 C1357 1.408 . S
C1354 C1352 1.363 . S
C1354 C1355 1.370 . S
C1354 C1358 1.524 . S
C1355 C1347 1.503 . S
C1355 C1354 1.370 . S
C1355 C1356 1.403 . S
C1356 C1355 1.403 . S
C1356 C1357 1.404 . S
C1356 C1359 1.539 . S
C1357 C1353 1.408 . S
C1357 C1356 1.404 . S
C1357 H1369 0.930 . S
C1358 C1354 1.524 . S
C1358 H1370 0.956 . S
C1358 H1371 0.961 . S
C1358 H1372 0.961 . S
C1359 C1356 1.539 . S
C1359 H1373 0.958 . S
C1359 H1374 0.961 . S
C1359 H1375 0.960 . S
H1360 C1344 0.931 . S
H1361 C1349 0.929 . S
H1362 C1350 0.960 . S
H1363 C1350 0.962 . S
H1364 C1350 0.960 . S
H1365 C1351 0.961 . S
H1366 C1351 0.961 . S
H1367 C1351 0.961 . S
H1368 C1352 0.931 . S
H1369 C1357 0.930 . S
H1370 C1358 0.956 . S
H1371 C1358 0.961 . S
H1372 C1358 0.961 . S
H1373 C1359 0.958 . S
H1374 C1359 0.961 . S
H1375 C1359 0.960 . S
C1376 C1377 1.391 . S
C1376 C1378 1.394 . S
C1376 H1392 0.931 . S
C1377 C1376 1.391 . S
C1377 C1381 1.376 . S
C1378 C1376 1.394 . S
C1378 C1379 1.369 . S
C1378 C1382 1.531 . S
C1379 C1378 1.369 . S
C1379 C1380 1.410 . S
C1379 C1387 1.503 . S
C1380 C1379 1.410 . S
C1380 C1381 1.392 . S
C1380 C1383 1.511 . S
C1381 C1377 1.376 . S
C1381 C1380 1.392 . S
C1381 H1393 0.929 . S
C1382 C1378 1.531 . S
C1382 H1394 0.960 . S
C1382 H1395 0.962 . S
C1382 H1396 0.960 . S
C1383 C1380 1.511 . S
C1383 H1397 0.961 . S
C1383 H1398 0.961 . S
C1383 H1399 0.961 . S
C1384 C1385 1.370 . S
C1384 C1386 1.363 . S
C1384 H1400 0.931 . S
C1385 C1384 1.370 . S
C1385 C1389 1.408 . S
C1386 C1384 1.363 . S
C1386 C1387 1.370 . S
C1386 C1390 1.524 . S
C1387 C1379 1.503 . S
C1387 C1386 1.370 . S
C1387 C1388 1.403 . S
C1388 C1387 1.403 . S
C1388 C1389 1.404 . S
C1388 C1391 1.539 . S
C1389 C1385 1.408 . S
C1389 C1388 1.404 . S
C1389 H1401 0.930 . S
C1390 C1386 1.524 . S
C1390 H1402 0.956 . S
C1390 H1403 0.961 . S
C1390 H1404 0.961 . S
C1391 C1388 1.539 . S
C1391 H1405 0.958 . S
C1391 H1406 0.961 . S
C1391 H1407 0.960 . S
H1392 C1376 0.931 . S
H1393 C1381 0.929 . S
H1394 C1382 0.960 . S
H1395 C1382 0.962 . S
H1396 C1382 0.960 . S
H1397 C1383 0.961 . S
H1398 C1383 0.961 . S
H1399 C1383 0.961 . S
H1400 C1384 0.931 . S
H1401 C1389 0.930 . S
H1402 C1390 0.956 . S
H1403 C1390 0.961 . S
H1404 C1390 0.961 . S
H1405 C1391 0.958 . S
H1406 C1391 0.961 . S
H1407 C1391 0.960 . S
C1408 C1409 1.391 . S
C1408 C1410 1.394 . S
C1408 H1424 0.931 . S
C1409 C1408 1.391 . S
C1409 C1413 1.376 . S
C1410 C1408 1.394 . S
C1410 C1411 1.369 . S
C1410 C1414 1.531 . S
C1411 C1410 1.369 . S
C1411 C1412 1.410 . S
C1411 C1419 1.503 . S
C1412 C1411 1.410 . S
C1412 C1413 1.392 . S
C1412 C1415 1.511 . S
C1413 C1409 1.376 . S
C1413 C1412 1.392 . S
C1413 H1425 0.929 . S
C1414 C1410 1.531 . S
C1414 H1426 0.960 . S
C1414 H1427 0.962 . S
C1414 H1428 0.960 . S
C1415 C1412 1.511 . S
C1415 H1429 0.961 . S
C1415 H1430 0.961 . S
C1415 H1431 0.961 . S
C1416 C1417 1.370 . S
C1416 C1418 1.363 . S
C1416 H1432 0.931 . S
C1417 C1416 1.370 . S
C1417 C1421 1.408 . S
C1418 C1416 1.363 . S
C1418 C1419 1.370 . S
C1418 C1422 1.524 . S
C1419 C1411 1.503 . S
C1419 C1418 1.370 . S
C1419 C1420 1.403 . S
C1420 C1419 1.403 . S
C1420 C1421 1.404 . S
C1420 C1423 1.539 . S
C1421 C1417 1.408 . S
C1421 C1420 1.404 . S
C1421 H1433 0.930 . S
C1422 C1418 1.524 . S
C1422 H1434 0.956 . S
C1422 H1435 0.961 . S
C1422 H1436 0.961 . S
C1423 C1420 1.539 . S
C1423 H1437 0.958 . S
C1423 H1438 0.961 . S
C1423 H1439 0.960 . S
H1424 C1408 0.931 . S
H1425 C1413 0.929 . S
H1426 C1414 0.960 . S
H1427 C1414 0.962 . S
H1428 C1414 0.960 . S
H1429 C1415 0.961 . S
H1430 C1415 0.961 . S
H1431 C1415 0.961 . S
H1432 C1416 0.931 . S
H1433 C1421 0.930 . S
H1434 C1422 0.956 . S
H1435 C1422 0.961 . S
H1436 C1422 0.961 . S
H1437 C1423 0.958 . S
H1438 C1423 0.961 . S
H1439 C1423 0.960 . S
C1440 C1441 1.391 . S
C1440 C1442 1.394 . S
C1440 H1456 0.931 . S
C1441 C1440 1.391 . S
C1441 C1445 1.376 . S
C1442 C1440 1.394 . S
C1442 C1443 1.369 . S
C1442 C1446 1.531 . S
C1443 C1442 1.369 . S
C1443 C1444 1.410 . S
C1443 C1451 1.503 . S
C1444 C1443 1.410 . S
C1444 C1445 1.392 . S
C1444 C1447 1.511 . S
C1445 C1441 1.376 . S
C1445 C1444 1.392 . S
C1445 H1457 0.929 . S
C1446 C1442 1.531 . S
C1446 H1458 0.960 . S
C1446 H1459 0.962 . S
C1446 H1460 0.960 . S
C1447 C1444 1.511 . S
C1447 H1461 0.961 . S
C1447 H1462 0.961 . S
C1447 H1463 0.961 . S
C1448 C1449 1.370 . S
C1448 C1450 1.363 . S
C1448 H1464 0.931 . S
C1449 C1448 1.370 . S
C1449 C1453 1.408 . S
C1450 C1448 1.363 . S
C1450 C1451 1.370 . S
C1450 C1454 1.524 . S
C1451 C1443 1.503 . S
C1451 C1450 1.370 . S
C1451 C1452 1.403 . S
C1452 C1451 1.403 . S
C1452 C1453 1.404 . S
C1452 C1455 1.539 . S
C1453 C1449 1.408 . S
C1453 C1452 1.404 . S
C1453 H1465 0.930 . S
C1454 C1450 1.524 . S
C1454 H1466 0.956 . S
C1454 H1467 0.961 . S
C1454 H1468 0.961 . S
C1455 C1452 1.539 . S
C1455 H1469 0.958 . S
C1455 H1470 0.961 . S
C1455 H1471 0.960 . S
H1456 C1440 0.931 . S
H1457 C1445 0.929 . S
H1458 C1446 0.960 . S
H1459 C1446 0.962 . S
H1460 C1446 0.960 . S
H1461 C1447 0.961 . S
H1462 C1447 0.961 . S
H1463 C1447 0.961 . S
H1464 C1448 0.931 . S
H1465 C1453 0.930 . S
H1466 C1454 0.956 . S
H1467 C1454 0.961 . S
H1468 C1454 0.961 . S
H1469 C1455 0.958 . S
H1470 C1455 0.961 . S
H1471 C1455 0.960 . S
C1472 C1473 1.391 . S
C1472 C1474 1.394 . S
C1472 H1488 0.931 . S
C1473 C1472 1.391 . S
C1473 C1477 1.376 . S
C1474 C1472 1.394 . S
C1474 C1475 1.369 . S
C1474 C1478 1.531 . S
C1475 C1474 1.369 . S
C1475 C1476 1.410 . S
C1475 C1483 1.503 . S
C1476 C1475 1.410 . S
C1476 C1477 1.392 . S
C1476 C1479 1.511 . S
C1477 C1473 1.376 . S
C1477 C1476 1.392 . S
C1477 H1489 0.929 . S
C1478 C1474 1.531 . S
C1478 H1490 0.960 . S
C1478 H1491 0.962 . S
C1478 H1492 0.960 . S
C1479 C1476 1.511 . S
C1479 H1493 0.961 . S
C1479 H1494 0.961 . S
C1479 H1495 0.961 . S
C1480 C1481 1.370 . S
C1480 C1482 1.363 . S
C1480 H1496 0.931 . S
C1481 C1480 1.370 . S
C1481 C1485 1.408 . S
C1482 C1480 1.363 . S
C1482 C1483 1.370 . S
C1482 C1486 1.524 . S
C1483 C1475 1.503 . S
C1483 C1482 1.370 . S
C1483 C1484 1.403 . S
C1484 C1483 1.403 . S
C1484 C1485 1.404 . S
C1484 C1487 1.539 . S
C1485 C1481 1.408 . S
C1485 C1484 1.404 . S
C1485 H1497 0.930 . S
C1486 C1482 1.524 . S
C1486 H1498 0.956 . S
C1486 H1499 0.961 . S
C1486 H1500 0.961 . S
C1487 C1484 1.539 . S
C1487 H1501 0.958 . S
C1487 H1502 0.961 . S
C1487 H1503 0.960 . S
H1488 C1472 0.931 . S
H1489 C1477 0.929 . S
H1490 C1478 0.960 . S
H1491 C1478 0.962 . S
H1492 C1478 0.960 . S
H1493 C1479 0.961 . S
H1494 C1479 0.961 . S
H1495 C1479 0.961 . S
H1496 C1480 0.931 . S
H1497 C1485 0.930 . S
H1498 C1486 0.956 . S
H1499 C1486 0.961 . S
H1500 C1486 0.961 . S
H1501 C1487 0.958 . S
H1502 C1487 0.961 . S
H1503 C1487 0.960 . S
C1504 C1505 1.391 . S
C1504 C1506 1.394 . S
C1504 H1520 0.931 . S
C1505 C1504 1.391 . S
C1505 C1509 1.376 . S
C1506 C1504 1.394 . S
C1506 C1507 1.369 . S
C1506 C1510 1.531 . S
C1507 C1506 1.369 . S
C1507 C1508 1.410 . S
C1507 C1515 1.503 . S
C1508 C1507 1.410 . S
C1508 C1509 1.392 . S
C1508 C1511 1.511 . S
C1509 C1505 1.376 . S
C1509 C1508 1.392 . S
C1509 H1521 0.929 . S
C1510 C1506 1.531 . S
C1510 H1522 0.960 . S
C1510 H1523 0.962 . S
C1510 H1524 0.960 . S
C1511 C1508 1.511 . S
C1511 H1525 0.961 . S
C1511 H1526 0.961 . S
C1511 H1527 0.961 . S
C1512 C1513 1.370 . S
C1512 C1514 1.363 . S
C1512 H1528 0.931 . S
C1513 C1512 1.370 . S
C1513 C1517 1.408 . S
C1514 C1512 1.363 . S
C1514 C1515 1.370 . S
C1514 C1518 1.524 . S
C1515 C1507 1.503 . S
C1515 C1514 1.370 . S
C1515 C1516 1.403 . S
C1516 C1515 1.403 . S
C1516 C1517 1.404 . S
C1516 C1519 1.539 . S
C1517 C1513 1.408 . S
C1517 C1516 1.404 . S
C1517 H1529 0.930 . S
C1518 C1514 1.524 . S
C1518 H1530 0.956 . S
C1518 H1531 0.961 . S
C1518 H1532 0.961 . S
C1519 C1516 1.539 . S
C1519 H1533 0.958 . S
C1519 H1534 0.961 . S
C1519 H1535 0.960 . S
H1520 C1504 0.931 . S
H1521 C1509 0.929 . S
H1522 C1510 0.960 . S
H1523 C1510 0.962 . S
H1524 C1510 0.960 . S
H1525 C1511 0.961 . S
H1526 C1511 0.961 . S
H1527 C1511 0.961 . S
H1528 C1512 0.931 . S
H1529 C1517 0.930 . S
H1530 C1518 0.956 . S
H1531 C1518 0.961 . S
H1532 C1518 0.961 . S
H1533 C1519 0.958 . S
H1534 C1519 0.961 . S
H1535 C1519 0.960 . S
C521 C433 1.518 . S
C513 C45 1.530 . S
C545 C78 1.530 . S
C553 C465 1.502 . S
C577 C126 1.530 . S
C585 C488 1.519 . S
C617 C392 1.518 . S
C609 C174 1.526 . S
C649 C475 1.386 . S
C641 C36 1.496 . S
C681 C504 1.396 . S
C673 C69 1.486 . S
C713 C408 1.360 . S
C705 C117 1.504 . S
C745 C443 1.366 . S
C737 C165 1.486 . S
C769 C30 1.490 . S
C777 C471 1.380 . S
C801 C228 1.493 . S
C809 C446 1.349 . S
C833 C141 1.462 . S
C841 C414 1.362 . S
C873 C503 1.369 . S
C865 C270 1.484 . S
C905 C447 1.519 . S
C897 C21 1.531 . S
C929 C237 1.521 . S
C937 C415 1.512 . S
C961 C132 1.524 . S
C969 C502 1.530 . S
C1001 C470 1.521 . S
C993 C261 1.534 . S
C1025 C333 1.521 . S
C1033 C497 1.502 . S
C1057 C213 1.523 . S
C1065 C401 1.520 . S
C1089 C357 1.534 . S
C1097 C424 1.521 . S
C1121 C285 1.525 . S
C1129 C456 1.517 . S
C1161 C411 1.359 . S
C1153 C324 1.502 . S
C1185 C222 1.465 . S
C1193 C440 1.395 . S
C1217 C366 1.474 . S
C1225 C472 1.370 . S
C1257 C507 1.349 . S
C1249 C276 1.500 . S
C1281 C318 1.488 . S
C1289 C407 1.380 . S
C1313 C93 1.495 . S
C1321 C510 1.363 . S
C1345 C372 1.501 . S
C1353 C478 1.360 . S
C1385 C439 1.396 . S
C1377 C189 1.474 . S
C1417 C511 1.523 . S
C1409 C309 1.533 . S
C1449 C479 1.522 . S
C1441 C84 1.524 . S
C1481 C438 1.528 . S
C1473 C381 1.503 . S
C1513 C406 1.530 . S
C1505 C180 1.526 . S
