# Generated by pormake.
# Topology tbo, (3,4)-cn, num edge types: 1
# Building blocks:
#     Node 0, Type 0, BuildingBlock: MIDCAF_clean_linker_0, # of connection points: 3
#     Node 1, Type 0, BuildingBlock: MIDCAF_clean_linker_0, # of connection points: 3
#     Node 2, Type 0, BuildingBlock: MIDCAF_clean_linker_0, # of connection points: 3
#     Node 3, Type 0, BuildingBlock: MIDCAF_clean_linker_0, # of connection points: 3
#     Node 4, Type 0, BuildingBlock: MIDCAF_clean_linker_0, # of connection points: 3
#     Node 5, Type 0, BuildingBlock: MIDCAF_clean_linker_0, # of connection points: 3
#     Node 6, Type 0, BuildingBlock: MIDCAF_clean_linker_0, # of connection points: 3
#     Node 7, Type 0, BuildingBlock: MIDCAF_clean_linker_0, # of connection points: 3
#     Node 8, Type 0, BuildingBlock: MIDCAF_clean_linker_0, # of connection points: 3
#     Node 9, Type 0, BuildingBlock: MIDCAF_clean_linker_0, # of connection points: 3
#     Node 10, Type 0, BuildingBlock: MIDCAF_clean_linker_0, # of connection points: 3
#     Node 11, Type 0, BuildingBlock: MIDCAF_clean_linker_0, # of connection points: 3
#     Node 12, Type 0, BuildingBlock: MIDCAF_clean_linker_0, # of connection points: 3
#     Node 13, Type 0, BuildingBlock: MIDCAF_clean_linker_0, # of connection points: 3
#     Node 14, Type 0, BuildingBlock: MIDCAF_clean_linker_0, # of connection points: 3
#     Node 15, Type 0, BuildingBlock: MIDCAF_clean_linker_0, # of connection points: 3
#     Node 16, Type 0, BuildingBlock: MIDCAF_clean_linker_0, # of connection points: 3
#     Node 17, Type 0, BuildingBlock: MIDCAF_clean_linker_0, # of connection points: 3
#     Node 18, Type 0, BuildingBlock: MIDCAF_clean_linker_0, # of connection points: 3
#     Node 19, Type 0, BuildingBlock: MIDCAF_clean_linker_0, # of connection points: 3
#     Node 20, Type 0, BuildingBlock: MIDCAF_clean_linker_0, # of connection points: 3
#     Node 21, Type 0, BuildingBlock: MIDCAF_clean_linker_0, # of connection points: 3
#     Node 22, Type 0, BuildingBlock: MIDCAF_clean_linker_0, # of connection points: 3
#     Node 23, Type 0, BuildingBlock: MIDCAF_clean_linker_0, # of connection points: 3
#     Node 24, Type 0, BuildingBlock: MIDCAF_clean_linker_0, # of connection points: 3
#     Node 25, Type 0, BuildingBlock: MIDCAF_clean_linker_0, # of connection points: 3
#     Node 26, Type 0, BuildingBlock: MIDCAF_clean_linker_0, # of connection points: 3
#     Node 27, Type 0, BuildingBlock: MIDCAF_clean_linker_0, # of connection points: 3
#     Node 28, Type 0, BuildingBlock: MIDCAF_clean_linker_0, # of connection points: 3
#     Node 29, Type 0, BuildingBlock: MIDCAF_clean_linker_0, # of connection points: 3
#     Node 30, Type 0, BuildingBlock: MIDCAF_clean_linker_0, # of connection points: 3
#     Node 31, Type 0, BuildingBlock: MIDCAF_clean_linker_0, # of connection points: 3
#     Node 32, Type 1, BuildingBlock: ESEHIV_clean_sbu_0, # of connection points: 4
#     Node 33, Type 1, BuildingBlock: ESEHIV_clean_sbu_0, # of connection points: 4
#     Node 34, Type 1, BuildingBlock: ESEHIV_clean_sbu_0, # of connection points: 4
#     Node 35, Type 1, BuildingBlock: ESEHIV_clean_sbu_0, # of connection points: 4
#     Node 36, Type 1, BuildingBlock: ESEHIV_clean_sbu_0, # of connection points: 4
#     Node 37, Type 1, BuildingBlock: ESEHIV_clean_sbu_0, # of connection points: 4
#     Node 38, Type 1, BuildingBlock: ESEHIV_clean_sbu_0, # of connection points: 4
#     Node 39, Type 1, BuildingBlock: ESEHIV_clean_sbu_0, # of connection points: 4
#     Node 40, Type 1, BuildingBlock: ESEHIV_clean_sbu_0, # of connection points: 4
#     Node 41, Type 1, BuildingBlock: ESEHIV_clean_sbu_0, # of connection points: 4
#     Node 42, Type 1, BuildingBlock: ESEHIV_clean_sbu_0, # of connection points: 4
#     Node 43, Type 1, BuildingBlock: ESEHIV_clean_sbu_0, # of connection points: 4
#     Node 44, Type 1, BuildingBlock: ESEHIV_clean_sbu_0, # of connection points: 4
#     Node 45, Type 1, BuildingBlock: ESEHIV_clean_sbu_0, # of connection points: 4
#     Node 46, Type 1, BuildingBlock: ESEHIV_clean_sbu_0, # of connection points: 4
#     Node 47, Type 1, BuildingBlock: ESEHIV_clean_sbu_0, # of connection points: 4
#     Node 48, Type 1, BuildingBlock: ESEHIV_clean_sbu_0, # of connection points: 4
#     Node 49, Type 1, BuildingBlock: ESEHIV_clean_sbu_0, # of connection points: 4
#     Node 50, Type 1, BuildingBlock: ESEHIV_clean_sbu_0, # of connection points: 4
#     Node 51, Type 1, BuildingBlock: ESEHIV_clean_sbu_0, # of connection points: 4
#     Node 52, Type 1, BuildingBlock: ESEHIV_clean_sbu_0, # of connection points: 4
#     Node 53, Type 1, BuildingBlock: ESEHIV_clean_sbu_0, # of connection points: 4
#     Node 54, Type 1, BuildingBlock: ESEHIV_clean_sbu_0, # of connection points: 4
#     Node 55, Type 1, BuildingBlock: ESEHIV_clean_sbu_0, # of connection points: 4
#     Edge 56, Type (0, 1), BuildingBlock: KIFKEQ_clean_linker_1, # of connection points: 2
#     Edge 57, Type (0, 1), BuildingBlock: KIFKEQ_clean_linker_1, # of connection points: 2
#     Edge 58, Type (0, 1), BuildingBlock: KIFKEQ_clean_linker_1, # of connection points: 2
#     Edge 59, Type (0, 1), BuildingBlock: KIFKEQ_clean_linker_1, # of connection points: 2
#     Edge 60, Type (0, 1), BuildingBlock: KIFKEQ_clean_linker_1, # of connection points: 2
#     Edge 61, Type (0, 1), BuildingBlock: KIFKEQ_clean_linker_1, # of connection points: 2
#     Edge 62, Type (0, 1), BuildingBlock: KIFKEQ_clean_linker_1, # of connection points: 2
#     Edge 63, Type (0, 1), BuildingBlock: KIFKEQ_clean_linker_1, # of connection points: 2
#     Edge 64, Type (0, 1), BuildingBlock: KIFKEQ_clean_linker_1, # of connection points: 2
#     Edge 65, Type (0, 1), BuildingBlock: KIFKEQ_clean_linker_1, # of connection points: 2
#     Edge 66, Type (0, 1), BuildingBlock: KIFKEQ_clean_linker_1, # of connection points: 2
#     Edge 67, Type (0, 1), BuildingBlock: KIFKEQ_clean_linker_1, # of connection points: 2
#     Edge 68, Type (0, 1), BuildingBlock: KIFKEQ_clean_linker_1, # of connection points: 2
#     Edge 69, Type (0, 1), BuildingBlock: KIFKEQ_clean_linker_1, # of connection points: 2
#     Edge 70, Type (0, 1), BuildingBlock: KIFKEQ_clean_linker_1, # of connection points: 2
#     Edge 71, Type (0, 1), BuildingBlock: KIFKEQ_clean_linker_1, # of connection points: 2
#     Edge 72, Type (0, 1), BuildingBlock: KIFKEQ_clean_linker_1, # of connection points: 2
#     Edge 73, Type (0, 1), BuildingBlock: KIFKEQ_clean_linker_1, # of connection points: 2
#     Edge 74, Type (0, 1), BuildingBlock: KIFKEQ_clean_linker_1, # of connection points: 2
#     Edge 75, Type (0, 1), BuildingBlock: KIFKEQ_clean_linker_1, # of connection points: 2
#     Edge 76, Type (0, 1), BuildingBlock: KIFKEQ_clean_linker_1, # of connection points: 2
#     Edge 77, Type (0, 1), BuildingBlock: KIFKEQ_clean_linker_1, # of connection points: 2
#     Edge 78, Type (0, 1), BuildingBlock: KIFKEQ_clean_linker_1, # of connection points: 2
#     Edge 79, Type (0, 1), BuildingBlock: KIFKEQ_clean_linker_1, # of connection points: 2
#     Edge 80, Type (0, 1), BuildingBlock: KIFKEQ_clean_linker_1, # of connection points: 2
#     Edge 81, Type (0, 1), BuildingBlock: KIFKEQ_clean_linker_1, # of connection points: 2
#     Edge 82, Type (0, 1), BuildingBlock: KIFKEQ_clean_linker_1, # of connection points: 2
#     Edge 83, Type (0, 1), BuildingBlock: KIFKEQ_clean_linker_1, # of connection points: 2
#     Edge 84, Type (0, 1), BuildingBlock: KIFKEQ_clean_linker_1, # of connection points: 2
#     Edge 85, Type (0, 1), BuildingBlock: KIFKEQ_clean_linker_1, # of connection points: 2
#     Edge 86, Type (0, 1), BuildingBlock: KIFKEQ_clean_linker_1, # of connection points: 2
#     Edge 87, Type (0, 1), BuildingBlock: KIFKEQ_clean_linker_1, # of connection points: 2
#     Edge 88, Type (0, 1), BuildingBlock: KIFKEQ_clean_linker_1, # of connection points: 2
#     Edge 89, Type (0, 1), BuildingBlock: KIFKEQ_clean_linker_1, # of connection points: 2
#     Edge 90, Type (0, 1), BuildingBlock: KIFKEQ_clean_linker_1, # of connection points: 2
#     Edge 91, Type (0, 1), BuildingBlock: KIFKEQ_clean_linker_1, # of connection points: 2
#     Edge 92, Type (0, 1), BuildingBlock: KIFKEQ_clean_linker_1, # of connection points: 2
#     Edge 93, Type (0, 1), BuildingBlock: KIFKEQ_clean_linker_1, # of connection points: 2
#     Edge 94, Type (0, 1), BuildingBlock: KIFKEQ_clean_linker_1, # of connection points: 2
#     Edge 95, Type (0, 1), BuildingBlock: KIFKEQ_clean_linker_1, # of connection points: 2
#     Edge 96, Type (0, 1), BuildingBlock: KIFKEQ_clean_linker_1, # of connection points: 2
#     Edge 97, Type (0, 1), BuildingBlock: KIFKEQ_clean_linker_1, # of connection points: 2
#     Edge 98, Type (0, 1), BuildingBlock: KIFKEQ_clean_linker_1, # of connection points: 2
#     Edge 99, Type (0, 1), BuildingBlock: KIFKEQ_clean_linker_1, # of connection points: 2
#     Edge 100, Type (0, 1), BuildingBlock: KIFKEQ_clean_linker_1, # of connection points: 2
#     Edge 101, Type (0, 1), BuildingBlock: KIFKEQ_clean_linker_1, # of connection points: 2
#     Edge 102, Type (0, 1), BuildingBlock: KIFKEQ_clean_linker_1, # of connection points: 2
#     Edge 103, Type (0, 1), BuildingBlock: KIFKEQ_clean_linker_1, # of connection points: 2
#     Edge 104, Type (0, 1), BuildingBlock: KIFKEQ_clean_linker_1, # of connection points: 2
#     Edge 105, Type (0, 1), BuildingBlock: KIFKEQ_clean_linker_1, # of connection points: 2
#     Edge 106, Type (0, 1), BuildingBlock: KIFKEQ_clean_linker_1, # of connection points: 2
#     Edge 107, Type (0, 1), BuildingBlock: KIFKEQ_clean_linker_1, # of connection points: 2
#     Edge 108, Type (0, 1), BuildingBlock: KIFKEQ_clean_linker_1, # of connection points: 2
#     Edge 109, Type (0, 1), BuildingBlock: KIFKEQ_clean_linker_1, # of connection points: 2
#     Edge 110, Type (0, 1), BuildingBlock: KIFKEQ_clean_linker_1, # of connection points: 2
#     Edge 111, Type (0, 1), BuildingBlock: KIFKEQ_clean_linker_1, # of connection points: 2
#     Edge 112, Type (0, 1), BuildingBlock: KIFKEQ_clean_linker_1, # of connection points: 2
#     Edge 113, Type (0, 1), BuildingBlock: KIFKEQ_clean_linker_1, # of connection points: 2
#     Edge 114, Type (0, 1), BuildingBlock: KIFKEQ_clean_linker_1, # of connection points: 2
#     Edge 115, Type (0, 1), BuildingBlock: KIFKEQ_clean_linker_1, # of connection points: 2
#     Edge 116, Type (0, 1), BuildingBlock: KIFKEQ_clean_linker_1, # of connection points: 2
#     Edge 117, Type (0, 1), BuildingBlock: KIFKEQ_clean_linker_1, # of connection points: 2
#     Edge 118, Type (0, 1), BuildingBlock: KIFKEQ_clean_linker_1, # of connection points: 2
#     Edge 119, Type (0, 1), BuildingBlock: KIFKEQ_clean_linker_1, # of connection points: 2
#     Edge 120, Type (0, 1), BuildingBlock: KIFKEQ_clean_linker_1, # of connection points: 2
#     Edge 121, Type (0, 1), BuildingBlock: KIFKEQ_clean_linker_1, # of connection points: 2
#     Edge 122, Type (0, 1), BuildingBlock: KIFKEQ_clean_linker_1, # of connection points: 2
#     Edge 123, Type (0, 1), BuildingBlock: KIFKEQ_clean_linker_1, # of connection points: 2
#     Edge 124, Type (0, 1), BuildingBlock: KIFKEQ_clean_linker_1, # of connection points: 2
#     Edge 125, Type (0, 1), BuildingBlock: KIFKEQ_clean_linker_1, # of connection points: 2
#     Edge 126, Type (0, 1), BuildingBlock: KIFKEQ_clean_linker_1, # of connection points: 2
#     Edge 127, Type (0, 1), BuildingBlock: KIFKEQ_clean_linker_1, # of connection points: 2
#     Edge 128, Type (0, 1), BuildingBlock: KIFKEQ_clean_linker_1, # of connection points: 2
#     Edge 129, Type (0, 1), BuildingBlock: KIFKEQ_clean_linker_1, # of connection points: 2
#     Edge 130, Type (0, 1), BuildingBlock: KIFKEQ_clean_linker_1, # of connection points: 2
#     Edge 131, Type (0, 1), BuildingBlock: KIFKEQ_clean_linker_1, # of connection points: 2
#     Edge 132, Type (0, 1), BuildingBlock: KIFKEQ_clean_linker_1, # of connection points: 2
#     Edge 133, Type (0, 1), BuildingBlock: KIFKEQ_clean_linker_1, # of connection points: 2
#     Edge 134, Type (0, 1), BuildingBlock: KIFKEQ_clean_linker_1, # of connection points: 2
#     Edge 135, Type (0, 1), BuildingBlock: KIFKEQ_clean_linker_1, # of connection points: 2
#     Edge 136, Type (0, 1), BuildingBlock: KIFKEQ_clean_linker_1, # of connection points: 2
#     Edge 137, Type (0, 1), BuildingBlock: KIFKEQ_clean_linker_1, # of connection points: 2
#     Edge 138, Type (0, 1), BuildingBlock: KIFKEQ_clean_linker_1, # of connection points: 2
#     Edge 139, Type (0, 1), BuildingBlock: KIFKEQ_clean_linker_1, # of connection points: 2
#     Edge 140, Type (0, 1), BuildingBlock: KIFKEQ_clean_linker_1, # of connection points: 2
#     Edge 141, Type (0, 1), BuildingBlock: KIFKEQ_clean_linker_1, # of connection points: 2
#     Edge 142, Type (0, 1), BuildingBlock: KIFKEQ_clean_linker_1, # of connection points: 2
#     Edge 143, Type (0, 1), BuildingBlock: KIFKEQ_clean_linker_1, # of connection points: 2
#     Edge 144, Type (0, 1), BuildingBlock: KIFKEQ_clean_linker_1, # of connection points: 2
#     Edge 145, Type (0, 1), BuildingBlock: KIFKEQ_clean_linker_1, # of connection points: 2
#     Edge 146, Type (0, 1), BuildingBlock: KIFKEQ_clean_linker_1, # of connection points: 2
#     Edge 147, Type (0, 1), BuildingBlock: KIFKEQ_clean_linker_1, # of connection points: 2
#     Edge 148, Type (0, 1), BuildingBlock: KIFKEQ_clean_linker_1, # of connection points: 2
#     Edge 149, Type (0, 1), BuildingBlock: KIFKEQ_clean_linker_1, # of connection points: 2
#     Edge 150, Type (0, 1), BuildingBlock: KIFKEQ_clean_linker_1, # of connection points: 2
#     Edge 151, Type (0, 1), BuildingBlock: KIFKEQ_clean_linker_1, # of connection points: 2
# Relax obj value: 0.002
# Max RMSD: 0.119
# Mean RMSD: 0.047
data_MOF--net-tbo--node1-ESEHIV_clean_sbu_0--node2-MIDCAF_clean_linker_0--edge1-KIFKEQ_clean_linker_1
_symmetry_space_group_name_H-M    P1
_symmetry_Int_Tables_number       1
_symmetry_cell_setting            triclinic
loop_
_symmetry_equiv_pos_as_xyz
'x, y, z'
_cell_length_a     91.655098
_cell_length_b     91.730412
_cell_length_c     91.684251
_cell_angle_alpha  89.932326
_cell_angle_beta   92.080502
_cell_angle_gamma 90.545602
loop_
_atom_site_label
_atom_site_type_symbol
_atom_site_fract_x
_atom_site_fract_y
_atom_site_fract_z
_atom_type_partial_charge
C0 C 0.12979 0.19988 0.20444 0.0
C1 C 0.12446 0.19229 0.21652 0.0
C2 C 0.13197 0.17993 0.22162 0.0
C3 C 0.14445 0.1752 0.21482 0.0
H4 H 0.18138 0.1517 0.22338 0.0
H5 H 0.19281 0.13059 0.23485 0.0
H6 H 0.21225 0.11958 0.19417 0.0
H7 H 0.20077 0.1409 0.18255 0.0
H8 H 0.20101 0.16868 0.15841 0.0
H9 H 0.20925 0.17994 0.13606 0.0
H10 H 0.17853 0.21485 0.14115 0.0
H11 H 0.16999 0.20338 0.16322 0.0
H12 H 0.14606 0.20112 0.18822 0.0
H13 H 0.12419 0.20941 0.20018 0.0
H14 H 0.1283 0.17396 0.23103 0.0
H15 H 0.14988 0.1656 0.21915 0.0
N16 N 0.17045 0.16592 0.2014 0.0
N17 N 0.18691 0.16661 0.18244 0.0
N18 N 0.16771 0.18344 0.18296 0.0
C19 C 0.18237 0.16049 0.19505 0.0
C20 C 0.17967 0.17818 0.17635 0.0
C21 C 0.163 0.1773 0.19548 0.0
C22 C 0.19011 0.14799 0.202 0.0
C23 C 0.18813 0.14485 0.21684 0.0
C24 C 0.19476 0.13279 0.22347 0.0
C25 C 0.20342 0.12342 0.21542 0.0
C26 C 0.20554 0.12657 0.20061 0.0
C27 C 0.19905 0.13881 0.19399 0.0
C28 C 0.18479 0.18507 0.16268 0.0
C29 C 0.19598 0.17875 0.15478 0.0
C30 C 0.20079 0.18528 0.14196 0.0
C31 C 0.1946 0.19835 0.13672 0.0
C32 C 0.18342 0.20467 0.14466 0.0
C33 C 0.17856 0.19811 0.15742 0.0
C34 C 0.14978 0.18266 0.20266 0.0
C35 C 0.14229 0.19509 0.19754 0.0
C36 C 0.83653 0.14205 0.19838 0.0
C37 C 0.82425 0.1366 0.19038 0.0
C38 C 0.81899 0.14456 0.17822 0.0
C39 C 0.8258 0.15754 0.17411 0.0
H40 H 0.82381 0.18821 0.14191 0.0
H41 H 0.81365 0.20154 0.12098 0.0
H42 H 0.84193 0.23821 0.13181 0.0
H43 H 0.8524 0.22476 0.15243 0.0
H44 H 0.87919 0.2193 0.17272 0.0
H45 H 0.90109 0.22943 0.18447 0.0
H46 H 0.9009 0.19492 0.21652 0.0
H47 H 0.87865 0.18471 0.2048 0.0
H48 H 0.85284 0.15892 0.20062 0.0
H49 H 0.84095 0.13615 0.20775 0.0
H50 H 0.80942 0.14087 0.17194 0.0
H51 H 0.82131 0.16329 0.16468 0.0
N52 N 0.83932 0.18447 0.16593 0.0
N53 N 0.85751 0.20237 0.16876 0.0
N54 N 0.85736 0.18231 0.18467 0.0
C55 C 0.8454 0.1972 0.1615 0.0
C56 C 0.86362 0.19507 0.1803 0.0
C57 C 0.84515 0.17694 0.17749 0.0
C58 C 0.83897 0.20537 0.14887 0.0
C59 C 0.82787 0.19912 0.13984 0.0
C60 C 0.82197 0.20681 0.12786 0.0
C61 C 0.82696 0.22097 0.12466 0.0
C62 C 0.83799 0.22724 0.13376 0.0
C63 C 0.84394 0.21953 0.14567 0.0
C64 C 0.87706 0.20111 0.18776 0.0
C65 C 0.88372 0.21379 0.18227 0.0
C66 C 0.8964 0.2196 0.18897 0.0
C67 C 0.90283 0.21296 0.20139 0.0
C68 C 0.89616 0.20036 0.20702 0.0
C69 C 0.88344 0.19447 0.20025 0.0
C70 C 0.83811 0.16301 0.18204 0.0
C71 C 0.8434 0.15508 0.19424 0.0
C72 C 0.83619 0.82134 0.12739 0.0
C73 C 0.82477 0.82795 0.11922 0.0
C74 C 0.81887 0.84093 0.12456 0.0
C75 C 0.8242 0.8471 0.13772 0.0
H76 H 0.82426 0.88657 0.16553 0.0
H77 H 0.8143 0.90829 0.17713 0.0
H78 H 0.82886 0.89214 0.21937 0.0
H79 H 0.83893 0.87071 0.20791 0.0
H80 H 0.86816 0.85276 0.208 0.0
H81 H 0.88994 0.84377 0.22073 0.0
H82 H 0.89947 0.81723 0.18347 0.0
H83 H 0.87762 0.82639 0.17051 0.0
H84 H 0.85039 0.82209 0.14643 0.0
H85 H 0.84113 0.81145 0.12356 0.0
H86 H 0.80996 0.84626 0.11865 0.0
H87 H 0.8193 0.85705 0.14146 0.0
N88 N 0.83461 0.85869 0.16591 0.0
N89 N 0.85114 0.85805 0.18602 0.0
N90 N 0.85305 0.84099 0.16723 0.0
C91 C 0.83949 0.86424 0.17899 0.0
C92 C 0.85807 0.84652 0.18025 0.0
C93 C 0.84128 0.84695 0.15999 0.0
C94 C 0.83242 0.87693 0.18578 0.0
C95 C 0.82522 0.88763 0.17729 0.0
C96 C 0.81962 0.90009 0.18391 0.0
C97 C 0.82082 0.90191 0.19915 0.0
C98 C 0.82768 0.89102 0.20762 0.0
C99 C 0.83351 0.87876 0.20102 0.0
C100 C 0.87109 0.84036 0.18815 0.0
C101 C 0.87483 0.84498 0.20246 0.0
C102 C 0.88731 0.83974 0.20985 0.0
C103 C 0.89647 0.82977 0.20315 0.0
C104 C 0.89271 0.82502 0.18889 0.0
C105 C 0.88013 0.8302 0.1815 0.0
C106 C 0.83565 0.8405 0.14589 0.0
C107 C 0.84157 0.82754 0.14051 0.0
C108 C 0.13142 0.82723 0.20346 0.0
C109 C 0.12564 0.8143 0.1972 0.0
C110 C 0.13236 0.80849 0.18499 0.0
C111 C 0.14469 0.8153 0.17934 0.0
H112 H 0.1711 0.8159 0.14264 0.0
H113 H 0.18166 0.80865 0.11961 0.0
H114 H 0.2182 0.83782 0.12838 0.0
H115 H 0.20773 0.84519 0.15099 0.0
H116 H 0.21166 0.86046 0.17999 0.0
H117 H 0.22431 0.88135 0.19071 0.0
H118 H 0.18557 0.89277 0.21342 0.0
H119 H 0.17266 0.87167 0.20246 0.0
H120 H 0.1479 0.84387 0.20306 0.0
H121 H 0.12636 0.83222 0.21267 0.0
H122 H 0.1283 0.79851 0.17996 0.0
H123 H 0.14968 0.81038 0.17004 0.0
N124 N 0.16974 0.83011 0.16754 0.0
N125 N 0.18877 0.84717 0.17004 0.0
N126 N 0.17082 0.84624 0.18753 0.0
C127 C 0.18213 0.83619 0.16243 0.0
C128 C 0.18329 0.8523 0.18253 0.0
C129 C 0.16401 0.83504 0.18011 0.0
C130 C 0.18848 0.8312 0.14866 0.0
C131 C 0.18138 0.82075 0.13963 0.0
C132 C 0.18744 0.81657 0.12647 0.0
C133 C 0.20068 0.8228 0.1221 0.0
C134 C 0.20782 0.83306 0.13124 0.0
C135 C 0.20182 0.83721 0.14431 0.0
C136 C 0.19108 0.86442 0.19028 0.0
C137 C 0.20578 0.86733 0.18732 0.0
C138 C 0.21312 0.87927 0.19358 0.0
C139 C 0.20597 0.88873 0.20292 0.0
C140 C 0.19134 0.88572 0.20616 0.0
C141 C 0.18398 0.8736 0.19998 0.0
C142 C 0.15063 0.82807 0.18579 0.0
C143 C 0.14376 0.83398 0.19787 0.0
C144 C 0.13467 0.8136 0.82544 0.0
C145 C 0.1285 0.82149 0.81363 0.0
C146 C 0.1348 0.83501 0.81002 0.0
C147 C 0.14712 0.84036 0.8179 0.0
H148 H 0.17659 0.87634 0.82212 0.0
H149 H 0.19001 0.89819 0.81478 0.0
H150 H 0.2268 0.88532 0.84241 0.0
H151 H 0.2135 0.8636 0.84978 0.0
H152 H 0.20463 0.84437 0.87779 0.0
H153 H 0.21339 0.83199 0.89977 0.0
H154 H 0.18375 0.79608 0.89046 0.0
H155 H 0.17489 0.80849 0.86822 0.0
H156 H 0.15128 0.81248 0.84233 0.0
H157 H 0.12996 0.80328 0.82869 0.0
H158 H 0.13036 0.84133 0.80095 0.0
H159 H 0.15175 0.85075 0.81475 0.0
N160 N 0.1737 0.8501 0.83372 0.0
N161 N 0.19068 0.84748 0.85329 0.0
N162 N 0.17158 0.83052 0.8501 0.0
C163 C 0.18585 0.85495 0.84128 0.0
C164 C 0.18363 0.83529 0.85782 0.0
C165 C 0.16651 0.83785 0.83804 0.0
C166 C 0.19393 0.86818 0.83656 0.0
C167 C 0.18755 0.87815 0.8266 0.0
C168 C 0.1952 0.89071 0.82246 0.0
C169 C 0.20947 0.89346 0.828 0.0
C170 C 0.21588 0.88344 0.83784 0.0
C171 C 0.20819 0.87102 0.84212 0.0
C172 C 0.18899 0.82749 0.87118 0.0
C173 C 0.19993 0.83384 0.88034 0.0
C174 C 0.2049 0.82678 0.89304 0.0
C175 C 0.19917 0.81311 0.89695 0.0
C176 C 0.18839 0.80659 0.88773 0.0
C177 C 0.18328 0.81375 0.87502 0.0
C178 C 0.15335 0.83237 0.82966 0.0
C179 C 0.14689 0.81896 0.83335 0.0
C180 C 0.15388 0.20816 0.84665 0.0
C181 C 0.14482 0.20381 0.83472 0.0
C182 C 0.14801 0.19074 0.8275 0.0
C183 C 0.15998 0.18225 0.83212 0.0
H184 H 0.18676 0.14761 0.82011 0.0
H185 H 0.19394 0.12589 0.80692 0.0
H186 H 0.22552 0.11591 0.84148 0.0
H187 H 0.21828 0.13746 0.85477 0.0
H188 H 0.22573 0.16215 0.87983 0.0
H189 H 0.23759 0.16902 0.90323 0.0
H190 H 0.20355 0.20018 0.91018 0.0
H191 H 0.19171 0.19338 0.88705 0.0
H192 H 0.17238 0.20342 0.86061 0.0
H193 H 0.15166 0.21804 0.85259 0.0
H194 H 0.14133 0.18713 0.81819 0.0
H195 H 0.1621 0.17226 0.82632 0.0
N196 N 0.18585 0.16568 0.84185 0.0
N197 N 0.20442 0.16125 0.85965 0.0
N198 N 0.18878 0.18108 0.86214 0.0
C199 C 0.19731 0.15746 0.84686 0.0
C200 C 0.2002 0.17305 0.86737 0.0
C201 C 0.18154 0.17755 0.84943 0.0
C202 C 0.20188 0.14436 0.83859 0.0
C203 C 0.19525 0.14082 0.82493 0.0
C204 C 0.19943 0.12838 0.81729 0.0
C205 C 0.21028 0.11908 0.82314 0.0
C206 C 0.21697 0.12268 0.83673 0.0
C207 C 0.21286 0.13514 0.84433 0.0
C208 C 0.2077 0.17715 0.8815 0.0
C209 C 0.22077 0.17045 0.88635 0.0
C210 C 0.22762 0.17444 0.89973 0.0
C211 C 0.22147 0.18508 0.90862 0.0
C212 C 0.20848 0.19179 0.90372 0.0
C213 C 0.20172 0.18793 0.89036 0.0
C214 C 0.16898 0.18658 0.84414 0.0
C215 C 0.16575 0.19967 0.85131 0.0
C216 C 0.84304 0.14829 0.81842 0.0
C217 C 0.82857 0.14588 0.82257 0.0
C218 C 0.82182 0.1566 0.83085 0.0
C219 C 0.82943 0.16917 0.83527 0.0
H220 H 0.83023 0.19666 0.86919 0.0
H221 H 0.82083 0.20883 0.89028 0.0
H222 H 0.85559 0.24087 0.8887 0.0
H223 H 0.86529 0.22845 0.86764 0.0
H224 H 0.89069 0.2228 0.84518 0.0
H225 H 0.91265 0.23145 0.83386 0.0
H226 H 0.90595 0.19997 0.7992 0.0
H227 H 0.88404 0.19098 0.81076 0.0
H228 H 0.86185 0.1624 0.81959 0.0
H229 H 0.84864 0.14022 0.81214 0.0
H230 H 0.81058 0.15533 0.83394 0.0
H231 H 0.82386 0.17709 0.84176 0.0
N232 N 0.84709 0.19194 0.84839 0.0
N233 N 0.86675 0.20834 0.8475 0.0
N234 N 0.86457 0.1891 0.83061 0.0
C235 C 0.8543 0.20381 0.85384 0.0
C236 C 0.87195 0.20106 0.83585 0.0
C237 C 0.8521 0.18451 0.83684 0.0
C238 C 0.84856 0.21155 0.86664 0.0
C239 C 0.83592 0.20631 0.87326 0.0
C240 C 0.83043 0.21336 0.88535 0.0
C241 C 0.83739 0.22588 0.89117 0.0
C242 C 0.85004 0.23116 0.88458 0.0
C243 C 0.85556 0.22408 0.87245 0.0
C244 C 0.88549 0.2062 0.82889 0.0
C245 C 0.89383 0.21768 0.83514 0.0
C246 C 0.90642 0.22273 0.82857 0.0
C247 C 0.91102 0.21654 0.81549 0.0
C248 C 0.90279 0.20494 0.8093 0.0
C249 C 0.89018 0.19983 0.81592 0.0
C250 C 0.84397 0.17146 0.83138 0.0
C251 C 0.85064 0.16099 0.82272 0.0
C252 C 0.81404 0.85635 0.881 0.0
C253 C 0.8173 0.84317 0.88821 0.0
C254 C 0.82843 0.83442 0.88285 0.0
C255 C 0.83615 0.83877 0.87065 0.0
H256 H 0.86484 0.82379 0.83895 0.0
H257 H 0.88472 0.80907 0.83031 0.0
H258 H 0.90234 0.84683 0.80855 0.0
H259 H 0.8821 0.86131 0.8166 0.0
H260 H 0.85169 0.8832 0.80443 0.0
H261 H 0.84517 0.90641 0.79273 0.0
H262 H 0.82502 0.92026 0.83214 0.0
H263 H 0.83131 0.89716 0.84377 0.0
H264 H 0.81888 0.87092 0.86359 0.0
H265 H 0.80541 0.86327 0.88469 0.0
H266 H 0.83136 0.82429 0.88822 0.0
H267 H 0.84469 0.83176 0.86691 0.0
N268 N 0.85204 0.84835 0.84541 0.0
N269 N 0.85642 0.86569 0.82717 0.0
N270 N 0.83811 0.86964 0.84391 0.0
C271 C 0.85973 0.85277 0.83375 0.0
C272 C 0.8456 0.87418 0.83218 0.0
C273 C 0.84121 0.85673 0.85059 0.0
C274 C 0.87183 0.84374 0.82845 0.0
C275 C 0.87294 0.82894 0.83228 0.0
C276 C 0.88444 0.8205 0.82739 0.0
C277 C 0.89526 0.82669 0.81871 0.0
C278 C 0.89412 0.84154 0.81495 0.0
C279 C 0.88252 0.84991 0.81965 0.0
C280 C 0.84201 0.8883 0.82505 0.0
C281 C 0.84591 0.89123 0.81061 0.0
C282 C 0.84215 0.90447 0.80388 0.0
C283 C 0.83468 0.91516 0.81156 0.0
C284 C 0.83093 0.91229 0.82602 0.0
C285 C 0.83446 0.899 0.83264 0.0
C286 C 0.83293 0.85198 0.86347 0.0
C287 C 0.82174 0.8607 0.86881 0.0
C288 C 0.12846 0.69733 0.68137 0.0
C289 C 0.12589 0.69221 0.69551 0.0
C290 C 0.13593 0.68253 0.70213 0.0
C291 C 0.14819 0.67798 0.69473 0.0
H292 H 0.17725 0.6418 0.69085 0.0
H293 H 0.1925 0.62162 0.69964 0.0
H294 H 0.22703 0.63615 0.67218 0.0
H295 H 0.21186 0.65619 0.6633 0.0
H296 H 0.19509 0.66888 0.63091 0.0
H297 H 0.20114 0.67988 0.6077 0.0
H298 H 0.17717 0.71842 0.61851 0.0
H299 H 0.17086 0.70731 0.64185 0.0
H300 H 0.14236 0.69709 0.66315 0.0
H301 H 0.12104 0.70492 0.67603 0.0
H302 H 0.1342 0.6783 0.71297 0.0
H303 H 0.15565 0.67046 0.70015 0.0
N304 N 0.17222 0.6672 0.67794 0.0
N305 N 0.18724 0.66933 0.65787 0.0
N306 N 0.16722 0.68482 0.65985 0.0
C307 C 0.18402 0.6627 0.67063 0.0
C308 C 0.17892 0.68037 0.65239 0.0
C309 C 0.16376 0.67829 0.67263 0.0
C310 C 0.1933 0.65062 0.67634 0.0
C311 C 0.18811 0.64072 0.68672 0.0
C312 C 0.1968 0.62911 0.69169 0.0
C313 C 0.21096 0.62731 0.68659 0.0
C314 C 0.21621 0.63732 0.67639 0.0
C315 C 0.20746 0.64876 0.67124 0.0
C316 C 0.18249 0.68721 0.63826 0.0
C317 C 0.19106 0.67969 0.62839 0.0
C318 C 0.19445 0.68595 0.61503 0.0
C319 C 0.18954 0.69996 0.61127 0.0
C320 C 0.18108 0.70759 0.62115 0.0
C321 C 0.17745 0.70121 0.63446 0.0
C322 C 0.15078 0.68311 0.68057 0.0
C323 C 0.14077 0.69289 0.67402 0.0
C324 C 0.84632 0.66279 0.69943 0.0
C325 C 0.8375 0.65156 0.69333 0.0
C326 C 0.83186 0.6533 0.67893 0.0
C327 C 0.83516 0.6658 0.67081 0.0
H328 H 0.81984 0.69314 0.63622 0.0
H329 H 0.80624 0.69995 0.61393 0.0
H330 H 0.83794 0.73388 0.606 0.0
H331 H 0.85166 0.72702 0.62815 0.0
H332 H 0.8792 0.73197 0.65095 0.0
H333 H 0.90117 0.74518 0.65965 0.0
H334 H 0.90217 0.71941 0.69911 0.0
H335 H 0.88031 0.70647 0.69067 0.0
H336 H 0.85665 0.68348 0.69639 0.0
H337 H 0.85058 0.66209 0.71057 0.0
H338 H 0.82516 0.64485 0.67378 0.0
H339 H 0.83082 0.66666 0.6597 0.0
N340 N 0.84112 0.6935 0.65561 0.0
N341 N 0.85721 0.71328 0.65235 0.0
N342 N 0.86034 0.6979 0.67262 0.0
C343 C 0.8453 0.70531 0.64767 0.0
C344 C 0.86479 0.70963 0.66486 0.0
C345 C 0.8486 0.68975 0.66813 0.0
C346 C 0.83693 0.70948 0.63405 0.0
C347 C 0.82396 0.70205 0.62974 0.0
C348 C 0.81608 0.70601 0.61698 0.0
C349 C 0.82098 0.71745 0.60812 0.0
C350 C 0.83393 0.72489 0.61244 0.0
C351 C 0.84177 0.72098 0.62523 0.0
C352 C 0.87792 0.71811 0.67007 0.0
C353 C 0.88406 0.72919 0.66152 0.0
C354 C 0.8967 0.73672 0.66647 0.0
C355 C 0.90342 0.73342 0.68012 0.0
C356 C 0.89718 0.72244 0.68866 0.0
C357 C 0.88465 0.71491 0.68373 0.0
C358 C 0.84429 0.67681 0.67684 0.0
C359 C 0.84973 0.67517 0.69128 0.0
C360 C 0.85271 0.32796 0.63686 0.0
C361 C 0.84046 0.3324 0.62835 0.0
C362 C 0.83307 0.34502 0.63252 0.0
C363 C 0.83782 0.35302 0.64482 0.0
H364 H 0.82506 0.38618 0.67466 0.0
H365 H 0.81343 0.4093 0.68069 0.0
H366 H 0.85323 0.42367 0.70301 0.0
H367 H 0.86477 0.40062 0.6973 0.0
H368 H 0.87934 0.36772 0.71468 0.0
H369 H 0.9005 0.35961 0.72944 0.0
H370 H 0.91519 0.33466 0.69301 0.0
H371 H 0.89392 0.34255 0.67825 0.0
H372 H 0.867 0.33222 0.65537 0.0
H373 H 0.85879 0.31841 0.6339 0.0
H374 H 0.82347 0.34865 0.62636 0.0
H375 H 0.83181 0.36265 0.64766 0.0
N376 N 0.84831 0.36965 0.67007 0.0
N377 N 0.86496 0.37309 0.68985 0.0
N378 N 0.86716 0.35288 0.67448 0.0
C379 C 0.85312 0.37767 0.68179 0.0
C380 C 0.87202 0.36069 0.68631 0.0
C381 C 0.85528 0.35723 0.66631 0.0
C382 C 0.84585 0.39154 0.6855 0.0
C383 C 0.83132 0.39427 0.68087 0.0
C384 C 0.82463 0.40746 0.68435 0.0
C385 C 0.83247 0.4183 0.69222 0.0
C386 C 0.84698 0.41557 0.6968 0.0
C387 C 0.85355 0.40231 0.6936 0.0
C388 C 0.88492 0.35579 0.69527 0.0
C389 C 0.88707 0.36051 0.70979 0.0
C390 C 0.89914 0.35581 0.71828 0.0
C391 C 0.90949 0.34652 0.71237 0.0
C392 C 0.90743 0.3419 0.69782 0.0
C393 C 0.89521 0.34636 0.68941 0.0
C394 C 0.85011 0.34862 0.65331 0.0
C395 C 0.85747 0.33596 0.64917 0.0
C396 C 0.13973 0.34077 0.71607 0.0
C397 C 0.13196 0.33109 0.70673 0.0
C398 C 0.13561 0.33036 0.69201 0.0
C399 C 0.14716 0.33883 0.68686 0.0
H400 H 0.1778 0.33939 0.65426 0.0
H401 H 0.19043 0.33161 0.63273 0.0
H402 H 0.22559 0.36193 0.64327 0.0
H403 H 0.21285 0.36999 0.66457 0.0
H404 H 0.21402 0.38451 0.69666 0.0
H405 H 0.22478 0.40418 0.71144 0.0
H406 H 0.18266 0.41341 0.72862 0.0
H407 H 0.17179 0.39338 0.71399 0.0
H408 H 0.15692 0.35657 0.71849 0.0
H409 H 0.13702 0.34168 0.72744 0.0
H410 H 0.12978 0.32299 0.68459 0.0
H411 H 0.14992 0.33784 0.67552 0.0
N412 N 0.17451 0.35285 0.67878 0.0
N413 N 0.19226 0.37112 0.68281 0.0
N414 N 0.17347 0.36812 0.69926 0.0
C415 C 0.18674 0.35996 0.67451 0.0
C416 C 0.18566 0.37534 0.69512 0.0
C417 C 0.16784 0.35683 0.69116 0.0
C418 C 0.19427 0.35533 0.66122 0.0
C419 C 0.18821 0.34444 0.65199 0.0
C420 C 0.1955 0.33991 0.63966 0.0
C421 C 0.20907 0.3461 0.63626 0.0
C422 C 0.21507 0.35705 0.64542 0.0
C423 C 0.20777 0.36162 0.65772 0.0
C424 C 0.19205 0.38737 0.70415 0.0
C425 C 0.20701 0.39069 0.70358 0.0
C426 C 0.21321 0.40189 0.71211 0.0
C427 C 0.20456 0.41024 0.72121 0.0
C428 C 0.18955 0.4071 0.72169 0.0
C429 C 0.18338 0.39563 0.71337 0.0
C430 C 0.15509 0.34838 0.69628 0.0
C431 C 0.15108 0.34938 0.7109 0.0
C432 C 0.12844 0.31346 0.34536 0.0
C433 C 0.12327 0.31907 0.33187 0.0
C434 C 0.13118 0.33044 0.32542 0.0
C435 C 0.14419 0.33574 0.33211 0.0
H436 H 0.17532 0.37185 0.33395 0.0
H437 H 0.18985 0.39184 0.32399 0.0
H438 H 0.22853 0.37476 0.34586 0.0
H439 H 0.21412 0.35495 0.35591 0.0
H440 H 0.2098 0.33478 0.38309 0.0
H441 H 0.21995 0.32259 0.40459 0.0
H442 H 0.17928 0.29931 0.4096 0.0
H443 H 0.16893 0.31165 0.38795 0.0
H444 H 0.145 0.31396 0.36232 0.0
H445 H 0.12247 0.30493 0.35082 0.0
H446 H 0.12754 0.33497 0.31502 0.0
H447 H 0.15016 0.3443 0.3267 0.0
N448 N 0.17157 0.34579 0.34627 0.0
N449 N 0.19013 0.34277 0.3643 0.0
N450 N 0.16926 0.32788 0.36441 0.0
C451 C 0.18481 0.34985 0.35225 0.0
C452 C 0.18244 0.33182 0.37051 0.0
C453 C 0.16374 0.33475 0.35226 0.0
C454 C 0.19353 0.3618 0.34576 0.0
C455 C 0.18693 0.37233 0.33659 0.0
C456 C 0.19522 0.38382 0.33095 0.0
C457 C 0.21032 0.38484 0.33414 0.0
C458 C 0.21694 0.3742 0.34312 0.0
C459 C 0.20864 0.36289 0.34894 0.0
C460 C 0.18852 0.32422 0.3837 0.0
C461 C 0.20295 0.32707 0.38869 0.0
C462 C 0.20884 0.31998 0.40101 0.0
C463 C 0.20047 0.30986 0.40874 0.0
C464 C 0.18599 0.30707 0.40389 0.0
C465 C 0.1801 0.31411 0.39145 0.0
C466 C 0.14955 0.32982 0.34542 0.0
C467 C 0.14138 0.31873 0.35202 0.0
C468 C 0.14856 0.69243 0.32156 0.0
C469 C 0.1369 0.68648 0.31306 0.0
C470 C 0.1381 0.67203 0.30801 0.0
C471 C 0.15042 0.66366 0.31181 0.0
H472 H 0.18475 0.63185 0.2962 0.0
H473 H 0.19268 0.60945 0.28429 0.0
H474 H 0.21137 0.59434 0.32538 0.0
H475 H 0.20373 0.61662 0.3372 0.0
H476 H 0.21732 0.64492 0.35812 0.0
H477 H 0.22951 0.65299 0.38094 0.0
H478 H 0.1977 0.68705 0.38478 0.0
H479 H 0.1855 0.67904 0.36225 0.0
H480 H 0.16932 0.68903 0.33224 0.0
H481 H 0.14829 0.70361 0.32531 0.0
H482 H 0.12933 0.66703 0.3015 0.0
H483 H 0.15083 0.65246 0.3081 0.0
N484 N 0.17804 0.64798 0.31944 0.0
N485 N 0.19649 0.64408 0.33756 0.0
N486 N 0.18158 0.66456 0.33875 0.0
C487 C 0.18927 0.63975 0.32501 0.0
C488 C 0.19271 0.65651 0.34448 0.0
C489 C 0.17417 0.66046 0.32631 0.0
C490 C 0.1936 0.62606 0.31767 0.0
C491 C 0.1905 0.62372 0.30269 0.0
C492 C 0.19509 0.61094 0.29585 0.0
C493 C 0.20257 0.60011 0.30391 0.0
C494 C 0.20549 0.6024 0.31889 0.0
C495 C 0.20118 0.61524 0.32565 0.0
C496 C 0.20037 0.66128 0.35829 0.0
C497 C 0.21291 0.65411 0.36384 0.0
C498 C 0.21995 0.65878 0.37689 0.0
C499 C 0.21453 0.67061 0.38473 0.0
C500 C 0.20204 0.67776 0.37915 0.0
C501 C 0.19509 0.67319 0.36612 0.0
C502 C 0.16174 0.6695 0.32084 0.0
C503 C 0.16073 0.68406 0.32546 0.0
C504 C 0.83504 0.63969 0.31949 0.0
C505 C 0.82325 0.63485 0.32768 0.0
C506 C 0.81969 0.64275 0.34016 0.0
C507 C 0.82758 0.65533 0.34422 0.0
H508 H 0.82669 0.69022 0.37161 0.0
H509 H 0.81828 0.7051 0.39145 0.0
H510 H 0.85364 0.73565 0.38516 0.0
H511 H 0.86227 0.72062 0.36533 0.0
H512 H 0.87943 0.71773 0.3345 0.0
H513 H 0.89979 0.72539 0.31981 0.0
H514 H 0.90255 0.68192 0.30222 0.0
H515 H 0.88211 0.67418 0.31688 0.0
H516 H 0.85193 0.6556 0.31693 0.0
H517 H 0.83822 0.63373 0.30994 0.0
H518 H 0.81061 0.63936 0.34664 0.0
H519 H 0.82442 0.66123 0.35381 0.0
N520 N 0.84307 0.68235 0.35107 0.0
N521 N 0.8619 0.69914 0.34675 0.0
N522 N 0.85916 0.67813 0.33228 0.0
C523 C 0.85023 0.69499 0.35459 0.0
C524 C 0.86646 0.69073 0.33559 0.0
C525 C 0.84744 0.67386 0.33994 0.0
C526 C 0.84518 0.70418 0.36677 0.0
C527 C 0.83273 0.70009 0.3744 0.0
C528 C 0.82782 0.7087 0.38575 0.0
C529 C 0.83522 0.72164 0.38986 0.0
C530 C 0.84774 0.7257 0.38235 0.0
C531 C 0.85265 0.7171 0.37092 0.0
C532 C 0.87908 0.69534 0.32688 0.0
C533 C 0.88436 0.70977 0.32754 0.0
C534 C 0.89597 0.71419 0.31903 0.0
C535 C 0.9027 0.70427 0.30978 0.0
C536 C 0.8976 0.68979 0.30927 0.0
C537 C 0.88585 0.6854 0.31764 0.0
C538 C 0.83928 0.66027 0.33593 0.0
C539 C 0.84297 0.65221 0.32357 0.0
C540 C 0.80881 0.35146 0.39898 0.0
C541 C 0.80795 0.33645 0.402 0.0
C542 C 0.81595 0.32677 0.3936 0.0
C543 C 0.82472 0.33192 0.38255 0.0
H544 H 0.85973 0.31928 0.35888 0.0
H545 H 0.87981 0.30408 0.35157 0.0
H546 H 0.89928 0.34118 0.33029 0.0
H547 H 0.8789 0.35619 0.3371 0.0
H548 H 0.85345 0.37946 0.32501 0.0
H549 H 0.84823 0.40188 0.31168 0.0
H550 H 0.81793 0.41437 0.34428 0.0
H551 H 0.82313 0.39189 0.35774 0.0
H552 H 0.81791 0.36825 0.38561 0.0
H553 H 0.80276 0.35916 0.40529 0.0
H554 H 0.81566 0.31516 0.39579 0.0
H555 H 0.83079 0.3241 0.37641 0.0
N556 N 0.8464 0.34373 0.36358 0.0
N557 N 0.85282 0.36128 0.34633 0.0
N558 N 0.83289 0.36527 0.36118 0.0
C559 C 0.85533 0.34823 0.35293 0.0
C560 C 0.84161 0.36985 0.35032 0.0
C561 C 0.83521 0.35218 0.36782 0.0
C562 C 0.86765 0.33897 0.34856 0.0
C563 C 0.86829 0.3242 0.35263 0.0
C564 C 0.87989 0.31549 0.3485 0.0
C565 C 0.89126 0.32134 0.34032 0.0
C566 C 0.89063 0.33616 0.33634 0.0
C567 C 0.87895 0.34483 0.34032 0.0
C568 C 0.8387 0.3838 0.34248 0.0
C569 C 0.84571 0.38697 0.32943 0.0
C570 C 0.84266 0.3998 0.3217 0.0
C571 C 0.83263 0.40988 0.32689 0.0
C572 C 0.82579 0.40686 0.34005 0.0
C573 C 0.82872 0.39393 0.34772 0.0
C574 C 0.82559 0.34691 0.37945 0.0
C575 C 0.81743 0.35663 0.38769 0.0
C576 C 0.63955 0.20467 0.68664 0.0
C577 C 0.63797 0.20049 0.70126 0.0
C578 C 0.64852 0.19144 0.70794 0.0
C579 C 0.66035 0.18656 0.70015 0.0
H580 H 0.68246 0.1468 0.6917 0.0
H581 H 0.69412 0.12427 0.69958 0.0
H582 H 0.73288 0.13642 0.67696 0.0
H583 H 0.72115 0.1591 0.66887 0.0
H584 H 0.7174 0.18487 0.64522 0.0
H585 H 0.72693 0.19864 0.62498 0.0
H586 H 0.68835 0.22529 0.62338 0.0
H587 H 0.67863 0.21141 0.64375 0.0
H588 H 0.65255 0.20346 0.66768 0.0
H589 H 0.63159 0.2117 0.68126 0.0
H590 H 0.64751 0.18799 0.71917 0.0
H591 H 0.66825 0.17955 0.70564 0.0
N592 N 0.68174 0.1733 0.68186 0.0
N593 N 0.69849 0.17625 0.66336 0.0
N594 N 0.67967 0.19319 0.66581 0.0
C595 C 0.69357 0.16849 0.67485 0.0
C596 C 0.69159 0.18859 0.65873 0.0
C597 C 0.67474 0.18563 0.67746 0.0
C598 C 0.70085 0.15479 0.67963 0.0
C599 C 0.69346 0.14473 0.68837 0.0
C600 C 0.70011 0.13175 0.69281 0.0
C601 C 0.71437 0.12854 0.6888 0.0
C602 C 0.72188 0.13863 0.68021 0.0
C603 C 0.71512 0.15157 0.67555 0.0
C604 C 0.69723 0.19702 0.64621 0.0
C605 C 0.71087 0.19364 0.64061 0.0
C606 C 0.71641 0.20161 0.62903 0.0
C607 C 0.70846 0.21315 0.62265 0.0
C608 C 0.69472 0.21644 0.62805 0.0
C609 C 0.6892 0.20852 0.63977 0.0
C610 C 0.66206 0.19083 0.68556 0.0
C611 C 0.65157 0.20001 0.67891 0.0
C612 C 0.35332 0.14164 0.71706 0.0
C613 C 0.34118 0.13353 0.71169 0.0
C614 C 0.33354 0.13857 0.69911 0.0
C615 C 0.33788 0.1514 0.69212 0.0
H616 H 0.3299 0.17684 0.65476 0.0
H617 H 0.31501 0.18679 0.63447 0.0
H618 H 0.33682 0.22841 0.64005 0.0
H619 H 0.3517 0.21859 0.66021 0.0
H620 H 0.38541 0.21634 0.67648 0.0
H621 H 0.40642 0.23001 0.68681 0.0
H622 H 0.40543 0.2037 0.72582 0.0
H623 H 0.38459 0.19007 0.71564 0.0
H624 H 0.36708 0.16036 0.71457 0.0
H625 H 0.35958 0.13799 0.72661 0.0
H626 H 0.32403 0.13272 0.69476 0.0
H627 H 0.33166 0.15494 0.68252 0.0
N628 N 0.34685 0.17842 0.67836 0.0
N629 N 0.36262 0.19869 0.67729 0.0
N630 N 0.36627 0.18103 0.69554 0.0
C631 C 0.35079 0.19112 0.67183 0.0
C632 C 0.37044 0.19371 0.68913 0.0
C633 C 0.35452 0.17329 0.69024 0.0
C634 C 0.342 0.19691 0.65919 0.0
C635 C 0.33154 0.18811 0.65166 0.0
C636 C 0.32304 0.19377 0.63999 0.0
C637 C 0.32465 0.20841 0.63575 0.0
C638 C 0.33517 0.21715 0.6432 0.0
C639 C 0.34378 0.21147 0.65471 0.0
C640 C 0.38325 0.20209 0.69522 0.0
C641 C 0.38966 0.21348 0.68728 0.0
C642 C 0.40174 0.22128 0.69314 0.0
C643 C 0.40752 0.21801 0.70717 0.0
C644 C 0.40111 0.20663 0.71507 0.0
C645 C 0.38919 0.19874 0.70917 0.0
C646 C 0.35 0.15953 0.69752 0.0
C647 C 0.35767 0.15445 0.71007 0.0
C648 C 0.33472 0.82901 0.62389 0.0
C649 C 0.31967 0.82899 0.62048 0.0
C650 C 0.31042 0.83688 0.62947 0.0
C651 C 0.31615 0.84444 0.64174 0.0
H652 H 0.31169 0.88135 0.67031 0.0
H653 H 0.30132 0.90307 0.68092 0.0
H654 H 0.33717 0.90506 0.71275 0.0
H655 H 0.34772 0.88345 0.70203 0.0
H656 H 0.37185 0.856 0.70335 0.0
H657 H 0.39339 0.84299 0.71317 0.0
H658 H 0.3923 0.81539 0.67504 0.0
H659 H 0.37112 0.828 0.66537 0.0
H660 H 0.35203 0.83582 0.63856 0.0
H661 H 0.34213 0.82292 0.61732 0.0
H662 H 0.29877 0.83712 0.62705 0.0
H663 H 0.30879 0.85019 0.64864 0.0
N664 N 0.33113 0.86189 0.66576 0.0
N665 N 0.34982 0.86166 0.68414 0.0
N666 N 0.34982 0.84477 0.66504 0.0
C667 C 0.33731 0.86765 0.67828 0.0
C668 C 0.35611 0.85013 0.67753 0.0
C669 C 0.33743 0.85047 0.65906 0.0
C670 C 0.33063 0.88059 0.68523 0.0
C671 C 0.31739 0.88635 0.6796 0.0
C672 C 0.31135 0.8988 0.68575 0.0
C673 C 0.3184 0.90589 0.69768 0.0
C674 C 0.33153 0.90003 0.70344 0.0
C675 C 0.33755 0.88754 0.69733 0.0
C676 C 0.36958 0.84302 0.68362 0.0
C677 C 0.37625 0.84717 0.69707 0.0
C678 C 0.3886 0.83975 0.70268 0.0
C679 C 0.39443 0.828 0.69498 0.0
C680 C 0.38792 0.82414 0.68143 0.0
C681 C 0.37574 0.83151 0.67584 0.0
C682 C 0.33118 0.84398 0.64537 0.0
C683 C 0.34038 0.83634 0.63617 0.0
C684 C 0.62472 0.84232 0.70196 0.0
C685 C 0.62116 0.8275 0.70022 0.0
C686 C 0.62982 0.81888 0.69129 0.0
C687 C 0.64194 0.82496 0.68448 0.0
H688 H 0.66669 0.83081 0.64152 0.0
H689 H 0.67888 0.82299 0.6195 0.0
H690 H 0.71945 0.84159 0.63648 0.0
H691 H 0.70736 0.84951 0.65829 0.0
H692 H 0.70068 0.8818 0.67556 0.0
H693 H 0.71 0.90361 0.68811 0.0
H694 H 0.67854 0.89729 0.72157 0.0
H695 H 0.66901 0.87583 0.70895 0.0
H696 H 0.63935 0.85974 0.69719 0.0
H697 H 0.6184 0.84924 0.70886 0.0
H698 H 0.62727 0.80743 0.68966 0.0
H699 H 0.64859 0.81802 0.67791 0.0
N700 N 0.66602 0.84041 0.66926 0.0
N701 N 0.68447 0.85839 0.67173 0.0
N702 N 0.66536 0.85789 0.68789 0.0
C703 C 0.67865 0.84658 0.66457 0.0
C704 C 0.67787 0.86411 0.6834 0.0
C705 C 0.65934 0.8461 0.681 0.0
C706 C 0.68603 0.84082 0.65165 0.0
C707 C 0.67824 0.83311 0.6406 0.0
C708 C 0.68518 0.82872 0.62796 0.0
C709 C 0.70011 0.8317 0.62627 0.0
C710 C 0.70796 0.83905 0.63751 0.0
C711 C 0.70099 0.84365 0.64998 0.0
C712 C 0.68403 0.87707 0.69117 0.0
C713 C 0.69577 0.88505 0.68561 0.0
C714 C 0.70116 0.89752 0.69284 0.0
C715 C 0.69496 0.90226 0.70581 0.0
C716 C 0.68339 0.89414 0.71146 0.0
C717 C 0.67797 0.88174 0.70423 0.0
C718 C 0.64573 0.8397 0.68666 0.0
C719 C 0.63684 0.84832 0.69532 0.0
C720 C 0.61562 0.82064 0.32505 0.0
C721 C 0.60881 0.82802 0.3132 0.0
C722 C 0.61564 0.84053 0.30771 0.0
C723 C 0.62888 0.84559 0.31388 0.0
H724 H 0.65877 0.87522 0.30656 0.0
H725 H 0.6695 0.89558 0.29384 0.0
H726 H 0.70617 0.89589 0.32477 0.0
H727 H 0.69526 0.87546 0.33783 0.0
H728 H 0.69515 0.85158 0.3636 0.0
H729 H 0.70707 0.84088 0.38506 0.0
H730 H 0.67235 0.80891 0.38742 0.0
H731 H 0.66016 0.81983 0.36598 0.0
H732 H 0.63384 0.81986 0.34042 0.0
H733 H 0.61058 0.81102 0.32961 0.0
H734 H 0.61085 0.84636 0.29846 0.0
H735 H 0.63372 0.85527 0.30923 0.0
N736 N 0.65646 0.85544 0.32561 0.0
N737 N 0.6758 0.85483 0.34295 0.0
N738 N 0.65645 0.83784 0.34415 0.0
C739 C 0.66935 0.86099 0.33087 0.0
C740 C 0.66943 0.84325 0.34969 0.0
C741 C 0.64989 0.84393 0.33207 0.0
C742 C 0.67614 0.87358 0.32327 0.0
C743 C 0.66913 0.87955 0.31074 0.0
C744 C 0.67534 0.89122 0.30333 0.0
C745 C 0.68877 0.89733 0.30817 0.0
C746 C 0.69576 0.89151 0.32078 0.0
C747 C 0.68954 0.87974 0.32824 0.0
C748 C 0.67666 0.83659 0.36292 0.0
C749 C 0.68999 0.84227 0.36863 0.0
C750 C 0.69692 0.83604 0.38094 0.0
C751 C 0.69078 0.82391 0.38796 0.0
C752 C 0.67736 0.81829 0.38238 0.0
C753 C 0.67041 0.82453 0.37001 0.0
C754 C 0.63572 0.83831 0.32577 0.0
C755 C 0.62892 0.82576 0.3313 0.0
C756 C 0.64058 0.19764 0.32474 0.0
C757 C 0.63391 0.19106 0.3123 0.0
C758 C 0.64021 0.17837 0.30678 0.0
C759 C 0.65288 0.17251 0.31341 0.0
H760 H 0.68016 0.13372 0.31657 0.0
H761 H 0.69213 0.1121 0.30743 0.0
H762 H 0.73372 0.12868 0.32436 0.0
H763 H 0.7216 0.14973 0.33414 0.0
H764 H 0.71925 0.16838 0.36328 0.0
H765 H 0.73077 0.17893 0.38508 0.0
H766 H 0.69388 0.20729 0.38968 0.0
H767 H 0.68211 0.19653 0.36781 0.0
H768 H 0.65808 0.1973 0.34083 0.0
H769 H 0.63619 0.20754 0.32921 0.0
H770 H 0.6353 0.17286 0.29735 0.0
H771 H 0.65739 0.16276 0.30877 0.0
N772 N 0.67984 0.16137 0.32667 0.0
N773 N 0.69891 0.16295 0.34436 0.0
N774 N 0.67982 0.17976 0.34454 0.0
C775 C 0.69265 0.15622 0.33251 0.0
C776 C 0.69259 0.17465 0.35053 0.0
C777 C 0.67338 0.17322 0.33256 0.0
C778 C 0.6999 0.14341 0.32615 0.0
C779 C 0.69186 0.13272 0.3183 0.0
C780 C 0.69878 0.12033 0.313 0.0
C781 C 0.71397 0.11846 0.31517 0.0
C782 C 0.72199 0.1294 0.32276 0.0
C783 C 0.71504 0.14161 0.32829 0.0
C784 C 0.69968 0.18156 0.36371 0.0
C785 C 0.71352 0.17688 0.36886 0.0
C786 C 0.72022 0.18301 0.38136 0.0
C787 C 0.7133 0.19401 0.38914 0.0
C788 C 0.69947 0.19875 0.38402 0.0
C789 C 0.69276 0.19263 0.37142 0.0
C790 C 0.65963 0.17918 0.32576 0.0
C791 C 0.65323 0.19179 0.33137 0.0
C792 C 0.34574 0.13823 0.32355 0.0
C793 C 0.33422 0.12987 0.329 0.0
C794 C 0.32711 0.13501 0.34132 0.0
C795 C 0.3314 0.14821 0.34797 0.0
H796 H 0.32994 0.17576 0.38833 0.0
H797 H 0.32003 0.18713 0.41008 0.0
H798 H 0.33224 0.22957 0.39389 0.0
H799 H 0.34208 0.21836 0.37241 0.0
H800 H 0.37409 0.2178 0.35854 0.0
H801 H 0.39582 0.23038 0.35056 0.0
H802 H 0.40365 0.19542 0.32039 0.0
H803 H 0.38171 0.18282 0.32821 0.0
H804 H 0.35891 0.15747 0.32553 0.0
H805 H 0.35131 0.13478 0.31394 0.0
H806 H 0.31829 0.12878 0.34591 0.0
H807 H 0.32568 0.15182 0.35742 0.0
N808 N 0.34024 0.17642 0.3606 0.0
N809 N 0.35584 0.19686 0.36074 0.0
N810 N 0.35901 0.17821 0.34385 0.0
C811 C 0.34437 0.18959 0.36633 0.0
C812 C 0.36328 0.19127 0.34957 0.0
C813 C 0.34749 0.17072 0.34921 0.0
C814 C 0.33684 0.19616 0.3787 0.0
C815 C 0.33028 0.18752 0.38936 0.0
C816 C 0.32473 0.19401 0.40183 0.0
C817 C 0.32538 0.20924 0.40368 0.0
C818 C 0.33145 0.21784 0.39273 0.0
C819 C 0.33717 0.21138 0.38046 0.0
C820 C 0.37615 0.19921 0.3441 0.0
C821 C 0.38036 0.21276 0.35016 0.0
C822 C 0.39289 0.21998 0.34564 0.0
C823 C 0.40152 0.21385 0.33493 0.0
C824 C 0.39716 0.20048 0.32859 0.0
C825 C 0.38461 0.19323 0.33313 0.0
C826 C 0.34292 0.15657 0.34246 0.0
C827 C 0.35004 0.15136 0.33018 0.0
C828 C 0.30193 0.83822 0.39918 0.0
C829 C 0.30964 0.82773 0.40745 0.0
C830 C 0.32353 0.82354 0.40309 0.0
C831 C 0.32958 0.82965 0.3907 0.0
H832 H 0.35947 0.82091 0.36067 0.0
H833 H 0.38025 0.80875 0.35076 0.0
H834 H 0.38164 0.84067 0.31616 0.0
H835 H 0.36086 0.85317 0.32631 0.0
H836 H 0.32701 0.87396 0.32266 0.0
H837 H 0.31597 0.89652 0.31307 0.0
H838 H 0.30702 0.90997 0.35686 0.0
H839 H 0.31754 0.88735 0.36644 0.0
H840 H 0.30189 0.85259 0.38073 0.0
H841 H 0.29122 0.84167 0.40232 0.0
H842 H 0.32965 0.81534 0.40915 0.0
H843 H 0.34029 0.8261 0.38766 0.0
N844 N 0.33978 0.83999 0.36294 0.0
N845 N 0.34027 0.85814 0.34489 0.0
N846 N 0.32317 0.85917 0.36338 0.0
C847 C 0.34579 0.8456 0.35078 0.0
C848 C 0.32899 0.86501 0.35124 0.0
C849 C 0.32845 0.84663 0.36926 0.0
C850 C 0.35839 0.83809 0.34432 0.0
C851 C 0.36412 0.8254 0.35092 0.0
C852 C 0.37604 0.81831 0.34517 0.0
C853 C 0.38263 0.82364 0.3326 0.0
C854 C 0.37694 0.83633 0.32594 0.0
C855 C 0.36495 0.84346 0.33172 0.0
C856 C 0.3231 0.87887 0.34529 0.0
C857 C 0.32273 0.88176 0.33022 0.0
C858 C 0.31637 0.89459 0.32473 0.0
C859 C 0.31067 0.9049 0.33427 0.0
C860 C 0.31136 0.90218 0.34932 0.0
C861 C 0.31735 0.88922 0.35477 0.0
C862 C 0.32197 0.84023 0.38245 0.0
C863 C 0.30809 0.84451 0.38687 0.0
C864 C 0.6211 0.7081 0.19141 0.0
C865 C 0.61968 0.70353 0.20594 0.0
C866 C 0.63103 0.69549 0.21267 0.0
C867 C 0.6435 0.69205 0.20505 0.0
H868 H 0.67331 0.65692 0.19892 0.0
H869 H 0.68889 0.6366 0.20649 0.0
H870 H 0.72359 0.65403 0.18086 0.0
H871 H 0.7081 0.67433 0.17325 0.0
H872 H 0.70128 0.69939 0.1511 0.0
H873 H 0.70855 0.71363 0.13017 0.0
H874 H 0.66556 0.73239 0.12651 0.0
H875 H 0.65815 0.71805 0.14757 0.0
H876 H 0.63448 0.70868 0.17271 0.0
H877 H 0.61256 0.71439 0.18597 0.0
H878 H 0.6302 0.69174 0.22382 0.0
H879 H 0.65203 0.68585 0.2106 0.0
N880 N 0.66736 0.68244 0.18737 0.0
N881 N 0.68349 0.68768 0.16879 0.0
N882 N 0.66222 0.70145 0.17082 0.0
C883 C 0.67986 0.67946 0.18046 0.0
C884 C 0.67477 0.69867 0.16385 0.0
C885 C 0.65849 0.69343 0.18266 0.0
C886 C 0.68942 0.66728 0.18545 0.0
C887 C 0.68428 0.65647 0.19493 0.0
C888 C 0.69317 0.64477 0.1992 0.0
C889 C 0.70746 0.64371 0.19425 0.0
C890 C 0.71267 0.65461 0.18495 0.0
C891 C 0.70374 0.6662 0.18053 0.0
C892 C 0.6791 0.70753 0.15108 0.0
C893 C 0.69332 0.70652 0.14589 0.0
C894 C 0.69755 0.71478 0.13391 0.0
C895 C 0.68766 0.72419 0.1267 0.0
C896 C 0.67341 0.72517 0.13179 0.0
C897 C 0.6692 0.717 0.1439 0.0
C898 C 0.64504 0.69679 0.19057 0.0
C899 C 0.63369 0.70489 0.18385 0.0
C900 C 0.33915 0.63152 0.20568 0.0
C901 C 0.33131 0.6199 0.19901 0.0
C902 C 0.32687 0.62129 0.1842 0.0
C903 C 0.33028 0.63388 0.17628 0.0
H904 H 0.31315 0.66372 0.14334 0.0
H905 H 0.29965 0.67133 0.12118 0.0
H906 H 0.33523 0.70009 0.11045 0.0
H907 H 0.34872 0.6926 0.13258 0.0
H908 H 0.3738 0.70037 0.15837 0.0
H909 H 0.39303 0.71622 0.16916 0.0
H910 H 0.38679 0.6964 0.21122 0.0
H911 H 0.3678 0.68063 0.2006 0.0
H912 H 0.34879 0.65265 0.20329 0.0
H913 H 0.34248 0.63106 0.21712 0.0
H914 H 0.32099 0.61253 0.17859 0.0
H915 H 0.32683 0.63449 0.16487 0.0
N916 N 0.33582 0.66171 0.16144 0.0
N917 N 0.35081 0.6825 0.15924 0.0
N918 N 0.35334 0.66748 0.17985 0.0
C919 C 0.33986 0.67373 0.15375 0.0
C920 C 0.35758 0.67946 0.17232 0.0
C921 C 0.34258 0.65849 0.1745 0.0
C922 C 0.33202 0.67759 0.13981 0.0
C923 C 0.31817 0.67157 0.1362 0.0
C924 C 0.31039 0.67597 0.12353 0.0
C925 C 0.31638 0.6863 0.11406 0.0
C926 C 0.33038 0.692 0.11745 0.0
C927 C 0.33807 0.68777 0.1302 0.0
C928 C 0.36923 0.68921 0.17861 0.0
C929 C 0.37652 0.69943 0.16993 0.0
C930 C 0.38757 0.70846 0.17607 0.0
C931 C 0.39132 0.70762 0.19105 0.0
C932 C 0.384 0.69745 0.19968 0.0
C933 C 0.37317 0.68832 0.19355 0.0
C934 C 0.33836 0.64533 0.18292 0.0
C935 C 0.34269 0.644 0.19774 0.0
C936 C 0.34645 0.3008 0.13499 0.0
C937 C 0.33499 0.30783 0.12727 0.0
C938 C 0.32979 0.32104 0.13278 0.0
C939 C 0.33597 0.32716 0.14554 0.0
H940 H 0.32899 0.35867 0.17587 0.0
H941 H 0.31835 0.38088 0.18516 0.0
H942 H 0.35558 0.38662 0.21487 0.0
H943 H 0.36634 0.36442 0.20552 0.0
H944 H 0.39366 0.34032 0.20369 0.0
H945 H 0.41565 0.32917 0.21461 0.0
H946 H 0.40409 0.28837 0.19366 0.0
H947 H 0.38225 0.29945 0.18265 0.0
H948 H 0.36161 0.30132 0.15333 0.0
H949 H 0.35076 0.29066 0.13102 0.0
H950 H 0.32081 0.32663 0.12726 0.0
H951 H 0.33167 0.33737 0.14935 0.0
N952 N 0.34882 0.33952 0.17206 0.0
N953 N 0.36725 0.34008 0.19052 0.0
N954 N 0.36641 0.32116 0.17324 0.0
C955 C 0.3551 0.3461 0.18404 0.0
C956 C 0.37294 0.32755 0.1852 0.0
C957 C 0.3544 0.32709 0.16654 0.0
C958 C 0.3486 0.35967 0.18989 0.0
C959 C 0.33497 0.36463 0.18438 0.0
C960 C 0.32878 0.37736 0.18977 0.0
C961 C 0.33609 0.38559 0.20075 0.0
C962 C 0.34971 0.38066 0.20628 0.0
C963 C 0.35586 0.36785 0.20097 0.0
C964 C 0.38615 0.32082 0.19225 0.0
C965 C 0.39577 0.32897 0.20144 0.0
C966 C 0.40842 0.32261 0.20763 0.0
C967 C 0.41161 0.30788 0.205 0.0
C968 C 0.4019 0.2997 0.19599 0.0
C969 C 0.38941 0.3061 0.18961 0.0
C970 C 0.34759 0.32028 0.15318 0.0
C971 C 0.35271 0.30698 0.14776 0.0
C972 C 0.64125 0.3572 0.2166 0.0
C973 C 0.63487 0.34401 0.21179 0.0
C974 C 0.6401 0.33736 0.19921 0.0
C975 C 0.65154 0.34375 0.19168 0.0
H976 H 0.68117 0.3363 0.15969 0.0
H977 H 0.68989 0.32472 0.13794 0.0
H978 H 0.71328 0.36419 0.12713 0.0
H979 H 0.7049 0.37568 0.14927 0.0
H980 H 0.71009 0.39971 0.17676 0.0
H981 H 0.72038 0.42216 0.18747 0.0
H982 H 0.68853 0.42038 0.22101 0.0
H983 H 0.67845 0.39808 0.21063 0.0
H984 H 0.65724 0.37377 0.21318 0.0
H985 H 0.63734 0.36272 0.22612 0.0
H986 H 0.63549 0.32711 0.1953 0.0
H987 H 0.65536 0.3383 0.18208 0.0
N988 N 0.6755 0.3576 0.17664 0.0
N989 N 0.69247 0.37683 0.17464 0.0
N990 N 0.67609 0.37654 0.19368 0.0
C991 C 0.68665 0.36401 0.16951 0.0
C992 C 0.68721 0.38314 0.1868 0.0
C993 C 0.67014 0.36382 0.18873 0.0
C994 C 0.69227 0.35698 0.15626 0.0
C995 C 0.68818 0.34256 0.15271 0.0
C996 C 0.69312 0.33592 0.14014 0.0
C997 C 0.7022 0.34353 0.13064 0.0
C998 C 0.70643 0.35792 0.13425 0.0
C999 C 0.70156 0.36455 0.14693 0.0
C1000 C 0.69347 0.39698 0.19282 0.0
C1001 C 0.70529 0.40412 0.18641 0.0
C1002 C 0.71115 0.41701 0.19251 0.0
C1003 C 0.70534 0.42299 0.20517 0.0
C1004 C 0.69345 0.41593 0.21144 0.0
C1005 C 0.6876 0.40314 0.20537 0.0
C1006 C 0.65797 0.35693 0.19656 0.0
C1007 C 0.65265 0.36358 0.2091 0.0
C1008 C 0.63891 0.33536 0.83024 0.0
C1009 C 0.63454 0.33916 0.81588 0.0
C1010 C 0.64252 0.35005 0.80873 0.0
C1011 C 0.65482 0.35663 0.81563 0.0
H1012 H 0.68491 0.39373 0.81468 0.0
H1013 H 0.6994 0.41372 0.8046 0.0
H1014 H 0.73538 0.40289 0.83422 0.0
H1015 H 0.72116 0.38308 0.84415 0.0
H1016 H 0.71293 0.36939 0.87393 0.0
H1017 H 0.72286 0.35968 0.89677 0.0
H1018 H 0.69071 0.32495 0.89495 0.0
H1019 H 0.68074 0.3346 0.87182 0.0
H1020 H 0.65421 0.33846 0.8481 0.0
H1021 H 0.63288 0.32724 0.83621 0.0
H1022 H 0.63951 0.35319 0.79765 0.0
H1023 H 0.66087 0.36475 0.80969 0.0
N1024 N 0.68059 0.36965 0.83055 0.0
N1025 N 0.69782 0.36945 0.85009 0.0
N1026 N 0.67794 0.3533 0.85012 0.0
C1027 C 0.69311 0.37503 0.83707 0.0
C1028 C 0.69037 0.35865 0.85673 0.0
C1029 C 0.67293 0.35873 0.83704 0.0
C1030 C 0.70181 0.3868 0.83027 0.0
C1031 C 0.69595 0.39557 0.81895 0.0
C1032 C 0.70421 0.40706 0.81324 0.0
C1033 C 0.71856 0.40987 0.8186 0.0
C1034 C 0.72445 0.40093 0.82971 0.0
C1035 C 0.7162 0.3896 0.83549 0.0
C1036 C 0.69601 0.35278 0.87095 0.0
C1037 C 0.70789 0.35969 0.87834 0.0
C1038 C 0.71355 0.35418 0.89154 0.0
C1039 C 0.70755 0.34157 0.89772 0.0
C1040 C 0.69564 0.33464 0.89041 0.0
C1041 C 0.68989 0.34022 0.87719 0.0
C1042 C 0.65943 0.35246 0.82985 0.0
C1043 C 0.65117 0.34188 0.8371 0.0
C1044 C 0.64691 0.70814 0.82446 0.0
C1045 C 0.64 0.69937 0.81362 0.0
C1046 C 0.64608 0.68578 0.81049 0.0
C1047 C 0.65877 0.68111 0.81789 0.0
H1048 H 0.68736 0.64939 0.8166 0.0
H1049 H 0.69868 0.62876 0.8053 0.0
H1050 H 0.73842 0.63702 0.83089 0.0
H1051 H 0.72684 0.65762 0.84264 0.0
H1052 H 0.72302 0.68043 0.87116 0.0
H1053 H 0.7327 0.69283 0.89309 0.0
H1054 H 0.69595 0.72198 0.8912 0.0
H1055 H 0.68648 0.70991 0.86928 0.0
H1056 H 0.66468 0.71042 0.84024 0.0
H1057 H 0.64243 0.71863 0.8272 0.0
H1058 H 0.64116 0.67883 0.80209 0.0
H1059 H 0.6631 0.67058 0.81503 0.0
N1060 N 0.68644 0.67309 0.83076 0.0
N1061 N 0.70478 0.67499 0.84917 0.0
N1062 N 0.68529 0.69156 0.84823 0.0
C1063 C 0.69904 0.6681 0.83707 0.0
C1064 C 0.69791 0.68672 0.85487 0.0
C1065 C 0.67949 0.68476 0.83615 0.0
C1066 C 0.70618 0.65527 0.83055 0.0
C1067 C 0.69853 0.64689 0.81987 0.0
C1068 C 0.70508 0.63505 0.81326 0.0
C1069 C 0.71954 0.63124 0.81702 0.0
C1070 C 0.72721 0.63953 0.82779 0.0
C1071 C 0.72059 0.65139 0.83451 0.0
C1072 C 0.70396 0.69416 0.86831 0.0
C1073 C 0.71702 0.68951 0.87539 0.0
C1074 C 0.72254 0.69658 0.88805 0.0
C1075 C 0.71519 0.70851 0.89392 0.0
C1076 C 0.70211 0.71304 0.88688 0.0
C1077 C 0.6966 0.70601 0.87429 0.0
C1078 C 0.66575 0.68984 0.82871 0.0
C1079 C 0.6596 0.7034 0.83199 0.0
C1080 C 0.3513 0.63793 0.81173 0.0
C1081 C 0.33932 0.6312 0.81828 0.0
C1082 C 0.33437 0.63708 0.83134 0.0
C1083 C 0.34107 0.64948 0.83755 0.0
H1084 H 0.3376 0.67794 0.87175 0.0
H1085 H 0.32855 0.68839 0.8941 0.0
H1086 H 0.36038 0.72327 0.89187 0.0
H1087 H 0.3696 0.7128 0.86975 0.0
H1088 H 0.38265 0.71836 0.8372 0.0
H1089 H 0.40341 0.73132 0.82728 0.0
H1090 H 0.4195 0.69089 0.81034 0.0
H1091 H 0.39846 0.67782 0.8201 0.0
H1092 H 0.36715 0.65523 0.81251 0.0
H1093 H 0.35558 0.63356 0.80179 0.0
H1094 H 0.3251 0.63227 0.83662 0.0
H1095 H 0.3368 0.65375 0.84752 0.0
N1096 N 0.35432 0.67566 0.8496 0.0
N1097 N 0.37118 0.69492 0.84864 0.0
N1098 N 0.37101 0.67667 0.83073 0.0
C1099 C 0.36006 0.68818 0.85538 0.0
C1100 C 0.37675 0.68929 0.83638 0.0
C1101 C 0.35968 0.66983 0.83726 0.0
C1102 C 0.35435 0.69449 0.86891 0.0
C1103 C 0.34269 0.68782 0.87602 0.0
C1104 C 0.33745 0.69385 0.8888 0.0
C1105 C 0.34377 0.70664 0.89477 0.0
C1106 C 0.35541 0.71329 0.88767 0.0
C1107 C 0.36063 0.70731 0.8749 0.0
C1108 C 0.38893 0.69705 0.82945 0.0
C1109 C 0.39055 0.71221 0.83128 0.0
C1110 C 0.4024 0.71966 0.82556 0.0
C1111 C 0.41306 0.7121 0.8181 0.0
C1112 C 0.41145 0.69695 0.81614 0.0
C1113 C 0.39938 0.68951 0.82162 0.0
C1114 C 0.35293 0.65634 0.83088 0.0
C1115 C 0.35802 0.65033 0.81794 0.0
C1116 C 0.31856 0.33609 0.89289 0.0
C1117 C 0.32482 0.32786 0.9044 0.0
C1118 C 0.33979 0.32472 0.9043 0.0
C1119 C 0.3483 0.32956 0.89284 0.0
H1120 H 0.3805 0.31318 0.86375 0.0
H1121 H 0.40259 0.3002 0.85745 0.0
H1122 H 0.4167 0.33745 0.83267 0.0
H1123 H 0.39468 0.35043 0.83886 0.0
H1124 H 0.36718 0.36934 0.82469 0.0
H1125 H 0.36056 0.39084 0.81043 0.0
H1126 H 0.32748 0.40114 0.84103 0.0
H1127 H 0.3341 0.37961 0.85542 0.0
H1128 H 0.32199 0.34755 0.87289 0.0
H1129 H 0.30706 0.33872 0.89274 0.0
H1130 H 0.34488 0.31832 0.91299 0.0
H1131 H 0.35978 0.32687 0.89307 0.0
N1132 N 0.36372 0.33603 0.86623 0.0
N1133 N 0.36798 0.3525 0.84725 0.0
N1134 N 0.34713 0.35488 0.86113 0.0
C1135 C 0.37217 0.34066 0.85522 0.0
C1136 C 0.3555 0.35969 0.8501 0.0
C1137 C 0.35119 0.34307 0.86926 0.0
C1138 C 0.38577 0.33285 0.8518 0.0
C1139 C 0.38834 0.31864 0.85701 0.0
C1140 C 0.40095 0.31117 0.85335 0.0
C1141 C 0.41138 0.31781 0.84458 0.0
C1142 C 0.40893 0.33209 0.83956 0.0
C1143 C 0.39625 0.33949 0.84304 0.0
C1144 C 0.3512 0.37269 0.84127 0.0
C1145 C 0.35848 0.37614 0.82842 0.0
C1146 C 0.35463 0.38845 0.82017 0.0
C1147 C 0.34351 0.39772 0.82459 0.0
C1148 C 0.33621 0.39429 0.83741 0.0
C1149 C 0.33995 0.38189 0.84561 0.0
C1150 C 0.34209 0.33791 0.88137 0.0
C1151 C 0.32713 0.3412 0.88158 0.0
Cu1152 Cu 0.26223 0.25593 0.01717 0.0
N1153 N 0.26126 0.27237 1.00504 0.0
N1154 N 0.26735 0.28772 0.98723 0.0
C1155 C 0.2695 0.27448 0.99333 0.0
C1156 C 0.2573 0.29419 0.99539 0.0
C1157 C 0.25349 0.28465 1.00632 0.0
O1158 O 0.26517 0.23969 1.00384 0.0
C1159 C 0.27535 0.27043 0.04021 0.0
O1160 O 0.26315 0.27764 0.03798 0.0
H1161 H 0.27731 0.26662 0.98966 0.0
H1162 H 0.24581 0.28665 0.01475 0.0
N1163 N 0.24486 0.25298 0.02701 0.0
N1164 N 0.22979 0.24546 0.04424 0.0
C1165 C 0.24382 0.24725 0.04049 0.0
C1166 C 0.23104 0.25496 0.02205 0.0
C1167 C 0.22171 0.25032 0.03265 0.0
C1168 C 0.258 0.22773 1.0042 0.0
O1169 O 0.25025 0.22478 0.01562 0.0
H1170 H 0.2532 0.24397 0.04717 0.0
H1171 H 0.22797 0.25921 0.01137 0.0
O1172 O 0.27774 0.25955 0.032 0.0
H1173 H 0.25306 0.30505 0.9936 0.0
H1174 H 0.2099 0.25047 0.03183 0.0
Cu1175 Cu 0.76632 0.28041 0.01127 0.0
N1176 N 0.74925 0.28367 0.02298 0.0
N1177 N 0.73516 0.29227 0.0403 0.0
C1178 C 0.74873 0.29195 0.03507 0.0
C1179 C 0.72685 0.2839 0.03109 0.0
C1180 C 0.7356 0.27859 0.02041 0.0
O1181 O 0.77639 0.2702 0.02856 0.0
C1182 C 0.75907 0.30217 0.98878 0.0
O1183 O 0.76982 0.30964 0.99513 0.0
H1184 H 0.75804 0.29785 0.03974 0.0
H1185 H 0.73225 0.2716 0.01137 0.0
N1186 N 0.78357 0.27754 0.99967 0.0
N1187 N 0.79813 0.27127 0.98172 0.0
C1188 C 0.78457 0.27015 0.98705 0.0
C1189 C 0.79682 0.28352 1.00242 0.0
C1190 C 0.80583 0.27964 0.99143 0.0
C1191 C 0.78427 0.27682 0.03819 0.0
O1192 O 0.78641 0.29095 0.037 0.0
H1193 H 0.77547 0.26446 0.98172 0.0
H1194 H 0.79968 0.29041 0.01166 0.0
O1195 O 0.75572 0.2897 0.99377 0.0
H1196 H 0.71531 0.28167 0.03208 0.0
H1197 H 0.8172 0.28274 0.99071 0.0
Cu1198 Cu 0.75545 0.78099 0.00806 0.0
N1199 N 0.75737 0.79778 0.99663 0.0
N1200 N 0.76488 0.81182 0.9783 0.0
C1201 C 0.76393 0.79816 0.98373 0.0
C1202 C 0.7585 0.82037 0.98819 0.0
C1203 C 0.75393 0.81168 0.99951 0.0
O1204 O 0.7533 0.76475 0.99415 0.0
C1205 C 0.78232 0.78925 0.02306 0.0
O1206 O 0.78448 0.79748 0.01159 0.0
H1207 H 0.76814 0.78854 0.97857 0.0
H1208 H 0.74888 0.81529 0.00933 0.0
N1209 N 0.73875 0.78145 0.0192 0.0
N1210 N 0.72398 0.77572 0.03735 0.0
C1211 C 0.73654 0.77269 0.03072 0.0
C1212 C 0.72719 0.79037 0.0184 0.0
C1213 C 0.71804 0.78685 0.02956 0.0
C1214 C 0.74195 0.76576 0.9857 0.0
O1215 O 0.73311 0.77672 0.9877 0.0
H1216 H 0.74411 0.76427 0.03412 0.0
H1217 H 0.7256 0.79894 0.01041 0.0
O1218 O 0.77162 0.78024 0.02272 0.0
H1219 H 0.75767 0.83211 0.98759 0.0
H1220 H 0.708 0.79233 0.03192 0.0
Cu1221 Cu 0.26886 0.76129 0.00775 0.0
N1222 N 0.26671 0.77802 0.01901 0.0
N1223 N 0.25719 0.79261 0.03558 0.0
C1224 C 0.25642 0.77949 0.02896 0.0
C1225 C 0.26843 0.7997 0.02948 0.0
C1226 C 0.27427 0.79066 0.01921 0.0
O1227 O 0.26765 0.74446 0.02079 0.0
C1228 C 0.2565 0.77389 0.98368 0.0
O1229 O 0.268 0.78213 0.98678 0.0
H1230 H 0.24875 0.7709 0.03148 0.0
H1231 H 0.28331 0.79317 0.01236 0.0
N1232 N 0.28706 0.76044 0.99946 0.0
N1233 N 0.30378 0.75339 0.9839 0.0
C1234 C 0.28964 0.75267 0.98743 0.0
C1235 C 0.30001 0.76628 1.00381 0.0
C1236 C 0.31037 0.76201 0.99414 0.0
C1237 C 0.27503 0.74582 0.0328 0.0
O1238 O 0.28238 0.75796 0.03536 0.0
H1239 H 0.28121 0.74668 0.98136 0.0
H1240 H 0.30185 0.77297 0.01342 0.0
O1241 O 0.25429 0.76276 0.99169 0.0
H1242 H 0.27211 0.81065 0.03211 0.0
H1243 H 0.32189 0.76477 0.99478 0.0
Cu1244 Cu 0.00797 0.25629 0.28014 0.0
N1245 N 0.01854 0.23916 0.278 0.0
N1246 N 0.03607 0.22476 0.26995 0.0
C1247 C 0.03128 0.23854 0.27121 0.0
C1248 C 0.026 0.21636 0.27645 0.0
C1249 C 0.01514 0.22529 0.28136 0.0
O1250 O 0.02247 0.27174 0.28398 0.0
C1251 C 0.99536 0.25132 0.25149 0.0
O1252 O 1.00721 0.24391 0.24906 0.0
H1253 H 0.03674 0.24808 0.26697 0.0
H1254 H 1.00528 0.22188 0.28659 0.0
N1255 N 0.99557 0.25545 0.29586 0.0
N1256 N 0.97683 0.26161 0.30944 0.0
C1257 C 0.98364 0.26378 0.29682 0.0
C1258 C 0.9963 0.24759 0.30827 0.0
C1259 C 0.98478 0.25146 0.31675 0.0
C1260 C 0.03021 0.26953 0.29561 0.0
O1261 O 0.02735 0.2579 0.30342 0.0
H1262 H 0.98025 0.27159 0.28854 0.0
H1263 H 1.00469 0.23975 0.31105 0.0
O1264 O 0.99471 0.25875 0.26318 0.0
H1265 H 0.02614 0.20458 0.27708 0.0
H1266 H 0.98241 0.24713 0.3274 0.0
Cu1267 Cu 0.76008 0.01313 0.2462 0.0
N1268 N 0.75945 0.02755 0.23176 0.0
N1269 N 0.76673 0.04725 0.21939 0.0
C1270 C 0.77083 0.03611 0.22824 0.0
C1271 C 0.75218 0.04544 0.21708 0.0
C1272 C 0.74772 0.03334 0.22477 0.0
O1273 O 0.75832 0.02313 0.26475 0.0
C1274 C 0.77986 0.98954 0.2501 0.0
O1275 O 0.77256 0.98655 0.26181 0.0
H1276 H 0.78183 0.03446 0.23258 0.0
H1277 H 0.73661 0.02951 0.22584 0.0
N1278 N 0.74417 1.00028 0.24464 0.0
N1279 N 0.72955 0.98187 0.25116 0.0
C1280 C 0.73955 0.99195 0.2557 0.0
C1281 C 0.73675 0.99545 0.23265 0.0
C1282 C 0.72766 0.98414 0.23665 0.0
C1283 C 0.7653 0.0347 0.2684 0.0
O1284 O 0.77679 0.03859 0.26112 0.0
H1285 H 0.74389 0.99297 0.26678 0.0
H1286 H 0.7384 0.99935 0.22169 0.0
O1287 O 0.77727 1.00135 0.24321 0.0
H1288 H 0.74511 0.0528 0.21097 0.0
H1289 H 0.72084 0.97758 0.22929 0.0
Cu1290 Cu 0.01696 0.76319 0.26316 0.0
N1291 N 1.0059 0.78025 0.26409 0.0
N1292 N 0.98776 0.7953 0.25737 0.0
C1293 C 0.99474 0.78279 0.25452 0.0
C1294 C 0.99486 0.80087 0.26931 0.0
C1295 C 1.00608 0.79156 0.27344 0.0
O1296 O 1.00205 0.74778 0.26269 0.0
C1297 C 0.03756 0.77717 0.24849 0.0
O1298 O 0.03605 0.78481 0.26044 0.0
H1299 H 0.99158 0.77527 0.24587 0.0
H1300 H 0.01371 0.79291 0.28262 0.0
N1301 N 0.02981 0.75968 0.27915 0.0
N1302 N 0.04862 0.74938 0.2914 0.0
C1303 C 0.04124 0.75062 0.27846 0.0
C1304 C 0.02996 0.76445 0.29304 0.0
C1305 C 0.04153 0.75805 0.30064 0.0
C1306 C 0.99426 0.74874 0.27391 0.0
O1307 O 0.99818 0.75823 0.28406 0.0
H1308 H 0.04386 0.74478 0.26866 0.0
H1309 H 0.02214 0.77188 0.2974 0.0
O1310 O 0.02956 0.76581 0.24658 0.0
H1311 H 0.99221 0.81095 0.27468 0.0
H1312 H 0.04452 0.75971 0.31205 0.0
Cu1313 Cu 0.2687 0.01132 0.26329 0.0
N1314 N 0.2864 0.02119 0.26674 0.0
N1315 N 0.30184 0.03838 0.27543 0.0
C1316 C 0.2878 0.0348 0.27211 0.0
C1317 C 0.30962 0.02654 0.27189 0.0
C1318 C 0.30005 0.01595 0.26652 0.0
O1319 O 0.25403 0.02545 0.25734 0.0
C1320 C 0.27183 0.99885 0.29184 0.0
O1321 O 0.28019 0.01013 0.29527 0.0
H1322 H 0.2786 0.04164 0.27435 0.0
H1323 H 0.30277 1.00501 0.26327 0.0
N1324 N 0.26949 0.99813 0.24797 0.0
N1325 N 0.26234 0.97894 0.23442 0.0
C1326 C 0.25969 0.98725 0.24613 0.0
C1327 C 0.27881 0.99675 0.23706 0.0
C1328 C 0.27443 0.98484 0.22868 0.0
C1329 C 0.2481 0.03497 0.2652 0.0
O1330 O 0.25063 0.03489 0.27939 0.0
H1331 H 0.25091 0.98537 0.25349 0.0
H1332 H 0.28808 1.00385 0.23535 0.0
O1333 O 0.26445 0.99886 0.27981 0.0
H1334 H 0.32132 0.02547 0.27338 0.0
H1335 H 0.27966 0.98096 0.21905 0.0
Cu1336 Cu 0.0127 0.76413 0.75535 0.0
N1337 N 0.021 0.74591 0.75212 0.0
N1338 N 0.03701 0.72947 0.74472 0.0
C1339 C 0.03442 0.74373 0.74706 0.0
C1340 C 0.02471 0.72241 0.7485 0.0
C1341 C 0.01487 0.73259 0.7531 0.0
O1342 O 0.02874 0.77767 0.76038 0.0
C1343 C 0.99983 0.76256 0.72645 0.0
O1344 O 0.01035 0.75342 0.7238 0.0
H1345 H 0.0419 0.75252 0.74459 0.0
H1346 H 1.00389 0.73047 0.75657 0.0
N1347 N 1.00012 0.76346 0.77095 0.0
N1348 N 0.9815 0.76957 0.78472 0.0
C1349 C 0.98834 0.77198 0.77215 0.0
C1350 C 1.0007 0.75525 0.78314 0.0
C1351 C 0.98926 0.75908 0.79172 0.0
C1352 C 0.03679 0.77361 0.77126 0.0
O1353 O 0.0334 0.76139 0.77786 0.0
H1354 H 0.98505 0.78003 0.76407 0.0
H1355 H 0.00889 0.74712 0.78565 0.0
O1356 O 1.00013 0.76942 0.73854 0.0
H1357 H 0.02291 0.71075 0.74789 0.0
H1358 H 0.98678 0.75444 0.80222 0.0
Cu1359 Cu 0.27314 0.01337 0.76835 0.0
N1360 N 0.29032 0.02451 0.76828 0.0
N1361 N 0.30542 0.04262 0.76206 0.0
C1362 C 0.29168 0.03717 0.761 0.0
C1363 C 0.31296 0.03302 0.77055 0.0
C1364 C 0.3036 0.02184 0.77435 0.0
O1365 O 0.25749 0.02779 0.76815 0.0
C1366 C 0.28219 0.99936 0.7422 0.0
O1367 O 0.29059 0.0109 0.74071 0.0
H1368 H 0.28272 0.04217 0.7549 0.0
H1369 H 0.30635 0.0123 0.7808 0.0
N1370 N 0.27213 1.00223 0.78535 0.0
N1371 N 0.26479 0.98413 0.79979 0.0
C1372 C 0.26634 0.98871 0.78594 0.0
C1373 C 0.27449 1.00636 0.79932 0.0
C1374 C 0.26993 0.9952 0.80828 0.0
C1375 C 0.24657 0.02706 0.77637 0.0
O1376 O 0.24382 0.01477 0.78314 0.0
H1377 H 0.26243 0.98274 0.77637 0.0
H1378 H 0.27854 0.01698 0.80273 0.0
O1379 O 0.273 0.99917 0.75232 0.0
H1380 H 0.32449 0.03377 0.77344 0.0
H1381 H 0.27001 0.99539 0.82008 0.0
Cu1382 Cu 0.02674 0.27889 0.77661 0.0
N1383 N 0.01559 0.29592 0.77718 0.0
N1384 N 0.99752 0.3111 0.77062 0.0
C1385 C 1.0028 0.29747 0.76965 0.0
C1386 C 0.00737 0.31846 0.77916 0.0
C1387 C 0.01848 0.30903 0.78327 0.0
O1388 O 0.01238 0.263 0.77632 0.0
C1389 C 0.04924 0.29085 0.76267 0.0
O1390 O 0.04852 0.2984 0.77478 0.0
H1391 H 0.99775 0.28888 0.76306 0.0
H1392 H 0.02813 0.3117 0.7899 0.0
N1393 N 0.03929 0.27593 0.79301 0.0
N1394 N 0.05773 0.26612 0.80632 0.0
C1395 C 0.04992 0.26588 0.79352 0.0
C1396 C 0.04035 0.28286 0.80593 0.0
C1397 C 0.0517 0.27683 0.81416 0.0
C1398 C 1.0055 0.26268 0.78818 0.0
O1399 O 0.00924 0.27218 0.79838 0.0
H1400 H 0.05204 0.25877 0.78445 0.0
H1401 H 0.03339 0.29167 0.80913 0.0
O1402 O 0.0397 0.28083 0.76021 0.0
H1403 H 1.00667 0.32985 0.7821 0.0
H1404 H 0.05512 0.28006 0.82511 0.0
Cu1405 Cu 0.7627 0.02335 0.76501 0.0
N1406 N 0.76382 0.03606 0.78092 0.0
N1407 N 0.77154 0.05517 0.79423 0.0
C1408 C 0.77177 0.04845 0.78118 0.0
C1409 C 0.76305 0.04668 0.80254 0.0
C1410 C 0.75824 0.03491 0.79426 0.0
O1411 O 0.76067 0.03568 0.74769 0.0
C1412 C 0.78022 1.00329 0.77828 0.0
O1413 O 0.76993 1.00523 0.78767 0.0
H1414 H 0.77802 0.05218 0.77208 0.0
H1415 H 0.75148 0.02598 0.79787 0.0
N1416 N 0.74637 0.01105 0.7652 0.0
N1417 N 0.73184 0.99234 0.75852 0.0
C1418 C 0.74481 0.9991 0.75682 0.0
C1419 C 0.73398 0.01195 0.77258 0.0
C1420 C 0.72499 1.00039 0.76848 0.0
C1421 C 0.74888 0.04296 0.74738 0.0
O1422 O 0.73994 0.04128 0.75815 0.0
H1423 H 0.75314 0.99546 0.74963 0.0
H1424 H 0.7315 0.02055 0.78012 0.0
O1425 O 0.77963 0.01057 0.76641 0.0
H1426 H 0.76058 0.04878 0.8138 0.0
H1427 H 0.71412 0.99833 0.77228 0.0
Cu1428 Cu 0.2635 0.74487 0.50718 0.0
N1429 N 0.27848 0.74768 0.52134 0.0
N1430 N 0.29058 0.75855 0.54007 0.0
C1431 C 0.27809 0.75795 0.5318 0.0
C1432 C 0.29917 0.74817 0.53455 0.0
C1433 C 0.29169 0.74151 0.52299 0.0
O1434 O 0.24564 0.74282 0.51796 0.0
C1435 C 0.27675 0.76193 0.48756 0.0
O1436 O 0.28641 0.75178 0.49068 0.0
H1437 H 0.26896 0.7652 0.53291 0.0
H1438 H 0.29581 0.7331 0.51605 0.0
N1439 N 0.26551 0.72806 0.49576 0.0
N1440 N 0.26109 0.71254 0.47721 0.0
C1441 C 0.25823 0.72575 0.48294 0.0
C1442 C 0.27332 0.71591 0.49829 0.0
C1443 C 0.27064 0.70634 0.48687 0.0
C1444 C 0.24545 0.7313 0.52575 0.0
O1445 O 0.25661 0.72247 0.52538 0.0
H1446 H 0.25094 0.73368 0.47797 0.0
H1447 H 0.28014 0.71391 0.50793 0.0
O1448 O 0.26457 0.76136 0.49384 0.0
H1449 H 0.31014 0.74563 0.53845 0.0
H1450 H 0.27504 0.69548 0.48602 0.0
Cu1451 Cu 0.76264 0.7813 0.50251 0.0
N1452 N 0.78017 0.78176 0.49264 0.0
N1453 N 0.79593 0.77576 0.47559 0.0
C1454 C 0.78199 0.77499 0.47983 0.0
C1455 C 0.80314 0.78359 0.4861 0.0
C1456 C 0.79338 0.78724 0.49664 0.0
O1457 O 0.74701 0.78287 0.48732 0.0
C1458 C 0.77193 0.75397 0.51483 0.0
O1459 O 0.77969 0.75266 0.50316 0.0
H1460 H 0.77324 0.76928 0.47394 0.0
H1461 H 0.79583 0.79305 0.50671 0.0
N1462 N 0.76095 0.79693 0.5154 0.0
N1463 N 0.75317 0.8091 0.53473 0.0
C1464 C 0.75318 0.79625 0.52758 0.0
C1465 C 0.76618 0.81068 0.51486 0.0
C1466 C 0.7613 0.81825 0.52675 0.0
C1467 C 0.74835 0.7942 0.47933 0.0
O1468 O 0.75921 0.80323 0.48248 0.0
H1469 H 0.74735 0.78657 0.53094 0.0
H1470 H 0.77296 0.81493 0.5064 0.0
O1471 O 0.76263 0.7642 0.51538 0.0
H1472 H 0.81473 0.78598 0.48647 0.0
H1473 H 0.76364 0.82956 0.52937 0.0
Cu1474 Cu 0.77159 0.26338 0.51152 0.0
N1475 N 0.77113 0.24647 0.49995 0.0
N1476 N 0.76418 0.23167 0.48149 0.0
C1477 C 0.76207 0.24455 0.4882 0.0
C1478 C 0.77505 0.22523 0.48942 0.0
C1479 C 0.7793 0.23437 0.50079 0.0
O1480 O 0.7695 0.27954 0.49771 0.0
C1481 C 0.7597 0.25025 0.53466 0.0
O1482 O 0.77144 0.24263 0.53229 0.0
H1483 H 0.75432 0.25269 0.48447 0.0
H1484 H 0.78777 0.23233 0.50904 0.0
N1485 N 0.78926 0.26632 0.52213 0.0
N1486 N 0.80453 0.2753 0.5396 0.0
C1487 C 0.79073 0.27509 0.53387 0.0
C1488 C 0.80259 0.26075 0.52028 0.0
C1489 C 0.81203 0.26625 0.53106 0.0
C1490 C 0.77909 0.279 0.48798 0.0
O1491 O 0.789 0.26875 0.48896 0.0
H1492 H 0.78172 0.28102 0.53822 0.0
H1493 H 0.8053 0.2533 0.51168 0.0
O1494 O 0.75673 0.2609 0.52613 0.0
H1495 H 0.77957 0.21463 0.48726 0.0
H1496 H 0.82355 0.26392 0.53235 0.0
Cu1497 Cu 0.27188 0.27487 0.52437 0.0
N1498 N 0.2713 0.2927 0.53424 0.0
N1499 N 0.26374 0.3088 0.55058 0.0
C1500 C 0.26179 0.29541 0.5447 0.0
C1501 C 0.27502 0.31475 0.5435 0.0
C1502 C 0.27966 0.30479 0.5334 0.0
O1503 O 0.27311 0.25992 0.53962 0.0
C1504 C 0.25638 0.28503 0.50119 0.0
O1505 O 0.2673 0.2943 0.50311 0.0
H1506 H 0.25383 0.28746 0.54816 0.0
H1507 H 0.28851 0.30624 0.52604 0.0
N1508 N 0.28817 0.27267 0.51287 0.0
N1509 N 0.30083 0.26402 0.49444 0.0
C1510 C 0.28783 0.2643 0.50083 0.0
C1511 C 0.30192 0.27792 0.51422 0.0
C1512 C 0.3098 0.27253 0.50286 0.0
C1513 C 0.28382 0.26242 0.5486 0.0
O1514 O 0.29231 0.27371 0.54618 0.0
H1515 H 0.27821 0.25832 0.49699 0.0
H1516 H 0.30597 0.28507 0.52285 0.0
O1517 O 0.25526 0.27459 0.51033 0.0
H1518 H 0.27957 0.32554 0.54541 0.0
H1519 H 0.32116 0.27481 0.50087 0.0
Cu1520 Cu 0.78812 0.5278 0.75946 0.0
N1521 N 0.80367 0.54121 0.75942 0.0
N1522 N 0.81587 0.56104 0.75219 0.0
C1523 C 0.80308 0.55364 0.75161 0.0
C1524 C 0.82492 0.55294 0.76079 0.0
C1525 C 0.81734 0.54074 0.76531 0.0
O1526 O 0.77089 0.53987 0.76185 0.0
C1527 C 0.80109 0.50917 0.74119 0.0
O1528 O 0.81112 0.5116 0.75151 0.0
H1529 H 0.79355 0.55687 0.74512 0.0
H1530 H 0.82166 0.53196 0.77199 0.0
N1531 N 0.78865 0.51419 0.77469 0.0
N1532 N 0.78062 0.49521 0.78763 0.0
C1533 C 0.77857 0.50351 0.77558 0.0
C1534 C 0.79755 0.51263 0.78658 0.0
C1535 C 0.79262 0.5009 0.79458 0.0
C1536 C 0.76952 0.54448 0.77487 0.0
O1537 O 0.77896 0.54025 0.78509 0.0
H1538 H 0.7699 0.50191 0.76739 0.0
H1539 H 0.80674 0.51967 0.78941 0.0
O1540 O 0.78897 0.51583 0.74185 0.0
H1541 H 0.83623 0.55557 0.76351 0.0
H1542 H 0.79733 0.49711 0.80487 0.0
Cu1543 Cu 0.28488 0.51758 0.75601 0.0
N1544 N 0.30112 0.50529 0.75712 0.0
N1545 N 0.31491 0.48682 0.76549 0.0
C1546 C 0.30263 0.49459 0.7671 0.0
C1547 C 0.3214 0.49296 0.75394 0.0
C1548 C 0.31286 0.50434 0.74879 0.0
O1549 O 0.26804 0.50468 0.75853 0.0
C1550 C 0.29975 0.54075 0.76724 0.0
O1551 O 0.30703 0.53711 0.75573 0.0
H1552 H 0.29454 0.49237 0.77512 0.0
H1553 H 0.315 0.51134 0.73959 0.0
N1554 N 0.28201 0.52697 0.738 0.0
N1555 N 0.27277 0.54335 0.7222 0.0
C1556 C 0.27444 0.53941 0.73633 0.0
C1557 C 0.28536 0.52291 0.72442 0.0
C1558 C 0.27959 0.53298 0.71463 0.0
C1559 C 0.26801 0.49407 0.74953 0.0
O1560 O 0.27824 0.4937 0.73987 0.0
H1561 H 0.26977 0.54516 0.74532 0.0
H1562 H 0.29125 0.51316 0.7218 0.0
O1563 O 0.28855 0.5331 0.77028 0.0
H1564 H 0.3316 0.48955 0.7495 0.0
H1565 H 0.28027 0.53265 0.70287 0.0
Cu1566 Cu 0.28042 0.49538 0.26399 0.0
N1567 N 0.27965 0.48465 0.28138 0.0
N1568 N 0.27155 0.46769 0.29672 0.0
C1569 C 0.27117 0.47272 0.28289 0.0
C1570 C 0.28069 0.4768 0.30425 0.0
C1571 C 0.28575 0.48723 0.29472 0.0
O1572 O 0.28416 0.48092 0.24876 0.0
C1573 C 0.26145 0.51517 0.27388 0.0
O1574 O 0.27202 0.51494 0.28393 0.0
H1575 H 0.26441 0.46815 0.27407 0.0
H1576 H 0.29299 0.49627 0.29744 0.0
N1577 N 0.29559 0.50922 0.26385 0.0
N1578 N 0.30776 0.52909 0.25668 0.0
C1579 C 0.2953 0.52118 0.2553 0.0
C1580 C 0.30869 0.50959 0.27099 0.0
C1581 C 0.31626 0.52182 0.26652 0.0
C1582 C 0.29598 0.47396 0.25144 0.0
O1583 O 0.30372 0.47737 0.2633 0.0
H1584 H 0.28622 0.5238 0.24792 0.0
H1585 H 0.31256 0.50149 0.27873 0.0
O1586 O 0.26244 0.50689 0.26276 0.0
H1587 H 0.28342 0.47605 0.31581 0.0
H1588 H 0.32714 0.52512 0.27025 0.0
Cu1589 Cu 0.77486 0.52917 0.25928 0.0
N1590 N 0.79218 0.51891 0.26237 0.0
N1591 N 0.8068 0.50129 0.27101 0.0
C1592 C 0.79294 0.5052 0.26758 0.0
C1593 C 0.81511 0.51299 0.26772 0.0
C1594 C 0.80605 0.52386 0.26235 0.0
O1595 O 0.75941 0.51458 0.25753 0.0
C1596 C 0.77958 0.54228 0.28732 0.0
O1597 O 0.78643 0.53021 0.29088 0.0
H1598 H 0.78341 0.4986 0.26973 0.0
H1599 H 0.80924 0.5348 0.25935 0.0
N1600 N 0.775 0.54015 0.24214 0.0
N1601 N 0.76817 0.55784 0.22662 0.0
C1602 C 0.76919 0.55352 0.24069 0.0
C1603 C 0.77793 0.53586 0.22854 0.0
C1604 C 0.77369 0.54676 0.21891 0.0
C1605 C 0.74848 0.51559 0.24863 0.0
O1606 O 0.74601 0.52799 0.24185 0.0
H1607 H 0.76474 0.55947 0.24967 0.0
H1608 H 0.78202 0.52523 0.22576 0.0
O1609 O 0.77282 0.54313 0.27498 0.0
H1610 H 0.82684 0.51379 0.26945 0.0
H1611 H 0.77412 0.54633 0.20714 0.0
Cu1612 Cu 0.52486 0.2632 0.77179 0.0
N1613 N 0.51656 0.26367 0.79015 0.0
N1614 N 0.50042 0.26925 0.80693 0.0
C1615 C 0.50352 0.26961 0.79267 0.0
C1616 C 0.51202 0.26287 0.81371 0.0
C1617 C 0.52196 0.25937 0.80329 0.0
O1618 O 0.5084 0.26246 0.75753 0.0
C1619 C 0.55012 0.27826 0.77858 0.0
O1620 O 0.55193 0.26621 0.78616 0.0
H1621 H 0.49661 0.27448 0.7842 0.0
H1622 H 0.53242 0.25422 0.8052 0.0
N1623 N 0.53597 0.24645 0.76892 0.0
N1624 N 0.55303 0.23229 0.75962 0.0
C1625 C 0.54696 0.24563 0.75961 0.0
C1626 C 0.53506 0.23315 0.77509 0.0
C1627 C 0.54553 0.22435 0.76927 0.0
C1628 C 0.4998 0.25171 0.75977 0.0
O1629 O 0.50318 0.24273 0.77051 0.0
H1630 H 0.5504 0.25466 0.7529 0.0
H1631 H 0.52738 0.2301 0.78326 0.0
O1632 O 0.53834 0.27989 0.77092 0.0
H1633 H 0.51321 0.26085 0.82532 0.0
H1634 H 0.54765 0.21309 0.77212 0.0
Cu1635 Cu 0.51744 0.76003 0.75141 0.0
N1636 N 0.52963 0.7438 0.7503 0.0
N1637 N 0.54899 0.73013 0.75673 0.0
C1638 C 0.54392 0.74374 0.75435 0.0
C1639 C 0.53747 0.72121 0.75372 0.0
C1640 C 0.52554 0.72966 0.7499 0.0
O1641 O 0.52915 0.77742 0.74837 0.0
C1642 C 0.49731 0.76544 0.77396 0.0
O1643 O 0.494 0.77758 0.76705 0.0
H1644 H 0.55027 0.75351 0.75643 0.0
H1645 H 0.51441 0.72582 0.74834 0.0
N1646 N 0.50245 0.76013 0.73701 0.0
N1647 N 0.4825 0.76827 0.72484 0.0
C1648 C 0.49382 0.77166 0.73409 0.0
C1649 C 0.49656 0.74906 0.72913 0.0
C1650 C 0.48427 0.75405 0.72158 0.0
C1651 C 0.53978 0.782 0.75645 0.0
O1652 O 0.54214 0.77617 0.76941 0.0
H1653 H 0.49565 0.78227 0.73901 0.0
H1654 H 0.5005 0.738 0.72931 0.0
O1655 O 0.50809 0.75801 0.76995 0.0
H1656 H 0.53731 0.70954 0.75544 0.0
H1657 H 0.47684 0.7475 0.71483 0.0
Cu1658 Cu 0.4989 0.76147 0.26502 0.0
N1659 N 0.48853 0.76358 0.28215 0.0
N1660 N 0.47116 0.77137 0.29677 0.0
C1661 C 0.47604 0.7711 0.28304 0.0
C1662 C 0.48096 0.76353 0.3048 0.0
C1663 C 0.49168 0.75877 0.29575 0.0
O1664 O 0.48435 0.75878 0.24908 0.0
C1665 C 0.51274 0.7889 0.27167 0.0
O1666 O 0.50142 0.79147 0.27961 0.0
H1667 H 0.47071 0.77635 0.27374 0.0
H1668 H 0.50119 0.75245 0.29889 0.0
N1669 N 0.51103 0.74516 0.26538 0.0
N1670 N 0.52982 0.73132 0.25924 0.0
C1671 C 0.52375 0.74465 0.2585 0.0
C1672 C 0.509 0.73167 0.27081 0.0
C1673 C 0.52056 0.72308 0.26695 0.0
C1674 C 0.47513 0.74865 0.25156 0.0
O1675 O 0.47664 0.74129 0.26381 0.0
H1676 H 0.52818 0.75378 0.25254 0.0
H1677 H 0.49966 0.72824 0.27686 0.0
O1678 O 0.51252 0.77782 0.26329 0.0
H1679 H 0.48063 0.76168 0.31644 0.0
H1680 H 0.522 0.71165 0.26954 0.0
Cu1681 Cu 0.52552 0.26561 0.27462 0.0
N1682 N 0.51518 0.26395 0.29168 0.0
N1683 N 0.49708 0.25828 0.30645 0.0
C1684 C 0.50078 0.2613 0.29263 0.0
C1685 C 0.50969 0.2592 0.31451 0.0
C1686 C 0.52082 0.26259 0.30536 0.0
O1687 O 0.51157 0.26986 0.25859 0.0
C1688 C 0.5491 0.2469 0.26698 0.0
O1689 O 0.5525 0.25711 0.25762 0.0
H1690 H 0.49333 0.26067 0.28324 0.0
H1691 H 0.53233 0.26321 0.30835 0.0
N1692 N 0.53833 0.28153 0.27598 0.0
N1693 N 0.55507 0.29778 0.26913 0.0
C1694 C 0.54519 0.28757 0.26471 0.0
C1695 C 0.54378 0.28841 0.28797 0.0
C1696 C 0.55412 0.29845 0.28377 0.0
C1697 C 0.50133 0.26167 0.25347 0.0
O1698 O 0.50061 0.248 0.25771 0.0
H1699 H 0.54322 0.28419 0.2535 0.0
H1700 H 0.54087 0.286 0.29902 0.0
O1701 O 0.53722 0.2479 0.27371 0.0
H1702 H 0.51092 0.25707 0.32609 0.0
H1703 H 0.5609 0.30516 0.29102 0.0
H1704 H 0.17832 0.21251 0.11536 0.0
H1705 H 0.22261 0.2002 0.12702 0.0
H1706 H 0.18676 0.22437 0.09342 0.0
H1707 H 0.23094 0.21135 0.10466 0.0
H1708 H 0.24354 0.24542 0.07096 0.0
H1709 H 0.23502 0.23428 0.09329 0.0
H1710 H 0.19582 0.21945 0.07 0.0
H1711 H 0.20427 0.23082 0.04778 0.0
C1712 C 0.18987 0.21232 0.11328 0.0
C1713 C 0.19976 0.20538 0.12306 0.0
C1714 C 0.1947 0.21898 0.10055 0.0
C1715 C 0.20956 0.21884 0.09717 0.0
C1716 C 0.21944 0.21187 0.10693 0.0
C1717 C 0.21462 0.20526 0.1197 0.0
C1718 C 0.23313 0.23973 0.07059 0.0
C1719 C 0.22461 0.23903 0.05754 0.0
C1720 C 0.22824 0.23329 0.08341 0.0
C1721 C 0.21471 0.22589 0.08352 0.0
C1722 C 0.20617 0.22524 0.07045 0.0
C1723 C 0.21103 0.23176 0.05766 0.0
H1724 H 0.84133 0.23891 0.10584 0.0
H1725 H 0.79843 0.22168 0.11448 0.0
H1726 H 0.83107 0.25254 0.08511 0.0
H1727 H 0.78828 0.23509 0.09355 0.0
H1728 H 0.77916 0.24842 0.04568 0.0
H1729 H 0.78953 0.235 0.0665 0.0
H1730 H 0.81419 0.27327 0.08012 0.0
H1731 H 0.80389 0.28673 0.05923 0.0
C1732 C 0.8297 0.2381 0.10341 0.0
C1733 C 0.82072 0.22918 0.11188 0.0
C1734 C 0.82383 0.2459 0.0915 0.0
C1735 C 0.80887 0.24489 0.08769 0.0
C1736 C 0.79989 0.23594 0.0961 0.0
C1737 C 0.80573 0.22822 0.10807 0.0
C1738 C 0.78681 0.25399 0.05309 0.0
C1739 C 0.7907 0.26866 0.05078 0.0
C1740 C 0.79268 0.24631 0.06507 0.0
C1741 C 0.80266 0.25308 0.07496 0.0
C1742 C 0.80663 0.26772 0.07261 0.0
C1743 C 0.80067 0.27544 0.06068 0.0
H1744 H 0.81958 0.79903 0.11275 0.0
H1745 H 0.8172 0.84205 0.09369 0.0
H1746 H 0.81062 0.78844 0.08961 0.0
H1747 H 0.80791 0.83152 0.07076 0.0
H1748 H 0.80516 0.80829 0.02747 0.0
H1749 H 0.81599 0.8168 0.05059 0.0
H1750 H 0.78839 0.78696 0.07374 0.0
H1751 H 0.77759 0.7783 0.05051 0.0
C1752 C 0.81719 0.80623 0.10362 0.0
C1753 C 0.81914 0.82142 0.10513 0.0
C1754 C 0.81192 0.80016 0.09039 0.0
C1755 C 0.80858 0.80909 0.07825 0.0
C1756 C 0.81055 0.82427 0.07977 0.0
C1757 C 0.81572 0.83034 0.09301 0.0
C1758 C 0.80151 0.80336 0.03745 0.0
C1759 C 0.79043 0.79263 0.03706 0.0
C1760 C 0.80765 0.80835 0.05075 0.0
C1761 C 0.80292 0.80275 0.06409 0.0
C1762 C 0.79234 0.7915 0.0637 0.0
C1763 C 0.78615 0.78652 0.05036 0.0
H1764 H 0.21341 0.84074 0.10237 0.0
H1765 H 0.2029 0.79549 0.11034 0.0
H1766 H 0.22635 0.83385 0.08071 0.0
H1767 H 0.21578 0.78859 0.08856 0.0
H1768 H 0.22977 0.78337 0.04141 0.0
H1769 H 0.21504 0.79088 0.0616 0.0
H1770 H 0.24917 0.82087 0.07604 0.0
H1771 H 0.264 0.81326 0.05595 0.0
C1772 C 0.21386 0.82931 0.09949 0.0
C1773 C 0.20727 0.81864 0.10816 0.0
C1774 C 0.22127 0.82537 0.08709 0.0
C1775 C 0.22221 0.81067 0.08302 0.0
C1776 C 0.21515 0.80003 0.09136 0.0
C1777 C 0.20776 0.80397 0.10382 0.0
C1778 C 0.2342 0.7915 0.04893 0.0
C1779 C 0.24815 0.79763 0.04708 0.0
C1780 C 0.22573 0.79581 0.06049 0.0
C1781 C 0.23095 0.80643 0.07042 0.0
C1782 C 0.24476 0.81278 0.06844 0.0
C1783 C 0.25327 0.80843 0.05691 0.0
H1784 H 0.20693 0.78443 0.90106 0.0
H1785 H 0.20364 0.82541 0.92377 0.0
H1786 H 0.21894 0.77368 0.92284 0.0
H1787 H 0.21551 0.81473 0.94538 0.0
H1788 H 0.25707 0.79939 0.96891 0.0
H1789 H 0.24131 0.80746 0.9489 0.0
H1790 H 0.21707 0.76693 0.95024 0.0
H1791 H 0.23317 0.75861 0.97067 0.0
C1792 C 0.2085 0.79105 0.91078 0.0
C1793 C 0.2046 0.80586 0.91061 0.0
C1794 C 0.21534 0.78488 0.92325 0.0
C1795 C 0.21838 0.79342 0.93574 0.0
C1796 C 0.2136 0.80794 0.93582 0.0
C1797 C 0.20683 0.81408 0.92343 0.0
C1798 C 0.2484 0.7921 0.96505 0.0
C1799 C 0.2464 0.77832 0.97146 0.0
C1800 C 0.23926 0.79682 0.95359 0.0
C1801 C 0.22782 0.78793 0.94808 0.0
C1802 C 0.22581 0.77403 0.95429 0.0
C1803 C 0.23497 0.7693 0.96599 0.0
H1804 H 0.25048 0.19057 0.91543 0.0
H1805 H 0.20807 0.18903 0.9344 0.0
H1806 H 0.26137 0.19882 0.93884 0.0
H1807 H 0.21881 0.1975 0.95756 0.0
H1808 H 0.24225 0.20242 1.00073 0.0
H1809 H 0.23499 0.19032 0.97794 0.0
H1810 H 0.26103 0.22103 0.95412 0.0
H1811 H 0.26848 0.23307 0.97697 0.0
C1812 C 0.24351 0.19186 0.92462 0.0
C1813 C 0.22839 0.18922 0.92302 0.0
C1814 C 0.24973 0.19669 0.938 0.0
C1815 C 0.24098 0.19882 0.95011 0.0
C1816 C 0.22593 0.19581 0.94856 0.0
C1817 C 0.21973 0.19111 0.93521 0.0
C1818 C 0.24667 0.20646 0.99068 0.0
C1819 C 0.25585 0.21883 0.99072 0.0
C1820 C 0.24241 0.19956 0.97758 0.0
C1821 C 0.24723 0.20483 0.96415 0.0
C1822 C 0.25715 0.21664 0.96426 0.0
C1823 C 0.2614 0.22356 0.97738 0.0
H1824 H 0.80875 0.23083 0.89707 0.0
H1825 H 0.85264 0.23749 0.91475 0.0
H1826 H 0.79903 0.24193 0.91877 0.0
H1827 H 0.8429 0.24869 0.93641 0.0
H1828 H 0.8207 0.28116 0.96595 0.0
H1829 H 0.83005 0.2705 0.94394 0.0
H1830 H 0.79682 0.23686 0.9449 0.0
H1831 H 0.78747 0.24749 0.96705 0.0
C1832 C 0.81634 0.23459 0.90562 0.0
C1833 C 0.8315 0.23322 0.90417 0.0
C1834 C 0.81075 0.24095 0.91806 0.0
C1835 C 0.82018 0.24616 0.92935 0.0
C1836 C 0.83534 0.24496 0.92784 0.0
C1837 C 0.84093 0.23856 0.9154 0.0
C1838 C 0.81544 0.27141 0.96159 0.0
C1839 C 0.80336 0.26514 0.96839 0.0
C1840 C 0.82081 0.26531 0.94893 0.0
C1841 C 0.81424 0.25279 0.94268 0.0
C1842 C 0.80204 0.24661 0.94934 0.0
C1843 C 0.79667 0.25271 0.96204 0.0
H1844 H 0.8086 0.86023 0.91082 0.0
H1845 H 0.80751 0.81579 0.89526 0.0
H1846 H 0.79556 0.85274 0.93234 0.0
H1847 H 0.79448 0.8083 0.91678 0.0
H1848 H 0.7865 0.79777 0.96467 0.0
H1849 H 0.7987 0.80538 0.94281 0.0
H1850 H 0.77199 0.84389 0.94019 0.0
H1851 H 0.75972 0.83625 0.96216 0.0
C1852 C 0.80546 0.84888 0.9119 0.0
C1853 C 0.80916 0.83861 0.90129 0.0
C1854 C 0.79796 0.84458 0.92426 0.0
C1855 C 0.79398 0.8299 0.92634 0.0
C1856 C 0.79758 0.81966 0.91567 0.0
C1857 C 0.80507 0.82395 0.90332 0.0
C1858 C 0.78306 0.80777 0.95938 0.0
C1859 C 0.77203 0.81635 0.96521 0.0
C1860 C 0.79009 0.81215 0.9468 0.0
C1861 C 0.78633 0.82524 0.93968 0.0
C1862 C 0.77531 0.83384 0.94549 0.0
C1863 C 0.76826 0.82945 0.9581 0.0
H1864 H 0.10192 0.17546 0.22606 0.0
H1865 H 0.11692 0.22014 0.22373 0.0
H1866 H 0.08054 0.18325 0.23892 0.0
H1867 H 0.09561 0.22795 0.23677 0.0
H1868 H 0.0485 0.23828 0.24714 0.0
H1869 H 0.06965 0.23047 0.23407 0.0
H1870 H 0.0735 0.19268 0.26206 0.0
H1871 H 0.05215 0.20048 0.27508 0.0
C1872 C 0.1007 0.18695 0.22838 0.0
C1873 C 0.11115 0.19718 0.22389 0.0
C1874 C 0.08845 0.19141 0.2358 0.0
C1875 C 0.08635 0.20623 0.23897 0.0
C1876 C 0.09675 0.21648 0.23435 0.0
C1877 C 0.10898 0.21201 0.22687 0.0
C1878 C 0.05393 0.22839 0.25064 0.0
C1879 C 0.04866 0.22005 0.26225 0.0
C1880 C 0.06609 0.2239 0.24311 0.0
C1881 C 0.07335 0.21096 0.24701 0.0
C1882 C 0.06807 0.20259 0.25861 0.0
C1883 C 0.05584 0.20707 0.26611 0.0
H1884 H 0.81827 0.12702 0.21796 0.0
H1885 H 0.81316 0.1149 0.17255 0.0
H1886 H 0.80485 0.10511 0.22481 0.0
H1887 H 0.79976 0.09302 0.17938 0.0
H1888 H 0.7621 0.06472 0.19578 0.0
H1889 H 0.77641 0.08603 0.18889 0.0
H1890 H 0.80613 0.07875 0.22576 0.0
H1891 H 0.79155 0.05781 0.23294 0.0
C1892 C 0.81446 0.1196 0.20945 0.0
C1893 C 0.81675 0.12281 0.19469 0.0
C1894 C 0.80674 0.10702 0.21337 0.0
C1895 C 0.80112 0.0973 0.20264 0.0
C1896 C 0.80366 0.10038 0.18792 0.0
C1897 C 0.81137 0.11294 0.184 0.0
C1898 C 0.77165 0.06769 0.20245 0.0
C1899 C 0.77563 0.05948 0.21491 0.0
C1900 C 0.77996 0.07984 0.19842 0.0
C1901 C 0.79246 0.08414 0.20676 0.0
C1902 C 0.7965 0.07587 0.21916 0.0
C1903 C 0.78821 0.0637 0.22317 0.0
H1904 H 0.89991 0.82159 0.23182 0.0
H1905 H 0.9237 0.82641 0.19228 0.0
H1906 H 0.92216 0.81385 0.24485 0.0
H1907 H 0.94602 0.81883 0.20533 0.0
H1908 H 0.97933 0.78984 0.22919 0.0
H1909 H 0.95732 0.798 0.21627 0.0
H1910 H 0.94552 0.82251 0.25421 0.0
H1911 H 0.9673 0.81374 0.26743 0.0
C1912 C 0.90992 0.8211 0.22592 0.0
C1913 C 0.91 0.82461 0.21099 0.0
C1914 C 0.92271 0.8167 0.23342 0.0
C1915 C 0.93595 0.81574 0.22619 0.0
C1916 C 0.93601 0.81922 0.21123 0.0
C1917 C 0.92319 0.82356 0.20372 0.0
C1918 C 0.97202 0.79686 0.23487 0.0
C1919 C 0.9751 0.80099 0.24945 0.0
C1920 C 0.95944 0.80171 0.22736 0.0
C1921 C 0.94957 0.81091 0.23416 0.0
C1922 C 0.95275 0.81527 0.24867 0.0
C1923 C 0.96536 0.81038 0.25621 0.0
H1924 H 0.19567 0.91658 0.20437 0.0
H1925 H 0.23394 0.89079 0.2142 0.0
H1926 H 0.2092 0.93861 0.21161 0.0
H1927 H 0.24744 0.91274 0.2216 0.0
H1928 H 0.27181 0.95613 0.2185 0.0
H1929 H 0.25785 0.93444 0.21104 0.0
H1930 H 0.22015 0.9511 0.23227 0.0
H1931 H 0.23384 0.97298 0.23911 0.0
C1932 C 0.2069 0.91559 0.20831 0.0
C1933 C 0.21374 0.90194 0.20867 0.0
C1934 C 0.21468 0.92822 0.21244 0.0
C1935 C 0.22947 0.92749 0.21707 0.0
C1936 C 0.23618 0.91377 0.21777 0.0
C1937 C 0.22842 0.90117 0.21361 0.0
C1938 C 0.2605 0.95525 0.22141 0.0
C1939 C 0.25402 0.9663 0.2295 0.0
C1940 C 0.25253 0.94272 0.21729 0.0
C1941 C 0.23788 0.94095 0.22115 0.0
C1942 C 0.23136 0.95212 0.22902 0.0
C1943 C 0.2393 0.96462 0.23311 0.0
H1944 H 0.12402 0.7935 0.80439 0.0
H1945 H 0.1038 0.83584 0.80369 0.0
H1946 H 0.10212 0.78289 0.7928 0.0
H1947 H 0.08172 0.82513 0.79201 0.0
H1948 H 0.04817 0.79961 0.76091 0.0
H1949 H 0.07076 0.81206 0.7696 0.0
H1950 H 0.07774 0.77834 0.80193 0.0
H1951 H 0.05563 0.76603 0.79337 0.0
C1952 C 0.11489 0.80056 0.80176 0.0
C1953 C 0.11559 0.81548 0.80521 0.0
C1954 C 0.10233 0.79448 0.79508 0.0
C1955 C 0.09007 0.80312 0.79168 0.0
C1956 C 0.09098 0.81819 0.79445 0.0
C1957 C 0.10363 0.82431 0.80115 0.0
C1958 C 0.05457 0.79491 0.76987 0.0
C1959 C 0.0501 0.78177 0.77637 0.0
C1960 C 0.06746 0.80205 0.77487 0.0
C1961 C 0.07616 0.79608 0.78633 0.0
C1962 C 0.0715 0.78309 0.79288 0.0
C1963 C 0.05871 0.77606 0.78799 0.0
H1964 H 0.21579 0.09202 0.83459 0.0
H1965 H 0.21432 0.11552 0.79375 0.0
H1966 H 0.22325 0.07013 0.82197 0.0
H1967 H 0.22141 0.09342 0.781 0.0
H1968 H 0.25238 0.05536 0.76827 0.0
H1969 H 0.24266 0.07759 0.7787 0.0
H1970 H 0.21403 0.05171 0.80494 0.0
H1971 H 0.22383 0.02953 0.7947 0.0
C1972 C 0.21706 0.09253 0.82291 0.0
C1973 C 0.2145 0.1056 0.81523 0.0
C1974 C 0.22116 0.0799 0.81562 0.0
C1975 C 0.22288 0.07994 0.80042 0.0
C1976 C 0.22029 0.09299 0.79271 0.0
C1977 C 0.21609 0.10564 0.80001 0.0
C1978 C 0.24382 0.05441 0.77607 0.0
C1979 C 0.23898 0.0406 0.7807 0.0
C1980 C 0.23823 0.06718 0.78205 0.0
C1981 C 0.2277 0.06647 0.79284 0.0
C1982 C 0.22235 0.05268 0.7969 0.0
C1983 C 0.2279 0.03993 0.79091 0.0
H1984 H 0.91985 0.24494 0.81307 0.0
H1985 H 0.93246 0.20114 0.802 0.0
H1986 H 0.94306 0.25421 0.80461 0.0
H1987 H 0.95563 0.21068 0.79305 0.0
H1988 H 0.98901 0.24634 0.76801 0.0
H1989 H 0.96564 0.23371 0.7724 0.0
H1990 H 0.96974 0.24535 0.81793 0.0
H1991 H 0.9928 0.25753 0.81379 0.0
C1992 C 0.9275 0.23728 0.80874 0.0
C1993 C 0.92438 0.22224 0.80852 0.0
C1994 C 0.94072 0.24263 0.80376 0.0
C1995 C 0.95108 0.23313 0.79825 0.0
C1996 C 0.94772 0.21821 0.79716 0.0
C1997 C 0.93448 0.21279 0.8023 0.0
C1998 C 0.98503 0.2459 0.77898 0.0
C1999 C 0.99267 0.2531 0.7905 0.0
C2000 C 0.9717 0.23873 0.78147 0.0
C2001 C 0.96589 0.2388 0.79546 0.0
C2002 C 0.97392 0.24532 0.80702 0.0
C2003 C 0.98715 0.2523 0.8046 0.0
H2004 H 0.83889 0.94251 0.82251 0.0
H2005 H 0.82079 0.91947 0.78495 0.0
H2006 H 0.82899 0.96528 0.81287 0.0
H2007 H 0.81046 0.94224 0.77541 0.0
H2008 H 0.79716 0.98777 0.75945 0.0
H2009 H 0.8134 0.96736 0.76595 0.0
H2010 H 0.80438 0.97359 0.81145 0.0
H2011 H 0.78864 0.99377 0.80505 0.0
C2012 C 0.83287 0.94236 0.81212 0.0
C2013 C 0.83041 0.9292 0.80459 0.0
C2014 C 0.82718 0.9554 0.80659 0.0
C2015 C 0.81869 0.95557 0.79348 0.0
C2016 C 0.81701 0.94254 0.78548 0.0
C2017 C 0.82287 0.92948 0.79097 0.0
C2018 C 0.79895 0.98491 0.77083 0.0
C2019 C 0.79159 0.99232 0.78173 0.0
C2020 C 0.80814 0.97317 0.77456 0.0
C2021 C 0.81023 0.96883 0.78924 0.0
C2022 C 0.80327 0.97672 0.80007 0.0
C2023 C 0.79411 0.98826 0.79637 0.0
H2024 H 0.21796 0.12164 0.24191 0.0
H2025 H 0.20329 0.09549 0.20503 0.0
H2026 H 0.22787 0.1 0.25395 0.0
H2027 H 0.21274 0.07371 0.21721 0.0
H2028 H 0.24522 0.04064 0.236 0.0
H2029 H 0.23442 0.06176 0.2241 0.0
H2030 H 0.2217 0.07808 0.26594 0.0
H2031 H 0.23312 0.05711 0.27796 0.0
C2032 C 0.21677 0.11121 0.23643 0.0
C2033 C 0.20989 0.11027 0.2225 0.0
C2034 C 0.22236 0.09877 0.24337 0.0
C2035 C 0.22108 0.08501 0.23664 0.0
C2036 C 0.21417 0.08411 0.22268 0.0
C2037 C 0.20873 0.0966 0.21567 0.0
C2038 C 0.24002 0.04865 0.2427 0.0
C2039 C 0.24009 0.04717 0.25798 0.0
C2040 C 0.23374 0.06079 0.23582 0.0
C2041 C 0.22719 0.07174 0.244 0.0
C2042 C 0.22688 0.07004 0.25927 0.0
C2043 C 0.23331 0.05793 0.26618 0.0
H2044 H 0.23778 0.89537 0.81969 0.0
H2045 H 0.19979 0.92159 0.82661 0.0
H2046 H 0.25154 0.91725 0.81322 0.0
H2047 H 0.21355 0.9435 0.82006 0.0
H2048 H 0.24827 0.98041 0.82349 0.0
H2049 H 0.23495 0.95835 0.83036 0.0
H2050 H 0.25134 0.93593 0.79305 0.0
H2051 H 0.26471 0.95796 0.78625 0.0
C2052 C 0.23238 0.90582 0.81984 0.0
C2053 C 0.21769 0.90676 0.82367 0.0
C2054 C 0.24023 0.91833 0.81604 0.0
C2055 C 0.23365 0.9321 0.81616 0.0
C2056 C 0.21897 0.93305 0.82 0.0
C2057 C 0.21105 0.92051 0.82361 0.0
C2058 C 0.24916 0.97072 0.81686 0.0
C2059 C 0.25756 0.97092 0.80433 0.0
C2060 C 0.24141 0.95814 0.8207 0.0
C2061 C 0.24204 0.94542 0.81222 0.0
C2062 C 0.25068 0.94554 0.79985 0.0
C2063 C 0.25827 0.95816 0.79591 0.0
H2064 H 0.14354 0.23355 0.83227 0.0
H2065 H 0.11714 0.19461 0.82654 0.0
H2066 H 0.12252 0.24845 0.82541 0.0
H2067 H 0.09602 0.20951 0.81985 0.0
H2068 H 0.06475 0.23982 0.79488 0.0
H2069 H 0.08585 0.22498 0.80123 0.0
H2070 H 0.09964 0.25637 0.83411 0.0
H2071 H 0.0789 0.2716 0.82728 0.0
C2072 C 0.13321 0.22816 0.82964 0.0
C2073 C 0.13204 0.21286 0.83 0.0
C2074 C 0.12112 0.23673 0.82574 0.0
C2075 C 0.10749 0.23024 0.82214 0.0
C2076 C 0.10636 0.21492 0.82236 0.0
C2077 C 0.11849 0.20634 0.8262 0.0
C2078 C 0.07233 0.24369 0.80336 0.0
C2079 C 0.07005 0.25704 0.81048 0.0
C2080 C 0.08439 0.23504 0.80714 0.0
C2081 C 0.09453 0.23943 0.81819 0.0
C2082 C 0.0922 0.2527 0.8254 0.0
C2083 C 0.08016 0.26138 0.8216 0.0
H2084 H 0.80977 0.13013 0.83912 0.0
H2085 H 0.82915 0.13058 0.79684 0.0
H2086 H 0.79567 0.10854 0.83221 0.0
H2087 H 0.81573 0.10836 0.79026 0.0
H2088 H 0.77777 0.07818 0.77707 0.0
H2089 H 0.79172 0.1 0.78397 0.0
H2090 H 0.79758 0.08325 0.82787 0.0
H2091 H 0.78327 0.06164 0.82097 0.0
C2092 C 0.81105 0.12563 0.82834 0.0
C2093 C 0.82052 0.13222 0.81849 0.0
C2094 C 0.8031 0.11308 0.82445 0.0
C2095 C 0.80452 0.10667 0.81066 0.0
C2096 C 0.81418 0.11311 0.80089 0.0
C2097 C 0.82205 0.12576 0.80474 0.0
C2098 C 0.78208 0.07918 0.78818 0.0
C2099 C 0.77943 0.06822 0.79848 0.0
C2100 C 0.79013 0.09165 0.79213 0.0
C2101 C 0.79586 0.0934 0.80647 0.0
C2102 C 0.79315 0.08241 0.81679 0.0
C2103 C 0.78496 0.07001 0.81286 0.0
H2104 H 0.9097 0.80449 0.83324 0.0
H2105 H 0.90915 0.82855 0.79266 0.0
H2106 H 0.92973 0.78989 0.8249 0.0
H2107 H 0.92992 0.81479 0.78485 0.0
H2108 H 0.95862 0.77924 0.76814 0.0
H2109 H 0.93739 0.7923 0.7763 0.0
H2110 H 0.95473 0.7903 0.82077 0.0
H2111 H 0.97562 0.7767 0.81252 0.0
C2112 C 0.91381 0.8067 0.82253 0.0
C2113 C 0.90769 0.81776 0.81366 0.0
C2114 C 0.92552 0.79844 0.81782 0.0
C2115 C 0.93158 0.80111 0.80418 0.0
C2116 C 0.92547 0.8122 0.79532 0.0
C2117 C 0.91365 0.82031 0.79994 0.0
C2118 C 0.95785 0.78161 0.77965 0.0
C2119 C 0.96879 0.77698 0.78969 0.0
C2120 C 0.94571 0.78917 0.78436 0.0
C2121 C 0.94429 0.79252 0.79923 0.0
C2122 C 0.95524 0.78776 0.80927 0.0
C2123 C 0.96728 0.77999 0.80457 0.0
H2124 H 0.82566 0.93047 0.19195 0.0
H2125 H 0.80354 0.90326 0.22271 0.0
H2126 H 0.81775 0.95219 0.20473 0.0
H2127 H 0.79501 0.92483 0.23512 0.0
H2128 H 0.7907 0.96463 0.26267 0.0
H2129 H 0.80163 0.94402 0.25053 0.0
H2130 H 0.79813 0.96709 0.20941 0.0
H2131 H 0.78797 0.9879 0.22172 0.0
C2132 C 0.81891 0.92916 0.20133 0.0
C2133 C 0.81523 0.91517 0.20634 0.0
C2134 C 0.81433 0.94162 0.20868 0.0
C2135 C 0.80576 0.9404 0.2211 0.0
C2136 C 0.8019 0.92633 0.22588 0.0
C2137 C 0.80666 0.9139 0.21868 0.0
C2138 C 0.79253 0.96538 0.25108 0.0
C2139 C 0.78845 0.97792 0.24319 0.0
C2140 C 0.79864 0.95347 0.24405 0.0
C2141 C 0.80059 0.95366 0.22886 0.0
C2142 C 0.79699 0.96648 0.2211 0.0
C2143 C 0.79111 0.97847 0.22819 0.0
H2144 H 0.11992 0.81099 0.22605 0.0
H2145 H 0.10224 0.80066 0.18291 0.0
H2146 H 0.09808 0.80093 0.23667 0.0
H2147 H 0.08039 0.79019 0.19375 0.0
H2148 H 0.0505 0.76141 0.22664 0.0
H2149 H 0.07193 0.76905 0.21286 0.0
H2150 H 0.07174 0.81094 0.23421 0.0
H2151 H 0.05066 0.80357 0.24764 0.0
C2152 C 0.11139 0.80658 0.21881 0.0
C2153 C 0.11276 0.80693 0.20359 0.0
C2154 C 0.09892 0.80072 0.22492 0.0
C2155 C 0.08749 0.79492 0.21601 0.0
C2156 C 0.08907 0.79455 0.20084 0.0
C2157 C 0.10158 0.80055 0.19467 0.0
C2158 C 0.05492 0.77231 0.22815 0.0
C2159 C 0.04901 0.78179 0.23839 0.0
C2160 C 0.06717 0.77666 0.22031 0.0
C2161 C 0.07364 0.79048 0.22273 0.0
C2162 C 0.06718 0.80012 0.23236 0.0
C2163 C 0.05505 0.79586 0.24004 0.0
H2164 H 0.92683 0.22366 0.18785 0.0
H2165 H 0.90968 0.21658 0.23056 0.0
H2166 H 0.9488 0.23472 0.199 0.0
H2167 H 0.93188 0.22728 0.24176 0.0
H2168 H 0.96731 0.25928 0.25701 0.0
H2169 H 0.94487 0.25079 0.24448 0.0
H2170 H 0.97029 0.22743 0.21356 0.0
H2171 H 0.9927 0.23604 0.22593 0.0
C2172 C 0.92773 0.22449 0.19963 0.0
C2173 C 0.91646 0.21925 0.20831 0.0
C2174 C 0.9404 0.23073 0.20603 0.0
C2175 C 0.94211 0.23195 0.22128 0.0
C2176 C 0.93084 0.2267 0.22997 0.0
C2177 C 0.91819 0.22039 0.22357 0.0
C2178 C 0.96813 0.25257 0.24736 0.0
C2179 C 0.98185 0.24832 0.24251 0.0
C2180 C 0.95525 0.24756 0.24028 0.0
C2181 C 0.95576 0.23827 0.22812 0.0
C2182 C 0.96948 0.23462 0.22284 0.0
C2183 C 0.98235 0.23956 0.22996 0.0
H2184 H 0.20164 0.72688 0.60647 0.0
H2185 H 0.18679 0.68774 0.58428 0.0
H2186 H 0.21212 0.73576 0.5839 0.0
H2187 H 0.19682 0.69671 0.56167 0.0
H2188 H 0.23815 0.7047 0.53578 0.0
H2189 H 0.22176 0.69863 0.55499 0.0
H2190 H 0.20953 0.74387 0.55816 0.0
H2191 H 0.2264 0.75004 0.53875 0.0
C2192 C 0.20028 0.72037 0.59666 0.0
C2193 C 0.19364 0.70652 0.59716 0.0
C2194 C 0.20622 0.72548 0.58371 0.0
C2195 C 0.20553 0.71684 0.57101 0.0
C2196 C 0.19787 0.70348 0.57132 0.0
C2197 C 0.19209 0.69834 0.58426 0.0
C2198 C 0.23182 0.71337 0.54039 0.0
C2199 C 0.23362 0.72786 0.5358 0.0
C2200 C 0.22229 0.70986 0.55137 0.0
C2201 C 0.21426 0.72075 0.55815 0.0
C2202 C 0.21562 0.73524 0.55321 0.0
C2203 C 0.22516 0.73876 0.54203 0.0
H2204 H 0.79126 0.7197 0.6034 0.0
H2205 H 0.83203 0.7245 0.58164 0.0
H2206 H 0.77794 0.72661 0.58088 0.0
H2207 H 0.8188 0.73177 0.55934 0.0
H2208 H 0.79182 0.73204 0.51763 0.0
H2209 H 0.80265 0.72203 0.54008 0.0
H2210 H 0.77382 0.74814 0.56531 0.0
H2211 H 0.76282 0.75805 0.5428 0.0
C2212 C 0.79739 0.72216 0.5938 0.0
C2213 C 0.81275 0.72156 0.59437 0.0
C2214 C 0.78975 0.72625 0.58092 0.0
C2215 C 0.79727 0.72971 0.56824 0.0
C2216 C 0.81261 0.72899 0.56881 0.0
C2217 C 0.82023 0.72499 0.58168 0.0
C2218 C 0.78758 0.73547 0.52794 0.0
C2219 C 0.77649 0.74595 0.52836 0.0
C2220 C 0.7939 0.72982 0.54084 0.0
C2221 C 0.7893 0.73445 0.55454 0.0
C2222 C 0.77762 0.74428 0.55497 0.0
C2223 C 0.77129 0.74997 0.54203 0.0
H2224 H 0.83047 0.34295 0.60185 0.0
H2225 H 0.83913 0.30267 0.62487 0.0
H2226 H 0.82212 0.32921 0.58036 0.0
H2227 H 0.83078 0.28891 0.60335 0.0
H2228 H 0.82811 0.26918 0.55736 0.0
H2229 H 0.83718 0.28304 0.57855 0.0
H2230 H 0.80211 0.31373 0.57191 0.0
H2231 H 0.79338 0.30021 0.55048 0.0
C2232 C 0.83048 0.33116 0.60238 0.0
C2233 C 0.83545 0.32395 0.61515 0.0
C2234 C 0.8257 0.32326 0.59003 0.0
C2235 C 0.82574 0.30792 0.59009 0.0
C2236 C 0.83079 0.3007 0.60282 0.0
C2237 C 0.83558 0.3086 0.61518 0.0
C2238 C 0.82241 0.27895 0.56032 0.0
C2239 C 0.80998 0.28352 0.55215 0.0
C2240 C 0.82753 0.28683 0.57259 0.0
C2241 C 0.82038 0.29952 0.57699 0.0
C2242 C 0.80799 0.30411 0.56878 0.0
C2243 C 0.80287 0.29623 0.55655 0.0
H2244 H 0.21155 0.31814 0.62622 0.0
H2245 H 0.22474 0.36247 0.61706 0.0
H2246 H 0.22461 0.30973 0.60521 0.0
H2247 H 0.23796 0.35399 0.59609 0.0
H2248 H 0.27285 0.32992 0.56974 0.0
H2249 H 0.25954 0.33939 0.59024 0.0
H2250 H 0.22298 0.31121 0.57852 0.0
H2251 H 0.23616 0.30187 0.55804 0.0
C2252 C 0.21711 0.32612 0.61965 0.0
C2253 C 0.21702 0.341 0.62334 0.0
C2254 C 0.22463 0.32129 0.6076 0.0
C2255 C 0.2323 0.33119 0.59894 0.0
C2256 C 0.2323 0.34606 0.60264 0.0
C2257 C 0.22472 0.35091 0.61467 0.0
C2258 C 0.26191 0.32587 0.57142 0.0
C2259 C 0.25566 0.31501 0.56228 0.0
C2260 C 0.25428 0.33129 0.58319 0.0
C2261 C 0.24024 0.32595 0.5861 0.0
C2262 C 0.23389 0.31534 0.57677 0.0
C2263 C 0.24147 0.30997 0.56502 0.0
H2264 H 0.2275 0.2979 0.41187 0.0
H2265 H 0.18825 0.30518 0.43537 0.0
H2266 H 0.23979 0.28936 0.43423 0.0
H2267 H 0.20065 0.2965 0.45789 0.0
H2268 H 0.23001 0.27111 0.49387 0.0
H2269 H 0.21502 0.27442 0.47118 0.0
H2270 H 0.24664 0.30553 0.45594 0.0
H2271 H 0.26129 0.30242 0.47809 0.0
C2272 C 0.22144 0.29753 0.42179 0.0
C2273 C 0.207 0.30252 0.4219 0.0
C2274 C 0.22846 0.29257 0.43458 0.0
C2275 C 0.22123 0.29245 0.44784 0.0
C2276 C 0.20646 0.29642 0.44781 0.0
C2277 C 0.19939 0.30142 0.43494 0.0
C2278 C 0.23369 0.27862 0.48562 0.0
C2279 C 0.24685 0.28648 0.48783 0.0
C2280 C 0.22512 0.28053 0.4727 0.0
C2281 C 0.22978 0.29011 0.46173 0.0
C2282 C 0.24288 0.29789 0.46404 0.0
C2283 C 0.25124 0.29615 0.47687 0.0
H2284 H 0.24383 0.67431 0.39115 0.0
H2285 H 0.20153 0.67823 0.40992 0.0
H2286 H 0.25539 0.6841 0.41355 0.0
H2287 H 0.21301 0.68781 0.43231 0.0
H2288 H 0.23568 0.72008 0.46304 0.0
H2289 H 0.22503 0.70956 0.44082 0.0
H2290 H 0.26088 0.67945 0.43913 0.0
H2291 H 0.27195 0.69048 0.4611 0.0
C2292 C 0.23702 0.67707 0.40013 0.0
C2293 C 0.22175 0.67561 0.39869 0.0
C2294 C 0.24364 0.68269 0.41299 0.0
C2295 C 0.23514 0.68691 0.42473 0.0
C2296 C 0.2199 0.68502 0.4234 0.0
C2297 C 0.2133 0.67949 0.41056 0.0
C2298 C 0.24144 0.71135 0.4579 0.0
C2299 C 0.25475 0.7062 0.46396 0.0
C2300 C 0.2352 0.70515 0.4452 0.0
C2301 C 0.24201 0.69356 0.43819 0.0
C2302 C 0.25536 0.68843 0.44416 0.0
C2303 C 0.26164 0.69466 0.45688 0.0
H2304 H 0.80697 0.72865 0.39512 0.0
H2305 H 0.85116 0.73537 0.41189 0.0
H2306 H 0.79782 0.7424 0.41549 0.0
H2307 H 0.84198 0.74912 0.43241 0.0
H2308 H 0.81998 0.7837 0.46082 0.0
H2309 H 0.82983 0.77146 0.43966 0.0
H2310 H 0.79544 0.73904 0.4413 0.0
H2311 H 0.78567 0.7512 0.46223 0.0
C2312 C 0.81474 0.733 0.40321 0.0
C2313 C 0.8298 0.73077 0.40193 0.0
C2314 C 0.80949 0.74089 0.41491 0.0
C2315 C 0.81914 0.74675 0.42571 0.0
C2316 C 0.83424 0.74487 0.42424 0.0
C2317 C 0.8395 0.73698 0.41248 0.0
C2318 C 0.81457 0.77393 0.45668 0.0
C2319 C 0.80192 0.76856 0.46316 0.0
C2320 C 0.82022 0.7669 0.44455 0.0
C2321 C 0.81335 0.75432 0.43866 0.0
C2322 C 0.80082 0.74889 0.44529 0.0
C2323 C 0.79519 0.7559 0.45734 0.0
H2324 H 0.78846 0.31387 0.40098 0.0
H2325 H 0.80787 0.34587 0.43037 0.0
H2326 H 0.77749 0.30151 0.42149 0.0
H2327 H 0.7971 0.33332 0.45105 0.0
H2328 H 0.77158 0.3081 0.48567 0.0
H2329 H 0.77506 0.32404 0.46435 0.0
H2330 H 0.79018 0.28708 0.44015 0.0
H2331 H 0.78672 0.27149 0.46106 0.0
C2332 C 0.79021 0.31837 0.41183 0.0
C2333 C 0.79922 0.33068 0.41411 0.0
C2334 C 0.78393 0.3113 0.42358 0.0
C2335 C 0.78663 0.31627 0.43795 0.0
C2336 C 0.79474 0.32924 0.44013 0.0
C2337 C 0.80095 0.33641 0.4283 0.0
C2338 C 0.77535 0.30343 0.47565 0.0
C2339 C 0.77895 0.2886 0.47501 0.0
C2340 C 0.77744 0.31253 0.46351 0.0
C2341 C 0.78286 0.30682 0.45052 0.0
C2342 C 0.78579 0.29184 0.44984 0.0
C2343 C 0.78392 0.2829 0.46191 0.0
H2344 H 0.12427 0.70081 0.72402 0.0
H2345 H 0.09783 0.6944 0.68456 0.0
H2346 H 0.10277 0.70908 0.73659 0.0
H2347 H 0.07641 0.70289 0.69704 0.0
H2348 H 0.03848 0.70512 0.72809 0.0
H2349 H 0.06005 0.6954 0.71676 0.0
H2350 H 0.08624 0.7304 0.73571 0.0
H2351 H 0.06472 0.73995 0.74724 0.0
C2352 C 0.11385 0.70109 0.71805 0.0
C2353 C 0.11276 0.69697 0.70328 0.0
C2354 C 0.10157 0.70594 0.72522 0.0
C2355 C 0.08788 0.70665 0.71781 0.0
C2356 C 0.08676 0.70235 0.7031 0.0
C2357 C 0.09906 0.69762 0.69591 0.0
C2358 C 0.04887 0.71063 0.72998 0.0
C2359 C 0.04986 0.72334 0.73854 0.0
C2360 C 0.0612 0.70515 0.72337 0.0
C2361 C 0.07486 0.71215 0.72528 0.0
C2362 C 0.07591 0.72468 0.7341 0.0
C2363 C 0.06355 0.73024 0.74059 0.0
H2364 H 0.85585 0.63721 0.71276 0.0
H2365 H 0.81212 0.63524 0.69353 0.0
H2366 H 0.85061 0.61594 0.72751 0.0
H2367 H 0.80722 0.61332 0.70757 0.0
H2368 H 0.79747 0.58308 0.74535 0.0
H2369 H 0.80273 0.60496 0.73131 0.0
H2370 H 0.8471 0.59054 0.72674 0.0
H2371 H 0.84185 0.56889 0.74117 0.0
C2372 C 0.84509 0.63227 0.71165 0.0
C2373 C 0.83439 0.63811 0.70197 0.0
C2374 C 0.84216 0.61987 0.71999 0.0
C2375 C 0.82847 0.61281 0.7188 0.0
C2376 C 0.81781 0.61854 0.70899 0.0
C2377 C 0.82071 0.63103 0.70074 0.0
C2378 C 0.80834 0.58461 0.74133 0.0
C2379 C 0.81924 0.57425 0.74437 0.0
C2380 C 0.81136 0.59713 0.7332 0.0
C2381 C 0.82534 0.59957 0.72775 0.0
C2382 C 0.83627 0.58921 0.73091 0.0
C2383 C 0.83328 0.57676 0.73919 0.0
H2384 H 0.90989 0.33468 0.73975 0.0
H2385 H 0.93819 0.34739 0.70525 0.0
H2386 H 0.93112 0.32642 0.75444 0.0
H2387 H 0.95943 0.33932 0.72002 0.0
H2388 H 0.99402 0.33789 0.75863 0.0
H2389 H 0.97255 0.34684 0.74474 0.0
H2390 H 0.95036 0.30588 0.75183 0.0
H2391 H 0.97189 0.2969 0.76555 0.0
C2392 C 0.92066 0.33578 0.73536 0.0
C2393 C 0.92239 0.34166 0.72135 0.0
C2394 C 0.93278 0.331 0.74373 0.0
C2395 C 0.94692 0.33226 0.73838 0.0
C2396 C 0.94867 0.33831 0.72445 0.0
C2397 C 0.93652 0.34283 0.71597 0.0
C2398 C 0.9845 0.33087 0.75732 0.0
C2399 C 0.98462 0.31669 0.76316 0.0
C2400 C 0.97227 0.33594 0.74929 0.0
C2401 C 0.95979 0.32704 0.74719 0.0
C2402 C 0.95979 0.313 0.75333 0.0
C2403 C 0.97212 0.30783 0.7611 0.0
H2404 H 0.22794 0.40864 0.74016 0.0
H2405 H 0.19667 0.43894 0.72168 0.0
H2406 H 0.24178 0.42881 0.75133 0.0
H2407 H 0.21082 0.45931 0.73242 0.0
H2408 H 0.23894 0.49374 0.75686 0.0
H2409 H 0.22167 0.4731 0.75365 0.0
H2410 H 0.25688 0.44617 0.73943 0.0
H2411 H 0.27377 0.46635 0.74276 0.0
C2412 C 0.22395 0.41964 0.73866 0.0
C2413 C 0.21138 0.42228 0.7299 0.0
C2414 C 0.23188 0.43121 0.74502 0.0
C2415 C 0.22759 0.44572 0.74253 0.0
C2416 C 0.21441 0.44828 0.73462 0.0
C2417 C 0.20633 0.43664 0.72841 0.0
C2418 C 0.24293 0.48327 0.75337 0.0
C2419 C 0.25765 0.48165 0.74997 0.0
C2420 C 0.23307 0.47151 0.75143 0.0
C2421 C 0.23788 0.45794 0.74631 0.0
C2422 C 0.25276 0.45631 0.74361 0.0
C2423 C 0.26246 0.46797 0.74539 0.0
H2424 H 0.11556 0.29037 0.32972 0.0
H2425 H 0.10065 0.33332 0.31734 0.0
H2426 H 0.09282 0.27983 0.31996 0.0
H2427 H 0.07775 0.32261 0.30734 0.0
H2428 H 0.04406 0.29136 0.28016 0.0
H2429 H 0.06675 0.30441 0.28762 0.0
H2430 H 0.06739 0.28163 0.32886 0.0
H2431 H 0.04513 0.26879 0.32158 0.0
C2432 C 0.10741 0.29759 0.32493 0.0
C2433 C 0.10983 0.31273 0.3246 0.0
C2434 C 0.09439 0.29153 0.31928 0.0
C2435 C 0.0834 0.30041 0.31309 0.0
C2436 C 0.08604 0.31549 0.31204 0.0
C2437 C 0.09914 0.32161 0.31777 0.0
C2438 C 0.049 0.28932 0.29086 0.0
C2439 C 0.04288 0.27889 0.30018 0.0
C2440 C 0.06196 0.29677 0.29513 0.0
C2441 C 0.069 0.29381 0.30872 0.0
C2442 C 0.06245 0.2839 0.31819 0.0
C2443 C 0.04961 0.27657 0.314 0.0
H2444 H 0.21799 0.59732 0.27895 0.0
H2445 H 0.19862 0.57214 0.3131 0.0
H2446 H 0.22936 0.57525 0.26975 0.0
H2447 H 0.20948 0.55007 0.30372 0.0
H2448 H 0.25042 0.5223 0.2996 0.0
H2449 H 0.23382 0.54174 0.30489 0.0
H2450 H 0.22799 0.55077 0.25878 0.0
H2451 H 0.24514 0.53109 0.25348 0.0
C2452 C 0.21587 0.587 0.28426 0.0
C2453 C 0.20762 0.5865 0.2969 0.0
C2454 C 0.22233 0.57433 0.27896 0.0
C2455 C 0.22056 0.56086 0.28611 0.0
C2456 C 0.21142 0.56027 0.29813 0.0
C2457 C 0.20515 0.57292 0.30351 0.0
C2458 C 0.2454 0.52823 0.29052 0.0
C2459 C 0.2491 0.52516 0.27612 0.0
C2460 C 0.23576 0.53937 0.29356 0.0
C2461 C 0.22947 0.54791 0.28229 0.0
C2462 C 0.2327 0.54448 0.26775 0.0
C2463 C 0.24237 0.53312 0.26468 0.0
H2464 H 0.90434 0.7287 0.29296 0.0
H2465 H 0.92894 0.69077 0.30632 0.0
H2466 H 0.92547 0.73824 0.28054 0.0
H2467 H 0.95029 0.70048 0.29411 0.0
H2468 H 0.9857 0.72076 0.26561 0.0
H2469 H 0.96243 0.70858 0.27124 0.0
H2470 H 0.9478 0.74836 0.29097 0.0
H2471 H 0.97051 0.76027 0.28531 0.0
C2472 C 0.91427 0.72237 0.29317 0.0
C2473 C 0.91507 0.70913 0.30084 0.0
C2474 C 0.92637 0.7278 0.28603 0.0
C2475 C 0.93966 0.72023 0.28651 0.0
C2476 C 0.94021 0.70654 0.29343 0.0
C2477 C 0.92801 0.70102 0.3005 0.0
C2478 C 0.97732 0.72687 0.27087 0.0
C2479 C 0.97992 0.7414 0.27511 0.0
C2480 C 0.96408 0.71991 0.2742 0.0
C2481 C 0.95322 0.72751 0.28154 0.0
C2482 C 0.95574 0.74221 0.28513 0.0
C2483 C 0.96888 0.74902 0.28199 0.0
H2484 H 0.83053 0.43778 0.33716 0.0
H2485 H 0.82701 0.41243 0.29752 0.0
H2486 H 0.82483 0.45989 0.3232 0.0
H2487 H 0.82146 0.43453 0.28356 0.0
H2488 H 0.79442 0.47455 0.26794 0.0
H2489 H 0.80101 0.4524 0.28136 0.0
H2490 H 0.83603 0.47579 0.30406 0.0
H2491 H 0.82933 0.49799 0.29072 0.0
C2492 C 0.82851 0.43694 0.32548 0.0
C2493 C 0.82922 0.42336 0.31844 0.0
C2494 C 0.82538 0.44961 0.31747 0.0
C2495 C 0.82272 0.44896 0.30227 0.0
C2496 C 0.82337 0.43537 0.29526 0.0
C2497 C 0.82666 0.42274 0.30324 0.0
C2498 C 0.80354 0.47495 0.27578 0.0
C2499 C 0.81134 0.48802 0.27827 0.0
C2500 C 0.80737 0.46224 0.28339 0.0
C2501 C 0.81902 0.46235 0.2938 0.0
C2502 C 0.82693 0.47539 0.2962 0.0
C2503 C 0.8232 0.48807 0.28845 0.0
H2504 H 0.23951 0.62834 0.69623 0.0
H2505 H 0.20335 0.59849 0.6886 0.0
H2506 H 0.25491 0.60805 0.70443 0.0
H2507 H 0.21878 0.57818 0.69677 0.0
H2508 H 0.25644 0.54458 0.697 0.0
H2509 H 0.24154 0.56503 0.68814 0.0
H2510 H 0.25561 0.59027 0.72587 0.0
H2511 H 0.27046 0.56984 0.7347 0.0
C2512 C 0.23488 0.61743 0.69627 0.0
C2513 C 0.22023 0.615 0.69179 0.0
C2514 C 0.24366 0.60584 0.70104 0.0
C2515 C 0.23806 0.59153 0.70121 0.0
C2516 C 0.22343 0.58908 0.69664 0.0
C2517 C 0.21457 0.60071 0.69209 0.0
C2518 C 0.25644 0.55455 0.7033 0.0
C2519 C 0.26459 0.55561 0.71655 0.0
C2520 C 0.24782 0.56619 0.69831 0.0
C2521 C 0.24738 0.57923 0.70634 0.0
C2522 C 0.25579 0.58039 0.71942 0.0
C2523 C 0.26421 0.56868 0.72452 0.0
H2524 H 0.23634 0.38314 0.32067 0.0
H2525 H 0.20443 0.41402 0.33454 0.0
H2526 H 0.25139 0.40319 0.31172 0.0
H2527 H 0.21953 0.4341 0.32563 0.0
H2528 H 0.25974 0.46547 0.32331 0.0
H2529 H 0.24475 0.44535 0.33231 0.0
H2530 H 0.24939 0.42251 0.29163 0.0
H2531 H 0.26433 0.44263 0.28266 0.0
C2532 C 0.23256 0.39422 0.32181 0.0
C2533 C 0.21921 0.39702 0.32829 0.0
C2534 C 0.24113 0.40568 0.31662 0.0
C2535 C 0.23666 0.42021 0.31802 0.0
C2536 C 0.22331 0.42302 0.32452 0.0
C2537 C 0.21461 0.41153 0.32949 0.0
C2538 C 0.25765 0.4561 0.31636 0.0
C2539 C 0.2632 0.45562 0.30228 0.0
C2540 C 0.24897 0.44465 0.32145 0.0
C2541 C 0.24587 0.43238 0.31266 0.0
C2542 C 0.25164 0.4318 0.29867 0.0
C2543 C 0.26011 0.44334 0.29351 0.0
H2544 H 0.1236 0.70562 0.33115 0.0
H2545 H 0.11967 0.6873 0.28778 0.0
H2546 H 0.10259 0.72086 0.32581 0.0
H2547 H 0.09801 0.70195 0.28272 0.0
H2548 H 0.06958 0.74175 0.27284 0.0
H2549 H 0.0906 0.72629 0.27802 0.0
H2550 H 0.07699 0.72069 0.32234 0.0
H2551 H 0.05616 0.73646 0.31716 0.0
C2552 C 0.11827 0.70482 0.32045 0.0
C2553 C 0.12351 0.69528 0.30985 0.0
C2554 C 0.10602 0.71344 0.31746 0.0
C2555 C 0.09851 0.71271 0.30382 0.0
C2556 C 0.1036 0.703 0.29328 0.0
C2557 C 0.11594 0.69442 0.29625 0.0
C2558 C 0.07105 0.73716 0.28366 0.0
C2559 C 0.06118 0.74036 0.29459 0.0
C2560 C 0.08309 0.72822 0.28664 0.0
C2561 C 0.08556 0.72214 0.3006 0.0
C2562 C 0.07564 0.72534 0.31152 0.0
C2563 C 0.06366 0.73439 0.30857 0.0
H2564 H 0.81335 0.61252 0.34477 0.0
H2565 H 0.81374 0.62744 0.30009 0.0
H2566 H 0.8001 0.59047 0.33684 0.0
H2567 H 0.80094 0.60533 0.29215 0.0
H2568 H 0.76915 0.56967 0.28174 0.0
H2569 H 0.77764 0.59244 0.29292 0.0
H2570 H 0.80555 0.56836 0.32309 0.0
H2571 H 0.79689 0.54556 0.3121 0.0
C2572 C 0.81051 0.61115 0.33328 0.0
C2573 C 0.81468 0.62169 0.32305 0.0
C2574 C 0.80302 0.59847 0.32873 0.0
C2575 C 0.79944 0.59613 0.31386 0.0
C2576 C 0.80333 0.60685 0.3037 0.0
C2577 C 0.81086 0.61945 0.30823 0.0
C2578 C 0.77686 0.56919 0.29096 0.0
C2579 C 0.78246 0.55577 0.2959 0.0
C2580 C 0.78181 0.58227 0.2973 0.0
C2581 C 0.79247 0.58224 0.30872 0.0
C2582 C 0.79731 0.56879 0.31433 0.0
C2583 C 0.79236 0.55569 0.308 0.0
H2584 H 0.90478 0.29923 0.35583 0.0
H2585 H 0.90596 0.3223 0.31475 0.0
H2586 H 0.92467 0.28388 0.34839 0.0
H2587 H 0.9265 0.3077 0.30779 0.0
H2588 H 0.954 0.27071 0.29249 0.0
H2589 H 0.93295 0.28441 0.30006 0.0
H2590 H 0.94998 0.28367 0.34466 0.0
H2591 H 0.97077 0.26948 0.33702 0.0
C2592 C 0.90924 0.30106 0.34521 0.0
C2593 C 0.90366 0.31206 0.33591 0.0
C2594 C 0.92084 0.29236 0.34102 0.0
C2595 C 0.92728 0.29449 0.32746 0.0
C2596 C 0.92173 0.30553 0.31821 0.0
C2597 C 0.91005 0.31412 0.32233 0.0
C2598 C 0.9532 0.27347 0.30391 0.0
C2599 C 0.96406 0.26908 0.31415 0.0
C2600 C 0.94117 0.2814 0.30827 0.0
C2601 C 0.93976 0.28534 0.32298 0.0
C2602 C 0.95054 0.28071 0.33327 0.0
C2603 C 0.96249 0.27259 0.32891 0.0
H2604 H 0.8066 0.42306 0.70545 0.0
H2605 H 0.84316 0.44548 0.68699 0.0
H2606 H 0.79743 0.44631 0.7143 0.0
H2607 H 0.83379 0.46872 0.69521 0.0
H2608 H 0.82748 0.50067 0.73262 0.0
H2609 H 0.83339 0.47958 0.71835 0.0
H2610 H 0.78743 0.47054 0.71031 0.0
H2611 H 0.78147 0.49181 0.72522 0.0
C2612 C 0.81247 0.43302 0.70299 0.0
C2613 C 0.82571 0.43247 0.69576 0.0
C2614 C 0.80718 0.44636 0.70799 0.0
C2615 C 0.81498 0.45943 0.7057 0.0
C2616 C 0.82769 0.45888 0.69754 0.0
C2617 C 0.83306 0.44557 0.69278 0.0
C2618 C 0.81858 0.49436 0.72763 0.0
C2619 C 0.804 0.49789 0.73012 0.0
C2620 C 0.82198 0.48225 0.7193 0.0
C2621 C 0.81091 0.47326 0.71311 0.0
C2622 C 0.79624 0.47714 0.71503 0.0
C2623 C 0.79281 0.48941 0.72341 0.0
H2624 H 0.13389 0.31371 0.73066 0.0
H2625 H 0.10378 0.32725 0.69611 0.0
H2626 H 0.11418 0.30088 0.74254 0.0
H2627 H 0.0838 0.31464 0.70824 0.0
H2628 H 0.05213 0.28398 0.7334 0.0
H2629 H 0.07259 0.29102 0.718 0.0
H2630 H 0.09419 0.3118 0.75523 0.0
H2631 H 0.0743 0.30481 0.7703 0.0
C2632 C 0.12304 0.31382 0.72556 0.0
C2633 C 0.12029 0.32169 0.71263 0.0
C2634 C 0.11175 0.30647 0.73234 0.0
C2635 C 0.09736 0.30697 0.72648 0.0
C2636 C 0.09477 0.31401 0.713 0.0
C2637 C 0.10617 0.32129 0.7061 0.0
C2638 C 0.06137 0.2899 0.73823 0.0
C2639 C 0.06156 0.29388 0.75305 0.0
C2640 C 0.07301 0.29399 0.72943 0.0
C2641 C 0.08508 0.30186 0.73543 0.0
C2642 C 0.08525 0.30552 0.75028 0.0
C2643 C 0.0737 0.30161 0.75893 0.0
H2644 H 0.92746 0.74088 0.66455 0.0
H2645 H 0.9104 0.74306 0.70777 0.0
H2646 H 0.95067 0.75112 0.67389 0.0
H2647 H 0.93367 0.7527 0.71719 0.0
H2648 H 0.97417 0.77694 0.73066 0.0
H2649 H 0.95067 0.77273 0.71797 0.0
H2650 H 0.97094 0.74262 0.68888 0.0
H2651 H 0.99444 0.74711 0.70129 0.0
C2652 C 0.92858 0.74371 0.676 0.0
C2653 C 0.91709 0.741 0.68542 0.0
C2654 C 0.94195 0.74945 0.68139 0.0
C2655 C 0.94413 0.75267 0.69633 0.0
C2656 C 0.9324 0.75051 0.70561 0.0
C2657 C 0.91908 0.74478 0.70023 0.0
C2658 C 0.97369 0.76968 0.72134 0.0
C2659 C 0.98621 0.76226 0.71711 0.0
C2660 C 0.96016 0.76716 0.71414 0.0
C2661 C 0.95881 0.75715 0.70252 0.0
C2662 C 0.97152 0.75047 0.6977 0.0
C2663 C 0.98504 0.753 0.70489 0.0
H2664 H 0.73618 0.22373 0.62086 0.0
H2665 H 0.69482 0.2217 0.59683 0.0
H2666 H 0.74749 0.23472 0.59984 0.0
H2667 H 0.70624 0.23274 0.57561 0.0
H2668 H 0.73357 0.26198 0.54341 0.0
H2669 H 0.72005 0.25515 0.56521 0.0
H2670 H 0.75277 0.22306 0.5763 0.0
H2671 H 0.76607 0.22973 0.55503 0.0
C2672 C 0.72948 0.22571 0.61109 0.0
C2673 C 0.71468 0.22158 0.61042 0.0
C2674 C 0.73595 0.23204 0.59906 0.0
C2675 C 0.72781 0.23437 0.58598 0.0
C2676 C 0.71278 0.23111 0.58555 0.0
C2677 C 0.70626 0.22476 0.59768 0.0
C2678 C 0.73782 0.25349 0.55055 0.0
C2679 C 0.75094 0.24647 0.54748 0.0
C2680 C 0.73008 0.24957 0.56298 0.0
C2681 C 0.73547 0.23871 0.57258 0.0
C2682 C 0.74847 0.23168 0.56933 0.0
C2683 C 0.75606 0.23547 0.55701 0.0
H2684 H 0.31015 0.23416 0.63573 0.0
H2685 H 0.31826 0.19693 0.60856 0.0
H2686 H 0.29738 0.24604 0.6153 0.0
H2687 H 0.30564 0.20899 0.58788 0.0
H2688 H 0.27507 0.23409 0.55493 0.0
H2689 H 0.28243 0.2197 0.57667 0.0
H2690 H 0.30719 0.25668 0.59355 0.0
H2691 H 0.29985 0.2708 0.57238 0.0
C2692 C 0.30915 0.22849 0.62538 0.0
C2693 C 0.31545 0.21473 0.62368 0.0
C2694 C 0.30181 0.23529 0.61366 0.0
C2695 C 0.3007 0.22858 0.59987 0.0
C2696 C 0.30624 0.21443 0.59836 0.0
C2697 C 0.31352 0.20755 0.61018 0.0
C2698 C 0.28192 0.23911 0.56342 0.0
C2699 C 0.2869 0.25356 0.56189 0.0
C2700 C 0.2862 0.23088 0.5758 0.0
C2701 C 0.29532 0.23707 0.58691 0.0
C2702 C 0.29996 0.2516 0.58539 0.0
C2703 C 0.29583 0.25969 0.57311 0.0
H2704 H 0.29599 0.81051 0.61962 0.0
H2705 H 0.33034 0.82724 0.5931 0.0
H2706 H 0.28845 0.79364 0.6001 0.0
H2707 H 0.32275 0.81056 0.57354 0.0
H2708 H 0.31767 0.76728 0.54971 0.0
H2709 H 0.32375 0.78482 0.56889 0.0
H2710 H 0.27786 0.79125 0.57567 0.0
H2711 H 0.27178 0.7732 0.5569 0.0
C2712 C 0.30173 0.81079 0.60951 0.0
C2713 C 0.31383 0.82013 0.60795 0.0
C2714 C 0.29744 0.8011 0.59831 0.0
C2715 C 0.30512 0.80058 0.5853 0.0
C2716 C 0.31681 0.81039 0.58354 0.0
C2717 C 0.32112 0.82001 0.59473 0.0
C2718 C 0.30885 0.77227 0.55538 0.0
C2719 C 0.29421 0.76878 0.55167 0.0
C2720 C 0.31234 0.78252 0.56627 0.0
C2721 C 0.3013 0.78958 0.57377 0.0
C2722 C 0.28666 0.78598 0.57019 0.0
C2723 C 0.28316 0.77572 0.55929 0.0
H2724 H 0.69085 0.83647 0.59799 0.0
H2725 H 0.72618 0.81782 0.62399 0.0
H2726 H 0.70375 0.83096 0.57574 0.0
H2727 H 0.73904 0.81227 0.60177 0.0
H2728 H 0.74875 0.79078 0.55731 0.0
H2729 H 0.73558 0.79587 0.57944 0.0
H2730 H 0.72744 0.83969 0.56422 0.0
H2731 H 0.74065 0.83458 0.54206 0.0
C2732 C 0.7013 0.83106 0.59893 0.0
C2733 C 0.70751 0.82757 0.61272 0.0
C2734 C 0.70874 0.82804 0.58622 0.0
C2735 C 0.72243 0.82123 0.58702 0.0
C2736 C 0.72848 0.81746 0.6008 0.0
C2737 C 0.72116 0.82069 0.61351 0.0
C2738 C 0.74411 0.80148 0.55868 0.0
C2739 C 0.74572 0.81228 0.54794 0.0
C2740 C 0.73666 0.80442 0.57139 0.0
C2741 C 0.73044 0.81816 0.57355 0.0
C2742 C 0.73201 0.82896 0.5628 0.0
C2743 C 0.73968 0.82609 0.55019 0.0
H2744 H 0.679 0.81326 0.41321 0.0
H2745 H 0.72006 0.81929 0.39222 0.0
H2746 H 0.69212 0.80442 0.43523 0.0
H2747 H 0.73304 0.81068 0.41413 0.0
H2748 H 0.75106 0.81666 0.4604 0.0
H2749 H 0.73664 0.82203 0.43853 0.0
H2750 H 0.70928 0.7844 0.44604 0.0
H2751 H 0.72397 0.77887 0.46841 0.0
C2752 C 0.69078 0.81252 0.41319 0.0
C2753 C 0.69847 0.81727 0.40099 0.0
C2754 C 0.69829 0.80743 0.42582 0.0
C2755 C 0.71363 0.80704 0.42652 0.0
C2756 C 0.72123 0.81113 0.41407 0.0
C2757 C 0.71377 0.81614 0.40151 0.0
C2758 C 0.742 0.80943 0.45752 0.0
C2759 C 0.73877 0.79724 0.46622 0.0
C2760 C 0.73375 0.81251 0.44485 0.0
C2761 C 0.72192 0.80355 0.44039 0.0
C2762 C 0.71836 0.79151 0.44919 0.0
C2763 C 0.72678 0.78832 0.46196 0.0
H2764 H 0.70086 0.20072 0.41506 0.0
H2765 H 0.74211 0.20147 0.39375 0.0
H2766 H 0.71298 0.20979 0.43745 0.0
H2767 H 0.7542 0.2106 0.41605 0.0
H2768 H 0.77388 0.21159 0.46238 0.0
H2769 H 0.76131 0.20265 0.44028 0.0
H2770 H 0.725 0.23086 0.44828 0.0
H2771 H 0.73729 0.23934 0.4707 0.0
C2772 C 0.71248 0.20299 0.41509 0.0
C2773 C 0.72051 0.20028 0.4026 0.0
C2774 C 0.71945 0.20819 0.42794 0.0
C2775 C 0.73461 0.21085 0.42863 0.0
C2776 C 0.74257 0.20838 0.41605 0.0
C2777 C 0.73562 0.20317 0.40323 0.0
C2778 C 0.76316 0.21579 0.45955 0.0
C2779 C 0.75666 0.22624 0.4684 0.0
C2780 C 0.756 0.21078 0.44674 0.0
C2781 C 0.74214 0.21607 0.4424 0.0
C2782 C 0.73559 0.22643 0.45131 0.0
C2783 C 0.74275 0.23144 0.46412 0.0
H2784 H 0.33149 0.20121 0.43197 0.0
H2785 H 0.30845 0.23339 0.40587 0.0
H2786 H 0.32535 0.21427 0.45417 0.0
H2787 H 0.30248 0.24653 0.42798 0.0
H2788 H 0.28242 0.25785 0.47152 0.0
H2789 H 0.28766 0.24373 0.44986 0.0
H2790 H 0.33214 0.23825 0.46592 0.0
H2791 H 0.32679 0.25222 0.48781 0.0
C2792 C 0.32495 0.21096 0.431 0.0
C2793 C 0.32045 0.21628 0.4172 0.0
C2794 C 0.32159 0.21853 0.44368 0.0
C2795 C 0.31351 0.23148 0.44282 0.0
C2796 C 0.30865 0.23655 0.42902 0.0
C2797 C 0.31213 0.22907 0.41636 0.0
C2798 C 0.29329 0.25355 0.47049 0.0
C2799 C 0.30419 0.25611 0.48141 0.0
C2800 C 0.29632 0.24556 0.45802 0.0
C2801 C 0.3103 0.23983 0.45619 0.0
C2802 C 0.32122 0.24239 0.4671 0.0
C2803 C 0.31822 0.25052 0.47954 0.0
H2804 H 0.32278 0.82393 0.43425 0.0
H2805 H 0.28217 0.81615 0.41009 0.0
H2806 H 0.31364 0.81018 0.45481 0.0
H2807 H 0.27305 0.80205 0.43063 0.0
H2808 H 0.25896 0.78307 0.47498 0.0
H2809 H 0.26578 0.80126 0.45663 0.0
H2810 H 0.30965 0.78438 0.45771 0.0
H2811 H 0.30304 0.76671 0.47589 0.0
C2812 C 0.31186 0.81932 0.43338 0.0
C2813 C 0.30328 0.82091 0.4205 0.0
C2814 C 0.30661 0.81144 0.44515 0.0
C2815 C 0.29271 0.80479 0.44427 0.0
C2816 C 0.28377 0.80708 0.43169 0.0
C2817 C 0.28901 0.81511 0.41991 0.0
C2818 C 0.27007 0.7834 0.47135 0.0
C2819 C 0.28044 0.77344 0.47691 0.0
C2820 C 0.27396 0.79374 0.46081 0.0
C2821 C 0.2883 0.79436 0.4558 0.0
C2822 C 0.2986 0.78445 0.46152 0.0
C2823 C 0.29474 0.77418 0.4719 0.0
H2824 H 0.60897 0.19872 0.69337 0.0
H2825 H 0.63864 0.21348 0.728 0.0
H2826 H 0.58818 0.20632 0.70759 0.0
H2827 H 0.6179 0.22127 0.7421 0.0
H2828 H 0.57676 0.24836 0.75311 0.0
H2829 H 0.59737 0.24075 0.73875 0.0
H2830 H 0.57735 0.19831 0.73269 0.0
H2831 H 0.55678 0.20591 0.74723 0.0
C2832 C 0.61102 0.20368 0.70397 0.0
C2833 C 0.62538 0.20552 0.7096 0.0
C2834 C 0.59916 0.20793 0.71213 0.0
C2835 C 0.60146 0.21436 0.72594 0.0
C2836 C 0.61583 0.2164 0.73146 0.0
C2837 C 0.62767 0.2119 0.72343 0.0
C2838 C 0.57676 0.23743 0.74867 0.0
C2839 C 0.56518 0.22772 0.75126 0.0
C2840 C 0.58857 0.23305 0.74054 0.0
C2841 C 0.58892 0.21896 0.7346 0.0
C2842 C 0.5773 0.20927 0.73708 0.0
C2843 C 0.56561 0.21356 0.74547 0.0
H2844 H 0.33167 0.10782 0.69927 0.0
H2845 H 0.34004 0.12839 0.74113 0.0
H2846 H 0.32353 0.08574 0.71149 0.0
H2847 H 0.33187 0.1063 0.75337 0.0
H2848 H 0.32896 0.05927 0.77048 0.0
H2849 H 0.33822 0.08097 0.75826 0.0
H2850 H 0.30335 0.07721 0.72547 0.0
H2851 H 0.29447 0.05533 0.73731 0.0
C2852 C 0.33168 0.10768 0.71108 0.0
C2853 C 0.33647 0.11993 0.71919 0.0
C2854 C 0.32701 0.095 0.7181 0.0
C2855 C 0.32698 0.09423 0.73343 0.0
C2856 C 0.33193 0.10642 0.74156 0.0
C2857 C 0.33661 0.11911 0.73453 0.0
C2858 C 0.32335 0.063 0.7606 0.0
C2859 C 0.31092 0.05552 0.75494 0.0
C2860 C 0.32857 0.07554 0.75367 0.0
C2861 C 0.32154 0.08087 0.74086 0.0
C2862 C 0.30915 0.07335 0.73521 0.0
C2863 C 0.30393 0.06087 0.74213 0.0
H2864 H 0.39764 0.79848 0.69509 0.0
H2865 H 0.41998 0.83829 0.70807 0.0
H2866 H 0.41908 0.78448 0.70246 0.0
H2867 H 0.44161 0.82422 0.71545 0.0
H2868 H 0.47232 0.79159 0.7396 0.0
H2869 H 0.45111 0.80633 0.73306 0.0
H2870 H 0.44346 0.78049 0.69414 0.0
H2871 H 0.46468 0.76574 0.70067 0.0
C2872 C 0.40717 0.80426 0.69949 0.0
C2873 C 0.40715 0.81953 0.70083 0.0
C2874 C 0.4195 0.79622 0.70368 0.0
C2875 C 0.43218 0.80322 0.70934 0.0
C2876 C 0.43201 0.81847 0.71118 0.0
C2877 C 0.41962 0.82654 0.70698 0.0
C2878 C 0.46627 0.78915 0.72953 0.0
C2879 C 0.47027 0.77741 0.72066 0.0
C2880 C 0.45406 0.79762 0.7258 0.0
C2881 C 0.4455 0.79457 0.71312 0.0
C2882 C 0.44963 0.78299 0.70414 0.0
C2883 C 0.46183 0.77452 0.70787 0.0
H2884 H 0.67894 0.92327 0.71887 0.0
H2885 H 0.72332 0.9116 0.70999 0.0
H2886 H 0.68783 0.94497 0.7318 0.0
H2887 H 0.73218 0.93344 0.72279 0.0
H2888 H 0.74034 0.98205 0.73242 0.0
H2889 H 0.73152 0.96024 0.7198 0.0
H2890 H 0.70196 0.9516 0.75445 0.0
H2891 H 0.71092 0.97338 0.76726 0.0
C2892 C 0.6906 0.92527 0.71977 0.0
C2893 C 0.70042 0.91565 0.71343 0.0
C2894 C 0.69569 0.93771 0.72718 0.0
C2895 C 0.7107 0.9409 0.72834 0.0
C2896 C 0.72053 0.93136 0.72192 0.0
C2897 C 0.71545 0.91887 0.71456 0.0
C2898 C 0.7321 0.97545 0.73749 0.0
C2899 C 0.72642 0.97949 0.75094 0.0
C2900 C 0.72703 0.96293 0.73021 0.0
C2901 C 0.71609 0.95418 0.73614 0.0
C2902 C 0.7103 0.95823 0.74952 0.0
C2903 C 0.71542 0.97073 0.75686 0.0
H2904 H 0.60028 0.7999 0.30685 0.0
H2905 H 0.5853 0.84436 0.30422 0.0
H2906 H 0.57723 0.79153 0.29538 0.0
H2907 H 0.5625 0.83605 0.29236 0.0
H2908 H 0.51728 0.81284 0.28902 0.0
H2909 H 0.54055 0.82264 0.2984 0.0
H2910 H 0.5634 0.79202 0.27194 0.0
H2911 H 0.54009 0.78203 0.26269 0.0
C2912 C 0.59206 0.80788 0.30386 0.0
C2913 C 0.59466 0.8228 0.30647 0.0
C2914 C 0.57893 0.80311 0.2971 0.0
C2915 C 0.56803 0.81313 0.29285 0.0
C2916 C 0.5706 0.82803 0.29554 0.0
C2917 C 0.58374 0.8328 0.30225 0.0
C2918 C 0.52725 0.80835 0.28499 0.0
C2919 C 0.52677 0.7966 0.27514 0.0
C2920 C 0.54062 0.81399 0.29037 0.0
C2921 C 0.55386 0.808 0.28607 0.0
C2922 C 0.5534 0.79671 0.27569 0.0
C2923 C 0.54002 0.7911 0.27025 0.0
H2924 H 0.70726 0.10258 0.29024 0.0
H2925 H 0.73784 0.10413 0.32731 0.0
H2926 H 0.71968 0.08129 0.28107 0.0
H2927 H 0.75065 0.08331 0.31756 0.0
H2928 H 0.77775 0.0591 0.28107 0.0
H2929 H 0.76528 0.07866 0.29367 0.0
H2930 H 0.72477 0.05443 0.2897 0.0
H2931 H 0.73718 0.03477 0.27739 0.0
C2932 C 0.71651 0.09838 0.29654 0.0
C2933 C 0.72147 0.10524 0.30956 0.0
C2934 C 0.72367 0.08619 0.29121 0.0
C2935 C 0.73613 0.08066 0.2986 0.0
C2936 C 0.74114 0.08743 0.31158 0.0
C2937 C 0.73382 0.09946 0.31708 0.0
C2938 C 0.76626 0.0578 0.28316 0.0
C2939 C 0.75848 0.04536 0.27819 0.0
C2940 C 0.75913 0.069 0.29037 0.0
C2941 C 0.74403 0.06811 0.29251 0.0
C2942 C 0.73638 0.05545 0.28806 0.0
C2943 C 0.74355 0.04414 0.28111 0.0
H2944 H 0.41198 0.21747 0.30752 0.0
H2945 H 0.42216 0.22678 0.35296 0.0
H2946 H 0.43495 0.22901 0.30089 0.0
H2947 H 0.44484 0.23869 0.3463 0.0
H2948 H 0.49171 0.2413 0.32998 0.0
H2949 H 0.46832 0.23131 0.3369 0.0
H2950 H 0.44708 0.25319 0.30033 0.0
H2951 H 0.47053 0.26335 0.29342 0.0
C2952 C 0.41911 0.222 0.31608 0.0
C2953 C 0.41526 0.2212 0.33076 0.0
C2954 C 0.43217 0.22875 0.31227 0.0
C2955 C 0.4417 0.23477 0.32308 0.0
C2956 C 0.4378 0.23405 0.33774 0.0
C2957 C 0.42473 0.22735 0.34154 0.0
C2958 C 0.48207 0.24422 0.32353 0.0
C2959 C 0.48307 0.25313 0.31111 0.0
C2960 C 0.46863 0.23845 0.3275 0.0
C2961 C 0.45586 0.24141 0.31913 0.0
C2962 C 0.45677 0.25052 0.30686 0.0
C2963 C 0.47022 0.25634 0.30291 0.0
H2964 H 0.31938 0.9328 0.33985 0.0
H2965 H 0.2866 0.90742 0.3162 0.0
H2966 H 0.30842 0.95521 0.33053 0.0
H2967 H 0.27483 0.92975 0.30761 0.0
H2968 H 0.26763 0.97139 0.28105 0.0
H2969 H 0.27624 0.94875 0.29169 0.0
H2970 H 0.28989 0.97174 0.33114 0.0
H2971 H 0.28213 0.99463 0.31992 0.0
C2972 C 0.30969 0.9321 0.33275 0.0
C2973 C 0.30389 0.91846 0.3286 0.0
C2974 C 0.30324 0.94494 0.32752 0.0
C2975 C 0.29059 0.94447 0.31828 0.0
C2976 C 0.28469 0.93069 0.31441 0.0
C2977 C 0.29137 0.91785 0.31937 0.0
C2978 C 0.27222 0.97159 0.29211 0.0
C2979 C 0.27424 0.98485 0.29962 0.0
C2980 C 0.27718 0.95851 0.29828 0.0
C2981 C 0.28401 0.95825 0.31229 0.0
C2982 C 0.28513 0.97145 0.32016 0.0
C2983 C 0.28048 0.98459 0.31383 0.0
H2984 H 0.70278 0.10114 0.68725 0.0
H2985 H 0.74152 0.12482 0.70178 0.0
H2986 H 0.71248 0.07896 0.69841 0.0
H2987 H 0.75116 0.10264 0.71333 0.0
H2988 H 0.76697 0.05745 0.72853 0.0
H2989 H 0.75998 0.07716 0.71149 0.0
H2990 H 0.71509 0.07227 0.72364 0.0
H2991 H 0.72193 0.05279 0.74019 0.0
C2992 C 0.71344 0.10155 0.69276 0.0
C2993 C 0.72129 0.11475 0.69385 0.0
C2994 C 0.719 0.08886 0.69917 0.0
C2995 C 0.7325 0.08906 0.707 0.0
C2996 C 0.74078 0.10206 0.70732 0.0
C2997 C 0.73524 0.11478 0.70076 0.0
C2998 C 0.75559 0.06046 0.72729 0.0
C2999 C 0.74502 0.0536 0.73573 0.0
C3000 C 0.75161 0.0718 0.71764 0.0
C3001 C 0.73696 0.07629 0.71615 0.0
C3002 C 0.72641 0.069 0.72427 0.0
C3003 C 0.73038 0.05786 0.73389 0.0
H3004 H 0.70253 0.92191 0.31921 0.0
H3005 H 0.6898 0.90081 0.27856 0.0
H3006 H 0.71221 0.94259 0.30568 0.0
H3007 H 0.69946 0.92141 0.26507 0.0
H3008 H 0.70413 0.96706 0.24579 0.0
H3009 H 0.6944 0.94675 0.25975 0.0
H3010 H 0.73171 0.94947 0.28981 0.0
H3011 H 0.7414 0.96971 0.2759 0.0
C3012 C 0.70193 0.9216 0.3074 0.0
C3013 C 0.6953 0.90971 0.3 0.0
C3014 C 0.70747 0.93348 0.29962 0.0
C3015 C 0.70653 0.93374 0.28426 0.0
C3016 C 0.70009 0.92174 0.27689 0.0
C3017 C 0.69457 0.9099 0.28464 0.0
C3018 C 0.71028 0.9633 0.25534 0.0
C3019 C 0.72354 0.97011 0.25969 0.0
C3020 C 0.70471 0.95163 0.26335 0.0
C3021 C 0.71227 0.94642 0.27592 0.0
C3022 C 0.72547 0.95331 0.28033 0.0
C3023 C 0.73103 0.96498 0.27233 0.0
H3024 H 0.62716 0.19337 0.28292 0.0
H3025 H 0.61043 0.20356 0.32511 0.0
H3026 H 0.60585 0.20462 0.27106 0.0
H3027 H 0.58946 0.21535 0.31326 0.0
H3028 H 0.54746 0.22642 0.28878 0.0
H3029 H 0.56718 0.21144 0.29903 0.0
H3030 H 0.59614 0.22852 0.2669 0.0
H3031 H 0.5764 0.2432 0.25647 0.0
C3032 C 0.61891 0.19791 0.28969 0.0
C3033 C 0.62061 0.19756 0.30502 0.0
C3034 C 0.60673 0.20452 0.28287 0.0
C3035 C 0.59589 0.21097 0.29116 0.0
C3036 C 0.59746 0.21037 0.30648 0.0
C3037 C 0.60963 0.20377 0.3133 0.0
C3038 C 0.55796 0.22678 0.28373 0.0
C3039 C 0.56031 0.2361 0.27181 0.0
C3040 C 0.56933 0.21829 0.28971 0.0
C3041 C 0.58336 0.21886 0.28393 0.0
C3042 C 0.58549 0.22767 0.27159 0.0
C3043 C 0.57414 0.23615 0.26562 0.0
H3044 H 0.30638 0.11933 0.32386 0.0
H3045 H 0.35157 0.10895 0.31742 0.0
H3046 H 0.29884 0.09704 0.31113 0.0
H3047 H 0.34402 0.08706 0.30409 0.0
H3048 H 0.32567 0.04141 0.2937 0.0
H3049 H 0.33353 0.06326 0.30704 0.0
H3050 H 0.29764 0.08705 0.28693 0.0
H3051 H 0.28973 0.06516 0.27375 0.0
C3052 C 0.31472 0.11228 0.3198 0.0
C3053 C 0.32959 0.116 0.32166 0.0
C3054 C 0.31039 0.09958 0.31231 0.0
C3055 C 0.32081 0.09027 0.30646 0.0
C3056 C 0.33569 0.09388 0.30852 0.0
C3057 C 0.34002 0.10656 0.31603 0.0
C3058 C 0.31956 0.05134 0.292 0.0
C3059 C 0.30704 0.05151 0.28268 0.0
C3060 C 0.32405 0.06389 0.29967 0.0
C3061 C 0.31617 0.07693 0.29815 0.0
C3062 C 0.3038 0.07714 0.28862 0.0
C3063 C 0.29928 0.06459 0.28101 0.0
H3064 H 0.40733 0.83572 0.32121 0.0
H3065 H 0.38708 0.79419 0.33051 0.0
H3066 H 0.42868 0.82315 0.31247 0.0
H3067 H 0.40842 0.78166 0.32187 0.0
H3068 H 0.45528 0.76479 0.32039 0.0
H3069 H 0.43396 0.77758 0.32886 0.0
H3070 H 0.4366 0.80766 0.29277 0.0
H3071 H 0.45815 0.79518 0.28459 0.0
C3072 C 0.40734 0.82391 0.32125 0.0
C3073 C 0.39546 0.816 0.32665 0.0
C3074 C 0.41961 0.81669 0.31626 0.0
C3075 C 0.42033 0.80137 0.31654 0.0
C3076 C 0.40838 0.79346 0.32175 0.0
C3077 C 0.39611 0.80067 0.32671 0.0
C3078 C 0.45139 0.77419 0.31433 0.0
C3079 C 0.45847 0.77889 0.30177 0.0
C3080 C 0.43906 0.78145 0.31909 0.0
C3081 C 0.4335 0.79365 0.31148 0.0
C3082 C 0.44063 0.79839 0.29898 0.0
C3083 C 0.45292 0.79111 0.29418 0.0
H3084 H 0.28968 0.91224 0.70255 0.0
H3085 H 0.3332 0.93055 0.70675 0.0
H3086 H 0.27974 0.93482 0.71207 0.0
H3087 H 0.32335 0.95287 0.71664 0.0
H3088 H 0.30112 0.99623 0.7201 0.0
H3089 H 0.30903 0.97376 0.70888 0.0
H3090 H 0.27888 0.94915 0.73463 0.0
H3091 H 0.27079 0.97175 0.74578 0.0
C3092 C 0.29713 0.92107 0.70548 0.0
C3093 C 0.31227 0.91953 0.70385 0.0
C3094 C 0.29144 0.93398 0.71107 0.0
C3095 C 0.30071 0.94574 0.71507 0.0
C3096 C 0.31583 0.94415 0.71348 0.0
C3097 C 0.32152 0.93125 0.70798 0.0
C3098 C 0.29601 0.98607 0.72326 0.0
C3099 C 0.28535 0.98585 0.73392 0.0
C3100 C 0.30065 0.97314 0.7169 0.0
C3101 C 0.29477 0.95958 0.72099 0.0
C3102 C 0.28362 0.95939 0.73116 0.0
C3103 C 0.27897 0.97236 0.73757 0.0
H3104 H 0.6204 0.80178 0.71539 0.0
H3105 H 0.59402 0.83896 0.70341 0.0
H3106 H 0.60059 0.79215 0.72985 0.0
H3107 H 0.57437 0.82954 0.71811 0.0
H3108 H 0.53721 0.79798 0.73138 0.0
H3109 H 0.55676 0.80931 0.71795 0.0
H3110 H 0.5878 0.79777 0.75251 0.0
H3111 H 0.56822 0.78624 0.76593 0.0
C3112 C 0.61034 0.80783 0.71575 0.0
C3113 C 0.60878 0.82112 0.70823 0.0
C3114 C 0.59907 0.80243 0.72421 0.0
C3115 C 0.58594 0.81014 0.72525 0.0
C3116 C 0.58431 0.8233 0.71752 0.0
C3117 C 0.5956 0.82874 0.70915 0.0
C3118 C 0.54816 0.79806 0.73625 0.0
C3119 C 0.55115 0.79116 0.74973 0.0
C3120 C 0.55938 0.80458 0.72854 0.0
C3121 C 0.57388 0.8043 0.73407 0.0
C3122 C 0.57678 0.79796 0.74785 0.0
C3123 C 0.56552 0.79152 0.75562 0.0
H3124 H 0.43324 0.22557 0.69444 0.0
H3125 H 0.41048 0.22912 0.73465 0.0
H3126 H 0.4552 0.23622 0.70645 0.0
H3127 H 0.43219 0.23988 0.74654 0.0
H3128 H 0.47757 0.23407 0.76729 0.0
H3129 H 0.45513 0.22844 0.75382 0.0
H3130 H 0.46741 0.25787 0.71947 0.0
H3131 H 0.49042 0.26354 0.73316 0.0
C3132 C 0.43284 0.2289 0.70575 0.0
C3133 C 0.42022 0.22625 0.71369 0.0
C3134 C 0.44539 0.23505 0.71261 0.0
C3135 C 0.44552 0.23868 0.72752 0.0
C3136 C 0.43257 0.2369 0.73513 0.0
C3137 C 0.42012 0.23071 0.72833 0.0
C3138 C 0.47558 0.23945 0.75689 0.0
C3139 C 0.48587 0.24925 0.7513 0.0
C3140 C 0.46257 0.2363 0.7492 0.0
C3141 C 0.45936 0.2428 0.73561 0.0
C3142 C 0.46958 0.25267 0.72992 0.0
C3143 C 0.4827 0.25597 0.73777 0.0
H3144 H 0.71305 0.73961 0.12391 0.0
H3145 H 0.67282 0.72832 0.10052 0.0
H3146 H 0.72138 0.75272 0.10261 0.0
H3147 H 0.68126 0.74116 0.079 0.0
H3148 H 0.69602 0.77577 0.04658 0.0
H3149 H 0.68686 0.76436 0.06848 0.0
H3150 H 0.72996 0.74789 0.0791 0.0
H3151 H 0.73925 0.7599 0.05777 0.0
C3152 C 0.70601 0.73987 0.11417 0.0
C3153 C 0.69231 0.73284 0.11388 0.0
C3154 C 0.7108 0.74735 0.10191 0.0
C3155 C 0.70209 0.7479 0.08896 0.0
C3156 C 0.68823 0.74113 0.08879 0.0
C3157 C 0.68338 0.73373 0.10113 0.0
C3158 C 0.7036 0.76987 0.05365 0.0
C3159 C 0.71842 0.76881 0.05027 0.0
C3160 C 0.69829 0.76316 0.06616 0.0
C3161 C 0.70764 0.75518 0.07564 0.0
C3162 C 0.72243 0.75411 0.07223 0.0
C3163 C 0.72775 0.76086 0.05979 0.0
H3164 H 0.28792 0.69499 0.1127 0.0
H3165 H 0.32555 0.69014 0.0862 0.0
H3166 H 0.27471 0.7066 0.09221 0.0
H3167 H 0.31234 0.70177 0.06572 0.0
H3168 H 0.28195 0.71718 0.02864 0.0
H3169 H 0.28997 0.69987 0.04778 0.0
H3170 H 0.27956 0.73132 0.08074 0.0
H3171 H 0.27191 0.74852 0.06173 0.0
C3172 C 0.29326 0.69613 0.10241 0.0
C3173 C 0.30781 0.69175 0.1011 0.0
C3174 C 0.28572 0.70282 0.0907 0.0
C3175 C 0.29249 0.7051 0.07736 0.0
C3176 C 0.30677 0.70003 0.07581 0.0
C3177 C 0.31439 0.69351 0.08758 0.0
C3178 C 0.28095 0.72012 0.03999 0.0
C3179 C 0.27624 0.73409 0.04377 0.0
C3180 C 0.28566 0.71032 0.05092 0.0
C3181 C 0.28543 0.71427 0.06576 0.0
C3182 C 0.27974 0.72789 0.06944 0.0
C3183 C 0.27536 0.73774 0.05857 0.0
H3184 H 0.32779 0.27921 0.12121 0.0
H3185 H 0.32741 0.32226 0.10209 0.0
H3186 H 0.31503 0.26953 0.09931 0.0
H3187 H 0.31476 0.31263 0.08033 0.0
H3188 H 0.27417 0.29544 0.05575 0.0
H3189 H 0.28996 0.30364 0.07584 0.0
H3190 H 0.31596 0.26488 0.07221 0.0
H3191 H 0.2998 0.25644 0.05185 0.0
C3192 C 0.3252 0.28656 0.11226 0.0
C3193 C 0.32841 0.30156 0.11351 0.0
C3194 C 0.31791 0.28101 0.0997 0.0
C3195 C 0.3137 0.29034 0.08814 0.0
C3196 C 0.31756 0.30519 0.08915 0.0
C3197 C 0.32479 0.31072 0.10166 0.0
C3198 C 0.28325 0.28861 0.05912 0.0
C3199 C 0.28569 0.27525 0.05214 0.0
C3200 C 0.29241 0.2934 0.07063 0.0
C3201 C 0.30432 0.285 0.07559 0.0
C3202 C 0.30684 0.27159 0.06866 0.0
C3203 C 0.29765 0.2668 0.05697 0.0
H3204 H 0.68656 0.32515 0.11227 0.0
H3205 H 0.72892 0.34585 0.11806 0.0
H3206 H 0.69472 0.31279 0.09067 0.0
H3207 H 0.73681 0.33415 0.09588 0.0
H3208 H 0.75133 0.29838 0.06489 0.0
H3209 H 0.74344 0.31105 0.08655 0.0
H3210 H 0.70063 0.3166 0.06606 0.0
H3211 H 0.70849 0.30363 0.04458 0.0
C3212 C 0.69763 0.32709 0.10895 0.0
C3213 C 0.7071 0.33645 0.11703 0.0
C3214 C 0.70225 0.32015 0.09638 0.0
C3215 C 0.71644 0.32245 0.09145 0.0
C3216 C 0.72587 0.33195 0.09943 0.0
C3217 C 0.72127 0.33883 0.11207 0.0
C3218 C 0.74027 0.3024 0.06499 0.0
C3219 C 0.73053 0.29996 0.05303 0.0
C3220 C 0.73574 0.30971 0.0774 0.0
C3221 C 0.72137 0.31488 0.07812 0.0
C3222 C 0.71168 0.31255 0.06605 0.0
C3223 C 0.71619 0.30513 0.0537 0.0
H3224 H 0.71638 0.35666 0.92225 0.0
H3225 H 0.71336 0.31307 0.90458 0.0
H3226 H 0.72831 0.3472 0.94444 0.0
H3227 H 0.72542 0.30359 0.92674 0.0
H3228 H 0.73558 0.28998 0.97393 0.0
H3229 H 0.72242 0.29947 0.95245 0.0
H3230 H 0.75135 0.33693 0.95243 0.0
H3231 H 0.76431 0.32761 0.97412 0.0
C3232 C 0.71832 0.34505 0.92309 0.0
C3233 C 0.71398 0.33563 0.91161 0.0
C3234 C 0.72519 0.33963 0.9358 0.0
C3235 C 0.72795 0.32464 0.93736 0.0
C3236 C 0.72333 0.31518 0.926 0.0
C3237 C 0.71641 0.3206 0.91328 0.0
C3238 C 0.73913 0.30026 0.96937 0.0
C3239 C 0.75101 0.30804 0.97576 0.0
C3240 C 0.73162 0.30566 0.95699 0.0
C3241 C 0.73581 0.31897 0.95067 0.0
C3242 C 0.74768 0.32676 0.95711 0.0
C3243 C 0.75518 0.32137 0.96951 0.0
H3244 H 0.72837 0.69696 0.91892 0.0
H3245 H 0.7154 0.73786 0.89924 0.0
H3246 H 0.73603 0.70988 0.94137 0.0
H3247 H 0.72283 0.7506 0.92157 0.0
H3248 H 0.71768 0.76537 0.96792 0.0
H3249 H 0.71266 0.75108 0.94613 0.0
H3250 H 0.75385 0.72915 0.95252 0.0
H3251 H 0.75901 0.74367 0.97474 0.0
C3252 C 0.72731 0.7087 0.91928 0.0
C3253 C 0.72101 0.71631 0.90729 0.0
C3254 C 0.73171 0.71609 0.93216 0.0
C3255 C 0.72984 0.73124 0.93336 0.0
C3256 C 0.72412 0.73888 0.92116 0.0
C3257 C 0.7198 0.73154 0.90834 0.0
C3258 C 0.72574 0.7575 0.96481 0.0
C3259 C 0.73885 0.75581 0.97309 0.0
C3260 C 0.72285 0.74934 0.9522 0.0
C3261 C 0.73294 0.73914 0.9474 0.0
C3262 C 0.74585 0.73695 0.95592 0.0
C3263 C 0.74882 0.74527 0.96863 0.0
H3264 H 0.3596 0.71811 0.91798 0.0
H3265 H 0.31535 0.70996 0.90205 0.0
H3266 H 0.35041 0.72921 0.93997 0.0
H3267 H 0.30616 0.72109 0.92398 0.0
H3268 H 0.29491 0.72808 0.97117 0.0
H3269 H 0.30493 0.71653 0.94994 0.0
H3270 H 0.33743 0.75082 0.94778 0.0
H3271 H 0.32737 0.76238 0.96917 0.0
C3272 C 0.34791 0.71877 0.91914 0.0
C3273 C 0.3382 0.71314 0.90828 0.0
C3274 C 0.34265 0.72515 0.93172 0.0
C3275 C 0.32756 0.72603 0.93374 0.0
C3276 C 0.31785 0.72037 0.92288 0.0
C3277 C 0.32311 0.71398 0.91031 0.0
C3278 C 0.30413 0.73322 0.96613 0.0
C3279 C 0.31025 0.74624 0.97178 0.0
C3280 C 0.30988 0.72659 0.95394 0.0
C3281 C 0.32189 0.73282 0.94707 0.0
C3282 C 0.32824 0.74567 0.9529 0.0
C3283 C 0.32249 0.7523 0.96515 0.0
H3284 H 0.33038 0.3307 0.93373 0.0
H3285 H 0.29895 0.31282 0.90228 0.0
H3286 H 0.31579 0.32138 0.95365 0.0
H3287 H 0.28446 0.30329 0.92222 0.0
H3288 H 0.27565 0.27351 0.96313 0.0
H3289 H 0.28905 0.28369 0.94276 0.0
H3290 H 0.28967 0.3259 0.96352 0.0
H3291 H 0.27608 0.31574 0.98379 0.0
C3292 C 0.32036 0.32476 0.9311 0.0
C3293 C 0.31579 0.32247 0.91647 0.0
C3294 C 0.31197 0.31951 0.94248 0.0
C3295 C 0.299 0.31161 0.93947 0.0
C3296 C 0.29445 0.30929 0.92484 0.0
C3297 C 0.30268 0.3148 0.91346 0.0
C3298 C 0.27863 0.28496 0.9633 0.0
C3299 C 0.27483 0.29384 0.97504 0.0
C3300 C 0.28621 0.2908 0.95162 0.0
C3301 C 0.29041 0.30557 0.95158 0.0
C3302 C 0.28661 0.31446 0.96331 0.0
C3303 C 0.27877 0.30868 0.97484 0.0
H3304 H 0.61859 0.71524 0.23326 0.0
H3305 H 0.59101 0.70022 0.19707 0.0
H3306 H 0.59692 0.72157 0.24668 0.0
H3307 H 0.56932 0.70645 0.21056 0.0
H3308 H 0.53502 0.70514 0.2469 0.0
H3309 H 0.55692 0.69803 0.23416 0.0
H3310 H 0.57625 0.74027 0.2433 0.0
H3311 H 0.55434 0.74738 0.25592 0.0
C3312 C 0.60789 0.71322 0.22822 0.0
C3313 C 0.60649 0.70725 0.21411 0.0
C3314 C 0.5955 0.71691 0.23586 0.0
C3315 C 0.58143 0.71449 0.22967 0.0
C3316 C 0.58002 0.70834 0.21564 0.0
C3317 C 0.59242 0.70488 0.20789 0.0
C3318 C 0.54401 0.71283 0.24629 0.0
C3319 C 0.54297 0.72682 0.25239 0.0
C3320 C 0.55647 0.70882 0.2389 0.0
C3321 C 0.56828 0.7186 0.23772 0.0
C3322 C 0.56736 0.73247 0.2441 0.0
C3323 C 0.5548 0.73657 0.25125 0.0
H3324 H 0.34834 0.60644 0.22025 0.0
H3325 H 0.30659 0.6026 0.19703 0.0
H3326 H 0.34254 0.58505 0.23462 0.0
H3327 H 0.30124 0.58058 0.21069 0.0
H3328 H 0.28908 0.55012 0.24751 0.0
H3329 H 0.29479 0.57207 0.23378 0.0
H3330 H 0.34015 0.55957 0.23386 0.0
H3331 H 0.3344 0.53786 0.24801 0.0
C3332 C 0.3379 0.60106 0.21817 0.0
C3333 C 0.32791 0.60641 0.20748 0.0
C3334 C 0.33467 0.5886 0.2263 0.0
C3335 C 0.32141 0.58098 0.22387 0.0
C3336 C 0.31148 0.58623 0.21307 0.0
C3337 C 0.31465 0.59879 0.20504 0.0
C3338 C 0.30026 0.55207 0.24456 0.0
C3339 C 0.31128 0.54225 0.24884 0.0
C3340 C 0.30355 0.56464 0.23662 0.0
C3341 C 0.31795 0.56766 0.23258 0.0
C3342 C 0.32898 0.55781 0.23694 0.0
C3343 C 0.3257 0.54532 0.24504 0.0
H3344 H 0.41401 0.28162 0.21904 0.0
H3345 H 0.4396 0.31864 0.20562 0.0
H3346 H 0.43587 0.27044 0.22981 0.0
H3347 H 0.46164 0.30727 0.21579 0.0
H3348 H 0.49574 0.29061 0.24907 0.0
H3349 H 0.47441 0.30153 0.23724 0.0
H3350 H 0.45774 0.25864 0.22578 0.0
H3351 H 0.47885 0.2477 0.23834 0.0
C3352 C 0.42437 0.2873 0.21826 0.0
C3353 C 0.42505 0.30105 0.21153 0.0
C3354 C 0.43698 0.28084 0.22436 0.0
C3355 C 0.45069 0.28785 0.22372 0.0
C3356 C 0.45133 0.30158 0.21681 0.0
C3357 C 0.43867 0.30813 0.21091 0.0
C3358 C 0.4876 0.28348 0.24391 0.0
C3359 C 0.48905 0.26824 0.2447 0.0
C3360 C 0.47532 0.28978 0.23702 0.0
C3361 C 0.46416 0.28105 0.23051 0.0
C3362 C 0.46586 0.26578 0.23091 0.0
C3363 C 0.47808 0.25947 0.23799 0.0
H3364 H 0.71422 0.448 0.19151 0.0
H3365 H 0.71047 0.42862 0.23419 0.0
H3366 H 0.72376 0.4704 0.2028 0.0
H3367 H 0.71951 0.45114 0.24548 0.0
H3368 H 0.75252 0.48768 0.25848 0.0
H3369 H 0.74188 0.46536 0.24819 0.0
H3370 H 0.7157 0.49077 0.2176 0.0
H3371 H 0.72652 0.51312 0.22771 0.0
C3372 C 0.71547 0.4485 0.20329 0.0
C3373 C 0.71155 0.43653 0.21194 0.0
C3374 C 0.72076 0.4614 0.20978 0.0
C3375 C 0.7223 0.4626 0.22506 0.0
C3376 C 0.71853 0.45057 0.23369 0.0
C3377 C 0.71323 0.4377 0.22721 0.0
C3378 C 0.74434 0.48854 0.2497 0.0
C3379 C 0.74042 0.50221 0.24389 0.0
C3380 C 0.73822 0.47573 0.2438 0.0
C3381 C 0.72805 0.47627 0.23196 0.0
C3382 C 0.72372 0.48996 0.22653 0.0
C3383 C 0.72981 0.50279 0.23244 0.0
H3384 H 0.62835 0.31006 0.81681 0.0
H3385 H 0.61261 0.35028 0.79775 0.0
H3386 H 0.60793 0.29695 0.80538 0.0
H3387 H 0.59222 0.33692 0.78572 0.0
H3388 H 0.5487 0.30768 0.78406 0.0
H3389 H 0.56943 0.3236 0.79136 0.0
H3390 H 0.59917 0.28888 0.78191 0.0
H3391 H 0.57857 0.27303 0.77524 0.0
C3392 C 0.62051 0.31613 0.81016 0.0
C3393 C 0.62211 0.33127 0.80832 0.0
C3394 C 0.60887 0.30855 0.80339 0.0
C3395 C 0.59846 0.31582 0.79446 0.0
C3396 C 0.60001 0.33098 0.79254 0.0
C3397 C 0.61176 0.33861 0.79934 0.0
C3398 C 0.55971 0.30368 0.78316 0.0
C3399 C 0.56209 0.28915 0.77917 0.0
C3400 C 0.57159 0.31276 0.78738 0.0
C3401 C 0.58598 0.30741 0.78757 0.0
C3402 C 0.58826 0.29324 0.78233 0.0
C3403 C 0.57646 0.2842 0.77834 0.0
H3404 H 0.71647 0.62247 0.78835 0.0
H3405 H 0.73814 0.61105 0.82937 0.0
H3406 H 0.72636 0.60081 0.7771 0.0
H3407 H 0.74867 0.58993 0.81793 0.0
H3408 H 0.75483 0.54588 0.79972 0.0
H3409 H 0.74174 0.56659 0.8091 0.0
H3410 H 0.74827 0.58984 0.76878 0.0
H3411 H 0.76095 0.56866 0.75921 0.0
C3412 C 0.72335 0.61537 0.79499 0.0
C3413 C 0.72638 0.6185 0.80985 0.0
C3414 C 0.72916 0.60301 0.78846 0.0
C3415 C 0.7382 0.59347 0.7966 0.0
C3416 C 0.74149 0.59681 0.81137 0.0
C3417 C 0.73563 0.6091 0.8179 0.0
C3418 C 0.75313 0.55528 0.79273 0.0
C3419 C 0.75886 0.55567 0.77874 0.0
C3420 C 0.74581 0.56726 0.79817 0.0
C3421 C 0.74426 0.58009 0.78988 0.0
C3422 C 0.74923 0.58015 0.77549 0.0
C3423 C 0.75642 0.56801 0.76994 0.0
H3424 H 0.41322 0.73666 0.80137 0.0
H3425 H 0.44184 0.70563 0.82278 0.0
H3426 H 0.43426 0.75003 0.79263 0.0
H3427 H 0.46303 0.71934 0.81474 0.0
H3428 H 0.49639 0.7371 0.78302 0.0
H3429 H 0.47646 0.72456 0.79447 0.0
H3430 H 0.4539 0.76547 0.79854 0.0
H3431 H 0.47362 0.77792 0.78626 0.0
C3432 C 0.42407 0.7328 0.80431 0.0
C3433 C 0.42592 0.72007 0.81265 0.0
C3434 C 0.43618 0.74054 0.79944 0.0
C3435 C 0.45047 0.73588 0.80301 0.0
C3436 C 0.45226 0.72318 0.81153 0.0
C3437 C 0.44012 0.7153 0.81617 0.0
C3438 C 0.4873 0.7435 0.78657 0.0
C3439 C 0.48657 0.75853 0.7836 0.0
C3440 C 0.47582 0.73627 0.79322 0.0
C3441 C 0.46337 0.7439 0.79732 0.0
C3442 C 0.46309 0.75912 0.79519 0.0
C3443 C 0.47449 0.76632 0.7883 0.0
H3444 H 0.33848 0.42523 0.83462 0.0
H3445 H 0.33985 0.40016 0.7949 0.0
H3446 H 0.33238 0.44697 0.82046 0.0
H3447 H 0.33339 0.42179 0.78069 0.0
H3448 H 0.3344 0.46599 0.75817 0.0
H3449 H 0.34195 0.44486 0.77254 0.0
H3450 H 0.3132 0.45765 0.80649 0.0
H3451 H 0.30634 0.47912 0.79258 0.0
C3452 C 0.33733 0.42434 0.82286 0.0
C3453 C 0.33963 0.41095 0.8159 0.0
C3454 C 0.3338 0.43681 0.81471 0.0
C3455 C 0.33234 0.43621 0.79937 0.0
C3456 C 0.33466 0.42278 0.79243 0.0
C3457 C 0.33831 0.41034 0.80059 0.0
C3458 C 0.32982 0.46444 0.76877 0.0
C3459 C 0.31967 0.47436 0.77409 0.0
C3460 C 0.33402 0.45217 0.77697 0.0
C3461 C 0.32816 0.44944 0.7907 0.0
C3462 C 0.31811 0.45942 0.79606 0.0
C3463 C 0.31399 0.47171 0.78793 0.0
H3464 H 0.73609 0.64442 0.20383 0.0
H3465 H 0.70011 0.61475 0.19455 0.0
H3466 H 0.75158 0.62384 0.21096 0.0
H3467 H 0.71556 0.59419 0.20176 0.0
H3468 H 0.75209 0.56022 0.20133 0.0
H3469 H 0.73783 0.58125 0.193 0.0
H3470 H 0.75272 0.60525 0.23128 0.0
H3471 H 0.76704 0.58425 0.23954 0.0
C3472 C 0.73151 0.6335 0.20327 0.0
C3473 C 0.71687 0.63121 0.19865 0.0
C3474 C 0.74035 0.62173 0.20743 0.0
C3475 C 0.7348 0.60739 0.2069 0.0
C3476 C 0.72019 0.6051 0.20216 0.0
C3477 C 0.7113 0.61687 0.19818 0.0
C3478 C 0.75249 0.57006 0.20784 0.0
C3479 C 0.76069 0.57058 0.22109 0.0
C3480 C 0.7442 0.58205 0.20315 0.0
C3481 C 0.7441 0.59488 0.21152 0.0
C3482 C 0.75264 0.59555 0.22455 0.0
C3483 C 0.76076 0.5835 0.22933 0.0
H3484 H 0.7473 0.40992 0.81157 0.0
H3485 H 0.70977 0.43787 0.81321 0.0
H3486 H 0.76222 0.43053 0.80404 0.0
H3487 H 0.72472 0.4586 0.8059 0.0
H3488 H 0.75231 0.48962 0.77937 0.0
H3489 H 0.73743 0.46884 0.78604 0.0
H3490 H 0.77304 0.45264 0.81344 0.0
H3491 H 0.78826 0.47312 0.80614 0.0
C3492 C 0.74225 0.4205 0.81036 0.0
C3493 C 0.72735 0.42226 0.81301 0.0
C3494 C 0.75082 0.43234 0.80611 0.0
C3495 C 0.74474 0.4463 0.80446 0.0
C3496 C 0.72976 0.448 0.80688 0.0
C3497 C 0.72117 0.43611 0.81106 0.0
C3498 C 0.7571 0.48157 0.78666 0.0
C3499 C 0.77161 0.48307 0.79209 0.0
C3500 C 0.74844 0.4697 0.79066 0.0
C3501 C 0.75399 0.459 0.80028 0.0
C3502 C 0.76845 0.46055 0.80584 0.0
C3503 C 0.77714 0.47241 0.80179 0.0
H3504 H 0.63437 0.72639 0.80201 0.0
H3505 H 0.61538 0.68345 0.80653 0.0
H3506 H 0.61292 0.73402 0.78749 0.0
H3507 H 0.59386 0.69108 0.79225 0.0
H3508 H 0.56336 0.70456 0.75458 0.0
H3509 H 0.58563 0.69734 0.76802 0.0
H3510 H 0.58763 0.73943 0.78916 0.0
H3511 H 0.56561 0.74664 0.77564 0.0
C3512 C 0.62553 0.71863 0.80005 0.0
C3513 C 0.62661 0.7043 0.8054 0.0
C3514 C 0.61322 0.72299 0.79171 0.0
C3515 C 0.60164 0.71315 0.78859 0.0
C3516 C 0.60267 0.69888 0.79413 0.0
C3517 C 0.61499 0.69451 0.80239 0.0
C3518 C 0.5686 0.71227 0.76206 0.0
C3519 C 0.56268 0.72619 0.76395 0.0
C3520 C 0.58134 0.70812 0.76983 0.0
C3521 C 0.58845 0.71777 0.77977 0.0
C3522 C 0.58264 0.73177 0.78146 0.0
C3523 C 0.56996 0.73593 0.77365 0.0
H3524 H 0.33285 0.62661 0.78932 0.0
H3525 H 0.3289 0.6065 0.83164 0.0
H3526 H 0.32206 0.60501 0.77776 0.0
H3527 H 0.31797 0.5848 0.81998 0.0
H3528 H 0.28788 0.55277 0.79185 0.0
H3529 H 0.29621 0.57501 0.80481 0.0
H3530 H 0.33094 0.58015 0.77458 0.0
H3531 H 0.32275 0.55841 0.76178 0.0
C3532 C 0.32974 0.61756 0.79617 0.0
C3533 C 0.33196 0.61823 0.8114 0.0
C3534 C 0.32349 0.60518 0.78954 0.0
C3535 C 0.3193 0.59311 0.79795 0.0
C3536 C 0.321 0.59395 0.81322 0.0
C3537 C 0.32728 0.60638 0.81988 0.0
C3538 C 0.29729 0.55868 0.78804 0.0
C3539 C 0.30457 0.55382 0.77573 0.0
C3540 C 0.30208 0.57137 0.79546 0.0
C3541 C 0.31413 0.57944 0.79059 0.0
C3542 C 0.32145 0.57439 0.77844 0.0
C3543 C 0.31676 0.56181 0.77114 0.0
H3544 H 0.43965 0.32769 0.84527 0.0
H3545 H 0.41301 0.28994 0.83428 0.0
H3546 H 0.46125 0.315 0.83711 0.0
H3547 H 0.43462 0.27724 0.82616 0.0
H3548 H 0.47305 0.26958 0.79499 0.0
H3549 H 0.45151 0.28064 0.80515 0.0
H3550 H 0.47709 0.29312 0.84367 0.0
H3551 H 0.4987 0.28205 0.83343 0.0
C3552 C 0.43843 0.31666 0.84116 0.0
C3553 C 0.42463 0.30982 0.84038 0.0
C3554 C 0.45081 0.30936 0.8366 0.0
C3555 C 0.44963 0.29513 0.83098 0.0
C3556 C 0.43586 0.28823 0.83036 0.0
C3557 C 0.42351 0.29546 0.8351 0.0
C3558 C 0.47405 0.27467 0.80564 0.0
C3559 C 0.48757 0.27501 0.81339 0.0
C3560 C 0.4617 0.28089 0.81151 0.0
C3561 C 0.46261 0.28777 0.8252 0.0
C3562 C 0.47608 0.28797 0.83305 0.0
C3563 C 0.48841 0.28154 0.82726 0.0
H3564 H 0.30751 0.3907 0.20731 0.0
H3565 H 0.34988 0.4116 0.20681 0.0
H3566 H 0.29728 0.41274 0.21774 0.0
H3567 H 0.33969 0.43361 0.21697 0.0
H3568 H 0.32245 0.46117 0.25346 0.0
H3569 H 0.33133 0.44064 0.24011 0.0
H3570 H 0.29082 0.4386 0.21458 0.0
H3571 H 0.28162 0.45935 0.22845 0.0
C3572 C 0.31461 0.40006 0.20924 0.0
C3573 C 0.32959 0.39928 0.2064 0.0
C3574 C 0.30872 0.41273 0.21517 0.0
C3575 C 0.31765 0.42496 0.21837 0.0
C3576 C 0.33251 0.42432 0.21499 0.0
C3577 C 0.33839 0.41167 0.20916 0.0
C3578 C 0.31536 0.45647 0.24497 0.0
C3579 C 0.30126 0.46197 0.24208 0.0
C3580 C 0.32056 0.44469 0.23718 0.0
C3581 C 0.31189 0.43794 0.22614 0.0
C3582 C 0.29779 0.44347 0.22307 0.0
C3583 C 0.29254 0.45542 0.23092 0.0
H3584 H 0.6328 0.34157 0.24135 0.0
H3585 H 0.60973 0.33118 0.20071 0.0
H3586 H 0.61293 0.33093 0.25485 0.0
H3587 H 0.58979 0.32052 0.21424 0.0
H3588 H 0.56594 0.2881 0.24381 0.0
H3589 H 0.58483 0.29957 0.22968 0.0
H3590 H 0.58753 0.33526 0.26039 0.0
H3591 H 0.56856 0.32374 0.27457 0.0
C3592 C 0.62342 0.33713 0.2353 0.0
C3593 C 0.62283 0.33725 0.21995 0.0
C3594 C 0.61201 0.33105 0.24304 0.0
C3595 C 0.59974 0.32494 0.23563 0.0
C3596 C 0.59917 0.325 0.22028 0.0
C3597 C 0.6106 0.33108 0.21252 0.0
C3598 C 0.57035 0.29851 0.24744 0.0
C3599 C 0.5657 0.30501 0.26034 0.0
C3600 C 0.58122 0.30508 0.23933 0.0
C3601 C 0.58772 0.31831 0.24392 0.0
C3602 C 0.5829 0.32494 0.25668 0.0
C3603 C 0.57202 0.31836 0.2648 0.0
H3604 H 0.38989 0.72341 0.21604 0.0
H3605 H 0.41892 0.71322 0.18153 0.0
H3606 H 0.40975 0.73595 0.22936 0.0
H3607 H 0.439 0.72567 0.19504 0.0
H3608 H 0.47038 0.7565 0.22255 0.0
H3609 H 0.44956 0.74913 0.20635 0.0
H3610 H 0.43102 0.72529 0.24197 0.0
H3611 H 0.45134 0.73258 0.25788 0.0
C3612 C 0.40052 0.72397 0.21125 0.0
C3613 C 0.40291 0.71711 0.19788 0.0
C3614 C 0.4119 0.73116 0.21887 0.0
C3615 C 0.42603 0.73158 0.21339 0.0
C3616 C 0.42824 0.72558 0.19953 0.0
C3617 C 0.41676 0.71842 0.19182 0.0
C3618 C 0.46175 0.74979 0.22687 0.0
C3619 C 0.46254 0.74512 0.2415 0.0
C3620 C 0.44989 0.74552 0.2176 0.0
C3621 C 0.43856 0.73673 0.22291 0.0
C3622 C 0.43938 0.73228 0.23756 0.0
C3623 C 0.45116 0.73638 0.24669 0.0
loop_
_geom_bond_atom_site_label_1
_geom_bond_atom_site_label_2
_geom_bond_distance
_geom_bond_site_symmetry_2
_ccdc_geom_bond_type
C0 C1 1.384 . S
C0 H13 0.947 . S
C0 C35 1.382 . S
C1 C0 1.384 . S
C1 C2 1.378 . S
C2 C1 1.378 . S
C2 C3 1.378 . S
C2 H14 0.952 . S
C3 C2 1.378 . S
C3 H15 0.950 . S
C3 C34 1.383 . S
H4 C23 0.947 . S
H5 C24 0.946 . S
H6 C26 0.953 . S
H7 C27 0.945 . S
H8 C29 0.952 . S
H9 C30 0.949 . S
H10 C32 0.950 . S
H11 C33 0.948 . S
H12 C35 0.951 . S
H13 C0 0.947 . S
H14 C2 0.952 . S
H15 C3 0.950 . S
N16 C19 1.382 . S
N16 C21 1.363 . S
N17 C19 1.371 . S
N17 C20 1.372 . S
N18 C20 1.361 . S
N18 C21 1.377 . S
C19 N16 1.382 . S
C19 N17 1.371 . S
C19 C22 1.480 . S
C20 N17 1.372 . S
C20 N18 1.361 . S
C20 C28 1.457 . S
C21 N16 1.363 . S
C21 N18 1.377 . S
C21 C34 1.479 . S
C22 C19 1.480 . S
C22 C23 1.383 . S
C22 C27 1.385 . S
C23 H4 0.947 . S
C23 C22 1.383 . S
C23 C24 1.388 . S
C24 H5 0.946 . S
C24 C23 1.388 . S
C24 C25 1.384 . S
C25 C24 1.384 . S
C25 C26 1.377 . S
C26 H6 0.953 . S
C26 C25 1.377 . S
C26 C27 1.369 . S
C27 H7 0.945 . S
C27 C22 1.385 . S
C27 C26 1.369 . S
C28 C20 1.457 . S
C28 C29 1.372 . S
C28 C33 1.364 . S
C29 H8 0.952 . S
C29 C28 1.372 . S
C29 C30 1.389 . S
C30 H9 0.949 . S
C30 C29 1.389 . S
C30 C31 1.387 . S
C31 C30 1.387 . S
C31 C32 1.372 . S
C32 H10 0.950 . S
C32 C31 1.372 . S
C32 C33 1.379 . S
C33 H11 0.948 . S
C33 C28 1.364 . S
C33 C32 1.379 . S
C34 C3 1.383 . S
C34 C21 1.479 . S
C34 C35 1.398 . S
C35 C0 1.382 . S
C35 H12 0.951 . S
C35 C34 1.398 . S
C36 C37 1.384 . S
C36 H49 0.947 . S
C36 C71 1.382 . S
C37 C36 1.384 . S
C37 C38 1.378 . S
C38 C37 1.378 . S
C38 C39 1.378 . S
C38 H50 0.952 . S
C39 C38 1.378 . S
C39 H51 0.950 . S
C39 C70 1.383 . S
H40 C59 0.947 . S
H41 C60 0.946 . S
H42 C62 0.953 . S
H43 C63 0.945 . S
H44 C65 0.952 . S
H45 C66 0.949 . S
H46 C68 0.950 . S
H47 C69 0.948 . S
H48 C71 0.951 . S
H49 C36 0.947 . S
H50 C38 0.952 . S
H51 C39 0.950 . S
N52 C55 1.382 . S
N52 C57 1.363 . S
N53 C55 1.371 . S
N53 C56 1.372 . S
N54 C56 1.361 . S
N54 C57 1.377 . S
C55 N52 1.382 . S
C55 N53 1.371 . S
C55 C58 1.480 . S
C56 N53 1.372 . S
C56 N54 1.361 . S
C56 C64 1.457 . S
C57 N52 1.363 . S
C57 N54 1.377 . S
C57 C70 1.479 . S
C58 C55 1.480 . S
C58 C59 1.383 . S
C58 C63 1.385 . S
C59 H40 0.947 . S
C59 C58 1.383 . S
C59 C60 1.388 . S
C60 H41 0.946 . S
C60 C59 1.388 . S
C60 C61 1.384 . S
C61 C60 1.384 . S
C61 C62 1.377 . S
C62 H42 0.953 . S
C62 C61 1.377 . S
C62 C63 1.369 . S
C63 H43 0.945 . S
C63 C58 1.385 . S
C63 C62 1.369 . S
C64 C56 1.457 . S
C64 C65 1.372 . S
C64 C69 1.364 . S
C65 H44 0.952 . S
C65 C64 1.372 . S
C65 C66 1.389 . S
C66 H45 0.949 . S
C66 C65 1.389 . S
C66 C67 1.387 . S
C67 C66 1.387 . S
C67 C68 1.372 . S
C68 H46 0.950 . S
C68 C67 1.372 . S
C68 C69 1.379 . S
C69 H47 0.948 . S
C69 C64 1.364 . S
C69 C68 1.379 . S
C70 C39 1.383 . S
C70 C57 1.479 . S
C70 C71 1.398 . S
C71 C36 1.382 . S
C71 H48 0.951 . S
C71 C70 1.398 . S
C72 C73 1.384 . S
C72 H85 0.947 . S
C72 C107 1.382 . S
C73 C72 1.384 . S
C73 C74 1.378 . S
C74 C73 1.378 . S
C74 C75 1.378 . S
C74 H86 0.952 . S
C75 C74 1.378 . S
C75 H87 0.950 . S
C75 C106 1.383 . S
H76 C95 0.947 . S
H77 C96 0.946 . S
H78 C98 0.953 . S
H79 C99 0.945 . S
H80 C101 0.952 . S
H81 C102 0.949 . S
H82 C104 0.950 . S
H83 C105 0.948 . S
H84 C107 0.951 . S
H85 C72 0.947 . S
H86 C74 0.952 . S
H87 C75 0.950 . S
N88 C91 1.382 . S
N88 C93 1.363 . S
N89 C91 1.371 . S
N89 C92 1.372 . S
N90 C92 1.361 . S
N90 C93 1.377 . S
C91 N88 1.382 . S
C91 N89 1.371 . S
C91 C94 1.480 . S
C92 N89 1.372 . S
C92 N90 1.361 . S
C92 C100 1.457 . S
C93 N88 1.363 . S
C93 N90 1.377 . S
C93 C106 1.479 . S
C94 C91 1.480 . S
C94 C95 1.383 . S
C94 C99 1.385 . S
C95 H76 0.947 . S
C95 C94 1.383 . S
C95 C96 1.388 . S
C96 H77 0.946 . S
C96 C95 1.388 . S
C96 C97 1.384 . S
C97 C96 1.384 . S
C97 C98 1.377 . S
C98 H78 0.953 . S
C98 C97 1.377 . S
C98 C99 1.369 . S
C99 H79 0.945 . S
C99 C94 1.385 . S
C99 C98 1.369 . S
C100 C92 1.457 . S
C100 C101 1.372 . S
C100 C105 1.364 . S
C101 H80 0.952 . S
C101 C100 1.372 . S
C101 C102 1.389 . S
C102 H81 0.949 . S
C102 C101 1.389 . S
C102 C103 1.387 . S
C103 C102 1.387 . S
C103 C104 1.372 . S
C104 H82 0.950 . S
C104 C103 1.372 . S
C104 C105 1.379 . S
C105 H83 0.948 . S
C105 C100 1.364 . S
C105 C104 1.379 . S
C106 C75 1.383 . S
C106 C93 1.479 . S
C106 C107 1.398 . S
C107 C72 1.382 . S
C107 H84 0.951 . S
C107 C106 1.398 . S
C108 C109 1.384 . S
C108 H121 0.947 . S
C108 C143 1.382 . S
C109 C108 1.384 . S
C109 C110 1.378 . S
C110 C109 1.378 . S
C110 C111 1.378 . S
C110 H122 0.952 . S
C111 C110 1.378 . S
C111 H123 0.950 . S
C111 C142 1.383 . S
H112 C131 0.947 . S
H113 C132 0.946 . S
H114 C134 0.953 . S
H115 C135 0.945 . S
H116 C137 0.952 . S
H117 C138 0.949 . S
H118 C140 0.950 . S
H119 C141 0.948 . S
H120 C143 0.951 . S
H121 C108 0.947 . S
H122 C110 0.952 . S
H123 C111 0.950 . S
N124 C127 1.382 . S
N124 C129 1.363 . S
N125 C127 1.371 . S
N125 C128 1.372 . S
N126 C128 1.361 . S
N126 C129 1.377 . S
C127 N124 1.382 . S
C127 N125 1.371 . S
C127 C130 1.480 . S
C128 N125 1.372 . S
C128 N126 1.361 . S
C128 C136 1.457 . S
C129 N124 1.363 . S
C129 N126 1.377 . S
C129 C142 1.479 . S
C130 C127 1.480 . S
C130 C131 1.383 . S
C130 C135 1.385 . S
C131 H112 0.947 . S
C131 C130 1.383 . S
C131 C132 1.388 . S
C132 H113 0.946 . S
C132 C131 1.388 . S
C132 C133 1.384 . S
C133 C132 1.384 . S
C133 C134 1.377 . S
C134 H114 0.953 . S
C134 C133 1.377 . S
C134 C135 1.369 . S
C135 H115 0.945 . S
C135 C130 1.385 . S
C135 C134 1.369 . S
C136 C128 1.457 . S
C136 C137 1.372 . S
C136 C141 1.364 . S
C137 H116 0.952 . S
C137 C136 1.372 . S
C137 C138 1.389 . S
C138 H117 0.949 . S
C138 C137 1.389 . S
C138 C139 1.387 . S
C139 C138 1.387 . S
C139 C140 1.372 . S
C140 H118 0.950 . S
C140 C139 1.372 . S
C140 C141 1.379 . S
C141 H119 0.948 . S
C141 C136 1.364 . S
C141 C140 1.379 . S
C142 C111 1.383 . S
C142 C129 1.479 . S
C142 C143 1.398 . S
C143 C108 1.382 . S
C143 H120 0.951 . S
C143 C142 1.398 . S
C144 C145 1.384 . S
C144 H157 0.947 . S
C144 C179 1.382 . S
C145 C144 1.384 . S
C145 C146 1.378 . S
C146 C145 1.378 . S
C146 C147 1.378 . S
C146 H158 0.952 . S
C147 C146 1.378 . S
C147 H159 0.950 . S
C147 C178 1.383 . S
H148 C167 0.947 . S
H149 C168 0.946 . S
H150 C170 0.953 . S
H151 C171 0.945 . S
H152 C173 0.952 . S
H153 C174 0.949 . S
H154 C176 0.950 . S
H155 C177 0.948 . S
H156 C179 0.951 . S
H157 C144 0.947 . S
H158 C146 0.952 . S
H159 C147 0.950 . S
N160 C163 1.382 . S
N160 C165 1.363 . S
N161 C163 1.371 . S
N161 C164 1.372 . S
N162 C164 1.361 . S
N162 C165 1.377 . S
C163 N160 1.382 . S
C163 N161 1.371 . S
C163 C166 1.480 . S
C164 N161 1.372 . S
C164 N162 1.361 . S
C164 C172 1.457 . S
C165 N160 1.363 . S
C165 N162 1.377 . S
C165 C178 1.479 . S
C166 C163 1.480 . S
C166 C167 1.383 . S
C166 C171 1.385 . S
C167 H148 0.947 . S
C167 C166 1.383 . S
C167 C168 1.388 . S
C168 H149 0.946 . S
C168 C167 1.388 . S
C168 C169 1.384 . S
C169 C168 1.384 . S
C169 C170 1.377 . S
C170 H150 0.953 . S
C170 C169 1.377 . S
C170 C171 1.369 . S
C171 H151 0.945 . S
C171 C166 1.385 . S
C171 C170 1.369 . S
C172 C164 1.457 . S
C172 C173 1.372 . S
C172 C177 1.364 . S
C173 H152 0.952 . S
C173 C172 1.372 . S
C173 C174 1.389 . S
C174 H153 0.949 . S
C174 C173 1.389 . S
C174 C175 1.387 . S
C175 C174 1.387 . S
C175 C176 1.372 . S
C176 H154 0.950 . S
C176 C175 1.372 . S
C176 C177 1.379 . S
C177 H155 0.948 . S
C177 C172 1.364 . S
C177 C176 1.379 . S
C178 C147 1.383 . S
C178 C165 1.479 . S
C178 C179 1.398 . S
C179 C144 1.382 . S
C179 H156 0.951 . S
C179 C178 1.398 . S
C180 C181 1.384 . S
C180 H193 0.947 . S
C180 C215 1.382 . S
C181 C180 1.384 . S
C181 C182 1.378 . S
C182 C181 1.378 . S
C182 C183 1.378 . S
C182 H194 0.952 . S
C183 C182 1.378 . S
C183 H195 0.950 . S
C183 C214 1.383 . S
H184 C203 0.947 . S
H185 C204 0.946 . S
H186 C206 0.953 . S
H187 C207 0.945 . S
H188 C209 0.952 . S
H189 C210 0.949 . S
H190 C212 0.950 . S
H191 C213 0.948 . S
H192 C215 0.951 . S
H193 C180 0.947 . S
H194 C182 0.952 . S
H195 C183 0.950 . S
N196 C199 1.382 . S
N196 C201 1.363 . S
N197 C199 1.371 . S
N197 C200 1.372 . S
N198 C200 1.361 . S
N198 C201 1.377 . S
C199 N196 1.382 . S
C199 N197 1.371 . S
C199 C202 1.480 . S
C200 N197 1.372 . S
C200 N198 1.361 . S
C200 C208 1.457 . S
C201 N196 1.363 . S
C201 N198 1.377 . S
C201 C214 1.479 . S
C202 C199 1.480 . S
C202 C203 1.383 . S
C202 C207 1.385 . S
C203 H184 0.947 . S
C203 C202 1.383 . S
C203 C204 1.388 . S
C204 H185 0.946 . S
C204 C203 1.388 . S
C204 C205 1.384 . S
C205 C204 1.384 . S
C205 C206 1.377 . S
C206 H186 0.953 . S
C206 C205 1.377 . S
C206 C207 1.369 . S
C207 H187 0.945 . S
C207 C202 1.385 . S
C207 C206 1.369 . S
C208 C200 1.457 . S
C208 C209 1.372 . S
C208 C213 1.364 . S
C209 H188 0.952 . S
C209 C208 1.372 . S
C209 C210 1.389 . S
C210 H189 0.949 . S
C210 C209 1.389 . S
C210 C211 1.387 . S
C211 C210 1.387 . S
C211 C212 1.372 . S
C212 H190 0.950 . S
C212 C211 1.372 . S
C212 C213 1.379 . S
C213 H191 0.948 . S
C213 C208 1.364 . S
C213 C212 1.379 . S
C214 C183 1.383 . S
C214 C201 1.479 . S
C214 C215 1.398 . S
C215 C180 1.382 . S
C215 H192 0.951 . S
C215 C214 1.398 . S
C216 C217 1.384 . S
C216 H229 0.947 . S
C216 C251 1.382 . S
C217 C216 1.384 . S
C217 C218 1.378 . S
C218 C217 1.378 . S
C218 C219 1.378 . S
C218 H230 0.952 . S
C219 C218 1.378 . S
C219 H231 0.950 . S
C219 C250 1.383 . S
H220 C239 0.947 . S
H221 C240 0.946 . S
H222 C242 0.953 . S
H223 C243 0.945 . S
H224 C245 0.952 . S
H225 C246 0.949 . S
H226 C248 0.950 . S
H227 C249 0.948 . S
H228 C251 0.951 . S
H229 C216 0.947 . S
H230 C218 0.952 . S
H231 C219 0.950 . S
N232 C235 1.382 . S
N232 C237 1.363 . S
N233 C235 1.371 . S
N233 C236 1.372 . S
N234 C236 1.361 . S
N234 C237 1.377 . S
C235 N232 1.382 . S
C235 N233 1.371 . S
C235 C238 1.480 . S
C236 N233 1.372 . S
C236 N234 1.361 . S
C236 C244 1.457 . S
C237 N232 1.363 . S
C237 N234 1.377 . S
C237 C250 1.479 . S
C238 C235 1.480 . S
C238 C239 1.383 . S
C238 C243 1.385 . S
C239 H220 0.947 . S
C239 C238 1.383 . S
C239 C240 1.388 . S
C240 H221 0.946 . S
C240 C239 1.388 . S
C240 C241 1.384 . S
C241 C240 1.384 . S
C241 C242 1.377 . S
C242 H222 0.953 . S
C242 C241 1.377 . S
C242 C243 1.369 . S
C243 H223 0.945 . S
C243 C238 1.385 . S
C243 C242 1.369 . S
C244 C236 1.457 . S
C244 C245 1.372 . S
C244 C249 1.364 . S
C245 H224 0.952 . S
C245 C244 1.372 . S
C245 C246 1.389 . S
C246 H225 0.949 . S
C246 C245 1.389 . S
C246 C247 1.387 . S
C247 C246 1.387 . S
C247 C248 1.372 . S
C248 H226 0.950 . S
C248 C247 1.372 . S
C248 C249 1.379 . S
C249 H227 0.948 . S
C249 C244 1.364 . S
C249 C248 1.379 . S
C250 C219 1.383 . S
C250 C237 1.479 . S
C250 C251 1.398 . S
C251 C216 1.382 . S
C251 H228 0.951 . S
C251 C250 1.398 . S
C252 C253 1.384 . S
C252 H265 0.947 . S
C252 C287 1.382 . S
C253 C252 1.384 . S
C253 C254 1.378 . S
C254 C253 1.378 . S
C254 C255 1.378 . S
C254 H266 0.952 . S
C255 C254 1.378 . S
C255 H267 0.950 . S
C255 C286 1.383 . S
H256 C275 0.947 . S
H257 C276 0.946 . S
H258 C278 0.953 . S
H259 C279 0.945 . S
H260 C281 0.952 . S
H261 C282 0.949 . S
H262 C284 0.950 . S
H263 C285 0.948 . S
H264 C287 0.951 . S
H265 C252 0.947 . S
H266 C254 0.952 . S
H267 C255 0.950 . S
N268 C271 1.382 . S
N268 C273 1.363 . S
N269 C271 1.371 . S
N269 C272 1.372 . S
N270 C272 1.361 . S
N270 C273 1.377 . S
C271 N268 1.382 . S
C271 N269 1.371 . S
C271 C274 1.480 . S
C272 N269 1.372 . S
C272 N270 1.361 . S
C272 C280 1.457 . S
C273 N268 1.363 . S
C273 N270 1.377 . S
C273 C286 1.479 . S
C274 C271 1.480 . S
C274 C275 1.383 . S
C274 C279 1.385 . S
C275 H256 0.947 . S
C275 C274 1.383 . S
C275 C276 1.388 . S
C276 H257 0.946 . S
C276 C275 1.388 . S
C276 C277 1.384 . S
C277 C276 1.384 . S
C277 C278 1.377 . S
C278 H258 0.953 . S
C278 C277 1.377 . S
C278 C279 1.369 . S
C279 H259 0.945 . S
C279 C274 1.385 . S
C279 C278 1.369 . S
C280 C272 1.457 . S
C280 C281 1.372 . S
C280 C285 1.364 . S
C281 H260 0.952 . S
C281 C280 1.372 . S
C281 C282 1.389 . S
C282 H261 0.949 . S
C282 C281 1.389 . S
C282 C283 1.387 . S
C283 C282 1.387 . S
C283 C284 1.372 . S
C284 H262 0.950 . S
C284 C283 1.372 . S
C284 C285 1.379 . S
C285 H263 0.948 . S
C285 C280 1.364 . S
C285 C284 1.379 . S
C286 C255 1.383 . S
C286 C273 1.479 . S
C286 C287 1.398 . S
C287 C252 1.382 . S
C287 H264 0.951 . S
C287 C286 1.398 . S
C288 C289 1.384 . S
C288 H301 0.947 . S
C288 C323 1.382 . S
C289 C288 1.384 . S
C289 C290 1.378 . S
C290 C289 1.378 . S
C290 C291 1.378 . S
C290 H302 0.952 . S
C291 C290 1.378 . S
C291 H303 0.950 . S
C291 C322 1.383 . S
H292 C311 0.947 . S
H293 C312 0.946 . S
H294 C314 0.953 . S
H295 C315 0.945 . S
H296 C317 0.952 . S
H297 C318 0.949 . S
H298 C320 0.950 . S
H299 C321 0.948 . S
H300 C323 0.951 . S
H301 C288 0.947 . S
H302 C290 0.952 . S
H303 C291 0.950 . S
N304 C307 1.382 . S
N304 C309 1.363 . S
N305 C307 1.371 . S
N305 C308 1.372 . S
N306 C308 1.361 . S
N306 C309 1.377 . S
C307 N304 1.382 . S
C307 N305 1.371 . S
C307 C310 1.480 . S
C308 N305 1.372 . S
C308 N306 1.361 . S
C308 C316 1.457 . S
C309 N304 1.363 . S
C309 N306 1.377 . S
C309 C322 1.479 . S
C310 C307 1.480 . S
C310 C311 1.383 . S
C310 C315 1.385 . S
C311 H292 0.947 . S
C311 C310 1.383 . S
C311 C312 1.388 . S
C312 H293 0.946 . S
C312 C311 1.388 . S
C312 C313 1.384 . S
C313 C312 1.384 . S
C313 C314 1.377 . S
C314 H294 0.953 . S
C314 C313 1.377 . S
C314 C315 1.369 . S
C315 H295 0.945 . S
C315 C310 1.385 . S
C315 C314 1.369 . S
C316 C308 1.457 . S
C316 C317 1.372 . S
C316 C321 1.364 . S
C317 H296 0.952 . S
C317 C316 1.372 . S
C317 C318 1.389 . S
C318 H297 0.949 . S
C318 C317 1.389 . S
C318 C319 1.387 . S
C319 C318 1.387 . S
C319 C320 1.372 . S
C320 H298 0.950 . S
C320 C319 1.372 . S
C320 C321 1.379 . S
C321 H299 0.948 . S
C321 C316 1.364 . S
C321 C320 1.379 . S
C322 C291 1.383 . S
C322 C309 1.479 . S
C322 C323 1.398 . S
C323 C288 1.382 . S
C323 H300 0.951 . S
C323 C322 1.398 . S
C324 C325 1.384 . S
C324 H337 0.947 . S
C324 C359 1.382 . S
C325 C324 1.384 . S
C325 C326 1.378 . S
C326 C325 1.378 . S
C326 C327 1.378 . S
C326 H338 0.952 . S
C327 C326 1.378 . S
C327 H339 0.950 . S
C327 C358 1.383 . S
H328 C347 0.947 . S
H329 C348 0.946 . S
H330 C350 0.953 . S
H331 C351 0.945 . S
H332 C353 0.952 . S
H333 C354 0.949 . S
H334 C356 0.950 . S
H335 C357 0.948 . S
H336 C359 0.951 . S
H337 C324 0.947 . S
H338 C326 0.952 . S
H339 C327 0.950 . S
N340 C343 1.382 . S
N340 C345 1.363 . S
N341 C343 1.371 . S
N341 C344 1.372 . S
N342 C344 1.361 . S
N342 C345 1.377 . S
C343 N340 1.382 . S
C343 N341 1.371 . S
C343 C346 1.480 . S
C344 N341 1.372 . S
C344 N342 1.361 . S
C344 C352 1.457 . S
C345 N340 1.363 . S
C345 N342 1.377 . S
C345 C358 1.479 . S
C346 C343 1.480 . S
C346 C347 1.383 . S
C346 C351 1.385 . S
C347 H328 0.947 . S
C347 C346 1.383 . S
C347 C348 1.388 . S
C348 H329 0.946 . S
C348 C347 1.388 . S
C348 C349 1.384 . S
C349 C348 1.384 . S
C349 C350 1.377 . S
C350 H330 0.953 . S
C350 C349 1.377 . S
C350 C351 1.369 . S
C351 H331 0.945 . S
C351 C346 1.385 . S
C351 C350 1.369 . S
C352 C344 1.457 . S
C352 C353 1.372 . S
C352 C357 1.364 . S
C353 H332 0.952 . S
C353 C352 1.372 . S
C353 C354 1.389 . S
C354 H333 0.949 . S
C354 C353 1.389 . S
C354 C355 1.387 . S
C355 C354 1.387 . S
C355 C356 1.372 . S
C356 H334 0.950 . S
C356 C355 1.372 . S
C356 C357 1.379 . S
C357 H335 0.948 . S
C357 C352 1.364 . S
C357 C356 1.379 . S
C358 C327 1.383 . S
C358 C345 1.479 . S
C358 C359 1.398 . S
C359 C324 1.382 . S
C359 H336 0.951 . S
C359 C358 1.398 . S
C360 C361 1.384 . S
C360 H373 0.947 . S
C360 C395 1.382 . S
C361 C360 1.384 . S
C361 C362 1.378 . S
C362 C361 1.378 . S
C362 C363 1.378 . S
C362 H374 0.952 . S
C363 C362 1.378 . S
C363 H375 0.950 . S
C363 C394 1.383 . S
H364 C383 0.947 . S
H365 C384 0.946 . S
H366 C386 0.953 . S
H367 C387 0.945 . S
H368 C389 0.952 . S
H369 C390 0.949 . S
H370 C392 0.950 . S
H371 C393 0.948 . S
H372 C395 0.951 . S
H373 C360 0.947 . S
H374 C362 0.952 . S
H375 C363 0.950 . S
N376 C379 1.382 . S
N376 C381 1.363 . S
N377 C379 1.371 . S
N377 C380 1.372 . S
N378 C380 1.361 . S
N378 C381 1.377 . S
C379 N376 1.382 . S
C379 N377 1.371 . S
C379 C382 1.480 . S
C380 N377 1.372 . S
C380 N378 1.361 . S
C380 C388 1.457 . S
C381 N376 1.363 . S
C381 N378 1.377 . S
C381 C394 1.479 . S
C382 C379 1.480 . S
C382 C383 1.383 . S
C382 C387 1.385 . S
C383 H364 0.947 . S
C383 C382 1.383 . S
C383 C384 1.388 . S
C384 H365 0.946 . S
C384 C383 1.388 . S
C384 C385 1.384 . S
C385 C384 1.384 . S
C385 C386 1.377 . S
C386 H366 0.953 . S
C386 C385 1.377 . S
C386 C387 1.369 . S
C387 H367 0.945 . S
C387 C382 1.385 . S
C387 C386 1.369 . S
C388 C380 1.457 . S
C388 C389 1.372 . S
C388 C393 1.364 . S
C389 H368 0.952 . S
C389 C388 1.372 . S
C389 C390 1.389 . S
C390 H369 0.949 . S
C390 C389 1.389 . S
C390 C391 1.387 . S
C391 C390 1.387 . S
C391 C392 1.372 . S
C392 H370 0.950 . S
C392 C391 1.372 . S
C392 C393 1.379 . S
C393 H371 0.948 . S
C393 C388 1.364 . S
C393 C392 1.379 . S
C394 C363 1.383 . S
C394 C381 1.479 . S
C394 C395 1.398 . S
C395 C360 1.382 . S
C395 H372 0.951 . S
C395 C394 1.398 . S
C396 C397 1.384 . S
C396 H409 0.947 . S
C396 C431 1.382 . S
C397 C396 1.384 . S
C397 C398 1.378 . S
C398 C397 1.378 . S
C398 C399 1.378 . S
C398 H410 0.952 . S
C399 C398 1.378 . S
C399 H411 0.950 . S
C399 C430 1.383 . S
H400 C419 0.947 . S
H401 C420 0.946 . S
H402 C422 0.953 . S
H403 C423 0.945 . S
H404 C425 0.952 . S
H405 C426 0.949 . S
H406 C428 0.950 . S
H407 C429 0.948 . S
H408 C431 0.951 . S
H409 C396 0.947 . S
H410 C398 0.952 . S
H411 C399 0.950 . S
N412 C415 1.382 . S
N412 C417 1.363 . S
N413 C415 1.371 . S
N413 C416 1.372 . S
N414 C416 1.361 . S
N414 C417 1.377 . S
C415 N412 1.382 . S
C415 N413 1.371 . S
C415 C418 1.480 . S
C416 N413 1.372 . S
C416 N414 1.361 . S
C416 C424 1.457 . S
C417 N412 1.363 . S
C417 N414 1.377 . S
C417 C430 1.479 . S
C418 C415 1.480 . S
C418 C419 1.383 . S
C418 C423 1.385 . S
C419 H400 0.947 . S
C419 C418 1.383 . S
C419 C420 1.388 . S
C420 H401 0.946 . S
C420 C419 1.388 . S
C420 C421 1.384 . S
C421 C420 1.384 . S
C421 C422 1.377 . S
C422 H402 0.953 . S
C422 C421 1.377 . S
C422 C423 1.369 . S
C423 H403 0.945 . S
C423 C418 1.385 . S
C423 C422 1.369 . S
C424 C416 1.457 . S
C424 C425 1.372 . S
C424 C429 1.364 . S
C425 H404 0.952 . S
C425 C424 1.372 . S
C425 C426 1.389 . S
C426 H405 0.949 . S
C426 C425 1.389 . S
C426 C427 1.387 . S
C427 C426 1.387 . S
C427 C428 1.372 . S
C428 H406 0.950 . S
C428 C427 1.372 . S
C428 C429 1.379 . S
C429 H407 0.948 . S
C429 C424 1.364 . S
C429 C428 1.379 . S
C430 C399 1.383 . S
C430 C417 1.479 . S
C430 C431 1.398 . S
C431 C396 1.382 . S
C431 H408 0.951 . S
C431 C430 1.398 . S
C432 C433 1.384 . S
C432 H445 0.947 . S
C432 C467 1.382 . S
C433 C432 1.384 . S
C433 C434 1.378 . S
C434 C433 1.378 . S
C434 C435 1.378 . S
C434 H446 0.952 . S
C435 C434 1.378 . S
C435 H447 0.950 . S
C435 C466 1.383 . S
H436 C455 0.947 . S
H437 C456 0.946 . S
H438 C458 0.953 . S
H439 C459 0.945 . S
H440 C461 0.952 . S
H441 C462 0.949 . S
H442 C464 0.950 . S
H443 C465 0.948 . S
H444 C467 0.951 . S
H445 C432 0.947 . S
H446 C434 0.952 . S
H447 C435 0.950 . S
N448 C451 1.382 . S
N448 C453 1.363 . S
N449 C451 1.371 . S
N449 C452 1.372 . S
N450 C452 1.361 . S
N450 C453 1.377 . S
C451 N448 1.382 . S
C451 N449 1.371 . S
C451 C454 1.480 . S
C452 N449 1.372 . S
C452 N450 1.361 . S
C452 C460 1.457 . S
C453 N448 1.363 . S
C453 N450 1.377 . S
C453 C466 1.479 . S
C454 C451 1.480 . S
C454 C455 1.383 . S
C454 C459 1.385 . S
C455 H436 0.947 . S
C455 C454 1.383 . S
C455 C456 1.388 . S
C456 H437 0.946 . S
C456 C455 1.388 . S
C456 C457 1.384 . S
C457 C456 1.384 . S
C457 C458 1.377 . S
C458 H438 0.953 . S
C458 C457 1.377 . S
C458 C459 1.369 . S
C459 H439 0.945 . S
C459 C454 1.385 . S
C459 C458 1.369 . S
C460 C452 1.457 . S
C460 C461 1.372 . S
C460 C465 1.364 . S
C461 H440 0.952 . S
C461 C460 1.372 . S
C461 C462 1.389 . S
C462 H441 0.949 . S
C462 C461 1.389 . S
C462 C463 1.387 . S
C463 C462 1.387 . S
C463 C464 1.372 . S
C464 H442 0.950 . S
C464 C463 1.372 . S
C464 C465 1.379 . S
C465 H443 0.948 . S
C465 C460 1.364 . S
C465 C464 1.379 . S
C466 C435 1.383 . S
C466 C453 1.479 . S
C466 C467 1.398 . S
C467 C432 1.382 . S
C467 H444 0.951 . S
C467 C466 1.398 . S
C468 C469 1.384 . S
C468 H481 0.947 . S
C468 C503 1.382 . S
C469 C468 1.384 . S
C469 C470 1.378 . S
C470 C469 1.378 . S
C470 C471 1.378 . S
C470 H482 0.952 . S
C471 C470 1.378 . S
C471 H483 0.950 . S
C471 C502 1.383 . S
H472 C491 0.947 . S
H473 C492 0.946 . S
H474 C494 0.953 . S
H475 C495 0.945 . S
H476 C497 0.952 . S
H477 C498 0.949 . S
H478 C500 0.950 . S
H479 C501 0.948 . S
H480 C503 0.951 . S
H481 C468 0.947 . S
H482 C470 0.952 . S
H483 C471 0.950 . S
N484 C487 1.382 . S
N484 C489 1.363 . S
N485 C487 1.371 . S
N485 C488 1.372 . S
N486 C488 1.361 . S
N486 C489 1.377 . S
C487 N484 1.382 . S
C487 N485 1.371 . S
C487 C490 1.480 . S
C488 N485 1.372 . S
C488 N486 1.361 . S
C488 C496 1.457 . S
C489 N484 1.363 . S
C489 N486 1.377 . S
C489 C502 1.479 . S
C490 C487 1.480 . S
C490 C491 1.383 . S
C490 C495 1.385 . S
C491 H472 0.947 . S
C491 C490 1.383 . S
C491 C492 1.388 . S
C492 H473 0.946 . S
C492 C491 1.388 . S
C492 C493 1.384 . S
C493 C492 1.384 . S
C493 C494 1.377 . S
C494 H474 0.953 . S
C494 C493 1.377 . S
C494 C495 1.369 . S
C495 H475 0.945 . S
C495 C490 1.385 . S
C495 C494 1.369 . S
C496 C488 1.457 . S
C496 C497 1.372 . S
C496 C501 1.364 . S
C497 H476 0.952 . S
C497 C496 1.372 . S
C497 C498 1.389 . S
C498 H477 0.949 . S
C498 C497 1.389 . S
C498 C499 1.387 . S
C499 C498 1.387 . S
C499 C500 1.372 . S
C500 H478 0.950 . S
C500 C499 1.372 . S
C500 C501 1.379 . S
C501 H479 0.948 . S
C501 C496 1.364 . S
C501 C500 1.379 . S
C502 C471 1.383 . S
C502 C489 1.479 . S
C502 C503 1.398 . S
C503 C468 1.382 . S
C503 H480 0.951 . S
C503 C502 1.398 . S
C504 C505 1.384 . S
C504 H517 0.947 . S
C504 C539 1.382 . S
C505 C504 1.384 . S
C505 C506 1.378 . S
C506 C505 1.378 . S
C506 C507 1.378 . S
C506 H518 0.952 . S
C507 C506 1.378 . S
C507 H519 0.950 . S
C507 C538 1.383 . S
H508 C527 0.947 . S
H509 C528 0.946 . S
H510 C530 0.953 . S
H511 C531 0.945 . S
H512 C533 0.952 . S
H513 C534 0.949 . S
H514 C536 0.950 . S
H515 C537 0.948 . S
H516 C539 0.951 . S
H517 C504 0.947 . S
H518 C506 0.952 . S
H519 C507 0.950 . S
N520 C523 1.382 . S
N520 C525 1.363 . S
N521 C523 1.371 . S
N521 C524 1.372 . S
N522 C524 1.361 . S
N522 C525 1.377 . S
C523 N520 1.382 . S
C523 N521 1.371 . S
C523 C526 1.480 . S
C524 N521 1.372 . S
C524 N522 1.361 . S
C524 C532 1.457 . S
C525 N520 1.363 . S
C525 N522 1.377 . S
C525 C538 1.479 . S
C526 C523 1.480 . S
C526 C527 1.383 . S
C526 C531 1.385 . S
C527 H508 0.947 . S
C527 C526 1.383 . S
C527 C528 1.388 . S
C528 H509 0.946 . S
C528 C527 1.388 . S
C528 C529 1.384 . S
C529 C528 1.384 . S
C529 C530 1.377 . S
C530 H510 0.953 . S
C530 C529 1.377 . S
C530 C531 1.369 . S
C531 H511 0.945 . S
C531 C526 1.385 . S
C531 C530 1.369 . S
C532 C524 1.457 . S
C532 C533 1.372 . S
C532 C537 1.364 . S
C533 H512 0.952 . S
C533 C532 1.372 . S
C533 C534 1.389 . S
C534 H513 0.949 . S
C534 C533 1.389 . S
C534 C535 1.387 . S
C535 C534 1.387 . S
C535 C536 1.372 . S
C536 H514 0.950 . S
C536 C535 1.372 . S
C536 C537 1.379 . S
C537 H515 0.948 . S
C537 C532 1.364 . S
C537 C536 1.379 . S
C538 C507 1.383 . S
C538 C525 1.479 . S
C538 C539 1.398 . S
C539 C504 1.382 . S
C539 H516 0.951 . S
C539 C538 1.398 . S
C540 C541 1.384 . S
C540 H553 0.947 . S
C540 C575 1.382 . S
C541 C540 1.384 . S
C541 C542 1.378 . S
C542 C541 1.378 . S
C542 C543 1.378 . S
C542 H554 0.952 . S
C543 C542 1.378 . S
C543 H555 0.950 . S
C543 C574 1.383 . S
H544 C563 0.947 . S
H545 C564 0.946 . S
H546 C566 0.953 . S
H547 C567 0.945 . S
H548 C569 0.952 . S
H549 C570 0.949 . S
H550 C572 0.950 . S
H551 C573 0.948 . S
H552 C575 0.951 . S
H553 C540 0.947 . S
H554 C542 0.952 . S
H555 C543 0.950 . S
N556 C559 1.382 . S
N556 C561 1.363 . S
N557 C559 1.371 . S
N557 C560 1.372 . S
N558 C560 1.361 . S
N558 C561 1.377 . S
C559 N556 1.382 . S
C559 N557 1.371 . S
C559 C562 1.480 . S
C560 N557 1.372 . S
C560 N558 1.361 . S
C560 C568 1.457 . S
C561 N556 1.363 . S
C561 N558 1.377 . S
C561 C574 1.479 . S
C562 C559 1.480 . S
C562 C563 1.383 . S
C562 C567 1.385 . S
C563 H544 0.947 . S
C563 C562 1.383 . S
C563 C564 1.388 . S
C564 H545 0.946 . S
C564 C563 1.388 . S
C564 C565 1.384 . S
C565 C564 1.384 . S
C565 C566 1.377 . S
C566 H546 0.953 . S
C566 C565 1.377 . S
C566 C567 1.369 . S
C567 H547 0.945 . S
C567 C562 1.385 . S
C567 C566 1.369 . S
C568 C560 1.457 . S
C568 C569 1.372 . S
C568 C573 1.364 . S
C569 H548 0.952 . S
C569 C568 1.372 . S
C569 C570 1.389 . S
C570 H549 0.949 . S
C570 C569 1.389 . S
C570 C571 1.387 . S
C571 C570 1.387 . S
C571 C572 1.372 . S
C572 H550 0.950 . S
C572 C571 1.372 . S
C572 C573 1.379 . S
C573 H551 0.948 . S
C573 C568 1.364 . S
C573 C572 1.379 . S
C574 C543 1.383 . S
C574 C561 1.479 . S
C574 C575 1.398 . S
C575 C540 1.382 . S
C575 H552 0.951 . S
C575 C574 1.398 . S
C576 C577 1.384 . S
C576 H589 0.947 . S
C576 C611 1.382 . S
C577 C576 1.384 . S
C577 C578 1.378 . S
C578 C577 1.378 . S
C578 C579 1.378 . S
C578 H590 0.952 . S
C579 C578 1.378 . S
C579 H591 0.950 . S
C579 C610 1.383 . S
H580 C599 0.947 . S
H581 C600 0.946 . S
H582 C602 0.953 . S
H583 C603 0.945 . S
H584 C605 0.952 . S
H585 C606 0.949 . S
H586 C608 0.950 . S
H587 C609 0.948 . S
H588 C611 0.951 . S
H589 C576 0.947 . S
H590 C578 0.952 . S
H591 C579 0.950 . S
N592 C595 1.382 . S
N592 C597 1.363 . S
N593 C595 1.371 . S
N593 C596 1.372 . S
N594 C596 1.361 . S
N594 C597 1.377 . S
C595 N592 1.382 . S
C595 N593 1.371 . S
C595 C598 1.480 . S
C596 N593 1.372 . S
C596 N594 1.361 . S
C596 C604 1.457 . S
C597 N592 1.363 . S
C597 N594 1.377 . S
C597 C610 1.479 . S
C598 C595 1.480 . S
C598 C599 1.383 . S
C598 C603 1.385 . S
C599 H580 0.947 . S
C599 C598 1.383 . S
C599 C600 1.388 . S
C600 H581 0.946 . S
C600 C599 1.388 . S
C600 C601 1.384 . S
C601 C600 1.384 . S
C601 C602 1.377 . S
C602 H582 0.953 . S
C602 C601 1.377 . S
C602 C603 1.369 . S
C603 H583 0.945 . S
C603 C598 1.385 . S
C603 C602 1.369 . S
C604 C596 1.457 . S
C604 C605 1.372 . S
C604 C609 1.364 . S
C605 H584 0.952 . S
C605 C604 1.372 . S
C605 C606 1.389 . S
C606 H585 0.949 . S
C606 C605 1.389 . S
C606 C607 1.387 . S
C607 C606 1.387 . S
C607 C608 1.372 . S
C608 H586 0.950 . S
C608 C607 1.372 . S
C608 C609 1.379 . S
C609 H587 0.948 . S
C609 C604 1.364 . S
C609 C608 1.379 . S
C610 C579 1.383 . S
C610 C597 1.479 . S
C610 C611 1.398 . S
C611 C576 1.382 . S
C611 H588 0.951 . S
C611 C610 1.398 . S
C612 C613 1.384 . S
C612 H625 0.947 . S
C612 C647 1.382 . S
C613 C612 1.384 . S
C613 C614 1.378 . S
C614 C613 1.378 . S
C614 C615 1.378 . S
C614 H626 0.952 . S
C615 C614 1.378 . S
C615 H627 0.950 . S
C615 C646 1.383 . S
H616 C635 0.947 . S
H617 C636 0.946 . S
H618 C638 0.953 . S
H619 C639 0.945 . S
H620 C641 0.952 . S
H621 C642 0.949 . S
H622 C644 0.950 . S
H623 C645 0.948 . S
H624 C647 0.951 . S
H625 C612 0.947 . S
H626 C614 0.952 . S
H627 C615 0.950 . S
N628 C631 1.382 . S
N628 C633 1.363 . S
N629 C631 1.371 . S
N629 C632 1.372 . S
N630 C632 1.361 . S
N630 C633 1.377 . S
C631 N628 1.382 . S
C631 N629 1.371 . S
C631 C634 1.480 . S
C632 N629 1.372 . S
C632 N630 1.361 . S
C632 C640 1.457 . S
C633 N628 1.363 . S
C633 N630 1.377 . S
C633 C646 1.479 . S
C634 C631 1.480 . S
C634 C635 1.383 . S
C634 C639 1.385 . S
C635 H616 0.947 . S
C635 C634 1.383 . S
C635 C636 1.388 . S
C636 H617 0.946 . S
C636 C635 1.388 . S
C636 C637 1.384 . S
C637 C636 1.384 . S
C637 C638 1.377 . S
C638 H618 0.953 . S
C638 C637 1.377 . S
C638 C639 1.369 . S
C639 H619 0.945 . S
C639 C634 1.385 . S
C639 C638 1.369 . S
C640 C632 1.457 . S
C640 C641 1.372 . S
C640 C645 1.364 . S
C641 H620 0.952 . S
C641 C640 1.372 . S
C641 C642 1.389 . S
C642 H621 0.949 . S
C642 C641 1.389 . S
C642 C643 1.387 . S
C643 C642 1.387 . S
C643 C644 1.372 . S
C644 H622 0.950 . S
C644 C643 1.372 . S
C644 C645 1.379 . S
C645 H623 0.948 . S
C645 C640 1.364 . S
C645 C644 1.379 . S
C646 C615 1.383 . S
C646 C633 1.479 . S
C646 C647 1.398 . S
C647 C612 1.382 . S
C647 H624 0.951 . S
C647 C646 1.398 . S
C648 C649 1.384 . S
C648 H661 0.947 . S
C648 C683 1.382 . S
C649 C648 1.384 . S
C649 C650 1.378 . S
C650 C649 1.378 . S
C650 C651 1.378 . S
C650 H662 0.952 . S
C651 C650 1.378 . S
C651 H663 0.950 . S
C651 C682 1.383 . S
H652 C671 0.947 . S
H653 C672 0.946 . S
H654 C674 0.953 . S
H655 C675 0.945 . S
H656 C677 0.952 . S
H657 C678 0.949 . S
H658 C680 0.950 . S
H659 C681 0.948 . S
H660 C683 0.951 . S
H661 C648 0.947 . S
H662 C650 0.952 . S
H663 C651 0.950 . S
N664 C667 1.382 . S
N664 C669 1.363 . S
N665 C667 1.371 . S
N665 C668 1.372 . S
N666 C668 1.361 . S
N666 C669 1.377 . S
C667 N664 1.382 . S
C667 N665 1.371 . S
C667 C670 1.480 . S
C668 N665 1.372 . S
C668 N666 1.361 . S
C668 C676 1.457 . S
C669 N664 1.363 . S
C669 N666 1.377 . S
C669 C682 1.479 . S
C670 C667 1.480 . S
C670 C671 1.383 . S
C670 C675 1.385 . S
C671 H652 0.947 . S
C671 C670 1.383 . S
C671 C672 1.388 . S
C672 H653 0.946 . S
C672 C671 1.388 . S
C672 C673 1.384 . S
C673 C672 1.384 . S
C673 C674 1.377 . S
C674 H654 0.953 . S
C674 C673 1.377 . S
C674 C675 1.369 . S
C675 H655 0.945 . S
C675 C670 1.385 . S
C675 C674 1.369 . S
C676 C668 1.457 . S
C676 C677 1.372 . S
C676 C681 1.364 . S
C677 H656 0.952 . S
C677 C676 1.372 . S
C677 C678 1.389 . S
C678 H657 0.949 . S
C678 C677 1.389 . S
C678 C679 1.387 . S
C679 C678 1.387 . S
C679 C680 1.372 . S
C680 H658 0.950 . S
C680 C679 1.372 . S
C680 C681 1.379 . S
C681 H659 0.948 . S
C681 C676 1.364 . S
C681 C680 1.379 . S
C682 C651 1.383 . S
C682 C669 1.479 . S
C682 C683 1.398 . S
C683 C648 1.382 . S
C683 H660 0.951 . S
C683 C682 1.398 . S
C684 C685 1.384 . S
C684 H697 0.947 . S
C684 C719 1.382 . S
C685 C684 1.384 . S
C685 C686 1.378 . S
C686 C685 1.378 . S
C686 C687 1.378 . S
C686 H698 0.952 . S
C687 C686 1.378 . S
C687 H699 0.950 . S
C687 C718 1.383 . S
H688 C707 0.947 . S
H689 C708 0.946 . S
H690 C710 0.953 . S
H691 C711 0.945 . S
H692 C713 0.952 . S
H693 C714 0.949 . S
H694 C716 0.950 . S
H695 C717 0.948 . S
H696 C719 0.951 . S
H697 C684 0.947 . S
H698 C686 0.952 . S
H699 C687 0.950 . S
N700 C703 1.382 . S
N700 C705 1.363 . S
N701 C703 1.371 . S
N701 C704 1.372 . S
N702 C704 1.361 . S
N702 C705 1.377 . S
C703 N700 1.382 . S
C703 N701 1.371 . S
C703 C706 1.480 . S
C704 N701 1.372 . S
C704 N702 1.361 . S
C704 C712 1.457 . S
C705 N700 1.363 . S
C705 N702 1.377 . S
C705 C718 1.479 . S
C706 C703 1.480 . S
C706 C707 1.383 . S
C706 C711 1.385 . S
C707 H688 0.947 . S
C707 C706 1.383 . S
C707 C708 1.388 . S
C708 H689 0.946 . S
C708 C707 1.388 . S
C708 C709 1.384 . S
C709 C708 1.384 . S
C709 C710 1.377 . S
C710 H690 0.953 . S
C710 C709 1.377 . S
C710 C711 1.369 . S
C711 H691 0.945 . S
C711 C706 1.385 . S
C711 C710 1.369 . S
C712 C704 1.457 . S
C712 C713 1.372 . S
C712 C717 1.364 . S
C713 H692 0.952 . S
C713 C712 1.372 . S
C713 C714 1.389 . S
C714 H693 0.949 . S
C714 C713 1.389 . S
C714 C715 1.387 . S
C715 C714 1.387 . S
C715 C716 1.372 . S
C716 H694 0.950 . S
C716 C715 1.372 . S
C716 C717 1.379 . S
C717 H695 0.948 . S
C717 C712 1.364 . S
C717 C716 1.379 . S
C718 C687 1.383 . S
C718 C705 1.479 . S
C718 C719 1.398 . S
C719 C684 1.382 . S
C719 H696 0.951 . S
C719 C718 1.398 . S
C720 C721 1.384 . S
C720 H733 0.947 . S
C720 C755 1.382 . S
C721 C720 1.384 . S
C721 C722 1.378 . S
C722 C721 1.378 . S
C722 C723 1.378 . S
C722 H734 0.952 . S
C723 C722 1.378 . S
C723 H735 0.950 . S
C723 C754 1.383 . S
H724 C743 0.947 . S
H725 C744 0.946 . S
H726 C746 0.953 . S
H727 C747 0.945 . S
H728 C749 0.952 . S
H729 C750 0.949 . S
H730 C752 0.950 . S
H731 C753 0.948 . S
H732 C755 0.951 . S
H733 C720 0.947 . S
H734 C722 0.952 . S
H735 C723 0.950 . S
N736 C739 1.382 . S
N736 C741 1.363 . S
N737 C739 1.371 . S
N737 C740 1.372 . S
N738 C740 1.361 . S
N738 C741 1.377 . S
C739 N736 1.382 . S
C739 N737 1.371 . S
C739 C742 1.480 . S
C740 N737 1.372 . S
C740 N738 1.361 . S
C740 C748 1.457 . S
C741 N736 1.363 . S
C741 N738 1.377 . S
C741 C754 1.479 . S
C742 C739 1.480 . S
C742 C743 1.383 . S
C742 C747 1.385 . S
C743 H724 0.947 . S
C743 C742 1.383 . S
C743 C744 1.388 . S
C744 H725 0.946 . S
C744 C743 1.388 . S
C744 C745 1.384 . S
C745 C744 1.384 . S
C745 C746 1.377 . S
C746 H726 0.953 . S
C746 C745 1.377 . S
C746 C747 1.369 . S
C747 H727 0.945 . S
C747 C742 1.385 . S
C747 C746 1.369 . S
C748 C740 1.457 . S
C748 C749 1.372 . S
C748 C753 1.364 . S
C749 H728 0.952 . S
C749 C748 1.372 . S
C749 C750 1.389 . S
C750 H729 0.949 . S
C750 C749 1.389 . S
C750 C751 1.387 . S
C751 C750 1.387 . S
C751 C752 1.372 . S
C752 H730 0.950 . S
C752 C751 1.372 . S
C752 C753 1.379 . S
C753 H731 0.948 . S
C753 C748 1.364 . S
C753 C752 1.379 . S
C754 C723 1.383 . S
C754 C741 1.479 . S
C754 C755 1.398 . S
C755 C720 1.382 . S
C755 H732 0.951 . S
C755 C754 1.398 . S
C756 C757 1.384 . S
C756 H769 0.947 . S
C756 C791 1.382 . S
C757 C756 1.384 . S
C757 C758 1.378 . S
C758 C757 1.378 . S
C758 C759 1.378 . S
C758 H770 0.952 . S
C759 C758 1.378 . S
C759 H771 0.950 . S
C759 C790 1.383 . S
H760 C779 0.947 . S
H761 C780 0.946 . S
H762 C782 0.953 . S
H763 C783 0.945 . S
H764 C785 0.952 . S
H765 C786 0.949 . S
H766 C788 0.950 . S
H767 C789 0.948 . S
H768 C791 0.951 . S
H769 C756 0.947 . S
H770 C758 0.952 . S
H771 C759 0.950 . S
N772 C775 1.382 . S
N772 C777 1.363 . S
N773 C775 1.371 . S
N773 C776 1.372 . S
N774 C776 1.361 . S
N774 C777 1.377 . S
C775 N772 1.382 . S
C775 N773 1.371 . S
C775 C778 1.480 . S
C776 N773 1.372 . S
C776 N774 1.361 . S
C776 C784 1.457 . S
C777 N772 1.363 . S
C777 N774 1.377 . S
C777 C790 1.479 . S
C778 C775 1.480 . S
C778 C779 1.383 . S
C778 C783 1.385 . S
C779 H760 0.947 . S
C779 C778 1.383 . S
C779 C780 1.388 . S
C780 H761 0.946 . S
C780 C779 1.388 . S
C780 C781 1.384 . S
C781 C780 1.384 . S
C781 C782 1.377 . S
C782 H762 0.953 . S
C782 C781 1.377 . S
C782 C783 1.369 . S
C783 H763 0.945 . S
C783 C778 1.385 . S
C783 C782 1.369 . S
C784 C776 1.457 . S
C784 C785 1.372 . S
C784 C789 1.364 . S
C785 H764 0.952 . S
C785 C784 1.372 . S
C785 C786 1.389 . S
C786 H765 0.949 . S
C786 C785 1.389 . S
C786 C787 1.387 . S
C787 C786 1.387 . S
C787 C788 1.372 . S
C788 H766 0.950 . S
C788 C787 1.372 . S
C788 C789 1.379 . S
C789 H767 0.948 . S
C789 C784 1.364 . S
C789 C788 1.379 . S
C790 C759 1.383 . S
C790 C777 1.479 . S
C790 C791 1.398 . S
C791 C756 1.382 . S
C791 H768 0.951 . S
C791 C790 1.398 . S
C792 C793 1.384 . S
C792 H805 0.947 . S
C792 C827 1.382 . S
C793 C792 1.384 . S
C793 C794 1.378 . S
C794 C793 1.378 . S
C794 C795 1.378 . S
C794 H806 0.952 . S
C795 C794 1.378 . S
C795 H807 0.950 . S
C795 C826 1.383 . S
H796 C815 0.947 . S
H797 C816 0.946 . S
H798 C818 0.953 . S
H799 C819 0.945 . S
H800 C821 0.952 . S
H801 C822 0.949 . S
H802 C824 0.950 . S
H803 C825 0.948 . S
H804 C827 0.951 . S
H805 C792 0.947 . S
H806 C794 0.952 . S
H807 C795 0.950 . S
N808 C811 1.382 . S
N808 C813 1.363 . S
N809 C811 1.371 . S
N809 C812 1.372 . S
N810 C812 1.361 . S
N810 C813 1.377 . S
C811 N808 1.382 . S
C811 N809 1.371 . S
C811 C814 1.480 . S
C812 N809 1.372 . S
C812 N810 1.361 . S
C812 C820 1.457 . S
C813 N808 1.363 . S
C813 N810 1.377 . S
C813 C826 1.479 . S
C814 C811 1.480 . S
C814 C815 1.383 . S
C814 C819 1.385 . S
C815 H796 0.947 . S
C815 C814 1.383 . S
C815 C816 1.388 . S
C816 H797 0.946 . S
C816 C815 1.388 . S
C816 C817 1.384 . S
C817 C816 1.384 . S
C817 C818 1.377 . S
C818 H798 0.953 . S
C818 C817 1.377 . S
C818 C819 1.369 . S
C819 H799 0.945 . S
C819 C814 1.385 . S
C819 C818 1.369 . S
C820 C812 1.457 . S
C820 C821 1.372 . S
C820 C825 1.364 . S
C821 H800 0.952 . S
C821 C820 1.372 . S
C821 C822 1.389 . S
C822 H801 0.949 . S
C822 C821 1.389 . S
C822 C823 1.387 . S
C823 C822 1.387 . S
C823 C824 1.372 . S
C824 H802 0.950 . S
C824 C823 1.372 . S
C824 C825 1.379 . S
C825 H803 0.948 . S
C825 C820 1.364 . S
C825 C824 1.379 . S
C826 C795 1.383 . S
C826 C813 1.479 . S
C826 C827 1.398 . S
C827 C792 1.382 . S
C827 H804 0.951 . S
C827 C826 1.398 . S
C828 C829 1.384 . S
C828 H841 0.947 . S
C828 C863 1.382 . S
C829 C828 1.384 . S
C829 C830 1.378 . S
C830 C829 1.378 . S
C830 C831 1.378 . S
C830 H842 0.952 . S
C831 C830 1.378 . S
C831 H843 0.950 . S
C831 C862 1.383 . S
H832 C851 0.947 . S
H833 C852 0.946 . S
H834 C854 0.953 . S
H835 C855 0.945 . S
H836 C857 0.952 . S
H837 C858 0.949 . S
H838 C860 0.950 . S
H839 C861 0.948 . S
H840 C863 0.951 . S
H841 C828 0.947 . S
H842 C830 0.952 . S
H843 C831 0.950 . S
N844 C847 1.382 . S
N844 C849 1.363 . S
N845 C847 1.371 . S
N845 C848 1.372 . S
N846 C848 1.361 . S
N846 C849 1.377 . S
C847 N844 1.382 . S
C847 N845 1.371 . S
C847 C850 1.480 . S
C848 N845 1.372 . S
C848 N846 1.361 . S
C848 C856 1.457 . S
C849 N844 1.363 . S
C849 N846 1.377 . S
C849 C862 1.479 . S
C850 C847 1.480 . S
C850 C851 1.383 . S
C850 C855 1.385 . S
C851 H832 0.947 . S
C851 C850 1.383 . S
C851 C852 1.388 . S
C852 H833 0.946 . S
C852 C851 1.388 . S
C852 C853 1.384 . S
C853 C852 1.384 . S
C853 C854 1.377 . S
C854 H834 0.953 . S
C854 C853 1.377 . S
C854 C855 1.369 . S
C855 H835 0.945 . S
C855 C850 1.385 . S
C855 C854 1.369 . S
C856 C848 1.457 . S
C856 C857 1.372 . S
C856 C861 1.364 . S
C857 H836 0.952 . S
C857 C856 1.372 . S
C857 C858 1.389 . S
C858 H837 0.949 . S
C858 C857 1.389 . S
C858 C859 1.387 . S
C859 C858 1.387 . S
C859 C860 1.372 . S
C860 H838 0.950 . S
C860 C859 1.372 . S
C860 C861 1.379 . S
C861 H839 0.948 . S
C861 C856 1.364 . S
C861 C860 1.379 . S
C862 C831 1.383 . S
C862 C849 1.479 . S
C862 C863 1.398 . S
C863 C828 1.382 . S
C863 H840 0.951 . S
C863 C862 1.398 . S
C864 C865 1.384 . S
C864 H877 0.947 . S
C864 C899 1.382 . S
C865 C864 1.384 . S
C865 C866 1.378 . S
C866 C865 1.378 . S
C866 C867 1.378 . S
C866 H878 0.952 . S
C867 C866 1.378 . S
C867 H879 0.950 . S
C867 C898 1.383 . S
H868 C887 0.947 . S
H869 C888 0.946 . S
H870 C890 0.953 . S
H871 C891 0.945 . S
H872 C893 0.952 . S
H873 C894 0.949 . S
H874 C896 0.950 . S
H875 C897 0.948 . S
H876 C899 0.951 . S
H877 C864 0.947 . S
H878 C866 0.952 . S
H879 C867 0.950 . S
N880 C883 1.382 . S
N880 C885 1.363 . S
N881 C883 1.371 . S
N881 C884 1.372 . S
N882 C884 1.361 . S
N882 C885 1.377 . S
C883 N880 1.382 . S
C883 N881 1.371 . S
C883 C886 1.480 . S
C884 N881 1.372 . S
C884 N882 1.361 . S
C884 C892 1.457 . S
C885 N880 1.363 . S
C885 N882 1.377 . S
C885 C898 1.479 . S
C886 C883 1.480 . S
C886 C887 1.383 . S
C886 C891 1.385 . S
C887 H868 0.947 . S
C887 C886 1.383 . S
C887 C888 1.388 . S
C888 H869 0.946 . S
C888 C887 1.388 . S
C888 C889 1.384 . S
C889 C888 1.384 . S
C889 C890 1.377 . S
C890 H870 0.953 . S
C890 C889 1.377 . S
C890 C891 1.369 . S
C891 H871 0.945 . S
C891 C886 1.385 . S
C891 C890 1.369 . S
C892 C884 1.457 . S
C892 C893 1.372 . S
C892 C897 1.364 . S
C893 H872 0.952 . S
C893 C892 1.372 . S
C893 C894 1.389 . S
C894 H873 0.949 . S
C894 C893 1.389 . S
C894 C895 1.387 . S
C895 C894 1.387 . S
C895 C896 1.372 . S
C896 H874 0.950 . S
C896 C895 1.372 . S
C896 C897 1.379 . S
C897 H875 0.948 . S
C897 C892 1.364 . S
C897 C896 1.379 . S
C898 C867 1.383 . S
C898 C885 1.479 . S
C898 C899 1.398 . S
C899 C864 1.382 . S
C899 H876 0.951 . S
C899 C898 1.398 . S
C900 C901 1.384 . S
C900 H913 0.947 . S
C900 C935 1.382 . S
C901 C900 1.384 . S
C901 C902 1.378 . S
C902 C901 1.378 . S
C902 C903 1.378 . S
C902 H914 0.952 . S
C903 C902 1.378 . S
C903 H915 0.950 . S
C903 C934 1.383 . S
H904 C923 0.947 . S
H905 C924 0.946 . S
H906 C926 0.953 . S
H907 C927 0.945 . S
H908 C929 0.952 . S
H909 C930 0.949 . S
H910 C932 0.950 . S
H911 C933 0.948 . S
H912 C935 0.951 . S
H913 C900 0.947 . S
H914 C902 0.952 . S
H915 C903 0.950 . S
N916 C919 1.382 . S
N916 C921 1.363 . S
N917 C919 1.371 . S
N917 C920 1.372 . S
N918 C920 1.361 . S
N918 C921 1.377 . S
C919 N916 1.382 . S
C919 N917 1.371 . S
C919 C922 1.480 . S
C920 N917 1.372 . S
C920 N918 1.361 . S
C920 C928 1.457 . S
C921 N916 1.363 . S
C921 N918 1.377 . S
C921 C934 1.479 . S
C922 C919 1.480 . S
C922 C923 1.383 . S
C922 C927 1.385 . S
C923 H904 0.947 . S
C923 C922 1.383 . S
C923 C924 1.388 . S
C924 H905 0.946 . S
C924 C923 1.388 . S
C924 C925 1.384 . S
C925 C924 1.384 . S
C925 C926 1.377 . S
C926 H906 0.953 . S
C926 C925 1.377 . S
C926 C927 1.369 . S
C927 H907 0.945 . S
C927 C922 1.385 . S
C927 C926 1.369 . S
C928 C920 1.457 . S
C928 C929 1.372 . S
C928 C933 1.364 . S
C929 H908 0.952 . S
C929 C928 1.372 . S
C929 C930 1.389 . S
C930 H909 0.949 . S
C930 C929 1.389 . S
C930 C931 1.387 . S
C931 C930 1.387 . S
C931 C932 1.372 . S
C932 H910 0.950 . S
C932 C931 1.372 . S
C932 C933 1.379 . S
C933 H911 0.948 . S
C933 C928 1.364 . S
C933 C932 1.379 . S
C934 C903 1.383 . S
C934 C921 1.479 . S
C934 C935 1.398 . S
C935 C900 1.382 . S
C935 H912 0.951 . S
C935 C934 1.398 . S
C936 C937 1.384 . S
C936 H949 0.947 . S
C936 C971 1.382 . S
C937 C936 1.384 . S
C937 C938 1.378 . S
C938 C937 1.378 . S
C938 C939 1.378 . S
C938 H950 0.952 . S
C939 C938 1.378 . S
C939 H951 0.950 . S
C939 C970 1.383 . S
H940 C959 0.947 . S
H941 C960 0.946 . S
H942 C962 0.953 . S
H943 C963 0.945 . S
H944 C965 0.952 . S
H945 C966 0.949 . S
H946 C968 0.950 . S
H947 C969 0.948 . S
H948 C971 0.951 . S
H949 C936 0.947 . S
H950 C938 0.952 . S
H951 C939 0.950 . S
N952 C955 1.382 . S
N952 C957 1.363 . S
N953 C955 1.371 . S
N953 C956 1.372 . S
N954 C956 1.361 . S
N954 C957 1.377 . S
C955 N952 1.382 . S
C955 N953 1.371 . S
C955 C958 1.480 . S
C956 N953 1.372 . S
C956 N954 1.361 . S
C956 C964 1.457 . S
C957 N952 1.363 . S
C957 N954 1.377 . S
C957 C970 1.479 . S
C958 C955 1.480 . S
C958 C959 1.383 . S
C958 C963 1.385 . S
C959 H940 0.947 . S
C959 C958 1.383 . S
C959 C960 1.388 . S
C960 H941 0.946 . S
C960 C959 1.388 . S
C960 C961 1.384 . S
C961 C960 1.384 . S
C961 C962 1.377 . S
C962 H942 0.953 . S
C962 C961 1.377 . S
C962 C963 1.369 . S
C963 H943 0.945 . S
C963 C958 1.385 . S
C963 C962 1.369 . S
C964 C956 1.457 . S
C964 C965 1.372 . S
C964 C969 1.364 . S
C965 H944 0.952 . S
C965 C964 1.372 . S
C965 C966 1.389 . S
C966 H945 0.949 . S
C966 C965 1.389 . S
C966 C967 1.387 . S
C967 C966 1.387 . S
C967 C968 1.372 . S
C968 H946 0.950 . S
C968 C967 1.372 . S
C968 C969 1.379 . S
C969 H947 0.948 . S
C969 C964 1.364 . S
C969 C968 1.379 . S
C970 C939 1.383 . S
C970 C957 1.479 . S
C970 C971 1.398 . S
C971 C936 1.382 . S
C971 H948 0.951 . S
C971 C970 1.398 . S
C972 C973 1.384 . S
C972 H985 0.947 . S
C972 C1007 1.382 . S
C973 C972 1.384 . S
C973 C974 1.378 . S
C974 C973 1.378 . S
C974 C975 1.378 . S
C974 H986 0.952 . S
C975 C974 1.378 . S
C975 H987 0.950 . S
C975 C1006 1.383 . S
H976 C995 0.947 . S
H977 C996 0.946 . S
H978 C998 0.953 . S
H979 C999 0.945 . S
H980 C1001 0.952 . S
H981 C1002 0.949 . S
H982 C1004 0.950 . S
H983 C1005 0.948 . S
H984 C1007 0.951 . S
H985 C972 0.947 . S
H986 C974 0.952 . S
H987 C975 0.950 . S
N988 C991 1.382 . S
N988 C993 1.363 . S
N989 C991 1.371 . S
N989 C992 1.372 . S
N990 C992 1.361 . S
N990 C993 1.377 . S
C991 N988 1.382 . S
C991 N989 1.371 . S
C991 C994 1.480 . S
C992 N989 1.372 . S
C992 N990 1.361 . S
C992 C1000 1.457 . S
C993 N988 1.363 . S
C993 N990 1.377 . S
C993 C1006 1.479 . S
C994 C991 1.480 . S
C994 C995 1.383 . S
C994 C999 1.385 . S
C995 H976 0.947 . S
C995 C994 1.383 . S
C995 C996 1.388 . S
C996 H977 0.946 . S
C996 C995 1.388 . S
C996 C997 1.384 . S
C997 C996 1.384 . S
C997 C998 1.377 . S
C998 H978 0.953 . S
C998 C997 1.377 . S
C998 C999 1.369 . S
C999 H979 0.945 . S
C999 C994 1.385 . S
C999 C998 1.369 . S
C1000 C992 1.457 . S
C1000 C1001 1.372 . S
C1000 C1005 1.364 . S
C1001 H980 0.952 . S
C1001 C1000 1.372 . S
C1001 C1002 1.389 . S
C1002 H981 0.949 . S
C1002 C1001 1.389 . S
C1002 C1003 1.387 . S
C1003 C1002 1.387 . S
C1003 C1004 1.372 . S
C1004 H982 0.950 . S
C1004 C1003 1.372 . S
C1004 C1005 1.379 . S
C1005 H983 0.948 . S
C1005 C1000 1.364 . S
C1005 C1004 1.379 . S
C1006 C975 1.383 . S
C1006 C993 1.479 . S
C1006 C1007 1.398 . S
C1007 C972 1.382 . S
C1007 H984 0.951 . S
C1007 C1006 1.398 . S
C1008 C1009 1.384 . S
C1008 H1021 0.947 . S
C1008 C1043 1.382 . S
C1009 C1008 1.384 . S
C1009 C1010 1.378 . S
C1010 C1009 1.378 . S
C1010 C1011 1.378 . S
C1010 H1022 0.952 . S
C1011 C1010 1.378 . S
C1011 H1023 0.950 . S
C1011 C1042 1.383 . S
H1012 C1031 0.947 . S
H1013 C1032 0.946 . S
H1014 C1034 0.953 . S
H1015 C1035 0.945 . S
H1016 C1037 0.952 . S
H1017 C1038 0.949 . S
H1018 C1040 0.950 . S
H1019 C1041 0.948 . S
H1020 C1043 0.951 . S
H1021 C1008 0.947 . S
H1022 C1010 0.952 . S
H1023 C1011 0.950 . S
N1024 C1027 1.382 . S
N1024 C1029 1.363 . S
N1025 C1027 1.371 . S
N1025 C1028 1.372 . S
N1026 C1028 1.361 . S
N1026 C1029 1.377 . S
C1027 N1024 1.382 . S
C1027 N1025 1.371 . S
C1027 C1030 1.480 . S
C1028 N1025 1.372 . S
C1028 N1026 1.361 . S
C1028 C1036 1.457 . S
C1029 N1024 1.363 . S
C1029 N1026 1.377 . S
C1029 C1042 1.479 . S
C1030 C1027 1.480 . S
C1030 C1031 1.383 . S
C1030 C1035 1.385 . S
C1031 H1012 0.947 . S
C1031 C1030 1.383 . S
C1031 C1032 1.388 . S
C1032 H1013 0.946 . S
C1032 C1031 1.388 . S
C1032 C1033 1.384 . S
C1033 C1032 1.384 . S
C1033 C1034 1.377 . S
C1034 H1014 0.953 . S
C1034 C1033 1.377 . S
C1034 C1035 1.369 . S
C1035 H1015 0.945 . S
C1035 C1030 1.385 . S
C1035 C1034 1.369 . S
C1036 C1028 1.457 . S
C1036 C1037 1.372 . S
C1036 C1041 1.364 . S
C1037 H1016 0.952 . S
C1037 C1036 1.372 . S
C1037 C1038 1.389 . S
C1038 H1017 0.949 . S
C1038 C1037 1.389 . S
C1038 C1039 1.387 . S
C1039 C1038 1.387 . S
C1039 C1040 1.372 . S
C1040 H1018 0.950 . S
C1040 C1039 1.372 . S
C1040 C1041 1.379 . S
C1041 H1019 0.948 . S
C1041 C1036 1.364 . S
C1041 C1040 1.379 . S
C1042 C1011 1.383 . S
C1042 C1029 1.479 . S
C1042 C1043 1.398 . S
C1043 C1008 1.382 . S
C1043 H1020 0.951 . S
C1043 C1042 1.398 . S
C1044 C1045 1.384 . S
C1044 H1057 0.947 . S
C1044 C1079 1.382 . S
C1045 C1044 1.384 . S
C1045 C1046 1.378 . S
C1046 C1045 1.378 . S
C1046 C1047 1.378 . S
C1046 H1058 0.952 . S
C1047 C1046 1.378 . S
C1047 H1059 0.950 . S
C1047 C1078 1.383 . S
H1048 C1067 0.947 . S
H1049 C1068 0.946 . S
H1050 C1070 0.953 . S
H1051 C1071 0.945 . S
H1052 C1073 0.952 . S
H1053 C1074 0.949 . S
H1054 C1076 0.950 . S
H1055 C1077 0.948 . S
H1056 C1079 0.951 . S
H1057 C1044 0.947 . S
H1058 C1046 0.952 . S
H1059 C1047 0.950 . S
N1060 C1063 1.382 . S
N1060 C1065 1.363 . S
N1061 C1063 1.371 . S
N1061 C1064 1.372 . S
N1062 C1064 1.361 . S
N1062 C1065 1.377 . S
C1063 N1060 1.382 . S
C1063 N1061 1.371 . S
C1063 C1066 1.480 . S
C1064 N1061 1.372 . S
C1064 N1062 1.361 . S
C1064 C1072 1.457 . S
C1065 N1060 1.363 . S
C1065 N1062 1.377 . S
C1065 C1078 1.479 . S
C1066 C1063 1.480 . S
C1066 C1067 1.383 . S
C1066 C1071 1.385 . S
C1067 H1048 0.947 . S
C1067 C1066 1.383 . S
C1067 C1068 1.388 . S
C1068 H1049 0.946 . S
C1068 C1067 1.388 . S
C1068 C1069 1.384 . S
C1069 C1068 1.384 . S
C1069 C1070 1.377 . S
C1070 H1050 0.953 . S
C1070 C1069 1.377 . S
C1070 C1071 1.369 . S
C1071 H1051 0.945 . S
C1071 C1066 1.385 . S
C1071 C1070 1.369 . S
C1072 C1064 1.457 . S
C1072 C1073 1.372 . S
C1072 C1077 1.364 . S
C1073 H1052 0.952 . S
C1073 C1072 1.372 . S
C1073 C1074 1.389 . S
C1074 H1053 0.949 . S
C1074 C1073 1.389 . S
C1074 C1075 1.387 . S
C1075 C1074 1.387 . S
C1075 C1076 1.372 . S
C1076 H1054 0.950 . S
C1076 C1075 1.372 . S
C1076 C1077 1.379 . S
C1077 H1055 0.948 . S
C1077 C1072 1.364 . S
C1077 C1076 1.379 . S
C1078 C1047 1.383 . S
C1078 C1065 1.479 . S
C1078 C1079 1.398 . S
C1079 C1044 1.382 . S
C1079 H1056 0.951 . S
C1079 C1078 1.398 . S
C1080 C1081 1.384 . S
C1080 H1093 0.947 . S
C1080 C1115 1.382 . S
C1081 C1080 1.384 . S
C1081 C1082 1.378 . S
C1082 C1081 1.378 . S
C1082 C1083 1.378 . S
C1082 H1094 0.952 . S
C1083 C1082 1.378 . S
C1083 H1095 0.950 . S
C1083 C1114 1.383 . S
H1084 C1103 0.947 . S
H1085 C1104 0.946 . S
H1086 C1106 0.953 . S
H1087 C1107 0.945 . S
H1088 C1109 0.952 . S
H1089 C1110 0.949 . S
H1090 C1112 0.950 . S
H1091 C1113 0.948 . S
H1092 C1115 0.951 . S
H1093 C1080 0.947 . S
H1094 C1082 0.952 . S
H1095 C1083 0.950 . S
N1096 C1099 1.382 . S
N1096 C1101 1.363 . S
N1097 C1099 1.371 . S
N1097 C1100 1.372 . S
N1098 C1100 1.361 . S
N1098 C1101 1.377 . S
C1099 N1096 1.382 . S
C1099 N1097 1.371 . S
C1099 C1102 1.480 . S
C1100 N1097 1.372 . S
C1100 N1098 1.361 . S
C1100 C1108 1.457 . S
C1101 N1096 1.363 . S
C1101 N1098 1.377 . S
C1101 C1114 1.479 . S
C1102 C1099 1.480 . S
C1102 C1103 1.383 . S
C1102 C1107 1.385 . S
C1103 H1084 0.947 . S
C1103 C1102 1.383 . S
C1103 C1104 1.388 . S
C1104 H1085 0.946 . S
C1104 C1103 1.388 . S
C1104 C1105 1.384 . S
C1105 C1104 1.384 . S
C1105 C1106 1.377 . S
C1106 H1086 0.953 . S
C1106 C1105 1.377 . S
C1106 C1107 1.369 . S
C1107 H1087 0.945 . S
C1107 C1102 1.385 . S
C1107 C1106 1.369 . S
C1108 C1100 1.457 . S
C1108 C1109 1.372 . S
C1108 C1113 1.364 . S
C1109 H1088 0.952 . S
C1109 C1108 1.372 . S
C1109 C1110 1.389 . S
C1110 H1089 0.949 . S
C1110 C1109 1.389 . S
C1110 C1111 1.387 . S
C1111 C1110 1.387 . S
C1111 C1112 1.372 . S
C1112 H1090 0.950 . S
C1112 C1111 1.372 . S
C1112 C1113 1.379 . S
C1113 H1091 0.948 . S
C1113 C1108 1.364 . S
C1113 C1112 1.379 . S
C1114 C1083 1.383 . S
C1114 C1101 1.479 . S
C1114 C1115 1.398 . S
C1115 C1080 1.382 . S
C1115 H1092 0.951 . S
C1115 C1114 1.398 . S
C1116 C1117 1.384 . S
C1116 H1129 0.947 . S
C1116 C1151 1.382 . S
C1117 C1116 1.384 . S
C1117 C1118 1.378 . S
C1118 C1117 1.378 . S
C1118 C1119 1.378 . S
C1118 H1130 0.952 . S
C1119 C1118 1.378 . S
C1119 H1131 0.950 . S
C1119 C1150 1.383 . S
H1120 C1139 0.947 . S
H1121 C1140 0.946 . S
H1122 C1142 0.953 . S
H1123 C1143 0.945 . S
H1124 C1145 0.952 . S
H1125 C1146 0.949 . S
H1126 C1148 0.950 . S
H1127 C1149 0.948 . S
H1128 C1151 0.951 . S
H1129 C1116 0.947 . S
H1130 C1118 0.952 . S
H1131 C1119 0.950 . S
N1132 C1135 1.382 . S
N1132 C1137 1.363 . S
N1133 C1135 1.371 . S
N1133 C1136 1.372 . S
N1134 C1136 1.361 . S
N1134 C1137 1.377 . S
C1135 N1132 1.382 . S
C1135 N1133 1.371 . S
C1135 C1138 1.480 . S
C1136 N1133 1.372 . S
C1136 N1134 1.361 . S
C1136 C1144 1.457 . S
C1137 N1132 1.363 . S
C1137 N1134 1.377 . S
C1137 C1150 1.479 . S
C1138 C1135 1.480 . S
C1138 C1139 1.383 . S
C1138 C1143 1.385 . S
C1139 H1120 0.947 . S
C1139 C1138 1.383 . S
C1139 C1140 1.388 . S
C1140 H1121 0.946 . S
C1140 C1139 1.388 . S
C1140 C1141 1.384 . S
C1141 C1140 1.384 . S
C1141 C1142 1.377 . S
C1142 H1122 0.953 . S
C1142 C1141 1.377 . S
C1142 C1143 1.369 . S
C1143 H1123 0.945 . S
C1143 C1138 1.385 . S
C1143 C1142 1.369 . S
C1144 C1136 1.457 . S
C1144 C1145 1.372 . S
C1144 C1149 1.364 . S
C1145 H1124 0.952 . S
C1145 C1144 1.372 . S
C1145 C1146 1.389 . S
C1146 H1125 0.949 . S
C1146 C1145 1.389 . S
C1146 C1147 1.387 . S
C1147 C1146 1.387 . S
C1147 C1148 1.372 . S
C1148 H1126 0.950 . S
C1148 C1147 1.372 . S
C1148 C1149 1.379 . S
C1149 H1127 0.948 . S
C1149 C1144 1.364 . S
C1149 C1148 1.379 . S
C1150 C1119 1.383 . S
C1150 C1137 1.479 . S
C1150 C1151 1.398 . S
C1151 C1116 1.382 . S
C1151 H1128 0.951 . S
C1151 C1150 1.398 . S
Cu1152 N1153 1.999 . S
Cu1152 O1158 1.974 1_554 S
Cu1152 N1163 1.985 . S
Cu1152 O1172 1.959 . S
N1153 Cu1152 1.999 . S
N1153 C1155 1.263 1_554 S
N1153 C1157 1.389 . S
N1154 C1155 1.358 . S
N1154 C1156 1.400 . S
C1155 N1153 1.263 1_556 S
C1155 N1154 1.358 . S
C1155 H1161 0.930 . S
C1156 N1154 1.400 . S
C1156 C1157 1.351 1_556 S
C1156 H1173 0.930 . S
C1157 N1153 1.389 . S
C1157 C1156 1.351 1_554 S
C1157 H1162 0.930 . S
O1158 Cu1152 1.974 1_556 S
O1158 C1168 1.282 . S
C1159 O1160 1.261 . S
C1159 O1172 1.251 . S
O1160 C1159 1.261 . S
H1161 C1155 0.930 . S
H1162 C1157 0.930 . S
N1163 Cu1152 1.985 . S
N1163 C1165 1.335 . S
N1163 C1166 1.390 . S
N1164 C1165 1.345 . S
N1164 C1167 1.336 . S
C1165 N1163 1.335 . S
C1165 N1164 1.345 . S
C1165 H1170 0.930 . S
C1166 N1163 1.390 . S
C1166 C1167 1.346 . S
C1166 H1171 0.930 . S
C1167 N1164 1.336 . S
C1167 C1166 1.346 . S
C1167 H1174 0.929 . S
C1168 O1158 1.282 . S
C1168 O1169 1.216 . S
O1169 C1168 1.216 . S
H1170 C1165 0.930 . S
H1171 C1166 0.930 . S
O1172 Cu1152 1.959 . S
O1172 C1159 1.251 . S
H1173 C1156 0.930 . S
H1174 C1167 0.929 . S
Cu1175 N1176 1.999 . S
Cu1175 O1181 1.974 . S
Cu1175 N1186 1.985 1_554 S
Cu1175 O1195 1.959 1_554 S
N1176 Cu1175 1.999 . S
N1176 C1178 1.263 . S
N1176 C1180 1.389 . S
N1177 C1178 1.358 . S
N1177 C1179 1.400 . S
C1178 N1176 1.263 . S
C1178 N1177 1.358 . S
C1178 H1184 0.930 . S
C1179 N1177 1.400 . S
C1179 C1180 1.351 . S
C1179 H1196 0.930 . S
C1180 N1176 1.389 . S
C1180 C1179 1.351 . S
C1180 H1185 0.930 . S
O1181 Cu1175 1.974 . S
O1181 C1191 1.282 . S
C1182 O1183 1.261 . S
C1182 O1195 1.251 . S
O1183 C1182 1.261 . S
H1184 C1178 0.930 . S
H1185 C1180 0.930 . S
N1186 Cu1175 1.985 1_556 S
N1186 C1188 1.335 . S
N1186 C1189 1.390 . S
N1187 C1188 1.345 . S
N1187 C1190 1.336 . S
C1188 N1186 1.335 . S
C1188 N1187 1.345 . S
C1188 H1193 0.930 . S
C1189 N1186 1.390 . S
C1189 C1190 1.346 . S
C1189 H1194 0.930 1_556 S
C1190 N1187 1.336 . S
C1190 C1189 1.346 . S
C1190 H1197 0.929 . S
C1191 O1181 1.282 . S
C1191 O1192 1.216 . S
O1192 C1191 1.216 . S
H1193 C1188 0.930 . S
H1194 C1189 0.930 1_554 S
O1195 Cu1175 1.959 1_556 S
O1195 C1182 1.251 . S
H1196 C1179 0.930 . S
H1197 C1190 0.929 . S
Cu1198 N1199 1.959 1_554 S
Cu1198 O1204 1.924 1_554 S
Cu1198 N1209 2.025 . S
Cu1198 O1218 2.008 . S
N1199 Cu1198 1.959 1_556 S
N1199 C1201 1.263 . S
N1199 C1203 1.389 . S
N1200 C1201 1.358 . S
N1200 C1202 1.400 . S
C1201 N1199 1.263 . S
C1201 N1200 1.358 . S
C1201 H1207 0.930 . S
C1202 N1200 1.400 . S
C1202 C1203 1.351 . S
C1202 H1219 0.930 . S
C1203 N1199 1.389 . S
C1203 C1202 1.351 . S
C1203 H1208 0.930 . S
O1204 Cu1198 1.924 1_556 S
O1204 C1214 1.282 . S
C1205 O1206 1.261 . S
C1205 O1218 1.251 . S
O1206 C1205 1.261 . S
H1207 C1201 0.930 . S
H1208 C1203 0.930 . S
N1209 Cu1198 2.025 . S
N1209 C1211 1.335 . S
N1209 C1212 1.390 . S
N1210 C1211 1.345 . S
N1210 C1213 1.336 . S
C1211 N1209 1.335 . S
C1211 N1210 1.345 . S
C1211 H1216 0.930 . S
C1212 N1209 1.390 . S
C1212 C1213 1.346 . S
C1212 H1217 0.968 . S
C1213 N1210 1.336 . S
C1213 C1212 1.346 . S
C1213 H1220 0.929 . S
C1214 O1204 1.282 . S
C1214 O1215 1.216 . S
O1215 C1214 1.216 . S
H1216 C1211 0.930 . S
H1217 C1212 0.968 . S
O1218 Cu1198 2.008 . S
O1218 C1205 1.251 . S
H1219 C1202 0.930 . S
H1220 C1213 0.929 . S
Cu1221 N1222 2.006 . S
Cu1221 O1227 1.982 . S
Cu1221 N1232 1.978 1_554 S
Cu1221 O1241 1.951 1_554 S
N1222 Cu1221 2.006 . S
N1222 C1224 1.263 . S
N1222 C1226 1.389 . S
N1223 C1224 1.358 . S
N1223 C1225 1.400 . S
C1224 N1222 1.263 . S
C1224 N1223 1.358 . S
C1224 H1230 0.930 . S
C1225 N1223 1.400 . S
C1225 C1226 1.351 . S
C1225 H1242 0.930 . S
C1226 N1222 1.389 . S
C1226 C1225 1.351 . S
C1226 H1231 0.930 . S
O1227 Cu1221 1.982 . S
O1227 C1237 1.282 . S
C1228 O1229 1.261 . S
C1228 O1241 1.251 . S
O1229 C1228 1.261 . S
H1230 C1224 0.930 . S
H1231 C1226 0.930 . S
N1232 Cu1221 1.978 1_556 S
N1232 C1234 1.335 . S
N1232 C1235 1.390 . S
N1233 C1234 1.345 . S
N1233 C1236 1.336 . S
C1234 N1232 1.335 . S
C1234 N1233 1.345 . S
C1234 H1239 0.930 . S
C1235 N1232 1.390 . S
C1235 C1236 1.346 . S
C1235 H1240 0.908 1_556 S
C1236 N1233 1.336 . S
C1236 C1235 1.346 . S
C1236 H1243 0.929 . S
C1237 O1227 1.282 . S
C1237 O1238 1.216 . S
O1238 C1237 1.216 . S
H1239 C1234 0.930 . S
H1240 C1235 0.908 1_554 S
O1241 Cu1221 1.951 1_556 S
O1241 C1228 1.251 . S
H1242 C1225 0.930 . S
H1243 C1236 0.929 . S
Cu1244 N1245 1.999 . S
Cu1244 O1250 1.974 . S
Cu1244 N1255 1.985 1_455 S
Cu1244 O1264 1.959 1_455 S
N1245 Cu1244 1.999 . S
N1245 C1247 1.263 . S
N1245 C1249 1.389 . S
N1246 C1247 1.358 . S
N1246 C1248 1.400 . S
C1247 N1245 1.263 . S
C1247 N1246 1.358 . S
C1247 H1253 0.930 . S
C1248 N1246 1.400 . S
C1248 C1249 1.351 . S
C1248 H1265 0.930 . S
C1249 N1245 1.389 . S
C1249 C1248 1.351 . S
C1249 H1254 0.930 . S
O1250 Cu1244 1.974 . S
O1250 C1260 1.282 . S
C1251 O1252 1.261 . S
C1251 O1264 1.251 . S
O1252 C1251 1.261 . S
H1253 C1247 0.930 . S
H1254 C1249 0.930 . S
N1255 Cu1244 1.985 1_655 S
N1255 C1257 1.335 . S
N1255 C1258 1.380 1_655 S
N1256 C1257 1.345 . S
N1256 C1259 1.336 . S
C1257 N1255 1.335 . S
C1257 N1256 1.345 . S
C1257 H1262 0.930 . S
C1258 N1255 1.380 1_455 S
C1258 C1259 1.293 1_455 S
C1258 H1263 0.986 . S
C1259 N1256 1.336 . S
C1259 C1258 1.293 1_655 S
C1259 H1266 0.929 . S
C1260 O1250 1.282 . S
C1260 O1261 1.216 . S
O1261 C1260 1.216 . S
H1262 C1257 0.930 . S
H1263 C1258 0.986 . S
O1264 Cu1244 1.959 1_655 S
O1264 C1251 1.251 . S
H1265 C1248 0.930 . S
H1266 C1259 0.929 . S
Cu1267 N1268 1.999 . S
Cu1267 O1273 1.974 . S
Cu1267 N1278 1.985 1_545 S
Cu1267 O1287 1.959 1_545 S
N1268 Cu1267 1.999 . S
N1268 C1270 1.263 . S
N1268 C1272 1.389 . S
N1269 C1270 1.358 . S
N1269 C1271 1.400 . S
C1270 N1268 1.263 . S
C1270 N1269 1.358 . S
C1270 H1276 0.930 . S
C1271 N1269 1.400 . S
C1271 C1272 1.351 . S
C1271 H1288 0.930 . S
C1272 N1268 1.389 . S
C1272 C1271 1.351 . S
C1272 H1277 0.930 . S
O1273 Cu1267 1.974 . S
O1273 C1283 1.282 . S
C1274 O1275 1.261 . S
C1274 O1287 1.251 . S
O1275 C1274 1.261 . S
H1276 C1270 0.930 . S
H1277 C1272 0.930 . S
N1278 Cu1267 1.985 1_565 S
N1278 C1280 1.335 . S
N1278 C1281 1.390 . S
N1279 C1280 1.345 . S
N1279 C1282 1.336 . S
C1280 N1278 1.335 . S
C1280 N1279 1.345 . S
C1280 H1285 0.930 . S
C1281 N1278 1.390 . S
C1281 C1282 1.346 . S
C1281 H1286 0.930 1_565 S
C1282 N1279 1.336 . S
C1282 C1281 1.346 . S
C1282 H1289 0.929 . S
C1283 O1273 1.282 . S
C1283 O1284 1.216 . S
O1284 C1283 1.216 . S
H1285 C1280 0.930 . S
H1286 C1281 0.930 1_545 S
O1287 Cu1267 1.959 1_565 S
O1287 C1274 1.251 . S
H1288 C1271 0.930 . S
H1289 C1282 0.929 . S
Cu1290 N1291 2.004 1_455 S
Cu1290 O1296 1.979 1_455 S
Cu1290 N1301 1.981 . S
Cu1290 O1310 1.954 . S
N1291 Cu1290 2.004 1_655 S
N1291 C1293 1.263 . S
N1291 C1295 1.389 . S
N1292 C1293 1.358 . S
N1292 C1294 1.400 . S
C1293 N1291 1.263 . S
C1293 N1292 1.358 . S
C1293 H1299 0.930 . S
C1294 N1292 1.400 . S
C1294 C1295 1.351 . S
C1294 H1311 0.930 . S
C1295 N1291 1.389 . S
C1295 C1294 1.351 . S
C1295 H1300 0.930 . S
O1296 Cu1290 1.979 1_655 S
O1296 C1306 1.282 . S
C1297 O1298 1.261 . S
C1297 O1310 1.251 . S
O1298 C1297 1.261 . S
H1299 C1293 0.930 . S
H1300 C1295 0.930 . S
N1301 Cu1290 1.981 . S
N1301 C1303 1.335 . S
N1301 C1304 1.390 . S
N1302 C1303 1.345 . S
N1302 C1305 1.336 . S
C1303 N1301 1.335 . S
C1303 N1302 1.345 . S
C1303 H1308 0.930 . S
C1304 N1301 1.390 . S
C1304 C1305 1.346 . S
C1304 H1309 0.930 . S
C1305 N1302 1.336 . S
C1305 C1304 1.346 . S
C1305 H1312 0.929 . S
C1306 O1296 1.282 . S
C1306 O1307 1.216 . S
O1307 C1306 1.216 . S
H1308 C1303 0.930 . S
H1309 C1304 0.930 . S
O1310 Cu1290 1.954 . S
O1310 C1297 1.251 . S
H1311 C1294 0.930 . S
H1312 C1305 0.929 . S
Cu1313 N1314 1.988 1_565 S
Cu1313 O1319 1.960 1_565 S
Cu1313 N1324 1.996 . S
Cu1313 O1333 1.973 . S
N1314 Cu1313 1.988 1_545 S
N1314 C1316 1.263 . S
N1314 C1318 1.389 . S
N1315 C1316 1.358 . S
N1315 C1317 1.400 . S
C1316 N1314 1.263 . S
C1316 N1315 1.358 . S
C1316 H1322 0.930 . S
C1317 N1315 1.400 . S
C1317 C1318 1.351 . S
C1317 H1334 0.930 . S
C1318 N1314 1.389 . S
C1318 C1317 1.351 . S
C1318 H1323 0.930 . S
O1319 Cu1313 1.960 1_545 S
O1319 C1329 1.282 . S
C1320 O1321 1.261 . S
C1320 O1333 1.251 . S
O1321 C1320 1.261 . S
H1322 C1316 0.930 . S
H1323 C1318 0.930 . S
N1324 Cu1313 1.996 . S
N1324 C1326 1.335 . S
N1324 C1327 1.390 . S
N1325 C1326 1.345 . S
N1325 C1328 1.336 . S
C1326 N1324 1.335 . S
C1326 N1325 1.345 . S
C1326 H1331 0.930 . S
C1327 N1324 1.390 . S
C1327 C1328 1.346 . S
C1327 H1332 0.930 . S
C1328 N1325 1.336 . S
C1328 C1327 1.346 . S
C1328 H1335 0.929 . S
C1329 O1319 1.282 . S
C1329 O1330 1.216 . S
O1330 C1329 1.216 . S
H1331 C1326 0.930 . S
H1332 C1327 0.930 . S
O1333 Cu1313 1.973 . S
O1333 C1320 1.251 . S
H1334 C1317 0.930 . S
H1335 C1328 0.929 . S
Cu1336 N1337 1.999 . S
Cu1336 O1342 1.974 . S
Cu1336 N1347 1.985 1_455 S
Cu1336 O1356 1.959 1_455 S
N1337 Cu1336 1.999 . S
N1337 C1339 1.263 . S
N1337 C1341 1.389 . S
N1338 C1339 1.358 . S
N1338 C1340 1.400 . S
C1339 N1337 1.263 . S
C1339 N1338 1.358 . S
C1339 H1345 0.930 . S
C1340 N1338 1.400 . S
C1340 C1341 1.351 . S
C1340 H1357 0.930 . S
C1341 N1337 1.389 . S
C1341 C1340 1.351 . S
C1341 H1346 0.930 . S
O1342 Cu1336 1.974 . S
O1342 C1352 1.282 . S
C1343 O1344 1.261 . S
C1343 O1356 1.251 . S
O1344 C1343 1.261 . S
H1345 C1339 0.930 . S
H1346 C1341 0.930 . S
N1347 Cu1336 1.985 1_655 S
N1347 C1349 1.335 . S
N1347 C1350 1.390 1_655 S
N1348 C1349 1.345 . S
N1348 C1351 1.336 . S
C1349 N1347 1.335 . S
C1349 N1348 1.345 . S
C1349 H1354 0.930 . S
C1350 N1347 1.390 1_455 S
C1350 C1351 1.346 1_455 S
C1350 H1355 0.931 . S
C1351 N1348 1.336 . S
C1351 C1350 1.346 1_655 S
C1351 H1358 0.929 . S
C1352 O1342 1.282 . S
C1352 O1353 1.216 . S
O1353 C1352 1.216 . S
H1354 C1349 0.930 . S
H1355 C1350 0.931 . S
O1356 Cu1336 1.959 1_655 S
O1356 C1343 1.251 . S
H1357 C1340 0.930 . S
H1358 C1351 0.929 . S
Cu1359 N1360 1.999 . S
Cu1359 O1365 1.974 . S
Cu1359 N1370 1.949 1_545 S
Cu1359 O1379 1.959 1_545 S
N1360 Cu1359 1.999 . S
N1360 C1362 1.263 . S
N1360 C1364 1.389 . S
N1361 C1362 1.358 . S
N1361 C1363 1.400 . S
C1362 N1360 1.263 . S
C1362 N1361 1.358 . S
C1362 H1368 0.930 . S
C1363 N1361 1.400 . S
C1363 C1364 1.351 . S
C1363 H1380 0.930 . S
C1364 N1360 1.389 . S
C1364 C1363 1.351 . S
C1364 H1369 0.930 . S
O1365 Cu1359 1.974 . S
O1365 C1375 1.282 . S
C1366 O1367 1.261 . S
C1366 O1379 1.251 . S
O1367 C1366 1.261 . S
H1368 C1362 0.930 . S
H1369 C1364 0.930 . S
N1370 Cu1359 1.949 1_565 S
N1370 C1372 1.390 . S
N1370 C1373 1.381 1_565 S
N1371 C1372 1.345 . S
N1371 C1374 1.336 . S
C1372 N1370 1.390 . S
C1372 N1371 1.345 . S
C1372 H1377 0.930 . S
C1373 N1370 1.381 1_545 S
C1373 C1374 1.346 1_545 S
C1373 H1378 0.930 . S
C1374 N1371 1.336 . S
C1374 C1373 1.346 1_565 S
C1374 H1381 0.929 . S
C1375 O1365 1.282 . S
C1375 O1376 1.216 . S
O1376 C1375 1.216 . S
H1377 C1372 0.930 . S
H1378 C1373 0.930 . S
O1379 Cu1359 1.959 1_565 S
O1379 C1366 1.251 . S
H1380 C1363 0.930 . S
H1381 C1374 0.929 . S
Cu1382 N1383 1.999 . S
Cu1382 O1388 1.974 . S
Cu1382 N1393 1.985 . S
Cu1382 O1402 1.959 . S
N1383 Cu1382 1.999 . S
N1383 C1385 1.263 1_455 S
N1383 C1387 1.389 . S
N1384 C1385 1.358 . S
N1384 C1386 1.400 . S
C1385 N1383 1.263 1_655 S
C1385 N1384 1.358 . S
C1385 H1391 0.930 . S
C1386 N1384 1.400 . S
C1386 C1387 1.351 1_655 S
C1386 H1403 0.930 . S
C1387 N1383 1.389 . S
C1387 C1386 1.351 1_455 S
C1387 H1392 0.930 . S
O1388 Cu1382 1.974 . S
O1388 C1398 1.282 1_455 S
C1389 O1390 1.261 . S
C1389 O1402 1.251 . S
O1390 C1389 1.261 . S
H1391 C1385 0.930 . S
H1392 C1387 0.930 . S
N1393 Cu1382 1.985 . S
N1393 C1395 1.335 . S
N1393 C1396 1.390 . S
N1394 C1395 1.345 . S
N1394 C1397 1.336 . S
C1395 N1393 1.335 . S
C1395 N1394 1.345 . S
C1395 H1400 0.930 . S
C1396 N1393 1.390 . S
C1396 C1397 1.346 . S
C1396 H1401 0.930 . S
C1397 N1394 1.336 . S
C1397 C1396 1.346 . S
C1397 H1404 0.929 . S
C1398 O1388 1.282 1_655 S
C1398 O1399 1.216 1_655 S
O1399 C1398 1.216 1_455 S
H1400 C1395 0.930 . S
H1401 C1396 0.930 . S
O1402 Cu1382 1.959 . S
O1402 C1389 1.251 . S
H1403 C1386 0.930 . S
H1404 C1397 0.929 . S
Cu1405 N1406 1.999 . S
Cu1405 O1411 1.974 . S
Cu1405 N1416 2.027 . S
Cu1405 O1425 1.959 1_545 S
N1406 Cu1405 1.999 . S
N1406 C1408 1.263 . S
N1406 C1410 1.389 . S
N1407 C1408 1.358 . S
N1407 C1409 1.400 . S
C1408 N1406 1.263 . S
C1408 N1407 1.358 . S
C1408 H1414 0.930 . S
C1409 N1407 1.400 . S
C1409 C1410 1.351 . S
C1409 H1426 0.930 . S
C1410 N1406 1.389 . S
C1410 C1409 1.351 . S
C1410 H1415 0.930 . S
O1411 Cu1405 1.974 . S
O1411 C1421 1.282 . S
C1412 O1413 1.256 1_565 S
C1412 O1425 1.251 . S
O1413 C1412 1.256 1_545 S
H1414 C1408 0.930 . S
H1415 C1410 0.930 . S
N1416 Cu1405 2.027 . S
N1416 C1418 1.270 1_545 S
N1416 C1419 1.407 . S
N1417 C1418 1.345 . S
N1417 C1420 1.336 . S
C1418 N1416 1.270 1_565 S
C1418 N1417 1.345 . S
C1418 H1423 0.930 . S
C1419 N1416 1.407 . S
C1419 C1420 1.346 1_545 S
C1419 H1424 0.930 . S
C1420 N1417 1.336 . S
C1420 C1419 1.346 1_565 S
C1420 H1427 0.929 . S
C1421 O1411 1.282 . S
C1421 O1422 1.216 . S
O1422 C1421 1.216 . S
H1423 C1418 0.930 . S
H1424 C1419 0.930 . S
O1425 Cu1405 1.959 1_565 S
O1425 C1412 1.251 . S
H1426 C1409 0.930 . S
H1427 C1420 0.929 . S
Cu1428 N1429 1.999 . S
Cu1428 O1434 1.974 . S
Cu1428 N1439 1.985 . S
Cu1428 O1448 1.959 . S
N1429 Cu1428 1.999 . S
N1429 C1431 1.263 . S
N1429 C1433 1.389 . S
N1430 C1431 1.358 . S
N1430 C1432 1.400 . S
C1431 N1429 1.263 . S
C1431 N1430 1.358 . S
C1431 H1437 0.930 . S
C1432 N1430 1.400 . S
C1432 C1433 1.351 . S
C1432 H1449 0.930 . S
C1433 N1429 1.389 . S
C1433 C1432 1.351 . S
C1433 H1438 0.930 . S
O1434 Cu1428 1.974 . S
O1434 C1444 1.282 . S
C1435 O1436 1.261 . S
C1435 O1448 1.251 . S
O1436 C1435 1.261 . S
H1437 C1431 0.930 . S
H1438 C1433 0.930 . S
N1439 Cu1428 1.985 . S
N1439 C1441 1.335 . S
N1439 C1442 1.390 . S
N1440 C1441 1.345 . S
N1440 C1443 1.336 . S
C1441 N1439 1.335 . S
C1441 N1440 1.345 . S
C1441 H1446 0.930 . S
C1442 N1439 1.390 . S
C1442 C1443 1.346 . S
C1442 H1447 0.930 . S
C1443 N1440 1.336 . S
C1443 C1442 1.346 . S
C1443 H1450 0.929 . S
C1444 O1434 1.282 . S
C1444 O1445 1.216 . S
O1445 C1444 1.216 . S
H1446 C1441 0.930 . S
H1447 C1442 0.930 . S
O1448 Cu1428 1.959 . S
O1448 C1435 1.251 . S
H1449 C1432 0.930 . S
H1450 C1443 0.929 . S
Cu1451 N1452 1.999 . S
Cu1451 O1457 1.974 . S
Cu1451 N1462 1.985 . S
Cu1451 O1471 1.959 . S
N1452 Cu1451 1.999 . S
N1452 C1454 1.263 . S
N1452 C1456 1.389 . S
N1453 C1454 1.358 . S
N1453 C1455 1.400 . S
C1454 N1452 1.263 . S
C1454 N1453 1.358 . S
C1454 H1460 0.930 . S
C1455 N1453 1.400 . S
C1455 C1456 1.351 . S
C1455 H1472 0.930 . S
C1456 N1452 1.389 . S
C1456 C1455 1.351 . S
C1456 H1461 0.930 . S
O1457 Cu1451 1.974 . S
O1457 C1467 1.282 . S
C1458 O1459 1.261 . S
C1458 O1471 1.251 . S
O1459 C1458 1.261 . S
H1460 C1454 0.930 . S
H1461 C1456 0.930 . S
N1462 Cu1451 1.985 . S
N1462 C1464 1.335 . S
N1462 C1465 1.390 . S
N1463 C1464 1.345 . S
N1463 C1466 1.336 . S
C1464 N1462 1.335 . S
C1464 N1463 1.345 . S
C1464 H1469 0.930 . S
C1465 N1462 1.390 . S
C1465 C1466 1.346 . S
C1465 H1470 0.930 . S
C1466 N1463 1.336 . S
C1466 C1465 1.346 . S
C1466 H1473 0.929 . S
C1467 O1457 1.282 . S
C1467 O1468 1.216 . S
O1468 C1467 1.216 . S
H1469 C1464 0.930 . S
H1470 C1465 0.930 . S
O1471 Cu1451 1.959 . S
O1471 C1458 1.251 . S
H1472 C1455 0.930 . S
H1473 C1466 0.929 . S
Cu1474 N1475 1.999 . S
Cu1474 O1480 1.974 . S
Cu1474 N1485 1.985 . S
Cu1474 O1494 1.959 . S
N1475 Cu1474 1.999 . S
N1475 C1477 1.263 . S
N1475 C1479 1.389 . S
N1476 C1477 1.358 . S
N1476 C1478 1.400 . S
C1477 N1475 1.263 . S
C1477 N1476 1.358 . S
C1477 H1483 0.930 . S
C1478 N1476 1.400 . S
C1478 C1479 1.351 . S
C1478 H1495 0.930 . S
C1479 N1475 1.389 . S
C1479 C1478 1.351 . S
C1479 H1484 0.930 . S
O1480 Cu1474 1.974 . S
O1480 C1490 1.282 . S
C1481 O1482 1.261 . S
C1481 O1494 1.251 . S
O1482 C1481 1.261 . S
H1483 C1477 0.930 . S
H1484 C1479 0.930 . S
N1485 Cu1474 1.985 . S
N1485 C1487 1.335 . S
N1485 C1488 1.390 . S
N1486 C1487 1.345 . S
N1486 C1489 1.336 . S
C1487 N1485 1.335 . S
C1487 N1486 1.345 . S
C1487 H1492 0.930 . S
C1488 N1485 1.390 . S
C1488 C1489 1.346 . S
C1488 H1493 0.930 . S
C1489 N1486 1.336 . S
C1489 C1488 1.346 . S
C1489 H1496 0.929 . S
C1490 O1480 1.282 . S
C1490 O1491 1.216 . S
O1491 C1490 1.216 . S
H1492 C1487 0.930 . S
H1493 C1488 0.930 . S
O1494 Cu1474 1.959 . S
O1494 C1481 1.251 . S
H1495 C1478 0.930 . S
H1496 C1489 0.929 . S
Cu1497 N1498 1.999 . S
Cu1497 O1503 1.974 . S
Cu1497 N1508 1.985 . S
Cu1497 O1517 1.959 . S
N1498 Cu1497 1.999 . S
N1498 C1500 1.263 . S
N1498 C1502 1.389 . S
N1499 C1500 1.358 . S
N1499 C1501 1.400 . S
C1500 N1498 1.263 . S
C1500 N1499 1.358 . S
C1500 H1506 0.930 . S
C1501 N1499 1.400 . S
C1501 C1502 1.351 . S
C1501 H1518 0.930 . S
C1502 N1498 1.389 . S
C1502 C1501 1.351 . S
C1502 H1507 0.930 . S
O1503 Cu1497 1.974 . S
O1503 C1513 1.282 . S
C1504 O1505 1.261 . S
C1504 O1517 1.251 . S
O1505 C1504 1.261 . S
H1506 C1500 0.930 . S
H1507 C1502 0.930 . S
N1508 Cu1497 1.985 . S
N1508 C1510 1.335 . S
N1508 C1511 1.390 . S
N1509 C1510 1.345 . S
N1509 C1512 1.336 . S
C1510 N1508 1.335 . S
C1510 N1509 1.345 . S
C1510 H1515 0.930 . S
C1511 N1508 1.390 . S
C1511 C1512 1.346 . S
C1511 H1516 0.930 . S
C1512 N1509 1.336 . S
C1512 C1511 1.346 . S
C1512 H1519 0.929 . S
C1513 O1503 1.282 . S
C1513 O1514 1.216 . S
O1514 C1513 1.216 . S
H1515 C1510 0.930 . S
H1516 C1511 0.930 . S
O1517 Cu1497 1.959 . S
O1517 C1504 1.251 . S
H1518 C1501 0.930 . S
H1519 C1512 0.929 . S
Cu1520 N1521 1.999 . S
Cu1520 O1526 1.974 . S
Cu1520 N1531 1.985 . S
Cu1520 O1540 1.959 . S
N1521 Cu1520 1.999 . S
N1521 C1523 1.263 . S
N1521 C1525 1.389 . S
N1522 C1523 1.358 . S
N1522 C1524 1.400 . S
C1523 N1521 1.263 . S
C1523 N1522 1.358 . S
C1523 H1529 0.930 . S
C1524 N1522 1.400 . S
C1524 C1525 1.351 . S
C1524 H1541 0.930 . S
C1525 N1521 1.389 . S
C1525 C1524 1.351 . S
C1525 H1530 0.930 . S
O1526 Cu1520 1.974 . S
O1526 C1536 1.282 . S
C1527 O1528 1.261 . S
C1527 O1540 1.251 . S
O1528 C1527 1.261 . S
H1529 C1523 0.930 . S
H1530 C1525 0.930 . S
N1531 Cu1520 1.985 . S
N1531 C1533 1.335 . S
N1531 C1534 1.390 . S
N1532 C1533 1.345 . S
N1532 C1535 1.336 . S
C1533 N1531 1.335 . S
C1533 N1532 1.345 . S
C1533 H1538 0.930 . S
C1534 N1531 1.390 . S
C1534 C1535 1.346 . S
C1534 H1539 0.930 . S
C1535 N1532 1.336 . S
C1535 C1534 1.346 . S
C1535 H1542 0.929 . S
C1536 O1526 1.282 . S
C1536 O1537 1.216 . S
O1537 C1536 1.216 . S
H1538 C1533 0.930 . S
H1539 C1534 0.930 . S
O1540 Cu1520 1.959 . S
O1540 C1527 1.251 . S
H1541 C1524 0.930 . S
H1542 C1535 0.929 . S
Cu1543 N1544 1.999 . S
Cu1543 O1549 1.974 . S
Cu1543 N1554 1.985 . S
Cu1543 O1563 1.959 . S
N1544 Cu1543 1.999 . S
N1544 C1546 1.263 . S
N1544 C1548 1.389 . S
N1545 C1546 1.358 . S
N1545 C1547 1.400 . S
C1546 N1544 1.263 . S
C1546 N1545 1.358 . S
C1546 H1552 0.930 . S
C1547 N1545 1.400 . S
C1547 C1548 1.351 . S
C1547 H1564 0.930 . S
C1548 N1544 1.389 . S
C1548 C1547 1.351 . S
C1548 H1553 0.930 . S
O1549 Cu1543 1.974 . S
O1549 C1559 1.282 . S
C1550 O1551 1.261 . S
C1550 O1563 1.251 . S
O1551 C1550 1.261 . S
H1552 C1546 0.930 . S
H1553 C1548 0.930 . S
N1554 Cu1543 1.985 . S
N1554 C1556 1.335 . S
N1554 C1557 1.390 . S
N1555 C1556 1.345 . S
N1555 C1558 1.336 . S
C1556 N1554 1.335 . S
C1556 N1555 1.345 . S
C1556 H1561 0.930 . S
C1557 N1554 1.390 . S
C1557 C1558 1.346 . S
C1557 H1562 0.930 . S
C1558 N1555 1.336 . S
C1558 C1557 1.346 . S
C1558 H1565 0.929 . S
C1559 O1549 1.282 . S
C1559 O1560 1.216 . S
O1560 C1559 1.216 . S
H1561 C1556 0.930 . S
H1562 C1557 0.930 . S
O1563 Cu1543 1.959 . S
O1563 C1550 1.251 . S
H1564 C1547 0.930 . S
H1565 C1558 0.929 . S
Cu1566 N1567 1.999 . S
Cu1566 O1572 1.974 . S
Cu1566 N1577 1.985 . S
Cu1566 O1586 1.959 . S
N1567 Cu1566 1.999 . S
N1567 C1569 1.263 . S
N1567 C1571 1.389 . S
N1568 C1569 1.358 . S
N1568 C1570 1.400 . S
C1569 N1567 1.263 . S
C1569 N1568 1.358 . S
C1569 H1575 0.930 . S
C1570 N1568 1.400 . S
C1570 C1571 1.351 . S
C1570 H1587 0.930 . S
C1571 N1567 1.389 . S
C1571 C1570 1.351 . S
C1571 H1576 0.930 . S
O1572 Cu1566 1.974 . S
O1572 C1582 1.282 . S
C1573 O1574 1.261 . S
C1573 O1586 1.251 . S
O1574 C1573 1.261 . S
H1575 C1569 0.930 . S
H1576 C1571 0.930 . S
N1577 Cu1566 1.985 . S
N1577 C1579 1.335 . S
N1577 C1580 1.390 . S
N1578 C1579 1.345 . S
N1578 C1581 1.336 . S
C1579 N1577 1.335 . S
C1579 N1578 1.345 . S
C1579 H1584 0.930 . S
C1580 N1577 1.390 . S
C1580 C1581 1.346 . S
C1580 H1585 0.930 . S
C1581 N1578 1.336 . S
C1581 C1580 1.346 . S
C1581 H1588 0.929 . S
C1582 O1572 1.282 . S
C1582 O1583 1.216 . S
O1583 C1582 1.216 . S
H1584 C1579 0.930 . S
H1585 C1580 0.930 . S
O1586 Cu1566 1.959 . S
O1586 C1573 1.251 . S
H1587 C1570 0.930 . S
H1588 C1581 0.929 . S
Cu1589 N1590 1.999 . S
Cu1589 O1595 1.974 . S
Cu1589 N1600 1.985 . S
Cu1589 O1609 1.959 . S
N1590 Cu1589 1.999 . S
N1590 C1592 1.263 . S
N1590 C1594 1.389 . S
N1591 C1592 1.358 . S
N1591 C1593 1.400 . S
C1592 N1590 1.263 . S
C1592 N1591 1.358 . S
C1592 H1598 0.930 . S
C1593 N1591 1.400 . S
C1593 C1594 1.351 . S
C1593 H1610 0.930 . S
C1594 N1590 1.389 . S
C1594 C1593 1.351 . S
C1594 H1599 0.930 . S
O1595 Cu1589 1.974 . S
O1595 C1605 1.282 . S
C1596 O1597 1.261 . S
C1596 O1609 1.251 . S
O1597 C1596 1.261 . S
H1598 C1592 0.930 . S
H1599 C1594 0.930 . S
N1600 Cu1589 1.985 . S
N1600 C1602 1.335 . S
N1600 C1603 1.390 . S
N1601 C1602 1.345 . S
N1601 C1604 1.336 . S
C1602 N1600 1.335 . S
C1602 N1601 1.345 . S
C1602 H1607 0.930 . S
C1603 N1600 1.390 . S
C1603 C1604 1.346 . S
C1603 H1608 0.930 . S
C1604 N1601 1.336 . S
C1604 C1603 1.346 . S
C1604 H1611 0.929 . S
C1605 O1595 1.282 . S
C1605 O1606 1.216 . S
O1606 C1605 1.216 . S
H1607 C1602 0.930 . S
H1608 C1603 0.930 . S
O1609 Cu1589 1.959 . S
O1609 C1596 1.251 . S
H1610 C1593 0.930 . S
H1611 C1604 0.929 . S
Cu1612 N1613 1.999 . S
Cu1612 O1618 1.974 . S
Cu1612 N1623 1.985 . S
Cu1612 O1632 1.959 . S
N1613 Cu1612 1.999 . S
N1613 C1615 1.263 . S
N1613 C1617 1.389 . S
N1614 C1615 1.358 . S
N1614 C1616 1.400 . S
C1615 N1613 1.263 . S
C1615 N1614 1.358 . S
C1615 H1621 0.930 . S
C1616 N1614 1.400 . S
C1616 C1617 1.351 . S
C1616 H1633 0.930 . S
C1617 N1613 1.389 . S
C1617 C1616 1.351 . S
C1617 H1622 0.930 . S
O1618 Cu1612 1.974 . S
O1618 C1628 1.282 . S
C1619 O1620 1.261 . S
C1619 O1632 1.251 . S
O1620 C1619 1.261 . S
H1621 C1615 0.930 . S
H1622 C1617 0.930 . S
N1623 Cu1612 1.985 . S
N1623 C1625 1.335 . S
N1623 C1626 1.390 . S
N1624 C1625 1.345 . S
N1624 C1627 1.336 . S
C1625 N1623 1.335 . S
C1625 N1624 1.345 . S
C1625 H1630 0.930 . S
C1626 N1623 1.390 . S
C1626 C1627 1.346 . S
C1626 H1631 0.930 . S
C1627 N1624 1.336 . S
C1627 C1626 1.346 . S
C1627 H1634 0.929 . S
C1628 O1618 1.282 . S
C1628 O1629 1.216 . S
O1629 C1628 1.216 . S
H1630 C1625 0.930 . S
H1631 C1626 0.930 . S
O1632 Cu1612 1.959 . S
O1632 C1619 1.251 . S
H1633 C1616 0.930 . S
H1634 C1627 0.929 . S
Cu1635 N1636 1.999 . S
Cu1635 O1641 1.974 . S
Cu1635 N1646 1.985 . S
Cu1635 O1655 1.959 . S
N1636 Cu1635 1.999 . S
N1636 C1638 1.263 . S
N1636 C1640 1.389 . S
N1637 C1638 1.358 . S
N1637 C1639 1.400 . S
C1638 N1636 1.263 . S
C1638 N1637 1.358 . S
C1638 H1644 0.930 . S
C1639 N1637 1.400 . S
C1639 C1640 1.351 . S
C1639 H1656 0.930 . S
C1640 N1636 1.389 . S
C1640 C1639 1.351 . S
C1640 H1645 0.930 . S
O1641 Cu1635 1.974 . S
O1641 C1651 1.282 . S
C1642 O1643 1.261 . S
C1642 O1655 1.251 . S
O1643 C1642 1.261 . S
H1644 C1638 0.930 . S
H1645 C1640 0.930 . S
N1646 Cu1635 1.985 . S
N1646 C1648 1.335 . S
N1646 C1649 1.390 . S
N1647 C1648 1.345 . S
N1647 C1650 1.336 . S
C1648 N1646 1.335 . S
C1648 N1647 1.345 . S
C1648 H1653 0.930 . S
C1649 N1646 1.390 . S
C1649 C1650 1.346 . S
C1649 H1654 0.930 . S
C1650 N1647 1.336 . S
C1650 C1649 1.346 . S
C1650 H1657 0.929 . S
C1651 O1641 1.282 . S
C1651 O1652 1.216 . S
O1652 C1651 1.216 . S
H1653 C1648 0.930 . S
H1654 C1649 0.930 . S
O1655 Cu1635 1.959 . S
O1655 C1642 1.251 . S
H1656 C1639 0.930 . S
H1657 C1650 0.929 . S
Cu1658 N1659 1.999 . S
Cu1658 O1664 1.974 . S
Cu1658 N1669 1.985 . S
Cu1658 O1678 1.959 . S
N1659 Cu1658 1.999 . S
N1659 C1661 1.263 . S
N1659 C1663 1.389 . S
N1660 C1661 1.358 . S
N1660 C1662 1.400 . S
C1661 N1659 1.263 . S
C1661 N1660 1.358 . S
C1661 H1667 0.930 . S
C1662 N1660 1.400 . S
C1662 C1663 1.351 . S
C1662 H1679 0.930 . S
C1663 N1659 1.389 . S
C1663 C1662 1.351 . S
C1663 H1668 0.930 . S
O1664 Cu1658 1.974 . S
O1664 C1674 1.282 . S
C1665 O1666 1.261 . S
C1665 O1678 1.251 . S
O1666 C1665 1.261 . S
H1667 C1661 0.930 . S
H1668 C1663 0.930 . S
N1669 Cu1658 1.985 . S
N1669 C1671 1.335 . S
N1669 C1672 1.390 . S
N1670 C1671 1.345 . S
N1670 C1673 1.336 . S
C1671 N1669 1.335 . S
C1671 N1670 1.345 . S
C1671 H1676 0.930 . S
C1672 N1669 1.390 . S
C1672 C1673 1.346 . S
C1672 H1677 0.930 . S
C1673 N1670 1.336 . S
C1673 C1672 1.346 . S
C1673 H1680 0.929 . S
C1674 O1664 1.282 . S
C1674 O1675 1.216 . S
O1675 C1674 1.216 . S
H1676 C1671 0.930 . S
H1677 C1672 0.930 . S
O1678 Cu1658 1.959 . S
O1678 C1665 1.251 . S
H1679 C1662 0.930 . S
H1680 C1673 0.929 . S
Cu1681 N1682 1.999 . S
Cu1681 O1687 1.974 . S
Cu1681 N1692 1.985 . S
Cu1681 O1701 1.959 . S
N1682 Cu1681 1.999 . S
N1682 C1684 1.263 . S
N1682 C1686 1.389 . S
N1683 C1684 1.358 . S
N1683 C1685 1.400 . S
C1684 N1682 1.263 . S
C1684 N1683 1.358 . S
C1684 H1690 0.930 . S
C1685 N1683 1.400 . S
C1685 C1686 1.351 . S
C1685 H1702 0.930 . S
C1686 N1682 1.389 . S
C1686 C1685 1.351 . S
C1686 H1691 0.930 . S
O1687 Cu1681 1.974 . S
O1687 C1697 1.282 . S
C1688 O1689 1.261 . S
C1688 O1701 1.251 . S
O1689 C1688 1.261 . S
H1690 C1684 0.930 . S
H1691 C1686 0.930 . S
N1692 Cu1681 1.985 . S
N1692 C1694 1.335 . S
N1692 C1695 1.390 . S
N1693 C1694 1.345 . S
N1693 C1696 1.336 . S
C1694 N1692 1.335 . S
C1694 N1693 1.345 . S
C1694 H1699 0.930 . S
C1695 N1692 1.390 . S
C1695 C1696 1.346 . S
C1695 H1700 0.930 . S
C1696 N1693 1.336 . S
C1696 C1695 1.346 . S
C1696 H1703 0.929 . S
C1697 O1687 1.282 . S
C1697 O1698 1.216 . S
O1698 C1697 1.216 . S
H1699 C1694 0.930 . S
H1700 C1695 0.930 . S
O1701 Cu1681 1.959 . S
O1701 C1688 1.251 . S
H1702 C1685 0.930 . S
H1703 C1696 0.929 . S
H1704 C1712 0.950 . S
H1705 C1717 0.950 . S
H1706 C1714 0.950 . S
H1707 C1716 0.950 . S
H1708 C1718 0.950 . S
H1709 C1720 0.950 . S
H1710 C1722 0.950 . S
H1711 C1723 0.950 . S
C1712 H1704 0.950 . S
C1712 C1713 1.386 . S
C1712 C1714 1.391 . S
C1713 C1712 1.386 . S
C1713 C1717 1.393 . S
C1714 H1706 0.950 . S
C1714 C1712 1.391 . S
C1714 C1715 1.400 . S
C1715 C1714 1.400 . S
C1715 C1716 1.398 . S
C1715 C1721 1.491 . S
C1716 H1707 0.950 . S
C1716 C1715 1.398 . S
C1716 C1717 1.391 . S
C1717 H1705 0.950 . S
C1717 C1713 1.393 . S
C1717 C1716 1.391 . S
C1718 H1708 0.950 . S
C1718 C1719 1.386 . S
C1718 C1720 1.391 . S
C1719 C1718 1.386 . S
C1719 C1723 1.393 . S
C1720 H1709 0.950 . S
C1720 C1718 1.391 . S
C1720 C1721 1.400 . S
C1721 C1715 1.491 . S
C1721 C1720 1.400 . S
C1721 C1722 1.398 . S
C1722 H1710 0.950 . S
C1722 C1721 1.398 . S
C1722 C1723 1.391 . S
C1723 H1711 0.950 . S
C1723 C1719 1.393 . S
C1723 C1722 1.391 . S
H1724 C1732 0.950 . S
H1725 C1737 0.950 . S
H1726 C1734 0.950 . S
H1727 C1736 0.950 . S
H1728 C1738 0.950 . S
H1729 C1740 0.950 . S
H1730 C1742 0.950 . S
H1731 C1743 0.950 . S
C1732 H1724 0.950 . S
C1732 C1733 1.386 . S
C1732 C1734 1.391 . S
C1733 C1732 1.386 . S
C1733 C1737 1.393 . S
C1734 H1726 0.950 . S
C1734 C1732 1.391 . S
C1734 C1735 1.400 . S
C1735 C1734 1.400 . S
C1735 C1736 1.398 . S
C1735 C1741 1.491 . S
C1736 H1727 0.950 . S
C1736 C1735 1.398 . S
C1736 C1737 1.391 . S
C1737 H1725 0.950 . S
C1737 C1733 1.393 . S
C1737 C1736 1.391 . S
C1738 H1728 0.950 . S
C1738 C1739 1.386 . S
C1738 C1740 1.391 . S
C1739 C1738 1.386 . S
C1739 C1743 1.393 . S
C1740 H1729 0.950 . S
C1740 C1738 1.391 . S
C1740 C1741 1.400 . S
C1741 C1735 1.491 . S
C1741 C1740 1.400 . S
C1741 C1742 1.398 . S
C1742 H1730 0.950 . S
C1742 C1741 1.398 . S
C1742 C1743 1.391 . S
C1743 H1731 0.950 . S
C1743 C1739 1.393 . S
C1743 C1742 1.391 . S
H1744 C1752 0.950 . S
H1745 C1757 0.950 . S
H1746 C1754 0.950 . S
H1747 C1756 0.950 . S
H1748 C1758 0.950 . S
H1749 C1760 0.950 . S
H1750 C1762 0.950 . S
H1751 C1763 0.950 . S
C1752 H1744 0.950 . S
C1752 C1753 1.386 . S
C1752 C1754 1.391 . S
C1753 C1752 1.386 . S
C1753 C1757 1.393 . S
C1754 H1746 0.950 . S
C1754 C1752 1.391 . S
C1754 C1755 1.400 . S
C1755 C1754 1.400 . S
C1755 C1756 1.398 . S
C1755 C1761 1.491 . S
C1756 H1747 0.950 . S
C1756 C1755 1.398 . S
C1756 C1757 1.391 . S
C1757 H1745 0.950 . S
C1757 C1753 1.393 . S
C1757 C1756 1.391 . S
C1758 H1748 0.950 . S
C1758 C1759 1.386 . S
C1758 C1760 1.391 . S
C1759 C1758 1.386 . S
C1759 C1763 1.393 . S
C1760 H1749 0.950 . S
C1760 C1758 1.391 . S
C1760 C1761 1.400 . S
C1761 C1755 1.491 . S
C1761 C1760 1.400 . S
C1761 C1762 1.398 . S
C1762 H1750 0.950 . S
C1762 C1761 1.398 . S
C1762 C1763 1.391 . S
C1763 H1751 0.950 . S
C1763 C1759 1.393 . S
C1763 C1762 1.391 . S
H1764 C1772 0.950 . S
H1765 C1777 0.950 . S
H1766 C1774 0.950 . S
H1767 C1776 0.950 . S
H1768 C1778 0.950 . S
H1769 C1780 0.950 . S
H1770 C1782 0.950 . S
H1771 C1783 0.950 . S
C1772 H1764 0.950 . S
C1772 C1773 1.386 . S
C1772 C1774 1.391 . S
C1773 C1772 1.386 . S
C1773 C1777 1.393 . S
C1774 H1766 0.950 . S
C1774 C1772 1.391 . S
C1774 C1775 1.400 . S
C1775 C1774 1.400 . S
C1775 C1776 1.398 . S
C1775 C1781 1.491 . S
C1776 H1767 0.950 . S
C1776 C1775 1.398 . S
C1776 C1777 1.391 . S
C1777 H1765 0.950 . S
C1777 C1773 1.393 . S
C1777 C1776 1.391 . S
C1778 H1768 0.950 . S
C1778 C1779 1.386 . S
C1778 C1780 1.391 . S
C1779 C1778 1.386 . S
C1779 C1783 1.393 . S
C1780 H1769 0.950 . S
C1780 C1778 1.391 . S
C1780 C1781 1.400 . S
C1781 C1775 1.491 . S
C1781 C1780 1.400 . S
C1781 C1782 1.398 . S
C1782 H1770 0.950 . S
C1782 C1781 1.398 . S
C1782 C1783 1.391 . S
C1783 H1771 0.950 . S
C1783 C1779 1.393 . S
C1783 C1782 1.391 . S
H1784 C1792 0.950 . S
H1785 C1797 0.950 . S
H1786 C1794 0.950 . S
H1787 C1796 0.950 . S
H1788 C1798 0.950 . S
H1789 C1800 0.950 . S
H1790 C1802 0.950 . S
H1791 C1803 0.950 . S
C1792 H1784 0.950 . S
C1792 C1793 1.386 . S
C1792 C1794 1.391 . S
C1793 C1792 1.386 . S
C1793 C1797 1.393 . S
C1794 H1786 0.950 . S
C1794 C1792 1.391 . S
C1794 C1795 1.400 . S
C1795 C1794 1.400 . S
C1795 C1796 1.398 . S
C1795 C1801 1.491 . S
C1796 H1787 0.950 . S
C1796 C1795 1.398 . S
C1796 C1797 1.391 . S
C1797 H1785 0.950 . S
C1797 C1793 1.393 . S
C1797 C1796 1.391 . S
C1798 H1788 0.950 . S
C1798 C1799 1.386 . S
C1798 C1800 1.391 . S
C1799 C1798 1.386 . S
C1799 C1803 1.393 . S
C1800 H1789 0.950 . S
C1800 C1798 1.391 . S
C1800 C1801 1.400 . S
C1801 C1795 1.491 . S
C1801 C1800 1.400 . S
C1801 C1802 1.398 . S
C1802 H1790 0.950 . S
C1802 C1801 1.398 . S
C1802 C1803 1.391 . S
C1803 H1791 0.950 . S
C1803 C1799 1.393 . S
C1803 C1802 1.391 . S
H1804 C1812 0.950 . S
H1805 C1817 0.950 . S
H1806 C1814 0.950 . S
H1807 C1816 0.950 . S
H1808 C1818 0.950 . S
H1809 C1820 0.950 . S
H1810 C1822 0.950 . S
H1811 C1823 0.950 . S
C1812 H1804 0.950 . S
C1812 C1813 1.386 . S
C1812 C1814 1.391 . S
C1813 C1812 1.386 . S
C1813 C1817 1.393 . S
C1814 H1806 0.950 . S
C1814 C1812 1.391 . S
C1814 C1815 1.400 . S
C1815 C1814 1.400 . S
C1815 C1816 1.398 . S
C1815 C1821 1.491 . S
C1816 H1807 0.950 . S
C1816 C1815 1.398 . S
C1816 C1817 1.391 . S
C1817 H1805 0.950 . S
C1817 C1813 1.393 . S
C1817 C1816 1.391 . S
C1818 H1808 0.950 . S
C1818 C1819 1.386 . S
C1818 C1820 1.391 . S
C1819 C1818 1.386 . S
C1819 C1823 1.393 . S
C1820 H1809 0.950 . S
C1820 C1818 1.391 . S
C1820 C1821 1.400 . S
C1821 C1815 1.491 . S
C1821 C1820 1.400 . S
C1821 C1822 1.398 . S
C1822 H1810 0.950 . S
C1822 C1821 1.398 . S
C1822 C1823 1.391 . S
C1823 H1811 0.950 . S
C1823 C1819 1.393 . S
C1823 C1822 1.391 . S
H1824 C1832 0.950 . S
H1825 C1837 0.950 . S
H1826 C1834 0.950 . S
H1827 C1836 0.950 . S
H1828 C1838 0.950 . S
H1829 C1840 0.950 . S
H1830 C1842 0.950 . S
H1831 C1843 0.950 . S
C1832 H1824 0.950 . S
C1832 C1833 1.386 . S
C1832 C1834 1.391 . S
C1833 C1832 1.386 . S
C1833 C1837 1.393 . S
C1834 H1826 0.950 . S
C1834 C1832 1.391 . S
C1834 C1835 1.400 . S
C1835 C1834 1.400 . S
C1835 C1836 1.398 . S
C1835 C1841 1.491 . S
C1836 H1827 0.950 . S
C1836 C1835 1.398 . S
C1836 C1837 1.391 . S
C1837 H1825 0.950 . S
C1837 C1833 1.393 . S
C1837 C1836 1.391 . S
C1838 H1828 0.950 . S
C1838 C1839 1.386 . S
C1838 C1840 1.391 . S
C1839 C1838 1.386 . S
C1839 C1843 1.393 . S
C1840 H1829 0.950 . S
C1840 C1838 1.391 . S
C1840 C1841 1.400 . S
C1841 C1835 1.491 . S
C1841 C1840 1.400 . S
C1841 C1842 1.398 . S
C1842 H1830 0.950 . S
C1842 C1841 1.398 . S
C1842 C1843 1.391 . S
C1843 H1831 0.950 . S
C1843 C1839 1.393 . S
C1843 C1842 1.391 . S
H1844 C1852 0.950 . S
H1845 C1857 0.950 . S
H1846 C1854 0.950 . S
H1847 C1856 0.950 . S
H1848 C1858 0.950 . S
H1849 C1860 0.950 . S
H1850 C1862 0.950 . S
H1851 C1863 0.950 . S
C1852 H1844 0.950 . S
C1852 C1853 1.386 . S
C1852 C1854 1.391 . S
C1853 C1852 1.386 . S
C1853 C1857 1.393 . S
C1854 H1846 0.950 . S
C1854 C1852 1.391 . S
C1854 C1855 1.400 . S
C1855 C1854 1.400 . S
C1855 C1856 1.398 . S
C1855 C1861 1.491 . S
C1856 H1847 0.950 . S
C1856 C1855 1.398 . S
C1856 C1857 1.391 . S
C1857 H1845 0.950 . S
C1857 C1853 1.393 . S
C1857 C1856 1.391 . S
C1858 H1848 0.950 . S
C1858 C1859 1.386 . S
C1858 C1860 1.391 . S
C1859 C1858 1.386 . S
C1859 C1863 1.393 . S
C1860 H1849 0.950 . S
C1860 C1858 1.391 . S
C1860 C1861 1.400 . S
C1861 C1855 1.491 . S
C1861 C1860 1.400 . S
C1861 C1862 1.398 . S
C1862 H1850 0.950 . S
C1862 C1861 1.398 . S
C1862 C1863 1.391 . S
C1863 H1851 0.950 . S
C1863 C1859 1.393 . S
C1863 C1862 1.391 . S
H1864 C1872 0.950 . S
H1865 C1877 0.950 . S
H1866 C1874 0.950 . S
H1867 C1876 0.950 . S
H1868 C1878 0.950 . S
H1869 C1880 0.950 . S
H1870 C1882 0.950 . S
H1871 C1883 0.950 . S
C1872 H1864 0.950 . S
C1872 C1873 1.386 . S
C1872 C1874 1.391 . S
C1873 C1872 1.386 . S
C1873 C1877 1.393 . S
C1874 H1866 0.950 . S
C1874 C1872 1.391 . S
C1874 C1875 1.400 . S
C1875 C1874 1.400 . S
C1875 C1876 1.398 . S
C1875 C1881 1.491 . S
C1876 H1867 0.950 . S
C1876 C1875 1.398 . S
C1876 C1877 1.391 . S
C1877 H1865 0.950 . S
C1877 C1873 1.393 . S
C1877 C1876 1.391 . S
C1878 H1868 0.950 . S
C1878 C1879 1.386 . S
C1878 C1880 1.391 . S
C1879 C1878 1.386 . S
C1879 C1883 1.393 . S
C1880 H1869 0.950 . S
C1880 C1878 1.391 . S
C1880 C1881 1.400 . S
C1881 C1875 1.491 . S
C1881 C1880 1.400 . S
C1881 C1882 1.398 . S
C1882 H1870 0.950 . S
C1882 C1881 1.398 . S
C1882 C1883 1.391 . S
C1883 H1871 0.950 . S
C1883 C1879 1.393 . S
C1883 C1882 1.391 . S
H1884 C1892 0.950 . S
H1885 C1897 0.950 . S
H1886 C1894 0.950 . S
H1887 C1896 0.950 . S
H1888 C1898 0.950 . S
H1889 C1900 0.950 . S
H1890 C1902 0.950 . S
H1891 C1903 0.950 . S
C1892 H1884 0.950 . S
C1892 C1893 1.386 . S
C1892 C1894 1.391 . S
C1893 C1892 1.386 . S
C1893 C1897 1.393 . S
C1894 H1886 0.950 . S
C1894 C1892 1.391 . S
C1894 C1895 1.400 . S
C1895 C1894 1.400 . S
C1895 C1896 1.398 . S
C1895 C1901 1.491 . S
C1896 H1887 0.950 . S
C1896 C1895 1.398 . S
C1896 C1897 1.391 . S
C1897 H1885 0.950 . S
C1897 C1893 1.393 . S
C1897 C1896 1.391 . S
C1898 H1888 0.950 . S
C1898 C1899 1.386 . S
C1898 C1900 1.391 . S
C1899 C1898 1.386 . S
C1899 C1903 1.393 . S
C1900 H1889 0.950 . S
C1900 C1898 1.391 . S
C1900 C1901 1.400 . S
C1901 C1895 1.491 . S
C1901 C1900 1.400 . S
C1901 C1902 1.398 . S
C1902 H1890 0.950 . S
C1902 C1901 1.398 . S
C1902 C1903 1.391 . S
C1903 H1891 0.950 . S
C1903 C1899 1.393 . S
C1903 C1902 1.391 . S
H1904 C1912 0.950 . S
H1905 C1917 0.950 . S
H1906 C1914 0.950 . S
H1907 C1916 0.950 . S
H1908 C1918 0.950 . S
H1909 C1920 0.950 . S
H1910 C1922 0.950 . S
H1911 C1923 0.950 . S
C1912 H1904 0.950 . S
C1912 C1913 1.386 . S
C1912 C1914 1.391 . S
C1913 C1912 1.386 . S
C1913 C1917 1.393 . S
C1914 H1906 0.950 . S
C1914 C1912 1.391 . S
C1914 C1915 1.400 . S
C1915 C1914 1.400 . S
C1915 C1916 1.398 . S
C1915 C1921 1.491 . S
C1916 H1907 0.950 . S
C1916 C1915 1.398 . S
C1916 C1917 1.391 . S
C1917 H1905 0.950 . S
C1917 C1913 1.393 . S
C1917 C1916 1.391 . S
C1918 H1908 0.950 . S
C1918 C1919 1.386 . S
C1918 C1920 1.391 . S
C1919 C1918 1.386 . S
C1919 C1923 1.393 . S
C1920 H1909 0.950 . S
C1920 C1918 1.391 . S
C1920 C1921 1.400 . S
C1921 C1915 1.491 . S
C1921 C1920 1.400 . S
C1921 C1922 1.398 . S
C1922 H1910 0.950 . S
C1922 C1921 1.398 . S
C1922 C1923 1.391 . S
C1923 H1911 0.950 . S
C1923 C1919 1.393 . S
C1923 C1922 1.391 . S
H1924 C1932 0.950 . S
H1925 C1937 0.950 . S
H1926 C1934 0.950 . S
H1927 C1936 0.950 . S
H1928 C1938 0.950 . S
H1929 C1940 0.950 . S
H1930 C1942 0.950 . S
H1931 C1943 0.950 . S
C1932 H1924 0.950 . S
C1932 C1933 1.386 . S
C1932 C1934 1.391 . S
C1933 C1932 1.386 . S
C1933 C1937 1.393 . S
C1934 H1926 0.950 . S
C1934 C1932 1.391 . S
C1934 C1935 1.400 . S
C1935 C1934 1.400 . S
C1935 C1936 1.398 . S
C1935 C1941 1.491 . S
C1936 H1927 0.950 . S
C1936 C1935 1.398 . S
C1936 C1937 1.391 . S
C1937 H1925 0.950 . S
C1937 C1933 1.393 . S
C1937 C1936 1.391 . S
C1938 H1928 0.950 . S
C1938 C1939 1.386 . S
C1938 C1940 1.391 . S
C1939 C1938 1.386 . S
C1939 C1943 1.393 . S
C1940 H1929 0.950 . S
C1940 C1938 1.391 . S
C1940 C1941 1.400 . S
C1941 C1935 1.491 . S
C1941 C1940 1.400 . S
C1941 C1942 1.398 . S
C1942 H1930 0.950 . S
C1942 C1941 1.398 . S
C1942 C1943 1.391 . S
C1943 H1931 0.950 . S
C1943 C1939 1.393 . S
C1943 C1942 1.391 . S
H1944 C1952 0.950 . S
H1945 C1957 0.950 . S
H1946 C1954 0.950 . S
H1947 C1956 0.950 . S
H1948 C1958 0.950 . S
H1949 C1960 0.950 . S
H1950 C1962 0.950 . S
H1951 C1963 0.950 . S
C1952 H1944 0.950 . S
C1952 C1953 1.386 . S
C1952 C1954 1.391 . S
C1953 C1952 1.386 . S
C1953 C1957 1.393 . S
C1954 H1946 0.950 . S
C1954 C1952 1.391 . S
C1954 C1955 1.400 . S
C1955 C1954 1.400 . S
C1955 C1956 1.398 . S
C1955 C1961 1.491 . S
C1956 H1947 0.950 . S
C1956 C1955 1.398 . S
C1956 C1957 1.391 . S
C1957 H1945 0.950 . S
C1957 C1953 1.393 . S
C1957 C1956 1.391 . S
C1958 H1948 0.950 . S
C1958 C1959 1.386 . S
C1958 C1960 1.391 . S
C1959 C1958 1.386 . S
C1959 C1963 1.393 . S
C1960 H1949 0.950 . S
C1960 C1958 1.391 . S
C1960 C1961 1.400 . S
C1961 C1955 1.491 . S
C1961 C1960 1.400 . S
C1961 C1962 1.398 . S
C1962 H1950 0.950 . S
C1962 C1961 1.398 . S
C1962 C1963 1.391 . S
C1963 H1951 0.950 . S
C1963 C1959 1.393 . S
C1963 C1962 1.391 . S
H1964 C1972 0.950 . S
H1965 C1977 0.950 . S
H1966 C1974 0.950 . S
H1967 C1976 0.950 . S
H1968 C1978 0.950 . S
H1969 C1980 0.950 . S
H1970 C1982 0.950 . S
H1971 C1983 0.950 . S
C1972 H1964 0.950 . S
C1972 C1973 1.386 . S
C1972 C1974 1.391 . S
C1973 C1972 1.386 . S
C1973 C1977 1.393 . S
C1974 H1966 0.950 . S
C1974 C1972 1.391 . S
C1974 C1975 1.400 . S
C1975 C1974 1.400 . S
C1975 C1976 1.398 . S
C1975 C1981 1.491 . S
C1976 H1967 0.950 . S
C1976 C1975 1.398 . S
C1976 C1977 1.391 . S
C1977 H1965 0.950 . S
C1977 C1973 1.393 . S
C1977 C1976 1.391 . S
C1978 H1968 0.950 . S
C1978 C1979 1.386 . S
C1978 C1980 1.391 . S
C1979 C1978 1.386 . S
C1979 C1983 1.393 . S
C1980 H1969 0.950 . S
C1980 C1978 1.391 . S
C1980 C1981 1.400 . S
C1981 C1975 1.491 . S
C1981 C1980 1.400 . S
C1981 C1982 1.398 . S
C1982 H1970 0.950 . S
C1982 C1981 1.398 . S
C1982 C1983 1.391 . S
C1983 H1971 0.950 . S
C1983 C1979 1.393 . S
C1983 C1982 1.391 . S
H1984 C1992 0.950 . S
H1985 C1997 0.950 . S
H1986 C1994 0.950 . S
H1987 C1996 0.950 . S
H1988 C1998 0.950 . S
H1989 C2000 0.950 . S
H1990 C2002 0.950 . S
H1991 C2003 0.950 . S
C1992 H1984 0.950 . S
C1992 C1993 1.386 . S
C1992 C1994 1.391 . S
C1993 C1992 1.386 . S
C1993 C1997 1.393 . S
C1994 H1986 0.950 . S
C1994 C1992 1.391 . S
C1994 C1995 1.400 . S
C1995 C1994 1.400 . S
C1995 C1996 1.398 . S
C1995 C2001 1.491 . S
C1996 H1987 0.950 . S
C1996 C1995 1.398 . S
C1996 C1997 1.391 . S
C1997 H1985 0.950 . S
C1997 C1993 1.393 . S
C1997 C1996 1.391 . S
C1998 H1988 0.950 . S
C1998 C1999 1.386 . S
C1998 C2000 1.391 . S
C1999 C1998 1.386 . S
C1999 C2003 1.393 . S
C2000 H1989 0.950 . S
C2000 C1998 1.391 . S
C2000 C2001 1.400 . S
C2001 C1995 1.491 . S
C2001 C2000 1.400 . S
C2001 C2002 1.398 . S
C2002 H1990 0.950 . S
C2002 C2001 1.398 . S
C2002 C2003 1.391 . S
C2003 H1991 0.950 . S
C2003 C1999 1.393 . S
C2003 C2002 1.391 . S
H2004 C2012 0.950 . S
H2005 C2017 0.950 . S
H2006 C2014 0.950 . S
H2007 C2016 0.950 . S
H2008 C2018 0.950 . S
H2009 C2020 0.950 . S
H2010 C2022 0.950 . S
H2011 C2023 0.950 . S
C2012 H2004 0.950 . S
C2012 C2013 1.386 . S
C2012 C2014 1.391 . S
C2013 C2012 1.386 . S
C2013 C2017 1.393 . S
C2014 H2006 0.950 . S
C2014 C2012 1.391 . S
C2014 C2015 1.400 . S
C2015 C2014 1.400 . S
C2015 C2016 1.398 . S
C2015 C2021 1.491 . S
C2016 H2007 0.950 . S
C2016 C2015 1.398 . S
C2016 C2017 1.391 . S
C2017 H2005 0.950 . S
C2017 C2013 1.393 . S
C2017 C2016 1.391 . S
C2018 H2008 0.950 . S
C2018 C2019 1.386 . S
C2018 C2020 1.391 . S
C2019 C2018 1.386 . S
C2019 C2023 1.393 . S
C2020 H2009 0.950 . S
C2020 C2018 1.391 . S
C2020 C2021 1.400 . S
C2021 C2015 1.491 . S
C2021 C2020 1.400 . S
C2021 C2022 1.398 . S
C2022 H2010 0.950 . S
C2022 C2021 1.398 . S
C2022 C2023 1.391 . S
C2023 H2011 0.950 . S
C2023 C2019 1.393 . S
C2023 C2022 1.391 . S
H2024 C2032 0.950 . S
H2025 C2037 0.950 . S
H2026 C2034 0.950 . S
H2027 C2036 0.950 . S
H2028 C2038 0.950 . S
H2029 C2040 0.950 . S
H2030 C2042 0.950 . S
H2031 C2043 0.950 . S
C2032 H2024 0.950 . S
C2032 C2033 1.386 . S
C2032 C2034 1.391 . S
C2033 C2032 1.386 . S
C2033 C2037 1.393 . S
C2034 H2026 0.950 . S
C2034 C2032 1.391 . S
C2034 C2035 1.400 . S
C2035 C2034 1.400 . S
C2035 C2036 1.398 . S
C2035 C2041 1.491 . S
C2036 H2027 0.950 . S
C2036 C2035 1.398 . S
C2036 C2037 1.391 . S
C2037 H2025 0.950 . S
C2037 C2033 1.393 . S
C2037 C2036 1.391 . S
C2038 H2028 0.950 . S
C2038 C2039 1.386 . S
C2038 C2040 1.391 . S
C2039 C2038 1.386 . S
C2039 C2043 1.393 . S
C2040 H2029 0.950 . S
C2040 C2038 1.391 . S
C2040 C2041 1.400 . S
C2041 C2035 1.491 . S
C2041 C2040 1.400 . S
C2041 C2042 1.398 . S
C2042 H2030 0.950 . S
C2042 C2041 1.398 . S
C2042 C2043 1.391 . S
C2043 H2031 0.950 . S
C2043 C2039 1.393 . S
C2043 C2042 1.391 . S
H2044 C2052 0.950 . S
H2045 C2057 0.950 . S
H2046 C2054 0.950 . S
H2047 C2056 0.950 . S
H2048 C2058 0.950 . S
H2049 C2060 0.950 . S
H2050 C2062 0.950 . S
H2051 C2063 0.950 . S
C2052 H2044 0.950 . S
C2052 C2053 1.386 . S
C2052 C2054 1.391 . S
C2053 C2052 1.386 . S
C2053 C2057 1.393 . S
C2054 H2046 0.950 . S
C2054 C2052 1.391 . S
C2054 C2055 1.400 . S
C2055 C2054 1.400 . S
C2055 C2056 1.398 . S
C2055 C2061 1.491 . S
C2056 H2047 0.950 . S
C2056 C2055 1.398 . S
C2056 C2057 1.391 . S
C2057 H2045 0.950 . S
C2057 C2053 1.393 . S
C2057 C2056 1.391 . S
C2058 H2048 0.950 . S
C2058 C2059 1.386 . S
C2058 C2060 1.391 . S
C2059 C2058 1.386 . S
C2059 C2063 1.393 . S
C2060 H2049 0.950 . S
C2060 C2058 1.391 . S
C2060 C2061 1.400 . S
C2061 C2055 1.491 . S
C2061 C2060 1.400 . S
C2061 C2062 1.398 . S
C2062 H2050 0.950 . S
C2062 C2061 1.398 . S
C2062 C2063 1.391 . S
C2063 H2051 0.950 . S
C2063 C2059 1.393 . S
C2063 C2062 1.391 . S
H2064 C2072 0.950 . S
H2065 C2077 0.950 . S
H2066 C2074 0.950 . S
H2067 C2076 0.950 . S
H2068 C2078 0.950 . S
H2069 C2080 0.950 . S
H2070 C2082 0.950 . S
H2071 C2083 0.950 . S
C2072 H2064 0.950 . S
C2072 C2073 1.386 . S
C2072 C2074 1.391 . S
C2073 C2072 1.386 . S
C2073 C2077 1.393 . S
C2074 H2066 0.950 . S
C2074 C2072 1.391 . S
C2074 C2075 1.400 . S
C2075 C2074 1.400 . S
C2075 C2076 1.398 . S
C2075 C2081 1.491 . S
C2076 H2067 0.950 . S
C2076 C2075 1.398 . S
C2076 C2077 1.391 . S
C2077 H2065 0.950 . S
C2077 C2073 1.393 . S
C2077 C2076 1.391 . S
C2078 H2068 0.950 . S
C2078 C2079 1.386 . S
C2078 C2080 1.391 . S
C2079 C2078 1.386 . S
C2079 C2083 1.393 . S
C2080 H2069 0.950 . S
C2080 C2078 1.391 . S
C2080 C2081 1.400 . S
C2081 C2075 1.491 . S
C2081 C2080 1.400 . S
C2081 C2082 1.398 . S
C2082 H2070 0.950 . S
C2082 C2081 1.398 . S
C2082 C2083 1.391 . S
C2083 H2071 0.950 . S
C2083 C2079 1.393 . S
C2083 C2082 1.391 . S
H2084 C2092 0.950 . S
H2085 C2097 0.950 . S
H2086 C2094 0.950 . S
H2087 C2096 0.950 . S
H2088 C2098 0.950 . S
H2089 C2100 0.950 . S
H2090 C2102 0.950 . S
H2091 C2103 0.950 . S
C2092 H2084 0.950 . S
C2092 C2093 1.386 . S
C2092 C2094 1.391 . S
C2093 C2092 1.386 . S
C2093 C2097 1.393 . S
C2094 H2086 0.950 . S
C2094 C2092 1.391 . S
C2094 C2095 1.400 . S
C2095 C2094 1.400 . S
C2095 C2096 1.398 . S
C2095 C2101 1.491 . S
C2096 H2087 0.950 . S
C2096 C2095 1.398 . S
C2096 C2097 1.391 . S
C2097 H2085 0.950 . S
C2097 C2093 1.393 . S
C2097 C2096 1.391 . S
C2098 H2088 0.950 . S
C2098 C2099 1.386 . S
C2098 C2100 1.391 . S
C2099 C2098 1.386 . S
C2099 C2103 1.393 . S
C2100 H2089 0.950 . S
C2100 C2098 1.391 . S
C2100 C2101 1.400 . S
C2101 C2095 1.491 . S
C2101 C2100 1.400 . S
C2101 C2102 1.398 . S
C2102 H2090 0.950 . S
C2102 C2101 1.398 . S
C2102 C2103 1.391 . S
C2103 H2091 0.950 . S
C2103 C2099 1.393 . S
C2103 C2102 1.391 . S
H2104 C2112 0.950 . S
H2105 C2117 0.950 . S
H2106 C2114 0.950 . S
H2107 C2116 0.950 . S
H2108 C2118 0.950 . S
H2109 C2120 0.950 . S
H2110 C2122 0.950 . S
H2111 C2123 0.950 . S
C2112 H2104 0.950 . S
C2112 C2113 1.386 . S
C2112 C2114 1.391 . S
C2113 C2112 1.386 . S
C2113 C2117 1.393 . S
C2114 H2106 0.950 . S
C2114 C2112 1.391 . S
C2114 C2115 1.400 . S
C2115 C2114 1.400 . S
C2115 C2116 1.398 . S
C2115 C2121 1.491 . S
C2116 H2107 0.950 . S
C2116 C2115 1.398 . S
C2116 C2117 1.391 . S
C2117 H2105 0.950 . S
C2117 C2113 1.393 . S
C2117 C2116 1.391 . S
C2118 H2108 0.950 . S
C2118 C2119 1.386 . S
C2118 C2120 1.391 . S
C2119 C2118 1.386 . S
C2119 C2123 1.393 . S
C2120 H2109 0.950 . S
C2120 C2118 1.391 . S
C2120 C2121 1.400 . S
C2121 C2115 1.491 . S
C2121 C2120 1.400 . S
C2121 C2122 1.398 . S
C2122 H2110 0.950 . S
C2122 C2121 1.398 . S
C2122 C2123 1.391 . S
C2123 H2111 0.950 . S
C2123 C2119 1.393 . S
C2123 C2122 1.391 . S
H2124 C2132 0.950 . S
H2125 C2137 0.950 . S
H2126 C2134 0.950 . S
H2127 C2136 0.950 . S
H2128 C2138 0.950 . S
H2129 C2140 0.950 . S
H2130 C2142 0.950 . S
H2131 C2143 0.950 . S
C2132 H2124 0.950 . S
C2132 C2133 1.386 . S
C2132 C2134 1.391 . S
C2133 C2132 1.386 . S
C2133 C2137 1.393 . S
C2134 H2126 0.950 . S
C2134 C2132 1.391 . S
C2134 C2135 1.400 . S
C2135 C2134 1.400 . S
C2135 C2136 1.398 . S
C2135 C2141 1.491 . S
C2136 H2127 0.950 . S
C2136 C2135 1.398 . S
C2136 C2137 1.391 . S
C2137 H2125 0.950 . S
C2137 C2133 1.393 . S
C2137 C2136 1.391 . S
C2138 H2128 0.950 . S
C2138 C2139 1.386 . S
C2138 C2140 1.391 . S
C2139 C2138 1.386 . S
C2139 C2143 1.393 . S
C2140 H2129 0.950 . S
C2140 C2138 1.391 . S
C2140 C2141 1.400 . S
C2141 C2135 1.491 . S
C2141 C2140 1.400 . S
C2141 C2142 1.398 . S
C2142 H2130 0.950 . S
C2142 C2141 1.398 . S
C2142 C2143 1.391 . S
C2143 H2131 0.950 . S
C2143 C2139 1.393 . S
C2143 C2142 1.391 . S
H2144 C2152 0.950 . S
H2145 C2157 0.950 . S
H2146 C2154 0.950 . S
H2147 C2156 0.950 . S
H2148 C2158 0.950 . S
H2149 C2160 0.950 . S
H2150 C2162 0.950 . S
H2151 C2163 0.950 . S
C2152 H2144 0.950 . S
C2152 C2153 1.386 . S
C2152 C2154 1.391 . S
C2153 C2152 1.386 . S
C2153 C2157 1.393 . S
C2154 H2146 0.950 . S
C2154 C2152 1.391 . S
C2154 C2155 1.400 . S
C2155 C2154 1.400 . S
C2155 C2156 1.398 . S
C2155 C2161 1.491 . S
C2156 H2147 0.950 . S
C2156 C2155 1.398 . S
C2156 C2157 1.391 . S
C2157 H2145 0.950 . S
C2157 C2153 1.393 . S
C2157 C2156 1.391 . S
C2158 H2148 0.950 . S
C2158 C2159 1.386 . S
C2158 C2160 1.391 . S
C2159 C2158 1.386 . S
C2159 C2163 1.393 . S
C2160 H2149 0.950 . S
C2160 C2158 1.391 . S
C2160 C2161 1.400 . S
C2161 C2155 1.491 . S
C2161 C2160 1.400 . S
C2161 C2162 1.398 . S
C2162 H2150 0.950 . S
C2162 C2161 1.398 . S
C2162 C2163 1.391 . S
C2163 H2151 0.950 . S
C2163 C2159 1.393 . S
C2163 C2162 1.391 . S
H2164 C2172 0.950 . S
H2165 C2177 0.950 . S
H2166 C2174 0.950 . S
H2167 C2176 0.950 . S
H2168 C2178 0.950 . S
H2169 C2180 0.950 . S
H2170 C2182 0.950 . S
H2171 C2183 0.950 . S
C2172 H2164 0.950 . S
C2172 C2173 1.386 . S
C2172 C2174 1.391 . S
C2173 C2172 1.386 . S
C2173 C2177 1.393 . S
C2174 H2166 0.950 . S
C2174 C2172 1.391 . S
C2174 C2175 1.400 . S
C2175 C2174 1.400 . S
C2175 C2176 1.398 . S
C2175 C2181 1.491 . S
C2176 H2167 0.950 . S
C2176 C2175 1.398 . S
C2176 C2177 1.391 . S
C2177 H2165 0.950 . S
C2177 C2173 1.393 . S
C2177 C2176 1.391 . S
C2178 H2168 0.950 . S
C2178 C2179 1.386 . S
C2178 C2180 1.391 . S
C2179 C2178 1.386 . S
C2179 C2183 1.393 . S
C2180 H2169 0.950 . S
C2180 C2178 1.391 . S
C2180 C2181 1.400 . S
C2181 C2175 1.491 . S
C2181 C2180 1.400 . S
C2181 C2182 1.398 . S
C2182 H2170 0.950 . S
C2182 C2181 1.398 . S
C2182 C2183 1.391 . S
C2183 H2171 0.950 . S
C2183 C2179 1.393 . S
C2183 C2182 1.391 . S
H2184 C2192 0.950 . S
H2185 C2197 0.950 . S
H2186 C2194 0.950 . S
H2187 C2196 0.950 . S
H2188 C2198 0.950 . S
H2189 C2200 0.950 . S
H2190 C2202 0.950 . S
H2191 C2203 0.950 . S
C2192 H2184 0.950 . S
C2192 C2193 1.386 . S
C2192 C2194 1.391 . S
C2193 C2192 1.386 . S
C2193 C2197 1.393 . S
C2194 H2186 0.950 . S
C2194 C2192 1.391 . S
C2194 C2195 1.400 . S
C2195 C2194 1.400 . S
C2195 C2196 1.398 . S
C2195 C2201 1.491 . S
C2196 H2187 0.950 . S
C2196 C2195 1.398 . S
C2196 C2197 1.391 . S
C2197 H2185 0.950 . S
C2197 C2193 1.393 . S
C2197 C2196 1.391 . S
C2198 H2188 0.950 . S
C2198 C2199 1.386 . S
C2198 C2200 1.391 . S
C2199 C2198 1.386 . S
C2199 C2203 1.393 . S
C2200 H2189 0.950 . S
C2200 C2198 1.391 . S
C2200 C2201 1.400 . S
C2201 C2195 1.491 . S
C2201 C2200 1.400 . S
C2201 C2202 1.398 . S
C2202 H2190 0.950 . S
C2202 C2201 1.398 . S
C2202 C2203 1.391 . S
C2203 H2191 0.950 . S
C2203 C2199 1.393 . S
C2203 C2202 1.391 . S
H2204 C2212 0.950 . S
H2205 C2217 0.950 . S
H2206 C2214 0.950 . S
H2207 C2216 0.950 . S
H2208 C2218 0.950 . S
H2209 C2220 0.950 . S
H2210 C2222 0.950 . S
H2211 C2223 0.950 . S
C2212 H2204 0.950 . S
C2212 C2213 1.386 . S
C2212 C2214 1.391 . S
C2213 C2212 1.386 . S
C2213 C2217 1.393 . S
C2214 H2206 0.950 . S
C2214 C2212 1.391 . S
C2214 C2215 1.400 . S
C2215 C2214 1.400 . S
C2215 C2216 1.398 . S
C2215 C2221 1.491 . S
C2216 H2207 0.950 . S
C2216 C2215 1.398 . S
C2216 C2217 1.391 . S
C2217 H2205 0.950 . S
C2217 C2213 1.393 . S
C2217 C2216 1.391 . S
C2218 H2208 0.950 . S
C2218 C2219 1.386 . S
C2218 C2220 1.391 . S
C2219 C2218 1.386 . S
C2219 C2223 1.393 . S
C2220 H2209 0.950 . S
C2220 C2218 1.391 . S
C2220 C2221 1.400 . S
C2221 C2215 1.491 . S
C2221 C2220 1.400 . S
C2221 C2222 1.398 . S
C2222 H2210 0.950 . S
C2222 C2221 1.398 . S
C2222 C2223 1.391 . S
C2223 H2211 0.950 . S
C2223 C2219 1.393 . S
C2223 C2222 1.391 . S
H2224 C2232 0.950 . S
H2225 C2237 0.950 . S
H2226 C2234 0.950 . S
H2227 C2236 0.950 . S
H2228 C2238 0.950 . S
H2229 C2240 0.950 . S
H2230 C2242 0.950 . S
H2231 C2243 0.950 . S
C2232 H2224 0.950 . S
C2232 C2233 1.386 . S
C2232 C2234 1.391 . S
C2233 C2232 1.386 . S
C2233 C2237 1.393 . S
C2234 H2226 0.950 . S
C2234 C2232 1.391 . S
C2234 C2235 1.400 . S
C2235 C2234 1.400 . S
C2235 C2236 1.398 . S
C2235 C2241 1.491 . S
C2236 H2227 0.950 . S
C2236 C2235 1.398 . S
C2236 C2237 1.391 . S
C2237 H2225 0.950 . S
C2237 C2233 1.393 . S
C2237 C2236 1.391 . S
C2238 H2228 0.950 . S
C2238 C2239 1.386 . S
C2238 C2240 1.391 . S
C2239 C2238 1.386 . S
C2239 C2243 1.393 . S
C2240 H2229 0.950 . S
C2240 C2238 1.391 . S
C2240 C2241 1.400 . S
C2241 C2235 1.491 . S
C2241 C2240 1.400 . S
C2241 C2242 1.398 . S
C2242 H2230 0.950 . S
C2242 C2241 1.398 . S
C2242 C2243 1.391 . S
C2243 H2231 0.950 . S
C2243 C2239 1.393 . S
C2243 C2242 1.391 . S
H2244 C2252 0.950 . S
H2245 C2257 0.950 . S
H2246 C2254 0.950 . S
H2247 C2256 0.950 . S
H2248 C2258 0.950 . S
H2249 C2260 0.950 . S
H2250 C2262 0.950 . S
H2251 C2263 0.950 . S
C2252 H2244 0.950 . S
C2252 C2253 1.386 . S
C2252 C2254 1.391 . S
C2253 C2252 1.386 . S
C2253 C2257 1.393 . S
C2254 H2246 0.950 . S
C2254 C2252 1.391 . S
C2254 C2255 1.400 . S
C2255 C2254 1.400 . S
C2255 C2256 1.398 . S
C2255 C2261 1.491 . S
C2256 H2247 0.950 . S
C2256 C2255 1.398 . S
C2256 C2257 1.391 . S
C2257 H2245 0.950 . S
C2257 C2253 1.393 . S
C2257 C2256 1.391 . S
C2258 H2248 0.950 . S
C2258 C2259 1.386 . S
C2258 C2260 1.391 . S
C2259 C2258 1.386 . S
C2259 C2263 1.393 . S
C2260 H2249 0.950 . S
C2260 C2258 1.391 . S
C2260 C2261 1.400 . S
C2261 C2255 1.491 . S
C2261 C2260 1.400 . S
C2261 C2262 1.398 . S
C2262 H2250 0.950 . S
C2262 C2261 1.398 . S
C2262 C2263 1.391 . S
C2263 H2251 0.950 . S
C2263 C2259 1.393 . S
C2263 C2262 1.391 . S
H2264 C2272 0.950 . S
H2265 C2277 0.950 . S
H2266 C2274 0.950 . S
H2267 C2276 0.950 . S
H2268 C2278 0.950 . S
H2269 C2280 0.950 . S
H2270 C2282 0.950 . S
H2271 C2283 0.950 . S
C2272 H2264 0.950 . S
C2272 C2273 1.386 . S
C2272 C2274 1.391 . S
C2273 C2272 1.386 . S
C2273 C2277 1.393 . S
C2274 H2266 0.950 . S
C2274 C2272 1.391 . S
C2274 C2275 1.400 . S
C2275 C2274 1.400 . S
C2275 C2276 1.398 . S
C2275 C2281 1.491 . S
C2276 H2267 0.950 . S
C2276 C2275 1.398 . S
C2276 C2277 1.391 . S
C2277 H2265 0.950 . S
C2277 C2273 1.393 . S
C2277 C2276 1.391 . S
C2278 H2268 0.950 . S
C2278 C2279 1.386 . S
C2278 C2280 1.391 . S
C2279 C2278 1.386 . S
C2279 C2283 1.393 . S
C2280 H2269 0.950 . S
C2280 C2278 1.391 . S
C2280 C2281 1.400 . S
C2281 C2275 1.491 . S
C2281 C2280 1.400 . S
C2281 C2282 1.398 . S
C2282 H2270 0.950 . S
C2282 C2281 1.398 . S
C2282 C2283 1.391 . S
C2283 H2271 0.950 . S
C2283 C2279 1.393 . S
C2283 C2282 1.391 . S
H2284 C2292 0.950 . S
H2285 C2297 0.950 . S
H2286 C2294 0.950 . S
H2287 C2296 0.950 . S
H2288 C2298 0.950 . S
H2289 C2300 0.950 . S
H2290 C2302 0.950 . S
H2291 C2303 0.950 . S
C2292 H2284 0.950 . S
C2292 C2293 1.386 . S
C2292 C2294 1.391 . S
C2293 C2292 1.386 . S
C2293 C2297 1.393 . S
C2294 H2286 0.950 . S
C2294 C2292 1.391 . S
C2294 C2295 1.400 . S
C2295 C2294 1.400 . S
C2295 C2296 1.398 . S
C2295 C2301 1.491 . S
C2296 H2287 0.950 . S
C2296 C2295 1.398 . S
C2296 C2297 1.391 . S
C2297 H2285 0.950 . S
C2297 C2293 1.393 . S
C2297 C2296 1.391 . S
C2298 H2288 0.950 . S
C2298 C2299 1.386 . S
C2298 C2300 1.391 . S
C2299 C2298 1.386 . S
C2299 C2303 1.393 . S
C2300 H2289 0.950 . S
C2300 C2298 1.391 . S
C2300 C2301 1.400 . S
C2301 C2295 1.491 . S
C2301 C2300 1.400 . S
C2301 C2302 1.398 . S
C2302 H2290 0.950 . S
C2302 C2301 1.398 . S
C2302 C2303 1.391 . S
C2303 H2291 0.950 . S
C2303 C2299 1.393 . S
C2303 C2302 1.391 . S
H2304 C2312 0.950 . S
H2305 C2317 0.950 . S
H2306 C2314 0.950 . S
H2307 C2316 0.950 . S
H2308 C2318 0.950 . S
H2309 C2320 0.950 . S
H2310 C2322 0.950 . S
H2311 C2323 0.950 . S
C2312 H2304 0.950 . S
C2312 C2313 1.386 . S
C2312 C2314 1.391 . S
C2313 C2312 1.386 . S
C2313 C2317 1.393 . S
C2314 H2306 0.950 . S
C2314 C2312 1.391 . S
C2314 C2315 1.400 . S
C2315 C2314 1.400 . S
C2315 C2316 1.398 . S
C2315 C2321 1.491 . S
C2316 H2307 0.950 . S
C2316 C2315 1.398 . S
C2316 C2317 1.391 . S
C2317 H2305 0.950 . S
C2317 C2313 1.393 . S
C2317 C2316 1.391 . S
C2318 H2308 0.950 . S
C2318 C2319 1.386 . S
C2318 C2320 1.391 . S
C2319 C2318 1.386 . S
C2319 C2323 1.393 . S
C2320 H2309 0.950 . S
C2320 C2318 1.391 . S
C2320 C2321 1.400 . S
C2321 C2315 1.491 . S
C2321 C2320 1.400 . S
C2321 C2322 1.398 . S
C2322 H2310 0.950 . S
C2322 C2321 1.398 . S
C2322 C2323 1.391 . S
C2323 H2311 0.950 . S
C2323 C2319 1.393 . S
C2323 C2322 1.391 . S
H2324 C2332 0.950 . S
H2325 C2337 0.950 . S
H2326 C2334 0.950 . S
H2327 C2336 0.950 . S
H2328 C2338 0.950 . S
H2329 C2340 0.950 . S
H2330 C2342 0.950 . S
H2331 C2343 0.950 . S
C2332 H2324 0.950 . S
C2332 C2333 1.386 . S
C2332 C2334 1.391 . S
C2333 C2332 1.386 . S
C2333 C2337 1.393 . S
C2334 H2326 0.950 . S
C2334 C2332 1.391 . S
C2334 C2335 1.400 . S
C2335 C2334 1.400 . S
C2335 C2336 1.398 . S
C2335 C2341 1.491 . S
C2336 H2327 0.950 . S
C2336 C2335 1.398 . S
C2336 C2337 1.391 . S
C2337 H2325 0.950 . S
C2337 C2333 1.393 . S
C2337 C2336 1.391 . S
C2338 H2328 0.950 . S
C2338 C2339 1.386 . S
C2338 C2340 1.391 . S
C2339 C2338 1.386 . S
C2339 C2343 1.393 . S
C2340 H2329 0.950 . S
C2340 C2338 1.391 . S
C2340 C2341 1.400 . S
C2341 C2335 1.491 . S
C2341 C2340 1.400 . S
C2341 C2342 1.398 . S
C2342 H2330 0.950 . S
C2342 C2341 1.398 . S
C2342 C2343 1.391 . S
C2343 H2331 0.950 . S
C2343 C2339 1.393 . S
C2343 C2342 1.391 . S
H2344 C2352 0.950 . S
H2345 C2357 0.950 . S
H2346 C2354 0.950 . S
H2347 C2356 0.950 . S
H2348 C2358 0.950 . S
H2349 C2360 0.950 . S
H2350 C2362 0.950 . S
H2351 C2363 0.950 . S
C2352 H2344 0.950 . S
C2352 C2353 1.386 . S
C2352 C2354 1.391 . S
C2353 C2352 1.386 . S
C2353 C2357 1.393 . S
C2354 H2346 0.950 . S
C2354 C2352 1.391 . S
C2354 C2355 1.400 . S
C2355 C2354 1.400 . S
C2355 C2356 1.398 . S
C2355 C2361 1.491 . S
C2356 H2347 0.950 . S
C2356 C2355 1.398 . S
C2356 C2357 1.391 . S
C2357 H2345 0.950 . S
C2357 C2353 1.393 . S
C2357 C2356 1.391 . S
C2358 H2348 0.950 . S
C2358 C2359 1.386 . S
C2358 C2360 1.391 . S
C2359 C2358 1.386 . S
C2359 C2363 1.393 . S
C2360 H2349 0.950 . S
C2360 C2358 1.391 . S
C2360 C2361 1.400 . S
C2361 C2355 1.491 . S
C2361 C2360 1.400 . S
C2361 C2362 1.398 . S
C2362 H2350 0.950 . S
C2362 C2361 1.398 . S
C2362 C2363 1.391 . S
C2363 H2351 0.950 . S
C2363 C2359 1.393 . S
C2363 C2362 1.391 . S
H2364 C2372 0.950 . S
H2365 C2377 0.950 . S
H2366 C2374 0.950 . S
H2367 C2376 0.950 . S
H2368 C2378 0.950 . S
H2369 C2380 0.950 . S
H2370 C2382 0.950 . S
H2371 C2383 0.950 . S
C2372 H2364 0.950 . S
C2372 C2373 1.386 . S
C2372 C2374 1.391 . S
C2373 C2372 1.386 . S
C2373 C2377 1.393 . S
C2374 H2366 0.950 . S
C2374 C2372 1.391 . S
C2374 C2375 1.400 . S
C2375 C2374 1.400 . S
C2375 C2376 1.398 . S
C2375 C2381 1.491 . S
C2376 H2367 0.950 . S
C2376 C2375 1.398 . S
C2376 C2377 1.391 . S
C2377 H2365 0.950 . S
C2377 C2373 1.393 . S
C2377 C2376 1.391 . S
C2378 H2368 0.950 . S
C2378 C2379 1.386 . S
C2378 C2380 1.391 . S
C2379 C2378 1.386 . S
C2379 C2383 1.393 . S
C2380 H2369 0.950 . S
C2380 C2378 1.391 . S
C2380 C2381 1.400 . S
C2381 C2375 1.491 . S
C2381 C2380 1.400 . S
C2381 C2382 1.398 . S
C2382 H2370 0.950 . S
C2382 C2381 1.398 . S
C2382 C2383 1.391 . S
C2383 H2371 0.950 . S
C2383 C2379 1.393 . S
C2383 C2382 1.391 . S
H2384 C2392 0.950 . S
H2385 C2397 0.950 . S
H2386 C2394 0.950 . S
H2387 C2396 0.950 . S
H2388 C2398 0.950 . S
H2389 C2400 0.950 . S
H2390 C2402 0.950 . S
H2391 C2403 0.950 . S
C2392 H2384 0.950 . S
C2392 C2393 1.386 . S
C2392 C2394 1.391 . S
C2393 C2392 1.386 . S
C2393 C2397 1.393 . S
C2394 H2386 0.950 . S
C2394 C2392 1.391 . S
C2394 C2395 1.400 . S
C2395 C2394 1.400 . S
C2395 C2396 1.398 . S
C2395 C2401 1.491 . S
C2396 H2387 0.950 . S
C2396 C2395 1.398 . S
C2396 C2397 1.391 . S
C2397 H2385 0.950 . S
C2397 C2393 1.393 . S
C2397 C2396 1.391 . S
C2398 H2388 0.950 . S
C2398 C2399 1.386 . S
C2398 C2400 1.391 . S
C2399 C2398 1.386 . S
C2399 C2403 1.393 . S
C2400 H2389 0.950 . S
C2400 C2398 1.391 . S
C2400 C2401 1.400 . S
C2401 C2395 1.491 . S
C2401 C2400 1.400 . S
C2401 C2402 1.398 . S
C2402 H2390 0.950 . S
C2402 C2401 1.398 . S
C2402 C2403 1.391 . S
C2403 H2391 0.950 . S
C2403 C2399 1.393 . S
C2403 C2402 1.391 . S
H2404 C2412 0.950 . S
H2405 C2417 0.950 . S
H2406 C2414 0.950 . S
H2407 C2416 0.950 . S
H2408 C2418 0.950 . S
H2409 C2420 0.950 . S
H2410 C2422 0.950 . S
H2411 C2423 0.950 . S
C2412 H2404 0.950 . S
C2412 C2413 1.386 . S
C2412 C2414 1.391 . S
C2413 C2412 1.386 . S
C2413 C2417 1.393 . S
C2414 H2406 0.950 . S
C2414 C2412 1.391 . S
C2414 C2415 1.400 . S
C2415 C2414 1.400 . S
C2415 C2416 1.398 . S
C2415 C2421 1.491 . S
C2416 H2407 0.950 . S
C2416 C2415 1.398 . S
C2416 C2417 1.391 . S
C2417 H2405 0.950 . S
C2417 C2413 1.393 . S
C2417 C2416 1.391 . S
C2418 H2408 0.950 . S
C2418 C2419 1.386 . S
C2418 C2420 1.391 . S
C2419 C2418 1.386 . S
C2419 C2423 1.393 . S
C2420 H2409 0.950 . S
C2420 C2418 1.391 . S
C2420 C2421 1.400 . S
C2421 C2415 1.491 . S
C2421 C2420 1.400 . S
C2421 C2422 1.398 . S
C2422 H2410 0.950 . S
C2422 C2421 1.398 . S
C2422 C2423 1.391 . S
C2423 H2411 0.950 . S
C2423 C2419 1.393 . S
C2423 C2422 1.391 . S
H2424 C2432 0.950 . S
H2425 C2437 0.950 . S
H2426 C2434 0.950 . S
H2427 C2436 0.950 . S
H2428 C2438 0.950 . S
H2429 C2440 0.950 . S
H2430 C2442 0.950 . S
H2431 C2443 0.950 . S
C2432 H2424 0.950 . S
C2432 C2433 1.386 . S
C2432 C2434 1.391 . S
C2433 C2432 1.386 . S
C2433 C2437 1.393 . S
C2434 H2426 0.950 . S
C2434 C2432 1.391 . S
C2434 C2435 1.400 . S
C2435 C2434 1.400 . S
C2435 C2436 1.398 . S
C2435 C2441 1.491 . S
C2436 H2427 0.950 . S
C2436 C2435 1.398 . S
C2436 C2437 1.391 . S
C2437 H2425 0.950 . S
C2437 C2433 1.393 . S
C2437 C2436 1.391 . S
C2438 H2428 0.950 . S
C2438 C2439 1.386 . S
C2438 C2440 1.391 . S
C2439 C2438 1.386 . S
C2439 C2443 1.393 . S
C2440 H2429 0.950 . S
C2440 C2438 1.391 . S
C2440 C2441 1.400 . S
C2441 C2435 1.491 . S
C2441 C2440 1.400 . S
C2441 C2442 1.398 . S
C2442 H2430 0.950 . S
C2442 C2441 1.398 . S
C2442 C2443 1.391 . S
C2443 H2431 0.950 . S
C2443 C2439 1.393 . S
C2443 C2442 1.391 . S
H2444 C2452 0.950 . S
H2445 C2457 0.950 . S
H2446 C2454 0.950 . S
H2447 C2456 0.950 . S
H2448 C2458 0.950 . S
H2449 C2460 0.950 . S
H2450 C2462 0.950 . S
H2451 C2463 0.950 . S
C2452 H2444 0.950 . S
C2452 C2453 1.386 . S
C2452 C2454 1.391 . S
C2453 C2452 1.386 . S
C2453 C2457 1.393 . S
C2454 H2446 0.950 . S
C2454 C2452 1.391 . S
C2454 C2455 1.400 . S
C2455 C2454 1.400 . S
C2455 C2456 1.398 . S
C2455 C2461 1.491 . S
C2456 H2447 0.950 . S
C2456 C2455 1.398 . S
C2456 C2457 1.391 . S
C2457 H2445 0.950 . S
C2457 C2453 1.393 . S
C2457 C2456 1.391 . S
C2458 H2448 0.950 . S
C2458 C2459 1.386 . S
C2458 C2460 1.391 . S
C2459 C2458 1.386 . S
C2459 C2463 1.393 . S
C2460 H2449 0.950 . S
C2460 C2458 1.391 . S
C2460 C2461 1.400 . S
C2461 C2455 1.491 . S
C2461 C2460 1.400 . S
C2461 C2462 1.398 . S
C2462 H2450 0.950 . S
C2462 C2461 1.398 . S
C2462 C2463 1.391 . S
C2463 H2451 0.950 . S
C2463 C2459 1.393 . S
C2463 C2462 1.391 . S
H2464 C2472 0.950 . S
H2465 C2477 0.950 . S
H2466 C2474 0.950 . S
H2467 C2476 0.950 . S
H2468 C2478 0.950 . S
H2469 C2480 0.950 . S
H2470 C2482 0.950 . S
H2471 C2483 0.950 . S
C2472 H2464 0.950 . S
C2472 C2473 1.386 . S
C2472 C2474 1.391 . S
C2473 C2472 1.386 . S
C2473 C2477 1.393 . S
C2474 H2466 0.950 . S
C2474 C2472 1.391 . S
C2474 C2475 1.400 . S
C2475 C2474 1.400 . S
C2475 C2476 1.398 . S
C2475 C2481 1.491 . S
C2476 H2467 0.950 . S
C2476 C2475 1.398 . S
C2476 C2477 1.391 . S
C2477 H2465 0.950 . S
C2477 C2473 1.393 . S
C2477 C2476 1.391 . S
C2478 H2468 0.950 . S
C2478 C2479 1.386 . S
C2478 C2480 1.391 . S
C2479 C2478 1.386 . S
C2479 C2483 1.393 . S
C2480 H2469 0.950 . S
C2480 C2478 1.391 . S
C2480 C2481 1.400 . S
C2481 C2475 1.491 . S
C2481 C2480 1.400 . S
C2481 C2482 1.398 . S
C2482 H2470 0.950 . S
C2482 C2481 1.398 . S
C2482 C2483 1.391 . S
C2483 H2471 0.950 . S
C2483 C2479 1.393 . S
C2483 C2482 1.391 . S
H2484 C2492 0.950 . S
H2485 C2497 0.950 . S
H2486 C2494 0.950 . S
H2487 C2496 0.950 . S
H2488 C2498 0.950 . S
H2489 C2500 0.950 . S
H2490 C2502 0.950 . S
H2491 C2503 0.950 . S
C2492 H2484 0.950 . S
C2492 C2493 1.386 . S
C2492 C2494 1.391 . S
C2493 C2492 1.386 . S
C2493 C2497 1.393 . S
C2494 H2486 0.950 . S
C2494 C2492 1.391 . S
C2494 C2495 1.400 . S
C2495 C2494 1.400 . S
C2495 C2496 1.398 . S
C2495 C2501 1.491 . S
C2496 H2487 0.950 . S
C2496 C2495 1.398 . S
C2496 C2497 1.391 . S
C2497 H2485 0.950 . S
C2497 C2493 1.393 . S
C2497 C2496 1.391 . S
C2498 H2488 0.950 . S
C2498 C2499 1.386 . S
C2498 C2500 1.391 . S
C2499 C2498 1.386 . S
C2499 C2503 1.393 . S
C2500 H2489 0.950 . S
C2500 C2498 1.391 . S
C2500 C2501 1.400 . S
C2501 C2495 1.491 . S
C2501 C2500 1.400 . S
C2501 C2502 1.398 . S
C2502 H2490 0.950 . S
C2502 C2501 1.398 . S
C2502 C2503 1.391 . S
C2503 H2491 0.950 . S
C2503 C2499 1.393 . S
C2503 C2502 1.391 . S
H2504 C2512 0.950 . S
H2505 C2517 0.950 . S
H2506 C2514 0.950 . S
H2507 C2516 0.950 . S
H2508 C2518 0.950 . S
H2509 C2520 0.950 . S
H2510 C2522 0.950 . S
H2511 C2523 0.950 . S
C2512 H2504 0.950 . S
C2512 C2513 1.386 . S
C2512 C2514 1.391 . S
C2513 C2512 1.386 . S
C2513 C2517 1.393 . S
C2514 H2506 0.950 . S
C2514 C2512 1.391 . S
C2514 C2515 1.400 . S
C2515 C2514 1.400 . S
C2515 C2516 1.398 . S
C2515 C2521 1.491 . S
C2516 H2507 0.950 . S
C2516 C2515 1.398 . S
C2516 C2517 1.391 . S
C2517 H2505 0.950 . S
C2517 C2513 1.393 . S
C2517 C2516 1.391 . S
C2518 H2508 0.950 . S
C2518 C2519 1.386 . S
C2518 C2520 1.391 . S
C2519 C2518 1.386 . S
C2519 C2523 1.393 . S
C2520 H2509 0.950 . S
C2520 C2518 1.391 . S
C2520 C2521 1.400 . S
C2521 C2515 1.491 . S
C2521 C2520 1.400 . S
C2521 C2522 1.398 . S
C2522 H2510 0.950 . S
C2522 C2521 1.398 . S
C2522 C2523 1.391 . S
C2523 H2511 0.950 . S
C2523 C2519 1.393 . S
C2523 C2522 1.391 . S
H2524 C2532 0.950 . S
H2525 C2537 0.950 . S
H2526 C2534 0.950 . S
H2527 C2536 0.950 . S
H2528 C2538 0.950 . S
H2529 C2540 0.950 . S
H2530 C2542 0.950 . S
H2531 C2543 0.950 . S
C2532 H2524 0.950 . S
C2532 C2533 1.386 . S
C2532 C2534 1.391 . S
C2533 C2532 1.386 . S
C2533 C2537 1.393 . S
C2534 H2526 0.950 . S
C2534 C2532 1.391 . S
C2534 C2535 1.400 . S
C2535 C2534 1.400 . S
C2535 C2536 1.398 . S
C2535 C2541 1.491 . S
C2536 H2527 0.950 . S
C2536 C2535 1.398 . S
C2536 C2537 1.391 . S
C2537 H2525 0.950 . S
C2537 C2533 1.393 . S
C2537 C2536 1.391 . S
C2538 H2528 0.950 . S
C2538 C2539 1.386 . S
C2538 C2540 1.391 . S
C2539 C2538 1.386 . S
C2539 C2543 1.393 . S
C2540 H2529 0.950 . S
C2540 C2538 1.391 . S
C2540 C2541 1.400 . S
C2541 C2535 1.491 . S
C2541 C2540 1.400 . S
C2541 C2542 1.398 . S
C2542 H2530 0.950 . S
C2542 C2541 1.398 . S
C2542 C2543 1.391 . S
C2543 H2531 0.950 . S
C2543 C2539 1.393 . S
C2543 C2542 1.391 . S
H2544 C2552 0.950 . S
H2545 C2557 0.950 . S
H2546 C2554 0.950 . S
H2547 C2556 0.950 . S
H2548 C2558 0.950 . S
H2549 C2560 0.950 . S
H2550 C2562 0.950 . S
H2551 C2563 0.950 . S
C2552 H2544 0.950 . S
C2552 C2553 1.386 . S
C2552 C2554 1.391 . S
C2553 C2552 1.386 . S
C2553 C2557 1.393 . S
C2554 H2546 0.950 . S
C2554 C2552 1.391 . S
C2554 C2555 1.400 . S
C2555 C2554 1.400 . S
C2555 C2556 1.398 . S
C2555 C2561 1.491 . S
C2556 H2547 0.950 . S
C2556 C2555 1.398 . S
C2556 C2557 1.391 . S
C2557 H2545 0.950 . S
C2557 C2553 1.393 . S
C2557 C2556 1.391 . S
C2558 H2548 0.950 . S
C2558 C2559 1.386 . S
C2558 C2560 1.391 . S
C2559 C2558 1.386 . S
C2559 C2563 1.393 . S
C2560 H2549 0.950 . S
C2560 C2558 1.391 . S
C2560 C2561 1.400 . S
C2561 C2555 1.491 . S
C2561 C2560 1.400 . S
C2561 C2562 1.398 . S
C2562 H2550 0.950 . S
C2562 C2561 1.398 . S
C2562 C2563 1.391 . S
C2563 H2551 0.950 . S
C2563 C2559 1.393 . S
C2563 C2562 1.391 . S
H2564 C2572 0.950 . S
H2565 C2577 0.950 . S
H2566 C2574 0.950 . S
H2567 C2576 0.950 . S
H2568 C2578 0.950 . S
H2569 C2580 0.950 . S
H2570 C2582 0.950 . S
H2571 C2583 0.950 . S
C2572 H2564 0.950 . S
C2572 C2573 1.386 . S
C2572 C2574 1.391 . S
C2573 C2572 1.386 . S
C2573 C2577 1.393 . S
C2574 H2566 0.950 . S
C2574 C2572 1.391 . S
C2574 C2575 1.400 . S
C2575 C2574 1.400 . S
C2575 C2576 1.398 . S
C2575 C2581 1.491 . S
C2576 H2567 0.950 . S
C2576 C2575 1.398 . S
C2576 C2577 1.391 . S
C2577 H2565 0.950 . S
C2577 C2573 1.393 . S
C2577 C2576 1.391 . S
C2578 H2568 0.950 . S
C2578 C2579 1.386 . S
C2578 C2580 1.391 . S
C2579 C2578 1.386 . S
C2579 C2583 1.393 . S
C2580 H2569 0.950 . S
C2580 C2578 1.391 . S
C2580 C2581 1.400 . S
C2581 C2575 1.491 . S
C2581 C2580 1.400 . S
C2581 C2582 1.398 . S
C2582 H2570 0.950 . S
C2582 C2581 1.398 . S
C2582 C2583 1.391 . S
C2583 H2571 0.950 . S
C2583 C2579 1.393 . S
C2583 C2582 1.391 . S
H2584 C2592 0.950 . S
H2585 C2597 0.950 . S
H2586 C2594 0.950 . S
H2587 C2596 0.950 . S
H2588 C2598 0.950 . S
H2589 C2600 0.950 . S
H2590 C2602 0.950 . S
H2591 C2603 0.950 . S
C2592 H2584 0.950 . S
C2592 C2593 1.386 . S
C2592 C2594 1.391 . S
C2593 C2592 1.386 . S
C2593 C2597 1.393 . S
C2594 H2586 0.950 . S
C2594 C2592 1.391 . S
C2594 C2595 1.400 . S
C2595 C2594 1.400 . S
C2595 C2596 1.398 . S
C2595 C2601 1.491 . S
C2596 H2587 0.950 . S
C2596 C2595 1.398 . S
C2596 C2597 1.391 . S
C2597 H2585 0.950 . S
C2597 C2593 1.393 . S
C2597 C2596 1.391 . S
C2598 H2588 0.950 . S
C2598 C2599 1.386 . S
C2598 C2600 1.391 . S
C2599 C2598 1.386 . S
C2599 C2603 1.393 . S
C2600 H2589 0.950 . S
C2600 C2598 1.391 . S
C2600 C2601 1.400 . S
C2601 C2595 1.491 . S
C2601 C2600 1.400 . S
C2601 C2602 1.398 . S
C2602 H2590 0.950 . S
C2602 C2601 1.398 . S
C2602 C2603 1.391 . S
C2603 H2591 0.950 . S
C2603 C2599 1.393 . S
C2603 C2602 1.391 . S
H2604 C2612 0.950 . S
H2605 C2617 0.950 . S
H2606 C2614 0.950 . S
H2607 C2616 0.950 . S
H2608 C2618 0.950 . S
H2609 C2620 0.950 . S
H2610 C2622 0.950 . S
H2611 C2623 0.950 . S
C2612 H2604 0.950 . S
C2612 C2613 1.386 . S
C2612 C2614 1.391 . S
C2613 C2612 1.386 . S
C2613 C2617 1.393 . S
C2614 H2606 0.950 . S
C2614 C2612 1.391 . S
C2614 C2615 1.400 . S
C2615 C2614 1.400 . S
C2615 C2616 1.398 . S
C2615 C2621 1.491 . S
C2616 H2607 0.950 . S
C2616 C2615 1.398 . S
C2616 C2617 1.391 . S
C2617 H2605 0.950 . S
C2617 C2613 1.393 . S
C2617 C2616 1.391 . S
C2618 H2608 0.950 . S
C2618 C2619 1.386 . S
C2618 C2620 1.391 . S
C2619 C2618 1.386 . S
C2619 C2623 1.393 . S
C2620 H2609 0.950 . S
C2620 C2618 1.391 . S
C2620 C2621 1.400 . S
C2621 C2615 1.491 . S
C2621 C2620 1.400 . S
C2621 C2622 1.398 . S
C2622 H2610 0.950 . S
C2622 C2621 1.398 . S
C2622 C2623 1.391 . S
C2623 H2611 0.950 . S
C2623 C2619 1.393 . S
C2623 C2622 1.391 . S
H2624 C2632 0.950 . S
H2625 C2637 0.950 . S
H2626 C2634 0.950 . S
H2627 C2636 0.950 . S
H2628 C2638 0.950 . S
H2629 C2640 0.950 . S
H2630 C2642 0.950 . S
H2631 C2643 0.950 . S
C2632 H2624 0.950 . S
C2632 C2633 1.386 . S
C2632 C2634 1.391 . S
C2633 C2632 1.386 . S
C2633 C2637 1.393 . S
C2634 H2626 0.950 . S
C2634 C2632 1.391 . S
C2634 C2635 1.400 . S
C2635 C2634 1.400 . S
C2635 C2636 1.398 . S
C2635 C2641 1.491 . S
C2636 H2627 0.950 . S
C2636 C2635 1.398 . S
C2636 C2637 1.391 . S
C2637 H2625 0.950 . S
C2637 C2633 1.393 . S
C2637 C2636 1.391 . S
C2638 H2628 0.950 . S
C2638 C2639 1.386 . S
C2638 C2640 1.391 . S
C2639 C2638 1.386 . S
C2639 C2643 1.393 . S
C2640 H2629 0.950 . S
C2640 C2638 1.391 . S
C2640 C2641 1.400 . S
C2641 C2635 1.491 . S
C2641 C2640 1.400 . S
C2641 C2642 1.398 . S
C2642 H2630 0.950 . S
C2642 C2641 1.398 . S
C2642 C2643 1.391 . S
C2643 H2631 0.950 . S
C2643 C2639 1.393 . S
C2643 C2642 1.391 . S
H2644 C2652 0.950 . S
H2645 C2657 0.950 . S
H2646 C2654 0.950 . S
H2647 C2656 0.950 . S
H2648 C2658 0.950 . S
H2649 C2660 0.950 . S
H2650 C2662 0.950 . S
H2651 C2663 0.950 . S
C2652 H2644 0.950 . S
C2652 C2653 1.386 . S
C2652 C2654 1.391 . S
C2653 C2652 1.386 . S
C2653 C2657 1.393 . S
C2654 H2646 0.950 . S
C2654 C2652 1.391 . S
C2654 C2655 1.400 . S
C2655 C2654 1.400 . S
C2655 C2656 1.398 . S
C2655 C2661 1.491 . S
C2656 H2647 0.950 . S
C2656 C2655 1.398 . S
C2656 C2657 1.391 . S
C2657 H2645 0.950 . S
C2657 C2653 1.393 . S
C2657 C2656 1.391 . S
C2658 H2648 0.950 . S
C2658 C2659 1.386 . S
C2658 C2660 1.391 . S
C2659 C2658 1.386 . S
C2659 C2663 1.393 . S
C2660 H2649 0.950 . S
C2660 C2658 1.391 . S
C2660 C2661 1.400 . S
C2661 C2655 1.491 . S
C2661 C2660 1.400 . S
C2661 C2662 1.398 . S
C2662 H2650 0.950 . S
C2662 C2661 1.398 . S
C2662 C2663 1.391 . S
C2663 H2651 0.950 . S
C2663 C2659 1.393 . S
C2663 C2662 1.391 . S
H2664 C2672 0.950 . S
H2665 C2677 0.950 . S
H2666 C2674 0.950 . S
H2667 C2676 0.950 . S
H2668 C2678 0.950 . S
H2669 C2680 0.950 . S
H2670 C2682 0.950 . S
H2671 C2683 0.950 . S
C2672 H2664 0.950 . S
C2672 C2673 1.386 . S
C2672 C2674 1.391 . S
C2673 C2672 1.386 . S
C2673 C2677 1.393 . S
C2674 H2666 0.950 . S
C2674 C2672 1.391 . S
C2674 C2675 1.400 . S
C2675 C2674 1.400 . S
C2675 C2676 1.398 . S
C2675 C2681 1.491 . S
C2676 H2667 0.950 . S
C2676 C2675 1.398 . S
C2676 C2677 1.391 . S
C2677 H2665 0.950 . S
C2677 C2673 1.393 . S
C2677 C2676 1.391 . S
C2678 H2668 0.950 . S
C2678 C2679 1.386 . S
C2678 C2680 1.391 . S
C2679 C2678 1.386 . S
C2679 C2683 1.393 . S
C2680 H2669 0.950 . S
C2680 C2678 1.391 . S
C2680 C2681 1.400 . S
C2681 C2675 1.491 . S
C2681 C2680 1.400 . S
C2681 C2682 1.398 . S
C2682 H2670 0.950 . S
C2682 C2681 1.398 . S
C2682 C2683 1.391 . S
C2683 H2671 0.950 . S
C2683 C2679 1.393 . S
C2683 C2682 1.391 . S
H2684 C2692 0.950 . S
H2685 C2697 0.950 . S
H2686 C2694 0.950 . S
H2687 C2696 0.950 . S
H2688 C2698 0.950 . S
H2689 C2700 0.950 . S
H2690 C2702 0.950 . S
H2691 C2703 0.950 . S
C2692 H2684 0.950 . S
C2692 C2693 1.386 . S
C2692 C2694 1.391 . S
C2693 C2692 1.386 . S
C2693 C2697 1.393 . S
C2694 H2686 0.950 . S
C2694 C2692 1.391 . S
C2694 C2695 1.400 . S
C2695 C2694 1.400 . S
C2695 C2696 1.398 . S
C2695 C2701 1.491 . S
C2696 H2687 0.950 . S
C2696 C2695 1.398 . S
C2696 C2697 1.391 . S
C2697 H2685 0.950 . S
C2697 C2693 1.393 . S
C2697 C2696 1.391 . S
C2698 H2688 0.950 . S
C2698 C2699 1.386 . S
C2698 C2700 1.391 . S
C2699 C2698 1.386 . S
C2699 C2703 1.393 . S
C2700 H2689 0.950 . S
C2700 C2698 1.391 . S
C2700 C2701 1.400 . S
C2701 C2695 1.491 . S
C2701 C2700 1.400 . S
C2701 C2702 1.398 . S
C2702 H2690 0.950 . S
C2702 C2701 1.398 . S
C2702 C2703 1.391 . S
C2703 H2691 0.950 . S
C2703 C2699 1.393 . S
C2703 C2702 1.391 . S
H2704 C2712 0.950 . S
H2705 C2717 0.950 . S
H2706 C2714 0.950 . S
H2707 C2716 0.950 . S
H2708 C2718 0.950 . S
H2709 C2720 0.950 . S
H2710 C2722 0.950 . S
H2711 C2723 0.950 . S
C2712 H2704 0.950 . S
C2712 C2713 1.386 . S
C2712 C2714 1.391 . S
C2713 C2712 1.386 . S
C2713 C2717 1.393 . S
C2714 H2706 0.950 . S
C2714 C2712 1.391 . S
C2714 C2715 1.400 . S
C2715 C2714 1.400 . S
C2715 C2716 1.398 . S
C2715 C2721 1.491 . S
C2716 H2707 0.950 . S
C2716 C2715 1.398 . S
C2716 C2717 1.391 . S
C2717 H2705 0.950 . S
C2717 C2713 1.393 . S
C2717 C2716 1.391 . S
C2718 H2708 0.950 . S
C2718 C2719 1.386 . S
C2718 C2720 1.391 . S
C2719 C2718 1.386 . S
C2719 C2723 1.393 . S
C2720 H2709 0.950 . S
C2720 C2718 1.391 . S
C2720 C2721 1.400 . S
C2721 C2715 1.491 . S
C2721 C2720 1.400 . S
C2721 C2722 1.398 . S
C2722 H2710 0.950 . S
C2722 C2721 1.398 . S
C2722 C2723 1.391 . S
C2723 H2711 0.950 . S
C2723 C2719 1.393 . S
C2723 C2722 1.391 . S
H2724 C2732 0.950 . S
H2725 C2737 0.950 . S
H2726 C2734 0.950 . S
H2727 C2736 0.950 . S
H2728 C2738 0.950 . S
H2729 C2740 0.950 . S
H2730 C2742 0.950 . S
H2731 C2743 0.950 . S
C2732 H2724 0.950 . S
C2732 C2733 1.386 . S
C2732 C2734 1.391 . S
C2733 C2732 1.386 . S
C2733 C2737 1.393 . S
C2734 H2726 0.950 . S
C2734 C2732 1.391 . S
C2734 C2735 1.400 . S
C2735 C2734 1.400 . S
C2735 C2736 1.398 . S
C2735 C2741 1.491 . S
C2736 H2727 0.950 . S
C2736 C2735 1.398 . S
C2736 C2737 1.391 . S
C2737 H2725 0.950 . S
C2737 C2733 1.393 . S
C2737 C2736 1.391 . S
C2738 H2728 0.950 . S
C2738 C2739 1.386 . S
C2738 C2740 1.391 . S
C2739 C2738 1.386 . S
C2739 C2743 1.393 . S
C2740 H2729 0.950 . S
C2740 C2738 1.391 . S
C2740 C2741 1.400 . S
C2741 C2735 1.491 . S
C2741 C2740 1.400 . S
C2741 C2742 1.398 . S
C2742 H2730 0.950 . S
C2742 C2741 1.398 . S
C2742 C2743 1.391 . S
C2743 H2731 0.950 . S
C2743 C2739 1.393 . S
C2743 C2742 1.391 . S
H2744 C2752 0.950 . S
H2745 C2757 0.950 . S
H2746 C2754 0.950 . S
H2747 C2756 0.950 . S
H2748 C2758 0.950 . S
H2749 C2760 0.950 . S
H2750 C2762 0.950 . S
H2751 C2763 0.950 . S
C2752 H2744 0.950 . S
C2752 C2753 1.386 . S
C2752 C2754 1.391 . S
C2753 C2752 1.386 . S
C2753 C2757 1.393 . S
C2754 H2746 0.950 . S
C2754 C2752 1.391 . S
C2754 C2755 1.400 . S
C2755 C2754 1.400 . S
C2755 C2756 1.398 . S
C2755 C2761 1.491 . S
C2756 H2747 0.950 . S
C2756 C2755 1.398 . S
C2756 C2757 1.391 . S
C2757 H2745 0.950 . S
C2757 C2753 1.393 . S
C2757 C2756 1.391 . S
C2758 H2748 0.950 . S
C2758 C2759 1.386 . S
C2758 C2760 1.391 . S
C2759 C2758 1.386 . S
C2759 C2763 1.393 . S
C2760 H2749 0.950 . S
C2760 C2758 1.391 . S
C2760 C2761 1.400 . S
C2761 C2755 1.491 . S
C2761 C2760 1.400 . S
C2761 C2762 1.398 . S
C2762 H2750 0.950 . S
C2762 C2761 1.398 . S
C2762 C2763 1.391 . S
C2763 H2751 0.950 . S
C2763 C2759 1.393 . S
C2763 C2762 1.391 . S
H2764 C2772 0.950 . S
H2765 C2777 0.950 . S
H2766 C2774 0.950 . S
H2767 C2776 0.950 . S
H2768 C2778 0.950 . S
H2769 C2780 0.950 . S
H2770 C2782 0.950 . S
H2771 C2783 0.950 . S
C2772 H2764 0.950 . S
C2772 C2773 1.386 . S
C2772 C2774 1.391 . S
C2773 C2772 1.386 . S
C2773 C2777 1.393 . S
C2774 H2766 0.950 . S
C2774 C2772 1.391 . S
C2774 C2775 1.400 . S
C2775 C2774 1.400 . S
C2775 C2776 1.398 . S
C2775 C2781 1.491 . S
C2776 H2767 0.950 . S
C2776 C2775 1.398 . S
C2776 C2777 1.391 . S
C2777 H2765 0.950 . S
C2777 C2773 1.393 . S
C2777 C2776 1.391 . S
C2778 H2768 0.950 . S
C2778 C2779 1.386 . S
C2778 C2780 1.391 . S
C2779 C2778 1.386 . S
C2779 C2783 1.393 . S
C2780 H2769 0.950 . S
C2780 C2778 1.391 . S
C2780 C2781 1.400 . S
C2781 C2775 1.491 . S
C2781 C2780 1.400 . S
C2781 C2782 1.398 . S
C2782 H2770 0.950 . S
C2782 C2781 1.398 . S
C2782 C2783 1.391 . S
C2783 H2771 0.950 . S
C2783 C2779 1.393 . S
C2783 C2782 1.391 . S
H2784 C2792 0.950 . S
H2785 C2797 0.950 . S
H2786 C2794 0.950 . S
H2787 C2796 0.950 . S
H2788 C2798 0.950 . S
H2789 C2800 0.950 . S
H2790 C2802 0.950 . S
H2791 C2803 0.950 . S
C2792 H2784 0.950 . S
C2792 C2793 1.386 . S
C2792 C2794 1.391 . S
C2793 C2792 1.386 . S
C2793 C2797 1.393 . S
C2794 H2786 0.950 . S
C2794 C2792 1.391 . S
C2794 C2795 1.400 . S
C2795 C2794 1.400 . S
C2795 C2796 1.398 . S
C2795 C2801 1.491 . S
C2796 H2787 0.950 . S
C2796 C2795 1.398 . S
C2796 C2797 1.391 . S
C2797 H2785 0.950 . S
C2797 C2793 1.393 . S
C2797 C2796 1.391 . S
C2798 H2788 0.950 . S
C2798 C2799 1.386 . S
C2798 C2800 1.391 . S
C2799 C2798 1.386 . S
C2799 C2803 1.393 . S
C2800 H2789 0.950 . S
C2800 C2798 1.391 . S
C2800 C2801 1.400 . S
C2801 C2795 1.491 . S
C2801 C2800 1.400 . S
C2801 C2802 1.398 . S
C2802 H2790 0.950 . S
C2802 C2801 1.398 . S
C2802 C2803 1.391 . S
C2803 H2791 0.950 . S
C2803 C2799 1.393 . S
C2803 C2802 1.391 . S
H2804 C2812 0.950 . S
H2805 C2817 0.950 . S
H2806 C2814 0.950 . S
H2807 C2816 0.950 . S
H2808 C2818 0.950 . S
H2809 C2820 0.950 . S
H2810 C2822 0.950 . S
H2811 C2823 0.950 . S
C2812 H2804 0.950 . S
C2812 C2813 1.386 . S
C2812 C2814 1.391 . S
C2813 C2812 1.386 . S
C2813 C2817 1.393 . S
C2814 H2806 0.950 . S
C2814 C2812 1.391 . S
C2814 C2815 1.400 . S
C2815 C2814 1.400 . S
C2815 C2816 1.398 . S
C2815 C2821 1.491 . S
C2816 H2807 0.950 . S
C2816 C2815 1.398 . S
C2816 C2817 1.391 . S
C2817 H2805 0.950 . S
C2817 C2813 1.393 . S
C2817 C2816 1.391 . S
C2818 H2808 0.950 . S
C2818 C2819 1.386 . S
C2818 C2820 1.391 . S
C2819 C2818 1.386 . S
C2819 C2823 1.393 . S
C2820 H2809 0.950 . S
C2820 C2818 1.391 . S
C2820 C2821 1.400 . S
C2821 C2815 1.491 . S
C2821 C2820 1.400 . S
C2821 C2822 1.398 . S
C2822 H2810 0.950 . S
C2822 C2821 1.398 . S
C2822 C2823 1.391 . S
C2823 H2811 0.950 . S
C2823 C2819 1.393 . S
C2823 C2822 1.391 . S
H2824 C2832 0.950 . S
H2825 C2837 0.950 . S
H2826 C2834 0.950 . S
H2827 C2836 0.950 . S
H2828 C2838 0.950 . S
H2829 C2840 0.950 . S
H2830 C2842 0.950 . S
H2831 C2843 0.950 . S
C2832 H2824 0.950 . S
C2832 C2833 1.386 . S
C2832 C2834 1.391 . S
C2833 C2832 1.386 . S
C2833 C2837 1.393 . S
C2834 H2826 0.950 . S
C2834 C2832 1.391 . S
C2834 C2835 1.400 . S
C2835 C2834 1.400 . S
C2835 C2836 1.398 . S
C2835 C2841 1.491 . S
C2836 H2827 0.950 . S
C2836 C2835 1.398 . S
C2836 C2837 1.391 . S
C2837 H2825 0.950 . S
C2837 C2833 1.393 . S
C2837 C2836 1.391 . S
C2838 H2828 0.950 . S
C2838 C2839 1.386 . S
C2838 C2840 1.391 . S
C2839 C2838 1.386 . S
C2839 C2843 1.393 . S
C2840 H2829 0.950 . S
C2840 C2838 1.391 . S
C2840 C2841 1.400 . S
C2841 C2835 1.491 . S
C2841 C2840 1.400 . S
C2841 C2842 1.398 . S
C2842 H2830 0.950 . S
C2842 C2841 1.398 . S
C2842 C2843 1.391 . S
C2843 H2831 0.950 . S
C2843 C2839 1.393 . S
C2843 C2842 1.391 . S
H2844 C2852 0.950 . S
H2845 C2857 0.950 . S
H2846 C2854 0.950 . S
H2847 C2856 0.950 . S
H2848 C2858 0.950 . S
H2849 C2860 0.950 . S
H2850 C2862 0.950 . S
H2851 C2863 0.950 . S
C2852 H2844 0.950 . S
C2852 C2853 1.386 . S
C2852 C2854 1.391 . S
C2853 C2852 1.386 . S
C2853 C2857 1.393 . S
C2854 H2846 0.950 . S
C2854 C2852 1.391 . S
C2854 C2855 1.400 . S
C2855 C2854 1.400 . S
C2855 C2856 1.398 . S
C2855 C2861 1.491 . S
C2856 H2847 0.950 . S
C2856 C2855 1.398 . S
C2856 C2857 1.391 . S
C2857 H2845 0.950 . S
C2857 C2853 1.393 . S
C2857 C2856 1.391 . S
C2858 H2848 0.950 . S
C2858 C2859 1.386 . S
C2858 C2860 1.391 . S
C2859 C2858 1.386 . S
C2859 C2863 1.393 . S
C2860 H2849 0.950 . S
C2860 C2858 1.391 . S
C2860 C2861 1.400 . S
C2861 C2855 1.491 . S
C2861 C2860 1.400 . S
C2861 C2862 1.398 . S
C2862 H2850 0.950 . S
C2862 C2861 1.398 . S
C2862 C2863 1.391 . S
C2863 H2851 0.950 . S
C2863 C2859 1.393 . S
C2863 C2862 1.391 . S
H2864 C2872 0.950 . S
H2865 C2877 0.950 . S
H2866 C2874 0.950 . S
H2867 C2876 0.950 . S
H2868 C2878 0.950 . S
H2869 C2880 0.950 . S
H2870 C2882 0.950 . S
H2871 C2883 0.950 . S
C2872 H2864 0.950 . S
C2872 C2873 1.386 . S
C2872 C2874 1.391 . S
C2873 C2872 1.386 . S
C2873 C2877 1.393 . S
C2874 H2866 0.950 . S
C2874 C2872 1.391 . S
C2874 C2875 1.400 . S
C2875 C2874 1.400 . S
C2875 C2876 1.398 . S
C2875 C2881 1.491 . S
C2876 H2867 0.950 . S
C2876 C2875 1.398 . S
C2876 C2877 1.391 . S
C2877 H2865 0.950 . S
C2877 C2873 1.393 . S
C2877 C2876 1.391 . S
C2878 H2868 0.950 . S
C2878 C2879 1.386 . S
C2878 C2880 1.391 . S
C2879 C2878 1.386 . S
C2879 C2883 1.393 . S
C2880 H2869 0.950 . S
C2880 C2878 1.391 . S
C2880 C2881 1.400 . S
C2881 C2875 1.491 . S
C2881 C2880 1.400 . S
C2881 C2882 1.398 . S
C2882 H2870 0.950 . S
C2882 C2881 1.398 . S
C2882 C2883 1.391 . S
C2883 H2871 0.950 . S
C2883 C2879 1.393 . S
C2883 C2882 1.391 . S
H2884 C2892 0.950 . S
H2885 C2897 0.950 . S
H2886 C2894 0.950 . S
H2887 C2896 0.950 . S
H2888 C2898 0.950 . S
H2889 C2900 0.950 . S
H2890 C2902 0.950 . S
H2891 C2903 0.950 . S
C2892 H2884 0.950 . S
C2892 C2893 1.386 . S
C2892 C2894 1.391 . S
C2893 C2892 1.386 . S
C2893 C2897 1.393 . S
C2894 H2886 0.950 . S
C2894 C2892 1.391 . S
C2894 C2895 1.400 . S
C2895 C2894 1.400 . S
C2895 C2896 1.398 . S
C2895 C2901 1.491 . S
C2896 H2887 0.950 . S
C2896 C2895 1.398 . S
C2896 C2897 1.391 . S
C2897 H2885 0.950 . S
C2897 C2893 1.393 . S
C2897 C2896 1.391 . S
C2898 H2888 0.950 . S
C2898 C2899 1.386 . S
C2898 C2900 1.391 . S
C2899 C2898 1.386 . S
C2899 C2903 1.393 . S
C2900 H2889 0.950 . S
C2900 C2898 1.391 . S
C2900 C2901 1.400 . S
C2901 C2895 1.491 . S
C2901 C2900 1.400 . S
C2901 C2902 1.398 . S
C2902 H2890 0.950 . S
C2902 C2901 1.398 . S
C2902 C2903 1.391 . S
C2903 H2891 0.950 . S
C2903 C2899 1.393 . S
C2903 C2902 1.391 . S
H2904 C2912 0.950 . S
H2905 C2917 0.950 . S
H2906 C2914 0.950 . S
H2907 C2916 0.950 . S
H2908 C2918 0.950 . S
H2909 C2920 0.950 . S
H2910 C2922 0.950 . S
H2911 C2923 0.950 . S
C2912 H2904 0.950 . S
C2912 C2913 1.386 . S
C2912 C2914 1.391 . S
C2913 C2912 1.386 . S
C2913 C2917 1.393 . S
C2914 H2906 0.950 . S
C2914 C2912 1.391 . S
C2914 C2915 1.400 . S
C2915 C2914 1.400 . S
C2915 C2916 1.398 . S
C2915 C2921 1.491 . S
C2916 H2907 0.950 . S
C2916 C2915 1.398 . S
C2916 C2917 1.391 . S
C2917 H2905 0.950 . S
C2917 C2913 1.393 . S
C2917 C2916 1.391 . S
C2918 H2908 0.950 . S
C2918 C2919 1.386 . S
C2918 C2920 1.391 . S
C2919 C2918 1.386 . S
C2919 C2923 1.393 . S
C2920 H2909 0.950 . S
C2920 C2918 1.391 . S
C2920 C2921 1.400 . S
C2921 C2915 1.491 . S
C2921 C2920 1.400 . S
C2921 C2922 1.398 . S
C2922 H2910 0.950 . S
C2922 C2921 1.398 . S
C2922 C2923 1.391 . S
C2923 H2911 0.950 . S
C2923 C2919 1.393 . S
C2923 C2922 1.391 . S
H2924 C2932 0.950 . S
H2925 C2937 0.950 . S
H2926 C2934 0.950 . S
H2927 C2936 0.950 . S
H2928 C2938 0.950 . S
H2929 C2940 0.950 . S
H2930 C2942 0.950 . S
H2931 C2943 0.950 . S
C2932 H2924 0.950 . S
C2932 C2933 1.386 . S
C2932 C2934 1.391 . S
C2933 C2932 1.386 . S
C2933 C2937 1.393 . S
C2934 H2926 0.950 . S
C2934 C2932 1.391 . S
C2934 C2935 1.400 . S
C2935 C2934 1.400 . S
C2935 C2936 1.398 . S
C2935 C2941 1.491 . S
C2936 H2927 0.950 . S
C2936 C2935 1.398 . S
C2936 C2937 1.391 . S
C2937 H2925 0.950 . S
C2937 C2933 1.393 . S
C2937 C2936 1.391 . S
C2938 H2928 0.950 . S
C2938 C2939 1.386 . S
C2938 C2940 1.391 . S
C2939 C2938 1.386 . S
C2939 C2943 1.393 . S
C2940 H2929 0.950 . S
C2940 C2938 1.391 . S
C2940 C2941 1.400 . S
C2941 C2935 1.491 . S
C2941 C2940 1.400 . S
C2941 C2942 1.398 . S
C2942 H2930 0.950 . S
C2942 C2941 1.398 . S
C2942 C2943 1.391 . S
C2943 H2931 0.950 . S
C2943 C2939 1.393 . S
C2943 C2942 1.391 . S
H2944 C2952 0.950 . S
H2945 C2957 0.950 . S
H2946 C2954 0.950 . S
H2947 C2956 0.950 . S
H2948 C2958 0.950 . S
H2949 C2960 0.950 . S
H2950 C2962 0.950 . S
H2951 C2963 0.950 . S
C2952 H2944 0.950 . S
C2952 C2953 1.386 . S
C2952 C2954 1.391 . S
C2953 C2952 1.386 . S
C2953 C2957 1.393 . S
C2954 H2946 0.950 . S
C2954 C2952 1.391 . S
C2954 C2955 1.400 . S
C2955 C2954 1.400 . S
C2955 C2956 1.398 . S
C2955 C2961 1.491 . S
C2956 H2947 0.950 . S
C2956 C2955 1.398 . S
C2956 C2957 1.391 . S
C2957 H2945 0.950 . S
C2957 C2953 1.393 . S
C2957 C2956 1.391 . S
C2958 H2948 0.950 . S
C2958 C2959 1.386 . S
C2958 C2960 1.391 . S
C2959 C2958 1.386 . S
C2959 C2963 1.393 . S
C2960 H2949 0.950 . S
C2960 C2958 1.391 . S
C2960 C2961 1.400 . S
C2961 C2955 1.491 . S
C2961 C2960 1.400 . S
C2961 C2962 1.398 . S
C2962 H2950 0.950 . S
C2962 C2961 1.398 . S
C2962 C2963 1.391 . S
C2963 H2951 0.950 . S
C2963 C2959 1.393 . S
C2963 C2962 1.391 . S
H2964 C2972 0.950 . S
H2965 C2977 0.950 . S
H2966 C2974 0.950 . S
H2967 C2976 0.950 . S
H2968 C2978 0.950 . S
H2969 C2980 0.950 . S
H2970 C2982 0.950 . S
H2971 C2983 0.950 . S
C2972 H2964 0.950 . S
C2972 C2973 1.386 . S
C2972 C2974 1.391 . S
C2973 C2972 1.386 . S
C2973 C2977 1.393 . S
C2974 H2966 0.950 . S
C2974 C2972 1.391 . S
C2974 C2975 1.400 . S
C2975 C2974 1.400 . S
C2975 C2976 1.398 . S
C2975 C2981 1.491 . S
C2976 H2967 0.950 . S
C2976 C2975 1.398 . S
C2976 C2977 1.391 . S
C2977 H2965 0.950 . S
C2977 C2973 1.393 . S
C2977 C2976 1.391 . S
C2978 H2968 0.950 . S
C2978 C2979 1.386 . S
C2978 C2980 1.391 . S
C2979 C2978 1.386 . S
C2979 C2983 1.393 . S
C2980 H2969 0.950 . S
C2980 C2978 1.391 . S
C2980 C2981 1.400 . S
C2981 C2975 1.491 . S
C2981 C2980 1.400 . S
C2981 C2982 1.398 . S
C2982 H2970 0.950 . S
C2982 C2981 1.398 . S
C2982 C2983 1.391 . S
C2983 H2971 0.950 . S
C2983 C2979 1.393 . S
C2983 C2982 1.391 . S
H2984 C2992 0.950 . S
H2985 C2997 0.950 . S
H2986 C2994 0.950 . S
H2987 C2996 0.950 . S
H2988 C2998 0.950 . S
H2989 C3000 0.950 . S
H2990 C3002 0.950 . S
H2991 C3003 0.950 . S
C2992 H2984 0.950 . S
C2992 C2993 1.386 . S
C2992 C2994 1.391 . S
C2993 C2992 1.386 . S
C2993 C2997 1.393 . S
C2994 H2986 0.950 . S
C2994 C2992 1.391 . S
C2994 C2995 1.400 . S
C2995 C2994 1.400 . S
C2995 C2996 1.398 . S
C2995 C3001 1.491 . S
C2996 H2987 0.950 . S
C2996 C2995 1.398 . S
C2996 C2997 1.391 . S
C2997 H2985 0.950 . S
C2997 C2993 1.393 . S
C2997 C2996 1.391 . S
C2998 H2988 0.950 . S
C2998 C2999 1.386 . S
C2998 C3000 1.391 . S
C2999 C2998 1.386 . S
C2999 C3003 1.393 . S
C3000 H2989 0.950 . S
C3000 C2998 1.391 . S
C3000 C3001 1.400 . S
C3001 C2995 1.491 . S
C3001 C3000 1.400 . S
C3001 C3002 1.398 . S
C3002 H2990 0.950 . S
C3002 C3001 1.398 . S
C3002 C3003 1.391 . S
C3003 H2991 0.950 . S
C3003 C2999 1.393 . S
C3003 C3002 1.391 . S
H3004 C3012 0.950 . S
H3005 C3017 0.950 . S
H3006 C3014 0.950 . S
H3007 C3016 0.950 . S
H3008 C3018 0.950 . S
H3009 C3020 0.950 . S
H3010 C3022 0.950 . S
H3011 C3023 0.950 . S
C3012 H3004 0.950 . S
C3012 C3013 1.386 . S
C3012 C3014 1.391 . S
C3013 C3012 1.386 . S
C3013 C3017 1.393 . S
C3014 H3006 0.950 . S
C3014 C3012 1.391 . S
C3014 C3015 1.400 . S
C3015 C3014 1.400 . S
C3015 C3016 1.398 . S
C3015 C3021 1.491 . S
C3016 H3007 0.950 . S
C3016 C3015 1.398 . S
C3016 C3017 1.391 . S
C3017 H3005 0.950 . S
C3017 C3013 1.393 . S
C3017 C3016 1.391 . S
C3018 H3008 0.950 . S
C3018 C3019 1.386 . S
C3018 C3020 1.391 . S
C3019 C3018 1.386 . S
C3019 C3023 1.393 . S
C3020 H3009 0.950 . S
C3020 C3018 1.391 . S
C3020 C3021 1.400 . S
C3021 C3015 1.491 . S
C3021 C3020 1.400 . S
C3021 C3022 1.398 . S
C3022 H3010 0.950 . S
C3022 C3021 1.398 . S
C3022 C3023 1.391 . S
C3023 H3011 0.950 . S
C3023 C3019 1.393 . S
C3023 C3022 1.391 . S
H3024 C3032 0.950 . S
H3025 C3037 0.950 . S
H3026 C3034 0.950 . S
H3027 C3036 0.950 . S
H3028 C3038 0.950 . S
H3029 C3040 0.950 . S
H3030 C3042 0.950 . S
H3031 C3043 0.950 . S
C3032 H3024 0.950 . S
C3032 C3033 1.386 . S
C3032 C3034 1.391 . S
C3033 C3032 1.386 . S
C3033 C3037 1.393 . S
C3034 H3026 0.950 . S
C3034 C3032 1.391 . S
C3034 C3035 1.400 . S
C3035 C3034 1.400 . S
C3035 C3036 1.398 . S
C3035 C3041 1.491 . S
C3036 H3027 0.950 . S
C3036 C3035 1.398 . S
C3036 C3037 1.391 . S
C3037 H3025 0.950 . S
C3037 C3033 1.393 . S
C3037 C3036 1.391 . S
C3038 H3028 0.950 . S
C3038 C3039 1.386 . S
C3038 C3040 1.391 . S
C3039 C3038 1.386 . S
C3039 C3043 1.393 . S
C3040 H3029 0.950 . S
C3040 C3038 1.391 . S
C3040 C3041 1.400 . S
C3041 C3035 1.491 . S
C3041 C3040 1.400 . S
C3041 C3042 1.398 . S
C3042 H3030 0.950 . S
C3042 C3041 1.398 . S
C3042 C3043 1.391 . S
C3043 H3031 0.950 . S
C3043 C3039 1.393 . S
C3043 C3042 1.391 . S
H3044 C3052 0.950 . S
H3045 C3057 0.950 . S
H3046 C3054 0.950 . S
H3047 C3056 0.950 . S
H3048 C3058 0.950 . S
H3049 C3060 0.950 . S
H3050 C3062 0.950 . S
H3051 C3063 0.950 . S
C3052 H3044 0.950 . S
C3052 C3053 1.386 . S
C3052 C3054 1.391 . S
C3053 C3052 1.386 . S
C3053 C3057 1.393 . S
C3054 H3046 0.950 . S
C3054 C3052 1.391 . S
C3054 C3055 1.400 . S
C3055 C3054 1.400 . S
C3055 C3056 1.398 . S
C3055 C3061 1.491 . S
C3056 H3047 0.950 . S
C3056 C3055 1.398 . S
C3056 C3057 1.391 . S
C3057 H3045 0.950 . S
C3057 C3053 1.393 . S
C3057 C3056 1.391 . S
C3058 H3048 0.950 . S
C3058 C3059 1.386 . S
C3058 C3060 1.391 . S
C3059 C3058 1.386 . S
C3059 C3063 1.393 . S
C3060 H3049 0.950 . S
C3060 C3058 1.391 . S
C3060 C3061 1.400 . S
C3061 C3055 1.491 . S
C3061 C3060 1.400 . S
C3061 C3062 1.398 . S
C3062 H3050 0.950 . S
C3062 C3061 1.398 . S
C3062 C3063 1.391 . S
C3063 H3051 0.950 . S
C3063 C3059 1.393 . S
C3063 C3062 1.391 . S
H3064 C3072 0.950 . S
H3065 C3077 0.950 . S
H3066 C3074 0.950 . S
H3067 C3076 0.950 . S
H3068 C3078 0.950 . S
H3069 C3080 0.950 . S
H3070 C3082 0.950 . S
H3071 C3083 0.950 . S
C3072 H3064 0.950 . S
C3072 C3073 1.386 . S
C3072 C3074 1.391 . S
C3073 C3072 1.386 . S
C3073 C3077 1.393 . S
C3074 H3066 0.950 . S
C3074 C3072 1.391 . S
C3074 C3075 1.400 . S
C3075 C3074 1.400 . S
C3075 C3076 1.398 . S
C3075 C3081 1.491 . S
C3076 H3067 0.950 . S
C3076 C3075 1.398 . S
C3076 C3077 1.391 . S
C3077 H3065 0.950 . S
C3077 C3073 1.393 . S
C3077 C3076 1.391 . S
C3078 H3068 0.950 . S
C3078 C3079 1.386 . S
C3078 C3080 1.391 . S
C3079 C3078 1.386 . S
C3079 C3083 1.393 . S
C3080 H3069 0.950 . S
C3080 C3078 1.391 . S
C3080 C3081 1.400 . S
C3081 C3075 1.491 . S
C3081 C3080 1.400 . S
C3081 C3082 1.398 . S
C3082 H3070 0.950 . S
C3082 C3081 1.398 . S
C3082 C3083 1.391 . S
C3083 H3071 0.950 . S
C3083 C3079 1.393 . S
C3083 C3082 1.391 . S
H3084 C3092 0.950 . S
H3085 C3097 0.950 . S
H3086 C3094 0.950 . S
H3087 C3096 0.950 . S
H3088 C3098 0.950 . S
H3089 C3100 0.950 . S
H3090 C3102 0.950 . S
H3091 C3103 0.950 . S
C3092 H3084 0.950 . S
C3092 C3093 1.386 . S
C3092 C3094 1.391 . S
C3093 C3092 1.386 . S
C3093 C3097 1.393 . S
C3094 H3086 0.950 . S
C3094 C3092 1.391 . S
C3094 C3095 1.400 . S
C3095 C3094 1.400 . S
C3095 C3096 1.398 . S
C3095 C3101 1.491 . S
C3096 H3087 0.950 . S
C3096 C3095 1.398 . S
C3096 C3097 1.391 . S
C3097 H3085 0.950 . S
C3097 C3093 1.393 . S
C3097 C3096 1.391 . S
C3098 H3088 0.950 . S
C3098 C3099 1.386 . S
C3098 C3100 1.391 . S
C3099 C3098 1.386 . S
C3099 C3103 1.393 . S
C3100 H3089 0.950 . S
C3100 C3098 1.391 . S
C3100 C3101 1.400 . S
C3101 C3095 1.491 . S
C3101 C3100 1.400 . S
C3101 C3102 1.398 . S
C3102 H3090 0.950 . S
C3102 C3101 1.398 . S
C3102 C3103 1.391 . S
C3103 H3091 0.950 . S
C3103 C3099 1.393 . S
C3103 C3102 1.391 . S
H3104 C3112 0.950 . S
H3105 C3117 0.950 . S
H3106 C3114 0.950 . S
H3107 C3116 0.950 . S
H3108 C3118 0.950 . S
H3109 C3120 0.950 . S
H3110 C3122 0.950 . S
H3111 C3123 0.950 . S
C3112 H3104 0.950 . S
C3112 C3113 1.386 . S
C3112 C3114 1.391 . S
C3113 C3112 1.386 . S
C3113 C3117 1.393 . S
C3114 H3106 0.950 . S
C3114 C3112 1.391 . S
C3114 C3115 1.400 . S
C3115 C3114 1.400 . S
C3115 C3116 1.398 . S
C3115 C3121 1.491 . S
C3116 H3107 0.950 . S
C3116 C3115 1.398 . S
C3116 C3117 1.391 . S
C3117 H3105 0.950 . S
C3117 C3113 1.393 . S
C3117 C3116 1.391 . S
C3118 H3108 0.950 . S
C3118 C3119 1.386 . S
C3118 C3120 1.391 . S
C3119 C3118 1.386 . S
C3119 C3123 1.393 . S
C3120 H3109 0.950 . S
C3120 C3118 1.391 . S
C3120 C3121 1.400 . S
C3121 C3115 1.491 . S
C3121 C3120 1.400 . S
C3121 C3122 1.398 . S
C3122 H3110 0.950 . S
C3122 C3121 1.398 . S
C3122 C3123 1.391 . S
C3123 H3111 0.950 . S
C3123 C3119 1.393 . S
C3123 C3122 1.391 . S
H3124 C3132 0.950 . S
H3125 C3137 0.950 . S
H3126 C3134 0.950 . S
H3127 C3136 0.950 . S
H3128 C3138 0.950 . S
H3129 C3140 0.950 . S
H3130 C3142 0.950 . S
H3131 C3143 0.950 . S
C3132 H3124 0.950 . S
C3132 C3133 1.386 . S
C3132 C3134 1.391 . S
C3133 C3132 1.386 . S
C3133 C3137 1.393 . S
C3134 H3126 0.950 . S
C3134 C3132 1.391 . S
C3134 C3135 1.400 . S
C3135 C3134 1.400 . S
C3135 C3136 1.398 . S
C3135 C3141 1.491 . S
C3136 H3127 0.950 . S
C3136 C3135 1.398 . S
C3136 C3137 1.391 . S
C3137 H3125 0.950 . S
C3137 C3133 1.393 . S
C3137 C3136 1.391 . S
C3138 H3128 0.950 . S
C3138 C3139 1.386 . S
C3138 C3140 1.391 . S
C3139 C3138 1.386 . S
C3139 C3143 1.393 . S
C3140 H3129 0.950 . S
C3140 C3138 1.391 . S
C3140 C3141 1.400 . S
C3141 C3135 1.491 . S
C3141 C3140 1.400 . S
C3141 C3142 1.398 . S
C3142 H3130 0.950 . S
C3142 C3141 1.398 . S
C3142 C3143 1.391 . S
C3143 H3131 0.950 . S
C3143 C3139 1.393 . S
C3143 C3142 1.391 . S
H3144 C3152 0.950 . S
H3145 C3157 0.950 . S
H3146 C3154 0.950 . S
H3147 C3156 0.950 . S
H3148 C3158 0.950 . S
H3149 C3160 0.950 . S
H3150 C3162 0.950 . S
H3151 C3163 0.950 . S
C3152 H3144 0.950 . S
C3152 C3153 1.386 . S
C3152 C3154 1.391 . S
C3153 C3152 1.386 . S
C3153 C3157 1.393 . S
C3154 H3146 0.950 . S
C3154 C3152 1.391 . S
C3154 C3155 1.400 . S
C3155 C3154 1.400 . S
C3155 C3156 1.398 . S
C3155 C3161 1.491 . S
C3156 H3147 0.950 . S
C3156 C3155 1.398 . S
C3156 C3157 1.391 . S
C3157 H3145 0.950 . S
C3157 C3153 1.393 . S
C3157 C3156 1.391 . S
C3158 H3148 0.950 . S
C3158 C3159 1.386 . S
C3158 C3160 1.391 . S
C3159 C3158 1.386 . S
C3159 C3163 1.393 . S
C3160 H3149 0.950 . S
C3160 C3158 1.391 . S
C3160 C3161 1.400 . S
C3161 C3155 1.491 . S
C3161 C3160 1.400 . S
C3161 C3162 1.398 . S
C3162 H3150 0.950 . S
C3162 C3161 1.398 . S
C3162 C3163 1.391 . S
C3163 H3151 0.950 . S
C3163 C3159 1.393 . S
C3163 C3162 1.391 . S
H3164 C3172 0.950 . S
H3165 C3177 0.950 . S
H3166 C3174 0.950 . S
H3167 C3176 0.950 . S
H3168 C3178 0.950 . S
H3169 C3180 0.950 . S
H3170 C3182 0.950 . S
H3171 C3183 0.950 . S
C3172 H3164 0.950 . S
C3172 C3173 1.386 . S
C3172 C3174 1.391 . S
C3173 C3172 1.386 . S
C3173 C3177 1.393 . S
C3174 H3166 0.950 . S
C3174 C3172 1.391 . S
C3174 C3175 1.400 . S
C3175 C3174 1.400 . S
C3175 C3176 1.398 . S
C3175 C3181 1.491 . S
C3176 H3167 0.950 . S
C3176 C3175 1.398 . S
C3176 C3177 1.391 . S
C3177 H3165 0.950 . S
C3177 C3173 1.393 . S
C3177 C3176 1.391 . S
C3178 H3168 0.950 . S
C3178 C3179 1.386 . S
C3178 C3180 1.391 . S
C3179 C3178 1.386 . S
C3179 C3183 1.393 . S
C3180 H3169 0.950 . S
C3180 C3178 1.391 . S
C3180 C3181 1.400 . S
C3181 C3175 1.491 . S
C3181 C3180 1.400 . S
C3181 C3182 1.398 . S
C3182 H3170 0.950 . S
C3182 C3181 1.398 . S
C3182 C3183 1.391 . S
C3183 H3171 0.950 . S
C3183 C3179 1.393 . S
C3183 C3182 1.391 . S
H3184 C3192 0.950 . S
H3185 C3197 0.950 . S
H3186 C3194 0.950 . S
H3187 C3196 0.950 . S
H3188 C3198 0.950 . S
H3189 C3200 0.950 . S
H3190 C3202 0.950 . S
H3191 C3203 0.950 . S
C3192 H3184 0.950 . S
C3192 C3193 1.386 . S
C3192 C3194 1.391 . S
C3193 C3192 1.386 . S
C3193 C3197 1.393 . S
C3194 H3186 0.950 . S
C3194 C3192 1.391 . S
C3194 C3195 1.400 . S
C3195 C3194 1.400 . S
C3195 C3196 1.398 . S
C3195 C3201 1.491 . S
C3196 H3187 0.950 . S
C3196 C3195 1.398 . S
C3196 C3197 1.391 . S
C3197 H3185 0.950 . S
C3197 C3193 1.393 . S
C3197 C3196 1.391 . S
C3198 H3188 0.950 . S
C3198 C3199 1.386 . S
C3198 C3200 1.391 . S
C3199 C3198 1.386 . S
C3199 C3203 1.393 . S
C3200 H3189 0.950 . S
C3200 C3198 1.391 . S
C3200 C3201 1.400 . S
C3201 C3195 1.491 . S
C3201 C3200 1.400 . S
C3201 C3202 1.398 . S
C3202 H3190 0.950 . S
C3202 C3201 1.398 . S
C3202 C3203 1.391 . S
C3203 H3191 0.950 . S
C3203 C3199 1.393 . S
C3203 C3202 1.391 . S
H3204 C3212 0.950 . S
H3205 C3217 0.950 . S
H3206 C3214 0.950 . S
H3207 C3216 0.950 . S
H3208 C3218 0.950 . S
H3209 C3220 0.950 . S
H3210 C3222 0.950 . S
H3211 C3223 0.950 . S
C3212 H3204 0.950 . S
C3212 C3213 1.386 . S
C3212 C3214 1.391 . S
C3213 C3212 1.386 . S
C3213 C3217 1.393 . S
C3214 H3206 0.950 . S
C3214 C3212 1.391 . S
C3214 C3215 1.400 . S
C3215 C3214 1.400 . S
C3215 C3216 1.398 . S
C3215 C3221 1.491 . S
C3216 H3207 0.950 . S
C3216 C3215 1.398 . S
C3216 C3217 1.391 . S
C3217 H3205 0.950 . S
C3217 C3213 1.393 . S
C3217 C3216 1.391 . S
C3218 H3208 0.950 . S
C3218 C3219 1.386 . S
C3218 C3220 1.391 . S
C3219 C3218 1.386 . S
C3219 C3223 1.393 . S
C3220 H3209 0.950 . S
C3220 C3218 1.391 . S
C3220 C3221 1.400 . S
C3221 C3215 1.491 . S
C3221 C3220 1.400 . S
C3221 C3222 1.398 . S
C3222 H3210 0.950 . S
C3222 C3221 1.398 . S
C3222 C3223 1.391 . S
C3223 H3211 0.950 . S
C3223 C3219 1.393 . S
C3223 C3222 1.391 . S
H3224 C3232 0.950 . S
H3225 C3237 0.950 . S
H3226 C3234 0.950 . S
H3227 C3236 0.950 . S
H3228 C3238 0.950 . S
H3229 C3240 0.950 . S
H3230 C3242 0.950 . S
H3231 C3243 0.950 . S
C3232 H3224 0.950 . S
C3232 C3233 1.386 . S
C3232 C3234 1.391 . S
C3233 C3232 1.386 . S
C3233 C3237 1.393 . S
C3234 H3226 0.950 . S
C3234 C3232 1.391 . S
C3234 C3235 1.400 . S
C3235 C3234 1.400 . S
C3235 C3236 1.398 . S
C3235 C3241 1.491 . S
C3236 H3227 0.950 . S
C3236 C3235 1.398 . S
C3236 C3237 1.391 . S
C3237 H3225 0.950 . S
C3237 C3233 1.393 . S
C3237 C3236 1.391 . S
C3238 H3228 0.950 . S
C3238 C3239 1.386 . S
C3238 C3240 1.391 . S
C3239 C3238 1.386 . S
C3239 C3243 1.393 . S
C3240 H3229 0.950 . S
C3240 C3238 1.391 . S
C3240 C3241 1.400 . S
C3241 C3235 1.491 . S
C3241 C3240 1.400 . S
C3241 C3242 1.398 . S
C3242 H3230 0.950 . S
C3242 C3241 1.398 . S
C3242 C3243 1.391 . S
C3243 H3231 0.950 . S
C3243 C3239 1.393 . S
C3243 C3242 1.391 . S
H3244 C3252 0.950 . S
H3245 C3257 0.950 . S
H3246 C3254 0.950 . S
H3247 C3256 0.950 . S
H3248 C3258 0.950 . S
H3249 C3260 0.950 . S
H3250 C3262 0.950 . S
H3251 C3263 0.950 . S
C3252 H3244 0.950 . S
C3252 C3253 1.386 . S
C3252 C3254 1.391 . S
C3253 C3252 1.386 . S
C3253 C3257 1.393 . S
C3254 H3246 0.950 . S
C3254 C3252 1.391 . S
C3254 C3255 1.400 . S
C3255 C3254 1.400 . S
C3255 C3256 1.398 . S
C3255 C3261 1.491 . S
C3256 H3247 0.950 . S
C3256 C3255 1.398 . S
C3256 C3257 1.391 . S
C3257 H3245 0.950 . S
C3257 C3253 1.393 . S
C3257 C3256 1.391 . S
C3258 H3248 0.950 . S
C3258 C3259 1.386 . S
C3258 C3260 1.391 . S
C3259 C3258 1.386 . S
C3259 C3263 1.393 . S
C3260 H3249 0.950 . S
C3260 C3258 1.391 . S
C3260 C3261 1.400 . S
C3261 C3255 1.491 . S
C3261 C3260 1.400 . S
C3261 C3262 1.398 . S
C3262 H3250 0.950 . S
C3262 C3261 1.398 . S
C3262 C3263 1.391 . S
C3263 H3251 0.950 . S
C3263 C3259 1.393 . S
C3263 C3262 1.391 . S
H3264 C3272 0.950 . S
H3265 C3277 0.950 . S
H3266 C3274 0.950 . S
H3267 C3276 0.950 . S
H3268 C3278 0.950 . S
H3269 C3280 0.950 . S
H3270 C3282 0.950 . S
H3271 C3283 0.950 . S
C3272 H3264 0.950 . S
C3272 C3273 1.386 . S
C3272 C3274 1.391 . S
C3273 C3272 1.386 . S
C3273 C3277 1.393 . S
C3274 H3266 0.950 . S
C3274 C3272 1.391 . S
C3274 C3275 1.400 . S
C3275 C3274 1.400 . S
C3275 C3276 1.398 . S
C3275 C3281 1.491 . S
C3276 H3267 0.950 . S
C3276 C3275 1.398 . S
C3276 C3277 1.391 . S
C3277 H3265 0.950 . S
C3277 C3273 1.393 . S
C3277 C3276 1.391 . S
C3278 H3268 0.950 . S
C3278 C3279 1.386 . S
C3278 C3280 1.391 . S
C3279 C3278 1.386 . S
C3279 C3283 1.393 . S
C3280 H3269 0.950 . S
C3280 C3278 1.391 . S
C3280 C3281 1.400 . S
C3281 C3275 1.491 . S
C3281 C3280 1.400 . S
C3281 C3282 1.398 . S
C3282 H3270 0.950 . S
C3282 C3281 1.398 . S
C3282 C3283 1.391 . S
C3283 H3271 0.950 . S
C3283 C3279 1.393 . S
C3283 C3282 1.391 . S
H3284 C3292 0.950 . S
H3285 C3297 0.950 . S
H3286 C3294 0.950 . S
H3287 C3296 0.950 . S
H3288 C3298 0.950 . S
H3289 C3300 0.950 . S
H3290 C3302 0.950 . S
H3291 C3303 0.950 . S
C3292 H3284 0.950 . S
C3292 C3293 1.386 . S
C3292 C3294 1.391 . S
C3293 C3292 1.386 . S
C3293 C3297 1.393 . S
C3294 H3286 0.950 . S
C3294 C3292 1.391 . S
C3294 C3295 1.400 . S
C3295 C3294 1.400 . S
C3295 C3296 1.398 . S
C3295 C3301 1.491 . S
C3296 H3287 0.950 . S
C3296 C3295 1.398 . S
C3296 C3297 1.391 . S
C3297 H3285 0.950 . S
C3297 C3293 1.393 . S
C3297 C3296 1.391 . S
C3298 H3288 0.950 . S
C3298 C3299 1.386 . S
C3298 C3300 1.391 . S
C3299 C3298 1.386 . S
C3299 C3303 1.393 . S
C3300 H3289 0.950 . S
C3300 C3298 1.391 . S
C3300 C3301 1.400 . S
C3301 C3295 1.491 . S
C3301 C3300 1.400 . S
C3301 C3302 1.398 . S
C3302 H3290 0.950 . S
C3302 C3301 1.398 . S
C3302 C3303 1.391 . S
C3303 H3291 0.950 . S
C3303 C3299 1.393 . S
C3303 C3302 1.391 . S
H3304 C3312 0.950 . S
H3305 C3317 0.950 . S
H3306 C3314 0.950 . S
H3307 C3316 0.950 . S
H3308 C3318 0.950 . S
H3309 C3320 0.950 . S
H3310 C3322 0.950 . S
H3311 C3323 0.950 . S
C3312 H3304 0.950 . S
C3312 C3313 1.386 . S
C3312 C3314 1.391 . S
C3313 C3312 1.386 . S
C3313 C3317 1.393 . S
C3314 H3306 0.950 . S
C3314 C3312 1.391 . S
C3314 C3315 1.400 . S
C3315 C3314 1.400 . S
C3315 C3316 1.398 . S
C3315 C3321 1.491 . S
C3316 H3307 0.950 . S
C3316 C3315 1.398 . S
C3316 C3317 1.391 . S
C3317 H3305 0.950 . S
C3317 C3313 1.393 . S
C3317 C3316 1.391 . S
C3318 H3308 0.950 . S
C3318 C3319 1.386 . S
C3318 C3320 1.391 . S
C3319 C3318 1.386 . S
C3319 C3323 1.393 . S
C3320 H3309 0.950 . S
C3320 C3318 1.391 . S
C3320 C3321 1.400 . S
C3321 C3315 1.491 . S
C3321 C3320 1.400 . S
C3321 C3322 1.398 . S
C3322 H3310 0.950 . S
C3322 C3321 1.398 . S
C3322 C3323 1.391 . S
C3323 H3311 0.950 . S
C3323 C3319 1.393 . S
C3323 C3322 1.391 . S
H3324 C3332 0.950 . S
H3325 C3337 0.950 . S
H3326 C3334 0.950 . S
H3327 C3336 0.950 . S
H3328 C3338 0.950 . S
H3329 C3340 0.950 . S
H3330 C3342 0.950 . S
H3331 C3343 0.950 . S
C3332 H3324 0.950 . S
C3332 C3333 1.386 . S
C3332 C3334 1.391 . S
C3333 C3332 1.386 . S
C3333 C3337 1.393 . S
C3334 H3326 0.950 . S
C3334 C3332 1.391 . S
C3334 C3335 1.400 . S
C3335 C3334 1.400 . S
C3335 C3336 1.398 . S
C3335 C3341 1.491 . S
C3336 H3327 0.950 . S
C3336 C3335 1.398 . S
C3336 C3337 1.391 . S
C3337 H3325 0.950 . S
C3337 C3333 1.393 . S
C3337 C3336 1.391 . S
C3338 H3328 0.950 . S
C3338 C3339 1.386 . S
C3338 C3340 1.391 . S
C3339 C3338 1.386 . S
C3339 C3343 1.393 . S
C3340 H3329 0.950 . S
C3340 C3338 1.391 . S
C3340 C3341 1.400 . S
C3341 C3335 1.491 . S
C3341 C3340 1.400 . S
C3341 C3342 1.398 . S
C3342 H3330 0.950 . S
C3342 C3341 1.398 . S
C3342 C3343 1.391 . S
C3343 H3331 0.950 . S
C3343 C3339 1.393 . S
C3343 C3342 1.391 . S
H3344 C3352 0.950 . S
H3345 C3357 0.950 . S
H3346 C3354 0.950 . S
H3347 C3356 0.950 . S
H3348 C3358 0.950 . S
H3349 C3360 0.950 . S
H3350 C3362 0.950 . S
H3351 C3363 0.950 . S
C3352 H3344 0.950 . S
C3352 C3353 1.386 . S
C3352 C3354 1.391 . S
C3353 C3352 1.386 . S
C3353 C3357 1.393 . S
C3354 H3346 0.950 . S
C3354 C3352 1.391 . S
C3354 C3355 1.400 . S
C3355 C3354 1.400 . S
C3355 C3356 1.398 . S
C3355 C3361 1.491 . S
C3356 H3347 0.950 . S
C3356 C3355 1.398 . S
C3356 C3357 1.391 . S
C3357 H3345 0.950 . S
C3357 C3353 1.393 . S
C3357 C3356 1.391 . S
C3358 H3348 0.950 . S
C3358 C3359 1.386 . S
C3358 C3360 1.391 . S
C3359 C3358 1.386 . S
C3359 C3363 1.393 . S
C3360 H3349 0.950 . S
C3360 C3358 1.391 . S
C3360 C3361 1.400 . S
C3361 C3355 1.491 . S
C3361 C3360 1.400 . S
C3361 C3362 1.398 . S
C3362 H3350 0.950 . S
C3362 C3361 1.398 . S
C3362 C3363 1.391 . S
C3363 H3351 0.950 . S
C3363 C3359 1.393 . S
C3363 C3362 1.391 . S
H3364 C3372 0.950 . S
H3365 C3377 0.950 . S
H3366 C3374 0.950 . S
H3367 C3376 0.950 . S
H3368 C3378 0.950 . S
H3369 C3380 0.950 . S
H3370 C3382 0.950 . S
H3371 C3383 0.950 . S
C3372 H3364 0.950 . S
C3372 C3373 1.386 . S
C3372 C3374 1.391 . S
C3373 C3372 1.386 . S
C3373 C3377 1.393 . S
C3374 H3366 0.950 . S
C3374 C3372 1.391 . S
C3374 C3375 1.400 . S
C3375 C3374 1.400 . S
C3375 C3376 1.398 . S
C3375 C3381 1.491 . S
C3376 H3367 0.950 . S
C3376 C3375 1.398 . S
C3376 C3377 1.391 . S
C3377 H3365 0.950 . S
C3377 C3373 1.393 . S
C3377 C3376 1.391 . S
C3378 H3368 0.950 . S
C3378 C3379 1.386 . S
C3378 C3380 1.391 . S
C3379 C3378 1.386 . S
C3379 C3383 1.393 . S
C3380 H3369 0.950 . S
C3380 C3378 1.391 . S
C3380 C3381 1.400 . S
C3381 C3375 1.491 . S
C3381 C3380 1.400 . S
C3381 C3382 1.398 . S
C3382 H3370 0.950 . S
C3382 C3381 1.398 . S
C3382 C3383 1.391 . S
C3383 H3371 0.950 . S
C3383 C3379 1.393 . S
C3383 C3382 1.391 . S
H3384 C3392 0.950 . S
H3385 C3397 0.950 . S
H3386 C3394 0.950 . S
H3387 C3396 0.950 . S
H3388 C3398 0.950 . S
H3389 C3400 0.950 . S
H3390 C3402 0.950 . S
H3391 C3403 0.950 . S
C3392 H3384 0.950 . S
C3392 C3393 1.386 . S
C3392 C3394 1.391 . S
C3393 C3392 1.386 . S
C3393 C3397 1.393 . S
C3394 H3386 0.950 . S
C3394 C3392 1.391 . S
C3394 C3395 1.400 . S
C3395 C3394 1.400 . S
C3395 C3396 1.398 . S
C3395 C3401 1.491 . S
C3396 H3387 0.950 . S
C3396 C3395 1.398 . S
C3396 C3397 1.391 . S
C3397 H3385 0.950 . S
C3397 C3393 1.393 . S
C3397 C3396 1.391 . S
C3398 H3388 0.950 . S
C3398 C3399 1.386 . S
C3398 C3400 1.391 . S
C3399 C3398 1.386 . S
C3399 C3403 1.393 . S
C3400 H3389 0.950 . S
C3400 C3398 1.391 . S
C3400 C3401 1.400 . S
C3401 C3395 1.491 . S
C3401 C3400 1.400 . S
C3401 C3402 1.398 . S
C3402 H3390 0.950 . S
C3402 C3401 1.398 . S
C3402 C3403 1.391 . S
C3403 H3391 0.950 . S
C3403 C3399 1.393 . S
C3403 C3402 1.391 . S
H3404 C3412 0.950 . S
H3405 C3417 0.950 . S
H3406 C3414 0.950 . S
H3407 C3416 0.950 . S
H3408 C3418 0.950 . S
H3409 C3420 0.950 . S
H3410 C3422 0.950 . S
H3411 C3423 0.950 . S
C3412 H3404 0.950 . S
C3412 C3413 1.386 . S
C3412 C3414 1.391 . S
C3413 C3412 1.386 . S
C3413 C3417 1.393 . S
C3414 H3406 0.950 . S
C3414 C3412 1.391 . S
C3414 C3415 1.400 . S
C3415 C3414 1.400 . S
C3415 C3416 1.398 . S
C3415 C3421 1.491 . S
C3416 H3407 0.950 . S
C3416 C3415 1.398 . S
C3416 C3417 1.391 . S
C3417 H3405 0.950 . S
C3417 C3413 1.393 . S
C3417 C3416 1.391 . S
C3418 H3408 0.950 . S
C3418 C3419 1.386 . S
C3418 C3420 1.391 . S
C3419 C3418 1.386 . S
C3419 C3423 1.393 . S
C3420 H3409 0.950 . S
C3420 C3418 1.391 . S
C3420 C3421 1.400 . S
C3421 C3415 1.491 . S
C3421 C3420 1.400 . S
C3421 C3422 1.398 . S
C3422 H3410 0.950 . S
C3422 C3421 1.398 . S
C3422 C3423 1.391 . S
C3423 H3411 0.950 . S
C3423 C3419 1.393 . S
C3423 C3422 1.391 . S
H3424 C3432 0.950 . S
H3425 C3437 0.950 . S
H3426 C3434 0.950 . S
H3427 C3436 0.950 . S
H3428 C3438 0.950 . S
H3429 C3440 0.950 . S
H3430 C3442 0.950 . S
H3431 C3443 0.950 . S
C3432 H3424 0.950 . S
C3432 C3433 1.386 . S
C3432 C3434 1.391 . S
C3433 C3432 1.386 . S
C3433 C3437 1.393 . S
C3434 H3426 0.950 . S
C3434 C3432 1.391 . S
C3434 C3435 1.400 . S
C3435 C3434 1.400 . S
C3435 C3436 1.398 . S
C3435 C3441 1.491 . S
C3436 H3427 0.950 . S
C3436 C3435 1.398 . S
C3436 C3437 1.391 . S
C3437 H3425 0.950 . S
C3437 C3433 1.393 . S
C3437 C3436 1.391 . S
C3438 H3428 0.950 . S
C3438 C3439 1.386 . S
C3438 C3440 1.391 . S
C3439 C3438 1.386 . S
C3439 C3443 1.393 . S
C3440 H3429 0.950 . S
C3440 C3438 1.391 . S
C3440 C3441 1.400 . S
C3441 C3435 1.491 . S
C3441 C3440 1.400 . S
C3441 C3442 1.398 . S
C3442 H3430 0.950 . S
C3442 C3441 1.398 . S
C3442 C3443 1.391 . S
C3443 H3431 0.950 . S
C3443 C3439 1.393 . S
C3443 C3442 1.391 . S
H3444 C3452 0.950 . S
H3445 C3457 0.950 . S
H3446 C3454 0.950 . S
H3447 C3456 0.950 . S
H3448 C3458 0.950 . S
H3449 C3460 0.950 . S
H3450 C3462 0.950 . S
H3451 C3463 0.950 . S
C3452 H3444 0.950 . S
C3452 C3453 1.386 . S
C3452 C3454 1.391 . S
C3453 C3452 1.386 . S
C3453 C3457 1.393 . S
C3454 H3446 0.950 . S
C3454 C3452 1.391 . S
C3454 C3455 1.400 . S
C3455 C3454 1.400 . S
C3455 C3456 1.398 . S
C3455 C3461 1.491 . S
C3456 H3447 0.950 . S
C3456 C3455 1.398 . S
C3456 C3457 1.391 . S
C3457 H3445 0.950 . S
C3457 C3453 1.393 . S
C3457 C3456 1.391 . S
C3458 H3448 0.950 . S
C3458 C3459 1.386 . S
C3458 C3460 1.391 . S
C3459 C3458 1.386 . S
C3459 C3463 1.393 . S
C3460 H3449 0.950 . S
C3460 C3458 1.391 . S
C3460 C3461 1.400 . S
C3461 C3455 1.491 . S
C3461 C3460 1.400 . S
C3461 C3462 1.398 . S
C3462 H3450 0.950 . S
C3462 C3461 1.398 . S
C3462 C3463 1.391 . S
C3463 H3451 0.950 . S
C3463 C3459 1.393 . S
C3463 C3462 1.391 . S
H3464 C3472 0.950 . S
H3465 C3477 0.950 . S
H3466 C3474 0.950 . S
H3467 C3476 0.950 . S
H3468 C3478 0.950 . S
H3469 C3480 0.950 . S
H3470 C3482 0.950 . S
H3471 C3483 0.950 . S
C3472 H3464 0.950 . S
C3472 C3473 1.386 . S
C3472 C3474 1.391 . S
C3473 C3472 1.386 . S
C3473 C3477 1.393 . S
C3474 H3466 0.950 . S
C3474 C3472 1.391 . S
C3474 C3475 1.400 . S
C3475 C3474 1.400 . S
C3475 C3476 1.398 . S
C3475 C3481 1.491 . S
C3476 H3467 0.950 . S
C3476 C3475 1.398 . S
C3476 C3477 1.391 . S
C3477 H3465 0.950 . S
C3477 C3473 1.393 . S
C3477 C3476 1.391 . S
C3478 H3468 0.950 . S
C3478 C3479 1.386 . S
C3478 C3480 1.391 . S
C3479 C3478 1.386 . S
C3479 C3483 1.393 . S
C3480 H3469 0.950 . S
C3480 C3478 1.391 . S
C3480 C3481 1.400 . S
C3481 C3475 1.491 . S
C3481 C3480 1.400 . S
C3481 C3482 1.398 . S
C3482 H3470 0.950 . S
C3482 C3481 1.398 . S
C3482 C3483 1.391 . S
C3483 H3471 0.950 . S
C3483 C3479 1.393 . S
C3483 C3482 1.391 . S
H3484 C3492 0.950 . S
H3485 C3497 0.950 . S
H3486 C3494 0.950 . S
H3487 C3496 0.950 . S
H3488 C3498 0.950 . S
H3489 C3500 0.950 . S
H3490 C3502 0.950 . S
H3491 C3503 0.950 . S
C3492 H3484 0.950 . S
C3492 C3493 1.386 . S
C3492 C3494 1.391 . S
C3493 C3492 1.386 . S
C3493 C3497 1.393 . S
C3494 H3486 0.950 . S
C3494 C3492 1.391 . S
C3494 C3495 1.400 . S
C3495 C3494 1.400 . S
C3495 C3496 1.398 . S
C3495 C3501 1.491 . S
C3496 H3487 0.950 . S
C3496 C3495 1.398 . S
C3496 C3497 1.391 . S
C3497 H3485 0.950 . S
C3497 C3493 1.393 . S
C3497 C3496 1.391 . S
C3498 H3488 0.950 . S
C3498 C3499 1.386 . S
C3498 C3500 1.391 . S
C3499 C3498 1.386 . S
C3499 C3503 1.393 . S
C3500 H3489 0.950 . S
C3500 C3498 1.391 . S
C3500 C3501 1.400 . S
C3501 C3495 1.491 . S
C3501 C3500 1.400 . S
C3501 C3502 1.398 . S
C3502 H3490 0.950 . S
C3502 C3501 1.398 . S
C3502 C3503 1.391 . S
C3503 H3491 0.950 . S
C3503 C3499 1.393 . S
C3503 C3502 1.391 . S
H3504 C3512 0.950 . S
H3505 C3517 0.950 . S
H3506 C3514 0.950 . S
H3507 C3516 0.950 . S
H3508 C3518 0.950 . S
H3509 C3520 0.950 . S
H3510 C3522 0.950 . S
H3511 C3523 0.950 . S
C3512 H3504 0.950 . S
C3512 C3513 1.386 . S
C3512 C3514 1.391 . S
C3513 C3512 1.386 . S
C3513 C3517 1.393 . S
C3514 H3506 0.950 . S
C3514 C3512 1.391 . S
C3514 C3515 1.400 . S
C3515 C3514 1.400 . S
C3515 C3516 1.398 . S
C3515 C3521 1.491 . S
C3516 H3507 0.950 . S
C3516 C3515 1.398 . S
C3516 C3517 1.391 . S
C3517 H3505 0.950 . S
C3517 C3513 1.393 . S
C3517 C3516 1.391 . S
C3518 H3508 0.950 . S
C3518 C3519 1.386 . S
C3518 C3520 1.391 . S
C3519 C3518 1.386 . S
C3519 C3523 1.393 . S
C3520 H3509 0.950 . S
C3520 C3518 1.391 . S
C3520 C3521 1.400 . S
C3521 C3515 1.491 . S
C3521 C3520 1.400 . S
C3521 C3522 1.398 . S
C3522 H3510 0.950 . S
C3522 C3521 1.398 . S
C3522 C3523 1.391 . S
C3523 H3511 0.950 . S
C3523 C3519 1.393 . S
C3523 C3522 1.391 . S
H3524 C3532 0.950 . S
H3525 C3537 0.950 . S
H3526 C3534 0.950 . S
H3527 C3536 0.950 . S
H3528 C3538 0.950 . S
H3529 C3540 0.950 . S
H3530 C3542 0.950 . S
H3531 C3543 0.950 . S
C3532 H3524 0.950 . S
C3532 C3533 1.386 . S
C3532 C3534 1.391 . S
C3533 C3532 1.386 . S
C3533 C3537 1.393 . S
C3534 H3526 0.950 . S
C3534 C3532 1.391 . S
C3534 C3535 1.400 . S
C3535 C3534 1.400 . S
C3535 C3536 1.398 . S
C3535 C3541 1.491 . S
C3536 H3527 0.950 . S
C3536 C3535 1.398 . S
C3536 C3537 1.391 . S
C3537 H3525 0.950 . S
C3537 C3533 1.393 . S
C3537 C3536 1.391 . S
C3538 H3528 0.950 . S
C3538 C3539 1.386 . S
C3538 C3540 1.391 . S
C3539 C3538 1.386 . S
C3539 C3543 1.393 . S
C3540 H3529 0.950 . S
C3540 C3538 1.391 . S
C3540 C3541 1.400 . S
C3541 C3535 1.491 . S
C3541 C3540 1.400 . S
C3541 C3542 1.398 . S
C3542 H3530 0.950 . S
C3542 C3541 1.398 . S
C3542 C3543 1.391 . S
C3543 H3531 0.950 . S
C3543 C3539 1.393 . S
C3543 C3542 1.391 . S
H3544 C3552 0.950 . S
H3545 C3557 0.950 . S
H3546 C3554 0.950 . S
H3547 C3556 0.950 . S
H3548 C3558 0.950 . S
H3549 C3560 0.950 . S
H3550 C3562 0.950 . S
H3551 C3563 0.950 . S
C3552 H3544 0.950 . S
C3552 C3553 1.386 . S
C3552 C3554 1.391 . S
C3553 C3552 1.386 . S
C3553 C3557 1.393 . S
C3554 H3546 0.950 . S
C3554 C3552 1.391 . S
C3554 C3555 1.400 . S
C3555 C3554 1.400 . S
C3555 C3556 1.398 . S
C3555 C3561 1.491 . S
C3556 H3547 0.950 . S
C3556 C3555 1.398 . S
C3556 C3557 1.391 . S
C3557 H3545 0.950 . S
C3557 C3553 1.393 . S
C3557 C3556 1.391 . S
C3558 H3548 0.950 . S
C3558 C3559 1.386 . S
C3558 C3560 1.391 . S
C3559 C3558 1.386 . S
C3559 C3563 1.393 . S
C3560 H3549 0.950 . S
C3560 C3558 1.391 . S
C3560 C3561 1.400 . S
C3561 C3555 1.491 . S
C3561 C3560 1.400 . S
C3561 C3562 1.398 . S
C3562 H3550 0.950 . S
C3562 C3561 1.398 . S
C3562 C3563 1.391 . S
C3563 H3551 0.950 . S
C3563 C3559 1.393 . S
C3563 C3562 1.391 . S
H3564 C3572 0.950 . S
H3565 C3577 0.950 . S
H3566 C3574 0.950 . S
H3567 C3576 0.950 . S
H3568 C3578 0.950 . S
H3569 C3580 0.950 . S
H3570 C3582 0.950 . S
H3571 C3583 0.950 . S
C3572 H3564 0.950 . S
C3572 C3573 1.386 . S
C3572 C3574 1.391 . S
C3573 C3572 1.386 . S
C3573 C3577 1.393 . S
C3574 H3566 0.950 . S
C3574 C3572 1.391 . S
C3574 C3575 1.400 . S
C3575 C3574 1.400 . S
C3575 C3576 1.398 . S
C3575 C3581 1.491 . S
C3576 H3567 0.950 . S
C3576 C3575 1.398 . S
C3576 C3577 1.391 . S
C3577 H3565 0.950 . S
C3577 C3573 1.393 . S
C3577 C3576 1.391 . S
C3578 H3568 0.950 . S
C3578 C3579 1.386 . S
C3578 C3580 1.391 . S
C3579 C3578 1.386 . S
C3579 C3583 1.393 . S
C3580 H3569 0.950 . S
C3580 C3578 1.391 . S
C3580 C3581 1.400 . S
C3581 C3575 1.491 . S
C3581 C3580 1.400 . S
C3581 C3582 1.398 . S
C3582 H3570 0.950 . S
C3582 C3581 1.398 . S
C3582 C3583 1.391 . S
C3583 H3571 0.950 . S
C3583 C3579 1.393 . S
C3583 C3582 1.391 . S
H3584 C3592 0.950 . S
H3585 C3597 0.950 . S
H3586 C3594 0.950 . S
H3587 C3596 0.950 . S
H3588 C3598 0.950 . S
H3589 C3600 0.950 . S
H3590 C3602 0.950 . S
H3591 C3603 0.950 . S
C3592 H3584 0.950 . S
C3592 C3593 1.386 . S
C3592 C3594 1.391 . S
C3593 C3592 1.386 . S
C3593 C3597 1.393 . S
C3594 H3586 0.950 . S
C3594 C3592 1.391 . S
C3594 C3595 1.400 . S
C3595 C3594 1.400 . S
C3595 C3596 1.398 . S
C3595 C3601 1.491 . S
C3596 H3587 0.950 . S
C3596 C3595 1.398 . S
C3596 C3597 1.391 . S
C3597 H3585 0.950 . S
C3597 C3593 1.393 . S
C3597 C3596 1.391 . S
C3598 H3588 0.950 . S
C3598 C3599 1.386 . S
C3598 C3600 1.391 . S
C3599 C3598 1.386 . S
C3599 C3603 1.393 . S
C3600 H3589 0.950 . S
C3600 C3598 1.391 . S
C3600 C3601 1.400 . S
C3601 C3595 1.491 . S
C3601 C3600 1.400 . S
C3601 C3602 1.398 . S
C3602 H3590 0.950 . S
C3602 C3601 1.398 . S
C3602 C3603 1.391 . S
C3603 H3591 0.950 . S
C3603 C3599 1.393 . S
C3603 C3602 1.391 . S
H3604 C3612 0.950 . S
H3605 C3617 0.950 . S
H3606 C3614 0.950 . S
H3607 C3616 0.950 . S
H3608 C3618 0.950 . S
H3609 C3620 0.950 . S
H3610 C3622 0.950 . S
H3611 C3623 0.950 . S
C3612 H3604 0.950 . S
C3612 C3613 1.386 . S
C3612 C3614 1.391 . S
C3613 C3612 1.386 . S
C3613 C3617 1.393 . S
C3614 H3606 0.950 . S
C3614 C3612 1.391 . S
C3614 C3615 1.400 . S
C3615 C3614 1.400 . S
C3615 C3616 1.398 . S
C3615 C3621 1.491 . S
C3616 H3607 0.950 . S
C3616 C3615 1.398 . S
C3616 C3617 1.391 . S
C3617 H3605 0.950 . S
C3617 C3613 1.393 . S
C3617 C3616 1.391 . S
C3618 H3608 0.950 . S
C3618 C3619 1.386 . S
C3618 C3620 1.391 . S
C3619 C3618 1.386 . S
C3619 C3623 1.393 . S
C3620 H3609 0.950 . S
C3620 C3618 1.391 . S
C3620 C3621 1.400 . S
C3621 C3615 1.491 . S
C3621 C3620 1.400 . S
C3621 C3622 1.398 . S
C3622 H3610 0.950 . S
C3622 C3621 1.398 . S
C3622 C3623 1.391 . S
C3623 H3611 0.950 . S
C3623 C3619 1.393 . S
C3623 C3622 1.391 . S
C1719 N1164 1.457 . S
C1713 C31 1.492 . S
C1739 C1191 1.575 . S
C1733 C61 1.581 . S
C1753 C73 1.514 . S
C1759 C1205 1.505 . S
C1779 N1223 1.436 . S
C1773 C133 1.469 . S
C1793 C175 1.561 . S
C1799 C1228 1.566 . S
C1813 C211 1.493 . S
C1819 C1168 1.501 . S
C1833 C241 1.427 . S
C1839 N1187 1.395 . S
C1859 N1200 1.440 . S
C1853 C253 1.497 . S
C1879 N1246 1.397 . S
C1873 C1 1.436 . S
C1893 C37 1.519 . S
C1899 N1269 1.490 . S
C1913 C103 1.561 . S
C1919 N1292 1.540 . S
C1939 N1325 1.417 . S
C1933 C139 1.462 . S
C1953 C145 1.538 . S
C1959 C1352 1.532 . S
C1979 C1375 1.560 . S
C1973 C205 1.566 . S
C1993 C247 1.503 . S
C1999 C1398 1.508 . S
C2019 C1412 1.443 . S
C2013 C283 1.445 . S
C2033 C25 1.436 . S
C2039 C1329 1.431 . S
C2053 C169 1.469 . S
C2059 N1371 1.434 . S
C2079 N1394 1.427 . S
C2073 C181 1.477 . S
C2093 C217 1.468 . S
C2099 N1407 1.432 . S
C2119 N1348 1.417 . S
C2113 C277 1.459 . S
C2139 C1274 1.657 . S
C2133 C97 1.662 . S
C2153 C109 1.521 . S
C2159 C1297 1.516 . S
C2179 C1251 1.584 . S
C2173 C67 1.586 . S
C2199 C1444 1.458 . S
C2193 C319 1.452 . S
C2213 C349 1.595 . S
C2219 C1458 1.596 . S
C2233 C361 1.508 . S
C2239 N1486 1.475 . S
C2259 N1499 1.442 . S
C2253 C421 1.469 . S
C2273 C463 1.578 . S
C2279 C1504 1.581 . S
C2293 C499 1.489 . S
C2299 N1440 1.435 . S
C2313 C529 1.520 . S
C2319 N1453 1.495 . S
C2333 C541 1.448 . S
C2339 C1490 1.448 . S
C2359 N1338 1.415 . S
C2353 C289 1.439 . S
C2373 C325 1.514 . S
C2379 N1522 1.455 . S
C2399 N1384 1.457 . S
C2393 C391 1.477 . S
C2413 C427 1.520 . S
C2419 C1559 1.524 . S
C2433 C433 1.570 . S
C2439 C1260 1.571 . S
C2459 C1573 1.589 . S
C2453 C493 1.590 . S
C2473 C535 1.550 . S
C2479 C1306 1.555 . S
C2499 N1591 1.390 . S
C2493 C571 1.440 . S
C2513 C313 1.455 . S
C2519 N1555 1.417 . S
C2539 N1568 1.478 . S
C2533 C457 1.503 . S
C2553 C469 1.479 . S
C2559 N1302 1.430 . S
C2579 C1596 1.443 . S
C2573 C505 1.436 . S
C2593 C565 1.435 . S
C2599 N1256 1.394 . S
C2613 C385 1.558 . S
C2619 C1527 1.559 . S
C2633 C397 1.562 . S
C2639 C1389 1.562 . S
C2653 C355 1.589 . S
C2659 C1343 1.586 . S
C2673 C607 1.522 . S
C2679 C1481 1.527 . S
C2699 C1513 1.535 . S
C2693 C637 1.534 . S
C2713 C649 1.476 . S
C2719 N1430 1.451 . S
C2733 C709 1.446 . S
C2739 N1463 1.424 . S
C2753 C751 1.573 . S
C2759 C1467 1.570 . S
C2773 C787 1.550 . S
C2779 N1476 1.524 . S
C2799 N1509 1.379 . S
C2793 C817 1.404 . S
C2813 C829 1.502 . S
C2819 C1435 1.501 . S
C2839 N1624 1.441 . S
C2833 C577 1.468 . S
C2853 C613 1.463 . S
C2859 N1361 1.429 . S
C2879 N1647 1.393 . S
C2873 C679 1.426 . S
C2893 C715 1.483 . S
C2899 N1417 1.442 . S
C2913 C721 1.543 . S
C2919 C1665 1.545 . S
C2933 C781 1.655 . S
C2939 C1283 1.651 . S
C2959 N1683 1.401 . S
C2953 C823 1.426 . S
C2973 C859 1.488 . S
C2979 C1320 1.493 . S
C2999 C1421 1.483 . S
C2993 C601 1.486 . S
C3019 N1279 1.464 . S
C3013 C745 1.508 . S
C3033 C757 1.572 . S
C3039 C1688 1.573 . S
C3053 C793 1.402 . S
C3059 N1315 1.371 . S
C3079 N1660 1.470 . S
C3073 C853 1.497 . S
C3099 C1366 1.559 . S
C3093 C673 1.555 . S
C3119 C1651 1.562 . S
C3113 C685 1.560 . S
C3139 C1628 1.546 . S
C3133 C643 1.553 . S
C3153 C895 1.412 . S
C3159 N1210 1.372 . S
C3173 C925 1.550 . S
C3179 C1237 1.552 . S
C3199 C1159 1.540 . S
C3193 C937 1.544 . S
C3219 N1177 1.376 . S
C3213 C997 1.410 . S
C3239 C1182 1.582 . S
C3233 C1039 1.580 . S
C3259 C1214 1.500 . S
C3253 C1075 1.510 . S
C3279 N1233 1.478 . S
C3273 C1105 1.519 . S
C3293 C1117 1.514 . S
C3299 N1154 1.469 . S
C3313 C865 1.378 . S
C3319 N1670 1.338 . S
C3339 N1578 1.454 . S
C3333 C901 1.486 . S
C3359 C1697 1.588 . S
C3353 C967 1.578 . S
C3379 C1605 1.391 . S
C3373 C1003 1.395 . S
C3393 C1009 1.571 . S
C3399 C1619 1.572 . S
C3419 C1536 1.584 . S
C3413 C1069 1.582 . S
C3439 C1642 1.646 . S
C3433 C1111 1.644 . S
C3453 C1147 1.492 . S
C3459 N1545 1.451 . S
C3479 N1601 1.345 . S
C3473 C889 1.379 . S
C3499 N1532 1.438 . S
C3493 C1033 1.472 . S
C3519 N1637 1.398 . S
C3513 C1045 1.428 . S
C3533 C1081 1.511 . S
C3539 C1550 1.512 . S
C3553 C1141 1.447 . S
C3559 N1614 1.399 . S
C3573 C961 1.656 . S
C3579 C1582 1.652 . S
C3593 C973 1.443 . S
C3599 N1693 1.416 . S
C3619 C1674 1.532 . S
C3613 C931 1.528 . S
