# Generated by pormake.
# Topology rtl, (3,6)-cn, num edge types: 1
# Building blocks:
#     Node 0, Type 0, BuildingBlock: KAKCAD_clean_linker_0, # of connection points: 3
#     Node 1, Type 0, BuildingBlock: KAKCAD_clean_linker_0, # of connection points: 3
#     Node 2, Type 0, BuildingBlock: KAKCAD_clean_linker_0, # of connection points: 3
#     Node 3, Type 0, BuildingBlock: KAKCAD_clean_linker_0, # of connection points: 3
#     Node 4, Type 1, BuildingBlock: KUMBOL_clean_sbu_1, # of connection points: 6
#     Node 5, Type 1, BuildingBlock: KUMBOL_clean_sbu_1, # of connection points: 6
#     Edge 6, Type (0, 1), BuildingBlock: XUDNAN_clean_linker_2, # of connection points: 2
#     Edge 7, Type (0, 1), BuildingBlock: XUDNAN_clean_linker_2, # of connection points: 2
#     Edge 8, Type (0, 1), BuildingBlock: XUDNAN_clean_linker_2, # of connection points: 2
#     Edge 9, Type (0, 1), BuildingBlock: XUDNAN_clean_linker_2, # of connection points: 2
#     Edge 10, Type (0, 1), BuildingBlock: XUDNAN_clean_linker_2, # of connection points: 2
#     Edge 11, Type (0, 1), BuildingBlock: XUDNAN_clean_linker_2, # of connection points: 2
#     Edge 12, Type (0, 1), BuildingBlock: XUDNAN_clean_linker_2, # of connection points: 2
#     Edge 13, Type (0, 1), BuildingBlock: XUDNAN_clean_linker_2, # of connection points: 2
#     Edge 14, Type (0, 1), BuildingBlock: XUDNAN_clean_linker_2, # of connection points: 2
#     Edge 15, Type (0, 1), BuildingBlock: XUDNAN_clean_linker_2, # of connection points: 2
#     Edge 16, Type (0, 1), BuildingBlock: XUDNAN_clean_linker_2, # of connection points: 2
#     Edge 17, Type (0, 1), BuildingBlock: XUDNAN_clean_linker_2, # of connection points: 2
# Relax obj value: 0.018
# Max RMSD: 0.097
# Mean RMSD: 0.059
data_MOF--net-rtl--node1-KUMBOL_clean_sbu_1--node2-KAKCAD_clean_linker_0--edge1-XUDNAN_clean_linker_2
_symmetry_space_group_name_H-M    P1
_symmetry_Int_Tables_number       1
_symmetry_cell_setting            triclinic
loop_
_symmetry_equiv_pos_as_xyz
'x, y, z'
_cell_length_a     39.925122
_cell_length_b     40.565182
_cell_length_c     35.254912
_cell_angle_alpha  79.933806
_cell_angle_beta   99.525578
_cell_angle_gamma 90.509416
loop_
_atom_site_label
_atom_site_type_symbol
_atom_site_fract_x
_atom_site_fract_y
_atom_site_fract_z
_atom_type_partial_charge
C0 C 0.14123 0.87427 0.8838 0.0
C1 C 0.14189 0.90934 0.87293 0.0
C2 C 0.15997 0.85812 0.91905 0.0
C3 C 0.1793 0.87667 0.94456 0.0
C4 C 0.17943 0.91169 0.93439 0.0
C5 C 0.16115 0.92785 0.89881 0.0
C6 C 0.19962 0.85941 0.98151 0.0
C7 C 0.22212 0.83316 0.98123 0.0
C8 C 0.2415 0.81635 0.01612 0.0
C9 C 0.23707 0.82537 0.05179 0.0
C10 C 0.21458 0.85169 0.05236 0.0
C11 C 0.19633 0.86887 0.01707 0.0
C12 C 0.20917 0.861 0.08966 0.0
C13 C 0.19944 0.83682 0.11927 0.0
C14 C 0.21121 0.8946 0.09465 0.0
C15 C 0.20289 0.90401 0.12826 0.0
C16 C 0.19184 0.88008 0.15717 0.0
C17 C 0.26643 0.78974 0.01472 0.0
C18 C 0.28647 0.79394 0.98502 0.0
C19 C 0.26977 0.75971 0.04202 0.0
C20 C 0.29183 0.73405 0.03882 0.0
C21 C 0.31087 0.73791 0.0082 0.0
C22 C 0.30831 0.76833 0.98174 0.0
C23 C 0.19053 0.84633 0.15261 0.0
H24 H 0.12613 0.85919 0.86518 0.0
H25 H 0.15914 0.8311 0.92656 0.0
H26 H 0.19437 0.92648 0.95354 0.0
H27 H 0.16282 0.95478 0.89126 0.0
H28 H 0.22458 0.82593 0.95362 0.0
H29 H 0.1786 0.88888 0.01741 0.0
H30 H 0.25169 0.8126 0.07898 0.0
H31 H 0.19746 0.81079 0.1159 0.0
H32 H 0.2187 0.91366 0.0722 0.0
H33 H 0.20387 0.93021 0.13095 0.0
H34 H 0.28517 0.81707 0.9641 0.0
H35 H 0.25456 0.75561 0.0651 0.0
H36 H 0.18221 0.82741 0.17461 0.0
H37 H 0.32319 0.77231 0.95833 0.0
H38 H 0.29315 0.71079 0.05953 0.0
C39 C 0.65162 0.67447 0.75849 0.0
C40 C 0.64073 0.64123 0.76463 0.0
C41 C 0.6618 0.68859 0.72315 0.0
C42 C 0.66191 0.66959 0.69333 0.0
C43 C 0.65086 0.63626 0.69969 0.0
C44 C 0.6401 0.6224 0.73473 0.0
C45 C 0.67409 0.68407 0.65612 0.0
C46 C 0.70109 0.70679 0.65598 0.0
C47 C 0.71377 0.71887 0.62138 0.0
C48 C 0.69912 0.70844 0.58657 0.0
C49 C 0.67215 0.68606 0.58594 0.0
C50 C 0.65963 0.67422 0.62067 0.0
C51 C 0.65836 0.67383 0.54929 0.0
C52 C 0.6509 0.69629 0.51369 0.0
C53 C 0.65429 0.63937 0.54938 0.0
C54 C 0.64398 0.62754 0.51442 0.0
C55 C 0.63715 0.64995 0.47873 0.0
C56 C 0.74358 0.74095 0.62159 0.0
C57 C 0.74376 0.77111 0.63609 0.0
C58 C 0.77184 0.73219 0.60618 0.0
C59 C 0.79975 0.7531 0.60525 0.0
C60 C 0.79984 0.78351 0.61917 0.0
C61 C 0.77153 0.79242 0.63449 0.0
C62 C 0.6402 0.68448 0.47878 0.0
H63 H 0.65206 0.68963 0.781 0.0
H64 H 0.66946 0.71446 0.71924 0.0
H65 H 0.65124 0.62046 0.67801 0.0
H66 H 0.63223 0.59656 0.73892 0.0
H67 H 0.71336 0.71401 0.683 0.0
H68 H 0.63837 0.65743 0.61982 0.0
H69 H 0.70927 0.71728 0.56 0.0
H70 H 0.65365 0.72299 0.51283 0.0
H71 H 0.6601 0.62148 0.57635 0.0
H72 H 0.64156 0.60081 0.51526 0.0
H73 H 0.72217 0.77845 0.64794 0.0
H74 H 0.77237 0.70901 0.59496 0.0
H75 H 0.6353 0.70231 0.45168 0.0
H76 H 0.77106 0.81568 0.64553 0.0
H77 H 0.82113 0.74574 0.59304 0.0
C78 C 0.82226 0.08572 0.18304 0.0
C79 C 0.85726 0.08511 0.19742 0.0
C80 C 0.80933 0.10398 0.14616 0.0
C81 C 0.83123 0.12146 0.12271 0.0
C82 C 0.86632 0.12023 0.13671 0.0
C83 C 0.87919 0.10247 0.1739 0.0
C84 C 0.81733 0.14199 0.08439 0.0
C85 C 0.79128 0.1656 0.08175 0.0
C86 C 0.7782 0.18595 0.04592 0.0
C87 C 0.79138 0.18211 0.0123 0.0
C88 C 0.81737 0.15827 0.01433 0.0
C89 C 0.83034 0.1385 0.05067 0.0
C90 C 0.83078 0.1537 0.97858 0.0
C91 C 0.80868 0.15402 0.94303 0.0
C92 C 0.86574 0.14831 0.97989 0.0
C93 C 0.87825 0.14306 0.94661 0.0
C94 C 0.85613 0.14314 0.91113 0.0
C95 C 0.7516 0.21181 0.04444 0.0
C96 C 0.72507 0.20451 0.0661 0.0
C97 C 0.75376 0.24451 0.02374 0.0
C98 C 0.73092 0.26971 0.02632 0.0
C99 C 0.70559 0.26269 0.04977 0.0
C100 C 0.7024 0.22965 0.06879 0.0
C101 C 0.8212 0.14882 0.90972 0.0
H102 H 0.80482 0.07268 0.2007 0.0
H103 H 0.78218 0.10449 0.13592 0.0
H104 H 0.88368 0.13369 0.11926 0.0
H105 H 0.90631 0.10221 0.18429 0.0
H106 H 0.78198 0.16888 0.10809 0.0
H107 H 0.85001 0.11973 0.05269 0.0
H108 H 0.78146 0.19775 0.98459 0.0
H109 H 0.78158 0.15775 0.94106 0.0
H110 H 0.88353 0.14826 0.00666 0.0
H111 H 0.90524 0.13844 0.94888 0.0
H112 H 0.72223 0.17942 0.08168 0.0
H113 H 0.77404 0.251 0.007 0.0
H114 H 0.80348 0.14946 0.88278 0.0
H115 H 0.6827 0.22335 0.08644 0.0
H116 H 0.73407 0.29499 0.01148 0.0
C117 C 0.34752 0.35699 0.31328 0.0
C118 C 0.38317 0.3581 0.31839 0.0
C119 C 0.33093 0.34762 0.34546 0.0
C120 C 0.34961 0.33955 0.38349 0.0
C121 C 0.38521 0.34125 0.38859 0.0
C122 C 0.40178 0.35031 0.35645 0.0
C123 C 0.3322 0.32885 0.41774 0.0
C124 C 0.30584 0.30559 0.4159 0.0
C125 C 0.29017 0.29436 0.4486 0.0
C126 C 0.30058 0.30729 0.48302 0.0
C127 C 0.32657 0.33076 0.4854 0.0
C128 C 0.34247 0.3412 0.45272 0.0
C129 C 0.33695 0.34397 0.52231 0.0
C130 C 0.31219 0.35339 0.54264 0.0
C131 C 0.37143 0.34599 0.53831 0.0
C132 C 0.38086 0.35623 0.57449 0.0
C133 C 0.35601 0.36476 0.59535 0.0
C134 C 0.26334 0.26868 0.44742 0.0
C135 C 0.2369 0.27082 0.41532 0.0
C136 C 0.2637 0.24211 0.479 0.0
C137 C 0.23803 0.21848 0.47875 0.0
C138 C 0.21123 0.22084 0.44696 0.0
C139 C 0.21109 0.24722 0.41513 0.0
C140 C 0.32158 0.36371 0.57861 0.0
H141 H 0.33249 0.36271 0.28432 0.0
H142 H 0.30345 0.34683 0.34061 0.0
H143 H 0.40037 0.33495 0.41743 0.0
H144 H 0.42925 0.3513 0.36144 0.0
H145 H 0.29837 0.29527 0.38947 0.0
H146 H 0.36235 0.35953 0.45425 0.0
H147 H 0.28846 0.29887 0.50825 0.0
H148 H 0.28543 0.35272 0.53073 0.0
H149 H 0.39109 0.33866 0.52346 0.0
H150 H 0.4076 0.35653 0.58662 0.0
H151 H 0.23576 0.29118 0.39072 0.0
H152 H 0.28406 0.2394 0.50387 0.0
H153 H 0.30176 0.37091 0.59331 0.0
H154 H 0.19067 0.25003 0.39034 0.0
H155 H 0.23943 0.19812 0.50337 0.0
C156 C 0.95323 0.10211 0.4944 0.0
C157 C 0.89769 0.08978 0.46075 0.0
C158 C 0.92765 0.07949 0.48737 0.0
C159 C 0.89388 0.12315 0.44124 0.0
C160 C 0.94948 0.13566 0.47497 0.0
C161 C 0.91973 0.14602 0.44827 0.0
N162 N 0.98172 0.09135 0.52034 0.0
C163 C 0.00707 0.11297 0.52899 0.0
C164 C 0.97575 0.15781 0.48303 0.0
C165 C 0.0046 0.14643 0.5103 0.0
Gd166 Gd 0.03848 0.9631 0.51388 0.0
Gd167 Gd 0.98421 0.03448 0.5486 0.0
N168 N 0.93243 0.04718 0.50603 0.0
C169 C 0.8725 0.06616 0.4545 0.0
C170 C 0.90761 0.02429 0.50094 0.0
C171 C 0.87742 0.03332 0.47486 0.0
H172 H 0.91152 0.99897 0.51627 0.0
H173 H 0.85803 0.01493 0.47039 0.0
H174 H 0.10325 0.01603 0.53337 0.0
H175 H 0.02898 0.10445 0.55081 0.0
H176 H 0.15966 0.01368 0.57336 0.0
H177 H 0.84916 0.07305 0.43417 0.0
H178 H 0.87108 0.13151 0.42057 0.0
H179 H 0.00917 0.88511 0.52885 0.0
H180 H 0.97386 0.18378 0.46865 0.0
H181 H 0.02485 0.16345 0.5171 0.0
H182 H 0.17644 0.8982 0.63275 0.0
H183 H 0.91642 0.17167 0.43297 0.0
H184 H 0.08612 0.82266 0.60686 0.0
H185 H 0.02892 0.82953 0.56645 0.0
N186 N 0.05428 0.90956 0.54897 0.0
C187 C 0.08583 0.9064 0.57087 0.0
C188 C 0.03397 0.88246 0.54696 0.0
C189 C 0.07746 0.84717 0.59074 0.0
C190 C 0.04515 0.85093 0.56799 0.0
C191 C 0.09831 0.875 0.59227 0.0
H192 H 0.14115 0.84837 0.6309 0.0
N193 N 0.09266 0.96489 0.5519 0.0
C194 C 0.10562 0.93474 0.57225 0.0
C195 C 0.15782 0.96091 0.59559 0.0
C196 C 0.13851 0.93204 0.59474 0.0
C197 C 0.11207 0.99276 0.5514 0.0
C198 C 0.1446 0.99134 0.57365 0.0
O199 O 0.9751 0.03078 0.48439 0.0
O200 O 0.98552 0.9755 0.48069 0.0
O201 O 0.06961 0.97048 0.46813 0.0
O202 O 0.04032 0.92561 0.47726 0.0
O203 O 0.96658 0.98094 0.56317 0.0
O204 O 0.98774 0.94425 0.52756 0.0
O205 O 0.0416 0.96106 0.57888 0.0
O206 O 0.03636 0.0167 0.5784 0.0
O207 O 0.96142 0.01872 0.60043 0.0
O208 O 0.97828 0.0696 0.58723 0.0
O209 O 0.04311 0.01816 0.48864 0.0
O210 O 0.03801 0.04496 0.53954 0.0
C211 C 0.97201 0.00527 0.46572 0.0
C212 C 0.96829 0.95161 0.55203 0.0
C213 C 0.04925 0.94608 0.41313 0.0
C214 C 0.06349 0.94247 0.34933 0.0
C215 C 0.00576 0.95663 0.35534 0.0
C216 C 0.01552 0.95427 0.39563 0.0
C217 C 0.02953 0.95062 0.33226 0.0
C218 C 0.07319 0.94043 0.38991 0.0
C219 C 0.05978 0.94305 0.45554 0.0
C220 C 0.15121 0.9007 0.61545 0.0
C221 C 0.1311 0.87231 0.6144 0.0
H222 H 0.18314 0.95987 0.61259 0.0
C223 C 0.04201 0.9862 0.59773 0.0
C224 C 0.04714 0.04476 0.50543 0.0
C225 C 0.93094 0.06089 0.6194 0.0
C226 C 0.90143 0.08305 0.66527 0.0
C227 C 0.87064 0.07425 0.60235 0.0
C228 C 0.90041 0.06252 0.59291 0.0
C229 C 0.87106 0.08444 0.63826 0.0
C230 C 0.93139 0.07121 0.65547 0.0
C231 C 0.96244 0.04844 0.60985 0.0
H232 H 0.97968 0.96302 0.34201 0.0
H233 H 0.99681 0.95852 0.4132 0.0
H234 H 0.02147 0.95265 0.30104 0.0
H235 H 0.0992 0.93382 0.40355 0.0
H236 H 0.84717 0.07552 0.58172 0.0
H237 H 0.89953 0.05468 0.56504 0.0
H238 H 0.84768 0.09386 0.64463 0.0
H239 H 0.95499 0.06959 0.67604 0.0
C240 C 0.61244 0.54894 0.08279 0.0
C241 C 0.60815 0.60734 0.05145 0.0
C242 C 0.5927 0.57696 0.06432 0.0
C243 C 0.64374 0.60887 0.05658 0.0
C244 C 0.64818 0.55058 0.08879 0.0
C245 C 0.6637 0.58055 0.07515 0.0
N246 N 0.5967 0.52035 0.09568 0.0
C247 C 0.61513 0.49316 0.11696 0.0
C248 C 0.66726 0.52219 0.10884 0.0
C249 C 0.65063 0.49347 0.12335 0.0
Gd250 Gd 0.47903 0.475 1.0032 0.0
Gd251 Gd 0.53713 0.52215 0.08256 0.0
N252 N 0.55838 0.5745 0.05894 0.0
C253 C 0.58735 0.63535 0.03411 0.0
C254 C 0.53796 0.60208 0.04366 0.0
C255 C 0.5521 0.63278 0.03059 0.0
H256 H 0.51075 0.60024 0.04101 0.0
H257 H 0.53581 0.65443 0.01787 0.0
H258 H 0.52327 0.40335 0.00573 0.0
H259 H 0.60252 0.47136 0.12967 0.0
H260 H 0.52304 0.34415 0.03668 0.0
H261 H 0.59824 0.65915 0.02389 0.0
H262 H 0.65607 0.63192 0.04664 0.0
H263 H 0.40512 0.50844 0.01084 0.0
H264 H 0.69478 0.52243 0.11402 0.0
H265 H 0.66514 0.47169 0.13983 0.0
H266 H 0.42088 0.33453 0.09244 0.0
H267 H 0.69113 0.58222 0.07929 0.0
H268 H 0.34803 0.43176 0.0699 0.0
H269 H 0.35294 0.4905 0.03768 0.0
N270 N 0.4293 0.46054 0.02878 0.0
C271 C 0.42646 0.42778 0.04457 0.0
C272 C 0.40301 0.48281 0.02501 0.0
C273 C 0.37086 0.43949 0.0582 0.0
C274 C 0.37355 0.47271 0.04007 0.0
C275 C 0.39747 0.41654 0.06061 0.0
H276 H 0.37401 0.37385 0.09125 0.0
N277 N 0.48004 0.41712 0.02808 0.0
C278 C 0.45294 0.40564 0.04505 0.0
C279 C 0.47714 0.34954 0.05988 0.0
C280 C 0.45097 0.3716 0.06182 0.0
C281 C 0.50403 0.39514 0.02321 0.0
C282 C 0.50347 0.36127 0.03988 0.0
O283 O 0.53927 0.54215 0.01885 0.0
O284 O 0.52547 0.49978 0.98238 0.0
O285 O 0.46824 0.44758 0.95456 0.0
O286 O 0.44187 0.49426 0.95235 0.0
O287 O 0.48325 0.54089 0.05889 0.0
O288 O 0.47063 0.53059 0.99579 0.0
O289 O 0.46872 0.47802 0.06427 0.0
O290 O 0.52036 0.47018 0.10238 0.0
O291 O 0.50518 0.53748 0.12079 0.0
O292 O 0.55941 0.53119 0.14033 0.0
O293 O 0.53488 0.45959 0.01601 0.0
O294 O 0.55304 0.46926 0.0792 0.0
C295 C 0.54153 0.52737 0.98891 0.0
C296 C 0.46688 0.54815 0.02281 0.0
C297 C 0.44943 0.4803 0.89187 0.0
C298 C 0.43795 0.46808 0.82531 0.0
C299 C 0.45914 0.52248 0.83711 0.0
C300 C 0.45946 0.5126 0.8771 0.0
C301 C 0.44841 0.50054 0.81137 0.0
C302 C 0.43902 0.45806 0.86593 0.0
C303 C 0.44689 0.47032 0.9336 0.0
C304 C 0.42266 0.36052 0.07911 0.0
C305 C 0.39592 0.3829 0.07836 0.0
H306 H 0.4766 0.32323 0.07247 0.0
C307 C 0.48831 0.46275 0.09589 0.0
C308 C 0.55601 0.45414 0.04958 0.0
C309 C 0.53188 0.57363 0.16211 0.0
C310 C 0.55085 0.60516 0.21468 0.0
C311 C 0.5208 0.63351 0.15173 0.0
C312 C 0.518 0.60321 0.13799 0.0
C313 C 0.53726 0.63461 0.18964 0.0
C314 C 0.5479 0.57467 0.20044 0.0
C315 C 0.53081 0.54166 0.14757 0.0
H316 H 0.46637 0.54755 0.82579 0.0
H317 H 0.46673 0.53047 0.89633 0.0
H318 H 0.44723 0.50956 0.7804 0.0
H319 H 0.4312 0.43318 0.87747 0.0
H320 H 0.51037 0.6563 0.13282 0.0
H321 H 0.5051 0.60298 0.10856 0.0
H322 H 0.53967 0.65864 0.19908 0.0
H323 H 0.5578 0.55156 0.21914 0.0
H324 H 0.18062 0.19215 0.50889 0.0
H325 H 0.17975 0.19233 0.38553 0.0
H326 H 0.13522 0.1497 0.38624 0.0
H327 H 0.17191 0.10419 0.53596 0.0
H328 H 0.1452 0.10758 0.57167 0.0
H329 H 0.17535 0.13966 0.56077 0.0
H330 H 0.12675 0.18445 0.54437 0.0
H331 H 0.09634 0.15243 0.55483 0.0
H332 H 0.09037 0.17981 0.50802 0.0
H333 H 0.09272 0.10498 0.40116 0.0
H334 H 0.05576 0.06142 0.42933 0.0
H335 H 0.08584 0.08934 0.54325 0.0
C336 C 0.17117 0.18322 0.48199 0.0
C337 C 0.18372 0.19576 0.44709 0.0
C338 C 0.17024 0.18358 0.41248 0.0
C339 C 0.14504 0.15923 0.41264 0.0
C340 C 0.13347 0.14731 0.4476 0.0
C341 C 0.14609 0.1589 0.48164 0.0
C342 C 0.13018 0.14118 0.51561 0.0
C343 C 0.15728 0.12202 0.5479 0.0
C344 C 0.1097 0.16595 0.53165 0.0
C345 C 0.10703 0.11744 0.4955 0.0
C346 C 0.1091 0.12152 0.45621 0.0
C347 C 0.09074 0.10174 0.43183 0.0
C348 C 0.06991 0.07702 0.44811 0.0
C349 C 0.06762 0.07228 0.48836 0.0
C350 C 0.08639 0.09291 0.51221 0.0
H351 H 0.35527 0.69654 0.06409 0.0
H352 H 0.3149 0.71623 0.94002 0.0
H353 H 0.35069 0.67019 0.93017 0.0
H354 H 0.44116 0.67636 0.05459 0.0
H355 H 0.44719 0.64378 0.09712 0.0
H356 H 0.41858 0.6785 0.09439 0.0
H357 H 0.37006 0.63698 0.10649 0.0
H358 H 0.39869 0.60229 0.10912 0.0
H359 H 0.35946 0.60667 0.07483 0.0
H360 H 0.39016 0.62171 0.93374 0.0
H361 H 0.43143 0.57439 0.95048 0.0
H362 H 0.44628 0.58628 0.07223 0.0
C363 C 0.35386 0.69101 0.03491 0.0
C364 C 0.3324 0.71003 1.00278 0.0
C365 C 0.3315 0.70227 0.96496 0.0
C366 C 0.35159 0.67607 0.9591 0.0
C367 C 0.37255 0.65792 0.99132 0.0
C368 C 0.37393 0.66505 0.02848 0.0
C369 C 0.3988 0.64172 0.05804 0.0
C370 C 0.42817 0.66128 0.07714 0.0
C371 C 0.38065 0.62067 0.08894 0.0
C372 C 0.41096 0.6203 0.03168 0.0
C373 C 0.3955 0.63004 0.99333 0.0
C374 C 0.4025 0.61386 0.96368 0.0
C375 C 0.42596 0.58698 0.9735 0.0
C376 C 0.44219 0.57659 0.01265 0.0
C377 C 0.43447 0.59361 0.042 0.0
H378 H 0.80014 0.85061 0.58848 0.0
H379 H 0.86648 0.7659 0.64485 0.0
H380 H 0.9166 0.80118 0.63769 0.0
H381 H 0.85024 0.88197 0.51726 0.0
H382 H 0.84202 0.92558 0.51735 0.0
H383 H 0.81119 0.89483 0.53033 0.0
H384 H 0.81268 0.91486 0.59646 0.0
H385 H 0.84347 0.94578 0.58357 0.0
H386 H 0.85273 0.91595 0.62845 0.0
H387 H 0.9594 0.84454 0.62192 0.0
H388 H 0.99218 0.89298 0.59657 0.0
H389 H 0.89852 0.94901 0.54792 0.0
C390 C 0.82523 0.83978 0.60001 0.0
C391 C 0.82954 0.80562 0.61746 0.0
C392 C 0.86273 0.79201 0.63138 0.0
C393 C 0.89129 0.81188 0.62759 0.0
C394 C 0.88625 0.8453 0.60968 0.0
C395 C 0.8541 0.85922 0.59608 0.0
C396 C 0.85591 0.89523 0.57568 0.0
C397 C 0.83884 0.89964 0.53261 0.0
C398 C 0.84027 0.91938 0.59734 0.0
C399 C 0.89406 0.89913 0.57939 0.0
C400 C 0.91104 0.87011 0.59948 0.0
C401 C 0.94635 0.8673 0.60594 0.0
C402 C 0.96475 0.8947 0.59095 0.0
C403 C 0.94792 0.92425 0.56927 0.0
C404 C 0.91214 0.92674 0.56415 0.0
H405 H 0.67194 0.31447 0.99597 0.0
H406 H 0.69124 0.27267 0.11978 0.0
H407 H 0.65627 0.31781 0.13289 0.0
H408 H 0.67404 0.4016 0.00628 0.0
H409 H 0.63993 0.41452 0.96612 0.0
H410 H 0.66669 0.37901 0.96604 0.0
H411 H 0.61361 0.34192 0.95787 0.0
H412 H 0.58676 0.37741 0.95776 0.0
H413 H 0.58463 0.33942 0.9924 0.0
H414 H 0.61945 0.36672 0.13303 0.0
H415 H 0.58104 0.41594 0.11995 0.0
H416 H 0.58534 0.42728 0.99608 0.0
C417 C 0.66888 0.31497 0.02581 0.0
C418 C 0.68415 0.28996 0.05686 0.0
C419 C 0.67936 0.29127 0.0955 0.0
C420 C 0.65974 0.31693 0.10329 0.0
C421 C 0.64498 0.34111 0.07212 0.0
C422 C 0.6491 0.34037 0.03412 0.0
C423 C 0.62976 0.3692 0.00601 0.0
C424 C 0.65406 0.39246 0.98487 0.0
C425 C 0.60205 0.3562 0.97679 0.0
C426 C 0.61435 0.38626 0.03424 0.0
C427 C 0.62357 0.36961 0.07221 0.0
C428 C 0.61221 0.38013 0.10346 0.0
C429 C 0.59059 0.40831 0.09573 0.0
C430 C 0.5805 0.4257 0.05704 0.0
C431 C 0.59275 0.41455 0.02596 0.0
H432 H 0.13187 0.8648 0.18305 0.0
H433 H 0.22419 0.92025 0.20595 0.0
H434 H 0.20226 0.94088 0.25945 0.0
H435 H 0.07593 0.92713 0.19702 0.0
H436 H 0.04758 0.89804 0.21954 0.0
H437 H 0.07159 0.88564 0.18522 0.0
H438 H 0.09699 0.83471 0.23681 0.0
H439 H 0.07287 0.84683 0.27123 0.0
H440 H 0.11833 0.84132 0.28402 0.0
H441 H 0.16951 0.95635 0.30937 0.0
H442 H 0.12764 0.96708 0.35052 0.0
H443 H 0.05615 0.90282 0.29325 0.0
C444 C 0.1477 0.88079 0.19985 0.0
C445 C 0.17984 0.89072 0.19079 0.0
C446 C 0.19951 0.91236 0.21262 0.0
C447 C 0.18731 0.92409 0.24304 0.0
C448 C 0.15531 0.91412 0.25096 0.0
C449 C 0.13574 0.89303 0.22992 0.0
C450 C 0.1015 0.88748 0.24285 0.0
C451 C 0.07245 0.90035 0.20915 0.0
C452 C 0.09719 0.85038 0.25974 0.0
C453 C 0.10477 0.90888 0.27432 0.0
C454 C 0.1361 0.9238 0.27883 0.0
C455 C 0.14493 0.94474 0.30616 0.0
C456 C 0.12107 0.95061 0.32944 0.0
C457 C 0.0887 0.93584 0.32495 0.0
C458 C 0.08059 0.9147 0.29702 0.0
H459 H 0.583 0.60668 0.77771 0.0
H460 H 0.67725 0.64101 0.83719 0.0
H461 H 0.66277 0.6141 0.90081 0.0
H462 H 0.53378 0.62155 0.84955 0.0
H463 H 0.50716 0.58579 0.84709 0.0
H464 H 0.52411 0.60541 0.80455 0.0
H465 H 0.55232 0.55044 0.79818 0.0
H466 H 0.53476 0.52894 0.83936 0.0
H467 H 0.57987 0.527 0.83964 0.0
H468 H 0.63899 0.58208 0.95757 0.0
H469 H 0.60551 0.55049 1.004 0.0
H470 H 0.52531 0.53926 0.90877 0.0
C471 C 0.60061 0.60833 0.80418 0.0
C472 C 0.63132 0.62577 0.80266 0.0
C473 C 0.65353 0.62791 0.83784 0.0
C474 C 0.64561 0.61256 0.87402 0.0
C475 C 0.61522 0.59545 0.87453 0.0
C476 C 0.59288 0.59352 0.84062 0.0
C477 C 0.56118 0.57492 0.84955 0.0
C478 C 0.52969 0.59829 0.83689 0.0
C479 C 0.55678 0.54346 0.83055 0.0
C480 C 0.56962 0.56587 0.89367 0.0
C481 C 0.60088 0.57808 0.90743 0.0
C482 C 0.61423 0.57294 0.94711 0.0
C483 C 0.59483 0.55542 0.97341 0.0
C484 C 0.56233 0.54362 0.96019 0.0
C485 C 0.54992 0.54831 0.9197 0.0
H486 H 0.89946 0.10903 0.25529 0.0
H487 H 0.84516 0.02053 0.22908 0.0
H488 H 0.86797 0.99017 0.29553 0.0
H489 H 0.97438 0.06716 0.31262 0.0
H490 H 0.97987 0.09543 0.34724 0.0
H491 H 0.95927 0.10998 0.29775 0.0
H492 H 0.90634 0.12908 0.32319 0.0
H493 H 0.92739 0.11484 0.37256 0.0
H494 H 0.88606 0.09937 0.35601 0.0
H495 H 0.89862 0.96903 0.36421 0.0
H496 H 0.93267 0.95968 0.43079 0.0
H497 H 0.96455 0.06292 0.41236 0.0
C498 C 0.89252 0.08321 0.26356 0.0
C499 C 0.87077 0.06695 0.23715 0.0
C500 C 0.86176 0.03336 0.24906 0.0
C501 C 0.87463 0.01595 0.28662 0.0
C502 C 0.89607 0.0327 0.31199 0.0
C503 C 0.9047 0.06568 0.30107 0.0
C504 C 0.92781 0.0781 0.33395 0.0
C505 C 0.96238 0.08825 0.32218 0.0
C506 C 0.91086 0.10706 0.3472 0.0
C507 C 0.93112 0.04689 0.36493 0.0
C508 C 0.91279 0.02089 0.35173 0.0
C509 C 0.9129 0.98928 0.37492 0.0
C510 C 0.93233 0.98416 0.41256 0.0
C511 C 0.95117 0.01056 0.42649 0.0
C512 C 0.9502 0.04234 0.40245 0.0
H513 H 0.40905 0.40401 0.6206 0.0
H514 H 0.32476 0.34674 0.65931 0.0
H515 H 0.33856 0.36433 0.72347 0.0
H516 H 0.4668 0.38588 0.71481 0.0
H517 H 0.48447 0.42715 0.70903 0.0
H518 H 0.46898 0.40876 0.66663 0.0
H519 H 0.42919 0.46042 0.63829 0.0
H520 H 0.44446 0.47889 0.68059 0.0
H521 H 0.39961 0.4727 0.66701 0.0
H522 H 0.35901 0.39103 0.78182 0.0
H523 H 0.38492 0.42461 0.83037 0.0
H524 H 0.45835 0.46173 0.75565 0.0
C525 C 0.39383 0.39468 0.64276 0.0
C526 C 0.36564 0.37415 0.63468 0.0
C527 C 0.3461 0.36297 0.66443 0.0
C528 C 0.35391 0.37258 0.70114 0.0
C529 C 0.38156 0.39315 0.70793 0.0
C530 C 0.40137 0.40391 0.67969 0.0
C531 C 0.42903 0.42675 0.69415 0.0
C532 C 0.46442 0.4112 0.69629 0.0
C533 C 0.42533 0.46176 0.66848 0.0
C534 C 0.4212 0.42766 0.73459 0.0
C535 C 0.39383 0.40798 0.74202 0.0
C536 C 0.38083 0.40611 0.77662 0.0
C537 C 0.39596 0.42515 0.80422 0.0
C538 C 0.42397 0.44578 0.79724 0.0
C539 C 0.43689 0.44649 0.76202 0.0
H540 H 0.58594 0.6725 0.41767 0.0
H541 H 0.66842 0.59909 0.45546 0.0
H542 H 0.65509 0.57916 0.39239 0.0
H543 H 0.52797 0.6198 0.36596 0.0
H544 H 0.51108 0.65374 0.32751 0.0
H545 H 0.52699 0.6619 0.37578 0.0
H546 H 0.56795 0.70565 0.34701 0.0
H547 H 0.55228 0.6975 0.29869 0.0
H548 H 0.59709 0.69337 0.31778 0.0
H549 H 0.63458 0.56927 0.32396 0.0
H550 H 0.60645 0.56782 0.25661 0.0
H551 H 0.53505 0.64545 0.26503 0.0
C552 C 0.60117 0.65224 0.41261 0.0
C553 C 0.6282 0.6373 0.4414 0.0
C554 C 0.64738 0.61064 0.43392 0.0
C555 C 0.64012 0.59928 0.39814 0.0
C556 C 0.61342 0.61467 0.37029 0.0
C557 C 0.59404 0.64036 0.37723 0.0
C558 C 0.56658 0.65242 0.34254 0.0
C559 C 0.53106 0.6466 0.35362 0.0
C560 C 0.57127 0.68943 0.32551 0.0
C561 C 0.57374 0.62969 0.31488 0.0
C562 C 0.60095 0.60824 0.33135 0.0
C563 C 0.61293 0.58564 0.31093 0.0
C564 C 0.59655 0.58485 0.27271 0.0
C565 C 0.5682 0.60628 0.2553 0.0
C566 C 0.55679 0.62891 0.27702 0.0
H567 H 0.82757 0.10583 0.85645 0.0
H568 H 0.9147 0.16688 0.88573 0.0
H569 H 0.93681 0.15668 0.82732 0.0
H570 H 0.87157 0.04461 0.81917 0.0
H571 H 0.83689 0.04048 0.78058 0.0
H572 H 0.82845 0.05182 0.82532 0.0
H573 H 0.79548 0.10506 0.78602 0.0
H574 H 0.80376 0.09387 0.74117 0.0
H575 H 0.81605 0.13422 0.75295 0.0
H576 H 0.94887 0.1406 0.76481 0.0
H577 H 0.94932 0.12076 0.70248 0.0
H578 H 0.85406 0.07069 0.71408 0.0
C579 C 0.85118 0.11729 0.85049 0.0
C580 C 0.86941 0.13713 0.87582 0.0
C581 C 0.90049 0.15121 0.86714 0.0
C582 C 0.91318 0.14569 0.83391 0.0
C583 C 0.89453 0.12605 0.8096 0.0
C584 C 0.86418 0.1121 0.81746 0.0
C585 C 0.8488 0.09235 0.7864 0.0
C586 C 0.84629 0.05511 0.80393 0.0
C587 C 0.81396 0.10728 0.76539 0.0
C588 C 0.87508 0.09762 0.75963 0.0
C589 C 0.90136 0.11696 0.7736 0.0
C590 C 0.92848 0.12532 0.75367 0.0
C591 C 0.92861 0.11378 0.71841 0.0
C592 C 0.90174 0.09417 0.70335 0.0
C593 C 0.87479 0.08593 0.72454 0.0
H594 H 0.36809 0.40929 0.25511 0.0
H595 H 0.43909 0.3266 0.30483 0.0
H596 H 0.47092 0.34207 0.25024 0.0
H597 H 0.36813 0.40477 0.15114 0.0
H598 H 0.36573 0.44977 0.13725 0.0
H599 H 0.34735 0.42964 0.17842 0.0
H600 H 0.38367 0.46749 0.22105 0.0
H601 H 0.40259 0.48648 0.17981 0.0
H602 H 0.42921 0.46687 0.22429 0.0
H603 H 0.49757 0.3687 0.19366 0.0
H604 H 0.51744 0.40514 0.13827 0.0
H605 H 0.42866 0.46982 0.12322 0.0
C606 C 0.38997 0.39409 0.25408 0.0
C607 C 0.40112 0.36672 0.28428 0.0
C608 C 0.43028 0.34786 0.28228 0.0
C609 C 0.44837 0.3563 0.25122 0.0
C610 C 0.43697 0.38362 0.22221 0.0
C611 C 0.40843 0.40225 0.22325 0.0
C612 C 0.40286 0.43161 0.18952 0.0
C613 C 0.36901 0.42873 0.16246 0.0
C614 C 0.40471 0.46508 0.20458 0.0
C615 C 0.43291 0.42674 0.16962 0.0
C616 C 0.45219 0.39882 0.189 0.0
C617 C 0.48247 0.39035 0.17794 0.0
C618 C 0.49363 0.41121 0.14664 0.0
C619 C 0.47441 0.43996 0.12653 0.0
C620 C 0.44343 0.44756 0.13777 0.0
H621 H 0.13267 0.88629 0.80311 0.0
H622 H 0.10915 0.9711 0.85496 0.0
H623 H 0.08091 1.00002 0.79026 0.0
H624 H 0.14923 0.93171 0.71309 0.0
H625 H 0.12947 0.90141 0.68526 0.0
H626 H 0.14805 0.88828 0.7356 0.0
H627 H 0.09019 0.8627 0.7487 0.0
H628 H 0.07199 0.87659 0.69818 0.0
H629 H 0.05239 0.88896 0.7362 0.0
H630 H 0.0572 0.02057 0.71903 0.0
H631 H 0.03751 0.02988 0.64767 0.0
H632 H 0.07335 0.9299 0.64413 0.0
C633 C 0.12107 0.91066 0.80125 0.0
C634 C 0.12337 0.92636 0.83436 0.0
C635 C 0.10838 0.95868 0.83004 0.0
C636 C 0.09201 0.97524 0.79343 0.0
C637 C 0.09046 0.95903 0.76148 0.0
C638 C 0.10425 0.92731 0.76516 0.0
C639 C 0.09925 0.91532 0.72637 0.0
C640 C 0.13359 0.90884 0.71442 0.0
C641 C 0.07713 0.88404 0.72745 0.0
C642 C 0.08076 0.9454 0.70011 0.0
C643 C 0.07603 0.97043 0.72085 0.0
C644 C 0.06053 1.00104 0.70256 0.0
C645 C 0.04952 0.00612 0.66203 0.0
C646 C 0.05384 0.98062 0.64035 0.0
C647 C 0.06953 0.94985 0.65983 0.0
loop_
_geom_bond_atom_site_label_1
_geom_bond_atom_site_label_2
_geom_bond_distance
_geom_bond_site_symmetry_2
_ccdc_geom_bond_type
C0 C1 1.386 . S
C0 C2 1.397 . S
C0 H24 0.931 . S
C1 C0 1.386 . S
C1 C5 1.397 . S
C2 C0 1.397 . S
C2 C3 1.384 . S
C2 H25 0.930 . S
C3 C2 1.384 . S
C3 C4 1.377 . S
C3 C6 1.481 . S
C4 C3 1.377 . S
C4 C5 1.389 . S
C4 H26 0.929 . S
C5 C1 1.397 . S
C5 C4 1.389 . S
C5 H27 0.931 . S
C6 C3 1.481 . S
C6 C7 1.387 . S
C6 C11 1.390 1_556 S
C7 C6 1.387 . S
C7 C8 1.401 1_556 S
C7 H28 0.930 . S
C8 C7 1.401 1_554 S
C8 C9 1.376 . S
C8 C17 1.511 . S
C9 C8 1.376 . S
C9 C10 1.392 . S
C9 H30 0.931 . S
C10 C9 1.392 . S
C10 C11 1.361 . S
C10 C12 1.500 . S
C11 C6 1.390 1_554 S
C11 C10 1.361 . S
C11 H29 0.931 . S
C12 C10 1.500 . S
C12 C13 1.371 . S
C12 C14 1.365 . S
C13 C12 1.371 . S
C13 C23 1.386 . S
C13 H31 0.931 . S
C14 C12 1.365 . S
C14 C15 1.409 . S
C14 H32 0.929 . S
C15 C14 1.409 . S
C15 C16 1.380 . S
C15 H33 0.930 . S
C16 C15 1.380 . S
C16 C23 1.357 . S
C17 C8 1.511 . S
C17 C18 1.341 1_554 S
C17 C19 1.371 . S
C18 C17 1.341 1_556 S
C18 C22 1.394 1_556 S
C18 H34 0.930 . S
C19 C17 1.371 . S
C19 C20 1.392 . S
C19 H35 0.931 . S
C20 C19 1.392 . S
C20 C21 1.331 . S
C20 H38 0.932 . S
C21 C20 1.331 . S
C21 C22 1.336 . S
C22 C18 1.394 1_554 S
C22 C21 1.336 . S
C22 H37 0.929 1_554 S
C23 C13 1.386 . S
C23 C16 1.357 . S
C23 H36 0.928 . S
H24 C0 0.931 . S
H25 C2 0.930 . S
H26 C4 0.929 . S
H27 C5 0.931 . S
H28 C7 0.930 . S
H29 C11 0.931 . S
H30 C9 0.931 . S
H31 C13 0.931 . S
H32 C14 0.929 . S
H33 C15 0.930 . S
H34 C18 0.930 . S
H35 C19 0.931 . S
H36 C23 0.928 . S
H37 C22 0.929 1_556 S
H38 C20 0.932 . S
C39 C40 1.386 . S
C39 C41 1.397 . S
C39 H63 0.931 . S
C40 C39 1.386 . S
C40 C44 1.397 . S
C41 C39 1.397 . S
C41 C42 1.384 . S
C41 H64 0.930 . S
C42 C41 1.384 . S
C42 C43 1.377 . S
C42 C45 1.481 . S
C43 C42 1.377 . S
C43 C44 1.389 . S
C43 H65 0.929 . S
C44 C40 1.397 . S
C44 C43 1.389 . S
C44 H66 0.931 . S
C45 C42 1.481 . S
C45 C46 1.387 . S
C45 C50 1.390 . S
C46 C45 1.387 . S
C46 C47 1.401 . S
C46 H67 0.930 . S
C47 C46 1.401 . S
C47 C48 1.376 . S
C47 C56 1.511 . S
C48 C47 1.376 . S
C48 C49 1.392 . S
C48 H69 0.931 . S
C49 C48 1.392 . S
C49 C50 1.361 . S
C49 C51 1.500 . S
C50 C45 1.390 . S
C50 C49 1.361 . S
C50 H68 0.931 . S
C51 C49 1.500 . S
C51 C52 1.371 . S
C51 C53 1.365 . S
C52 C51 1.371 . S
C52 C62 1.386 . S
C52 H70 0.931 . S
C53 C51 1.365 . S
C53 C54 1.409 . S
C53 H71 0.929 . S
C54 C53 1.409 . S
C54 C55 1.380 . S
C54 H72 0.930 . S
C55 C54 1.380 . S
C55 C62 1.357 . S
C56 C47 1.511 . S
C56 C57 1.341 . S
C56 C58 1.371 . S
C57 C56 1.341 . S
C57 C61 1.394 . S
C57 H73 0.930 . S
C58 C56 1.371 . S
C58 C59 1.392 . S
C58 H74 0.931 . S
C59 C58 1.392 . S
C59 C60 1.331 . S
C59 H77 0.932 . S
C60 C59 1.331 . S
C60 C61 1.336 . S
C61 C57 1.394 . S
C61 C60 1.336 . S
C61 H76 0.929 . S
C62 C52 1.386 . S
C62 C55 1.357 . S
C62 H75 0.928 . S
H63 C39 0.931 . S
H64 C41 0.930 . S
H65 C43 0.929 . S
H66 C44 0.931 . S
H67 C46 0.930 . S
H68 C50 0.931 . S
H69 C48 0.931 . S
H70 C52 0.931 . S
H71 C53 0.929 . S
H72 C54 0.930 . S
H73 C57 0.930 . S
H74 C58 0.931 . S
H75 C62 0.928 . S
H76 C61 0.929 . S
H77 C59 0.932 . S
C78 C79 1.386 . S
C78 C80 1.397 . S
C78 H102 0.931 . S
C79 C78 1.386 . S
C79 C83 1.397 . S
C80 C78 1.397 . S
C80 C81 1.384 . S
C80 H103 0.930 . S
C81 C80 1.384 . S
C81 C82 1.377 . S
C81 C84 1.481 . S
C82 C81 1.377 . S
C82 C83 1.389 . S
C82 H104 0.929 . S
C83 C79 1.397 . S
C83 C82 1.389 . S
C83 H105 0.931 . S
C84 C81 1.481 . S
C84 C85 1.387 . S
C84 C89 1.390 . S
C85 C84 1.387 . S
C85 C86 1.401 . S
C85 H106 0.930 . S
C86 C85 1.401 . S
C86 C87 1.376 . S
C86 C95 1.511 . S
C87 C86 1.376 . S
C87 C88 1.392 . S
C87 H108 0.931 1_554 S
C88 C87 1.392 . S
C88 C89 1.361 . S
C88 C90 1.500 1_554 S
C89 C84 1.390 . S
C89 C88 1.361 . S
C89 H107 0.931 . S
C90 C88 1.500 1_556 S
C90 C91 1.371 . S
C90 C92 1.365 . S
C91 C90 1.371 . S
C91 C101 1.386 . S
C91 H109 0.931 . S
C92 C90 1.365 . S
C92 C93 1.409 . S
C92 H110 0.929 . S
C93 C92 1.409 . S
C93 C94 1.380 . S
C93 H111 0.930 . S
C94 C93 1.380 . S
C94 C101 1.357 . S
C95 C86 1.511 . S
C95 C96 1.341 . S
C95 C97 1.371 1_554 S
C96 C95 1.341 . S
C96 C100 1.394 . S
C96 H112 0.930 . S
C97 C95 1.371 1_556 S
C97 C98 1.392 . S
C97 H113 0.931 . S
C98 C97 1.392 . S
C98 C99 1.331 1_556 S
C98 H116 0.932 . S
C99 C98 1.331 1_554 S
C99 C100 1.336 . S
C100 C96 1.394 . S
C100 C99 1.336 . S
C100 H115 0.929 . S
C101 C91 1.386 . S
C101 C94 1.357 . S
C101 H114 0.928 . S
H102 C78 0.931 . S
H103 C80 0.930 . S
H104 C82 0.929 . S
H105 C83 0.931 . S
H106 C85 0.930 . S
H107 C89 0.931 . S
H108 C87 0.931 1_556 S
H109 C91 0.931 . S
H110 C92 0.929 . S
H111 C93 0.930 . S
H112 C96 0.930 . S
H113 C97 0.931 . S
H114 C101 0.928 . S
H115 C100 0.929 . S
H116 C98 0.932 . S
C117 C118 1.386 . S
C117 C119 1.397 . S
C117 H141 0.931 . S
C118 C117 1.386 . S
C118 C122 1.397 . S
C119 C117 1.397 . S
C119 C120 1.384 . S
C119 H142 0.930 . S
C120 C119 1.384 . S
C120 C121 1.377 . S
C120 C123 1.481 . S
C121 C120 1.377 . S
C121 C122 1.389 . S
C121 H143 0.929 . S
C122 C118 1.397 . S
C122 C121 1.389 . S
C122 H144 0.931 . S
C123 C120 1.481 . S
C123 C124 1.387 . S
C123 C128 1.390 . S
C124 C123 1.387 . S
C124 C125 1.401 . S
C124 H145 0.930 . S
C125 C124 1.401 . S
C125 C126 1.376 . S
C125 C134 1.511 . S
C126 C125 1.376 . S
C126 C127 1.392 . S
C126 H147 0.931 . S
C127 C126 1.392 . S
C127 C128 1.361 . S
C127 C129 1.500 . S
C128 C123 1.390 . S
C128 C127 1.361 . S
C128 H146 0.931 . S
C129 C127 1.500 . S
C129 C130 1.371 . S
C129 C131 1.365 . S
C130 C129 1.371 . S
C130 C140 1.386 . S
C130 H148 0.931 . S
C131 C129 1.365 . S
C131 C132 1.409 . S
C131 H149 0.929 . S
C132 C131 1.409 . S
C132 C133 1.380 . S
C132 H150 0.930 . S
C133 C132 1.380 . S
C133 C140 1.357 . S
C134 C125 1.511 . S
C134 C135 1.341 . S
C134 C136 1.371 . S
C135 C134 1.341 . S
C135 C139 1.394 . S
C135 H151 0.930 . S
C136 C134 1.371 . S
C136 C137 1.392 . S
C136 H152 0.931 . S
C137 C136 1.392 . S
C137 C138 1.331 . S
C137 H155 0.932 . S
C138 C137 1.331 . S
C138 C139 1.336 . S
C139 C135 1.394 . S
C139 C138 1.336 . S
C139 H154 0.929 . S
C140 C130 1.386 . S
C140 C133 1.357 . S
C140 H153 0.928 . S
H141 C117 0.931 . S
H142 C119 0.930 . S
H143 C121 0.929 . S
H144 C122 0.931 . S
H145 C124 0.930 . S
H146 C128 0.931 . S
H147 C126 0.931 . S
H148 C130 0.931 . S
H149 C131 0.929 . S
H150 C132 0.930 . S
H151 C135 0.930 . S
H152 C136 0.931 . S
H153 C140 0.928 . S
H154 C139 0.929 . S
H155 C137 0.932 . S
C156 C158 1.422 . S
C156 C160 1.415 . S
C156 N162 1.369 . S
C157 C158 1.421 . S
C157 C159 1.417 . S
C157 C169 1.422 . S
C158 C156 1.422 . S
C158 C157 1.421 . S
C158 N168 1.359 . S
C159 C157 1.417 . S
C159 C161 1.329 . S
C159 H178 0.930 . S
C160 C156 1.415 . S
C160 C161 1.437 . S
C160 C164 1.413 . S
C161 C159 1.329 . S
C161 C160 1.437 . S
C161 H183 0.929 . S
N162 C156 1.369 . S
N162 C163 1.315 1_655 S
N162 Gd167 2.622 . S
C163 N162 1.315 1_455 S
C163 C165 1.378 1_455 S
C163 H175 0.953 . S
C164 C160 1.413 . S
C164 C165 1.348 . S
C164 H180 0.931 . S
C165 C163 1.378 1_655 S
C165 C164 1.348 . S
C165 H181 0.930 1_655 S
Gd166 N186 2.622 . S
Gd166 N193 2.570 . S
Gd166 O200 2.371 1_455 S
Gd166 O201 2.468 . S
Gd166 O202 2.427 . S
Gd166 O204 2.388 1_455 S
Gd166 O205 2.386 . S
Gd166 O209 2.307 1_565 S
Gd166 C219 2.805 . S
Gd167 N162 2.622 . S
Gd167 N168 2.570 . S
Gd167 O199 2.386 . S
Gd167 O203 2.307 1_545 S
Gd167 O206 2.353 1_655 S
Gd167 O207 2.468 . S
Gd167 O208 2.427 . S
Gd167 O210 2.388 1_655 S
Gd167 C231 2.805 . S
N168 C158 1.359 . S
N168 Gd167 2.570 . S
N168 C170 1.343 . S
C169 C157 1.422 . S
C169 C171 1.321 . S
C169 H177 0.931 . S
C170 N168 1.343 . S
C170 C171 1.390 . S
C170 H172 0.931 . S
C171 C169 1.321 . S
C171 C170 1.390 . S
C171 H173 0.930 . S
H172 C170 0.931 . S
H173 C171 0.930 . S
H174 C197 0.931 . S
H175 C163 0.953 . S
H176 C198 0.930 . S
H177 C169 0.931 . S
H178 C159 0.930 . S
H179 C188 0.929 1_655 S
H180 C164 0.931 . S
H181 C165 0.930 1_455 S
H182 C220 0.930 . S
H183 C161 0.929 . S
H184 C189 0.931 . S
H185 C190 0.930 1_655 S
N186 Gd166 2.622 . S
N186 C187 1.369 . S
N186 C188 1.338 . S
C187 N186 1.369 . S
C187 C191 1.415 . S
C187 C194 1.422 . S
C188 H179 0.929 1_455 S
C188 N186 1.338 . S
C188 C190 1.378 . S
C189 H184 0.931 . S
C189 C190 1.348 . S
C189 C191 1.413 . S
C190 H185 0.930 1_455 S
C190 C188 1.378 . S
C190 C189 1.348 . S
C191 C187 1.415 . S
C191 C189 1.413 . S
C191 C221 1.437 . S
H192 C221 0.929 . S
N193 Gd166 2.570 . S
N193 C194 1.359 . S
N193 C197 1.343 . S
C194 C187 1.422 . S
C194 N193 1.359 . S
C194 C196 1.421 . S
C195 C196 1.422 . S
C195 C198 1.321 . S
C195 H222 0.931 . S
C196 C194 1.421 . S
C196 C195 1.422 . S
C196 C220 1.417 . S
C197 H174 0.931 . S
C197 N193 1.343 . S
C197 C198 1.390 . S
C198 H176 0.930 . S
C198 C195 1.321 . S
C198 C197 1.390 . S
O199 Gd167 2.386 . S
O199 C211 1.265 . S
O200 Gd166 2.371 1_655 S
O200 C211 1.214 1_565 S
O201 Gd166 2.468 . S
O201 C219 1.263 . S
O202 Gd166 2.427 . S
O202 C219 1.252 . S
O203 Gd167 2.307 1_565 S
O203 C212 1.261 . S
O204 Gd166 2.388 1_655 S
O204 C212 1.252 . S
O205 Gd166 2.386 . S
O205 C223 1.265 . S
O206 Gd167 2.353 1_455 S
O206 C223 1.242 1_545 S
O207 Gd167 2.468 . S
O207 C231 1.263 . S
O208 Gd167 2.427 . S
O208 C231 1.252 . S
O209 Gd166 2.307 1_545 S
O209 C224 1.261 . S
O210 Gd167 2.388 1_455 S
O210 C224 1.252 . S
C211 O199 1.265 . S
C211 O200 1.214 1_545 S
C212 O203 1.261 . S
C212 O204 1.252 . S
C213 C216 1.394 . S
C213 C218 1.370 . S
C213 C219 1.500 . S
C214 C217 1.383 . S
C214 C218 1.395 . S
C215 C216 1.396 . S
C215 C217 1.365 . S
C215 H232 0.929 . S
C216 C213 1.394 . S
C216 C215 1.396 . S
C216 H233 0.930 . S
C217 C214 1.383 . S
C217 C215 1.365 . S
C217 H234 0.931 . S
C218 C213 1.370 . S
C218 C214 1.395 . S
C218 H235 0.930 . S
C219 Gd166 2.805 . S
C219 O201 1.263 . S
C219 O202 1.252 . S
C219 C213 1.500 . S
C220 H182 0.930 . S
C220 C196 1.417 . S
C220 C221 1.329 . S
C221 C191 1.437 . S
C221 H192 0.929 . S
C221 C220 1.329 . S
H222 C195 0.931 . S
C223 O205 1.265 . S
C223 O206 1.242 1_565 S
C224 O209 1.261 . S
C224 O210 1.252 . S
C225 C228 1.394 . S
C225 C230 1.370 . S
C225 C231 1.500 . S
C226 C229 1.383 . S
C226 C230 1.395 . S
C227 C228 1.396 . S
C227 C229 1.365 . S
C227 H236 0.929 . S
C228 C225 1.394 . S
C228 C227 1.396 . S
C228 H237 0.930 . S
C229 C226 1.383 . S
C229 C227 1.365 . S
C229 H238 0.931 . S
C230 C225 1.370 . S
C230 C226 1.395 . S
C230 H239 0.930 . S
C231 Gd167 2.805 . S
C231 O207 1.263 . S
C231 O208 1.252 . S
C231 C225 1.500 . S
H232 C215 0.929 . S
H233 C216 0.930 . S
H234 C217 0.931 . S
H235 C218 0.930 . S
H236 C227 0.929 . S
H237 C228 0.930 . S
H238 C229 0.931 . S
H239 C230 0.930 . S
C240 C242 1.422 . S
C240 C244 1.415 . S
C240 N246 1.369 . S
C241 C242 1.421 . S
C241 C243 1.417 . S
C241 C253 1.422 . S
C242 C240 1.422 . S
C242 C241 1.421 . S
C242 N252 1.359 . S
C243 C241 1.417 . S
C243 C245 1.329 . S
C243 H262 0.930 . S
C244 C240 1.415 . S
C244 C245 1.437 . S
C244 C248 1.413 . S
C245 C243 1.329 . S
C245 C244 1.437 . S
C245 H267 0.929 . S
N246 C240 1.369 . S
N246 C247 1.338 . S
N246 Gd251 2.622 . S
C247 N246 1.338 . S
C247 C249 1.378 . S
C247 H259 0.929 . S
C248 C244 1.413 . S
C248 C249 1.348 . S
C248 H264 0.931 . S
C249 C247 1.378 . S
C249 C248 1.348 . S
C249 H265 0.930 . S
Gd250 N270 2.622 . S
Gd250 N277 2.570 1_556 S
Gd250 O284 2.353 . S
Gd250 O285 2.468 . S
Gd250 O286 2.427 . S
Gd250 O288 2.388 . S
Gd250 O289 2.386 1_556 S
Gd250 O293 2.307 1_556 S
Gd250 C303 2.805 . S
Gd251 N246 2.622 . S
Gd251 N252 2.570 . S
Gd251 O283 2.386 1_554 S
Gd251 O287 2.307 . S
Gd251 O290 2.353 . S
Gd251 O291 2.468 . S
Gd251 O292 2.427 . S
Gd251 O294 2.388 . S
Gd251 C315 2.805 . S
N252 C242 1.359 . S
N252 Gd251 2.570 . S
N252 C254 1.343 . S
C253 C241 1.422 . S
C253 C255 1.321 . S
C253 H261 0.931 . S
C254 N252 1.343 . S
C254 C255 1.390 . S
C254 H256 0.931 . S
C255 C253 1.321 . S
C255 C254 1.390 . S
C255 H257 0.930 . S
H256 C254 0.931 . S
H257 C255 0.930 . S
H258 C281 0.931 . S
H259 C247 0.929 . S
H260 C282 0.930 . S
H261 C253 0.931 . S
H262 C243 0.930 . S
H263 C272 0.929 . S
H264 C248 0.931 . S
H265 C249 0.930 . S
H266 C304 0.930 . S
H267 C245 0.929 . S
H268 C273 0.931 . S
H269 C274 0.930 . S
N270 Gd250 2.622 . S
N270 C271 1.369 1_556 S
N270 C272 1.338 . S
C271 N270 1.369 1_554 S
C271 C275 1.415 . S
C271 C278 1.422 . S
C272 H263 0.929 . S
C272 N270 1.338 . S
C272 C274 1.378 . S
C273 H268 0.931 . S
C273 C274 1.348 1_554 S
C273 C275 1.413 . S
C274 H269 0.930 . S
C274 C272 1.378 . S
C274 C273 1.348 1_556 S
C275 C271 1.415 . S
C275 C273 1.413 . S
C275 C305 1.437 . S
H276 C305 0.929 . S
N277 Gd250 2.570 1_554 S
N277 C278 1.359 . S
N277 C281 1.343 . S
C278 C271 1.422 . S
C278 N277 1.359 . S
C278 C280 1.421 . S
C279 C280 1.422 . S
C279 C282 1.321 . S
C279 H306 0.931 . S
C280 C278 1.421 . S
C280 C279 1.422 . S
C280 C304 1.417 . S
C281 H258 0.931 . S
C281 N277 1.343 . S
C281 C282 1.390 . S
C282 H260 0.930 . S
C282 C279 1.321 . S
C282 C281 1.390 . S
O283 Gd251 2.386 1_556 S
O283 C295 1.265 . S
O284 Gd250 2.353 . S
O284 C295 1.242 . S
O285 Gd250 2.468 . S
O285 C303 1.263 . S
O286 Gd250 2.427 . S
O286 C303 1.252 . S
O287 Gd251 2.307 . S
O287 C296 1.261 . S
O288 Gd250 2.388 . S
O288 C296 1.252 1_556 S
O289 Gd250 2.386 1_554 S
O289 C307 1.265 . S
O290 Gd251 2.353 . S
O290 C307 1.242 . S
O291 Gd251 2.468 . S
O291 C315 1.263 . S
O292 Gd251 2.427 . S
O292 C315 1.252 . S
O293 Gd250 2.307 1_554 S
O293 C308 1.261 . S
O294 Gd251 2.388 . S
O294 C308 1.252 . S
C295 O283 1.265 . S
C295 O284 1.242 . S
C296 O287 1.261 . S
C296 O288 1.252 1_554 S
C297 C300 1.394 . S
C297 C302 1.370 . S
C297 C303 1.500 . S
C298 C301 1.383 . S
C298 C302 1.395 . S
C299 C300 1.396 . S
C299 C301 1.365 . S
C299 H316 0.929 . S
C300 C297 1.394 . S
C300 C299 1.396 . S
C300 H317 0.930 . S
C301 C298 1.383 . S
C301 C299 1.365 . S
C301 H318 0.931 . S
C302 C297 1.370 . S
C302 C298 1.395 . S
C302 H319 0.930 . S
C303 Gd250 2.805 . S
C303 O285 1.263 . S
C303 O286 1.252 . S
C303 C297 1.500 . S
C304 H266 0.930 . S
C304 C280 1.417 . S
C304 C305 1.329 . S
C305 C275 1.437 . S
C305 H276 0.929 . S
C305 C304 1.329 . S
H306 C279 0.931 . S
C307 O289 1.265 . S
C307 O290 1.242 . S
C308 O293 1.261 . S
C308 O294 1.252 . S
C309 C312 1.394 . S
C309 C314 1.370 . S
C309 C315 1.500 . S
C310 C313 1.383 . S
C310 C314 1.395 . S
C311 C312 1.396 . S
C311 C313 1.365 . S
C311 H320 0.929 . S
C312 C309 1.394 . S
C312 C311 1.396 . S
C312 H321 0.930 . S
C313 C310 1.383 . S
C313 C311 1.365 . S
C313 H322 0.931 . S
C314 C309 1.370 . S
C314 C310 1.395 . S
C314 H323 0.930 . S
C315 Gd251 2.805 . S
C315 O291 1.263 . S
C315 O292 1.252 . S
C315 C309 1.500 . S
H316 C299 0.929 . S
H317 C300 0.930 . S
H318 C301 0.931 . S
H319 C302 0.930 . S
H320 C311 0.929 . S
H321 C312 0.930 . S
H322 C313 0.931 . S
H323 C314 0.930 . S
H324 C336 0.930 . S
H325 C338 0.930 . S
H326 C339 0.930 . S
H327 C343 0.959 . S
H328 C343 0.959 . S
H329 C343 0.961 . S
H330 C344 0.960 . S
H331 C344 0.961 . S
H332 C344 0.959 . S
H333 C347 0.929 . S
H334 C348 0.931 . S
H335 C350 0.930 . S
C336 H324 0.930 . S
C336 C337 1.399 . S
C336 C341 1.399 . S
C337 C336 1.399 . S
C337 C338 1.376 . S
C338 H325 0.930 . S
C338 C337 1.376 . S
C338 C339 1.388 . S
C339 H326 0.930 . S
C339 C338 1.388 . S
C339 C340 1.390 . S
C340 C339 1.390 . S
C340 C341 1.394 . S
C340 C346 1.465 . S
C341 C336 1.399 . S
C341 C340 1.394 . S
C341 C342 1.516 . S
C342 C341 1.516 . S
C342 C343 1.502 . S
C342 C344 1.561 . S
C342 C345 1.526 . S
C343 H327 0.959 . S
C343 H328 0.959 . S
C343 H329 0.961 . S
C343 C342 1.502 . S
C344 H330 0.960 . S
C344 H331 0.961 . S
C344 H332 0.959 . S
C344 C342 1.561 . S
C345 C342 1.526 . S
C345 C346 1.396 . S
C345 C350 1.390 . S
C346 C340 1.465 . S
C346 C345 1.396 . S
C346 C347 1.399 . S
C347 H333 0.929 . S
C347 C346 1.399 . S
C347 C348 1.385 . S
C348 H334 0.931 . S
C348 C347 1.385 . S
C348 C349 1.389 . S
C349 C348 1.389 . S
C349 C350 1.387 . S
C350 H335 0.930 . S
C350 C345 1.390 . S
C350 C349 1.387 . S
H351 C363 0.930 . S
H352 C365 0.920 1_556 S
H353 C366 0.930 . S
H354 C370 0.959 . S
H355 C370 0.959 . S
H356 C370 0.961 . S
H357 C371 0.960 . S
H358 C371 0.961 . S
H359 C371 0.959 . S
H360 C374 0.929 . S
H361 C375 0.931 . S
H362 C377 0.930 . S
C363 H351 0.930 . S
C363 C364 1.399 . S
C363 C368 1.399 . S
C364 C363 1.399 . S
C364 C365 1.397 . S
C365 H352 0.920 1_554 S
C365 C364 1.397 . S
C365 C366 1.379 1_554 S
C366 H353 0.930 . S
C366 C365 1.379 1_556 S
C366 C367 1.390 1_556 S
C367 C366 1.390 1_554 S
C367 C368 1.394 . S
C367 C373 1.465 . S
C368 C363 1.399 . S
C368 C367 1.394 . S
C368 C369 1.516 . S
C369 C368 1.516 . S
C369 C370 1.502 . S
C369 C371 1.561 . S
C369 C372 1.526 . S
C370 H354 0.959 . S
C370 H355 0.959 . S
C370 H356 0.961 . S
C370 C369 1.502 . S
C371 H357 0.960 . S
C371 H358 0.961 . S
C371 H359 0.959 . S
C371 C369 1.561 . S
C372 C369 1.526 . S
C372 C373 1.396 . S
C372 C377 1.390 . S
C373 C367 1.465 . S
C373 C372 1.396 . S
C373 C374 1.399 1_554 S
C374 H360 0.929 . S
C374 C373 1.399 1_556 S
C374 C375 1.385 . S
C375 H361 0.931 . S
C375 C374 1.385 . S
C375 C376 1.389 1_556 S
C376 C375 1.389 1_554 S
C376 C377 1.387 . S
C377 H362 0.930 . S
C377 C372 1.390 . S
C377 C376 1.387 . S
H378 C390 0.930 . S
H379 C392 0.930 . S
H380 C393 0.930 . S
H381 C397 0.959 . S
H382 C397 0.959 . S
H383 C397 0.961 . S
H384 C398 0.960 . S
H385 C398 0.961 . S
H386 C398 0.959 . S
H387 C401 0.929 . S
H388 C402 0.931 . S
H389 C404 0.930 . S
C390 H378 0.930 . S
C390 C391 1.399 . S
C390 C395 1.399 . S
C391 C390 1.399 . S
C391 C392 1.376 . S
C392 H379 0.930 . S
C392 C391 1.376 . S
C392 C393 1.388 . S
C393 H380 0.930 . S
C393 C392 1.388 . S
C393 C394 1.390 . S
C394 C393 1.390 . S
C394 C395 1.394 . S
C394 C400 1.465 . S
C395 C390 1.399 . S
C395 C394 1.394 . S
C395 C396 1.516 . S
C396 C395 1.516 . S
C396 C397 1.502 . S
C396 C398 1.561 . S
C396 C399 1.526 . S
C397 H381 0.959 . S
C397 H382 0.959 . S
C397 H383 0.961 . S
C397 C396 1.502 . S
C398 H384 0.960 . S
C398 H385 0.961 . S
C398 H386 0.959 . S
C398 C396 1.561 . S
C399 C396 1.526 . S
C399 C400 1.396 . S
C399 C404 1.390 . S
C400 C394 1.465 . S
C400 C399 1.396 . S
C400 C401 1.399 . S
C401 H387 0.929 . S
C401 C400 1.399 . S
C401 C402 1.385 . S
C402 H388 0.931 . S
C402 C401 1.385 . S
C402 C403 1.389 . S
C403 C402 1.389 . S
C403 C404 1.387 . S
C404 H389 0.930 . S
C404 C399 1.390 . S
C404 C403 1.387 . S
H405 C417 0.930 . S
H406 C419 0.930 . S
H407 C420 0.930 . S
H408 C424 0.959 . S
H409 C424 0.959 . S
H410 C424 0.961 . S
H411 C425 0.960 . S
H412 C425 0.961 . S
H413 C425 0.959 . S
H414 C428 0.929 . S
H415 C429 0.931 . S
H416 C431 0.922 1_556 S
C417 H405 0.930 . S
C417 C418 1.399 1_556 S
C417 C422 1.399 1_556 S
C418 C417 1.399 1_554 S
C418 C419 1.376 . S
C419 H406 0.930 . S
C419 C418 1.376 . S
C419 C420 1.388 . S
C420 H407 0.930 . S
C420 C419 1.388 . S
C420 C421 1.390 . S
C421 C420 1.390 . S
C421 C422 1.394 . S
C421 C427 1.465 . S
C422 C417 1.399 1_554 S
C422 C421 1.394 . S
C422 C423 1.516 1_554 S
C423 C422 1.516 1_556 S
C423 C424 1.502 . S
C423 C425 1.561 . S
C423 C426 1.526 1_556 S
C424 H408 0.959 . S
C424 H409 0.959 . S
C424 H410 0.961 . S
C424 C423 1.502 . S
C425 H411 0.960 . S
C425 H412 0.961 . S
C425 H413 0.959 . S
C425 C423 1.561 . S
C426 C423 1.526 1_554 S
C426 C427 1.396 . S
C426 C431 1.389 . S
C427 C421 1.465 . S
C427 C426 1.396 . S
C427 C428 1.399 . S
C428 H414 0.929 . S
C428 C427 1.399 . S
C428 C429 1.385 . S
C429 H415 0.931 . S
C429 C428 1.385 . S
C429 C430 1.389 . S
C430 C429 1.389 . S
C430 C431 1.395 . S
C431 H416 0.922 1_554 S
C431 C426 1.389 . S
C431 C430 1.395 . S
H432 C444 0.930 . S
H433 C446 0.930 . S
H434 C447 0.930 . S
H435 C451 0.959 . S
H436 C451 0.959 . S
H437 C451 0.961 . S
H438 C452 0.960 . S
H439 C452 0.961 . S
H440 C452 0.959 . S
H441 C455 0.929 1_545 S
H442 C456 0.931 1_545 S
H443 C458 0.930 . S
C444 H432 0.930 . S
C444 C445 1.399 . S
C444 C449 1.399 . S
C445 C444 1.399 . S
C445 C446 1.376 . S
C446 H433 0.930 . S
C446 C445 1.376 . S
C446 C447 1.388 . S
C447 H434 0.930 . S
C447 C446 1.388 . S
C447 C448 1.390 . S
C448 C447 1.390 . S
C448 C449 1.394 . S
C448 C454 1.465 . S
C449 C444 1.399 . S
C449 C448 1.394 . S
C449 C450 1.516 . S
C450 C449 1.516 . S
C450 C451 1.502 . S
C450 C452 1.561 . S
C450 C453 1.526 . S
C451 H435 0.959 . S
C451 H436 0.959 . S
C451 H437 0.961 . S
C451 C450 1.502 . S
C452 H438 0.960 . S
C452 H439 0.961 . S
C452 H440 0.959 . S
C452 C450 1.561 . S
C453 C450 1.526 . S
C453 C454 1.396 . S
C453 C458 1.390 . S
C454 C448 1.465 . S
C454 C453 1.396 . S
C454 C455 1.399 . S
C455 H441 0.929 1_565 S
C455 C454 1.399 . S
C455 C456 1.385 . S
C456 H442 0.931 1_565 S
C456 C455 1.385 . S
C456 C457 1.389 . S
C457 C456 1.389 . S
C457 C458 1.387 . S
C458 H443 0.930 . S
C458 C453 1.390 . S
C458 C457 1.387 . S
H459 C471 0.930 . S
H460 C473 0.930 . S
H461 C474 0.930 . S
H462 C478 0.959 . S
H463 C478 0.959 . S
H464 C478 0.961 . S
H465 C479 0.960 . S
H466 C479 0.961 . S
H467 C479 0.959 . S
H468 C482 0.929 . S
H469 C483 0.931 . S
H470 C485 0.930 . S
C471 H459 0.930 . S
C471 C472 1.399 . S
C471 C476 1.399 . S
C472 C471 1.399 . S
C472 C473 1.376 . S
C473 H460 0.930 . S
C473 C472 1.376 . S
C473 C474 1.388 . S
C474 H461 0.930 . S
C474 C473 1.388 . S
C474 C475 1.390 . S
C475 C474 1.390 . S
C475 C476 1.394 . S
C475 C481 1.465 . S
C476 C471 1.399 . S
C476 C475 1.394 . S
C476 C477 1.516 . S
C477 C476 1.516 . S
C477 C478 1.502 . S
C477 C479 1.561 . S
C477 C480 1.526 . S
C478 H462 0.959 . S
C478 H463 0.959 . S
C478 H464 0.961 . S
C478 C477 1.502 . S
C479 H465 0.960 . S
C479 H466 0.961 . S
C479 H467 0.959 . S
C479 C477 1.561 . S
C480 C477 1.526 . S
C480 C481 1.396 . S
C480 C485 1.390 . S
C481 C475 1.465 . S
C481 C480 1.396 . S
C481 C482 1.399 . S
C482 H468 0.929 . S
C482 C481 1.399 . S
C482 C483 1.385 . S
C483 H469 0.931 . S
C483 C482 1.385 . S
C483 C484 1.389 . S
C484 C483 1.389 . S
C484 C485 1.387 . S
C485 H470 0.930 . S
C485 C480 1.390 . S
C485 C484 1.387 . S
H486 C498 0.930 . S
H487 C500 0.930 . S
H488 C501 0.903 1_565 S
H489 C505 0.959 . S
H490 C505 0.959 . S
H491 C505 0.961 . S
H492 C506 0.960 . S
H493 C506 0.961 . S
H494 C506 0.959 . S
H495 C509 0.929 1_565 S
H496 C510 0.931 1_565 S
H497 C512 0.930 . S
C498 H486 0.930 . S
C498 C499 1.399 . S
C498 C503 1.399 . S
C499 C498 1.399 . S
C499 C500 1.376 . S
C500 H487 0.930 . S
C500 C499 1.376 . S
C500 C501 1.388 . S
C501 H488 0.903 1_545 S
C501 C500 1.388 . S
C501 C502 1.390 . S
C502 C501 1.390 . S
C502 C503 1.394 . S
C502 C508 1.465 . S
C503 C498 1.399 . S
C503 C502 1.394 . S
C503 C504 1.516 . S
C504 C503 1.516 . S
C504 C505 1.502 . S
C504 C506 1.561 . S
C504 C507 1.526 . S
C505 H489 0.959 . S
C505 H490 0.959 . S
C505 H491 0.961 . S
C505 C504 1.502 . S
C506 H492 0.960 . S
C506 H493 0.961 . S
C506 H494 0.959 . S
C506 C504 1.561 . S
C507 C504 1.526 . S
C507 C508 1.396 . S
C507 C512 1.390 . S
C508 C502 1.465 . S
C508 C507 1.396 . S
C508 C509 1.399 . S
C509 H495 0.929 1_545 S
C509 C508 1.399 . S
C509 C510 1.385 . S
C510 H496 0.931 1_545 S
C510 C509 1.385 . S
C510 C511 1.389 . S
C511 C510 1.389 . S
C511 C512 1.387 . S
C512 H497 0.930 . S
C512 C507 1.390 . S
C512 C511 1.387 . S
H513 C525 0.930 . S
H514 C527 0.930 . S
H515 C528 0.930 . S
H516 C532 0.959 . S
H517 C532 0.959 . S
H518 C532 0.961 . S
H519 C533 0.960 . S
H520 C533 0.961 . S
H521 C533 0.959 . S
H522 C536 0.929 . S
H523 C537 0.931 . S
H524 C539 0.930 . S
C525 H513 0.930 . S
C525 C526 1.399 . S
C525 C530 1.399 . S
C526 C525 1.399 . S
C526 C527 1.376 . S
C527 H514 0.930 . S
C527 C526 1.376 . S
C527 C528 1.388 . S
C528 H515 0.930 . S
C528 C527 1.388 . S
C528 C529 1.390 . S
C529 C528 1.390 . S
C529 C530 1.394 . S
C529 C535 1.465 . S
C530 C525 1.399 . S
C530 C529 1.394 . S
C530 C531 1.516 . S
C531 C530 1.516 . S
C531 C532 1.502 . S
C531 C533 1.561 . S
C531 C534 1.526 . S
C532 H516 0.959 . S
C532 H517 0.959 . S
C532 H518 0.961 . S
C532 C531 1.502 . S
C533 H519 0.960 . S
C533 H520 0.961 . S
C533 H521 0.959 . S
C533 C531 1.561 . S
C534 C531 1.526 . S
C534 C535 1.396 . S
C534 C539 1.390 . S
C535 C529 1.465 . S
C535 C534 1.396 . S
C535 C536 1.399 . S
C536 H522 0.929 . S
C536 C535 1.399 . S
C536 C537 1.385 . S
C537 H523 0.931 . S
C537 C536 1.385 . S
C537 C538 1.389 . S
C538 C537 1.389 . S
C538 C539 1.387 . S
C539 H524 0.930 . S
C539 C534 1.390 . S
C539 C538 1.387 . S
H540 C552 0.930 . S
H541 C554 0.930 . S
H542 C555 0.930 . S
H543 C559 0.959 . S
H544 C559 0.959 . S
H545 C559 0.961 . S
H546 C560 0.960 . S
H547 C560 0.961 . S
H548 C560 0.959 . S
H549 C563 0.929 . S
H550 C564 0.931 . S
H551 C566 0.930 . S
C552 H540 0.930 . S
C552 C553 1.399 . S
C552 C557 1.399 . S
C553 C552 1.399 . S
C553 C554 1.376 . S
C554 H541 0.930 . S
C554 C553 1.376 . S
C554 C555 1.388 . S
C555 H542 0.930 . S
C555 C554 1.388 . S
C555 C556 1.390 . S
C556 C555 1.390 . S
C556 C557 1.394 . S
C556 C562 1.465 . S
C557 C552 1.399 . S
C557 C556 1.394 . S
C557 C558 1.516 . S
C558 C557 1.516 . S
C558 C559 1.502 . S
C558 C560 1.561 . S
C558 C561 1.526 . S
C559 H543 0.959 . S
C559 H544 0.959 . S
C559 H545 0.961 . S
C559 C558 1.502 . S
C560 H546 0.960 . S
C560 H547 0.961 . S
C560 H548 0.959 . S
C560 C558 1.561 . S
C561 C558 1.526 . S
C561 C562 1.396 . S
C561 C566 1.390 . S
C562 C556 1.465 . S
C562 C561 1.396 . S
C562 C563 1.399 . S
C563 H549 0.929 . S
C563 C562 1.399 . S
C563 C564 1.385 . S
C564 H550 0.931 . S
C564 C563 1.385 . S
C564 C565 1.389 . S
C565 C564 1.389 . S
C565 C566 1.387 . S
C566 H551 0.930 . S
C566 C561 1.390 . S
C566 C565 1.387 . S
H567 C579 0.930 . S
H568 C581 0.930 . S
H569 C582 0.930 . S
H570 C586 0.958 1_565 S
H571 C586 0.943 1_565 S
H572 C586 0.958 1_565 S
H573 C587 0.960 . S
H574 C587 0.961 . S
H575 C587 0.959 . S
H576 C590 0.929 . S
H577 C591 0.931 . S
H578 C593 0.930 . S
C579 H567 0.930 . S
C579 C580 1.399 . S
C579 C584 1.399 . S
C580 C579 1.399 . S
C580 C581 1.376 . S
C581 H568 0.930 . S
C581 C580 1.376 . S
C581 C582 1.388 . S
C582 H569 0.930 . S
C582 C581 1.388 . S
C582 C583 1.390 . S
C583 C582 1.390 . S
C583 C584 1.394 . S
C583 C589 1.465 . S
C584 C579 1.399 . S
C584 C583 1.394 . S
C584 C585 1.516 . S
C585 C584 1.516 . S
C585 C586 1.524 . S
C585 C587 1.561 . S
C585 C588 1.526 . S
C586 H570 0.958 1_545 S
C586 H571 0.943 1_545 S
C586 H572 0.958 1_545 S
C586 C585 1.524 . S
C587 H573 0.960 . S
C587 H574 0.961 . S
C587 H575 0.959 . S
C587 C585 1.561 . S
C588 C585 1.526 . S
C588 C589 1.396 . S
C588 C593 1.390 . S
C589 C583 1.465 . S
C589 C588 1.396 . S
C589 C590 1.399 . S
C590 H576 0.929 . S
C590 C589 1.399 . S
C590 C591 1.385 . S
C591 H577 0.931 . S
C591 C590 1.385 . S
C591 C592 1.389 . S
C592 C591 1.389 . S
C592 C593 1.387 . S
C593 H578 0.930 . S
C593 C588 1.390 . S
C593 C592 1.387 . S
H594 C606 0.930 . S
H595 C608 0.930 . S
H596 C609 0.930 . S
H597 C613 0.959 . S
H598 C613 0.959 . S
H599 C613 0.961 . S
H600 C614 0.960 . S
H601 C614 0.961 . S
H602 C614 0.959 . S
H603 C617 0.929 . S
H604 C618 0.931 . S
H605 C620 0.930 . S
C606 H594 0.930 . S
C606 C607 1.399 . S
C606 C611 1.399 . S
C607 C606 1.399 . S
C607 C608 1.376 . S
C608 H595 0.930 . S
C608 C607 1.376 . S
C608 C609 1.388 . S
C609 H596 0.930 . S
C609 C608 1.388 . S
C609 C610 1.390 . S
C610 C609 1.390 . S
C610 C611 1.394 . S
C610 C616 1.465 . S
C611 C606 1.399 . S
C611 C610 1.394 . S
C611 C612 1.516 . S
C612 C611 1.516 . S
C612 C613 1.502 . S
C612 C614 1.561 . S
C612 C615 1.526 . S
C613 H597 0.959 . S
C613 H598 0.959 . S
C613 H599 0.961 . S
C613 C612 1.502 . S
C614 H600 0.960 . S
C614 H601 0.961 . S
C614 H602 0.959 . S
C614 C612 1.561 . S
C615 C612 1.526 . S
C615 C616 1.396 . S
C615 C620 1.390 . S
C616 C610 1.465 . S
C616 C615 1.396 . S
C616 C617 1.399 . S
C617 H603 0.929 . S
C617 C616 1.399 . S
C617 C618 1.385 . S
C618 H604 0.931 . S
C618 C617 1.385 . S
C618 C619 1.389 . S
C619 C618 1.389 . S
C619 C620 1.387 . S
C620 H605 0.930 . S
C620 C615 1.390 . S
C620 C619 1.387 . S
H621 C633 0.930 . S
H622 C635 0.930 . S
H623 C636 0.930 1_545 S
H624 C640 0.959 . S
H625 C640 0.959 . S
H626 C640 0.961 . S
H627 C641 0.960 . S
H628 C641 0.961 . S
H629 C641 0.959 . S
H630 C644 0.911 1_545 S
H631 C645 0.917 1_545 S
H632 C647 0.930 . S
C633 H621 0.930 . S
C633 C634 1.399 . S
C633 C638 1.399 . S
C634 C633 1.399 . S
C634 C635 1.376 . S
C635 H622 0.930 . S
C635 C634 1.376 . S
C635 C636 1.388 . S
C636 H623 0.930 1_565 S
C636 C635 1.388 . S
C636 C637 1.390 . S
C637 C636 1.390 . S
C637 C638 1.394 . S
C637 C643 1.465 . S
C638 C633 1.399 . S
C638 C637 1.394 . S
C638 C639 1.516 . S
C639 C638 1.516 . S
C639 C640 1.502 . S
C639 C641 1.561 . S
C639 C642 1.526 . S
C640 H624 0.959 . S
C640 H625 0.959 . S
C640 H626 0.961 . S
C640 C639 1.502 . S
C641 H627 0.960 . S
C641 H628 0.961 . S
C641 H629 0.959 . S
C641 C639 1.561 . S
C642 C639 1.526 . S
C642 C643 1.396 . S
C642 C647 1.390 . S
C643 C637 1.465 . S
C643 C642 1.396 . S
C643 C644 1.414 . S
C644 H630 0.911 1_565 S
C644 C643 1.414 . S
C644 C645 1.385 . S
C645 H631 0.917 1_565 S
C645 C644 1.385 . S
C645 C646 1.407 . S
C646 C645 1.407 . S
C646 C647 1.387 . S
C647 H632 0.930 . S
C647 C642 1.390 . S
C647 C646 1.387 . S
C349 C224 1.647 . S
C337 C138 1.639 . S
C364 C21 1.586 . S
C376 C296 1.599 . S
C391 C60 1.619 . S
C403 C212 1.628 . S
C418 C99 1.625 . S
C430 C308 1.595 . S
C457 C214 1.466 . S
C445 C16 1.560 . S
C484 C295 1.604 . S
C472 C40 1.586 . S
C499 C79 1.612 . S
C511 C211 1.611 . S
C526 C133 1.524 . S
C538 C298 1.411 . S
C565 C310 1.348 . S
C553 C55 1.524 . S
C592 C226 1.348 . S
C580 C94 1.534 . S
C619 C307 1.609 . S
C607 C118 1.606 . S
C634 C1 1.594 . S
C646 C223 1.608 . S
