# Generated by pormake.
# Topology ftw, (4,12)-cn, num edge types: 1
# Building blocks:
#     Node 0, Type 0, BuildingBlock: GIZVER_clean_linker_0, # of connection points: 4
#     Node 1, Type 0, BuildingBlock: GIZVER_clean_linker_0, # of connection points: 4
#     Node 2, Type 0, BuildingBlock: GIZVER_clean_linker_0, # of connection points: 4
#     Node 3, Type 1, BuildingBlock: QEWDON_clean_sbu_0, # of connection points: 12
#     Edge 4, Type (0, 1), BuildingBlock: ZUJKAS_clean_linker_0, # of connection points: 2
#     Edge 5, Type (0, 1), BuildingBlock: ZUJKAS_clean_linker_0, # of connection points: 2
#     Edge 6, Type (0, 1), BuildingBlock: ZUJKAS_clean_linker_0, # of connection points: 2
#     Edge 7, Type (0, 1), BuildingBlock: ZUJKAS_clean_linker_0, # of connection points: 2
#     Edge 8, Type (0, 1), BuildingBlock: ZUJKAS_clean_linker_0, # of connection points: 2
#     Edge 9, Type (0, 1), BuildingBlock: ZUJKAS_clean_linker_0, # of connection points: 2
#     Edge 10, Type (0, 1), BuildingBlock: ZUJKAS_clean_linker_0, # of connection points: 2
#     Edge 11, Type (0, 1), BuildingBlock: ZUJKAS_clean_linker_0, # of connection points: 2
#     Edge 12, Type (0, 1), BuildingBlock: ZUJKAS_clean_linker_0, # of connection points: 2
#     Edge 13, Type (0, 1), BuildingBlock: ZUJKAS_clean_linker_0, # of connection points: 2
#     Edge 14, Type (0, 1), BuildingBlock: ZUJKAS_clean_linker_0, # of connection points: 2
#     Edge 15, Type (0, 1), BuildingBlock: ZUJKAS_clean_linker_0, # of connection points: 2
# Relax obj value: 0.120
# Max RMSD: 0.268
# Mean RMSD: 0.216
data_MOF--net-ftw--node1-QEWDON_clean_sbu_0--node2-GIZVER_clean_linker_0--edge1-ZUJKAS_clean_linker_0
_symmetry_space_group_name_H-M    P1
_symmetry_Int_Tables_number       1
_symmetry_cell_setting            triclinic
loop_
_symmetry_equiv_pos_as_xyz
'x, y, z'
_cell_length_a     32.678996
_cell_length_b     30.613322
_cell_length_c     29.913763
_cell_angle_alpha  89.86239
_cell_angle_beta   89.915132
_cell_angle_gamma 90.24991
loop_
_atom_site_label
_atom_site_type_symbol
_atom_site_fract_x
_atom_site_fract_y
_atom_site_fract_z
_atom_type_partial_charge
H0 H 0.93962 0.4489 0.41822 0.0
H1 H 0.93967 0.4477 0.56164 0.0
H2 H 0.01986 0.36202 0.48938 0.0
H3 H 0.88035 0.4764 0.46087 0.0
H4 H 0.88085 0.4763 0.5206 0.0
H5 H 0.90969 0.53675 0.4191 0.0
H6 H 0.94848 0.65088 0.49102 0.0
H7 H 0.92358 0.53125 0.56208 0.0
C8 C 0.95201 0.43648 0.44933 0.0
C9 C 0.98271 0.40442 0.44869 0.0
C10 C 0.93612 0.45171 0.48999 0.0
C11 C 0.95202 0.43581 0.53033 0.0
C12 C 0.98259 0.4037 0.53049 0.0
C13 C 0.99793 0.38846 0.48951 0.0
C14 C 0.90015 0.48235 0.4905 0.0
C15 C 0.91446 0.52913 0.49068 0.0
C16 C 0.9175 0.55253 0.45038 0.0
C17 C 0.9293 0.59658 0.45049 0.0
C18 C 0.93934 0.61679 0.49105 0.0
C19 C 0.93784 0.59349 0.5315 0.0
C20 C 0.92504 0.54962 0.5311 0.0
H21 H 0.46252 0.02511 0.41181 0.0
H22 H 0.46238 0.04001 0.55464 0.0
H23 H 0.36714 0.96585 0.491 0.0
H24 H 0.49919 0.08546 0.44713 0.0
H25 H 0.49772 0.09286 0.50603 0.0
H26 H 0.55672 0.05155 0.41352 0.0
H27 H 0.6568 0.01154 0.49702 0.0
H28 H 0.54104 0.04432 0.55622 0.0
C29 C 0.4493 0.01727 0.4441 0.0
C30 C 0.41299 0.99241 0.44652 0.0
C31 C 0.46748 0.03423 0.48306 0.0
C32 C 0.44957 0.02525 0.52485 0.0
C33 C 0.41327 0.00067 0.52794 0.0
C34 C 0.39572 0.9838 0.48873 0.0
C35 C 0.50149 0.06772 0.47955 0.0
C36 C 0.5436 0.04797 0.48416 0.0
C37 C 0.56871 0.04328 0.44621 0.0
C38 C 0.60994 0.0311 0.45061 0.0
C39 C 0.62532 0.02197 0.49341 0.0
C40 C 0.60095 0.02682 0.53176 0.0
C41 C 0.55981 0.03916 0.52683 0.0
H42 H 0.53077 0.40918 0.13899 0.0
H43 H 0.57528 0.54114 0.15195 0.0
H44 H 0.63817 0.45015 0.06702 0.0
H45 H 0.50735 0.45676 0.20097 0.0
H46 H 0.52524 0.5119 0.20532 0.0
H47 H 0.44877 0.43896 0.15508 0.0
H48 H 0.38066 0.54383 0.09494 0.0
H49 H 0.49794 0.56977 0.15388 0.0
C50 C 0.55246 0.43458 0.12985 0.0
C51 C 0.58428 0.42527 0.09988 0.0
C52 C 0.54886 0.47655 0.1484 0.0
C53 C 0.57779 0.50892 0.13729 0.0
C54 C 0.61008 0.49976 0.10776 0.0
C55 C 0.61264 0.45803 0.08873 0.0
C56 C 0.5151 0.48649 0.18115 0.0
C57 C 0.47766 0.50242 0.15678 0.0
C58 C 0.44614 0.47301 0.14556 0.0
C59 C 0.41063 0.48773 0.12385 0.0
C60 C 0.40768 0.532 0.11206 0.0
C61 C 0.43901 0.5615 0.12276 0.0
C62 C 0.47394 0.54677 0.14516 0.0
Zn63 Zn 0.09675 0.08942 0.96191 0.0
Zn64 Zn 0.06626 0.08428 0.06469 0.0
O65 O 0.07359 0.04875 0.00918 0.0
H66 H 0.05958 0.02165 0.00296 0.0
C67 C 0.97841 0.12481 0.8966 0.0
O68 O 0.99461 0.12715 0.9367 0.0
Zn69 Zn 0.95317 0.90759 0.05746 0.0
Zn70 Zn 0.92287 0.90062 0.95455 0.0
O71 O 0.94485 0.94248 0.00135 0.0
H72 H 0.95869 0.96966 0.99465 0.0
Zn73 Zn 0.92015 0.06873 0.94398 0.0
O74 O 0.95644 0.0599 0.99804 0.0
Zn75 Zn 0.92 0.05905 0.05134 0.0
H76 H 0.98441 0.04992 0.99706 0.0
Zn77 Zn 0.1158 0.91463 0.95185 0.0
O78 O 0.07442 0.93244 0.99854 0.0
H79 H 0.04633 0.94049 0.99299 0.0
Zn80 Zn 0.10273 0.9317 0.05749 0.0
C81 C 0.06367 0.85053 0.90733 0.0
O82 O 0.04605 0.85049 0.94684 0.0
O83 O 0.11334 0.14958 0.98672 0.0
O84 O 0.08975 0.14569 0.05646 0.0
O85 O 0.90959 0.83977 0.98016 0.0
O86 O 0.93118 0.84563 0.05048 0.0
O87 O 0.86054 0.0852 0.9598 0.0
O88 O 0.86277 0.0787 0.03379 0.0
C89 C 0.11031 0.01659 0.11355 0.0
O90 O 0.17289 0.90155 0.97789 0.0
O91 O 0.16243 0.91348 0.05038 0.0
O92 O 0.88395 0.92342 0.90454 0.0
C93 C 0.10795 0.16656 0.02514 0.0
O94 O 0.13182 0.0639 0.91014 0.0
C95 C 0.90955 0.9739 0.10666 0.0
O96 O 0.94668 0.10137 0.89066 0.0
C97 C 0.91458 0.82362 0.01907 0.0
O98 O 0.09442 0.87528 0.90056 0.0
C99 C 0.98102 0.10842 0.09977 0.0
O100 O 0.09889 0.05621 0.11447 0.0
O101 O 0.09717 0.99275 0.08184 0.0
C102 C 0.84334 0.08771 0.99798 0.0
O103 O 0.92023 0.93413 0.10761 0.0
O104 O 0.92198 -0.00274 0.07415 0.0
C105 C 0.03473 0.88405 0.09591 0.0
O106 O 0.94274 0.10159 0.09621 0.0
O107 O 1.00528 0.0849 0.07691 0.0
C108 C 0.18583 0.90257 0.01807 0.0
O109 O 0.07346 0.88804 0.09692 0.0
O110 O 0.01405 0.90876 0.07036 0.0
C111 C 0.85197 0.94521 0.91372 0.0
O112 O 0.84424 0.95508 0.95561 0.0
C113 C 0.16597 0.04577 0.91821 0.0
O114 O 0.17828 0.04232 0.95986 0.0
H115 H 0.93484 0.38256 0.37717 0.0
H116 H 0.95439 0.34088 0.31125 0.0
H117 H 0.07909 0.33618 0.3577 0.0
H118 H 0.06002 0.37897 0.42369 0.0
H119 H 0.01965 0.35445 0.24269 0.0
H120 H 0.03867 0.20575 0.34881 0.0
H121 H 0.01123 0.25298 0.36859 0.0
H122 H 0.06593 0.25475 0.36394 0.0
C123 C 0.96668 0.37382 0.37294 0.0
C124 C 0.99582 0.38398 0.40593 0.0
C125 C 0.97775 0.34977 0.33528 0.0
C126 C 0.01805 0.33515 0.32992 0.0
C127 C 0.04772 0.34683 0.36156 0.0
H128 H 0.05621 0.11947 0.13996 0.0
H129 H 0.07685 0.17831 0.19086 0.0
C130 C 0.03671 0.37112 0.39926 0.0
C131 C 0.02754 0.30479 0.29299 0.0
H132 H 0.0377 0.19599 0.27131 0.0
C133 C 0.02448 0.31992 0.24884 0.0
C134 C 0.03429 0.25987 0.30117 0.0
C135 C 0.03762 0.24202 0.3481 0.0
C136 C 0.02565 0.29084 0.21267 0.0
C137 C 0.0289 0.24551 0.22109 0.0
C138 C 0.03507 0.23077 0.26499 0.0
C139 C 0.0193 0.21272 0.18629 0.0
C140 C 0.02195 0.30873 0.16583 0.0
C141 C 0.98021 0.21248 0.16706 0.0
C142 C 0.96847 0.17901 0.13829 0.0
C143 C 0.99553 0.14489 0.12806 0.0
C144 C 0.035 0.14553 0.14662 0.0
C145 C 0.04673 0.17906 0.17581 0.0
H146 H 0.03432 0.34253 0.16368 0.0
H147 H 0.03836 0.2879 0.14136 0.0
H148 H 0.98916 0.30986 0.15635 0.0
H149 H 0.95812 0.23742 0.17557 0.0
H150 H 0.93781 0.17956 0.12458 0.0
H151 H 0.68874 0.06115 0.44665 0.0
H152 H 0.73628 0.05783 0.38407 0.0
H153 H 0.64243 -0.00035 0.302 0.0
H154 H 0.59488 0.00098 0.36552 0.0
H155 H 0.71311 0.9562 0.29519 0.0
H156 H 0.74509 0.13239 0.27374 0.0
H157 H 0.75418 0.11503 0.33012 0.0
H158 H 0.70317 0.11232 0.30751 0.0
C159 C 0.67814 0.04735 0.41542 0.0
C160 C 0.63802 0.03088 0.41131 0.0
C161 C 0.70524 0.04621 0.37936 0.0
C162 C 0.69277 0.02929 0.33802 0.0
C163 C 0.65262 0.01324 0.3335 0.0
H164 H 0.84879 0.03464 0.09922 0.0
H165 H 0.79553 0.0512 0.15421 0.0
C166 C 0.62543 0.01418 0.36975 0.0
C167 C 0.72268 0.02562 0.30075 0.0
H168 H 0.79412 0.08324 0.24101 0.0
C169 C 0.73045 0.98409 0.28299 0.0
C170 C 0.74495 0.06208 0.28426 0.0
C171 C 0.73611 0.10801 0.29957 0.0
C172 C 0.76095 0.97772 0.25062 0.0
C173 C 0.7851 0.01369 0.2364 0.0
C174 C 0.77617 0.05556 0.25262 0.0
C175 C 0.8199 0.00813 0.205 0.0
C176 C 0.76691 0.93244 0.23189 0.0
C177 C 0.85225 0.98008 0.21594 0.0
C178 C 0.88271 0.97093 0.18457 0.0
C179 C 0.88186 0.99028 0.14192 0.0
C180 C 0.85088 0.02036 0.13202 0.0
C181 C 0.82014 0.02933 0.16332 0.0
H182 H 0.73893 0.91205 0.23592 0.0
H183 H 0.77507 0.9337 0.19586 0.0
H184 H 0.79212 0.9161 0.25016 0.0
H185 H 0.85325 0.96417 0.2483 0.0
H186 H 0.90627 0.9476 0.19322 0.0
H187 H 0.96924 0.5752 0.37345 0.0
H188 H 0.97921 0.62162 0.30724 0.0
H189 H 0.9031 0.72072 0.36657 0.0
H190 H 0.89406 0.67502 0.43313 0.0
H191 H 0.9281 0.66082 0.2456 0.0
H192 H 0.00986 0.78544 0.34653 0.0
H193 H 0.99744 0.73194 0.36808 0.0
H194 H 0.95917 0.77402 0.36655 0.0
C195 C 0.95433 0.6067 0.37199 0.0
C196 C 0.93142 0.62196 0.40847 0.0
C197 C 0.96001 0.63314 0.33428 0.0
C198 C 0.94265 0.67498 0.33252 0.0
C199 C 0.91766 0.68903 0.36781 0.0
H200 H 0.97191 0.8959 0.15373 0.0
H201 H 0.94332 0.84256 0.20651 0.0
C202 C 0.91243 0.66293 0.40567 0.0
C203 C 0.95242 0.70491 0.29502 0.0
H204 H 0.99528 0.80418 0.27152 0.0
C205 C 0.94278 0.69218 0.2512 0.0
C206 C 0.97196 0.74561 0.30244 0.0
C207 C 0.98561 0.75994 0.34837 0.0
C208 C 0.95162 0.71948 0.2146 0.0
C209 C 0.97063 0.76033 0.22221 0.0
C210 C 0.98019 0.77303 0.26597 0.0
C211 C 0.98286 0.78993 0.18541 0.0
C212 C 0.94047 0.70456 0.16818 0.0
C213 C 0.01419 0.77782 0.15587 0.0
C214 C 0.03018 0.80821 0.12554 0.0
C215 C 0.01476 0.8509 0.12409 0.0
C216 C 0.9828 0.86265 0.15285 0.0
C217 C 0.96693 0.83239 0.18335 0.0
H218 H 0.91627 0.67895 0.16884 0.0
H219 H 0.92978 0.73235 0.14751 0.0
H220 H 0.96798 0.69066 0.15184 0.0
H221 H 0.0275 0.74552 0.15766 0.0
H222 H 0.05524 0.79871 0.10395 0.0
H223 H 0.40093 0.04187 0.37122 0.0
H224 H 0.35266 0.0279 0.31061 0.0
H225 H 0.322 0.90308 0.36878 0.0
H226 H 0.37109 0.9162 0.42918 0.0
H227 H 0.33858 0.95036 0.24711 0.0
H228 H 0.21525 0.98288 0.3716 0.0
H229 H 0.26751 -0.00018 0.38095 0.0
H230 H 0.25374 0.94322 0.38553 0.0
C231 C 0.38506 0.01076 0.37046 0.0
C232 C 0.38971 0.98034 0.40543 0.0
C233 C 0.35728 0.00293 0.33581 0.0
C234 C 0.33351 0.96467 0.33549 0.0
C235 C 0.33988 0.93296 0.36863 0.0
H236 H 0.13903 0.93271 0.12947 0.0
H237 H 0.19316 0.91118 0.18205 0.0
C238 C 0.36781 0.94064 0.40321 0.0
C239 C 0.29899 0.96068 0.3036 0.0
H240 H 0.19566 0.97538 0.29675 0.0
C241 C 0.3072 0.95496 0.25791 0.0
C242 C 0.25815 0.96685 0.31793 0.0
C243 C 0.2478 0.97376 0.3666 0.0
C244 C 0.27565 0.95681 0.22596 0.0
C245 C 0.23511 0.96495 0.24022 0.0
C246 C 0.22676 0.96887 0.28604 0.0
C247 C 0.20223 0.97633 0.20818 0.0
C248 C 0.28596 0.95235 0.17703 0.0
C249 C 0.18902 0.01972 0.20606 0.0
C250 C 0.15871 0.03207 0.17594 0.0
C251 C 0.14059 0.00128 0.14712 0.0
C252 C 0.15302 0.95741 0.15016 0.0
C253 C 0.18382 0.94504 0.18034 0.0
H254 H 0.31934 0.94845 0.17125 0.0
H255 H 0.26988 0.92343 0.16313 0.0
H256 H 0.2752 0.98151 0.15836 0.0
H257 H 0.20268 0.04433 0.22741 0.0
H258 H 0.14999 0.06615 0.17488 0.0
H259 H 0.899 0.58966 0.61288 0.0
H260 H 0.91624 0.63079 0.68073 0.0
H261 H 0.02016 0.68798 0.61319 0.0
H262 H 1.00349 0.64689 0.54571 0.0
H263 H 0.99129 0.63399 0.73222 0.0
H264 H 0.95214 0.79388 0.65622 0.0
H265 H 0.9357 0.74249 0.63263 0.0
H266 H 0.987 0.762 0.6234 0.0
C267 C 0.92579 0.6106 0.61273 0.0
C268 C 0.94959 0.6155 0.57379 0.0
C269 C 0.93547 0.63417 0.65138 0.0
C270 C 0.96895 0.66303 0.65154 0.0
C271 C 0.99363 0.66662 0.61334 0.0
H272 H 0.09397 0.84186 0.82266 0.0
H273 H 0.06823 0.7948 0.76308 0.0
C274 C 0.98404 0.64316 0.57483 0.0
C275 C 0.97813 0.69005 0.69125 0.0
H276 H 0.9893 0.79593 0.72465 0.0
C277 C 0.99043 0.66938 0.73089 0.0
C278 C 0.97673 0.73618 0.68928 0.0
C279 C 0.96181 0.76003 0.64825 0.0
C280 C 1.00324 0.6938 0.76808 0.0
C281 C 1.00311 0.73996 0.76554 0.0
C282 C 0.98959 0.76053 0.72635 0.0
C283 C 0.01858 0.76768 0.80235 0.0
C284 C 0.01833 0.67011 0.80911 0.0
C285 C 0.9989 0.76828 0.84406 0.0
C286 C 0.01356 0.79517 0.87828 0.0
C287 C 0.04803 0.82204 0.87123 0.0
C288 C 0.06743 0.82152 0.82925 0.0
C289 C 0.05276 0.79467 0.79514 0.0
H290 H 0.02432 0.63504 0.80237 0.0
H291 H 0.04684 0.68546 0.82189 0.0
H292 H 0.9948 0.67213 0.8358 0.0
H293 H 0.97201 0.74829 0.85 0.0
H294 H 0.99776 0.79499 0.91014 0.0
H295 H 0.33173 0.01262 0.54258 0.0
H296 H 0.29488 0.01025 0.61342 0.0
H297 H 0.40688 0.97922 0.68242 0.0
H298 H 0.44427 0.9817 0.61115 0.0
H299 H 0.28487 0.94389 0.67543 0.0
H300 H 0.36621 0.08625 0.74984 0.0
H301 H 0.37007 0.07293 0.69128 0.0
H302 H 0.39818 0.042 0.73197 0.0
C303 C 0.34853 0.00466 0.57267 0.0
C304 C 0.39095 -0.00288 0.57119 0.0
C305 C 0.32741 0.00352 0.61322 0.0
C306 C 0.34816 0.99503 0.65328 0.0
C307 C 0.39039 0.98664 0.65199 0.0
H308 H 0.24364 0.01284 0.92338 0.0
H309 H 0.28939 0.99436 0.86136 0.0
C310 C 0.41168 0.98796 0.61129 0.0
C311 C 0.32517 0.9959 0.6961 0.0
H312 H 0.31452 0.05328 0.7932 0.0
C313 C 0.29157 0.96756 0.70136 0.0
C314 C 0.334 0.02674 0.72997 0.0
C315 C 0.36884 0.059 0.72556 0.0
C316 C 0.26602 0.9699 0.73905 0.0
C317 C 0.27402 0.00174 0.77208 0.0
C318 C 0.3085 0.02892 0.76775 0.0
C319 C 0.24542 0.00958 0.80971 0.0
C320 C 0.23045 0.93855 0.74303 0.0
C321 C 0.20556 0.02423 0.80118 0.0
C322 C 0.17942 0.035 0.83644 0.0
C323 C 0.1927 0.03147 0.881 0.0
C324 C 0.23243 0.01595 0.88947 0.0
C325 C 0.25864 0.00537 0.85411 0.0
H326 H 0.23523 0.90885 0.72243 0.0
H327 H 0.22549 0.9285 0.77833 0.0
H328 H 0.20225 0.95485 0.73102 0.0
H329 H 0.195 0.02848 0.76714 0.0
H330 H 0.14907 0.0469 0.8287 0.0
H331 H 0.93396 0.38058 0.60101 0.0
H332 H 0.95301 0.33987 0.66762 0.0
H333 H 0.07835 0.33584 0.62262 0.0
H334 H 0.05965 0.37768 0.5557 0.0
H335 H 0.04635 0.25434 0.64487 0.0
H336 H 0.01641 0.37205 0.78054 0.0
H337 H 0.97424 0.36903 0.74234 0.0
H338 H 0.02317 0.38877 0.723 0.0
C339 C 0.96585 0.37233 0.60576 0.0
C340 C 0.99533 0.38268 0.57306 0.0
C341 C 0.97669 0.34897 0.64394 0.0
C342 C 0.01721 0.33548 0.6504 0.0
C343 C 0.04698 0.34632 0.61837 0.0
H344 H 0.04011 0.18562 0.89992 0.0
H345 H 0.06157 0.23574 0.84026 0.0
C346 C 0.03618 0.36997 0.5801 0.0
C347 C 0.02688 0.30631 0.68839 0.0
H348 H 0.01062 0.29526 0.80043 0.0
C349 C 0.03956 0.26354 0.67908 0.0
C350 C 0.01878 0.31854 0.73305 0.0
C351 C 0.00783 0.36478 0.7454 0.0
C352 C 0.04086 0.23168 0.71282 0.0
C353 C 0.02859 0.24288 0.75664 0.0
C354 C 0.01946 0.28654 0.76665 0.0
C355 C 0.01994 0.20926 0.79102 0.0
C356 C 0.05387 0.18596 0.70088 0.0
C357 C 0.9896 0.17769 0.78296 0.0
C358 C 0.97717 0.14923 0.81686 0.0
C359 C 0.99465 0.15198 0.85965 0.0
C360 C 0.02601 0.18271 0.86731 0.0
C361 C 0.03836 0.21133 0.8333 0.0
H362 H 0.0754 0.18617 0.67209 0.0
H363 H 0.06873 0.16939 0.72962 0.0
H364 H 0.02653 0.16665 0.69103 0.0
H365 H 0.97429 0.17619 0.75091 0.0
H366 H 0.95296 0.12597 0.80984 0.0
H367 H 0.57029 0.98457 0.60605 0.0
H368 H 0.6044 0.97425 0.67853 0.0
H369 H 0.70876 0.04731 0.63051 0.0
H370 H 0.6747 0.0587 0.5591 0.0
H371 H 0.67739 0.9321 0.6937 0.0
H372 H 0.68917 0.10305 0.75139 0.0
H373 H 0.6554 0.08666 0.70667 0.0
H374 H 0.70883 0.09676 0.69578 0.0
C375 C 0.60022 -0.00102 0.61132 0.0
C376 C 0.61992 0.02212 0.57672 0.0
C377 C 0.61972 0.99295 0.65262 0.0
C378 C 0.65892 0.01052 0.66016 0.0
C379 C 0.67822 0.0342 0.62588 0.0
H380 H 0.85699 0.92611 0.8246 0.0
H381 H 0.80685 0.94189 0.76639 0.0
C382 C 0.6589 0.04015 0.58479 0.0
C383 C 0.68128 0.0018 0.70244 0.0
H384 H 0.73635 0.0521 0.78471 0.0
C385 C 0.68975 0.95832 0.71401 0.0
C386 C 0.69696 0.03596 0.72935 0.0
C387 C 0.68676 0.0832 0.72045 0.0
C388 C 0.71523 0.94817 0.75032 0.0
C389 C 0.73332 0.98245 0.77521 0.0
C390 C 0.72306 0.02585 0.76516 0.0
C391 C 0.76407 0.97394 0.81066 0.0
C392 C 0.72275 0.90079 0.76147 0.0
C393 C 0.75748 0.98824 0.85464 0.0
C394 C 0.78633 0.9796 0.88804 0.0
C395 C 0.82244 0.95668 0.87799 0.0
C396 C 0.82941 0.94352 0.83362 0.0
C397 C 0.8006 0.9522 0.80032 0.0
H398 H 0.69766 0.87953 0.74892 0.0
H399 H 0.7516 0.89016 0.74528 0.0
H400 H 0.72575 0.89583 0.79811 0.0
H401 H 0.72971 0.00552 0.86326 0.0
H402 H 0.7801 0.99045 0.92179 0.0
H403 H 0.32921 0.50335 0.13654 0.0
H404 H 0.27168 0.45407 0.12229 0.0
H405 H 0.35541 0.35484 0.0774 0.0
H406 H 0.41326 0.40408 0.09145 0.0
H407 H 0.24708 0.41478 0.04341 0.0
H408 H 0.28672 0.29094 0.17162 0.0
H409 H 0.30994 0.34454 0.17013 0.0
H410 H 0.32764 0.30236 0.13317 0.0
C411 C 0.3354 0.47113 0.12334 0.0
C412 C 0.37582 0.45758 0.11512 0.0
C413 C 0.30249 0.44297 0.11542 0.0
C414 C 0.30932 0.40064 0.09939 0.0
C415 C 0.34955 0.38709 0.0907 0.0
H416 H 0.15308 0.21781 0.96845 0.0
H417 H 0.19644 0.27962 0.98821 0.0
C418 C 0.38255 0.41523 0.0987 0.0
C419 C 0.27425 0.37089 0.09119 0.0
H420 H 0.23537 0.27085 0.11895 0.0
C421 C 0.24429 0.38345 0.06017 0.0
C422 C 0.27025 0.33046 0.11375 0.0
C423 C 0.30011 0.31637 0.14936 0.0
C424 C 0.21122 0.35584 0.04984 0.0
C425 C 0.20846 0.31439 0.07064 0.0
C426 C 0.23761 0.30257 0.10287 0.0
C427 C 0.1774 0.28142 0.05751 0.0
C428 C 0.1796 0.37131 0.01677 0.0
C429 C 0.15188 0.26204 0.08981 0.0
C430 C 0.12717 0.22627 0.07871 0.0
C431 C 0.12784 0.20904 0.03512 0.0
C432 C 0.15177 0.23013 0.00233 0.0
C433 C 0.17647 0.26576 0.0135 0.0
H434 H 0.17841 0.40755 0.01534 0.0
H435 H 0.18783 0.35939 0.98294 0.0
H436 H 0.14867 0.35862 0.02534 0.0
H437 H 0.1522 0.27361 0.12401 0.0
H438 H 0.10906 0.21095 0.10477 0.0
H439 H 0.41247 0.62433 0.17902 0.0
H440 H 0.38585 0.69625 0.15775 0.0
H441 H 0.42468 0.67455 0.0217 0.0
H442 H 0.45 0.60195 0.0428 0.0
H443 H 0.41238 0.77339 0.11517 0.0
H444 H 0.30061 0.68029 0.01214 0.0
H445 H 0.3346 0.65397 0.05106 0.0
H446 H 0.35319 0.6717 0.99734 0.0
C447 C 0.41635 0.63565 0.14493 0.0
C448 C 0.43311 0.60806 0.11242 0.0
C449 C 0.40118 0.67661 0.13278 0.0
C450 C 0.40262 0.69035 0.08799 0.0
C451 C 0.42267 0.66422 0.05629 0.0
H452 H 0.2453 0.87927 0.95835 0.0
H453 H 0.30633 0.83624 0.97388 0.0
C454 C 0.43735 0.62303 0.06833 0.0
C455 C 0.37837 0.72872 0.07372 0.0
H456 H 0.29425 0.75632 0.01268 0.0
C457 C 0.38679 0.76987 0.0924 0.0
C458 C 0.34468 0.72388 0.0444 0.0
C459 C 0.33237 0.68008 0.02535 0.0
C460 C 0.36221 0.80628 0.08263 0.0
C461 C 0.32832 0.80115 0.05377 0.0
C462 C 0.32057 0.76028 0.03438 0.0
C463 C 0.29806 0.83619 0.04564 0.0
C464 C 0.37251 0.84979 0.10339 0.0
C465 C 0.27402 0.85189 0.081 0.0
C466 C 0.239 0.87654 0.07225 0.0
C467 C 0.2272 0.88542 0.02793 0.0
C468 C 0.25319 0.8726 0.99285 0.0
C469 C 0.28821 0.84811 0.00165 0.0
H470 H 0.40525 0.85161 0.1132 0.0
H471 H 0.36571 0.87709 0.08008 0.0
H472 H 0.35374 0.85423 0.13398 0.0
H473 H 0.28059 0.8425 0.11517 0.0
H474 H 0.21979 0.88603 0.10009 0.0
H475 H 0.597 0.35191 0.14908 0.0
H476 H 0.62552 0.28288 0.12209 0.0
H477 H 0.6155 0.32895 0.98613 0.0
H478 H 0.58865 0.39871 0.01327 0.0
H479 H 0.60724 0.21585 0.06359 0.0
H480 H 0.73765 0.31612 0.00097 0.0
H481 H 0.69773 0.33864 0.03538 0.0
H482 H 0.68924 0.32984 0.97665 0.0
C483 C 0.59987 0.34671 0.1134 0.0
C484 C 0.59113 0.38053 0.08318 0.0
C485 C 0.61618 0.30735 0.09799 0.0
C486 C 0.62362 0.30126 0.05218 0.0
C487 C 0.611 0.33344 0.02169 0.0
H488 H 0.79569 0.12054 0.93057 0.0
H489 H 0.73432 0.16514 0.9388 0.0
C490 C 0.59543 0.37307 0.03713 0.0
C491 C 0.64906 0.26404 0.03716 0.0
H492 H 0.74171 0.24057 0.99043 0.0
C493 C 0.63647 0.22116 0.04719 0.0
C494 C 0.68742 0.27107 0.01613 0.0
C495 C 0.70409 0.31635 0.00699 0.0
C496 C 0.66145 0.18519 0.03713 0.0
C497 C 0.69994 0.19245 0.01675 0.0
C498 C 0.71192 0.23512 0.00558 0.0
C499 C 0.73045 0.15734 0.01057 0.0
C500 C 0.64676 0.13982 0.04877 0.0
C501 C 0.74787 0.13709 0.04806 0.0
C502 C 0.7831 0.11178 0.04356 0.0
C503 C 0.80172 0.10651 0.00146 0.0
C504 C 0.78238 0.12414 0.96353 0.0
C505 C 0.7472 0.14957 0.96811 0.0
H506 H 0.61289 0.13845 0.05183 0.0
H507 H 0.6567 0.11582 0.02321 0.0
H508 H 0.66001 0.12999 0.08139 0.0
H509 H 0.73589 0.14326 0.08123 0.0
H510 H 0.797 0.09851 0.07347 0.0
H511 H 0.64554 0.52018 0.02748 0.0
H512 H 0.7029 0.57017 0.01374 0.0
H513 H 0.70554 0.60355 0.15367 0.0
H514 H 0.64879 0.55287 0.1679 0.0
H515 H 0.70665 0.66073 0.03153 0.0
H516 H 0.82515 0.56942 0.12596 0.0
H517 H 0.77718 0.54495 0.10922 0.0
H518 H 0.77908 0.58089 0.15656 0.0
C519 C 0.65847 0.53804 0.05535 0.0
C520 C 0.64274 0.53251 0.09879 0.0
C521 C 0.69115 0.56659 0.04744 0.0
C522 C 0.7089 0.58986 0.08283 0.0
C523 C 0.69276 0.58519 0.12607 0.0
H524 H 0.89364 0.79134 0.1013 0.0
H525 H 0.84699 0.73043 0.11668 0.0
C526 C 0.65998 0.55672 0.13401 0.0
C527 C 0.74347 0.62011 0.07412 0.0
H528 H 0.84398 0.63963 0.09872 0.0
C529 C 0.73675 0.656 0.04595 0.0
C530 C 0.78259 0.61385 0.09325 0.0
C531 C 0.79172 0.57502 0.12267 0.0
C532 C 0.76793 0.68637 0.03696 0.0
C533 C 0.80718 0.68002 0.05581 0.0
C534 C 0.81394 0.64415 0.08409 0.0
C535 C 0.841 0.71133 0.0474 0.0
C536 C 0.75818 0.72565 0.00832 0.0
C537 C 0.85483 0.7191 0.00368 0.0
C538 C 0.88133 0.75394 0.99473 0.0
C539 C 0.89481 0.78126 0.0295 0.0
C540 C 0.8838 0.77093 0.07377 0.0
C541 C 0.85702 0.73622 0.08263 0.0
H542 H 0.72469 0.73124 0.00584 0.0
H543 H 0.77281 0.75562 0.02188 0.0
H544 H 0.77011 0.72029 0.97403 0.0
H545 H 0.84356 0.69952 0.97617 0.0
H546 H 0.88965 0.76074 0.96034 0.0
loop_
_geom_bond_atom_site_label_1
_geom_bond_atom_site_label_2
_geom_bond_distance
_geom_bond_site_symmetry_2
_ccdc_geom_bond_type
H0 C8 0.930 . S
H1 C11 0.930 . S
H2 C13 0.930 . S
H3 C14 0.970 . S
H4 C14 0.970 . S
H5 C16 0.930 . S
H6 C18 0.930 . S
H7 C20 0.930 . S
C8 H0 0.930 . S
C8 C9 1.382 . S
C8 C10 1.426 . S
C9 C8 1.382 . S
C9 C13 1.389 1_655 S
C10 C8 1.426 . S
C10 C11 1.375 . S
C10 C14 1.532 . S
C11 H1 0.930 . S
C11 C10 1.375 . S
C11 C12 1.416 . S
C12 C11 1.416 . S
C12 C13 1.371 1_655 S
C13 H2 0.930 . S
C13 C9 1.389 1_455 S
C13 C12 1.371 1_455 S
C14 H3 0.970 . S
C14 H4 0.970 . S
C14 C10 1.532 . S
C14 C15 1.499 . S
C15 C14 1.499 . S
C15 C16 1.370 . S
C15 C20 1.415 . S
C16 H5 0.930 . S
C16 C15 1.370 . S
C16 C17 1.407 . S
C17 C16 1.407 . S
C17 C18 1.365 1_655 S
C18 H6 0.930 . S
C18 C17 1.365 1_455 S
C18 C19 1.393 1_455 S
C19 C18 1.393 1_655 S
C19 C20 1.387 . S
C20 H7 0.930 . S
C20 C15 1.415 . S
C20 C19 1.387 . S
H21 C29 0.930 . S
H22 C32 0.930 . S
H23 C34 0.930 . S
H24 C35 0.970 . S
H25 C35 0.970 . S
H26 C37 0.930 . S
H27 C39 0.930 . S
H28 C41 0.930 . S
C29 H21 0.930 . S
C29 C30 1.382 . S
C29 C31 1.426 . S
C30 C29 1.382 . S
C30 C34 1.389 1_545 S
C31 C29 1.426 . S
C31 C32 1.375 . S
C31 C35 1.532 . S
C32 H22 0.930 . S
C32 C31 1.375 . S
C32 C33 1.416 . S
C33 C32 1.416 . S
C33 C34 1.371 1_545 S
C34 H23 0.930 . S
C34 C30 1.389 1_565 S
C34 C33 1.371 1_565 S
C35 H24 0.970 . S
C35 H25 0.970 . S
C35 C31 1.532 . S
C35 C36 1.499 . S
C36 C35 1.499 . S
C36 C37 1.370 . S
C36 C41 1.415 . S
C37 H26 0.930 . S
C37 C36 1.370 . S
C37 C38 1.407 . S
C38 C37 1.407 . S
C38 C39 1.365 1_545 S
C39 H27 0.930 . S
C39 C38 1.365 1_565 S
C39 C40 1.393 1_565 S
C40 C39 1.393 1_545 S
C40 C41 1.387 . S
C41 H28 0.930 . S
C41 C36 1.415 . S
C41 C40 1.387 . S
H42 C50 0.930 . S
H43 C53 0.930 . S
H44 C55 0.930 . S
H45 C56 0.970 . S
H46 C56 0.970 . S
H47 C58 0.930 . S
H48 C60 0.930 1_556 S
H49 C62 0.930 . S
C50 H42 0.930 . S
C50 C51 1.382 . S
C50 C52 1.426 . S
C51 C50 1.382 . S
C51 C55 1.389 . S
C52 C50 1.426 . S
C52 C53 1.375 . S
C52 C56 1.532 . S
C53 H43 0.930 . S
C53 C52 1.375 . S
C53 C54 1.416 . S
C54 C53 1.416 . S
C54 C55 1.371 . S
C55 H44 0.930 . S
C55 C51 1.389 . S
C55 C54 1.371 . S
C56 H45 0.970 . S
C56 H46 0.970 . S
C56 C52 1.532 . S
C56 C57 1.499 . S
C57 C56 1.499 . S
C57 C58 1.370 . S
C57 C62 1.415 . S
C58 H47 0.930 . S
C58 C57 1.370 . S
C58 C59 1.407 . S
C59 C58 1.407 . S
C59 C60 1.365 . S
C60 H48 0.930 1_554 S
C60 C59 1.365 . S
C60 C61 1.393 . S
C61 C60 1.393 . S
C61 C62 1.387 . S
C62 H49 0.930 . S
C62 C57 1.415 . S
C62 C61 1.387 . S
Zn63 O65 1.933 1_556 S
Zn63 O83 1.985 . S
Zn63 O94 1.955 . S
Zn64 O65 1.911 . S
Zn64 O84 1.970 . S
Zn64 O100 1.945 . S
Zn64 O107 1.981 . S
O65 Zn63 1.933 1_554 S
O65 Zn64 1.911 . S
O65 H66 0.841 . S
H66 O65 0.841 . S
C67 O68 1.246 . S
C67 O96 1.276 1_455 S
O68 C67 1.246 . S
Zn69 O71 1.911 . S
Zn69 O86 1.970 . S
Zn69 O103 1.945 . S
Zn69 O110 1.981 . S
Zn70 O71 1.933 1_556 S
Zn70 O85 1.985 . S
Zn70 O92 1.955 . S
O71 Zn69 1.911 . S
O71 Zn70 1.933 1_554 S
O71 H72 0.841 . S
H72 O71 0.841 . S
Zn73 O74 1.933 1_556 S
Zn73 O87 1.985 . S
Zn73 O96 1.955 . S
O74 Zn73 1.933 1_554 S
O74 Zn75 1.911 . S
O74 H76 0.841 . S
Zn75 O74 1.911 . S
Zn75 O88 1.970 . S
Zn75 O104 1.981 . S
Zn75 O106 1.945 . S
H76 O74 0.841 . S
Zn77 O78 1.933 1_556 S
Zn77 O90 1.985 . S
Zn77 O98 1.955 . S
O78 Zn77 1.933 1_554 S
O78 H79 0.841 . S
O78 Zn80 1.911 . S
H79 O78 0.841 . S
Zn80 O78 1.911 . S
Zn80 O91 1.970 . S
Zn80 O101 1.981 . S
Zn80 O109 1.945 . S
C81 O82 1.246 . S
C81 O98 1.276 1_655 S
O82 C81 1.246 . S
O83 Zn63 1.985 . S
O83 C93 1.245 1_556 S
O84 Zn64 1.970 . S
O84 C93 1.263 . S
O85 Zn70 1.985 . S
O85 C97 1.245 1_556 S
O86 Zn69 1.970 . S
O86 C97 1.263 . S
O87 Zn73 1.985 . S
O87 C102 1.245 1_556 S
O88 Zn75 1.970 . S
O88 C102 1.263 . S
C89 O100 1.277 . S
C89 O101 1.236 1_545 S
O90 Zn77 1.985 . S
O90 C108 1.245 1_556 S
O91 Zn80 1.970 . S
O91 C108 1.263 . S
O92 Zn70 1.955 . S
O92 C111 1.276 1_565 S
C93 O83 1.245 1_554 S
C93 O84 1.263 . S
O94 Zn63 1.955 . S
O94 C113 1.276 1_545 S
C95 O103 1.274 . S
C95 O104 1.238 1_565 S
O96 C67 1.276 1_655 S
O96 Zn73 1.955 . S
C97 O85 1.245 1_554 S
C97 O86 1.263 . S
O98 Zn77 1.955 . S
O98 C81 1.276 1_455 S
C99 O106 1.265 1_455 S
C99 O107 1.243 . S
O100 Zn64 1.945 . S
O100 C89 1.277 . S
O101 Zn80 1.981 . S
O101 C89 1.236 1_565 S
C102 O87 1.245 1_554 S
C102 O88 1.263 . S
O103 Zn69 1.945 . S
O103 C95 1.274 . S
O104 Zn75 1.981 . S
O104 C95 1.238 1_545 S
C105 O109 1.267 . S
C105 O110 1.242 1_455 S
O106 Zn75 1.945 . S
O106 C99 1.265 1_655 S
O107 Zn64 1.981 . S
O107 C99 1.243 . S
C108 O90 1.245 1_554 S
C108 O91 1.263 . S
O109 Zn80 1.945 . S
O109 C105 1.267 . S
O110 Zn69 1.981 . S
O110 C105 1.242 1_655 S
C111 O92 1.276 1_545 S
C111 O112 1.246 . S
O112 C111 1.246 . S
C113 O94 1.276 1_565 S
C113 O114 1.246 . S
O114 C113 1.246 . S
H115 C123 0.929 . S
H116 C125 0.930 . S
H117 C127 0.930 . S
H118 C130 0.929 . S
H119 C133 0.930 . S
H120 C135 0.960 . S
H121 C135 0.960 . S
H122 C135 0.960 1_455 S
C123 H115 0.929 . S
C123 C124 1.377 . S
C123 C125 1.384 . S
C124 C123 1.377 . S
C124 C130 1.390 1_655 S
C125 H116 0.930 . S
C125 C123 1.384 . S
C125 C126 1.372 . S
C126 C125 1.372 . S
C126 C127 1.400 1_655 S
C126 C131 1.490 . S
C127 H117 0.930 . S
C127 C126 1.400 1_455 S
C127 C130 1.386 . S
H128 C144 0.930 . S
H129 C145 0.931 . S
C130 H118 0.929 . S
C130 C124 1.390 1_455 S
C130 C127 1.386 . S
C131 C126 1.490 . S
C131 C133 1.394 1_655 S
C131 C134 1.403 . S
H132 C138 0.930 . S
C133 H119 0.930 . S
C133 C131 1.394 1_455 S
C133 C136 1.403 . S
C134 C131 1.403 . S
C134 C135 1.526 . S
C134 C138 1.399 1_655 S
C135 H120 0.960 . S
C135 H121 0.960 . S
C135 H122 0.960 1_655 S
C135 C134 1.526 . S
C136 C133 1.403 . S
C136 C137 1.392 . S
C136 C140 1.495 . S
C137 C136 1.392 . S
C137 C138 1.385 . S
C137 C139 1.478 . S
C138 H132 0.930 . S
C138 C134 1.399 1_455 S
C138 C137 1.385 . S
C139 C137 1.478 . S
C139 C141 1.381 1_455 S
C139 C145 1.383 . S
C140 C136 1.495 . S
C140 H146 0.959 . S
C140 H147 0.961 . S
C140 H148 0.960 1_455 S
C141 C139 1.381 1_655 S
C141 C142 1.394 . S
C141 H149 0.930 . S
C142 C141 1.394 . S
C142 C143 1.383 1_655 S
C142 H150 0.929 . S
C143 C142 1.383 1_455 S
C143 C144 1.377 . S
C144 H128 0.930 . S
C144 C143 1.377 . S
C144 C145 1.379 . S
C145 H129 0.931 . S
C145 C139 1.383 . S
C145 C144 1.379 . S
H146 C140 0.959 . S
H147 C140 0.961 . S
H148 C140 0.960 1_655 S
H149 C141 0.930 . S
H150 C142 0.929 . S
H151 C159 0.929 . S
H152 C161 0.930 . S
H153 C163 0.931 . S
H154 C166 0.930 . S
H155 C169 0.930 . S
H156 C171 0.960 . S
H157 C171 0.960 . S
H158 C171 0.960 . S
C159 H151 0.929 . S
C159 C160 1.378 . S
C159 C161 1.384 1_565 S
C160 C159 1.378 . S
C160 C166 1.390 . S
C161 H152 0.930 . S
C161 C159 1.384 1_545 S
C161 C162 1.372 . S
C162 C161 1.372 . S
C162 C163 1.400 . S
C162 C167 1.490 . S
C163 H153 0.931 . S
C163 C162 1.400 . S
C163 C166 1.385 1_545 S
H164 C180 0.931 . S
H165 C181 0.931 . S
C166 H154 0.930 . S
C166 C160 1.390 . S
C166 C163 1.385 1_565 S
C167 C162 1.490 . S
C167 C169 1.395 1_545 S
C167 C170 1.403 . S
H168 C174 0.930 . S
C169 H155 0.930 . S
C169 C167 1.395 1_565 S
C169 C172 1.403 . S
C170 C167 1.403 . S
C170 C171 1.524 . S
C170 C174 1.400 . S
C171 H156 0.960 . S
C171 H157 0.960 . S
C171 H158 0.960 . S
C171 C170 1.524 . S
C172 C169 1.403 . S
C172 C173 1.392 . S
C172 C176 1.495 . S
C173 C172 1.392 . S
C173 C174 1.385 1_565 S
C173 C175 1.478 . S
C174 H168 0.930 . S
C174 C170 1.400 . S
C174 C173 1.385 1_545 S
C175 C173 1.478 . S
C175 C177 1.381 1_565 S
C175 C181 1.383 . S
C176 C172 1.495 . S
C176 H182 0.959 . S
C176 H183 0.961 . S
C176 H184 0.960 . S
C177 C175 1.381 1_545 S
C177 C178 1.394 . S
C177 H185 0.930 . S
C178 C177 1.394 . S
C178 C179 1.383 . S
C178 H186 0.929 . S
C179 C178 1.383 . S
C179 C180 1.375 1_545 S
C180 H164 0.931 . S
C180 C179 1.375 1_565 S
C180 C181 1.381 . S
C181 H165 0.931 . S
C181 C175 1.383 . S
C181 C180 1.381 . S
H182 C176 0.959 . S
H183 C176 0.961 . S
H184 C176 0.960 . S
H185 C177 0.930 . S
H186 C178 0.929 . S
H187 C195 0.929 . S
H188 C197 0.930 . S
H189 C199 0.930 . S
H190 C202 0.929 . S
H191 C205 0.930 . S
H192 C207 0.960 . S
H193 C207 0.960 . S
H194 C207 0.960 1_655 S
C195 H187 0.929 . S
C195 C196 1.377 . S
C195 C197 1.384 . S
C196 C195 1.377 . S
C196 C202 1.390 1_455 S
C197 H188 0.930 . S
C197 C195 1.384 . S
C197 C198 1.372 . S
C198 C197 1.372 . S
C198 C199 1.400 1_455 S
C198 C203 1.490 . S
C199 H189 0.930 . S
C199 C198 1.400 1_655 S
C199 C202 1.386 . S
H200 C216 0.930 . S
H201 C217 0.931 . S
C202 H190 0.929 . S
C202 C196 1.390 1_655 S
C202 C199 1.386 . S
C203 C198 1.490 . S
C203 C205 1.393 1_455 S
C203 C206 1.404 . S
H204 C210 0.930 . S
C205 H191 0.930 . S
C205 C203 1.393 1_655 S
C205 C208 1.403 . S
C206 C203 1.404 . S
C206 C207 1.524 . S
C206 C210 1.400 . S
C207 H192 0.960 . S
C207 H193 0.960 . S
C207 H194 0.960 1_455 S
C207 C206 1.524 . S
C208 C205 1.403 . S
C208 C209 1.392 . S
C208 C212 1.495 . S
C209 C208 1.392 . S
C209 C210 1.385 1_655 S
C209 C211 1.478 . S
C210 H204 0.930 . S
C210 C206 1.400 . S
C210 C209 1.385 1_455 S
C211 C209 1.478 . S
C211 C213 1.381 1_655 S
C211 C217 1.383 . S
C212 C208 1.495 . S
C212 H218 0.959 . S
C212 H219 0.961 . S
C212 H220 0.960 1_655 S
C213 C211 1.381 1_455 S
C213 C214 1.394 . S
C213 H221 0.930 . S
C214 C213 1.394 . S
C214 C215 1.383 1_455 S
C214 H222 0.929 . S
C215 C214 1.383 1_655 S
C215 C216 1.377 . S
C216 H200 0.930 . S
C216 C215 1.377 . S
C216 C217 1.379 . S
C217 H201 0.931 . S
C217 C211 1.383 . S
C217 C216 1.379 . S
H218 C212 0.959 . S
H219 C212 0.961 . S
H220 C212 0.960 1_455 S
H221 C213 0.930 . S
H222 C214 0.929 . S
H223 C231 0.929 . S
H224 C233 0.930 . S
H225 C235 0.930 . S
H226 C238 0.929 . S
H227 C241 0.930 . S
H228 C243 0.960 . S
H229 C243 0.960 . S
H230 C243 0.960 . S
C231 H223 0.929 . S
C231 C232 1.377 . S
C231 C233 1.384 . S
C232 C231 1.377 . S
C232 C238 1.390 1_545 S
C233 H224 0.930 . S
C233 C231 1.384 . S
C233 C234 1.372 . S
C234 C233 1.372 . S
C234 C235 1.400 1_545 S
C234 C239 1.490 1_545 S
C235 H225 0.930 . S
C235 C234 1.400 1_565 S
C235 C238 1.386 . S
H236 C252 0.930 . S
H237 C253 0.931 . S
C238 H226 0.929 . S
C238 C232 1.390 1_565 S
C238 C235 1.386 . S
C239 C234 1.490 1_565 S
C239 C241 1.396 . S
C239 C242 1.402 1_565 S
H240 C246 0.930 . S
C241 H227 0.930 . S
C241 C239 1.396 . S
C241 C244 1.403 . S
C242 C239 1.402 1_545 S
C242 C243 1.524 . S
C242 C246 1.400 . S
C243 H228 0.960 . S
C243 H229 0.960 . S
C243 H230 0.960 . S
C243 C242 1.524 . S
C244 C241 1.403 . S
C244 C245 1.392 . S
C244 C248 1.495 . S
C245 C244 1.392 . S
C245 C246 1.385 1_565 S
C245 C247 1.478 . S
C246 H240 0.930 . S
C246 C242 1.400 . S
C246 C245 1.385 1_545 S
C247 C245 1.478 . S
C247 C249 1.381 1_565 S
C247 C253 1.383 . S
C248 C244 1.495 . S
C248 H254 0.959 . S
C248 H255 0.961 . S
C248 H256 0.960 . S
C249 C247 1.381 1_545 S
C249 C250 1.394 . S
C249 H257 0.930 . S
C250 C249 1.394 . S
C250 C251 1.383 1_545 S
C250 H258 0.929 . S
C251 C250 1.383 1_565 S
C251 C252 1.377 . S
C252 H236 0.930 . S
C252 C251 1.377 . S
C252 C253 1.379 . S
C253 H237 0.931 . S
C253 C247 1.383 . S
C253 C252 1.379 . S
H254 C248 0.959 . S
H255 C248 0.961 . S
H256 C248 0.960 . S
H257 C249 0.930 . S
H258 C250 0.929 . S
H259 C267 0.929 . S
H260 C269 0.930 . S
H261 C271 0.930 . S
H262 C274 0.929 . S
H263 C277 0.930 . S
H264 C279 0.960 . S
H265 C279 0.960 . S
H266 C279 0.960 1_455 S
C267 H259 0.929 . S
C267 C268 1.377 . S
C267 C269 1.384 . S
C268 C267 1.377 . S
C268 C274 1.390 1_655 S
C269 H260 0.930 . S
C269 C267 1.384 . S
C269 C270 1.372 . S
C270 C269 1.372 . S
C270 C271 1.400 1_655 S
C270 C275 1.490 . S
C271 H261 0.930 . S
C271 C270 1.400 1_455 S
C271 C274 1.386 . S
H272 C288 0.930 . S
H273 C289 0.931 . S
C274 H262 0.929 . S
C274 C268 1.390 1_455 S
C274 C271 1.386 . S
C275 C270 1.490 . S
C275 C277 1.395 . S
C275 C278 1.403 . S
H276 C282 0.930 . S
C277 H263 0.930 . S
C277 C275 1.395 . S
C277 C280 1.403 . S
C278 C275 1.403 . S
C278 C279 1.524 . S
C278 C282 1.400 . S
C279 H264 0.960 . S
C279 H265 0.960 . S
C279 H266 0.960 1_655 S
C279 C278 1.524 . S
C280 C277 1.403 . S
C280 C281 1.392 . S
C280 C284 1.495 . S
C281 C280 1.392 . S
C281 C282 1.385 . S
C281 C283 1.478 . S
C282 H276 0.930 . S
C282 C278 1.400 . S
C282 C281 1.385 . S
C283 C281 1.478 . S
C283 C285 1.381 . S
C283 C289 1.383 1_655 S
C284 C280 1.495 . S
C284 H290 0.959 1_655 S
C284 H291 0.961 1_655 S
C284 H292 0.960 . S
C285 C283 1.381 . S
C285 C286 1.394 . S
C285 H293 0.930 . S
C286 C285 1.394 . S
C286 C287 1.383 . S
C286 H294 0.929 . S
C287 C286 1.383 . S
C287 C288 1.377 1_655 S
C288 H272 0.930 . S
C288 C287 1.377 1_455 S
C288 C289 1.379 . S
C289 H273 0.931 . S
C289 C283 1.383 1_455 S
C289 C288 1.379 . S
H290 C284 0.959 1_455 S
H291 C284 0.961 1_455 S
H292 C284 0.960 . S
H293 C285 0.930 . S
H294 C286 0.929 . S
H295 C303 0.929 . S
H296 C305 0.930 . S
H297 C307 0.930 . S
H298 C310 0.929 . S
H299 C313 0.930 . S
H300 C315 0.960 . S
H301 C315 0.960 . S
H302 C315 0.960 . S
C303 H295 0.929 . S
C303 C304 1.377 1_545 S
C303 C305 1.384 . S
C304 C303 1.377 1_565 S
C304 C310 1.390 . S
C305 H296 0.930 . S
C305 C303 1.384 . S
C305 C306 1.372 1_545 S
C306 C305 1.372 1_565 S
C306 C307 1.400 . S
C306 C311 1.490 . S
C307 H297 0.930 . S
C307 C306 1.400 . S
C307 C310 1.386 . S
H308 C324 0.930 . S
H309 C325 0.931 . S
C310 H298 0.929 . S
C310 C304 1.390 . S
C310 C307 1.386 . S
C311 C306 1.490 . S
C311 C313 1.395 . S
C311 C314 1.403 1_565 S
H312 C318 0.930 . S
C313 H299 0.930 . S
C313 C311 1.395 . S
C313 C316 1.403 . S
C314 C311 1.403 1_545 S
C314 C315 1.524 . S
C314 C318 1.400 . S
C315 H300 0.960 . S
C315 H301 0.960 . S
C315 H302 0.960 . S
C315 C314 1.524 . S
C316 C313 1.403 . S
C316 C317 1.392 . S
C316 C320 1.495 . S
C317 C316 1.392 . S
C317 C318 1.385 1_565 S
C317 C319 1.478 . S
C318 H312 0.930 . S
C318 C314 1.400 . S
C318 C317 1.385 1_545 S
C319 C317 1.478 . S
C319 C321 1.381 1_565 S
C319 C325 1.383 . S
C320 C316 1.495 . S
C320 H326 0.959 . S
C320 H327 0.961 . S
C320 H328 0.960 . S
C321 C319 1.381 1_545 S
C321 C322 1.394 . S
C321 H329 0.930 . S
C322 C321 1.394 . S
C322 C323 1.383 1_545 S
C322 H330 0.929 . S
C323 C322 1.383 1_565 S
C323 C324 1.377 . S
C324 H308 0.930 . S
C324 C323 1.377 . S
C324 C325 1.379 . S
C325 H309 0.931 . S
C325 C319 1.383 . S
C325 C324 1.379 . S
H326 C320 0.959 . S
H327 C320 0.961 . S
H328 C320 0.960 . S
H329 C321 0.930 . S
H330 C322 0.929 . S
H331 C339 0.929 . S
H332 C341 0.930 . S
H333 C343 0.930 . S
H334 C346 0.929 . S
H335 C349 0.930 . S
H336 C351 0.960 . S
H337 C351 0.960 . S
H338 C351 0.960 . S
C339 H331 0.929 . S
C339 C340 1.377 1_655 S
C339 C341 1.384 . S
C340 C339 1.377 1_455 S
C340 C346 1.390 . S
C341 H332 0.930 . S
C341 C339 1.384 . S
C341 C342 1.372 1_655 S
C342 C341 1.372 1_455 S
C342 C343 1.400 . S
C342 C347 1.490 . S
C343 H333 0.930 . S
C343 C342 1.400 . S
C343 C346 1.386 . S
H344 C360 0.930 . S
H345 C361 0.931 . S
C346 H334 0.929 . S
C346 C340 1.390 . S
C346 C343 1.386 . S
C347 C342 1.490 . S
C347 C349 1.395 1_455 S
C347 C350 1.403 . S
H348 C354 0.930 . S
C349 H335 0.930 . S
C349 C347 1.395 1_655 S
C349 C352 1.403 . S
C350 C347 1.403 . S
C350 C351 1.524 . S
C350 C354 1.400 . S
C351 H336 0.960 . S
C351 H337 0.960 . S
C351 H338 0.960 . S
C351 C350 1.524 . S
C352 C349 1.403 . S
C352 C353 1.392 1_655 S
C352 C356 1.495 . S
C353 C352 1.392 1_455 S
C353 C354 1.385 . S
C353 C355 1.478 . S
C354 H348 0.930 . S
C354 C350 1.400 . S
C354 C353 1.385 . S
C355 C353 1.478 . S
C355 C357 1.381 1_455 S
C355 C361 1.383 . S
C356 C352 1.495 . S
C356 H362 0.959 . S
C356 H363 0.961 1_655 S
C356 H364 0.960 . S
C357 C355 1.381 1_655 S
C357 C358 1.394 . S
C357 H365 0.930 . S
C358 C357 1.394 . S
C358 C359 1.383 1_655 S
C358 H366 0.929 . S
C359 C358 1.383 1_455 S
C359 C360 1.377 . S
C360 H344 0.930 . S
C360 C359 1.377 . S
C360 C361 1.379 . S
C361 H345 0.931 . S
C361 C355 1.383 . S
C361 C360 1.379 . S
H362 C356 0.959 . S
H363 C356 0.961 1_455 S
H364 C356 0.960 . S
H365 C357 0.930 . S
H366 C358 0.929 . S
H367 C375 0.928 1_565 S
H368 C377 0.930 1_565 S
H369 C379 0.930 . S
H370 C382 0.929 . S
H371 C385 0.930 . S
H372 C387 0.960 . S
H373 C387 0.960 . S
H374 C387 0.960 . S
C375 H367 0.928 1_545 S
C375 C376 1.379 . S
C375 C377 1.384 . S
C376 C375 1.379 . S
C376 C382 1.390 . S
C377 H368 0.930 1_545 S
C377 C375 1.384 . S
C377 C378 1.372 . S
C378 C377 1.372 . S
C378 C379 1.400 . S
C378 C383 1.490 . S
C379 H369 0.930 . S
C379 C378 1.400 . S
C379 C382 1.386 . S
H380 C396 0.930 . S
H381 C397 0.931 . S
C382 H370 0.929 . S
C382 C376 1.390 . S
C382 C379 1.386 . S
C383 C378 1.490 . S
C383 C385 1.395 1_545 S
C383 C386 1.403 . S
H384 C390 0.930 . S
C385 H371 0.930 . S
C385 C383 1.395 1_565 S
C385 C388 1.403 . S
C386 C383 1.403 . S
C386 C387 1.524 . S
C386 C390 1.400 . S
C387 H372 0.960 . S
C387 H373 0.960 . S
C387 H374 0.960 . S
C387 C386 1.524 . S
C388 C385 1.403 . S
C388 C389 1.392 1_565 S
C388 C392 1.495 . S
C389 C388 1.392 1_545 S
C389 C390 1.385 . S
C389 C391 1.478 . S
C390 H384 0.930 . S
C390 C386 1.400 . S
C390 C389 1.385 . S
C391 C389 1.478 . S
C391 C393 1.381 . S
C391 C397 1.383 . S
C392 C388 1.495 . S
C392 H398 0.959 . S
C392 H399 0.961 . S
C392 H400 0.960 . S
C393 C391 1.381 . S
C393 C394 1.394 . S
C393 H401 0.930 . S
C394 C393 1.394 . S
C394 C395 1.383 . S
C394 H402 0.929 . S
C395 C394 1.383 . S
C395 C396 1.377 . S
C396 H380 0.930 . S
C396 C395 1.377 . S
C396 C397 1.379 . S
C397 H381 0.931 . S
C397 C391 1.383 . S
C397 C396 1.379 . S
H398 C392 0.959 . S
H399 C392 0.961 . S
H400 C392 0.960 . S
H401 C393 0.930 . S
H402 C394 0.929 . S
H403 C411 0.929 . S
H404 C413 0.930 . S
H405 C415 0.930 . S
H406 C418 0.929 . S
H407 C421 0.930 . S
H408 C423 0.960 . S
H409 C423 0.960 . S
H410 C423 0.960 . S
C411 H403 0.929 . S
C411 C412 1.377 . S
C411 C413 1.384 . S
C412 C411 1.377 . S
C412 C418 1.390 . S
C413 H404 0.930 . S
C413 C411 1.384 . S
C413 C414 1.372 . S
C414 C413 1.372 . S
C414 C415 1.400 . S
C414 C419 1.490 . S
C415 H405 0.930 . S
C415 C414 1.400 . S
C415 C418 1.386 . S
H416 C432 0.930 . S
H417 C433 0.931 1_556 S
C418 H406 0.929 . S
C418 C412 1.390 . S
C418 C415 1.386 . S
C419 C414 1.490 . S
C419 C421 1.395 1_554 S
C419 C422 1.403 . S
H420 C426 0.930 . S
C421 H407 0.930 . S
C421 C419 1.395 1_556 S
C421 C424 1.403 . S
C422 C419 1.403 . S
C422 C423 1.524 . S
C422 C426 1.400 . S
C423 H408 0.960 . S
C423 H409 0.960 . S
C423 H410 0.960 . S
C423 C422 1.524 . S
C424 C421 1.403 . S
C424 C425 1.392 1_556 S
C424 C428 1.495 . S
C425 C424 1.392 1_554 S
C425 C426 1.385 . S
C425 C427 1.478 . S
C426 H420 0.930 . S
C426 C422 1.400 . S
C426 C425 1.385 . S
C427 C425 1.478 . S
C427 C429 1.381 . S
C427 C433 1.383 . S
C428 C424 1.495 . S
C428 H434 0.959 . S
C428 H435 0.961 . S
C428 H436 0.960 . S
C429 C427 1.381 . S
C429 C430 1.394 . S
C429 H437 0.930 . S
C430 C429 1.394 . S
C430 C431 1.383 . S
C430 H438 0.929 . S
C431 C430 1.383 . S
C431 C432 1.377 . S
C432 H416 0.930 . S
C432 C431 1.377 . S
C432 C433 1.379 . S
C433 H417 0.931 1_554 S
C433 C427 1.383 . S
C433 C432 1.379 . S
H434 C428 0.959 . S
H435 C428 0.961 . S
H436 C428 0.960 . S
H437 C429 0.930 . S
H438 C430 0.929 . S
H439 C447 0.929 . S
H440 C449 0.930 . S
H441 C451 0.930 . S
H442 C454 0.929 . S
H443 C457 0.930 . S
H444 C459 0.960 . S
H445 C459 0.960 . S
H446 C459 0.960 . S
C447 H439 0.929 . S
C447 C448 1.377 . S
C447 C449 1.384 . S
C448 C447 1.377 . S
C448 C454 1.390 1_554 S
C449 H440 0.930 . S
C449 C447 1.384 . S
C449 C450 1.372 . S
C450 C449 1.372 . S
C450 C451 1.400 1_554 S
C450 C455 1.490 . S
C451 H441 0.930 . S
C451 C450 1.400 1_556 S
C451 C454 1.386 . S
H452 C468 0.930 . S
H453 C469 0.931 . S
C454 H442 0.929 . S
C454 C448 1.390 1_556 S
C454 C451 1.386 . S
C455 C450 1.490 . S
C455 C457 1.395 . S
C455 C458 1.403 . S
H456 C462 0.930 . S
C457 H443 0.930 . S
C457 C455 1.395 . S
C457 C460 1.403 . S
C458 C455 1.403 . S
C458 C459 1.524 . S
C458 C462 1.400 . S
C459 H444 0.960 . S
C459 H445 0.960 . S
C459 H446 0.960 . S
C459 C458 1.524 . S
C460 C457 1.403 . S
C460 C461 1.392 . S
C460 C464 1.495 . S
C461 C460 1.392 . S
C461 C462 1.385 . S
C461 C463 1.478 . S
C462 H456 0.930 . S
C462 C458 1.400 . S
C462 C461 1.385 . S
C463 C461 1.478 . S
C463 C465 1.381 . S
C463 C469 1.383 1_554 S
C464 C460 1.495 . S
C464 H470 0.959 . S
C464 H471 0.961 1_554 S
C464 H472 0.960 . S
C465 C463 1.381 . S
C465 C466 1.394 . S
C465 H473 0.930 . S
C466 C465 1.394 . S
C466 C467 1.383 . S
C466 H474 0.929 . S
C467 C466 1.383 . S
C467 C468 1.377 1_554 S
C468 H452 0.930 . S
C468 C467 1.377 1_556 S
C468 C469 1.379 . S
C469 H453 0.931 . S
C469 C463 1.383 1_556 S
C469 C468 1.379 . S
H470 C464 0.959 . S
H471 C464 0.961 1_556 S
H472 C464 0.960 . S
H473 C465 0.930 . S
H474 C466 0.929 . S
H475 C483 0.929 . S
H476 C485 0.930 . S
H477 C487 0.930 . S
H478 C490 0.929 . S
H479 C493 0.930 . S
H480 C495 0.960 . S
H481 C495 0.960 . S
H482 C495 0.960 . S
C483 H475 0.929 . S
C483 C484 1.377 . S
C483 C485 1.384 . S
C484 C483 1.377 . S
C484 C490 1.390 1_554 S
C485 H476 0.930 . S
C485 C483 1.384 . S
C485 C486 1.372 . S
C486 C485 1.372 . S
C486 C487 1.400 1_554 S
C486 C491 1.490 . S
C487 H477 0.930 . S
C487 C486 1.400 1_556 S
C487 C490 1.386 . S
H488 C504 0.930 . S
H489 C505 0.931 . S
C490 H478 0.929 . S
C490 C484 1.390 1_556 S
C490 C487 1.386 . S
C491 C486 1.490 . S
C491 C493 1.395 . S
C491 C494 1.403 . S
H492 C498 0.930 . S
C493 H479 0.930 . S
C493 C491 1.395 . S
C493 C496 1.403 . S
C494 C491 1.403 . S
C494 C495 1.524 . S
C494 C498 1.400 . S
C495 H480 0.960 . S
C495 H481 0.960 . S
C495 H482 0.960 . S
C495 C494 1.524 . S
C496 C493 1.403 . S
C496 C497 1.392 . S
C496 C500 1.495 . S
C497 C496 1.392 . S
C497 C498 1.385 . S
C497 C499 1.478 . S
C498 H492 0.930 . S
C498 C494 1.400 . S
C498 C497 1.385 . S
C499 C497 1.478 . S
C499 C501 1.381 . S
C499 C505 1.383 1_554 S
C500 C496 1.495 . S
C500 H506 0.959 1_554 S
C500 H507 0.961 1_554 S
C500 H508 0.960 . S
C501 C499 1.381 . S
C501 C502 1.394 . S
C501 H509 0.930 . S
C502 C501 1.394 . S
C502 C503 1.383 . S
C502 H510 0.929 . S
C503 C502 1.383 . S
C503 C504 1.377 1_554 S
C504 H488 0.930 . S
C504 C503 1.377 1_556 S
C504 C505 1.379 . S
C505 H489 0.931 . S
C505 C499 1.383 1_556 S
C505 C504 1.379 . S
H506 C500 0.959 1_556 S
H507 C500 0.961 1_556 S
H508 C500 0.960 . S
H509 C501 0.930 . S
H510 C502 0.929 . S
H511 C519 0.929 . S
H512 C521 0.930 . S
H513 C523 0.930 . S
H514 C526 0.929 . S
H515 C529 0.930 . S
H516 C531 0.960 . S
H517 C531 0.960 . S
H518 C531 0.960 . S
C519 H511 0.929 . S
C519 C520 1.377 1_556 S
C519 C521 1.384 . S
C520 C519 1.377 1_554 S
C520 C526 1.390 . S
C521 H512 0.930 . S
C521 C519 1.384 . S
C521 C522 1.372 1_556 S
C522 C521 1.372 1_554 S
C522 C523 1.400 . S
C522 C527 1.490 . S
C523 H513 0.930 . S
C523 C522 1.400 . S
C523 C526 1.386 . S
H524 C540 0.930 . S
H525 C541 0.931 . S
C526 H514 0.929 . S
C526 C520 1.390 . S
C526 C523 1.386 . S
C527 C522 1.490 . S
C527 C529 1.395 1_554 S
C527 C530 1.403 . S
H528 C534 0.930 . S
C529 H515 0.930 . S
C529 C527 1.395 1_556 S
C529 C532 1.403 . S
C530 C527 1.403 . S
C530 C531 1.524 . S
C530 C534 1.400 . S
C531 H516 0.960 . S
C531 H517 0.960 . S
C531 H518 0.960 . S
C531 C530 1.524 . S
C532 C529 1.403 . S
C532 C533 1.392 1_556 S
C532 C536 1.495 . S
C533 C532 1.392 1_554 S
C533 C534 1.385 . S
C533 C535 1.478 . S
C534 H528 0.930 . S
C534 C530 1.400 . S
C534 C533 1.385 . S
C535 C533 1.478 . S
C535 C537 1.381 1_554 S
C535 C541 1.383 . S
C536 C532 1.495 . S
C536 H542 0.959 . S
C536 H543 0.959 1_556 S
C536 H544 0.960 . S
C537 C535 1.381 1_556 S
C537 C538 1.394 . S
C537 H545 0.930 . S
C538 C537 1.394 . S
C538 C539 1.383 1_556 S
C538 H546 0.929 . S
C539 C538 1.383 1_554 S
C539 C540 1.377 . S
C540 H524 0.930 . S
C540 C539 1.377 . S
C540 C541 1.379 . S
C541 H525 0.931 . S
C541 C535 1.383 . S
C541 C540 1.379 . S
H542 C536 0.959 . S
H543 C536 0.959 1_554 S
H544 C536 0.960 . S
H545 C537 0.930 . S
H546 C538 0.929 . S
C143 C99 1.219 . S
C124 C9 1.276 . S
C179 C95 1.674 1_545 S
C160 C38 1.717 1_565 S
C215 C105 1.237 1_655 S
C196 C17 1.285 1_455 S
C251 C89 1.657 1_565 S
C232 C30 1.723 . S
C268 C19 1.399 . S
C287 C81 1.318 . S
C323 C113 1.824 . S
C304 C33 1.844 1_565 S
C340 C12 1.407 1_455 S
C359 C67 1.385 . S
C376 C40 1.851 . S
C395 C111 1.750 . S
C412 C59 1.404 . S
C431 C93 1.436 . S
C448 C61 1.414 . S
C467 C108 1.422 . S
C503 C102 1.432 . S
C484 C51 1.416 . S
C539 C97 1.399 . S
C520 C54 1.395 . S
