# Generated by pormake.
# Topology tsx, (6,3)-cn, num edge types: 1
# Building blocks:
#     Node 0, Type 0, BuildingBlock: MIDCAF_clean_sbu_0, # of connection points: 6
#     Node 1, Type 0, BuildingBlock: MIDCAF_clean_sbu_0, # of connection points: 6
#     Node 2, Type 1, BuildingBlock: MIDCAF_clean_linker_0, # of connection points: 3
#     Node 3, Type 1, BuildingBlock: MIDCAF_clean_linker_0, # of connection points: 3
#     Node 4, Type 1, BuildingBlock: MIDCAF_clean_linker_0, # of connection points: 3
#     Node 5, Type 1, BuildingBlock: MIDCAF_clean_linker_0, # of connection points: 3
#     Edge 6, Type (0, 1), BuildingBlock: KIFKEQ_clean_linker_1, # of connection points: 2
#     Edge 7, Type (0, 1), BuildingBlock: KIFKEQ_clean_linker_1, # of connection points: 2
#     Edge 8, Type (0, 1), BuildingBlock: KIFKEQ_clean_linker_1, # of connection points: 2
#     Edge 9, Type (0, 1), BuildingBlock: KIFKEQ_clean_linker_1, # of connection points: 2
#     Edge 10, Type (0, 1), BuildingBlock: KIFKEQ_clean_linker_1, # of connection points: 2
#     Edge 11, Type (0, 1), BuildingBlock: KIFKEQ_clean_linker_1, # of connection points: 2
#     Edge 12, Type (0, 1), BuildingBlock: KIFKEQ_clean_linker_1, # of connection points: 2
#     Edge 13, Type (0, 1), BuildingBlock: KIFKEQ_clean_linker_1, # of connection points: 2
#     Edge 14, Type (0, 1), BuildingBlock: KIFKEQ_clean_linker_1, # of connection points: 2
#     Edge 15, Type (0, 1), BuildingBlock: KIFKEQ_clean_linker_1, # of connection points: 2
#     Edge 16, Type (0, 1), BuildingBlock: KIFKEQ_clean_linker_1, # of connection points: 2
#     Edge 17, Type (0, 1), BuildingBlock: KIFKEQ_clean_linker_1, # of connection points: 2
# Relax obj value: 0.119
# Max RMSD: 0.182
# Mean RMSD: 0.113
data_MOF--net-tsx--node1-MIDCAF_clean_sbu_0--node2-MIDCAF_clean_linker_0--edge1-KIFKEQ_clean_linker_1
_symmetry_space_group_name_H-M    P1
_symmetry_Int_Tables_number       1
_symmetry_cell_setting            triclinic
loop_
_symmetry_equiv_pos_as_xyz
'x, y, z'
_cell_length_a     23.821514
_cell_length_b     24.839636
_cell_length_c     47.474714
_cell_angle_alpha  91.10234
_cell_angle_beta   95.061138
_cell_angle_gamma 90.198784
loop_
_atom_site_label
_atom_site_type_symbol
_atom_site_fract_x
_atom_site_fract_y
_atom_site_fract_z
_atom_type_partial_charge
Zn0 Zn 0.94769 0.09614 0.9739 0.0
Zn1 Zn 0.12944 0.08579 0.0433 0.0
Zn2 Zn 0.03774 0.09062 0.00884 0.0
C3 C 0.10318 0.19409 0.03973 0.0
C4 C 0.15763 0.03802 0.99391 0.0
O5 O 0.9673 0.04727 0.02689 0.0
O6 O 0.89221 0.06594 -0.00197 0.0
C7 C 0.98105 0.2015 0.98498 0.0
O8 O 0.06558 0.17469 0.02099 0.0
O9 O 0.1352 0.16293 0.05432 0.0
O10 O 0.18188 0.05626 0.01684 0.0
O11 O 0.10443 0.04597 0.98791 0.0
O12 O 0.94792 0.1746 0.96786 0.0
O13 O 0.01633 0.17728 0.00256 0.0
O14 O 0.05609 0.04932 0.96887 0.0
O15 O 0.97288 0.04766 0.94414 0.0
C16 C 0.02418 0.03465 0.9467 0.0
O17 O 0.01585 0.04586 0.04609 0.0
O18 O 0.09906 0.03497 0.06992 0.0
C19 C 0.91381 0.04328 0.01992 0.0
C20 C 0.04661 0.02629 0.06708 0.0
Zn21 Zn 0.67341 0.4528 0.5556 0.0
Zn22 Zn 0.54886 0.3996 0.48271 0.0
Zn23 Zn 0.59475 0.44089 0.52031 0.0
C24 C 0.61423 0.4742 0.46093 0.0
C25 C 0.49584 0.49915 0.49095 0.0
O26 O 0.5537 0.42928 0.5589 0.0
O27 O 0.63119 0.42875 0.588 0.0
C28 C 0.70393 0.37379 0.5165 0.0
O29 O 0.60058 0.49511 0.48445 0.0
O30 O 0.60834 0.42373 0.45695 0.0
O31 O 0.4812 0.45098 0.48472 0.0
O32 O 0.54797 0.50824 0.49969 0.0
O33 O 0.72524 0.40023 0.53789 0.0
O34 O 0.6536 0.38358 0.50665 0.0
O35 O 0.60657 0.52672 0.51354 0.0
O36 O 0.67531 0.53277 0.54809 0.0
C37 C 0.64292 0.55501 0.52919 0.0
O38 O 0.52555 0.39319 0.53386 0.0
O39 O 0.542 0.32965 0.50284 0.0
C40 C 0.57819 0.42429 0.58384 0.0
C41 C 0.51837 0.34447 0.52459 0.0
C42 C 0.88919 0.03669 0.41245 0.0
C43 C 0.91269 0.0595 0.43812 0.0
C44 C 0.96518 0.04085 0.44983 0.0
C45 C 0.99413 0.00098 0.43577 0.0
H46 H 0.10982 0.86312 0.44562 0.0
H47 H 0.18616 0.8057 0.46548 0.0
H48 H 0.23565 0.77344 0.38148 0.0
H49 H 0.15951 0.82935 0.36167 0.0
H50 H 0.06297 0.83295 0.31089 0.0
H51 H 0.0488 0.83378 0.25954 0.0
H52 H 0.93219 0.96576 0.26431 0.0
H53 H 0.94514 0.9642 0.31572 0.0
H54 H 0.8992 0.98161 0.37827 0.0
H55 H 0.8491 0.05055 0.40275 0.0
H56 H 0.98405 0.05744 0.46973 0.0
H57 H 0.035 0.98819 0.445 0.0
N58 N 0.0486 0.91408 0.40518 0.0
N59 N 0.06401 0.87554 0.361 0.0
N60 N 0.9897 0.93564 0.36469 0.0
C61 C 0.0789 0.8808 0.38922 0.0
C62 C 0.01949 0.9027 0.34856 0.0
C63 C 1.00372 0.94155 0.39294 0.0
C64 C 0.12782 0.85017 0.402 0.0
C65 C 0.1373 0.84409 0.43144 0.0
C66 C 0.1812 0.81141 0.44285 0.0
C67 C 0.21645 0.78438 0.42501 0.0
C68 C 0.20846 0.79264 0.39575 0.0
C69 C 0.16471 0.8249 0.3844 0.0
C70 C 1.00593 0.89909 0.3175 0.0
C71 C 0.03375 0.86175 0.30107 0.0
C72 C 0.0257 0.86226 0.27159 0.0
C73 C 0.98995 0.90031 0.25782 0.0
C74 C 0.95971 0.93567 0.27423 0.0
C75 C 0.96752 0.935 0.30376 0.0
C76 C 0.97138 0.97962 0.40956 0.0
C77 C 0.91821 0.99739 0.39832 0.0
C78 C 0.87215 0.87578 0.59419 0.0
C79 C 0.87289 0.86803 0.56483 0.0
C80 C 0.91995 0.8861 0.55169 0.0
C81 C 0.96577 0.91043 0.56773 0.0
H82 H 0.09473 0.03931 0.56908 0.0
H83 H 0.16389 0.10193 0.55274 0.0
H84 H 0.27438 0.07327 0.62805 0.0
H85 H 0.20558 0.01214 0.64455 0.0
H86 H 0.14681 0.98888 0.69906 0.0
H87 H 0.15096 0.98217 0.75009 0.0
H88 H 1.00559 0.87665 0.74186 0.0
H89 H 1.00021 0.88464 0.69061 0.0
H90 H 0.91625 0.90354 0.63286 0.0
H91 H 0.83698 0.8616 0.60506 0.0
H92 H 0.92165 0.88073 0.52909 0.0
H93 H 1.00185 0.92307 0.5571 0.0
N94 N 0.05559 0.96753 0.60333 0.0
N95 N 0.1063 0.97614 0.64785 0.0
N96 N 0.02163 0.92775 0.64311 0.0
C97 C 0.10118 0.98681 0.61984 0.0
C98 C 0.067 0.9467 0.6597 0.0
C99 C 0.01562 0.9378 0.61491 0.0
C100 C 0.14429 0.02109 0.60824 0.0
C101 C 0.13397 0.04615 0.582 0.0
C102 C 0.1736 0.08198 0.57265 0.0
C103 C 0.22429 0.0932 0.58932 0.0
C104 C 0.23518 0.06668 0.61505 0.0
C105 C 0.19572 0.03125 0.62441 0.0
C106 C 0.0726 0.93793 0.69064 0.0
C107 C 0.11591 0.96379 0.70801 0.0
C108 C 0.11868 0.95957 0.73737 0.0
C109 C 0.07843 0.92916 0.75014 0.0
C110 C 0.03671 0.9012 0.73272 0.0
C111 C 0.0337 0.90566 0.70331 0.0
C112 C 0.96574 0.91626 0.59728 0.0
C113 C 0.91801 0.89935 0.6102 0.0
C114 C 0.40435 0.73039 0.89399 0.0
C115 C 0.40408 0.74729 0.9224 0.0
C116 C 0.43988 0.72098 0.94297 0.0
C117 C 0.47478 0.67882 0.93526 0.0
H118 H 0.61755 0.56384 0.96326 0.0
H119 H 0.7043 0.52923 0.98859 0.0
H120 H 0.76778 0.48748 0.9086 0.0
H121 H 0.68248 0.52131 0.88372 0.0
H122 H 0.56375 0.45185 0.84608 0.0
H123 H 0.54997 0.41211 0.79878 0.0
H124 H 0.44753 0.54766 0.77117 0.0
H125 H 0.45978 0.58669 0.8189 0.0
H126 H 0.43739 0.6763 0.86423 0.0
H127 H 0.3786 0.75033 0.87742 0.0
H128 H 0.44036 0.73229 0.96512 0.0
H129 H 0.50145 0.65915 0.95159 0.0
N130 N 0.55641 0.60068 0.91465 0.0
N131 N 0.5744 0.53514 0.88033 0.0
N132 N 0.4956 0.59044 0.87301 0.0
C133 C 0.58938 0.56034 0.90551 0.0
C134 C 0.52751 0.54957 0.86406 0.0
C135 C 0.50939 0.61606 0.89826 0.0
C136 C 0.64296 0.54484 0.92153 0.0
C137 C 0.65056 0.54795 0.95123 0.0
C138 C 0.70003 0.52803 0.96568 0.0
C139 C 0.74311 0.50593 0.9506 0.0
C140 C 0.73603 0.50499 0.92092 0.0
C141 C 0.68666 0.52389 0.90662 0.0
C142 C 0.51364 0.52288 0.83615 0.0
C143 C 0.53775 0.47295 0.83003 0.0
C144 C 0.52992 0.45019 0.80287 0.0
C145 C 0.49845 0.47713 0.78104 0.0
C146 C 0.47173 0.52566 0.78751 0.0
C147 C 0.47906 0.54821 0.81485 0.0
C148 C 0.47408 0.66156 0.90688 0.0
C149 C 0.43851 0.68796 0.88638 0.0
C150 C 0.32393 0.52698 0.1233 0.0
C151 C 0.31562 0.52434 0.09363 0.0
C152 C 0.35191 0.55422 0.07793 0.0
C153 C 0.3955 0.5858 0.09168 0.0
H154 H 0.54238 0.68942 0.08027 0.0
H155 H 0.61006 0.74788 0.05918 0.0
H156 H 0.66026 0.81762 0.14164 0.0
H157 H 0.59433 0.75979 0.16252 0.0
H158 H 0.59291 0.68592 0.21308 0.0
H159 H 0.61779 0.67257 0.26316 0.0
H160 H 0.47291 0.56871 0.2665 0.0
H161 H 0.44733 0.58223 0.21617 0.0
H162 H 0.37224 0.55843 0.15986 0.0
H163 H 0.29771 0.50373 0.13614 0.0
H164 H 0.34659 0.55322 0.05504 0.0
H165 H 0.42287 0.60805 0.079 0.0
N166 N 0.48386 0.65322 0.12259 0.0
N167 N 0.53627 0.67543 0.16543 0.0
N168 N 0.46204 0.6139 0.16506 0.0
C169 C 0.52646 0.68175 0.13714 0.0
C170 C 0.50467 0.64176 0.1796 0.0
C171 C 0.45114 0.61929 0.1366 0.0
C172 C 0.56331 0.71931 0.12312 0.0
C173 C 0.56769 0.71751 0.09378 0.0
C174 C 0.60643 0.75095 0.08173 0.0
C175 C 0.64133 0.7867 0.09884 0.0
C176 C 0.63532 0.78953 0.12795 0.0
C177 C 0.59704 0.75638 0.1399 0.0
C178 C 0.51812 0.63492 0.21044 0.0
C179 C 0.56598 0.66038 0.22438 0.0
C180 C 0.58052 0.65262 0.25312 0.0
C181 C 0.54746 0.6195 0.26872 0.0
C182 C 0.49893 0.5949 0.25504 0.0
C183 C 0.48449 0.60238 0.22617 0.0
C184 C 0.40404 0.58777 0.12142 0.0
C185 C 0.36734 0.55813 0.13696 0.0
H186 H 0.11735 0.24831 0.08955 0.0
H187 H 0.11371 0.27026 -0.00047 0.0
H188 H 0.15668 0.3383 0.09807 0.0
H189 H 0.15462 0.36091 0.00801 0.0
H190 H 0.32162 0.45742 0.0472 0.0
H191 H 0.25461 0.38698 0.02998 0.0
H192 H 0.14197 0.43784 0.0916 0.0
H193 H 0.20828 0.50881 0.10851 0.0
C194 C 0.12345 0.27324 0.07157 0.0
C195 C 0.11251 0.25254 0.04393 0.0
C196 C 0.14596 0.32483 0.07642 0.0
C197 C 0.15915 0.35662 0.05371 0.0
C198 C 0.14512 0.33716 0.02591 0.0
C199 C 0.12129 0.28564 0.02104 0.0
C200 C 0.28183 0.45471 0.0565 0.0
C201 C 0.27091 0.48816 0.07964 0.0
C202 C 0.24335 0.41435 0.04659 0.0
C203 C 0.19328 0.4065 0.05966 0.0
C204 C 0.18054 0.44245 0.08137 0.0
C205 C 0.21874 0.48289 0.09115 0.0
H206 H 0.1218 0.94544 0.96609 0.0
H207 H 0.26723 0.04858 0.98345 0.0
H208 H 0.18067 0.87681 0.94626 0.0
H209 H 0.32607 0.98118 0.9627 0.0
H210 H 0.42588 0.82595 0.96342 0.0
H211 H 0.36465 0.89823 0.9767 0.0
H212 H 0.23751 0.8457 0.91125 0.0
H213 H 0.29711 0.77086 0.89939 0.0
C214 C 0.16603 0.95418 0.96467 0.0
C215 C 0.18998 0.0023 0.9762 0.0
C216 C 0.19998 0.91475 0.9534 0.0
C217 C 0.25857 0.92284 0.95332 0.0
C218 C 0.28154 0.97273 0.96314 0.0
C219 C 0.24775 0.01172 0.97471 0.0
C220 C 0.3846 0.82922 0.95208 0.0
C221 C 0.36669 0.79223 0.93033 0.0
C222 C 0.34971 0.87147 0.95936 0.0
C223 C 0.2961 0.87842 0.94487 0.0
C224 C 0.27824 0.84157 0.92304 0.0
C225 C 0.3129 0.79892 0.91597 0.0
H226 H 0.94167 0.94983 0.0472 0.0
H227 H 0.80255 0.05673 0.02606 0.0
H228 H 0.87751 0.88624 0.06665 0.0
H229 H 0.73833 0.99341 0.04534 0.0
H230 H 0.63032 0.84356 0.04972 0.0
H231 H 0.69841 0.90554 0.03221 0.0
H232 H 0.81613 0.87185 0.10416 0.0
H233 H 0.74906 0.8084 0.12101 0.0
C234 C 0.89772 0.96049 0.04755 0.0
C235 C 0.87728 0.00859 0.03555 0.0
C236 C 0.86079 0.92383 0.05841 0.0
C237 C 0.8026 0.93441 0.05721 0.0
C238 C 0.78266 0.98344 0.04604 0.0
C239 C 0.81952 0.01998 0.03526 0.0
C240 C 0.67104 0.84877 0.06154 0.0
C241 C 0.68401 0.82139 0.08687 0.0
C242 C 0.70982 0.88483 0.05173 0.0
C243 C 0.76248 0.89424 0.067 0.0
C244 C 0.77608 0.86552 0.09185 0.0
C245 C 0.73736 0.82953 0.10164 0.0
H246 H 0.9671 0.26552 0.03118 0.0
H247 H 0.97342 0.26833 0.94075 0.0
H248 H 0.92211 0.35444 0.02997 0.0
H249 H 0.9299 0.35672 0.93943 0.0
H250 H 0.85319 0.51468 0.93894 0.0
H251 H 0.92984 0.45348 0.95351 0.0
H252 H 0.82286 0.37438 0.00898 0.0
H253 H 0.74618 0.43545 0.99433 0.0
C254 C 0.96125 0.28629 0.01128 0.0
C255 C 0.97345 0.2603 0.98602 0.0
C256 C 0.93505 0.33684 0.01054 0.0
C257 C 0.9219 0.36241 0.98458 0.0
C258 C 0.93974 0.33851 0.95982 0.0
C259 C 0.96472 0.28781 0.96051 0.0
C260 C 0.84651 0.48506 0.95478 0.0
C261 C 0.79325 0.47917 0.96505 0.0
C262 C 0.89046 0.45011 0.96316 0.0
C263 C 0.88218 0.40855 0.98206 0.0
C264 C 0.83078 0.40618 0.99452 0.0
C265 C 0.7867 0.44117 0.98609 0.0
H266 H 0.63206 0.63449 0.56735 0.0
H267 H 0.67703 0.60374 0.48262 0.0
H268 H 0.67587 0.72293 0.56756 0.0
H269 H 0.72134 0.69312 0.48251 0.0
H270 H 0.88259 0.78622 0.52632 0.0
H271 H 0.81006 0.72138 0.50918 0.0
H272 H 0.68613 0.81336 0.55042 0.0
H273 H 0.75912 0.87803 0.56784 0.0
C274 C 0.64915 0.64794 0.54825 0.0
C275 C 0.65101 0.61279 0.52494 0.0
C276 C 0.67432 0.69869 0.5483 0.0
C277 C 0.70277 0.71502 0.52514 0.0
C278 C 0.70021 0.68152 0.50076 0.0
C279 C 0.67428 0.63072 0.50063 0.0
C280 C 0.83953 0.79363 0.53092 0.0
C281 C 0.82679 0.83663 0.5489 0.0
C282 C 0.79776 0.75648 0.521 0.0
C283 C 0.74235 0.76168 0.5288 0.0
C284 C 0.72861 0.80764 0.54449 0.0
C285 C 0.7704 0.84462 0.55449 0.0
H286 H 0.6726 0.30979 0.47011 0.0
H287 H 0.80837 0.33767 0.53541 0.0
H288 H 0.72412 0.23401 0.45176 0.0
H289 H 0.85901 0.26122 0.51758 0.0
H290 H 0.95833 0.1539 0.46011 0.0
H291 H 0.9089 0.23109 0.47842 0.0
H292 H 0.75132 0.14372 0.46479 0.0
H293 H 0.80077 0.06692 0.44612 0.0
C294 C 0.71344 0.29983 0.48052 0.0
C295 C 0.73632 0.32978 0.50423 0.0
C296 C 0.74278 0.25611 0.47016 0.0
C297 C 0.79556 0.24127 0.48332 0.0
C298 C 0.81878 0.27184 0.50674 0.0
C299 C 0.78958 0.31561 0.51703 0.0
C300 C 0.91326 0.15097 0.46141 0.0
C301 C 0.8834 0.10443 0.45163 0.0
C302 C 0.88488 0.19523 0.47185 0.0
C303 C 0.82604 0.19379 0.47286 0.0
C304 C 0.79645 0.14665 0.46372 0.0
C305 C 0.82479 0.10253 0.45318 0.0
H306 H 0.50165 0.23791 0.51207 0.0
H307 H 0.44586 0.36718 0.56493 0.0
H308 H 0.4304 0.1787 0.52839 0.0
H309 H 0.37341 0.30801 0.58083 0.0
H310 H 0.28488 0.16867 0.622 0.0
H311 H 0.35807 0.22876 0.60807 0.0
H312 H 0.32929 0.16875 0.52194 0.0
H313 H 0.25788 0.10679 0.53617 0.0
C314 C 0.4743 0.25366 0.52729 0.0
C315 C 0.4792 0.30736 0.53708 0.0
C316 C 0.43308 0.2198 0.53644 0.0
C317 C 0.39557 0.23883 0.55554 0.0
C318 C 0.40176 0.29202 0.56617 0.0
C319 C 0.44325 0.32595 0.55706 0.0
C320 C 0.29448 0.16798 0.60012 0.0
C321 C 0.26596 0.13247 0.58024 0.0
C322 C 0.33601 0.2029 0.59209 0.0
C323 C 0.34989 0.20328 0.56395 0.0
C324 C 0.32032 0.16878 0.54391 0.0
C325 C 0.27886 0.13375 0.55197 0.0
H326 H 0.38413 0.48979 0.47452 0.0
H327 H 0.51598 0.6085 0.49303 0.0
H328 H 0.31794 0.56059 0.46083 0.0
H329 H 0.44914 0.67997 0.47872 0.0
H330 H 0.29065 0.79324 0.47288 0.0
H331 H 0.35935 0.72615 0.49114 0.0
H332 H 0.30723 0.6202 0.42039 0.0
H333 H 0.2382 0.68576 0.40278 0.0
C334 C 0.39906 0.53108 0.47567 0.0
C335 C 0.45556 0.54342 0.4845 0.0
C336 C 0.36107 0.5717 0.46772 0.0
C337 C 0.37848 0.62581 0.46828 0.0
C338 C 0.43449 0.6386 0.47812 0.0
C339 C 0.47277 0.59771 0.48616 0.0
C340 C 0.29382 0.75545 0.46138 0.0
C341 C 0.25908 0.7449 0.43633 0.0
C342 C 0.33344 0.71732 0.47168 0.0
C343 C 0.33847 0.66779 0.45728 0.0
C344 C 0.30393 0.65764 0.43219 0.0
C345 C 0.26475 0.69556 0.42191 0.0
H346 H 0.95729 0.05255 0.09674 0.0
H347 H 0.08202 0.93 0.0866 0.0
H348 H 0.93399 0.01148 0.14076 0.0
H349 H 0.05703 0.88707 0.1295 0.0
H350 H 0.07933 0.89726 0.22611 0.0
H351 H 0.08139 0.91682 0.1766 0.0
H352 H 0.90087 0.93954 0.16909 0.0
H353 H 0.89899 0.92016 0.21943 0.0
C354 C 0.97813 0.01568 0.10347 0.0
C355 C 0.02199 0.99474 0.08879 0.0
C356 C 0.96475 0.99198 0.12858 0.0
C357 C 0.99477 0.94675 0.13908 0.0
C358 C 0.03439 0.92284 0.12253 0.0
C359 C 0.04846 0.94708 0.09787 0.0
C360 C 0.03976 0.905 0.21385 0.0
C361 C 0.98898 0.90685 0.22674 0.0
C362 C 0.04087 0.91617 0.18529 0.0
C363 C 0.99117 0.92935 0.16868 0.0
C364 C 0.93994 0.92989 0.18133 0.0
C365 C 0.93887 0.91879 0.21012 0.0
H366 H 0.11979 0.05298 0.92034 0.0
H367 H 0.97617 0.94685 0.9205 0.0
H368 H 0.14028 0.01517 0.87429 0.0
H369 H 0.99754 0.90752 0.87532 0.0
H370 H 0.98584 0.93657 0.77971 0.0
H371 H 0.98231 0.94928 0.83013 0.0
H372 H 0.16393 0.94055 0.84241 0.0
H373 H 0.16752 0.92735 0.79134 0.0
C374 C 0.09397 0.0202 0.91096 0.0
C375 C 0.04596 0.00327 0.92352 0.0
C376 C 0.10566 0.99843 0.88466 0.0
C377 C 0.0696 0.95927 0.87082 0.0
C378 C 0.02514 0.93869 0.88503 0.0
C379 C 0.01307 0.96091 0.91095 0.0
C380 C 0.02505 0.93579 0.7931 0.0
C381 C 0.07693 0.93079 0.78139 0.0
C382 C 0.02306 0.94312 0.82215 0.0
C383 C 0.07288 0.94563 0.84039 0.0
C384 C 0.12486 0.93916 0.82888 0.0
C385 C 0.12686 0.93168 0.79966 0.0
H386 H 0.48992 0.48245 0.60048 0.0
H387 H 0.59653 0.34719 0.62274 0.0
H388 H 0.45883 0.48511 0.64827 0.0
H389 H 0.56343 0.34746 0.66987 0.0
H390 H 0.58709 0.43594 0.75563 0.0
H391 H 0.59174 0.41075 0.70657 0.0
H392 H 0.41565 0.4499 0.6889 0.0
H393 H 0.41099 0.47553 0.73877 0.0
C394 C 0.5046 0.4518 0.61526 0.0
C395 C 0.54609 0.41515 0.60832 0.0
C396 C 0.48684 0.4532 0.64263 0.0
C397 C 0.50992 0.41743 0.66316 0.0
C398 C 0.54623 0.37668 0.65485 0.0
C399 C 0.56482 0.3761 0.62783 0.0
C400 C 0.54881 0.43787 0.74158 0.0
C401 C 0.49857 0.45743 0.75126 0.0
C402 C 0.55142 0.42325 0.71329 0.0
C403 C 0.50386 0.42764 0.69373 0.0
C404 C 0.45309 0.4462 0.7034 0.0
C405 C 0.45046 0.46094 0.73192 0.0
H406 H 0.57769 0.57707 0.45187 0.0
H407 H 0.66598 0.4465 0.41407 0.0
H408 H 0.5688 0.62263 0.40649 0.0
H409 H 0.65732 0.49196 0.3689 0.0
H410 H 0.65284 0.59606 0.2925 0.0
H411 H 0.68056 0.57272 0.34149 0.0
H412 H 0.50893 0.59485 0.36189 0.0
H413 H 0.48135 0.61902 0.31299 0.0
C414 C 0.59679 0.55896 0.43413 0.0
C415 C 0.62209 0.50802 0.43638 0.0
C416 C 0.59124 0.5848 0.40812 0.0
C417 C 0.61171 0.56049 0.3841 0.0
C418 C 0.64131 0.51181 0.38704 0.0
C419 C 0.64618 0.4857 0.41289 0.0
C420 C 0.62125 0.59691 0.30758 0.0
C421 C 0.56482 0.60903 0.29889 0.0
C422 C 0.63711 0.58333 0.33556 0.0
C423 C 0.59696 0.58202 0.3555 0.0
C424 C 0.54096 0.59616 0.34708 0.0
C425 C 0.525 0.6093 0.31902 0.0
loop_
_geom_bond_atom_site_label_1
_geom_bond_atom_site_label_2
_geom_bond_distance
_geom_bond_site_symmetry_2
_ccdc_geom_bond_type
Zn0 O6 1.915 1_546 S
Zn0 O12 1.898 . S
Zn0 O15 1.905 1_545 S
Zn1 O9 1.905 . S
Zn1 O10 1.898 1_545 S
Zn1 O18 1.920 1_545 S
Zn2 O5 2.080 1_445 S
Zn2 O8 2.114 . S
Zn2 O11 2.120 1_545 S
Zn2 O13 2.120 1_455 S
Zn2 O14 2.114 1_554 S
Zn2 O17 2.080 . S
C3 O8 1.166 . S
C3 O9 1.182 . S
C4 O10 1.167 . S
C4 O11 1.299 . S
O5 Zn2 2.080 1_665 S
O5 C19 1.305 . S
O6 Zn0 1.915 1_564 S
O6 C19 1.238 . S
C7 O12 1.183 . S
C7 O13 1.285 1_556 S
O8 Zn2 2.114 . S
O8 C3 1.166 . S
O9 Zn1 1.905 . S
O9 C3 1.182 . S
O10 Zn1 1.898 1_565 S
O10 C4 1.167 . S
O11 Zn2 2.120 1_565 S
O11 C4 1.299 . S
O12 Zn0 1.898 . S
O12 C7 1.183 . S
O13 Zn2 2.120 1_655 S
O13 C7 1.285 1_554 S
O14 Zn2 2.114 1_556 S
O14 C16 1.166 1_545 S
O15 Zn0 1.905 1_565 S
O15 C16 1.182 1_655 S
C16 O14 1.166 1_565 S
C16 O15 1.182 1_455 S
O17 Zn2 2.080 . S
O17 C20 1.305 1_545 S
O18 Zn1 1.920 1_565 S
O18 C20 1.234 . S
C19 O5 1.305 . S
C19 O6 1.238 . S
C20 O17 1.305 1_565 S
C20 O18 1.234 . S
Zn21 O27 1.920 . S
Zn21 O33 1.898 . S
Zn21 O36 1.905 . S
Zn22 O30 1.905 . S
Zn22 O31 1.898 . S
Zn22 O39 1.920 . S
Zn23 O26 2.080 . S
Zn23 O29 2.114 . S
Zn23 O32 2.120 . S
Zn23 O34 2.120 . S
Zn23 O35 2.114 . S
Zn23 O38 2.080 . S
C24 O29 1.166 . S
C24 O30 1.182 . S
C25 O31 1.167 . S
C25 O32 1.299 . S
O26 Zn23 2.080 . S
O26 C40 1.305 . S
O27 Zn21 1.920 . S
O27 C40 1.234 . S
C28 O33 1.167 . S
C28 O34 1.299 . S
O29 Zn23 2.114 . S
O29 C24 1.166 . S
O30 Zn22 1.905 . S
O30 C24 1.182 . S
O31 Zn22 1.898 . S
O31 C25 1.167 . S
O32 Zn23 2.120 . S
O32 C25 1.299 . S
O33 Zn21 1.898 . S
O33 C28 1.167 . S
O34 Zn23 2.120 . S
O34 C28 1.299 . S
O35 Zn23 2.114 . S
O35 C37 1.166 . S
O36 Zn21 1.905 . S
O36 C37 1.182 . S
C37 O35 1.166 . S
C37 O36 1.182 . S
O38 Zn23 2.080 . S
O38 C41 1.305 . S
O39 Zn22 1.920 . S
O39 C41 1.234 . S
C40 O26 1.305 . S
C40 O27 1.234 . S
C41 O38 1.305 . S
C41 O39 1.234 . S
C42 C43 1.384 . S
C42 H55 0.947 . S
C42 C77 1.382 . S
C43 C42 1.384 . S
C43 C44 1.378 . S
C44 C43 1.378 . S
C44 C45 1.378 1_655 S
C44 H56 0.952 . S
C45 C44 1.378 1_455 S
C45 H57 0.950 . S
C45 C76 1.383 . S
H46 C65 0.947 . S
H47 C66 0.946 . S
H48 C68 0.953 . S
H49 C69 0.945 . S
H50 C71 0.952 1_565 S
H51 C72 0.937 1_565 S
H52 C74 0.950 . S
H53 C75 0.948 . S
H54 C77 0.951 . S
H55 C42 0.947 . S
H56 C44 0.952 . S
H57 C45 0.950 . S
N58 C61 1.382 . S
N58 C63 1.363 . S
N59 C61 1.371 . S
N59 C62 1.372 . S
N60 C62 1.361 . S
N60 C63 1.377 . S
C61 N58 1.382 . S
C61 N59 1.371 . S
C61 C64 1.480 1_545 S
C62 N59 1.372 . S
C62 N60 1.361 . S
C62 C70 1.457 . S
C63 N58 1.363 . S
C63 N60 1.377 . S
C63 C76 1.479 . S
C64 C61 1.480 1_565 S
C64 C65 1.383 . S
C64 C69 1.385 . S
C65 H46 0.947 . S
C65 C64 1.383 . S
C65 C66 1.388 . S
C66 H47 0.946 . S
C66 C65 1.388 . S
C66 C67 1.384 . S
C67 C66 1.384 . S
C67 C68 1.377 . S
C68 H48 0.953 . S
C68 C67 1.377 . S
C68 C69 1.369 . S
C69 H49 0.945 . S
C69 C64 1.385 . S
C69 C68 1.369 . S
C70 C62 1.457 . S
C70 C71 1.372 . S
C70 C75 1.364 . S
C71 H50 0.952 1_545 S
C71 C70 1.372 . S
C71 C72 1.389 . S
C72 H51 0.937 1_545 S
C72 C71 1.389 . S
C72 C73 1.399 . S
C73 C72 1.399 . S
C73 C74 1.372 . S
C74 H52 0.950 . S
C74 C73 1.372 . S
C74 C75 1.379 . S
C75 H53 0.948 . S
C75 C70 1.364 . S
C75 C74 1.379 . S
C76 C45 1.383 . S
C76 C63 1.479 . S
C76 C77 1.398 1_455 S
C77 C42 1.382 . S
C77 H54 0.951 . S
C77 C76 1.398 1_655 S
C78 C79 1.384 . S
C78 H91 0.947 . S
C78 C113 1.382 . S
C79 C78 1.384 . S
C79 C80 1.378 . S
C80 C79 1.378 . S
C80 C81 1.378 . S
C80 H92 0.952 . S
C81 C80 1.378 . S
C81 H93 0.950 . S
C81 C112 1.383 . S
H82 C101 0.947 . S
H83 C102 0.946 . S
H84 C104 0.953 . S
H85 C105 0.945 . S
H86 C107 0.952 . S
H87 C108 0.949 . S
H88 C110 0.950 . S
H89 C111 0.948 . S
H90 C113 0.951 . S
H91 C78 0.947 . S
H92 C80 0.952 . S
H93 C81 0.950 . S
N94 C97 1.382 . S
N94 C99 1.363 1_445 S
N95 C97 1.371 . S
N95 C98 1.372 . S
N96 C98 1.361 1_665 S
N96 C99 1.377 . S
C97 N94 1.382 . S
C97 N95 1.371 . S
C97 C100 1.480 . S
C98 N95 1.372 . S
C98 N96 1.361 1_445 S
C98 C106 1.457 . S
C99 N94 1.363 1_665 S
C99 N96 1.377 . S
C99 C112 1.479 . S
C100 C97 1.480 . S
C100 C101 1.383 . S
C100 C105 1.385 . S
C101 H82 0.947 . S
C101 C100 1.383 . S
C101 C102 1.388 . S
C102 H83 0.946 . S
C102 C101 1.388 . S
C102 C103 1.384 . S
C103 C102 1.384 . S
C103 C104 1.377 . S
C104 H84 0.953 . S
C104 C103 1.377 . S
C104 C105 1.369 . S
C105 H85 0.945 . S
C105 C100 1.385 . S
C105 C104 1.369 . S
C106 C98 1.457 . S
C106 C107 1.372 . S
C106 C111 1.364 1_445 S
C107 H86 0.952 . S
C107 C106 1.372 . S
C107 C108 1.389 . S
C108 H87 0.949 . S
C108 C107 1.389 . S
C108 C109 1.387 . S
C109 C108 1.387 . S
C109 C110 1.372 1_445 S
C110 H88 0.950 . S
C110 C109 1.372 1_665 S
C110 C111 1.379 . S
C111 H89 0.948 . S
C111 C106 1.364 1_665 S
C111 C110 1.379 . S
C112 C81 1.383 . S
C112 C99 1.479 . S
C112 C113 1.398 . S
C113 C78 1.382 . S
C113 H90 0.951 . S
C113 C112 1.398 . S
C114 C115 1.384 . S
C114 H127 0.947 . S
C114 C149 1.382 . S
C115 C114 1.384 . S
C115 C116 1.378 . S
C116 C115 1.378 . S
C116 C117 1.378 . S
C116 H128 0.952 . S
C117 C116 1.378 . S
C117 H129 0.950 . S
C117 C148 1.383 . S
H118 C137 0.947 . S
H119 C138 0.946 . S
H120 C140 0.953 . S
H121 C141 0.945 . S
H122 C143 0.952 . S
H123 C144 0.949 . S
H124 C146 0.950 . S
H125 C147 0.948 . S
H126 C149 0.951 . S
H127 C114 0.947 . S
H128 C116 0.952 . S
H129 C117 0.950 . S
N130 C133 1.382 . S
N130 C135 1.363 . S
N131 C133 1.371 . S
N131 C134 1.372 . S
N132 C134 1.361 . S
N132 C135 1.377 . S
C133 N130 1.382 . S
C133 N131 1.371 . S
C133 C136 1.480 . S
C134 N131 1.372 . S
C134 N132 1.361 . S
C134 C142 1.457 . S
C135 N130 1.363 . S
C135 N132 1.377 . S
C135 C148 1.479 . S
C136 C133 1.480 . S
C136 C137 1.383 . S
C136 C141 1.385 . S
C137 H118 0.947 . S
C137 C136 1.383 . S
C137 C138 1.388 . S
C138 H119 0.946 . S
C138 C137 1.388 . S
C138 C139 1.384 . S
C139 C138 1.384 . S
C139 C140 1.377 . S
C140 H120 0.953 . S
C140 C139 1.377 . S
C140 C141 1.369 . S
C141 H121 0.945 . S
C141 C136 1.385 . S
C141 C140 1.369 . S
C142 C134 1.457 . S
C142 C143 1.372 . S
C142 C147 1.364 . S
C143 H122 0.952 . S
C143 C142 1.372 . S
C143 C144 1.389 . S
C144 H123 0.949 . S
C144 C143 1.389 . S
C144 C145 1.387 . S
C145 C144 1.387 . S
C145 C146 1.372 . S
C146 H124 0.950 . S
C146 C145 1.372 . S
C146 C147 1.379 . S
C147 H125 0.948 . S
C147 C142 1.364 . S
C147 C146 1.379 . S
C148 C117 1.383 . S
C148 C135 1.479 . S
C148 C149 1.398 . S
C149 C114 1.382 . S
C149 H126 0.951 . S
C149 C148 1.398 . S
C150 C151 1.384 . S
C150 H163 0.947 . S
C150 C185 1.382 . S
C151 C150 1.384 . S
C151 C152 1.378 . S
C152 C151 1.378 . S
C152 C153 1.378 . S
C152 H164 0.952 . S
C153 C152 1.378 . S
C153 H165 0.950 . S
C153 C184 1.383 . S
H154 C173 0.947 . S
H155 C174 0.946 . S
H156 C176 0.953 . S
H157 C177 0.945 . S
H158 C179 0.952 . S
H159 C180 0.949 . S
H160 C182 0.950 . S
H161 C183 0.948 . S
H162 C185 0.951 . S
H163 C150 0.947 . S
H164 C152 0.952 . S
H165 C153 0.950 . S
N166 C169 1.382 . S
N166 C171 1.363 . S
N167 C169 1.371 . S
N167 C170 1.372 . S
N168 C170 1.361 . S
N168 C171 1.377 . S
C169 N166 1.382 . S
C169 N167 1.371 . S
C169 C172 1.480 . S
C170 N167 1.372 . S
C170 N168 1.361 . S
C170 C178 1.457 . S
C171 N166 1.363 . S
C171 N168 1.377 . S
C171 C184 1.479 . S
C172 C169 1.480 . S
C172 C173 1.383 . S
C172 C177 1.385 . S
C173 H154 0.947 . S
C173 C172 1.383 . S
C173 C174 1.388 . S
C174 H155 0.946 . S
C174 C173 1.388 . S
C174 C175 1.384 . S
C175 C174 1.384 . S
C175 C176 1.377 . S
C176 H156 0.953 . S
C176 C175 1.377 . S
C176 C177 1.369 . S
C177 H157 0.945 . S
C177 C172 1.385 . S
C177 C176 1.369 . S
C178 C170 1.457 . S
C178 C179 1.372 . S
C178 C183 1.364 . S
C179 H158 0.952 . S
C179 C178 1.372 . S
C179 C180 1.389 . S
C180 H159 0.949 . S
C180 C179 1.389 . S
C180 C181 1.387 . S
C181 C180 1.387 . S
C181 C182 1.372 . S
C182 H160 0.950 . S
C182 C181 1.372 . S
C182 C183 1.379 . S
C183 H161 0.948 . S
C183 C178 1.364 . S
C183 C182 1.379 . S
C184 C153 1.383 . S
C184 C171 1.479 . S
C184 C185 1.398 . S
C185 C150 1.382 . S
C185 H162 0.951 . S
C185 C184 1.398 . S
H186 C194 0.950 . S
H187 C199 0.950 1_556 S
H188 C196 0.950 . S
H189 C198 0.923 1_556 S
H190 C200 0.950 . S
H191 C202 0.950 . S
H192 C204 0.950 . S
H193 C205 0.950 . S
C194 H186 0.950 . S
C194 C195 1.386 . S
C194 C196 1.391 . S
C195 C194 1.386 . S
C195 C199 1.393 . S
C196 H188 0.950 . S
C196 C194 1.391 . S
C196 C197 1.400 . S
C197 C196 1.400 . S
C197 C198 1.398 . S
C197 C203 1.491 . S
C198 H189 0.923 1_554 S
C198 C197 1.398 . S
C198 C199 1.391 . S
C199 H187 0.950 1_554 S
C199 C195 1.393 . S
C199 C198 1.391 . S
C200 H190 0.950 . S
C200 C201 1.386 . S
C200 C202 1.391 . S
C201 C200 1.386 . S
C201 C205 1.393 . S
C202 H191 0.950 . S
C202 C200 1.391 . S
C202 C203 1.400 . S
C203 C197 1.491 . S
C203 C202 1.400 . S
C203 C204 1.398 . S
C204 H192 0.950 . S
C204 C203 1.398 . S
C204 C205 1.391 . S
C205 H193 0.950 . S
C205 C201 1.393 . S
C205 C204 1.391 . S
H206 C214 0.950 . S
H207 C219 0.950 1_554 S
H208 C216 0.950 . S
H209 C218 0.950 . S
H210 C220 0.950 . S
H211 C222 0.950 . S
H212 C224 0.950 . S
H213 C225 0.950 . S
C214 H206 0.950 . S
C214 C215 1.386 . S
C214 C216 1.391 . S
C215 C214 1.386 . S
C215 C219 1.393 . S
C216 H208 0.950 . S
C216 C214 1.391 . S
C216 C217 1.400 . S
C217 C216 1.400 . S
C217 C218 1.398 . S
C217 C223 1.491 . S
C218 H209 0.950 . S
C218 C217 1.398 . S
C218 C219 1.391 . S
C219 H207 0.950 1_556 S
C219 C215 1.393 . S
C219 C218 1.391 . S
C220 H210 0.950 . S
C220 C221 1.386 . S
C220 C222 1.391 . S
C221 C220 1.386 . S
C221 C225 1.393 . S
C222 H211 0.950 . S
C222 C220 1.391 . S
C222 C223 1.400 . S
C223 C217 1.491 . S
C223 C222 1.400 . S
C223 C224 1.398 . S
C224 H212 0.950 . S
C224 C223 1.398 . S
C224 C225 1.391 . S
C225 H213 0.950 . S
C225 C221 1.393 . S
C225 C224 1.391 . S
H226 C234 0.950 . S
H227 C239 0.950 . S
H228 C236 0.950 . S
H229 C238 0.950 . S
H230 C240 0.950 . S
H231 C242 0.950 . S
H232 C244 0.950 . S
H233 C245 0.950 . S
C234 H226 0.950 . S
C234 C235 1.386 . S
C234 C236 1.391 . S
C235 C234 1.386 . S
C235 C239 1.393 . S
C236 H228 0.950 . S
C236 C234 1.391 . S
C236 C237 1.400 . S
C237 C236 1.400 . S
C237 C238 1.398 . S
C237 C243 1.491 . S
C238 H229 0.950 . S
C238 C237 1.398 . S
C238 C239 1.391 . S
C239 H227 0.950 . S
C239 C235 1.393 . S
C239 C238 1.391 . S
C240 H230 0.950 . S
C240 C241 1.386 . S
C240 C242 1.391 . S
C241 C240 1.386 . S
C241 C245 1.393 . S
C242 H231 0.950 . S
C242 C240 1.391 . S
C242 C243 1.400 . S
C243 C237 1.491 . S
C243 C242 1.400 . S
C243 C244 1.398 . S
C244 H232 0.950 . S
C244 C243 1.398 . S
C244 C245 1.391 . S
C245 H233 0.950 . S
C245 C241 1.393 . S
C245 C244 1.391 . S
H246 C254 0.950 . S
H247 C259 0.950 . S
H248 C256 0.950 . S
H249 C258 0.950 . S
H250 C260 0.950 . S
H251 C262 0.950 . S
H252 C264 0.945 1_554 S
H253 C265 0.950 1_554 S
C254 H246 0.950 . S
C254 C255 1.386 . S
C254 C256 1.391 . S
C255 C254 1.386 . S
C255 C259 1.393 1_554 S
C256 H248 0.950 . S
C256 C254 1.391 . S
C256 C257 1.400 1_554 S
C257 C256 1.400 1_556 S
C257 C258 1.398 . S
C257 C263 1.491 . S
C258 H249 0.950 . S
C258 C257 1.398 . S
C258 C259 1.391 . S
C259 H247 0.950 . S
C259 C255 1.393 1_556 S
C259 C258 1.391 . S
C260 H250 0.950 . S
C260 C261 1.386 . S
C260 C262 1.391 . S
C261 C260 1.386 . S
C261 C265 1.393 . S
C262 H251 0.950 . S
C262 C260 1.391 . S
C262 C263 1.400 . S
C263 C257 1.491 . S
C263 C262 1.400 . S
C263 C264 1.402 . S
C264 H252 0.945 1_556 S
C264 C263 1.402 . S
C264 C265 1.392 . S
C265 H253 0.950 1_556 S
C265 C261 1.393 . S
C265 C264 1.392 . S
H266 C274 0.950 . S
H267 C279 0.950 . S
H268 C276 0.950 . S
H269 C278 0.950 . S
H270 C280 0.950 . S
H271 C282 0.950 . S
H272 C284 0.950 . S
H273 C285 0.950 . S
C274 H266 0.950 . S
C274 C275 1.386 . S
C274 C276 1.391 . S
C275 C274 1.386 . S
C275 C279 1.393 . S
C276 H268 0.950 . S
C276 C274 1.391 . S
C276 C277 1.400 . S
C277 C276 1.400 . S
C277 C278 1.398 . S
C277 C283 1.491 . S
C278 H269 0.950 . S
C278 C277 1.398 . S
C278 C279 1.391 . S
C279 H267 0.950 . S
C279 C275 1.393 . S
C279 C278 1.391 . S
C280 H270 0.950 . S
C280 C281 1.386 . S
C280 C282 1.391 . S
C281 C280 1.386 . S
C281 C285 1.393 . S
C282 H271 0.950 . S
C282 C280 1.391 . S
C282 C283 1.400 . S
C283 C277 1.491 . S
C283 C282 1.400 . S
C283 C284 1.398 . S
C284 H272 0.950 . S
C284 C283 1.398 . S
C284 C285 1.391 . S
C285 H273 0.950 . S
C285 C281 1.393 . S
C285 C284 1.391 . S
H286 C294 0.950 . S
H287 C299 0.950 . S
H288 C296 0.950 . S
H289 C298 0.950 . S
H290 C300 0.950 . S
H291 C302 0.950 . S
H292 C304 0.950 . S
H293 C305 0.950 . S
C294 H286 0.950 . S
C294 C295 1.386 . S
C294 C296 1.391 . S
C295 C294 1.386 . S
C295 C299 1.393 . S
C296 H288 0.950 . S
C296 C294 1.391 . S
C296 C297 1.400 . S
C297 C296 1.400 . S
C297 C298 1.398 . S
C297 C303 1.491 . S
C298 H289 0.950 . S
C298 C297 1.398 . S
C298 C299 1.391 . S
C299 H287 0.950 . S
C299 C295 1.393 . S
C299 C298 1.391 . S
C300 H290 0.950 . S
C300 C301 1.386 . S
C300 C302 1.391 . S
C301 C300 1.386 . S
C301 C305 1.393 . S
C302 H291 0.950 . S
C302 C300 1.391 . S
C302 C303 1.400 . S
C303 C297 1.491 . S
C303 C302 1.400 . S
C303 C304 1.398 . S
C304 H292 0.950 . S
C304 C303 1.398 . S
C304 C305 1.391 . S
C305 H293 0.950 . S
C305 C301 1.393 . S
C305 C304 1.391 . S
H306 C314 0.950 . S
H307 C319 0.950 . S
H308 C316 0.950 . S
H309 C318 0.950 . S
H310 C320 0.950 . S
H311 C322 0.950 . S
H312 C324 0.950 . S
H313 C325 0.950 . S
C314 H306 0.950 . S
C314 C315 1.386 . S
C314 C316 1.391 . S
C315 C314 1.386 . S
C315 C319 1.393 . S
C316 H308 0.950 . S
C316 C314 1.391 . S
C316 C317 1.400 . S
C317 C316 1.400 . S
C317 C318 1.398 . S
C317 C323 1.491 . S
C318 H309 0.950 . S
C318 C317 1.398 . S
C318 C319 1.391 . S
C319 H307 0.950 . S
C319 C315 1.393 . S
C319 C318 1.391 . S
C320 H310 0.950 . S
C320 C321 1.386 . S
C320 C322 1.391 . S
C321 C320 1.386 . S
C321 C325 1.393 . S
C322 H311 0.950 . S
C322 C320 1.391 . S
C322 C323 1.400 . S
C323 C317 1.491 . S
C323 C322 1.400 . S
C323 C324 1.398 . S
C324 H312 0.950 . S
C324 C323 1.398 . S
C324 C325 1.391 . S
C325 H313 0.950 . S
C325 C321 1.393 . S
C325 C324 1.391 . S
H326 C334 0.950 . S
H327 C339 0.950 . S
H328 C336 0.950 . S
H329 C338 0.950 . S
H330 C340 0.950 . S
H331 C342 0.950 . S
H332 C344 0.950 . S
H333 C345 0.950 . S
C334 H326 0.950 . S
C334 C335 1.386 . S
C334 C336 1.391 . S
C335 C334 1.386 . S
C335 C339 1.393 . S
C336 H328 0.950 . S
C336 C334 1.391 . S
C336 C337 1.400 . S
C337 C336 1.400 . S
C337 C338 1.398 . S
C337 C343 1.491 . S
C338 H329 0.950 . S
C338 C337 1.398 . S
C338 C339 1.391 . S
C339 H327 0.950 . S
C339 C335 1.393 . S
C339 C338 1.391 . S
C340 H330 0.950 . S
C340 C341 1.386 . S
C340 C342 1.391 . S
C341 C340 1.386 . S
C341 C345 1.393 . S
C342 H331 0.950 . S
C342 C340 1.391 . S
C342 C343 1.400 . S
C343 C337 1.491 . S
C343 C342 1.400 . S
C343 C344 1.398 . S
C344 H332 0.950 . S
C344 C343 1.398 . S
C344 C345 1.391 . S
C345 H333 0.950 . S
C345 C341 1.393 . S
C345 C344 1.391 . S
H346 C354 0.950 1_655 S
H347 C359 0.950 . S
H348 C356 0.950 1_655 S
H349 C358 0.950 . S
H350 C360 0.950 1_565 S
H351 C362 0.950 . S
H352 C364 0.950 1_655 S
H353 C365 0.950 1_655 S
C354 H346 0.950 1_455 S
C354 C355 1.386 1_545 S
C354 C356 1.391 . S
C355 C354 1.386 1_565 S
C355 C359 1.393 . S
C356 H348 0.950 1_455 S
C356 C354 1.391 . S
C356 C357 1.400 . S
C357 C356 1.400 . S
C357 C358 1.398 1_545 S
C357 C363 1.491 . S
C358 H349 0.950 . S
C358 C357 1.398 1_565 S
C358 C359 1.391 . S
C359 H347 0.950 . S
C359 C355 1.393 . S
C359 C358 1.391 . S
C360 H350 0.950 1_545 S
C360 C361 1.386 . S
C360 C362 1.391 1_545 S
C361 C360 1.386 . S
C361 C365 1.393 . S
C362 H351 0.950 . S
C362 C360 1.391 1_565 S
C362 C363 1.400 1_565 S
C363 C357 1.491 . S
C363 C362 1.400 1_545 S
C363 C364 1.398 . S
C364 H352 0.950 1_455 S
C364 C363 1.398 . S
C364 C365 1.391 . S
C365 H353 0.950 1_455 S
C365 C361 1.393 . S
C365 C364 1.391 . S
H366 C374 0.950 . S
H367 C379 0.950 . S
H368 C376 0.950 . S
H369 C378 0.950 . S
H370 C380 0.950 1_565 S
H371 C382 0.950 . S
H372 C384 0.950 . S
H373 C385 0.950 . S
C374 H366 0.950 . S
C374 C375 1.386 1_545 S
C374 C376 1.391 . S
C375 C374 1.386 1_565 S
C375 C379 1.393 1_455 S
C376 H368 0.950 . S
C376 C374 1.391 . S
C376 C377 1.400 . S
C377 C376 1.400 . S
C377 C378 1.398 1_445 S
C377 C383 1.491 . S
C378 H369 0.950 . S
C378 C377 1.398 1_665 S
C378 C379 1.391 . S
C379 H367 0.950 . S
C379 C375 1.393 1_655 S
C379 C378 1.391 . S
C380 H370 0.950 1_545 S
C380 C381 1.386 1_655 S
C380 C382 1.391 1_545 S
C381 C380 1.386 1_455 S
C381 C385 1.393 . S
C382 H371 0.950 . S
C382 C380 1.391 1_565 S
C382 C383 1.400 1_665 S
C383 C377 1.491 . S
C383 C382 1.400 1_445 S
C383 C384 1.398 . S
C384 H372 0.950 . S
C384 C383 1.398 . S
C384 C385 1.391 . S
C385 H373 0.950 . S
C385 C381 1.393 . S
C385 C384 1.391 . S
H386 C394 0.950 . S
H387 C399 0.950 . S
H388 C396 0.950 . S
H389 C398 0.950 . S
H390 C400 0.950 . S
H391 C402 0.950 . S
H392 C404 0.950 . S
H393 C405 0.950 . S
C394 H386 0.950 . S
C394 C395 1.386 . S
C394 C396 1.391 . S
C395 C394 1.386 . S
C395 C399 1.393 . S
C396 H388 0.950 . S
C396 C394 1.391 . S
C396 C397 1.400 . S
C397 C396 1.400 . S
C397 C398 1.398 . S
C397 C403 1.491 . S
C398 H389 0.950 . S
C398 C397 1.398 . S
C398 C399 1.391 . S
C399 H387 0.950 . S
C399 C395 1.393 . S
C399 C398 1.391 . S
C400 H390 0.950 . S
C400 C401 1.386 . S
C400 C402 1.391 . S
C401 C400 1.386 . S
C401 C405 1.393 . S
C402 H391 0.950 . S
C402 C400 1.391 . S
C402 C403 1.400 . S
C403 C397 1.491 . S
C403 C402 1.400 . S
C403 C404 1.398 . S
C404 H392 0.950 . S
C404 C403 1.398 . S
C404 C405 1.391 . S
C405 H393 0.950 . S
C405 C401 1.393 . S
C405 C404 1.391 . S
H406 C414 0.950 . S
H407 C419 0.950 . S
H408 C416 0.950 . S
H409 C418 0.950 . S
H410 C420 0.950 . S
H411 C422 0.950 . S
H412 C424 0.950 . S
H413 C425 0.950 . S
C414 H406 0.950 . S
C414 C415 1.386 . S
C414 C416 1.391 . S
C415 C414 1.386 . S
C415 C419 1.393 . S
C416 H408 0.950 . S
C416 C414 1.391 . S
C416 C417 1.400 . S
C417 C416 1.400 . S
C417 C418 1.398 . S
C417 C423 1.491 . S
C418 H409 0.950 . S
C418 C417 1.398 . S
C418 C419 1.391 . S
C419 H407 0.950 . S
C419 C415 1.393 . S
C419 C418 1.391 . S
C420 H410 0.950 . S
C420 C421 1.386 . S
C420 C422 1.391 . S
C421 C420 1.386 . S
C421 C425 1.393 . S
C422 H411 0.950 . S
C422 C420 1.391 . S
C422 C423 1.400 . S
C423 C417 1.491 . S
C423 C422 1.400 . S
C423 C424 1.398 . S
C424 H412 0.950 . S
C424 C423 1.398 . S
C424 C425 1.391 . S
C425 H413 0.950 . S
C425 C421 1.393 . S
C425 C424 1.391 . S
C201 C151 1.237 . S
C195 C3 1.097 . S
C215 C4 1.512 1_556 S
C221 C115 1.621 . S
C235 C19 1.532 . S
C241 C175 1.613 . S
C255 C7 1.145 1_554 S
C261 C139 1.221 . S
C275 C37 1.097 . S
C281 C79 1.240 . S
C295 C28 1.496 . S
C301 C43 1.618 . S
C321 C103 1.618 . S
C315 C41 1.542 . S
C341 C67 1.225 . S
C335 C25 1.147 . S
C355 C20 1.312 . S
C361 C73 1.463 . S
C375 C16 1.361 . S
C381 C109 1.499 . S
C401 C145 1.464 . S
C395 C40 1.314 . S
C415 C24 1.340 . S
C421 C181 1.486 . S
