# Generated by pormake.
# Topology dag, (6,3)-cn, num edge types: 1
# Building blocks:
#     Node 0, Type 0, BuildingBlock: IZENUY_clean_sbu_0, # of connection points: 6
#     Node 1, Type 0, BuildingBlock: IZENUY_clean_sbu_0, # of connection points: 6
#     Node 2, Type 0, BuildingBlock: IZENUY_clean_sbu_0, # of connection points: 6
#     Node 3, Type 0, BuildingBlock: IZENUY_clean_sbu_0, # of connection points: 6
#     Node 4, Type 1, BuildingBlock: PAMTOO_clean_linker_0, # of connection points: 3
#     Node 5, Type 1, BuildingBlock: PAMTOO_clean_linker_0, # of connection points: 3
#     Node 6, Type 1, BuildingBlock: PAMTOO_clean_linker_0, # of connection points: 3
#     Node 7, Type 1, BuildingBlock: PAMTOO_clean_linker_0, # of connection points: 3
#     Node 8, Type 1, BuildingBlock: PAMTOO_clean_linker_0, # of connection points: 3
#     Node 9, Type 1, BuildingBlock: PAMTOO_clean_linker_0, # of connection points: 3
#     Node 10, Type 1, BuildingBlock: PAMTOO_clean_linker_0, # of connection points: 3
#     Node 11, Type 1, BuildingBlock: PAMTOO_clean_linker_0, # of connection points: 3
#     Edge 12, Type (0, 1), BuildingBlock: KIFKEQ_clean_linker_1, # of connection points: 2
#     Edge 13, Type (0, 1), BuildingBlock: KIFKEQ_clean_linker_1, # of connection points: 2
#     Edge 14, Type (0, 1), BuildingBlock: KIFKEQ_clean_linker_1, # of connection points: 2
#     Edge 15, Type (0, 1), BuildingBlock: KIFKEQ_clean_linker_1, # of connection points: 2
#     Edge 16, Type (0, 1), BuildingBlock: KIFKEQ_clean_linker_1, # of connection points: 2
#     Edge 17, Type (0, 1), BuildingBlock: KIFKEQ_clean_linker_1, # of connection points: 2
#     Edge 18, Type (0, 1), BuildingBlock: KIFKEQ_clean_linker_1, # of connection points: 2
#     Edge 19, Type (0, 1), BuildingBlock: KIFKEQ_clean_linker_1, # of connection points: 2
#     Edge 20, Type (0, 1), BuildingBlock: KIFKEQ_clean_linker_1, # of connection points: 2
#     Edge 21, Type (0, 1), BuildingBlock: KIFKEQ_clean_linker_1, # of connection points: 2
#     Edge 22, Type (0, 1), BuildingBlock: KIFKEQ_clean_linker_1, # of connection points: 2
#     Edge 23, Type (0, 1), BuildingBlock: KIFKEQ_clean_linker_1, # of connection points: 2
#     Edge 24, Type (0, 1), BuildingBlock: KIFKEQ_clean_linker_1, # of connection points: 2
#     Edge 25, Type (0, 1), BuildingBlock: KIFKEQ_clean_linker_1, # of connection points: 2
#     Edge 26, Type (0, 1), BuildingBlock: KIFKEQ_clean_linker_1, # of connection points: 2
#     Edge 27, Type (0, 1), BuildingBlock: KIFKEQ_clean_linker_1, # of connection points: 2
#     Edge 28, Type (0, 1), BuildingBlock: KIFKEQ_clean_linker_1, # of connection points: 2
#     Edge 29, Type (0, 1), BuildingBlock: KIFKEQ_clean_linker_1, # of connection points: 2
#     Edge 30, Type (0, 1), BuildingBlock: KIFKEQ_clean_linker_1, # of connection points: 2
#     Edge 31, Type (0, 1), BuildingBlock: KIFKEQ_clean_linker_1, # of connection points: 2
#     Edge 32, Type (0, 1), BuildingBlock: KIFKEQ_clean_linker_1, # of connection points: 2
#     Edge 33, Type (0, 1), BuildingBlock: KIFKEQ_clean_linker_1, # of connection points: 2
#     Edge 34, Type (0, 1), BuildingBlock: KIFKEQ_clean_linker_1, # of connection points: 2
#     Edge 35, Type (0, 1), BuildingBlock: KIFKEQ_clean_linker_1, # of connection points: 2
# Relax obj value: 0.093
# Max RMSD: 0.108
# Mean RMSD: 0.087
data_MOF--net-dag--node1-IZENUY_clean_sbu_0--node2-PAMTOO_clean_linker_0--edge1-KIFKEQ_clean_linker_1
_symmetry_space_group_name_H-M    P1
_symmetry_Int_Tables_number       1
_symmetry_cell_setting            triclinic
loop_
_symmetry_equiv_pos_as_xyz
'x, y, z'
_cell_length_a     39.981407
_cell_length_b     41.070356
_cell_length_c     36.384877
_cell_angle_alpha  90.052269
_cell_angle_beta   94.45773
_cell_angle_gamma 90.112038
loop_
_atom_site_label
_atom_site_type_symbol
_atom_site_fract_x
_atom_site_fract_y
_atom_site_fract_z
_atom_type_partial_charge
Fe0 Fe 0.18542 0.85767 0.00731 0.0
Fe1 Fe 0.11176 0.87864 0.0002 0.0
O2 O 0.1423 0.84774 0.99859 0.0
Fe3 Fe 0.12942 0.80718 0.9885 0.0
O4 O 0.14909 0.79251 0.03191 0.0
O5 O 0.19693 0.81868 0.0294 0.0
O6 O 0.17898 0.87327 0.05317 0.0
C7 C 0.15813 0.89522 0.05936 0.0
C8 C 0.18823 0.81451 0.9501 0.0
O9 O 0.13568 0.90332 0.03477 0.0
C10 C 0.08562 0.83968 0.9407 0.0
O11 O 0.18134 0.89848 0.9865 0.0
O12 O 0.12906 0.90045 0.96269 0.0
O13 O 0.16635 0.79701 0.96399 0.0
O14 O 0.19514 0.84268 0.96242 0.0
C15 C 0.08179 0.82983 0.0363 0.0
O16 O 0.08157 0.85987 0.96614 0.0
O17 O 0.10873 0.81884 0.94404 0.0
C18 C 0.15901 0.91049 0.96376 0.0
O19 O 0.0931 0.85853 0.03785 0.0
O20 O 0.09013 0.81021 0.01167 0.0
C21 C 0.17944 0.79672 0.04315 0.0
Fe22 Fe 0.69028 0.6458 0.50941 0.0
Fe23 Fe 0.63039 0.69167 0.49057 0.0
O24 O 0.64647 0.65238 0.50184 0.0
Fe25 Fe 0.6185 0.61943 0.50566 0.0
O26 O 0.64511 0.59731 0.54034 0.0
O27 O 0.68632 0.63106 0.55614 0.0
O28 O 0.69934 0.68609 0.52975 0.0
C29 C 0.6805 0.70666 0.54385 0.0
C30 C 0.66686 0.59009 0.46866 0.0
O31 O 0.64981 0.70873 0.53304 0.0
C32 C 0.58894 0.65406 0.44472 0.0
O33 O 0.6974 0.66004 0.46349 0.0
O34 O 0.66587 0.70383 0.46456 0.0
O35 O 0.63636 0.59798 0.46841 0.0
O36 O 0.68888 0.60415 0.49019 0.0
C37 C 0.58552 0.66705 0.54044 0.0
O38 O 0.6096 0.67739 0.44708 0.0
O39 O 0.58659 0.63486 0.4715 0.0
C40 C 0.68805 0.68717 0.45012 0.0
O41 O 0.59211 0.68639 0.51482 0.0
O42 O 0.59906 0.6393 0.54313 0.0
C43 C 0.66827 0.60705 0.5633 0.0
Fe44 Fe 0.87004 0.1979 0.05457 0.0
Fe45 Fe 0.88813 0.12636 0.04428 0.0
O46 O 0.85742 0.15712 0.04536 0.0
Fe47 Fe 0.81436 0.14692 0.03703 0.0
O48 O 0.80264 0.18555 0.01412 0.0
O49 O 0.85049 0.21154 0.0107 0.0
O50 O 0.90946 0.19464 0.03174 0.0
C51 C 0.91788 0.17479 0.0074 0.0
C52 C 0.81146 0.19098 0.09329 0.0
O53 O 0.90667 0.14605 0.00628 0.0
C54 C 0.84114 0.09478 0.08138 0.0
O55 O 0.89065 0.18705 0.09935 0.0
O56 O 0.9181 0.14576 0.07811 0.0
O57 O 0.80487 0.1625 0.08177 0.0
O58 O 0.8329 0.20842 0.07858 0.0
C59 C 0.84168 0.10878 0.98548 0.0
O60 O 0.87102 0.10494 0.08215 0.0
O61 O 0.81867 0.10643 0.05856 0.0
C62 C 0.91381 0.16626 0.10319 0.0
O63 O 0.86434 0.10114 0.01006 0.0
O64 O 0.82069 0.13067 0.99144 0.0
C65 C 0.82021 0.20691 0.9994 0.0
Fe66 Fe 0.38354 0.38118 0.53981 0.0
Fe67 Fe 0.31076 0.3574 0.53696 0.0
O68 O 0.35439 0.3494 0.54435 0.0
Fe69 Fe 0.36911 0.30979 0.55648 0.0
O70 O 0.39011 0.32427 0.59983 0.0
O71 O 0.41463 0.36551 0.57461 0.0
O72 O 0.36636 0.40426 0.57631 0.0
C73 C 0.33613 0.41296 0.57625 0.0
C74 C 0.41516 0.33183 0.50649 0.0
O75 O 0.3136 0.39931 0.55507 0.0
C76 C 0.31833 0.29532 0.50402 0.0
O77 O 0.35802 0.40295 0.50421 0.0
O78 O 0.31479 0.37115 0.48983 0.0
O79 O 0.40781 0.31321 0.53244 0.0
O80 O 0.40242 0.35984 0.50308 0.0
C81 C 0.31188 0.31694 0.59697 0.0
O82 O 0.30037 0.31697 0.51766 0.0
O83 O 0.34911 0.29265 0.51431 0.0
C84 C 0.33486 0.39313 0.48129 0.0
O85 O 0.30358 0.34431 0.5834 0.0
O86 O 0.33314 0.29926 0.58242 0.0
C87 C 0.41118 0.34726 0.60196 0.0
H88 H 0.10252 0.06715 0.22707 0.0
H89 H 0.13443 0.1487 0.29556 0.0
H90 H 0.20207 0.06934 0.28124 0.0
H91 H 0.21445 0.09564 0.35478 0.0
C92 C 0.19896 0.11802 0.35112 0.0
O93 O 0.19431 0.12534 0.31407 0.0
H94 H 0.17439 0.11304 0.36257 0.0
C95 C 0.12125 0.07887 0.24582 0.0
C96 C 0.15279 0.06418 0.25284 0.0
C97 C 0.11436 0.1095 0.26065 0.0
C98 C 0.13925 0.1251 0.28374 0.0
C99 C 0.17062 0.11035 0.29151 0.0
C100 C 0.17757 0.08026 0.27555 0.0
H101 H 0.37243 0.63194 0.63923 0.0
H102 H 0.30199 0.64306 0.72192 0.0
H103 H 0.37677 0.71672 0.70889 0.0
H104 H 0.36329 0.70995 0.78365 0.0
C105 C 0.33796 0.69852 0.78097 0.0
O106 O 0.32499 0.70013 0.74479 0.0
H107 H 0.34063 0.67263 0.7898 0.0
C108 C 0.36215 0.64637 0.66065 0.0
C109 C 0.37765 0.67579 0.67164 0.0
C110 C 0.33506 0.63421 0.67872 0.0
C111 C 0.32281 0.65222 0.70758 0.0
C112 C 0.33748 0.68228 0.71788 0.0
C113 C 0.36506 0.69388 0.70017 0.0
H114 H 0.87643 0.87171 0.1408 0.0
H115 H 0.80354 0.86308 0.22125 0.0
H116 H 0.87279 0.78496 0.20654 0.0
H117 H 0.80345 0.7637 0.2128 0.0
C118 C 0.79472 0.78309 0.23117 0.0
O119 O 0.82111 0.80372 0.24135 0.0
H120 H 0.77419 0.79684 0.21572 0.0
C121 C 0.86481 0.85754 0.16152 0.0
C122 C 0.87763 0.82675 0.1713 0.0
C123 C 0.83844 0.87103 0.17964 0.0
C124 C 0.8241 0.85304 0.20718 0.0
C125 C 0.836 0.82168 0.21617 0.0
C126 C 0.86323 0.80887 0.19884 0.0
H127 H 0.60455 0.4438 0.73166 0.0
H128 H 0.62763 0.35876 0.7978 0.0
H129 H 0.70412 0.43008 0.78323 0.0
H130 H 0.72815 0.36232 0.7827 0.0
C131 C 0.70932 0.35076 0.79953 0.0
O132 O 0.69039 0.37476 0.81443 0.0
H133 H 0.69299 0.33454 0.78132 0.0
C134 C 0.62205 0.43008 0.74988 0.0
C135 C 0.65534 0.441 0.75613 0.0
C136 C 0.6118 0.40033 0.76446 0.0
C137 C 0.63502 0.38184 0.78647 0.0
C138 C 0.66813 0.3928 0.79344 0.0
C139 C 0.67829 0.42219 0.7782 0.0
H140 H 0.62973 0.36837 0.41203 0.0
H141 H 0.62634 0.28378 0.34204 0.0
H142 H 0.70139 0.35742 0.33057 0.0
H143 H 0.66825 0.33033 0.26222 0.0
C144 C 0.66719 0.30424 0.27031 0.0
O145 O 0.67843 0.30063 0.30687 0.0
H146 H 0.64067 0.29587 0.26624 0.0
C147 C 0.64035 0.35398 0.3908 0.0
C148 C 0.66765 0.36626 0.37314 0.0
C149 C 0.62505 0.32449 0.37957 0.0
C150 C 0.63794 0.30659 0.35105 0.0
C151 C 0.66576 0.31826 0.33385 0.0
C152 C 0.68037 0.34822 0.34458 0.0
H153 H 0.12465 0.13285 0.90455 0.0
H154 H 0.12806 0.22009 0.83966 0.0
H155 H 0.20006 0.1439 0.82726 0.0
H156 H 0.22466 0.21495 0.83804 0.0
C157 C 0.20514 0.22608 0.81847 0.0
O158 O 0.18147 0.20301 0.80693 0.0
H159 H 0.19296 0.24605 0.8332 0.0
C160 C 0.13657 0.14743 0.88438 0.0
C161 C 0.16384 0.13469 0.86718 0.0
C162 C 0.12331 0.17799 0.87442 0.0
C163 C 0.13802 0.19636 0.8475 0.0
C164 C 0.16625 0.18442 0.83129 0.0
C165 C 0.17875 0.15333 0.84055 0.0
H166 H 0.39197 0.56188 0.31804 0.0
H167 H 0.36623 0.64811 0.25497 0.0
H168 H 0.29188 0.57398 0.2675 0.0
H169 H 0.28349 0.6008 0.19496 0.0
C170 C 0.29932 0.623 0.19901 0.0
O171 O 0.30438 0.62972 0.2362 0.0
H172 H 0.32373 0.61801 0.18726 0.0
C173 C 0.37388 0.57589 0.30086 0.0
C174 C 0.341 0.56407 0.29414 0.0
C175 C 0.38319 0.60635 0.28737 0.0
C176 C 0.3594 0.62472 0.26596 0.0
C177 C 0.32671 0.61272 0.25832 0.0
C178 C 0.31732 0.58283 0.27311 0.0
H179 H 0.89738 0.9386 0.81545 0.0
H180 H 0.8654 0.8567 0.74766 0.0
H181 H 0.79788 0.93635 0.76102 0.0
H182 H 0.76368 0.87145 0.7562 0.0
C183 C 0.78322 0.85782 0.7424 0.0
O184 O 0.80549 0.87983 0.72914 0.0
H185 H 0.79643 0.84129 0.76295 0.0
C186 C 0.87866 0.92688 0.79669 0.0
C187 C 0.84713 0.9416 0.78953 0.0
C188 C 0.88552 0.89618 0.78207 0.0
C189 C 0.86062 0.88043 0.75918 0.0
C190 C 0.8292 0.89507 0.75142 0.0
C191 C 0.82238 0.92546 0.76679 0.0
H192 H 0.21378 0.90636 0.10763 0.0
H193 H 0.10773 0.9263 0.08973 0.0
H194 H 0.21689 0.9421 0.16214 0.0
H195 H 0.11079 0.9616 0.1432 0.0
H196 H 0.20604 0.04939 0.21302 0.0
H197 H 0.21093 0.00255 0.17213 0.0
H198 H 0.12006 0.962 0.21022 0.0
H199 H 0.11493 0.00901 0.25041 0.0
C200 C 0.19115 0.91798 0.11562 0.0
C201 C 0.16059 0.91382 0.09427 0.0
C202 C 0.19294 0.9385 0.14663 0.0
C203 C 0.16406 0.95458 0.15707 0.0
C204 C 0.13342 0.94925 0.13637 0.0
C205 C 0.13173 0.92924 0.10541 0.0
C206 C 0.18768 0.02998 0.21334 0.0
C207 C 0.1598 0.03301 0.23435 0.0
C208 C 0.19051 0.00313 0.19001 0.0
C209 C 0.16555 0.97887 0.18748 0.0
C210 C 0.1393 0.98064 0.21098 0.0
C211 C 0.13637 0.00749 0.23402 0.0
H212 H 0.56912 0.63651 0.60344 0.0
H213 H 0.53944 0.71586 0.53007 0.0
H214 H 0.52026 0.64666 0.63813 0.0
H215 H 0.4906 0.72575 0.5647 0.0
H216 H 0.43939 0.68572 0.70661 0.0
H217 H 0.49272 0.68967 0.67778 0.0
H218 H 0.43872 0.69 0.57026 0.0
H219 H 0.38568 0.68569 0.5991 0.0
C220 C 0.55242 0.65632 0.59497 0.0
C221 C 0.55797 0.67512 0.56376 0.0
C222 C 0.52462 0.6623 0.61501 0.0
C223 C 0.50167 0.68695 0.60399 0.0
C224 C 0.50785 0.70651 0.57364 0.0
C225 C 0.53585 0.70082 0.55389 0.0
C226 C 0.43903 0.68762 0.67689 0.0
C227 C 0.40863 0.68547 0.65495 0.0
C228 C 0.46944 0.68958 0.66043 0.0
C229 C 0.46978 0.68996 0.62184 0.0
C230 C 0.43917 0.69001 0.60007 0.0
C231 C 0.40887 0.68752 0.61649 0.0
H232 H 0.88013 0.06651 0.13768 0.0
H233 H 0.78538 0.05596 0.07295 0.0
H234 H 0.87136 0.01388 0.16649 0.0
H235 H 0.77677 0.00332 0.10183 0.0
H236 H 0.81462 0.8939 0.11285 0.0
H237 H 0.80858 0.95084 0.09429 0.0
H238 H 0.83425 0.98097 0.20674 0.0
H239 H 0.84001 0.92366 0.22528 0.0
C240 C 0.85719 0.05323 0.13003 0.0
C241 C 0.83369 0.06524 0.10264 0.0
C242 C 0.85205 0.02321 0.14677 0.0
C243 C 0.82345 0.00445 0.13624 0.0
C244 C 0.79914 0.01719 0.11025 0.0
C245 C 0.80409 0.04737 0.0938 0.0
C246 C 0.81796 0.91273 0.13371 0.0
C247 C 0.82771 0.9046 0.17042 0.0
C248 C 0.81444 0.94528 0.12316 0.0
C249 C 0.82113 0.97032 0.14906 0.0
C250 C 0.82913 0.96211 0.18622 0.0
C251 C 0.83214 0.92944 0.19688 0.0
H252 H 0.43868 0.4042 0.62507 0.0
H253 H 0.43613 0.3022 0.6534 0.0
H254 H 0.48257 0.41353 0.67343 0.0
H255 H 0.48051 0.31167 0.70304 0.0
H256 H 0.59492 0.34083 0.73514 0.0
H257 H 0.54089 0.32494 0.70427 0.0
H258 H 0.49784 0.41548 0.73833 0.0
H259 H 0.55216 0.43165 0.76809 0.0
C260 C 0.44723 0.38379 0.64215 0.0
C261 C 0.4343 0.35239 0.63516 0.0
C262 C 0.47221 0.38921 0.67026 0.0
C263 C 0.48512 0.36337 0.69226 0.0
C264 C 0.4712 0.33206 0.68641 0.0
C265 C 0.44573 0.32665 0.65821 0.0
C266 C 0.57362 0.35686 0.73687 0.0
C267 C 0.57775 0.38767 0.75345 0.0
C268 C 0.54261 0.34773 0.7193 0.0
C269 C 0.51518 0.3692 0.71824 0.0
C270 C 0.51868 0.39871 0.73789 0.0
C271 C 0.5497 0.40796 0.75503 0.0
H272 H 0.63154 0.56204 0.40982 0.0
H273 H 0.72164 0.55078 0.48227 0.0
H274 H 0.64131 0.50908 0.38237 0.0
H275 H 0.73129 0.49757 0.45477 0.0
H276 H 0.67256 0.41822 0.32745 0.0
H277 H 0.68043 0.47532 0.34592 0.0
H278 H 0.69742 0.44556 0.45964 0.0
H279 H 0.68941 0.38873 0.44114 0.0
C280 C 0.65376 0.5485 0.41942 0.0
C281 C 0.67563 0.56043 0.44845 0.0
C282 C 0.6595 0.51828 0.40348 0.0
C283 C 0.68703 0.49918 0.41651 0.0
C284 C 0.70981 0.51177 0.44432 0.0
C285 C 0.70433 0.54225 0.45994 0.0
C286 C 0.67908 0.42392 0.3562 0.0
C287 C 0.68028 0.39925 0.38295 0.0
C288 C 0.68332 0.45653 0.36679 0.0
C289 C 0.68929 0.46486 0.40422 0.0
C290 C 0.69312 0.43988 0.43057 0.0
C291 C 0.68842 0.4074 0.42005 0.0
H292 H 0.96476 0.22307 0.01858 0.0
H293 H 0.93224 0.14598 0.94305 0.0
H294 H 0.01344 0.2329 0.98331 0.0
H295 H 0.98069 0.15604 0.90779 0.0
H296 H 0.06229 0.19192 0.83984 0.0
H297 H 0.00947 0.19889 0.8691 0.0
H298 H 0.06383 0.19514 0.97633 0.0
H299 H 0.1163 0.18782 0.94706 0.0
C300 C 0.96765 0.20867 0.99408 0.0
C301 C 0.94492 0.18351 0.98377 0.0
C302 C 0.99551 0.21428 0.97398 0.0
C303 C 0.00076 0.19524 0.94288 0.0
C304 C 0.97704 0.17131 0.93143 0.0
C305 C 0.94949 0.16536 0.9518 0.0
C306 C 0.06289 0.19359 0.8696 0.0
C307 C 0.0931 0.18933 0.89135 0.0
C308 C 0.03278 0.19735 0.8863 0.0
C309 C 0.03264 0.1974 0.92492 0.0
C310 C 0.06326 0.19549 0.94651 0.0
C311 C 0.09321 0.19121 0.92985 0.0
H312 H 0.27653 0.40891 0.43957 0.0
H313 H 0.38443 0.41609 0.44282 0.0
H314 H 0.27185 0.44496 0.38536 0.0
H315 H 0.38 0.45171 0.38975 0.0
H316 H 0.37158 0.50558 0.28776 0.0
H317 H 0.36431 0.45695 0.32481 0.0
H318 H 0.28352 0.50396 0.37657 0.0
H319 H 0.29024 0.55227 0.33843 0.0
C320 C 0.29915 0.41758 0.42819 0.0
C321 C 0.33082 0.41001 0.44545 0.0
C322 C 0.29651 0.43833 0.39742 0.0
C323 C 0.32554 0.45123 0.38319 0.0
C324 C 0.3571 0.44194 0.39946 0.0
C325 C 0.35968 0.42171 0.43018 0.0
C326 C 0.35171 0.50511 0.30639 0.0
C327 C 0.33178 0.53272 0.31071 0.0
C328 C 0.34758 0.47735 0.32767 0.0
C329 C 0.32379 0.47682 0.3542 0.0
C330 C 0.30196 0.50349 0.35629 0.0
C331 C 0.30587 0.5312 0.33459 0.0
H332 H 0.09091 0.84705 0.86673 0.0
H333 H 0.02029 0.82823 0.94792 0.0
H334 H 0.04407 0.85373 0.81926 0.0
H335 H 0.9738 0.83427 0.90096 0.0
H336 H 0.89445 0.83478 0.80957 0.0
H337 H 0.94562 0.81249 0.84118 0.0
H338 H 0.99991 0.89906 0.81399 0.0
H339 H 0.94882 0.92124 0.78236 0.0
C340 C 0.06543 0.84333 0.87403 0.0
C341 C 0.05896 0.83708 0.9107 0.0
C342 C 0.0387 0.8473 0.84706 0.0
C343 C 0.00529 0.84445 0.85641 0.0
C344 C 0.99921 0.83615 0.89275 0.0
C345 C 0.02576 0.83283 0.91967 0.0
C346 C 0.91758 0.84855 0.80935 0.0
C347 C 0.91765 0.87986 0.79385 0.0
C348 C 0.94679 0.83588 0.82759 0.0
C349 C 0.97668 0.85415 0.83028 0.0
C350 C 0.97735 0.88431 0.81215 0.0
C351 C 0.94807 0.89712 0.79429 0.0
H352 H 0.89183 0.07638 0.956 0.0
H353 H 0.78634 0.09838 0.93652 0.0
H354 H 0.8888 0.04152 0.90213 0.0
H355 H 0.78328 0.06304 0.88168 0.0
H356 H 0.79347 0.95615 0.82887 0.0
H357 H 0.78863 0.00229 0.87077 0.0
H358 H 0.88025 0.04288 0.83466 0.0
H359 H 0.88525 0.99666 0.79331 0.0
C360 C 0.86796 0.07394 0.93997 0.0
C361 C 0.83924 0.08989 0.95072 0.0
C362 C 0.86631 0.05419 0.90878 0.0
C363 C 0.83584 0.04963 0.88746 0.0
C364 C 0.80709 0.06607 0.89765 0.0
C365 C 0.80886 0.08635 0.92887 0.0
C366 C 0.81199 0.97545 0.82915 0.0
C367 C 0.84003 0.97262 0.80833 0.0
C368 C 0.8092 0.00189 0.8531 0.0
C369 C 0.83439 0.02591 0.85649 0.0
C370 C 0.86081 0.02441 0.83321 0.0
C371 C 0.86366 0.998 0.8095 0.0
H372 H 0.4312 0.35982 0.44208 0.0
H373 H 0.46199 0.28396 0.51969 0.0
H374 H 0.48074 0.34953 0.40868 0.0
H375 H 0.51164 0.27389 0.48627 0.0
H376 H 0.61596 0.31622 0.45221 0.0
H377 H 0.56256 0.31071 0.48005 0.0
H378 H 0.51042 0.30653 0.37164 0.0
H379 H 0.5641 0.3118 0.3438 0.0
C380 C 0.44829 0.34067 0.45171 0.0
C381 C 0.44287 0.32296 0.48376 0.0
C382 C 0.47649 0.3346 0.4324 0.0
C383 C 0.50003 0.31096 0.44498 0.0
C384 C 0.49394 0.29234 0.47612 0.0
C385 C 0.46548 0.29809 0.49516 0.0
C386 C 0.59314 0.31323 0.43443 0.0
C387 C 0.59399 0.31445 0.39597 0.0
C388 C 0.56263 0.30997 0.45029 0.0
C389 C 0.53238 0.30839 0.42795 0.0
C390 C 0.5334 0.30788 0.38943 0.0
C391 C 0.56404 0.31063 0.37354 0.0
H392 H 0.12047 0.93961 0.90766 0.0
H393 H 0.21501 0.94892 0.97307 0.0
H394 H 0.12992 0.99236 0.8794 0.0
H395 H 0.22429 0.00169 0.94476 0.0
H396 H 0.18751 0.11161 0.93392 0.0
H397 H 0.19301 0.05456 0.95229 0.0
H398 H 0.16776 0.02494 0.83958 0.0
H399 H 0.16259 0.08234 0.82125 0.0
C400 C 0.14349 0.95265 0.91559 0.0
C401 C 0.16675 0.94023 0.94298 0.0
C402 C 0.14903 0.98274 0.89917 0.0
C403 C 0.17779 0.00117 0.91002 0.0
C404 C 0.20181 0.98807 0.93608 0.0
C405 C 0.19647 0.95782 0.9522 0.0
C406 C 0.18424 0.09286 0.91297 0.0
C407 C 0.17478 0.10116 0.87624 0.0
C408 C 0.1874 0.06025 0.9234 0.0
C409 C 0.18061 0.03532 0.89737 0.0
C410 C 0.17295 0.0437 0.8602 0.0
C411 C 0.1703 0.07643 0.84966 0.0
H412 H 0.56041 0.59793 0.42004 0.0
H413 H 0.56201 0.70097 0.39679 0.0
H414 H 0.51466 0.59046 0.37324 0.0
H415 H 0.51572 0.69342 0.34888 0.0
H416 H 0.40041 0.66465 0.31975 0.0
H417 H 0.45519 0.67963 0.34977 0.0
H418 H 0.49762 0.59147 0.30836 0.0
H419 H 0.44272 0.57623 0.27943 0.0
C420 C 0.55125 0.61898 0.4044 0.0
C421 C 0.56456 0.65008 0.41233 0.0
C422 C 0.52517 0.61465 0.37722 0.0
C423 C 0.51148 0.64132 0.35717 0.0
C424 C 0.52564 0.6724 0.364 0.0
C425 C 0.55222 0.67671 0.39119 0.0
C426 C 0.42172 0.64902 0.31626 0.0
C427 C 0.41733 0.61907 0.29782 0.0
C428 C 0.45313 0.65761 0.33335 0.0
C429 C 0.48066 0.63644 0.33205 0.0
C430 C 0.47676 0.60796 0.31061 0.0
C431 C 0.4454 0.59925 0.29392 0.0
H432 H 0.37368 0.44109 0.63352 0.0
H433 H 0.28034 0.45153 0.5663 0.0
H434 H 0.36386 0.49306 0.66315 0.0
H435 H 0.27063 0.50374 0.59603 0.0
H436 H 0.30992 0.61337 0.61135 0.0
H437 H 0.30234 0.55692 0.59124 0.0
H438 H 0.32573 0.52439 0.70312 0.0
H439 H 0.33313 0.58115 0.7232 0.0
C440 C 0.35082 0.45426 0.62545 0.0
C441 C 0.328 0.4424 0.59724 0.0
C442 C 0.34504 0.48388 0.64269 0.0
C443 C 0.31649 0.50245 0.63185 0.0
C444 C 0.2929 0.48995 0.6048 0.0
C445 C 0.29847 0.46006 0.58785 0.0
C446 C 0.31229 0.59414 0.63176 0.0
C447 C 0.32212 0.60142 0.66873 0.0
C448 C 0.3079 0.56187 0.62032 0.0
C449 C 0.31374 0.53627 0.64559 0.0
C450 C 0.3213 0.54368 0.68307 0.0
C451 C 0.32524 0.57607 0.6946 0.0
H452 H 0.03435 0.7821 0.02437 0.0
H453 H 0.06804 0.85766 0.10138 0.0
H454 H 0.98581 0.77203 0.05984 0.0
H455 H 0.01977 0.84737 0.13682 0.0
H456 H 0.93866 0.81139 0.2049 0.0
H457 H 0.99102 0.80421 0.17488 0.0
H458 H 0.93572 0.80975 0.06829 0.0
H459 H 0.88368 0.81726 0.09833 0.0
C460 C 0.03175 0.7961 0.04923 0.0
C461 C 0.05478 0.8209 0.05993 0.0
C462 C 0.00397 0.79036 0.06943 0.0
C463 C 0.9991 0.8089 0.10103 0.0
C464 C 0.02311 0.83246 0.1128 0.0
C465 C 0.05056 0.83856 0.09233 0.0
C466 C 0.93772 0.81001 0.1751 0.0
C467 C 0.90737 0.81489 0.15379 0.0
C468 C 0.96759 0.80615 0.15797 0.0
C469 C 0.96737 0.80661 0.11931 0.0
C470 C 0.93658 0.80902 0.09812 0.0
C471 C 0.90686 0.8134 0.11522 0.0
H472 H 0.67888 0.54244 0.56308 0.0
H473 H 0.67602 0.62514 0.63591 0.0
H474 H 0.68415 0.5059 0.61595 0.0
H475 H 0.68057 0.58824 0.68944 0.0
H476 H 0.62523 0.5007 0.75083 0.0
H477 H 0.63723 0.54483 0.70865 0.0
H478 H 0.72178 0.49093 0.67376 0.0
H479 H 0.7098 0.44681 0.71591 0.0
C480 C 0.68009 0.55276 0.59059 0.0
C481 C 0.6771 0.58646 0.59563 0.0
C482 C 0.68327 0.5319 0.62084 0.0
C483 C 0.68282 0.54424 0.6568 0.0
C484 C 0.68104 0.57815 0.66197 0.0
C485 C 0.67861 0.5992 0.63152 0.0
C486 C 0.64684 0.49868 0.73476 0.0
C487 C 0.66641 0.47024 0.73638 0.0
C488 C 0.65387 0.52402 0.71087 0.0
C489 C 0.68032 0.52119 0.68783 0.0
C490 C 0.70117 0.49366 0.69117 0.0
C491 C 0.6944 0.4685 0.71539 0.0
H492 H 0.90856 0.15716 0.17687 0.0
H493 H 0.97877 0.18 0.09648 0.0
H494 H 0.95548 0.15042 0.22418 0.0
H495 H 0.02536 0.17378 0.14327 0.0
H496 H 0.10503 0.17126 0.23426 0.0
H497 H 0.05368 0.1937 0.2032 0.0
H498 H 1.0 0.10628 0.22869 0.0
H499 H 0.0512 0.08402 0.25988 0.0
C500 C 0.93395 0.16179 0.16976 0.0
C501 C 0.94029 0.16922 0.13333 0.0
C502 C 0.96074 0.15775 0.19663 0.0
C503 C 0.9941 0.1616 0.18744 0.0
C504 C 1.00001 0.17111 0.15141 0.0
C505 C 0.97339 0.17457 0.12458 0.0
C506 C 0.08199 0.15732 0.23423 0.0
C507 C 0.08213 0.12578 0.24912 0.0
C508 C 0.05268 0.17007 0.21627 0.0
C509 C 0.02289 0.15164 0.21324 0.0
C510 C 0.02245 0.12118 0.23078 0.0
C511 C 0.05182 0.10832 0.24837 0.0
H512 H 0.1537 0.74019 0.06949 0.0
H513 H 0.2426 0.80063 0.07746 0.0
H514 H 0.18258 0.70005 0.10961 0.0
H515 H 0.27111 0.76094 0.11838 0.0
H516 H 0.32393 0.6643 0.14838 0.0
H517 H 0.29436 0.70759 0.11354 0.0
H518 H 0.20583 0.6887 0.1713 0.0
H519 H 0.23544 0.64459 0.20533 0.0
C520 C 0.17925 0.74513 0.08016 0.0
C521 C 0.19593 0.7735 0.06992 0.0
C522 C 0.19577 0.72217 0.10337 0.0
C523 C 0.22928 0.72713 0.11706 0.0
C524 C 0.24554 0.75603 0.10778 0.0
C525 C 0.2291 0.77888 0.08444 0.0
C526 C 0.2982 0.66955 0.15366 0.0
C527 C 0.28179 0.65106 0.17926 0.0
C528 C 0.28129 0.6945 0.13393 0.0
C529 C 0.24765 0.70165 0.13955 0.0
C530 C 0.23154 0.68354 0.16588 0.0
C531 C 0.24847 0.65848 0.18552 0.0
H532 H 0.74291 0.70441 0.57999 0.0
H533 H 0.6515 0.7608 0.57202 0.0
H534 H 0.76709 0.74124 0.6272 0.0
H535 H 0.67616 0.7984 0.61849 0.0
H536 H 0.71771 0.83821 0.73086 0.0
H537 H 0.69276 0.80211 0.68285 0.0
H538 H 0.78879 0.79461 0.63646 0.0
H539 H 0.81379 0.82964 0.68542 0.0
C540 C 0.72806 0.72488 0.58804 0.0
C541 C 0.69527 0.72966 0.57211 0.0
C542 C 0.74204 0.74616 0.61502 0.0
C543 C 0.72369 0.77296 0.62664 0.0
C544 C 0.69089 0.7778 0.61061 0.0
C545 C 0.6768 0.75634 0.58378 0.0
C546 C 0.73332 0.82902 0.71014 0.0
C547 C 0.76748 0.83726 0.71134 0.0
C548 C 0.71904 0.80845 0.68253 0.0
C549 C 0.73867 0.79552 0.65556 0.0
C550 C 0.77294 0.80379 0.65693 0.0
C551 C 0.78723 0.82416 0.6847 0.0
H552 H 0.76205 0.16244 0.13083 0.0
H553 H 0.81583 0.25296 0.12026 0.0
H554 H 0.72823 0.18788 0.17598 0.0
H555 H 0.78163 0.27842 0.16437 0.0
H556 H 0.73505 0.30872 0.26802 0.0
H557 H 0.77111 0.2792 0.22822 0.0
H558 H 0.68438 0.22833 0.17814 0.0
H559 H 0.64868 0.25721 0.21886 0.0
C560 C 0.76669 0.18771 0.13811 0.0
C561 C 0.7916 0.20565 0.12179 0.0
C562 C 0.74718 0.20235 0.16384 0.0
C563 C 0.75217 0.23522 0.17379 0.0
C564 C 0.77741 0.25294 0.15782 0.0
C565 C 0.79691 0.23834 0.13225 0.0
C566 C 0.7239 0.29096 0.2487 0.0
C567 C 0.68923 0.28506 0.24657 0.0
C568 C 0.74443 0.27421 0.22575 0.0
C569 C 0.73064 0.25144 0.19987 0.0
C570 C 0.69591 0.24533 0.19809 0.0
C571 C 0.67541 0.262 0.22119 0.0
H572 H 0.26851 0.34858 0.63981 0.0
H573 H 0.31758 0.25606 0.62656 0.0
H574 H 0.24261 0.32717 0.69347 0.0
H575 H 0.29117 0.23459 0.67927 0.0
H576 H 0.26908 0.21729 0.79809 0.0
H577 H 0.29442 0.24023 0.74497 0.0
H578 H 0.20092 0.28821 0.71111 0.0
H579 H 0.17602 0.26583 0.76512 0.0
C580 C 0.27358 0.32365 0.64814 0.0
C581 C 0.2952 0.30409 0.62892 0.0
C582 C 0.25863 0.31133 0.67879 0.0
C583 C 0.26494 0.2792 0.6908 0.0
C584 C 0.28624 0.25962 0.67125 0.0
C585 C 0.30124 0.27192 0.64081 0.0
C586 C 0.25408 0.23284 0.77931 0.0
C587 C 0.22073 0.24003 0.78565 0.0
C588 C 0.26846 0.24582 0.74876 0.0
C589 C 0.24968 0.26603 0.7237 0.0
C590 C 0.21622 0.27312 0.73011 0.0
C591 C 0.20188 0.26019 0.7608 0.0
H592 H 0.67139 0.7425 0.41148 0.0
H593 H 0.74211 0.66284 0.41703 0.0
H594 H 0.69808 0.76514 0.35943 0.0
H595 H 0.76944 0.68607 0.3654 0.0
H596 H 0.78513 0.7185 0.24681 0.0
H597 H 0.75999 0.69517 0.29993 0.0
H598 H 0.74862 0.79183 0.34441 0.0
H599 H 0.77284 0.81501 0.29057 0.0
C600 C 0.69281 0.72992 0.40179 0.0
C601 C 0.70464 0.70087 0.41853 0.0
C602 C 0.70826 0.74304 0.37203 0.0
C603 C 0.73604 0.72755 0.35832 0.0
C604 C 0.74788 0.69845 0.37501 0.0
C605 C 0.73231 0.68522 0.40474 0.0
C606 C 0.77742 0.73465 0.26812 0.0
C607 C 0.78112 0.76851 0.26488 0.0
C608 C 0.76318 0.72132 0.29863 0.0
C609 C 0.75228 0.7416 0.32648 0.0
C610 C 0.75632 0.77551 0.32326 0.0
C611 C 0.77043 0.78881 0.29267 0.0
H612 H 0.75796 0.20044 0.96346 0.0
H613 H 0.84645 0.26142 0.96902 0.0
H614 H 0.73173 0.23508 0.91531 0.0
H615 H 0.81978 0.29667 0.92161 0.0
H616 H 0.77553 0.33288 0.8092 0.0
H617 H 0.80241 0.29797 0.85708 0.0
H618 H 0.70771 0.28785 0.90586 0.0
H619 H 0.68081 0.32184 0.8571 0.0
C620 C 0.77174 0.22138 0.95461 0.0
C621 C 0.80429 0.22817 0.9702 0.0
C622 C 0.75661 0.24138 0.92711 0.0
C623 C 0.77355 0.26879 0.91463 0.0
C624 C 0.80614 0.27554 0.93019 0.0
C625 C 0.82138 0.25541 0.95756 0.0
C626 C 0.7606 0.32327 0.83032 0.0
C627 C 0.72625 0.33039 0.82988 0.0
C628 C 0.77598 0.30341 0.85785 0.0
C629 C 0.75728 0.29017 0.88548 0.0
C630 C 0.72282 0.29729 0.88483 0.0
C631 C 0.70744 0.31699 0.85717 0.0
H632 H 0.25487 0.297 0.47048 0.0
H633 H 0.34468 0.23823 0.47979 0.0
H634 H 0.22669 0.25579 0.43122 0.0
H635 H 0.3161 0.19649 0.44129 0.0
H636 H 0.26326 0.13917 0.34589 0.0
H637 H 0.29285 0.1834 0.38002 0.0
H638 H 0.20401 0.20244 0.43711 0.0
H639 H 0.17446 0.15903 0.40214 0.0
C640 C 0.26862 0.27524 0.46422 0.0
C641 C 0.30198 0.27084 0.47855 0.0
C642 C 0.25237 0.2515 0.44182 0.0
C643 C 0.26897 0.22263 0.43333 0.0
C644 C 0.30262 0.21855 0.44694 0.0
C645 C 0.31898 0.24243 0.4692 0.0
C646 C 0.25019 0.15305 0.36565 0.0
C647 C 0.21673 0.14571 0.37157 0.0
C648 C 0.26711 0.17819 0.38535 0.0
C649 C 0.25086 0.19649 0.41141 0.0
C650 C 0.21719 0.18923 0.41691 0.0
C651 C 0.20029 0.16421 0.39711 0.0
H652 H 0.24752 0.83683 0.92608 0.0
H653 H 0.17484 0.75904 0.91049 0.0
H654 H 0.28317 0.80956 0.88415 0.0
H655 H 0.20989 0.73236 0.8679 0.0
H656 H 0.2982 0.67354 0.83226 0.0
H657 H 0.26152 0.70299 0.8712 0.0
H658 H 0.28887 0.79367 0.82109 0.0
H659 H 0.32646 0.76396 0.78296 0.0
C660 C 0.23892 0.81417 0.91332 0.0
C661 C 0.20851 0.79994 0.92196 0.0
C662 C 0.25931 0.79858 0.88916 0.0
C663 C 0.2496 0.76855 0.87296 0.0
C664 C 0.21855 0.75505 0.88055 0.0
C665 C 0.19833 0.77048 0.90482 0.0
C666 C 0.2964 0.69977 0.82975 0.0
C667 C 0.31527 0.7166 0.80494 0.0
C668 C 0.27519 0.71666 0.85178 0.0
C669 C 0.27213 0.75074 0.84922 0.0
C670 C 0.29094 0.76751 0.82413 0.0
C671 C 0.3123 0.75058 0.8022 0.0
loop_
_geom_bond_atom_site_label_1
_geom_bond_atom_site_label_2
_geom_bond_distance
_geom_bond_site_symmetry_2
_ccdc_geom_bond_type
Fe0 O2 1.918 1_554 S
Fe0 O5 1.997 . S
Fe0 O6 2.002 . S
Fe0 O11 1.976 1_554 S
Fe0 O14 1.996 1_554 S
Fe1 O2 1.918 1_554 S
Fe1 O9 1.997 . S
Fe1 O12 1.996 1_554 S
Fe1 O16 1.976 1_554 S
Fe1 O19 2.002 . S
O2 Fe0 1.918 1_556 S
O2 Fe1 1.918 1_556 S
O2 Fe3 1.918 . S
Fe3 O2 1.918 . S
Fe3 O4 2.002 1_556 S
Fe3 O13 1.976 . S
Fe3 O17 1.996 . S
Fe3 O20 1.997 1_556 S
O4 Fe3 2.002 1_554 S
O4 C21 1.295 . S
O5 Fe0 1.997 . S
O5 C21 1.235 . S
O6 Fe0 2.002 . S
O6 C7 1.295 . S
C7 O6 1.295 . S
C7 O9 1.235 . S
C8 O13 1.287 . S
C8 O14 1.255 . S
O9 Fe1 1.997 . S
O9 C7 1.235 . S
C10 O16 1.287 . S
C10 O17 1.255 . S
O11 Fe0 1.976 1_556 S
O11 C18 1.287 . S
O12 Fe1 1.996 1_556 S
O12 C18 1.255 . S
O13 Fe3 1.976 . S
O13 C8 1.287 . S
O14 Fe0 1.996 1_556 S
O14 C8 1.255 . S
C15 O19 1.295 . S
C15 O20 1.235 . S
O16 Fe1 1.976 1_556 S
O16 C10 1.287 . S
O17 Fe3 1.996 . S
O17 C10 1.255 . S
C18 O11 1.287 . S
C18 O12 1.255 . S
O19 Fe1 2.002 . S
O19 C15 1.295 . S
O20 Fe3 1.997 1_554 S
O20 C15 1.235 . S
C21 O4 1.295 . S
C21 O5 1.235 . S
Fe22 O24 1.918 . S
Fe22 O27 1.997 . S
Fe22 O28 2.002 . S
Fe22 O33 1.976 . S
Fe22 O36 1.996 . S
Fe23 O24 1.918 . S
Fe23 O31 1.997 . S
Fe23 O34 1.996 . S
Fe23 O38 1.976 . S
Fe23 O41 2.002 . S
O24 Fe22 1.918 . S
O24 Fe23 1.918 . S
O24 Fe25 1.918 . S
Fe25 O24 1.918 . S
Fe25 O26 2.002 . S
Fe25 O35 1.976 . S
Fe25 O39 1.996 . S
Fe25 O42 1.997 . S
O26 Fe25 2.002 . S
O26 C43 1.295 . S
O27 Fe22 1.997 . S
O27 C43 1.235 . S
O28 Fe22 2.002 . S
O28 C29 1.295 . S
C29 O28 1.295 . S
C29 O31 1.235 . S
C30 O35 1.287 . S
C30 O36 1.255 . S
O31 Fe23 1.997 . S
O31 C29 1.235 . S
C32 O38 1.287 . S
C32 O39 1.255 . S
O33 Fe22 1.976 . S
O33 C40 1.287 . S
O34 Fe23 1.996 . S
O34 C40 1.255 . S
O35 Fe25 1.976 . S
O35 C30 1.287 . S
O36 Fe22 1.996 . S
O36 C30 1.255 . S
C37 O41 1.295 . S
C37 O42 1.235 . S
O38 Fe23 1.976 . S
O38 C32 1.287 . S
O39 Fe25 1.996 . S
O39 C32 1.255 . S
C40 O33 1.287 . S
C40 O34 1.255 . S
O41 Fe23 2.002 . S
O41 C37 1.295 . S
O42 Fe25 1.997 . S
O42 C37 1.235 . S
C43 O26 1.295 . S
C43 O27 1.235 . S
Fe44 O46 1.918 . S
Fe44 O49 1.997 . S
Fe44 O50 2.002 . S
Fe44 O55 1.976 . S
Fe44 O58 1.996 . S
Fe45 O46 1.918 . S
Fe45 O53 1.997 . S
Fe45 O56 1.996 . S
Fe45 O60 1.976 . S
Fe45 O63 2.002 1_554 S
O46 Fe44 1.918 . S
O46 Fe45 1.918 . S
O46 Fe47 1.918 . S
Fe47 O46 1.918 . S
Fe47 O48 2.002 . S
Fe47 O57 1.976 . S
Fe47 O61 1.996 . S
Fe47 O64 1.997 1_554 S
O48 Fe47 2.002 . S
O48 C65 1.295 . S
O49 Fe44 1.997 . S
O49 C65 1.235 . S
O50 Fe44 2.002 . S
O50 C51 1.295 . S
C51 O50 1.295 . S
C51 O53 1.235 . S
C52 O57 1.287 . S
C52 O58 1.255 . S
O53 Fe45 1.997 . S
O53 C51 1.235 . S
C54 O60 1.287 . S
C54 O61 1.255 . S
O55 Fe44 1.976 . S
O55 C62 1.287 . S
O56 Fe45 1.996 . S
O56 C62 1.255 . S
O57 Fe47 1.976 . S
O57 C52 1.287 . S
O58 Fe44 1.996 . S
O58 C52 1.255 . S
C59 O63 1.295 . S
C59 O64 1.235 . S
O60 Fe45 1.976 . S
O60 C54 1.287 . S
O61 Fe47 1.996 . S
O61 C54 1.255 . S
C62 O55 1.287 . S
C62 O56 1.255 . S
O63 Fe45 2.002 1_556 S
O63 C59 1.295 . S
O64 Fe47 1.997 1_556 S
O64 C59 1.235 . S
C65 O48 1.295 . S
C65 O49 1.235 . S
Fe66 O68 1.918 . S
Fe66 O71 1.997 . S
Fe66 O72 2.002 . S
Fe66 O77 1.976 . S
Fe66 O80 1.996 . S
Fe67 O68 1.918 . S
Fe67 O75 1.997 . S
Fe67 O78 1.996 . S
Fe67 O82 1.976 . S
Fe67 O85 2.002 . S
O68 Fe66 1.918 . S
O68 Fe67 1.918 . S
O68 Fe69 1.918 . S
Fe69 O68 1.918 . S
Fe69 O70 2.002 . S
Fe69 O79 1.976 . S
Fe69 O83 1.996 . S
Fe69 O86 1.997 . S
O70 Fe69 2.002 . S
O70 C87 1.295 . S
O71 Fe66 1.997 . S
O71 C87 1.235 . S
O72 Fe66 2.002 . S
O72 C73 1.295 . S
C73 O72 1.295 . S
C73 O75 1.235 . S
C74 O79 1.287 . S
C74 O80 1.255 . S
O75 Fe67 1.997 . S
O75 C73 1.235 . S
C76 O82 1.287 . S
C76 O83 1.255 . S
O77 Fe66 1.976 . S
O77 C84 1.287 . S
O78 Fe67 1.996 . S
O78 C84 1.255 . S
O79 Fe69 1.976 . S
O79 C74 1.287 . S
O80 Fe66 1.996 . S
O80 C74 1.255 . S
C81 O85 1.295 . S
C81 O86 1.235 . S
O82 Fe67 1.976 . S
O82 C76 1.287 . S
O83 Fe69 1.996 . S
O83 C76 1.255 . S
C84 O77 1.287 . S
C84 O78 1.255 . S
O85 Fe67 2.002 . S
O85 C81 1.295 . S
O86 Fe69 1.997 . S
O86 C81 1.235 . S
C87 O70 1.295 . S
C87 O71 1.235 . S
H88 C95 0.929 . S
H89 C98 0.930 . S
H90 C100 0.929 . S
H91 C92 0.969 . S
C92 H91 0.969 . S
C92 O93 1.550 . S
C92 H94 0.973 . S
O93 C92 1.550 . S
O93 C99 1.412 . S
H94 C92 0.973 . S
C95 H88 0.929 . S
C95 C96 1.400 . S
C95 C97 1.364 . S
C96 C95 1.400 . S
C96 C100 1.377 . S
C97 C95 1.364 . S
C97 C98 1.374 . S
C98 H89 0.930 . S
C98 C97 1.374 . S
C98 C99 1.383 . S
C99 O93 1.412 . S
C99 C98 1.383 . S
C99 C100 1.394 . S
C100 H90 0.929 . S
C100 C96 1.377 . S
C100 C99 1.394 . S
H101 C108 0.929 . S
H102 C111 0.930 . S
H103 C113 0.929 . S
H104 C105 0.969 . S
C105 H104 0.969 . S
C105 O106 1.550 . S
C105 H107 0.973 . S
O106 C105 1.550 . S
O106 C112 1.412 . S
H107 C105 0.973 . S
C108 H101 0.929 . S
C108 C109 1.400 . S
C108 C110 1.364 . S
C109 C108 1.400 . S
C109 C113 1.377 . S
C110 C108 1.364 . S
C110 C111 1.374 . S
C111 H102 0.930 . S
C111 C110 1.374 . S
C111 C112 1.383 . S
C112 O106 1.412 . S
C112 C111 1.383 . S
C112 C113 1.394 . S
C113 H103 0.929 . S
C113 C109 1.377 . S
C113 C112 1.394 . S
H114 C121 0.929 . S
H115 C124 0.930 . S
H116 C126 0.929 . S
H117 C118 0.969 . S
C118 H117 0.969 . S
C118 O119 1.550 . S
C118 H120 0.973 . S
O119 C118 1.550 . S
O119 C125 1.412 . S
H120 C118 0.973 . S
C121 H114 0.929 . S
C121 C122 1.400 . S
C121 C123 1.364 . S
C122 C121 1.400 . S
C122 C126 1.377 . S
C123 C121 1.364 . S
C123 C124 1.374 . S
C124 H115 0.930 . S
C124 C123 1.374 . S
C124 C125 1.383 . S
C125 O119 1.412 . S
C125 C124 1.383 . S
C125 C126 1.394 . S
C126 H116 0.929 . S
C126 C122 1.377 . S
C126 C125 1.394 . S
H127 C134 0.929 . S
H128 C137 0.930 . S
H129 C139 0.929 . S
H130 C131 0.969 . S
C131 H130 0.969 . S
C131 O132 1.550 . S
C131 H133 0.973 . S
O132 C131 1.550 . S
O132 C138 1.412 . S
H133 C131 0.973 . S
C134 H127 0.929 . S
C134 C135 1.400 . S
C134 C136 1.364 . S
C135 C134 1.400 . S
C135 C139 1.377 . S
C136 C134 1.364 . S
C136 C137 1.374 . S
C137 H128 0.930 . S
C137 C136 1.374 . S
C137 C138 1.383 . S
C138 O132 1.412 . S
C138 C137 1.383 . S
C138 C139 1.394 . S
C139 H129 0.929 . S
C139 C135 1.377 . S
C139 C138 1.394 . S
H140 C147 0.929 . S
H141 C150 0.930 . S
H142 C152 0.929 . S
H143 C144 0.969 . S
C144 H143 0.969 . S
C144 O145 1.550 . S
C144 H146 0.973 . S
O145 C144 1.550 . S
O145 C151 1.412 . S
H146 C144 0.973 . S
C147 H140 0.929 . S
C147 C148 1.400 . S
C147 C149 1.364 . S
C148 C147 1.400 . S
C148 C152 1.377 . S
C149 C147 1.364 . S
C149 C150 1.374 . S
C150 H141 0.930 . S
C150 C149 1.374 . S
C150 C151 1.383 . S
C151 O145 1.412 . S
C151 C150 1.383 . S
C151 C152 1.394 . S
C152 H142 0.929 . S
C152 C148 1.377 . S
C152 C151 1.394 . S
H153 C160 0.929 . S
H154 C163 0.930 . S
H155 C165 0.929 . S
H156 C157 0.969 . S
C157 H156 0.969 . S
C157 O158 1.550 . S
C157 H159 0.973 . S
O158 C157 1.550 . S
O158 C164 1.412 . S
H159 C157 0.973 . S
C160 H153 0.929 . S
C160 C161 1.400 . S
C160 C162 1.364 . S
C161 C160 1.400 . S
C161 C165 1.377 . S
C162 C160 1.364 . S
C162 C163 1.374 . S
C163 H154 0.930 . S
C163 C162 1.374 . S
C163 C164 1.383 . S
C164 O158 1.412 . S
C164 C163 1.383 . S
C164 C165 1.394 . S
C165 H155 0.929 . S
C165 C161 1.377 . S
C165 C164 1.394 . S
H166 C173 0.929 . S
H167 C176 0.930 . S
H168 C178 0.929 . S
H169 C170 0.969 . S
C170 H169 0.969 . S
C170 O171 1.550 . S
C170 H172 0.973 . S
O171 C170 1.550 . S
O171 C177 1.412 . S
H172 C170 0.973 . S
C173 H166 0.929 . S
C173 C174 1.400 . S
C173 C175 1.364 . S
C174 C173 1.400 . S
C174 C178 1.377 . S
C175 C173 1.364 . S
C175 C176 1.374 . S
C176 H167 0.930 . S
C176 C175 1.374 . S
C176 C177 1.383 . S
C177 O171 1.412 . S
C177 C176 1.383 . S
C177 C178 1.394 . S
C178 H168 0.929 . S
C178 C174 1.377 . S
C178 C177 1.394 . S
H179 C186 0.929 . S
H180 C189 0.930 . S
H181 C191 0.929 . S
H182 C183 0.969 . S
C183 H182 0.969 . S
C183 O184 1.550 . S
C183 H185 0.973 . S
O184 C183 1.550 . S
O184 C190 1.412 . S
H185 C183 0.973 . S
C186 H179 0.929 . S
C186 C187 1.400 . S
C186 C188 1.364 . S
C187 C186 1.400 . S
C187 C191 1.377 . S
C188 C186 1.364 . S
C188 C189 1.374 . S
C189 H180 0.930 . S
C189 C188 1.374 . S
C189 C190 1.383 . S
C190 O184 1.412 . S
C190 C189 1.383 . S
C190 C191 1.394 . S
C191 H181 0.929 . S
C191 C187 1.377 . S
C191 C190 1.394 . S
H192 C200 0.950 . S
H193 C205 0.950 . S
H194 C202 0.950 . S
H195 C204 0.950 . S
H196 C206 0.950 . S
H197 C208 0.950 . S
H198 C210 0.950 . S
H199 C211 0.950 1_565 S
C200 H192 0.950 . S
C200 C201 1.386 . S
C200 C202 1.391 . S
C201 C200 1.386 . S
C201 C205 1.393 . S
C202 H194 0.950 . S
C202 C200 1.391 . S
C202 C203 1.400 . S
C203 C202 1.400 . S
C203 C204 1.398 . S
C203 C209 1.491 . S
C204 H195 0.950 . S
C204 C203 1.398 . S
C204 C205 1.391 . S
C205 H193 0.950 . S
C205 C201 1.393 . S
C205 C204 1.391 . S
C206 H196 0.950 . S
C206 C207 1.386 . S
C206 C208 1.391 . S
C207 C206 1.386 . S
C207 C211 1.393 . S
C208 H197 0.950 . S
C208 C206 1.391 . S
C208 C209 1.400 1_545 S
C209 C203 1.491 . S
C209 C208 1.400 1_565 S
C209 C210 1.398 . S
C210 H198 0.950 . S
C210 C209 1.398 . S
C210 C211 1.391 1_565 S
C211 H199 0.950 1_545 S
C211 C207 1.393 . S
C211 C210 1.391 1_545 S
H212 C220 0.950 . S
H213 C225 0.950 . S
H214 C222 0.950 . S
H215 C224 0.950 . S
H216 C226 0.950 . S
H217 C228 0.950 . S
H218 C230 0.950 . S
H219 C231 0.950 . S
C220 H212 0.950 . S
C220 C221 1.386 . S
C220 C222 1.391 . S
C221 C220 1.386 . S
C221 C225 1.393 . S
C222 H214 0.950 . S
C222 C220 1.391 . S
C222 C223 1.400 . S
C223 C222 1.400 . S
C223 C224 1.398 . S
C223 C229 1.491 . S
C224 H215 0.950 . S
C224 C223 1.398 . S
C224 C225 1.391 . S
C225 H213 0.950 . S
C225 C221 1.393 . S
C225 C224 1.391 . S
C226 H216 0.950 . S
C226 C227 1.386 . S
C226 C228 1.391 . S
C227 C226 1.386 . S
C227 C231 1.393 . S
C228 H217 0.950 . S
C228 C226 1.391 . S
C228 C229 1.400 . S
C229 C223 1.491 . S
C229 C228 1.400 . S
C229 C230 1.398 . S
C230 H218 0.950 . S
C230 C229 1.398 . S
C230 C231 1.391 . S
C231 H219 0.950 . S
C231 C227 1.393 . S
C231 C230 1.391 . S
H232 C240 0.950 . S
H233 C245 0.950 . S
H234 C242 0.950 . S
H235 C244 0.950 . S
H236 C246 0.950 . S
H237 C248 0.950 . S
H238 C250 0.950 . S
H239 C251 0.950 . S
C240 H232 0.950 . S
C240 C241 1.386 . S
C240 C242 1.391 1_545 S
C241 C240 1.386 . S
C241 C245 1.393 . S
C242 H234 0.950 . S
C242 C240 1.391 1_565 S
C242 C243 1.400 . S
C243 C242 1.400 . S
C243 C244 1.398 . S
C243 C249 1.491 . S
C244 H235 0.950 . S
C244 C243 1.398 . S
C244 C245 1.391 1_565 S
C245 H233 0.950 . S
C245 C241 1.393 . S
C245 C244 1.391 1_545 S
C246 H236 0.950 . S
C246 C247 1.386 . S
C246 C248 1.391 . S
C247 C246 1.386 . S
C247 C251 1.393 . S
C248 H237 0.950 . S
C248 C246 1.391 . S
C248 C249 1.400 . S
C249 C243 1.491 . S
C249 C248 1.400 . S
C249 C250 1.398 . S
C250 H238 0.950 . S
C250 C249 1.398 . S
C250 C251 1.391 . S
C251 H239 0.950 . S
C251 C247 1.393 . S
C251 C250 1.391 . S
H252 C260 0.950 . S
H253 C265 0.950 . S
H254 C262 0.950 . S
H255 C264 0.950 . S
H256 C266 0.950 . S
H257 C268 0.950 . S
H258 C270 0.950 . S
H259 C271 0.950 . S
C260 H252 0.950 . S
C260 C261 1.386 . S
C260 C262 1.391 . S
C261 C260 1.386 . S
C261 C265 1.393 . S
C262 H254 0.950 . S
C262 C260 1.391 . S
C262 C263 1.400 . S
C263 C262 1.400 . S
C263 C264 1.398 . S
C263 C269 1.491 . S
C264 H255 0.950 . S
C264 C263 1.398 . S
C264 C265 1.391 . S
C265 H253 0.950 . S
C265 C261 1.393 . S
C265 C264 1.391 . S
C266 H256 0.950 . S
C266 C267 1.386 . S
C266 C268 1.391 . S
C267 C266 1.386 . S
C267 C271 1.393 . S
C268 H257 0.950 . S
C268 C266 1.391 . S
C268 C269 1.400 . S
C269 C263 1.491 . S
C269 C268 1.400 . S
C269 C270 1.398 . S
C270 H258 0.950 . S
C270 C269 1.398 . S
C270 C271 1.391 . S
C271 H259 0.950 . S
C271 C267 1.393 . S
C271 C270 1.391 . S
H272 C280 0.950 . S
H273 C285 0.950 . S
H274 C282 0.950 . S
H275 C284 0.950 . S
H276 C286 0.950 . S
H277 C288 0.950 . S
H278 C290 0.950 . S
H279 C291 0.950 . S
C280 H272 0.950 . S
C280 C281 1.386 . S
C280 C282 1.391 . S
C281 C280 1.386 . S
C281 C285 1.393 . S
C282 H274 0.950 . S
C282 C280 1.391 . S
C282 C283 1.400 . S
C283 C282 1.400 . S
C283 C284 1.398 . S
C283 C289 1.491 . S
C284 H275 0.950 . S
C284 C283 1.398 . S
C284 C285 1.391 . S
C285 H273 0.950 . S
C285 C281 1.393 . S
C285 C284 1.391 . S
C286 H276 0.950 . S
C286 C287 1.386 . S
C286 C288 1.391 . S
C287 C286 1.386 . S
C287 C291 1.393 . S
C288 H277 0.950 . S
C288 C286 1.391 . S
C288 C289 1.400 . S
C289 C283 1.491 . S
C289 C288 1.400 . S
C289 C290 1.398 . S
C290 H278 0.950 . S
C290 C289 1.398 . S
C290 C291 1.391 . S
C291 H279 0.950 . S
C291 C287 1.393 . S
C291 C290 1.391 . S
H292 C300 0.950 . S
H293 C305 0.950 . S
H294 C302 0.950 1_554 S
H295 C304 0.945 1_455 S
H296 C306 0.950 . S
H297 C308 0.950 . S
H298 C310 0.950 . S
H299 C311 0.950 . S
C300 H292 0.950 . S
C300 C301 1.386 1_554 S
C300 C302 1.391 1_654 S
C301 C300 1.386 1_556 S
C301 C305 1.393 . S
C302 H294 0.950 1_556 S
C302 C300 1.391 1_456 S
C302 C303 1.400 . S
C303 C302 1.400 . S
C303 C304 1.398 1_455 S
C303 C309 1.491 . S
C304 H295 0.945 1_655 S
C304 C303 1.398 1_655 S
C304 C305 1.391 . S
C305 H293 0.950 . S
C305 C301 1.393 . S
C305 C304 1.391 . S
C306 H296 0.950 . S
C306 C307 1.386 . S
C306 C308 1.391 . S
C307 C306 1.386 . S
C307 C311 1.393 . S
C308 H297 0.950 . S
C308 C306 1.391 . S
C308 C309 1.400 . S
C309 C303 1.491 . S
C309 C308 1.400 . S
C309 C310 1.398 . S
C310 H298 0.950 . S
C310 C309 1.398 . S
C310 C311 1.391 . S
C311 H299 0.950 . S
C311 C307 1.393 . S
C311 C310 1.391 . S
H312 C320 0.950 . S
H313 C325 0.950 . S
H314 C322 0.950 . S
H315 C324 0.950 . S
H316 C326 0.950 . S
H317 C328 0.950 . S
H318 C330 0.950 . S
H319 C331 0.950 . S
C320 H312 0.950 . S
C320 C321 1.386 . S
C320 C322 1.391 . S
C321 C320 1.386 . S
C321 C325 1.393 . S
C322 H314 0.950 . S
C322 C320 1.391 . S
C322 C323 1.400 . S
C323 C322 1.400 . S
C323 C324 1.398 . S
C323 C329 1.491 . S
C324 H315 0.950 . S
C324 C323 1.398 . S
C324 C325 1.391 . S
C325 H313 0.950 . S
C325 C321 1.393 . S
C325 C324 1.391 . S
C326 H316 0.950 . S
C326 C327 1.386 . S
C326 C328 1.391 . S
C327 C326 1.386 . S
C327 C331 1.393 . S
C328 H317 0.950 . S
C328 C326 1.391 . S
C328 C329 1.400 . S
C329 C323 1.491 . S
C329 C328 1.400 . S
C329 C330 1.398 . S
C330 H318 0.950 . S
C330 C329 1.398 . S
C330 C331 1.391 . S
C331 H319 0.950 . S
C331 C327 1.393 . S
C331 C330 1.391 . S
H332 C340 0.950 . S
H333 C345 0.950 . S
H334 C342 0.950 . S
H335 C344 0.950 . S
H336 C346 0.950 . S
H337 C348 0.950 . S
H338 C350 0.950 . S
H339 C351 0.950 . S
C340 H332 0.950 . S
C340 C341 1.386 . S
C340 C342 1.391 . S
C341 C340 1.386 . S
C341 C345 1.393 . S
C342 H334 0.950 . S
C342 C340 1.391 . S
C342 C343 1.400 1_455 S
C343 C342 1.400 1_655 S
C343 C344 1.398 . S
C343 C349 1.491 . S
C344 H335 0.950 . S
C344 C343 1.398 . S
C344 C345 1.391 1_655 S
C345 H333 0.950 . S
C345 C341 1.393 . S
C345 C344 1.391 1_455 S
C346 H336 0.950 . S
C346 C347 1.386 . S
C346 C348 1.391 . S
C347 C346 1.386 . S
C347 C351 1.393 . S
C348 H337 0.950 . S
C348 C346 1.391 . S
C348 C349 1.400 . S
C349 C343 1.491 . S
C349 C348 1.400 . S
C349 C350 1.398 . S
C350 H338 0.950 . S
C350 C349 1.398 . S
C350 C351 1.391 . S
C351 H339 0.950 . S
C351 C347 1.393 . S
C351 C350 1.391 . S
H352 C360 0.950 . S
H353 C365 0.950 . S
H354 C362 0.950 . S
H355 C364 0.950 . S
H356 C366 0.950 . S
H357 C368 0.950 . S
H358 C370 0.950 . S
H359 C371 0.950 . S
C360 H352 0.950 . S
C360 C361 1.386 . S
C360 C362 1.391 . S
C361 C360 1.386 . S
C361 C365 1.393 . S
C362 H354 0.950 . S
C362 C360 1.391 . S
C362 C363 1.400 . S
C363 C362 1.400 . S
C363 C364 1.398 . S
C363 C369 1.491 . S
C364 H355 0.950 . S
C364 C363 1.398 . S
C364 C365 1.391 . S
C365 H353 0.950 . S
C365 C361 1.393 . S
C365 C364 1.391 . S
C366 H356 0.950 . S
C366 C367 1.386 . S
C366 C368 1.391 . S
C367 C366 1.386 . S
C367 C371 1.393 . S
C368 H357 0.950 . S
C368 C366 1.391 . S
C368 C369 1.400 1_565 S
C369 C363 1.491 . S
C369 C368 1.400 1_545 S
C369 C370 1.398 . S
C370 H358 0.950 . S
C370 C369 1.398 . S
C370 C371 1.391 1_545 S
C371 H359 0.950 . S
C371 C367 1.393 . S
C371 C370 1.391 1_565 S
H372 C380 0.950 . S
H373 C385 0.950 . S
H374 C382 0.950 . S
H375 C384 0.950 . S
H376 C386 0.950 . S
H377 C388 0.950 . S
H378 C390 0.950 . S
H379 C391 0.950 . S
C380 H372 0.950 . S
C380 C381 1.386 . S
C380 C382 1.391 . S
C381 C380 1.386 . S
C381 C385 1.393 . S
C382 H374 0.950 . S
C382 C380 1.391 . S
C382 C383 1.400 . S
C383 C382 1.400 . S
C383 C384 1.398 . S
C383 C389 1.491 . S
C384 H375 0.950 . S
C384 C383 1.398 . S
C384 C385 1.391 . S
C385 H373 0.950 . S
C385 C381 1.393 . S
C385 C384 1.391 . S
C386 H376 0.950 . S
C386 C387 1.386 . S
C386 C388 1.391 . S
C387 C386 1.386 . S
C387 C391 1.393 . S
C388 H377 0.950 . S
C388 C386 1.391 . S
C388 C389 1.400 . S
C389 C383 1.491 . S
C389 C388 1.400 . S
C389 C390 1.398 . S
C390 H378 0.950 . S
C390 C389 1.398 . S
C390 C391 1.391 . S
C391 H379 0.950 . S
C391 C387 1.393 . S
C391 C390 1.391 . S
H392 C400 0.950 . S
H393 C405 0.950 . S
H394 C402 0.950 . S
H395 C404 0.950 . S
H396 C406 0.950 . S
H397 C408 0.950 . S
H398 C410 0.950 . S
H399 C411 0.950 . S
C400 H392 0.950 . S
C400 C401 1.386 . S
C400 C402 1.391 1_565 S
C401 C400 1.386 . S
C401 C405 1.393 . S
C402 H394 0.950 . S
C402 C400 1.391 1_545 S
C402 C403 1.400 . S
C403 C402 1.400 . S
C403 C404 1.398 . S
C403 C409 1.491 . S
C404 H395 0.950 . S
C404 C403 1.398 . S
C404 C405 1.391 1_545 S
C405 H393 0.950 . S
C405 C401 1.393 . S
C405 C404 1.391 1_565 S
C406 H396 0.950 . S
C406 C407 1.386 . S
C406 C408 1.391 . S
C407 C406 1.386 . S
C407 C411 1.393 . S
C408 H397 0.950 . S
C408 C406 1.391 . S
C408 C409 1.400 . S
C409 C403 1.491 . S
C409 C408 1.400 . S
C409 C410 1.398 . S
C410 H398 0.950 . S
C410 C409 1.398 . S
C410 C411 1.391 . S
C411 H399 0.950 . S
C411 C407 1.393 . S
C411 C410 1.391 . S
H412 C420 0.950 . S
H413 C425 0.950 . S
H414 C422 0.950 . S
H415 C424 0.950 . S
H416 C426 0.950 . S
H417 C428 0.950 . S
H418 C430 0.950 . S
H419 C431 0.950 . S
C420 H412 0.950 . S
C420 C421 1.386 . S
C420 C422 1.391 . S
C421 C420 1.386 . S
C421 C425 1.393 . S
C422 H414 0.950 . S
C422 C420 1.391 . S
C422 C423 1.400 . S
C423 C422 1.400 . S
C423 C424 1.398 . S
C423 C429 1.491 . S
C424 H415 0.950 . S
C424 C423 1.398 . S
C424 C425 1.391 . S
C425 H413 0.950 . S
C425 C421 1.393 . S
C425 C424 1.391 . S
C426 H416 0.950 . S
C426 C427 1.386 . S
C426 C428 1.391 . S
C427 C426 1.386 . S
C427 C431 1.393 . S
C428 H417 0.950 . S
C428 C426 1.391 . S
C428 C429 1.400 . S
C429 C423 1.491 . S
C429 C428 1.400 . S
C429 C430 1.398 . S
C430 H418 0.950 . S
C430 C429 1.398 . S
C430 C431 1.391 . S
C431 H419 0.950 . S
C431 C427 1.393 . S
C431 C430 1.391 . S
H432 C440 0.950 . S
H433 C445 0.950 . S
H434 C442 0.950 . S
H435 C444 0.950 . S
H436 C446 0.950 . S
H437 C448 0.950 . S
H438 C450 0.950 . S
H439 C451 0.950 . S
C440 H432 0.950 . S
C440 C441 1.386 . S
C440 C442 1.391 . S
C441 C440 1.386 . S
C441 C445 1.393 . S
C442 H434 0.950 . S
C442 C440 1.391 . S
C442 C443 1.400 . S
C443 C442 1.400 . S
C443 C444 1.398 . S
C443 C449 1.491 . S
C444 H435 0.950 . S
C444 C443 1.398 . S
C444 C445 1.391 . S
C445 H433 0.950 . S
C445 C441 1.393 . S
C445 C444 1.391 . S
C446 H436 0.950 . S
C446 C447 1.386 . S
C446 C448 1.391 . S
C447 C446 1.386 . S
C447 C451 1.393 . S
C448 H437 0.950 . S
C448 C446 1.391 . S
C448 C449 1.400 . S
C449 C443 1.491 . S
C449 C448 1.400 . S
C449 C450 1.398 . S
C450 H438 0.950 . S
C450 C449 1.398 . S
C450 C451 1.391 . S
C451 H439 0.950 . S
C451 C447 1.393 . S
C451 C450 1.391 . S
H452 C460 0.950 . S
H453 C465 0.950 . S
H454 C462 0.950 . S
H455 C464 0.950 . S
H456 C466 0.950 . S
H457 C468 0.950 . S
H458 C470 0.950 . S
H459 C471 0.950 . S
C460 H452 0.950 . S
C460 C461 1.386 . S
C460 C462 1.391 1_455 S
C461 C460 1.386 . S
C461 C465 1.393 . S
C462 H454 0.950 . S
C462 C460 1.391 1_655 S
C462 C463 1.400 . S
C463 C462 1.400 . S
C463 C464 1.398 1_655 S
C463 C469 1.491 . S
C464 H455 0.950 . S
C464 C463 1.398 1_455 S
C464 C465 1.391 . S
C465 H453 0.950 . S
C465 C461 1.393 . S
C465 C464 1.391 . S
C466 H456 0.950 . S
C466 C467 1.386 . S
C466 C468 1.391 . S
C467 C466 1.386 . S
C467 C471 1.393 . S
C468 H457 0.950 . S
C468 C466 1.391 . S
C468 C469 1.400 . S
C469 C463 1.491 . S
C469 C468 1.400 . S
C469 C470 1.398 . S
C470 H458 0.950 . S
C470 C469 1.398 . S
C470 C471 1.391 . S
C471 H459 0.950 . S
C471 C467 1.393 . S
C471 C470 1.391 . S
H472 C480 0.950 . S
H473 C485 0.950 . S
H474 C482 0.950 . S
H475 C484 0.950 . S
H476 C486 0.950 . S
H477 C488 0.950 . S
H478 C490 0.950 . S
H479 C491 0.950 . S
C480 H472 0.950 . S
C480 C481 1.386 . S
C480 C482 1.391 . S
C481 C480 1.386 . S
C481 C485 1.393 . S
C482 H474 0.950 . S
C482 C480 1.391 . S
C482 C483 1.400 . S
C483 C482 1.400 . S
C483 C484 1.398 . S
C483 C489 1.491 . S
C484 H475 0.950 . S
C484 C483 1.398 . S
C484 C485 1.391 . S
C485 H473 0.950 . S
C485 C481 1.393 . S
C485 C484 1.391 . S
C486 H476 0.950 . S
C486 C487 1.386 . S
C486 C488 1.391 . S
C487 C486 1.386 . S
C487 C491 1.393 . S
C488 H477 0.950 . S
C488 C486 1.391 . S
C488 C489 1.400 . S
C489 C483 1.491 . S
C489 C488 1.400 . S
C489 C490 1.398 . S
C490 H478 0.950 . S
C490 C489 1.398 . S
C490 C491 1.391 . S
C491 H479 0.950 . S
C491 C487 1.393 . S
C491 C490 1.391 . S
H492 C500 0.950 . S
H493 C505 0.950 . S
H494 C502 0.950 . S
H495 C504 0.950 . S
H496 C506 0.950 . S
H497 C508 0.950 . S
H498 C510 0.950 . S
H499 C511 0.950 . S
C500 H492 0.950 . S
C500 C501 1.386 . S
C500 C502 1.391 . S
C501 C500 1.386 . S
C501 C505 1.393 . S
C502 H494 0.950 . S
C502 C500 1.391 . S
C502 C503 1.400 1_655 S
C503 C502 1.400 1_455 S
C503 C504 1.398 . S
C503 C509 1.491 . S
C504 H495 0.950 . S
C504 C503 1.398 . S
C504 C505 1.391 1_455 S
C505 H493 0.950 . S
C505 C501 1.393 . S
C505 C504 1.391 1_655 S
C506 H496 0.950 . S
C506 C507 1.386 . S
C506 C508 1.391 . S
C507 C506 1.386 . S
C507 C511 1.393 . S
C508 H497 0.950 . S
C508 C506 1.391 . S
C508 C509 1.400 . S
C509 C503 1.491 . S
C509 C508 1.400 . S
C509 C510 1.398 . S
C510 H498 0.950 . S
C510 C509 1.398 . S
C510 C511 1.391 . S
C511 H499 0.950 . S
C511 C507 1.393 . S
C511 C510 1.391 . S
H512 C520 0.950 . S
H513 C525 0.950 . S
H514 C522 0.950 . S
H515 C524 0.950 . S
H516 C526 0.950 . S
H517 C528 0.950 . S
H518 C530 0.950 . S
H519 C531 0.950 . S
C520 H512 0.950 . S
C520 C521 1.386 . S
C520 C522 1.391 . S
C521 C520 1.386 . S
C521 C525 1.393 . S
C522 H514 0.950 . S
C522 C520 1.391 . S
C522 C523 1.400 . S
C523 C522 1.400 . S
C523 C524 1.398 . S
C523 C529 1.491 . S
C524 H515 0.950 . S
C524 C523 1.398 . S
C524 C525 1.391 . S
C525 H513 0.950 . S
C525 C521 1.393 . S
C525 C524 1.391 . S
C526 H516 0.950 . S
C526 C527 1.386 . S
C526 C528 1.391 . S
C527 C526 1.386 . S
C527 C531 1.393 . S
C528 H517 0.950 . S
C528 C526 1.391 . S
C528 C529 1.400 . S
C529 C523 1.491 . S
C529 C528 1.400 . S
C529 C530 1.398 . S
C530 H518 0.950 . S
C530 C529 1.398 . S
C530 C531 1.391 . S
C531 H519 0.950 . S
C531 C527 1.393 . S
C531 C530 1.391 . S
H532 C540 0.950 . S
H533 C545 0.950 . S
H534 C542 0.950 . S
H535 C544 0.950 . S
H536 C546 0.950 . S
H537 C548 0.950 . S
H538 C550 0.950 . S
H539 C551 0.950 . S
C540 H532 0.950 . S
C540 C541 1.386 . S
C540 C542 1.391 . S
C541 C540 1.386 . S
C541 C545 1.393 . S
C542 H534 0.950 . S
C542 C540 1.391 . S
C542 C543 1.400 . S
C543 C542 1.400 . S
C543 C544 1.398 . S
C543 C549 1.491 . S
C544 H535 0.950 . S
C544 C543 1.398 . S
C544 C545 1.391 . S
C545 H533 0.950 . S
C545 C541 1.393 . S
C545 C544 1.391 . S
C546 H536 0.950 . S
C546 C547 1.386 . S
C546 C548 1.391 . S
C547 C546 1.386 . S
C547 C551 1.393 . S
C548 H537 0.950 . S
C548 C546 1.391 . S
C548 C549 1.400 . S
C549 C543 1.491 . S
C549 C548 1.400 . S
C549 C550 1.398 . S
C550 H538 0.950 . S
C550 C549 1.398 . S
C550 C551 1.391 . S
C551 H539 0.950 . S
C551 C547 1.393 . S
C551 C550 1.391 . S
H552 C560 0.950 . S
H553 C565 0.950 . S
H554 C562 0.950 . S
H555 C564 0.950 . S
H556 C566 0.950 . S
H557 C568 0.950 . S
H558 C570 0.950 . S
H559 C571 0.950 . S
C560 H552 0.950 . S
C560 C561 1.386 . S
C560 C562 1.391 . S
C561 C560 1.386 . S
C561 C565 1.393 . S
C562 H554 0.950 . S
C562 C560 1.391 . S
C562 C563 1.400 . S
C563 C562 1.400 . S
C563 C564 1.398 . S
C563 C569 1.491 . S
C564 H555 0.950 . S
C564 C563 1.398 . S
C564 C565 1.391 . S
C565 H553 0.950 . S
C565 C561 1.393 . S
C565 C564 1.391 . S
C566 H556 0.950 . S
C566 C567 1.386 . S
C566 C568 1.391 . S
C567 C566 1.386 . S
C567 C571 1.393 . S
C568 H557 0.950 . S
C568 C566 1.391 . S
C568 C569 1.400 . S
C569 C563 1.491 . S
C569 C568 1.400 . S
C569 C570 1.398 . S
C570 H558 0.950 . S
C570 C569 1.398 . S
C570 C571 1.391 . S
C571 H559 0.950 . S
C571 C567 1.393 . S
C571 C570 1.391 . S
H572 C580 0.950 . S
H573 C585 0.950 . S
H574 C582 0.950 . S
H575 C584 0.950 . S
H576 C586 0.950 . S
H577 C588 0.950 . S
H578 C590 0.950 . S
H579 C591 0.950 . S
C580 H572 0.950 . S
C580 C581 1.386 . S
C580 C582 1.391 . S
C581 C580 1.386 . S
C581 C585 1.393 . S
C582 H574 0.950 . S
C582 C580 1.391 . S
C582 C583 1.400 . S
C583 C582 1.400 . S
C583 C584 1.398 . S
C583 C589 1.491 . S
C584 H575 0.950 . S
C584 C583 1.398 . S
C584 C585 1.391 . S
C585 H573 0.950 . S
C585 C581 1.393 . S
C585 C584 1.391 . S
C586 H576 0.950 . S
C586 C587 1.386 . S
C586 C588 1.391 . S
C587 C586 1.386 . S
C587 C591 1.393 . S
C588 H577 0.950 . S
C588 C586 1.391 . S
C588 C589 1.400 . S
C589 C583 1.491 . S
C589 C588 1.400 . S
C589 C590 1.398 . S
C590 H578 0.950 . S
C590 C589 1.398 . S
C590 C591 1.391 . S
C591 H579 0.950 . S
C591 C587 1.393 . S
C591 C590 1.391 . S
H592 C600 0.950 . S
H593 C605 0.950 . S
H594 C602 0.950 . S
H595 C604 0.950 . S
H596 C606 0.950 . S
H597 C608 0.950 . S
H598 C610 0.950 . S
H599 C611 0.950 . S
C600 H592 0.950 . S
C600 C601 1.386 . S
C600 C602 1.391 . S
C601 C600 1.386 . S
C601 C605 1.393 . S
C602 H594 0.950 . S
C602 C600 1.391 . S
C602 C603 1.400 . S
C603 C602 1.400 . S
C603 C604 1.398 . S
C603 C609 1.491 . S
C604 H595 0.950 . S
C604 C603 1.398 . S
C604 C605 1.391 . S
C605 H593 0.950 . S
C605 C601 1.393 . S
C605 C604 1.391 . S
C606 H596 0.950 . S
C606 C607 1.386 . S
C606 C608 1.391 . S
C607 C606 1.386 . S
C607 C611 1.393 . S
C608 H597 0.950 . S
C608 C606 1.391 . S
C608 C609 1.400 . S
C609 C603 1.491 . S
C609 C608 1.400 . S
C609 C610 1.398 . S
C610 H598 0.950 . S
C610 C609 1.398 . S
C610 C611 1.391 . S
C611 H599 0.950 . S
C611 C607 1.393 . S
C611 C610 1.391 . S
H612 C620 0.950 . S
H613 C625 0.950 . S
H614 C622 0.950 . S
H615 C624 0.950 . S
H616 C626 0.950 . S
H617 C628 0.950 . S
H618 C630 0.950 . S
H619 C631 0.950 . S
C620 H612 0.950 . S
C620 C621 1.386 . S
C620 C622 1.391 . S
C621 C620 1.386 . S
C621 C625 1.393 . S
C622 H614 0.950 . S
C622 C620 1.391 . S
C622 C623 1.400 . S
C623 C622 1.400 . S
C623 C624 1.398 . S
C623 C629 1.491 . S
C624 H615 0.950 . S
C624 C623 1.398 . S
C624 C625 1.391 . S
C625 H613 0.950 . S
C625 C621 1.393 . S
C625 C624 1.391 . S
C626 H616 0.950 . S
C626 C627 1.386 . S
C626 C628 1.391 . S
C627 C626 1.386 . S
C627 C631 1.393 . S
C628 H617 0.950 . S
C628 C626 1.391 . S
C628 C629 1.400 . S
C629 C623 1.491 . S
C629 C628 1.400 . S
C629 C630 1.398 . S
C630 H618 0.950 . S
C630 C629 1.398 . S
C630 C631 1.391 . S
C631 H619 0.950 . S
C631 C627 1.393 . S
C631 C630 1.391 . S
H632 C640 0.950 . S
H633 C645 0.950 . S
H634 C642 0.950 . S
H635 C644 0.950 . S
H636 C646 0.950 . S
H637 C648 0.950 . S
H638 C650 0.950 . S
H639 C651 0.950 . S
C640 H632 0.950 . S
C640 C641 1.386 . S
C640 C642 1.391 . S
C641 C640 1.386 . S
C641 C645 1.393 . S
C642 H634 0.950 . S
C642 C640 1.391 . S
C642 C643 1.400 . S
C643 C642 1.400 . S
C643 C644 1.398 . S
C643 C649 1.491 . S
C644 H635 0.950 . S
C644 C643 1.398 . S
C644 C645 1.391 . S
C645 H633 0.950 . S
C645 C641 1.393 . S
C645 C644 1.391 . S
C646 H636 0.950 . S
C646 C647 1.386 . S
C646 C648 1.391 . S
C647 C646 1.386 . S
C647 C651 1.393 . S
C648 H637 0.950 . S
C648 C646 1.391 . S
C648 C649 1.400 . S
C649 C643 1.491 . S
C649 C648 1.400 . S
C649 C650 1.398 . S
C650 H638 0.950 . S
C650 C649 1.398 . S
C650 C651 1.391 . S
C651 H639 0.950 . S
C651 C647 1.393 . S
C651 C650 1.391 . S
H652 C660 0.950 . S
H653 C665 0.950 . S
H654 C662 0.950 . S
H655 C664 0.950 . S
H656 C666 0.950 . S
H657 C668 0.950 . S
H658 C670 0.950 . S
H659 C671 0.950 . S
C660 H652 0.950 . S
C660 C661 1.386 . S
C660 C662 1.391 . S
C661 C660 1.386 . S
C661 C665 1.393 . S
C662 H654 0.950 . S
C662 C660 1.391 . S
C662 C663 1.400 . S
C663 C662 1.400 . S
C663 C664 1.398 . S
C663 C669 1.491 . S
C664 H655 0.950 . S
C664 C663 1.398 . S
C664 C665 1.391 . S
C665 H653 0.950 . S
C665 C661 1.393 . S
C665 C664 1.391 . S
C666 H656 0.950 . S
C666 C667 1.386 . S
C666 C668 1.391 . S
C667 C666 1.386 . S
C667 C671 1.393 . S
C668 H657 0.950 . S
C668 C666 1.391 . S
C668 C669 1.400 . S
C669 C663 1.491 . S
C669 C668 1.400 . S
C669 C670 1.398 . S
C670 H658 0.950 . S
C670 C669 1.398 . S
C670 C671 1.391 . S
C671 H659 0.950 . S
C671 C667 1.393 . S
C671 C670 1.391 . S
C201 C7 1.325 . S
C207 C96 1.290 . S
C221 C37 1.210 . S
C227 C109 1.200 . S
C241 C54 1.414 . S
C247 C123 1.351 . S
C267 C136 1.344 . S
C261 C87 1.393 . S
C287 C148 1.254 . S
C281 C30 1.259 . S
C301 C51 1.452 1_556 S
C307 C162 1.407 . S
C321 C84 1.252 . S
C327 C174 1.227 . S
C341 C10 1.360 . S
C347 C188 1.321 . S
C361 C59 1.292 . S
C367 C187 1.274 . S
C387 C149 1.359 . S
C381 C74 1.412 . S
C407 C161 1.277 . S
C401 C18 1.278 . S
C421 C32 1.367 . S
C427 C175 1.347 . S
C447 C110 1.406 . S
C441 C73 1.434 . S
C461 C15 1.248 . S
C467 C122 1.211 . S
C487 C135 1.282 . S
C481 C43 1.343 . S
C507 C97 1.340 . S
C501 C62 1.358 . S
C527 C170 1.285 . S
C521 C21 1.340 . S
C547 C183 1.264 . S
C541 C29 1.372 . S
C561 C52 1.415 . S
C567 C144 1.356 . S
C587 C157 1.429 . S
C581 C81 1.451 . S
C607 C118 1.317 . S
C601 C40 1.370 . S
C621 C65 1.418 1_556 S
C627 C131 1.311 . S
C647 C92 1.351 . S
C641 C76 1.410 . S
C667 C105 1.271 . S
C661 C8 1.360 . S
