# Generated by pormake.
# Topology zzz, (3,6)-cn, num edge types: 1
# Building blocks:
#     Node 0, Type 0, BuildingBlock: QEWDON_clean_linker_0, # of connection points: 3
#     Node 1, Type 0, BuildingBlock: QEWDON_clean_linker_0, # of connection points: 3
#     Node 2, Type 0, BuildingBlock: QEWDON_clean_linker_0, # of connection points: 3
#     Node 3, Type 0, BuildingBlock: QEWDON_clean_linker_0, # of connection points: 3
#     Node 4, Type 0, BuildingBlock: QEWDON_clean_linker_0, # of connection points: 3
#     Node 5, Type 0, BuildingBlock: QEWDON_clean_linker_0, # of connection points: 3
#     Node 6, Type 0, BuildingBlock: QEWDON_clean_linker_0, # of connection points: 3
#     Node 7, Type 0, BuildingBlock: QEWDON_clean_linker_0, # of connection points: 3
#     Node 8, Type 1, BuildingBlock: MIFKUJ_clean_sbu_0, # of connection points: 6
#     Node 9, Type 1, BuildingBlock: MIFKUJ_clean_sbu_0, # of connection points: 6
#     Node 10, Type 1, BuildingBlock: MIFKUJ_clean_sbu_0, # of connection points: 6
#     Node 11, Type 1, BuildingBlock: MIFKUJ_clean_sbu_0, # of connection points: 6
#     Edge 12, Type (0, 1), BuildingBlock: UVAHIK_clean_linker_0, # of connection points: 2
#     Edge 13, Type (0, 1), BuildingBlock: UVAHIK_clean_linker_0, # of connection points: 2
#     Edge 14, Type (0, 1), BuildingBlock: UVAHIK_clean_linker_0, # of connection points: 2
#     Edge 15, Type (0, 1), BuildingBlock: UVAHIK_clean_linker_0, # of connection points: 2
#     Edge 16, Type (0, 1), BuildingBlock: UVAHIK_clean_linker_0, # of connection points: 2
#     Edge 17, Type (0, 1), BuildingBlock: UVAHIK_clean_linker_0, # of connection points: 2
#     Edge 18, Type (0, 1), BuildingBlock: UVAHIK_clean_linker_0, # of connection points: 2
#     Edge 19, Type (0, 1), BuildingBlock: UVAHIK_clean_linker_0, # of connection points: 2
#     Edge 20, Type (0, 1), BuildingBlock: UVAHIK_clean_linker_0, # of connection points: 2
#     Edge 21, Type (0, 1), BuildingBlock: UVAHIK_clean_linker_0, # of connection points: 2
#     Edge 22, Type (0, 1), BuildingBlock: UVAHIK_clean_linker_0, # of connection points: 2
#     Edge 23, Type (0, 1), BuildingBlock: UVAHIK_clean_linker_0, # of connection points: 2
#     Edge 24, Type (0, 1), BuildingBlock: UVAHIK_clean_linker_0, # of connection points: 2
#     Edge 25, Type (0, 1), BuildingBlock: UVAHIK_clean_linker_0, # of connection points: 2
#     Edge 26, Type (0, 1), BuildingBlock: UVAHIK_clean_linker_0, # of connection points: 2
#     Edge 27, Type (0, 1), BuildingBlock: UVAHIK_clean_linker_0, # of connection points: 2
#     Edge 28, Type (0, 1), BuildingBlock: UVAHIK_clean_linker_0, # of connection points: 2
#     Edge 29, Type (0, 1), BuildingBlock: UVAHIK_clean_linker_0, # of connection points: 2
#     Edge 30, Type (0, 1), BuildingBlock: UVAHIK_clean_linker_0, # of connection points: 2
#     Edge 31, Type (0, 1), BuildingBlock: UVAHIK_clean_linker_0, # of connection points: 2
#     Edge 32, Type (0, 1), BuildingBlock: UVAHIK_clean_linker_0, # of connection points: 2
#     Edge 33, Type (0, 1), BuildingBlock: UVAHIK_clean_linker_0, # of connection points: 2
#     Edge 34, Type (0, 1), BuildingBlock: UVAHIK_clean_linker_0, # of connection points: 2
#     Edge 35, Type (0, 1), BuildingBlock: UVAHIK_clean_linker_0, # of connection points: 2
# Relax obj value: 0.053
# Max RMSD: 0.100
# Mean RMSD: 0.040
data_MOF--net-zzz--node1-MIFKUJ_clean_sbu_0--node2-QEWDON_clean_linker_0--edge1-UVAHIK_clean_linker_0
_symmetry_space_group_name_H-M    P1
_symmetry_Int_Tables_number       1
_symmetry_cell_setting            triclinic
loop_
_symmetry_equiv_pos_as_xyz
'x, y, z'
_cell_length_a     69.770634
_cell_length_b     69.559065
_cell_length_c     19.844566
_cell_angle_alpha  89.992781
_cell_angle_beta   89.89618
_cell_angle_gamma 90.073552
loop_
_atom_site_label
_atom_site_type_symbol
_atom_site_fract_x
_atom_site_fract_y
_atom_site_fract_z
_atom_type_partial_charge
H0 H 0.75152 0.51505 0.98348 0.0
C1 C 0.76004 0.51248 0.02816 0.0
C2 C 0.77762 0.50285 0.02175 0.0
C3 C 0.75396 0.51967 0.09114 0.0
H4 H 0.80307 0.49375 0.07398 0.0
C5 C 0.789 0.50022 0.07907 0.0
C6 C 0.78349 0.50754 0.14179 0.0
C7 C 0.76594 0.51721 0.14785 0.0
C8 C 0.7358 0.53087 0.09623 0.0
H9 H 0.76176 0.52286 0.19656 0.0
C10 C 0.71959 0.52578 0.05763 0.0
C11 C 0.70277 0.53697 0.05958 0.0
C12 C 0.7348 0.54724 0.13775 0.0
H13 H 0.74706 0.55188 0.16691 0.0
C14 C 0.71812 0.55822 0.14062 0.0
H15 H 0.71998 0.51298 0.02657 0.0
C16 C 0.70225 0.55322 0.10174 0.0
H17 H 0.68971 0.56236 0.10368 0.0
H18 H 0.71759 0.57087 0.17233 0.0
H19 H 0.99383 0.75773 0.00771 0.0
C20 C 0.9972 0.76586 0.0527 0.0
C21 C 0.00557 0.7841 0.04576 0.0
C22 C 0.99252 0.75855 0.11707 0.0
H23 H 0.01435 0.80979 0.0973 0.0
C24 C 0.00895 0.79525 0.10319 0.0
C25 C 0.00387 0.78871 0.16739 0.0
C26 C 0.99592 0.77024 0.17431 0.0
C27 C 0.98316 0.73927 0.12403 0.0
H28 H 0.9924 0.76512 0.22435 0.0
C29 C 0.98743 0.72405 0.07914 0.0
C30 C 0.97796 0.70616 0.08438 0.0
C31 C 0.96936 0.73613 0.17474 0.0
H32 H 0.96518 0.7475 0.20894 0.0
C33 C 0.96035 0.71834 0.18126 0.0
H34 H 0.99794 0.72614 0.0396 0.0
C35 C 0.96458 0.70347 0.13667 0.0
H36 H 0.95737 0.68981 0.14331 0.0
H37 H 0.94986 0.71612 0.22077 0.0
H38 H 0.75709 0.99631 0.99603 0.0
C39 C 0.74842 0.99849 0.04072 0.0
C40 C 0.73041 0.0072 0.03408 0.0
C41 C 0.75484 0.99187 0.10398 0.0
H42 H 0.70442 0.01507 0.08544 0.0
C43 C 0.71876 0.00927 0.09106 0.0
C44 C 0.72449 1.00237 0.15406 0.0
C45 C 0.74259 0.99374 0.16057 0.0
C46 C 0.7738 0.98206 0.10952 0.0
H47 H 0.74702 0.98854 0.20957 0.0
C48 C 0.78956 0.98795 0.06964 0.0
C49 C 0.80717 0.97806 0.07219 0.0
C50 C 0.77609 0.96622 0.15287 0.0
H51 H 0.76426 0.96095 0.18306 0.0
C52 C 0.79355 0.95656 0.15636 0.0
H53 H 0.78823 1.00038 0.0371 0.0
C54 C 0.80895 0.96233 0.11627 0.0
H55 H 0.82215 0.95419 0.11882 0.0
H56 H 0.79507 0.9443 0.18953 0.0
H57 H 0.51575 0.75817 0.99255 0.0
C58 C 0.51335 0.75034 0.03904 0.0
C59 C 0.50304 0.73306 0.03707 0.0
C60 C 0.52128 0.75701 0.10001 0.0
H61 H 0.49344 0.70851 0.0934 0.0
C62 C 0.50064 0.72233 0.09603 0.0
C63 C 0.50905 0.72817 0.15663 0.0
C64 C 0.51925 0.74561 0.15867 0.0
C65 C 0.53264 0.77519 0.10098 0.0
H66 H 0.52559 0.75017 0.20582 0.0
C67 C 0.52712 0.79118 0.06162 0.0
C68 C 0.53825 0.80812 0.06061 0.0
C69 C 0.54945 0.77647 0.13973 0.0
H70 H 0.55439 0.76438 0.16934 0.0
C71 C 0.56045 0.79322 0.13929 0.0
H72 H 0.514 0.79057 0.03258 0.0
C73 C 0.55498 0.80889 0.10002 0.0
H74 H 0.56409 0.82151 0.09959 0.0
H75 H 0.57345 0.79396 0.1689 0.0
H76 H 0.25962 0.51349 0.17965 0.0
C77 C 0.25072 0.50664 0.1419 0.0
C78 C 0.23185 0.50174 0.1585 0.0
C79 C 0.25795 0.50297 0.07674 0.0
H80 H 0.20512 0.49053 0.12248 0.0
C81 C 0.21996 0.49352 0.1098 0.0
C82 C 0.22649 0.4904 0.04399 0.0
C83 C 0.24556 0.49505 0.0276 0.0
C84 C 0.27826 0.50775 0.06025 0.0
H85 H 0.25069 0.49233 0.97696 0.0
C86 C 0.29283 0.50521 0.10867 0.0
C87 C 0.31197 0.51013 0.09423 0.0
C88 C 0.28323 0.51514 0.99658 0.0
H89 H 0.27241 0.51765 0.95855 0.0
C90 C 0.30223 0.51982 0.98169 0.0
H91 H 0.28937 0.49908 0.15738 0.0
C92 C 0.31653 0.51737 0.03004 0.0
H93 H 0.33109 0.52148 0.01758 0.0
H94 H 0.30587 0.52559 0.93264 0.0
H95 H 0.99854 0.26238 0.18166 0.0
C96 C 0.00386 0.25459 0.13824 0.0
C97 C 0.01067 0.23583 0.14703 0.0
C98 C 0.0033 0.26291 0.07338 0.0
H99 H 0.02109 0.21035 0.09833 0.0
C100 C 0.01672 0.22518 0.09125 0.0
C101 C 0.01549 0.23268 0.02612 0.0
C102 C 0.00899 0.25164 0.01729 0.0
C103 C 0.99575 0.28286 0.06403 0.0
H104 H 0.00833 0.25745 0.96672 0.0
C105 C 0.99894 0.29732 0.11291 0.0
C106 C 0.99116 0.31591 0.10501 0.0
C107 C 0.98481 0.28744 0.00674 0.0
H108 H 0.98157 0.27669 0.96897 0.0
C109 C 0.97745 0.30589 -0.00203 0.0
H110 H 0.00728 0.2941 0.15746 0.0
C111 C 0.98058 0.32002 0.04651 0.0
H112 H 0.97473 0.33423 0.03802 0.0
H113 H 0.96913 0.30921 0.9535 0.0
H114 H 0.25288 0.9983 0.19383 0.0
C115 C 0.26134 0.00383 0.15228 0.0
C116 C 0.28042 0.00913 0.16386 0.0
C117 C 0.25342 0.0052 0.08711 0.0
H118 H 0.30677 0.01886 0.11921 0.0
C119 C 0.29177 0.01559 0.11032 0.0
C120 C 0.28456 0.01627 0.04469 0.0
C121 C 0.26532 0.01122 0.03322 0.0
C122 C 0.23302 0.99965 0.07527 0.0
H123 H 0.25974 0.01204 0.9824 0.0
C124 C 0.21874 1.00357 0.12393 0.0
C125 C 0.19953 0.99811 0.11316 0.0
C126 C 0.22771 0.99012 0.01559 0.0
H127 H 0.23828 0.98642 0.97779 0.0
C128 C 0.20868 0.98483 0.00448 0.0
H129 H 0.22244 0.01121 0.16966 0.0
C130 C 0.19468 0.98878 0.05274 0.0
H131 H 0.18008 0.98421 0.04327 0.0
H132 H 0.2048 0.97744 0.95846 0.0
H133 H 0.50964 0.25542 0.18383 0.0
C134 C 0.50525 0.26282 0.13836 0.0
C135 C 0.49685 0.28102 0.14387 0.0
C136 C 0.50901 0.25475 0.07454 0.0
H137 H 0.48656 0.30573 0.09031 0.0
C138 C 0.49205 0.2912 0.08557 0.0
C139 C 0.49647 0.28399 0.02163 0.0
C140 C 0.50479 0.26564 0.01616 0.0
C141 C 0.51901 0.23586 0.06982 0.0
H142 H 0.50828 0.2601 0.96663 0.0
C143 C 0.51482 0.22089 0.11572 0.0
C144 C 0.52564 0.20383 0.11557 0.0
C145 C 0.53372 0.2331 0.0222 0.0
H146 H 0.53759 0.24435 0.987 0.0
C147 C 0.5442 0.21601 0.02115 0.0
H148 H 0.5035 0.22265 0.15267 0.0
C149 C 0.54034 0.20154 0.06792 0.0
H150 H 0.54882 0.18851 0.06691 0.0
H151 H 0.55559 0.21413 0.98467 0.0
Zn152 Zn 0.9993 0.0291 0.57047 0.0
Zn153 Zn 0.01203 0.99088 0.64432 0.0
C154 C 0.99536 0.05791 0.66533 0.0
O155 O 0.97826 0.05618 0.63831 0.0
C156 C 0.01678 0.96179 0.55367 0.0
O157 O 0.0334 0.96395 0.58377 0.0
O158 O 0.9932 0.05018 0.50396 0.0
O159 O 0.02116 0.01448 0.5265 0.0
O160 O 0.03627 0.00486 0.61746 0.0
C161 C 0.00813 0.06027 0.49322 0.0
O162 O 0.02446 0.05459 0.51936 0.0
O163 O 0.00815 0.04566 0.6492 0.0
C164 C 0.00284 0.95903 0.71686 0.0
O165 O 0.98662 0.96519 0.6912 0.0
O166 O 0.01773 0.96947 0.71021 0.0
O167 O 0.99049 0.00564 0.68882 0.0
O168 O 0.97505 0.01498 0.59835 0.0
O169 O 0.00372 0.97422 0.56463 0.0
C170 C 0.0367 0.01016 0.55618 0.0
C171 C 0.97481 0.00956 0.65951 0.0
Zn172 Zn 0.48454 1.00226 0.57378 0.0
Zn173 Zn 0.52631 0.01419 0.62992 0.0
C174 C 0.45757 0.99756 0.6749 0.0
O175 O 0.45943 0.98026 0.64907 0.0
C176 C 0.54889 0.01709 0.5159 0.0
O177 O 0.54812 0.03471 0.53951 0.0
O178 O 0.46274 0.99423 0.51342 0.0
O179 O 0.49646 0.02537 0.52637 0.0
O180 O 0.51226 0.03876 0.61017 0.0
C181 C 0.45104 0.00801 0.50445 0.0
O182 O 0.45565 0.02516 0.52705 0.0
O183 O 0.46914 0.01064 0.65564 0.0
C184 C 0.56161 0.00588 0.68237 0.0
O185 O 0.55543 0.98938 0.65847 0.0
O186 O 0.55037 0.02027 0.6816 0.0
O187 O 0.51316 0.9936 0.68427 0.0
O188 O 0.50004 0.97849 0.59889 0.0
O189 O 0.53836 0.00428 0.5432 0.0
C190 C 0.50383 0.04017 0.55371 0.0
C191 C 0.5074 0.97808 0.65744 0.0
Zn192 Zn 0.50999 0.48794 0.56743 0.0
Zn193 Zn 0.4957 0.5282 0.62829 0.0
C194 C 0.51503 0.46153 0.66867 0.0
O195 O 0.53211 0.46405 0.64204 0.0
C196 C 0.49056 0.55256 0.51828 0.0
O197 O 0.47309 0.55033 0.5419 0.0
O198 O 0.51649 0.46595 0.50501 0.0
O199 O 0.4883 0.50131 0.51885 0.0
O200 O 0.47259 0.51177 0.60717 0.0
C201 C 0.50147 0.45584 0.49615 0.0
O202 O 0.48527 0.4617 0.52297 0.0
O203 O 0.50146 0.47244 0.64923 0.0
C204 C 0.49861 0.56482 0.6823 0.0
O205 O 0.51506 0.56281 0.65085 0.0
O206 O 0.48706 0.55066 0.68512 0.0
O207 O 0.51831 0.51688 0.67773 0.0
O208 O 0.53363 0.50317 0.59324 0.0
O209 O 0.5039 0.54222 0.54281 0.0
C210 C 0.47251 0.50536 0.54728 0.0
C211 C 0.53383 0.51097 0.65123 0.0
Zn212 Zn 0.03117 0.51324 0.58285 0.0
Zn213 Zn 0.98148 0.50399 0.61061 0.0
C214 C 0.0526 0.508 0.7029 0.0
O215 O 0.04996 0.52668 0.70564 0.0
C216 C 0.96065 0.49552 0.49502 0.0
O217 O 0.96269 0.47854 0.52312 0.0
O218 O 0.0544 0.52149 0.5304 0.0
O219 O 0.01648 0.49487 0.52227 0.0
O220 O 0.99928 0.48114 0.60169 0.0
C221 C 0.06542 0.50756 0.51571 0.0
O222 O 0.05964 0.48995 0.52871 0.0
O223 O 0.04396 0.49835 0.65779 0.0
C224 C 0.94475 0.50923 0.65538 0.0
O225 O 0.94926 0.52543 0.62516 0.0
O226 O 0.95757 0.49634 0.66141 0.0
O227 O 0.99012 0.52861 0.6547 0.0
O228 O 0.01922 0.53726 0.62192 0.0
O229 O 0.96991 0.50966 0.51942 0.0
C230 C 0.0084 0.47998 0.54633 0.0
C231 C 0.00375 0.54073 0.65349 0.0
C232 C 0.1879 0.9978 0.23336 0.0
C233 C 0.18453 1.00183 0.16495 0.0
C234 C 0.17331 1.00014 0.28126 0.0
C235 C 0.12674 0.02433 0.30992 0.0
H236 H 0.11739 0.98302 0.43709 0.0
C237 C 0.05505 0.01687 0.4503 0.0
C238 C 0.05495 0.01044 0.5175 0.0
C239 C 0.07195 0.01695 0.41259 0.0
C240 C 0.11997 0.99484 0.40275 0.0
H241 H 0.1634 0.01212 0.09364 0.0
H242 H 0.13799 0.01615 0.17689 0.0
H243 H 0.14509 0.98144 0.36188 0.0
H244 H 0.07271 0.99917 0.59783 0.0
H245 H 0.10239 0.99946 0.53187 0.0
H246 H 0.1016 0.03768 0.35011 0.0
C247 C 0.15189 0.0112 0.19368 0.0
C248 C 0.13585 0.99393 0.35956 0.0
C249 C 0.1664 0.00872 0.14583 0.0
C250 C 0.07227 0.0042 0.54621 0.0
C251 C 0.08926 0.00427 0.50827 0.0
C252 C 0.11094 0.02529 0.35319 0.0
C253 C 0.15509 0.00676 0.26188 0.0
C254 C 0.13922 0.0085 0.3118 0.0
C255 C 0.0893 0.01064 0.44091 0.0
C256 C 0.10712 0.01038 0.39929 0.0
H257 H 0.20168 0.99234 0.2496 0.0
H258 H 0.17628 0.99673 0.33346 0.0
H259 H 0.12912 0.03597 0.27461 0.0
H260 H 0.042 0.02178 0.42637 0.0
H261 H 0.07132 0.02163 0.36059 0.0
C262 C 0.50432 0.17948 0.17144 0.0
C263 C 0.52219 0.18863 0.16647 0.0
C264 C 0.50161 0.16427 0.21682 0.0
C265 C 0.52962 0.12913 0.32043 0.0
H266 H 0.47997 0.11865 0.40064 0.0
C267 C 0.51823 0.07263 0.53082 0.0
C268 C 0.50435 0.05858 0.51601 0.0
C269 C 0.51975 0.08925 0.49138 0.0
C270 C 0.4939 0.12144 0.37846 0.0
H271 H 0.55097 0.1898 0.20658 0.0
H272 H 0.54609 0.16409 0.28812 0.0
H273 H 0.48397 0.14657 0.32723 0.0
H274 H 0.48069 0.05135 0.44988 0.0
H275 H 0.48302 0.08071 0.38235 0.0
H276 H 0.53957 0.10426 0.37362 0.0
C277 C 0.53431 0.1679 0.25533 0.0
C278 C 0.49621 0.13736 0.33593 0.0
C279 C 0.53711 0.18278 0.20903 0.0
C280 C 0.49157 0.06187 0.46247 0.0
C281 C 0.49284 0.07868 0.42397 0.0
C282 C 0.52738 0.11348 0.36396 0.0
C283 C 0.51662 0.15814 0.25919 0.0
C284 C 0.5141 0.14141 0.30592 0.0
C285 C 0.50715 0.09237 0.43732 0.0
C286 C 0.5095 0.10941 0.39309 0.0
H287 H 0.49264 0.18371 0.13877 0.0
H288 H 0.48787 0.15704 0.21724 0.0
H289 H 0.5435 0.13132 0.29726 0.0
H290 H 0.5283 0.07054 0.57162 0.0
H291 H 0.53085 0.09964 0.50289 0.0
C292 C 0.32379 0.51378 0.21322 0.0
C293 C 0.32714 0.50799 0.1463 0.0
C294 C 0.33827 0.51236 0.26166 0.0
C295 C 0.38407 0.48778 0.29796 0.0
H296 H 0.39358 0.53118 0.41598 0.0
C297 C 0.4548 0.49643 0.44248 0.0
C298 C 0.4545 0.50418 0.50792 0.0
C299 C 0.43819 0.49584 0.40353 0.0
C300 C 0.39093 0.5188 0.38424 0.0
H301 H 0.34819 0.49579 0.07824 0.0
H302 H 0.37349 0.49345 0.16251 0.0
H303 H 0.36653 0.53204 0.33822 0.0
H304 H 0.43632 0.51715 0.58406 0.0
H305 H 0.40713 0.51596 0.51593 0.0
H306 H 0.40851 0.47458 0.34338 0.0
C307 C 0.35964 0.499 0.17767 0.0
C308 C 0.37544 0.51931 0.33957 0.0
C309 C 0.34521 0.50052 0.12919 0.0
C310 C 0.43705 0.5111 0.53384 0.0
C311 C 0.42036 0.51053 0.49464 0.0
C312 C 0.3995 0.48724 0.34271 0.0
C313 C 0.35638 0.505 0.24439 0.0
C314 C 0.37201 0.50393 0.29516 0.0
C315 C 0.42076 0.50295 0.42887 0.0
C316 C 0.40333 0.50287 0.38562 0.0
H317 H 0.31007 0.51975 0.22789 0.0
H318 H 0.33526 0.51697 0.31273 0.0
H319 H 0.3816 0.47554 0.26533 0.0
H320 H 0.46797 0.49096 0.4208 0.0
H321 H 0.43914 0.49019 0.35278 0.0
C322 C 0.01132 0.33367 0.19058 0.0
C323 C 0.99367 0.33104 0.15765 0.0
C324 C 0.01369 0.3485 0.23775 0.0
C325 C 0.01801 0.38823 0.30172 0.0
H326 H 0.97596 0.40271 0.41908 0.0
C327 C 0.01627 0.46109 0.44199 0.0
C328 C 0.00802 0.46185 0.50666 0.0
C329 C 0.0154 0.44424 0.40357 0.0
C330 C 0.98796 0.39877 0.38735 0.0
H331 H 0.96449 0.34158 0.15067 0.0
H332 H 0.96873 0.36756 0.23097 0.0
H333 H 0.97291 0.37452 0.34739 0.0
H334 H 0.99274 0.44523 0.58211 0.0
H335 H 0.99152 0.41578 0.51566 0.0
H336 H 0.03319 0.41232 0.34257 0.0
C337 C 0.98074 0.35812 0.22109 0.0
C338 C 0.98611 0.3827 0.34545 0.0
C339 C 0.97838 0.34334 0.17417 0.0
C340 C 0.99915 0.44522 0.53237 0.0
C341 C 0.99835 0.42833 0.49402 0.0
C342 C 0.01989 0.40428 0.34383 0.0
C343 C 0.99845 0.36101 0.25329 0.0
C344 C 1.001 0.37735 0.30136 0.0
C345 C 0.00635 0.42764 0.42886 0.0
C346 C 0.0048 0.40992 0.38666 0.0
H347 H 0.02344 0.32455 0.17886 0.0
H348 H 0.02748 0.35014 0.26208 0.0
H349 H 0.02974 0.38468 0.26815 0.0
H350 H 0.02319 0.47362 0.42047 0.0
H351 H 0.02147 0.4444 0.35332 0.0
C352 C 0.84244 0.98306 0.05246 0.0
C353 C 0.82355 0.98367 0.02792 0.0
C354 C 0.85797 0.98679 0.00987 0.0
C355 C 0.87231 0.00891 0.84803 0.0
H356 H 0.91547 0.97416 0.86393 0.0
C357 C 0.93865 0.01075 0.66752 0.0
C358 C 0.9566 0.00785 0.69802 0.0
C359 C 0.92167 0.0083 0.7047 0.0
C360 C 0.90365 0.98415 0.85921 0.0
H361 H 0.80626 0.98921 0.93929 0.0
H362 H 0.83346 0.9959 0.86497 0.0
H363 H 0.88746 0.96951 0.93506 0.0
H364 H 0.9707 1.00057 0.79212 0.0
H365 H 0.94142 0.99664 0.85636 0.0
H366 H 0.88873 0.02366 0.77236 0.0
C367 C 0.83618 0.99258 0.91741 0.0
C368 C 0.88756 0.98146 0.90008 0.0
C369 C 0.82059 0.98878 0.96008 0.0
C370 C 0.95717 1.0028 0.76661 0.0
C371 C 0.94031 1.00039 0.80353 0.0
C372 C 0.88851 0.01166 0.80713 0.0
C373 C 0.85507 0.99128 0.94156 0.0
C374 C 0.87179 0.99394 0.89572 0.0
C375 C 0.92232 1.00286 0.77304 0.0
C376 C 0.9045 0.99946 0.81296 0.0
H377 H 0.84525 0.97959 0.10472 0.0
H378 H 0.87231 0.98608 0.03049 0.0
H379 H 0.86042 0.01881 0.8436 0.0
H380 H 0.9377 0.01466 0.6148 0.0
H381 H 0.90805 0.01023 0.67956 0.0
C382 C 0.52578 0.8223 0.95203 0.0
C383 C 0.5328 0.82489 0.01788 0.0
C384 C 0.52204 0.83817 0.91053 0.0
C385 C 0.53633 0.88879 0.8886 0.0
H386 H 0.49103 0.8931 0.77675 0.0
C387 C 0.51673 0.96003 0.76131 0.0
C388 C 0.50935 0.95977 0.69543 0.0
C389 C 0.51906 0.94301 0.7976 0.0
C390 C 0.50388 0.892 0.80698 0.0
H391 H 0.54037 0.84633 0.09269 0.0
H392 H 0.53404 0.87386 0.0204 0.0
H393 H 0.49573 0.86439 0.84617 0.0
H394 H 0.49839 0.94128 0.6164 0.0
H395 H 0.50272 0.91137 0.67977 0.0
H396 H 0.54465 0.91618 0.84958 0.0
C397 C 0.53176 0.85956 0.00034 0.0
C398 C 0.50655 0.87556 0.84686 0.0
C399 C 0.53541 0.84375 0.0418 0.0
C400 C 0.50413 0.94199 0.66701 0.0
C401 C 0.50653 0.92486 0.70347 0.0
C402 C 0.53373 0.9051 0.84866 0.0
C403 C 0.52533 0.85698 0.93386 0.0
C404 C 0.52268 0.87392 0.88892 0.0
C405 C 0.51419 0.92517 0.76909 0.0
C406 C 0.51734 0.9071 0.8081 0.0
H407 H 0.52377 0.80799 0.9317 0.0
H408 H 0.51719 0.8357 0.85945 0.0
H409 H 0.54914 0.88779 0.91917 0.0
H410 H 0.52079 0.97343 0.78519 0.0
H411 H 0.52459 0.9439 0.84846 0.0
C412 C 0.66719 0.53459 0.04127 0.0
C413 C 0.68594 0.53214 0.01658 0.0
C414 C 0.65138 0.53148 -0.00037 0.0
C415 C 0.63517 0.50774 0.84376 0.0
H416 H 0.59533 0.54652 0.84934 0.0
C417 C 0.56969 0.50742 0.66187 0.0
C418 C 0.55194 0.51273 0.68992 0.0
C419 C 0.58663 0.50943 0.69918 0.0
C420 C 0.60618 0.53541 0.84764 0.0
H421 H 0.70264 0.52403 0.92873 0.0
H422 H 0.67492 0.51831 0.85629 0.0
H423 H 0.62353 0.55006 0.92009 0.0
H424 H 0.53811 0.52393 0.77981 0.0
H425 H 0.56734 0.52703 0.84464 0.0
H426 H 0.61762 0.49294 0.77186 0.0
C427 C 0.67254 0.52262 0.90808 0.0
C428 C 0.62237 0.53748 0.88821 0.0
C429 C 0.68842 0.52586 0.94969 0.0
C430 C 0.55151 0.51985 0.75622 0.0
C431 C 0.56835 0.52175 0.79341 0.0
C432 C 0.61885 0.5056 0.80334 0.0
C433 C 0.65386 0.52572 0.9323 0.0
C434 C 0.63697 0.52359 0.88732 0.0
C435 C 0.58616 0.51674 0.76533 0.0
C436 C 0.60405 0.51932 0.80537 0.0
H437 H 0.66471 0.53901 0.09288 0.0
H438 H 0.63714 0.53362 0.02018 0.0
H439 H 0.64615 0.49676 0.84221 0.0
H440 H 0.57053 0.50188 0.61096 0.0
H441 H 0.60012 0.50556 0.67578 0.0
C442 C 0.96622 0.67889 0.01238 0.0
C443 C 0.98154 0.69035 0.03506 0.0
C444 C 0.96942 0.66341 0.96903 0.0
C445 C 0.00335 0.64284 0.84627 0.0
H446 H 0.97705 0.59523 0.88909 0.0
C447 C 0.01749 0.57114 0.70297 0.0
C448 C 1.00168 0.55896 0.6919 0.0
C449 C 0.01565 0.58765 0.74297 0.0
C450 C 0.98431 0.60845 0.87569 0.0
H451 H 0.01227 0.69468 0.02804 0.0
H452 H 0.01782 0.66768 0.95128 0.0
H453 H 0.97283 0.6231 0.96147 0.0
H454 H 0.97136 0.55507 0.71251 0.0
H455 H 0.96809 0.5839 0.78057 0.0
H456 H 0.01466 0.62818 0.75987 0.0
C457 C 0.00331 0.67077 0.96741 0.0
C458 C 0.98193 0.62445 0.91742 0.0
C459 C 1.00012 0.68626 0.01132 0.0
C460 C 0.9839 0.56398 0.72035 0.0
C461 C 0.98205 0.5805 0.75991 0.0
C462 C 0.00566 0.62682 0.80412 0.0
C463 C 0.98801 0.659 0.94662 0.0
C464 C 0.99127 0.64188 0.90298 0.0
C465 C 0.99795 0.59242 0.77266 0.0
C466 C 0.99602 0.60945 0.81798 0.0
H467 H 0.95165 0.68188 0.02808 0.0
H468 H 0.95726 0.65489 0.95282 0.0
H469 H 0.01064 0.65611 0.83353 0.0
H470 H 0.03142 0.56769 0.68205 0.0
H471 H 0.02824 0.59638 0.75207 0.0
C472 C 0.02635 0.21876 0.24138 0.0
C473 C 0.00949 0.22577 0.21213 0.0
C474 C 0.0256 0.20335 0.28626 0.0
C475 C 0.99385 0.16967 0.38005 0.0
H476 H 0.02984 0.1319 0.3118 0.0
C477 C 0.98959 0.08814 0.44551 0.0
C478 C 0.00719 0.07925 0.46002 0.0
C479 C 0.98917 0.10692 0.41987 0.0
C480 C 0.01985 0.1423 0.33217 0.0
H481 H 0.97857 0.2236 0.21075 0.0
H482 H 0.97717 0.19651 0.28915 0.0
H483 H 0.03095 0.16453 0.26927 0.0
H484 H 0.03809 0.08298 0.45832 0.0
H485 H 0.03733 0.11544 0.41455 0.0
H486 H 0.98268 0.14711 0.4427 0.0
C487 C 0.99095 0.20299 0.27827 0.0
C488 C 0.02055 0.16107 0.30804 0.0
C489 C 0.99172 0.21855 0.23368 0.0
C490 C 0.02428 0.08934 0.44743 0.0
C491 C 0.02385 0.10798 0.42204 0.0
C492 C 0.9932 0.15078 0.4046 0.0
C493 C 0.00797 0.19453 0.30167 0.0
C494 C 0.00765 0.17501 0.33184 0.0
C495 C 0.00633 0.11704 0.40811 0.0
C496 C 0.00627 0.13693 0.38101 0.0
H497 H 0.0402 0.22405 0.22487 0.0
H498 H 0.03892 0.19737 0.30473 0.0
H499 H 0.98367 0.1801 0.39902 0.0
H500 H 0.97618 0.08076 0.45516 0.0
H501 H 0.97544 0.11347 0.40899 0.0
C502 C 0.29325 0.98739 0.25237 0.0
C503 C 0.2897 0.00615 0.22963 0.0
C504 C 0.30703 0.98412 0.30216 0.0
C505 C 0.3396 0.00814 0.42427 0.0
H506 H 0.37814 0.97412 0.34914 0.0
C507 C 0.41922 0.02036 0.46855 0.0
C508 C 0.43146 0.00463 0.4788 0.0
C509 C 0.40012 0.01752 0.45089 0.0
C510 C 0.36742 0.98334 0.37183 0.0
H511 H 0.29625 0.03625 0.24413 0.0
H512 H 0.32001 0.03069 0.3318 0.0
H513 H 0.34591 0.97422 0.30217 0.0
H514 H 0.43333 0.97351 0.47766 0.0
H515 H 0.39975 0.96852 0.44589 0.0
H516 H 0.36137 0.01787 0.49197 0.0
C517 C 0.31227 0.01847 0.31174 0.0
C518 C 0.34891 0.98336 0.34507 0.0
C519 C 0.29869 0.02169 0.26156 0.0
C520 C 0.42426 0.98592 0.46958 0.0
C521 C 0.40505 0.98307 0.45171 0.0
C522 C 0.35808 0.00808 0.45114 0.0
C523 C 0.31727 0.99961 0.33014 0.0
C524 C 0.33505 0.99632 0.36925 0.0
C525 C 0.39273 0.99887 0.44306 0.0
C526 C 0.37239 0.99626 0.42328 0.0
H527 H 0.2866 0.9752 0.22771 0.0
H528 H 0.31052 0.96946 0.3158 0.0
H529 H 0.32913 0.01809 0.44446 0.0
H530 H 0.4243 0.03497 0.47492 0.0
H531 H 0.39116 0.03002 0.44281 0.0
C532 C 0.479 0.30004 0.22922 0.0
C533 C 0.49618 0.29143 0.20851 0.0
C534 C 0.47932 0.31535 0.27459 0.0
C535 C 0.51032 0.34598 0.38356 0.0
H536 H 0.48003 0.38676 0.30374 0.0
C537 C 0.51921 0.427 0.45175 0.0
C538 C 0.50195 0.43696 0.46233 0.0
C539 C 0.51896 0.40829 0.42547 0.0
C540 C 0.48843 0.37551 0.32714 0.0
H541 H 0.52689 0.29059 0.2233 0.0
H542 H 0.52754 0.31752 0.30205 0.0
H543 H 0.47762 0.3544 0.25932 0.0
H544 H 0.471 0.43533 0.45262 0.0
H545 H 0.47061 0.40302 0.40717 0.0
H546 H 0.52131 0.36749 0.45084 0.0
C547 C 0.5138 0.3124 0.28413 0.0
C548 C 0.48694 0.3569 0.30203 0.0
C549 C 0.51344 0.29692 0.23924 0.0
C550 C 0.48456 0.42807 0.44499 0.0
C551 C 0.48432 0.40955 0.41867 0.0
C552 C 0.5118 0.36473 0.40885 0.0
C553 C 0.49686 0.32248 0.299 0.0
C554 C 0.49777 0.34187 0.33005 0.0
C555 C 0.50147 0.3994 0.40887 0.0
C556 C 0.50078 0.37965 0.38097 0.0
H557 H 0.46554 0.29601 0.20596 0.0
H558 H 0.46597 0.32252 0.28657 0.0
H559 H 0.51889 0.33471 0.40603 0.0
H560 H 0.53281 0.43346 0.46519 0.0
H561 H 0.53241 0.40083 0.41786 0.0
C562 C 0.21537 0.49151 0.26333 0.0
C563 C 0.2235 0.50631 0.22479 0.0
C564 C 0.20265 0.49579 0.31543 0.0
C565 C 0.16617 0.53132 0.34673 0.0
H566 H 0.15605 0.49935 0.50284 0.0
C567 C 0.09219 0.52964 0.48057 0.0
C568 C 0.08524 0.51094 0.49209 0.0
C569 C 0.11131 0.53259 0.46164 0.0
C570 C 0.15872 0.50847 0.45955 0.0
H571 H 0.22606 0.53712 0.21291 0.0
H572 H 0.20367 0.54473 0.3045 0.0
H573 H 0.1877 0.49872 0.45018 0.0
H574 H 0.0929 0.4807 0.4928 0.0
H575 H 0.12595 0.48581 0.45916 0.0
H576 H 0.1369 0.54026 0.35376 0.0
C577 C 0.20713 0.52983 0.29445 0.0
C578 C 0.17685 0.50816 0.42965 0.0
C579 C 0.22004 0.52551 0.2426 0.0
C580 C 0.09775 0.4953 0.48425 0.0
C581 C 0.1168 0.49824 0.46577 0.0
C582 C 0.14804 0.53162 0.37664 0.0
C583 C 0.19767 0.51497 0.32932 0.0
C584 C 0.18051 0.51896 0.37121 0.0
C585 C 0.12383 0.51689 0.45448 0.0
C586 C 0.1439 0.51956 0.43155 0.0
H587 H 0.21778 0.4766 0.24988 0.0
H588 H 0.1955 0.48399 0.34075 0.0
H589 H 0.16845 0.53967 0.30133 0.0
H590 H 0.08291 0.542 0.48657 0.0
H591 H 0.11635 0.54713 0.45319 0.0
C592 C 0.02545 0.8034 0.96625 0.0
C593 C 0.00842 0.79324 0.97922 0.0
C594 C 0.02592 0.81771 0.91701 0.0
C595 C 0.99164 0.85245 0.85709 0.0
H596 H 0.03467 0.87312 0.75649 0.0
C597 C 0.98778 0.92709 0.73673 0.0
C598 C 0.00404 0.93897 0.74109 0.0
C599 C 0.9888 0.90773 0.754 0.0
C600 C 0.02259 0.86757 0.7848 0.0
H601 H 0.97937 0.78818 0.94535 0.0
H602 H 0.98027 0.81295 0.85812 0.0
H603 H 0.03586 0.84001 0.79832 0.0
H604 H 0.03421 0.93977 0.76685 0.0
H605 H 0.03584 0.90588 0.79985 0.0
H606 H 0.97868 0.88001 0.84683 0.0
C607 C 0.99313 0.81015 0.88698 0.0
C608 C 0.02321 0.84858 0.80818 0.0
C609 C 0.99267 0.79582 0.93633 0.0
C610 C 0.0214 0.93102 0.76355 0.0
C611 C 0.02238 0.91156 0.78155 0.0
C612 C 0.99107 0.87136 0.8342 0.0
C613 C 0.00933 0.82207 0.88001 0.0
C614 C 0.00781 0.84091 0.84532 0.0
C615 C 0.00604 0.89972 0.77702 0.0
C616 C 0.00661 0.87925 0.79847 0.0
H617 H 0.03782 0.80154 -0.00144 0.0
H618 H 0.03863 0.82658 0.9129 0.0
H619 H 0.97975 0.84722 0.88712 0.0
H620 H 0.97422 0.93263 0.71874 0.0
H621 H 0.97604 0.89899 0.74865 0.0
C622 C 0.71118 0.02846 0.95876 0.0
C623 C 0.72211 0.01168 0.96728 0.0
C624 C 0.69807 0.02985 0.90601 0.0
C625 C 0.66771 0.9959 0.81808 0.0
H626 H 0.64567 0.04178 0.73894 0.0
C627 C 0.59488 0.99308 0.68649 0.0
C628 C 0.58189 0.00784 0.70231 0.0
C629 C 0.61414 0.99467 0.70393 0.0
C630 C 0.65166 0.02886 0.7609 0.0
H631 H 0.72986 0.98438 0.92233 0.0
H632 H 0.70737 0.98706 0.82885 0.0
H633 H 0.67768 0.04318 0.78898 0.0
H634 H 0.579 0.03607 0.74737 0.0
H635 H 0.61271 0.03859 0.78013 0.0
H636 H 0.64157 0.98173 0.79308 0.0
C637 C 0.70851 0.9989 0.86409 0.0
C638 C 0.67001 0.02964 0.78915 0.0
C639 C 0.72157 0.99746 0.91715 0.0
C640 C 0.58866 0.02442 0.73494 0.0
C641 C 0.608 0.02594 0.75301 0.0
C642 C 0.64944 0.99513 0.79004 0.0
C643 C 0.69575 0.01452 0.86064 0.0
C644 C 0.67807 0.01324 0.81935 0.0
C645 C 0.6209 0.01096 0.73827 0.0
C646 C 0.64103 0.01167 0.76233 0.0
H647 H 0.71155 0.03976 0.99633 0.0
H648 H 0.68854 0.04212 0.90488 0.0
H649 H 0.6732 0.98309 0.84232 0.0
H650 H 0.59022 0.98026 0.66018 0.0
H651 H 0.62375 0.98304 0.69068 0.0
C652 C 0.51179 0.71757 0.92908 0.0
C653 C 0.49743 0.72414 0.97273 0.0
C654 C 0.50754 0.7039 0.87989 0.0
C655 C 0.4721 0.66503 0.85498 0.0
H656 H 0.50591 0.65365 0.70541 0.0
C657 C 0.48599 0.58748 0.76906 0.0
C658 C 0.49267 0.58408 0.70365 0.0
C659 C 0.48253 0.60631 0.79061 0.0
C660 C 0.49594 0.65661 0.74593 0.0
H661 H 0.46714 0.72327 0.99564 0.0
H662 H 0.45932 0.70032 0.90666 0.0
H663 H 0.50635 0.68536 0.75498 0.0
H664 H 0.4996 0.59708 0.60753 0.0
H665 H 0.49236 0.62973 0.64318 0.0
H666 H 0.4612 0.6365 0.84443 0.0
C667 C 0.47404 0.70499 0.91196 0.0
C668 C 0.49646 0.67484 0.77528 0.0
C669 C 0.47841 0.71836 0.96222 0.0
C670 C 0.49473 0.5995 0.65873 0.0
C671 C 0.49072 0.61822 0.67947 0.0
C672 C 0.47123 0.64695 0.82454 0.0
C673 C 0.48873 0.69674 0.87273 0.0
C674 C 0.48517 0.67904 0.83214 0.0
C675 C 0.48518 0.62201 0.7464 0.0
C676 C 0.48372 0.64219 0.77143 0.0
H677 H 0.52661 0.72165 0.93708 0.0
H678 H 0.51935 0.69787 0.85156 0.0
H679 H 0.4632 0.66751 0.89885 0.0
H680 H 0.48438 0.57571 0.8044 0.0
H681 H 0.47859 0.60852 0.8428 0.0
C682 C 0.79718 0.48155 0.94688 0.0
C683 C 0.78598 0.49819 0.95489 0.0
C684 C 0.81035 0.48019 0.89408 0.0
C685 C 0.83947 0.51454 0.80023 0.0
H686 H 0.86332 0.46865 0.72767 0.0
C687 C 0.91049 0.51909 0.65751 0.0
C688 C 0.92472 0.5059 0.67667 0.0
C689 C 0.89153 0.51649 0.67751 0.0
C690 C 0.8568 0.48156 0.74774 0.0
H691 H 0.77772 0.52511 0.90821 0.0
H692 H 0.79999 0.52231 0.81423 0.0
H693 H 0.83165 0.46646 0.78048 0.0
H694 H 0.93009 0.47924 0.7299 0.0
H695 H 0.8968 0.47491 0.76657 0.0
H696 H 0.86469 0.52956 0.76964 0.0
C697 C 0.79922 0.51068 0.85042 0.0
C698 C 0.83865 0.48034 0.77772 0.0
C699 C 0.78623 0.51216 0.9038 0.0
C700 C 0.91945 0.48971 0.71482 0.0
C701 C 0.90038 0.48715 0.73523 0.0
C702 C 0.85748 0.51576 0.77016 0.0
C703 C 0.81235 0.49535 0.84772 0.0
C704 C 0.82993 0.49678 0.8055 0.0
C705 C 0.88629 0.50069 0.71757 0.0
C706 C 0.8665 0.49926 0.74461 0.0
H707 H 0.79699 0.47036 0.98484 0.0
H708 H 0.8201 0.4681 0.89356 0.0
H709 H 0.83354 0.52743 0.82257 0.0
H710 H 0.91396 0.53154 0.62704 0.0
H711 H 0.88095 0.52699 0.66207 0.0
C712 C 0.00359 0.21556 0.92377 0.0
C713 C 0.01863 0.21938 0.96869 0.0
C714 C 0.00421 0.19935 0.88198 0.0
C715 C 0.02659 0.15106 0.87901 0.0
H716 H 0.99944 0.14679 0.7095 0.0
C717 C 0.01882 0.0795 0.72609 0.0
C718 C 1.00011 0.07567 0.70329 0.0
C719 C 0.02332 0.09736 0.75509 0.0
C720 C 0.00707 0.14777 0.75687 0.0
H721 H 0.0468 0.21029 0.00113 0.0
H722 H 0.0483 0.18247 0.92631 0.0
H723 H 0.0042 0.17838 0.76015 0.0
H724 H 0.9714 0.08749 0.69502 0.0
H725 H 0.97929 0.11835 0.7449 0.0
H726 H 0.02933 0.12035 0.87548 0.0
C727 C 0.03571 0.19155 0.92475 0.0
C728 C 0.00977 0.16588 0.78603 0.0
C729 C 0.03499 0.20763 0.96697 0.0
C730 C 0.98598 0.08989 0.71172 0.0
C731 C 0.99052 0.1077 0.73982 0.0
C732 C 0.02405 0.13296 0.84942 0.0
C733 C 0.01998 0.1867 0.88381 0.0
C734 C 0.01918 0.16776 0.84832 0.0
C735 C 0.00927 0.11177 0.76095 0.0
C736 C 0.01386 0.13108 0.78886 0.0
H737 H 0.99069 0.22421 0.92481 0.0
H738 H 0.99174 0.19609 0.85169 0.0
H739 H 0.03364 0.15181 0.92747 0.0
H740 H 0.03005 0.0689 0.7201 0.0
H741 H 0.0379 0.1001 0.77111 0.0
C742 C 0.30126 0.006 0.93932 0.0
C743 C 0.29817 0.02007 0.98877 0.0
C744 C 0.31737 0.00698 0.8973 0.0
C745 C 0.36636 0.02771 0.89865 0.0
H746 H 0.36917 0.00409 0.72207 0.0
C747 C 0.43681 0.0208 0.73995 0.0
C748 C 0.44005 1.00225 0.71409 0.0
C749 C 0.41923 0.02537 0.77046 0.0
C750 C 0.36858 0.01075 0.77138 0.0
H751 H 0.3085 0.04701 0.02955 0.0
H752 H 0.33614 0.04925 0.95435 0.0
H753 H 0.33799 0.0089 0.77525 0.0
H754 H 0.42744 0.97391 0.70132 0.0
H755 H 0.397 0.98196 0.75362 0.0
H756 H 0.39705 0.02948 0.89433 0.0
C757 C 0.32658 0.03707 0.94933 0.0
C758 C 0.35072 0.01345 0.80202 0.0
C759 C 0.31061 0.03594 0.99184 0.0
C760 C 0.42551 0.98834 0.72064 0.0
C761 C 0.40795 0.99298 0.75008 0.0
C762 C 0.38421 0.02521 0.86756 0.0
C763 C 0.33064 0.02219 0.90341 0.0
C764 C 0.34937 0.02155 0.86683 0.0
C765 C 0.4045 0.01157 0.77458 0.0
C766 C 0.38553 0.01627 0.80436 0.0
H767 H 0.29204 0.99347 0.93658 0.0
H768 H 0.32001 0.99514 0.86316 0.0
H769 H 0.36603 0.03371 0.94897 0.0
H770 H 0.44768 0.03185 0.73546 0.0
H771 H 0.41694 0.03982 0.78912 0.0
C772 C 0.51221 0.30232 0.92872 0.0
C773 C 0.49538 0.29745 0.96372 0.0
C774 C 0.51297 0.31907 0.88972 0.0
C775 C 0.48511 0.35811 0.81016 0.0
H776 H 0.52769 0.38995 0.86769 0.0
C777 C 0.4928 0.43801 0.72654 0.0
C778 C 0.51146 0.44413 0.7102 0.0
C779 C 0.4898 0.42016 0.75797 0.0
C780 C 0.51585 0.38123 0.85011 0.0
H781 H 0.46571 0.30522 0.98048 0.0
H782 H 0.46691 0.33425 0.91093 0.0
H783 H 0.52457 0.35745 0.91105 0.0
H784 H 0.54157 0.43649 0.71581 0.0
H785 H 0.53638 0.40562 0.76851 0.0
H786 H 0.47657 0.38184 0.74813 0.0
C787 C 0.47954 0.32526 0.91409 0.0
C788 C 0.51409 0.36254 0.87503 0.0
C789 C 0.47883 0.30862 0.95372 0.0
C790 C 0.52699 0.43232 0.7278 0.0
C791 C 0.524 0.41455 0.75858 0.0
C792 C 0.48701 0.3768 0.78434 0.0
C793 C 0.49687 0.33113 0.88438 0.0
C794 C 0.49879 0.35072 0.8551 0.0
C795 C 0.50538 0.40807 0.77357 0.0
C796 C 0.50251 0.38858 0.80367 0.0
H797 H 0.52522 0.29412 0.9361 0.0
H798 H 0.52646 0.32313 0.86659 0.0
H799 H 0.47312 0.34933 0.79416 0.0
H800 H 0.48052 0.44673 0.71337 0.0
H801 H 0.47526 0.41578 0.76958 0.0
C802 C 0.20942 0.49498 0.9342 0.0
C803 C 0.21243 0.48399 0.99262 0.0
C804 C 0.19284 0.4923 0.8956 0.0
C805 C 0.14329 0.47853 0.92577 0.0
H806 H 0.13736 0.48445 0.73267 0.0
C807 C 0.07528 0.50836 0.7999 0.0
C808 C 0.06867 0.49944 0.74089 0.0
C809 C 0.09239 0.50246 0.82988 0.0
C810 C 0.13881 0.48253 0.78659 0.0
H811 H 0.20162 0.46026 0.05238 0.0
H812 H 0.17278 0.45551 0.98491 0.0
H813 H 0.16948 0.48063 0.78071 0.0
H814 H 0.07455 0.47703 0.66774 0.0
H815 H 0.10468 0.46688 0.71988 0.0
H816 H 0.11275 0.48116 0.93206 0.0
C817 C 0.18298 0.46643 0.96963 0.0
C818 C 0.15717 0.48048 0.81405 0.0
C819 C 0.19952 0.46908 0.00799 0.0
C820 C 0.07917 0.48402 0.71371 0.0
C821 C 0.0965 0.47834 0.74306 0.0
C822 C 0.125 0.48081 0.89846 0.0
C823 C 0.17902 0.4786 0.91491 0.0
C824 C 0.15962 0.47869 0.88406 0.0
C825 C 0.10342 0.48773 0.80081 0.0
C826 C 0.12258 0.48313 0.82875 0.0
H827 H 0.21906 0.50666 0.92148 0.0
H828 H 0.19016 0.50193 0.85378 0.0
H829 H 0.14468 0.47745 0.97999 0.0
H830 H 0.06754 0.52035 0.82168 0.0
H831 H 0.09744 0.51005 0.8741 0.0
C832 C 0.98938 0.8064 0.26539 0.0
C833 C 0.00541 0.80232 0.22487 0.0
C834 C 0.98957 0.82218 0.30938 0.0
C835 C 0.02218 0.85816 0.38908 0.0
H836 H 0.97698 0.89055 0.39124 0.0
C837 C 0.02092 0.92647 0.54898 0.0
C838 C 0.01254 0.94307 0.52171 0.0
C839 C 0.01825 0.9086 0.51878 0.0
C840 C 0.98976 0.88174 0.39081 0.0
H841 H 0.03456 0.81078 0.20167 0.0
H842 H 0.03492 0.83821 0.27736 0.0
H843 H 0.97638 0.86006 0.33015 0.0
H844 H 0.99408 0.95395 0.44305 0.0
H845 H 0.98998 0.92259 0.38768 0.0
H846 H 0.03594 0.88006 0.44646 0.0
C847 C 0.02219 0.82931 0.27596 0.0
C848 C 0.98933 0.86409 0.35664 0.0
C849 C 0.02199 0.81359 0.23226 0.0
C850 C 1.00079 0.94135 0.4647 0.0
C851 C 0.99839 0.92337 0.4334 0.0
C852 C 0.02266 0.87578 0.42264 0.0
C853 C 0.00583 0.83414 0.31387 0.0
C854 C 0.00561 0.85215 0.35483 0.0
C855 C 0.00743 0.90681 0.45943 0.0
C856 C 0.0065 0.88788 0.42394 0.0
H857 H 0.97634 0.79806 0.2603 0.0
H858 H 0.97683 0.82529 0.33863 0.0
H859 H 0.03493 0.8493 0.38955 0.0
H860 H 0.02962 0.92726 0.59409 0.0
H861 H 0.02487 0.89617 0.54186 0.0
C862 C 0.70032 0.01993 0.2231 0.0
C863 C 0.71028 1.00281 0.20976 0.0
C864 C 0.68332 0.01964 0.26021 0.0
C865 C 0.65184 0.99188 0.37315 0.0
H866 H 0.61172 0.01916 0.27775 0.0
C867 C 0.57301 0.99369 0.46946 0.0
C868 C 0.56464 0.01207 0.46913 0.0
C869 C 0.59028 0.99035 0.43501 0.0
C870 C 0.62274 0.01158 0.30538 0.0
H871 H 0.71113 0.9722 0.22929 0.0
H872 H 0.68137 0.97172 0.29558 0.0
H873 H 0.64398 0.01837 0.23136 0.0
H874 H 0.56727 0.04104 0.43007 0.0
H875 H 0.59706 0.03531 0.37032 0.0
H876 H 0.63057 0.98552 0.4482 0.0
C877 C 0.68674 0.98534 0.27693 0.0
C878 C 0.64126 0.01116 0.27882 0.0
C879 C 0.70382 0.98562 0.23944 0.0
C880 C 0.57332 0.0267 0.43105 0.0
C881 C 0.59042 0.02337 0.39654 0.0
C882 C 0.63324 0.99244 0.40021 0.0
C883 C 0.67589 1.00222 0.28494 0.0
C884 C 0.65611 1.00165 0.31295 0.0
C885 C 0.59937 0.00529 0.39915 0.0
C886 C 0.61855 1.00263 0.3672 0.0
H887 H 0.70504 0.03337 0.20099 0.0
H888 H 0.6755 0.03295 0.26687 0.0
H889 H 0.663 0.98438 0.40038 0.0
H890 H 0.56677 0.98218 0.49907 0.0
H891 H 0.5967 0.9762 0.43749 0.0
C892 C 0.4913 0.70599 0.23366 0.0
C893 C 0.50866 0.71463 0.21438 0.0
C894 C 0.49117 0.69003 0.27632 0.0
C895 C 0.52158 0.64902 0.32115 0.0
H896 H 0.48054 0.63835 0.44772 0.0
C897 C 0.51371 0.57696 0.47114 0.0
C898 C 0.49491 0.56978 0.47693 0.0
C899 C 0.51708 0.5951 0.44247 0.0
C900 C 0.49204 0.64106 0.4122 0.0
H901 H 0.53946 0.71398 0.22733 0.0
H902 H 0.53928 0.68609 0.30288 0.0
H903 H 0.48349 0.67035 0.39875 0.0
H904 H 0.46511 0.57554 0.45356 0.0
H905 H 0.47101 0.60681 0.40303 0.0
H906 H 0.52988 0.61955 0.33391 0.0
C907 C 0.52576 0.6916 0.28444 0.0
C908 C 0.49376 0.65943 0.3843 0.0
C909 C 0.52585 0.70771 0.242 0.0
C910 C 0.47975 0.58067 0.45038 0.0
C911 C 0.4831 0.59871 0.42199 0.0
C912 C 0.51987 0.63061 0.34924 0.0
C913 C 0.50844 0.68223 0.30048 0.0
C914 C 0.50827 0.66354 0.33722 0.0
C915 C 0.50172 0.60639 0.41928 0.0
C916 C 0.50478 0.6263 0.39378 0.0
H917 H 0.47785 0.71099 0.21279 0.0
H918 H 0.47758 0.68312 0.28705 0.0
H919 H 0.53281 0.65162 0.28451 0.0
H920 H 0.5257 0.569 0.49157 0.0
H921 H 0.5316 0.60061 0.44103 0.0
C922 C 0.80657 0.48925 0.21269 0.0
C923 C 0.7976 0.50676 0.19738 0.0
C924 C 0.82353 0.48895 0.2498 0.0
C925 C 0.85675 0.51726 0.35605 0.0
H926 H 0.8951 0.48545 0.26883 0.0
C927 C 0.93618 0.51704 0.44131 0.0
C928 C 0.94436 0.49869 0.44872 0.0
C929 C 0.9186 0.51926 0.40822 0.0
C930 C 0.88456 0.49429 0.29418 0.0
H931 H 0.79846 0.53755 0.21301 0.0
H932 H 0.82818 0.53706 0.2786 0.0
H933 H 0.86268 0.48635 0.22432 0.0
H934 H 0.94105 0.4685 0.42434 0.0
H935 H 0.91061 0.47235 0.3667 0.0
H936 H 0.87872 0.52504 0.4264 0.0
C937 C 0.82206 0.52356 0.26198 0.0
C938 C 0.86593 0.49476 0.26882 0.0
C939 C 0.805 0.52384 0.22482 0.0
C940 C 0.93515 0.48283 0.41933 0.0
C941 C 0.91768 0.48505 0.3861 0.0
C942 C 0.87544 0.51674 0.38172 0.0
C943 C 0.83195 0.50618 0.27214 0.0
C944 C 0.85173 0.50604 0.2999 0.0
C945 C 0.90896 0.50322 0.38146 0.0
C946 C 0.88951 0.50506 0.35145 0.0
H947 H 0.80111 0.47589 0.19219 0.0
H948 H 0.83056 0.47529 0.25826 0.0
H949 H 0.84612 0.5261 0.38105 0.0
H950 H 0.94285 0.52954 0.46386 0.0
H951 H 0.91239 0.53349 0.40468 0.0
loop_
_geom_bond_atom_site_label_1
_geom_bond_atom_site_label_2
_geom_bond_distance
_geom_bond_site_symmetry_2
_ccdc_geom_bond_type
H0 C1 0.949 . S
C1 H0 0.949 . S
C1 C2 1.395 . S
C1 C3 1.391 1_556 S
C2 C1 1.395 . S
C2 C5 1.390 1_556 S
C3 C1 1.391 1_554 S
C3 C7 1.387 . S
C3 C8 1.491 . S
H4 C5 0.950 . S
C5 C2 1.390 1_554 S
C5 H4 0.950 . S
C5 C6 1.378 . S
C6 C5 1.378 . S
C6 C7 1.409 . S
C7 C3 1.387 . S
C7 C6 1.409 . S
C7 H9 0.951 . S
C8 C3 1.491 . S
C8 C10 1.382 1_554 S
C8 C12 1.404 . S
H9 C7 0.951 . S
C10 C8 1.382 1_556 S
C10 C11 1.390 . S
C10 H15 0.949 . S
C11 C10 1.390 . S
C11 C16 1.399 1_556 S
C12 C8 1.404 . S
C12 H13 0.950 . S
C12 C14 1.375 . S
H13 C12 0.950 . S
C14 C12 1.375 . S
C14 C16 1.382 . S
C14 H18 0.950 . S
H15 C10 0.949 . S
C16 C11 1.399 1_554 S
C16 C14 1.382 . S
C16 H17 0.952 . S
H17 C16 0.952 . S
H18 C14 0.950 . S
H19 C20 0.949 . S
C20 H19 0.949 . S
C20 C21 1.395 . S
C20 C22 1.391 1_556 S
C21 C20 1.395 . S
C21 C24 1.390 1_556 S
C22 C20 1.391 1_554 S
C22 C26 1.387 . S
C22 C27 1.491 . S
H23 C24 0.950 . S
C24 C21 1.390 1_554 S
C24 H23 0.950 . S
C24 C25 1.378 . S
C25 C24 1.378 . S
C25 C26 1.409 . S
C26 C22 1.387 . S
C26 C25 1.409 . S
C26 H28 0.951 . S
C27 C22 1.491 . S
C27 C29 1.382 1_554 S
C27 C31 1.404 . S
H28 C26 0.951 . S
C29 C27 1.382 1_556 S
C29 C30 1.390 . S
C29 H34 0.949 . S
C30 C29 1.390 . S
C30 C35 1.399 1_556 S
C31 C27 1.404 . S
C31 H32 0.950 . S
C31 C33 1.375 . S
H32 C31 0.950 . S
C33 C31 1.375 . S
C33 C35 1.382 . S
C33 H37 0.950 . S
H34 C29 0.949 . S
C35 C30 1.399 1_554 S
C35 C33 1.382 . S
C35 H36 0.952 . S
H36 C35 0.952 . S
H37 C33 0.950 . S
H38 C39 0.949 . S
C39 H38 0.949 . S
C39 C40 1.395 . S
C39 C41 1.391 1_556 S
C40 C39 1.395 . S
C40 C43 1.390 1_556 S
C41 C39 1.391 1_554 S
C41 C45 1.387 . S
C41 C46 1.491 . S
H42 C43 0.950 . S
C43 C40 1.390 1_554 S
C43 H42 0.950 . S
C43 C44 1.378 . S
C44 C43 1.378 . S
C44 C45 1.409 . S
C45 C41 1.387 . S
C45 C44 1.409 . S
C45 H47 0.951 . S
C46 C41 1.491 . S
C46 C48 1.382 1_554 S
C46 C50 1.404 . S
H47 C45 0.951 . S
C48 C46 1.382 1_556 S
C48 C49 1.390 . S
C48 H53 0.949 . S
C49 C48 1.390 . S
C49 C54 1.399 1_556 S
C50 C46 1.404 . S
C50 H51 0.950 . S
C50 C52 1.375 . S
H51 C50 0.950 . S
C52 C50 1.375 . S
C52 C54 1.382 . S
C52 H56 0.950 . S
H53 C48 0.949 . S
C54 C49 1.399 1_554 S
C54 C52 1.382 . S
C54 H55 0.952 . S
H55 C54 0.952 . S
H56 C52 0.950 . S
H57 C58 0.949 . S
C58 H57 0.949 . S
C58 C59 1.395 . S
C58 C60 1.391 1_556 S
C59 C58 1.395 . S
C59 C62 1.390 1_556 S
C60 C58 1.391 1_554 S
C60 C64 1.387 . S
C60 C65 1.491 . S
H61 C62 0.950 . S
C62 C59 1.390 1_554 S
C62 H61 0.950 . S
C62 C63 1.378 . S
C63 C62 1.378 . S
C63 C64 1.409 . S
C64 C60 1.387 . S
C64 C63 1.409 . S
C64 H66 0.951 . S
C65 C60 1.491 . S
C65 C67 1.382 1_554 S
C65 C69 1.404 . S
H66 C64 0.951 . S
C67 C65 1.382 1_556 S
C67 C68 1.390 . S
C67 H72 0.949 . S
C68 C67 1.390 . S
C68 C73 1.399 1_556 S
C69 C65 1.404 . S
C69 H70 0.950 . S
C69 C71 1.375 . S
H70 C69 0.950 . S
C71 C69 1.375 . S
C71 C73 1.382 . S
C71 H75 0.950 . S
H72 C67 0.949 . S
C73 C68 1.399 1_554 S
C73 C71 1.382 . S
C73 H74 0.952 . S
H74 C73 0.952 . S
H75 C71 0.950 . S
H76 C77 0.949 . S
C77 H76 0.949 . S
C77 C78 1.395 . S
C77 C79 1.391 . S
C78 C77 1.395 . S
C78 C81 1.390 . S
C79 C77 1.391 . S
C79 C83 1.387 . S
C79 C84 1.491 . S
H80 C81 0.950 . S
C81 C78 1.390 . S
C81 H80 0.950 . S
C81 C82 1.378 . S
C82 C81 1.378 . S
C82 C83 1.409 . S
C83 C79 1.387 . S
C83 C82 1.409 . S
C83 H85 0.951 . S
C84 C79 1.491 . S
C84 C86 1.382 . S
C84 C88 1.404 . S
H85 C83 0.951 . S
C86 C84 1.382 . S
C86 C87 1.390 . S
C86 H91 0.949 . S
C87 C86 1.390 . S
C87 C92 1.399 . S
C88 C84 1.404 . S
C88 H89 0.950 . S
C88 C90 1.375 . S
H89 C88 0.950 . S
C90 C88 1.375 . S
C90 C92 1.382 . S
C90 H94 0.950 . S
H91 C86 0.949 . S
C92 C87 1.399 . S
C92 C90 1.382 . S
C92 H93 0.952 . S
H93 C92 0.952 . S
H94 C90 0.950 . S
H95 C96 0.949 . S
C96 H95 0.949 . S
C96 C97 1.395 . S
C96 C98 1.391 . S
C97 C96 1.395 . S
C97 C100 1.390 . S
C98 C96 1.391 . S
C98 C102 1.387 . S
C98 C103 1.491 . S
H99 C100 0.950 . S
C100 C97 1.390 . S
C100 H99 0.950 . S
C100 C101 1.378 . S
C101 C100 1.378 . S
C101 C102 1.409 . S
C102 C98 1.387 . S
C102 C101 1.409 . S
C102 H104 0.951 . S
C103 C98 1.491 . S
C103 C105 1.382 . S
C103 C107 1.429 . S
H104 C102 0.951 . S
C105 C103 1.382 . S
C105 C106 1.390 . S
C105 H110 0.949 . S
C106 C105 1.390 . S
C106 C111 1.399 . S
C107 C103 1.429 . S
C107 H108 0.933 1_455 S
C107 C109 1.367 1_455 S
H108 C107 0.933 1_655 S
C109 C107 1.367 1_655 S
C109 C111 1.382 1_655 S
C109 H113 0.950 . S
H110 C105 0.949 . S
C111 C106 1.399 . S
C111 C109 1.382 1_455 S
C111 H112 0.952 . S
H112 C111 0.952 . S
H113 C109 0.950 . S
H114 C115 0.949 . S
C115 H114 0.949 . S
C115 C116 1.395 . S
C115 C117 1.391 . S
C116 C115 1.395 . S
C116 C119 1.390 . S
C117 C115 1.391 . S
C117 C121 1.387 . S
C117 C122 1.491 . S
H118 C119 0.950 . S
C119 C116 1.390 . S
C119 H118 0.950 . S
C119 C120 1.378 . S
C120 C119 1.378 . S
C120 C121 1.409 . S
C121 C117 1.387 . S
C121 C120 1.409 . S
C121 H123 0.951 . S
C122 C117 1.491 . S
C122 C124 1.382 . S
C122 C126 1.404 . S
H123 C121 0.951 . S
C124 C122 1.382 . S
C124 C125 1.390 . S
C124 H129 0.949 . S
C125 C124 1.390 . S
C125 C130 1.399 . S
C126 C122 1.404 . S
C126 H127 0.950 1_545 S
C126 C128 1.375 1_545 S
H127 C126 0.950 1_565 S
C128 C126 1.375 1_565 S
C128 C130 1.382 1_565 S
C128 H132 0.950 . S
H129 C124 0.949 . S
C130 C125 1.399 . S
C130 C128 1.382 1_545 S
C130 H131 0.952 . S
H131 C130 0.952 . S
H132 C128 0.950 . S
H133 C134 0.949 . S
C134 H133 0.949 . S
C134 C135 1.395 . S
C134 C136 1.391 . S
C135 C134 1.395 . S
C135 C138 1.390 . S
C136 C134 1.391 . S
C136 C140 1.387 . S
C136 C141 1.491 . S
H137 C138 0.950 . S
C138 C135 1.390 . S
C138 H137 0.950 . S
C138 C139 1.378 . S
C139 C138 1.378 . S
C139 C140 1.409 . S
C140 C136 1.387 . S
C140 C139 1.409 . S
C140 H142 0.951 . S
C141 C136 1.491 . S
C141 C143 1.382 . S
C141 C145 1.404 . S
H142 C140 0.951 . S
C143 C141 1.382 . S
C143 C144 1.390 . S
C143 H148 0.949 . S
C144 C143 1.390 . S
C144 C149 1.399 . S
C145 C141 1.404 . S
C145 H146 0.950 . S
C145 C147 1.375 . S
H146 C145 0.950 . S
C147 C145 1.375 . S
C147 C149 1.382 . S
C147 H151 0.950 . S
H148 C143 0.949 . S
C149 C144 1.399 . S
C149 C147 1.382 . S
C149 H150 0.952 . S
H150 C149 0.952 . S
H151 C147 0.950 . S
Zn152 O158 1.969 1_455 S
Zn152 O159 1.965 . S
Zn152 O163 2.024 . S
Zn152 O168 1.969 1_455 S
Zn153 O160 1.969 . S
Zn153 O166 1.969 . S
Zn153 O167 1.965 1_455 S
Zn153 O169 2.024 1_455 S
C154 O155 1.229 1_455 S
C154 O163 1.058 . S
O155 C154 1.229 1_655 S
C156 O157 1.229 1_655 S
C156 O169 1.058 . S
O157 C156 1.229 1_455 S
O158 Zn152 1.969 1_655 S
O158 C161 1.267 1_655 S
O159 Zn152 1.965 . S
O159 C170 1.260 . S
O160 Zn153 1.969 . S
O160 C170 1.258 1_565 S
C161 O158 1.267 1_455 S
C161 O162 1.228 . S
O162 C161 1.228 . S
O163 Zn152 2.024 . S
O163 C154 1.058 . S
C164 O165 1.228 1_455 S
C164 O166 1.267 . S
O165 C164 1.228 1_655 S
O166 Zn153 1.969 . S
O166 C164 1.267 . S
O167 Zn153 1.965 1_655 S
O167 C171 1.260 1_565 S
O168 Zn152 1.969 1_655 S
O168 C171 1.258 . S
O169 Zn153 2.024 1_655 S
O169 C156 1.058 . S
C170 O159 1.260 . S
C170 O160 1.258 1_545 S
C171 O167 1.260 1_545 S
C171 O168 1.258 . S
Zn172 O178 1.969 1_545 S
Zn172 O179 1.965 . S
Zn172 O183 2.024 . S
Zn172 O188 1.969 1_545 S
Zn173 O180 1.969 . S
Zn173 O186 1.969 . S
Zn173 O187 1.965 1_545 S
Zn173 O189 2.024 1_545 S
C174 O175 1.229 1_545 S
C174 O183 1.058 . S
O175 C174 1.229 1_565 S
C176 O177 1.229 1_565 S
C176 O189 1.058 . S
O177 C176 1.229 1_545 S
O178 Zn172 1.969 1_565 S
O178 C181 1.267 1_565 S
O179 Zn172 1.965 . S
O179 C190 1.260 . S
O180 Zn173 1.969 . S
O180 C190 1.258 . S
C181 O178 1.267 1_545 S
C181 O182 1.228 . S
O182 C181 1.228 . S
O183 Zn172 2.024 . S
O183 C174 1.058 . S
C184 O185 1.228 1_545 S
C184 O186 1.267 . S
O185 C184 1.228 1_565 S
O186 Zn173 1.969 . S
O186 C184 1.267 . S
O187 Zn173 1.965 1_565 S
O187 C191 1.260 . S
O188 Zn172 1.969 1_565 S
O188 C191 1.258 . S
O189 Zn173 2.024 1_565 S
O189 C176 1.058 . S
C190 O179 1.260 . S
C190 O180 1.258 . S
C191 O187 1.260 . S
C191 O188 1.258 . S
Zn192 O198 1.969 . S
Zn192 O199 1.965 . S
Zn192 O203 2.024 . S
Zn192 O208 1.969 . S
Zn193 O200 1.969 . S
Zn193 O206 1.969 . S
Zn193 O207 1.965 . S
Zn193 O209 2.024 . S
C194 O195 1.229 . S
C194 O203 1.058 . S
O195 C194 1.229 . S
C196 O197 1.229 . S
C196 O209 1.058 . S
O197 C196 1.229 . S
O198 Zn192 1.969 . S
O198 C201 1.267 . S
O199 Zn192 1.965 . S
O199 C210 1.260 . S
O200 Zn193 1.969 . S
O200 C210 1.258 . S
C201 O198 1.267 . S
C201 O202 1.228 . S
O202 C201 1.228 . S
O203 Zn192 2.024 . S
O203 C194 1.058 . S
C204 O205 1.228 . S
C204 O206 1.267 . S
O205 C204 1.228 . S
O206 Zn193 1.969 . S
O206 C204 1.267 . S
O207 Zn193 1.965 . S
O207 C211 1.260 . S
O208 Zn192 1.969 . S
O208 C211 1.258 . S
O209 Zn193 2.024 . S
O209 C196 1.058 . S
C210 O199 1.260 . S
C210 O200 1.258 . S
C211 O207 1.260 . S
C211 O208 1.258 . S
Zn212 O218 1.969 . S
Zn212 O219 1.965 . S
Zn212 O223 2.024 . S
Zn212 O228 1.969 . S
Zn213 O220 1.969 . S
Zn213 O226 1.969 . S
Zn213 O227 1.965 . S
Zn213 O229 2.024 . S
C214 O215 1.229 . S
C214 O223 1.058 . S
O215 C214 1.229 . S
C216 O217 1.229 . S
C216 O229 1.058 . S
O217 C216 1.229 . S
O218 Zn212 1.969 . S
O218 C221 1.267 . S
O219 Zn212 1.965 . S
O219 C230 1.260 . S
O220 Zn213 1.969 . S
O220 C230 1.258 1_655 S
C221 O218 1.267 . S
C221 O222 1.228 . S
O222 C221 1.228 . S
O223 Zn212 2.024 . S
O223 C214 1.058 . S
C224 O225 1.228 . S
C224 O226 1.267 . S
O225 C224 1.228 . S
O226 Zn213 1.969 . S
O226 C224 1.267 . S
O227 Zn213 1.965 . S
O227 C231 1.260 1_655 S
O228 Zn212 1.969 . S
O228 C231 1.258 . S
O229 Zn213 2.024 . S
O229 C216 1.058 . S
C230 O219 1.260 . S
C230 O220 1.258 1_455 S
C231 O227 1.260 1_455 S
C231 O228 1.258 . S
C232 C233 1.349 . S
C232 C234 1.327 . S
C232 H257 0.950 1_545 S
C233 C232 1.349 . S
C233 C249 1.349 . S
C234 C232 1.327 . S
C234 C253 1.429 . S
C234 H258 0.950 1_545 S
C235 C252 1.574 . S
C235 C254 1.368 . S
C235 H259 0.949 . S
H236 C240 0.949 . S
C237 C238 1.349 . S
C237 C239 1.327 . S
C237 H260 0.950 . S
C238 C237 1.349 . S
C238 C250 1.349 1_545 S
C239 C237 1.327 . S
C239 C255 1.429 . S
C239 H261 0.950 . S
C240 H236 0.949 . S
C240 C248 1.577 . S
C240 C256 1.368 1_565 S
H241 C249 0.950 . S
H242 C247 0.950 . S
H243 C248 0.970 . S
H244 C250 0.950 . S
H245 C251 0.950 . S
H246 C252 0.949 . S
C247 H242 0.950 . S
C247 C249 1.327 . S
C247 C253 1.429 . S
C248 C240 1.577 . S
C248 H243 0.970 . S
C248 C254 1.343 1_565 S
C249 C233 1.349 . S
C249 H241 0.950 . S
C249 C247 1.327 . S
C250 C238 1.349 1_565 S
C250 H244 0.950 . S
C250 C251 1.327 . S
C251 H245 0.950 . S
C251 C250 1.327 . S
C251 C255 1.429 1_565 S
C252 C235 1.574 . S
C252 H246 0.949 . S
C252 C256 1.368 . S
C253 C234 1.429 . S
C253 C247 1.429 . S
C253 C254 1.523 . S
C254 C235 1.368 . S
C254 C248 1.343 1_545 S
C254 C253 1.523 . S
C255 C239 1.429 . S
C255 C251 1.429 1_545 S
C255 C256 1.523 . S
C256 C240 1.368 1_545 S
C256 C252 1.368 . S
C256 C255 1.523 . S
H257 C232 0.950 1_565 S
H258 C234 0.950 1_565 S
H259 C235 0.949 . S
H260 C237 0.950 . S
H261 C239 0.950 . S
C262 C263 1.349 . S
C262 C264 1.327 . S
C262 H287 0.950 . S
C263 C262 1.349 . S
C263 C279 1.349 . S
C264 C262 1.327 . S
C264 C283 1.429 . S
C264 H288 0.950 . S
C265 C282 1.574 . S
C265 C284 1.368 . S
C265 H289 0.949 . S
H266 C270 0.949 . S
C267 C268 1.349 . S
C267 C269 1.327 . S
C267 H290 0.950 . S
C268 C267 1.349 . S
C268 C280 1.349 . S
C269 C267 1.327 . S
C269 C285 1.429 . S
C269 H291 0.950 . S
C270 H266 0.949 . S
C270 C278 1.574 . S
C270 C286 1.368 . S
H271 C279 0.950 . S
H272 C277 0.950 . S
H273 C278 0.949 . S
H274 C280 0.950 . S
H275 C281 0.950 . S
H276 C282 0.949 . S
C277 H272 0.950 . S
C277 C279 1.327 . S
C277 C283 1.429 . S
C278 C270 1.574 . S
C278 H273 0.949 . S
C278 C284 1.368 . S
C279 C263 1.349 . S
C279 H271 0.950 . S
C279 C277 1.327 . S
C280 C268 1.349 . S
C280 H274 0.950 . S
C280 C281 1.327 . S
C281 H275 0.950 . S
C281 C280 1.327 . S
C281 C285 1.429 . S
C282 C265 1.574 . S
C282 H276 0.949 . S
C282 C286 1.368 . S
C283 C264 1.429 . S
C283 C277 1.429 . S
C283 C284 1.523 . S
C284 C265 1.368 . S
C284 C278 1.368 . S
C284 C283 1.523 . S
C285 C269 1.429 . S
C285 C281 1.429 . S
C285 C286 1.523 . S
C286 C270 1.368 . S
C286 C282 1.368 . S
C286 C285 1.523 . S
H287 C262 0.950 . S
H288 C264 0.950 . S
H289 C265 0.949 . S
H290 C267 0.950 . S
H291 C269 0.950 . S
C292 C293 1.349 . S
C292 C294 1.327 . S
C292 H317 0.950 . S
C293 C292 1.349 . S
C293 C309 1.349 . S
C294 C292 1.327 . S
C294 C313 1.429 . S
C294 H318 0.950 . S
C295 C312 1.574 . S
C295 C314 1.368 . S
C295 H319 0.949 . S
H296 C300 0.949 . S
C297 C298 1.349 . S
C297 C299 1.327 . S
C297 H320 0.950 . S
C298 C297 1.349 . S
C298 C310 1.349 . S
C299 C297 1.327 . S
C299 C315 1.429 . S
C299 H321 0.950 . S
C300 H296 0.949 . S
C300 C308 1.574 . S
C300 C316 1.368 . S
H301 C309 0.950 . S
H302 C307 0.950 . S
H303 C308 0.949 . S
H304 C310 0.950 . S
H305 C311 0.950 . S
H306 C312 0.949 . S
C307 H302 0.950 . S
C307 C309 1.327 . S
C307 C313 1.429 . S
C308 C300 1.574 . S
C308 H303 0.949 . S
C308 C314 1.368 . S
C309 C293 1.349 . S
C309 H301 0.950 . S
C309 C307 1.327 . S
C310 C298 1.349 . S
C310 H304 0.950 . S
C310 C311 1.327 . S
C311 H305 0.950 . S
C311 C310 1.327 . S
C311 C315 1.429 . S
C312 C295 1.574 . S
C312 H306 0.949 . S
C312 C316 1.368 . S
C313 C294 1.429 . S
C313 C307 1.429 . S
C313 C314 1.523 . S
C314 C295 1.368 . S
C314 C308 1.368 . S
C314 C313 1.523 . S
C315 C299 1.429 . S
C315 C311 1.429 . S
C315 C316 1.523 . S
C316 C300 1.368 . S
C316 C312 1.368 . S
C316 C315 1.523 . S
H317 C292 0.950 . S
H318 C294 0.950 . S
H319 C295 0.949 . S
H320 C297 0.950 . S
H321 C299 0.950 . S
C322 C323 1.349 . S
C322 C324 1.327 . S
C322 H347 0.950 . S
C323 C322 1.349 . S
C323 C339 1.349 . S
C324 C322 1.327 . S
C324 C343 1.429 . S
C324 H348 0.950 . S
C325 C342 1.571 1_455 S
C325 C344 1.368 . S
C325 H349 0.949 1_455 S
H326 C330 0.949 . S
C327 C328 1.349 1_655 S
C327 C329 1.327 . S
C327 H350 0.950 . S
C328 C327 1.349 1_455 S
C328 C340 1.349 . S
C329 C327 1.327 . S
C329 C345 1.429 1_655 S
C329 H351 0.950 . S
C330 H326 0.949 . S
C330 C338 1.574 . S
C330 C346 1.368 . S
H331 C339 0.961 . S
H332 C337 0.950 1_655 S
H333 C338 0.949 . S
H334 C340 0.950 . S
H335 C341 0.950 . S
H336 C342 0.971 . S
C337 H332 0.950 1_455 S
C337 C339 1.327 . S
C337 C343 1.429 . S
C338 C330 1.574 . S
C338 H333 0.949 . S
C338 C344 1.368 . S
C339 C323 1.349 . S
C339 H331 0.961 . S
C339 C337 1.327 . S
C340 C328 1.349 . S
C340 H334 0.950 . S
C340 C341 1.327 . S
C341 H335 0.950 . S
C341 C340 1.327 . S
C341 C345 1.429 . S
C342 C325 1.571 1_655 S
C342 H336 0.971 . S
C342 C346 1.348 1_655 S
C343 C324 1.429 . S
C343 C337 1.429 . S
C343 C344 1.523 . S
C344 C325 1.368 . S
C344 C338 1.368 . S
C344 C343 1.523 . S
C345 C329 1.429 1_455 S
C345 C341 1.429 . S
C345 C346 1.523 . S
C346 C330 1.368 . S
C346 C342 1.348 1_455 S
C346 C345 1.523 . S
H347 C322 0.950 . S
H348 C324 0.950 . S
H349 C325 0.949 1_655 S
H350 C327 0.950 . S
H351 C329 0.950 . S
C352 C353 1.349 . S
C352 C354 1.327 . S
C352 H377 0.950 1_566 S
C353 C352 1.349 . S
C353 C369 1.349 . S
C354 C352 1.327 . S
C354 C373 1.429 . S
C354 H378 0.950 1_565 S
C355 C372 1.574 . S
C355 C374 1.368 . S
C355 H379 0.949 . S
H356 C360 0.949 . S
C357 C358 1.339 1_565 S
C357 C359 1.327 . S
C357 H380 0.950 . S
C358 C357 1.339 1_545 S
C358 C370 1.358 . S
C359 C357 1.327 . S
C359 C375 1.429 . S
C359 H381 0.950 . S
C360 H356 0.949 . S
C360 C368 1.574 . S
C360 C376 1.368 1_545 S
H361 C369 0.950 . S
H362 C367 0.950 . S
H363 C368 0.949 . S
H364 C370 0.950 . S
H365 C371 0.950 . S
H366 C372 0.949 . S
C367 H362 0.950 . S
C367 C369 1.327 . S
C367 C373 1.429 . S
C368 C360 1.574 . S
C368 H363 0.949 . S
C368 C374 1.368 1_545 S
C369 C353 1.349 . S
C369 H361 0.950 . S
C369 C367 1.327 . S
C370 C358 1.358 . S
C370 H364 0.950 . S
C370 C371 1.327 . S
C371 H365 0.950 . S
C371 C370 1.327 . S
C371 C375 1.429 1_545 S
C372 C355 1.574 . S
C372 H366 0.949 . S
C372 C376 1.368 . S
C373 C354 1.429 . S
C373 C367 1.429 . S
C373 C374 1.523 . S
C374 C355 1.368 . S
C374 C368 1.368 1_565 S
C374 C373 1.523 . S
C375 C359 1.429 . S
C375 C371 1.429 1_565 S
C375 C376 1.523 . S
C376 C360 1.368 1_565 S
C376 C372 1.368 . S
C376 C375 1.523 . S
H377 C352 0.950 1_544 S
H378 C354 0.950 1_545 S
H379 C355 0.949 . S
H380 C357 0.950 . S
H381 C359 0.950 . S
C382 C383 1.349 . S
C382 C384 1.327 . S
C382 H407 0.950 . S
C383 C382 1.349 . S
C383 C399 1.349 . S
C384 C382 1.327 . S
C384 C403 1.429 . S
C384 H408 0.950 . S
C385 C402 1.574 . S
C385 C404 1.368 . S
C385 H409 0.949 . S
H386 C390 0.949 . S
C387 C388 1.349 . S
C387 C389 1.327 . S
C387 H410 0.950 . S
C388 C387 1.349 . S
C388 C400 1.349 . S
C389 C387 1.327 . S
C389 C405 1.429 . S
C389 H411 0.950 . S
C390 H386 0.949 . S
C390 C398 1.574 . S
C390 C406 1.368 . S
H391 C399 0.950 . S
H392 C397 0.950 . S
H393 C398 0.949 . S
H394 C400 0.950 . S
H395 C401 0.950 . S
H396 C402 0.949 . S
C397 H392 0.950 . S
C397 C399 1.327 . S
C397 C403 1.429 . S
C398 C390 1.574 . S
C398 H393 0.949 . S
C398 C404 1.368 . S
C399 C383 1.349 . S
C399 H391 0.950 . S
C399 C397 1.327 . S
C400 C388 1.349 . S
C400 H394 0.950 . S
C400 C401 1.327 . S
C401 H395 0.950 . S
C401 C400 1.327 . S
C401 C405 1.429 . S
C402 C385 1.574 . S
C402 H396 0.949 . S
C402 C406 1.368 . S
C403 C384 1.429 . S
C403 C397 1.429 . S
C403 C404 1.523 . S
C404 C385 1.368 . S
C404 C398 1.368 . S
C404 C403 1.523 . S
C405 C389 1.429 . S
C405 C401 1.429 . S
C405 C406 1.523 . S
C406 C390 1.368 . S
C406 C402 1.368 . S
C406 C405 1.523 . S
H407 C382 0.950 . S
H408 C384 0.950 . S
H409 C385 0.949 . S
H410 C387 0.950 . S
H411 C389 0.950 . S
C412 C413 1.349 . S
C412 C414 1.327 . S
C412 H437 0.950 1_556 S
C413 C412 1.349 . S
C413 C429 1.349 . S
C414 C412 1.327 . S
C414 C433 1.429 . S
C414 H438 0.950 . S
C415 C432 1.574 . S
C415 C434 1.368 . S
C415 H439 0.949 . S
H416 C420 0.949 . S
C417 C418 1.349 . S
C417 C419 1.327 . S
C417 H440 0.950 . S
C418 C417 1.349 . S
C418 C430 1.349 . S
C419 C417 1.327 . S
C419 C435 1.429 . S
C419 H441 0.950 . S
C420 H416 0.949 . S
C420 C428 1.574 . S
C420 C436 1.368 . S
H421 C429 0.950 . S
H422 C427 0.950 . S
H423 C428 0.949 . S
H424 C430 0.950 . S
H425 C431 0.950 . S
H426 C432 0.949 . S
C427 H422 0.950 . S
C427 C429 1.327 . S
C427 C433 1.429 . S
C428 C420 1.574 . S
C428 H423 0.949 . S
C428 C434 1.368 . S
C429 C413 1.349 . S
C429 H421 0.950 . S
C429 C427 1.327 . S
C430 C418 1.349 . S
C430 H424 0.950 . S
C430 C431 1.327 . S
C431 H425 0.950 . S
C431 C430 1.327 . S
C431 C435 1.429 . S
C432 C415 1.574 . S
C432 H426 0.949 . S
C432 C436 1.368 . S
C433 C414 1.429 . S
C433 C427 1.429 . S
C433 C434 1.523 . S
C434 C415 1.368 . S
C434 C428 1.368 . S
C434 C433 1.523 . S
C435 C419 1.429 . S
C435 C431 1.429 . S
C435 C436 1.523 . S
C436 C420 1.368 . S
C436 C432 1.368 . S
C436 C435 1.523 . S
H437 C412 0.950 1_554 S
H438 C414 0.950 . S
H439 C415 0.949 . S
H440 C417 0.950 . S
H441 C419 0.950 . S
C442 C443 1.349 . S
C442 C444 1.327 . S
C442 H467 0.950 . S
C443 C442 1.349 . S
C443 C459 1.349 . S
C444 C442 1.327 . S
C444 C463 1.429 . S
C444 H468 0.950 . S
C445 C462 1.574 . S
C445 C464 1.368 1_455 S
C445 H469 0.949 . S
H446 C450 0.949 . S
C447 C448 1.340 1_455 S
C447 C449 1.327 . S
C447 H470 0.950 . S
C448 C447 1.340 1_655 S
C448 C460 1.360 . S
C449 C447 1.327 . S
C449 C465 1.429 1_455 S
C449 H471 0.950 . S
C450 H446 0.949 . S
C450 C458 1.574 . S
C450 C466 1.368 . S
H451 C459 0.950 1_455 S
H452 C457 0.911 1_455 S
H453 C458 0.949 . S
H454 C460 0.950 . S
H455 C461 0.950 . S
H456 C462 0.949 . S
C457 H452 0.911 1_655 S
C457 C459 1.335 . S
C457 C463 1.462 . S
C458 C450 1.574 . S
C458 H453 0.949 . S
C458 C464 1.368 . S
C459 C443 1.349 . S
C459 H451 0.950 1_655 S
C459 C457 1.335 . S
C460 C448 1.360 . S
C460 H454 0.950 . S
C460 C461 1.327 . S
C461 H455 0.950 . S
C461 C460 1.327 . S
C461 C465 1.429 . S
C462 C445 1.574 . S
C462 H456 0.949 . S
C462 C466 1.368 1_455 S
C463 C444 1.429 . S
C463 C457 1.462 . S
C463 C464 1.523 . S
C464 C445 1.368 1_655 S
C464 C458 1.368 . S
C464 C463 1.523 . S
C465 C449 1.429 1_655 S
C465 C461 1.429 . S
C465 C466 1.523 . S
C466 C450 1.368 . S
C466 C462 1.368 1_655 S
C466 C465 1.523 . S
H467 C442 0.950 . S
H468 C444 0.950 . S
H469 C445 0.949 . S
H470 C447 0.950 . S
H471 C449 0.950 . S
C472 C473 1.349 . S
C472 C474 1.327 . S
C472 H497 0.950 . S
C473 C472 1.349 . S
C473 C489 1.349 . S
C474 C472 1.327 . S
C474 C493 1.429 . S
C474 H498 0.950 . S
C475 C492 1.576 . S
C475 C494 1.354 1_655 S
C475 H499 0.960 . S
H476 C480 0.949 . S
C477 C478 1.314 1_655 S
C477 C479 1.327 . S
C477 H500 0.950 . S
C478 C477 1.314 1_455 S
C478 C490 1.393 . S
C479 C477 1.327 . S
C479 C495 1.429 1_655 S
C479 H501 0.950 . S
C480 H476 0.949 . S
C480 C488 1.574 . S
C480 C496 1.368 . S
H481 C489 0.977 . S
H482 C487 0.950 1_655 S
H483 C488 0.949 . S
H484 C490 0.950 . S
H485 C491 0.950 . S
H486 C492 0.949 . S
C487 H482 0.950 1_455 S
C487 C489 1.327 . S
C487 C493 1.429 . S
C488 C480 1.574 . S
C488 H483 0.949 . S
C488 C494 1.368 . S
C489 C473 1.349 . S
C489 H481 0.977 . S
C489 C487 1.327 . S
C490 C478 1.393 . S
C490 H484 0.950 . S
C490 C491 1.327 . S
C491 H485 0.950 . S
C491 C490 1.327 . S
C491 C495 1.429 . S
C492 C475 1.576 . S
C492 H486 0.949 . S
C492 C496 1.368 1_655 S
C493 C474 1.429 . S
C493 C487 1.429 . S
C493 C494 1.523 . S
C494 C475 1.354 1_455 S
C494 C488 1.368 . S
C494 C493 1.523 . S
C495 C479 1.429 1_455 S
C495 C491 1.429 . S
C495 C496 1.523 . S
C496 C480 1.368 . S
C496 C492 1.368 1_455 S
C496 C495 1.523 . S
H497 C472 0.950 . S
H498 C474 0.950 . S
H499 C475 0.960 . S
H500 C477 0.950 . S
H501 C479 0.950 . S
C502 C503 1.349 . S
C502 C504 1.327 . S
C502 H527 0.950 1_545 S
C503 C502 1.349 . S
C503 C519 1.349 . S
C504 C502 1.327 . S
C504 C523 1.429 . S
C504 H528 0.950 1_545 S
C505 C522 1.574 . S
C505 C524 1.368 . S
C505 H529 0.949 . S
H506 C510 0.949 . S
C507 C508 1.349 . S
C507 C509 1.327 . S
C507 H530 0.950 . S
C508 C507 1.349 . S
C508 C520 1.349 1_545 S
C509 C507 1.327 . S
C509 C525 1.429 . S
C509 H531 0.950 . S
C510 H506 0.949 . S
C510 C518 1.574 . S
C510 C526 1.368 1_565 S
H511 C519 0.950 . S
H512 C517 0.950 . S
H513 C518 0.949 . S
H514 C520 0.950 . S
H515 C521 0.950 . S
H516 C522 0.949 . S
C517 H512 0.950 . S
C517 C519 1.327 . S
C517 C523 1.429 . S
C518 C510 1.574 . S
C518 H513 0.949 . S
C518 C524 1.368 1_565 S
C519 C503 1.349 . S
C519 H511 0.950 . S
C519 C517 1.327 . S
C520 C508 1.349 1_565 S
C520 H514 0.950 . S
C520 C521 1.327 . S
C521 H515 0.950 . S
C521 C520 1.327 . S
C521 C525 1.429 1_565 S
C522 C505 1.574 . S
C522 H516 0.949 . S
C522 C526 1.368 . S
C523 C504 1.429 . S
C523 C517 1.429 . S
C523 C524 1.523 . S
C524 C505 1.368 . S
C524 C518 1.368 1_545 S
C524 C523 1.523 . S
C525 C509 1.429 . S
C525 C521 1.429 1_545 S
C525 C526 1.523 . S
C526 C510 1.368 1_545 S
C526 C522 1.368 . S
C526 C525 1.523 . S
H527 C502 0.950 1_565 S
H528 C504 0.950 1_565 S
H529 C505 0.949 . S
H530 C507 0.950 . S
H531 C509 0.950 . S
C532 C533 1.349 . S
C532 C534 1.327 . S
C532 H557 0.950 . S
C533 C532 1.349 . S
C533 C549 1.349 . S
C534 C532 1.327 . S
C534 C553 1.429 . S
C534 H558 0.950 . S
C535 C552 1.574 . S
C535 C554 1.368 . S
C535 H559 0.949 . S
H536 C540 0.949 . S
C537 C538 1.349 . S
C537 C539 1.327 . S
C537 H560 0.950 . S
C538 C537 1.349 . S
C538 C550 1.349 . S
C539 C537 1.327 . S
C539 C555 1.429 . S
C539 H561 0.950 . S
C540 H536 0.949 . S
C540 C548 1.574 . S
C540 C556 1.368 . S
H541 C549 0.950 . S
H542 C547 0.950 . S
H543 C548 0.949 . S
H544 C550 0.950 . S
H545 C551 0.950 . S
H546 C552 0.949 . S
C547 H542 0.950 . S
C547 C549 1.327 . S
C547 C553 1.429 . S
C548 C540 1.574 . S
C548 H543 0.949 . S
C548 C554 1.368 . S
C549 C533 1.349 . S
C549 H541 0.950 . S
C549 C547 1.327 . S
C550 C538 1.349 . S
C550 H544 0.950 . S
C550 C551 1.327 . S
C551 H545 0.950 . S
C551 C550 1.327 . S
C551 C555 1.429 . S
C552 C535 1.574 . S
C552 H546 0.949 . S
C552 C556 1.368 . S
C553 C534 1.429 . S
C553 C547 1.429 . S
C553 C554 1.523 . S
C554 C535 1.368 . S
C554 C548 1.368 . S
C554 C553 1.523 . S
C555 C539 1.429 . S
C555 C551 1.429 . S
C555 C556 1.523 . S
C556 C540 1.368 . S
C556 C552 1.368 . S
C556 C555 1.523 . S
H557 C532 0.950 . S
H558 C534 0.950 . S
H559 C535 0.949 . S
H560 C537 0.950 . S
H561 C539 0.950 . S
C562 C563 1.349 . S
C562 C564 1.327 . S
C562 H587 0.950 . S
C563 C562 1.349 . S
C563 C579 1.349 . S
C564 C562 1.327 . S
C564 C583 1.429 . S
C564 H588 0.950 . S
C565 C582 1.574 . S
C565 C584 1.368 . S
C565 H589 0.949 . S
H566 C570 0.949 . S
C567 C568 1.349 . S
C567 C569 1.327 . S
C567 H590 0.950 . S
C568 C567 1.349 . S
C568 C580 1.349 . S
C569 C567 1.327 . S
C569 C585 1.429 . S
C569 H591 0.950 . S
C570 H566 0.949 . S
C570 C578 1.574 . S
C570 C586 1.368 . S
H571 C579 0.950 . S
H572 C577 0.950 . S
H573 C578 0.949 . S
H574 C580 0.950 . S
H575 C581 0.950 . S
H576 C582 0.949 . S
C577 H572 0.950 . S
C577 C579 1.327 . S
C577 C583 1.429 . S
C578 C570 1.574 . S
C578 H573 0.949 . S
C578 C584 1.368 . S
C579 C563 1.349 . S
C579 H571 0.950 . S
C579 C577 1.327 . S
C580 C568 1.349 . S
C580 H574 0.950 . S
C580 C581 1.327 . S
C581 H575 0.950 . S
C581 C580 1.327 . S
C581 C585 1.429 . S
C582 C565 1.574 . S
C582 H576 0.949 . S
C582 C586 1.368 . S
C583 C564 1.429 . S
C583 C577 1.429 . S
C583 C584 1.523 . S
C584 C565 1.368 . S
C584 C578 1.368 . S
C584 C583 1.523 . S
C585 C569 1.429 . S
C585 C581 1.429 . S
C585 C586 1.523 . S
C586 C570 1.368 . S
C586 C582 1.368 . S
C586 C585 1.523 . S
H587 C562 0.950 . S
H588 C564 0.950 . S
H589 C565 0.949 . S
H590 C567 0.950 . S
H591 C569 0.950 . S
C592 C593 1.349 . S
C592 C594 1.327 . S
C592 H617 0.955 . S
C593 C592 1.349 . S
C593 C609 1.349 . S
C594 C592 1.327 . S
C594 C613 1.429 . S
C594 H618 0.950 1_655 S
C595 C612 1.574 . S
C595 C614 1.368 . S
C595 H619 0.949 . S
H596 C600 0.949 . S
C597 C598 1.349 1_655 S
C597 C599 1.327 . S
C597 H620 0.950 . S
C598 C597 1.349 1_455 S
C598 C610 1.349 . S
C599 C597 1.327 . S
C599 C615 1.440 . S
C599 H621 0.950 . S
C600 H596 0.949 . S
C600 C608 1.574 . S
C600 C616 1.368 1_455 S
H601 C609 0.950 1_554 S
H602 C607 0.950 . S
H603 C608 0.949 . S
H604 C610 0.950 . S
H605 C611 0.950 . S
H606 C612 0.949 . S
C607 H602 0.950 . S
C607 C609 1.327 . S
C607 C613 1.429 . S
C608 C600 1.574 . S
C608 H603 0.949 . S
C608 C614 1.368 1_455 S
C609 C593 1.349 . S
C609 H601 0.950 1_556 S
C609 C607 1.327 . S
C610 C598 1.349 . S
C610 H604 0.950 . S
C610 C611 1.327 . S
C611 H605 0.950 . S
C611 C610 1.327 . S
C611 C615 1.413 1_455 S
C612 C595 1.574 . S
C612 H606 0.949 . S
C612 C616 1.368 . S
C613 C594 1.429 . S
C613 C607 1.429 . S
C613 C614 1.523 . S
C614 C595 1.368 . S
C614 C608 1.368 1_655 S
C614 C613 1.523 . S
C615 C599 1.440 . S
C615 C611 1.413 1_655 S
C615 C616 1.527 . S
C616 C600 1.368 1_655 S
C616 C612 1.368 . S
C616 C615 1.527 . S
H617 C592 0.955 . S
H618 C594 0.950 1_455 S
H619 C595 0.949 . S
H620 C597 0.950 . S
H621 C599 0.950 . S
C622 C623 1.386 . S
C622 C624 1.321 1_565 S
C622 H647 0.920 1_565 S
C623 C622 1.386 . S
C623 C639 1.349 . S
C624 C622 1.321 1_545 S
C624 C643 1.429 1_545 S
C624 H648 0.950 . S
C625 C642 1.574 . S
C625 C644 1.368 . S
C625 H649 0.949 . S
H626 C630 0.949 . S
C627 C628 1.349 1_565 S
C627 C629 1.327 . S
C627 H650 0.950 . S
C628 C627 1.349 1_545 S
C628 C640 1.349 . S
C629 C627 1.327 . S
C629 C645 1.423 1_565 S
C629 H651 0.950 . S
C630 H626 0.949 . S
C630 C638 1.574 . S
C630 C646 1.368 1_545 S
H631 C639 0.950 . S
H632 C637 0.950 . S
H633 C638 0.949 . S
H634 C640 0.950 . S
H635 C641 0.950 . S
H636 C642 0.949 . S
C637 H632 0.950 . S
C637 C639 1.327 . S
C637 C643 1.429 . S
C638 C630 1.574 . S
C638 H633 0.949 . S
C638 C644 1.368 1_545 S
C639 C623 1.349 . S
C639 H631 0.950 . S
C639 C637 1.327 . S
C640 C628 1.349 . S
C640 H634 0.950 . S
C640 C641 1.327 . S
C641 H635 0.950 . S
C641 C640 1.327 . S
C641 C645 1.436 . S
C642 C625 1.574 . S
C642 H636 0.949 . S
C642 C646 1.368 . S
C643 C624 1.429 1_565 S
C643 C637 1.429 . S
C643 C644 1.523 . S
C644 C625 1.368 . S
C644 C638 1.368 1_565 S
C644 C643 1.523 . S
C645 C629 1.423 1_545 S
C645 C641 1.436 . S
C645 C646 1.522 1_545 S
C646 C630 1.368 1_565 S
C646 C642 1.368 . S
C646 C645 1.522 1_565 S
H647 C622 0.920 1_545 S
H648 C624 0.950 . S
H649 C625 0.949 . S
H650 C627 0.950 . S
H651 C629 0.950 . S
C652 C653 1.349 . S
C652 C654 1.327 . S
C652 H677 0.950 . S
C653 C652 1.349 . S
C653 C669 1.349 . S
C654 C652 1.327 . S
C654 C673 1.429 . S
C654 H678 0.950 . S
C655 C672 1.574 . S
C655 C674 1.368 . S
C655 H679 0.949 . S
H656 C660 0.949 . S
C657 C658 1.349 . S
C657 C659 1.327 . S
C657 H680 0.950 . S
C658 C657 1.349 . S
C658 C670 1.349 . S
C659 C657 1.327 . S
C659 C675 1.429 . S
C659 H681 0.950 . S
C660 H656 0.949 . S
C660 C668 1.574 . S
C660 C676 1.368 . S
H661 C669 0.950 1_554 S
H662 C667 0.950 . S
H663 C668 0.949 . S
H664 C670 0.950 . S
H665 C671 0.950 . S
H666 C672 0.949 . S
C667 H662 0.950 . S
C667 C669 1.327 . S
C667 C673 1.429 . S
C668 C660 1.574 . S
C668 H663 0.949 . S
C668 C674 1.368 . S
C669 C653 1.349 . S
C669 H661 0.950 1_556 S
C669 C667 1.327 . S
C670 C658 1.349 . S
C670 H664 0.950 . S
C670 C671 1.327 . S
C671 H665 0.950 . S
C671 C670 1.327 . S
C671 C675 1.429 . S
C672 C655 1.574 . S
C672 H666 0.949 . S
C672 C676 1.368 . S
C673 C654 1.429 . S
C673 C667 1.429 . S
C673 C674 1.523 . S
C674 C655 1.368 . S
C674 C668 1.368 . S
C674 C673 1.523 . S
C675 C659 1.429 . S
C675 C671 1.429 . S
C675 C676 1.523 . S
C676 C660 1.368 . S
C676 C672 1.368 . S
C676 C675 1.523 . S
H677 C652 0.950 . S
H678 C654 0.950 . S
H679 C655 0.949 . S
H680 C657 0.950 . S
H681 C659 0.950 . S
C682 C683 1.349 . S
C682 C684 1.327 . S
C682 H707 0.950 . S
C683 C682 1.349 . S
C683 C699 1.349 . S
C684 C682 1.327 . S
C684 C703 1.429 . S
C684 H708 0.950 . S
C685 C702 1.574 . S
C685 C704 1.368 . S
C685 H709 0.949 . S
H686 C690 0.949 . S
C687 C688 1.349 . S
C687 C689 1.327 . S
C687 H710 0.950 . S
C688 C687 1.349 . S
C688 C700 1.349 . S
C689 C687 1.327 . S
C689 C705 1.429 . S
C689 H711 0.950 . S
C690 H686 0.949 . S
C690 C698 1.574 . S
C690 C706 1.368 . S
H691 C699 0.950 1_554 S
H692 C697 0.950 . S
H693 C698 0.949 . S
H694 C700 0.950 . S
H695 C701 0.950 . S
H696 C702 0.949 . S
C697 H692 0.950 . S
C697 C699 1.327 . S
C697 C703 1.429 . S
C698 C690 1.574 . S
C698 H693 0.949 . S
C698 C704 1.368 . S
C699 C683 1.349 . S
C699 H691 0.950 1_556 S
C699 C697 1.327 . S
C700 C688 1.349 . S
C700 H694 0.950 . S
C700 C701 1.327 . S
C701 H695 0.950 . S
C701 C700 1.327 . S
C701 C705 1.429 . S
C702 C685 1.574 . S
C702 H696 0.949 . S
C702 C706 1.368 . S
C703 C684 1.429 . S
C703 C697 1.429 . S
C703 C704 1.523 . S
C704 C685 1.368 . S
C704 C698 1.368 . S
C704 C703 1.523 . S
C705 C689 1.429 . S
C705 C701 1.429 . S
C705 C706 1.523 . S
C706 C690 1.368 . S
C706 C702 1.368 . S
C706 C705 1.523 . S
H707 C682 0.950 . S
H708 C684 0.950 . S
H709 C685 0.949 . S
H710 C687 0.950 . S
H711 C689 0.950 . S
C712 C713 1.349 1_556 S
C712 C714 1.327 . S
C712 H737 0.925 1_455 S
C713 C712 1.349 1_554 S
C713 C729 1.349 . S
C714 C712 1.327 . S
C714 C733 1.429 . S
C714 H738 0.950 1_455 S
C715 C732 1.574 . S
C715 C734 1.368 . S
C715 H739 0.949 . S
H716 C720 0.949 1_655 S
C717 C718 1.349 . S
C717 C719 1.327 . S
C717 H740 0.950 . S
C718 C717 1.349 . S
C718 C730 1.385 . S
C719 C717 1.327 . S
C719 C735 1.429 . S
C719 H741 0.950 . S
C720 H716 0.949 1_455 S
C720 C728 1.574 . S
C720 C736 1.368 . S
H721 C729 0.950 . S
H722 C727 0.950 . S
H723 C728 0.949 1_655 S
H724 C730 0.913 1_655 S
H725 C731 0.950 1_655 S
H726 C732 0.949 . S
C727 H722 0.950 . S
C727 C729 1.327 . S
C727 C733 1.429 1_554 S
C728 C720 1.574 . S
C728 H723 0.949 1_455 S
C728 C734 1.368 . S
C729 C713 1.349 . S
C729 H721 0.950 . S
C729 C727 1.327 . S
C730 C718 1.385 . S
C730 H724 0.913 1_455 S
C730 C731 1.330 . S
C731 H725 0.950 1_455 S
C731 C730 1.330 . S
C731 C735 1.429 . S
C732 C715 1.574 . S
C732 H726 0.949 . S
C732 C736 1.368 . S
C733 C714 1.429 . S
C733 C727 1.429 1_556 S
C733 C734 1.523 . S
C734 C715 1.368 . S
C734 C728 1.368 . S
C734 C733 1.523 . S
C735 C719 1.429 . S
C735 C731 1.429 . S
C735 C736 1.523 . S
C736 C720 1.368 . S
C736 C732 1.368 . S
C736 C735 1.523 . S
H737 C712 0.925 1_655 S
H738 C714 0.950 1_655 S
H739 C715 0.949 . S
H740 C717 0.950 . S
H741 C719 0.950 . S
C742 C743 1.349 1_556 S
C742 C744 1.327 . S
C742 H767 0.950 1_545 S
C743 C742 1.349 1_554 S
C743 C759 1.349 . S
C744 C742 1.327 . S
C744 C763 1.429 . S
C744 H768 0.950 1_545 S
C745 C762 1.574 . S
C745 C764 1.368 . S
C745 H769 0.949 . S
H746 C750 0.949 1_565 S
C747 C748 1.349 . S
C747 C749 1.327 . S
C747 H770 0.950 . S
C748 C747 1.349 . S
C748 C760 1.347 1_545 S
C749 C747 1.327 . S
C749 C765 1.429 . S
C749 H771 0.950 . S
C750 H746 0.949 1_545 S
C750 C758 1.574 . S
C750 C766 1.368 . S
H751 C759 0.950 . S
H752 C757 0.950 . S
H753 C758 0.949 1_565 S
H754 C760 0.951 . S
H755 C761 0.929 1_565 S
H756 C762 0.949 . S
C757 H752 0.950 . S
C757 C759 1.327 . S
C757 C763 1.429 1_554 S
C758 C750 1.574 . S
C758 H753 0.949 1_545 S
C758 C764 1.368 . S
C759 C743 1.349 . S
C759 H751 0.950 . S
C759 C757 1.327 . S
C760 C748 1.347 1_565 S
C760 H754 0.951 . S
C760 C761 1.326 1_565 S
C761 H755 0.929 1_545 S
C761 C760 1.326 1_545 S
C761 C765 1.450 . S
C762 C745 1.574 . S
C762 H756 0.949 . S
C762 C766 1.368 . S
C763 C744 1.429 . S
C763 C757 1.429 1_556 S
C763 C764 1.523 . S
C764 C745 1.368 . S
C764 C758 1.368 . S
C764 C763 1.523 . S
C765 C749 1.429 . S
C765 C761 1.450 . S
C765 C766 1.523 . S
C766 C750 1.368 . S
C766 C762 1.368 . S
C766 C765 1.523 . S
H767 C742 0.950 1_565 S
H768 C744 0.950 1_565 S
H769 C745 0.949 . S
H770 C747 0.950 . S
H771 C749 0.950 . S
C772 C773 1.349 . S
C772 C774 1.327 . S
C772 H797 0.950 . S
C773 C772 1.349 . S
C773 C789 1.349 1_554 S
C774 C772 1.327 . S
C774 C793 1.429 1_554 S
C774 H798 0.950 . S
C775 C792 1.574 . S
C775 C794 1.368 . S
C775 H799 0.949 . S
H776 C780 0.949 . S
C777 C778 1.349 . S
C777 C779 1.327 . S
C777 H800 0.950 . S
C778 C777 1.349 . S
C778 C790 1.349 . S
C779 C777 1.327 . S
C779 C795 1.429 . S
C779 H801 0.950 . S
C780 H776 0.949 . S
C780 C788 1.574 . S
C780 C796 1.368 . S
H781 C789 0.950 . S
H782 C787 0.950 . S
H783 C788 0.949 1_554 S
H784 C790 0.950 . S
H785 C791 0.950 . S
H786 C792 0.949 . S
C787 H782 0.950 . S
C787 C789 1.327 . S
C787 C793 1.429 . S
C788 C780 1.574 . S
C788 H783 0.949 1_556 S
C788 C794 1.368 . S
C789 C773 1.349 1_556 S
C789 H781 0.950 . S
C789 C787 1.327 . S
C790 C778 1.349 . S
C790 H784 0.950 . S
C790 C791 1.327 . S
C791 H785 0.950 . S
C791 C790 1.327 . S
C791 C795 1.429 . S
C792 C775 1.574 . S
C792 H786 0.949 . S
C792 C796 1.368 . S
C793 C774 1.429 1_556 S
C793 C787 1.429 . S
C793 C794 1.523 . S
C794 C775 1.368 . S
C794 C788 1.368 . S
C794 C793 1.523 . S
C795 C779 1.429 . S
C795 C791 1.429 . S
C795 C796 1.523 . S
C796 C780 1.368 . S
C796 C792 1.368 . S
C796 C795 1.523 . S
H797 C772 0.950 . S
H798 C774 0.950 . S
H799 C775 0.949 . S
H800 C777 0.950 . S
H801 C779 0.950 . S
C802 C803 1.349 1_556 S
C802 C804 1.327 . S
C802 H827 0.950 . S
C803 C802 1.349 1_554 S
C803 C819 1.349 . S
C804 C802 1.327 . S
C804 C823 1.429 . S
C804 H828 0.950 . S
C805 C822 1.574 . S
C805 C824 1.368 . S
C805 H829 0.949 . S
H806 C810 0.949 . S
C807 C808 1.349 . S
C807 C809 1.327 . S
C807 H830 0.950 . S
C808 C807 1.349 . S
C808 C820 1.349 . S
C809 C807 1.327 . S
C809 C825 1.429 . S
C809 H831 0.950 . S
C810 H806 0.949 . S
C810 C818 1.574 . S
C810 C826 1.368 . S
H811 C819 0.950 . S
H812 C817 0.950 . S
H813 C818 0.949 . S
H814 C820 0.950 . S
H815 C821 0.950 . S
H816 C822 0.949 . S
C817 H812 0.950 . S
C817 C819 1.327 . S
C817 C823 1.429 1_554 S
C818 C810 1.574 . S
C818 H813 0.949 . S
C818 C824 1.368 . S
C819 C803 1.349 . S
C819 H811 0.950 . S
C819 C817 1.327 . S
C820 C808 1.349 . S
C820 H814 0.950 . S
C820 C821 1.327 . S
C821 H815 0.950 . S
C821 C820 1.327 . S
C821 C825 1.429 . S
C822 C805 1.574 . S
C822 H816 0.949 . S
C822 C826 1.368 . S
C823 C804 1.429 . S
C823 C817 1.429 1_556 S
C823 C824 1.523 . S
C824 C805 1.368 . S
C824 C818 1.368 . S
C824 C823 1.523 . S
C825 C809 1.429 . S
C825 C821 1.429 . S
C825 C826 1.523 . S
C826 C810 1.368 . S
C826 C822 1.368 . S
C826 C825 1.523 . S
H827 C802 0.950 . S
H828 C804 0.950 . S
H829 C805 0.949 . S
H830 C807 0.950 . S
H831 C809 0.950 . S
C832 C833 1.349 . S
C832 C834 1.327 . S
C832 H857 0.950 . S
C833 C832 1.349 . S
C833 C849 1.349 . S
C834 C832 1.327 . S
C834 C853 1.429 . S
C834 H858 0.950 . S
C835 C852 1.578 . S
C835 C854 1.368 . S
C835 H859 0.949 1_655 S
H836 C840 0.949 . S
C837 C838 1.349 1_455 S
C837 C839 1.329 . S
C837 H860 0.950 . S
C838 C837 1.349 1_655 S
C838 C850 1.349 . S
C839 C837 1.329 . S
C839 C855 1.407 1_455 S
C839 H861 0.971 . S
C840 H836 0.949 . S
C840 C848 1.574 . S
C840 C856 1.368 . S
H841 C849 0.939 1_455 S
H842 C847 0.950 1_455 S
H843 C848 0.949 . S
H844 C850 0.950 . S
H845 C851 0.950 . S
H846 C852 0.920 1_455 S
C847 H842 0.950 1_655 S
C847 C849 1.327 . S
C847 C853 1.429 . S
C848 C840 1.574 . S
C848 H843 0.949 . S
C848 C854 1.368 . S
C849 C833 1.349 . S
C849 H841 0.939 1_655 S
C849 C847 1.327 . S
C850 C838 1.349 . S
C850 H844 0.950 . S
C850 C851 1.327 . S
C851 H845 0.950 . S
C851 C850 1.327 . S
C851 C855 1.429 . S
C852 C835 1.578 . S
C852 H846 0.920 1_655 S
C852 C856 1.400 . S
C853 C834 1.429 . S
C853 C847 1.429 . S
C853 C854 1.523 . S
C854 C835 1.368 . S
C854 C848 1.368 . S
C854 C853 1.523 . S
C855 C839 1.407 1_655 S
C855 C851 1.429 . S
C855 C856 1.523 . S
C856 C840 1.368 . S
C856 C852 1.400 . S
C856 C855 1.523 . S
H857 C832 0.950 . S
H858 C834 0.950 . S
H859 C835 0.949 1_455 S
H860 C837 0.950 . S
H861 C839 0.971 . S
C862 C863 1.349 . S
C862 C864 1.327 . S
C862 H887 0.950 1_565 S
C863 C862 1.349 . S
C863 C879 1.349 . S
C864 C862 1.327 . S
C864 C883 1.429 . S
C864 H888 0.950 1_565 S
C865 C882 1.574 . S
C865 C884 1.368 . S
C865 H889 0.949 . S
H866 C870 0.948 . S
C867 C868 1.349 . S
C867 C869 1.327 . S
C867 H890 0.950 . S
C868 C867 1.349 . S
C868 C880 1.349 1_565 S
C869 C867 1.327 . S
C869 C885 1.429 . S
C869 H891 0.950 . S
C870 H866 0.948 . S
C870 C878 1.574 1_545 S
C870 C886 1.369 1_545 S
H871 C879 0.950 . S
H872 C877 0.950 . S
H873 C878 0.949 1_545 S
H874 C880 0.950 . S
H875 C881 0.950 . S
H876 C882 0.949 . S
C877 H872 0.950 . S
C877 C879 1.327 . S
C877 C883 1.429 . S
C878 C870 1.574 1_565 S
C878 H873 0.949 1_565 S
C878 C884 1.368 . S
C879 C863 1.349 . S
C879 H871 0.950 . S
C879 C877 1.327 . S
C880 C868 1.349 1_545 S
C880 H874 0.950 . S
C880 C881 1.327 . S
C881 H875 0.950 . S
C881 C880 1.327 . S
C881 C885 1.429 1_545 S
C882 C865 1.574 . S
C882 H876 0.949 . S
C882 C886 1.368 . S
C883 C864 1.429 . S
C883 C877 1.429 . S
C883 C884 1.523 . S
C884 C865 1.368 . S
C884 C878 1.368 . S
C884 C883 1.523 . S
C885 C869 1.429 . S
C885 C881 1.429 1_565 S
C885 C886 1.523 . S
C886 C870 1.369 1_565 S
C886 C882 1.368 . S
C886 C885 1.523 . S
H887 C862 0.950 1_545 S
H888 C864 0.950 1_545 S
H889 C865 0.949 . S
H890 C867 0.950 . S
H891 C869 0.950 . S
C892 C893 1.349 . S
C892 C894 1.327 . S
C892 H917 0.950 . S
C893 C892 1.349 . S
C893 C909 1.349 . S
C894 C892 1.327 . S
C894 C913 1.429 . S
C894 H918 0.950 . S
C895 C912 1.574 . S
C895 C914 1.368 . S
C895 H919 0.949 . S
H896 C900 0.949 . S
C897 C898 1.349 . S
C897 C899 1.327 . S
C897 H920 0.950 . S
C898 C897 1.349 . S
C898 C910 1.349 . S
C899 C897 1.327 . S
C899 C915 1.429 . S
C899 H921 0.950 . S
C900 H896 0.949 . S
C900 C908 1.574 . S
C900 C916 1.368 . S
H901 C909 0.950 . S
H902 C907 0.950 . S
H903 C908 0.949 . S
H904 C910 0.950 . S
H905 C911 0.950 . S
H906 C912 0.949 . S
C907 H902 0.950 . S
C907 C909 1.327 . S
C907 C913 1.429 . S
C908 C900 1.574 . S
C908 H903 0.949 . S
C908 C914 1.368 . S
C909 C893 1.349 . S
C909 H901 0.950 . S
C909 C907 1.327 . S
C910 C898 1.349 . S
C910 H904 0.950 . S
C910 C911 1.327 . S
C911 H905 0.950 . S
C911 C910 1.327 . S
C911 C915 1.429 . S
C912 C895 1.574 . S
C912 H906 0.949 . S
C912 C916 1.368 . S
C913 C894 1.429 . S
C913 C907 1.429 . S
C913 C914 1.523 . S
C914 C895 1.368 . S
C914 C908 1.368 . S
C914 C913 1.523 . S
C915 C899 1.429 . S
C915 C911 1.429 . S
C915 C916 1.523 . S
C916 C900 1.368 . S
C916 C912 1.368 . S
C916 C915 1.523 . S
H917 C892 0.950 . S
H918 C894 0.950 . S
H919 C895 0.949 . S
H920 C897 0.950 . S
H921 C899 0.950 . S
C922 C923 1.349 . S
C922 C924 1.327 . S
C922 H947 0.950 . S
C923 C922 1.349 . S
C923 C939 1.349 . S
C924 C922 1.327 . S
C924 C943 1.429 . S
C924 H948 0.950 . S
C925 C942 1.574 . S
C925 C944 1.368 . S
C925 H949 0.949 . S
H926 C930 0.949 . S
C927 C928 1.349 . S
C927 C929 1.327 . S
C927 H950 0.950 . S
C928 C927 1.349 . S
C928 C940 1.349 . S
C929 C927 1.327 . S
C929 C945 1.429 . S
C929 H951 0.950 . S
C930 H926 0.949 . S
C930 C938 1.574 . S
C930 C946 1.368 . S
H931 C939 0.950 . S
H932 C937 0.950 . S
H933 C938 0.949 . S
H934 C940 0.950 . S
H935 C941 0.950 . S
H936 C942 0.949 . S
C937 H932 0.950 . S
C937 C939 1.327 . S
C937 C943 1.429 . S
C938 C930 1.574 . S
C938 H933 0.949 . S
C938 C944 1.368 . S
C939 C923 1.349 . S
C939 H931 0.950 . S
C939 C937 1.327 . S
C940 C928 1.349 . S
C940 H934 0.950 . S
C940 C941 1.327 . S
C941 H935 0.950 . S
C941 C940 1.327 . S
C941 C945 1.429 . S
C942 C925 1.574 . S
C942 H936 0.949 . S
C942 C946 1.368 . S
C943 C924 1.429 . S
C943 C937 1.429 . S
C943 C944 1.523 . S
C944 C925 1.368 . S
C944 C938 1.368 . S
C944 C943 1.523 . S
C945 C929 1.429 . S
C945 C941 1.429 . S
C945 C946 1.523 . S
C946 C930 1.368 . S
C946 C942 1.368 . S
C946 C945 1.523 . S
H947 C922 0.950 . S
H948 C924 0.950 . S
H949 C925 0.949 . S
H950 C927 0.950 . S
H951 C929 0.950 . S
C233 C125 1.463 . S
C238 C170 1.515 . S
C268 C190 1.515 . S
C263 C144 1.463 . S
C298 C210 1.515 . S
C293 C87 1.463 . S
C328 C230 1.516 . S
C323 C106 1.464 . S
C358 C171 1.518 . S
C353 C49 1.500 . S
C383 C68 1.500 . S
C388 C191 1.515 . S
C413 C11 1.500 . S
C418 C211 1.515 . S
C443 C30 1.500 . S
C448 C231 1.512 1_655 S
C478 C161 0.797 . S
C473 C97 0.780 . S
C508 C181 0.779 . S
C503 C116 0.779 . S
C538 C201 0.779 . S
C533 C135 0.780 . S
C563 C78 0.780 . S
C568 C221 0.779 . S
C593 C21 0.780 . S
C598 C164 0.779 . S
C628 C184 0.779 . S
C623 C40 0.780 . S
C658 C204 0.779 . S
C653 C59 0.780 . S
C683 C2 0.780 . S
C688 C224 0.779 . S
C713 C101 1.515 . S
C718 C154 1.449 . S
C743 C120 1.514 . S
C748 C174 1.448 . S
C778 C194 1.448 . S
C773 C139 1.514 . S
C808 C214 1.449 . S
C803 C82 1.515 . S
C833 C25 1.516 . S
C838 C156 1.449 . S
C868 C176 1.449 . S
C863 C44 1.516 . S
C898 C196 1.449 . S
C893 C63 1.516 . S
C923 C6 1.516 . S
C928 C216 1.449 . S
