# Generated by pormake.
# Topology nom, (4,4)-cn, num edge types: 1
# Building blocks:
#     Node 0, Type 0, BuildingBlock: AZAVOO_clean_linker_0, # of connection points: 4
#     Node 1, Type 0, BuildingBlock: AZAVOO_clean_linker_0, # of connection points: 4
#     Node 2, Type 0, BuildingBlock: AZAVOO_clean_linker_0, # of connection points: 4
#     Node 3, Type 0, BuildingBlock: AZAVOO_clean_linker_0, # of connection points: 4
#     Node 4, Type 0, BuildingBlock: AZAVOO_clean_linker_0, # of connection points: 4
#     Node 5, Type 0, BuildingBlock: AZAVOO_clean_linker_0, # of connection points: 4
#     Node 6, Type 1, BuildingBlock: QUQFOY_clean_sbu_1, # of connection points: 4
#     Node 7, Type 1, BuildingBlock: QUQFOY_clean_sbu_1, # of connection points: 4
#     Node 8, Type 1, BuildingBlock: QUQFOY_clean_sbu_1, # of connection points: 4
#     Node 9, Type 1, BuildingBlock: QUQFOY_clean_sbu_1, # of connection points: 4
#     Node 10, Type 1, BuildingBlock: QUQFOY_clean_sbu_1, # of connection points: 4
#     Node 11, Type 1, BuildingBlock: QUQFOY_clean_sbu_1, # of connection points: 4
#     Edge 12, Type (0, 1), BuildingBlock: XUDNAN_clean_linker_2, # of connection points: 2
#     Edge 13, Type (0, 1), BuildingBlock: XUDNAN_clean_linker_2, # of connection points: 2
#     Edge 14, Type (0, 1), BuildingBlock: XUDNAN_clean_linker_2, # of connection points: 2
#     Edge 15, Type (0, 1), BuildingBlock: XUDNAN_clean_linker_2, # of connection points: 2
#     Edge 16, Type (0, 1), BuildingBlock: XUDNAN_clean_linker_2, # of connection points: 2
#     Edge 17, Type (0, 1), BuildingBlock: XUDNAN_clean_linker_2, # of connection points: 2
#     Edge 18, Type (0, 1), BuildingBlock: XUDNAN_clean_linker_2, # of connection points: 2
#     Edge 19, Type (0, 1), BuildingBlock: XUDNAN_clean_linker_2, # of connection points: 2
#     Edge 20, Type (0, 1), BuildingBlock: XUDNAN_clean_linker_2, # of connection points: 2
#     Edge 21, Type (0, 1), BuildingBlock: XUDNAN_clean_linker_2, # of connection points: 2
#     Edge 22, Type (0, 1), BuildingBlock: XUDNAN_clean_linker_2, # of connection points: 2
#     Edge 23, Type (0, 1), BuildingBlock: XUDNAN_clean_linker_2, # of connection points: 2
#     Edge 24, Type (0, 1), BuildingBlock: XUDNAN_clean_linker_2, # of connection points: 2
#     Edge 25, Type (0, 1), BuildingBlock: XUDNAN_clean_linker_2, # of connection points: 2
#     Edge 26, Type (0, 1), BuildingBlock: XUDNAN_clean_linker_2, # of connection points: 2
#     Edge 27, Type (0, 1), BuildingBlock: XUDNAN_clean_linker_2, # of connection points: 2
#     Edge 28, Type (0, 1), BuildingBlock: XUDNAN_clean_linker_2, # of connection points: 2
#     Edge 29, Type (0, 1), BuildingBlock: XUDNAN_clean_linker_2, # of connection points: 2
#     Edge 30, Type (0, 1), BuildingBlock: XUDNAN_clean_linker_2, # of connection points: 2
#     Edge 31, Type (0, 1), BuildingBlock: XUDNAN_clean_linker_2, # of connection points: 2
#     Edge 32, Type (0, 1), BuildingBlock: XUDNAN_clean_linker_2, # of connection points: 2
#     Edge 33, Type (0, 1), BuildingBlock: XUDNAN_clean_linker_2, # of connection points: 2
#     Edge 34, Type (0, 1), BuildingBlock: XUDNAN_clean_linker_2, # of connection points: 2
#     Edge 35, Type (0, 1), BuildingBlock: XUDNAN_clean_linker_2, # of connection points: 2
# Relax obj value: 0.179
# Max RMSD: 0.248
# Mean RMSD: 0.188
data_MOF--net-nom--node1-QUQFOY_clean_sbu_1--node2-AZAVOO_clean_linker_0--edge1-XUDNAN_clean_linker_2
_symmetry_space_group_name_H-M    P1
_symmetry_Int_Tables_number       1
_symmetry_cell_setting            triclinic
loop_
_symmetry_equiv_pos_as_xyz
'x, y, z'
_cell_length_a     49.743229
_cell_length_b     51.383621
_cell_length_c     57.303327
_cell_angle_alpha  90.169985
_cell_angle_beta   89.781027
_cell_angle_gamma 120.8769
loop_
_atom_site_label
_atom_site_type_symbol
_atom_site_fract_x
_atom_site_fract_y
_atom_site_fract_z
_atom_type_partial_charge
H0 H 0.06324 0.50844 0.15351 0.0
H1 H 0.21746 0.65608 0.38854 0.0
H2 H 0.9953 0.46575 0.26775 0.0
H3 H 0.95772 0.45038 0.23582 0.0
H4 H 0.94042 0.52215 0.25427 0.0
H5 H 0.97882 0.53791 0.28576 0.0
H6 H 0.06877 0.50132 0.2551 0.0
H7 H 0.0703 0.49893 0.21247 0.0
H8 H 0.03252 0.55805 0.20759 0.0
H9 H 0.03165 0.56067 0.25019 0.0
H10 H 0.12485 0.53668 0.29538 0.0
H11 H 0.17762 0.56915 0.2797 0.0
H12 H 0.14851 0.62799 0.2498 0.0
H13 H 0.09666 0.59662 0.26698 0.0
H14 H 0.10455 0.52503 0.3441 0.0
H15 H 0.15073 0.5528 0.36897 0.0
H16 H 0.15699 0.63706 0.34967 0.0
H17 H 0.11055 0.60893 0.32509 0.0
H18 H 0.04084 0.49061 0.36008 0.0
H19 H 0.05863 0.49841 0.40032 0.0
H20 H 0.06826 0.58709 0.39966 0.0
H21 H 0.05292 0.57979 0.35873 0.0
H22 H 0.96724 0.4608 0.31789 0.0
H23 H 0.91554 0.44249 0.33488 0.0
H24 H 0.94832 0.53183 0.36377 0.0
H25 H 0.99808 0.55045 0.3442 0.0
O26 O 0.06267 0.50989 0.17032 0.0
O27 O 0.04283 0.54001 0.16878 0.0
O28 O 0.19523 0.60065 0.38785 0.0
O29 O 0.19946 0.6446 0.37854 0.0
C30 C 0.01889 0.51763 0.29317 0.0
C31 C 0.04831 0.53173 0.2816 0.0
C32 C 0.07627 0.54716 0.29458 0.0
C33 C 0.07491 0.54792 0.31912 0.0
C34 C 0.04562 0.53383 0.33071 0.0
C35 C 0.01744 0.51911 0.3178 0.0
C36 C 0.99 0.50313 0.27886 0.0
C37 C 0.98261 0.4775 0.26535 0.0
C38 C 0.96109 0.46873 0.24714 0.0
C39 C 0.94653 0.48541 0.24229 0.0
C40 C 0.95174 0.50923 0.25735 0.0
C41 C 0.97337 0.51806 0.2755 0.0
C42 C 0.04989 0.53097 0.25571 0.0
C43 C 0.06098 0.51384 0.24477 0.0
C44 C 0.06175 0.51246 0.22043 0.0
C45 C 0.05143 0.52821 0.20662 0.0
C46 C 0.04057 0.54558 0.21769 0.0
C47 C 0.03995 0.54705 0.24202 0.0
C48 C 0.10701 0.56443 0.28249 0.0
C49 C 0.12994 0.55655 0.28536 0.0
C50 C 0.15999 0.57498 0.27616 0.0
C51 C 0.16749 0.60141 0.26364 0.0
C52 C 0.14383 0.60823 0.25978 0.0
C53 C 0.11403 0.59011 0.26933 0.0
C54 C 0.10423 0.565 0.33287 0.0
C55 C 0.11601 0.5495 0.34523 0.0
C56 C 0.14236 0.56541 0.35942 0.0
C57 C 0.1575 0.59717 0.36136 0.0
C58 C 0.14588 0.61263 0.3486 0.0
C59 C 0.11946 0.59666 0.33448 0.0
C60 C 0.04547 0.53454 0.35655 0.0
C61 C 0.04573 0.51125 0.36893 0.0
C62 C 0.05601 0.51587 0.39204 0.0
C63 C 0.06558 0.54372 0.40331 0.0
C64 C 0.06208 0.56575 0.39143 0.0
C65 C 0.0526 0.56138 0.36815 0.0
C66 C 0.9867 0.507 0.32987 0.0
C67 C 0.96306 0.47641 0.32775 0.0
C68 C 0.93354 0.46589 0.33781 0.0
C69 C 0.92726 0.48557 0.35078 0.0
C70 C 0.95156 0.51596 0.35348 0.0
C71 C 0.98056 0.52662 0.34273 0.0
C72 C 0.05201 0.52647 0.18078 0.0
C73 C 0.18519 0.61413 0.37671 0.0
H74 H 0.46612 0.07279 0.32449 0.0
H75 H 0.47878 0.21678 0.56133 0.0
H76 H 0.48639 0.02938 0.44662 0.0
H77 H 0.48776 0.98929 0.42484 0.0
H78 H 0.3876 0.93165 0.43329 0.0
H79 H 0.38643 0.97242 0.45528 0.0
H80 H 0.4935 0.08135 0.42433 0.0
H81 H 0.49155 0.08258 0.38172 0.0
H82 H 0.39031 0.03166 0.3847 0.0
H83 H 0.39264 0.03091 0.42735 0.0
H84 H 0.51395 0.12359 0.46122 0.0
H85 H 0.53665 0.17102 0.43957 0.0
H86 H 0.44359 0.15476 0.42648 0.0
H87 H 0.42118 0.10629 0.44719 0.0
H88 H 0.509 0.11516 0.51485 0.0
H89 H 0.52539 0.16013 0.53909 0.0
H90 H 0.43774 0.15535 0.52443 0.0
H91 H 0.42148 0.11013 0.50049 0.0
H92 H 0.49001 0.04741 0.52444 0.0
H93 H 0.50861 0.06016 0.56434 0.0
H94 H 0.43256 0.0751 0.58055 0.0
H95 H 0.41434 0.06265 0.54009 0.0
H96 H 0.46699 0.99547 0.49231 0.0
H97 H 0.44789 0.94514 0.50855 0.0
H98 H 0.36566 0.94409 0.53481 0.0
H99 H 0.38406 0.99358 0.51696 0.0
O100 O 0.46636 0.07208 0.34135 0.0
O101 O 0.41437 0.04573 0.34384 0.0
O102 O 0.51779 0.20077 0.55851 0.0
O103 O 0.47303 0.19923 0.55163 0.0
C104 C 0.43699 0.02851 0.46619 0.0
C105 C 0.44421 0.05566 0.45476 0.0
C106 C 0.45291 0.08208 0.46786 0.0
C107 C 0.45335 0.08108 0.49244 0.0
C108 C 0.44498 0.05356 0.50397 0.0
C109 C 0.43634 0.0271 0.49084 0.0
C110 C 0.43632 0.00379 0.45238 0.0
C111 C 0.4647 0.00815 0.4437 0.0
C112 C 0.46549 0.98511 0.43153 0.0
C113 C 0.43785 0.95724 0.42768 0.0
C114 C 0.40923 0.95295 0.43612 0.0
C115 C 0.4085 0.97609 0.44857 0.0
C116 C 0.44321 0.0564 0.42889 0.0
C117 C 0.47094 0.07074 0.41575 0.0
C118 C 0.46975 0.07128 0.39141 0.0
C119 C 0.44077 0.05731 0.37979 0.0
C120 C 0.41302 0.04272 0.39309 0.0
C121 C 0.41426 0.04225 0.41743 0.0
C122 C 0.46598 0.11165 0.45578 0.0
C123 C 0.49853 0.1304 0.45371 0.0
C124 C 0.51143 0.15761 0.44142 0.0
C125 C 0.49204 0.16698 0.43127 0.0
C126 C 0.45929 0.14814 0.43368 0.0
C127 C 0.44638 0.1206 0.44571 0.0
C128 C 0.46398 0.10932 0.50609 0.0
C129 C 0.4934 0.12389 0.51691 0.0
C130 C 0.5027 0.14957 0.53072 0.0
C131 C 0.48281 0.16127 0.53377 0.0
C132 C 0.45357 0.14689 0.52251 0.0
C133 C 0.44426 0.12113 0.50877 0.0
C134 C 0.45086 0.05411 0.52937 0.0
C135 C 0.4767 0.05239 0.5368 0.0
C136 C 0.48732 0.05974 0.55969 0.0
C137 C 0.47222 0.0689 0.57567 0.0
C138 C 0.44498 0.06858 0.56858 0.0
C139 C 0.43435 0.0612 0.54558 0.0
C140 C 0.42656 0.99792 0.50292 0.0
C141 C 0.44472 0.98424 0.50139 0.0
C142 C 0.4339 0.95555 0.51102 0.0
C143 C 0.40498 0.9402 0.52289 0.0
C144 C 0.38762 0.95475 0.52532 0.0
C145 C 0.39825 0.98323 0.51535 0.0
C146 C 0.43957 0.05795 0.35394 0.0
C147 C 0.49238 0.18828 0.54872 0.0
H148 H 0.58646 0.5695 0.80662 0.0
H149 H 0.58206 0.43182 0.55904 0.0
H150 H 0.55867 0.60966 0.69561 0.0
H151 H 0.53357 0.62203 0.72675 0.0
H152 H 0.4428 0.55236 0.70143 0.0
H153 H 0.46831 0.538 0.67225 0.0
H154 H 0.5991 0.5774 0.70498 0.0
H155 H 0.60334 0.57947 0.74757 0.0
H156 H 0.50296 0.51985 0.75305 0.0
H157 H 0.49913 0.5176 0.71047 0.0
H158 H 0.6183 0.54149 0.66604 0.0
H159 H 0.63448 0.50706 0.68075 0.0
H160 H 0.54118 0.44865 0.70843 0.0
H161 H 0.52473 0.48175 0.69175 0.0
H162 H 0.61501 0.55409 0.62204 0.0
H163 H 0.63174 0.52871 0.59441 0.0
H164 H 0.54094 0.44688 0.60042 0.0
H165 H 0.5246 0.47256 0.62809 0.0
H166 H 0.58613 0.57991 0.59811 0.0
H167 H 0.59255 0.56156 0.56083 0.0
H168 H 0.49692 0.48618 0.56513 0.0
H169 H 0.49272 0.50259 0.60392 0.0
H170 H 0.54118 0.61564 0.63198 0.0
H171 H 0.507 0.62996 0.61168 0.0
H172 H 0.43465 0.53542 0.60758 0.0
H173 H 0.46837 0.52157 0.628 0.0
O174 O 0.58427 0.56817 0.78983 0.0
O175 O 0.53256 0.53764 0.7917 0.0
O176 O 0.62264 0.48477 0.56795 0.0
O177 O 0.57665 0.44186 0.57086 0.0
C178 C 0.53072 0.55988 0.66737 0.0
C179 C 0.54643 0.54693 0.67878 0.0
C180 C 0.55891 0.53224 0.66565 0.0
C181 C 0.55706 0.53178 0.64112 0.0
C182 C 0.54162 0.54485 0.62969 0.0
C183 C 0.52764 0.55811 0.64279 0.0
C184 C 0.5154 0.57284 0.68166 0.0
C185 C 0.53333 0.5975 0.69656 0.0
C186 C 0.51884 0.60466 0.71431 0.0
C187 C 0.48606 0.58776 0.71703 0.0
C188 C 0.46812 0.56523 0.70042 0.0
C189 C 0.48266 0.55743 0.68324 0.0
C190 C 0.54881 0.5476 0.70466 0.0
C191 C 0.57809 0.56473 0.71543 0.0
C192 C 0.58042 0.56592 0.73975 0.0
C193 C 0.55347 0.54992 0.75372 0.0
C194 C 0.52417 0.53251 0.74282 0.0
C195 C 0.5219 0.53127 0.71851 0.0
C196 C 0.57023 0.51395 0.67753 0.0
C197 C 0.6014 0.52118 0.67522 0.0
C198 C 0.61068 0.50159 0.68392 0.0
C199 C 0.58908 0.4747 0.69559 0.0
C200 C 0.55831 0.46858 0.69898 0.0
C201 C 0.54892 0.48777 0.68979 0.0
C202 C 0.56867 0.5151 0.6271 0.0
C203 C 0.59902 0.5305 0.61772 0.0
C204 C 0.60842 0.51601 0.60182 0.0
C205 C 0.58759 0.48581 0.59508 0.0
C206 C 0.55754 0.47015 0.60519 0.0
C207 C 0.5482 0.48468 0.6211 0.0
C208 C 0.53912 0.5425 0.6039 0.0
C209 C 0.56616 0.56009 0.59053 0.0
C210 C 0.56976 0.54934 0.56904 0.0
C211 C 0.54572 0.52138 0.56016 0.0
C212 C 0.51665 0.50684 0.57187 0.0
C213 C 0.51367 0.51684 0.59384 0.0
C214 C 0.50751 0.5675 0.6309 0.0
C215 C 0.51796 0.59814 0.6266 0.0
C216 C 0.49844 0.60625 0.61512 0.0
C217 C 0.4684 0.58374 0.60768 0.0
C218 C 0.45796 0.55321 0.61253 0.0
C219 C 0.47724 0.54523 0.6241 0.0
C220 C 0.55601 0.55145 0.77955 0.0
C221 C 0.59684 0.47087 0.57721 0.0
H222 H 0.97489 0.3892 0.96623 0.0
H223 H 0.2243 0.55509 0.7601 0.0
H224 H 0.95753 0.43535 0.82972 0.0
H225 H 0.91283 0.41316 0.85588 0.0
H226 H 0.92866 0.33962 0.87057 0.0
H227 H 0.97159 0.3605 0.84228 0.0
H228 H 0.99735 0.44507 0.87406 0.0
H229 H 0.98433 0.42702 0.91428 0.0
H230 H 0.02843 0.37392 0.90426 0.0
H231 H 0.04069 0.39165 0.86384 0.0
H232 H 0.06351 0.48763 0.86891 0.0
H233 H 0.1077 0.51434 0.89541 0.0
H234 H 0.15323 0.47144 0.86187 0.0
H235 H 0.10753 0.4428 0.837 0.0
H236 H 0.08989 0.52071 0.81247 0.0
H237 H 0.1417 0.55896 0.79785 0.0
H238 H 0.1584 0.48766 0.77639 0.0
H239 H 0.10651 0.44973 0.79102 0.0
H240 H 0.02887 0.49516 0.78065 0.0
H241 H 0.05399 0.52893 0.74769 0.0
H242 H 0.09136 0.47314 0.72529 0.0
H243 H 0.06333 0.43798 0.75696 0.0
H244 H 0.97522 0.45756 0.78991 0.0
H245 H 0.92712 0.43716 0.76741 0.0
H246 H 0.93017 0.35584 0.75372 0.0
H247 H 0.97773 0.37616 0.77729 0.0
O248 O 0.98062 0.39631 0.95036 0.0
O249 O 0.00483 0.3705 0.94471 0.0
O250 O 0.19431 0.57634 0.77785 0.0
O251 O 0.20395 0.54051 0.76637 0.0
C252 C 0.00054 0.41837 0.82507 0.0
C253 C 0.02572 0.42886 0.84107 0.0
C254 C 0.0566 0.44939 0.83367 0.0
C255 C 0.06241 0.45945 0.81032 0.0
C256 C 0.0373 0.44955 0.79443 0.0
C257 C 0.00637 0.42887 0.80174 0.0
C258 C 0.96797 0.39964 0.83404 0.0
C259 C 0.95012 0.41339 0.83724 0.0
C260 C 0.92497 0.401 0.85276 0.0
C261 C 0.91799 0.37529 0.86605 0.0
C262 C 0.93347 0.35952 0.86074 0.0
C263 C 0.95808 0.37146 0.84456 0.0
C264 C 0.01964 0.41939 0.86597 0.0
C265 C 0.00411 0.42949 0.88057 0.0
C266 C 0.99677 0.41919 0.90356 0.0
C267 C 0.00524 0.39893 0.91247 0.0
C268 C 0.02149 0.38944 0.89792 0.0
C269 C 0.02861 0.3996 0.87487 0.0
C270 C 0.0824 0.46341 0.85095 0.0
C271 C 0.08271 0.48344 0.86774 0.0
C272 C 0.10823 0.49901 0.88266 0.0
C273 C 0.1344 0.49549 0.88066 0.0
C274 C 0.13347 0.47455 0.86425 0.0
C275 C 0.10753 0.45841 0.84973 0.0
C276 C 0.09462 0.48256 0.80286 0.0
C277 C 0.10493 0.51348 0.80479 0.0
C278 C 0.13446 0.53523 0.79636 0.0
C279 C 0.15418 0.52635 0.78591 0.0
C280 C 0.14383 0.49528 0.78432 0.0
C281 C 0.11428 0.47358 0.79273 0.0
C282 C 0.04396 0.46392 0.77107 0.0
C283 C 0.04095 0.48931 0.76782 0.0
C284 C 0.05618 0.50912 0.74928 0.0
C285 C 0.07565 0.50448 0.73408 0.0
C286 C 0.07652 0.4776 0.73638 0.0
C287 C 0.06045 0.45731 0.75454 0.0
C288 C 0.97993 0.41833 0.78522 0.0
C289 C 0.96584 0.43561 0.78165 0.0
C290 C 0.93832 0.42389 0.76866 0.0
C291 C 0.92452 0.39471 0.75876 0.0
C292 C 0.93974 0.37813 0.76143 0.0
C293 C 0.96707 0.38977 0.7747 0.0
C294 C 0.99698 0.38769 0.93679 0.0
C295 C 0.18533 0.54932 0.77653 0.0
H296 H 0.44006 0.99188 0.83741 0.0
H297 H 0.41971 0.85284 0.08032 0.0
H298 H 0.46549 0.06378 0.94573 0.0
H299 H 0.49467 0.10232 0.91628 0.0
H300 H 0.58147 0.12193 0.94901 0.0
H301 H 0.55218 0.08062 0.97607 0.0
H302 H 0.42223 0.99281 0.93828 0.0
H303 H 0.42027 0.98897 0.89567 0.0
H304 H 0.51989 0.02321 0.89395 0.0
H305 H 0.52143 0.0266 0.93658 0.0
H306 H 0.39955 0.93982 0.96977 0.0
H307 H 0.38393 0.88988 0.95327 0.0
H308 H 0.48159 0.91597 0.94937 0.0
H309 H 0.49658 0.96582 0.96439 0.0
H310 H 0.40534 0.96048 0.02716 0.0
H311 H 0.38395 0.91667 0.05333 0.0
H312 H 0.46442 0.90784 0.03938 0.0
H313 H 0.48552 0.9517 0.01333 0.0
H314 H 0.44592 0.01808 0.05345 0.0
H315 H 0.45215 0.00654 0.09411 0.0
H316 H 0.53173 0.99952 0.07329 0.0
H317 H 0.52474 0.00989 0.03306 0.0
H318 H 0.48242 0.09059 0.00389 0.0
H319 H 0.51825 0.14173 0.01859 0.0
H320 H 0.58056 0.11206 0.0428 0.0
H321 H 0.54725 0.0632 0.02513 0.0
O322 O 0.44135 0.99346 0.85424 0.0
O323 O 0.49262 0.01126 0.85429 0.0
O324 O 0.38513 0.87368 0.07477 0.0
O325 O 0.42712 0.86958 0.06948 0.0
C326 C 0.48921 0.04124 0.97757 0.0
C327 C 0.47295 0.01255 0.96634 0.0
C328 C 0.45929 0.98572 0.97966 0.0
C329 C 0.46094 0.98728 0.00416 0.0
C330 C 0.47818 0.01565 0.01543 0.0
C331 C 0.49214 0.04279 0.00225 0.0
C332 C 0.50658 0.06911 0.96305 0.0
C333 C 0.49083 0.07657 0.94655 0.0
C334 C 0.50768 0.09896 0.92981 0.0
C335 C 0.5407 0.11511 0.92977 0.0
C336 C 0.55619 0.10935 0.94775 0.0
C337 C 0.53939 0.08613 0.96377 0.0
C338 C 0.472 0.01024 0.94046 0.0
C339 C 0.44358 0.99942 0.92865 0.0
C340 C 0.44255 0.9973 0.90432 0.0
C341 C 0.46995 0.00589 0.89139 0.0
C342 C 0.49837 0.01649 0.90336 0.0
C343 C 0.49934 0.01853 0.92769 0.0
C344 C 0.44915 0.95633 0.96808 0.0
C345 C 0.41741 0.93472 0.96486 0.0
C346 C 0.4086 0.90617 0.95563 0.0
C347 C 0.43145 0.89873 0.94988 0.0
C348 C 0.46326 0.92089 0.95292 0.0
C349 C 0.47197 0.94941 0.96172 0.0
C350 C 0.44678 0.95902 0.01823 0.0
C351 C 0.41807 0.94877 0.02956 0.0
C352 C 0.406 0.92385 0.04456 0.0
C353 C 0.42253 0.90879 0.04849 0.0
C354 C 0.4511 0.91889 0.03676 0.0
C355 C 0.4631 0.9438 0.02175 0.0
C356 C 0.48549 0.01573 0.04048 0.0
C357 C 0.46528 0.01505 0.05792 0.0
C358 C 0.46871 0.00824 0.08098 0.0
C359 C 0.49266 0.00253 0.0868 0.0
C360 C 0.51356 0.00453 0.06941 0.0
C361 C 0.50971 0.01062 0.04645 0.0
C362 C 0.51162 0.07266 0.01398 0.0
C363 C 0.5038 0.09526 0.0125 0.0
C364 C 0.52427 0.12447 0.02111 0.0
C365 C 0.55268 0.13144 0.03183 0.0
C366 C 0.55949 0.10815 0.03419 0.0
C367 C 0.53974 0.07953 0.02478 0.0
C368 C 0.46879 0.00374 0.86554 0.0
C369 C 0.41034 0.88294 0.06501 0.0
H370 H 0.62963 0.60686 0.99367 0.0
H371 H 0.78109 0.58848 0.22704 0.0
H372 H 0.58368 0.61345 0.13121 0.0
H373 H 0.54835 0.61263 0.10191 0.0
H374 H 0.62391 0.69552 0.07239 0.0
H375 H 0.65854 0.69778 0.10369 0.0
H376 H 0.61621 0.59638 0.09519 0.0
H377 H 0.6133 0.59289 0.05257 0.0
H378 H 0.70429 0.67479 0.0479 0.0
H379 H 0.70666 0.67816 0.09057 0.0
H380 H 0.64829 0.56972 0.12456 0.0
H381 H 0.6666 0.54138 0.10193 0.0
H382 H 0.75698 0.62324 0.09371 0.0
H383 H 0.73793 0.65154 0.11588 0.0
H384 H 0.65186 0.57724 0.18226 0.0
H385 H 0.67656 0.55644 0.20672 0.0
H386 H 0.76766 0.633 0.18918 0.0
H387 H 0.74255 0.65383 0.16513 0.0
H388 H 0.6141 0.60606 0.19764 0.0
H389 H 0.61554 0.5912 0.23774 0.0
H390 H 0.71413 0.659 0.24125 0.0
H391 H 0.7119 0.67495 0.20159 0.0
H392 H 0.58509 0.62357 0.17005 0.0
H393 H 0.55623 0.6442 0.18877 0.0
H394 H 0.64273 0.73011 0.19755 0.0
H395 H 0.67073 0.70978 0.17638 0.0
O396 O 0.63129 0.60862 0.01046 0.0
O397 O 0.6783 0.65056 0.00902 0.0
O398 O 0.72331 0.55736 0.22594 0.0
O399 O 0.77074 0.59597 0.21719 0.0
C400 C 0.64592 0.65135 0.13365 0.0
C401 C 0.6629 0.64019 0.1217 0.0
C402 C 0.67953 0.62951 0.1343 0.0
C403 C 0.68015 0.63081 0.15882 0.0
C404 C 0.66429 0.64316 0.17086 0.0
C405 C 0.64695 0.65324 0.1583 0.0
C406 C 0.62347 0.65615 0.12014 0.0
C407 C 0.59211 0.63263 0.11956 0.0
C408 C 0.57218 0.6317 0.10223 0.0
C409 C 0.58355 0.65353 0.08438 0.0
C410 C 0.61438 0.67838 0.0859 0.0
C411 C 0.63419 0.67976 0.1038 0.0
C412 C 0.66153 0.63763 0.09587 0.0
C413 C 0.63543 0.61355 0.0849 0.0
C414 C 0.63387 0.61161 0.06057 0.0
C415 C 0.65855 0.6336 0.04682 0.0
C416 C 0.68486 0.65751 0.05797 0.0
C417 C 0.68631 0.65948 0.0823 0.0
C418 C 0.69189 0.61254 0.12187 0.0
C419 C 0.6721 0.58141 0.11796 0.0
C420 C 0.68265 0.56529 0.1051 0.0
C421 C 0.71326 0.58004 0.09599 0.0
C422 C 0.73314 0.6113 0.10019 0.0
C423 C 0.72248 0.62745 0.11302 0.0
C424 C 0.69544 0.61708 0.17204 0.0
C425 C 0.67715 0.5894 0.18367 0.0
C426 C 0.69132 0.57759 0.19762 0.0
C427 C 0.72411 0.59312 0.19996 0.0
C428 C 0.74237 0.62051 0.1878 0.0
C429 C 0.72813 0.63239 0.17396 0.0
C430 C 0.6629 0.64157 0.19669 0.0
C431 C 0.63556 0.61885 0.20749 0.0
C432 C 0.63662 0.60996 0.23027 0.0
C433 C 0.66516 0.62333 0.24244 0.0
C434 C 0.69176 0.64824 0.23242 0.0
C435 C 0.69055 0.65744 0.20973 0.0
C436 C 0.62978 0.6655 0.17099 0.0
C437 C 0.59763 0.64711 0.17537 0.0
C438 C 0.58128 0.65885 0.1867 0.0
C439 C 0.59694 0.68904 0.19477 0.0
C440 C 0.62955 0.70706 0.19112 0.0
C441 C 0.64574 0.69544 0.17918 0.0
C442 C 0.65676 0.63154 0.02098 0.0
C443 C 0.73923 0.58096 0.21514 0.0
O444 O 0.61478 0.43948 0.4182 0.0
Cd445 Cd 0.62874 0.43004 0.38698 0.0
Cd446 Cd 0.68489 0.46712 0.40549 0.0
O447 O 0.66098 0.46489 0.43548 0.0
O448 O 0.59117 0.39244 0.37521 0.0
O449 O 0.63419 0.39402 0.38744 0.0
C450 C 0.60565 0.37831 0.38013 0.0
C451 C 0.72653 0.45874 0.40373 0.0
C452 C 0.63142 0.45309 0.43593 0.0
C453 C 0.66718 0.48936 0.36333 0.0
O454 O 0.68548 0.49583 0.38056 0.0
O455 O 0.64371 0.46266 0.36098 0.0
O456 O 0.72996 0.48353 0.41227 0.0
O457 O 0.69883 0.43775 0.3974 0.0
O458 O 0.23415 0.61717 0.6018 0.0
Cd459 Cd 0.2578 0.62671 0.57069 0.0
Cd460 Cd 0.24626 0.67284 0.56982 0.0
O461 O 0.22657 0.65596 0.60236 0.0
O462 O 0.27473 0.59907 0.56941 0.0
O463 O 0.30525 0.649 0.56975 0.0
C464 C 0.30247 0.62262 0.56903 0.0
C465 C 0.28416 0.724 0.56524 0.0
C466 C 0.22315 0.63195 0.61162 0.0
C467 C 0.21494 0.62489 0.53317 0.0
O468 O 0.21902 0.64975 0.54117 0.0
O469 O 0.22901 0.6126 0.5421 0.0
O470 O 0.25483 0.71512 0.56713 0.0
O471 O 0.29213 0.70372 0.56634 0.0
O472 O 0.63635 0.22962 0.7698 0.0
Cd473 Cd 0.64702 0.24215 0.73549 0.0
Cd474 Cd 0.59685 0.24852 0.74039 0.0
O475 O 0.59417 0.23294 0.77412 0.0
O476 O 0.68935 0.24726 0.7323 0.0
O477 O 0.6805 0.28483 0.72714 0.0
C478 C 0.70016 0.27554 0.72807 0.0
C479 C 0.60457 0.29652 0.73414 0.0
C480 C 0.61393 0.22675 0.7824 0.0
C481 C 0.59217 0.20382 0.70448 0.0
O482 O 0.57899 0.217 0.71366 0.0
O483 O 0.61947 0.21053 0.71076 0.0
O484 O 0.57703 0.27366 0.73855 0.0
O485 O 0.62789 0.29208 0.73347 0.0
O486 O 0.47507 0.67372 0.93618 0.0
Cd487 Cd 0.4544 0.68234 0.90834 0.0
Cd488 Cd 0.40438 0.62568 0.91813 0.0
O489 O 0.43418 0.62837 0.94396 0.0
O490 O 0.46713 0.72607 0.9063 0.0
O491 O 0.41963 0.68908 0.91634 0.0
C492 C 0.43885 0.71757 0.91273 0.0
C493 C 0.35141 0.60637 0.92614 0.0
C494 C 0.46198 0.64958 0.94832 0.0
C495 C 0.43438 0.63686 0.87015 0.0
O496 O 0.41375 0.61884 0.88454 0.0
O497 O 0.45372 0.66416 0.87592 0.0
O498 O 0.36271 0.58877 0.92483 0.0
O499 O 0.37051 0.63511 0.92391 0.0
O500 O 0.81417 0.36193 0.03273 0.0
Cd501 Cd 0.79287 0.36582 0.0625 0.0
Cd502 Cd 0.81253 0.42142 0.04499 0.0
O503 O 0.82411 0.4048 0.01648 0.0
O504 O 0.76386 0.32312 0.07157 0.0
O505 O 0.74767 0.35394 0.05992 0.0
C506 C 0.7411 0.32714 0.06615 0.0
C507 C 0.78709 0.44835 0.04044 0.0
C508 C 0.82406 0.38009 0.01555 0.0
C509 C 0.83812 0.41812 0.09165 0.0
O510 O 0.84025 0.43421 0.07416 0.0
O511 O 0.81929 0.38959 0.09128 0.0
O512 O 0.81582 0.45959 0.03406 0.0
O513 O 0.77211 0.42094 0.04839 0.0
O514 O 0.49155 0.87074 0.22956 0.0
Cd515 Cd 0.48476 0.83936 0.25485 0.0
Cd516 Cd 0.42453 0.82256 0.24901 0.0
O517 O 0.44174 0.85392 0.22245 0.0
O518 O 0.52041 0.83215 0.25261 0.0
O519 O 0.47082 0.79648 0.24649 0.0
C520 C 0.5 0.8044 0.24739 0.0
C521 C 0.37917 0.77573 0.24289 0.0
C522 C 0.47053 0.8723 0.21818 0.0
C523 C 0.45397 0.8475 0.29613 0.0
O524 O 0.43054 0.83857 0.28274 0.0
O525 O 0.47875 0.84875 0.28878 0.0
O526 O 0.37831 0.80022 0.24532 0.0
O527 O 0.40619 0.77789 0.24317 0.0
H528 H 0.19815 0.66339 0.26427 0.0
H529 H 0.21148 0.58849 0.24672 0.0
H530 H 0.26702 0.62503 0.23734 0.0
H531 H 0.24876 0.71456 0.21819 0.0
H532 H 0.2626 0.74751 0.23658 0.0
H533 H 0.22374 0.71531 0.2407 0.0
H534 H 0.2364 0.71235 0.28412 0.0
H535 H 0.27528 0.74439 0.28013 0.0
H536 H 0.26991 0.70925 0.29127 0.0
H537 H 0.32244 0.67035 0.23275 0.0
H538 H 0.37191 0.72018 0.23232 0.0
H539 H 0.32011 0.76423 0.25079 0.0
C540 C 0.21236 0.65451 0.25785 0.0
C541 C 0.20027 0.62298 0.25615 0.0
C542 C 0.22021 0.61252 0.2484 0.0
C543 C 0.25174 0.6331 0.24286 0.0
C544 C 0.26286 0.66404 0.24494 0.0
C545 C 0.24361 0.67463 0.25205 0.0
C546 C 0.26125 0.70881 0.25369 0.0
C547 C 0.24832 0.72234 0.23624 0.0
C548 C 0.26068 0.7193 0.27879 0.0
C549 C 0.29364 0.71589 0.24679 0.0
C550 C 0.29424 0.68987 0.24177 0.0
C551 C 0.32213 0.69089 0.23631 0.0
C552 C 0.35009 0.71924 0.23614 0.0
C553 C 0.34979 0.74607 0.2413 0.0
C554 C 0.32109 0.74421 0.2464 0.0
H555 H 0.54675 0.22032 0.44111 0.0
H556 H 0.46927 0.18038 0.39212 0.0
H557 H 0.49218 0.22936 0.37152 0.0
H558 H 0.55505 0.29199 0.44517 0.0
H559 H 0.59722 0.31245 0.44652 0.0
H560 H 0.57509 0.27398 0.4568 0.0
H561 H 0.60604 0.25908 0.42876 0.0
H562 H 0.6282 0.29754 0.41829 0.0
H563 H 0.60706 0.26677 0.398 0.0
H564 H 0.52154 0.28402 0.35828 0.0
H565 H 0.55538 0.33956 0.35331 0.0
H566 H 0.61586 0.34198 0.4086 0.0
C567 C 0.53481 0.2215 0.42576 0.0
C568 C 0.50607 0.19628 0.41835 0.0
C569 C 0.49099 0.19938 0.39848 0.0
C570 C 0.50401 0.22705 0.38647 0.0
C571 C 0.53238 0.25133 0.39428 0.0
C572 C 0.54769 0.24871 0.41337 0.0
C573 C 0.57745 0.27837 0.41867 0.0
C574 C 0.5761 0.28987 0.44324 0.0
C575 C 0.6064 0.27524 0.41575 0.0
C576 C 0.57619 0.29833 0.39988 0.0
C577 C 0.55001 0.28235 0.38596 0.0
C578 C 0.54244 0.29662 0.36874 0.0
C579 C 0.56177 0.32812 0.36602 0.0
C580 C 0.58852 0.34487 0.38025 0.0
C581 C 0.59611 0.32959 0.397 0.0
H582 H 0.45386 0.62739 0.61856 0.0
H583 H 0.43509 0.55671 0.56835 0.0
H584 H 0.39465 0.56386 0.54997 0.0
H585 H 0.37721 0.60739 0.62784 0.0
H586 H 0.38392 0.64527 0.63013 0.0
H587 H 0.41474 0.63815 0.6373 0.0
H588 H 0.45145 0.67864 0.60735 0.0
H589 H 0.42074 0.68606 0.60016 0.0
H590 H 0.43891 0.67589 0.5775 0.0
H591 H 0.35124 0.57228 0.54119 0.0
H592 H 0.30885 0.58389 0.54093 0.0
H593 H 0.35639 0.65134 0.59499 0.0
C594 C 0.4419 0.61416 0.60323 0.0
C595 C 0.44754 0.59146 0.59488 0.0
C596 C 0.43094 0.57405 0.57513 0.0
C597 C 0.40808 0.57808 0.56448 0.0
C598 C 0.4023 0.59989 0.57358 0.0
C599 C 0.41894 0.61798 0.59231 0.0
C600 C 0.40622 0.63801 0.59975 0.0
C601 C 0.39484 0.63182 0.62526 0.0
C602 C 0.4308 0.67165 0.59596 0.0
C603 C 0.37906 0.6274 0.58292 0.0
C604 C 0.37746 0.60555 0.56788 0.0
C605 C 0.35267 0.58994 0.5524 0.0
C606 C 0.32868 0.59657 0.55243 0.0
C607 C 0.32982 0.61885 0.5676 0.0
C608 C 0.35559 0.63488 0.58273 0.0
H609 H 0.87655 0.33544 0.76125 0.0
H610 H 0.9009 0.42247 0.73139 0.0
H611 H 0.8466 0.40044 0.71736 0.0
H612 H 0.82205 0.28846 0.71399 0.0
H613 H 0.79628 0.25963 0.73436 0.0
H614 H 0.83774 0.28174 0.74008 0.0
H615 H 0.82641 0.29745 0.78027 0.0
H616 H 0.78504 0.27567 0.77463 0.0
H617 H 0.80341 0.31542 0.78161 0.0
H618 H 0.78791 0.37026 0.71094 0.0
H619 H 0.73074 0.33358 0.71065 0.0
H620 H 0.74651 0.26595 0.74225 0.0
C621 C 0.87092 0.34974 0.75109 0.0
C622 C 0.89317 0.38078 0.74751 0.0
C623 C 0.88426 0.39874 0.73469 0.0
C624 C 0.85351 0.38637 0.72647 0.0
C625 C 0.83204 0.35587 0.73084 0.0
C626 C 0.84054 0.3377 0.74254 0.0
C627 C 0.81281 0.30603 0.74605 0.0
C628 C 0.81751 0.28258 0.73282 0.0
C629 C 0.80656 0.29821 0.77218 0.0
C630 C 0.78716 0.30944 0.73515 0.0
C631 C 0.79863 0.3383 0.7264 0.0
C632 C 0.77877 0.3474 0.71728 0.0
C633 C 0.74636 0.32649 0.71724 0.0
C634 C 0.73427 0.29684 0.72613 0.0
C635 C 0.75509 0.28823 0.73485 0.0
H636 H 0.46258 0.88232 0.91883 0.0
H637 H 0.38084 0.84437 0.96412 0.0
H638 H 0.37015 0.79301 0.95519 0.0
H639 H 0.43323 0.81952 0.87607 0.0
H640 H 0.47088 0.82253 0.87387 0.0
H641 H 0.46858 0.85575 0.88007 0.0
H642 H 0.50184 0.86554 0.91734 0.0
H643 H 0.5041 0.83234 0.91137 0.0
H644 H 0.48896 0.83609 0.939 0.0
H645 H 0.37158 0.74624 0.94488 0.0
H646 H 0.38606 0.70815 0.93522 0.0
H647 H 0.46948 0.77731 0.89965 0.0
C648 C 0.44221 0.86329 0.92674 0.0
C649 C 0.42253 0.86761 0.94215 0.0
C650 C 0.39596 0.84184 0.95186 0.0
C651 C 0.38976 0.81249 0.947 0.0
C652 C 0.41037 0.80924 0.93246 0.0
C653 C 0.43606 0.83396 0.92247 0.0
C654 C 0.45656 0.82476 0.90964 0.0
C655 C 0.45734 0.83101 0.88335 0.0
C656 C 0.48982 0.84062 0.91996 0.0
C657 C 0.43894 0.7911 0.91461 0.0
C658 C 0.41198 0.78247 0.92734 0.0
C659 C 0.39247 0.75268 0.93473 0.0
C660 C 0.40092 0.73123 0.92918 0.0
C661 C 0.42894 0.73982 0.91674 0.0
C662 C 0.44792 0.77008 0.90917 0.0
H663 H 0.70207 0.52278 0.10443 0.0
H664 H 0.7496 0.59839 0.05638 0.0
H665 H 0.76913 0.57016 0.03414 0.0
H666 H 0.76034 0.50419 0.10665 0.0
H667 H 0.73374 0.46377 0.10796 0.0
H668 H 0.72172 0.48908 0.11892 0.0
H669 H 0.67346 0.46416 0.09157 0.0
H670 H 0.68547 0.43885 0.0804 0.0
H671 H 0.67907 0.46236 0.06064 0.0
H672 H 0.78721 0.53575 0.01936 0.0
H673 H 0.80333 0.498 0.01357 0.0
H674 H 0.74156 0.44366 0.06984 0.0
C675 C 0.71603 0.53319 0.08894 0.0
C676 C 0.72428 0.56281 0.08215 0.0
C677 C 0.74328 0.57587 0.0621 0.0
C678 C 0.7542 0.55989 0.04921 0.0
C679 C 0.74566 0.53077 0.05645 0.0
C680 C 0.72693 0.5175 0.07581 0.0
C681 C 0.72263 0.48665 0.08072 0.0
C682 C 0.73538 0.4859 0.10499 0.0
C683 C 0.6881 0.46152 0.07817 0.0
C684 C 0.74252 0.48494 0.06142 0.0
C685 C 0.75543 0.51054 0.04751 0.0
C686 C 0.77679 0.51535 0.02983 0.0
C687 C 0.78579 0.49382 0.02667 0.0
C688 C 0.77329 0.46776 0.04103 0.0
C689 C 0.75078 0.46294 0.05819 0.0
H690 H 0.34359 0.89312 0.52437 0.0
H691 H 0.43807 0.91583 0.54206 0.0
H692 H 0.41764 0.86318 0.55498 0.0
H693 H 0.30593 0.84369 0.57428 0.0
H694 H 0.27144 0.81792 0.55792 0.0
H695 H 0.29367 0.85744 0.55007 0.0
H696 H 0.29963 0.84271 0.5079 0.0
H697 H 0.27759 0.80317 0.51563 0.0
H698 H 0.31626 0.81911 0.50325 0.0
H699 H 0.38686 0.80696 0.56424 0.0
H700 H 0.34782 0.75278 0.57124 0.0
H701 H 0.27356 0.76833 0.55006 0.0
C702 C 0.36006 0.88735 0.53135 0.0
C703 C 0.39258 0.90885 0.53202 0.0
C704 C 0.41316 0.89981 0.54089 0.0
C705 C 0.40174 0.86995 0.54845 0.0
C706 C 0.36962 0.84938 0.54734 0.0
C707 C 0.34906 0.8578 0.53925 0.0
C708 C 0.31559 0.83144 0.53986 0.0
C709 C 0.29548 0.83802 0.55653 0.0
C710 C 0.30145 0.82366 0.51519 0.0
C711 C 0.32055 0.80676 0.54934 0.0
C712 C 0.35188 0.81746 0.55344 0.0
C713 C 0.36222 0.79842 0.56133 0.0
C714 C 0.33992 0.76769 0.5652 0.0
C715 C 0.30767 0.75641 0.56139 0.0
C716 C 0.29801 0.77635 0.55344 0.0
H717 H 0.55221 0.41248 0.69604 0.0
H718 H 0.64625 0.48601 0.71221 0.0
H719 H 0.66097 0.44854 0.72314 0.0
H720 H 0.54615 0.36544 0.74483 0.0
H721 H 0.52362 0.3307 0.72863 0.0
H722 H 0.52106 0.36344 0.7214 0.0
H723 H 0.53648 0.36047 0.67864 0.0
H724 H 0.53927 0.32784 0.68574 0.0
H725 H 0.57226 0.36073 0.67282 0.0
H726 H 0.66567 0.40236 0.73111 0.0
H727 H 0.65875 0.35171 0.73813 0.0
H728 H 0.56053 0.30954 0.71989 0.0
C729 C 0.57579 0.42095 0.70227 0.0
C730 C 0.59801 0.4524 0.70318 0.0
C731 C 0.62883 0.46212 0.71092 0.0
C732 C 0.6374 0.44098 0.71733 0.0
C733 C 0.61482 0.41022 0.71617 0.0
C734 C 0.58456 0.4003 0.70908 0.0
C735 C 0.56443 0.36609 0.70979 0.0
C736 C 0.53721 0.35582 0.7272 0.0
C737 C 0.55241 0.35303 0.68529 0.0
C738 C 0.5881 0.35822 0.71835 0.0
C739 C 0.61715 0.38392 0.7217 0.0
C740 C 0.64295 0.38212 0.72876 0.0
C741 C 0.63884 0.3533 0.73264 0.0
C742 C 0.60906 0.3268 0.72977 0.0
C743 C 0.58347 0.32943 0.72254 0.0
H744 H 0.17699 0.48127 0.89805 0.0
H745 H 0.15856 0.55508 0.89306 0.0
H746 H 0.20915 0.58938 0.91157 0.0
H747 H 0.22472 0.50655 0.95274 0.0
H748 H 0.25147 0.49563 0.9416 0.0
H749 H 0.21094 0.47501 0.93285 0.0
H750 H 0.22785 0.48493 0.88939 0.0
H751 H 0.26827 0.50543 0.89799 0.0
H752 H 0.25317 0.52336 0.87957 0.0
H753 H 0.26439 0.61761 0.9247 0.0
H754 H 0.32094 0.63788 0.92973 0.0
H755 H 0.30495 0.5467 0.92449 0.0
C756 C 0.18328 0.50451 0.90116 0.0
C757 C 0.16338 0.5152 0.89427 0.0
C758 C 0.17276 0.54589 0.89872 0.0
C759 C 0.20162 0.5657 0.90918 0.0
C760 C 0.22098 0.55461 0.91511 0.0
C761 C 0.21223 0.52471 0.91128 0.0
C762 C 0.23894 0.51947 0.91632 0.0
C763 C 0.23104 0.49789 0.93712 0.0
C764 C 0.24756 0.50762 0.89452 0.0
C765 C 0.26449 0.55139 0.92252 0.0
C766 C 0.25343 0.57117 0.92226 0.0
C767 C 0.27323 0.60228 0.9254 0.0
C768 C 0.30534 0.61359 0.9282 0.0
C769 C 0.3173 0.59385 0.92759 0.0
C770 C 0.29642 0.56229 0.92541 0.0
H771 H 0.61681 0.15882 0.03151 0.0
H772 H 0.54236 0.17639 0.04866 0.0
H773 H 0.58218 0.22882 0.05979 0.0
H774 H 0.66526 0.19937 0.08093 0.0
H775 H 0.70105 0.21219 0.06475 0.0
H776 H 0.66649 0.17671 0.05734 0.0
H777 H 0.67034 0.19503 0.01466 0.0
H778 H 0.70483 0.23057 0.02192 0.0
H779 H 0.67157 0.23014 0.0091 0.0
H780 H 0.63173 0.28102 0.06699 0.0
H781 H 0.68533 0.32567 0.07226 0.0
H782 H 0.72472 0.2698 0.05516 0.0
C783 C 0.60845 0.17314 0.03813 0.0
C784 C 0.57614 0.16302 0.03925 0.0
C785 C 0.56688 0.18347 0.04725 0.0
C786 C 0.58935 0.21329 0.05381 0.0
C787 C 0.62095 0.22219 0.05267 0.0
C788 C 0.63032 0.20245 0.0453 0.0
C789 C 0.66547 0.21689 0.04601 0.0
C790 C 0.67512 0.2003 0.06329 0.0
C791 C 0.67882 0.21824 0.02147 0.0
C792 C 0.67462 0.24808 0.05476 0.0
C793 C 0.6488 0.25104 0.05824 0.0
C794 C 0.65204 0.27874 0.06473 0.0
C795 C 0.68245 0.30392 0.06767 0.0
C796 C 0.70896 0.30089 0.0646 0.0
C797 C 0.70481 0.27255 0.05827 0.0
H798 H 0.6092 0.74802 0.19393 0.0
H799 H 0.54416 0.65893 0.22258 0.0
H800 H 0.51228 0.67864 0.23883 0.0
H801 H 0.6059 0.7896 0.2449 0.0
H802 H 0.60971 0.82042 0.22741 0.0
H803 H 0.62732 0.79913 0.21776 0.0
H804 H 0.59721 0.78754 0.17868 0.0
H805 H 0.57928 0.80852 0.18827 0.0
H806 H 0.55514 0.76962 0.17909 0.0
H807 H 0.48497 0.70703 0.24914 0.0
H808 H 0.46799 0.74387 0.25708 0.0
H809 H 0.554 0.81541 0.22614 0.0
C810 C 0.58868 0.73263 0.204 0.0
C811 C 0.57912 0.70163 0.20647 0.0
C812 C 0.55168 0.68249 0.21963 0.0
C813 C 0.53346 0.69354 0.22919 0.0
C814 C 0.54331 0.72398 0.226 0.0
C815 C 0.57063 0.74341 0.21418 0.0
C816 C 0.57635 0.77534 0.21364 0.0
C817 C 0.60661 0.79742 0.22671 0.0
C818 C 0.57702 0.78585 0.18842 0.0
C819 C 0.54766 0.77067 0.22665 0.0
C820 C 0.52869 0.7408 0.2334 0.0
C821 C 0.49988 0.73059 0.24433 0.0
C822 C 0.49036 0.75157 0.24866 0.0
C823 C 0.5099 0.78241 0.24248 0.0
C824 C 0.53892 0.79203 0.23142 0.0
H825 H 0.89858 0.51888 0.35778 0.0
H826 H 0.88295 0.42807 0.36652 0.0
H827 H 0.82989 0.41092 0.3815 0.0
H828 H 0.86019 0.51839 0.41191 0.0
H829 H 0.84511 0.54066 0.39973 0.0
H830 H 0.88139 0.54528 0.389 0.0
H831 H 0.85915 0.53404 0.34694 0.0
H832 H 0.8228 0.52929 0.35752 0.0
H833 H 0.82283 0.49934 0.34109 0.0
H834 H 0.77652 0.40324 0.39325 0.0
H835 H 0.73017 0.40712 0.40367 0.0
H836 H 0.78464 0.50414 0.39201 0.0
C837 C 0.88459 0.4955 0.36329 0.0
C838 C 0.89541 0.47496 0.36076 0.0
C839 C 0.87533 0.44433 0.36768 0.0
C840 C 0.84513 0.43435 0.37646 0.0
C841 C 0.83548 0.45535 0.37872 0.0
C842 C 0.85489 0.48539 0.37265 0.0
C843 C 0.83946 0.50375 0.37712 0.0
C844 C 0.85762 0.52847 0.39554 0.0
C845 C 0.83584 0.51739 0.35431 0.0
C846 C 0.8081 0.47929 0.38641 0.0
C847 C 0.80596 0.45139 0.38697 0.0
C848 C 0.77819 0.42508 0.39331 0.0
C849 C 0.75202 0.42745 0.39917 0.0
C850 C 0.75415 0.45599 0.39911 0.0
C851 C 0.78265 0.48215 0.39285 0.0
H852 H 0.11372 0.5991 0.41868 0.0
H853 H 0.05601 0.50475 0.43972 0.0
H854 H 0.08865 0.51553 0.47472 0.0
H855 H 0.18585 0.61202 0.43726 0.0
H856 H 0.19995 0.64967 0.44844 0.0
H857 H 0.17172 0.63514 0.42517 0.0
H858 H 0.13391 0.64511 0.44938 0.0
H859 H 0.1622 0.66029 0.47264 0.0
H860 H 0.12289 0.62966 0.4784 0.0
H861 H 0.1306 0.53526 0.50506 0.0
H862 H 0.1742 0.56439 0.53248 0.0
H863 H 0.20054 0.64709 0.49455 0.0
C864 C 0.10713 0.58075 0.43088 0.0
C865 C 0.08225 0.5509 0.42612 0.0
C866 C 0.0753 0.52763 0.44252 0.0
C867 C 0.09359 0.53356 0.46258 0.0
C868 C 0.11831 0.56301 0.46633 0.0
C869 C 0.12459 0.58639 0.45129 0.0
C870 C 0.15228 0.61614 0.45957 0.0
C871 C 0.17903 0.62898 0.44153 0.0
C872 C 0.14221 0.63916 0.46535 0.0
C873 C 0.16102 0.60566 0.4814 0.0
C874 C 0.14133 0.57484 0.48477 0.0
C875 C 0.14583 0.55948 0.50286 0.0
C876 C 0.17078 0.57615 0.51819 0.0
C877 C 0.19052 0.60791 0.51559 0.0
C878 C 0.18554 0.62286 0.49699 0.0
H879 H 0.47706 0.11842 0.59814 0.0
H880 H 0.50169 0.049 0.60478 0.0
H881 H 0.53385 0.07541 0.63924 0.0
H882 H 0.54892 0.18011 0.61257 0.0
H883 H 0.53421 0.1999 0.62939 0.0
H884 H 0.51068 0.17432 0.60652 0.0
H885 H 0.4653 0.14375 0.63565 0.0
H886 H 0.48839 0.16956 0.65862 0.0
H887 H 0.47262 0.12941 0.66205 0.0
H888 H 0.56841 0.11249 0.6695 0.0
H889 H 0.598 0.1546 0.69722 0.0
H890 H 0.54786 0.19789 0.67306 0.0
C891 C 0.48831 0.10814 0.60727 0.0
C892 C 0.48694 0.08166 0.59864 0.0
C893 C 0.50274 0.06948 0.61084 0.0
C894 C 0.52096 0.08424 0.63049 0.0
C895 C 0.5227 0.11086 0.63799 0.0
C896 C 0.50626 0.12236 0.62711 0.0
C897 C 0.5129 0.15183 0.63831 0.0
C898 C 0.52755 0.17808 0.62064 0.0
C899 C 0.48302 0.14842 0.64932 0.0
C900 C 0.53628 0.15548 0.6568 0.0
C901 C 0.5417 0.13166 0.65621 0.0
C902 C 0.56394 0.13097 0.67047 0.0
C903 C 0.58078 0.15508 0.686 0.0
C904 C 0.575 0.1793 0.68735 0.0
C905 C 0.55238 0.17941 0.67259 0.0
H906 H 0.50297 0.63961 0.74305 0.0
H907 H 0.43589 0.54261 0.74071 0.0
H908 H 0.41314 0.5462 0.77764 0.0
H909 H 0.51836 0.64127 0.80323 0.0
H910 H 0.52273 0.67783 0.8086 0.0
H911 H 0.53144 0.66899 0.78017 0.0
H912 H 0.49209 0.68152 0.76144 0.0
H913 H 0.48333 0.69053 0.78984 0.0
H914 H 0.45219 0.66259 0.77181 0.0
H915 H 0.39979 0.55866 0.81578 0.0
H916 H 0.39713 0.57933 0.85381 0.0
H917 H 0.47467 0.66787 0.83359 0.0
C918 C 0.48333 0.61914 0.75014 0.0
C919 C 0.47094 0.59093 0.73848 0.0
C920 C 0.44525 0.56474 0.74862 0.0
C921 C 0.43225 0.56644 0.76982 0.0
C922 C 0.4453 0.5944 0.78091 0.0
C923 C 0.47029 0.6203 0.77155 0.0
C924 C 0.48128 0.64699 0.78807 0.0
C925 C 0.51548 0.65949 0.79546 0.0
C926 C 0.47695 0.67188 0.77713 0.0
C927 C 0.45889 0.63178 0.80832 0.0
C928 C 0.43815 0.60152 0.8036 0.0
C929 C 0.41574 0.58237 0.81967 0.0
C930 C 0.4145 0.59438 0.84128 0.0
C931 C 0.4357 0.62527 0.84676 0.0
C932 C 0.45807 0.64422 0.82992 0.0
H933 H 0.91857 0.41607 0.89678 0.0
H934 H 0.87565 0.31927 0.88499 0.0
H935 H 0.84763 0.30945 0.9228 0.0
H936 H 0.92944 0.41541 0.9576 0.0
H937 H 0.92069 0.44473 0.96367 0.0
H938 H 0.93713 0.44371 0.93587 0.0
H939 H 0.89056 0.44245 0.91455 0.0
H940 H 0.8741 0.44377 0.94224 0.0
H941 H 0.85105 0.41354 0.92196 0.0
H942 H 0.82547 0.31102 0.96287 0.0
H943 H 0.80859 0.32356 -0.00015 0.0
H944 H 0.86457 0.41926 0.98303 0.0
C945 C 0.90269 0.3927 0.90171 0.0
C946 C 0.89893 0.36842 0.88767 0.0
C947 C 0.87887 0.33825 0.89543 0.0
C948 C 0.86287 0.33248 0.91685 0.0
C949 C 0.86723 0.35712 0.9302 0.0
C950 C 0.8865 0.3866 0.92275 0.0
C951 C 0.88741 0.40927 0.94004 0.0
C952 C 0.92063 0.42946 0.94988 0.0
C953 C 0.87503 0.42837 0.92904 0.0
C954 C 0.86527 0.388 0.95839 0.0
C955 C 0.85414 0.358 0.95266 0.0
C956 C 0.83391 0.33442 0.96742 0.0
C957 C 0.82456 0.34175 0.9884 0.0
C958 C 0.83513 0.37236 0.99417 0.0
C959 C 0.85584 0.39565 0.97896 0.0
H960 H 0.44509 0.95564 0.11076 0.0
H961 H 0.54424 0.02266 0.11441 0.0
H962 H 0.54887 0.99782 0.14979 0.0
H963 H 0.43049 0.94592 0.1748 0.0
H964 H 0.40343 0.90575 0.17184 0.0
H965 H 0.40738 0.93114 0.14867 0.0
H966 H 0.41944 0.89974 0.11965 0.0
H967 H 0.41622 0.87458 0.14269 0.0
H968 H 0.45153 0.89387 0.12545 0.0
H969 H 0.54385 0.9627 0.18187 0.0
H970 H 0.52888 0.92166 0.21047 0.0
H971 H 0.43276 0.87752 0.18604 0.0
C972 C 0.46749 0.96569 0.11954 0.0
C973 C 0.49426 0.99124 0.11013 0.0
C974 C 0.52347 0.00318 0.12153 0.0
C975 C 0.5263 0.98923 0.14157 0.0
C976 C 0.49967 0.96342 0.14996 0.0
C977 C 0.47074 0.95196 0.1395 0.0
C978 C 0.44627 0.92282 0.15108 0.0
C979 C 0.42037 0.92665 0.16227 0.0
C980 C 0.43258 0.89619 0.13368 0.0
C981 C 0.46609 0.91942 0.16942 0.0
C982 C 0.4968 0.94311 0.1685 0.0
C983 C 0.51979 0.94424 0.18299 0.0
C984 C 0.51109 0.92072 0.19908 0.0
C985 C 0.47963 0.89643 0.20057 0.0
C986 C 0.45694 0.89589 0.18547 0.0
H987 H 0.63833 0.56263 0.25085 0.0
H988 H 0.69961 0.65097 0.28194 0.0
H989 H 0.70802 0.6261 0.31568 0.0
H990 H 0.60125 0.52379 0.30468 0.0
H991 H 0.59889 0.48904 0.29565 0.0
H992 H 0.59788 0.51403 0.27415 0.0
H993 H 0.64505 0.51626 0.25271 0.0
H994 H 0.64636 0.49149 0.27426 0.0
H995 H 0.68073 0.52792 0.26853 0.0
H996 H 0.71105 0.59167 0.34513 0.0
H997 H 0.70535 0.55021 0.37008 0.0
H998 H 0.6399 0.48417 0.32047 0.0
C999 C 0.65294 0.57682 0.26497 0.0
C1000 C 0.66812 0.6088 0.26383 0.0
C1001 C 0.68785 0.62646 0.28239 0.0
C1002 C 0.69273 0.61255 0.30161 0.0
C1003 C 0.67762 0.58099 0.30199 0.0
C1004 C 0.65787 0.56335 0.28429 0.0
C1005 C 0.64437 0.5299 0.2889 0.0
C1006 C 0.60847 0.51321 0.29098 0.0
C1007 C 0.65475 0.51555 0.26997 0.0
C1008 C 0.65946 0.5314 0.31211 0.0
C1009 C 0.67884 0.56111 0.3192 0.0
C1010 C 0.69581 0.56833 0.33984 0.0
C1011 C 0.6925 0.54456 0.35383 0.0
C1012 C 0.67209 0.51389 0.34726 0.0
C1013 C 0.65556 0.50734 0.32601 0.0
H1014 H 0.40101 0.92473 0.39086 0.0
H1015 H 0.47909 0.93763 0.43306 0.0
H1016 H 0.48796 0.9053 0.40598 0.0
H1017 H 0.37409 0.84447 0.37203 0.0
H1018 H 0.36434 0.85123 0.34329 0.0
H1019 H 0.36074 0.87083 0.36816 0.0
H1020 H 0.39685 0.92224 0.34768 0.0
H1021 H 0.40089 0.90293 0.32295 0.0
H1022 H 0.43528 0.93137 0.33806 0.0
H1023 H 0.49376 0.87905 0.37131 0.0
H1024 H 0.49409 0.85811 0.3325 0.0
H1025 H 0.41139 0.86116 0.31335 0.0
C1026 C 0.41916 0.91974 0.39485 0.0
C1027 C 0.43932 0.93354 0.41402 0.0
C1028 C 0.46347 0.92729 0.41837 0.0
C1029 C 0.46858 0.90887 0.40317 0.0
C1030 C 0.44911 0.89659 0.38385 0.0
C1031 C 0.42457 0.90138 0.37982 0.0
C1032 C 0.409 0.88803 0.35665 0.0
C1033 C 0.37503 0.86209 0.36026 0.0
C1034 C 0.41063 0.91261 0.34039 0.0
C1035 C 0.42948 0.87619 0.34787 0.0
C1036 C 0.45226 0.88104 0.3639 0.0
C1037 C 0.4756 0.87448 0.35881 0.0
C1038 C 0.47572 0.86277 0.33669 0.0
C1039 C 0.45264 0.85778 0.31998 0.0
C1040 C 0.42902 0.8642 0.32588 0.0
H1041 H 0.58916 0.54618 0.524 0.0
H1042 H 0.51897 0.45966 0.55394 0.0
H1043 H 0.53285 0.43314 0.52529 0.0
H1044 H 0.58379 0.52305 0.46426 0.0
H1045 H 0.62551 0.54495 0.45948 0.0
H1046 H 0.60764 0.5573 0.48073 0.0
H1047 H 0.6451 0.55811 0.51243 0.0
H1048 H 0.66289 0.54543 0.49136 0.0
H1049 H 0.64647 0.52428 0.5179 0.0
H1050 H 0.55386 0.41551 0.49304 0.0
H1051 H 0.58289 0.40875 0.46062 0.0
H1052 H 0.64448 0.50616 0.45607 0.0
C1053 C 0.57658 0.52169 0.52474 0.0
C1054 C 0.55236 0.50535 0.54122 0.0
C1055 C 0.53664 0.47312 0.54107 0.0
C1056 C 0.54469 0.45765 0.52502 0.0
C1057 C 0.56907 0.47456 0.50952 0.0
C1058 C 0.585 0.50585 0.50939 0.0
C1059 C 0.61162 0.51866 0.49189 0.0
C1060 C 0.60684 0.53707 0.47297 0.0
C1061 C 0.6434 0.53774 0.50413 0.0
C1062 C 0.60792 0.48962 0.48207 0.0
C1063 C 0.58297 0.46441 0.49229 0.0
C1064 C 0.57374 0.43504 0.48514 0.0
C1065 C 0.59031 0.43138 0.46684 0.0
C1066 C 0.61616 0.45692 0.45646 0.0
C1067 C 0.62528 0.48633 0.4643 0.0
H1068 H 0.09694 0.49806 0.691 0.0
H1069 H 0.10454 0.56637 0.73991 0.0
H1070 H 0.14194 0.60647 0.71364 0.0
H1071 H 0.17878 0.53654 0.67802 0.0
H1072 H 0.17318 0.52482 0.64788 0.0
H1073 H 0.14458 0.50134 0.66945 0.0
H1074 H 0.10097 0.50248 0.64566 0.0
H1075 H 0.1294 0.52584 0.62394 0.0
H1076 H 0.10549 0.53847 0.6378 0.0
H1077 H 0.17878 0.63959 0.68157 0.0
H1078 H 0.21404 0.66235 0.64741 0.0
H1079 H 0.18669 0.57231 0.62247 0.0
C1080 C 0.10641 0.52137 0.69635 0.0
C1081 C 0.0971 0.52875 0.7175 0.0
C1082 C 0.11021 0.5598 0.72351 0.0
C1083 C 0.13187 0.5829 0.7088 0.0
C1084 C 0.14071 0.57472 0.68829 0.0
C1085 C 0.12859 0.5447 0.68218 0.0
C1086 C 0.14316 0.54187 0.65983 0.0
C1087 C 0.16098 0.52516 0.66406 0.0
C1088 C 0.11827 0.52625 0.64068 0.0
C1089 C 0.16536 0.575 0.65433 0.0
C1090 C 0.16336 0.59367 0.67074 0.0
C1091 C 0.18078 0.6252 0.66872 0.0
C1092 C 0.20072 0.63793 0.64933 0.0
C1093 C 0.20343 0.61909 0.6326 0.0
C1094 C 0.18561 0.58729 0.63529 0.0
H1095 H 0.5256 0.15009 0.90189 0.0
H1096 H 0.59659 0.12557 0.91155 0.0
H1097 H 0.62546 0.15668 0.87795 0.0
H1098 H 0.52327 0.1418 0.84077 0.0
H1099 H 0.51671 0.17252 0.83474 0.0
H1100 H 0.50369 0.15239 0.86197 0.0
H1101 H 0.53558 0.20295 0.88459 0.0
H1102 H 0.54875 0.22328 0.85739 0.0
H1103 H 0.5769 0.22697 0.87885 0.0
H1104 H 0.64508 0.18678 0.84205 0.0
H1105 H 0.65261 0.21159 0.80409 0.0
H1106 H 0.5671 0.21359 0.8147 0.0
C1107 C 0.54729 0.15131 0.89713 0.0
C1108 C 0.55893 0.13568 0.91004 0.0
C1109 C 0.5875 0.1381 0.90286 0.0
C1110 C 0.60409 0.15559 0.88354 0.0
C1111 C 0.59176 0.17029 0.87119 0.0
C1112 C 0.56392 0.1682 0.8775 0.0
C1113 C 0.55442 0.18385 0.85974 0.0
C1114 C 0.52265 0.16129 0.84865 0.0
C1115 C 0.55389 0.21087 0.87081 0.0
C1116 C 0.58098 0.19442 0.84225 0.0
C1117 C 0.60249 0.18677 0.84953 0.0
C1118 C 0.62853 0.19308 0.83619 0.0
C1119 C 0.63254 0.20717 0.81458 0.0
C1120 C 0.61042 0.21454 0.80632 0.0
C1121 C 0.58451 0.20842 0.82056 0.0
H1122 H 0.57757 0.69513 0.05757 0.0
H1123 H 0.54714 0.59947 0.06237 0.0
H1124 H 0.51389 0.58888 0.02797 0.0
H1125 H 0.50505 0.68608 0.03898 0.0
H1126 H 0.52214 0.71713 0.01855 0.0
H1127 H 0.54409 0.71776 0.04369 0.0
H1128 H 0.58928 0.72465 0.01683 0.0
H1129 H 0.56751 0.7241 0.99158 0.0
H1130 H 0.58116 0.69778 0.99368 0.0
H1131 H 0.4817 0.58753 0.99504 0.0
H1132 H 0.45446 0.59617 0.96292 0.0
H1133 H 0.5079 0.69299 0.9766 0.0
C1134 C 0.56408 0.67202 0.05128 0.0
C1135 C 0.56438 0.64804 0.06312 0.0
C1136 C 0.54648 0.61811 0.05419 0.0
C1137 C 0.52775 0.61185 0.03447 0.0
C1138 C 0.52752 0.6358 0.02351 0.0
C1139 C 0.54541 0.66534 0.03131 0.0
C1140 C 0.54076 0.68674 0.01599 0.0
C1141 C 0.5272 0.70287 0.03015 0.0
C1142 C 0.57151 0.70967 0.0038 0.0
C1143 C 0.51707 0.66443 -0.00132 0.0
C1144 C 0.50978 0.63519 0.0035 0.0
C1145 C 0.48743 0.61034 0.99086 0.0
C1146 C 0.472 0.61547 0.97273 0.0
C1147 C 0.47925 0.64522 0.96725 0.0
C1148 C 0.50229 0.67006 0.98026 0.0
H1149 H 0.90437 0.43128 0.22107 0.0
H1150 H 0.95186 0.52898 0.21246 0.0
H1151 H 0.92848 0.52204 0.17349 0.0
H1152 H 0.91516 0.41462 0.16289 0.0
H1153 H 0.87741 0.38038 0.16054 0.0
H1154 H 0.89595 0.39265 0.1886 0.0
H1155 H 0.84704 0.39217 0.20492 0.0
H1156 H 0.82821 0.37961 0.17696 0.0
H1157 H 0.83252 0.41343 0.19016 0.0
H1158 H 0.90329 0.50508 0.13481 0.0
H1159 H 0.87463 0.479 0.09919 0.0
H1160 H 0.84296 0.39188 0.13222 0.0
C1161 C 0.90954 0.45117 0.21107 0.0
C1162 C 0.92962 0.48068 0.21996 0.0
C1163 C 0.93594 0.50617 0.2063 0.0
C1164 C 0.92302 0.50247 0.18403 0.0
C1165 C 0.90376 0.47315 0.17566 0.0
C1166 C 0.89675 0.44791 0.18877 0.0
C1167 C 0.87586 0.41895 0.17531 0.0
C1168 C 0.89207 0.40057 0.17162 0.0
C1169 C 0.84402 0.39992 0.18757 0.0
C1170 C 0.87259 0.43196 0.15251 0.0
C1171 C 0.88896 0.46327 0.15315 0.0
C1172 C 0.89017 0.48056 0.13412 0.0
C1173 C 0.87388 0.46547 0.11391 0.0
C1174 C 0.85646 0.43334 0.11286 0.0
C1175 C 0.85597 0.41643 0.13246 0.0
loop_
_geom_bond_atom_site_label_1
_geom_bond_atom_site_label_2
_geom_bond_distance
_geom_bond_site_symmetry_2
_ccdc_geom_bond_type
H0 O26 0.856 . S
H1 O29 0.854 . S
H2 C37 0.930 1_455 S
H3 C38 0.930 . S
H4 C40 0.930 . S
H5 C41 0.930 . S
H6 C43 0.931 . S
H7 C44 0.930 . S
H8 C46 0.930 . S
H9 C47 0.929 . S
H10 C49 0.930 . S
H11 C50 0.931 . S
H12 C52 0.930 . S
H13 C53 0.929 . S
H14 C55 0.931 . S
H15 C56 0.930 . S
H16 C58 0.930 . S
H17 C59 0.932 . S
H18 C61 0.930 . S
H19 C62 0.929 . S
H20 C64 0.931 . S
H21 C65 0.930 . S
H22 C67 0.929 . S
H23 C68 0.931 . S
H24 C70 0.930 . S
H25 C71 0.929 . S
O26 H0 0.856 . S
O26 C72 1.300 . S
O27 C72 1.209 . S
O28 C73 1.199 . S
O29 H1 0.854 . S
O29 C73 1.297 . S
C30 C31 1.404 . S
C30 C35 1.397 . S
C30 C36 1.492 . S
C31 C30 1.404 . S
C31 C32 1.396 . S
C31 C42 1.492 . S
C32 C31 1.396 . S
C32 C33 1.397 . S
C32 C48 1.509 . S
C33 C32 1.397 . S
C33 C34 1.412 . S
C33 C54 1.485 . S
C34 C33 1.412 . S
C34 C35 1.388 . S
C34 C60 1.490 . S
C35 C30 1.397 . S
C35 C34 1.388 . S
C35 C66 1.519 1_455 S
C36 C30 1.492 . S
C36 C37 1.363 1_455 S
C36 C41 1.390 1_455 S
C37 H2 0.930 1_655 S
C37 C36 1.363 1_655 S
C37 C38 1.372 . S
C38 H3 0.930 . S
C38 C37 1.372 . S
C38 C39 1.383 . S
C39 C38 1.383 . S
C39 C40 1.395 . S
C40 H4 0.930 . S
C40 C39 1.395 . S
C40 C41 1.362 . S
C41 H5 0.930 . S
C41 C36 1.390 1_655 S
C41 C40 1.362 . S
C42 C31 1.492 . S
C42 C43 1.377 . S
C42 C47 1.397 . S
C43 H6 0.931 . S
C43 C42 1.377 . S
C43 C44 1.376 . S
C44 H7 0.930 . S
C44 C43 1.376 . S
C44 C45 1.376 . S
C45 C44 1.376 . S
C45 C46 1.378 . S
C45 C72 1.486 . S
C46 H8 0.930 . S
C46 C45 1.378 . S
C46 C47 1.376 . S
C47 H9 0.929 . S
C47 C42 1.397 . S
C47 C46 1.376 . S
C48 C32 1.509 . S
C48 C49 1.391 . S
C48 C53 1.386 . S
C49 H10 0.930 . S
C49 C48 1.391 . S
C49 C50 1.375 . S
C50 H11 0.931 . S
C50 C49 1.375 . S
C50 C51 1.375 . S
C51 C50 1.375 . S
C51 C52 1.361 . S
C52 H12 0.930 . S
C52 C51 1.361 . S
C52 C53 1.399 . S
C53 H13 0.929 . S
C53 C48 1.386 . S
C53 C52 1.399 . S
C54 C33 1.485 . S
C54 C55 1.394 . S
C54 C59 1.360 . S
C55 H14 0.931 . S
C55 C54 1.394 . S
C55 C56 1.372 . S
C56 H15 0.930 . S
C56 C55 1.372 . S
C56 C57 1.397 . S
C57 C56 1.397 . S
C57 C58 1.390 . S
C57 C73 1.476 . S
C58 H16 0.930 . S
C58 C57 1.390 . S
C58 C59 1.366 . S
C59 H17 0.932 . S
C59 C54 1.360 . S
C59 C58 1.366 . S
C60 C34 1.490 . S
C60 C61 1.380 . S
C60 C65 1.386 . S
C61 H18 0.930 . S
C61 C60 1.380 . S
C61 C62 1.381 . S
C62 H19 0.929 . S
C62 C61 1.381 . S
C62 C63 1.371 . S
C63 C62 1.371 . S
C63 C64 1.380 . S
C64 H20 0.931 . S
C64 C63 1.380 . S
C64 C65 1.387 . S
C65 H21 0.930 . S
C65 C60 1.386 . S
C65 C64 1.387 . S
C66 C35 1.519 1_655 S
C66 C67 1.377 . S
C66 C71 1.361 . S
C67 H22 0.929 . S
C67 C66 1.377 . S
C67 C68 1.386 . S
C68 H23 0.931 . S
C68 C67 1.386 . S
C68 C69 1.363 . S
C69 C68 1.363 . S
C69 C70 1.385 . S
C70 H24 0.930 . S
C70 C69 1.385 . S
C70 C71 1.396 . S
C71 H25 0.929 . S
C71 C66 1.361 . S
C71 C70 1.396 . S
C72 O26 1.300 . S
C72 O27 1.209 . S
C72 C45 1.486 . S
C73 O28 1.199 . S
C73 O29 1.297 . S
C73 C57 1.476 . S
H74 O100 0.856 . S
H75 O103 0.854 . S
H76 C111 0.930 . S
H77 C112 0.930 . S
H78 C114 0.930 . S
H79 C115 0.933 . S
H80 C117 0.931 . S
H81 C118 0.930 . S
H82 C120 0.930 . S
H83 C121 0.929 . S
H84 C123 0.930 . S
H85 C124 0.931 . S
H86 C126 0.930 . S
H87 C127 0.929 . S
H88 C129 0.931 . S
H89 C130 0.930 . S
H90 C132 0.930 . S
H91 C133 0.932 . S
H92 C135 0.930 . S
H93 C136 0.929 . S
H94 C138 0.931 . S
H95 C139 0.930 . S
H96 C141 0.929 1_545 S
H97 C142 0.931 . S
H98 C144 0.930 . S
H99 C145 0.929 . S
O100 H74 0.856 . S
O100 C146 1.300 . S
O101 C146 1.209 . S
O102 C147 1.199 . S
O103 H75 0.854 . S
O103 C147 1.297 . S
C104 C105 1.404 . S
C104 C109 1.397 . S
C104 C110 1.492 . S
C105 C104 1.404 . S
C105 C106 1.396 . S
C105 C116 1.492 . S
C106 C105 1.396 . S
C106 C107 1.397 . S
C106 C122 1.509 . S
C107 C106 1.397 . S
C107 C108 1.412 . S
C107 C128 1.485 . S
C108 C107 1.412 . S
C108 C109 1.388 . S
C108 C134 1.490 . S
C109 C104 1.397 . S
C109 C108 1.388 . S
C109 C140 1.519 . S
C110 C104 1.492 . S
C110 C111 1.363 . S
C110 C115 1.391 . S
C111 H76 0.930 . S
C111 C110 1.363 . S
C111 C112 1.372 1_545 S
C112 H77 0.930 . S
C112 C111 1.372 1_565 S
C112 C113 1.383 . S
C113 C112 1.383 . S
C113 C114 1.395 . S
C114 H78 0.930 . S
C114 C113 1.395 . S
C114 C115 1.357 1_565 S
C115 H79 0.933 . S
C115 C110 1.391 . S
C115 C114 1.357 1_545 S
C116 C105 1.492 . S
C116 C117 1.377 . S
C116 C121 1.397 . S
C117 H80 0.931 . S
C117 C116 1.377 . S
C117 C118 1.376 . S
C118 H81 0.930 . S
C118 C117 1.376 . S
C118 C119 1.376 . S
C119 C118 1.376 . S
C119 C120 1.378 . S
C119 C146 1.486 . S
C120 H82 0.930 . S
C120 C119 1.378 . S
C120 C121 1.376 . S
C121 H83 0.929 . S
C121 C116 1.397 . S
C121 C120 1.376 . S
C122 C106 1.509 . S
C122 C123 1.391 . S
C122 C127 1.386 . S
C123 H84 0.930 . S
C123 C122 1.391 . S
C123 C124 1.375 . S
C124 H85 0.931 . S
C124 C123 1.375 . S
C124 C125 1.375 . S
C125 C124 1.375 . S
C125 C126 1.361 . S
C126 H86 0.930 . S
C126 C125 1.361 . S
C126 C127 1.399 . S
C127 H87 0.929 . S
C127 C122 1.386 . S
C127 C126 1.399 . S
C128 C107 1.485 . S
C128 C129 1.394 . S
C128 C133 1.360 . S
C129 H88 0.931 . S
C129 C128 1.394 . S
C129 C130 1.372 . S
C130 H89 0.930 . S
C130 C129 1.372 . S
C130 C131 1.397 . S
C131 C130 1.397 . S
C131 C132 1.390 . S
C131 C147 1.476 . S
C132 H90 0.930 . S
C132 C131 1.390 . S
C132 C133 1.366 . S
C133 H91 0.932 . S
C133 C128 1.360 . S
C133 C132 1.366 . S
C134 C108 1.490 . S
C134 C135 1.380 . S
C134 C139 1.386 . S
C135 H92 0.930 . S
C135 C134 1.380 . S
C135 C136 1.381 . S
C136 H93 0.929 . S
C136 C135 1.381 . S
C136 C137 1.371 . S
C137 C136 1.371 . S
C137 C138 1.380 . S
C138 H94 0.931 . S
C138 C137 1.380 . S
C138 C139 1.387 . S
C139 H95 0.930 . S
C139 C134 1.386 . S
C139 C138 1.387 . S
C140 C109 1.519 . S
C140 C141 1.377 1_545 S
C140 C145 1.361 . S
C141 H96 0.929 1_565 S
C141 C140 1.377 1_565 S
C141 C142 1.386 . S
C142 H97 0.931 . S
C142 C141 1.386 . S
C142 C143 1.363 . S
C143 C142 1.363 . S
C143 C144 1.385 . S
C144 H98 0.930 . S
C144 C143 1.385 . S
C144 C145 1.396 1_565 S
C145 H99 0.929 . S
C145 C140 1.361 . S
C145 C144 1.396 1_545 S
C146 O100 1.300 . S
C146 O101 1.209 . S
C146 C119 1.486 . S
C147 O102 1.199 . S
C147 O103 1.297 . S
C147 C131 1.476 . S
H148 O174 0.856 . S
H149 O177 0.854 . S
H150 C185 0.930 . S
H151 C186 0.930 . S
H152 C188 0.930 . S
H153 C189 0.930 . S
H154 C191 0.931 . S
H155 C192 0.930 . S
H156 C194 0.930 . S
H157 C195 0.929 . S
H158 C197 0.930 . S
H159 C198 0.931 . S
H160 C200 0.930 . S
H161 C201 0.929 . S
H162 C203 0.931 . S
H163 C204 0.930 . S
H164 C206 0.930 . S
H165 C207 0.932 . S
H166 C209 0.930 . S
H167 C210 0.929 . S
H168 C212 0.931 . S
H169 C213 0.930 . S
H170 C215 0.929 . S
H171 C216 0.931 . S
H172 C218 0.930 . S
H173 C219 0.929 . S
O174 H148 0.856 . S
O174 C220 1.300 . S
O175 C220 1.209 . S
O176 C221 1.199 . S
O177 H149 0.854 . S
O177 C221 1.297 . S
C178 C179 1.404 . S
C178 C183 1.397 . S
C178 C184 1.492 . S
C179 C178 1.404 . S
C179 C180 1.396 . S
C179 C190 1.492 . S
C180 C179 1.396 . S
C180 C181 1.397 . S
C180 C196 1.509 . S
C181 C180 1.397 . S
C181 C182 1.412 . S
C181 C202 1.485 . S
C182 C181 1.412 . S
C182 C183 1.388 . S
C182 C208 1.490 . S
C183 C178 1.397 . S
C183 C182 1.388 . S
C183 C214 1.519 . S
C184 C178 1.492 . S
C184 C185 1.363 . S
C184 C189 1.390 . S
C185 H150 0.930 . S
C185 C184 1.363 . S
C185 C186 1.372 . S
C186 H151 0.930 . S
C186 C185 1.372 . S
C186 C187 1.383 . S
C187 C186 1.383 . S
C187 C188 1.395 . S
C188 H152 0.930 . S
C188 C187 1.395 . S
C188 C189 1.362 . S
C189 H153 0.930 . S
C189 C184 1.390 . S
C189 C188 1.362 . S
C190 C179 1.492 . S
C190 C191 1.377 . S
C190 C195 1.397 . S
C191 H154 0.931 . S
C191 C190 1.377 . S
C191 C192 1.376 . S
C192 H155 0.930 . S
C192 C191 1.376 . S
C192 C193 1.376 . S
C193 C192 1.376 . S
C193 C194 1.378 . S
C193 C220 1.486 . S
C194 H156 0.930 . S
C194 C193 1.378 . S
C194 C195 1.376 . S
C195 H157 0.929 . S
C195 C190 1.397 . S
C195 C194 1.376 . S
C196 C180 1.509 . S
C196 C197 1.391 . S
C196 C201 1.386 . S
C197 H158 0.930 . S
C197 C196 1.391 . S
C197 C198 1.375 . S
C198 H159 0.931 . S
C198 C197 1.375 . S
C198 C199 1.375 . S
C199 C198 1.375 . S
C199 C200 1.361 . S
C200 H160 0.930 . S
C200 C199 1.361 . S
C200 C201 1.399 . S
C201 H161 0.929 . S
C201 C196 1.386 . S
C201 C200 1.399 . S
C202 C181 1.485 . S
C202 C203 1.394 . S
C202 C207 1.360 . S
C203 H162 0.931 . S
C203 C202 1.394 . S
C203 C204 1.372 . S
C204 H163 0.930 . S
C204 C203 1.372 . S
C204 C205 1.397 . S
C205 C204 1.397 . S
C205 C206 1.390 . S
C205 C221 1.476 . S
C206 H164 0.930 . S
C206 C205 1.390 . S
C206 C207 1.366 . S
C207 H165 0.932 . S
C207 C202 1.360 . S
C207 C206 1.366 . S
C208 C182 1.490 . S
C208 C209 1.380 . S
C208 C213 1.386 . S
C209 H166 0.930 . S
C209 C208 1.380 . S
C209 C210 1.381 . S
C210 H167 0.929 . S
C210 C209 1.381 . S
C210 C211 1.371 . S
C211 C210 1.371 . S
C211 C212 1.380 . S
C212 H168 0.931 . S
C212 C211 1.380 . S
C212 C213 1.387 . S
C213 H169 0.930 . S
C213 C208 1.386 . S
C213 C212 1.387 . S
C214 C183 1.519 . S
C214 C215 1.377 . S
C214 C219 1.361 . S
C215 H170 0.929 . S
C215 C214 1.377 . S
C215 C216 1.386 . S
C216 H171 0.931 . S
C216 C215 1.386 . S
C216 C217 1.363 . S
C217 C216 1.363 . S
C217 C218 1.385 . S
C218 H172 0.930 . S
C218 C217 1.385 . S
C218 C219 1.396 . S
C219 H173 0.929 . S
C219 C214 1.361 . S
C219 C218 1.396 . S
C220 O174 1.300 . S
C220 O175 1.209 . S
C220 C193 1.486 . S
C221 O176 1.199 . S
C221 O177 1.297 . S
C221 C205 1.476 . S
H222 O248 0.856 . S
H223 O251 0.854 . S
H224 C259 0.930 1_455 S
H225 C260 0.930 . S
H226 C262 0.930 . S
H227 C263 0.930 . S
H228 C265 0.931 . S
H229 C266 0.930 . S
H230 C268 0.930 . S
H231 C269 0.929 . S
H232 C271 0.930 . S
H233 C272 0.931 . S
H234 C274 0.930 . S
H235 C275 0.929 . S
H236 C277 0.931 . S
H237 C278 0.930 . S
H238 C280 0.930 . S
H239 C281 0.932 . S
H240 C283 0.930 . S
H241 C284 0.929 . S
H242 C286 0.931 . S
H243 C287 0.930 . S
H244 C289 0.929 . S
H245 C290 0.931 . S
H246 C292 0.930 . S
H247 C293 0.929 . S
O248 H222 0.856 . S
O248 C294 1.300 . S
O249 C294 1.209 . S
O250 C295 1.199 . S
O251 H223 0.854 . S
O251 C295 1.297 . S
C252 C253 1.404 . S
C252 C257 1.397 . S
C252 C258 1.492 1_455 S
C253 C252 1.404 . S
C253 C254 1.396 . S
C253 C264 1.492 . S
C254 C253 1.396 . S
C254 C255 1.397 . S
C254 C270 1.509 . S
C255 C254 1.397 . S
C255 C256 1.412 . S
C255 C276 1.485 . S
C256 C255 1.412 . S
C256 C257 1.388 . S
C256 C282 1.490 . S
C257 C252 1.397 . S
C257 C256 1.388 . S
C257 C288 1.519 1_455 S
C258 C252 1.492 1_655 S
C258 C259 1.363 . S
C258 C263 1.390 . S
C259 H224 0.930 1_655 S
C259 C258 1.363 . S
C259 C260 1.372 . S
C260 H225 0.930 . S
C260 C259 1.372 . S
C260 C261 1.383 . S
C261 C260 1.383 . S
C261 C262 1.395 . S
C262 H226 0.930 . S
C262 C261 1.395 . S
C262 C263 1.362 . S
C263 H227 0.930 . S
C263 C258 1.390 . S
C263 C262 1.362 . S
C264 C253 1.492 . S
C264 C265 1.377 . S
C264 C269 1.397 . S
C265 H228 0.931 . S
C265 C264 1.377 . S
C265 C266 1.376 . S
C266 H229 0.930 . S
C266 C265 1.376 . S
C266 C267 1.376 . S
C267 C266 1.376 . S
C267 C268 1.378 . S
C267 C294 1.486 . S
C268 H230 0.930 . S
C268 C267 1.378 . S
C268 C269 1.376 . S
C269 H231 0.929 . S
C269 C264 1.397 . S
C269 C268 1.376 . S
C270 C254 1.509 . S
C270 C271 1.391 . S
C270 C275 1.386 . S
C271 H232 0.930 . S
C271 C270 1.391 . S
C271 C272 1.375 . S
C272 H233 0.931 . S
C272 C271 1.375 . S
C272 C273 1.375 . S
C273 C272 1.375 . S
C273 C274 1.361 . S
C274 H234 0.930 . S
C274 C273 1.361 . S
C274 C275 1.399 . S
C275 H235 0.929 . S
C275 C270 1.386 . S
C275 C274 1.399 . S
C276 C255 1.485 . S
C276 C277 1.394 . S
C276 C281 1.360 . S
C277 H236 0.931 . S
C277 C276 1.394 . S
C277 C278 1.372 . S
C278 H237 0.930 . S
C278 C277 1.372 . S
C278 C279 1.397 . S
C279 C278 1.397 . S
C279 C280 1.390 . S
C279 C295 1.476 . S
C280 H238 0.930 . S
C280 C279 1.390 . S
C280 C281 1.366 . S
C281 H239 0.932 . S
C281 C276 1.360 . S
C281 C280 1.366 . S
C282 C256 1.490 . S
C282 C283 1.380 . S
C282 C287 1.386 . S
C283 H240 0.930 . S
C283 C282 1.380 . S
C283 C284 1.381 . S
C284 H241 0.929 . S
C284 C283 1.381 . S
C284 C285 1.371 . S
C285 C284 1.371 . S
C285 C286 1.380 . S
C286 H242 0.931 . S
C286 C285 1.380 . S
C286 C287 1.387 . S
C287 H243 0.930 . S
C287 C282 1.386 . S
C287 C286 1.387 . S
C288 C257 1.519 1_655 S
C288 C289 1.377 . S
C288 C293 1.361 . S
C289 H244 0.929 . S
C289 C288 1.377 . S
C289 C290 1.386 . S
C290 H245 0.931 . S
C290 C289 1.386 . S
C290 C291 1.363 . S
C291 C290 1.363 . S
C291 C292 1.385 . S
C292 H246 0.930 . S
C292 C291 1.385 . S
C292 C293 1.396 . S
C293 H247 0.929 . S
C293 C288 1.361 . S
C293 C292 1.396 . S
C294 O248 1.300 . S
C294 O249 1.209 . S
C294 C267 1.486 . S
C295 O250 1.199 . S
C295 O251 1.297 . S
C295 C279 1.476 . S
H296 O322 0.856 . S
H297 O325 0.854 . S
H298 C333 0.930 . S
H299 C334 0.930 . S
H300 C336 0.930 . S
H301 C337 0.930 . S
H302 C339 0.931 . S
H303 C340 0.930 . S
H304 C342 0.930 1_545 S
H305 C343 0.929 1_545 S
H306 C345 0.930 . S
H307 C346 0.931 . S
H308 C348 0.930 . S
H309 C349 0.929 . S
H310 C351 0.931 . S
H311 C352 0.930 . S
H312 C354 0.930 . S
H313 C355 0.932 . S
H314 C357 0.930 . S
H315 C358 0.929 . S
H316 C360 0.928 . S
H317 C361 0.930 . S
H318 C363 0.929 1_556 S
H319 C364 0.931 . S
H320 C366 0.930 . S
H321 C367 0.929 . S
O322 H296 0.856 . S
O322 C368 1.300 . S
O323 C368 1.209 . S
O324 C369 1.199 . S
O325 H297 0.854 . S
O325 C369 1.297 . S
C326 C327 1.404 1_545 S
C326 C331 1.397 . S
C326 C332 1.492 . S
C327 C326 1.404 1_565 S
C327 C328 1.396 . S
C327 C338 1.492 . S
C328 C327 1.396 . S
C328 C329 1.448 . S
C328 C344 1.509 . S
C329 C328 1.448 . S
C329 C330 1.394 1_556 S
C329 C350 1.454 1_556 S
C330 C329 1.394 1_554 S
C330 C331 1.388 1_564 S
C330 C356 1.490 1_565 S
C331 C326 1.397 . S
C331 C330 1.388 1_546 S
C331 C362 1.519 1_556 S
C332 C326 1.492 . S
C332 C333 1.363 . S
C332 C337 1.390 . S
C333 H298 0.930 . S
C333 C332 1.363 . S
C333 C334 1.372 . S
C334 H299 0.930 . S
C334 C333 1.372 . S
C334 C335 1.383 . S
C335 C334 1.383 . S
C335 C336 1.395 . S
C336 H300 0.930 . S
C336 C335 1.395 . S
C336 C337 1.362 . S
C337 H301 0.930 . S
C337 C332 1.390 . S
C337 C336 1.362 . S
C338 C327 1.492 . S
C338 C339 1.377 . S
C338 C343 1.397 . S
C339 H302 0.931 . S
C339 C338 1.377 . S
C339 C340 1.376 . S
C340 H303 0.930 . S
C340 C339 1.376 . S
C340 C341 1.376 . S
C341 C340 1.376 . S
C341 C342 1.378 . S
C341 C368 1.486 . S
C342 H304 0.930 1_565 S
C342 C341 1.378 . S
C342 C343 1.376 . S
C343 H305 0.929 1_565 S
C343 C338 1.397 . S
C343 C342 1.376 . S
C344 C328 1.509 . S
C344 C345 1.391 . S
C344 C349 1.386 . S
C345 H306 0.930 . S
C345 C344 1.391 . S
C345 C346 1.375 . S
C346 H307 0.931 . S
C346 C345 1.375 . S
C346 C347 1.375 . S
C347 C346 1.375 . S
C347 C348 1.361 . S
C348 H308 0.930 . S
C348 C347 1.361 . S
C348 C349 1.399 . S
C349 H309 0.929 . S
C349 C344 1.386 . S
C349 C348 1.399 . S
C350 C329 1.454 1_554 S
C350 C351 1.394 . S
C350 C355 1.360 . S
C351 H310 0.931 . S
C351 C350 1.394 . S
C351 C352 1.372 . S
C352 H311 0.930 . S
C352 C351 1.372 . S
C352 C353 1.397 . S
C353 C352 1.397 . S
C353 C354 1.390 . S
C353 C369 1.476 . S
C354 H312 0.930 . S
C354 C353 1.390 . S
C354 C355 1.366 . S
C355 H313 0.932 . S
C355 C350 1.360 . S
C355 C354 1.366 . S
C356 C330 1.490 1_545 S
C356 C357 1.380 . S
C356 C361 1.386 1_545 S
C357 H314 0.930 . S
C357 C356 1.380 . S
C357 C358 1.381 . S
C358 H315 0.929 . S
C358 C357 1.381 . S
C358 C359 1.371 . S
C359 C358 1.371 . S
C359 C360 1.382 1_545 S
C360 H316 0.928 . S
C360 C359 1.382 1_565 S
C360 C361 1.386 . S
C361 H317 0.930 . S
C361 C356 1.386 1_565 S
C361 C360 1.386 . S
C362 C331 1.519 1_554 S
C362 C363 1.377 . S
C362 C367 1.361 . S
C363 H318 0.929 1_554 S
C363 C362 1.377 . S
C363 C364 1.386 . S
C364 H319 0.931 . S
C364 C363 1.386 . S
C364 C365 1.363 . S
C365 C364 1.363 . S
C365 C366 1.385 . S
C366 H320 0.930 . S
C366 C365 1.385 . S
C366 C367 1.396 . S
C367 H321 0.929 . S
C367 C362 1.361 . S
C367 C366 1.396 . S
C368 O322 1.300 . S
C368 O323 1.209 . S
C368 C341 1.486 . S
C369 O324 1.199 . S
C369 O325 1.297 . S
C369 C353 1.476 . S
H370 O396 0.856 1_556 S
H371 O399 0.854 . S
H372 C407 0.930 . S
H373 C408 0.930 . S
H374 C410 0.930 . S
H375 C411 0.930 . S
H376 C413 0.931 . S
H377 C414 0.930 . S
H378 C416 0.930 . S
H379 C417 0.929 . S
H380 C419 0.930 . S
H381 C420 0.931 . S
H382 C422 0.930 . S
H383 C423 0.929 . S
H384 C425 0.931 . S
H385 C426 0.930 . S
H386 C428 0.930 . S
H387 C429 0.932 . S
H388 C431 0.930 . S
H389 C432 0.929 . S
H390 C434 0.931 . S
H391 C435 0.930 . S
H392 C437 0.929 . S
H393 C438 0.931 . S
H394 C440 0.930 . S
H395 C441 0.929 . S
O396 H370 0.856 1_554 S
O396 C442 1.300 . S
O397 C442 1.198 1_556 S
O398 C443 1.199 . S
O399 H371 0.854 . S
O399 C443 1.297 . S
C400 C401 1.404 . S
C400 C405 1.397 . S
C400 C406 1.492 . S
C401 C400 1.404 . S
C401 C402 1.396 . S
C401 C412 1.492 . S
C402 C401 1.396 . S
C402 C403 1.397 . S
C402 C418 1.509 . S
C403 C402 1.397 . S
C403 C404 1.412 . S
C403 C424 1.485 . S
C404 C403 1.412 . S
C404 C405 1.388 . S
C404 C430 1.490 . S
C405 C400 1.397 . S
C405 C404 1.388 . S
C405 C436 1.519 . S
C406 C400 1.492 . S
C406 C407 1.363 . S
C406 C411 1.390 . S
C407 H372 0.930 . S
C407 C406 1.363 . S
C407 C408 1.372 . S
C408 H373 0.930 . S
C408 C407 1.372 . S
C408 C409 1.383 . S
C409 C408 1.383 . S
C409 C410 1.395 . S
C410 H374 0.930 . S
C410 C409 1.395 . S
C410 C411 1.362 . S
C411 H375 0.930 . S
C411 C406 1.390 . S
C411 C410 1.362 . S
C412 C401 1.492 . S
C412 C413 1.377 . S
C412 C417 1.397 . S
C413 H376 0.931 . S
C413 C412 1.377 . S
C413 C414 1.376 . S
C414 H377 0.930 . S
C414 C413 1.376 . S
C414 C415 1.376 . S
C415 C414 1.376 . S
C415 C416 1.378 . S
C415 C442 1.486 . S
C416 H378 0.930 . S
C416 C415 1.378 . S
C416 C417 1.376 . S
C417 H379 0.929 . S
C417 C412 1.397 . S
C417 C416 1.376 . S
C418 C402 1.509 . S
C418 C419 1.391 . S
C418 C423 1.386 . S
C419 H380 0.930 . S
C419 C418 1.391 . S
C419 C420 1.375 . S
C420 H381 0.931 . S
C420 C419 1.375 . S
C420 C421 1.375 . S
C421 C420 1.375 . S
C421 C422 1.361 . S
C422 H382 0.930 . S
C422 C421 1.361 . S
C422 C423 1.399 . S
C423 H383 0.929 . S
C423 C418 1.386 . S
C423 C422 1.399 . S
C424 C403 1.485 . S
C424 C425 1.394 . S
C424 C429 1.360 . S
C425 H384 0.931 . S
C425 C424 1.394 . S
C425 C426 1.372 . S
C426 H385 0.930 . S
C426 C425 1.372 . S
C426 C427 1.397 . S
C427 C426 1.397 . S
C427 C428 1.390 . S
C427 C443 1.476 . S
C428 H386 0.930 . S
C428 C427 1.390 . S
C428 C429 1.366 . S
C429 H387 0.932 . S
C429 C424 1.360 . S
C429 C428 1.366 . S
C430 C404 1.490 . S
C430 C431 1.380 . S
C430 C435 1.386 . S
C431 H388 0.930 . S
C431 C430 1.380 . S
C431 C432 1.381 . S
C432 H389 0.929 . S
C432 C431 1.381 . S
C432 C433 1.371 . S
C433 C432 1.371 . S
C433 C434 1.380 . S
C434 H390 0.931 . S
C434 C433 1.380 . S
C434 C435 1.387 . S
C435 H391 0.930 . S
C435 C430 1.386 . S
C435 C434 1.387 . S
C436 C405 1.519 . S
C436 C437 1.377 . S
C436 C441 1.361 . S
C437 H392 0.929 . S
C437 C436 1.377 . S
C437 C438 1.386 . S
C438 H393 0.931 . S
C438 C437 1.386 . S
C438 C439 1.363 . S
C439 C438 1.363 . S
C439 C440 1.385 . S
C440 H394 0.930 . S
C440 C439 1.385 . S
C440 C441 1.396 . S
C441 H395 0.929 . S
C441 C436 1.361 . S
C441 C440 1.396 . S
C442 O396 1.300 . S
C442 O397 1.198 1_554 S
C442 C415 1.486 . S
C443 O398 1.199 . S
C443 O399 1.297 . S
C443 C427 1.476 . S
O444 Cd445 2.223 . S
O444 C452 1.315 . S
Cd445 O444 2.223 . S
Cd445 O448 2.297 . S
Cd445 O449 2.439 . S
Cd445 O455 2.240 . S
Cd446 O447 2.240 . S
Cd446 O454 2.223 . S
Cd446 O456 2.297 . S
Cd446 O457 2.439 . S
O447 Cd446 2.240 . S
O447 C452 1.279 . S
O448 Cd445 2.297 . S
O448 C450 1.247 . S
O449 Cd445 2.439 . S
O449 C450 1.208 . S
C450 O448 1.247 . S
C450 O449 1.208 . S
C451 O456 1.247 . S
C451 O457 1.208 . S
C452 O444 1.315 . S
C452 O447 1.279 . S
C453 O454 1.315 . S
C453 O455 1.279 . S
O454 Cd446 2.223 . S
O454 C453 1.315 . S
O455 Cd445 2.240 . S
O455 C453 1.279 . S
O456 Cd446 2.297 . S
O456 C451 1.247 . S
O457 Cd446 2.439 . S
O457 C451 1.208 . S
O458 Cd459 2.223 . S
O458 C466 1.315 . S
Cd459 O458 2.223 . S
Cd459 O462 2.297 . S
Cd459 O463 2.439 . S
Cd459 O469 2.240 . S
Cd460 O461 2.240 . S
Cd460 O468 2.223 . S
Cd460 O470 2.297 . S
Cd460 O471 2.439 . S
O461 Cd460 2.240 . S
O461 C466 1.279 . S
O462 Cd459 2.297 . S
O462 C464 1.247 . S
O463 Cd459 2.439 . S
O463 C464 1.208 . S
C464 O462 1.247 . S
C464 O463 1.208 . S
C465 O470 1.247 . S
C465 O471 1.208 . S
C466 O458 1.315 . S
C466 O461 1.279 . S
C467 O468 1.315 . S
C467 O469 1.279 . S
O468 Cd460 2.223 . S
O468 C467 1.315 . S
O469 Cd459 2.240 . S
O469 C467 1.279 . S
O470 Cd460 2.297 . S
O470 C465 1.247 . S
O471 Cd460 2.439 . S
O471 C465 1.208 . S
O472 Cd473 2.223 . S
O472 C480 1.315 . S
Cd473 O472 2.223 . S
Cd473 O476 2.297 . S
Cd473 O477 2.439 . S
Cd473 O483 2.240 . S
Cd474 O475 2.240 . S
Cd474 O482 2.223 . S
Cd474 O484 2.297 . S
Cd474 O485 2.439 . S
O475 Cd474 2.240 . S
O475 C480 1.279 . S
O476 Cd473 2.297 . S
O476 C478 1.247 . S
O477 Cd473 2.439 . S
O477 C478 1.208 . S
C478 O476 1.247 . S
C478 O477 1.208 . S
C479 O484 1.247 . S
C479 O485 1.208 . S
C480 O472 1.315 . S
C480 O475 1.279 . S
C481 O482 1.315 . S
C481 O483 1.279 . S
O482 Cd474 2.223 . S
O482 C481 1.315 . S
O483 Cd473 2.240 . S
O483 C481 1.279 . S
O484 Cd474 2.297 . S
O484 C479 1.247 . S
O485 Cd474 2.439 . S
O485 C479 1.208 . S
O486 Cd487 2.223 . S
O486 C494 1.315 . S
Cd487 O486 2.223 . S
Cd487 O490 2.297 . S
Cd487 O491 2.439 . S
Cd487 O497 2.240 . S
Cd488 O489 2.240 . S
Cd488 O496 2.223 . S
Cd488 O498 2.297 . S
Cd488 O499 2.439 . S
O489 Cd488 2.240 . S
O489 C494 1.279 . S
O490 Cd487 2.297 . S
O490 C492 1.247 . S
O491 Cd487 2.439 . S
O491 C492 1.208 . S
C492 O490 1.247 . S
C492 O491 1.208 . S
C493 O498 1.247 . S
C493 O499 1.208 . S
C494 O486 1.315 . S
C494 O489 1.279 . S
C495 O496 1.315 . S
C495 O497 1.279 . S
O496 Cd488 2.223 . S
O496 C495 1.315 . S
O497 Cd487 2.240 . S
O497 C495 1.279 . S
O498 Cd488 2.297 . S
O498 C493 1.247 . S
O499 Cd488 2.439 . S
O499 C493 1.208 . S
O500 Cd501 2.223 . S
O500 C508 1.315 . S
Cd501 O500 2.223 . S
Cd501 O504 2.297 . S
Cd501 O505 2.439 . S
Cd501 O511 2.240 . S
Cd502 O503 2.240 . S
Cd502 O510 2.223 . S
Cd502 O512 2.297 . S
Cd502 O513 2.439 . S
O503 Cd502 2.240 . S
O503 C508 1.279 . S
O504 Cd501 2.297 . S
O504 C506 1.247 . S
O505 Cd501 2.439 . S
O505 C506 1.208 . S
C506 O504 1.247 . S
C506 O505 1.208 . S
C507 O512 1.247 . S
C507 O513 1.208 . S
C508 O500 1.315 . S
C508 O503 1.279 . S
C509 O510 1.315 . S
C509 O511 1.279 . S
O510 Cd502 2.223 . S
O510 C509 1.315 . S
O511 Cd501 2.240 . S
O511 C509 1.279 . S
O512 Cd502 2.297 . S
O512 C507 1.247 . S
O513 Cd502 2.439 . S
O513 C507 1.208 . S
O514 Cd515 2.223 . S
O514 C522 1.315 . S
Cd515 O514 2.223 . S
Cd515 O518 2.297 . S
Cd515 O519 2.439 . S
Cd515 O525 2.240 . S
Cd516 O517 2.240 . S
Cd516 O524 2.223 . S
Cd516 O526 2.297 . S
Cd516 O527 2.439 . S
O517 Cd516 2.240 . S
O517 C522 1.279 . S
O518 Cd515 2.297 . S
O518 C520 1.247 . S
O519 Cd515 2.439 . S
O519 C520 1.208 . S
C520 O518 1.247 . S
C520 O519 1.208 . S
C521 O526 1.247 . S
C521 O527 1.208 . S
C522 O514 1.315 . S
C522 O517 1.279 . S
C523 O524 1.315 . S
C523 O525 1.279 . S
O524 Cd516 2.223 . S
O524 C523 1.315 . S
O525 Cd515 2.240 . S
O525 C523 1.279 . S
O526 Cd516 2.297 . S
O526 C521 1.247 . S
O527 Cd516 2.439 . S
O527 C521 1.208 . S
H528 C540 0.930 . S
H529 C542 0.930 . S
H530 C543 0.930 . S
H531 C547 0.959 . S
H532 C547 0.959 . S
H533 C547 0.961 . S
H534 C548 0.960 . S
H535 C548 0.961 . S
H536 C548 0.959 . S
H537 C551 0.929 . S
H538 C552 0.931 . S
H539 C554 0.930 . S
C540 H528 0.930 . S
C540 C541 1.399 . S
C540 C545 1.399 . S
C541 C540 1.399 . S
C541 C542 1.376 . S
C542 H529 0.930 . S
C542 C541 1.376 . S
C542 C543 1.388 . S
C543 H530 0.930 . S
C543 C542 1.388 . S
C543 C544 1.390 . S
C544 C543 1.390 . S
C544 C545 1.394 . S
C544 C550 1.465 . S
C545 C540 1.399 . S
C545 C544 1.394 . S
C545 C546 1.516 . S
C546 C545 1.516 . S
C546 C547 1.502 . S
C546 C548 1.561 . S
C546 C549 1.526 . S
C547 H531 0.959 . S
C547 H532 0.959 . S
C547 H533 0.961 . S
C547 C546 1.502 . S
C548 H534 0.960 . S
C548 H535 0.961 . S
C548 H536 0.959 . S
C548 C546 1.561 . S
C549 C546 1.526 . S
C549 C550 1.396 . S
C549 C554 1.390 . S
C550 C544 1.465 . S
C550 C549 1.396 . S
C550 C551 1.399 . S
C551 H537 0.929 . S
C551 C550 1.399 . S
C551 C552 1.385 . S
C552 H538 0.931 . S
C552 C551 1.385 . S
C552 C553 1.389 . S
C553 C552 1.389 . S
C553 C554 1.387 . S
C554 H539 0.930 . S
C554 C549 1.390 . S
C554 C553 1.387 . S
H555 C567 0.930 . S
H556 C569 0.930 . S
H557 C570 0.930 . S
H558 C574 0.959 . S
H559 C574 0.959 . S
H560 C574 0.961 . S
H561 C575 0.960 . S
H562 C575 0.961 . S
H563 C575 0.959 . S
H564 C578 0.929 . S
H565 C579 0.931 . S
H566 C581 0.930 . S
C567 H555 0.930 . S
C567 C568 1.399 . S
C567 C572 1.399 . S
C568 C567 1.399 . S
C568 C569 1.376 . S
C569 H556 0.930 . S
C569 C568 1.376 . S
C569 C570 1.388 . S
C570 H557 0.930 . S
C570 C569 1.388 . S
C570 C571 1.390 . S
C571 C570 1.390 . S
C571 C572 1.394 . S
C571 C577 1.465 . S
C572 C567 1.399 . S
C572 C571 1.394 . S
C572 C573 1.516 . S
C573 C572 1.516 . S
C573 C574 1.502 . S
C573 C575 1.561 . S
C573 C576 1.526 . S
C574 H558 0.959 . S
C574 H559 0.959 . S
C574 H560 0.961 . S
C574 C573 1.502 . S
C575 H561 0.960 . S
C575 H562 0.961 . S
C575 H563 0.959 . S
C575 C573 1.561 . S
C576 C573 1.526 . S
C576 C577 1.396 . S
C576 C581 1.390 . S
C577 C571 1.465 . S
C577 C576 1.396 . S
C577 C578 1.399 . S
C578 H564 0.929 . S
C578 C577 1.399 . S
C578 C579 1.385 . S
C579 H565 0.931 . S
C579 C578 1.385 . S
C579 C580 1.389 . S
C580 C579 1.389 . S
C580 C581 1.387 . S
C581 H566 0.930 . S
C581 C576 1.390 . S
C581 C580 1.387 . S
H582 C594 0.930 . S
H583 C596 0.930 . S
H584 C597 0.930 . S
H585 C601 0.959 . S
H586 C601 0.959 . S
H587 C601 0.961 . S
H588 C602 0.960 . S
H589 C602 0.961 . S
H590 C602 0.959 . S
H591 C605 0.929 . S
H592 C606 0.931 . S
H593 C608 0.930 . S
C594 H582 0.930 . S
C594 C595 1.399 . S
C594 C599 1.399 . S
C595 C594 1.399 . S
C595 C596 1.376 . S
C596 H583 0.930 . S
C596 C595 1.376 . S
C596 C597 1.388 . S
C597 H584 0.930 . S
C597 C596 1.388 . S
C597 C598 1.390 . S
C598 C597 1.390 . S
C598 C599 1.394 . S
C598 C604 1.465 . S
C599 C594 1.399 . S
C599 C598 1.394 . S
C599 C600 1.516 . S
C600 C599 1.516 . S
C600 C601 1.502 . S
C600 C602 1.561 . S
C600 C603 1.526 . S
C601 H585 0.959 . S
C601 H586 0.959 . S
C601 H587 0.961 . S
C601 C600 1.502 . S
C602 H588 0.960 . S
C602 H589 0.961 . S
C602 H590 0.959 . S
C602 C600 1.561 . S
C603 C600 1.526 . S
C603 C604 1.396 . S
C603 C608 1.390 . S
C604 C598 1.465 . S
C604 C603 1.396 . S
C604 C605 1.399 . S
C605 H591 0.929 . S
C605 C604 1.399 . S
C605 C606 1.385 . S
C606 H592 0.931 . S
C606 C605 1.385 . S
C606 C607 1.389 . S
C607 C606 1.389 . S
C607 C608 1.387 . S
C608 H593 0.930 . S
C608 C603 1.390 . S
C608 C607 1.387 . S
H609 C621 0.930 . S
H610 C623 0.930 . S
H611 C624 0.930 . S
H612 C628 0.959 . S
H613 C628 0.959 . S
H614 C628 0.961 . S
H615 C629 0.960 . S
H616 C629 0.961 . S
H617 C629 0.959 . S
H618 C632 0.929 . S
H619 C633 0.931 . S
H620 C635 0.930 . S
C621 H609 0.930 . S
C621 C622 1.399 . S
C621 C626 1.399 . S
C622 C621 1.399 . S
C622 C623 1.376 . S
C623 H610 0.930 . S
C623 C622 1.376 . S
C623 C624 1.388 . S
C624 H611 0.930 . S
C624 C623 1.388 . S
C624 C625 1.390 . S
C625 C624 1.390 . S
C625 C626 1.394 . S
C625 C631 1.465 . S
C626 C621 1.399 . S
C626 C625 1.394 . S
C626 C627 1.516 . S
C627 C626 1.516 . S
C627 C628 1.502 . S
C627 C629 1.561 . S
C627 C630 1.526 . S
C628 H612 0.959 . S
C628 H613 0.959 . S
C628 H614 0.961 . S
C628 C627 1.502 . S
C629 H615 0.960 . S
C629 H616 0.961 . S
C629 H617 0.959 . S
C629 C627 1.561 . S
C630 C627 1.526 . S
C630 C631 1.396 . S
C630 C635 1.390 . S
C631 C625 1.465 . S
C631 C630 1.396 . S
C631 C632 1.399 . S
C632 H618 0.929 . S
C632 C631 1.399 . S
C632 C633 1.385 . S
C633 H619 0.931 . S
C633 C632 1.385 . S
C633 C634 1.389 . S
C634 C633 1.389 . S
C634 C635 1.387 . S
C635 H620 0.930 . S
C635 C630 1.390 . S
C635 C634 1.387 . S
H636 C648 0.930 . S
H637 C650 0.930 . S
H638 C651 0.930 . S
H639 C655 0.959 . S
H640 C655 0.959 . S
H641 C655 0.961 . S
H642 C656 0.960 . S
H643 C656 0.961 . S
H644 C656 0.959 . S
H645 C659 0.929 . S
H646 C660 0.931 . S
H647 C662 0.930 . S
C648 H636 0.930 . S
C648 C649 1.399 . S
C648 C653 1.399 . S
C649 C648 1.399 . S
C649 C650 1.376 . S
C650 H637 0.930 . S
C650 C649 1.376 . S
C650 C651 1.388 . S
C651 H638 0.930 . S
C651 C650 1.388 . S
C651 C652 1.390 . S
C652 C651 1.390 . S
C652 C653 1.394 . S
C652 C658 1.465 . S
C653 C648 1.399 . S
C653 C652 1.394 . S
C653 C654 1.516 . S
C654 C653 1.516 . S
C654 C655 1.502 . S
C654 C656 1.561 . S
C654 C657 1.526 . S
C655 H639 0.959 . S
C655 H640 0.959 . S
C655 H641 0.961 . S
C655 C654 1.502 . S
C656 H642 0.960 . S
C656 H643 0.961 . S
C656 H644 0.959 . S
C656 C654 1.561 . S
C657 C654 1.526 . S
C657 C658 1.396 . S
C657 C662 1.390 . S
C658 C652 1.465 . S
C658 C657 1.396 . S
C658 C659 1.399 . S
C659 H645 0.929 . S
C659 C658 1.399 . S
C659 C660 1.385 . S
C660 H646 0.931 . S
C660 C659 1.385 . S
C660 C661 1.389 . S
C661 C660 1.389 . S
C661 C662 1.387 . S
C662 H647 0.930 . S
C662 C657 1.390 . S
C662 C661 1.387 . S
H663 C675 0.930 . S
H664 C677 0.930 . S
H665 C678 0.930 . S
H666 C682 0.959 . S
H667 C682 0.959 . S
H668 C682 0.961 . S
H669 C683 0.960 . S
H670 C683 0.961 . S
H671 C683 0.959 . S
H672 C686 0.929 . S
H673 C687 0.931 . S
H674 C689 0.930 . S
C675 H663 0.930 . S
C675 C676 1.399 . S
C675 C680 1.399 . S
C676 C675 1.399 . S
C676 C677 1.376 . S
C677 H664 0.930 . S
C677 C676 1.376 . S
C677 C678 1.388 . S
C678 H665 0.930 . S
C678 C677 1.388 . S
C678 C679 1.390 . S
C679 C678 1.390 . S
C679 C680 1.394 . S
C679 C685 1.465 . S
C680 C675 1.399 . S
C680 C679 1.394 . S
C680 C681 1.516 . S
C681 C680 1.516 . S
C681 C682 1.502 . S
C681 C683 1.561 . S
C681 C684 1.526 . S
C682 H666 0.959 . S
C682 H667 0.959 . S
C682 H668 0.961 . S
C682 C681 1.502 . S
C683 H669 0.960 . S
C683 H670 0.961 . S
C683 H671 0.959 . S
C683 C681 1.561 . S
C684 C681 1.526 . S
C684 C685 1.396 . S
C684 C689 1.390 . S
C685 C679 1.465 . S
C685 C684 1.396 . S
C685 C686 1.399 . S
C686 H672 0.929 . S
C686 C685 1.399 . S
C686 C687 1.385 . S
C687 H673 0.931 . S
C687 C686 1.385 . S
C687 C688 1.389 . S
C688 C687 1.389 . S
C688 C689 1.387 . S
C689 H674 0.930 . S
C689 C684 1.390 . S
C689 C688 1.387 . S
H690 C702 0.930 . S
H691 C704 0.930 . S
H692 C705 0.930 . S
H693 C709 0.959 . S
H694 C709 0.959 . S
H695 C709 0.961 . S
H696 C710 0.960 . S
H697 C710 0.961 . S
H698 C710 0.959 . S
H699 C713 0.929 . S
H700 C714 0.931 . S
H701 C716 0.930 . S
C702 H690 0.930 . S
C702 C703 1.399 . S
C702 C707 1.399 . S
C703 C702 1.399 . S
C703 C704 1.376 . S
C704 H691 0.930 . S
C704 C703 1.376 . S
C704 C705 1.388 . S
C705 H692 0.930 . S
C705 C704 1.388 . S
C705 C706 1.390 . S
C706 C705 1.390 . S
C706 C707 1.394 . S
C706 C712 1.465 . S
C707 C702 1.399 . S
C707 C706 1.394 . S
C707 C708 1.516 . S
C708 C707 1.516 . S
C708 C709 1.502 . S
C708 C710 1.561 . S
C708 C711 1.526 . S
C709 H693 0.959 . S
C709 H694 0.959 . S
C709 H695 0.961 . S
C709 C708 1.502 . S
C710 H696 0.960 . S
C710 H697 0.961 . S
C710 H698 0.959 . S
C710 C708 1.561 . S
C711 C708 1.526 . S
C711 C712 1.396 . S
C711 C716 1.390 . S
C712 C706 1.465 . S
C712 C711 1.396 . S
C712 C713 1.399 . S
C713 H699 0.929 . S
C713 C712 1.399 . S
C713 C714 1.385 . S
C714 H700 0.931 . S
C714 C713 1.385 . S
C714 C715 1.389 . S
C715 C714 1.389 . S
C715 C716 1.387 . S
C716 H701 0.930 . S
C716 C711 1.390 . S
C716 C715 1.387 . S
H717 C729 0.930 . S
H718 C731 0.930 . S
H719 C732 0.930 . S
H720 C736 0.959 . S
H721 C736 0.959 . S
H722 C736 0.961 . S
H723 C737 0.960 . S
H724 C737 0.961 . S
H725 C737 0.959 . S
H726 C740 0.929 . S
H727 C741 0.931 . S
H728 C743 0.930 . S
C729 H717 0.930 . S
C729 C730 1.399 . S
C729 C734 1.399 . S
C730 C729 1.399 . S
C730 C731 1.376 . S
C731 H718 0.930 . S
C731 C730 1.376 . S
C731 C732 1.388 . S
C732 H719 0.930 . S
C732 C731 1.388 . S
C732 C733 1.390 . S
C733 C732 1.390 . S
C733 C734 1.394 . S
C733 C739 1.465 . S
C734 C729 1.399 . S
C734 C733 1.394 . S
C734 C735 1.516 . S
C735 C734 1.516 . S
C735 C736 1.502 . S
C735 C737 1.561 . S
C735 C738 1.526 . S
C736 H720 0.959 . S
C736 H721 0.959 . S
C736 H722 0.961 . S
C736 C735 1.502 . S
C737 H723 0.960 . S
C737 H724 0.961 . S
C737 H725 0.959 . S
C737 C735 1.561 . S
C738 C735 1.526 . S
C738 C739 1.396 . S
C738 C743 1.390 . S
C739 C733 1.465 . S
C739 C738 1.396 . S
C739 C740 1.399 . S
C740 H726 0.929 . S
C740 C739 1.399 . S
C740 C741 1.385 . S
C741 H727 0.931 . S
C741 C740 1.385 . S
C741 C742 1.389 . S
C742 C741 1.389 . S
C742 C743 1.387 . S
C743 H728 0.930 . S
C743 C738 1.390 . S
C743 C742 1.387 . S
H744 C756 0.930 . S
H745 C758 0.930 . S
H746 C759 0.930 . S
H747 C763 0.959 . S
H748 C763 0.959 . S
H749 C763 0.961 . S
H750 C764 0.960 . S
H751 C764 0.961 . S
H752 C764 0.959 . S
H753 C767 0.929 . S
H754 C768 0.931 . S
H755 C770 0.930 . S
C756 H744 0.930 . S
C756 C757 1.399 . S
C756 C761 1.399 . S
C757 C756 1.399 . S
C757 C758 1.376 . S
C758 H745 0.930 . S
C758 C757 1.376 . S
C758 C759 1.388 . S
C759 H746 0.930 . S
C759 C758 1.388 . S
C759 C760 1.390 . S
C760 C759 1.390 . S
C760 C761 1.394 . S
C760 C766 1.465 . S
C761 C756 1.399 . S
C761 C760 1.394 . S
C761 C762 1.516 . S
C762 C761 1.516 . S
C762 C763 1.502 . S
C762 C764 1.561 . S
C762 C765 1.526 . S
C763 H747 0.959 . S
C763 H748 0.959 . S
C763 H749 0.961 . S
C763 C762 1.502 . S
C764 H750 0.960 . S
C764 H751 0.961 . S
C764 H752 0.959 . S
C764 C762 1.561 . S
C765 C762 1.526 . S
C765 C766 1.396 . S
C765 C770 1.390 . S
C766 C760 1.465 . S
C766 C765 1.396 . S
C766 C767 1.399 . S
C767 H753 0.929 . S
C767 C766 1.399 . S
C767 C768 1.385 . S
C768 H754 0.931 . S
C768 C767 1.385 . S
C768 C769 1.389 . S
C769 C768 1.389 . S
C769 C770 1.387 . S
C770 H755 0.930 . S
C770 C765 1.390 . S
C770 C769 1.387 . S
H771 C783 0.930 . S
H772 C785 0.930 . S
H773 C786 0.930 . S
H774 C790 0.959 . S
H775 C790 0.959 . S
H776 C790 0.961 . S
H777 C791 0.960 . S
H778 C791 0.961 . S
H779 C791 0.959 . S
H780 C794 0.929 . S
H781 C795 0.931 . S
H782 C797 0.930 . S
C783 H771 0.930 . S
C783 C784 1.399 . S
C783 C788 1.399 . S
C784 C783 1.399 . S
C784 C785 1.376 . S
C785 H772 0.930 . S
C785 C784 1.376 . S
C785 C786 1.388 . S
C786 H773 0.930 . S
C786 C785 1.388 . S
C786 C787 1.390 . S
C787 C786 1.390 . S
C787 C788 1.394 . S
C787 C793 1.465 . S
C788 C783 1.399 . S
C788 C787 1.394 . S
C788 C789 1.516 . S
C789 C788 1.516 . S
C789 C790 1.502 . S
C789 C791 1.561 1_554 S
C789 C792 1.526 . S
C790 H774 0.959 . S
C790 H775 0.959 . S
C790 H776 0.961 . S
C790 C789 1.502 . S
C791 H777 0.960 . S
C791 H778 0.961 . S
C791 H779 0.959 . S
C791 C789 1.561 1_556 S
C792 C789 1.526 . S
C792 C793 1.396 . S
C792 C797 1.390 . S
C793 C787 1.465 . S
C793 C792 1.396 . S
C793 C794 1.399 . S
C794 H780 0.929 . S
C794 C793 1.399 . S
C794 C795 1.385 . S
C795 H781 0.931 . S
C795 C794 1.385 . S
C795 C796 1.389 . S
C796 C795 1.389 . S
C796 C797 1.387 . S
C797 H782 0.930 . S
C797 C792 1.390 . S
C797 C796 1.387 . S
H798 C810 0.930 . S
H799 C812 0.930 . S
H800 C813 0.930 . S
H801 C817 0.959 . S
H802 C817 0.959 . S
H803 C817 0.961 . S
H804 C818 0.960 . S
H805 C818 0.961 . S
H806 C818 0.959 . S
H807 C821 0.929 . S
H808 C822 0.931 . S
H809 C824 0.930 . S
C810 H798 0.930 . S
C810 C811 1.399 . S
C810 C815 1.399 . S
C811 C810 1.399 . S
C811 C812 1.376 . S
C812 H799 0.930 . S
C812 C811 1.376 . S
C812 C813 1.388 . S
C813 H800 0.930 . S
C813 C812 1.388 . S
C813 C814 1.390 . S
C814 C813 1.390 . S
C814 C815 1.394 . S
C814 C820 1.465 . S
C815 C810 1.399 . S
C815 C814 1.394 . S
C815 C816 1.516 . S
C816 C815 1.516 . S
C816 C817 1.502 . S
C816 C818 1.561 . S
C816 C819 1.526 . S
C817 H801 0.959 . S
C817 H802 0.959 . S
C817 H803 0.961 . S
C817 C816 1.502 . S
C818 H804 0.960 . S
C818 H805 0.961 . S
C818 H806 0.959 . S
C818 C816 1.561 . S
C819 C816 1.526 . S
C819 C820 1.396 . S
C819 C824 1.390 . S
C820 C814 1.465 . S
C820 C819 1.396 . S
C820 C821 1.399 . S
C821 H807 0.929 . S
C821 C820 1.399 . S
C821 C822 1.385 . S
C822 H808 0.931 . S
C822 C821 1.385 . S
C822 C823 1.389 . S
C823 C822 1.389 . S
C823 C824 1.387 . S
C824 H809 0.930 . S
C824 C819 1.390 . S
C824 C823 1.387 . S
H825 C837 0.930 . S
H826 C839 0.930 . S
H827 C840 0.930 . S
H828 C844 0.959 . S
H829 C844 0.959 . S
H830 C844 0.961 . S
H831 C845 0.960 . S
H832 C845 0.961 . S
H833 C845 0.959 . S
H834 C848 0.929 . S
H835 C849 0.931 . S
H836 C851 0.930 . S
C837 H825 0.930 . S
C837 C838 1.399 . S
C837 C842 1.399 . S
C838 C837 1.399 . S
C838 C839 1.376 . S
C839 H826 0.930 . S
C839 C838 1.376 . S
C839 C840 1.388 . S
C840 H827 0.930 . S
C840 C839 1.388 . S
C840 C841 1.390 . S
C841 C840 1.390 . S
C841 C842 1.394 . S
C841 C847 1.465 . S
C842 C837 1.399 . S
C842 C841 1.394 . S
C842 C843 1.516 . S
C843 C842 1.516 . S
C843 C844 1.502 . S
C843 C845 1.561 . S
C843 C846 1.526 . S
C844 H828 0.959 . S
C844 H829 0.959 . S
C844 H830 0.961 . S
C844 C843 1.502 . S
C845 H831 0.960 . S
C845 H832 0.961 . S
C845 H833 0.959 . S
C845 C843 1.561 . S
C846 C843 1.526 . S
C846 C847 1.396 . S
C846 C851 1.390 . S
C847 C841 1.465 . S
C847 C846 1.396 . S
C847 C848 1.399 . S
C848 H834 0.929 . S
C848 C847 1.399 . S
C848 C849 1.385 . S
C849 H835 0.931 . S
C849 C848 1.385 . S
C849 C850 1.389 . S
C850 C849 1.389 . S
C850 C851 1.387 . S
C851 H836 0.930 . S
C851 C846 1.390 . S
C851 C850 1.387 . S
H852 C864 0.930 . S
H853 C866 0.930 . S
H854 C867 0.930 . S
H855 C871 0.959 . S
H856 C871 0.959 . S
H857 C871 0.961 . S
H858 C872 0.960 . S
H859 C872 0.961 . S
H860 C872 0.959 . S
H861 C875 0.929 . S
H862 C876 0.931 . S
H863 C878 0.930 . S
C864 H852 0.930 . S
C864 C865 1.399 . S
C864 C869 1.399 . S
C865 C864 1.399 . S
C865 C866 1.376 . S
C866 H853 0.930 . S
C866 C865 1.376 . S
C866 C867 1.388 . S
C867 H854 0.930 . S
C867 C866 1.388 . S
C867 C868 1.390 . S
C868 C867 1.390 . S
C868 C869 1.394 . S
C868 C874 1.465 . S
C869 C864 1.399 . S
C869 C868 1.394 . S
C869 C870 1.516 . S
C870 C869 1.516 . S
C870 C871 1.502 . S
C870 C872 1.561 . S
C870 C873 1.526 . S
C871 H855 0.959 . S
C871 H856 0.959 . S
C871 H857 0.961 . S
C871 C870 1.502 . S
C872 H858 0.960 . S
C872 H859 0.961 . S
C872 H860 0.959 . S
C872 C870 1.561 . S
C873 C870 1.526 . S
C873 C874 1.396 . S
C873 C878 1.390 . S
C874 C868 1.465 . S
C874 C873 1.396 . S
C874 C875 1.399 . S
C875 H861 0.929 . S
C875 C874 1.399 . S
C875 C876 1.385 . S
C876 H862 0.931 . S
C876 C875 1.385 . S
C876 C877 1.389 . S
C877 C876 1.389 . S
C877 C878 1.387 . S
C878 H863 0.930 . S
C878 C873 1.390 . S
C878 C877 1.387 . S
H879 C891 0.930 . S
H880 C893 0.930 . S
H881 C894 0.930 . S
H882 C898 0.959 . S
H883 C898 0.959 . S
H884 C898 0.961 . S
H885 C899 0.960 . S
H886 C899 0.961 . S
H887 C899 0.959 . S
H888 C902 0.929 . S
H889 C903 0.931 . S
H890 C905 0.930 . S
C891 H879 0.930 . S
C891 C892 1.399 . S
C891 C896 1.399 . S
C892 C891 1.399 . S
C892 C893 1.376 . S
C893 H880 0.930 . S
C893 C892 1.376 . S
C893 C894 1.388 . S
C894 H881 0.930 . S
C894 C893 1.388 . S
C894 C895 1.390 . S
C895 C894 1.390 . S
C895 C896 1.394 . S
C895 C901 1.465 . S
C896 C891 1.399 . S
C896 C895 1.394 . S
C896 C897 1.516 . S
C897 C896 1.516 . S
C897 C898 1.502 . S
C897 C899 1.561 . S
C897 C900 1.526 . S
C898 H882 0.959 . S
C898 H883 0.959 . S
C898 H884 0.961 . S
C898 C897 1.502 . S
C899 H885 0.960 . S
C899 H886 0.961 . S
C899 H887 0.959 . S
C899 C897 1.561 . S
C900 C897 1.526 . S
C900 C901 1.396 . S
C900 C905 1.390 . S
C901 C895 1.465 . S
C901 C900 1.396 . S
C901 C902 1.399 . S
C902 H888 0.929 . S
C902 C901 1.399 . S
C902 C903 1.385 . S
C903 H889 0.931 . S
C903 C902 1.385 . S
C903 C904 1.389 . S
C904 C903 1.389 . S
C904 C905 1.387 . S
C905 H890 0.930 . S
C905 C900 1.390 . S
C905 C904 1.387 . S
H906 C918 0.930 . S
H907 C920 0.930 . S
H908 C921 0.930 . S
H909 C925 0.959 . S
H910 C925 0.959 . S
H911 C925 0.961 . S
H912 C926 0.960 . S
H913 C926 0.961 . S
H914 C926 0.959 . S
H915 C929 0.929 . S
H916 C930 0.931 . S
H917 C932 0.930 . S
C918 H906 0.930 . S
C918 C919 1.399 . S
C918 C923 1.399 . S
C919 C918 1.399 . S
C919 C920 1.376 . S
C920 H907 0.930 . S
C920 C919 1.376 . S
C920 C921 1.388 . S
C921 H908 0.930 . S
C921 C920 1.388 . S
C921 C922 1.390 . S
C922 C921 1.390 . S
C922 C923 1.394 . S
C922 C928 1.465 . S
C923 C918 1.399 . S
C923 C922 1.394 . S
C923 C924 1.516 . S
C924 C923 1.516 . S
C924 C925 1.502 . S
C924 C926 1.561 . S
C924 C927 1.526 . S
C925 H909 0.959 . S
C925 H910 0.959 . S
C925 H911 0.961 . S
C925 C924 1.502 . S
C926 H912 0.960 . S
C926 H913 0.961 . S
C926 H914 0.959 . S
C926 C924 1.561 . S
C927 C924 1.526 . S
C927 C928 1.396 . S
C927 C932 1.390 . S
C928 C922 1.465 . S
C928 C927 1.396 . S
C928 C929 1.399 . S
C929 H915 0.929 . S
C929 C928 1.399 . S
C929 C930 1.385 . S
C930 H916 0.931 . S
C930 C929 1.385 . S
C930 C931 1.389 . S
C931 C930 1.389 . S
C931 C932 1.387 . S
C932 H917 0.930 . S
C932 C927 1.390 . S
C932 C931 1.387 . S
H933 C945 0.930 . S
H934 C947 0.930 . S
H935 C948 0.930 . S
H936 C952 0.959 . S
H937 C952 0.959 . S
H938 C952 0.961 . S
H939 C953 0.960 . S
H940 C953 0.961 . S
H941 C953 0.959 . S
H942 C956 0.929 . S
H943 C957 0.931 . S
H944 C959 0.930 1_554 S
C945 H933 0.930 . S
C945 C946 1.399 . S
C945 C950 1.399 . S
C946 C945 1.399 . S
C946 C947 1.376 . S
C947 H934 0.930 . S
C947 C946 1.376 . S
C947 C948 1.388 . S
C948 H935 0.930 . S
C948 C947 1.388 . S
C948 C949 1.390 . S
C949 C948 1.390 . S
C949 C950 1.394 . S
C949 C955 1.465 . S
C950 C945 1.399 . S
C950 C949 1.394 . S
C950 C951 1.516 . S
C951 C950 1.516 . S
C951 C952 1.502 . S
C951 C953 1.561 . S
C951 C954 1.526 . S
C952 H936 0.959 . S
C952 H937 0.959 . S
C952 H938 0.961 . S
C952 C951 1.502 . S
C953 H939 0.960 . S
C953 H940 0.961 . S
C953 H941 0.959 . S
C953 C951 1.561 . S
C954 C951 1.526 . S
C954 C955 1.396 . S
C954 C959 1.390 . S
C955 C949 1.465 . S
C955 C954 1.396 . S
C955 C956 1.399 . S
C956 H942 0.929 . S
C956 C955 1.399 . S
C956 C957 1.385 1_556 S
C957 H943 0.931 . S
C957 C956 1.385 1_554 S
C957 C958 1.389 . S
C958 C957 1.389 . S
C958 C959 1.387 1_554 S
C959 H944 0.930 1_556 S
C959 C954 1.390 . S
C959 C958 1.387 1_556 S
H960 C972 0.930 . S
H961 C974 0.930 . S
H962 C975 0.930 . S
H963 C979 0.959 . S
H964 C979 0.959 . S
H965 C979 0.961 . S
H966 C980 0.960 . S
H967 C980 0.961 . S
H968 C980 0.959 . S
H969 C983 0.929 . S
H970 C984 0.931 . S
H971 C986 0.930 . S
C972 H960 0.930 . S
C972 C973 1.399 1_565 S
C972 C977 1.399 . S
C973 C972 1.399 1_545 S
C973 C974 1.376 . S
C974 H961 0.930 . S
C974 C973 1.376 . S
C974 C975 1.388 . S
C975 H962 0.930 . S
C975 C974 1.388 . S
C975 C976 1.390 1_545 S
C976 C975 1.390 1_565 S
C976 C977 1.394 . S
C976 C982 1.465 . S
C977 C972 1.399 . S
C977 C976 1.394 . S
C977 C978 1.516 . S
C978 C977 1.516 . S
C978 C979 1.502 . S
C978 C980 1.561 . S
C978 C981 1.526 . S
C979 H963 0.959 . S
C979 H964 0.959 . S
C979 H965 0.961 . S
C979 C978 1.502 . S
C980 H966 0.960 . S
C980 H967 0.961 . S
C980 H968 0.959 . S
C980 C978 1.561 . S
C981 C978 1.526 . S
C981 C982 1.396 . S
C981 C986 1.390 . S
C982 C976 1.465 . S
C982 C981 1.396 . S
C982 C983 1.399 . S
C983 H969 0.929 . S
C983 C982 1.399 . S
C983 C984 1.385 . S
C984 H970 0.931 . S
C984 C983 1.385 . S
C984 C985 1.389 . S
C985 C984 1.389 . S
C985 C986 1.387 . S
C986 H971 0.930 . S
C986 C981 1.390 . S
C986 C985 1.387 . S
H987 C999 0.930 . S
H988 C1001 0.930 . S
H989 C1002 0.930 . S
H990 C1006 0.959 . S
H991 C1006 0.959 . S
H992 C1006 0.961 . S
H993 C1007 0.960 . S
H994 C1007 0.961 . S
H995 C1007 0.959 . S
H996 C1010 0.929 . S
H997 C1011 0.931 . S
H998 C1013 0.930 . S
C999 H987 0.930 . S
C999 C1000 1.399 . S
C999 C1004 1.399 . S
C1000 C999 1.399 . S
C1000 C1001 1.376 . S
C1001 H988 0.930 . S
C1001 C1000 1.376 . S
C1001 C1002 1.388 . S
C1002 H989 0.930 . S
C1002 C1001 1.388 . S
C1002 C1003 1.390 . S
C1003 C1002 1.390 . S
C1003 C1004 1.394 . S
C1003 C1009 1.465 . S
C1004 C999 1.399 . S
C1004 C1003 1.394 . S
C1004 C1005 1.516 . S
C1005 C1004 1.516 . S
C1005 C1006 1.502 . S
C1005 C1007 1.561 . S
C1005 C1008 1.526 . S
C1006 H990 0.959 . S
C1006 H991 0.959 . S
C1006 H992 0.961 . S
C1006 C1005 1.502 . S
C1007 H993 0.960 . S
C1007 H994 0.961 . S
C1007 H995 0.959 . S
C1007 C1005 1.561 . S
C1008 C1005 1.526 . S
C1008 C1009 1.396 . S
C1008 C1013 1.390 . S
C1009 C1003 1.465 . S
C1009 C1008 1.396 . S
C1009 C1010 1.399 . S
C1010 H996 0.929 . S
C1010 C1009 1.399 . S
C1010 C1011 1.385 . S
C1011 H997 0.931 . S
C1011 C1010 1.385 . S
C1011 C1012 1.389 . S
C1012 C1011 1.389 . S
C1012 C1013 1.387 . S
C1013 H998 0.930 . S
C1013 C1008 1.390 . S
C1013 C1012 1.387 . S
H1014 C1026 0.930 . S
H1015 C1028 0.930 . S
H1016 C1029 0.930 . S
H1017 C1033 0.959 . S
H1018 C1033 0.959 . S
H1019 C1033 0.961 . S
H1020 C1034 0.960 1_545 S
H1021 C1034 0.961 . S
H1022 C1034 0.959 . S
H1023 C1037 0.929 . S
H1024 C1038 0.931 . S
H1025 C1040 0.930 . S
C1026 H1014 0.930 . S
C1026 C1027 1.399 . S
C1026 C1031 1.399 . S
C1027 C1026 1.399 . S
C1027 C1028 1.376 . S
C1028 H1015 0.930 . S
C1028 C1027 1.376 . S
C1028 C1029 1.388 . S
C1029 H1016 0.930 . S
C1029 C1028 1.388 . S
C1029 C1030 1.390 . S
C1030 C1029 1.390 . S
C1030 C1031 1.394 . S
C1030 C1036 1.465 . S
C1031 C1026 1.399 . S
C1031 C1030 1.394 . S
C1031 C1032 1.516 . S
C1032 C1031 1.516 . S
C1032 C1033 1.502 . S
C1032 C1034 1.561 . S
C1032 C1035 1.526 . S
C1033 H1017 0.959 . S
C1033 H1018 0.959 . S
C1033 H1019 0.961 . S
C1033 C1032 1.502 . S
C1034 H1020 0.960 1_565 S
C1034 H1021 0.961 . S
C1034 H1022 0.959 . S
C1034 C1032 1.561 . S
C1035 C1032 1.526 . S
C1035 C1036 1.396 . S
C1035 C1040 1.390 . S
C1036 C1030 1.465 . S
C1036 C1035 1.396 . S
C1036 C1037 1.399 . S
C1037 H1023 0.929 . S
C1037 C1036 1.399 . S
C1037 C1038 1.385 . S
C1038 H1024 0.931 . S
C1038 C1037 1.385 . S
C1038 C1039 1.389 . S
C1039 C1038 1.389 . S
C1039 C1040 1.387 . S
C1040 H1025 0.930 . S
C1040 C1035 1.390 . S
C1040 C1039 1.387 . S
H1041 C1053 0.930 . S
H1042 C1055 0.930 . S
H1043 C1056 0.930 . S
H1044 C1060 0.959 . S
H1045 C1060 0.959 . S
H1046 C1060 0.961 . S
H1047 C1061 0.960 . S
H1048 C1061 0.961 . S
H1049 C1061 0.959 . S
H1050 C1064 0.929 . S
H1051 C1065 0.931 . S
H1052 C1067 0.930 . S
C1053 H1041 0.930 . S
C1053 C1054 1.399 . S
C1053 C1058 1.399 . S
C1054 C1053 1.399 . S
C1054 C1055 1.376 . S
C1055 H1042 0.930 . S
C1055 C1054 1.376 . S
C1055 C1056 1.388 . S
C1056 H1043 0.930 . S
C1056 C1055 1.388 . S
C1056 C1057 1.390 . S
C1057 C1056 1.390 . S
C1057 C1058 1.394 . S
C1057 C1063 1.465 . S
C1058 C1053 1.399 . S
C1058 C1057 1.394 . S
C1058 C1059 1.516 . S
C1059 C1058 1.516 . S
C1059 C1060 1.502 . S
C1059 C1061 1.561 . S
C1059 C1062 1.526 . S
C1060 H1044 0.959 . S
C1060 H1045 0.959 . S
C1060 H1046 0.961 . S
C1060 C1059 1.502 . S
C1061 H1047 0.960 . S
C1061 H1048 0.961 . S
C1061 H1049 0.959 . S
C1061 C1059 1.561 . S
C1062 C1059 1.526 . S
C1062 C1063 1.396 . S
C1062 C1067 1.390 . S
C1063 C1057 1.465 . S
C1063 C1062 1.396 . S
C1063 C1064 1.399 . S
C1064 H1050 0.929 . S
C1064 C1063 1.399 . S
C1064 C1065 1.385 . S
C1065 H1051 0.931 . S
C1065 C1064 1.385 . S
C1065 C1066 1.389 . S
C1066 C1065 1.389 . S
C1066 C1067 1.387 . S
C1067 H1052 0.930 . S
C1067 C1062 1.390 . S
C1067 C1066 1.387 . S
H1068 C1080 0.930 . S
H1069 C1082 0.930 . S
H1070 C1083 0.930 . S
H1071 C1087 0.959 . S
H1072 C1087 0.959 . S
H1073 C1087 0.961 . S
H1074 C1088 0.960 . S
H1075 C1088 0.961 . S
H1076 C1088 0.959 . S
H1077 C1091 0.929 . S
H1078 C1092 0.931 . S
H1079 C1094 0.930 . S
C1080 H1068 0.930 . S
C1080 C1081 1.399 . S
C1080 C1085 1.399 . S
C1081 C1080 1.399 . S
C1081 C1082 1.376 . S
C1082 H1069 0.930 . S
C1082 C1081 1.376 . S
C1082 C1083 1.388 . S
C1083 H1070 0.930 . S
C1083 C1082 1.388 . S
C1083 C1084 1.390 . S
C1084 C1083 1.390 . S
C1084 C1085 1.394 . S
C1084 C1090 1.465 . S
C1085 C1080 1.399 . S
C1085 C1084 1.394 . S
C1085 C1086 1.516 . S
C1086 C1085 1.516 . S
C1086 C1087 1.502 . S
C1086 C1088 1.561 . S
C1086 C1089 1.526 . S
C1087 H1071 0.959 . S
C1087 H1072 0.959 . S
C1087 H1073 0.961 . S
C1087 C1086 1.502 . S
C1088 H1074 0.960 . S
C1088 H1075 0.961 . S
C1088 H1076 0.959 . S
C1088 C1086 1.561 . S
C1089 C1086 1.526 . S
C1089 C1090 1.396 . S
C1089 C1094 1.390 . S
C1090 C1084 1.465 . S
C1090 C1089 1.396 . S
C1090 C1091 1.399 . S
C1091 H1077 0.929 . S
C1091 C1090 1.399 . S
C1091 C1092 1.385 . S
C1092 H1078 0.931 . S
C1092 C1091 1.385 . S
C1092 C1093 1.389 . S
C1093 C1092 1.389 . S
C1093 C1094 1.387 . S
C1094 H1079 0.930 . S
C1094 C1089 1.390 . S
C1094 C1093 1.387 . S
H1095 C1107 0.930 . S
H1096 C1109 0.930 . S
H1097 C1110 0.930 . S
H1098 C1114 0.959 . S
H1099 C1114 0.959 . S
H1100 C1114 0.961 . S
H1101 C1115 0.960 . S
H1102 C1115 0.961 . S
H1103 C1115 0.959 . S
H1104 C1118 0.929 . S
H1105 C1119 0.931 . S
H1106 C1121 0.930 . S
C1107 H1095 0.930 . S
C1107 C1108 1.399 . S
C1107 C1112 1.399 . S
C1108 C1107 1.399 . S
C1108 C1109 1.376 . S
C1109 H1096 0.930 . S
C1109 C1108 1.376 . S
C1109 C1110 1.388 . S
C1110 H1097 0.930 . S
C1110 C1109 1.388 . S
C1110 C1111 1.390 . S
C1111 C1110 1.390 . S
C1111 C1112 1.394 . S
C1111 C1117 1.465 . S
C1112 C1107 1.399 . S
C1112 C1111 1.394 . S
C1112 C1113 1.516 . S
C1113 C1112 1.516 . S
C1113 C1114 1.502 . S
C1113 C1115 1.561 . S
C1113 C1116 1.526 . S
C1114 H1098 0.959 . S
C1114 H1099 0.959 . S
C1114 H1100 0.961 . S
C1114 C1113 1.502 . S
C1115 H1101 0.960 . S
C1115 H1102 0.961 . S
C1115 H1103 0.959 . S
C1115 C1113 1.561 . S
C1116 C1113 1.526 . S
C1116 C1117 1.396 . S
C1116 C1121 1.390 . S
C1117 C1111 1.465 . S
C1117 C1116 1.396 . S
C1117 C1118 1.399 . S
C1118 H1104 0.929 . S
C1118 C1117 1.399 . S
C1118 C1119 1.385 . S
C1119 H1105 0.931 . S
C1119 C1118 1.385 . S
C1119 C1120 1.389 . S
C1120 C1119 1.389 . S
C1120 C1121 1.387 . S
C1121 H1106 0.930 . S
C1121 C1116 1.390 . S
C1121 C1120 1.387 . S
H1122 C1134 0.930 . S
H1123 C1136 0.930 . S
H1124 C1137 0.930 . S
H1125 C1141 0.959 . S
H1126 C1141 0.959 1_556 S
H1127 C1141 0.961 . S
H1128 C1142 0.960 . S
H1129 C1142 0.961 . S
H1130 C1142 0.959 . S
H1131 C1145 0.929 . S
H1132 C1146 0.931 . S
H1133 C1148 0.930 . S
C1134 H1122 0.930 . S
C1134 C1135 1.399 . S
C1134 C1139 1.399 . S
C1135 C1134 1.399 . S
C1135 C1136 1.376 . S
C1136 H1123 0.930 . S
C1136 C1135 1.376 . S
C1136 C1137 1.388 . S
C1137 H1124 0.930 . S
C1137 C1136 1.388 . S
C1137 C1138 1.390 . S
C1138 C1137 1.390 . S
C1138 C1139 1.394 . S
C1138 C1144 1.465 1_554 S
C1139 C1134 1.399 . S
C1139 C1138 1.394 . S
C1139 C1140 1.516 . S
C1140 C1139 1.516 . S
C1140 C1141 1.502 . S
C1140 C1142 1.561 1_554 S
C1140 C1143 1.526 1_554 S
C1141 H1125 0.959 . S
C1141 H1126 0.959 1_554 S
C1141 H1127 0.961 . S
C1141 C1140 1.502 . S
C1142 H1128 0.960 . S
C1142 H1129 0.961 . S
C1142 H1130 0.959 . S
C1142 C1140 1.561 1_556 S
C1143 C1140 1.526 1_556 S
C1143 C1144 1.396 . S
C1143 C1148 1.390 . S
C1144 C1138 1.465 1_556 S
C1144 C1143 1.396 . S
C1144 C1145 1.399 . S
C1145 H1131 0.929 . S
C1145 C1144 1.399 . S
C1145 C1146 1.385 . S
C1146 H1132 0.931 . S
C1146 C1145 1.385 . S
C1146 C1147 1.389 . S
C1147 C1146 1.389 . S
C1147 C1148 1.387 . S
C1148 H1133 0.930 . S
C1148 C1143 1.390 . S
C1148 C1147 1.387 . S
H1149 C1161 0.930 . S
H1150 C1163 0.930 . S
H1151 C1164 0.930 . S
H1152 C1168 0.959 . S
H1153 C1168 0.959 . S
H1154 C1168 0.961 . S
H1155 C1169 0.960 . S
H1156 C1169 0.961 . S
H1157 C1169 0.959 . S
H1158 C1172 0.929 . S
H1159 C1173 0.931 . S
H1160 C1175 0.930 . S
C1161 H1149 0.930 . S
C1161 C1162 1.399 . S
C1161 C1166 1.399 . S
C1162 C1161 1.399 . S
C1162 C1163 1.376 . S
C1163 H1150 0.930 . S
C1163 C1162 1.376 . S
C1163 C1164 1.388 . S
C1164 H1151 0.930 . S
C1164 C1163 1.388 . S
C1164 C1165 1.390 . S
C1165 C1164 1.390 . S
C1165 C1166 1.394 . S
C1165 C1171 1.465 . S
C1166 C1161 1.399 . S
C1166 C1165 1.394 . S
C1166 C1167 1.516 . S
C1167 C1166 1.516 . S
C1167 C1168 1.502 . S
C1167 C1169 1.561 . S
C1167 C1170 1.526 . S
C1168 H1152 0.959 . S
C1168 H1153 0.959 . S
C1168 H1154 0.961 . S
C1168 C1167 1.502 . S
C1169 H1155 0.960 . S
C1169 H1156 0.961 . S
C1169 H1157 0.959 . S
C1169 C1167 1.561 . S
C1170 C1167 1.526 . S
C1170 C1171 1.396 . S
C1170 C1175 1.390 . S
C1171 C1165 1.465 . S
C1171 C1170 1.396 . S
C1171 C1172 1.399 . S
C1172 H1158 0.929 . S
C1172 C1171 1.399 . S
C1172 C1173 1.385 . S
C1173 H1159 0.931 . S
C1173 C1172 1.385 . S
C1173 C1174 1.389 . S
C1174 C1173 1.389 . S
C1174 C1175 1.387 . S
C1175 H1160 0.930 . S
C1175 C1170 1.390 . S
C1175 C1174 1.387 . S
C553 C521 1.406 . S
C541 C51 1.465 . S
C568 C125 1.447 . S
C580 C450 1.413 . S
C595 C217 2.608 . S
C607 C464 2.608 . S
C622 C291 1.564 . S
C634 C478 1.538 . S
C661 C492 0.991 . S
C649 C347 0.914 . S
C676 C421 1.141 . S
C688 C507 1.116 . S
C703 C143 2.214 . S
C715 C465 2.194 . S
C730 C199 1.561 . S
C742 C479 1.558 . S
C757 C273 0.736 . S
C769 C493 0.755 . S
C796 C506 1.705 . S
C784 C365 1.704 . S
C823 C520 1.792 . S
C811 C439 1.775 . S
C850 C451 2.547 . S
C838 C69 2.529 . S
C865 C63 1.507 . S
C877 C467 1.573 . S
C892 C137 1.899 . S
C904 C481 1.952 . S
C931 C495 1.370 . S
C919 C187 1.335 . S
C946 C261 1.824 . S
C958 C508 1.761 . S
C985 C522 1.577 . S
C973 C359 1.464 . S
C1012 C453 1.440 . S
C1000 C433 1.437 . S
C1039 C523 1.894 . S
C1027 C113 1.933 . S
C1054 C211 1.284 . S
C1066 C452 1.394 . S
C1093 C466 1.951 . S
C1081 C285 1.851 . S
C1108 C335 1.306 . S
C1120 C480 1.439 . S
C1135 C409 1.604 . S
C1147 C494 1.671 . S
C1162 C39 1.597 . S
C1174 C509 1.582 . S
