# Generated by pormake.
# Topology rtl, (3,6)-cn, num edge types: 1
# Building blocks:
#     Node 0, Type 0, BuildingBlock: ESEHIV_clean_linker_0, # of connection points: 3
#     Node 1, Type 0, BuildingBlock: ESEHIV_clean_linker_0, # of connection points: 3
#     Node 2, Type 0, BuildingBlock: ESEHIV_clean_linker_0, # of connection points: 3
#     Node 3, Type 0, BuildingBlock: ESEHIV_clean_linker_0, # of connection points: 3
#     Node 4, Type 1, BuildingBlock: KUMBOL_clean_sbu_1, # of connection points: 6
#     Node 5, Type 1, BuildingBlock: KUMBOL_clean_sbu_1, # of connection points: 6
#     Edge 6, Type (0, 1), BuildingBlock: XIVTED_clean_linker_0, # of connection points: 2
#     Edge 7, Type (0, 1), BuildingBlock: XIVTED_clean_linker_0, # of connection points: 2
#     Edge 8, Type (0, 1), BuildingBlock: XIVTED_clean_linker_0, # of connection points: 2
#     Edge 9, Type (0, 1), BuildingBlock: XIVTED_clean_linker_0, # of connection points: 2
#     Edge 10, Type (0, 1), BuildingBlock: XIVTED_clean_linker_0, # of connection points: 2
#     Edge 11, Type (0, 1), BuildingBlock: XIVTED_clean_linker_0, # of connection points: 2
#     Edge 12, Type (0, 1), BuildingBlock: XIVTED_clean_linker_0, # of connection points: 2
#     Edge 13, Type (0, 1), BuildingBlock: XIVTED_clean_linker_0, # of connection points: 2
#     Edge 14, Type (0, 1), BuildingBlock: XIVTED_clean_linker_0, # of connection points: 2
#     Edge 15, Type (0, 1), BuildingBlock: XIVTED_clean_linker_0, # of connection points: 2
#     Edge 16, Type (0, 1), BuildingBlock: XIVTED_clean_linker_0, # of connection points: 2
#     Edge 17, Type (0, 1), BuildingBlock: XIVTED_clean_linker_0, # of connection points: 2
# Relax obj value: 0.018
# Max RMSD: 0.117
# Mean RMSD: 0.069
data_MOF--net-rtl--node1-KUMBOL_clean_sbu_1--node2-ESEHIV_clean_linker_0--edge1-XIVTED_clean_linker_0
_symmetry_space_group_name_H-M    P1
_symmetry_Int_Tables_number       1
_symmetry_cell_setting            triclinic
loop_
_symmetry_equiv_pos_as_xyz
'x, y, z'
_cell_length_a     30.919812
_cell_length_b     31.654812
_cell_length_c     28.23059
_cell_angle_alpha  77.264849
_cell_angle_beta   99.915099
_cell_angle_gamma 90.768077
loop_
_atom_site_label
_atom_site_type_symbol
_atom_site_fract_x
_atom_site_fract_y
_atom_site_fract_z
_atom_type_partial_charge
H0 H 0.1609 0.89603 0.01707 0.0
H1 H 0.2575 0.80473 0.11238 0.0
H2 H 0.24721 0.82857 0.95432 0.0
C3 C 0.18835 0.87356 0.02226 0.0
C4 C 0.20215 0.86463 0.98079 0.0
C5 C 0.209 0.8531 0.07005 0.0
C6 C 0.24261 0.82182 0.07571 0.0
C7 C 0.25625 0.81191 0.03416 0.0
C8 C 0.23673 0.83488 0.98687 0.0
H9 H 0.61259 0.6457 0.63404 0.0
H10 H 0.70028 0.72048 0.5479 0.0
H11 H 0.70722 0.72591 0.70015 0.0
C12 C 0.63874 0.66876 0.63081 0.0
C13 C 0.65743 0.68506 0.67195 0.0
C14 C 0.65444 0.68094 0.58608 0.0
C15 C 0.68831 0.71083 0.58246 0.0
C16 C 0.70785 0.72734 0.62324 0.0
C17 C 0.6922 0.71408 0.66811 0.0
H18 H 0.85022 0.10115 0.07514 0.0
H19 H 0.77977 0.18058 0.14306 0.0
H20 H 0.74688 0.18857 0.98699 0.0
C21 C 0.82459 0.1251 0.07217 0.0
C22 C 0.79948 0.14346 0.02584 0.0
C23 C 0.81734 0.13829 0.11458 0.0
C24 C 0.78466 0.1699 0.1104 0.0
C25 C 0.7588 0.18814 0.06461 0.0
C26 C 0.76632 0.17443 0.02261 0.0
H27 H 0.38348 0.36456 0.45395 0.0
H28 H 0.2988 0.2844 0.53936 0.0
H29 H 0.29731 0.27736 0.38842 0.0
C30 C 0.3592 0.33955 0.45729 0.0
C31 C 0.34343 0.3215 0.41656 0.0
C32 C 0.34266 0.32701 0.50143 0.0
C33 C 0.31033 0.29548 0.50469 0.0
C34 C 0.29325 0.27754 0.46416 0.0
C35 C 0.31009 0.29078 0.42003 0.0
C36 C 0.92079 0.11745 0.47932 0.0
C37 C 0.84796 0.09118 0.45611 0.0
C38 C 0.88987 0.08543 0.48614 0.0
C39 C 0.83859 0.12816 0.41764 0.0
C40 C 0.91122 0.15508 0.44147 0.0
C41 C 0.87017 0.15998 0.41029 0.0
N42 N 0.96058 0.11145 0.50946 0.0
C43 C 0.9917 0.14231 0.50497 0.0
C44 C 0.94334 0.18655 0.43599 0.0
C45 C 0.98365 0.18024 0.46807 0.0
Gd46 Gd 0.03756 0.95102 0.53253 0.0
Gd47 Gd 0.97236 0.04598 0.56842 0.0
N48 N 0.90005 0.04972 0.52347 0.0
C49 C 0.81618 0.06032 0.46665 0.0
C50 C 0.8677 0.02217 0.5368 0.0
C51 C 0.82581 0.02622 0.5079 0.0
H52 H 0.87323 0.99786 0.57056 0.0
H53 H 0.80069 0.00357 0.51812 0.0
H54 H 0.13715 0.9996 0.54137 0.0
H55 H 0.02262 0.13766 0.53003 0.0
H56 H 0.20687 0.9917 0.59914 0.0
H57 H 0.78356 0.06362 0.44458 0.0
H58 H 0.80672 0.13284 0.39393 0.0
H59 H 0.98284 0.86116 0.56682 0.0
H60 H 0.93726 0.21588 0.4073 0.0
H61 H 0.00854 0.20454 0.4644 0.0
H62 H 0.19379 0.85932 0.71618 0.0
H63 H 0.86232 0.18851 0.38074 0.0
H64 H 0.06167 0.77999 0.69267 0.0
H65 H 0.99256 0.79389 0.63202 0.0
N66 N 0.04509 0.88525 0.59114 0.0
C67 C 0.08389 0.8777 0.62308 0.0
C68 C 0.01276 0.85553 0.59352 0.0
C69 C 0.05752 0.80951 0.66415 0.0
C70 C 0.01839 0.8173 0.63011 0.0
C71 C 0.0909 0.83982 0.66091 0.0
H72 H 0.1365 0.80484 0.72402 0.0
N73 N 0.1079 0.94551 0.58242 0.0
C74 C 0.11598 0.90888 0.61891 0.0
C75 C 0.18868 0.93315 0.64571 0.0
C76 C 0.15626 0.90222 0.65211 0.0
C77 C 0.14088 0.97376 0.57371 0.0
C78 C 0.18124 0.96863 0.60577 0.0
O79 O 0.98006 0.05228 0.489 0.0
O80 O 0.97783 0.98238 0.4789 0.0
O81 O 0.07623 0.95088 0.47506 0.0
O82 O 0.03773 0.89552 0.49915 0.0
O83 O 0.94898 0.97676 0.58806 0.0
O84 O 0.96441 0.94332 0.52759 0.0
O85 O 0.02921 0.94683 0.61149 0.0
O86 O 0.03414 0.01704 0.61935 0.0
O87 O 0.94054 0.04207 0.63201 0.0
O88 O 0.97249 0.10087 0.60298 0.0
O89 O 0.06165 0.01994 0.51114 0.0
O90 O 0.04501 0.05512 0.56988 0.0
C91 C 0.97033 0.02406 0.4614 0.0
C92 C 0.94167 0.94662 0.56208 0.0
C93 C 0.04306 0.91412 0.41508 0.0
C94 C 0.05433 0.91045 0.33274 0.0
C95 C 0.98123 0.92442 0.34743 0.0
C96 C 0.99798 0.92178 0.39716 0.0
C97 C 0.00922 0.91905 0.31525 0.0
C98 C 0.07111 0.90801 0.38288 0.0
C99 C 0.06115 0.91412 0.46676 0.0
C100 C 0.16319 0.86473 0.69016 0.0
C101 C 0.13062 0.83362 0.69453 0.0
H102 H 0.22005 0.92922 0.67039 0.0
C103 C 0.04185 0.97559 0.63755 0.0
C104 C 0.06749 0.05158 0.53519 0.0
C105 C 0.91093 0.10745 0.64042 0.0
C106 C 0.86621 0.12842 0.69519 0.0
C107 C 0.84788 0.15609 0.6064 0.0
C108 C 0.88362 0.13299 0.59961 0.0
C109 C 0.83913 0.15388 0.65382 0.0
C110 C 0.9021 0.10521 0.68797 0.0
C111 C 0.94826 0.0821 0.63448 0.0
H112 H 0.94647 0.93061 0.33381 0.0
H113 H 0.97578 0.92575 0.42166 0.0
H114 H 0.99553 0.92089 0.27683 0.0
H115 H 0.10596 0.90213 0.39661 0.0
H116 H 0.82695 0.17587 0.57482 0.0
H117 H 0.88987 0.13511 0.56266 0.0
H118 H 0.81156 0.17258 0.65814 0.0
H119 H 0.92293 0.08483 0.71928 0.0
C120 C 0.63576 0.56703 0.04449 0.0
C121 C 0.61859 0.64415 0.02477 0.0
C122 C 0.6077 0.60114 0.04429 0.0
C123 C 0.65674 0.65217 0.00377 0.0
C124 C 0.67455 0.57503 0.02438 0.0
C125 C 0.68465 0.61772 0.00362 0.0
N126 N 0.62445 0.52582 0.0632 0.0
C127 C 0.6513 0.49135 0.06521 0.0
C128 C 0.70186 0.53977 0.02535 0.0
C129 C 0.69029 0.49779 0.04611 0.0
Gd130 Gd 0.45851 0.48535 0.99847 0.0
Gd131 Gd 0.55891 0.51841 0.09487 0.0
N132 N 0.5707 0.59245 0.06458 0.0
C133 C 0.59146 0.67799 0.02813 0.0
C134 C 0.54676 0.62554 0.07214 0.0
C135 C 0.55591 0.66865 0.05282 0.0
H136 H 0.52145 0.6192 0.0944 0.0
H137 H 0.53609 0.69467 0.05795 0.0
H138 H 0.48589 0.37977 0.04806 0.0
H139 H 0.64244 0.45893 0.08146 0.0
H140 H 0.45126 0.31439 0.08802 0.0
H141 H 0.59871 0.71146 0.01362 0.0
H142 H 0.66535 0.68499 0.98827 0.0
H143 H 0.38038 0.56322 0.96508 0.0
H144 H 0.73194 0.54462 0.01026 0.0
H145 H 0.71134 0.4704 0.04731 0.0
H146 H 0.3032 0.36081 0.08323 0.0
H147 H 0.71412 0.62448 0.98763 0.0
H148 H 0.26241 0.50957 0.01064 0.0
H149 H 0.30256 0.57234 0.97197 0.0
N150 N 0.3846 0.49695 1.00169 0.0
C151 C 0.36301 0.4618 0.02219 0.0
C152 C 0.36343 0.53614 0.98333 0.0
C153 C 0.29666 0.50559 0.00821 0.0
C154 C 0.31924 0.54115 0.98653 0.0
C155 C 0.31843 0.46525 0.02621 0.0
H156 H 0.26289 0.4306 0.05172 0.0
N157 N 0.42935 0.42049 0.0374 0.0
C158 C 0.38586 0.42235 0.0401 0.0
C159 C 0.38858 0.34641 0.08017 0.0
C160 C 0.36452 0.38548 0.06227 0.0
C161 C 0.45244 0.38208 0.05303 0.0
C162 C 0.43262 0.34466 0.07516 0.0
O163 O 0.56575 0.52056 0.01539 0.0
O164 O 0.49784 0.54377 0.97225 0.0
O165 O 0.4671 0.44992 0.94291 0.0
O166 O 0.41453 0.49787 0.92783 0.0
O167 O 0.4917 0.55006 0.08739 0.0
O168 O 0.4623 0.55485 0.00541 0.0
O169 O 0.44819 0.4745 0.07795 0.0
O170 O 0.51721 0.46385 0.12629 0.0
O171 O 0.5695 0.54293 0.16319 0.0
O172 O 0.61318 0.49325 0.15282 0.0
O173 O 0.52333 0.44811 0.01237 0.0
O174 O 0.55604 0.44805 0.0925 0.0
C175 C 0.5407 0.54335 0.97608 0.0
C176 C 0.4642 0.56787 0.0469 0.0
C177 C 0.44588 0.48777 0.86064 0.0
C178 C 0.44474 0.479 0.77667 0.0
C179 C 0.47871 0.54168 0.80305 0.0
C180 C 0.46774 0.52682 0.84971 0.0
C181 C 0.4674 0.51793 0.76669 0.0
C182 C 0.4343 0.46402 0.82407 0.0
C183 C 0.43547 0.47122 0.91014 0.0
C184 C 0.32008 0.38879 0.0662 0.0
C185 C 0.29712 0.42855 0.04826 0.0
H186 H 0.37339 0.31736 0.09747 0.0
C187 C 0.47434 0.45997 0.12029 0.0
C188 C 0.55136 0.43196 0.05292 0.0
C189 C 0.6313 0.5153 0.23033 0.0
C190 C 0.64406 0.53227 0.31187 0.0
C191 C 0.69543 0.48508 0.29055 0.0
C192 C 0.67003 0.48948 0.24386 0.0
C193 C 0.68252 0.50611 0.32445 0.0
C194 C 0.61867 0.53717 0.26437 0.0
C195 C 0.60391 0.51745 0.18146 0.0
H196 H 0.49572 0.57184 0.79493 0.0
H197 H 0.47602 0.54577 0.87723 0.0
H198 H 0.47554 0.53048 0.73048 0.0
H199 H 0.41749 0.43373 0.83268 0.0
H200 H 0.72518 0.46513 0.30058 0.0
H201 H 0.68068 0.47238 0.21845 0.0
H202 H 0.70295 0.50232 0.36046 0.0
H203 H 0.58878 0.55698 0.25452 0.0
H204 H 0.28196 0.20346 0.42709 0.0
H205 H 0.097 0.11434 0.58476 0.0
H206 H 0.22327 0.27786 0.51179 0.0
H207 H 0.11488 0.0638 0.4591 0.0
H208 H 0.14991 0.16991 0.56382 0.0
H209 H 0.22624 0.14831 0.44178 0.0
C210 C 0.25723 0.20848 0.44832 0.0
C211 C 0.25783 0.24519 0.46882 0.0
C212 C 0.1422 0.14677 0.54069 0.0
C213 C 0.19473 0.18185 0.4865 0.0
C214 C 0.11197 0.11489 0.55266 0.0
C215 C 0.10101 0.08447 0.5234 0.0
C216 C 0.16243 0.14804 0.49957 0.0
C217 C 0.12217 0.08664 0.48265 0.0
C218 C 0.22561 0.17687 0.45687 0.0
C219 C 0.22503 0.24965 0.49634 0.0
N220 N 0.15203 0.11782 0.472 0.0
N221 N 0.19521 0.21826 0.50472 0.0
H222 H 0.32923 0.78578 0.10687 0.0
H223 H 0.42317 0.6271 0.96695 0.0
H224 H 0.25705 0.75501 0.97386 0.0
H225 H 0.44325 0.59578 0.12609 0.0
H226 H 0.37355 0.6865 0.96611 0.0
H227 H 0.38173 0.72648 0.11272 0.0
C228 C 0.32422 0.76673 0.07899 0.0
C229 C 0.28877 0.7761 0.03935 0.0
C230 C 0.38883 0.66657 1.0012 0.0
C231 C 0.34931 0.70934 0.04536 0.0
C232 C 0.41697 0.63251 0.00178 0.0
C233 C 0.43644 0.60564 0.04665 0.0
C234 C 0.3809 0.67469 0.0458 0.0
C235 C 0.42847 0.61541 0.09066 0.0
C236 C 0.35431 0.73309 0.08234 0.0
C237 C 0.28446 0.75032 0.00417 0.0
N238 N 0.40122 0.64929 0.08919 0.0
N239 N 0.31454 0.71854 0.00777 0.0
H240 H 0.77553 0.72467 0.5724 0.0
H241 H 0.89828 0.93145 0.6412 0.0
H242 H 0.72568 0.79903 0.66346 0.0
H243 H 0.90742 0.88761 0.50876 0.0
H244 H 0.84246 0.87733 0.65887 0.0
H245 H 0.83232 0.77779 0.55857 0.0
C246 C 0.77628 0.75226 0.58936 0.0
C247 C 0.745 0.75768 0.61842 0.0
C248 C 0.85672 0.87969 0.62596 0.0
C249 C 0.81106 0.81825 0.60355 0.0
C250 C 0.88854 0.91057 0.61575 0.0
C251 C 0.90758 0.91424 0.57329 0.0
C252 C 0.8444 0.85174 0.59398 0.0
C253 C 0.89385 0.88597 0.54198 0.0
C254 C 0.80893 0.78249 0.58156 0.0
C255 C 0.74899 0.79338 0.64085 0.0
N256 N 0.86332 0.85581 0.5531 0.0
N257 N 0.78134 0.82238 0.63287 0.0
H258 H 0.73675 0.2606 0.99003 0.0
H259 H 0.58975 0.37191 0.13378 0.0
H260 H 0.70403 0.19464 0.12999 0.0
H261 H 0.5757 0.40575 0.9751 0.0
H262 H 0.63778 0.31061 0.13546 0.0
H263 H 0.68309 0.31778 0.98561 0.0
C264 C 0.71802 0.25774 0.01959 0.0
C265 C 0.72512 0.22254 0.06052 0.0
C266 C 0.62393 0.3313 0.10029 0.0
C267 C 0.66451 0.28872 0.05612 0.0
C268 C 0.59673 0.36636 0.0993 0.0
C269 C 0.57881 0.39387 0.05422 0.0
C270 C 0.63392 0.32424 0.05597 0.0
C271 C 0.5887 0.38512 0.01061 0.0
C272 C 0.68755 0.2906 0.01709 0.0
C273 C 0.70042 0.22143 0.09817 0.0
N274 N 0.616 0.35126 0.01258 0.0
N275 N 0.6715 0.25421 0.09525 0.0
H276 H 0.18523 0.93251 0.08223 0.0
H277 H 0.11373 0.84404 0.34456 0.0
H278 H 0.19786 0.79751 0.15693 0.0
H279 H 0.0609 0.96172 0.24309 0.0
H280 H 0.15777 0.8312 0.28424 0.0
H281 H 0.15263 0.9482 0.14945 0.0
C282 C 0.18125 0.90613 0.1128 0.0
C283 C 0.19371 0.86347 0.11344 0.0
C284 C 0.13672 0.85994 0.27541 0.0
C285 C 0.15704 0.88148 0.19099 0.0
C286 C 0.11185 0.86737 0.30981 0.0
C287 C 0.08352 0.90382 0.29848 0.0
C288 C 0.13364 0.88953 0.22982 0.0
C289 C 0.082 0.93298 0.25292 0.0
C290 C 0.16279 0.91519 0.15123 0.0
C291 C 0.18891 0.83088 0.15483 0.0
N292 N 0.1067 0.9252 0.22024 0.0
N293 N 0.17069 0.84053 0.19186 0.0
H294 H 0.57309 0.68607 0.68841 0.0
H295 H 0.62018 0.52806 0.95179 0.0
H296 H 0.7053 0.64872 0.76252 0.0
H297 H 0.50648 0.61413 0.90565 0.0
H298 H 0.65112 0.56745 0.88086 0.0
H299 H 0.54623 0.6551 0.76522 0.0
C300 C 0.59644 0.67163 0.72106 0.0
C301 C 0.64143 0.66996 0.7193 0.0
C302 C 0.61956 0.57789 0.88652 0.0
C303 C 0.611 0.63397 0.80689 0.0
C304 C 0.60198 0.55556 0.92707 0.0
C305 C 0.5607 0.56782 0.93459 0.0
C306 C 0.5952 0.61209 0.85264 0.0
C307 C 0.5382 0.60326 0.90091 0.0
C308 C 0.58117 0.65412 0.76483 0.0
C309 C 0.6704 0.65091 0.76256 0.0
N310 N 0.55546 0.62382 0.86107 0.0
N311 N 0.65464 0.63313 0.80451 0.0
H312 H 0.83544 0.05282 0.15913 0.0
H313 H 0.97676 0.10452 0.40414 0.0
H314 H 0.8597 0.18218 0.18116 0.0
H315 H 0.91898 0.98037 0.39965 0.0
H316 H 0.94211 0.13181 0.31847 0.0
H317 H 0.87527 0.02359 0.243 0.0
C318 C 0.84956 0.07499 0.18148 0.0
C319 C 0.84412 0.11992 0.16348 0.0
C320 C 0.93719 0.0985 0.33611 0.0
C321 C 0.8894 0.08694 0.25897 0.0
C322 C 0.95678 0.08296 0.38508 0.0
C323 C 0.95074 0.04009 0.40903 0.0
C324 C 0.91175 0.07083 0.31057 0.0
C325 C 0.92514 0.01339 0.3823 0.0
C326 C 0.87195 0.05836 0.22933 0.0
C327 C 0.86276 0.14732 0.19393 0.0
N328 N 0.90657 0.02918 0.3344 0.0
N329 N 0.88455 0.13041 0.24015 0.0
H330 H 0.29392 0.35128 0.56398 0.0
H331 H 0.49284 0.46116 0.71 0.0
H332 H 0.42655 0.3504 0.53507 0.0
H333 H 0.36577 0.44162 0.75381 0.0
H334 H 0.4688 0.42296 0.64389 0.0
H335 H 0.31939 0.38605 0.63229 0.0
C336 C 0.32851 0.35799 0.57223 0.0
C337 C 0.35813 0.34768 0.54367 0.0
C338 C 0.44625 0.42687 0.6681 0.0
C339 C 0.38741 0.38841 0.62157 0.0
C340 C 0.45987 0.44887 0.70566 0.0
C341 C 0.43125 0.45462 0.73744 0.0
C342 C 0.40356 0.4108 0.66197 0.0
C343 C 0.38908 0.43754 0.73051 0.0
C344 C 0.34298 0.37812 0.61114 0.0
C345 C 0.40239 0.35818 0.5556 0.0
N346 N 0.37645 0.41662 0.69341 0.0
N347 N 0.41566 0.37804 0.59355 0.0
H348 H 0.6378 0.59516 0.59042 0.0
H349 H 0.62097 0.61785 0.30005 0.0
H350 H 0.63598 0.71804 0.48673 0.0
H351 H 0.63917 0.4968 0.40788 0.0
H352 H 0.61162 0.65507 0.36545 0.0
H353 H 0.62293 0.55902 0.52168 0.0
C354 C 0.6334 0.61469 0.55317 0.0
C355 C 0.63868 0.6597 0.54443 0.0
C356 C 0.61707 0.62028 0.37464 0.0
C357 C 0.62256 0.61829 0.46533 0.0
C358 C 0.62215 0.59905 0.33732 0.0
C359 C 0.63146 0.55435 0.34882 0.0
C360 C 0.62112 0.59649 0.42362 0.0
C361 C 0.63281 0.53146 0.39767 0.0
C362 C 0.62527 0.59396 0.51386 0.0
C363 C 0.63307 0.68317 0.49523 0.0
N364 N 0.62811 0.55281 0.43329 0.0
N365 N 0.6258 0.66216 0.45755 0.0
H366 H 0.74136 0.12732 0.94725 0.0
H367 H 0.92548 0.12902 0.7794 0.0
H368 H 0.87998 0.13633 0.99982 0.0
H369 H 0.78656 0.12255 0.72633 0.0
H370 H 0.90998 0.12609 0.86199 0.0
H371 H 0.7578 0.11951 0.86797 0.0
C372 C 0.7753 0.12735 0.94219 0.0
C373 C 0.80933 0.13285 0.98007 0.0
C374 C 0.88288 0.12515 0.83233 0.0
C375 C 0.82843 0.12399 0.88933 0.0
C376 C 0.89172 0.12663 0.78516 0.0
C377 C 0.85725 0.12615 0.74575 0.0
C378 C 0.83923 0.1232 0.84029 0.0
C379 C 0.81411 0.12367 0.75538 0.0
C380 C 0.78468 0.12284 0.89694 0.0
C381 C 0.85275 0.13193 0.97176 0.0
N382 N 0.80634 0.12238 0.80161 0.0
N383 N 0.86102 0.12801 0.92714 0.0
H384 H 0.29873 0.3469 0.32153 0.0
H385 H 0.51724 0.41158 0.20811 0.0
H386 H 0.42962 0.32955 0.40684 0.0
H387 H 0.38719 0.45406 0.1297 0.0
H388 H 0.48509 0.37343 0.27813 0.0
H389 H 0.33005 0.37736 0.24736 0.0
C390 C 0.33405 0.34898 0.32449 0.0
C391 C 0.36163 0.33598 0.3704 0.0
C392 C 0.46354 0.39091 0.24549 0.0
C393 C 0.39759 0.37093 0.28606 0.0
C394 C 0.48189 0.41282 0.20543 0.0
C395 C 0.45493 0.43603 0.16267 0.0
C396 C 0.41779 0.39205 0.24298 0.0
C397 C 0.40929 0.43617 0.16151 0.0
C398 C 0.35188 0.36664 0.2823 0.0
C399 C 0.40715 0.3397 0.37227 0.0
N400 N 0.39217 0.41456 0.20106 0.0
N401 N 0.42366 0.3569 0.33081 0.0
H402 H 0.11624 0.85496 0.94533 0.0
H403 H 0.10854 0.01577 0.68553 0.0
H404 H 0.23361 0.91592 0.90343 0.0
H405 H 0.02994 0.90163 0.70372 0.0
H406 H 0.14882 0.98959 0.76992 0.0
H407 H 0.07707 0.8825 0.86091 0.0
C408 C 0.1335 0.87457 0.91833 0.0
C409 C 0.17797 0.88345 0.93095 0.0
C410 C 0.1227 0.97043 0.75529 0.0
C411 C 0.13367 0.91504 0.83513 0.0
C412 C 0.0996 0.98542 0.70753 0.0
C413 C 0.06582 0.96085 0.68815 0.0
C414 C 0.111 0.93128 0.78397 0.0
C415 C 0.05578 0.92146 0.71758 0.0
C416 C 0.11135 0.88994 0.87032 0.0
C417 C 0.19924 0.90854 0.89479 0.0
N418 N 0.07801 0.90804 0.76432 0.0
N419 N 0.17676 0.92383 0.84838 0.0
loop_
_geom_bond_atom_site_label_1
_geom_bond_atom_site_label_2
_geom_bond_distance
_geom_bond_site_symmetry_2
_ccdc_geom_bond_type
H0 C3 0.931 . S
H1 C6 0.928 . S
H2 C8 0.930 . S
C3 H0 0.931 . S
C3 C4 1.413 1_554 S
C3 C5 1.360 . S
C4 C3 1.413 1_556 S
C4 C8 1.429 . S
C5 C3 1.360 . S
C5 C6 1.372 . S
C6 H1 0.928 . S
C6 C5 1.372 . S
C6 C7 1.404 . S
C7 C6 1.404 . S
C7 C8 1.391 1_554 S
C8 H2 0.930 . S
C8 C4 1.429 . S
C8 C7 1.391 1_556 S
H9 C12 0.931 . S
H10 C15 0.928 . S
H11 C17 0.930 . S
C12 H9 0.931 . S
C12 C13 1.413 . S
C12 C14 1.360 . S
C13 C12 1.413 . S
C13 C17 1.429 . S
C14 C12 1.360 . S
C14 C15 1.372 . S
C15 H10 0.928 . S
C15 C14 1.372 . S
C15 C16 1.404 . S
C16 C15 1.404 . S
C16 C17 1.391 . S
C17 H11 0.930 . S
C17 C13 1.429 . S
C17 C16 1.391 . S
H18 C21 0.931 . S
H19 C24 0.928 . S
H20 C26 0.930 1_556 S
C21 H18 0.931 . S
C21 C22 1.413 . S
C21 C23 1.360 . S
C22 C21 1.413 . S
C22 C26 1.429 . S
C23 C21 1.360 . S
C23 C24 1.372 . S
C24 H19 0.928 . S
C24 C23 1.372 . S
C24 C25 1.404 . S
C25 C24 1.404 . S
C25 C26 1.391 . S
C26 H20 0.930 1_554 S
C26 C22 1.429 . S
C26 C25 1.391 . S
H27 C30 0.931 . S
H28 C33 0.928 . S
H29 C35 0.930 . S
C30 H27 0.931 . S
C30 C31 1.413 . S
C30 C32 1.360 . S
C31 C30 1.413 . S
C31 C35 1.429 . S
C32 C30 1.360 . S
C32 C33 1.372 . S
C33 H28 0.928 . S
C33 C32 1.372 . S
C33 C34 1.404 . S
C34 C33 1.404 . S
C34 C35 1.391 . S
C35 H29 0.930 . S
C35 C31 1.429 . S
C35 C34 1.391 . S
C36 C38 1.422 . S
C36 C40 1.415 . S
C36 N42 1.369 . S
C37 C38 1.421 . S
C37 C39 1.417 . S
C37 C49 1.422 . S
C38 C36 1.422 . S
C38 C37 1.421 . S
C38 N48 1.359 . S
C39 C37 1.417 . S
C39 C41 1.329 . S
C39 H58 0.930 . S
C40 C36 1.415 . S
C40 C41 1.437 . S
C40 C44 1.413 . S
C41 C39 1.329 . S
C41 C40 1.437 . S
C41 H63 0.929 . S
N42 C36 1.369 . S
N42 C43 1.338 . S
N42 Gd47 2.622 . S
C43 N42 1.338 . S
C43 C45 1.378 . S
C43 H55 0.929 1_655 S
C44 C40 1.413 . S
C44 C45 1.348 . S
C44 H60 0.931 . S
C45 C43 1.378 . S
C45 C44 1.348 . S
C45 H61 0.930 1_655 S
Gd46 N66 2.622 . S
Gd46 N73 2.570 . S
Gd46 O80 2.345 1_465 S
Gd46 O81 2.468 . S
Gd46 O82 2.427 . S
Gd46 O84 2.388 1_455 S
Gd46 O85 2.386 . S
Gd46 O89 2.307 1_565 S
Gd46 C99 2.805 . S
Gd47 N42 2.622 . S
Gd47 N48 2.570 . S
Gd47 O79 2.386 . S
Gd47 O83 2.307 1_545 S
Gd47 O86 2.353 1_655 S
Gd47 O87 2.468 . S
Gd47 O88 2.427 . S
Gd47 O90 2.388 1_655 S
Gd47 C111 2.805 . S
N48 C38 1.359 . S
N48 Gd47 2.570 . S
N48 C50 1.343 . S
C49 C37 1.422 . S
C49 C51 1.321 . S
C49 H57 0.931 . S
C50 N48 1.343 . S
C50 C51 1.390 . S
C50 H52 0.931 . S
C51 C49 1.321 . S
C51 C50 1.390 . S
C51 H53 0.930 . S
H52 C50 0.931 . S
H53 C51 0.930 . S
H54 C77 0.931 . S
H55 C43 0.929 1_455 S
H56 C78 0.930 . S
H57 C49 0.931 . S
H58 C39 0.930 . S
H59 C68 0.929 1_655 S
H60 C44 0.931 . S
H61 C45 0.930 1_455 S
H62 C100 0.930 . S
H63 C41 0.929 . S
H64 C69 0.931 . S
H65 C70 0.930 1_655 S
N66 Gd46 2.622 . S
N66 C67 1.369 . S
N66 C68 1.338 . S
C67 N66 1.369 . S
C67 C71 1.415 . S
C67 C74 1.422 . S
C68 H59 0.929 1_455 S
C68 N66 1.338 . S
C68 C70 1.378 . S
C69 H64 0.931 . S
C69 C70 1.348 . S
C69 C71 1.413 . S
C70 H65 0.930 1_455 S
C70 C68 1.378 . S
C70 C69 1.348 . S
C71 C67 1.415 . S
C71 C69 1.413 . S
C71 C101 1.437 . S
H72 C101 0.929 . S
N73 Gd46 2.570 . S
N73 C74 1.359 . S
N73 C77 1.343 . S
C74 C67 1.422 . S
C74 N73 1.359 . S
C74 C76 1.421 . S
C75 C76 1.422 . S
C75 C78 1.321 . S
C75 H102 0.931 . S
C76 C74 1.421 . S
C76 C75 1.422 . S
C76 C100 1.417 . S
C77 H54 0.931 . S
C77 N73 1.343 . S
C77 C78 1.390 . S
C78 H56 0.930 . S
C78 C75 1.321 . S
C78 C77 1.390 . S
O79 Gd47 2.386 . S
O79 C91 1.265 . S
O80 Gd46 2.345 1_645 S
O80 C91 1.254 . S
O81 Gd46 2.468 . S
O81 C99 1.263 . S
O82 Gd46 2.427 . S
O82 C99 1.252 . S
O83 Gd47 2.307 1_565 S
O83 C92 1.261 . S
O84 Gd46 2.388 1_655 S
O84 C92 1.252 . S
O85 Gd46 2.386 . S
O85 C103 1.265 . S
O86 Gd47 2.353 1_455 S
O86 C103 1.242 1_545 S
O87 Gd47 2.468 . S
O87 C111 1.263 . S
O88 Gd47 2.427 . S
O88 C111 1.252 . S
O89 Gd46 2.307 1_545 S
O89 C104 1.261 . S
O90 Gd47 2.388 1_455 S
O90 C104 1.252 . S
C91 O79 1.265 . S
C91 O80 1.254 . S
C92 O83 1.261 . S
C92 O84 1.252 . S
C93 C96 1.394 . S
C93 C98 1.370 . S
C93 C99 1.500 . S
C94 C97 1.383 . S
C94 C98 1.395 . S
C95 C96 1.396 . S
C95 C97 1.365 . S
C95 H112 0.929 . S
C96 C93 1.394 . S
C96 C95 1.396 . S
C96 H113 0.930 . S
C97 C94 1.383 . S
C97 C95 1.365 . S
C97 H114 0.931 . S
C98 C93 1.370 . S
C98 C94 1.395 . S
C98 H115 0.930 . S
C99 Gd46 2.805 . S
C99 O81 1.263 . S
C99 O82 1.252 . S
C99 C93 1.500 . S
C100 H62 0.930 . S
C100 C76 1.417 . S
C100 C101 1.329 . S
C101 C71 1.437 . S
C101 H72 0.929 . S
C101 C100 1.329 . S
H102 C75 0.931 . S
C103 O85 1.265 . S
C103 O86 1.242 1_565 S
C104 O89 1.261 . S
C104 O90 1.252 . S
C105 C108 1.394 . S
C105 C110 1.370 . S
C105 C111 1.500 . S
C106 C109 1.383 . S
C106 C110 1.395 . S
C107 C108 1.396 . S
C107 C109 1.365 . S
C107 H116 0.929 . S
C108 C105 1.394 . S
C108 C107 1.396 . S
C108 H117 0.930 . S
C109 C106 1.383 . S
C109 C107 1.365 . S
C109 H118 0.931 . S
C110 C105 1.370 . S
C110 C106 1.395 . S
C110 H119 0.930 . S
C111 Gd47 2.805 . S
C111 O87 1.263 . S
C111 O88 1.252 . S
C111 C105 1.500 . S
H112 C95 0.929 . S
H113 C96 0.930 . S
H114 C97 0.931 . S
H115 C98 0.930 . S
H116 C107 0.929 . S
H117 C108 0.930 . S
H118 C109 0.931 . S
H119 C110 0.930 . S
C120 C122 1.422 . S
C120 C124 1.415 . S
C120 N126 1.369 . S
C121 C122 1.421 . S
C121 C123 1.417 . S
C121 C133 1.422 . S
C122 C120 1.422 . S
C122 C121 1.421 . S
C122 N132 1.359 . S
C123 C121 1.417 . S
C123 C125 1.329 . S
C123 H142 0.930 . S
C124 C120 1.415 . S
C124 C125 1.437 . S
C124 C128 1.413 . S
C125 C123 1.329 . S
C125 C124 1.437 . S
C125 H147 0.929 . S
N126 C120 1.369 . S
N126 C127 1.338 . S
N126 Gd131 2.622 . S
C127 N126 1.338 . S
C127 C129 1.378 . S
C127 H139 0.929 . S
C128 C124 1.413 . S
C128 C129 1.348 . S
C128 H144 0.931 . S
C129 C127 1.378 . S
C129 C128 1.348 . S
C129 H145 0.930 . S
Gd130 N150 2.622 . S
Gd130 N157 2.570 1_556 S
Gd130 O164 2.353 . S
Gd130 O165 2.468 . S
Gd130 O166 2.427 . S
Gd130 O168 2.388 1_556 S
Gd130 O169 2.386 1_556 S
Gd130 O173 2.307 1_556 S
Gd130 C183 2.805 . S
Gd131 N126 2.622 . S
Gd131 N132 2.570 . S
Gd131 O163 2.386 . S
Gd131 O167 2.307 . S
Gd131 O170 2.353 . S
Gd131 O171 2.468 . S
Gd131 O172 2.427 . S
Gd131 O174 2.388 . S
Gd131 C195 2.805 . S
N132 C122 1.359 . S
N132 Gd131 2.570 . S
N132 C134 1.343 . S
C133 C121 1.422 . S
C133 C135 1.321 . S
C133 H141 0.931 . S
C134 N132 1.343 . S
C134 C135 1.390 . S
C134 H136 0.931 . S
C135 C133 1.321 . S
C135 C134 1.390 . S
C135 H137 0.930 . S
H136 C134 0.931 . S
H137 C135 0.930 . S
H138 C161 0.931 . S
H139 C127 0.929 . S
H140 C162 0.930 . S
H141 C133 0.931 . S
H142 C123 0.930 . S
H143 C152 0.929 . S
H144 C128 0.931 . S
H145 C129 0.930 . S
H146 C184 0.930 . S
H147 C125 0.929 . S
H148 C153 0.931 . S
H149 C154 0.930 . S
N150 Gd130 2.622 . S
N150 C151 1.369 1_556 S
N150 C152 1.337 . S
C151 N150 1.369 1_554 S
C151 C155 1.415 . S
C151 C158 1.422 . S
C152 H143 0.929 . S
C152 N150 1.337 . S
C152 C154 1.378 . S
C153 H148 0.931 . S
C153 C154 1.348 1_554 S
C153 C155 1.413 . S
C154 H149 0.930 . S
C154 C152 1.378 . S
C154 C153 1.348 1_556 S
C155 C151 1.415 . S
C155 C153 1.413 . S
C155 C185 1.437 . S
H156 C185 0.929 . S
N157 Gd130 2.570 1_554 S
N157 C158 1.359 . S
N157 C161 1.343 . S
C158 C151 1.422 . S
C158 N157 1.359 . S
C158 C160 1.421 . S
C159 C160 1.422 . S
C159 C162 1.321 . S
C159 H186 0.931 . S
C160 C158 1.421 . S
C160 C159 1.422 . S
C160 C184 1.417 . S
C161 H138 0.931 . S
C161 N157 1.343 . S
C161 C162 1.390 . S
C162 H140 0.930 . S
C162 C159 1.321 . S
C162 C161 1.390 . S
O163 Gd131 2.386 . S
O163 C175 1.265 1_554 S
O164 Gd130 2.353 . S
O164 C175 1.242 . S
O165 Gd130 2.468 . S
O165 C183 1.263 . S
O166 Gd130 2.427 . S
O166 C183 1.252 . S
O167 Gd131 2.307 . S
O167 C176 1.261 . S
O168 Gd130 2.388 1_554 S
O168 C176 1.252 . S
O169 Gd130 2.386 1_554 S
O169 C187 1.265 . S
O170 Gd131 2.353 . S
O170 C187 1.242 . S
O171 Gd131 2.468 . S
O171 C195 1.263 . S
O172 Gd131 2.427 . S
O172 C195 1.252 . S
O173 Gd130 2.307 1_554 S
O173 C188 1.261 . S
O174 Gd131 2.388 . S
O174 C188 1.252 . S
C175 O163 1.265 1_556 S
C175 O164 1.242 . S
C176 O167 1.261 . S
C176 O168 1.252 . S
C177 C180 1.394 . S
C177 C182 1.370 . S
C177 C183 1.500 . S
C178 C181 1.383 . S
C178 C182 1.395 . S
C179 C180 1.396 . S
C179 C181 1.365 . S
C179 H196 0.929 . S
C180 C177 1.394 . S
C180 C179 1.396 . S
C180 H197 0.930 . S
C181 C178 1.383 . S
C181 C179 1.365 . S
C181 H198 0.931 . S
C182 C177 1.370 . S
C182 C178 1.395 . S
C182 H199 0.930 . S
C183 Gd130 2.805 . S
C183 O165 1.263 . S
C183 O166 1.252 . S
C183 C177 1.500 . S
C184 H146 0.930 . S
C184 C160 1.417 . S
C184 C185 1.329 . S
C185 C155 1.437 . S
C185 H156 0.929 . S
C185 C184 1.329 . S
H186 C159 0.931 . S
C187 O169 1.265 . S
C187 O170 1.242 . S
C188 O173 1.261 . S
C188 O174 1.252 . S
C189 C192 1.394 . S
C189 C194 1.370 . S
C189 C195 1.500 . S
C190 C193 1.383 . S
C190 C194 1.395 . S
C191 C192 1.396 . S
C191 C193 1.365 . S
C191 H200 0.929 . S
C192 C189 1.394 . S
C192 C191 1.396 . S
C192 H201 0.930 . S
C193 C190 1.383 . S
C193 C191 1.365 . S
C193 H202 0.931 . S
C194 C189 1.370 . S
C194 C190 1.395 . S
C194 H203 0.930 . S
C195 Gd131 2.805 . S
C195 O171 1.263 . S
C195 O172 1.252 . S
C195 C189 1.500 . S
H196 C179 0.929 . S
H197 C180 0.930 . S
H198 C181 0.931 . S
H199 C182 0.930 . S
H200 C191 0.929 . S
H201 C192 0.930 . S
H202 C193 0.931 . S
H203 C194 0.930 . S
H204 C210 0.930 . S
H205 C214 0.930 . S
H206 C219 0.929 . S
H207 C217 0.929 . S
H208 C212 0.929 . S
H209 C218 0.929 . S
C210 H204 0.930 . S
C210 C211 1.367 . S
C210 C218 1.378 . S
C211 C210 1.367 . S
C211 C219 1.433 . S
C212 H208 0.929 . S
C212 C214 1.378 . S
C212 C216 1.350 . S
C213 C216 1.463 . S
C213 C218 1.350 . S
C213 N221 1.427 . S
C214 H205 0.930 . S
C214 C212 1.378 . S
C214 C215 1.367 . S
C215 C214 1.367 . S
C215 C217 1.433 . S
C216 C212 1.350 . S
C216 C213 1.463 . S
C216 N220 1.427 . S
C217 H207 0.929 . S
C217 C215 1.433 . S
C217 N220 1.384 . S
C218 H209 0.929 . S
C218 C210 1.378 . S
C218 C213 1.350 . S
C219 H206 0.929 . S
C219 C211 1.433 . S
C219 N221 1.384 . S
N220 C216 1.427 . S
N220 C217 1.384 . S
N221 C213 1.427 . S
N221 C219 1.384 . S
H222 C228 0.930 . S
H223 C232 0.930 . S
H224 C237 0.929 . S
H225 C235 0.929 . S
H226 C230 0.929 . S
H227 C236 0.929 . S
C228 H222 0.930 . S
C228 C229 1.367 . S
C228 C236 1.378 . S
C229 C228 1.367 . S
C229 C237 1.433 1_554 S
C230 H226 0.929 . S
C230 C232 1.378 . S
C230 C234 1.350 1_556 S
C231 C234 1.463 . S
C231 C236 1.350 . S
C231 N239 1.427 1_554 S
C232 H223 0.930 . S
C232 C230 1.378 . S
C232 C233 1.367 1_556 S
C233 C232 1.367 1_554 S
C233 C235 1.433 . S
C234 C230 1.350 1_554 S
C234 C231 1.463 . S
C234 N238 1.427 . S
C235 H225 0.929 . S
C235 C233 1.433 . S
C235 N238 1.384 . S
C236 H227 0.929 . S
C236 C228 1.378 . S
C236 C231 1.350 . S
C237 H224 0.929 . S
C237 C229 1.433 1_556 S
C237 N239 1.384 . S
N238 C234 1.427 . S
N238 C235 1.384 . S
N239 C231 1.427 1_556 S
N239 C237 1.384 . S
H240 C246 0.930 . S
H241 C250 0.930 . S
H242 C255 0.929 . S
H243 C253 0.929 . S
H244 C248 0.929 . S
H245 C254 0.929 . S
C246 H240 0.930 . S
C246 C247 1.367 . S
C246 C254 1.378 . S
C247 C246 1.367 . S
C247 C255 1.433 . S
C248 H244 0.929 . S
C248 C250 1.378 . S
C248 C252 1.350 . S
C249 C252 1.463 . S
C249 C254 1.350 . S
C249 N257 1.427 . S
C250 H241 0.930 . S
C250 C248 1.378 . S
C250 C251 1.367 . S
C251 C250 1.367 . S
C251 C253 1.433 . S
C252 C248 1.350 . S
C252 C249 1.463 . S
C252 N256 1.427 . S
C253 H243 0.929 . S
C253 C251 1.433 . S
C253 N256 1.384 . S
C254 H245 0.929 . S
C254 C246 1.378 . S
C254 C249 1.350 . S
C255 H242 0.929 . S
C255 C247 1.433 . S
C255 N257 1.384 . S
N256 C252 1.427 . S
N256 C253 1.384 . S
N257 C249 1.427 . S
N257 C255 1.384 . S
H258 C264 0.930 1_556 S
H259 C268 0.930 . S
H260 C273 0.929 . S
H261 C271 0.929 1_556 S
H262 C266 0.929 . S
H263 C272 0.929 1_556 S
C264 H258 0.930 1_554 S
C264 C265 1.367 . S
C264 C272 1.378 . S
C265 C264 1.367 . S
C265 C273 1.433 . S
C266 H262 0.929 . S
C266 C268 1.378 . S
C266 C270 1.350 . S
C267 C270 1.463 . S
C267 C272 1.350 . S
C267 N275 1.427 . S
C268 H259 0.930 . S
C268 C266 1.378 . S
C268 C269 1.367 . S
C269 C268 1.367 . S
C269 C271 1.433 . S
C270 C266 1.350 . S
C270 C267 1.463 . S
C270 N274 1.427 . S
C271 H261 0.929 1_554 S
C271 C269 1.433 . S
C271 N274 1.384 . S
C272 H263 0.929 1_554 S
C272 C264 1.378 . S
C272 C267 1.350 . S
C273 H260 0.929 . S
C273 C265 1.433 . S
C273 N275 1.384 . S
N274 C270 1.427 . S
N274 C271 1.384 . S
N275 C267 1.427 . S
N275 C273 1.384 . S
H276 C282 0.930 . S
H277 C286 0.930 . S
H278 C291 0.929 . S
H279 C289 0.929 1_545 S
H280 C284 0.929 . S
H281 C290 0.929 . S
C282 H276 0.930 . S
C282 C283 1.367 . S
C282 C290 1.378 . S
C283 C282 1.367 . S
C283 C291 1.433 . S
C284 H280 0.929 . S
C284 C286 1.378 . S
C284 C288 1.350 . S
C285 C288 1.463 . S
C285 C290 1.350 . S
C285 N293 1.427 . S
C286 H277 0.930 . S
C286 C284 1.378 . S
C286 C287 1.367 . S
C287 C286 1.367 . S
C287 C289 1.433 . S
C288 C284 1.350 . S
C288 C285 1.463 . S
C288 N292 1.427 . S
C289 H279 0.929 1_565 S
C289 C287 1.433 . S
C289 N292 1.384 . S
C290 H281 0.929 . S
C290 C282 1.378 . S
C290 C285 1.350 . S
C291 H278 0.929 . S
C291 C283 1.433 . S
C291 N293 1.384 . S
N292 C288 1.427 . S
N292 C289 1.384 . S
N293 C285 1.427 . S
N293 C291 1.384 . S
H294 C300 0.930 . S
H295 C304 0.930 . S
H296 C309 0.929 . S
H297 C307 0.929 . S
H298 C302 0.929 . S
H299 C308 0.929 . S
C300 H294 0.930 . S
C300 C301 1.367 . S
C300 C308 1.378 . S
C301 C300 1.367 . S
C301 C309 1.433 . S
C302 H298 0.929 . S
C302 C304 1.378 . S
C302 C306 1.350 . S
C303 C306 1.463 . S
C303 C308 1.350 . S
C303 N311 1.427 . S
C304 H295 0.930 . S
C304 C302 1.378 . S
C304 C305 1.367 . S
C305 C304 1.367 . S
C305 C307 1.433 . S
C306 C302 1.350 . S
C306 C303 1.463 . S
C306 N310 1.427 . S
C307 H297 0.929 . S
C307 C305 1.433 . S
C307 N310 1.384 . S
C308 H299 0.929 . S
C308 C300 1.378 . S
C308 C303 1.350 . S
C309 H296 0.929 . S
C309 C301 1.433 . S
C309 N311 1.384 . S
N310 C306 1.427 . S
N310 C307 1.384 . S
N311 C303 1.427 . S
N311 C309 1.384 . S
H312 C318 0.930 . S
H313 C322 0.930 . S
H314 C327 0.929 . S
H315 C325 0.929 1_565 S
H316 C320 0.929 . S
H317 C326 0.929 . S
C318 H312 0.930 . S
C318 C319 1.367 . S
C318 C326 1.378 . S
C319 C318 1.367 . S
C319 C327 1.433 . S
C320 H316 0.929 . S
C320 C322 1.378 . S
C320 C324 1.350 . S
C321 C324 1.463 . S
C321 C326 1.350 . S
C321 N329 1.427 . S
C322 H313 0.930 . S
C322 C320 1.378 . S
C322 C323 1.367 . S
C323 C322 1.367 . S
C323 C325 1.433 . S
C324 C320 1.350 . S
C324 C321 1.463 . S
C324 N328 1.427 . S
C325 H315 0.929 1_545 S
C325 C323 1.433 . S
C325 N328 1.384 . S
C326 H317 0.929 . S
C326 C318 1.378 . S
C326 C321 1.350 . S
C327 H314 0.929 . S
C327 C319 1.433 . S
C327 N329 1.384 . S
N328 C324 1.427 . S
N328 C325 1.384 . S
N329 C321 1.427 . S
N329 C327 1.384 . S
H330 C336 0.930 . S
H331 C340 0.930 . S
H332 C345 0.929 . S
H333 C343 0.929 . S
H334 C338 0.929 . S
H335 C344 0.929 . S
C336 H330 0.930 . S
C336 C337 1.367 . S
C336 C344 1.378 . S
C337 C336 1.367 . S
C337 C345 1.433 . S
C338 H334 0.929 . S
C338 C340 1.378 . S
C338 C342 1.350 . S
C339 C342 1.463 . S
C339 C344 1.350 . S
C339 N347 1.427 . S
C340 H331 0.930 . S
C340 C338 1.378 . S
C340 C341 1.367 . S
C341 C340 1.367 . S
C341 C343 1.433 . S
C342 C338 1.350 . S
C342 C339 1.463 . S
C342 N346 1.427 . S
C343 H333 0.929 . S
C343 C341 1.433 . S
C343 N346 1.384 . S
C344 H335 0.929 . S
C344 C336 1.378 . S
C344 C339 1.350 . S
C345 H332 0.929 . S
C345 C337 1.433 . S
C345 N347 1.384 . S
N346 C342 1.427 . S
N346 C343 1.384 . S
N347 C339 1.427 . S
N347 C345 1.384 . S
H348 C354 0.930 . S
H349 C358 0.930 . S
H350 C363 0.929 . S
H351 C361 0.929 . S
H352 C356 0.929 . S
H353 C362 0.929 . S
C354 H348 0.930 . S
C354 C355 1.367 . S
C354 C362 1.378 . S
C355 C354 1.367 . S
C355 C363 1.433 . S
C356 H352 0.929 . S
C356 C358 1.378 . S
C356 C360 1.350 . S
C357 C360 1.463 . S
C357 C362 1.350 . S
C357 N365 1.427 . S
C358 H349 0.930 . S
C358 C356 1.378 . S
C358 C359 1.367 . S
C359 C358 1.367 . S
C359 C361 1.433 . S
C360 C356 1.350 . S
C360 C357 1.463 . S
C360 N364 1.427 . S
C361 H351 0.929 . S
C361 C359 1.433 . S
C361 N364 1.384 . S
C362 H353 0.929 . S
C362 C354 1.378 . S
C362 C357 1.350 . S
C363 H350 0.929 . S
C363 C355 1.433 . S
C363 N365 1.384 . S
N364 C360 1.427 . S
N364 C361 1.384 . S
N365 C357 1.427 . S
N365 C363 1.384 . S
H366 C372 0.930 . S
H367 C376 0.930 . S
H368 C381 0.929 1_554 S
H369 C379 0.929 . S
H370 C374 0.929 . S
H371 C380 0.929 . S
C372 H366 0.930 . S
C372 C373 1.367 . S
C372 C380 1.378 . S
C373 C372 1.367 . S
C373 C381 1.433 . S
C374 H370 0.929 . S
C374 C376 1.378 . S
C374 C378 1.350 . S
C375 C378 1.463 . S
C375 C380 1.350 . S
C375 N383 1.427 . S
C376 H367 0.930 . S
C376 C374 1.378 . S
C376 C377 1.367 . S
C377 C376 1.367 . S
C377 C379 1.433 . S
C378 C374 1.350 . S
C378 C375 1.463 . S
C378 N382 1.427 . S
C379 H369 0.929 . S
C379 C377 1.433 . S
C379 N382 1.384 . S
C380 H371 0.929 . S
C380 C372 1.378 . S
C380 C375 1.350 . S
C381 H368 0.929 1_556 S
C381 C373 1.433 . S
C381 N383 1.384 . S
N382 C378 1.427 . S
N382 C379 1.384 . S
N383 C375 1.427 . S
N383 C381 1.384 . S
H384 C390 0.930 . S
H385 C394 0.930 . S
H386 C399 0.929 . S
H387 C397 0.929 . S
H388 C392 0.929 . S
H389 C398 0.929 . S
C390 H384 0.930 . S
C390 C391 1.367 . S
C390 C398 1.378 . S
C391 C390 1.367 . S
C391 C399 1.433 . S
C392 H388 0.929 . S
C392 C394 1.378 . S
C392 C396 1.350 . S
C393 C396 1.463 . S
C393 C398 1.350 . S
C393 N401 1.427 . S
C394 H385 0.930 . S
C394 C392 1.378 . S
C394 C395 1.367 . S
C395 C394 1.367 . S
C395 C397 1.433 . S
C396 C392 1.350 . S
C396 C393 1.463 . S
C396 N400 1.427 . S
C397 H387 0.929 . S
C397 C395 1.433 . S
C397 N400 1.384 . S
C398 H389 0.929 . S
C398 C390 1.378 . S
C398 C393 1.350 . S
C399 H386 0.929 . S
C399 C391 1.433 . S
C399 N401 1.384 . S
N400 C396 1.427 . S
N400 C397 1.384 . S
N401 C393 1.427 . S
N401 C399 1.384 . S
H402 C408 0.930 . S
H403 C412 0.930 . S
H404 C417 0.929 . S
H405 C415 0.929 . S
H406 C410 0.929 . S
H407 C416 0.929 . S
C408 H402 0.930 . S
C408 C409 1.367 . S
C408 C416 1.378 . S
C409 C408 1.367 . S
C409 C417 1.433 . S
C410 H406 0.929 . S
C410 C412 1.378 . S
C410 C414 1.350 . S
C411 C414 1.463 . S
C411 C416 1.350 . S
C411 N419 1.427 . S
C412 H403 0.930 . S
C412 C410 1.378 . S
C412 C413 1.367 . S
C413 C412 1.367 . S
C413 C415 1.433 . S
C414 C410 1.350 . S
C414 C411 1.463 . S
C414 N418 1.427 . S
C415 H405 0.929 . S
C415 C413 1.433 . S
C415 N418 1.384 . S
C416 H407 0.929 . S
C416 C408 1.378 . S
C416 C411 1.350 . S
C417 H404 0.929 . S
C417 C409 1.433 . S
C417 N419 1.384 . S
N418 C414 1.427 . S
N418 C415 1.384 . S
N419 C411 1.427 . S
N419 C417 1.384 . S
C215 C104 1.544 . S
C211 C34 1.571 . S
C229 C7 1.550 . S
C233 C176 1.529 . S
C247 C16 1.563 . S
C251 C92 1.554 . S
C265 C25 1.547 . S
C269 C188 1.529 . S
C287 C94 1.351 . S
C283 C5 1.527 . S
C305 C175 1.564 . S
C301 C13 1.563 . S
C319 C23 1.542 . S
C323 C91 1.550 . S
C337 C32 1.517 . S
C341 C178 1.373 . S
C359 C190 1.371 . S
C355 C14 1.516 . S
C377 C106 1.350 . S
C373 C22 1.525 1_556 S
C395 C187 1.564 . S
C391 C31 1.558 . S
C409 C4 1.534 . S
C413 C103 1.548 . S
