# Generated by pormake.
# Topology dag, (6,3)-cn, num edge types: 1
# Building blocks:
#     Node 0, Type 0, BuildingBlock: MIDCAF_clean_sbu_0, # of connection points: 6
#     Node 1, Type 0, BuildingBlock: MIDCAF_clean_sbu_0, # of connection points: 6
#     Node 2, Type 0, BuildingBlock: MIDCAF_clean_sbu_0, # of connection points: 6
#     Node 3, Type 0, BuildingBlock: MIDCAF_clean_sbu_0, # of connection points: 6
#     Node 4, Type 1, BuildingBlock: PAMTOO_clean_linker_0, # of connection points: 3
#     Node 5, Type 1, BuildingBlock: PAMTOO_clean_linker_0, # of connection points: 3
#     Node 6, Type 1, BuildingBlock: PAMTOO_clean_linker_0, # of connection points: 3
#     Node 7, Type 1, BuildingBlock: PAMTOO_clean_linker_0, # of connection points: 3
#     Node 8, Type 1, BuildingBlock: PAMTOO_clean_linker_0, # of connection points: 3
#     Node 9, Type 1, BuildingBlock: PAMTOO_clean_linker_0, # of connection points: 3
#     Node 10, Type 1, BuildingBlock: PAMTOO_clean_linker_0, # of connection points: 3
#     Node 11, Type 1, BuildingBlock: PAMTOO_clean_linker_0, # of connection points: 3
#     Edge 12, Type (0, 1), BuildingBlock: EYOCIG_clean_linker_4, # of connection points: 2
#     Edge 13, Type (0, 1), BuildingBlock: EYOCIG_clean_linker_4, # of connection points: 2
#     Edge 14, Type (0, 1), BuildingBlock: EYOCIG_clean_linker_4, # of connection points: 2
#     Edge 15, Type (0, 1), BuildingBlock: EYOCIG_clean_linker_4, # of connection points: 2
#     Edge 16, Type (0, 1), BuildingBlock: EYOCIG_clean_linker_4, # of connection points: 2
#     Edge 17, Type (0, 1), BuildingBlock: EYOCIG_clean_linker_4, # of connection points: 2
#     Edge 18, Type (0, 1), BuildingBlock: EYOCIG_clean_linker_4, # of connection points: 2
#     Edge 19, Type (0, 1), BuildingBlock: EYOCIG_clean_linker_4, # of connection points: 2
#     Edge 20, Type (0, 1), BuildingBlock: EYOCIG_clean_linker_4, # of connection points: 2
#     Edge 21, Type (0, 1), BuildingBlock: EYOCIG_clean_linker_4, # of connection points: 2
#     Edge 22, Type (0, 1), BuildingBlock: EYOCIG_clean_linker_4, # of connection points: 2
#     Edge 23, Type (0, 1), BuildingBlock: EYOCIG_clean_linker_4, # of connection points: 2
#     Edge 24, Type (0, 1), BuildingBlock: EYOCIG_clean_linker_4, # of connection points: 2
#     Edge 25, Type (0, 1), BuildingBlock: EYOCIG_clean_linker_4, # of connection points: 2
#     Edge 26, Type (0, 1), BuildingBlock: EYOCIG_clean_linker_4, # of connection points: 2
#     Edge 27, Type (0, 1), BuildingBlock: EYOCIG_clean_linker_4, # of connection points: 2
#     Edge 28, Type (0, 1), BuildingBlock: EYOCIG_clean_linker_4, # of connection points: 2
#     Edge 29, Type (0, 1), BuildingBlock: EYOCIG_clean_linker_4, # of connection points: 2
#     Edge 30, Type (0, 1), BuildingBlock: EYOCIG_clean_linker_4, # of connection points: 2
#     Edge 31, Type (0, 1), BuildingBlock: EYOCIG_clean_linker_4, # of connection points: 2
#     Edge 32, Type (0, 1), BuildingBlock: EYOCIG_clean_linker_4, # of connection points: 2
#     Edge 33, Type (0, 1), BuildingBlock: EYOCIG_clean_linker_4, # of connection points: 2
#     Edge 34, Type (0, 1), BuildingBlock: EYOCIG_clean_linker_4, # of connection points: 2
#     Edge 35, Type (0, 1), BuildingBlock: EYOCIG_clean_linker_4, # of connection points: 2
# Relax obj value: 0.133
# Max RMSD: 0.142
# Mean RMSD: 0.114
data_MOF--net-dag--node1-MIDCAF_clean_sbu_0--node2-PAMTOO_clean_linker_0--edge1-EYOCIG_clean_linker_4
_symmetry_space_group_name_H-M    P1
_symmetry_Int_Tables_number       1
_symmetry_cell_setting            triclinic
loop_
_symmetry_equiv_pos_as_xyz
'x, y, z'
_cell_length_a     31.808289
_cell_length_b     32.764586
_cell_length_c     24.549997
_cell_angle_alpha  89.971176
_cell_angle_beta   93.25878
_cell_angle_gamma 89.662583
loop_
_atom_site_label
_atom_site_type_symbol
_atom_site_fract_x
_atom_site_fract_y
_atom_site_fract_z
_atom_type_partial_charge
Zn0 Zn 0.11578 0.84462 0.1274 0.0
Zn1 Zn 0.09975 0.88121 0.93899 0.0
Zn2 Zn 0.11691 0.86109 0.02785 0.0
C3 C 0.12801 0.94849 0.97933 0.0
C4 C 0.06818 0.80509 0.95555 0.0
O5 O 0.14395 0.79925 0.02988 0.0
O6 O 0.14423 0.7901 0.11939 0.0
C7 C 0.17102 0.91156 0.11288 0.0
O8 O 0.14633 0.91973 1.00745 0.0
O9 O 0.0944 0.94121 0.95118 0.0
O10 O 0.05357 0.83921 0.93882 0.0
O11 O 0.10347 0.80384 0.98395 0.0
O12 O 0.15289 0.89238 0.14951 0.0
O13 O 0.16264 0.90363 0.06237 0.0
O14 O 0.05124 0.86958 0.04213 0.0
O15 O 0.05221 0.84917 0.12771 0.0
C16 C 0.03199 0.86161 0.085 0.0
O17 O 0.15021 0.81712 0.97663 0.0
O18 O 0.15535 0.86112 0.90944 0.0
C19 C 0.15313 0.77758 0.07273 0.0
C20 C 0.16788 0.82868 0.93322 0.0
Zn21 Zn 0.62492 0.61465 0.40766 0.0
Zn22 Zn 0.61979 0.6426 0.6185 0.0
Zn23 Zn 0.62393 0.63242 0.51222 0.0
C24 C 0.63161 0.55985 0.60537 0.0
C25 C 0.54448 0.67135 0.56749 0.0
O26 O 0.66633 0.67748 0.47744 0.0
O27 O 0.65279 0.66642 0.38912 0.0
C28 C 0.66862 0.55315 0.46499 0.0
O29 O 0.6367 0.57289 0.55652 0.0
O30 O 0.62158 0.58432 0.64212 0.0
O31 O 0.56477 0.67192 0.61312 0.0
O32 O 0.56009 0.65455 0.52574 0.0
O33 O 0.662 0.56576 0.41673 0.0
O34 O 0.65276 0.57182 0.50518 0.0
O35 O 0.55921 0.63877 0.4728 0.0
O36 O 0.56301 0.61038 0.39131 0.0
C37 C 0.5415 0.62678 0.42707 0.0
O38 O 0.66925 0.68076 0.53478 0.0
O39 O 0.67137 0.67657 0.62505 0.0
C40 C 0.67052 0.68701 0.42717 0.0
C41 C 0.6849 0.69149 0.58204 0.0
Zn42 Zn 0.87295 0.13772 0.94845 0.0
Zn43 Zn 0.87853 0.09621 0.13311 0.0
Zn44 Zn 0.87232 0.12622 0.04784 0.0
C45 C 0.95404 0.12181 0.12492 0.0
C46 C 0.80205 0.07645 0.08337 0.0
O47 O 0.81147 0.15804 0.03327 0.0
O48 O 0.81825 0.16844 0.94501 0.0
C49 C 0.9392 0.18327 1.00056 0.0
O50 O 0.92987 0.1456 0.09542 0.0
O51 O 0.94093 0.08708 0.13833 0.0
O52 O 0.8332 0.05721 0.10559 0.0
O53 O 0.80699 0.11336 0.06688 0.0
O54 O 0.92562 0.17147 0.95386 0.0
O55 O 0.92261 0.17016 0.04351 0.0
O56 O 0.88018 0.06509 0.01734 0.0
O57 O 0.87503 0.0779 0.92915 0.0
C58 C 0.879 0.05267 0.96808 0.0
O59 O 0.82176 0.15535 0.09231 0.0
O60 O 0.85705 0.14721 0.17154 0.0
C61 C 0.79782 0.17331 0.9872 0.0
C62 C 0.8285 0.16543 0.14284 0.0
Zn63 Zn 0.38522 0.38782 0.6177 0.0
Zn64 Zn 0.35883 0.34417 0.43483 0.0
Zn65 Zn 0.36355 0.36248 0.53378 0.0
C66 C 0.44446 0.35651 0.46978 0.0
C67 C 0.30587 0.41248 0.45164 0.0
O68 O 0.33631 0.31988 0.59154 0.0
O69 O 0.33352 0.36711 0.65513 0.0
C70 C 0.4205 0.3127 0.60667 0.0
O71 O 0.42766 0.36858 0.51282 0.0
O72 O 0.42189 0.3436 0.4295 0.0
O73 O 0.32281 0.39322 0.41396 0.0
O74 O 0.31585 0.4044 0.50178 0.0
O75 O 0.43351 0.34818 0.61899 0.0
O76 O 0.38423 0.30832 0.58127 0.0
O77 O 0.33352 0.42155 0.55514 0.0
O78 O 0.38687 0.44776 0.60445 0.0
C79 C 0.35096 0.45204 0.58028 0.0
O80 O 0.3381 0.30068 0.5382 0.0
O81 O 0.32994 0.29131 0.44882 0.0
C82 C 0.32131 0.33312 0.63598 0.0
C83 C 0.3256 0.27889 0.4969 0.0
H84 H 0.14946 0.07722 0.17571 0.0
H85 H 0.15083 0.16714 0.30343 0.0
H86 H 0.25476 0.08314 0.2934 0.0
H87 H 0.23094 0.09661 0.40335 0.0
C88 C 0.21866 0.1284 0.40021 0.0
O89 O 0.22407 0.14385 0.34878 0.0
H90 H 0.18477 0.12909 0.40904 0.0
C91 C 0.16547 0.09187 0.21067 0.0
C92 C 0.20457 0.07697 0.23093 0.0
C93 C 0.14605 0.12443 0.23624 0.0
C94 C 0.16596 0.14235 0.28268 0.0
C95 C 0.20523 0.12738 0.30331 0.0
C96 C 0.2248 0.09501 0.2769 0.0
H97 H 0.3638 0.64225 0.5883 0.0
H98 H 0.26718 0.64603 0.70375 0.0
H99 H 0.34788 0.74971 0.68566 0.0
H100 H 0.3337 0.72873 0.79747 0.0
C101 C 0.30123 0.71636 0.79282 0.0
O102 O 0.28587 0.71982 0.73932 0.0
H103 H 0.30132 0.68387 0.80589 0.0
C104 C 0.34635 0.65903 0.61789 0.0
C105 C 0.35879 0.69843 0.63287 0.0
C106 C 0.31333 0.64008 0.64285 0.0
C107 C 0.29207 0.66092 0.68301 0.0
C108 C 0.3045 0.70061 0.69832 0.0
C109 C 0.33756 0.71961 0.67264 0.0
H110 H 0.81631 0.93117 0.09442 0.0
H111 H 0.72299 0.90029 0.20781 0.0
H112 H 0.83833 0.83121 0.2063 0.0
H113 H 0.76367 0.78183 0.22629 0.0
C114 C 0.74507 0.80474 0.24826 0.0
O115 O 0.76725 0.84054 0.25424 0.0
H116 H 0.71453 0.81042 0.22511 0.0
C117 C 0.80533 0.91129 0.12596 0.0
C118 C 0.83138 0.87967 0.14661 0.0
C119 C 0.76613 0.91872 0.14759 0.0
C120 C 0.75264 0.89399 0.18973 0.0
C121 C 0.77873 0.86237 0.21083 0.0
C122 C 0.81798 0.85514 0.18907 0.0
H123 H 0.57322 0.35507 0.65585 0.0
H124 H 0.59949 0.27228 0.79 0.0
H125 H 0.66888 0.38408 0.78083 0.0
H126 H 0.72226 0.32006 0.83867 0.0
C127 C 0.6966 0.29727 0.8393 0.0
O128 O 0.6583 0.31723 0.83797 0.0
H129 H 0.69871 0.27658 0.80358 0.0
C130 C 0.59155 0.34693 0.69294 0.0
C131 C 0.62258 0.37363 0.71438 0.0
C132 C 0.58321 0.3103 0.71997 0.0
C133 C 0.60616 0.30019 0.76846 0.0
C134 C 0.63701 0.32679 0.79038 0.0
C135 C 0.6452 0.36351 0.76338 0.0
H136 H 0.65708 0.39159 0.47268 0.0
H137 H 0.6474 0.28458 0.37191 0.0
H138 H 0.76254 0.35336 0.38265 0.0
H139 H 0.72932 0.33147 0.27319 0.0
C140 C 0.71708 0.30048 0.28137 0.0
O141 O 0.72329 0.29105 0.33602 0.0
H142 H 0.68299 0.29919 0.26881 0.0
C143 C 0.67171 0.36935 0.44679 0.0
C144 C 0.71291 0.37534 0.43177 0.0
C145 C 0.64803 0.33686 0.42557 0.0
C146 C 0.66602 0.30921 0.38996 0.0
C147 C 0.70749 0.31506 0.37469 0.0
C148 C 0.73125 0.3479 0.39628 0.0
H149 H 0.1065 0.14919 0.97531 0.0
H150 H 0.13102 0.25228 0.87338 0.0
H151 H 0.20184 0.14091 0.85834 0.0
H152 H 0.25203 0.21589 0.84932 0.0
C153 C 0.22713 0.23669 0.83158 0.0
O154 O 0.19029 0.21558 0.82135 0.0
H155 H 0.22208 0.26233 0.86017 0.0
C156 C 0.12479 0.16338 0.9445 0.0
C157 C 0.15581 0.14073 0.9198 0.0
C158 C 0.11592 0.20358 0.9282 0.0
C159 C 0.1384 0.22149 0.88714 0.0
C160 C 0.16955 0.19886 0.86217 0.0
C161 C 0.17829 0.15846 0.87851 0.0
H162 H 0.3345 0.57368 0.39342 0.0
H163 H 0.34055 0.66316 0.26579 0.0
H164 H 0.23031 0.58847 0.27524 0.0
H165 H 0.25783 0.59798 0.16729 0.0
C166 C 0.26941 0.62994 0.16882 0.0
O167 O 0.26579 0.64614 0.22021 0.0
H168 H 0.30276 0.63087 0.15765 0.0
C169 C 0.31982 0.58958 0.35839 0.0
C170 C 0.27968 0.5781 0.33785 0.0
C171 C 0.34183 0.62035 0.333 0.0
C172 C 0.32352 0.63974 0.28641 0.0
C173 C 0.28324 0.62817 0.26562 0.0
C174 C 0.26108 0.59773 0.2919 0.0
H175 H 0.93399 0.84165 0.90824 0.0
H176 H 0.89148 0.76747 0.77124 0.0
H177 H 0.83948 0.88768 0.79139 0.0
H178 H 0.77653 0.83887 0.73587 0.0
C179 C 0.79623 0.81115 0.73113 0.0
O180 O 0.8379 0.82215 0.73 0.0
H181 H 0.79137 0.78987 0.76554 0.0
C182 C 0.91357 0.83729 0.87178 0.0
C183 C 0.88593 0.86855 0.85401 0.0
C184 C 0.9157 0.8008 0.84213 0.0
C185 C 0.88972 0.79538 0.79471 0.0
C186 C 0.86235 0.82687 0.77637 0.0
C187 C 0.86063 0.86347 0.8059 0.0
C188 C 0.21443 0.97466 0.14961 0.0
C189 C 0.1957 0.9465 0.12843 0.0
C190 C 0.22423 0.01013 0.17993 0.0
C191 C 0.22052 0.0404 0.20703 0.0
C192 C 0.46929 0.70407 0.57091 0.0
C193 C 0.50295 0.68854 0.56406 0.0
C194 C 0.42981 0.71478 0.58992 0.0
C195 C 0.39721 0.71318 0.61232 0.0
C196 C 0.74044 0.02742 0.09074 0.0
C197 C 0.76214 0.05636 0.08166 0.0
C198 C 0.73386 0.98771 0.11056 0.0
C199 C 0.74345 0.95527 0.131 0.0
C200 C 0.47875 0.26642 0.64756 0.0
C201 C 0.4469 0.2793 0.6247 0.0
C202 C 0.51804 0.27017 0.67668 0.0
C203 C 0.54841 0.28543 0.7 0.0
C204 C 0.7158 0.48726 0.47344 0.0
C205 C 0.69413 0.51743 0.47413 0.0
C206 C 0.73212 0.44839 0.46229 0.0
C207 C 0.73158 0.41389 0.44577 0.0
C208 C 0.00963 0.22316 0.99536 0.0
C209 C 0.97748 0.20602 1.00459 0.0
C210 C 0.04886 0.23027 0.9736 0.0
C211 C 0.0802 0.22355 0.94984 0.0
C212 C 0.26286 0.47692 0.41751 0.0
C213 C 0.28146 0.44813 0.43767 0.0
C214 C 0.25463 0.51308 0.38791 0.0
C215 C 0.26073 0.54301 0.36121 0.0
C216 C 0.0157 0.75352 0.91442 0.0
C217 C 0.04528 0.76943 0.93845 0.0
C218 C 0.97731 0.75509 0.88289 0.0
C219 C 0.94755 0.77125 0.85897 0.0
C220 C 0.8825 0.97569 0.93719 0.0
C221 C 0.8812 0.0099 0.95533 0.0
C222 C 0.88344 0.93757 0.91016 0.0
C223 C 0.88454 0.90616 0.88453 0.0
C224 C 0.52609 0.34754 0.46097 0.0
C225 C 0.48931 0.35274 0.46832 0.0
C226 C 0.56813 0.3397 0.4485 0.0
C227 C 0.60401 0.33585 0.43597 0.0
C228 C 0.15658 0.02292 0.96733 0.0
C229 C 0.14646 0.98821 0.97595 0.0
C230 C 0.16241 0.06371 0.95093 0.0
C231 C 0.16148 0.09842 0.93455 0.0
C232 C 0.46058 0.63482 0.39857 0.0
C233 C 0.49703 0.63243 0.41506 0.0
C234 C 0.41899 0.63412 0.3748 0.0
C235 C 0.38413 0.62955 0.35359 0.0
C236 C 0.31504 0.52332 0.59597 0.0
C237 C 0.32862 0.48984 0.58619 0.0
C238 C 0.30572 0.56321 0.61357 0.0
C239 C 0.30551 0.5978 0.63028 0.0
C240 C 0.94995 0.86876 0.09417 0.0
C241 C 0.98702 0.86644 0.08612 0.0
C242 C 0.90786 0.87134 0.10995 0.0
C243 C 0.87312 0.8748 0.12701 0.0
C244 C 0.63649 0.48262 0.63722 0.0
C245 C 0.63513 0.51696 0.6188 0.0
C246 C 0.63422 0.44398 0.66325 0.0
C247 C 0.62949 0.41215 0.68724 0.0
C248 C 0.02976 0.14074 0.16615 0.0
C249 C -0.005 0.13476 0.1455 0.0
C250 C 0.07015 0.14179 0.19326 0.0
C251 C 0.1044 0.1366 0.21601 0.0
C252 C 0.19673 0.70963 0.0793 0.0
C253 C 0.17685 0.74043 0.06967 0.0
C254 C 0.22192 0.67787 0.10255 0.0
C255 C 0.24368 0.65449 0.12973 0.0
C256 C 0.74228 0.74578 0.60746 0.0
C257 C 0.71692 0.72195 0.58813 0.0
C258 C 0.76665 0.77125 0.64293 0.0
C259 C 0.78258 0.79054 0.68036 0.0
C260 C 0.78125 0.21887 0.19175 0.0
C261 C 0.80205 0.19468 0.16781 0.0
C262 C 0.75837 0.24696 0.22212 0.0
C263 C 0.73957 0.27097 0.24898 0.0
C264 C 0.27569 0.28861 0.6991 0.0
C265 C 0.29646 0.3073 0.66823 0.0
C266 C 0.25536 0.26879 0.74108 0.0
C267 C 0.24117 0.2535 0.78063 0.0
C268 C 0.71189 0.74674 0.38513 0.0
C269 C 0.69494 0.72139 0.41181 0.0
C270 C 0.72695 0.77127 0.34315 0.0
C271 C 0.73651 0.78821 0.30201 0.0
C272 C 0.7351 0.22219 0.96198 0.0
C273 C 0.76127 0.19917 0.98221 0.0
C274 C 0.71367 0.24998 0.92601 0.0
C275 C 0.70257 0.27249 0.88895 0.0
C276 C 0.28528 0.20984 0.4935 0.0
C277 C 0.30416 0.241 0.50316 0.0
C278 C 0.26196 0.17761 0.46883 0.0
C279 C 0.24211 0.15377 0.44035 0.0
C280 C 0.22305 0.78246 0.88537 0.0
C281 C 0.19781 0.80283 0.90828 0.0
C282 C 0.2512 0.75921 0.85539 0.0
C283 C 0.27419 0.73973 0.82779 0.0
loop_
_geom_bond_atom_site_label_1
_geom_bond_atom_site_label_2
_geom_bond_distance
_geom_bond_site_symmetry_2
_ccdc_geom_bond_type
Zn0 O6 1.920 . S
Zn0 O12 1.898 . S
Zn0 O15 1.905 . S
Zn1 O9 1.905 . S
Zn1 O10 1.898 . S
Zn1 O18 1.920 . S
Zn2 O5 2.084 . S
Zn2 O8 2.110 1_554 S
Zn2 O11 2.114 1_554 S
Zn2 O13 2.126 . S
Zn2 O14 2.119 . S
Zn2 O17 2.075 1_554 S
C3 O8 1.166 . S
C3 O9 1.182 . S
C4 O10 1.167 . S
C4 O11 1.299 . S
O5 Zn2 2.084 . S
O5 C19 1.305 . S
O6 Zn0 1.920 . S
O6 C19 1.234 . S
C7 O12 1.167 . S
C7 O13 1.299 . S
O8 Zn2 2.110 1_556 S
O8 C3 1.166 . S
O9 Zn1 1.905 . S
O9 C3 1.182 . S
O10 Zn1 1.898 . S
O10 C4 1.167 . S
O11 Zn2 2.114 1_556 S
O11 C4 1.299 . S
O12 Zn0 1.898 . S
O12 C7 1.167 . S
O13 Zn2 2.126 . S
O13 C7 1.299 . S
O14 Zn2 2.119 . S
O14 C16 1.166 . S
O15 Zn0 1.905 . S
O15 C16 1.182 . S
C16 O14 1.166 . S
C16 O15 1.182 . S
O17 Zn2 2.075 1_556 S
O17 C20 1.305 . S
O18 Zn1 1.920 . S
O18 C20 1.234 . S
C19 O5 1.305 . S
C19 O6 1.234 . S
C20 O17 1.305 . S
C20 O18 1.234 . S
Zn21 O27 1.920 . S
Zn21 O33 1.898 . S
Zn21 O36 1.905 . S
Zn22 O30 1.905 . S
Zn22 O31 1.898 . S
Zn22 O39 1.920 . S
Zn23 O26 2.080 . S
Zn23 O29 2.114 . S
Zn23 O32 2.120 . S
Zn23 O34 2.120 . S
Zn23 O35 2.114 . S
Zn23 O38 2.080 . S
C24 O29 1.166 . S
C24 O30 1.182 . S
C25 O31 1.167 . S
C25 O32 1.299 . S
O26 Zn23 2.080 . S
O26 C40 1.305 . S
O27 Zn21 1.920 . S
O27 C40 1.234 . S
C28 O33 1.167 . S
C28 O34 1.299 . S
O29 Zn23 2.114 . S
O29 C24 1.166 . S
O30 Zn22 1.905 . S
O30 C24 1.182 . S
O31 Zn22 1.898 . S
O31 C25 1.167 . S
O32 Zn23 2.120 . S
O32 C25 1.299 . S
O33 Zn21 1.898 . S
O33 C28 1.167 . S
O34 Zn23 2.120 . S
O34 C28 1.299 . S
O35 Zn23 2.114 . S
O35 C37 1.166 . S
O36 Zn21 1.905 . S
O36 C37 1.182 . S
C37 O35 1.166 . S
C37 O36 1.182 . S
O38 Zn23 2.080 . S
O38 C41 1.305 . S
O39 Zn22 1.920 . S
O39 C41 1.234 . S
C40 O26 1.305 . S
C40 O27 1.234 . S
C41 O38 1.305 . S
C41 O39 1.234 . S
Zn42 O48 1.920 . S
Zn42 O54 1.898 . S
Zn42 O57 1.905 . S
Zn43 O51 1.905 . S
Zn43 O52 1.898 . S
Zn43 O60 1.920 . S
Zn44 O47 2.080 1_554 S
Zn44 O50 2.114 . S
Zn44 O53 2.120 . S
Zn44 O55 2.120 1_554 S
Zn44 O56 2.114 1_554 S
Zn44 O59 2.080 . S
C45 O50 1.166 . S
C45 O51 1.182 . S
C46 O52 1.167 . S
C46 O53 1.299 . S
O47 Zn44 2.080 1_556 S
O47 C61 1.305 . S
O48 Zn42 1.920 . S
O48 C61 1.234 . S
C49 O54 1.167 . S
C49 O55 1.299 . S
O50 Zn44 2.114 . S
O50 C45 1.166 . S
O51 Zn43 1.905 . S
O51 C45 1.182 . S
O52 Zn43 1.898 . S
O52 C46 1.167 . S
O53 Zn44 2.120 . S
O53 C46 1.299 . S
O54 Zn42 1.898 . S
O54 C49 1.167 . S
O55 Zn44 2.120 1_556 S
O55 C49 1.299 . S
O56 Zn44 2.114 1_556 S
O56 C58 1.166 . S
O57 Zn42 1.905 . S
O57 C58 1.182 . S
C58 O56 1.166 . S
C58 O57 1.182 . S
O59 Zn44 2.080 . S
O59 C62 1.305 . S
O60 Zn43 1.920 . S
O60 C62 1.234 . S
C61 O47 1.305 . S
C61 O48 1.234 . S
C62 O59 1.305 . S
C62 O60 1.234 . S
Zn63 O69 1.920 . S
Zn63 O75 1.898 . S
Zn63 O78 1.905 . S
Zn64 O72 1.905 . S
Zn64 O73 1.898 . S
Zn64 O81 1.920 . S
Zn65 O68 2.080 . S
Zn65 O71 2.114 . S
Zn65 O74 2.120 . S
Zn65 O76 2.120 . S
Zn65 O77 2.114 . S
Zn65 O80 2.080 . S
C66 O71 1.166 . S
C66 O72 1.182 . S
C67 O73 1.167 . S
C67 O74 1.299 . S
O68 Zn65 2.080 . S
O68 C82 1.305 . S
O69 Zn63 1.920 . S
O69 C82 1.234 . S
C70 O75 1.167 . S
C70 O76 1.299 . S
O71 Zn65 2.114 . S
O71 C66 1.166 . S
O72 Zn64 1.905 . S
O72 C66 1.182 . S
O73 Zn64 1.898 . S
O73 C67 1.167 . S
O74 Zn65 2.120 . S
O74 C67 1.299 . S
O75 Zn63 1.898 . S
O75 C70 1.167 . S
O76 Zn65 2.120 . S
O76 C70 1.299 . S
O77 Zn65 2.114 . S
O77 C79 1.166 . S
O78 Zn63 1.905 . S
O78 C79 1.182 . S
C79 O77 1.166 . S
C79 O78 1.182 . S
O80 Zn65 2.080 . S
O80 C83 1.305 . S
O81 Zn64 1.920 . S
O81 C83 1.234 . S
C82 O68 1.305 . S
C82 O69 1.234 . S
C83 O80 1.305 . S
C83 O81 1.234 . S
H84 C91 0.929 . S
H85 C94 0.930 . S
H86 C96 0.929 . S
H87 C88 0.969 . S
C88 H87 0.969 . S
C88 O89 1.550 . S
C88 H90 0.973 . S
O89 C88 1.550 . S
O89 C95 1.412 . S
H90 C88 0.973 . S
C91 H84 0.929 . S
C91 C92 1.400 . S
C91 C93 1.364 . S
C92 C91 1.400 . S
C92 C96 1.377 . S
C93 C91 1.364 . S
C93 C94 1.374 . S
C94 H85 0.930 . S
C94 C93 1.374 . S
C94 C95 1.383 . S
C95 O89 1.412 . S
C95 C94 1.383 . S
C95 C96 1.394 . S
C96 H86 0.929 . S
C96 C92 1.377 . S
C96 C95 1.394 . S
H97 C104 0.929 . S
H98 C107 0.930 . S
H99 C109 0.929 . S
H100 C101 0.969 . S
C101 H100 0.969 . S
C101 O102 1.550 . S
C101 H103 0.973 . S
O102 C101 1.550 . S
O102 C108 1.412 . S
H103 C101 0.973 . S
C104 H97 0.929 . S
C104 C105 1.400 . S
C104 C106 1.364 . S
C105 C104 1.400 . S
C105 C109 1.377 . S
C106 C104 1.364 . S
C106 C107 1.374 . S
C107 H98 0.930 . S
C107 C106 1.374 . S
C107 C108 1.383 . S
C108 O102 1.412 . S
C108 C107 1.383 . S
C108 C109 1.394 . S
C109 H99 0.929 . S
C109 C105 1.377 . S
C109 C108 1.394 . S
H110 C117 0.929 . S
H111 C120 0.930 . S
H112 C122 0.929 . S
H113 C114 0.969 . S
C114 H113 0.969 . S
C114 O115 1.550 . S
C114 H116 0.973 . S
O115 C114 1.550 . S
O115 C121 1.412 . S
H116 C114 0.973 . S
C117 H110 0.929 . S
C117 C118 1.400 . S
C117 C119 1.364 . S
C118 C117 1.400 . S
C118 C122 1.377 . S
C119 C117 1.364 . S
C119 C120 1.374 . S
C120 H111 0.930 . S
C120 C119 1.374 . S
C120 C121 1.383 . S
C121 O115 1.412 . S
C121 C120 1.383 . S
C121 C122 1.394 . S
C122 H112 0.929 . S
C122 C118 1.377 . S
C122 C121 1.394 . S
H123 C130 0.929 . S
H124 C133 0.930 . S
H125 C135 0.929 . S
H126 C127 0.969 . S
C127 H126 0.969 . S
C127 O128 1.550 . S
C127 H129 0.973 . S
O128 C127 1.550 . S
O128 C134 1.412 . S
H129 C127 0.973 . S
C130 H123 0.929 . S
C130 C131 1.400 . S
C130 C132 1.364 . S
C131 C130 1.400 . S
C131 C135 1.377 . S
C132 C130 1.364 . S
C132 C133 1.374 . S
C133 H124 0.930 . S
C133 C132 1.374 . S
C133 C134 1.383 . S
C134 O128 1.412 . S
C134 C133 1.383 . S
C134 C135 1.394 . S
C135 H125 0.929 . S
C135 C131 1.377 . S
C135 C134 1.394 . S
H136 C143 0.929 . S
H137 C146 0.930 . S
H138 C148 0.929 . S
H139 C140 0.969 . S
C140 H139 0.969 . S
C140 O141 1.550 . S
C140 H142 0.973 . S
O141 C140 1.550 . S
O141 C147 1.412 . S
H142 C140 0.973 . S
C143 H136 0.929 . S
C143 C144 1.400 . S
C143 C145 1.364 . S
C144 C143 1.400 . S
C144 C148 1.377 . S
C145 C143 1.364 . S
C145 C146 1.374 . S
C146 H137 0.930 . S
C146 C145 1.374 . S
C146 C147 1.383 . S
C147 O141 1.412 . S
C147 C146 1.383 . S
C147 C148 1.394 . S
C148 H138 0.929 . S
C148 C144 1.377 . S
C148 C147 1.394 . S
H149 C156 0.929 . S
H150 C159 0.930 . S
H151 C161 0.929 . S
H152 C153 0.969 . S
C153 H152 0.969 . S
C153 O154 1.550 . S
C153 H155 0.973 . S
O154 C153 1.550 . S
O154 C160 1.412 . S
H155 C153 0.973 . S
C156 H149 0.929 . S
C156 C157 1.400 . S
C156 C158 1.364 . S
C157 C156 1.400 . S
C157 C161 1.377 . S
C158 C156 1.364 . S
C158 C159 1.374 . S
C159 H150 0.930 . S
C159 C158 1.374 . S
C159 C160 1.383 . S
C160 O154 1.412 . S
C160 C159 1.383 . S
C160 C161 1.394 . S
C161 H151 0.929 . S
C161 C157 1.377 . S
C161 C160 1.394 . S
H162 C169 0.929 . S
H163 C172 0.930 . S
H164 C174 0.929 . S
H165 C166 0.969 . S
C166 H165 0.969 . S
C166 O167 1.550 . S
C166 H168 0.973 . S
O167 C166 1.550 . S
O167 C173 1.412 . S
H168 C166 0.973 . S
C169 H162 0.929 . S
C169 C170 1.400 . S
C169 C171 1.364 . S
C170 C169 1.400 . S
C170 C174 1.377 . S
C171 C169 1.364 . S
C171 C172 1.374 . S
C172 H163 0.930 . S
C172 C171 1.374 . S
C172 C173 1.383 . S
C173 O167 1.412 . S
C173 C172 1.383 . S
C173 C174 1.394 . S
C174 H164 0.929 . S
C174 C170 1.377 . S
C174 C173 1.394 . S
H175 C182 0.929 . S
H176 C185 0.930 . S
H177 C187 0.929 . S
H178 C179 0.969 . S
C179 H178 0.969 . S
C179 O180 1.550 . S
C179 H181 0.973 . S
O180 C179 1.550 . S
O180 C186 1.412 . S
H181 C179 0.973 . S
C182 H175 0.929 . S
C182 C183 1.400 . S
C182 C184 1.364 . S
C183 C182 1.400 . S
C183 C187 1.377 . S
C184 C182 1.364 . S
C184 C185 1.374 . S
C185 H176 0.930 . S
C185 C184 1.374 . S
C185 C186 1.383 . S
C186 O180 1.412 . S
C186 C185 1.383 . S
C186 C187 1.394 . S
C187 H177 0.929 . S
C187 C183 1.377 . S
C187 C186 1.394 . S
C188 C189 1.170 . S
C188 C190 1.380 . S
C189 C188 1.170 . S
C190 C188 1.380 . S
C190 C191 1.170 1_565 S
C191 C190 1.170 1_545 S
C192 C193 1.170 . S
C192 C194 1.380 . S
C193 C192 1.170 . S
C194 C192 1.380 . S
C194 C195 1.170 . S
C195 C194 1.170 . S
C196 C197 1.170 . S
C196 C198 1.380 1_545 S
C197 C196 1.170 . S
C198 C196 1.380 1_565 S
C198 C199 1.170 . S
C199 C198 1.170 . S
C200 C201 1.170 . S
C200 C202 1.380 . S
C201 C200 1.170 . S
C202 C200 1.380 . S
C202 C203 1.170 . S
C203 C202 1.170 . S
C204 C205 1.170 . S
C204 C206 1.380 . S
C205 C204 1.170 . S
C206 C204 1.380 . S
C206 C207 1.170 . S
C207 C206 1.170 . S
C208 C209 1.170 1_455 S
C208 C210 1.380 . S
C209 C208 1.170 1_655 S
C210 C208 1.380 . S
C210 C211 1.170 . S
C211 C210 1.170 . S
C212 C213 1.170 . S
C212 C214 1.380 . S
C213 C212 1.170 . S
C214 C212 1.380 . S
C214 C215 1.170 . S
C215 C214 1.170 . S
C216 C217 1.170 . S
C216 C218 1.380 1_455 S
C217 C216 1.170 . S
C218 C216 1.380 1_655 S
C218 C219 1.170 . S
C219 C218 1.170 . S
C220 C221 1.170 1_565 S
C220 C222 1.380 . S
C221 C220 1.170 1_545 S
C222 C220 1.380 . S
C222 C223 1.170 . S
C223 C222 1.170 . S
C224 C225 1.170 . S
C224 C226 1.380 . S
C225 C224 1.170 . S
C226 C224 1.380 . S
C226 C227 1.170 . S
C227 C226 1.170 . S
C228 C229 1.170 1_545 S
C228 C230 1.380 . S
C229 C228 1.170 1_565 S
C230 C228 1.380 . S
C230 C231 1.170 . S
C231 C230 1.170 . S
C232 C233 1.170 . S
C232 C234 1.380 . S
C233 C232 1.170 . S
C234 C232 1.380 . S
C234 C235 1.170 . S
C235 C234 1.170 . S
C236 C237 1.170 . S
C236 C238 1.380 . S
C237 C236 1.170 . S
C238 C236 1.380 . S
C238 C239 1.170 . S
C239 C238 1.170 . S
C240 C241 1.195 . S
C240 C242 1.380 . S
C241 C240 1.195 . S
C242 C240 1.380 . S
C242 C243 1.170 . S
C243 C242 1.170 . S
C244 C245 1.170 . S
C244 C246 1.380 . S
C245 C244 1.170 . S
C246 C244 1.380 . S
C246 C247 1.170 . S
C247 C246 1.170 . S
C248 C249 1.170 . S
C248 C250 1.380 . S
C249 C248 1.170 . S
C250 C248 1.380 . S
C250 C251 1.170 . S
C251 C250 1.170 . S
C252 C253 1.170 . S
C252 C254 1.380 . S
C253 C252 1.170 . S
C254 C252 1.380 . S
C254 C255 1.170 . S
C255 C254 1.170 . S
C256 C257 1.170 . S
C256 C258 1.380 . S
C257 C256 1.170 . S
C258 C256 1.380 . S
C258 C259 1.170 . S
C259 C258 1.170 . S
C260 C261 1.170 . S
C260 C262 1.380 . S
C261 C260 1.170 . S
C262 C260 1.380 . S
C262 C263 1.170 . S
C263 C262 1.170 . S
C264 C265 1.170 . S
C264 C266 1.380 . S
C265 C264 1.170 . S
C266 C264 1.380 . S
C266 C267 1.170 . S
C267 C266 1.170 . S
C268 C269 1.170 . S
C268 C270 1.380 . S
C269 C268 1.170 . S
C270 C268 1.380 . S
C270 C271 1.170 . S
C271 C270 1.170 . S
C272 C273 1.170 . S
C272 C274 1.380 . S
C273 C272 1.170 . S
C274 C272 1.380 . S
C274 C275 1.170 . S
C275 C274 1.170 . S
C276 C277 1.170 . S
C276 C278 1.380 . S
C277 C276 1.170 . S
C278 C276 1.380 . S
C278 C279 1.170 . S
C279 C278 1.170 . S
C280 C281 1.170 . S
C280 C282 1.380 . S
C281 C280 1.170 . S
C282 C280 1.380 . S
C282 C283 1.170 . S
C283 C282 1.170 . S
C189 C7 0.996 . S
C191 C92 0.997 . S
C193 C25 0.832 . S
C195 C105 0.885 . S
C197 C46 1.052 . S
C199 C119 1.040 . S
C203 C132 0.897 . S
C201 C70 0.907 . S
C207 C144 0.929 . S
C205 C28 0.930 . S
C209 C49 1.031 . S
C211 C158 1.035 . S
C213 C67 0.986 . S
C215 C170 0.990 . S
C217 C4 0.824 . S
C219 C184 0.842 . S
C221 C58 1.496 . S
C223 C183 1.573 . S
C227 C145 1.734 . S
C225 C66 1.690 . S
C231 C157 1.640 . S
C229 C3 1.556 . S
C233 C37 1.593 . S
C235 C171 1.700 . S
C239 C106 1.765 . S
C237 C79 1.677 . S
C241 C16 1.509 1_655 S
C243 C118 1.591 . S
C247 C131 1.611 . S
C245 C24 1.489 . S
C251 C93 1.684 . S
C249 C45 1.632 1_455 S
C255 C166 1.395 . S
C253 C19 1.337 . S
C259 C179 1.318 . S
C257 C41 1.216 . S
C261 C62 1.227 . S
C263 C140 1.334 . S
C267 C153 1.471 . S
C265 C82 1.339 . S
C271 C114 1.390 . S
C269 C40 1.273 . S
C273 C61 1.265 . S
C275 C127 1.309 . S
C279 C88 1.427 . S
C277 C83 1.348 . S
C283 C101 1.328 . S
C281 C20 1.205 . S
