# Generated by pormake.
# Topology hwx, (6,3)-cn, num edge types: 1
# Building blocks:
#     Node 0, Type 0, BuildingBlock: OJICUG_clean_sbu_0, # of connection points: 6
#     Node 1, Type 0, BuildingBlock: OJICUG_clean_sbu_0, # of connection points: 6
#     Node 2, Type 0, BuildingBlock: OJICUG_clean_sbu_0, # of connection points: 6
#     Node 3, Type 0, BuildingBlock: OJICUG_clean_sbu_0, # of connection points: 6
#     Node 4, Type 1, BuildingBlock: VETTIZ_charged_linker_0, # of connection points: 3
#     Node 5, Type 1, BuildingBlock: VETTIZ_charged_linker_0, # of connection points: 3
#     Node 6, Type 1, BuildingBlock: VETTIZ_charged_linker_0, # of connection points: 3
#     Node 7, Type 1, BuildingBlock: VETTIZ_charged_linker_0, # of connection points: 3
#     Node 8, Type 1, BuildingBlock: VETTIZ_charged_linker_0, # of connection points: 3
#     Node 9, Type 1, BuildingBlock: VETTIZ_charged_linker_0, # of connection points: 3
#     Node 10, Type 1, BuildingBlock: VETTIZ_charged_linker_0, # of connection points: 3
#     Node 11, Type 1, BuildingBlock: VETTIZ_charged_linker_0, # of connection points: 3
#     Edge 12, Type (0, 1), BuildingBlock: MIFKUJ_clean_linker_0, # of connection points: 2
#     Edge 13, Type (0, 1), BuildingBlock: MIFKUJ_clean_linker_0, # of connection points: 2
#     Edge 14, Type (0, 1), BuildingBlock: MIFKUJ_clean_linker_0, # of connection points: 2
#     Edge 15, Type (0, 1), BuildingBlock: MIFKUJ_clean_linker_0, # of connection points: 2
#     Edge 16, Type (0, 1), BuildingBlock: MIFKUJ_clean_linker_0, # of connection points: 2
#     Edge 17, Type (0, 1), BuildingBlock: MIFKUJ_clean_linker_0, # of connection points: 2
#     Edge 18, Type (0, 1), BuildingBlock: MIFKUJ_clean_linker_0, # of connection points: 2
#     Edge 19, Type (0, 1), BuildingBlock: MIFKUJ_clean_linker_0, # of connection points: 2
#     Edge 20, Type (0, 1), BuildingBlock: MIFKUJ_clean_linker_0, # of connection points: 2
#     Edge 21, Type (0, 1), BuildingBlock: MIFKUJ_clean_linker_0, # of connection points: 2
#     Edge 22, Type (0, 1), BuildingBlock: MIFKUJ_clean_linker_0, # of connection points: 2
#     Edge 23, Type (0, 1), BuildingBlock: MIFKUJ_clean_linker_0, # of connection points: 2
#     Edge 24, Type (0, 1), BuildingBlock: MIFKUJ_clean_linker_0, # of connection points: 2
#     Edge 25, Type (0, 1), BuildingBlock: MIFKUJ_clean_linker_0, # of connection points: 2
#     Edge 26, Type (0, 1), BuildingBlock: MIFKUJ_clean_linker_0, # of connection points: 2
#     Edge 27, Type (0, 1), BuildingBlock: MIFKUJ_clean_linker_0, # of connection points: 2
#     Edge 28, Type (0, 1), BuildingBlock: MIFKUJ_clean_linker_0, # of connection points: 2
#     Edge 29, Type (0, 1), BuildingBlock: MIFKUJ_clean_linker_0, # of connection points: 2
#     Edge 30, Type (0, 1), BuildingBlock: MIFKUJ_clean_linker_0, # of connection points: 2
#     Edge 31, Type (0, 1), BuildingBlock: MIFKUJ_clean_linker_0, # of connection points: 2
#     Edge 32, Type (0, 1), BuildingBlock: MIFKUJ_clean_linker_0, # of connection points: 2
#     Edge 33, Type (0, 1), BuildingBlock: MIFKUJ_clean_linker_0, # of connection points: 2
#     Edge 34, Type (0, 1), BuildingBlock: MIFKUJ_clean_linker_0, # of connection points: 2
#     Edge 35, Type (0, 1), BuildingBlock: MIFKUJ_clean_linker_0, # of connection points: 2
# Relax obj value: 0.080
# Max RMSD: 0.104
# Mean RMSD: 0.097
data_MOF--net-hwx--node1-OJICUG_clean_sbu_0--node2-VETTIZ_charged_linker_0--edge1-MIFKUJ_clean_linker_0
_symmetry_space_group_name_H-M    P1
_symmetry_Int_Tables_number       1
_symmetry_cell_setting            triclinic
loop_
_symmetry_equiv_pos_as_xyz
'x, y, z'
_cell_length_a     75.01127
_cell_length_b     75.002275
_cell_length_c     34.137559
_cell_angle_alpha  90.0268
_cell_angle_beta   89.990481
_cell_angle_gamma 90.004738
loop_
_atom_site_label
_atom_site_type_symbol
_atom_site_fract_x
_atom_site_fract_y
_atom_site_fract_z
_atom_type_partial_charge
Sc0 Sc 0.22129 0.2216 0.04486 0.0
Sc1 Sc 0.19103 0.19213 0.99906 0.0
Sc2 Sc 0.21939 0.21949 0.94228 0.0
O3 O 0.21055 0.21105 0.9954 0.0
C4 C 0.21736 0.25592 0.99069 0.0
C5 C 0.18024 0.21817 0.06909 0.0
C6 C 0.17734 0.21642 0.92846 0.0
C7 C 0.21819 0.18033 0.06645 0.0
C8 C 0.2557 0.21837 0.99035 0.0
C9 C 0.21486 0.17766 0.92815 0.0
O10 O 0.21825 0.24852 0.02414 0.0
O11 O 0.17628 0.20651 0.04346 0.0
O12 O 0.19275 0.22239 0.92023 0.0
O13 O 0.22528 0.19566 0.07005 0.0
O14 O 0.24711 0.21754 0.95835 0.0
O15 O 0.20346 0.17537 0.95529 0.0
O16 O 0.24814 0.2202 0.02335 0.0
O17 O 0.20546 0.17714 0.04281 0.0
O18 O 0.22159 0.19279 0.92027 0.0
O19 O 0.19587 0.22443 0.07285 0.0
O20 O 0.21804 0.24719 0.95878 0.0
O21 O 0.17458 0.20527 0.95588 0.0
Sc22 Sc 0.27715 0.72003 0.44082 0.0
Sc23 Sc 0.30651 0.69079 0.49015 0.0
Sc24 Sc 0.27889 0.72013 0.54362 0.0
O25 O 0.28753 0.71029 0.49154 0.0
C26 C 0.28112 0.75543 0.49165 0.0
C27 C 0.3184 0.71595 0.41929 0.0
C28 C 0.32066 0.71597 0.55894 0.0
C29 C 0.27971 0.67834 0.42261 0.0
C30 C 0.24263 0.71801 0.49514 0.0
C31 C 0.28241 0.67855 0.56239 0.0
O32 O 0.27987 0.74733 0.45908 0.0
O33 O 0.32177 0.70427 0.44528 0.0
O34 O 0.30552 0.72291 0.5657 0.0
O35 O 0.27323 0.69379 0.41706 0.0
O36 O 0.25123 0.71825 0.52721 0.0
O37 O 0.29345 0.67522 0.53505 0.0
O38 O 0.25017 0.71883 0.46186 0.0
O39 O 0.29195 0.67526 0.4475 0.0
O40 O 0.27625 0.69406 0.56876 0.0
O41 O 0.30295 0.72249 0.41425 0.0
O42 O 0.28079 0.74741 0.52442 0.0
O43 O 0.3231 0.70406 0.53294 0.0
Sc44 Sc 0.7806 0.77922 0.95148 0.0
Sc45 Sc 0.80832 0.80806 0.00601 0.0
Sc46 Sc 0.77732 0.78015 0.05381 0.0
O47 O 0.78879 0.78917 0.00374 0.0
C48 C 0.74387 0.78386 0.99804 0.0
C49 C 0.78532 0.82042 0.93175 0.0
C50 C 0.78185 0.82172 0.07221 0.0
C51 C 0.82278 0.78232 0.93895 0.0
C52 C 0.78035 0.74436 0.00351 0.0
C53 C 0.81818 0.78215 0.07766 0.0
O54 O 0.75266 0.78079 0.96688 0.0
O55 O 0.79683 0.82338 0.95842 0.0
O56 O 0.77577 0.80626 0.0792 0.0
O57 O 0.80739 0.77651 0.93002 0.0
O58 O 0.77718 0.75263 0.03522 0.0
O59 O 0.82196 0.79468 0.05383 0.0
O60 O 0.7827 0.75218 0.97099 0.0
O61 O 0.82537 0.79356 0.96628 0.0
O62 O 0.80275 0.77523 0.08001 0.0
O63 O 0.77811 0.80527 0.92662 0.0
O64 O 0.751 0.7847 0.0317 0.0
O65 O 0.79334 0.82474 0.04565 0.0
Sc66 Sc 0.72073 0.27805 0.55046 0.0
Sc67 Sc 0.69132 0.30672 0.49934 0.0
Sc68 Sc 0.72076 0.27859 0.44765 0.0
O69 O 0.71091 0.28781 0.49918 0.0
C70 C 0.75606 0.28182 0.49928 0.0
C71 C 0.71605 0.31941 0.57036 0.0
C72 C 0.71662 0.32023 0.43033 0.0
C73 C 0.67894 0.28059 0.5681 0.0
C74 C 0.71901 0.24289 0.49808 0.0
C75 C 0.67924 0.28161 0.42848 0.0
O76 O 0.74811 0.28077 0.5321 0.0
O77 O 0.70446 0.32243 0.54396 0.0
O78 O 0.72332 0.30494 0.42402 0.0
O79 O 0.69443 0.27428 0.57422 0.0
O80 O 0.71918 0.25113 0.46559 0.0
O81 O 0.67586 0.29325 0.45461 0.0
O82 O 0.71976 0.25081 0.53094 0.0
O83 O 0.67581 0.29246 0.54237 0.0
O84 O 0.69474 0.2753 0.42297 0.0
O85 O 0.72285 0.30411 0.57591 0.0
O86 O 0.74793 0.28106 0.46669 0.0
O87 O 0.70479 0.32302 0.45634 0.0
C88 C 0.22799 0.5448 0.87631 0.0
C89 C 0.23111 0.5633 0.87475 0.0
C90 C 0.2286 0.57354 0.909 0.0
C91 C 0.22122 0.54695 0.94572 0.0
C92 C 0.22299 0.53697 0.91192 0.0
C93 C 0.21925 0.51752 0.91881 0.0
H94 H 0.19882 0.45101 0.0449 0.0
C95 C 0.21666 0.53471 0.97806 0.0
C96 C 0.21527 0.51747 0.96245 0.0
H97 H 0.20926 0.44744 0.92035 0.0
H98 H 0.21306 0.47917 0.91712 0.0
H99 H 0.23082 0.47612 0.06163 0.0
H100 H 0.17536 0.48832 0.04339 0.0
H101 H 0.18302 0.50052 0.08423 0.0
H102 H 0.18356 0.47652 0.08545 0.0
H103 H 0.2146 0.47326 0.09972 0.0
H104 H 0.22587 0.49425 0.09217 0.0
C105 C 0.23639 0.50686 0.90897 0.0
C106 C 0.20271 0.51226 0.89419 0.0
C107 C 0.21505 0.55812 0.11735 0.0
C108 C 0.21312 0.54978 0.15396 0.0
C109 C 0.20907 0.53144 0.15531 0.0
C110 C 0.20735 0.52149 0.12067 0.0
C111 C 0.20995 0.52992 0.08431 0.0
C112 C 0.21354 0.54799 0.08314 0.0
C113 C 0.21657 0.55464 0.04217 0.0
C114 C 0.21452 0.53754 0.0189 0.0
C115 C 0.21058 0.52312 0.04366 0.0
C116 C 0.23581 0.56216 0.03984 0.0
C117 C 0.20174 0.56833 0.0323 0.0
C118 C 0.20196 0.457 0.01689 0.0
C119 C 0.20357 0.44654 0.9828 0.0
C120 C 0.20752 0.45508 0.94698 0.0
C121 C 0.20992 0.47357 0.94518 0.0
C122 C 0.20859 0.48374 0.97959 0.0
C123 C 0.20465 0.47545 0.01466 0.0
C124 C 0.20461 0.4883 0.04854 0.0
C125 C 0.20878 0.50571 0.0278 0.0
C126 C 0.2111 0.50293 0.98743 0.0
C127 C 0.21962 0.48275 0.07732 0.0
C128 C 0.18571 0.48844 0.06673 0.0
H129 H 0.22219 0.57401 0.96936 0.0
H130 H 0.22978 0.5365 0.85064 0.0
H131 H 0.19303 0.52348 0.89254 0.0
H132 H 0.19508 0.50113 0.90712 0.0
H133 H 0.20655 0.50872 0.86373 0.0
H134 H 0.24851 0.51447 0.91756 0.0
H135 H 0.23732 0.50409 0.87707 0.0
H136 H 0.23739 0.49417 0.92518 0.0
H137 H 0.21847 0.57212 0.11532 0.0
H138 H 0.20741 0.52477 0.1832 0.0
H139 H 0.20439 0.50756 0.12356 0.0
H140 H 0.24517 0.55375 0.05708 0.0
H141 H 0.23646 0.57591 0.05186 0.0
H142 H 0.24132 0.56223 0.0099 0.0
H143 H 0.18915 0.56514 0.04804 0.0
H144 H 0.19803 0.56821 0.00095 0.0
H145 H 0.20574 0.58204 0.04086 0.0
H146 H 0.2304 0.58786 0.90851 0.0
C147 C 0.2237 0.56549 0.94436 0.0
C148 C 0.04212 0.70464 0.52384 0.0
C149 C 0.0519 0.70279 0.48891 0.0
C150 C 0.04263 0.70186 0.45302 0.0
C151 C 0.01452 0.70577 0.48686 0.0
C152 C 0.02353 0.70602 0.52214 0.0
C153 C 0.0112 0.70842 0.55646 0.0
H154 H 0.92778 0.72339 0.62402 0.0
C155 C 0.99538 0.70832 0.49511 0.0
C156 C 0.99331 0.70966 0.5359 0.0
H157 H 0.97635 0.71853 0.69132 0.0
H158 H 0.99298 0.71271 0.63201 0.0
H159 H 0.94467 0.74661 0.55607 0.0
H160 H 0.93485 0.69036 0.56702 0.0
H161 H 0.93049 0.69582 0.51794 0.0
H162 H 0.91734 0.7059 0.55635 0.0
H163 H 0.92272 0.73711 0.55456 0.0
H164 H 0.9361 0.73928 0.51104 0.0
C165 C 0.0162 0.72608 0.57738 0.0
C166 C 0.01251 0.69161 0.58262 0.0
C167 C 0.95164 0.71669 0.38277 0.0
C168 C 0.93314 0.71969 0.38174 0.0
C169 C 0.92343 0.71954 0.41708 0.0
C170 C 0.93204 0.71701 0.45299 0.0
C171 C 0.9506 0.71465 0.45373 0.0
C172 C 0.96005 0.71408 0.41899 0.0
C173 C 0.97961 0.71083 0.4256 0.0
C174 C 0.98037 0.71016 0.47008 0.0
C175 C 0.96337 0.71261 0.48629 0.0
C176 C 0.99003 0.72696 0.40894 0.0
C177 C 0.9846 0.69267 0.4068 0.0
C178 C 0.94195 0.72079 0.62609 0.0
C179 C 0.95076 0.72137 0.6624 0.0
C180 C 0.96929 0.71829 0.66365 0.0
C181 C 0.9789 0.71486 0.62919 0.0
C182 C 0.96992 0.71467 0.59302 0.0
C183 C 0.95173 0.71748 0.592 0.0
C184 C 0.94442 0.71727 0.55104 0.0
C185 C 0.96122 0.71381 0.52752 0.0
C186 C 0.97611 0.71233 0.55221 0.0
C187 C 0.93642 0.73593 0.54248 0.0
C188 C 0.93096 0.70165 0.54768 0.0
H189 H 0.01778 0.70274 0.42359 0.0
H190 H 0.04878 0.70557 0.55192 0.0
H191 H 0.01428 0.6794 0.56447 0.0
H192 H 0.00028 0.68913 0.59979 0.0
H193 H 0.02406 0.6925 0.60289 0.0
H194 H 0.02047 0.73635 0.55582 0.0
H195 H 0.02737 0.72404 0.59825 0.0
H196 H 0.0049 0.7322 0.59309 0.0
H197 H 0.95939 0.71647 0.356 0.0
H198 H 0.90918 0.72194 0.41708 0.0
H199 H 0.92392 0.71733 0.47884 0.0
H200 H 0.98333 0.73968 0.41704 0.0
H201 H 0.99072 0.72634 0.37646 0.0
H202 H 0.00369 0.72807 0.42053 0.0
H203 H 0.97296 0.68348 0.40596 0.0
H204 H 0.99481 0.68539 0.42383 0.0
H205 H 0.98936 0.69441 0.37623 0.0
H206 H 0.04978 0.70008 0.42573 0.0
C207 C 0.02402 0.70333 0.45182 0.0
C208 C 0.77865 0.45489 0.12846 0.0
C209 C 0.77544 0.43648 0.13122 0.0
C210 C 0.77512 0.42616 0.09668 0.0
C211 C 0.78005 0.45264 0.05757 0.0
C212 C 0.78094 0.46265 0.09151 0.0
C213 C 0.78398 0.48211 0.08334 0.0
H214 H 0.78829 0.54953 0.95259 0.0
C215 C 0.7819 0.4649 0.02396 0.0
C216 C 0.78431 0.48216 0.03886 0.0
H217 H 0.79368 0.55224 0.07852 0.0
H218 H 0.79147 0.52021 0.08277 0.0
H219 H 0.81446 0.5156 0.94207 0.0
H220 H 0.75733 0.52 0.95059 0.0
H221 H 0.76221 0.50469 0.91311 0.0
H222 H 0.76958 0.52746 0.9085 0.0
H223 H 0.8011 0.52395 0.90252 0.0
H224 H 0.80526 0.50041 0.90855 0.0
C225 C 0.80224 0.48751 0.10105 0.0
C226 C 0.76786 0.49263 0.09983 0.0
C227 C 0.77497 0.44116 0.8856 0.0
C228 C 0.77468 0.44935 0.84856 0.0
C229 C 0.77733 0.46792 0.84602 0.0
C230 C 0.78015 0.47816 0.87988 0.0
C231 C 0.78016 0.46977 0.91674 0.0
C232 C 0.7777 0.45155 0.91906 0.0
C233 C 0.77772 0.4449 0.96058 0.0
C234 C 0.78077 0.46211 0.9829 0.0
C235 C 0.78213 0.47664 0.95712 0.0
C236 C 0.7935 0.43175 0.96544 0.0
C237 C 0.75913 0.43673 0.96922 0.0
C238 C 0.78893 0.54317 0.98104 0.0
C239 C 0.791 0.55335 0.01532 0.0
C240 C 0.79215 0.54463 0.05175 0.0
C241 C 0.79076 0.52605 0.05415 0.0
C242 C 0.78822 0.51607 0.01976 0.0
C243 C 0.7877 0.5246 0.98392 0.0
C244 C 0.78553 0.51174 0.95042 0.0
C245 C 0.78457 0.49412 0.97218 0.0
C246 C 0.78592 0.4968 0.01278 0.0
C247 C 0.80234 0.51297 0.92417 0.0
C248 C 0.76783 0.51616 0.92917 0.0
H249 H 0.77678 0.42558 0.03477 0.0
H250 H 0.77922 0.46313 0.1545 0.0
H251 H 0.75517 0.48551 0.09347 0.0
H252 H 0.76626 0.50594 0.0866 0.0
H253 H 0.7689 0.49418 0.13211 0.0
H254 H 0.81154 0.47597 0.10222 0.0
H255 H 0.80071 0.49264 0.13139 0.0
H256 H 0.80928 0.49757 0.08311 0.0
H257 H 0.77261 0.42698 0.88868 0.0
H258 H 0.77726 0.47451 0.8178 0.0
H259 H 0.78203 0.49223 0.87607 0.0
H260 H 0.80513 0.43602 0.94751 0.0
H261 H 0.78974 0.4181 0.95589 0.0
H262 H 0.7986 0.4312 0.99578 0.0
H263 H 0.74844 0.44427 0.95382 0.0
H264 H 0.7554 0.43737 0.00046 0.0
H265 H 0.7584 0.42266 0.95922 0.0
H266 H 0.77252 0.41196 0.09798 0.0
C267 C 0.77744 0.43412 0.05994 0.0
C268 C 0.04703 0.28032 0.37846 0.0
C269 C 0.06556 0.27743 0.37716 0.0
C270 C 0.07532 0.27766 0.41248 0.0
C271 C 0.04829 0.28298 0.44934 0.0
C272 C 0.03871 0.28309 0.41475 0.0
C273 C 0.01911 0.286 0.42163 0.0
H274 H 0.95099 0.29674 0.54965 0.0
C275 C 0.03566 0.28557 0.48201 0.0
C276 C 0.01854 0.28747 0.46602 0.0
H277 H 0.94839 0.29315 0.42322 0.0
H278 H 0.98037 0.29106 0.41994 0.0
H279 H 0.97798 0.2654 0.55923 0.0
H280 H 0.98644 0.32213 0.55453 0.0
H281 H -0.00015 0.31353 0.59236 0.0
H282 H 0.97596 0.31123 0.5953 0.0
H283 H 0.97301 0.27967 0.59998 0.0
H284 H 0.99491 0.27025 0.593 0.0
C285 C 0.00896 0.26934 0.40656 0.0
C286 C 0.01368 0.30369 0.40152 0.0
C287 C 0.05796 0.28186 0.62207 0.0
C288 C 0.04935 0.28245 0.65863 0.0
C289 C 0.0309 0.286 0.65995 0.0
C290 C 0.02115 0.28857 0.62535 0.0
C291 C 0.02988 0.28741 0.58898 0.0
C292 C 0.04803 0.28431 0.58785 0.0
C293 C 0.05506 0.28312 0.5467 0.0
C294 C 0.0381 0.28581 0.52324 0.0
C295 C 0.02341 0.28829 0.54811 0.0
C296 C 0.06299 0.26421 0.54079 0.0
C297 C 0.06849 0.29857 0.54049 0.0
C298 C 0.95726 0.29544 0.52122 0.0
C299 C 0.94703 0.29511 0.48668 0.0
C300 C 0.95588 0.2937 0.45031 0.0
C301 C 0.97449 0.29231 0.44845 0.0
C302 C 0.98444 0.29217 0.48331 0.0
C303 C 0.97581 0.29383 0.51888 0.0
C304 C 0.98844 0.29282 0.55299 0.0
C305 C 0.00609 0.29037 0.53202 0.0
C306 C 0.00368 0.29 0.49121 0.0
C307 C 0.98337 0.2763 0.57795 0.0
C308 C 0.98764 0.31077 0.57534 0.0
H309 H 0.07501 0.28029 0.47415 0.0
H310 H 0.03915 0.28037 0.35188 0.0
H311 H 0.02445 0.31381 0.40432 0.0
H312 H 0.00186 0.30996 0.41504 0.0
H313 H 0.01111 0.30165 0.36979 0.0
H314 H 0.01686 0.257 0.41165 0.0
H315 H 0.00633 0.2703 0.37461 0.0
H316 H 0.99626 0.26702 0.42204 0.0
H317 H 0.07206 0.27888 0.61997 0.0
H318 H 0.024 0.28667 0.68779 0.0
H319 H 0.00713 0.29109 0.62826 0.0
H320 H 0.05503 0.25405 0.55687 0.0
H321 H 0.0769 0.26348 0.55185 0.0
H322 H 0.06275 0.25974 0.51 0.0
H323 H 0.06456 0.31056 0.55764 0.0
H324 H 0.069 0.30322 0.50979 0.0
H325 H 0.08211 0.29469 0.55002 0.0
H326 H 0.08955 0.2752 0.41249 0.0
C327 C 0.06682 0.28047 0.44841 0.0
C328 C 0.72852 0.95367 0.61883 0.0
C329 C 0.73247 0.93533 0.62 0.0
C330 C 0.73028 0.92512 0.58559 0.0
C331 C 0.72177 0.95152 0.54943 0.0
C332 C 0.72314 0.96143 0.58342 0.0
C333 C 0.7186 0.98074 0.57693 0.0
H334 H 0.70449 0.04819 0.45017 0.0
C335 C 0.71689 0.96372 0.51725 0.0
C336 C 0.71481 0.98083 0.53319 0.0
H337 H 0.70565 0.0503 0.57692 0.0
H338 H 0.70862 0.0184 0.57962 0.0
H339 H 0.73471 0.01864 0.4382 0.0
H340 H 0.67757 0.01458 0.44716 0.0
H341 H 0.68443 0.99864 0.41263 0.0
H342 H 0.68827 0.02202 0.40309 0.0
H343 H 0.71976 0.02706 0.40153 0.0
H344 H 0.72708 0.00424 0.40109 0.0
C345 C 0.73525 0.992 0.58739 0.0
C346 C 0.70177 0.9853 0.60137 0.0
C347 C 0.71664 0.94077 0.37753 0.0
C348 C 0.71407 0.94899 0.34094 0.0
C349 C 0.70964 0.96727 0.33984 0.0
C350 C 0.70817 0.97721 0.37454 0.0
C351 C 0.71126 0.96884 0.41077 0.0
C352 C 0.71514 0.95085 0.41179 0.0
C353 C 0.71808 0.94412 0.45271 0.0
C354 C 0.71534 0.96105 0.47623 0.0
C355 C 0.71151 0.97552 0.45153 0.0
C356 C 0.73753 0.9372 0.45546 0.0
C357 C 0.70363 0.92993 0.46185 0.0
C358 C 0.70512 0.04183 0.47859 0.0
C359 C 0.70522 0.05196 0.51335 0.0
C360 C 0.7061 0.04296 0.54961 0.0
C361 C 0.70772 0.02439 0.55119 0.0
C362 C 0.70841 0.01459 0.51619 0.0
C363 C 0.70657 0.02325 0.48073 0.0
C364 C 0.70675 0.01051 0.44666 0.0
C365 C 0.70944 0.99286 0.46758 0.0
C366 C 0.71073 0.99541 0.50824 0.0
C367 C 0.72281 0.01531 0.42015 0.0
C368 C 0.6884 0.01148 0.42593 0.0
H369 H 0.72378 0.92461 0.52529 0.0
H370 H 0.72999 0.96194 0.64464 0.0
H371 H 0.69352 0.97324 0.60706 0.0
H372 H 0.6927 0.99455 0.58587 0.0
H373 H 0.7054 0.99111 0.63022 0.0
H374 H 0.74748 0.98586 0.57482 0.0
H375 H 0.73704 0.99284 0.61964 0.0
H376 H 0.7348 0.00565 0.57556 0.0
H377 H 0.72037 0.92685 0.37958 0.0
H378 H 0.70739 0.9739 0.31211 0.0
H379 H 0.70495 0.99109 0.37177 0.0
H380 H 0.74674 0.946 0.43875 0.0
H381 H 0.73869 0.92355 0.44308 0.0
H382 H 0.74283 0.93712 0.48556 0.0
H383 H 0.69105 0.93276 0.4457 0.0
H384 H 0.69967 0.92984 0.49306 0.0
H385 H 0.70812 0.91638 0.45326 0.0
H386 H 0.73267 0.91088 0.58578 0.0
C387 C 0.72498 0.93309 0.55044 0.0
C388 C 0.54538 0.2182 0.12213 0.0
C389 C 0.56387 0.2212 0.12407 0.0
C390 C 0.57397 0.22076 0.08925 0.0
C391 C 0.54726 0.21537 0.05136 0.0
C392 C 0.53739 0.21524 0.08556 0.0
C393 C 0.51789 0.212 0.07792 0.0
H394 H 0.45046 0.20547 0.94727 0.0
C395 C 0.53491 0.21289 0.01817 0.0
C396 C 0.51768 0.21075 0.03347 0.0
H397 H 0.44752 0.20177 0.07363 0.0
H398 H 0.4795 0.2043 0.07789 0.0
H399 H 0.47926 0.23594 0.94313 0.0
H400 H 0.48445 0.1788 0.93914 0.0
H401 H 0.49946 0.1876 0.90472 0.0
H402 H 0.47586 0.19143 0.8987 0.0
H403 H 0.47253 0.223 0.90144 0.0
H404 H 0.49509 0.23087 0.9069 0.0
C405 C 0.50737 0.2284 0.09297 0.0
C406 C 0.51255 0.19413 0.09748 0.0
C407 C 0.55828 0.21838 0.87924 0.0
C408 C 0.54996 0.21837 0.84235 0.0
C409 C 0.53144 0.21533 0.84016 0.0
C410 C 0.52135 0.21259 0.87424 0.0
C411 C 0.52984 0.21303 0.91097 0.0
C412 C 0.54803 0.21574 0.91293 0.0
C413 C 0.55477 0.21626 0.95436 0.0
C414 C 0.53763 0.21336 0.97704 0.0
C415 C 0.52308 0.21152 0.95153 0.0
C416 C 0.56281 0.23502 0.96181 0.0
C417 C 0.56803 0.20062 0.95996 0.0
C418 C 0.45666 0.20491 0.97588 0.0
C419 C 0.44634 0.2036 0.01016 0.0
C420 C 0.45508 0.20314 0.04676 0.0
C421 C 0.47367 0.20453 0.0492 0.0
C422 C 0.48371 0.20638 0.01472 0.0
C423 C 0.47522 0.20617 0.97882 0.0
C424 C 0.48805 0.20788 0.94522 0.0
C425 C 0.50564 0.20927 0.96689 0.0
C426 C 0.503 0.20863 0.00761 0.0
C427 C 0.48355 0.22523 0.92262 0.0
C428 C 0.48691 0.19064 0.92028 0.0
H429 H 0.57421 0.2179 0.02764 0.0
H430 H 0.53731 0.21823 0.14844 0.0
H431 H 0.52405 0.18479 0.09895 0.0
H432 H 0.50228 0.18682 0.08065 0.0
H433 H 0.50772 0.19626 0.12789 0.0
H434 H 0.51426 0.24097 0.08457 0.0
H435 H 0.50624 0.22818 0.12541 0.0
H436 H 0.49387 0.22945 0.08043 0.0
H437 H 0.57243 0.22099 0.88203 0.0
H438 H 0.52474 0.21512 0.81205 0.0
H439 H 0.5073 0.21047 0.87068 0.0
H440 H 0.5551 0.24546 0.946 0.0
H441 H 0.57683 0.23576 0.95144 0.0
H442 H 0.5623 0.23912 0.99283 0.0
H443 H 0.56411 0.18891 0.94188 0.0
H444 H 0.56829 0.19554 0.99034 0.0
H445 H 0.58175 0.20451 0.95113 0.0
H446 H 0.5882 0.2232 0.08986 0.0
C447 C 0.56579 0.21782 0.05302 0.0
C448 C 0.27367 0.04593 0.37788 0.0
C449 C 0.26813 0.06384 0.37812 0.0
C450 C 0.26713 0.07306 0.41399 0.0
C451 C 0.27578 0.04638 0.44888 0.0
C452 C 0.27728 0.03744 0.41362 0.0
C453 C 0.2822 0.01814 0.41929 0.0
H454 H 0.29197 0.94826 0.54242 0.0
C455 C 0.27911 0.03354 0.48074 0.0
C456 C 0.28286 0.01695 0.46376 0.0
H457 H 0.29841 0.94901 0.41638 0.0
H458 H 0.29341 0.98072 0.41579 0.0
H459 H 0.316 0.98467 0.55636 0.0
H460 H 0.25948 0.97477 0.54809 0.0
H461 H 0.26301 0.99 0.58645 0.0
H462 H 0.2724 0.96792 0.58973 0.0
H463 H 0.30384 0.97308 0.59382 0.0
H464 H 0.30527 0.99707 0.59316 0.0
C465 C 0.30074 0.01493 0.4005 0.0
C466 C 0.26705 0.00656 0.40184 0.0
C467 C 0.2728 0.05405 0.62133 0.0
C468 C 0.27315 0.0452 0.65752 0.0
C469 C 0.27621 0.02667 0.65834 0.0
C470 C 0.27911 0.01716 0.62341 0.0
C471 C 0.2787 0.02627 0.58734 0.0
C472 C 0.27548 0.0444 0.58689 0.0
C473 C 0.27448 0.05185 0.54617 0.0
C474 C 0.27815 0.03531 0.52205 0.0
C475 C 0.28067 0.02036 0.54617 0.0
C476 C 0.28949 0.0659 0.54156 0.0
C477 C 0.25533 0.05917 0.53958 0.0
C478 C 0.29258 0.95523 0.51469 0.0
C479 C 0.29536 0.94596 0.47933 0.0
C480 C 0.29587 0.95568 0.44397 0.0
C481 C 0.29305 0.97414 0.44366 0.0
C482 C 0.2897 0.98306 0.47907 0.0
C483 C 0.28995 0.9737 0.51389 0.0
C484 C 0.28683 0.98555 0.54881 0.0
C485 C 0.28438 0.00351 0.52908 0.0
C486 C 0.28582 0.0019 0.48816 0.0
C487 C 0.30376 0.98507 0.57475 0.0
C488 C 0.26962 0.97927 0.56974 0.0
H489 H 0.26982 0.07222 0.47554 0.0
H490 H 0.27451 0.03854 0.35068 0.0
H491 H 0.25379 0.01209 0.40999 0.0
H492 H 0.26703 0.99274 0.41278 0.0
H493 H 0.26783 0.00622 0.36935 0.0
H494 H 0.30898 0.02727 0.40095 0.0
H495 H 0.29948 0.01064 0.36948 0.0
H496 H 0.30874 0.005 0.41676 0.0
H497 H 0.26998 0.0682 0.61971 0.0
H498 H 0.27644 0.01959 0.68599 0.0
H499 H 0.28139 0.00307 0.62579 0.0
H500 H 0.30191 0.06135 0.55634 0.0
H501 H 0.28557 0.07883 0.55489 0.0
H502 H 0.29334 0.06816 0.51074 0.0
H503 H 0.24545 0.05243 0.55889 0.0
H504 H 0.25033 0.05666 0.5096 0.0
H505 H 0.2546 0.07368 0.54584 0.0
H506 H 0.26319 0.08696 0.41473 0.0
C507 C 0.271 0.06448 0.44927 0.0
C508 C 0.54292 0.79101 0.01326 0.0
C509 C 0.5534 0.7915 0.97908 0.0
C510 C 0.54499 0.79013 0.94229 0.0
C511 C 0.51627 0.78708 0.97388 0.0
C512 C 0.52444 0.78879 0.00997 0.0
C513 C 0.51133 0.78745 0.04325 0.0
H514 H 0.42618 0.77456 0.10307 0.0
C515 C 0.49701 0.7845 0.9805 0.0
C516 C 0.49397 0.78484 0.02109 0.0
H517 H 0.47299 0.78117 0.17546 0.0
H518 H 0.4912 0.78498 0.11747 0.0
H519 H 0.43543 0.80548 0.04058 0.0
H520 H 0.44418 0.74882 0.04269 0.0
H521 H 0.4375 0.75427 0.99495 0.0
H522 H 0.42256 0.75848 0.03522 0.0
H523 H 0.41779 0.78976 0.03235 0.0
H524 H 0.43162 0.79774 0.99275 0.0
C525 C 0.5116 0.8053 0.06603 0.0
C526 C 0.51625 0.77091 0.06823 0.0
C527 C 0.45606 0.77286 0.8647 0.0
C528 C 0.43759 0.77004 0.86175 0.0
C529 C 0.42701 0.77101 0.89581 0.0
C530 C 0.43475 0.77433 0.9324 0.0
C531 C 0.45329 0.7767 0.93507 0.0
C532 C 0.46357 0.77627 0.9015 0.0
C533 C 0.48296 0.77963 0.90991 0.0
C534 C 0.48265 0.78168 0.95417 0.0
C535 C 0.46527 0.77978 0.96871 0.0
C536 C 0.48851 0.79715 0.88906 0.0
C537 C 0.49362 0.76294 0.89695 0.0
C538 C 0.4403 0.77716 0.10651 0.0
C539 C 0.44815 0.77772 0.14384 0.0
C540 C 0.46666 0.78065 0.14695 0.0
C541 C 0.47719 0.78286 0.11327 0.0
C542 C 0.46914 0.78193 0.07608 0.0
C543 C 0.45098 0.77919 0.07327 0.0
C544 C 0.44472 0.77783 0.0316 0.0
C545 C 0.46212 0.7802 0.00969 0.0
C546 C 0.47639 0.78266 0.03579 0.0
C547 C 0.43159 0.79338 0.02367 0.0
C548 C 0.43669 0.75896 0.02552 0.0
H549 H 0.52096 0.78688 0.91068 0.0
H550 H 0.54901 0.79187 0.04197 0.0
H551 H 0.52176 0.76007 0.04957 0.0
H552 H 0.50461 0.76487 0.0829 0.0
H553 H 0.52647 0.77428 0.09059 0.0
H554 H 0.51256 0.81677 0.04548 0.0
H555 H 0.52322 0.80595 0.08613 0.0
H556 H 0.4993 0.80764 0.08302 0.0
H557 H 0.46447 0.77247 0.83892 0.0
H558 H 0.41276 0.76877 0.89427 0.0
H559 H 0.42601 0.77468 0.95725 0.0
H560 H 0.477 0.8064 0.88592 0.0
H561 H 0.49379 0.79447 0.85923 0.0
H562 H 0.49849 0.80485 0.90588 0.0
H563 H 0.48632 0.75053 0.90485 0.0
H564 H 0.50669 0.76175 0.9115 0.0
H565 H 0.49568 0.76285 0.86472 0.0
H566 H 0.55273 0.79075 0.91554 0.0
C567 C 0.52651 0.78795 0.93952 0.0
H568 H 0.18375 0.24363 0.12569 0.0
H569 H 0.16167 0.25337 0.17317 0.0
H570 H 0.12301 0.21745 0.123 0.0
H571 H 0.14515 0.20755 0.0747 0.0
H572 H 0.10865 0.25092 0.1417 0.0
H573 H 0.14219 0.20522 0.20493 0.0
H574 H 0.1688 0.18898 0.22776 0.0
H575 H 0.18531 0.23475 0.29408 0.0
H576 H 0.15887 0.25134 0.27133 0.0
H577 H 0.05408 0.25593 0.31723 0.0
H578 H 0.07097 0.24664 0.25929 0.0
H579 H 0.1148 0.28012 0.29497 0.0
H580 H 0.09794 0.28974 0.35239 0.0
H581 H 0.12454 0.2452 0.28223 0.0
H582 H 0.0908 0.29106 0.21686 0.0
H583 H 0.06341 0.30642 0.19561 0.0
H584 H 0.0465 0.25936 0.13432 0.0
H585 H 0.0737 0.24362 0.15568 0.0
C586 C 0.17057 0.23776 0.12446 0.0
C587 C 0.16632 0.22463 0.09652 0.0
C588 C 0.15795 0.24336 0.15175 0.0
C589 C 0.14081 0.23593 0.15196 0.0
C590 C 0.13622 0.22328 0.12338 0.0
C591 C 0.1489 0.21761 0.09592 0.0
C592 C 0.12804 0.24115 0.183 0.0
C593 C 0.11194 0.24941 0.17246 0.0
C594 C 0.13248 0.23935 0.22307 0.0
C595 C 0.14861 0.22956 0.23617 0.0
C596 C 0.15158 0.21189 0.22406 0.0
C597 C 0.16662 0.20261 0.23707 0.0
C598 C 0.17875 0.21084 0.26231 0.0
C599 C 0.1759 0.22839 0.27452 0.0
C600 C 0.16088 0.23773 0.26163 0.0
C601 C 0.06714 0.26165 0.31223 0.0
C602 C 0.07475 0.27343 0.33964 0.0
C603 C 0.07678 0.25629 0.27916 0.0
C604 C 0.09415 0.26265 0.27299 0.0
C605 C 0.10146 0.27497 0.29939 0.0
C606 C 0.09184 0.28038 0.33227 0.0
C607 C 0.10536 0.2554 0.24103 0.0
C608 C 0.12117 0.24664 0.25148 0.0
C609 C 0.10055 0.25666 0.20106 0.0
C610 C 0.08418 0.26609 0.18827 0.0
C611 C 0.08116 0.28392 0.19918 0.0
C612 C 0.06569 0.29272 0.18704 0.0
C613 C 0.05319 0.28386 0.16374 0.0
C614 C 0.05617 0.2662 0.15244 0.0
C615 C 0.07162 0.25734 0.16453 0.0
H616 H 0.04123 0.29069 0.15435 0.0
H617 H 0.19032 0.20361 0.27259 0.0
H618 H 0.25878 0.68059 0.62305 0.0
H619 H 0.25029 0.65722 0.66863 0.0
H620 H 0.28378 0.61978 0.60704 0.0
H621 H 0.29271 0.64331 0.56131 0.0
H622 H 0.2338 0.6262 0.66179 0.0
H623 H 0.30169 0.59126 0.6764 0.0
H624 H 0.33369 0.59773 0.66719 0.0
H625 H 0.3242 0.65313 0.69112 0.0
H626 H 0.29224 0.64695 0.70103 0.0
H627 H 0.22052 0.55615 0.7992 0.0
H628 H 0.23001 0.57132 0.73928 0.0
H629 H 0.26427 0.60562 0.80734 0.0
H630 H 0.25568 0.58993 0.86682 0.0
H631 H 0.28044 0.59708 0.7425 0.0
H632 H 0.22147 0.61827 0.77729 0.0
H633 H 0.18939 0.61502 0.79156 0.0
H634 H 0.18088 0.59245 0.67744 0.0
H635 H 0.21297 0.59538 0.6627 0.0
C636 C 0.26436 0.6674 0.61894 0.0
C637 C 0.27659 0.66391 0.58864 0.0
C638 C 0.25937 0.654 0.64497 0.0
C639 C 0.26648 0.6368 0.64141 0.0
C640 C 0.27829 0.63304 0.61055 0.0
C641 C 0.28335 0.6465 0.58443 0.0
C642 C 0.26203 0.62321 0.67138 0.0
C643 C 0.244 0.61966 0.67915 0.0
C644 C 0.27532 0.61482 0.69427 0.0
C645 C 0.29456 0.61867 0.68891 0.0
C646 C 0.30646 0.60481 0.67978 0.0
C647 C 0.32459 0.60843 0.67446 0.0
C648 C 0.33097 0.62584 0.67842 0.0
C649 C 0.31925 0.63967 0.68792 0.0
C650 C 0.30112 0.63611 0.69335 0.0
C651 C 0.23031 0.56672 0.80132 0.0
C652 C 0.23717 0.57197 0.83793 0.0
C653 C 0.2356 0.57547 0.76707 0.0
C654 C 0.24766 0.58978 0.76887 0.0
C655 C 0.25492 0.59465 0.80519 0.0
C656 C 0.24979 0.58582 0.8393 0.0
C657 C 0.25219 0.60036 0.73351 0.0
C658 C 0.27023 0.60329 0.7246 0.0
C659 C 0.2389 0.60858 0.71026 0.0
C660 C 0.21963 0.60683 0.71909 0.0
C661 C 0.21277 0.61249 0.75537 0.0
C662 C 0.19459 0.61073 0.76352 0.0
C663 C 0.18312 0.60347 0.73547 0.0
C664 C 0.18979 0.59802 0.69917 0.0
C665 C 0.20797 0.59973 0.6909 0.0
H666 H 0.16905 0.60213 0.74183 0.0
H667 H 0.345 0.62862 0.67421 0.0
H668 H 0.81627 0.75279 0.12457 0.0
H669 H 0.83833 0.74205 0.17106 0.0
H670 H 0.87393 0.78463 0.13815 0.0
H671 H 0.85186 0.79553 0.09079 0.0
H672 H 0.89137 0.7517 0.14897 0.0
H673 H 0.85084 0.7895 0.21885 0.0
H674 H 0.8213 0.80049 0.23941 0.0
H675 H 0.80921 0.74943 0.28968 0.0
H676 H 0.83859 0.73805 0.2689 0.0
H677 H 0.94368 0.74309 0.325 0.0
H678 H 0.92651 0.75295 0.268 0.0
H679 H 0.88471 0.7158 0.29773 0.0
H680 H 0.90172 0.70607 0.35491 0.0
H681 H 0.87167 0.74811 0.28751 0.0
H682 H 0.912 0.71002 0.21672 0.0
H683 H 0.94139 0.69886 0.19555 0.0
H684 H 0.954 0.75017 0.14721 0.0
H685 H 0.92477 0.76172 0.16858 0.0
C686 C 0.82878 0.75993 0.12697 0.0
C687 C 0.83217 0.77522 0.10428 0.0
C688 C 0.84139 0.75372 0.15359 0.0
C689 C 0.85762 0.76271 0.15844 0.0
C690 C 0.86143 0.77756 0.13486 0.0
C691 C 0.84878 0.78379 0.10797 0.0
C692 C 0.87007 0.75697 0.18963 0.0
C693 C 0.88722 0.75114 0.17939 0.0
C694 C 0.86448 0.75602 0.22914 0.0
C695 C 0.84687 0.76289 0.24205 0.0
C696 C 0.84184 0.78058 0.23406 0.0
C697 C 0.82513 0.78689 0.24578 0.0
C698 C 0.81337 0.77566 0.26577 0.0
C699 C 0.81833 0.75811 0.27417 0.0
C700 C 0.83501 0.75173 0.26247 0.0
C701 C 0.931 0.73677 0.31883 0.0
C702 C 0.92396 0.7239 0.34447 0.0
C703 C 0.92121 0.74241 0.28627 0.0
C704 C 0.90433 0.7351 0.27857 0.0
C705 C 0.89766 0.72169 0.30324 0.0
C706 C 0.90737 0.71615 0.33589 0.0
C707 C 0.89292 0.74237 0.24691 0.0
C708 C 0.87592 0.74865 0.25715 0.0
C709 C 0.8987 0.74371 0.20753 0.0
C710 C 0.91627 0.73678 0.19463 0.0
C711 C 0.9211 0.71897 0.20188 0.0
C712 C 0.93772 0.71256 0.18978 0.0
C713 C 0.94957 0.72381 0.17015 0.0
C714 C 0.94482 0.74148 0.16247 0.0
C715 C 0.92822 0.74796 0.17454 0.0
H716 H 0.96243 0.71883 0.1608 0.0
H717 H 0.80044 0.78057 0.27482 0.0
H718 H 0.70591 0.35467 0.56804 0.0
H719 H 0.71611 0.37884 0.61083 0.0
H720 H 0.75017 0.34197 0.67242 0.0
H721 H 0.74002 0.31782 0.63044 0.0
H722 H 0.73151 0.36212 0.72234 0.0
H723 H 0.76728 0.37132 0.60718 0.0
H724 H 0.7724 0.37613 0.53665 0.0
H725 H 0.74257 0.42494 0.54164 0.0
H726 H 0.73706 0.42029 0.6122 0.0
H727 H 0.78826 0.41669 0.82986 0.0
H728 H 0.77866 0.39692 0.77704 0.0
H729 H 0.74292 0.43754 0.73441 0.0
H730 H 0.75235 0.45742 0.78757 0.0
H731 H 0.76043 0.41737 0.67364 0.0
H732 H 0.72591 0.40809 0.79073 0.0
H733 H 0.72202 0.40296 0.86156 0.0
H734 H 0.75056 0.35351 0.85244 0.0
H735 H 0.7549 0.3585 0.78163 0.0
C736 C 0.71558 0.35171 0.59069 0.0
C737 C 0.7221 0.33426 0.5958 0.0
C738 C 0.72145 0.36555 0.61498 0.0
C739 C 0.73397 0.3622 0.64464 0.0
C740 C 0.74048 0.34484 0.64976 0.0
C741 C 0.73465 0.33104 0.6256 0.0
C742 C 0.74011 0.37658 0.6712 0.0
C743 C 0.73796 0.37412 0.71164 0.0
C744 C 0.74815 0.39243 0.65718 0.0
C745 C 0.75158 0.39535 0.61487 0.0
C746 C 0.76169 0.38301 0.59318 0.0
C747 C 0.76468 0.38572 0.5532 0.0
C748 C 0.75776 0.4008 0.53462 0.0
C749 C 0.74789 0.41325 0.55605 0.0
C750 C 0.74484 0.41059 0.59605 0.0
C751 C 0.77847 0.42148 0.80905 0.0
C752 C 0.77085 0.4385 0.81321 0.0
C753 C 0.77308 0.41022 0.7788 0.0
C754 C 0.75991 0.41571 0.75224 0.0
C755 C 0.7531 0.43309 0.75467 0.0
C756 C 0.75851 0.44441 0.78501 0.0
C757 C 0.75211 0.40265 0.72461 0.0
C758 C 0.75387 0.4054 0.68414 0.0
C759 C 0.74377 0.38697 0.73851 0.0
C760 C 0.74085 0.38374 0.78094 0.0
C761 C 0.73145 0.39617 0.80387 0.0
C762 C 0.72916 0.39329 0.84401 0.0
C763 C 0.73607 0.37793 0.8615 0.0
C764 C 0.74523 0.3654 0.83885 0.0
C765 C 0.7476 0.36825 0.79871 0.0
H766 H 0.73429 0.37573 0.89259 0.0
H767 H 0.76008 0.40287 0.50366 0.0
H768 H 0.68042 0.25344 0.3782 0.0
H769 H 0.65771 0.2438 0.33208 0.0
H770 H 0.62237 0.28508 0.37334 0.0
H771 H 0.64515 0.29488 0.42035 0.0
H772 H 0.60499 0.25209 0.35855 0.0
H773 H 0.64357 0.29279 0.29235 0.0
H774 H 0.67245 0.30542 0.27188 0.0
H775 H 0.68562 0.25646 0.2134 0.0
H776 H 0.65692 0.24343 0.23404 0.0
H777 H 0.55242 0.24426 0.18092 0.0
H778 H 0.56907 0.25444 0.23852 0.0
H779 H 0.61196 0.21851 0.20922 0.0
H780 H 0.59541 0.20828 0.15185 0.0
H781 H 0.62351 0.25226 0.21898 0.0
H782 H 0.58531 0.21115 0.28819 0.0
H783 H 0.55646 0.19861 0.30918 0.0
H784 H 0.5422 0.24873 0.36136 0.0
H785 H 0.57089 0.26164 0.3402 0.0
C786 C 0.66783 0.2605 0.37776 0.0
C787 C 0.66473 0.27514 0.40264 0.0
C788 C 0.65484 0.25492 0.35136 0.0
C789 C 0.6385 0.26392 0.34889 0.0
C790 C 0.63496 0.27803 0.37476 0.0
C791 C 0.648 0.28364 0.40146 0.0
C792 C 0.62574 0.25898 0.31766 0.0
C793 C 0.60886 0.25239 0.32794 0.0
C794 C 0.63092 0.25924 0.27783 0.0
C795 C 0.64814 0.26709 0.26499 0.0
C796 C 0.65268 0.28467 0.27536 0.0
C797 C 0.66901 0.29191 0.26369 0.0
C798 C 0.68088 0.28174 0.24141 0.0
C799 C 0.67642 0.26432 0.23068 0.0
C800 C 0.66011 0.25701 0.24231 0.0
C801 C 0.56522 0.23825 0.18731 0.0
C802 C 0.57271 0.22559 0.16171 0.0
C803 C 0.57472 0.24409 0.22017 0.0
C804 C 0.59177 0.23726 0.22805 0.0
C805 C 0.59888 0.22404 0.20349 0.0
C806 C 0.58944 0.21824 0.17071 0.0
C807 C 0.60292 0.2448 0.25982 0.0
C808 C 0.61951 0.25204 0.24953 0.0
C809 C 0.59739 0.24518 0.29946 0.0
C810 C 0.58016 0.23742 0.31221 0.0
C811 C 0.57595 0.21955 0.30382 0.0
C812 C 0.55965 0.21236 0.31582 0.0
C813 C 0.54748 0.22288 0.33648 0.0
C814 C 0.55162 0.2406 0.34529 0.0
C815 C 0.56791 0.24786 0.33333 0.0
H816 H 0.53486 0.2173 0.34576 0.0
H817 H 0.69352 0.28737 0.23242 0.0
H818 H 0.24273 0.17626 0.87693 0.0
H819 H 0.25234 0.15118 0.83704 0.0
H820 H 0.21047 0.11864 0.88588 0.0
H821 H 0.20083 0.14375 0.9268 0.0
H822 H 0.24195 0.10003 0.87831 0.0
H823 H 0.2049 0.13615 0.79686 0.0
H824 H 0.19421 0.164 0.76651 0.0
H825 H 0.24502 0.17127 0.71078 0.0
H826 H 0.2561 0.14359 0.74126 0.0
H827 H 0.24957 0.03739 0.71625 0.0
H828 H 0.23994 0.05738 0.76917 0.0
H829 H 0.27889 0.09626 0.73235 0.0
H830 H 0.28842 0.07645 0.67956 0.0
H831 H 0.24579 0.11001 0.73491 0.0
H832 H 0.28303 0.07403 0.81886 0.0
H833 H 0.29329 0.04604 0.84925 0.0
H834 H 0.2414 0.03794 0.89934 0.0
H835 H 0.23076 0.06578 0.86878 0.0
C836 C 0.2355 0.16381 0.87933 0.0
C837 C 0.22083 0.16212 0.90475 0.0
C838 C 0.24104 0.14946 0.85646 0.0
C839 C 0.23193 0.13314 0.85801 0.0
C840 C 0.21763 0.13115 0.88416 0.0
C841 C 0.2121 0.14554 0.90737 0.0
C842 C 0.23713 0.1185 0.83118 0.0
C843 C 0.24254 0.10207 0.84688 0.0
C844 C 0.23803 0.12126 0.79023 0.0
C845 C 0.23137 0.13786 0.77159 0.0
C846 C 0.21383 0.14375 0.77835 0.0
C847 C 0.2077 0.1595 0.76109 0.0
C848 C 0.21894 0.16941 0.73679 0.0
C849 C 0.23633 0.16358 0.72963 0.0
C850 C 0.24254 0.14785 0.74685 0.0
C851 C 0.25636 0.05001 0.72022 0.0
C852 C 0.2696 0.05549 0.69369 0.0
C853 C 0.25085 0.06141 0.75037 0.0
C854 C 0.25864 0.07835 0.75451 0.0
C855 C 0.27261 0.08331 0.72947 0.0
C856 C 0.27804 0.072 0.69937 0.0
C857 C 0.25118 0.09169 0.78204 0.0
C858 C 0.24516 0.10789 0.76632 0.0
C859 C 0.24965 0.08861 0.82279 0.0
C860 C 0.25605 0.07189 0.84116 0.0
C861 C 0.27376 0.0662 0.83605 0.0
C862 C 0.27965 0.05037 0.85337 0.0
C863 C 0.26799 0.04018 0.87611 0.0
C864 C 0.25042 0.04583 0.88166 0.0
C865 C 0.24445 0.06163 0.86437 0.0
H866 H 0.27258 0.02794 0.88951 0.0
H867 H 0.21417 0.1816 0.72347 0.0
H868 H 0.31705 0.74329 0.36655 0.0
H869 H 0.34086 0.75436 0.32477 0.0
H870 H 0.3769 0.71526 0.37277 0.0
H871 H 0.3531 0.70413 0.41546 0.0
H872 H 0.39271 0.74841 0.36444 0.0
H873 H 0.35899 0.7079 0.28515 0.0
H874 H 0.33175 0.69517 0.25594 0.0
H875 H 0.32088 0.74494 0.1986 0.0
H876 H 0.34794 0.75805 0.22794 0.0
H877 H 0.45558 0.75563 0.20545 0.0
H878 H 0.43521 0.74642 0.25773 0.0
H879 H 0.39516 0.78234 0.21303 0.0
H880 H 0.41543 0.79154 0.16077 0.0
H881 H 0.38234 0.7494 0.22092 0.0
H882 H 0.41607 0.79003 0.30056 0.0
H883 H 0.44323 0.80277 0.33007 0.0
H884 H 0.45433 0.75282 0.38642 0.0
H885 H 0.42734 0.7397 0.35679 0.0
C886 C 0.33 0.73695 0.36833 0.0
C887 C 0.33307 0.72264 0.39413 0.0
C888 C 0.34362 0.74333 0.34437 0.0
C889 C 0.36057 0.73546 0.34529 0.0
C890 C 0.36388 0.72147 0.37158 0.0
C891 C 0.35023 0.71508 0.39578 0.0
C892 C 0.37457 0.74164 0.31786 0.0
C893 C 0.3906 0.74841 0.33301 0.0
C894 C 0.37163 0.74189 0.27694 0.0
C895 C 0.35542 0.734 0.259 0.0
C896 C 0.35073 0.71617 0.26653 0.0
C897 C 0.33533 0.70888 0.24992 0.0
C898 C 0.32457 0.71925 0.2255 0.0
C899 C 0.32922 0.73693 0.21756 0.0
C900 C 0.34459 0.74429 0.23413 0.0
C901 C 0.4426 0.76188 0.2074 0.0
C902 C 0.43703 0.7742 0.17889 0.0
C903 C 0.43096 0.75659 0.23724 0.0
C904 C 0.41365 0.76367 0.23922 0.0
C905 C 0.40841 0.77662 0.21189 0.0
C906 C 0.41999 0.78185 0.18205 0.0
C907 C 0.40042 0.75651 0.26742 0.0
C908 C 0.38452 0.74943 0.25235 0.0
C909 C 0.40355 0.75597 0.3083 0.0
C910 C 0.41978 0.76383 0.3261 0.0
C911 C 0.42438 0.78171 0.31895 0.0
C912 C 0.43973 0.78902 0.33577 0.0
C913 C 0.45052 0.7786 0.36001 0.0
C914 C 0.44597 0.76087 0.36758 0.0
C915 C 0.43064 0.7535 0.35081 0.0
H916 H 0.4624 0.78428 0.37302 0.0
H917 H 0.31266 0.71358 0.21267 0.0
H918 H 0.76209 0.81849 0.8705 0.0
H919 H 0.754 0.8418 0.82461 0.0
H920 H 0.78801 0.87896 0.88566 0.0
H921 H 0.79656 0.85542 0.93183 0.0
H922 H 0.73763 0.8725 0.83216 0.0
H923 H 0.80535 0.90782 0.8159 0.0
H924 H 0.83743 0.9014 0.8238 0.0
H925 H 0.8279 0.84603 0.79957 0.0
H926 H 0.79582 0.85216 0.79105 0.0
H927 H 0.72222 0.94204 0.69599 0.0
H928 H 0.7326 0.92715 0.75542 0.0
H929 H 0.76739 0.89395 0.68599 0.0
H930 H 0.75798 0.90949 0.62695 0.0
H931 H 0.78361 0.90214 0.75053 0.0
H932 H 0.72501 0.8801 0.71679 0.0
H933 H 0.69285 0.88265 0.70278 0.0
H934 H 0.68403 0.90508 0.81691 0.0
H935 H 0.7162 0.90286 0.83139 0.0
C936 C 0.76789 0.8316 0.87445 0.0
C937 C 0.78009 0.83502 0.90484 0.0
C938 C 0.76314 0.84496 0.84819 0.0
C939 C 0.77043 0.8621 0.85159 0.0
C940 C 0.78235 0.86576 0.88229 0.0
C941 C 0.7872 0.8523 0.90867 0.0
C942 C 0.76578 0.87574 0.82191 0.0
C943 C 0.74769 0.87916 0.81462 0.0
C944 C 0.7789 0.88425 0.79871 0.0
C945 C 0.79817 0.88043 0.80339 0.0
C946 C 0.81012 0.89429 0.81221 0.0
C947 C 0.8283 0.8907 0.81678 0.0
C948 C 0.83469 0.87331 0.81235 0.0
C949 C 0.82292 0.85948 0.80316 0.0
C950 C 0.80474 0.863 0.79851 0.0
C951 C 0.73232 0.93181 0.69343 0.0
C952 C 0.73907 0.9268 0.65655 0.0
C953 C 0.73814 0.9232 0.72743 0.0
C954 C 0.75057 0.90923 0.72513 0.0
C955 C 0.75775 0.90465 0.68854 0.0
C956 C 0.75213 0.91337 0.65468 0.0
C957 C 0.75543 0.89859 0.7602 0.0
C958 C 0.77355 0.89582 0.76864 0.0
C959 C 0.74233 0.89017 0.78364 0.0
C960 C 0.72301 0.89153 0.77497 0.0
C961 C 0.71622 0.8857 0.73877 0.0
C962 C 0.698 0.88706 0.73076 0.0
C963 C 0.68641 0.89408 0.75889 0.0
C964 C 0.69303 0.8997 0.79512 0.0
C965 C 0.71125 0.89838 0.80325 0.0
H966 H 0.6723 0.89512 0.75264 0.0
H967 H 0.84876 0.87055 0.81594 0.0
H968 H 0.85759 0.79374 0.94189 0.0
H969 H 0.88274 0.78277 0.90297 0.0
H970 H 0.84813 0.74481 0.84618 0.0
H971 H 0.82305 0.75548 0.8849 0.0
H972 H 0.87985 0.72989 0.86677 0.0
H973 H 0.85885 0.7832 0.80151 0.0
H974 H 0.85117 0.81514 0.79777 0.0
H975 H 0.90498 0.8291 0.82787 0.0
H976 H 0.9129 0.79722 0.83233 0.0
H977 H 0.91815 0.70881 0.68464 0.0
H978 H 0.90005 0.71861 0.74002 0.0
H979 H 0.94232 0.75378 0.77717 0.0
H980 H 0.96036 0.74436 0.72099 0.0
H981 H 0.91074 0.77077 0.77487 0.0
H982 H 0.93252 0.71672 0.83027 0.0
H983 H 0.93965 0.68466 0.8326 0.0
H984 H 0.88416 0.67179 0.82012 0.0
H985 H 0.87671 0.70378 0.81713 0.0
C986 C 0.85534 0.783 0.92124 0.0
C987 C 0.83825 0.77559 0.91635 0.0
C988 C 0.86972 0.77679 0.899 0.0
C989 C 0.86725 0.76306 0.87156 0.0
C990 C 0.85032 0.75539 0.86726 0.0
C991 C 0.83596 0.76161 0.8893 0.0
C992 C 0.88204 0.75694 0.8462 0.0
C993 C 0.88659 0.73879 0.84656 0.0
C994 C 0.89114 0.76868 0.82067 0.0
C995 C 0.88641 0.78784 0.81774 0.0
C996 C 0.86901 0.79309 0.80765 0.0
C997 C 0.86461 0.81117 0.80535 0.0
C998 C 0.87756 0.82414 0.81271 0.0
C999 C 0.89495 0.81904 0.82226 0.0
C1000 C 0.8994 0.80097 0.82467 0.0
C1001 C 0.92363 0.71856 0.70471 0.0
C1002 C 0.94064 0.72587 0.69839 0.0
C1003 C 0.91335 0.72403 0.73657 0.0
C1004 C 0.91991 0.73681 0.76293 0.0
C1005 C 0.93705 0.74384 0.75725 0.0
C1006 C 0.94738 0.73835 0.72534 0.0
C1007 C 0.90829 0.7436 0.79474 0.0
C1008 C 0.9043 0.76189 0.79559 0.0
C1009 C 0.89966 0.73196 0.82128 0.0
C1010 C 0.90407 0.71268 0.82324 0.0
C1011 C 0.92184 0.70706 0.82775 0.0
C1012 C 0.92594 0.68889 0.82923 0.0
C1013 C 0.91237 0.67619 0.82645 0.0
C1014 C 0.89466 0.68164 0.82226 0.0
C1015 C 0.89049 0.6998 0.82073 0.0
H1016 H 0.91558 0.66213 0.8276 0.0
H1017 H 0.87413 0.83813 0.81092 0.0
H1018 H 0.74439 0.32015 0.37876 0.0
H1019 H 0.75494 0.34455 0.33815 0.0
H1020 H 0.71465 0.37914 0.38668 0.0
H1021 H 0.70375 0.35457 0.42759 0.0
H1022 H 0.71599 0.38096 0.30709 0.0
H1023 H 0.75728 0.38616 0.4114 0.0
H1024 H 0.7787 0.37567 0.46104 0.0
H1025 H 0.81355 0.35683 0.37023 0.0
H1026 H 0.79224 0.36701 0.31998 0.0
H1027 H 0.75373 0.44919 0.18909 0.0
H1028 H 0.74488 0.43404 0.24952 0.0
H1029 H 0.77885 0.38963 0.21989 0.0
H1030 H 0.78804 0.40486 0.15982 0.0
H1031 H 0.77986 0.39792 0.29929 0.0
H1032 H 0.73575 0.38825 0.19704 0.0
H1033 H 0.71394 0.39813 0.14753 0.0
H1034 H 0.68411 0.42552 0.23648 0.0
H1035 H 0.70591 0.41599 0.28644 0.0
C1036 C 0.73774 0.33293 0.38105 0.0
C1037 C 0.72315 0.33536 0.40641 0.0
C1038 C 0.74391 0.34693 0.35798 0.0
C1039 C 0.73574 0.36372 0.35982 0.0
C1040 C 0.7212 0.36629 0.38507 0.0
C1041 C 0.71501 0.35224 0.40839 0.0
C1042 C 0.74192 0.37811 0.33345 0.0
C1043 C 0.72986 0.38504 0.30604 0.0
C1044 C 0.76007 0.38323 0.33183 0.0
C1045 C 0.7731 0.37728 0.36189 0.0
C1046 C 0.76947 0.3797 0.40199 0.0
C1047 C 0.7816 0.37381 0.43025 0.0
C1048 C 0.79746 0.36556 0.4188 0.0
C1049 C 0.80125 0.36323 0.37905 0.0
C1050 C 0.78917 0.36909 0.35065 0.0
C1051 C 0.75961 0.43637 0.19587 0.0
C1052 C 0.77148 0.42813 0.16959 0.0
C1053 C 0.75446 0.4277 0.23027 0.0
C1054 C 0.76108 0.41066 0.23891 0.0
C1055 C 0.77359 0.40278 0.2137 0.0
C1056 C 0.77869 0.41141 0.17925 0.0
C1057 C 0.75401 0.40035 0.27245 0.0
C1058 C 0.76592 0.39418 0.30107 0.0
C1059 C 0.7357 0.39597 0.27532 0.0
C1060 C 0.72256 0.4016 0.24535 0.0
C1061 C 0.72462 0.3965 0.20597 0.0
C1062 C 0.71225 0.40201 0.17784 0.0
C1063 C 0.69768 0.41249 0.18883 0.0
C1064 C 0.69542 0.41744 0.22799 0.0
C1065 C 0.70777 0.41198 0.25623 0.0
H1066 H 0.68812 0.41675 0.16701 0.0
H1067 H 0.80682 0.36099 0.44073 0.0
H1068 H 0.1775 0.24309 0.87404 0.0
H1069 H 0.15234 0.25505 0.83759 0.0
H1070 H 0.11708 0.21784 0.8948 0.0
H1071 H 0.14233 0.20559 0.93158 0.0
H1072 H 0.11175 0.21937 0.8153 0.0
H1073 H 0.11561 0.26054 0.92103 0.0
H1074 H 0.13038 0.28119 0.96695 0.0
H1075 H 0.14562 0.31495 0.8711 0.0
H1076 H 0.13119 0.29437 0.82449 0.0
H1077 H 0.03918 0.26097 0.71936 0.0
H1078 H 0.05747 0.25108 0.77461 0.0
H1079 H 0.10084 0.28401 0.73395 0.0
H1080 H 0.0825 0.29428 0.67925 0.0
H1081 H 0.09833 0.28418 0.81399 0.0
H1082 H 0.09893 0.24084 0.70875 0.0
H1083 H 0.08505 0.2201 0.66169 0.0
H1084 H 0.06213 0.19037 0.75665 0.0
H1085 H 0.07568 0.21111 0.80427 0.0
C1086 C 0.16443 0.23737 0.87899 0.0
C1087 C 0.16197 0.22334 0.90581 0.0
C1088 C 0.15003 0.24435 0.85829 0.0
C1089 C 0.13282 0.23752 0.86396 0.0
C1090 C 0.13027 0.22337 0.89025 0.0
C1091 C 0.1447 0.21639 0.9112 0.0
C1092 C 0.11773 0.24488 0.84116 0.0
C1093 C 0.10851 0.23347 0.81569 0.0
C1094 C 0.11376 0.26333 0.84124 0.0
C1095 C 0.12239 0.27583 0.86921 0.0
C1096 C 0.12222 0.2723 0.90968 0.0
C1097 C 0.13052 0.284 0.93585 0.0
C1098 C 0.13894 0.29935 0.92194 0.0
C1099 C 0.13908 0.30304 0.88183 0.0
C1100 C 0.13082 0.29138 0.85552 0.0
C1101 C 0.05246 0.26644 0.72274 0.0
C1102 C 0.05948 0.27828 0.69478 0.0
C1103 C 0.06292 0.26068 0.75415 0.0
C1104 C 0.08058 0.26662 0.75802 0.0
C1105 C 0.08726 0.27922 0.73143 0.0
C1106 C 0.07683 0.28496 0.70003 0.0
C1107 C 0.09264 0.25871 0.78767 0.0
C1108 C 0.10132 0.27002 0.81428 0.0
C1109 C 0.09618 0.24017 0.7886 0.0
C1110 C 0.08812 0.22765 0.76003 0.0
C1111 C 0.09081 0.22996 0.71957 0.0
C1112 C 0.08303 0.2182 0.69281 0.0
C1113 C 0.07267 0.20396 0.70617 0.0
C1114 C 0.07012 0.20143 0.74634 0.0
C1115 C 0.07785 0.21318 0.77323 0.0
H1116 H 0.06666 0.19486 0.6854 0.0
H1117 H 0.1453 0.30842 0.94224 0.0
H1118 H 0.28914 0.64296 0.42581 0.0
H1119 H 0.27641 0.61827 0.38824 0.0
H1120 H 0.2408 0.65483 0.33008 0.0
H1121 H 0.2532 0.6795 0.36765 0.0
H1122 H 0.22359 0.62486 0.35191 0.0
H1123 H 0.27841 0.63997 0.28526 0.0
H1124 H 0.31084 0.64495 0.28042 0.0
H1125 H 0.32054 0.59095 0.31631 0.0
H1126 H 0.28815 0.58572 0.32186 0.0
H1127 H 0.20137 0.58319 0.17255 0.0
H1128 H 0.21106 0.60182 0.22729 0.0
H1129 H 0.2428 0.55836 0.27186 0.0
H1130 H 0.2334 0.53974 0.21662 0.0
H1131 H 0.26203 0.58847 0.26475 0.0
H1132 H 0.20651 0.57241 0.32205 0.0
H1133 H 0.17401 0.56778 0.32535 0.0
H1134 H 0.16532 0.62366 0.30594 0.0
H1135 H 0.19777 0.6286 0.30191 0.0
C1136 C 0.27862 0.64577 0.40501 0.0
C1137 C 0.2723 0.66327 0.39963 0.0
C1138 C 0.27136 0.63163 0.38356 0.0
C1139 C 0.25774 0.63474 0.3562 0.0
C1140 C 0.25127 0.65213 0.35112 0.0
C1141 C 0.25848 0.66624 0.37251 0.0
C1142 C 0.25041 0.62004 0.33205 0.0
C1143 C 0.23195 0.61695 0.33266 0.0
C1144 C 0.26142 0.6094 0.30783 0.0
C1145 C 0.28088 0.61252 0.30444 0.0
C1146 C 0.28747 0.6292 0.29244 0.0
C1147 C 0.30583 0.63207 0.28951 0.0
C1148 C 0.31774 0.6183 0.29818 0.0
C1149 C 0.3113 0.60162 0.30969 0.0
C1150 C 0.29294 0.59869 0.31272 0.0
C1151 C 0.21022 0.57754 0.19432 0.0
C1152 C 0.21669 0.56005 0.19024 0.0
C1153 C 0.21564 0.58814 0.22575 0.0
C1154 C 0.22759 0.58144 0.25377 0.0
C1155 C 0.23353 0.56375 0.25062 0.0
C1156 C 0.22805 0.5531 0.21923 0.0
C1157 C 0.23513 0.59349 0.28397 0.0
C1158 C 0.25365 0.59613 0.28447 0.0
C1159 C 0.22415 0.60376 0.30904 0.0
C1160 C 0.2046 0.60085 0.31139 0.0
C1161 C 0.19767 0.58369 0.31815 0.0
C1162 C 0.17925 0.58102 0.32022 0.0
C1163 C 0.1676 0.59541 0.31579 0.0
C1164 C 0.17436 0.61252 0.30934 0.0
C1165 C 0.19277 0.61527 0.30721 0.0
H1166 H 0.15335 0.59331 0.31741 0.0
H1167 H 0.33196 0.62053 0.29588 0.0
H1168 H 0.35413 0.70119 0.56377 0.0
H1169 H 0.37864 0.71051 0.60662 0.0
H1170 H 0.34624 0.75347 0.65127 0.0
H1171 H 0.32186 0.74445 0.60861 0.0
H1172 H 0.38034 0.7642 0.63782 0.0
H1173 H 0.34986 0.71493 0.70123 0.0
H1174 H 0.33852 0.68415 0.70578 0.0
H1175 H 0.3916 0.66382 0.69072 0.0
H1176 H 0.40323 0.69453 0.68562 0.0
H1177 H 0.40734 0.7841 0.8301 0.0
H1178 H 0.39237 0.77506 0.76967 0.0
H1179 H 0.4341 0.73683 0.74694 0.0
H1180 H 0.44908 0.74575 0.80774 0.0
H1181 H 0.40058 0.72228 0.74106 0.0
H1182 H 0.43145 0.77239 0.6899 0.0
H1183 H 0.44229 0.80339 0.68765 0.0
H1184 H 0.38841 0.82245 0.68081 0.0
H1185 H 0.37721 0.79156 0.68362 0.0
C1186 C 0.35228 0.71271 0.58248 0.0
C1187 C 0.33596 0.72196 0.58301 0.0
C1188 C 0.36628 0.71799 0.60697 0.0
C1189 C 0.36418 0.73259 0.63229 0.0
C1190 C 0.34814 0.74217 0.6319 0.0
C1191 C 0.33416 0.7369 0.60765 0.0
C1192 C 0.37822 0.73754 0.66077 0.0
C1193 C 0.38478 0.75506 0.66045 0.0
C1194 C 0.38435 0.72544 0.68956 0.0
C1195 C 0.37737 0.707 0.69253 0.0
C1196 C 0.35909 0.70389 0.69853 0.0
C1197 C 0.35261 0.68646 0.70128 0.0
C1198 C 0.36432 0.67203 0.69839 0.0
C1199 C 0.38254 0.67501 0.69285 0.0
C1200 C 0.38908 0.69242 0.69004 0.0
C1201 C 0.41337 0.77385 0.81209 0.0
C1202 C 0.42933 0.76559 0.8236 0.0
C1203 C 0.4049 0.7688 0.77744 0.0
C1204 C 0.41222 0.75538 0.7537 0.0
C1205 C 0.4283 0.74728 0.76479 0.0
C1206 C 0.43687 0.75244 0.79934 0.0
C1207 C 0.40233 0.74911 0.7188 0.0
C1208 C 0.39652 0.73133 0.71793 0.0
C1209 C 0.39684 0.761 0.68902 0.0
C1210 C 0.40349 0.77963 0.68722 0.0
C1211 C 0.4219 0.78319 0.68822 0.0
C1212 C 0.42811 0.80075 0.68679 0.0
C1213 C 0.41604 0.81489 0.68415 0.0
C1214 C 0.39774 0.81149 0.68286 0.0
C1215 C 0.39145 0.79395 0.68431 0.0
H1216 H 0.42088 0.82847 0.68304 0.0
H1217 H 0.3593 0.65854 0.70061 0.0
H1218 H 0.75974 0.82002 0.13557 0.0
H1219 H 0.74644 0.84461 0.17162 0.0
H1220 H 0.77359 0.88229 0.09712 0.0
H1221 H 0.78729 0.85762 0.06088 0.0
H1222 H 0.77572 0.89135 0.17396 0.0
H1223 H 0.72928 0.87439 0.08519 0.0
H1224 H 0.70923 0.85317 0.05191 0.0
H1225 H 0.6858 0.83896 0.16229 0.0
H1226 H 0.7059 0.85986 0.19637 0.0
H1227 H 0.73062 0.96005 0.27353 0.0
H1228 H 0.73934 0.94168 0.21758 0.0
H1229 H 0.71413 0.896 0.27081 0.0
H1230 H 0.7045 0.91447 0.32564 0.0
H1231 H 0.71027 0.89435 0.19443 0.0
H1232 H 0.75919 0.90549 0.28355 0.0
H1233 H 0.78012 0.92439 0.32074 0.0
H1234 H 0.79937 0.94728 0.21349 0.0
H1235 H 0.77837 0.92866 0.17569 0.0
C1236 C 0.76295 0.83351 0.12671 0.0
C1237 C 0.77455 0.83682 0.09514 0.0
C1238 C 0.75521 0.84757 0.14726 0.0
C1239 C 0.75872 0.86526 0.13648 0.0
C1240 C 0.7706 0.8687 0.10562 0.0
C1241 C 0.77843 0.85459 0.08503 0.0
C1242 C 0.75029 0.88005 0.15846 0.0
C1243 C 0.76138 0.89229 0.17769 0.0
C1244 C 0.73159 0.88097 0.16395 0.0
C1245 C 0.71918 0.86867 0.14338 0.0
C1246 C 0.71991 0.86669 0.10242 0.0
C1247 C 0.70854 0.85471 0.0834 0.0
C1248 C 0.69626 0.84472 0.10498 0.0
C1249 C 0.69531 0.84671 0.14561 0.0
C1250 C 0.70667 0.85865 0.16479 0.0
C1251 C 0.72647 0.94622 0.2728 0.0
C1252 C 0.71711 0.93865 0.30441 0.0
C1253 C 0.73163 0.9357 0.24096 0.0
C1254 C 0.72777 0.91737 0.24046 0.0
C1255 C 0.71739 0.91008 0.27067 0.0
C1256 C 0.71207 0.92062 0.30224 0.0
C1257 C 0.73574 0.9054 0.21059 0.0
C1258 C 0.72458 0.89367 0.18994 0.0
C1259 C 0.75439 0.90474 0.2042 0.0
C1260 C 0.76707 0.91586 0.22686 0.0
C1261 C 0.7678 0.91465 0.26794 0.0
C1262 C 0.77968 0.9253 0.28912 0.0
C1263 C 0.79103 0.93707 0.2695 0.0
C1264 C 0.79055 0.93819 0.22865 0.0
C1265 C 0.77866 0.92759 0.20733 0.0
H1266 H 0.80022 0.9453 0.28595 0.0
H1267 H 0.68745 0.83547 0.09024 0.0
H1268 H 0.64383 0.29093 0.56619 0.0
H1269 H 0.61924 0.2793 0.60566 0.0
H1270 H 0.65532 0.24293 0.66294 0.0
H1271 H 0.67992 0.25426 0.62351 0.0
H1272 H 0.62424 0.22668 0.64304 0.0
H1273 H 0.64262 0.28112 0.70738 0.0
H1274 H 0.64901 0.31334 0.71106 0.0
H1275 H 0.59497 0.32512 0.67867 0.0
H1276 H 0.58832 0.29294 0.67429 0.0
H1277 H 0.58294 0.20571 0.82295 0.0
H1278 H 0.60182 0.21516 0.76854 0.0
H1279 H 0.55981 0.24951 0.72663 0.0
H1280 H 0.541 0.24047 0.78178 0.0
H1281 H 0.59074 0.26701 0.73168 0.0
H1282 H 0.57144 0.21224 0.67555 0.0
H1283 H 0.56517 0.18 0.67288 0.0
H1284 H 0.62071 0.1686 0.69009 0.0
H1285 H 0.62729 0.20078 0.69346 0.0
C1286 C 0.64656 0.28045 0.58714 0.0
C1287 C 0.66391 0.27362 0.5918 0.0
C1288 C 0.63247 0.27383 0.60969 0.0
C1289 C 0.63549 0.26034 0.63739 0.0
C1290 C 0.6527 0.25332 0.64167 0.0
C1291 C 0.66678 0.25991 0.61921 0.0
C1292 C 0.62088 0.25375 0.66272 0.0
C1293 C 0.61697 0.23545 0.66262 0.0
C1294 C 0.61106 0.26531 0.68736 0.0
C1295 C 0.61504 0.28464 0.69004 0.0
C1296 C 0.63214 0.29059 0.70071 0.0
C1297 C 0.6358 0.30883 0.70299 0.0
C1298 C 0.62242 0.32127 0.69497 0.0
C1299 C 0.60533 0.31547 0.68478 0.0
C1300 C 0.60161 0.29724 0.68242 0.0
C1301 C 0.57767 0.21518 0.80199 0.0
C1302 C 0.56052 0.22241 0.80673 0.0
C1303 C 0.58841 0.22044 0.77068 0.0
C1304 C 0.58217 0.23294 0.74335 0.0
C1305 C 0.56485 0.2398 0.74733 0.0
C1306 C 0.55408 0.23452 0.77867 0.0
C1307 C 0.59429 0.23985 0.71259 0.0
C1308 C 0.59777 0.25823 0.71168 0.0
C1309 C 0.60372 0.22834 0.68708 0.0
C1310 C 0.59983 0.20895 0.68504 0.0
C1311 C 0.5823 0.20286 0.67908 0.0
C1312 C 0.5787 0.18459 0.67738 0.0
C1313 C 0.59253 0.17226 0.68138 0.0
C1314 C 0.61001 0.17817 0.68701 0.0
C1315 C 0.61369 0.19643 0.68877 0.0
H1316 H 0.58971 0.15812 0.68005 0.0
H1317 H 0.62528 0.33539 0.69676 0.0
H1318 H 0.20308 0.14751 0.07918 0.0
H1319 H 0.21252 0.12497 0.12666 0.0
H1320 H 0.25782 0.15741 0.15785 0.0
H1321 H 0.24842 0.18009 0.1111 0.0
H1322 H 0.2426 0.1046 0.14135 0.0
H1323 H 0.26079 0.15782 0.2574 0.0
H1324 H 0.25343 0.18912 0.27279 0.0
H1325 H 0.20255 0.18313 0.21669 0.0
H1326 H 0.20936 0.15171 0.20208 0.0
H1327 H 0.28605 0.06538 0.30827 0.0
H1328 H 0.27772 0.08263 0.24995 0.0
H1329 H 0.22934 0.09949 0.30758 0.0
H1330 H 0.2378 0.08267 0.36586 0.0
H1331 H 0.24529 0.12692 0.2781 0.0
H1332 H 0.2295 0.06873 0.23133 0.0
H1333 H 0.23446 0.03703 0.21548 0.0
H1334 H 0.27566 0.05158 0.1342 0.0
H1335 H 0.27111 0.08337 0.14997 0.0
C1336 C 0.21517 0.14976 0.0958 0.0
C1337 C 0.2248 0.16577 0.09189 0.0
C1338 C 0.2206 0.13681 0.12273 0.0
C1339 C 0.23572 0.13966 0.14608 0.0
C1340 C 0.24597 0.15509 0.14046 0.0
C1341 C 0.24051 0.16807 0.11381 0.0
C1342 C 0.2398 0.12748 0.17898 0.0
C1343 C 0.24325 0.10943 0.17128 0.0
C1344 C 0.24025 0.13377 0.21804 0.0
C1345 C 0.23569 0.15247 0.22824 0.0
C1346 C 0.24797 0.16315 0.24867 0.0
C1347 C 0.24388 0.18091 0.25729 0.0
C1348 C 0.22754 0.18813 0.24569 0.0
C1349 C 0.21519 0.17755 0.22573 0.0
C1350 C 0.21915 0.15975 0.2173 0.0
C1351 C 0.27356 0.07263 0.30815 0.0
C1352 C 0.26265 0.07289 0.34159 0.0
C1353 C 0.26878 0.08242 0.27486 0.0
C1354 C 0.25288 0.09234 0.27439 0.0
C1355 C 0.24173 0.09206 0.30738 0.0
C1356 C 0.24657 0.08248 0.34065 0.0
C1357 C 0.24826 0.10394 0.2407 0.0
C1358 C 0.24472 0.12199 0.24824 0.0
C1359 C 0.24735 0.09751 0.20174 0.0
C1360 C 0.25008 0.07842 0.19213 0.0
C1361 C 0.23972 0.06516 0.21031 0.0
C1362 C 0.24244 0.04718 0.20129 0.0
C1363 C 0.2554 0.0423 0.17392 0.0
C1364 C 0.26564 0.05539 0.15543 0.0
C1365 C 0.26298 0.07339 0.16437 0.0
H1366 H 0.25749 0.02837 0.16698 0.0
H1367 H 0.22445 0.20191 0.25218 0.0
H1368 H 0.2195 0.27993 0.0509 0.0
H1369 H 0.21476 0.31207 0.04801 0.0
H1370 H 0.20445 0.30841 0.92393 0.0
H1371 H 0.20953 0.27626 0.92631 0.0
H1372 H 0.22535 0.33581 0.93859 0.0
H1373 H 0.17062 0.31431 0.98853 0.0
H1374 H 0.15052 0.2971 0.03133 0.0
H1375 H 0.16864 0.32688 0.13116 0.0
H1376 H 0.18902 0.34414 0.08896 0.0
H1377 H 0.18921 0.42387 0.9279 0.0
H1378 H 0.18946 0.39129 0.92845 0.0
H1379 H 0.21378 0.3917 0.0428 0.0
H1380 H 0.21453 0.42422 0.04184 0.0
H1381 H 0.18359 0.36605 0.02983 0.0
H1382 H 0.24033 0.38578 0.97554 0.0
H1383 H 0.25874 0.40296 0.9291 0.0
H1384 H 0.23392 0.37596 0.83247 0.0
H1385 H 0.21516 0.35882 0.8784 0.0
C1386 C 0.21624 0.28593 0.02294 0.0
C1387 C 0.2149 0.27549 0.98884 0.0
C1388 C 0.21344 0.30431 0.02139 0.0
C1389 C 0.209 0.3126 0.98585 0.0
C1390 C 0.20784 0.30227 0.95167 0.0
C1391 C 0.21076 0.28389 0.95312 0.0
C1392 C 0.20589 0.3321 0.98437 0.0
C1393 C 0.216 0.34235 0.95813 0.0
C1394 C 0.19376 0.34068 0.01 0.0
C1395 C 0.18146 0.33043 0.03559 0.0
C1396 C 0.1704 0.31712 0.01964 0.0
C1397 C 0.15894 0.30736 0.04379 0.0
C1398 C 0.15833 0.31086 0.08397 0.0
C1399 C 0.16914 0.32417 0.10003 0.0
C1400 C 0.18063 0.33397 0.07599 0.0
C1401 C 0.19473 0.41709 0.95312 0.0
C1402 C 0.20202 0.42677 0.98466 0.0
C1403 C 0.19468 0.39847 0.9535 0.0
C1404 C 0.20167 0.38919 0.98562 0.0
C1405 C 0.20823 0.3987 0.01787 0.0
C1406 C 0.20856 0.41731 0.01728 0.0
C1407 C 0.20323 0.36958 0.98455 0.0
C1408 C 0.19282 0.35937 0.01023 0.0
C1409 C 0.21483 0.36099 0.95793 0.0
C1410 C 0.2262 0.37118 0.93037 0.0
C1411 C 0.23868 0.38363 0.94438 0.0
C1412 C 0.2492 0.39334 0.91816 0.0
C1413 C 0.24746 0.3906 0.87785 0.0
C1414 C 0.23523 0.3781 0.86369 0.0
C1415 C 0.22466 0.36838 0.88981 0.0
H1416 H 0.25562 0.39812 0.85759 0.0
H1417 H 0.14947 0.30329 0.10264 0.0
H1418 H 0.2221 0.70483 0.55468 0.0
H1419 H 0.18962 0.70135 0.55555 0.0
H1420 H 0.18642 0.72414 0.43983 0.0
H1421 H 0.21885 0.72746 0.43839 0.0
H1422 H 0.16172 0.73849 0.49681 0.0
H1423 H 0.1826 0.68216 0.44494 0.0
H1424 H 0.20068 0.65471 0.44633 0.0
H1425 H 0.17569 0.63908 0.55416 0.0
H1426 H 0.15763 0.66658 0.55367 0.0
H1427 H 0.07467 0.71918 0.43783 0.0
H1428 H 0.10708 0.72053 0.44101 0.0
H1429 H 0.10649 0.68858 0.54605 0.0
H1430 H 0.07398 0.68641 0.54203 0.0
H1431 H 0.1333 0.67872 0.49935 0.0
H1432 H 0.11162 0.73348 0.55156 0.0
H1433 H 0.09376 0.76106 0.55337 0.0
H1434 H 0.12045 0.78007 0.45024 0.0
H1435 H 0.13829 0.75247 0.44746 0.0
C1436 C 0.21447 0.70918 0.52949 0.0
C1437 C 0.22302 0.71641 0.49644 0.0
C1438 C 0.19596 0.7071 0.53 0.0
C1439 C 0.18573 0.71243 0.49769 0.0
C1440 C 0.19416 0.71995 0.465 0.0
C1441 C 0.21266 0.72177 0.4642 0.0
C1442 C 0.16618 0.71015 0.4978 0.0
C1443 C 0.15546 0.72544 0.49695 0.0
C1444 C 0.15815 0.69312 0.4993 0.0
C1445 C 0.16891 0.67652 0.49949 0.0
C1446 C 0.18107 0.67295 0.46913 0.0
C1447 C 0.19129 0.65737 0.46971 0.0
C1448 C 0.18937 0.64518 0.50038 0.0
C1449 C 0.17718 0.64854 0.53046 0.0
C1450 C 0.16694 0.66412 0.53003 0.0
C1451 C 0.08141 0.71213 0.46121 0.0
C1452 C 0.0717 0.70274 0.48977 0.0
C1453 C 0.09994 0.71311 0.46326 0.0
C1454 C 0.10917 0.70495 0.4942 0.0
C1455 C 0.09961 0.69509 0.52209 0.0
C1456 C 0.08104 0.694 0.51993 0.0
C1457 C 0.12874 0.70709 0.4977 0.0
C1458 C 0.13949 0.69179 0.49939 0.0
C1459 C 0.13683 0.72416 0.49748 0.0
C1460 C 0.12618 0.74083 0.49911 0.0
C1461 C 0.11359 0.74348 0.52909 0.0
C1462 C 0.10348 0.75913 0.53031 0.0
C1463 C 0.10594 0.7723 0.50188 0.0
C1464 C 0.11855 0.76985 0.47221 0.0
C1465 C 0.12867 0.75421 0.47082 0.0
H1466 H 0.09811 0.78441 0.50289 0.0
H1467 H 0.1973 0.63313 0.50079 0.0
H1468 H 0.76204 0.72089 0.0494 0.0
H1469 H 0.76516 0.68842 0.05084 0.0
H1470 H 0.80669 0.69164 0.96343 0.0
H1471 H 0.80273 0.72391 0.96016 0.0
H1472 H 0.78796 0.66547 0.94633 0.0
H1473 H 0.81469 0.6843 0.06597 0.0
H1474 H 0.81667 0.70008 0.12922 0.0
H1475 H 0.77272 0.66942 0.1735 0.0
H1476 H 0.77032 0.65363 0.11031 0.0
H1477 H 0.81446 0.57598 0.051 0.0
H1478 H 0.81467 0.60862 0.04833 0.0
H1479 H 0.76815 0.60759 0.97391 0.0
H1480 H 0.76822 0.57503 0.97567 0.0
H1481 H 0.79269 0.63267 0.07204 0.0
H1482 H 0.768 0.64165 0.91112 0.0
H1483 H 0.77082 0.62639 0.84739 0.0
H1484 H 0.81976 0.60217 0.88508 0.0
H1485 H 0.81737 0.61748 0.94879 0.0
C1486 C 0.77178 0.71459 0.03049 0.0
C1487 C 0.78213 0.72482 0.00466 0.0
C1488 C 0.77367 0.69607 0.03151 0.0
C1489 C 0.78642 0.68754 0.00778 0.0
C1490 C 0.79674 0.69784 0.98196 0.0
C1491 C 0.79449 0.71628 0.98014 0.0
C1492 C 0.78882 0.66789 0.00926 0.0
C1493 C 0.78904 0.65834 0.97386 0.0
C1494 C 0.79073 0.65854 0.04507 0.0
C1495 C 0.79224 0.66788 0.08328 0.0
C1496 C 0.80539 0.68099 0.08912 0.0
C1497 C 0.80659 0.68993 0.12497 0.0
C1498 C 0.79481 0.68578 0.15533 0.0
C1499 C 0.78183 0.67263 0.14994 0.0
C1500 C 0.78056 0.66367 0.11413 0.0
C1501 C 0.80434 0.58277 0.034 0.0
C1502 C 0.79141 0.57304 0.0133 0.0
C1503 C 0.80445 0.60138 0.03253 0.0
C1504 C 0.79156 0.61056 0.01054 0.0
C1505 C 0.77848 0.60081 0.99032 0.0
C1506 C 0.77852 0.58222 0.99136 0.0
C1507 C 0.79156 0.63032 0.00917 0.0
C1508 C 0.79173 0.63986 0.04456 0.0
C1509 C 0.79078 0.63974 0.9733 0.0
C1510 C 0.79239 0.63059 0.93488 0.0
C1511 C 0.77939 0.63313 0.90575 0.0
C1512 C 0.78092 0.62445 0.86964 0.0
C1513 C 0.79543 0.61327 0.86224 0.0
C1514 C 0.80849 0.61078 0.8909 0.0
C1515 C 0.80704 0.61944 0.92703 0.0
H1516 H 0.79658 0.60656 0.83428 0.0
H1517 H 0.79575 0.69272 0.18305 0.0
H1518 H 0.77613 0.29627 0.44084 0.0
H1519 H 0.80838 0.3003 0.43937 0.0
H1520 H 0.81251 0.27675 0.55436 0.0
H1521 H 0.78008 0.27333 0.55665 0.0
H1522 H 0.83396 0.30392 0.5499 0.0
H1523 H 0.82261 0.25314 0.46827 0.0
H1524 H 0.80844 0.23636 0.41449 0.0
H1525 H 0.82981 0.27335 0.33076 0.0
H1526 H 0.84393 0.29048 0.38412 0.0
H1527 H 0.92546 0.27891 0.54074 0.0
H1528 H 0.89297 0.27895 0.54337 0.0
H1529 H 0.89105 0.31127 0.43907 0.0
H1530 H 0.92366 0.3119 0.43689 0.0
H1531 H 0.86876 0.28077 0.43719 0.0
H1532 H 0.88153 0.33046 0.52153 0.0
H1533 H 0.89622 0.34572 0.57677 0.0
H1534 H 0.87269 0.3086 0.65734 0.0
H1535 H 0.85806 0.29294 0.6025 0.0
C1536 C 0.78391 0.29191 0.4658 0.0
C1537 C 0.77559 0.28431 0.49872 0.0
C1538 C 0.80236 0.29418 0.46487 0.0
C1539 C 0.81293 0.28849 0.49641 0.0
C1540 C 0.80463 0.28119 0.52963 0.0
C1541 C 0.78611 0.27919 0.53086 0.0
C1542 C 0.83264 0.29007 0.49463 0.0
C1543 C 0.84157 0.29866 0.52547 0.0
C1544 C 0.84258 0.28351 0.46239 0.0
C1545 C 0.83418 0.27318 0.43022 0.0
C1546 C 0.82418 0.25776 0.43841 0.0
C1547 C 0.81618 0.24818 0.408 0.0
C1548 C 0.81818 0.25381 0.36924 0.0
C1549 C 0.82825 0.26901 0.3608 0.0
C1550 C 0.83627 0.27865 0.39111 0.0
C1551 C 0.9182 0.28635 0.51875 0.0
C1552 C 0.92723 0.29548 0.48867 0.0
C1553 C 0.89961 0.28626 0.52022 0.0
C1554 C 0.88967 0.2952 0.49155 0.0
C1555 C 0.89855 0.30429 0.46143 0.0
C1556 C 0.91717 0.30454 0.46014 0.0
C1557 C 0.86998 0.29452 0.49246 0.0
C1558 C 0.86109 0.28608 0.46148 0.0
C1559 C 0.86012 0.30098 0.5248 0.0
C1560 C 0.86883 0.31043 0.55785 0.0
C1561 C 0.87961 0.32546 0.55099 0.0
C1562 C 0.8879 0.3342 0.58224 0.0
C1563 C 0.88543 0.32811 0.62053 0.0
C1564 C 0.87461 0.31329 0.62766 0.0
C1565 C 0.8663 0.30449 0.59651 0.0
H1566 H 0.89186 0.33489 0.64469 0.0
H1567 H 0.81197 0.24638 0.34574 0.0
H1568 H 0.72811 0.21976 0.55645 0.0
H1569 H 0.72523 0.18728 0.55627 0.0
H1570 H 0.70337 0.18912 0.43953 0.0
H1571 H 0.70641 0.22165 0.43915 0.0
H1572 H 0.68385 0.16736 0.49617 0.0
H1573 H 0.74307 0.17616 0.44497 0.0
H1574 H 0.77349 0.18861 0.44531 0.0
H1575 H 0.78411 0.16281 0.55512 0.0
H1576 H 0.75363 0.15043 0.55573 0.0
H1577 H 0.68757 0.0739 0.46163 0.0
H1578 H 0.68953 0.10629 0.45682 0.0
H1579 H 0.72401 0.10743 0.55798 0.0
H1580 H 0.72323 0.07506 0.56122 0.0
H1581 H 0.73694 0.12816 0.50575 0.0
H1582 H 0.67859 0.12026 0.56048 0.0
H1583 H 0.64794 0.10853 0.56453 0.0
H1584 H 0.63523 0.133 0.45434 0.0
H1585 H 0.6659 0.14469 0.44938 0.0
C1586 C 0.72271 0.21327 0.5307 0.0
C1587 C 0.71754 0.22325 0.49776 0.0
C1588 C 0.72111 0.19473 0.53064 0.0
C1589 C 0.71414 0.18589 0.49785 0.0
C1590 C 0.70879 0.19578 0.46507 0.0
C1591 C 0.71063 0.21431 0.46485 0.0
C1592 C 0.7125 0.16628 0.49796 0.0
C1593 C 0.69542 0.15871 0.49767 0.0
C1594 C 0.72764 0.15517 0.501 0.0
C1595 C 0.74601 0.16251 0.50056 0.0
C1596 C 0.75184 0.17327 0.46935 0.0
C1597 C 0.7691 0.18029 0.46935 0.0
C1598 C 0.78071 0.17654 0.50027 0.0
C1599 C 0.77509 0.16572 0.53121 0.0
C1600 C 0.75783 0.15868 0.53138 0.0
C1601 C 0.6957 0.08101 0.48268 0.0
C1602 C 0.70523 0.07178 0.51185 0.0
C1603 C 0.69661 0.09958 0.48021 0.0
C1604 C 0.70674 0.10935 0.50735 0.0
C1605 C 0.71607 0.10021 0.53675 0.0
C1606 C 0.7154 0.08165 0.53887 0.0
C1607 C 0.7082 0.12904 0.50447 0.0
C1608 C 0.72529 0.1367 0.50416 0.0
C1609 C 0.69304 0.14023 0.50149 0.0
C1610 C 0.6746 0.13318 0.50436 0.0
C1611 C 0.66931 0.12301 0.53695 0.0
C1612 C 0.65192 0.1164 0.53945 0.0
C1613 C 0.63966 0.11997 0.50966 0.0
C1614 C 0.64475 0.13022 0.47736 0.0
C1615 C 0.66213 0.13685 0.4747 0.0
H1616 H 0.6262 0.11484 0.51165 0.0
H1617 H 0.79407 0.18199 0.50021 0.0
H1618 H 0.27678 0.20487 0.93182 0.0
H1619 H 0.30932 0.20172 0.93215 0.0
H1620 H 0.31148 0.22558 0.047 0.0
H1621 H 0.27908 0.22866 0.04716 0.0
H1622 H 0.33669 0.23942 0.99292 0.0
H1623 H 0.31492 0.18277 0.04138 0.0
H1624 H 0.29689 0.15534 0.03743 0.0
H1625 H 0.32392 0.14036 0.93152 0.0
H1626 H 0.34195 0.16786 0.93455 0.0
H1627 H 0.42268 0.22023 0.05907 0.0
H1628 H 0.39036 0.22161 0.05309 0.0
H1629 H 0.39277 0.18926 0.9487 0.0
H1630 H 0.42512 0.18693 0.95574 0.0
H1631 H 0.36517 0.17969 0.99172 0.0
H1632 H 0.38793 0.2348 0.9433 0.0
H1633 H 0.40577 0.2624 0.94428 0.0
H1634 H 0.37684 0.28074 0.04509 0.0
H1635 H 0.35899 0.25311 0.04507 0.0
C1636 C 0.2842 0.20953 0.95704 0.0
C1637 C 0.27536 0.21697 0.98951 0.0
C1638 C 0.30274 0.20765 0.95723 0.0
C1639 C 0.31271 0.21335 0.98969 0.0
C1640 C 0.30397 0.22111 0.02172 0.0
C1641 C 0.28546 0.22278 0.02179 0.0
C1642 C 0.33227 0.21109 0.99071 0.0
C1643 C 0.34296 0.22638 0.993 0.0
C1644 C 0.34035 0.19407 0.98958 0.0
C1645 C 0.32964 0.17746 0.98795 0.0
C1646 C 0.31692 0.1737 0.01707 0.0
C1647 C 0.30672 0.15813 0.01503 0.0
C1648 C 0.30922 0.14614 0.98417 0.0
C1649 C 0.32198 0.14967 0.95536 0.0
C1650 C 0.3322 0.16524 0.95724 0.0
C1651 C 0.41636 0.21309 0.03527 0.0
C1652 C 0.42655 0.20354 0.00776 0.0
C1653 C 0.39787 0.2141 0.03158 0.0
C1654 C 0.38919 0.20588 -6e-05 0.0
C1655 C 0.39921 0.19585 0.97314 0.0
C1656 C 0.41772 0.19467 0.97702 0.0
C1657 C 0.36969 0.20805 0.99458 0.0
C1658 C 0.35899 0.19276 0.99137 0.0
C1659 C 0.36158 0.22511 0.99438 0.0
C1660 C 0.37222 0.2418 0.99437 0.0
C1661 C 0.38545 0.24466 0.96585 0.0
C1662 C 0.39556 0.26032 0.96621 0.0
C1663 C 0.39246 0.2733 0.99478 0.0
C1664 C 0.37923 0.27066 0.023 0.0
C1665 C 0.3691 0.25501 0.02281 0.0
H1666 H 0.4003 0.28542 0.99501 0.0
H1667 H 0.30131 0.13409 0.98264 0.0
H1668 H 0.27478 0.77844 0.43119 0.0
H1669 H 0.27955 0.81061 0.43011 0.0
H1670 H 0.29836 0.80883 0.54952 0.0
H1671 H 0.29309 0.77669 0.55126 0.0
H1672 H 0.27741 0.83612 0.54068 0.0
H1673 H 0.32732 0.81328 0.47066 0.0
H1674 H 0.3429 0.79519 0.42097 0.0
H1675 H 0.31657 0.82417 0.32925 0.0
H1676 H 0.30061 0.84225 0.37841 0.0
H1677 H 0.31213 0.92451 0.5332 0.0
H1678 H 0.31211 0.89192 0.53573 0.0
H1679 H 0.28267 0.89 0.42738 0.0
H1680 H 0.28196 0.9225 0.42526 0.0
H1681 H 0.31153 0.86468 0.43305 0.0
H1682 H 0.26023 0.88586 0.50628 0.0
H1683 H 0.24564 0.90384 0.5576 0.0
H1684 H 0.27691 0.8776 0.64577 0.0
H1685 H 0.29188 0.85965 0.59484 0.0
C1686 C 0.27993 0.78488 0.45726 0.0
C1687 C 0.28359 0.775 0.49129 0.0
C1688 C 0.28275 0.80327 0.45652 0.0
C1689 C 0.28964 0.81209 0.48949 0.0
C1690 C 0.29309 0.8023 0.52369 0.0
C1691 C 0.29006 0.78393 0.52463 0.0
C1692 C 0.29294 0.83159 0.48844 0.0
C1693 C 0.28515 0.8423 0.5175 0.0
C1694 C 0.30288 0.83971 0.45799 0.0
C1695 C 0.31265 0.82903 0.42826 0.0
C1696 C 0.32476 0.81572 0.4399 0.0
C1697 C 0.33367 0.80548 0.41183 0.0
C1698 C 0.3307 0.8085 0.37198 0.0
C1699 C 0.31885 0.82183 0.36013 0.0
C1700 C 0.30988 0.8321 0.38809 0.0
C1701 C 0.30559 0.91719 0.50995 0.0
C1702 C 0.29692 0.92619 0.47918 0.0
C1703 C 0.30573 0.89857 0.51131 0.0
C1704 C 0.29732 0.88863 0.48182 0.0
C1705 C 0.28931 0.89749 0.45028 0.0
C1706 C 0.28899 0.91609 0.44908 0.0
C1707 C 0.29587 0.86904 0.485 0.0
C1708 C 0.30398 0.85838 0.45636 0.0
C1709 C 0.28644 0.86092 0.5161 0.0
C1710 C 0.27731 0.87156 0.54673 0.0
C1711 C 0.2641 0.88403 0.53658 0.0
C1712 C 0.25574 0.8942 0.5656 0.0
C1713 C 0.26038 0.8919 0.60491 0.0
C1714 C 0.27335 0.87939 0.6153 0.0
C1715 C 0.28177 0.86921 0.58638 0.0
H1716 H 0.2539 0.89978 0.62734 0.0
H1717 H 0.33759 0.80054 0.3503 0.0
H1718 H 0.72388 0.80627 0.04261 0.0
H1719 H 0.69179 0.81141 0.03864 0.0
H1720 H 0.68808 0.77329 0.94417 0.0
H1721 H 0.72041 0.76892 0.94655 0.0
H1722 H 0.66729 0.79999 0.92943 0.0
H1723 H 0.67708 0.76326 0.04562 0.0
H1724 H 0.69098 0.75698 0.10968 0.0
H1725 H 0.66922 0.80553 0.1562 0.0
H1726 H 0.65528 0.81213 0.09234 0.0
H1727 H 0.578 0.77256 0.93766 0.0
H1728 H 0.6104 0.7748 0.94109 0.0
H1729 H 0.60581 0.81563 0.0296 0.0
H1730 H 0.57322 0.8134 0.02638 0.0
H1731 H 0.63064 0.79171 0.04907 0.0
H1732 H 0.61756 0.82653 0.9362 0.0
H1733 H 0.60385 0.83349 0.87239 0.0
H1734 H 0.63194 0.78981 0.81942 0.0
H1735 H 0.64564 0.78242 0.88305 0.0
C1736 C 0.71619 0.799 0.02099 0.0
C1737 C 0.72454 0.78703 0.99516 0.0
C1738 C 0.69785 0.8019 0.01885 0.0
C1739 C 0.68742 0.7924 0.99179 0.0
C1740 C 0.69583 0.78072 0.96541 0.0
C1741 C 0.71427 0.77818 0.96684 0.0
C1742 C 0.66772 0.79433 0.99129 0.0
C1743 C 0.65927 0.79799 0.95551 0.0
C1744 C 0.65726 0.79243 0.02561 0.0
C1745 C 0.66524 0.78822 0.06422 0.0
C1746 C 0.67529 0.77259 0.06953 0.0
C1747 C 0.68317 0.76898 0.10578 0.0
C1748 C 0.681 0.78086 0.13698 0.0
C1749 C 0.67088 0.79634 0.13203 0.0
C1750 C 0.66295 0.79999 0.09586 0.0
C1751 C 0.58387 0.78217 0.95754 0.0
C1752 C 0.57308 0.79292 0.98151 0.0
C1753 C 0.60239 0.78344 0.95947 0.0
C1754 C 0.61051 0.79561 0.9851 0.0
C1755 C 0.5998 0.80621 0.00949 0.0
C1756 C 0.58122 0.80489 0.0077 0.0
C1757 C 0.63021 0.7968 0.98697 0.0
C1758 C 0.63866 0.79382 0.02303 0.0
C1759 C 0.64067 0.79939 0.95293 0.0
C1760 C 0.63253 0.80384 0.9145 0.0
C1761 C 0.62072 0.81833 0.91101 0.0
C1762 C 0.61297 0.82236 0.87486 0.0
C1763 C 0.617 0.81208 0.84189 0.0
C1764 C 0.62883 0.79776 0.84499 0.0
C1765 C 0.63661 0.79366 0.88109 0.0
H1766 H 0.61098 0.81522 0.81392 0.0
H1767 H 0.68715 0.77806 0.16499 0.0
loop_
_geom_bond_atom_site_label_1
_geom_bond_atom_site_label_2
_geom_bond_distance
_geom_bond_site_symmetry_2
_ccdc_geom_bond_type
Sc0 O3 2.025 . S
Sc0 O10 2.105 . S
Sc0 O13 2.105 . S
Sc0 O16 2.105 . S
Sc0 O19 2.105 . S
Sc1 O3 2.025 . S
Sc1 O11 2.105 . S
Sc1 O15 2.105 1_554 S
Sc1 O17 2.105 . S
Sc1 O21 2.105 1_554 S
Sc2 O3 2.025 1_556 S
Sc2 O12 2.105 . S
Sc2 O14 2.105 . S
Sc2 O18 2.105 . S
Sc2 O20 2.105 . S
O3 Sc0 2.025 . S
O3 Sc1 2.025 . S
O3 Sc2 2.025 1_554 S
C4 O10 1.268 . S
C4 O20 1.268 1_554 S
C5 O11 1.268 . S
C5 O19 1.268 . S
C6 O12 1.268 . S
C6 O21 1.268 . S
C7 O13 1.268 . S
C7 O17 1.268 . S
C8 O14 1.268 1_554 S
C8 O16 1.268 . S
C9 O15 1.268 . S
C9 O18 1.268 . S
O10 Sc0 2.105 . S
O10 C4 1.268 . S
O11 Sc1 2.105 . S
O11 C5 1.268 . S
O12 Sc2 2.105 . S
O12 C6 1.268 . S
O13 Sc0 2.105 . S
O13 C7 1.268 . S
O14 Sc2 2.105 . S
O14 C8 1.268 1_556 S
O15 Sc1 2.105 1_556 S
O15 C9 1.268 . S
O16 Sc0 2.105 . S
O16 C8 1.268 . S
O17 Sc1 2.105 . S
O17 C7 1.268 . S
O18 Sc2 2.105 . S
O18 C9 1.268 . S
O19 Sc0 2.105 . S
O19 C5 1.268 . S
O20 Sc2 2.105 . S
O20 C4 1.268 1_556 S
O21 Sc1 2.105 1_556 S
O21 C6 1.268 . S
Sc22 O25 2.025 . S
Sc22 O32 2.105 . S
Sc22 O35 2.105 . S
Sc22 O38 2.105 . S
Sc22 O41 2.105 . S
Sc23 O25 2.025 . S
Sc23 O33 2.105 . S
Sc23 O37 2.105 . S
Sc23 O39 2.105 . S
Sc23 O43 2.105 . S
Sc24 O25 2.025 . S
Sc24 O34 2.105 . S
Sc24 O36 2.105 . S
Sc24 O40 2.105 . S
Sc24 O42 2.105 . S
O25 Sc22 2.025 . S
O25 Sc23 2.025 . S
O25 Sc24 2.025 . S
C26 O32 1.268 . S
C26 O42 1.268 . S
C27 O33 1.268 . S
C27 O41 1.268 . S
C28 O34 1.268 . S
C28 O43 1.268 . S
C29 O35 1.268 . S
C29 O39 1.268 . S
C30 O36 1.268 . S
C30 O38 1.268 . S
C31 O37 1.268 . S
C31 O40 1.268 . S
O32 Sc22 2.105 . S
O32 C26 1.268 . S
O33 Sc23 2.105 . S
O33 C27 1.268 . S
O34 Sc24 2.105 . S
O34 C28 1.268 . S
O35 Sc22 2.105 . S
O35 C29 1.268 . S
O36 Sc24 2.105 . S
O36 C30 1.268 . S
O37 Sc23 2.105 . S
O37 C31 1.268 . S
O38 Sc22 2.105 . S
O38 C30 1.268 . S
O39 Sc23 2.105 . S
O39 C29 1.268 . S
O40 Sc24 2.105 . S
O40 C31 1.268 . S
O41 Sc22 2.105 . S
O41 C27 1.268 . S
O42 Sc24 2.105 . S
O42 C26 1.268 . S
O43 Sc23 2.105 . S
O43 C28 1.268 . S
Sc44 O47 2.025 1_556 S
Sc44 O54 2.105 . S
Sc44 O57 2.105 . S
Sc44 O60 2.105 . S
Sc44 O63 2.105 . S
Sc45 O47 2.025 . S
Sc45 O55 2.105 1_554 S
Sc45 O59 2.105 . S
Sc45 O61 2.105 1_554 S
Sc45 O65 2.105 . S
Sc46 O47 2.025 . S
Sc46 O56 2.105 . S
Sc46 O58 2.105 . S
Sc46 O62 2.105 . S
Sc46 O64 2.105 . S
O47 Sc44 2.025 1_554 S
O47 Sc45 2.025 . S
O47 Sc46 2.025 . S
C48 O54 1.268 1_554 S
C48 O64 1.268 . S
C49 O55 1.268 . S
C49 O63 1.268 . S
C50 O56 1.268 . S
C50 O65 1.268 . S
C51 O57 1.268 . S
C51 O61 1.268 . S
C52 O58 1.268 . S
C52 O60 1.268 1_554 S
C53 O59 1.268 . S
C53 O62 1.268 . S
O54 Sc44 2.105 . S
O54 C48 1.268 1_556 S
O55 Sc45 2.105 1_556 S
O55 C49 1.268 . S
O56 Sc46 2.105 . S
O56 C50 1.268 . S
O57 Sc44 2.105 . S
O57 C51 1.268 . S
O58 Sc46 2.105 . S
O58 C52 1.268 . S
O59 Sc45 2.105 . S
O59 C53 1.268 . S
O60 Sc44 2.105 . S
O60 C52 1.268 1_556 S
O61 Sc45 2.105 1_556 S
O61 C51 1.268 . S
O62 Sc46 2.105 . S
O62 C53 1.268 . S
O63 Sc44 2.105 . S
O63 C49 1.268 . S
O64 Sc46 2.105 . S
O64 C48 1.268 . S
O65 Sc45 2.105 . S
O65 C50 1.268 . S
Sc66 O69 2.025 . S
Sc66 O76 2.105 . S
Sc66 O79 2.105 . S
Sc66 O82 2.105 . S
Sc66 O85 2.105 . S
Sc67 O69 2.025 . S
Sc67 O77 2.105 . S
Sc67 O81 2.105 . S
Sc67 O83 2.105 . S
Sc67 O87 2.105 . S
Sc68 O69 2.025 . S
Sc68 O78 2.105 . S
Sc68 O80 2.105 . S
Sc68 O84 2.105 . S
Sc68 O86 2.105 . S
O69 Sc66 2.025 . S
O69 Sc67 2.025 . S
O69 Sc68 2.025 . S
C70 O76 1.268 . S
C70 O86 1.268 . S
C71 O77 1.268 . S
C71 O85 1.268 . S
C72 O78 1.268 . S
C72 O87 1.268 . S
C73 O79 1.268 . S
C73 O83 1.268 . S
C74 O80 1.268 . S
C74 O82 1.268 . S
C75 O81 1.268 . S
C75 O84 1.268 . S
O76 Sc66 2.105 . S
O76 C70 1.268 . S
O77 Sc67 2.105 . S
O77 C71 1.268 . S
O78 Sc68 2.105 . S
O78 C72 1.268 . S
O79 Sc66 2.105 . S
O79 C73 1.268 . S
O80 Sc68 2.105 . S
O80 C74 1.268 . S
O81 Sc67 2.105 . S
O81 C75 1.268 . S
O82 Sc66 2.105 . S
O82 C74 1.268 . S
O83 Sc67 2.105 . S
O83 C73 1.268 . S
O84 Sc68 2.105 . S
O84 C75 1.268 . S
O85 Sc66 2.105 . S
O85 C71 1.268 . S
O86 Sc68 2.105 . S
O86 C70 1.268 . S
O87 Sc67 2.105 . S
O87 C72 1.268 . S
C88 C89 1.391 . S
C88 C92 1.391 . S
C88 H130 0.948 . S
C89 C88 1.391 . S
C89 C90 1.391 . S
C90 C89 1.391 . S
C90 H146 0.947 . S
C90 C147 1.392 . S
C91 C92 1.391 . S
C91 C95 1.397 . S
C91 C147 1.419 . S
C92 C88 1.391 . S
C92 C91 1.391 . S
C92 C93 1.399 . S
C93 C92 1.399 . S
C93 C96 1.396 . S
C93 C105 1.453 . S
C93 C106 1.684 . S
H94 C118 0.948 . S
C95 C91 1.397 . S
C95 C96 1.394 . S
C95 C114 1.723 1_556 S
C96 C93 1.396 . S
C96 C95 1.394 . S
C96 C126 1.723 . S
H97 C120 0.947 . S
H98 C121 0.948 . S
H99 C127 0.982 . S
H100 C128 0.979 . S
H101 C128 0.980 . S
H102 C128 0.983 . S
H103 C127 0.979 . S
H104 C127 0.977 . S
C105 C93 1.453 . S
C105 H134 0.982 . S
C105 H135 0.979 . S
C105 H136 0.977 . S
C106 C93 1.684 . S
C106 H131 0.979 . S
C106 H132 0.980 . S
C106 H133 0.983 . S
C107 C108 1.391 . S
C107 C112 1.391 . S
C107 H137 0.948 . S
C108 C107 1.391 . S
C108 C109 1.391 . S
C109 C108 1.391 . S
C109 C110 1.392 . S
C109 H138 0.947 . S
C110 C109 1.392 . S
C110 C111 1.419 . S
C110 H139 0.948 . S
C111 C110 1.419 . S
C111 C112 1.391 . S
C111 C115 1.397 . S
C112 C107 1.391 . S
C112 C111 1.391 . S
C112 C113 1.399 . S
C113 C112 1.399 . S
C113 C114 1.396 . S
C113 C116 1.453 . S
C113 C117 1.684 . S
C114 C95 1.723 1_554 S
C114 C113 1.396 . S
C114 C115 1.394 . S
C115 C111 1.397 . S
C115 C114 1.394 . S
C115 C125 1.723 . S
C116 C113 1.453 . S
C116 H140 0.982 . S
C116 H141 0.979 . S
C116 H142 0.977 1_554 S
C117 C113 1.684 . S
C117 H143 0.979 . S
C117 H144 0.980 1_554 S
C117 H145 0.983 . S
C118 H94 0.948 . S
C118 C119 1.391 1_554 S
C118 C123 1.391 . S
C119 C118 1.391 1_556 S
C119 C120 1.391 . S
C120 H97 0.947 . S
C120 C119 1.391 . S
C120 C121 1.392 . S
C121 H98 0.948 . S
C121 C120 1.392 . S
C121 C122 1.419 . S
C122 C121 1.419 . S
C122 C123 1.391 1_556 S
C122 C126 1.397 . S
C123 C118 1.391 . S
C123 C122 1.391 1_554 S
C123 C124 1.399 . S
C124 C123 1.399 . S
C124 C125 1.396 . S
C124 C127 1.453 . S
C124 C128 1.684 . S
C125 C115 1.723 . S
C125 C124 1.396 . S
C125 C126 1.394 1_554 S
C126 C96 1.723 . S
C126 C122 1.397 . S
C126 C125 1.394 1_556 S
C127 H99 0.982 . S
C127 H103 0.979 . S
C127 H104 0.977 . S
C127 C124 1.453 . S
C128 H100 0.979 . S
C128 H101 0.980 . S
C128 H102 0.983 . S
C128 C124 1.684 . S
H129 C147 0.948 . S
H130 C88 0.948 . S
H131 C106 0.979 . S
H132 C106 0.980 . S
H133 C106 0.983 . S
H134 C105 0.982 . S
H135 C105 0.979 . S
H136 C105 0.977 . S
H137 C107 0.948 . S
H138 C109 0.947 . S
H139 C110 0.948 . S
H140 C116 0.982 . S
H141 C116 0.979 . S
H142 C116 0.977 1_556 S
H143 C117 0.979 . S
H144 C117 0.980 1_556 S
H145 C117 0.983 . S
H146 C90 0.947 . S
C147 C90 1.392 . S
C147 C91 1.419 . S
C147 H129 0.948 . S
C148 C149 1.391 . S
C148 C152 1.391 . S
C148 H190 0.948 . S
C149 C148 1.391 . S
C149 C150 1.391 . S
C150 C149 1.391 . S
C150 H206 0.947 . S
C150 C207 1.392 . S
C151 C152 1.391 . S
C151 C155 1.335 1_455 S
C151 C207 1.419 . S
C152 C148 1.391 . S
C152 C151 1.391 . S
C152 C153 1.399 . S
C153 C152 1.399 . S
C153 C156 1.396 1_455 S
C153 C165 1.453 . S
C153 C166 1.684 . S
H154 C178 0.948 . S
C155 C151 1.335 1_655 S
C155 C156 1.406 . S
C155 C174 1.762 . S
C156 C153 1.396 1_655 S
C156 C155 1.406 . S
C156 C186 1.723 . S
H157 C180 0.947 . S
H158 C181 0.948 . S
H159 C187 0.982 . S
H160 C188 0.979 . S
H161 C188 0.980 . S
H162 C188 0.983 . S
H163 C187 0.979 . S
H164 C187 0.977 . S
C165 C153 1.453 . S
C165 H194 0.982 . S
C165 H195 0.979 . S
C165 H196 0.977 . S
C166 C153 1.684 . S
C166 H191 0.979 . S
C166 H192 0.980 . S
C166 H193 0.983 . S
C167 C168 1.391 . S
C167 C172 1.391 . S
C167 H197 0.948 . S
C168 C167 1.391 . S
C168 C169 1.391 . S
C169 C168 1.391 . S
C169 C170 1.392 . S
C169 H198 0.947 . S
C170 C169 1.392 . S
C170 C171 1.419 . S
C170 H199 0.948 . S
C171 C170 1.419 . S
C171 C172 1.391 . S
C171 C175 1.397 . S
C172 C167 1.391 . S
C172 C171 1.391 . S
C172 C173 1.399 . S
C173 C172 1.399 . S
C173 C174 1.396 . S
C173 C176 1.453 . S
C173 C177 1.684 . S
C174 C155 1.762 . S
C174 C173 1.396 . S
C174 C175 1.394 . S
C175 C171 1.397 . S
C175 C174 1.394 . S
C175 C185 1.723 . S
C176 C173 1.453 . S
C176 H200 0.982 . S
C176 H201 0.979 . S
C176 H202 0.977 1_655 S
C177 C173 1.684 . S
C177 H203 0.979 . S
C177 H204 0.980 1_655 S
C177 H205 0.983 . S
C178 H154 0.948 . S
C178 C179 1.391 . S
C178 C183 1.391 . S
C179 C178 1.391 . S
C179 C180 1.391 . S
C180 H157 0.947 . S
C180 C179 1.391 . S
C180 C181 1.392 . S
C181 H158 0.948 . S
C181 C180 1.392 . S
C181 C182 1.419 . S
C182 C181 1.419 . S
C182 C183 1.391 . S
C182 C186 1.397 . S
C183 C178 1.391 . S
C183 C182 1.391 . S
C183 C184 1.399 . S
C184 C183 1.399 . S
C184 C185 1.396 . S
C184 C187 1.453 . S
C184 C188 1.684 . S
C185 C175 1.723 . S
C185 C184 1.396 . S
C185 C186 1.394 . S
C186 C156 1.723 . S
C186 C182 1.397 . S
C186 C185 1.394 . S
C187 H159 0.982 . S
C187 H163 0.979 . S
C187 H164 0.977 . S
C187 C184 1.453 . S
C188 H160 0.979 . S
C188 H161 0.980 . S
C188 H162 0.983 . S
C188 C184 1.684 . S
H189 C207 0.948 . S
H190 C148 0.948 . S
H191 C166 0.979 . S
H192 C166 0.980 . S
H193 C166 0.983 . S
H194 C165 0.982 . S
H195 C165 0.979 . S
H196 C165 0.977 . S
H197 C167 0.948 . S
H198 C169 0.947 . S
H199 C170 0.948 . S
H200 C176 0.982 . S
H201 C176 0.979 . S
H202 C176 0.977 1_455 S
H203 C177 0.979 . S
H204 C177 0.980 1_455 S
H205 C177 0.983 . S
H206 C150 0.947 . S
C207 C150 1.392 . S
C207 C151 1.419 . S
C207 H189 0.948 . S
C208 C209 1.391 . S
C208 C212 1.391 . S
C208 H250 0.948 . S
C209 C208 1.391 . S
C209 C210 1.391 . S
C210 C209 1.391 . S
C210 H266 0.947 . S
C210 C267 1.392 . S
C211 C212 1.391 . S
C211 C215 1.397 . S
C211 C267 1.419 . S
C212 C208 1.391 . S
C212 C211 1.391 . S
C212 C213 1.399 . S
C213 C212 1.399 . S
C213 C216 1.396 . S
C213 C225 1.453 . S
C213 C226 1.684 . S
H214 C238 0.948 . S
C215 C211 1.397 . S
C215 C216 1.394 . S
C215 C234 1.723 1_554 S
C216 C213 1.396 . S
C216 C215 1.394 . S
C216 C246 1.723 . S
H217 C240 0.947 . S
H218 C241 0.948 . S
H219 C247 0.982 . S
H220 C248 0.979 . S
H221 C248 0.980 . S
H222 C248 0.983 . S
H223 C247 0.979 . S
H224 C247 0.977 . S
C225 C213 1.453 . S
C225 H254 0.982 . S
C225 H255 0.979 . S
C225 H256 0.977 . S
C226 C213 1.684 . S
C226 H251 0.979 . S
C226 H252 0.980 . S
C226 H253 0.983 . S
C227 C228 1.391 . S
C227 C232 1.391 . S
C227 H257 0.948 . S
C228 C227 1.391 . S
C228 C229 1.391 . S
C229 C228 1.391 . S
C229 C230 1.392 . S
C229 H258 0.947 . S
C230 C229 1.392 . S
C230 C231 1.419 . S
C230 H259 0.948 . S
C231 C230 1.419 . S
C231 C232 1.391 . S
C231 C235 1.397 . S
C232 C227 1.391 . S
C232 C231 1.391 . S
C232 C233 1.399 . S
C233 C232 1.399 . S
C233 C234 1.396 . S
C233 C236 1.453 . S
C233 C237 1.684 . S
C234 C215 1.723 1_556 S
C234 C233 1.396 . S
C234 C235 1.394 . S
C235 C231 1.397 . S
C235 C234 1.394 . S
C235 C245 1.723 . S
C236 C233 1.453 . S
C236 H260 0.982 . S
C236 H261 0.979 . S
C236 H262 0.977 1_556 S
C237 C233 1.684 . S
C237 H263 0.979 . S
C237 H264 0.980 1_556 S
C237 H265 0.983 . S
C238 H214 0.948 . S
C238 C239 1.391 1_556 S
C238 C243 1.391 . S
C239 C238 1.391 1_554 S
C239 C240 1.391 . S
C240 H217 0.947 . S
C240 C239 1.391 . S
C240 C241 1.392 . S
C241 H218 0.948 . S
C241 C240 1.392 . S
C241 C242 1.419 . S
C242 C241 1.419 . S
C242 C243 1.391 1_554 S
C242 C246 1.397 . S
C243 C238 1.391 . S
C243 C242 1.391 1_556 S
C243 C244 1.399 . S
C244 C243 1.399 . S
C244 C245 1.396 . S
C244 C247 1.453 . S
C244 C248 1.684 . S
C245 C235 1.723 . S
C245 C244 1.396 . S
C245 C246 1.394 1_556 S
C246 C216 1.723 . S
C246 C242 1.397 . S
C246 C245 1.394 1_554 S
C247 H219 0.982 . S
C247 H223 0.979 . S
C247 H224 0.977 . S
C247 C244 1.453 . S
C248 H220 0.979 . S
C248 H221 0.980 . S
C248 H222 0.983 . S
C248 C244 1.684 . S
H249 C267 0.948 . S
H250 C208 0.948 . S
H251 C226 0.979 . S
H252 C226 0.980 . S
H253 C226 0.983 . S
H254 C225 0.982 . S
H255 C225 0.979 . S
H256 C225 0.977 . S
H257 C227 0.948 . S
H258 C229 0.947 . S
H259 C230 0.948 . S
H260 C236 0.982 . S
H261 C236 0.979 . S
H262 C236 0.977 1_554 S
H263 C237 0.979 . S
H264 C237 0.980 1_554 S
H265 C237 0.983 . S
H266 C210 0.947 . S
C267 C210 1.392 . S
C267 C211 1.419 . S
C267 H249 0.948 . S
C268 C269 1.391 . S
C268 C272 1.391 . S
C268 H310 0.948 . S
C269 C268 1.391 . S
C269 C270 1.391 . S
C270 C269 1.391 . S
C270 H326 0.947 . S
C270 C327 1.392 . S
C271 C272 1.391 . S
C271 C275 1.397 . S
C271 C327 1.419 . S
C272 C268 1.391 . S
C272 C271 1.391 . S
C272 C273 1.399 . S
C273 C272 1.399 . S
C273 C276 1.396 . S
C273 C285 1.453 . S
C273 C286 1.684 . S
H274 C298 0.948 . S
C275 C271 1.397 . S
C275 C276 1.394 . S
C275 C294 1.723 . S
C276 C273 1.396 . S
C276 C275 1.394 . S
C276 C306 1.763 . S
H277 C300 0.947 . S
H278 C301 0.948 . S
H279 C307 0.982 . S
H280 C308 0.979 . S
H281 C308 0.980 . S
H282 C308 0.983 . S
H283 C307 0.979 . S
H284 C307 0.977 . S
C285 C273 1.453 . S
C285 H314 0.982 . S
C285 H315 0.979 . S
C285 H316 0.977 1_455 S
C286 C273 1.684 . S
C286 H311 0.979 . S
C286 H312 0.980 1_455 S
C286 H313 0.983 . S
C287 C288 1.391 . S
C287 C292 1.391 . S
C287 H317 0.948 . S
C288 C287 1.391 . S
C288 C289 1.391 . S
C289 C288 1.391 . S
C289 C290 1.392 . S
C289 H318 0.947 . S
C290 C289 1.392 . S
C290 C291 1.419 . S
C290 H319 0.948 . S
C291 C290 1.419 . S
C291 C292 1.391 . S
C291 C295 1.397 . S
C292 C287 1.391 . S
C292 C291 1.391 . S
C292 C293 1.399 . S
C293 C292 1.399 . S
C293 C294 1.396 . S
C293 C296 1.453 . S
C293 C297 1.684 . S
C294 C275 1.723 . S
C294 C293 1.396 . S
C294 C295 1.394 . S
C295 C291 1.397 . S
C295 C294 1.394 . S
C295 C305 1.723 . S
C296 C293 1.453 . S
C296 H320 0.982 . S
C296 H321 0.979 . S
C296 H322 0.977 . S
C297 C293 1.684 . S
C297 H323 0.979 . S
C297 H324 0.980 . S
C297 H325 0.983 . S
C298 H274 0.948 . S
C298 C299 1.391 . S
C298 C303 1.391 . S
C299 C298 1.391 . S
C299 C300 1.391 . S
C300 H277 0.947 . S
C300 C299 1.391 . S
C300 C301 1.392 . S
C301 H278 0.948 . S
C301 C300 1.392 . S
C301 C302 1.419 . S
C302 C301 1.419 . S
C302 C303 1.391 . S
C302 C306 1.335 1_655 S
C303 C298 1.391 . S
C303 C302 1.391 . S
C303 C304 1.399 . S
C304 C303 1.399 . S
C304 C305 1.396 1_655 S
C304 C307 1.453 . S
C304 C308 1.684 . S
C305 C295 1.723 . S
C305 C304 1.396 1_455 S
C305 C306 1.406 . S
C306 C276 1.763 . S
C306 C302 1.335 1_455 S
C306 C305 1.406 . S
C307 H279 0.982 . S
C307 H283 0.979 . S
C307 H284 0.977 . S
C307 C304 1.453 . S
C308 H280 0.979 . S
C308 H281 0.980 . S
C308 H282 0.983 . S
C308 C304 1.684 . S
H309 C327 0.948 . S
H310 C268 0.948 . S
H311 C286 0.979 . S
H312 C286 0.980 1_655 S
H313 C286 0.983 . S
H314 C285 0.982 . S
H315 C285 0.979 . S
H316 C285 0.977 1_655 S
H317 C287 0.948 . S
H318 C289 0.947 . S
H319 C290 0.948 . S
H320 C296 0.982 . S
H321 C296 0.979 . S
H322 C296 0.977 . S
H323 C297 0.979 . S
H324 C297 0.980 . S
H325 C297 0.983 . S
H326 C270 0.947 . S
C327 C270 1.392 . S
C327 C271 1.419 . S
C327 H309 0.948 . S
C328 C329 1.391 . S
C328 C332 1.391 . S
C328 H370 0.948 . S
C329 C328 1.391 . S
C329 C330 1.391 . S
C330 C329 1.391 . S
C330 H386 0.947 . S
C330 C387 1.392 . S
C331 C332 1.391 . S
C331 C335 1.397 . S
C331 C387 1.419 . S
C332 C328 1.391 . S
C332 C331 1.391 . S
C332 C333 1.399 . S
C333 C332 1.399 . S
C333 C336 1.396 . S
C333 C345 1.453 . S
C333 C346 1.684 . S
H334 C358 0.948 . S
C335 C331 1.397 . S
C335 C336 1.394 . S
C335 C354 1.723 . S
C336 C333 1.396 . S
C336 C335 1.394 . S
C336 C366 1.763 . S
H337 C360 0.947 . S
H338 C361 0.948 . S
H339 C367 0.982 . S
H340 C368 0.979 . S
H341 C368 0.980 . S
H342 C368 0.983 . S
H343 C367 0.979 . S
H344 C367 0.977 . S
C345 C333 1.453 . S
C345 H374 0.982 . S
C345 H375 0.979 . S
C345 H376 0.977 1_565 S
C346 C333 1.684 . S
C346 H371 0.979 . S
C346 H372 0.980 1_565 S
C346 H373 0.983 . S
C347 C348 1.391 . S
C347 C352 1.391 . S
C347 H377 0.948 . S
C348 C347 1.391 . S
C348 C349 1.391 . S
C349 C348 1.391 . S
C349 C350 1.392 . S
C349 H378 0.947 . S
C350 C349 1.392 . S
C350 C351 1.419 . S
C350 H379 0.948 . S
C351 C350 1.419 . S
C351 C352 1.391 . S
C351 C355 1.397 . S
C352 C347 1.391 . S
C352 C351 1.391 . S
C352 C353 1.399 . S
C353 C352 1.399 . S
C353 C354 1.396 . S
C353 C356 1.453 . S
C353 C357 1.684 . S
C354 C335 1.723 . S
C354 C353 1.396 . S
C354 C355 1.394 . S
C355 C351 1.397 . S
C355 C354 1.394 . S
C355 C365 1.723 . S
C356 C353 1.453 . S
C356 H380 0.982 . S
C356 H381 0.979 . S
C356 H382 0.977 . S
C357 C353 1.684 . S
C357 H383 0.979 . S
C357 H384 0.980 . S
C357 H385 0.983 . S
C358 H334 0.948 . S
C358 C359 1.391 . S
C358 C363 1.391 . S
C359 C358 1.391 . S
C359 C360 1.391 . S
C360 H337 0.947 . S
C360 C359 1.391 . S
C360 C361 1.392 . S
C361 H338 0.948 . S
C361 C360 1.392 . S
C361 C362 1.419 . S
C362 C361 1.419 . S
C362 C363 1.391 . S
C362 C366 1.335 1_545 S
C363 C358 1.391 . S
C363 C362 1.391 . S
C363 C364 1.399 . S
C364 C363 1.399 . S
C364 C365 1.396 1_545 S
C364 C367 1.453 . S
C364 C368 1.684 . S
C365 C355 1.723 . S
C365 C364 1.396 1_565 S
C365 C366 1.406 . S
C366 C336 1.763 . S
C366 C362 1.335 1_565 S
C366 C365 1.406 . S
C367 H339 0.982 . S
C367 H343 0.979 . S
C367 H344 0.977 . S
C367 C364 1.453 . S
C368 H340 0.979 . S
C368 H341 0.980 . S
C368 H342 0.983 . S
C368 C364 1.684 . S
H369 C387 0.948 . S
H370 C328 0.948 . S
H371 C346 0.979 . S
H372 C346 0.980 1_545 S
H373 C346 0.983 . S
H374 C345 0.982 . S
H375 C345 0.979 . S
H376 C345 0.977 1_545 S
H377 C347 0.948 . S
H378 C349 0.947 . S
H379 C350 0.948 . S
H380 C356 0.982 . S
H381 C356 0.979 . S
H382 C356 0.977 . S
H383 C357 0.979 . S
H384 C357 0.980 . S
H385 C357 0.983 . S
H386 C330 0.947 . S
C387 C330 1.392 . S
C387 C331 1.419 . S
C387 H369 0.948 . S
C388 C389 1.391 . S
C388 C392 1.391 . S
C388 H430 0.948 . S
C389 C388 1.391 . S
C389 C390 1.391 . S
C390 C389 1.391 . S
C390 H446 0.947 . S
C390 C447 1.392 . S
C391 C392 1.391 . S
C391 C395 1.397 . S
C391 C447 1.419 . S
C392 C388 1.391 . S
C392 C391 1.391 . S
C392 C393 1.399 . S
C393 C392 1.399 . S
C393 C396 1.396 . S
C393 C405 1.453 . S
C393 C406 1.684 . S
H394 C418 0.948 . S
C395 C391 1.397 . S
C395 C396 1.394 . S
C395 C414 1.723 1_554 S
C396 C393 1.396 . S
C396 C395 1.394 . S
C396 C426 1.723 . S
H397 C420 0.947 . S
H398 C421 0.948 . S
H399 C427 0.982 . S
H400 C428 0.979 . S
H401 C428 0.980 . S
H402 C428 0.983 . S
H403 C427 0.979 . S
H404 C427 0.977 . S
C405 C393 1.453 . S
C405 H434 0.982 . S
C405 H435 0.979 . S
C405 H436 0.977 . S
C406 C393 1.684 . S
C406 H431 0.979 . S
C406 H432 0.980 . S
C406 H433 0.983 . S
C407 C408 1.391 . S
C407 C412 1.391 . S
C407 H437 0.948 . S
C408 C407 1.391 . S
C408 C409 1.391 . S
C409 C408 1.391 . S
C409 C410 1.392 . S
C409 H438 0.947 . S
C410 C409 1.392 . S
C410 C411 1.419 . S
C410 H439 0.948 . S
C411 C410 1.419 . S
C411 C412 1.391 . S
C411 C415 1.397 . S
C412 C407 1.391 . S
C412 C411 1.391 . S
C412 C413 1.399 . S
C413 C412 1.399 . S
C413 C414 1.396 . S
C413 C416 1.453 . S
C413 C417 1.684 . S
C414 C395 1.723 1_556 S
C414 C413 1.396 . S
C414 C415 1.394 . S
C415 C411 1.397 . S
C415 C414 1.394 . S
C415 C425 1.723 . S
C416 C413 1.453 . S
C416 H440 0.982 . S
C416 H441 0.979 . S
C416 H442 0.977 1_556 S
C417 C413 1.684 . S
C417 H443 0.979 . S
C417 H444 0.980 1_556 S
C417 H445 0.983 . S
C418 H394 0.948 . S
C418 C419 1.391 1_556 S
C418 C423 1.391 . S
C419 C418 1.391 1_554 S
C419 C420 1.391 . S
C420 H397 0.947 . S
C420 C419 1.391 . S
C420 C421 1.392 . S
C421 H398 0.948 . S
C421 C420 1.392 . S
C421 C422 1.419 . S
C422 C421 1.419 . S
C422 C423 1.391 1_554 S
C422 C426 1.397 . S
C423 C418 1.391 . S
C423 C422 1.391 1_556 S
C423 C424 1.399 . S
C424 C423 1.399 . S
C424 C425 1.396 . S
C424 C427 1.453 . S
C424 C428 1.684 . S
C425 C415 1.723 . S
C425 C424 1.396 . S
C425 C426 1.394 1_556 S
C426 C396 1.723 . S
C426 C422 1.397 . S
C426 C425 1.394 1_554 S
C427 H399 0.982 . S
C427 H403 0.979 . S
C427 H404 0.977 . S
C427 C424 1.453 . S
C428 H400 0.979 . S
C428 H401 0.980 . S
C428 H402 0.983 . S
C428 C424 1.684 . S
H429 C447 0.948 . S
H430 C388 0.948 . S
H431 C406 0.979 . S
H432 C406 0.980 . S
H433 C406 0.983 . S
H434 C405 0.982 . S
H435 C405 0.979 . S
H436 C405 0.977 . S
H437 C407 0.948 . S
H438 C409 0.947 . S
H439 C410 0.948 . S
H440 C416 0.982 . S
H441 C416 0.979 . S
H442 C416 0.977 1_554 S
H443 C417 0.979 . S
H444 C417 0.980 1_554 S
H445 C417 0.983 . S
H446 C390 0.947 . S
C447 C390 1.392 . S
C447 C391 1.419 . S
C447 H429 0.948 . S
C448 C449 1.391 . S
C448 C452 1.391 . S
C448 H490 0.948 . S
C449 C448 1.391 . S
C449 C450 1.391 . S
C450 C449 1.391 . S
C450 H506 0.947 . S
C450 C507 1.392 . S
C451 C452 1.391 . S
C451 C455 1.397 . S
C451 C507 1.419 . S
C452 C448 1.391 . S
C452 C451 1.391 . S
C452 C453 1.399 . S
C453 C452 1.399 . S
C453 C456 1.396 . S
C453 C465 1.453 . S
C453 C466 1.653 1_545 S
H454 C478 0.948 . S
C455 C451 1.397 . S
C455 C456 1.394 . S
C455 C474 1.723 . S
C456 C453 1.396 . S
C456 C455 1.394 . S
C456 C486 1.765 . S
H457 C480 0.947 . S
H458 C481 0.948 . S
H459 C487 0.982 . S
H460 C488 0.979 . S
H461 C488 0.980 . S
H462 C488 0.983 . S
H463 C487 0.979 . S
H464 C487 1.019 . S
C465 C453 1.453 . S
C465 H494 0.982 . S
C465 H495 0.979 . S
C465 H496 0.977 1_545 S
C466 C453 1.653 1_565 S
C466 H491 0.973 1_565 S
C466 H492 1.020 . S
C466 H493 0.980 1_565 S
C467 C468 1.391 . S
C467 C472 1.391 . S
C467 H497 0.948 . S
C468 C467 1.391 . S
C468 C469 1.391 . S
C469 C468 1.391 . S
C469 C470 1.392 . S
C469 H498 0.947 . S
C470 C469 1.392 . S
C470 C471 1.419 . S
C470 H499 0.948 . S
C471 C470 1.419 . S
C471 C472 1.391 . S
C471 C475 1.397 . S
C472 C467 1.391 . S
C472 C471 1.391 . S
C472 C473 1.399 . S
C473 C472 1.399 . S
C473 C474 1.396 . S
C473 C476 1.453 . S
C473 C477 1.684 . S
C474 C455 1.723 . S
C474 C473 1.396 . S
C474 C475 1.394 . S
C475 C471 1.397 . S
C475 C474 1.394 . S
C475 C485 1.723 . S
C476 C473 1.453 . S
C476 H500 0.982 . S
C476 H501 0.979 . S
C476 H502 0.977 . S
C477 C473 1.684 . S
C477 H503 0.979 . S
C477 H504 0.980 . S
C477 H505 0.983 . S
C478 H454 0.948 . S
C478 C479 1.391 . S
C478 C483 1.391 . S
C479 C478 1.391 . S
C479 C480 1.391 . S
C480 H457 0.947 . S
C480 C479 1.391 . S
C480 C481 1.392 . S
C481 H458 0.948 . S
C481 C480 1.392 . S
C481 C482 1.419 . S
C482 C481 1.419 . S
C482 C483 1.391 . S
C482 C486 1.332 1_565 S
C483 C478 1.391 . S
C483 C482 1.391 . S
C483 C484 1.399 . S
C484 C483 1.399 . S
C484 C485 1.396 1_565 S
C484 C487 1.453 . S
C484 C488 1.684 . S
C485 C475 1.723 . S
C485 C484 1.396 1_545 S
C485 C486 1.407 . S
C486 C456 1.765 . S
C486 C482 1.332 1_545 S
C486 C485 1.407 . S
C487 H459 0.982 . S
C487 H463 0.979 . S
C487 H464 1.019 . S
C487 C484 1.453 . S
C488 H460 0.979 . S
C488 H461 0.980 . S
C488 H462 0.983 . S
C488 C484 1.684 . S
H489 C507 0.948 . S
H490 C448 0.948 . S
H491 C466 0.973 1_545 S
H492 C466 1.020 . S
H493 C466 0.980 1_545 S
H494 C465 0.982 . S
H495 C465 0.979 . S
H496 C465 0.977 1_565 S
H497 C467 0.948 . S
H498 C469 0.947 . S
H499 C470 0.948 . S
H500 C476 0.982 . S
H501 C476 0.979 . S
H502 C476 0.977 . S
H503 C477 0.979 . S
H504 C477 0.980 . S
H505 C477 0.983 . S
H506 C450 0.947 . S
C507 C450 1.392 . S
C507 C451 1.419 . S
C507 H489 0.948 . S
C508 C509 1.391 1_554 S
C508 C512 1.391 . S
C508 H550 0.948 . S
C509 C508 1.391 1_556 S
C509 C510 1.391 . S
C510 C509 1.391 . S
C510 H566 0.947 . S
C510 C567 1.392 . S
C511 C512 1.391 1_556 S
C511 C515 1.397 . S
C511 C567 1.419 . S
C512 C508 1.391 . S
C512 C511 1.391 1_554 S
C512 C513 1.399 . S
C513 C512 1.399 . S
C513 C516 1.396 . S
C513 C525 1.453 . S
C513 C526 1.684 . S
H514 C538 0.948 . S
C515 C511 1.397 . S
C515 C516 1.394 1_556 S
C515 C534 1.723 . S
C516 C513 1.396 . S
C516 C515 1.394 1_554 S
C516 C546 1.723 . S
H517 C540 0.947 . S
H518 C541 0.948 . S
H519 C547 0.982 . S
H520 C548 0.979 . S
H521 C548 0.980 1_556 S
H522 C548 0.983 . S
H523 C547 0.979 . S
H524 C547 0.977 1_556 S
C525 C513 1.453 . S
C525 H554 0.982 . S
C525 H555 0.979 . S
C525 H556 0.977 . S
C526 C513 1.684 . S
C526 H551 0.979 . S
C526 H552 0.980 . S
C526 H553 0.983 . S
C527 C528 1.391 . S
C527 C532 1.391 . S
C527 H557 0.948 . S
C528 C527 1.391 . S
C528 C529 1.391 . S
C529 C528 1.391 . S
C529 C530 1.392 . S
C529 H558 0.947 . S
C530 C529 1.392 . S
C530 C531 1.419 . S
C530 H559 0.948 . S
C531 C530 1.419 . S
C531 C532 1.391 . S
C531 C535 1.397 . S
C532 C527 1.391 . S
C532 C531 1.391 . S
C532 C533 1.399 . S
C533 C532 1.399 . S
C533 C534 1.396 . S
C533 C536 1.453 . S
C533 C537 1.684 . S
C534 C515 1.723 . S
C534 C533 1.396 . S
C534 C535 1.394 . S
C535 C531 1.397 . S
C535 C534 1.394 . S
C535 C545 1.723 1_556 S
C536 C533 1.453 . S
C536 H560 0.982 . S
C536 H561 0.979 . S
C536 H562 0.977 . S
C537 C533 1.684 . S
C537 H563 0.979 . S
C537 H564 0.980 . S
C537 H565 0.983 . S
C538 H514 0.948 . S
C538 C539 1.391 . S
C538 C543 1.391 . S
C539 C538 1.391 . S
C539 C540 1.391 . S
C540 H517 0.947 . S
C540 C539 1.391 . S
C540 C541 1.392 . S
C541 H518 0.948 . S
C541 C540 1.392 . S
C541 C542 1.419 . S
C542 C541 1.419 . S
C542 C543 1.391 . S
C542 C546 1.397 . S
C543 C538 1.391 . S
C543 C542 1.391 . S
C543 C544 1.399 . S
C544 C543 1.399 . S
C544 C545 1.396 . S
C544 C547 1.453 . S
C544 C548 1.684 . S
C545 C535 1.723 1_554 S
C545 C544 1.396 . S
C545 C546 1.394 . S
C546 C516 1.723 . S
C546 C542 1.397 . S
C546 C545 1.394 . S
C547 H519 0.982 . S
C547 H523 0.979 . S
C547 H524 0.977 1_554 S
C547 C544 1.453 . S
C548 H520 0.979 . S
C548 H521 0.980 1_554 S
C548 H522 0.983 . S
C548 C544 1.684 . S
H549 C567 0.948 . S
H550 C508 0.948 . S
H551 C526 0.979 . S
H552 C526 0.980 . S
H553 C526 0.983 . S
H554 C525 0.982 . S
H555 C525 0.979 . S
H556 C525 0.977 . S
H557 C527 0.948 . S
H558 C529 0.947 . S
H559 C530 0.948 . S
H560 C536 0.982 . S
H561 C536 0.979 . S
H562 C536 0.977 . S
H563 C537 0.979 . S
H564 C537 0.980 . S
H565 C537 0.983 . S
H566 C510 0.947 . S
C567 C510 1.392 . S
C567 C511 1.419 . S
C567 H549 0.948 . S
H568 C586 0.951 . S
H569 C588 0.951 . S
H570 C590 0.950 . S
H571 C591 0.950 . S
H572 C593 0.950 . S
H573 C596 0.950 . S
H574 C597 0.950 . S
H575 C599 0.950 . S
H576 C600 0.950 . S
H577 C601 0.951 . S
H578 C603 0.951 . S
H579 C605 0.950 . S
H580 C606 0.950 . S
H581 C608 0.950 . S
H582 C611 0.950 . S
H583 C612 0.950 . S
H584 C614 0.950 . S
H585 C615 0.950 . S
C586 H568 0.951 . S
C586 C587 1.366 . S
C586 C588 1.388 . S
C587 C586 1.366 . S
C587 C591 1.385 . S
C588 H569 0.951 . S
C588 C586 1.388 . S
C588 C589 1.366 . S
C589 C588 1.366 . S
C589 C590 1.414 . S
C589 C592 1.499 . S
C590 H570 0.950 . S
C590 C589 1.414 . S
C590 C591 1.374 . S
C591 H571 0.950 . S
C591 C587 1.385 . S
C591 C590 1.374 . S
C592 C589 1.499 . S
C592 C593 1.373 . S
C592 C594 1.389 . S
C593 H572 0.950 . S
C593 C592 1.373 . S
C593 C609 1.377 . S
C594 C592 1.389 . S
C594 C595 1.524 . S
C594 C608 1.377 . S
C595 C594 1.524 . S
C595 C596 1.397 . S
C595 C600 1.363 . S
C596 H573 0.950 . S
C596 C595 1.397 . S
C596 C597 1.334 . S
C597 H574 0.950 . S
C597 C596 1.334 . S
C597 C598 1.287 . S
C598 C597 1.287 . S
C598 C599 1.524 . S
C598 H617 0.913 . S
C599 H575 0.950 . S
C599 C598 1.524 . S
C599 C600 1.415 . S
C600 H576 0.950 . S
C600 C595 1.363 . S
C600 C599 1.415 . S
C601 H577 0.951 . S
C601 C602 1.366 . S
C601 C603 1.388 . S
C602 C601 1.366 . S
C602 C606 1.385 . S
C603 H578 0.951 . S
C603 C601 1.388 . S
C603 C604 1.366 . S
C604 C603 1.366 . S
C604 C605 1.414 . S
C604 C607 1.499 . S
C605 H579 0.950 . S
C605 C604 1.414 . S
C605 C606 1.374 . S
C606 H580 0.950 . S
C606 C602 1.385 . S
C606 C605 1.374 . S
C607 C604 1.499 . S
C607 C608 1.373 . S
C607 C609 1.389 . S
C608 H581 0.950 . S
C608 C594 1.377 . S
C608 C607 1.373 . S
C609 C593 1.377 . S
C609 C607 1.389 . S
C609 C610 1.524 . S
C610 C609 1.524 . S
C610 C611 1.397 . S
C610 C615 1.363 . S
C611 H582 0.950 . S
C611 C610 1.397 . S
C611 C612 1.334 . S
C612 H583 0.950 . S
C612 C611 1.334 . S
C612 C613 1.287 . S
C613 C612 1.287 . S
C613 C614 1.524 . S
C613 H616 0.999 . S
C614 H584 0.950 . S
C614 C613 1.524 . S
C614 C615 1.415 . S
C615 H585 0.950 . S
C615 C610 1.363 . S
C615 C614 1.415 . S
H616 C613 0.999 . S
H617 C598 0.913 . S
H618 C636 0.951 . S
H619 C638 0.951 . S
H620 C640 0.950 . S
H621 C641 0.950 . S
H622 C643 0.950 . S
H623 C646 0.950 . S
H624 C647 0.950 . S
H625 C649 0.950 . S
H626 C650 0.950 . S
H627 C651 0.951 . S
H628 C653 0.951 . S
H629 C655 0.950 . S
H630 C656 0.950 . S
H631 C658 0.950 . S
H632 C661 0.950 . S
H633 C662 0.950 . S
H634 C664 0.950 . S
H635 C665 0.950 . S
C636 H618 0.951 . S
C636 C637 1.366 . S
C636 C638 1.388 . S
C637 C636 1.366 . S
C637 C641 1.385 . S
C638 H619 0.951 . S
C638 C636 1.388 . S
C638 C639 1.366 . S
C639 C638 1.366 . S
C639 C640 1.414 . S
C639 C642 1.499 . S
C640 H620 0.950 . S
C640 C639 1.414 . S
C640 C641 1.374 . S
C641 H621 0.950 . S
C641 C637 1.385 . S
C641 C640 1.374 . S
C642 C639 1.499 . S
C642 C643 1.373 . S
C642 C644 1.389 . S
C643 H622 0.950 . S
C643 C642 1.373 . S
C643 C659 1.377 . S
C644 C642 1.389 . S
C644 C645 1.524 . S
C644 C658 1.377 . S
C645 C644 1.524 . S
C645 C646 1.397 . S
C645 C650 1.363 . S
C646 H623 0.950 . S
C646 C645 1.397 . S
C646 C647 1.334 . S
C647 H624 0.950 . S
C647 C646 1.334 . S
C647 C648 1.287 . S
C648 C647 1.287 . S
C648 C649 1.524 . S
C648 H667 0.913 . S
C649 H625 0.950 . S
C649 C648 1.524 . S
C649 C650 1.415 . S
C650 H626 0.950 . S
C650 C645 1.363 . S
C650 C649 1.415 . S
C651 H627 0.951 . S
C651 C652 1.366 . S
C651 C653 1.388 . S
C652 C651 1.366 . S
C652 C656 1.385 . S
C653 H628 0.951 . S
C653 C651 1.388 . S
C653 C654 1.366 . S
C654 C653 1.366 . S
C654 C655 1.414 . S
C654 C657 1.499 . S
C655 H629 0.950 . S
C655 C654 1.414 . S
C655 C656 1.374 . S
C656 H630 0.950 . S
C656 C652 1.385 . S
C656 C655 1.374 . S
C657 C654 1.499 . S
C657 C658 1.373 . S
C657 C659 1.389 . S
C658 H631 0.950 . S
C658 C644 1.377 . S
C658 C657 1.373 . S
C659 C643 1.377 . S
C659 C657 1.389 . S
C659 C660 1.524 . S
C660 C659 1.524 . S
C660 C661 1.397 . S
C660 C665 1.363 . S
C661 H632 0.950 . S
C661 C660 1.397 . S
C661 C662 1.334 . S
C662 H633 0.950 . S
C662 C661 1.334 . S
C662 C663 1.287 . S
C663 C662 1.287 . S
C663 C664 1.524 . S
C663 H666 0.999 . S
C664 H634 0.950 . S
C664 C663 1.524 . S
C664 C665 1.415 . S
C665 H635 0.950 . S
C665 C660 1.363 . S
C665 C664 1.415 . S
H666 C663 0.999 . S
H667 C648 0.913 . S
H668 C686 0.951 . S
H669 C688 0.951 . S
H670 C690 0.950 . S
H671 C691 0.950 . S
H672 C693 0.950 . S
H673 C696 0.950 . S
H674 C697 0.950 . S
H675 C699 0.950 . S
H676 C700 0.950 . S
H677 C701 0.951 . S
H678 C703 0.951 . S
H679 C705 0.950 . S
H680 C706 0.950 . S
H681 C708 0.950 . S
H682 C711 0.950 . S
H683 C712 0.950 . S
H684 C714 0.950 . S
H685 C715 0.950 . S
C686 H668 0.951 . S
C686 C687 1.366 . S
C686 C688 1.388 . S
C687 C686 1.366 . S
C687 C691 1.385 . S
C688 H669 0.951 . S
C688 C686 1.388 . S
C688 C689 1.366 . S
C689 C688 1.366 . S
C689 C690 1.414 . S
C689 C692 1.499 . S
C690 H670 0.950 . S
C690 C689 1.414 . S
C690 C691 1.374 . S
C691 H671 0.950 . S
C691 C687 1.385 . S
C691 C690 1.374 . S
C692 C689 1.499 . S
C692 C693 1.373 . S
C692 C694 1.389 . S
C693 H672 0.950 . S
C693 C692 1.373 . S
C693 C709 1.377 . S
C694 C692 1.389 . S
C694 C695 1.524 . S
C694 C708 1.377 . S
C695 C694 1.524 . S
C695 C696 1.397 . S
C695 C700 1.363 . S
C696 H673 0.950 . S
C696 C695 1.397 . S
C696 C697 1.334 . S
C697 H674 0.950 . S
C697 C696 1.334 . S
C697 C698 1.287 . S
C698 C697 1.287 . S
C698 C699 1.524 . S
C698 H717 0.913 . S
C699 H675 0.950 . S
C699 C698 1.524 . S
C699 C700 1.415 . S
C700 H676 0.950 . S
C700 C695 1.363 . S
C700 C699 1.415 . S
C701 H677 0.951 . S
C701 C702 1.366 . S
C701 C703 1.388 . S
C702 C701 1.366 . S
C702 C706 1.385 . S
C703 H678 0.951 . S
C703 C701 1.388 . S
C703 C704 1.366 . S
C704 C703 1.366 . S
C704 C705 1.414 . S
C704 C707 1.499 . S
C705 H679 0.950 . S
C705 C704 1.414 . S
C705 C706 1.374 . S
C706 H680 0.950 . S
C706 C702 1.385 . S
C706 C705 1.374 . S
C707 C704 1.499 . S
C707 C708 1.373 . S
C707 C709 1.389 . S
C708 H681 0.950 . S
C708 C694 1.377 . S
C708 C707 1.373 . S
C709 C693 1.377 . S
C709 C707 1.389 . S
C709 C710 1.524 . S
C710 C709 1.524 . S
C710 C711 1.397 . S
C710 C715 1.363 . S
C711 H682 0.950 . S
C711 C710 1.397 . S
C711 C712 1.334 . S
C712 H683 0.950 . S
C712 C711 1.334 . S
C712 C713 1.287 . S
C713 C712 1.287 . S
C713 C714 1.524 . S
C713 H716 0.999 . S
C714 H684 0.950 . S
C714 C713 1.524 . S
C714 C715 1.415 . S
C715 H685 0.950 . S
C715 C710 1.363 . S
C715 C714 1.415 . S
H716 C713 0.999 . S
H717 C698 0.913 . S
H718 C736 0.951 . S
H719 C738 0.951 . S
H720 C740 0.950 . S
H721 C741 0.950 . S
H722 C743 0.950 . S
H723 C746 0.950 . S
H724 C747 0.950 . S
H725 C749 0.950 . S
H726 C750 0.950 . S
H727 C751 0.951 . S
H728 C753 0.951 . S
H729 C755 0.950 . S
H730 C756 0.950 . S
H731 C758 0.950 . S
H732 C761 0.950 . S
H733 C762 0.950 . S
H734 C764 0.950 . S
H735 C765 0.950 . S
C736 H718 0.951 . S
C736 C737 1.366 . S
C736 C738 1.388 . S
C737 C736 1.366 . S
C737 C741 1.385 . S
C738 H719 0.951 . S
C738 C736 1.388 . S
C738 C739 1.366 . S
C739 C738 1.366 . S
C739 C740 1.414 . S
C739 C742 1.499 . S
C740 H720 0.950 . S
C740 C739 1.414 . S
C740 C741 1.374 . S
C741 H721 0.950 . S
C741 C737 1.385 . S
C741 C740 1.374 . S
C742 C739 1.499 . S
C742 C743 1.373 . S
C742 C744 1.389 . S
C743 H722 0.950 . S
C743 C742 1.373 . S
C743 C759 1.377 . S
C744 C742 1.389 . S
C744 C745 1.524 . S
C744 C758 1.377 . S
C745 C744 1.524 . S
C745 C746 1.397 . S
C745 C750 1.363 . S
C746 H723 0.950 . S
C746 C745 1.397 . S
C746 C747 1.334 . S
C747 H724 0.950 . S
C747 C746 1.334 . S
C747 C748 1.287 . S
C748 C747 1.287 . S
C748 C749 1.524 . S
C748 H767 0.913 . S
C749 H725 0.950 . S
C749 C748 1.524 . S
C749 C750 1.415 . S
C750 H726 0.950 . S
C750 C745 1.363 . S
C750 C749 1.415 . S
C751 H727 0.951 . S
C751 C752 1.366 . S
C751 C753 1.388 . S
C752 C751 1.366 . S
C752 C756 1.385 . S
C753 H728 0.951 . S
C753 C751 1.388 . S
C753 C754 1.366 . S
C754 C753 1.366 . S
C754 C755 1.414 . S
C754 C757 1.499 . S
C755 H729 0.950 . S
C755 C754 1.414 . S
C755 C756 1.374 . S
C756 H730 0.950 . S
C756 C752 1.385 . S
C756 C755 1.374 . S
C757 C754 1.499 . S
C757 C758 1.373 . S
C757 C759 1.389 . S
C758 H731 0.950 . S
C758 C744 1.377 . S
C758 C757 1.373 . S
C759 C743 1.377 . S
C759 C757 1.389 . S
C759 C760 1.524 . S
C760 C759 1.524 . S
C760 C761 1.397 . S
C760 C765 1.363 . S
C761 H732 0.950 . S
C761 C760 1.397 . S
C761 C762 1.334 . S
C762 H733 0.950 . S
C762 C761 1.334 . S
C762 C763 1.287 . S
C763 C762 1.287 . S
C763 C764 1.524 . S
C763 H766 0.999 . S
C764 H734 0.950 . S
C764 C763 1.524 . S
C764 C765 1.415 . S
C765 H735 0.950 . S
C765 C760 1.363 . S
C765 C764 1.415 . S
H766 C763 0.999 . S
H767 C748 0.913 . S
H768 C786 0.951 . S
H769 C788 0.951 . S
H770 C790 0.950 . S
H771 C791 0.950 . S
H772 C793 0.950 . S
H773 C796 0.950 . S
H774 C797 0.950 . S
H775 C799 0.950 . S
H776 C800 0.950 . S
H777 C801 0.951 . S
H778 C803 0.951 . S
H779 C805 0.950 . S
H780 C806 0.950 . S
H781 C808 0.950 . S
H782 C811 0.950 . S
H783 C812 0.950 . S
H784 C814 0.950 . S
H785 C815 0.950 . S
C786 H768 0.951 . S
C786 C787 1.366 . S
C786 C788 1.388 . S
C787 C786 1.366 . S
C787 C791 1.385 . S
C788 H769 0.951 . S
C788 C786 1.388 . S
C788 C789 1.366 . S
C789 C788 1.366 . S
C789 C790 1.414 . S
C789 C792 1.499 . S
C790 H770 0.950 . S
C790 C789 1.414 . S
C790 C791 1.374 . S
C791 H771 0.950 . S
C791 C787 1.385 . S
C791 C790 1.374 . S
C792 C789 1.499 . S
C792 C793 1.373 . S
C792 C794 1.389 . S
C793 H772 0.950 . S
C793 C792 1.373 . S
C793 C809 1.377 . S
C794 C792 1.389 . S
C794 C795 1.524 . S
C794 C808 1.377 . S
C795 C794 1.524 . S
C795 C796 1.397 . S
C795 C800 1.363 . S
C796 H773 0.950 . S
C796 C795 1.397 . S
C796 C797 1.334 . S
C797 H774 0.950 . S
C797 C796 1.334 . S
C797 C798 1.287 . S
C798 C797 1.287 . S
C798 C799 1.524 . S
C798 H817 0.913 . S
C799 H775 0.950 . S
C799 C798 1.524 . S
C799 C800 1.415 . S
C800 H776 0.950 . S
C800 C795 1.363 . S
C800 C799 1.415 . S
C801 H777 0.951 . S
C801 C802 1.366 . S
C801 C803 1.388 . S
C802 C801 1.366 . S
C802 C806 1.385 . S
C803 H778 0.951 . S
C803 C801 1.388 . S
C803 C804 1.366 . S
C804 C803 1.366 . S
C804 C805 1.414 . S
C804 C807 1.499 . S
C805 H779 0.950 . S
C805 C804 1.414 . S
C805 C806 1.374 . S
C806 H780 0.950 . S
C806 C802 1.385 . S
C806 C805 1.374 . S
C807 C804 1.499 . S
C807 C808 1.373 . S
C807 C809 1.389 . S
C808 H781 0.950 . S
C808 C794 1.377 . S
C808 C807 1.373 . S
C809 C793 1.377 . S
C809 C807 1.389 . S
C809 C810 1.524 . S
C810 C809 1.524 . S
C810 C811 1.397 . S
C810 C815 1.363 . S
C811 H782 0.950 . S
C811 C810 1.397 . S
C811 C812 1.334 . S
C812 H783 0.950 . S
C812 C811 1.334 . S
C812 C813 1.287 . S
C813 C812 1.287 . S
C813 C814 1.524 . S
C813 H816 0.999 . S
C814 H784 0.950 . S
C814 C813 1.524 . S
C814 C815 1.415 . S
C815 H785 0.950 . S
C815 C810 1.363 . S
C815 C814 1.415 . S
H816 C813 0.999 . S
H817 C798 0.913 . S
H818 C836 0.951 . S
H819 C838 0.951 . S
H820 C840 0.950 . S
H821 C841 0.950 . S
H822 C843 0.950 . S
H823 C846 0.950 . S
H824 C847 0.950 . S
H825 C849 0.950 . S
H826 C850 0.950 . S
H827 C851 0.951 . S
H828 C853 0.951 . S
H829 C855 0.950 . S
H830 C856 0.950 . S
H831 C858 0.950 . S
H832 C861 0.950 . S
H833 C862 0.950 . S
H834 C864 0.950 . S
H835 C865 0.950 . S
C836 H818 0.951 . S
C836 C837 1.366 . S
C836 C838 1.388 . S
C837 C836 1.366 . S
C837 C841 1.385 . S
C838 H819 0.951 . S
C838 C836 1.388 . S
C838 C839 1.366 . S
C839 C838 1.366 . S
C839 C840 1.414 . S
C839 C842 1.499 . S
C840 H820 0.950 . S
C840 C839 1.414 . S
C840 C841 1.374 . S
C841 H821 0.950 . S
C841 C837 1.385 . S
C841 C840 1.374 . S
C842 C839 1.499 . S
C842 C843 1.373 . S
C842 C844 1.389 . S
C843 H822 0.950 . S
C843 C842 1.373 . S
C843 C859 1.377 . S
C844 C842 1.389 . S
C844 C845 1.524 . S
C844 C858 1.377 . S
C845 C844 1.524 . S
C845 C846 1.397 . S
C845 C850 1.363 . S
C846 H823 0.950 . S
C846 C845 1.397 . S
C846 C847 1.334 . S
C847 H824 0.950 . S
C847 C846 1.334 . S
C847 C848 1.287 . S
C848 C847 1.287 . S
C848 C849 1.524 . S
C848 H867 0.913 . S
C849 H825 0.950 . S
C849 C848 1.524 . S
C849 C850 1.415 . S
C850 H826 0.950 . S
C850 C845 1.363 . S
C850 C849 1.415 . S
C851 H827 0.951 . S
C851 C852 1.366 . S
C851 C853 1.388 . S
C852 C851 1.366 . S
C852 C856 1.385 . S
C853 H828 0.951 . S
C853 C851 1.388 . S
C853 C854 1.366 . S
C854 C853 1.366 . S
C854 C855 1.414 . S
C854 C857 1.499 . S
C855 H829 0.950 . S
C855 C854 1.414 . S
C855 C856 1.374 . S
C856 H830 0.950 . S
C856 C852 1.385 . S
C856 C855 1.374 . S
C857 C854 1.499 . S
C857 C858 1.373 . S
C857 C859 1.389 . S
C858 H831 0.950 . S
C858 C844 1.377 . S
C858 C857 1.373 . S
C859 C843 1.377 . S
C859 C857 1.389 . S
C859 C860 1.524 . S
C860 C859 1.524 . S
C860 C861 1.397 . S
C860 C865 1.363 . S
C861 H832 0.950 . S
C861 C860 1.397 . S
C861 C862 1.334 . S
C862 H833 0.950 . S
C862 C861 1.334 . S
C862 C863 1.287 . S
C863 C862 1.287 . S
C863 C864 1.524 . S
C863 H866 0.999 . S
C864 H834 0.950 . S
C864 C863 1.524 . S
C864 C865 1.415 . S
C865 H835 0.950 . S
C865 C860 1.363 . S
C865 C864 1.415 . S
H866 C863 0.999 . S
H867 C848 0.913 . S
H868 C886 0.951 . S
H869 C888 0.951 . S
H870 C890 0.950 . S
H871 C891 0.950 . S
H872 C893 0.950 . S
H873 C896 0.950 . S
H874 C897 0.950 . S
H875 C899 0.950 . S
H876 C900 0.950 . S
H877 C901 0.951 . S
H878 C903 0.951 . S
H879 C905 0.950 . S
H880 C906 0.950 . S
H881 C908 0.950 . S
H882 C911 0.950 . S
H883 C912 0.950 . S
H884 C914 0.950 . S
H885 C915 0.950 . S
C886 H868 0.951 . S
C886 C887 1.366 . S
C886 C888 1.388 . S
C887 C886 1.366 . S
C887 C891 1.385 . S
C888 H869 0.951 . S
C888 C886 1.388 . S
C888 C889 1.366 . S
C889 C888 1.366 . S
C889 C890 1.414 . S
C889 C892 1.499 . S
C890 H870 0.950 . S
C890 C889 1.414 . S
C890 C891 1.374 . S
C891 H871 0.950 . S
C891 C887 1.385 . S
C891 C890 1.374 . S
C892 C889 1.499 . S
C892 C893 1.373 . S
C892 C894 1.389 . S
C893 H872 0.950 . S
C893 C892 1.373 . S
C893 C909 1.377 . S
C894 C892 1.389 . S
C894 C895 1.524 . S
C894 C908 1.377 . S
C895 C894 1.524 . S
C895 C896 1.397 . S
C895 C900 1.363 . S
C896 H873 0.950 . S
C896 C895 1.397 . S
C896 C897 1.334 . S
C897 H874 0.950 . S
C897 C896 1.334 . S
C897 C898 1.287 . S
C898 C897 1.287 . S
C898 C899 1.524 . S
C898 H917 0.913 . S
C899 H875 0.950 . S
C899 C898 1.524 . S
C899 C900 1.415 . S
C900 H876 0.950 . S
C900 C895 1.363 . S
C900 C899 1.415 . S
C901 H877 0.951 . S
C901 C902 1.366 . S
C901 C903 1.388 . S
C902 C901 1.366 . S
C902 C906 1.385 . S
C903 H878 0.951 . S
C903 C901 1.388 . S
C903 C904 1.366 . S
C904 C903 1.366 . S
C904 C905 1.414 . S
C904 C907 1.499 . S
C905 H879 0.950 . S
C905 C904 1.414 . S
C905 C906 1.374 . S
C906 H880 0.950 . S
C906 C902 1.385 . S
C906 C905 1.374 . S
C907 C904 1.499 . S
C907 C908 1.373 . S
C907 C909 1.389 . S
C908 H881 0.950 . S
C908 C894 1.377 . S
C908 C907 1.373 . S
C909 C893 1.377 . S
C909 C907 1.389 . S
C909 C910 1.524 . S
C910 C909 1.524 . S
C910 C911 1.397 . S
C910 C915 1.363 . S
C911 H882 0.950 . S
C911 C910 1.397 . S
C911 C912 1.334 . S
C912 H883 0.950 . S
C912 C911 1.334 . S
C912 C913 1.287 . S
C913 C912 1.287 . S
C913 C914 1.524 . S
C913 H916 0.999 . S
C914 H884 0.950 . S
C914 C913 1.524 . S
C914 C915 1.415 . S
C915 H885 0.950 . S
C915 C910 1.363 . S
C915 C914 1.415 . S
H916 C913 0.999 . S
H917 C898 0.913 . S
H918 C936 0.951 . S
H919 C938 0.951 . S
H920 C940 0.950 . S
H921 C941 0.950 . S
H922 C943 0.950 . S
H923 C946 0.950 . S
H924 C947 0.950 . S
H925 C949 0.950 . S
H926 C950 0.950 . S
H927 C951 0.951 . S
H928 C953 0.951 . S
H929 C955 0.950 . S
H930 C956 0.950 . S
H931 C958 0.950 . S
H932 C961 0.950 . S
H933 C962 0.950 . S
H934 C964 0.950 . S
H935 C965 0.950 . S
C936 H918 0.951 . S
C936 C937 1.366 . S
C936 C938 1.388 . S
C937 C936 1.366 . S
C937 C941 1.385 . S
C938 H919 0.951 . S
C938 C936 1.388 . S
C938 C939 1.366 . S
C939 C938 1.366 . S
C939 C940 1.414 . S
C939 C942 1.499 . S
C940 H920 0.950 . S
C940 C939 1.414 . S
C940 C941 1.374 . S
C941 H921 0.950 . S
C941 C937 1.385 . S
C941 C940 1.374 . S
C942 C939 1.499 . S
C942 C943 1.373 . S
C942 C944 1.389 . S
C943 H922 0.950 . S
C943 C942 1.373 . S
C943 C959 1.377 . S
C944 C942 1.389 . S
C944 C945 1.524 . S
C944 C958 1.377 . S
C945 C944 1.524 . S
C945 C946 1.397 . S
C945 C950 1.363 . S
C946 H923 0.950 . S
C946 C945 1.397 . S
C946 C947 1.334 . S
C947 H924 0.950 . S
C947 C946 1.334 . S
C947 C948 1.287 . S
C948 C947 1.287 . S
C948 C949 1.524 . S
C948 H967 0.913 . S
C949 H925 0.950 . S
C949 C948 1.524 . S
C949 C950 1.415 . S
C950 H926 0.950 . S
C950 C945 1.363 . S
C950 C949 1.415 . S
C951 H927 0.951 . S
C951 C952 1.366 . S
C951 C953 1.388 . S
C952 C951 1.366 . S
C952 C956 1.385 . S
C953 H928 0.951 . S
C953 C951 1.388 . S
C953 C954 1.366 . S
C954 C953 1.366 . S
C954 C955 1.414 . S
C954 C957 1.499 . S
C955 H929 0.950 . S
C955 C954 1.414 . S
C955 C956 1.374 . S
C956 H930 0.950 . S
C956 C952 1.385 . S
C956 C955 1.374 . S
C957 C954 1.499 . S
C957 C958 1.373 . S
C957 C959 1.389 . S
C958 H931 0.950 . S
C958 C944 1.377 . S
C958 C957 1.373 . S
C959 C943 1.377 . S
C959 C957 1.389 . S
C959 C960 1.524 . S
C960 C959 1.524 . S
C960 C961 1.397 . S
C960 C965 1.363 . S
C961 H932 0.950 . S
C961 C960 1.397 . S
C961 C962 1.334 . S
C962 H933 0.950 . S
C962 C961 1.334 . S
C962 C963 1.287 . S
C963 C962 1.287 . S
C963 C964 1.524 . S
C963 H966 0.999 . S
C964 H934 0.950 . S
C964 C963 1.524 . S
C964 C965 1.415 . S
C965 H935 0.950 . S
C965 C960 1.363 . S
C965 C964 1.415 . S
H966 C963 0.999 . S
H967 C948 0.913 . S
H968 C986 0.951 . S
H969 C988 0.951 . S
H970 C990 0.950 . S
H971 C991 0.950 . S
H972 C993 0.950 . S
H973 C996 0.950 . S
H974 C997 0.950 . S
H975 C999 0.950 . S
H976 C1000 0.950 . S
H977 C1001 0.951 . S
H978 C1003 0.951 . S
H979 C1005 0.950 . S
H980 C1006 0.950 . S
H981 C1008 0.950 . S
H982 C1011 0.950 . S
H983 C1012 0.950 . S
H984 C1014 0.950 . S
H985 C1015 0.950 . S
C986 H968 0.951 . S
C986 C987 1.366 . S
C986 C988 1.388 . S
C987 C986 1.366 . S
C987 C991 1.385 . S
C988 H969 0.951 . S
C988 C986 1.388 . S
C988 C989 1.366 . S
C989 C988 1.366 . S
C989 C990 1.414 . S
C989 C992 1.499 . S
C990 H970 0.950 . S
C990 C989 1.414 . S
C990 C991 1.374 . S
C991 H971 0.950 . S
C991 C987 1.385 . S
C991 C990 1.374 . S
C992 C989 1.499 . S
C992 C993 1.373 . S
C992 C994 1.389 . S
C993 H972 0.950 . S
C993 C992 1.373 . S
C993 C1009 1.377 . S
C994 C992 1.389 . S
C994 C995 1.524 . S
C994 C1008 1.377 . S
C995 C994 1.524 . S
C995 C996 1.397 . S
C995 C1000 1.363 . S
C996 H973 0.950 . S
C996 C995 1.397 . S
C996 C997 1.334 . S
C997 H974 0.950 . S
C997 C996 1.334 . S
C997 C998 1.287 . S
C998 C997 1.287 . S
C998 C999 1.524 . S
C998 H1017 0.913 . S
C999 H975 0.950 . S
C999 C998 1.524 . S
C999 C1000 1.415 . S
C1000 H976 0.950 . S
C1000 C995 1.363 . S
C1000 C999 1.415 . S
C1001 H977 0.951 . S
C1001 C1002 1.366 . S
C1001 C1003 1.388 . S
C1002 C1001 1.366 . S
C1002 C1006 1.385 . S
C1003 H978 0.951 . S
C1003 C1001 1.388 . S
C1003 C1004 1.366 . S
C1004 C1003 1.366 . S
C1004 C1005 1.414 . S
C1004 C1007 1.499 . S
C1005 H979 0.950 . S
C1005 C1004 1.414 . S
C1005 C1006 1.374 . S
C1006 H980 0.950 . S
C1006 C1002 1.385 . S
C1006 C1005 1.374 . S
C1007 C1004 1.499 . S
C1007 C1008 1.373 . S
C1007 C1009 1.389 . S
C1008 H981 0.950 . S
C1008 C994 1.377 . S
C1008 C1007 1.373 . S
C1009 C993 1.377 . S
C1009 C1007 1.389 . S
C1009 C1010 1.524 . S
C1010 C1009 1.524 . S
C1010 C1011 1.397 . S
C1010 C1015 1.363 . S
C1011 H982 0.950 . S
C1011 C1010 1.397 . S
C1011 C1012 1.334 . S
C1012 H983 0.950 . S
C1012 C1011 1.334 . S
C1012 C1013 1.287 . S
C1013 C1012 1.287 . S
C1013 C1014 1.524 . S
C1013 H1016 0.999 . S
C1014 H984 0.950 . S
C1014 C1013 1.524 . S
C1014 C1015 1.415 . S
C1015 H985 0.950 . S
C1015 C1010 1.363 . S
C1015 C1014 1.415 . S
H1016 C1013 0.999 . S
H1017 C998 0.913 . S
H1018 C1036 0.951 . S
H1019 C1038 0.951 . S
H1020 C1040 0.950 . S
H1021 C1041 0.950 . S
H1022 C1043 0.950 . S
H1023 C1046 0.950 . S
H1024 C1047 0.950 . S
H1025 C1049 0.950 . S
H1026 C1050 0.950 . S
H1027 C1051 0.951 . S
H1028 C1053 0.951 . S
H1029 C1055 0.950 . S
H1030 C1056 0.950 . S
H1031 C1058 0.950 . S
H1032 C1061 0.950 . S
H1033 C1062 0.950 . S
H1034 C1064 0.950 . S
H1035 C1065 0.950 . S
C1036 H1018 0.951 . S
C1036 C1037 1.366 . S
C1036 C1038 1.388 . S
C1037 C1036 1.366 . S
C1037 C1041 1.385 . S
C1038 H1019 0.951 . S
C1038 C1036 1.388 . S
C1038 C1039 1.366 . S
C1039 C1038 1.366 . S
C1039 C1040 1.414 . S
C1039 C1042 1.499 . S
C1040 H1020 0.950 . S
C1040 C1039 1.414 . S
C1040 C1041 1.374 . S
C1041 H1021 0.950 . S
C1041 C1037 1.385 . S
C1041 C1040 1.374 . S
C1042 C1039 1.499 . S
C1042 C1043 1.373 . S
C1042 C1044 1.389 . S
C1043 H1022 0.950 . S
C1043 C1042 1.373 . S
C1043 C1059 1.377 . S
C1044 C1042 1.389 . S
C1044 C1045 1.524 . S
C1044 C1058 1.377 . S
C1045 C1044 1.524 . S
C1045 C1046 1.397 . S
C1045 C1050 1.363 . S
C1046 H1023 0.950 . S
C1046 C1045 1.397 . S
C1046 C1047 1.334 . S
C1047 H1024 0.950 . S
C1047 C1046 1.334 . S
C1047 C1048 1.287 . S
C1048 C1047 1.287 . S
C1048 C1049 1.524 . S
C1048 H1067 0.913 . S
C1049 H1025 0.950 . S
C1049 C1048 1.524 . S
C1049 C1050 1.415 . S
C1050 H1026 0.950 . S
C1050 C1045 1.363 . S
C1050 C1049 1.415 . S
C1051 H1027 0.951 . S
C1051 C1052 1.366 . S
C1051 C1053 1.388 . S
C1052 C1051 1.366 . S
C1052 C1056 1.385 . S
C1053 H1028 0.951 . S
C1053 C1051 1.388 . S
C1053 C1054 1.366 . S
C1054 C1053 1.366 . S
C1054 C1055 1.414 . S
C1054 C1057 1.499 . S
C1055 H1029 0.950 . S
C1055 C1054 1.414 . S
C1055 C1056 1.374 . S
C1056 H1030 0.950 . S
C1056 C1052 1.385 . S
C1056 C1055 1.374 . S
C1057 C1054 1.499 . S
C1057 C1058 1.373 . S
C1057 C1059 1.389 . S
C1058 H1031 0.950 . S
C1058 C1044 1.377 . S
C1058 C1057 1.373 . S
C1059 C1043 1.377 . S
C1059 C1057 1.389 . S
C1059 C1060 1.524 . S
C1060 C1059 1.524 . S
C1060 C1061 1.397 . S
C1060 C1065 1.363 . S
C1061 H1032 0.950 . S
C1061 C1060 1.397 . S
C1061 C1062 1.334 . S
C1062 H1033 0.950 . S
C1062 C1061 1.334 . S
C1062 C1063 1.287 . S
C1063 C1062 1.287 . S
C1063 C1064 1.524 . S
C1063 H1066 0.999 . S
C1064 H1034 0.950 . S
C1064 C1063 1.524 . S
C1064 C1065 1.415 . S
C1065 H1035 0.950 . S
C1065 C1060 1.363 . S
C1065 C1064 1.415 . S
H1066 C1063 0.999 . S
H1067 C1048 0.913 . S
H1068 C1086 0.951 . S
H1069 C1088 0.951 . S
H1070 C1090 0.950 . S
H1071 C1091 0.950 . S
H1072 C1093 0.950 . S
H1073 C1096 0.950 . S
H1074 C1097 0.950 . S
H1075 C1099 0.950 . S
H1076 C1100 0.950 . S
H1077 C1101 0.951 . S
H1078 C1103 0.951 . S
H1079 C1105 0.950 . S
H1080 C1106 0.950 . S
H1081 C1108 0.950 . S
H1082 C1111 0.950 . S
H1083 C1112 0.950 . S
H1084 C1114 0.950 . S
H1085 C1115 0.950 . S
C1086 H1068 0.951 . S
C1086 C1087 1.366 . S
C1086 C1088 1.388 . S
C1087 C1086 1.366 . S
C1087 C1091 1.385 . S
C1088 H1069 0.951 . S
C1088 C1086 1.388 . S
C1088 C1089 1.366 . S
C1089 C1088 1.366 . S
C1089 C1090 1.414 . S
C1089 C1092 1.499 . S
C1090 H1070 0.950 . S
C1090 C1089 1.414 . S
C1090 C1091 1.374 . S
C1091 H1071 0.950 . S
C1091 C1087 1.385 . S
C1091 C1090 1.374 . S
C1092 C1089 1.499 . S
C1092 C1093 1.373 . S
C1092 C1094 1.389 . S
C1093 H1072 0.950 . S
C1093 C1092 1.373 . S
C1093 C1109 1.377 . S
C1094 C1092 1.389 . S
C1094 C1095 1.524 . S
C1094 C1108 1.377 . S
C1095 C1094 1.524 . S
C1095 C1096 1.397 . S
C1095 C1100 1.363 . S
C1096 H1073 0.950 . S
C1096 C1095 1.397 . S
C1096 C1097 1.334 . S
C1097 H1074 0.950 . S
C1097 C1096 1.334 . S
C1097 C1098 1.287 . S
C1098 C1097 1.287 . S
C1098 C1099 1.524 . S
C1098 H1117 0.913 . S
C1099 H1075 0.950 . S
C1099 C1098 1.524 . S
C1099 C1100 1.415 . S
C1100 H1076 0.950 . S
C1100 C1095 1.363 . S
C1100 C1099 1.415 . S
C1101 H1077 0.951 . S
C1101 C1102 1.366 . S
C1101 C1103 1.388 . S
C1102 C1101 1.366 . S
C1102 C1106 1.385 . S
C1103 H1078 0.951 . S
C1103 C1101 1.388 . S
C1103 C1104 1.366 . S
C1104 C1103 1.366 . S
C1104 C1105 1.414 . S
C1104 C1107 1.499 . S
C1105 H1079 0.950 . S
C1105 C1104 1.414 . S
C1105 C1106 1.374 . S
C1106 H1080 0.950 . S
C1106 C1102 1.385 . S
C1106 C1105 1.374 . S
C1107 C1104 1.499 . S
C1107 C1108 1.373 . S
C1107 C1109 1.389 . S
C1108 H1081 0.950 . S
C1108 C1094 1.377 . S
C1108 C1107 1.373 . S
C1109 C1093 1.377 . S
C1109 C1107 1.389 . S
C1109 C1110 1.524 . S
C1110 C1109 1.524 . S
C1110 C1111 1.397 . S
C1110 C1115 1.363 . S
C1111 H1082 0.950 . S
C1111 C1110 1.397 . S
C1111 C1112 1.334 . S
C1112 H1083 0.950 . S
C1112 C1111 1.334 . S
C1112 C1113 1.287 . S
C1113 C1112 1.287 . S
C1113 C1114 1.524 . S
C1113 H1116 0.999 . S
C1114 H1084 0.950 . S
C1114 C1113 1.524 . S
C1114 C1115 1.415 . S
C1115 H1085 0.950 . S
C1115 C1110 1.363 . S
C1115 C1114 1.415 . S
H1116 C1113 0.999 . S
H1117 C1098 0.913 . S
H1118 C1136 0.951 . S
H1119 C1138 0.951 . S
H1120 C1140 0.950 . S
H1121 C1141 0.950 . S
H1122 C1143 0.950 . S
H1123 C1146 0.950 . S
H1124 C1147 0.950 . S
H1125 C1149 0.950 . S
H1126 C1150 0.950 . S
H1127 C1151 0.951 . S
H1128 C1153 0.951 . S
H1129 C1155 0.950 . S
H1130 C1156 0.950 . S
H1131 C1158 0.950 . S
H1132 C1161 0.950 . S
H1133 C1162 0.950 . S
H1134 C1164 0.950 . S
H1135 C1165 0.950 . S
C1136 H1118 0.951 . S
C1136 C1137 1.366 . S
C1136 C1138 1.388 . S
C1137 C1136 1.366 . S
C1137 C1141 1.385 . S
C1138 H1119 0.951 . S
C1138 C1136 1.388 . S
C1138 C1139 1.366 . S
C1139 C1138 1.366 . S
C1139 C1140 1.414 . S
C1139 C1142 1.499 . S
C1140 H1120 0.950 . S
C1140 C1139 1.414 . S
C1140 C1141 1.374 . S
C1141 H1121 0.950 . S
C1141 C1137 1.385 . S
C1141 C1140 1.374 . S
C1142 C1139 1.499 . S
C1142 C1143 1.373 . S
C1142 C1144 1.389 . S
C1143 H1122 0.950 . S
C1143 C1142 1.373 . S
C1143 C1159 1.377 . S
C1144 C1142 1.389 . S
C1144 C1145 1.524 . S
C1144 C1158 1.377 . S
C1145 C1144 1.524 . S
C1145 C1146 1.397 . S
C1145 C1150 1.363 . S
C1146 H1123 0.950 . S
C1146 C1145 1.397 . S
C1146 C1147 1.334 . S
C1147 H1124 0.950 . S
C1147 C1146 1.334 . S
C1147 C1148 1.287 . S
C1148 C1147 1.287 . S
C1148 C1149 1.524 . S
C1148 H1167 0.913 . S
C1149 H1125 0.950 . S
C1149 C1148 1.524 . S
C1149 C1150 1.415 . S
C1150 H1126 0.950 . S
C1150 C1145 1.363 . S
C1150 C1149 1.415 . S
C1151 H1127 0.951 . S
C1151 C1152 1.366 . S
C1151 C1153 1.388 . S
C1152 C1151 1.366 . S
C1152 C1156 1.385 . S
C1153 H1128 0.951 . S
C1153 C1151 1.388 . S
C1153 C1154 1.366 . S
C1154 C1153 1.366 . S
C1154 C1155 1.414 . S
C1154 C1157 1.499 . S
C1155 H1129 0.950 . S
C1155 C1154 1.414 . S
C1155 C1156 1.374 . S
C1156 H1130 0.950 . S
C1156 C1152 1.385 . S
C1156 C1155 1.374 . S
C1157 C1154 1.499 . S
C1157 C1158 1.373 . S
C1157 C1159 1.389 . S
C1158 H1131 0.950 . S
C1158 C1144 1.377 . S
C1158 C1157 1.373 . S
C1159 C1143 1.377 . S
C1159 C1157 1.389 . S
C1159 C1160 1.524 . S
C1160 C1159 1.524 . S
C1160 C1161 1.397 . S
C1160 C1165 1.363 . S
C1161 H1132 0.950 . S
C1161 C1160 1.397 . S
C1161 C1162 1.334 . S
C1162 H1133 0.950 . S
C1162 C1161 1.334 . S
C1162 C1163 1.287 . S
C1163 C1162 1.287 . S
C1163 C1164 1.524 . S
C1163 H1166 0.999 . S
C1164 H1134 0.950 . S
C1164 C1163 1.524 . S
C1164 C1165 1.415 . S
C1165 H1135 0.950 . S
C1165 C1160 1.363 . S
C1165 C1164 1.415 . S
H1166 C1163 0.999 . S
H1167 C1148 0.913 . S
H1168 C1186 0.951 . S
H1169 C1188 0.951 . S
H1170 C1190 0.950 . S
H1171 C1191 0.950 . S
H1172 C1193 0.950 . S
H1173 C1196 0.950 . S
H1174 C1197 0.950 . S
H1175 C1199 0.950 . S
H1176 C1200 0.950 . S
H1177 C1201 0.951 . S
H1178 C1203 0.951 . S
H1179 C1205 0.950 . S
H1180 C1206 0.950 . S
H1181 C1208 0.950 . S
H1182 C1211 0.950 . S
H1183 C1212 0.950 . S
H1184 C1214 0.950 . S
H1185 C1215 0.950 . S
C1186 H1168 0.951 . S
C1186 C1187 1.366 . S
C1186 C1188 1.388 . S
C1187 C1186 1.366 . S
C1187 C1191 1.385 . S
C1188 H1169 0.951 . S
C1188 C1186 1.388 . S
C1188 C1189 1.366 . S
C1189 C1188 1.366 . S
C1189 C1190 1.414 . S
C1189 C1192 1.499 . S
C1190 H1170 0.950 . S
C1190 C1189 1.414 . S
C1190 C1191 1.374 . S
C1191 H1171 0.950 . S
C1191 C1187 1.385 . S
C1191 C1190 1.374 . S
C1192 C1189 1.499 . S
C1192 C1193 1.373 . S
C1192 C1194 1.389 . S
C1193 H1172 0.950 . S
C1193 C1192 1.373 . S
C1193 C1209 1.377 . S
C1194 C1192 1.389 . S
C1194 C1195 1.524 . S
C1194 C1208 1.377 . S
C1195 C1194 1.524 . S
C1195 C1196 1.397 . S
C1195 C1200 1.363 . S
C1196 H1173 0.950 . S
C1196 C1195 1.397 . S
C1196 C1197 1.334 . S
C1197 H1174 0.950 . S
C1197 C1196 1.334 . S
C1197 C1198 1.287 . S
C1198 C1197 1.287 . S
C1198 C1199 1.524 . S
C1198 H1217 0.913 . S
C1199 H1175 0.950 . S
C1199 C1198 1.524 . S
C1199 C1200 1.415 . S
C1200 H1176 0.950 . S
C1200 C1195 1.363 . S
C1200 C1199 1.415 . S
C1201 H1177 0.951 . S
C1201 C1202 1.366 . S
C1201 C1203 1.388 . S
C1202 C1201 1.366 . S
C1202 C1206 1.385 . S
C1203 H1178 0.951 . S
C1203 C1201 1.388 . S
C1203 C1204 1.366 . S
C1204 C1203 1.366 . S
C1204 C1205 1.414 . S
C1204 C1207 1.499 . S
C1205 H1179 0.950 . S
C1205 C1204 1.414 . S
C1205 C1206 1.374 . S
C1206 H1180 0.950 . S
C1206 C1202 1.385 . S
C1206 C1205 1.374 . S
C1207 C1204 1.499 . S
C1207 C1208 1.373 . S
C1207 C1209 1.389 . S
C1208 H1181 0.950 . S
C1208 C1194 1.377 . S
C1208 C1207 1.373 . S
C1209 C1193 1.377 . S
C1209 C1207 1.389 . S
C1209 C1210 1.524 . S
C1210 C1209 1.524 . S
C1210 C1211 1.397 . S
C1210 C1215 1.363 . S
C1211 H1182 0.950 . S
C1211 C1210 1.397 . S
C1211 C1212 1.334 . S
C1212 H1183 0.950 . S
C1212 C1211 1.334 . S
C1212 C1213 1.287 . S
C1213 C1212 1.287 . S
C1213 C1214 1.524 . S
C1213 H1216 0.999 . S
C1214 H1184 0.950 . S
C1214 C1213 1.524 . S
C1214 C1215 1.415 . S
C1215 H1185 0.950 . S
C1215 C1210 1.363 . S
C1215 C1214 1.415 . S
H1216 C1213 0.999 . S
H1217 C1198 0.913 . S
H1218 C1236 0.951 . S
H1219 C1238 0.951 . S
H1220 C1240 0.950 . S
H1221 C1241 0.950 . S
H1222 C1243 0.950 . S
H1223 C1246 0.950 . S
H1224 C1247 0.950 . S
H1225 C1249 0.950 . S
H1226 C1250 0.950 . S
H1227 C1251 0.951 . S
H1228 C1253 0.951 . S
H1229 C1255 0.950 . S
H1230 C1256 0.950 . S
H1231 C1258 0.950 . S
H1232 C1261 0.950 . S
H1233 C1262 0.950 . S
H1234 C1264 0.950 . S
H1235 C1265 0.950 . S
C1236 H1218 0.951 . S
C1236 C1237 1.366 . S
C1236 C1238 1.388 . S
C1237 C1236 1.366 . S
C1237 C1241 1.385 . S
C1238 H1219 0.951 . S
C1238 C1236 1.388 . S
C1238 C1239 1.366 . S
C1239 C1238 1.366 . S
C1239 C1240 1.414 . S
C1239 C1242 1.499 . S
C1240 H1220 0.950 . S
C1240 C1239 1.414 . S
C1240 C1241 1.374 . S
C1241 H1221 0.950 . S
C1241 C1237 1.385 . S
C1241 C1240 1.374 . S
C1242 C1239 1.499 . S
C1242 C1243 1.373 . S
C1242 C1244 1.389 . S
C1243 H1222 0.950 . S
C1243 C1242 1.373 . S
C1243 C1259 1.377 . S
C1244 C1242 1.389 . S
C1244 C1245 1.524 . S
C1244 C1258 1.377 . S
C1245 C1244 1.524 . S
C1245 C1246 1.397 . S
C1245 C1250 1.363 . S
C1246 H1223 0.950 . S
C1246 C1245 1.397 . S
C1246 C1247 1.334 . S
C1247 H1224 0.950 . S
C1247 C1246 1.334 . S
C1247 C1248 1.287 . S
C1248 C1247 1.287 . S
C1248 C1249 1.524 . S
C1248 H1267 0.913 . S
C1249 H1225 0.950 . S
C1249 C1248 1.524 . S
C1249 C1250 1.415 . S
C1250 H1226 0.950 . S
C1250 C1245 1.363 . S
C1250 C1249 1.415 . S
C1251 H1227 0.951 . S
C1251 C1252 1.366 . S
C1251 C1253 1.388 . S
C1252 C1251 1.366 . S
C1252 C1256 1.385 . S
C1253 H1228 0.951 . S
C1253 C1251 1.388 . S
C1253 C1254 1.366 . S
C1254 C1253 1.366 . S
C1254 C1255 1.414 . S
C1254 C1257 1.499 . S
C1255 H1229 0.950 . S
C1255 C1254 1.414 . S
C1255 C1256 1.374 . S
C1256 H1230 0.950 . S
C1256 C1252 1.385 . S
C1256 C1255 1.374 . S
C1257 C1254 1.499 . S
C1257 C1258 1.373 . S
C1257 C1259 1.389 . S
C1258 H1231 0.950 . S
C1258 C1244 1.377 . S
C1258 C1257 1.373 . S
C1259 C1243 1.377 . S
C1259 C1257 1.389 . S
C1259 C1260 1.524 . S
C1260 C1259 1.524 . S
C1260 C1261 1.397 . S
C1260 C1265 1.363 . S
C1261 H1232 0.950 . S
C1261 C1260 1.397 . S
C1261 C1262 1.334 . S
C1262 H1233 0.950 . S
C1262 C1261 1.334 . S
C1262 C1263 1.287 . S
C1263 C1262 1.287 . S
C1263 C1264 1.524 . S
C1263 H1266 0.999 . S
C1264 H1234 0.950 . S
C1264 C1263 1.524 . S
C1264 C1265 1.415 . S
C1265 H1235 0.950 . S
C1265 C1260 1.363 . S
C1265 C1264 1.415 . S
H1266 C1263 0.999 . S
H1267 C1248 0.913 . S
H1268 C1286 0.951 . S
H1269 C1288 0.951 . S
H1270 C1290 0.950 . S
H1271 C1291 0.950 . S
H1272 C1293 0.950 . S
H1273 C1296 0.950 . S
H1274 C1297 0.950 . S
H1275 C1299 0.950 . S
H1276 C1300 0.950 . S
H1277 C1301 0.951 . S
H1278 C1303 0.951 . S
H1279 C1305 0.950 . S
H1280 C1306 0.950 . S
H1281 C1308 0.950 . S
H1282 C1311 0.950 . S
H1283 C1312 0.950 . S
H1284 C1314 0.950 . S
H1285 C1315 0.950 . S
C1286 H1268 0.951 . S
C1286 C1287 1.366 . S
C1286 C1288 1.388 . S
C1287 C1286 1.366 . S
C1287 C1291 1.385 . S
C1288 H1269 0.951 . S
C1288 C1286 1.388 . S
C1288 C1289 1.366 . S
C1289 C1288 1.366 . S
C1289 C1290 1.414 . S
C1289 C1292 1.499 . S
C1290 H1270 0.950 . S
C1290 C1289 1.414 . S
C1290 C1291 1.374 . S
C1291 H1271 0.950 . S
C1291 C1287 1.385 . S
C1291 C1290 1.374 . S
C1292 C1289 1.499 . S
C1292 C1293 1.373 . S
C1292 C1294 1.389 . S
C1293 H1272 0.950 . S
C1293 C1292 1.373 . S
C1293 C1309 1.377 . S
C1294 C1292 1.389 . S
C1294 C1295 1.524 . S
C1294 C1308 1.377 . S
C1295 C1294 1.524 . S
C1295 C1296 1.397 . S
C1295 C1300 1.363 . S
C1296 H1273 0.950 . S
C1296 C1295 1.397 . S
C1296 C1297 1.334 . S
C1297 H1274 0.950 . S
C1297 C1296 1.334 . S
C1297 C1298 1.287 . S
C1298 C1297 1.287 . S
C1298 C1299 1.524 . S
C1298 H1317 0.913 . S
C1299 H1275 0.950 . S
C1299 C1298 1.524 . S
C1299 C1300 1.415 . S
C1300 H1276 0.950 . S
C1300 C1295 1.363 . S
C1300 C1299 1.415 . S
C1301 H1277 0.951 . S
C1301 C1302 1.366 . S
C1301 C1303 1.388 . S
C1302 C1301 1.366 . S
C1302 C1306 1.385 . S
C1303 H1278 0.951 . S
C1303 C1301 1.388 . S
C1303 C1304 1.366 . S
C1304 C1303 1.366 . S
C1304 C1305 1.414 . S
C1304 C1307 1.499 . S
C1305 H1279 0.950 . S
C1305 C1304 1.414 . S
C1305 C1306 1.374 . S
C1306 H1280 0.950 . S
C1306 C1302 1.385 . S
C1306 C1305 1.374 . S
C1307 C1304 1.499 . S
C1307 C1308 1.373 . S
C1307 C1309 1.389 . S
C1308 H1281 0.950 . S
C1308 C1294 1.377 . S
C1308 C1307 1.373 . S
C1309 C1293 1.377 . S
C1309 C1307 1.389 . S
C1309 C1310 1.524 . S
C1310 C1309 1.524 . S
C1310 C1311 1.397 . S
C1310 C1315 1.363 . S
C1311 H1282 0.950 . S
C1311 C1310 1.397 . S
C1311 C1312 1.334 . S
C1312 H1283 0.950 . S
C1312 C1311 1.334 . S
C1312 C1313 1.287 . S
C1313 C1312 1.287 . S
C1313 C1314 1.524 . S
C1313 H1316 0.999 . S
C1314 H1284 0.950 . S
C1314 C1313 1.524 . S
C1314 C1315 1.415 . S
C1315 H1285 0.950 . S
C1315 C1310 1.363 . S
C1315 C1314 1.415 . S
H1316 C1313 0.999 . S
H1317 C1298 0.913 . S
H1318 C1336 0.951 . S
H1319 C1338 0.951 . S
H1320 C1340 0.950 . S
H1321 C1341 0.950 . S
H1322 C1343 0.950 . S
H1323 C1346 0.950 . S
H1324 C1347 0.950 . S
H1325 C1349 0.950 . S
H1326 C1350 0.950 . S
H1327 C1351 0.951 . S
H1328 C1353 0.951 . S
H1329 C1355 0.950 . S
H1330 C1356 0.950 . S
H1331 C1358 0.950 . S
H1332 C1361 0.950 . S
H1333 C1362 0.950 . S
H1334 C1364 0.950 . S
H1335 C1365 0.950 . S
C1336 H1318 0.951 . S
C1336 C1337 1.366 . S
C1336 C1338 1.388 . S
C1337 C1336 1.366 . S
C1337 C1341 1.385 . S
C1338 H1319 0.951 . S
C1338 C1336 1.388 . S
C1338 C1339 1.366 . S
C1339 C1338 1.366 . S
C1339 C1340 1.414 . S
C1339 C1342 1.499 . S
C1340 H1320 0.950 . S
C1340 C1339 1.414 . S
C1340 C1341 1.374 . S
C1341 H1321 0.950 . S
C1341 C1337 1.385 . S
C1341 C1340 1.374 . S
C1342 C1339 1.499 . S
C1342 C1343 1.373 . S
C1342 C1344 1.389 . S
C1343 H1322 0.950 . S
C1343 C1342 1.373 . S
C1343 C1359 1.377 . S
C1344 C1342 1.389 . S
C1344 C1345 1.524 . S
C1344 C1358 1.377 . S
C1345 C1344 1.524 . S
C1345 C1346 1.397 . S
C1345 C1350 1.363 . S
C1346 H1323 0.950 . S
C1346 C1345 1.397 . S
C1346 C1347 1.334 . S
C1347 H1324 0.950 . S
C1347 C1346 1.334 . S
C1347 C1348 1.287 . S
C1348 C1347 1.287 . S
C1348 C1349 1.524 . S
C1348 H1367 0.913 . S
C1349 H1325 0.950 . S
C1349 C1348 1.524 . S
C1349 C1350 1.415 . S
C1350 H1326 0.950 . S
C1350 C1345 1.363 . S
C1350 C1349 1.415 . S
C1351 H1327 0.951 . S
C1351 C1352 1.366 . S
C1351 C1353 1.388 . S
C1352 C1351 1.366 . S
C1352 C1356 1.385 . S
C1353 H1328 0.951 . S
C1353 C1351 1.388 . S
C1353 C1354 1.366 . S
C1354 C1353 1.366 . S
C1354 C1355 1.414 . S
C1354 C1357 1.499 . S
C1355 H1329 0.950 . S
C1355 C1354 1.414 . S
C1355 C1356 1.374 . S
C1356 H1330 0.950 . S
C1356 C1352 1.385 . S
C1356 C1355 1.374 . S
C1357 C1354 1.499 . S
C1357 C1358 1.373 . S
C1357 C1359 1.389 . S
C1358 H1331 0.950 . S
C1358 C1344 1.377 . S
C1358 C1357 1.373 . S
C1359 C1343 1.377 . S
C1359 C1357 1.389 . S
C1359 C1360 1.524 . S
C1360 C1359 1.524 . S
C1360 C1361 1.397 . S
C1360 C1365 1.363 . S
C1361 H1332 0.950 . S
C1361 C1360 1.397 . S
C1361 C1362 1.334 . S
C1362 H1333 0.950 . S
C1362 C1361 1.334 . S
C1362 C1363 1.287 . S
C1363 C1362 1.287 . S
C1363 C1364 1.524 . S
C1363 H1366 0.999 . S
C1364 H1334 0.950 . S
C1364 C1363 1.524 . S
C1364 C1365 1.415 . S
C1365 H1335 0.950 . S
C1365 C1360 1.363 . S
C1365 C1364 1.415 . S
H1366 C1363 0.999 . S
H1367 C1348 0.913 . S
H1368 C1386 0.951 . S
H1369 C1388 0.951 . S
H1370 C1390 0.950 . S
H1371 C1391 0.950 . S
H1372 C1393 0.950 . S
H1373 C1396 0.950 . S
H1374 C1397 0.950 . S
H1375 C1399 0.950 . S
H1376 C1400 0.950 . S
H1377 C1401 0.951 . S
H1378 C1403 0.951 . S
H1379 C1405 0.950 . S
H1380 C1406 0.950 . S
H1381 C1408 0.950 . S
H1382 C1411 0.950 . S
H1383 C1412 0.950 . S
H1384 C1414 0.950 . S
H1385 C1415 0.950 . S
C1386 H1368 0.951 . S
C1386 C1387 1.365 . S
C1386 C1388 1.388 . S
C1387 C1386 1.365 . S
C1387 C1391 1.385 1_554 S
C1388 H1369 0.951 . S
C1388 C1386 1.388 . S
C1388 C1389 1.366 . S
C1389 C1388 1.366 . S
C1389 C1390 1.414 1_554 S
C1389 C1392 1.499 1_554 S
C1390 H1370 0.950 . S
C1390 C1389 1.414 1_556 S
C1390 C1391 1.374 . S
C1391 H1371 0.950 . S
C1391 C1387 1.385 1_556 S
C1391 C1390 1.374 . S
C1392 C1389 1.499 1_556 S
C1392 C1393 1.373 . S
C1392 C1394 1.389 1_556 S
C1393 H1372 0.950 . S
C1393 C1392 1.373 . S
C1393 C1409 1.377 . S
C1394 C1392 1.389 1_554 S
C1394 C1395 1.524 . S
C1394 C1408 1.377 . S
C1395 C1394 1.524 . S
C1395 C1396 1.397 . S
C1395 C1400 1.363 . S
C1396 H1373 0.950 . S
C1396 C1395 1.397 . S
C1396 C1397 1.334 . S
C1397 H1374 0.950 . S
C1397 C1396 1.334 . S
C1397 C1398 1.287 . S
C1398 C1397 1.287 . S
C1398 C1399 1.524 . S
C1398 H1417 0.913 . S
C1399 H1375 0.950 . S
C1399 C1398 1.524 . S
C1399 C1400 1.415 . S
C1400 H1376 0.950 . S
C1400 C1395 1.363 . S
C1400 C1399 1.415 . S
C1401 H1377 0.951 . S
C1401 C1402 1.365 1_556 S
C1401 C1403 1.388 . S
C1402 C1401 1.365 1_554 S
C1402 C1406 1.385 . S
C1403 H1378 0.951 . S
C1403 C1401 1.388 . S
C1403 C1404 1.366 1_556 S
C1404 C1403 1.366 1_554 S
C1404 C1405 1.414 . S
C1404 C1407 1.499 . S
C1405 H1379 0.950 . S
C1405 C1404 1.414 . S
C1405 C1406 1.374 . S
C1406 H1380 0.950 . S
C1406 C1402 1.385 . S
C1406 C1405 1.374 . S
C1407 C1404 1.499 . S
C1407 C1408 1.373 . S
C1407 C1409 1.389 1_554 S
C1408 H1381 0.950 . S
C1408 C1394 1.377 . S
C1408 C1407 1.373 . S
C1409 C1393 1.377 . S
C1409 C1407 1.389 1_556 S
C1409 C1410 1.524 . S
C1410 C1409 1.524 . S
C1410 C1411 1.397 . S
C1410 C1415 1.363 . S
C1411 H1382 0.950 . S
C1411 C1410 1.397 . S
C1411 C1412 1.334 . S
C1412 H1383 0.950 . S
C1412 C1411 1.334 . S
C1412 C1413 1.287 . S
C1413 C1412 1.287 . S
C1413 C1414 1.524 . S
C1413 H1416 0.999 . S
C1414 H1384 0.950 . S
C1414 C1413 1.524 . S
C1414 C1415 1.415 . S
C1415 H1385 0.950 . S
C1415 C1410 1.363 . S
C1415 C1414 1.415 . S
H1416 C1413 0.999 . S
H1417 C1398 0.913 . S
H1418 C1436 0.951 . S
H1419 C1438 0.951 . S
H1420 C1440 0.950 . S
H1421 C1441 0.950 . S
H1422 C1443 0.950 . S
H1423 C1446 0.950 . S
H1424 C1447 0.950 . S
H1425 C1449 0.950 . S
H1426 C1450 0.950 . S
H1427 C1451 0.951 . S
H1428 C1453 0.951 . S
H1429 C1455 0.950 . S
H1430 C1456 0.950 . S
H1431 C1458 0.950 . S
H1432 C1461 0.950 . S
H1433 C1462 0.950 . S
H1434 C1464 0.950 . S
H1435 C1465 0.950 . S
C1436 H1418 0.951 . S
C1436 C1437 1.366 . S
C1436 C1438 1.388 . S
C1437 C1436 1.366 . S
C1437 C1441 1.385 . S
C1438 H1419 0.951 . S
C1438 C1436 1.388 . S
C1438 C1439 1.366 . S
C1439 C1438 1.366 . S
C1439 C1440 1.414 . S
C1439 C1442 1.499 . S
C1440 H1420 0.950 . S
C1440 C1439 1.414 . S
C1440 C1441 1.374 . S
C1441 H1421 0.950 . S
C1441 C1437 1.385 . S
C1441 C1440 1.374 . S
C1442 C1439 1.499 . S
C1442 C1443 1.373 . S
C1442 C1444 1.389 . S
C1443 H1422 0.950 . S
C1443 C1442 1.373 . S
C1443 C1459 1.377 . S
C1444 C1442 1.389 . S
C1444 C1445 1.524 . S
C1444 C1458 1.377 . S
C1445 C1444 1.524 . S
C1445 C1446 1.397 . S
C1445 C1450 1.363 . S
C1446 H1423 0.950 . S
C1446 C1445 1.397 . S
C1446 C1447 1.334 . S
C1447 H1424 0.950 . S
C1447 C1446 1.334 . S
C1447 C1448 1.287 . S
C1448 C1447 1.287 . S
C1448 C1449 1.524 . S
C1448 H1467 0.913 . S
C1449 H1425 0.950 . S
C1449 C1448 1.524 . S
C1449 C1450 1.415 . S
C1450 H1426 0.950 . S
C1450 C1445 1.363 . S
C1450 C1449 1.415 . S
C1451 H1427 0.951 . S
C1451 C1452 1.366 . S
C1451 C1453 1.388 . S
C1452 C1451 1.366 . S
C1452 C1456 1.385 . S
C1453 H1428 0.951 . S
C1453 C1451 1.388 . S
C1453 C1454 1.366 . S
C1454 C1453 1.366 . S
C1454 C1455 1.414 . S
C1454 C1457 1.499 . S
C1455 H1429 0.950 . S
C1455 C1454 1.414 . S
C1455 C1456 1.374 . S
C1456 H1430 0.950 . S
C1456 C1452 1.385 . S
C1456 C1455 1.374 . S
C1457 C1454 1.499 . S
C1457 C1458 1.373 . S
C1457 C1459 1.389 . S
C1458 H1431 0.950 . S
C1458 C1444 1.377 . S
C1458 C1457 1.373 . S
C1459 C1443 1.377 . S
C1459 C1457 1.389 . S
C1459 C1460 1.524 . S
C1460 C1459 1.524 . S
C1460 C1461 1.397 . S
C1460 C1465 1.363 . S
C1461 H1432 0.950 . S
C1461 C1460 1.397 . S
C1461 C1462 1.334 . S
C1462 H1433 0.950 . S
C1462 C1461 1.334 . S
C1462 C1463 1.287 . S
C1463 C1462 1.287 . S
C1463 C1464 1.524 . S
C1463 H1466 0.999 . S
C1464 H1434 0.950 . S
C1464 C1463 1.524 . S
C1464 C1465 1.415 . S
C1465 H1435 0.950 . S
C1465 C1460 1.363 . S
C1465 C1464 1.415 . S
H1466 C1463 0.999 . S
H1467 C1448 0.913 . S
H1468 C1486 0.951 . S
H1469 C1488 0.951 . S
H1470 C1490 0.950 . S
H1471 C1491 0.951 . S
H1472 C1493 0.950 . S
H1473 C1496 0.950 . S
H1474 C1497 0.950 . S
H1475 C1499 0.950 . S
H1476 C1500 0.950 . S
H1477 C1501 0.951 . S
H1478 C1503 0.951 . S
H1479 C1505 0.950 . S
H1480 C1506 0.951 . S
H1481 C1508 0.950 . S
H1482 C1511 0.950 . S
H1483 C1512 0.950 . S
H1484 C1514 0.950 . S
H1485 C1515 0.950 . S
C1486 H1468 0.951 . S
C1486 C1487 1.366 1_556 S
C1486 C1488 1.387 1_556 S
C1487 C1486 1.366 1_554 S
C1487 C1491 1.384 . S
C1488 H1469 0.951 . S
C1488 C1486 1.387 1_554 S
C1488 C1489 1.367 . S
C1489 C1488 1.367 . S
C1489 C1490 1.414 . S
C1489 C1492 1.499 . S
C1490 H1470 0.950 . S
C1490 C1489 1.414 . S
C1490 C1491 1.375 . S
C1491 H1471 0.951 . S
C1491 C1487 1.384 . S
C1491 C1490 1.375 . S
C1492 C1489 1.499 . S
C1492 C1493 1.373 1_554 S
C1492 C1494 1.389 . S
C1493 H1472 0.950 . S
C1493 C1492 1.373 1_556 S
C1493 C1509 1.377 . S
C1494 C1492 1.389 . S
C1494 C1495 1.524 . S
C1494 C1508 1.377 . S
C1495 C1494 1.524 . S
C1495 C1496 1.397 . S
C1495 C1500 1.363 . S
C1496 H1473 0.950 . S
C1496 C1495 1.397 . S
C1496 C1497 1.334 . S
C1497 H1474 0.950 . S
C1497 C1496 1.334 . S
C1497 C1498 1.287 . S
C1498 C1497 1.287 . S
C1498 C1499 1.524 . S
C1498 H1517 0.913 . S
C1499 H1475 0.950 . S
C1499 C1498 1.524 . S
C1499 C1500 1.415 . S
C1500 H1476 0.950 . S
C1500 C1495 1.363 . S
C1500 C1499 1.415 . S
C1501 H1477 0.951 . S
C1501 C1502 1.366 . S
C1501 C1503 1.387 1_554 S
C1502 C1501 1.366 . S
C1502 C1506 1.384 1_554 S
C1503 H1478 0.951 . S
C1503 C1501 1.387 1_556 S
C1503 C1504 1.366 . S
C1504 C1503 1.366 . S
C1504 C1505 1.414 . S
C1504 C1507 1.499 . S
C1505 H1479 0.950 . S
C1505 C1504 1.414 . S
C1505 C1506 1.374 . S
C1506 H1480 0.951 . S
C1506 C1502 1.384 1_556 S
C1506 C1505 1.374 . S
C1507 C1504 1.499 . S
C1507 C1508 1.373 1_556 S
C1507 C1509 1.389 . S
C1508 H1481 0.950 . S
C1508 C1494 1.377 . S
C1508 C1507 1.373 1_554 S
C1509 C1493 1.377 . S
C1509 C1507 1.389 . S
C1509 C1510 1.524 . S
C1510 C1509 1.524 . S
C1510 C1511 1.397 . S
C1510 C1515 1.363 . S
C1511 H1482 0.950 . S
C1511 C1510 1.397 . S
C1511 C1512 1.334 . S
C1512 H1483 0.950 . S
C1512 C1511 1.334 . S
C1512 C1513 1.287 . S
C1513 C1512 1.287 . S
C1513 C1514 1.524 . S
C1513 H1516 0.999 . S
C1514 H1484 0.950 . S
C1514 C1513 1.524 . S
C1514 C1515 1.415 . S
C1515 H1485 0.950 . S
C1515 C1510 1.363 . S
C1515 C1514 1.415 . S
H1516 C1513 0.999 . S
H1517 C1498 0.913 . S
H1518 C1536 0.951 . S
H1519 C1538 0.951 . S
H1520 C1540 0.950 . S
H1521 C1541 0.950 . S
H1522 C1543 0.950 . S
H1523 C1546 0.950 . S
H1524 C1547 0.950 . S
H1525 C1549 0.950 . S
H1526 C1550 0.950 . S
H1527 C1551 0.951 . S
H1528 C1553 0.951 . S
H1529 C1555 0.950 . S
H1530 C1556 0.950 . S
H1531 C1558 0.950 . S
H1532 C1561 0.950 . S
H1533 C1562 0.950 . S
H1534 C1564 0.950 . S
H1535 C1565 0.950 . S
C1536 H1518 0.951 . S
C1536 C1537 1.366 . S
C1536 C1538 1.388 . S
C1537 C1536 1.366 . S
C1537 C1541 1.385 . S
C1538 H1519 0.951 . S
C1538 C1536 1.388 . S
C1538 C1539 1.366 . S
C1539 C1538 1.366 . S
C1539 C1540 1.414 . S
C1539 C1542 1.499 . S
C1540 H1520 0.950 . S
C1540 C1539 1.414 . S
C1540 C1541 1.374 . S
C1541 H1521 0.950 . S
C1541 C1537 1.385 . S
C1541 C1540 1.374 . S
C1542 C1539 1.499 . S
C1542 C1543 1.373 . S
C1542 C1544 1.389 . S
C1543 H1522 0.950 . S
C1543 C1542 1.373 . S
C1543 C1559 1.377 . S
C1544 C1542 1.389 . S
C1544 C1545 1.524 . S
C1544 C1558 1.377 . S
C1545 C1544 1.524 . S
C1545 C1546 1.397 . S
C1545 C1550 1.363 . S
C1546 H1523 0.950 . S
C1546 C1545 1.397 . S
C1546 C1547 1.334 . S
C1547 H1524 0.950 . S
C1547 C1546 1.334 . S
C1547 C1548 1.287 . S
C1548 C1547 1.287 . S
C1548 C1549 1.524 . S
C1548 H1567 0.913 . S
C1549 H1525 0.950 . S
C1549 C1548 1.524 . S
C1549 C1550 1.415 . S
C1550 H1526 0.950 . S
C1550 C1545 1.363 . S
C1550 C1549 1.415 . S
C1551 H1527 0.951 . S
C1551 C1552 1.366 . S
C1551 C1553 1.388 . S
C1552 C1551 1.366 . S
C1552 C1556 1.385 . S
C1553 H1528 0.951 . S
C1553 C1551 1.388 . S
C1553 C1554 1.366 . S
C1554 C1553 1.366 . S
C1554 C1555 1.414 . S
C1554 C1557 1.499 . S
C1555 H1529 0.950 . S
C1555 C1554 1.414 . S
C1555 C1556 1.374 . S
C1556 H1530 0.950 . S
C1556 C1552 1.385 . S
C1556 C1555 1.374 . S
C1557 C1554 1.499 . S
C1557 C1558 1.373 . S
C1557 C1559 1.389 . S
C1558 H1531 0.950 . S
C1558 C1544 1.377 . S
C1558 C1557 1.373 . S
C1559 C1543 1.377 . S
C1559 C1557 1.389 . S
C1559 C1560 1.524 . S
C1560 C1559 1.524 . S
C1560 C1561 1.397 . S
C1560 C1565 1.363 . S
C1561 H1532 0.950 . S
C1561 C1560 1.397 . S
C1561 C1562 1.334 . S
C1562 H1533 0.950 . S
C1562 C1561 1.334 . S
C1562 C1563 1.287 . S
C1563 C1562 1.287 . S
C1563 C1564 1.524 . S
C1563 H1566 0.999 . S
C1564 H1534 0.950 . S
C1564 C1563 1.524 . S
C1564 C1565 1.415 . S
C1565 H1535 0.950 . S
C1565 C1560 1.363 . S
C1565 C1564 1.415 . S
H1566 C1563 0.999 . S
H1567 C1548 0.913 . S
H1568 C1586 0.951 . S
H1569 C1588 0.951 . S
H1570 C1590 0.950 . S
H1571 C1591 0.950 . S
H1572 C1593 0.950 . S
H1573 C1596 0.950 . S
H1574 C1597 0.950 . S
H1575 C1599 0.950 . S
H1576 C1600 0.950 . S
H1577 C1601 0.951 . S
H1578 C1603 0.951 . S
H1579 C1605 0.950 . S
H1580 C1606 0.950 . S
H1581 C1608 0.950 . S
H1582 C1611 0.950 . S
H1583 C1612 0.950 . S
H1584 C1614 0.950 . S
H1585 C1615 0.950 . S
C1586 H1568 0.951 . S
C1586 C1587 1.366 . S
C1586 C1588 1.388 . S
C1587 C1586 1.366 . S
C1587 C1591 1.385 . S
C1588 H1569 0.951 . S
C1588 C1586 1.388 . S
C1588 C1589 1.366 . S
C1589 C1588 1.366 . S
C1589 C1590 1.414 . S
C1589 C1592 1.499 . S
C1590 H1570 0.950 . S
C1590 C1589 1.414 . S
C1590 C1591 1.374 . S
C1591 H1571 0.950 . S
C1591 C1587 1.385 . S
C1591 C1590 1.374 . S
C1592 C1589 1.499 . S
C1592 C1593 1.373 . S
C1592 C1594 1.389 . S
C1593 H1572 0.950 . S
C1593 C1592 1.373 . S
C1593 C1609 1.377 . S
C1594 C1592 1.389 . S
C1594 C1595 1.524 . S
C1594 C1608 1.377 . S
C1595 C1594 1.524 . S
C1595 C1596 1.397 . S
C1595 C1600 1.363 . S
C1596 H1573 0.950 . S
C1596 C1595 1.397 . S
C1596 C1597 1.334 . S
C1597 H1574 0.950 . S
C1597 C1596 1.334 . S
C1597 C1598 1.287 . S
C1598 C1597 1.287 . S
C1598 C1599 1.524 . S
C1598 H1617 0.913 . S
C1599 H1575 0.950 . S
C1599 C1598 1.524 . S
C1599 C1600 1.415 . S
C1600 H1576 0.950 . S
C1600 C1595 1.363 . S
C1600 C1599 1.415 . S
C1601 H1577 0.951 . S
C1601 C1602 1.366 . S
C1601 C1603 1.388 . S
C1602 C1601 1.366 . S
C1602 C1606 1.385 . S
C1603 H1578 0.951 . S
C1603 C1601 1.388 . S
C1603 C1604 1.366 . S
C1604 C1603 1.366 . S
C1604 C1605 1.414 . S
C1604 C1607 1.499 . S
C1605 H1579 0.950 . S
C1605 C1604 1.414 . S
C1605 C1606 1.374 . S
C1606 H1580 0.950 . S
C1606 C1602 1.385 . S
C1606 C1605 1.374 . S
C1607 C1604 1.499 . S
C1607 C1608 1.373 . S
C1607 C1609 1.389 . S
C1608 H1581 0.950 . S
C1608 C1594 1.377 . S
C1608 C1607 1.373 . S
C1609 C1593 1.377 . S
C1609 C1607 1.389 . S
C1609 C1610 1.524 . S
C1610 C1609 1.524 . S
C1610 C1611 1.397 . S
C1610 C1615 1.363 . S
C1611 H1582 0.950 . S
C1611 C1610 1.397 . S
C1611 C1612 1.334 . S
C1612 H1583 0.950 . S
C1612 C1611 1.334 . S
C1612 C1613 1.287 . S
C1613 C1612 1.287 . S
C1613 C1614 1.524 . S
C1613 H1616 0.999 . S
C1614 H1584 0.950 . S
C1614 C1613 1.524 . S
C1614 C1615 1.415 . S
C1615 H1585 0.950 . S
C1615 C1610 1.363 . S
C1615 C1614 1.415 . S
H1616 C1613 0.999 . S
H1617 C1598 0.913 . S
H1618 C1636 0.951 . S
H1619 C1638 0.951 . S
H1620 C1640 0.950 . S
H1621 C1641 0.950 . S
H1622 C1643 0.950 . S
H1623 C1646 0.950 . S
H1624 C1647 0.950 . S
H1625 C1649 0.950 . S
H1626 C1650 0.950 . S
H1627 C1651 0.951 . S
H1628 C1653 0.951 . S
H1629 C1655 0.950 . S
H1630 C1656 0.950 . S
H1631 C1658 0.950 . S
H1632 C1661 0.950 . S
H1633 C1662 0.950 . S
H1634 C1664 0.950 . S
H1635 C1665 0.950 . S
C1636 H1618 0.951 . S
C1636 C1637 1.366 1_556 S
C1636 C1638 1.388 . S
C1637 C1636 1.366 1_554 S
C1637 C1641 1.384 . S
C1638 H1619 0.951 . S
C1638 C1636 1.388 . S
C1638 C1639 1.366 1_556 S
C1639 C1638 1.366 1_554 S
C1639 C1640 1.414 . S
C1639 C1642 1.499 . S
C1640 H1620 0.950 . S
C1640 C1639 1.414 . S
C1640 C1641 1.374 . S
C1641 H1621 0.950 . S
C1641 C1637 1.384 . S
C1641 C1640 1.374 . S
C1642 C1639 1.499 . S
C1642 C1643 1.373 . S
C1642 C1644 1.391 . S
C1643 H1622 0.950 . S
C1643 C1642 1.373 . S
C1643 C1659 1.376 1_554 S
C1644 C1642 1.391 . S
C1644 C1645 1.526 . S
C1644 C1658 1.375 1_554 S
C1645 C1644 1.526 . S
C1645 C1646 1.397 . S
C1645 C1650 1.363 1_554 S
C1646 H1623 0.950 . S
C1646 C1645 1.397 . S
C1646 C1647 1.334 . S
C1647 H1624 0.950 . S
C1647 C1646 1.334 . S
C1647 C1648 1.287 . S
C1648 C1647 1.287 . S
C1648 C1649 1.524 1_554 S
C1648 H1667 0.913 . S
C1649 H1625 0.950 . S
C1649 C1648 1.524 1_556 S
C1649 C1650 1.415 . S
C1650 H1626 0.950 . S
C1650 C1645 1.363 1_556 S
C1650 C1649 1.415 . S
C1651 H1627 0.951 . S
C1651 C1652 1.366 . S
C1651 C1653 1.388 . S
C1652 C1651 1.366 . S
C1652 C1656 1.384 1_554 S
C1653 H1628 0.951 . S
C1653 C1651 1.388 . S
C1653 C1654 1.366 1_554 S
C1654 C1653 1.366 1_556 S
C1654 C1655 1.414 . S
C1654 C1657 1.499 . S
C1655 H1629 0.950 . S
C1655 C1654 1.414 . S
C1655 C1656 1.374 . S
C1656 H1630 0.950 . S
C1656 C1652 1.384 1_556 S
C1656 C1655 1.374 . S
C1657 C1654 1.499 . S
C1657 C1658 1.373 . S
C1657 C1659 1.390 . S
C1658 H1631 0.950 . S
C1658 C1644 1.375 1_556 S
C1658 C1657 1.373 . S
C1659 C1643 1.376 1_556 S
C1659 C1657 1.390 . S
C1659 C1660 1.526 . S
C1660 C1659 1.526 . S
C1660 C1661 1.397 . S
C1660 C1665 1.363 1_556 S
C1661 H1632 0.950 . S
C1661 C1660 1.397 . S
C1661 C1662 1.334 . S
C1662 H1633 0.950 . S
C1662 C1661 1.334 . S
C1662 C1663 1.287 . S
C1663 C1662 1.287 . S
C1663 C1664 1.524 1_556 S
C1663 H1666 0.999 . S
C1664 H1634 0.950 . S
C1664 C1663 1.524 1_554 S
C1664 C1665 1.415 . S
C1665 H1635 0.950 . S
C1665 C1660 1.363 1_554 S
C1665 C1664 1.415 . S
H1666 C1663 0.999 . S
H1667 C1648 0.913 . S
H1668 C1686 0.951 . S
H1669 C1688 0.951 . S
H1670 C1690 0.950 . S
H1671 C1691 0.950 . S
H1672 C1693 0.950 . S
H1673 C1696 0.950 . S
H1674 C1697 0.950 . S
H1675 C1699 0.950 . S
H1676 C1700 0.950 . S
H1677 C1701 0.951 . S
H1678 C1703 0.951 . S
H1679 C1705 0.950 . S
H1680 C1706 0.950 . S
H1681 C1708 0.950 . S
H1682 C1711 0.950 . S
H1683 C1712 0.950 . S
H1684 C1714 0.950 . S
H1685 C1715 0.950 . S
C1686 H1668 0.951 . S
C1686 C1687 1.366 . S
C1686 C1688 1.388 . S
C1687 C1686 1.366 . S
C1687 C1691 1.385 . S
C1688 H1669 0.951 . S
C1688 C1686 1.388 . S
C1688 C1689 1.366 . S
C1689 C1688 1.366 . S
C1689 C1690 1.414 . S
C1689 C1692 1.499 . S
C1690 H1670 0.950 . S
C1690 C1689 1.414 . S
C1690 C1691 1.374 . S
C1691 H1671 0.950 . S
C1691 C1687 1.385 . S
C1691 C1690 1.374 . S
C1692 C1689 1.499 . S
C1692 C1693 1.373 . S
C1692 C1694 1.389 . S
C1693 H1672 0.950 . S
C1693 C1692 1.373 . S
C1693 C1709 1.377 . S
C1694 C1692 1.389 . S
C1694 C1695 1.524 . S
C1694 C1708 1.377 . S
C1695 C1694 1.524 . S
C1695 C1696 1.397 . S
C1695 C1700 1.363 . S
C1696 H1673 0.950 . S
C1696 C1695 1.397 . S
C1696 C1697 1.334 . S
C1697 H1674 0.950 . S
C1697 C1696 1.334 . S
C1697 C1698 1.287 . S
C1698 C1697 1.287 . S
C1698 C1699 1.524 . S
C1698 H1717 0.913 . S
C1699 H1675 0.950 . S
C1699 C1698 1.524 . S
C1699 C1700 1.415 . S
C1700 H1676 0.950 . S
C1700 C1695 1.363 . S
C1700 C1699 1.415 . S
C1701 H1677 0.951 . S
C1701 C1702 1.366 . S
C1701 C1703 1.388 . S
C1702 C1701 1.366 . S
C1702 C1706 1.385 . S
C1703 H1678 0.951 . S
C1703 C1701 1.388 . S
C1703 C1704 1.366 . S
C1704 C1703 1.366 . S
C1704 C1705 1.414 . S
C1704 C1707 1.499 . S
C1705 H1679 0.950 . S
C1705 C1704 1.414 . S
C1705 C1706 1.374 . S
C1706 H1680 0.950 . S
C1706 C1702 1.385 . S
C1706 C1705 1.374 . S
C1707 C1704 1.499 . S
C1707 C1708 1.373 . S
C1707 C1709 1.389 . S
C1708 H1681 0.950 . S
C1708 C1694 1.377 . S
C1708 C1707 1.373 . S
C1709 C1693 1.377 . S
C1709 C1707 1.389 . S
C1709 C1710 1.524 . S
C1710 C1709 1.524 . S
C1710 C1711 1.397 . S
C1710 C1715 1.363 . S
C1711 H1682 0.950 . S
C1711 C1710 1.397 . S
C1711 C1712 1.334 . S
C1712 H1683 0.950 . S
C1712 C1711 1.334 . S
C1712 C1713 1.287 . S
C1713 C1712 1.287 . S
C1713 C1714 1.524 . S
C1713 H1716 0.999 . S
C1714 H1684 0.950 . S
C1714 C1713 1.524 . S
C1714 C1715 1.415 . S
C1715 H1685 0.950 . S
C1715 C1710 1.363 . S
C1715 C1714 1.415 . S
H1716 C1713 0.999 . S
H1717 C1698 0.913 . S
H1718 C1736 0.951 . S
H1719 C1738 0.951 . S
H1720 C1740 0.950 . S
H1721 C1741 0.950 . S
H1722 C1743 0.950 . S
H1723 C1746 0.950 . S
H1724 C1747 0.950 . S
H1725 C1749 0.950 . S
H1726 C1750 0.950 . S
H1727 C1751 0.951 . S
H1728 C1753 0.951 . S
H1729 C1755 0.950 . S
H1730 C1756 0.950 . S
H1731 C1758 0.950 . S
H1732 C1761 0.950 . S
H1733 C1762 0.950 . S
H1734 C1764 0.950 . S
H1735 C1765 0.950 . S
C1736 H1718 0.951 . S
C1736 C1737 1.366 . S
C1736 C1738 1.388 . S
C1737 C1736 1.366 . S
C1737 C1741 1.385 1_554 S
C1738 H1719 0.951 . S
C1738 C1736 1.388 . S
C1738 C1739 1.366 . S
C1739 C1738 1.366 . S
C1739 C1740 1.414 1_554 S
C1739 C1742 1.499 . S
C1740 H1720 0.950 . S
C1740 C1739 1.414 1_556 S
C1740 C1741 1.374 . S
C1741 H1721 0.950 . S
C1741 C1737 1.385 1_556 S
C1741 C1740 1.374 . S
C1742 C1739 1.499 . S
C1742 C1743 1.373 1_554 S
C1742 C1744 1.389 . S
C1743 H1722 0.950 . S
C1743 C1742 1.373 1_556 S
C1743 C1759 1.377 . S
C1744 C1742 1.389 . S
C1744 C1745 1.524 . S
C1744 C1758 1.377 . S
C1745 C1744 1.524 . S
C1745 C1746 1.397 . S
C1745 C1750 1.363 . S
C1746 H1723 0.950 . S
C1746 C1745 1.397 . S
C1746 C1747 1.334 . S
C1747 H1724 0.950 . S
C1747 C1746 1.334 . S
C1747 C1748 1.287 . S
C1748 C1747 1.287 . S
C1748 C1749 1.524 . S
C1748 H1767 0.913 . S
C1749 H1725 0.950 . S
C1749 C1748 1.524 . S
C1749 C1750 1.415 . S
C1750 H1726 0.950 . S
C1750 C1745 1.363 . S
C1750 C1749 1.415 . S
C1751 H1727 0.951 . S
C1751 C1752 1.366 1_556 S
C1751 C1753 1.388 . S
C1752 C1751 1.366 1_554 S
C1752 C1756 1.385 . S
C1753 H1728 0.951 . S
C1753 C1751 1.388 . S
C1753 C1754 1.366 . S
C1754 C1753 1.366 . S
C1754 C1755 1.414 1_556 S
C1754 C1757 1.499 . S
C1755 H1729 0.950 . S
C1755 C1754 1.414 1_554 S
C1755 C1756 1.374 . S
C1756 H1730 0.950 . S
C1756 C1752 1.385 . S
C1756 C1755 1.374 . S
C1757 C1754 1.499 . S
C1757 C1758 1.373 1_556 S
C1757 C1759 1.389 . S
C1758 H1731 0.950 . S
C1758 C1744 1.377 . S
C1758 C1757 1.373 1_554 S
C1759 C1743 1.377 . S
C1759 C1757 1.389 . S
C1759 C1760 1.524 . S
C1760 C1759 1.524 . S
C1760 C1761 1.397 . S
C1760 C1765 1.363 . S
C1761 H1732 0.950 . S
C1761 C1760 1.397 . S
C1761 C1762 1.334 . S
C1762 H1733 0.950 . S
C1762 C1761 1.334 . S
C1762 C1763 1.287 . S
C1763 C1762 1.287 . S
C1763 C1764 1.524 . S
C1763 H1766 0.999 . S
C1764 H1734 0.950 . S
C1764 C1763 1.524 . S
C1764 C1765 1.415 . S
C1765 H1735 0.950 . S
C1765 C1760 1.363 . S
C1765 C1764 1.415 . S
H1766 C1763 0.999 . S
H1767 C1748 0.913 . S
C587 C5 1.432 . S
C602 C269 1.395 . S
C637 C31 1.431 . S
C652 C89 1.401 . S
C702 C168 1.398 . S
C687 C53 1.430 . S
C737 C71 1.431 . S
C752 C228 1.430 . S
C802 C389 1.398 . S
C787 C75 1.430 . S
C852 C468 1.427 . S
C837 C9 1.433 . S
C902 C539 1.428 . S
C887 C27 1.430 . S
C952 C329 1.398 . S
C937 C49 1.433 . S
C987 C51 1.432 . S
C1002 C179 1.455 . S
C1037 C72 1.431 . S
C1052 C209 1.370 . S
C1087 C6 1.431 . S
C1102 C288 1.455 . S
C1152 C108 1.452 . S
C1137 C29 1.430 . S
C1187 C28 1.432 . S
C1202 C528 1.375 . S
C1252 C348 1.452 . S
C1237 C50 1.429 . S
C1302 C408 1.452 . S
C1287 C73 1.434 . S
C1337 C7 1.431 . S
C1352 C449 1.369 . S
C1402 C119 1.474 1_554 S
C1387 C4 1.481 . S
C1452 C149 1.475 . S
C1437 C30 1.482 . S
C1487 C52 1.481 . S
C1502 C239 1.449 . S
C1537 C70 1.482 . S
C1552 C299 1.475 . S
C1602 C359 1.474 . S
C1587 C74 1.482 . S
C1637 C8 1.482 . S
C1652 C419 1.475 . S
C1687 C26 1.481 . S
C1702 C479 1.449 . S
C1737 C48 1.482 . S
C1752 C509 1.449 1_554 S
