# Generated by pormake.
# Topology pyr, (3,6)-cn, num edge types: 1
# Building blocks:
#     Node 0, Type 0, BuildingBlock: QEWDON_clean_linker_0, # of connection points: 3
#     Node 1, Type 0, BuildingBlock: QEWDON_clean_linker_0, # of connection points: 3
#     Node 2, Type 0, BuildingBlock: QEWDON_clean_linker_0, # of connection points: 3
#     Node 3, Type 0, BuildingBlock: QEWDON_clean_linker_0, # of connection points: 3
#     Node 4, Type 0, BuildingBlock: QEWDON_clean_linker_0, # of connection points: 3
#     Node 5, Type 0, BuildingBlock: QEWDON_clean_linker_0, # of connection points: 3
#     Node 6, Type 0, BuildingBlock: QEWDON_clean_linker_0, # of connection points: 3
#     Node 7, Type 0, BuildingBlock: QEWDON_clean_linker_0, # of connection points: 3
#     Node 8, Type 1, BuildingBlock: LEVNOQ01_clean_sbu_1, # of connection points: 6
#     Node 9, Type 1, BuildingBlock: LEVNOQ01_clean_sbu_1, # of connection points: 6
#     Node 10, Type 1, BuildingBlock: LEVNOQ01_clean_sbu_1, # of connection points: 6
#     Node 11, Type 1, BuildingBlock: LEVNOQ01_clean_sbu_1, # of connection points: 6
#     Edge 12, Type (0, 1), BuildingBlock: MIFKUJ_clean_linker_0, # of connection points: 2
#     Edge 13, Type (0, 1), BuildingBlock: MIFKUJ_clean_linker_0, # of connection points: 2
#     Edge 14, Type (0, 1), BuildingBlock: MIFKUJ_clean_linker_0, # of connection points: 2
#     Edge 15, Type (0, 1), BuildingBlock: MIFKUJ_clean_linker_0, # of connection points: 2
#     Edge 16, Type (0, 1), BuildingBlock: MIFKUJ_clean_linker_0, # of connection points: 2
#     Edge 17, Type (0, 1), BuildingBlock: MIFKUJ_clean_linker_0, # of connection points: 2
#     Edge 18, Type (0, 1), BuildingBlock: MIFKUJ_clean_linker_0, # of connection points: 2
#     Edge 19, Type (0, 1), BuildingBlock: MIFKUJ_clean_linker_0, # of connection points: 2
#     Edge 20, Type (0, 1), BuildingBlock: MIFKUJ_clean_linker_0, # of connection points: 2
#     Edge 21, Type (0, 1), BuildingBlock: MIFKUJ_clean_linker_0, # of connection points: 2
#     Edge 22, Type (0, 1), BuildingBlock: MIFKUJ_clean_linker_0, # of connection points: 2
#     Edge 23, Type (0, 1), BuildingBlock: MIFKUJ_clean_linker_0, # of connection points: 2
#     Edge 24, Type (0, 1), BuildingBlock: MIFKUJ_clean_linker_0, # of connection points: 2
#     Edge 25, Type (0, 1), BuildingBlock: MIFKUJ_clean_linker_0, # of connection points: 2
#     Edge 26, Type (0, 1), BuildingBlock: MIFKUJ_clean_linker_0, # of connection points: 2
#     Edge 27, Type (0, 1), BuildingBlock: MIFKUJ_clean_linker_0, # of connection points: 2
#     Edge 28, Type (0, 1), BuildingBlock: MIFKUJ_clean_linker_0, # of connection points: 2
#     Edge 29, Type (0, 1), BuildingBlock: MIFKUJ_clean_linker_0, # of connection points: 2
#     Edge 30, Type (0, 1), BuildingBlock: MIFKUJ_clean_linker_0, # of connection points: 2
#     Edge 31, Type (0, 1), BuildingBlock: MIFKUJ_clean_linker_0, # of connection points: 2
#     Edge 32, Type (0, 1), BuildingBlock: MIFKUJ_clean_linker_0, # of connection points: 2
#     Edge 33, Type (0, 1), BuildingBlock: MIFKUJ_clean_linker_0, # of connection points: 2
#     Edge 34, Type (0, 1), BuildingBlock: MIFKUJ_clean_linker_0, # of connection points: 2
#     Edge 35, Type (0, 1), BuildingBlock: MIFKUJ_clean_linker_0, # of connection points: 2
# Relax obj value: 0.130
# Max RMSD: 0.254
# Mean RMSD: 0.192
data_MOF--net-pry--node1-LEVNOQ01_clean_sbu_1--node2-QEWDON_clean_linker_0--edge1-MIFKUJ_clean_linker_0
_symmetry_space_group_name_H-M    P1
_symmetry_Int_Tables_number       1
_symmetry_cell_setting            triclinic
loop_
_symmetry_equiv_pos_as_xyz
'x, y, z'
_cell_length_a     47.834859
_cell_length_b     46.497193
_cell_length_c     49.582483
_cell_angle_alpha  91.988768
_cell_angle_beta   91.838775
_cell_angle_gamma 103.71871
loop_
_atom_site_label
_atom_site_type_symbol
_atom_site_fract_x
_atom_site_fract_y
_atom_site_fract_z
_atom_type_partial_charge
H0 H 0.18818 0.21 0.13641 0.0
C1 C 0.17475 0.19665 0.15069 0.0
C2 C 0.18168 0.17032 0.15997 0.0
C3 C 0.15186 0.20737 0.16148 0.0
H4 H 0.1701 0.13609 0.18921 0.0
C5 C 0.16523 0.15569 0.18118 0.0
C6 C 0.14314 0.16668 0.19314 0.0
C7 C 0.13578 0.1914 0.18178 0.0
C8 C 0.1497 0.23899 0.15872 0.0
H9 H 0.1186 0.19995 0.19019 0.0
C10 C 0.13872 0.2507 0.13537 0.0
C11 C 0.1355 0.28059 0.13629 0.0
C12 C 0.15706 0.25743 0.18221 0.0
H13 H 0.16526 0.24926 0.20031 0.0
C14 C 0.15337 0.28617 0.18318 0.0
H15 H 0.1327 0.23691 0.11708 0.0
C16 C 0.1427 0.29758 0.16062 0.0
H17 H 0.13998 0.32006 0.16222 0.0
H18 H 0.15873 0.29971 0.20168 0.0
H19 H 0.35697 0.94587 0.70645 0.0
C20 C 0.37186 0.93508 0.69655 0.0
C21 C 0.39827 0.9345 0.70987 0.0
C22 C 0.36393 0.91999 0.67129 0.0
H23 H 0.43602 0.91672 0.70875 0.0
C24 C 0.41641 0.91828 0.69793 0.0
C25 C 0.4087 0.90298 0.67278 0.0
C26 C 0.38306 0.90509 0.65932 0.0
C27 C 0.33404 0.91452 0.65918 0.0
H28 H 0.37662 0.89285 0.64024 0.0
C29 C 0.31972 0.93738 0.65427 0.0
C30 C 0.29179 0.9303 0.64165 0.0
C31 C 0.31987 0.88503 0.65162 0.0
H32 H 0.32993 0.86694 0.65552 0.0
C33 C 0.2927 0.8783 0.63885 0.0
H34 H 0.33014 0.9602 0.66 0.0
C35 C 0.27881 0.9007 0.63382 0.0
H36 H 0.25765 0.89486 0.62375 0.0
H37 H 0.28234 0.85556 0.63285 0.0
H38 H 0.64202 0.47245 0.90937 0.0
C39 C 0.63698 0.44945 0.91478 0.0
C40 C 0.659 0.43711 0.92449 0.0
C41 C 0.60881 0.43182 0.91091 0.0
H42 H 0.67028 0.39843 0.93946 0.0
C43 C 0.65302 0.40754 0.9314 0.0
C44 C 0.62494 0.38994 0.92847 0.0
C45 C 0.6028 0.40215 0.91822 0.0
C46 C 0.58693 0.44316 0.89571 0.0
H47 H 0.58129 0.38817 0.91467 0.0
C48 C 0.5948 0.45789 0.87197 0.0
C49 C 0.57426 0.46598 0.85501 0.0
C50 C 0.55812 0.43747 0.90313 0.0
H51 H 0.5515 0.42598 0.92135 0.0
C52 C 0.53762 0.44651 0.88686 0.0
H53 H 0.61697 0.462 0.86606 0.0
C54 C 0.54555 0.46055 0.8628 0.0
H55 H 0.52911 0.46623 0.84995 0.0
H56 H 0.51541 0.44201 0.8926 0.0
H57 H 0.88435 0.67544 0.37698 0.0
C58 C 0.87294 0.66216 0.39254 0.0
C59 C 0.87641 0.67302 0.41951 0.0
C60 C 0.8526 0.63547 0.38537 0.0
H61 H 0.86405 0.66404 0.46022 0.0
C62 C 0.86092 0.656 0.43929 0.0
C63 C 0.83812 0.63176 0.43197 0.0
C64 C 0.83521 0.62054 0.40525 0.0
C65 C 0.84718 0.62468 0.35682 0.0
H66 H 0.81811 0.60129 0.3995 0.0
C67 C 0.87027 0.62546 0.3399 0.0
C68 C 0.86498 0.61462 0.31314 0.0
C69 C 0.81877 0.61329 0.34635 0.0
H70 H 0.80043 0.61317 0.35862 0.0
C71 C 0.81367 0.60222 0.31971 0.0
H72 H 0.89227 0.63431 0.34747 0.0
C73 C 0.83669 0.60282 0.30312 0.0
H74 H 0.83247 0.59458 0.28233 0.0
H75 H 0.79182 0.59345 0.31183 0.0
H76 H 0.85838 0.89741 0.90938 0.0
C77 C 0.87012 0.90773 0.89254 0.0
C78 C 0.89412 0.89758 0.88323 0.0
C79 C 0.85978 0.9295 0.87877 0.0
H80 H 0.92445 0.90107 0.85116 0.0
C81 C 0.90697 0.90932 0.85918 0.0
C82 C 0.89689 0.93096 0.8449 0.0
C83 C 0.87473 0.94207 0.85627 0.0
C84 C 0.83037 0.93523 0.88314 0.0
H85 H 0.86752 0.95962 0.84645 0.0
C86 C 0.81976 0.94208 0.90864 0.0
C87 C 0.79182 0.94807 0.90993 0.0
C88 C 0.81235 0.93405 0.85984 0.0
H89 H 0.81907 0.92816 0.84015 0.0
C90 C 0.78552 0.94045 0.86116 0.0
H91 H 0.83292 0.94288 0.92695 0.0
C92 C 0.77543 0.9475 0.88582 0.0
H93 H 0.75441 0.95249 0.88609 0.0
H94 H 0.77237 0.93984 0.84287 0.0
H95 H 0.67694 0.19571 0.4586 0.0
C96 C 0.66875 0.18822 0.43827 0.0
C97 C 0.68209 0.16941 0.42318 0.0
C98 C 0.64361 0.19555 0.42812 0.0
H99 H 0.67971 0.14251 0.38681 0.0
C100 C 0.66993 0.15794 0.39763 0.0
C101 C 0.64527 0.1657 0.38641 0.0
C102 C 0.63251 0.18484 0.40206 0.0
C103 C 0.6252 0.20784 0.44686 0.0
H104 H 0.61327 0.19086 0.39459 0.0
C105 C 0.62617 0.2385 0.45018 0.0
C106 C 0.60799 0.24834 0.46867 0.0
C107 C 0.60575 0.18754 0.46166 0.0
H108 H 0.60448 0.164 0.45927 0.0
C109 C 0.58775 0.19722 0.47959 0.0
H110 H 0.64096 0.25442 0.43879 0.0
C111 C 0.58893 0.22733 0.48318 0.0
H112 H 0.57469 0.23431 0.49725 0.0
H113 H 0.57281 0.18129 0.4908 0.0
H114 H 0.40676 0.70305 0.2106 0.0
C115 C 0.38406 0.69714 0.20461 0.0
C116 C 0.3714 0.71808 0.19273 0.0
C117 C 0.36767 0.66803 0.20748 0.0
H118 H 0.33195 0.72631 0.17613 0.0
C119 C 0.34209 0.7102 0.18517 0.0
C120 C 0.32637 0.68097 0.18608 0.0
C121 C 0.33885 0.65992 0.19778 0.0
C122 C 0.38038 0.64634 0.22126 0.0
H123 H 0.3264 0.63724 0.19868 0.0
C124 C 0.39461 0.65449 0.24639 0.0
C125 C 0.40299 0.63337 0.26219 0.0
C126 C 0.37625 0.61708 0.21089 0.0
H127 H 0.36534 0.61035 0.1914 0.0
C128 C 0.38592 0.59621 0.22587 0.0
H129 H 0.39769 0.6771 0.25431 0.0
C130 C 0.39891 0.60413 0.25156 0.0
H131 H 0.40465 0.58712 0.26343 0.0
H132 H 0.38249 0.57361 0.21793 0.0
H133 H 0.14537 0.46618 0.66507 0.0
C134 C 0.13414 0.4533 0.64765 0.0
C135 C 0.14943 0.45042 0.62443 0.0
C136 C 0.10537 0.43704 0.64931 0.0
H137 H 0.14781 0.42782 0.58543 0.0
C138 C 0.13573 0.43172 0.60278 0.0
C139 C 0.10782 0.41462 0.60488 0.0
C140 C 0.09208 0.4187 0.62722 0.0
C141 C 0.09051 0.43586 0.67512 0.0
H142 H 0.07045 0.405 0.6285 0.0
C143 C 0.09469 0.46122 0.69229 0.0
C144 C 0.08145 0.45974 0.71702 0.0
C145 C 0.07299 0.40894 0.68333 0.0
H146 H 0.07027 0.38858 0.67121 0.0
C147 C 0.0593 0.40775 0.7078 0.0
H148 H 0.10838 0.48206 0.68666 0.0
C149 C 0.06344 0.4331 0.72463 0.0
H150 H 0.05345 0.43171 0.74402 0.0
H151 H 0.04599 0.387 0.71399 0.0
O152 O 0.01545 0.02878 0.57496 0.0
Mg153 Mg 0.03053 0.0607 0.54595 0.0
O154 O 0.97403 0.02414 0.55369 0.0
Mg155 Mg 0.99561 0.04334 0.51169 0.0
O156 O 0.0128 0.09251 0.53114 0.0
O157 O 0.0396 0.09711 0.56981 0.0
O158 O 0.018 0.06259 0.46959 0.0
O159 O 0.95298 0.06247 0.50314 0.0
Mg160 Mg 0.95978 0.01556 0.4598 0.0
O161 O 0.97587 0.99746 0.49206 0.0
O162 O 0.99223 0.03694 0.43487 0.0
O163 O 0.92661 0.03596 0.46927 0.0
O164 O 0.94979 0.97062 0.45759 0.0
C165 C 0.06422 0.03454 0.52237 0.0
C166 C 0.98848 0.01924 0.57458 0.0
C167 C 0.02677 0.10867 0.55144 0.0
C168 C 0.01396 0.0565 0.4439 0.0
C169 C 0.93003 0.05617 0.48764 0.0
C170 C 0.96425 0.97198 0.4802 0.0
O171 O 0.06961 0.06168 0.5286 0.0
O172 O 0.03765 0.02076 0.51884 0.0
O173 O 0.45379 0.09721 0.08658 0.0
Mg174 Mg 0.49697 0.1028 0.07838 0.0
O175 O 0.44664 0.05436 0.06389 0.0
Mg176 Mg 0.49579 0.04884 0.05341 0.0
O177 O 0.51059 0.09737 0.03986 0.0
O178 O 0.50783 0.1408 0.05996 0.0
O179 O 0.54418 0.04316 0.04175 0.0
O180 O 0.47883 0.03786 0.00632 0.0
Mg181 Mg 0.49842 0.98426 0.03361 0.0
O182 O 0.47995 0.00126 0.0646 0.0
O183 O 0.54337 0.99532 0.03653 0.0
O184 O 0.47931 0.99086 0.9969 0.0
O185 O 0.47609 0.95286 0.0573 0.0
C186 C 0.52534 0.07862 0.11731 0.0
C187 C 0.43664 0.0741 0.07686 0.0
C188 C 0.51434 0.12595 0.03968 0.0
C189 C 0.55726 0.02212 0.03762 0.0
C190 C 0.47409 0.015 0.9898 0.0
C191 C 0.47053 0.97434 0.07164 0.0
O192 O 0.52502 0.10447 0.11097 0.0
O193 O 0.51415 0.05665 0.10077 0.0
O194 O 0.50494 0.63367 0.62509 0.0
Mg195 Mg 0.49725 0.5888 0.633 0.0
O196 O 0.50699 0.62935 0.58031 0.0
Mg197 Mg 0.51405 0.58125 0.56839 0.0
O198 O 0.5249 0.5735 0.61049 0.0
O199 O 0.52662 0.57043 0.65454 0.0
O200 O 0.52225 0.53402 0.55554 0.0
O201 O 0.56287 0.60064 0.56645 0.0
Mg202 Mg 0.54062 0.58677 0.51193 0.0
O203 O 0.50194 0.58952 0.52539 0.0
O204 O 0.54427 0.54242 0.51662 0.0
O205 O 0.57213 0.62306 0.52852 0.0
O206 O 0.51325 0.59449 0.48224 0.0
C207 C 0.44846 0.55652 0.59284 0.0
C208 C 0.50554 0.64478 0.60203 0.0
C209 C 0.53634 0.56499 0.63146 0.0
C210 C 0.53471 0.52518 0.53533 0.0
C211 C 0.58032 0.61763 0.55183 0.0
C212 C 0.49501 0.59423 0.50089 0.0
O213 O 0.45678 0.56442 0.61716 0.0
O214 O 0.46541 0.56085 0.5732 0.0
O215 O 0.05596 0.54837 0.06737 0.0
Mg216 Mg 0.04865 0.5892 0.06361 0.0
O217 O 0.02976 0.5406 0.02889 0.0
Mg218 Mg 0.01279 0.58809 0.01573 0.0
O219 O 0.00762 0.6016 0.05864 0.0
O220 O 0.01077 0.5624 0.07913 0.0
O221 O 0.99412 0.63424 0.00566 0.0
O222 O 0.96842 0.55522 0.01629 0.0
Mg223 Mg 0.99114 0.59378 0.9738 0.0
O224 O 0.02321 0.57234 0.9729 0.0
O225 O 0.00431 0.63719 0.96329 0.0
O226 O 0.94936 0.5807 0.98811 0.0
O227 O 0.98981 0.56953 0.93939 0.0
C228 C 0.07601 0.61176 0.01703 0.0
C229 C 0.04432 0.53086 0.04788 0.0
C230 C 0.99607 0.58099 0.07389 0.0
C231 C 0.99695 0.64929 0.98403 0.0
C232 C 0.94633 0.56071 0.00495 0.0
C233 C 0.01379 0.56477 0.94834 0.0
O234 O 0.06921 0.58617 0.02522 0.0
O235 O 0.05536 0.62377 0.01482 0.0
H236 H 0.12468 0.19722 0.23523 0.0
H237 H 0.10388 0.17912 0.27708 0.0
H238 H 0.1123 0.0913 0.25474 0.0
H239 H 0.13123 0.10882 0.21134 0.0
H240 H 0.06369 0.08663 0.27936 0.0
H241 H 0.16063 0.14182 0.30257 0.0
H242 H 0.20118 0.18594 0.30242 0.0
H243 H 0.15069 0.2379 0.34291 0.0
H244 H 0.10972 0.19414 0.34302 0.0
H245 H 0.04062 0.02852 0.40778 0.0
H246 H 0.06449 0.04783 0.36712 0.0
H247 H 0.05491 0.13514 0.39009 0.0
H248 H 0.03163 0.11573 0.43161 0.0
H249 H 0.10416 0.14058 0.3653 0.0
H250 H 0.00768 0.08719 0.34242 0.0
H251 H 0.9654 0.04474 0.34105 0.0
H252 H 0.01301 0.991 0.2989 0.0
H253 H 0.05573 0.03305 0.30034 0.0
C254 C 0.1216 0.17382 0.23856 0.0
C255 C 0.12971 0.15466 0.21913 0.0
C256 C 0.1101 0.16355 0.26313 0.0
C257 C 0.10699 0.13384 0.26986 0.0
C258 C 0.11458 0.11441 0.25046 0.0
C259 C 0.12576 0.12461 0.22555 0.0
C260 C 0.09598 0.12335 0.29703 0.0
C261 C 0.07296 0.09821 0.29811 0.0
C262 C 0.10715 0.13873 0.32185 0.0
C263 C 0.13209 0.16475 0.32268 0.0
C264 C 0.15818 0.16267 0.31141 0.0
C265 C 0.18122 0.18761 0.31131 0.0
C266 C 0.1785 0.21471 0.32262 0.0
C267 C 0.15277 0.21689 0.33417 0.0
C268 C 0.12966 0.19201 0.3343 0.0
C269 C 0.04435 0.05204 0.40462 0.0
C270 C 0.03455 0.07059 0.42329 0.0
C271 C 0.05767 0.06306 0.38101 0.0
C272 C 0.06098 0.09294 0.37473 0.0
C273 C 0.0526 0.11197 0.3941 0.0
C274 C 0.03949 0.10092 0.41806 0.0
C275 C 0.07204 0.10367 0.34764 0.0
C276 C 0.095 0.12889 0.34656 0.0
C277 C 0.06068 0.08849 0.32278 0.0
C278 C 0.03499 0.06319 0.32172 0.0
C279 C 0.00919 0.06626 0.33302 0.0
C280 C 0.98514 0.04228 0.33221 0.0
C281 C 0.98654 0.01517 0.31996 0.0
C282 C 0.01197 0.01201 0.30842 0.0
C283 C 0.03611 0.03592 0.3092 0.0
H284 H 0.9679 0.99662 0.31936 0.0
H285 H 0.19633 0.23402 0.32245 0.0
H286 H 0.43743 0.98582 0.72604 0.0
H287 H 0.45067 0.00585 0.77247 0.0
H288 H 0.39015 0.93088 0.80279 0.0
H289 H 0.37612 0.91187 0.75641 0.0
H290 H 0.3854 0.97558 0.83016 0.0
H291 H 0.4674 0.94092 0.80408 0.0
H292 H 0.50844 0.93687 0.77657 0.0
H293 H 0.54714 0.02932 0.79269 0.0
H294 H 0.50608 0.03404 0.81996 0.0
H295 H 0.43613 0.97024 0.96331 0.0
H296 H 0.42473 0.96318 0.91514 0.0
H297 H 0.47585 0.05104 0.90256 0.0
H298 H 0.48812 0.05801 0.9516 0.0
H299 H 0.48668 0.00713 0.8655 0.0
H300 H 0.40242 0.0367 0.89675 0.0
H301 H 0.36245 0.03392 0.92753 0.0
H302 H 0.32901 0.94216 0.9038 0.0
H303 H 0.36897 0.94429 0.87315 0.0
C304 C 0.42683 0.97391 0.74272 0.0
C305 C 0.40552 0.94754 0.73775 0.0
C306 C 0.43461 0.98515 0.7693 0.0
C307 C 0.42174 0.96981 0.79148 0.0
C308 C 0.4004 0.94338 0.78627 0.0
C309 C 0.39232 0.93246 0.75975 0.0
C310 C 0.42982 0.98127 0.8201 0.0
C311 C 0.40761 0.98228 0.83774 0.0
C312 C 0.4588 0.99066 0.83032 0.0
C313 C 0.48344 0.98793 0.81377 0.0
C314 C 0.48451 0.96047 0.80154 0.0
C315 C 0.50781 0.95803 0.78603 0.0
C316 C 0.53033 0.98285 0.7828 0.0
C317 C 0.52964 0.01013 0.79514 0.0
C318 C 0.50635 0.01271 0.81063 0.0
C319 C 0.44452 0.98843 0.95048 0.0
C320 C 0.4627 0.0149 0.96146 0.0
C321 C 0.43801 0.98429 0.92278 0.0
C322 C 0.44914 0.0066 0.90502 0.0
C323 C 0.46687 0.03349 0.91584 0.0
C324 C 0.47349 0.03769 0.9439 0.0
C325 C 0.44221 0.00095 0.87532 0.0
C326 C 0.46457 0.00094 0.85757 0.0
C327 C 0.41336 0.99163 0.86506 0.0
C328 C 0.3887 0.99068 0.88268 0.0
C329 C 0.38654 0.01594 0.89812 0.0
C330 C 0.36391 0.01446 0.91556 0.0
C331 C 0.34321 0.98788 0.91762 0.0
C332 C 0.34503 0.96275 0.90216 0.0
C333 C 0.36763 0.9641 0.88469 0.0
H334 H 0.32575 0.98676 0.9312 0.0
H335 H 0.54836 0.98091 0.77081 0.0
H336 H 0.55732 0.51057 0.82879 0.0
H337 H 0.56929 0.52661 0.78298 0.0
H338 H 0.6231 0.46457 0.77602 0.0
H339 H 0.61035 0.44744 0.82068 0.0
H340 H 0.62615 0.54563 0.75268 0.0
H341 H 0.58971 0.42292 0.74015 0.0
H342 H 0.55207 0.38337 0.75875 0.0
H343 H 0.49307 0.44007 0.75727 0.0
H344 H 0.5304 0.47982 0.73889 0.0
H345 H 0.59524 0.579 0.62688 0.0
H346 H 0.62473 0.55235 0.65271 0.0
H347 H 0.54749 0.48404 0.6649 0.0
H348 H 0.5211 0.50695 0.63467 0.0
H349 H 0.57706 0.46485 0.68753 0.0
H350 H 0.58876 0.58026 0.70504 0.0
H351 H 0.61233 0.63151 0.69381 0.0
H352 H 0.6937 0.60792 0.68991 0.0
H353 H 0.67056 0.55662 0.7012 0.0
C354 C 0.57185 0.50055 0.81752 0.0
C355 C 0.58284 0.47774 0.82836 0.0
C356 C 0.57907 0.5101 0.79167 0.0
C357 C 0.59735 0.49696 0.7765 0.0
C358 C 0.60933 0.47522 0.78771 0.0
C359 C 0.60195 0.46548 0.81326 0.0
C360 C 0.59961 0.50148 0.74741 0.0
C361 C 0.61504 0.52838 0.73815 0.0
C362 C 0.58524 0.47892 0.72886 0.0
C363 C 0.56263 0.45404 0.73796 0.0
C364 C 0.56859 0.4267 0.74352 0.0
C365 C 0.54738 0.40436 0.75416 0.0
C366 C 0.52018 0.40918 0.75912 0.0
C367 C 0.51408 0.43631 0.75338 0.0
C368 C 0.53522 0.45869 0.74285 0.0
C369 C 0.58551 0.55708 0.63358 0.0
C370 C 0.55578 0.54532 0.63008 0.0
C371 C 0.60201 0.54246 0.64954 0.0
C372 C 0.58809 0.51801 0.66417 0.0
C373 C 0.55963 0.50343 0.65549 0.0
C374 C 0.54401 0.51662 0.63779 0.0
C375 C 0.59913 0.51146 0.69152 0.0
C376 C 0.58761 0.4831 0.70126 0.0
C377 C 0.61424 0.53414 0.71057 0.0
C378 C 0.62792 0.56468 0.70345 0.0
C379 C 0.61165 0.58609 0.70171 0.0
C380 C 0.62493 0.61509 0.69536 0.0
C381 C 0.65446 0.62292 0.69102 0.0
C382 C 0.67082 0.6018 0.69316 0.0
C383 C 0.65766 0.57279 0.69953 0.0
H384 H 0.66469 0.64536 0.68609 0.0
H385 H 0.50386 0.39191 0.76745 0.0
H386 H 0.88657 0.661 0.28311 0.0
H387 H 0.91492 0.65978 0.24301 0.0
H388 H 0.9234 0.57211 0.26116 0.0
H389 H 0.89459 0.57316 0.30119 0.0
H390 H 0.97344 0.6161 0.23146 0.0
H391 H 0.87244 0.5617 0.22714 0.0
H392 H 0.82123 0.55611 0.23689 0.0
H393 H 0.82057 0.63585 0.19593 0.0
H394 H 0.87193 0.64198 0.18616 0.0
H395 H 0.96893 0.53958 0.10721 0.0
H396 H 0.94791 0.55038 0.14928 0.0
H397 H 0.95003 0.63881 0.12452 0.0
H398 H 0.97243 0.62866 0.0825 0.0
H399 H 0.89749 0.59819 0.15776 0.0
H400 H 1.00003 0.64522 0.15567 0.0
H401 H 0.05015 0.64513 0.14567 0.0
H402 H 0.04802 0.5744 0.19955 0.0
H403 H 0.99756 0.57352 0.2093 0.0
C404 C 0.8956 0.64207 0.27908 0.0
C405 C 0.88855 0.6171 0.29474 0.0
C406 C 0.91181 0.64144 0.25638 0.0
C407 C 0.92097 0.61582 0.2493 0.0
C408 C 0.91662 0.5921 0.26662 0.0
C409 C 0.90013 0.59263 0.28925 0.0
C410 C 0.92842 0.61119 0.22132 0.0
C411 C 0.95697 0.61219 0.2153 0.0
C412 C 0.90674 0.60605 0.20047 0.0
C413 C 0.87599 0.60249 0.20624 0.0
C414 C 0.8614 0.57816 0.22044 0.0
C415 C 0.83236 0.57484 0.22588 0.0
C416 C 0.81768 0.59568 0.21713 0.0
C417 C 0.832 0.61978 0.20277 0.0
C418 C 0.86105 0.62317 0.19724 0.0
C419 C 0.96413 0.56107 0.11026 0.0
C420 C 0.97324 0.5837 0.09215 0.0
C421 C 0.95223 0.56716 0.13432 0.0
C422 C 0.94851 0.5956 0.14005 0.0
C423 C 0.95342 0.61689 0.12033 0.0
C424 C 0.96595 0.611 0.09634 0.0
C425 C 0.94259 0.6036 0.1677 0.0
C426 C 0.91415 0.60277 0.17377 0.0
C427 C 0.96439 0.60838 0.18853 0.0
C428 C 0.99482 0.60898 0.18285 0.0
C429 C 0.01007 0.62933 0.16506 0.0
C430 C 0.03859 0.62951 0.1595 0.0
C431 C 0.05223 0.60968 0.17187 0.0
C432 C 0.0374 0.58968 0.1899 0.0
C433 C 0.00882 0.58932 0.19543 0.0
H434 H 0.07432 0.60989 0.16758 0.0
H435 H 0.7952 0.5931 0.2214 0.0
H436 H 0.20878 0.18027 0.11054 0.0
H437 H 0.25007 0.16357 0.0945 0.0
H438 H 0.25282 0.11562 0.167 0.0
H439 H 0.21455 0.1352 0.18466 0.0
H440 H 0.30259 0.13392 0.15801 0.0
H441 H 0.22547 0.08579 0.09259 0.0
H442 H 0.18799 0.08389 0.05671 0.0
H443 H 0.2502 0.13862 0.00807 0.0
H444 H 0.28794 0.14106 0.04375 0.0
H445 H 0.39997 0.04893 0.11578 0.0
H446 H 0.35505 0.06228 0.12773 0.0
H447 H 0.36028 0.11586 0.05795 0.0
H448 H 0.40432 0.10148 0.04562 0.0
H449 H 0.30726 0.09558 0.06427 0.0
H450 H 0.38388 0.14319 0.12762 0.0
H451 H 0.42258 0.14635 0.16251 0.0
H452 H 0.36218 0.09429 0.21447 0.0
H453 H 0.32321 0.0905 0.17976 0.0
C454 C 0.21824 0.16656 0.12347 0.0
C455 C 0.20709 0.15916 0.14912 0.0
C456 C 0.24185 0.15629 0.11381 0.0
C457 C 0.25474 0.13726 0.1289 0.0
C458 C 0.24371 0.12998 0.15445 0.0
C459 C 0.22086 0.14095 0.16446 0.0
C460 C 0.28011 0.12559 0.11909 0.0
C461 C 0.30304 0.12502 0.13757 0.0
C462 C 0.28225 0.11495 0.0921 0.0
C463 C 0.25941 0.11385 0.07095 0.0
C464 C 0.23107 0.09759 0.07433 0.0
C465 C 0.20981 0.09638 0.05401 0.0
C466 C 0.21669 0.11119 0.03016 0.0
C467 C 0.24487 0.12721 0.02656 0.0
C468 C 0.26619 0.1285 0.04681 0.0
C469 C 0.39075 0.06241 0.10232 0.0
C470 C 0.40532 0.0732 0.07914 0.0
C471 C 0.36533 0.07074 0.10953 0.0
C472 C 0.35415 0.09091 0.09425 0.0
C473 C 0.36799 0.10038 0.07033 0.0
C474 C 0.39316 0.09181 0.06301 0.0
C475 C 0.32899 0.10309 0.10344 0.0
C476 C 0.30642 0.1041 0.08479 0.0
C477 C 0.3272 0.11426 0.13023 0.0
C478 C 0.35071 0.11628 0.15096 0.0
C479 C 0.37891 0.13221 0.1464 0.0
C480 C 0.40088 0.13415 0.16616 0.0
C481 C 0.39486 0.12045 0.19065 0.0
C482 C 0.36684 0.10483 0.19547 0.0
C483 C 0.3448 0.10279 0.17576 0.0
H484 H 0.41189 0.122 0.20593 0.0
H485 H 0.20021 0.11019 0.01445 0.0
H486 H 0.30276 0.97499 0.60588 0.0
H487 H 0.26633 -0.00158 0.58578 0.0
H488 H 0.205 0.95591 0.64241 0.0
H489 H 0.24129 0.93326 0.66283 0.0
H490 H 0.19626 0.94204 0.57865 0.0
H491 H 0.21281 0.01602 0.65249 0.0
H492 H 0.24275 0.05684 0.68119 0.0
H493 H 0.26216 0.10956 0.61176 0.0
H494 H 0.23277 0.06875 0.58252 0.0
H495 H 0.06293 0.98165 0.54608 0.0
H496 H 0.10477 0.96707 0.56638 0.0
H497 H 0.16158 0.04142 0.5314 0.0
H498 H 0.12005 0.056 0.51136 0.0
H499 H 0.17517 0.04139 0.58344 0.0
H500 H 0.15667 0.97023 0.50982 0.0
H501 H 0.12936 0.92937 0.47954 0.0
H502 H 0.11717 0.87123 0.54582 0.0
H503 H 0.14328 0.91204 0.57672 0.0
C504 C 0.28198 0.97198 0.61488 0.0
C505 C 0.27486 0.95251 0.63603 0.0
C506 C 0.26111 0.9851 0.60324 0.0
C507 C 0.23293 0.97873 0.61255 0.0
C508 C 0.22661 0.9612 0.63501 0.0
C509 C 0.24743 0.94846 0.64678 0.0
C510 C 0.20896 0.98616 0.59661 0.0
C511 C 0.19139 0.96367 0.57985 0.0
C512 C 0.20326 0.0146 0.59769 0.0
C513 C 0.22098 0.03911 0.61523 0.0
C514 C 0.22381 0.03612 0.64326 0.0
C515 C 0.24059 0.05931 0.65965 0.0
C516 C 0.25446 0.08573 0.64829 0.0
C517 C 0.25149 0.08904 0.62052 0.0
C518 C 0.23477 0.06588 0.60403 0.0
C519 C 0.08438 0.99409 0.54179 0.0
C520 C 0.08817 0.01978 0.52686 0.0
C521 C 0.10834 0.986 0.5537 0.0
C522 C 0.13647 0.00335 0.5507 0.0
C523 C 0.14022 0.02785 0.53432 0.0
C524 C 0.11642 0.0359 0.52252 0.0
C525 C 0.1619 0.997 0.56557 0.0
C526 C 0.17989 0.01971 0.5821 0.0
C527 C 0.16816 0.96873 0.56414 0.0
C528 C 0.15162 0.94436 0.5457 0.0
C529 C 0.14771 0.94889 0.51806 0.0
C530 C 0.13241 0.92571 0.50076 0.0
C531 C 0.12132 0.89777 0.51077 0.0
C532 C 0.12547 0.89295 0.53811 0.0
C533 C 0.14045 0.91612 0.55555 0.0
H534 H 0.10966 0.8798 0.4973 0.0
H535 H 0.26741 0.10368 0.66102 0.0
H536 H 0.70288 0.4347 0.89218 0.0
H537 H 0.7542 0.45703 0.90232 0.0
H538 H 0.73228 0.49905 0.97511 0.0
H539 H 0.6811 0.47764 0.96435 0.0
H540 H 0.77689 0.53413 0.9515 0.0
H541 H 0.7474 0.42814 0.97271 0.0
H542 H 0.72932 0.37512 0.95951 0.0
H543 H 0.79784 0.38059 0.9046 0.0
H544 H 0.81606 0.43372 0.91722 0.0
H545 H 0.89996 0.5639 0.03386 0.0
H546 H 0.85014 0.54008 0.01921 0.0
H547 H 0.88136 0.49054 0.95635 0.0
H548 H 0.93071 0.51259 0.97238 0.0
H549 H 0.8339 0.45991 0.96911 0.0
H550 H 0.86667 0.56115 0.94695 0.0
H551 H 0.88673 0.61486 0.955 0.0
H552 H 0.81556 0.62037 0.00391 0.0
H553 H 0.79528 0.56662 0.99646 0.0
C554 C 0.70923 0.44946 0.90986 0.0
C555 C 0.68858 0.45474 0.9276 0.0
C556 C 0.73835 0.46197 0.91572 0.0
C557 C 0.7469 0.4791 0.93973 0.0
C558 C 0.72602 0.48582 0.95651 0.0
C559 C 0.69693 0.47369 0.95043 0.0
C560 C 0.77737 0.48796 0.94897 0.0
C561 C 0.7894 0.51797 0.95551 0.0
C562 C 0.79392 0.46687 0.95309 0.0
C563 C 0.78291 0.43491 0.94572 0.0
C564 C 0.75849 0.41805 0.95772 0.0
C565 C 0.74823 0.38799 0.95035 0.0
C566 C 0.76239 0.37451 0.9312 0.0
C567 C 0.78687 0.39105 0.9194 0.0
C568 C 0.79716 0.42113 0.92665 0.0
C569 C 0.89589 0.54663 0.01798 0.0
C570 C 0.91869 0.53956 0.00436 0.0
C571 C 0.86761 0.53355 0.00922 0.0
C572 C 0.86217 0.51446 0.98602 0.0
C573 C 0.88503 0.50535 0.97414 0.0
C574 C 0.91318 0.51771 0.98344 0.0
C575 C 0.83323 0.50609 0.97262 0.0
C576 C 0.82159 0.47622 0.96504 0.0
C577 C 0.81738 0.52746 0.96677 0.0
C578 C 0.82961 0.5598 0.97135 0.0
C579 C 0.85541 0.57378 0.95957 0.0
C580 C 0.8668 0.60424 0.96401 0.0
C581 C 0.85246 0.621 0.98 0.0
C582 C 0.82667 0.60735 0.99156 0.0
C583 C 0.81521 0.5769 0.98723 0.0
H584 H 0.8613 0.64458 0.9834 0.0
H585 H 0.75443 0.35124 0.92554 0.0
H586 H 0.80147 0.57671 0.43804 0.0
H587 H 0.75685 0.56652 0.46302 0.0
H588 H 0.77522 0.65794 0.49153 0.0
H589 H 0.81799 0.6689 0.4657 0.0
H590 H 0.76021 0.61023 0.53208 0.0
H591 H 0.7335 0.64943 0.44812 0.0
H592 H 0.72571 0.65132 0.39891 0.0
H593 H 0.66798 0.56503 0.39702 0.0
H594 H 0.67587 0.56242 0.44626 0.0
H595 H 0.62518 0.6641 0.54344 0.0
H596 H 0.67257 0.6585 0.53008 0.0
H597 H 0.64981 0.56674 0.55061 0.0
H598 H 0.60341 0.57262 0.56553 0.0
H599 H 0.665 0.60368 0.48631 0.0
H600 H 0.69476 0.56886 0.57563 0.0
H601 H 0.69943 0.57747 0.62515 0.0
H602 H 0.75035 0.66568 0.61557 0.0
H603 H 0.74534 0.65772 0.56595 0.0
C604 C 0.79603 0.59459 0.4497 0.0
C605 C 0.81375 0.62352 0.45015 0.0
C606 C 0.77064 0.5887 0.46388 0.0
C607 C 0.76313 0.61156 0.47896 0.0
C608 C 0.78103 0.64006 0.48011 0.0
C609 C 0.80582 0.6461 0.4656 0.0
C610 C 0.73661 0.60656 0.49381 0.0
C611 C 0.73924 0.60805 0.5221 0.0
C612 C 0.70956 0.60449 0.48057 0.0
C613 C 0.70594 0.60537 0.45078 0.0
C614 C 0.71968 0.63056 0.43715 0.0
C615 C 0.71509 0.63185 0.40927 0.0
C616 C 0.69654 0.60821 0.39481 0.0
C617 C 0.68251 0.58324 0.40822 0.0
C618 C 0.68707 0.58182 0.43611 0.0
C619 C 0.63112 0.64336 0.5467 0.0
C620 C 0.61094 0.61889 0.55559 0.0
C621 C 0.65788 0.64005 0.53876 0.0
C622 C 0.6643 0.61219 0.53932 0.0
C623 C 0.64527 0.58848 0.55055 0.0
C624 C 0.61889 0.592 0.55925 0.0
C625 C 0.6887 0.60704 0.52446 0.0
C626 C 0.6857 0.6042 0.4962 0.0
C627 C 0.71548 0.60843 0.53759 0.0
C628 C 0.71946 0.61279 0.56724 0.0
C629 C 0.70675 0.59014 0.58413 0.0
C630 C 0.70947 0.59489 0.61219 0.0
C631 C 0.72513 0.62213 0.6235 0.0
C632 C 0.7382 0.64461 0.60678 0.0
C633 C 0.73542 0.64 0.57871 0.0
H634 H 0.72718 0.62578 0.64523 0.0
H635 H 0.6929 0.60931 0.37324 0.0
H636 H 0.08141 0.26874 0.11056 0.0
H637 H 0.06111 0.30399 0.08481 0.0
H638 H 0.14447 0.3651 0.08808 0.0
H639 H 0.16471 0.32978 0.11251 0.0
H640 H 0.05776 0.35722 0.10507 0.0
H641 H 0.15615 0.40179 0.05166 0.0
H642 H 0.19106 0.38809 0.02099 0.0
H643 H 0.12252 0.3246 0.97843 0.0
H644 H 0.08744 0.33734 0.00946 0.0
H645 H 0.06248 0.5061 0.09173 0.0
H646 H 0.07306 0.45842 0.09634 0.0
H647 H 0.04611 0.43471 0.01317 0.0
H648 H 0.03582 0.48414 0.00794 0.0
H649 H 0.09652 0.41663 0.02751 0.0
H650 H 0.00338 0.40339 0.06402 0.0
H651 H 0.96614 0.41677 0.09181 0.0
H652 H 0.01842 0.41582 0.16366 0.0
H653 H 0.05614 0.40282 0.13629 0.0
C654 C 0.09568 0.289 0.10445 0.0
C655 C 0.12492 0.29601 0.1132 0.0
C656 C 0.08398 0.30945 0.08999 0.0
C657 C 0.10117 0.33744 0.08383 0.0
C658 C 0.13067 0.34356 0.09132 0.0
C659 C 0.14233 0.32318 0.10551 0.0
C660 C 0.088 0.36174 0.0734 0.0
C661 C 0.06613 0.36995 0.08795 0.0
C662 C 0.09826 0.37855 0.05083 0.0
C663 C 0.1194 0.37007 0.03309 0.0
C664 C 0.14867 0.38468 0.03593 0.0
C665 C 0.16846 0.37706 0.01854 0.0
C666 C 0.15904 0.35538 0.99785 0.0
C667 C 0.12983 0.34117 0.99462 0.0
C668 C 0.11004 0.34838 0.01225 0.0
C669 C 0.05853 0.49106 0.07411 0.0
C670 C 0.04812 0.49954 0.0493 0.0
C671 C 0.06455 0.46334 0.07698 0.0
C672 C 0.06011 0.44234 0.05536 0.0
C673 C 0.04968 0.45035 0.03034 0.0
C674 C 0.04357 0.47859 0.02737 0.0
C675 C 0.06688 0.4126 0.05973 0.0
C676 C 0.08769 0.40355 0.04429 0.0
C677 C 0.05548 0.39488 0.08147 0.0
C678 C 0.03262 0.4022 0.09807 0.0
C679 C 0.00698 0.40614 0.08574 0.0
C680 C 0.98579 0.41366 0.10142 0.0
C681 C 0.98992 0.41716 0.12948 0.0
C682 C 0.01523 0.41307 0.14192 0.0
C683 C 0.0365 0.40557 0.12634 0.0
H684 H 0.9735 0.42302 0.14158 0.0
H685 H 0.17434 0.34969 0.98426 0.0
H686 H 0.58048 0.36078 0.95728 0.0
H687 H 0.57139 0.30975 0.97137 0.0
H688 H 0.64728 0.29817 0.93181 0.0
H689 H 0.65616 0.34919 0.91698 0.0
H690 H 0.59822 0.25152 0.92092 0.0
H691 H 0.65179 0.30407 0.99824 0.0
H692 H 0.66495 0.34365 0.03403 0.0
H693 H 0.58046 0.31712 0.06531 0.0
H694 H 0.56665 0.27763 0.02956 0.0
H695 H 0.56031 0.11984 0.01088 0.0
H696 H 0.58839 0.15862 0.98324 0.0
H697 H 0.52261 0.20761 0.99006 0.0
H698 H 0.49494 0.16951 0.01758 0.0
H699 H 0.58335 0.23075 0.01756 0.0
H700 H 0.52629 0.19155 0.93427 0.0
H701 H 0.50911 0.15174 0.89924 0.0
H702 H 0.59649 0.15324 0.88057 0.0
H703 H 0.61416 0.19285 0.91582 0.0
C704 C 0.59505 0.34728 0.95136 0.0
C705 C 0.61899 0.35883 0.93611 0.0
C706 C 0.59006 0.31833 0.95966 0.0
C707 C 0.60902 0.30059 0.95296 0.0
C708 C 0.63266 0.31178 0.93732 0.0
C709 C 0.63771 0.34083 0.92901 0.0
C710 C 0.60315 0.27004 0.96183 0.0
C711 C 0.59575 0.2468 0.9421 0.0
C712 C 0.59992 0.26413 0.98947 0.0
C713 C 0.6082 0.28786 0.01115 0.0
C714 C 0.63597 0.30676 0.01266 0.0
C715 C 0.64355 0.32917 0.03297 0.0
C716 C 0.62356 0.33289 0.05193 0.0
C717 C 0.59595 0.31419 0.05064 0.0
C718 C 0.58826 0.29173 0.0304 0.0
C719 C 0.55144 0.1383 0.00536 0.0
C720 C 0.52598 0.14233 0.0165 0.0
C721 C 0.56741 0.16032 0.98975 0.0
C722 C 0.55751 0.18584 0.98515 0.0
C723 C 0.53043 0.18795 0.99362 0.0
C724 C 0.51473 0.1663 0.00928 0.0
C725 C 0.57694 0.21287 0.97658 0.0
C726 C 0.58704 0.23537 0.99648 0.0
C727 C 0.5821 0.21817 0.94924 0.0
C728 C 0.57153 0.19484 0.92782 0.0
C729 C 0.54183 0.18321 0.92284 0.0
C730 C 0.532 0.16073 0.90292 0.0
C731 C 0.5517 0.14989 0.88775 0.0
C732 C 0.58126 0.16161 0.89238 0.0
C733 C 0.59119 0.18408 0.9123 0.0
H734 H 0.54406 0.13247 0.87235 0.0
H735 H 0.62947 0.35027 0.06762 0.0
H736 H 0.85508 0.71105 0.4505 0.0
H737 H 0.87747 0.76157 0.46479 0.0
H738 H 0.95094 0.75873 0.41735 0.0
H739 H 0.92901 0.70636 0.4041 0.0
H740 H 0.96718 0.78585 0.46683 0.0
H741 H 0.90053 0.79597 0.39572 0.0
H742 H 0.85394 0.78601 0.3701 0.0
H743 H 0.81425 0.81538 0.43891 0.0
H744 H 0.86049 0.82518 0.46506 0.0
H745 H 0.00601 0.9449 0.46773 0.0
H746 H 0.99823 0.8911 0.46422 0.0
H747 H 0.92165 0.88229 0.51003 0.0
H748 H 0.9292 0.93623 0.51291 0.0
H749 H 0.91014 0.8616 0.45874 0.0
H750 H 0.97576 0.85009 0.5303 0.0
H751 H 0.0223 0.86133 0.55602 0.0
H752 H 0.06376 0.83633 0.48644 0.0
H753 H 0.0175 0.82533 0.46016 0.0
C754 C 0.87628 0.72076 0.44343 0.0
C755 C 0.89064 0.70439 0.42672 0.0
C756 C 0.88884 0.74995 0.45128 0.0
C757 C 0.91565 0.76406 0.44183 0.0
C758 C 0.93013 0.74814 0.42479 0.0
C759 C 0.9176 0.71841 0.41714 0.0
C760 C 0.92817 0.79532 0.45052 0.0
C761 C 0.955 0.80262 0.46464 0.0
C762 C 0.9119 0.81696 0.44818 0.0
C763 C 0.884 0.81116 0.4324 0.0
C764 C 0.88184 0.80013 0.40545 0.0
C765 C 0.85548 0.79455 0.39082 0.0
C766 C 0.83114 0.80002 0.40288 0.0
C767 C 0.83311 0.81116 0.42959 0.0
C768 C 0.85941 0.81678 0.4443 0.0
C769 C 0.98862 0.93145 0.47853 0.0
C770 C 0.96821 0.94433 0.49065 0.0
C771 C 0.98407 0.90071 0.4764 0.0
C772 C 0.95913 0.88276 0.48654 0.0
C773 C 0.94095 0.89584 0.50198 0.0
C774 C 0.94542 0.92659 0.50392 0.0
C775 C 0.9487 0.8519 0.47583 0.0
C776 C 0.92235 0.84485 0.46099 0.0
C777 C 0.96543 0.83071 0.47747 0.0
C778 C 0.99321 0.83704 0.49323 0.0
C779 C 0.99484 0.84719 0.52042 0.0
C780 C 0.02115 0.85349 0.53511 0.0
C781 C 0.04594 0.84955 0.52286 0.0
C782 C 0.04451 0.83935 0.49589 0.0
C783 C 0.01824 0.83303 0.4811 0.0
H784 H 0.0662 0.85427 0.53434 0.0
H785 H 0.81076 0.79567 0.39153 0.0
H786 H 0.43177 0.86363 0.70075 0.0
H787 H 0.45154 0.82354 0.68223 0.0
H788 H 0.43984 0.85173 0.60163 0.0
H789 H 0.42087 0.89252 0.61998 0.0
H790 H 0.41697 0.78783 0.61011 0.0
H791 H 0.50515 0.8664 0.62699 0.0
H792 H 0.53856 0.90385 0.65659 0.0
H793 H 0.54729 0.83665 0.71133 0.0
H794 H 0.5137 0.7989 0.68224 0.0
H795 H 0.48388 0.67351 0.56077 0.0
H796 H 0.47086 0.72167 0.56524 0.0
H797 H 0.50398 0.73167 0.64799 0.0
H798 H 0.51849 0.68571 0.64307 0.0
H799 H 0.51719 0.78082 0.63041 0.0
H800 H 0.42888 0.70472 0.62514 0.0
H801 H 0.39144 0.66323 0.60446 0.0
H802 H 0.37695 0.71787 0.53991 0.0
H803 H 0.41465 0.75957 0.55999 0.0
C804 C 0.4341 0.86188 0.67914 0.0
C805 C 0.42474 0.88144 0.6619 0.0
C806 C 0.44509 0.83869 0.66856 0.0
C807 C 0.44693 0.83452 0.64053 0.0
C808 C 0.43831 0.85436 0.62329 0.0
C809 C 0.42756 0.87771 0.63386 0.0
C810 C 0.45792 0.80944 0.62932 0.0
C811 C 0.439 0.78636 0.61413 0.0
C812 C 0.48633 0.80716 0.63531 0.0
C813 C 0.50685 0.82988 0.65249 0.0
C814 C 0.5141 0.85966 0.6454 0.0
C815 C 0.53308 0.88093 0.66208 0.0
C816 C 0.54502 0.87264 0.68583 0.0
C817 C 0.53805 0.84305 0.69293 0.0
C818 C 0.51909 0.82171 0.67634 0.0
C819 C 0.48912 0.68657 0.57956 0.0
C820 C 0.50214 0.67568 0.60159 0.0
C821 C 0.48124 0.71385 0.58228 0.0
C822 C 0.48594 0.73031 0.60716 0.0
C823 C 0.5001 0.71979 0.62853 0.0
C824 C 0.50832 0.6932 0.6257 0.0
C825 C 0.47598 0.75811 0.61207 0.0
C826 C 0.49518 0.78209 0.62594 0.0
C827 C 0.44734 0.76031 0.60614 0.0
C828 C 0.42497 0.73512 0.59382 0.0
C829 C 0.41795 0.70779 0.60637 0.0
C830 C 0.39663 0.68425 0.59479 0.0
C831 C 0.38192 0.68786 0.57082 0.0
C832 C 0.38845 0.71506 0.55842 0.0
C833 C 0.40981 0.73864 0.56987 0.0
H834 H 0.3654 0.66964 0.56191 0.0
H835 H 0.55968 0.88914 0.69873 0.0
H836 H 0.866 0.94734 0.80234 0.0
H837 H 0.88128 0.96221 0.75791 0.0
H838 H 0.96531 0.94781 0.77679 0.0
H839 H 0.9509 0.93522 0.82277 0.0
H840 H 0.97234 0.99369 0.74701 0.0
H841 H 0.91044 0.89697 0.73538 0.0
H842 H 0.86623 0.8583 0.74169 0.0
H843 H 0.81592 0.90981 0.70058 0.0
H844 H 0.85982 0.94897 0.69429 0.0
H845 H 0.01385 0.9912 0.61201 0.0
H846 H 0.99746 0.97515 0.65624 0.0
H847 H 0.91754 -6e-05 0.63979 0.0
H848 H 0.93391 0.01586 0.59475 0.0
H849 H 0.90853 0.94871 0.66812 0.0
H850 H 0.97323 0.04532 0.67944 0.0
H851 H 0.01871 0.08248 0.67387 0.0
H852 H 0.06557 0.0283 0.7158 0.0
H853 H 0.02041 0.99062 0.72131 0.0
C854 C 0.88807 0.94795 0.79771 0.0
C855 C 0.90712 0.94018 0.81701 0.0
C856 C 0.89665 0.95596 0.77165 0.0
C857 C 0.92435 0.95556 0.76321 0.0
C858 C 0.9437 0.94819 0.78237 0.0
C859 C 0.93525 0.94062 0.8088 0.0
C860 C 0.93269 0.96262 0.73448 0.0
C861 C 0.9585 0.98344 0.72984 0.0
C862 C 0.91469 0.94988 0.71162 0.0
C863 C 0.88839 0.92596 0.7145 0.0
C864 C 0.88993 0.90006 0.72772 0.0
C865 C 0.86493 0.87807 0.73131 0.0
C866 C 0.83827 0.88162 0.72158 0.0
C867 C 0.83659 0.9071 0.7081 0.0
C868 C 0.86153 0.92917 0.70447 0.0
C869 C 0.99257 0.99298 0.6175 0.0
C870 C 0.97534 0.00507 0.59957 0.0
C871 C 0.98327 0.98392 0.64309 0.0
C872 C 0.95648 0.98692 0.65205 0.0
C873 C 0.93843 0.99752 0.63369 0.0
C874 C 0.94774 0.00652 0.60778 0.0
C875 C 0.9481 0.97979 0.68071 0.0
C876 C 0.92232 0.95894 0.68532 0.0
C877 C 0.96634 0.9922 0.70352 0.0
C878 C 0.99346 0.01504 0.7006 0.0
C879 C 0.99325 0.04126 0.68734 0.0
C880 C 0.01897 0.06242 0.68421 0.0
C881 C 0.04502 0.05773 0.69443 0.0
C882 C 0.04538 0.0319 0.70788 0.0
C883 C 0.01973 0.01065 0.71104 0.0
H884 H 0.06491 0.07413 0.69196 0.0
H885 H 0.81893 0.8646 0.72444 0.0
H886 H 0.6725 0.14678 0.34284 0.0
H887 H 0.65165 0.12473 0.29968 0.0
H888 H 0.56851 0.13633 0.32203 0.0
H889 H 0.5883 0.15474 0.36672 0.0
H890 H 0.55826 0.08955 0.29459 0.0
H891 H 0.61858 0.18409 0.27689 0.0
H892 H 0.66351 0.22342 0.27877 0.0
H893 H 0.70639 0.16554 0.23604 0.0
H894 H 0.66179 0.12573 0.23419 0.0
H895 H 0.49858 0.0906 0.16145 0.0
H896 H 0.51868 0.09989 0.20758 0.0
H897 H 0.59402 0.07124 0.18365 0.0
H898 H 0.57392 0.06267 0.13681 0.0
H899 H 0.60891 0.1235 0.21155 0.0
H900 H 0.54168 0.03023 0.22683 0.0
H901 H 0.4934 0.9962 0.2236 0.0
H902 H 0.45941 0.05907 0.26966 0.0
H903 H 0.50739 0.09361 0.27291 0.0
C904 C 0.64962 0.14413 0.33915 0.0
C905 C 0.63244 0.15302 0.35896 0.0
C906 C 0.63773 0.13198 0.31386 0.0
C907 C 0.60849 0.12952 0.30682 0.0
C908 C 0.59118 0.13807 0.32652 0.0
C909 C 0.60283 0.14929 0.35221 0.0
C910 C 0.59604 0.1182 0.27906 0.0
C911 C 0.56934 0.0973 0.27652 0.0
C912 C 0.61027 0.12777 0.25507 0.0
C913 C 0.63693 0.15186 0.25561 0.0
C914 C 0.63763 0.17972 0.26798 0.0
C915 C 0.66303 0.2021 0.26904 0.0
C916 C 0.68781 0.19696 0.25759 0.0
C917 C 0.68719 0.16948 0.24493 0.0
C918 C 0.66185 0.14701 0.24384 0.0
C919 C 0.51895 0.08519 0.16624 0.0
C920 C 0.53431 0.07513 0.14567 0.0
C921 C 0.53054 0.09062 0.1927 0.0
C922 C 0.55782 0.08597 0.19948 0.0
C923 C 0.57284 0.07484 0.1791 0.0
C924 C 0.5612 0.06948 0.15241 0.0
C925 C 0.57129 0.09496 0.22722 0.0
C926 C 0.5981 0.11556 0.22971 0.0
C927 C 0.55672 0.08583 0.25108 0.0
C928 C 0.52813 0.06453 0.25005 0.0
C929 C 0.5239 0.0368 0.23626 0.0
C930 C 0.49658 0.01743 0.2344 0.0
C931 C 0.47335 0.02548 0.2464 0.0
C932 C 0.47742 0.05285 0.2604 0.0
C933 C 0.50469 0.0723 0.26231 0.0
H934 H 0.45221 0.0105 0.24487 0.0
H935 H 0.70747 0.21429 0.25848 0.0
H936 H 0.44423 0.61461 0.29185 0.0
H937 H 0.45267 0.62031 0.34094 0.0
H938 H 0.39243 0.67584 0.34589 0.0
H939 H 0.38262 0.66921 0.29746 0.0
H940 H 0.45706 0.68245 0.38526 0.0
H941 H 0.35394 0.6228 0.35591 0.0
H942 H 0.3272 0.58527 0.322 0.0
H943 H 0.38425 0.52893 0.33938 0.0
H944 H 0.41138 0.56627 0.37316 0.0
H945 H 0.4721 0.64093 0.51385 0.0
H946 H 0.44 0.65823 0.48201 0.0
H947 H 0.42632 0.57472 0.43631 0.0
H948 H 0.45601 0.55724 0.46892 0.0
H949 H 0.3886 0.59568 0.42055 0.0
H950 H 0.49331 0.64028 0.43591 0.0
H951 H 0.53591 0.67048 0.46164 0.0
H952 H 0.49628 0.74425 0.46495 0.0
H953 H 0.45337 0.71432 0.43947 0.0
C954 C 0.43314 0.62842 0.30333 0.0
C955 C 0.41254 0.64113 0.29075 0.0
C956 C 0.43836 0.63206 0.33121 0.0
C957 C 0.42321 0.64863 0.34666 0.0
C958 C 0.40456 0.6634 0.33403 0.0
C959 C 0.39902 0.65948 0.30629 0.0
C960 C 0.42183 0.64488 0.37581 0.0
C961 C 0.44184 0.66392 0.39333 0.0
C962 C 0.40232 0.62031 0.38575 0.0
C963 C 0.38445 0.59713 0.36711 0.0
C964 C 0.36058 0.6023 0.35259 0.0
C965 C 0.34545 0.58113 0.33334 0.0
C966 C 0.35398 0.55471 0.32858 0.0
C967 C 0.37758 0.54934 0.34315 0.0
C968 C 0.39277 0.57044 0.36238 0.0
C969 C 0.46037 0.62572 0.49804 0.0
C970 C 0.46668 0.59812 0.49315 0.0
C971 C 0.4425 0.63576 0.47957 0.0
C972 C 0.43213 0.61854 0.45584 0.0
C973 C 0.43436 0.5889 0.45404 0.0
C974 C 0.45139 0.57871 0.47277 0.0
C975 C 0.42531 0.63207 0.43056 0.0
C976 C 0.40323 0.61513 0.41324 0.0
C977 C 0.44458 0.65726 0.42047 0.0
C978 C 0.47001 0.67496 0.43629 0.0
C979 C 0.49366 0.66288 0.44232 0.0
C980 C 0.51784 0.67994 0.45682 0.0
C981 C 0.51874 0.70922 0.46504 0.0
C982 C 0.49549 0.72152 0.45871 0.0
C983 C 0.47122 0.70451 0.44429 0.0
H984 H 0.53749 0.72242 0.47621 0.0
H985 H 0.34234 0.53843 0.31357 0.0
H986 H 0.04632 0.49356 0.73461 0.0
H987 H 0.05418 0.52439 0.77648 0.0
H988 H 0.13986 0.51041 0.78617 0.0
H989 H 0.13248 0.48067 0.74368 0.0
H990 H 0.07098 0.48224 0.81846 0.0
H991 H 0.16135 0.56263 0.80277 0.0
H992 H 0.18557 0.60485 0.7764 0.0
H993 H 0.11387 0.64466 0.78549 0.0
H994 H 0.08923 0.60259 0.81176 0.0
H995 H 0.04934 0.52663 0.95217 0.0
H996 H 0.08164 0.51667 0.91699 0.0
H997 H 0.05635 0.58187 0.86769 0.0
H998 H 0.02427 0.59115 0.90195 0.0
H999 H 0.11095 0.58235 0.86082 0.0
H1000 H 0.01806 0.515 0.86387 0.0
H1001 H 0.97942 0.47821 0.88395 0.0
H1002 H 0.03483 0.41808 0.88939 0.0
H1003 H 0.07416 0.45497 0.87 0.0
C1004 C 0.0673 0.49852 0.745 0.0
C1005 C 0.08878 0.48489 0.73646 0.0
C1006 C 0.07187 0.51618 0.76868 0.0
C1007 C 0.09763 0.51959 0.78412 0.0
C1008 C 0.12015 0.50846 0.77413 0.0
C1009 C 0.11582 0.49133 0.75009 0.0
C1010 C 0.09712 0.52612 0.81309 0.0
C1011 C 0.08049 0.50382 0.82814 0.0
C1012 C 0.10872 0.55451 0.82496 0.0
C1013 C 0.12343 0.57943 0.80895 0.0
C1014 C 0.15068 0.58026 0.79888 0.0
C1015 C 0.16451 0.60421 0.78406 0.0
C1016 C 0.15124 0.62739 0.77921 0.0
C1017 C 0.12412 0.6267 0.78923 0.0
C1018 C 0.11026 0.60286 0.80411 0.0
C1019 C 0.05105 0.53874 0.93377 0.0
C1020 C 0.03373 0.5586 0.92886 0.0
C1021 C 0.06966 0.53346 0.91406 0.0
C1022 C 0.07123 0.5486 0.88991 0.0
C1023 C 0.05555 0.57013 0.88627 0.0
C1024 C 0.03673 0.57488 0.9055 0.0
C1025 C 0.08419 0.53868 0.86608 0.0
C1026 C 0.10299 0.56018 0.85182 0.0
C1027 C 0.07272 0.51011 0.8541 0.0
C1028 C 0.04931 0.48803 0.86617 0.0
C1029 C 0.02219 0.49414 0.86978 0.0
C1030 C 1.00013 0.47325 0.88097 0.0
C1031 C 0.00473 0.4459 0.88812 0.0
C1032 C 0.03138 0.43938 0.88403 0.0
C1033 C 0.05361 0.46032 0.87305 0.0
H1034 H 0.98759 0.42969 0.89668 0.0
H1035 H 0.16199 0.6459 0.76775 0.0
H1036 H 0.74342 0.91537 0.93096 0.0
H1037 H 0.71056 0.93376 0.9601 0.0
H1038 H 0.77393 0.01626 0.97391 0.0
H1039 H 0.80669 0.99813 0.94388 0.0
H1040 H 0.71439 0.96348 0.01663 0.0
H1041 H 0.7497 0.05275 0.95419 0.0
H1042 H 0.76534 0.06579 0.90825 0.0
H1043 H 0.69288 0.00016 0.87405 0.0
H1044 H 0.67727 0.98639 0.91984 0.0
H1045 H 0.60805 0.03377 0.0688 0.0
H1046 H 0.65487 0.02703 0.05414 0.0
H1047 H 0.61986 0.00954 0.97228 0.0
H1048 H 0.57414 0.01793 0.98675 0.0
H1049 H 0.67053 0.03374 0.96706 0.0
H1050 H 0.62718 0.95342 0.02282 0.0
H1051 H 0.6075 0.92988 0.06422 0.0
H1052 H 0.68817 0.96623 0.10732 0.0
H1053 H 0.70821 0.99026 0.06624 0.0
C1054 C 0.75089 0.93699 0.9411 0.0
C1055 C 0.77791 0.9551 0.93523 0.0
C1056 C 0.7319 0.94761 0.95763 0.0
C1057 C 0.73934 0.97668 0.96888 0.0
C1058 C 0.76735 0.99393 0.96512 0.0
C1059 C 0.78637 0.98335 0.94832 0.0
C1060 C 0.71661 0.98965 0.98155 0.0
C1061 C 0.70522 0.97943 0.00619 0.0
C1062 C 0.70364 0.00945 0.96757 0.0
C1063 C 0.7125 0.01847 0.94027 0.0
C1064 C 0.73721 0.0411 0.93683 0.0
C1065 C 0.74609 0.04856 0.91086 0.0
C1066 C 0.73014 0.03377 0.88824 0.0
C1067 C 0.70525 0.01154 0.89156 0.0
C1068 C 0.69643 0.00386 0.9175 0.0
C1069 C 0.61088 0.02983 0.04751 0.0
C1070 C 0.58756 0.02735 0.02882 0.0
C1071 C 0.63753 0.02521 0.03914 0.0
C1072 C 0.64124 0.01696 0.01199 0.0
C1073 C 0.61818 0.0159 0.99328 0.0
C1074 C 0.59189 0.02098 0.00155 0.0
C1075 C 0.66819 0.00821 0.00285 0.0
C1076 C 0.6801 0.01869 0.97835 0.0
C1077 C 0.68117 0.98811 0.01685 0.0
C1078 C 0.66905 0.97396 0.04158 0.0
C1079 C 0.64063 0.95658 0.04119 0.0
C1080 C 0.62943 0.94312 0.06458 0.0
C1081 C 0.64654 0.94665 0.08841 0.0
C1082 C 0.67491 0.96359 0.08888 0.0
C1083 C 0.6862 0.97713 0.06555 0.0
H1084 H 0.63784 0.93618 0.10649 0.0
H1085 H 0.73704 0.03958 0.86815 0.0
H1086 H 0.68848 0.11336 0.43124 0.0
H1087 H 0.73163 0.09839 0.44787 0.0
H1088 H 0.77775 0.19009 0.45622 0.0
H1089 H 0.73428 0.20516 0.44029 0.0
H1090 H 0.80742 0.1514 0.42743 0.0
H1091 H 0.76089 0.15739 0.51101 0.0
H1092 H 0.7212 0.14687 0.54245 0.0
H1093 H 0.71808 0.05388 0.53485 0.0
H1094 H 0.75749 0.06379 0.50302 0.0
H1095 H 0.93318 0.11632 0.48827 0.0
H1096 H 0.89251 0.13987 0.48148 0.0
H1097 H 0.83297 0.05439 0.48347 0.0
H1098 H 0.87324 0.03108 0.48991 0.0
H1099 H 0.81158 0.09455 0.50965 0.0
H1100 H 0.85277 0.08555 0.42426 0.0
H1101 H 0.8896 0.09257 0.38987 0.0
H1102 H 0.90005 0.18683 0.39751 0.0
H1103 H 0.86358 0.1804 0.4323 0.0
C1104 C 0.70778 0.13032 0.43682 0.0
C1105 C 0.70799 0.16044 0.43445 0.0
C1106 C 0.73242 0.12175 0.44639 0.0
C1107 C 0.75804 0.14308 0.45337 0.0
C1108 C 0.75829 0.17321 0.45102 0.0
C1109 C 0.73343 0.18181 0.44201 0.0
C1110 C 0.78471 0.13377 0.46221 0.0
C1111 C 0.80858 0.13952 0.44572 0.0
C1112 C 0.78597 0.1174 0.4856 0.0
C1113 C 0.76195 0.11132 0.50439 0.0
C1114 C 0.75153 0.13466 0.51579 0.0
C1115 C 0.72913 0.12882 0.53374 0.0
C1116 C 0.71707 0.09972 0.54059 0.0
C1117 C 0.72741 0.07641 0.5295 0.0
C1118 C 0.74979 0.08213 0.51151 0.0
C1119 C 0.91136 0.10278 0.48806 0.0
C1120 C 0.9064 0.07188 0.49 0.0
C1121 C 0.8881 0.11617 0.4838 0.0
C1122 C 0.85948 0.09893 0.48164 0.0
C1123 C 0.85466 0.0683 0.48504 0.0
C1124 C 0.87775 0.05497 0.48886 0.0
C1125 C 0.83445 0.11211 0.47484 0.0
C1126 C 0.81072 0.10689 0.49159 0.0
C1127 C 0.83312 0.12851 0.45141 0.0
C1128 C 0.85582 0.13252 0.43126 0.0
C1129 C 0.86324 0.10781 0.41893 0.0
C1130 C 0.88397 0.11167 0.39928 0.0
C1131 C 0.89726 0.14013 0.39161 0.0
C1132 C 0.88983 0.1648 0.40356 0.0
C1133 C 0.86915 0.16106 0.42326 0.0
H1134 H 0.91323 0.14307 0.37632 0.0
H1135 H 0.69977 0.09525 0.55453 0.0
H1136 H 0.3219 0.68559 0.13281 0.0
H1137 H 0.27825 0.67554 0.104 0.0
H1138 H 0.22724 0.64679 0.17272 0.0
H1139 H 0.27161 0.65675 0.20193 0.0
H1140 H 0.21076 0.61015 0.12687 0.0
H1141 H 0.22763 0.7133 0.15027 0.0
H1142 H 0.25439 0.76551 0.15684 0.0
H1143 H 0.27197 0.76868 0.07247 0.0
H1144 H 0.2456 0.71639 0.06545 0.0
H1145 H 0.08361 0.64397 0.06343 0.0
H1146 H 0.12763 0.65421 0.09205 0.0
H1147 H 0.17378 0.62731 0.02615 0.0
H1148 H 0.12896 0.61486 0.99787 0.0
H1149 H 0.19107 0.69084 0.07177 0.0
H1150 H 0.17575 0.58348 0.051 0.0
H1151 H 0.14723 0.5318 0.0471 0.0
H1152 H 0.12504 0.53711 0.13002 0.0
H1153 H 0.15263 0.58925 0.13412 0.0
C1154 C 0.30134 0.67698 0.14171 0.0
C1155 C 0.29974 0.67205 0.16941 0.0
C1156 C 0.27652 0.67143 0.12534 0.0
C1157 C 0.24967 0.6611 0.13645 0.0
C1158 C 0.24794 0.65505 0.164 0.0
C1159 C 0.27304 0.66057 0.18054 0.0
C1160 C 0.22372 0.65652 0.11871 0.0
C1161 C 0.20617 0.62782 0.11505 0.0
C1162 C 0.21824 0.67963 0.10311 0.0
C1163 C 0.23487 0.71083 0.1074 0.0
C1164 C 0.23749 0.72503 0.13318 0.0
C1165 C 0.25251 0.75467 0.13697 0.0
C1166 C 0.26493 0.77038 0.1151 0.0
C1167 C 0.26237 0.75648 0.0894 0.0
C1168 C 0.24736 0.72686 0.0855 0.0
C1169 C 0.10342 0.64138 0.05473 0.0
C1170 C 0.10332 0.62924 0.0284 0.0
C1171 C 0.12826 0.64659 0.07122 0.0
C1172 C 0.15332 0.64044 0.06128 0.0
C1173 C 0.15414 0.63122 0.03418 0.0
C1174 C 0.12893 0.62494 0.0179 0.0
C1175 C 0.17864 0.64445 0.07952 0.0
C1176 C 0.19583 0.67317 0.08349 0.0
C1177 C 0.18353 0.62141 0.09554 0.0
C1178 C 0.16555 0.59063 0.09259 0.0
C1179 C 0.16407 0.57398 0.06815 0.0
C1180 C 0.14825 0.5445 0.06597 0.0
C1181 C 0.13418 0.53124 0.08824 0.0
C1182 C 0.13578 0.54748 0.11272 0.0
C1183 C 0.15142 0.57703 0.11494 0.0
H1184 H 0.1223 0.5083 0.08661 0.0
H1185 H 0.27648 0.79335 0.11806 0.0
H1186 H 0.18929 0.42067 0.61026 0.0
H1187 H 0.24012 0.44074 0.60407 0.0
H1188 H 0.23237 0.52689 0.63356 0.0
H1189 H 0.18037 0.50696 0.63834 0.0
H1190 H 0.26094 0.53135 0.58857 0.0
H1191 H 0.26858 0.48436 0.67135 0.0
H1192 H 0.25853 0.44419 0.70344 0.0
H1193 H 0.29355 0.38872 0.64964 0.0
H1194 H 0.30351 0.42842 0.61706 0.0
H1195 H 0.41102 0.58892 0.60368 0.0
H1196 H 0.35908 0.5716 0.60569 0.0
H1197 H 0.36388 0.48564 0.573 0.0
H1198 H 0.41667 0.5031 0.57162 0.0
H1199 H 0.33688 0.48231 0.6199 0.0
H1200 H 0.3287 0.53167 0.53686 0.0
H1201 H 0.34061 0.57417 0.50737 0.0
H1202 H 0.30855 0.62792 0.56524 0.0
H1203 H 0.29658 0.58579 0.59514 0.0
C1204 C 0.19833 0.44395 0.61533 0.0
C1205 C 0.18085 0.46251 0.62413 0.0
C1206 C 0.22751 0.45529 0.61219 0.0
C1207 C 0.24008 0.48523 0.61858 0.0
C1208 C 0.22297 0.50368 0.62851 0.0
C1209 C 0.19345 0.49232 0.63137 0.0
C1210 C 0.27067 0.49723 0.61302 0.0
C1211 C 0.27765 0.52095 0.59577 0.0
C1212 C 0.29229 0.48319 0.62197 0.0
C1213 C 0.28663 0.45934 0.64168 0.0
C1214 C 0.27399 0.46354 0.66628 0.0
C1215 C 0.26833 0.44086 0.68458 0.0
C1216 C 0.27535 0.4139 0.67856 0.0
C1217 C 0.28813 0.40961 0.65427 0.0
C1218 C 0.29384 0.43222 0.63591 0.0
C1219 C 0.40083 0.56657 0.59621 0.0
C1220 C 0.41744 0.54721 0.58752 0.0
C1221 C 0.37117 0.55675 0.5972 0.0
C1222 C 0.35761 0.52744 0.58927 0.0
C1223 C 0.37406 0.50843 0.57905 0.0
C1224 C 0.404 0.51835 0.57808 0.0
C1225 C 0.32702 0.51602 0.59508 0.0
C1226 C 0.32011 0.49254 0.61256 0.0
C1227 C 0.3056 0.53055 0.58666 0.0
C1228 C 0.31183 0.55559 0.56826 0.0
C1229 C 0.32422 0.55256 0.54329 0.0
C1230 C 0.33097 0.57658 0.52651 0.0
C1231 C 0.32536 0.60373 0.53444 0.0
C1232 C 0.31283 0.60687 0.5591 0.0
C1233 C 0.30596 0.58289 0.57593 0.0
H1234 H 0.33072 0.62234 0.52147 0.0
H1235 H 0.27092 0.39636 0.69273 0.0
H1236 H 0.91614 0.85257 0.86068 0.0
H1237 H 0.93341 0.81406 0.88295 0.0
H1238 H 0.91159 0.84624 0.9601 0.0
H1239 H 0.89581 0.88644 0.938 0.0
H1240 H 0.95997 0.82866 0.96717 0.0
H1241 H 0.86861 0.78196 0.92554 0.0
H1242 H 0.83118 0.76915 0.88884 0.0
H1243 H 0.88667 0.72907 0.84164 0.0
H1244 H 0.92457 0.74195 0.87795 0.0
H1245 H 0.96929 0.68185 0.01899 0.0
H1246 H 0.95119 0.72595 0.0079 0.0
H1247 H 0.98617 0.72515 0.92902 0.0
H1248 H 0.00479 0.68274 0.93988 0.0
H1249 H 0.92613 0.72596 0.92854 0.0
H1250 H 0.01859 0.7769 0.97008 0.0
H1251 H 0.05486 0.78884 0.00781 0.0
H1252 H 0.99449 0.81902 0.05719 0.0
H1253 H 0.95773 0.80692 0.01979 0.0
C1254 C 0.91538 0.85211 0.88245 0.0
C1255 C 0.90446 0.87322 0.89729 0.0
C1256 C 0.92496 0.82948 0.89525 0.0
C1257 C 0.92343 0.82645 0.92337 0.0
C1258 C 0.91297 0.84767 0.93841 0.0
C1259 C 0.90359 0.87061 0.9256 0.0
C1260 C 0.93224 0.80086 0.93658 0.0
C1261 C 0.95208 0.80617 0.95895 0.0
C1262 C 0.9223 0.77118 0.92618 0.0
C1263 C 0.89948 0.76309 0.9044 0.0
C1264 C 0.87287 0.77054 0.90728 0.0
C1265 C 0.85157 0.76325 0.88655 0.0
C1266 C 0.85656 0.74835 0.8629 0.0
C1267 C 0.88284 0.74062 0.85997 0.0
C1268 C 0.90422 0.74786 0.88063 0.0
C1269 C 0.97357 0.69144 0.99952 0.0
C1270 C 0.98847 0.67826 0.98042 0.0
C1271 C 0.96309 0.71662 0.99311 0.0
C1272 C 0.96698 0.72886 0.96739 0.0
C1273 C 0.98255 0.7162 0.94885 0.0
C1274 C 0.99329 0.69171 0.95528 0.0
C1275 C 0.95416 0.75388 0.95864 0.0
C1276 C 0.9336 0.74841 0.93701 0.0
C1277 C 0.96322 0.78319 0.96991 0.0
C1278 C 0.98532 0.79068 0.99228 0.0
C1279 C 0.01297 0.78584 0.98906 0.0
C1280 C 0.03364 0.7927 0.01036 0.0
C1281 C 0.02695 0.80459 0.03492 0.0
C1282 C 0.99962 0.80976 0.03818 0.0
C1283 C 0.97887 0.80293 0.01693 0.0
H1284 H 0.04297 0.80987 0.05139 0.0
H1285 H 0.84005 0.74274 0.84687 0.0
H1286 H 0.41424 0.75862 0.22196 0.0
H1287 H 0.43769 0.80882 0.20858 0.0
H1288 H 0.3885 0.79212 0.13256 0.0
H1289 H 0.36803 0.74204 0.14445 0.0
H1290 H 0.43512 0.82253 0.12276 0.0
H1291 H 0.36939 0.8289 0.19541 0.0
H1292 H 0.35323 0.82275 0.24209 0.0
H1293 H 0.43438 0.87724 0.27246 0.0
H1294 H 0.45107 0.88343 0.22595 0.0
H1295 H 0.41436 0.94807 0.07337 0.0
H1296 H 0.39785 0.90932 0.10507 0.0
H1297 H 0.47561 0.94188 0.15442 0.0
H1298 H 0.49184 0.9811 0.1229 0.0
H1299 H 0.42456 0.90713 0.18215 0.0
H1300 H 0.48567 0.89828 0.1026 0.0
H1301 H 0.49564 0.90005 0.05399 0.0
H1302 H 0.41033 0.8474 0.03432 0.0
H1303 H 0.40018 0.84471 0.0828 0.0
C1304 C 0.40916 0.76568 0.20218 0.0
C1305 C 0.38862 0.74692 0.18459 0.0
C1306 C 0.42222 0.79438 0.19469 0.0
C1307 C 0.41423 0.80462 0.1699 0.0
C1308 C 0.39504 0.78504 0.15187 0.0
C1309 C 0.38291 0.75642 0.15889 0.0
C1310 C 0.42417 0.83581 0.16242 0.0
C1311 C 0.43265 0.84089 0.13586 0.0
C1312 C 0.42161 0.86006 0.17951 0.0
C1313 C 0.41157 0.85631 0.20734 0.0
C1314 C 0.3838 0.83941 0.21209 0.0
C1315 C 0.37456 0.83593 0.23849 0.0
C1316 C 0.3928 0.84951 0.26024 0.0
C1317 C 0.4203 0.86667 0.25562 0.0
C1318 C 0.42967 0.87016 0.22926 0.0
C1319 C 0.42679 0.94835 0.09208 0.0
C1320 C 0.45442 0.96701 0.09576 0.0
C1321 C 0.41755 0.92601 0.10999 0.0
C1322 C 0.4361 0.92236 0.13138 0.0
C1323 C 0.46124 0.94435 0.13777 0.0
C1324 C 0.47036 0.96691 0.11994 0.0
C1325 C 0.43312 0.89286 0.14219 0.0
C1326 C 0.42692 0.88853 0.16933 0.0
C1327 C 0.4363 0.86881 0.12531 0.0
C1328 C 0.44213 0.87157 0.09622 0.0
C1329 C 0.46904 0.88723 0.08787 0.0
C1330 C 0.47477 0.8882 0.06037 0.0
C1331 C 0.45357 0.87402 0.04108 0.0
C1332 C 0.4267 0.8585 0.04925 0.0
C1333 C 0.42102 0.85708 0.07672 0.0
H1334 H 0.45801 0.87497 0.01982 0.0
H1335 H 0.3856 0.84681 0.28067 0.0
H1336 H 0.13183 0.36987 0.61402 0.0
H1337 H 0.11588 0.319 0.59638 0.0
H1338 H 0.0501 0.34323 0.54646 0.0
H1339 H 0.06519 0.39446 0.56574 0.0
H1340 H 0.03007 0.29422 0.5749 0.0
H1341 H 0.11555 0.32921 0.5212 0.0
H1342 H 0.16723 0.3532 0.51873 0.0
H1343 H 0.18897 0.2866 0.56759 0.0
H1344 H 0.13753 0.26252 0.57077 0.0
H1345 H 0.99707 0.14269 0.52343 0.0
H1346 H 0.00947 0.19717 0.52275 0.0
H1347 H 0.08158 0.20083 0.57845 0.0
H1348 H 0.06935 0.14737 0.57966 0.0
H1349 H 0.09602 0.2371 0.53658 0.0
H1350 H 0.0273 0.21245 0.60347 0.0
H1351 H 0.98137 0.18621 0.62171 0.0
H1352 H 0.93523 0.23038 0.5676 0.0
H1353 H 0.98099 0.25637 0.54851 0.0
C1354 C 0.11439 0.3644 0.59878 0.0
C1355 C 0.10005 0.3858 0.5905 0.0
C1356 C 0.10538 0.33546 0.58868 0.0
C1357 C 0.08251 0.32768 0.56942 0.0
C1358 C 0.06819 0.34913 0.56094 0.0
C1359 C 0.07681 0.37819 0.57168 0.0
C1360 C 0.07238 0.29656 0.55994 0.0
C1361 C 0.04413 0.2819 0.5656 0.0
C1362 C 0.09153 0.28031 0.54951 0.0
C1363 C 0.12258 0.29398 0.5461 0.0
C1364 C 0.13134 0.31963 0.53133 0.0
C1365 C 0.16062 0.3333 0.5299 0.0
C1366 C 0.18136 0.32141 0.54296 0.0
C1367 C 0.1729 0.29575 0.55741 0.0
C1368 C 0.14369 0.28204 0.55898 0.0
C1369 C 0.01541 0.15528 0.53559 0.0
C1370 C 0.03203 0.14096 0.55182 0.0
C1371 C 0.02255 0.18616 0.53503 0.0
C1372 C 0.04657 0.20265 0.55032 0.0
C1373 C 0.06318 0.18831 0.5663 0.0
C1374 C 0.05585 0.15777 0.56724 0.0
C1375 C 0.05383 0.23507 0.55142 0.0
C1376 C 0.08155 0.2498 0.54452 0.0
C1377 C 0.03505 0.25107 0.56257 0.0
C1378 C 0.00749 0.23591 0.57417 0.0
C1379 C 0.00734 0.21629 0.5952 0.0
C1380 C 0.98135 0.20149 0.60573 0.0
C1381 C 0.95538 0.2065 0.59571 0.0
C1382 C 0.95537 0.22642 0.57523 0.0
C1383 C 0.98132 0.24116 0.56451 0.0
H1384 H 0.93526 0.19504 0.6039 0.0
H1385 H 0.20399 0.3321 0.54191 0.0
H1386 H 0.62793 0.28333 0.51358 0.0
H1387 H 0.61784 0.33116 0.52628 0.0
H1388 H 0.57407 0.33119 0.44883 0.0
H1389 H 0.58519 0.28377 0.43585 0.0
H1390 H 0.60119 0.38538 0.46276 0.0
H1391 H 0.53867 0.30788 0.5101 0.0
H1392 H 0.52722 0.26629 0.54063 0.0
H1393 H 0.57415 0.32204 0.60595 0.0
H1394 H 0.58624 0.36384 0.57571 0.0
H1395 H 0.51958 0.48795 0.49154 0.0
H1396 H 0.53301 0.4413 0.48191 0.0
H1397 H 0.57404 0.4472 0.56136 0.0
H1398 H 0.55916 0.49355 0.5715 0.0
H1399 H 0.55109 0.39134 0.54812 0.0
H1400 H 0.61259 0.46912 0.50189 0.0
H1401 H 0.62403 0.51126 0.47196 0.0
H1402 H 0.57986 0.45571 0.40528 0.0
H1403 H 0.56785 0.41332 0.43487 0.0
C1404 C 0.61695 0.29406 0.49899 0.0
C1405 C 0.60777 0.28008 0.47355 0.0
C1406 C 0.61073 0.3212 0.50642 0.0
C1407 C 0.59444 0.33467 0.48887 0.0
C1408 C 0.58653 0.32138 0.46289 0.0
C1409 C 0.59308 0.29436 0.45533 0.0
C1410 C 0.58486 0.36195 0.49779 0.0
C1411 C 0.58995 0.38646 0.48129 0.0
C1412 C 0.57087 0.36405 0.52241 0.0
C1413 C 0.56361 0.33889 0.54056 0.0
C1414 C 0.54673 0.3112 0.53092 0.0
C1415 C 0.5401 0.2876 0.54818 0.0
C1416 C 0.55001 0.2915 0.57519 0.0
C1417 C 0.56653 0.31903 0.58502 0.0
C1418 C 0.57327 0.34268 0.56783 0.0
C1419 C 0.53089 0.47893 0.5072 0.0
C1420 C 0.53822 0.49434 0.5323 0.0
C1421 C 0.53894 0.4524 0.50155 0.0
C1422 C 0.55551 0.441 0.52048 0.0
C1423 C 0.56154 0.45554 0.54621 0.0
C1424 C 0.5529 0.48195 0.55211 0.0
C1425 C 0.56711 0.41459 0.51291 0.0
C1426 C 0.56244 0.39029 0.52966 0.0
C1427 C 0.58163 0.41271 0.48858 0.0
C1428 C 0.58916 0.43809 0.47065 0.0
C1429 C 0.6052 0.46593 0.48087 0.0
C1430 C 0.6118 0.48986 0.46396 0.0
C1431 C 0.60263 0.48618 0.43675 0.0
C1432 C 0.58693 0.45853 0.42636 0.0
C1433 C 0.58026 0.43454 0.44318 0.0
H1434 H 0.60774 0.50473 0.4237 0.0
H1435 H 0.54483 0.27321 0.58853 0.0
loop_
_geom_bond_atom_site_label_1
_geom_bond_atom_site_label_2
_geom_bond_distance
_geom_bond_site_symmetry_2
_ccdc_geom_bond_type
H0 C1 0.949 . S
C1 H0 0.949 . S
C1 C2 1.395 . S
C1 C3 1.391 . S
C2 C1 1.395 . S
C2 C5 1.390 . S
C3 C1 1.391 . S
C3 C7 1.387 . S
C3 C8 1.491 . S
H4 C5 0.950 . S
C5 C2 1.390 . S
C5 H4 0.950 . S
C5 C6 1.378 . S
C6 C5 1.378 . S
C6 C7 1.409 . S
C7 C3 1.387 . S
C7 C6 1.409 . S
C7 H9 0.951 . S
C8 C3 1.491 . S
C8 C10 1.382 . S
C8 C12 1.404 . S
H9 C7 0.951 . S
C10 C8 1.382 . S
C10 C11 1.390 . S
C10 H15 0.949 . S
C11 C10 1.390 . S
C11 C16 1.399 . S
C12 C8 1.404 . S
C12 H13 0.950 . S
C12 C14 1.375 . S
H13 C12 0.950 . S
C14 C12 1.375 . S
C14 C16 1.382 . S
C14 H18 0.950 . S
H15 C10 0.949 . S
C16 C11 1.399 . S
C16 C14 1.382 . S
C16 H17 0.952 . S
H17 C16 0.952 . S
H18 C14 0.950 . S
H19 C20 0.949 . S
C20 H19 0.949 . S
C20 C21 1.395 . S
C20 C22 1.391 . S
C21 C20 1.395 . S
C21 C24 1.390 . S
C22 C20 1.391 . S
C22 C26 1.387 . S
C22 C27 1.491 . S
H23 C24 0.950 . S
C24 C21 1.390 . S
C24 H23 0.950 . S
C24 C25 1.378 . S
C25 C24 1.378 . S
C25 C26 1.409 . S
C26 C22 1.387 . S
C26 C25 1.409 . S
C26 H28 0.951 . S
C27 C22 1.491 . S
C27 C29 1.382 . S
C27 C31 1.404 . S
H28 C26 0.951 . S
C29 C27 1.382 . S
C29 C30 1.390 . S
C29 H34 0.949 . S
C30 C29 1.390 . S
C30 C35 1.399 . S
C31 C27 1.404 . S
C31 H32 0.950 . S
C31 C33 1.375 . S
H32 C31 0.950 . S
C33 C31 1.375 . S
C33 C35 1.382 . S
C33 H37 0.950 . S
H34 C29 0.949 . S
C35 C30 1.399 . S
C35 C33 1.382 . S
C35 H36 0.952 . S
H36 C35 0.952 . S
H37 C33 0.950 . S
H38 C39 0.949 . S
C39 H38 0.949 . S
C39 C40 1.395 . S
C39 C41 1.391 . S
C40 C39 1.395 . S
C40 C43 1.390 . S
C41 C39 1.391 . S
C41 C45 1.387 . S
C41 C46 1.491 . S
H42 C43 0.950 . S
C43 C40 1.390 . S
C43 H42 0.950 . S
C43 C44 1.378 . S
C44 C43 1.378 . S
C44 C45 1.409 . S
C45 C41 1.387 . S
C45 C44 1.409 . S
C45 H47 0.951 . S
C46 C41 1.491 . S
C46 C48 1.382 . S
C46 C50 1.404 . S
H47 C45 0.951 . S
C48 C46 1.382 . S
C48 C49 1.390 . S
C48 H53 0.949 . S
C49 C48 1.390 . S
C49 C54 1.399 . S
C50 C46 1.404 . S
C50 H51 0.950 . S
C50 C52 1.375 . S
H51 C50 0.950 . S
C52 C50 1.375 . S
C52 C54 1.382 . S
C52 H56 0.950 . S
H53 C48 0.949 . S
C54 C49 1.399 . S
C54 C52 1.382 . S
C54 H55 0.952 . S
H55 C54 0.952 . S
H56 C52 0.950 . S
H57 C58 0.949 . S
C58 H57 0.949 . S
C58 C59 1.395 . S
C58 C60 1.391 . S
C59 C58 1.395 . S
C59 C62 1.390 . S
C60 C58 1.391 . S
C60 C64 1.387 . S
C60 C65 1.491 . S
H61 C62 0.950 . S
C62 C59 1.390 . S
C62 H61 0.950 . S
C62 C63 1.378 . S
C63 C62 1.378 . S
C63 C64 1.409 . S
C64 C60 1.387 . S
C64 C63 1.409 . S
C64 H66 0.951 . S
C65 C60 1.491 . S
C65 C67 1.382 . S
C65 C69 1.404 . S
H66 C64 0.951 . S
C67 C65 1.382 . S
C67 C68 1.390 . S
C67 H72 0.949 . S
C68 C67 1.390 . S
C68 C73 1.399 . S
C69 C65 1.404 . S
C69 H70 0.950 . S
C69 C71 1.375 . S
H70 C69 0.950 . S
C71 C69 1.375 . S
C71 C73 1.382 . S
C71 H75 0.950 . S
H72 C67 0.949 . S
C73 C68 1.399 . S
C73 C71 1.382 . S
C73 H74 0.952 . S
H74 C73 0.952 . S
H75 C71 0.950 . S
H76 C77 0.949 . S
C77 H76 0.949 . S
C77 C78 1.395 . S
C77 C79 1.391 . S
C78 C77 1.395 . S
C78 C81 1.390 . S
C79 C77 1.391 . S
C79 C83 1.387 . S
C79 C84 1.491 . S
H80 C81 0.950 . S
C81 C78 1.390 . S
C81 H80 0.950 . S
C81 C82 1.378 . S
C82 C81 1.378 . S
C82 C83 1.409 . S
C83 C79 1.387 . S
C83 C82 1.409 . S
C83 H85 0.951 . S
C84 C79 1.491 . S
C84 C86 1.382 . S
C84 C88 1.404 . S
H85 C83 0.951 . S
C86 C84 1.382 . S
C86 C87 1.390 . S
C86 H91 0.949 . S
C87 C86 1.390 . S
C87 C92 1.399 . S
C88 C84 1.404 . S
C88 H89 0.950 . S
C88 C90 1.375 . S
H89 C88 0.950 . S
C90 C88 1.375 . S
C90 C92 1.382 . S
C90 H94 0.950 . S
H91 C86 0.949 . S
C92 C87 1.399 . S
C92 C90 1.382 . S
C92 H93 0.952 . S
H93 C92 0.952 . S
H94 C90 0.950 . S
H95 C96 0.949 . S
C96 H95 0.949 . S
C96 C97 1.395 . S
C96 C98 1.391 . S
C97 C96 1.395 . S
C97 C100 1.390 . S
C98 C96 1.391 . S
C98 C102 1.387 . S
C98 C103 1.491 . S
H99 C100 0.950 . S
C100 C97 1.390 . S
C100 H99 0.950 . S
C100 C101 1.378 . S
C101 C100 1.378 . S
C101 C102 1.409 . S
C102 C98 1.387 . S
C102 C101 1.409 . S
C102 H104 0.951 . S
C103 C98 1.491 . S
C103 C105 1.382 . S
C103 C107 1.404 . S
H104 C102 0.951 . S
C105 C103 1.382 . S
C105 C106 1.390 . S
C105 H110 0.949 . S
C106 C105 1.390 . S
C106 C111 1.399 . S
C107 C103 1.404 . S
C107 H108 0.950 . S
C107 C109 1.375 . S
H108 C107 0.950 . S
C109 C107 1.375 . S
C109 C111 1.382 . S
C109 H113 0.950 . S
H110 C105 0.949 . S
C111 C106 1.399 . S
C111 C109 1.382 . S
C111 H112 0.952 . S
H112 C111 0.952 . S
H113 C109 0.950 . S
H114 C115 0.949 . S
C115 H114 0.949 . S
C115 C116 1.395 . S
C115 C117 1.391 . S
C116 C115 1.395 . S
C116 C119 1.390 . S
C117 C115 1.391 . S
C117 C121 1.387 . S
C117 C122 1.491 . S
H118 C119 0.950 . S
C119 C116 1.390 . S
C119 H118 0.950 . S
C119 C120 1.378 . S
C120 C119 1.378 . S
C120 C121 1.409 . S
C121 C117 1.387 . S
C121 C120 1.409 . S
C121 H123 0.951 . S
C122 C117 1.491 . S
C122 C124 1.382 . S
C122 C126 1.404 . S
H123 C121 0.951 . S
C124 C122 1.382 . S
C124 C125 1.390 . S
C124 H129 0.949 . S
C125 C124 1.390 . S
C125 C130 1.399 . S
C126 C122 1.404 . S
C126 H127 0.950 . S
C126 C128 1.375 . S
H127 C126 0.950 . S
C128 C126 1.375 . S
C128 C130 1.382 . S
C128 H132 0.950 . S
H129 C124 0.949 . S
C130 C125 1.399 . S
C130 C128 1.382 . S
C130 H131 0.952 . S
H131 C130 0.952 . S
H132 C128 0.950 . S
H133 C134 0.949 . S
C134 H133 0.949 . S
C134 C135 1.395 . S
C134 C136 1.391 . S
C135 C134 1.395 . S
C135 C138 1.390 . S
C136 C134 1.391 . S
C136 C140 1.387 . S
C136 C141 1.491 . S
H137 C138 0.950 . S
C138 C135 1.390 . S
C138 H137 0.950 . S
C138 C139 1.378 . S
C139 C138 1.378 . S
C139 C140 1.409 . S
C140 C136 1.387 . S
C140 C139 1.409 . S
C140 H142 0.951 . S
C141 C136 1.491 . S
C141 C143 1.382 . S
C141 C145 1.404 . S
H142 C140 0.951 . S
C143 C141 1.382 . S
C143 C144 1.390 . S
C143 H148 0.949 . S
C144 C143 1.390 . S
C144 C149 1.399 . S
C145 C141 1.404 . S
C145 H146 0.950 . S
C145 C147 1.375 . S
H146 C145 0.950 . S
C147 C145 1.375 . S
C147 C149 1.382 . S
C147 H151 0.950 . S
H148 C143 0.949 . S
C149 C144 1.399 . S
C149 C147 1.382 . S
C149 H150 0.952 . S
H150 C149 0.952 . S
H151 C147 0.950 . S
O152 Mg153 1.990 . S
O152 C166 1.253 1_455 S
Mg153 O152 1.990 . S
Mg153 O156 2.180 . S
Mg153 O157 2.117 . S
Mg153 O171 2.030 . S
O154 Mg155 2.072 1_655 S
O154 C166 1.260 . S
Mg155 O154 2.072 1_455 S
Mg155 O156 2.099 . S
Mg155 O158 2.079 . S
Mg155 O159 2.072 1_455 S
Mg155 O161 2.099 1_455 S
Mg155 O172 2.079 . S
O156 Mg153 2.180 . S
O156 Mg155 2.099 . S
O156 C167 1.279 . S
O157 Mg153 2.117 . S
O157 C167 1.250 . S
O158 Mg155 2.079 . S
O158 C168 1.264 . S
O159 Mg155 2.072 1_655 S
O159 C169 1.260 . S
Mg160 O161 2.180 . S
Mg160 O162 2.030 . S
Mg160 O163 1.990 . S
Mg160 O164 2.117 1_545 S
O161 Mg155 2.099 1_655 S
O161 Mg160 2.180 . S
O161 C170 1.279 1_545 S
O162 Mg160 2.030 . S
O162 C168 1.248 1_655 S
O163 Mg160 1.990 . S
O163 C169 1.253 . S
O164 Mg160 2.117 1_565 S
O164 C170 1.250 . S
C165 O171 1.248 . S
C165 O172 1.264 . S
C166 O152 1.253 1_655 S
C166 O154 1.260 . S
C167 O156 1.279 . S
C167 O157 1.250 . S
C168 O158 1.264 . S
C168 O162 1.248 1_455 S
C169 O159 1.260 . S
C169 O163 1.253 . S
C170 O161 1.279 1_565 S
C170 O164 1.250 . S
O171 Mg153 2.030 . S
O171 C165 1.248 . S
O172 Mg155 2.079 . S
O172 C165 1.264 . S
O173 Mg174 1.990 . S
O173 C187 1.253 . S
Mg174 O173 1.990 . S
Mg174 O177 2.180 . S
Mg174 O178 2.117 . S
Mg174 O192 2.030 . S
O175 Mg176 2.072 . S
O175 C187 1.260 . S
Mg176 O175 2.072 . S
Mg176 O177 2.099 . S
Mg176 O179 2.079 . S
Mg176 O180 2.072 . S
Mg176 O182 2.069 1_545 S
Mg176 O193 2.079 . S
O177 Mg174 2.180 . S
O177 Mg176 2.099 . S
O177 C188 1.279 . S
O178 Mg174 2.117 . S
O178 C188 1.250 . S
O179 Mg176 2.079 . S
O179 C189 1.264 . S
O180 Mg176 2.072 . S
O180 C190 1.274 . S
Mg181 O182 2.200 . S
Mg181 O183 2.030 . S
Mg181 O184 1.990 . S
Mg181 O185 2.117 . S
O182 Mg176 2.069 1_565 S
O182 Mg181 2.200 . S
O182 C191 1.298 . S
O183 Mg181 2.030 . S
O183 C189 1.248 1_565 S
O184 Mg181 1.990 . S
O184 C190 1.258 1_565 S
O185 Mg181 2.117 . S
O185 C191 1.250 . S
C186 O192 1.248 . S
C186 O193 1.264 . S
C187 O173 1.253 . S
C187 O175 1.260 . S
C188 O177 1.279 . S
C188 O178 1.250 . S
C189 O179 1.264 . S
C189 O183 1.248 1_545 S
C190 O180 1.274 . S
C190 O184 1.258 1_545 S
C191 O182 1.298 . S
C191 O185 1.250 . S
O192 Mg174 2.030 . S
O192 C186 1.248 . S
O193 Mg176 2.079 . S
O193 C186 1.264 . S
O194 Mg195 1.990 . S
O194 C208 1.253 . S
Mg195 O194 1.990 . S
Mg195 O198 2.180 . S
Mg195 O199 2.117 . S
Mg195 O213 2.030 . S
O196 Mg197 2.072 . S
O196 C208 1.260 . S
Mg197 O196 2.072 . S
Mg197 O198 2.099 . S
Mg197 O200 2.079 . S
Mg197 O201 2.072 . S
Mg197 O203 2.099 . S
Mg197 O214 2.079 . S
O198 Mg195 2.180 . S
O198 Mg197 2.099 . S
O198 C209 1.279 . S
O199 Mg195 2.117 . S
O199 C209 1.250 . S
O200 Mg197 2.079 . S
O200 C210 1.264 . S
O201 Mg197 2.072 . S
O201 C211 1.260 . S
Mg202 O203 2.180 . S
Mg202 O204 2.030 . S
Mg202 O205 1.990 . S
Mg202 O206 2.117 . S
O203 Mg197 2.099 . S
O203 Mg202 2.180 . S
O203 C212 1.279 . S
O204 Mg202 2.030 . S
O204 C210 1.248 . S
O205 Mg202 1.990 . S
O205 C211 1.253 . S
O206 Mg202 2.117 . S
O206 C212 1.250 . S
C207 O213 1.248 . S
C207 O214 1.264 . S
C208 O194 1.253 . S
C208 O196 1.260 . S
C209 O198 1.279 . S
C209 O199 1.250 . S
C210 O200 1.264 . S
C210 O204 1.248 . S
C211 O201 1.260 . S
C211 O205 1.253 . S
C212 O203 1.279 . S
C212 O206 1.250 . S
O213 Mg195 2.030 . S
O213 C207 1.248 . S
O214 Mg197 2.079 . S
O214 C207 1.264 . S
O215 Mg216 1.990 . S
O215 C229 1.253 . S
Mg216 O215 1.990 . S
Mg216 O219 2.180 . S
Mg216 O220 2.117 1_455 S
Mg216 O234 2.030 . S
O217 Mg218 2.072 . S
O217 C229 1.260 . S
Mg218 O217 2.072 . S
Mg218 O219 2.099 . S
Mg218 O221 2.079 . S
Mg218 O222 2.072 1_455 S
Mg218 O224 2.099 1_554 S
Mg218 O235 2.079 . S
O219 Mg216 2.180 . S
O219 Mg218 2.099 . S
O219 C230 1.279 1_455 S
O220 Mg216 2.117 1_655 S
O220 C230 1.250 . S
O221 Mg218 2.079 . S
O221 C231 1.264 1_454 S
O222 Mg218 2.072 1_655 S
O222 C232 1.260 1_554 S
Mg223 O224 2.180 1_655 S
Mg223 O225 2.030 . S
Mg223 O226 1.990 . S
Mg223 O227 2.117 1_655 S
O224 Mg218 2.099 1_556 S
O224 Mg223 2.180 1_455 S
O224 C233 1.279 . S
O225 Mg223 2.030 . S
O225 C231 1.248 . S
O226 Mg223 1.990 . S
O226 C232 1.253 . S
O227 Mg223 2.117 1_455 S
O227 C233 1.250 . S
C228 O234 1.248 . S
C228 O235 1.264 . S
C229 O215 1.253 . S
C229 O217 1.260 . S
C230 O219 1.279 1_655 S
C230 O220 1.250 . S
C231 O221 1.264 1_656 S
C231 O225 1.248 . S
C232 O222 1.260 1_556 S
C232 O226 1.253 . S
C233 O224 1.279 . S
C233 O227 1.250 . S
O234 Mg216 2.030 . S
O234 C228 1.248 . S
O235 Mg218 2.079 . S
O235 C228 1.264 . S
H236 C254 0.951 . S
H237 C256 0.951 . S
H238 C258 0.950 . S
H239 C259 0.950 . S
H240 C261 0.950 . S
H241 C264 0.950 . S
H242 C265 0.950 . S
H243 C267 0.950 . S
H244 C268 0.950 . S
H245 C269 0.951 . S
H246 C271 0.951 . S
H247 C273 0.950 . S
H248 C274 0.950 . S
H249 C276 0.950 . S
H250 C279 0.950 . S
H251 C280 0.950 . S
H252 C282 0.950 1_565 S
H253 C283 0.950 . S
C254 H236 0.951 . S
C254 C255 1.366 . S
C254 C256 1.388 . S
C255 C254 1.366 . S
C255 C259 1.385 . S
C256 H237 0.951 . S
C256 C254 1.388 . S
C256 C257 1.366 . S
C257 C256 1.366 . S
C257 C258 1.414 . S
C257 C260 1.499 . S
C258 H238 0.950 . S
C258 C257 1.414 . S
C258 C259 1.374 . S
C259 H239 0.950 . S
C259 C255 1.385 . S
C259 C258 1.374 . S
C260 C257 1.499 . S
C260 C261 1.373 . S
C260 C262 1.389 . S
C261 H240 0.950 . S
C261 C260 1.373 . S
C261 C277 1.377 . S
C262 C260 1.389 . S
C262 C263 1.524 . S
C262 C276 1.377 . S
C263 C262 1.524 . S
C263 C264 1.397 . S
C263 C268 1.363 . S
C264 H241 0.950 . S
C264 C263 1.397 . S
C264 C265 1.334 . S
C265 H242 0.950 . S
C265 C264 1.334 . S
C265 C266 1.287 . S
C266 C265 1.287 . S
C266 C267 1.524 . S
C266 H285 0.913 . S
C267 H243 0.950 . S
C267 C266 1.524 . S
C267 C268 1.415 . S
C268 H244 0.950 . S
C268 C263 1.363 . S
C268 C267 1.415 . S
C269 H245 0.951 . S
C269 C270 1.366 . S
C269 C271 1.388 . S
C270 C269 1.366 . S
C270 C274 1.385 . S
C271 H246 0.951 . S
C271 C269 1.388 . S
C271 C272 1.366 . S
C272 C271 1.366 . S
C272 C273 1.414 . S
C272 C275 1.499 . S
C273 H247 0.950 . S
C273 C272 1.414 . S
C273 C274 1.374 . S
C274 H248 0.950 . S
C274 C270 1.385 . S
C274 C273 1.374 . S
C275 C272 1.499 . S
C275 C276 1.373 . S
C275 C277 1.389 . S
C276 H249 0.950 . S
C276 C262 1.377 . S
C276 C275 1.373 . S
C277 C261 1.377 . S
C277 C275 1.389 . S
C277 C278 1.524 . S
C278 C277 1.524 . S
C278 C279 1.397 . S
C278 C283 1.363 . S
C279 H250 0.950 . S
C279 C278 1.397 . S
C279 C280 1.334 1_455 S
C280 H251 0.950 . S
C280 C279 1.334 1_655 S
C280 C281 1.287 . S
C281 C280 1.287 . S
C281 C282 1.524 1_655 S
C281 H284 0.999 . S
C282 H252 0.950 1_545 S
C282 C281 1.524 1_455 S
C282 C283 1.415 . S
C283 H253 0.950 . S
C283 C278 1.363 . S
C283 C282 1.415 . S
H284 C281 0.999 . S
H285 C266 0.913 . S
H286 C304 0.951 . S
H287 C306 0.951 1_545 S
H288 C308 0.950 . S
H289 C309 0.950 . S
H290 C311 0.950 . S
H291 C314 0.950 . S
H292 C315 0.950 . S
H293 C317 0.950 . S
H294 C318 0.950 . S
H295 C319 0.951 . S
H296 C321 0.951 . S
H297 C323 0.950 . S
H298 C324 0.950 . S
H299 C326 0.950 1_545 S
H300 C329 0.950 . S
H301 C330 0.950 . S
H302 C332 0.950 . S
H303 C333 0.950 . S
C304 H286 0.951 . S
C304 C305 1.366 . S
C304 C306 1.388 . S
C305 C304 1.366 . S
C305 C309 1.385 . S
C306 H287 0.951 1_565 S
C306 C304 1.388 . S
C306 C307 1.366 . S
C307 C306 1.366 . S
C307 C308 1.414 . S
C307 C310 1.499 . S
C308 H288 0.950 . S
C308 C307 1.414 . S
C308 C309 1.374 . S
C309 H289 0.950 . S
C309 C305 1.385 . S
C309 C308 1.374 . S
C310 C307 1.499 . S
C310 C311 1.373 . S
C310 C312 1.389 . S
C311 H290 0.950 . S
C311 C310 1.373 . S
C311 C327 1.377 . S
C312 C310 1.389 . S
C312 C313 1.524 . S
C312 C326 1.377 . S
C313 C312 1.524 . S
C313 C314 1.397 . S
C313 C318 1.363 1_565 S
C314 H291 0.950 . S
C314 C313 1.397 . S
C314 C315 1.334 . S
C315 H292 0.950 . S
C315 C314 1.334 . S
C315 C316 1.287 . S
C316 C315 1.287 . S
C316 C317 1.524 1_565 S
C316 H335 0.913 . S
C317 H293 0.950 . S
C317 C316 1.524 1_545 S
C317 C318 1.415 . S
C318 H294 0.950 . S
C318 C313 1.363 1_545 S
C318 C317 1.415 . S
C319 H295 0.951 . S
C319 C320 1.366 1_565 S
C319 C321 1.388 . S
C320 C319 1.366 1_545 S
C320 C324 1.385 . S
C321 H296 0.951 . S
C321 C319 1.388 . S
C321 C322 1.368 . S
C322 C321 1.368 . S
C322 C323 1.411 1_565 S
C322 C325 1.499 . S
C323 H297 0.950 . S
C323 C322 1.411 1_545 S
C323 C324 1.374 . S
C324 H298 0.950 . S
C324 C320 1.385 . S
C324 C323 1.374 . S
C325 C322 1.499 . S
C325 C326 1.373 . S
C325 C327 1.389 . S
C326 H299 0.950 1_565 S
C326 C312 1.377 . S
C326 C325 1.373 . S
C327 C311 1.377 . S
C327 C325 1.389 . S
C327 C328 1.524 . S
C328 C327 1.524 . S
C328 C329 1.397 1_565 S
C328 C333 1.363 . S
C329 H300 0.950 . S
C329 C328 1.397 1_545 S
C329 C330 1.334 . S
C330 H301 0.950 . S
C330 C329 1.334 . S
C330 C331 1.287 1_545 S
C331 C330 1.287 1_565 S
C331 C332 1.524 . S
C331 H334 0.999 . S
C332 H302 0.950 . S
C332 C331 1.524 . S
C332 C333 1.415 . S
C333 H303 0.950 . S
C333 C328 1.363 . S
C333 C332 1.415 . S
H334 C331 0.999 . S
H335 C316 0.913 . S
H336 C354 0.951 . S
H337 C356 0.951 . S
H338 C358 0.950 . S
H339 C359 0.950 . S
H340 C361 0.950 . S
H341 C364 0.950 . S
H342 C365 0.950 . S
H343 C367 0.950 . S
H344 C368 0.950 . S
H345 C369 0.951 . S
H346 C371 0.951 . S
H347 C373 0.950 . S
H348 C374 0.950 . S
H349 C376 0.950 . S
H350 C379 0.950 . S
H351 C380 0.950 . S
H352 C382 0.950 . S
H353 C383 0.950 . S
C354 H336 0.951 . S
C354 C355 1.366 . S
C354 C356 1.388 . S
C355 C354 1.366 . S
C355 C359 1.385 . S
C356 H337 0.951 . S
C356 C354 1.388 . S
C356 C357 1.366 . S
C357 C356 1.366 . S
C357 C358 1.414 . S
C357 C360 1.499 . S
C358 H338 0.950 . S
C358 C357 1.414 . S
C358 C359 1.374 . S
C359 H339 0.950 . S
C359 C355 1.385 . S
C359 C358 1.374 . S
C360 C357 1.499 . S
C360 C361 1.373 . S
C360 C362 1.389 . S
C361 H340 0.950 . S
C361 C360 1.373 . S
C361 C377 1.377 . S
C362 C360 1.389 . S
C362 C363 1.524 . S
C362 C376 1.377 . S
C363 C362 1.524 . S
C363 C364 1.397 . S
C363 C368 1.363 . S
C364 H341 0.950 . S
C364 C363 1.397 . S
C364 C365 1.334 . S
C365 H342 0.950 . S
C365 C364 1.334 . S
C365 C366 1.287 . S
C366 C365 1.287 . S
C366 C367 1.524 . S
C366 H385 0.913 . S
C367 H343 0.950 . S
C367 C366 1.524 . S
C367 C368 1.415 . S
C368 H344 0.950 . S
C368 C363 1.363 . S
C368 C367 1.415 . S
C369 H345 0.951 . S
C369 C370 1.366 . S
C369 C371 1.388 . S
C370 C369 1.366 . S
C370 C374 1.385 . S
C371 H346 0.951 . S
C371 C369 1.388 . S
C371 C372 1.366 . S
C372 C371 1.366 . S
C372 C373 1.414 . S
C372 C375 1.499 . S
C373 H347 0.950 . S
C373 C372 1.414 . S
C373 C374 1.374 . S
C374 H348 0.950 . S
C374 C370 1.385 . S
C374 C373 1.374 . S
C375 C372 1.499 . S
C375 C376 1.373 . S
C375 C377 1.389 . S
C376 H349 0.950 . S
C376 C362 1.377 . S
C376 C375 1.373 . S
C377 C361 1.377 . S
C377 C375 1.389 . S
C377 C378 1.524 . S
C378 C377 1.524 . S
C378 C379 1.397 . S
C378 C383 1.363 . S
C379 H350 0.950 . S
C379 C378 1.397 . S
C379 C380 1.334 . S
C380 H351 0.950 . S
C380 C379 1.334 . S
C380 C381 1.287 . S
C381 C380 1.287 . S
C381 C382 1.524 . S
C381 H384 0.999 . S
C382 H352 0.950 . S
C382 C381 1.524 . S
C382 C383 1.415 . S
C383 H353 0.950 . S
C383 C378 1.363 . S
C383 C382 1.415 . S
H384 C381 0.999 . S
H385 C366 0.913 . S
H386 C404 0.951 . S
H387 C406 0.951 . S
H388 C408 0.950 . S
H389 C409 0.950 . S
H390 C411 0.950 . S
H391 C414 0.950 . S
H392 C415 0.950 . S
H393 C417 0.950 . S
H394 C418 0.950 . S
H395 C419 0.951 . S
H396 C421 0.951 . S
H397 C423 0.950 . S
H398 C424 0.950 . S
H399 C426 0.950 . S
H400 C429 0.950 . S
H401 C430 0.950 . S
H402 C432 0.950 . S
H403 C433 0.949 . S
C404 H386 0.951 . S
C404 C405 1.366 . S
C404 C406 1.388 . S
C405 C404 1.366 . S
C405 C409 1.385 . S
C406 H387 0.951 . S
C406 C404 1.388 . S
C406 C407 1.366 . S
C407 C406 1.366 . S
C407 C408 1.414 . S
C407 C410 1.499 . S
C408 H388 0.950 . S
C408 C407 1.414 . S
C408 C409 1.374 . S
C409 H389 0.950 . S
C409 C405 1.385 . S
C409 C408 1.374 . S
C410 C407 1.499 . S
C410 C411 1.373 . S
C410 C412 1.389 . S
C411 H390 0.950 . S
C411 C410 1.373 . S
C411 C427 1.377 . S
C412 C410 1.389 . S
C412 C413 1.524 . S
C412 C426 1.377 . S
C413 C412 1.524 . S
C413 C414 1.397 . S
C413 C418 1.363 . S
C414 H391 0.950 . S
C414 C413 1.397 . S
C414 C415 1.334 . S
C415 H392 0.950 . S
C415 C414 1.334 . S
C415 C416 1.287 . S
C416 C415 1.287 . S
C416 C417 1.524 . S
C416 H435 0.913 . S
C417 H393 0.950 . S
C417 C416 1.524 . S
C417 C418 1.415 . S
C418 H394 0.950 . S
C418 C413 1.363 . S
C418 C417 1.415 . S
C419 H395 0.951 . S
C419 C420 1.366 . S
C419 C421 1.388 . S
C420 C419 1.366 . S
C420 C424 1.385 . S
C421 H396 0.951 . S
C421 C419 1.388 . S
C421 C422 1.366 . S
C422 C421 1.366 . S
C422 C423 1.414 . S
C422 C425 1.499 . S
C423 H397 0.950 . S
C423 C422 1.414 . S
C423 C424 1.374 . S
C424 H398 0.950 . S
C424 C420 1.385 . S
C424 C423 1.374 . S
C425 C422 1.499 . S
C425 C426 1.373 . S
C425 C427 1.389 . S
C426 H399 0.950 . S
C426 C412 1.377 . S
C426 C425 1.373 . S
C427 C411 1.377 . S
C427 C425 1.389 . S
C427 C428 1.524 . S
C428 C427 1.524 . S
C428 C429 1.397 1_655 S
C428 C433 1.363 1_655 S
C429 H400 0.950 . S
C429 C428 1.397 1_455 S
C429 C430 1.334 . S
C430 H401 0.950 . S
C430 C429 1.334 . S
C430 C431 1.287 . S
C431 C430 1.287 . S
C431 C432 1.524 . S
C431 H434 0.999 . S
C432 H402 0.950 . S
C432 C431 1.524 . S
C432 C433 1.415 . S
C433 H403 0.949 . S
C433 C428 1.363 1_455 S
C433 C432 1.415 . S
H434 C431 0.999 . S
H435 C416 0.913 . S
H436 C454 0.951 . S
H437 C456 0.951 . S
H438 C458 0.950 . S
H439 C459 0.950 . S
H440 C461 0.950 . S
H441 C464 0.950 . S
H442 C465 0.950 . S
H443 C467 0.950 . S
H444 C468 0.950 . S
H445 C469 0.951 . S
H446 C471 0.951 . S
H447 C473 0.950 . S
H448 C474 0.950 . S
H449 C476 0.950 . S
H450 C479 0.950 . S
H451 C480 0.950 . S
H452 C482 0.950 . S
H453 C483 0.950 . S
C454 H436 0.951 . S
C454 C455 1.366 . S
C454 C456 1.388 . S
C455 C454 1.366 . S
C455 C459 1.385 . S
C456 H437 0.951 . S
C456 C454 1.388 . S
C456 C457 1.366 . S
C457 C456 1.366 . S
C457 C458 1.414 . S
C457 C460 1.499 . S
C458 H438 0.950 . S
C458 C457 1.414 . S
C458 C459 1.374 . S
C459 H439 0.950 . S
C459 C455 1.385 . S
C459 C458 1.374 . S
C460 C457 1.499 . S
C460 C461 1.373 . S
C460 C462 1.389 . S
C461 H440 0.950 . S
C461 C460 1.373 . S
C461 C477 1.377 . S
C462 C460 1.389 . S
C462 C463 1.524 . S
C462 C476 1.377 . S
C463 C462 1.524 . S
C463 C464 1.397 . S
C463 C468 1.363 . S
C464 H441 0.950 . S
C464 C463 1.397 . S
C464 C465 1.334 . S
C465 H442 0.950 . S
C465 C464 1.334 . S
C465 C466 1.287 . S
C466 C465 1.287 . S
C466 C467 1.524 . S
C466 H485 0.913 . S
C467 H443 0.950 . S
C467 C466 1.524 . S
C467 C468 1.415 . S
C468 H444 0.950 . S
C468 C463 1.363 . S
C468 C467 1.415 . S
C469 H445 0.951 . S
C469 C470 1.366 . S
C469 C471 1.388 . S
C470 C469 1.366 . S
C470 C474 1.385 . S
C471 H446 0.951 . S
C471 C469 1.388 . S
C471 C472 1.366 . S
C472 C471 1.366 . S
C472 C473 1.414 . S
C472 C475 1.499 . S
C473 H447 0.950 . S
C473 C472 1.414 . S
C473 C474 1.374 . S
C474 H448 0.950 . S
C474 C470 1.385 . S
C474 C473 1.374 . S
C475 C472 1.499 . S
C475 C476 1.373 . S
C475 C477 1.389 . S
C476 H449 0.950 . S
C476 C462 1.377 . S
C476 C475 1.373 . S
C477 C461 1.377 . S
C477 C475 1.389 . S
C477 C478 1.524 . S
C478 C477 1.524 . S
C478 C479 1.397 . S
C478 C483 1.363 . S
C479 H450 0.950 . S
C479 C478 1.397 . S
C479 C480 1.334 . S
C480 H451 0.950 . S
C480 C479 1.334 . S
C480 C481 1.287 . S
C481 C480 1.287 . S
C481 C482 1.524 . S
C481 H484 0.999 . S
C482 H452 0.950 . S
C482 C481 1.524 . S
C482 C483 1.415 . S
C483 H453 0.950 . S
C483 C478 1.363 . S
C483 C482 1.415 . S
H484 C481 0.999 . S
H485 C466 0.913 . S
H486 C504 0.951 1_545 S
H487 C506 0.951 . S
H488 C508 0.950 . S
H489 C509 0.950 . S
H490 C511 0.950 . S
H491 C514 0.950 . S
H492 C515 0.950 . S
H493 C517 0.950 . S
H494 C518 0.950 . S
H495 C519 0.951 . S
H496 C521 0.951 . S
H497 C523 0.950 . S
H498 C524 0.950 . S
H499 C526 0.950 . S
H500 C529 0.950 . S
H501 C530 0.950 . S
H502 C532 0.950 . S
H503 C533 0.950 . S
C504 H486 0.951 1_565 S
C504 C505 1.366 . S
C504 C506 1.388 1_565 S
C505 C504 1.366 . S
C505 C509 1.385 . S
C506 H487 0.951 . S
C506 C504 1.388 1_545 S
C506 C507 1.366 1_545 S
C507 C506 1.366 1_565 S
C507 C508 1.414 . S
C507 C510 1.499 . S
C508 H488 0.950 . S
C508 C507 1.414 . S
C508 C509 1.374 . S
C509 H489 0.950 . S
C509 C505 1.385 . S
C509 C508 1.374 . S
C510 C507 1.499 . S
C510 C511 1.373 . S
C510 C512 1.389 1_565 S
C511 H490 0.950 . S
C511 C510 1.373 . S
C511 C527 1.377 . S
C512 C510 1.389 1_545 S
C512 C513 1.524 . S
C512 C526 1.377 . S
C513 C512 1.524 . S
C513 C514 1.397 . S
C513 C518 1.363 . S
C514 H491 0.950 . S
C514 C513 1.397 . S
C514 C515 1.334 . S
C515 H492 0.950 . S
C515 C514 1.334 . S
C515 C516 1.287 . S
C516 C515 1.287 . S
C516 C517 1.524 . S
C516 H535 0.913 . S
C517 H493 0.950 . S
C517 C516 1.524 . S
C517 C518 1.415 . S
C518 H494 0.950 . S
C518 C513 1.363 . S
C518 C517 1.415 . S
C519 H495 0.951 . S
C519 C520 1.366 1_565 S
C519 C521 1.388 . S
C520 C519 1.366 1_545 S
C520 C524 1.385 . S
C521 H496 0.951 . S
C521 C519 1.388 . S
C521 C522 1.366 1_565 S
C522 C521 1.366 1_545 S
C522 C523 1.414 . S
C522 C525 1.499 1_545 S
C523 H497 0.950 . S
C523 C522 1.414 . S
C523 C524 1.374 . S
C524 H498 0.950 . S
C524 C520 1.385 . S
C524 C523 1.374 . S
C525 C522 1.499 1_565 S
C525 C526 1.373 1_565 S
C525 C527 1.389 . S
C526 H499 0.950 . S
C526 C512 1.377 . S
C526 C525 1.373 1_545 S
C527 C511 1.377 . S
C527 C525 1.389 . S
C527 C528 1.524 . S
C528 C527 1.524 . S
C528 C529 1.397 . S
C528 C533 1.363 . S
C529 H500 0.950 . S
C529 C528 1.397 . S
C529 C530 1.334 . S
C530 H501 0.950 . S
C530 C529 1.334 . S
C530 C531 1.287 . S
C531 C530 1.287 . S
C531 C532 1.524 . S
C531 H534 0.999 . S
C532 H502 0.950 . S
C532 C531 1.524 . S
C532 C533 1.415 . S
C533 H503 0.950 . S
C533 C528 1.363 . S
C533 C532 1.415 . S
H534 C531 0.999 . S
H535 C516 0.913 . S
H536 C554 0.951 . S
H537 C556 0.951 . S
H538 C558 0.950 . S
H539 C559 0.950 . S
H540 C561 0.950 . S
H541 C564 0.950 . S
H542 C565 0.950 . S
H543 C567 0.950 . S
H544 C568 0.950 . S
H545 C569 0.951 . S
H546 C571 0.951 1_554 S
H547 C573 0.950 . S
H548 C574 0.950 . S
H549 C576 0.950 . S
H550 C579 0.950 . S
H551 C580 0.950 . S
H552 C582 0.950 1_554 S
H553 C583 0.950 . S
C554 H536 0.951 . S
C554 C555 1.366 . S
C554 C556 1.388 . S
C555 C554 1.366 . S
C555 C559 1.385 . S
C556 H537 0.951 . S
C556 C554 1.388 . S
C556 C557 1.366 . S
C557 C556 1.366 . S
C557 C558 1.414 . S
C557 C560 1.499 . S
C558 H538 0.950 . S
C558 C557 1.414 . S
C558 C559 1.374 . S
C559 H539 0.950 . S
C559 C555 1.385 . S
C559 C558 1.374 . S
C560 C557 1.499 . S
C560 C561 1.373 . S
C560 C562 1.389 . S
C561 H540 0.950 . S
C561 C560 1.373 . S
C561 C577 1.377 . S
C562 C560 1.389 . S
C562 C563 1.524 . S
C562 C576 1.377 . S
C563 C562 1.524 . S
C563 C564 1.397 . S
C563 C568 1.363 . S
C564 H541 0.950 . S
C564 C563 1.397 . S
C564 C565 1.334 . S
C565 H542 0.950 . S
C565 C564 1.334 . S
C565 C566 1.287 . S
C566 C565 1.287 . S
C566 C567 1.524 . S
C566 H585 0.913 . S
C567 H543 0.950 . S
C567 C566 1.524 . S
C567 C568 1.415 . S
C568 H544 0.950 . S
C568 C563 1.363 . S
C568 C567 1.415 . S
C569 H545 0.951 . S
C569 C570 1.366 1_554 S
C569 C571 1.388 1_554 S
C570 C569 1.366 1_556 S
C570 C574 1.385 . S
C571 H546 0.951 1_556 S
C571 C569 1.388 1_556 S
C571 C572 1.366 . S
C572 C571 1.366 . S
C572 C573 1.414 . S
C572 C575 1.499 . S
C573 H547 0.950 . S
C573 C572 1.414 . S
C573 C574 1.374 . S
C574 H548 0.950 . S
C574 C570 1.385 . S
C574 C573 1.374 . S
C575 C572 1.499 . S
C575 C576 1.373 . S
C575 C577 1.389 . S
C576 H549 0.950 . S
C576 C562 1.377 . S
C576 C575 1.373 . S
C577 C561 1.377 . S
C577 C575 1.389 . S
C577 C578 1.524 . S
C578 C577 1.524 . S
C578 C579 1.397 . S
C578 C583 1.363 . S
C579 H550 0.950 . S
C579 C578 1.397 . S
C579 C580 1.334 . S
C580 H551 0.950 . S
C580 C579 1.334 . S
C580 C581 1.287 . S
C581 C580 1.287 . S
C581 C582 1.524 . S
C581 H584 0.999 . S
C582 H552 0.950 1_556 S
C582 C581 1.524 . S
C582 C583 1.415 . S
C583 H553 0.950 . S
C583 C578 1.363 . S
C583 C582 1.415 . S
H584 C581 0.999 . S
H585 C566 0.913 . S
H586 C604 0.951 . S
H587 C606 0.951 . S
H588 C608 0.950 . S
H589 C609 0.950 . S
H590 C611 0.950 . S
H591 C614 0.950 . S
H592 C615 0.950 . S
H593 C617 0.950 . S
H594 C618 0.950 . S
H595 C619 0.951 . S
H596 C621 0.951 . S
H597 C623 0.950 . S
H598 C624 0.950 . S
H599 C626 0.950 . S
H600 C629 0.950 . S
H601 C630 0.950 . S
H602 C632 0.950 . S
H603 C633 0.950 . S
C604 H586 0.951 . S
C604 C605 1.366 . S
C604 C606 1.388 . S
C605 C604 1.366 . S
C605 C609 1.385 . S
C606 H587 0.951 . S
C606 C604 1.388 . S
C606 C607 1.366 . S
C607 C606 1.366 . S
C607 C608 1.414 . S
C607 C610 1.499 . S
C608 H588 0.950 . S
C608 C607 1.414 . S
C608 C609 1.374 . S
C609 H589 0.950 . S
C609 C605 1.385 . S
C609 C608 1.374 . S
C610 C607 1.499 . S
C610 C611 1.373 . S
C610 C612 1.389 . S
C611 H590 0.950 . S
C611 C610 1.373 . S
C611 C627 1.377 . S
C612 C610 1.389 . S
C612 C613 1.524 . S
C612 C626 1.377 . S
C613 C612 1.524 . S
C613 C614 1.397 . S
C613 C618 1.363 . S
C614 H591 0.950 . S
C614 C613 1.397 . S
C614 C615 1.334 . S
C615 H592 0.950 . S
C615 C614 1.334 . S
C615 C616 1.287 . S
C616 C615 1.287 . S
C616 C617 1.524 . S
C616 H635 0.913 . S
C617 H593 0.950 . S
C617 C616 1.524 . S
C617 C618 1.415 . S
C618 H594 0.950 . S
C618 C613 1.363 . S
C618 C617 1.415 . S
C619 H595 0.951 . S
C619 C620 1.366 . S
C619 C621 1.388 . S
C620 C619 1.366 . S
C620 C624 1.385 . S
C621 H596 0.951 . S
C621 C619 1.388 . S
C621 C622 1.366 . S
C622 C621 1.366 . S
C622 C623 1.414 . S
C622 C625 1.499 . S
C623 H597 0.950 . S
C623 C622 1.414 . S
C623 C624 1.374 . S
C624 H598 0.950 . S
C624 C620 1.385 . S
C624 C623 1.374 . S
C625 C622 1.499 . S
C625 C626 1.373 . S
C625 C627 1.389 . S
C626 H599 0.950 . S
C626 C612 1.377 . S
C626 C625 1.373 . S
C627 C611 1.377 . S
C627 C625 1.389 . S
C627 C628 1.524 . S
C628 C627 1.524 . S
C628 C629 1.397 . S
C628 C633 1.363 . S
C629 H600 0.950 . S
C629 C628 1.397 . S
C629 C630 1.334 . S
C630 H601 0.950 . S
C630 C629 1.334 . S
C630 C631 1.287 . S
C631 C630 1.287 . S
C631 C632 1.524 . S
C631 H634 0.999 . S
C632 H602 0.950 . S
C632 C631 1.524 . S
C632 C633 1.415 . S
C633 H603 0.950 . S
C633 C628 1.363 . S
C633 C632 1.415 . S
H634 C631 0.999 . S
H635 C616 0.913 . S
H636 C654 0.951 . S
H637 C656 0.951 . S
H638 C658 0.950 . S
H639 C659 0.950 . S
H640 C661 0.950 . S
H641 C664 0.950 . S
H642 C665 0.950 . S
H643 C667 0.950 . S
H644 C668 0.950 1_556 S
H645 C669 0.951 . S
H646 C671 0.951 . S
H647 C673 0.950 . S
H648 C674 0.950 1_556 S
H649 C676 0.950 . S
H650 C679 0.950 . S
H651 C680 0.950 . S
H652 C682 0.950 . S
H653 C683 0.950 . S
C654 H636 0.951 . S
C654 C655 1.366 . S
C654 C656 1.388 . S
C655 C654 1.366 . S
C655 C659 1.385 . S
C656 H637 0.951 . S
C656 C654 1.388 . S
C656 C657 1.366 . S
C657 C656 1.366 . S
C657 C658 1.414 . S
C657 C660 1.499 . S
C658 H638 0.950 . S
C658 C657 1.414 . S
C658 C659 1.374 . S
C659 H639 0.950 . S
C659 C655 1.385 . S
C659 C658 1.374 . S
C660 C657 1.499 . S
C660 C661 1.373 . S
C660 C662 1.389 . S
C661 H640 0.950 . S
C661 C660 1.373 . S
C661 C677 1.377 . S
C662 C660 1.389 . S
C662 C663 1.524 . S
C662 C676 1.377 . S
C663 C662 1.524 . S
C663 C664 1.397 . S
C663 C668 1.363 . S
C664 H641 0.950 . S
C664 C663 1.397 . S
C664 C665 1.334 . S
C665 H642 0.950 . S
C665 C664 1.334 . S
C665 C666 1.287 . S
C666 C665 1.287 . S
C666 C667 1.524 1_554 S
C666 H685 0.913 1_554 S
C667 H643 0.950 . S
C667 C666 1.524 1_556 S
C667 C668 1.415 1_556 S
C668 H644 0.950 1_554 S
C668 C663 1.363 . S
C668 C667 1.415 1_554 S
C669 H645 0.951 . S
C669 C670 1.366 . S
C669 C671 1.388 . S
C670 C669 1.366 . S
C670 C674 1.385 . S
C671 H646 0.951 . S
C671 C669 1.388 . S
C671 C672 1.366 . S
C672 C671 1.366 . S
C672 C673 1.414 . S
C672 C675 1.499 . S
C673 H647 0.950 . S
C673 C672 1.414 . S
C673 C674 1.374 . S
C674 H648 0.950 1_554 S
C674 C670 1.385 . S
C674 C673 1.374 . S
C675 C672 1.499 . S
C675 C676 1.373 . S
C675 C677 1.389 . S
C676 H649 0.950 . S
C676 C662 1.377 . S
C676 C675 1.373 . S
C677 C661 1.377 . S
C677 C675 1.389 . S
C677 C678 1.524 . S
C678 C677 1.524 . S
C678 C679 1.397 . S
C678 C683 1.363 . S
C679 H650 0.950 . S
C679 C678 1.397 . S
C679 C680 1.334 1_455 S
C680 H651 0.950 . S
C680 C679 1.334 1_655 S
C680 C681 1.287 . S
C681 C680 1.287 . S
C681 C682 1.524 1_655 S
C681 H684 0.999 . S
C682 H652 0.950 . S
C682 C681 1.524 1_455 S
C682 C683 1.415 . S
C683 H653 0.950 . S
C683 C678 1.363 . S
C683 C682 1.415 . S
H684 C681 0.999 . S
H685 C666 0.913 1_556 S
H686 C704 0.951 . S
H687 C706 0.951 . S
H688 C708 0.950 . S
H689 C709 0.950 . S
H690 C711 0.950 . S
H691 C714 0.950 . S
H692 C715 0.950 . S
H693 C717 0.950 . S
H694 C718 0.950 . S
H695 C719 0.951 . S
H696 C721 0.951 . S
H697 C723 0.950 . S
H698 C724 0.950 . S
H699 C726 0.950 . S
H700 C729 0.950 . S
H701 C730 0.950 . S
H702 C732 0.950 . S
H703 C733 0.950 . S
C704 H686 0.951 . S
C704 C705 1.366 . S
C704 C706 1.388 . S
C705 C704 1.366 . S
C705 C709 1.385 . S
C706 H687 0.951 . S
C706 C704 1.388 . S
C706 C707 1.366 . S
C707 C706 1.366 . S
C707 C708 1.414 . S
C707 C710 1.499 . S
C708 H688 0.950 . S
C708 C707 1.414 . S
C708 C709 1.374 . S
C709 H689 0.950 . S
C709 C705 1.385 . S
C709 C708 1.374 . S
C710 C707 1.499 . S
C710 C711 1.373 . S
C710 C712 1.389 . S
C711 H690 0.950 . S
C711 C710 1.373 . S
C711 C727 1.377 . S
C712 C710 1.389 . S
C712 C713 1.524 1_556 S
C712 C726 1.377 1_556 S
C713 C712 1.524 1_554 S
C713 C714 1.397 . S
C713 C718 1.363 . S
C714 H691 0.950 . S
C714 C713 1.397 . S
C714 C715 1.334 . S
C715 H692 0.950 . S
C715 C714 1.334 . S
C715 C716 1.287 . S
C716 C715 1.287 . S
C716 C717 1.524 . S
C716 H735 0.913 . S
C717 H693 0.950 . S
C717 C716 1.524 . S
C717 C718 1.415 . S
C718 H694 0.950 . S
C718 C713 1.363 . S
C718 C717 1.415 . S
C719 H695 0.951 . S
C719 C720 1.366 1_556 S
C719 C721 1.388 . S
C720 C719 1.366 1_554 S
C720 C724 1.385 . S
C721 H696 0.951 . S
C721 C719 1.388 . S
C721 C722 1.366 . S
C722 C721 1.366 . S
C722 C723 1.414 1_556 S
C722 C725 1.499 . S
C723 H697 0.950 . S
C723 C722 1.414 1_554 S
C723 C724 1.374 . S
C724 H698 0.950 . S
C724 C720 1.385 . S
C724 C723 1.374 . S
C725 C722 1.499 . S
C725 C726 1.373 1_556 S
C725 C727 1.389 . S
C726 H699 0.950 . S
C726 C712 1.377 1_554 S
C726 C725 1.373 1_554 S
C727 C711 1.377 . S
C727 C725 1.389 . S
C727 C728 1.524 . S
C728 C727 1.524 . S
C728 C729 1.397 . S
C728 C733 1.363 . S
C729 H700 0.950 . S
C729 C728 1.397 . S
C729 C730 1.334 . S
C730 H701 0.950 . S
C730 C729 1.334 . S
C730 C731 1.287 . S
C731 C730 1.287 . S
C731 C732 1.524 . S
C731 H734 0.999 . S
C732 H702 0.950 . S
C732 C731 1.524 . S
C732 C733 1.415 . S
C733 H703 0.950 . S
C733 C728 1.363 . S
C733 C732 1.415 . S
H734 C731 0.999 . S
H735 C716 0.913 . S
H736 C754 0.951 . S
H737 C756 0.951 . S
H738 C758 0.950 . S
H739 C759 0.950 . S
H740 C761 0.950 . S
H741 C764 0.950 . S
H742 C765 0.950 . S
H743 C767 0.950 . S
H744 C768 0.950 . S
H745 C769 0.951 1_455 S
H746 C771 0.951 . S
H747 C773 0.950 . S
H748 C774 0.950 . S
H749 C776 0.950 . S
H750 C779 0.950 . S
H751 C780 0.950 . S
H752 C782 0.950 . S
H753 C783 0.950 . S
C754 H736 0.951 . S
C754 C755 1.366 . S
C754 C756 1.388 . S
C755 C754 1.366 . S
C755 C759 1.385 . S
C756 H737 0.951 . S
C756 C754 1.388 . S
C756 C757 1.366 . S
C757 C756 1.366 . S
C757 C758 1.414 . S
C757 C760 1.499 . S
C758 H738 0.950 . S
C758 C757 1.414 . S
C758 C759 1.374 . S
C759 H739 0.950 . S
C759 C755 1.385 . S
C759 C758 1.374 . S
C760 C757 1.499 . S
C760 C761 1.373 . S
C760 C762 1.389 . S
C761 H740 0.950 . S
C761 C760 1.373 . S
C761 C777 1.377 . S
C762 C760 1.389 . S
C762 C763 1.524 . S
C762 C776 1.377 . S
C763 C762 1.524 . S
C763 C764 1.397 . S
C763 C768 1.363 . S
C764 H741 0.950 . S
C764 C763 1.397 . S
C764 C765 1.334 . S
C765 H742 0.950 . S
C765 C764 1.334 . S
C765 C766 1.287 . S
C766 C765 1.287 . S
C766 C767 1.524 . S
C766 H785 0.913 . S
C767 H743 0.950 . S
C767 C766 1.524 . S
C767 C768 1.415 . S
C768 H744 0.950 . S
C768 C763 1.363 . S
C768 C767 1.415 . S
C769 H745 0.951 1_655 S
C769 C770 1.366 . S
C769 C771 1.388 . S
C770 C769 1.366 . S
C770 C774 1.385 . S
C771 H746 0.951 . S
C771 C769 1.388 . S
C771 C772 1.366 . S
C772 C771 1.366 . S
C772 C773 1.414 . S
C772 C775 1.499 . S
C773 H747 0.950 . S
C773 C772 1.414 . S
C773 C774 1.374 . S
C774 H748 0.950 . S
C774 C770 1.385 . S
C774 C773 1.374 . S
C775 C772 1.499 . S
C775 C776 1.373 . S
C775 C777 1.389 . S
C776 H749 0.950 . S
C776 C762 1.377 . S
C776 C775 1.373 . S
C777 C761 1.377 . S
C777 C775 1.389 . S
C777 C778 1.524 . S
C778 C777 1.524 . S
C778 C779 1.397 . S
C778 C783 1.363 1_655 S
C779 H750 0.950 . S
C779 C778 1.397 . S
C779 C780 1.334 1_655 S
C780 H751 0.950 . S
C780 C779 1.334 1_455 S
C780 C781 1.287 . S
C781 C780 1.287 . S
C781 C782 1.524 . S
C781 H784 0.999 . S
C782 H752 0.950 . S
C782 C781 1.524 . S
C782 C783 1.415 . S
C783 H753 0.950 . S
C783 C778 1.363 1_455 S
C783 C782 1.415 . S
H784 C781 0.999 . S
H785 C766 0.913 . S
H786 C804 0.951 . S
H787 C806 0.951 . S
H788 C808 0.950 . S
H789 C809 0.950 . S
H790 C811 0.950 . S
H791 C814 0.950 . S
H792 C815 0.950 . S
H793 C817 0.950 . S
H794 C818 0.950 . S
H795 C819 0.951 . S
H796 C821 0.951 . S
H797 C823 0.950 . S
H798 C824 0.950 . S
H799 C826 0.950 . S
H800 C829 0.950 . S
H801 C830 0.950 . S
H802 C832 0.950 . S
H803 C833 0.950 . S
C804 H786 0.951 . S
C804 C805 1.366 . S
C804 C806 1.388 . S
C805 C804 1.366 . S
C805 C809 1.385 . S
C806 H787 0.951 . S
C806 C804 1.388 . S
C806 C807 1.366 . S
C807 C806 1.366 . S
C807 C808 1.414 . S
C807 C810 1.499 . S
C808 H788 0.950 . S
C808 C807 1.414 . S
C808 C809 1.374 . S
C809 H789 0.950 . S
C809 C805 1.385 . S
C809 C808 1.374 . S
C810 C807 1.499 . S
C810 C811 1.373 . S
C810 C812 1.389 . S
C811 H790 0.950 . S
C811 C810 1.373 . S
C811 C827 1.377 . S
C812 C810 1.389 . S
C812 C813 1.524 . S
C812 C826 1.377 . S
C813 C812 1.524 . S
C813 C814 1.397 . S
C813 C818 1.363 . S
C814 H791 0.950 . S
C814 C813 1.397 . S
C814 C815 1.334 . S
C815 H792 0.950 . S
C815 C814 1.334 . S
C815 C816 1.287 . S
C816 C815 1.287 . S
C816 C817 1.524 . S
C816 H835 0.913 . S
C817 H793 0.950 . S
C817 C816 1.524 . S
C817 C818 1.415 . S
C818 H794 0.950 . S
C818 C813 1.363 . S
C818 C817 1.415 . S
C819 H795 0.951 . S
C819 C820 1.366 . S
C819 C821 1.388 . S
C820 C819 1.366 . S
C820 C824 1.385 . S
C821 H796 0.951 . S
C821 C819 1.388 . S
C821 C822 1.366 . S
C822 C821 1.366 . S
C822 C823 1.414 . S
C822 C825 1.499 . S
C823 H797 0.950 . S
C823 C822 1.414 . S
C823 C824 1.374 . S
C824 H798 0.950 . S
C824 C820 1.385 . S
C824 C823 1.374 . S
C825 C822 1.499 . S
C825 C826 1.373 . S
C825 C827 1.389 . S
C826 H799 0.950 . S
C826 C812 1.377 . S
C826 C825 1.373 . S
C827 C811 1.377 . S
C827 C825 1.389 . S
C827 C828 1.524 . S
C828 C827 1.524 . S
C828 C829 1.397 . S
C828 C833 1.363 . S
C829 H800 0.950 . S
C829 C828 1.397 . S
C829 C830 1.334 . S
C830 H801 0.950 . S
C830 C829 1.334 . S
C830 C831 1.287 . S
C831 C830 1.287 . S
C831 C832 1.524 . S
C831 H834 0.999 . S
C832 H802 0.950 . S
C832 C831 1.524 . S
C832 C833 1.415 . S
C833 H803 0.950 . S
C833 C828 1.363 . S
C833 C832 1.415 . S
H834 C831 0.999 . S
H835 C816 0.913 . S
H836 C854 0.951 . S
H837 C856 0.951 . S
H838 C858 0.950 . S
H839 C859 0.950 . S
H840 C861 0.950 . S
H841 C864 0.950 . S
H842 C865 0.950 . S
H843 C867 0.950 . S
H844 C868 0.950 . S
H845 C869 0.951 1_455 S
H846 C871 0.950 . S
H847 C873 0.952 1_545 S
H848 C874 0.950 . S
H849 C876 0.950 . S
H850 C879 0.950 . S
H851 C880 0.950 . S
H852 C882 0.950 . S
H853 C883 0.950 1_565 S
C854 H836 0.951 . S
C854 C855 1.366 . S
C854 C856 1.388 . S
C855 C854 1.366 . S
C855 C859 1.385 . S
C856 H837 0.951 . S
C856 C854 1.388 . S
C856 C857 1.366 . S
C857 C856 1.366 . S
C857 C858 1.414 . S
C857 C860 1.499 . S
C858 H838 0.950 . S
C858 C857 1.414 . S
C858 C859 1.374 . S
C859 H839 0.950 . S
C859 C855 1.385 . S
C859 C858 1.374 . S
C860 C857 1.499 . S
C860 C861 1.373 . S
C860 C862 1.389 . S
C861 H840 0.950 . S
C861 C860 1.373 . S
C861 C877 1.377 . S
C862 C860 1.389 . S
C862 C863 1.524 . S
C862 C876 1.377 . S
C863 C862 1.524 . S
C863 C864 1.397 . S
C863 C868 1.363 . S
C864 H841 0.950 . S
C864 C863 1.397 . S
C864 C865 1.334 . S
C865 H842 0.950 . S
C865 C864 1.334 . S
C865 C866 1.287 . S
C866 C865 1.287 . S
C866 C867 1.524 . S
C866 H885 0.913 . S
C867 H843 0.950 . S
C867 C866 1.524 . S
C867 C868 1.415 . S
C868 H844 0.950 . S
C868 C863 1.363 . S
C868 C867 1.415 . S
C869 H845 0.951 1_655 S
C869 C870 1.366 1_565 S
C869 C871 1.388 . S
C870 C869 1.366 1_545 S
C870 C874 1.385 . S
C871 H846 0.950 . S
C871 C869 1.388 . S
C871 C872 1.366 . S
C872 C871 1.366 . S
C872 C873 1.412 . S
C872 C875 1.499 . S
C873 H847 0.952 1_565 S
C873 C872 1.412 . S
C873 C874 1.374 1_565 S
C874 H848 0.950 . S
C874 C870 1.385 . S
C874 C873 1.374 1_545 S
C875 C872 1.499 . S
C875 C876 1.373 . S
C875 C877 1.389 . S
C876 H849 0.950 . S
C876 C862 1.377 . S
C876 C875 1.373 . S
C877 C861 1.377 . S
C877 C875 1.389 . S
C877 C878 1.524 1_665 S
C878 C877 1.524 1_445 S
C878 C879 1.397 1_455 S
C878 C883 1.363 . S
C879 H850 0.950 . S
C879 C878 1.397 1_655 S
C879 C880 1.334 1_655 S
C880 H851 0.950 . S
C880 C879 1.334 1_455 S
C880 C881 1.287 . S
C881 C880 1.287 . S
C881 C882 1.524 . S
C881 H884 0.999 . S
C882 H852 0.950 . S
C882 C881 1.524 . S
C882 C883 1.415 . S
C883 H853 0.950 1_545 S
C883 C878 1.363 . S
C883 C882 1.415 . S
H884 C881 0.999 . S
H885 C866 0.913 . S
H886 C904 0.951 . S
H887 C906 0.951 . S
H888 C908 0.950 . S
H889 C909 0.950 . S
H890 C911 0.950 . S
H891 C914 0.950 . S
H892 C915 0.950 . S
H893 C917 0.950 . S
H894 C918 0.950 . S
H895 C919 0.951 . S
H896 C921 0.951 . S
H897 C923 0.950 . S
H898 C924 0.950 . S
H899 C926 0.950 . S
H900 C929 0.950 . S
H901 C930 0.950 . S
H902 C932 0.950 . S
H903 C933 0.950 . S
C904 H886 0.951 . S
C904 C905 1.366 . S
C904 C906 1.388 . S
C905 C904 1.366 . S
C905 C909 1.385 . S
C906 H887 0.951 . S
C906 C904 1.388 . S
C906 C907 1.366 . S
C907 C906 1.366 . S
C907 C908 1.414 . S
C907 C910 1.499 . S
C908 H888 0.950 . S
C908 C907 1.414 . S
C908 C909 1.374 . S
C909 H889 0.950 . S
C909 C905 1.385 . S
C909 C908 1.374 . S
C910 C907 1.499 . S
C910 C911 1.373 . S
C910 C912 1.389 . S
C911 H890 0.950 . S
C911 C910 1.373 . S
C911 C927 1.377 . S
C912 C910 1.389 . S
C912 C913 1.524 . S
C912 C926 1.377 . S
C913 C912 1.524 . S
C913 C914 1.397 . S
C913 C918 1.363 . S
C914 H891 0.950 . S
C914 C913 1.397 . S
C914 C915 1.334 . S
C915 H892 0.950 . S
C915 C914 1.334 . S
C915 C916 1.287 . S
C916 C915 1.287 . S
C916 C917 1.524 . S
C916 H935 0.913 . S
C917 H893 0.950 . S
C917 C916 1.524 . S
C917 C918 1.415 . S
C918 H894 0.950 . S
C918 C913 1.363 . S
C918 C917 1.415 . S
C919 H895 0.951 . S
C919 C920 1.366 . S
C919 C921 1.388 . S
C920 C919 1.366 . S
C920 C924 1.385 . S
C921 H896 0.951 . S
C921 C919 1.388 . S
C921 C922 1.366 . S
C922 C921 1.366 . S
C922 C923 1.414 . S
C922 C925 1.499 . S
C923 H897 0.950 . S
C923 C922 1.414 . S
C923 C924 1.374 . S
C924 H898 0.950 . S
C924 C920 1.385 . S
C924 C923 1.374 . S
C925 C922 1.499 . S
C925 C926 1.373 . S
C925 C927 1.389 . S
C926 H899 0.950 . S
C926 C912 1.377 . S
C926 C925 1.373 . S
C927 C911 1.377 . S
C927 C925 1.389 . S
C927 C928 1.524 . S
C928 C927 1.524 . S
C928 C929 1.397 . S
C928 C933 1.363 . S
C929 H900 0.950 . S
C929 C928 1.397 . S
C929 C930 1.334 . S
C930 H901 0.950 . S
C930 C929 1.334 . S
C930 C931 1.287 . S
C931 C930 1.287 . S
C931 C932 1.524 . S
C931 H934 0.999 . S
C932 H902 0.950 . S
C932 C931 1.524 . S
C932 C933 1.415 . S
C933 H903 0.950 . S
C933 C928 1.363 . S
C933 C932 1.415 . S
H934 C931 0.999 . S
H935 C916 0.913 . S
H936 C954 0.951 . S
H937 C956 0.951 . S
H938 C958 0.950 . S
H939 C959 0.950 . S
H940 C961 0.950 . S
H941 C964 0.950 . S
H942 C965 0.950 . S
H943 C967 0.950 . S
H944 C968 0.950 . S
H945 C969 0.951 . S
H946 C971 0.951 . S
H947 C973 0.950 . S
H948 C974 0.950 . S
H949 C976 0.950 . S
H950 C979 0.950 . S
H951 C980 0.950 . S
H952 C982 0.950 . S
H953 C983 0.950 . S
C954 H936 0.951 . S
C954 C955 1.366 . S
C954 C956 1.388 . S
C955 C954 1.366 . S
C955 C959 1.385 . S
C956 H937 0.951 . S
C956 C954 1.388 . S
C956 C957 1.366 . S
C957 C956 1.366 . S
C957 C958 1.414 . S
C957 C960 1.499 . S
C958 H938 0.950 . S
C958 C957 1.414 . S
C958 C959 1.374 . S
C959 H939 0.950 . S
C959 C955 1.385 . S
C959 C958 1.374 . S
C960 C957 1.499 . S
C960 C961 1.373 . S
C960 C962 1.389 . S
C961 H940 0.950 . S
C961 C960 1.373 . S
C961 C977 1.377 . S
C962 C960 1.389 . S
C962 C963 1.524 . S
C962 C976 1.377 . S
C963 C962 1.524 . S
C963 C964 1.397 . S
C963 C968 1.363 . S
C964 H941 0.950 . S
C964 C963 1.397 . S
C964 C965 1.334 . S
C965 H942 0.950 . S
C965 C964 1.334 . S
C965 C966 1.287 . S
C966 C965 1.287 . S
C966 C967 1.524 . S
C966 H985 0.913 . S
C967 H943 0.950 . S
C967 C966 1.524 . S
C967 C968 1.415 . S
C968 H944 0.950 . S
C968 C963 1.363 . S
C968 C967 1.415 . S
C969 H945 0.951 . S
C969 C970 1.366 . S
C969 C971 1.388 . S
C970 C969 1.366 . S
C970 C974 1.385 . S
C971 H946 0.951 . S
C971 C969 1.388 . S
C971 C972 1.366 . S
C972 C971 1.366 . S
C972 C973 1.414 . S
C972 C975 1.499 . S
C973 H947 0.950 . S
C973 C972 1.414 . S
C973 C974 1.374 . S
C974 H948 0.950 . S
C974 C970 1.385 . S
C974 C973 1.374 . S
C975 C972 1.499 . S
C975 C976 1.373 . S
C975 C977 1.389 . S
C976 H949 0.950 . S
C976 C962 1.377 . S
C976 C975 1.373 . S
C977 C961 1.377 . S
C977 C975 1.389 . S
C977 C978 1.524 . S
C978 C977 1.524 . S
C978 C979 1.397 . S
C978 C983 1.363 . S
C979 H950 0.950 . S
C979 C978 1.397 . S
C979 C980 1.334 . S
C980 H951 0.950 . S
C980 C979 1.334 . S
C980 C981 1.287 . S
C981 C980 1.287 . S
C981 C982 1.524 . S
C981 H984 0.999 . S
C982 H952 0.950 . S
C982 C981 1.524 . S
C982 C983 1.415 . S
C983 H953 0.950 . S
C983 C978 1.363 . S
C983 C982 1.415 . S
H984 C981 0.999 . S
H985 C966 0.913 . S
H986 C1004 0.951 . S
H987 C1006 0.951 . S
H988 C1008 0.950 . S
H989 C1009 0.950 . S
H990 C1011 0.950 . S
H991 C1014 0.950 . S
H992 C1015 0.950 . S
H993 C1017 0.950 . S
H994 C1018 0.950 . S
H995 C1019 0.951 . S
H996 C1021 0.951 . S
H997 C1023 0.950 . S
H998 C1024 0.950 . S
H999 C1026 0.950 . S
H1000 C1029 0.954 . S
H1001 C1030 0.950 . S
H1002 C1032 0.950 . S
H1003 C1033 0.950 . S
C1004 H986 0.951 . S
C1004 C1005 1.366 . S
C1004 C1006 1.388 . S
C1005 C1004 1.366 . S
C1005 C1009 1.385 . S
C1006 H987 0.951 . S
C1006 C1004 1.388 . S
C1006 C1007 1.366 . S
C1007 C1006 1.366 . S
C1007 C1008 1.414 . S
C1007 C1010 1.499 . S
C1008 H988 0.950 . S
C1008 C1007 1.414 . S
C1008 C1009 1.374 . S
C1009 H989 0.950 . S
C1009 C1005 1.385 . S
C1009 C1008 1.374 . S
C1010 C1007 1.499 . S
C1010 C1011 1.373 . S
C1010 C1012 1.389 . S
C1011 H990 0.950 . S
C1011 C1010 1.373 . S
C1011 C1027 1.377 . S
C1012 C1010 1.389 . S
C1012 C1013 1.524 . S
C1012 C1026 1.377 . S
C1013 C1012 1.524 . S
C1013 C1014 1.397 . S
C1013 C1018 1.363 . S
C1014 H991 0.950 . S
C1014 C1013 1.397 . S
C1014 C1015 1.334 . S
C1015 H992 0.950 . S
C1015 C1014 1.334 . S
C1015 C1016 1.287 . S
C1016 C1015 1.287 . S
C1016 C1017 1.524 . S
C1016 H1035 0.913 . S
C1017 H993 0.950 . S
C1017 C1016 1.524 . S
C1017 C1018 1.415 . S
C1018 H994 0.950 . S
C1018 C1013 1.363 . S
C1018 C1017 1.415 . S
C1019 H995 0.951 . S
C1019 C1020 1.366 . S
C1019 C1021 1.388 . S
C1020 C1019 1.366 . S
C1020 C1024 1.385 . S
C1021 H996 0.951 . S
C1021 C1019 1.388 . S
C1021 C1022 1.366 . S
C1022 C1021 1.366 . S
C1022 C1023 1.414 . S
C1022 C1025 1.499 . S
C1023 H997 0.950 . S
C1023 C1022 1.414 . S
C1023 C1024 1.374 . S
C1024 H998 0.950 . S
C1024 C1020 1.385 . S
C1024 C1023 1.374 . S
C1025 C1022 1.499 . S
C1025 C1026 1.373 . S
C1025 C1027 1.389 . S
C1026 H999 0.950 . S
C1026 C1012 1.377 . S
C1026 C1025 1.373 . S
C1027 C1011 1.377 . S
C1027 C1025 1.389 . S
C1027 C1028 1.524 . S
C1028 C1027 1.524 . S
C1028 C1029 1.397 . S
C1028 C1033 1.363 . S
C1029 H1000 0.954 . S
C1029 C1028 1.397 . S
C1029 C1030 1.334 1_455 S
C1030 H1001 0.950 . S
C1030 C1029 1.334 1_655 S
C1030 C1031 1.287 . S
C1031 C1030 1.287 . S
C1031 C1032 1.524 1_655 S
C1031 H1034 0.999 . S
C1032 H1002 0.950 . S
C1032 C1031 1.524 1_455 S
C1032 C1033 1.415 . S
C1033 H1003 0.950 . S
C1033 C1028 1.363 . S
C1033 C1032 1.415 . S
H1034 C1031 0.999 . S
H1035 C1016 0.913 . S
H1036 C1054 0.951 . S
H1037 C1056 0.951 . S
H1038 C1058 0.930 1_554 S
H1039 C1059 0.950 . S
H1040 C1061 0.950 . S
H1041 C1064 0.950 . S
H1042 C1065 0.950 . S
H1043 C1067 0.950 . S
H1044 C1068 0.950 1_565 S
H1045 C1069 0.951 . S
H1046 C1071 0.951 . S
H1047 C1073 0.962 . S
H1048 C1074 0.947 1_556 S
H1049 C1076 0.950 . S
H1050 C1079 0.950 . S
H1051 C1080 0.950 . S
H1052 C1082 0.950 . S
H1053 C1083 0.950 . S
C1054 H1036 0.951 . S
C1054 C1055 1.366 . S
C1054 C1056 1.388 . S
C1055 C1054 1.366 . S
C1055 C1059 1.385 . S
C1056 H1037 0.951 . S
C1056 C1054 1.388 . S
C1056 C1057 1.366 . S
C1057 C1056 1.366 . S
C1057 C1058 1.414 . S
C1057 C1060 1.499 . S
C1058 H1038 0.930 1_556 S
C1058 C1057 1.414 . S
C1058 C1059 1.374 . S
C1059 H1039 0.950 . S
C1059 C1055 1.385 . S
C1059 C1058 1.374 . S
C1060 C1057 1.499 . S
C1060 C1061 1.373 1_556 S
C1060 C1062 1.389 1_565 S
C1061 H1040 0.950 . S
C1061 C1060 1.373 1_554 S
C1061 C1077 1.377 . S
C1062 C1060 1.389 1_545 S
C1062 C1063 1.524 . S
C1062 C1076 1.377 . S
C1063 C1062 1.524 . S
C1063 C1064 1.397 . S
C1063 C1068 1.363 . S
C1064 H1041 0.950 . S
C1064 C1063 1.397 . S
C1064 C1065 1.334 . S
C1065 H1042 0.950 . S
C1065 C1064 1.334 . S
C1065 C1066 1.287 . S
C1066 C1065 1.287 . S
C1066 C1067 1.524 . S
C1066 H1085 0.913 . S
C1067 H1043 0.950 . S
C1067 C1066 1.524 . S
C1067 C1068 1.415 . S
C1068 H1044 0.950 1_545 S
C1068 C1063 1.363 . S
C1068 C1067 1.415 . S
C1069 H1045 0.951 . S
C1069 C1070 1.366 . S
C1069 C1071 1.388 . S
C1070 C1069 1.366 . S
C1070 C1074 1.390 . S
C1071 H1046 0.951 . S
C1071 C1069 1.388 . S
C1071 C1072 1.366 . S
C1072 C1071 1.366 . S
C1072 C1073 1.415 1_544 S
C1072 C1075 1.499 1_544 S
C1073 H1047 0.962 . S
C1073 C1072 1.415 1_566 S
C1073 C1074 1.359 1_566 S
C1074 H1048 0.947 1_554 S
C1074 C1070 1.390 . S
C1074 C1073 1.359 1_544 S
C1075 C1072 1.499 1_566 S
C1075 C1076 1.373 1_565 S
C1075 C1077 1.389 1_556 S
C1076 H1049 0.950 . S
C1076 C1062 1.377 . S
C1076 C1075 1.373 1_545 S
C1077 C1061 1.377 . S
C1077 C1075 1.389 1_554 S
C1077 C1078 1.524 . S
C1078 C1077 1.524 . S
C1078 C1079 1.397 . S
C1078 C1083 1.363 . S
C1079 H1050 0.950 . S
C1079 C1078 1.397 . S
C1079 C1080 1.334 . S
C1080 H1051 0.950 . S
C1080 C1079 1.334 . S
C1080 C1081 1.287 . S
C1081 C1080 1.287 . S
C1081 C1082 1.524 . S
C1081 H1084 0.999 . S
C1082 H1052 0.950 . S
C1082 C1081 1.524 . S
C1082 C1083 1.415 . S
C1083 H1053 0.950 . S
C1083 C1078 1.363 . S
C1083 C1082 1.415 . S
H1084 C1081 0.999 . S
H1085 C1066 0.913 . S
H1086 C1104 0.951 . S
H1087 C1106 0.951 . S
H1088 C1108 0.950 . S
H1089 C1109 0.950 . S
H1090 C1111 0.950 . S
H1091 C1114 0.950 . S
H1092 C1115 0.950 . S
H1093 C1117 0.950 . S
H1094 C1118 0.950 . S
H1095 C1119 0.951 . S
H1096 C1121 0.951 . S
H1097 C1123 0.950 . S
H1098 C1124 0.950 . S
H1099 C1126 0.950 . S
H1100 C1129 0.950 . S
H1101 C1130 0.950 . S
H1102 C1132 0.950 . S
H1103 C1133 0.950 . S
C1104 H1086 0.951 . S
C1104 C1105 1.366 . S
C1104 C1106 1.388 . S
C1105 C1104 1.366 . S
C1105 C1109 1.385 . S
C1106 H1087 0.951 . S
C1106 C1104 1.388 . S
C1106 C1107 1.366 . S
C1107 C1106 1.366 . S
C1107 C1108 1.414 . S
C1107 C1110 1.499 . S
C1108 H1088 0.950 . S
C1108 C1107 1.414 . S
C1108 C1109 1.374 . S
C1109 H1089 0.950 . S
C1109 C1105 1.385 . S
C1109 C1108 1.374 . S
C1110 C1107 1.499 . S
C1110 C1111 1.373 . S
C1110 C1112 1.389 . S
C1111 H1090 0.950 . S
C1111 C1110 1.373 . S
C1111 C1127 1.377 . S
C1112 C1110 1.389 . S
C1112 C1113 1.524 . S
C1112 C1126 1.377 . S
C1113 C1112 1.524 . S
C1113 C1114 1.397 . S
C1113 C1118 1.363 . S
C1114 H1091 0.950 . S
C1114 C1113 1.397 . S
C1114 C1115 1.334 . S
C1115 H1092 0.950 . S
C1115 C1114 1.334 . S
C1115 C1116 1.287 . S
C1116 C1115 1.287 . S
C1116 C1117 1.524 . S
C1116 H1135 0.913 . S
C1117 H1093 0.950 . S
C1117 C1116 1.524 . S
C1117 C1118 1.415 . S
C1118 H1094 0.950 . S
C1118 C1113 1.363 . S
C1118 C1117 1.415 . S
C1119 H1095 0.951 . S
C1119 C1120 1.366 . S
C1119 C1121 1.388 . S
C1120 C1119 1.366 . S
C1120 C1124 1.385 . S
C1121 H1096 0.951 . S
C1121 C1119 1.388 . S
C1121 C1122 1.366 . S
C1122 C1121 1.366 . S
C1122 C1123 1.414 . S
C1122 C1125 1.499 . S
C1123 H1097 0.950 . S
C1123 C1122 1.414 . S
C1123 C1124 1.374 . S
C1124 H1098 0.950 . S
C1124 C1120 1.385 . S
C1124 C1123 1.374 . S
C1125 C1122 1.499 . S
C1125 C1126 1.373 . S
C1125 C1127 1.389 . S
C1126 H1099 0.950 . S
C1126 C1112 1.377 . S
C1126 C1125 1.373 . S
C1127 C1111 1.377 . S
C1127 C1125 1.389 . S
C1127 C1128 1.524 . S
C1128 C1127 1.524 . S
C1128 C1129 1.397 . S
C1128 C1133 1.363 . S
C1129 H1100 0.950 . S
C1129 C1128 1.397 . S
C1129 C1130 1.334 . S
C1130 H1101 0.950 . S
C1130 C1129 1.334 . S
C1130 C1131 1.287 . S
C1131 C1130 1.287 . S
C1131 C1132 1.524 . S
C1131 H1134 0.999 . S
C1132 H1102 0.950 . S
C1132 C1131 1.524 . S
C1132 C1133 1.415 . S
C1133 H1103 0.950 . S
C1133 C1128 1.363 . S
C1133 C1132 1.415 . S
H1134 C1131 0.999 . S
H1135 C1116 0.913 . S
H1136 C1154 0.951 . S
H1137 C1156 0.951 . S
H1138 C1158 0.950 . S
H1139 C1159 0.950 . S
H1140 C1161 0.950 . S
H1141 C1164 0.950 . S
H1142 C1165 0.950 . S
H1143 C1167 0.950 . S
H1144 C1168 0.950 . S
H1145 C1169 0.951 . S
H1146 C1171 0.951 . S
H1147 C1173 0.950 . S
H1148 C1174 0.950 . S
H1149 C1176 0.950 . S
H1150 C1179 0.950 . S
H1151 C1180 0.950 . S
H1152 C1182 0.950 . S
H1153 C1183 0.950 . S
C1154 H1136 0.951 . S
C1154 C1155 1.366 . S
C1154 C1156 1.388 . S
C1155 C1154 1.366 . S
C1155 C1159 1.385 . S
C1156 H1137 0.951 . S
C1156 C1154 1.388 . S
C1156 C1157 1.366 . S
C1157 C1156 1.366 . S
C1157 C1158 1.414 . S
C1157 C1160 1.499 . S
C1158 H1138 0.950 . S
C1158 C1157 1.414 . S
C1158 C1159 1.374 . S
C1159 H1139 0.950 . S
C1159 C1155 1.385 . S
C1159 C1158 1.374 . S
C1160 C1157 1.499 . S
C1160 C1161 1.373 . S
C1160 C1162 1.389 . S
C1161 H1140 0.950 . S
C1161 C1160 1.373 . S
C1161 C1177 1.377 . S
C1162 C1160 1.389 . S
C1162 C1163 1.524 . S
C1162 C1176 1.377 . S
C1163 C1162 1.524 . S
C1163 C1164 1.397 . S
C1163 C1168 1.363 . S
C1164 H1141 0.950 . S
C1164 C1163 1.397 . S
C1164 C1165 1.334 . S
C1165 H1142 0.950 . S
C1165 C1164 1.334 . S
C1165 C1166 1.287 . S
C1166 C1165 1.287 . S
C1166 C1167 1.524 . S
C1166 H1185 0.913 . S
C1167 H1143 0.950 . S
C1167 C1166 1.524 . S
C1167 C1168 1.415 . S
C1168 H1144 0.950 . S
C1168 C1163 1.363 . S
C1168 C1167 1.415 . S
C1169 H1145 0.951 . S
C1169 C1170 1.366 . S
C1169 C1171 1.388 . S
C1170 C1169 1.366 . S
C1170 C1174 1.385 . S
C1171 H1146 0.951 . S
C1171 C1169 1.388 . S
C1171 C1172 1.366 . S
C1172 C1171 1.366 . S
C1172 C1173 1.414 . S
C1172 C1175 1.499 . S
C1173 H1147 0.950 . S
C1173 C1172 1.414 . S
C1173 C1174 1.374 . S
C1174 H1148 0.950 . S
C1174 C1170 1.385 . S
C1174 C1173 1.374 . S
C1175 C1172 1.499 . S
C1175 C1176 1.373 . S
C1175 C1177 1.389 . S
C1176 H1149 0.950 . S
C1176 C1162 1.377 . S
C1176 C1175 1.373 . S
C1177 C1161 1.377 . S
C1177 C1175 1.389 . S
C1177 C1178 1.524 . S
C1178 C1177 1.524 . S
C1178 C1179 1.397 . S
C1178 C1183 1.363 . S
C1179 H1150 0.950 . S
C1179 C1178 1.397 . S
C1179 C1180 1.334 . S
C1180 H1151 0.950 . S
C1180 C1179 1.334 . S
C1180 C1181 1.287 . S
C1181 C1180 1.287 . S
C1181 C1182 1.524 . S
C1181 H1184 0.999 . S
C1182 H1152 0.950 . S
C1182 C1181 1.524 . S
C1182 C1183 1.415 . S
C1183 H1153 0.950 . S
C1183 C1178 1.363 . S
C1183 C1182 1.415 . S
H1184 C1181 0.999 . S
H1185 C1166 0.913 . S
H1186 C1204 0.951 . S
H1187 C1206 0.951 . S
H1188 C1208 0.950 . S
H1189 C1209 0.950 . S
H1190 C1211 0.950 . S
H1191 C1214 0.950 . S
H1192 C1215 0.950 . S
H1193 C1217 0.950 . S
H1194 C1218 0.950 . S
H1195 C1219 0.951 . S
H1196 C1221 0.951 . S
H1197 C1223 0.950 . S
H1198 C1224 0.950 . S
H1199 C1226 0.950 . S
H1200 C1229 0.950 . S
H1201 C1230 0.950 . S
H1202 C1232 0.950 . S
H1203 C1233 0.950 . S
C1204 H1186 0.951 . S
C1204 C1205 1.366 . S
C1204 C1206 1.388 . S
C1205 C1204 1.366 . S
C1205 C1209 1.385 . S
C1206 H1187 0.951 . S
C1206 C1204 1.388 . S
C1206 C1207 1.366 . S
C1207 C1206 1.366 . S
C1207 C1208 1.414 . S
C1207 C1210 1.499 . S
C1208 H1188 0.950 . S
C1208 C1207 1.414 . S
C1208 C1209 1.374 . S
C1209 H1189 0.950 . S
C1209 C1205 1.385 . S
C1209 C1208 1.374 . S
C1210 C1207 1.499 . S
C1210 C1211 1.373 . S
C1210 C1212 1.389 . S
C1211 H1190 0.950 . S
C1211 C1210 1.373 . S
C1211 C1227 1.377 . S
C1212 C1210 1.389 . S
C1212 C1213 1.524 . S
C1212 C1226 1.377 . S
C1213 C1212 1.524 . S
C1213 C1214 1.397 . S
C1213 C1218 1.363 . S
C1214 H1191 0.950 . S
C1214 C1213 1.397 . S
C1214 C1215 1.334 . S
C1215 H1192 0.950 . S
C1215 C1214 1.334 . S
C1215 C1216 1.287 . S
C1216 C1215 1.287 . S
C1216 C1217 1.524 . S
C1216 H1235 0.913 . S
C1217 H1193 0.950 . S
C1217 C1216 1.524 . S
C1217 C1218 1.415 . S
C1218 H1194 0.950 . S
C1218 C1213 1.363 . S
C1218 C1217 1.415 . S
C1219 H1195 0.951 . S
C1219 C1220 1.366 . S
C1219 C1221 1.388 . S
C1220 C1219 1.366 . S
C1220 C1224 1.385 . S
C1221 H1196 0.951 . S
C1221 C1219 1.388 . S
C1221 C1222 1.366 . S
C1222 C1221 1.366 . S
C1222 C1223 1.414 . S
C1222 C1225 1.499 . S
C1223 H1197 0.950 . S
C1223 C1222 1.414 . S
C1223 C1224 1.374 . S
C1224 H1198 0.950 . S
C1224 C1220 1.385 . S
C1224 C1223 1.374 . S
C1225 C1222 1.499 . S
C1225 C1226 1.373 . S
C1225 C1227 1.389 . S
C1226 H1199 0.950 . S
C1226 C1212 1.377 . S
C1226 C1225 1.373 . S
C1227 C1211 1.377 . S
C1227 C1225 1.389 . S
C1227 C1228 1.524 . S
C1228 C1227 1.524 . S
C1228 C1229 1.397 . S
C1228 C1233 1.363 . S
C1229 H1200 0.950 . S
C1229 C1228 1.397 . S
C1229 C1230 1.334 . S
C1230 H1201 0.950 . S
C1230 C1229 1.334 . S
C1230 C1231 1.287 . S
C1231 C1230 1.287 . S
C1231 C1232 1.524 . S
C1231 H1234 0.999 . S
C1232 H1202 0.950 . S
C1232 C1231 1.524 . S
C1232 C1233 1.415 . S
C1233 H1203 0.950 . S
C1233 C1228 1.363 . S
C1233 C1232 1.415 . S
H1234 C1231 0.999 . S
H1235 C1216 0.913 . S
H1236 C1254 0.951 . S
H1237 C1256 0.951 . S
H1238 C1258 0.950 . S
H1239 C1259 0.950 . S
H1240 C1261 0.950 . S
H1241 C1264 0.950 . S
H1242 C1265 0.950 . S
H1243 C1267 0.950 . S
H1244 C1268 0.950 . S
H1245 C1269 0.951 . S
H1246 C1271 0.951 1_554 S
H1247 C1273 0.950 . S
H1248 C1274 0.950 . S
H1249 C1276 0.950 . S
H1250 C1279 0.950 . S
H1251 C1280 0.950 . S
H1252 C1282 0.950 1_655 S
H1253 C1283 0.950 . S
C1254 H1236 0.951 . S
C1254 C1255 1.366 . S
C1254 C1256 1.388 . S
C1255 C1254 1.366 . S
C1255 C1259 1.385 . S
C1256 H1237 0.951 . S
C1256 C1254 1.388 . S
C1256 C1257 1.366 . S
C1257 C1256 1.366 . S
C1257 C1258 1.414 . S
C1257 C1260 1.499 . S
C1258 H1238 0.950 . S
C1258 C1257 1.414 . S
C1258 C1259 1.374 . S
C1259 H1239 0.950 . S
C1259 C1255 1.385 . S
C1259 C1258 1.374 . S
C1260 C1257 1.499 . S
C1260 C1261 1.373 . S
C1260 C1262 1.389 . S
C1261 H1240 0.950 . S
C1261 C1260 1.373 . S
C1261 C1277 1.377 . S
C1262 C1260 1.389 . S
C1262 C1263 1.524 . S
C1262 C1276 1.377 . S
C1263 C1262 1.524 . S
C1263 C1264 1.397 . S
C1263 C1268 1.363 . S
C1264 H1241 0.950 . S
C1264 C1263 1.397 . S
C1264 C1265 1.334 . S
C1265 H1242 0.950 . S
C1265 C1264 1.334 . S
C1265 C1266 1.287 . S
C1266 C1265 1.287 . S
C1266 C1267 1.524 . S
C1266 H1285 0.913 . S
C1267 H1243 0.950 . S
C1267 C1266 1.524 . S
C1267 C1268 1.415 . S
C1268 H1244 0.950 . S
C1268 C1263 1.363 . S
C1268 C1267 1.415 . S
C1269 H1245 0.951 . S
C1269 C1270 1.366 1_554 S
C1269 C1271 1.388 1_554 S
C1270 C1269 1.366 1_556 S
C1270 C1274 1.385 . S
C1271 H1246 0.951 1_556 S
C1271 C1269 1.388 1_556 S
C1271 C1272 1.366 . S
C1272 C1271 1.366 . S
C1272 C1273 1.414 . S
C1272 C1275 1.499 . S
C1273 H1247 0.950 . S
C1273 C1272 1.414 . S
C1273 C1274 1.374 . S
C1274 H1248 0.950 . S
C1274 C1270 1.385 . S
C1274 C1273 1.374 . S
C1275 C1272 1.499 . S
C1275 C1276 1.373 . S
C1275 C1277 1.389 . S
C1276 H1249 0.950 . S
C1276 C1262 1.377 . S
C1276 C1275 1.373 . S
C1277 C1261 1.377 . S
C1277 C1275 1.389 . S
C1277 C1278 1.524 . S
C1278 C1277 1.524 . S
C1278 C1279 1.397 1_655 S
C1278 C1283 1.363 1_556 S
C1279 H1250 0.950 . S
C1279 C1278 1.397 1_455 S
C1279 C1280 1.334 1_556 S
C1280 H1251 0.950 . S
C1280 C1279 1.334 1_554 S
C1280 C1281 1.287 . S
C1281 C1280 1.287 . S
C1281 C1282 1.524 . S
C1281 H1284 0.999 . S
C1282 H1252 0.950 1_455 S
C1282 C1281 1.524 . S
C1282 C1283 1.415 1_455 S
C1283 H1253 0.950 . S
C1283 C1278 1.363 1_554 S
C1283 C1282 1.415 1_655 S
H1284 C1281 0.999 . S
H1285 C1266 0.913 . S
H1286 C1304 0.951 . S
H1287 C1306 0.951 . S
H1288 C1308 0.950 . S
H1289 C1309 0.950 . S
H1290 C1311 0.950 . S
H1291 C1314 0.950 . S
H1292 C1315 0.950 . S
H1293 C1317 0.950 . S
H1294 C1318 0.950 . S
H1295 C1319 0.951 . S
H1296 C1321 0.951 . S
H1297 C1323 0.950 . S
H1298 C1324 0.950 . S
H1299 C1326 0.950 . S
H1300 C1329 0.950 . S
H1301 C1330 0.950 . S
H1302 C1332 0.950 . S
H1303 C1333 0.950 . S
C1304 H1286 0.951 . S
C1304 C1305 1.366 . S
C1304 C1306 1.388 . S
C1305 C1304 1.366 . S
C1305 C1309 1.385 . S
C1306 H1287 0.951 . S
C1306 C1304 1.388 . S
C1306 C1307 1.366 . S
C1307 C1306 1.366 . S
C1307 C1308 1.414 . S
C1307 C1310 1.499 . S
C1308 H1288 0.950 . S
C1308 C1307 1.414 . S
C1308 C1309 1.374 . S
C1309 H1289 0.950 . S
C1309 C1305 1.385 . S
C1309 C1308 1.374 . S
C1310 C1307 1.499 . S
C1310 C1311 1.373 . S
C1310 C1312 1.389 . S
C1311 H1290 0.950 . S
C1311 C1310 1.373 . S
C1311 C1327 1.377 . S
C1312 C1310 1.389 . S
C1312 C1313 1.524 . S
C1312 C1326 1.377 . S
C1313 C1312 1.524 . S
C1313 C1314 1.397 . S
C1313 C1318 1.363 . S
C1314 H1291 0.950 . S
C1314 C1313 1.397 . S
C1314 C1315 1.334 . S
C1315 H1292 0.950 . S
C1315 C1314 1.334 . S
C1315 C1316 1.287 . S
C1316 C1315 1.287 . S
C1316 C1317 1.524 . S
C1316 H1335 0.913 . S
C1317 H1293 0.950 . S
C1317 C1316 1.524 . S
C1317 C1318 1.415 . S
C1318 H1294 0.950 . S
C1318 C1313 1.363 . S
C1318 C1317 1.415 . S
C1319 H1295 0.951 . S
C1319 C1320 1.366 . S
C1319 C1321 1.388 . S
C1320 C1319 1.366 . S
C1320 C1324 1.385 . S
C1321 H1296 0.951 . S
C1321 C1319 1.388 . S
C1321 C1322 1.366 . S
C1322 C1321 1.366 . S
C1322 C1323 1.414 . S
C1322 C1325 1.499 . S
C1323 H1297 0.950 . S
C1323 C1322 1.414 . S
C1323 C1324 1.374 . S
C1324 H1298 0.950 . S
C1324 C1320 1.385 . S
C1324 C1323 1.374 . S
C1325 C1322 1.499 . S
C1325 C1326 1.373 . S
C1325 C1327 1.389 . S
C1326 H1299 0.950 . S
C1326 C1312 1.377 . S
C1326 C1325 1.373 . S
C1327 C1311 1.377 . S
C1327 C1325 1.389 . S
C1327 C1328 1.524 . S
C1328 C1327 1.524 . S
C1328 C1329 1.397 . S
C1328 C1333 1.363 . S
C1329 H1300 0.950 . S
C1329 C1328 1.397 . S
C1329 C1330 1.334 . S
C1330 H1301 0.950 . S
C1330 C1329 1.334 . S
C1330 C1331 1.287 . S
C1331 C1330 1.287 . S
C1331 C1332 1.524 . S
C1331 H1334 0.999 . S
C1332 H1302 0.950 . S
C1332 C1331 1.524 . S
C1332 C1333 1.415 . S
C1333 H1303 0.950 . S
C1333 C1328 1.363 . S
C1333 C1332 1.415 . S
H1334 C1331 0.999 . S
H1335 C1316 0.913 . S
H1336 C1354 0.951 . S
H1337 C1356 0.951 . S
H1338 C1358 0.950 . S
H1339 C1359 0.950 . S
H1340 C1361 0.950 . S
H1341 C1364 0.950 . S
H1342 C1365 0.950 . S
H1343 C1367 0.950 . S
H1344 C1368 0.950 . S
H1345 C1369 0.922 1_655 S
H1346 C1371 0.951 . S
H1347 C1373 0.950 . S
H1348 C1374 0.950 . S
H1349 C1376 0.950 . S
H1350 C1379 0.950 . S
H1351 C1380 0.950 . S
H1352 C1382 0.950 . S
H1353 C1383 0.950 . S
C1354 H1336 0.951 . S
C1354 C1355 1.366 . S
C1354 C1356 1.388 . S
C1355 C1354 1.366 . S
C1355 C1359 1.385 . S
C1356 H1337 0.951 . S
C1356 C1354 1.388 . S
C1356 C1357 1.366 . S
C1357 C1356 1.366 . S
C1357 C1358 1.414 . S
C1357 C1360 1.499 . S
C1358 H1338 0.950 . S
C1358 C1357 1.414 . S
C1358 C1359 1.374 . S
C1359 H1339 0.950 . S
C1359 C1355 1.385 . S
C1359 C1358 1.374 . S
C1360 C1357 1.499 . S
C1360 C1361 1.373 . S
C1360 C1362 1.389 . S
C1361 H1340 0.950 . S
C1361 C1360 1.373 . S
C1361 C1377 1.377 . S
C1362 C1360 1.389 . S
C1362 C1363 1.524 . S
C1362 C1376 1.377 . S
C1363 C1362 1.524 . S
C1363 C1364 1.397 . S
C1363 C1368 1.363 . S
C1364 H1341 0.950 . S
C1364 C1363 1.397 . S
C1364 C1365 1.334 . S
C1365 H1342 0.950 . S
C1365 C1364 1.334 . S
C1365 C1366 1.287 . S
C1366 C1365 1.287 . S
C1366 C1367 1.524 . S
C1366 H1385 0.913 . S
C1367 H1343 0.950 . S
C1367 C1366 1.524 . S
C1367 C1368 1.415 . S
C1368 H1344 0.950 . S
C1368 C1363 1.363 . S
C1368 C1367 1.415 . S
C1369 H1345 0.922 1_455 S
C1369 C1370 1.366 . S
C1369 C1371 1.388 . S
C1370 C1369 1.366 . S
C1370 C1374 1.385 . S
C1371 H1346 0.951 . S
C1371 C1369 1.388 . S
C1371 C1372 1.366 . S
C1372 C1371 1.366 . S
C1372 C1373 1.414 . S
C1372 C1375 1.499 . S
C1373 H1347 0.950 . S
C1373 C1372 1.414 . S
C1373 C1374 1.374 . S
C1374 H1348 0.950 . S
C1374 C1370 1.385 . S
C1374 C1373 1.374 . S
C1375 C1372 1.499 . S
C1375 C1376 1.373 . S
C1375 C1377 1.389 . S
C1376 H1349 0.950 . S
C1376 C1362 1.377 . S
C1376 C1375 1.373 . S
C1377 C1361 1.377 . S
C1377 C1375 1.389 . S
C1377 C1378 1.524 . S
C1378 C1377 1.524 . S
C1378 C1379 1.397 . S
C1378 C1383 1.363 1_455 S
C1379 H1350 0.950 . S
C1379 C1378 1.397 . S
C1379 C1380 1.334 1_455 S
C1380 H1351 0.950 . S
C1380 C1379 1.334 1_655 S
C1380 C1381 1.287 . S
C1381 C1380 1.287 . S
C1381 C1382 1.524 . S
C1381 H1384 0.999 . S
C1382 H1352 0.950 . S
C1382 C1381 1.524 . S
C1382 C1383 1.415 . S
C1383 H1353 0.950 . S
C1383 C1378 1.363 1_655 S
C1383 C1382 1.415 . S
H1384 C1381 0.999 . S
H1385 C1366 0.913 . S
H1386 C1404 0.951 . S
H1387 C1406 0.951 . S
H1388 C1408 0.950 . S
H1389 C1409 0.950 . S
H1390 C1411 0.950 . S
H1391 C1414 0.950 . S
H1392 C1415 0.950 . S
H1393 C1417 0.950 . S
H1394 C1418 0.950 . S
H1395 C1419 0.951 . S
H1396 C1421 0.951 . S
H1397 C1423 0.950 . S
H1398 C1424 0.950 . S
H1399 C1426 0.950 . S
H1400 C1429 0.950 . S
H1401 C1430 0.950 . S
H1402 C1432 0.950 . S
H1403 C1433 0.950 . S
C1404 H1386 0.951 . S
C1404 C1405 1.366 . S
C1404 C1406 1.388 . S
C1405 C1404 1.366 . S
C1405 C1409 1.385 . S
C1406 H1387 0.951 . S
C1406 C1404 1.388 . S
C1406 C1407 1.366 . S
C1407 C1406 1.366 . S
C1407 C1408 1.414 . S
C1407 C1410 1.499 . S
C1408 H1388 0.950 . S
C1408 C1407 1.414 . S
C1408 C1409 1.374 . S
C1409 H1389 0.950 . S
C1409 C1405 1.385 . S
C1409 C1408 1.374 . S
C1410 C1407 1.499 . S
C1410 C1411 1.373 . S
C1410 C1412 1.389 . S
C1411 H1390 0.950 . S
C1411 C1410 1.373 . S
C1411 C1427 1.377 . S
C1412 C1410 1.389 . S
C1412 C1413 1.524 . S
C1412 C1426 1.377 . S
C1413 C1412 1.524 . S
C1413 C1414 1.397 . S
C1413 C1418 1.363 . S
C1414 H1391 0.950 . S
C1414 C1413 1.397 . S
C1414 C1415 1.334 . S
C1415 H1392 0.950 . S
C1415 C1414 1.334 . S
C1415 C1416 1.287 . S
C1416 C1415 1.287 . S
C1416 C1417 1.524 . S
C1416 H1435 0.913 . S
C1417 H1393 0.950 . S
C1417 C1416 1.524 . S
C1417 C1418 1.415 . S
C1418 H1394 0.950 . S
C1418 C1413 1.363 . S
C1418 C1417 1.415 . S
C1419 H1395 0.951 . S
C1419 C1420 1.366 . S
C1419 C1421 1.388 . S
C1420 C1419 1.366 . S
C1420 C1424 1.385 . S
C1421 H1396 0.951 . S
C1421 C1419 1.388 . S
C1421 C1422 1.366 . S
C1422 C1421 1.366 . S
C1422 C1423 1.414 . S
C1422 C1425 1.499 . S
C1423 H1397 0.950 . S
C1423 C1422 1.414 . S
C1423 C1424 1.374 . S
C1424 H1398 0.950 . S
C1424 C1420 1.385 . S
C1424 C1423 1.374 . S
C1425 C1422 1.499 . S
C1425 C1426 1.373 . S
C1425 C1427 1.389 . S
C1426 H1399 0.950 . S
C1426 C1412 1.377 . S
C1426 C1425 1.373 . S
C1427 C1411 1.377 . S
C1427 C1425 1.389 . S
C1427 C1428 1.524 . S
C1428 C1427 1.524 . S
C1428 C1429 1.397 . S
C1428 C1433 1.363 . S
C1429 H1400 0.950 . S
C1429 C1428 1.397 . S
C1429 C1430 1.334 . S
C1430 H1401 0.950 . S
C1430 C1429 1.334 . S
C1430 C1431 1.287 . S
C1431 C1430 1.287 . S
C1431 C1432 1.524 . S
C1431 H1434 0.999 . S
C1432 H1402 0.950 . S
C1432 C1431 1.524 . S
C1432 C1433 1.415 . S
C1433 H1403 0.950 . S
C1433 C1428 1.363 . S
C1433 C1432 1.415 . S
H1434 C1431 0.999 . S
H1435 C1416 0.913 . S
C255 C6 1.915 . S
C270 C168 1.864 . S
C305 C21 2.051 . S
C320 C190 1.994 1_556 S
C370 C209 0.732 . S
C355 C49 0.713 . S
C405 C68 1.397 . S
C420 C230 1.255 . S
C470 C187 2.566 . S
C455 C2 2.656 . S
C520 C165 1.354 . S
C505 C30 1.270 . S
C570 C232 0.967 . S
C555 C40 0.987 . S
C620 C211 1.102 . S
C605 C63 1.179 . S
C655 C11 1.577 . S
C670 C229 1.719 . S
C720 C188 1.445 . S
C705 C44 1.728 . S
C755 C59 1.307 . S
C770 C170 1.150 . S
C805 C25 1.732 . S
C820 C208 1.686 . S
C870 C166 2.081 . S
C855 C82 2.183 . S
C905 C101 1.592 . S
C920 C186 1.553 . S
C955 C125 1.168 . S
C970 C212 1.050 . S
C1005 C144 0.978 . S
C1020 C233 0.924 . S
C1055 C87 1.355 . S
C1070 C189 1.469 . S
C1120 C169 2.542 . S
C1105 C97 2.566 . S
C1170 C228 0.915 . S
C1155 C120 0.965 . S
C1220 C207 1.239 . S
C1205 C135 1.253 . S
C1255 C78 1.944 . S
C1270 C231 1.882 . S
C1320 C191 0.918 . S
C1305 C116 1.028 . S
C1370 C167 1.385 . S
C1355 C139 1.582 . S
C1405 C106 1.367 . S
C1420 C210 1.458 . S
