# Generated by pormake.
# Topology pth, (4,4)-cn, num edge types: 1
# Building blocks:
#     Node 0, Type 0, BuildingBlock: GALJAG_clean_sbu_0, # of connection points: 4
#     Node 1, Type 0, BuildingBlock: GALJAG_clean_sbu_0, # of connection points: 4
#     Node 2, Type 0, BuildingBlock: GALJAG_clean_sbu_0, # of connection points: 4
#     Node 3, Type 1, BuildingBlock: NAHDIM_clean_linker_0, # of connection points: 4
#     Node 4, Type 1, BuildingBlock: NAHDIM_clean_linker_0, # of connection points: 4
#     Node 5, Type 1, BuildingBlock: NAHDIM_clean_linker_0, # of connection points: 4
#     Edge 6, Type (0, 1), BuildingBlock: TEMPAE_clean_linker_10, # of connection points: 2
#     Edge 7, Type (0, 1), BuildingBlock: TEMPAE_clean_linker_10, # of connection points: 2
#     Edge 8, Type (0, 1), BuildingBlock: TEMPAE_clean_linker_10, # of connection points: 2
#     Edge 9, Type (0, 1), BuildingBlock: TEMPAE_clean_linker_10, # of connection points: 2
#     Edge 10, Type (0, 1), BuildingBlock: TEMPAE_clean_linker_10, # of connection points: 2
#     Edge 11, Type (0, 1), BuildingBlock: TEMPAE_clean_linker_10, # of connection points: 2
#     Edge 12, Type (0, 1), BuildingBlock: TEMPAE_clean_linker_10, # of connection points: 2
#     Edge 13, Type (0, 1), BuildingBlock: TEMPAE_clean_linker_10, # of connection points: 2
#     Edge 14, Type (0, 1), BuildingBlock: TEMPAE_clean_linker_10, # of connection points: 2
#     Edge 15, Type (0, 1), BuildingBlock: TEMPAE_clean_linker_10, # of connection points: 2
#     Edge 16, Type (0, 1), BuildingBlock: TEMPAE_clean_linker_10, # of connection points: 2
#     Edge 17, Type (0, 1), BuildingBlock: TEMPAE_clean_linker_10, # of connection points: 2
# Relax obj value: 0.024
# Max RMSD: 0.068
# Mean RMSD: 0.066
data_MOF--net-pth--node1-GALJAG_clean_sbu_0--node2-NAHDIM_clean_linker_0--edge1-TEMPAE_clean_linker_10
_symmetry_space_group_name_H-M    P1
_symmetry_Int_Tables_number       1
_symmetry_cell_setting            triclinic
loop_
_symmetry_equiv_pos_as_xyz
'x, y, z'
_cell_length_a     32.733977
_cell_length_b     32.687693
_cell_length_c     79.491474
_cell_angle_alpha  89.841372
_cell_angle_beta   90.837727
_cell_angle_gamma 120.02958
loop_
_atom_site_label
_atom_site_type_symbol
_atom_site_fract_x
_atom_site_fract_y
_atom_site_fract_z
_atom_type_partial_charge
In0 In 0.01511 0.04186 0.04422 0.0
O1 O 0.98229 0.08101 0.05711 0.0
O2 O 0.05306 0.09934 0.0635 0.0
C3 C 0.95099 0.97505 0.02356 0.0
C4 C 0.0724 0.10293 0.02115 0.0
C5 C 0.01831 0.98293 0.06701 0.0
O6 O 0.94069 0.0005 0.03255 0.0
O7 O 0.99307 0.98385 0.02508 0.0
O8 O 0.051 0.00416 0.05648 0.0
O9 O 0.98499 0.99176 0.06588 0.0
C10 C 0.01919 0.10668 0.06584 0.0
O11 O 0.08599 0.08097 0.03079 0.0
O12 O 0.03041 0.09352 0.02321 0.0
In13 In 0.03341 0.05778 0.37757 0.0
O14 O 0.07388 0.13439 0.36845 0.0
O15 O 0.04024 0.08022 0.35012 0.0
C16 C 0.09346 0.06356 0.40225 0.0
C17 C 0.96368 0.06358 0.39328 0.0
C18 C 0.01093 0.97529 0.36251 0.0
O19 O 0.10782 0.08171 0.38795 0.0
O20 O 0.04938 0.04345 0.404 0.0
O21 O 0.98511 0.99374 0.36108 0.0
O22 O 0.04767 0.99839 0.37146 0.0
C23 C 0.06402 0.12388 0.35312 0.0
O24 O 0.95854 0.02477 0.38814 0.0
O25 O 0.00323 0.09896 0.39016 0.0
In26 In 0.01026 0.02982 0.7115 0.0
O27 O 0.9653 0.94964 0.7146 0.0
O28 O 0.96411 0.99266 0.73421 0.0
C29 C 0.07422 0.01893 0.69399 0.0
C30 C 0.9592 0.05301 0.69047 0.0
C31 C 0.06285 0.09975 0.73379 0.0
O32 O 0.06031 0.00124 0.70836 0.0
O33 O 0.05572 0.0422 0.68837 0.0
O34 O 0.01916 0.08348 0.7316 0.0
O35 O 0.08005 0.08044 0.72486 0.0
C36 C 0.94928 0.95143 0.72872 0.0
O37 O 0.99326 0.08292 0.69934 0.0
O38 O 0.95135 0.01128 0.69186 0.0
C39 C 0.93628 0.6301 0.32062 0.0
C40 C 0.9652 0.67446 0.30998 0.0
C41 C 0.96442 0.64768 0.28157 0.0
C42 C 0.01276 0.668 0.27841 0.0
C43 C 0.02906 0.64677 0.26706 0.0
C44 C 0.99625 0.60444 0.25875 0.0
C45 C 0.94729 0.58528 0.26129 0.0
C46 C 0.93197 0.60763 0.27255 0.0
C47 C 0.08138 0.66879 0.26429 0.0
C48 C 0.9113 0.54023 0.25261 0.0
C49 C 0.04245 0.31074 0.29913 0.0
C50 C 0.026 0.33845 0.28921 0.0
C51 C 0.05438 0.41674 0.27734 0.0
C52 C 0.0122 0.40403 0.26842 0.0
C53 C 0.00696 0.43748 0.25903 0.0
C54 C 0.0449 0.48452 0.25829 0.0
C55 C 0.08759 0.49743 0.26707 0.0
C56 C 0.09172 0.46327 0.27652 0.0
C57 C 0.96068 0.42254 0.24996 0.0
C58 C 0.12869 0.54727 0.26646 0.0
C59 C 0.07983 0.43269 0.15138 0.0
C60 C 0.03432 0.41532 0.15766 0.0
C61 C 0.02188 0.44564 0.16566 0.0
C62 C 0.05594 0.49415 0.16755 0.0
C63 C 0.10126 0.512 0.1606 0.0
C64 C 0.11239 0.48098 0.15238 0.0
C65 C 0.97261 0.4257 0.17233 0.0
C66 C 0.13823 0.56354 0.16224 0.0
C67 C 0.91608 0.73501 0.1607 0.0
C68 C 0.95996 0.73696 0.15338 0.0
C69 C 0.96681 0.66614 0.15321 0.0
C70 C 0.93695 0.61761 0.15514 0.0
C71 C 0.95355 0.5895 0.16245 0.0
C72 C 0.00149 0.61059 0.16755 0.0
C73 C 0.03267 0.65909 0.16445 0.0
C74 C 0.01494 0.68649 0.15733 0.0
C75 C 0.91952 0.5377 0.16533 0.0
C76 C 0.08433 0.68219 0.16918 0.0
C77 C 0.01329 0.57809 0.2486 0.0
C78 C 0.02482 0.54778 0.25718 0.0
C79 C 0.03916 0.52009 0.24855 0.0
C80 C 0.04313 0.5232 0.23086 0.0
C81 C 0.05838 0.49649 0.22184 0.0
C82 C 0.05983 0.49791 0.20436 0.0
C83 C 0.04577 0.52585 0.19524 0.0
C84 C 0.04474 0.52564 0.17743 0.0
C85 C 0.03106 0.5542 0.16875 0.0
C86 C 0.0179 0.58286 0.17741 0.0
C87 C 0.01823 0.58322 0.19521 0.0
C88 C 0.00456 0.61121 0.20431 0.0
C89 C 0.00375 0.6103 0.22181 0.0
C90 C 0.01602 0.58096 0.23087 0.0
C91 C 0.03078 0.55317 0.22197 0.0
C92 C 0.03195 0.55437 0.20413 0.0
C93 C 0.13175 0.3677 0.15778 0.0
C94 C 0.08517 0.36109 0.15064 0.0
O95 O 0.94838 0.66547 0.29352 0.0
O96 O 0.94801 0.69237 0.14752 0.0
O97 O 0.09305 0.40378 0.14409 0.0
O98 O 0.06017 0.3853 0.28685 0.0
H99 H 0.00222 0.68166 0.31078 0.0
H100 H 0.94286 0.60157 0.31638 0.0
H101 H 0.89788 0.61699 0.31912 0.0
H102 H 0.94681 0.63754 0.33411 0.0
H103 H 0.03775 0.70016 0.28493 0.0
H104 H 0.89468 0.59272 0.27494 0.0
H105 H 0.09387 0.64551 0.26966 0.0
H106 H 0.10186 0.70424 0.27027 0.0
H107 H 0.0887 0.67212 0.25061 0.0
H108 H 0.87457 0.52979 0.25603 0.0
H109 H 0.91796 0.51109 0.25602 0.0
H110 H 0.91471 0.54471 0.23877 0.0
H111 H 0.99161 0.33418 0.29332 0.0
H112 H 0.02115 0.30077 0.31096 0.0
H113 H 0.0765 0.33715 0.30554 0.0
H114 H 0.03821 0.26039 0.28184 0.0
H115 H 0.98302 0.3681 0.26875 0.0
H116 H 0.12415 0.47279 0.28338 0.0
H117 H 0.96625 0.42531 0.23617 0.0
H118 H 0.94711 0.44641 0.25341 0.0
H119 H 0.93338 0.38564 0.25291 0.0
H120 H 0.16045 0.55101 0.27314 0.0
H121 H 0.11863 0.57169 0.27232 0.0
H122 H 0.13775 0.55829 0.25317 0.0
H123 H 0.05979 0.34955 0.16119 0.0
H124 H 0.00851 0.37815 0.15624 0.0
H125 H 0.14716 0.49403 0.14718 0.0
H126 H 0.97389 0.42543 0.18629 0.0
H127 H 0.9486 0.38902 0.16783 0.0
H128 H 0.95763 0.44825 0.16849 0.0
H129 H 0.17241 0.57145 0.15674 0.0
H130 H 0.14413 0.57406 0.17573 0.0
H131 H 0.12562 0.58543 0.1558 0.0
H132 H 0.98654 0.74831 0.16383 0.0
H133 H 0.92473 0.77031 0.1656 0.0
H134 H 0.9028 0.70949 0.17127 0.0
H135 H 0.88762 0.72345 0.15099 0.0
H136 H 0.90005 0.6022 0.15157 0.0
H137 H 0.03851 0.72378 0.15512 0.0
H138 H 0.91785 0.52992 0.179 0.0
H139 H 0.93225 0.51612 0.15893 0.0
H140 H 0.88336 0.5267 0.16059 0.0
H141 H 0.10487 0.7187 0.16421 0.0
H142 H 0.09951 0.66089 0.16433 0.0
H143 H 0.08827 0.68367 0.1831 0.0
H144 H 0.02126 0.54468 0.27075 0.0
H145 H 0.06906 0.47393 0.22819 0.0
H146 H 0.07162 0.47638 0.1981 0.0
H147 H 0.0299 0.55352 0.1551 0.0
H148 H 0.99402 0.63395 0.19802 0.0
H149 H 0.99278 0.63242 0.22815 0.0
H150 H 0.15846 0.37877 0.14773 0.0
H151 H 0.12642 0.33429 0.16345 0.0
H152 H 0.14554 0.39538 0.16774 0.0
C153 C 0.3484 0.96397 0.65443 0.0
C154 C 0.34307 0.99797 0.64256 0.0
C155 C 0.37207 0.99623 0.61488 0.0
C156 C 0.40002 0.04432 0.61111 0.0
C157 C 0.43747 0.05984 0.59984 0.0
C158 C 0.44724 0.02648 0.59235 0.0
C159 C 0.41825 0.97776 0.59586 0.0
C160 C 0.3804 0.96321 0.60689 0.0
C161 C 0.46685 0.11187 0.59606 0.0
C162 C 0.42787 0.94118 0.58827 0.0
C163 C 0.75369 0.19323 0.6464 0.0
C164 C 0.73766 0.14659 0.63712 0.0
C165 C 0.70147 0.13468 0.60949 0.0
C166 C 0.67174 0.08561 0.60881 0.0
C167 C 0.63103 0.0654 0.59853 0.0
C168 C 0.61948 0.09515 0.58909 0.0
C169 C 0.65006 0.14478 0.5896 0.0
C170 C 0.69138 0.1638 0.59953 0.0
C171 C 0.59994 0.01235 0.59804 0.0
C172 C 0.63843 0.1779 0.58016 0.0
C173 C 0.6795 0.09542 0.47845 0.0
C174 C 0.65607 0.05128 0.48631 0.0
C175 C 0.61573 0.03828 0.49588 0.0
C176 C 0.59925 0.07062 0.49785 0.0
C177 C 0.62238 0.11481 0.48959 0.0
C178 C 0.66191 0.12632 0.47975 0.0
C179 C 0.59087 0.99013 0.50394 0.0
C180 C 0.60575 0.15009 0.49134 0.0
C181 C 0.21939 0.94849 0.50078 0.0
C182 C 0.2627 0.98702 0.49182 0.0
C183 C 0.33594 0.98487 0.49008 0.0
C184 C 0.35168 0.95254 0.49209 0.0
C185 C 0.39774 0.96733 0.49784 0.0
C186 C 0.42872 0.01575 0.50138 0.0
C187 C 0.41415 0.0491 0.49804 0.0
C188 C 0.36781 0.03329 0.49238 0.0
C189 C 0.41255 0.93103 0.50096 0.0
C190 C 0.44691 0.10118 0.50115 0.0
C191 C 0.48885 0.04263 0.58139 0.0
C192 C 0.53307 0.06041 0.58918 0.0
C193 C 0.57373 0.07471 0.57977 0.0
C194 C 0.57026 0.07043 0.56203 0.0
C195 C 0.61007 0.08274 0.55217 0.0
C196 C 0.60631 0.07913 0.5347 0.0
C197 C 0.5625 0.06256 0.52642 0.0
C198 C 0.55817 0.05846 0.50867 0.0
C199 C 0.51422 0.04282 0.50085 0.0
C200 C 0.47418 0.03084 0.51031 0.0
C201 C 0.47758 0.03377 0.52807 0.0
C202 C 0.43769 0.02116 0.53795 0.0
C203 C 0.4413 0.02413 0.5554 0.0
C204 C 0.48492 0.03988 0.56366 0.0
C205 C 0.52571 0.05337 0.55395 0.0
C206 C 0.52193 0.04984 0.53614 0.0
C207 C 0.79364 0.16011 0.48182 0.0
C208 C 0.75921 0.10999 0.47553 0.0
O209 O 0.33696 0.98096 0.62621 0.0
O210 O 0.28972 0.96809 0.48623 0.0
O211 O 0.71873 0.10858 0.46933 0.0
O212 O 0.73961 0.15468 0.61995 0.0
H213 H 0.376 0.03294 0.64375 0.0
H214 H 0.37973 0.96135 0.65091 0.0
H215 H 0.31669 0.92812 0.65368 0.0
H216 H 0.35346 0.97703 0.66762 0.0
H217 H 0.39244 0.06962 0.61698 0.0
H218 H 0.35814 0.92609 0.60979 0.0
H219 H 0.50282 0.12581 0.60153 0.0
H220 H 0.45137 0.13247 0.60132 0.0
H221 H 0.47044 0.11747 0.58225 0.0
H222 H 0.40465 0.90535 0.59345 0.0
H223 H 0.46524 0.95108 0.59062 0.0
H224 H 0.42213 0.93978 0.57444 0.0
H225 H 0.70061 0.12176 0.64093 0.0
H226 H 0.7515 0.18764 0.66023 0.0
H227 H 0.73047 0.20766 0.64277 0.0
H228 H 0.79062 0.21958 0.64315 0.0
H229 H 0.6804 0.06328 0.61637 0.0
H230 H 0.71492 0.2017 0.60016 0.0
H231 H 0.58929 0.9998 0.58487 0.0
H232 H 0.56735 0.00209 0.60519 0.0
H233 H 0.6178 0.99416 0.60367 0.0
H234 H 0.66251 0.21546 0.5837 0.0
H235 H 0.60156 0.16896 0.58262 0.0
H236 H 0.64139 0.17405 0.56645 0.0
H237 H 0.75076 0.08548 0.48637 0.0
H238 H 0.6691 0.02691 0.48479 0.0
H239 H 0.6801 0.16008 0.47341 0.0
H240 H 0.59583 0.99407 0.5178 0.0
H241 H 0.60451 0.96709 0.49949 0.0
H242 H 0.55236 0.97239 0.50119 0.0
H243 H 0.63011 0.18446 0.48537 0.0
H244 H 0.60237 0.15632 0.50484 0.0
H245 H 0.57032 0.13562 0.48533 0.0
H246 H 0.28248 0.01528 0.50139 0.0
H247 H 0.19699 0.96278 0.50528 0.0
H248 H 0.23081 0.93565 0.51184 0.0
H249 H 0.19804 0.91803 0.49223 0.0
H250 H 0.32703 0.91535 0.48989 0.0
H251 H 0.35636 0.05868 0.49003 0.0
H252 H 0.4192 0.9296 0.51463 0.0
H253 H 0.44604 0.94139 0.49439 0.0
H254 H 0.38534 0.89517 0.49662 0.0
H255 H 0.43194 0.12295 0.49635 0.0
H256 H 0.48128 0.11286 0.49504 0.0
H257 H 0.45386 0.10771 0.51488 0.0
H258 H 0.5359 0.06324 0.6028 0.0
H259 H 0.6446 0.09538 0.55787 0.0
H260 H 0.63825 0.08951 0.52778 0.0
H261 H 0.51118 0.04012 0.48724 0.0
H262 H 0.40311 0.00869 0.53234 0.0
H263 H 0.40944 0.01402 0.56234 0.0
H264 H 0.80363 0.18582 0.47135 0.0
H265 H 0.82605 0.16208 0.48725 0.0
H266 H 0.77687 0.17019 0.49179 0.0
C267 C 0.70395 0.61129 0.77246 0.0
C268 C 0.69967 0.64968 0.78187 0.0
C269 C 0.66705 0.62691 0.80966 0.0
C270 C 0.63898 0.64785 0.81112 0.0
C271 C 0.59969 0.62828 0.82166 0.0
C272 C 0.58787 0.58637 0.83063 0.0
C273 C 0.61675 0.56563 0.82932 0.0
C274 C 0.65667 0.58687 0.81909 0.0
C275 C 0.57043 0.65201 0.82296 0.0
C276 C 0.60494 0.52046 0.83838 0.0
C277 C 0.20478 0.38117 0.82086 0.0
C278 C 0.24289 0.37023 0.81536 0.0
C279 C 0.32436 0.43467 0.81529 0.0
C280 C 0.34751 0.41125 0.82144 0.0
C281 C 0.39236 0.43666 0.82909 0.0
C282 C 0.41402 0.48637 0.83077 0.0
C283 C 0.39154 0.51015 0.82388 0.0
C284 C 0.34717 0.48391 0.81599 0.0
C285 C 0.41605 0.41032 0.83574 0.0
C286 C 0.41373 0.56309 0.82531 0.0
C287 C 0.3303 0.4294 0.9371 0.0
C288 C 0.35668 0.40964 0.93105 0.0
C289 C 0.40036 0.4381 0.92343 0.0
C290 C 0.41764 0.48719 0.92173 0.0
C291 C 0.39212 0.50746 0.92856 0.0
C292 C 0.34891 0.47823 0.93638 0.0
C293 C 0.42753 0.41556 0.91687 0.0
C294 C 0.40977 0.5597 0.92713 0.0
C295 C 0.79722 0.7074 0.93569 0.0
C296 C 0.75724 0.7159 0.94086 0.0
C297 C 0.67714 0.64931 0.93912 0.0
C298 C 0.65653 0.6004 0.93751 0.0
C299 C 0.61347 0.57376 0.92883 0.0
C300 C 0.59006 0.59674 0.92206 0.0
C301 C 0.60952 0.64595 0.92452 0.0
C302 C 0.65311 0.67183 0.93296 0.0
C303 C 0.59352 0.52128 0.92659 0.0
C304 C 0.58453 0.67124 0.91807 0.0
C305 C 0.54415 0.56305 0.84072 0.0
C306 C 0.5011 0.53679 0.83207 0.0
C307 C 0.45857 0.51311 0.84068 0.0
C308 C 0.45873 0.515 0.85846 0.0
C309 C 0.41657 0.49142 0.86752 0.0
C310 C 0.41715 0.49213 0.885 0.0
C311 C 0.45986 0.5169 0.89413 0.0
C312 C 0.46089 0.51662 0.91192 0.0
C313 C 0.50366 0.54318 0.92063 0.0
C314 C 0.5459 0.56952 0.91202 0.0
C315 C 0.54582 0.56892 0.89421 0.0
C316 C 0.58784 0.59385 0.88513 0.0
C317 C 0.58737 0.59254 0.86762 0.0
C318 C 0.54493 0.56583 0.8585 0.0
C319 C 0.50208 0.54117 0.86739 0.0
C320 C 0.50258 0.54248 0.88525 0.0
C321 C 0.21062 0.36501 0.93104 0.0
C322 C 0.25199 0.35939 0.93723 0.0
O323 O 0.70391 0.64449 0.79902 0.0
O324 O 0.72013 0.67386 0.94671 0.0
O325 O 0.28694 0.40233 0.94373 0.0
O326 O 0.28008 0.41075 0.80862 0.0
H327 H 0.66416 0.64475 0.77871 0.0
H328 H 0.67553 0.57587 0.77643 0.0
H329 H 0.73861 0.61399 0.77523 0.0
H330 H 0.70032 0.61455 0.75867 0.0
H331 H 0.6479 0.67946 0.80398 0.0
H332 H 0.67893 0.57127 0.81789 0.0
H333 H 0.53662 0.63067 0.81598 0.0
H334 H 0.58865 0.68818 0.81759 0.0
H335 H 0.562 0.65416 0.8363 0.0
H336 H 0.62732 0.50573 0.8343 0.0
H337 H 0.56731 0.49346 0.83616 0.0
H338 H 0.61029 0.52735 0.85212 0.0
H339 H 0.25453 0.35898 0.82684 0.0
H340 H 0.17469 0.34933 0.82646 0.0
H341 H 0.19166 0.39301 0.80999 0.0
H342 H 0.21959 0.40973 0.8305 0.0
H343 H 0.33049 0.37316 0.82029 0.0
H344 H 0.32922 0.50159 0.81091 0.0
H345 H 0.45338 0.42796 0.83171 0.0
H346 H 0.39781 0.37295 0.8314 0.0
H347 H 0.41609 0.41075 0.8497 0.0
H348 H 0.39066 0.57597 0.81999 0.0
H349 H 0.44767 0.58039 0.81853 0.0
H350 H 0.42159 0.57412 0.83872 0.0
H351 H 0.26487 0.34863 0.92613 0.0
H352 H 0.34314 0.37201 0.93228 0.0
H353 H 0.32855 0.49313 0.94139 0.0
H354 H 0.4267 0.4157 0.9029 0.0
H355 H 0.41257 0.37846 0.92115 0.0
H356 H 0.46506 0.43616 0.92103 0.0
H357 H 0.38514 0.56977 0.93274 0.0
H358 H 0.41473 0.57016 0.91368 0.0
H359 H 0.44465 0.57992 0.93358 0.0
H360 H 0.74641 0.72805 0.9294 0.0
H361 H 0.8273 0.74043 0.93073 0.0
H362 H 0.78448 0.68001 0.92565 0.0
H363 H 0.80975 0.69506 0.9466 0.0
H364 H 0.67515 0.58338 0.94259 0.0
H365 H 0.66838 0.70955 0.9348 0.0
H366 H 0.58678 0.5118 0.91302 0.0
H367 H 0.55922 0.50183 0.93309 0.0
H368 H 0.61753 0.50931 0.93171 0.0
H369 H 0.60156 0.70834 0.92266 0.0
H370 H 0.54712 0.65226 0.92203 0.0
H371 H 0.5847 0.67151 0.90411 0.0
H372 H 0.5007 0.53468 0.81844 0.0
H373 H 0.38259 0.47173 0.86122 0.0
H374 H 0.38361 0.47294 0.89127 0.0
H375 H 0.50413 0.543 0.93428 0.0
H376 H 0.62165 0.61452 0.89146 0.0
H377 H 0.62076 0.61249 0.86132 0.0
H378 H 0.19592 0.37573 0.94156 0.0
H379 H 0.18227 0.33127 0.92554 0.0
H380 H 0.22276 0.39257 0.92116 0.0
C381 C 0.98688 0.15306 0.07988 0.0
C382 C 0.0233 0.14273 0.078 0.0
C383 C 0.99158 0.18794 0.09134 0.0
C384 C 0.03354 0.21268 0.10113 0.0
C385 C 0.07014 0.20198 0.09936 0.0
C386 C 0.0646 0.16729 0.08781 0.0
C387 C 0.95195 0.19861 0.09288 0.0
C388 C 0.11534 0.22732 0.10964 0.0
C389 C 0.07714 0.33391 0.12021 0.0
C390 C 0.06591 0.3229 0.13721 0.0
C391 C 0.06386 0.29811 0.10811 0.0
C392 C 0.04004 0.25024 0.11319 0.0
C393 C 0.02752 0.23886 0.13024 0.0
C394 C 0.04052 0.27535 0.14202 0.0
C395 C 0.0775 0.31164 0.09002 0.0
C396 C 0.00285 0.18831 0.13622 0.0
H397 H 0.95489 0.13414 0.07232 0.0
H398 H 0.09286 0.1594 0.08646 0.0
H399 H 0.93963 0.19335 0.10606 0.0
H400 H 0.96487 0.23618 0.08974 0.0
H401 H 0.92146 0.17594 0.08448 0.0
H402 H 0.13993 0.21408 0.10698 0.0
H403 H 0.13358 0.26573 0.10695 0.0
H404 H 0.10732 0.22293 0.12326 0.0
H405 H 0.09744 0.37053 0.1164 0.0
H406 H 0.03245 0.26679 0.15519 0.0
H407 H 0.04696 0.2904 0.08147 0.0
H408 H 0.10581 0.30402 0.08666 0.0
H409 H 0.09045 0.34972 0.08775 0.0
H410 H 0.97158 0.16598 0.12812 0.0
H411 H 0.99132 0.18512 0.14947 0.0
H412 H 0.02715 0.17398 0.13529 0.0
C413 C 0.9386 0.11134 0.40997 0.0
C414 C 0.92809 0.06738 0.40334 0.0
C415 C 0.90752 0.11543 0.42084 0.0
C416 C 0.86462 0.07459 0.42509 0.0
C417 C 0.85293 0.03032 0.41795 0.0
C418 C 0.88498 0.02719 0.40719 0.0
C419 C 0.92144 0.16325 0.42826 0.0
C420 C 0.80721 0.98615 0.42202 0.0
C421 C 0.81457 0.08165 0.46697 0.0
C422 C 0.7822 0.0958 0.4621 0.0
C423 C 0.8405 0.07309 0.45501 0.0
C424 C 0.83349 0.07825 0.4377 0.0
C425 C 0.79962 0.09083 0.43262 0.0
C426 C 0.77492 0.10024 0.44488 0.0
C427 C 0.87692 0.06059 0.46096 0.0
C428 C 0.79065 0.09595 0.41426 0.0
H429 H 0.97186 0.14256 0.40702 0.0
H430 H 0.87667 0.99314 0.40207 0.0
H431 H 0.89361 0.17236 0.42559 0.0
H432 H 0.92498 0.16225 0.44214 0.0
H433 H 0.95534 0.19175 0.42325 0.0
H434 H 0.80158 0.95535 0.41435 0.0
H435 H 0.80727 0.97741 0.43551 0.0
H436 H 0.77697 0.99203 0.41988 0.0
H437 H 0.82068 0.07879 0.48026 0.0
H438 H 0.75052 0.11182 0.44096 0.0
H439 H 0.91266 0.08921 0.45751 0.0
H440 H 0.87102 0.02778 0.45468 0.0
H441 H 0.87627 0.0555 0.4748 0.0
H442 H 0.82197 0.12712 0.40897 0.0
H443 H 0.75948 0.1005 0.41233 0.0
H444 H 0.785 0.06449 0.40704 0.0
C445 C 0.89321 0.91273 0.75234 0.0
C446 C 0.91498 0.90873 0.73786 0.0
C447 C 0.85906 0.87237 0.7607 0.0
C448 C 0.84673 0.827 0.75449 0.0
C449 C 0.8694 0.82281 0.7401 0.0
C450 C 0.90312 0.86374 0.73192 0.0
C451 C 0.83549 0.87823 0.77596 0.0
C452 C 0.85747 0.77506 0.73317 0.0
C453 C 0.78403 0.71811 0.78204 0.0
C454 C 0.73729 0.69811 0.77612 0.0
C455 C 0.81986 0.76088 0.77549 0.0
C456 C 0.80875 0.78379 0.76257 0.0
C457 C 0.76152 0.76412 0.75674 0.0
C458 C 0.72644 0.72145 0.76354 0.0
C459 C 0.8698 0.78078 0.78204 0.0
C460 C 0.74824 0.7874 0.74296 0.0
H461 H 0.90225 0.94746 0.75698 0.0
H462 H 0.92002 0.86047 0.72078 0.0
H463 H 0.79713 0.86263 0.77339 0.0
H464 H 0.83944 0.859 0.7868 0.0
H465 H 0.85033 0.91592 0.77956 0.0
H466 H 0.87966 0.7779 0.72229 0.0
H467 H 0.86224 0.75385 0.7431 0.0
H468 H 0.81987 0.75539 0.72908 0.0
H469 H 0.79269 0.69974 0.79156 0.0
H470 H 0.69051 0.7057 0.75875 0.0
H471 H 0.88445 0.81811 0.78602 0.0
H472 H 0.89245 0.78043 0.77185 0.0
H473 H 0.87206 0.76038 0.79286 0.0
H474 H 0.76034 0.82468 0.74636 0.0
H475 H 0.70957 0.76891 0.74047 0.0
H476 H 0.76611 0.78779 0.73115 0.0
C477 C 0.04853 0.93142 0.07865 0.0
C478 C 0.01768 0.94937 0.07961 0.0
C479 C 0.04541 0.89713 0.09011 0.0
C480 C 0.01092 0.88097 0.10282 0.0
C481 C 0.98069 0.90008 0.10408 0.0
C482 C 0.98434 0.93386 0.09244 0.0
C483 C 0.07807 0.87734 0.08839 0.0
C484 C 0.94372 0.88416 0.11755 0.0
C485 C 0.95782 0.76082 0.12321 0.0
C486 C 0.97895 0.77253 0.13927 0.0
C487 C 0.97055 0.79536 0.11075 0.0
C488 C 0.00465 0.84285 0.11454 0.0
C489 C 0.02769 0.85447 0.13047 0.0
C490 C 0.0144 0.81914 0.14267 0.0
C491 C 0.94524 0.78154 0.0939 0.0
C492 C 0.06406 0.90471 0.13501 0.0
H493 H 0.0743 0.94332 0.06872 0.0
H494 H 0.96063 0.94789 0.09332 0.0
H495 H 0.09658 0.88038 0.10052 0.0
H496 H 0.05722 0.8392 0.08516 0.0
H497 H 0.10479 0.89565 0.0785 0.0
H498 H 0.9243 0.90394 0.11719 0.0
H499 H 0.91786 0.84598 0.11595 0.0
H500 H 0.96042 0.88892 0.13018 0.0
H501 H 0.92996 0.72495 0.12061 0.0
H502 H 0.03041 0.82834 0.15514 0.0
H503 H 0.9708 0.7969 0.08352 0.0
H504 H 0.92084 0.79578 0.09285 0.0
H505 H 0.92441 0.74258 0.09218 0.0
H506 H 0.09 0.9212 0.1248 0.0
H507 H 0.0833 0.90678 0.1469 0.0
H508 H 0.04635 0.92583 0.13659 0.0
C509 C 0.17289 0.07983 0.41266 0.0
C510 C 0.12471 0.06193 0.4155 0.0
C511 C 0.20141 0.07373 0.42464 0.0
C512 C 0.18104 0.04896 0.43967 0.0
C513 C 0.13286 0.03256 0.44284 0.0
C514 C 0.10536 0.03936 0.43074 0.0
C515 C 0.2528 0.09221 0.42094 0.0
C516 C 0.10978 0.00604 0.45873 0.0
C517 C 0.22731 0.97862 0.46271 0.0
C518 C 0.24772 0.00632 0.47716 0.0
C519 C 0.20772 0.99341 0.44993 0.0
C520 C 0.20868 0.03699 0.45166 0.0
C521 C 0.23144 0.06625 0.46581 0.0
C522 C 0.25041 0.05038 0.47847 0.0
C523 C 0.18361 0.9611 0.43506 0.0
C524 C 0.23359 0.11315 0.468 0.0
H525 H 0.18802 0.09744 0.40091 0.0
H526 H 0.06819 0.02568 0.43305 0.0
H527 H 0.27526 0.11263 0.43184 0.0
H528 H 0.25879 0.0621 0.41881 0.0
H529 H 0.2644 0.11511 0.40963 0.0
H530 H 0.07256 0.99771 0.45965 0.0
H531 H 0.11042 0.97243 0.45911 0.0
H532 H 0.12964 0.02706 0.46996 0.0
H533 H 0.22509 0.9445 0.46171 0.0
H534 H 0.26614 0.07182 0.48965 0.0
H535 H 0.19647 0.98079 0.42312 0.0
H536 H 0.14505 0.94751 0.43552 0.0
H537 H 0.18955 0.93048 0.43487 0.0
H538 H 0.24512 0.13394 0.45622 0.0
H539 H 0.25801 0.13442 0.47841 0.0
H540 H 0.19788 0.10705 0.47082 0.0
C541 C 0.1404 0.1568 0.74726 0.0
C542 C 0.09163 0.13889 0.74564 0.0
C543 C 0.16814 0.19455 0.75826 0.0
C544 C 0.1465 0.21471 0.76786 0.0
C545 C 0.09724 0.19662 0.76631 0.0
C546 C 0.07041 0.15895 0.75521 0.0
C547 C 0.22056 0.21297 0.75958 0.0
C548 C 0.07285 0.21713 0.77635 0.0
C549 C 0.20464 0.28372 0.80789 0.0
C550 C 0.22261 0.33046 0.80255 0.0
C551 C 0.18108 0.24573 0.79662 0.0
C552 C 0.17513 0.25472 0.77959 0.0
C553 C 0.19411 0.3019 0.77402 0.0
C554 C 0.21729 0.33921 0.7856 0.0
C555 C 0.16112 0.19592 0.80305 0.0
C556 C 0.18859 0.3129 0.75595 0.0
H557 H 0.15698 0.14145 0.73987 0.0
H558 H 0.03273 0.14527 0.75399 0.0
H559 H 0.24023 0.25094 0.75618 0.0
H560 H 0.23058 0.21017 0.77274 0.0
H561 H 0.23195 0.1934 0.75125 0.0
H562 H 0.03425 0.19887 0.77374 0.0
H563 H 0.07866 0.21451 0.79001 0.0
H564 H 0.08812 0.25518 0.77341 0.0
H565 H 0.20804 0.27686 0.82104 0.0
H566 H 0.23035 0.37523 0.78148 0.0
H567 H 0.17347 0.17622 0.79527 0.0
H568 H 0.12204 0.17703 0.80202 0.0
H569 H 0.17128 0.19505 0.81639 0.0
H570 H 0.20114 0.29499 0.74734 0.0
H571 H 0.20837 0.35144 0.75337 0.0
H572 H 0.15072 0.29925 0.75295 0.0
C573 C 0.89626 0.03349 0.66856 0.0
C574 C 0.92898 0.06554 0.68028 0.0
C575 C 0.86529 0.0441 0.65969 0.0
C576 C 0.86653 0.0873 0.66292 0.0
C577 C 0.90014 0.1201 0.67452 0.0
C578 C 0.93125 0.109 0.68293 0.0
C579 C 0.83058 0.00872 0.64716 0.0
C580 C 0.90215 0.16624 0.67851 0.0
C581 C 0.81094 0.13922 0.63402 0.0
C582 C 0.76857 0.12625 0.64227 0.0
C583 C 0.84207 0.12456 0.64007 0.0
C584 C 0.83116 0.09746 0.65497 0.0
C585 C 0.788 0.08345 0.66313 0.0
C586 C 0.75724 0.09797 0.65666 0.0
C587 C 0.88746 0.13965 0.6309 0.0
C588 C 0.77533 0.05509 0.67917 0.0
H589 H 0.8946 -6e-05 0.66643 0.0
H590 H 0.95637 0.1338 0.69203 0.0
H591 H 0.79413 0.99432 0.65179 0.0
H592 H 0.83267 0.02619 0.63496 0.0
H593 H 0.83696 0.97883 0.64499 0.0
H594 H 0.93118 0.18838 0.68752 0.0
H595 H 0.9071 0.18673 0.66683 0.0
H596 H 0.86824 0.15909 0.68401 0.0
H597 H 0.82031 0.16177 0.62306 0.0
H598 H 0.7249 0.08857 0.6632 0.0
H599 H 0.89267 0.10898 0.62893 0.0
H600 H 0.91773 0.16599 0.63861 0.0
H601 H 0.88806 0.15566 0.61849 0.0
H602 H 0.7777 0.0227 0.67742 0.0
H603 H 0.73919 0.04462 0.68338 0.0
H604 H 0.80083 0.07625 0.68932 0.0
C605 C 0.93262 0.91282 0.0021 0.0
C606 C 0.91705 0.93746 0.01209 0.0
C607 C 0.9017 0.87684 0.99113 0.0
C608 C 0.8538 0.86493 0.99012 0.0
C609 C 0.83765 0.88949 0.0002 0.0
C610 C 0.86958 0.92567 0.01108 0.0
C611 C 0.92046 0.85164 0.98056 0.0
C612 C 0.78674 0.87748 0.99949 0.0
C613 C 0.79463 0.80138 0.9495 0.0
C614 C 0.77473 0.75397 0.95428 0.0
C615 C 0.81784 0.83803 0.9613 0.0
C616 C 0.82134 0.82694 0.9783 0.0
C617 C 0.79918 0.77909 0.98338 0.0
C618 C 0.77658 0.74314 0.97127 0.0
C619 C 0.84138 0.88857 0.95534 0.0
C620 C 0.80189 0.76582 0.00139 0.0
H621 H 0.96926 0.92172 0.00281 0.0
H622 H 0.85738 0.94456 0.01881 0.0
H623 H 0.90111 0.81329 0.98337 0.0
H624 H 0.91468 0.85563 0.96701 0.0
H625 H 0.95873 0.86536 0.98281 0.0
H626 H 0.77967 0.89959 0.00824 0.0
H627 H 0.77708 0.88247 0.98652 0.0
H628 H 0.7634 0.83975 0.00271 0.0
H629 H 0.7938 0.80984 0.93635 0.0
H630 H 0.7619 0.70658 0.975 0.0
H631 H 0.88025 0.90392 0.95574 0.0
H632 H 0.83293 0.91025 0.96376 0.0
H633 H 0.83053 0.89136 0.94228 0.0
H634 H 0.83831 0.77356 0.00437 0.0
H635 H 0.77723 0.72773 0.00376 0.0
H636 H 0.79373 0.78706 0.01014 0.0
C637 C 0.01975 0.90424 0.36057 0.0
C638 C -0.00023 0.93044 0.35427 0.0
C639 C 0.01073 0.86208 0.35278 0.0
C640 C 0.98194 0.84637 0.33807 0.0
C641 C 0.96169 0.87276 0.33162 0.0
C642 C 0.97039 0.9143 0.33995 0.0
C643 C 0.0322 0.83445 0.36025 0.0
C644 C 0.93173 0.85766 0.31576 0.0
C645 C 0.00261 0.76271 0.31139 0.0
C646 C 0.96583 0.7185 0.31641 0.0
C647 C 0.007 0.80477 0.31771 0.0
C648 C 0.97389 0.80261 0.32944 0.0
C649 C 0.93523 0.75828 0.33391 0.0
C650 C 0.93118 0.71677 0.32714 0.0
C651 C 0.0481 0.85143 0.31231 0.0
C652 C 0.89933 0.75457 0.34645 0.0
H653 H 0.04225 0.91656 0.37172 0.0
H654 H 0.95523 0.9348 0.33501 0.0
H655 H 0.00412 0.79764 0.36283 0.0
H656 H 0.05662 0.83265 0.35115 0.0
H657 H 0.05204 0.85046 0.37215 0.0
H658 H 0.91805 0.88174 0.31253 0.0
H659 H 0.95282 0.85687 0.30509 0.0
H660 H 0.9014 0.82136 0.31716 0.0
H661 H 0.02872 0.76429 0.30277 0.0
H662 H 0.90158 0.68317 0.33074 0.0
H663 H 0.07288 0.8682 0.32309 0.0
H664 H 0.03562 0.87593 0.30831 0.0
H665 H 0.06774 0.84726 0.3018 0.0
H666 H 0.91669 0.76711 0.35896 0.0
H667 H 0.86963 0.71777 0.34775 0.0
H668 H 0.8848 0.77751 0.34268 0.0
C669 C 0.13136 0.98977 0.69221 0.0
C670 C 0.11072 0.01425 0.68487 0.0
C671 C 0.16763 0.9868 0.68418 0.0
C672 C 0.18359 0.00875 0.66837 0.0
C673 C 0.16219 0.03264 0.6607 0.0
C674 C 0.12599 0.03518 0.66906 0.0
C675 C 0.18958 0.96103 0.69278 0.0
C676 C 0.17815 0.05625 0.64383 0.0
C677 C 0.30885 0.04101 0.65793 0.0
C678 C 0.30146 0.00306 0.64765 0.0
C679 C 0.27075 0.04415 0.66426 0.0
C680 C 0.22406 0.00824 0.66032 0.0
C681 C 0.2163 0.97035 0.64963 0.0
C682 C 0.25512 0.96802 0.64351 0.0
C683 C 0.28049 0.085 0.67568 0.0
C684 C 0.16703 0.93145 0.64512 0.0
H685 H 0.11964 0.97345 0.70441 0.0
H686 H 0.11005 0.05404 0.66331 0.0
H687 H 0.18754 0.93299 0.68438 0.0
H688 H 0.2275 0.98598 0.69546 0.0
H689 H 0.17207 0.94458 0.70479 0.0
H690 H 0.15633 0.07136 0.63919 0.0
H691 H 0.21545 0.08508 0.64478 0.0
H692 H 0.17651 0.03051 0.63439 0.0
H693 H 0.34459 0.06776 0.66134 0.0
H694 H 0.24927 0.93822 0.6358 0.0
H695 H 0.26735 0.07165 0.68847 0.0
H696 H 0.2614 0.10292 0.671 0.0
H697 H 0.31872 0.11145 0.67667 0.0
H698 H 0.14942 0.91107 0.65656 0.0
H699 H 0.167 0.9067 0.63557 0.0
H700 H 0.14564 0.94668 0.6402 0.0
C701 C 0.15102 0.15213 0.00756 0.0
C702 C 0.10306 0.13814 0.00866 0.0
C703 C 0.18032 0.18733 0.99617 0.0
C704 C 0.16103 0.20874 0.98568 0.0
C705 C 0.11245 0.19399 0.98655 0.0
C706 C 0.08414 0.15897 0.99803 0.0
C707 C 0.23198 0.20221 0.99554 0.0
C708 C 0.09038 0.21571 0.97553 0.0
C709 C 0.2324 0.33138 0.96738 0.0
C710 C 0.23537 0.32117 0.95046 0.0
C711 C 0.21109 0.29512 0.97926 0.0
C712 C 0.19132 0.24747 0.97401 0.0
C713 C 0.19564 0.23703 0.95708 0.0
C714 C 0.21757 0.27403 0.94551 0.0
C715 C 0.20736 0.3077 0.99721 0.0
C716 C 0.17459 0.18669 0.95096 0.0
H717 H 0.16577 0.13609 0.01576 0.0
H718 H 0.04706 0.14821 0.99877 0.0
H719 H 0.24169 0.19882 0.98252 0.0
H720 H 0.2537 0.23996 0.99922 0.0
H721 H 0.24111 0.18084 0.00404 0.0
H722 H 0.05177 0.19925 0.97743 0.0
H723 H 0.10711 0.25408 0.97828 0.0
H724 H 0.09654 0.21192 0.96208 0.0
H725 H 0.24535 0.36765 0.97124 0.0
H726 H 0.21917 0.26602 0.9324 0.0
H727 H 0.21829 0.28855 0.00608 0.0
H728 H 0.1701 0.29671 -0.0001 0.0
H729 H 0.22942 0.34623 -0.00029 0.0
H730 H 0.18485 0.16633 0.95949 0.0
H731 H 0.18576 0.18471 0.938 0.0
H732 H 0.13552 0.16928 0.95101 0.0
C733 C 0.08171 0.20445 0.34451 0.0
C734 C 0.07305 0.15934 0.34001 0.0
C735 C 0.08035 0.23494 0.33233 0.0
C736 C 0.07088 0.22007 0.31534 0.0
C737 C 0.06646 0.17642 0.31056 0.0
C738 C 0.06712 0.14625 0.32299 0.0
C739 C 0.08547 0.2814 0.33785 0.0
C740 C 0.05826 0.16039 0.29242 0.0
C741 C 0.97625 0.25301 0.28493 0.0
C742 C 0.0241 0.30893 0.27608 0.0
C743 C 0.99571 0.22504 0.30002 0.0
C744 C 0.05786 0.24578 0.30318 0.0
C745 C 0.10268 0.2926 0.29068 0.0
C746 C 0.08672 0.32295 0.27524 0.0
C747 C 0.96015 0.185 0.31021 0.0
C748 C 0.15311 0.30601 0.29303 0.0
H749 H 0.08641 0.21474 0.35766 0.0
H750 H 0.06104 0.11161 0.31945 0.0
H751 H 0.10964 0.31021 0.32939 0.0
H752 H 0.05048 0.27907 0.33708 0.0
H753 H 0.09912 0.29071 0.35098 0.0
H754 H 0.06295 0.12936 0.29044 0.0
H755 H 0.02179 0.15055 0.2885 0.0
H756 H 0.08288 0.18958 0.28416 0.0
H757 H 0.93959 0.24374 0.28402 0.0
H758 H 0.11324 0.35329 0.26854 0.0
H759 H 0.96966 0.19245 0.32375 0.0
H760 H 0.9608 0.15238 0.30694 0.0
H761 H 0.92429 0.17957 0.3078 0.0
H762 H 0.16518 0.32097 0.30584 0.0
H763 H 0.17534 0.33242 0.28351 0.0
H764 H 0.15648 0.27398 0.29206 0.0
loop_
_geom_bond_atom_site_label_1
_geom_bond_atom_site_label_2
_geom_bond_distance
_geom_bond_site_symmetry_2
_ccdc_geom_bond_type
In0 O1 2.294 1_455 S
In0 O2 2.326 . S
In0 O6 2.266 1_445 S
In0 O7 2.326 1_445 S
In0 O8 2.266 1_545 S
In0 O9 2.326 1_445 S
In0 O11 2.294 . S
In0 O12 2.326 . S
O1 In0 2.294 1_655 S
O1 C10 1.240 1_655 S
O2 In0 2.326 . S
O2 C10 1.252 . S
C3 O6 1.252 . S
C3 O7 1.260 . S
C4 O11 1.240 . S
C4 O12 1.252 . S
C5 O8 1.252 . S
C5 O9 1.260 1_455 S
O6 In0 2.266 1_665 S
O6 C3 1.252 . S
O7 In0 2.326 1_665 S
O7 C3 1.260 . S
O8 In0 2.266 1_565 S
O8 C5 1.252 . S
O9 In0 2.326 1_665 S
O9 C5 1.260 1_655 S
C10 O1 1.240 1_455 S
C10 O2 1.252 . S
O11 In0 2.294 . S
O11 C4 1.240 . S
O12 In0 2.326 . S
O12 C4 1.252 . S
In13 O14 2.294 . S
In13 O15 2.326 1_455 S
In13 O19 2.266 . S
In13 O20 2.326 . S
In13 O21 2.266 1_445 S
In13 O22 2.326 . S
In13 O24 2.294 1_455 S
In13 O25 2.326 1_455 S
O14 In13 2.294 . S
O14 C23 1.240 . S
O15 In13 2.326 1_655 S
O15 C23 1.252 1_655 S
C16 O19 1.252 . S
C16 O20 1.260 . S
C17 O24 1.240 . S
C17 O25 1.252 . S
C18 O21 1.252 1_455 S
C18 O22 1.260 1_565 S
O19 In13 2.266 . S
O19 C16 1.252 . S
O20 In13 2.326 . S
O20 C16 1.260 . S
O21 In13 2.266 1_665 S
O21 C18 1.252 1_655 S
O22 In13 2.326 . S
O22 C18 1.260 1_545 S
C23 O14 1.240 . S
C23 O15 1.252 1_455 S
O24 In13 2.294 1_655 S
O24 C17 1.240 . S
O25 In13 2.326 1_655 S
O25 C17 1.252 . S
In26 O27 2.294 1_445 S
In26 O28 2.326 1_455 S
In26 O32 2.266 . S
In26 O33 2.326 . S
In26 O34 2.266 . S
In26 O35 2.326 . S
In26 O37 2.294 1_455 S
In26 O38 2.326 1_445 S
O27 In26 2.294 1_665 S
O27 C36 1.240 . S
O28 In26 2.326 1_655 S
O28 C36 1.252 1_545 S
C29 O32 1.252 . S
C29 O33 1.260 . S
C30 O37 1.240 . S
C30 O38 1.252 1_545 S
C31 O34 1.252 . S
C31 O35 1.260 . S
O32 In26 2.266 . S
O32 C29 1.252 . S
O33 In26 2.326 . S
O33 C29 1.260 . S
O34 In26 2.266 . S
O34 C31 1.252 . S
O35 In26 2.326 . S
O35 C31 1.260 . S
C36 O27 1.240 . S
C36 O28 1.252 1_565 S
O37 In26 2.294 1_655 S
O37 C30 1.240 . S
O38 In26 2.326 1_665 S
O38 C30 1.252 1_565 S
C39 C40 1.560 . S
C39 H100 0.959 . S
C39 H101 0.959 . S
C39 H102 0.960 . S
C40 C39 1.560 . S
C40 O95 1.426 . S
C40 H99 0.980 1_655 S
C41 C42 1.407 1_655 S
C41 C46 1.418 . S
C41 O95 1.334 . S
C42 C41 1.407 1_455 S
C42 C43 1.360 . S
C42 H103 0.929 . S
C43 C42 1.360 . S
C43 C44 1.401 . S
C43 C47 1.527 . S
C44 C43 1.401 . S
C44 C45 1.405 1_455 S
C44 C77 1.587 . S
C45 C44 1.405 1_655 S
C45 C46 1.332 . S
C45 C48 1.496 . S
C46 C41 1.418 . S
C46 C45 1.332 . S
C46 H104 0.929 . S
C47 C43 1.527 . S
C47 H105 0.959 . S
C47 H106 0.961 . S
C47 H107 0.961 . S
C48 C45 1.496 . S
C48 H108 0.960 . S
C48 H109 0.960 . S
C48 H110 0.961 . S
C49 C50 1.517 . S
C49 H112 0.961 . S
C49 H113 0.960 . S
C49 H114 0.959 . S
C50 C49 1.517 . S
C50 O98 1.468 . S
C50 H111 0.980 . S
C51 C52 1.349 . S
C51 C56 1.367 . S
C51 O98 1.408 . S
C52 C51 1.349 . S
C52 C53 1.407 . S
C52 H115 0.930 . S
C53 C52 1.407 . S
C53 C54 1.449 . S
C53 C57 1.535 1_455 S
C54 C53 1.449 . S
C54 C55 1.384 . S
C54 C79 1.553 . S
C55 C54 1.384 . S
C55 C56 1.364 . S
C55 C58 1.450 . S
C56 C51 1.367 . S
C56 C55 1.364 . S
C56 H116 0.931 . S
C57 C53 1.535 1_655 S
C57 H117 0.959 . S
C57 H118 0.961 . S
C57 H119 0.959 . S
C58 C55 1.450 . S
C58 H120 0.960 . S
C58 H121 0.960 . S
C58 H122 0.960 . S
C59 C60 1.309 . S
C59 C64 1.304 . S
C59 O97 1.435 . S
C60 C59 1.309 . S
C60 C61 1.476 . S
C60 H124 0.930 1_455 S
C61 C60 1.476 . S
C61 C62 1.400 . S
C61 C65 1.567 1_455 S
C62 C61 1.400 . S
C62 C63 1.373 . S
C62 C84 1.432 . S
C63 C62 1.373 . S
C63 C64 1.339 . S
C63 C66 1.530 . S
C64 C59 1.304 . S
C64 C63 1.339 . S
C64 H125 0.930 . S
C65 C61 1.567 1_655 S
C65 H126 0.961 . S
C65 H127 0.960 . S
C65 H128 0.958 . S
C66 C63 1.530 . S
C66 H129 0.961 . S
C66 H130 0.960 . S
C66 H131 0.960 . S
C67 C68 1.530 1_655 S
C67 H133 0.961 . S
C67 H134 0.961 . S
C67 H135 0.959 . S
C68 C67 1.530 1_455 S
C68 O96 1.412 1_455 S
C68 H132 0.980 . S
C69 C70 1.288 . S
C69 C74 1.377 1_655 S
C69 O96 1.393 . S
C70 C69 1.288 . S
C70 C71 1.369 . S
C70 H136 0.932 . S
C71 C70 1.369 . S
C71 C72 1.398 1_655 S
C71 C75 1.527 . S
C72 C71 1.398 1_455 S
C72 C73 1.380 . S
C72 C86 1.497 . S
C73 C72 1.380 . S
C73 C74 1.383 . S
C73 C76 1.603 . S
C74 C69 1.377 1_455 S
C74 C73 1.383 . S
C74 H137 0.929 . S
C75 C71 1.527 . S
C75 H138 0.961 . S
C75 H139 0.959 . S
C75 H140 0.959 . S
C76 C73 1.603 . S
C76 H141 0.960 . S
C76 H142 0.962 . S
C76 H143 0.961 . S
C77 C44 1.587 . S
C77 C78 1.360 . S
C77 C90 1.412 . S
C78 C77 1.360 . S
C78 C79 1.365 . S
C78 H144 0.929 . S
C79 C54 1.553 . S
C79 C78 1.365 . S
C79 C80 1.404 . S
C80 C79 1.404 . S
C80 C81 1.395 . S
C80 C91 1.451 . S
C81 C80 1.395 . S
C81 C82 1.322 . S
C81 H145 0.930 . S
C82 C81 1.322 . S
C82 C83 1.459 . S
C82 H146 0.929 . S
C83 C82 1.459 . S
C83 C84 1.445 . S
C83 C92 1.395 . S
C84 C62 1.432 . S
C84 C83 1.445 . S
C84 C85 1.370 . S
C85 C84 1.370 . S
C85 C86 1.438 . S
C85 H147 0.930 . S
C86 C72 1.497 . S
C86 C85 1.438 . S
C86 C87 1.360 . S
C87 C86 1.360 . S
C87 C88 1.401 . S
C87 C92 1.446 . S
C88 C87 1.401 . S
C88 C89 1.347 . S
C88 H148 0.929 . S
C89 C88 1.347 . S
C89 C90 1.455 . S
C89 H149 0.930 . S
C90 C77 1.412 . S
C90 C89 1.455 . S
C90 C91 1.331 . S
C91 C80 1.451 . S
C91 C90 1.331 . S
C91 C92 1.497 . S
C92 C83 1.395 . S
C92 C87 1.446 . S
C92 C91 1.497 . S
C93 C94 1.582 . S
C93 H150 0.962 . S
C93 H151 0.959 . S
C93 H152 0.958 . S
C94 C93 1.582 . S
C94 O97 1.458 . S
C94 H123 0.980 . S
O95 C40 1.426 . S
O95 C41 1.334 . S
O96 C68 1.412 1_655 S
O96 C69 1.393 . S
O97 C59 1.435 . S
O97 C94 1.458 . S
O98 C50 1.468 . S
O98 C51 1.408 . S
H99 C40 0.980 1_455 S
H100 C39 0.959 . S
H101 C39 0.959 . S
H102 C39 0.960 . S
H103 C42 0.929 . S
H104 C46 0.929 . S
H105 C47 0.959 . S
H106 C47 0.961 . S
H107 C47 0.961 . S
H108 C48 0.960 . S
H109 C48 0.960 . S
H110 C48 0.961 . S
H111 C50 0.980 . S
H112 C49 0.961 . S
H113 C49 0.960 . S
H114 C49 0.959 . S
H115 C52 0.930 . S
H116 C56 0.931 . S
H117 C57 0.959 . S
H118 C57 0.961 . S
H119 C57 0.959 . S
H120 C58 0.960 . S
H121 C58 0.960 . S
H122 C58 0.960 . S
H123 C94 0.980 . S
H124 C60 0.930 1_655 S
H125 C64 0.930 . S
H126 C65 0.961 . S
H127 C65 0.960 . S
H128 C65 0.958 . S
H129 C66 0.961 . S
H130 C66 0.960 . S
H131 C66 0.960 . S
H132 C68 0.980 . S
H133 C67 0.961 . S
H134 C67 0.961 . S
H135 C67 0.959 . S
H136 C70 0.932 . S
H137 C74 0.929 . S
H138 C75 0.961 . S
H139 C75 0.959 . S
H140 C75 0.959 . S
H141 C76 0.960 . S
H142 C76 0.962 . S
H143 C76 0.961 . S
H144 C78 0.929 . S
H145 C81 0.930 . S
H146 C82 0.929 . S
H147 C85 0.930 . S
H148 C88 0.929 . S
H149 C89 0.930 . S
H150 C93 0.962 . S
H151 C93 0.959 . S
H152 C93 0.958 . S
C153 C154 1.560 1_565 S
C153 H214 0.959 . S
C153 H215 0.959 . S
C153 H216 0.960 . S
C154 C153 1.560 1_545 S
C154 O209 1.426 1_545 S
C154 H213 0.980 . S
C155 C156 1.407 . S
C155 C160 1.418 1_545 S
C155 O209 1.334 1_545 S
C156 C155 1.407 . S
C156 C157 1.360 . S
C156 H217 0.929 . S
C157 C156 1.360 . S
C157 C158 1.401 . S
C157 C161 1.527 . S
C158 C157 1.401 . S
C158 C159 1.405 1_545 S
C158 C191 1.587 . S
C159 C158 1.405 1_565 S
C159 C160 1.332 . S
C159 C162 1.496 . S
C160 C155 1.418 1_565 S
C160 C159 1.332 . S
C160 H218 0.929 . S
C161 C157 1.527 . S
C161 H219 0.959 . S
C161 H220 0.961 . S
C161 H221 0.961 . S
C162 C159 1.496 . S
C162 H222 0.960 . S
C162 H223 0.960 . S
C162 H224 0.961 . S
C163 C164 1.517 . S
C163 H226 0.961 . S
C163 H227 0.960 . S
C163 H228 0.959 . S
C164 C163 1.517 . S
C164 O212 1.468 . S
C164 H225 0.980 . S
C165 C166 1.349 . S
C165 C170 1.367 . S
C165 O212 1.408 . S
C166 C165 1.349 . S
C166 C167 1.407 . S
C166 H229 0.930 . S
C167 C166 1.407 . S
C167 C168 1.449 . S
C167 C171 1.521 1_545 S
C168 C167 1.449 . S
C168 C169 1.384 . S
C168 C193 1.553 . S
C169 C168 1.384 . S
C169 C170 1.364 . S
C169 C172 1.450 . S
C170 C165 1.367 . S
C170 C169 1.364 . S
C170 H230 0.931 . S
C171 C167 1.521 1_565 S
C171 H231 0.947 1_565 S
C171 H232 0.971 . S
C171 H233 0.976 . S
C172 C169 1.450 . S
C172 H234 0.960 . S
C172 H235 0.960 . S
C172 H236 0.960 . S
C173 C174 1.309 . S
C173 C178 1.304 . S
C173 O211 1.435 . S
C174 C173 1.309 . S
C174 C175 1.476 . S
C174 H238 0.930 . S
C175 C174 1.476 . S
C175 C176 1.400 . S
C175 C179 1.567 1_545 S
C176 C175 1.400 . S
C176 C177 1.373 . S
C176 C198 1.432 . S
C177 C176 1.373 . S
C177 C178 1.339 . S
C177 C180 1.530 . S
C178 C173 1.304 . S
C178 C177 1.339 . S
C178 H239 0.930 . S
C179 C175 1.567 1_565 S
C179 H240 0.961 . S
C179 H241 0.960 . S
C179 H242 0.958 . S
C180 C177 1.530 . S
C180 H243 0.961 . S
C180 H244 0.960 . S
C180 H245 0.960 . S
C181 C182 1.530 . S
C181 H247 0.961 . S
C181 H248 0.961 1_545 S
C181 H249 0.959 1_545 S
C182 C181 1.530 . S
C182 O210 1.412 . S
C182 H246 0.980 . S
C183 C184 1.288 1_545 S
C183 C188 1.377 . S
C183 O210 1.393 . S
C184 C183 1.288 1_565 S
C184 C185 1.369 . S
C184 H250 0.932 . S
C185 C184 1.369 . S
C185 C186 1.398 1_565 S
C185 C189 1.527 . S
C186 C185 1.398 1_545 S
C186 C187 1.380 . S
C186 C200 1.497 . S
C187 C186 1.380 . S
C187 C188 1.383 . S
C187 C190 1.603 . S
C188 C183 1.377 . S
C188 C187 1.383 . S
C188 H251 0.929 . S
C189 C185 1.527 . S
C189 H252 0.961 . S
C189 H253 0.959 . S
C189 H254 0.959 . S
C190 C187 1.603 . S
C190 H255 0.960 . S
C190 H256 0.962 . S
C190 H257 0.961 . S
C191 C158 1.587 . S
C191 C192 1.360 . S
C191 C204 1.412 . S
C192 C191 1.360 . S
C192 C193 1.365 . S
C192 H258 0.929 . S
C193 C168 1.553 . S
C193 C192 1.365 . S
C193 C194 1.404 . S
C194 C193 1.404 . S
C194 C195 1.395 . S
C194 C205 1.451 . S
C195 C194 1.395 . S
C195 C196 1.322 . S
C195 H259 0.930 . S
C196 C195 1.322 . S
C196 C197 1.459 . S
C196 H260 0.929 . S
C197 C196 1.459 . S
C197 C198 1.445 . S
C197 C206 1.395 . S
C198 C176 1.432 . S
C198 C197 1.445 . S
C198 C199 1.370 . S
C199 C198 1.370 . S
C199 C200 1.438 . S
C199 H261 0.930 . S
C200 C186 1.497 . S
C200 C199 1.438 . S
C200 C201 1.360 . S
C201 C200 1.360 . S
C201 C202 1.401 . S
C201 C206 1.446 . S
C202 C201 1.401 . S
C202 C203 1.347 . S
C202 H262 0.929 . S
C203 C202 1.347 . S
C203 C204 1.455 . S
C203 H263 0.930 . S
C204 C191 1.412 . S
C204 C203 1.455 . S
C204 C205 1.331 . S
C205 C194 1.451 . S
C205 C204 1.331 . S
C205 C206 1.497 . S
C206 C197 1.395 . S
C206 C201 1.446 . S
C206 C205 1.497 . S
C207 C208 1.582 . S
C207 H264 0.962 . S
C207 H265 0.959 . S
C207 H266 0.958 . S
C208 C207 1.582 . S
C208 O211 1.458 . S
C208 H237 0.980 . S
O209 C154 1.426 1_565 S
O209 C155 1.334 1_565 S
O210 C182 1.412 . S
O210 C183 1.393 . S
O211 C173 1.435 . S
O211 C208 1.458 . S
O212 C164 1.468 . S
O212 C165 1.408 . S
H213 C154 0.980 . S
H214 C153 0.959 . S
H215 C153 0.959 . S
H216 C153 0.960 . S
H217 C156 0.929 . S
H218 C160 0.929 . S
H219 C161 0.959 . S
H220 C161 0.961 . S
H221 C161 0.961 . S
H222 C162 0.960 . S
H223 C162 0.960 . S
H224 C162 0.961 . S
H225 C164 0.980 . S
H226 C163 0.961 . S
H227 C163 0.960 . S
H228 C163 0.959 . S
H229 C166 0.930 . S
H230 C170 0.931 . S
H231 C171 0.947 1_545 S
H232 C171 0.971 . S
H233 C171 0.976 . S
H234 C172 0.960 . S
H235 C172 0.960 . S
H236 C172 0.960 . S
H237 C208 0.980 . S
H238 C174 0.930 . S
H239 C178 0.930 . S
H240 C179 0.961 . S
H241 C179 0.960 . S
H242 C179 0.958 . S
H243 C180 0.961 . S
H244 C180 0.960 . S
H245 C180 0.960 . S
H246 C182 0.980 . S
H247 C181 0.961 . S
H248 C181 0.961 1_565 S
H249 C181 0.959 1_565 S
H250 C184 0.932 . S
H251 C188 0.929 . S
H252 C189 0.961 . S
H253 C189 0.959 . S
H254 C189 0.959 . S
H255 C190 0.960 . S
H256 C190 0.962 . S
H257 C190 0.961 . S
H258 C192 0.929 . S
H259 C195 0.930 . S
H260 C196 0.929 . S
H261 C199 0.930 . S
H262 C202 0.929 . S
H263 C203 0.930 . S
H264 C207 0.962 . S
H265 C207 0.959 . S
H266 C207 0.958 . S
C267 C268 1.560 . S
C267 H328 0.959 . S
C267 H329 0.959 . S
C267 H330 0.960 . S
C268 C267 1.560 . S
C268 O323 1.426 . S
C268 H327 0.980 . S
C269 C270 1.407 . S
C269 C274 1.418 . S
C269 O323 1.334 . S
C270 C269 1.407 . S
C270 C271 1.360 . S
C270 H331 0.929 . S
C271 C270 1.360 . S
C271 C272 1.401 . S
C271 C275 1.527 . S
C272 C271 1.401 . S
C272 C273 1.405 . S
C272 C305 1.587 . S
C273 C272 1.405 . S
C273 C274 1.332 . S
C273 C276 1.496 . S
C274 C269 1.418 . S
C274 C273 1.332 . S
C274 H332 0.929 . S
C275 C271 1.527 . S
C275 H333 0.959 . S
C275 H334 0.961 . S
C275 H335 0.961 . S
C276 C273 1.496 . S
C276 H336 0.960 . S
C276 H337 0.960 . S
C276 H338 0.961 . S
C277 C278 1.517 . S
C277 H340 0.961 . S
C277 H341 0.960 . S
C277 H342 0.959 . S
C278 C277 1.517 . S
C278 O326 1.468 . S
C278 H339 0.980 . S
C279 C280 1.349 . S
C279 C284 1.367 . S
C279 O326 1.408 . S
C280 C279 1.349 . S
C280 C281 1.407 . S
C280 H343 0.930 . S
C281 C280 1.407 . S
C281 C282 1.449 . S
C281 C285 1.535 . S
C282 C281 1.449 . S
C282 C283 1.384 . S
C282 C307 1.553 . S
C283 C282 1.384 . S
C283 C284 1.364 . S
C283 C286 1.450 . S
C284 C279 1.367 . S
C284 C283 1.364 . S
C284 H344 0.931 . S
C285 C281 1.535 . S
C285 H345 0.959 . S
C285 H346 0.961 . S
C285 H347 0.959 . S
C286 C283 1.450 . S
C286 H348 0.960 . S
C286 H349 0.960 . S
C286 H350 0.960 . S
C287 C288 1.309 . S
C287 C292 1.304 . S
C287 O325 1.435 . S
C288 C287 1.309 . S
C288 C289 1.476 . S
C288 H352 0.930 . S
C289 C288 1.476 . S
C289 C290 1.400 . S
C289 C293 1.567 . S
C290 C289 1.400 . S
C290 C291 1.373 . S
C290 C312 1.432 . S
C291 C290 1.373 . S
C291 C292 1.339 . S
C291 C294 1.530 . S
C292 C287 1.304 . S
C292 C291 1.339 . S
C292 H353 0.930 . S
C293 C289 1.567 . S
C293 H354 0.961 . S
C293 H355 0.960 . S
C293 H356 0.958 . S
C294 C291 1.530 . S
C294 H357 0.961 . S
C294 H358 0.960 . S
C294 H359 0.960 . S
C295 C296 1.530 . S
C295 H361 0.961 . S
C295 H362 0.961 . S
C295 H363 0.959 . S
C296 C295 1.530 . S
C296 O324 1.412 . S
C296 H360 0.980 . S
C297 C298 1.288 . S
C297 C302 1.377 . S
C297 O324 1.393 . S
C298 C297 1.288 . S
C298 C299 1.369 . S
C298 H364 0.932 . S
C299 C298 1.369 . S
C299 C300 1.398 . S
C299 C303 1.527 . S
C300 C299 1.398 . S
C300 C301 1.380 . S
C300 C314 1.497 . S
C301 C300 1.380 . S
C301 C302 1.383 . S
C301 C304 1.603 . S
C302 C297 1.377 . S
C302 C301 1.383 . S
C302 H365 0.929 . S
C303 C299 1.527 . S
C303 H366 0.961 . S
C303 H367 0.959 . S
C303 H368 0.959 . S
C304 C301 1.603 . S
C304 H369 0.960 . S
C304 H370 0.962 . S
C304 H371 0.961 . S
C305 C272 1.587 . S
C305 C306 1.360 . S
C305 C318 1.412 . S
C306 C305 1.360 . S
C306 C307 1.365 . S
C306 H372 0.929 . S
C307 C282 1.553 . S
C307 C306 1.365 . S
C307 C308 1.404 . S
C308 C307 1.404 . S
C308 C309 1.395 . S
C308 C319 1.451 . S
C309 C308 1.395 . S
C309 C310 1.322 . S
C309 H373 0.930 . S
C310 C309 1.322 . S
C310 C311 1.459 . S
C310 H374 0.929 . S
C311 C310 1.459 . S
C311 C312 1.445 . S
C311 C320 1.395 . S
C312 C290 1.432 . S
C312 C311 1.445 . S
C312 C313 1.370 . S
C313 C312 1.370 . S
C313 C314 1.438 . S
C313 H375 0.930 . S
C314 C300 1.497 . S
C314 C313 1.438 . S
C314 C315 1.360 . S
C315 C314 1.360 . S
C315 C316 1.401 . S
C315 C320 1.446 . S
C316 C315 1.401 . S
C316 C317 1.347 . S
C316 H376 0.929 . S
C317 C316 1.347 . S
C317 C318 1.455 . S
C317 H377 0.930 . S
C318 C305 1.412 . S
C318 C317 1.455 . S
C318 C319 1.331 . S
C319 C308 1.451 . S
C319 C318 1.331 . S
C319 C320 1.497 . S
C320 C311 1.395 . S
C320 C315 1.446 . S
C320 C319 1.497 . S
C321 C322 1.582 . S
C321 H378 0.962 . S
C321 H379 0.959 . S
C321 H380 0.958 . S
C322 C321 1.582 . S
C322 O325 1.458 . S
C322 H351 0.980 . S
O323 C268 1.426 . S
O323 C269 1.334 . S
O324 C296 1.412 . S
O324 C297 1.393 . S
O325 C287 1.435 . S
O325 C322 1.458 . S
O326 C278 1.468 . S
O326 C279 1.408 . S
H327 C268 0.980 . S
H328 C267 0.959 . S
H329 C267 0.959 . S
H330 C267 0.960 . S
H331 C270 0.929 . S
H332 C274 0.929 . S
H333 C275 0.959 . S
H334 C275 0.961 . S
H335 C275 0.961 . S
H336 C276 0.960 . S
H337 C276 0.960 . S
H338 C276 0.961 . S
H339 C278 0.980 . S
H340 C277 0.961 . S
H341 C277 0.960 . S
H342 C277 0.959 . S
H343 C280 0.930 . S
H344 C284 0.931 . S
H345 C285 0.959 . S
H346 C285 0.961 . S
H347 C285 0.959 . S
H348 C286 0.960 . S
H349 C286 0.960 . S
H350 C286 0.960 . S
H351 C322 0.980 . S
H352 C288 0.930 . S
H353 C292 0.930 . S
H354 C293 0.961 . S
H355 C293 0.960 . S
H356 C293 0.958 . S
H357 C294 0.961 . S
H358 C294 0.960 . S
H359 C294 0.960 . S
H360 C296 0.980 . S
H361 C295 0.961 . S
H362 C295 0.961 . S
H363 C295 0.959 . S
H364 C298 0.932 . S
H365 C302 0.929 . S
H366 C303 0.961 . S
H367 C303 0.959 . S
H368 C303 0.959 . S
H369 C304 0.960 . S
H370 C304 0.962 . S
H371 C304 0.961 . S
H372 C306 0.929 . S
H373 C309 0.930 . S
H374 C310 0.929 . S
H375 C313 0.930 . S
H376 C316 0.929 . S
H377 C317 0.930 . S
H378 C321 0.962 . S
H379 C321 0.959 . S
H380 C321 0.958 . S
C381 C382 1.391 1_655 S
C381 C383 1.394 . S
C381 H397 0.931 . S
C382 C381 1.391 1_455 S
C382 C386 1.376 . S
C383 C381 1.394 . S
C383 C384 1.369 1_655 S
C383 C387 1.531 . S
C384 C383 1.369 1_455 S
C384 C385 1.410 . S
C384 C392 1.503 . S
C385 C384 1.410 . S
C385 C386 1.392 . S
C385 C388 1.511 . S
C386 C382 1.376 . S
C386 C385 1.392 . S
C386 H398 0.929 . S
C387 C383 1.531 . S
C387 H399 0.960 . S
C387 H400 0.962 . S
C387 H401 0.960 . S
C388 C385 1.511 . S
C388 H402 0.961 . S
C388 H403 0.961 . S
C388 H404 0.961 . S
C389 C390 1.370 1_655 S
C389 C391 1.363 . S
C389 H405 0.931 . S
C390 C389 1.370 1_455 S
C390 C394 1.408 . S
C391 C389 1.363 . S
C391 C392 1.370 1_655 S
C391 C395 1.524 . S
C392 C384 1.503 . S
C392 C391 1.370 1_455 S
C392 C393 1.403 . S
C393 C392 1.403 . S
C393 C394 1.404 . S
C393 C396 1.539 . S
C394 C390 1.408 . S
C394 C393 1.404 . S
C394 H406 0.930 . S
C395 C391 1.524 . S
C395 H407 0.956 . S
C395 H408 0.944 1_655 S
C395 H409 0.961 . S
C396 C393 1.539 . S
C396 H410 0.958 . S
C396 H411 0.961 . S
C396 H412 0.960 . S
H397 C381 0.931 . S
H398 C386 0.929 . S
H399 C387 0.960 . S
H400 C387 0.962 . S
H401 C387 0.960 . S
H402 C388 0.961 . S
H403 C388 0.961 . S
H404 C388 0.961 . S
H405 C389 0.931 . S
H406 C394 0.930 . S
H407 C395 0.956 . S
H408 C395 0.944 1_455 S
H409 C395 0.961 . S
H410 C396 0.958 . S
H411 C396 0.961 . S
H412 C396 0.960 . S
C413 C414 1.391 . S
C413 C415 1.394 . S
C413 H429 0.931 . S
C414 C413 1.391 . S
C414 C418 1.376 . S
C415 C413 1.394 . S
C415 C416 1.369 . S
C415 C419 1.531 . S
C416 C415 1.369 . S
C416 C417 1.410 . S
C416 C424 1.503 . S
C417 C416 1.410 . S
C417 C418 1.392 . S
C417 C420 1.511 1_545 S
C418 C414 1.376 . S
C418 C417 1.392 . S
C418 H430 0.929 1_545 S
C419 C415 1.531 . S
C419 H431 0.960 . S
C419 H432 0.962 . S
C419 H433 0.960 . S
C420 C417 1.511 1_565 S
C420 H434 0.961 . S
C420 H435 0.961 . S
C420 H436 0.961 . S
C421 C422 1.370 . S
C421 C423 1.363 . S
C421 H437 0.931 . S
C422 C421 1.370 . S
C422 C426 1.408 . S
C423 C421 1.363 . S
C423 C424 1.370 . S
C423 C427 1.524 . S
C424 C416 1.503 . S
C424 C423 1.370 . S
C424 C425 1.403 . S
C425 C424 1.403 . S
C425 C426 1.404 . S
C425 C428 1.545 . S
C426 C422 1.408 . S
C426 C425 1.404 . S
C426 H438 0.930 . S
C427 C423 1.524 . S
C427 H439 0.956 . S
C427 H440 0.961 . S
C427 H441 0.961 . S
C428 C425 1.545 . S
C428 H442 0.975 . S
C428 H443 0.955 1_545 S
C428 H444 0.944 1_545 S
H429 C413 0.931 . S
H430 C418 0.929 1_565 S
H431 C419 0.960 . S
H432 C419 0.962 . S
H433 C419 0.960 . S
H434 C420 0.961 . S
H435 C420 0.961 . S
H436 C420 0.961 . S
H437 C421 0.931 . S
H438 C426 0.930 . S
H439 C427 0.956 . S
H440 C427 0.961 . S
H441 C427 0.961 . S
H442 C428 0.975 . S
H443 C428 0.955 1_565 S
H444 C428 0.944 1_565 S
C445 C446 1.391 . S
C445 C447 1.394 . S
C445 H461 0.931 . S
C446 C445 1.391 . S
C446 C450 1.376 . S
C447 C445 1.394 . S
C447 C448 1.369 . S
C447 C451 1.531 . S
C448 C447 1.369 . S
C448 C449 1.410 . S
C448 C456 1.503 . S
C449 C448 1.410 . S
C449 C450 1.392 . S
C449 C452 1.511 . S
C450 C446 1.376 . S
C450 C449 1.392 . S
C450 H462 0.929 . S
C451 C447 1.531 . S
C451 H463 0.960 . S
C451 H464 0.962 . S
C451 H465 0.960 . S
C452 C449 1.511 . S
C452 H466 0.961 . S
C452 H467 0.961 . S
C452 H468 0.961 . S
C453 C454 1.370 . S
C453 C455 1.363 . S
C453 H469 0.931 . S
C454 C453 1.370 . S
C454 C458 1.408 . S
C455 C453 1.363 . S
C455 C456 1.370 . S
C455 C459 1.524 . S
C456 C448 1.503 . S
C456 C455 1.370 . S
C456 C457 1.403 . S
C457 C456 1.403 . S
C457 C458 1.404 . S
C457 C460 1.539 . S
C458 C454 1.408 . S
C458 C457 1.404 . S
C458 H470 0.930 . S
C459 C455 1.524 . S
C459 H471 0.956 . S
C459 H472 0.961 . S
C459 H473 0.961 . S
C460 C457 1.539 . S
C460 H474 0.958 . S
C460 H475 0.961 . S
C460 H476 0.960 . S
H461 C445 0.931 . S
H462 C450 0.929 . S
H463 C451 0.960 . S
H464 C451 0.962 . S
H465 C451 0.960 . S
H466 C452 0.961 . S
H467 C452 0.961 . S
H468 C452 0.961 . S
H469 C453 0.931 . S
H470 C458 0.930 . S
H471 C459 0.956 . S
H472 C459 0.961 . S
H473 C459 0.961 . S
H474 C460 0.958 . S
H475 C460 0.961 . S
H476 C460 0.960 . S
C477 C478 1.391 . S
C477 C479 1.394 . S
C477 H493 0.931 . S
C478 C477 1.391 . S
C478 C482 1.376 1_455 S
C479 C477 1.394 . S
C479 C480 1.369 . S
C479 C483 1.531 . S
C480 C479 1.369 . S
C480 C481 1.410 1_455 S
C480 C488 1.503 . S
C481 C480 1.410 1_655 S
C481 C482 1.392 . S
C481 C484 1.511 . S
C482 C478 1.376 1_655 S
C482 C481 1.392 . S
C482 H494 0.929 . S
C483 C479 1.531 . S
C483 H495 0.960 . S
C483 H496 0.962 . S
C483 H497 0.960 . S
C484 C481 1.511 . S
C484 H498 0.961 . S
C484 H499 0.961 . S
C484 H500 0.961 . S
C485 C486 1.370 1_655 S
C485 C487 1.363 . S
C485 H501 0.931 . S
C486 C485 1.370 1_455 S
C486 C490 1.408 . S
C487 C485 1.363 . S
C487 C488 1.370 1_655 S
C487 C491 1.524 . S
C488 C480 1.503 . S
C488 C487 1.370 1_455 S
C488 C489 1.403 . S
C489 C488 1.403 . S
C489 C490 1.404 . S
C489 C492 1.539 . S
C490 C486 1.408 . S
C490 C489 1.404 . S
C490 H502 0.930 . S
C491 C487 1.524 . S
C491 H503 0.956 . S
C491 H504 0.961 . S
C491 H505 0.961 . S
C492 C489 1.539 . S
C492 H506 0.958 . S
C492 H507 0.961 . S
C492 H508 0.960 . S
H493 C477 0.931 . S
H494 C482 0.929 . S
H495 C483 0.960 . S
H496 C483 0.962 . S
H497 C483 0.960 . S
H498 C484 0.961 . S
H499 C484 0.961 . S
H500 C484 0.961 . S
H501 C485 0.931 . S
H502 C490 0.930 . S
H503 C491 0.956 . S
H504 C491 0.961 . S
H505 C491 0.961 . S
H506 C492 0.958 . S
H507 C492 0.961 . S
H508 C492 0.960 . S
C509 C510 1.391 . S
C509 C511 1.394 . S
C509 H525 0.931 . S
C510 C509 1.391 . S
C510 C514 1.376 . S
C511 C509 1.394 . S
C511 C512 1.369 . S
C511 C515 1.531 . S
C512 C511 1.369 . S
C512 C513 1.410 . S
C512 C520 1.503 . S
C513 C512 1.410 . S
C513 C514 1.392 . S
C513 C516 1.511 . S
C514 C510 1.376 . S
C514 C513 1.392 . S
C514 H526 0.929 . S
C515 C511 1.531 . S
C515 H527 0.960 . S
C515 H528 0.962 . S
C515 H529 0.960 . S
C516 C513 1.511 . S
C516 H530 0.961 1_545 S
C516 H531 0.961 1_545 S
C516 H532 0.961 . S
C517 C518 1.370 . S
C517 C519 1.363 . S
C517 H533 0.931 . S
C518 C517 1.370 . S
C518 C522 1.408 . S
C519 C517 1.363 . S
C519 C520 1.370 . S
C519 C523 1.524 1_545 S
C520 C512 1.503 . S
C520 C519 1.370 . S
C520 C521 1.403 . S
C521 C520 1.403 . S
C521 C522 1.404 . S
C521 C524 1.539 . S
C522 C518 1.408 . S
C522 C521 1.404 . S
C522 H534 0.930 . S
C523 C519 1.524 1_565 S
C523 H535 0.955 1_565 S
C523 H536 0.961 . S
C523 H537 0.961 . S
C524 C521 1.539 . S
C524 H538 0.958 . S
C524 H539 0.961 . S
C524 H540 0.960 . S
H525 C509 0.931 . S
H526 C514 0.929 . S
H527 C515 0.960 . S
H528 C515 0.962 . S
H529 C515 0.960 . S
H530 C516 0.961 1_565 S
H531 C516 0.961 1_565 S
H532 C516 0.961 . S
H533 C517 0.931 . S
H534 C522 0.930 . S
H535 C523 0.955 1_545 S
H536 C523 0.961 . S
H537 C523 0.961 . S
H538 C524 0.958 . S
H539 C524 0.961 . S
H540 C524 0.960 . S
C541 C542 1.391 . S
C541 C543 1.394 . S
C541 H557 0.931 . S
C542 C541 1.391 . S
C542 C546 1.376 . S
C543 C541 1.394 . S
C543 C544 1.369 . S
C543 C547 1.531 . S
C544 C543 1.369 . S
C544 C545 1.410 . S
C544 C552 1.503 . S
C545 C544 1.410 . S
C545 C546 1.392 . S
C545 C548 1.511 . S
C546 C542 1.376 . S
C546 C545 1.392 . S
C546 H558 0.929 . S
C547 C543 1.531 . S
C547 H559 0.960 . S
C547 H560 0.962 . S
C547 H561 0.960 . S
C548 C545 1.511 . S
C548 H562 0.961 . S
C548 H563 0.961 . S
C548 H564 0.961 . S
C549 C550 1.370 . S
C549 C551 1.363 . S
C549 H565 0.931 . S
C550 C549 1.370 . S
C550 C554 1.408 . S
C551 C549 1.363 . S
C551 C552 1.370 . S
C551 C555 1.524 . S
C552 C544 1.503 . S
C552 C551 1.370 . S
C552 C553 1.403 . S
C553 C552 1.403 . S
C553 C554 1.404 . S
C553 C556 1.539 . S
C554 C550 1.408 . S
C554 C553 1.404 . S
C554 H566 0.930 . S
C555 C551 1.524 . S
C555 H567 0.956 . S
C555 H568 0.961 . S
C555 H569 0.961 . S
C556 C553 1.539 . S
C556 H570 0.958 . S
C556 H571 0.961 . S
C556 H572 0.960 . S
H557 C541 0.931 . S
H558 C546 0.929 . S
H559 C547 0.960 . S
H560 C547 0.962 . S
H561 C547 0.960 . S
H562 C548 0.961 . S
H563 C548 0.961 . S
H564 C548 0.961 . S
H565 C549 0.931 . S
H566 C554 0.930 . S
H567 C555 0.956 . S
H568 C555 0.961 . S
H569 C555 0.961 . S
H570 C556 0.958 . S
H571 C556 0.961 . S
H572 C556 0.960 . S
C573 C574 1.380 1_565 S
C573 C575 1.376 1_565 S
C573 H589 0.950 . S
C574 C573 1.380 1_545 S
C574 C578 1.376 . S
C575 C573 1.376 1_545 S
C575 C576 1.389 . S
C575 C579 1.520 1_545 S
C576 C575 1.389 . S
C576 C577 1.410 . S
C576 C584 1.503 . S
C577 C576 1.410 . S
C577 C578 1.392 . S
C577 C580 1.511 . S
C578 C574 1.376 . S
C578 C577 1.392 . S
C578 H590 0.929 . S
C579 C575 1.520 1_565 S
C579 H591 0.960 . S
C579 H592 0.962 . S
C579 H593 0.960 . S
C580 C577 1.511 . S
C580 H594 0.961 . S
C580 H595 0.961 . S
C580 H596 0.961 . S
C581 C582 1.370 . S
C581 C583 1.363 . S
C581 H597 0.931 . S
C582 C581 1.370 . S
C582 C586 1.408 . S
C583 C581 1.363 . S
C583 C584 1.370 . S
C583 C587 1.524 . S
C584 C576 1.503 . S
C584 C583 1.370 . S
C584 C585 1.403 . S
C585 C584 1.403 . S
C585 C586 1.404 . S
C585 C588 1.539 1_545 S
C586 C582 1.408 . S
C586 C585 1.404 . S
C586 H598 0.930 . S
C587 C583 1.524 . S
C587 H599 0.956 . S
C587 H600 0.961 . S
C587 H601 0.961 . S
C588 C585 1.539 1_565 S
C588 H602 0.958 . S
C588 H603 0.961 . S
C588 H604 0.960 . S
H589 C573 0.950 . S
H590 C578 0.929 . S
H591 C579 0.960 . S
H592 C579 0.962 . S
H593 C579 0.960 . S
H594 C580 0.961 . S
H595 C580 0.961 . S
H596 C580 0.961 . S
H597 C581 0.931 . S
H598 C586 0.930 . S
H599 C587 0.956 . S
H600 C587 0.961 . S
H601 C587 0.961 . S
H602 C588 0.958 . S
H603 C588 0.961 . S
H604 C588 0.960 . S
C605 C606 1.391 . S
C605 C607 1.394 . S
C605 H621 0.931 . S
C606 C605 1.391 . S
C606 C610 1.376 . S
C607 C605 1.394 . S
C607 C608 1.363 1_554 S
C607 C611 1.535 . S
C608 C607 1.363 1_556 S
C608 C609 1.404 1_556 S
C608 C616 1.517 . S
C609 C608 1.404 1_554 S
C609 C610 1.392 . S
C609 C612 1.497 1_554 S
C610 C606 1.376 . S
C610 C609 1.392 . S
C610 H622 0.929 . S
C611 C607 1.535 . S
C611 H623 0.959 1_554 S
C611 H624 0.944 1_554 S
C611 H625 0.975 . S
C612 C609 1.497 1_556 S
C612 H626 0.969 . S
C612 H627 1.019 . S
C612 H628 0.914 1_556 S
C613 C614 1.370 . S
C613 C615 1.363 . S
C613 H629 0.931 . S
C614 C613 1.370 . S
C614 C618 1.408 . S
C615 C613 1.363 . S
C615 C616 1.370 . S
C615 C619 1.524 . S
C616 C608 1.517 . S
C616 C615 1.370 . S
C616 C617 1.403 . S
C617 C616 1.403 . S
C617 C618 1.404 . S
C617 C620 1.539 1_556 S
C618 C614 1.408 . S
C618 C617 1.404 . S
C618 H630 0.930 . S
C619 C615 1.524 . S
C619 H631 0.956 . S
C619 H632 0.961 . S
C619 H633 0.961 . S
C620 C617 1.539 1_554 S
C620 H634 0.958 . S
C620 H635 0.961 . S
C620 H636 0.960 . S
H621 C605 0.931 . S
H622 C610 0.929 . S
H623 C611 0.959 1_556 S
H624 C611 0.944 1_556 S
H625 C611 0.975 . S
H626 C612 0.969 . S
H627 C612 1.019 . S
H628 C612 0.914 1_554 S
H629 C613 0.931 . S
H630 C618 0.930 . S
H631 C619 0.956 . S
H632 C619 0.961 . S
H633 C619 0.961 . S
H634 C620 0.958 . S
H635 C620 0.961 . S
H636 C620 0.960 . S
C637 C638 1.391 . S
C637 C639 1.394 . S
C637 H653 0.931 . S
C638 C637 1.391 . S
C638 C642 1.376 1_455 S
C639 C637 1.394 . S
C639 C640 1.369 . S
C639 C643 1.531 . S
C640 C639 1.369 . S
C640 C641 1.410 1_455 S
C640 C648 1.503 . S
C641 C640 1.410 1_655 S
C641 C642 1.392 . S
C641 C644 1.511 . S
C642 C638 1.376 1_655 S
C642 C641 1.392 . S
C642 H654 0.929 . S
C643 C639 1.531 . S
C643 H655 0.960 . S
C643 H656 0.962 . S
C643 H657 0.960 . S
C644 C641 1.511 . S
C644 H658 0.961 . S
C644 H659 0.961 . S
C644 H660 0.961 . S
C645 C646 1.370 . S
C645 C647 1.363 . S
C645 H661 0.931 . S
C646 C645 1.370 . S
C646 C650 1.408 1_455 S
C647 C645 1.363 . S
C647 C648 1.370 . S
C647 C651 1.524 . S
C648 C640 1.503 . S
C648 C647 1.370 . S
C648 C649 1.403 1_455 S
C649 C648 1.403 1_655 S
C649 C650 1.404 . S
C649 C652 1.539 . S
C650 C646 1.408 1_655 S
C650 C649 1.404 . S
C650 H662 0.930 . S
C651 C647 1.524 . S
C651 H663 0.956 . S
C651 H664 0.961 . S
C651 H665 0.961 . S
C652 C649 1.539 . S
C652 H666 0.958 . S
C652 H667 0.961 . S
C652 H668 0.960 . S
H653 C637 0.931 . S
H654 C642 0.929 . S
H655 C643 0.960 . S
H656 C643 0.962 . S
H657 C643 0.960 . S
H658 C644 0.961 . S
H659 C644 0.961 . S
H660 C644 0.961 . S
H661 C645 0.931 . S
H662 C650 0.930 . S
H663 C651 0.956 . S
H664 C651 0.961 . S
H665 C651 0.961 . S
H666 C652 0.958 . S
H667 C652 0.961 . S
H668 C652 0.960 . S
C669 C670 1.391 . S
C669 C671 1.394 . S
C669 H685 0.931 . S
C670 C669 1.391 . S
C670 C674 1.376 . S
C671 C669 1.394 . S
C671 C672 1.369 . S
C671 C675 1.531 . S
C672 C671 1.369 . S
C672 C673 1.410 . S
C672 C680 1.503 . S
C673 C672 1.410 . S
C673 C674 1.392 . S
C673 C676 1.511 . S
C674 C670 1.376 . S
C674 C673 1.392 . S
C674 H686 0.929 . S
C675 C671 1.531 . S
C675 H687 0.960 1_545 S
C675 H688 0.962 . S
C675 H689 0.960 1_545 S
C676 C673 1.511 . S
C676 H690 0.961 . S
C676 H691 0.961 . S
C676 H692 0.961 . S
C677 C678 1.370 . S
C677 C679 1.363 . S
C677 H693 0.931 . S
C678 C677 1.370 . S
C678 C682 1.408 1_545 S
C679 C677 1.363 . S
C679 C680 1.370 . S
C679 C683 1.524 . S
C680 C672 1.503 . S
C680 C679 1.370 . S
C680 C681 1.403 1_545 S
C681 C680 1.403 1_565 S
C681 C682 1.404 . S
C681 C684 1.539 . S
C682 C678 1.408 1_565 S
C682 C681 1.404 . S
C682 H694 0.930 . S
C683 C679 1.524 . S
C683 H695 0.956 . S
C683 H696 0.961 . S
C683 H697 0.961 . S
C684 C681 1.539 . S
C684 H698 0.958 . S
C684 H699 0.961 . S
C684 H700 0.960 . S
H685 C669 0.931 . S
H686 C674 0.929 . S
H687 C675 0.960 1_565 S
H688 C675 0.962 . S
H689 C675 0.960 1_565 S
H690 C676 0.961 . S
H691 C676 0.961 . S
H692 C676 0.961 . S
H693 C677 0.931 . S
H694 C682 0.930 . S
H695 C683 0.956 . S
H696 C683 0.961 . S
H697 C683 0.961 . S
H698 C684 0.958 . S
H699 C684 0.961 . S
H700 C684 0.960 . S
C701 C702 1.391 . S
C701 C703 1.394 1_554 S
C701 H717 0.931 . S
C702 C701 1.391 . S
C702 C706 1.376 . S
C703 C701 1.394 1_556 S
C703 C704 1.369 . S
C703 C707 1.531 . S
C704 C703 1.369 . S
C704 C705 1.447 . S
C704 C712 1.503 . S
C705 C704 1.447 . S
C705 C706 1.346 1_556 S
C705 C708 1.523 . S
C706 C702 1.376 . S
C706 C705 1.346 1_554 S
C706 H718 0.929 . S
C707 C703 1.531 . S
C707 H719 0.960 . S
C707 H720 0.962 . S
C707 H721 0.960 . S
C708 C705 1.523 . S
C708 H722 0.961 1_556 S
C708 H723 0.961 . S
C708 H724 0.961 . S
C709 C710 1.370 . S
C709 C711 1.363 . S
C709 H725 0.931 . S
C710 C709 1.370 . S
C710 C714 1.408 . S
C711 C709 1.363 . S
C711 C712 1.370 . S
C711 C715 1.524 1_556 S
C712 C704 1.503 . S
C712 C711 1.370 . S
C712 C713 1.403 . S
C713 C712 1.403 . S
C713 C714 1.404 . S
C713 C716 1.539 . S
C714 C710 1.408 . S
C714 C713 1.404 . S
C714 H726 0.930 . S
C715 C711 1.524 1_554 S
C715 H727 0.956 . S
C715 H728 0.961 . S
C715 H729 0.961 . S
C716 C713 1.539 . S
C716 H730 0.958 . S
C716 H731 0.961 . S
C716 H732 0.960 . S
H717 C701 0.931 . S
H718 C706 0.929 . S
H719 C707 0.960 . S
H720 C707 0.962 . S
H721 C707 0.960 . S
H722 C708 0.961 1_554 S
H723 C708 0.961 . S
H724 C708 0.961 . S
H725 C709 0.931 . S
H726 C714 0.930 . S
H727 C715 0.956 . S
H728 C715 0.961 . S
H729 C715 0.961 . S
H730 C716 0.958 . S
H731 C716 0.961 . S
H732 C716 0.960 . S
C733 C734 1.391 . S
C733 C735 1.394 . S
C733 H749 0.931 1_455 S
C734 C733 1.391 . S
C734 C738 1.376 . S
C735 C733 1.394 . S
C735 C736 1.369 . S
C735 C739 1.531 1_455 S
C736 C735 1.369 . S
C736 C737 1.410 . S
C736 C744 1.503 . S
C737 C736 1.410 . S
C737 C738 1.392 . S
C737 C740 1.511 . S
C738 C734 1.376 . S
C738 C737 1.392 . S
C738 H750 0.929 . S
C739 C735 1.531 1_655 S
C739 H751 0.960 1_655 S
C739 H752 0.962 . S
C739 H753 0.960 . S
C740 C737 1.511 . S
C740 H754 0.961 . S
C740 H755 0.961 . S
C740 H756 0.961 . S
C741 C742 1.370 1_655 S
C741 C743 1.363 . S
C741 H757 0.931 . S
C742 C741 1.370 1_455 S
C742 C746 1.408 . S
C743 C741 1.363 . S
C743 C744 1.370 1_655 S
C743 C747 1.524 . S
C744 C736 1.503 . S
C744 C743 1.370 1_455 S
C744 C745 1.403 . S
C745 C744 1.403 . S
C745 C746 1.404 . S
C745 C748 1.539 . S
C746 C742 1.408 . S
C746 C745 1.404 . S
C746 H758 0.930 . S
C747 C743 1.524 . S
C747 H759 0.956 . S
C747 H760 0.961 . S
C747 H761 0.961 . S
C748 C745 1.539 . S
C748 H762 0.958 . S
C748 H763 0.961 . S
C748 H764 0.960 . S
H749 C733 0.931 1_655 S
H750 C738 0.929 . S
H751 C739 0.960 1_455 S
H752 C739 0.962 . S
H753 C739 0.960 . S
H754 C740 0.961 . S
H755 C740 0.961 . S
H756 C740 0.961 . S
H757 C741 0.931 . S
H758 C746 0.930 . S
H759 C747 0.956 . S
H760 C747 0.961 . S
H761 C747 0.961 . S
H762 C748 0.958 . S
H763 C748 0.961 . S
H764 C748 0.960 . S
C390 C94 1.124 . S
C382 C10 1.608 . S
C414 C17 1.613 . S
C422 C208 1.196 . S
C446 C36 1.382 . S
C454 C268 1.099 . S
C478 C5 1.476 . S
C486 C68 1.147 . S
C518 C182 1.155 . S
C510 C16 1.484 . S
C542 C31 1.528 . S
C550 C278 0.927 . S
C582 C164 0.960 . S
C574 C30 1.532 . S
C606 C3 1.477 . S
C614 C296 1.183 . S
C646 C40 1.100 1_455 S
C638 C18 1.383 . S
C678 C154 1.116 . S
C670 C29 1.388 . S
C710 C322 1.129 . S
C702 C4 1.612 . S
C734 C23 1.516 . S
C742 C50 0.927 . S
