# Generated by pormake.
# Topology pyr, (3,6)-cn, num edge types: 1
# Building blocks:
#     Node 0, Type 0, BuildingBlock: BELTOD_clean_linker_0, # of connection points: 3
#     Node 1, Type 0, BuildingBlock: BELTOD_clean_linker_0, # of connection points: 3
#     Node 2, Type 0, BuildingBlock: BELTOD_clean_linker_0, # of connection points: 3
#     Node 3, Type 0, BuildingBlock: BELTOD_clean_linker_0, # of connection points: 3
#     Node 4, Type 0, BuildingBlock: BELTOD_clean_linker_0, # of connection points: 3
#     Node 5, Type 0, BuildingBlock: BELTOD_clean_linker_0, # of connection points: 3
#     Node 6, Type 0, BuildingBlock: BELTOD_clean_linker_0, # of connection points: 3
#     Node 7, Type 0, BuildingBlock: BELTOD_clean_linker_0, # of connection points: 3
#     Node 8, Type 1, BuildingBlock: JUFBIX_clean_sbu_0, # of connection points: 6
#     Node 9, Type 1, BuildingBlock: JUFBIX_clean_sbu_0, # of connection points: 6
#     Node 10, Type 1, BuildingBlock: JUFBIX_clean_sbu_0, # of connection points: 6
#     Node 11, Type 1, BuildingBlock: JUFBIX_clean_sbu_0, # of connection points: 6
#     Edge 12, Type (0, 1), BuildingBlock: ZUJKAS_clean_linker_0, # of connection points: 2
#     Edge 13, Type (0, 1), BuildingBlock: ZUJKAS_clean_linker_0, # of connection points: 2
#     Edge 14, Type (0, 1), BuildingBlock: ZUJKAS_clean_linker_0, # of connection points: 2
#     Edge 15, Type (0, 1), BuildingBlock: ZUJKAS_clean_linker_0, # of connection points: 2
#     Edge 16, Type (0, 1), BuildingBlock: ZUJKAS_clean_linker_0, # of connection points: 2
#     Edge 17, Type (0, 1), BuildingBlock: ZUJKAS_clean_linker_0, # of connection points: 2
#     Edge 18, Type (0, 1), BuildingBlock: ZUJKAS_clean_linker_0, # of connection points: 2
#     Edge 19, Type (0, 1), BuildingBlock: ZUJKAS_clean_linker_0, # of connection points: 2
#     Edge 20, Type (0, 1), BuildingBlock: ZUJKAS_clean_linker_0, # of connection points: 2
#     Edge 21, Type (0, 1), BuildingBlock: ZUJKAS_clean_linker_0, # of connection points: 2
#     Edge 22, Type (0, 1), BuildingBlock: ZUJKAS_clean_linker_0, # of connection points: 2
#     Edge 23, Type (0, 1), BuildingBlock: ZUJKAS_clean_linker_0, # of connection points: 2
#     Edge 24, Type (0, 1), BuildingBlock: ZUJKAS_clean_linker_0, # of connection points: 2
#     Edge 25, Type (0, 1), BuildingBlock: ZUJKAS_clean_linker_0, # of connection points: 2
#     Edge 26, Type (0, 1), BuildingBlock: ZUJKAS_clean_linker_0, # of connection points: 2
#     Edge 27, Type (0, 1), BuildingBlock: ZUJKAS_clean_linker_0, # of connection points: 2
#     Edge 28, Type (0, 1), BuildingBlock: ZUJKAS_clean_linker_0, # of connection points: 2
#     Edge 29, Type (0, 1), BuildingBlock: ZUJKAS_clean_linker_0, # of connection points: 2
#     Edge 30, Type (0, 1), BuildingBlock: ZUJKAS_clean_linker_0, # of connection points: 2
#     Edge 31, Type (0, 1), BuildingBlock: ZUJKAS_clean_linker_0, # of connection points: 2
#     Edge 32, Type (0, 1), BuildingBlock: ZUJKAS_clean_linker_0, # of connection points: 2
#     Edge 33, Type (0, 1), BuildingBlock: ZUJKAS_clean_linker_0, # of connection points: 2
#     Edge 34, Type (0, 1), BuildingBlock: ZUJKAS_clean_linker_0, # of connection points: 2
#     Edge 35, Type (0, 1), BuildingBlock: ZUJKAS_clean_linker_0, # of connection points: 2
# Relax obj value: 0.039
# Max RMSD: 0.086
# Mean RMSD: 0.038
data_MOF--net-pry--node1-JUFBIX_clean_sbu_0--node2-BELTOD_clean_linker_0--edge1-ZUJKAS_clean_linker_0
_symmetry_space_group_name_H-M    P1
_symmetry_Int_Tables_number       1
_symmetry_cell_setting            triclinic
loop_
_symmetry_equiv_pos_as_xyz
'x, y, z'
_cell_length_a     53.860693
_cell_length_b     51.907877
_cell_length_c     53.40847
_cell_angle_alpha  86.428961
_cell_angle_beta   90.455009
_cell_angle_gamma 91.802341
loop_
_atom_site_label
_atom_site_type_symbol
_atom_site_fract_x
_atom_site_fract_y
_atom_site_fract_z
_atom_type_partial_charge
P0 P 0.19489 0.17876 0.19523 0.0
H1 H 0.24443 0.19483 0.17782 0.0
H2 H 0.27645 0.174 0.15542 0.0
H3 H 0.22724 0.10737 0.14826 0.0
H4 H 0.19541 0.12828 0.17195 0.0
H5 H 0.15267 0.20875 0.20831 0.0
H6 H 0.12858 0.24149 0.18504 0.0
H7 H 0.16828 0.22745 0.11752 0.0
H8 H 0.19212 0.1944 0.14094 0.0
H9 H 0.21023 0.15502 0.24339 0.0
H10 H 0.1443 0.15416 0.19725 0.0
O11 O 0.21093 0.19948 0.21231 0.0
H12 H 0.18803 0.13075 0.27714 0.0
H13 H 0.12189 0.12899 0.23079 0.0
C14 C 0.2176 0.16299 0.17698 0.0
C15 C 0.24046 0.17569 0.17154 0.0
C16 C 0.2588 0.16376 0.15837 0.0
C17 C 0.25469 0.13884 0.14981 0.0
C18 C 0.23139 0.12636 0.15482 0.0
C19 C 0.21304 0.13834 0.16824 0.0
C20 C 0.17395 0.19873 0.17637 0.0
C21 C 0.15579 0.21224 0.18836 0.0
C22 C 0.14222 0.23124 0.17506 0.0
C23 C 0.14658 0.23736 0.14939 0.0
C24 C 0.16423 0.22314 0.13719 0.0
C25 C 0.1779 0.20415 0.1506 0.0
C26 C 0.17889 0.15677 0.2179 0.0
C27 C 0.19101 0.14919 0.24036 0.0
C28 C 0.17823 0.1351 0.25969 0.0
C29 C 0.15294 0.12792 0.257 0.0
C30 C 0.14115 0.13456 0.23388 0.0
C31 C 0.15401 0.1488 0.21452 0.0
P32 P 0.435 0.91422 0.58836 0.0
H33 H 0.47992 0.93023 0.61508 0.0
H34 H 0.48765 0.94066 0.65862 0.0
H35 H 0.40939 0.92875 0.67439 0.0
H36 H 0.40198 0.9178 0.63118 0.0
H37 H 0.4616 0.88176 0.55521 0.0
H38 H 0.46492 0.83497 0.55425 0.0
H39 H 0.41917 0.82443 0.62046 0.0
H40 H 0.41548 0.87115 0.62091 0.0
H41 H 0.40753 0.96148 0.59019 0.0
H42 H 0.39491 0.88552 0.56317 0.0
O43 O 0.45558 0.92963 0.56912 0.0
H44 H 0.3647 0.97215 0.57952 0.0
H45 H 0.35231 0.8962 0.55201 0.0
C46 C 0.44033 0.92379 0.6198 0.0
C47 C 0.46443 0.93016 0.62789 0.0
C48 C 0.4688 0.93616 0.65274 0.0
C49 C 0.44912 0.93558 0.66996 0.0
C50 C 0.42499 0.92913 0.66169 0.0
C51 C 0.42068 0.92315 0.63689 0.0
C52 C 0.43868 0.87991 0.5884 0.0
C53 C 0.45247 0.86938 0.56963 0.0
C54 C 0.45439 0.84263 0.56915 0.0
C55 C 0.44239 0.82597 0.58736 0.0
C56 C 0.42846 0.83669 0.60605 0.0
C57 C 0.42657 0.86342 0.6065 0.0
C58 C 0.40422 0.92255 0.57805 0.0
C59 C 0.3956 0.94719 0.58175 0.0
C60 C 0.37116 0.95332 0.57547 0.0
C61 C 0.35501 0.93493 0.56512 0.0
C62 C 0.36412 0.91061 0.56042 0.0
C63 C 0.38855 0.9045 0.56676 0.0
P64 P 0.69519 0.32817 0.83177 0.0
H65 H 0.72566 0.308 0.87319 0.0
H66 H 0.75841 0.3275 0.89846 0.0
H67 H 0.74512 0.40194 0.86076 0.0
H68 H 0.71208 0.3824 0.83601 0.0
H69 H 0.66873 0.2822 0.81628 0.0
H70 H 0.64086 0.25041 0.83792 0.0
H71 H 0.64509 0.29394 0.90432 0.0
H72 H 0.67343 0.32556 0.88249 0.0
H73 H 0.70853 0.35511 0.78418 0.0
H74 H 0.6463 0.35178 0.83467 0.0
O75 O 0.71266 0.31091 0.81379 0.0
H76 H 0.68615 0.38395 0.75481 0.0
H77 H 0.6238 0.38113 0.80549 0.0
C78 C 0.71622 0.34375 0.85293 0.0
C79 C 0.72947 0.32861 0.87075 0.0
C80 C 0.74837 0.33975 0.88499 0.0
C81 C 0.75454 0.36627 0.88153 0.0
C82 C 0.74069 0.38152 0.86412 0.0
C83 C 0.72177 0.37033 0.84988 0.0
C84 C 0.67358 0.30587 0.84797 0.0
C85 C 0.66367 0.2849 0.8355 0.0
C86 C 0.64753 0.26685 0.84786 0.0
C87 C 0.64078 0.26951 0.87294 0.0
C88 C 0.65022 0.29106 0.88516 0.0
C89 C 0.66638 0.30918 0.8727 0.0
C90 C 0.67887 0.3509 0.81133 0.0
C91 C 0.69005 0.36072 0.78899 0.0
C92 C 0.67729 0.37742 0.7723 0.0
C93 C 0.65309 0.3848 0.7777 0.0
C94 C 0.64224 0.37551 0.80056 0.0
C95 C 0.6551 0.3588 0.8173 0.0
P96 P 0.88745 0.67588 0.39857 0.0
H97 H 0.93323 0.70242 0.38219 0.0
H98 H 0.96603 0.72479 0.4048 0.0
H99 H 0.93261 0.69751 0.47521 0.0
H100 H 0.89969 0.67525 0.45241 0.0
H101 H 0.8622 0.67001 0.35096 0.0
H102 H 0.87341 0.64932 0.31295 0.0
H103 H 0.94229 0.62562 0.34802 0.0
H104 H 0.93091 0.64641 0.38605 0.0
H105 H 0.84564 0.68557 0.43029 0.0
H106 H 0.88527 0.61952 0.40897 0.0
O107 O 0.87169 0.70199 0.38928 0.0
H108 H 0.81527 0.65713 0.45249 0.0
H109 H 0.85505 0.5907 0.43165 0.0
C110 C 0.91419 0.68695 0.41559 0.0
C111 C 0.93339 0.70056 0.4025 0.0
C112 C 0.95222 0.71326 0.41547 0.0
C113 C 0.95192 0.71289 0.44181 0.0
C114 C 0.93326 0.6982 0.45492 0.0
C115 C 0.91447 0.68539 0.44189 0.0
C116 C 0.89603 0.6603 0.37098 0.0
C117 C 0.87976 0.66046 0.35041 0.0
C118 C 0.8861 0.64847 0.32879 0.0
C119 C 0.9088 0.63603 0.32748 0.0
C120 C 0.92486 0.63546 0.34838 0.0
C121 C 0.9184 0.64731 0.37008 0.0
C122 C 0.86727 0.65461 0.41749 0.0
C123 C 0.84794 0.6649 0.43066 0.0
C124 C 0.83073 0.64857 0.4436 0.0
C125 C 0.83265 0.62158 0.44377 0.0
C126 C 0.85287 0.61137 0.43158 0.0
C127 C 0.87014 0.62781 0.41864 0.0
P128 P 0.84417 0.85985 0.87601 0.0
H129 H 0.81757 0.85705 0.9233 0.0
H130 H 0.77623 0.86944 0.93531 0.0
H131 H 0.75851 0.88836 0.85741 0.0
H132 H 0.80027 0.87619 0.8456 0.0
H133 H 0.89073 0.83482 0.86836 0.0
H134 H 0.90676 0.79299 0.88276 0.0
H135 H 0.835 0.77049 0.91403 0.0
H136 H 0.81916 0.81258 0.89969 0.0
H137 H 0.86258 0.9101 0.85506 0.0
H138 H 0.84493 0.83544 0.82737 0.0
O139 O 0.86111 0.87737 0.89542 0.0
H140 H 0.87875 0.92523 0.81399 0.0
H141 H 0.86119 0.8505 0.78596 0.0
C142 C 0.81206 0.86549 0.88354 0.0
C143 C 0.80466 0.86347 0.90873 0.0
C144 C 0.78089 0.87054 0.91558 0.0
C145 C 0.76383 0.87999 0.89738 0.0
C146 C 0.77116 0.88148 0.872 0.0
C147 C 0.79502 0.87429 0.86516 0.0
C148 C 0.85368 0.82691 0.88272 0.0
C149 C 0.87827 0.8207 0.87786 0.0
C150 C 0.88743 0.79667 0.88614 0.0
C151 C 0.87226 0.77823 0.89971 0.0
C152 C 0.84736 0.78428 0.90397 0.0
C153 C 0.83819 0.80837 0.89558 0.0
C154 C 0.85292 0.87148 0.84447 0.0
C155 C 0.86206 0.89695 0.84009 0.0
C156 C 0.87146 0.90556 0.81657 0.0
C157 C 0.87168 0.88899 0.79671 0.0
C158 C 0.86134 0.8638 0.80081 0.0
C159 C 0.85207 0.85512 0.82449 0.0
P160 P 0.65633 0.21123 0.35366 0.0
H161 H 0.67245 0.23479 0.39933 0.0
H162 H 0.65135 0.2619 0.42773 0.0
H163 H 0.58265 0.25025 0.38701 0.0
H164 H 0.60373 0.2227 0.35911 0.0
H165 H 0.70624 0.20261 0.33614 0.0
H166 H 0.74015 0.17687 0.35335 0.0
H167 H 0.69428 0.15092 0.41666 0.0
H168 H 0.66068 0.17756 0.39961 0.0
H169 H 0.63057 0.22145 0.30614 0.0
H170 H 0.6369 0.15772 0.36138 0.0
O171 O 0.66877 0.2349 0.33472 0.0
H172 H 0.60529 0.19422 0.27965 0.0
H173 H 0.612 0.13011 0.33466 0.0
C174 C 0.63959 0.22638 0.37739 0.0
C175 C 0.65269 0.23745 0.39699 0.0
C176 C 0.64065 0.25313 0.41306 0.0
C177 C 0.61535 0.25833 0.40954 0.0
C178 C 0.60206 0.24633 0.39046 0.0
C179 C 0.61413 0.23061 0.37442 0.0
C180 C 0.68117 0.19233 0.36685 0.0
C181 C 0.70356 0.19157 0.35384 0.0
C182 C 0.72286 0.17661 0.3636 0.0
C183 C 0.71997 0.16181 0.38642 0.0
C184 C 0.69729 0.16242 0.39927 0.0
C185 C 0.67803 0.17754 0.38951 0.0
C186 C 0.63621 0.19138 0.33535 0.0
C187 C 0.62658 0.20156 0.31254 0.0
C188 C 0.61215 0.18596 0.2974 0.0
C189 C 0.607 0.15989 0.30488 0.0
C190 C 0.61563 0.15011 0.3284 0.0
C191 C 0.63007 0.16581 0.34357 0.0
P192 P 0.35684 0.63555 0.16516 0.0
H193 H 0.33659 0.61143 0.12135 0.0
H194 H 0.29441 0.60172 0.10725 0.0
H195 H 0.26546 0.63676 0.17186 0.0
H196 H 0.30808 0.64586 0.1862 0.0
H197 H 0.38751 0.65575 0.12318 0.0
H198 H 0.40102 0.69929 0.1084 0.0
H199 H 0.35922 0.73064 0.1675 0.0
H200 H 0.34561 0.68669 0.18223 0.0
H201 H 0.33846 0.594 0.19989 0.0
H202 H 0.38549 0.66249 0.20354 0.0
O203 O 0.37531 0.61507 0.15197 0.0
H204 H 0.3483 0.58183 0.24385 0.0
H205 H 0.39479 0.65077 0.24754 0.0
C206 C 0.32544 0.62889 0.15506 0.0
C207 C 0.32119 0.61692 0.13258 0.0
C208 C 0.29699 0.61161 0.12439 0.0
C209 C 0.27644 0.61846 0.13839 0.0
C210 C 0.28081 0.63089 0.1608 0.0
C211 C 0.30514 0.63619 0.16898 0.0
C212 C 0.36602 0.66796 0.15416 0.0
C213 C 0.38124 0.67193 0.13303 0.0
C214 C 0.38882 0.69688 0.12446 0.0
C215 C 0.38129 0.7184 0.13686 0.0
C216 C 0.36559 0.7144 0.15777 0.0
C217 C 0.35777 0.68936 0.16617 0.0
C218 C 0.36061 0.62954 0.19858 0.0
C219 C 0.35033 0.60678 0.21031 0.0
C220 C 0.3561 0.59975 0.23534 0.0
C221 C 0.37219 0.61544 0.24911 0.0
C222 C 0.38201 0.63854 0.23749 0.0
C223 C 0.37656 0.64533 0.21233 0.0
P224 P 0.12723 0.34034 0.6365 0.0
H225 H 0.13172 0.29781 0.6044 0.0
H226 H 0.10138 0.27179 0.58254 0.0
H227 H 0.0433 0.32199 0.60326 0.0
H228 H 0.07405 0.34756 0.62602 0.0
H229 H 0.16809 0.37319 0.6514 0.0
H230 H 0.19408 0.40587 0.62888 0.0
H231 H 0.14863 0.39837 0.56243 0.0
H232 H 0.12295 0.36497 0.58517 0.0
H233 H 0.1128 0.31368 0.68384 0.0
H234 H 0.10907 0.39071 0.64907 0.0
O235 O 0.1483 0.31899 0.64628 0.0
H236 H 0.0963 0.3287 0.7227 0.0
H237 H 0.09316 0.40605 0.68801 0.0
C238 C 0.10498 0.32412 0.61732 0.0
C239 C 0.11249 0.30336 0.60406 0.0
C240 C 0.09507 0.28866 0.59127 0.0
C241 C 0.06975 0.29467 0.59117 0.0
C242 C 0.06254 0.31656 0.60329 0.0
C243 C 0.08009 0.33122 0.61625 0.0
C244 C 0.14381 0.36657 0.6199 0.0
C245 C 0.16354 0.37882 0.63207 0.0
C246 C 0.17823 0.39773 0.61919 0.0
C247 C 0.17342 0.40489 0.5938 0.0
C248 C 0.15297 0.39316 0.58189 0.0
C249 C 0.13824 0.37411 0.59487 0.0
C250 C 0.11271 0.35123 0.66389 0.0
C251 C 0.10838 0.33383 0.68459 0.0
C252 C 0.09904 0.34245 0.70679 0.0
C253 C 0.09376 0.36864 0.70854 0.0
C254 C 0.09695 0.38575 0.68725 0.0
C255 C 0.10626 0.37707 0.66504 0.0
Co256 Co 0.99077 1.00221 0.51366 0.0
C257 C 0.01583 0.9559 0.5115 0.0
Co258 Co 0.02747 1.00159 0.53218 0.0
C259 C 0.94627 0.01988 0.48779 0.0
C260 C 0.94439 0.97953 0.49888 0.0
N261 N 0.9597 1.00061 0.49861 0.0
N262 N 0.9231 0.01166 0.48164 0.0
C263 C 0.92194 0.98623 0.48847 0.0
H264 H 0.95291 0.03979 0.48565 0.0
H265 H 0.94889 0.96064 0.50705 0.0
C266 C 1.00273 0.04799 0.53427 0.0
N267 N 0.05813 0.0029 0.54785 0.0
C268 C 0.08011 0.99495 0.53975 0.0
C269 C 0.06318 0.01268 0.57019 0.0
N270 N 0.09874 0.99948 0.55614 0.0
C271 C 0.0881 0.01063 0.57533 0.0
C272 C 0.02905 0.01913 0.4814 0.0
O273 O 0.98541 0.03643 0.52273 0.0
O274 O 0.02245 0.03612 0.53992 0.0
O275 O 0.04224 0.01387 0.50086 0.0
O276 O 1.00555 0.01564 0.48277 0.0
O277 O 0.03244 0.96703 0.52432 0.0
H278 H 0.04959 0.0208 0.58198 0.0
H279 H 0.08242 0.98636 0.522 0.0
O280 O 0.99657 0.96809 0.50475 0.0
O281 O 0.97613 0.9888 0.54458 0.0
O282 O 0.01237 0.98927 0.56334 0.0
C283 C 0.98906 0.98461 0.56435 0.0
H284 H 0.90583 0.97349 0.4866 0.0
H285 H 0.09755 0.01655 0.59208 0.0
Co286 Co 0.49071 0.99957 0.99709 0.0
C287 C 0.48654 0.96028 0.03515 0.0
Co288 Co 0.51258 0.00692 0.03106 0.0
C289 C 0.47875 0.9931 0.94506 0.0
C290 C 0.4476 0.98452 0.96913 0.0
N291 N 0.47161 0.99267 0.96925 0.0
N292 N 0.4602 0.98531 0.92985 0.0
C293 C 0.44054 0.97997 0.94497 0.0
H294 H 0.49746 0.99818 0.93889 0.0
H295 H 0.43611 0.98157 0.98565 0.0
C296 C 0.51674 0.04626 0.993 0.0
N297 N 0.53187 0.01376 0.05877 0.0
C298 C 0.52495 0.01514 0.08289 0.0
C299 C 0.55629 0.02023 0.05848 0.0
N300 N 0.54412 0.02235 0.09766 0.0
C301 C 0.56386 0.02548 0.08227 0.0
C302 C 0.53874 0.98126 0.99527 0.0
O303 O 0.50148 0.03196 0.98145 0.0
O304 O 0.52395 0.0388 0.01491 0.0
O305 O 0.53988 0.98983 0.01706 0.0
O306 O 0.51858 0.98343 0.98287 0.0
O307 O 0.50104 0.97501 0.0471 0.0
H308 H 0.56771 0.02191 0.04185 0.0
H309 H 0.50611 0.01141 0.08931 0.0
O310 O 0.48011 0.96727 0.01286 0.0
O311 O 0.46298 0.01573 0.01155 0.0
O312 O 0.48513 0.02396 0.04481 0.0
C313 C 0.4646 0.02522 0.03293 0.0
H314 H 0.42237 0.97312 0.93906 0.0
H315 H 0.58225 0.03235 0.08748 0.0
Co316 Co 0.51814 0.53146 0.52239 0.0
C317 C 0.47867 0.53458 0.48818 0.0
Co318 Co 0.48337 0.51234 0.53624 0.0
C319 C 0.57025 0.54191 0.51188 0.0
C320 C 0.54709 0.57273 0.49864 0.0
N321 N 0.54637 0.54903 0.51049 0.0
N322 N 0.58587 0.56036 0.50148 0.0
C323 C 0.57129 0.57974 0.49308 0.0
H324 H 0.57606 0.52373 0.52073 0.0
H325 H 0.531 0.58421 0.49435 0.0
C326 C 0.52298 0.50907 0.57034 0.0
N327 N 0.45505 0.49482 0.54806 0.0
C328 C 0.43107 0.5007 0.54395 0.0
C329 C 0.45424 0.47226 0.56201 0.0
N330 N 0.41531 0.48267 0.55482 0.0
C331 C 0.42987 0.46478 0.56624 0.0
C332 C 0.51473 0.48067 0.51125 0.0
O333 O 0.53474 0.52209 0.55305 0.0
O334 O 0.50023 0.503 0.56687 0.0
O335 O 0.49405 0.48153 0.52244 0.0
O336 O 0.52858 0.50092 0.50892 0.0
O337 O 0.4668 0.52186 0.50556 0.0
H338 H 0.47034 0.46162 0.56823 0.0
H339 H 0.4253 0.51779 0.53308 0.0
O340 O 0.50142 0.54063 0.49166 0.0
O341 O 0.50755 0.56193 0.53607 0.0
O342 O 0.47285 0.54321 0.5499 0.0
C343 C 0.48704 0.56322 0.54739 0.0
H344 H 0.57761 0.59762 0.48331 0.0
H345 H 0.42341 0.44708 0.57622 0.0
Co346 Co 0.017 0.50301 1.00116 0.0
C347 C 0.97018 0.47981 0.99876 0.0
Co348 Co 0.99653 0.50374 0.03656 0.0
C349 C 0.03493 0.48533 0.95472 0.0
C350 C 0.04854 0.52349 0.96139 0.0
N351 N 0.03439 0.50368 0.97148 0.0
N352 N 0.04876 0.49294 0.93444 0.0
C353 C 0.05741 0.51695 0.93866 0.0
H354 H 0.02477 0.46703 0.95709 0.0
H355 H 0.0519 0.54167 0.96987 0.0
C356 C 0.04334 0.52699 0.03896 0.0
N357 N 0.97906 0.50308 0.06614 0.0
C358 C 0.97781 0.52173 0.08252 0.0
C359 C 0.96481 0.48328 0.07613 0.0
N360 N 0.96328 0.51437 0.10233 0.0
C361 C 0.95502 0.49019 0.09834 0.0
C362 C 0.02577 0.46023 0.03356 0.0
O363 O 0.04399 0.52091 0.01631 0.0
O364 O 0.02391 0.5213 0.05175 0.0
O365 O 0.01057 0.47136 0.04712 0.0
O366 O 0.03135 0.47075 0.01209 0.0
O367 O 0.96934 0.48624 0.02128 0.0
H368 H 0.96191 0.4649 0.06789 0.0
H369 H 0.98725 0.54041 0.07985 0.0
O370 O 0.98981 0.48508 0.98617 0.0
O371 O 1.00263 0.53516 0.99042 0.0
O372 O 0.98251 0.53619 0.02579 0.0
C373 C 0.98773 0.54648 1.00413 0.0
H374 H 0.06933 0.52899 0.92627 0.0
H375 H 0.94321 0.47814 0.11085 0.0
H376 H 0.10426 0.13393 0.27079 0.0
H377 H 0.08245 0.11426 0.3076 0.0
H378 H 0.14791 0.07285 0.32976 0.0
H379 H 0.16965 0.09161 0.29264 0.0
H380 H 0.07631 0.0568 0.32457 0.0
H381 H 0.12836 0.11711 0.39105 0.0
H382 H 0.12562 0.12647 0.35801 0.0
H383 H 0.14631 0.10154 0.36841 0.0
C384 C 0.11397 0.12028 0.28316 0.0
C385 C 0.13892 0.11461 0.2786 0.0
C386 C 0.10146 0.10917 0.30435 0.0
C387 C 0.11362 0.09233 0.32162 0.0
C388 C 0.13824 0.08609 0.31689 0.0
H389 H 0.0786 0.02137 0.46978 0.0
H390 H 0.09822 0.03818 0.43071 0.0
C391 C 0.1507 0.09699 0.29564 0.0
C392 C 0.10081 0.08163 0.34485 0.0
H393 H 0.10077 0.08492 0.4086 0.0
C394 C 0.08156 0.06298 0.34296 0.0
C395 C 0.10778 0.08958 0.36884 0.0
C396 C 0.12803 0.1099 0.3719 0.0
C397 C 0.06944 0.05167 0.36443 0.0
C398 C 0.07621 0.05981 0.38852 0.0
C399 C 0.09546 0.07859 0.39028 0.0
C400 C 0.06389 0.049 0.41213 0.0
C401 C 0.05007 0.03051 0.36108 0.0
C402 C 0.03797 0.04956 0.41506 0.0
C403 C 0.02663 0.03964 0.43736 0.0
C404 C 0.04097 0.02932 0.45751 0.0
C405 C 0.06694 0.02912 0.4547 0.0
C406 C 0.07821 0.03878 0.43231 0.0
H407 H 0.05259 0.02115 0.34315 0.0
H408 H 0.05067 0.01544 0.37675 0.0
H409 H 0.03138 0.03892 0.36059 0.0
H410 H 0.02645 0.058 0.40021 0.0
H411 H 0.00664 0.04039 0.43893 0.0
H412 H 0.47936 0.97362 0.68832 0.0
H413 H 0.48619 0.983 0.73232 0.0
H414 H 0.4354 0.9203 0.75548 0.0
H415 H 0.42912 0.91027 0.71181 0.0
H416 H 0.45111 0.99663 0.7665 0.0
H417 H 0.49564 0.90608 0.80015 0.0
H418 H 0.49244 0.9157 0.76723 0.0
H419 H 0.46671 0.90038 0.78424 0.0
C420 C 0.46995 0.96159 0.70283 0.0
C421 C 0.4537 0.94119 0.69657 0.0
C422 C 0.47377 0.96706 0.72792 0.0
C423 C 0.46159 0.9521 0.74716 0.0
C424 C 0.44537 0.93176 0.74096 0.0
H425 H 0.43327 0.95102 0.90376 0.0
H426 H 0.43563 0.94473 0.85893 0.0
C427 C 0.44155 0.92628 0.71595 0.0
C428 C 0.46482 0.95833 0.77369 0.0
H429 H 0.47957 0.93175 0.83176 0.0
C430 C 0.45769 0.98262 0.78075 0.0
C431 C 0.47349 0.94002 0.79219 0.0
C432 C 0.48275 0.91418 0.78556 0.0
C433 C 0.45786 0.98863 0.80603 0.0
C434 C 0.46561 0.96992 0.82458 0.0
C435 C 0.47351 0.94597 0.81745 0.0
C436 C 0.46433 0.97426 0.85164 0.0
C437 C 0.4488 0.01448 0.81284 0.0
C438 C 0.47981 0.99287 0.86236 0.0
C439 C 0.47844 0.99659 0.88803 0.0
C440 C 0.46154 0.98176 0.90336 0.0
C441 C 0.44617 0.96307 0.89246 0.0
C442 C 0.44762 0.9593 0.86688 0.0
H443 H 0.43958 0.02501 0.79676 0.0
H444 H 0.43552 0.01201 0.82868 0.0
H445 H 0.46481 0.02656 0.81896 0.0
H446 H 0.49302 0.00441 0.85091 0.0
H447 H 0.49042 0.01123 0.89582 0.0
H448 H 0.60396 0.37995 0.76436 0.0
H449 H 0.58191 0.40473 0.73114 0.0
H450 H 0.64825 0.45128 0.71521 0.0
H451 H 0.67039 0.42688 0.7486 0.0
H452 H 0.5744 0.4597 0.72294 0.0
H453 H 0.62976 0.41995 0.64767 0.0
H454 H 0.62903 0.40564 0.67935 0.0
H455 H 0.64748 0.43451 0.67201 0.0
C456 C 0.61378 0.39574 0.7541 0.0
C457 C 0.63904 0.40126 0.75902 0.0
C458 C 0.60116 0.40979 0.73503 0.0
C459 C 0.61357 0.42953 0.72046 0.0
C460 C 0.63848 0.43577 0.72593 0.0
H461 H 0.57117 0.5193 0.58433 0.0
H462 H 0.59287 0.50214 0.6219 0.0
C463 C 0.6511 0.42177 0.74499 0.0
C464 C 0.60069 0.44301 0.69902 0.0
H465 H 0.601 0.45162 0.63512 0.0
C466 C 0.58019 0.45798 0.70372 0.0
C467 C 0.60834 0.44074 0.674 0.0
C468 C 0.62973 0.42419 0.6678 0.0
C469 C 0.56724 0.47098 0.68403 0.0
C470 C 0.5747 0.46844 0.65896 0.0
C471 C 0.59534 0.45362 0.65433 0.0
C472 C 0.56098 0.48029 0.63714 0.0
C473 C 0.54596 0.48761 0.6903 0.0
C474 C 0.53584 0.47371 0.63318 0.0
C475 C 0.52336 0.48357 0.61179 0.0
C476 C 0.53584 0.50002 0.59376 0.0
C477 C 0.56098 0.50675 0.59786 0.0
C478 C 0.57343 0.49694 0.61931 0.0
H479 H 0.54743 0.49375 0.70984 0.0
H480 H 0.54519 0.5051 0.67727 0.0
H481 H 0.52823 0.47636 0.68862 0.0
H482 H 0.526 0.4604 0.64631 0.0
H483 H 0.50405 0.47782 0.60915 0.0
H484 H 0.87959 0.60529 0.29898 0.0
H485 H 0.89064 0.58622 0.25998 0.0
H486 H 0.96435 0.62073 0.26431 0.0
H487 H 0.95347 0.63967 0.30347 0.0
H488 H 0.90586 0.61102 0.2154 0.0
H489 H 0.97845 0.54564 0.25392 0.0
H490 H 0.95716 0.56108 0.2737 0.0
H491 H 0.98356 0.57892 0.26044 0.0
C492 C 0.89815 0.60878 0.29161 0.0
C493 C 0.91571 0.62387 0.30428 0.0
C494 C 0.90445 0.59785 0.2694 0.0
C495 C 0.92839 0.6018 0.25946 0.0
C496 C 0.94594 0.61696 0.27198 0.0
H497 H 0.99361 0.54996 0.123 0.0
H498 H 0.98537 0.57337 0.16038 0.0
C499 C 0.93971 0.62778 0.29431 0.0
C500 C 0.93468 0.59054 0.23563 0.0
H501 H 0.97321 0.54862 0.20977 0.0
C502 C 0.92057 0.59737 0.21416 0.0
C503 C 0.95394 0.57281 0.23411 0.0
C504 C 0.96903 0.56396 0.2568 0.0
C505 C 0.92519 0.58687 0.19115 0.0
C506 C 0.94425 0.56897 0.18972 0.0
C507 C 0.95866 0.56246 0.21103 0.0
C508 C 0.94879 0.55583 0.16654 0.0
C509 C 0.90973 0.59503 0.16852 0.0
C510 C 0.93096 0.53825 0.15782 0.0
C511 C 0.93561 0.52487 0.13658 0.0
C512 C 0.95819 0.52888 0.12369 0.0
C513 C 0.97593 0.54673 0.13236 0.0
C514 C 0.97133 0.55998 0.15374 0.0
H515 H 0.89993 0.61316 0.17123 0.0
H516 H 0.92147 0.59788 0.15151 0.0
H517 H 0.89555 0.57963 0.16517 0.0
H518 H 0.91357 0.53459 0.16768 0.0
H519 H 0.92153 0.51141 0.1302 0.0
H520 H 0.26605 0.08713 0.15142 0.0
H521 H 0.30006 0.06709 0.13059 0.0
H522 H 0.32413 0.1415 0.09756 0.0
H523 H 0.28931 0.1614 0.11684 0.0
H524 H 0.32804 0.10731 0.0644 0.0
H525 H 0.37096 0.0671 0.15227 0.0
H526 H 0.33964 0.0553 0.14823 0.0
H527 H 0.34574 0.08912 0.15223 0.0
C528 C 0.27831 0.09926 0.13945 0.0
C529 C 0.27487 0.12609 0.13622 0.0
C530 C 0.29812 0.08777 0.12783 0.0
C531 C 0.31529 0.10279 0.11299 0.0
C532 C 0.31145 0.1294 0.10913 0.0
H533 H 0.46346 0.05487 0.0737 0.0
H534 H 0.42736 0.0739 0.09211 0.0
C535 C 0.29155 0.14085 0.12047 0.0
C536 C 0.33711 0.09099 0.10127 0.0
H537 H 0.3877 0.054 0.11424 0.0
C538 C 0.34109 0.0957 0.07537 0.0
C539 C 0.35456 0.07617 0.11548 0.0
C540 C 0.35271 0.07183 0.14362 0.0
C541 C 0.36173 0.086 0.06334 0.0
C542 C 0.37862 0.07031 0.07738 0.0
C543 C 0.37473 0.06574 0.10331 0.0
C544 C 0.40069 0.05889 0.06572 0.0
C545 C 0.36554 0.09346 0.03585 0.0
C546 C 0.39798 0.04382 0.04481 0.0
C547 C 0.41871 0.03327 0.03397 0.0
C548 C 0.44267 0.03701 0.04409 0.0
C549 C 0.44533 0.05165 0.06532 0.0
C550 C 0.42463 0.06251 0.07593 0.0
H551 H 0.35609 0.11163 0.03007 0.0
H552 H 0.38557 0.09608 0.0313 0.0
H553 H 0.35745 0.078 0.02456 0.0
H554 H 0.37975 0.03992 0.03697 0.0
H555 H 0.41588 0.0218 0.01787 0.0
H556 H 0.33546 0.97993 0.54521 0.0
H557 H 0.2915 0.99029 0.54103 0.0
H558 H 0.27067 0.9132 0.56965 0.0
H559 H 0.31446 0.90292 0.57465 0.0
H560 H 0.25153 0.96653 0.51438 0.0
H561 H 0.23697 0.96061 0.6175 0.0
H562 H 0.2675 0.96236 0.60368 0.0
H563 H 0.2498 0.93238 0.60545 0.0
C564 C 0.32152 0.96521 0.55067 0.0
C565 C 0.32847 0.94067 0.56045 0.0
C566 C 0.29644 0.97109 0.54809 0.0
C567 C 0.27792 0.9526 0.55535 0.0
C568 C 0.28474 0.92783 0.56426 0.0
H569 H 0.11801 0.96107 0.53082 0.0
H570 H 0.16177 0.94994 0.52892 0.0
C571 C 0.30977 0.92192 0.56686 0.0
C572 C 0.25148 0.95954 0.55454 0.0
H573 H 0.20136 0.96656 0.59189 0.0
C574 C 0.24051 0.96655 0.53128 0.0
C575 C 0.23732 0.95983 0.57669 0.0
C576 C 0.24849 0.95362 0.60229 0.0
C577 C 0.21556 0.97364 0.52959 0.0
C578 C 0.20128 0.9734 0.55171 0.0
C579 C 0.21234 0.96656 0.57495 0.0
C580 C 0.17497 0.98086 0.55144 0.0
C581 C 0.20485 0.98184 0.50425 0.0
C582 C 0.16789 1.00175 0.56491 0.0
C583 C 0.14296 0.00807 0.56609 0.0
C584 C 0.12456 0.99356 0.55391 0.0
C585 C 0.13175 0.97283 0.54012 0.0
C586 C 0.15674 0.96647 0.53899 0.0
H587 H 0.21963 0.98684 0.49022 0.0
H588 H 0.19321 0.96572 0.49735 0.0
H589 H 0.19291 0.99875 0.50555 0.0
H590 H 0.18169 0.0131 0.57464 0.0
H591 H 0.13812 0.02437 0.57655 0.0
H592 H 0.79999 0.34538 0.89057 0.0
H593 H 0.83589 0.36443 0.91161 0.0
H594 H 0.79439 0.43222 0.92361 0.0
H595 H 0.75823 0.41322 0.90262 0.0
H596 H 0.84144 0.44382 0.90476 0.0
H597 H 0.84614 0.37274 0.98644 0.0
H598 H 0.84599 0.35828 0.95678 0.0
H599 H 0.81924 0.37511 0.96614 0.0
C600 C 0.79831 0.36416 0.89805 0.0
C601 C 0.77612 0.37767 0.89507 0.0
C602 C 0.81889 0.37503 0.91007 0.0
C603 C 0.81772 0.39958 0.91954 0.0
C604 C 0.79567 0.41321 0.91652 0.0
H605 H 0.92508 0.46778 0.02028 0.0
H606 H 0.88822 0.44878 1.00078 0.0
C607 C 0.77505 0.40235 0.90445 0.0
C608 C 0.83977 0.41132 0.93185 0.0
H609 H 0.88093 0.40182 0.9803 0.0
C610 C 0.85002 0.43471 0.92134 0.0
C611 C 0.85078 0.39956 0.95365 0.0
C612 C 0.83986 0.37517 0.96659 0.0
C613 C 0.87126 0.44641 0.93177 0.0
C614 C 0.8828 0.43415 0.95303 0.0
C615 C 0.87226 0.41102 0.96382 0.0
C616 C 0.90546 0.44533 0.96475 0.0
C617 C 0.88088 0.47201 0.92017 0.0
C618 C 0.92759 0.4493 0.9511 0.0
C619 C 0.94874 0.46024 0.96218 0.0
C620 C 0.9482 0.46723 0.9872 0.0
C621 C 0.92615 0.46269 1.00096 0.0
C622 C 0.90504 0.45181 0.98985 0.0
H623 H 0.86648 0.48193 0.90846 0.0
H624 H 0.88731 0.48499 0.93483 0.0
H625 H 0.89687 0.46871 0.90793 0.0
H626 H 0.92851 0.44392 0.93187 0.0
H627 H 0.96544 0.46333 0.9511 0.0
H628 H 0.81173 0.57829 0.42441 0.0
H629 H 0.77295 0.55585 0.43746 0.0
H630 H 0.76782 0.60466 0.49954 0.0
H631 H 0.80713 0.62645 0.48731 0.0
H632 H 0.74887 0.55341 0.51033 0.0
H633 H 0.71148 0.59871 0.42106 0.0
H634 H 0.73681 0.57744 0.41809 0.0
H635 H 0.74182 0.60726 0.43302 0.0
C636 C 0.80284 0.58366 0.44136 0.0
C637 C 0.81226 0.60453 0.45455 0.0
C638 C 0.78056 0.57094 0.44866 0.0
C639 C 0.76727 0.57904 0.46908 0.0
C640 C 0.77772 0.59826 0.48359 0.0
H641 H 0.61805 0.60136 0.49992 0.0
H642 H 0.66271 0.60112 0.49295 0.0
C643 C 0.80006 0.61086 0.47642 0.0
C644 C 0.74114 0.57035 0.47337 0.0
H645 H 0.68301 0.57727 0.44846 0.0
C646 C 0.73445 0.55817 0.49668 0.0
C647 C 0.7224 0.57692 0.45556 0.0
C648 C 0.72833 0.59097 0.4306 0.0
C649 C 0.70938 0.55314 0.50292 0.0
C650 C 0.69076 0.56045 0.48538 0.0
C651 C 0.69748 0.57164 0.46176 0.0
C652 C 0.66417 0.55961 0.49196 0.0
C653 C 0.70281 0.54132 0.52861 0.0
C654 C 0.65031 0.53626 0.49397 0.0
C655 C 0.62461 0.53635 0.4978 0.0
C656 C 0.61249 0.55982 0.49948 0.0
C657 C 0.6267 0.58303 0.4982 0.0
C658 C 0.65225 0.58292 0.49441 0.0
H659 H 0.71949 0.53816 0.54065 0.0
H660 H 0.6901 0.55402 0.53806 0.0
H661 H 0.69287 0.52247 0.52675 0.0
H662 H 0.65922 0.51811 0.49185 0.0
H663 H 0.61414 0.51818 0.49853 0.0
H664 H 0.13734 0.28481 0.16649 0.0
H665 H 0.11647 0.32092 0.14465 0.0
H666 H 0.1064 0.2766 0.07954 0.0
H667 H 0.12697 0.24008 0.10145 0.0
H668 H 0.12999 0.34826 0.09866 0.0
H669 H 0.03578 0.30192 0.09351 0.0
H670 H 0.05961 0.28955 0.11455 0.0
H671 H 0.06072 0.28395 0.08175 0.0
C672 C 0.13042 0.28253 0.14763 0.0
C673 C 0.13368 0.25934 0.13586 0.0
C674 C 0.11864 0.30333 0.13509 0.0
C675 C 0.10959 0.30145 0.11053 0.0
C676 C 0.1129 0.27842 0.0986 0.0
H677 H 0.06278 0.43379 0.01211 0.0
H678 H 0.08314 0.39491 0.02938 0.0
C679 C 0.12486 0.25761 0.1111 0.0
C680 C 0.09705 0.32381 0.09746 0.0
H681 H 0.04117 0.34361 0.07354 0.0
C682 C 0.11061 0.3472 0.09305 0.0
C683 C 0.07167 0.32254 0.09036 0.0
C684 C 0.05594 0.29825 0.0954 0.0
C685 C 0.09953 0.36928 0.08175 0.0
C686 C 0.0742 0.36797 0.07446 0.0
C687 C 0.06063 0.34458 0.07891 0.0
C688 C 0.06123 0.39099 0.06326 0.0
C689 C 0.11484 0.39407 0.07832 0.0
C690 C 0.04169 0.40142 0.0762 0.0
C691 C 0.03001 0.42363 0.06639 0.0
C692 C 0.03743 0.43586 0.04324 0.0
C693 C 0.05661 0.42498 0.03 0.0
C694 C 0.06838 0.4028 0.03992 0.0
H695 H 0.1323 0.39336 0.08953 0.0
H696 H 0.11986 0.39749 0.05826 0.0
H697 H 0.10409 0.41073 0.08378 0.0
H698 H 0.03577 0.39263 0.09419 0.0
H699 H 0.01529 0.43136 0.0771 0.0
H700 H 0.59973 0.24389 0.85489 0.0
H701 H 0.57563 0.20815 0.87575 0.0
H702 H 0.62119 0.21354 0.94206 0.0
H703 H 0.64558 0.2491 0.92127 0.0
H704 H 0.59476 0.16103 0.89386 0.0
H705 H 0.55043 0.21042 0.9703 0.0
H706 H 0.5641 0.22781 0.94321 0.0
H707 H 0.58352 0.21556 0.96847 0.0
C708 C 0.6046 0.23755 0.87395 0.0
C709 C 0.62467 0.24936 0.88637 0.0
C710 C 0.59071 0.21719 0.88588 0.0
C711 C 0.59643 0.20835 0.91054 0.0
C712 C 0.6161 0.2204 0.92321 0.0
H713 H 0.55124 0.07971 0.0119 0.0
H714 H 0.56928 0.11919 0.99127 0.0
C715 C 0.63004 0.24076 0.91128 0.0
C716 C 0.58293 0.1854 0.92237 0.0
H717 H 0.54772 0.16447 0.97299 0.0
C718 C 0.58427 0.16181 0.91104 0.0
C719 C 0.56937 0.18646 0.94484 0.0
C720 C 0.56652 0.21146 0.95735 0.0
C721 C 0.573 0.13907 0.9219 0.0
C722 C 0.55956 0.14007 0.94447 0.0
C723 C 0.558 0.16374 0.95568 0.0
C724 C 0.54768 0.11659 0.95714 0.0
C725 C 0.57633 0.11404 0.90955 0.0
C726 C 0.52918 0.10221 0.945 0.0
C727 C 0.51888 0.07951 0.95671 0.0
C728 C 0.52673 0.07088 0.9809 0.0
C729 C 0.54478 0.08573 0.99325 0.0
C730 C 0.55511 0.10835 0.9815 0.0
H731 H 0.5921 0.11542 0.8962 0.0
H732 H 0.57959 0.09795 0.92377 0.0
H733 H 0.55921 0.10923 0.8989 0.0
H734 H 0.52279 0.10849 0.9264 0.0
H735 H 0.5049 0.06864 0.94673 0.0
H736 H 0.9395 0.74428 0.47829 0.0
H737 H 0.96407 0.7803 0.4934 0.0
H738 H 0.02666 0.75895 0.45015 0.0
H739 H 1.00187 0.72277 0.43454 0.0
H740 H 0.00875 0.78902 0.51761 0.0
H741 H 0.01074 0.82976 0.41849 0.0
H742 H 0.992 0.80154 0.42798 0.0
H743 H 0.02504 0.79925 0.42494 0.0
C744 C 0.95873 0.74668 0.47256 0.0
C745 C 0.96867 0.73086 0.45499 0.0
C746 C 0.97276 0.76737 0.48119 0.0
C747 C 0.99701 0.77261 0.47248 0.0
C748 C 0.00778 0.75555 0.45665 0.0
H749 H 0.05391 0.9232 0.52345 0.0
H750 H 0.05628 0.87766 0.51391 0.0
C751 C 0.99364 0.7349 0.4478 0.0
C752 C 0.00928 0.79767 0.47769 0.0
H753 H 0.02223 0.85738 0.44958 0.0
C754 C 0.01233 0.80387 0.50277 0.0
C755 C 0.01377 0.81698 0.45819 0.0
C756 C 0.01012 0.81175 0.43088 0.0
C757 C 0.01797 0.8293 0.50894 0.0
C758 C 0.021 0.84883 0.48945 0.0
C759 C 0.01989 0.84225 0.4644 0.0
C760 C 0.02093 0.87653 0.49443 0.0
C761 C 0.0187 0.83548 0.53618 0.0
C762 C 1.00058 0.89101 0.48612 0.0
C763 C 0.99922 0.91685 0.49136 0.0
C764 C 0.01822 0.92883 0.50505 0.0
C765 C 0.03892 0.91446 0.51296 0.0
C766 C 0.04027 0.88846 0.50763 0.0
H767 H 0.01327 0.81852 0.5489 0.0
H768 H 0.0378 0.84197 0.54126 0.0
H769 H 0.00607 0.85143 0.5394 0.0
H770 H 0.98544 0.88213 0.47591 0.0
H771 H 0.98304 0.92732 0.48495 0.0
H772 H 0.48357 0.79877 0.57786 0.0
H773 H 0.48649 0.75204 0.57586 0.0
H774 H 0.40887 0.74199 0.59442 0.0
H775 H 0.40556 0.78883 0.59567 0.0
H776 H 0.47596 0.71265 0.61383 0.0
H777 H 0.41522 0.70345 0.52978 0.0
H778 H 0.42802 0.73417 0.53859 0.0
H779 H 0.40218 0.71915 0.55548 0.0
C780 C 0.46704 0.78666 0.58125 0.0
C781 C 0.44429 0.79754 0.58675 0.0
C782 C 0.46879 0.75996 0.5803 0.0
C783 C 0.44784 0.74364 0.58472 0.0
C784 C 0.42517 0.75432 0.5906 0.0
H785 H 0.44177 0.57613 0.56552 0.0
H786 H 0.42988 0.61863 0.57846 0.0
C787 C 0.42339 0.78105 0.59155 0.0
C788 C 0.44993 0.71544 0.58303 0.0
H789 H 0.43267 0.66546 0.54739 0.0
C790 C 0.46632 0.70226 0.59946 0.0
C791 C 0.43717 0.70194 0.56439 0.0
C792 C 0.41977 0.71534 0.54589 0.0
C793 C 0.47085 0.67604 0.59728 0.0
C794 C 0.45895 0.66284 0.57793 0.0
C795 C 0.44171 0.67569 0.56222 0.0
C796 C 0.46619 0.63669 0.57193 0.0
C797 C 0.48866 0.66279 0.61542 0.0
C798 C 0.49044 0.63294 0.56388 0.0
C799 C 0.49722 0.60891 0.55642 0.0
C800 C 0.47984 0.5881 0.55678 0.0
C801 C 0.45559 0.59176 0.56517 0.0
C802 C 0.44877 0.61598 0.57252 0.0
H803 H 0.49011 0.6727 0.63325 0.0
H804 H 0.48284 0.64229 0.61972 0.0
H805 H 0.50742 0.66327 0.60692 0.0
H806 H 0.50401 0.64882 0.5628 0.0
H807 H 0.51604 0.60679 0.55002 0.0
H808 H 0.91555 0.91633 0.78902 0.0
H809 H 0.93466 0.93151 0.74913 0.0
H810 H 0.87394 0.89675 0.70891 0.0
H811 H 0.85456 0.88155 0.74885 0.0
H812 H 0.94787 0.89938 0.70698 0.0
H813 H 0.87958 0.97486 0.68092 0.0
H814 H 0.88365 0.96199 0.71286 0.0
H815 H 0.86735 0.94315 0.69058 0.0
C816 C 0.90612 0.91206 0.77171 0.0
C817 C 0.88338 0.89786 0.77221 0.0
C818 C 0.91717 0.92063 0.7489 0.0
C819 C 0.90565 0.9155 0.72601 0.0
C820 C 0.88306 0.90116 0.72635 0.0
H821 H 0.94141 0.96543 0.57085 0.0
H822 H 0.92176 0.9478 0.60962 0.0
C823 C 0.87208 0.89234 0.7492 0.0
C824 C 0.91744 0.92506 0.70187 0.0
H825 H 0.91126 0.9689 0.65189 0.0
C826 C 0.93989 0.91457 0.6949 0.0
C827 C 0.90696 0.94479 0.68607 0.0
C828 C 0.88313 0.95707 0.69291 0.0
C829 C 0.95198 0.92303 0.67243 0.0
C830 C 0.94179 0.94319 0.6568 0.0
C831 C 0.9192 0.95354 0.66378 0.0
C832 C 0.9541 0.95376 0.63312 0.0
C833 C 0.97522 0.90973 0.66541 0.0
C834 C 0.97883 0.96338 0.63323 0.0
C835 C 0.99023 0.97324 0.61096 0.0
C836 C 0.97705 0.97419 0.58808 0.0
C837 C 0.95216 0.96502 0.58809 0.0
C838 C 0.94087 0.95492 0.6103 0.0
H839 H 0.97605 0.89003 0.67473 0.0
H840 H 0.97636 0.90818 0.64481 0.0
H841 H 0.99172 0.92104 0.67162 0.0
H842 H 0.9893 0.9635 0.65061 0.0
H843 H 0.00932 0.98037 0.61173 0.0
H844 H 0.57025 0.12282 0.31538 0.0
H845 H 0.54989 0.09427 0.28588 0.0
H846 H 0.59474 0.12959 0.22579 0.0
H847 H 0.61498 0.15794 0.25488 0.0
H848 H 0.54431 0.12475 0.21373 0.0
H849 H 0.58153 0.0324 0.25489 0.0
H850 H 0.5648 0.0519 0.27531 0.0
H851 H 0.59423 0.06343 0.26289 0.0
C852 C 0.57578 0.12437 0.29588 0.0
C853 C 0.59411 0.14273 0.28741 0.0
C854 C 0.56417 0.10806 0.27909 0.0
C855 C 0.57093 0.10975 0.2537 0.0
C856 C 0.58915 0.12809 0.24529 0.0
H857 H 0.58269 0.02305 0.13046 0.0
H858 H 0.58326 0.04103 0.17145 0.0
C859 C 0.60062 0.14437 0.26193 0.0
C860 C 0.55946 0.09261 0.23542 0.0
H861 H 0.56035 0.03107 0.21646 0.0
C862 C 0.54734 0.10415 0.21447 0.0
C863 C 0.56352 0.06578 0.23658 0.0
C864 C 0.57684 0.05252 0.25851 0.0
C865 C 0.54074 0.09001 0.19378 0.0
C866 C 0.54582 0.06337 0.19441 0.0
C867 C 0.55642 0.05145 0.2161 0.0
C868 C 0.544 0.04876 0.17144 0.0
C869 C 0.53016 0.1042 0.17076 0.0
C870 C 0.52154 0.04616 0.1582 0.0
C871 C 0.52126 0.03637 0.13436 0.0
C872 C 0.54342 0.02874 0.12355 0.0
C873 C 0.56544 0.02944 0.13785 0.0
C874 C 0.56574 0.03944 0.16147 0.0
H875 H 0.53158 0.1255 0.17188 0.0
H876 H 0.53994 0.0991 0.15361 0.0
H877 H 0.51023 0.09861 0.16875 0.0
H878 H 0.50443 0.05268 0.16582 0.0
H879 H 0.50393 0.03603 0.124 0.0
H880 H 0.38996 0.56874 0.26531 0.0
H881 H 0.40542 0.5555 0.30714 0.0
H882 H 0.3873 0.62967 0.33316 0.0
H883 H 0.37276 0.64332 0.29092 0.0
H884 H 0.43103 0.61769 0.34927 0.0
H885 H 0.3695 0.53192 0.36931 0.0
H886 H 0.38632 0.52914 0.34086 0.0
H887 H 0.3644 0.55447 0.34285 0.0
C888 C 0.38896 0.58206 0.28007 0.0
C889 C 0.38 0.60698 0.27495 0.0
C890 C 0.39767 0.57443 0.30404 0.0
C891 C 0.39702 0.59132 0.32357 0.0
C892 C 0.38788 0.6162 0.31849 0.0
H893 H 0.42875 0.53721 0.47886 0.0
H894 H 0.40833 0.5523 0.43977 0.0
C895 C 0.37957 0.624 0.29438 0.0
C896 C 0.4072 0.58358 0.34885 0.0
H897 H 0.4061 0.53503 0.39511 0.0
C898 C 0.42534 0.59974 0.35939 0.0
C899 C 0.39955 0.56039 0.36241 0.0
C900 C 0.37868 0.54316 0.35338 0.0
C901 C 0.43649 0.59307 0.38266 0.0
C902 C 0.43006 0.56904 0.39538 0.0
C903 C 0.41139 0.55324 0.38522 0.0
C904 C 0.44252 0.55989 0.41915 0.0
C905 C 0.45473 0.61213 0.39348 0.0
C906 C 0.46852 0.55866 0.42055 0.0
C907 C 0.48023 0.55049 0.44298 0.0
C908 C 0.46616 0.5427 0.46433 0.0
C909 C 0.4401 0.54311 0.46272 0.0
C910 C 0.42841 0.55173 0.44038 0.0
H911 H 0.45116 0.63221 0.38623 0.0
H912 H 0.45387 0.61128 0.41428 0.0
H913 H 0.47383 0.60763 0.38787 0.0
H914 H 0.47982 0.56395 0.40425 0.0
H915 H 0.50033 0.55007 0.44352 0.0
H916 H 0.11315 0.35579 0.75482 0.0
H917 H 0.10331 0.37377 0.79461 0.0
H918 H 0.04921 0.42233 0.75712 0.0
H919 H 0.05843 0.40389 0.71725 0.0
H920 H 0.10909 0.42587 0.80398 0.0
H921 H 0.01166 0.39048 0.81904 0.0
H922 H 0.03215 0.37655 0.79731 0.0
H923 H 0.01743 0.40644 0.78873 0.0
C924 C 0.09874 0.36986 0.75511 0.0
C925 C 0.08648 0.37835 0.73289 0.0
C926 C 0.09327 0.38022 0.77783 0.0
C927 C 0.07537 0.39915 0.77882 0.0
C928 C 0.0628 0.40741 0.7568 0.0
H929 H 0.0599 0.51296 0.88761 0.0
H930 H 0.06672 0.48916 0.85044 0.0
C931 C 0.06827 0.39707 0.73401 0.0
C932 C 0.07118 0.41151 0.80255 0.0
H933 H 0.02695 0.42265 0.84566 0.0
C934 C 0.09117 0.42505 0.81318 0.0
C935 C 0.04785 0.41016 0.81459 0.0
C936 C 0.02607 0.39494 0.8045 0.0
C937 C 0.08832 0.43781 0.83529 0.0
C938 C 0.06478 0.43723 0.84684 0.0
C939 C 0.04491 0.42319 0.83658 0.0
C940 C 0.0604 0.45151 0.86939 0.0
C941 C 0.11053 0.45172 0.84619 0.0
C942 C 0.05417 0.43818 0.89221 0.0
C943 C 0.0504 0.45173 0.9136 0.0
C944 C 0.05263 0.47887 0.91244 0.0
C945 C 0.05854 0.4921 0.88936 0.0
C946 C 0.06236 0.47854 0.86804 0.0
H947 H 0.12827 0.44516 0.83866 0.0
H948 H 0.10934 0.47274 0.84132 0.0
H949 H 0.11091 0.44873 0.86696 0.0
H950 H 0.05255 0.41728 0.89355 0.0
H951 H 0.0461 0.44091 0.93107 0.0
H952 H 0.73281 0.85873 0.93443 0.0
H953 H 0.69391 0.87538 0.94905 0.0
H954 H 0.69912 0.93826 0.89252 0.0
H955 H 0.73855 0.92224 0.87832 0.0
H956 H 0.68774 0.95513 0.93813 0.0
H957 H 0.62503 0.87222 0.91829 0.0
H958 H 0.65119 0.86309 0.93749 0.0
H959 H 0.65606 0.87595 0.90578 0.0
C960 C 0.72575 0.87612 0.92505 0.0
C961 C 0.739 0.88908 0.90512 0.0
C962 C 0.70326 0.88547 0.93328 0.0
C963 C 0.69324 0.90792 0.92171 0.0
C964 C 0.70629 0.92081 0.9017 0.0
H965 H 0.54361 0.96273 0.94845 0.0
H966 H 0.58075 0.94548 0.93011 0.0
C967 C 0.7288 0.91147 0.89343 0.0
C968 C 0.66983 0.91858 0.93121 0.0
H969 H 0.60875 0.90344 0.94421 0.0
C970 C 0.67045 0.94384 0.93932 0.0
C971 C 0.64707 0.90408 0.93251 0.0
C972 C 0.64465 0.87743 0.92282 0.0
C973 C 0.64927 0.95472 0.94919 0.0
C974 C 0.62679 0.93982 0.95149 0.0
C975 C 0.62598 0.9148 0.94278 0.0
C976 C 0.604 0.94988 0.96289 0.0
C977 C 0.65111 0.98225 0.95673 0.0
C978 C 0.60441 0.95769 0.98762 0.0
C979 C 0.58322 0.96758 0.99815 0.0
C980 C 0.56094 0.96975 0.98429 0.0
C981 C 0.5604 0.96139 0.95969 0.0
C982 C 0.58165 0.9515 0.94916 0.0
H983 H 0.66685 0.99316 0.94728 0.0
H984 H 0.63371 0.99251 0.95217 0.0
H985 H 0.65432 0.98228 0.97728 0.0
H986 H 0.62118 0.9561 0.99887 0.0
H987 H 0.58436 0.97367 0.01718 0.0
H988 H 0.75168 0.13309 0.36054 0.0
H989 H 0.78638 0.10806 0.37716 0.0
H990 H 0.76915 0.1283 0.45204 0.0
H991 H 0.73507 0.15447 0.43543 0.0
H992 H 0.81872 0.13344 0.44217 0.0
H993 H 0.78231 0.03805 0.41494 0.0
H994 H 0.78444 0.06166 0.38898 0.0
H995 H 0.76338 0.06615 0.41422 0.0
C996 C 0.75535 0.13242 0.38053 0.0
C997 C 0.74055 0.14581 0.39666 0.0
C998 C 0.77502 0.11781 0.39003 0.0
C999 C 0.78008 0.11597 0.41587 0.0
C1000 C 0.76543 0.12933 0.43204 0.0
H1001 H 0.87426 0.00362 0.49166 0.0
H1002 H 0.84 0.02986 0.47602 0.0
C1003 C 0.74583 0.14408 0.42254 0.0
C1004 C 0.80103 0.10057 0.42594 0.0
H1005 H 0.82444 0.04014 0.42864 0.0
C1006 C 0.81994 0.11301 0.43933 0.0
C1007 C 0.8024 0.07386 0.42247 0.0
C1008 C 0.78193 0.05907 0.40959 0.0
C1009 C 0.84041 0.09951 0.44907 0.0
C1010 C 0.84223 0.07302 0.44477 0.0
C1011 C 0.82315 0.06053 0.43165 0.0
C1012 C 0.86333 0.05757 0.4544 0.0
C1013 C 0.85956 0.11363 0.46432 0.0
C1014 C 0.88785 0.06433 0.4473 0.0
C1015 C 0.90754 0.04936 0.45633 0.0
C1016 C 0.90296 0.02717 0.47226 0.0
C1017 C 0.87836 0.02037 0.47912 0.0
C1018 C 0.85877 0.03542 0.47029 0.0
H1019 H 0.85207 0.13138 0.47161 0.0
H1020 H 0.86625 0.10108 0.48042 0.0
H1021 H 0.8757 0.11948 0.45226 0.0
H1022 H 0.89175 0.08099 0.43456 0.0
H1023 H 0.92627 0.05485 0.45051 0.0
H1024 H 0.23625 0.6007 0.16664 0.0
H1025 H 0.19494 0.58748 0.15157 0.0
H1026 H 0.21718 0.60829 0.07547 0.0
H1027 H 0.25824 0.62207 0.09029 0.0
H1028 H 0.15864 0.61685 0.11852 0.0
H1029 H 0.19481 0.52959 0.07776 0.0
H1030 H 0.21163 0.54673 0.10129 0.0
H1031 H 0.21131 0.55946 0.06925 0.0
C1032 C 0.23224 0.60288 0.14673 0.0
C1033 C 0.25071 0.6122 0.12966 0.0
C1034 C 0.20866 0.59521 0.13817 0.0
C1035 C 0.20317 0.59659 0.1124 0.0
C1036 C 0.2212 0.60671 0.09541 0.0
H1037 H 0.08557 0.54559 0.01538 0.0
H1038 H 0.12306 0.56375 0.03431 0.0
C1039 C 0.2447 0.61446 0.10392 0.0
C1040 C 0.17895 0.58662 0.10304 0.0
H1041 H 0.15308 0.53949 0.06845 0.0
C1042 C 0.15731 0.59986 0.1077 0.0
C1043 C 0.17736 0.56445 0.08896 0.0
C1044 C 0.19994 0.54904 0.08412 0.0
C1045 C 0.13415 0.59194 0.09792 0.0
C1046 C 0.13261 0.56988 0.08357 0.0
C1047 C 0.15426 0.55645 0.07933 0.0
C1048 C 0.10894 0.56056 0.07223 0.0
C1049 C 0.11175 0.60775 0.10232 0.0
C1050 C 0.08838 0.55281 0.08721 0.0
C1051 C 0.06675 0.54254 0.07638 0.0
C1052 C 0.06542 0.53952 0.0504 0.0
C1053 C 0.08595 0.54759 0.03545 0.0
C1054 C 0.10744 0.55797 0.04625 0.0
H1055 H 0.11715 0.62749 0.10773 0.0
H1056 H 0.09978 0.6094 0.08531 0.0
H1057 H 0.10062 0.59815 0.11782 0.0
H1058 H 0.08926 0.55407 0.10736 0.0
H1059 H 0.05133 0.53637 0.08845 0.0
H1060 H 0.19753 0.44828 0.6096 0.0
H1061 H 0.23438 0.46965 0.59103 0.0
H1062 H 0.22632 0.42374 0.52665 0.0
H1063 H 0.19033 0.40101 0.54596 0.0
H1064 H 0.26924 0.41714 0.54671 0.0
H1065 H 0.25699 0.52209 0.53832 0.0
H1066 H 0.24845 0.5101 0.56931 0.0
H1067 H 0.23095 0.4995 0.54268 0.0
C1068 C 0.20332 0.44302 0.59128 0.0
C1069 C 0.19129 0.4225 0.57956 0.0
C1070 C 0.22419 0.45565 0.58041 0.0
C1071 C 0.23314 0.44846 0.55732 0.0
C1072 C 0.21974 0.42967 0.54447 0.0
H1073 H 0.38619 0.50267 0.51706 0.0
H1074 H 0.34093 0.49678 0.51311 0.0
C1075 C 0.19904 0.41677 0.55549 0.0
C1076 C 0.2587 0.45665 0.54941 0.0
H1077 H 0.29978 0.50825 0.54733 0.0
C1078 C 0.27569 0.43717 0.54612 0.0
C1079 C 0.2673 0.48276 0.54835 0.0
C1080 C 0.24982 0.50476 0.54958 0.0
C1081 C 0.30116 0.44287 0.54388 0.0
C1082 C 0.30997 0.46862 0.5455 0.0
C1083 C 0.29296 0.48842 0.54666 0.0
C1084 C 0.33676 0.47462 0.54854 0.0
C1085 C 0.3186 0.42107 0.54091 0.0
C1086 C 0.34911 0.46481 0.57011 0.0
C1087 C 0.37476 0.46815 0.57245 0.0
C1088 C 0.3886 0.48149 0.5533 0.0
C1089 C 0.37603 0.4924 0.53218 0.0
C1090 C 0.35023 0.48899 0.52984 0.0
H1091 H 0.30892 0.40429 0.53277 0.0
H1092 H 0.33454 0.42745 0.52874 0.0
H1093 H 0.32599 0.41452 0.55961 0.0
H1094 H 0.33891 0.45405 0.58495 0.0
H1095 H 0.38382 0.46003 0.58916 0.0
H1096 H 0.86324 0.7528 0.94566 0.0
H1097 H 0.88235 0.71365 0.96374 0.0
H1098 H 0.92438 0.70822 0.89605 0.0
H1099 H 0.90529 0.74723 0.87776 0.0
H1100 H 0.88288 0.66355 0.9481 0.0
H1101 H 0.97858 0.70606 0.94975 0.0
H1102 H 0.95161 0.72549 0.94445 0.0
H1103 H 0.9641 0.70842 0.91934 0.0
C1104 C 0.87633 0.74316 0.93445 0.0
C1105 C 0.88278 0.75341 0.91024 0.0
C1106 C 0.88737 0.7208 0.94491 0.0
C1107 C 0.90522 0.7082 0.93151 0.0
C1108 C 0.91117 0.71793 0.90707 0.0
H1109 H 0.99497 0.57297 0.95866 0.0
H1110 H 0.97453 0.61182 0.94194 0.0
C1111 C 0.90018 0.74028 0.89661 0.0
C1112 C 0.91756 0.6849 0.94303 0.0
H1113 H 0.9743 0.66085 0.95923 0.0
C1114 C 0.90286 0.66301 0.95068 0.0
C1115 C 0.94365 0.68414 0.94644 0.0
C1116 C 0.96042 0.70734 0.9398 0.0
C1117 C 0.91354 0.64025 0.96099 0.0
C1118 C 0.93965 0.63944 0.96424 0.0
C1119 C 0.95432 0.66139 0.95675 0.0
C1120 C 0.95219 0.61587 0.97486 0.0
C1121 C 0.8968 0.61703 0.96765 0.0
C1122 C 0.94684 0.60531 0.99919 0.0
C1123 C 0.95854 0.583 0.00886 0.0
C1124 C 0.97598 0.5708 0.99446 0.0
C1125 C 0.98163 0.58174 0.9703 0.0
C1126 C 0.96994 0.60401 0.96068 0.0
H1127 H 0.87841 0.61854 0.95819 0.0
H1128 H 0.90541 0.59897 0.96243 0.0
H1129 H 0.89366 0.61556 0.9882 0.0
H1130 H 0.93366 0.61438 0.01076 0.0
H1131 H 0.95381 0.57523 0.02756 0.0
H1132 H 0.39983 0.75689 0.16516 0.0
H1133 H 0.41686 0.79947 0.15021 0.0
H1134 H 0.40047 0.78177 0.07391 0.0
H1135 H 0.3833 0.73935 0.08867 0.0
H1136 H 0.45764 0.80804 0.11378 0.0
H1137 H 0.37009 0.85404 0.08222 0.0
H1138 H 0.37063 0.82634 0.10443 0.0
H1139 H 0.37454 0.82234 0.07155 0.0
C1140 C 0.39953 0.76225 0.14523 0.0
C1141 C 0.39021 0.74479 0.12808 0.0
C1142 C 0.40938 0.78648 0.13673 0.0
C1143 C 0.40973 0.7938 0.11099 0.0
C1144 C 0.40012 0.77658 0.09387 0.0
H1145 H 0.45937 0.92255 0.01305 0.0
H1146 H 0.44177 0.88246 0.0328 0.0
C1147 C 0.39048 0.7523 0.10232 0.0
C1148 C 0.42103 0.81899 0.1018 0.0
H1149 H 0.40776 0.87601 0.06998 0.0
C1150 C 0.44677 0.82306 0.10441 0.0
C1151 C 0.40675 0.83841 0.08951 0.0
C1152 C 0.37893 0.83528 0.08687 0.0
C1153 C 0.45879 0.84573 0.09425 0.0
C1154 C 0.44453 0.86509 0.08169 0.0
C1155 C 0.41869 0.86116 0.07955 0.0
C1156 C 0.45604 0.88922 0.06989 0.0
C1157 C 0.48671 0.84827 0.09623 0.0
C1158 C 0.46993 0.90645 0.08416 0.0
C1159 C 0.48025 0.92935 0.07285 0.0
C1160 C 0.47659 0.9356 0.0471 0.0
C1161 C 0.46259 0.91834 0.03291 0.0
C1162 C 0.45246 0.89541 0.04418 0.0
H1163 H 0.49525 0.82925 0.10035 0.0
H1164 H 0.49483 0.85728 0.07863 0.0
H1165 H 0.49175 0.86073 0.11175 0.0
H1166 H 0.47247 0.90239 0.10413 0.0
H1167 H 0.49072 0.94234 0.08436 0.0
H1168 H 0.02349 0.28033 0.60955 0.0
H1169 H 0.99737 0.24373 0.59765 0.0
H1170 H 0.04845 0.22998 0.5385 0.0
H1171 H 0.07354 0.26768 0.5489 0.0
H1172 H 1.00217 0.21583 0.52568 0.0
H1173 H 0.02329 0.17531 0.62232 0.0
H1174 H 1.00538 0.20392 0.62041 0.0
H1175 H 0.03707 0.2054 0.60987 0.0
C1176 C 0.02871 0.27016 0.5934 0.0
C1177 C 0.05107 0.27652 0.58064 0.0
C1178 C 0.01388 0.24898 0.58684 0.0
C1179 C 0.02149 0.2335 0.56786 0.0
C1180 C 0.04239 0.24138 0.55349 0.0
H1181 H 0.03826 0.0782 0.55524 0.0
H1182 H 0.03635 0.12356 0.56358 0.0
C1183 C 0.05692 0.2628 0.55968 0.0
C1184 C 0.01008 0.20747 0.56486 0.0
H1185 H 1.00547 0.14733 0.5945 0.0
C1186 C 1.00242 0.20089 0.54081 0.0
C1187 C 0.01056 0.18798 0.58466 0.0
C1188 C 0.01967 0.19334 0.61072 0.0
C1189 C 0.99693 0.17512 0.53561 0.0
C1190 C 0.99854 0.15558 0.55518 0.0
C1191 C 1.00428 0.16243 0.57958 0.0
C1192 C 0.99856 0.12782 0.55022 0.0
C1193 C 0.99127 0.1688 0.50892 0.0
C1194 C 0.97782 0.11503 0.54007 0.0
C1195 C 0.97892 0.08891 0.53502 0.0
C1196 C 1.00071 0.07525 0.5403 0.0
C1197 C 0.02118 0.08809 0.55093 0.0
C1198 C 0.02012 0.11406 0.55577 0.0
H1199 H 0.99437 0.18575 0.49544 0.0
H1200 H 1.003 0.15292 0.50334 0.0
H1201 H 0.97154 0.16222 0.50743 0.0
H1202 H 0.96085 0.12519 0.53606 0.0
H1203 H 0.96282 0.07949 0.52691 0.0
H1204 H 0.63533 0.30507 0.4208 0.0
H1205 H 0.61492 0.33985 0.44046 0.0
H1206 H 0.54802 0.29243 0.44909 0.0
H1207 H 0.56852 0.2571 0.42976 0.0
H1208 H 0.56861 0.36131 0.4194 0.0
H1209 H 0.56112 0.32415 0.51933 0.0
H1210 H 0.58394 0.31262 0.49843 0.0
H1211 H 0.55191 0.30281 0.49534 0.0
C1212 C 0.61649 0.30172 0.42744 0.0
C1213 C 0.60357 0.27826 0.42382 0.0
C1214 C 0.60481 0.3217 0.4385 0.0
C1215 C 0.58007 0.31859 0.44629 0.0
C1216 C 0.56723 0.29503 0.44339 0.0
H1217 H 0.48942 0.43401 0.51217 0.0
H1218 H 0.50321 0.39383 0.49575 0.0
C1219 C 0.5789 0.27498 0.43221 0.0
C1220 C 0.56738 0.34084 0.4557 0.0
H1221 H 0.54539 0.3653 0.50876 0.0
C1222 C 0.56339 0.36217 0.4389 0.0
C1223 C 0.5604 0.34166 0.48106 0.0
C1224 C 0.5646 0.3192 0.49975 0.0
C1225 C 0.55298 0.38462 0.44691 0.0
C1226 C 0.54696 0.38592 0.47251 0.0
C1227 C 0.55017 0.36425 0.48917 0.0
C1228 C 0.53854 0.41009 0.4825 0.0
C1229 C 0.54855 0.40674 0.42787 0.0
C1230 C 0.554 0.43238 0.48078 0.0
C1231 C 0.54619 0.45531 0.49 0.0
C1232 C 0.52281 0.45635 0.50136 0.0
C1233 C 0.50748 0.43387 0.5034 0.0
C1234 C 0.51532 0.4109 0.4941 0.0
H1235 H 0.54702 0.40003 0.40854 0.0
H1236 H 0.53136 0.41686 0.43212 0.0
H1237 H 0.56445 0.42084 0.42828 0.0
H1238 H 0.57222 0.43199 0.47238 0.0
H1239 H 0.55855 0.47219 0.48834 0.0
loop_
_geom_bond_atom_site_label_1
_geom_bond_atom_site_label_2
_geom_bond_distance
_geom_bond_site_symmetry_2
_ccdc_geom_bond_type
P0 O11 1.490 . S
P0 C14 1.812 . S
P0 C20 1.803 . S
P0 C26 1.819 . S
H1 C15 0.941 . S
H2 C16 0.939 . S
H3 C18 0.940 . S
H4 C19 0.940 . S
H5 C21 0.939 . S
H6 C22 0.942 . S
H7 C24 0.940 . S
H8 C25 0.939 . S
H9 C27 0.941 . S
H10 C31 0.939 . S
O11 P0 1.490 . S
H12 C28 0.939 . S
H13 C30 0.940 . S
C14 P0 1.812 . S
C14 C15 1.389 . S
C14 C19 1.391 . S
C15 H1 0.941 . S
C15 C14 1.389 . S
C15 C16 1.397 . S
C16 H2 0.939 . S
C16 C15 1.397 . S
C16 C17 1.378 . S
C17 C16 1.378 . S
C17 C18 1.378 . S
C18 H3 0.940 . S
C18 C17 1.378 . S
C18 C19 1.396 . S
C19 H4 0.940 . S
C19 C14 1.391 . S
C19 C18 1.396 . S
C20 P0 1.803 . S
C20 C21 1.378 . S
C20 C25 1.400 . S
C21 H5 0.939 . S
C21 C20 1.378 . S
C21 C22 1.361 . S
C22 H6 0.942 . S
C22 C21 1.361 . S
C22 C23 1.369 . S
C23 C22 1.369 . S
C23 C24 1.404 . S
C24 H7 0.940 . S
C24 C23 1.404 . S
C24 C25 1.389 . S
C25 H8 0.939 . S
C25 C20 1.400 . S
C25 C24 1.389 . S
C26 P0 1.819 . S
C26 C27 1.391 . S
C26 C31 1.391 . S
C27 H9 0.941 . S
C27 C26 1.391 . S
C27 C28 1.396 . S
C28 H12 0.939 . S
C28 C27 1.396 . S
C28 C29 1.397 . S
C29 C28 1.397 . S
C29 C30 1.385 . S
C30 H13 0.940 . S
C30 C29 1.385 . S
C30 C31 1.388 . S
C31 H10 0.939 . S
C31 C26 1.391 . S
C31 C30 1.388 . S
P32 O43 1.490 . S
P32 C46 1.812 . S
P32 C52 1.803 . S
P32 C58 1.819 . S
H33 C47 0.941 . S
H34 C48 0.939 . S
H35 C50 0.940 . S
H36 C51 0.940 . S
H37 C53 0.939 . S
H38 C54 0.942 . S
H39 C56 0.940 . S
H40 C57 0.939 . S
H41 C59 0.941 . S
H42 C63 0.939 . S
O43 P32 1.490 . S
H44 C60 0.939 . S
H45 C62 0.940 . S
C46 P32 1.812 . S
C46 C47 1.389 . S
C46 C51 1.391 . S
C47 H33 0.941 . S
C47 C46 1.389 . S
C47 C48 1.397 . S
C48 H34 0.939 . S
C48 C47 1.397 . S
C48 C49 1.378 . S
C49 C48 1.378 . S
C49 C50 1.378 . S
C50 H35 0.940 . S
C50 C49 1.378 . S
C50 C51 1.396 . S
C51 H36 0.940 . S
C51 C46 1.391 . S
C51 C50 1.396 . S
C52 P32 1.803 . S
C52 C53 1.378 . S
C52 C57 1.400 . S
C53 H37 0.939 . S
C53 C52 1.378 . S
C53 C54 1.361 . S
C54 H38 0.942 . S
C54 C53 1.361 . S
C54 C55 1.369 . S
C55 C54 1.369 . S
C55 C56 1.404 . S
C56 H39 0.940 . S
C56 C55 1.404 . S
C56 C57 1.389 . S
C57 H40 0.939 . S
C57 C52 1.400 . S
C57 C56 1.389 . S
C58 P32 1.819 . S
C58 C59 1.391 . S
C58 C63 1.391 . S
C59 H41 0.941 . S
C59 C58 1.391 . S
C59 C60 1.396 . S
C60 H44 0.939 . S
C60 C59 1.396 . S
C60 C61 1.397 . S
C61 C60 1.397 . S
C61 C62 1.385 . S
C62 H45 0.940 . S
C62 C61 1.385 . S
C62 C63 1.388 . S
C63 H42 0.939 . S
C63 C58 1.391 . S
C63 C62 1.388 . S
P64 O75 1.490 . S
P64 C78 1.812 . S
P64 C84 1.803 . S
P64 C90 1.819 . S
H65 C79 0.941 . S
H66 C80 0.939 . S
H67 C82 0.940 . S
H68 C83 0.940 . S
H69 C85 0.939 . S
H70 C86 0.942 . S
H71 C88 0.940 . S
H72 C89 0.939 . S
H73 C91 0.941 . S
H74 C95 0.939 . S
O75 P64 1.490 . S
H76 C92 0.939 . S
H77 C94 0.940 . S
C78 P64 1.812 . S
C78 C79 1.389 . S
C78 C83 1.391 . S
C79 H65 0.941 . S
C79 C78 1.389 . S
C79 C80 1.397 . S
C80 H66 0.939 . S
C80 C79 1.397 . S
C80 C81 1.378 . S
C81 C80 1.378 . S
C81 C82 1.378 . S
C82 H67 0.940 . S
C82 C81 1.378 . S
C82 C83 1.396 . S
C83 H68 0.940 . S
C83 C78 1.391 . S
C83 C82 1.396 . S
C84 P64 1.803 . S
C84 C85 1.378 . S
C84 C89 1.400 . S
C85 H69 0.939 . S
C85 C84 1.378 . S
C85 C86 1.361 . S
C86 H70 0.942 . S
C86 C85 1.361 . S
C86 C87 1.369 . S
C87 C86 1.369 . S
C87 C88 1.404 . S
C88 H71 0.940 . S
C88 C87 1.404 . S
C88 C89 1.389 . S
C89 H72 0.939 . S
C89 C84 1.400 . S
C89 C88 1.389 . S
C90 P64 1.819 . S
C90 C91 1.391 . S
C90 C95 1.391 . S
C91 H73 0.941 . S
C91 C90 1.391 . S
C91 C92 1.396 . S
C92 H76 0.939 . S
C92 C91 1.396 . S
C92 C93 1.397 . S
C93 C92 1.397 . S
C93 C94 1.385 . S
C94 H77 0.940 . S
C94 C93 1.385 . S
C94 C95 1.388 . S
C95 H74 0.939 . S
C95 C90 1.391 . S
C95 C94 1.388 . S
P96 O107 1.490 . S
P96 C110 1.812 . S
P96 C116 1.803 . S
P96 C122 1.819 . S
H97 C111 0.941 . S
H98 C112 0.939 . S
H99 C114 0.940 . S
H100 C115 0.940 . S
H101 C117 0.939 . S
H102 C118 0.942 . S
H103 C120 0.940 . S
H104 C121 0.939 . S
H105 C123 0.941 . S
H106 C127 0.939 . S
O107 P96 1.490 . S
H108 C124 0.939 . S
H109 C126 0.940 . S
C110 P96 1.812 . S
C110 C111 1.389 . S
C110 C115 1.391 . S
C111 H97 0.941 . S
C111 C110 1.389 . S
C111 C112 1.397 . S
C112 H98 0.939 . S
C112 C111 1.397 . S
C112 C113 1.378 . S
C113 C112 1.378 . S
C113 C114 1.378 . S
C114 H99 0.940 . S
C114 C113 1.378 . S
C114 C115 1.396 . S
C115 H100 0.940 . S
C115 C110 1.391 . S
C115 C114 1.396 . S
C116 P96 1.803 . S
C116 C117 1.378 . S
C116 C121 1.400 . S
C117 H101 0.939 . S
C117 C116 1.378 . S
C117 C118 1.361 . S
C118 H102 0.942 . S
C118 C117 1.361 . S
C118 C119 1.369 . S
C119 C118 1.369 . S
C119 C120 1.404 . S
C120 H103 0.940 . S
C120 C119 1.404 . S
C120 C121 1.389 . S
C121 H104 0.939 . S
C121 C116 1.400 . S
C121 C120 1.389 . S
C122 P96 1.819 . S
C122 C123 1.391 . S
C122 C127 1.391 . S
C123 H105 0.941 . S
C123 C122 1.391 . S
C123 C124 1.396 . S
C124 H108 0.939 . S
C124 C123 1.396 . S
C124 C125 1.397 . S
C125 C124 1.397 . S
C125 C126 1.385 . S
C126 H109 0.940 . S
C126 C125 1.385 . S
C126 C127 1.388 . S
C127 H106 0.939 . S
C127 C122 1.391 . S
C127 C126 1.388 . S
P128 O139 1.490 . S
P128 C142 1.812 . S
P128 C148 1.803 . S
P128 C154 1.819 . S
H129 C143 0.941 . S
H130 C144 0.939 . S
H131 C146 0.940 . S
H132 C147 0.940 . S
H133 C149 0.939 . S
H134 C150 0.942 . S
H135 C152 0.940 . S
H136 C153 0.939 . S
H137 C155 0.941 . S
H138 C159 0.939 . S
O139 P128 1.490 . S
H140 C156 0.939 . S
H141 C158 0.940 . S
C142 P128 1.812 . S
C142 C143 1.389 . S
C142 C147 1.391 . S
C143 H129 0.941 . S
C143 C142 1.389 . S
C143 C144 1.397 . S
C144 H130 0.939 . S
C144 C143 1.397 . S
C144 C145 1.378 . S
C145 C144 1.378 . S
C145 C146 1.378 . S
C146 H131 0.940 . S
C146 C145 1.378 . S
C146 C147 1.396 . S
C147 H132 0.940 . S
C147 C142 1.391 . S
C147 C146 1.396 . S
C148 P128 1.803 . S
C148 C149 1.378 . S
C148 C153 1.400 . S
C149 H133 0.939 . S
C149 C148 1.378 . S
C149 C150 1.361 . S
C150 H134 0.942 . S
C150 C149 1.361 . S
C150 C151 1.369 . S
C151 C150 1.369 . S
C151 C152 1.404 . S
C152 H135 0.940 . S
C152 C151 1.404 . S
C152 C153 1.389 . S
C153 H136 0.939 . S
C153 C148 1.400 . S
C153 C152 1.389 . S
C154 P128 1.819 . S
C154 C155 1.391 . S
C154 C159 1.391 . S
C155 H137 0.941 . S
C155 C154 1.391 . S
C155 C156 1.396 . S
C156 H140 0.939 . S
C156 C155 1.396 . S
C156 C157 1.397 . S
C157 C156 1.397 . S
C157 C158 1.385 . S
C158 H141 0.940 . S
C158 C157 1.385 . S
C158 C159 1.388 . S
C159 H138 0.939 . S
C159 C154 1.391 . S
C159 C158 1.388 . S
P160 O171 1.490 . S
P160 C174 1.812 . S
P160 C180 1.803 . S
P160 C186 1.819 . S
H161 C175 0.941 . S
H162 C176 0.939 . S
H163 C178 0.940 . S
H164 C179 0.940 . S
H165 C181 0.939 . S
H166 C182 0.942 . S
H167 C184 0.940 . S
H168 C185 0.939 . S
H169 C187 0.941 . S
H170 C191 0.939 . S
O171 P160 1.490 . S
H172 C188 0.939 . S
H173 C190 0.940 . S
C174 P160 1.812 . S
C174 C175 1.389 . S
C174 C179 1.391 . S
C175 H161 0.941 . S
C175 C174 1.389 . S
C175 C176 1.397 . S
C176 H162 0.939 . S
C176 C175 1.397 . S
C176 C177 1.378 . S
C177 C176 1.378 . S
C177 C178 1.378 . S
C178 H163 0.940 . S
C178 C177 1.378 . S
C178 C179 1.396 . S
C179 H164 0.940 . S
C179 C174 1.391 . S
C179 C178 1.396 . S
C180 P160 1.803 . S
C180 C181 1.378 . S
C180 C185 1.400 . S
C181 H165 0.939 . S
C181 C180 1.378 . S
C181 C182 1.361 . S
C182 H166 0.942 . S
C182 C181 1.361 . S
C182 C183 1.369 . S
C183 C182 1.369 . S
C183 C184 1.404 . S
C184 H167 0.940 . S
C184 C183 1.404 . S
C184 C185 1.389 . S
C185 H168 0.939 . S
C185 C180 1.400 . S
C185 C184 1.389 . S
C186 P160 1.819 . S
C186 C187 1.391 . S
C186 C191 1.391 . S
C187 H169 0.941 . S
C187 C186 1.391 . S
C187 C188 1.396 . S
C188 H172 0.939 . S
C188 C187 1.396 . S
C188 C189 1.397 . S
C189 C188 1.397 . S
C189 C190 1.385 . S
C190 H173 0.940 . S
C190 C189 1.385 . S
C190 C191 1.388 . S
C191 H170 0.939 . S
C191 C186 1.391 . S
C191 C190 1.388 . S
P192 O203 1.490 . S
P192 C206 1.812 . S
P192 C212 1.803 . S
P192 C218 1.819 . S
H193 C207 0.941 . S
H194 C208 0.939 . S
H195 C210 0.940 . S
H196 C211 0.940 . S
H197 C213 0.939 . S
H198 C214 0.942 . S
H199 C216 0.940 . S
H200 C217 0.939 . S
H201 C219 0.941 . S
H202 C223 0.939 . S
O203 P192 1.490 . S
H204 C220 0.939 . S
H205 C222 0.940 . S
C206 P192 1.812 . S
C206 C207 1.389 . S
C206 C211 1.391 . S
C207 H193 0.941 . S
C207 C206 1.389 . S
C207 C208 1.397 . S
C208 H194 0.939 . S
C208 C207 1.397 . S
C208 C209 1.378 . S
C209 C208 1.378 . S
C209 C210 1.378 . S
C210 H195 0.940 . S
C210 C209 1.378 . S
C210 C211 1.396 . S
C211 H196 0.940 . S
C211 C206 1.391 . S
C211 C210 1.396 . S
C212 P192 1.803 . S
C212 C213 1.378 . S
C212 C217 1.400 . S
C213 H197 0.939 . S
C213 C212 1.378 . S
C213 C214 1.361 . S
C214 H198 0.942 . S
C214 C213 1.361 . S
C214 C215 1.369 . S
C215 C214 1.369 . S
C215 C216 1.404 . S
C216 H199 0.940 . S
C216 C215 1.404 . S
C216 C217 1.389 . S
C217 H200 0.939 . S
C217 C212 1.400 . S
C217 C216 1.389 . S
C218 P192 1.819 . S
C218 C219 1.391 . S
C218 C223 1.391 . S
C219 H201 0.941 . S
C219 C218 1.391 . S
C219 C220 1.396 . S
C220 H204 0.939 . S
C220 C219 1.396 . S
C220 C221 1.397 . S
C221 C220 1.397 . S
C221 C222 1.385 . S
C222 H205 0.940 . S
C222 C221 1.385 . S
C222 C223 1.388 . S
C223 H202 0.939 . S
C223 C218 1.391 . S
C223 C222 1.388 . S
P224 O235 1.490 . S
P224 C238 1.812 . S
P224 C244 1.803 . S
P224 C250 1.819 . S
H225 C239 0.941 . S
H226 C240 0.939 . S
H227 C242 0.940 . S
H228 C243 0.940 . S
H229 C245 0.939 . S
H230 C246 0.942 . S
H231 C248 0.940 . S
H232 C249 0.939 . S
H233 C251 0.941 . S
H234 C255 0.939 . S
O235 P224 1.490 . S
H236 C252 0.939 . S
H237 C254 0.940 . S
C238 P224 1.812 . S
C238 C239 1.389 . S
C238 C243 1.391 . S
C239 H225 0.941 . S
C239 C238 1.389 . S
C239 C240 1.397 . S
C240 H226 0.939 . S
C240 C239 1.397 . S
C240 C241 1.378 . S
C241 C240 1.378 . S
C241 C242 1.378 . S
C242 H227 0.940 . S
C242 C241 1.378 . S
C242 C243 1.396 . S
C243 H228 0.940 . S
C243 C238 1.391 . S
C243 C242 1.396 . S
C244 P224 1.803 . S
C244 C245 1.378 . S
C244 C249 1.400 . S
C245 H229 0.939 . S
C245 C244 1.378 . S
C245 C246 1.361 . S
C246 H230 0.942 . S
C246 C245 1.361 . S
C246 C247 1.369 . S
C247 C246 1.369 . S
C247 C248 1.404 . S
C248 H231 0.940 . S
C248 C247 1.404 . S
C248 C249 1.389 . S
C249 H232 0.939 . S
C249 C244 1.400 . S
C249 C248 1.389 . S
C250 P224 1.819 . S
C250 C251 1.391 . S
C250 C255 1.391 . S
C251 H233 0.941 . S
C251 C250 1.391 . S
C251 C252 1.396 . S
C252 H236 0.939 . S
C252 C251 1.396 . S
C252 C253 1.397 . S
C253 C252 1.397 . S
C253 C254 1.385 . S
C254 H237 0.940 . S
C254 C253 1.385 . S
C254 C255 1.388 . S
C255 H234 0.939 . S
C255 C250 1.391 . S
C255 C254 1.388 . S
Co256 N261 2.057 . S
Co256 O273 2.021 . S
Co256 O276 2.062 . S
Co256 O280 2.117 1_545 S
Co256 O281 2.020 . S
C257 O277 1.259 1_655 S
C257 O280 1.258 . S
Co258 N267 2.057 . S
Co258 O274 2.117 1_565 S
Co258 O275 2.020 1_565 S
Co258 O277 2.021 . S
Co258 O282 2.062 . S
C259 N261 1.316 . S
C259 N262 1.347 . S
C259 H264 0.931 . S
C260 N261 1.375 . S
C260 C263 1.350 . S
C260 H265 0.930 1_545 S
N261 Co256 2.057 . S
N261 C259 1.316 . S
N261 C260 1.375 . S
N262 C259 1.347 . S
N262 C263 1.373 . S
C263 C260 1.350 . S
C263 N262 1.373 . S
C263 H284 0.931 . S
H264 C259 0.931 . S
H265 C260 0.930 1_565 S
C266 O273 1.259 1_455 S
C266 O274 1.258 . S
N267 Co258 2.057 . S
N267 C268 1.316 . S
N267 C269 1.375 1_565 S
C268 N267 1.316 . S
C268 N270 1.347 . S
C268 H279 0.931 . S
C269 N267 1.375 1_545 S
C269 C271 1.346 1_545 S
C269 H278 0.930 . S
N270 C268 1.347 . S
N270 C271 1.382 . S
C271 C269 1.346 1_565 S
C271 N270 1.382 . S
C271 H285 0.927 1_565 S
C272 O275 1.256 . S
C272 O276 1.255 1_455 S
O273 Co256 2.021 . S
O273 C266 1.259 1_655 S
O274 Co258 2.117 1_545 S
O274 C266 1.258 . S
O275 Co258 2.020 1_545 S
O275 C272 1.256 . S
O276 Co256 2.062 . S
O276 C272 1.255 1_655 S
O277 C257 1.259 1_455 S
O277 Co258 2.021 . S
H278 C269 0.930 . S
H279 C268 0.931 . S
O280 Co256 2.117 1_565 S
O280 C257 1.258 . S
O281 Co256 2.020 . S
O281 C283 1.256 1_545 S
O282 Co258 2.062 . S
O282 C283 1.255 1_455 S
C283 O281 1.256 1_565 S
C283 O282 1.255 1_655 S
H284 C263 0.931 . S
H285 C271 0.927 1_545 S
Co286 N291 2.057 1_545 S
Co286 O303 2.021 . S
Co286 O306 2.062 1_545 S
Co286 O310 2.117 1_546 S
Co286 O311 2.020 1_556 S
C287 O307 1.259 . S
C287 O310 1.258 . S
Co288 N297 2.057 . S
Co288 O304 2.117 . S
Co288 O305 2.020 . S
Co288 O307 2.021 1_545 S
Co288 O312 2.062 . S
C289 N291 1.316 . S
C289 N292 1.347 . S
C289 H294 0.931 1_565 S
C290 N291 1.375 . S
C290 C293 1.350 . S
C290 H295 0.930 . S
N291 Co286 2.057 1_565 S
N291 C289 1.316 . S
N291 C290 1.375 . S
N292 C289 1.347 . S
N292 C293 1.373 . S
C293 C290 1.350 . S
C293 N292 1.373 . S
C293 H314 0.931 . S
H294 C289 0.931 1_545 S
H295 C290 0.930 . S
C296 O303 1.259 . S
C296 O304 1.258 1_556 S
N297 Co288 2.057 . S
N297 C298 1.316 . S
N297 C299 1.375 . S
C298 N297 1.316 . S
C298 N300 1.347 . S
C298 H309 0.931 . S
C299 N297 1.375 . S
C299 C301 1.350 . S
C299 H308 0.930 . S
N300 C298 1.347 . S
N300 C301 1.373 . S
C301 C299 1.350 . S
C301 N300 1.373 . S
C301 H315 0.931 . S
C302 O305 1.256 1_566 S
C302 O306 1.255 . S
O303 Co286 2.021 . S
O303 C296 1.259 . S
O304 Co288 2.117 . S
O304 C296 1.258 1_554 S
O305 Co288 2.020 . S
O305 C302 1.256 1_544 S
O306 Co286 2.062 1_565 S
O306 C302 1.255 . S
O307 C287 1.259 . S
O307 Co288 2.021 1_565 S
H308 C299 0.930 . S
H309 C298 0.931 . S
O310 Co286 2.117 1_564 S
O310 C287 1.258 . S
O311 Co286 2.020 1_554 S
O311 C313 1.256 . S
O312 Co288 2.062 . S
O312 C313 1.255 . S
C313 O311 1.256 . S
C313 O312 1.255 . S
H314 C293 0.931 . S
H315 C301 0.931 . S
Co316 N321 2.057 . S
Co316 O333 2.021 . S
Co316 O336 2.062 . S
Co316 O340 2.117 . S
Co316 O341 2.020 . S
C317 O337 1.259 . S
C317 O340 1.258 . S
Co318 N327 2.057 . S
Co318 O334 2.117 . S
Co318 O335 2.020 . S
Co318 O337 2.021 . S
Co318 O342 2.062 . S
C319 N321 1.316 . S
C319 N322 1.347 . S
C319 H324 0.931 . S
C320 N321 1.375 . S
C320 C323 1.350 . S
C320 H325 0.930 . S
N321 Co316 2.057 . S
N321 C319 1.316 . S
N321 C320 1.375 . S
N322 C319 1.347 . S
N322 C323 1.373 . S
C323 C320 1.350 . S
C323 N322 1.373 . S
C323 H344 0.931 . S
H324 C319 0.931 . S
H325 C320 0.930 . S
C326 O333 1.259 . S
C326 O334 1.258 . S
N327 Co318 2.057 . S
N327 C328 1.316 . S
N327 C329 1.375 . S
C328 N327 1.316 . S
C328 N330 1.347 . S
C328 H339 0.931 . S
C329 N327 1.375 . S
C329 C331 1.350 . S
C329 H338 0.930 . S
N330 C328 1.347 . S
N330 C331 1.373 . S
C331 C329 1.350 . S
C331 N330 1.373 . S
C331 H345 0.931 . S
C332 O335 1.256 . S
C332 O336 1.255 . S
O333 Co316 2.021 . S
O333 C326 1.259 . S
O334 Co318 2.117 . S
O334 C326 1.258 . S
O335 Co318 2.020 . S
O335 C332 1.256 . S
O336 Co316 2.062 . S
O336 C332 1.255 . S
O337 C317 1.259 . S
O337 Co318 2.021 . S
H338 C329 0.930 . S
H339 C328 0.931 . S
O340 Co316 2.117 . S
O340 C317 1.258 . S
O341 Co316 2.020 . S
O341 C343 1.256 . S
O342 Co318 2.062 . S
O342 C343 1.255 . S
C343 O341 1.256 . S
C343 O342 1.255 . S
H344 C323 0.931 . S
H345 C331 0.931 . S
Co346 N351 2.057 . S
Co346 O363 2.021 . S
Co346 O366 2.051 1_556 S
Co346 O370 2.117 1_455 S
Co346 O371 2.008 1_455 S
C347 O367 1.271 . S
C347 O370 1.251 1_554 S
Co348 N357 2.057 . S
Co348 O364 2.117 1_655 S
Co348 O365 2.020 1_655 S
Co348 O367 2.021 . S
Co348 O372 2.062 . S
C349 N351 1.316 . S
C349 N352 1.347 . S
C349 H354 0.931 . S
C350 N351 1.375 1_655 S
C350 C353 1.350 1_655 S
C350 H355 0.930 . S
N351 Co346 2.057 . S
N351 C349 1.316 . S
N351 C350 1.375 1_455 S
N352 C349 1.347 . S
N352 C353 1.373 . S
C353 C350 1.350 1_455 S
C353 N352 1.373 . S
C353 H374 0.931 1_455 S
H354 C349 0.931 . S
H355 C350 0.930 . S
C356 O363 1.259 1_554 S
C356 O364 1.258 . S
N357 Co348 2.057 . S
N357 C358 1.316 . S
N357 C359 1.375 1_655 S
C358 N357 1.316 . S
C358 N360 1.347 . S
C358 H369 0.931 . S
C359 N357 1.375 1_455 S
C359 C361 1.350 1_455 S
C359 H368 0.930 . S
N360 C358 1.347 . S
N360 C361 1.373 . S
C361 C359 1.350 1_655 S
C361 N360 1.373 . S
C361 H375 0.931 1_655 S
C362 O365 1.256 . S
C362 O366 1.281 . S
O363 Co346 2.021 . S
O363 C356 1.259 1_556 S
O364 Co348 2.117 1_455 S
O364 C356 1.258 . S
O365 Co348 2.020 1_455 S
O365 C362 1.256 . S
O366 Co346 2.051 1_554 S
O366 C362 1.281 . S
O367 C347 1.271 . S
O367 Co348 2.021 . S
H368 C359 0.930 . S
H369 C358 0.931 . S
O370 Co346 2.117 1_655 S
O370 C347 1.251 1_556 S
O371 Co346 2.008 1_655 S
O371 C373 1.272 . S
O372 Co348 2.062 . S
O372 C373 1.255 1_554 S
C373 O371 1.272 . S
C373 O372 1.255 1_556 S
H374 C353 0.931 1_655 S
H375 C361 0.931 1_455 S
H376 C384 0.929 . S
H377 C386 0.930 . S
H378 C388 0.930 . S
H379 C391 0.929 . S
H380 C394 0.930 . S
H381 C396 0.960 . S
H382 C396 0.960 . S
H383 C396 0.960 . S
C384 H376 0.929 . S
C384 C385 1.377 . S
C384 C386 1.384 . S
C385 C384 1.377 . S
C385 C391 1.390 . S
C386 H377 0.930 . S
C386 C384 1.384 . S
C386 C387 1.372 . S
C387 C386 1.372 . S
C387 C388 1.400 . S
C387 C392 1.490 . S
C388 H378 0.930 . S
C388 C387 1.400 . S
C388 C391 1.386 . S
H389 C405 0.930 . S
H390 C406 0.931 . S
C391 H379 0.929 . S
C391 C385 1.390 . S
C391 C388 1.386 . S
C392 C387 1.490 . S
C392 C394 1.395 . S
C392 C395 1.403 . S
H393 C399 0.930 . S
C394 H380 0.930 . S
C394 C392 1.395 . S
C394 C397 1.403 . S
C395 C392 1.403 . S
C395 C396 1.524 . S
C395 C399 1.400 . S
C396 H381 0.960 . S
C396 H382 0.960 . S
C396 H383 0.960 . S
C396 C395 1.524 . S
C397 C394 1.403 . S
C397 C398 1.392 . S
C397 C401 1.500 1_455 S
C398 C397 1.392 . S
C398 C399 1.385 . S
C398 C400 1.478 . S
C399 H393 0.930 . S
C399 C395 1.400 . S
C399 C398 1.385 . S
C400 C398 1.478 . S
C400 C402 1.381 . S
C400 C406 1.383 . S
C401 C397 1.500 1_655 S
C401 H407 0.957 . S
C401 H408 0.961 . S
C401 H409 0.957 . S
C402 C400 1.381 . S
C402 C403 1.394 . S
C402 H410 0.930 . S
C403 C402 1.394 . S
C403 C404 1.383 . S
C403 H411 0.929 . S
C404 C403 1.383 . S
C404 C405 1.377 . S
C405 H389 0.930 . S
C405 C404 1.377 . S
C405 C406 1.379 . S
C406 H390 0.931 . S
C406 C400 1.383 . S
C406 C405 1.379 . S
H407 C401 0.957 . S
H408 C401 0.961 . S
H409 C401 0.957 . S
H410 C402 0.930 . S
H411 C403 0.929 . S
H412 C420 0.929 . S
H413 C422 0.930 . S
H414 C424 0.930 . S
H415 C427 0.929 . S
H416 C430 0.930 . S
H417 C432 0.960 . S
H418 C432 0.960 . S
H419 C432 0.960 . S
C420 H412 0.929 . S
C420 C421 1.377 . S
C420 C422 1.384 . S
C421 C420 1.377 . S
C421 C427 1.390 . S
C422 H413 0.930 . S
C422 C420 1.384 . S
C422 C423 1.372 . S
C423 C422 1.372 . S
C423 C424 1.400 . S
C423 C428 1.490 . S
C424 H414 0.930 . S
C424 C423 1.400 . S
C424 C427 1.386 . S
H425 C441 0.930 . S
H426 C442 0.931 . S
C427 H415 0.929 . S
C427 C421 1.390 . S
C427 C424 1.386 . S
C428 C423 1.490 . S
C428 C430 1.395 . S
C428 C431 1.403 . S
H429 C435 0.930 . S
C430 H416 0.930 . S
C430 C428 1.395 . S
C430 C433 1.403 . S
C431 C428 1.403 . S
C431 C432 1.524 . S
C431 C435 1.400 . S
C432 H417 0.960 . S
C432 H418 0.960 . S
C432 H419 0.960 . S
C432 C431 1.524 . S
C433 C430 1.403 . S
C433 C434 1.392 . S
C433 C437 1.495 . S
C434 C433 1.392 . S
C434 C435 1.385 . S
C434 C436 1.478 . S
C435 H429 0.930 . S
C435 C431 1.400 . S
C435 C434 1.385 . S
C436 C434 1.478 . S
C436 C438 1.381 . S
C436 C442 1.383 . S
C437 C433 1.495 . S
C437 H443 0.959 . S
C437 H444 0.961 . S
C437 H445 0.960 1_565 S
C438 C436 1.381 . S
C438 C439 1.394 . S
C438 H446 0.930 . S
C439 C438 1.394 . S
C439 C440 1.383 . S
C439 H447 0.929 1_565 S
C440 C439 1.383 . S
C440 C441 1.377 . S
C441 H425 0.930 . S
C441 C440 1.377 . S
C441 C442 1.379 . S
C442 H426 0.931 . S
C442 C436 1.383 . S
C442 C441 1.379 . S
H443 C437 0.959 . S
H444 C437 0.961 . S
H445 C437 0.960 1_545 S
H446 C438 0.930 . S
H447 C439 0.929 1_545 S
H448 C456 0.929 . S
H449 C458 0.930 . S
H450 C460 0.930 . S
H451 C463 0.929 . S
H452 C466 0.930 . S
H453 C468 0.960 . S
H454 C468 0.960 . S
H455 C468 0.960 . S
C456 H448 0.929 . S
C456 C457 1.377 . S
C456 C458 1.384 . S
C457 C456 1.377 . S
C457 C463 1.390 . S
C458 H449 0.930 . S
C458 C456 1.384 . S
C458 C459 1.372 . S
C459 C458 1.372 . S
C459 C460 1.400 . S
C459 C464 1.490 . S
C460 H450 0.930 . S
C460 C459 1.400 . S
C460 C463 1.386 . S
H461 C477 0.930 . S
H462 C478 0.931 . S
C463 H451 0.929 . S
C463 C457 1.390 . S
C463 C460 1.386 . S
C464 C459 1.490 . S
C464 C466 1.395 . S
C464 C467 1.403 . S
H465 C471 0.930 . S
C466 H452 0.930 . S
C466 C464 1.395 . S
C466 C469 1.403 . S
C467 C464 1.403 . S
C467 C468 1.524 . S
C467 C471 1.400 . S
C468 H453 0.960 . S
C468 H454 0.960 . S
C468 H455 0.960 . S
C468 C467 1.524 . S
C469 C466 1.403 . S
C469 C470 1.392 . S
C469 C473 1.495 . S
C470 C469 1.392 . S
C470 C471 1.385 . S
C470 C472 1.478 . S
C471 H465 0.930 . S
C471 C467 1.400 . S
C471 C470 1.385 . S
C472 C470 1.478 . S
C472 C474 1.381 . S
C472 C478 1.383 . S
C473 C469 1.495 . S
C473 H479 0.959 . S
C473 H480 0.961 . S
C473 H481 0.960 . S
C474 C472 1.381 . S
C474 C475 1.394 . S
C474 H482 0.930 . S
C475 C474 1.394 . S
C475 C476 1.383 . S
C475 H483 0.929 . S
C476 C475 1.383 . S
C476 C477 1.377 . S
C477 H461 0.930 . S
C477 C476 1.377 . S
C477 C478 1.379 . S
C478 H462 0.931 . S
C478 C472 1.383 . S
C478 C477 1.379 . S
H479 C473 0.959 . S
H480 C473 0.961 . S
H481 C473 0.960 . S
H482 C474 0.930 . S
H483 C475 0.929 . S
H484 C492 0.929 . S
H485 C494 0.930 . S
H486 C496 0.930 . S
H487 C499 0.929 . S
H488 C502 0.930 . S
H489 C504 0.957 1_455 S
H490 C504 0.960 . S
H491 C504 0.960 . S
C492 H484 0.929 . S
C492 C493 1.377 . S
C492 C494 1.384 . S
C493 C492 1.377 . S
C493 C499 1.390 . S
C494 H485 0.930 . S
C494 C492 1.384 . S
C494 C495 1.372 . S
C495 C494 1.372 . S
C495 C496 1.400 . S
C495 C500 1.490 . S
C496 H486 0.930 . S
C496 C495 1.400 . S
C496 C499 1.386 . S
H497 C513 0.930 . S
H498 C514 0.931 . S
C499 H487 0.929 . S
C499 C493 1.390 . S
C499 C496 1.386 . S
C500 C495 1.490 . S
C500 C502 1.395 . S
C500 C503 1.403 . S
H501 C507 0.930 . S
C502 H488 0.930 . S
C502 C500 1.395 . S
C502 C505 1.403 . S
C503 C500 1.403 . S
C503 C504 1.524 . S
C503 C507 1.400 . S
C504 H489 0.957 1_655 S
C504 H490 0.960 . S
C504 H491 0.960 . S
C504 C503 1.524 . S
C505 C502 1.403 . S
C505 C506 1.392 . S
C505 C509 1.495 . S
C506 C505 1.392 . S
C506 C507 1.385 . S
C506 C508 1.478 . S
C507 H501 0.930 . S
C507 C503 1.400 . S
C507 C506 1.385 . S
C508 C506 1.478 . S
C508 C510 1.381 . S
C508 C514 1.383 . S
C509 C505 1.495 . S
C509 H515 0.959 . S
C509 H516 0.961 . S
C509 H517 0.960 . S
C510 C508 1.381 . S
C510 C511 1.394 . S
C510 H518 0.930 . S
C511 C510 1.394 . S
C511 C512 1.383 . S
C511 H519 0.929 . S
C512 C511 1.383 . S
C512 C513 1.377 . S
C513 H497 0.930 . S
C513 C512 1.377 . S
C513 C514 1.379 . S
C514 H498 0.931 . S
C514 C508 1.383 . S
C514 C513 1.379 . S
H515 C509 0.959 . S
H516 C509 0.961 . S
H517 C509 0.960 . S
H518 C510 0.930 . S
H519 C511 0.929 . S
H520 C528 0.929 . S
H521 C530 0.930 . S
H522 C532 0.930 . S
H523 C535 0.929 . S
H524 C538 0.930 . S
H525 C540 0.960 . S
H526 C540 0.960 . S
H527 C540 0.960 . S
C528 H520 0.929 . S
C528 C529 1.377 . S
C528 C530 1.384 . S
C529 C528 1.377 . S
C529 C535 1.390 . S
C530 H521 0.930 . S
C530 C528 1.384 . S
C530 C531 1.372 . S
C531 C530 1.372 . S
C531 C532 1.400 . S
C531 C536 1.490 . S
C532 H522 0.930 . S
C532 C531 1.400 . S
C532 C535 1.386 . S
H533 C549 0.930 . S
H534 C550 0.931 . S
C535 H523 0.929 . S
C535 C529 1.390 . S
C535 C532 1.386 . S
C536 C531 1.490 . S
C536 C538 1.395 . S
C536 C539 1.403 . S
H537 C543 0.930 . S
C538 H524 0.930 . S
C538 C536 1.395 . S
C538 C541 1.403 . S
C539 C536 1.403 . S
C539 C540 1.524 . S
C539 C543 1.400 . S
C540 H525 0.960 . S
C540 H526 0.960 . S
C540 H527 0.960 . S
C540 C539 1.524 . S
C541 C538 1.403 . S
C541 C542 1.392 . S
C541 C545 1.495 . S
C542 C541 1.392 . S
C542 C543 1.385 . S
C542 C544 1.478 . S
C543 H537 0.930 . S
C543 C539 1.400 . S
C543 C542 1.385 . S
C544 C542 1.478 . S
C544 C546 1.381 . S
C544 C550 1.383 . S
C545 C541 1.495 . S
C545 H551 0.959 . S
C545 H552 0.961 . S
C545 H553 0.960 . S
C546 C544 1.381 . S
C546 C547 1.394 . S
C546 H554 0.930 . S
C547 C546 1.394 . S
C547 C548 1.383 . S
C547 H555 0.894 1_545 S
C548 C547 1.383 . S
C548 C549 1.377 . S
C549 H533 0.930 . S
C549 C548 1.377 . S
C549 C550 1.379 . S
C550 H534 0.931 . S
C550 C544 1.383 . S
C550 C549 1.379 . S
H551 C545 0.959 . S
H552 C545 0.961 . S
H553 C545 0.960 . S
H554 C546 0.930 . S
H555 C547 0.894 1_565 S
H556 C564 0.929 . S
H557 C566 0.930 . S
H558 C568 0.930 . S
H559 C571 0.929 . S
H560 C574 0.930 . S
H561 C576 0.960 . S
H562 C576 0.960 . S
H563 C576 0.960 . S
C564 H556 0.929 . S
C564 C565 1.377 . S
C564 C566 1.384 . S
C565 C564 1.377 . S
C565 C571 1.390 . S
C566 H557 0.930 . S
C566 C564 1.384 . S
C566 C567 1.372 . S
C567 C566 1.372 . S
C567 C568 1.400 . S
C567 C572 1.490 . S
C568 H558 0.930 . S
C568 C567 1.400 . S
C568 C571 1.386 . S
H569 C585 0.930 . S
H570 C586 0.931 . S
C571 H559 0.929 . S
C571 C565 1.390 . S
C571 C568 1.386 . S
C572 C567 1.490 . S
C572 C574 1.395 . S
C572 C575 1.403 . S
H573 C579 0.930 . S
C574 H560 0.930 . S
C574 C572 1.395 . S
C574 C577 1.403 . S
C575 C572 1.403 . S
C575 C576 1.524 . S
C575 C579 1.400 . S
C576 H561 0.960 . S
C576 H562 0.960 . S
C576 H563 0.960 . S
C576 C575 1.524 . S
C577 C574 1.403 . S
C577 C578 1.392 . S
C577 C581 1.495 . S
C578 C577 1.392 . S
C578 C579 1.385 . S
C578 C580 1.478 . S
C579 H573 0.930 . S
C579 C575 1.400 . S
C579 C578 1.385 . S
C580 C578 1.478 . S
C580 C582 1.381 . S
C580 C586 1.383 . S
C581 C577 1.495 . S
C581 H587 0.959 . S
C581 H588 0.961 . S
C581 H589 0.960 . S
C582 C580 1.381 . S
C582 C583 1.394 . S
C582 H590 0.930 . S
C583 C582 1.394 . S
C583 C584 1.383 . S
C583 H591 0.929 . S
C584 C583 1.383 . S
C584 C585 1.377 . S
C585 H569 0.930 . S
C585 C584 1.377 . S
C585 C586 1.379 . S
C586 H570 0.931 . S
C586 C580 1.383 . S
C586 C585 1.379 . S
H587 C581 0.959 . S
H588 C581 0.961 . S
H589 C581 0.960 . S
H590 C582 0.930 . S
H591 C583 0.929 . S
H592 C600 0.929 . S
H593 C602 0.930 . S
H594 C604 0.930 . S
H595 C607 0.929 . S
H596 C610 0.930 . S
H597 C612 0.960 1_554 S
H598 C612 0.960 . S
H599 C612 0.960 . S
C600 H592 0.929 . S
C600 C601 1.377 . S
C600 C602 1.384 . S
C601 C600 1.377 . S
C601 C607 1.390 . S
C602 H593 0.930 . S
C602 C600 1.384 . S
C602 C603 1.372 . S
C603 C602 1.372 . S
C603 C604 1.400 . S
C603 C608 1.490 . S
C604 H594 0.930 . S
C604 C603 1.400 . S
C604 C607 1.386 . S
H605 C621 0.930 . S
H606 C622 0.931 . S
C607 H595 0.929 . S
C607 C601 1.390 . S
C607 C604 1.386 . S
C608 C603 1.490 . S
C608 C610 1.395 . S
C608 C611 1.403 . S
H609 C615 0.930 . S
C610 H596 0.930 . S
C610 C608 1.395 . S
C610 C613 1.403 . S
C611 C608 1.403 . S
C611 C612 1.524 . S
C611 C615 1.400 . S
C612 H597 0.960 1_556 S
C612 H598 0.960 . S
C612 H599 0.960 . S
C612 C611 1.524 . S
C613 C610 1.403 . S
C613 C614 1.392 . S
C613 C617 1.495 . S
C614 C613 1.392 . S
C614 C615 1.385 . S
C614 C616 1.478 . S
C615 H609 0.930 . S
C615 C611 1.400 . S
C615 C614 1.385 . S
C616 C614 1.478 . S
C616 C618 1.381 . S
C616 C622 1.383 . S
C617 C613 1.495 . S
C617 H623 0.959 . S
C617 H624 0.961 . S
C617 H625 0.960 . S
C618 C616 1.381 . S
C618 C619 1.394 . S
C618 H626 0.930 . S
C619 C618 1.394 . S
C619 C620 1.383 . S
C619 H627 0.929 . S
C620 C619 1.383 . S
C620 C621 1.377 . S
C621 H605 0.930 . S
C621 C620 1.377 . S
C621 C622 1.379 . S
C622 H606 0.931 . S
C622 C616 1.383 . S
C622 C621 1.379 . S
H623 C617 0.959 . S
H624 C617 0.961 . S
H625 C617 0.960 . S
H626 C618 0.930 . S
H627 C619 0.929 . S
H628 C636 0.929 . S
H629 C638 0.930 . S
H630 C640 0.930 . S
H631 C643 0.929 . S
H632 C646 0.930 . S
H633 C648 0.960 . S
H634 C648 0.960 . S
H635 C648 0.960 . S
C636 H628 0.929 . S
C636 C637 1.377 . S
C636 C638 1.384 . S
C637 C636 1.377 . S
C637 C643 1.390 . S
C638 H629 0.930 . S
C638 C636 1.384 . S
C638 C639 1.372 . S
C639 C638 1.372 . S
C639 C640 1.400 . S
C639 C644 1.490 . S
C640 H630 0.930 . S
C640 C639 1.400 . S
C640 C643 1.386 . S
H641 C657 0.930 . S
H642 C658 0.931 . S
C643 H631 0.929 . S
C643 C637 1.390 . S
C643 C640 1.386 . S
C644 C639 1.490 . S
C644 C646 1.395 . S
C644 C647 1.403 . S
H645 C651 0.930 . S
C646 H632 0.930 . S
C646 C644 1.395 . S
C646 C649 1.403 . S
C647 C644 1.403 . S
C647 C648 1.524 . S
C647 C651 1.400 . S
C648 H633 0.960 . S
C648 H634 0.960 . S
C648 H635 0.960 . S
C648 C647 1.524 . S
C649 C646 1.403 . S
C649 C650 1.392 . S
C649 C653 1.495 . S
C650 C649 1.392 . S
C650 C651 1.385 . S
C650 C652 1.478 . S
C651 H645 0.930 . S
C651 C647 1.400 . S
C651 C650 1.385 . S
C652 C650 1.478 . S
C652 C654 1.381 . S
C652 C658 1.383 . S
C653 C649 1.495 . S
C653 H659 0.959 . S
C653 H660 0.961 . S
C653 H661 0.960 . S
C654 C652 1.381 . S
C654 C655 1.394 . S
C654 H662 0.930 . S
C655 C654 1.394 . S
C655 C656 1.383 . S
C655 H663 0.929 . S
C656 C655 1.383 . S
C656 C657 1.377 . S
C657 H641 0.930 . S
C657 C656 1.377 . S
C657 C658 1.379 . S
C658 H642 0.931 . S
C658 C652 1.383 . S
C658 C657 1.379 . S
H659 C653 0.959 . S
H660 C653 0.961 . S
H661 C653 0.960 . S
H662 C654 0.930 . S
H663 C655 0.929 . S
H664 C672 0.929 . S
H665 C674 0.930 . S
H666 C676 0.930 . S
H667 C679 0.929 . S
H668 C682 0.930 . S
H669 C684 0.976 . S
H670 C684 0.960 . S
H671 C684 0.960 . S
C672 H664 0.929 . S
C672 C673 1.377 . S
C672 C674 1.384 . S
C673 C672 1.377 . S
C673 C679 1.390 . S
C674 H665 0.930 . S
C674 C672 1.384 . S
C674 C675 1.372 . S
C675 C674 1.372 . S
C675 C676 1.400 . S
C675 C680 1.490 . S
C676 H666 0.930 . S
C676 C675 1.400 . S
C676 C679 1.386 . S
H677 C693 0.930 . S
H678 C694 0.931 . S
C679 H667 0.929 . S
C679 C673 1.390 . S
C679 C676 1.386 . S
C680 C675 1.490 . S
C680 C682 1.395 . S
C680 C683 1.403 . S
H681 C687 0.930 . S
C682 H668 0.930 . S
C682 C680 1.395 . S
C682 C685 1.403 . S
C683 C680 1.403 . S
C683 C684 1.524 . S
C683 C687 1.400 . S
C684 H669 0.976 . S
C684 H670 0.960 . S
C684 H671 0.960 . S
C684 C683 1.524 . S
C685 C682 1.403 . S
C685 C686 1.392 . S
C685 C689 1.495 . S
C686 C685 1.392 . S
C686 C687 1.385 . S
C686 C688 1.478 . S
C687 H681 0.930 . S
C687 C683 1.400 . S
C687 C686 1.385 . S
C688 C686 1.478 . S
C688 C690 1.381 . S
C688 C694 1.383 . S
C689 C685 1.495 . S
C689 H695 0.959 . S
C689 H696 0.961 . S
C689 H697 0.960 . S
C690 C688 1.381 . S
C690 C691 1.394 . S
C690 H698 0.930 . S
C691 C690 1.394 . S
C691 C692 1.383 . S
C691 H699 0.929 . S
C692 C691 1.383 . S
C692 C693 1.377 . S
C693 H677 0.930 . S
C693 C692 1.377 . S
C693 C694 1.379 . S
C694 H678 0.931 . S
C694 C688 1.383 . S
C694 C693 1.379 . S
H695 C689 0.959 . S
H696 C689 0.961 . S
H697 C689 0.960 . S
H698 C690 0.930 . S
H699 C691 0.929 . S
H700 C708 0.929 . S
H701 C710 0.930 . S
H702 C712 0.930 . S
H703 C715 0.929 . S
H704 C718 0.930 . S
H705 C720 0.960 . S
H706 C720 0.960 . S
H707 C720 0.960 . S
C708 H700 0.929 . S
C708 C709 1.377 . S
C708 C710 1.384 . S
C709 C708 1.377 . S
C709 C715 1.390 . S
C710 H701 0.930 . S
C710 C708 1.384 . S
C710 C711 1.372 . S
C711 C710 1.372 . S
C711 C712 1.400 . S
C711 C716 1.490 . S
C712 H702 0.930 . S
C712 C711 1.400 . S
C712 C715 1.386 . S
H713 C729 0.909 1_554 S
H714 C730 0.931 1_554 S
C715 H703 0.929 . S
C715 C709 1.390 . S
C715 C712 1.386 . S
C716 C711 1.490 . S
C716 C718 1.395 . S
C716 C719 1.403 . S
H717 C723 0.930 . S
C718 H704 0.930 . S
C718 C716 1.395 . S
C718 C721 1.403 . S
C719 C716 1.403 . S
C719 C720 1.524 . S
C719 C723 1.400 . S
C720 H705 0.960 . S
C720 H706 0.960 . S
C720 H707 0.960 . S
C720 C719 1.524 . S
C721 C718 1.403 . S
C721 C722 1.392 . S
C721 C725 1.495 . S
C722 C721 1.392 . S
C722 C723 1.385 . S
C722 C724 1.478 . S
C723 H717 0.930 . S
C723 C719 1.400 . S
C723 C722 1.385 . S
C724 C722 1.478 . S
C724 C726 1.381 . S
C724 C730 1.383 . S
C725 C721 1.495 . S
C725 H731 0.959 . S
C725 H732 0.961 . S
C725 H733 0.960 . S
C726 C724 1.381 . S
C726 C727 1.394 . S
C726 H734 0.930 . S
C727 C726 1.394 . S
C727 C728 1.383 . S
C727 H735 0.929 . S
C728 C727 1.383 . S
C728 C729 1.392 . S
C729 H713 0.909 1_556 S
C729 C728 1.392 . S
C729 C730 1.385 . S
C730 H714 0.931 1_556 S
C730 C724 1.383 . S
C730 C729 1.385 . S
H731 C725 0.959 . S
H732 C725 0.961 . S
H733 C725 0.960 . S
H734 C726 0.930 . S
H735 C727 0.929 . S
H736 C744 0.929 . S
H737 C746 0.930 . S
H738 C748 0.930 . S
H739 C751 0.929 . S
H740 C754 0.930 . S
H741 C756 0.960 . S
H742 C756 0.960 . S
H743 C756 0.960 . S
C744 H736 0.929 . S
C744 C745 1.377 . S
C744 C746 1.384 . S
C745 C744 1.377 . S
C745 C751 1.390 . S
C746 H737 0.930 . S
C746 C744 1.384 . S
C746 C747 1.372 . S
C747 C746 1.372 . S
C747 C748 1.400 . S
C747 C752 1.490 . S
C748 H738 0.930 . S
C748 C747 1.400 . S
C748 C751 1.386 . S
H749 C765 0.930 1_455 S
H750 C766 0.931 . S
C751 H739 0.929 . S
C751 C745 1.390 . S
C751 C748 1.386 . S
C752 C747 1.490 . S
C752 C754 1.395 . S
C752 C755 1.403 . S
H753 C759 0.930 . S
C754 H740 0.930 . S
C754 C752 1.395 . S
C754 C757 1.403 . S
C755 C752 1.403 . S
C755 C756 1.524 . S
C755 C759 1.400 . S
C756 H741 0.960 . S
C756 H742 0.960 . S
C756 H743 0.960 . S
C756 C755 1.524 . S
C757 C754 1.403 . S
C757 C758 1.392 . S
C757 C761 1.495 . S
C758 C757 1.392 . S
C758 C759 1.385 . S
C758 C760 1.478 . S
C759 H753 0.930 . S
C759 C755 1.400 . S
C759 C758 1.385 . S
C760 C758 1.478 . S
C760 C762 1.381 . S
C760 C766 1.383 . S
C761 C757 1.495 . S
C761 H767 0.959 . S
C761 H768 0.961 1_655 S
C761 H769 0.960 . S
C762 C760 1.381 . S
C762 C763 1.394 . S
C762 H770 0.930 . S
C763 C762 1.394 . S
C763 C764 1.383 . S
C763 H771 0.929 . S
C764 C763 1.383 . S
C764 C765 1.377 . S
C765 H749 0.930 1_655 S
C765 C764 1.377 . S
C765 C766 1.379 . S
C766 H750 0.931 . S
C766 C760 1.383 . S
C766 C765 1.379 . S
H767 C761 0.959 . S
H768 C761 0.961 1_455 S
H769 C761 0.960 . S
H770 C762 0.930 . S
H771 C763 0.929 . S
H772 C780 0.929 . S
H773 C782 0.930 . S
H774 C784 0.930 . S
H775 C787 0.929 . S
H776 C790 0.930 . S
H777 C792 0.960 . S
H778 C792 0.960 . S
H779 C792 0.960 . S
C780 H772 0.929 . S
C780 C781 1.377 . S
C780 C782 1.384 . S
C781 C780 1.377 . S
C781 C787 1.390 . S
C782 H773 0.930 . S
C782 C780 1.384 . S
C782 C783 1.372 . S
C783 C782 1.372 . S
C783 C784 1.400 . S
C783 C788 1.490 . S
C784 H774 0.930 . S
C784 C783 1.400 . S
C784 C787 1.386 . S
H785 C801 0.930 . S
H786 C802 0.931 . S
C787 H775 0.929 . S
C787 C781 1.390 . S
C787 C784 1.386 . S
C788 C783 1.490 . S
C788 C790 1.395 . S
C788 C791 1.403 . S
H789 C795 0.930 . S
C790 H776 0.930 . S
C790 C788 1.395 . S
C790 C793 1.403 . S
C791 C788 1.403 . S
C791 C792 1.524 . S
C791 C795 1.400 . S
C792 H777 0.960 . S
C792 H778 0.960 . S
C792 H779 0.960 . S
C792 C791 1.524 . S
C793 C790 1.403 . S
C793 C794 1.392 . S
C793 C797 1.495 . S
C794 C793 1.392 . S
C794 C795 1.385 . S
C794 C796 1.478 . S
C795 H789 0.930 . S
C795 C791 1.400 . S
C795 C794 1.385 . S
C796 C794 1.478 . S
C796 C798 1.381 . S
C796 C802 1.383 . S
C797 C793 1.495 . S
C797 H803 0.959 . S
C797 H804 0.961 . S
C797 H805 0.960 . S
C798 C796 1.381 . S
C798 C799 1.394 . S
C798 H806 0.930 . S
C799 C798 1.394 . S
C799 C800 1.383 . S
C799 H807 0.929 . S
C800 C799 1.383 . S
C800 C801 1.377 . S
C801 H785 0.930 . S
C801 C800 1.377 . S
C801 C802 1.379 . S
C802 H786 0.931 . S
C802 C796 1.383 . S
C802 C801 1.379 . S
H803 C797 0.959 . S
H804 C797 0.961 . S
H805 C797 0.960 . S
H806 C798 0.930 . S
H807 C799 0.929 . S
H808 C816 0.929 . S
H809 C818 0.930 . S
H810 C820 0.930 . S
H811 C823 0.929 . S
H812 C826 0.930 . S
H813 C828 0.960 . S
H814 C828 0.960 . S
H815 C828 0.960 . S
C816 H808 0.929 . S
C816 C817 1.377 . S
C816 C818 1.384 . S
C817 C816 1.377 . S
C817 C823 1.390 . S
C818 H809 0.930 . S
C818 C816 1.384 . S
C818 C819 1.372 . S
C819 C818 1.372 . S
C819 C820 1.400 . S
C819 C824 1.490 . S
C820 H810 0.930 . S
C820 C819 1.400 . S
C820 C823 1.386 . S
H821 C837 0.930 . S
H822 C838 0.931 . S
C823 H811 0.929 . S
C823 C817 1.390 . S
C823 C820 1.386 . S
C824 C819 1.490 . S
C824 C826 1.395 . S
C824 C827 1.403 . S
H825 C831 0.930 . S
C826 H812 0.930 . S
C826 C824 1.395 . S
C826 C829 1.403 . S
C827 C824 1.403 . S
C827 C828 1.524 . S
C827 C831 1.400 . S
C828 H813 0.960 . S
C828 H814 0.960 . S
C828 H815 0.960 . S
C828 C827 1.524 . S
C829 C826 1.403 . S
C829 C830 1.392 . S
C829 C833 1.495 1_655 S
C830 C829 1.392 . S
C830 C831 1.385 . S
C830 C832 1.478 . S
C831 H825 0.930 . S
C831 C827 1.400 . S
C831 C830 1.385 . S
C832 C830 1.478 . S
C832 C834 1.381 . S
C832 C838 1.383 . S
C833 C829 1.495 1_455 S
C833 H839 0.959 . S
C833 H840 0.961 . S
C833 H841 0.960 . S
C834 C832 1.381 . S
C834 C835 1.388 1_565 S
C834 H842 0.930 1_565 S
C835 C834 1.388 1_545 S
C835 C836 1.350 1_545 S
C835 H843 0.970 . S
C836 C835 1.350 1_565 S
C836 C837 1.377 . S
C837 H821 0.930 . S
C837 C836 1.377 . S
C837 C838 1.379 . S
C838 H822 0.931 . S
C838 C832 1.383 . S
C838 C837 1.379 . S
H839 C833 0.959 . S
H840 C833 0.961 . S
H841 C833 0.960 . S
H842 C834 0.930 1_545 S
H843 C835 0.970 . S
H844 C852 0.929 . S
H845 C854 0.930 . S
H846 C856 0.930 . S
H847 C859 0.929 . S
H848 C862 0.930 . S
H849 C864 0.960 . S
H850 C864 0.960 . S
H851 C864 0.960 . S
C852 H844 0.929 . S
C852 C853 1.377 . S
C852 C854 1.384 . S
C853 C852 1.377 . S
C853 C859 1.390 . S
C854 H845 0.930 . S
C854 C852 1.384 . S
C854 C855 1.372 . S
C855 C854 1.372 . S
C855 C856 1.400 . S
C855 C860 1.490 . S
C856 H846 0.930 . S
C856 C855 1.400 . S
C856 C859 1.386 . S
H857 C873 0.930 . S
H858 C874 0.931 . S
C859 H847 0.929 . S
C859 C853 1.390 . S
C859 C856 1.386 . S
C860 C855 1.490 . S
C860 C862 1.395 . S
C860 C863 1.403 . S
H861 C867 0.930 . S
C862 H848 0.930 . S
C862 C860 1.395 . S
C862 C865 1.403 . S
C863 C860 1.403 . S
C863 C864 1.524 . S
C863 C867 1.400 . S
C864 H849 0.960 . S
C864 H850 0.960 . S
C864 H851 0.960 . S
C864 C863 1.524 . S
C865 C862 1.403 . S
C865 C866 1.392 . S
C865 C869 1.495 . S
C866 C865 1.392 . S
C866 C867 1.385 . S
C866 C868 1.478 . S
C867 H861 0.930 . S
C867 C863 1.400 . S
C867 C866 1.385 . S
C868 C866 1.478 . S
C868 C870 1.381 . S
C868 C874 1.383 . S
C869 C865 1.495 . S
C869 H875 0.959 . S
C869 H876 0.961 . S
C869 H877 0.960 . S
C870 C868 1.381 . S
C870 C871 1.394 . S
C870 H878 0.930 . S
C871 C870 1.394 . S
C871 C872 1.383 . S
C871 H879 0.929 . S
C872 C871 1.383 . S
C872 C873 1.377 . S
C873 H857 0.930 . S
C873 C872 1.377 . S
C873 C874 1.379 . S
C874 H858 0.931 . S
C874 C868 1.383 . S
C874 C873 1.379 . S
H875 C869 0.959 . S
H876 C869 0.961 . S
H877 C869 0.960 . S
H878 C870 0.930 . S
H879 C871 0.929 . S
H880 C888 0.929 . S
H881 C890 0.930 . S
H882 C892 0.930 . S
H883 C895 0.929 . S
H884 C898 0.930 . S
H885 C900 0.960 . S
H886 C900 0.960 . S
H887 C900 0.960 . S
C888 H880 0.929 . S
C888 C889 1.377 . S
C888 C890 1.384 . S
C889 C888 1.377 . S
C889 C895 1.390 . S
C890 H881 0.930 . S
C890 C888 1.384 . S
C890 C891 1.372 . S
C891 C890 1.372 . S
C891 C892 1.400 . S
C891 C896 1.490 . S
C892 H882 0.930 . S
C892 C891 1.400 . S
C892 C895 1.386 . S
H893 C909 0.930 . S
H894 C910 0.931 . S
C895 H883 0.929 . S
C895 C889 1.390 . S
C895 C892 1.386 . S
C896 C891 1.490 . S
C896 C898 1.395 . S
C896 C899 1.403 . S
H897 C903 0.930 . S
C898 H884 0.930 . S
C898 C896 1.395 . S
C898 C901 1.403 . S
C899 C896 1.403 . S
C899 C900 1.524 . S
C899 C903 1.400 . S
C900 H885 0.960 . S
C900 H886 0.960 . S
C900 H887 0.960 . S
C900 C899 1.524 . S
C901 C898 1.403 . S
C901 C902 1.392 . S
C901 C905 1.495 . S
C902 C901 1.392 . S
C902 C903 1.385 . S
C902 C904 1.478 . S
C903 H897 0.930 . S
C903 C899 1.400 . S
C903 C902 1.385 . S
C904 C902 1.478 . S
C904 C906 1.381 . S
C904 C910 1.383 . S
C905 C901 1.495 . S
C905 H911 0.959 . S
C905 H912 0.961 . S
C905 H913 0.960 . S
C906 C904 1.381 . S
C906 C907 1.394 . S
C906 H914 0.930 . S
C907 C906 1.394 . S
C907 C908 1.383 . S
C907 H915 0.929 . S
C908 C907 1.383 . S
C908 C909 1.377 . S
C909 H893 0.930 . S
C909 C908 1.377 . S
C909 C910 1.379 . S
C910 H894 0.931 . S
C910 C904 1.383 . S
C910 C909 1.379 . S
H911 C905 0.959 . S
H912 C905 0.961 . S
H913 C905 0.960 . S
H914 C906 0.930 . S
H915 C907 0.929 . S
H916 C924 0.929 . S
H917 C926 0.930 . S
H918 C928 0.930 . S
H919 C931 0.929 . S
H920 C934 0.930 . S
H921 C936 0.976 . S
H922 C936 0.960 . S
H923 C936 0.960 . S
C924 H916 0.929 . S
C924 C925 1.377 . S
C924 C926 1.384 . S
C925 C924 1.377 . S
C925 C931 1.390 . S
C926 H917 0.930 . S
C926 C924 1.384 . S
C926 C927 1.372 . S
C927 C926 1.372 . S
C927 C928 1.400 . S
C927 C932 1.490 . S
C928 H918 0.930 . S
C928 C927 1.400 . S
C928 C931 1.386 . S
H929 C945 0.930 . S
H930 C946 0.931 . S
C931 H919 0.929 . S
C931 C925 1.390 . S
C931 C928 1.386 . S
C932 C927 1.490 . S
C932 C934 1.395 . S
C932 C935 1.403 . S
H933 C939 0.930 . S
C934 H920 0.930 . S
C934 C932 1.395 . S
C934 C937 1.403 . S
C935 C932 1.403 . S
C935 C936 1.524 . S
C935 C939 1.400 . S
C936 H921 0.976 . S
C936 H922 0.960 . S
C936 H923 0.960 . S
C936 C935 1.524 . S
C937 C934 1.403 . S
C937 C938 1.392 . S
C937 C941 1.495 . S
C938 C937 1.392 . S
C938 C939 1.385 . S
C938 C940 1.478 . S
C939 H933 0.930 . S
C939 C935 1.400 . S
C939 C938 1.385 . S
C940 C938 1.478 . S
C940 C942 1.381 . S
C940 C946 1.383 . S
C941 C937 1.495 . S
C941 H947 0.959 . S
C941 H948 0.961 . S
C941 H949 0.960 . S
C942 C940 1.381 . S
C942 C943 1.394 . S
C942 H950 0.930 . S
C943 C942 1.394 . S
C943 C944 1.383 . S
C943 H951 0.929 . S
C944 C943 1.383 . S
C944 C945 1.377 . S
C945 H929 0.930 . S
C945 C944 1.377 . S
C945 C946 1.379 . S
C946 H930 0.931 . S
C946 C940 1.383 . S
C946 C945 1.379 . S
H947 C941 0.959 . S
H948 C941 0.961 . S
H949 C941 0.960 . S
H950 C942 0.930 . S
H951 C943 0.929 . S
H952 C960 0.929 . S
H953 C962 0.930 . S
H954 C964 0.930 . S
H955 C967 0.929 . S
H956 C970 0.930 . S
H957 C972 0.960 . S
H958 C972 0.960 . S
H959 C972 0.960 . S
C960 H952 0.929 . S
C960 C961 1.377 . S
C960 C962 1.384 . S
C961 C960 1.377 . S
C961 C967 1.390 . S
C962 H953 0.930 . S
C962 C960 1.384 . S
C962 C963 1.372 . S
C963 C962 1.372 . S
C963 C964 1.400 . S
C963 C968 1.490 . S
C964 H954 0.930 . S
C964 C963 1.400 . S
C964 C967 1.386 . S
H965 C981 0.930 1_545 S
H966 C982 0.931 1_545 S
C967 H955 0.929 . S
C967 C961 1.390 . S
C967 C964 1.386 . S
C968 C963 1.490 . S
C968 C970 1.395 . S
C968 C971 1.403 . S
H969 C975 0.930 . S
C970 H956 0.930 . S
C970 C968 1.395 . S
C970 C973 1.403 . S
C971 C968 1.403 . S
C971 C972 1.524 . S
C971 C975 1.400 . S
C972 H957 0.960 . S
C972 H958 0.960 . S
C972 H959 0.960 . S
C972 C971 1.524 . S
C973 C970 1.403 . S
C973 C974 1.392 . S
C973 C977 1.495 1_556 S
C974 C973 1.392 . S
C974 C975 1.385 . S
C974 C976 1.478 . S
C975 H969 0.930 . S
C975 C971 1.400 . S
C975 C974 1.385 . S
C976 C974 1.478 . S
C976 C978 1.381 . S
C976 C982 1.383 . S
C977 C973 1.495 1_554 S
C977 H983 0.959 . S
C977 H984 0.961 . S
C977 H985 0.960 . S
C978 C976 1.381 . S
C978 C979 1.394 1_556 S
C978 H986 0.930 1_556 S
C979 C978 1.394 1_554 S
C979 C980 1.383 1_554 S
C979 H987 0.929 . S
C980 C979 1.383 1_556 S
C980 C981 1.377 . S
C981 H965 0.930 1_565 S
C981 C980 1.377 . S
C981 C982 1.379 . S
C982 H966 0.931 1_565 S
C982 C976 1.383 . S
C982 C981 1.379 . S
H983 C977 0.959 . S
H984 C977 0.961 . S
H985 C977 0.960 . S
H986 C978 0.930 1_554 S
H987 C979 0.929 . S
H988 C996 0.929 . S
H989 C998 0.930 . S
H990 C1000 0.930 . S
H991 C1003 0.929 . S
H992 C1006 0.930 . S
H993 C1008 0.960 . S
H994 C1008 0.960 . S
H995 C1008 0.960 . S
C996 H988 0.929 . S
C996 C997 1.377 . S
C996 C998 1.384 . S
C997 C996 1.377 . S
C997 C1003 1.390 . S
C998 H989 0.930 . S
C998 C996 1.384 . S
C998 C999 1.372 . S
C999 C998 1.372 . S
C999 C1000 1.400 . S
C999 C1004 1.490 . S
C1000 H990 0.930 . S
C1000 C999 1.400 . S
C1000 C1003 1.386 . S
H1001 C1017 0.930 . S
H1002 C1018 0.931 . S
C1003 H991 0.929 . S
C1003 C997 1.390 . S
C1003 C1000 1.386 . S
C1004 C999 1.490 . S
C1004 C1006 1.395 . S
C1004 C1007 1.403 . S
H1005 C1011 0.930 . S
C1006 H992 0.930 . S
C1006 C1004 1.395 . S
C1006 C1009 1.403 . S
C1007 C1004 1.403 . S
C1007 C1008 1.524 . S
C1007 C1011 1.400 . S
C1008 H993 0.960 . S
C1008 H994 0.960 . S
C1008 H995 0.960 . S
C1008 C1007 1.524 . S
C1009 C1006 1.403 . S
C1009 C1010 1.392 . S
C1009 C1013 1.495 . S
C1010 C1009 1.392 . S
C1010 C1011 1.385 . S
C1010 C1012 1.478 . S
C1011 H1005 0.930 . S
C1011 C1007 1.400 . S
C1011 C1010 1.385 . S
C1012 C1010 1.478 . S
C1012 C1014 1.381 . S
C1012 C1018 1.383 . S
C1013 C1009 1.495 . S
C1013 H1019 0.959 . S
C1013 H1020 0.961 . S
C1013 H1021 0.960 . S
C1014 C1012 1.381 . S
C1014 C1015 1.394 . S
C1014 H1022 0.930 . S
C1015 C1014 1.394 . S
C1015 C1016 1.383 . S
C1015 H1023 0.929 . S
C1016 C1015 1.383 . S
C1016 C1017 1.377 . S
C1017 H1001 0.930 . S
C1017 C1016 1.377 . S
C1017 C1018 1.379 . S
C1018 H1002 0.931 . S
C1018 C1012 1.383 . S
C1018 C1017 1.379 . S
H1019 C1013 0.959 . S
H1020 C1013 0.961 . S
H1021 C1013 0.960 . S
H1022 C1014 0.930 . S
H1023 C1015 0.929 . S
H1024 C1032 0.929 . S
H1025 C1034 0.930 . S
H1026 C1036 0.930 . S
H1027 C1039 0.929 . S
H1028 C1042 0.930 . S
H1029 C1044 0.960 . S
H1030 C1044 0.960 . S
H1031 C1044 0.960 . S
C1032 H1024 0.929 . S
C1032 C1033 1.377 . S
C1032 C1034 1.384 . S
C1033 C1032 1.377 . S
C1033 C1039 1.390 . S
C1034 H1025 0.930 . S
C1034 C1032 1.384 . S
C1034 C1035 1.372 . S
C1035 C1034 1.372 . S
C1035 C1036 1.400 . S
C1035 C1040 1.490 . S
C1036 H1026 0.930 . S
C1036 C1035 1.400 . S
C1036 C1039 1.386 . S
H1037 C1053 0.910 1_556 S
H1038 C1054 0.931 . S
C1039 H1027 0.929 . S
C1039 C1033 1.390 . S
C1039 C1036 1.386 . S
C1040 C1035 1.490 . S
C1040 C1042 1.395 . S
C1040 C1043 1.403 . S
H1041 C1047 0.930 . S
C1042 H1028 0.930 . S
C1042 C1040 1.395 . S
C1042 C1045 1.403 . S
C1043 C1040 1.403 . S
C1043 C1044 1.524 . S
C1043 C1047 1.400 . S
C1044 H1029 0.960 . S
C1044 H1030 0.960 . S
C1044 H1031 0.960 . S
C1044 C1043 1.524 . S
C1045 C1042 1.403 . S
C1045 C1046 1.392 . S
C1045 C1049 1.495 . S
C1046 C1045 1.392 . S
C1046 C1047 1.385 . S
C1046 C1048 1.478 . S
C1047 H1041 0.930 . S
C1047 C1043 1.400 . S
C1047 C1046 1.385 . S
C1048 C1046 1.478 . S
C1048 C1050 1.381 . S
C1048 C1054 1.383 . S
C1049 C1045 1.495 . S
C1049 H1055 0.959 . S
C1049 H1056 0.961 . S
C1049 H1057 0.960 . S
C1050 C1048 1.381 . S
C1050 C1051 1.394 . S
C1050 H1058 0.930 . S
C1051 C1050 1.394 . S
C1051 C1052 1.383 . S
C1051 H1059 0.929 . S
C1052 C1051 1.383 . S
C1052 C1053 1.377 . S
C1053 H1037 0.910 1_554 S
C1053 C1052 1.377 . S
C1053 C1054 1.379 . S
C1054 H1038 0.931 . S
C1054 C1048 1.383 . S
C1054 C1053 1.379 . S
H1055 C1049 0.959 . S
H1056 C1049 0.961 . S
H1057 C1049 0.960 . S
H1058 C1050 0.930 . S
H1059 C1051 0.929 . S
H1060 C1068 0.929 . S
H1061 C1070 0.930 . S
H1062 C1072 0.930 . S
H1063 C1075 0.929 . S
H1064 C1078 0.930 . S
H1065 C1080 0.960 . S
H1066 C1080 0.960 . S
H1067 C1080 0.960 . S
C1068 H1060 0.929 . S
C1068 C1069 1.377 . S
C1068 C1070 1.384 . S
C1069 C1068 1.377 . S
C1069 C1075 1.390 . S
C1070 H1061 0.930 . S
C1070 C1068 1.384 . S
C1070 C1071 1.372 . S
C1071 C1070 1.372 . S
C1071 C1072 1.400 . S
C1071 C1076 1.490 . S
C1072 H1062 0.930 . S
C1072 C1071 1.400 . S
C1072 C1075 1.386 . S
H1073 C1089 0.930 . S
H1074 C1090 0.931 . S
C1075 H1063 0.929 . S
C1075 C1069 1.390 . S
C1075 C1072 1.386 . S
C1076 C1071 1.490 . S
C1076 C1078 1.395 . S
C1076 C1079 1.403 . S
H1077 C1083 0.930 . S
C1078 H1064 0.930 . S
C1078 C1076 1.395 . S
C1078 C1081 1.403 . S
C1079 C1076 1.403 . S
C1079 C1080 1.524 . S
C1079 C1083 1.400 . S
C1080 H1065 0.960 . S
C1080 H1066 0.960 . S
C1080 H1067 0.960 . S
C1080 C1079 1.524 . S
C1081 C1078 1.403 . S
C1081 C1082 1.392 . S
C1081 C1085 1.495 . S
C1082 C1081 1.392 . S
C1082 C1083 1.385 . S
C1082 C1084 1.478 . S
C1083 H1077 0.930 . S
C1083 C1079 1.400 . S
C1083 C1082 1.385 . S
C1084 C1082 1.478 . S
C1084 C1086 1.381 . S
C1084 C1090 1.383 . S
C1085 C1081 1.495 . S
C1085 H1091 0.959 . S
C1085 H1092 0.961 . S
C1085 H1093 0.960 . S
C1086 C1084 1.381 . S
C1086 C1087 1.394 . S
C1086 H1094 0.930 . S
C1087 C1086 1.394 . S
C1087 C1088 1.383 . S
C1087 H1095 0.929 . S
C1088 C1087 1.383 . S
C1088 C1089 1.377 . S
C1089 H1073 0.930 . S
C1089 C1088 1.377 . S
C1089 C1090 1.379 . S
C1090 H1074 0.931 . S
C1090 C1084 1.383 . S
C1090 C1089 1.379 . S
H1091 C1085 0.959 . S
H1092 C1085 0.961 . S
H1093 C1085 0.960 . S
H1094 C1086 0.930 . S
H1095 C1087 0.929 . S
H1096 C1104 0.929 . S
H1097 C1106 0.930 . S
H1098 C1108 0.930 . S
H1099 C1111 0.929 . S
H1100 C1114 0.930 . S
H1101 C1116 0.983 . S
H1102 C1116 0.960 . S
H1103 C1116 0.960 . S
C1104 H1096 0.929 . S
C1104 C1105 1.377 . S
C1104 C1106 1.384 . S
C1105 C1104 1.377 . S
C1105 C1111 1.390 . S
C1106 H1097 0.930 . S
C1106 C1104 1.384 . S
C1106 C1107 1.372 . S
C1107 C1106 1.372 . S
C1107 C1108 1.400 . S
C1107 C1112 1.490 . S
C1108 H1098 0.930 . S
C1108 C1107 1.400 . S
C1108 C1111 1.386 . S
H1109 C1125 0.952 . S
H1110 C1126 0.931 . S
C1111 H1099 0.929 . S
C1111 C1105 1.390 . S
C1111 C1108 1.386 . S
C1112 C1107 1.490 . S
C1112 C1114 1.395 . S
C1112 C1115 1.403 . S
H1113 C1119 0.930 . S
C1114 H1100 0.930 . S
C1114 C1112 1.395 . S
C1114 C1117 1.403 . S
C1115 C1112 1.403 . S
C1115 C1116 1.524 . S
C1115 C1119 1.400 . S
C1116 H1101 0.983 . S
C1116 H1102 0.960 . S
C1116 H1103 0.960 . S
C1116 C1115 1.524 . S
C1117 C1114 1.403 . S
C1117 C1118 1.392 . S
C1117 C1121 1.495 . S
C1118 C1117 1.392 . S
C1118 C1119 1.385 . S
C1118 C1120 1.478 . S
C1119 H1113 0.930 . S
C1119 C1115 1.400 . S
C1119 C1118 1.385 . S
C1120 C1118 1.478 . S
C1120 C1122 1.381 . S
C1120 C1126 1.383 . S
C1121 C1117 1.495 . S
C1121 H1127 0.959 . S
C1121 H1128 0.961 . S
C1121 H1129 0.960 . S
C1122 C1120 1.381 . S
C1122 C1123 1.389 1_556 S
C1122 H1130 0.930 1_556 S
C1123 C1122 1.389 1_554 S
C1123 C1124 1.370 1_554 S
C1123 H1131 0.948 . S
C1124 C1123 1.370 1_556 S
C1124 C1125 1.377 . S
C1125 H1109 0.952 . S
C1125 C1124 1.377 . S
C1125 C1126 1.379 . S
C1126 H1110 0.931 . S
C1126 C1120 1.383 . S
C1126 C1125 1.379 . S
H1127 C1121 0.959 . S
H1128 C1121 0.961 . S
H1129 C1121 0.960 . S
H1130 C1122 0.930 1_554 S
H1131 C1123 0.948 . S
H1132 C1140 0.929 . S
H1133 C1142 0.930 . S
H1134 C1144 0.930 . S
H1135 C1147 0.929 . S
H1136 C1150 0.930 . S
H1137 C1152 0.960 . S
H1138 C1152 0.960 . S
H1139 C1152 0.960 . S
C1140 H1132 0.929 . S
C1140 C1141 1.377 . S
C1140 C1142 1.384 . S
C1141 C1140 1.377 . S
C1141 C1147 1.390 . S
C1142 H1133 0.930 . S
C1142 C1140 1.384 . S
C1142 C1143 1.372 . S
C1143 C1142 1.372 . S
C1143 C1144 1.400 . S
C1143 C1148 1.490 . S
C1144 H1134 0.930 . S
C1144 C1143 1.400 . S
C1144 C1147 1.386 . S
H1145 C1161 0.930 . S
H1146 C1162 0.931 . S
C1147 H1135 0.929 . S
C1147 C1141 1.390 . S
C1147 C1144 1.386 . S
C1148 C1143 1.490 . S
C1148 C1150 1.395 . S
C1148 C1151 1.403 . S
H1149 C1155 0.930 . S
C1150 H1136 0.930 . S
C1150 C1148 1.395 . S
C1150 C1153 1.403 . S
C1151 C1148 1.403 . S
C1151 C1152 1.524 . S
C1151 C1155 1.400 . S
C1152 H1137 0.960 . S
C1152 H1138 0.960 . S
C1152 H1139 0.960 . S
C1152 C1151 1.524 . S
C1153 C1150 1.403 . S
C1153 C1154 1.392 . S
C1153 C1157 1.495 . S
C1154 C1153 1.392 . S
C1154 C1155 1.385 . S
C1154 C1156 1.478 . S
C1155 H1149 0.930 . S
C1155 C1151 1.400 . S
C1155 C1154 1.385 . S
C1156 C1154 1.478 . S
C1156 C1158 1.381 . S
C1156 C1162 1.383 . S
C1157 C1153 1.495 . S
C1157 H1163 0.959 . S
C1157 H1164 0.961 . S
C1157 H1165 0.960 . S
C1158 C1156 1.381 . S
C1158 C1159 1.394 . S
C1158 H1166 0.930 . S
C1159 C1158 1.394 . S
C1159 C1160 1.383 . S
C1159 H1167 0.929 . S
C1160 C1159 1.383 . S
C1160 C1161 1.377 . S
C1161 H1145 0.930 . S
C1161 C1160 1.377 . S
C1161 C1162 1.379 . S
C1162 H1146 0.931 . S
C1162 C1156 1.383 . S
C1162 C1161 1.379 . S
H1163 C1157 0.959 . S
H1164 C1157 0.961 . S
H1165 C1157 0.960 . S
H1166 C1158 0.930 . S
H1167 C1159 0.929 . S
H1168 C1176 0.929 . S
H1169 C1178 0.930 . S
H1170 C1180 0.930 . S
H1171 C1183 0.929 . S
H1172 C1186 0.930 . S
H1173 C1188 0.960 . S
H1174 C1188 0.960 . S
H1175 C1188 0.960 . S
C1176 H1168 0.929 . S
C1176 C1177 1.377 . S
C1176 C1178 1.384 . S
C1177 C1176 1.377 . S
C1177 C1183 1.390 . S
C1178 H1169 0.930 . S
C1178 C1176 1.384 . S
C1178 C1179 1.372 . S
C1179 C1178 1.372 . S
C1179 C1180 1.400 . S
C1179 C1184 1.490 . S
C1180 H1170 0.930 . S
C1180 C1179 1.400 . S
C1180 C1183 1.386 . S
H1181 C1197 0.930 . S
H1182 C1198 0.931 . S
C1183 H1171 0.929 . S
C1183 C1177 1.390 . S
C1183 C1180 1.386 . S
C1184 C1179 1.490 . S
C1184 C1186 1.395 . S
C1184 C1187 1.403 . S
H1185 C1191 0.930 . S
C1186 H1172 0.930 . S
C1186 C1184 1.395 . S
C1186 C1189 1.403 . S
C1187 C1184 1.403 . S
C1187 C1188 1.524 . S
C1187 C1191 1.400 . S
C1188 H1173 0.960 . S
C1188 H1174 0.960 . S
C1188 H1175 0.960 . S
C1188 C1187 1.524 . S
C1189 C1186 1.403 . S
C1189 C1190 1.392 . S
C1189 C1193 1.495 1_455 S
C1190 C1189 1.392 . S
C1190 C1191 1.385 . S
C1190 C1192 1.478 . S
C1191 H1185 0.930 . S
C1191 C1187 1.400 . S
C1191 C1190 1.385 . S
C1192 C1190 1.478 . S
C1192 C1194 1.381 . S
C1192 C1198 1.383 . S
C1193 C1189 1.495 1_655 S
C1193 H1199 0.959 . S
C1193 H1200 0.961 . S
C1193 H1201 0.960 . S
C1194 C1192 1.381 . S
C1194 C1195 1.394 . S
C1194 H1202 0.930 . S
C1195 C1194 1.394 . S
C1195 C1196 1.383 . S
C1195 H1203 0.929 . S
C1196 C1195 1.383 . S
C1196 C1197 1.377 . S
C1197 H1181 0.930 . S
C1197 C1196 1.377 . S
C1197 C1198 1.379 . S
C1198 H1182 0.931 . S
C1198 C1192 1.383 . S
C1198 C1197 1.379 . S
H1199 C1193 0.959 . S
H1200 C1193 0.961 . S
H1201 C1193 0.960 . S
H1202 C1194 0.930 . S
H1203 C1195 0.929 . S
H1204 C1212 0.929 . S
H1205 C1214 0.930 . S
H1206 C1216 0.930 . S
H1207 C1219 0.929 . S
H1208 C1222 0.930 . S
H1209 C1224 0.960 . S
H1210 C1224 0.960 . S
H1211 C1224 0.960 . S
C1212 H1204 0.929 . S
C1212 C1213 1.377 . S
C1212 C1214 1.384 . S
C1213 C1212 1.377 . S
C1213 C1219 1.390 . S
C1214 H1205 0.930 . S
C1214 C1212 1.384 . S
C1214 C1215 1.372 . S
C1215 C1214 1.372 . S
C1215 C1216 1.400 . S
C1215 C1220 1.490 . S
C1216 H1206 0.930 . S
C1216 C1215 1.400 . S
C1216 C1219 1.386 . S
H1217 C1233 0.930 . S
H1218 C1234 0.931 . S
C1219 H1207 0.929 . S
C1219 C1213 1.390 . S
C1219 C1216 1.386 . S
C1220 C1215 1.490 . S
C1220 C1222 1.395 . S
C1220 C1223 1.403 . S
H1221 C1227 0.930 . S
C1222 H1208 0.930 . S
C1222 C1220 1.395 . S
C1222 C1225 1.403 . S
C1223 C1220 1.403 . S
C1223 C1224 1.524 . S
C1223 C1227 1.400 . S
C1224 H1209 0.960 . S
C1224 H1210 0.960 . S
C1224 H1211 0.960 . S
C1224 C1223 1.524 . S
C1225 C1222 1.403 . S
C1225 C1226 1.392 . S
C1225 C1229 1.495 . S
C1226 C1225 1.392 . S
C1226 C1227 1.385 . S
C1226 C1228 1.478 . S
C1227 H1221 0.930 . S
C1227 C1223 1.400 . S
C1227 C1226 1.385 . S
C1228 C1226 1.478 . S
C1228 C1230 1.381 . S
C1228 C1234 1.383 . S
C1229 C1225 1.495 . S
C1229 H1235 0.959 . S
C1229 H1236 0.961 . S
C1229 H1237 0.960 . S
C1230 C1228 1.381 . S
C1230 C1231 1.394 . S
C1230 H1238 0.930 . S
C1231 C1230 1.394 . S
C1231 C1232 1.383 . S
C1231 H1239 0.929 . S
C1232 C1231 1.383 . S
C1232 C1233 1.377 . S
C1233 H1217 0.930 . S
C1233 C1232 1.377 . S
C1233 C1234 1.379 . S
C1234 H1218 0.931 . S
C1234 C1228 1.383 . S
C1234 C1233 1.379 . S
H1235 C1229 0.959 . S
H1236 C1229 0.961 . S
H1237 C1229 0.960 . S
H1238 C1230 0.930 . S
H1239 C1231 0.929 . S
C385 C29 2.115 . S
C404 C272 2.222 . S
C421 C49 1.050 . S
C440 N292 1.033 . S
C476 C326 1.995 . S
C457 C93 1.902 . S
C493 C119 1.189 . S
C512 N360 1.226 . S
C548 C313 2.328 . S
C529 C17 2.247 . S
C584 N270 1.156 . S
C565 C61 1.231 . S
C620 C347 1.929 1_556 S
C601 C81 1.853 . S
C656 N322 1.043 . S
C637 C125 0.975 . S
C673 C23 1.720 . S
C692 C362 1.799 . S
C728 C296 1.659 . S
C709 C87 1.583 . S
C745 C113 1.397 . S
C764 C257 1.466 . S
C781 C55 1.428 . S
C800 C343 1.429 . S
C836 C283 2.146 . S
C817 C157 2.138 . S
C853 C189 1.062 . S
C872 N300 1.077 . S
C889 C221 1.954 . S
C908 C317 1.962 . S
C925 C253 1.231 . S
C944 N352 1.288 . S
C961 C145 2.385 . S
C980 C302 2.382 . S
C1016 N262 1.143 . S
C997 C183 1.096 . S
C1052 C356 1.970 . S
C1033 C209 1.962 . S
C1088 N330 0.932 . S
C1069 C247 0.945 . S
C1105 C151 1.819 . S
C1124 C373 1.818 . S
C1160 C287 1.658 . S
C1141 C215 1.665 . S
C1196 C266 1.448 . S
C1177 C241 1.376 . S
C1213 C177 1.394 . S
C1232 C332 1.470 . S
