# Generated by pormake.
# Topology hwx, (6,3)-cn, num edge types: 1
# Building blocks:
#     Node 0, Type 0, BuildingBlock: IZENUY_clean_sbu_0, # of connection points: 6
#     Node 1, Type 0, BuildingBlock: IZENUY_clean_sbu_0, # of connection points: 6
#     Node 2, Type 0, BuildingBlock: IZENUY_clean_sbu_0, # of connection points: 6
#     Node 3, Type 0, BuildingBlock: IZENUY_clean_sbu_0, # of connection points: 6
#     Node 4, Type 1, BuildingBlock: MIDCAF_clean_linker_0, # of connection points: 3
#     Node 5, Type 1, BuildingBlock: MIDCAF_clean_linker_0, # of connection points: 3
#     Node 6, Type 1, BuildingBlock: MIDCAF_clean_linker_0, # of connection points: 3
#     Node 7, Type 1, BuildingBlock: MIDCAF_clean_linker_0, # of connection points: 3
#     Node 8, Type 1, BuildingBlock: MIDCAF_clean_linker_0, # of connection points: 3
#     Node 9, Type 1, BuildingBlock: MIDCAF_clean_linker_0, # of connection points: 3
#     Node 10, Type 1, BuildingBlock: MIDCAF_clean_linker_0, # of connection points: 3
#     Node 11, Type 1, BuildingBlock: MIDCAF_clean_linker_0, # of connection points: 3
#     Edge 12, Type (0, 1), BuildingBlock: TEMPAE_clean_linker_10, # of connection points: 2
#     Edge 13, Type (0, 1), BuildingBlock: TEMPAE_clean_linker_10, # of connection points: 2
#     Edge 14, Type (0, 1), BuildingBlock: TEMPAE_clean_linker_10, # of connection points: 2
#     Edge 15, Type (0, 1), BuildingBlock: TEMPAE_clean_linker_10, # of connection points: 2
#     Edge 16, Type (0, 1), BuildingBlock: TEMPAE_clean_linker_10, # of connection points: 2
#     Edge 17, Type (0, 1), BuildingBlock: TEMPAE_clean_linker_10, # of connection points: 2
#     Edge 18, Type (0, 1), BuildingBlock: TEMPAE_clean_linker_10, # of connection points: 2
#     Edge 19, Type (0, 1), BuildingBlock: TEMPAE_clean_linker_10, # of connection points: 2
#     Edge 20, Type (0, 1), BuildingBlock: TEMPAE_clean_linker_10, # of connection points: 2
#     Edge 21, Type (0, 1), BuildingBlock: TEMPAE_clean_linker_10, # of connection points: 2
#     Edge 22, Type (0, 1), BuildingBlock: TEMPAE_clean_linker_10, # of connection points: 2
#     Edge 23, Type (0, 1), BuildingBlock: TEMPAE_clean_linker_10, # of connection points: 2
#     Edge 24, Type (0, 1), BuildingBlock: TEMPAE_clean_linker_10, # of connection points: 2
#     Edge 25, Type (0, 1), BuildingBlock: TEMPAE_clean_linker_10, # of connection points: 2
#     Edge 26, Type (0, 1), BuildingBlock: TEMPAE_clean_linker_10, # of connection points: 2
#     Edge 27, Type (0, 1), BuildingBlock: TEMPAE_clean_linker_10, # of connection points: 2
#     Edge 28, Type (0, 1), BuildingBlock: TEMPAE_clean_linker_10, # of connection points: 2
#     Edge 29, Type (0, 1), BuildingBlock: TEMPAE_clean_linker_10, # of connection points: 2
#     Edge 30, Type (0, 1), BuildingBlock: TEMPAE_clean_linker_10, # of connection points: 2
#     Edge 31, Type (0, 1), BuildingBlock: TEMPAE_clean_linker_10, # of connection points: 2
#     Edge 32, Type (0, 1), BuildingBlock: TEMPAE_clean_linker_10, # of connection points: 2
#     Edge 33, Type (0, 1), BuildingBlock: TEMPAE_clean_linker_10, # of connection points: 2
#     Edge 34, Type (0, 1), BuildingBlock: TEMPAE_clean_linker_10, # of connection points: 2
#     Edge 35, Type (0, 1), BuildingBlock: TEMPAE_clean_linker_10, # of connection points: 2
# Relax obj value: 0.053
# Max RMSD: 0.077
# Mean RMSD: 0.069
data_MOF--net-hwx--node1-IZENUY_clean_sbu_0--node2-MIDCAF_clean_linker_0--edge1-TEMPAE_clean_linker_10
_symmetry_space_group_name_H-M    P1
_symmetry_Int_Tables_number       1
_symmetry_cell_setting            triclinic
loop_
_symmetry_equiv_pos_as_xyz
'x, y, z'
_cell_length_a     58.01448
_cell_length_b     57.971156
_cell_length_c     28.232594
_cell_angle_alpha  89.912765
_cell_angle_beta   90.13709
_cell_angle_gamma 90.004852
loop_
_atom_site_label
_atom_site_type_symbol
_atom_site_fract_x
_atom_site_fract_y
_atom_site_fract_z
_atom_type_partial_charge
Fe0 Fe 0.23658 0.20623 0.05156 0.0
Fe1 Fe 0.23763 0.20547 0.94275 0.0
O2 O 0.2306 0.19206 0.9973 0.0
Fe3 Fe 0.21761 0.16438 0.99767 0.0
O4 O 0.20056 0.16942 0.05146 0.0
O5 O 0.2065 0.20594 0.06818 0.0
O6 O 0.2317 0.23535 0.02839 0.0
C7 C 0.22091 0.24241 0.99217 0.0
C8 C 0.24805 0.15963 0.07081 0.0
O9 O 0.21943 0.23015 0.95543 0.0
C10 C 0.25017 0.16107 0.92312 0.0
O11 O 0.2671 0.20759 0.0387 0.0
O12 O 0.26337 0.22011 0.96545 0.0
O13 O 0.24146 0.15223 0.03105 0.0
O14 O 0.24245 0.17961 0.08472 0.0
C15 C 0.19424 0.18456 0.92462 0.0
O16 O 0.25642 0.18184 0.92612 0.0
O17 O 0.23206 0.15421 0.94376 0.0
C18 C 0.27563 0.21641 0.00184 0.0
O19 O 0.21308 0.19313 0.91027 0.0
O20 O 0.19301 0.17476 0.96441 0.0
C21 C 0.19433 0.188 0.07118 0.0
Fe22 Fe 0.26074 0.70521 0.55588 0.0
Fe23 Fe 0.28108 0.66446 0.50082 0.0
O24 O 0.26765 0.69189 0.50127 0.0
Fe25 Fe 0.26118 0.70603 0.44726 0.0
O26 O 0.27902 0.73062 0.46296 0.0
O27 O 0.26496 0.73481 0.53452 0.0
O28 O 0.29067 0.70539 0.57406 0.0
C29 C 0.30317 0.68765 0.57665 0.0
C30 C 0.22217 0.71525 0.5045 0.0
O31 O 0.29744 0.66917 0.55577 0.0
C32 C 0.24946 0.6618 0.42406 0.0
O33 O 0.25524 0.67806 0.58737 0.0
O34 O 0.25707 0.65148 0.5322 0.0
O35 O 0.2349 0.71995 0.46938 0.0
O36 O 0.23037 0.70592 0.54123 0.0
C37 C 0.30499 0.68595 0.43025 0.0
O38 O 0.26733 0.65482 0.44559 0.0
O39 O 0.24293 0.68246 0.4278 0.0
C40 C 0.25004 0.65821 0.57208 0.0
O41 O 0.30591 0.67561 0.46951 0.0
O42 O 0.28622 0.69453 0.41544 0.0
C43 C 0.27636 0.74258 0.49982 0.0
Fe44 Fe 0.7618 0.80246 0.94794 0.0
Fe45 Fe 0.76261 0.80297 0.05635 0.0
O46 O 0.76831 0.8167 0.00165 0.0
Fe47 Fe 0.7805 0.84467 0.00052 0.0
O48 O 0.7558 0.8562 0.96888 0.0
O49 O 0.75504 0.82899 0.91494 0.0
O50 O 0.73152 0.80081 0.9629 0.0
C51 C 0.72389 0.79123 -0.0002 0.0
C52 C 0.80323 0.82158 0.92553 0.0
O53 O 0.737 0.78742 0.03493 0.0
C54 C 0.80554 0.82522 0.07204 0.0
O55 O 0.76734 0.7733 0.97093 0.0
O56 O 0.78153 0.77907 0.04203 0.0
O57 O 0.79669 0.84005 0.94538 0.0
O58 O 0.7917 0.80326 0.92985 0.0
C59 C 0.74899 0.84687 0.07713 0.0
O60 O 0.78716 0.8161 0.08746 0.0
O61 O 0.80593 0.83496 0.03209 0.0
C62 C 0.77912 0.76643 0.00605 0.0
O63 O 0.74331 0.82592 0.07437 0.0
O64 O 0.76659 0.85433 0.05545 0.0
C65 C 0.74904 0.8488 0.92925 0.0
Fe66 Fe 0.71712 0.34427 0.50415 0.0
Fe67 Fe 0.73654 0.30253 0.55802 0.0
O68 O 0.72977 0.31649 0.50392 0.0
Fe69 Fe 0.73573 0.30262 0.44955 0.0
O70 O 0.75486 0.32567 0.43128 0.0
O71 O 0.73125 0.35393 0.44937 0.0
O72 O 0.74141 0.35639 0.53616 0.0
C73 C 0.74834 0.34921 0.57589 0.0
C74 C 0.69267 0.32417 0.43264 0.0
O75 O 0.74298 0.32924 0.59038 0.0
C76 C 0.71946 0.26616 0.50059 0.0
O77 O 0.70063 0.33953 0.55878 0.0
O78 O 0.70672 0.30306 0.57666 0.0
O79 O 0.71124 0.31536 0.41771 0.0
O80 O 0.69198 0.33408 0.47229 0.0
C81 C 0.77453 0.2915 0.50613 0.0
O82 O 0.73122 0.27322 0.53559 0.0
O83 O 0.71698 0.27865 0.46432 0.0
C84 C 0.69461 0.32108 0.5795 0.0
O85 O 0.76687 0.30116 0.54286 0.0
O86 O 0.76134 0.28733 0.47138 0.0
C87 C 0.74901 0.34657 0.42811 0.0
C88 C 0.18448 0.57378 0.11295 0.0
C89 C 0.18862 0.56357 0.15731 0.0
C90 C 0.18711 0.53945 0.16152 0.0
C91 C 0.18238 0.52579 0.12181 0.0
H92 H 0.19255 0.45854 0.0678 0.0
H93 H 0.19741 0.41662 0.06838 0.0
H94 H 0.16308 0.41216 0.93296 0.0
H95 H 0.15843 0.45405 0.93183 0.0
H96 H 0.18388 0.49944 0.8653 0.0
H97 H 0.19084 0.51925 0.79032 0.0
H98 H 0.17186 0.58402 0.85453 0.0
H99 H 0.16498 0.56437 0.92964 0.0
H100 H 0.177 0.56873 0.03966 0.0
H101 H 0.18515 0.59235 0.10873 0.0
H102 H 0.19036 0.53107 0.19519 0.0
H103 H 0.18193 0.50723 0.1261 0.0
N104 N 0.17582 0.49817 0.03686 0.0
N105 N 0.17289 0.49565 0.95407 0.0
N106 N 0.17453 0.53181 0.99072 0.0
C107 C 0.17411 0.4851 0.997 0.0
C108 C 0.17307 0.519 0.95063 0.0
C109 C 0.17585 0.5216 0.03399 0.0
C110 C 0.17521 0.45962 -0.00034 0.0
C111 C 0.18581 0.44861 0.0384 0.0
C112 C 0.18871 0.42467 0.03865 0.0
C113 C 0.18068 0.41126 0.00064 0.0
C114 C 0.16932 0.42213 0.96277 0.0
C115 C 0.16678 0.4461 0.96209 0.0
C116 C 0.1741 0.53037 0.90366 0.0
C117 C 0.18078 0.51784 0.86331 0.0
C118 C 0.18485 0.52915 0.82039 0.0
C119 C 0.18198 0.55314 0.81678 0.0
C120 C 0.17405 0.56547 0.85628 0.0
C121 C 0.17026 0.55423 0.89937 0.0
C122 C 0.17899 0.53598 0.07705 0.0
C123 C 0.17971 0.56018 0.07336 0.0
C124 C 0.91312 0.84022 0.62019 0.0
C125 C 0.91889 0.82708 0.6604 0.0
C126 C 0.93939 0.81413 0.66001 0.0
C127 C 0.95346 0.81386 0.61988 0.0
H128 H 0.01305 0.78506 0.56347 0.0
H129 H 0.05132 0.76746 0.56501 0.0
H130 H 0.06802 0.80118 0.43312 0.0
H131 H 0.02962 0.8186 0.43095 0.0
H132 H 0.98041 0.8213 0.36255 0.0
H133 H 0.9596 0.82576 0.28785 0.0
H134 H 0.90088 0.85268 0.3636 0.0
H135 H 0.92164 0.84878 0.43776 0.0
H136 H 0.92186 0.84987 0.54943 0.0
H137 H 0.89773 0.85079 0.61965 0.0
H138 H 0.94424 0.80363 0.69019 0.0
H139 H 0.96885 0.80329 0.62039 0.0
N140 N 0.98264 0.81569 0.53627 0.0
N141 N 0.98554 0.82021 0.45383 0.0
N142 N 0.95186 0.8314 0.49321 0.0
C143 C 0.99504 0.81354 0.49574 0.0
C144 C 0.96389 0.82913 0.45229 0.0
C145 C 0.96109 0.82479 0.5353 0.0
C146 C 0.01833 0.80322 0.49707 0.0
C147 C 0.02488 0.78878 0.53483 0.0
C148 C 0.04669 0.7786 0.53564 0.0
C149 C 0.06249 0.783 0.49918 0.0
C150 C 0.0561 0.79763 0.46172 0.0
C151 C 0.03414 0.80749 0.46043 0.0
C152 C 0.95263 0.83443 0.40634 0.0
C153 C 0.9632 0.82854 0.36322 0.0
C154 C 0.95125 0.83097 0.32039 0.0
C155 C 0.92855 0.83944 0.31979 0.0
C156 C 0.91844 0.84635 0.36266 0.0
C157 C 0.93032 0.84391 0.40536 0.0
C158 C 0.94722 0.82639 0.57913 0.0
C159 C 0.92704 0.83978 0.57997 0.0
C160 C 0.823 0.44328 0.86217 0.0
C161 C 0.81338 0.45516 0.82351 0.0
C162 C 0.80902 0.47891 0.82767 0.0
C163 C 0.81348 0.4904 0.87026 0.0
H164 H 0.82979 0.55505 0.93259 0.0
H165 H 0.82625 0.59685 0.93787 0.0
H166 H 0.81334 0.59129 0.08797 0.0
H167 H 0.8167 0.54944 0.08295 0.0
H168 H 0.81891 0.50054 0.13257 0.0
H169 H 0.81112 0.47646 0.20165 0.0
H170 H 0.8154 0.4155 0.11445 0.0
H171 H 0.8229 0.43937 0.04535 0.0
H172 H 0.83389 0.44483 0.9345 0.0
H173 H 0.82636 0.42493 0.86007 0.0
H174 H 0.8017 0.48847 0.79827 0.0
H175 H 0.80932 0.50857 0.87277 0.0
N176 N 0.82405 0.51293 0.96033 0.0
N177 N 0.82367 0.50992 0.04327 0.0
N178 N 0.82362 0.47655 0.99659 0.0
C179 C 0.82412 0.52326 0.00357 0.0
C180 C 0.82349 0.48653 0.04007 0.0
C181 C 0.8239 0.48956 0.9566 0.0
C182 C 0.8234 0.54879 0.00729 0.0
C183 C 0.82632 0.56268 0.96684 0.0
C184 C 0.82445 0.58667 0.96986 0.0
C185 C 0.81947 0.59733 0.01331 0.0
C186 C 0.81698 0.58353 0.05392 0.0
C187 C 0.81902 0.55954 0.05101 0.0
C188 C 0.82127 0.47197 0.08314 0.0
C189 C 0.81845 0.48199 0.12813 0.0
C190 C 0.81408 0.46819 0.16782 0.0
C191 C 0.81242 0.44411 0.16337 0.0
C192 C 0.81619 0.43404 0.11884 0.0
C193 C 0.82059 0.44778 0.07923 0.0
C194 C 0.82203 0.47826 0.90973 0.0
C195 C 0.82716 0.45467 0.9049 0.0
C196 C 0.08704 0.1787 0.37413 0.0
C197 C 0.0763 0.17998 0.32952 0.0
C198 C 0.05219 0.18248 0.32746 0.0
C199 C 0.03919 0.1838 0.36912 0.0
H200 H 0.97834 0.21253 0.42465 0.0
H201 H 0.93972 0.22915 0.42615 0.0
H202 H 0.93474 0.21416 0.57562 0.0
H203 H 0.97315 0.19734 0.57435 0.0
H204 H 0.01994 0.19009 0.6319 0.0
H205 H 0.04152 0.18643 0.70586 0.0
H206 H 0.10052 0.16158 0.62808 0.0
H207 H 0.07904 0.16476 0.55459 0.0
H208 H 0.08313 0.17894 0.44913 0.0
H209 H 0.1056 0.17735 0.37724 0.0
H210 H 0.04334 0.18331 0.29369 0.0
H211 H 0.02067 0.18579 0.36637 0.0
N212 N 0.0145 0.19187 0.45795 0.0
N213 N 0.0135 0.18952 0.54097 0.0
N214 N 0.04706 0.17952 0.50016 0.0
C215 C 0.00277 0.19445 0.4993 0.0
C216 C 0.03563 0.18198 0.54168 0.0
C217 C 0.03669 0.18435 0.45818 0.0
C218 C 0.97893 0.20362 0.4994 0.0
C219 C 0.96899 0.21263 0.45781 0.0
C220 C 0.94694 0.22231 0.45868 0.0
C221 C 0.93429 0.22302 0.50103 0.0
C222 C 0.94403 0.21368 0.54239 0.0
C223 C 0.96611 0.20414 0.54163 0.0
C224 C 0.04779 0.1779 0.58714 0.0
C225 C 0.03741 0.18356 0.63061 0.0
C226 C 0.04979 0.18157 0.67299 0.0
C227 C 0.07272 0.17377 0.67278 0.0
C228 C 0.08278 0.16736 0.62955 0.0
C229 C 0.07048 0.16938 0.58728 0.0
C230 C 0.05003 0.18248 0.41365 0.0
C231 C 0.07409 0.17979 0.41555 0.0
C232 C 0.6817 0.93412 0.38585 0.0
C233 C 0.68553 0.9443 0.3414 0.0
C234 C 0.68379 0.96839 0.337 0.0
C235 C 0.6793 0.98208 0.37671 0.0
H236 H 0.68147 0.04949 0.4228 0.0
H237 H 0.6853 0.09134 0.41857 0.0
H238 H 0.67177 0.09619 0.56852 0.0
H239 H 0.66775 0.05443 0.57298 0.0
H240 H 0.68693 0.00786 0.63272 0.0
H241 H 0.69426 0.98751 0.70714 0.0
H242 H 0.67058 0.92401 0.64393 0.0
H243 H 0.66331 0.94417 0.56957 0.0
H244 H 0.67481 0.93924 0.45928 0.0
H245 H 0.68256 0.91557 0.39018 0.0
H246 H 0.68678 0.97673 0.30321 0.0
H247 H 0.67877 0.00064 0.37234 0.0
N248 N 0.67404 0.00979 0.4618 0.0
N249 N 0.67318 0.01245 0.54474 0.0
N250 N 0.67358 0.97623 0.50813 0.0
C251 C 0.67344 0.02296 0.50163 0.0
C252 C 0.67315 0.98908 0.54824 0.0
C253 C 0.67402 0.98637 0.46477 0.0
C254 C 0.67442 0.0485 0.49831 0.0
C255 C 0.67912 0.05944 0.45486 0.0
C256 C 0.68143 0.08342 0.45241 0.0
C257 C 0.67891 0.09703 0.49323 0.0
C258 C 0.67361 0.08618 0.53638 0.0
C259 C 0.67146 0.0622 0.53894 0.0
C260 C 0.67473 0.9776 0.59504 0.0
C261 C 0.68291 0.98965 0.63489 0.0
C262 C 0.68721 0.97801 0.67744 0.0
C263 C 0.68307 0.9542 0.68118 0.0
C264 C 0.67377 0.94241 0.64215 0.0
C265 C 0.66976 0.95395 0.59947 0.0
C266 C 0.6764 0.97194 0.42164 0.0
C267 C 0.67717 0.94775 0.42545 0.0
C268 C 0.58691 0.33366 0.88256 0.0
C269 C 0.57646 0.33205 0.83771 0.0
C270 C 0.55236 0.32955 0.83513 0.0
C271 C 0.53912 0.32828 0.87648 0.0
H272 H 0.4707 0.31751 0.93397 0.0
H273 H 0.43209 0.30034 0.93265 0.0
H274 H 0.44317 0.27286 0.07297 0.0
H275 H 0.48148 0.29025 0.07494 0.0
H276 H 0.51889 0.31833 0.13866 0.0
H277 H 0.53982 0.32189 0.21339 0.0
H278 H 0.59923 0.34759 0.13793 0.0
H279 H 0.57838 0.34453 0.0637 0.0
H280 H 0.58258 0.33357 0.95745 0.0
H281 H 0.60545 0.33507 0.88611 0.0
H282 H 0.5437 0.32854 0.80117 0.0
H283 H 0.52064 0.3261 0.87331 0.0
N284 N 0.51417 0.3191 0.96443 0.0
N285 N 0.51317 0.3192 0.04762 0.0
N286 N 0.54645 0.33111 0.00791 0.0
C287 C 0.50257 0.31513 0.00548 0.0
C288 C 0.53507 0.32739 0.04912 0.0
C289 C 0.53621 0.32704 0.96546 0.0
C290 C 0.4791 0.30525 0.00457 0.0
C291 C 0.46486 0.30786 0.96456 0.0
C292 C 0.4428 0.29814 0.96382 0.0
C293 C 0.43484 0.28528 0.00265 0.0
C294 C 0.44905 0.28261 0.04253 0.0
C295 C 0.47089 0.29268 0.04368 0.0
C296 C 0.54697 0.33099 0.09501 0.0
C297 C 0.53633 0.32498 0.13804 0.0
C298 C 0.54833 0.32693 0.18087 0.0
C299 C 0.57117 0.33502 0.18157 0.0
C300 C 0.58154 0.34163 0.13873 0.0
C301 C 0.5696 0.33967 0.09602 0.0
C302 C 0.54971 0.32966 0.92126 0.0
C303 C 0.57373 0.33263 0.92368 0.0
C304 C 0.31929 0.07303 0.61765 0.0
C305 C 0.31426 0.06248 0.66121 0.0
C306 C 0.31494 0.03828 0.66438 0.0
C307 C 0.31946 0.0249 0.62417 0.0
H308 H 0.32699 0.95659 0.57393 0.0
H309 H 0.32183 0.9147 0.57471 0.0
H310 H 0.31443 0.91497 0.42256 0.0
H311 H 0.31947 0.95654 0.4214 0.0
H312 H 0.3134 0.00181 0.3667 0.0
H313 H 0.30576 0.02248 0.29301 0.0
H314 H 0.32577 0.08642 0.35956 0.0
H315 H 0.33338 0.0659 0.43347 0.0
H316 H 0.3271 0.06856 0.54446 0.0
H317 H 0.3193 0.09165 0.6143 0.0
H318 H 0.31104 0.02966 0.69747 0.0
H319 H 0.31905 0.00629 0.62746 0.0
N320 N 0.32512 0.99811 0.5375 0.0
N321 N 0.32528 0.99684 0.45443 0.0
N322 N 0.32575 0.03242 0.49331 0.0
C323 C 0.32517 0.98561 0.49669 0.0
C324 C 0.32568 0.0202 0.45238 0.0
C325 C 0.32548 0.02159 0.53603 0.0
C326 C 0.32351 0.96005 0.49767 0.0
C327 C 0.32441 0.94772 0.54061 0.0
C328 C 0.32157 0.92372 0.54108 0.0
C329 C 0.31757 0.91164 0.49872 0.0
C330 C 0.31719 0.92388 0.45581 0.0
C331 C 0.32019 0.94775 0.45524 0.0
C332 C 0.32379 0.03223 0.4062 0.0
C333 C 0.31653 0.02022 0.36555 0.0
C334 C 0.31206 0.03203 0.32336 0.0
C335 C 0.31508 0.05602 0.32074 0.0
C336 C 0.32345 0.06788 0.36056 0.0
C337 C 0.32766 0.05613 0.40295 0.0
C338 C 0.32343 0.03547 0.58002 0.0
C339 C 0.32384 0.05972 0.57761 0.0
C340 C 0.41626 0.66932 0.13731 0.0
C341 C 0.42656 0.6762 0.1801 0.0
C342 C 0.44941 0.68424 0.17954 0.0
C343 C 0.46152 0.68585 0.13686 0.0
H344 H 0.52147 0.70999 0.07873 0.0
H345 H 0.56007 0.7264 0.07648 0.0
H346 H 0.5626 0.71571 0.92529 0.0
H347 H 0.52396 0.69912 0.92724 0.0
H348 H 0.47704 0.68399 0.87238 0.0
H349 H 0.45395 0.68148 0.8001 0.0
H350 H 0.39214 0.67598 0.88457 0.0
H351 H 0.41504 0.67761 0.95614 0.0
H352 H 0.41956 0.66588 0.06247 0.0
H353 H 0.39856 0.66338 0.13638 0.0
H354 H 0.45786 0.68948 0.21205 0.0
H355 H 0.47897 0.69248 0.13754 0.0
N356 N 0.48506 0.69031 0.04647 0.0
N357 N 0.48376 0.6907 0.96332 0.0
N358 N 0.45129 0.67954 0.00682 0.0
C359 C 0.49566 0.69419 0.00428 0.0
C360 C 0.46152 0.68339 0.96438 0.0
C361 C 0.4629 0.68284 0.048 0.0
C362 C 0.51952 0.70327 0.00312 0.0
C363 C 0.53023 0.71099 0.04496 0.0
C364 C 0.5523 0.72055 0.0437 0.0
C365 C 0.56425 0.72243 0.00069 0.0
C366 C 0.5538 0.71434 0.95897 0.0
C367 C 0.53163 0.70494 0.96013 0.0
C368 C 0.44794 0.68097 0.92014 0.0
C369 C 0.45854 0.68206 0.87544 0.0
C370 C 0.44529 0.68073 0.834 0.0
C371 C 0.42117 0.67846 0.83644 0.0
C372 C 0.41069 0.67722 0.8812 0.0
C373 C 0.42388 0.67831 0.92243 0.0
C374 C 0.45095 0.67956 0.09386 0.0
C375 C 0.42829 0.67095 0.09477 0.0
C376 C 0.15663 0.17158 0.09737 0.0
C377 C 0.17434 0.18777 0.10346 0.0
C378 C 0.13834 0.17017 0.12972 0.0
C379 C 0.13816 0.1849 0.16968 0.0
C380 C 0.15572 0.20165 0.17531 0.0
C381 C 0.17345 0.20307 0.1418 0.0
C382 C 0.11958 0.15253 0.12186 0.0
C383 C 0.15636 0.21741 0.21787 0.0
C384 C 0.08563 0.19404 0.24744 0.0
C385 C 0.09055 0.17937 0.28577 0.0
C386 C 0.1004 0.19522 0.20814 0.0
C387 C 0.12073 0.18172 0.20761 0.0
C388 C 0.1253 0.16624 0.24526 0.0
C389 C 0.11003 0.16506 0.28354 0.0
C390 C 0.09471 0.21156 0.16811 0.0
C391 C 0.14687 0.15164 0.24618 0.0
H392 H 0.15714 0.15992 0.06741 0.0
H393 H 0.18715 0.21556 0.14673 0.0
H394 H 0.12076 0.13889 0.14934 0.0
H395 H 0.10236 0.16069 0.12523 0.0
H396 H 0.12083 0.14427 0.08648 0.0
H397 H 0.17068 0.2301 0.216 0.0
H398 H 0.13987 0.22695 0.22103 0.0
H399 H 0.15848 0.20698 0.2506 0.0
H400 H 0.07072 0.20526 0.24886 0.0
H401 H 0.11365 0.15323 0.31236 0.0
H402 H 0.09643 0.2027 0.13348 0.0
H403 H 0.10707 0.22617 0.16825 0.0
H404 H 0.07698 0.21864 0.17103 0.0
H405 H 0.14804 0.14113 0.2135 0.0
H406 H 0.14747 0.13989 0.27728 0.0
H407 H 0.16229 0.16297 0.24725 0.0
C408 C 0.22727 0.62205 0.5861 0.0
C409 C 0.23808 0.64188 0.60396 0.0
C410 C 0.21626 0.60636 0.6166 0.0
C411 C 0.2165 0.61043 0.66604 0.0
C412 C 0.22729 0.63047 0.68414 0.0
C413 C 0.23775 0.64603 0.65288 0.0
C414 C 0.20454 0.58539 0.59603 0.0
C415 C 0.22824 0.63527 0.73671 0.0
C416 C 0.17536 0.58276 0.75349 0.0
C417 C 0.18938 0.56566 0.77364 0.0
C418 C 0.18346 0.59659 0.71619 0.0
C419 C 0.20625 0.59349 0.69948 0.0
C420 C 0.22011 0.57561 0.71846 0.0
C421 C 0.21143 0.56181 0.75513 0.0
C422 C 0.16802 0.61519 0.69622 0.0
C423 C 0.24462 0.57198 0.70215 0.0
H424 H 0.22732 0.61886 0.54828 0.0
H425 H 0.24616 0.66125 0.66699 0.0
H426 H 0.21318 0.56951 0.60896 0.0
H427 H 0.18636 0.58462 0.60801 0.0
H428 H 0.20484 0.58537 0.55668 0.0
H429 H 0.23727 0.65168 0.74498 0.0
H430 H 0.21054 0.63618 0.75135 0.0
H431 H 0.23728 0.62098 0.75519 0.0
H432 H 0.15823 0.58562 0.76758 0.0
H433 H 0.22239 0.54876 0.77104 0.0
H434 H 0.16814 0.6147 0.65693 0.0
H435 H 0.17457 0.63236 0.70713 0.0
H436 H 0.14996 0.61344 0.70869 0.0
H437 H 0.24531 0.57071 0.66299 0.0
H438 H 0.25242 0.55617 0.71762 0.0
H439 H 0.25529 0.58703 0.71264 0.0
C440 C 0.82449 0.81888 0.15054 0.0
C441 C 0.82588 0.82688 0.10371 0.0
C442 C 0.84304 0.8214 0.18195 0.0
C443 C 0.8636 0.83203 0.16614 0.0
C444 C 0.86539 0.83963 0.11864 0.0
C445 C 0.84647 0.83702 0.08796 0.0
C446 C 0.84044 0.81307 0.2324 0.0
C447 C 0.88714 0.85085 0.1005 0.0
C448 C 0.89923 0.85739 0.26579 0.0
C449 C 0.91458 0.83931 0.27561 0.0
C450 C 0.88331 0.85579 0.22849 0.0
C451 C 0.88284 0.83567 0.20016 0.0
C452 C 0.89928 0.81802 0.2079 0.0
C453 C 0.91492 0.82001 0.24566 0.0
C454 C 0.86611 0.87503 0.22123 0.0
C455 C 0.89943 0.79638 0.17822 0.0
H456 H 0.8087 0.81097 0.16307 0.0
H457 H 0.84776 0.84313 0.05177 0.0
H458 H 0.85423 0.8005 0.24107 0.0
H459 H 0.84231 0.82781 0.25715 0.0
H460 H 0.82347 0.80475 0.23879 0.0
H461 H 0.88619 0.85474 0.062 0.0
H462 H 0.89033 0.86716 0.11991 0.0
H463 H 0.90217 0.83944 0.10707 0.0
H464 H 0.89917 0.87253 0.28829 0.0
H465 H 0.92658 0.80586 0.25321 0.0
H466 H 0.84862 0.86886 0.23083 0.0
H467 H 0.86556 0.88028 0.18345 0.0
H468 H 0.87019 0.89042 0.24311 0.0
H469 H 0.88406 0.78578 0.1868 0.0
H470 H 0.91509 0.78577 0.18458 0.0
H471 H 0.89846 0.80073 0.13999 0.0
C472 C 0.76124 0.36031 0.65717 0.0
C473 C 0.76024 0.36528 0.60857 0.0
C474 C 0.77117 0.37585 0.68924 0.0
C475 C 0.7807 0.39676 0.67229 0.0
C476 C 0.78039 0.40162 0.62313 0.0
C477 C 0.76998 0.38589 0.59184 0.0
C478 C 0.7709 0.37015 0.74148 0.0
C479 C 0.79075 0.42355 0.60371 0.0
C480 C 0.78363 0.44477 0.7632 0.0
C481 C 0.80612 0.44227 0.78067 0.0
C482 C 0.7754 0.43063 0.72659 0.0
C483 C 0.79013 0.41381 0.70659 0.0
C484 C 0.81324 0.41203 0.72244 0.0
C485 C 0.82091 0.42616 0.75964 0.0
C486 C 0.75055 0.43287 0.71115 0.0
C487 C 0.82959 0.39458 0.70142 0.0
H488 H 0.75369 0.34447 0.67047 0.0
H489 H 0.76943 0.38976 0.55427 0.0
H490 H 0.78871 0.37026 0.75585 0.0
H491 H 0.76099 0.38347 0.76094 0.0
H492 H 0.76307 0.35302 0.7488 0.0
H493 H 0.7904 0.42409 0.56437 0.0
H494 H 0.78114 0.43867 0.61736 0.0
H495 H 0.80887 0.42532 0.61585 0.0
H496 H 0.77208 0.45703 0.77976 0.0
H497 H 0.83838 0.42435 0.77288 0.0
H498 H 0.74101 0.41696 0.72082 0.0
H499 H 0.74944 0.43477 0.67212 0.0
H500 H 0.74184 0.44785 0.72786 0.0
H501 H 0.82402 0.37692 0.71137 0.0
H502 H 0.84759 0.39712 0.71389 0.0
H503 H 0.82928 0.39563 0.66218 0.0
C504 C 0.67405 0.31665 0.35438 0.0
C505 C 0.67241 0.3252 0.4007 0.0
C506 C 0.6556 0.31856 0.32259 0.0
C507 C 0.63487 0.32916 0.3375 0.0
C508 C 0.6328 0.33726 0.38455 0.0
C509 C 0.65163 0.33524 0.41563 0.0
C510 C 0.65849 0.30971 0.27264 0.0
C511 C 0.61086 0.34845 0.40172 0.0
C512 C 0.60002 0.35345 0.23564 0.0
C513 C 0.58485 0.3352 0.22606 0.0
C514 C 0.61558 0.35227 0.27361 0.0
C515 C 0.61586 0.33242 0.30284 0.0
C516 C 0.59958 0.31461 0.29528 0.0
C517 C 0.58428 0.31618 0.25684 0.0
C518 C 0.63264 0.37165 0.28063 0.0
C519 C 0.59925 0.29325 0.32593 0.0
H520 H 0.68997 0.30878 0.34252 0.0
H521 H 0.65015 0.34176 0.45146 0.0
H522 H 0.64477 0.29701 0.26427 0.0
H523 H 0.65674 0.32418 0.24711 0.0
H524 H 0.67551 0.30136 0.26708 0.0
H525 H 0.61152 0.35253 0.44013 0.0
H526 H 0.60776 0.36467 0.38179 0.0
H527 H 0.59592 0.33695 0.39496 0.0
H528 H 0.60021 0.36838 0.21248 0.0
H529 H 0.57271 0.30194 0.24948 0.0
H530 H 0.65023 0.36548 0.27193 0.0
H531 H 0.63285 0.37725 0.31818 0.0
H532 H 0.62868 0.38682 0.25793 0.0
H533 H 0.61468 0.2826 0.31825 0.0
H534 H 0.58365 0.28257 0.31959 0.0
H535 H 0.59996 0.29796 0.36398 0.0
C536 C 0.28247 0.1524 0.86688 0.0
C537 C 0.26223 0.14538 0.8899 0.0
C538 C 0.29286 0.13844 0.83235 0.0
C539 C 0.28269 0.11702 0.82035 0.0
C540 C 0.26278 0.10944 0.84474 0.0
C541 C 0.25286 0.12365 0.87932 0.0
C542 C 0.31422 0.14701 0.80746 0.0
C543 C 0.25135 0.08676 0.83286 0.0
C544 C 0.29068 0.09439 0.69548 0.0
C545 C 0.30689 0.07673 0.70218 0.0
C546 C 0.28291 0.10774 0.73357 0.0
C547 C 0.29161 0.10343 0.77962 0.0
C548 C 0.30817 0.08578 0.78666 0.0
C549 C 0.31553 0.07253 0.74784 0.0
C550 C 0.26505 0.12622 0.72461 0.0
C551 C 0.31796 0.08082 0.83519 0.0
H552 H 0.28998 0.16905 0.8751 0.0
H553 H 0.23729 0.11798 0.897 0.0
H554 H 0.32778 0.13351 0.80777 0.0
H555 H 0.3101 0.1508 0.76985 0.0
H556 H 0.32127 0.1629 0.82401 0.0
H557 H 0.23698 0.0826 0.85738 0.0
H558 H 0.24441 0.08745 0.79622 0.0
H559 H 0.26411 0.07252 0.83417 0.0
H560 H 0.28366 0.09746 0.66042 0.0
H561 H 0.32818 0.059 0.7531 0.0
H562 H 0.2716 0.14319 0.7368 0.0
H563 H 0.24922 0.12239 0.74516 0.0
H564 H 0.26034 0.12765 0.68656 0.0
H565 H 0.32575 0.0967 0.8502 0.0
H566 H 0.33127 0.06705 0.83445 0.0
H567 H 0.30396 0.07542 0.85948 0.0
C568 C 0.32342 0.69429 0.35223 0.0
C569 C 0.32527 0.68562 0.3985 0.0
C570 C 0.34186 0.69276 0.32049 0.0
C571 C 0.36278 0.68246 0.3354 0.0
C572 C 0.36508 0.67434 0.38247 0.0
C573 C 0.34626 0.67597 0.41349 0.0
C574 C 0.33872 0.70161 0.27051 0.0
C575 C 0.38722 0.66347 0.39968 0.0
C576 C 0.39766 0.65799 0.23419 0.0
C577 C 0.41278 0.67624 0.22435 0.0
C578 C 0.38205 0.65929 0.2719 0.0
C579 C 0.38168 0.67927 0.30065 0.0
C580 C 0.39788 0.69711 0.29279 0.0
C581 C 0.41323 0.69542 0.25459 0.0
C582 C 0.36509 0.63985 0.27925 0.0
C583 C 0.39812 0.7186 0.32294 0.0
H584 H 0.30733 0.70186 0.34033 0.0
H585 H 0.34792 0.66937 0.44929 0.0
H586 H 0.35236 0.71434 0.26191 0.0
H587 H 0.3404 0.68713 0.24508 0.0
H588 H 0.32165 0.70988 0.26506 0.0
H589 H 0.3868 0.65959 0.43822 0.0
H590 H 0.39036 0.64717 0.3802 0.0
H591 H 0.40202 0.67506 0.3924 0.0
H592 H 0.39756 0.64294 0.21145 0.0
H593 H 0.42476 0.70966 0.24702 0.0
H594 H 0.34743 0.64596 0.27073 0.0
H595 H 0.36511 0.63427 0.31684 0.0
H596 H 0.36898 0.62468 0.25662 0.0
H597 H 0.38257 0.72908 0.31509 0.0
H598 H 0.41361 0.72938 0.31632 0.0
H599 H 0.39757 0.71402 0.3611 0.0
C600 C 0.73601 0.85958 0.84782 0.0
C601 C 0.73679 0.86455 0.89641 0.0
C602 C 0.72583 0.87495 0.8156 0.0
C603 C 0.71583 0.89564 0.83241 0.0
C604 C 0.71587 0.90043 0.88156 0.0
C605 C 0.72652 0.8849 0.91299 0.0
C606 C 0.7264 0.86932 0.76338 0.0
C607 C 0.705 0.92213 0.90082 0.0
C608 C 0.71268 0.94391 0.74187 0.0
C609 C 0.69029 0.94119 0.72395 0.0
C610 C 0.72093 0.92973 0.77845 0.0
C611 C 0.70633 0.91262 0.79797 0.0
C612 C 0.68333 0.91057 0.78163 0.0
C613 C 0.67564 0.92476 0.74446 0.0
C614 C 0.74567 0.93226 0.79444 0.0
C615 C 0.66713 0.89281 0.80214 0.0
H616 H 0.74395 0.84394 0.83465 0.0
H617 H 0.72689 0.88875 0.95055 0.0
H618 H 0.70866 0.86924 0.74866 0.0
H619 H 0.73624 0.8828 0.74411 0.0
H620 H 0.73446 0.85231 0.7562 0.0
H621 H 0.70505 0.92253 0.94016 0.0
H622 H 0.71449 0.93745 0.8876 0.0
H623 H 0.68695 0.92365 0.88812 0.0
H624 H 0.72413 0.9564 0.72569 0.0
H625 H 0.65826 0.92277 0.73085 0.0
H626 H 0.75546 0.91649 0.78502 0.0
H627 H 0.74655 0.93413 0.83349 0.0
H628 H 0.75428 0.94737 0.77791 0.0
H629 H 0.67303 0.87527 0.79221 0.0
H630 H 0.64917 0.89512 0.78926 0.0
H631 H 0.66721 0.89374 0.84139 0.0
C632 C 0.83174 0.80175 0.87313 0.0
C633 C 0.82258 0.82226 0.89147 0.0
C634 C 0.84885 0.80221 0.83812 0.0
C635 C 0.85681 0.82369 0.82074 0.0
C636 C 0.84818 0.84444 0.84017 0.0
C637 C 0.83126 0.84348 0.8755 0.0
C638 C 0.85788 0.77971 0.81866 0.0
C639 C 0.85612 0.86768 0.82227 0.0
C640 C 0.91186 0.82622 0.74824 0.0
C641 C 0.90313 0.8263 0.70183 0.0
C642 C 0.89702 0.82522 0.78741 0.0
C643 C 0.8729 0.82447 0.77994 0.0
C644 C 0.86399 0.82459 0.73324 0.0
C645 C 0.8792 0.82535 0.69482 0.0
C646 C 0.90712 0.82499 0.83675 0.0
C647 C 0.83835 0.82389 0.72383 0.0
H648 H 0.82529 0.78528 0.88564 0.0
H649 H 0.82429 0.85942 0.88949 0.0
H650 H 0.85263 0.77791 0.78103 0.0
H651 H 0.87699 0.77951 0.81974 0.0
H652 H 0.85133 0.76455 0.83864 0.0
H653 H 0.84883 0.88215 0.84317 0.0
H654 H 0.87519 0.86881 0.82346 0.0
H655 H 0.85081 0.86985 0.78473 0.0
H656 H 0.93031 0.82719 0.754 0.0
H657 H 0.8723 0.82492 0.65912 0.0
H658 H 0.90122 0.80941 0.85611 0.0
H659 H 0.90095 0.84021 0.85683 0.0
H660 H 0.92626 0.82517 0.8365 0.0
H661 H 0.83085 0.80793 0.73908 0.0
H662 H 0.83422 0.82445 0.68541 0.0
H663 H 0.8298 0.83871 0.74136 0.0
C664 C 0.75227 0.38388 0.38387 0.0
C665 C 0.76106 0.36186 0.39403 0.0
C666 C 0.76217 0.39776 0.34863 0.0
C667 C 0.78145 0.38953 0.32312 0.0
C668 C 0.79106 0.36777 0.33459 0.0
C669 C 0.78072 0.35416 0.36983 0.0
C670 C 0.75138 0.42085 0.33738 0.0
C671 C 0.81174 0.3585 0.30844 0.0
C672 C 0.78854 0.41248 0.19817 0.0
C673 C 0.80538 0.42959 0.20426 0.0
C674 C 0.7809 0.39913 0.23645 0.0
C675 C 0.79035 0.40291 0.28205 0.0
C676 C 0.8076 0.41992 0.28842 0.0
C677 C 0.81486 0.43314 0.24943 0.0
C678 C 0.76233 0.3813 0.22825 0.0
C679 C 0.81819 0.4243 0.33646 0.0
H680 H 0.73717 0.39006 0.40247 0.0
H681 H 0.78778 0.33727 0.37769 0.0
H682 H 0.76463 0.43464 0.33817 0.0
H683 H 0.74402 0.4205 0.30107 0.0
H684 H 0.73743 0.42542 0.36258 0.0
H685 H 0.81841 0.3423 0.32447 0.0
H686 H 0.80699 0.355 0.27104 0.0
H687 H 0.8258 0.37148 0.30808 0.0
H688 H 0.78089 0.4099 0.16351 0.0
H689 H 0.82801 0.44622 0.25422 0.0
H690 H 0.74685 0.38565 0.24946 0.0
H691 H 0.76838 0.36409 0.24017 0.0
H692 H 0.75719 0.3801 0.1904 0.0
H693 H 0.80473 0.43022 0.36147 0.0
H694 H 0.83206 0.43749 0.33511 0.0
H695 H 0.82547 0.40806 0.35101 0.0
C696 C 0.17623 0.19225 0.84571 0.0
C697 C 0.17424 0.18366 0.89199 0.0
C698 C 0.15796 0.19043 0.81341 0.0
C699 C 0.13712 0.17985 0.82775 0.0
C700 C 0.13472 0.17167 0.87471 0.0
C701 C 0.15334 0.17364 0.90632 0.0
C702 C 0.16117 0.19938 0.76356 0.0
C703 C 0.11268 0.16045 0.89127 0.0
C704 C 0.08638 0.1928 0.74727 0.0
C705 C 0.08682 0.17375 0.71671 0.0
C706 C 0.10189 0.19448 0.7853 0.0
C707 C 0.11826 0.17672 0.79271 0.0
C708 C 0.11796 0.15689 0.76355 0.0
C709 C 0.1022 0.15562 0.72594 0.0
C710 C 0.10162 0.21583 0.81583 0.0
C711 C 0.13508 0.13755 0.77048 0.0
H712 H 0.19225 0.2001 0.83432 0.0
H713 H 0.15158 0.16707 0.9421 0.0
H714 H 0.15958 0.18496 0.73796 0.0
H715 H 0.14749 0.21208 0.75486 0.0
H716 H 0.17822 0.20774 0.75849 0.0
H717 H 0.11314 0.15615 0.92962 0.0
H718 H 0.09781 0.17203 0.88443 0.0
H719 H 0.10961 0.14435 0.87099 0.0
H720 H 0.07467 0.20696 0.74011 0.0
H721 H 0.10233 0.14069 0.70288 0.0
H722 H 0.11721 0.22632 0.8085 0.0
H723 H 0.10207 0.21109 0.8539 0.0
H724 H 0.08616 0.22668 0.80912 0.0
H725 H 0.15268 0.14383 0.76215 0.0
H726 H 0.13127 0.12247 0.7475 0.0
H727 H 0.13518 0.13177 0.80795 0.0
C728 C 0.21828 0.65371 0.36453 0.0
C729 C 0.238 0.64641 0.38927 0.0
C730 C 0.20844 0.63998 0.32884 0.0
C731 C 0.21862 0.6185 0.31747 0.0
C732 C 0.23802 0.61068 0.3434 0.0
C733 C 0.24741 0.62468 0.37905 0.0
C734 C 0.18763 0.64882 0.30223 0.0
C735 C 0.24942 0.58791 0.33228 0.0
C736 C 0.18622 0.5742 0.24347 0.0
C737 C 0.19559 0.57802 0.19837 0.0
C738 C 0.19321 0.58752 0.28252 0.0
C739 C 0.21008 0.60492 0.27631 0.0
C740 C 0.21947 0.60893 0.2308 0.0
C741 C 0.21209 0.59547 0.19243 0.0
C742 C 0.1827 0.58287 0.33046 0.0
C743 C 0.23765 0.62717 0.22275 0.0
H744 H 0.21075 0.67038 0.37239 0.0
H745 H 0.26258 0.6188 0.39804 0.0
H746 H 0.19237 0.65237 0.26488 0.0
H747 H 0.17384 0.63555 0.3018 0.0
H748 H 0.18061 0.66489 0.31798 0.0
H749 H 0.26348 0.58367 0.35762 0.0
H750 H 0.23653 0.57377 0.33297 0.0
H751 H 0.25676 0.58848 0.29604 0.0
H752 H 0.17331 0.56088 0.24814 0.0
H753 H 0.21966 0.59827 0.15783 0.0
H754 H 0.17495 0.5989 0.34474 0.0
H755 H 0.19631 0.57735 0.35572 0.0
H756 H 0.16922 0.56928 0.32904 0.0
H757 H 0.23118 0.64424 0.23446 0.0
H758 H 0.24281 0.62847 0.18497 0.0
H759 H 0.25318 0.62318 0.24424 0.0
C760 C 0.34074 0.67119 0.60379 0.0
C761 C 0.323 0.68738 0.60954 0.0
C762 C 0.35886 0.66966 0.63665 0.0
C763 C 0.35891 0.68432 0.67669 0.0
C764 C 0.34137 0.7011 0.68199 0.0
C765 C 0.32375 0.70259 0.64805 0.0
C766 C 0.37758 0.65196 0.62922 0.0
C767 C 0.34064 0.71681 0.72459 0.0
C768 C 0.38702 0.66412 0.79062 0.0
C769 C 0.40668 0.67819 0.79288 0.0
C770 C 0.37164 0.66556 0.7524 0.0
C771 C 0.37627 0.68109 0.7149 0.0
C772 C 0.3967 0.69443 0.71557 0.0
C773 C 0.41159 0.69297 0.75477 0.0
C774 C 0.34997 0.65112 0.75312 0.0
C775 C 0.40241 0.71085 0.67574 0.0
H776 H 0.34035 0.65958 0.57371 0.0
H777 H 0.31005 0.71509 0.65272 0.0
H778 H 0.39482 0.66009 0.63273 0.0
H779 H 0.37636 0.63838 0.65682 0.0
H780 H 0.37636 0.64361 0.5939 0.0
H781 H 0.32637 0.72956 0.72241 0.0
H782 H 0.33837 0.70637 0.75723 0.0
H783 H 0.35716 0.72628 0.72819 0.0
H784 H 0.38338 0.65224 0.81931 0.0
H785 H 0.42662 0.70404 0.75626 0.0
H786 H 0.34874 0.6406 0.72043 0.0
H787 H 0.33463 0.66255 0.75399 0.0
H788 H 0.34929 0.63938 0.78423 0.0
H789 H 0.40081 0.70201 0.64105 0.0
H790 H 0.42011 0.718 0.67902 0.0
H791 H 0.38999 0.7254 0.67568 0.0
C792 C 0.74564 0.88423 0.12091 0.0
C793 C 0.73695 0.86214 0.11116 0.0
C794 C 0.73577 0.89812 0.15607 0.0
C795 C 0.71661 0.88983 0.18193 0.0
C796 C 0.7071 0.86799 0.17091 0.0
C797 C 0.71742 0.85437 0.13574 0.0
C798 C 0.74646 0.92129 0.16686 0.0
C799 C 0.68654 0.85865 0.19744 0.0
C800 C 0.70964 0.9129 0.30668 0.0
C801 C 0.69267 0.92988 0.30054 0.0
C802 C 0.71732 0.89958 0.26846 0.0
C803 C 0.70774 0.90324 0.22291 0.0
C804 C 0.69037 0.92013 0.2165 0.0
C805 C 0.68311 0.93335 0.25541 0.0
C806 C 0.73603 0.88189 0.2767 0.0
C807 C 0.67965 0.92437 0.16851 0.0
H808 H 0.76065 0.89047 0.10202 0.0
H809 H 0.71044 0.83742 0.1282 0.0
H810 H 0.73313 0.935 0.16603 0.0
H811 H 0.75392 0.92106 0.20309 0.0
H812 H 0.76031 0.9259 0.14143 0.0
H813 H 0.67993 0.84237 0.18173 0.0
H814 H 0.69141 0.85526 0.23483 0.0
H815 H 0.67241 0.87154 0.19774 0.0
H816 H 0.71735 0.91039 0.34132 0.0
H817 H 0.66986 0.94633 0.2506 0.0
H818 H 0.7514 0.88628 0.25519 0.0
H819 H 0.73004 0.86461 0.26517 0.0
H820 H 0.7413 0.88082 0.3145 0.0
H821 H 0.69303 0.93029 0.14325 0.0
H822 H 0.66574 0.93752 0.16981 0.0
H823 H 0.67238 0.90808 0.15429 0.0
C824 C 0.65717 0.33789 0.60593 0.0
C825 C 0.67481 0.32162 0.61225 0.0
C826 C 0.63905 0.33967 0.63856 0.0
C827 C 0.63891 0.3252 0.67898 0.0
C828 C 0.65638 0.30836 0.6849 0.0
C829 C 0.67398 0.3066 0.65114 0.0
C830 C 0.6204 0.35741 0.63043 0.0
C831 C 0.65703 0.29285 0.72792 0.0
C832 C 0.61068 0.3461 0.79189 0.0
C833 C 0.59098 0.33209 0.7943 0.0
C834 C 0.62613 0.34438 0.75399 0.0
C835 C 0.62152 0.32866 0.71688 0.0
C836 C 0.60104 0.31539 0.71762 0.0
C837 C 0.58611 0.3171 0.75655 0.0
C838 C 0.64785 0.35876 0.75465 0.0
C839 C 0.59532 0.29879 0.67815 0.0
H840 H 0.65762 0.34935 0.57556 0.0
H841 H 0.68762 0.29405 0.65625 0.0
H842 H 0.60313 0.34936 0.63391 0.0
H843 H 0.62165 0.3711 0.65772 0.0
H844 H 0.62169 0.3656 0.59493 0.0
H845 H 0.67127 0.28007 0.72629 0.0
H846 H 0.65928 0.30345 0.76031 0.0
H847 H 0.64049 0.28343 0.73154 0.0
H848 H 0.61431 0.35815 0.82025 0.0
H849 H 0.57105 0.30607 0.75813 0.0
H850 H 0.64915 0.36912 0.72173 0.0
H851 H 0.66315 0.34727 0.756 0.0
H852 H 0.64855 0.37062 0.78548 0.0
H853 H 0.597 0.30745 0.64325 0.0
H854 H 0.57759 0.29173 0.68136 0.0
H855 H 0.60769 0.2842 0.67869 0.0
C856 C 0.26006 0.14878 0.15274 0.0
C857 C 0.26001 0.14391 0.10409 0.0
C858 C 0.27035 0.13369 0.18529 0.0
C859 C 0.28125 0.1134 0.16876 0.0
C860 C 0.28182 0.10866 0.11959 0.0
C861 C 0.27099 0.12389 0.08781 0.0
C862 C 0.26906 0.13919 0.23751 0.0
C863 C 0.29365 0.0874 0.10069 0.0
C864 C 0.32178 0.086 0.25826 0.0
C865 C 0.30763 0.06897 0.27812 0.0
C866 C 0.31386 0.09984 0.22075 0.0
C867 C 0.29112 0.09682 0.20348 0.0
C868 C 0.27705 0.07914 0.22247 0.0
C869 C 0.28554 0.06533 0.25937 0.0
C870 C 0.3295 0.11824 0.20081 0.0
C871 C 0.25258 0.07561 0.20556 0.0
H872 H 0.25152 0.16416 0.16564 0.0
H873 H 0.27117 0.12015 0.0502 0.0
H874 H 0.2597 0.12525 0.25636 0.0
H875 H 0.28665 0.14008 0.25288 0.0
H876 H 0.26016 0.15581 0.24447 0.0
H877 H 0.29377 0.08693 0.06135 0.0
H878 H 0.3117 0.08667 0.1137 0.0
H879 H 0.28478 0.07172 0.11389 0.0
H880 H 0.33893 0.08869 0.27254 0.0
H881 H 0.27448 0.05234 0.27507 0.0
H882 H 0.3228 0.13553 0.21041 0.0
H883 H 0.32983 0.11728 0.16156 0.0
H884 H 0.34742 0.11669 0.2144 0.0
H885 H 0.24206 0.09096 0.21461 0.0
H886 H 0.24445 0.06015 0.22177 0.0
H887 H 0.25212 0.07372 0.16648 0.0
C888 C 0.21062 0.2789 0.94945 0.0
C889 C 0.21209 0.26633 0.9918 0.0
C890 C 0.20432 0.3023 0.94968 0.0
C891 C 0.19888 0.31316 0.99316 0.0
C892 C 0.19933 0.30023 0.03571 0.0
C893 C 0.20618 0.27705 0.03458 0.0
C894 C 0.20439 0.31562 0.90369 0.0
C895 C 0.19315 0.31104 0.08264 0.0
C896 C 0.20754 0.37776 0.0058 0.0
C897 C 0.1851 0.38611 0.99934 0.0
C898 C 0.21228 0.35408 0.00312 0.0
C899 C 0.19404 0.33835 0.99468 0.0
C900 C 0.17128 0.3467 0.98858 0.0
C901 C 0.16712 0.37055 0.99048 0.0
C902 C 0.23684 0.3459 0.00905 0.0
C903 C 0.15134 0.33043 0.98051 0.0
H904 H 0.21527 0.27069 0.91634 0.0
H905 H 0.20705 0.2673 0.06734 0.0
H906 H 0.18754 0.32427 0.89818 0.0
H907 H 0.21773 0.32932 0.90522 0.0
H908 H 0.20796 0.30441 0.87268 0.0
H909 H 0.19247 0.29815 0.11177 0.0
H910 H 0.20609 0.32437 0.09201 0.0
H911 H 0.17617 0.31976 0.08011 0.0
H912 H 0.22148 0.38984 0.01204 0.0
H913 H 0.14974 0.37705 0.98568 0.0
H914 H 0.24214 0.33576 0.9776 0.0
H915 H 0.23816 0.33434 0.04029 0.0
H916 H 0.24912 0.36042 0.01378 0.0
H917 H 0.15432 0.32007 0.94811 0.0
H918 H 0.13467 0.33969 0.97672 0.0
H919 H 0.15 0.31817 0.0106 0.0
C920 C 0.18641 0.72659 0.46128 0.0
C921 C 0.19804 0.72332 0.50433 0.0
C922 C 0.16387 0.7353 0.46023 0.0
C923 C 0.15294 0.74133 0.50323 0.0
C924 C 0.16451 0.73783 0.54686 0.0
C925 C 0.18687 0.7286 0.54692 0.0
C926 C 0.15187 0.73832 0.4131 0.0
C927 C 0.15353 0.74443 0.59336 0.0
C928 C 0.10533 0.78606 0.49594 0.0
C929 C 0.0856 0.77232 0.50025 0.0
C930 C 0.12739 0.7762 0.49745 0.0
C931 C 0.12967 0.75199 0.50242 0.0
C932 C 0.10974 0.73802 0.50633 0.0
C933 C 0.08791 0.74841 0.50568 0.0
C934 C 0.14826 0.79169 0.49403 0.0
C935 C 0.1115 0.71212 0.51072 0.0
H936 H 0.19495 0.7223 0.42832 0.0
H937 H 0.19587 0.72622 0.58026 0.0
H938 H 0.13494 0.72941 0.41349 0.0
H939 H 0.1485 0.75688 0.40655 0.0
H940 H 0.16222 0.73145 0.38321 0.0
H941 H 0.16468 0.7402 0.62422 0.0
H942 H 0.14992 0.76322 0.59367 0.0
H943 H 0.1368 0.73541 0.59761 0.0
H944 H 0.10348 0.80459 0.49214 0.0
H945 H 0.07257 0.73781 0.50862 0.0
H946 H 0.15856 0.78708 0.46239 0.0
H947 H 0.15949 0.78919 0.5255 0.0
H948 H 0.14351 0.81022 0.49159 0.0
H949 H 0.12089 0.705 0.47983 0.0
H950 H 0.09431 0.70372 0.51278 0.0
H951 H 0.1215 0.70748 0.54287 0.0
C952 C 0.78078 0.72671 0.97174 0.0
C953 C 0.78753 0.74227 0.00721 0.0
C954 C 0.78732 0.70344 0.97361 0.0
C955 C 0.80116 0.6955 0.01163 0.0
C956 C 0.80861 0.71121 0.04686 0.0
C957 C 0.80162 0.73439 0.04435 0.0
C958 C 0.77891 0.68721 0.93547 0.0
C959 C 0.82359 0.70342 0.08764 0.0
C960 C 0.79667 0.6316 0.03968 0.0
C961 C 0.81582 0.62266 0.01569 0.0
C962 C 0.79203 0.65535 0.03961 0.0
C963 C 0.807 0.67056 0.01525 0.0
C964 C 0.82675 0.66172 0.99216 0.0
C965 C 0.83086 0.63784 0.99245 0.0
C966 C 0.77067 0.66408 0.06427 0.0
C967 C 0.84324 0.67742 0.96626 0.0
H968 H 0.76991 0.73258 0.94286 0.0
H969 H 0.80705 0.74631 0.07175 0.0
H970 H 0.79374 0.67847 0.91847 0.0
H971 H 0.76794 0.6736 0.95145 0.0
H972 H 0.76877 0.69624 0.90763 0.0
H973 H 0.82902 0.71801 0.11057 0.0
H974 H 0.81408 0.69075 0.10964 0.0
H975 H 0.83922 0.69462 0.07411 0.0
H976 H 0.78485 0.61991 0.05722 0.0
H977 H 0.84582 0.63101 0.97431 0.0
H978 H 0.75875 0.67182 0.03788 0.0
H979 H 0.77528 0.67781 0.08993 0.0
H980 H 0.7614 0.65015 0.08344 0.0
H981 H 0.83432 0.68558 0.93574 0.0
H982 H 0.8586 0.66803 0.95291 0.0
H983 H 0.8491 0.69151 0.98997 0.0
C984 C 0.80571 0.26825 0.46831 0.0
C985 C 0.79844 0.28257 0.50545 0.0
C986 C 0.828 0.25898 0.46764 0.0
C987 C 0.84351 0.26428 0.50479 0.0
C988 C 0.83647 0.27901 0.54201 0.0
C989 C 0.81397 0.28793 0.54198 0.0
C990 C 0.83486 0.24324 0.42746 0.0
C991 C 0.85264 0.28517 0.58201 0.0
C992 C 0.89291 0.22262 0.5258 0.0
C993 C 0.91108 0.23369 0.50228 0.0
C994 C 0.87087 0.23251 0.5273 0.0
C995 C 0.86697 0.25404 0.50494 0.0
C996 C 0.88529 0.2654 0.4815 0.0
C997 C 0.90713 0.25504 0.48032 0.0
C998 C 0.85169 0.21978 0.55224 0.0
C999 C 0.88179 0.28845 0.45753 0.0
H1000 H 0.79386 0.26399 0.43991 0.0
H1001 H 0.80854 0.29908 0.57066 0.0
H1002 H 0.85024 0.25024 0.40913 0.0
H1003 H 0.83961 0.22602 0.44161 0.0
H1004 H 0.82082 0.24103 0.40103 0.0
H1005 H 0.84473 0.29738 0.60754 0.0
H1006 H 0.8578 0.26933 0.60141 0.0
H1007 H 0.86859 0.29306 0.56767 0.0
H1008 H 0.89587 0.20601 0.54241 0.0
H1009 H 0.92123 0.26378 0.46266 0.0
H1010 H 0.8377 0.21575 0.52669 0.0
H1011 H 0.84414 0.23083 0.58025 0.0
H1012 H 0.85769 0.20342 0.56867 0.0
H1013 H 0.86875 0.2868 0.42893 0.0
H1014 H 0.89798 0.2953 0.44196 0.0
H1015 H 0.87507 0.30118 0.48334 0.0
C1016 C 0.71799 0.22646 0.53542 0.0
C1017 C 0.71117 0.24195 0.4998 0.0
C1018 C 0.71152 0.20316 0.53379 0.0
C1019 C 0.6977 0.19514 0.49585 0.0
C1020 C 0.6902 0.21078 0.46047 0.0
C1021 C 0.69709 0.23399 0.46275 0.0
C1022 C 0.71996 0.187 0.5721 0.0
C1023 C 0.67525 0.2029 0.41974 0.0
C1024 C 0.70205 0.13127 0.46771 0.0
C1025 C 0.68278 0.12234 0.49136 0.0
C1026 C 0.70684 0.15499 0.46809 0.0
C1027 C 0.69189 0.17019 0.49246 0.0
C1028 C 0.67207 0.16136 0.51535 0.0
C1029 C 0.66781 0.13751 0.51472 0.0
C1030 C 0.72826 0.16371 0.4436 0.0
C1031 C 0.65562 0.17705 0.54127 0.0
H1032 H 0.72884 0.23241 0.56421 0.0
H1033 H 0.69161 0.24585 0.43523 0.0
H1034 H 0.70515 0.17821 0.58914 0.0
H1035 H 0.731 0.17342 0.55628 0.0
H1036 H 0.73006 0.19609 0.59988 0.0
H1037 H 0.66983 0.21744 0.39659 0.0
H1038 H 0.68479 0.1902 0.39795 0.0
H1039 H 0.65962 0.19411 0.43335 0.0
H1040 H 0.71383 0.11959 0.4501 0.0
H1041 H 0.65276 0.1307 0.53261 0.0
H1042 H 0.7401 0.1715 0.47003 0.0
H1043 H 0.7237 0.1774 0.41774 0.0
H1044 H 0.7376 0.14977 0.42468 0.0
H1045 H 0.66459 0.18528 0.57159 0.0
H1046 H 0.64031 0.16765 0.55489 0.0
H1047 H 0.64967 0.19109 0.51745 0.0
C1048 C 0.31197 0.22672 0.96006 0.0
C1049 C 0.29961 0.22485 0.00249 0.0
C1050 C 0.33441 0.23568 0.95956 0.0
C1051 C 0.34448 0.24344 0.00238 0.0
C1052 C 0.33214 0.24142 0.04541 0.0
C1053 C 0.30992 0.23187 0.04503 0.0
C1054 C 0.34726 0.23704 0.91317 0.0
C1055 C 0.34218 0.2499 0.09161 0.0
C1056 C 0.40935 0.25087 0.01041 0.0
C1057 C 0.41177 0.27453 0.00169 0.0
C1058 C 0.38755 0.24043 0.01013 0.0
C1059 C 0.36774 0.25414 0.00197 0.0
C1060 C 0.37012 0.2781 0.99342 0.0
C1061 C 0.39219 0.28798 0.99286 0.0
C1062 C 0.38571 0.21475 0.01833 0.0
C1063 C 0.34935 0.29334 0.98544 0.0
H1064 H 0.30409 0.22109 0.92719 0.0
H1065 H 0.30033 0.23058 0.07783 0.0
H1066 H 0.35073 0.25533 0.90408 0.0
H1067 H 0.36418 0.22825 0.91643 0.0
H1068 H 0.33749 0.22904 0.88356 0.0
H1069 H 0.3304 0.24692 0.12199 0.0
H1070 H 0.35877 0.24109 0.09898 0.0
H1071 H 0.34584 0.26865 0.08907 0.0
H1072 H 0.42459 0.2405 0.0169 0.0
H1073 H 0.39414 0.30633 0.98651 0.0
H1074 H 0.37676 0.2065 0.98799 0.0
H1075 H 0.37525 0.21127 0.05039 0.0
H1076 H 0.40285 0.20647 0.0229 0.0
H1077 H 0.33965 0.28742 0.95382 0.0
H1078 H 0.35416 0.31172 0.98025 0.0
H1079 H 0.33754 0.29209 0.0162 0.0
C1080 C 0.29942 0.77532 0.46603 0.0
C1081 C 0.28436 0.76686 0.50077 0.0
C1082 C 0.3064 0.79853 0.46598 0.0
C1083 C 0.2979 0.81368 0.50117 0.0
C1084 C 0.28299 0.80516 0.53672 0.0
C1085 C 0.27653 0.78186 0.53626 0.0
C1086 C 0.32255 0.80695 0.42783 0.0
C1087 C 0.27335 0.82081 0.57456 0.0
C1088 C 0.32699 0.87134 0.52499 0.0
C1089 C 0.31292 0.88648 0.49909 0.0
C1090 C 0.32261 0.8475 0.52526 0.0
C1091 C 0.30356 0.8387 0.49954 0.0
C1092 C 0.28931 0.85394 0.47339 0.0
C1093 C 0.29423 0.87761 0.47334 0.0
C1094 C 0.33831 0.83173 0.55316 0.0
C1095 C 0.26863 0.84529 0.44607 0.0
H1096 H 0.30571 0.76381 0.43872 0.0
H1097 H 0.26487 0.77552 0.56326 0.0
H1098 H 0.31364 0.81987 0.40528 0.0
H1099 H 0.33767 0.81564 0.44401 0.0
H1100 H 0.32875 0.79271 0.40487 0.0
H1101 H 0.26257 0.81132 0.60058 0.0
H1102 H 0.28757 0.8295 0.59386 0.0
H1103 H 0.26267 0.83449 0.55791 0.0
H1104 H 0.34156 0.87814 0.54459 0.0
H1105 H 0.28315 0.88931 0.45377 0.0
H1106 H 0.34541 0.81816 0.52967 0.0
H1107 H 0.32837 0.82288 0.58137 0.0
H1108 H 0.35286 0.84119 0.56984 0.0
H1109 H 0.27406 0.83213 0.4199 0.0
H1110 H 0.2595 0.85937 0.42701 0.0
H1111 H 0.25632 0.83685 0.47063 0.0
C1112 C 0.69305 0.76674 0.0358 0.0
C1113 C 0.7001 0.78199 -1e-05 0.0
C1114 C 0.67085 0.75719 0.03564 0.0
C1115 C 0.65524 0.7632 0.99908 0.0
C1116 C 0.6621 0.77882 0.9632 0.0
C1117 C 0.68449 0.78797 0.96397 0.0
C1118 C 0.66419 0.74048 0.07436 0.0
C1119 C 0.64581 0.7858 0.92392 0.0
C1120 C 0.60543 0.72244 0.97457 0.0
C1121 C 0.58746 0.73307 0.99941 0.0
C1122 C 0.62759 0.73214 0.97394 0.0
C1123 C 0.63174 0.75305 0.99839 0.0
C1124 C 0.61357 0.76401 0.02299 0.0
C1125 C 0.59165 0.75383 0.02336 0.0
C1126 C 0.64662 0.71985 0.9477 0.0
C1127 C 0.61731 0.78643 0.04908 0.0
H1128 H 0.705 0.76197 0.06371 0.0
H1129 H 0.68976 0.79983 0.93633 0.0
H1130 H 0.64893 0.74705 0.09371 0.0
H1131 H 0.65929 0.72364 0.05863 0.0
H1132 H 0.67837 0.73758 0.1002 0.0
H1133 H 0.65366 0.79848 0.89922 0.0
H1134 H 0.64052 0.77037 0.9034 0.0
H1135 H 0.62994 0.79345 0.9391 0.0
H1136 H 0.60226 0.70629 0.95639 0.0
H1137 H 0.57768 0.76222 0.04207 0.0
H1138 H 0.66066 0.71519 0.9727 0.0
H1139 H 0.65416 0.73146 0.92056 0.0
H1140 H 0.64046 0.7039 0.92996 0.0
H1141 H 0.63041 0.78401 0.07735 0.0
H1142 H 0.60122 0.79302 0.06547 0.0
H1143 H 0.62406 0.79972 0.02443 0.0
loop_
_geom_bond_atom_site_label_1
_geom_bond_atom_site_label_2
_geom_bond_distance
_geom_bond_site_symmetry_2
_ccdc_geom_bond_type
Fe0 O2 1.918 . S
Fe0 O5 1.997 . S
Fe0 O6 2.002 . S
Fe0 O11 1.976 . S
Fe0 O14 1.996 . S
Fe1 O2 1.918 1_556 S
Fe1 O9 1.997 . S
Fe1 O12 1.996 . S
Fe1 O16 1.976 . S
Fe1 O19 2.002 . S
O2 Fe0 1.918 . S
O2 Fe1 1.918 1_554 S
O2 Fe3 1.918 . S
Fe3 O2 1.918 . S
Fe3 O4 2.017 . S
Fe3 O13 1.991 . S
Fe3 O17 1.981 1_554 S
Fe3 O20 1.982 1_554 S
O4 Fe3 2.017 . S
O4 C21 1.295 . S
O5 Fe0 1.997 . S
O5 C21 1.235 . S
O6 Fe0 2.002 . S
O6 C7 1.295 . S
C7 O6 1.295 . S
C7 O9 1.235 1_554 S
C8 O13 1.287 . S
C8 O14 1.255 . S
O9 Fe1 1.997 . S
O9 C7 1.235 1_556 S
C10 O16 1.287 . S
C10 O17 1.255 . S
O11 Fe0 1.976 . S
O11 C18 1.286 1_554 S
O12 Fe1 1.996 . S
O12 C18 1.255 . S
O13 Fe3 1.991 . S
O13 C8 1.287 . S
O14 Fe0 1.996 . S
O14 C8 1.255 . S
C15 O19 1.295 . S
C15 O20 1.235 . S
O16 Fe1 1.976 . S
O16 C10 1.287 . S
O17 Fe3 1.981 1_556 S
O17 C10 1.255 . S
C18 O11 1.286 1_556 S
C18 O12 1.255 . S
O19 Fe1 2.002 . S
O19 C15 1.295 . S
O20 Fe3 1.982 1_556 S
O20 C15 1.235 . S
C21 O4 1.295 . S
C21 O5 1.235 . S
Fe22 O24 1.918 . S
Fe22 O27 1.997 . S
Fe22 O28 2.002 . S
Fe22 O33 1.976 . S
Fe22 O36 1.996 . S
Fe23 O24 1.918 . S
Fe23 O31 1.997 . S
Fe23 O34 1.996 . S
Fe23 O38 1.976 . S
Fe23 O41 2.002 . S
O24 Fe22 1.918 . S
O24 Fe23 1.918 . S
O24 Fe25 1.918 . S
Fe25 O24 1.918 . S
Fe25 O26 2.002 . S
Fe25 O35 1.976 . S
Fe25 O39 1.996 . S
Fe25 O42 1.997 . S
O26 Fe25 2.002 . S
O26 C43 1.295 . S
O27 Fe22 1.997 . S
O27 C43 1.235 . S
O28 Fe22 2.002 . S
O28 C29 1.295 . S
C29 O28 1.295 . S
C29 O31 1.235 . S
C30 O35 1.287 . S
C30 O36 1.255 . S
O31 Fe23 1.997 . S
O31 C29 1.235 . S
C32 O38 1.287 . S
C32 O39 1.255 . S
O33 Fe22 1.976 . S
O33 C40 1.287 . S
O34 Fe23 1.996 . S
O34 C40 1.255 . S
O35 Fe25 1.976 . S
O35 C30 1.287 . S
O36 Fe22 1.996 . S
O36 C30 1.255 . S
C37 O41 1.295 . S
C37 O42 1.235 . S
O38 Fe23 1.976 . S
O38 C32 1.287 . S
O39 Fe25 1.996 . S
O39 C32 1.255 . S
C40 O33 1.287 . S
C40 O34 1.255 . S
O41 Fe23 2.002 . S
O41 C37 1.295 . S
O42 Fe25 1.997 . S
O42 C37 1.235 . S
C43 O26 1.295 . S
C43 O27 1.235 . S
Fe44 O46 1.900 1_556 S
Fe44 O49 1.997 . S
Fe44 O50 2.002 . S
Fe44 O55 1.976 . S
Fe44 O58 1.996 . S
Fe45 O46 1.936 . S
Fe45 O53 1.997 . S
Fe45 O56 1.996 . S
Fe45 O60 1.976 . S
Fe45 O63 2.002 . S
O46 Fe44 1.900 1_554 S
O46 Fe45 1.936 . S
O46 Fe47 1.918 . S
Fe47 O46 1.918 . S
Fe47 O48 2.002 1_554 S
Fe47 O57 1.976 1_554 S
Fe47 O61 1.996 . S
Fe47 O64 1.997 . S
O48 Fe47 2.002 1_556 S
O48 C65 1.295 . S
O49 Fe44 1.997 . S
O49 C65 1.235 . S
O50 Fe44 2.002 . S
O50 C51 1.304 . S
C51 O50 1.304 . S
C51 O53 1.227 1_556 S
C52 O57 1.287 . S
C52 O58 1.255 . S
O53 Fe45 1.997 . S
O53 C51 1.227 1_554 S
C54 O60 1.287 . S
C54 O61 1.255 . S
O55 Fe44 1.976 . S
O55 C62 1.287 1_556 S
O56 Fe45 1.996 . S
O56 C62 1.255 . S
O57 Fe47 1.976 1_556 S
O57 C52 1.287 . S
O58 Fe44 1.996 . S
O58 C52 1.255 . S
C59 O63 1.295 . S
C59 O64 1.235 . S
O60 Fe45 1.976 . S
O60 C54 1.287 . S
O61 Fe47 1.996 . S
O61 C54 1.255 . S
C62 O55 1.287 1_554 S
C62 O56 1.255 . S
O63 Fe45 2.002 . S
O63 C59 1.295 . S
O64 Fe47 1.997 . S
O64 C59 1.235 . S
C65 O48 1.295 . S
C65 O49 1.235 . S
Fe66 O68 1.918 . S
Fe66 O71 1.997 . S
Fe66 O72 2.002 . S
Fe66 O77 1.976 . S
Fe66 O80 1.996 . S
Fe67 O68 1.918 . S
Fe67 O75 1.997 . S
Fe67 O78 1.996 . S
Fe67 O82 1.976 . S
Fe67 O85 2.002 . S
O68 Fe66 1.918 . S
O68 Fe67 1.918 . S
O68 Fe69 1.918 . S
Fe69 O68 1.918 . S
Fe69 O70 2.002 . S
Fe69 O79 1.976 . S
Fe69 O83 1.996 . S
Fe69 O86 1.997 . S
O70 Fe69 2.002 . S
O70 C87 1.295 . S
O71 Fe66 1.997 . S
O71 C87 1.235 . S
O72 Fe66 2.002 . S
O72 C73 1.295 . S
C73 O72 1.295 . S
C73 O75 1.235 . S
C74 O79 1.287 . S
C74 O80 1.255 . S
O75 Fe67 1.997 . S
O75 C73 1.235 . S
C76 O82 1.287 . S
C76 O83 1.255 . S
O77 Fe66 1.976 . S
O77 C84 1.287 . S
O78 Fe67 1.996 . S
O78 C84 1.255 . S
O79 Fe69 1.976 . S
O79 C74 1.287 . S
O80 Fe66 1.996 . S
O80 C74 1.255 . S
C81 O85 1.295 . S
C81 O86 1.235 . S
O82 Fe67 1.976 . S
O82 C76 1.287 . S
O83 Fe69 1.996 . S
O83 C76 1.255 . S
C84 O77 1.287 . S
C84 O78 1.255 . S
O85 Fe67 2.002 . S
O85 C81 1.295 . S
O86 Fe69 1.997 . S
O86 C81 1.235 . S
C87 O70 1.295 . S
C87 O71 1.235 . S
C88 C89 1.384 . S
C88 H101 0.947 . S
C88 C123 1.382 . S
C89 C88 1.384 . S
C89 C90 1.378 . S
C90 C89 1.378 . S
C90 C91 1.378 . S
C90 H102 0.952 . S
C91 C90 1.378 . S
C91 H103 0.950 . S
C91 C122 1.383 . S
H92 C111 0.947 . S
H93 C112 0.946 . S
H94 C114 0.953 . S
H95 C115 0.945 . S
H96 C117 0.952 . S
H97 C118 0.949 . S
H98 C120 0.950 . S
H99 C121 0.948 . S
H100 C123 0.951 . S
H101 C88 0.947 . S
H102 C90 0.952 . S
H103 C91 0.950 . S
N104 C107 1.372 1_554 S
N104 C109 1.363 . S
N105 C107 1.381 . S
N105 C108 1.372 . S
N106 C108 1.361 . S
N106 C109 1.377 1_556 S
C107 N104 1.372 1_556 S
C107 N105 1.381 . S
C107 C110 1.480 . S
C108 N105 1.372 . S
C108 N106 1.361 . S
C108 C116 1.457 . S
C109 N104 1.363 . S
C109 N106 1.377 1_554 S
C109 C122 1.479 . S
C110 C107 1.480 . S
C110 C111 1.383 1_556 S
C110 C115 1.385 . S
C111 H92 0.947 . S
C111 C110 1.383 1_554 S
C111 C112 1.388 . S
C112 H93 0.946 . S
C112 C111 1.388 . S
C112 C113 1.384 1_554 S
C113 C112 1.384 1_556 S
C113 C114 1.377 . S
C114 H94 0.953 . S
C114 C113 1.377 . S
C114 C115 1.369 . S
C115 H95 0.945 . S
C115 C110 1.385 . S
C115 C114 1.369 . S
C116 C108 1.457 . S
C116 C117 1.372 . S
C116 C121 1.364 . S
C117 H96 0.952 . S
C117 C116 1.372 . S
C117 C118 1.389 . S
C118 H97 0.949 . S
C118 C117 1.389 . S
C118 C119 1.387 . S
C119 C118 1.387 . S
C119 C120 1.372 . S
C120 H98 0.950 . S
C120 C119 1.372 . S
C120 C121 1.379 . S
C121 H99 0.948 . S
C121 C116 1.364 . S
C121 C120 1.379 . S
C122 C91 1.383 . S
C122 C109 1.479 . S
C122 C123 1.398 . S
C123 C88 1.382 . S
C123 H100 0.951 . S
C123 C122 1.398 . S
C124 C125 1.384 . S
C124 H137 0.947 . S
C124 C159 1.382 . S
C125 C124 1.384 . S
C125 C126 1.378 . S
C126 C125 1.378 . S
C126 C127 1.378 . S
C126 H138 0.952 . S
C127 C126 1.378 . S
C127 H139 0.950 . S
C127 C158 1.383 . S
H128 C147 0.947 . S
H129 C148 0.946 . S
H130 C150 0.953 . S
H131 C151 0.945 . S
H132 C153 0.952 . S
H133 C154 0.949 . S
H134 C156 0.950 . S
H135 C157 0.948 . S
H136 C159 0.951 . S
H137 C124 0.947 . S
H138 C126 0.952 . S
H139 C127 0.950 . S
N140 C143 1.382 1_655 S
N140 C145 1.363 . S
N141 C143 1.371 1_655 S
N141 C144 1.372 . S
N142 C144 1.361 . S
N142 C145 1.377 . S
C143 N140 1.382 1_455 S
C143 N141 1.371 1_455 S
C143 C146 1.480 . S
C144 N141 1.372 . S
C144 N142 1.361 . S
C144 C152 1.457 . S
C145 N140 1.363 . S
C145 N142 1.377 . S
C145 C158 1.479 . S
C146 C143 1.480 . S
C146 C147 1.383 . S
C146 C151 1.385 . S
C147 H128 0.947 . S
C147 C146 1.383 . S
C147 C148 1.388 . S
C148 H129 0.946 . S
C148 C147 1.388 . S
C148 C149 1.384 . S
C149 C148 1.384 . S
C149 C150 1.377 . S
C150 H130 0.953 . S
C150 C149 1.377 . S
C150 C151 1.369 . S
C151 H131 0.945 . S
C151 C146 1.385 . S
C151 C150 1.369 . S
C152 C144 1.457 . S
C152 C153 1.372 . S
C152 C157 1.364 . S
C153 H132 0.952 . S
C153 C152 1.372 . S
C153 C154 1.389 . S
C154 H133 0.949 . S
C154 C153 1.389 . S
C154 C155 1.387 . S
C155 C154 1.387 . S
C155 C156 1.372 . S
C156 H134 0.950 . S
C156 C155 1.372 . S
C156 C157 1.379 . S
C157 H135 0.948 . S
C157 C152 1.364 . S
C157 C156 1.379 . S
C158 C127 1.383 . S
C158 C145 1.479 . S
C158 C159 1.398 . S
C159 C124 1.382 . S
C159 H136 0.951 . S
C159 C158 1.398 . S
C160 C161 1.384 . S
C160 H173 0.947 . S
C160 C195 1.382 . S
C161 C160 1.384 . S
C161 C162 1.378 . S
C162 C161 1.378 . S
C162 C163 1.378 . S
C162 H174 0.952 . S
C163 C162 1.378 . S
C163 H175 0.950 . S
C163 C194 1.383 . S
H164 C183 0.947 . S
H165 C184 0.946 . S
H166 C186 0.953 . S
H167 C187 0.945 . S
H168 C189 0.952 . S
H169 C190 0.949 . S
H170 C192 0.950 . S
H171 C193 0.948 . S
H172 C195 0.951 . S
H173 C160 0.947 . S
H174 C162 0.952 . S
H175 C163 0.950 . S
N176 C179 1.382 1_556 S
N176 C181 1.363 . S
N177 C179 1.371 . S
N177 C180 1.372 . S
N178 C180 1.361 . S
N178 C181 1.377 1_554 S
C179 N176 1.382 1_554 S
C179 N177 1.371 . S
C179 C182 1.480 . S
C180 N177 1.372 . S
C180 N178 1.361 . S
C180 C188 1.457 . S
C181 N176 1.363 . S
C181 N178 1.377 1_556 S
C181 C194 1.479 . S
C182 C179 1.480 . S
C182 C183 1.383 1_554 S
C182 C187 1.385 . S
C183 H164 0.947 . S
C183 C182 1.383 1_556 S
C183 C184 1.388 . S
C184 H165 0.946 . S
C184 C183 1.388 . S
C184 C185 1.384 1_556 S
C185 C184 1.384 1_554 S
C185 C186 1.377 . S
C186 H166 0.953 . S
C186 C185 1.377 . S
C186 C187 1.369 . S
C187 H167 0.945 . S
C187 C182 1.385 . S
C187 C186 1.369 . S
C188 C180 1.457 . S
C188 C189 1.372 . S
C188 C193 1.364 . S
C189 H168 0.952 . S
C189 C188 1.372 . S
C189 C190 1.389 . S
C190 H169 0.949 . S
C190 C189 1.389 . S
C190 C191 1.387 . S
C191 C190 1.387 . S
C191 C192 1.372 . S
C192 H170 0.950 . S
C192 C191 1.372 . S
C192 C193 1.379 . S
C193 H171 0.948 . S
C193 C188 1.364 . S
C193 C192 1.379 . S
C194 C163 1.383 . S
C194 C181 1.479 . S
C194 C195 1.398 . S
C195 C160 1.382 . S
C195 H172 0.951 . S
C195 C194 1.398 . S
C196 C197 1.384 . S
C196 H209 0.947 . S
C196 C231 1.382 . S
C197 C196 1.384 . S
C197 C198 1.378 . S
C198 C197 1.378 . S
C198 C199 1.378 . S
C198 H210 0.952 . S
C199 C198 1.378 . S
C199 H211 0.950 . S
C199 C230 1.383 . S
H200 C219 0.947 . S
H201 C220 0.946 . S
H202 C222 0.953 . S
H203 C223 0.945 . S
H204 C225 0.952 . S
H205 C226 0.949 . S
H206 C228 0.950 . S
H207 C229 0.948 . S
H208 C231 0.951 . S
H209 C196 0.947 . S
H210 C198 0.952 . S
H211 C199 0.950 . S
N212 C215 1.382 1_455 S
N212 C217 1.363 . S
N213 C215 1.371 1_455 S
N213 C216 1.372 . S
N214 C216 1.361 . S
N214 C217 1.377 . S
C215 N212 1.382 1_655 S
C215 N213 1.371 1_655 S
C215 C218 1.480 . S
C216 N213 1.372 . S
C216 N214 1.361 . S
C216 C224 1.457 . S
C217 N212 1.363 . S
C217 N214 1.377 . S
C217 C230 1.479 . S
C218 C215 1.480 . S
C218 C219 1.383 . S
C218 C223 1.385 . S
C219 H200 0.947 . S
C219 C218 1.383 . S
C219 C220 1.388 . S
C220 H201 0.946 . S
C220 C219 1.388 . S
C220 C221 1.384 . S
C221 C220 1.384 . S
C221 C222 1.377 . S
C222 H202 0.953 . S
C222 C221 1.377 . S
C222 C223 1.369 . S
C223 H203 0.945 . S
C223 C218 1.385 . S
C223 C222 1.369 . S
C224 C216 1.457 . S
C224 C225 1.372 . S
C224 C229 1.364 . S
C225 H204 0.952 . S
C225 C224 1.372 . S
C225 C226 1.389 . S
C226 H205 0.949 . S
C226 C225 1.389 . S
C226 C227 1.387 . S
C227 C226 1.387 . S
C227 C228 1.372 . S
C228 H206 0.950 . S
C228 C227 1.372 . S
C228 C229 1.379 . S
C229 H207 0.948 . S
C229 C224 1.364 . S
C229 C228 1.379 . S
C230 C199 1.383 . S
C230 C217 1.479 . S
C230 C231 1.398 . S
C231 C196 1.382 . S
C231 H208 0.951 . S
C231 C230 1.398 . S
C232 C233 1.384 . S
C232 H245 0.947 . S
C232 C267 1.382 . S
C233 C232 1.384 . S
C233 C234 1.378 . S
C234 C233 1.378 . S
C234 C235 1.378 . S
C234 H246 0.952 . S
C235 C234 1.378 . S
C235 H247 0.950 . S
C235 C266 1.383 . S
H236 C255 0.947 . S
H237 C256 0.946 . S
H238 C258 0.953 . S
H239 C259 0.945 . S
H240 C261 0.952 . S
H241 C262 0.949 . S
H242 C264 0.950 . S
H243 C265 0.948 . S
H244 C267 0.951 . S
H245 C232 0.947 . S
H246 C234 0.952 . S
H247 C235 0.950 . S
N248 C251 1.382 . S
N248 C253 1.363 1_545 S
N249 C251 1.371 . S
N249 C252 1.372 1_545 S
N250 C252 1.361 . S
N250 C253 1.377 . S
C251 N248 1.382 . S
C251 N249 1.371 . S
C251 C254 1.480 . S
C252 N249 1.372 1_565 S
C252 N250 1.361 . S
C252 C260 1.457 . S
C253 N248 1.363 1_565 S
C253 N250 1.377 . S
C253 C266 1.479 . S
C254 C251 1.480 . S
C254 C255 1.383 . S
C254 C259 1.385 . S
C255 H236 0.947 . S
C255 C254 1.383 . S
C255 C256 1.388 . S
C256 H237 0.946 . S
C256 C255 1.388 . S
C256 C257 1.384 . S
C257 C256 1.384 . S
C257 C258 1.377 . S
C258 H238 0.953 . S
C258 C257 1.377 . S
C258 C259 1.369 . S
C259 H239 0.945 . S
C259 C254 1.385 . S
C259 C258 1.369 . S
C260 C252 1.457 . S
C260 C261 1.372 . S
C260 C265 1.364 . S
C261 H240 0.952 . S
C261 C260 1.372 . S
C261 C262 1.389 . S
C262 H241 0.949 . S
C262 C261 1.389 . S
C262 C263 1.387 . S
C263 C262 1.387 . S
C263 C264 1.372 . S
C264 H242 0.950 . S
C264 C263 1.372 . S
C264 C265 1.379 . S
C265 H243 0.948 . S
C265 C260 1.364 . S
C265 C264 1.379 . S
C266 C235 1.383 . S
C266 C253 1.479 . S
C266 C267 1.398 . S
C267 C232 1.382 . S
C267 H244 0.951 . S
C267 C266 1.398 . S
C268 C269 1.384 . S
C268 H281 0.947 . S
C268 C303 1.382 . S
C269 C268 1.384 . S
C269 C270 1.378 . S
C270 C269 1.378 . S
C270 C271 1.378 . S
C270 H282 0.952 . S
C271 C270 1.378 . S
C271 H283 0.950 . S
C271 C302 1.383 . S
H272 C291 0.947 . S
H273 C292 0.946 . S
H274 C294 0.953 . S
H275 C295 0.945 . S
H276 C297 0.952 . S
H277 C298 0.949 . S
H278 C300 0.950 . S
H279 C301 0.948 . S
H280 C303 0.951 . S
H281 C268 0.947 . S
H282 C270 0.952 . S
H283 C271 0.950 . S
N284 C287 1.382 1_556 S
N284 C289 1.363 . S
N285 C287 1.371 . S
N285 C288 1.372 . S
N286 C288 1.361 . S
N286 C289 1.377 1_554 S
C287 N284 1.382 1_554 S
C287 N285 1.371 . S
C287 C290 1.480 . S
C288 N285 1.372 . S
C288 N286 1.361 . S
C288 C296 1.457 . S
C289 N284 1.363 . S
C289 N286 1.377 1_556 S
C289 C302 1.479 . S
C290 C287 1.480 . S
C290 C291 1.383 1_554 S
C290 C295 1.385 . S
C291 H272 0.947 . S
C291 C290 1.383 1_556 S
C291 C292 1.388 . S
C292 H273 0.946 . S
C292 C291 1.388 . S
C292 C293 1.384 1_556 S
C293 C292 1.384 1_554 S
C293 C294 1.377 . S
C294 H274 0.953 . S
C294 C293 1.377 . S
C294 C295 1.369 . S
C295 H275 0.945 . S
C295 C290 1.385 . S
C295 C294 1.369 . S
C296 C288 1.457 . S
C296 C297 1.372 . S
C296 C301 1.364 . S
C297 H276 0.952 . S
C297 C296 1.372 . S
C297 C298 1.389 . S
C298 H277 0.949 . S
C298 C297 1.389 . S
C298 C299 1.387 . S
C299 C298 1.387 . S
C299 C300 1.372 . S
C300 H278 0.950 . S
C300 C299 1.372 . S
C300 C301 1.379 . S
C301 H279 0.948 . S
C301 C296 1.364 . S
C301 C300 1.379 . S
C302 C271 1.383 . S
C302 C289 1.479 . S
C302 C303 1.398 . S
C303 C268 1.382 . S
C303 H280 0.951 . S
C303 C302 1.398 . S
C304 C305 1.384 . S
C304 H317 0.947 . S
C304 C339 1.382 . S
C305 C304 1.384 . S
C305 C306 1.378 . S
C306 C305 1.378 . S
C306 C307 1.378 . S
C306 H318 0.952 . S
C307 C306 1.378 . S
C307 H319 0.950 . S
C307 C338 1.383 . S
H308 C327 0.947 . S
H309 C328 0.946 . S
H310 C330 0.953 . S
H311 C331 0.945 . S
H312 C333 0.952 . S
H313 C334 0.949 . S
H314 C336 0.950 . S
H315 C337 0.948 . S
H316 C339 0.951 . S
H317 C304 0.947 . S
H318 C306 0.952 . S
H319 C307 0.950 . S
N320 C323 1.382 1_545 S
N320 C325 1.363 . S
N321 C323 1.358 1_545 S
N321 C324 1.401 . S
N322 C324 1.361 . S
N322 C325 1.377 . S
C323 N320 1.382 1_565 S
C323 N321 1.358 1_565 S
C323 C326 1.480 . S
C324 N321 1.401 . S
C324 N322 1.361 . S
C324 C332 1.457 . S
C325 N320 1.363 . S
C325 N322 1.377 . S
C325 C338 1.479 . S
C326 C323 1.480 . S
C326 C327 1.383 . S
C326 C331 1.385 . S
C327 H308 0.947 . S
C327 C326 1.383 . S
C327 C328 1.388 . S
C328 H309 0.946 . S
C328 C327 1.388 . S
C328 C329 1.384 . S
C329 C328 1.384 . S
C329 C330 1.377 . S
C330 H310 0.953 . S
C330 C329 1.377 . S
C330 C331 1.369 . S
C331 H311 0.945 . S
C331 C326 1.385 . S
C331 C330 1.369 . S
C332 C324 1.457 . S
C332 C333 1.372 . S
C332 C337 1.364 . S
C333 H312 0.952 . S
C333 C332 1.372 . S
C333 C334 1.389 . S
C334 H313 0.949 . S
C334 C333 1.389 . S
C334 C335 1.387 . S
C335 C334 1.387 . S
C335 C336 1.372 . S
C336 H314 0.950 . S
C336 C335 1.372 . S
C336 C337 1.379 . S
C337 H315 0.948 . S
C337 C332 1.364 . S
C337 C336 1.379 . S
C338 C307 1.383 . S
C338 C325 1.479 . S
C338 C339 1.398 . S
C339 C304 1.382 . S
C339 H316 0.951 . S
C339 C338 1.398 . S
C340 C341 1.384 . S
C340 H353 0.947 . S
C340 C375 1.382 . S
C341 C340 1.384 . S
C341 C342 1.378 . S
C342 C341 1.378 . S
C342 C343 1.378 . S
C342 H354 0.952 . S
C343 C342 1.378 . S
C343 H355 0.950 . S
C343 C374 1.383 . S
H344 C363 0.947 . S
H345 C364 0.946 . S
H346 C366 0.953 . S
H347 C367 0.945 . S
H348 C369 0.952 . S
H349 C370 0.949 . S
H350 C372 0.950 . S
H351 C373 0.948 . S
H352 C375 0.951 . S
H353 C340 0.947 . S
H354 C342 0.952 . S
H355 C343 0.950 . S
N356 C359 1.389 . S
N356 C361 1.363 . S
N357 C359 1.364 1_556 S
N357 C360 1.372 . S
N358 C360 1.361 . S
N358 C361 1.377 1_556 S
C359 N356 1.389 . S
C359 N357 1.364 1_554 S
C359 C362 1.479 1_554 S
C360 N357 1.372 . S
C360 N358 1.361 . S
C360 C368 1.457 . S
C361 N356 1.363 . S
C361 N358 1.377 1_554 S
C361 C374 1.479 . S
C362 C359 1.479 1_556 S
C362 C363 1.366 1_556 S
C362 C367 1.401 . S
C363 H344 0.947 . S
C363 C362 1.366 1_554 S
C363 C364 1.388 . S
C364 H345 0.946 . S
C364 C363 1.388 . S
C364 C365 1.370 1_554 S
C365 C364 1.370 1_556 S
C365 C366 1.390 . S
C366 H346 0.953 . S
C366 C365 1.390 . S
C366 C367 1.369 . S
C367 H347 0.945 . S
C367 C362 1.401 . S
C367 C366 1.369 . S
C368 C360 1.457 . S
C368 C369 1.372 . S
C368 C373 1.364 . S
C369 H348 0.952 . S
C369 C368 1.372 . S
C369 C370 1.389 . S
C370 H349 0.949 . S
C370 C369 1.389 . S
C370 C371 1.387 . S
C371 C370 1.387 . S
C371 C372 1.372 . S
C372 H350 0.950 . S
C372 C371 1.372 . S
C372 C373 1.379 . S
C373 H351 0.948 . S
C373 C368 1.364 . S
C373 C372 1.379 . S
C374 C343 1.383 . S
C374 C361 1.479 . S
C374 C375 1.398 . S
C375 C340 1.382 . S
C375 H352 0.951 . S
C375 C374 1.398 . S
C376 C377 1.391 . S
C376 C378 1.394 . S
C376 H392 0.931 . S
C377 C376 1.391 . S
C377 C381 1.376 . S
C378 C376 1.394 . S
C378 C379 1.369 . S
C378 C382 1.531 . S
C379 C378 1.369 . S
C379 C380 1.410 . S
C379 C387 1.503 . S
C380 C379 1.410 . S
C380 C381 1.392 . S
C380 C383 1.511 . S
C381 C377 1.376 . S
C381 C380 1.392 . S
C381 H393 0.929 . S
C382 C378 1.531 . S
C382 H394 0.960 . S
C382 H395 0.962 . S
C382 H396 0.960 . S
C383 C380 1.511 . S
C383 H397 0.961 . S
C383 H398 0.961 . S
C383 H399 0.961 . S
C384 C385 1.370 . S
C384 C386 1.363 . S
C384 H400 0.931 . S
C385 C384 1.370 . S
C385 C389 1.408 . S
C386 C384 1.363 . S
C386 C387 1.370 . S
C386 C390 1.524 . S
C387 C379 1.503 . S
C387 C386 1.370 . S
C387 C388 1.403 . S
C388 C387 1.403 . S
C388 C389 1.404 . S
C388 C391 1.539 . S
C389 C385 1.408 . S
C389 C388 1.404 . S
C389 H401 0.930 . S
C390 C386 1.524 . S
C390 H402 0.956 . S
C390 H403 0.961 . S
C390 H404 0.961 . S
C391 C388 1.539 . S
C391 H405 0.958 . S
C391 H406 0.961 . S
C391 H407 0.960 . S
H392 C376 0.931 . S
H393 C381 0.929 . S
H394 C382 0.960 . S
H395 C382 0.962 . S
H396 C382 0.960 . S
H397 C383 0.961 . S
H398 C383 0.961 . S
H399 C383 0.961 . S
H400 C384 0.931 . S
H401 C389 0.930 . S
H402 C390 0.956 . S
H403 C390 0.961 . S
H404 C390 0.961 . S
H405 C391 0.958 . S
H406 C391 0.961 . S
H407 C391 0.960 . S
C408 C409 1.391 . S
C408 C410 1.394 . S
C408 H424 0.931 . S
C409 C408 1.391 . S
C409 C413 1.376 . S
C410 C408 1.394 . S
C410 C411 1.369 . S
C410 C414 1.531 . S
C411 C410 1.369 . S
C411 C412 1.410 . S
C411 C419 1.503 . S
C412 C411 1.410 . S
C412 C413 1.392 . S
C412 C415 1.511 . S
C413 C409 1.376 . S
C413 C412 1.392 . S
C413 H425 0.929 . S
C414 C410 1.531 . S
C414 H426 0.960 . S
C414 H427 0.962 . S
C414 H428 0.960 . S
C415 C412 1.511 . S
C415 H429 0.961 . S
C415 H430 0.961 . S
C415 H431 0.961 . S
C416 C417 1.370 . S
C416 C418 1.363 . S
C416 H432 0.931 . S
C417 C416 1.370 . S
C417 C421 1.408 . S
C418 C416 1.363 . S
C418 C419 1.370 . S
C418 C422 1.524 . S
C419 C411 1.503 . S
C419 C418 1.370 . S
C419 C420 1.403 . S
C420 C419 1.403 . S
C420 C421 1.404 . S
C420 C423 1.539 . S
C421 C417 1.408 . S
C421 C420 1.404 . S
C421 H433 0.930 . S
C422 C418 1.524 . S
C422 H434 0.956 . S
C422 H435 0.961 . S
C422 H436 0.961 . S
C423 C420 1.539 . S
C423 H437 0.958 . S
C423 H438 0.961 . S
C423 H439 0.960 . S
H424 C408 0.931 . S
H425 C413 0.929 . S
H426 C414 0.960 . S
H427 C414 0.962 . S
H428 C414 0.960 . S
H429 C415 0.961 . S
H430 C415 0.961 . S
H431 C415 0.961 . S
H432 C416 0.931 . S
H433 C421 0.930 . S
H434 C422 0.956 . S
H435 C422 0.961 . S
H436 C422 0.961 . S
H437 C423 0.958 . S
H438 C423 0.961 . S
H439 C423 0.960 . S
C440 C441 1.391 . S
C440 C442 1.394 . S
C440 H456 0.931 . S
C441 C440 1.391 . S
C441 C445 1.376 . S
C442 C440 1.394 . S
C442 C443 1.369 . S
C442 C446 1.531 . S
C443 C442 1.369 . S
C443 C444 1.410 . S
C443 C451 1.503 . S
C444 C443 1.410 . S
C444 C445 1.392 . S
C444 C447 1.511 . S
C445 C441 1.376 . S
C445 C444 1.392 . S
C445 H457 0.929 . S
C446 C442 1.531 . S
C446 H458 0.960 . S
C446 H459 0.962 . S
C446 H460 0.960 . S
C447 C444 1.511 . S
C447 H461 0.961 . S
C447 H462 0.961 . S
C447 H463 0.961 . S
C448 C449 1.370 . S
C448 C450 1.363 . S
C448 H464 0.931 . S
C449 C448 1.370 . S
C449 C453 1.408 . S
C450 C448 1.363 . S
C450 C451 1.370 . S
C450 C454 1.524 . S
C451 C443 1.503 . S
C451 C450 1.370 . S
C451 C452 1.403 . S
C452 C451 1.403 . S
C452 C453 1.404 . S
C452 C455 1.539 . S
C453 C449 1.408 . S
C453 C452 1.404 . S
C453 H465 0.930 . S
C454 C450 1.524 . S
C454 H466 0.956 . S
C454 H467 0.961 . S
C454 H468 0.961 . S
C455 C452 1.539 . S
C455 H469 0.958 . S
C455 H470 0.961 . S
C455 H471 0.960 . S
H456 C440 0.931 . S
H457 C445 0.929 . S
H458 C446 0.960 . S
H459 C446 0.962 . S
H460 C446 0.960 . S
H461 C447 0.961 . S
H462 C447 0.961 . S
H463 C447 0.961 . S
H464 C448 0.931 . S
H465 C453 0.930 . S
H466 C454 0.956 . S
H467 C454 0.961 . S
H468 C454 0.961 . S
H469 C455 0.958 . S
H470 C455 0.961 . S
H471 C455 0.960 . S
C472 C473 1.391 . S
C472 C474 1.394 . S
C472 H488 0.931 . S
C473 C472 1.391 . S
C473 C477 1.376 . S
C474 C472 1.394 . S
C474 C475 1.369 . S
C474 C478 1.531 . S
C475 C474 1.369 . S
C475 C476 1.410 . S
C475 C483 1.503 . S
C476 C475 1.410 . S
C476 C477 1.392 . S
C476 C479 1.511 . S
C477 C473 1.376 . S
C477 C476 1.392 . S
C477 H489 0.929 . S
C478 C474 1.531 . S
C478 H490 0.960 . S
C478 H491 0.962 . S
C478 H492 0.960 . S
C479 C476 1.511 . S
C479 H493 0.961 . S
C479 H494 0.961 . S
C479 H495 0.961 . S
C480 C481 1.370 . S
C480 C482 1.363 . S
C480 H496 0.931 . S
C481 C480 1.370 . S
C481 C485 1.408 . S
C482 C480 1.363 . S
C482 C483 1.370 . S
C482 C486 1.524 . S
C483 C475 1.503 . S
C483 C482 1.370 . S
C483 C484 1.403 . S
C484 C483 1.403 . S
C484 C485 1.404 . S
C484 C487 1.539 . S
C485 C481 1.408 . S
C485 C484 1.404 . S
C485 H497 0.930 . S
C486 C482 1.524 . S
C486 H498 0.956 . S
C486 H499 0.961 . S
C486 H500 0.961 . S
C487 C484 1.539 . S
C487 H501 0.958 . S
C487 H502 0.961 . S
C487 H503 0.960 . S
H488 C472 0.931 . S
H489 C477 0.929 . S
H490 C478 0.960 . S
H491 C478 0.962 . S
H492 C478 0.960 . S
H493 C479 0.961 . S
H494 C479 0.961 . S
H495 C479 0.961 . S
H496 C480 0.931 . S
H497 C485 0.930 . S
H498 C486 0.956 . S
H499 C486 0.961 . S
H500 C486 0.961 . S
H501 C487 0.958 . S
H502 C487 0.961 . S
H503 C487 0.960 . S
C504 C505 1.391 . S
C504 C506 1.394 . S
C504 H520 0.931 . S
C505 C504 1.391 . S
C505 C509 1.376 . S
C506 C504 1.394 . S
C506 C507 1.369 . S
C506 C510 1.531 . S
C507 C506 1.369 . S
C507 C508 1.410 . S
C507 C515 1.503 . S
C508 C507 1.410 . S
C508 C509 1.392 . S
C508 C511 1.511 . S
C509 C505 1.376 . S
C509 C508 1.392 . S
C509 H521 0.929 . S
C510 C506 1.531 . S
C510 H522 0.960 . S
C510 H523 0.962 . S
C510 H524 0.960 . S
C511 C508 1.511 . S
C511 H525 0.961 . S
C511 H526 0.961 . S
C511 H527 0.961 . S
C512 C513 1.370 . S
C512 C514 1.363 . S
C512 H528 0.931 . S
C513 C512 1.370 . S
C513 C517 1.408 . S
C514 C512 1.363 . S
C514 C515 1.370 . S
C514 C518 1.524 . S
C515 C507 1.503 . S
C515 C514 1.370 . S
C515 C516 1.403 . S
C516 C515 1.403 . S
C516 C517 1.404 . S
C516 C519 1.539 . S
C517 C513 1.408 . S
C517 C516 1.404 . S
C517 H529 0.930 . S
C518 C514 1.524 . S
C518 H530 0.956 . S
C518 H531 0.961 . S
C518 H532 0.961 . S
C519 C516 1.539 . S
C519 H533 0.958 . S
C519 H534 0.961 . S
C519 H535 0.960 . S
H520 C504 0.931 . S
H521 C509 0.929 . S
H522 C510 0.960 . S
H523 C510 0.962 . S
H524 C510 0.960 . S
H525 C511 0.961 . S
H526 C511 0.961 . S
H527 C511 0.961 . S
H528 C512 0.931 . S
H529 C517 0.930 . S
H530 C518 0.956 . S
H531 C518 0.961 . S
H532 C518 0.961 . S
H533 C519 0.958 . S
H534 C519 0.961 . S
H535 C519 0.960 . S
C536 C537 1.391 . S
C536 C538 1.394 . S
C536 H552 0.931 . S
C537 C536 1.391 . S
C537 C541 1.376 . S
C538 C536 1.394 . S
C538 C539 1.369 . S
C538 C542 1.531 . S
C539 C538 1.369 . S
C539 C540 1.410 . S
C539 C547 1.503 . S
C540 C539 1.410 . S
C540 C541 1.392 . S
C540 C543 1.511 . S
C541 C537 1.376 . S
C541 C540 1.392 . S
C541 H553 0.929 . S
C542 C538 1.531 . S
C542 H554 0.960 . S
C542 H555 0.962 . S
C542 H556 0.960 . S
C543 C540 1.511 . S
C543 H557 0.961 . S
C543 H558 0.961 . S
C543 H559 0.961 . S
C544 C545 1.370 . S
C544 C546 1.363 . S
C544 H560 0.931 . S
C545 C544 1.370 . S
C545 C549 1.408 . S
C546 C544 1.363 . S
C546 C547 1.370 . S
C546 C550 1.524 . S
C547 C539 1.503 . S
C547 C546 1.370 . S
C547 C548 1.403 . S
C548 C547 1.403 . S
C548 C549 1.404 . S
C548 C551 1.539 . S
C549 C545 1.408 . S
C549 C548 1.404 . S
C549 H561 0.930 . S
C550 C546 1.524 . S
C550 H562 0.956 . S
C550 H563 0.961 . S
C550 H564 0.961 . S
C551 C548 1.539 . S
C551 H565 0.958 . S
C551 H566 0.961 . S
C551 H567 0.960 . S
H552 C536 0.931 . S
H553 C541 0.929 . S
H554 C542 0.960 . S
H555 C542 0.962 . S
H556 C542 0.960 . S
H557 C543 0.961 . S
H558 C543 0.961 . S
H559 C543 0.961 . S
H560 C544 0.931 . S
H561 C549 0.930 . S
H562 C550 0.956 . S
H563 C550 0.961 . S
H564 C550 0.961 . S
H565 C551 0.958 . S
H566 C551 0.961 . S
H567 C551 0.960 . S
C568 C569 1.391 . S
C568 C570 1.394 . S
C568 H584 0.931 . S
C569 C568 1.391 . S
C569 C573 1.376 . S
C570 C568 1.394 . S
C570 C571 1.369 . S
C570 C574 1.531 . S
C571 C570 1.369 . S
C571 C572 1.410 . S
C571 C579 1.503 . S
C572 C571 1.410 . S
C572 C573 1.392 . S
C572 C575 1.511 . S
C573 C569 1.376 . S
C573 C572 1.392 . S
C573 H585 0.929 . S
C574 C570 1.531 . S
C574 H586 0.960 . S
C574 H587 0.962 . S
C574 H588 0.960 . S
C575 C572 1.511 . S
C575 H589 0.961 . S
C575 H590 0.961 . S
C575 H591 0.961 . S
C576 C577 1.370 . S
C576 C578 1.363 . S
C576 H592 0.931 . S
C577 C576 1.370 . S
C577 C581 1.408 . S
C578 C576 1.363 . S
C578 C579 1.370 . S
C578 C582 1.524 . S
C579 C571 1.503 . S
C579 C578 1.370 . S
C579 C580 1.403 . S
C580 C579 1.403 . S
C580 C581 1.404 . S
C580 C583 1.539 . S
C581 C577 1.408 . S
C581 C580 1.404 . S
C581 H593 0.930 . S
C582 C578 1.524 . S
C582 H594 0.956 . S
C582 H595 0.961 . S
C582 H596 0.961 . S
C583 C580 1.539 . S
C583 H597 0.958 . S
C583 H598 0.961 . S
C583 H599 0.960 . S
H584 C568 0.931 . S
H585 C573 0.929 . S
H586 C574 0.960 . S
H587 C574 0.962 . S
H588 C574 0.960 . S
H589 C575 0.961 . S
H590 C575 0.961 . S
H591 C575 0.961 . S
H592 C576 0.931 . S
H593 C581 0.930 . S
H594 C582 0.956 . S
H595 C582 0.961 . S
H596 C582 0.961 . S
H597 C583 0.958 . S
H598 C583 0.961 . S
H599 C583 0.960 . S
C600 C601 1.391 . S
C600 C602 1.394 . S
C600 H616 0.931 . S
C601 C600 1.391 . S
C601 C605 1.376 . S
C602 C600 1.394 . S
C602 C603 1.369 . S
C602 C606 1.531 . S
C603 C602 1.369 . S
C603 C604 1.410 . S
C603 C611 1.503 . S
C604 C603 1.410 . S
C604 C605 1.392 . S
C604 C607 1.511 . S
C605 C601 1.376 . S
C605 C604 1.392 . S
C605 H617 0.929 . S
C606 C602 1.531 . S
C606 H618 0.960 . S
C606 H619 0.962 . S
C606 H620 0.960 . S
C607 C604 1.511 . S
C607 H621 0.961 . S
C607 H622 0.961 . S
C607 H623 0.961 . S
C608 C609 1.370 . S
C608 C610 1.363 . S
C608 H624 0.931 . S
C609 C608 1.370 . S
C609 C613 1.408 . S
C610 C608 1.363 . S
C610 C611 1.370 . S
C610 C614 1.524 . S
C611 C603 1.503 . S
C611 C610 1.370 . S
C611 C612 1.403 . S
C612 C611 1.403 . S
C612 C613 1.404 . S
C612 C615 1.539 . S
C613 C609 1.408 . S
C613 C612 1.404 . S
C613 H625 0.930 . S
C614 C610 1.524 . S
C614 H626 0.956 . S
C614 H627 0.961 . S
C614 H628 0.961 . S
C615 C612 1.539 . S
C615 H629 0.958 . S
C615 H630 0.961 . S
C615 H631 0.960 . S
H616 C600 0.931 . S
H617 C605 0.929 . S
H618 C606 0.960 . S
H619 C606 0.962 . S
H620 C606 0.960 . S
H621 C607 0.961 . S
H622 C607 0.961 . S
H623 C607 0.961 . S
H624 C608 0.931 . S
H625 C613 0.930 . S
H626 C614 0.956 . S
H627 C614 0.961 . S
H628 C614 0.961 . S
H629 C615 0.958 . S
H630 C615 0.961 . S
H631 C615 0.960 . S
C632 C633 1.391 . S
C632 C634 1.394 . S
C632 H648 0.931 . S
C633 C632 1.391 . S
C633 C637 1.376 . S
C634 C632 1.394 . S
C634 C635 1.369 . S
C634 C638 1.531 . S
C635 C634 1.369 . S
C635 C636 1.410 . S
C635 C643 1.503 . S
C636 C635 1.410 . S
C636 C637 1.392 . S
C636 C639 1.511 . S
C637 C633 1.376 . S
C637 C636 1.392 . S
C637 H649 0.929 . S
C638 C634 1.531 . S
C638 H650 0.960 . S
C638 H651 0.962 . S
C638 H652 0.960 . S
C639 C636 1.511 . S
C639 H653 0.961 . S
C639 H654 0.961 . S
C639 H655 0.961 . S
C640 C641 1.370 . S
C640 C642 1.363 . S
C640 H656 0.931 . S
C641 C640 1.370 . S
C641 C645 1.408 . S
C642 C640 1.363 . S
C642 C643 1.370 . S
C642 C646 1.524 . S
C643 C635 1.503 . S
C643 C642 1.370 . S
C643 C644 1.403 . S
C644 C643 1.403 . S
C644 C645 1.404 . S
C644 C647 1.539 . S
C645 C641 1.408 . S
C645 C644 1.404 . S
C645 H657 0.930 . S
C646 C642 1.524 . S
C646 H658 0.956 . S
C646 H659 0.961 . S
C646 H660 0.961 . S
C647 C644 1.539 . S
C647 H661 0.958 . S
C647 H662 0.961 . S
C647 H663 0.960 . S
H648 C632 0.931 . S
H649 C637 0.929 . S
H650 C638 0.960 . S
H651 C638 0.962 . S
H652 C638 0.960 . S
H653 C639 0.961 . S
H654 C639 0.961 . S
H655 C639 0.961 . S
H656 C640 0.931 . S
H657 C645 0.930 . S
H658 C646 0.956 . S
H659 C646 0.961 . S
H660 C646 0.961 . S
H661 C647 0.958 . S
H662 C647 0.961 . S
H663 C647 0.960 . S
C664 C665 1.391 . S
C664 C666 1.394 . S
C664 H680 0.931 . S
C665 C664 1.391 . S
C665 C669 1.376 . S
C666 C664 1.394 . S
C666 C667 1.369 . S
C666 C670 1.531 . S
C667 C666 1.369 . S
C667 C668 1.410 . S
C667 C675 1.503 . S
C668 C667 1.410 . S
C668 C669 1.392 . S
C668 C671 1.511 . S
C669 C665 1.376 . S
C669 C668 1.392 . S
C669 H681 0.929 . S
C670 C666 1.531 . S
C670 H682 0.960 . S
C670 H683 0.962 . S
C670 H684 0.960 . S
C671 C668 1.511 . S
C671 H685 0.961 . S
C671 H686 0.961 . S
C671 H687 0.961 . S
C672 C673 1.370 . S
C672 C674 1.363 . S
C672 H688 0.931 . S
C673 C672 1.370 . S
C673 C677 1.408 . S
C674 C672 1.363 . S
C674 C675 1.370 . S
C674 C678 1.524 . S
C675 C667 1.503 . S
C675 C674 1.370 . S
C675 C676 1.403 . S
C676 C675 1.403 . S
C676 C677 1.404 . S
C676 C679 1.539 . S
C677 C673 1.408 . S
C677 C676 1.404 . S
C677 H689 0.930 . S
C678 C674 1.524 . S
C678 H690 0.956 . S
C678 H691 0.961 . S
C678 H692 0.961 . S
C679 C676 1.539 . S
C679 H693 0.958 . S
C679 H694 0.961 . S
C679 H695 0.960 . S
H680 C664 0.931 . S
H681 C669 0.929 . S
H682 C670 0.960 . S
H683 C670 0.962 . S
H684 C670 0.960 . S
H685 C671 0.961 . S
H686 C671 0.961 . S
H687 C671 0.961 . S
H688 C672 0.931 . S
H689 C677 0.930 . S
H690 C678 0.956 . S
H691 C678 0.961 . S
H692 C678 0.961 . S
H693 C679 0.958 . S
H694 C679 0.961 . S
H695 C679 0.960 . S
C696 C697 1.391 . S
C696 C698 1.394 . S
C696 H712 0.931 . S
C697 C696 1.391 . S
C697 C701 1.376 . S
C698 C696 1.394 . S
C698 C699 1.369 . S
C698 C702 1.531 . S
C699 C698 1.369 . S
C699 C700 1.410 . S
C699 C707 1.503 . S
C700 C699 1.410 . S
C700 C701 1.392 . S
C700 C703 1.511 . S
C701 C697 1.376 . S
C701 C700 1.392 . S
C701 H713 0.929 . S
C702 C698 1.531 . S
C702 H714 0.960 . S
C702 H715 0.962 . S
C702 H716 0.960 . S
C703 C700 1.511 . S
C703 H717 0.961 . S
C703 H718 0.961 . S
C703 H719 0.961 . S
C704 C705 1.370 . S
C704 C706 1.363 . S
C704 H720 0.931 . S
C705 C704 1.370 . S
C705 C709 1.408 . S
C706 C704 1.363 . S
C706 C707 1.370 . S
C706 C710 1.524 . S
C707 C699 1.503 . S
C707 C706 1.370 . S
C707 C708 1.403 . S
C708 C707 1.403 . S
C708 C709 1.404 . S
C708 C711 1.539 . S
C709 C705 1.408 . S
C709 C708 1.404 . S
C709 H721 0.930 . S
C710 C706 1.524 . S
C710 H722 0.956 . S
C710 H723 0.961 . S
C710 H724 0.961 . S
C711 C708 1.539 . S
C711 H725 0.958 . S
C711 H726 0.961 . S
C711 H727 0.960 . S
H712 C696 0.931 . S
H713 C701 0.929 . S
H714 C702 0.960 . S
H715 C702 0.962 . S
H716 C702 0.960 . S
H717 C703 0.961 . S
H718 C703 0.961 . S
H719 C703 0.961 . S
H720 C704 0.931 . S
H721 C709 0.930 . S
H722 C710 0.956 . S
H723 C710 0.961 . S
H724 C710 0.961 . S
H725 C711 0.958 . S
H726 C711 0.961 . S
H727 C711 0.960 . S
C728 C729 1.391 . S
C728 C730 1.394 . S
C728 H744 0.931 . S
C729 C728 1.391 . S
C729 C733 1.376 . S
C730 C728 1.394 . S
C730 C731 1.369 . S
C730 C734 1.531 . S
C731 C730 1.369 . S
C731 C732 1.410 . S
C731 C739 1.503 . S
C732 C731 1.410 . S
C732 C733 1.392 . S
C732 C735 1.511 . S
C733 C729 1.376 . S
C733 C732 1.392 . S
C733 H745 0.929 . S
C734 C730 1.531 . S
C734 H746 0.960 . S
C734 H747 0.962 . S
C734 H748 0.960 . S
C735 C732 1.511 . S
C735 H749 0.961 . S
C735 H750 0.961 . S
C735 H751 0.961 . S
C736 C737 1.370 . S
C736 C738 1.363 . S
C736 H752 0.931 . S
C737 C736 1.370 . S
C737 C741 1.408 . S
C738 C736 1.363 . S
C738 C739 1.370 . S
C738 C742 1.524 . S
C739 C731 1.503 . S
C739 C738 1.370 . S
C739 C740 1.403 . S
C740 C739 1.403 . S
C740 C741 1.404 . S
C740 C743 1.539 . S
C741 C737 1.408 . S
C741 C740 1.404 . S
C741 H753 0.930 . S
C742 C738 1.524 . S
C742 H754 0.956 . S
C742 H755 0.961 . S
C742 H756 0.961 . S
C743 C740 1.539 . S
C743 H757 0.958 . S
C743 H758 0.961 . S
C743 H759 0.960 . S
H744 C728 0.931 . S
H745 C733 0.929 . S
H746 C734 0.960 . S
H747 C734 0.962 . S
H748 C734 0.960 . S
H749 C735 0.961 . S
H750 C735 0.961 . S
H751 C735 0.961 . S
H752 C736 0.931 . S
H753 C741 0.930 . S
H754 C742 0.956 . S
H755 C742 0.961 . S
H756 C742 0.961 . S
H757 C743 0.958 . S
H758 C743 0.961 . S
H759 C743 0.960 . S
C760 C761 1.391 . S
C760 C762 1.394 . S
C760 H776 0.931 . S
C761 C760 1.391 . S
C761 C765 1.376 . S
C762 C760 1.394 . S
C762 C763 1.369 . S
C762 C766 1.531 . S
C763 C762 1.369 . S
C763 C764 1.410 . S
C763 C771 1.503 . S
C764 C763 1.410 . S
C764 C765 1.392 . S
C764 C767 1.511 . S
C765 C761 1.376 . S
C765 C764 1.392 . S
C765 H777 0.929 . S
C766 C762 1.531 . S
C766 H778 0.960 . S
C766 H779 0.962 . S
C766 H780 0.960 . S
C767 C764 1.511 . S
C767 H781 0.961 . S
C767 H782 0.961 . S
C767 H783 0.961 . S
C768 C769 1.370 . S
C768 C770 1.363 . S
C768 H784 0.931 . S
C769 C768 1.370 . S
C769 C773 1.408 . S
C770 C768 1.363 . S
C770 C771 1.370 . S
C770 C774 1.524 . S
C771 C763 1.503 . S
C771 C770 1.370 . S
C771 C772 1.403 . S
C772 C771 1.403 . S
C772 C773 1.404 . S
C772 C775 1.539 . S
C773 C769 1.408 . S
C773 C772 1.404 . S
C773 H785 0.930 . S
C774 C770 1.524 . S
C774 H786 0.956 . S
C774 H787 0.961 . S
C774 H788 0.961 . S
C775 C772 1.539 . S
C775 H789 0.958 . S
C775 H790 0.961 . S
C775 H791 0.960 . S
H776 C760 0.931 . S
H777 C765 0.929 . S
H778 C766 0.960 . S
H779 C766 0.962 . S
H780 C766 0.960 . S
H781 C767 0.961 . S
H782 C767 0.961 . S
H783 C767 0.961 . S
H784 C768 0.931 . S
H785 C773 0.930 . S
H786 C774 0.956 . S
H787 C774 0.961 . S
H788 C774 0.961 . S
H789 C775 0.958 . S
H790 C775 0.961 . S
H791 C775 0.960 . S
C792 C793 1.391 . S
C792 C794 1.394 . S
C792 H808 0.931 . S
C793 C792 1.391 . S
C793 C797 1.376 . S
C794 C792 1.394 . S
C794 C795 1.369 . S
C794 C798 1.531 . S
C795 C794 1.369 . S
C795 C796 1.410 . S
C795 C803 1.503 . S
C796 C795 1.410 . S
C796 C797 1.392 . S
C796 C799 1.511 . S
C797 C793 1.376 . S
C797 C796 1.392 . S
C797 H809 0.929 . S
C798 C794 1.531 . S
C798 H810 0.960 . S
C798 H811 0.962 . S
C798 H812 0.960 . S
C799 C796 1.511 . S
C799 H813 0.961 . S
C799 H814 0.961 . S
C799 H815 0.961 . S
C800 C801 1.370 . S
C800 C802 1.363 . S
C800 H816 0.931 . S
C801 C800 1.370 . S
C801 C805 1.408 . S
C802 C800 1.363 . S
C802 C803 1.370 . S
C802 C806 1.524 . S
C803 C795 1.503 . S
C803 C802 1.370 . S
C803 C804 1.403 . S
C804 C803 1.403 . S
C804 C805 1.404 . S
C804 C807 1.539 . S
C805 C801 1.408 . S
C805 C804 1.404 . S
C805 H817 0.930 . S
C806 C802 1.524 . S
C806 H818 0.956 . S
C806 H819 0.961 . S
C806 H820 0.961 . S
C807 C804 1.539 . S
C807 H821 0.958 . S
C807 H822 0.961 . S
C807 H823 0.960 . S
H808 C792 0.931 . S
H809 C797 0.929 . S
H810 C798 0.960 . S
H811 C798 0.962 . S
H812 C798 0.960 . S
H813 C799 0.961 . S
H814 C799 0.961 . S
H815 C799 0.961 . S
H816 C800 0.931 . S
H817 C805 0.930 . S
H818 C806 0.956 . S
H819 C806 0.961 . S
H820 C806 0.961 . S
H821 C807 0.958 . S
H822 C807 0.961 . S
H823 C807 0.960 . S
C824 C825 1.391 . S
C824 C826 1.394 . S
C824 H840 0.931 . S
C825 C824 1.391 . S
C825 C829 1.376 . S
C826 C824 1.394 . S
C826 C827 1.369 . S
C826 C830 1.531 . S
C827 C826 1.369 . S
C827 C828 1.410 . S
C827 C835 1.503 . S
C828 C827 1.410 . S
C828 C829 1.392 . S
C828 C831 1.511 . S
C829 C825 1.376 . S
C829 C828 1.392 . S
C829 H841 0.929 . S
C830 C826 1.531 . S
C830 H842 0.960 . S
C830 H843 0.962 . S
C830 H844 0.960 . S
C831 C828 1.511 . S
C831 H845 0.961 . S
C831 H846 0.961 . S
C831 H847 0.961 . S
C832 C833 1.370 . S
C832 C834 1.363 . S
C832 H848 0.931 . S
C833 C832 1.370 . S
C833 C837 1.408 . S
C834 C832 1.363 . S
C834 C835 1.370 . S
C834 C838 1.524 . S
C835 C827 1.503 . S
C835 C834 1.370 . S
C835 C836 1.403 . S
C836 C835 1.403 . S
C836 C837 1.404 . S
C836 C839 1.539 . S
C837 C833 1.408 . S
C837 C836 1.404 . S
C837 H849 0.930 . S
C838 C834 1.524 . S
C838 H850 0.956 . S
C838 H851 0.961 . S
C838 H852 0.961 . S
C839 C836 1.539 . S
C839 H853 0.958 . S
C839 H854 0.961 . S
C839 H855 0.960 . S
H840 C824 0.931 . S
H841 C829 0.929 . S
H842 C830 0.960 . S
H843 C830 0.962 . S
H844 C830 0.960 . S
H845 C831 0.961 . S
H846 C831 0.961 . S
H847 C831 0.961 . S
H848 C832 0.931 . S
H849 C837 0.930 . S
H850 C838 0.956 . S
H851 C838 0.961 . S
H852 C838 0.961 . S
H853 C839 0.958 . S
H854 C839 0.961 . S
H855 C839 0.960 . S
C856 C857 1.391 . S
C856 C858 1.394 . S
C856 H872 0.931 . S
C857 C856 1.391 . S
C857 C861 1.376 . S
C858 C856 1.394 . S
C858 C859 1.369 . S
C858 C862 1.531 . S
C859 C858 1.369 . S
C859 C860 1.410 . S
C859 C867 1.503 . S
C860 C859 1.410 . S
C860 C861 1.392 . S
C860 C863 1.511 . S
C861 C857 1.376 . S
C861 C860 1.392 . S
C861 H873 0.929 . S
C862 C858 1.531 . S
C862 H874 0.960 . S
C862 H875 0.962 . S
C862 H876 0.960 . S
C863 C860 1.511 . S
C863 H877 0.961 . S
C863 H878 0.961 . S
C863 H879 0.961 . S
C864 C865 1.370 . S
C864 C866 1.363 . S
C864 H880 0.931 . S
C865 C864 1.370 . S
C865 C869 1.408 . S
C866 C864 1.363 . S
C866 C867 1.370 . S
C866 C870 1.524 . S
C867 C859 1.503 . S
C867 C866 1.370 . S
C867 C868 1.403 . S
C868 C867 1.403 . S
C868 C869 1.404 . S
C868 C871 1.539 . S
C869 C865 1.408 . S
C869 C868 1.404 . S
C869 H881 0.930 . S
C870 C866 1.524 . S
C870 H882 0.956 . S
C870 H883 0.961 . S
C870 H884 0.961 . S
C871 C868 1.539 . S
C871 H885 0.958 . S
C871 H886 0.961 . S
C871 H887 0.960 . S
H872 C856 0.931 . S
H873 C861 0.929 . S
H874 C862 0.960 . S
H875 C862 0.962 . S
H876 C862 0.960 . S
H877 C863 0.961 . S
H878 C863 0.961 . S
H879 C863 0.961 . S
H880 C864 0.931 . S
H881 C869 0.930 . S
H882 C870 0.956 . S
H883 C870 0.961 . S
H884 C870 0.961 . S
H885 C871 0.958 . S
H886 C871 0.961 . S
H887 C871 0.960 . S
C888 C889 1.391 . S
C888 C890 1.394 . S
C888 H904 0.931 . S
C889 C888 1.391 . S
C889 C893 1.376 1_556 S
C890 C888 1.394 . S
C890 C891 1.369 . S
C890 C894 1.531 . S
C891 C890 1.369 . S
C891 C892 1.410 1_556 S
C891 C899 1.503 . S
C892 C891 1.410 1_554 S
C892 C893 1.392 . S
C892 C895 1.511 . S
C893 C889 1.376 1_554 S
C893 C892 1.392 . S
C893 H905 0.929 . S
C894 C890 1.531 . S
C894 H906 0.960 . S
C894 H907 0.962 . S
C894 H908 0.960 . S
C895 C892 1.511 . S
C895 H909 0.961 . S
C895 H910 0.961 . S
C895 H911 0.961 . S
C896 C897 1.357 1_554 S
C896 C898 1.363 . S
C896 H912 0.931 . S
C897 C896 1.357 1_556 S
C897 C901 1.423 . S
C898 C896 1.363 . S
C898 C899 1.370 1_554 S
C898 C902 1.524 . S
C899 C891 1.503 . S
C899 C898 1.370 1_556 S
C899 C900 1.403 . S
C900 C899 1.403 . S
C900 C901 1.404 . S
C900 C903 1.539 . S
C901 C897 1.423 . S
C901 C900 1.404 . S
C901 H913 0.930 . S
C902 C898 1.524 . S
C902 H914 0.956 . S
C902 H915 0.961 . S
C902 H916 0.961 . S
C903 C900 1.539 . S
C903 H917 0.958 . S
C903 H918 0.961 . S
C903 H919 0.960 . S
H904 C888 0.931 . S
H905 C893 0.929 . S
H906 C894 0.960 . S
H907 C894 0.962 . S
H908 C894 0.960 . S
H909 C895 0.961 . S
H910 C895 0.961 . S
H911 C895 0.961 . S
H912 C896 0.931 . S
H913 C901 0.930 . S
H914 C902 0.956 . S
H915 C902 0.961 . S
H916 C902 0.961 . S
H917 C903 0.958 . S
H918 C903 0.961 . S
H919 C903 0.960 . S
C920 C921 1.391 . S
C920 C922 1.394 . S
C920 H936 0.931 . S
C921 C920 1.391 . S
C921 C925 1.376 . S
C922 C920 1.394 . S
C922 C923 1.369 . S
C922 C926 1.531 . S
C923 C922 1.369 . S
C923 C924 1.410 . S
C923 C931 1.503 . S
C924 C923 1.410 . S
C924 C925 1.392 . S
C924 C927 1.511 . S
C925 C921 1.376 . S
C925 C924 1.392 . S
C925 H937 0.929 . S
C926 C922 1.531 . S
C926 H938 0.960 . S
C926 H939 0.962 . S
C926 H940 0.960 . S
C927 C924 1.511 . S
C927 H941 0.961 . S
C927 H942 0.961 . S
C927 H943 0.961 . S
C928 C929 1.370 . S
C928 C930 1.363 . S
C928 H944 0.931 . S
C929 C928 1.370 . S
C929 C933 1.408 . S
C930 C928 1.363 . S
C930 C931 1.370 . S
C930 C934 1.524 . S
C931 C923 1.503 . S
C931 C930 1.370 . S
C931 C932 1.403 . S
C932 C931 1.403 . S
C932 C933 1.404 . S
C932 C935 1.539 . S
C933 C929 1.408 . S
C933 C932 1.404 . S
C933 H945 0.930 . S
C934 C930 1.524 . S
C934 H946 0.956 . S
C934 H947 0.961 . S
C934 H948 0.961 . S
C935 C932 1.539 . S
C935 H949 0.958 . S
C935 H950 0.961 . S
C935 H951 0.960 . S
H936 C920 0.931 . S
H937 C925 0.929 . S
H938 C926 0.960 . S
H939 C926 0.962 . S
H940 C926 0.960 . S
H941 C927 0.961 . S
H942 C927 0.961 . S
H943 C927 0.961 . S
H944 C928 0.931 . S
H945 C933 0.930 . S
H946 C934 0.956 . S
H947 C934 0.961 . S
H948 C934 0.961 . S
H949 C935 0.958 . S
H950 C935 0.961 . S
H951 C935 0.960 . S
C952 C953 1.391 . S
C952 C954 1.394 . S
C952 H968 0.931 . S
C953 C952 1.391 . S
C953 C957 1.376 1_556 S
C954 C952 1.394 . S
C954 C955 1.369 . S
C954 C958 1.531 . S
C955 C954 1.369 . S
C955 C956 1.410 1_556 S
C955 C963 1.503 . S
C956 C955 1.410 1_554 S
C956 C957 1.392 . S
C956 C959 1.511 . S
C957 C953 1.376 1_554 S
C957 C956 1.392 . S
C957 H969 0.929 . S
C958 C954 1.531 . S
C958 H970 0.960 . S
C958 H971 0.962 . S
C958 H972 0.960 . S
C959 C956 1.511 . S
C959 H973 0.961 . S
C959 H974 0.961 . S
C959 H975 0.961 . S
C960 C961 1.379 . S
C960 C962 1.363 . S
C960 H976 0.931 . S
C961 C960 1.379 . S
C961 C965 1.399 1_554 S
C962 C960 1.363 . S
C962 C963 1.370 1_554 S
C962 C966 1.524 . S
C963 C955 1.503 . S
C963 C962 1.370 1_556 S
C963 C964 1.403 . S
C964 C963 1.403 . S
C964 C965 1.404 . S
C964 C967 1.539 . S
C965 C961 1.399 1_556 S
C965 C964 1.404 . S
C965 H977 0.930 . S
C966 C962 1.524 . S
C966 H978 0.956 . S
C966 H979 0.961 . S
C966 H980 0.961 . S
C967 C964 1.539 . S
C967 H981 0.958 . S
C967 H982 0.961 . S
C967 H983 0.960 . S
H968 C952 0.931 . S
H969 C957 0.929 . S
H970 C958 0.960 . S
H971 C958 0.962 . S
H972 C958 0.960 . S
H973 C959 0.961 . S
H974 C959 0.961 . S
H975 C959 0.961 . S
H976 C960 0.931 . S
H977 C965 0.930 . S
H978 C966 0.956 . S
H979 C966 0.961 . S
H980 C966 0.961 . S
H981 C967 0.958 . S
H982 C967 0.961 . S
H983 C967 0.960 . S
C984 C985 1.391 . S
C984 C986 1.394 . S
C984 H1000 0.931 . S
C985 C984 1.391 . S
C985 C989 1.376 . S
C986 C984 1.394 . S
C986 C987 1.369 . S
C986 C990 1.531 . S
C987 C986 1.369 . S
C987 C988 1.410 . S
C987 C995 1.503 . S
C988 C987 1.410 . S
C988 C989 1.392 . S
C988 C991 1.511 . S
C989 C985 1.376 . S
C989 C988 1.392 . S
C989 H1001 0.929 . S
C990 C986 1.531 . S
C990 H1002 0.960 . S
C990 H1003 0.962 . S
C990 H1004 0.960 . S
C991 C988 1.511 . S
C991 H1005 0.961 . S
C991 H1006 0.961 . S
C991 H1007 0.961 . S
C992 C993 1.370 . S
C992 C994 1.363 . S
C992 H1008 0.931 . S
C993 C992 1.370 . S
C993 C997 1.408 . S
C994 C992 1.363 . S
C994 C995 1.370 . S
C994 C998 1.524 . S
C995 C987 1.503 . S
C995 C994 1.370 . S
C995 C996 1.403 . S
C996 C995 1.403 . S
C996 C997 1.404 . S
C996 C999 1.539 . S
C997 C993 1.408 . S
C997 C996 1.404 . S
C997 H1009 0.930 . S
C998 C994 1.524 . S
C998 H1010 0.956 . S
C998 H1011 0.961 . S
C998 H1012 0.961 . S
C999 C996 1.539 . S
C999 H1013 0.958 . S
C999 H1014 0.961 . S
C999 H1015 0.960 . S
H1000 C984 0.931 . S
H1001 C989 0.929 . S
H1002 C990 0.960 . S
H1003 C990 0.962 . S
H1004 C990 0.960 . S
H1005 C991 0.961 . S
H1006 C991 0.961 . S
H1007 C991 0.961 . S
H1008 C992 0.931 . S
H1009 C997 0.930 . S
H1010 C998 0.956 . S
H1011 C998 0.961 . S
H1012 C998 0.961 . S
H1013 C999 0.958 . S
H1014 C999 0.961 . S
H1015 C999 0.960 . S
C1016 C1017 1.391 . S
C1016 C1018 1.394 . S
C1016 H1032 0.931 . S
C1017 C1016 1.391 . S
C1017 C1021 1.376 . S
C1018 C1016 1.394 . S
C1018 C1019 1.369 . S
C1018 C1022 1.531 . S
C1019 C1018 1.369 . S
C1019 C1020 1.410 . S
C1019 C1027 1.503 . S
C1020 C1019 1.410 . S
C1020 C1021 1.392 . S
C1020 C1023 1.511 . S
C1021 C1017 1.376 . S
C1021 C1020 1.392 . S
C1021 H1033 0.929 . S
C1022 C1018 1.531 . S
C1022 H1034 0.960 . S
C1022 H1035 0.962 . S
C1022 H1036 0.960 . S
C1023 C1020 1.511 . S
C1023 H1037 0.961 . S
C1023 H1038 0.961 . S
C1023 H1039 0.961 . S
C1024 C1025 1.370 . S
C1024 C1026 1.363 . S
C1024 H1040 0.931 . S
C1025 C1024 1.370 . S
C1025 C1029 1.408 . S
C1026 C1024 1.363 . S
C1026 C1027 1.370 . S
C1026 C1030 1.524 . S
C1027 C1019 1.503 . S
C1027 C1026 1.370 . S
C1027 C1028 1.403 . S
C1028 C1027 1.403 . S
C1028 C1029 1.404 . S
C1028 C1031 1.539 . S
C1029 C1025 1.408 . S
C1029 C1028 1.404 . S
C1029 H1041 0.930 . S
C1030 C1026 1.524 . S
C1030 H1042 0.956 . S
C1030 H1043 0.961 . S
C1030 H1044 0.961 . S
C1031 C1028 1.539 . S
C1031 H1045 0.958 . S
C1031 H1046 0.961 . S
C1031 H1047 0.960 . S
H1032 C1016 0.931 . S
H1033 C1021 0.929 . S
H1034 C1022 0.960 . S
H1035 C1022 0.962 . S
H1036 C1022 0.960 . S
H1037 C1023 0.961 . S
H1038 C1023 0.961 . S
H1039 C1023 0.961 . S
H1040 C1024 0.931 . S
H1041 C1029 0.930 . S
H1042 C1030 0.956 . S
H1043 C1030 0.961 . S
H1044 C1030 0.961 . S
H1045 C1031 0.958 . S
H1046 C1031 0.961 . S
H1047 C1031 0.960 . S
C1048 C1049 1.389 1_556 S
C1048 C1050 1.394 . S
C1048 H1064 0.931 . S
C1049 C1048 1.389 1_554 S
C1049 C1053 1.377 . S
C1050 C1048 1.394 . S
C1050 C1051 1.369 . S
C1050 C1054 1.531 . S
C1051 C1050 1.369 . S
C1051 C1052 1.410 1_556 S
C1051 C1059 1.504 . S
C1052 C1051 1.410 1_554 S
C1052 C1053 1.392 . S
C1052 C1055 1.511 . S
C1053 C1049 1.377 . S
C1053 C1052 1.392 . S
C1053 H1065 0.929 . S
C1054 C1050 1.531 . S
C1054 H1066 0.960 . S
C1054 H1067 0.962 . S
C1054 H1068 0.960 . S
C1055 C1052 1.511 . S
C1055 H1069 0.961 . S
C1055 H1070 0.961 . S
C1055 H1071 0.961 . S
C1056 C1057 1.372 . S
C1056 C1058 1.363 . S
C1056 H1072 0.931 . S
C1057 C1056 1.372 . S
C1057 C1061 1.405 1_554 S
C1058 C1056 1.363 . S
C1058 C1059 1.368 1_554 S
C1058 C1062 1.524 . S
C1059 C1051 1.504 . S
C1059 C1058 1.368 1_556 S
C1059 C1060 1.405 . S
C1060 C1059 1.405 . S
C1060 C1061 1.404 . S
C1060 C1063 1.539 . S
C1061 C1057 1.405 1_556 S
C1061 C1060 1.404 . S
C1061 H1073 0.930 . S
C1062 C1058 1.524 . S
C1062 H1074 0.956 1_554 S
C1062 H1075 0.961 . S
C1062 H1076 0.961 . S
C1063 C1060 1.539 . S
C1063 H1077 0.958 . S
C1063 H1078 0.961 1_556 S
C1063 H1079 0.960 1_556 S
H1064 C1048 0.931 . S
H1065 C1053 0.929 . S
H1066 C1054 0.960 . S
H1067 C1054 0.962 . S
H1068 C1054 0.960 . S
H1069 C1055 0.961 . S
H1070 C1055 0.961 . S
H1071 C1055 0.961 . S
H1072 C1056 0.931 . S
H1073 C1061 0.930 . S
H1074 C1062 0.956 1_556 S
H1075 C1062 0.961 . S
H1076 C1062 0.961 . S
H1077 C1063 0.958 . S
H1078 C1063 0.961 1_554 S
H1079 C1063 0.960 1_554 S
C1080 C1081 1.391 . S
C1080 C1082 1.394 . S
C1080 H1096 0.931 . S
C1081 C1080 1.391 . S
C1081 C1085 1.376 . S
C1082 C1080 1.394 . S
C1082 C1083 1.369 . S
C1082 C1086 1.531 . S
C1083 C1082 1.369 . S
C1083 C1084 1.410 . S
C1083 C1091 1.503 . S
C1084 C1083 1.410 . S
C1084 C1085 1.392 . S
C1084 C1087 1.511 . S
C1085 C1081 1.376 . S
C1085 C1084 1.392 . S
C1085 H1097 0.929 . S
C1086 C1082 1.531 . S
C1086 H1098 0.960 . S
C1086 H1099 0.962 . S
C1086 H1100 0.960 . S
C1087 C1084 1.511 . S
C1087 H1101 0.961 . S
C1087 H1102 0.961 . S
C1087 H1103 0.961 . S
C1088 C1089 1.370 . S
C1088 C1090 1.363 . S
C1088 H1104 0.931 . S
C1089 C1088 1.370 . S
C1089 C1093 1.408 . S
C1090 C1088 1.363 . S
C1090 C1091 1.370 . S
C1090 C1094 1.524 . S
C1091 C1083 1.503 . S
C1091 C1090 1.370 . S
C1091 C1092 1.403 . S
C1092 C1091 1.403 . S
C1092 C1093 1.404 . S
C1092 C1095 1.539 . S
C1093 C1089 1.408 . S
C1093 C1092 1.404 . S
C1093 H1105 0.930 . S
C1094 C1090 1.524 . S
C1094 H1106 0.956 . S
C1094 H1107 0.961 . S
C1094 H1108 0.961 . S
C1095 C1092 1.539 . S
C1095 H1109 0.958 . S
C1095 H1110 0.961 . S
C1095 H1111 0.960 . S
H1096 C1080 0.931 . S
H1097 C1085 0.929 . S
H1098 C1086 0.960 . S
H1099 C1086 0.962 . S
H1100 C1086 0.960 . S
H1101 C1087 0.961 . S
H1102 C1087 0.961 . S
H1103 C1087 0.961 . S
H1104 C1088 0.931 . S
H1105 C1093 0.930 . S
H1106 C1094 0.956 . S
H1107 C1094 0.961 . S
H1108 C1094 0.961 . S
H1109 C1095 0.958 . S
H1110 C1095 0.961 . S
H1111 C1095 0.960 . S
C1112 C1113 1.391 . S
C1112 C1114 1.394 . S
C1112 H1128 0.931 . S
C1113 C1112 1.391 . S
C1113 C1117 1.376 1_554 S
C1114 C1112 1.394 . S
C1114 C1115 1.369 . S
C1114 C1118 1.531 . S
C1115 C1114 1.369 . S
C1115 C1116 1.410 1_554 S
C1115 C1123 1.503 . S
C1116 C1115 1.410 1_556 S
C1116 C1117 1.392 . S
C1116 C1119 1.511 . S
C1117 C1113 1.376 1_556 S
C1117 C1116 1.392 . S
C1117 H1129 0.929 . S
C1118 C1114 1.531 . S
C1118 H1130 0.960 . S
C1118 H1131 0.962 . S
C1118 H1132 0.960 . S
C1119 C1116 1.511 . S
C1119 H1133 0.961 . S
C1119 H1134 0.961 . S
C1119 H1135 0.961 . S
C1120 C1121 1.370 1_556 S
C1120 C1122 1.363 . S
C1120 H1136 0.931 . S
C1121 C1120 1.370 1_554 S
C1121 C1125 1.408 . S
C1122 C1120 1.363 . S
C1122 C1123 1.370 1_556 S
C1122 C1126 1.524 . S
C1123 C1115 1.503 . S
C1123 C1122 1.370 1_554 S
C1123 C1124 1.403 . S
C1124 C1123 1.403 . S
C1124 C1125 1.404 . S
C1124 C1127 1.539 . S
C1125 C1121 1.408 . S
C1125 C1124 1.404 . S
C1125 H1137 0.930 . S
C1126 C1122 1.524 . S
C1126 H1138 0.956 1_556 S
C1126 H1139 0.961 . S
C1126 H1140 0.961 . S
C1127 C1124 1.539 . S
C1127 H1141 0.958 . S
C1127 H1142 0.961 . S
C1127 H1143 0.960 . S
H1128 C1112 0.931 . S
H1129 C1117 0.929 . S
H1130 C1118 0.960 . S
H1131 C1118 0.962 . S
H1132 C1118 0.960 . S
H1133 C1119 0.961 . S
H1134 C1119 0.961 . S
H1135 C1119 0.961 . S
H1136 C1120 0.931 . S
H1137 C1125 0.930 . S
H1138 C1126 0.956 1_554 S
H1139 C1126 0.961 . S
H1140 C1126 0.961 . S
H1141 C1127 0.958 . S
H1142 C1127 0.961 . S
H1143 C1127 0.960 . S
C377 C21 1.604 . S
C385 C197 1.604 . S
C409 C40 1.735 . S
C417 C119 1.637 . S
C449 C155 1.570 . S
C441 C54 1.598 . S
C473 C73 1.771 . S
C481 C161 1.750 . S
C513 C299 1.577 . S
C505 C74 1.601 . S
C545 C305 1.707 . S
C537 C10 1.727 . S
C577 C341 1.584 . S
C569 C37 1.630 . S
C609 C263 1.696 . S
C601 C65 1.775 . S
C633 C52 1.590 . S
C641 C125 1.575 . S
C665 C87 1.778 . S
C673 C191 1.749 . S
C697 C15 1.603 . S
C705 C227 1.589 . S
C737 C89 1.642 . S
C729 C32 1.721 . S
C761 C29 1.629 . S
C769 C371 1.568 . S
C801 C233 1.709 . S
C793 C59 1.772 . S
C833 C269 1.573 . S
C825 C84 1.597 . S
C857 C8 1.732 . S
C865 C335 1.690 . S
C897 C113 1.764 . S
C889 C7 1.844 1_556 S
C929 C149 1.677 . S
C921 C30 1.691 . S
C953 C62 1.856 1_556 S
C961 C185 1.841 . S
C985 C81 1.659 . S
C993 C221 1.638 . S
C1025 C257 1.776 . S
C1017 C76 1.857 . S
C1049 C18 1.663 1_554 S
C1057 C293 1.688 . S
C1081 C43 1.840 . S
C1089 C329 1.814 . S
C1113 C51 1.678 1_554 S
C1121 C365 1.626 1_554 S
