# Generated by pormake.
# Topology ptr, (4,4)-cn, num edge types: 1
# Building blocks:
#     Node 0, Type 0, BuildingBlock: UXUYUI_clean_sbu_0, # of connection points: 4
#     Node 1, Type 0, BuildingBlock: UXUYUI_clean_sbu_0, # of connection points: 4
#     Node 2, Type 0, BuildingBlock: UXUYUI_clean_sbu_0, # of connection points: 4
#     Node 3, Type 0, BuildingBlock: UXUYUI_clean_sbu_0, # of connection points: 4
#     Node 4, Type 0, BuildingBlock: UXUYUI_clean_sbu_0, # of connection points: 4
#     Node 5, Type 0, BuildingBlock: UXUYUI_clean_sbu_0, # of connection points: 4
#     Node 6, Type 0, BuildingBlock: UXUYUI_clean_sbu_0, # of connection points: 4
#     Node 7, Type 0, BuildingBlock: UXUYUI_clean_sbu_0, # of connection points: 4
#     Node 8, Type 0, BuildingBlock: UXUYUI_clean_sbu_0, # of connection points: 4
#     Node 9, Type 0, BuildingBlock: UXUYUI_clean_sbu_0, # of connection points: 4
#     Node 10, Type 0, BuildingBlock: UXUYUI_clean_sbu_0, # of connection points: 4
#     Node 11, Type 0, BuildingBlock: UXUYUI_clean_sbu_0, # of connection points: 4
#     Node 12, Type 0, BuildingBlock: UXUYUI_clean_sbu_0, # of connection points: 4
#     Node 13, Type 0, BuildingBlock: UXUYUI_clean_sbu_0, # of connection points: 4
#     Node 14, Type 0, BuildingBlock: UXUYUI_clean_sbu_0, # of connection points: 4
#     Node 15, Type 0, BuildingBlock: UXUYUI_clean_sbu_0, # of connection points: 4
#     Node 16, Type 0, BuildingBlock: UXUYUI_clean_sbu_0, # of connection points: 4
#     Node 17, Type 0, BuildingBlock: UXUYUI_clean_sbu_0, # of connection points: 4
#     Node 18, Type 1, BuildingBlock: GIZVER_clean_linker_0, # of connection points: 4
#     Node 19, Type 1, BuildingBlock: GIZVER_clean_linker_0, # of connection points: 4
#     Node 20, Type 1, BuildingBlock: GIZVER_clean_linker_0, # of connection points: 4
#     Node 21, Type 1, BuildingBlock: GIZVER_clean_linker_0, # of connection points: 4
#     Node 22, Type 1, BuildingBlock: GIZVER_clean_linker_0, # of connection points: 4
#     Node 23, Type 1, BuildingBlock: GIZVER_clean_linker_0, # of connection points: 4
#     Node 24, Type 1, BuildingBlock: GIZVER_clean_linker_0, # of connection points: 4
#     Node 25, Type 1, BuildingBlock: GIZVER_clean_linker_0, # of connection points: 4
#     Node 26, Type 1, BuildingBlock: GIZVER_clean_linker_0, # of connection points: 4
#     Node 27, Type 1, BuildingBlock: GIZVER_clean_linker_0, # of connection points: 4
#     Node 28, Type 1, BuildingBlock: GIZVER_clean_linker_0, # of connection points: 4
#     Node 29, Type 1, BuildingBlock: GIZVER_clean_linker_0, # of connection points: 4
#     Node 30, Type 1, BuildingBlock: GIZVER_clean_linker_0, # of connection points: 4
#     Node 31, Type 1, BuildingBlock: GIZVER_clean_linker_0, # of connection points: 4
#     Node 32, Type 1, BuildingBlock: GIZVER_clean_linker_0, # of connection points: 4
#     Node 33, Type 1, BuildingBlock: GIZVER_clean_linker_0, # of connection points: 4
#     Node 34, Type 1, BuildingBlock: GIZVER_clean_linker_0, # of connection points: 4
#     Node 35, Type 1, BuildingBlock: GIZVER_clean_linker_0, # of connection points: 4
#     Edge 36, Type (0, 1), BuildingBlock: CIFDUS_clean_linker_0, # of connection points: 2
#     Edge 37, Type (0, 1), BuildingBlock: CIFDUS_clean_linker_0, # of connection points: 2
#     Edge 38, Type (0, 1), BuildingBlock: CIFDUS_clean_linker_0, # of connection points: 2
#     Edge 39, Type (0, 1), BuildingBlock: CIFDUS_clean_linker_0, # of connection points: 2
#     Edge 40, Type (0, 1), BuildingBlock: CIFDUS_clean_linker_0, # of connection points: 2
#     Edge 41, Type (0, 1), BuildingBlock: CIFDUS_clean_linker_0, # of connection points: 2
#     Edge 42, Type (0, 1), BuildingBlock: CIFDUS_clean_linker_0, # of connection points: 2
#     Edge 43, Type (0, 1), BuildingBlock: CIFDUS_clean_linker_0, # of connection points: 2
#     Edge 44, Type (0, 1), BuildingBlock: CIFDUS_clean_linker_0, # of connection points: 2
#     Edge 45, Type (0, 1), BuildingBlock: CIFDUS_clean_linker_0, # of connection points: 2
#     Edge 46, Type (0, 1), BuildingBlock: CIFDUS_clean_linker_0, # of connection points: 2
#     Edge 47, Type (0, 1), BuildingBlock: CIFDUS_clean_linker_0, # of connection points: 2
#     Edge 48, Type (0, 1), BuildingBlock: CIFDUS_clean_linker_0, # of connection points: 2
#     Edge 49, Type (0, 1), BuildingBlock: CIFDUS_clean_linker_0, # of connection points: 2
#     Edge 50, Type (0, 1), BuildingBlock: CIFDUS_clean_linker_0, # of connection points: 2
#     Edge 51, Type (0, 1), BuildingBlock: CIFDUS_clean_linker_0, # of connection points: 2
#     Edge 52, Type (0, 1), BuildingBlock: CIFDUS_clean_linker_0, # of connection points: 2
#     Edge 53, Type (0, 1), BuildingBlock: CIFDUS_clean_linker_0, # of connection points: 2
#     Edge 54, Type (0, 1), BuildingBlock: CIFDUS_clean_linker_0, # of connection points: 2
#     Edge 55, Type (0, 1), BuildingBlock: CIFDUS_clean_linker_0, # of connection points: 2
#     Edge 56, Type (0, 1), BuildingBlock: CIFDUS_clean_linker_0, # of connection points: 2
#     Edge 57, Type (0, 1), BuildingBlock: CIFDUS_clean_linker_0, # of connection points: 2
#     Edge 58, Type (0, 1), BuildingBlock: CIFDUS_clean_linker_0, # of connection points: 2
#     Edge 59, Type (0, 1), BuildingBlock: CIFDUS_clean_linker_0, # of connection points: 2
#     Edge 60, Type (0, 1), BuildingBlock: CIFDUS_clean_linker_0, # of connection points: 2
#     Edge 61, Type (0, 1), BuildingBlock: CIFDUS_clean_linker_0, # of connection points: 2
#     Edge 62, Type (0, 1), BuildingBlock: CIFDUS_clean_linker_0, # of connection points: 2
#     Edge 63, Type (0, 1), BuildingBlock: CIFDUS_clean_linker_0, # of connection points: 2
#     Edge 64, Type (0, 1), BuildingBlock: CIFDUS_clean_linker_0, # of connection points: 2
#     Edge 65, Type (0, 1), BuildingBlock: CIFDUS_clean_linker_0, # of connection points: 2
#     Edge 66, Type (0, 1), BuildingBlock: CIFDUS_clean_linker_0, # of connection points: 2
#     Edge 67, Type (0, 1), BuildingBlock: CIFDUS_clean_linker_0, # of connection points: 2
#     Edge 68, Type (0, 1), BuildingBlock: CIFDUS_clean_linker_0, # of connection points: 2
#     Edge 69, Type (0, 1), BuildingBlock: CIFDUS_clean_linker_0, # of connection points: 2
#     Edge 70, Type (0, 1), BuildingBlock: CIFDUS_clean_linker_0, # of connection points: 2
#     Edge 71, Type (0, 1), BuildingBlock: CIFDUS_clean_linker_0, # of connection points: 2
#     Edge 72, Type (0, 1), BuildingBlock: CIFDUS_clean_linker_0, # of connection points: 2
#     Edge 73, Type (0, 1), BuildingBlock: CIFDUS_clean_linker_0, # of connection points: 2
#     Edge 74, Type (0, 1), BuildingBlock: CIFDUS_clean_linker_0, # of connection points: 2
#     Edge 75, Type (0, 1), BuildingBlock: CIFDUS_clean_linker_0, # of connection points: 2
#     Edge 76, Type (0, 1), BuildingBlock: CIFDUS_clean_linker_0, # of connection points: 2
#     Edge 77, Type (0, 1), BuildingBlock: CIFDUS_clean_linker_0, # of connection points: 2
#     Edge 78, Type (0, 1), BuildingBlock: CIFDUS_clean_linker_0, # of connection points: 2
#     Edge 79, Type (0, 1), BuildingBlock: CIFDUS_clean_linker_0, # of connection points: 2
#     Edge 80, Type (0, 1), BuildingBlock: CIFDUS_clean_linker_0, # of connection points: 2
#     Edge 81, Type (0, 1), BuildingBlock: CIFDUS_clean_linker_0, # of connection points: 2
#     Edge 82, Type (0, 1), BuildingBlock: CIFDUS_clean_linker_0, # of connection points: 2
#     Edge 83, Type (0, 1), BuildingBlock: CIFDUS_clean_linker_0, # of connection points: 2
#     Edge 84, Type (0, 1), BuildingBlock: CIFDUS_clean_linker_0, # of connection points: 2
#     Edge 85, Type (0, 1), BuildingBlock: CIFDUS_clean_linker_0, # of connection points: 2
#     Edge 86, Type (0, 1), BuildingBlock: CIFDUS_clean_linker_0, # of connection points: 2
#     Edge 87, Type (0, 1), BuildingBlock: CIFDUS_clean_linker_0, # of connection points: 2
#     Edge 88, Type (0, 1), BuildingBlock: CIFDUS_clean_linker_0, # of connection points: 2
#     Edge 89, Type (0, 1), BuildingBlock: CIFDUS_clean_linker_0, # of connection points: 2
#     Edge 90, Type (0, 1), BuildingBlock: CIFDUS_clean_linker_0, # of connection points: 2
#     Edge 91, Type (0, 1), BuildingBlock: CIFDUS_clean_linker_0, # of connection points: 2
#     Edge 92, Type (0, 1), BuildingBlock: CIFDUS_clean_linker_0, # of connection points: 2
#     Edge 93, Type (0, 1), BuildingBlock: CIFDUS_clean_linker_0, # of connection points: 2
#     Edge 94, Type (0, 1), BuildingBlock: CIFDUS_clean_linker_0, # of connection points: 2
#     Edge 95, Type (0, 1), BuildingBlock: CIFDUS_clean_linker_0, # of connection points: 2
#     Edge 96, Type (0, 1), BuildingBlock: CIFDUS_clean_linker_0, # of connection points: 2
#     Edge 97, Type (0, 1), BuildingBlock: CIFDUS_clean_linker_0, # of connection points: 2
#     Edge 98, Type (0, 1), BuildingBlock: CIFDUS_clean_linker_0, # of connection points: 2
#     Edge 99, Type (0, 1), BuildingBlock: CIFDUS_clean_linker_0, # of connection points: 2
#     Edge 100, Type (0, 1), BuildingBlock: CIFDUS_clean_linker_0, # of connection points: 2
#     Edge 101, Type (0, 1), BuildingBlock: CIFDUS_clean_linker_0, # of connection points: 2
#     Edge 102, Type (0, 1), BuildingBlock: CIFDUS_clean_linker_0, # of connection points: 2
#     Edge 103, Type (0, 1), BuildingBlock: CIFDUS_clean_linker_0, # of connection points: 2
#     Edge 104, Type (0, 1), BuildingBlock: CIFDUS_clean_linker_0, # of connection points: 2
#     Edge 105, Type (0, 1), BuildingBlock: CIFDUS_clean_linker_0, # of connection points: 2
#     Edge 106, Type (0, 1), BuildingBlock: CIFDUS_clean_linker_0, # of connection points: 2
#     Edge 107, Type (0, 1), BuildingBlock: CIFDUS_clean_linker_0, # of connection points: 2
# Relax obj value: 0.092
# Max RMSD: 0.230
# Mean RMSD: 0.120
data_MOF--net-ptr--node1-UXUYUI_clean_sbu_0--node2-GIZVER_clean_linker_0--edge1-CIFDUS_clean_linker_0
_symmetry_space_group_name_H-M    P1
_symmetry_Int_Tables_number       1
_symmetry_cell_setting            triclinic
loop_
_symmetry_equiv_pos_as_xyz
'x, y, z'
_cell_length_a     89.060222
_cell_length_b     89.075353
_cell_length_c     51.102629
_cell_angle_alpha  90.265554
_cell_angle_beta   90.248576
_cell_angle_gamma 120.05553
loop_
_atom_site_label
_atom_site_type_symbol
_atom_site_fract_x
_atom_site_fract_y
_atom_site_fract_z
_atom_type_partial_charge
Li0 Li 0.9877 0.35742 0.00219 0.0
Li1 Li 0.01954 0.36993 -0.00199 0.0
Li2 Li 0.00697 0.38373 0.02532 0.0
Li3 Li 1.00514 0.38453 0.97765 0.0
C4 C 0.00768 0.3609 0.0558 0.0
N5 N 0.0143 0.36357 0.109 0.0
C6 C 0.02394 0.36453 0.06516 0.0
C7 C 0.99474 0.35848 0.07349 0.0
C8 C 0.02704 0.36586 0.09213 0.0
C9 C 0.99836 0.35994 0.10031 0.0
C10 C 1.00515 0.35248 0.95143 0.0
C11 C 0.02191 0.3523 0.91463 0.0
N12 N 0.01302 0.33466 0.91471 0.0
C13 C 0.99608 0.33435 0.95105 0.0
C14 C 0.01808 0.36155 0.933 0.0
C15 C 1.00029 0.32558 0.93236 0.0
C16 C 0.95662 0.33159 0.97923 0.0
N17 N 0.96627 0.33587 0.00156 0.0
C18 C 0.9468 0.30817 0.01996 0.0
C19 C 0.96158 0.32465 0.02191 0.0
C20 C 0.9368 0.3032 -0.00318 0.0
C21 C 0.94176 0.31531 0.97646 0.0
H22 H 0.96084 0.34063 0.96315 0.0
H23 H 0.96959 0.32828 0.03934 0.0
C24 C 0.05414 0.37679 0.00405 0.0
N25 N 0.03781 0.36452 -0.00331 0.0
C26 C 0.06692 0.37228 0.00823 0.0
C27 C 0.04615 0.34285 0.99557 0.0
C28 C 0.03371 0.34785 0.99213 0.0
C29 C 0.06287 0.35496 0.00472 0.0
H30 H 0.05696 0.38986 0.00829 0.0
H31 H 0.02055 0.33818 0.98718 0.0
C32 C 0.96933 0.37284 0.00203 0.0
N33 N 0.93378 0.35831 -0.00229 0.0
C34 C 0.96181 0.37322 0.97816 0.0
C35 C 0.95879 0.36518 0.02375 0.0
C36 C 0.94381 0.36579 0.97637 0.0
C37 C 0.94084 0.35786 0.02115 0.0
C38 C 0.03852 0.40961 0.98928 0.0
C39 C 0.04129 0.42547 -0.00088 0.0
C40 C 0.04826 0.40933 0.96813 0.0
C41 C 0.05363 0.44084 0.98731 0.0
C42 C 0.06048 0.42498 0.95687 0.0
N43 N 0.06287 0.44027 0.96659 0.0
C44 C 0.02777 0.4055 0.06566 0.0
C45 C 0.99923 0.40114 0.06546 0.0
C46 C 0.03231 0.41676 0.08703 0.0
N47 N 0.01146 0.3979 0.05548 0.0
C48 C 1.00323 0.41238 0.08686 0.0
C49 C 0.01997 0.42033 0.09795 0.0
H50 H 0.0373 0.40291 0.05694 0.0
H51 H 0.98643 0.3951 0.0567 0.0
C52 C 0.9999 0.39114 0.92519 0.0
N53 N 1.00476 0.39824 0.94951 0.0
C54 C 0.99762 0.40041 0.90512 0.0
C55 C 1.00577 0.42429 0.93531 0.0
C56 C 0.00761 0.41444 0.95491 0.0
C57 C 1.00044 0.41715 0.91016 0.0
H58 H 0.99724 0.37806 0.92161 0.0
H59 H 0.01077 0.4195 0.97466 0.0
O60 O 1.00453 0.36 0.02946 0.0
O61 O 1.00121 0.36129 0.96957 0.0
O62 O 0.98689 0.3797 0.00404 0.0
O63 O 0.02644 0.39444 0.00051 0.0
H64 H 0.0341 0.36644 0.05177 0.0
H65 H 0.98211 0.35572 0.06658 0.0
H66 H 0.03959 0.36875 0.09965 0.0
H67 H 0.98851 0.35822 0.11422 0.0
H68 H 0.03192 0.35916 0.90028 0.0
H69 H 0.98604 0.32712 0.9652 0.0
H70 H 0.02504 0.37557 0.93279 0.0
H71 H 0.99345 0.31155 0.93193 0.0
H72 H 0.94344 0.2993 0.03618 0.0
H73 H 0.93472 0.31198 0.95805 0.0
H74 H 0.07947 0.38205 0.01572 0.0
H75 H 0.04242 0.32941 0.9922 0.0
H76 H 0.96975 0.37906 0.96113 0.0
H77 H 0.96439 0.36473 0.04234 0.0
H78 H 0.93781 0.36592 0.95799 0.0
H79 H 0.93251 0.35179 0.03776 0.0
H80 H 0.03388 0.42589 0.01555 0.0
H81 H 0.04646 0.39717 0.96058 0.0
H82 H 0.05584 0.45321 0.9946 0.0
H83 H 0.06808 0.42496 0.94043 0.0
H84 H 0.04543 0.42279 0.09471 0.0
H85 H 0.99329 0.41465 0.09484 0.0
H86 H 0.99351 0.39449 0.88592 0.0
H87 H 0.00782 0.43706 0.93999 0.0
Li88 Li 0.65523 0.63599 0.0127 0.0
Li89 Li 0.63916 0.65074 0.01578 0.0
Li90 Li 0.62918 0.62274 0.0379 0.0
Li91 Li 0.62724 0.62326 0.98912 0.0
C92 C 0.66545 0.65406 0.05835 0.0
N93 N 0.69645 0.67184 0.08557 0.0
C94 C 0.67485 0.67219 0.05813 0.0
C95 C 0.67174 0.64498 0.07257 0.0
C96 C 0.69051 0.68094 0.07201 0.0
C97 C 0.68748 0.6542 0.08614 0.0
C98 C 0.66395 0.65543 0.97115 0.0
C99 C 0.68485 0.65667 0.94011 0.0
N100 N 0.69627 0.67309 0.94833 0.0
C101 C 0.67586 0.67232 0.97925 0.0
C102 C 0.66842 0.64754 0.95135 0.0
C103 C 0.69214 0.68104 0.96746 0.0
C104 C 0.67789 0.62422 -0.00201 0.0
N105 N 0.6779 0.63816 0.00894 0.0
C106 C 0.70899 0.65366 0.01064 0.0
C107 C 0.69308 0.65279 0.01512 0.0
C108 C 0.70939 0.63951 -0.00095 0.0
C109 C 0.69347 0.62462 0.99279 0.0
H110 H 0.66573 0.61289 0.99257 0.0
H111 H 0.69296 0.66398 0.02297 0.0
C112 C 0.63599 0.67598 0.04367 0.0
N113 N 0.63919 0.67217 0.01929 0.0
C114 C 0.63481 0.69081 0.04809 0.0
C115 C 0.64071 0.69793 0.00232 0.0
C116 C 0.64156 0.68276 -0.00131 0.0
C117 C 0.63711 0.70199 0.02726 0.0
H118 H 0.63419 0.66735 0.05969 0.0
H119 H 0.64394 0.67934 0.97943 0.0
C120 C 0.63144 0.5957 0.0209 0.0
N121 N 0.62028 0.56338 0.04214 0.0
C122 C 0.61599 0.58139 0.0121 0.0
C123 C 0.6413 0.59357 0.04031 0.0
C124 C 0.61055 0.56516 0.02313 0.0
C125 C 0.63541 0.57713 0.05086 0.0
C126 C 0.60488 0.63636 0.02046 0.0
C127 C 0.59913 0.63666 0.04575 0.0
C128 C 0.60065 0.64393 -5e-05 0.0
C129 C 0.58929 0.64466 0.05013 0.0
C130 C 0.59081 0.65183 0.00514 0.0
N131 N 0.58539 0.65203 0.02992 0.0
C132 C 0.62412 0.61276 0.09128 0.0
C133 C 0.60092 0.59476 0.06265 0.0
C134 C 0.61513 0.60242 0.11255 0.0
N135 N 0.61695 0.6087 0.06694 0.0
C136 C 0.59152 0.58397 0.08333 0.0
C137 C 0.59861 0.58772 0.10874 0.0
H138 H 0.63674 0.62411 0.09422 0.0
H139 H 0.59545 0.59199 0.0431 0.0
C140 C 0.62035 0.60189 0.94514 0.0
N141 N 0.61355 0.60936 0.96068 0.0
C142 C 0.61002 0.5896 0.92627 0.0
C143 C 0.5859 0.59306 0.93955 0.0
C144 C 0.5967 0.60527 0.95823 0.0
C145 C 0.59247 0.58486 0.92351 0.0
H146 H 0.63367 0.60506 0.94802 0.0
H147 H 0.5915 0.61103 0.97137 0.0
O148 O 0.65 0.64529 0.04517 0.0
O149 O 0.64814 0.64653 0.98296 0.0
O150 O 0.63683 0.61176 0.01073 0.0
O151 O 0.61501 0.6291 0.01593 0.0
H152 H 0.67019 0.67944 0.04722 0.0
H153 H 0.66461 0.63096 0.07301 0.0
H154 H 0.69796 0.69496 0.07192 0.0
H155 H 0.69255 0.64734 0.09711 0.0
H156 H 0.68854 0.65068 0.92489 0.0
H157 H 0.67267 0.67855 0.99475 0.0
H158 H 0.65937 0.63444 0.94495 0.0
H159 H 0.70153 0.69408 0.97364 0.0
H160 H 0.72082 0.66541 0.016 0.0
H161 H 0.69296 0.61353 0.98315 0.0
H162 H 0.6323 0.69359 0.06772 0.0
H163 H 0.64253 0.70621 0.98576 0.0
H164 H 0.60818 0.58283 -0.00286 0.0
H165 H 0.65334 0.60451 0.04719 0.0
H166 H 0.59857 0.55398 0.01663 0.0
H167 H 0.64286 0.57529 0.06599 0.0
H168 H 0.60241 0.63097 0.06187 0.0
H169 H 0.60517 0.64394 0.9803 0.0
H170 H 0.58482 0.64508 0.06962 0.0
H171 H 0.58755 0.65786 0.98951 0.0
H172 H 0.62097 0.60611 0.13185 0.0
H173 H 0.57891 0.57275 0.07938 0.0
H174 H 0.6157 0.58378 0.91412 0.0
H175 H 0.57241 0.58965 0.93829 0.0
Li176 Li 0.386 1.00064 0.98293 0.0
Li177 Li 0.38781 0.00451 0.03144 0.0
Li178 Li 0.3589 0.98983 0.00652 0.0
Li179 Li 0.37849 0.02115 0.00356 0.0
C180 C 0.38061 0.97062 0.00103 0.0
N181 N 0.38961 0.94736 0.98102 0.0
C182 C 0.39528 0.9705 0.01057 0.0
C183 C 0.37046 0.95884 0.98144 0.0
C184 C 0.39963 0.95865 0.00018 0.0
C185 C 0.37525 0.94721 0.97153 0.0
C186 C 0.41493 0.03792 0.00254 0.0
C187 C 0.43146 0.06717 0.01932 0.0
N188 N 0.44212 0.07157 -0.00171 0.0
C189 C 0.42604 0.04273 0.98108 0.0
C190 C 0.41765 0.05023 0.02182 0.0
C191 C 0.43972 0.05981 0.97929 0.0
C192 C 0.39015 0.99472 0.92994 0.0
N193 N 0.39722 0.99689 0.95421 0.0
C194 C 0.42072 0.99413 0.93725 0.0
C195 C 0.41226 0.99676 0.95822 0.0
C196 C 0.41371 0.99182 0.91188 0.0
C197 C 0.39821 0.99217 0.90841 0.0
H198 H 0.37838 0.99523 0.92722 0.0
H199 H 0.41775 0.99883 0.97772 0.0
C200 C 0.39239 0.98793 0.07423 0.0
N201 N 0.39988 1.00325 0.06133 0.0
C202 C 0.40133 0.98512 0.09433 0.0
C203 C 0.42539 0.01414 0.08806 0.0
C204 C 0.41603 0.01631 0.06783 0.0
C205 C 0.41813 0.9983 0.10149 0.0
H206 H 0.37967 0.97765 0.06824 0.0
H207 H 0.42182 0.02827 0.057 0.0
C208 C 0.35165 0.99912 0.96037 0.0
N209 N 0.32131 0.98813 0.93219 0.0
C210 C 0.34409 0.00959 0.95894 0.0
C211 C 0.34385 0.98314 0.94728 0.0
C212 C 0.32874 1.00378 0.94462 0.0
C213 C 0.32849 0.97779 0.9332 0.0
C214 C 0.36321 0.01583 0.05419 0.0
C215 C 0.34627 0.01275 0.05653 0.0
C216 C 0.37608 0.02732 0.0715 0.0
C217 C 0.34257 0.02154 0.07586 0.0
C218 C 0.37187 0.03587 0.09055 0.0
N219 N 0.35534 0.03284 0.0923 0.0
C220 C 0.33224 0.9556 0.01626 0.0
C221 C 0.32184 0.97455 0.00511 0.0
C222 C 0.31532 0.94199 0.02004 0.0
N223 N 0.3352 0.97152 0.00907 0.0
C224 C 0.30469 0.96126 0.00838 0.0
C225 C 0.30121 0.94472 0.01637 0.0
H226 H 0.34307 0.95357 0.01983 0.0
H227 H 0.32448 0.98738 -8e-05 0.0
C228 C 0.39037 0.05213 0.97709 0.0
N229 N 0.37982 0.04313 -0.00278 0.0
C230 C 0.39118 0.06726 0.96815 0.0
C231 C 0.36979 0.06356 0.00019 0.0
C232 C 0.3698 0.04869 0.00911 0.0
C233 C 0.3803 0.07286 0.97896 0.0
H234 H 0.39771 0.0472 0.9672 0.0
H235 H 0.36112 0.04118 0.02455 0.0
O236 O 0.37632 0.98233 0.0106 0.0
O237 O 0.40131 0.02132 0.00433 0.0
O238 O 0.36665 0.00456 0.97435 0.0
O239 O 0.36702 0.00722 0.03554 0.0
H240 H 0.40338 0.97962 0.02557 0.0
H241 H 0.35904 0.95873 0.97389 0.0
H242 H 0.411 0.95848 0.00727 0.0
H243 H 0.36755 0.93807 0.95628 0.0
H244 H 0.43368 0.07684 0.03405 0.0
H245 H 0.42406 0.03342 0.96585 0.0
H246 H 0.40908 0.04679 0.03838 0.0
H247 H 0.4484 0.06372 0.96277 0.0
H248 H 0.43258 0.99389 0.94089 0.0
H249 H 0.39253 0.9909 0.88917 0.0
H250 H 0.39529 0.97257 0.10366 0.0
H251 H 0.43817 0.02475 0.09305 0.0
H252 H 0.34996 0.02201 0.96886 0.0
H253 H 0.34954 0.97491 0.94811 0.0
H254 H 0.32272 0.01172 0.94343 0.0
H255 H 0.32226 0.9654 0.9231 0.0
H256 H 0.33612 1.00376 0.04345 0.0
H257 H 0.38915 0.0295 0.07038 0.0
H258 H 0.32954 0.01939 0.07778 0.0
H259 H 0.38172 0.04485 0.10403 0.0
H260 H 0.31344 0.92967 0.02684 0.0
H261 H 0.2943 0.96402 0.00511 0.0
H262 H 0.39982 0.0741 0.95216 0.0
H263 H 0.36098 0.06714 0.00898 0.0
Li264 Li 0.02023 0.65034 0.0105 0.0
Li265 Li 1.00268 0.62199 0.03424 0.0
Li266 Li 1.00492 0.62226 0.98737 0.0
Li267 Li 0.98743 0.63215 0.00771 0.0
C268 C 0.03352 0.62309 0.00694 0.0
N269 N 0.05213 0.6073 0.99223 0.0
C270 C 0.02693 0.60545 0.01169 0.0
C271 C 0.04958 0.63272 0.99477 0.0
C272 C 0.03653 0.5977 0.00408 0.0
C273 C 0.05879 0.62449 0.98747 0.0
C274 C 1.00384 0.64595 0.06546 0.0
C275 C 0.99147 0.63722 0.10844 0.0
N276 N 0.00704 0.64875 0.11934 0.0
C277 C 0.01968 0.6578 0.0771 0.0
C278 C 0.98958 0.63566 0.08125 0.0
C279 C 0.02105 0.659 0.10436 0.0
C280 C 0.03868 0.6869 0.00481 0.0
N281 N 0.04 0.67307 0.0128 0.0
C282 C 0.06898 0.69182 0.02816 0.0
C283 C 0.05483 0.67519 0.02397 0.0
C284 C 0.0679 0.70645 0.02074 0.0
C285 C 0.05256 0.70376 0.00845 0.0
H286 H 0.02669 0.68481 0.99605 0.0
H287 H 0.05541 0.66398 0.03057 0.0
C288 C 0.99135 0.59298 0.06793 0.0
N289 N 1.00382 0.60973 0.06379 0.0
C290 C 0.99388 0.5831 0.08673 0.0
C291 C 0.02196 0.60794 0.09666 0.0
C292 C 0.01886 0.61734 0.07779 0.0
C293 C 0.00952 0.59048 0.10097 0.0
H294 H 0.97983 0.587 0.05578 0.0
H295 H 0.02878 0.6305 0.07348 0.0
C296 C 0.00853 0.64562 0.95299 0.0
N297 N 0.01643 0.64842 0.90034 0.0
C298 C 0.99626 0.63424 0.93484 0.0
C299 C 0.02481 0.65846 0.94432 0.0
C300 C 1.00051 0.63584 0.90833 0.0
C301 C 0.02854 0.65967 0.91763 0.0
C302 C 0.96642 0.59908 0.00726 0.0
C303 C 0.95804 0.59294 0.9831 0.0
C304 C 0.95653 0.59613 0.02982 0.0
C305 C 0.93993 0.584 0.98195 0.0
C306 C 0.93845 0.58718 0.02785 0.0
N307 N 0.93059 0.58135 0.00415 0.0
C308 C 0.99615 0.59189 0.95829 0.0
C309 C 0.02168 0.61658 0.94353 0.0
C310 C 0.99774 0.58152 0.93922 0.0
N311 N 0.00776 0.60916 0.9597 0.0
C312 C 0.02396 0.60664 0.92443 0.0
C313 C 0.01174 0.58886 0.92176 0.0
H314 H 0.98568 0.58607 0.97215 0.0
H315 H 0.03118 0.63018 0.94568 0.0
C316 C 0.96129 0.63968 0.02562 0.0
N317 N 0.96682 0.63399 0.00503 0.0
C318 C 0.94587 0.64024 0.0237 0.0
C319 C 0.9422 0.6291 0.97953 0.0
C320 C 0.9578 0.62914 0.98208 0.0
C321 C 0.93603 0.63461 0.00053 0.0
H322 H 0.96879 0.6437 0.04357 0.0
H323 H 0.96256 0.62498 0.96585 0.0
O324 O 0.02414 0.63083 0.01373 0.0
O325 O 1.00232 0.64437 0.03879 0.0
O326 O 1.00467 0.64424 0.97907 0.0
O327 O 0.98418 0.60818 0.00876 0.0
H328 H 0.01441 0.59776 0.0208 0.0
H329 H 0.05477 0.64634 0.9907 0.0
H330 H 0.03155 0.58404 0.0075 0.0
H331 H 0.07121 0.63175 0.97793 0.0
H332 H 0.98056 0.62927 0.12088 0.0
H333 H 0.03083 0.66594 0.06525 0.0
H334 H 0.97719 0.62652 0.07263 0.0
H335 H 0.03326 0.66806 0.11361 0.0
H336 H 0.08034 0.69318 0.03818 0.0
H337 H 0.05117 0.71459 0.00212 0.0
H338 H 0.98406 0.56962 0.08923 0.0
H339 H 0.03413 0.61418 0.10741 0.0
H340 H 0.98372 0.62404 0.94118 0.0
H341 H 0.03452 0.66731 0.95804 0.0
H342 H 0.99118 0.62703 0.89411 0.0
H343 H 0.04111 0.6695 0.91067 0.0
H344 H 0.96541 0.59537 0.96531 0.0
H345 H 0.96273 0.6008 0.04866 0.0
H346 H 0.9333 0.5793 0.96336 0.0
H347 H 0.93066 0.5849 0.04515 0.0
H348 H 0.98788 0.56795 0.93798 0.0
H349 H 0.03525 0.61286 0.91202 0.0
H350 H 0.94152 0.6447 0.04021 0.0
H351 H 0.93506 0.62493 0.9612 0.0
Li352 Li 0.35875 0.37582 0.01271 0.0
Li353 Li 0.38529 0.38474 0.03857 0.0
Li354 Li 0.38576 0.38648 0.98971 0.0
Li355 Li 0.37394 0.35818 0.01093 0.0
C356 C 0.3736 0.41031 0.01912 0.0
N357 N 0.36013 0.43199 0.02679 0.0
C358 C 0.37471 0.41772 0.04374 0.0
C359 C 0.36584 0.41412 -0.00168 0.0
C360 C 0.36779 0.42861 0.04724 0.0
C361 C 0.35904 0.42505 0.00262 0.0
C362 C 0.3586 0.35443 0.0648 0.0
C363 C 0.36282 0.33725 0.09727 0.0
N364 N 0.35044 0.33754 0.11238 0.0
C365 C 0.34572 0.3543 0.08051 0.0
C366 C 0.36705 0.34562 0.07313 0.0
C367 C 0.34186 0.3458 0.10455 0.0
C368 C 0.325 0.36908 0.99472 0.0
N369 N 0.33693 0.37519 0.01449 0.0
C370 C 0.31867 0.38172 0.04046 0.0
C371 C 0.33401 0.38141 0.03703 0.0
C372 C 0.30603 0.37553 0.0205 0.0
C373 C 0.30933 0.36908 -0.00265 0.0
H374 H 0.3276 0.36415 0.97696 0.0
H375 H 0.34366 0.38613 0.05249 0.0
C376 C 0.41516 0.40771 0.067 0.0
N377 N 0.39787 0.39638 0.06936 0.0
C378 C 0.42509 0.41676 0.08888 0.0
C379 C 0.39915 0.40256 0.11506 0.0
C380 C 0.38974 0.39382 0.0927 0.0
C381 C 0.41709 0.41414 0.11336 0.0
H382 H 0.42124 0.40966 0.04808 0.0
H383 H 0.37592 0.3852 0.09395 0.0
C384 C 0.36346 0.36486 0.95518 0.0
N385 N 0.36495 0.36568 0.90117 0.0
C386 C 0.36795 0.35403 0.9416 0.0
C387 C 0.35951 0.37593 0.94129 0.0
C388 C 0.36868 0.35468 0.91429 0.0
C389 C 0.3604 0.37621 0.914 0.0
C390 C 0.41076 0.37484 0.02049 0.0
C391 C 0.4233 0.37653 0.00251 0.0
C392 C 0.41169 0.37008 0.04621 0.0
C393 C 0.43622 0.37294 0.01035 0.0
C394 C 0.42482 0.36663 0.05333 0.0
N395 N 0.43669 0.36809 0.03539 0.0
C396 C 0.40318 0.41633 0.95735 0.0
C397 C 0.40706 0.39269 0.94604 0.0
C398 C 0.4144 0.42638 0.93744 0.0
N399 N 0.39975 0.39982 0.96122 0.0
C400 C 0.41851 0.4023 0.92619 0.0
C401 C 0.42234 0.41943 0.92158 0.0
H402 H 0.39735 0.42178 0.96989 0.0
H403 H 0.40417 0.37956 0.94962 0.0
C404 C 0.35782 0.32136 0.01851 0.0
N405 N 0.37155 0.3356 0.00798 0.0
C406 C 0.35651 0.30506 0.0163 0.0
C407 C 0.38324 0.31836 0.99196 0.0
C408 C 0.38403 0.33433 0.99467 0.0
C409 C 0.36939 0.30341 0.00293 0.0
H410 H 0.34789 0.32264 0.02866 0.0
H411 H 0.39447 0.34568 0.98566 0.0
O412 O 0.38003 0.39937 0.01544 0.0
O413 O 0.36251 0.36271 0.04115 0.0
O414 O 0.36301 0.36466 0.98193 0.0
O415 O 0.398 0.37833 0.01307 0.0
H416 H 0.38073 0.415 0.06004 0.0
H417 H 0.36495 0.40859 0.97912 0.0
H418 H 0.36846 0.43434 0.06623 0.0
H419 H 0.35289 0.42799 0.98674 0.0
H420 H 0.36931 0.33043 0.10392 0.0
H421 H 0.33876 0.36071 0.0743 0.0
H422 H 0.37656 0.34495 0.06094 0.0
H423 H 0.33201 0.34573 0.11694 0.0
H424 H 0.3166 0.38643 0.05889 0.0
H425 H 0.29996 0.36419 0.98145 0.0
H426 H 0.43889 0.42553 0.08673 0.0
H427 H 0.39238 0.40046 0.13343 0.0
H428 H 0.37095 0.34532 0.95201 0.0
H429 H 0.35588 0.38428 0.95148 0.0
H430 H 0.37224 0.34645 0.90353 0.0
H431 H 0.35749 0.3848 0.90301 0.0
H432 H 0.42306 0.38049 0.98265 0.0
H433 H 0.4026 0.36934 0.06072 0.0
H434 H 0.4459 0.37407 -0.00345 0.0
H435 H 0.42563 0.36291 0.07318 0.0
H436 H 0.41672 0.43939 0.93446 0.0
H437 H 0.4245 0.39642 0.91491 0.0
H438 H 0.34557 0.29391 0.02501 0.0
H439 H 0.39318 0.3177 0.98073 0.0
Li440 Li 0.63251 0.98841 0.00299 0.0
Li441 Li 0.62394 0.00697 0.02654 0.0
Li442 Li 0.62225 0.00539 0.97779 0.0
Li443 Li 0.65044 0.02137 0.00103 0.0
C444 C 0.59698 0.9702 0.99608 0.0
N445 N 0.57222 0.93705 0.98064 0.0
C446 C 0.58445 0.95905 0.01377 0.0
C447 C 0.59675 0.96454 0.97047 0.0
C448 C 0.57209 0.94232 0.00562 0.0
C449 C 0.58417 0.94774 0.96305 0.0
C450 C 0.64751 0.00739 0.05814 0.0
C451 C 0.65742 0.02537 0.09696 0.0
N452 N 0.65086 0.01089 0.11195 0.0
C453 C 0.64104 0.99269 0.07391 0.0
C454 C 0.65591 0.02386 0.06973 0.0
C455 C 0.6428 0.99473 0.10108 0.0
C456 C 0.64383 0.9641 0.99036 0.0
N457 N 0.63295 0.96714 0.00513 0.0
C458 C 0.62222 0.93984 0.02639 0.0
C459 C 0.62223 0.95536 0.02284 0.0
C460 C 0.63326 0.93619 0.01141 0.0
C461 C 0.6441 0.94858 0.99304 0.0
H462 H 0.65245 0.97378 0.97668 0.0
H463 H 0.61392 0.9582 0.03468 0.0
C464 C 0.61062 0.02206 0.06237 0.0
N465 N 0.61178 0.00775 0.05667 0.0
C466 C 0.60039 0.02187 0.08317 0.0
C467 C 0.59263 0.99218 0.09165 0.0
C468 C 0.60319 0.99303 0.07095 0.0
C469 C 0.59103 0.00669 0.09783 0.0
H470 H 0.61728 0.03348 0.05041 0.0
H471 H 0.60433 0.98184 0.06598 0.0
C472 C 0.64689 1.00265 0.94632 0.0
N473 N 0.65386 1.00056 0.89416 0.0
C474 C 0.65787 0.01768 0.93246 0.0
C475 C 0.63972 0.98652 0.93372 0.0
C476 C 0.66116 0.01637 0.90609 0.0
C477 C 0.64332 0.98574 0.90733 0.0
C478 C 0.63754 0.0435 -0.0011 0.0
C479 C 0.63537 0.05048 0.9757 0.0
C480 C 0.64677 0.05457 0.01976 0.0
C481 C 0.64269 0.06844 0.97363 0.0
C482 C 0.65391 0.07245 0.01692 0.0
N483 N 0.65175 0.07896 0.99409 0.0
C484 C 0.59085 0.99726 0.95295 0.0
C485 C 0.61533 0.01347 0.92611 0.0
C486 C 0.57975 0.99699 0.93334 0.0
N487 N 0.60826 0.00521 0.94895 0.0
C488 C 0.60473 0.01378 0.90612 0.0
C489 C 0.58669 0.00542 0.90962 0.0
H490 H 0.58555 0.99124 0.97154 0.0
H491 H 0.6292 0.02019 0.9236 0.0
C492 C 0.6861 0.0401 0.01488 0.0
N493 N 0.67385 0.04063 -0.00047 0.0
C494 C 0.70347 0.05328 0.01356 0.0
C495 C 0.69533 0.06743 0.98086 0.0
C496 C 0.67815 0.05399 0.9828 0.0
C497 C 0.70833 0.06712 0.99615 0.0
H498 H 0.68243 0.02927 0.02785 0.0
H499 H 0.66836 0.05403 0.97035 0.0
O500 O 0.60937 0.98655 0.00383 0.0
O501 O 0.64561 0.00566 0.03152 0.0
O502 O 0.64368 1.00371 0.97227 0.0
O503 O 0.63056 0.02595 0.0012 0.0
H504 H 0.58428 0.96321 0.0336 0.0
H505 H 0.60605 0.9731 0.95639 0.0
H506 H 0.56239 0.93354 0.01915 0.0
H507 H 0.58388 0.94321 0.94327 0.0
H508 H 0.66383 0.03804 0.10618 0.0
H509 H 0.63462 0.97985 0.06531 0.0
H510 H 0.66126 0.03537 0.05783 0.0
H511 H 0.63774 0.98346 0.11352 0.0
H512 H 0.61397 0.93105 0.04135 0.0
H513 H 0.65277 0.94639 0.9809 0.0
H514 H 0.59941 0.03329 0.08729 0.0
H515 H 0.58581 0.98031 0.10275 0.0
H516 H 0.66364 0.03025 0.94184 0.0
H517 H 0.63158 0.97468 0.9442 0.0
H518 H 0.66951 0.02793 0.8951 0.0
H519 H 0.6378 0.97334 0.89736 0.0
H520 H 0.62816 0.04215 0.95945 0.0
H521 H 0.64843 0.04942 0.03794 0.0
H522 H 0.64117 0.074 0.95574 0.0
H523 H 0.66116 0.08115 0.03287 0.0
H524 H 0.56593 0.99059 0.93689 0.0
H525 H 0.61057 0.02042 0.88805 0.0
H526 H 0.71301 0.05251 0.02581 0.0
H527 H 0.69847 0.07759 0.96673 0.0
Li528 Li 0.66229 0.69666 0.33768 0.0
Li529 Li 0.69427 0.71326 0.33634 0.0
Li530 Li 0.67737 0.72528 0.36024 0.0
Li531 Li 0.67696 0.723 0.3137 0.0
C532 C 0.68089 0.69489 0.38685 0.0
N533 N 0.6857 0.67662 0.4264 0.0
C534 C 0.68732 0.6838 0.38114 0.0
C535 C 0.67699 0.69675 0.4127 0.0
C536 C 0.68964 0.67466 0.40139 0.0
C537 C 0.67947 0.68737 0.43241 0.0
C538 C 0.66772 0.69216 0.28594 0.0
C539 C 0.66073 0.67118 0.25123 0.0
N540 N 0.64703 0.67307 0.24416 0.0
C541 C 0.65356 0.69387 0.27833 0.0
C542 C 0.67133 0.68071 0.27231 0.0
C543 C 0.64326 0.68411 0.25716 0.0
C544 C 0.62755 0.66984 0.32674 0.0
N545 N 0.64277 0.67338 0.33834 0.0
C546 C 0.63164 0.6432 0.34645 0.0
C547 C 0.64489 0.66047 0.34846 0.0
C548 C 0.61608 0.63903 0.33339 0.0
C549 C 0.614 0.6527 0.32399 0.0
H550 H 0.62615 0.68025 0.3186 0.0
H551 H 0.65707 0.66345 0.35729 0.0
C552 C 0.72491 0.71784 0.35957 0.0
N553 N 0.71479 0.71175 0.33777 0.0
C554 C 0.7391 0.71538 0.36282 0.0
C555 C 0.73261 0.70106 0.32058 0.0
C556 C 0.71849 0.70376 0.31819 0.0
C557 C 0.74296 0.70661 0.34337 0.0
H558 H 0.72154 0.72403 0.37488 0.0
H559 H 0.71022 0.6991 0.30103 0.0
C560 C 0.64215 0.71123 0.35124 0.0
N561 N 0.61282 0.70191 0.3806 0.0
C562 C 0.62949 0.71489 0.34226 0.0
C563 C 0.63986 0.70278 0.37513 0.0
C564 C 0.61476 0.71008 0.3574 0.0
C565 C 0.62495 0.69819 0.38968 0.0
C566 C 0.70671 0.7516 0.32294 0.0
C567 C 0.7039 0.76554 0.32675 0.0
C568 C 0.71868 0.75275 0.30433 0.0
C569 C 0.71298 0.78038 0.31152 0.0
C570 C 0.72751 0.76783 0.28951 0.0
N571 N 0.72448 0.7812 0.29335 0.0
C572 C 0.6917 0.74384 0.40659 0.0
C573 C 0.66872 0.74713 0.38951 0.0
C574 C 0.69483 0.75598 0.4263 0.0
N575 N 0.67886 0.73972 0.3887 0.0
C576 C 0.67128 0.75921 0.40908 0.0
C577 C 0.68465 0.76394 0.42756 0.0
H578 H 0.69977 0.73798 0.40511 0.0
H579 H 0.65899 0.74409 0.37454 0.0
C580 C 0.68505 0.73605 0.26162 0.0
N581 N 0.6768 0.73578 0.28406 0.0
C582 C 0.68605 0.74677 0.24104 0.0
C583 C 0.66991 0.75655 0.26702 0.0
C584 C 0.66919 0.74562 0.28704 0.0
C585 C 0.67852 0.75731 0.24366 0.0
H586 H 0.69112 0.72817 0.25993 0.0
H587 H 0.66296 0.74531 0.30532 0.0
O588 O 0.67891 0.7043 0.36743 0.0
O589 O 0.67791 0.70139 0.30682 0.0
O590 O 0.65657 0.71585 0.33645 0.0
O591 O 0.69758 0.73678 0.33708 0.0
H592 H 0.69035 0.68214 0.36123 0.0
H593 H 0.67209 0.70535 0.41751 0.0
H594 H 0.69457 0.666 0.39723 0.0
H595 H 0.67647 0.68867 0.4525 0.0
H596 H 0.66337 0.66226 0.24053 0.0
H597 H 0.65041 0.70252 0.28873 0.0
H598 H 0.68218 0.67913 0.27803 0.0
H599 H 0.63224 0.68529 0.25112 0.0
H600 H 0.63379 0.63318 0.35438 0.0
H601 H 0.60239 0.65018 0.31344 0.0
H602 H 0.74647 0.71961 0.38092 0.0
H603 H 0.73519 0.6944 0.30499 0.0
H604 H 0.63104 0.72137 0.32377 0.0
H605 H 0.64942 0.69974 0.38237 0.0
H606 H 0.60486 0.71285 0.35069 0.0
H607 H 0.62303 0.69165 0.4082 0.0
H608 H 0.69463 0.76479 0.34108 0.0
H609 H 0.72095 0.74203 0.30116 0.0
H610 H 0.71084 0.79123 0.31408 0.0
H611 H 0.73672 0.76887 0.27488 0.0
H612 H 0.70518 0.75919 0.44033 0.0
H613 H 0.6633 0.76522 0.40924 0.0
H614 H 0.6926 0.74675 0.22324 0.0
H615 H 0.66412 0.76459 0.27004 0.0
Li616 Li 0.30132 0.95905 0.32375 0.0
Li617 Li 0.29825 0.95762 0.37066 0.0
Li618 Li 0.31211 0.98694 0.3462 0.0
Li619 Li 0.32668 0.9698 0.35008 0.0
C620 C 0.2733 0.96102 0.33002 0.0
N621 N 0.24446 0.94853 0.29783 0.0
C622 C 0.25963 0.94402 0.33279 0.0
C623 C 0.27224 0.97175 0.31112 0.0
C624 C 0.24518 0.93792 0.31625 0.0
C625 C 0.25756 0.96517 0.29498 0.0
C626 C 0.31262 0.93507 0.33872 0.0
C627 C 0.31661 0.91032 0.34262 0.0
N628 N 0.32432 0.91392 0.31877 0.0
C629 C 0.32056 0.93852 0.31426 0.0
C630 C 0.3106 0.92086 0.35305 0.0
C631 C 0.32639 0.92768 0.30449 0.0
C632 C 0.29009 0.95245 0.26961 0.0
N633 N 0.2892 0.94527 0.29337 0.0
C634 C 0.2714 0.91675 0.2754 0.0
C635 C 0.27971 0.92778 0.2967 0.0
C636 C 0.27296 0.92383 0.25045 0.0
C637 C 0.28216 0.94193 0.24776 0.0
H638 H 0.297 0.9663 0.2674 0.0
H639 H 0.27881 0.92236 0.31591 0.0
C640 C 0.28176 0.95282 0.41943 0.0
N641 N 0.28338 0.94454 0.3982 0.0
C642 C 0.26982 0.94337 0.4389 0.0
C643 C 0.26163 0.91705 0.4144 0.0
C644 C 0.27375 0.92702 0.39541 0.0
C645 C 0.2594 0.92524 0.4364 0.0
H646 H 0.28958 0.96679 0.42103 0.0
H647 H 0.27523 0.92084 0.37811 0.0
C648 C 0.32759 0.98706 0.29403 0.0
N649 N 0.33599 0.99996 0.24383 0.0
C650 C 0.33859 0.98369 0.27879 0.0
C651 C 0.32107 0.99723 0.28382 0.0
C652 C 0.34261 0.99025 0.25343 0.0
C653 C 0.32542 1.00357 0.25838 0.0
C654 C 0.3336 0.98516 0.39528 0.0
C655 C 0.34823 1.0016 0.39271 0.0
C656 C 0.33358 0.97362 0.41371 0.0
C657 C 0.36273 0.0062 0.4086 0.0
C658 C 0.34833 0.97871 0.42925 0.0
N659 N 0.36248 0.99475 0.42638 0.0
C660 C 0.30419 0.01359 0.35723 0.0
C661 C 0.33159 0.02288 0.33798 0.0
C662 C 0.30796 0.03079 0.35988 0.0
N663 N 0.31607 0.01003 0.34676 0.0
C664 C 0.3358 0.04019 0.3399 0.0
C665 C 0.3241 0.04443 0.35156 0.0
H666 H 0.29202 1.00311 0.3643 0.0
H667 H 0.34087 0.01968 0.32995 0.0
C668 C 0.35329 0.96176 0.36512 0.0
N669 N 0.34953 0.9729 0.35249 0.0
C670 C 0.37008 0.96417 0.36417 0.0
C671 C 0.37879 0.98971 0.338 0.0
C672 C 0.36196 0.98688 0.33962 0.0
C673 C 0.38307 0.97815 0.35003 0.0
H674 H 0.34321 0.95085 0.37554 0.0
H675 H 0.35866 0.99565 0.32999 0.0
O676 O 0.28778 0.96705 0.34546 0.0
O677 O 0.30707 0.94566 0.3489 0.0
O678 O 0.32381 0.98104 0.31913 0.0
O679 O 0.31951 0.98019 0.37934 0.0
H680 H 0.26029 0.93556 0.3473 0.0
H681 H 0.28267 0.98497 0.30889 0.0
H682 H 0.23456 0.92475 0.318 0.0
H683 H 0.2566 0.97328 0.28016 0.0
H684 H 0.31517 0.89929 0.35351 0.0
H685 H 0.32214 0.9494 0.30293 0.0
H686 H 0.30454 0.91807 0.37208 0.0
H687 H 0.33255 0.9302 0.28557 0.0
H688 H 0.26437 0.90284 0.27824 0.0
H689 H 0.28334 0.94789 0.22888 0.0
H690 H 0.26875 0.9502 0.45573 0.0
H691 H 0.25379 0.90315 0.41156 0.0
H692 H 0.34409 0.97618 0.2865 0.0
H693 H 0.31257 1.0 0.29524 0.0
H694 H 0.35105 0.98768 0.24141 0.0
H695 H 0.32036 0.01134 0.2502 0.0
H696 H 0.34845 0.01062 0.37839 0.0
H697 H 0.32236 0.9608 0.41577 0.0
H698 H 0.37419 0.01884 0.40674 0.0
H699 H 0.34855 0.9699 0.44353 0.0
H700 H 0.29863 0.03334 0.3694 0.0
H701 H 0.34827 0.05017 0.33282 0.0
H702 H 0.37277 0.95504 0.37406 0.0
H703 H 0.38811 1.00048 0.32643 0.0
Li704 Li 0.0528 0.3396 0.31206 0.0
Li705 Li 0.05259 0.34025 0.3606 0.0
Li706 Li 0.02593 0.32205 0.33671 0.0
Li707 Li 0.038 0.35318 0.33804 0.0
C708 C 0.04193 0.30379 0.33262 0.0
N709 N 0.02852 0.26864 0.32498 0.0
C710 C 0.04056 0.29324 0.35369 0.0
C711 C 0.03662 0.29653 0.30764 0.0
C712 C 0.03371 0.27548 0.34942 0.0
C713 C 0.02984 0.27871 0.30419 0.0
C714 C 0.07826 0.37043 0.3493 0.0
C715 C 0.09444 0.39094 0.38368 0.0
N716 N 0.10866 0.38981 0.37735 0.0
C717 C 0.09305 0.36953 0.34303 0.0
C718 C 0.07895 0.38126 0.3697 0.0
C719 C 0.10829 0.37941 0.35748 0.0
C720 C 0.06654 0.35005 0.26119 0.0
N721 N 0.06674 0.3415 0.283 0.0
C722 C 0.08896 0.33702 0.26514 0.0
C723 C 0.07756 0.33495 0.28531 0.0
C724 C 0.0892 0.34592 0.24236 0.0
C725 C 0.07766 0.35234 0.24047 0.0
H726 H 0.05784 0.35521 0.26001 0.0
H727 H 0.07756 0.3284 0.30309 0.0
C728 C 0.06236 0.34478 0.414 0.0
N729 N 0.06592 0.3408 0.39001 0.0
C730 C 0.0707 0.3433 0.43615 0.0
C731 C 0.08661 0.33413 0.40843 0.0
C732 C 0.07794 0.33581 0.38675 0.0
C733 C 0.08268 0.3375 0.43359 0.0
H734 H 0.05266 0.34856 0.41606 0.0
H735 H 0.08037 0.33257 0.36739 0.0
C736 C 0.01575 0.33016 0.29001 0.0
N737 N 0.98749 0.31525 0.25646 0.0
C738 C 1.00033 0.32964 0.2969 0.0
C739 C 0.01683 0.32314 0.26606 0.0
C740 C 0.98618 0.32203 0.27967 0.0
C741 C 1.00239 0.31565 0.24936 0.0
C742 C 0.01903 0.34109 0.38169 0.0
C743 C 1.00097 0.33066 0.38036 0.0
C744 C 0.02645 0.35609 0.39726 0.0
C745 C 0.99064 0.33541 0.3947 0.0
C746 C 0.01568 0.3604 0.41125 0.0
N747 N 0.99815 0.35005 0.4097 0.0
C748 C 1.00343 0.29283 0.36372 0.0
C749 C 0.99404 0.29031 0.31965 0.0
C750 C 0.98945 0.27652 0.3694 0.0
N751 N 1.00544 0.29949 0.33927 0.0
C752 C 0.97958 0.27402 0.32465 0.0
C753 C 0.97723 0.26698 0.3498 0.0
H754 H 0.01277 0.30028 0.37889 0.0
H755 H 0.99609 0.29543 0.30013 0.0
C756 C 0.04672 0.3879 0.33007 0.0
N757 N 0.03342 0.37212 0.33705 0.0
C758 C 0.04403 0.40196 0.32687 0.0
C759 C 0.01412 0.38348 0.33907 0.0
C760 C 0.01733 0.36973 0.3416 0.0
C761 C 0.02746 0.39982 0.33101 0.0
H762 H 0.05934 0.38945 0.32613 0.0
H763 H 0.00682 0.3571 0.3467 0.0
O764 O 0.04803 0.32108 0.33654 0.0
O765 O 0.06308 0.36046 0.33594 0.0
O766 O 0.02981 0.33773 0.30642 0.0
O767 O 0.02937 0.33659 0.36798 0.0
H768 H 0.04455 0.29871 0.37316 0.0
H769 H 0.03751 0.30454 0.29119 0.0
H770 H 0.03245 0.26712 0.36556 0.0
H771 H 0.02556 0.27287 0.28501 0.0
H772 H 0.09515 0.39932 0.3996 0.0
H773 H 0.0927 0.36115 0.32736 0.0
H774 H 0.06761 0.3821 0.37477 0.0
H775 H 0.11982 0.37878 0.35295 0.0
H776 H 0.09775 0.33204 0.26764 0.0
H777 H 0.07717 0.35903 0.22314 0.0
H778 H 0.06746 0.34623 0.45519 0.0
H779 H 0.09564 0.32949 0.40564 0.0
H780 H 0.99923 0.33485 0.31546 0.0
H781 H 0.02867 0.32342 0.26046 0.0
H782 H 0.97413 0.32146 0.28479 0.0
H783 H 1.00303 0.31014 0.23078 0.0
H784 H 0.99494 0.31915 0.36818 0.0
H785 H 0.04037 0.36445 0.39827 0.0
H786 H 0.97666 0.32748 0.39379 0.0
H787 H 0.02125 0.37201 0.42327 0.0
H788 H 0.988 0.27156 0.3891 0.0
H789 H 0.97046 0.26692 0.30901 0.0
H790 H 0.05467 0.41413 0.32007 0.0
H791 H 1.00118 0.38118 0.34282 0.0
Li792 Li 0.69231 0.98636 0.33039 0.0
Li793 Li 0.67674 0.9611 0.35769 0.0
Li794 Li 0.67524 0.9578 0.3107 0.0
Li795 Li 0.66091 0.97134 0.33206 0.0
C796 C 0.71085 0.97022 0.34706 0.0
N797 N 0.74092 0.97845 0.37432 0.0
C798 C 0.717 0.98295 0.36668 0.0
C799 C 0.72005 0.96172 0.34124 0.0
C800 C 0.73221 0.98692 0.38025 0.0
C801 C 0.73521 0.96605 0.35527 0.0
C802 C 0.66854 0.98373 0.38284 0.0
C803 C 0.64513 0.9686 0.41334 0.0
N804 N 0.65048 0.98368 0.42674 0.0
C805 C 0.67383 0.99906 0.397 0.0
C806 C 0.6541 0.96835 0.39113 0.0
C807 C 0.66452 0.99878 0.41911 0.0
C808 C 0.71224 0.02192 0.3414 0.0
N809 N 0.71286 0.00878 0.32881 0.0
C810 C 0.74333 0.0269 0.32174 0.0
C811 C 0.72791 0.01108 0.31847 0.0
C812 C 0.74333 0.04042 0.33611 0.0
C813 C 0.72736 0.03786 0.34539 0.0
H814 H 0.70012 0.01973 0.34946 0.0
H815 H 0.72815 1.00039 0.30878 0.0
C816 C 0.66943 0.93282 0.39076 0.0
N817 N 0.67767 0.95041 0.3894 0.0
C818 C 0.67028 0.92476 0.4137 0.0
C819 C 0.68841 0.9531 0.43304 0.0
C820 C 0.68688 0.96056 0.41004 0.0
C821 C 0.67994 0.93492 0.4353 0.0
H822 H 0.66219 0.92507 0.37401 0.0
H823 H 0.69317 0.97451 0.40861 0.0
C824 C 0.68507 0.98603 0.27776 0.0
N825 N 0.7036 0.99874 0.23208 0.0
C826 C 0.68057 0.99504 0.26002 0.0
C827 C 0.69897 0.98342 0.2722 0.0
C828 C 0.6901 1.00138 0.23705 0.0
C829 C 0.70818 0.98996 0.24903 0.0
C830 C 0.64079 0.93584 0.32271 0.0
C831 C 0.63618 0.94108 0.29977 0.0
C832 C 0.62997 0.91915 0.33225 0.0
C833 C 0.62084 0.92951 0.28669 0.0
C834 C 0.61474 0.90794 0.31861 0.0
N835 N 0.61053 0.91331 0.2963 0.0
C836 C 0.68032 0.93178 0.28869 0.0
C837 C 0.66643 0.94192 0.25994 0.0
C838 C 0.67965 0.92014 0.26968 0.0
N839 N 0.67385 0.94241 0.28348 0.0
C840 C 0.66527 0.93032 0.24049 0.0
C841 C 0.67198 0.91928 0.24524 0.0
H842 H 0.68597 0.93234 0.30769 0.0
H843 H 0.66143 0.95056 0.25624 0.0
C844 C 0.6432 0.98817 0.31561 0.0
N845 N 0.64134 0.97477 0.33051 0.0
C846 C 0.62925 0.99093 0.31172 0.0
C847 C 0.6118 0.96642 0.33942 0.0
C848 C 0.62607 0.96401 0.34252 0.0
C849 C 0.61318 0.97992 0.32354 0.0
H850 H 0.65546 0.99649 0.30624 0.0
H851 H 0.62484 0.95333 0.35412 0.0
O852 O 0.69605 0.96616 0.3333 0.0
O853 O 0.67764 0.98386 0.36123 0.0
O854 O 0.67574 0.9797 0.30026 0.0
O855 O 0.65572 0.94691 0.336 0.0
H856 H 0.71013 0.98974 0.3714 0.0
H857 H 0.71555 0.95192 0.326 0.0
H858 H 0.73709 0.99674 0.39548 0.0
H859 H 0.74244 0.95956 0.35097 0.0
H860 H 0.63393 0.95679 0.41992 0.0
H861 H 0.68505 0.01107 0.39103 0.0
H862 H 0.64984 0.95631 0.38066 0.0
H863 H 0.66848 0.01056 0.43021 0.0
H864 H 0.75522 0.02829 0.31385 0.0
H865 H 0.7266 0.04768 0.35694 0.0
H866 H 0.66328 0.91073 0.4145 0.0
H867 H 0.69634 0.96159 0.44876 0.0
H868 H 0.66979 0.99708 0.26392 0.0
H869 H 0.7026 0.97638 0.28551 0.0
H870 H 0.68676 0.00838 0.22316 0.0
H871 H 0.71896 0.98805 0.2445 0.0
H872 H 0.64431 0.95396 0.2921 0.0
H873 H 0.63331 0.9149 0.35004 0.0
H874 H 0.61714 0.93341 0.26892 0.0
H875 H 0.60625 0.89498 0.32577 0.0
H876 H 0.68487 0.91176 0.27411 0.0
H877 H 0.65947 0.9302 0.22177 0.0
H878 H 0.63096 1.00128 0.29885 0.0
H879 H 0.5998 0.9577 0.3492 0.0
Li880 Li 0.05196 0.71907 0.35974 0.0
Li881 Li 0.02334 0.70835 0.33834 0.0
Li882 Li 0.04018 0.69419 0.33269 0.0
Li883 Li 0.05128 0.7222 0.31337 0.0
C884 C 0.02497 0.68179 0.37724 0.0
N885 N 0.01495 0.64984 0.39904 0.0
C886 C 0.00828 0.66784 0.37268 0.0
C887 C 0.03654 0.67954 0.39304 0.0
C888 C 1.00347 0.65177 0.38382 0.0
C889 C 0.03123 0.66327 0.40386 0.0
C890 C 0.04878 0.74662 0.35671 0.0
C891 C 0.06843 0.77662 0.3678 0.0
N892 N 0.06066 0.77416 0.39148 0.0
C893 C 0.04091 0.74442 0.38109 0.0
C894 C 0.0626 0.76286 0.34993 0.0
C895 C 0.04713 0.75848 0.39842 0.0
C896 C 0.0826 0.74216 0.38719 0.0
N897 N 0.06563 0.72991 0.39008 0.0
C898 C 0.06819 0.73297 0.43654 0.0
C899 C 0.05829 0.72525 0.41408 0.0
C900 C 0.08585 0.74554 0.4343 0.0
C901 C 0.09302 0.75022 0.40918 0.0
H902 H 0.08805 0.74559 0.36779 0.0
H903 H 0.04471 0.71559 0.41574 0.0
C904 C 0.98756 0.68896 0.32946 0.0
N905 N 1.00004 0.70402 0.34051 0.0
C906 C 0.97007 0.68395 0.33189 0.0
C907 C 0.9785 0.71026 0.35645 0.0
C908 C 0.99589 0.71488 0.35323 0.0
C909 C 0.96526 0.69438 0.3462 0.0
H910 H 0.9912 0.68061 0.31926 0.0
H911 H 1.00601 0.72691 0.36151 0.0
C912 C 0.07422 0.71017 0.31649 0.0
N913 N 0.09432 0.70379 0.28218 0.0
C914 C 0.06735 0.70205 0.29239 0.0
C915 C 0.09131 0.71505 0.32311 0.0
C916 C 0.07772 0.69894 0.27533 0.0
C917 C 0.10127 0.7117 0.3055 0.0
C918 C 0.02027 0.70288 0.2846 0.0
C919 C 0.01363 0.69094 0.26391 0.0
C920 C 0.01801 0.71734 0.28452 0.0
C921 C 1.0049 0.6937 0.24338 0.0
C922 C 0.00918 0.71961 0.26364 0.0
N923 N 1.00287 0.70785 0.24367 0.0
C924 C 0.02346 0.65966 0.31476 0.0
C925 C 0.04887 0.66758 0.33971 0.0
C926 C 0.02043 0.64279 0.31175 0.0
N927 N 0.03747 0.67162 0.32854 0.0
C928 C 0.04626 0.65078 0.33741 0.0
C929 C 0.03186 0.63807 0.32325 0.0
H930 H 0.01458 0.66323 0.30618 0.0
H931 H 0.05986 0.67735 0.35074 0.0
C932 C 0.08089 0.75021 0.29225 0.0
N933 N 0.06481 0.7371 0.28544 0.0
C934 C 0.09212 0.76138 0.27325 0.0
C935 C 0.07012 0.74529 0.24049 0.0
C936 C 0.05939 0.73437 0.26005 0.0
C937 C 0.08673 0.75901 0.24697 0.0
H938 H 0.08507 0.75181 0.31248 0.0
H939 H 0.04696 0.72352 0.25467 0.0
O940 O 0.03007 0.69749 0.36595 0.0
O941 O 0.04314 0.73288 0.33973 0.0
O942 O 0.06446 0.71352 0.33359 0.0
O943 O 0.02863 0.70014 0.30493 0.0
H944 H 0.99919 0.66935 0.36045 0.0
H945 H 0.04957 0.69016 0.39655 0.0
H946 H 0.99063 0.64082 0.38031 0.0
H947 H 0.04008 0.66131 0.41598 0.0
H948 H 0.07914 0.78925 0.36283 0.0
H949 H 0.0304 0.73186 0.38684 0.0
H950 H 0.06872 0.76486 0.33107 0.0
H951 H 0.04128 0.75691 0.41746 0.0
H952 H 0.06203 0.72921 0.45547 0.0
H953 H 0.10658 0.75976 0.40656 0.0
H954 H 0.9604 0.67178 0.32315 0.0
H955 H 0.9755 0.71869 0.36783 0.0
H956 H 0.05418 0.69819 0.28681 0.0
H957 H 0.09683 0.72138 0.34167 0.0
H958 H 0.07256 0.69267 0.25662 0.0
H959 H 0.11452 0.71542 0.31038 0.0
H960 H 0.01523 0.67967 0.26371 0.0
H961 H 0.02299 0.72672 0.30032 0.0
H962 H 0.99972 0.68457 0.22722 0.0
H963 H 0.00735 0.73073 0.26331 0.0
H964 H 0.00937 0.63363 0.30017 0.0
H965 H 0.05532 0.64776 0.34684 0.0
H966 H 0.10487 0.77173 0.27906 0.0
H967 H 0.06564 0.7427 0.22035 0.0
Li968 Li 0.29427 0.33875 0.36072 0.0
Li969 Li 0.3073 0.32299 0.33717 0.0
Li970 Li 0.32105 0.35411 0.33699 0.0
Li971 Li 0.29474 0.33799 0.31225 0.0
C972 C 0.33172 0.34743 0.38046 0.0
N973 N 0.36393 0.36617 0.40406 0.0
C974 C 0.3444 0.34286 0.37613 0.0
C975 C 0.33535 0.36145 0.3969 0.0
C976 C 0.36063 0.35252 0.38823 0.0
C977 C 0.35174 0.37078 0.40862 0.0
C978 C 0.26905 0.3026 0.34137 0.0
C979 C 0.24394 0.27618 0.32641 0.0
N980 N 0.24052 0.27053 0.35153 0.0
C981 C 0.26522 0.29657 0.36705 0.0
C982 C 0.25827 0.29237 0.32088 0.0
C983 C 0.25077 0.28031 0.37178 0.0
C984 C 0.26435 0.33525 0.38533 0.0
N985 N 0.28039 0.33739 0.38964 0.0
C986 C 0.27541 0.33411 0.43563 0.0
C987 C 0.28613 0.33706 0.41417 0.0
C988 C 0.25853 0.33127 0.43182 0.0
C989 C 0.25314 0.3322 0.40629 0.0
H990 H 0.26007 0.33535 0.36551 0.0
H991 H 0.29885 0.33857 0.41698 0.0
C992 C 0.32276 0.30234 0.32395 0.0
N993 N 0.31084 0.30335 0.33932 0.0
C994 C 0.32605 0.28863 0.32675 0.0
C995 C 0.30502 0.27737 0.36147 0.0
C996 C 0.30211 0.29126 0.35794 0.0
C997 C 0.31722 0.27595 0.34587 0.0
H998 H 0.33009 0.31238 0.30993 0.0
H999 H 0.29331 0.29269 0.37074 0.0
C1000 C 0.30449 0.3723 0.32107 0.0
N1001 N 0.3112 0.40052 0.29061 0.0
C1002 C 0.31523 0.37643 0.29924 0.0
C1003 C 0.29717 0.38252 0.3274 0.0
C1004 C 0.31846 0.39074 0.28409 0.0
C1005 C 0.30072 0.39673 0.31176 0.0
C1006 C 0.31636 0.32959 0.28437 0.0
C1007 C 0.32969 0.33674 0.26603 0.0
C1008 C 0.30197 0.31316 0.27982 0.0
C1009 C 0.32841 0.32729 0.24339 0.0
C1010 C 0.30117 0.30413 0.25696 0.0
N1011 N 0.3143 0.31132 0.23936 0.0
C1012 C 0.35671 0.37265 0.32697 0.0
C1013 C 0.34666 0.38998 0.34705 0.0
C1014 C 0.37357 0.38674 0.32622 0.0
N1015 N 0.34367 0.37449 0.33722 0.0
C1016 C 0.36337 0.40452 0.34649 0.0
C1017 C 0.37711 0.40299 0.33594 0.0
H1018 H 0.35395 0.36017 0.31931 0.0
H1019 H 0.33606 0.39107 0.35526 0.0
C1020 C 0.26403 0.33052 0.28515 0.0
N1021 N 0.28135 0.3368 0.28226 0.0
C1022 C 0.2537 0.32908 0.26351 0.0
C1023 C 0.2793 0.34098 0.23655 0.0
C1024 C 0.28912 0.34224 0.25865 0.0
C1025 C 0.26131 0.33415 0.23874 0.0
H1026 H 0.25823 0.32646 0.30424 0.0
H1027 H 0.30295 0.34755 0.25692 0.0
O1028 O 0.31595 0.33845 0.36818 0.0
O1029 O 0.28295 0.31865 0.33636 0.0
O1030 O 0.30103 0.35831 0.33622 0.0
O1031 O 0.3174 0.33883 0.30643 0.0
H1032 H 0.34181 0.3321 0.36334 0.0
H1033 H 0.32571 0.36524 0.40022 0.0
H1034 H 0.37061 0.3492 0.38495 0.0
H1035 H 0.35478 0.38175 0.42124 0.0
H1036 H 0.23552 0.26812 0.31073 0.0
H1037 H 0.27341 0.30427 0.38317 0.0
H1038 H 0.2609 0.29689 0.3009 0.0
H1039 H 0.24772 0.27546 0.39155 0.0
H1040 H 0.28021 0.33376 0.455 0.0
H1041 H 0.24019 0.32993 0.40244 0.0
H1042 H 0.3356 0.28813 0.31431 0.0
H1043 H 0.29828 0.26826 0.37701 0.0
H1044 H 0.32105 0.36872 0.29401 0.0
H1045 H 0.28881 0.37948 0.34423 0.0
H1046 H 0.32675 0.39408 0.26716 0.0
H1047 H 0.29513 0.40476 0.31643 0.0
H1048 H 0.34088 0.34948 0.26923 0.0
H1049 H 0.2916 0.3074 0.29383 0.0
H1050 H 0.33863 0.33267 0.22901 0.0
H1051 H 0.29012 0.29139 0.25322 0.0
H1052 H 0.38367 0.38501 0.31749 0.0
H1053 H 0.36553 0.41677 0.35428 0.0
H1054 H 0.23988 0.32372 0.26603 0.0
H1055 H 0.28576 0.34537 0.21792 0.0
Li1056 Li 0.32014 0.0239 0.67589 0.0
Li1057 Li 0.35105 0.04082 0.67997 0.0
Li1058 Li 0.33196 0.05061 0.70103 0.0
Li1059 Li 0.33527 0.05088 0.65242 0.0
C1060 C 0.32713 0.01912 0.72932 0.0
N1061 N 0.31314 0.99714 0.77143 0.0
C1062 C 0.33287 0.00756 0.73563 0.0
C1063 C 0.3145 0.01972 0.74471 0.0
C1064 C 0.32557 0.99649 0.75691 0.0
C1065 C 0.30753 0.00844 0.76584 0.0
C1066 C 0.33933 0.01628 0.64001 0.0
C1067 C 0.34477 1.00025 0.6069 0.0
N1068 N 0.3433 0.98859 0.62528 0.0
C1069 C 0.33785 1.00414 0.65855 0.0
C1070 C 0.3428 0.01433 0.61397 0.0
C1071 C 0.3399 0.99023 0.65072 0.0
C1072 C 0.29485 0.99726 0.64605 0.0
N1073 N 0.30051 1.0008 0.67127 0.0
C1074 C 0.27711 0.97324 0.68479 0.0
C1075 C 0.29209 0.98908 0.69057 0.0
C1076 C 0.27071 0.96959 0.659 0.0
C1077 C 0.27992 0.98176 0.63948 0.0
H1078 H 0.30178 0.00674 0.63104 0.0
H1079 H 0.29667 0.99202 0.7105 0.0
C1080 C 0.37806 0.04306 0.71041 0.0
N1081 N 0.37233 0.04077 0.68525 0.0
C1082 C 0.39344 0.04328 0.71664 0.0
C1083 C 0.39686 0.03876 0.6709 0.0
C1084 C 0.38138 0.0387 0.66552 0.0
C1085 C 0.40311 0.04115 0.69678 0.0
H1086 H 0.3706 0.04466 0.72569 0.0
H1087 H 0.37665 0.03707 0.64559 0.0
C1088 C 0.29665 0.03332 0.66785 0.0
N1089 N 0.26168 0.01346 0.65611 0.0
C1090 C 0.29067 0.03291 0.64237 0.0
C1091 C 0.28479 0.02379 0.68742 0.0
C1092 C 0.27296 0.02276 0.63681 0.0
C1093 C 0.26719 0.01377 0.68107 0.0
C1094 C 0.36894 0.07587 0.6686 0.0
C1095 C 0.37986 0.09166 0.68114 0.0
C1096 C 0.37401 0.07188 0.64493 0.0
C1097 C 0.39574 0.10324 0.66978 0.0
C1098 C 0.38998 0.08379 0.6342 0.0
N1099 N 0.40043 0.09909 0.64674 0.0
C1100 C 0.34462 0.07488 0.74213 0.0
C1101 C 0.31456 0.06292 0.73347 0.0
C1102 C 0.34413 0.08589 0.76122 0.0
N1103 N 0.32997 0.06374 0.72872 0.0
C1104 C 0.31343 0.07352 0.75267 0.0
C1105 C 0.32839 0.0853 0.76663 0.0
H1106 H 0.35671 0.07535 0.73772 0.0
H1107 H 0.3032 0.05419 0.72214 0.0
C1108 C 0.33098 0.05563 0.5988 0.0
N1109 N 0.33575 0.0636 0.62256 0.0
C1110 C 0.32943 0.06442 0.57734 0.0
C1111 C 0.33844 0.08966 0.60502 0.0
C1112 C 0.33964 0.08031 0.62601 0.0
C1113 C 0.33295 0.08158 0.58042 0.0
H1114 H 0.32785 0.04227 0.59676 0.0
H1115 H 0.34323 0.08622 0.64525 0.0
O1116 O 0.33431 0.03021 0.70876 0.0
O1117 O 0.33746 0.03006 0.64717 0.0
O1118 O 0.31403 0.0428 0.67348 0.0
O1119 O 0.35341 0.06436 0.6796 0.0
H1120 H 0.34291 0.00719 0.72429 0.0
H1121 H 0.31007 0.02872 0.74037 0.0
H1122 H 0.32983 0.98742 0.76194 0.0
H1123 H 0.29766 0.00868 0.77782 0.0
H1124 H 0.34749 0.99859 0.58682 0.0
H1125 H 0.3351 0.00542 0.67871 0.0
H1126 H 0.344 0.02365 0.59939 0.0
H1127 H 0.33878 0.98074 0.66488 0.0
H1128 H 0.27038 0.96417 0.70039 0.0
H1129 H 0.27562 0.97933 0.61925 0.0
H1130 H 0.39756 0.04485 0.73692 0.0
H1131 H 0.40394 0.03717 0.65499 0.0
H1132 H 0.29961 0.04022 0.62698 0.0
H1133 H 0.28916 0.02383 0.70719 0.0
H1134 H 0.26818 0.02224 0.61714 0.0
H1135 H 0.25791 0.00619 0.69597 0.0
H1136 H 0.37612 0.09494 0.69948 0.0
H1137 H 0.36573 0.05972 0.63493 0.0
H1138 H 0.40434 0.11551 0.67927 0.0
H1139 H 0.39408 0.08087 0.61592 0.0
H1140 H 0.3559 0.09466 0.77182 0.0
H1141 H 0.30109 0.07275 0.75624 0.0
H1142 H 0.32534 0.05781 0.5586 0.0
H1143 H 0.34115 0.10282 0.60821 0.0
Li1144 Li 0.98755 0.30331 0.67543 0.0
Li1145 Li 0.97286 0.31986 0.67681 0.0
Li1146 Li 0.95996 0.29037 0.69602 0.0
Li1147 Li 0.96115 0.29294 0.64876 0.0
C1148 C 0.99553 0.32099 0.72241 0.0
N1149 N 0.02465 0.33924 0.7537 0.0
C1150 C 1.00496 0.33912 0.72169 0.0
C1151 C 1.00084 0.31217 0.7392 0.0
C1152 C 0.01965 0.3481 0.73764 0.0
C1153 C 0.01563 0.32162 0.75479 0.0
C1154 C 0.99939 0.32339 0.63475 0.0
C1155 C 0.02031 0.32241 0.60605 0.0
N1156 N 0.03248 0.3385 0.61454 0.0
C1157 C 0.01209 0.33991 0.64318 0.0
C1158 C 1.00349 0.31456 0.61601 0.0
C1159 C 0.02874 0.34734 0.6327 0.0
C1160 C 0.01067 0.29164 0.6623 0.0
N1161 N 0.01014 0.30492 0.67463 0.0
C1162 C 0.04094 0.31967 0.68137 0.0
C1163 C 0.02492 0.31886 0.68394 0.0
C1164 C 0.04193 0.30621 0.66846 0.0
C1165 C 0.02642 0.29203 0.65894 0.0
H1166 H 0.99888 0.28092 0.65435 0.0
H1167 H 0.02449 0.32965 0.69268 0.0
C1168 C 0.96734 0.34388 0.70342 0.0
N1169 N 0.97365 0.34157 0.68056 0.0
C1170 C 0.96711 0.35919 0.7082 0.0
C1171 C 0.97973 0.3695 0.66565 0.0
C1172 C 0.97967 0.35389 0.66165 0.0
C1173 C 0.97335 0.37229 0.6892 0.0
H1174 H 0.96257 0.33381 0.71803 0.0
H1175 H 0.98437 0.35159 0.64344 0.0
C1176 C 0.9644 0.26462 0.68414 0.0
N1177 N 0.95597 0.23531 0.71303 0.0
C1178 C 0.94866 0.24933 0.6797 0.0
C1179 C 0.97589 0.26496 0.70317 0.0
C1180 C 0.94462 0.23466 0.69455 0.0
C1181 C 0.97139 0.25002 0.71758 0.0
C1182 C 0.93854 0.30533 0.66126 0.0
C1183 C 0.92323 0.30271 0.67279 0.0
C1184 C 0.94381 0.31402 0.63741 0.0
C1185 C 0.91335 0.30875 0.66016 0.0
C1186 C 0.93358 0.31987 0.62541 0.0
N1187 N 0.91868 0.31713 0.63693 0.0
C1188 C 0.95047 0.27302 0.74569 0.0
C1189 C 0.92748 0.268 0.71683 0.0
C1190 C 0.93862 0.26249 0.76464 0.0
N1191 N 0.9447 0.27568 0.72246 0.0
C1192 C 0.91521 0.25762 0.7353 0.0
C1193 C 0.92074 0.2549 0.75966 0.0
H1194 H 0.96422 0.2792 0.74964 0.0
H1195 H 0.92327 0.27012 0.69802 0.0
C1196 C 0.95403 0.28669 0.59366 0.0
N1197 N 0.94809 0.28128 0.61826 0.0
C1198 C 0.94408 0.27729 0.57195 0.0
C1199 C 0.92206 0.25714 0.60135 0.0
C1200 C 0.93232 0.26705 0.62242 0.0
C1201 C 0.92798 0.26216 0.57572 0.0
H1202 H 0.96651 0.29821 0.59091 0.0
H1203 H 0.92773 0.26338 0.6422 0.0
O1204 O 0.98094 0.31199 0.70726 0.0
O1205 O 0.98317 0.3157 0.64535 0.0
O1206 O 0.96838 0.27929 0.67038 0.0
O1207 O 0.94847 0.29971 0.67364 0.0
H1208 H 1.00113 0.34621 0.70881 0.0
H1209 H 0.99372 0.29818 0.74011 0.0
H1210 H 0.02711 0.36212 0.73719 0.0
H1211 H 0.01994 0.31494 0.76776 0.0
H1212 H 0.02371 0.31568 0.59168 0.0
H1213 H 0.00919 0.34682 0.65795 0.0
H1214 H 0.99387 0.30165 0.60957 0.0
H1215 H 0.03873 0.36007 0.63914 0.0
H1216 H 0.05243 0.33087 0.68916 0.0
H1217 H 0.02643 0.28155 0.64814 0.0
H1218 H 0.96235 0.36085 0.72683 0.0
H1219 H 0.98453 0.37918 0.6504 0.0
H1220 H 0.93961 0.24878 0.66507 0.0
H1221 H 0.98809 0.27668 0.70696 0.0
H1222 H 0.93244 0.22277 0.6914 0.0
H1223 H 0.98013 0.25015 0.73245 0.0
H1224 H 0.91905 0.29615 0.69137 0.0
H1225 H 0.9557 0.31634 0.62828 0.0
H1226 H 0.90146 0.30681 0.66887 0.0
H1227 H 0.9375 0.32661 0.60696 0.0
H1228 H 0.94338 0.2608 0.7833 0.0
H1229 H 0.90153 0.25187 0.73069 0.0
H1230 H 0.94909 0.28155 0.55246 0.0
H1231 H 0.90962 0.24572 0.60503 0.0
Li1232 Li 0.7054 0.68675 0.67315 0.0
Li1233 Li 0.69085 0.65619 0.67958 0.0
Li1234 Li 0.71954 0.67441 0.69761 0.0
Li1235 Li 0.71631 0.66885 0.65049 0.0
C1236 C 0.69192 0.6846 0.71753 0.0
N1237 N 0.68019 0.70593 0.73689 0.0
C1238 C 0.67593 0.68239 0.70928 0.0
C1239 C 0.70198 0.6978 0.73551 0.0
C1240 C 0.67023 0.69328 0.71929 0.0
C1241 C 0.6958 0.70838 0.74514 0.0
C1242 C 0.67922 0.65618 0.63255 0.0
C1243 C 0.66524 0.6321 0.60226 0.0
N1244 N 0.64975 0.63109 0.60709 0.0
C1245 C 0.66316 0.65493 0.63711 0.0
C1246 C 0.68028 0.64468 0.61494 0.0
C1247 C 0.64842 0.64214 0.6241 0.0
C1248 C 0.7116 0.72158 0.68136 0.0
N1249 N 0.70237 0.70648 0.66766 0.0
C1250 C 0.68706 0.71809 0.6447 0.0
C1251 C 0.69042 0.70463 0.6494 0.0
C1252 C 0.69609 0.73373 0.6589 0.0
C1253 C 0.70858 0.73539 0.67739 0.0
H1254 H 0.72116 0.72287 0.6956 0.0
H1255 H 0.68352 0.6927 0.63833 0.0
C1256 C 0.66532 0.62072 0.67086 0.0
N1257 N 0.66904 0.63524 0.68484 0.0
C1258 C 0.6495 0.60538 0.67422 0.0
C1259 C 0.64177 0.6201 0.70664 0.0
C1260 C 0.65776 0.63507 0.70282 0.0
C1261 C 0.63742 0.60499 0.69219 0.0
H1262 H 0.67468 0.62104 0.65713 0.0
H1263 H 0.66124 0.64647 0.71454 0.0
C1264 C 0.74631 0.70171 0.67706 0.0
N1265 N 0.78015 0.72152 0.69459 0.0
C1266 C 0.75973 0.70111 0.66391 0.0
C1267 C 0.75012 0.7125 0.69898 0.0
C1268 C 0.77675 0.71121 0.67311 0.0
C1269 C 0.7673 0.72237 0.7076 0.0
C1270 C 0.70807 0.63877 0.69484 0.0
C1271 C 0.70125 0.63775 0.7198 0.0
C1272 C 0.71192 0.6261 0.68661 0.0
C1273 C 0.69846 0.62407 0.73614 0.0
C1274 C 0.70894 0.61263 0.70354 0.0
N1275 N 0.70233 0.6119 0.72775 0.0
C1276 C 0.73276 0.67942 0.75021 0.0
C1277 C 0.74859 0.6739 0.71818 0.0
C1278 C 0.7444 0.68071 0.7697 0.0
N1279 N 0.73524 0.6764 0.72495 0.0
C1280 C 0.76043 0.67488 0.73709 0.0
C1281 C 0.75847 0.67846 0.76321 0.0
H1282 H 0.72159 0.68046 0.75536 0.0
H1283 H 0.74998 0.67104 0.69804 0.0
C1284 C 0.72598 0.67393 0.59787 0.0
N1285 N 0.72722 0.66652 0.62031 0.0
C1286 C 0.73414 0.67297 0.57522 0.0
C1287 C 0.745 0.65703 0.59931 0.0
C1288 C 0.73652 0.65821 0.62153 0.0
C1289 C 0.74378 0.6644 0.57573 0.0
H1290 H 0.71866 0.68063 0.59765 0.0
H1291 H 0.73745 0.65266 0.63981 0.0
O1292 O 0.69784 0.67421 0.70754 0.0
O1293 O 0.69378 0.6684 0.64552 0.0
O1294 O 0.72953 0.69169 0.6686 0.0
O1295 O 0.71086 0.65198 0.67838 0.0
H1296 H 0.66814 0.6726 0.69491 0.0
H1297 H 0.71461 0.70017 0.74159 0.0
H1298 H 0.65792 0.69173 0.71294 0.0
H1299 H 0.7035 0.71867 0.75898 0.0
H1300 H 0.66586 0.62307 0.5887 0.0
H1301 H 0.66203 0.66362 0.65073 0.0
H1302 H 0.6925 0.64525 0.61138 0.0
H1303 H 0.63591 0.64098 0.62757 0.0
H1304 H 0.67767 0.71632 0.62971 0.0
H1305 H 0.71584 0.74716 0.68885 0.0
H1306 H 0.64672 0.59397 0.66283 0.0
H1307 H 0.63307 0.62023 0.72127 0.0
H1308 H 0.75704 0.69288 0.64687 0.0
H1309 H 0.73988 0.71296 0.70958 0.0
H1310 H 0.78726 0.71082 0.66319 0.0
H1311 H 0.7704 0.73064 0.72469 0.0
H1312 H 0.69812 0.64737 0.72652 0.0
H1313 H 0.71712 0.62665 0.66731 0.0
H1314 H 0.6932 0.62313 0.7555 0.0
H1315 H 0.71187 0.60274 0.69742 0.0
H1316 H 0.74216 0.683 0.78977 0.0
H1317 H 0.77104 0.67295 0.73135 0.0
H1318 H 0.73311 0.6791 0.55758 0.0
H1319 H 0.75225 0.65027 0.6005 0.0
Li1320 Li 0.36096 0.32526 0.66732 0.0
Li1321 Li 0.34368 0.29969 0.69255 0.0
Li1322 Li 0.34173 0.2966 0.64673 0.0
Li1323 Li 0.32778 0.31143 0.67095 0.0
C1324 C 0.37664 0.30653 0.65384 0.0
N1325 N 0.40474 0.31221 0.62384 0.0
C1326 C 0.38963 0.3039 0.66445 0.0
C1327 C 0.37796 0.31205 0.62798 0.0
C1328 C 0.40373 0.30685 0.64898 0.0
C1329 C 0.39225 0.31483 0.61312 0.0
C1330 C 0.34944 0.32693 0.72376 0.0
C1331 C 0.34076 0.33189 0.76605 0.0
N1332 N 0.35595 0.33441 0.77649 0.0
C1333 C 0.36501 0.3297 0.73483 0.0
C1334 C 0.33724 0.32811 0.7394 0.0
C1335 C 0.36803 0.33341 0.76156 0.0
C1336 C 0.38247 0.36096 0.65412 0.0
N1337 N 0.38206 0.34696 0.6654 0.0
C1338 C 0.41173 0.36414 0.67866 0.0
C1339 C 0.39633 0.34824 0.67729 0.0
C1340 C 0.41254 0.37899 0.66773 0.0
C1341 C 0.39768 0.37717 0.65495 0.0
H1342 H 0.37086 0.35964 0.64508 0.0
H1343 H 0.39559 0.33701 0.68655 0.0
C1344 C 0.3535 0.27947 0.72217 0.0
N1345 N 0.34412 0.28768 0.7234 0.0
C1346 C 0.35488 0.27083 0.74398 0.0
C1347 C 0.33657 0.27891 0.76777 0.0
C1348 C 0.33536 0.28719 0.74541 0.0
C1349 C 0.34661 0.27078 0.76729 0.0
H1350 H 0.36002 0.27971 0.70425 0.0
H1351 H 0.32751 0.29329 0.7457 0.0
C1352 C 0.34044 0.32363 0.61482 0.0
N1353 N 0.33456 0.33246 0.56558 0.0
C1354 C 0.32349 0.31754 0.60585 0.0
C1355 C 0.3544 0.3344 0.59882 0.0
C1356 C 0.32078 0.32209 0.58088 0.0
C1357 C 0.35116 0.33866 0.57397 0.0
C1358 C 0.31275 0.27287 0.68654 0.0
C1359 C 0.3152 0.25859 0.68453 0.0
C1360 C 0.30106 0.27277 0.70479 0.0
C1361 C 0.30601 0.24447 0.70108 0.0
C1362 C 0.29209 0.25839 0.72095 0.0
N1363 N 0.29475 0.24467 0.7188 0.0
C1364 C 0.34545 0.27045 0.62179 0.0
C1365 C 0.32892 0.27964 0.59725 0.0
C1366 C 0.34296 0.25819 0.6026 0.0
N1367 N 0.33858 0.28096 0.61872 0.0
C1368 C 0.32607 0.26754 0.5776 0.0
C1369 C 0.33309 0.25657 0.58016 0.0
H1370 H 0.35269 0.27142 0.63938 0.0
H1371 H 0.32322 0.28777 0.59548 0.0
C1372 C 0.31209 0.33219 0.67673 0.0
N1373 N 0.30909 0.31602 0.67086 0.0
C1374 C 0.29878 0.33611 0.67416 0.0
C1375 C 0.27948 0.30651 0.66027 0.0
C1376 C 0.29311 0.30315 0.6633 0.0
C1377 C 0.28227 0.32328 0.66522 0.0
H1378 H 0.32495 0.34217 0.68274 0.0
H1379 H 0.29114 0.29044 0.65855 0.0
O1380 O 0.36287 0.30388 0.66896 0.0
O1381 O 0.34617 0.32317 0.69769 0.0
O1382 O 0.34336 0.31961 0.63946 0.0
O1383 O 0.32191 0.28697 0.67094 0.0
H1384 H 0.38888 0.29974 0.6845 0.0
H1385 H 0.368 0.31399 0.61937 0.0
H1386 H 0.41389 0.3049 0.65697 0.0
H1387 H 0.39339 0.31906 0.59305 0.0
H1388 H 0.33142 0.33277 0.77845 0.0
H1389 H 0.37452 0.32872 0.72299 0.0
H1390 H 0.32513 0.32601 0.73107 0.0
H1391 H 0.37996 0.33545 0.77046 0.0
H1392 H 0.42262 0.36488 0.6893 0.0
H1393 H 0.39768 0.38821 0.64615 0.0
H1394 H 0.36276 0.26472 0.74287 0.0
H1395 H 0.32977 0.2789 0.78529 0.0
H1396 H 0.31253 0.30916 0.61787 0.0
H1397 H 0.36763 0.33948 0.60552 0.0
H1398 H 0.30772 0.31735 0.57365 0.0
H1399 H 0.36184 0.34693 0.56138 0.0
H1400 H 0.32425 0.25851 0.67055 0.0
H1401 H 0.29913 0.28379 0.70671 0.0
H1402 H 0.30786 0.23338 0.69988 0.0
H1403 H 0.28309 0.25817 0.73529 0.0
H1404 H 0.3484 0.24983 0.60555 0.0
H1405 H 0.3185 0.26685 0.56052 0.0
H1406 H 0.30152 0.34915 0.67852 0.0
H1407 H 0.26714 0.29627 0.65287 0.0
Li1408 Li 0.68968 0.03954 0.6715 0.0
Li1409 Li 0.7171 0.05249 0.69663 0.0
Li1410 Li 0.71661 0.05153 0.64769 0.0
Li1411 Li 0.70791 0.02494 0.67249 0.0
C1412 C 0.70149 0.07403 0.67289 0.0
N1413 N 0.68551 0.09376 0.67596 0.0
C1414 C 0.70291 0.08338 0.69572 0.0
C1415 C 0.69212 0.07492 0.65151 0.0
C1416 C 0.6947 0.09324 0.69691 0.0
C1417 C 0.68408 0.0849 0.65347 0.0
C1418 C 0.69268 0.02348 0.72687 0.0
C1419 C 0.69824 0.00985 0.76343 0.0
N1420 N 0.68605 0.01117 0.77756 0.0
C1421 C 0.68001 0.02445 0.74164 0.0
C1422 C 0.70171 0.0159 0.73775 0.0
C1423 C 0.67692 0.01826 0.76727 0.0
C1424 C 0.65455 0.02558 0.65392 0.0
N1425 N 0.66658 0.03591 0.67207 0.0
C1426 C 0.64594 0.04155 0.69299 0.0
C1427 C 0.66257 0.0438 0.69141 0.0
C1428 C 0.63316 0.03087 0.67469 0.0
C1429 C 0.63763 0.02282 0.65492 0.0
H1430 H 0.65802 0.01933 0.63885 0.0
H1431 H 0.67226 0.05173 0.70584 0.0
C1432 C 0.74666 0.07818 0.72309 0.0
N1433 N 0.72944 0.06673 0.72598 0.0
C1434 C 0.75618 0.08971 0.74331 0.0
C1435 C 0.73 0.07763 0.76898 0.0
C1436 C 0.72103 0.06627 0.74834 0.0
C1437 C 0.74779 0.08964 0.76654 0.0
H1438 H 0.75296 0.07853 0.70486 0.0
H1439 H 0.70727 0.05745 0.74993 0.0
C1440 C 0.69504 0.02693 0.61574 0.0
N1441 N 0.69517 0.02494 0.56177 0.0
C1442 C 0.70153 0.01732 0.60345 0.0
C1443 C 0.68841 0.03533 0.60058 0.0
C1444 C 0.70153 0.01651 0.57614 0.0
C1445 C 0.68865 0.03423 0.57333 0.0
C1446 C 0.74432 0.04443 0.68063 0.0
C1447 C 0.75703 0.04611 0.66301 0.0
C1448 C 0.74561 0.04083 0.70686 0.0
C1449 C 0.77057 0.04374 0.6718 0.0
C1450 C 0.75935 0.03857 0.71492 0.0
N1451 N 0.77143 0.04003 0.69736 0.0
C1452 C 0.7301 0.07966 0.61223 0.0
C1453 C 0.73773 0.05822 0.6032 0.0
C1454 C 0.74014 0.08969 0.59137 0.0
N1455 N 0.7291 0.06426 0.61772 0.0
C1456 C 0.74805 0.06789 0.58232 0.0
C1457 C 0.74944 0.08391 0.5763 0.0
H1458 H 0.72339 0.08434 0.62434 0.0
H1459 H 0.73676 0.04596 0.60803 0.0
C1460 C 0.69471 0.98914 0.68464 0.0
N1461 N 0.7076 1.00325 0.67248 0.0
C1462 C 0.69421 0.97318 0.68364 0.0
C1463 C 0.72015 0.98656 0.65745 0.0
C1464 C 0.72017 1.0022 0.65904 0.0
C1465 C 0.70702 0.9717 0.66976 0.0
H1466 H 0.68468 0.99022 0.69487 0.0
H1467 H 0.72993 0.0134 0.64879 0.0
O1468 O 0.70926 0.06412 0.6715 0.0
O1469 O 0.69577 0.02939 0.70166 0.0
O1470 O 0.69524 0.02814 0.64245 0.0
O1471 O 0.73094 0.04667 0.67228 0.0
H1472 H 0.71022 0.083 0.71238 0.0
H1473 H 0.69098 0.06788 0.63364 0.0
H1474 H 0.69563 0.10046 0.71451 0.0
H1475 H 0.67669 0.08558 0.63713 0.0
H1476 H 0.70518 1.00401 0.77208 0.0
H1477 H 0.67268 0.03 0.73351 0.0
H1478 H 0.71112 0.01446 0.72643 0.0
H1479 H 0.66725 0.01907 0.77896 0.0
H1480 H 0.64299 0.04769 0.70892 0.0
H1481 H 0.62815 0.01445 0.64046 0.0
H1482 H 0.76982 0.09889 0.74052 0.0
H1483 H 0.72305 0.07705 0.78664 0.0
H1484 H 0.70662 0.01066 0.61485 0.0
H1485 H 0.68316 0.04264 0.60976 0.0
H1486 H 0.70661 0.00922 0.56637 0.0
H1487 H 0.68365 0.04075 0.56136 0.0
H1488 H 0.75641 0.04912 0.64271 0.0
H1489 H 0.73628 0.04006 0.72096 0.0
H1490 H 0.7804 0.04487 0.65831 0.0
H1491 H 0.76047 0.03576 0.73517 0.0
H1492 H 0.74099 0.10204 0.5875 0.0
H1493 H 0.75483 0.06288 0.57096 0.0
H1494 H 0.68385 0.96212 0.69346 0.0
H1495 H 0.73001 0.98601 0.64584 0.0
Li1496 Li 0.95965 0.6721 0.69379 0.0
Li1497 Li 0.9705 0.65467 0.67176 0.0
Li1498 Li 0.98497 0.68716 0.66792 0.0
Li1499 Li 0.95745 0.66918 0.64711 0.0
C1500 C 0.98165 0.67128 0.72615 0.0
N1501 N 0.97933 0.66762 0.77989 0.0
C1502 C 0.97615 0.65507 0.73737 0.0
C1503 C 0.98606 0.68564 0.74227 0.0
C1504 C 0.97505 0.65349 0.76458 0.0
C1505 C 0.98476 0.68352 0.76939 0.0
C1506 C 0.92907 0.64363 0.67458 0.0
C1507 C 0.90431 0.6478 0.67514 0.0
N1508 N 0.8937 0.63044 0.67827 0.0
C1509 C 0.91792 0.62584 0.67787 0.0
C1510 C 0.92222 0.65472 0.67327 0.0
C1511 C 0.90007 0.61942 0.67966 0.0
C1512 C 0.94375 0.68518 0.72877 0.0
N1513 N 0.94641 0.67171 0.72351 0.0
C1514 C 0.9265 0.65475 0.75694 0.0
C1515 C 0.93804 0.65668 0.73711 0.0
C1516 C 0.92357 0.66849 0.76308 0.0
C1517 C 0.9325 0.68392 0.74873 0.0
H1518 H 0.94996 0.69674 0.71704 0.0
H1519 H 0.9399 0.64593 0.73194 0.0
C1520 C 0.99035 0.63868 0.68021 0.0
N1521 N 0.97417 0.63535 0.6736 0.0
C1522 C 0.99389 0.62514 0.68235 0.0
C1523 C 0.96411 0.60494 0.67039 0.0
C1524 C 0.96114 0.61892 0.66848 0.0
C1525 C 0.98067 0.60794 0.67754 0.0
H1526 H 1.00045 0.65189 0.68418 0.0
H1527 H 0.94846 0.61668 0.66291 0.0
C1528 C 0.97364 0.7081 0.66594 0.0
N1529 N 0.99356 0.74376 0.66154 0.0
C1530 C 0.97644 0.71593 0.64141 0.0
C1531 C 0.98107 0.71846 0.68821 0.0
C1532 C 0.9865 0.73396 0.63961 0.0
C1533 C 0.99107 0.73644 0.68559 0.0
C1534 C 0.97762 0.66464 0.61407 0.0
C1535 C 0.97743 0.6757 0.5949 0.0
C1536 C 0.97565 0.64862 0.60665 0.0
C1537 C 0.97506 0.67045 0.56867 0.0
C1538 C 0.97335 0.64386 0.58022 0.0
N1539 N 0.97308 0.65477 0.56194 0.0
C1540 C 0.01839 0.71575 0.68454 0.0
C1541 C 0.01183 0.71385 0.63927 0.0
C1542 C 0.03428 0.73103 0.68065 0.0
N1543 N 0.00746 0.70763 0.66395 0.0
C1544 C 0.02736 0.7291 0.63456 0.0
C1545 C 0.03877 0.738 0.6554 0.0
H1546 H 0.01473 0.71049 0.70398 0.0
H1547 H 1.00309 0.70711 0.62322 0.0
C1548 C 0.93713 0.67728 0.61325 0.0
N1549 N 0.94194 0.66534 0.61858 0.0
C1550 C 0.92605 0.67478 0.59222 0.0
C1551 C 0.92411 0.64716 0.58362 0.0
C1552 C 0.93528 0.65023 0.60478 0.0
C1553 C 0.9196 0.65967 0.57679 0.0
H1554 H 0.94188 0.68876 0.62534 0.0
H1555 H 0.9388 0.64065 0.61008 0.0
O1556 O 0.98247 0.67301 0.69952 0.0
O1557 O 0.9466 0.65011 0.67307 0.0
O1558 O 0.96421 0.6904 0.66808 0.0
O1559 O 0.97977 0.66945 0.63993 0.0
H1560 H 0.97253 0.64378 0.72523 0.0
H1561 H 0.9903 0.69826 0.73396 0.0
H1562 H 0.97072 0.64101 0.77351 0.0
H1563 H 0.98805 0.6945 0.78209 0.0
H1564 H 0.89885 0.65624 0.67417 0.0
H1565 H 0.92298 0.61708 0.67915 0.0
H1566 H 0.93062 0.66854 0.67097 0.0
H1567 H 0.8913 0.60568 0.68221 0.0
H1568 H 0.91964 0.64243 0.76687 0.0
H1569 H 0.93081 0.69492 0.75279 0.0
H1570 H 0.00676 0.62809 0.68839 0.0
H1571 H 0.95358 0.59194 0.66627 0.0
H1572 H 0.97129 0.7082 0.62382 0.0
H1573 H 0.97942 0.71268 0.70728 0.0
H1574 H 0.98884 0.74016 0.62073 0.0
H1575 H 0.99695 0.74457 0.70266 0.0
H1576 H 0.97862 0.688 0.60021 0.0
H1577 H 0.9759 0.63993 0.62111 0.0
H1578 H 0.97469 0.6788 0.5537 0.0
H1579 H 0.97177 0.63148 0.57424 0.0
H1580 H 0.04278 0.73748 0.69719 0.0
H1581 H 0.03047 0.73383 0.6147 0.0
H1582 H 0.92297 0.6848 0.58772 0.0
H1583 H 0.91914 0.63514 0.57266 0.0
H1584 H 0.15583 0.32933 0.12836 0.0
H1585 H 0.1503 0.33597 0.04595 0.0
H1586 H 0.12469 0.35084 0.10251 0.0
H1587 H 0.15825 0.31033 0.09117 0.0
H1588 H 0.16275 0.31894 0.05902 0.0
H1589 H 0.17972 0.3253 0.12792 0.0
H1590 H 0.23273 0.35281 0.10324 0.0
H1591 H 0.19201 0.33975 0.04697 0.0
C1592 C 0.15122 0.33415 0.11271 0.0
C1593 C 0.14048 0.34106 0.11872 0.0
C1594 C 0.15524 0.33262 0.08651 0.0
C1595 C 0.14816 0.33794 0.06623 0.0
C1596 C 0.13717 0.34453 0.07212 0.0
C1597 C 0.13374 0.34637 0.09825 0.0
C1598 C 0.16447 0.32269 0.08009 0.0
C1599 C 0.18362 0.3325 0.08701 0.0
C1600 C 0.18916 0.33215 0.11282 0.0
C1601 C 0.20688 0.33935 0.11866 0.0
C1602 C 0.21905 0.34751 0.09882 0.0
C1603 C 0.21387 0.34762 0.07297 0.0
C1604 C 0.19611 0.34018 0.0671 0.0
H1605 H 0.67859 0.83037 0.12837 0.0
H1606 H 0.66505 0.8144 0.04774 0.0
H1607 H 0.65216 0.77652 0.10829 0.0
H1608 H 0.69297 0.85086 0.09026 0.0
H1609 H 0.68396 0.84463 0.05813 0.0
H1610 H 0.67144 0.85108 0.12678 0.0
H1611 H 0.64684 0.8787 0.09872 0.0
H1612 H 0.6682 0.85798 0.04383 0.0
C1613 C 0.67198 0.82032 0.11374 0.0
C1614 C 0.66446 0.80295 0.12122 0.0
C1615 C 0.67155 0.82464 0.08734 0.0
C1616 C 0.66452 0.81123 0.06829 0.0
C1617 C 0.65747 0.79377 0.0757 0.0
C1618 C 0.65707 0.78985 0.10231 0.0
C1619 C 0.68054 0.84352 0.07922 0.0
C1620 C 0.66985 0.85217 0.08457 0.0
C1621 C 0.66668 0.85526 0.11052 0.0
C1622 C 0.65806 0.8645 0.11572 0.0
C1623 C 0.65266 0.87075 0.09476 0.0
C1624 C 0.65642 0.86865 0.0689 0.0
C1625 C 0.66491 0.85924 0.0638 0.0
H1626 H 0.17937 0.81398 0.14324 0.0
H1627 H 0.17295 0.79696 0.06279 0.0
H1628 H 0.12866 0.7791 0.11265 0.0
H1629 H 0.20282 0.81066 0.11502 0.0
H1630 H 0.20131 0.81216 0.08056 0.0
H1631 H 0.20812 0.83531 0.14454 0.0
H1632 H 0.23607 0.88545 0.10948 0.0
H1633 H 0.21099 0.83996 0.06053 0.0
C1634 C 0.17106 0.80712 0.12674 0.0
C1635 C 0.15306 0.79727 0.13043 0.0
C1636 C 0.1784 0.80738 0.10224 0.0
C1637 C 0.1674 0.79743 0.0814 0.0
C1638 C 0.14936 0.78734 0.08491 0.0
C1639 C 0.1424 0.78763 0.10935 0.0
C1640 C 0.1979 0.81586 0.09951 0.0
C1641 C 0.2073 0.83544 0.1022 0.0
C1642 C 0.21178 0.84329 0.12721 0.0
C1643 C 0.22221 0.86134 0.12988 0.0
C1644 C 0.22775 0.87154 0.10733 0.0
C1645 C 0.22415 0.86405 0.08225 0.0
C1646 C 0.2136 0.84594 0.07977 0.0
H1647 H 0.36904 0.20595 0.87218 0.0
H1648 H 0.36516 0.2066 0.95612 0.0
H1649 H 0.34237 0.22948 0.90824 0.0
H1650 H 0.38802 0.20034 0.90182 0.0
H1651 H 0.38419 0.19815 0.93621 0.0
H1652 H 0.35836 0.17655 0.87383 0.0
H1653 H 0.34697 0.12607 0.89823 0.0
H1654 H 0.37714 0.16997 0.94838 0.0
C1655 C 0.3637 0.20854 0.88949 0.0
C1656 C 0.35497 0.21796 0.88714 0.0
C1657 C 0.36667 0.20355 0.91429 0.0
C1658 C 0.36165 0.20902 0.93691 0.0
C1659 C 0.35304 0.21856 0.93472 0.0
C1660 C 0.34898 0.22208 0.90984 0.0
C1661 C 0.37761 0.19494 0.91676 0.0
C1662 C 0.36739 0.1754 0.91282 0.0
C1663 C 0.35865 0.16825 0.88893 0.0
C1664 C 0.35116 0.15044 0.88364 0.0
C1665 C 0.35231 0.13975 0.90256 0.0
C1666 C 0.36214 0.14668 0.92549 0.0
C1667 C 0.36922 0.16446 0.93097 0.0
H1668 H 0.85815 0.17859 0.88318 0.0
H1669 H 0.85381 0.19695 0.95949 0.0
H1670 H 0.8798 0.23306 0.89749 0.0
H1671 H 0.851 0.16003 0.92337 0.0
H1672 H 0.84634 0.16702 0.95349 0.0
H1673 H 0.83015 0.15598 0.88318 0.0
H1674 H 0.77686 0.12738 0.90657 0.0
H1675 H 0.81655 0.15394 0.96461 0.0
C1676 C 0.85996 0.18905 0.89609 0.0
C1677 C 0.86898 0.20617 0.887 0.0
C1678 C 0.85373 0.18547 0.92195 0.0
C1679 C 0.85759 0.19942 0.93914 0.0
C1680 C 0.86694 0.2166 0.93026 0.0
C1681 C 0.87208 0.21977 0.90408 0.0
C1682 C 0.84472 0.16701 0.93188 0.0
C1683 C 0.82562 0.15699 0.92457 0.0
C1684 C 0.82048 0.15209 0.89829 0.0
C1685 C 0.80287 0.14169 0.89152 0.0
C1686 C 0.79043 0.13609 0.91131 0.0
C1687 C 0.79525 0.1404 0.93752 0.0
C1688 C 0.81283 0.15094 0.9442 0.0
H1689 H 0.84283 0.64282 0.87389 0.0
H1690 H 0.84248 0.64159 0.95827 0.0
H1691 H 0.89049 0.66206 0.91695 0.0
H1692 H 0.81625 0.62293 0.89959 0.0
H1693 H 0.81589 0.62526 0.93412 0.0
H1694 H 0.81829 0.64724 0.87019 0.0
H1695 H 0.78627 0.66707 0.89872 0.0
H1696 H 0.80396 0.64188 0.95156 0.0
C1697 C 0.84976 0.64648 0.8924 0.0
C1698 C 0.8678 0.65324 0.89269 0.0
C1699 C 0.84049 0.64279 0.91609 0.0
C1700 C 0.84955 0.64574 0.94006 0.0
C1701 C 0.86763 0.65286 0.94033 0.0
C1702 C 0.87662 0.65724 0.9167 0.0
C1703 C 0.82084 0.63272 0.91569 0.0
C1704 C 0.81285 0.64408 0.9116 0.0
C1705 C 0.81218 0.64999 0.88633 0.0
C1706 C 0.8028 0.65856 0.88155 0.0
C1707 C 0.7944 0.66145 0.90248 0.0
C1708 C 0.79474 0.65556 0.92773 0.0
C1709 C 0.80408 0.64694 0.93226 0.0
H1710 H 0.81545 0.65719 0.4626 0.0
H1711 H 0.82211 0.67879 0.38524 0.0
H1712 H 0.7959 0.69126 0.44425 0.0
H1713 H 0.82121 0.64375 0.42326 0.0
H1714 H 0.82697 0.65485 0.39282 0.0
H1715 H 0.84211 0.6568 0.46246 0.0
H1716 H 0.89544 0.67975 0.43963 0.0
H1717 H 0.85699 0.67276 0.38255 0.0
C1718 C 0.81435 0.66592 0.44906 0.0
C1719 C 0.8052 0.67427 0.45655 0.0
C1720 C 0.82086 0.66776 0.42344 0.0
C1721 C 0.81803 0.67803 0.40537 0.0
C1722 C 0.80918 0.68666 0.41299 0.0
C1723 C 0.80321 0.68501 0.43866 0.0
C1724 C 0.82852 0.65686 0.41439 0.0
C1725 C 0.84743 0.66473 0.42196 0.0
C1726 C 0.85206 0.66306 0.44779 0.0
C1727 C 0.86935 0.66831 0.4542 0.0
C1728 C 0.88205 0.67576 0.43488 0.0
C1729 C 0.87771 0.67734 0.40916 0.0
C1730 C 0.86043 0.67203 0.40269 0.0
H1731 H 0.34871 0.16415 0.46635 0.0
H1732 H 0.34126 0.15182 0.38383 0.0
H1733 H 0.32719 0.11148 0.43996 0.0
H1734 H 0.36688 0.18588 0.42934 0.0
H1735 H 0.35799 0.18144 0.39711 0.0
H1736 H 0.35056 0.19038 0.46642 0.0
H1737 H 0.32226 0.21531 0.44228 0.0
H1738 H 0.33744 0.19024 0.38503 0.0
C1739 C 0.34381 0.1547 0.45063 0.0
C1740 C 0.337 0.13706 0.45653 0.0
C1741 C 0.34501 0.1602 0.42446 0.0
C1742 C 0.33958 0.14776 0.40409 0.0
C1743 C 0.33304 0.1302 0.40987 0.0
C1744 C 0.33155 0.12499 0.43592 0.0
C1745 C 0.35444 0.17938 0.41816 0.0
C1746 C 0.3442 0.18821 0.42517 0.0
C1747 C 0.34388 0.19325 0.45127 0.0
C1748 C 0.33569 0.20274 0.45774 0.0
C1749 C 0.32781 0.20719 0.4378 0.0
C1750 C 0.32848 0.20284 0.41168 0.0
C1751 C 0.33653 0.19321 0.40535 0.0
H1752 H 0.84152 0.14225 0.47453 0.0
H1753 H 0.83755 0.13391 0.39108 0.0
H1754 H 0.79154 0.11293 0.43756 0.0
H1755 H 0.86594 0.14379 0.44777 0.0
H1756 H 0.86492 0.14389 0.413 0.0
H1757 H 0.86611 0.16942 0.47313 0.0
H1758 H 0.90197 0.21787 0.43729 0.0
H1759 H 0.87952 0.17108 0.39184 0.0
C1760 C 0.83368 0.13755 0.45691 0.0
C1761 C 0.81551 0.12788 0.45897 0.0
C1762 C 0.8418 0.14025 0.43241 0.0
C1763 C 0.83147 0.13286 0.40983 0.0
C1764 C 0.81332 0.12324 0.41169 0.0
C1765 C 0.80549 0.12118 0.43612 0.0
C1766 C 0.86132 0.14839 0.43102 0.0
C1767 C 0.87088 0.16804 0.43205 0.0
C1768 C 0.87268 0.17679 0.45596 0.0
C1769 C 0.88375 0.19488 0.45816 0.0
C1770 C 0.89263 0.20412 0.43583 0.0
C1771 C 0.89103 0.19567 0.41199 0.0
C1772 C 0.88012 0.17766 0.41004 0.0
H1773 H 0.03171 0.52867 0.20731 0.0
H1774 H 0.04846 0.54819 0.28569 0.0
H1775 H 0.01451 0.5608 0.24345 0.0
H1776 H 0.06129 0.53446 0.23055 0.0
H1777 H 0.06067 0.53301 0.26524 0.0
H1778 H 0.04246 0.50912 0.20261 0.0
H1779 H 0.02308 0.45944 0.23834 0.0
H1780 H 0.04298 0.50515 0.28671 0.0
C1781 C 0.03085 0.53527 0.22459 0.0
C1782 C 0.02126 0.54383 0.22339 0.0
C1783 C 0.04022 0.53619 0.24741 0.0
C1784 C 0.04036 0.54638 0.26873 0.0
C1785 C 0.03098 0.55521 0.26751 0.0
C1786 C 0.02099 0.55328 0.24515 0.0
C1787 C 0.05232 0.52887 0.24738 0.0
C1788 C 0.04286 0.50929 0.245 0.0
C1789 C 0.03902 0.50128 0.22009 0.0
C1790 C 0.03197 0.48329 0.21769 0.0
C1791 C 0.02821 0.4733 0.24033 0.0
C1792 C 0.03222 0.48096 0.26528 0.0
C1793 C 0.03943 0.49902 0.26756 0.0
H1794 H 0.52133 0.51456 0.2232 0.0
H1795 H 0.52453 0.53233 0.30297 0.0
H1796 H 0.55427 0.56821 0.24265 0.0
H1797 H 0.51561 0.49513 0.26443 0.0
H1798 H 0.51099 0.50201 0.29452 0.0
H1799 H 0.49573 0.48944 0.22469 0.0
H1800 H 0.4422 0.46585 0.24576 0.0
H1801 H 0.48156 0.49334 0.30407 0.0
C1802 C 0.52571 0.52494 0.23747 0.0
C1803 C 0.53773 0.54188 0.22983 0.0
C1804 C 0.52049 0.52131 0.26384 0.0
C1805 C 0.52763 0.53499 0.28242 0.0
C1806 C 0.53984 0.55189 0.27473 0.0
C1807 C 0.54452 0.55522 0.24845 0.0
C1808 C 0.50993 0.50269 0.27291 0.0
C1809 C 0.49099 0.49388 0.26478 0.0
C1810 C 0.48602 0.48759 0.23896 0.0
C1811 C 0.46845 0.47742 0.23213 0.0
C1812 C 0.4558 0.47407 0.25091 0.0
C1813 C 0.46037 0.47959 0.27684 0.0
C1814 C 0.478 0.48961 0.28379 0.0
H1815 H 0.49903 0.96968 0.20279 0.0
H1816 H 0.50551 0.95885 0.28281 0.0
H1817 H 0.55004 0.98742 0.23425 0.0
H1818 H 0.47564 0.94406 0.22798 0.0
H1819 H 0.47745 0.94337 0.26257 0.0
H1820 H 0.46925 0.9654 0.207 0.0
H1821 H 0.44184 0.98301 0.25553 0.0
H1822 H 0.46857 0.9593 0.29078 0.0
C1823 C 0.50742 0.97141 0.21932 0.0
C1824 C 0.52549 0.98008 0.21587 0.0
C1825 C 0.50007 0.964 0.24359 0.0
C1826 C 0.51105 0.96529 0.26449 0.0
C1827 C 0.52914 0.97401 0.26129 0.0
C1828 C 0.53618 0.98166 0.23717 0.0
C1829 C 0.48064 0.95239 0.24582 0.0
C1830 C 0.47121 0.96247 0.24872 0.0
C1831 C 0.46598 0.96793 0.2263 0.0
C1832 C 0.45513 0.97509 0.22869 0.0
C1833 C 0.45049 0.97778 0.25368 0.0
C1834 C 0.45508 0.97198 0.27609 0.0
C1835 C 0.46556 0.96442 0.2736 0.0
H1836 H 0.48789 0.99328 0.79336 0.0
H1837 H 0.48672 0.01186 0.71586 0.0
H1838 H 0.45639 0.01601 0.77777 0.0
H1839 H 0.49675 0.98296 0.75331 0.0
H1840 H 0.49916 0.99342 0.72266 0.0
H1841 H 0.51685 1.00374 0.79259 0.0
H1842 H 0.56943 0.03364 0.76685 0.0
H1843 H 0.52818 0.01183 0.71012 0.0
C1844 C 0.48387 1.00001 0.77999 0.0
C1845 C 0.47207 0.00496 0.78855 0.0
C1846 C 0.4896 1.00278 0.75386 0.0
C1847 C 0.48297 0.01029 0.73625 0.0
C1848 C 0.47107 0.01525 0.74486 0.0
C1849 C 0.46592 0.01268 0.77107 0.0
C1850 C 0.50097 0.99576 0.74415 0.0
C1851 C 0.52004 0.00753 0.75066 0.0
C1852 C 0.52594 0.00989 0.77686 0.0
C1853 C 0.54374 0.0196 0.78285 0.0
C1854 C 0.55563 0.0269 0.76245 0.0
C1855 C 0.55016 0.02401 0.7363 0.0
C1856 C 0.53236 0.01443 0.7304 0.0
H1857 H 0.01502 0.50027 0.7968 0.0
H1858 H 0.00696 0.48573 0.71509 0.0
H1859 H 0.99159 0.44673 0.77385 0.0
H1860 H 0.03422 0.52016 0.7574 0.0
H1861 H 0.02381 0.51555 0.72628 0.0
H1862 H 0.02418 0.5308 0.79431 0.0
H1863 H 0.99402 0.55434 0.77331 0.0
H1864 H 1.00037 0.52176 0.71765 0.0
C1865 C 0.00981 0.49036 0.78169 0.0
C1866 C 1.00244 0.47282 0.78869 0.0
C1867 C 0.0112 0.49518 0.75516 0.0
C1868 C 1.00527 0.48218 0.73556 0.0
C1869 C 0.99782 0.46464 0.74237 0.0
C1870 C 0.99634 0.46017 0.76883 0.0
C1871 C 0.02127 0.51414 0.74768 0.0
C1872 C 0.01239 0.52416 0.75564 0.0
C1873 C 0.01571 0.53223 0.78052 0.0
C1874 C 0.00921 0.54325 0.78678 0.0
C1875 C 0.99878 0.54557 0.76862 0.0
C1876 C 0.99555 0.53794 0.74376 0.0
C1877 C 1.00233 0.52718 0.73723 0.0
H1878 H 0.5021 0.47349 0.80993 0.0
H1879 H 0.5021 0.47558 0.72558 0.0
H1880 H 0.45412 0.44745 0.76698 0.0
H1881 H 0.52864 0.48174 0.78469 0.0
H1882 H 0.52865 0.48323 0.74992 0.0
H1883 H 0.52623 0.50487 0.81219 0.0
H1884 H 0.55617 0.55585 0.78009 0.0
H1885 H 0.54121 0.51124 0.73105 0.0
C1886 C 0.49508 0.47079 0.79153 0.0
C1887 C 0.47698 0.45996 0.79118 0.0
C1888 C 0.50428 0.47688 0.76789 0.0
C1889 C 0.4951 0.47194 0.74389 0.0
C1890 C 0.47695 0.46147 0.74355 0.0
C1891 C 0.46807 0.45609 0.76726 0.0
C1892 C 0.52389 0.48634 0.76811 0.0
C1893 C 0.53172 0.50576 0.77083 0.0
C1894 C 0.53201 0.51315 0.7954 0.0
C1895 C 0.54063 0.53124 0.79868 0.0
C1896 C 0.54871 0.5419 0.77719 0.0
C1897 C 0.5492 0.53485 0.75288 0.0
C1898 C 0.54051 0.51674 0.74966 0.0
H1899 H 0.70451 0.87251 0.54076 0.0
H1900 H 0.70506 0.87604 0.62474 0.0
H1901 H 0.67677 0.89412 0.57934 0.0
H1902 H 0.7258 0.86914 0.56827 0.0
H1903 H 0.7236 0.86757 0.60298 0.0
H1904 H 0.70091 0.84459 0.53996 0.0
H1905 H 0.68392 0.79427 0.57165 0.0
H1906 H 0.71102 0.83938 0.62108 0.0
C1907 C 0.69971 0.87531 0.55846 0.0
C1908 C 0.68994 0.88372 0.55686 0.0
C1909 C 0.70447 0.87164 0.58294 0.0
C1910 C 0.70018 0.8774 0.60595 0.0
C1911 C 0.69043 0.88581 0.60459 0.0
C1912 C 0.68446 0.88781 0.58019 0.0
C1913 C 0.71612 0.8638 0.58427 0.0
C1914 C 0.70604 0.84424 0.58138 0.0
C1915 C 0.6992 0.83656 0.55679 0.0
C1916 C 0.69087 0.81852 0.55354 0.0
C1917 C 0.68947 0.80811 0.57481 0.0
C1918 C 0.69695 0.81548 0.59912 0.0
C1919 C 0.70499 0.83357 0.60245 0.0
H1920 H 0.19175 0.84166 0.54921 0.0
H1921 H 0.19224 0.85623 0.62998 0.0
H1922 H 0.21821 0.89529 0.57172 0.0
H1923 H 0.18724 0.82137 0.58789 0.0
H1924 H 0.18236 0.82654 0.61926 0.0
H1925 H 0.16636 0.81554 0.54946 0.0
H1926 H 0.11303 0.78877 0.57218 0.0
H1927 H 0.15266 0.81642 0.63023 0.0
C1928 C 0.19496 0.85152 0.56405 0.0
C1929 C 0.2048 0.86908 0.55715 0.0
C1930 C 0.1899 0.84671 0.59021 0.0
C1931 C 0.19532 0.85976 0.60964 0.0
C1932 C 0.20537 0.87735 0.60295 0.0
C1933 C 0.20971 0.88179 0.5767 0.0
C1934 C 0.18084 0.82777 0.59789 0.0
C1935 C 0.16177 0.81806 0.59045 0.0
C1936 C 0.15668 0.81252 0.56436 0.0
C1937 C 0.13911 0.80192 0.55783 0.0
C1938 C 0.12658 0.79727 0.57727 0.0
C1939 C 0.13126 0.80236 0.60338 0.0
C1940 C 0.14892 0.81282 0.60995 0.0
H1941 H 0.17182 0.31167 0.53838 0.0
H1942 H 0.17816 0.31095 0.62203 0.0
H1943 H 0.22233 0.32998 0.5715 0.0
H1944 H 0.14749 0.29118 0.56836 0.0
H1945 H 0.14985 0.29433 0.60286 0.0
H1946 H 0.14681 0.31437 0.53974 0.0
H1947 H 0.11905 0.33672 0.57559 0.0
H1948 H 0.13892 0.31095 0.62322 0.0
C1949 C 0.18013 0.31507 0.5555 0.0
C1950 C 0.198 0.32181 0.55222 0.0
C1951 C 0.17284 0.31133 0.58074 0.0
C1952 C 0.18374 0.31452 0.60269 0.0
C1953 C 0.20169 0.32138 0.59955 0.0
C1954 C 0.20863 0.3253 0.57429 0.0
C1955 C 0.15333 0.30133 0.5839 0.0
C1956 C 0.1452 0.31269 0.58198 0.0
C1957 C 0.14256 0.31799 0.55726 0.0
C1958 C 0.13291 0.32645 0.5549 0.0
C1959 C 0.12676 0.33044 0.57751 0.0
C1960 C 0.12858 0.3247 0.60212 0.0
C1961 C 0.13796 0.31593 0.60436 0.0
H1962 H 0.0117 0.44563 0.10731 0.0
H1963 H 0.03839 0.42097 0.14092 0.0
H1964 H 0.0457 0.43944 0.17962 0.0
H1965 H 0.04355 0.46156 0.20474 0.0
H1966 H 0.01609 0.48582 0.17301 0.0
H1967 H 0.01027 0.46876 0.13246 0.0
C1968 C 0.01905 0.44427 0.12317 0.0
C1969 C 0.02448 0.43192 0.1212 0.0
C1970 C 0.02312 0.45489 0.14558 0.0
C1971 C 0.03422 0.43049 0.14176 0.0
C1972 C 0.03835 0.44099 0.16396 0.0
C1973 C 0.03626 0.46311 0.18894 0.0
C1974 C 0.03 0.4747 0.19194 0.0
C1975 C 0.03275 0.4531 0.16615 0.0
C1976 C 0.021 0.47694 0.17111 0.0
C1977 C 0.01758 0.4671 0.14806 0.0
H1978 H 0.56371 0.5721 0.11803 0.0
H1979 H 0.61143 0.57833 0.15031 0.0
H1980 H 0.5962 0.56294 0.18957 0.0
H1981 H 0.56996 0.55007 0.21641 0.0
H1982 H 0.52214 0.54338 0.18462 0.0
H1983 H 0.53661 0.55608 0.14303 0.0
C1984 C 0.57073 0.56979 0.13338 0.0
C1985 C 0.5888 0.57669 0.13133 0.0
C1986 C 0.56185 0.56078 0.15593 0.0
C1987 C 0.59765 0.57362 0.1516 0.0
C1988 C 0.58892 0.56469 0.17401 0.0
C1989 C 0.56268 0.55104 0.20007 0.0
C1990 C 0.54509 0.54583 0.20328 0.0
C1991 C 0.57114 0.55858 0.17662 0.0
C1992 C 0.53567 0.54719 0.1823 0.0
C1993 C 0.54399 0.55459 0.1587 0.0
H1994 H 0.40529 0.9805 0.14661 0.0
H1995 H 0.45313 0.00964 0.10428 0.0
H1996 H 0.46894 0.00479 0.13937 0.0
H1997 H 0.46915 0.99232 0.18275 0.0
H1998 H 0.42065 0.96224 0.22311 0.0
H1999 H 0.40515 0.96701 0.18784 0.0
C2000 C 0.41913 0.9856 0.14475 0.0
C2001 C 0.42793 0.99542 0.12274 0.0
C2002 C 0.42808 0.98253 0.16471 0.0
C2003 C 0.44599 1.00224 0.12115 0.0
C2004 C 0.45505 0.99935 0.14113 0.0
C2005 C 0.45519 0.98673 0.1836 0.0
C2006 C 0.44612 0.9772 0.2057 0.0
C2007 C 0.44623 0.98952 0.16308 0.0
C2008 C 0.42799 0.96994 0.20656 0.0
C2009 C 0.41909 0.97261 0.18637 0.0
H2010 H 0.44859 0.00832 0.9026 0.0
H2011 H 0.39908 0.97057 0.86938 0.0
H2012 H 0.41326 0.96995 0.82906 0.0
H2013 H 0.43923 0.98237 0.80164 0.0
H2014 H 0.48878 0.01972 0.83443 0.0
H2015 H 0.47519 0.01788 0.87693 0.0
C2016 C 0.44093 0.99964 0.88681 0.0
C2017 C 0.42273 0.98976 0.88889 0.0
C2018 C 0.44919 0.99928 0.86364 0.0
C2019 C 0.41304 0.97868 0.86808 0.0
C2020 C 0.42114 0.97821 0.84505 0.0
C2021 C 0.44705 0.98976 0.81835 0.0
C2022 C 0.46488 1.00116 0.81519 0.0
C2023 C 0.43912 0.9888 0.84238 0.0
C2024 C 0.47502 0.01078 0.83669 0.0
C2025 C 0.46723 0.00983 0.86082 0.0
H2026 H 0.02174 0.45039 0.89436 0.0
H2027 H 0.97157 0.40535 0.87984 0.0
H2028 H 0.96651 0.4201 0.84361 0.0
H2029 H 0.97737 0.44458 0.81371 0.0
H2030 H 0.02876 0.48853 0.82501 0.0
H2031 H 0.03197 0.4759 0.86555 0.0
C2032 C 0.00964 0.44395 0.88341 0.0
C2033 C 0.99712 0.42676 0.88948 0.0
C2034 C 0.00698 0.45238 0.86219 0.0
C2035 C 0.9815 0.41848 0.87518 0.0
C2036 C 0.97856 0.42693 0.8546 0.0
C2037 C 0.98924 0.45148 0.82514 0.0
C2038 C 1.00289 0.46736 0.81606 0.0
C2039 C 0.99138 0.44371 0.84755 0.0
C2040 C 0.01799 0.47634 0.83151 0.0
C2041 C 0.01994 0.46899 0.85454 0.0
H2042 H 0.5682 0.58495 0.89088 0.0
H2043 H 0.59121 0.55417 0.91291 0.0
H2044 H 0.5747 0.5331 0.87853 0.0
H2045 H 0.55629 0.52517 0.83918 0.0
H2046 H 0.53428 0.55652 0.81588 0.0
H2047 H 0.5473 0.57528 0.85429 0.0
C2048 C 0.56935 0.57346 0.88848 0.0
C2049 C 0.58115 0.5713 0.90418 0.0
C2050 C 0.5599 0.56144 0.86852 0.0
C2051 C 0.58255 0.55638 0.90069 0.0
C2052 C 0.57302 0.54424 0.88116 0.0
C2053 C 0.55387 0.53576 0.84306 0.0
C2054 C 0.54427 0.53943 0.82494 0.0
C2055 C 0.56198 0.54685 0.86455 0.0
C2056 C 0.54154 0.55342 0.82976 0.0
C2057 C 0.54912 0.56423 0.85154 0.0
H2058 H 0.02376 0.5992 0.87239 0.0
H2059 H 1.00268 0.55435 0.92245 0.0
H2060 H 1.00154 0.53631 0.88555 0.0
H2061 H 1.0041 0.53282 0.8378 0.0
H2062 H 0.02598 0.57814 0.78896 0.0
H2063 H 0.02989 0.59652 0.82686 0.0
C2064 C 0.01934 0.58559 0.87558 0.0
C2065 C 0.01307 0.5782 0.90024 0.0
C2066 C 0.0189 0.57532 0.85439 0.0
C2067 C 0.00715 0.5604 0.90358 0.0
C2068 C 0.00662 0.55005 0.8825 0.0
C2069 C 0.0101 0.54677 0.83572 0.0
C2070 C 0.0146 0.55415 0.81072 0.0
C2071 C 0.01208 0.55729 0.85763 0.0
C2072 C 0.0223 0.57222 0.80808 0.0
C2073 C 0.02447 0.58271 0.82968 0.0
H2074 H 0.42571 0.40784 0.87391 0.0
H2075 H 0.44614 0.45447 0.92091 0.0
H2076 H 0.46542 0.47124 0.88527 0.0
H2077 H 0.47615 0.47268 0.83993 0.0
H2078 H 0.45615 0.42533 0.79487 0.0
H2079 H 0.43752 0.4088 0.83089 0.0
C2080 C 0.43458 0.42161 0.8767 0.0
C2081 C 0.43438 0.42979 0.90018 0.0
C2082 C 0.44583 0.43109 0.85642 0.0
C2083 C 0.44574 0.44779 0.90294 0.0
C2084 C 0.45691 0.4574 0.88263 0.0
C2085 C 0.46784 0.45874 0.83825 0.0
C2086 C 0.46731 0.45028 0.81466 0.0
C2087 C 0.45703 0.4492 0.85918 0.0
C2088 C 0.45653 0.43218 0.81267 0.0
C2089 C 0.44588 0.4227 0.83325 0.0
H2090 H 0.59035 0.03317 0.88257 0.0
H2091 H 0.55721 0.97786 0.88986 0.0
H2092 H 0.53935 0.97765 0.85314 0.0
H2093 H 0.53497 0.99284 0.81627 0.0
H2094 H 0.56827 0.04815 0.80907 0.0
H2095 H 0.58411 0.04878 0.84861 0.0
C2096 C 0.57917 0.0211 0.87613 0.0
C2097 C 0.57521 0.00553 0.88861 0.0
C2098 C 0.56898 0.02109 0.85508 0.0
C2099 C 0.56051 0.99001 0.88048 0.0
C2100 C 0.55033 0.98988 0.85948 0.0
C2101 C 0.54537 0.00509 0.82382 0.0
C2102 C 0.55051 0.02042 0.80974 0.0
C2103 C 0.55463 0.0053 0.84631 0.0
C2104 C 0.56416 0.03617 0.81953 0.0
C2105 C 0.57328 0.03652 0.84203 0.0
H2106 H 0.55774 0.98164 0.10635 0.0
H2107 H 0.59877 0.03001 0.13764 0.0
H2108 H 0.58089 0.02732 0.17554 0.0
H2109 H 0.5548 0.00968 0.20178 0.0
H2110 H 0.51418 0.96087 0.1709 0.0
H2111 H 0.53041 0.96551 0.13052 0.0
C2112 C 0.5627 0.99162 0.12144 0.0
C2113 C 0.57961 0.00586 0.11947 0.0
C2114 C 0.55237 0.98996 0.14314 0.0
C2115 C 0.58579 0.01891 0.1388 0.0
C2116 C 0.5756 0.01735 0.16047 0.0
C2117 C 0.54939 1.00021 0.18601 0.0
C2118 C 0.53336 0.9849 0.18945 0.0
C2119 C 0.55903 1.00273 0.16313 0.0
C2120 C 0.52639 0.97284 0.16872 0.0
C2121 C 0.53579 0.97537 0.14574 0.0
H2122 H 0.98785 0.56771 0.13732 0.0
H2123 H 0.03949 0.58952 0.10609 0.0
H2124 H 0.04668 0.57426 0.1389 0.0
H2125 H 0.03939 0.55747 0.1794 0.0
H2126 H 0.98843 0.53698 0.21229 0.0
H2127 H 0.97962 0.54843 0.17546 0.0
C2128 C 1.00057 0.56888 0.13745 0.0
C2129 C 0.0132 0.57996 0.11959 0.0
C2130 C 1.00468 0.5602 0.15658 0.0
C2131 C 0.02966 0.58139 0.12004 0.0
C2132 C 0.03375 0.57257 0.13866 0.0
C2133 C 0.02618 0.55501 0.17797 0.0
C2134 C 0.0145 0.54629 0.19828 0.0
C2135 C 0.02151 0.56229 0.15742 0.0
C2136 C 0.99755 0.54353 0.19666 0.0
C2137 C 0.9926 0.55023 0.17579 0.0
H2138 H 0.44232 0.44823 0.11817 0.0
H2139 H 0.41469 0.40073 0.16185 0.0
H2140 H 0.42932 0.41606 0.20197 0.0
H2141 H 0.44837 0.4431 0.22511 0.0
H2142 H 0.47609 0.49091 0.18259 0.0
H2143 H 0.46342 0.47526 0.14127 0.0
C2144 C 0.43972 0.44121 0.13641 0.0
C2145 C 0.42724 0.4234 0.13709 0.0
C2146 C 0.44818 0.45014 0.15952 0.0
C2147 C 0.42394 0.41449 0.1609 0.0
C2148 C 0.43237 0.42322 0.18382 0.0
C2149 C 0.4517 0.45006 0.20673 0.0
C2150 C 0.46288 0.46811 0.20675 0.0
C2151 C 0.44422 0.44107 0.18342 0.0
C2152 C 0.46744 0.477 0.18291 0.0
C2153 C 0.46012 0.46807 0.1594 0.0
H2154 H 0.66141 0.76651 0.45892 0.0
H2155 H 0.71599 0.79142 0.44145 0.0
H2156 H 0.7224 0.81244 0.47672 0.0
H2157 H 0.71279 0.82198 0.51513 0.0
H2158 H 0.65861 0.79579 0.53484 0.0
H2159 H 0.65158 0.77732 0.49574 0.0
C2160 C 0.67466 0.77671 0.46263 0.0
C2161 C 0.68823 0.77734 0.4478 0.0
C2162 C 0.67827 0.78857 0.48324 0.0
C2163 C 0.70536 0.79052 0.4529 0.0
C2164 C 0.70903 0.80259 0.47296 0.0
C2165 C 0.69941 0.81256 0.51032 0.0
C2166 C 0.68616 0.81035 0.52737 0.0
C2167 C 0.69563 0.80153 0.48857 0.0
C2168 C 0.66891 0.79782 0.5216 0.0
C2169 C 0.66495 0.78718 0.49945 0.0
H2170 H 0.25146 0.89383 0.45692 0.0
H2171 H 0.23748 0.93371 0.46094 0.0
H2172 H 0.21745 0.91843 0.49643 0.0
H2173 H 0.20579 0.89516 0.52871 0.0
H2174 H 0.2204 0.85577 0.52611 0.0
H2175 H 0.23762 0.86896 0.48691 0.0
C2176 C 0.24382 0.89903 0.46527 0.0
C2177 C 0.24621 0.91506 0.45654 0.0
C2178 C 0.23231 0.89018 0.48579 0.0
C2179 C 0.23624 0.92163 0.46769 0.0
C2180 C 0.22466 0.91284 0.48786 0.0
C2181 C 0.21256 0.88933 0.51934 0.0
C2182 C 0.21194 0.87461 0.53044 0.0
C2183 C 0.2229 0.89732 0.49744 0.0
C2184 C 0.22056 0.86703 0.51787 0.0
C2185 C 0.23059 0.8747 0.49565 0.0
H2186 H 0.11617 0.34523 0.44316 0.0
H2187 H 0.06497 0.32058 0.47686 0.0
H2188 H 0.07602 0.31433 0.51644 0.0
H2189 H 0.09998 0.31632 0.54189 0.0
H2190 H 0.15158 0.34119 0.51007 0.0
H2191 H 0.14055 0.34645 0.46891 0.0
C2192 C 0.10746 0.33842 0.45915 0.0
C2193 C 0.08982 0.33362 0.45723 0.0
C2194 C 0.11393 0.33483 0.48204 0.0
C2195 C 0.07866 0.32478 0.47807 0.0
C2196 C 0.08493 0.32107 0.50064 0.0
C2197 C 0.10887 0.32302 0.52601 0.0
C2198 C 0.12661 0.3287 0.52911 0.0
C2199 C 0.10252 0.32618 0.50291 0.0
C2200 C 0.13788 0.33682 0.50811 0.0
C2201 C 0.13158 0.33988 0.48471 0.0
H2202 H 0.0987 0.32308 0.22371 0.0
H2203 H 0.10741 0.37486 0.21248 0.0
H2204 H 0.1258 0.37864 0.17503 0.0
H2205 H 0.13767 0.36653 0.14356 0.0
H2206 H 0.12857 0.31462 0.15404 0.0
H2207 H 0.11282 0.31194 0.19442 0.0
C2208 C 0.10486 0.33531 0.21338 0.0
C2209 C 0.10142 0.34856 0.22073 0.0
C2210 C 0.11551 0.33745 0.19185 0.0
C2211 C 0.10944 0.36427 0.20691 0.0
C2212 C 0.1201 0.36651 0.1856 0.0
C2213 C 0.13242 0.35471 0.15488 0.0
C2214 C 0.13419 0.34076 0.14571 0.0
C2215 C 0.12294 0.35307 0.17759 0.0
C2216 C 0.12754 0.32561 0.16076 0.0
C2217 C 0.11833 0.32399 0.18369 0.0
H2218 H 0.65312 0.76349 0.22654 0.0
H2219 H 0.70624 0.7773 0.21231 0.0
H2220 H 0.70729 0.79476 0.17492 0.0
H2221 H 0.69227 0.80405 0.144 0.0
H2222 H 0.63899 0.78944 0.15739 0.0
H2223 H 0.63896 0.77484 0.19796 0.0
C2224 C 0.66504 0.77057 0.21559 0.0
C2225 C 0.67951 0.76891 0.22208 0.0
C2226 C 0.66554 0.78057 0.19409 0.0
C2227 C 0.69478 0.77804 0.20742 0.0
C2228 C 0.69545 0.78814 0.18615 0.0
C2229 C 0.68087 0.79811 0.15633 0.0
C2230 C 0.66574 0.79799 0.14823 0.0
C2231 C 0.68081 0.78925 0.17903 0.0
C2232 C 0.65083 0.78988 0.16372 0.0
C2233 C 0.65078 0.7814 0.18667 0.0
H2234 H 0.24036 0.89605 0.24274 0.0
H2235 H 0.2901 0.92628 0.20574 0.0
H2236 H 0.27904 0.90863 0.16613 0.0
H2237 H 0.25526 0.88548 0.14157 0.0
H2238 H 0.20474 0.85591 0.1764 0.0
H2239 H 0.21619 0.87202 0.21769 0.0
C2240 C 0.24874 0.89864 0.22601 0.0
C2241 C 0.26597 0.91253 0.227 0.0
C2242 C 0.24219 0.88855 0.20306 0.0
C2243 C 0.27673 0.91583 0.20524 0.0
C2244 C 0.27045 0.9057 0.18267 0.0
C2245 C 0.24666 0.88264 0.1581 0.0
C2246 C 0.22909 0.86977 0.15576 0.0
C2247 C 0.25318 0.89221 0.18126 0.0
C2248 C 0.21831 0.86581 0.17768 0.0
C2249 C 0.22483 0.87509 0.20119 0.0
H2250 H 0.64436 0.89746 0.21503 0.0
H2251 H 0.6983 0.91426 0.229 0.0
H2252 H 0.69814 0.89668 0.19197 0.0
H2253 H 0.68347 0.87914 0.15275 0.0
H2254 H 0.62961 0.86267 0.13859 0.0
H2255 H 0.62885 0.87734 0.17867 0.0
C2256 C 0.65603 0.89716 0.21002 0.0
C2257 C 0.67136 0.90729 0.22447 0.0
C2258 C 0.65585 0.8871 0.18867 0.0
C2259 C 0.68633 0.90656 0.21814 0.0
C2260 C 0.68626 0.89656 0.19692 0.0
C2261 C 0.67145 0.87834 0.15886 0.0
C2262 C 0.65665 0.86993 0.14268 0.0
C2263 C 0.6712 0.88708 0.18169 0.0
C2264 C 0.6412 0.86919 0.15066 0.0
C2265 C 0.64078 0.87763 0.17349 0.0
H2266 H 0.12094 0.7694 0.24084 0.0
H2267 H 0.0789 0.77343 0.206 0.0
H2268 H 0.09695 0.78829 0.16833 0.0
H2269 H 0.12338 0.79705 0.14317 0.0
H2270 H 0.16484 0.79148 0.17673 0.0
H2271 H 0.14866 0.78105 0.21744 0.0
C2272 C 0.11587 0.77388 0.22527 0.0
C2273 C 0.09853 0.77012 0.22604 0.0
C2274 C 0.12625 0.78218 0.20345 0.0
C2275 C 0.0921 0.77589 0.20562 0.0
C2276 C 0.10243 0.78444 0.18413 0.0
C2277 C 0.12897 0.79378 0.15955 0.0
C2278 C 0.1452 0.79485 0.15679 0.0
C2279 C 0.11932 0.78716 0.18248 0.0
C2280 C 0.15243 0.79088 0.17833 0.0
C2281 C 0.14308 0.7847 0.20153 0.0
H2282 H 0.23532 0.34192 0.23308 0.0
H2283 H 0.26334 0.32155 0.19123 0.0
H2284 H 0.24781 0.32005 0.15107 0.0
H2285 H 0.22775 0.32615 0.12721 0.0
H2286 H 0.1998 0.34699 0.16768 0.0
H2287 H 0.21339 0.3462 0.20926 0.0
C2288 C 0.23784 0.33695 0.21523 0.0
C2289 C 0.25068 0.3321 0.21507 0.0
C2290 C 0.22886 0.33618 0.19204 0.0
C2291 C 0.25382 0.32572 0.19177 0.0
C2292 C 0.24487 0.32476 0.16882 0.0
C2293 C 0.22459 0.33047 0.14518 0.0
C2294 C 0.21304 0.33688 0.14443 0.0
C2295 C 0.23264 0.33026 0.16864 0.0
C2296 C 0.20871 0.34205 0.16785 0.0
C2297 C 0.21657 0.3417 0.19153 0.0
H2298 H 0.23554 0.34244 0.44287 0.0
H2299 H 0.25413 0.30899 0.47108 0.0
H2300 H 0.23594 0.30217 0.50958 0.0
H2301 H 0.21614 0.30686 0.5365 0.0
H2302 H 0.19719 0.34014 0.50963 0.0
H2303 H 0.21369 0.34547 0.46888 0.0
C2304 C 0.23544 0.33352 0.4573 0.0
C2305 C 0.24647 0.32651 0.4543 0.0
C2306 C 0.22485 0.32956 0.47953 0.0
C2307 C 0.24616 0.31495 0.47321 0.0
C2308 C 0.23566 0.31091 0.49515 0.0
C2309 C 0.21554 0.31519 0.5216 0.0
C2310 C 0.2057 0.32329 0.52606 0.0
C2311 C 0.2252 0.31836 0.49871 0.0
C2312 C 0.20473 0.3338 0.50653 0.0
C2313 C 0.21424 0.33693 0.48339 0.0
H2314 H 0.68027 0.90436 0.44182 0.0
H2315 H 0.68196 0.94699 0.48529 0.0
H2316 H 0.68611 0.93536 0.52568 0.0
H2317 H 0.69013 0.91398 0.54856 0.0
H2318 H 0.68442 0.8689 0.50741 0.0
H2319 H 0.6812 0.88085 0.46608 0.0
C2320 C 0.68124 0.911 0.46012 0.0
C2321 C 0.68116 0.92682 0.46015 0.0
C2322 C 0.68302 0.90389 0.4837 0.0
C2323 C 0.68258 0.93517 0.48425 0.0
C2324 C 0.68479 0.92844 0.50753 0.0
C2325 C 0.68761 0.90633 0.53084 0.0
C2326 C 0.68726 0.89034 0.53144 0.0
C2327 C 0.68514 0.91291 0.50744 0.0
C2328 C 0.68486 0.88127 0.50772 0.0
C2329 C 0.6829 0.88805 0.48406 0.0
H2330 H 0.11051 0.77957 0.44278 0.0
H2331 H 0.0855 0.72929 0.47946 0.0
H2332 H 0.10105 0.74228 0.52014 0.0
H2333 H 0.12005 0.76799 0.54623 0.0
H2334 H 0.14531 0.81844 0.51062 0.0
H2335 H 0.13181 0.80528 0.46826 0.0
C2336 C 0.10868 0.77143 0.45955 0.0
C2337 C 0.09661 0.75351 0.45817 0.0
C2338 C 0.11773 0.779 0.48301 0.0
C2339 C 0.09436 0.74317 0.48014 0.0
C2340 C 0.10334 0.75055 0.50339 0.0
C2341 C 0.12272 0.77606 0.52908 0.0
C2342 C 0.13344 0.79412 0.53143 0.0
C2343 C 0.11476 0.76846 0.50517 0.0
C2344 C 0.13707 0.80449 0.50914 0.0
C2345 C 0.12926 0.79697 0.48505 0.0
H2346 H 0.34992 0.11995 0.77334 0.0
H2347 H 0.30502 0.07593 0.80618 0.0
H2348 H 0.30596 0.09363 0.84357 0.0
H2349 H 0.32212 0.12033 0.86974 0.0
H2350 H 0.36785 0.16387 0.83774 0.0
H2351 H 0.36364 0.14794 0.79684 0.0
C2352 C 0.34025 0.11432 0.78858 0.0
C2353 C 0.32761 0.09662 0.7873 0.0
C2354 C 0.34097 0.12453 0.81009 0.0
C2355 C 0.31491 0.08952 0.80682 0.0
C2356 C 0.31548 0.09962 0.82822 0.0
C2357 C 0.33088 0.12647 0.85352 0.0
C2358 C 0.34538 0.14317 0.85688 0.0
C2359 C 0.32879 0.11697 0.83046 0.0
C2360 C 0.35653 0.15108 0.83564 0.0
C2361 C 0.35429 0.14186 0.81238 0.0
H2362 H 0.91856 0.22875 0.78989 0.0
H2363 H 0.89436 0.25953 0.77586 0.0
H2364 H 0.87472 0.24564 0.81242 0.0
H2365 H 0.86621 0.22667 0.85073 0.0
H2366 H 0.89013 0.19572 0.86506 0.0
H2367 H 0.90784 0.20742 0.82578 0.0
C2368 C 0.90888 0.23228 0.7948 0.0
C2369 C 0.90797 0.24522 0.78039 0.0
C2370 C 0.89757 0.22418 0.81582 0.0
C2371 C 0.89525 0.24956 0.78663 0.0
C2372 C 0.88407 0.24167 0.80758 0.0
C2373 C 0.87509 0.22229 0.84493 0.0
C2374 C 0.87695 0.21045 0.86072 0.0
C2375 C 0.88534 0.22922 0.82259 0.0
C2376 C 0.8884 0.20473 0.85304 0.0
C2377 C 0.89864 0.21156 0.83076 0.0
H2378 H 0.76967 0.65552 0.77168 0.0
H2379 H 0.77421 0.70305 0.80127 0.0
H2380 H 0.79132 0.70267 0.8385 0.0
H2381 H 0.80206 0.68716 0.865 0.0
H2382 H 0.79523 0.63824 0.83752 0.0
H2383 H 0.78279 0.64126 0.79657 0.0
C2384 C 0.77471 0.66595 0.78603 0.0
C2385 C 0.77054 0.6792 0.78392 0.0
C2386 C 0.78422 0.66544 0.80771 0.0
C2387 C 0.77703 0.69259 0.80273 0.0
C2388 C 0.78686 0.6924 0.82394 0.0
C2389 C 0.79804 0.67725 0.84991 0.0
C2390 C 0.79937 0.66239 0.85454 0.0
C2391 C 0.79008 0.67863 0.82702 0.0
C2392 C 0.79447 0.64987 0.83452 0.0
C2393 C 0.78711 0.65146 0.8112 0.0
H2394 H 0.77658 0.6694 0.57091 0.0
H2395 H 0.73036 0.6568 0.5264 0.0
H2396 H 0.74506 0.65749 0.48595 0.0
H2397 H 0.77139 0.66348 0.46295 0.0
H2398 H 0.81798 0.67641 0.50631 0.0
H2399 H 0.80268 0.67332 0.54764 0.0
C2400 C 0.76967 0.66656 0.55238 0.0
C2401 C 0.75247 0.6633 0.55164 0.0
C2402 C 0.77826 0.66704 0.52906 0.0
C2403 C 0.74371 0.6597 0.52747 0.0
C2404 C 0.75207 0.66001 0.50433 0.0
C2405 C 0.77817 0.66556 0.48149 0.0
C2406 C 0.79582 0.67044 0.48171 0.0
C2407 C 0.7694 0.664 0.50487 0.0
C2408 C 0.8044 0.67271 0.50576 0.0
C2409 C 0.79567 0.67103 0.52931 0.0
H2410 H 0.35459 0.11463 0.56395 0.0
H2411 H 0.30515 0.06903 0.54748 0.0
H2412 H 0.301 0.08327 0.50971 0.0
H2413 H 0.3122 0.10778 0.47978 0.0
H2414 H 0.36262 0.15262 0.49392 0.0
H2415 H 0.36522 0.13997 0.53483 0.0
C2416 C 0.34284 0.10792 0.55222 0.0
C2417 C 0.33029 0.09073 0.55829 0.0
C2418 C 0.34063 0.11612 0.53029 0.0
C2419 C 0.31515 0.08214 0.5429 0.0
C2420 C 0.31271 0.09031 0.52142 0.0
C2421 C 0.32375 0.11484 0.49186 0.0
C2422 C 0.33726 0.13105 0.48359 0.0
C2423 C 0.3255 0.10716 0.51467 0.0
C2424 C 0.35194 0.14019 0.49983 0.0
C2425 C 0.35354 0.13285 0.52309 0.0
H2426 H 0.91337 0.22731 0.56961 0.0
H2427 H 0.91956 0.273 0.53103 0.0
H2428 H 0.90407 0.25558 0.49251 0.0
H2429 H 0.89055 0.22783 0.46888 0.0
H2430 H 0.88714 0.18274 0.50594 0.0
H2431 H 0.89888 0.19923 0.54634 0.0
C2432 C 0.9111 0.23339 0.55288 0.0
C2433 C 0.91764 0.25141 0.55307 0.0
C2434 C 0.90253 0.22336 0.53062 0.0
C2435 C 0.9148 0.25918 0.53119 0.0
C2436 C 0.90589 0.24922 0.50924 0.0
C2437 C 0.89237 0.22156 0.48575 0.0
C2438 C 0.88806 0.20403 0.48406 0.0
C2439 C 0.9 0.23136 0.50856 0.0
C2440 C 0.89008 0.19609 0.50651 0.0
C2441 C 0.89706 0.2056 0.52962 0.0
H2442 H 0.35648 0.24842 0.56014 0.0
H2443 H 0.30295 0.23545 0.55377 0.0
H2444 H 0.2985 0.21586 0.51726 0.0
H2445 H 0.31036 0.20422 0.48504 0.0
H2446 H 0.36417 0.21811 0.49005 0.0
H2447 H 0.36774 0.23486 0.52991 0.0
C2448 C 0.34376 0.24109 0.55105 0.0
C2449 C 0.33013 0.24358 0.55945 0.0
C2450 C 0.34131 0.22989 0.52994 0.0
C2451 C 0.31376 0.23406 0.54733 0.0
C2452 C 0.31117 0.22276 0.52656 0.0
C2453 C 0.32283 0.21079 0.49501 0.0
C2454 C 0.33699 0.21002 0.48444 0.0
C2455 C 0.32494 0.22088 0.51735 0.0
C2456 C 0.35299 0.21834 0.49784 0.0
C2457 C 0.35511 0.22811 0.52048 0.0
H2458 H 0.78231 0.09143 0.56558 0.0
H2459 H 0.74158 0.10038 0.53829 0.0
H2460 H 0.75934 0.11662 0.50102 0.0
H2461 H 0.78558 0.12642 0.47456 0.0
H2462 H 0.82584 0.11651 0.5012 0.0
H2463 H 0.80934 0.10291 0.54062 0.0
C2464 C 0.77734 0.09693 0.55144 0.0
C2465 C 0.7606 0.09454 0.5545 0.0
C2466 C 0.78759 0.10619 0.53005 0.0
C2467 C 0.75445 0.10206 0.53637 0.0
C2468 C 0.76457 0.1113 0.51503 0.0
C2469 C 0.7908 0.12142 0.48913 0.0
C2470 C 0.8069 0.12244 0.48483 0.0
C2471 C 0.78105 0.11321 0.51146 0.0
C2472 C 0.8136 0.11612 0.50408 0.0
C2473 C 0.80407 0.10813 0.52651 0.0
H2474 H 0.89419 0.66813 0.56986 0.0
H2475 H 0.92175 0.6466 0.52956 0.0
H2476 H 0.90688 0.64546 0.48893 0.0
H2477 H 0.88821 0.65295 0.46394 0.0
H2478 H 0.86176 0.67607 0.50267 0.0
H2479 H 0.87388 0.67407 0.54492 0.0
C2480 C 0.89692 0.66318 0.55219 0.0
C2481 C 0.90916 0.65754 0.55282 0.0
C2482 C 0.88858 0.6629 0.52862 0.0
C2483 C 0.91228 0.65084 0.52982 0.0
C2484 C 0.90388 0.6503 0.50647 0.0
C2485 C 0.88505 0.65749 0.48168 0.0
C2486 C 0.87439 0.66493 0.48024 0.0
C2487 C 0.89232 0.65664 0.50555 0.0
C2488 C 0.86999 0.67035 0.50336 0.0
C2489 C 0.87702 0.66931 0.52742 0.0
H2490 H 0.91813 0.65127 0.80897 0.0
H2491 H 0.90139 0.68166 0.76516 0.0
H2492 H 0.88203 0.67917 0.80074 0.0
H2493 H 0.87031 0.66883 0.84531 0.0
H2494 H 0.88658 0.63737 0.88709 0.0
H2495 H 0.90514 0.63932 0.85095 0.0
C2496 C 0.91004 0.6571 0.80684 0.0
C2497 C 0.91135 0.66668 0.78433 0.0
C2498 C 0.89872 0.65536 0.82707 0.0
C2499 C 0.90096 0.67446 0.78242 0.0
C2500 C 0.88974 0.67292 0.80269 0.0
C2501 C 0.87778 0.66227 0.84623 0.0
C2502 C 0.87731 0.65322 0.86896 0.0
C2503 C 0.88857 0.66348 0.82524 0.0
C2504 C 0.88699 0.64469 0.86996 0.0
C2505 C 0.89761 0.64578 0.84932 0.0
H2506 H 0.34374 0.23894 0.77323 0.0
H2507 H 0.35546 0.28572 0.81535 0.0
H2508 H 0.35993 0.27376 0.85552 0.0
H2509 H 0.36046 0.25029 0.87862 0.0
H2510 H 0.34713 0.2025 0.83827 0.0
H2511 H 0.34394 0.21481 0.79715 0.0
C2512 C 0.34732 0.24648 0.79124 0.0
C2513 C 0.34916 0.26314 0.79142 0.0
C2514 C 0.34971 0.23942 0.81443 0.0
C2515 C 0.35373 0.27278 0.81484 0.0
C2516 C 0.35639 0.266 0.83775 0.0
C2517 C 0.35656 0.24238 0.86097 0.0
C2518 C 0.3537 0.22534 0.86168 0.0
C2519 C 0.35431 0.24933 0.83779 0.0
C2520 C 0.34937 0.21563 0.83831 0.0
C2521 C 0.34745 0.22263 0.81485 0.0
H2522 H 0.77988 0.09894 0.7861 0.0
H2523 H 0.73723 0.10852 0.79511 0.0
H2524 H 0.75174 0.12739 0.83266 0.0
H2525 H 0.77534 0.13929 0.8649 0.0
H2526 H 0.81736 0.12866 0.85761 0.0
H2527 H 0.80473 0.11275 0.81678 0.0
C2528 C 0.7739 0.10537 0.79606 0.0
C2529 C 0.75738 0.10213 0.78805 0.0
C2530 C 0.78227 0.11612 0.81782 0.0
C2531 C 0.74976 0.1105 0.80123 0.0
C2532 C 0.7581 0.12138 0.82259 0.0
C2533 C 0.78181 0.13361 0.85425 0.0
C2534 C 0.79717 0.13501 0.86444 0.0
C2535 C 0.77416 0.12397 0.83139 0.0
C2536 C 0.80559 0.12789 0.85014 0.0
C2537 C 0.79826 0.1186 0.82695 0.0
H2538 H 0.09856 0.37222 0.00147 0.0
H2539 H 0.05482 0.32462 0.029 0.0
H2540 H 0.0743 0.31606 0.04818 0.0
H2541 H 0.10349 0.3235 0.06218 0.0
H2542 H 0.14749 0.37168 0.03831 0.0
H2543 H 0.12832 0.37861 0.01268 0.0
C2544 C 0.09329 0.35994 0.01154 0.0
C2545 C 0.07513 0.34914 0.01365 0.0
C2546 C 0.10465 0.35521 0.02333 0.0
C2547 C 0.06862 0.33314 0.02651 0.0
C2548 C 0.07979 0.32825 0.03779 0.0
C2549 C 0.10887 0.33529 0.05073 0.0
C2550 C 0.12678 0.34702 0.0518 0.0
C2551 C 0.09776 0.33935 0.0369 0.0
C2552 C 0.13372 0.36239 0.03735 0.0
C2553 C 0.12274 0.3664 0.02299 0.0
H2554 H 0.65936 0.73512 0.01131 0.0
H2555 H 0.61215 0.70437 0.0543 0.0
H2556 H 0.61242 0.73063 0.06885 0.0
H2557 H 0.62836 0.76216 0.07481 0.0
H2558 H 0.67653 0.79315 0.03438 0.0
H2559 H 0.67325 0.76716 0.01246 0.0
C2560 C 0.64893 0.73419 0.02334 0.0
C2561 C 0.63593 0.71784 0.03212 0.0
C2562 C 0.64934 0.74943 0.03207 0.0
C2563 C 0.6225 0.71683 0.04775 0.0
C2564 C 0.62261 0.73183 0.056 0.0
C2565 C 0.63788 0.76325 0.06063 0.0
C2566 C 0.65274 0.77951 0.05643 0.0
C2567 C 0.6363 0.74819 0.0491 0.0
C2568 C 0.66492 0.78081 0.03786 0.0
C2569 C 0.66318 0.76589 0.02562 0.0
H2570 H 0.28605 0.90953 0.00903 0.0
H2571 H 0.27581 0.94878 0.03972 0.0
H2572 H 0.24838 0.92642 0.05728 0.0
H2573 H 0.22981 0.89624 0.07045 0.0
H2574 H 0.24176 0.85727 0.04464 0.0
H2575 H 0.2655 0.87877 0.01813 0.0
C2576 C 0.27779 0.91322 0.01943 0.0
C2577 C 0.28326 0.93092 0.02329 0.0
C2578 C 0.26222 0.90025 0.03043 0.0
C2579 C 0.27206 0.93535 0.0362 0.0
C2580 C 0.25635 0.92253 0.0465 0.0
C2581 C 0.23739 0.89238 0.05855 0.0
C2582 C 0.23419 0.87523 0.05993 0.0
C2583 C 0.25165 0.90501 0.04462 0.0
C2584 C 0.24386 0.87034 0.04397 0.0
C2585 C 0.25766 0.88272 0.0291 0.0
H2586 H 0.37415 0.09754 0.00183 0.0
H2587 H 0.38232 0.08006 0.92688 0.0
H2588 H 0.3795 0.1025 0.90503 0.0
H2589 H 0.37343 0.12604 0.90618 0.0
H2590 H 0.36208 0.14252 0.97921 0.0
H2591 H 0.36766 0.12172 0.0028 0.0
C2592 C 0.37526 0.09859 0.98072 0.0
C2593 C 0.37879 0.08715 0.96626 0.0
C2594 C 0.37303 0.11136 0.96786 0.0
C2595 C 0.38022 0.08888 0.93886 0.0
C2596 C 0.37841 0.10166 0.92616 0.0
C2597 C 0.372 0.12502 0.92729 0.0
C2598 C 0.36695 0.13553 0.94087 0.0
C2599 C 0.37466 0.1128 0.94039 0.0
C2600 C 0.36583 0.13449 0.96828 0.0
C2601 C 0.36892 0.12252 0.9817 0.0
H2602 H 0.90551 0.29245 0.9729 0.0
H2603 H 0.93564 0.2731 0.01123 0.0
H2604 H 0.91422 0.24354 -0.00162 0.0
H2605 H 0.88955 0.22388 0.97016 0.0
H2606 H 0.86082 0.24358 0.92897 0.0
H2607 H 0.87882 0.27216 0.94918 0.0
C2608 C 0.9073 0.28175 0.97867 0.0
C2609 C 0.92231 0.28508 0.99273 0.0
C2610 C 0.89515 0.26478 0.9706 0.0
C2611 C 0.92421 0.27098 0.00052 0.0
C2612 C 0.91201 0.25404 0.993 0.0
C2613 C 0.88685 0.23428 0.96647 0.0
C2614 C 0.87385 0.23168 0.94832 0.0
C2615 C 0.89775 0.25086 0.97727 0.0
C2616 C 0.87068 0.24532 0.94311 0.0
C2617 C 0.88109 0.26168 0.95443 0.0
H2618 H 0.73947 0.66789 0.98286 0.0
H2619 H 0.71734 0.61335 -0.0006 0.0
H2620 H 0.74309 0.61401 0.98194 0.0
H2621 H 0.77038 0.62932 0.95714 0.0
H2622 H 0.79262 0.68392 0.94193 0.0
H2623 H 0.76868 0.68411 0.96474 0.0
C2624 C 0.74037 0.65621 0.98341 0.0
C2625 C 0.72617 0.64051 0.99202 0.0
C2626 C 0.75533 0.65669 0.9736 0.0
C2627 C 0.72774 0.62554 0.99217 0.0
C2628 C 0.74257 0.62591 0.98238 0.0
C2629 C 0.77028 0.64137 0.95964 0.0
C2630 C 0.78318 0.65656 0.9477 0.0
C2631 C 0.75624 0.64131 0.97234 0.0
C2632 C 0.78277 0.67204 0.95083 0.0
C2633 C 0.76902 0.67213 0.96369 0.0
H2634 H 0.93081 0.66212 0.00379 0.0
H2635 H 0.9044 0.60697 0.98979 0.0
H2636 H 0.87821 0.60732 0.97623 0.0
H2637 H 0.86508 0.62408 0.96043 0.0
H2638 H 0.89269 0.67962 0.9691 0.0
H2639 H 0.91584 0.67847 0.99351 0.0
C2640 C 0.91912 0.65016 -0.00153 0.0
C2641 C 0.91946 0.63456 -0.00241 0.0
C2642 C 0.90433 0.6506 0.98973 0.0
C2643 C 0.90437 0.61912 0.99042 0.0
C2644 C 0.88944 0.61933 0.98265 0.0
C2645 C 0.87577 0.6358 0.96884 0.0
C2646 C 0.87712 0.65187 0.96342 0.0
C2647 C 0.88951 0.63509 0.98118 0.0
C2648 C 0.89127 0.6671 0.97356 0.0
C2649 C 0.90463 0.66644 0.98708 0.0
H2650 H 0.34035 0.27231 0.99195 0.0
H2651 H 0.39554 0.29576 0.00476 0.0
H2652 H 0.39453 0.26922 0.98986 0.0
H2653 H 0.3789 0.24153 0.96593 0.0
H2654 H 0.32401 0.21852 0.95173 0.0
H2655 H 0.32379 0.2423 0.97551 0.0
C2656 C 0.35208 0.27147 0.99224 0.0
C2657 C 0.36807 0.2862 -0.00114 0.0
C2658 C 0.35144 0.25617 0.98342 0.0
C2659 C 0.38313 0.28481 -0.00097 0.0
C2660 C 0.38256 0.26959 0.99065 0.0
C2661 C 0.36677 0.24134 0.96911 0.0
C2662 C 0.3515 0.22836 0.95707 0.0
C2663 C 0.36692 0.25546 0.98176 0.0
C2664 C 0.33589 0.22838 0.96093 0.0
C2665 C 0.33583 0.2421 0.9742 0.0
H2666 H 0.72244 0.10202 0.98891 0.0
H2667 H 0.73611 0.06197 0.99427 0.0
H2668 H 0.76579 0.08263 0.98175 0.0
H2669 H 0.78657 0.11077 0.96263 0.0
H2670 H 0.77239 0.15011 0.95387 0.0
H2671 H 0.74438 0.13125 0.97461 0.0
C2672 C 0.73195 0.09785 0.98755 0.0
C2673 C 0.72693 0.08038 0.99226 0.0
C2674 C 0.74897 0.10973 0.97972 0.0
C2675 C 0.73955 0.07532 0.99093 0.0
C2676 C 0.75655 0.08711 0.98357 0.0
C2677 C 0.77758 0.1154 0.9663 0.0
C2678 C 0.78154 0.13184 0.95728 0.0
C2679 C 0.76126 0.10419 0.97714 0.0
C2680 C 0.76967 0.13762 0.96125 0.0
C2681 C 0.75359 0.12674 0.97274 0.0
H2682 H 0.66155 0.93163 0.00925 0.0
H2683 H 0.60646 0.90395 0.0242 0.0
H2684 H 0.60832 0.87914 0.03975 0.0
H2685 H 0.62627 0.867 0.05492 0.0
H2686 H 0.68103 0.89412 0.03896 0.0
H2687 H 0.67848 0.91709 0.01687 0.0
C2688 C 0.64982 0.92004 0.01517 0.0
C2689 C 0.63397 0.92 0.01624 0.0
C2690 C 0.65091 0.90562 0.02384 0.0
C2691 C 0.61898 0.90471 0.02406 0.0
C2692 C 0.61998 0.8904 0.03277 0.0
C2693 C 0.63749 0.87765 0.04574 0.0
C2694 C 0.6538 0.87892 0.04852 0.0
C2695 C 0.63597 0.89096 0.03362 0.0
C2696 C 0.66831 0.89279 0.03677 0.0
C2697 C 0.66689 0.90604 0.02449 0.0
H2698 H 0.10307 0.71938 0.01984 0.0
H2699 H 0.06457 0.73369 0.03823 0.0
H2700 H 0.0871 0.76154 0.05524 0.0
H2701 H 0.11706 0.78024 0.07018 0.0
H2702 H 0.15527 0.76505 0.05551 0.0
H2703 H 0.13371 0.73948 0.03133 0.0
C2704 C 0.0996 0.72862 0.02745 0.0
C2705 C 0.08204 0.72427 0.0279 0.0
C2706 C 0.11263 0.74453 0.03793 0.0
C2707 C 0.07791 0.73662 0.03734 0.0
C2708 C 0.09081 0.75256 0.04731 0.0
C2709 C 0.12073 0.77146 0.06134 0.0
C2710 C 0.13771 0.77447 0.06495 0.0
C2711 C 0.10811 0.75642 0.04842 0.0
C2712 C 0.14235 0.76314 0.05295 0.0
C2713 C 0.12995 0.74837 0.0394 0.0
H2714 H 0.27322 0.34983 0.00722 0.0
H2715 H 0.30118 0.40049 0.04353 0.0
H2716 H 0.27403 0.39764 0.05897 0.0
H2717 H 0.24312 0.37876 0.06849 0.0
H2718 H 0.21505 0.32802 0.03298 0.0
H2719 H 0.24125 0.33315 0.00998 0.0
C2720 C 0.27335 0.36046 0.01785 0.0
C2721 C 0.2893 0.37515 0.02482 0.0
C2722 C 0.25762 0.35871 0.02683 0.0
C2723 C 0.28916 0.38881 0.03858 0.0
C2724 C 0.27362 0.38724 0.04732 0.0
C2725 C 0.24264 0.36913 0.05491 0.0
C2726 C 0.22727 0.35304 0.05245 0.0
C2727 C 0.25787 0.37196 0.04251 0.0
C2728 C 0.22672 0.34057 0.03495 0.0
C2729 C 0.24178 0.34341 0.02213 0.0
H2730 H 0.77483 0.72653 0.36615 0.0
H2731 H 0.7418 0.67607 0.33145 0.0
H2732 H 0.76197 0.66666 0.34529 0.0
H2733 H 0.7863 0.67111 0.37361 0.0
H2734 H 0.81776 0.72052 0.41169 0.0
H2735 H 0.80116 0.73209 0.39003 0.0
C2736 C 0.77212 0.71352 0.3614 0.0
C2737 C 0.75667 0.70199 0.34806 0.0
C2738 C 0.78354 0.70799 0.37012 0.0
C2739 C 0.75359 0.6853 0.34157 0.0
C2740 C 0.76508 0.67983 0.34966 0.0
C2741 C 0.7899 0.6846 0.37626 0.0
C2742 C 0.80328 0.69505 0.39391 0.0
C2743 C 0.77976 0.69085 0.36474 0.0
C2744 C 0.80763 0.71238 0.39786 0.0
C2745 C 0.798 0.71889 0.38575 0.0
H2746 H 0.30394 0.0598 0.35013 0.0
H2747 H 0.35615 0.07073 0.36632 0.0
H2748 H 0.36434 0.09992 0.38037 0.0
H2749 H 0.35577 0.12086 0.39433 0.0
H2750 H 0.3032 0.1094 0.38272 0.0
H2751 H 0.29605 0.08209 0.36046 0.0
C2752 C 0.31713 0.06858 0.35661 0.0
C2753 C 0.32934 0.06289 0.3572 0.0
C2754 C 0.3217 0.08534 0.36551 0.0
C2755 C 0.34647 0.07466 0.36523 0.0
C2756 C 0.35118 0.0914 0.37352 0.0
C2757 C 0.34294 0.11264 0.38598 0.0
C2758 C 0.33008 0.11714 0.3896 0.0
C2759 C 0.3388 0.09669 0.37445 0.0
C2760 C 0.31335 0.10628 0.37954 0.0
C2761 C 0.30924 0.09058 0.36719 0.0
H2762 H 0.94324 0.25694 0.34263 0.0
H2763 H 0.97716 0.23936 0.37215 0.0
H2764 H 0.9523 0.21336 0.3898 0.0
H2765 H 0.92166 0.19805 0.40251 0.0
H2766 H 0.8881 0.21696 0.3769 0.0
H2767 H 0.91182 0.23976 0.35149 0.0
C2768 C 0.94507 0.24716 0.35235 0.0
C2769 C 0.96194 0.25002 0.35626 0.0
C2770 C 0.93075 0.23252 0.36319 0.0
C2771 C 0.96426 0.23743 0.36914 0.0
C2772 C 0.95007 0.2226 0.37923 0.0
C2773 C 0.91946 0.2068 0.39052 0.0
C2774 C 0.90321 0.20576 0.39104 0.0
C2775 C 0.93335 0.22031 0.37714 0.0
C2776 C 0.90048 0.21741 0.37624 0.0
C2777 C 0.91408 0.23053 0.36202 0.0
H2778 H 0.04856 0.435 0.33774 0.0
H2779 H 0.99794 0.39654 0.30874 0.0
H2780 H 0.99329 0.41926 0.29164 0.0
H2781 H 1.00543 0.44937 0.27805 0.0
H2782 H 0.05728 0.48758 0.30197 0.0
H2783 H 0.05941 0.46588 0.32839 0.0
C2784 C 0.03647 0.43157 0.32782 0.0
C2785 C 0.02375 0.41396 0.32434 0.0
C2786 C 0.03408 0.44474 0.31703 0.0
C2787 C 0.00797 0.40988 0.31202 0.0
C2788 C 1.00531 0.42291 0.30197 0.0
C2789 C 0.01703 0.45303 0.28961 0.0
C2790 C 0.03126 0.46997 0.28773 0.0
C2791 C 0.01853 0.44029 0.30345 0.0
C2792 C 0.04611 0.47465 0.3031 0.0
C2793 C 0.04743 0.46216 0.31788 0.0
H2794 H 0.58049 0.6236 0.33249 0.0
H2795 H 0.6222 0.61293 0.31982 0.0
H2796 H 0.60153 0.58372 0.30519 0.0
H2797 H 0.57224 0.56249 0.29048 0.0
H2798 H 0.53055 0.57328 0.29944 0.0
H2799 H 0.55042 0.60102 0.32116 0.0
C2800 C 0.58505 0.61486 0.32666 0.0
C2801 C 0.60297 0.6206 0.32728 0.0
C2802 C 0.57305 0.59806 0.31756 0.0
C2803 C 0.60855 0.60893 0.32001 0.0
C2804 C 0.59672 0.59219 0.31138 0.0
C2805 C 0.56746 0.57072 0.29799 0.0
C2806 C 0.55003 0.5659 0.2938 0.0
C2807 C 0.57904 0.58678 0.30946 0.0
C2808 C 0.5439 0.57669 0.30297 0.0
C2809 C 0.5553 0.59261 0.31505 0.0
H2810 H 0.39101 0.95239 0.34329 0.0
H2811 H 0.41458 0.00815 0.34674 0.0
H2812 H 0.44124 0.01134 0.32851 0.0
H2813 H 0.45548 0.9982 0.30377 0.0
H2814 H 0.43214 0.94261 0.3009 0.0
H2815 H 0.40814 0.93945 0.3279 0.0
C2816 C 0.40213 0.96526 0.34098 0.0
C2817 C 0.40047 0.97999 0.34554 0.0
C2818 C 0.41753 0.96704 0.33056 0.0
C2819 C 0.41517 0.99655 0.34242 0.0
C2820 C 0.43051 0.99841 0.33215 0.0
C2821 C 0.44553 0.98545 0.31012 0.0
C2822 C 0.44548 0.97066 0.30033 0.0
C2823 C 0.43152 0.98375 0.32495 0.0
C2824 C 0.4325 0.95418 0.30843 0.0
C2825 C 0.41863 0.95237 0.3235 0.0
H2826 H 0.57911 0.95448 0.31795 0.0
H2827 H 0.61252 0.01014 0.31657 0.0
H2828 H 0.58857 0.01341 0.30034 0.0
H2829 H 0.55917 1.00025 0.28144 0.0
H2830 H 0.52564 0.94479 0.28371 0.0
H2831 H 0.54837 0.94174 0.30585 0.0
C2832 C 0.58112 0.96739 0.31484 0.0
C2833 C 0.59784 0.982 0.31791 0.0
C2834 C 0.5672 0.96923 0.30573 0.0
C2835 C 0.60002 0.99858 0.31357 0.0
C2836 C 0.58627 1.0005 0.30447 0.0
C2837 C 0.55672 0.98756 0.28746 0.0
C2838 C 0.54082 0.97277 0.28088 0.0
C2839 C 0.56997 0.98589 0.29968 0.0
C2840 C 0.53773 0.95638 0.28879 0.0
C2841 C 0.55081 0.95462 0.30114 0.0
H2842 H 0.05621 0.62827 0.31616 0.0
H2843 H 1.00091 0.6074 0.32225 0.0
H2844 H 0.9958 0.57881 0.30956 0.0
H2845 H 0.00687 0.5607 0.2912 0.0
H2846 H 0.06205 0.58156 0.28495 0.0
H2847 H 0.06737 0.60887 0.30457 0.0
C2848 C 0.04305 0.61742 0.31541 0.0
C2849 C 0.02897 0.62018 0.31954 0.0
C2850 C 0.04016 0.60091 0.30822 0.0
C2851 C 0.01201 0.60586 0.31834 0.0
C2852 C 0.00905 0.58942 0.3113 0.0
C2853 C 0.02006 0.57109 0.29484 0.0
C2854 C 0.03403 0.56917 0.28647 0.0
C2855 C 0.023 0.58694 0.30534 0.0
C2856 C 0.05107 0.58265 0.29141 0.0
C2857 C 0.05411 0.59838 0.30227 0.0
H2858 H 0.38618 0.43571 0.32045 0.0
H2859 H 0.40802 0.40459 0.34615 0.0
H2860 H 0.43706 0.42793 0.33521 0.0
H2861 H 0.45542 0.45505 0.31163 0.0
H2862 H 0.43332 0.48525 0.28334 0.0
H2863 H 0.4054 0.46486 0.30291 0.0
C2864 C 0.39734 0.43422 0.32433 0.0
C2865 C 0.39488 0.4183 0.33367 0.0
C2866 C 0.41401 0.44762 0.31758 0.0
C2867 C 0.4095 0.41656 0.33842 0.0
C2868 C 0.42614 0.42993 0.33228 0.0
C2869 C 0.44468 0.45753 0.31085 0.0
C2870 C 0.4464 0.47169 0.29643 0.0
C2871 C 0.42847 0.44525 0.32094 0.0
C2872 C 0.4323 0.47457 0.29478 0.0
C2873 C 0.41629 0.46276 0.3056 0.0
H2874 H 0.29523 0.242 0.35837 0.0
H2875 H 0.34934 0.27892 0.34554 0.0
H2876 H 0.35722 0.25768 0.3597 0.0
H2877 H 0.34922 0.23032 0.38212 0.0
H2878 H 0.29557 0.1945 0.39877 0.0
H2879 H 0.28697 0.21338 0.37654 0.0
C2880 C 0.30874 0.24537 0.3585 0.0
C2881 C 0.32165 0.26215 0.35112 0.0
C2882 C 0.31326 0.23322 0.36738 0.0
C2883 C 0.33907 0.26612 0.3509 0.0
C2884 C 0.34363 0.25399 0.3592 0.0
C2885 C 0.33561 0.22639 0.37989 0.0
C2886 C 0.32299 0.21098 0.39156 0.0
C2887 C 0.3309 0.23771 0.36823 0.0
C2888 C 0.30542 0.20618 0.38941 0.0
C2889 C 0.30056 0.21708 0.37704 0.0
H2890 H 0.74966 0.07376 0.34183 0.0
H2891 H 0.77446 0.04285 0.34849 0.0
H2892 H 0.80006 0.06742 0.3676 0.0
H2893 H 0.81357 0.09608 0.38895 0.0
H2894 H 0.78752 0.12576 0.38709 0.0
H2895 H 0.76436 0.10345 0.35969 0.0
C2896 C 0.76068 0.07238 0.34733 0.0
C2897 C 0.75991 0.05629 0.34386 0.0
C2898 C 0.77519 0.08641 0.35937 0.0
C2899 C 0.77458 0.05501 0.35057 0.0
C2900 C 0.78925 0.06906 0.3618 0.0
C2901 C 0.80311 0.09788 0.38171 0.0
C2902 C 0.80228 0.11256 0.38963 0.0
C2903 C 0.78947 0.08462 0.3671 0.0
C2904 C 0.78847 0.11463 0.38084 0.0
C2905 C 0.77517 0.1018 0.36545 0.0
H2906 H 0.94835 0.71303 0.35 0.0
H2907 H 0.94029 0.66119 0.3573 0.0
H2908 H 0.91097 0.65083 0.37248 0.0
H2909 H 0.88908 0.65707 0.3896 0.0
H2910 H 0.89743 0.70896 0.38638 0.0
H2911 H 0.92502 0.71874 0.36358 0.0
C2912 C 0.94015 0.69946 0.35478 0.0
C2913 C 0.94669 0.68798 0.35253 0.0
C2914 C 0.9233 0.69359 0.36429 0.0
C2915 C 0.93569 0.67035 0.3584 0.0
C2916 C 0.91888 0.66439 0.36735 0.0
C2917 C 0.89671 0.67039 0.38305 0.0
C2918 C 0.89127 0.68228 0.3892 0.0
C2919 C 0.91275 0.67595 0.37104 0.0
C2920 C 0.90131 0.69958 0.38131 0.0
C2921 C 0.91715 0.70517 0.36863 0.0
H2922 H 0.41427 0.01948 0.67828 0.0
H2923 H 0.42873 0.06295 0.73042 0.0
H2924 H 0.45321 0.06057 0.74673 0.0
H2925 H 0.46808 0.04382 0.75043 0.0
H2926 H 0.45336 0.99978 0.69972 0.0
H2927 H 0.43194 0.00511 0.67783 0.0
C2928 C 0.423 0.02867 0.69278 0.0
C2929 C 0.41942 0.04115 0.7035 0.0
C2930 C 0.43706 0.02715 0.70228 0.0
C2931 C 0.4309 0.05294 0.72231 0.0
C2932 C 0.44497 0.05166 0.73156 0.0
C2933 C 0.46049 0.03569 0.7341 0.0
C2934 C 0.4622 0.02138 0.72678 0.0
C2935 C 0.44783 0.03847 0.72233 0.0
C2936 C 0.45237 0.01095 0.70556 0.0
C2937 C 0.43995 0.01386 0.69331 0.0
H2938 H 0.99897 0.40543 0.67837 0.0
H2939 H 0.94801 0.37635 0.71222 0.0
H2940 H 0.94993 0.40316 0.72784 0.0
H2941 H 0.96768 0.43427 0.73728 0.0
H2942 H 0.01887 0.46351 0.7047 0.0
H2943 H 0.01501 0.43742 0.68226 0.0
C2944 C 0.98811 0.40499 0.6886 0.0
C2945 C 0.97353 0.38883 0.69463 0.0
C2946 C 0.98934 0.42052 0.69772 0.0
C2947 C 0.95959 0.38854 0.70793 0.0
C2948 C 0.96062 0.40388 0.71676 0.0
C2949 C 0.97776 0.435 0.7246 0.0
C2950 C 0.99355 0.45072 0.72271 0.0
C2951 C 0.97567 0.41987 0.71257 0.0
C2952 C 0.00655 0.45157 0.70627 0.0
C2953 C 1.00443 0.4366 0.69375 0.0
H2954 H 0.60537 0.60134 0.69697 0.0
H2955 H 0.63216 0.57226 0.69862 0.0
H2956 H 0.60568 0.54649 0.71296 0.0
H2957 H 0.57628 0.53365 0.73133 0.0
H2958 H 0.55009 0.56328 0.7318 0.0
H2959 H 0.57478 0.58728 0.70996 0.0
C2960 C 0.60534 0.5893 0.70022 0.0
C2961 C 0.62077 0.58878 0.6971 0.0
C2962 C 0.59015 0.57462 0.70887 0.0
C2963 C 0.62046 0.57301 0.70086 0.0
C2964 C 0.60534 0.55829 0.7092 0.0
C2965 C 0.57575 0.54512 0.72574 0.0
C2966 C 0.56143 0.54674 0.73307 0.0
C2967 C 0.59026 0.5591 0.71406 0.0
C2968 C 0.561 0.56177 0.72622 0.0
C2969 C 0.57516 0.57554 0.71399 0.0
H2970 H 0.71974 0.76849 0.65697 0.0
H2971 H 0.66497 0.73179 0.64882 0.0
H2972 H 0.65995 0.75477 0.63338 0.0
H2973 H 0.67162 0.78437 0.61689 0.0
H2974 H 0.72631 0.82101 0.62445 0.0
H2975 H 0.73071 0.79921 0.64657 0.0
C2976 C 0.70663 0.76556 0.65245 0.0
C2977 C 0.69283 0.7483 0.65349 0.0
C2978 C 0.7038 0.77888 0.64357 0.0
C2979 C 0.67594 0.74483 0.64746 0.0
C2980 C 0.67302 0.758 0.6388 0.0
C2981 C 0.68442 0.78768 0.624 0.0
C2982 C 0.69863 0.80421 0.61887 0.0
C2983 C 0.68693 0.77493 0.63595 0.0
C2984 C 0.71513 0.80842 0.62833 0.0
C2985 C 0.71769 0.79587 0.64066 0.0
H2986 H 0.26129 0.93652 0.67344 0.0
H2987 H 0.24391 0.96604 0.62882 0.0
H2988 H 0.21963 0.93931 0.61133 0.0
H2989 H 0.206 0.90803 0.60373 0.0
H2990 H 0.22414 0.87838 0.64606 0.0
H2991 H 0.24491 0.90446 0.67028 0.0
C2992 C 0.25194 0.93705 0.66036 0.0
C2993 C 0.25458 0.95323 0.65202 0.0
C2994 C 0.23811 0.92157 0.65 0.0
C2995 C 0.24237 0.95374 0.63505 0.0
C2996 C 0.22845 0.93847 0.62513 0.0
C2997 C 0.2142 0.90722 0.61879 0.0
C2998 C 0.21368 0.89138 0.62294 0.0
C2999 C 0.22657 0.92237 0.63172 0.0
C3000 C 0.22423 0.89041 0.64261 0.0
C3001 C 0.23629 0.90539 0.65618 0.0
H3002 H 0.07312 0.33529 0.65832 0.0
H3003 H 0.04945 0.27979 0.66688 0.0
H3004 H 0.0759 0.28108 0.65133 0.0
H3005 H 0.10409 0.29743 0.62923 0.0
H3006 H 0.12765 0.35281 0.62122 0.0
H3007 H 0.10324 0.3522 0.6439 0.0
C3008 C 0.07381 0.32349 0.65761 0.0
C3009 C 0.05901 0.3074 0.66324 0.0
C3010 C 0.08915 0.32432 0.64885 0.0
C3011 C 0.06035 0.29231 0.66187 0.0
C3012 C 0.07556 0.29304 0.65319 0.0
C3013 C 0.10421 0.30943 0.63347 0.0
C3014 C 0.1176 0.32514 0.62352 0.0
C3015 C 0.08984 0.30889 0.64576 0.0
C3016 C 0.11747 0.34058 0.62876 0.0
C3017 C 0.10342 0.34019 0.64143 0.0
H3018 H 0.24708 0.30337 0.6717 0.0
H3019 H 0.28668 0.35308 0.64298 0.0
H3020 H 0.2645 0.3585 0.62512 0.0
H3021 H 0.23435 0.34722 0.61129 0.0
H3022 H 0.19493 0.29635 0.63586 0.0
H3023 H 0.21636 0.29351 0.66213 0.0
C3024 C 0.25087 0.31546 0.66171 0.0
C3025 C 0.26861 0.32766 0.65845 0.0
C3026 C 0.23802 0.31829 0.65063 0.0
C3027 C 0.2732 0.34345 0.64601 0.0
C3028 C 0.2605 0.34653 0.63554 0.0
C3029 C 0.23039 0.33566 0.62287 0.0
C3030 C 0.21312 0.32192 0.6213 0.0
C3031 C 0.24293 0.33377 0.63686 0.0
C3032 C 0.2081 0.30716 0.63676 0.0
C3033 C 0.22042 0.30542 0.6515 0.0
H3034 H 0.67821 0.93984 0.66207 0.0
H3035 H 0.73395 0.96509 0.66945 0.0
H3036 H 0.73322 0.93862 0.65494 0.0
H3037 H 0.7173 0.91028 0.63281 0.0
H3038 H 0.66175 0.88533 0.62445 0.0
H3039 H 0.66176 0.90936 0.64781 0.0
C3040 C 0.69017 0.93944 0.66131 0.0
C3041 C 0.70615 0.95464 0.66623 0.0
C3042 C 0.68968 0.92416 0.65278 0.0
C3043 C 0.7215 0.95378 0.66502 0.0
C3044 C 0.72109 0.93859 0.65687 0.0
C3045 C 0.70513 0.90975 0.63716 0.0
C3046 C 0.68956 0.89613 0.62681 0.0
C3047 C 0.70534 0.92395 0.64964 0.0
C3048 C 0.67389 0.89571 0.63225 0.0
C3049 C 0.67393 0.90955 0.6453 0.0
H3050 H 0.07156 0.74691 0.67145 0.0
H3051 H 0.04292 0.76557 0.62725 0.0
H3052 H 0.06995 0.78983 0.61131 0.0
H3053 H 0.10116 0.8028 0.60425 0.0
H3054 H 0.12997 0.78343 0.64606 0.0
H3055 H 0.10369 0.76289 0.66942 0.0
C3056 C 0.0713 0.75655 0.65888 0.0
C3057 C 0.05527 0.75429 0.65013 0.0
C3058 C 0.08696 0.77035 0.64933 0.0
C3059 C 0.0551 0.76686 0.63381 0.0
C3060 C 0.07055 0.78075 0.62474 0.0
C3061 C 0.10176 0.79444 0.61911 0.0
C3062 C 0.1174 0.79451 0.62332 0.0
C3063 C 0.08649 0.78222 0.63153 0.0
C3064 C 0.11809 0.78369 0.64262 0.0
C3065 C 0.103 0.77176 0.65568 0.0
H3066 H 0.95954 0.57657 0.70007 0.0
H3067 H 0.00957 0.60644 0.66373 0.0
H3068 H 0.01726 0.58477 0.67654 0.0
H3069 H 0.01154 0.55989 0.70412 0.0
H3070 H 0.96219 0.53095 0.74221 0.0
H3071 H 0.95213 0.54917 0.72175 0.0
C3072 C 0.97194 0.57812 0.6943 0.0
C3073 C 0.98408 0.59332 0.68139 0.0
C3074 C 0.97636 0.56567 0.70197 0.0
C3075 C 1.00014 0.59511 0.67425 0.0
C3076 C 1.00452 0.58266 0.68144 0.0
C3077 C 0.99832 0.55713 0.7069 0.0
C3078 C 0.9875 0.54401 0.7243 0.0
C3079 C 0.99299 0.56822 0.69612 0.0
C3080 C 0.97058 0.5408 0.72849 0.0
C3081 C 0.96496 0.5514 0.71713 0.0
H3082 H 0.41377 0.40963 0.67865 0.0
H3083 H 0.44674 0.38754 0.66712 0.0
H3084 H 0.47148 0.41388 0.68466 0.0
H3085 H 0.48205 0.44047 0.71118 0.0
H3086 H 0.44881 0.462 0.72371 0.0
H3087 H 0.42613 0.43904 0.69673 0.0
C3088 C 0.42646 0.41074 0.67908 0.0
C3089 C 0.42822 0.39637 0.67222 0.0
C3090 C 0.44064 0.4259 0.68941 0.0
C3091 C 0.44485 0.39816 0.67304 0.0
C3092 C 0.45905 0.41327 0.68295 0.0
C3093 C 0.47016 0.44058 0.70692 0.0
C3094 C 0.46703 0.45281 0.71944 0.0
C3095 C 0.4569 0.42688 0.69236 0.0
C3096 C 0.45148 0.45271 0.71415 0.0
C3097 C 0.43843 0.43944 0.69905 0.0
H3098 H 0.6226 0.05408 0.68544 0.0
H3099 H 0.6031 0.99964 0.67088 0.0
H3100 H 0.57401 0.99308 0.68351 0.0
H3101 H 0.55548 1.00228 0.706 0.0
H3102 H 0.57565 0.05639 0.72358 0.0
H3103 H 0.60296 0.06372 0.70209 0.0
C3104 C 0.61192 0.04081 0.68471 0.0
C3105 C 0.61507 0.02735 0.67764 0.0
C3106 C 0.59532 0.03709 0.6926 0.0
C3107 C 0.60104 0.01026 0.67624 0.0
C3108 C 0.58441 0.00647 0.68363 0.0
C3109 C 0.56562 0.01572 0.7041 0.0
C3110 C 0.5636 0.02882 0.7161 0.0
C3111 C 0.58155 0.0197 0.69278 0.0
C3112 C 0.57693 0.04617 0.71416 0.0
C3113 C 0.59259 0.05031 0.70219 0.0
loop_
_geom_bond_atom_site_label_1
_geom_bond_atom_site_label_2
_geom_bond_distance
_geom_bond_site_symmetry_2
_ccdc_geom_bond_type
Li0 N17 1.990 . S
Li0 O60 1.956 . S
Li0 O61 1.970 1_654 S
Li0 O62 1.961 . S
Li1 N25 1.990 . S
Li1 O60 1.970 1_455 S
Li1 O61 1.956 1_554 S
Li1 O63 1.961 . S
Li2 N47 1.990 . S
Li2 O60 1.961 . S
Li2 O62 1.956 . S
Li2 O63 1.970 1_655 S
Li3 N53 1.990 . S
Li3 O61 1.961 . S
Li3 O62 1.970 1_456 S
Li3 O63 1.956 1_556 S
C4 C6 1.348 1_655 S
C4 C7 1.356 . S
C4 O60 1.325 . S
N5 C8 1.314 . S
N5 C9 1.279 . S
C6 C4 1.348 1_455 S
C6 C8 1.353 1_455 S
C6 H64 0.929 . S
C7 C4 1.356 . S
C7 C9 1.358 . S
C7 H65 0.930 . S
C8 N5 1.314 . S
C8 C6 1.353 1_655 S
C8 H66 0.930 1_655 S
C9 N5 1.279 . S
C9 C7 1.358 . S
C9 H67 0.930 . S
C10 C13 1.349 1_455 S
C10 C14 1.356 . S
C10 O61 1.325 . S
C11 N12 1.279 . S
C11 C14 1.358 . S
C11 H68 0.930 . S
N12 C11 1.279 . S
N12 C15 1.314 . S
C13 C10 1.349 1_655 S
C13 C15 1.320 1_655 S
C13 H69 0.965 . S
C14 C10 1.356 . S
C14 C11 1.358 . S
C14 H70 0.930 . S
C15 N12 1.314 . S
C15 C13 1.320 1_455 S
C15 H71 0.930 1_455 S
C16 N17 1.314 1_556 S
C16 C21 1.353 . S
C16 H22 0.930 . S
N17 Li0 1.990 . S
N17 C16 1.314 1_554 S
N17 C19 1.279 . S
C18 C19 1.358 . S
C18 C20 1.356 1_554 S
C18 H72 0.930 . S
C19 N17 1.279 . S
C19 C18 1.358 . S
C19 H23 0.930 . S
C20 C18 1.356 1_556 S
C20 C21 1.348 . S
C21 C16 1.353 . S
C21 C20 1.348 . S
C21 H73 0.929 . S
H22 C16 0.930 . S
H23 C19 0.930 . S
C24 N25 1.314 . S
C24 C26 1.353 . S
C24 H30 0.930 . S
N25 Li1 1.990 . S
N25 C24 1.314 . S
N25 C28 1.279 . S
C26 C24 1.353 . S
C26 C29 1.348 . S
C26 H74 0.929 . S
C27 C28 1.358 . S
C27 C29 1.356 . S
C27 H75 0.930 . S
C28 N25 1.279 . S
C28 C27 1.358 . S
C28 H31 0.930 1_554 S
C29 C26 1.348 . S
C29 C27 1.356 . S
H30 C24 0.930 . S
H31 C28 0.930 1_556 S
C32 C34 1.345 . S
C32 C35 1.358 1_556 S
C32 O62 1.325 1_556 S
N33 C36 1.314 . S
N33 C37 1.279 1_556 S
C34 C32 1.345 . S
C34 C36 1.353 . S
C34 H76 0.929 . S
C35 C32 1.358 1_554 S
C35 C37 1.358 . S
C35 H77 0.930 . S
C36 N33 1.314 . S
C36 C34 1.353 . S
C36 H78 0.930 . S
C37 N33 1.279 1_554 S
C37 C35 1.358 . S
C37 H79 0.930 . S
C38 C39 1.348 . S
C38 C40 1.356 . S
C38 O63 1.325 . S
C39 C38 1.348 . S
C39 C41 1.353 . S
C39 H80 0.929 . S
C40 C38 1.356 . S
C40 C42 1.358 . S
C40 H81 0.904 1_554 S
C41 C39 1.353 . S
C41 N43 1.314 . S
C41 H82 0.930 . S
C42 C40 1.358 . S
C42 N43 1.279 . S
C42 H83 0.930 . S
N43 C41 1.314 . S
N43 C42 1.279 . S
C44 C46 1.353 . S
C44 N47 1.314 . S
C44 H50 0.930 1_655 S
C45 N47 1.279 . S
C45 C48 1.358 . S
C45 H51 0.930 . S
C46 C44 1.353 . S
C46 C49 1.348 . S
C46 H84 0.929 1_655 S
N47 Li2 1.990 . S
N47 C44 1.314 . S
N47 C45 1.279 . S
C48 C45 1.358 . S
C48 C49 1.356 . S
C48 H85 0.930 . S
C49 C46 1.348 . S
C49 C48 1.356 . S
H50 C44 0.930 1_455 S
H51 C45 0.930 . S
C52 N53 1.314 . S
C52 C54 1.353 . S
C52 H58 0.930 1_455 S
N53 Li3 1.990 . S
N53 C52 1.314 . S
N53 C56 1.279 . S
C54 C52 1.353 . S
C54 C57 1.348 . S
C54 H86 0.947 . S
C55 C56 1.358 . S
C55 C57 1.356 . S
C55 H87 0.930 . S
C56 N53 1.279 . S
C56 C55 1.358 . S
C56 H59 0.930 . S
C57 C54 1.348 . S
C57 C55 1.356 . S
H58 C52 0.930 1_655 S
H59 C56 0.930 . S
O60 Li0 1.956 . S
O60 Li1 1.970 1_655 S
O60 Li2 1.961 . S
O60 C4 1.325 . S
O61 Li0 1.970 1_456 S
O61 Li1 1.956 1_556 S
O61 Li3 1.961 . S
O61 C10 1.325 . S
O62 Li0 1.961 . S
O62 Li2 1.956 . S
O62 Li3 1.970 1_654 S
O62 C32 1.325 1_554 S
O63 Li1 1.961 . S
O63 Li2 1.970 1_455 S
O63 Li3 1.956 1_554 S
O63 C38 1.325 . S
H64 C6 0.929 . S
H65 C7 0.930 . S
H66 C8 0.930 1_455 S
H67 C9 0.930 . S
H68 C11 0.930 . S
H69 C13 0.965 . S
H70 C14 0.930 . S
H71 C15 0.930 1_655 S
H72 C18 0.930 . S
H73 C21 0.929 . S
H74 C26 0.929 . S
H75 C27 0.930 . S
H76 C34 0.929 . S
H77 C35 0.930 . S
H78 C36 0.930 . S
H79 C37 0.930 . S
H80 C39 0.929 . S
H81 C40 0.904 1_556 S
H82 C41 0.930 . S
H83 C42 0.930 . S
H84 C46 0.929 1_455 S
H85 C48 0.930 . S
H86 C54 0.947 . S
H87 C55 0.930 . S
Li88 N105 1.990 1_554 S
Li88 O148 1.956 . S
Li88 O149 1.970 1_554 S
Li88 O150 1.964 . S
Li89 N113 1.990 . S
Li89 O148 1.970 . S
Li89 O149 1.956 1_554 S
Li89 O151 1.961 . S
Li90 N135 1.990 . S
Li90 O148 1.961 . S
Li90 O150 1.994 . S
Li90 O151 1.970 . S
Li91 N141 1.990 . S
Li91 O149 1.961 . S
Li91 O150 1.953 1_556 S
Li91 O151 1.956 1_556 S
C92 C94 1.348 . S
C92 C95 1.356 . S
C92 O148 1.325 . S
N93 C96 1.314 . S
N93 C97 1.279 . S
C94 C92 1.348 . S
C94 C96 1.353 . S
C94 H152 0.929 . S
C95 C92 1.356 . S
C95 C97 1.358 . S
C95 H153 0.930 . S
C96 N93 1.314 . S
C96 C94 1.353 . S
C96 H154 0.930 . S
C97 N93 1.279 . S
C97 C95 1.358 . S
C97 H155 0.930 . S
C98 C101 1.348 . S
C98 C102 1.356 . S
C98 O149 1.325 . S
C99 N100 1.279 . S
C99 C102 1.358 . S
C99 H156 0.930 . S
N100 C99 1.279 . S
N100 C103 1.314 . S
C101 C98 1.348 . S
C101 C103 1.353 . S
C101 H157 0.929 . S
C102 C98 1.356 . S
C102 C99 1.358 . S
C102 H158 0.930 . S
C103 N100 1.314 . S
C103 C101 1.353 . S
C103 H159 0.930 . S
C104 N105 1.314 . S
C104 C109 1.353 . S
C104 H110 0.930 . S
N105 Li88 1.990 1_556 S
N105 C104 1.314 . S
N105 C107 1.279 1_556 S
C106 C107 1.358 . S
C106 C108 1.356 1_554 S
C106 H160 0.930 . S
C107 N105 1.279 1_554 S
C107 C106 1.358 . S
C107 H111 0.930 . S
C108 C106 1.356 1_556 S
C108 C109 1.348 . S
C109 C104 1.353 . S
C109 C108 1.348 . S
C109 H161 0.929 . S
H110 C104 0.930 . S
H111 C107 0.930 . S
C112 N113 1.314 . S
C112 C114 1.353 . S
C112 H118 0.930 . S
N113 Li89 1.990 . S
N113 C112 1.314 . S
N113 C116 1.279 . S
C114 C112 1.353 . S
C114 C117 1.348 . S
C114 H162 0.929 . S
C115 C116 1.358 . S
C115 C117 1.356 . S
C115 H163 0.930 . S
C116 N113 1.279 . S
C116 C115 1.358 . S
C116 H119 0.930 1_554 S
C117 C114 1.348 . S
C117 C115 1.356 . S
H118 C112 0.930 . S
H119 C116 0.930 1_556 S
C120 C122 1.348 . S
C120 C123 1.356 1_556 S
C120 O150 1.317 1_556 S
N121 C124 1.314 . S
N121 C125 1.266 1_556 S
C122 C120 1.348 . S
C122 C124 1.353 . S
C122 H164 0.929 . S
C123 C120 1.356 1_554 S
C123 C125 1.364 . S
C123 H165 0.930 . S
C124 N121 1.314 . S
C124 C122 1.353 . S
C124 H166 0.930 . S
C125 N121 1.266 1_554 S
C125 C123 1.364 . S
C125 H167 0.940 . S
C126 C127 1.348 . S
C126 C128 1.356 . S
C126 O151 1.325 . S
C127 C126 1.348 . S
C127 C129 1.353 . S
C127 H168 0.929 . S
C128 C126 1.356 . S
C128 C130 1.358 . S
C128 H169 0.930 . S
C129 C127 1.353 . S
C129 N131 1.314 . S
C129 H170 0.930 . S
C130 C128 1.358 . S
C130 N131 1.279 . S
C130 H171 0.930 . S
N131 C129 1.314 . S
N131 C130 1.279 . S
C132 C134 1.353 . S
C132 N135 1.314 . S
C132 H138 0.930 . S
C133 N135 1.279 . S
C133 C136 1.358 . S
C133 H139 0.930 . S
C134 C132 1.353 . S
C134 C137 1.348 . S
C134 H172 0.929 . S
N135 Li90 1.990 . S
N135 C132 1.314 . S
N135 C133 1.279 . S
C136 C133 1.358 . S
C136 C137 1.356 . S
C136 H173 0.930 . S
C137 C134 1.348 . S
C137 C136 1.356 . S
H138 C132 0.930 . S
H139 C133 0.930 . S
C140 N141 1.314 . S
C140 C142 1.353 . S
C140 H146 0.930 . S
N141 Li91 1.990 . S
N141 C140 1.314 . S
N141 C144 1.279 . S
C142 C140 1.353 . S
C142 C145 1.348 . S
C142 H174 0.929 . S
C143 C144 1.358 . S
C143 C145 1.356 . S
C143 H175 0.930 . S
C144 N141 1.279 . S
C144 C143 1.358 . S
C144 H147 0.930 . S
C145 C142 1.348 . S
C145 C143 1.356 . S
H146 C140 0.930 . S
H147 C144 0.930 . S
O148 Li88 1.956 . S
O148 Li89 1.970 . S
O148 Li90 1.961 . S
O148 C92 1.325 . S
O149 Li88 1.970 1_556 S
O149 Li89 1.956 1_556 S
O149 Li91 1.961 . S
O149 C98 1.325 . S
O150 Li88 1.964 . S
O150 Li90 1.994 . S
O150 Li91 1.953 1_554 S
O150 C120 1.317 1_554 S
O151 Li89 1.961 . S
O151 Li90 1.970 . S
O151 Li91 1.956 1_554 S
O151 C126 1.325 . S
H152 C94 0.929 . S
H153 C95 0.930 . S
H154 C96 0.930 . S
H155 C97 0.930 . S
H156 C99 0.930 . S
H157 C101 0.929 . S
H158 C102 0.930 . S
H159 C103 0.930 . S
H160 C106 0.930 . S
H161 C109 0.929 . S
H162 C114 0.929 . S
H163 C115 0.930 . S
H164 C122 0.929 . S
H165 C123 0.930 . S
H166 C124 0.930 . S
H167 C125 0.940 . S
H168 C127 0.929 . S
H169 C128 0.930 . S
H170 C129 0.930 . S
H171 C130 0.930 . S
H172 C134 0.929 . S
H173 C136 0.930 . S
H174 C142 0.929 . S
H175 C143 0.930 . S
Li176 N193 1.990 . S
Li176 O236 1.956 1_556 S
Li176 O237 1.970 1_566 S
Li176 O238 1.961 . S
Li177 N201 1.990 . S
Li177 O236 1.970 1_545 S
Li177 O237 1.956 . S
Li177 O239 1.961 . S
Li178 N223 1.990 . S
Li178 O236 1.961 . S
Li178 O238 1.956 1_554 S
Li178 O239 1.970 1_565 S
Li179 N229 1.993 . S
Li179 O237 1.961 . S
Li179 O238 1.970 1_544 S
Li179 O239 1.956 . S
C180 C182 1.348 . S
C180 C183 1.356 . S
C180 O236 1.325 . S
N181 C184 1.314 . S
N181 C185 1.279 . S
C182 C180 1.348 . S
C182 C184 1.353 . S
C182 H240 0.929 . S
C183 C180 1.356 . S
C183 C185 1.358 . S
C183 H241 0.930 1_554 S
C184 N181 1.314 . S
C184 C182 1.353 . S
C184 H242 0.930 . S
C185 N181 1.279 . S
C185 C183 1.358 . S
C185 H243 0.930 . S
C186 C189 1.357 . S
C186 C190 1.349 1_556 S
C186 O237 1.322 1_556 S
C187 N188 1.279 1_554 S
C187 C190 1.358 . S
C187 H244 0.930 . S
N188 C187 1.279 1_556 S
N188 C191 1.314 . S
C189 C186 1.357 . S
C189 C191 1.353 . S
C189 H245 0.929 . S
C190 C186 1.349 1_554 S
C190 C187 1.358 . S
C190 H246 0.930 . S
C191 N188 1.314 . S
C191 C189 1.353 . S
C191 H247 0.930 . S
C192 N193 1.314 . S
C192 C197 1.353 . S
C192 H198 0.930 1_565 S
N193 Li176 1.990 . S
N193 C192 1.314 . S
N193 C195 1.279 . S
C194 C195 1.358 . S
C194 C196 1.356 . S
C194 H248 0.930 . S
C195 N193 1.279 . S
C195 C194 1.358 . S
C195 H199 0.930 . S
C196 C194 1.356 . S
C196 C197 1.348 . S
C197 C192 1.353 . S
C197 C196 1.348 . S
C197 H249 0.946 . S
H198 C192 0.930 1_545 S
H199 C195 0.930 . S
C200 N201 1.314 . S
C200 C202 1.353 . S
C200 H206 0.930 1_545 S
N201 Li177 1.990 . S
N201 C200 1.314 . S
N201 C204 1.279 . S
C202 C200 1.353 . S
C202 C205 1.348 . S
C202 H250 0.929 . S
C203 C204 1.358 . S
C203 C205 1.356 . S
C203 H251 0.930 . S
C204 N201 1.279 . S
C204 C203 1.358 . S
C204 H207 0.930 . S
C205 C202 1.348 . S
C205 C203 1.356 . S
H206 C200 0.930 1_565 S
H207 C204 0.930 . S
C208 C210 1.348 1_565 S
C208 C211 1.356 . S
C208 O238 1.325 . S
N209 C212 1.314 . S
N209 C213 1.279 . S
C210 C208 1.348 1_545 S
C210 C212 1.353 1_545 S
C210 H252 0.929 . S
C211 C208 1.356 . S
C211 C213 1.358 . S
C211 H253 0.930 . S
C212 N209 1.314 . S
C212 C210 1.353 1_565 S
C212 H254 0.930 1_565 S
C213 N209 1.279 . S
C213 C211 1.358 . S
C213 H255 0.930 . S
C214 C215 1.348 1_545 S
C214 C216 1.356 . S
C214 O239 1.325 . S
C215 C214 1.348 1_565 S
C215 C217 1.336 1_565 S
C215 H256 0.947 . S
C216 C214 1.356 . S
C216 C218 1.358 . S
C216 H257 0.930 . S
C217 C215 1.336 1_545 S
C217 N219 1.314 . S
C217 H258 0.930 1_545 S
C218 C216 1.358 . S
C218 N219 1.279 . S
C218 H259 0.930 . S
N219 C217 1.314 . S
N219 C218 1.279 . S
C220 C222 1.353 . S
C220 N223 1.314 . S
C220 H226 0.930 . S
C221 N223 1.279 . S
C221 C224 1.358 . S
C221 H227 0.930 1_554 S
C222 C220 1.353 . S
C222 C225 1.348 . S
C222 H260 0.929 . S
N223 Li178 1.990 . S
N223 C220 1.314 . S
N223 C221 1.279 . S
C224 C221 1.358 . S
C224 C225 1.356 . S
C224 H261 0.935 . S
C225 C222 1.348 . S
C225 C224 1.356 . S
H226 C220 0.930 . S
H227 C221 0.930 1_556 S
C228 N229 1.301 1_556 S
C228 C230 1.353 . S
C228 H234 0.930 . S
N229 Li179 1.993 . S
N229 C228 1.301 1_554 S
N229 C232 1.288 . S
C230 C228 1.353 . S
C230 C233 1.348 . S
C230 H262 0.929 . S
C231 C232 1.358 . S
C231 C233 1.356 1_554 S
C231 H263 0.930 . S
C232 N229 1.288 . S
C232 C231 1.358 . S
C232 H235 0.930 . S
C233 C230 1.348 . S
C233 C231 1.356 1_556 S
H234 C228 0.930 . S
H235 C232 0.930 . S
O236 Li176 1.956 1_554 S
O236 Li177 1.970 1_565 S
O236 Li178 1.961 . S
O236 C180 1.325 . S
O237 Li176 1.970 1_544 S
O237 Li177 1.956 . S
O237 Li179 1.961 . S
O237 C186 1.322 1_554 S
O238 Li176 1.961 . S
O238 Li178 1.956 1_556 S
O238 Li179 1.970 1_566 S
O238 C208 1.325 . S
O239 Li177 1.961 . S
O239 Li178 1.970 1_545 S
O239 Li179 1.956 . S
O239 C214 1.325 . S
H240 C182 0.929 . S
H241 C183 0.930 1_556 S
H242 C184 0.930 . S
H243 C185 0.930 . S
H244 C187 0.930 . S
H245 C189 0.929 . S
H246 C190 0.930 . S
H247 C191 0.930 . S
H248 C194 0.930 . S
H249 C197 0.946 . S
H250 C202 0.929 . S
H251 C203 0.930 . S
H252 C210 0.929 . S
H253 C211 0.930 . S
H254 C212 0.930 1_545 S
H255 C213 0.930 . S
H256 C215 0.947 . S
H257 C216 0.930 . S
H258 C217 0.930 1_565 S
H259 C218 0.930 . S
H260 C222 0.929 . S
H261 C224 0.935 . S
H262 C230 0.929 . S
H263 C231 0.930 . S
Li264 N281 1.990 . S
Li264 O324 1.956 . S
Li264 O325 1.970 1_455 S
Li264 O326 1.961 1_554 S
Li265 N289 1.990 . S
Li265 O324 1.970 1_655 S
Li265 O325 1.956 . S
Li265 O327 1.961 . S
Li266 N311 1.990 . S
Li266 O324 1.961 1_556 S
Li266 O326 1.956 . S
Li266 O327 1.970 1_456 S
Li267 N317 1.990 1_554 S
Li267 O325 1.961 . S
Li267 O326 1.970 1_654 S
Li267 O327 1.956 . S
C268 C270 1.348 . S
C268 C271 1.356 . S
C268 O324 1.325 . S
N269 C272 1.314 . S
N269 C273 1.279 . S
C270 C268 1.348 . S
C270 C272 1.353 . S
C270 H328 0.929 . S
C271 C268 1.356 . S
C271 C273 1.358 . S
C271 H329 0.930 1_554 S
C272 N269 1.314 . S
C272 C270 1.353 . S
C272 H330 0.930 . S
C273 N269 1.279 . S
C273 C271 1.358 . S
C273 H331 0.930 1_554 S
C274 C277 1.348 1_655 S
C274 C278 1.356 . S
C274 O325 1.325 . S
C275 N276 1.279 . S
C275 C278 1.358 . S
C275 H332 0.930 . S
N276 C275 1.279 . S
N276 C279 1.248 1_655 S
C277 C274 1.348 1_455 S
C277 C279 1.393 . S
C277 H333 0.929 . S
C278 C274 1.356 . S
C278 C275 1.358 . S
C278 H334 0.930 . S
C279 N276 1.248 1_455 S
C279 C277 1.393 . S
C279 H335 0.964 . S
C280 N281 1.314 . S
C280 C285 1.353 . S
C280 H286 0.930 . S
N281 Li264 1.990 . S
N281 C280 1.314 . S
N281 C283 1.279 . S
C282 C283 1.358 . S
C282 C284 1.356 . S
C282 H336 0.930 . S
C283 N281 1.279 . S
C283 C282 1.358 . S
C283 H287 0.930 . S
C284 C282 1.356 . S
C284 C285 1.348 . S
C285 C280 1.353 . S
C285 C284 1.348 . S
C285 H337 0.929 . S
H286 C280 0.930 . S
H287 C283 0.930 . S
C288 N289 1.314 . S
C288 C290 1.353 . S
C288 H294 0.930 . S
N289 Li265 1.990 . S
N289 C288 1.314 . S
N289 C292 1.279 . S
C290 C288 1.353 . S
C290 C293 1.348 . S
C290 H338 0.929 . S
C291 C292 1.358 . S
C291 C293 1.356 . S
C291 H339 0.930 . S
C292 N289 1.279 . S
C292 C291 1.358 . S
C292 H295 0.930 . S
C293 C290 1.348 . S
C293 C291 1.356 . S
H294 C288 0.930 . S
H295 C292 0.930 . S
C296 C298 1.348 1_455 S
C296 C299 1.356 . S
C296 O326 1.325 . S
N297 C300 1.260 1_455 S
N297 C301 1.279 . S
C298 C296 1.348 1_655 S
C298 C300 1.351 . S
C298 H340 0.929 . S
C299 C296 1.356 . S
C299 C301 1.358 . S
C299 H341 0.930 . S
C300 N297 1.260 1_655 S
C300 C298 1.351 . S
C300 H342 0.998 . S
C301 N297 1.279 . S
C301 C299 1.358 . S
C301 H343 0.930 . S
C302 C303 1.348 . S
C302 C304 1.356 1_556 S
C302 O327 1.325 1_556 S
C303 C302 1.348 . S
C303 C305 1.353 . S
C303 H344 0.929 . S
C304 C302 1.356 1_554 S
C304 C306 1.358 . S
C304 H345 0.930 . S
C305 C303 1.353 . S
C305 N307 1.314 . S
C305 H346 0.930 . S
C306 C304 1.358 . S
C306 N307 1.279 1_554 S
C306 H347 0.930 . S
N307 C305 1.314 . S
N307 C306 1.279 1_556 S
C308 C310 1.353 . S
C308 N311 1.314 . S
C308 H314 0.930 . S
C309 N311 1.279 . S
C309 C312 1.358 . S
C309 H315 0.930 . S
C310 C308 1.353 . S
C310 C313 1.348 . S
C310 H348 0.929 . S
N311 Li266 1.990 . S
N311 C308 1.314 . S
N311 C309 1.279 . S
C312 C309 1.358 . S
C312 C313 1.356 . S
C312 H349 0.930 . S
C313 C310 1.348 . S
C313 C312 1.356 . S
H314 C308 0.930 . S
H315 C309 0.930 . S
C316 N317 1.314 1_554 S
C316 C318 1.353 1_554 S
C316 H322 0.930 . S
N317 Li267 1.990 1_556 S
N317 C316 1.314 1_556 S
N317 C320 1.279 . S
C318 C316 1.353 1_556 S
C318 C321 1.348 . S
C318 H350 0.929 1_556 S
C319 C320 1.358 . S
C319 C321 1.356 . S
C319 H351 0.930 . S
C320 N317 1.279 . S
C320 C319 1.358 . S
C320 H323 0.930 . S
C321 C318 1.348 . S
C321 C319 1.356 . S
H322 C316 0.930 . S
H323 C320 0.930 . S
O324 Li264 1.956 . S
O324 Li265 1.970 1_455 S
O324 Li266 1.961 1_554 S
O324 C268 1.325 . S
O325 Li264 1.970 1_655 S
O325 Li265 1.956 . S
O325 Li267 1.961 . S
O325 C274 1.325 . S
O326 Li264 1.961 1_556 S
O326 Li266 1.956 . S
O326 Li267 1.970 1_456 S
O326 C296 1.325 . S
O327 Li265 1.961 . S
O327 Li266 1.970 1_654 S
O327 Li267 1.956 . S
O327 C302 1.325 1_554 S
H328 C270 0.929 . S
H329 C271 0.930 1_556 S
H330 C272 0.930 . S
H331 C273 0.930 1_556 S
H332 C275 0.930 . S
H333 C277 0.929 . S
H334 C278 0.930 . S
H335 C279 0.964 . S
H336 C282 0.930 . S
H337 C285 0.929 . S
H338 C290 0.929 . S
H339 C291 0.930 . S
H340 C298 0.929 . S
H341 C299 0.930 . S
H342 C300 0.998 . S
H343 C301 0.930 . S
H344 C303 0.929 . S
H345 C304 0.930 . S
H346 C305 0.930 . S
H347 C306 0.930 . S
H348 C310 0.929 . S
H349 C312 0.930 . S
H350 C318 0.929 1_554 S
H351 C319 0.930 . S
Li352 N369 1.990 . S
Li352 O412 1.956 . S
Li352 O413 1.970 . S
Li352 O414 1.961 1_554 S
Li353 N377 1.990 . S
Li353 O412 1.970 . S
Li353 O413 1.956 . S
Li353 O415 1.961 . S
Li354 N399 1.990 . S
Li354 O412 1.961 1_556 S
Li354 O414 1.956 . S
Li354 O415 1.970 1_556 S
Li355 N405 1.990 1_554 S
Li355 O413 1.961 . S
Li355 O414 1.970 1_554 S
Li355 O415 1.956 . S
C356 C358 1.348 . S
C356 C359 1.356 . S
C356 O412 1.325 . S
N357 C360 1.314 . S
N357 C361 1.279 . S
C358 C356 1.348 . S
C358 C360 1.353 . S
C358 H416 0.929 . S
C359 C356 1.356 . S
C359 C361 1.358 . S
C359 H417 0.930 1_554 S
C360 N357 1.314 . S
C360 C358 1.353 . S
C360 H418 0.930 . S
C361 N357 1.279 . S
C361 C359 1.358 . S
C361 H419 0.930 . S
C362 C365 1.348 . S
C362 C366 1.356 . S
C362 O413 1.325 . S
C363 N364 1.279 . S
C363 C366 1.358 . S
C363 H420 0.930 . S
N364 C363 1.279 . S
N364 C367 1.314 . S
C365 C362 1.348 . S
C365 C367 1.353 . S
C365 H421 0.929 . S
C366 C362 1.356 . S
C366 C363 1.358 . S
C366 H422 0.930 . S
C367 N364 1.314 . S
C367 C365 1.353 . S
C367 H423 0.930 . S
C368 N369 1.314 . S
C368 C373 1.353 . S
C368 H374 0.930 . S
N369 Li352 1.990 . S
N369 C368 1.314 . S
N369 C371 1.279 . S
C370 C371 1.358 . S
C370 C372 1.356 . S
C370 H424 0.930 . S
C371 N369 1.279 . S
C371 C370 1.358 . S
C371 H375 0.930 . S
C372 C370 1.356 . S
C372 C373 1.348 . S
C373 C368 1.353 . S
C373 C372 1.348 . S
C373 H425 0.929 . S
H374 C368 0.930 . S
H375 C371 0.930 . S
C376 N377 1.314 . S
C376 C378 1.353 . S
C376 H382 0.930 . S
N377 Li353 1.990 . S
N377 C376 1.314 . S
N377 C380 1.279 . S
C378 C376 1.353 . S
C378 C381 1.348 . S
C378 H426 0.929 . S
C379 C380 1.358 . S
C379 C381 1.356 . S
C379 H427 0.930 . S
C380 N377 1.279 . S
C380 C379 1.358 . S
C380 H383 0.930 . S
C381 C378 1.348 . S
C381 C379 1.356 . S
H382 C376 0.930 . S
H383 C380 0.930 . S
C384 C386 1.348 . S
C384 C387 1.356 . S
C384 O414 1.325 . S
N385 C388 1.314 . S
N385 C389 1.279 . S
C386 C384 1.348 . S
C386 C388 1.353 . S
C386 H428 0.929 . S
C387 C384 1.356 . S
C387 C389 1.358 . S
C387 H429 0.930 . S
C388 N385 1.314 . S
C388 C386 1.353 . S
C388 H430 0.930 . S
C389 N385 1.279 . S
C389 C387 1.358 . S
C389 H431 0.930 . S
C390 C391 1.348 . S
C390 C392 1.356 1_556 S
C390 O415 1.325 1_556 S
C391 C390 1.348 . S
C391 C393 1.353 . S
C391 H432 0.929 . S
C392 C390 1.356 1_554 S
C392 C394 1.358 . S
C392 H433 0.930 . S
C393 C391 1.353 . S
C393 N395 1.314 . S
C393 H434 0.930 . S
C394 C392 1.358 . S
C394 N395 1.279 1_554 S
C394 H435 0.930 . S
N395 C393 1.314 . S
N395 C394 1.279 1_556 S
C396 C398 1.353 . S
C396 N399 1.314 . S
C396 H402 0.930 . S
C397 N399 1.279 . S
C397 C400 1.358 . S
C397 H403 0.930 . S
C398 C396 1.353 . S
C398 C401 1.348 . S
C398 H436 0.929 . S
N399 Li354 1.990 . S
N399 C396 1.314 . S
N399 C397 1.279 . S
C400 C397 1.358 . S
C400 C401 1.356 . S
C400 H437 0.930 . S
C401 C398 1.348 . S
C401 C400 1.356 . S
H402 C396 0.930 . S
H403 C397 0.930 . S
C404 N405 1.314 1_554 S
C404 C406 1.353 1_554 S
C404 H410 0.930 . S
N405 Li355 1.990 1_556 S
N405 C404 1.314 1_556 S
N405 C408 1.279 . S
C406 C404 1.353 1_556 S
C406 C409 1.348 . S
C406 H438 0.931 1_556 S
C407 C408 1.358 . S
C407 C409 1.356 . S
C407 H439 0.930 . S
C408 N405 1.279 . S
C408 C407 1.358 . S
C408 H411 0.930 . S
C409 C406 1.348 . S
C409 C407 1.356 . S
H410 C404 0.930 . S
H411 C408 0.930 . S
O412 Li352 1.956 . S
O412 Li353 1.970 . S
O412 Li354 1.961 1_554 S
O412 C356 1.325 . S
O413 Li352 1.970 . S
O413 Li353 1.956 . S
O413 Li355 1.961 . S
O413 C362 1.325 . S
O414 Li352 1.961 1_556 S
O414 Li354 1.956 . S
O414 Li355 1.970 1_556 S
O414 C384 1.325 . S
O415 Li353 1.961 . S
O415 Li354 1.970 1_554 S
O415 Li355 1.956 . S
O415 C390 1.325 1_554 S
H416 C358 0.929 . S
H417 C359 0.930 1_556 S
H418 C360 0.930 . S
H419 C361 0.930 . S
H420 C363 0.930 . S
H421 C365 0.929 . S
H422 C366 0.930 . S
H423 C367 0.930 . S
H424 C370 0.930 . S
H425 C373 0.929 . S
H426 C378 0.929 . S
H427 C379 0.930 . S
H428 C386 0.929 . S
H429 C387 0.930 . S
H430 C388 0.930 . S
H431 C389 0.930 . S
H432 C391 0.929 . S
H433 C392 0.930 . S
H434 C393 0.930 . S
H435 C394 0.930 . S
H436 C398 0.929 . S
H437 C400 0.930 . S
H438 C406 0.931 1_554 S
H439 C407 0.930 . S
Li440 N457 1.990 . S
Li440 O500 1.956 . S
Li440 O501 1.970 1_565 S
Li440 O502 1.961 1_554 S
Li441 N465 1.990 . S
Li441 O500 1.970 1_545 S
Li441 O501 1.956 . S
Li441 O503 1.961 . S
Li442 N487 1.990 . S
Li442 O500 1.961 1_556 S
Li442 O502 1.956 . S
Li442 O503 1.970 1_566 S
Li443 N493 1.990 1_554 S
Li443 O501 1.961 . S
Li443 O502 1.970 1_544 S
Li443 O503 1.956 . S
C444 C446 1.348 . S
C444 C447 1.356 . S
C444 O500 1.325 . S
N445 C448 1.314 . S
N445 C449 1.279 . S
C446 C444 1.348 . S
C446 C448 1.353 . S
C446 H504 0.929 . S
C447 C444 1.356 . S
C447 C449 1.358 . S
C447 H505 0.930 1_554 S
C448 N445 1.314 . S
C448 C446 1.353 . S
C448 H506 0.930 . S
C449 N445 1.279 . S
C449 C447 1.358 . S
C449 H507 0.930 1_554 S
C450 C453 1.348 1_545 S
C450 C454 1.356 . S
C450 O501 1.325 . S
C451 N452 1.279 . S
C451 C454 1.358 . S
C451 H508 0.930 . S
N452 C451 1.279 . S
N452 C455 1.282 1_545 S
C453 C450 1.348 1_565 S
C453 C455 1.351 . S
C453 H509 0.929 . S
C454 C450 1.356 . S
C454 C451 1.358 . S
C454 H510 0.930 . S
C455 N452 1.282 1_565 S
C455 C453 1.351 . S
C455 H511 0.970 . S
C456 N457 1.314 . S
C456 C461 1.353 . S
C456 H462 0.930 . S
N457 Li440 1.990 . S
N457 C456 1.314 . S
N457 C459 1.279 . S
C458 C459 1.358 . S
C458 C460 1.356 . S
C458 H512 0.930 . S
C459 N457 1.279 . S
C459 C458 1.358 . S
C459 H463 0.930 . S
C460 C458 1.356 . S
C460 C461 1.348 . S
C461 C456 1.353 . S
C461 C460 1.348 . S
C461 H513 0.929 . S
H462 C456 0.930 . S
H463 C459 0.930 . S
C464 N465 1.314 . S
C464 C466 1.353 . S
C464 H470 0.930 . S
N465 Li441 1.990 . S
N465 C464 1.314 . S
N465 C468 1.279 . S
C466 C464 1.353 . S
C466 C469 1.348 . S
C466 H514 0.929 . S
C467 C468 1.358 . S
C467 C469 1.356 . S
C467 H515 0.930 . S
C468 N465 1.279 . S
C468 C467 1.358 . S
C468 H471 0.930 . S
C469 C466 1.348 . S
C469 C467 1.356 . S
H470 C464 0.930 . S
H471 C468 0.930 . S
C472 C474 1.348 1_565 S
C472 C475 1.356 . S
C472 O502 1.325 . S
N473 C476 1.284 1_565 S
N473 C477 1.279 . S
C474 C472 1.348 1_545 S
C474 C476 1.371 . S
C474 H516 0.929 . S
C475 C472 1.356 . S
C475 C477 1.358 . S
C475 H517 0.930 . S
C476 N473 1.284 1_545 S
C476 C474 1.371 . S
C476 H518 0.945 . S
C477 N473 1.279 . S
C477 C475 1.358 . S
C477 H519 0.930 . S
C478 C479 1.348 . S
C478 C480 1.356 1_556 S
C478 O503 1.325 1_556 S
C479 C478 1.348 . S
C479 C481 1.353 . S
C479 H520 0.929 . S
C480 C478 1.356 1_554 S
C480 C482 1.358 . S
C480 H521 0.930 . S
C481 C479 1.353 . S
C481 N483 1.314 . S
C481 H522 0.930 . S
C482 C480 1.358 . S
C482 N483 1.279 1_554 S
C482 H523 0.930 . S
N483 C481 1.314 . S
N483 C482 1.279 1_556 S
C484 C486 1.353 . S
C484 N487 1.314 . S
C484 H490 0.930 . S
C485 N487 1.279 . S
C485 C488 1.358 . S
C485 H491 0.930 . S
C486 C484 1.353 . S
C486 C489 1.348 . S
C486 H524 0.929 . S
N487 Li442 1.990 . S
N487 C484 1.314 . S
N487 C485 1.279 . S
C488 C485 1.358 . S
C488 C489 1.356 . S
C488 H525 0.930 . S
C489 C486 1.348 . S
C489 C488 1.356 . S
H490 C484 0.930 . S
H491 C485 0.930 . S
C492 N493 1.314 1_554 S
C492 C494 1.353 . S
C492 H498 0.930 . S
N493 Li443 1.990 1_556 S
N493 C492 1.314 1_556 S
N493 C496 1.279 . S
C494 C492 1.353 . S
C494 C497 1.347 1_554 S
C494 H526 0.930 . S
C495 C496 1.358 . S
C495 C497 1.356 . S
C495 H527 0.930 . S
C496 N493 1.279 . S
C496 C495 1.358 . S
C496 H499 0.930 . S
C497 C494 1.347 1_556 S
C497 C495 1.356 . S
H498 C492 0.930 . S
H499 C496 0.930 . S
O500 Li440 1.956 . S
O500 Li441 1.970 1_565 S
O500 Li442 1.961 1_554 S
O500 C444 1.325 . S
O501 Li440 1.970 1_545 S
O501 Li441 1.956 . S
O501 Li443 1.961 . S
O501 C450 1.325 . S
O502 Li440 1.961 1_556 S
O502 Li442 1.956 . S
O502 Li443 1.970 1_566 S
O502 C472 1.325 . S
O503 Li441 1.961 . S
O503 Li442 1.970 1_544 S
O503 Li443 1.956 . S
O503 C478 1.325 1_554 S
H504 C446 0.929 . S
H505 C447 0.930 1_556 S
H506 C448 0.930 . S
H507 C449 0.930 1_556 S
H508 C451 0.930 . S
H509 C453 0.929 . S
H510 C454 0.930 . S
H511 C455 0.970 . S
H512 C458 0.930 . S
H513 C461 0.929 . S
H514 C466 0.929 . S
H515 C467 0.930 . S
H516 C474 0.929 . S
H517 C475 0.930 . S
H518 C476 0.945 . S
H519 C477 0.930 . S
H520 C479 0.929 . S
H521 C480 0.930 . S
H522 C481 0.930 . S
H523 C482 0.930 . S
H524 C486 0.929 . S
H525 C488 0.930 . S
H526 C494 0.930 . S
H527 C495 0.930 . S
Li528 N545 1.990 . S
Li528 O588 1.956 . S
Li528 O589 1.970 . S
Li528 O590 1.961 . S
Li529 N553 1.990 . S
Li529 O588 1.970 . S
Li529 O589 1.956 . S
Li529 O591 1.961 . S
Li530 N575 1.990 . S
Li530 O588 1.961 . S
Li530 O590 1.956 . S
Li530 O591 1.970 . S
Li531 N581 1.990 . S
Li531 O589 1.961 . S
Li531 O590 1.970 . S
Li531 O591 1.956 . S
C532 C534 1.348 . S
C532 C535 1.356 . S
C532 O588 1.325 . S
N533 C536 1.314 . S
N533 C537 1.279 . S
C534 C532 1.348 . S
C534 C536 1.353 . S
C534 H592 0.929 . S
C535 C532 1.356 . S
C535 C537 1.358 . S
C535 H593 0.930 . S
C536 N533 1.314 . S
C536 C534 1.353 . S
C536 H594 0.930 . S
C537 N533 1.279 . S
C537 C535 1.358 . S
C537 H595 0.930 . S
C538 C541 1.348 . S
C538 C542 1.356 . S
C538 O589 1.325 . S
C539 N540 1.279 . S
C539 C542 1.358 . S
C539 H596 0.930 . S
N540 C539 1.279 . S
N540 C543 1.314 . S
C541 C538 1.348 . S
C541 C543 1.353 . S
C541 H597 0.929 . S
C542 C538 1.356 . S
C542 C539 1.358 . S
C542 H598 0.930 . S
C543 N540 1.314 . S
C543 C541 1.353 . S
C543 H599 0.930 . S
C544 N545 1.314 . S
C544 C549 1.353 . S
C544 H550 0.930 . S
N545 Li528 1.990 . S
N545 C544 1.314 . S
N545 C547 1.279 . S
C546 C547 1.358 . S
C546 C548 1.356 . S
C546 H600 0.930 . S
C547 N545 1.279 . S
C547 C546 1.358 . S
C547 H551 0.930 . S
C548 C546 1.356 . S
C548 C549 1.348 . S
C549 C544 1.353 . S
C549 C548 1.348 . S
C549 H601 0.929 . S
H550 C544 0.930 . S
H551 C547 0.930 . S
C552 N553 1.314 . S
C552 C554 1.353 . S
C552 H558 0.930 . S
N553 Li529 1.990 . S
N553 C552 1.314 . S
N553 C556 1.279 . S
C554 C552 1.353 . S
C554 C557 1.348 . S
C554 H602 0.929 . S
C555 C556 1.358 . S
C555 C557 1.356 . S
C555 H603 0.930 . S
C556 N553 1.279 . S
C556 C555 1.358 . S
C556 H559 0.930 . S
C557 C554 1.348 . S
C557 C555 1.356 . S
H558 C552 0.930 . S
H559 C556 0.930 . S
C560 C562 1.348 . S
C560 C563 1.356 . S
C560 O590 1.325 . S
N561 C564 1.314 . S
N561 C565 1.279 . S
C562 C560 1.348 . S
C562 C564 1.353 . S
C562 H604 0.929 . S
C563 C560 1.356 . S
C563 C565 1.358 . S
C563 H605 0.930 . S
C564 N561 1.314 . S
C564 C562 1.353 . S
C564 H606 0.930 . S
C565 N561 1.279 . S
C565 C563 1.358 . S
C565 H607 0.930 . S
C566 C567 1.348 . S
C566 C568 1.356 . S
C566 O591 1.325 . S
C567 C566 1.348 . S
C567 C569 1.353 . S
C567 H608 0.929 . S
C568 C566 1.356 . S
C568 C570 1.358 . S
C568 H609 0.930 . S
C569 C567 1.353 . S
C569 N571 1.314 . S
C569 H610 0.930 . S
C570 C568 1.358 . S
C570 N571 1.279 . S
C570 H611 0.930 . S
N571 C569 1.314 . S
N571 C570 1.279 . S
C572 C574 1.353 . S
C572 N575 1.314 . S
C572 H578 0.930 . S
C573 N575 1.279 . S
C573 C576 1.358 . S
C573 H579 0.930 . S
C574 C572 1.353 . S
C574 C577 1.348 . S
C574 H612 0.929 . S
N575 Li530 1.990 . S
N575 C572 1.314 . S
N575 C573 1.279 . S
C576 C573 1.358 . S
C576 C577 1.356 . S
C576 H613 0.930 . S
C577 C574 1.348 . S
C577 C576 1.356 . S
H578 C572 0.930 . S
H579 C573 0.930 . S
C580 N581 1.314 . S
C580 C582 1.353 . S
C580 H586 0.930 . S
N581 Li531 1.990 . S
N581 C580 1.314 . S
N581 C584 1.279 . S
C582 C580 1.353 . S
C582 C585 1.348 . S
C582 H614 0.929 . S
C583 C584 1.358 . S
C583 C585 1.356 . S
C583 H615 0.930 . S
C584 N581 1.279 . S
C584 C583 1.358 . S
C584 H587 0.930 . S
C585 C582 1.348 . S
C585 C583 1.356 . S
H586 C580 0.930 . S
H587 C584 0.930 . S
O588 Li528 1.956 . S
O588 Li529 1.970 . S
O588 Li530 1.961 . S
O588 C532 1.325 . S
O589 Li528 1.970 . S
O589 Li529 1.956 . S
O589 Li531 1.961 . S
O589 C538 1.325 . S
O590 Li528 1.961 . S
O590 Li530 1.956 . S
O590 Li531 1.970 . S
O590 C560 1.325 . S
O591 Li529 1.961 . S
O591 Li530 1.970 . S
O591 Li531 1.956 . S
O591 C566 1.325 . S
H592 C534 0.929 . S
H593 C535 0.930 . S
H594 C536 0.930 . S
H595 C537 0.930 . S
H596 C539 0.930 . S
H597 C541 0.929 . S
H598 C542 0.930 . S
H599 C543 0.930 . S
H600 C546 0.930 . S
H601 C549 0.929 . S
H602 C554 0.929 . S
H603 C555 0.930 . S
H604 C562 0.929 . S
H605 C563 0.930 . S
H606 C564 0.930 . S
H607 C565 0.930 . S
H608 C567 0.929 . S
H609 C568 0.930 . S
H610 C569 0.930 . S
H611 C570 0.930 . S
H612 C574 0.929 . S
H613 C576 0.930 . S
H614 C582 0.929 . S
H615 C583 0.930 . S
Li616 N633 1.990 . S
Li616 O676 1.956 . S
Li616 O677 1.970 . S
Li616 O678 1.961 . S
Li617 N641 1.990 . S
Li617 O676 1.970 . S
Li617 O677 1.956 . S
Li617 O679 1.961 . S
Li618 N663 1.984 1_565 S
Li618 O676 1.963 . S
Li618 O678 1.958 . S
Li618 O679 1.975 . S
Li619 N669 1.990 . S
Li619 O677 1.961 . S
Li619 O678 1.970 . S
Li619 O679 1.956 . S
C620 C622 1.348 . S
C620 C623 1.356 . S
C620 O676 1.325 . S
N621 C624 1.314 . S
N621 C625 1.279 . S
C622 C620 1.348 . S
C622 C624 1.353 . S
C622 H680 0.929 . S
C623 C620 1.356 . S
C623 C625 1.358 . S
C623 H681 0.930 . S
C624 N621 1.314 . S
C624 C622 1.353 . S
C624 H682 0.930 . S
C625 N621 1.279 . S
C625 C623 1.358 . S
C625 H683 0.930 . S
C626 C629 1.348 . S
C626 C630 1.356 . S
C626 O677 1.325 . S
C627 N628 1.279 . S
C627 C630 1.358 . S
C627 H684 0.930 . S
N628 C627 1.279 . S
N628 C631 1.314 . S
C629 C626 1.348 . S
C629 C631 1.353 . S
C629 H685 0.929 . S
C630 C626 1.356 . S
C630 C627 1.358 . S
C630 H686 0.930 . S
C631 N628 1.314 . S
C631 C629 1.353 . S
C631 H687 0.930 . S
C632 N633 1.314 . S
C632 C637 1.353 . S
C632 H638 0.930 . S
N633 Li616 1.990 . S
N633 C632 1.314 . S
N633 C635 1.279 . S
C634 C635 1.358 . S
C634 C636 1.356 . S
C634 H688 0.930 . S
C635 N633 1.279 . S
C635 C634 1.358 . S
C635 H639 0.930 . S
C636 C634 1.356 . S
C636 C637 1.348 . S
C637 C632 1.353 . S
C637 C636 1.348 . S
C637 H689 0.929 . S
H638 C632 0.930 . S
H639 C635 0.930 . S
C640 N641 1.314 . S
C640 C642 1.353 . S
C640 H646 0.930 . S
N641 Li617 1.990 . S
N641 C640 1.314 . S
N641 C644 1.279 . S
C642 C640 1.353 . S
C642 C645 1.348 . S
C642 H690 0.929 . S
C643 C644 1.358 . S
C643 C645 1.356 . S
C643 H691 0.930 . S
C644 N641 1.279 . S
C644 C643 1.358 . S
C644 H647 0.930 . S
C645 C642 1.348 . S
C645 C643 1.356 . S
H646 C640 0.930 . S
H647 C644 0.930 . S
C648 C650 1.348 . S
C648 C651 1.356 . S
C648 O678 1.325 1_545 S
N649 C652 1.314 . S
N649 C653 1.279 . S
C650 C648 1.348 . S
C650 C652 1.353 . S
C650 H692 0.929 . S
C651 C648 1.356 . S
C651 C653 1.358 . S
C651 H693 0.930 . S
C652 N649 1.314 . S
C652 C650 1.353 . S
C652 H694 0.930 . S
C653 N649 1.279 . S
C653 C651 1.358 . S
C653 H695 0.930 . S
C654 C655 1.348 1_565 S
C654 C656 1.356 . S
C654 O679 1.325 . S
C655 C654 1.348 1_545 S
C655 C657 1.353 . S
C655 H696 0.929 . S
C656 C654 1.356 . S
C656 C658 1.358 . S
C656 H697 0.930 . S
C657 C655 1.353 . S
C657 N659 1.314 . S
C657 H698 0.930 . S
C658 C656 1.358 . S
C658 N659 1.279 1_565 S
C658 H699 0.930 . S
N659 C657 1.314 . S
N659 C658 1.279 1_545 S
C660 C662 1.353 . S
C660 N663 1.314 . S
C660 H666 0.930 . S
C661 N663 1.279 . S
C661 C664 1.358 . S
C661 H667 0.930 . S
C662 C660 1.353 . S
C662 C665 1.348 . S
C662 H700 0.929 . S
N663 Li618 1.984 1_545 S
N663 C660 1.314 . S
N663 C661 1.279 . S
C664 C661 1.358 . S
C664 C665 1.356 . S
C664 H701 0.930 . S
C665 C662 1.348 . S
C665 C664 1.356 . S
H666 C660 0.930 . S
H667 C661 0.930 . S
C668 N669 1.314 . S
C668 C670 1.353 . S
C668 H674 0.930 . S
N669 Li619 1.990 . S
N669 C668 1.314 . S
N669 C672 1.279 . S
C670 C668 1.353 . S
C670 C673 1.348 . S
C670 H702 0.929 . S
C671 C672 1.358 . S
C671 C673 1.356 . S
C671 H703 0.930 1_565 S
C672 N669 1.279 . S
C672 C671 1.358 . S
C672 H675 0.930 . S
C673 C670 1.348 . S
C673 C671 1.356 . S
H674 C668 0.930 . S
H675 C672 0.930 . S
O676 Li616 1.956 . S
O676 Li617 1.970 . S
O676 Li618 1.963 . S
O676 C620 1.325 . S
O677 Li616 1.970 . S
O677 Li617 1.956 . S
O677 Li619 1.961 . S
O677 C626 1.325 . S
O678 Li616 1.961 . S
O678 Li618 1.958 . S
O678 Li619 1.970 . S
O678 C648 1.325 1_565 S
O679 Li617 1.961 . S
O679 Li618 1.975 . S
O679 Li619 1.956 . S
O679 C654 1.325 . S
H680 C622 0.929 . S
H681 C623 0.930 . S
H682 C624 0.930 . S
H683 C625 0.930 . S
H684 C627 0.930 . S
H685 C629 0.929 . S
H686 C630 0.930 . S
H687 C631 0.930 . S
H688 C634 0.930 . S
H689 C637 0.929 . S
H690 C642 0.929 . S
H691 C643 0.930 . S
H692 C650 0.929 . S
H693 C651 0.930 . S
H694 C652 0.930 . S
H695 C653 0.930 . S
H696 C655 0.929 . S
H697 C656 0.930 . S
H698 C657 0.930 . S
H699 C658 0.930 . S
H700 C662 0.929 . S
H701 C664 0.930 . S
H702 C670 0.929 . S
H703 C671 0.930 1_545 S
Li704 N721 1.990 . S
Li704 O764 1.956 . S
Li704 O765 1.970 . S
Li704 O766 1.961 . S
Li705 N729 1.990 . S
Li705 O764 1.970 . S
Li705 O765 1.956 . S
Li705 O767 1.961 . S
Li706 N751 1.990 1_455 S
Li706 O764 1.961 . S
Li706 O766 1.956 . S
Li706 O767 1.970 . S
Li707 N757 1.990 . S
Li707 O765 1.961 . S
Li707 O766 1.970 . S
Li707 O767 1.956 . S
C708 C710 1.348 . S
C708 C711 1.356 . S
C708 O764 1.325 . S
N709 C712 1.314 . S
N709 C713 1.279 . S
C710 C708 1.348 . S
C710 C712 1.353 . S
C710 H768 0.929 . S
C711 C708 1.356 . S
C711 C713 1.358 . S
C711 H769 0.930 . S
C712 N709 1.314 . S
C712 C710 1.353 . S
C712 H770 0.930 . S
C713 N709 1.279 . S
C713 C711 1.358 . S
C713 H771 0.930 . S
C714 C717 1.348 . S
C714 C718 1.356 . S
C714 O765 1.325 . S
C715 N716 1.279 . S
C715 C718 1.358 . S
C715 H772 0.930 . S
N716 C715 1.279 . S
N716 C719 1.314 . S
C717 C714 1.348 . S
C717 C719 1.353 . S
C717 H773 0.929 . S
C718 C714 1.356 . S
C718 C715 1.358 . S
C718 H774 0.930 . S
C719 N716 1.314 . S
C719 C717 1.353 . S
C719 H775 0.930 . S
C720 N721 1.314 . S
C720 C725 1.353 . S
C720 H726 0.930 . S
N721 Li704 1.990 . S
N721 C720 1.314 . S
N721 C723 1.279 . S
C722 C723 1.358 . S
C722 C724 1.356 . S
C722 H776 0.930 . S
C723 N721 1.279 . S
C723 C722 1.358 . S
C723 H727 0.930 . S
C724 C722 1.356 . S
C724 C725 1.348 . S
C725 C720 1.353 . S
C725 C724 1.348 . S
C725 H777 0.929 . S
H726 C720 0.930 . S
H727 C723 0.930 . S
C728 N729 1.314 . S
C728 C730 1.353 . S
C728 H734 0.930 . S
N729 Li705 1.990 . S
N729 C728 1.314 . S
N729 C732 1.279 . S
C730 C728 1.353 . S
C730 C733 1.348 . S
C730 H778 0.929 . S
C731 C732 1.358 . S
C731 C733 1.356 . S
C731 H779 0.930 . S
C732 N729 1.279 . S
C732 C731 1.358 . S
C732 H735 0.930 . S
C733 C730 1.348 . S
C733 C731 1.356 . S
H734 C728 0.930 . S
H735 C732 0.930 . S
C736 C738 1.348 . S
C736 C739 1.356 . S
C736 O766 1.325 1_655 S
N737 C740 1.314 . S
N737 C741 1.279 . S
C738 C736 1.348 . S
C738 C740 1.353 . S
C738 H780 0.929 . S
C739 C736 1.356 . S
C739 C741 1.358 . S
C739 H781 0.930 . S
C740 N737 1.314 . S
C740 C738 1.353 . S
C740 H782 0.930 . S
C741 N737 1.279 . S
C741 C739 1.358 . S
C741 H783 0.930 . S
C742 C743 1.348 1_455 S
C742 C744 1.356 . S
C742 O767 1.325 . S
C743 C742 1.348 1_655 S
C743 C745 1.353 . S
C743 H784 0.929 . S
C744 C742 1.356 . S
C744 C746 1.358 . S
C744 H785 0.930 . S
C745 C743 1.353 . S
C745 N747 1.314 . S
C745 H786 0.930 . S
C746 C744 1.358 . S
C746 N747 1.279 1_455 S
C746 H787 0.930 . S
N747 C745 1.314 . S
N747 C746 1.279 1_655 S
C748 C750 1.353 . S
C748 N751 1.314 . S
C748 H754 0.930 . S
C749 N751 1.279 . S
C749 C752 1.358 . S
C749 H755 0.930 . S
C750 C748 1.353 . S
C750 C753 1.348 . S
C750 H788 0.929 . S
N751 Li706 1.990 1_655 S
N751 C748 1.314 . S
N751 C749 1.279 . S
C752 C749 1.358 . S
C752 C753 1.356 . S
C752 H789 0.930 . S
C753 C750 1.348 . S
C753 C752 1.356 . S
H754 C748 0.930 . S
H755 C749 0.930 . S
C756 N757 1.314 . S
C756 C758 1.353 . S
C756 H762 0.930 . S
N757 Li707 1.990 . S
N757 C756 1.314 . S
N757 C760 1.279 . S
C758 C756 1.353 . S
C758 C761 1.348 . S
C758 H790 0.929 . S
C759 C760 1.358 . S
C759 C761 1.356 . S
C759 H791 0.932 . S
C760 N757 1.279 . S
C760 C759 1.358 . S
C760 H763 0.930 . S
C761 C758 1.348 . S
C761 C759 1.356 . S
H762 C756 0.930 . S
H763 C760 0.930 . S
O764 Li704 1.956 . S
O764 Li705 1.970 . S
O764 Li706 1.961 . S
O764 C708 1.325 . S
O765 Li704 1.970 . S
O765 Li705 1.956 . S
O765 Li707 1.961 . S
O765 C714 1.325 . S
O766 Li704 1.961 . S
O766 Li706 1.956 . S
O766 Li707 1.970 . S
O766 C736 1.325 1_455 S
O767 Li705 1.961 . S
O767 Li706 1.970 . S
O767 Li707 1.956 . S
O767 C742 1.325 . S
H768 C710 0.929 . S
H769 C711 0.930 . S
H770 C712 0.930 . S
H771 C713 0.930 . S
H772 C715 0.930 . S
H773 C717 0.929 . S
H774 C718 0.930 . S
H775 C719 0.930 . S
H776 C722 0.930 . S
H777 C725 0.929 . S
H778 C730 0.929 . S
H779 C731 0.930 . S
H780 C738 0.929 . S
H781 C739 0.930 . S
H782 C740 0.930 . S
H783 C741 0.930 . S
H784 C743 0.929 . S
H785 C744 0.930 . S
H786 C745 0.930 . S
H787 C746 0.930 . S
H788 C750 0.929 . S
H789 C752 0.930 . S
H790 C758 0.929 . S
H791 C759 0.932 . S
Li792 N809 1.990 1_565 S
Li792 O852 1.956 . S
Li792 O853 1.970 . S
Li792 O854 1.961 . S
Li793 N817 1.990 . S
Li793 O852 1.970 . S
Li793 O853 1.956 . S
Li793 O855 1.961 . S
Li794 N839 1.990 . S
Li794 O852 1.961 . S
Li794 O854 1.956 . S
Li794 O855 1.970 . S
Li795 N845 1.990 . S
Li795 O853 1.961 . S
Li795 O854 1.970 . S
Li795 O855 1.956 . S
C796 C798 1.348 . S
C796 C799 1.356 . S
C796 O852 1.325 . S
N797 C800 1.314 . S
N797 C801 1.279 . S
C798 C796 1.348 . S
C798 C800 1.353 . S
C798 H856 0.929 . S
C799 C796 1.356 . S
C799 C801 1.358 . S
C799 H857 0.930 . S
C800 N797 1.314 . S
C800 C798 1.353 . S
C800 H858 0.930 . S
C801 N797 1.279 . S
C801 C799 1.358 . S
C801 H859 0.930 . S
C802 C805 1.348 1_565 S
C802 C806 1.356 . S
C802 O853 1.325 . S
C803 N804 1.279 1_565 S
C803 C806 1.358 . S
C803 H860 0.930 . S
N804 C803 1.279 1_545 S
N804 C807 1.314 . S
C805 C802 1.348 1_545 S
C805 C807 1.353 . S
C805 H861 0.929 . S
C806 C802 1.356 . S
C806 C803 1.358 . S
C806 H862 0.930 . S
C807 N804 1.314 . S
C807 C805 1.353 . S
C807 H863 0.930 . S
C808 N809 1.314 . S
C808 C813 1.353 . S
C808 H814 0.930 . S
N809 Li792 1.990 1_545 S
N809 C808 1.314 . S
N809 C811 1.279 . S
C810 C811 1.358 . S
C810 C812 1.356 . S
C810 H864 0.930 . S
C811 N809 1.279 . S
C811 C810 1.358 . S
C811 H815 0.930 . S
C812 C810 1.356 . S
C812 C813 1.348 . S
C813 C808 1.353 . S
C813 C812 1.348 . S
C813 H865 0.929 . S
H814 C808 0.930 . S
H815 C811 0.930 . S
C816 N817 1.314 . S
C816 C818 1.353 . S
C816 H822 0.930 . S
N817 Li793 1.990 . S
N817 C816 1.314 . S
N817 C820 1.279 . S
C818 C816 1.353 . S
C818 C821 1.348 . S
C818 H866 0.929 . S
C819 C820 1.358 . S
C819 C821 1.356 . S
C819 H867 0.930 . S
C820 N817 1.279 . S
C820 C819 1.358 . S
C820 H823 0.930 . S
C821 C818 1.348 . S
C821 C819 1.356 . S
H822 C816 0.930 . S
H823 C820 0.930 . S
C824 C826 1.348 . S
C824 C827 1.356 . S
C824 O854 1.325 1_545 S
N825 C828 1.314 . S
N825 C829 1.279 . S
C826 C824 1.348 . S
C826 C828 1.353 . S
C826 H868 0.929 1_545 S
C827 C824 1.356 . S
C827 C829 1.358 . S
C827 H869 0.930 . S
C828 N825 1.314 . S
C828 C826 1.353 . S
C828 H870 0.930 . S
C829 N825 1.279 . S
C829 C827 1.358 . S
C829 H871 0.930 . S
C830 C831 1.348 . S
C830 C832 1.356 . S
C830 O855 1.325 . S
C831 C830 1.348 . S
C831 C833 1.353 . S
C831 H872 0.929 . S
C832 C830 1.356 . S
C832 C834 1.358 . S
C832 H873 0.930 . S
C833 C831 1.353 . S
C833 N835 1.314 . S
C833 H874 0.930 . S
C834 C832 1.358 . S
C834 N835 1.279 . S
C834 H875 0.930 . S
N835 C833 1.314 . S
N835 C834 1.279 . S
C836 C838 1.353 . S
C836 N839 1.314 . S
C836 H842 0.930 . S
C837 N839 1.279 . S
C837 C840 1.358 . S
C837 H843 0.930 . S
C838 C836 1.353 . S
C838 C841 1.348 . S
C838 H876 0.929 . S
N839 Li794 1.990 . S
N839 C836 1.314 . S
N839 C837 1.279 . S
C840 C837 1.358 . S
C840 C841 1.356 . S
C840 H877 0.930 . S
C841 C838 1.348 . S
C841 C840 1.356 . S
H842 C836 0.930 . S
H843 C837 0.930 . S
C844 N845 1.314 . S
C844 C846 1.353 . S
C844 H850 0.930 1_565 S
N845 Li795 1.990 . S
N845 C844 1.314 . S
N845 C848 1.279 . S
C846 C844 1.353 . S
C846 C849 1.348 . S
C846 H878 0.929 1_565 S
C847 C848 1.358 . S
C847 C849 1.356 . S
C847 H879 0.930 . S
C848 N845 1.279 . S
C848 C847 1.358 . S
C848 H851 0.930 . S
C849 C846 1.348 . S
C849 C847 1.356 . S
H850 C844 0.930 1_545 S
H851 C848 0.930 . S
O852 Li792 1.956 . S
O852 Li793 1.970 . S
O852 Li794 1.961 . S
O852 C796 1.325 . S
O853 Li792 1.970 . S
O853 Li793 1.956 . S
O853 Li795 1.961 . S
O853 C802 1.325 . S
O854 Li792 1.961 . S
O854 Li794 1.956 . S
O854 Li795 1.970 . S
O854 C824 1.325 1_565 S
O855 Li793 1.961 . S
O855 Li794 1.970 . S
O855 Li795 1.956 . S
O855 C830 1.325 . S
H856 C798 0.929 . S
H857 C799 0.930 . S
H858 C800 0.930 . S
H859 C801 0.930 . S
H860 C803 0.930 . S
H861 C805 0.929 . S
H862 C806 0.930 . S
H863 C807 0.930 . S
H864 C810 0.930 . S
H865 C813 0.929 . S
H866 C818 0.929 . S
H867 C819 0.930 . S
H868 C826 0.929 1_565 S
H869 C827 0.930 . S
H870 C828 0.930 . S
H871 C829 0.930 . S
H872 C831 0.929 . S
H873 C832 0.930 . S
H874 C833 0.930 . S
H875 C834 0.930 . S
H876 C838 0.929 . S
H877 C840 0.930 . S
H878 C846 0.929 1_545 S
H879 C847 0.930 . S
Li880 N897 1.990 . S
Li880 O940 1.956 . S
Li880 O941 1.970 . S
Li880 O942 1.961 . S
Li881 N905 1.990 1_455 S
Li881 O940 1.970 . S
Li881 O941 1.956 . S
Li881 O943 1.961 . S
Li882 N927 1.990 . S
Li882 O940 1.961 . S
Li882 O942 1.956 . S
Li882 O943 1.970 . S
Li883 N933 1.990 . S
Li883 O941 1.961 . S
Li883 O942 1.970 . S
Li883 O943 1.956 . S
C884 C886 1.348 1_455 S
C884 C887 1.356 . S
C884 O940 1.325 . S
N885 C888 1.314 . S
N885 C889 1.279 1_655 S
C886 C884 1.348 1_655 S
C886 C888 1.353 . S
C886 H944 0.929 . S
C887 C884 1.356 . S
C887 C889 1.358 . S
C887 H945 0.930 . S
C888 N885 1.314 . S
C888 C886 1.353 . S
C888 H946 0.930 . S
C889 N885 1.279 1_455 S
C889 C887 1.358 . S
C889 H947 0.930 . S
C890 C893 1.348 . S
C890 C894 1.356 . S
C890 O941 1.325 . S
C891 N892 1.279 . S
C891 C894 1.358 . S
C891 H948 0.930 . S
N892 C891 1.279 . S
N892 C895 1.314 . S
C893 C890 1.348 . S
C893 C895 1.353 . S
C893 H949 0.929 . S
C894 C890 1.356 . S
C894 C891 1.358 . S
C894 H950 0.930 . S
C895 N892 1.314 . S
C895 C893 1.353 . S
C895 H951 0.930 . S
C896 N897 1.314 . S
C896 C901 1.353 . S
C896 H902 0.930 . S
N897 Li880 1.990 . S
N897 C896 1.314 . S
N897 C899 1.279 . S
C898 C899 1.358 . S
C898 C900 1.356 . S
C898 H952 0.930 . S
C899 N897 1.279 . S
C899 C898 1.358 . S
C899 H903 0.930 . S
C900 C898 1.356 . S
C900 C901 1.348 . S
C901 C896 1.353 . S
C901 C900 1.348 . S
C901 H953 0.929 . S
H902 C896 0.930 . S
H903 C899 0.930 . S
C904 N905 1.314 . S
C904 C906 1.353 . S
C904 H910 0.930 . S
N905 Li881 1.990 1_655 S
N905 C904 1.314 . S
N905 C908 1.279 . S
C906 C904 1.353 . S
C906 C909 1.348 . S
C906 H954 0.929 . S
C907 C908 1.358 . S
C907 C909 1.356 . S
C907 H955 0.930 . S
C908 N905 1.279 . S
C908 C907 1.358 . S
C908 H911 0.930 . S
C909 C906 1.348 . S
C909 C907 1.356 . S
H910 C904 0.930 . S
H911 C908 0.930 . S
C912 C914 1.348 . S
C912 C915 1.356 . S
C912 O942 1.325 . S
N913 C916 1.314 . S
N913 C917 1.279 . S
C914 C912 1.348 . S
C914 C916 1.353 . S
C914 H956 0.929 . S
C915 C912 1.356 . S
C915 C917 1.358 . S
C915 H957 0.930 . S
C916 N913 1.314 . S
C916 C914 1.353 . S
C916 H958 0.930 . S
C917 N913 1.279 . S
C917 C915 1.358 . S
C917 H959 0.930 . S
C918 C919 1.348 . S
C918 C920 1.356 . S
C918 O943 1.325 1_655 S
C919 C918 1.348 . S
C919 C921 1.353 . S
C919 H960 0.929 1_655 S
C920 C918 1.356 . S
C920 C922 1.358 . S
C920 H961 0.930 . S
C921 C919 1.353 . S
C921 N923 1.314 . S
C921 H962 0.930 . S
C922 C920 1.358 . S
C922 N923 1.279 . S
C922 H963 0.930 . S
N923 C921 1.314 . S
N923 C922 1.279 . S
C924 C926 1.353 . S
C924 N927 1.314 . S
C924 H930 0.930 1_455 S
C925 N927 1.279 . S
C925 C928 1.358 . S
C925 H931 0.930 . S
C926 C924 1.353 . S
C926 C929 1.348 . S
C926 H964 0.929 1_455 S
N927 Li882 1.990 . S
N927 C924 1.314 . S
N927 C925 1.279 . S
C928 C925 1.358 . S
C928 C929 1.356 . S
C928 H965 0.930 . S
C929 C926 1.348 . S
C929 C928 1.356 . S
H930 C924 0.930 1_655 S
H931 C925 0.930 . S
C932 N933 1.314 . S
C932 C934 1.353 . S
C932 H938 0.930 . S
N933 Li883 1.990 . S
N933 C932 1.314 . S
N933 C936 1.279 . S
C934 C932 1.353 . S
C934 C937 1.348 . S
C934 H966 0.929 . S
C935 C936 1.358 . S
C935 C937 1.356 . S
C935 H967 0.930 . S
C936 N933 1.279 . S
C936 C935 1.358 . S
C936 H939 0.930 . S
C937 C934 1.348 . S
C937 C935 1.356 . S
H938 C932 0.930 . S
H939 C936 0.930 . S
O940 Li880 1.956 . S
O940 Li881 1.970 . S
O940 Li882 1.961 . S
O940 C884 1.325 . S
O941 Li880 1.970 . S
O941 Li881 1.956 . S
O941 Li883 1.961 . S
O941 C890 1.325 . S
O942 Li880 1.961 . S
O942 Li882 1.956 . S
O942 Li883 1.970 . S
O942 C912 1.325 . S
O943 Li881 1.961 . S
O943 Li882 1.970 . S
O943 Li883 1.956 . S
O943 C918 1.325 1_455 S
H944 C886 0.929 . S
H945 C887 0.930 . S
H946 C888 0.930 . S
H947 C889 0.930 . S
H948 C891 0.930 . S
H949 C893 0.929 . S
H950 C894 0.930 . S
H951 C895 0.930 . S
H952 C898 0.930 . S
H953 C901 0.929 . S
H954 C906 0.929 . S
H955 C907 0.930 . S
H956 C914 0.929 . S
H957 C915 0.930 . S
H958 C916 0.930 . S
H959 C917 0.930 . S
H960 C919 0.929 1_455 S
H961 C920 0.930 . S
H962 C921 0.930 . S
H963 C922 0.930 . S
H964 C926 0.929 1_655 S
H965 C928 0.930 . S
H966 C934 0.929 . S
H967 C935 0.930 . S
Li968 N985 1.990 . S
Li968 O1028 1.956 . S
Li968 O1029 1.970 . S
Li968 O1030 1.961 . S
Li969 N993 1.990 . S
Li969 O1028 1.970 . S
Li969 O1029 1.956 . S
Li969 O1031 1.961 . S
Li970 N1015 1.990 . S
Li970 O1028 1.961 . S
Li970 O1030 1.956 . S
Li970 O1031 1.970 . S
Li971 N1021 1.990 . S
Li971 O1029 1.961 . S
Li971 O1030 1.970 . S
Li971 O1031 1.956 . S
C972 C974 1.348 . S
C972 C975 1.356 . S
C972 O1028 1.325 . S
N973 C976 1.314 . S
N973 C977 1.279 . S
C974 C972 1.348 . S
C974 C976 1.353 . S
C974 H1032 0.929 . S
C975 C972 1.356 . S
C975 C977 1.358 . S
C975 H1033 0.930 . S
C976 N973 1.314 . S
C976 C974 1.353 . S
C976 H1034 0.930 . S
C977 N973 1.279 . S
C977 C975 1.358 . S
C977 H1035 0.930 . S
C978 C981 1.348 . S
C978 C982 1.356 . S
C978 O1029 1.325 . S
C979 N980 1.279 . S
C979 C982 1.358 . S
C979 H1036 0.930 . S
N980 C979 1.279 . S
N980 C983 1.314 . S
C981 C978 1.348 . S
C981 C983 1.353 . S
C981 H1037 0.929 . S
C982 C978 1.356 . S
C982 C979 1.358 . S
C982 H1038 0.930 . S
C983 N980 1.314 . S
C983 C981 1.353 . S
C983 H1039 0.930 . S
C984 N985 1.314 . S
C984 C989 1.353 . S
C984 H990 0.930 . S
N985 Li968 1.990 . S
N985 C984 1.314 . S
N985 C987 1.279 . S
C986 C987 1.358 . S
C986 C988 1.356 . S
C986 H1040 0.930 . S
C987 N985 1.279 . S
C987 C986 1.358 . S
C987 H991 0.930 . S
C988 C986 1.356 . S
C988 C989 1.348 . S
C989 C984 1.353 . S
C989 C988 1.348 . S
C989 H1041 0.929 . S
H990 C984 0.930 . S
H991 C987 0.930 . S
C992 N993 1.314 . S
C992 C994 1.353 . S
C992 H998 0.930 . S
N993 Li969 1.990 . S
N993 C992 1.314 . S
N993 C996 1.279 . S
C994 C992 1.353 . S
C994 C997 1.348 . S
C994 H1042 0.929 . S
C995 C996 1.358 . S
C995 C997 1.356 . S
C995 H1043 0.930 . S
C996 N993 1.279 . S
C996 C995 1.358 . S
C996 H999 0.930 . S
C997 C994 1.348 . S
C997 C995 1.356 . S
H998 C992 0.930 . S
H999 C996 0.930 . S
C1000 C1002 1.348 . S
C1000 C1003 1.356 . S
C1000 O1030 1.325 . S
N1001 C1004 1.314 . S
N1001 C1005 1.279 . S
C1002 C1000 1.348 . S
C1002 C1004 1.353 . S
C1002 H1044 0.929 . S
C1003 C1000 1.356 . S
C1003 C1005 1.358 . S
C1003 H1045 0.930 . S
C1004 N1001 1.314 . S
C1004 C1002 1.353 . S
C1004 H1046 0.930 . S
C1005 N1001 1.279 . S
C1005 C1003 1.358 . S
C1005 H1047 0.930 . S
C1006 C1007 1.348 . S
C1006 C1008 1.356 . S
C1006 O1031 1.325 . S
C1007 C1006 1.348 . S
C1007 C1009 1.353 . S
C1007 H1048 0.929 . S
C1008 C1006 1.356 . S
C1008 C1010 1.358 . S
C1008 H1049 0.930 . S
C1009 C1007 1.353 . S
C1009 N1011 1.314 . S
C1009 H1050 0.930 . S
C1010 C1008 1.358 . S
C1010 N1011 1.279 . S
C1010 H1051 0.930 . S
N1011 C1009 1.314 . S
N1011 C1010 1.279 . S
C1012 C1014 1.353 . S
C1012 N1015 1.314 . S
C1012 H1018 0.930 . S
C1013 N1015 1.279 . S
C1013 C1016 1.358 . S
C1013 H1019 0.930 . S
C1014 C1012 1.353 . S
C1014 C1017 1.348 . S
C1014 H1052 0.929 . S
N1015 Li970 1.990 . S
N1015 C1012 1.314 . S
N1015 C1013 1.279 . S
C1016 C1013 1.358 . S
C1016 C1017 1.356 . S
C1016 H1053 0.930 . S
C1017 C1014 1.348 . S
C1017 C1016 1.356 . S
H1018 C1012 0.930 . S
H1019 C1013 0.930 . S
C1020 N1021 1.314 . S
C1020 C1022 1.353 . S
C1020 H1026 0.930 . S
N1021 Li971 1.990 . S
N1021 C1020 1.314 . S
N1021 C1024 1.279 . S
C1022 C1020 1.353 . S
C1022 C1025 1.348 . S
C1022 H1054 0.929 . S
C1023 C1024 1.358 . S
C1023 C1025 1.356 . S
C1023 H1055 0.930 . S
C1024 N1021 1.279 . S
C1024 C1023 1.358 . S
C1024 H1027 0.930 . S
C1025 C1022 1.348 . S
C1025 C1023 1.356 . S
H1026 C1020 0.930 . S
H1027 C1024 0.930 . S
O1028 Li968 1.956 . S
O1028 Li969 1.970 . S
O1028 Li970 1.961 . S
O1028 C972 1.325 . S
O1029 Li968 1.970 . S
O1029 Li969 1.956 . S
O1029 Li971 1.961 . S
O1029 C978 1.325 . S
O1030 Li968 1.961 . S
O1030 Li970 1.956 . S
O1030 Li971 1.970 . S
O1030 C1000 1.325 . S
O1031 Li969 1.961 . S
O1031 Li970 1.970 . S
O1031 Li971 1.956 . S
O1031 C1006 1.325 . S
H1032 C974 0.929 . S
H1033 C975 0.930 . S
H1034 C976 0.930 . S
H1035 C977 0.930 . S
H1036 C979 0.930 . S
H1037 C981 0.929 . S
H1038 C982 0.930 . S
H1039 C983 0.930 . S
H1040 C986 0.930 . S
H1041 C989 0.929 . S
H1042 C994 0.929 . S
H1043 C995 0.930 . S
H1044 C1002 0.929 . S
H1045 C1003 0.930 . S
H1046 C1004 0.930 . S
H1047 C1005 0.930 . S
H1048 C1007 0.929 . S
H1049 C1008 0.930 . S
H1050 C1009 0.930 . S
H1051 C1010 0.930 . S
H1052 C1014 0.929 . S
H1053 C1016 0.930 . S
H1054 C1022 0.929 . S
H1055 C1023 0.930 . S
Li1056 N1073 1.990 1_545 S
Li1056 O1116 1.956 . S
Li1056 O1117 1.970 . S
Li1056 O1118 1.961 . S
Li1057 N1081 1.990 . S
Li1057 O1116 1.970 . S
Li1057 O1117 1.956 . S
Li1057 O1119 1.961 . S
Li1058 N1103 1.990 . S
Li1058 O1116 1.961 . S
Li1058 O1118 1.956 . S
Li1058 O1119 1.970 . S
Li1059 N1109 1.990 . S
Li1059 O1117 1.961 . S
Li1059 O1118 1.970 . S
Li1059 O1119 1.956 . S
C1060 C1062 1.348 . S
C1060 C1063 1.356 . S
C1060 O1116 1.325 1_565 S
N1061 C1064 1.314 . S
N1061 C1065 1.279 . S
C1062 C1060 1.348 . S
C1062 C1064 1.353 . S
C1062 H1120 0.929 . S
C1063 C1060 1.356 . S
C1063 C1065 1.358 . S
C1063 H1121 0.930 . S
C1064 N1061 1.314 . S
C1064 C1062 1.353 . S
C1064 H1122 0.930 . S
C1065 N1061 1.279 . S
C1065 C1063 1.358 . S
C1065 H1123 0.930 . S
C1066 C1069 1.348 1_545 S
C1066 C1070 1.356 . S
C1066 O1117 1.325 . S
C1067 N1068 1.279 1_545 S
C1067 C1070 1.358 . S
C1067 H1124 0.930 . S
N1068 C1067 1.279 1_565 S
N1068 C1071 1.314 . S
C1069 C1066 1.348 1_565 S
C1069 C1071 1.353 . S
C1069 H1125 0.929 . S
C1070 C1066 1.356 . S
C1070 C1067 1.358 . S
C1070 H1126 0.930 . S
C1071 N1068 1.314 . S
C1071 C1069 1.353 . S
C1071 H1127 0.930 . S
C1072 N1073 1.314 . S
C1072 C1077 1.353 . S
C1072 H1078 0.930 . S
N1073 Li1056 1.990 1_565 S
N1073 C1072 1.314 . S
N1073 C1075 1.279 . S
C1074 C1075 1.358 . S
C1074 C1076 1.356 . S
C1074 H1128 0.930 . S
C1075 N1073 1.279 . S
C1075 C1074 1.358 . S
C1075 H1079 0.930 . S
C1076 C1074 1.356 . S
C1076 C1077 1.348 . S
C1077 C1072 1.353 . S
C1077 C1076 1.348 . S
C1077 H1129 0.929 . S
H1078 C1072 0.930 . S
H1079 C1075 0.930 . S
C1080 N1081 1.314 . S
C1080 C1082 1.353 . S
C1080 H1086 0.930 . S
N1081 Li1057 1.990 . S
N1081 C1080 1.314 . S
N1081 C1084 1.279 . S
C1082 C1080 1.353 . S
C1082 C1085 1.348 . S
C1082 H1130 0.929 . S
C1083 C1084 1.358 . S
C1083 C1085 1.356 . S
C1083 H1131 0.925 1_545 S
C1084 N1081 1.279 . S
C1084 C1083 1.358 . S
C1084 H1087 0.930 . S
C1085 C1082 1.348 . S
C1085 C1083 1.356 . S
H1086 C1080 0.930 . S
H1087 C1084 0.930 . S
C1088 C1090 1.348 . S
C1088 C1091 1.356 . S
C1088 O1118 1.325 . S
N1089 C1092 1.314 . S
N1089 C1093 1.279 . S
C1090 C1088 1.348 . S
C1090 C1092 1.353 . S
C1090 H1132 0.929 . S
C1091 C1088 1.356 . S
C1091 C1093 1.358 . S
C1091 H1133 0.930 . S
C1092 N1089 1.314 . S
C1092 C1090 1.353 . S
C1092 H1134 0.930 . S
C1093 N1089 1.279 . S
C1093 C1091 1.358 . S
C1093 H1135 0.930 . S
C1094 C1095 1.348 . S
C1094 C1096 1.356 . S
C1094 O1119 1.325 . S
C1095 C1094 1.348 . S
C1095 C1097 1.353 . S
C1095 H1136 0.929 . S
C1096 C1094 1.356 . S
C1096 C1098 1.358 . S
C1096 H1137 0.930 . S
C1097 C1095 1.353 . S
C1097 N1099 1.314 . S
C1097 H1138 0.930 . S
C1098 C1096 1.358 . S
C1098 N1099 1.279 . S
C1098 H1139 0.930 . S
N1099 C1097 1.314 . S
N1099 C1098 1.279 . S
C1100 C1102 1.353 . S
C1100 N1103 1.314 . S
C1100 H1106 0.930 . S
C1101 N1103 1.279 . S
C1101 C1104 1.358 . S
C1101 H1107 0.930 . S
C1102 C1100 1.353 . S
C1102 C1105 1.348 . S
C1102 H1140 0.929 . S
N1103 Li1058 1.990 . S
N1103 C1100 1.314 . S
N1103 C1101 1.279 . S
C1104 C1101 1.358 . S
C1104 C1105 1.356 . S
C1104 H1141 0.930 . S
C1105 C1102 1.348 . S
C1105 C1104 1.356 . S
H1106 C1100 0.930 . S
H1107 C1101 0.930 . S
C1108 N1109 1.314 . S
C1108 C1110 1.353 . S
C1108 H1114 0.930 . S
N1109 Li1059 1.990 . S
N1109 C1108 1.314 . S
N1109 C1112 1.279 . S
C1110 C1108 1.353 . S
C1110 C1113 1.348 . S
C1110 H1142 0.929 . S
C1111 C1112 1.358 . S
C1111 C1113 1.356 . S
C1111 H1143 0.930 . S
C1112 N1109 1.279 . S
C1112 C1111 1.358 . S
C1112 H1115 0.930 . S
C1113 C1110 1.348 . S
C1113 C1111 1.356 . S
H1114 C1108 0.930 . S
H1115 C1112 0.930 . S
O1116 Li1056 1.956 . S
O1116 Li1057 1.970 . S
O1116 Li1058 1.961 . S
O1116 C1060 1.325 1_545 S
O1117 Li1056 1.970 . S
O1117 Li1057 1.956 . S
O1117 Li1059 1.961 . S
O1117 C1066 1.325 . S
O1118 Li1056 1.961 . S
O1118 Li1058 1.956 . S
O1118 Li1059 1.970 . S
O1118 C1088 1.325 . S
O1119 Li1057 1.961 . S
O1119 Li1058 1.970 . S
O1119 Li1059 1.956 . S
O1119 C1094 1.325 . S
H1120 C1062 0.929 . S
H1121 C1063 0.930 . S
H1122 C1064 0.930 . S
H1123 C1065 0.930 . S
H1124 C1067 0.930 . S
H1125 C1069 0.929 . S
H1126 C1070 0.930 . S
H1127 C1071 0.930 . S
H1128 C1074 0.930 . S
H1129 C1077 0.929 . S
H1130 C1082 0.929 . S
H1131 C1083 0.925 1_565 S
H1132 C1090 0.929 . S
H1133 C1091 0.930 . S
H1134 C1092 0.930 . S
H1135 C1093 0.930 . S
H1136 C1095 0.929 . S
H1137 C1096 0.930 . S
H1138 C1097 0.930 . S
H1139 C1098 0.930 . S
H1140 C1102 0.929 . S
H1141 C1104 0.930 . S
H1142 C1110 0.929 . S
H1143 C1111 0.930 . S
Li1144 N1161 1.948 1_655 S
Li1144 O1204 1.974 . S
Li1144 O1205 2.002 . S
Li1144 O1206 1.980 . S
Li1145 N1169 1.990 . S
Li1145 O1204 1.970 . S
Li1145 O1205 1.956 . S
Li1145 O1207 1.961 . S
Li1146 N1191 1.990 . S
Li1146 O1204 1.961 . S
Li1146 O1206 1.956 . S
Li1146 O1207 1.970 . S
Li1147 N1197 1.990 . S
Li1147 O1205 1.961 . S
Li1147 O1206 1.970 . S
Li1147 O1207 1.956 . S
C1148 C1150 1.348 . S
C1148 C1151 1.356 . S
C1148 O1204 1.325 1_455 S
N1149 C1152 1.314 . S
N1149 C1153 1.279 . S
C1150 C1148 1.348 . S
C1150 C1152 1.353 . S
C1150 H1208 0.929 . S
C1151 C1148 1.356 . S
C1151 C1153 1.358 . S
C1151 H1209 0.930 . S
C1152 N1149 1.314 . S
C1152 C1150 1.353 . S
C1152 H1210 0.930 . S
C1153 N1149 1.279 . S
C1153 C1151 1.358 . S
C1153 H1211 0.930 . S
C1154 C1157 1.348 1_655 S
C1154 C1158 1.356 . S
C1154 O1205 1.325 . S
C1155 N1156 1.279 1_655 S
C1155 C1158 1.358 . S
C1155 H1212 0.930 . S
N1156 C1155 1.279 1_455 S
N1156 C1159 1.314 . S
C1157 C1154 1.348 1_455 S
C1157 C1159 1.353 . S
C1157 H1213 0.929 . S
C1158 C1154 1.356 . S
C1158 C1155 1.358 . S
C1158 H1214 0.930 . S
C1159 N1156 1.314 . S
C1159 C1157 1.353 . S
C1159 H1215 0.930 . S
C1160 N1161 1.314 . S
C1160 C1165 1.353 . S
C1160 H1166 0.930 . S
N1161 Li1144 1.948 1_455 S
N1161 C1160 1.314 . S
N1161 C1163 1.279 . S
C1162 C1163 1.358 . S
C1162 C1164 1.356 . S
C1162 H1216 0.930 . S
C1163 N1161 1.279 . S
C1163 C1162 1.358 . S
C1163 H1167 0.930 . S
C1164 C1162 1.356 . S
C1164 C1165 1.348 . S
C1165 C1160 1.353 . S
C1165 C1164 1.348 . S
C1165 H1217 0.929 . S
H1166 C1160 0.930 . S
H1167 C1163 0.930 . S
C1168 N1169 1.314 . S
C1168 C1170 1.353 . S
C1168 H1174 0.930 . S
N1169 Li1145 1.990 . S
N1169 C1168 1.314 . S
N1169 C1172 1.279 . S
C1170 C1168 1.353 . S
C1170 C1173 1.348 . S
C1170 H1218 0.929 . S
C1171 C1172 1.358 . S
C1171 C1173 1.356 . S
C1171 H1219 0.924 1_655 S
C1172 N1169 1.279 . S
C1172 C1171 1.358 . S
C1172 H1175 0.930 . S
C1173 C1170 1.348 . S
C1173 C1171 1.356 . S
H1174 C1168 0.930 . S
H1175 C1172 0.930 . S
C1176 C1178 1.348 . S
C1176 C1179 1.356 . S
C1176 O1206 1.325 . S
N1177 C1180 1.314 . S
N1177 C1181 1.279 . S
C1178 C1176 1.348 . S
C1178 C1180 1.353 . S
C1178 H1220 0.929 . S
C1179 C1176 1.356 . S
C1179 C1181 1.358 . S
C1179 H1221 0.930 . S
C1180 N1177 1.314 . S
C1180 C1178 1.353 . S
C1180 H1222 0.930 . S
C1181 N1177 1.279 . S
C1181 C1179 1.358 . S
C1181 H1223 0.930 . S
C1182 C1183 1.348 . S
C1182 C1184 1.356 . S
C1182 O1207 1.325 . S
C1183 C1182 1.348 . S
C1183 C1185 1.353 . S
C1183 H1224 0.929 . S
C1184 C1182 1.356 . S
C1184 C1186 1.358 . S
C1184 H1225 0.930 . S
C1185 C1183 1.353 . S
C1185 N1187 1.314 . S
C1185 H1226 0.930 . S
C1186 C1184 1.358 . S
C1186 N1187 1.279 . S
C1186 H1227 0.930 . S
N1187 C1185 1.314 . S
N1187 C1186 1.279 . S
C1188 C1190 1.353 . S
C1188 N1191 1.314 . S
C1188 H1194 0.930 . S
C1189 N1191 1.279 . S
C1189 C1192 1.358 . S
C1189 H1195 0.930 . S
C1190 C1188 1.353 . S
C1190 C1193 1.348 . S
C1190 H1228 0.929 . S
N1191 Li1146 1.990 . S
N1191 C1188 1.314 . S
N1191 C1189 1.279 . S
C1192 C1189 1.358 . S
C1192 C1193 1.356 . S
C1192 H1229 0.930 . S
C1193 C1190 1.348 . S
C1193 C1192 1.356 . S
H1194 C1188 0.930 . S
H1195 C1189 0.930 . S
C1196 N1197 1.314 . S
C1196 C1198 1.353 . S
C1196 H1202 0.930 . S
N1197 Li1147 1.990 . S
N1197 C1196 1.314 . S
N1197 C1200 1.279 . S
C1198 C1196 1.353 . S
C1198 C1201 1.348 . S
C1198 H1230 0.929 . S
C1199 C1200 1.358 . S
C1199 C1201 1.356 . S
C1199 H1231 0.930 . S
C1200 N1197 1.279 . S
C1200 C1199 1.358 . S
C1200 H1203 0.930 . S
C1201 C1198 1.348 . S
C1201 C1199 1.356 . S
H1202 C1196 0.930 . S
H1203 C1200 0.930 . S
O1204 Li1144 1.974 . S
O1204 Li1145 1.970 . S
O1204 Li1146 1.961 . S
O1204 C1148 1.325 1_655 S
O1205 Li1144 2.002 . S
O1205 Li1145 1.956 . S
O1205 Li1147 1.961 . S
O1205 C1154 1.325 . S
O1206 Li1144 1.980 . S
O1206 Li1146 1.956 . S
O1206 Li1147 1.970 . S
O1206 C1176 1.325 . S
O1207 Li1145 1.961 . S
O1207 Li1146 1.970 . S
O1207 Li1147 1.956 . S
O1207 C1182 1.325 . S
H1208 C1150 0.929 . S
H1209 C1151 0.930 . S
H1210 C1152 0.930 . S
H1211 C1153 0.930 . S
H1212 C1155 0.930 . S
H1213 C1157 0.929 . S
H1214 C1158 0.930 . S
H1215 C1159 0.930 . S
H1216 C1162 0.930 . S
H1217 C1165 0.929 . S
H1218 C1170 0.929 . S
H1219 C1171 0.924 1_455 S
H1220 C1178 0.929 . S
H1221 C1179 0.930 . S
H1222 C1180 0.930 . S
H1223 C1181 0.930 . S
H1224 C1183 0.929 . S
H1225 C1184 0.930 . S
H1226 C1185 0.930 . S
H1227 C1186 0.930 . S
H1228 C1190 0.929 . S
H1229 C1192 0.930 . S
H1230 C1198 0.929 . S
H1231 C1199 0.930 . S
Li1232 N1249 1.990 . S
Li1232 O1292 1.956 . S
Li1232 O1293 1.970 . S
Li1232 O1294 1.961 . S
Li1233 N1257 1.990 . S
Li1233 O1292 1.970 . S
Li1233 O1293 1.956 . S
Li1233 O1295 1.961 . S
Li1234 N1279 1.990 . S
Li1234 O1292 1.961 . S
Li1234 O1294 1.956 . S
Li1234 O1295 1.970 . S
Li1235 N1285 1.990 . S
Li1235 O1293 1.961 . S
Li1235 O1294 1.970 . S
Li1235 O1295 1.956 . S
C1236 C1238 1.348 . S
C1236 C1239 1.356 . S
C1236 O1292 1.325 . S
N1237 C1240 1.314 . S
N1237 C1241 1.279 . S
C1238 C1236 1.348 . S
C1238 C1240 1.353 . S
C1238 H1296 0.929 . S
C1239 C1236 1.356 . S
C1239 C1241 1.358 . S
C1239 H1297 0.930 . S
C1240 N1237 1.314 . S
C1240 C1238 1.353 . S
C1240 H1298 0.930 . S
C1241 N1237 1.279 . S
C1241 C1239 1.358 . S
C1241 H1299 0.930 . S
C1242 C1245 1.348 . S
C1242 C1246 1.356 . S
C1242 O1293 1.325 . S
C1243 N1244 1.279 . S
C1243 C1246 1.358 . S
C1243 H1300 0.930 . S
N1244 C1243 1.279 . S
N1244 C1247 1.314 . S
C1245 C1242 1.348 . S
C1245 C1247 1.353 . S
C1245 H1301 0.929 . S
C1246 C1242 1.356 . S
C1246 C1243 1.358 . S
C1246 H1302 0.930 . S
C1247 N1244 1.314 . S
C1247 C1245 1.353 . S
C1247 H1303 0.930 . S
C1248 N1249 1.314 . S
C1248 C1253 1.353 . S
C1248 H1254 0.930 . S
N1249 Li1232 1.990 . S
N1249 C1248 1.314 . S
N1249 C1251 1.279 . S
C1250 C1251 1.358 . S
C1250 C1252 1.356 . S
C1250 H1304 0.930 . S
C1251 N1249 1.279 . S
C1251 C1250 1.358 . S
C1251 H1255 0.930 . S
C1252 C1250 1.356 . S
C1252 C1253 1.348 . S
C1253 C1248 1.353 . S
C1253 C1252 1.348 . S
C1253 H1305 0.929 . S
H1254 C1248 0.930 . S
H1255 C1251 0.930 . S
C1256 N1257 1.314 . S
C1256 C1258 1.353 . S
C1256 H1262 0.930 . S
N1257 Li1233 1.990 . S
N1257 C1256 1.314 . S
N1257 C1260 1.279 . S
C1258 C1256 1.353 . S
C1258 C1261 1.348 . S
C1258 H1306 0.929 . S
C1259 C1260 1.358 . S
C1259 C1261 1.356 . S
C1259 H1307 0.930 . S
C1260 N1257 1.279 . S
C1260 C1259 1.358 . S
C1260 H1263 0.930 . S
C1261 C1258 1.348 . S
C1261 C1259 1.356 . S
H1262 C1256 0.930 . S
H1263 C1260 0.930 . S
C1264 C1266 1.348 . S
C1264 C1267 1.356 . S
C1264 O1294 1.325 . S
N1265 C1268 1.314 . S
N1265 C1269 1.279 . S
C1266 C1264 1.348 . S
C1266 C1268 1.353 . S
C1266 H1308 0.929 . S
C1267 C1264 1.356 . S
C1267 C1269 1.358 . S
C1267 H1309 0.930 . S
C1268 N1265 1.314 . S
C1268 C1266 1.353 . S
C1268 H1310 0.930 . S
C1269 N1265 1.279 . S
C1269 C1267 1.358 . S
C1269 H1311 0.930 . S
C1270 C1271 1.348 . S
C1270 C1272 1.356 . S
C1270 O1295 1.325 . S
C1271 C1270 1.348 . S
C1271 C1273 1.353 . S
C1271 H1312 0.929 . S
C1272 C1270 1.356 . S
C1272 C1274 1.358 . S
C1272 H1313 0.930 . S
C1273 C1271 1.353 . S
C1273 N1275 1.314 . S
C1273 H1314 0.930 . S
C1274 C1272 1.358 . S
C1274 N1275 1.279 . S
C1274 H1315 0.930 . S
N1275 C1273 1.314 . S
N1275 C1274 1.279 . S
C1276 C1278 1.353 . S
C1276 N1279 1.314 . S
C1276 H1282 0.930 . S
C1277 N1279 1.279 . S
C1277 C1280 1.358 . S
C1277 H1283 0.930 . S
C1278 C1276 1.353 . S
C1278 C1281 1.348 . S
C1278 H1316 0.929 . S
N1279 Li1234 1.990 . S
N1279 C1276 1.314 . S
N1279 C1277 1.279 . S
C1280 C1277 1.358 . S
C1280 C1281 1.356 . S
C1280 H1317 0.930 . S
C1281 C1278 1.348 . S
C1281 C1280 1.356 . S
H1282 C1276 0.930 . S
H1283 C1277 0.930 . S
C1284 N1285 1.314 . S
C1284 C1286 1.353 . S
C1284 H1290 0.930 . S
N1285 Li1235 1.990 . S
N1285 C1284 1.314 . S
N1285 C1288 1.279 . S
C1286 C1284 1.353 . S
C1286 C1289 1.348 . S
C1286 H1318 0.929 . S
C1287 C1288 1.358 . S
C1287 C1289 1.356 . S
C1287 H1319 0.930 . S
C1288 N1285 1.279 . S
C1288 C1287 1.358 . S
C1288 H1291 0.930 . S
C1289 C1286 1.348 . S
C1289 C1287 1.356 . S
H1290 C1284 0.930 . S
H1291 C1288 0.930 . S
O1292 Li1232 1.956 . S
O1292 Li1233 1.970 . S
O1292 Li1234 1.961 . S
O1292 C1236 1.325 . S
O1293 Li1232 1.970 . S
O1293 Li1233 1.956 . S
O1293 Li1235 1.961 . S
O1293 C1242 1.325 . S
O1294 Li1232 1.961 . S
O1294 Li1234 1.956 . S
O1294 Li1235 1.970 . S
O1294 C1264 1.325 . S
O1295 Li1233 1.961 . S
O1295 Li1234 1.970 . S
O1295 Li1235 1.956 . S
O1295 C1270 1.325 . S
H1296 C1238 0.929 . S
H1297 C1239 0.930 . S
H1298 C1240 0.930 . S
H1299 C1241 0.930 . S
H1300 C1243 0.930 . S
H1301 C1245 0.929 . S
H1302 C1246 0.930 . S
H1303 C1247 0.930 . S
H1304 C1250 0.930 . S
H1305 C1253 0.929 . S
H1306 C1258 0.929 . S
H1307 C1259 0.930 . S
H1308 C1266 0.929 . S
H1309 C1267 0.930 . S
H1310 C1268 0.930 . S
H1311 C1269 0.930 . S
H1312 C1271 0.929 . S
H1313 C1272 0.930 . S
H1314 C1273 0.930 . S
H1315 C1274 0.930 . S
H1316 C1278 0.929 . S
H1317 C1280 0.930 . S
H1318 C1286 0.929 . S
H1319 C1287 0.930 . S
Li1320 N1337 1.990 . S
Li1320 O1380 1.956 . S
Li1320 O1381 1.970 . S
Li1320 O1382 1.961 . S
Li1321 N1345 1.990 . S
Li1321 O1380 1.970 . S
Li1321 O1381 1.956 . S
Li1321 O1383 1.961 . S
Li1322 N1367 1.990 . S
Li1322 O1380 1.961 . S
Li1322 O1382 1.956 . S
Li1322 O1383 1.970 . S
Li1323 N1373 1.990 . S
Li1323 O1381 1.961 . S
Li1323 O1382 1.970 . S
Li1323 O1383 1.956 . S
C1324 C1326 1.348 . S
C1324 C1327 1.356 . S
C1324 O1380 1.325 . S
N1325 C1328 1.314 . S
N1325 C1329 1.279 . S
C1326 C1324 1.348 . S
C1326 C1328 1.353 . S
C1326 H1384 0.929 . S
C1327 C1324 1.356 . S
C1327 C1329 1.358 . S
C1327 H1385 0.930 . S
C1328 N1325 1.314 . S
C1328 C1326 1.353 . S
C1328 H1386 0.930 . S
C1329 N1325 1.279 . S
C1329 C1327 1.358 . S
C1329 H1387 0.930 . S
C1330 C1333 1.348 . S
C1330 C1334 1.356 . S
C1330 O1381 1.325 . S
C1331 N1332 1.279 . S
C1331 C1334 1.358 . S
C1331 H1388 0.930 . S
N1332 C1331 1.279 . S
N1332 C1335 1.314 . S
C1333 C1330 1.348 . S
C1333 C1335 1.353 . S
C1333 H1389 0.929 . S
C1334 C1330 1.356 . S
C1334 C1331 1.358 . S
C1334 H1390 0.930 . S
C1335 N1332 1.314 . S
C1335 C1333 1.353 . S
C1335 H1391 0.930 . S
C1336 N1337 1.314 . S
C1336 C1341 1.353 . S
C1336 H1342 0.930 . S
N1337 Li1320 1.990 . S
N1337 C1336 1.314 . S
N1337 C1339 1.279 . S
C1338 C1339 1.358 . S
C1338 C1340 1.356 . S
C1338 H1392 0.930 . S
C1339 N1337 1.279 . S
C1339 C1338 1.358 . S
C1339 H1343 0.930 . S
C1340 C1338 1.356 . S
C1340 C1341 1.348 . S
C1341 C1336 1.353 . S
C1341 C1340 1.348 . S
C1341 H1393 0.929 . S
H1342 C1336 0.930 . S
H1343 C1339 0.930 . S
C1344 N1345 1.314 . S
C1344 C1346 1.353 . S
C1344 H1350 0.930 . S
N1345 Li1321 1.990 . S
N1345 C1344 1.314 . S
N1345 C1348 1.279 . S
C1346 C1344 1.353 . S
C1346 C1349 1.348 . S
C1346 H1394 0.929 . S
C1347 C1348 1.358 . S
C1347 C1349 1.356 . S
C1347 H1395 0.930 . S
C1348 N1345 1.279 . S
C1348 C1347 1.358 . S
C1348 H1351 0.930 . S
C1349 C1346 1.348 . S
C1349 C1347 1.356 . S
H1350 C1344 0.930 . S
H1351 C1348 0.930 . S
C1352 C1354 1.348 . S
C1352 C1355 1.356 . S
C1352 O1382 1.325 . S
N1353 C1356 1.314 . S
N1353 C1357 1.279 . S
C1354 C1352 1.348 . S
C1354 C1356 1.353 . S
C1354 H1396 0.929 . S
C1355 C1352 1.356 . S
C1355 C1357 1.358 . S
C1355 H1397 0.930 . S
C1356 N1353 1.314 . S
C1356 C1354 1.353 . S
C1356 H1398 0.930 . S
C1357 N1353 1.279 . S
C1357 C1355 1.358 . S
C1357 H1399 0.930 . S
C1358 C1359 1.348 . S
C1358 C1360 1.356 . S
C1358 O1383 1.325 . S
C1359 C1358 1.348 . S
C1359 C1361 1.353 . S
C1359 H1400 0.929 . S
C1360 C1358 1.356 . S
C1360 C1362 1.358 . S
C1360 H1401 0.930 . S
C1361 C1359 1.353 . S
C1361 N1363 1.314 . S
C1361 H1402 0.930 . S
C1362 C1360 1.358 . S
C1362 N1363 1.279 . S
C1362 H1403 0.930 . S
N1363 C1361 1.314 . S
N1363 C1362 1.279 . S
C1364 C1366 1.353 . S
C1364 N1367 1.314 . S
C1364 H1370 0.930 . S
C1365 N1367 1.279 . S
C1365 C1368 1.358 . S
C1365 H1371 0.930 . S
C1366 C1364 1.353 . S
C1366 C1369 1.348 . S
C1366 H1404 0.929 . S
N1367 Li1322 1.990 . S
N1367 C1364 1.314 . S
N1367 C1365 1.279 . S
C1368 C1365 1.358 . S
C1368 C1369 1.356 . S
C1368 H1405 0.930 . S
C1369 C1366 1.348 . S
C1369 C1368 1.356 . S
H1370 C1364 0.930 . S
H1371 C1365 0.930 . S
C1372 N1373 1.314 . S
C1372 C1374 1.353 . S
C1372 H1378 0.930 . S
N1373 Li1323 1.990 . S
N1373 C1372 1.314 . S
N1373 C1376 1.279 . S
C1374 C1372 1.353 . S
C1374 C1377 1.348 . S
C1374 H1406 0.929 . S
C1375 C1376 1.358 . S
C1375 C1377 1.356 . S
C1375 H1407 0.930 . S
C1376 N1373 1.279 . S
C1376 C1375 1.358 . S
C1376 H1379 0.930 . S
C1377 C1374 1.348 . S
C1377 C1375 1.356 . S
H1378 C1372 0.930 . S
H1379 C1376 0.930 . S
O1380 Li1320 1.956 . S
O1380 Li1321 1.970 . S
O1380 Li1322 1.961 . S
O1380 C1324 1.325 . S
O1381 Li1320 1.970 . S
O1381 Li1321 1.956 . S
O1381 Li1323 1.961 . S
O1381 C1330 1.325 . S
O1382 Li1320 1.961 . S
O1382 Li1322 1.956 . S
O1382 Li1323 1.970 . S
O1382 C1352 1.325 . S
O1383 Li1321 1.961 . S
O1383 Li1322 1.970 . S
O1383 Li1323 1.956 . S
O1383 C1358 1.325 . S
H1384 C1326 0.929 . S
H1385 C1327 0.930 . S
H1386 C1328 0.930 . S
H1387 C1329 0.930 . S
H1388 C1331 0.930 . S
H1389 C1333 0.929 . S
H1390 C1334 0.930 . S
H1391 C1335 0.930 . S
H1392 C1338 0.930 . S
H1393 C1341 0.929 . S
H1394 C1346 0.929 . S
H1395 C1347 0.930 . S
H1396 C1354 0.929 . S
H1397 C1355 0.930 . S
H1398 C1356 0.930 . S
H1399 C1357 0.930 . S
H1400 C1359 0.929 . S
H1401 C1360 0.930 . S
H1402 C1361 0.930 . S
H1403 C1362 0.930 . S
H1404 C1366 0.929 . S
H1405 C1368 0.930 . S
H1406 C1374 0.929 . S
H1407 C1375 0.930 . S
Li1408 N1425 1.990 . S
Li1408 O1468 1.956 . S
Li1408 O1469 1.970 . S
Li1408 O1470 1.961 . S
Li1409 N1433 1.990 . S
Li1409 O1468 1.970 . S
Li1409 O1469 1.956 . S
Li1409 O1471 1.961 . S
Li1410 N1455 1.990 . S
Li1410 O1468 1.961 . S
Li1410 O1470 1.956 . S
Li1410 O1471 1.970 . S
Li1411 N1461 1.912 1_545 S
Li1411 O1469 1.992 . S
Li1411 O1470 2.029 . S
Li1411 O1471 1.994 . S
C1412 C1414 1.348 . S
C1412 C1415 1.356 . S
C1412 O1468 1.325 . S
N1413 C1416 1.314 . S
N1413 C1417 1.279 . S
C1414 C1412 1.348 . S
C1414 C1416 1.353 . S
C1414 H1472 0.929 . S
C1415 C1412 1.356 . S
C1415 C1417 1.358 . S
C1415 H1473 0.930 . S
C1416 N1413 1.314 . S
C1416 C1414 1.353 . S
C1416 H1474 0.930 . S
C1417 N1413 1.279 . S
C1417 C1415 1.358 . S
C1417 H1475 0.930 . S
C1418 C1421 1.348 . S
C1418 C1422 1.356 . S
C1418 O1469 1.325 1_565 S
C1419 N1420 1.279 . S
C1419 C1422 1.358 . S
C1419 H1476 0.930 . S
N1420 C1419 1.279 . S
N1420 C1423 1.314 . S
C1421 C1418 1.348 . S
C1421 C1423 1.353 . S
C1421 H1477 0.929 1_565 S
C1422 C1418 1.356 . S
C1422 C1419 1.358 . S
C1422 H1478 0.930 . S
C1423 N1420 1.314 . S
C1423 C1421 1.353 . S
C1423 H1479 0.930 . S
C1424 N1425 1.314 . S
C1424 C1429 1.353 . S
C1424 H1430 0.930 1_545 S
N1425 Li1408 1.990 . S
N1425 C1424 1.314 . S
N1425 C1427 1.279 . S
C1426 C1427 1.358 . S
C1426 C1428 1.356 . S
C1426 H1480 0.930 . S
C1427 N1425 1.279 . S
C1427 C1426 1.358 . S
C1427 H1431 0.930 . S
C1428 C1426 1.356 . S
C1428 C1429 1.348 . S
C1429 C1424 1.353 . S
C1429 C1428 1.348 . S
C1429 H1481 0.929 1_545 S
H1430 C1424 0.930 1_565 S
H1431 C1427 0.930 . S
C1432 N1433 1.314 . S
C1432 C1434 1.353 . S
C1432 H1438 0.930 . S
N1433 Li1409 1.990 . S
N1433 C1432 1.314 . S
N1433 C1436 1.279 . S
C1434 C1432 1.353 . S
C1434 C1437 1.348 . S
C1434 H1482 0.929 . S
C1435 C1436 1.358 . S
C1435 C1437 1.356 . S
C1435 H1483 0.930 . S
C1436 N1433 1.279 . S
C1436 C1435 1.358 . S
C1436 H1439 0.930 . S
C1437 C1434 1.348 . S
C1437 C1435 1.356 . S
H1438 C1432 0.930 . S
H1439 C1436 0.930 . S
C1440 C1442 1.348 1_545 S
C1440 C1443 1.356 . S
C1440 O1470 1.325 . S
N1441 C1444 1.314 . S
N1441 C1445 1.279 1_565 S
C1442 C1440 1.348 1_565 S
C1442 C1444 1.353 . S
C1442 H1484 0.929 . S
C1443 C1440 1.356 . S
C1443 C1445 1.358 . S
C1443 H1485 0.930 . S
C1444 N1441 1.314 . S
C1444 C1442 1.353 . S
C1444 H1486 0.930 . S
C1445 N1441 1.279 1_545 S
C1445 C1443 1.358 . S
C1445 H1487 0.930 . S
C1446 C1447 1.348 . S
C1446 C1448 1.356 . S
C1446 O1471 1.325 . S
C1447 C1446 1.348 . S
C1447 C1449 1.353 . S
C1447 H1488 0.929 . S
C1448 C1446 1.356 . S
C1448 C1450 1.358 . S
C1448 H1489 0.930 . S
C1449 C1447 1.353 . S
C1449 N1451 1.314 . S
C1449 H1490 0.930 . S
C1450 C1448 1.358 . S
C1450 N1451 1.279 . S
C1450 H1491 0.930 . S
N1451 C1449 1.314 . S
N1451 C1450 1.279 . S
C1452 C1454 1.353 . S
C1452 N1455 1.314 . S
C1452 H1458 0.930 . S
C1453 N1455 1.279 . S
C1453 C1456 1.358 . S
C1453 H1459 0.930 . S
C1454 C1452 1.353 . S
C1454 C1457 1.348 . S
C1454 H1492 0.929 . S
N1455 Li1410 1.990 . S
N1455 C1452 1.314 . S
N1455 C1453 1.279 . S
C1456 C1453 1.358 . S
C1456 C1457 1.356 . S
C1456 H1493 0.930 . S
C1457 C1454 1.348 . S
C1457 C1456 1.356 . S
H1458 C1452 0.930 . S
H1459 C1453 0.930 . S
C1460 N1461 1.314 . S
C1460 C1462 1.353 . S
C1460 H1466 0.930 . S
N1461 Li1411 1.912 1_565 S
N1461 C1460 1.314 . S
N1461 C1464 1.279 . S
C1462 C1460 1.353 . S
C1462 C1465 1.348 . S
C1462 H1494 0.929 . S
C1463 C1464 1.358 . S
C1463 C1465 1.356 . S
C1463 H1495 0.930 . S
C1464 N1461 1.279 . S
C1464 C1463 1.358 . S
C1464 H1467 0.930 . S
C1465 C1462 1.348 . S
C1465 C1463 1.356 . S
H1466 C1460 0.930 . S
H1467 C1464 0.930 . S
O1468 Li1408 1.956 . S
O1468 Li1409 1.970 . S
O1468 Li1410 1.961 . S
O1468 C1412 1.325 . S
O1469 Li1408 1.970 . S
O1469 Li1409 1.956 . S
O1469 Li1411 1.992 . S
O1469 C1418 1.325 1_545 S
O1470 Li1408 1.961 . S
O1470 Li1410 1.956 . S
O1470 Li1411 2.029 . S
O1470 C1440 1.325 . S
O1471 Li1409 1.961 . S
O1471 Li1410 1.970 . S
O1471 Li1411 1.994 . S
O1471 C1446 1.325 . S
H1472 C1414 0.929 . S
H1473 C1415 0.930 . S
H1474 C1416 0.930 . S
H1475 C1417 0.930 . S
H1476 C1419 0.930 . S
H1477 C1421 0.929 1_545 S
H1478 C1422 0.930 . S
H1479 C1423 0.930 . S
H1480 C1426 0.930 . S
H1481 C1429 0.929 1_565 S
H1482 C1434 0.929 . S
H1483 C1435 0.930 . S
H1484 C1442 0.929 . S
H1485 C1443 0.930 . S
H1486 C1444 0.930 . S
H1487 C1445 0.930 . S
H1488 C1447 0.929 . S
H1489 C1448 0.930 . S
H1490 C1449 0.930 . S
H1491 C1450 0.930 . S
H1492 C1454 0.929 . S
H1493 C1456 0.930 . S
H1494 C1462 0.929 . S
H1495 C1463 0.930 . S
Li1496 N1513 1.990 . S
Li1496 O1556 1.956 . S
Li1496 O1557 1.970 . S
Li1496 O1558 1.961 . S
Li1497 N1521 1.990 . S
Li1497 O1556 1.970 . S
Li1497 O1557 1.956 . S
Li1497 O1559 1.961 . S
Li1498 N1543 1.990 1_655 S
Li1498 O1556 1.961 . S
Li1498 O1558 1.956 . S
Li1498 O1559 1.970 . S
Li1499 N1549 1.990 . S
Li1499 O1557 1.961 . S
Li1499 O1558 1.970 . S
Li1499 O1559 1.956 . S
C1500 C1502 1.348 . S
C1500 C1503 1.356 . S
C1500 O1556 1.325 1_455 S
N1501 C1504 1.314 . S
N1501 C1505 1.279 . S
C1502 C1500 1.348 . S
C1502 C1504 1.353 . S
C1502 H1560 0.929 1_455 S
C1503 C1500 1.356 . S
C1503 C1505 1.358 . S
C1503 H1561 0.930 . S
C1504 N1501 1.314 . S
C1504 C1502 1.353 . S
C1504 H1562 0.930 . S
C1505 N1501 1.279 . S
C1505 C1503 1.358 . S
C1505 H1563 0.930 . S
C1506 C1509 1.348 . S
C1506 C1510 1.356 . S
C1506 O1557 1.325 . S
C1507 N1508 1.279 . S
C1507 C1510 1.358 . S
C1507 H1564 0.930 . S
N1508 C1507 1.279 . S
N1508 C1511 1.314 . S
C1509 C1506 1.348 . S
C1509 C1511 1.353 . S
C1509 H1565 0.929 . S
C1510 C1506 1.356 . S
C1510 C1507 1.358 . S
C1510 H1566 0.930 . S
C1511 N1508 1.314 . S
C1511 C1509 1.353 . S
C1511 H1567 0.930 . S
C1512 N1513 1.314 . S
C1512 C1517 1.353 . S
C1512 H1518 0.930 . S
N1513 Li1496 1.990 . S
N1513 C1512 1.314 . S
N1513 C1515 1.279 . S
C1514 C1515 1.358 . S
C1514 C1516 1.356 . S
C1514 H1568 0.930 . S
C1515 N1513 1.279 . S
C1515 C1514 1.358 . S
C1515 H1519 0.930 . S
C1516 C1514 1.356 . S
C1516 C1517 1.348 . S
C1517 C1512 1.353 . S
C1517 C1516 1.348 . S
C1517 H1569 0.929 . S
H1518 C1512 0.930 . S
H1519 C1515 0.930 . S
C1520 N1521 1.314 . S
C1520 C1522 1.353 . S
C1520 H1526 0.930 1_655 S
N1521 Li1497 1.990 . S
N1521 C1520 1.314 . S
N1521 C1524 1.279 . S
C1522 C1520 1.353 . S
C1522 C1525 1.348 . S
C1522 H1570 0.929 1_655 S
C1523 C1524 1.358 . S
C1523 C1525 1.356 . S
C1523 H1571 0.930 . S
C1524 N1521 1.279 . S
C1524 C1523 1.358 . S
C1524 H1527 0.930 . S
C1525 C1522 1.348 . S
C1525 C1523 1.356 . S
H1526 C1520 0.930 1_455 S
H1527 C1524 0.930 . S
C1528 C1530 1.348 . S
C1528 C1531 1.356 . S
C1528 O1558 1.325 . S
N1529 C1532 1.314 . S
N1529 C1533 1.279 . S
C1530 C1528 1.348 . S
C1530 C1532 1.353 . S
C1530 H1572 0.929 . S
C1531 C1528 1.356 . S
C1531 C1533 1.358 . S
C1531 H1573 0.930 . S
C1532 N1529 1.314 . S
C1532 C1530 1.353 . S
C1532 H1574 0.930 . S
C1533 N1529 1.279 . S
C1533 C1531 1.358 . S
C1533 H1575 0.930 . S
C1534 C1535 1.348 1_655 S
C1534 C1536 1.356 . S
C1534 O1559 1.325 . S
C1535 C1534 1.348 1_455 S
C1535 C1537 1.353 . S
C1535 H1576 0.929 . S
C1536 C1534 1.356 . S
C1536 C1538 1.358 . S
C1536 H1577 0.930 . S
C1537 C1535 1.353 . S
C1537 N1539 1.314 . S
C1537 H1578 0.930 . S
C1538 C1536 1.358 . S
C1538 N1539 1.279 1_655 S
C1538 H1579 0.930 . S
N1539 C1537 1.314 . S
N1539 C1538 1.279 1_455 S
C1540 C1542 1.353 . S
C1540 N1543 1.314 . S
C1540 H1546 0.930 . S
C1541 N1543 1.279 . S
C1541 C1544 1.358 . S
C1541 H1547 0.930 . S
C1542 C1540 1.353 . S
C1542 C1545 1.348 . S
C1542 H1580 0.929 . S
N1543 Li1498 1.990 1_455 S
N1543 C1540 1.314 . S
N1543 C1541 1.279 . S
C1544 C1541 1.358 . S
C1544 C1545 1.356 . S
C1544 H1581 0.930 . S
C1545 C1542 1.348 . S
C1545 C1544 1.356 . S
H1546 C1540 0.930 . S
H1547 C1541 0.930 . S
C1548 N1549 1.314 . S
C1548 C1550 1.353 . S
C1548 H1554 0.930 . S
N1549 Li1499 1.990 . S
N1549 C1548 1.314 . S
N1549 C1552 1.279 . S
C1550 C1548 1.353 . S
C1550 C1553 1.348 . S
C1550 H1582 0.929 . S
C1551 C1552 1.358 . S
C1551 C1553 1.356 . S
C1551 H1583 0.930 . S
C1552 N1549 1.279 . S
C1552 C1551 1.358 . S
C1552 H1555 0.930 . S
C1553 C1550 1.348 . S
C1553 C1551 1.356 . S
H1554 C1548 0.930 . S
H1555 C1552 0.930 . S
O1556 Li1496 1.956 . S
O1556 Li1497 1.970 . S
O1556 Li1498 1.961 . S
O1556 C1500 1.325 1_655 S
O1557 Li1496 1.970 . S
O1557 Li1497 1.956 . S
O1557 Li1499 1.961 . S
O1557 C1506 1.325 . S
O1558 Li1496 1.961 . S
O1558 Li1498 1.956 . S
O1558 Li1499 1.970 . S
O1558 C1528 1.325 . S
O1559 Li1497 1.961 . S
O1559 Li1498 1.970 . S
O1559 Li1499 1.956 . S
O1559 C1534 1.325 . S
H1560 C1502 0.929 1_655 S
H1561 C1503 0.930 . S
H1562 C1504 0.930 . S
H1563 C1505 0.930 . S
H1564 C1507 0.930 . S
H1565 C1509 0.929 . S
H1566 C1510 0.930 . S
H1567 C1511 0.930 . S
H1568 C1514 0.930 . S
H1569 C1517 0.929 . S
H1570 C1522 0.929 1_455 S
H1571 C1523 0.930 . S
H1572 C1530 0.929 . S
H1573 C1531 0.930 . S
H1574 C1532 0.930 . S
H1575 C1533 0.930 . S
H1576 C1535 0.929 . S
H1577 C1536 0.930 . S
H1578 C1537 0.930 . S
H1579 C1538 0.930 . S
H1580 C1542 0.929 . S
H1581 C1544 0.930 . S
H1582 C1550 0.929 . S
H1583 C1551 0.930 . S
H1584 C1592 0.930 . S
H1585 C1595 0.930 . S
H1586 C1597 0.930 . S
H1587 C1598 0.970 . S
H1588 C1598 0.970 . S
H1589 C1600 0.930 . S
H1590 C1602 0.930 . S
H1591 C1604 0.930 . S
C1592 H1584 0.930 . S
C1592 C1593 1.382 . S
C1592 C1594 1.426 . S
C1593 C1592 1.382 . S
C1593 C1597 1.389 . S
C1594 C1592 1.426 . S
C1594 C1595 1.375 . S
C1594 C1598 1.532 . S
C1595 H1585 0.930 . S
C1595 C1594 1.375 . S
C1595 C1596 1.416 . S
C1596 C1595 1.416 . S
C1596 C1597 1.371 . S
C1597 H1586 0.930 . S
C1597 C1593 1.389 . S
C1597 C1596 1.371 . S
C1598 H1587 0.970 . S
C1598 H1588 0.970 . S
C1598 C1594 1.532 . S
C1598 C1599 1.499 . S
C1599 C1598 1.499 . S
C1599 C1600 1.370 . S
C1599 C1604 1.415 . S
C1600 H1589 0.930 . S
C1600 C1599 1.370 . S
C1600 C1601 1.407 . S
C1601 C1600 1.407 . S
C1601 C1602 1.365 . S
C1602 H1590 0.930 . S
C1602 C1601 1.365 . S
C1602 C1603 1.393 . S
C1603 C1602 1.393 . S
C1603 C1604 1.387 . S
C1604 H1591 0.930 . S
C1604 C1599 1.415 . S
C1604 C1603 1.387 . S
H1605 C1613 0.930 . S
H1606 C1616 0.930 . S
H1607 C1618 0.930 . S
H1608 C1619 0.970 . S
H1609 C1619 0.970 . S
H1610 C1621 0.930 . S
H1611 C1623 0.930 . S
H1612 C1625 0.930 . S
C1613 H1605 0.930 . S
C1613 C1614 1.382 . S
C1613 C1615 1.426 . S
C1614 C1613 1.382 . S
C1614 C1618 1.389 . S
C1615 C1613 1.426 . S
C1615 C1616 1.375 . S
C1615 C1619 1.532 . S
C1616 H1606 0.930 . S
C1616 C1615 1.375 . S
C1616 C1617 1.416 . S
C1617 C1616 1.416 . S
C1617 C1618 1.371 . S
C1618 H1607 0.930 . S
C1618 C1614 1.389 . S
C1618 C1617 1.371 . S
C1619 H1608 0.970 . S
C1619 H1609 0.970 . S
C1619 C1615 1.532 . S
C1619 C1620 1.499 . S
C1620 C1619 1.499 . S
C1620 C1621 1.370 . S
C1620 C1625 1.415 . S
C1621 H1610 0.930 . S
C1621 C1620 1.370 . S
C1621 C1622 1.407 . S
C1622 C1621 1.407 . S
C1622 C1623 1.365 . S
C1623 H1611 0.930 . S
C1623 C1622 1.365 . S
C1623 C1624 1.393 . S
C1624 C1623 1.393 . S
C1624 C1625 1.387 . S
C1625 H1612 0.930 . S
C1625 C1620 1.415 . S
C1625 C1624 1.387 . S
H1626 C1634 0.930 . S
H1627 C1637 0.930 . S
H1628 C1639 0.930 . S
H1629 C1640 0.970 . S
H1630 C1640 0.970 . S
H1631 C1642 0.930 . S
H1632 C1644 0.930 . S
H1633 C1646 0.930 . S
C1634 H1626 0.930 . S
C1634 C1635 1.382 . S
C1634 C1636 1.426 . S
C1635 C1634 1.382 . S
C1635 C1639 1.389 . S
C1636 C1634 1.426 . S
C1636 C1637 1.375 . S
C1636 C1640 1.532 . S
C1637 H1627 0.930 . S
C1637 C1636 1.375 . S
C1637 C1638 1.416 . S
C1638 C1637 1.416 . S
C1638 C1639 1.371 . S
C1639 H1628 0.930 . S
C1639 C1635 1.389 . S
C1639 C1638 1.371 . S
C1640 H1629 0.970 . S
C1640 H1630 0.970 . S
C1640 C1636 1.532 . S
C1640 C1641 1.499 . S
C1641 C1640 1.499 . S
C1641 C1642 1.370 . S
C1641 C1646 1.415 . S
C1642 H1631 0.930 . S
C1642 C1641 1.370 . S
C1642 C1643 1.407 . S
C1643 C1642 1.407 . S
C1643 C1644 1.365 . S
C1644 H1632 0.930 . S
C1644 C1643 1.365 . S
C1644 C1645 1.393 . S
C1645 C1644 1.393 . S
C1645 C1646 1.387 . S
C1646 H1633 0.930 . S
C1646 C1641 1.415 . S
C1646 C1645 1.387 . S
H1647 C1655 0.930 . S
H1648 C1658 0.930 . S
H1649 C1660 0.930 . S
H1650 C1661 0.970 . S
H1651 C1661 0.970 . S
H1652 C1663 0.930 . S
H1653 C1665 0.930 . S
H1654 C1667 0.930 . S
C1655 H1647 0.930 . S
C1655 C1656 1.382 . S
C1655 C1657 1.426 . S
C1656 C1655 1.382 . S
C1656 C1660 1.389 . S
C1657 C1655 1.426 . S
C1657 C1658 1.375 . S
C1657 C1661 1.532 . S
C1658 H1648 0.930 . S
C1658 C1657 1.375 . S
C1658 C1659 1.416 . S
C1659 C1658 1.416 . S
C1659 C1660 1.371 . S
C1660 H1649 0.930 . S
C1660 C1656 1.389 . S
C1660 C1659 1.371 . S
C1661 H1650 0.970 . S
C1661 H1651 0.970 . S
C1661 C1657 1.532 . S
C1661 C1662 1.499 . S
C1662 C1661 1.499 . S
C1662 C1663 1.370 . S
C1662 C1667 1.415 . S
C1663 H1652 0.930 . S
C1663 C1662 1.370 . S
C1663 C1664 1.407 . S
C1664 C1663 1.407 . S
C1664 C1665 1.365 . S
C1665 H1653 0.930 . S
C1665 C1664 1.365 . S
C1665 C1666 1.393 . S
C1666 C1665 1.393 . S
C1666 C1667 1.387 . S
C1667 H1654 0.930 . S
C1667 C1662 1.415 . S
C1667 C1666 1.387 . S
H1668 C1676 0.930 . S
H1669 C1679 0.930 . S
H1670 C1681 0.930 . S
H1671 C1682 0.970 . S
H1672 C1682 0.970 . S
H1673 C1684 0.930 . S
H1674 C1686 0.930 . S
H1675 C1688 0.930 . S
C1676 H1668 0.930 . S
C1676 C1677 1.382 . S
C1676 C1678 1.426 . S
C1677 C1676 1.382 . S
C1677 C1681 1.389 . S
C1678 C1676 1.426 . S
C1678 C1679 1.375 . S
C1678 C1682 1.532 . S
C1679 H1669 0.930 . S
C1679 C1678 1.375 . S
C1679 C1680 1.416 . S
C1680 C1679 1.416 . S
C1680 C1681 1.371 . S
C1681 H1670 0.930 . S
C1681 C1677 1.389 . S
C1681 C1680 1.371 . S
C1682 H1671 0.970 . S
C1682 H1672 0.970 . S
C1682 C1678 1.532 . S
C1682 C1683 1.499 . S
C1683 C1682 1.499 . S
C1683 C1684 1.370 . S
C1683 C1688 1.415 . S
C1684 H1673 0.930 . S
C1684 C1683 1.370 . S
C1684 C1685 1.407 . S
C1685 C1684 1.407 . S
C1685 C1686 1.365 . S
C1686 H1674 0.930 . S
C1686 C1685 1.365 . S
C1686 C1687 1.393 . S
C1687 C1686 1.393 . S
C1687 C1688 1.387 . S
C1688 H1675 0.930 . S
C1688 C1683 1.415 . S
C1688 C1687 1.387 . S
H1689 C1697 0.930 . S
H1690 C1700 0.930 . S
H1691 C1702 0.930 . S
H1692 C1703 0.970 . S
H1693 C1703 0.970 . S
H1694 C1705 0.930 . S
H1695 C1707 0.930 . S
H1696 C1709 0.930 . S
C1697 H1689 0.930 . S
C1697 C1698 1.382 . S
C1697 C1699 1.426 . S
C1698 C1697 1.382 . S
C1698 C1702 1.389 . S
C1699 C1697 1.426 . S
C1699 C1700 1.375 . S
C1699 C1703 1.532 . S
C1700 H1690 0.930 . S
C1700 C1699 1.375 . S
C1700 C1701 1.416 . S
C1701 C1700 1.416 . S
C1701 C1702 1.371 . S
C1702 H1691 0.930 . S
C1702 C1698 1.389 . S
C1702 C1701 1.371 . S
C1703 H1692 0.970 . S
C1703 H1693 0.970 . S
C1703 C1699 1.532 . S
C1703 C1704 1.499 . S
C1704 C1703 1.499 . S
C1704 C1705 1.370 . S
C1704 C1709 1.415 . S
C1705 H1694 0.930 . S
C1705 C1704 1.370 . S
C1705 C1706 1.407 . S
C1706 C1705 1.407 . S
C1706 C1707 1.365 . S
C1707 H1695 0.930 . S
C1707 C1706 1.365 . S
C1707 C1708 1.393 . S
C1708 C1707 1.393 . S
C1708 C1709 1.387 . S
C1709 H1696 0.930 . S
C1709 C1704 1.415 . S
C1709 C1708 1.387 . S
H1710 C1718 0.930 . S
H1711 C1721 0.930 . S
H1712 C1723 0.930 . S
H1713 C1724 0.970 . S
H1714 C1724 0.970 . S
H1715 C1726 0.930 . S
H1716 C1728 0.930 . S
H1717 C1730 0.930 . S
C1718 H1710 0.930 . S
C1718 C1719 1.382 . S
C1718 C1720 1.426 . S
C1719 C1718 1.382 . S
C1719 C1723 1.389 . S
C1720 C1718 1.426 . S
C1720 C1721 1.375 . S
C1720 C1724 1.532 . S
C1721 H1711 0.930 . S
C1721 C1720 1.375 . S
C1721 C1722 1.416 . S
C1722 C1721 1.416 . S
C1722 C1723 1.371 . S
C1723 H1712 0.930 . S
C1723 C1719 1.389 . S
C1723 C1722 1.371 . S
C1724 H1713 0.970 . S
C1724 H1714 0.970 . S
C1724 C1720 1.532 . S
C1724 C1725 1.499 . S
C1725 C1724 1.499 . S
C1725 C1726 1.370 . S
C1725 C1730 1.415 . S
C1726 H1715 0.930 . S
C1726 C1725 1.370 . S
C1726 C1727 1.407 . S
C1727 C1726 1.407 . S
C1727 C1728 1.365 . S
C1728 H1716 0.930 . S
C1728 C1727 1.365 . S
C1728 C1729 1.393 . S
C1729 C1728 1.393 . S
C1729 C1730 1.387 . S
C1730 H1717 0.930 . S
C1730 C1725 1.415 . S
C1730 C1729 1.387 . S
H1731 C1739 0.930 . S
H1732 C1742 0.930 . S
H1733 C1744 0.930 . S
H1734 C1745 0.970 . S
H1735 C1745 0.970 . S
H1736 C1747 0.930 . S
H1737 C1749 0.930 . S
H1738 C1751 0.930 . S
C1739 H1731 0.930 . S
C1739 C1740 1.382 . S
C1739 C1741 1.426 . S
C1740 C1739 1.382 . S
C1740 C1744 1.389 . S
C1741 C1739 1.426 . S
C1741 C1742 1.375 . S
C1741 C1745 1.532 . S
C1742 H1732 0.930 . S
C1742 C1741 1.375 . S
C1742 C1743 1.416 . S
C1743 C1742 1.416 . S
C1743 C1744 1.371 . S
C1744 H1733 0.930 . S
C1744 C1740 1.389 . S
C1744 C1743 1.371 . S
C1745 H1734 0.970 . S
C1745 H1735 0.970 . S
C1745 C1741 1.532 . S
C1745 C1746 1.499 . S
C1746 C1745 1.499 . S
C1746 C1747 1.370 . S
C1746 C1751 1.415 . S
C1747 H1736 0.930 . S
C1747 C1746 1.370 . S
C1747 C1748 1.407 . S
C1748 C1747 1.407 . S
C1748 C1749 1.365 . S
C1749 H1737 0.930 . S
C1749 C1748 1.365 . S
C1749 C1750 1.393 . S
C1750 C1749 1.393 . S
C1750 C1751 1.387 . S
C1751 H1738 0.930 . S
C1751 C1746 1.415 . S
C1751 C1750 1.387 . S
H1752 C1760 0.930 . S
H1753 C1763 0.930 . S
H1754 C1765 0.930 . S
H1755 C1766 0.970 . S
H1756 C1766 0.970 . S
H1757 C1768 0.930 . S
H1758 C1770 0.930 . S
H1759 C1772 0.930 . S
C1760 H1752 0.930 . S
C1760 C1761 1.382 . S
C1760 C1762 1.426 . S
C1761 C1760 1.382 . S
C1761 C1765 1.389 . S
C1762 C1760 1.426 . S
C1762 C1763 1.375 . S
C1762 C1766 1.532 . S
C1763 H1753 0.930 . S
C1763 C1762 1.375 . S
C1763 C1764 1.416 . S
C1764 C1763 1.416 . S
C1764 C1765 1.371 . S
C1765 H1754 0.930 . S
C1765 C1761 1.389 . S
C1765 C1764 1.371 . S
C1766 H1755 0.970 . S
C1766 H1756 0.970 . S
C1766 C1762 1.532 . S
C1766 C1767 1.499 . S
C1767 C1766 1.499 . S
C1767 C1768 1.370 . S
C1767 C1772 1.415 . S
C1768 H1757 0.930 . S
C1768 C1767 1.370 . S
C1768 C1769 1.407 . S
C1769 C1768 1.407 . S
C1769 C1770 1.365 . S
C1770 H1758 0.930 . S
C1770 C1769 1.365 . S
C1770 C1771 1.393 . S
C1771 C1770 1.393 . S
C1771 C1772 1.387 . S
C1772 H1759 0.930 . S
C1772 C1767 1.415 . S
C1772 C1771 1.387 . S
H1773 C1781 0.930 . S
H1774 C1784 0.930 . S
H1775 C1786 0.930 . S
H1776 C1787 0.970 . S
H1777 C1787 0.970 . S
H1778 C1789 0.930 . S
H1779 C1791 0.930 . S
H1780 C1793 0.930 . S
C1781 H1773 0.930 . S
C1781 C1782 1.382 . S
C1781 C1783 1.426 . S
C1782 C1781 1.382 . S
C1782 C1786 1.389 1_455 S
C1783 C1781 1.426 . S
C1783 C1784 1.375 . S
C1783 C1787 1.532 . S
C1784 H1774 0.930 . S
C1784 C1783 1.375 . S
C1784 C1785 1.416 . S
C1785 C1784 1.416 . S
C1785 C1786 1.371 1_455 S
C1786 H1775 0.930 . S
C1786 C1782 1.389 1_655 S
C1786 C1785 1.371 1_655 S
C1787 H1776 0.970 . S
C1787 H1777 0.970 . S
C1787 C1783 1.532 . S
C1787 C1788 1.499 . S
C1788 C1787 1.499 . S
C1788 C1789 1.370 . S
C1788 C1793 1.415 . S
C1789 H1778 0.930 . S
C1789 C1788 1.370 . S
C1789 C1790 1.409 . S
C1790 C1789 1.409 . S
C1790 C1791 1.368 1_455 S
C1791 H1779 0.930 . S
C1791 C1790 1.368 1_655 S
C1791 C1792 1.393 1_655 S
C1792 C1791 1.393 1_455 S
C1792 C1793 1.387 . S
C1793 H1780 0.930 . S
C1793 C1788 1.415 . S
C1793 C1792 1.387 . S
H1794 C1802 0.930 . S
H1795 C1805 0.930 . S
H1796 C1807 0.930 . S
H1797 C1808 0.970 . S
H1798 C1808 0.970 . S
H1799 C1810 0.930 . S
H1800 C1812 0.930 . S
H1801 C1814 0.930 . S
C1802 H1794 0.930 . S
C1802 C1803 1.382 . S
C1802 C1804 1.426 . S
C1803 C1802 1.382 . S
C1803 C1807 1.389 . S
C1804 C1802 1.426 . S
C1804 C1805 1.375 . S
C1804 C1808 1.532 . S
C1805 H1795 0.930 . S
C1805 C1804 1.375 . S
C1805 C1806 1.416 . S
C1806 C1805 1.416 . S
C1806 C1807 1.371 . S
C1807 H1796 0.930 . S
C1807 C1803 1.389 . S
C1807 C1806 1.371 . S
C1808 H1797 0.970 . S
C1808 H1798 0.970 . S
C1808 C1804 1.532 . S
C1808 C1809 1.499 . S
C1809 C1808 1.499 . S
C1809 C1810 1.370 . S
C1809 C1814 1.415 . S
C1810 H1799 0.930 . S
C1810 C1809 1.370 . S
C1810 C1811 1.407 . S
C1811 C1810 1.407 . S
C1811 C1812 1.365 . S
C1812 H1800 0.930 . S
C1812 C1811 1.365 . S
C1812 C1813 1.393 . S
C1813 C1812 1.393 . S
C1813 C1814 1.387 . S
C1814 H1801 0.930 . S
C1814 C1809 1.415 . S
C1814 C1813 1.387 . S
H1815 C1823 0.930 . S
H1816 C1826 0.930 . S
H1817 C1828 0.930 . S
H1818 C1829 0.970 . S
H1819 C1829 0.970 . S
H1820 C1831 0.930 . S
H1821 C1833 0.930 . S
H1822 C1835 0.930 . S
C1823 H1815 0.930 . S
C1823 C1824 1.382 . S
C1823 C1825 1.426 . S
C1824 C1823 1.382 . S
C1824 C1828 1.389 1_565 S
C1825 C1823 1.426 . S
C1825 C1826 1.375 . S
C1825 C1829 1.532 . S
C1826 H1816 0.930 . S
C1826 C1825 1.375 . S
C1826 C1827 1.416 . S
C1827 C1826 1.416 . S
C1827 C1828 1.371 1_565 S
C1828 H1817 0.930 . S
C1828 C1824 1.389 1_545 S
C1828 C1827 1.371 1_545 S
C1829 H1818 0.970 . S
C1829 H1819 0.970 . S
C1829 C1825 1.532 . S
C1829 C1830 1.499 . S
C1830 C1829 1.499 . S
C1830 C1831 1.370 . S
C1830 C1835 1.415 . S
C1831 H1820 0.930 . S
C1831 C1830 1.370 . S
C1831 C1832 1.427 . S
C1832 C1831 1.427 . S
C1832 C1833 1.357 1_565 S
C1833 H1821 0.930 . S
C1833 C1832 1.357 1_545 S
C1833 C1834 1.393 1_545 S
C1834 C1833 1.393 1_565 S
C1834 C1835 1.387 . S
C1835 H1822 0.930 . S
C1835 C1830 1.415 . S
C1835 C1834 1.387 . S
H1836 C1844 0.930 . S
H1837 C1847 0.930 . S
H1838 C1849 0.930 . S
H1839 C1850 0.970 . S
H1840 C1850 0.970 . S
H1841 C1852 0.930 . S
H1842 C1854 0.930 . S
H1843 C1856 0.930 . S
C1844 H1836 0.930 . S
C1844 C1845 1.382 . S
C1844 C1846 1.426 . S
C1845 C1844 1.382 . S
C1845 C1849 1.389 1_565 S
C1846 C1844 1.426 . S
C1846 C1847 1.375 . S
C1846 C1850 1.532 . S
C1847 H1837 0.930 . S
C1847 C1846 1.375 . S
C1847 C1848 1.476 . S
C1848 C1847 1.476 . S
C1848 C1849 1.350 1_565 S
C1849 H1838 0.930 . S
C1849 C1845 1.389 1_545 S
C1849 C1848 1.350 1_545 S
C1850 H1839 0.970 . S
C1850 H1840 0.970 . S
C1850 C1846 1.532 . S
C1850 C1851 1.499 . S
C1851 C1850 1.499 . S
C1851 C1852 1.370 . S
C1851 C1856 1.415 . S
C1852 H1841 0.930 . S
C1852 C1851 1.370 . S
C1852 C1853 1.407 . S
C1853 C1852 1.407 . S
C1853 C1854 1.365 1_565 S
C1854 H1842 0.930 . S
C1854 C1853 1.365 1_545 S
C1854 C1855 1.393 1_545 S
C1855 C1854 1.393 1_565 S
C1855 C1856 1.387 . S
C1856 H1843 0.930 . S
C1856 C1851 1.415 . S
C1856 C1855 1.387 . S
H1857 C1865 0.930 . S
H1858 C1868 0.930 . S
H1859 C1870 0.930 . S
H1860 C1871 0.970 . S
H1861 C1871 0.970 . S
H1862 C1873 0.930 . S
H1863 C1875 0.930 . S
H1864 C1877 0.930 . S
C1865 H1857 0.930 . S
C1865 C1866 1.382 . S
C1865 C1867 1.426 . S
C1866 C1865 1.382 . S
C1866 C1870 1.389 1_455 S
C1867 C1865 1.426 . S
C1867 C1868 1.375 . S
C1867 C1871 1.532 . S
C1868 H1858 0.930 . S
C1868 C1867 1.375 . S
C1868 C1869 1.420 . S
C1869 C1868 1.420 . S
C1869 C1870 1.380 1_455 S
C1870 H1859 0.930 . S
C1870 C1866 1.389 1_655 S
C1870 C1869 1.380 1_655 S
C1871 H1860 0.970 . S
C1871 H1861 0.970 . S
C1871 C1867 1.532 . S
C1871 C1872 1.499 . S
C1872 C1871 1.499 . S
C1872 C1873 1.370 . S
C1872 C1877 1.415 . S
C1873 H1862 0.930 . S
C1873 C1872 1.370 . S
C1873 C1874 1.407 . S
C1874 C1873 1.407 . S
C1874 C1875 1.365 1_455 S
C1875 H1863 0.930 . S
C1875 C1874 1.365 1_655 S
C1875 C1876 1.393 1_655 S
C1876 C1875 1.393 1_455 S
C1876 C1877 1.387 . S
C1877 H1864 0.930 . S
C1877 C1872 1.415 . S
C1877 C1876 1.387 . S
H1878 C1886 0.930 . S
H1879 C1889 0.930 . S
H1880 C1891 0.930 . S
H1881 C1892 0.970 . S
H1882 C1892 0.970 . S
H1883 C1894 0.930 . S
H1884 C1896 0.930 . S
H1885 C1898 0.930 . S
C1886 H1878 0.930 . S
C1886 C1887 1.382 . S
C1886 C1888 1.426 . S
C1887 C1886 1.382 . S
C1887 C1891 1.389 . S
C1888 C1886 1.426 . S
C1888 C1889 1.375 . S
C1888 C1892 1.532 . S
C1889 H1879 0.930 . S
C1889 C1888 1.375 . S
C1889 C1890 1.416 . S
C1890 C1889 1.416 . S
C1890 C1891 1.371 . S
C1891 H1880 0.930 . S
C1891 C1887 1.389 . S
C1891 C1890 1.371 . S
C1892 H1881 0.970 . S
C1892 H1882 0.970 . S
C1892 C1888 1.532 . S
C1892 C1893 1.499 . S
C1893 C1892 1.499 . S
C1893 C1894 1.370 . S
C1893 C1898 1.415 . S
C1894 H1883 0.930 . S
C1894 C1893 1.370 . S
C1894 C1895 1.407 . S
C1895 C1894 1.407 . S
C1895 C1896 1.365 . S
C1896 H1884 0.930 . S
C1896 C1895 1.365 . S
C1896 C1897 1.393 . S
C1897 C1896 1.393 . S
C1897 C1898 1.387 . S
C1898 H1885 0.930 . S
C1898 C1893 1.415 . S
C1898 C1897 1.387 . S
H1899 C1907 0.930 . S
H1900 C1910 0.930 . S
H1901 C1912 0.930 . S
H1902 C1913 0.970 . S
H1903 C1913 0.970 . S
H1904 C1915 0.930 . S
H1905 C1917 0.930 . S
H1906 C1919 0.930 . S
C1907 H1899 0.930 . S
C1907 C1908 1.382 . S
C1907 C1909 1.426 . S
C1908 C1907 1.382 . S
C1908 C1912 1.389 . S
C1909 C1907 1.426 . S
C1909 C1910 1.375 . S
C1909 C1913 1.532 . S
C1910 H1900 0.930 . S
C1910 C1909 1.375 . S
C1910 C1911 1.416 . S
C1911 C1910 1.416 . S
C1911 C1912 1.371 . S
C1912 H1901 0.930 . S
C1912 C1908 1.389 . S
C1912 C1911 1.371 . S
C1913 H1902 0.970 . S
C1913 H1903 0.970 . S
C1913 C1909 1.532 . S
C1913 C1914 1.499 . S
C1914 C1913 1.499 . S
C1914 C1915 1.370 . S
C1914 C1919 1.415 . S
C1915 H1904 0.930 . S
C1915 C1914 1.370 . S
C1915 C1916 1.407 . S
C1916 C1915 1.407 . S
C1916 C1917 1.365 . S
C1917 H1905 0.930 . S
C1917 C1916 1.365 . S
C1917 C1918 1.393 . S
C1918 C1917 1.393 . S
C1918 C1919 1.387 . S
C1919 H1906 0.930 . S
C1919 C1914 1.415 . S
C1919 C1918 1.387 . S
H1920 C1928 0.930 . S
H1921 C1931 0.930 . S
H1922 C1933 0.930 . S
H1923 C1934 0.970 . S
H1924 C1934 0.970 . S
H1925 C1936 0.930 . S
H1926 C1938 0.930 . S
H1927 C1940 0.930 . S
C1928 H1920 0.930 . S
C1928 C1929 1.382 . S
C1928 C1930 1.426 . S
C1929 C1928 1.382 . S
C1929 C1933 1.389 . S
C1930 C1928 1.426 . S
C1930 C1931 1.375 . S
C1930 C1934 1.532 . S
C1931 H1921 0.930 . S
C1931 C1930 1.375 . S
C1931 C1932 1.416 . S
C1932 C1931 1.416 . S
C1932 C1933 1.371 . S
C1933 H1922 0.930 . S
C1933 C1929 1.389 . S
C1933 C1932 1.371 . S
C1934 H1923 0.970 . S
C1934 H1924 0.970 . S
C1934 C1930 1.532 . S
C1934 C1935 1.499 . S
C1935 C1934 1.499 . S
C1935 C1936 1.370 . S
C1935 C1940 1.415 . S
C1936 H1925 0.930 . S
C1936 C1935 1.370 . S
C1936 C1937 1.407 . S
C1937 C1936 1.407 . S
C1937 C1938 1.365 . S
C1938 H1926 0.930 . S
C1938 C1937 1.365 . S
C1938 C1939 1.393 . S
C1939 C1938 1.393 . S
C1939 C1940 1.387 . S
C1940 H1927 0.930 . S
C1940 C1935 1.415 . S
C1940 C1939 1.387 . S
H1941 C1949 0.930 . S
H1942 C1952 0.930 . S
H1943 C1954 0.930 . S
H1944 C1955 0.970 . S
H1945 C1955 0.970 . S
H1946 C1957 0.930 . S
H1947 C1959 0.930 . S
H1948 C1961 0.930 . S
C1949 H1941 0.930 . S
C1949 C1950 1.382 . S
C1949 C1951 1.426 . S
C1950 C1949 1.382 . S
C1950 C1954 1.389 . S
C1951 C1949 1.426 . S
C1951 C1952 1.375 . S
C1951 C1955 1.532 . S
C1952 H1942 0.930 . S
C1952 C1951 1.375 . S
C1952 C1953 1.416 . S
C1953 C1952 1.416 . S
C1953 C1954 1.371 . S
C1954 H1943 0.930 . S
C1954 C1950 1.389 . S
C1954 C1953 1.371 . S
C1955 H1944 0.970 . S
C1955 H1945 0.970 . S
C1955 C1951 1.532 . S
C1955 C1956 1.499 . S
C1956 C1955 1.499 . S
C1956 C1957 1.370 . S
C1956 C1961 1.415 . S
C1957 H1946 0.930 . S
C1957 C1956 1.370 . S
C1957 C1958 1.407 . S
C1958 C1957 1.407 . S
C1958 C1959 1.365 . S
C1959 H1947 0.930 . S
C1959 C1958 1.365 . S
C1959 C1960 1.393 . S
C1960 C1959 1.393 . S
C1960 C1961 1.387 . S
C1961 H1948 0.930 . S
C1961 C1956 1.415 . S
C1961 C1960 1.387 . S
H1962 C1968 0.930 . S
H1963 C1971 0.930 . S
H1964 C1972 0.930 . S
H1965 C1973 0.930 . S
H1966 C1976 0.930 . S
H1967 C1977 0.930 . S
C1968 H1962 0.930 . S
C1968 C1969 1.355 . S
C1968 C1970 1.415 . S
C1969 C1968 1.355 . S
C1969 C1971 1.419 . S
C1970 C1968 1.415 . S
C1970 C1975 1.425 . S
C1970 C1977 1.409 . S
C1971 H1963 0.930 . S
C1971 C1969 1.419 . S
C1971 C1972 1.362 . S
C1972 H1964 0.930 . S
C1972 C1971 1.362 . S
C1972 C1975 1.409 . S
C1973 H1965 0.930 . S
C1973 C1974 1.355 . S
C1973 C1975 1.415 . S
C1974 C1973 1.355 . S
C1974 C1976 1.419 . S
C1975 C1970 1.425 . S
C1975 C1972 1.409 . S
C1975 C1973 1.415 . S
C1976 H1966 0.930 . S
C1976 C1974 1.419 . S
C1976 C1977 1.362 . S
C1977 H1967 0.930 . S
C1977 C1970 1.409 . S
C1977 C1976 1.362 . S
H1978 C1984 0.930 . S
H1979 C1987 0.930 . S
H1980 C1988 0.930 . S
H1981 C1989 0.930 . S
H1982 C1992 0.930 . S
H1983 C1993 0.930 . S
C1984 H1978 0.930 . S
C1984 C1985 1.355 . S
C1984 C1986 1.415 . S
C1985 C1984 1.355 . S
C1985 C1987 1.419 . S
C1986 C1984 1.415 . S
C1986 C1991 1.425 . S
C1986 C1993 1.409 . S
C1987 H1979 0.930 . S
C1987 C1985 1.419 . S
C1987 C1988 1.362 . S
C1988 H1980 0.930 . S
C1988 C1987 1.362 . S
C1988 C1991 1.409 . S
C1989 H1981 0.930 . S
C1989 C1990 1.355 . S
C1989 C1991 1.415 . S
C1990 C1989 1.355 . S
C1990 C1992 1.419 . S
C1991 C1986 1.425 . S
C1991 C1988 1.409 . S
C1991 C1989 1.415 . S
C1992 H1982 0.930 . S
C1992 C1990 1.419 . S
C1992 C1993 1.362 . S
C1993 H1983 0.930 . S
C1993 C1986 1.409 . S
C1993 C1992 1.362 . S
H1994 C2000 0.930 . S
H1995 C2003 0.930 . S
H1996 C2004 0.930 . S
H1997 C2005 0.930 . S
H1998 C2008 0.933 1_565 S
H1999 C2009 0.930 1_565 S
C2000 H1994 0.930 . S
C2000 C2001 1.355 . S
C2000 C2002 1.415 . S
C2001 C2000 1.355 . S
C2001 C2003 1.419 . S
C2002 C2000 1.415 . S
C2002 C2007 1.425 . S
C2002 C2009 1.409 . S
C2003 H1995 0.930 . S
C2003 C2001 1.419 . S
C2003 C2004 1.362 . S
C2004 H1996 0.930 . S
C2004 C2003 1.362 . S
C2004 C2007 1.409 . S
C2005 H1997 0.930 . S
C2005 C2006 1.355 . S
C2005 C2007 1.415 . S
C2006 C2005 1.355 . S
C2006 C2008 1.421 . S
C2007 C2002 1.425 . S
C2007 C2004 1.409 . S
C2007 C2005 1.415 . S
C2008 H1998 0.933 1_545 S
C2008 C2006 1.421 . S
C2008 C2009 1.358 . S
C2009 H1999 0.930 1_545 S
C2009 C2002 1.409 . S
C2009 C2008 1.358 . S
H2010 C2016 0.930 . S
H2011 C2019 0.930 . S
H2012 C2020 0.930 . S
H2013 C2021 0.930 . S
H2014 C2024 0.930 . S
H2015 C2025 0.930 . S
C2016 H2010 0.930 . S
C2016 C2017 1.355 . S
C2016 C2018 1.415 . S
C2017 C2016 1.355 . S
C2017 C2019 1.419 . S
C2018 C2016 1.415 . S
C2018 C2023 1.425 . S
C2018 C2025 1.409 . S
C2019 H2011 0.930 . S
C2019 C2017 1.419 . S
C2019 C2020 1.362 . S
C2020 H2012 0.930 . S
C2020 C2019 1.362 . S
C2020 C2023 1.409 . S
C2021 H2013 0.930 . S
C2021 C2022 1.355 . S
C2021 C2023 1.415 . S
C2022 C2021 1.355 . S
C2022 C2024 1.419 . S
C2023 C2018 1.425 . S
C2023 C2020 1.409 . S
C2023 C2021 1.415 . S
C2024 H2014 0.930 . S
C2024 C2022 1.419 . S
C2024 C2025 1.362 . S
C2025 H2015 0.930 . S
C2025 C2018 1.409 . S
C2025 C2024 1.362 . S
H2026 C2032 0.930 . S
H2027 C2035 0.930 . S
H2028 C2036 0.930 . S
H2029 C2037 0.930 . S
H2030 C2040 0.930 . S
H2031 C2041 0.930 . S
C2032 H2026 0.930 . S
C2032 C2033 1.355 . S
C2032 C2034 1.415 . S
C2033 C2032 1.355 . S
C2033 C2035 1.419 1_455 S
C2034 C2032 1.415 . S
C2034 C2039 1.425 . S
C2034 C2041 1.409 . S
C2035 H2027 0.930 . S
C2035 C2033 1.419 1_655 S
C2035 C2036 1.362 . S
C2036 H2028 0.930 . S
C2036 C2035 1.362 . S
C2036 C2039 1.409 1_655 S
C2037 H2029 0.930 . S
C2037 C2038 1.355 1_655 S
C2037 C2039 1.415 1_655 S
C2038 C2037 1.355 1_455 S
C2038 C2040 1.419 . S
C2039 C2034 1.425 . S
C2039 C2036 1.409 1_455 S
C2039 C2037 1.415 1_455 S
C2040 H2030 0.930 . S
C2040 C2038 1.419 . S
C2040 C2041 1.362 . S
C2041 H2031 0.930 . S
C2041 C2034 1.409 . S
C2041 C2040 1.362 . S
H2042 C2048 0.930 . S
H2043 C2051 0.930 . S
H2044 C2052 0.930 . S
H2045 C2053 0.930 . S
H2046 C2056 0.930 . S
H2047 C2057 0.930 . S
C2048 H2042 0.930 . S
C2048 C2049 1.355 . S
C2048 C2050 1.415 . S
C2049 C2048 1.355 . S
C2049 C2051 1.419 . S
C2050 C2048 1.415 . S
C2050 C2055 1.425 . S
C2050 C2057 1.409 . S
C2051 H2043 0.930 . S
C2051 C2049 1.419 . S
C2051 C2052 1.362 . S
C2052 H2044 0.930 . S
C2052 C2051 1.362 . S
C2052 C2055 1.409 . S
C2053 H2045 0.930 . S
C2053 C2054 1.355 . S
C2053 C2055 1.415 . S
C2054 C2053 1.355 . S
C2054 C2056 1.419 . S
C2055 C2050 1.425 . S
C2055 C2052 1.409 . S
C2055 C2053 1.415 . S
C2056 H2046 0.930 . S
C2056 C2054 1.419 . S
C2056 C2057 1.362 . S
C2057 H2047 0.930 . S
C2057 C2050 1.409 . S
C2057 C2056 1.362 . S
H2058 C2064 0.930 . S
H2059 C2067 0.930 . S
H2060 C2068 0.930 . S
H2061 C2069 0.930 . S
H2062 C2072 0.930 . S
H2063 C2073 0.930 . S
C2064 H2058 0.930 . S
C2064 C2065 1.355 . S
C2064 C2066 1.415 . S
C2065 C2064 1.355 . S
C2065 C2067 1.419 . S
C2066 C2064 1.415 . S
C2066 C2071 1.425 . S
C2066 C2073 1.409 1_455 S
C2067 H2059 0.930 . S
C2067 C2065 1.419 . S
C2067 C2068 1.362 . S
C2068 H2060 0.930 . S
C2068 C2067 1.362 . S
C2068 C2071 1.409 . S
C2069 H2061 0.930 . S
C2069 C2070 1.355 . S
C2069 C2071 1.415 . S
C2070 C2069 1.355 . S
C2070 C2072 1.419 1_455 S
C2071 C2066 1.425 . S
C2071 C2068 1.409 . S
C2071 C2069 1.415 . S
C2072 H2062 0.930 . S
C2072 C2070 1.419 1_655 S
C2072 C2073 1.362 . S
C2073 H2063 0.930 . S
C2073 C2066 1.409 1_655 S
C2073 C2072 1.362 . S
H2074 C2080 0.930 . S
H2075 C2083 0.930 . S
H2076 C2084 0.930 . S
H2077 C2085 0.930 . S
H2078 C2088 0.930 . S
H2079 C2089 0.930 . S
C2080 H2074 0.930 . S
C2080 C2081 1.355 . S
C2080 C2082 1.415 . S
C2081 C2080 1.355 . S
C2081 C2083 1.419 . S
C2082 C2080 1.415 . S
C2082 C2087 1.425 . S
C2082 C2089 1.409 . S
C2083 H2075 0.930 . S
C2083 C2081 1.419 . S
C2083 C2084 1.362 . S
C2084 H2076 0.930 . S
C2084 C2083 1.362 . S
C2084 C2087 1.409 . S
C2085 H2077 0.930 . S
C2085 C2086 1.355 . S
C2085 C2087 1.415 . S
C2086 C2085 1.355 . S
C2086 C2088 1.419 . S
C2087 C2082 1.425 . S
C2087 C2084 1.409 . S
C2087 C2085 1.415 . S
C2088 H2078 0.930 . S
C2088 C2086 1.419 . S
C2088 C2089 1.362 . S
C2089 H2079 0.930 . S
C2089 C2082 1.409 . S
C2089 C2088 1.362 . S
H2090 C2096 0.929 . S
H2091 C2099 0.930 . S
H2092 C2100 0.930 . S
H2093 C2101 0.930 . S
H2094 C2104 0.930 . S
H2095 C2105 0.930 . S
C2096 H2090 0.929 . S
C2096 C2097 1.355 . S
C2096 C2098 1.415 . S
C2097 C2096 1.355 . S
C2097 C2099 1.419 . S
C2098 C2096 1.415 . S
C2098 C2103 1.425 . S
C2098 C2105 1.409 1_565 S
C2099 H2091 0.930 . S
C2099 C2097 1.419 . S
C2099 C2100 1.362 . S
C2100 H2092 0.930 . S
C2100 C2099 1.362 . S
C2100 C2103 1.409 . S
C2101 H2093 0.930 . S
C2101 C2102 1.355 . S
C2101 C2103 1.415 . S
C2102 C2101 1.355 . S
C2102 C2104 1.419 1_565 S
C2103 C2098 1.425 . S
C2103 C2100 1.409 . S
C2103 C2101 1.415 . S
C2104 H2094 0.930 . S
C2104 C2102 1.419 1_545 S
C2104 C2105 1.362 . S
C2105 H2095 0.930 . S
C2105 C2098 1.409 1_545 S
C2105 C2104 1.362 . S
H2106 C2112 0.945 . S
H2107 C2115 0.930 . S
H2108 C2116 0.930 . S
H2109 C2117 0.930 . S
H2110 C2120 0.930 . S
H2111 C2121 0.930 . S
C2112 H2106 0.945 . S
C2112 C2113 1.355 . S
C2112 C2114 1.415 . S
C2113 C2112 1.355 . S
C2113 C2115 1.419 . S
C2114 C2112 1.415 . S
C2114 C2119 1.425 . S
C2114 C2121 1.409 1_545 S
C2115 H2107 0.930 . S
C2115 C2113 1.419 . S
C2115 C2116 1.362 . S
C2116 H2108 0.930 . S
C2116 C2115 1.362 . S
C2116 C2119 1.409 . S
C2117 H2109 0.930 . S
C2117 C2118 1.355 . S
C2117 C2119 1.415 . S
C2118 C2117 1.355 . S
C2118 C2120 1.419 1_545 S
C2119 C2114 1.425 . S
C2119 C2116 1.409 . S
C2119 C2117 1.415 . S
C2120 H2110 0.930 . S
C2120 C2118 1.419 1_565 S
C2120 C2121 1.362 . S
C2121 H2111 0.930 . S
C2121 C2114 1.409 1_565 S
C2121 C2120 1.362 . S
H2122 C2128 0.930 . S
H2123 C2131 0.930 . S
H2124 C2132 0.930 . S
H2125 C2133 0.930 . S
H2126 C2136 0.930 . S
H2127 C2137 0.930 . S
C2128 H2122 0.930 . S
C2128 C2129 1.355 . S
C2128 C2130 1.415 . S
C2129 C2128 1.355 . S
C2129 C2131 1.419 1_655 S
C2130 C2128 1.415 . S
C2130 C2135 1.397 1_655 S
C2130 C2137 1.409 . S
C2131 H2123 0.930 . S
C2131 C2129 1.419 1_455 S
C2131 C2132 1.362 . S
C2132 H2124 0.930 . S
C2132 C2131 1.362 . S
C2132 C2135 1.416 . S
C2133 H2125 0.930 . S
C2133 C2134 1.355 1_455 S
C2133 C2135 1.435 . S
C2134 C2133 1.355 1_655 S
C2134 C2136 1.419 . S
C2135 C2130 1.397 1_455 S
C2135 C2132 1.416 . S
C2135 C2133 1.435 . S
C2136 H2126 0.930 . S
C2136 C2134 1.419 . S
C2136 C2137 1.362 . S
C2137 H2127 0.930 . S
C2137 C2130 1.409 . S
C2137 C2136 1.362 . S
H2138 C2144 0.930 . S
H2139 C2147 0.930 . S
H2140 C2148 0.930 . S
H2141 C2149 0.930 . S
H2142 C2152 0.930 . S
H2143 C2153 0.930 . S
C2144 H2138 0.930 . S
C2144 C2145 1.355 . S
C2144 C2146 1.415 . S
C2145 C2144 1.355 . S
C2145 C2147 1.419 . S
C2146 C2144 1.415 . S
C2146 C2151 1.425 . S
C2146 C2153 1.409 . S
C2147 H2139 0.930 . S
C2147 C2145 1.419 . S
C2147 C2148 1.362 . S
C2148 H2140 0.930 . S
C2148 C2147 1.362 . S
C2148 C2151 1.409 . S
C2149 H2141 0.930 . S
C2149 C2150 1.355 . S
C2149 C2151 1.415 . S
C2150 C2149 1.355 . S
C2150 C2152 1.419 . S
C2151 C2146 1.425 . S
C2151 C2148 1.409 . S
C2151 C2149 1.415 . S
C2152 H2142 0.930 . S
C2152 C2150 1.419 . S
C2152 C2153 1.362 . S
C2153 H2143 0.930 . S
C2153 C2146 1.409 . S
C2153 C2152 1.362 . S
H2154 C2160 0.930 . S
H2155 C2163 0.930 . S
H2156 C2164 0.930 . S
H2157 C2165 0.930 . S
H2158 C2168 0.930 . S
H2159 C2169 0.930 . S
C2160 H2154 0.930 . S
C2160 C2161 1.355 . S
C2160 C2162 1.415 . S
C2161 C2160 1.355 . S
C2161 C2163 1.419 . S
C2162 C2160 1.415 . S
C2162 C2167 1.425 . S
C2162 C2169 1.409 . S
C2163 H2155 0.930 . S
C2163 C2161 1.419 . S
C2163 C2164 1.362 . S
C2164 H2156 0.930 . S
C2164 C2163 1.362 . S
C2164 C2167 1.409 . S
C2165 H2157 0.930 . S
C2165 C2166 1.355 . S
C2165 C2167 1.415 . S
C2166 C2165 1.355 . S
C2166 C2168 1.419 . S
C2167 C2162 1.425 . S
C2167 C2164 1.409 . S
C2167 C2165 1.415 . S
C2168 H2158 0.930 . S
C2168 C2166 1.419 . S
C2168 C2169 1.362 . S
C2169 H2159 0.930 . S
C2169 C2162 1.409 . S
C2169 C2168 1.362 . S
H2170 C2176 0.930 . S
H2171 C2179 0.930 . S
H2172 C2180 0.930 . S
H2173 C2181 0.930 . S
H2174 C2184 0.930 . S
H2175 C2185 0.930 . S
C2176 H2170 0.930 . S
C2176 C2177 1.355 . S
C2176 C2178 1.415 . S
C2177 C2176 1.355 . S
C2177 C2179 1.419 . S
C2178 C2176 1.415 . S
C2178 C2183 1.425 . S
C2178 C2185 1.409 . S
C2179 H2171 0.930 . S
C2179 C2177 1.419 . S
C2179 C2180 1.362 . S
C2180 H2172 0.930 . S
C2180 C2179 1.362 . S
C2180 C2183 1.409 . S
C2181 H2173 0.930 . S
C2181 C2182 1.355 . S
C2181 C2183 1.415 . S
C2182 C2181 1.355 . S
C2182 C2184 1.419 . S
C2183 C2178 1.425 . S
C2183 C2180 1.409 . S
C2183 C2181 1.415 . S
C2184 H2174 0.930 . S
C2184 C2182 1.419 . S
C2184 C2185 1.362 . S
C2185 H2175 0.930 . S
C2185 C2178 1.409 . S
C2185 C2184 1.362 . S
H2186 C2192 0.930 . S
H2187 C2195 0.930 . S
H2188 C2196 0.930 . S
H2189 C2197 0.930 . S
H2190 C2200 0.930 . S
H2191 C2201 0.930 . S
C2192 H2186 0.930 . S
C2192 C2193 1.355 . S
C2192 C2194 1.415 . S
C2193 C2192 1.355 . S
C2193 C2195 1.419 . S
C2194 C2192 1.415 . S
C2194 C2199 1.425 . S
C2194 C2201 1.409 . S
C2195 H2187 0.930 . S
C2195 C2193 1.419 . S
C2195 C2196 1.362 . S
C2196 H2188 0.930 . S
C2196 C2195 1.362 . S
C2196 C2199 1.409 . S
C2197 H2189 0.930 . S
C2197 C2198 1.355 . S
C2197 C2199 1.415 . S
C2198 C2197 1.355 . S
C2198 C2200 1.419 . S
C2199 C2194 1.425 . S
C2199 C2196 1.409 . S
C2199 C2197 1.415 . S
C2200 H2190 0.930 . S
C2200 C2198 1.419 . S
C2200 C2201 1.362 . S
C2201 H2191 0.930 . S
C2201 C2194 1.409 . S
C2201 C2200 1.362 . S
H2202 C2208 0.930 . S
H2203 C2211 0.930 . S
H2204 C2212 0.930 . S
H2205 C2213 0.930 . S
H2206 C2216 0.930 . S
H2207 C2217 0.930 . S
C2208 H2202 0.930 . S
C2208 C2209 1.355 . S
C2208 C2210 1.415 . S
C2209 C2208 1.355 . S
C2209 C2211 1.419 . S
C2210 C2208 1.415 . S
C2210 C2215 1.425 . S
C2210 C2217 1.409 . S
C2211 H2203 0.930 . S
C2211 C2209 1.419 . S
C2211 C2212 1.362 . S
C2212 H2204 0.930 . S
C2212 C2211 1.362 . S
C2212 C2215 1.409 . S
C2213 H2205 0.930 . S
C2213 C2214 1.355 . S
C2213 C2215 1.415 . S
C2214 C2213 1.355 . S
C2214 C2216 1.419 . S
C2215 C2210 1.425 . S
C2215 C2212 1.409 . S
C2215 C2213 1.415 . S
C2216 H2206 0.930 . S
C2216 C2214 1.419 . S
C2216 C2217 1.362 . S
C2217 H2207 0.930 . S
C2217 C2210 1.409 . S
C2217 C2216 1.362 . S
H2218 C2224 0.930 . S
H2219 C2227 0.930 . S
H2220 C2228 0.930 . S
H2221 C2229 0.930 . S
H2222 C2232 0.930 . S
H2223 C2233 0.930 . S
C2224 H2218 0.930 . S
C2224 C2225 1.355 . S
C2224 C2226 1.415 . S
C2225 C2224 1.355 . S
C2225 C2227 1.419 . S
C2226 C2224 1.415 . S
C2226 C2231 1.425 . S
C2226 C2233 1.409 . S
C2227 H2219 0.930 . S
C2227 C2225 1.419 . S
C2227 C2228 1.362 . S
C2228 H2220 0.930 . S
C2228 C2227 1.362 . S
C2228 C2231 1.409 . S
C2229 H2221 0.930 . S
C2229 C2230 1.355 . S
C2229 C2231 1.415 . S
C2230 C2229 1.355 . S
C2230 C2232 1.419 . S
C2231 C2226 1.425 . S
C2231 C2228 1.409 . S
C2231 C2229 1.415 . S
C2232 H2222 0.930 . S
C2232 C2230 1.419 . S
C2232 C2233 1.362 . S
C2233 H2223 0.930 . S
C2233 C2226 1.409 . S
C2233 C2232 1.362 . S
H2234 C2240 0.930 . S
H2235 C2243 0.930 . S
H2236 C2244 0.930 . S
H2237 C2245 0.930 . S
H2238 C2248 0.930 . S
H2239 C2249 0.930 . S
C2240 H2234 0.930 . S
C2240 C2241 1.355 . S
C2240 C2242 1.415 . S
C2241 C2240 1.355 . S
C2241 C2243 1.419 . S
C2242 C2240 1.415 . S
C2242 C2247 1.425 . S
C2242 C2249 1.409 . S
C2243 H2235 0.930 . S
C2243 C2241 1.419 . S
C2243 C2244 1.362 . S
C2244 H2236 0.930 . S
C2244 C2243 1.362 . S
C2244 C2247 1.409 . S
C2245 H2237 0.930 . S
C2245 C2246 1.355 . S
C2245 C2247 1.415 . S
C2246 C2245 1.355 . S
C2246 C2248 1.419 . S
C2247 C2242 1.425 . S
C2247 C2244 1.409 . S
C2247 C2245 1.415 . S
C2248 H2238 0.930 . S
C2248 C2246 1.419 . S
C2248 C2249 1.362 . S
C2249 H2239 0.930 . S
C2249 C2242 1.409 . S
C2249 C2248 1.362 . S
H2250 C2256 0.930 . S
H2251 C2259 0.930 . S
H2252 C2260 0.930 . S
H2253 C2261 0.930 . S
H2254 C2264 0.930 . S
H2255 C2265 0.930 . S
C2256 H2250 0.930 . S
C2256 C2257 1.355 . S
C2256 C2258 1.415 . S
C2257 C2256 1.355 . S
C2257 C2259 1.419 . S
C2258 C2256 1.415 . S
C2258 C2263 1.425 . S
C2258 C2265 1.409 . S
C2259 H2251 0.930 . S
C2259 C2257 1.419 . S
C2259 C2260 1.362 . S
C2260 H2252 0.930 . S
C2260 C2259 1.362 . S
C2260 C2263 1.409 . S
C2261 H2253 0.930 . S
C2261 C2262 1.355 . S
C2261 C2263 1.415 . S
C2262 C2261 1.355 . S
C2262 C2264 1.419 . S
C2263 C2258 1.425 . S
C2263 C2260 1.409 . S
C2263 C2261 1.415 . S
C2264 H2254 0.930 . S
C2264 C2262 1.419 . S
C2264 C2265 1.362 . S
C2265 H2255 0.930 . S
C2265 C2258 1.409 . S
C2265 C2264 1.362 . S
H2266 C2272 0.930 . S
H2267 C2275 0.930 . S
H2268 C2276 0.930 . S
H2269 C2277 0.930 . S
H2270 C2280 0.930 . S
H2271 C2281 0.930 . S
C2272 H2266 0.930 . S
C2272 C2273 1.355 . S
C2272 C2274 1.415 . S
C2273 C2272 1.355 . S
C2273 C2275 1.419 . S
C2274 C2272 1.415 . S
C2274 C2279 1.425 . S
C2274 C2281 1.409 . S
C2275 H2267 0.930 . S
C2275 C2273 1.419 . S
C2275 C2276 1.362 . S
C2276 H2268 0.930 . S
C2276 C2275 1.362 . S
C2276 C2279 1.409 . S
C2277 H2269 0.930 . S
C2277 C2278 1.355 . S
C2277 C2279 1.415 . S
C2278 C2277 1.355 . S
C2278 C2280 1.419 . S
C2279 C2274 1.425 . S
C2279 C2276 1.409 . S
C2279 C2277 1.415 . S
C2280 H2270 0.930 . S
C2280 C2278 1.419 . S
C2280 C2281 1.362 . S
C2281 H2271 0.930 . S
C2281 C2274 1.409 . S
C2281 C2280 1.362 . S
H2282 C2288 0.930 . S
H2283 C2291 0.930 . S
H2284 C2292 0.930 . S
H2285 C2293 0.930 . S
H2286 C2296 0.930 . S
H2287 C2297 0.930 . S
C2288 H2282 0.930 . S
C2288 C2289 1.355 . S
C2288 C2290 1.415 . S
C2289 C2288 1.355 . S
C2289 C2291 1.419 . S
C2290 C2288 1.415 . S
C2290 C2295 1.425 . S
C2290 C2297 1.409 . S
C2291 H2283 0.930 . S
C2291 C2289 1.419 . S
C2291 C2292 1.362 . S
C2292 H2284 0.930 . S
C2292 C2291 1.362 . S
C2292 C2295 1.409 . S
C2293 H2285 0.930 . S
C2293 C2294 1.355 . S
C2293 C2295 1.415 . S
C2294 C2293 1.355 . S
C2294 C2296 1.419 . S
C2295 C2290 1.425 . S
C2295 C2292 1.409 . S
C2295 C2293 1.415 . S
C2296 H2286 0.930 . S
C2296 C2294 1.419 . S
C2296 C2297 1.362 . S
C2297 H2287 0.930 . S
C2297 C2290 1.409 . S
C2297 C2296 1.362 . S
H2298 C2304 0.930 . S
H2299 C2307 0.930 . S
H2300 C2308 0.930 . S
H2301 C2309 0.930 . S
H2302 C2312 0.930 . S
H2303 C2313 0.930 . S
C2304 H2298 0.930 . S
C2304 C2305 1.355 . S
C2304 C2306 1.415 . S
C2305 C2304 1.355 . S
C2305 C2307 1.419 . S
C2306 C2304 1.415 . S
C2306 C2311 1.425 . S
C2306 C2313 1.409 . S
C2307 H2299 0.930 . S
C2307 C2305 1.419 . S
C2307 C2308 1.362 . S
C2308 H2300 0.930 . S
C2308 C2307 1.362 . S
C2308 C2311 1.409 . S
C2309 H2301 0.930 . S
C2309 C2310 1.355 . S
C2309 C2311 1.415 . S
C2310 C2309 1.355 . S
C2310 C2312 1.419 . S
C2311 C2306 1.425 . S
C2311 C2308 1.409 . S
C2311 C2309 1.415 . S
C2312 H2302 0.930 . S
C2312 C2310 1.419 . S
C2312 C2313 1.362 . S
C2313 H2303 0.930 . S
C2313 C2306 1.409 . S
C2313 C2312 1.362 . S
H2314 C2320 0.930 . S
H2315 C2323 0.930 . S
H2316 C2324 0.930 . S
H2317 C2325 0.930 . S
H2318 C2328 0.930 . S
H2319 C2329 0.930 . S
C2320 H2314 0.930 . S
C2320 C2321 1.355 . S
C2320 C2322 1.415 . S
C2321 C2320 1.355 . S
C2321 C2323 1.419 . S
C2322 C2320 1.415 . S
C2322 C2327 1.425 . S
C2322 C2329 1.409 . S
C2323 H2315 0.930 . S
C2323 C2321 1.419 . S
C2323 C2324 1.362 . S
C2324 H2316 0.930 . S
C2324 C2323 1.362 . S
C2324 C2327 1.409 . S
C2325 H2317 0.930 . S
C2325 C2326 1.355 . S
C2325 C2327 1.415 . S
C2326 C2325 1.355 . S
C2326 C2328 1.419 . S
C2327 C2322 1.425 . S
C2327 C2324 1.409 . S
C2327 C2325 1.415 . S
C2328 H2318 0.930 . S
C2328 C2326 1.419 . S
C2328 C2329 1.362 . S
C2329 H2319 0.930 . S
C2329 C2322 1.409 . S
C2329 C2328 1.362 . S
H2330 C2336 0.930 . S
H2331 C2339 0.930 . S
H2332 C2340 0.930 . S
H2333 C2341 0.930 . S
H2334 C2344 0.930 . S
H2335 C2345 0.930 . S
C2336 H2330 0.930 . S
C2336 C2337 1.355 . S
C2336 C2338 1.415 . S
C2337 C2336 1.355 . S
C2337 C2339 1.419 . S
C2338 C2336 1.415 . S
C2338 C2343 1.425 . S
C2338 C2345 1.409 . S
C2339 H2331 0.930 . S
C2339 C2337 1.419 . S
C2339 C2340 1.362 . S
C2340 H2332 0.930 . S
C2340 C2339 1.362 . S
C2340 C2343 1.409 . S
C2341 H2333 0.930 . S
C2341 C2342 1.355 . S
C2341 C2343 1.415 . S
C2342 C2341 1.355 . S
C2342 C2344 1.419 . S
C2343 C2338 1.425 . S
C2343 C2340 1.409 . S
C2343 C2341 1.415 . S
C2344 H2334 0.930 . S
C2344 C2342 1.419 . S
C2344 C2345 1.362 . S
C2345 H2335 0.930 . S
C2345 C2338 1.409 . S
C2345 C2344 1.362 . S
H2346 C2352 0.930 . S
H2347 C2355 0.930 . S
H2348 C2356 0.930 . S
H2349 C2357 0.930 . S
H2350 C2360 0.930 . S
H2351 C2361 0.930 . S
C2352 H2346 0.930 . S
C2352 C2353 1.355 . S
C2352 C2354 1.415 . S
C2353 C2352 1.355 . S
C2353 C2355 1.419 . S
C2354 C2352 1.415 . S
C2354 C2359 1.425 . S
C2354 C2361 1.409 . S
C2355 H2347 0.930 . S
C2355 C2353 1.419 . S
C2355 C2356 1.362 . S
C2356 H2348 0.930 . S
C2356 C2355 1.362 . S
C2356 C2359 1.409 . S
C2357 H2349 0.930 . S
C2357 C2358 1.355 . S
C2357 C2359 1.415 . S
C2358 C2357 1.355 . S
C2358 C2360 1.419 . S
C2359 C2354 1.425 . S
C2359 C2356 1.409 . S
C2359 C2357 1.415 . S
C2360 H2350 0.930 . S
C2360 C2358 1.419 . S
C2360 C2361 1.362 . S
C2361 H2351 0.930 . S
C2361 C2354 1.409 . S
C2361 C2360 1.362 . S
H2362 C2368 0.930 . S
H2363 C2371 0.930 . S
H2364 C2372 0.930 . S
H2365 C2373 0.930 . S
H2366 C2376 0.930 . S
H2367 C2377 0.930 . S
C2368 H2362 0.930 . S
C2368 C2369 1.355 . S
C2368 C2370 1.415 . S
C2369 C2368 1.355 . S
C2369 C2371 1.419 . S
C2370 C2368 1.415 . S
C2370 C2375 1.425 . S
C2370 C2377 1.409 . S
C2371 H2363 0.930 . S
C2371 C2369 1.419 . S
C2371 C2372 1.362 . S
C2372 H2364 0.930 . S
C2372 C2371 1.362 . S
C2372 C2375 1.409 . S
C2373 H2365 0.930 . S
C2373 C2374 1.355 . S
C2373 C2375 1.415 . S
C2374 C2373 1.355 . S
C2374 C2376 1.419 . S
C2375 C2370 1.425 . S
C2375 C2372 1.409 . S
C2375 C2373 1.415 . S
C2376 H2366 0.930 . S
C2376 C2374 1.419 . S
C2376 C2377 1.362 . S
C2377 H2367 0.930 . S
C2377 C2370 1.409 . S
C2377 C2376 1.362 . S
H2378 C2384 0.930 . S
H2379 C2387 0.930 . S
H2380 C2388 0.930 . S
H2381 C2389 0.930 . S
H2382 C2392 0.930 . S
H2383 C2393 0.930 . S
C2384 H2378 0.930 . S
C2384 C2385 1.355 . S
C2384 C2386 1.415 . S
C2385 C2384 1.355 . S
C2385 C2387 1.419 . S
C2386 C2384 1.415 . S
C2386 C2391 1.425 . S
C2386 C2393 1.409 . S
C2387 H2379 0.930 . S
C2387 C2385 1.419 . S
C2387 C2388 1.362 . S
C2388 H2380 0.930 . S
C2388 C2387 1.362 . S
C2388 C2391 1.409 . S
C2389 H2381 0.930 . S
C2389 C2390 1.355 . S
C2389 C2391 1.415 . S
C2390 C2389 1.355 . S
C2390 C2392 1.419 . S
C2391 C2386 1.425 . S
C2391 C2388 1.409 . S
C2391 C2389 1.415 . S
C2392 H2382 0.930 . S
C2392 C2390 1.419 . S
C2392 C2393 1.362 . S
C2393 H2383 0.930 . S
C2393 C2386 1.409 . S
C2393 C2392 1.362 . S
H2394 C2400 0.930 . S
H2395 C2403 0.930 . S
H2396 C2404 0.930 . S
H2397 C2405 0.930 . S
H2398 C2408 0.930 . S
H2399 C2409 0.930 . S
C2400 H2394 0.930 . S
C2400 C2401 1.355 . S
C2400 C2402 1.415 . S
C2401 C2400 1.355 . S
C2401 C2403 1.419 . S
C2402 C2400 1.415 . S
C2402 C2407 1.425 . S
C2402 C2409 1.409 . S
C2403 H2395 0.930 . S
C2403 C2401 1.419 . S
C2403 C2404 1.362 . S
C2404 H2396 0.930 . S
C2404 C2403 1.362 . S
C2404 C2407 1.409 . S
C2405 H2397 0.930 . S
C2405 C2406 1.355 . S
C2405 C2407 1.415 . S
C2406 C2405 1.355 . S
C2406 C2408 1.419 . S
C2407 C2402 1.425 . S
C2407 C2404 1.409 . S
C2407 C2405 1.415 . S
C2408 H2398 0.930 . S
C2408 C2406 1.419 . S
C2408 C2409 1.362 . S
C2409 H2399 0.930 . S
C2409 C2402 1.409 . S
C2409 C2408 1.362 . S
H2410 C2416 0.930 . S
H2411 C2419 0.930 . S
H2412 C2420 0.930 . S
H2413 C2421 0.930 . S
H2414 C2424 0.930 . S
H2415 C2425 0.930 . S
C2416 H2410 0.930 . S
C2416 C2417 1.355 . S
C2416 C2418 1.415 . S
C2417 C2416 1.355 . S
C2417 C2419 1.419 . S
C2418 C2416 1.415 . S
C2418 C2423 1.425 . S
C2418 C2425 1.409 . S
C2419 H2411 0.930 . S
C2419 C2417 1.419 . S
C2419 C2420 1.362 . S
C2420 H2412 0.930 . S
C2420 C2419 1.362 . S
C2420 C2423 1.409 . S
C2421 H2413 0.930 . S
C2421 C2422 1.355 . S
C2421 C2423 1.415 . S
C2422 C2421 1.355 . S
C2422 C2424 1.419 . S
C2423 C2418 1.425 . S
C2423 C2420 1.409 . S
C2423 C2421 1.415 . S
C2424 H2414 0.930 . S
C2424 C2422 1.419 . S
C2424 C2425 1.362 . S
C2425 H2415 0.930 . S
C2425 C2418 1.409 . S
C2425 C2424 1.362 . S
H2426 C2432 0.930 . S
H2427 C2435 0.930 . S
H2428 C2436 0.930 . S
H2429 C2437 0.930 . S
H2430 C2440 0.930 . S
H2431 C2441 0.930 . S
C2432 H2426 0.930 . S
C2432 C2433 1.355 . S
C2432 C2434 1.415 . S
C2433 C2432 1.355 . S
C2433 C2435 1.419 . S
C2434 C2432 1.415 . S
C2434 C2439 1.425 . S
C2434 C2441 1.409 . S
C2435 H2427 0.930 . S
C2435 C2433 1.419 . S
C2435 C2436 1.362 . S
C2436 H2428 0.930 . S
C2436 C2435 1.362 . S
C2436 C2439 1.409 . S
C2437 H2429 0.930 . S
C2437 C2438 1.355 . S
C2437 C2439 1.415 . S
C2438 C2437 1.355 . S
C2438 C2440 1.419 . S
C2439 C2434 1.425 . S
C2439 C2436 1.409 . S
C2439 C2437 1.415 . S
C2440 H2430 0.930 . S
C2440 C2438 1.419 . S
C2440 C2441 1.362 . S
C2441 H2431 0.930 . S
C2441 C2434 1.409 . S
C2441 C2440 1.362 . S
H2442 C2448 0.930 . S
H2443 C2451 0.930 . S
H2444 C2452 0.930 . S
H2445 C2453 0.930 . S
H2446 C2456 0.930 . S
H2447 C2457 0.930 . S
C2448 H2442 0.930 . S
C2448 C2449 1.355 . S
C2448 C2450 1.415 . S
C2449 C2448 1.355 . S
C2449 C2451 1.419 . S
C2450 C2448 1.415 . S
C2450 C2455 1.425 . S
C2450 C2457 1.409 . S
C2451 H2443 0.930 . S
C2451 C2449 1.419 . S
C2451 C2452 1.362 . S
C2452 H2444 0.930 . S
C2452 C2451 1.362 . S
C2452 C2455 1.409 . S
C2453 H2445 0.930 . S
C2453 C2454 1.355 . S
C2453 C2455 1.415 . S
C2454 C2453 1.355 . S
C2454 C2456 1.419 . S
C2455 C2450 1.425 . S
C2455 C2452 1.409 . S
C2455 C2453 1.415 . S
C2456 H2446 0.930 . S
C2456 C2454 1.419 . S
C2456 C2457 1.362 . S
C2457 H2447 0.930 . S
C2457 C2450 1.409 . S
C2457 C2456 1.362 . S
H2458 C2464 0.930 . S
H2459 C2467 0.930 . S
H2460 C2468 0.930 . S
H2461 C2469 0.930 . S
H2462 C2472 0.930 . S
H2463 C2473 0.930 . S
C2464 H2458 0.930 . S
C2464 C2465 1.355 . S
C2464 C2466 1.415 . S
C2465 C2464 1.355 . S
C2465 C2467 1.419 . S
C2466 C2464 1.415 . S
C2466 C2471 1.425 . S
C2466 C2473 1.409 . S
C2467 H2459 0.930 . S
C2467 C2465 1.419 . S
C2467 C2468 1.362 . S
C2468 H2460 0.930 . S
C2468 C2467 1.362 . S
C2468 C2471 1.409 . S
C2469 H2461 0.930 . S
C2469 C2470 1.355 . S
C2469 C2471 1.415 . S
C2470 C2469 1.355 . S
C2470 C2472 1.419 . S
C2471 C2466 1.425 . S
C2471 C2468 1.409 . S
C2471 C2469 1.415 . S
C2472 H2462 0.930 . S
C2472 C2470 1.419 . S
C2472 C2473 1.362 . S
C2473 H2463 0.930 . S
C2473 C2466 1.409 . S
C2473 C2472 1.362 . S
H2474 C2480 0.930 . S
H2475 C2483 0.930 . S
H2476 C2484 0.930 . S
H2477 C2485 0.930 . S
H2478 C2488 0.930 . S
H2479 C2489 0.930 . S
C2480 H2474 0.930 . S
C2480 C2481 1.355 . S
C2480 C2482 1.415 . S
C2481 C2480 1.355 . S
C2481 C2483 1.419 . S
C2482 C2480 1.415 . S
C2482 C2487 1.425 . S
C2482 C2489 1.409 . S
C2483 H2475 0.930 . S
C2483 C2481 1.419 . S
C2483 C2484 1.362 . S
C2484 H2476 0.930 . S
C2484 C2483 1.362 . S
C2484 C2487 1.409 . S
C2485 H2477 0.930 . S
C2485 C2486 1.355 . S
C2485 C2487 1.415 . S
C2486 C2485 1.355 . S
C2486 C2488 1.419 . S
C2487 C2482 1.425 . S
C2487 C2484 1.409 . S
C2487 C2485 1.415 . S
C2488 H2478 0.930 . S
C2488 C2486 1.419 . S
C2488 C2489 1.362 . S
C2489 H2479 0.930 . S
C2489 C2482 1.409 . S
C2489 C2488 1.362 . S
H2490 C2496 0.930 . S
H2491 C2499 0.930 . S
H2492 C2500 0.930 . S
H2493 C2501 0.930 . S
H2494 C2504 0.930 . S
H2495 C2505 0.930 . S
C2496 H2490 0.930 . S
C2496 C2497 1.355 . S
C2496 C2498 1.415 . S
C2497 C2496 1.355 . S
C2497 C2499 1.419 . S
C2498 C2496 1.415 . S
C2498 C2503 1.425 . S
C2498 C2505 1.409 . S
C2499 H2491 0.930 . S
C2499 C2497 1.419 . S
C2499 C2500 1.362 . S
C2500 H2492 0.930 . S
C2500 C2499 1.362 . S
C2500 C2503 1.409 . S
C2501 H2493 0.930 . S
C2501 C2502 1.355 . S
C2501 C2503 1.415 . S
C2502 C2501 1.355 . S
C2502 C2504 1.419 . S
C2503 C2498 1.425 . S
C2503 C2500 1.409 . S
C2503 C2501 1.415 . S
C2504 H2494 0.930 . S
C2504 C2502 1.419 . S
C2504 C2505 1.362 . S
C2505 H2495 0.930 . S
C2505 C2498 1.409 . S
C2505 C2504 1.362 . S
H2506 C2512 0.930 . S
H2507 C2515 0.930 . S
H2508 C2516 0.930 . S
H2509 C2517 0.930 . S
H2510 C2520 0.930 . S
H2511 C2521 0.930 . S
C2512 H2506 0.930 . S
C2512 C2513 1.355 . S
C2512 C2514 1.415 . S
C2513 C2512 1.355 . S
C2513 C2515 1.419 . S
C2514 C2512 1.415 . S
C2514 C2519 1.425 . S
C2514 C2521 1.409 . S
C2515 H2507 0.930 . S
C2515 C2513 1.419 . S
C2515 C2516 1.362 . S
C2516 H2508 0.930 . S
C2516 C2515 1.362 . S
C2516 C2519 1.409 . S
C2517 H2509 0.930 . S
C2517 C2518 1.355 . S
C2517 C2519 1.415 . S
C2518 C2517 1.355 . S
C2518 C2520 1.419 . S
C2519 C2514 1.425 . S
C2519 C2516 1.409 . S
C2519 C2517 1.415 . S
C2520 H2510 0.930 . S
C2520 C2518 1.419 . S
C2520 C2521 1.362 . S
C2521 H2511 0.930 . S
C2521 C2514 1.409 . S
C2521 C2520 1.362 . S
H2522 C2528 0.930 . S
H2523 C2531 0.930 . S
H2524 C2532 0.930 . S
H2525 C2533 0.930 . S
H2526 C2536 0.930 . S
H2527 C2537 0.930 . S
C2528 H2522 0.930 . S
C2528 C2529 1.355 . S
C2528 C2530 1.415 . S
C2529 C2528 1.355 . S
C2529 C2531 1.419 . S
C2530 C2528 1.415 . S
C2530 C2535 1.425 . S
C2530 C2537 1.409 . S
C2531 H2523 0.930 . S
C2531 C2529 1.419 . S
C2531 C2532 1.362 . S
C2532 H2524 0.930 . S
C2532 C2531 1.362 . S
C2532 C2535 1.409 . S
C2533 H2525 0.930 . S
C2533 C2534 1.355 . S
C2533 C2535 1.415 . S
C2534 C2533 1.355 . S
C2534 C2536 1.419 . S
C2535 C2530 1.425 . S
C2535 C2532 1.409 . S
C2535 C2533 1.415 . S
C2536 H2526 0.930 . S
C2536 C2534 1.419 . S
C2536 C2537 1.362 . S
C2537 H2527 0.930 . S
C2537 C2530 1.409 . S
C2537 C2536 1.362 . S
H2538 C2544 0.930 . S
H2539 C2547 0.930 . S
H2540 C2548 0.930 . S
H2541 C2549 0.930 . S
H2542 C2552 0.930 . S
H2543 C2553 0.930 . S
C2544 H2538 0.930 . S
C2544 C2545 1.355 . S
C2544 C2546 1.415 . S
C2545 C2544 1.355 . S
C2545 C2547 1.419 . S
C2546 C2544 1.415 . S
C2546 C2551 1.425 . S
C2546 C2553 1.409 . S
C2547 H2539 0.930 . S
C2547 C2545 1.419 . S
C2547 C2548 1.362 . S
C2548 H2540 0.930 . S
C2548 C2547 1.362 . S
C2548 C2551 1.409 . S
C2549 H2541 0.930 . S
C2549 C2550 1.355 . S
C2549 C2551 1.415 . S
C2550 C2549 1.355 . S
C2550 C2552 1.419 . S
C2551 C2546 1.425 . S
C2551 C2548 1.409 . S
C2551 C2549 1.415 . S
C2552 H2542 0.930 . S
C2552 C2550 1.419 . S
C2552 C2553 1.362 . S
C2553 H2543 0.930 . S
C2553 C2546 1.409 . S
C2553 C2552 1.362 . S
H2554 C2560 0.930 . S
H2555 C2563 0.930 . S
H2556 C2564 0.930 . S
H2557 C2565 0.930 . S
H2558 C2568 0.930 . S
H2559 C2569 0.930 . S
C2560 H2554 0.930 . S
C2560 C2561 1.355 . S
C2560 C2562 1.415 . S
C2561 C2560 1.355 . S
C2561 C2563 1.419 . S
C2562 C2560 1.415 . S
C2562 C2567 1.425 . S
C2562 C2569 1.409 . S
C2563 H2555 0.930 . S
C2563 C2561 1.419 . S
C2563 C2564 1.362 . S
C2564 H2556 0.930 . S
C2564 C2563 1.362 . S
C2564 C2567 1.409 . S
C2565 H2557 0.930 . S
C2565 C2566 1.355 . S
C2565 C2567 1.415 . S
C2566 C2565 1.355 . S
C2566 C2568 1.419 . S
C2567 C2562 1.425 . S
C2567 C2564 1.409 . S
C2567 C2565 1.415 . S
C2568 H2558 0.930 . S
C2568 C2566 1.419 . S
C2568 C2569 1.362 . S
C2569 H2559 0.930 . S
C2569 C2562 1.409 . S
C2569 C2568 1.362 . S
H2570 C2576 0.930 . S
H2571 C2579 0.930 . S
H2572 C2580 0.930 . S
H2573 C2581 0.930 . S
H2574 C2584 0.930 . S
H2575 C2585 0.930 . S
C2576 H2570 0.930 . S
C2576 C2577 1.355 . S
C2576 C2578 1.415 . S
C2577 C2576 1.355 . S
C2577 C2579 1.419 . S
C2578 C2576 1.415 . S
C2578 C2583 1.425 . S
C2578 C2585 1.409 . S
C2579 H2571 0.930 . S
C2579 C2577 1.419 . S
C2579 C2580 1.362 . S
C2580 H2572 0.930 . S
C2580 C2579 1.362 . S
C2580 C2583 1.409 . S
C2581 H2573 0.930 . S
C2581 C2582 1.355 . S
C2581 C2583 1.415 . S
C2582 C2581 1.355 . S
C2582 C2584 1.419 . S
C2583 C2578 1.425 . S
C2583 C2580 1.409 . S
C2583 C2581 1.415 . S
C2584 H2574 0.930 . S
C2584 C2582 1.419 . S
C2584 C2585 1.362 . S
C2585 H2575 0.930 . S
C2585 C2578 1.409 . S
C2585 C2584 1.362 . S
H2586 C2592 0.930 1_554 S
H2587 C2595 0.930 . S
H2588 C2596 0.930 . S
H2589 C2597 0.930 . S
H2590 C2600 0.930 . S
H2591 C2601 0.930 1_554 S
C2592 H2586 0.930 1_556 S
C2592 C2593 1.355 . S
C2592 C2594 1.415 . S
C2593 C2592 1.355 . S
C2593 C2595 1.419 . S
C2594 C2592 1.415 . S
C2594 C2599 1.425 . S
C2594 C2601 1.409 . S
C2595 H2587 0.930 . S
C2595 C2593 1.419 . S
C2595 C2596 1.362 . S
C2596 H2588 0.930 . S
C2596 C2595 1.362 . S
C2596 C2599 1.409 . S
C2597 H2589 0.930 . S
C2597 C2598 1.355 . S
C2597 C2599 1.415 . S
C2598 C2597 1.355 . S
C2598 C2600 1.419 . S
C2599 C2594 1.425 . S
C2599 C2596 1.409 . S
C2599 C2597 1.415 . S
C2600 H2590 0.930 . S
C2600 C2598 1.419 . S
C2600 C2601 1.362 . S
C2601 H2591 0.930 1_556 S
C2601 C2594 1.409 . S
C2601 C2600 1.362 . S
H2602 C2608 0.930 . S
H2603 C2611 0.930 1_554 S
H2604 C2612 0.930 . S
H2605 C2613 0.930 . S
H2606 C2616 0.930 . S
H2607 C2617 0.930 . S
C2608 H2602 0.930 . S
C2608 C2609 1.355 . S
C2608 C2610 1.415 . S
C2609 C2608 1.355 . S
C2609 C2611 1.419 . S
C2610 C2608 1.415 . S
C2610 C2615 1.425 . S
C2610 C2617 1.409 . S
C2611 H2603 0.930 1_556 S
C2611 C2609 1.419 . S
C2611 C2612 1.362 . S
C2612 H2604 0.930 . S
C2612 C2611 1.362 . S
C2612 C2615 1.409 . S
C2613 H2605 0.930 . S
C2613 C2614 1.355 . S
C2613 C2615 1.415 . S
C2614 C2613 1.355 . S
C2614 C2616 1.419 . S
C2615 C2610 1.425 . S
C2615 C2612 1.409 . S
C2615 C2613 1.415 . S
C2616 H2606 0.930 . S
C2616 C2614 1.419 . S
C2616 C2617 1.362 . S
C2617 H2607 0.930 . S
C2617 C2610 1.409 . S
C2617 C2616 1.362 . S
H2618 C2624 0.930 . S
H2619 C2627 0.930 1_554 S
H2620 C2628 0.930 . S
H2621 C2629 0.930 . S
H2622 C2632 0.930 . S
H2623 C2633 0.930 . S
C2624 H2618 0.930 . S
C2624 C2625 1.355 . S
C2624 C2626 1.415 . S
C2625 C2624 1.355 . S
C2625 C2627 1.419 . S
C2626 C2624 1.415 . S
C2626 C2631 1.425 . S
C2626 C2633 1.409 . S
C2627 H2619 0.930 1_556 S
C2627 C2625 1.419 . S
C2627 C2628 1.362 . S
C2628 H2620 0.930 . S
C2628 C2627 1.362 . S
C2628 C2631 1.409 . S
C2629 H2621 0.930 . S
C2629 C2630 1.355 . S
C2629 C2631 1.415 . S
C2630 C2629 1.355 . S
C2630 C2632 1.419 . S
C2631 C2626 1.425 . S
C2631 C2628 1.409 . S
C2631 C2629 1.415 . S
C2632 H2622 0.930 . S
C2632 C2630 1.419 . S
C2632 C2633 1.362 . S
C2633 H2623 0.930 . S
C2633 C2626 1.409 . S
C2633 C2632 1.362 . S
H2634 C2640 0.930 . S
H2635 C2643 0.930 . S
H2636 C2644 0.930 . S
H2637 C2645 0.930 . S
H2638 C2648 0.930 . S
H2639 C2649 0.930 . S
C2640 H2634 0.930 . S
C2640 C2641 1.355 . S
C2640 C2642 1.415 . S
C2641 C2640 1.355 . S
C2641 C2643 1.419 . S
C2642 C2640 1.415 . S
C2642 C2647 1.425 . S
C2642 C2649 1.409 . S
C2643 H2635 0.930 . S
C2643 C2641 1.419 . S
C2643 C2644 1.362 . S
C2644 H2636 0.930 . S
C2644 C2643 1.362 . S
C2644 C2647 1.409 . S
C2645 H2637 0.930 . S
C2645 C2646 1.355 . S
C2645 C2647 1.415 . S
C2646 C2645 1.355 . S
C2646 C2648 1.419 . S
C2647 C2642 1.425 . S
C2647 C2644 1.409 . S
C2647 C2645 1.415 . S
C2648 H2638 0.930 . S
C2648 C2646 1.419 . S
C2648 C2649 1.362 . S
C2649 H2639 0.930 . S
C2649 C2642 1.409 . S
C2649 C2648 1.362 . S
H2650 C2656 0.930 . S
H2651 C2659 0.930 1_554 S
H2652 C2660 0.930 . S
H2653 C2661 0.930 . S
H2654 C2664 0.930 . S
H2655 C2665 0.930 . S
C2656 H2650 0.930 . S
C2656 C2657 1.355 . S
C2656 C2658 1.415 . S
C2657 C2656 1.355 . S
C2657 C2659 1.419 . S
C2658 C2656 1.415 . S
C2658 C2663 1.425 . S
C2658 C2665 1.409 . S
C2659 H2651 0.930 1_556 S
C2659 C2657 1.419 . S
C2659 C2660 1.362 . S
C2660 H2652 0.930 . S
C2660 C2659 1.362 . S
C2660 C2663 1.409 . S
C2661 H2653 0.930 . S
C2661 C2662 1.355 . S
C2661 C2663 1.415 . S
C2662 C2661 1.355 . S
C2662 C2664 1.419 . S
C2663 C2658 1.425 . S
C2663 C2660 1.409 . S
C2663 C2661 1.415 . S
C2664 H2654 0.930 . S
C2664 C2662 1.419 . S
C2664 C2665 1.362 . S
C2665 H2655 0.930 . S
C2665 C2658 1.409 . S
C2665 C2664 1.362 . S
H2666 C2672 0.930 1_554 S
H2667 C2675 0.930 . S
H2668 C2676 0.930 . S
H2669 C2677 0.930 . S
H2670 C2680 0.930 . S
H2671 C2681 0.930 1_554 S
C2672 H2666 0.930 1_556 S
C2672 C2673 1.355 . S
C2672 C2674 1.415 . S
C2673 C2672 1.355 . S
C2673 C2675 1.419 . S
C2674 C2672 1.415 . S
C2674 C2679 1.425 . S
C2674 C2681 1.409 . S
C2675 H2667 0.930 . S
C2675 C2673 1.419 . S
C2675 C2676 1.362 . S
C2676 H2668 0.930 . S
C2676 C2675 1.362 . S
C2676 C2679 1.409 . S
C2677 H2669 0.930 . S
C2677 C2678 1.355 . S
C2677 C2679 1.415 . S
C2678 C2677 1.355 . S
C2678 C2680 1.419 . S
C2679 C2674 1.425 . S
C2679 C2676 1.409 . S
C2679 C2677 1.415 . S
C2680 H2670 0.930 . S
C2680 C2678 1.419 . S
C2680 C2681 1.362 . S
C2681 H2671 0.930 1_556 S
C2681 C2674 1.409 . S
C2681 C2680 1.362 . S
H2682 C2688 0.930 . S
H2683 C2691 0.930 . S
H2684 C2692 0.930 . S
H2685 C2693 0.930 . S
H2686 C2696 0.930 . S
H2687 C2697 0.930 . S
C2688 H2682 0.930 . S
C2688 C2689 1.355 . S
C2688 C2690 1.415 . S
C2689 C2688 1.355 . S
C2689 C2691 1.419 . S
C2690 C2688 1.415 . S
C2690 C2695 1.425 . S
C2690 C2697 1.409 . S
C2691 H2683 0.930 . S
C2691 C2689 1.419 . S
C2691 C2692 1.362 . S
C2692 H2684 0.930 . S
C2692 C2691 1.362 . S
C2692 C2695 1.409 . S
C2693 H2685 0.930 . S
C2693 C2694 1.355 . S
C2693 C2695 1.415 . S
C2694 C2693 1.355 . S
C2694 C2696 1.419 . S
C2695 C2690 1.425 . S
C2695 C2692 1.409 . S
C2695 C2693 1.415 . S
C2696 H2686 0.930 . S
C2696 C2694 1.419 . S
C2696 C2697 1.362 . S
C2697 H2687 0.930 . S
C2697 C2690 1.409 . S
C2697 C2696 1.362 . S
H2698 C2704 0.930 . S
H2699 C2707 0.930 . S
H2700 C2708 0.930 . S
H2701 C2709 0.930 . S
H2702 C2712 0.930 . S
H2703 C2713 0.930 . S
C2704 H2698 0.930 . S
C2704 C2705 1.355 . S
C2704 C2706 1.415 . S
C2705 C2704 1.355 . S
C2705 C2707 1.419 . S
C2706 C2704 1.415 . S
C2706 C2711 1.425 . S
C2706 C2713 1.409 . S
C2707 H2699 0.930 . S
C2707 C2705 1.419 . S
C2707 C2708 1.362 . S
C2708 H2700 0.930 . S
C2708 C2707 1.362 . S
C2708 C2711 1.409 . S
C2709 H2701 0.930 . S
C2709 C2710 1.355 . S
C2709 C2711 1.415 . S
C2710 C2709 1.355 . S
C2710 C2712 1.419 . S
C2711 C2706 1.425 . S
C2711 C2708 1.409 . S
C2711 C2709 1.415 . S
C2712 H2702 0.930 . S
C2712 C2710 1.419 . S
C2712 C2713 1.362 . S
C2713 H2703 0.930 . S
C2713 C2706 1.409 . S
C2713 C2712 1.362 . S
H2714 C2720 0.930 . S
H2715 C2723 0.930 . S
H2716 C2724 0.930 . S
H2717 C2725 0.930 . S
H2718 C2728 0.930 . S
H2719 C2729 0.930 . S
C2720 H2714 0.930 . S
C2720 C2721 1.355 . S
C2720 C2722 1.415 . S
C2721 C2720 1.355 . S
C2721 C2723 1.419 . S
C2722 C2720 1.415 . S
C2722 C2727 1.425 . S
C2722 C2729 1.409 . S
C2723 H2715 0.930 . S
C2723 C2721 1.419 . S
C2723 C2724 1.362 . S
C2724 H2716 0.930 . S
C2724 C2723 1.362 . S
C2724 C2727 1.409 . S
C2725 H2717 0.930 . S
C2725 C2726 1.355 . S
C2725 C2727 1.415 . S
C2726 C2725 1.355 . S
C2726 C2728 1.419 . S
C2727 C2722 1.425 . S
C2727 C2724 1.409 . S
C2727 C2725 1.415 . S
C2728 H2718 0.930 . S
C2728 C2726 1.419 . S
C2728 C2729 1.362 . S
C2729 H2719 0.930 . S
C2729 C2722 1.409 . S
C2729 C2728 1.362 . S
H2730 C2736 0.930 . S
H2731 C2739 0.930 . S
H2732 C2740 0.930 . S
H2733 C2741 0.930 . S
H2734 C2744 0.930 . S
H2735 C2745 0.930 . S
C2736 H2730 0.930 . S
C2736 C2737 1.355 . S
C2736 C2738 1.415 . S
C2737 C2736 1.355 . S
C2737 C2739 1.419 . S
C2738 C2736 1.415 . S
C2738 C2743 1.425 . S
C2738 C2745 1.409 . S
C2739 H2731 0.930 . S
C2739 C2737 1.419 . S
C2739 C2740 1.362 . S
C2740 H2732 0.930 . S
C2740 C2739 1.362 . S
C2740 C2743 1.409 . S
C2741 H2733 0.930 . S
C2741 C2742 1.355 . S
C2741 C2743 1.415 . S
C2742 C2741 1.355 . S
C2742 C2744 1.419 . S
C2743 C2738 1.425 . S
C2743 C2740 1.409 . S
C2743 C2741 1.415 . S
C2744 H2734 0.930 . S
C2744 C2742 1.419 . S
C2744 C2745 1.362 . S
C2745 H2735 0.930 . S
C2745 C2738 1.409 . S
C2745 C2744 1.362 . S
H2746 C2752 0.930 . S
H2747 C2755 0.930 . S
H2748 C2756 0.930 . S
H2749 C2757 0.930 . S
H2750 C2760 0.930 . S
H2751 C2761 0.930 . S
C2752 H2746 0.930 . S
C2752 C2753 1.355 . S
C2752 C2754 1.415 . S
C2753 C2752 1.355 . S
C2753 C2755 1.419 . S
C2754 C2752 1.415 . S
C2754 C2759 1.425 . S
C2754 C2761 1.409 . S
C2755 H2747 0.930 . S
C2755 C2753 1.419 . S
C2755 C2756 1.362 . S
C2756 H2748 0.930 . S
C2756 C2755 1.362 . S
C2756 C2759 1.409 . S
C2757 H2749 0.930 . S
C2757 C2758 1.355 . S
C2757 C2759 1.415 . S
C2758 C2757 1.355 . S
C2758 C2760 1.419 . S
C2759 C2754 1.425 . S
C2759 C2756 1.409 . S
C2759 C2757 1.415 . S
C2760 H2750 0.930 . S
C2760 C2758 1.419 . S
C2760 C2761 1.362 . S
C2761 H2751 0.930 . S
C2761 C2754 1.409 . S
C2761 C2760 1.362 . S
H2762 C2768 0.930 . S
H2763 C2771 0.930 . S
H2764 C2772 0.930 . S
H2765 C2773 0.930 . S
H2766 C2776 0.930 . S
H2767 C2777 0.930 . S
C2768 H2762 0.930 . S
C2768 C2769 1.355 . S
C2768 C2770 1.415 . S
C2769 C2768 1.355 . S
C2769 C2771 1.419 . S
C2770 C2768 1.415 . S
C2770 C2775 1.425 . S
C2770 C2777 1.409 . S
C2771 H2763 0.930 . S
C2771 C2769 1.419 . S
C2771 C2772 1.362 . S
C2772 H2764 0.930 . S
C2772 C2771 1.362 . S
C2772 C2775 1.409 . S
C2773 H2765 0.930 . S
C2773 C2774 1.355 . S
C2773 C2775 1.415 . S
C2774 C2773 1.355 . S
C2774 C2776 1.419 . S
C2775 C2770 1.425 . S
C2775 C2772 1.409 . S
C2775 C2773 1.415 . S
C2776 H2766 0.930 . S
C2776 C2774 1.419 . S
C2776 C2777 1.362 . S
C2777 H2767 0.930 . S
C2777 C2770 1.409 . S
C2777 C2776 1.362 . S
H2778 C2784 0.930 . S
H2779 C2787 0.930 . S
H2780 C2788 0.930 . S
H2781 C2789 0.930 . S
H2782 C2792 0.930 . S
H2783 C2793 0.930 . S
C2784 H2778 0.930 . S
C2784 C2785 1.355 . S
C2784 C2786 1.415 . S
C2785 C2784 1.355 . S
C2785 C2787 1.419 1_455 S
C2786 C2784 1.415 . S
C2786 C2791 1.394 1_455 S
C2786 C2793 1.409 . S
C2787 H2779 0.930 . S
C2787 C2785 1.419 1_655 S
C2787 C2788 1.362 . S
C2788 H2780 0.930 . S
C2788 C2787 1.362 . S
C2788 C2791 1.417 . S
C2789 H2781 0.930 . S
C2789 C2790 1.355 1_655 S
C2789 C2791 1.438 . S
C2790 C2789 1.355 1_455 S
C2790 C2792 1.419 . S
C2791 C2786 1.394 1_655 S
C2791 C2788 1.417 . S
C2791 C2789 1.438 . S
C2792 H2782 0.930 . S
C2792 C2790 1.419 . S
C2792 C2793 1.362 . S
C2793 H2783 0.930 . S
C2793 C2786 1.409 . S
C2793 C2792 1.362 . S
H2794 C2800 0.930 . S
H2795 C2803 0.930 . S
H2796 C2804 0.930 . S
H2797 C2805 0.930 . S
H2798 C2808 0.930 . S
H2799 C2809 0.930 . S
C2800 H2794 0.930 . S
C2800 C2801 1.355 . S
C2800 C2802 1.415 . S
C2801 C2800 1.355 . S
C2801 C2803 1.419 . S
C2802 C2800 1.415 . S
C2802 C2807 1.425 . S
C2802 C2809 1.409 . S
C2803 H2795 0.930 . S
C2803 C2801 1.419 . S
C2803 C2804 1.362 . S
C2804 H2796 0.930 . S
C2804 C2803 1.362 . S
C2804 C2807 1.409 . S
C2805 H2797 0.930 . S
C2805 C2806 1.355 . S
C2805 C2807 1.415 . S
C2806 C2805 1.355 . S
C2806 C2808 1.419 . S
C2807 C2802 1.425 . S
C2807 C2804 1.409 . S
C2807 C2805 1.415 . S
C2808 H2798 0.930 . S
C2808 C2806 1.419 . S
C2808 C2809 1.362 . S
C2809 H2799 0.930 . S
C2809 C2802 1.409 . S
C2809 C2808 1.362 . S
H2810 C2816 0.930 . S
H2811 C2819 0.930 . S
H2812 C2820 0.930 . S
H2813 C2821 0.930 . S
H2814 C2824 0.930 . S
H2815 C2825 0.930 . S
C2816 H2810 0.930 . S
C2816 C2817 1.355 . S
C2816 C2818 1.415 . S
C2817 C2816 1.355 . S
C2817 C2819 1.419 . S
C2818 C2816 1.415 . S
C2818 C2823 1.425 . S
C2818 C2825 1.409 . S
C2819 H2811 0.930 . S
C2819 C2817 1.419 . S
C2819 C2820 1.362 . S
C2820 H2812 0.930 . S
C2820 C2819 1.362 . S
C2820 C2823 1.409 . S
C2821 H2813 0.930 . S
C2821 C2822 1.355 . S
C2821 C2823 1.415 . S
C2822 C2821 1.355 . S
C2822 C2824 1.419 . S
C2823 C2818 1.425 . S
C2823 C2820 1.409 . S
C2823 C2821 1.415 . S
C2824 H2814 0.930 . S
C2824 C2822 1.419 . S
C2824 C2825 1.362 . S
C2825 H2815 0.930 . S
C2825 C2818 1.409 . S
C2825 C2824 1.362 . S
H2826 C2832 0.930 . S
H2827 C2835 0.930 . S
H2828 C2836 0.930 . S
H2829 C2837 0.930 . S
H2830 C2840 0.930 . S
H2831 C2841 0.930 . S
C2832 H2826 0.930 . S
C2832 C2833 1.355 . S
C2832 C2834 1.415 . S
C2833 C2832 1.355 . S
C2833 C2835 1.419 1_565 S
C2834 C2832 1.415 . S
C2834 C2839 1.383 1_565 S
C2834 C2841 1.409 . S
C2835 H2827 0.930 . S
C2835 C2833 1.419 1_545 S
C2835 C2836 1.362 . S
C2836 H2828 0.930 . S
C2836 C2835 1.362 . S
C2836 C2839 1.417 . S
C2837 H2829 0.930 . S
C2837 C2838 1.355 1_545 S
C2837 C2839 1.448 . S
C2838 C2837 1.355 1_565 S
C2838 C2840 1.419 . S
C2839 C2834 1.383 1_545 S
C2839 C2836 1.417 . S
C2839 C2837 1.448 . S
C2840 H2830 0.930 . S
C2840 C2838 1.419 . S
C2840 C2841 1.362 . S
C2841 H2831 0.930 . S
C2841 C2834 1.409 . S
C2841 C2840 1.362 . S
H2842 C2848 0.930 . S
H2843 C2851 0.930 . S
H2844 C2852 0.930 . S
H2845 C2853 0.930 . S
H2846 C2856 0.930 . S
H2847 C2857 0.930 . S
C2848 H2842 0.930 . S
C2848 C2849 1.355 . S
C2848 C2850 1.415 . S
C2849 C2848 1.355 . S
C2849 C2851 1.419 1_455 S
C2850 C2848 1.415 . S
C2850 C2855 1.425 1_455 S
C2850 C2857 1.409 . S
C2851 H2843 0.930 . S
C2851 C2849 1.419 1_655 S
C2851 C2852 1.362 . S
C2852 H2844 0.930 . S
C2852 C2851 1.362 . S
C2852 C2855 1.410 . S
C2853 H2845 0.930 . S
C2853 C2854 1.355 1_655 S
C2853 C2855 1.414 . S
C2854 C2853 1.355 1_455 S
C2854 C2856 1.419 . S
C2855 C2850 1.425 1_655 S
C2855 C2852 1.410 . S
C2855 C2853 1.414 . S
C2856 H2846 0.930 . S
C2856 C2854 1.419 . S
C2856 C2857 1.362 . S
C2857 H2847 0.930 . S
C2857 C2850 1.409 . S
C2857 C2856 1.362 . S
H2858 C2864 0.930 . S
H2859 C2867 0.930 . S
H2860 C2868 0.930 . S
H2861 C2869 0.930 . S
H2862 C2872 0.930 . S
H2863 C2873 0.930 . S
C2864 H2858 0.930 . S
C2864 C2865 1.355 . S
C2864 C2866 1.415 . S
C2865 C2864 1.355 . S
C2865 C2867 1.419 . S
C2866 C2864 1.415 . S
C2866 C2871 1.425 . S
C2866 C2873 1.409 . S
C2867 H2859 0.930 . S
C2867 C2865 1.419 . S
C2867 C2868 1.362 . S
C2868 H2860 0.930 . S
C2868 C2867 1.362 . S
C2868 C2871 1.409 . S
C2869 H2861 0.930 . S
C2869 C2870 1.355 . S
C2869 C2871 1.415 . S
C2870 C2869 1.355 . S
C2870 C2872 1.419 . S
C2871 C2866 1.425 . S
C2871 C2868 1.409 . S
C2871 C2869 1.415 . S
C2872 H2862 0.930 . S
C2872 C2870 1.419 . S
C2872 C2873 1.362 . S
C2873 H2863 0.930 . S
C2873 C2866 1.409 . S
C2873 C2872 1.362 . S
H2874 C2880 0.930 . S
H2875 C2883 0.930 . S
H2876 C2884 0.930 . S
H2877 C2885 0.930 . S
H2878 C2888 0.930 . S
H2879 C2889 0.930 . S
C2880 H2874 0.930 . S
C2880 C2881 1.355 . S
C2880 C2882 1.415 . S
C2881 C2880 1.355 . S
C2881 C2883 1.419 . S
C2882 C2880 1.415 . S
C2882 C2887 1.425 . S
C2882 C2889 1.409 . S
C2883 H2875 0.930 . S
C2883 C2881 1.419 . S
C2883 C2884 1.362 . S
C2884 H2876 0.930 . S
C2884 C2883 1.362 . S
C2884 C2887 1.409 . S
C2885 H2877 0.930 . S
C2885 C2886 1.355 . S
C2885 C2887 1.415 . S
C2886 C2885 1.355 . S
C2886 C2888 1.419 . S
C2887 C2882 1.425 . S
C2887 C2884 1.409 . S
C2887 C2885 1.415 . S
C2888 H2878 0.930 . S
C2888 C2886 1.419 . S
C2888 C2889 1.362 . S
C2889 H2879 0.930 . S
C2889 C2882 1.409 . S
C2889 C2888 1.362 . S
H2890 C2896 0.930 . S
H2891 C2899 0.930 . S
H2892 C2900 0.930 . S
H2893 C2901 0.930 . S
H2894 C2904 0.930 . S
H2895 C2905 0.930 . S
C2896 H2890 0.930 . S
C2896 C2897 1.355 . S
C2896 C2898 1.415 . S
C2897 C2896 1.355 . S
C2897 C2899 1.419 . S
C2898 C2896 1.415 . S
C2898 C2903 1.425 . S
C2898 C2905 1.409 . S
C2899 H2891 0.930 . S
C2899 C2897 1.419 . S
C2899 C2900 1.362 . S
C2900 H2892 0.930 . S
C2900 C2899 1.362 . S
C2900 C2903 1.409 . S
C2901 H2893 0.930 . S
C2901 C2902 1.355 . S
C2901 C2903 1.415 . S
C2902 C2901 1.355 . S
C2902 C2904 1.419 . S
C2903 C2898 1.425 . S
C2903 C2900 1.409 . S
C2903 C2901 1.415 . S
C2904 H2894 0.930 . S
C2904 C2902 1.419 . S
C2904 C2905 1.362 . S
C2905 H2895 0.930 . S
C2905 C2898 1.409 . S
C2905 C2904 1.362 . S
H2906 C2912 0.930 . S
H2907 C2915 0.930 . S
H2908 C2916 0.930 . S
H2909 C2917 0.930 . S
H2910 C2920 0.930 . S
H2911 C2921 0.930 . S
C2912 H2906 0.930 . S
C2912 C2913 1.355 . S
C2912 C2914 1.415 . S
C2913 C2912 1.355 . S
C2913 C2915 1.419 . S
C2914 C2912 1.415 . S
C2914 C2919 1.425 . S
C2914 C2921 1.409 . S
C2915 H2907 0.930 . S
C2915 C2913 1.419 . S
C2915 C2916 1.362 . S
C2916 H2908 0.930 . S
C2916 C2915 1.362 . S
C2916 C2919 1.409 . S
C2917 H2909 0.930 . S
C2917 C2918 1.355 . S
C2917 C2919 1.415 . S
C2918 C2917 1.355 . S
C2918 C2920 1.419 . S
C2919 C2914 1.425 . S
C2919 C2916 1.409 . S
C2919 C2917 1.415 . S
C2920 H2910 0.930 . S
C2920 C2918 1.419 . S
C2920 C2921 1.362 . S
C2921 H2911 0.930 . S
C2921 C2914 1.409 . S
C2921 C2920 1.362 . S
H2922 C2928 0.930 1_565 S
H2923 C2931 0.930 . S
H2924 C2932 0.930 . S
H2925 C2933 0.930 . S
H2926 C2936 0.930 . S
H2927 C2937 0.930 . S
C2928 H2922 0.930 1_545 S
C2928 C2929 1.355 . S
C2928 C2930 1.415 . S
C2929 C2928 1.355 . S
C2929 C2931 1.419 . S
C2930 C2928 1.415 . S
C2930 C2935 1.425 . S
C2930 C2937 1.409 1_545 S
C2931 H2923 0.930 . S
C2931 C2929 1.419 . S
C2931 C2932 1.362 . S
C2932 H2924 0.930 . S
C2932 C2931 1.362 . S
C2932 C2935 1.409 . S
C2933 H2925 0.930 . S
C2933 C2934 1.355 . S
C2933 C2935 1.415 . S
C2934 C2933 1.355 . S
C2934 C2936 1.419 1_545 S
C2935 C2930 1.425 . S
C2935 C2932 1.409 . S
C2935 C2933 1.415 . S
C2936 H2926 0.930 . S
C2936 C2934 1.419 1_565 S
C2936 C2937 1.362 . S
C2937 H2927 0.930 . S
C2937 C2930 1.409 1_565 S
C2937 C2936 1.362 . S
H2938 C2944 0.930 . S
H2939 C2947 0.930 . S
H2940 C2948 0.930 . S
H2941 C2949 0.930 . S
H2942 C2952 0.930 . S
H2943 C2953 0.930 . S
C2944 H2938 0.930 . S
C2944 C2945 1.355 . S
C2944 C2946 1.415 . S
C2945 C2944 1.355 . S
C2945 C2947 1.419 . S
C2946 C2944 1.415 . S
C2946 C2951 1.425 . S
C2946 C2953 1.409 1_655 S
C2947 H2939 0.930 . S
C2947 C2945 1.419 . S
C2947 C2948 1.362 . S
C2948 H2940 0.930 . S
C2948 C2947 1.362 . S
C2948 C2951 1.409 . S
C2949 H2941 0.930 . S
C2949 C2950 1.355 . S
C2949 C2951 1.415 . S
C2950 C2949 1.355 . S
C2950 C2952 1.419 1_655 S
C2951 C2946 1.425 . S
C2951 C2948 1.409 . S
C2951 C2949 1.415 . S
C2952 H2942 0.930 . S
C2952 C2950 1.419 1_455 S
C2952 C2953 1.362 . S
C2953 H2943 0.930 . S
C2953 C2946 1.409 1_455 S
C2953 C2952 1.362 . S
H2954 C2960 0.930 . S
H2955 C2963 0.930 . S
H2956 C2964 0.930 . S
H2957 C2965 0.930 . S
H2958 C2968 0.930 . S
H2959 C2969 0.930 . S
C2960 H2954 0.930 . S
C2960 C2961 1.355 . S
C2960 C2962 1.415 . S
C2961 C2960 1.355 . S
C2961 C2963 1.419 . S
C2962 C2960 1.415 . S
C2962 C2967 1.425 . S
C2962 C2969 1.409 . S
C2963 H2955 0.930 . S
C2963 C2961 1.419 . S
C2963 C2964 1.362 . S
C2964 H2956 0.930 . S
C2964 C2963 1.362 . S
C2964 C2967 1.409 . S
C2965 H2957 0.930 . S
C2965 C2966 1.355 . S
C2965 C2967 1.415 . S
C2966 C2965 1.355 . S
C2966 C2968 1.419 . S
C2967 C2962 1.425 . S
C2967 C2964 1.409 . S
C2967 C2965 1.415 . S
C2968 H2958 0.930 . S
C2968 C2966 1.419 . S
C2968 C2969 1.362 . S
C2969 H2959 0.930 . S
C2969 C2962 1.409 . S
C2969 C2968 1.362 . S
H2970 C2976 0.930 . S
H2971 C2979 0.930 . S
H2972 C2980 0.930 . S
H2973 C2981 0.930 . S
H2974 C2984 0.930 . S
H2975 C2985 0.930 . S
C2976 H2970 0.930 . S
C2976 C2977 1.355 . S
C2976 C2978 1.415 . S
C2977 C2976 1.355 . S
C2977 C2979 1.419 . S
C2978 C2976 1.415 . S
C2978 C2983 1.425 . S
C2978 C2985 1.409 . S
C2979 H2971 0.930 . S
C2979 C2977 1.419 . S
C2979 C2980 1.362 . S
C2980 H2972 0.930 . S
C2980 C2979 1.362 . S
C2980 C2983 1.409 . S
C2981 H2973 0.930 . S
C2981 C2982 1.355 . S
C2981 C2983 1.415 . S
C2982 C2981 1.355 . S
C2982 C2984 1.419 . S
C2983 C2978 1.425 . S
C2983 C2980 1.409 . S
C2983 C2981 1.415 . S
C2984 H2974 0.930 . S
C2984 C2982 1.419 . S
C2984 C2985 1.362 . S
C2985 H2975 0.930 . S
C2985 C2978 1.409 . S
C2985 C2984 1.362 . S
H2986 C2992 0.930 . S
H2987 C2995 0.930 . S
H2988 C2996 0.930 . S
H2989 C2997 0.930 . S
H2990 C3000 0.930 . S
H2991 C3001 0.930 . S
C2992 H2986 0.930 . S
C2992 C2993 1.355 . S
C2992 C2994 1.415 . S
C2993 C2992 1.355 . S
C2993 C2995 1.419 . S
C2994 C2992 1.415 . S
C2994 C2999 1.425 . S
C2994 C3001 1.409 . S
C2995 H2987 0.930 . S
C2995 C2993 1.419 . S
C2995 C2996 1.362 . S
C2996 H2988 0.930 . S
C2996 C2995 1.362 . S
C2996 C2999 1.409 . S
C2997 H2989 0.930 . S
C2997 C2998 1.355 . S
C2997 C2999 1.415 . S
C2998 C2997 1.355 . S
C2998 C3000 1.419 . S
C2999 C2994 1.425 . S
C2999 C2996 1.409 . S
C2999 C2997 1.415 . S
C3000 H2990 0.930 . S
C3000 C2998 1.419 . S
C3000 C3001 1.362 . S
C3001 H2991 0.930 . S
C3001 C2994 1.409 . S
C3001 C3000 1.362 . S
H3002 C3008 0.930 . S
H3003 C3011 0.930 . S
H3004 C3012 0.930 . S
H3005 C3013 0.930 . S
H3006 C3016 0.930 . S
H3007 C3017 0.930 . S
C3008 H3002 0.930 . S
C3008 C3009 1.355 . S
C3008 C3010 1.415 . S
C3009 C3008 1.355 . S
C3009 C3011 1.419 . S
C3010 C3008 1.415 . S
C3010 C3015 1.425 . S
C3010 C3017 1.409 . S
C3011 H3003 0.930 . S
C3011 C3009 1.419 . S
C3011 C3012 1.362 . S
C3012 H3004 0.930 . S
C3012 C3011 1.362 . S
C3012 C3015 1.409 . S
C3013 H3005 0.930 . S
C3013 C3014 1.355 . S
C3013 C3015 1.415 . S
C3014 C3013 1.355 . S
C3014 C3016 1.419 . S
C3015 C3010 1.425 . S
C3015 C3012 1.409 . S
C3015 C3013 1.415 . S
C3016 H3006 0.930 . S
C3016 C3014 1.419 . S
C3016 C3017 1.362 . S
C3017 H3007 0.930 . S
C3017 C3010 1.409 . S
C3017 C3016 1.362 . S
H3018 C3024 0.930 . S
H3019 C3027 0.930 . S
H3020 C3028 0.930 . S
H3021 C3029 0.930 . S
H3022 C3032 0.930 . S
H3023 C3033 0.930 . S
C3024 H3018 0.930 . S
C3024 C3025 1.355 . S
C3024 C3026 1.415 . S
C3025 C3024 1.355 . S
C3025 C3027 1.419 . S
C3026 C3024 1.415 . S
C3026 C3031 1.425 . S
C3026 C3033 1.409 . S
C3027 H3019 0.930 . S
C3027 C3025 1.419 . S
C3027 C3028 1.362 . S
C3028 H3020 0.930 . S
C3028 C3027 1.362 . S
C3028 C3031 1.409 . S
C3029 H3021 0.930 . S
C3029 C3030 1.355 . S
C3029 C3031 1.415 . S
C3030 C3029 1.355 . S
C3030 C3032 1.419 . S
C3031 C3026 1.425 . S
C3031 C3028 1.409 . S
C3031 C3029 1.415 . S
C3032 H3022 0.930 . S
C3032 C3030 1.419 . S
C3032 C3033 1.362 . S
C3033 H3023 0.930 . S
C3033 C3026 1.409 . S
C3033 C3032 1.362 . S
H3034 C3040 0.930 . S
H3035 C3043 0.930 . S
H3036 C3044 0.930 . S
H3037 C3045 0.930 . S
H3038 C3048 0.930 . S
H3039 C3049 0.930 . S
C3040 H3034 0.930 . S
C3040 C3041 1.355 . S
C3040 C3042 1.415 . S
C3041 C3040 1.355 . S
C3041 C3043 1.419 . S
C3042 C3040 1.415 . S
C3042 C3047 1.425 . S
C3042 C3049 1.409 . S
C3043 H3035 0.930 . S
C3043 C3041 1.419 . S
C3043 C3044 1.362 . S
C3044 H3036 0.930 . S
C3044 C3043 1.362 . S
C3044 C3047 1.409 . S
C3045 H3037 0.930 . S
C3045 C3046 1.355 . S
C3045 C3047 1.415 . S
C3046 C3045 1.355 . S
C3046 C3048 1.419 . S
C3047 C3042 1.425 . S
C3047 C3044 1.409 . S
C3047 C3045 1.415 . S
C3048 H3038 0.930 . S
C3048 C3046 1.419 . S
C3048 C3049 1.362 . S
C3049 H3039 0.930 . S
C3049 C3042 1.409 . S
C3049 C3048 1.362 . S
H3050 C3056 0.930 . S
H3051 C3059 0.930 . S
H3052 C3060 0.930 . S
H3053 C3061 0.930 . S
H3054 C3064 0.930 . S
H3055 C3065 0.930 . S
C3056 H3050 0.930 . S
C3056 C3057 1.355 . S
C3056 C3058 1.415 . S
C3057 C3056 1.355 . S
C3057 C3059 1.419 . S
C3058 C3056 1.415 . S
C3058 C3063 1.425 . S
C3058 C3065 1.409 . S
C3059 H3051 0.930 . S
C3059 C3057 1.419 . S
C3059 C3060 1.362 . S
C3060 H3052 0.930 . S
C3060 C3059 1.362 . S
C3060 C3063 1.409 . S
C3061 H3053 0.930 . S
C3061 C3062 1.355 . S
C3061 C3063 1.415 . S
C3062 C3061 1.355 . S
C3062 C3064 1.419 . S
C3063 C3058 1.425 . S
C3063 C3060 1.409 . S
C3063 C3061 1.415 . S
C3064 H3054 0.930 . S
C3064 C3062 1.419 . S
C3064 C3065 1.362 . S
C3065 H3055 0.930 . S
C3065 C3058 1.409 . S
C3065 C3064 1.362 . S
H3066 C3072 0.930 . S
H3067 C3075 0.930 . S
H3068 C3076 0.930 . S
H3069 C3077 0.930 . S
H3070 C3080 0.930 . S
H3071 C3081 0.930 . S
C3072 H3066 0.930 . S
C3072 C3073 1.355 . S
C3072 C3074 1.415 . S
C3073 C3072 1.355 . S
C3073 C3075 1.419 1_655 S
C3074 C3072 1.415 . S
C3074 C3079 1.485 . S
C3074 C3081 1.409 . S
C3075 H3067 0.930 . S
C3075 C3073 1.419 1_455 S
C3075 C3076 1.362 . S
C3076 H3068 0.930 . S
C3076 C3075 1.362 . S
C3076 C3079 1.403 1_455 S
C3077 H3069 0.930 . S
C3077 C3078 1.355 1_455 S
C3077 C3079 1.366 1_455 S
C3078 C3077 1.355 1_655 S
C3078 C3080 1.419 . S
C3079 C3074 1.485 . S
C3079 C3076 1.403 1_655 S
C3079 C3077 1.366 1_655 S
C3080 H3070 0.930 . S
C3080 C3078 1.419 . S
C3080 C3081 1.362 . S
C3081 H3071 0.930 . S
C3081 C3074 1.409 . S
C3081 C3080 1.362 . S
H3082 C3088 0.930 . S
H3083 C3091 0.930 . S
H3084 C3092 0.930 . S
H3085 C3093 0.930 . S
H3086 C3096 0.930 . S
H3087 C3097 0.930 . S
C3088 H3082 0.930 . S
C3088 C3089 1.355 . S
C3088 C3090 1.415 . S
C3089 C3088 1.355 . S
C3089 C3091 1.419 . S
C3090 C3088 1.415 . S
C3090 C3095 1.425 . S
C3090 C3097 1.409 . S
C3091 H3083 0.930 . S
C3091 C3089 1.419 . S
C3091 C3092 1.362 . S
C3092 H3084 0.930 . S
C3092 C3091 1.362 . S
C3092 C3095 1.409 . S
C3093 H3085 0.930 . S
C3093 C3094 1.355 . S
C3093 C3095 1.415 . S
C3094 C3093 1.355 . S
C3094 C3096 1.419 . S
C3095 C3090 1.425 . S
C3095 C3092 1.409 . S
C3095 C3093 1.415 . S
C3096 H3086 0.930 . S
C3096 C3094 1.419 . S
C3096 C3097 1.362 . S
C3097 H3087 0.930 . S
C3097 C3090 1.409 . S
C3097 C3096 1.362 . S
H3098 C3104 0.930 . S
H3099 C3107 0.930 . S
H3100 C3108 0.930 . S
H3101 C3109 0.930 . S
H3102 C3112 0.930 . S
H3103 C3113 0.930 . S
C3104 H3098 0.930 . S
C3104 C3105 1.355 . S
C3104 C3106 1.415 . S
C3105 C3104 1.355 . S
C3105 C3107 1.419 1_545 S
C3106 C3104 1.415 . S
C3106 C3111 1.378 1_545 S
C3106 C3113 1.409 . S
C3107 H3099 0.930 . S
C3107 C3105 1.419 1_565 S
C3107 C3108 1.362 . S
C3108 H3100 0.930 . S
C3108 C3107 1.362 . S
C3108 C3111 1.468 . S
C3109 H3101 0.930 . S
C3109 C3110 1.355 1_565 S
C3109 C3111 1.404 . S
C3110 C3109 1.355 1_545 S
C3110 C3112 1.419 . S
C3111 C3106 1.378 1_565 S
C3111 C3108 1.468 . S
C3111 C3109 1.404 . S
C3112 H3102 0.930 . S
C3112 C3110 1.419 . S
C3112 C3113 1.362 . S
C3113 H3103 0.930 . S
C3113 C3106 1.409 . S
C3113 C3112 1.362 . S
C1969 C49 1.711 . S
C1974 C1790 1.697 1_655 S
C1985 C137 1.709 . S
C1990 C1803 1.677 . S
C2006 C1832 1.607 1_545 S
C2001 C205 1.689 . S
C2017 C196 1.697 . S
C2022 C1845 1.653 . S
C2033 C57 1.677 . S
C2038 C1866 1.624 . S
C2049 C145 1.669 . S
C2054 C1895 1.628 . S
C2065 C313 1.689 . S
C2070 C1874 1.597 . S
C2086 C1887 1.620 . S
C2081 C401 1.658 . S
C2102 C1853 1.604 . S
C2097 C489 1.687 . S
C2113 C469 1.676 . S
C2118 C1824 1.636 1_545 S
C2134 C1782 1.698 1_655 S
C2129 C293 1.689 . S
C2145 C381 1.703 . S
C2150 C1811 1.653 . S
C2161 C577 1.721 . S
C2166 C1916 1.681 . S
C2177 C645 1.676 . S
C2182 C1929 1.625 . S
C2198 C1958 1.644 . S
C2193 C733 1.686 . S
C2209 C724 1.664 . S
C2214 C1593 1.612 . S
C2225 C585 1.713 . S
C2230 C1614 1.679 . S
C2241 C636 1.690 . S
C2246 C1643 1.639 . S
C2257 C841 1.679 . S
C2262 C1622 1.609 . S
C2273 C937 1.720 . S
C2278 C1635 1.631 . S
C2294 C1601 1.664 . S
C2289 C1025 1.715 . S
C2310 C1950 1.675 . S
C2305 C988 1.709 . S
C2326 C1908 1.628 . S
C2321 C821 1.697 . S
C2342 C1937 1.643 . S
C2337 C900 1.696 . S
C2353 C1105 1.714 . S
C2358 C1664 1.609 . S
C2369 C1193 1.704 . S
C2374 C1677 1.658 . S
C2385 C1281 1.703 . S
C2390 C1706 1.593 . S
C2401 C1289 1.710 . S
C2406 C1719 1.678 . S
C2422 C1740 1.636 . S
C2417 C1113 1.679 . S
C2438 C1769 1.639 . S
C2433 C1201 1.717 . S
C2454 C1748 1.653 . S
C2449 C1369 1.708 . S
C2470 C1761 1.589 . S
C2465 C1457 1.673 . S
C2481 C1553 1.694 . S
C2486 C1727 1.652 . S
C2502 C1698 1.613 . S
C2497 C1516 1.651 . S
C2513 C1349 1.721 . S
C2518 C1656 1.671 . S
C2534 C1685 1.667 . S
C2529 C1437 1.710 . S
C2550 C1596 1.368 . S
C2545 C29 1.373 . S
C2561 C117 1.349 . S
C2566 C1617 1.200 . S
C2582 C1645 1.225 . S
C2577 C225 1.395 . S
C2598 C1666 1.309 . S
C2593 C233 1.359 . S
C2614 C1680 1.306 . S
C2609 C20 1.396 . S
C2630 C1708 1.226 . S
C2625 C108 1.363 . S
C2641 C321 1.448 . S
C2646 C1701 1.276 . S
C2657 C409 1.382 . S
C2662 C1659 1.153 . S
C2673 C497 1.427 . S
C2678 C1687 1.407 . S
C2689 C460 1.432 . S
C2694 C1624 1.324 . S
C2710 C1638 1.250 . S
C2705 C284 1.406 . S
C2721 C372 1.395 . S
C2726 C1603 1.297 . S
C2742 C1722 1.237 . S
C2737 C557 1.362 . S
C2753 C665 1.387 . S
C2758 C1743 1.356 . S
C2769 C753 1.406 . S
C2774 C1771 1.337 . S
C2790 C1792 1.120 . S
C2785 C761 1.243 . S
C2801 C548 1.331 . S
C2806 C1806 1.298 . S
C2817 C673 1.269 . S
C2822 C1834 1.122 . S
C2833 C849 1.274 . S
C2838 C1827 1.091 . S
C2849 C929 1.270 . S
C2854 C1785 1.086 . S
C2870 C1813 1.281 . S
C2865 C1017 1.371 . S
C2881 C997 1.363 . S
C2886 C1750 1.320 . S
C2897 C812 1.439 . S
C2902 C1764 1.319 . S
C2918 C1729 1.402 . S
C2913 C909 1.427 . S
C2934 C1848 1.077 1_545 S
C2929 C1085 1.265 . S
C2945 C1173 1.261 . S
C2950 C1869 1.103 1_655 S
C2961 C1261 1.344 . S
C2966 C1897 1.289 . S
C2982 C1918 1.203 . S
C2977 C1252 1.359 . S
C2998 C1932 1.259 . S
C2993 C1076 1.416 . S
C3009 C1164 1.416 . S
C3014 C1960 1.275 . S
C3025 C1377 1.382 . S
C3030 C1953 1.172 . S
C3041 C1465 1.437 . S
C3046 C1911 1.289 . S
C3062 C1939 1.332 . S
C3057 C1545 1.446 . S
C3078 C1876 1.174 1_655 S
C3073 C1525 1.255 . S
C3094 C1890 1.221 . S
C3089 C1340 1.392 . S
C3105 C1428 1.267 . S
C3110 C1855 1.252 1_545 S
