# Generated by pormake.
# Topology tsx, (6,3)-cn, num edge types: 1
# Building blocks:
#     Node 0, Type 0, BuildingBlock: CIFDUS_clean_sbu_1, # of connection points: 6
#     Node 1, Type 0, BuildingBlock: CIFDUS_clean_sbu_1, # of connection points: 6
#     Node 2, Type 1, BuildingBlock: QEWDON_clean_linker_0, # of connection points: 3
#     Node 3, Type 1, BuildingBlock: QEWDON_clean_linker_0, # of connection points: 3
#     Node 4, Type 1, BuildingBlock: QEWDON_clean_linker_0, # of connection points: 3
#     Node 5, Type 1, BuildingBlock: QEWDON_clean_linker_0, # of connection points: 3
#     Edge 6, Type (0, 1), BuildingBlock: MIFKUJ_clean_linker_0, # of connection points: 2
#     Edge 7, Type (0, 1), BuildingBlock: MIFKUJ_clean_linker_0, # of connection points: 2
#     Edge 8, Type (0, 1), BuildingBlock: MIFKUJ_clean_linker_0, # of connection points: 2
#     Edge 9, Type (0, 1), BuildingBlock: MIFKUJ_clean_linker_0, # of connection points: 2
#     Edge 10, Type (0, 1), BuildingBlock: MIFKUJ_clean_linker_0, # of connection points: 2
#     Edge 11, Type (0, 1), BuildingBlock: MIFKUJ_clean_linker_0, # of connection points: 2
#     Edge 12, Type (0, 1), BuildingBlock: MIFKUJ_clean_linker_0, # of connection points: 2
#     Edge 13, Type (0, 1), BuildingBlock: MIFKUJ_clean_linker_0, # of connection points: 2
#     Edge 14, Type (0, 1), BuildingBlock: MIFKUJ_clean_linker_0, # of connection points: 2
#     Edge 15, Type (0, 1), BuildingBlock: MIFKUJ_clean_linker_0, # of connection points: 2
#     Edge 16, Type (0, 1), BuildingBlock: MIFKUJ_clean_linker_0, # of connection points: 2
#     Edge 17, Type (0, 1), BuildingBlock: MIFKUJ_clean_linker_0, # of connection points: 2
# Relax obj value: 0.103
# Max RMSD: 0.205
# Mean RMSD: 0.148
data_MOF--net-tsx--node1-CIFDUS_clean_sbu_1--node2-QEWDON_clean_linker_0--edge1-MIFKUJ_clean_linker_0
_symmetry_space_group_name_H-M    P1
_symmetry_Int_Tables_number       1
_symmetry_cell_setting            triclinic
loop_
_symmetry_equiv_pos_as_xyz
'x, y, z'
_cell_length_a     25.929981
_cell_length_b     30.985429
_cell_length_c     43.844199
_cell_angle_alpha  97.128412
_cell_angle_beta   105.50366
_cell_angle_gamma 91.599445
loop_
_atom_site_label
_atom_site_type_symbol
_atom_site_fract_x
_atom_site_fract_y
_atom_site_fract_z
_atom_type_partial_charge
O0 O 0.01281 0.05761 0.01218 0.0
Mn1 Mn 0.06049 0.00538 0.01077 0.0
O2 O 0.9433 0.03728 0.96937 0.0
Mn3 Mn 0.96379 0.98131 0.96149 0.0
O4 O 0.10687 0.95148 0.00815 0.0
O5 O 0.12616 0.05077 0.02413 0.0
Mn6 Mn 0.16863 0.02458 0.05413 0.0
O7 O 0.05989 -0.00104 0.05821 0.0
O8 O 0.18969 0.97342 0.03743 0.0
O9 O 0.06372 0.01403 0.96426 0.0
O10 O 0.00012 0.96959 0.93146 0.0
O11 O 0.20899 0.07222 0.05531 0.0
O12 O 0.14194 0.02224 0.0882 0.0
C13 C 0.9496 0.93375 0.98655 0.0
C14 C 0.96816 0.06477 0.99308 0.0
C15 C 0.15655 0.94471 0.01879 0.0
C16 C 0.16775 0.07947 0.03261 0.0
C17 C 0.09454 0.00821 0.08558 0.0
C18 C 0.04232 0.9932 0.93647 0.0
O19 O 0.99363 0.96001 0.9977 0.0
O20 O 0.91554 0.9396 0.95996 0.0
O21 O 0.51093 0.55748 0.50975 0.0
Mn22 Mn 0.55912 0.50542 0.50986 0.0
O23 O 0.43847 0.53628 0.46889 0.0
Mn24 Mn 0.46085 0.48165 0.45866 0.0
O25 O 0.60814 0.45314 0.51028 0.0
O26 O 0.62354 0.5492 0.52596 0.0
Mn27 Mn 0.66809 0.5301 0.55871 0.0
O28 O 0.55482 0.49981 0.55634 0.0
O29 O 0.68827 0.47651 0.54414 0.0
O30 O 0.56634 0.51372 0.46408 0.0
O31 O 0.4986 0.47508 0.42886 0.0
O32 O 0.70123 0.58073 0.55409 0.0
O33 O 0.63214 0.53097 0.58966 0.0
C34 C 0.45073 0.43213 0.48399 0.0
C35 C 0.46477 0.56401 0.49208 0.0
C36 C 0.65715 0.44719 0.52424 0.0
C37 C 0.65823 0.58221 0.5311 0.0
C38 C 0.58468 0.51443 0.58442 0.0
C39 C 0.54303 0.49642 0.43546 0.0
O40 O 0.49292 0.46023 0.49438 0.0
O41 O 0.41626 0.43655 0.45721 0.0
H42 H 0.06938 0.02122 0.42149 0.0
C43 C 0.08631 0.99048 0.42674 0.0
C44 C 0.09528 0.96103 0.40208 0.0
C45 C 0.10379 0.98202 0.45852 0.0
H46 H 0.13132 0.90137 0.39043 0.0
C47 C 0.12121 0.92293 0.40915 0.0
C48 C 0.13758 0.91432 0.44075 0.0
C49 C 0.12776 0.94325 0.46519 0.0
C50 C 0.10349 0.01608 0.48501 0.0
H51 H 0.14239 0.93706 0.48976 0.0
C52 C 0.05649 0.03672 0.485 0.0
C53 C 0.05519 0.08018 0.50998 0.0
C54 C 0.15103 0.02846 0.50869 0.0
H55 H 0.18726 0.01208 0.50816 0.0
C56 C 0.15399 0.06147 0.53337 0.0
H57 H 0.02227 0.02153 0.46621 0.0
C58 C 0.11133 0.08663 0.53533 0.0
H59 H 0.0765 0.08661 0.52194 0.0
H60 H 0.19158 0.06887 0.55168 0.0
H61 H 0.01793 0.09132 0.6024 0.0
C62 C 0.99177 0.06252 0.59212 0.0
C63 C 0.97816 0.03614 0.61288 0.0
C64 C 0.972 0.05119 0.55877 0.0
H65 H 0.93669 0.97764 0.61736 0.0
C66 C 0.94511 -0.00179 0.60075 0.0
C67 C 0.92331 0.98659 0.56783 0.0
C68 C 0.93682 0.01334 0.54703 0.0
C69 C 0.98853 0.07793 0.53635 0.0
H70 H 0.91886 0.00435 0.52185 0.0
C71 C 0.03384 0.12573 0.55109 0.0
C72 C 0.05602 0.15573 0.52269 0.0
C73 C 0.96481 0.06062 0.49414 0.0
H74 H 0.93817 0.03198 0.48422 0.0
C75 C 0.9862 0.09154 0.46626 0.0
H76 H 0.05009 0.13632 0.57637 0.0
C77 C 0.03135 0.13788 0.48097 0.0
H78 H 0.04531 0.15451 0.46413 0.0
H79 H 0.97205 0.0811 0.44078 0.0
H80 H 0.57383 0.52206 0.92098 0.0
C81 C 0.5928 0.49251 0.92737 0.0
C82 C 0.60071 0.4606 0.90349 0.0
C83 C 0.61136 0.48718 0.95979 0.0
H84 H 0.63641 0.39927 0.89516 0.0
C85 C 0.62677 0.42317 0.91271 0.0
C86 C 0.64374 0.41768 0.94496 0.0
C87 C 0.63544 0.4492 0.96828 0.0
C88 C 0.60938 0.5225 0.98515 0.0
H89 H 0.6502 0.44508 0.9933 0.0
C90 C 0.5609 0.54087 0.98494 0.0
C91 C 0.55671 0.58381 0.00971 0.0
C92 C 0.65624 0.5369 0.00883 0.0
H93 H 0.69357 0.52215 0.00855 0.0
C94 C 0.65686 0.56927 0.03355 0.0
H95 H 0.52751 0.52426 0.96624 0.0
C96 C 0.6123 0.59206 0.03543 0.0
H97 H 0.57748 0.5909 0.02179 0.0
H98 H 0.69395 0.57792 0.05208 0.0
H99 H 0.51777 0.59403 0.10186 0.0
C100 C 0.49125 0.56541 0.09167 0.0
C101 C 0.47671 0.53974 0.11263 0.0
C102 C 0.47262 0.55318 0.05826 0.0
H103 H 0.43241 0.48235 0.117 0.0
C104 C 0.44339 0.50194 0.10055 0.0
C105 C 0.42426 0.48906 0.06768 0.0
C106 C 0.43829 0.51496 0.04667 0.0
C107 C 0.48963 0.57919 0.03563 0.0
H108 H 0.42293 0.50402 0.02149 0.0
C109 C 0.53221 0.62835 0.0502 0.0
C110 C 0.55319 0.65906 0.02186 0.0
C111 C 0.46735 0.56094 0.99346 0.0
H112 H 0.44213 0.53151 0.98365 0.0
C113 C 0.48745 0.59265 0.96546 0.0
H114 H 0.54747 0.63957 0.07545 0.0
C115 C 0.53002 0.64054 0.98016 0.0
H116 H 0.54351 0.65762 0.96337 0.0
H117 H 0.47415 0.58179 0.94002 0.0
H118 H 0.10009 0.14607 0.02137 0.0
H119 H 0.12815 0.22008 0.01426 0.0
H120 H 0.2816 0.17497 0.00896 0.0
H121 H 0.25223 0.10165 0.01304 0.0
H122 H 0.2288 0.25712 0.06455 0.0
H123 H 0.30994 0.20678 0.97106 0.0
H124 H 0.29837 0.17084 0.91605 0.0
H125 H 0.15965 0.24256 0.88296 0.0
H126 H 0.16923 0.27754 0.93819 0.0
H127 H 0.44445 0.41029 0.08796 0.0
H128 H 0.38664 0.34325 0.07216 0.0
H129 H 0.27084 0.40685 0.00503 0.0
H130 H 0.32911 0.47442 0.02072 0.0
H131 H 0.289 0.32168 0.98081 0.0
H132 H 0.24386 0.39237 0.07621 0.0
H133 H 0.26906 0.42853 0.13204 0.0
H134 H 0.35365 0.31754 0.16271 0.0
H135 H 0.3286 0.28064 0.10711 0.0
C136 C 0.13792 0.15152 0.01609 0.0
C137 C 0.17331 0.11801 0.01687 0.0
C138 C 0.15445 0.19385 0.01261 0.0
C139 C 0.20659 0.20292 0.01012 0.0
C140 C 0.2404 0.16869 0.00903 0.0
C141 C 0.22358 0.12666 0.01171 0.0
C142 C 0.22998 0.24832 0.01519 0.0
C143 C 0.24117 0.27152 0.04609 0.0
C144 C 0.24733 0.26677 0.99142 0.0
C145 C 0.23912 0.24349 0.95883 0.0
C146 C 0.27601 0.21384 0.95223 0.0
C147 C 0.27009 0.19392 0.92099 0.0
C148 C 0.22821 0.20434 0.89604 0.0
C149 C 0.19183 0.2343 0.90236 0.0
C150 C 0.19721 0.25389 0.93366 0.0
C151 C 0.40666 0.41001 0.06983 0.0
C152 C 0.39089 0.44765 0.05581 0.0
C153 C 0.37365 0.37175 0.06088 0.0
C154 C 0.32393 0.37043 0.03799 0.0
C155 C 0.3089 0.40739 0.02296 0.0
C156 C 0.34219 0.44581 0.03182 0.0
C157 C 0.2879 0.33031 0.03014 0.0
C158 C 0.27495 0.30797 -0.00103 0.0
C159 C 0.27048 0.31201 0.05398 0.0
C160 C 0.28421 0.33373 0.08753 0.0
C161 C 0.26773 0.37568 0.09489 0.0
C162 C 0.28197 0.39628 0.12649 0.0
C163 C 0.31292 0.37533 0.15091 0.0
C164 C 0.32952 0.33366 0.1438 0.0
C165 C 0.31505 0.3128 0.11228 0.0
H166 H 0.32404 0.39136 0.17534 0.0
H167 H 0.22403 0.18927 0.8718 0.0
H168 H 0.10008 0.86834 0.98582 0.0
H169 H 0.13825 0.79786 0.97461 0.0
H170 H 0.2969 0.85614 0.02238 0.0
H171 H 0.26039 0.92516 0.03329 0.0
H172 H 0.28518 0.81121 0.96076 0.0
H173 H 0.24804 0.80271 0.06251 0.0
H174 H 0.19223 0.79806 0.09968 0.0
H175 H 0.10996 0.68084 0.04281 0.0
H176 H 0.16477 0.68527 0.00495 0.0
H177 H 0.48953 0.69521 0.04465 0.0
H178 H 0.4165 0.73421 0.03656 0.0
H179 H 0.32598 0.63946 0.96193 0.0
H180 H 0.39493 0.59709 0.96502 0.0
H181 H 0.28153 0.68777 0.02235 0.0
H182 H 0.35388 0.70283 0.92803 0.0
H183 H 0.43209 0.71771 0.90797 0.0
H184 H 0.47082 0.83823 0.9716 0.0
H185 H 0.39333 0.82376 0.99226 0.0
C186 C 0.14307 0.86591 0.9937 0.0
C187 C 0.17718 0.90233 0.01039 0.0
C188 C 0.16462 0.82578 0.98744 0.0
C189 C 0.22026 0.82223 0.99764 0.0
C190 C 0.25388 0.8585 0.01414 0.0
C191 C 0.23274 0.898 0.0204 0.0
C192 C 0.24598 0.78171 0.99131 0.0
C193 C 0.28326 0.78349 0.97343 0.0
C194 C 0.24429 0.7464 0.00865 0.0
C195 C 0.20953 0.74492 0.03045 0.0
C196 C 0.21729 0.77645 0.05755 0.0
C197 C 0.18607 0.77372 0.07886 0.0
C198 C 0.14732 0.73933 0.0735 0.0
C199 C 0.13975 0.70761 0.04682 0.0
C200 C 0.17081 0.71026 0.0254 0.0
C201 C 0.45793 0.67793 0.02518 0.0
C202 C 0.46304 0.63524 0.00569 0.0
C203 C 0.41348 0.70319 0.02145 0.0
C204 C 0.36626 0.68979 -0.00134 0.0
C205 C 0.36305 0.65051 0.98005 0.0
C206 C 0.4074 0.62546 0.983 0.0
C207 C 0.32153 0.71849 0.99276 0.0
C208 C 0.28113 0.71416 0.00819 0.0
C209 C 0.32244 0.75326 0.97497 0.0
C210 C 0.36795 0.76215 0.9617 0.0
C211 C 0.37922 0.73238 0.9378 0.0
C212 C 0.42341 0.74077 0.92632 0.0
C213 C 0.45641 0.77887 0.93851 0.0
C214 C 0.44523 0.80875 0.96214 0.0
C215 C 0.40116 0.80051 0.97369 0.0
H216 H 0.49062 0.78527 0.92964 0.0
H217 H 0.12336 0.73714 0.09009 0.0
H218 H 0.89421 0.85881 0.9579 0.0
H219 H 0.84134 0.81261 0.98042 0.0
H220 H 0.91538 0.88114 0.07456 0.0
H221 H 0.96725 0.92986 0.05142 0.0
H222 H 0.8667 0.75935 0.03266 0.0
H223 H 0.83906 0.91149 0.08766 0.0
H224 H 0.82639 0.98948 0.08369 0.0
H225 H 0.70374 0.95578 0.99534 0.0
H226 H 0.71704 0.87768 -0.00169 0.0
H227 H 0.63931 0.66875 0.0753 0.0
H228 H 0.7223 0.71351 0.08273 0.0
H229 H 0.64671 0.77477 0.00041 0.0
H230 H 0.56462 0.7292 0.99217 0.0
H231 H 0.70753 0.83245 0.05049 0.0
H232 H 0.71649 0.69578 0.99046 0.0
H233 H 0.71886 0.61657 0.9764 0.0
H234 H 0.86305 0.61584 0.05224 0.0
H235 H 0.86069 0.69501 0.06751 0.0
C236 C 0.90036 0.86364 0.98357 0.0
C237 C 0.93416 0.89859 0.0029 0.0
C238 C 0.86994 0.83711 0.99638 0.0
C239 C 0.87311 0.84435 0.02896 0.0
C240 C 0.91115 0.87605 0.04912 0.0
C241 C 0.94144 0.90334 0.03607 0.0
C242 C 0.8325 0.82095 0.04013 0.0
C243 C 0.83277 0.77528 0.03798 0.0
C244 C 0.78677 0.84175 0.04487 0.0
C245 C 0.78017 0.88881 0.0428 0.0
C246 C 0.81029 0.92075 0.06705 0.0
C247 C 0.80281 0.96498 0.06504 0.0
C248 C 0.76456 0.9776 0.03916 0.0
C249 C 0.73366 0.94601 0.01525 0.0
C250 C 0.74135 0.90179 0.01702 0.0
C251 C 0.64009 0.69217 0.05904 0.0
C252 C 0.59612 0.69443 0.03246 0.0
C253 C 0.68768 0.71749 0.06324 0.0
C254 C 0.69098 0.74657 0.04165 0.0
C255 C 0.64524 0.75197 0.01706 0.0
C256 C 0.59834 0.72592 0.01238 0.0
C257 C 0.74205 0.77083 0.0437 0.0
C258 C 0.74289 0.81646 0.04743 0.0
C259 C 0.78759 0.74967 0.03879 0.0
C260 C 0.78746 0.70142 0.03081 0.0
C261 C 0.74796 0.67871 0.00475 0.0
C262 C 0.7495 0.63377 0.99639 0.0
C263 C 0.79085 0.61113 0.01356 0.0
C264 C 0.83078 0.63338 0.03912 0.0
C265 C 0.82923 0.67829 0.04772 0.0
H266 H 0.7921 0.5764 0.00694 0.0
H267 H 0.75866 0.01182 0.03773 0.0
H268 H 0.86755 0.07031 0.99768 0.0
H269 H 0.81754 0.13588 -0.00133 0.0
H270 H 0.95916 0.21442 0.00123 0.0
H271 H 0.00949 0.14841 0.00047 0.0
H272 H 0.8939 0.25498 0.03872 0.0
H273 H 0.88007 0.18739 0.93282 0.0
H274 H 0.86451 0.12938 0.88684 0.0
H275 H 0.70274 0.10556 0.89092 0.0
H276 H 0.71757 0.16294 0.93724 0.0
H277 H 0.7501 0.41968 0.95457 0.0
H278 H 0.81054 0.36408 0.97509 0.0
H279 H 0.67508 0.28406 0.98046 0.0
H280 H 0.61456 0.34018 0.96021 0.0
H281 H 0.74085 0.24737 0.94145 0.0
H282 H 0.75794 0.32242 0.04739 0.0
H283 H 0.7764 0.38655 0.08898 0.0
H284 H 0.9362 0.40332 0.07976 0.0
H285 H 0.91855 0.33958 0.03786 0.0
C286 C 0.88819 0.10174 -0.0008 0.0
C287 C 0.94213 0.1048 -0.0009 0.0
C288 C 0.85977 0.139 -0.00021 0.0
C289 C 0.88472 0.17964 -0.00035 0.0
C290 C 0.93955 0.1832 0.00152 0.0
C291 C 0.96824 0.14572 0.00121 0.0
C292 C 0.85159 0.21702 0.99392 0.0
C293 C 0.86069 0.25368 0.01738 0.0
C294 C 0.80852 0.21493 0.96595 0.0
C295 C 0.80016 0.17916 0.93881 0.0
C296 C 0.84142 0.16937 0.92423 0.0
C297 C 0.83267 0.1367 0.89801 0.0
C298 C 0.78272 0.11372 0.88602 0.0
C299 C 0.74145 0.12331 0.90026 0.0
C300 C 0.75001 0.15591 0.9265 0.0
C301 C 0.7336 0.39007 0.96015 0.0
C302 C 0.67826 0.38304 0.95527 0.0
C303 C 0.76794 0.35892 0.97231 0.0
C304 C 0.747 0.32052 0.97951 0.0
C305 C 0.69161 0.31387 0.9752 0.0
C306 C 0.65726 0.34531 0.9633 0.0
C307 C 0.78193 0.28469 0.98663 0.0
C308 C 0.7736 0.24848 0.96304 0.0
C309 C 0.82619 0.28793 0.01401 0.0
C310 C 0.8368 0.32629 0.0393 0.0
C311 C 0.79689 0.33996 0.05403 0.0
C312 C 0.80724 0.37621 0.07773 0.0
C313 C 0.85741 0.39903 0.08697 0.0
C314 C 0.89735 0.38561 0.07259 0.0
C315 C 0.88723 0.34936 0.04891 0.0
H316 H 0.86536 0.42707 0.10532 0.0
H317 H 0.77594 0.08856 0.86565 0.0
H318 H 0.6866 0.5978 0.47788 0.0
H319 H 0.71859 0.67005 0.47071 0.0
H320 H 0.65586 0.72804 0.54702 0.0
H321 H 0.62118 0.65652 0.55247 0.0
H322 H 0.65745 0.78565 0.51338 0.0
H323 H 0.79032 0.68703 0.55677 0.0
H324 H 0.84213 0.62136 0.55783 0.0
H325 H 0.89293 0.65215 0.47713 0.0
H326 H 0.84092 0.7178 0.47535 0.0
H327 H 0.84864 0.95421 0.59454 0.0
H328 H 0.79451 0.88601 0.57796 0.0
H329 H 0.85639 0.86032 0.49588 0.0
H330 H 0.91484 0.92725 0.51394 0.0
H331 H 0.85262 0.78835 0.52327 0.0
H332 H 0.72513 0.89872 0.49128 0.0
H333 H 0.68397 0.96745 0.50321 0.0
H334 H 0.63193 0.91494 0.57691 0.0
H335 H 0.67309 0.84606 0.56564 0.0
C336 C 0.67662 0.62637 0.49156 0.0
C337 C 0.65088 0.62171 0.51547 0.0
C338 C 0.69616 0.66764 0.48809 0.0
C339 C 0.69185 0.70459 0.50927 0.0
C340 C 0.66041 0.70032 0.53049 0.0
C341 C 0.63987 0.65931 0.53339 0.0
C342 C 0.72452 0.74627 0.5123 0.0
C343 C 0.70009 0.78605 0.51547 0.0
C344 C 0.78051 0.74725 0.51508 0.0
C345 C 0.81099 0.70712 0.51564 0.0
C346 C 0.81211 0.67962 0.53905 0.0
C347 C 0.84161 0.64243 0.53982 0.0
C348 C 0.87065 0.63251 0.51749 0.0
C349 C 0.87027 0.6598 0.49436 0.0
C350 C 0.84077 0.69702 0.49345 0.0
C351 C 0.85154 0.93399 0.57314 0.0
C352 C 0.88664 0.94643 0.55573 0.0
C353 C 0.81967 0.89514 0.56337 0.0
C354 C 0.82028 0.86836 0.53521 0.0
C355 C 0.85484 0.88064 0.51754 0.0
C356 C 0.88777 0.91924 0.5277 0.0
C357 C 0.78553 0.8272 0.52479 0.0
C358 C 0.80969 0.78771 0.52034 0.0
C359 C 0.72981 0.82639 0.52212 0.0
C360 C 0.70217 0.86705 0.52752 0.0
C361 C 0.70474 0.90173 0.50994 0.0
C362 C 0.6815 0.94078 0.51664 0.0
C363 C 0.65535 0.94554 0.54079 0.0
C364 C 0.65208 0.91118 0.55815 0.0
C365 C 0.67518 0.87206 0.55153 0.0
H366 H 0.63765 0.97585 0.54604 0.0
H367 H 0.89355 0.60378 0.51817 0.0
H368 H 0.75787 0.42376 0.55061 0.0
H369 H 0.79754 0.35635 0.53804 0.0
H370 H 0.64858 0.30641 0.46992 0.0
H371 H 0.60753 0.37476 0.48237 0.0
H372 H 0.71369 0.24728 0.51867 0.0
H373 H 0.72627 0.3314 0.43524 0.0
H374 H 0.74241 0.39957 0.41457 0.0
H375 H 0.90431 0.41253 0.47444 0.0
H376 H 0.88895 0.34494 0.49588 0.0
H377 H 0.89436 0.09964 0.46679 0.0
H378 H 0.82793 0.14468 0.46514 0.0
H379 H 0.92532 0.23646 0.53935 0.0
H380 H 0.99532 0.19437 0.54646 0.0
H381 H 0.86734 0.26403 0.47267 0.0
H382 H 0.85192 0.19701 0.5646 0.0
H383 H 0.84195 0.13415 0.59239 0.0
H384 H 0.69145 0.09385 0.5233 0.0
H385 H 0.70123 0.15601 0.49461 0.0
C386 C 0.73307 0.39865 0.53299 0.0
C387 C 0.67956 0.40495 0.5172 0.0
C388 C 0.75593 0.36006 0.52592 0.0
C389 C 0.72604 0.32686 0.50291 0.0
C390 C 0.67211 0.33196 0.48772 0.0
C391 C 0.64894 0.37098 0.49477 0.0
C392 C 0.7537 0.28818 0.49455 0.0
C393 C 0.74615 0.25011 0.50758 0.0
C394 C 0.79669 0.29275 0.48078 0.0
C395 C 0.80643 0.33292 0.46715 0.0
C396 C 0.76527 0.34883 0.44409 0.0
C397 C 0.77427 0.38742 0.43224 0.0
C398 C 0.82436 0.41034 0.44316 0.0
C399 C 0.86556 0.3947 0.46593 0.0
C400 C 0.85676 0.35619 0.47788 0.0
C401 C 0.90867 0.12762 0.48492 0.0
C402 C 0.96491 0.13523 0.50717 0.0
C403 C 0.86594 0.1545 0.48275 0.0
C404 C 0.8718 0.19382 0.50175 0.0
C405 C 0.92018 0.20556 0.52386 0.0
C406 C 0.96268 0.17832 0.52705 0.0
C407 C 0.82833 0.22394 0.49768 0.0
C408 C 0.83338 0.26028 0.48239 0.0
C409 C 0.78374 0.21808 0.50984 0.0
C410 C 0.7778 0.18071 0.52707 0.0
C411 C 0.81712 0.17438 0.55501 0.0
C412 C 0.81142 0.13896 0.571 0.0
C413 C 0.76622 0.10989 0.55953 0.0
C414 C 0.72656 0.1163 0.53208 0.0
C415 C 0.73219 0.1516 0.51592 0.0
H416 H 0.76181 0.08253 0.57196 0.0
H417 H 0.83125 0.44022 0.434 0.0
H418 H 0.40252 0.35387 0.45764 0.0
H419 H 0.34852 0.30857 0.4802 0.0
H420 H 0.41045 0.38606 0.57238 0.0
H421 H 0.46282 0.43401 0.54906 0.0
H422 H 0.3702 0.2605 0.53442 0.0
H423 H 0.33163 0.41436 0.58254 0.0
H424 H 0.31562 0.49093 0.57477 0.0
H425 H 0.20013 0.44856 0.4848 0.0
H426 H 0.21696 0.37182 0.49157 0.0
H427 H 0.14483 0.16434 0.57477 0.0
H428 H 0.22661 0.21079 0.58186 0.0
H429 H 0.14683 0.2725 0.50056 0.0
H430 H 0.06591 0.2261 0.4932 0.0
H431 H 0.20593 0.33072 0.54631 0.0
H432 H 0.22357 0.19149 0.4925 0.0
H433 H 0.22998 0.11212 0.48212 0.0
H434 H 0.37156 0.11985 0.56084 0.0
H435 H 0.36521 0.19926 0.57232 0.0
C436 C 0.40595 0.36076 0.48298 0.0
C437 C 0.43661 0.39778 0.50152 0.0
C438 C 0.37475 0.33484 0.4958 0.0
C439 C 0.374 0.34477 0.52768 0.0
C440 C 0.40907 0.3788 0.54738 0.0
C441 C 0.43997 0.40555 0.53428 0.0
C442 C 0.33277 0.32128 0.53847 0.0
C443 C 0.33505 0.27594 0.53836 0.0
C444 C 0.2855 0.34116 0.54146 0.0
C445 C 0.27681 0.38742 0.53716 0.0
C446 C 0.3038 0.42141 0.56078 0.0
C447 C 0.29438 0.46484 0.55661 0.0
C448 C 0.25719 0.47462 0.52919 0.0
C449 C 0.22928 0.44099 0.5059 0.0
C450 C 0.23897 0.39755 0.50982 0.0
C451 C 0.14449 0.18834 0.55878 0.0
C452 C 0.09948 0.19079 0.53286 0.0
C453 C 0.19139 0.21462 0.56272 0.0
C454 C 0.19323 0.24448 0.54133 0.0
C455 C 0.14664 0.2494 0.51718 0.0
C456 C 0.10037 0.22276 0.51295 0.0
C457 C 0.24359 0.26988 0.54293 0.0
C458 C 0.2423 0.31537 0.54449 0.0
C459 C 0.29066 0.24969 0.53966 0.0
C460 C 0.29303 0.20142 0.53385 0.0
C461 C 0.2554 0.17626 0.50811 0.0
C462 C 0.2592 0.13123 0.50189 0.0
C463 C 0.30095 0.11091 0.52093 0.0
C464 C 0.33901 0.1356 0.54624 0.0
C465 C 0.33522 0.18063 0.55268 0.0
H466 H 0.30394 0.0761 0.51598 0.0
H467 H 0.24978 0.50823 0.52609 0.0
H468 H 0.51197 0.64673 0.50956 0.0
H469 H 0.46449 0.71447 0.51061 0.0
H470 H 0.31438 0.63866 0.49155 0.0
H471 H 0.361 0.57162 0.48976 0.0
H472 H 0.32093 0.69098 0.44496 0.0
H473 H 0.36043 0.69846 0.5602 0.0
H474 H 0.4207 0.70321 0.61471 0.0
H475 H 0.49292 0.82464 0.60372 0.0
H476 H 0.43365 0.82025 0.5489 0.0
H477 H 0.11456 0.83004 0.4464 0.0
H478 H 0.18004 0.77646 0.46508 0.0
H479 H 0.30975 0.87244 0.4756 0.0
H480 H 0.24439 0.92576 0.45691 0.0
H481 H 0.32403 0.8175 0.52696 0.0
H482 H 0.28382 0.8105 0.41236 0.0
H483 H 0.22062 0.80756 0.35884 0.0
H484 H 0.15001 0.68514 0.36924 0.0
H485 H 0.21217 0.68777 0.42309 0.0
C486 C 0.46903 0.64488 0.50638 0.0
C487 C 0.43964 0.6044 0.49884 0.0
C488 C 0.44212 0.68335 0.50708 0.0
C489 C 0.38604 0.68118 0.50076 0.0
C490 C 0.35764 0.64073 0.49613 0.0
C491 C 0.38418 0.6026 0.49497 0.0
C492 C 0.35537 0.71965 0.49396 0.0
C493 C 0.32146 0.71852 0.46297 0.0
C494 C 0.35767 0.75605 0.51724 0.0
C495 C 0.39307 0.75873 0.55026 0.0
C496 C 0.38955 0.72594 0.56926 0.0
C497 C 0.42345 0.72862 0.60025 0.0
C498 C 0.46075 0.76412 0.61263 0.0
C499 C 0.46409 0.7971 0.59407 0.0
C500 C 0.43034 0.79454 0.56305 0.0
C501 C 0.15708 0.83924 0.45255 0.0
C502 C 0.17521 0.88106 0.44966 0.0
C503 C 0.1942 0.80915 0.46354 0.0
C504 C 0.24942 0.82088 0.47164 0.0
C505 C 0.26728 0.86315 0.46963 0.0
C506 C 0.23024 0.8931 0.45852 0.0
C507 C 0.28824 0.78748 0.47851 0.0
C508 C 0.32404 0.78996 0.50908 0.0
C509 C 0.28804 0.75215 0.45488 0.0
C510 C 0.25247 0.74943 0.42183 0.0
C511 C 0.25472 0.78301 0.40327 0.0
C512 C 0.21904 0.78144 0.37289 0.0
C513 C 0.18127 0.74622 0.36067 0.0
C514 C 0.17929 0.7124 0.37874 0.0
C515 C 0.21478 0.71388 0.40918 0.0
H516 H 0.15358 0.7451 0.33718 0.0
H517 H 0.48695 0.76615 0.63663 0.0
H518 H 0.16504 0.01729 0.14424 0.0
H519 H 0.14959 0.00583 0.19431 0.0
H520 H 0.98245 0.9707 0.14754 0.0
H521 H 0.99723 0.98386 0.09604 0.0
H522 H 0.00403 0.03082 0.20553 0.0
H523 H 0.06389 0.89001 0.17123 0.0
H524 H 0.12358 0.84127 0.14999 0.0
H525 H 0.25801 0.89561 0.2273 0.0
H526 H 0.19941 0.94489 0.2489 0.0
H527 H -0.00075 0.96367 0.35783 0.0
H528 H 0.9858 0.97334 0.30138 0.0
H529 H 0.15693 -0.00454 0.31841 0.0
H530 H 0.17017 0.98479 0.37426 0.0
H531 H 0.11786 0.93176 0.27129 0.0
H532 H 0.07452 0.07698 0.30147 0.0
H533 H 0.02754 0.13512 0.32452 0.0
H534 H 0.87804 0.08465 0.2583 0.0
H535 H 0.92404 0.02584 0.23502 0.0
C536 C 0.12466 0.00713 0.14409 0.0
C537 C 0.08231 0.00102 0.11574 0.0
C538 C 0.11615 0.00022 0.17296 0.0
C539 C 0.06534 0.9863 0.17447 0.0
C540 C 0.02226 0.9808 0.1466 0.0
C541 C 0.03075 0.98806 0.11726 0.0
C542 C 0.05865 0.97958 0.20593 0.0
C543 C 0.02749 0.00825 0.21975 0.0
C544 C 0.09159 0.95145 0.22467 0.0
C545 C 0.12699 0.92131 0.2117 0.0
C546 C 0.10618 0.89173 0.18366 0.0
C547 C 0.13987 0.86394 0.17157 0.0
C548 C 0.19453 0.86534 0.18728 0.0
C549 C 0.21564 0.89447 0.21518 0.0
C550 C 0.18214 0.92225 0.2274 0.0
C551 C 0.03361 0.97135 0.34939 0.0
C552 C 0.08569 0.97295 0.36978 0.0
C553 C 0.02598 0.97705 0.31737 0.0
C554 C 0.07043 0.98482 0.30577 0.0
C555 C 0.12218 0.98909 0.32686 0.0
C556 C 0.12976 0.98303 0.35861 0.0
C557 C 0.06416 0.98369 0.27119 0.0
C558 C 0.09308 0.95352 0.25692 0.0
C559 C 0.03076 0.01147 0.25247 0.0
C560 C 0.00268 0.04645 0.2668 0.0
C561 C 0.03152 0.07788 0.29205 0.0
C562 C 0.0051 0.1111 0.30509 0.0
C563 C 0.9498 0.11346 0.29298 0.0
C564 C 0.92086 0.0827 0.26772 0.0
C565 C 0.94711 0.04942 0.25457 0.0
H566 H 0.92943 0.13919 0.3031 0.0
H567 H 0.2205 0.84388 0.17785 0.0
H568 H 0.10098 0.95593 0.89834 0.0
H569 H 0.09534 0.97093 0.84367 0.0
H570 H 0.99193 0.07496 0.85485 0.0
H571 H -0.00073 0.06113 0.90964 0.0
H572 H 0.9542 0.0062 0.79701 0.0
H573 H 0.10292 0.10472 0.85815 0.0
H574 H 0.18942 0.11757 0.89918 0.0
H575 H 0.26351 0.03487 0.83934 0.0
H576 H 0.17627 0.01888 0.79884 0.0
H577 H 0.93214 0.08696 0.65161 0.0
H578 H 0.95058 0.08885 0.70971 0.0
H579 H 0.08318 0.00762 0.70974 0.0
H580 H 0.06493 0.00622 0.65178 0.0
H581 H 0.10579 0.0668 0.76284 0.0
H582 H 0.96326 0.96363 0.70404 0.0
H583 H 0.877 0.9378 0.66517 0.0
H584 H 0.79365 0.02018 0.71962 0.0
H585 H 0.87964 0.04742 0.75842 0.0
C586 C 0.07896 0.98303 0.8894 0.0
C587 C 0.05201 0.0084 0.9082 0.0
C588 C 0.07493 0.99106 0.85817 0.0
C589 C 0.04274 0.02372 0.84533 0.0
C590 C 0.01668 0.04953 0.86439 0.0
C591 C 0.02175 0.0422 0.89574 0.0
C592 C 0.03654 0.03137 0.81203 0.0
C593 C 0.98693 0.02008 0.78951 0.0
C594 C 0.07986 0.0483 0.8024 0.0
C595 C 0.13293 0.06024 0.8256 0.0
C596 C 0.1375 0.0889 0.85384 0.0
C597 C 0.18666 0.09666 0.87706 0.0
C598 C 0.23209 0.07734 0.87179 0.0
C599 C 0.22829 0.04988 0.84337 0.0
C600 C 0.17888 0.04118 0.82036 0.0
C601 C 0.96641 0.07101 0.66437 0.0
C602 C -0.00223 0.04701 0.64771 0.0
C603 C 0.97656 0.07167 0.69736 0.0
C604 C 0.01778 0.04785 0.71389 0.0
C605 C 0.0513 0.02627 0.69744 0.0
C606 C 0.04111 0.02562 0.66448 0.0
C607 C 0.02311 0.04207 0.74758 0.0
C608 C 0.07268 0.05344 0.77025 0.0
C609 C 0.97988 0.02441 0.75721 0.0
C610 C 0.92802 0.00806 0.73392 0.0
C611 C 0.92662 0.97664 0.70755 0.0
C612 C 0.87776 0.96169 0.68554 0.0
C613 C 0.82988 0.97743 0.68988 0.0
C614 C 0.83079 0.00812 0.71625 0.0
C615 C 0.87959 0.02338 0.73823 0.0
H616 H 0.79207 0.96575 0.67285 0.0
H617 H 0.27023 0.08362 0.88976 0.0
H618 H 0.58446 0.57888 0.63153 0.0
H619 H 0.5758 0.57037 0.68466 0.0
H620 H 0.53978 0.43215 0.65517 0.0
H621 H 0.54645 0.44106 0.60142 0.0
H622 H 0.48383 0.46236 0.69521 0.0
H623 H 0.66816 0.47295 0.69434 0.0
H624 H 0.75009 0.50508 0.68536 0.0
H625 H 0.74315 0.61991 0.74959 0.0
H626 H 0.66082 0.5887 0.75863 0.0
H627 H 0.56286 0.39982 0.85043 0.0
H628 H 0.55175 0.40973 0.7949 0.0
H629 H 0.59208 0.54759 0.82325 0.0
H630 H 0.60783 0.53742 0.87915 0.0
H631 H 0.64522 0.51649 0.78342 0.0
H632 H 0.4587 0.50348 0.78373 0.0
H633 H 0.38119 0.46674 0.79467 0.0
H634 H 0.39681 0.35214 0.73259 0.0
H635 H 0.47465 0.38812 0.72152 0.0
C636 C 0.57301 0.54696 0.6362 0.0
C637 C 0.56593 0.51058 0.61266 0.0
C638 C 0.5687 0.54204 0.66657 0.0
C639 C 0.55876 0.50045 0.67407 0.0
C640 C 0.54787 0.46448 0.64987 0.0
C641 C 0.55125 0.46956 0.6192 0.0
C642 C 0.56283 0.49435 0.70754 0.0
C643 C 0.51927 0.47389 0.71446 0.0
C644 C 0.60897 0.50967 0.73271 0.0
C645 C 0.65804 0.52868 0.7269 0.0
C646 C 0.68384 0.50522 0.70631 0.0
C647 C 0.73041 0.52323 0.70127 0.0
C648 C 0.75173 0.56455 0.71684 0.0
C649 C 0.72656 0.58794 0.73751 0.0
C650 C 0.67997 0.5701 0.74261 0.0
C651 C 0.56959 0.43227 0.84494 0.0
C652 C 0.58658 0.46774 0.86941 0.0
C653 C 0.56242 0.43799 0.81307 0.0
C654 C 0.57038 0.47952 0.80485 0.0
C655 C 0.58556 0.51525 0.82906 0.0
C656 C 0.59383 0.50944 0.86103 0.0
C657 C 0.56574 0.48535 0.77121 0.0
C658 C 0.6095 0.50543 0.76421 0.0
C659 C 0.52008 0.46937 0.74599 0.0
C660 C 0.47243 0.44837 0.7519 0.0
C661 C 0.44556 0.47043 0.77247 0.0
C662 C 0.40163 0.44974 0.77869 0.0
C663 C 0.38412 0.40712 0.76436 0.0
C664 C 0.41037 0.38515 0.74366 0.0
C665 C 0.45428 0.4057 0.73733 0.0
H666 H 0.35017 0.39111 0.76927 0.0
H667 H 0.78783 0.57842 0.71294 0.0
H668 H 0.58671 0.45015 0.3928 0.0
H669 H 0.58365 0.46804 0.33922 0.0
H670 H 0.51952 0.59124 0.36161 0.0
H671 H 0.52467 0.57417 0.41549 0.0
H672 H 0.45755 0.52814 0.3017 0.0
H673 H 0.62983 0.6048 0.3559 0.0
H674 H 0.72094 0.60725 0.39229 0.0
H675 H 0.76093 0.50204 0.3309 0.0
H676 H 0.66961 0.49852 0.29441 0.0
H677 H 0.44309 0.59984 0.15272 0.0
H678 H 0.46398 0.60361 0.21118 0.0
H679 H 0.57508 0.50288 0.20851 0.0
H680 H 0.55469 0.49972 0.15047 0.0
H681 H 0.61295 0.55997 0.2603 0.0
H682 H 0.44745 0.48124 0.20563 0.0
H683 H 0.35635 0.46993 0.16933 0.0
H684 H 0.30037 0.56504 0.23088 0.0
H685 H 0.39202 0.57863 0.26686 0.0
C686 C 0.57432 0.48178 0.38664 0.0
C687 C 0.55747 0.51143 0.40832 0.0
C688 C 0.57174 0.49168 0.35601 0.0
C689 C 0.55078 0.53073 0.34654 0.0
C690 C 0.53565 0.56095 0.36857 0.0
C691 C 0.53953 0.55155 0.3994 0.0
C692 C 0.54327 0.53938 0.31328 0.0
C693 C 0.49123 0.53601 0.29264 0.0
C694 C 0.58748 0.548 0.30151 0.0
C695 C 0.64296 0.55129 0.32255 0.0
C696 C 0.65804 0.58211 0.35024 0.0
C697 C 0.70967 0.58367 0.37088 0.0
C698 C 0.7467 0.55479 0.36393 0.0
C699 C 0.73221 0.5244 0.33624 0.0
C700 C 0.68054 0.52264 0.31555 0.0
C701 C 0.47332 0.57977 0.16495 0.0
C702 C 0.49794 0.5499 0.14752 0.0
C703 C 0.48483 0.58156 0.19817 0.0
C704 C 0.52059 0.55309 0.21414 0.0
C705 C 0.54752 0.52521 0.19675 0.0
C706 C 0.53604 0.52346 0.16368 0.0
C707 C 0.52691 0.54937 0.24835 0.0
C708 C 0.57886 0.55307 0.26924 0.0
C709 C 0.48243 0.54 0.2601 0.0
C710 C 0.42699 0.53155 0.2387 0.0
C711 C 0.41597 0.50023 0.21126 0.0
C712 C 0.36414 0.49336 0.19073 0.0
C713 C 0.3225 0.51668 0.19779 0.0
C714 C 0.33271 0.54708 0.22538 0.0
C715 C 0.38469 0.55456 0.24578 0.0
H716 H 0.28234 0.51115 0.18191 0.0
H717 H 0.78664 0.55599 0.37997 0.0
loop_
_geom_bond_atom_site_label_1
_geom_bond_atom_site_label_2
_geom_bond_distance
_geom_bond_site_symmetry_2
_ccdc_geom_bond_type
O0 Mn1 2.163 . S
O0 C14 1.244 1_454 S
Mn1 O0 2.163 . S
Mn1 O4 2.160 1_545 S
Mn1 O5 2.221 . S
Mn1 O7 2.158 1_545 S
Mn1 O9 2.160 1_554 S
Mn1 O19 2.221 1_444 S
O2 Mn3 2.087 1_545 S
O2 C14 1.256 . S
Mn3 O2 2.087 1_565 S
Mn3 O10 2.089 1_565 S
Mn3 O19 2.290 . S
Mn3 O20 2.251 . S
O4 Mn1 2.160 1_565 S
O4 C15 1.239 . S
O5 Mn1 2.221 . S
O5 Mn6 2.290 . S
O5 C16 1.278 . S
Mn6 O5 2.290 . S
Mn6 O8 2.089 1_545 S
Mn6 O11 2.251 . S
Mn6 O12 2.087 . S
O7 Mn1 2.158 1_565 S
O7 C17 1.243 1_565 S
O8 Mn6 2.089 1_565 S
O8 C15 1.256 . S
O9 Mn1 2.160 1_556 S
O9 C18 1.239 . S
O10 Mn3 2.089 1_545 S
O10 C18 1.256 1_655 S
O11 Mn6 2.251 . S
O11 C16 1.241 . S
O12 Mn6 2.087 . S
O12 C17 1.256 . S
C13 O19 1.268 1_554 S
C13 O20 1.239 1_554 S
C14 O0 1.244 1_656 S
C14 O2 1.256 . S
C15 O4 1.239 . S
C15 O8 1.256 . S
C16 O5 1.278 . S
C16 O11 1.241 . S
C17 O7 1.243 1_545 S
C17 O12 1.256 . S
C18 O9 1.239 . S
C18 O10 1.256 1_455 S
O19 Mn1 2.221 1_666 S
O19 Mn3 2.290 . S
O19 C13 1.268 1_556 S
O20 Mn3 2.251 . S
O20 C13 1.239 1_556 S
O21 Mn22 2.163 . S
O21 C35 1.244 . S
Mn22 O21 2.163 . S
Mn22 O25 2.160 . S
Mn22 O26 2.221 . S
Mn22 O28 2.163 . S
Mn22 O30 2.160 . S
Mn22 O40 2.221 . S
O23 Mn24 2.087 . S
O23 C35 1.256 . S
Mn24 O23 2.087 . S
Mn24 O31 2.089 . S
Mn24 O40 2.290 . S
Mn24 O41 2.251 . S
O25 Mn22 2.160 . S
O25 C36 1.239 . S
O26 Mn22 2.221 . S
O26 Mn27 2.290 . S
O26 C37 1.278 . S
Mn27 O26 2.290 . S
Mn27 O29 2.089 . S
Mn27 O32 2.251 . S
Mn27 O33 2.087 . S
O28 Mn22 2.163 . S
O28 C38 1.244 . S
O29 Mn27 2.089 . S
O29 C36 1.256 . S
O30 Mn22 2.160 . S
O30 C39 1.239 . S
O31 Mn24 2.089 . S
O31 C39 1.256 . S
O32 Mn27 2.251 . S
O32 C37 1.241 . S
O33 Mn27 2.087 . S
O33 C38 1.256 . S
C34 O40 1.278 . S
C34 O41 1.241 . S
C35 O21 1.244 . S
C35 O23 1.256 . S
C36 O25 1.239 . S
C36 O29 1.256 . S
C37 O26 1.278 . S
C37 O32 1.241 . S
C38 O28 1.244 . S
C38 O33 1.256 . S
C39 O30 1.239 . S
C39 O31 1.256 . S
O40 Mn22 2.221 . S
O40 Mn24 2.290 . S
O40 C34 1.278 . S
O41 Mn24 2.251 . S
O41 C34 1.241 . S
H42 C43 0.949 . S
C43 H42 0.949 . S
C43 C44 1.395 1_545 S
C43 C45 1.391 . S
C44 C43 1.395 1_565 S
C44 C47 1.390 . S
C45 C43 1.391 . S
C45 C49 1.387 1_545 S
C45 C50 1.491 . S
H46 C47 0.950 . S
C47 C44 1.390 . S
C47 H46 0.950 . S
C47 C48 1.378 . S
C48 C47 1.378 . S
C48 C49 1.409 . S
C49 C45 1.387 1_565 S
C49 C48 1.409 . S
C49 H51 0.951 . S
C50 C45 1.491 . S
C50 C52 1.382 . S
C50 C54 1.404 . S
H51 C49 0.951 . S
C52 C50 1.382 . S
C52 C53 1.390 . S
C52 H57 0.945 1_455 S
C53 C52 1.390 . S
C53 C58 1.399 . S
C54 C50 1.404 . S
C54 H55 0.950 . S
C54 C56 1.375 . S
H55 C54 0.950 . S
C56 C54 1.375 . S
C56 C58 1.382 . S
C56 H60 0.950 . S
H57 C52 0.945 1_655 S
C58 C53 1.399 . S
C58 C56 1.382 . S
C58 H59 0.952 . S
H59 C58 0.952 . S
H60 C56 0.950 . S
H61 C62 0.950 . S
C62 H61 0.950 . S
C62 C63 1.394 1_455 S
C62 C64 1.391 1_455 S
C63 C62 1.394 1_655 S
C63 C66 1.390 . S
C64 C62 1.391 1_655 S
C64 C68 1.387 . S
C64 C69 1.491 1_655 S
H65 C66 0.950 1_565 S
C66 C63 1.390 . S
C66 H65 0.950 1_545 S
C66 C67 1.378 1_545 S
C67 C66 1.378 1_565 S
C67 C68 1.409 1_565 S
C68 C64 1.387 . S
C68 C67 1.409 1_545 S
C68 H70 0.951 . S
C69 C64 1.491 1_455 S
C69 C71 1.382 . S
C69 C73 1.404 1_455 S
H70 C68 0.951 . S
C71 C69 1.382 . S
C71 C72 1.390 . S
C71 H76 0.949 . S
C72 C71 1.390 . S
C72 C77 1.399 . S
C73 C69 1.404 1_655 S
C73 H74 0.950 . S
C73 C75 1.375 . S
H74 C73 0.950 . S
C75 C73 1.375 . S
C75 C77 1.382 1_655 S
C75 H79 0.950 . S
H76 C71 0.949 . S
C77 C72 1.399 . S
C77 C75 1.382 1_455 S
C77 H78 0.952 . S
H78 C77 0.952 . S
H79 C75 0.950 . S
H80 C81 0.949 . S
C81 H80 0.949 . S
C81 C82 1.395 . S
C81 C83 1.391 . S
C82 C81 1.395 . S
C82 C85 1.390 . S
C83 C81 1.391 . S
C83 C87 1.387 . S
C83 C88 1.491 . S
H84 C85 0.950 . S
C85 C82 1.390 . S
C85 H84 0.950 . S
C85 C86 1.378 . S
C86 C85 1.378 . S
C86 C87 1.409 . S
C87 C83 1.387 . S
C87 C86 1.409 . S
C87 H89 0.951 1_556 S
C88 C83 1.491 . S
C88 C90 1.382 . S
C88 C92 1.404 1_556 S
H89 C87 0.951 1_554 S
C90 C88 1.382 . S
C90 C91 1.390 1_556 S
C90 H95 0.949 . S
C91 C90 1.390 1_554 S
C91 C96 1.399 . S
C92 C88 1.404 1_554 S
C92 H93 0.950 . S
C92 C94 1.375 . S
H93 C92 0.950 . S
C94 C92 1.375 . S
C94 C96 1.382 . S
C94 H98 0.950 . S
H95 C90 0.949 . S
C96 C91 1.399 . S
C96 C94 1.382 . S
C96 H97 0.952 . S
H97 C96 0.952 . S
H98 C94 0.950 . S
H99 C100 0.949 . S
C100 H99 0.949 . S
C100 C101 1.395 . S
C100 C102 1.391 . S
C101 C100 1.395 . S
C101 C104 1.390 . S
C102 C100 1.391 . S
C102 C106 1.387 . S
C102 C107 1.491 . S
H103 C104 0.950 . S
C104 C101 1.390 . S
C104 H103 0.950 . S
C104 C105 1.378 . S
C105 C104 1.378 . S
C105 C106 1.409 . S
C106 C102 1.387 . S
C106 C105 1.409 . S
C106 H108 0.951 . S
C107 C102 1.491 . S
C107 C109 1.382 . S
C107 C111 1.404 . S
H108 C106 0.951 . S
C109 C107 1.382 . S
C109 C110 1.390 . S
C109 H114 0.949 . S
C110 C109 1.390 . S
C110 C115 1.399 1_554 S
C111 C107 1.404 . S
C111 H112 0.950 . S
C111 C113 1.375 1_554 S
H112 C111 0.950 . S
C113 C111 1.375 1_556 S
C113 C115 1.382 . S
C113 H117 0.950 . S
H114 C109 0.949 . S
C115 C110 1.399 1_556 S
C115 C113 1.382 . S
C115 H116 0.952 . S
H116 C115 0.952 . S
H117 C113 0.950 . S
H118 C136 0.951 1_556 S
H119 C138 0.951 1_556 S
H120 C140 0.950 . S
H121 C141 0.950 . S
H122 C143 0.950 . S
H123 C146 0.950 . S
H124 C147 0.950 . S
H125 C149 0.950 . S
H126 C150 0.950 . S
H127 C151 0.951 . S
H128 C153 0.951 . S
H129 C155 0.950 . S
H130 C156 0.950 . S
H131 C158 0.950 1_556 S
H132 C161 0.950 . S
H133 C162 0.950 . S
H134 C164 0.950 . S
H135 C165 0.950 . S
C136 H118 0.951 1_554 S
C136 C137 1.366 . S
C136 C138 1.388 . S
C137 C136 1.366 . S
C137 C141 1.385 . S
C138 H119 0.951 1_554 S
C138 C136 1.388 . S
C138 C139 1.366 . S
C139 C138 1.366 . S
C139 C140 1.414 . S
C139 C142 1.499 . S
C140 H120 0.950 . S
C140 C139 1.414 . S
C140 C141 1.374 . S
C141 H121 0.950 . S
C141 C137 1.385 . S
C141 C140 1.374 . S
C142 C139 1.499 . S
C142 C143 1.373 . S
C142 C144 1.389 . S
C143 H122 0.950 . S
C143 C142 1.373 . S
C143 C159 1.377 . S
C144 C142 1.389 . S
C144 C145 1.524 1_554 S
C144 C158 1.377 . S
C145 C144 1.524 1_556 S
C145 C146 1.397 . S
C145 C150 1.363 . S
C146 H123 0.950 . S
C146 C145 1.397 . S
C146 C147 1.334 . S
C147 H124 0.950 . S
C147 C146 1.334 . S
C147 C148 1.287 . S
C148 C147 1.287 . S
C148 C149 1.524 . S
C148 H167 0.913 . S
C149 H125 0.950 . S
C149 C148 1.524 . S
C149 C150 1.415 . S
C150 H126 0.950 . S
C150 C145 1.363 . S
C150 C149 1.415 . S
C151 H127 0.951 . S
C151 C152 1.366 . S
C151 C153 1.388 . S
C152 C151 1.366 . S
C152 C156 1.385 . S
C153 H128 0.951 . S
C153 C151 1.388 . S
C153 C154 1.366 . S
C154 C153 1.366 . S
C154 C155 1.414 . S
C154 C157 1.499 . S
C155 H129 0.950 . S
C155 C154 1.414 . S
C155 C156 1.374 . S
C156 H130 0.950 . S
C156 C152 1.385 . S
C156 C155 1.374 . S
C157 C154 1.499 . S
C157 C158 1.373 . S
C157 C159 1.389 . S
C158 H131 0.950 1_554 S
C158 C144 1.377 . S
C158 C157 1.373 . S
C159 C143 1.377 . S
C159 C157 1.389 . S
C159 C160 1.524 . S
C160 C159 1.524 . S
C160 C161 1.397 . S
C160 C165 1.363 . S
C161 H132 0.950 . S
C161 C160 1.397 . S
C161 C162 1.334 . S
C162 H133 0.950 . S
C162 C161 1.334 . S
C162 C163 1.287 . S
C163 C162 1.287 . S
C163 C164 1.524 . S
C163 H166 0.999 . S
C164 H134 0.950 . S
C164 C163 1.524 . S
C164 C165 1.415 . S
C165 H135 0.950 . S
C165 C160 1.363 . S
C165 C164 1.415 . S
H166 C163 0.999 . S
H167 C148 0.913 . S
H168 C186 0.951 1_556 S
H169 C188 0.951 1_556 S
H170 C190 0.950 . S
H171 C191 0.950 . S
H172 C193 0.957 . S
H173 C196 0.950 . S
H174 C197 0.950 . S
H175 C199 0.950 . S
H176 C200 0.950 . S
H177 C201 0.951 . S
H178 C203 0.951 . S
H179 C205 0.950 . S
H180 C206 0.950 . S
H181 C208 0.950 . S
H182 C211 0.950 . S
H183 C212 0.950 . S
H184 C214 0.950 . S
H185 C215 0.950 1_554 S
C186 H168 0.951 1_554 S
C186 C187 1.366 . S
C186 C188 1.388 . S
C187 C186 1.366 . S
C187 C191 1.385 . S
C188 H169 0.951 1_554 S
C188 C186 1.388 . S
C188 C189 1.366 . S
C189 C188 1.366 . S
C189 C190 1.414 . S
C189 C192 1.499 . S
C190 H170 0.950 . S
C190 C189 1.414 . S
C190 C191 1.374 . S
C191 H171 0.950 . S
C191 C187 1.385 . S
C191 C190 1.374 . S
C192 C189 1.499 . S
C192 C193 1.363 1_554 S
C192 C194 1.389 . S
C193 H172 0.957 . S
C193 C192 1.363 1_556 S
C193 C209 1.380 . S
C194 C192 1.389 . S
C194 C195 1.524 . S
C194 C208 1.377 . S
C195 C194 1.524 . S
C195 C196 1.397 . S
C195 C200 1.363 . S
C196 H173 0.950 . S
C196 C195 1.397 . S
C196 C197 1.334 . S
C197 H174 0.950 . S
C197 C196 1.334 . S
C197 C198 1.287 . S
C198 C197 1.287 . S
C198 C199 1.524 . S
C198 H217 0.913 . S
C199 H175 0.950 . S
C199 C198 1.524 . S
C199 C200 1.415 . S
C200 H176 0.950 . S
C200 C195 1.363 . S
C200 C199 1.415 . S
C201 H177 0.951 . S
C201 C202 1.370 . S
C201 C203 1.388 . S
C202 C201 1.370 . S
C202 C206 1.384 1_554 S
C203 H178 0.951 . S
C203 C201 1.388 . S
C203 C204 1.366 . S
C204 C203 1.366 . S
C204 C205 1.414 1_554 S
C204 C207 1.499 . S
C205 H179 0.950 . S
C205 C204 1.414 1_556 S
C205 C206 1.374 . S
C206 H180 0.950 . S
C206 C202 1.384 1_556 S
C206 C205 1.374 . S
C207 C204 1.499 . S
C207 C208 1.373 . S
C207 C209 1.389 1_554 S
C208 H181 0.950 . S
C208 C194 1.377 . S
C208 C207 1.373 . S
C209 C193 1.380 . S
C209 C207 1.389 1_556 S
C209 C210 1.524 . S
C210 C209 1.524 . S
C210 C211 1.397 . S
C210 C215 1.363 . S
C211 H182 0.950 . S
C211 C210 1.397 . S
C211 C212 1.334 . S
C212 H183 0.950 . S
C212 C211 1.334 . S
C212 C213 1.287 . S
C213 C212 1.287 . S
C213 C214 1.524 . S
C213 H216 0.999 . S
C214 H184 0.950 . S
C214 C213 1.524 . S
C214 C215 1.415 . S
C215 H185 0.950 1_556 S
C215 C210 1.363 . S
C215 C214 1.415 . S
H216 C213 0.999 . S
H217 C198 0.913 . S
H218 C236 0.951 . S
H219 C238 0.951 . S
H220 C240 0.950 . S
H221 C241 0.950 . S
H222 C243 0.950 . S
H223 C246 0.950 . S
H224 C247 0.950 . S
H225 C249 0.949 1_556 S
H226 C250 0.950 1_556 S
H227 C251 0.951 . S
H228 C253 0.951 . S
H229 C255 0.950 1_556 S
H230 C256 0.950 1_556 S
H231 C258 0.950 . S
H232 C261 0.950 . S
H233 C262 0.950 . S
H234 C264 0.950 . S
H235 C265 0.950 . S
C236 H218 0.951 . S
C236 C237 1.366 1_556 S
C236 C238 1.388 . S
C237 C236 1.366 1_554 S
C237 C241 1.385 . S
C238 H219 0.951 . S
C238 C236 1.388 . S
C238 C239 1.366 1_556 S
C239 C238 1.366 1_554 S
C239 C240 1.414 . S
C239 C242 1.499 . S
C240 H220 0.950 . S
C240 C239 1.414 . S
C240 C241 1.374 . S
C241 H221 0.950 . S
C241 C237 1.385 . S
C241 C240 1.374 . S
C242 C239 1.499 . S
C242 C243 1.373 . S
C242 C244 1.389 . S
C243 H222 0.950 . S
C243 C242 1.373 . S
C243 C259 1.377 . S
C244 C242 1.389 . S
C244 C245 1.524 . S
C244 C258 1.377 . S
C245 C244 1.524 . S
C245 C246 1.397 . S
C245 C250 1.363 . S
C246 H223 0.950 . S
C246 C245 1.397 . S
C246 C247 1.334 . S
C247 H224 0.950 . S
C247 C246 1.334 . S
C247 C248 1.287 . S
C248 C247 1.287 . S
C248 C249 1.524 . S
C248 H267 0.913 . S
C249 H225 0.949 1_554 S
C249 C248 1.524 . S
C249 C250 1.415 . S
C250 H226 0.950 1_554 S
C250 C245 1.363 . S
C250 C249 1.415 . S
C251 H227 0.951 . S
C251 C252 1.366 . S
C251 C253 1.388 . S
C252 C251 1.366 . S
C252 C256 1.385 . S
C253 H228 0.951 . S
C253 C251 1.388 . S
C253 C254 1.366 . S
C254 C253 1.366 . S
C254 C255 1.414 . S
C254 C257 1.499 . S
C255 H229 0.950 1_554 S
C255 C254 1.414 . S
C255 C256 1.374 . S
C256 H230 0.950 1_554 S
C256 C252 1.385 . S
C256 C255 1.374 . S
C257 C254 1.499 . S
C257 C258 1.373 . S
C257 C259 1.389 . S
C258 H231 0.950 . S
C258 C244 1.377 . S
C258 C257 1.373 . S
C259 C243 1.377 . S
C259 C257 1.389 . S
C259 C260 1.524 . S
C260 C259 1.524 . S
C260 C261 1.397 1_554 S
C260 C265 1.363 . S
C261 H232 0.950 . S
C261 C260 1.397 1_556 S
C261 C262 1.334 . S
C262 H233 0.950 . S
C262 C261 1.334 . S
C262 C263 1.287 1_556 S
C263 C262 1.287 1_554 S
C263 C264 1.524 . S
C263 H266 0.999 1_554 S
C264 H234 0.950 . S
C264 C263 1.524 . S
C264 C265 1.415 . S
C265 H235 0.950 . S
C265 C260 1.363 . S
C265 C264 1.415 . S
H266 C263 0.999 1_556 S
H267 C248 0.913 . S
H268 C286 0.951 . S
H269 C288 0.951 . S
H270 C290 0.950 . S
H271 C291 0.950 1_454 S
H272 C293 0.950 . S
H273 C296 0.950 . S
H274 C297 0.950 . S
H275 C299 0.950 . S
H276 C300 0.950 . S
H277 C301 0.951 . S
H278 C303 0.951 . S
H279 C305 0.950 . S
H280 C306 0.950 . S
H281 C308 0.950 . S
H282 C311 0.950 . S
H283 C312 0.950 . S
H284 C314 0.950 . S
H285 C315 0.950 . S
C286 H268 0.951 . S
C286 C287 1.366 . S
C286 C288 1.388 . S
C287 C286 1.366 . S
C287 C291 1.385 . S
C288 H269 0.951 . S
C288 C286 1.388 . S
C288 C289 1.366 . S
C289 C288 1.366 . S
C289 C290 1.414 . S
C289 C292 1.499 . S
C290 H270 0.950 . S
C290 C289 1.414 . S
C290 C291 1.374 . S
C291 H271 0.950 1_656 S
C291 C287 1.385 . S
C291 C290 1.374 . S
C292 C289 1.499 . S
C292 C293 1.373 1_556 S
C292 C294 1.389 . S
C293 H272 0.950 . S
C293 C292 1.373 1_554 S
C293 C309 1.377 . S
C294 C292 1.389 . S
C294 C295 1.524 . S
C294 C308 1.377 . S
C295 C294 1.524 . S
C295 C296 1.397 . S
C295 C300 1.363 . S
C296 H273 0.950 . S
C296 C295 1.397 . S
C296 C297 1.334 . S
C297 H274 0.950 . S
C297 C296 1.334 . S
C297 C298 1.287 . S
C298 C297 1.287 . S
C298 C299 1.524 . S
C298 H317 0.913 . S
C299 H275 0.950 . S
C299 C298 1.524 . S
C299 C300 1.415 . S
C300 H276 0.950 . S
C300 C295 1.363 . S
C300 C299 1.415 . S
C301 H277 0.951 . S
C301 C302 1.366 . S
C301 C303 1.388 . S
C302 C301 1.366 . S
C302 C306 1.385 . S
C303 H278 0.951 . S
C303 C301 1.388 . S
C303 C304 1.366 . S
C304 C303 1.366 . S
C304 C305 1.414 . S
C304 C307 1.499 . S
C305 H279 0.950 . S
C305 C304 1.414 . S
C305 C306 1.374 . S
C306 H280 0.950 . S
C306 C302 1.385 . S
C306 C305 1.374 . S
C307 C304 1.499 . S
C307 C308 1.373 . S
C307 C309 1.389 1_556 S
C308 H281 0.950 . S
C308 C294 1.377 . S
C308 C307 1.373 . S
C309 C293 1.377 . S
C309 C307 1.389 1_554 S
C309 C310 1.524 . S
C310 C309 1.524 . S
C310 C311 1.397 . S
C310 C315 1.363 . S
C311 H282 0.950 . S
C311 C310 1.397 . S
C311 C312 1.334 . S
C312 H283 0.950 . S
C312 C311 1.334 . S
C312 C313 1.287 . S
C313 C312 1.287 . S
C313 C314 1.524 . S
C313 H316 0.999 . S
C314 H284 0.950 . S
C314 C313 1.524 . S
C314 C315 1.415 . S
C315 H285 0.950 . S
C315 C310 1.363 . S
C315 C314 1.415 . S
H316 C313 0.999 . S
H317 C298 0.913 . S
H318 C336 0.951 . S
H319 C338 0.951 . S
H320 C340 0.950 . S
H321 C341 0.950 . S
H322 C343 0.950 . S
H323 C346 0.950 . S
H324 C347 0.950 . S
H325 C349 0.950 . S
H326 C350 0.950 . S
H327 C351 0.951 . S
H328 C353 0.951 . S
H329 C355 0.950 . S
H330 C356 0.950 . S
H331 C358 0.950 . S
H332 C361 0.950 . S
H333 C362 0.950 . S
H334 C364 0.950 . S
H335 C365 0.950 . S
C336 H318 0.951 . S
C336 C337 1.366 . S
C336 C338 1.388 . S
C337 C336 1.366 . S
C337 C341 1.385 . S
C338 H319 0.951 . S
C338 C336 1.388 . S
C338 C339 1.366 . S
C339 C338 1.366 . S
C339 C340 1.414 . S
C339 C342 1.499 . S
C340 H320 0.950 . S
C340 C339 1.414 . S
C340 C341 1.374 . S
C341 H321 0.950 . S
C341 C337 1.385 . S
C341 C340 1.374 . S
C342 C339 1.499 . S
C342 C343 1.373 . S
C342 C344 1.389 . S
C343 H322 0.950 . S
C343 C342 1.373 . S
C343 C359 1.377 . S
C344 C342 1.389 . S
C344 C345 1.524 . S
C344 C358 1.377 . S
C345 C344 1.524 . S
C345 C346 1.397 . S
C345 C350 1.363 . S
C346 H323 0.950 . S
C346 C345 1.397 . S
C346 C347 1.334 . S
C347 H324 0.950 . S
C347 C346 1.334 . S
C347 C348 1.287 . S
C348 C347 1.287 . S
C348 C349 1.524 . S
C348 H367 0.913 . S
C349 H325 0.950 . S
C349 C348 1.524 . S
C349 C350 1.415 . S
C350 H326 0.950 . S
C350 C345 1.363 . S
C350 C349 1.415 . S
C351 H327 0.951 . S
C351 C352 1.366 . S
C351 C353 1.388 . S
C352 C351 1.366 . S
C352 C356 1.385 . S
C353 H328 0.951 . S
C353 C351 1.388 . S
C353 C354 1.366 . S
C354 C353 1.366 . S
C354 C355 1.414 . S
C354 C357 1.499 . S
C355 H329 0.950 . S
C355 C354 1.414 . S
C355 C356 1.374 . S
C356 H330 0.950 . S
C356 C352 1.385 . S
C356 C355 1.374 . S
C357 C354 1.499 . S
C357 C358 1.373 . S
C357 C359 1.389 . S
C358 H331 0.950 . S
C358 C344 1.377 . S
C358 C357 1.373 . S
C359 C343 1.377 . S
C359 C357 1.389 . S
C359 C360 1.524 . S
C360 C359 1.524 . S
C360 C361 1.397 . S
C360 C365 1.363 . S
C361 H332 0.950 . S
C361 C360 1.397 . S
C361 C362 1.334 . S
C362 H333 0.950 . S
C362 C361 1.334 . S
C362 C363 1.287 . S
C363 C362 1.287 . S
C363 C364 1.524 . S
C363 H366 0.999 . S
C364 H334 0.950 . S
C364 C363 1.524 . S
C364 C365 1.415 . S
C365 H335 0.950 . S
C365 C360 1.363 . S
C365 C364 1.415 . S
H366 C363 0.999 . S
H367 C348 0.913 . S
H368 C386 0.951 . S
H369 C388 0.951 . S
H370 C390 0.950 . S
H371 C391 0.950 . S
H372 C393 0.950 . S
H373 C396 0.950 . S
H374 C397 0.950 . S
H375 C399 0.950 . S
H376 C400 0.950 . S
H377 C401 0.951 . S
H378 C403 0.951 . S
H379 C405 0.950 . S
H380 C406 0.950 1_455 S
H381 C408 0.950 . S
H382 C411 0.950 . S
H383 C412 0.950 . S
H384 C414 0.950 . S
H385 C415 0.950 . S
C386 H368 0.951 . S
C386 C387 1.366 . S
C386 C388 1.388 . S
C387 C386 1.366 . S
C387 C391 1.385 . S
C388 H369 0.951 . S
C388 C386 1.388 . S
C388 C389 1.366 . S
C389 C388 1.366 . S
C389 C390 1.414 . S
C389 C392 1.499 . S
C390 H370 0.950 . S
C390 C389 1.414 . S
C390 C391 1.374 . S
C391 H371 0.950 . S
C391 C387 1.385 . S
C391 C390 1.374 . S
C392 C389 1.499 . S
C392 C393 1.373 . S
C392 C394 1.389 . S
C393 H372 0.950 . S
C393 C392 1.373 . S
C393 C409 1.377 . S
C394 C392 1.389 . S
C394 C395 1.524 . S
C394 C408 1.377 . S
C395 C394 1.524 . S
C395 C396 1.397 . S
C395 C400 1.363 . S
C396 H373 0.950 . S
C396 C395 1.397 . S
C396 C397 1.334 . S
C397 H374 0.950 . S
C397 C396 1.334 . S
C397 C398 1.287 . S
C398 C397 1.287 . S
C398 C399 1.524 . S
C398 H417 0.913 . S
C399 H375 0.950 . S
C399 C398 1.524 . S
C399 C400 1.415 . S
C400 H376 0.950 . S
C400 C395 1.363 . S
C400 C399 1.415 . S
C401 H377 0.951 . S
C401 C402 1.366 . S
C401 C403 1.388 . S
C402 C401 1.366 . S
C402 C406 1.385 . S
C403 H378 0.951 . S
C403 C401 1.388 . S
C403 C404 1.366 . S
C404 C403 1.366 . S
C404 C405 1.414 . S
C404 C407 1.499 . S
C405 H379 0.950 . S
C405 C404 1.414 . S
C405 C406 1.374 . S
C406 H380 0.950 1_655 S
C406 C402 1.385 . S
C406 C405 1.374 . S
C407 C404 1.499 . S
C407 C408 1.373 . S
C407 C409 1.389 . S
C408 H381 0.950 . S
C408 C394 1.377 . S
C408 C407 1.373 . S
C409 C393 1.377 . S
C409 C407 1.389 . S
C409 C410 1.524 . S
C410 C409 1.524 . S
C410 C411 1.397 . S
C410 C415 1.363 . S
C411 H382 0.950 . S
C411 C410 1.397 . S
C411 C412 1.334 . S
C412 H383 0.950 . S
C412 C411 1.334 . S
C412 C413 1.287 . S
C413 C412 1.287 . S
C413 C414 1.524 . S
C413 H416 0.999 . S
C414 H384 0.950 . S
C414 C413 1.524 . S
C414 C415 1.415 . S
C415 H385 0.950 . S
C415 C410 1.363 . S
C415 C414 1.415 . S
H416 C413 0.999 . S
H417 C398 0.913 . S
H418 C436 0.951 . S
H419 C438 0.951 . S
H420 C440 0.950 . S
H421 C441 0.950 . S
H422 C443 0.950 . S
H423 C446 0.950 . S
H424 C447 0.950 . S
H425 C449 0.950 . S
H426 C450 0.950 . S
H427 C451 0.951 . S
H428 C453 0.951 . S
H429 C455 0.950 . S
H430 C456 0.950 . S
H431 C458 0.950 . S
H432 C461 0.950 . S
H433 C462 0.950 . S
H434 C464 0.950 . S
H435 C465 0.950 . S
C436 H418 0.951 . S
C436 C437 1.366 . S
C436 C438 1.388 . S
C437 C436 1.366 . S
C437 C441 1.385 . S
C438 H419 0.951 . S
C438 C436 1.388 . S
C438 C439 1.366 . S
C439 C438 1.366 . S
C439 C440 1.414 . S
C439 C442 1.499 . S
C440 H420 0.950 . S
C440 C439 1.414 . S
C440 C441 1.374 . S
C441 H421 0.950 . S
C441 C437 1.385 . S
C441 C440 1.374 . S
C442 C439 1.499 . S
C442 C443 1.373 . S
C442 C444 1.389 . S
C443 H422 0.950 . S
C443 C442 1.373 . S
C443 C459 1.377 . S
C444 C442 1.389 . S
C444 C445 1.524 . S
C444 C458 1.377 . S
C445 C444 1.524 . S
C445 C446 1.397 . S
C445 C450 1.363 . S
C446 H423 0.950 . S
C446 C445 1.397 . S
C446 C447 1.334 . S
C447 H424 0.950 . S
C447 C446 1.334 . S
C447 C448 1.287 . S
C448 C447 1.287 . S
C448 C449 1.524 . S
C448 H467 0.913 . S
C449 H425 0.950 . S
C449 C448 1.524 . S
C449 C450 1.415 . S
C450 H426 0.950 . S
C450 C445 1.363 . S
C450 C449 1.415 . S
C451 H427 0.951 . S
C451 C452 1.366 . S
C451 C453 1.388 . S
C452 C451 1.366 . S
C452 C456 1.385 . S
C453 H428 0.951 . S
C453 C451 1.388 . S
C453 C454 1.366 . S
C454 C453 1.366 . S
C454 C455 1.414 . S
C454 C457 1.499 . S
C455 H429 0.950 . S
C455 C454 1.414 . S
C455 C456 1.374 . S
C456 H430 0.950 . S
C456 C452 1.385 . S
C456 C455 1.374 . S
C457 C454 1.499 . S
C457 C458 1.373 . S
C457 C459 1.389 . S
C458 H431 0.950 . S
C458 C444 1.377 . S
C458 C457 1.373 . S
C459 C443 1.377 . S
C459 C457 1.389 . S
C459 C460 1.524 . S
C460 C459 1.524 . S
C460 C461 1.397 . S
C460 C465 1.363 . S
C461 H432 0.950 . S
C461 C460 1.397 . S
C461 C462 1.334 . S
C462 H433 0.950 . S
C462 C461 1.334 . S
C462 C463 1.287 . S
C463 C462 1.287 . S
C463 C464 1.524 . S
C463 H466 0.999 . S
C464 H434 0.950 . S
C464 C463 1.524 . S
C464 C465 1.415 . S
C465 H435 0.950 . S
C465 C460 1.363 . S
C465 C464 1.415 . S
H466 C463 0.999 . S
H467 C448 0.913 . S
H468 C486 0.951 . S
H469 C488 0.951 . S
H470 C490 0.950 . S
H471 C491 0.950 . S
H472 C493 0.950 . S
H473 C496 0.950 . S
H474 C497 0.950 . S
H475 C499 0.950 . S
H476 C500 0.950 . S
H477 C501 0.951 . S
H478 C503 0.951 . S
H479 C505 0.950 . S
H480 C506 0.950 . S
H481 C508 0.950 . S
H482 C511 0.950 . S
H483 C512 0.950 . S
H484 C514 0.950 . S
H485 C515 0.950 . S
C486 H468 0.951 . S
C486 C487 1.366 . S
C486 C488 1.388 . S
C487 C486 1.366 . S
C487 C491 1.385 . S
C488 H469 0.951 . S
C488 C486 1.388 . S
C488 C489 1.366 . S
C489 C488 1.366 . S
C489 C490 1.414 . S
C489 C492 1.499 . S
C490 H470 0.950 . S
C490 C489 1.414 . S
C490 C491 1.374 . S
C491 H471 0.950 . S
C491 C487 1.385 . S
C491 C490 1.374 . S
C492 C489 1.499 . S
C492 C493 1.373 . S
C492 C494 1.389 . S
C493 H472 0.950 . S
C493 C492 1.373 . S
C493 C509 1.377 . S
C494 C492 1.389 . S
C494 C495 1.524 . S
C494 C508 1.377 . S
C495 C494 1.524 . S
C495 C496 1.397 . S
C495 C500 1.363 . S
C496 H473 0.950 . S
C496 C495 1.397 . S
C496 C497 1.334 . S
C497 H474 0.950 . S
C497 C496 1.334 . S
C497 C498 1.287 . S
C498 C497 1.287 . S
C498 C499 1.524 . S
C498 H517 0.913 . S
C499 H475 0.950 . S
C499 C498 1.524 . S
C499 C500 1.415 . S
C500 H476 0.950 . S
C500 C495 1.363 . S
C500 C499 1.415 . S
C501 H477 0.951 . S
C501 C502 1.366 . S
C501 C503 1.388 . S
C502 C501 1.366 . S
C502 C506 1.385 . S
C503 H478 0.951 . S
C503 C501 1.388 . S
C503 C504 1.366 . S
C504 C503 1.366 . S
C504 C505 1.414 . S
C504 C507 1.499 . S
C505 H479 0.950 . S
C505 C504 1.414 . S
C505 C506 1.374 . S
C506 H480 0.950 . S
C506 C502 1.385 . S
C506 C505 1.374 . S
C507 C504 1.499 . S
C507 C508 1.373 . S
C507 C509 1.389 . S
C508 H481 0.950 . S
C508 C494 1.377 . S
C508 C507 1.373 . S
C509 C493 1.377 . S
C509 C507 1.389 . S
C509 C510 1.524 . S
C510 C509 1.524 . S
C510 C511 1.397 . S
C510 C515 1.363 . S
C511 H482 0.950 . S
C511 C510 1.397 . S
C511 C512 1.334 . S
C512 H483 0.950 . S
C512 C511 1.334 . S
C512 C513 1.287 . S
C513 C512 1.287 . S
C513 C514 1.524 . S
C513 H516 0.999 . S
C514 H484 0.950 . S
C514 C513 1.524 . S
C514 C515 1.415 . S
C515 H485 0.950 . S
C515 C510 1.363 . S
C515 C514 1.415 . S
H516 C513 0.999 . S
H517 C498 0.913 . S
H518 C536 0.951 . S
H519 C538 0.951 . S
H520 C540 0.950 . S
H521 C541 0.950 . S
H522 C543 0.950 . S
H523 C546 0.950 . S
H524 C547 0.950 . S
H525 C549 0.950 . S
H526 C550 0.950 . S
H527 C551 0.951 . S
H528 C553 0.951 . S
H529 C555 0.954 . S
H530 C556 0.950 1_545 S
H531 C558 0.950 . S
H532 C561 0.950 . S
H533 C562 0.950 . S
H534 C564 0.950 . S
H535 C565 0.950 . S
C536 H518 0.951 . S
C536 C537 1.366 1_545 S
C536 C538 1.388 . S
C537 C536 1.366 1_565 S
C537 C541 1.385 . S
C538 H519 0.951 . S
C538 C536 1.388 . S
C538 C539 1.366 1_545 S
C539 C538 1.366 1_565 S
C539 C540 1.414 . S
C539 C542 1.499 . S
C540 H520 0.950 . S
C540 C539 1.414 . S
C540 C541 1.374 . S
C541 H521 0.950 . S
C541 C537 1.385 . S
C541 C540 1.374 . S
C542 C539 1.499 . S
C542 C543 1.373 1_565 S
C542 C544 1.389 . S
C543 H522 0.950 . S
C543 C542 1.373 1_545 S
C543 C559 1.377 . S
C544 C542 1.389 . S
C544 C545 1.524 . S
C544 C558 1.377 . S
C545 C544 1.524 . S
C545 C546 1.397 . S
C545 C550 1.363 . S
C546 H523 0.950 . S
C546 C545 1.397 . S
C546 C547 1.334 . S
C547 H524 0.950 . S
C547 C546 1.334 . S
C547 C548 1.287 . S
C548 C547 1.287 . S
C548 C549 1.524 . S
C548 H567 0.913 . S
C549 H525 0.950 . S
C549 C548 1.524 . S
C549 C550 1.415 . S
C550 H526 0.950 . S
C550 C545 1.363 . S
C550 C549 1.415 . S
C551 H527 0.951 . S
C551 C552 1.366 . S
C551 C553 1.388 . S
C552 C551 1.366 . S
C552 C556 1.388 . S
C553 H528 0.951 . S
C553 C551 1.388 . S
C553 C554 1.366 . S
C554 C553 1.366 . S
C554 C555 1.414 1_565 S
C554 C557 1.499 . S
C555 H529 0.954 . S
C555 C554 1.414 1_545 S
C555 C556 1.368 1_545 S
C556 H530 0.950 1_565 S
C556 C552 1.388 . S
C556 C555 1.368 1_565 S
C557 C554 1.499 . S
C557 C558 1.373 . S
C557 C559 1.389 1_565 S
C558 H531 0.950 . S
C558 C544 1.377 . S
C558 C557 1.373 . S
C559 C543 1.377 . S
C559 C557 1.389 1_545 S
C559 C560 1.524 . S
C560 C559 1.524 . S
C560 C561 1.397 . S
C560 C565 1.363 1_455 S
C561 H532 0.950 . S
C561 C560 1.397 . S
C561 C562 1.334 . S
C562 H533 0.950 . S
C562 C561 1.334 . S
C562 C563 1.287 1_455 S
C563 C562 1.287 1_655 S
C563 C564 1.524 . S
C563 H566 0.999 . S
C564 H534 0.950 . S
C564 C563 1.524 . S
C564 C565 1.415 . S
C565 H535 0.950 . S
C565 C560 1.363 1_655 S
C565 C564 1.415 . S
H566 C563 0.999 . S
H567 C548 0.913 . S
H568 C586 0.955 . S
H569 C588 0.951 1_565 S
H570 C590 0.950 . S
H571 C591 0.950 . S
H572 C593 0.950 . S
H573 C596 0.950 . S
H574 C597 0.950 . S
H575 C599 0.950 . S
H576 C600 0.950 . S
H577 C601 0.951 . S
H578 C603 0.951 . S
H579 C605 0.950 . S
H580 C606 0.950 . S
H581 C608 0.950 . S
H582 C611 0.950 . S
H583 C612 0.950 . S
H584 C614 0.950 . S
H585 C615 0.950 . S
C586 H568 0.955 . S
C586 C587 1.363 1_565 S
C586 C588 1.386 1_565 S
C587 C586 1.363 1_545 S
C587 C591 1.385 1_455 S
C588 H569 0.951 1_545 S
C588 C586 1.386 1_545 S
C588 C589 1.366 . S
C589 C588 1.366 . S
C589 C590 1.414 1_455 S
C589 C592 1.499 . S
C590 H570 0.950 . S
C590 C589 1.414 1_655 S
C590 C591 1.374 . S
C591 H571 0.950 . S
C591 C587 1.385 1_655 S
C591 C590 1.374 . S
C592 C589 1.499 . S
C592 C593 1.373 1_455 S
C592 C594 1.389 . S
C593 H572 0.950 . S
C593 C592 1.373 1_655 S
C593 C609 1.377 . S
C594 C592 1.389 . S
C594 C595 1.524 . S
C594 C608 1.377 . S
C595 C594 1.524 . S
C595 C596 1.397 . S
C595 C600 1.363 . S
C596 H573 0.950 . S
C596 C595 1.397 . S
C596 C597 1.334 . S
C597 H574 0.950 . S
C597 C596 1.334 . S
C597 C598 1.287 . S
C598 C597 1.287 . S
C598 C599 1.524 . S
C598 H617 0.913 . S
C599 H575 0.950 . S
C599 C598 1.524 . S
C599 C600 1.415 . S
C600 H576 0.950 . S
C600 C595 1.363 . S
C600 C599 1.415 . S
C601 H577 0.951 . S
C601 C602 1.366 . S
C601 C603 1.388 . S
C602 C601 1.366 . S
C602 C606 1.385 1_655 S
C603 H578 0.951 . S
C603 C601 1.388 . S
C603 C604 1.368 . S
C604 C603 1.368 . S
C604 C605 1.411 1_655 S
C604 C607 1.499 1_655 S
C605 H579 0.950 . S
C605 C604 1.411 1_455 S
C605 C606 1.374 . S
C606 H580 0.950 . S
C606 C602 1.385 1_455 S
C606 C605 1.374 . S
C607 C604 1.499 1_455 S
C607 C608 1.373 . S
C607 C609 1.389 1_455 S
C608 H581 0.950 . S
C608 C594 1.377 . S
C608 C607 1.373 . S
C609 C593 1.377 . S
C609 C607 1.389 1_655 S
C609 C610 1.524 . S
C610 C609 1.524 . S
C610 C611 1.397 1_545 S
C610 C615 1.363 . S
C611 H582 0.950 . S
C611 C610 1.397 1_565 S
C611 C612 1.334 . S
C612 H583 0.950 . S
C612 C611 1.334 . S
C612 C613 1.287 . S
C613 C612 1.287 . S
C613 C614 1.524 1_565 S
C613 H616 0.999 . S
C614 H584 0.950 . S
C614 C613 1.524 1_545 S
C614 C615 1.415 . S
C615 H585 0.950 . S
C615 C610 1.363 . S
C615 C614 1.415 . S
H616 C613 0.999 . S
H617 C598 0.913 . S
H618 C636 0.951 . S
H619 C638 0.951 . S
H620 C640 0.950 . S
H621 C641 0.950 . S
H622 C643 0.950 . S
H623 C646 0.950 . S
H624 C647 0.950 . S
H625 C649 0.950 . S
H626 C650 0.950 . S
H627 C651 0.951 . S
H628 C653 0.951 . S
H629 C655 0.950 . S
H630 C656 0.950 . S
H631 C658 0.950 . S
H632 C661 0.950 . S
H633 C662 0.950 . S
H634 C664 0.950 . S
H635 C665 0.950 . S
C636 H618 0.951 . S
C636 C637 1.366 . S
C636 C638 1.388 . S
C637 C636 1.366 . S
C637 C641 1.385 . S
C638 H619 0.951 . S
C638 C636 1.388 . S
C638 C639 1.366 . S
C639 C638 1.366 . S
C639 C640 1.414 . S
C639 C642 1.499 . S
C640 H620 0.950 . S
C640 C639 1.414 . S
C640 C641 1.374 . S
C641 H621 0.950 . S
C641 C637 1.385 . S
C641 C640 1.374 . S
C642 C639 1.499 . S
C642 C643 1.373 . S
C642 C644 1.389 . S
C643 H622 0.950 . S
C643 C642 1.373 . S
C643 C659 1.377 . S
C644 C642 1.389 . S
C644 C645 1.524 . S
C644 C658 1.377 . S
C645 C644 1.524 . S
C645 C646 1.397 . S
C645 C650 1.363 . S
C646 H623 0.950 . S
C646 C645 1.397 . S
C646 C647 1.334 . S
C647 H624 0.950 . S
C647 C646 1.334 . S
C647 C648 1.287 . S
C648 C647 1.287 . S
C648 C649 1.524 . S
C648 H667 0.913 . S
C649 H625 0.950 . S
C649 C648 1.524 . S
C649 C650 1.415 . S
C650 H626 0.950 . S
C650 C645 1.363 . S
C650 C649 1.415 . S
C651 H627 0.951 . S
C651 C652 1.366 . S
C651 C653 1.388 . S
C652 C651 1.366 . S
C652 C656 1.385 . S
C653 H628 0.951 . S
C653 C651 1.388 . S
C653 C654 1.366 . S
C654 C653 1.366 . S
C654 C655 1.414 . S
C654 C657 1.499 . S
C655 H629 0.950 . S
C655 C654 1.414 . S
C655 C656 1.374 . S
C656 H630 0.950 . S
C656 C652 1.385 . S
C656 C655 1.374 . S
C657 C654 1.499 . S
C657 C658 1.373 . S
C657 C659 1.389 . S
C658 H631 0.950 . S
C658 C644 1.377 . S
C658 C657 1.373 . S
C659 C643 1.377 . S
C659 C657 1.389 . S
C659 C660 1.524 . S
C660 C659 1.524 . S
C660 C661 1.397 . S
C660 C665 1.363 . S
C661 H632 0.950 . S
C661 C660 1.397 . S
C661 C662 1.334 . S
C662 H633 0.950 . S
C662 C661 1.334 . S
C662 C663 1.287 . S
C663 C662 1.287 . S
C663 C664 1.524 . S
C663 H666 0.999 . S
C664 H634 0.950 . S
C664 C663 1.524 . S
C664 C665 1.415 . S
C665 H635 0.950 . S
C665 C660 1.363 . S
C665 C664 1.415 . S
H666 C663 0.999 . S
H667 C648 0.913 . S
H668 C686 0.951 . S
H669 C688 0.951 . S
H670 C690 0.950 . S
H671 C691 0.950 . S
H672 C693 0.950 . S
H673 C696 0.950 . S
H674 C697 0.950 . S
H675 C699 0.950 . S
H676 C700 0.950 . S
H677 C701 0.951 . S
H678 C703 0.951 . S
H679 C705 0.950 . S
H680 C706 0.950 . S
H681 C708 0.950 . S
H682 C711 0.950 . S
H683 C712 0.950 . S
H684 C714 0.950 . S
H685 C715 0.950 . S
C686 H668 0.951 . S
C686 C687 1.366 . S
C686 C688 1.388 . S
C687 C686 1.366 . S
C687 C691 1.385 . S
C688 H669 0.951 . S
C688 C686 1.388 . S
C688 C689 1.366 . S
C689 C688 1.366 . S
C689 C690 1.414 . S
C689 C692 1.499 . S
C690 H670 0.950 . S
C690 C689 1.414 . S
C690 C691 1.374 . S
C691 H671 0.950 . S
C691 C687 1.385 . S
C691 C690 1.374 . S
C692 C689 1.499 . S
C692 C693 1.373 . S
C692 C694 1.389 . S
C693 H672 0.950 . S
C693 C692 1.373 . S
C693 C709 1.377 . S
C694 C692 1.389 . S
C694 C695 1.524 . S
C694 C708 1.377 . S
C695 C694 1.524 . S
C695 C696 1.397 . S
C695 C700 1.363 . S
C696 H673 0.950 . S
C696 C695 1.397 . S
C696 C697 1.334 . S
C697 H674 0.950 . S
C697 C696 1.334 . S
C697 C698 1.287 . S
C698 C697 1.287 . S
C698 C699 1.524 . S
C698 H717 0.913 . S
C699 H675 0.950 . S
C699 C698 1.524 . S
C699 C700 1.415 . S
C700 H676 0.950 . S
C700 C695 1.363 . S
C700 C699 1.415 . S
C701 H677 0.951 . S
C701 C702 1.366 . S
C701 C703 1.388 . S
C702 C701 1.366 . S
C702 C706 1.385 . S
C703 H678 0.951 . S
C703 C701 1.388 . S
C703 C704 1.366 . S
C704 C703 1.366 . S
C704 C705 1.414 . S
C704 C707 1.499 . S
C705 H679 0.950 . S
C705 C704 1.414 . S
C705 C706 1.374 . S
C706 H680 0.950 . S
C706 C702 1.385 . S
C706 C705 1.374 . S
C707 C704 1.499 . S
C707 C708 1.373 . S
C707 C709 1.389 . S
C708 H681 0.950 . S
C708 C694 1.377 . S
C708 C707 1.373 . S
C709 C693 1.377 . S
C709 C707 1.389 . S
C709 C710 1.524 . S
C710 C709 1.524 . S
C710 C711 1.397 . S
C710 C715 1.363 . S
C711 H682 0.950 . S
C711 C710 1.397 . S
C711 C712 1.334 . S
C712 H683 0.950 . S
C712 C711 1.334 . S
C712 C713 1.287 . S
C713 C712 1.287 . S
C713 C714 1.524 . S
C713 H716 0.999 . S
C714 H684 0.950 . S
C714 C713 1.524 . S
C714 C715 1.415 . S
C715 H685 0.950 . S
C715 C710 1.363 . S
C715 C714 1.415 . S
H716 C713 0.999 . S
H717 C698 0.913 . S
C152 C105 1.525 . S
C137 C16 1.388 . S
C187 C15 1.387 . S
C202 C91 1.372 . S
C237 C13 1.265 . S
C252 C110 1.404 . S
C287 C14 1.502 . S
C302 C86 1.527 . S
C337 C37 1.390 . S
C352 C67 1.526 . S
C387 C36 1.387 . S
C402 C53 1.373 1_655 S
C452 C72 1.404 . S
C437 C34 1.254 . S
C502 C48 1.528 . S
C487 C35 1.501 . S
C537 C17 1.640 1_565 S
C552 C44 1.672 . S
C587 C18 1.404 . S
C602 C63 1.419 . S
C652 C82 1.672 . S
C637 C38 1.640 . S
C687 C39 1.403 . S
C702 C101 1.418 . S
