# Generated by pormake.
# Topology zzz, (3,6)-cn, num edge types: 1
# Building blocks:
#     Node 0, Type 0, BuildingBlock: BETDIP_clean_linker_0, # of connection points: 3
#     Node 1, Type 0, BuildingBlock: BETDIP_clean_linker_0, # of connection points: 3
#     Node 2, Type 0, BuildingBlock: BETDIP_clean_linker_0, # of connection points: 3
#     Node 3, Type 0, BuildingBlock: BETDIP_clean_linker_0, # of connection points: 3
#     Node 4, Type 0, BuildingBlock: BETDIP_clean_linker_0, # of connection points: 3
#     Node 5, Type 0, BuildingBlock: BETDIP_clean_linker_0, # of connection points: 3
#     Node 6, Type 0, BuildingBlock: BETDIP_clean_linker_0, # of connection points: 3
#     Node 7, Type 0, BuildingBlock: BETDIP_clean_linker_0, # of connection points: 3
#     Node 8, Type 1, BuildingBlock: CUKXOW_clean_sbu_0, # of connection points: 6
#     Node 9, Type 1, BuildingBlock: CUKXOW_clean_sbu_0, # of connection points: 6
#     Node 10, Type 1, BuildingBlock: CUKXOW_clean_sbu_0, # of connection points: 6
#     Node 11, Type 1, BuildingBlock: CUKXOW_clean_sbu_0, # of connection points: 6
#     Edge 12, Type (0, 1), BuildingBlock: UVAHIK_clean_linker_0, # of connection points: 2
#     Edge 13, Type (0, 1), BuildingBlock: UVAHIK_clean_linker_0, # of connection points: 2
#     Edge 14, Type (0, 1), BuildingBlock: UVAHIK_clean_linker_0, # of connection points: 2
#     Edge 15, Type (0, 1), BuildingBlock: UVAHIK_clean_linker_0, # of connection points: 2
#     Edge 16, Type (0, 1), BuildingBlock: UVAHIK_clean_linker_0, # of connection points: 2
#     Edge 17, Type (0, 1), BuildingBlock: UVAHIK_clean_linker_0, # of connection points: 2
#     Edge 18, Type (0, 1), BuildingBlock: UVAHIK_clean_linker_0, # of connection points: 2
#     Edge 19, Type (0, 1), BuildingBlock: UVAHIK_clean_linker_0, # of connection points: 2
#     Edge 20, Type (0, 1), BuildingBlock: UVAHIK_clean_linker_0, # of connection points: 2
#     Edge 21, Type (0, 1), BuildingBlock: UVAHIK_clean_linker_0, # of connection points: 2
#     Edge 22, Type (0, 1), BuildingBlock: UVAHIK_clean_linker_0, # of connection points: 2
#     Edge 23, Type (0, 1), BuildingBlock: UVAHIK_clean_linker_0, # of connection points: 2
#     Edge 24, Type (0, 1), BuildingBlock: UVAHIK_clean_linker_0, # of connection points: 2
#     Edge 25, Type (0, 1), BuildingBlock: UVAHIK_clean_linker_0, # of connection points: 2
#     Edge 26, Type (0, 1), BuildingBlock: UVAHIK_clean_linker_0, # of connection points: 2
#     Edge 27, Type (0, 1), BuildingBlock: UVAHIK_clean_linker_0, # of connection points: 2
#     Edge 28, Type (0, 1), BuildingBlock: UVAHIK_clean_linker_0, # of connection points: 2
#     Edge 29, Type (0, 1), BuildingBlock: UVAHIK_clean_linker_0, # of connection points: 2
#     Edge 30, Type (0, 1), BuildingBlock: UVAHIK_clean_linker_0, # of connection points: 2
#     Edge 31, Type (0, 1), BuildingBlock: UVAHIK_clean_linker_0, # of connection points: 2
#     Edge 32, Type (0, 1), BuildingBlock: UVAHIK_clean_linker_0, # of connection points: 2
#     Edge 33, Type (0, 1), BuildingBlock: UVAHIK_clean_linker_0, # of connection points: 2
#     Edge 34, Type (0, 1), BuildingBlock: UVAHIK_clean_linker_0, # of connection points: 2
#     Edge 35, Type (0, 1), BuildingBlock: UVAHIK_clean_linker_0, # of connection points: 2
# Relax obj value: 0.069
# Max RMSD: 0.115
# Mean RMSD: 0.083
data_MOF--net-zzz--node1-CUKXOW_clean_sbu_0--node2-BETDIP_clean_linker_0--edge1-UVAHIK_clean_linker_0
_symmetry_space_group_name_H-M    P1
_symmetry_Int_Tables_number       1
_symmetry_cell_setting            triclinic
loop_
_symmetry_equiv_pos_as_xyz
'x, y, z'
_cell_length_a     65.851284
_cell_length_b     67.804124
_cell_length_c     19.956287
_cell_angle_alpha  92.843892
_cell_angle_beta   87.065589
_cell_angle_gamma 93.78822
loop_
_atom_site_label
_atom_site_type_symbol
_atom_site_fract_x
_atom_site_fract_y
_atom_site_fract_z
_atom_type_partial_charge
H0 H 0.75313 0.51141 0.23131 0.0
H1 H 0.76237 0.52572 0.02305 0.0
H2 H 0.8103 0.50183 0.12411 0.0
H3 H 0.73809 0.54901 0.06223 0.0
C4 C 0.72764 0.53749 0.0827 0.0
C5 C 0.76272 0.51196 0.18558 0.0
C6 C 0.78257 0.50554 0.1846 0.0
C7 C 0.75526 0.51926 0.12763 0.0
C8 C 0.76787 0.52024 0.0684 0.0
C9 C 0.78755 0.51362 0.06709 0.0
C10 C 0.79473 0.50622 0.1249 0.0
N11 N 0.73476 0.52461 0.12894 0.0
H12 H 0.94845 0.76408 0.14475 0.0
H13 H 0.96927 0.77264 0.93892 0.0
H14 H 0.9828 0.81761 0.09182 0.0
H15 H 0.94104 0.74948 0.92127 0.0
C16 C 0.94562 0.73933 0.95736 0.0
C17 C 0.95649 0.77306 0.10719 0.0
C18 C 0.9656 0.79163 0.12596 0.0
C19 C 0.95779 0.766 0.0399 0.0
C20 C 0.96801 0.77786 0.99104 0.0
C21 C 0.97729 0.79637 0.00988 0.0
C22 C 0.97617 0.80303 0.07738 0.0
N23 N 0.94989 0.74647 0.02354 0.0
H24 H 0.74505 0.96824 0.23419 0.0
H25 H 0.72799 0.96573 0.02792 0.0
H26 H 0.682 0.96478 0.18809 0.0
H27 H 0.75858 0.95109 0.01245 0.0
C28 C 0.76784 0.96125 0.04389 0.0
C29 C 0.73343 0.96676 0.19739 0.0
C30 C 0.71281 0.96569 0.21848 0.0
C31 C 0.73907 0.96606 0.12857 0.0
C32 C 0.72384 0.96524 0.081 0.0
C33 C 0.70315 0.9646 0.10204 0.0
C34 C 0.69788 0.96447 0.17084 0.0
N35 N 0.76009 0.96759 0.10853 0.0
H36 H 0.56346 0.75089 0.21068 0.0
H37 H 0.53928 0.73898 0.01452 0.0
H38 H 0.53155 0.69503 0.16234 0.0
H39 H 0.56716 0.7611 0.98779 0.0
C40 C 0.56314 0.77236 0.02598 0.0
C41 C 0.55524 0.74114 0.1753 0.0
C42 C 0.54767 0.72226 0.19395 0.0
C43 C 0.55234 0.74735 0.11048 0.0
C44 C 0.54188 0.73442 0.06444 0.0
C45 C 0.53418 0.71566 0.08331 0.0
C46 C 0.53699 0.70978 0.14816 0.0
N47 N 0.5592 0.76687 0.09344 0.0
H48 H 0.25633 0.49454 0.1384 0.0
H49 H 0.24522 0.50205 0.35255 0.0
H50 H 0.1966 0.48079 0.22722 0.0
H51 H 0.26994 0.53141 0.31869 0.0
C52 C 0.28035 0.52031 0.30059 0.0
C53 C 0.24609 0.49331 0.18248 0.0
C54 C 0.22568 0.48657 0.17569 0.0
C55 C 0.25315 0.49902 0.24612 0.0
C56 C 0.23974 0.49783 0.30327 0.0
C57 C 0.21938 0.49083 0.29701 0.0
C58 C 0.21257 0.48521 0.23304 0.0
N59 N 0.27391 0.50547 0.25223 0.0
H60 H 0.05742 0.25341 0.18487 0.0
H61 H 0.0489 0.2379 0.39191 0.0
H62 H 0.0535 0.19241 0.23564 0.0
H63 H 0.07126 0.26778 0.39969 0.0
C64 C 0.06143 0.27638 0.37201 0.0
C65 C 0.05587 0.2423 0.22233 0.0
C66 C 0.05636 0.2222 0.20264 0.0
C67 C 0.05391 0.2481 0.29078 0.0
C68 C 0.05123 0.23359 0.33923 0.0
C69 C 0.05119 0.21346 0.31958 0.0
C70 C 0.05402 0.20797 0.2514 0.0
N71 N 0.05402 0.26853 0.30996 0.0
H72 H 0.26729 0.04058 0.13499 0.0
H73 H 0.27252 0.02701 0.3418 0.0
H74 H 0.32477 0.05057 0.22793 0.0
H75 H 0.24907 0.99913 0.28707 0.0
C76 C 0.23888 0.01065 0.27864 0.0
C77 C 0.27623 0.0408 0.17916 0.0
C78 C 0.29702 0.04689 0.17492 0.0
C79 C 0.26728 0.03379 0.23943 0.0
C80 C 0.27921 0.03286 0.29558 0.0
C81 C 0.29986 0.03936 0.29197 0.0
C82 C 0.3085 0.04672 0.23203 0.0
N83 N 0.24635 0.02738 0.24269 0.0
H84 H 0.45085 0.25806 0.11434 0.0
H85 H 0.46381 0.27736 0.31809 0.0
H86 H 0.45928 0.32003 0.1691 0.0
H87 H 0.44218 0.24973 0.33774 0.0
C88 C 0.44958 0.23935 0.30274 0.0
C89 C 0.45382 0.26982 0.15198 0.0
C90 C 0.4543 0.28967 0.13463 0.0
C91 C 0.4566 0.26524 0.21877 0.0
C92 C 0.46095 0.28067 0.26704 0.0
C93 C 0.46166 0.30047 0.24962 0.0
C94 C 0.45826 0.30475 0.18347 0.0
N95 N 0.45531 0.24511 0.23649 0.0
Tb96 Tb 0.99575 0.99042 0.63085 0.0
C97 C 0.04305 0.00346 0.62939 0.0
Tb98 Tb 0.01211 0.02139 0.73895 0.0
O99 O 0.98518 0.01408 0.57039 0.0
O100 O 0.00842 0.0195 0.63534 0.0
O101 O 0.02881 0.98958 0.61175 0.0
C102 C 0.01885 0.05678 0.80058 0.0
O103 O 0.03896 0.01894 0.6705 0.0
C104 C 0.01309 0.9844 0.76799 0.0
C105 C 0.96476 0.00742 0.74169 0.0
O106 O 0.02968 0.04165 0.80656 0.0
O107 O 0.00405 0.05177 0.76155 0.0
O108 O 0.02474 0.99848 0.79565 0.0
O109 O 9e-05 0.99192 0.73499 0.0
O110 O 0.97908 0.02077 0.76266 0.0
O111 O 0.96872 0.99274 0.69731 0.0
C112 C 0.98722 0.95612 0.56404 0.0
O113 O 0.97701 0.97181 0.56206 0.0
O114 O 0.00243 0.95988 0.60246 0.0
C115 C 0.9968 0.02777 0.59984 0.0
Tb116 Tb 0.50769 0.03026 0.66603 0.0
C117 C 0.53611 0.99936 0.58896 0.0
Tb118 Tb 0.5024 0.98603 0.70026 0.0
O119 O 0.52631 0.03764 0.75416 0.0
O120 O 0.52445 0.00955 0.70955 0.0
O121 O 0.5286 0.01713 0.58969 0.0
C122 C 0.50514 0.95269 0.76366 0.0
O123 O 0.52945 0.98575 0.63215 0.0
C124 C 0.47951 0.99643 0.60555 0.0
C125 C 0.47445 0.01737 0.77822 0.0
O126 O 0.50046 0.95372 0.70153 0.0
O127 O 0.50793 0.97045 0.79044 0.0
O128 O 0.48457 0.9784 0.6118 0.0
O129 O 0.48533 0.00663 0.65602 0.0
O130 O 0.48145 0.99932 0.77668 0.0
O131 O 0.481 0.03087 0.7347 0.0
C132 C 0.5052 0.06326 0.60051 0.0
O133 O 0.50863 0.06255 0.66389 0.0
O134 O 0.50347 0.0454 0.57395 0.0
C135 C 0.53069 0.01937 0.75985 0.0
Tb136 Tb 0.51505 0.52313 0.63384 0.0
C137 C 0.46742 0.51151 0.63337 0.0
Tb138 Tb 0.49565 0.49124 0.72946 0.0
O139 O 0.52654 0.49986 0.56206 0.0
O140 O 0.50154 0.49435 0.62636 0.0
O141 O 0.48241 0.52513 0.62028 0.0
C142 C 0.48732 0.45524 0.77592 0.0
O143 O 0.47019 0.49535 0.66633 0.0
C144 C 0.49496 0.52786 0.77598 0.0
C145 C 0.54319 0.50441 0.73397 0.0
O146 O 0.4767 0.47051 0.79104 0.0
O147 O 0.50272 0.46044 0.73618 0.0
O148 O 0.48247 0.51374 0.7987 0.0
O149 O 0.50839 0.52042 0.73761 0.0
O150 O 0.5282 0.491 0.74954 0.0
O151 O 0.54047 0.51967 0.69677 0.0
C152 C 0.52556 0.55774 0.57955 0.0
O153 O 0.53523 0.54172 0.56873 0.0
O154 O 0.50984 0.55417 0.61995 0.0
C155 C 0.51381 0.48619 0.58603 0.0
Tb156 Tb 0.98735 0.50438 0.63939 0.0
C157 C 0.00956 0.46643 0.65676 0.0
Tb158 Tb 0.02086 0.50598 0.74229 0.0
O159 O 0.01018 0.50211 0.55551 0.0
O160 O 0.01755 0.51644 0.64618 0.0
O161 O 0.9916 0.47313 0.64615 0.0
C162 C 0.05575 0.50279 0.80148 0.0
O163 O 0.02416 0.47774 0.68568 0.0
C164 C 0.98333 0.50126 0.79074 0.0
C165 C 0.99902 0.54491 0.72265 0.0
O166 O 0.03885 0.49242 0.81435 0.0
O167 O 0.0529 0.51537 0.75644 0.0
O168 O 0.99805 0.50999 0.82439 0.0
O169 O 0.99054 0.4941 0.73593 0.0
O170 O 0.01484 0.53718 0.74815 0.0
O171 O 0.98645 0.53483 0.6812 0.0
C172 C 0.95158 0.50367 0.58227 0.0
O173 O 0.95472 0.50934 0.64408 0.0
O174 O 0.9686 0.49874 0.55249 0.0
C175 C 0.02484 0.51032 0.59034 0.0
C176 C 0.20952 0.9907 0.32916 0.0
C177 C 0.21776 0.00895 0.30694 0.0
C178 C 0.19001 0.9891 0.36013 0.0
C179 C 0.14265 0.01632 0.39133 0.0
H180 H 0.13351 0.9812 0.5391 0.0
C181 C 0.07543 0.0208 0.58714 0.0
C182 C 0.06338 0.0031 0.59502 0.0
C183 C 0.09403 0.02077 0.55037 0.0
C184 C 0.13587 0.99095 0.49762 0.0
H185 H 0.21226 0.03991 0.29953 0.0
H186 H 0.17865 0.03741 0.35596 0.0
H187 H 0.16634 0.98268 0.4766 0.0
H188 H 0.06156 0.97143 0.57242 0.0
H189 H 0.09454 0.97135 0.50964 0.0
H190 H 0.11236 0.02516 0.41496 0.0
C191 C 0.18681 0.02409 0.34763 0.0
C192 C 0.1546 0.99173 0.4614 0.0
C193 C 0.20616 0.02558 0.31552 0.0
C194 C 0.07054 0.98529 0.56697 0.0
C195 C 0.08936 0.98522 0.53129 0.0
C196 C 0.12408 0.01579 0.4284 0.0
C197 C 0.17851 0.00585 0.37081 0.0
C198 C 0.15828 0.00448 0.40785 0.0
C199 C 0.1011 0.003 0.52195 0.0
C200 C 0.12058 0.00315 0.48191 0.0
H201 H 0.21822 0.97766 0.32283 0.0
H202 H 0.18402 0.97472 0.37589 0.0
H203 H 0.1447 0.02599 0.34962 0.0
H204 H 0.07025 0.03477 0.6078 0.0
H205 H 0.10293 0.03463 0.54414 0.0
C206 C 0.46237 0.2052 0.28456 0.0
C207 C 0.45478 0.22027 0.3277 0.0
C208 C 0.46761 0.18748 0.31045 0.0
C209 C 0.46054 0.15822 0.46462 0.0
H210 H 0.50813 0.13257 0.39015 0.0
C211 C 0.49846 0.09903 0.60303 0.0
C212 C 0.50148 0.08126 0.5659 0.0
C213 C 0.49305 0.11566 0.57107 0.0
C214 C 0.49475 0.13955 0.41109 0.0
H215 H 0.4468 0.22883 0.4311 0.0
H216 H 0.45653 0.19844 0.47658 0.0
H217 H 0.49762 0.16209 0.33925 0.0
H218 H 0.50189 0.06698 0.46631 0.0
H219 H 0.49292 0.09631 0.41001 0.0
H220 H 0.45816 0.13602 0.5378 0.0
C221 C 0.45794 0.19983 0.42271 0.0
C222 C 0.48862 0.15639 0.38178 0.0
C223 C 0.45249 0.21735 0.39677 0.0
C224 C 0.49967 0.08055 0.49599 0.0
C225 C 0.49459 0.09729 0.46382 0.0
C226 C 0.46686 0.14162 0.49443 0.0
C227 C 0.46554 0.18461 0.38 0.0
C228 C 0.47153 0.16606 0.40857 0.0
C229 C 0.49088 0.11488 0.50129 0.0
C230 C 0.48409 0.13222 0.46829 0.0
H231 H 0.46421 0.20704 0.23096 0.0
H232 H 0.47313 0.176 0.27589 0.0
H233 H 0.44701 0.1649 0.48568 0.0
H234 H 0.49971 0.09994 0.65702 0.0
H235 H 0.49045 0.12912 0.60095 0.0
C236 C 0.30843 0.53739 0.36414 0.0
C237 C 0.30059 0.52043 0.32888 0.0
C238 C 0.32702 0.53732 0.39481 0.0
C239 C 0.37299 0.50808 0.40203 0.0
H240 H 0.3789 0.53759 0.57225 0.0
C241 C 0.43543 0.49612 0.58618 0.0
C242 C 0.44775 0.5132 0.60282 0.0
C243 C 0.41756 0.49756 0.5525 0.0
C244 C 0.37743 0.52938 0.52459 0.0
H245 H 0.30581 0.49 0.29809 0.0
H246 H 0.33771 0.48951 0.35385 0.0
H247 H 0.34766 0.53897 0.51254 0.0
H248 H 0.45078 0.54518 0.59938 0.0
H249 H 0.41904 0.5477 0.54224 0.0
H250 H 0.40252 0.49785 0.41629 0.0
C251 C 0.33004 0.50317 0.35607 0.0
C252 C 0.35963 0.53025 0.48997 0.0
C253 C 0.31166 0.50339 0.32429 0.0
C254 C 0.44157 0.53178 0.58695 0.0
C255 C 0.42346 0.53325 0.55453 0.0
C256 C 0.39059 0.5069 0.43737 0.0
C257 C 0.33794 0.52011 0.39211 0.0
C258 C 0.35715 0.5196 0.42818 0.0
C259 C 0.4115 0.51612 0.5362 0.0
C260 C 0.39293 0.51753 0.49887 0.0
H261 H 0.30013 0.55071 0.36814 0.0
H262 H 0.33277 0.55079 0.42075 0.0
H263 H 0.37191 0.50002 0.35402 0.0
H264 H 0.4399 0.48159 0.59739 0.0
H265 H 0.40847 0.48418 0.53908 0.0
C266 C 0.04107 0.30637 0.37228 0.0
C267 C 0.05638 0.29616 0.39932 0.0
C268 C 0.03584 0.32467 0.401 0.0
C269 C 0.05538 0.36732 0.50309 0.0
H270 H 0.99843 0.37601 0.5454 0.0
C271 C 0.03122 0.43741 0.65259 0.0
C272 C 0.01385 0.44611 0.63269 0.0
C273 C 0.03604 0.41873 0.62628 0.0
C274 C 0.01438 0.37395 0.53313 0.0
H275 H 0.07837 0.29698 0.47659 0.0
H276 H 0.06948 0.3292 0.52616 0.0
H277 H 0.00786 0.34451 0.4924 0.0
H278 H 0.98784 0.44201 0.56986 0.0
H279 H 0.9965 0.40972 0.52267 0.0
H280 H 0.06198 0.39683 0.54207 0.0
C281 C 0.06153 0.32305 0.48294 0.0
C282 C 0.01976 0.35589 0.50292 0.0
C283 C 0.06656 0.30464 0.45478 0.0
C284 C 0.00124 0.43563 0.5867 0.0
C285 C 0.00618 0.41705 0.55981 0.0
C286 C 0.05 0.38547 0.53255 0.0
C287 C 0.04601 0.33316 0.45665 0.0
C288 C 0.0403 0.3524 0.48778 0.0
C289 C 0.02373 0.40843 0.57883 0.0
C290 C 0.02944 0.38901 0.54812 0.0
H291 H 0.0329 0.30012 0.32967 0.0
H292 H 0.02392 0.33226 0.37951 0.0
H293 H 0.07132 0.36506 0.49124 0.0
H294 H 0.0412 0.44506 0.68826 0.0
H295 H 0.04945 0.41239 0.64315 0.0
C296 C 0.80065 0.98204 0.05516 0.0
C297 C 0.7881 0.96864 0.01734 0.0
C298 C 0.81947 0.98935 0.02777 0.0
C299 C 0.84758 0.99632 0.86484 0.0
H300 H 0.89591 0.99763 0.96854 0.0
C301 C 0.928 0.99607 0.74309 0.0
C302 C 0.94395 0.00753 0.77301 0.0
C303 C 0.90857 0.99478 0.77422 0.0
C304 C 0.8825 0.99772 0.93936 0.0
H305 H 0.78529 0.95223 0.92209 0.0
H306 H 0.81819 0.96478 0.87444 0.0
H307 H 0.86265 0.98831 0.02169 0.0
H308 H 0.95189 0.02707 0.85837 0.0
H309 H 0.91773 0.02468 0.91329 0.0
H310 H 0.86745 0.00519 0.78207 0.0
C311 C 0.81344 0.9699 0.92473 0.0
C312 C 0.86346 0.99234 0.96974 0.0
C313 C 0.7947 0.96258 0.95213 0.0
C314 C 0.9399 0.01812 0.83407 0.0
C315 C 0.92041 0.01668 0.86566 0.0
C316 C 0.86657 0.00166 0.83454 0.0
C317 C 0.82598 0.98346 0.96205 0.0
C318 C 0.84588 0.99112 0.93227 0.0
C319 C 0.90461 0.00484 0.83622 0.0
C320 C 0.88428 0.00194 0.871 0.0
H321 H 0.79591 0.98701 0.10561 0.0
H322 H 0.82877 0.99985 0.05758 0.0
H323 H 0.83424 0.99595 0.8351 0.0
H324 H 0.93056 0.9878 0.69589 0.0
H325 H 0.8968 0.98534 0.75067 0.0
C326 C 0.55692 0.79473 0.93552 0.0
C327 C 0.55825 0.79194 0.00429 0.0
C328 C 0.55067 0.8125 0.91366 0.0
C329 C 0.54701 0.86496 0.95786 0.0
H330 H 0.50387 0.86129 0.83172 0.0
C331 C 0.51346 0.93479 0.86423 0.0
C332 C 0.5089 0.93434 0.79623 0.0
C333 C 0.51835 0.91753 0.89378 0.0
C334 C 0.5161 0.86262 0.86624 0.0
H335 H 0.55482 0.80572 0.10429 0.0
H336 H 0.54425 0.83709 0.06573 0.0
H337 H 0.51562 0.83123 0.87453 0.0
H338 H 0.50577 0.91565 0.70569 0.0
H339 H 0.51482 0.88572 0.75626 0.0
H340 H 0.54806 0.89628 0.94797 0.0
C341 C 0.54788 0.82541 0.02892 0.0
C342 C 0.52275 0.84538 0.89094 0.0
C343 C 0.55387 0.80748 0.05092 0.0
C344 C 0.50906 0.91636 0.75842 0.0
C345 C 0.51414 0.89917 0.78765 0.0
C346 C 0.54054 0.88224 0.93243 0.0
C347 C 0.54589 0.82793 0.96014 0.0
C348 C 0.53838 0.84637 0.93648 0.0
C349 C 0.51897 0.89953 0.85565 0.0
C350 C 0.52512 0.88128 0.88576 0.0
H351 H 0.56024 0.78297 0.89864 0.0
H352 H 0.5495 0.81416 0.8603 0.0
H353 H 0.55917 0.86609 0.99267 0.0
H354 H 0.51343 0.94851 0.89446 0.0
H355 H 0.52165 0.91834 0.94647 0.0
C356 C 0.70299 0.54394 0.99765 0.0
C357 C 0.70781 0.53316 0.05216 0.0
C358 C 0.68522 0.53892 0.96381 0.0
C359 C 0.63459 0.51296 0.97928 0.0
H360 H 0.639 0.51155 0.78454 0.0
C361 C 0.56548 0.49111 0.81741 0.0
C362 C 0.56295 0.50392 0.76561 0.0
C363 C 0.58365 0.4922 0.85125 0.0
C364 C 0.6375 0.51196 0.83889 0.0
H365 H 0.69759 0.50904 0.11574 0.0
H366 H 0.66642 0.5003 0.05664 0.0
H367 H 0.66938 0.51913 0.84817 0.0
H368 H 0.57785 0.52735 0.70693 0.0
H369 H 0.60923 0.52932 0.76596 0.0
H370 H 0.60261 0.50622 0.96994 0.0
C371 C 0.67639 0.51264 0.04008 0.0
C372 C 0.65488 0.51634 0.8753 0.0
C373 C 0.69425 0.51762 0.07376 0.0
C374 C 0.57921 0.5173 0.74676 0.0
C375 C 0.59731 0.51834 0.78032 0.0
C376 C 0.61716 0.50864 0.94279 0.0
C377 C 0.67189 0.52304 0.98406 0.0
C378 C 0.65356 0.51722 0.94585 0.0
C379 C 0.59965 0.50602 0.83357 0.0
C380 C 0.61838 0.50844 0.8722 0.0
H381 H 0.7132 0.55601 0.9802 0.0
H382 H 0.68196 0.54742 0.92154 0.0
H383 H 0.63312 0.51363 0.03364 0.0
H384 H 0.55326 0.4806 0.83308 0.0
H385 H 0.5851 0.48236 0.89163 0.0
C386 C 0.95893 0.70638 0.976 0.0
C387 C 0.94909 0.71868 0.93522 0.0
C388 C 0.96367 0.68744 0.95233 0.0
C389 C 0.97103 0.65737 0.79376 0.0
H390 H 0.96984 0.61417 0.91446 0.0
C391 C 0.98131 0.57574 0.70641 0.0
C392 C 0.99466 0.56552 0.74285 0.0
C393 C 0.97595 0.59465 0.72835 0.0
C394 C 0.97038 0.62616 0.88037 0.0
H395 H 0.93596 0.72077 0.83883 0.0
H396 H 0.94358 0.68737 0.79804 0.0
H397 H 0.95868 0.64626 0.95636 0.0
H398 H 0.01296 0.56719 0.83057 0.0
H399 H 0.0034 0.6002 0.86915 0.0
H400 H 0.98234 0.63698 0.7175 0.0
C401 C 0.94813 0.69249 0.84763 0.0
C402 C 0.96404 0.64456 0.90431 0.0
C403 C 0.94359 0.71154 0.87111 0.0
C404 C 0.00275 0.57472 0.80114 0.0
C405 C 0.99716 0.59353 0.82356 0.0
C406 C 0.97714 0.63889 0.76966 0.0
C407 C 0.95849 0.6803 0.88761 0.0
C408 C 0.96442 0.66046 0.86144 0.0
C409 C 0.98359 0.6036 0.78764 0.0
C410 C 0.97701 0.62316 0.81288 0.0
H411 H 0.96352 0.71154 0.02553 0.0
H412 H 0.97193 0.67863 0.98416 0.0
H413 H 0.97189 0.66934 0.75956 0.0
H414 H 0.97482 0.56905 0.66128 0.0
H415 H 0.96537 0.60207 0.69996 0.0
C416 C 0.03024 0.19814 0.4143 0.0
C417 C 0.04715 0.19778 0.36846 0.0
C418 C 0.02441 0.1816 0.45174 0.0
C419 C 0.00737 0.13978 0.48111 0.0
H420 H 0.04748 0.10564 0.53805 0.0
C421 C 0.98861 0.05697 0.53532 0.0
C422 C -6e-05 0.04874 0.5833 0.0
C423 C 0.99309 0.07662 0.51773 0.0
C424 C 0.03594 0.11507 0.52374 0.0
H425 H 0.07199 0.18053 0.32907 0.0
H426 H 0.06172 0.1517 0.39278 0.0
H427 H 0.05844 0.13798 0.49907 0.0
H428 H 0.02469 0.05457 0.65061 0.0
H429 H 0.03126 0.08879 0.62474 0.0
H430 H 0.9848 0.11689 0.5075 0.0
C431 C 0.05297 0.16465 0.40071 0.0
C432 C 0.04232 0.13358 0.50036 0.0
C433 C 0.05879 0.18112 0.36366 0.0
C434 C 0.01536 0.06056 0.61452 0.0
C435 C 0.01943 0.08018 0.59857 0.0
C436 C 0.00092 0.12128 0.50549 0.0
C437 C 0.03544 0.16447 0.44403 0.0
C438 C 0.02821 0.14599 0.47726 0.0
C439 C 0.0088 0.08837 0.54858 0.0
C440 C 0.01518 0.10856 0.52617 0.0
H441 H 0.02094 0.21077 0.41868 0.0
H442 H 0.01101 0.18204 0.48545 0.0
H443 H 0.99609 0.1489 0.46312 0.0
H444 H 0.97672 0.04811 0.51019 0.0
H445 H 0.98472 0.08235 0.47845 0.0
C446 C 0.31536 0.01634 0.36489 0.0
C447 C 0.31349 0.03577 0.34592 0.0
C448 C 0.33181 0.0119 0.40169 0.0
C449 C 0.37336 0.0319 0.5053 0.0
H450 H 0.40528 0.99308 0.40615 0.0
C451 C 0.45552 0.02067 0.57221 0.0
C452 C 0.46186 0.00127 0.56854 0.0
C453 C 0.43716 0.02485 0.5457 0.0
C454 C 0.39646 0.00369 0.43527 0.0
H455 H 0.32616 0.06602 0.35459 0.0
H456 H 0.35468 0.05834 0.4208 0.0
H457 H 0.37198 0.9998 0.36839 0.0
H458 H 0.45432 0.97111 0.53296 0.0
H459 H 0.42197 0.97818 0.48867 0.0
H460 H 0.39756 0.0356 0.57303 0.0
C461 C 0.34356 0.04656 0.40678 0.0
C462 C 0.37738 0.00753 0.41354 0.0
C463 C 0.3273 0.05095 0.36904 0.0
C464 C 0.44986 0.98623 0.53598 0.0
C465 C 0.43132 0.99034 0.51044 0.0
C466 C 0.39232 0.02783 0.5278 0.0
C467 C 0.34641 0.02688 0.42087 0.0
C468 C 0.36574 0.02177 0.44802 0.0
C469 C 0.42456 0.00965 0.516 0.0
C470 C 0.40423 0.01381 0.49263 0.0
H471 H 0.30502 0.00437 0.34694 0.0
H472 H 0.33367 0.99663 0.41244 0.0
H473 H 0.36461 0.04293 0.5327 0.0
H474 H 0.46444 0.03253 0.59738 0.0
H475 H 0.43275 0.03998 0.54943 0.0
C476 C 0.45506 0.33397 0.30009 0.0
C477 C 0.46619 0.31699 0.29915 0.0
C478 C 0.46073 0.35066 0.33984 0.0
C479 C 0.50498 0.37518 0.42319 0.0
H480 H 0.46376 0.40955 0.49591 0.0
C481 C 0.52325 0.4574 0.50883 0.0
C482 C 0.51074 0.46547 0.56076 0.0
C483 C 0.51899 0.43797 0.48349 0.0
C484 C 0.47558 0.40006 0.47721 0.0
H485 H 0.49146 0.30384 0.34158 0.0
H486 H 0.50105 0.33297 0.41337 0.0
H487 H 0.4535 0.37748 0.4464 0.0
H488 H 0.48411 0.45958 0.62695 0.0
H489 H 0.47783 0.42568 0.58769 0.0
H490 H 0.52711 0.3977 0.45623 0.0
C491 C 0.4882 0.33347 0.38187 0.0
C492 C 0.46963 0.38171 0.44768 0.0
C493 C 0.48256 0.31671 0.34152 0.0
C494 C 0.49432 0.4537 0.58789 0.0
C495 C 0.49045 0.43428 0.56427 0.0
C496 C 0.511 0.39352 0.45385 0.0
C497 C 0.47755 0.35076 0.38056 0.0
C498 C 0.48419 0.3692 0.41895 0.0
C499 C 0.50232 0.42627 0.51046 0.0
C500 C 0.49634 0.40631 0.48049 0.0
H501 H 0.44221 0.33453 0.26858 0.0
H502 H 0.4523 0.36374 0.33668 0.0
H503 H 0.51662 0.36598 0.40104 0.0
H504 H 0.53593 0.46623 0.48674 0.0
H505 H 0.52835 0.43239 0.4415 0.0
C506 C 0.18955 0.475 0.36114 0.0
C507 C 0.2045 0.49067 0.35539 0.0
C508 C 0.17285 0.47661 0.40638 0.0
C509 C 0.14284 0.51585 0.48597 0.0
H510 H 0.10986 0.47096 0.55374 0.0
C511 C 0.06112 0.52191 0.60396 0.0
C512 C 0.04667 0.50853 0.5743 0.0
C513 C 0.08193 0.51975 0.59108 0.0
C514 C 0.11898 0.48363 0.53532 0.0
H515 H 0.2147 0.51952 0.3972 0.0
H516 H 0.18583 0.52208 0.47824 0.0
H517 H 0.14502 0.46677 0.5134 0.0
H518 H 0.04236 0.48233 0.50871 0.0
H519 H 0.07881 0.47847 0.48619 0.0
H520 H 0.11663 0.5326 0.50738 0.0
C521 C 0.18671 0.50878 0.44616 0.0
C522 C 0.13909 0.48125 0.5121 0.0
C523 C 0.20339 0.50722 0.40034 0.0
C524 C 0.05327 0.49292 0.53169 0.0
C525 C 0.07406 0.49058 0.51954 0.0
C526 C 0.12284 0.51827 0.5101 0.0
C527 C 0.17078 0.49386 0.44761 0.0
C528 C 0.15104 0.49717 0.48483 0.0
C529 C 0.08857 0.50401 0.54899 0.0
C530 C 0.11054 0.50204 0.53286 0.0
H531 H 0.1902 0.46189 0.32793 0.0
H532 H 0.16092 0.46483 0.40554 0.0
H533 H 0.1514 0.52839 0.46456 0.0
H534 H 0.0563 0.5341 0.63683 0.0
H535 H 0.09282 0.53028 0.61432 0.0
C536 C 0.97575 0.81634 0.90885 0.0
C537 C 0.98712 0.80967 0.95979 0.0
C538 C 0.98316 0.83262 0.8725 0.0
C539 C 0.01601 0.87738 0.90316 0.0
H540 H 0.00261 0.88925 0.72323 0.0
C541 C 0.03029 0.95595 0.80909 0.0
C542 C 0.01392 0.9631 0.77745 0.0
C543 C 0.03068 0.93578 0.81997 0.0
C544 C 0.00645 0.88613 0.7736 0.0
H545 H 0.01586 0.81323 0.00836 0.0
H546 H 0.02917 0.84123 0.94348 0.0
H547 H 0.99741 0.85529 0.7597 0.0
H548 H 0.98529 0.95494 0.73131 0.0
H549 H 0.98579 0.9198 0.751 0.0
H550 H 0.02431 0.90816 0.91828 0.0
C551 C 0.01429 0.83437 0.93282 0.0
C552 C 0.0035 0.86669 0.79441 0.0
C553 C 0.00677 0.81827 0.96959 0.0
C554 C 0.99817 0.94976 0.75552 0.0
C555 C 0.99853 0.92961 0.76638 0.0
C556 C 0.01896 0.89672 0.88242 0.0
C557 C 0.00214 0.84237 0.88633 0.0
C558 C 0.00788 0.86218 0.85995 0.0
C559 C 0.01465 0.92242 0.79963 0.0
C560 C 0.01381 0.90142 0.81795 0.0
H561 H 0.96048 0.80998 0.90083 0.0
H562 H 0.97336 0.83844 0.83734 0.0
H563 H 0.01914 0.87458 0.95447 0.0
H564 H 0.0427 0.96595 0.82593 0.0
H565 H 0.04343 0.93067 0.84501 0.0
C566 C 0.68911 0.98011 0.00403 0.0
C567 C 0.68684 0.96621 0.05423 0.0
C568 C 0.67238 0.98444 0.96816 0.0
C569 C 0.61829 0.96783 0.93621 0.0
H570 H 0.61452 0.0232 0.90169 0.0
C571 C 0.55401 0.99385 0.78595 0.0
C572 C 0.54681 0.01271 0.80036 0.0
C573 C 0.57065 0.98782 0.81802 0.0
C574 C 0.61515 0.00773 0.91193 0.0
H575 H 0.66568 0.94477 0.10214 0.0
H576 H 0.63648 0.95285 0.04222 0.0
H577 H 0.6448 0.01265 0.9506 0.0
H578 H 0.55081 0.03979 0.86157 0.0
H579 H 0.57961 0.02895 0.92034 0.0
H580 H 0.58822 0.96305 0.90124 0.0
C581 C 0.65111 0.96032 0.02952 0.0
C582 C 0.63276 0.00158 0.93869 0.0
C583 C 0.66785 0.9558 0.06455 0.0
C584 C 0.55612 0.0252 0.8495 0.0
C585 C 0.57272 0.01904 0.88253 0.0
C586 C 0.60057 0.97402 0.9106 0.0
C587 C 0.653 0.97512 0.98222 0.0
C588 C 0.6346 0.98152 0.95097 0.0
C589 C 0.58038 0.00035 0.86636 0.0
C590 C 0.59881 0.99403 0.89758 0.0
H591 H 0.7035 0.98845 0.99496 0.0
H592 H 0.67455 0.99554 0.93082 0.0
H593 H 0.61916 0.95224 0.9442 0.0
H594 H 0.54724 0.98388 0.74808 0.0
H595 H 0.57624 0.97353 0.80303 0.0
C596 C 0.53491 0.69522 0.97587 0.0
C597 C 0.52425 0.70139 0.03504 0.0
C598 C 0.52751 0.6787 0.93768 0.0
C599 C 0.49577 0.63291 0.96513 0.0
H600 H 0.50688 0.62299 0.77421 0.0
C601 C 0.47864 0.55605 0.8377 0.0
C602 C 0.49479 0.54897 0.79687 0.0
C603 C 0.47891 0.576 0.85924 0.0
C604 C 0.50366 0.62559 0.82759 0.0
H605 H 0.49678 0.69649 0.09782 0.0
H606 H 0.4834 0.66811 0.02991 0.0
H607 H 0.51253 0.6565 0.8237 0.0
H608 H 0.5238 0.55703 0.74594 0.0
H609 H 0.52427 0.59183 0.78323 0.0
H610 H 0.48736 0.60201 0.96943 0.0
C611 C 0.49778 0.67552 0.01398 0.0
C612 C 0.50692 0.64475 0.85594 0.0
C613 C 0.50532 0.69184 0.05257 0.0
C614 C 0.51103 0.56217 0.77683 0.0
C615 C 0.51126 0.58211 0.79794 0.0
C616 C 0.49241 0.61384 0.93677 0.0
C617 C 0.50922 0.6682 0.95778 0.0
C618 C 0.50338 0.64856 0.92535 0.0
C619 C 0.49533 0.58919 0.84009 0.0
C620 C 0.4967 0.60988 0.868 0.0
H621 H 0.54963 0.70231 0.96177 0.0
H622 H 0.53682 0.67342 0.89505 0.0
H623 H 0.49329 0.63513 0.01896 0.0
H624 H 0.4659 0.54615 0.85355 0.0
H625 H 0.46636 0.58108 0.89133 0.0
C626 C 0.80917 0.49844 0.97538 0.0
C627 C 0.8016 0.51548 0.00762 0.0
C628 C 0.82638 0.49994 0.93161 0.0
C629 C 0.87321 0.52873 0.92803 0.0
H630 H 0.88606 0.49993 0.76022 0.0
C631 C 0.95643 0.52314 0.83467 0.0
C632 C 0.96178 0.50508 0.80379 0.0
C633 C 0.93599 0.52712 0.84571 0.0
C634 C 0.88278 0.5079 0.80746 0.0
H635 H 0.80501 0.54743 0.01708 0.0
H636 H 0.83551 0.55008 0.94137 0.0
H637 H 0.85048 0.50202 0.80017 0.0
H638 H 0.9503 0.47712 0.75907 0.0
H639 H 0.91448 0.48335 0.78249 0.0
H640 H 0.90513 0.53332 0.93924 0.0
C641 C 0.82795 0.53564 0.94907 0.0
C642 C 0.86239 0.50928 0.82976 0.0
C643 C 0.81052 0.53414 0.99196 0.0
C644 C 0.94643 0.4911 0.7835 0.0
C645 C 0.92592 0.49485 0.79611 0.0
C646 C 0.89351 0.527 0.90667 0.0
C647 C 0.83647 0.51849 0.92071 0.0
C648 C 0.85748 0.51949 0.89072 0.0
C649 C 0.9204 0.51287 0.82797 0.0
C650 C 0.89865 0.51628 0.84666 0.0
H651 H 0.80258 0.48391 0.98756 0.0
H652 H 0.83278 0.4865 0.91093 0.0
H653 H 0.86984 0.53635 0.97593 0.0
H654 H 0.96808 0.53435 0.84931 0.0
H655 H 0.93247 0.5414 0.86844 0.0
C656 C 0.0728 0.20182 0.11144 0.0
C657 C 0.058 0.21515 0.13157 0.0
C658 C 0.0705 0.18956 0.05385 0.0
C659 C 0.02759 0.16547 0.96755 0.0
H660 H 0.07032 0.13791 0.86909 0.0
C661 C 0.01105 0.09221 0.81451 0.0
C662 C 0.02372 0.07709 0.82708 0.0
C663 C 0.01591 0.11168 0.83723 0.0
C664 C 0.05823 0.1455 0.89617 0.0
H665 H 0.03053 0.22788 0.10394 0.0
H666 H 0.0267 0.20676 0.00166 0.0
H667 H 0.0786 0.16978 0.92717 0.0
H668 H 0.05153 0.07034 0.87212 0.0
H669 H 0.05999 0.1044 0.91258 0.0
H670 H 0.00736 0.14095 0.93824 0.0
C671 C 0.03985 0.20544 0.03119 0.0
C672 C 0.06294 0.16377 0.92925 0.0
C673 C 0.04216 0.21772 0.08914 0.0
C674 C 0.04145 0.08174 0.86219 0.0
C675 C 0.04639 0.10125 0.88461 0.0
C676 C 0.02287 0.14731 0.93406 0.0
C677 C 0.05332 0.19041 0.01524 0.0
C678 C 0.0478 0.17363 0.96737 0.0
C679 C 0.03363 0.1164 0.87254 0.0
C680 C 0.03825 0.13684 0.89993 0.0
H681 H 0.08513 0.19961 0.14367 0.0
H682 H 0.08116 0.17817 0.04359 0.0
H683 H 0.01556 0.17239 0.99724 0.0
H684 H 0.99738 0.08903 0.78688 0.0
H685 H 0.00587 0.12306 0.82686 0.0
C686 C 0.32151 0.06621 0.10046 0.0
C687 C 0.3082 0.04944 0.10973 0.0
C688 C 0.33752 0.06567 0.05185 0.0
C689 C 0.36189 0.03326 0.91664 0.0
H690 H 0.41147 0.05524 0.99618 0.0
C691 C 0.44166 0.0067 0.83857 0.0
C692 C 0.4564 0.02178 0.82171 0.0
C693 C 0.42299 0.01142 0.86981 0.0
C694 C 0.39774 0.04915 0.97315 0.0
H695 H 0.29988 0.0197 0.07213 0.0
H696 H 0.32796 0.01844 0.98866 0.0
H697 H 0.37863 0.06259 0.04922 0.0
H698 H 0.46368 0.05347 0.82699 0.0
H699 H 0.43133 0.06162 0.88351 0.0
H700 H 0.38137 0.01903 0.84238 0.0
C701 C 0.32603 0.0322 0.01745 0.0
C702 C 0.37885 0.05353 0.00301 0.0
C703 C 0.30982 0.0329 0.06523 0.0
C704 C 0.45257 0.04155 0.83951 0.0
C705 C 0.43409 0.04622 0.87173 0.0
C706 C 0.38083 0.02864 0.88736 0.0
C707 C 0.34075 0.04817 0.01285 0.0
C708 C 0.36064 0.04548 0.97561 0.0
C709 C 0.41896 0.03124 0.88572 0.0
C710 C 0.3989 0.03639 0.91583 0.0
H711 H 0.32052 0.07912 0.13445 0.0
H712 H 0.34816 0.07849 0.04817 0.0
H713 H 0.34824 0.02702 0.89354 0.0
H714 H 0.44414 0.99136 0.8248 0.0
H715 H 0.41161 0.9996 0.88087 0.0
C716 C 0.43599 0.30832 0.0559 0.0
C717 C 0.45148 0.29567 0.06585 0.0
C718 C 0.43764 0.32083 0.00223 0.0
C719 C 0.47973 0.34668 0.90959 0.0
H720 H 0.43599 0.37354 0.83794 0.0
C721 C 0.49484 0.41971 0.77422 0.0
C722 C 0.48216 0.43483 0.79613 0.0
C723 C 0.49009 0.40027 0.79248 0.0
C724 C 0.44835 0.36616 0.85759 0.0
H725 H 0.47951 0.28432 0.02376 0.0
H726 H 0.48209 0.30564 0.92789 0.0
H727 H 0.42859 0.34151 0.88793 0.0
H728 H 0.45435 0.44153 0.85289 0.0
H729 H 0.44608 0.40748 0.88555 0.0
H730 H 0.49938 0.37151 0.88086 0.0
C731 C 0.46893 0.30635 0.96258 0.0
C732 C 0.44414 0.3478 0.88607 0.0
C733 C 0.46732 0.29388 0.01673 0.0
C734 C 0.46443 0.43014 0.83569 0.0
C735 C 0.45962 0.41064 0.85376 0.0
C736 C 0.48394 0.36492 0.88067 0.0
C737 C 0.45482 0.32089 0.95734 0.0
C738 C 0.45969 0.3381 0.91433 0.0
C739 C 0.47249 0.39552 0.83277 0.0
C740 C 0.46822 0.37513 0.85608 0.0
H741 H 0.42373 0.31003 0.09366 0.0
H742 H 0.42647 0.33179 0.00028 0.0
H743 H 0.49207 0.33996 0.93192 0.0
H744 H 0.5085 0.4229 0.74302 0.0
H745 H 0.50021 0.38893 0.77504 0.0
C746 C 0.21627 0.49869 0.06642 0.0
C747 C 0.21679 0.48298 0.10942 0.0
C748 C 0.20205 0.49783 0.01644 0.0
C749 C 0.15052 0.4773 0.00412 0.0
H750 H 0.15261 0.49927 0.82809 0.0
C751 C 0.07741 0.48234 0.86467 0.0
C752 C 0.07547 0.4993 0.82874 0.0
C753 C 0.09612 0.47851 0.88923 0.0
C754 C 0.15177 0.49325 0.87748 0.0
H755 H 0.2049 0.45321 0.1292 0.0
H756 H 0.18033 0.45153 0.04121 0.0
H757 H 0.18436 0.4948 0.88284 0.0
H758 H 0.09146 0.52547 0.78918 0.0
H759 H 0.1241 0.51933 0.83493 0.0
H760 H 0.11821 0.47665 0.0014 0.0
C761 C 0.19054 0.46464 0.04676 0.0
C762 C 0.16995 0.49056 0.90845 0.0
C763 C 0.20467 0.46553 0.09669 0.0
C764 C 0.09259 0.51234 0.81723 0.0
C765 C 0.11132 0.50868 0.84277 0.0
C766 C 0.13246 0.4802 0.97377 0.0
C767 C 0.18824 0.48124 0.00906 0.0
C768 C 0.16946 0.48256 0.97213 0.0
C769 C 0.11328 0.49175 0.87948 0.0
C770 C 0.13278 0.48825 0.91013 0.0
H771 H 0.22538 0.51236 0.07575 0.0
H772 H 0.20059 0.51084 0.98812 0.0
H773 H 0.14962 0.47163 0.05406 0.0
H774 H 0.06449 0.47187 0.87323 0.0
H775 H 0.09712 0.46509 0.91578 0.0
C776 C 0.98055 0.80565 0.23115 0.0
C777 C 0.9632 0.8003 0.19479 0.0
C778 C 0.97931 0.81875 0.2872 0.0
C779 C 0.95254 0.86182 0.33523 0.0
H780 H 0.98166 0.86222 0.49927 0.0
C781 C 0.96277 0.93299 0.50294 0.0
C782 C 0.98178 0.93673 0.53121 0.0
C783 C 0.9575 0.91445 0.47271 0.0
C784 C 0.97359 0.86241 0.45342 0.0
H785 H 0.93081 0.80327 0.18994 0.0
H786 H 0.92864 0.82648 0.28791 0.0
H787 H 0.97734 0.83158 0.43026 0.0
H788 H 0.01015 0.92419 0.55091 0.0
H789 H 0.00149 0.89217 0.49536 0.0
H790 H 0.94992 0.89275 0.35504 0.0
C791 C 0.94311 0.8204 0.27348 0.0
C792 C 0.97096 0.84481 0.41438 0.0
C793 C 0.9443 0.80704 0.21796 0.0
C794 C 0.9954 0.92165 0.52925 0.0
C795 C 0.99029 0.90321 0.49811 0.0
C796 C 0.95543 0.87945 0.37358 0.0
C797 C 0.96077 0.82696 0.30689 0.0
C798 C 0.96072 0.84445 0.35431 0.0
C799 C 0.97128 0.89937 0.46918 0.0
C800 C 0.96637 0.8801 0.43248 0.0
H801 H 0.9953 0.80076 0.21343 0.0
H802 H 0.99319 0.82369 0.31161 0.0
H803 H 0.94491 0.86205 0.28847 0.0
H804 H 0.95189 0.94433 0.50467 0.0
H805 H 0.94259 0.91197 0.45219 0.0
C806 C 0.70548 0.98752 0.31804 0.0
C807 C 0.70586 0.96825 0.28936 0.0
C808 C 0.69095 0.99193 0.36909 0.0
C809 C 0.64847 0.9714 0.47961 0.0
H810 H 0.61788 0.01053 0.40027 0.0
C811 C 0.56289 0.97723 0.54335 0.0
C812 C 0.55543 0.9962 0.55023 0.0
C813 C 0.58273 0.97468 0.51779 0.0
C814 C 0.6263 0.99986 0.42413 0.0
H815 H 0.69347 0.93805 0.29627 0.0
H816 H 0.66841 0.94558 0.38649 0.0
H817 H 0.65238 0.00525 0.35802 0.0
H818 H 0.56273 0.02731 0.53365 0.0
H819 H 0.59734 0.02294 0.49024 0.0
H820 H 0.62224 0.96586 0.54531 0.0
C821 C 0.67915 0.95733 0.36985 0.0
C822 C 0.64616 0.99689 0.40005 0.0
C823 C 0.69357 0.95296 0.31848 0.0
C824 C 0.56792 0.01246 0.52836 0.0
C825 C 0.58784 0.00994 0.50355 0.0
C826 C 0.62863 0.97454 0.50434 0.0
C827 C 0.67676 0.97707 0.39206 0.0
C828 C 0.65732 0.98239 0.42665 0.0
C829 C 0.59563 0.99107 0.4992 0.0
C830 C 0.61715 0.98852 0.47587 0.0
H831 H 0.71468 0.99955 0.29562 0.0
H832 H 0.68957 0.00723 0.38607 0.0
H833 H 0.65675 0.96012 0.5009 0.0
H834 H 0.55361 0.96439 0.55952 0.0
H835 H 0.58802 0.95987 0.51337 0.0
C836 C 0.53542 0.71039 0.30534 0.0
C837 C 0.55173 0.71429 0.2589 0.0
C838 C 0.53715 0.69699 0.35541 0.0
C839 C 0.56153 0.65147 0.36939 0.0
H840 H 0.53597 0.65193 0.54873 0.0
C841 C 0.55045 0.58012 0.51609 0.0
C842 C 0.53175 0.57714 0.55219 0.0
C843 C 0.55624 0.59854 0.49009 0.0
C844 C 0.54306 0.65151 0.49855 0.0
H845 H 0.58293 0.70843 0.23018 0.0
H846 H 0.58604 0.68494 0.31799 0.0
H847 H 0.54091 0.6827 0.48946 0.0
H848 H 0.50452 0.59098 0.59044 0.0
H849 H 0.51416 0.62288 0.54305 0.0
H850 H 0.56263 0.62025 0.37616 0.0
C851 C 0.57198 0.69228 0.31599 0.0
C852 C 0.54603 0.66917 0.46493 0.0
C853 C 0.57031 0.70586 0.26635 0.0
C854 C 0.51902 0.59291 0.5626 0.0
C855 C 0.52469 0.61126 0.53603 0.0
C856 C 0.55837 0.6338 0.40259 0.0
C857 C 0.5551 0.68705 0.359 0.0
C858 C 0.55494 0.66925 0.39948 0.0
C859 C 0.54333 0.61431 0.49907 0.0
C860 C 0.54868 0.63349 0.46706 0.0
H861 H 0.52084 0.71647 0.29948 0.0
H862 H 0.52382 0.69315 0.38737 0.0
H863 H 0.5681 0.65097 0.31849 0.0
H864 H 0.56063 0.56822 0.50802 0.0
H865 H 0.57084 0.60039 0.46292 0.0
C866 C 0.79265 0.51289 0.3028 0.0
C867 C 0.79183 0.49976 0.2461 0.0
C868 C 0.80658 0.51053 0.35207 0.0
C869 C 0.85737 0.49664 0.34867 0.0
H870 H 0.85439 0.49713 0.54322 0.0
C871 C 0.92957 0.49103 0.49046 0.0
C872 C 0.93173 0.50196 0.55136 0.0
C873 C 0.91089 0.48924 0.46027 0.0
C874 C 0.85548 0.49725 0.48893 0.0
H875 H 0.80291 0.47264 0.20029 0.0
H876 H 0.8273 0.46863 0.28592 0.0
H877 H 0.82289 0.49583 0.48191 0.0
H878 H 0.91613 0.51931 0.6296 0.0
H879 H 0.88355 0.5171 0.57502 0.0
H880 H 0.88961 0.49913 0.35424 0.0
C881 C 0.81736 0.48077 0.29205 0.0
C882 C 0.83746 0.49635 0.45406 0.0
C883 C 0.80344 0.48306 0.24321 0.0
C884 C 0.91481 0.5109 0.58225 0.0
C885 C 0.89613 0.50946 0.55127 0.0
C886 C 0.87526 0.49792 0.3832 0.0
C887 C 0.81979 0.49505 0.34485 0.0
C888 C 0.83834 0.49576 0.38362 0.0
C889 C 0.89401 0.49876 0.48943 0.0
C890 C 0.87463 0.49796 0.45375 0.0
H891 H 0.78393 0.52593 0.30594 0.0
H892 H 0.80828 0.52174 0.39234 0.0
H893 H 0.85841 0.49672 0.2943 0.0
H894 H 0.94232 0.4837 0.46627 0.0
H895 H 0.90975 0.48036 0.41386 0.0
loop_
_geom_bond_atom_site_label_1
_geom_bond_atom_site_label_2
_geom_bond_distance
_geom_bond_site_symmetry_2
_ccdc_geom_bond_type
H0 C5 0.930 . S
H1 C8 0.930 1_556 S
H2 C10 0.930 . S
H3 C4 1.016 1_556 S
C4 H3 1.016 1_554 S
C4 N11 1.286 . S
C5 H0 0.930 . S
C5 C6 1.397 . S
C5 C7 1.361 . S
C6 C5 1.397 . S
C6 C10 1.390 . S
C7 C5 1.361 . S
C7 C8 1.393 . S
C7 N11 1.413 . S
C8 H1 0.930 1_554 S
C8 C7 1.393 . S
C8 C9 1.399 . S
C9 C8 1.399 . S
C9 C10 1.381 . S
C10 H2 0.930 . S
C10 C6 1.390 . S
C10 C9 1.381 . S
N11 C4 1.286 . S
N11 C7 1.413 . S
H12 C17 0.930 . S
H13 C20 0.930 . S
H14 C22 0.930 . S
H15 C16 1.016 . S
C16 H15 1.016 . S
C16 N23 1.286 1_556 S
C17 H12 0.930 . S
C17 C18 1.397 . S
C17 C19 1.361 . S
C18 C17 1.397 . S
C18 C22 1.390 . S
C19 C17 1.361 . S
C19 C20 1.393 1_554 S
C19 N23 1.413 . S
C20 H13 0.930 . S
C20 C19 1.393 1_556 S
C20 C21 1.399 . S
C21 C20 1.399 . S
C21 C22 1.381 1_556 S
C22 H14 0.930 . S
C22 C18 1.390 . S
C22 C21 1.381 1_554 S
N23 C16 1.286 1_554 S
N23 C19 1.413 . S
H24 C29 0.930 . S
H25 C32 0.930 1_556 S
H26 C34 0.930 . S
H27 C28 1.016 1_556 S
C28 H27 1.016 1_554 S
C28 N35 1.286 . S
C29 H24 0.930 . S
C29 C30 1.397 . S
C29 C31 1.361 . S
C30 C29 1.397 . S
C30 C34 1.390 . S
C31 C29 1.361 . S
C31 C32 1.393 . S
C31 N35 1.413 . S
C32 H25 0.930 1_554 S
C32 C31 1.393 . S
C32 C33 1.399 . S
C33 C32 1.399 . S
C33 C34 1.381 . S
C34 H26 0.930 . S
C34 C30 1.390 . S
C34 C33 1.381 . S
N35 C28 1.286 . S
N35 C31 1.413 . S
H36 C41 0.930 . S
H37 C44 0.930 1_556 S
H38 C46 0.930 . S
H39 C40 1.016 1_556 S
C40 H39 1.016 1_554 S
C40 N47 1.286 . S
C41 H36 0.930 . S
C41 C42 1.397 . S
C41 C43 1.361 . S
C42 C41 1.397 . S
C42 C46 1.390 . S
C43 C41 1.361 . S
C43 C44 1.393 . S
C43 N47 1.413 . S
C44 H37 0.930 1_554 S
C44 C43 1.393 . S
C44 C45 1.399 . S
C45 C44 1.399 . S
C45 C46 1.381 . S
C46 H38 0.930 . S
C46 C42 1.390 . S
C46 C45 1.381 . S
N47 C40 1.286 . S
N47 C43 1.413 . S
H48 C53 0.930 . S
H49 C56 0.930 . S
H50 C58 0.930 . S
H51 C52 1.016 . S
C52 H51 1.016 . S
C52 N59 1.286 . S
C53 H48 0.930 . S
C53 C54 1.397 . S
C53 C55 1.361 . S
C54 C53 1.397 . S
C54 C58 1.390 . S
C55 C53 1.361 . S
C55 C56 1.393 . S
C55 N59 1.413 . S
C56 H49 0.930 . S
C56 C55 1.393 . S
C56 C57 1.399 . S
C57 C56 1.399 . S
C57 C58 1.381 . S
C58 H50 0.930 . S
C58 C54 1.390 . S
C58 C57 1.381 . S
N59 C52 1.286 . S
N59 C55 1.413 . S
H60 C65 0.930 . S
H61 C68 0.930 . S
H62 C70 0.930 . S
H63 C64 1.016 . S
C64 H63 1.016 . S
C64 N71 1.286 . S
C65 H60 0.930 . S
C65 C66 1.397 . S
C65 C67 1.361 . S
C66 C65 1.397 . S
C66 C70 1.390 . S
C67 C65 1.361 . S
C67 C68 1.393 . S
C67 N71 1.413 . S
C68 H61 0.930 . S
C68 C67 1.393 . S
C68 C69 1.399 . S
C69 C68 1.399 . S
C69 C70 1.381 . S
C70 H62 0.930 . S
C70 C66 1.390 . S
C70 C69 1.381 . S
N71 C64 1.286 . S
N71 C67 1.413 . S
H72 C77 0.930 . S
H73 C80 0.930 . S
H74 C82 0.930 . S
H75 C76 1.016 . S
C76 H75 1.016 . S
C76 N83 1.286 . S
C77 H72 0.930 . S
C77 C78 1.397 . S
C77 C79 1.361 . S
C78 C77 1.397 . S
C78 C82 1.390 . S
C79 C77 1.361 . S
C79 C80 1.393 . S
C79 N83 1.413 . S
C80 H73 0.930 . S
C80 C79 1.393 . S
C80 C81 1.399 . S
C81 C80 1.399 . S
C81 C82 1.381 . S
C82 H74 0.930 . S
C82 C78 1.390 . S
C82 C81 1.381 . S
N83 C76 1.286 . S
N83 C79 1.413 . S
H84 C89 0.930 . S
H85 C92 0.930 . S
H86 C94 0.930 . S
H87 C88 1.016 . S
C88 H87 1.016 . S
C88 N95 1.286 . S
C89 H84 0.930 . S
C89 C90 1.397 . S
C89 C91 1.361 . S
C90 C89 1.397 . S
C90 C94 1.390 . S
C91 C89 1.361 . S
C91 C92 1.393 . S
C91 N95 1.413 . S
C92 H85 0.930 . S
C92 C91 1.393 . S
C92 C93 1.399 . S
C93 C92 1.399 . S
C93 C94 1.381 . S
C94 H86 0.930 . S
C94 C90 1.390 . S
C94 C93 1.381 . S
N95 C88 1.286 . S
N95 C91 1.413 . S
Tb96 O99 2.453 1_565 S
Tb96 O100 2.596 1_665 S
Tb96 O101 2.374 1_665 S
Tb96 O109 2.343 1_655 S
Tb96 O111 2.353 1_565 S
Tb96 O113 2.427 . S
Tb96 O114 2.513 1_655 S
C97 O101 1.251 . S
C97 O103 1.263 . S
Tb98 O100 2.343 . S
Tb98 O103 2.353 . S
Tb98 O106 2.427 . S
Tb98 O107 2.513 . S
Tb98 O108 2.453 1_545 S
Tb98 O109 2.596 1_545 S
Tb98 O110 2.374 1_455 S
O99 Tb96 2.453 1_545 S
O99 C115 1.245 1_655 S
O100 Tb96 2.596 1_445 S
O100 Tb98 2.343 . S
O100 C115 1.259 . S
O101 Tb96 2.374 1_445 S
O101 C97 1.251 . S
C102 O106 1.275 . S
C102 O107 1.246 . S
O103 C97 1.263 . S
O103 Tb98 2.353 . S
C104 O108 1.245 . S
C104 O109 1.259 . S
C105 O110 1.250 . S
C105 O111 1.263 . S
O106 Tb98 2.427 . S
O106 C102 1.275 . S
O107 Tb98 2.513 . S
O107 C102 1.246 . S
O108 Tb98 2.453 1_565 S
O108 C104 1.245 . S
O109 Tb96 2.343 1_455 S
O109 Tb98 2.596 1_565 S
O109 C104 1.259 . S
O110 Tb98 2.374 1_655 S
O110 C105 1.250 . S
O111 Tb96 2.353 1_545 S
O111 C105 1.263 . S
C112 O113 1.275 . S
C112 O114 1.246 1_655 S
O113 Tb96 2.427 . S
O113 C112 1.275 . S
O114 Tb96 2.513 1_455 S
O114 C112 1.246 1_455 S
C115 O99 1.245 1_455 S
C115 O100 1.259 . S
Tb116 O119 2.453 . S
Tb116 O120 2.596 1_545 S
Tb116 O121 2.374 . S
Tb116 O129 2.343 . S
Tb116 O131 2.353 . S
Tb116 O133 2.427 . S
Tb116 O134 2.513 . S
C117 O121 1.213 1_565 S
C117 O123 1.292 . S
Tb118 O120 2.343 . S
Tb118 O123 2.353 . S
Tb118 O126 2.427 . S
Tb118 O127 2.513 . S
Tb118 O128 2.453 . S
Tb118 O129 2.596 1_565 S
Tb118 O130 2.374 . S
O119 Tb116 2.453 . S
O119 C135 1.245 . S
O120 Tb116 2.596 1_565 S
O120 Tb118 2.343 . S
O120 C135 1.259 1_565 S
O121 Tb116 2.374 . S
O121 C117 1.213 1_545 S
C122 O126 1.275 . S
C122 O127 1.246 . S
O123 C117 1.292 . S
O123 Tb118 2.353 . S
C124 O128 1.245 1_545 S
C124 O129 1.259 . S
C125 O130 1.250 1_545 S
C125 O131 1.263 . S
O126 Tb118 2.427 . S
O126 C122 1.275 . S
O127 Tb118 2.513 . S
O127 C122 1.246 . S
O128 Tb118 2.453 . S
O128 C124 1.245 1_565 S
O129 Tb116 2.343 . S
O129 Tb118 2.596 1_545 S
O129 C124 1.259 . S
O130 Tb118 2.374 . S
O130 C125 1.250 1_565 S
O131 Tb116 2.353 . S
O131 C125 1.263 . S
C132 O133 1.275 . S
C132 O134 1.246 . S
O133 Tb116 2.427 . S
O133 C132 1.275 . S
O134 Tb116 2.513 . S
O134 C132 1.246 . S
C135 O119 1.245 . S
C135 O120 1.259 1_545 S
Tb136 O139 2.453 . S
Tb136 O140 2.596 . S
Tb136 O141 2.374 . S
Tb136 O149 2.343 . S
Tb136 O151 2.353 . S
Tb136 O153 2.427 . S
Tb136 O154 2.513 . S
C137 O141 1.251 . S
C137 O143 1.263 . S
Tb138 O140 2.343 . S
Tb138 O143 2.353 . S
Tb138 O146 2.427 . S
Tb138 O147 2.513 . S
Tb138 O148 2.453 . S
Tb138 O149 2.596 . S
Tb138 O150 2.374 . S
O139 Tb136 2.453 . S
O139 C155 1.245 . S
O140 Tb136 2.596 . S
O140 Tb138 2.343 . S
O140 C155 1.259 . S
O141 Tb136 2.374 . S
O141 C137 1.251 . S
C142 O146 1.275 . S
C142 O147 1.246 . S
O143 C137 1.263 . S
O143 Tb138 2.353 . S
C144 O148 1.245 . S
C144 O149 1.259 . S
C145 O150 1.250 . S
C145 O151 1.263 . S
O146 Tb138 2.427 . S
O146 C142 1.275 . S
O147 Tb138 2.513 . S
O147 C142 1.246 . S
O148 Tb138 2.453 . S
O148 C144 1.245 . S
O149 Tb136 2.343 . S
O149 Tb138 2.596 . S
O149 C144 1.259 . S
O150 Tb138 2.374 . S
O150 C145 1.250 . S
O151 Tb136 2.353 . S
O151 C145 1.263 . S
C152 O153 1.275 . S
C152 O154 1.246 . S
O153 Tb136 2.427 . S
O153 C152 1.275 . S
O154 Tb136 2.513 . S
O154 C152 1.246 . S
C155 O139 1.245 . S
C155 O140 1.259 . S
Tb156 O159 2.453 1_655 S
Tb156 O160 2.596 1_655 S
Tb156 O161 2.374 1_655 S
Tb156 O169 2.343 . S
Tb156 O171 2.353 1_655 S
Tb156 O173 2.427 . S
Tb156 O174 2.513 . S
C157 O161 1.251 . S
C157 O163 1.263 . S
Tb158 O160 2.343 . S
Tb158 O163 2.353 . S
Tb158 O166 2.427 . S
Tb158 O167 2.513 . S
Tb158 O168 2.453 1_455 S
Tb158 O169 2.596 1_455 S
Tb158 O170 2.374 . S
O159 Tb156 2.453 1_455 S
O159 C175 1.245 . S
O160 Tb156 2.596 1_455 S
O160 Tb158 2.343 . S
O160 C175 1.259 . S
O161 Tb156 2.374 1_455 S
O161 C157 1.251 . S
C162 O166 1.275 . S
C162 O167 1.246 . S
O163 C157 1.263 . S
O163 Tb158 2.353 . S
C164 O168 1.245 . S
C164 O169 1.259 . S
C165 O170 1.250 . S
C165 O171 1.263 . S
O166 Tb158 2.427 . S
O166 C162 1.275 . S
O167 Tb158 2.513 . S
O167 C162 1.246 . S
O168 Tb158 2.453 1_655 S
O168 C164 1.245 . S
O169 Tb156 2.343 . S
O169 Tb158 2.596 1_655 S
O169 C164 1.259 . S
O170 Tb158 2.374 . S
O170 C165 1.250 . S
O171 Tb156 2.353 1_455 S
O171 C165 1.263 . S
C172 O173 1.275 . S
C172 O174 1.246 . S
O173 Tb156 2.427 . S
O173 C172 1.275 . S
O174 Tb156 2.513 . S
O174 C172 1.246 . S
C175 O159 1.245 . S
C175 O160 1.259 . S
C176 C177 1.349 . S
C176 C178 1.327 . S
C176 H201 0.950 . S
C177 C176 1.349 . S
C177 C193 1.349 . S
C178 C176 1.327 . S
C178 C197 1.429 . S
C178 H202 0.950 . S
C179 C196 1.574 . S
C179 C198 1.368 . S
C179 H203 0.949 . S
H180 C184 0.949 1_565 S
C181 C182 1.349 . S
C181 C183 1.327 . S
C181 H204 0.950 . S
C182 C181 1.349 . S
C182 C194 1.337 1_545 S
C183 C181 1.327 . S
C183 C199 1.429 . S
C183 H205 0.950 . S
C184 H180 0.949 1_545 S
C184 C192 1.574 . S
C184 C200 1.368 . S
H185 C193 0.950 . S
H186 C191 0.950 . S
H187 C192 0.949 . S
H188 C194 0.964 . S
H189 C195 0.950 1_565 S
H190 C196 0.949 . S
C191 H186 0.950 . S
C191 C193 1.327 . S
C191 C197 1.429 . S
C192 C184 1.574 . S
C192 H187 0.949 . S
C192 C198 1.368 . S
C193 C177 1.349 . S
C193 H185 0.950 . S
C193 C191 1.327 . S
C194 C182 1.337 1_565 S
C194 H188 0.964 . S
C194 C195 1.325 1_565 S
C195 H189 0.950 1_545 S
C195 C194 1.325 1_545 S
C195 C199 1.429 . S
C196 C179 1.574 . S
C196 H190 0.949 . S
C196 C200 1.368 . S
C197 C178 1.429 . S
C197 C191 1.429 . S
C197 C198 1.523 . S
C198 C179 1.368 . S
C198 C192 1.368 . S
C198 C197 1.523 . S
C199 C183 1.429 . S
C199 C195 1.429 . S
C199 C200 1.523 . S
C200 C184 1.368 . S
C200 C196 1.368 . S
C200 C199 1.523 . S
H201 C176 0.950 . S
H202 C178 0.950 . S
H203 C179 0.949 . S
H204 C181 0.950 . S
H205 C183 0.950 . S
C206 C207 1.349 . S
C206 C208 1.327 . S
C206 H231 0.950 . S
C207 C206 1.349 . S
C207 C223 1.349 . S
C208 C206 1.327 . S
C208 C227 1.429 . S
C208 H232 0.950 . S
C209 C226 1.574 . S
C209 C228 1.368 . S
C209 H233 0.949 . S
H210 C214 0.949 . S
C211 C212 1.349 . S
C211 C213 1.327 . S
C211 H234 0.950 . S
C212 C211 1.349 . S
C212 C224 1.349 . S
C213 C211 1.327 . S
C213 C229 1.429 . S
C213 H235 0.950 . S
C214 H210 0.949 . S
C214 C222 1.574 . S
C214 C230 1.368 . S
H215 C223 0.950 . S
H216 C221 0.950 . S
H217 C222 0.949 . S
H218 C224 0.950 . S
H219 C225 0.950 . S
H220 C226 0.949 . S
C221 H216 0.950 . S
C221 C223 1.327 . S
C221 C227 1.429 . S
C222 C214 1.574 . S
C222 H217 0.949 . S
C222 C228 1.368 . S
C223 C207 1.349 . S
C223 H215 0.950 . S
C223 C221 1.327 . S
C224 C212 1.349 . S
C224 H218 0.950 . S
C224 C225 1.327 . S
C225 H219 0.950 . S
C225 C224 1.327 . S
C225 C229 1.429 . S
C226 C209 1.574 . S
C226 H220 0.949 . S
C226 C230 1.368 . S
C227 C208 1.429 . S
C227 C221 1.429 . S
C227 C228 1.523 . S
C228 C209 1.368 . S
C228 C222 1.368 . S
C228 C227 1.523 . S
C229 C213 1.429 . S
C229 C225 1.429 . S
C229 C230 1.523 . S
C230 C214 1.368 . S
C230 C226 1.368 . S
C230 C229 1.523 . S
H231 C206 0.950 . S
H232 C208 0.950 . S
H233 C209 0.949 . S
H234 C211 0.950 . S
H235 C213 0.950 . S
C236 C237 1.349 . S
C236 C238 1.327 . S
C236 H261 0.950 . S
C237 C236 1.349 . S
C237 C253 1.349 . S
C238 C236 1.327 . S
C238 C257 1.429 . S
C238 H262 0.950 . S
C239 C256 1.574 . S
C239 C258 1.368 . S
C239 H263 0.949 . S
H240 C244 0.949 . S
C241 C242 1.349 . S
C241 C243 1.327 . S
C241 H264 0.950 . S
C242 C241 1.349 . S
C242 C254 1.349 . S
C243 C241 1.327 . S
C243 C259 1.429 . S
C243 H265 0.950 . S
C244 H240 0.949 . S
C244 C252 1.574 . S
C244 C260 1.368 . S
H245 C253 0.950 . S
H246 C251 0.950 . S
H247 C252 0.949 . S
H248 C254 0.950 . S
H249 C255 0.950 . S
H250 C256 0.949 . S
C251 H246 0.950 . S
C251 C253 1.327 . S
C251 C257 1.429 . S
C252 C244 1.574 . S
C252 H247 0.949 . S
C252 C258 1.368 . S
C253 C237 1.349 . S
C253 H245 0.950 . S
C253 C251 1.327 . S
C254 C242 1.349 . S
C254 H248 0.950 . S
C254 C255 1.327 . S
C255 H249 0.950 . S
C255 C254 1.327 . S
C255 C259 1.429 . S
C256 C239 1.574 . S
C256 H250 0.949 . S
C256 C260 1.368 . S
C257 C238 1.429 . S
C257 C251 1.429 . S
C257 C258 1.523 . S
C258 C239 1.368 . S
C258 C252 1.368 . S
C258 C257 1.523 . S
C259 C243 1.429 . S
C259 C255 1.429 . S
C259 C260 1.523 . S
C260 C244 1.368 . S
C260 C256 1.368 . S
C260 C259 1.523 . S
H261 C236 0.950 . S
H262 C238 0.950 . S
H263 C239 0.949 . S
H264 C241 0.950 . S
H265 C243 0.950 . S
C266 C267 1.349 . S
C266 C268 1.327 . S
C266 H291 0.950 . S
C267 C266 1.349 . S
C267 C283 1.349 . S
C268 C266 1.327 . S
C268 C287 1.429 . S
C268 H292 0.950 . S
C269 C286 1.574 . S
C269 C288 1.368 . S
C269 H293 0.949 . S
H270 C274 0.949 . S
C271 C272 1.349 . S
C271 C273 1.327 . S
C271 H294 0.950 . S
C272 C271 1.349 . S
C272 C284 1.349 . S
C273 C271 1.327 . S
C273 C289 1.429 . S
C273 H295 0.950 . S
C274 H270 0.949 . S
C274 C282 1.574 . S
C274 C290 1.368 . S
H275 C283 0.950 . S
H276 C281 0.950 . S
H277 C282 0.949 . S
H278 C284 0.950 1_655 S
H279 C285 0.972 . S
H280 C286 0.949 . S
C281 H276 0.950 . S
C281 C283 1.327 . S
C281 C287 1.429 . S
C282 C274 1.574 . S
C282 H277 0.949 . S
C282 C288 1.368 . S
C283 C267 1.349 . S
C283 H275 0.950 . S
C283 C281 1.327 . S
C284 C272 1.349 . S
C284 H278 0.950 1_455 S
C284 C285 1.327 . S
C285 H279 0.972 . S
C285 C284 1.327 . S
C285 C289 1.429 . S
C286 C269 1.574 . S
C286 H280 0.949 . S
C286 C290 1.368 . S
C287 C268 1.429 . S
C287 C281 1.429 . S
C287 C288 1.523 . S
C288 C269 1.368 . S
C288 C282 1.368 . S
C288 C287 1.523 . S
C289 C273 1.429 . S
C289 C285 1.429 . S
C289 C290 1.523 . S
C290 C274 1.368 . S
C290 C286 1.368 . S
C290 C289 1.523 . S
H291 C266 0.950 . S
H292 C268 0.950 . S
H293 C269 0.949 . S
H294 C271 0.950 . S
H295 C273 0.950 . S
C296 C297 1.349 1_554 S
C296 C298 1.327 1_554 S
C296 H321 0.950 . S
C297 C296 1.349 1_556 S
C297 C313 1.349 . S
C298 C296 1.327 1_556 S
C298 C317 1.429 . S
C298 H322 0.950 1_556 S
C299 C316 1.574 . S
C299 C318 1.368 . S
C299 H323 0.949 . S
H300 C304 0.949 . S
C301 C302 1.349 . S
C301 C303 1.327 . S
C301 H324 0.950 . S
C302 C301 1.349 . S
C302 C314 1.349 1_565 S
C303 C301 1.327 . S
C303 C319 1.429 . S
C303 H325 0.950 . S
C304 H300 0.949 . S
C304 C312 1.574 . S
C304 C320 1.368 . S
H305 C313 0.950 . S
H306 C311 0.950 . S
H307 C312 0.949 . S
H308 C314 0.950 . S
H309 C315 0.938 1_545 S
H310 C316 0.949 . S
C311 H306 0.950 . S
C311 C313 1.327 . S
C311 C317 1.429 . S
C312 C304 1.574 . S
C312 H307 0.949 . S
C312 C318 1.368 . S
C313 C297 1.349 . S
C313 H305 0.950 . S
C313 C311 1.327 . S
C314 C302 1.349 1_545 S
C314 H308 0.950 . S
C314 C315 1.321 1_545 S
C315 H309 0.938 1_565 S
C315 C314 1.321 1_565 S
C315 C319 1.448 . S
C316 C299 1.574 . S
C316 H310 0.949 . S
C316 C320 1.368 . S
C317 C298 1.429 . S
C317 C311 1.429 . S
C317 C318 1.523 . S
C318 C299 1.368 . S
C318 C312 1.368 . S
C318 C317 1.523 . S
C319 C303 1.429 . S
C319 C315 1.448 . S
C319 C320 1.523 . S
C320 C304 1.368 . S
C320 C316 1.368 . S
C320 C319 1.523 . S
H321 C296 0.950 . S
H322 C298 0.950 1_554 S
H323 C299 0.949 . S
H324 C301 0.950 . S
H325 C303 0.950 . S
C326 C327 1.349 1_556 S
C326 C328 1.327 . S
C326 H351 0.950 . S
C327 C326 1.349 1_554 S
C327 C343 1.349 . S
C328 C326 1.327 . S
C328 C347 1.429 . S
C328 H352 0.950 . S
C329 C346 1.574 . S
C329 C348 1.368 . S
C329 H353 0.949 . S
H330 C334 0.949 . S
C331 C332 1.349 . S
C331 C333 1.327 . S
C331 H354 0.950 . S
C332 C331 1.349 . S
C332 C344 1.349 . S
C333 C331 1.327 . S
C333 C349 1.429 . S
C333 H355 0.950 . S
C334 H330 0.949 . S
C334 C342 1.574 . S
C334 C350 1.368 . S
H335 C343 0.950 . S
H336 C341 0.950 . S
H337 C342 0.949 . S
H338 C344 0.950 . S
H339 C345 0.950 . S
H340 C346 0.949 . S
C341 H336 0.950 . S
C341 C343 1.327 . S
C341 C347 1.429 1_554 S
C342 C334 1.574 . S
C342 H337 0.949 . S
C342 C348 1.368 . S
C343 C327 1.349 . S
C343 H335 0.950 . S
C343 C341 1.327 . S
C344 C332 1.349 . S
C344 H338 0.950 . S
C344 C345 1.327 . S
C345 H339 0.950 . S
C345 C344 1.327 . S
C345 C349 1.429 . S
C346 C329 1.574 . S
C346 H340 0.949 . S
C346 C350 1.368 . S
C347 C328 1.429 . S
C347 C341 1.429 1_556 S
C347 C348 1.523 . S
C348 C329 1.368 . S
C348 C342 1.368 . S
C348 C347 1.523 . S
C349 C333 1.429 . S
C349 C345 1.429 . S
C349 C350 1.523 . S
C350 C334 1.368 . S
C350 C346 1.368 . S
C350 C349 1.523 . S
H351 C326 0.950 . S
H352 C328 0.950 . S
H353 C329 0.949 . S
H354 C331 0.950 . S
H355 C333 0.950 . S
C356 C357 1.349 1_556 S
C356 C358 1.327 . S
C356 H381 0.950 . S
C357 C356 1.349 1_554 S
C357 C373 1.349 . S
C358 C356 1.327 . S
C358 C377 1.429 . S
C358 H382 0.950 . S
C359 C376 1.574 . S
C359 C378 1.368 . S
C359 H383 0.949 . S
H360 C364 0.949 . S
C361 C362 1.349 . S
C361 C363 1.327 . S
C361 H384 0.950 . S
C362 C361 1.349 . S
C362 C374 1.349 . S
C363 C361 1.327 . S
C363 C379 1.429 . S
C363 H385 0.950 . S
C364 H360 0.949 . S
C364 C372 1.574 . S
C364 C380 1.368 . S
H365 C373 0.950 . S
H366 C371 0.950 1_554 S
H367 C372 0.949 . S
H368 C374 0.950 . S
H369 C375 0.950 . S
H370 C376 0.949 . S
C371 H366 0.950 1_556 S
C371 C373 1.327 1_556 S
C371 C377 1.429 . S
C372 C364 1.574 . S
C372 H367 0.949 . S
C372 C378 1.368 . S
C373 C357 1.349 . S
C373 H365 0.950 . S
C373 C371 1.327 1_554 S
C374 C362 1.349 . S
C374 H368 0.950 . S
C374 C375 1.327 . S
C375 H369 0.950 . S
C375 C374 1.327 . S
C375 C379 1.429 . S
C376 C359 1.574 . S
C376 H370 0.949 . S
C376 C380 1.368 . S
C377 C358 1.429 . S
C377 C371 1.429 . S
C377 C378 1.523 . S
C378 C359 1.368 . S
C378 C372 1.368 . S
C378 C377 1.523 . S
C379 C363 1.429 . S
C379 C375 1.429 . S
C379 C380 1.523 . S
C380 C364 1.368 . S
C380 C376 1.368 . S
C380 C379 1.523 . S
H381 C356 0.950 . S
H382 C358 0.950 . S
H383 C359 0.949 . S
H384 C361 0.950 . S
H385 C363 0.950 . S
C386 C387 1.349 . S
C386 C388 1.327 . S
C386 H411 0.950 1_556 S
C387 C386 1.349 . S
C387 C403 1.349 . S
C388 C386 1.327 . S
C388 C407 1.429 . S
C388 H412 0.950 . S
C389 C406 1.574 . S
C389 C408 1.368 . S
C389 H413 0.949 . S
H390 C394 0.949 . S
C391 C392 1.349 1_455 S
C391 C393 1.322 1_455 S
C391 H414 0.950 . S
C392 C391 1.349 1_655 S
C392 C404 1.349 . S
C393 C391 1.322 1_655 S
C393 C409 1.440 . S
C393 H415 0.944 1_655 S
C394 H390 0.949 . S
C394 C402 1.574 . S
C394 C410 1.368 . S
H395 C403 0.950 . S
H396 C401 0.950 . S
H397 C402 0.949 . S
H398 C404 0.950 . S
H399 C405 0.950 . S
H400 C406 0.949 . S
C401 H396 0.950 . S
C401 C403 1.327 . S
C401 C407 1.429 . S
C402 C394 1.574 . S
C402 H397 0.949 . S
C402 C408 1.368 . S
C403 C387 1.349 . S
C403 H395 0.950 . S
C403 C401 1.327 . S
C404 C392 1.349 . S
C404 H398 0.950 . S
C404 C405 1.327 . S
C405 H399 0.950 . S
C405 C404 1.327 . S
C405 C409 1.429 . S
C406 C389 1.574 . S
C406 H400 0.949 . S
C406 C410 1.368 . S
C407 C388 1.429 . S
C407 C401 1.429 . S
C407 C408 1.523 . S
C408 C389 1.368 . S
C408 C402 1.368 . S
C408 C407 1.523 . S
C409 C393 1.440 . S
C409 C405 1.429 . S
C409 C410 1.523 . S
C410 C394 1.368 . S
C410 C406 1.368 . S
C410 C409 1.523 . S
H411 C386 0.950 1_554 S
H412 C388 0.950 . S
H413 C389 0.949 . S
H414 C391 0.950 . S
H415 C393 0.944 1_455 S
C416 C417 1.349 . S
C416 C418 1.327 . S
C416 H441 0.950 . S
C417 C416 1.349 . S
C417 C433 1.349 . S
C418 C416 1.327 . S
C418 C437 1.429 . S
C418 H442 0.950 . S
C419 C436 1.574 . S
C419 C438 1.368 . S
C419 H443 0.949 . S
H420 C424 0.949 . S
C421 C422 1.349 . S
C421 C423 1.327 . S
C421 H444 0.950 . S
C422 C421 1.349 . S
C422 C434 1.349 . S
C423 C421 1.327 . S
C423 C439 1.429 . S
C423 H445 0.950 . S
C424 H420 0.949 . S
C424 C432 1.574 . S
C424 C440 1.368 . S
H425 C433 0.950 . S
H426 C431 0.950 . S
H427 C432 0.949 . S
H428 C434 0.967 . S
H429 C435 0.950 . S
H430 C436 0.949 . S
C431 H426 0.950 . S
C431 C433 1.327 . S
C431 C437 1.429 . S
C432 C424 1.574 . S
C432 H427 0.949 . S
C432 C438 1.368 . S
C433 C417 1.349 . S
C433 H425 0.950 . S
C433 C431 1.327 . S
C434 C422 1.349 . S
C434 H428 0.967 . S
C434 C435 1.327 . S
C435 H429 0.950 . S
C435 C434 1.327 . S
C435 C439 1.429 . S
C436 C419 1.574 . S
C436 H430 0.949 . S
C436 C440 1.368 . S
C437 C418 1.429 . S
C437 C431 1.429 . S
C437 C438 1.523 . S
C438 C419 1.368 . S
C438 C432 1.368 . S
C438 C437 1.523 . S
C439 C423 1.429 . S
C439 C435 1.429 . S
C439 C440 1.523 . S
C440 C424 1.368 . S
C440 C436 1.368 . S
C440 C439 1.523 . S
H441 C416 0.950 . S
H442 C418 0.950 . S
H443 C419 0.949 . S
H444 C421 0.950 . S
H445 C423 0.950 . S
C446 C447 1.349 . S
C446 C448 1.327 . S
C446 H471 0.950 . S
C447 C446 1.349 . S
C447 C463 1.349 . S
C448 C446 1.327 . S
C448 C467 1.429 . S
C448 H472 0.950 . S
C449 C466 1.574 . S
C449 C468 1.368 . S
C449 H473 0.949 . S
H450 C454 0.949 . S
C451 C452 1.349 . S
C451 C453 1.327 . S
C451 H474 0.950 . S
C452 C451 1.349 . S
C452 C464 1.349 . S
C453 C451 1.327 . S
C453 C469 1.429 . S
C453 H475 0.950 . S
C454 H450 0.949 . S
C454 C462 1.574 . S
C454 C470 1.368 . S
H455 C463 0.950 . S
H456 C461 0.950 . S
H457 C462 0.949 . S
H458 C464 0.950 1_565 S
H459 C465 0.950 1_565 S
H460 C466 0.949 . S
C461 H456 0.950 . S
C461 C463 1.327 . S
C461 C467 1.429 . S
C462 C454 1.574 . S
C462 H457 0.949 . S
C462 C468 1.368 . S
C463 C447 1.349 . S
C463 H455 0.950 . S
C463 C461 1.327 . S
C464 C452 1.349 . S
C464 H458 0.950 1_545 S
C464 C465 1.327 . S
C465 H459 0.950 1_545 S
C465 C464 1.327 . S
C465 C469 1.429 . S
C466 C449 1.574 . S
C466 H460 0.949 . S
C466 C470 1.368 . S
C467 C448 1.429 . S
C467 C461 1.429 . S
C467 C468 1.523 . S
C468 C449 1.368 . S
C468 C462 1.368 . S
C468 C467 1.523 . S
C469 C453 1.429 . S
C469 C465 1.429 . S
C469 C470 1.523 . S
C470 C454 1.368 . S
C470 C466 1.368 . S
C470 C469 1.523 . S
H471 C446 0.950 . S
H472 C448 0.950 . S
H473 C449 0.949 . S
H474 C451 0.950 . S
H475 C453 0.950 . S
C476 C477 1.349 . S
C476 C478 1.327 . S
C476 H501 0.950 . S
C477 C476 1.349 . S
C477 C493 1.349 . S
C478 C476 1.327 . S
C478 C497 1.429 . S
C478 H502 0.950 . S
C479 C496 1.574 . S
C479 C498 1.368 . S
C479 H503 0.949 . S
H480 C484 0.949 . S
C481 C482 1.349 . S
C481 C483 1.327 . S
C481 H504 0.950 . S
C482 C481 1.349 . S
C482 C494 1.349 . S
C483 C481 1.327 . S
C483 C499 1.429 . S
C483 H505 0.950 . S
C484 H480 0.949 . S
C484 C492 1.574 . S
C484 C500 1.368 . S
H485 C493 0.950 . S
H486 C491 0.950 . S
H487 C492 0.949 . S
H488 C494 0.950 . S
H489 C495 0.950 . S
H490 C496 0.949 . S
C491 H486 0.950 . S
C491 C493 1.327 . S
C491 C497 1.429 . S
C492 C484 1.574 . S
C492 H487 0.949 . S
C492 C498 1.368 . S
C493 C477 1.349 . S
C493 H485 0.950 . S
C493 C491 1.327 . S
C494 C482 1.349 . S
C494 H488 0.950 . S
C494 C495 1.327 . S
C495 H489 0.950 . S
C495 C494 1.327 . S
C495 C499 1.429 . S
C496 C479 1.574 . S
C496 H490 0.949 . S
C496 C500 1.368 . S
C497 C478 1.429 . S
C497 C491 1.429 . S
C497 C498 1.523 . S
C498 C479 1.368 . S
C498 C492 1.368 . S
C498 C497 1.523 . S
C499 C483 1.429 . S
C499 C495 1.429 . S
C499 C500 1.523 . S
C500 C484 1.368 . S
C500 C496 1.368 . S
C500 C499 1.523 . S
H501 C476 0.950 . S
H502 C478 0.950 . S
H503 C479 0.949 . S
H504 C481 0.950 . S
H505 C483 0.950 . S
C506 C507 1.349 . S
C506 C508 1.327 . S
C506 H531 0.950 . S
C507 C506 1.349 . S
C507 C523 1.349 . S
C508 C506 1.327 . S
C508 C527 1.429 . S
C508 H532 0.950 . S
C509 C526 1.574 . S
C509 C528 1.368 . S
C509 H533 0.949 . S
H510 C514 0.949 . S
C511 C512 1.349 . S
C511 C513 1.327 . S
C511 H534 0.950 . S
C512 C511 1.349 . S
C512 C524 1.349 . S
C513 C511 1.327 . S
C513 C529 1.429 . S
C513 H535 0.950 . S
C514 H510 0.949 . S
C514 C522 1.574 . S
C514 C530 1.368 . S
H515 C523 0.950 . S
H516 C521 0.950 . S
H517 C522 0.949 . S
H518 C524 0.950 . S
H519 C525 0.950 . S
H520 C526 0.949 . S
C521 H516 0.950 . S
C521 C523 1.327 . S
C521 C527 1.429 . S
C522 C514 1.574 . S
C522 H517 0.949 . S
C522 C528 1.368 . S
C523 C507 1.349 . S
C523 H515 0.950 . S
C523 C521 1.327 . S
C524 C512 1.349 . S
C524 H518 0.950 . S
C524 C525 1.327 . S
C525 H519 0.950 . S
C525 C524 1.327 . S
C525 C529 1.429 . S
C526 C509 1.574 . S
C526 H520 0.949 . S
C526 C530 1.368 . S
C527 C508 1.429 . S
C527 C521 1.429 . S
C527 C528 1.523 . S
C528 C509 1.368 . S
C528 C522 1.368 . S
C528 C527 1.523 . S
C529 C513 1.429 . S
C529 C525 1.429 . S
C529 C530 1.523 . S
C530 C514 1.368 . S
C530 C526 1.368 . S
C530 C529 1.523 . S
H531 C506 0.950 . S
H532 C508 0.950 . S
H533 C509 0.949 . S
H534 C511 0.950 . S
H535 C513 0.950 . S
C536 C537 1.349 . S
C536 C538 1.327 . S
C536 H561 0.950 . S
C537 C536 1.349 . S
C537 C553 1.349 . S
C538 C536 1.327 . S
C538 C557 1.429 . S
C538 H562 0.950 . S
C539 C556 1.574 . S
C539 C558 1.368 . S
C539 H563 0.949 . S
H540 C544 0.949 . S
C541 C542 1.349 1_455 S
C541 C543 1.327 1_455 S
C541 H564 0.950 . S
C542 C541 1.349 1_655 S
C542 C554 1.349 . S
C543 C541 1.327 1_655 S
C543 C559 1.429 . S
C543 H565 0.949 . S
C544 H540 0.949 . S
C544 C552 1.574 . S
C544 C560 1.368 . S
H545 C553 0.950 1_554 S
H546 C551 0.950 . S
H547 C552 0.949 . S
H548 C554 0.950 . S
H549 C555 0.950 . S
H550 C556 0.949 . S
C551 H546 0.950 . S
C551 C553 1.327 . S
C551 C557 1.429 . S
C552 C544 1.574 . S
C552 H547 0.949 . S
C552 C558 1.368 . S
C553 C537 1.349 . S
C553 H545 0.950 1_556 S
C553 C551 1.327 . S
C554 C542 1.349 . S
C554 H548 0.950 . S
C554 C555 1.327 . S
C555 H549 0.950 . S
C555 C554 1.327 . S
C555 C559 1.429 . S
C556 C539 1.574 . S
C556 H550 0.949 . S
C556 C560 1.368 . S
C557 C538 1.429 . S
C557 C551 1.429 . S
C557 C558 1.523 . S
C558 C539 1.368 . S
C558 C552 1.368 . S
C558 C557 1.523 . S
C559 C543 1.429 . S
C559 C555 1.429 . S
C559 C560 1.523 . S
C560 C544 1.368 . S
C560 C556 1.368 . S
C560 C559 1.523 . S
H561 C536 0.950 . S
H562 C538 0.950 . S
H563 C539 0.949 . S
H564 C541 0.950 . S
H565 C543 0.949 . S
C566 C567 1.349 . S
C566 C568 1.327 . S
C566 H591 0.950 . S
C567 C566 1.349 . S
C567 C583 1.349 . S
C568 C566 1.327 . S
C568 C587 1.429 . S
C568 H592 0.950 . S
C569 C586 1.574 . S
C569 C588 1.368 . S
C569 H593 0.949 . S
H570 C574 0.993 . S
C571 C572 1.349 . S
C571 C573 1.327 . S
C571 H594 0.950 . S
C572 C571 1.349 . S
C572 C584 1.349 1_565 S
C573 C571 1.327 . S
C573 C589 1.429 . S
C573 H595 0.950 . S
C574 H570 0.993 . S
C574 C582 1.560 1_545 S
C574 C590 1.334 1_545 S
H575 C583 0.950 . S
H576 C581 0.950 . S
H577 C582 0.949 1_545 S
H578 C584 0.950 . S
H579 C585 0.950 . S
H580 C586 0.949 . S
C581 H576 0.950 . S
C581 C583 1.327 . S
C581 C587 1.429 . S
C582 C574 1.560 1_565 S
C582 H577 0.949 1_565 S
C582 C588 1.368 . S
C583 C567 1.349 . S
C583 H575 0.950 . S
C583 C581 1.327 . S
C584 C572 1.349 1_545 S
C584 H578 0.950 . S
C584 C585 1.327 . S
C585 H579 0.950 . S
C585 C584 1.327 . S
C585 C589 1.429 1_545 S
C586 C569 1.574 . S
C586 H580 0.949 . S
C586 C590 1.368 . S
C587 C568 1.429 . S
C587 C581 1.429 . S
C587 C588 1.523 . S
C588 C569 1.368 . S
C588 C582 1.368 . S
C588 C587 1.523 . S
C589 C573 1.429 . S
C589 C585 1.429 1_565 S
C589 C590 1.523 . S
C590 C574 1.334 1_565 S
C590 C586 1.368 . S
C590 C589 1.523 . S
H591 C566 0.950 . S
H592 C568 0.950 . S
H593 C569 0.949 . S
H594 C571 0.950 . S
H595 C573 0.950 . S
C596 C597 1.349 . S
C596 C598 1.327 . S
C596 H621 0.950 . S
C597 C596 1.349 . S
C597 C613 1.349 1_556 S
C598 C596 1.327 . S
C598 C617 1.429 . S
C598 H622 0.950 . S
C599 C616 1.574 . S
C599 C618 1.368 . S
C599 H623 0.949 . S
H600 C604 0.949 . S
C601 C602 1.349 . S
C601 C603 1.327 . S
C601 H624 0.950 . S
C602 C601 1.349 . S
C602 C614 1.349 . S
C603 C601 1.327 . S
C603 C619 1.429 . S
C603 H625 0.950 . S
C604 H600 0.949 . S
C604 C612 1.574 . S
C604 C620 1.368 . S
H605 C613 0.950 . S
H606 C611 0.950 . S
H607 C612 0.949 . S
H608 C614 0.950 . S
H609 C615 0.950 . S
H610 C616 0.949 . S
C611 H606 0.950 . S
C611 C613 1.327 . S
C611 C617 1.429 1_554 S
C612 C604 1.574 . S
C612 H607 0.949 . S
C612 C618 1.368 . S
C613 C597 1.349 1_554 S
C613 H605 0.950 . S
C613 C611 1.327 . S
C614 C602 1.349 . S
C614 H608 0.950 . S
C614 C615 1.327 . S
C615 H609 0.950 . S
C615 C614 1.327 . S
C615 C619 1.429 . S
C616 C599 1.574 . S
C616 H610 0.949 . S
C616 C620 1.368 . S
C617 C598 1.429 . S
C617 C611 1.429 1_556 S
C617 C618 1.523 . S
C618 C599 1.368 . S
C618 C612 1.368 . S
C618 C617 1.523 . S
C619 C603 1.429 . S
C619 C615 1.429 . S
C619 C620 1.523 . S
C620 C604 1.368 . S
C620 C616 1.368 . S
C620 C619 1.523 . S
H621 C596 0.950 . S
H622 C598 0.950 . S
H623 C599 0.949 . S
H624 C601 0.950 . S
H625 C603 0.950 . S
C626 C627 1.349 . S
C626 C628 1.327 . S
C626 H651 0.950 . S
C627 C626 1.349 . S
C627 C643 1.349 . S
C628 C626 1.327 . S
C628 C647 1.429 . S
C628 H652 0.950 . S
C629 C646 1.574 . S
C629 C648 1.368 . S
C629 H653 0.949 . S
H630 C634 0.949 . S
C631 C632 1.349 . S
C631 C633 1.327 . S
C631 H654 0.950 . S
C632 C631 1.349 . S
C632 C644 1.349 . S
C633 C631 1.327 . S
C633 C649 1.429 . S
C633 H655 0.950 . S
C634 H630 0.949 . S
C634 C642 1.574 . S
C634 C650 1.368 . S
H635 C643 0.950 1_554 S
H636 C641 0.950 . S
H637 C642 0.949 . S
H638 C644 0.950 . S
H639 C645 0.950 . S
H640 C646 0.949 . S
C641 H636 0.950 . S
C641 C643 1.327 . S
C641 C647 1.429 . S
C642 C634 1.574 . S
C642 H637 0.949 . S
C642 C648 1.368 . S
C643 C627 1.349 . S
C643 H635 0.950 1_556 S
C643 C641 1.327 . S
C644 C632 1.349 . S
C644 H638 0.950 . S
C644 C645 1.327 . S
C645 H639 0.950 . S
C645 C644 1.327 . S
C645 C649 1.429 . S
C646 C629 1.574 . S
C646 H640 0.949 . S
C646 C650 1.368 . S
C647 C628 1.429 . S
C647 C641 1.429 . S
C647 C648 1.523 . S
C648 C629 1.368 . S
C648 C642 1.368 . S
C648 C647 1.523 . S
C649 C633 1.429 . S
C649 C645 1.429 . S
C649 C650 1.523 . S
C650 C634 1.368 . S
C650 C646 1.368 . S
C650 C649 1.523 . S
H651 C626 0.950 . S
H652 C628 0.950 . S
H653 C629 0.949 . S
H654 C631 0.950 . S
H655 C633 0.950 . S
C656 C657 1.349 . S
C656 C658 1.327 . S
C656 H681 0.950 . S
C657 C656 1.349 . S
C657 C673 1.349 . S
C658 C656 1.327 . S
C658 C677 1.429 . S
C658 H682 0.950 . S
C659 C676 1.574 . S
C659 C678 1.368 . S
C659 H683 0.949 . S
H660 C664 0.949 . S
C661 C662 1.349 . S
C661 C663 1.327 . S
C661 H684 0.950 . S
C662 C661 1.349 . S
C662 C674 1.349 . S
C663 C661 1.327 . S
C663 C679 1.429 . S
C663 H685 0.950 . S
C664 H660 0.949 . S
C664 C672 1.574 1_556 S
C664 C680 1.368 . S
H665 C673 0.950 . S
H666 C671 0.950 . S
H667 C672 0.949 1_556 S
H668 C674 0.950 . S
H669 C675 0.950 . S
H670 C676 0.949 . S
C671 H666 0.950 . S
C671 C673 1.327 . S
C671 C677 1.429 . S
C672 C664 1.574 1_554 S
C672 H667 0.949 1_554 S
C672 C678 1.368 . S
C673 C657 1.349 . S
C673 H665 0.950 . S
C673 C671 1.327 . S
C674 C662 1.349 . S
C674 H668 0.950 . S
C674 C675 1.327 . S
C675 H669 0.950 . S
C675 C674 1.327 . S
C675 C679 1.429 . S
C676 C659 1.574 . S
C676 H670 0.949 . S
C676 C680 1.368 1_554 S
C677 C658 1.429 . S
C677 C671 1.429 . S
C677 C678 1.523 . S
C678 C659 1.368 . S
C678 C672 1.368 . S
C678 C677 1.523 . S
C679 C663 1.429 . S
C679 C675 1.429 . S
C679 C680 1.523 . S
C680 C664 1.368 . S
C680 C676 1.368 1_556 S
C680 C679 1.523 . S
H681 C656 0.950 . S
H682 C658 0.950 . S
H683 C659 0.949 . S
H684 C661 0.950 . S
H685 C663 0.950 . S
C686 C687 1.349 . S
C686 C688 1.327 . S
C686 H711 0.950 . S
C687 C686 1.349 . S
C687 C703 1.349 . S
C688 C686 1.327 . S
C688 C707 1.429 . S
C688 H712 0.950 . S
C689 C706 1.574 . S
C689 C708 1.368 1_556 S
C689 H713 0.949 . S
H690 C694 0.949 . S
C691 C692 1.349 . S
C691 C693 1.327 . S
C691 H714 0.950 1_545 S
C692 C691 1.349 . S
C692 C704 1.349 . S
C693 C691 1.327 . S
C693 C709 1.429 . S
C693 H715 0.950 . S
C694 H690 0.949 . S
C694 C702 1.574 . S
C694 C710 1.368 1_554 S
H695 C703 0.950 . S
H696 C701 0.950 . S
H697 C702 0.949 . S
H698 C704 0.950 . S
H699 C705 0.950 . S
H700 C706 0.949 . S
C701 H696 0.950 . S
C701 C703 1.327 . S
C701 C707 1.429 . S
C702 C694 1.574 . S
C702 H697 0.949 . S
C702 C708 1.368 . S
C703 C687 1.349 . S
C703 H695 0.950 . S
C703 C701 1.327 . S
C704 C692 1.349 . S
C704 H698 0.950 . S
C704 C705 1.327 . S
C705 H699 0.950 . S
C705 C704 1.327 . S
C705 C709 1.429 . S
C706 C689 1.574 . S
C706 H700 0.949 . S
C706 C710 1.368 . S
C707 C688 1.429 . S
C707 C701 1.429 . S
C707 C708 1.523 . S
C708 C689 1.368 1_554 S
C708 C702 1.368 . S
C708 C707 1.523 . S
C709 C693 1.429 . S
C709 C705 1.429 . S
C709 C710 1.523 . S
C710 C694 1.368 1_556 S
C710 C706 1.368 . S
C710 C709 1.523 . S
H711 C686 0.950 . S
H712 C688 0.950 . S
H713 C689 0.949 . S
H714 C691 0.950 1_565 S
H715 C693 0.950 . S
C716 C717 1.349 . S
C716 C718 1.327 . S
C716 H741 0.950 . S
C717 C716 1.349 . S
C717 C733 1.349 . S
C718 C716 1.327 . S
C718 C737 1.429 . S
C718 H742 0.950 . S
C719 C736 1.574 1_554 S
C719 C738 1.368 . S
C719 H743 0.949 . S
H720 C724 0.949 . S
C721 C722 1.349 . S
C721 C723 1.327 . S
C721 H744 0.950 . S
C722 C721 1.349 . S
C722 C734 1.349 . S
C723 C721 1.327 . S
C723 C739 1.429 . S
C723 H745 0.950 . S
C724 H720 0.949 . S
C724 C732 1.574 1_556 S
C724 C740 1.368 . S
H725 C733 0.950 . S
H726 C731 0.950 . S
H727 C732 0.949 . S
H728 C734 0.950 . S
H729 C735 0.950 . S
H730 C736 0.949 . S
C731 H726 0.950 . S
C731 C733 1.327 . S
C731 C737 1.429 . S
C732 C724 1.574 1_554 S
C732 H727 0.949 . S
C732 C738 1.368 . S
C733 C717 1.349 . S
C733 H725 0.950 . S
C733 C731 1.327 . S
C734 C722 1.349 . S
C734 H728 0.950 . S
C734 C735 1.327 . S
C735 H729 0.950 . S
C735 C734 1.327 . S
C735 C739 1.429 . S
C736 C719 1.574 1_556 S
C736 H730 0.949 . S
C736 C740 1.368 . S
C737 C718 1.429 . S
C737 C731 1.429 . S
C737 C738 1.523 . S
C738 C719 1.368 . S
C738 C732 1.368 . S
C738 C737 1.523 . S
C739 C723 1.429 . S
C739 C735 1.429 . S
C739 C740 1.523 . S
C740 C724 1.368 . S
C740 C736 1.368 . S
C740 C739 1.523 . S
H741 C716 0.950 . S
H742 C718 0.950 . S
H743 C719 0.949 . S
H744 C721 0.950 . S
H745 C723 0.950 . S
C746 C747 1.349 . S
C746 C748 1.327 . S
C746 H771 0.950 . S
C747 C746 1.349 . S
C747 C763 1.349 . S
C748 C746 1.327 . S
C748 C767 1.429 . S
C748 H772 0.950 . S
C749 C766 1.574 . S
C749 C768 1.368 . S
C749 H773 0.949 . S
H750 C754 0.949 . S
C751 C752 1.349 . S
C751 C753 1.327 . S
C751 H774 0.950 . S
C752 C751 1.349 . S
C752 C764 1.349 . S
C753 C751 1.327 . S
C753 C769 1.429 . S
C753 H775 0.950 . S
C754 H750 0.949 . S
C754 C762 1.574 . S
C754 C770 1.368 . S
H755 C763 0.950 . S
H756 C761 0.950 . S
H757 C762 0.949 . S
H758 C764 0.950 . S
H759 C765 0.950 . S
H760 C766 0.949 . S
C761 H756 0.950 . S
C761 C763 1.327 . S
C761 C767 1.429 . S
C762 C754 1.574 . S
C762 H757 0.949 . S
C762 C768 1.368 1_556 S
C763 C747 1.349 . S
C763 H755 0.950 . S
C763 C761 1.327 . S
C764 C752 1.349 . S
C764 H758 0.950 . S
C764 C765 1.327 . S
C765 H759 0.950 . S
C765 C764 1.327 . S
C765 C769 1.429 . S
C766 C749 1.574 . S
C766 H760 0.949 . S
C766 C770 1.368 1_554 S
C767 C748 1.429 . S
C767 C761 1.429 . S
C767 C768 1.523 . S
C768 C749 1.368 . S
C768 C762 1.368 1_554 S
C768 C767 1.523 . S
C769 C753 1.429 . S
C769 C765 1.429 . S
C769 C770 1.523 . S
C770 C754 1.368 . S
C770 C766 1.368 1_556 S
C770 C769 1.523 . S
H771 C746 0.950 . S
H772 C748 0.950 . S
H773 C749 0.949 . S
H774 C751 0.950 . S
H775 C753 0.950 . S
C776 C777 1.349 . S
C776 C778 1.327 . S
C776 H801 0.950 . S
C777 C776 1.349 . S
C777 C793 1.349 . S
C778 C776 1.327 . S
C778 C797 1.429 . S
C778 H802 0.950 . S
C779 C796 1.574 . S
C779 C798 1.368 . S
C779 H803 0.949 . S
H780 C784 0.949 . S
C781 C782 1.349 . S
C781 C783 1.327 . S
C781 H804 0.950 . S
C782 C781 1.349 . S
C782 C794 1.349 . S
C783 C781 1.327 . S
C783 C799 1.429 . S
C783 H805 0.950 . S
C784 H780 0.949 . S
C784 C792 1.574 . S
C784 C800 1.368 . S
H785 C793 0.950 . S
H786 C791 0.950 . S
H787 C792 0.949 . S
H788 C794 0.950 1_455 S
H789 C795 0.947 . S
H790 C796 0.949 . S
C791 H786 0.950 . S
C791 C793 1.327 . S
C791 C797 1.429 . S
C792 C784 1.574 . S
C792 H787 0.949 . S
C792 C798 1.368 . S
C793 C777 1.349 . S
C793 H785 0.950 . S
C793 C791 1.327 . S
C794 C782 1.349 . S
C794 H788 0.950 1_655 S
C794 C795 1.327 . S
C795 H789 0.947 . S
C795 C794 1.327 . S
C795 C799 1.429 . S
C796 C779 1.574 . S
C796 H790 0.949 . S
C796 C800 1.368 . S
C797 C778 1.429 . S
C797 C791 1.429 . S
C797 C798 1.523 . S
C798 C779 1.368 . S
C798 C792 1.368 . S
C798 C797 1.523 . S
C799 C783 1.429 . S
C799 C795 1.429 . S
C799 C800 1.523 . S
C800 C784 1.368 . S
C800 C796 1.368 . S
C800 C799 1.523 . S
H801 C776 0.950 . S
H802 C778 0.950 . S
H803 C779 0.949 . S
H804 C781 0.950 . S
H805 C783 0.950 . S
C806 C807 1.349 . S
C806 C808 1.327 . S
C806 H831 0.950 . S
C807 C806 1.349 . S
C807 C823 1.349 . S
C808 C806 1.327 . S
C808 C827 1.429 . S
C808 H832 0.950 . S
C809 C826 1.574 . S
C809 C828 1.368 . S
C809 H833 0.949 . S
H810 C814 0.949 1_545 S
C811 C812 1.349 . S
C811 C813 1.327 . S
C811 H834 0.950 . S
C812 C811 1.349 . S
C812 C824 1.349 1_565 S
C813 C811 1.327 . S
C813 C829 1.429 . S
C813 H835 0.950 . S
C814 H810 0.949 1_565 S
C814 C822 1.574 . S
C814 C830 1.368 . S
H815 C823 0.950 . S
H816 C821 0.950 . S
H817 C822 0.949 . S
H818 C824 0.950 . S
H819 C825 0.950 . S
H820 C826 0.949 . S
C821 H816 0.950 . S
C821 C823 1.327 . S
C821 C827 1.429 . S
C822 C814 1.574 . S
C822 H817 0.949 . S
C822 C828 1.368 . S
C823 C807 1.349 . S
C823 H815 0.950 . S
C823 C821 1.327 . S
C824 C812 1.349 1_545 S
C824 H818 0.950 . S
C824 C825 1.327 . S
C825 H819 0.950 . S
C825 C824 1.327 . S
C825 C829 1.429 1_545 S
C826 C809 1.574 . S
C826 H820 0.949 . S
C826 C830 1.368 . S
C827 C808 1.429 . S
C827 C821 1.429 . S
C827 C828 1.523 . S
C828 C809 1.368 . S
C828 C822 1.368 . S
C828 C827 1.523 . S
C829 C813 1.429 . S
C829 C825 1.429 1_565 S
C829 C830 1.523 . S
C830 C814 1.368 . S
C830 C826 1.368 . S
C830 C829 1.523 . S
H831 C806 0.950 . S
H832 C808 0.950 . S
H833 C809 0.949 . S
H834 C811 0.950 . S
H835 C813 0.950 . S
C836 C837 1.349 . S
C836 C838 1.327 . S
C836 H861 0.950 . S
C837 C836 1.349 . S
C837 C853 1.349 . S
C838 C836 1.327 . S
C838 C857 1.429 . S
C838 H862 0.950 . S
C839 C856 1.574 . S
C839 C858 1.368 . S
C839 H863 0.949 . S
H840 C844 0.949 . S
C841 C842 1.349 . S
C841 C843 1.327 . S
C841 H864 0.950 . S
C842 C841 1.349 . S
C842 C854 1.349 . S
C843 C841 1.327 . S
C843 C859 1.429 . S
C843 H865 0.950 . S
C844 H840 0.949 . S
C844 C852 1.574 . S
C844 C860 1.368 . S
H845 C853 0.950 . S
H846 C851 0.950 . S
H847 C852 0.949 . S
H848 C854 0.950 . S
H849 C855 0.950 . S
H850 C856 0.949 . S
C851 H846 0.950 . S
C851 C853 1.327 . S
C851 C857 1.429 . S
C852 C844 1.574 . S
C852 H847 0.949 . S
C852 C858 1.368 . S
C853 C837 1.349 . S
C853 H845 0.950 . S
C853 C851 1.327 . S
C854 C842 1.349 . S
C854 H848 0.950 . S
C854 C855 1.327 . S
C855 H849 0.950 . S
C855 C854 1.327 . S
C855 C859 1.429 . S
C856 C839 1.574 . S
C856 H850 0.949 . S
C856 C860 1.368 . S
C857 C838 1.429 . S
C857 C851 1.429 . S
C857 C858 1.523 . S
C858 C839 1.368 . S
C858 C852 1.368 . S
C858 C857 1.523 . S
C859 C843 1.429 . S
C859 C855 1.429 . S
C859 C860 1.523 . S
C860 C844 1.368 . S
C860 C856 1.368 . S
C860 C859 1.523 . S
H861 C836 0.950 . S
H862 C838 0.950 . S
H863 C839 0.949 . S
H864 C841 0.950 . S
H865 C843 0.950 . S
C866 C867 1.349 . S
C866 C868 1.327 . S
C866 H891 0.950 . S
C867 C866 1.349 . S
C867 C883 1.349 . S
C868 C866 1.327 . S
C868 C887 1.429 . S
C868 H892 0.950 . S
C869 C886 1.574 . S
C869 C888 1.368 . S
C869 H893 0.949 . S
H870 C874 0.949 . S
C871 C872 1.349 . S
C871 C873 1.327 . S
C871 H894 0.950 . S
C872 C871 1.349 . S
C872 C884 1.349 . S
C873 C871 1.327 . S
C873 C889 1.429 . S
C873 H895 0.950 . S
C874 H870 0.949 . S
C874 C882 1.574 . S
C874 C890 1.368 . S
H875 C883 0.950 . S
H876 C881 0.950 . S
H877 C882 0.949 . S
H878 C884 0.950 . S
H879 C885 0.950 . S
H880 C886 0.949 . S
C881 H876 0.950 . S
C881 C883 1.327 . S
C881 C887 1.429 . S
C882 C874 1.574 . S
C882 H877 0.949 . S
C882 C888 1.368 . S
C883 C867 1.349 . S
C883 H875 0.950 . S
C883 C881 1.327 . S
C884 C872 1.349 . S
C884 H878 0.950 . S
C884 C885 1.327 . S
C885 H879 0.950 . S
C885 C884 1.327 . S
C885 C889 1.429 . S
C886 C869 1.574 . S
C886 H880 0.949 . S
C886 C890 1.368 . S
C887 C868 1.429 . S
C887 C881 1.429 . S
C887 C888 1.523 . S
C888 C869 1.368 . S
C888 C882 1.368 . S
C888 C887 1.523 . S
C889 C873 1.429 . S
C889 C885 1.429 . S
C889 C890 1.523 . S
C890 C874 1.368 . S
C890 C886 1.368 . S
C890 C889 1.523 . S
H891 C866 0.950 . S
H892 C868 0.950 . S
H893 C869 0.949 . S
H894 C871 0.950 . S
H895 C873 0.950 . S
C177 C76 1.582 . S
C182 C97 1.618 . S
C212 C132 1.635 . S
C207 C88 1.584 . S
C242 C137 1.296 . S
C237 C52 1.269 . S
C272 C157 1.408 . S
C267 C64 1.380 . S
C302 C105 1.618 1_565 S
C297 C28 1.591 1_556 S
C327 C40 1.598 . S
C332 C122 1.635 . S
C357 C4 1.273 . S
C362 C145 1.296 . S
C387 C16 1.389 . S
C392 C165 1.408 1_655 S
C422 C115 1.091 . S
C417 C69 1.086 . S
C452 C124 0.787 . S
C447 C81 0.785 . S
C482 C155 1.202 . S
C477 C93 1.198 . S
C507 C57 0.840 . S
C512 C175 0.837 . S
C537 C21 1.081 . S
C542 C104 1.091 1_655 S
C572 C135 0.787 1_565 S
C567 C33 0.785 1_556 S
C602 C144 1.203 . S
C597 C45 1.189 1_556 S
C627 C9 0.839 1_556 S
C632 C164 0.837 . S
C657 C66 1.468 . S
C662 C102 1.480 . S
C687 C78 1.414 . S
C692 C125 1.460 . S
C722 C142 1.600 . S
C717 C90 1.565 . S
C752 C162 1.608 . S
C747 C54 1.582 . S
C777 C18 1.457 . S
C782 C112 1.481 . S
C812 C117 1.470 . S
C807 C30 1.401 . S
C842 C152 1.600 . S
C837 C42 1.547 . S
C867 C6 1.577 . S
C872 C172 1.608 . S
