# Generated by pormake.
# Topology pyr, (3,6)-cn, num edge types: 1
# Building blocks:
#     Node 0, Type 0, BuildingBlock: BETDIP_clean_linker_0, # of connection points: 3
#     Node 1, Type 0, BuildingBlock: BETDIP_clean_linker_0, # of connection points: 3
#     Node 2, Type 0, BuildingBlock: BETDIP_clean_linker_0, # of connection points: 3
#     Node 3, Type 0, BuildingBlock: BETDIP_clean_linker_0, # of connection points: 3
#     Node 4, Type 0, BuildingBlock: BETDIP_clean_linker_0, # of connection points: 3
#     Node 5, Type 0, BuildingBlock: BETDIP_clean_linker_0, # of connection points: 3
#     Node 6, Type 0, BuildingBlock: BETDIP_clean_linker_0, # of connection points: 3
#     Node 7, Type 0, BuildingBlock: BETDIP_clean_linker_0, # of connection points: 3
#     Node 8, Type 1, BuildingBlock: BETDEL_clean_sbu_0, # of connection points: 6
#     Node 9, Type 1, BuildingBlock: BETDEL_clean_sbu_0, # of connection points: 6
#     Node 10, Type 1, BuildingBlock: BETDEL_clean_sbu_0, # of connection points: 6
#     Node 11, Type 1, BuildingBlock: BETDEL_clean_sbu_0, # of connection points: 6
#     Edge 12, Type (0, 1), BuildingBlock: ZUJKAS_clean_linker_0, # of connection points: 2
#     Edge 13, Type (0, 1), BuildingBlock: ZUJKAS_clean_linker_0, # of connection points: 2
#     Edge 14, Type (0, 1), BuildingBlock: ZUJKAS_clean_linker_0, # of connection points: 2
#     Edge 15, Type (0, 1), BuildingBlock: ZUJKAS_clean_linker_0, # of connection points: 2
#     Edge 16, Type (0, 1), BuildingBlock: ZUJKAS_clean_linker_0, # of connection points: 2
#     Edge 17, Type (0, 1), BuildingBlock: ZUJKAS_clean_linker_0, # of connection points: 2
#     Edge 18, Type (0, 1), BuildingBlock: ZUJKAS_clean_linker_0, # of connection points: 2
#     Edge 19, Type (0, 1), BuildingBlock: ZUJKAS_clean_linker_0, # of connection points: 2
#     Edge 20, Type (0, 1), BuildingBlock: ZUJKAS_clean_linker_0, # of connection points: 2
#     Edge 21, Type (0, 1), BuildingBlock: ZUJKAS_clean_linker_0, # of connection points: 2
#     Edge 22, Type (0, 1), BuildingBlock: ZUJKAS_clean_linker_0, # of connection points: 2
#     Edge 23, Type (0, 1), BuildingBlock: ZUJKAS_clean_linker_0, # of connection points: 2
#     Edge 24, Type (0, 1), BuildingBlock: ZUJKAS_clean_linker_0, # of connection points: 2
#     Edge 25, Type (0, 1), BuildingBlock: ZUJKAS_clean_linker_0, # of connection points: 2
#     Edge 26, Type (0, 1), BuildingBlock: ZUJKAS_clean_linker_0, # of connection points: 2
#     Edge 27, Type (0, 1), BuildingBlock: ZUJKAS_clean_linker_0, # of connection points: 2
#     Edge 28, Type (0, 1), BuildingBlock: ZUJKAS_clean_linker_0, # of connection points: 2
#     Edge 29, Type (0, 1), BuildingBlock: ZUJKAS_clean_linker_0, # of connection points: 2
#     Edge 30, Type (0, 1), BuildingBlock: ZUJKAS_clean_linker_0, # of connection points: 2
#     Edge 31, Type (0, 1), BuildingBlock: ZUJKAS_clean_linker_0, # of connection points: 2
#     Edge 32, Type (0, 1), BuildingBlock: ZUJKAS_clean_linker_0, # of connection points: 2
#     Edge 33, Type (0, 1), BuildingBlock: ZUJKAS_clean_linker_0, # of connection points: 2
#     Edge 34, Type (0, 1), BuildingBlock: ZUJKAS_clean_linker_0, # of connection points: 2
#     Edge 35, Type (0, 1), BuildingBlock: ZUJKAS_clean_linker_0, # of connection points: 2
# Relax obj value: 0.063
# Max RMSD: 0.183
# Mean RMSD: 0.132
data_MOF--net-pyr--node1-BETDEL_clean_sbu_0--node2-BETDIP_clean_linker_0--edge1-ZUJKAS_clean_linker_0
_symmetry_space_group_name_H-M    P1
_symmetry_Int_Tables_number       1
_symmetry_cell_setting            triclinic
loop_
_symmetry_equiv_pos_as_xyz
'x, y, z'
_cell_length_a     47.312301
_cell_length_b     47.893808
_cell_length_c     46.901597
_cell_angle_alpha  93.313673
_cell_angle_beta   86.150343
_cell_angle_gamma 99.775913
loop_
_atom_site_label
_atom_site_type_symbol
_atom_site_fract_x
_atom_site_fract_y
_atom_site_fract_z
_atom_type_partial_charge
H0 H 0.17722 0.22302 0.19247 0.0
H1 H 0.25232 0.22142 0.13584 0.0
H2 H 0.22153 0.1517 0.18987 0.0
H3 H 0.18843 0.27092 0.18646 0.0
C4 C 0.19433 0.27065 0.16366 0.0
C5 C 0.19509 0.21289 0.18431 0.0
C6 C 0.19718 0.18607 0.19373 0.0
C7 C 0.21514 0.22575 0.16349 0.0
C8 C 0.23732 0.21169 0.15235 0.0
C9 C 0.23975 0.18492 0.16165 0.0
C10 C 0.21955 0.17222 0.1823 0.0
N11 N 0.21227 0.25161 0.15156 0.0
H12 H 0.27968 0.85232 0.7057 0.0
H13 H 0.28106 0.79 0.63594 0.0
H14 H 0.33406 0.78909 0.70665 0.0
H15 H 0.25742 0.81727 0.61337 0.0
C16 C 0.24829 0.83181 0.62846 0.0
C17 C 0.2879 0.83409 0.69573 0.0
C18 C 0.30789 0.82189 0.70953 0.0
C19 C 0.27822 0.8231 0.66915 0.0
C20 C 0.28862 0.79922 0.65618 0.0
C21 C 0.30855 0.78656 0.66983 0.0
C22 C 0.318 0.7981 0.69647 0.0
N23 N 0.25783 0.83668 0.6567 0.0
H24 H 0.68678 0.3867 0.83545 0.0
H25 H 0.61526 0.31814 0.83994 0.0
H26 H 0.68493 0.32141 0.895 0.0
H27 H 0.60837 0.32997 0.79595 0.0
C28 C 0.61636 0.35249 0.79452 0.0
C29 C 0.67624 0.36713 0.8447 0.0
C30 C 0.68882 0.35585 0.86674 0.0
C31 C 0.65006 0.3535 0.83446 0.0
C32 C 0.63601 0.32834 0.84683 0.0
C33 C 0.64834 0.31663 0.8689 0.0
C34 C 0.67478 0.3306 0.87863 0.0
N35 N 0.63841 0.36616 0.81217 0.0
H36 H 0.82718 0.61141 0.36586 0.0
H37 H 0.895 0.68135 0.35023 0.0
H38 H 0.84685 0.67689 0.43155 0.0
H39 H 0.8241 0.61468 0.31733 0.0
C40 C 0.84671 0.61707 0.31035 0.0
C41 C 0.84014 0.63094 0.37335 0.0
C42 C 0.83434 0.6424 0.40093 0.0
C43 C 0.86207 0.645 0.35513 0.0
C44 C 0.87864 0.67033 0.36476 0.0
C45 C 0.8729 0.68237 0.3921 0.0
C46 C 0.85107 0.66797 0.41024 0.0
N47 N 0.86764 0.63441 0.32683 0.0
H48 H 0.76748 0.81913 0.88763 0.0
H49 H 0.83928 0.81076 0.82916 0.0
H50 H 0.78294 0.8685 0.8124 0.0
H51 H 0.82987 0.76494 0.84435 0.0
C52 C 0.82572 0.76909 0.86714 0.0
C53 C 0.77943 0.82478 0.8677 0.0
C54 C 0.77196 0.84569 0.85112 0.0
C55 C 0.80273 0.81121 0.8592 0.0
C56 C 0.81995 0.81964 0.83461 0.0
C57 C 0.81331 0.84086 0.81802 0.0
C58 C 0.78875 0.85304 0.82591 0.0
N59 N 0.8094 0.79041 0.87685 0.0
H60 H 0.73774 0.1613 0.31711 0.0
H61 H 0.73217 0.22172 0.38805 0.0
H62 H 0.67929 0.22084 0.31698 0.0
H63 H 0.75643 0.19531 0.41044 0.0
C64 C 0.76723 0.18214 0.39523 0.0
C65 C 0.72833 0.1787 0.32737 0.0
C66 C 0.70735 0.18972 0.3138 0.0
C67 C 0.73744 0.18986 0.35414 0.0
C68 C 0.72541 0.21269 0.36748 0.0
C69 C 0.70418 0.22387 0.35426 0.0
C70 C 0.69555 0.21233 0.32736 0.0
N71 N 0.75875 0.17749 0.36658 0.0
H72 H 0.32314 0.63587 0.18823 0.0
H73 H 0.39534 0.70364 0.18256 0.0
H74 H 0.32417 0.70205 0.12985 0.0
H75 H 0.40502 0.68962 0.22447 0.0
C76 C 0.39634 0.66723 0.22576 0.0
C77 C 0.33374 0.65531 0.17877 0.0
C78 C 0.32014 0.66767 0.15822 0.0
C79 C 0.36064 0.66817 0.18799 0.0
C80 C 0.37445 0.6936 0.17594 0.0
C81 C 0.36126 0.70623 0.15513 0.0
C82 C 0.33415 0.693 0.14645 0.0
N83 N 0.37304 0.65461 0.20911 0.0
H84 H 0.111 0.36217 0.6657 0.0
H85 H 0.17519 0.43438 0.64567 0.0
H86 H 0.17228 0.3572 0.59431 0.0
H87 H 0.16521 0.45124 0.68764 0.0
C88 C 0.14617 0.43905 0.69774 0.0
C89 C 0.129 0.37198 0.65217 0.0
C90 C 0.13946 0.35656 0.62856 0.0
C91 C 0.14201 0.39982 0.659 0.0
C92 C 0.16526 0.41268 0.6414 0.0
C93 C 0.17633 0.39742 0.61804 0.0
C94 C 0.16315 0.36947 0.61161 0.0
N95 N 0.13201 0.41349 0.6845 0.0
Dy96 Dy 0.0279 0.02579 0.48484 0.0
C97 C 0.98697 0.97995 0.59238 0.0
C98 C 0.04712 0.05276 0.43591 0.0
Dy99 Dy 0.00266 0.00768 0.54311 0.0
O100 O 0.06297 0.04902 0.4564 0.0
O101 O 0.02053 0.04169 0.44203 0.0
O102 O 0.05651 0.99302 0.48372 0.0
O103 O 0.04586 0.01308 0.52312 0.0
C104 C 0.05832 0.99378 0.51124 0.0
C105 C 0.97077 0.03818 0.51629 0.0
O106 O 0.03325 0.04635 0.55587 0.0
O107 O 0.03334 0.06612 0.51213 0.0
O108 O 0.98042 1.00424 0.58693 0.0
O109 O 0.0024 0.9709 0.57103 0.0
O110 O 0.97157 0.03826 0.54387 0.0
O111 O 0.98448 0.01972 0.50472 0.0
O112 O 0.00215 0.98483 0.47025 0.0
O113 O 0.99025 0.968 0.51573 0.0
C114 C 0.03851 0.06855 0.53963 0.0
C115 C 0.99107 0.9643 0.48746 0.0
Dy116 Dy 0.52514 0.02354 0.03381 0.0
C117 C 0.44409 0.95976 0.95496 0.0
C118 C 0.55702 0.05519 0.07412 0.0
Dy119 Dy 0.48204 0.99613 0.98627 0.0
O120 O 0.53331 0.0377 0.07931 0.0
O121 O 0.56336 0.05564 0.04668 0.0
O122 O 0.52628 0.97967 0.04748 0.0
O123 O 0.489 0.9883 0.03053 0.0
C124 C 0.50094 0.96898 0.0391 0.0
C125 C 0.51183 0.04674 0.97066 0.0
O126 O 0.45273 0.0152 0.01808 0.0
O127 O 0.48761 0.04646 0.04209 0.0
O128 O 0.44234 0.9862 0.96146 0.0
O129 O 0.46638 0.95301 0.96603 0.0
O130 O 0.49312 0.03121 0.95481 0.0
O131 O 0.51297 0.03381 0.99293 0.0
O132 O 0.55578 0.00842 1.00074 0.0
O133 O 0.52215 0.97817 0.97388 0.0
C134 C 0.46051 0.0373 0.03591 0.0
C135 C 0.54894 0.98827 0.98055 0.0
Dy136 Dy 0.51881 0.48332 0.48852 0.0
C137 C 0.46463 0.56949 0.55262 0.0
C138 C 0.5504 0.4447 0.46355 0.0
Dy139 Dy 0.49627 0.53127 0.52689 0.0
O140 O 0.52541 0.43855 0.477 0.0
O141 O 0.558 0.47207 0.46327 0.0
O142 O 0.47365 0.46564 0.47751 0.0
O143 O 0.48176 0.4864 0.51771 0.0
C144 C 0.46244 0.4754 0.50134 0.0
C145 C 0.55271 0.53909 0.514 0.0
O146 O 0.50503 0.50437 0.56149 0.0
O147 O 0.53353 0.47785 0.53237 0.0
O148 O 0.49085 0.5756 0.54196 0.0
O149 O 0.45573 0.54233 0.5496 0.0
O150 O 0.54153 0.54887 0.53783 0.0
O151 O 0.5333 0.52816 0.49772 0.0
O152 O 0.50952 0.50985 0.45374 0.0
O153 O 0.4824 0.5377 0.48298 0.0
C154 C 0.52317 0.48595 0.55803 0.0
C155 C 0.49212 0.52898 0.4573 0.0
Dy156 Dy 0.00943 0.48517 0.01805 0.0
C157 C 0.96987 0.59094 0.00971 0.0
C158 C 0.03577 0.43897 0.01967 0.0
Dy159 Dy 0.99567 0.54429 0.01061 0.0
O160 O 0.01142 0.44192 0.03295 0.0
O161 O 0.0455 0.4611 0.00496 0.0
O162 O 0.9716 0.47635 0.04961 0.0
O163 O 0.99449 0.51779 0.04663 0.0
C164 C 0.97261 0.50282 0.05785 0.0
C165 C 0.03233 0.52643 0.97055 0.0
O166 O 0.03043 0.55646 0.04111 0.0
O167 O 0.04811 0.51404 0.03493 0.0
O168 O 0.99384 0.58765 0.99585 0.0
O169 O 0.96008 0.56883 0.02438 0.0
O170 O 0.03339 0.5529 0.97885 0.0
O171 O 0.01045 0.51163 0.98194 0.0
O172 O 0.97514 0.47317 0.98704 0.0
O173 O 0.95691 0.51529 0.99385 0.0
C174 C 0.05067 0.54101 0.0443 0.0
C175 C 0.95467 0.48843 0.98412 0.0
H176 H 0.16804 0.13184 0.19183 0.0
H177 H 0.13535 0.10826 0.22908 0.0
H178 H 0.14685 0.18556 0.28214 0.0
H179 H 0.17894 0.20937 0.24464 0.0
H180 H 0.14881 0.0985 0.28055 0.0
H181 H 0.06134 0.16228 0.2919 0.0
H182 H 0.08748 0.165 0.2619 0.0
H183 H 0.09579 0.18413 0.29532 0.0
C184 C 0.1633 0.14383 0.21135 0.0
C185 C 0.176 0.17238 0.21545 0.0
C186 C 0.14456 0.13041 0.23253 0.0
C187 C 0.13828 0.14525 0.25824 0.0
C188 C 0.15067 0.1739 0.26218 0.0
H189 H 0.10138 0.07938 0.42369 0.0
H190 H 0.12102 0.1009 0.37913 0.0
C191 C 0.16916 0.18744 0.24085 0.0
C192 C 0.12116 0.13006 0.28196 0.0
H193 H 0.06566 0.13378 0.33173 0.0
C194 C 0.13037 0.10601 0.29144 0.0
C195 C 0.09683 0.13955 0.29594 0.0
C196 C 0.0846 0.16397 0.28553 0.0
C197 C 0.11674 0.09195 0.31526 0.0
C198 C 0.09376 0.10269 0.33048 0.0
C199 C 0.0836 0.12589 0.32026 0.0
C200 C 0.0811 0.09091 0.35782 0.0
C201 C 0.12724 0.06583 0.32401 0.0
C202 C 0.05184 0.0792 0.36098 0.0
C203 C 0.04046 0.06711 0.38663 0.0
C204 C 0.05825 0.06669 0.40935 0.0
C205 C 0.08728 0.07917 0.40638 0.0
C206 C 0.09856 0.09133 0.38091 0.0
H207 H 0.13824 0.05548 0.30567 0.0
H208 H 0.14296 0.072 0.34072 0.0
H209 H 0.10926 0.05014 0.33288 0.0
H210 H 0.038 0.07892 0.34345 0.0
H211 H 0.01796 0.05771 0.38851 0.0
H212 H 0.31555 0.79428 0.75723 0.0
H213 H 0.33589 0.81511 0.80191 0.0
H214 H 0.34554 0.89855 0.76882 0.0
H215 H 0.32557 0.87791 0.72401 0.0
H216 H 0.3962 0.88363 0.79234 0.0
H217 H 0.29826 0.8646 0.86586 0.0
H218 H 0.30616 0.83484 0.84335 0.0
H219 H 0.29659 0.86488 0.82749 0.0
C220 C 0.32196 0.81707 0.75952 0.0
C221 C 0.31892 0.83448 0.73714 0.0
C222 C 0.33334 0.82893 0.78511 0.0
C223 C 0.34192 0.85836 0.7887 0.0
C224 C 0.33883 0.87579 0.76648 0.0
H225 H 0.39701 0.97158 0.93086 0.0
H226 H 0.37104 0.94453 0.89195 0.0
C227 C 0.32729 0.86399 0.74099 0.0
C228 C 0.35541 0.87095 0.81507 0.0
H229 H 0.34193 0.88407 0.88664 0.0
C230 C 0.3844 0.88365 0.81299 0.0
C231 C 0.33982 0.87104 0.84187 0.0
C232 C 0.30842 0.85831 0.84495 0.0
C233 C 0.39829 0.89648 0.83707 0.0
C234 C 0.3828 0.89639 0.86392 0.0
C235 C 0.35376 0.88378 0.86603 0.0
C236 C 0.39622 0.91068 0.88966 0.0
C237 C 0.42928 0.9106 0.83354 0.0
C238 C 0.41836 0.90009 0.90176 0.0
C239 C 0.43313 0.91542 0.92406 0.0
C240 C 0.426 0.94159 0.93446 0.0
C241 C 0.40296 0.95148 0.92319 0.0
C242 C 0.38811 0.93607 0.90102 0.0
H243 H 0.43666 0.91297 0.81069 0.0
H244 H 0.4324 0.93189 0.84472 0.0
H245 H 0.44306 0.89761 0.84328 0.0
H246 H 0.42473 0.88039 0.89338 0.0
H247 H 0.4508 0.90733 0.9324 0.0
H248 H 0.57962 0.33045 0.75395 0.0
H249 H 0.56356 0.35492 0.71508 0.0
H250 H 0.61331 0.4337 0.74533 0.0
H251 H 0.62987 0.40927 0.78383 0.0
H252 H 0.53353 0.39916 0.71608 0.0
H253 H 0.64145 0.42892 0.66173 0.0
H254 H 0.63451 0.40371 0.68951 0.0
H255 H 0.63917 0.44114 0.69859 0.0
C256 C 0.58715 0.35299 0.75224 0.0
C257 C 0.60618 0.36786 0.77173 0.0
C258 C 0.57793 0.36695 0.73008 0.0
C259 C 0.58761 0.39606 0.72699 0.0
C260 C 0.60609 0.41112 0.74688 0.0
H261 H 0.51137 0.49983 0.61478 0.0
H262 H 0.52668 0.47914 0.65651 0.0
C263 C 0.61542 0.39713 0.76898 0.0
C264 C 0.57829 0.41053 0.70292 0.0
H265 H 0.60333 0.44766 0.64379 0.0
C266 C 0.54877 0.40979 0.70027 0.0
C267 C 0.5982 0.42411 0.68212 0.0
C268 C 0.63008 0.42435 0.68288 0.0
C269 C 0.53862 0.42227 0.67743 0.0
C270 C 0.55856 0.43637 0.65697 0.0
C271 C 0.58807 0.43709 0.65963 0.0
C272 C 0.54932 0.44933 0.63185 0.0
C273 C 0.50661 0.41951 0.67498 0.0
C274 C 0.55758 0.44003 0.60411 0.0
C275 C 0.54915 0.45199 0.58025 0.0
C276 C 0.53224 0.4736 0.58356 0.0
C277 C 0.52418 0.48309 0.61141 0.0
C278 C 0.53278 0.47116 0.63532 0.0
H279 H 0.49452 0.40218 0.68792 0.0
H280 H 0.49953 0.43963 0.68294 0.0
H281 H 0.50089 0.41533 0.65238 0.0
H282 H 0.57041 0.42327 0.60089 0.0
H283 H 0.5558 0.44411 0.55918 0.0
H284 H 0.81135 0.58899 0.27112 0.0
H285 H 0.82515 0.56627 0.2251 0.0
H286 H 0.91457 0.59263 0.24151 0.0
H287 H 0.90108 0.61536 0.28719 0.0
H288 H 0.865 0.59407 0.17777 0.0
H289 H 0.90113 0.50337 0.22507 0.0
H290 H 0.87653 0.52398 0.24398 0.0
H291 H 0.91434 0.53765 0.24127 0.0
C292 C 0.83393 0.58992 0.26479 0.0
C293 C 0.85513 0.60385 0.28262 0.0
C294 C 0.84173 0.57703 0.23861 0.0
C295 C 0.87081 0.57767 0.23021 0.0
C296 C 0.892 0.59176 0.24788 0.0
H297 H 0.97577 0.55671 0.08053 0.0
H298 H 0.94561 0.57349 0.12 0.0
C299 C 0.88425 0.60479 0.27389 0.0
C300 C 0.87942 0.56364 0.20301 0.0
H301 H 0.91599 0.51155 0.17631 0.0
C302 C 0.87577 0.57576 0.17729 0.0
C303 C 0.89304 0.53957 0.20261 0.0
C304 C 0.89633 0.52515 0.22967 0.0
C305 C 0.88689 0.56526 0.15111 0.0
C306 C 0.9022 0.54232 0.15095 0.0
C307 C 0.90439 0.52926 0.17654 0.0
C308 C 0.91809 0.53285 0.12501 0.0
C309 C 0.88259 0.57906 0.12398 0.0
C310 C 0.91275 0.5044 0.11495 0.0
C311 C 0.9301 0.49473 0.09254 0.0
C312 C 0.95315 0.51335 0.08009 0.0
C313 C 0.95806 0.54196 0.08973 0.0
C314 C 0.94071 0.55161 0.11209 0.0
H315 H 0.86339 0.58971 0.12634 0.0
H316 H 0.90161 0.59542 0.11902 0.0
H317 H 0.88013 0.5633 0.10562 0.0
H318 H 0.89553 0.48957 0.12483 0.0
H319 H 0.92586 0.47258 0.0854 0.0
H320 H 0.23518 0.12964 0.14226 0.0
H321 H 0.2737 0.10506 0.12155 0.0
H322 H 0.3351 0.18188 0.13239 0.0
H323 H 0.29672 0.20664 0.15326 0.0
H324 H 0.31447 0.12648 0.07067 0.0
H325 H 0.36626 0.11492 0.17162 0.0
H326 H 0.32899 0.11898 0.17126 0.0
H327 H 0.35681 0.14888 0.1655 0.0
C328 C 0.25694 0.14121 0.14045 0.0
C329 C 0.26303 0.17 0.1494 0.0
C330 C 0.27881 0.1272 0.12853 0.0
C331 C 0.30711 0.1417 0.1257 0.0
C332 C 0.31334 0.17039 0.13464 0.0
H333 H 0.46787 0.08816 0.06643 0.0
H334 H 0.43061 0.1139 0.08751 0.0
C335 C 0.29143 0.18449 0.14636 0.0
C336 C 0.33003 0.1269 0.11276 0.0
H337 H 0.38823 0.09868 0.12867 0.0
C338 C 0.33062 0.12033 0.08326 0.0
C339 C 0.35105 0.11923 0.12938 0.0
C340 C 0.35087 0.12566 0.16125 0.0
C341 C 0.352 0.10637 0.06975 0.0
C342 C 0.37276 0.09814 0.08644 0.0
C343 C 0.37222 0.10494 0.11598 0.0
C344 C 0.39519 0.08239 0.07368 0.0
C345 C 0.35248 0.10115 0.03769 0.0
C346 C 0.38757 0.05593 0.05931 0.0
C347 C 0.40879 0.04124 0.04705 0.0
C348 C 0.43802 0.05258 0.04932 0.0
C349 C 0.44556 0.07882 0.06429 0.0
C350 C 0.42432 0.09358 0.07634 0.0
H351 H 0.34077 0.11577 0.02744 0.0
H352 H 0.37485 0.10376 0.02816 0.0
H353 H 0.3418 0.07913 0.03258 0.0
H354 H 0.3652 0.04658 0.05767 0.0
H355 H 0.40223 0.02095 0.03594 0.0
H356 H 0.22847 0.8299 0.57526 0.0
H357 H 0.19429 0.85745 0.55812 0.0
H358 H 0.18584 0.89756 0.64226 0.0
H359 H 0.22017 0.87048 0.65938 0.0
H360 H 0.13728 0.85927 0.57723 0.0
H361 H 0.20526 0.96522 0.59105 0.0
H362 H 0.21942 0.9326 0.59192 0.0
H363 H 0.1994 0.945 0.62261 0.0
C364 C 0.21934 0.84465 0.59004 0.0
C365 C 0.22715 0.84816 0.61855 0.0
C366 C 0.19982 0.86034 0.58027 0.0
C367 C 0.18786 0.87989 0.5988 0.0
C368 C 0.19526 0.88306 0.62743 0.0
H369 H 0.0694 0.99617 0.56807 0.0
H370 H 0.09907 0.96766 0.59132 0.0
C371 C 0.2148 0.86742 0.63721 0.0
C372 C 0.16742 0.8967 0.58819 0.0
H373 H 0.15792 0.96437 0.5773 0.0
C374 C 0.14179 0.88225 0.57725 0.0
C375 C 0.17327 0.9267 0.58838 0.0
C376 C 0.20092 0.94336 0.59888 0.0
C377 C 0.12185 0.89697 0.56646 0.0
C378 C 0.12792 0.92692 0.56622 0.0
C379 C 0.15329 0.94142 0.57763 0.0
C380 C 0.10907 0.94347 0.55265 0.0
C381 C 0.09436 0.88034 0.55558 0.0
C382 C 0.10507 0.93944 0.52324 0.0
C383 C 0.08831 0.95566 0.50999 0.0
C384 C 0.07532 0.97636 0.52586 0.0
C385 C 0.07919 0.98035 0.55535 0.0
C386 C 0.09609 0.96412 0.56862 0.0
H387 H 0.08922 0.85898 0.56457 0.0
H388 H 0.07601 0.89177 0.56097 0.0
H389 H 0.0968 0.87742 0.53195 0.0
H390 H 0.11532 0.92403 0.5104 0.0
H391 H 0.08574 0.95215 0.48722 0.0
H392 H 0.73767 0.37677 0.835 0.0
H393 H 0.78431 0.39876 0.8525 0.0
H394 H 0.74946 0.38983 0.93951 0.0
H395 H 0.70304 0.36735 0.92213 0.0
H396 H 0.80046 0.44617 0.8847 0.0
H397 H 0.82007 0.35369 0.94136 0.0
H398 H 0.79169 0.35132 0.91706 0.0
H399 H 0.7867 0.36465 0.95342 0.0
C400 C 0.73998 0.37959 0.85785 0.0
C401 C 0.71681 0.37015 0.87721 0.0
C402 C 0.76664 0.39207 0.86783 0.0
C403 C 0.77058 0.39539 0.89732 0.0
C404 C 0.7472 0.38671 0.91667 0.0
H405 H 0.90429 0.50884 0.98256 0.0
H406 H 0.86072 0.48638 0.95982 0.0
C407 C 0.72066 0.37398 0.90672 0.0
C408 C 0.79896 0.40837 0.90789 0.0
H409 H 0.85031 0.3978 0.95203 0.0
C410 C 0.81147 0.43551 0.89925 0.0
C411 C 0.81364 0.39425 0.92643 0.0
C412 C 0.80249 0.36425 0.93487 0.0
C413 C 0.83782 0.44925 0.9093 0.0
C414 C 0.85166 0.43577 0.92914 0.0
C415 C 0.83955 0.4083 0.93711 0.0
C416 C 0.87848 0.44984 0.94222 0.0
C417 C 0.8507 0.47788 0.89824 0.0
C418 C 0.90278 0.43645 0.94063 0.0
C419 C 0.92763 0.44904 0.95404 0.0
C420 C 0.92868 0.47533 0.96927 0.0
C421 C 0.90434 0.48874 0.97074 0.0
C422 C 0.87943 0.476 0.95757 0.0
H423 H 0.84274 0.4809 0.87706 0.0
H424 H 0.84438 0.49473 0.91337 0.0
H425 H 0.87452 0.48066 0.89622 0.0
H426 H 0.9025 0.41617 0.92905 0.0
H427 H 0.94598 0.43814 0.95247 0.0
H428 H 0.81546 0.58572 0.40859 0.0
H429 H 0.76953 0.56414 0.43154 0.0
H430 H 0.7507 0.64726 0.45716 0.0
H431 H 0.79573 0.66902 0.43328 0.0
H432 H 0.74225 0.56829 0.4879 0.0
H433 H 0.68588 0.61195 0.40502 0.0
H434 H 0.72397 0.61124 0.40187 0.0
H435 H 0.71012 0.63824 0.42416 0.0
C436 C 0.80158 0.59939 0.41922 0.0
C437 C 0.80907 0.62909 0.41874 0.0
C438 C 0.77551 0.58702 0.43252 0.0
C439 C 0.75663 0.60418 0.44554 0.0
C440 C 0.7649 0.63372 0.44682 0.0
H441 H 0.59687 0.56362 0.54621 0.0
H442 H 0.64758 0.57605 0.53021 0.0
C443 C 0.79079 0.6461 0.4334 0.0
C444 C 0.7273 0.59147 0.45558 0.0
H445 H 0.65694 0.59105 0.44386 0.0
C446 C 0.72353 0.57309 0.47826 0.0
C447 C 0.70305 0.59736 0.44248 0.0
C448 C 0.70586 0.61555 0.41685 0.0
C449 C 0.69592 0.56105 0.48878 0.0
C450 C 0.67166 0.56802 0.47649 0.0
C451 C 0.67557 0.58586 0.45336 0.0
C452 C 0.64188 0.5576 0.4873 0.0
C453 C 0.69297 0.54078 0.51266 0.0
C454 C 0.62186 0.54341 0.46841 0.0
C455 C 0.59289 0.53685 0.47732 0.0
C456 C 0.58351 0.54419 0.50534 0.0
C457 C 0.60364 0.55764 0.52452 0.0
C458 C 0.63262 0.56447 0.5155 0.0
H459 H 0.71268 0.53123 0.51373 0.0
H460 H 0.68952 0.5525 0.53337 0.0
H461 H 0.67435 0.52347 0.51002 0.0
H462 H 0.62853 0.53816 0.44648 0.0
H463 H 0.57775 0.52687 0.46199 0.0
H464 H 0.15854 0.30776 0.18031 0.0
H465 H 0.13448 0.33512 0.1497 0.0
H466 H 0.17763 0.30126 0.07493 0.0
H467 H 0.20163 0.27382 0.10529 0.0
H468 H 0.1593 0.37586 0.10815 0.0
H469 H 0.09034 0.28113 0.06057 0.0
H470 H 0.1087 0.28 0.09291 0.0
H471 H 0.12832 0.28049 0.05879 0.0
C472 C 0.16301 0.30635 0.15736 0.0
C473 C 0.18178 0.28863 0.14517 0.0
C474 C 0.1493 0.32193 0.13995 0.0
C475 C 0.15405 0.31983 0.11011 0.0
C476 C 0.17341 0.30277 0.09791 0.0
H477 H 0.09072 0.43505 1.00047 0.0
H478 H 0.12126 0.40397 0.0181 0.0
C479 C 0.18718 0.28724 0.11531 0.0
C480 C 0.13833 0.33526 0.09184 0.0
H481 H 0.08556 0.32568 0.0443 0.0
C482 C 0.14335 0.36497 0.09397 0.0
C483 C 0.11742 0.32081 0.07362 0.0
C484 C 0.1106 0.28885 0.07136 0.0
C485 C 0.12766 0.38074 0.07863 0.0
C486 C 0.10669 0.36631 0.06043 0.0
C487 C 0.10193 0.33659 0.058 0.0
C488 C 0.08765 0.38175 0.04603 0.0
C489 C 0.1328 0.41265 0.08291 0.0
C490 C 0.0584 0.3784 0.05479 0.0
C491 C 0.04096 0.39593 0.04467 0.0
C492 C 0.05254 0.417 0.02559 0.0
C493 C 0.08134 0.419 0.01526 0.0
C494 C 0.0988 0.40143 0.02542 0.0
H495 H 0.14589 0.42002 0.10154 0.0
H496 H 0.14443 0.42216 0.06353 0.0
H497 H 0.11209 0.42071 0.08614 0.0
H498 H 0.04941 0.36322 0.0706 0.0
H499 H 0.01879 0.39393 0.0529 0.0
H500 H 0.64409 0.30289 0.92522 0.0
H501 H 0.62377 0.25729 0.94527 0.0
H502 H 0.59895 0.22385 0.86161 0.0
H503 H 0.62033 0.26892 0.84115 0.0
H504 H 0.56932 0.2273 0.94688 0.0
H505 H 0.64343 0.16487 0.88575 0.0
H506 H 0.64962 0.20315 0.88758 0.0
H507 H 0.6249 0.18372 0.8631 0.0
C508 C 0.63459 0.28574 0.911 0.0
C509 C 0.63416 0.28952 0.88148 0.0
C510 C 0.62281 0.25975 0.92255 0.0
C511 C 0.61039 0.23696 0.90486 0.0
C512 C 0.60906 0.24091 0.87557 0.0
H513 H 0.5141 0.0709 0.91979 0.0
H514 H 0.53979 0.1174 0.90648 0.0
C515 C 0.62094 0.26686 0.86396 0.0
C516 C 0.59856 0.20913 0.91704 0.0
H517 H 0.60196 0.13837 0.90942 0.0
C518 C 0.57668 0.20789 0.93895 0.0
C519 C 0.60839 0.18384 0.90687 0.0
C520 C 0.63308 0.18392 0.88474 0.0
C521 C 0.56351 0.1819 0.95003 0.0
C522 C 0.57262 0.15657 0.93905 0.0
C523 C 0.59501 0.15787 0.91774 0.0
C524 C 0.55766 0.12832 0.94768 0.0
C525 C 0.5392 0.18148 0.9726 0.0
C526 C 0.55947 0.11894 0.97524 0.0
C527 C 0.54487 0.09217 0.98289 0.0
C528 C 0.52826 0.07459 0.96307 0.0
C529 C 0.52673 0.08403 0.93551 0.0
C530 C 0.5414 0.11056 0.92785 0.0
H531 H 0.53228 0.2025 0.97621 0.0
H532 H 0.52045 0.16554 0.96639 0.0
H533 H 0.54619 0.17526 0.9931 0.0
H534 H 0.57214 0.13229 0.99077 0.0
H535 H 0.54628 0.08539 0.0043 0.0
H536 H 0.8494 0.72542 0.41964 0.0
H537 H 0.8733 0.77334 0.43205 0.0
H538 H 0.95375 0.75297 0.39525 0.0
H539 H 0.93013 0.70437 0.38363 0.0
H540 H 0.95867 0.78234 0.44788 0.0
H541 H 0.89914 0.83577 0.37575 0.0
H542 H 0.8757 0.81274 0.39922 0.0
H543 H 0.89929 0.79803 0.37298 0.0
C544 C 0.87227 0.73093 0.41454 0.0
C545 C 0.8879 0.71107 0.40069 0.0
C546 C 0.88579 0.75848 0.42125 0.0
C547 C 0.91511 0.76682 0.41398 0.0
C548 C 0.931 0.74696 0.40072 0.0
H549 H 0.99353 0.94592 0.43103 0.0
H550 H 0.97772 0.89783 0.41115 0.0
C551 C 0.91748 0.7193 0.39403 0.0
C552 C 0.92912 0.79617 0.42094 0.0
H553 H 0.92365 0.8653 0.4126 0.0
C554 C 0.9513 0.80051 0.43991 0.0
C555 C 0.9198 0.81979 0.41005 0.0
C556 C 0.89738 0.8164 0.38813 0.0
C557 C 0.96344 0.82793 0.44944 0.0
C558 C 0.95268 0.85145 0.44012 0.0
C559 C 0.93154 0.84717 0.42002 0.0
C560 C 0.96214 0.88054 0.45197 0.0
C561 C 0.98753 0.83143 0.46954 0.0
C562 C 0.95793 0.88679 0.48136 0.0
C563 C 0.96689 0.91413 0.49277 0.0
C564 C 0.98001 0.93584 0.47494 0.0
C565 C 0.98351 0.92969 0.44535 0.0
C566 C 0.97458 0.90224 0.43396 0.0
H567 H 0.99898 0.81292 0.46755 0.0
H568 H 0.00332 0.85095 0.46542 0.0
H569 H 0.97849 0.8331 0.4919 0.0
H570 H 0.94766 0.87048 0.4955 0.0
H571 H 0.96366 0.91814 0.51562 0.0
H572 H 0.31606 0.73856 0.6951 0.0
H573 H 0.34023 0.70025 0.67433 0.0
H574 H 0.35222 0.74015 0.59333 0.0
H575 H 0.32795 0.77864 0.614 0.0
H576 H 0.33567 0.68068 0.58834 0.0
H577 H 0.42753 0.71166 0.65763 0.0
H578 H 0.39316 0.70506 0.67693 0.0
H579 H 0.40132 0.73427 0.65366 0.0
C580 C 0.32378 0.73916 0.67284 0.0
C581 C 0.32039 0.76181 0.65627 0.0
C582 C 0.33762 0.71727 0.66102 0.0
C583 C 0.34855 0.71766 0.63247 0.0
C584 C 0.34407 0.73953 0.61547 0.0
H585 H 0.48088 0.62669 0.55768 0.0
H586 H 0.45181 0.66208 0.57632 0.0
C587 C 0.33011 0.76144 0.62726 0.0
C588 C 0.36549 0.69577 0.6207 0.0
H589 H 0.42636 0.66862 0.6298 0.0
C590 C 0.35551 0.67802 0.59735 0.0
C591 C 0.3916 0.69263 0.63225 0.0
C592 C 0.40424 0.71207 0.65632 0.0
C593 C 0.37075 0.65692 0.58549 0.0
C594 C 0.39641 0.65324 0.59762 0.0
C595 C 0.40653 0.67125 0.62073 0.0
C596 C 0.41367 0.63148 0.58614 0.0
C597 C 0.35958 0.63919 0.55972 0.0
C598 C 0.40202 0.60246 0.5858 0.0
C599 C 0.41863 0.58217 0.57511 0.0
C600 C 0.4472 0.5906 0.56479 0.0
C601 C 0.45892 0.6196 0.56551 0.0
C602 C 0.44233 0.63983 0.57613 0.0
H603 H 0.34412 0.64931 0.54874 0.0
H604 H 0.37746 0.63556 0.54413 0.0
H605 H 0.34827 0.61825 0.56669 0.0
H606 H 0.38016 0.59548 0.59399 0.0
H607 H 0.4091 0.55994 0.57486 0.0
H608 H 0.8299 0.89597 0.8041 0.0
H609 H 0.86361 0.91452 0.76543 0.0
H610 H 0.87695 0.82964 0.73947 0.0
H611 H 0.84216 0.81067 0.77752 0.0
H612 H 0.92117 0.90944 0.75736 0.0
H613 H 0.85968 0.86121 0.66456 0.0
H614 H 0.84344 0.86266 0.70044 0.0
H615 H 0.86626 0.83695 0.69021 0.0
C616 C 0.8395 0.88113 0.78983 0.0
C617 C 0.8331 0.85179 0.79374 0.0
C618 C 0.859 0.89181 0.76792 0.0
C619 C 0.87258 0.87344 0.74946 0.0
C620 C 0.86637 0.84414 0.75323 0.0
H621 H 0.99005 0.92484 0.60145 0.0
H622 H 0.96611 0.89651 0.64091 0.0
C623 C 0.8467 0.83337 0.77514 0.0
C624 C 0.8936 0.88539 0.72673 0.0
H625 H 0.90454 0.88957 0.65432 0.0
C626 C 0.91767 0.90492 0.73482 0.0
C627 C 0.88905 0.87929 0.69736 0.0
C628 C 0.86313 0.85906 0.68748 0.0
C629 C 0.93688 0.91918 0.71432 0.0
C630 C 0.9317 0.9139 0.68505 0.0
C631 C 0.90839 0.89347 0.67685 0.0
C632 C 0.94849 0.93129 0.66276 0.0
C633 C 0.96229 0.94014 0.72411 0.0
C634 C 0.94653 0.96014 0.6622 0.0
C635 C 0.95994 0.97622 0.63972 0.0
C636 C 0.97556 0.96369 0.61748 0.0
C637 C 0.97824 0.935 0.61846 0.0
C638 C 0.96458 0.91882 0.64088 0.0
H639 H 0.96766 0.93613 0.74605 0.0
H640 H 0.98149 0.9393 0.7093 0.0
H641 H 0.95708 0.96189 0.72438 0.0
H642 H 0.93381 0.97 0.67868 0.0
H643 H 0.95747 0.99828 0.63938 0.0
H644 H 0.69738 0.21743 0.267 0.0
H645 H 0.67541 0.19668 0.22317 0.0
H646 H 0.67133 0.11288 0.25391 0.0
H647 H 0.69327 0.13346 0.29784 0.0
H648 H 0.68896 0.11732 0.19517 0.0
H649 H 0.58953 0.16273 0.22316 0.0
H650 H 0.62219 0.18812 0.22219 0.0
H651 H 0.61622 0.16174 0.24865 0.0
C652 C 0.69185 0.19457 0.26439 0.0
C653 C 0.69678 0.17708 0.28601 0.0
C654 C 0.67932 0.18277 0.23936 0.0
C655 C 0.6713 0.15329 0.23555 0.0
C656 C 0.67731 0.1357 0.25649 0.0
H657 H 0.54516 0.0548 0.13147 0.0
H658 H 0.57442 0.07964 0.16908 0.0
C659 C 0.68992 0.14748 0.28152 0.0
C660 C 0.65553 0.14078 0.21034 0.0
H661 H 0.59219 0.13772 0.1785 0.0
C662 C 0.66786 0.12184 0.19139 0.0
C663 C 0.62787 0.14653 0.20572 0.0
C664 C 0.61298 0.16569 0.22609 0.0
C665 C 0.6532 0.10839 0.16793 0.0
C666 C 0.62566 0.11436 0.16319 0.0
C667 C 0.61343 0.13341 0.18206 0.0
C668 C 0.60825 0.09963 0.13995 0.0
C669 C 0.66686 0.08724 0.14898 0.0
C670 C 0.61741 0.10291 0.11103 0.0
C671 C 0.60067 0.08868 0.08943 0.0
C672 C 0.57451 0.07109 0.09649 0.0
C673 C 0.56525 0.0682 0.12541 0.0
C674 C 0.58193 0.08238 0.14691 0.0
H675 H 0.68523 0.08071 0.15893 0.0
H676 H 0.6509 0.06802 0.1441 0.0
H677 H 0.67498 0.09694 0.12845 0.0
H678 H 0.63742 0.11653 0.10519 0.0
H679 H 0.60823 0.09132 0.06728 0.0
H680 H 0.3816 0.61034 0.23565 0.0
H681 H 0.39887 0.58451 0.27265 0.0
H682 H 0.45223 0.6615 0.30214 0.0
H683 H 0.43546 0.68735 0.26475 0.0
H684 H 0.48052 0.61582 0.29926 0.0
H685 H 0.37385 0.58934 0.35707 0.0
H686 H 0.37453 0.57741 0.32008 0.0
H687 H 0.38076 0.61479 0.32951 0.0
C688 C 0.39701 0.62178 0.25001 0.0
C689 C 0.40703 0.65096 0.24751 0.0
C690 C 0.40677 0.607 0.27124 0.0
C691 C 0.42646 0.62116 0.29052 0.0
C692 C 0.43694 0.65016 0.2876 0.0
H693 H 0.46133 0.57226 0.45646 0.0
H694 H 0.44654 0.5933 0.41502 0.0
C695 C 0.42731 0.66491 0.2663 0.0
C696 C 0.43602 0.60594 0.31391 0.0
H697 H 0.41175 0.56928 0.37352 0.0
C698 C 0.4655 0.60558 0.31548 0.0
C699 C 0.41642 0.59287 0.33525 0.0
C700 C 0.38466 0.59378 0.33565 0.0
C701 C 0.47593 0.5926 0.33783 0.0
C702 C 0.45627 0.57913 0.35889 0.0
C703 C 0.42678 0.57939 0.35723 0.0
C704 C 0.46583 0.56608 0.3838 0.0
C705 C 0.50795 0.59424 0.33917 0.0
C706 C 0.48149 0.54356 0.38012 0.0
C707 C 0.49021 0.53149 0.40391 0.0
C708 C 0.48314 0.54154 0.43183 0.0
C709 C 0.46719 0.5639 0.43535 0.0
C710 C 0.45865 0.576 0.41163 0.0
H711 H 0.52018 0.61106 0.3257 0.0
H712 H 0.51453 0.59848 0.36151 0.0
H713 H 0.51399 0.57367 0.33121 0.0
H714 H 0.48676 0.53513 0.35888 0.0
H715 H 0.50227 0.51418 0.4004 0.0
H716 H 0.10178 0.41309 0.73279 0.0
H717 H 0.08751 0.4288 0.7814 0.0
H718 H 0.1554 0.50122 0.77721 0.0
H719 H 0.16982 0.48569 0.72845 0.0
H720 H 0.12416 0.44047 0.83084 0.0
H721 H 0.07963 0.5338 0.7991 0.0
H722 H 0.08522 0.50485 0.77411 0.0
H723 H 0.11525 0.53054 0.78491 0.0
C724 C 0.11363 0.43241 0.74215 0.0
C725 C 0.13682 0.44834 0.72685 0.0
C726 C 0.10551 0.44125 0.76993 0.0
C727 C 0.12032 0.4662 0.78267 0.0
C728 C 0.14357 0.48205 0.76753 0.0
H729 H 0.07832 0.55661 0.94191 0.0
H730 H 0.10393 0.54148 0.89814 0.0
C731 C 0.15175 0.47318 0.73978 0.0
C732 C 0.11117 0.47575 0.81176 0.0
H733 H 0.079 0.52659 0.8483 0.0
C734 C 0.11437 0.45935 0.83478 0.0
C735 C 0.09864 0.50046 0.81664 0.0
C736 C 0.09423 0.51843 0.79244 0.0
C737 C 0.1052 0.46701 0.86276 0.0
C738 C 0.09192 0.49132 0.86757 0.0
C739 C 0.08927 0.508 0.84455 0.0
C740 C 0.07909 0.49914 0.8959 0.0
C741 C 0.11 0.44913 0.88688 0.0
C742 C 0.05692 0.48021 0.90929 0.0
C743 C 0.04244 0.48875 0.93432 0.0
C744 C 0.04962 0.51648 0.94607 0.0
C745 C 0.07234 0.53514 0.93317 0.0
C746 C 0.08696 0.52653 0.90823 0.0
H747 H 0.1282 0.43751 0.88136 0.0
H748 H 0.11439 0.46228 0.90688 0.0
H749 H 0.09043 0.43317 0.89099 0.0
H750 H 0.05004 0.45921 0.89978 0.0
H751 H 0.02494 0.47398 0.94386 0.0
H752 H 0.72136 0.82453 0.88088 0.0
H753 H 0.68377 0.85033 0.90007 0.0
H754 H 0.72788 0.9259 0.86035 0.0
H755 H 0.76718 0.90128 0.84388 0.0
H756 H 0.71111 0.93997 0.91013 0.0
H757 H 0.61827 0.87094 0.86402 0.0
H758 H 0.63642 0.85082 0.88562 0.0
H759 H 0.6547 0.86645 0.85389 0.0
C760 C 0.72336 0.84672 0.87645 0.0
C761 C 0.74756 0.86067 0.86075 0.0
C762 C 0.70141 0.86133 0.88695 0.0
C763 C 0.70253 0.88993 0.8811 0.0
C764 C 0.72634 0.90378 0.865 0.0
H765 H 0.55193 0.97039 0.92456 0.0
H766 H 0.59032 0.94908 0.89884 0.0
C767 C 0.74871 0.88945 0.8552 0.0
C768 C 0.6799 0.90593 0.89328 0.0
H769 H 0.60736 0.90246 0.90355 0.0
C770 C 0.68842 0.93192 0.9083 0.0
C771 C 0.65025 0.89585 0.89051 0.0
C772 C 0.63943 0.86965 0.87234 0.0
C773 C 0.66823 0.94772 0.92115 0.0
C774 C 0.6386 0.93652 0.9203 0.0
C775 C 0.63005 0.9109 0.90466 0.0
C776 C 0.61608 0.95078 0.9356 0.0
C777 C 0.67903 0.97649 0.93494 0.0
C778 C 0.61768 0.95882 0.96483 0.0
C779 C 0.59621 0.97179 0.97927 0.0
C780 C 0.57223 0.97592 0.96501 0.0
C781 C 0.57026 0.96738 0.93598 0.0
C782 C 0.59214 0.95518 0.92133 0.0
H783 H 0.7001 0.98602 0.9248 0.0
H784 H 0.66366 0.99139 0.93342 0.0
H785 H 0.68223 0.97413 0.95784 0.0
H786 H 0.63529 0.95469 0.97665 0.0
H787 H 0.59791 0.97777 0.0018 0.0
H788 H 0.78515 0.18425 0.44912 0.0
H789 H 0.82106 0.15935 0.46705 0.0
H790 H 0.8348 0.12129 0.38277 0.0
H791 H 0.79917 0.14631 0.36466 0.0
H792 H 0.81992 0.10035 0.46611 0.0
H793 H 0.91672 0.15433 0.4052 0.0
H794 H 0.8835 0.16835 0.40923 0.0
H795 H 0.88712 0.1393 0.38401 0.0
C796 C 0.79598 0.1707 0.4344 0.0
C797 C 0.7894 0.1673 0.40553 0.0
C798 C 0.81644 0.15648 0.44466 0.0
C799 C 0.83088 0.13875 0.42618 0.0
C800 C 0.82433 0.13528 0.39729 0.0
H801 H 0.95939 0.03402 0.45945 0.0
H802 H 0.9253 0.05759 0.4363 0.0
C803 C 0.80382 0.14948 0.38702 0.0
C804 C 0.852 0.12316 0.43747 0.0
H805 H 0.9229 0.11614 0.4327 0.0
C806 C 0.84244 0.10382 0.45882 0.0
C807 C 0.88132 0.12754 0.42776 0.0
C808 C 0.89294 0.14866 0.40545 0.0
C809 C 0.86139 0.08876 0.47076 0.0
C810 C 0.89083 0.09357 0.4615 0.0
C811 C 0.90033 0.11251 0.43977 0.0
C812 C 0.9122 0.07998 0.47504 0.0
C813 C 0.84963 0.0676 0.493 0.0
C814 C 0.91662 0.08529 0.50427 0.0
C815 C 0.93597 0.07192 0.51745 0.0
C816 C 0.95143 0.05309 0.50162 0.0
C817 C 0.94766 0.04837 0.47216 0.0
C818 C 0.92822 0.06179 0.45895 0.0
H819 H 0.82611 0.06053 0.49175 0.0
H820 H 0.86043 0.04868 0.49054 0.0
H821 H 0.85347 0.07766 0.51462 0.0
H822 H 0.90499 0.09974 0.51697 0.0
H823 H 0.93865 0.0762 0.54013 0.0
H824 H 0.27448 0.69377 0.14971 0.0
H825 H 0.22752 0.67206 0.13305 0.0
H826 H 0.25352 0.5898 0.12898 0.0
H827 H 0.30058 0.61137 0.14564 0.0
H828 H 0.21602 0.64204 0.08206 0.0
H829 H 0.17594 0.57504 0.17366 0.0
H830 H 0.20647 0.60324 0.17554 0.0
H831 H 0.21045 0.5695 0.15829 0.0
C832 C 0.27022 0.67105 0.14525 0.0
C833 C 0.29127 0.65428 0.149 0.0
C834 C 0.24333 0.65867 0.13586 0.0
C835 C 0.23687 0.62928 0.13015 0.0
C836 C 0.25779 0.61244 0.13391 0.0
H837 H 0.09571 0.51553 0.0566 0.0
H838 H 0.1402 0.53758 0.07808 0.0
C839 C 0.28469 0.6248 0.14338 0.0
C840 C 0.20873 0.6165 0.11898 0.0
H841 H 0.14879 0.56713 0.13217 0.0
C842 C 0.20122 0.62581 0.09311 0.0
C843 C 0.18948 0.59529 0.13343 0.0
C844 C 0.1958 0.58532 0.1619 0.0
C845 C 0.17526 0.61407 0.08098 0.0
C846 C 0.15611 0.59275 0.09533 0.0
C847 C 0.16353 0.58349 0.12125 0.0
C848 C 0.12853 0.5794 0.08341 0.0
C849 C 0.16889 0.62406 0.05252 0.0
C850 C 0.10698 0.59551 0.07979 0.0
C851 C 0.08146 0.58299 0.0675 0.0
C852 C 0.07701 0.55407 0.05869 0.0
C853 C 0.09841 0.53787 0.06301 0.0
C854 C 0.12387 0.55041 0.07534 0.0
H855 H 0.18845 0.63561 0.0413 0.0
H856 H 0.15952 0.60589 0.03841 0.0
H857 H 0.15301 0.63869 0.05605 0.0
H858 H 0.10998 0.61783 0.08634 0.0
H859 H 0.06541 0.59608 0.06462 0.0
H860 H 0.22452 0.42768 0.64033 0.0
H861 H 0.27069 0.44391 0.61531 0.0
H862 H 0.23644 0.4097 0.53531 0.0
H863 H 0.1896 0.39402 0.56014 0.0
H864 H 0.30137 0.40433 0.5839 0.0
H865 H 0.28096 0.49047 0.51704 0.0
H866 H 0.25813 0.47929 0.54816 0.0
H867 H 0.25604 0.45759 0.51565 0.0
C868 C 0.22648 0.42429 0.6173 0.0
C869 C 0.20336 0.40964 0.60218 0.0
C870 C 0.25294 0.43342 0.60308 0.0
C871 C 0.25682 0.42816 0.57351 0.0
C872 C 0.23367 0.41428 0.55811 0.0
H873 H 0.41806 0.45366 0.46813 0.0
H874 H 0.36694 0.44231 0.48362 0.0
C875 C 0.20708 0.40512 0.57235 0.0
C876 C 0.2859 0.43484 0.5596 0.0
H877 H 0.32762 0.47858 0.51278 0.0
C878 C 0.30711 0.4205 0.56828 0.0
C879 C 0.29309 0.45572 0.53905 0.0
C880 C 0.27099 0.47187 0.52943 0.0
C881 C 0.33557 0.42684 0.55733 0.0
C882 C 0.34303 0.4484 0.53754 0.0
C883 C 0.3217 0.46218 0.52811 0.0
C884 C 0.37319 0.4575 0.52745 0.0
C885 C 0.35748 0.41049 0.5671 0.0
C886 C 0.39327 0.47031 0.5469 0.0
C887 C 0.4223 0.47665 0.5382 0.0
C888 C 0.43161 0.47043 0.50987 0.0
C889 C 0.41135 0.45851 0.49014 0.0
C890 C 0.38224 0.45214 0.49888 0.0
H891 H 0.34715 0.39027 0.57657 0.0
H892 H 0.37258 0.40568 0.54903 0.0
H893 H 0.37016 0.42351 0.58367 0.0
H894 H 0.38654 0.47482 0.56898 0.0
H895 H 0.4375 0.48571 0.55386 0.0
H896 H 0.85399 0.72508 0.85442 0.0
H897 H 0.87347 0.6967 0.88769 0.0
H898 H 0.84132 0.7455 0.95907 0.0
H899 H 0.82189 0.77408 0.92591 0.0
H900 H 0.89943 0.73918 0.96148 0.0
H901 H 0.82942 0.636 0.94043 0.0
H902 H 0.8457 0.65204 0.90835 0.0
H903 H 0.82062 0.66926 0.93051 0.0
C904 C 0.85089 0.72957 0.87722 0.0
C905 C 0.83638 0.75162 0.8876 0.0
C906 C 0.86186 0.71329 0.89617 0.0
C907 C 0.85841 0.71877 0.9258 0.0
C908 C 0.84396 0.74085 0.93626 0.0
H909 H 0.91612 0.59678 0.0314 0.0
H910 H 0.88712 0.63119 0.01768 0.0
C911 C 0.83288 0.7571 0.9173 0.0
C912 C 0.87124 0.70224 0.94561 0.0
H913 H 0.87345 0.63442 0.96248 0.0
C914 C 0.89346 0.71632 0.96213 0.0
C915 C 0.86302 0.67254 0.9468 0.0
C916 C 0.83818 0.65658 0.9308 0.0
C917 C 0.90895 0.70117 0.97844 0.0
C918 C 0.90219 0.67124 0.97782 0.0
C919 C 0.87875 0.65738 0.96276 0.0
C920 C 0.9208 0.65364 0.98998 0.0
C921 C 0.9328 0.7173 0.99564 0.0
C922 C 0.94943 0.65521 0.97932 0.0
C923 C 0.96594 0.63567 0.98709 0.0
C924 C 0.95401 0.61411 0.00547 0.0
C925 C 0.9258 0.61329 0.01722 0.0
C926 C 0.90925 0.63286 0.0094 0.0
H927 H 0.92889 0.73914 0.0018 0.0
H928 H 0.93519 0.70629 0.01531 0.0
H929 H 0.95333 0.71911 0.98244 0.0
H930 H 0.95857 0.67063 0.9638 0.0
H931 H 0.9876 0.63667 0.97765 0.0
H932 H 0.33662 0.75131 0.14191 0.0
H933 H 0.35953 0.79432 0.11862 0.0
H934 H 0.44151 0.76618 0.11731 0.0
H935 H 0.4185 0.72232 0.13923 0.0
H936 H 0.40042 0.83617 0.13605 0.0
H937 H 0.43981 0.78577 0.03517 0.0
H938 H 0.41453 0.76642 0.06045 0.0
H939 H 0.45233 0.77291 0.06638 0.0
C940 C 0.35946 0.754 0.13627 0.0
C941 C 0.37562 0.73311 0.1422 0.0
C942 C 0.37256 0.77874 0.12313 0.0
C943 C 0.40214 0.78326 0.11564 0.0
C944 C 0.41852 0.76285 0.12218 0.0
H945 H 0.52443 0.926 0.05792 0.0
H946 H 0.49926 0.8803 0.07446 0.0
C947 C 0.40538 0.73795 0.13515 0.0
C948 C 0.41587 0.80974 0.10179 0.0
H949 H 0.45761 0.83508 0.04348 0.0
C950 C 0.41269 0.8359 0.11569 0.0
C951 C 0.43181 0.80942 0.07513 0.0
C952 C 0.43461 0.78213 0.05825 0.0
C953 C 0.42558 0.86167 0.10403 0.0
C954 C 0.44196 0.86128 0.07773 0.0
C955 C 0.445 0.83523 0.06366 0.0
C956 C 0.45709 0.88782 0.06524 0.0
C957 C 0.42222 0.88918 0.12021 0.0
C958 C 0.44172 0.9068 0.05387 0.0
C959 C 0.45608 0.93287 0.0442 0.0
C960 C 0.48596 0.94034 0.04601 0.0
C961 C 0.50137 0.92083 0.05642 0.0
C962 C 0.48705 0.89473 0.06584 0.0
H963 H 0.41232 0.88575 0.14215 0.0
H964 H 0.44343 0.90312 0.12172 0.0
H965 H 0.40835 0.90051 0.10848 0.0
H966 H 0.41859 0.90167 0.05301 0.0
H967 H 0.44372 0.94749 0.03618 0.0
H968 H 0.12405 0.31482 0.66685 0.0
H969 H 0.10729 0.26425 0.65623 0.0
H970 H 0.11067 0.27959 0.56627 0.0
H971 H 0.1272 0.33013 0.57667 0.0
H972 H 0.05865 0.23615 0.62666 0.0
H973 H 0.16195 0.21851 0.57141 0.0
H974 H 0.15859 0.24971 0.59406 0.0
H975 H 0.14756 0.24717 0.55792 0.0
C976 C 0.12081 0.30748 0.64485 0.0
C977 C 0.1271 0.32639 0.62255 0.0
C978 C 0.11141 0.2786 0.63884 0.0
C979 C 0.10832 0.26822 0.61046 0.0
C980 C 0.11358 0.28717 0.58827 0.0
H981 H 0.05448 0.11759 0.51176 0.0
H982 H 0.07188 0.16476 0.53228 0.0
C983 C 0.12297 0.31599 0.59424 0.0
C984 C 0.09983 0.23754 0.6038 0.0
H985 H 0.12166 0.18173 0.5651 0.0
C986 C 0.0725 0.22407 0.61353 0.0
C987 C 0.11814 0.22192 0.58689 0.0
C988 C 0.14831 0.23496 0.57717 0.0
C989 C 0.06238 0.19563 0.60546 0.0
C990 C 0.08028 0.18039 0.58756 0.0
C991 C 0.108 0.19358 0.57875 0.0
C992 C 0.0699 0.1515 0.57578 0.0
C993 C 0.03222 0.18246 0.61502 0.0
C994 C 0.06334 0.12838 0.59349 0.0
C995 C 0.05337 0.10123 0.58181 0.0
C996 C 0.04986 0.09689 0.55224 0.0
C997 C 0.05682 0.12014 0.53462 0.0
C998 C 0.06681 0.14714 0.54628 0.0
H999 H 0.01966 0.19844 0.62501 0.0
H1000 H 0.0207 0.17145 0.59661 0.0
H1001 H 0.03314 0.16643 0.63095 0.0
H1002 H 0.066 0.13134 0.61629 0.0
H1003 H 0.04824 0.08374 0.59594 0.0
H1004 H 0.64737 0.22899 0.35689 0.0
H1005 H 0.62534 0.26916 0.37616 0.0
H1006 H 0.70737 0.3119 0.40354 0.0
H1007 H 0.72996 0.27195 0.38354 0.0
H1008 H 0.65557 0.31064 0.4455 0.0
H1009 H 0.64169 0.34949 0.33874 0.0
H1010 H 0.63001 0.31212 0.34293 0.0
H1011 H 0.66745 0.32676 0.34439 0.0
C1012 C 0.66086 0.24699 0.3668 0.0
C1013 C 0.69055 0.2474 0.36828 0.0
C1014 C 0.64817 0.26988 0.37789 0.0
C1015 C 0.66482 0.29361 0.39086 0.0
C1016 C 0.69423 0.29378 0.39343 0.0
H1017 H 0.60269 0.45432 0.43404 0.0
H1018 H 0.6328 0.41899 0.41696 0.0
C1019 C 0.70704 0.27088 0.38215 0.0
C1020 C 0.65126 0.31825 0.40136 0.0
H1021 H 0.61727 0.36967 0.37862 0.0
C1022 C 0.64743 0.32375 0.43094 0.0
C1023 C 0.64092 0.33543 0.38225 0.0
C1024 C 0.64536 0.33091 0.35027 0.0
C1025 C 0.63251 0.34539 0.44192 0.0
C1026 C 0.62107 0.36176 0.42279 0.0
C1027 C 0.6259 0.35696 0.39322 0.0
C1028 C 0.60304 0.38318 0.43307 0.0
C1029 C 0.62891 0.35048 0.4739 0.0
C1030 C 0.57616 0.37465 0.44727 0.0
C1031 C 0.55891 0.39468 0.45677 0.0
C1032 C 0.56823 0.42361 0.45227 0.0
C1033 C 0.59501 0.43214 0.43777 0.0
C1034 C 0.61221 0.41203 0.42808 0.0
H1035 H 0.64466 0.34114 0.48528 0.0
H1036 H 0.63141 0.37354 0.47974 0.0
H1037 H 0.607 0.34049 0.48147 0.0
H1038 H 0.56848 0.35244 0.45089 0.0
H1039 H 0.53836 0.38751 0.46787 0.0
loop_
_geom_bond_atom_site_label_1
_geom_bond_atom_site_label_2
_geom_bond_distance
_geom_bond_site_symmetry_2
_ccdc_geom_bond_type
H0 C5 0.930 . S
H1 C8 0.930 . S
H2 C10 0.930 . S
H3 C4 1.016 . S
C4 H3 1.016 . S
C4 N11 1.286 . S
C5 H0 0.930 . S
C5 C6 1.397 . S
C5 C7 1.361 . S
C6 C5 1.397 . S
C6 C10 1.390 . S
C7 C5 1.361 . S
C7 C8 1.393 . S
C7 N11 1.413 . S
C8 H1 0.930 . S
C8 C7 1.393 . S
C8 C9 1.399 . S
C9 C8 1.399 . S
C9 C10 1.381 . S
C10 H2 0.930 . S
C10 C6 1.390 . S
C10 C9 1.381 . S
N11 C4 1.286 . S
N11 C7 1.413 . S
H12 C17 0.930 . S
H13 C20 0.930 . S
H14 C22 0.930 . S
H15 C16 1.016 . S
C16 H15 1.016 . S
C16 N23 1.286 . S
C17 H12 0.930 . S
C17 C18 1.397 . S
C17 C19 1.361 . S
C18 C17 1.397 . S
C18 C22 1.390 . S
C19 C17 1.361 . S
C19 C20 1.393 . S
C19 N23 1.413 . S
C20 H13 0.930 . S
C20 C19 1.393 . S
C20 C21 1.399 . S
C21 C20 1.399 . S
C21 C22 1.381 . S
C22 H14 0.930 . S
C22 C18 1.390 . S
C22 C21 1.381 . S
N23 C16 1.286 . S
N23 C19 1.413 . S
H24 C29 0.930 . S
H25 C32 0.930 . S
H26 C34 0.930 . S
H27 C28 1.016 . S
C28 H27 1.016 . S
C28 N35 1.286 . S
C29 H24 0.930 . S
C29 C30 1.397 . S
C29 C31 1.361 . S
C30 C29 1.397 . S
C30 C34 1.390 . S
C31 C29 1.361 . S
C31 C32 1.393 . S
C31 N35 1.413 . S
C32 H25 0.930 . S
C32 C31 1.393 . S
C32 C33 1.399 . S
C33 C32 1.399 . S
C33 C34 1.381 . S
C34 H26 0.930 . S
C34 C30 1.390 . S
C34 C33 1.381 . S
N35 C28 1.286 . S
N35 C31 1.413 . S
H36 C41 0.930 . S
H37 C44 0.930 . S
H38 C46 0.930 . S
H39 C40 1.016 . S
C40 H39 1.016 . S
C40 N47 1.286 . S
C41 H36 0.930 . S
C41 C42 1.397 . S
C41 C43 1.361 . S
C42 C41 1.397 . S
C42 C46 1.390 . S
C43 C41 1.361 . S
C43 C44 1.393 . S
C43 N47 1.413 . S
C44 H37 0.930 . S
C44 C43 1.393 . S
C44 C45 1.399 . S
C45 C44 1.399 . S
C45 C46 1.381 . S
C46 H38 0.930 . S
C46 C42 1.390 . S
C46 C45 1.381 . S
N47 C40 1.286 . S
N47 C43 1.413 . S
H48 C53 0.930 . S
H49 C56 0.930 . S
H50 C58 0.930 . S
H51 C52 1.016 . S
C52 H51 1.016 . S
C52 N59 1.286 . S
C53 H48 0.930 . S
C53 C54 1.397 . S
C53 C55 1.361 . S
C54 C53 1.397 . S
C54 C58 1.390 . S
C55 C53 1.361 . S
C55 C56 1.393 . S
C55 N59 1.413 . S
C56 H49 0.930 . S
C56 C55 1.393 . S
C56 C57 1.399 . S
C57 C56 1.399 . S
C57 C58 1.381 . S
C58 H50 0.930 . S
C58 C54 1.390 . S
C58 C57 1.381 . S
N59 C52 1.286 . S
N59 C55 1.413 . S
H60 C65 0.930 . S
H61 C68 0.930 . S
H62 C70 0.930 . S
H63 C64 1.016 . S
C64 H63 1.016 . S
C64 N71 1.286 . S
C65 H60 0.930 . S
C65 C66 1.397 . S
C65 C67 1.361 . S
C66 C65 1.397 . S
C66 C70 1.390 . S
C67 C65 1.361 . S
C67 C68 1.393 . S
C67 N71 1.413 . S
C68 H61 0.930 . S
C68 C67 1.393 . S
C68 C69 1.399 . S
C69 C68 1.399 . S
C69 C70 1.381 . S
C70 H62 0.930 . S
C70 C66 1.390 . S
C70 C69 1.381 . S
N71 C64 1.286 . S
N71 C67 1.413 . S
H72 C77 0.930 . S
H73 C80 0.930 . S
H74 C82 0.930 . S
H75 C76 1.016 . S
C76 H75 1.016 . S
C76 N83 1.286 . S
C77 H72 0.930 . S
C77 C78 1.397 . S
C77 C79 1.361 . S
C78 C77 1.397 . S
C78 C82 1.390 . S
C79 C77 1.361 . S
C79 C80 1.393 . S
C79 N83 1.413 . S
C80 H73 0.930 . S
C80 C79 1.393 . S
C80 C81 1.399 . S
C81 C80 1.399 . S
C81 C82 1.381 . S
C82 H74 0.930 . S
C82 C78 1.390 . S
C82 C81 1.381 . S
N83 C76 1.286 . S
N83 C79 1.413 . S
H84 C89 0.930 . S
H85 C92 0.930 . S
H86 C94 0.930 . S
H87 C88 1.016 . S
C88 H87 1.016 . S
C88 N95 1.286 . S
C89 H84 0.930 . S
C89 C90 1.397 . S
C89 C91 1.361 . S
C90 C89 1.397 . S
C90 C94 1.390 . S
C91 C89 1.361 . S
C91 C92 1.393 . S
C91 N95 1.413 . S
C92 H85 0.930 . S
C92 C91 1.393 . S
C92 C93 1.399 . S
C93 C92 1.399 . S
C93 C94 1.381 . S
C94 H86 0.930 . S
C94 C90 1.390 . S
C94 C93 1.381 . S
N95 C88 1.286 . S
N95 C91 1.413 . S
Dy96 O100 2.398 . S
Dy96 O101 2.491 . S
Dy96 O102 2.403 1_545 S
Dy96 O103 2.664 1_545 S
Dy96 O107 2.326 . S
Dy96 O111 2.310 1_455 S
Dy96 O112 2.351 1_445 S
C97 O108 1.185 . S
C97 O109 1.355 . S
C98 O100 1.185 . S
C98 O101 1.355 . S
Dy99 O103 2.310 1_655 S
Dy99 O106 2.351 1_665 S
Dy99 O108 2.398 . S
Dy99 O109 2.491 . S
Dy99 O110 2.403 1_565 S
Dy99 O111 2.664 1_565 S
Dy99 O113 2.326 . S
O100 Dy96 2.398 . S
O100 C98 1.185 . S
O101 Dy96 2.491 . S
O101 C98 1.355 . S
O102 Dy96 2.403 1_565 S
O102 C104 1.254 . S
O103 Dy96 2.664 1_565 S
O103 Dy99 2.310 1_455 S
O103 C104 1.268 . S
C104 O102 1.254 . S
C104 O103 1.268 . S
C105 O110 1.254 . S
C105 O111 1.268 . S
O106 Dy99 2.351 1_445 S
O106 C114 1.249 . S
O107 Dy96 2.326 . S
O107 C114 1.267 . S
O108 C97 1.185 . S
O108 Dy99 2.398 . S
O109 C97 1.355 . S
O109 Dy99 2.491 . S
O110 Dy99 2.403 1_545 S
O110 C105 1.254 . S
O111 Dy96 2.310 1_655 S
O111 Dy99 2.664 1_545 S
O111 C105 1.268 . S
O112 Dy96 2.351 1_665 S
O112 C115 1.249 . S
O113 Dy99 2.326 . S
O113 C115 1.267 . S
C114 O106 1.249 . S
C114 O107 1.267 . S
C115 O112 1.249 . S
C115 O113 1.267 . S
Dy116 O120 2.398 . S
Dy116 O121 2.491 . S
Dy116 O122 2.403 1_545 S
Dy116 O123 2.664 1_545 S
Dy116 O127 2.326 . S
Dy116 O131 2.310 . S
Dy116 O132 2.349 1_545 S
C117 O128 1.185 . S
C117 O129 1.355 . S
C118 O120 1.185 . S
C118 O121 1.355 . S
Dy119 O123 2.310 1_546 S
Dy119 O126 2.351 1_556 S
Dy119 O128 2.398 1_545 S
Dy119 O129 2.491 1_545 S
Dy119 O130 2.403 . S
Dy119 O131 2.664 1_556 S
Dy119 O133 2.326 1_545 S
O120 Dy116 2.398 . S
O120 C118 1.185 . S
O121 Dy116 2.491 . S
O121 C118 1.355 . S
O122 Dy116 2.403 1_565 S
O122 C124 1.254 . S
O123 Dy116 2.664 1_565 S
O123 Dy119 2.310 1_564 S
O123 C124 1.268 . S
C124 O122 1.254 . S
C124 O123 1.268 . S
C125 O130 1.254 . S
C125 O131 1.268 1_556 S
O126 Dy119 2.351 1_554 S
O126 C134 1.249 . S
O127 Dy116 2.326 . S
O127 C134 1.267 . S
O128 C117 1.185 . S
O128 Dy119 2.398 1_565 S
O129 C117 1.355 . S
O129 Dy119 2.491 1_565 S
O130 Dy119 2.403 . S
O130 C125 1.254 . S
O131 Dy116 2.310 . S
O131 Dy119 2.664 1_554 S
O131 C125 1.268 1_554 S
O132 Dy116 2.349 1_565 S
O132 C135 1.252 1_554 S
O133 Dy119 2.326 1_565 S
O133 C135 1.267 . S
C134 O126 1.249 . S
C134 O127 1.267 . S
C135 O132 1.252 1_556 S
C135 O133 1.267 . S
Dy136 O140 2.398 . S
Dy136 O141 2.491 . S
Dy136 O142 2.403 . S
Dy136 O143 2.664 . S
Dy136 O147 2.326 . S
Dy136 O151 2.310 . S
Dy136 O152 2.351 . S
C137 O148 1.185 . S
C137 O149 1.355 . S
C138 O140 1.185 . S
C138 O141 1.355 . S
Dy139 O143 2.310 . S
Dy139 O146 2.351 . S
Dy139 O148 2.398 . S
Dy139 O149 2.491 . S
Dy139 O150 2.403 . S
Dy139 O151 2.664 . S
Dy139 O153 2.326 . S
O140 Dy136 2.398 . S
O140 C138 1.185 . S
O141 Dy136 2.491 . S
O141 C138 1.355 . S
O142 Dy136 2.403 . S
O142 C144 1.254 . S
O143 Dy136 2.664 . S
O143 Dy139 2.310 . S
O143 C144 1.268 . S
C144 O142 1.254 . S
C144 O143 1.268 . S
C145 O150 1.254 . S
C145 O151 1.268 . S
O146 Dy139 2.351 . S
O146 C154 1.249 . S
O147 Dy136 2.326 . S
O147 C154 1.267 . S
O148 C137 1.185 . S
O148 Dy139 2.398 . S
O149 C137 1.355 . S
O149 Dy139 2.491 . S
O150 Dy139 2.403 . S
O150 C145 1.254 . S
O151 Dy136 2.310 . S
O151 Dy139 2.664 . S
O151 C145 1.268 . S
O152 Dy136 2.351 . S
O152 C155 1.249 . S
O153 Dy139 2.326 . S
O153 C155 1.267 . S
C154 O146 1.249 . S
C154 O147 1.267 . S
C155 O152 1.249 . S
C155 O153 1.267 . S
Dy156 O160 2.398 . S
Dy156 O161 2.491 . S
Dy156 O162 2.403 1_455 S
Dy156 O163 2.664 1_455 S
Dy156 O167 2.326 . S
Dy156 O171 2.310 1_554 S
Dy156 O172 2.353 1_455 S
C157 O168 1.185 . S
C157 O169 1.355 . S
C158 O160 1.185 . S
C158 O161 1.355 . S
Dy159 O163 2.310 1_456 S
Dy159 O166 2.351 1_556 S
Dy159 O168 2.398 1_455 S
Dy159 O169 2.491 1_455 S
Dy159 O170 2.403 . S
Dy159 O171 2.664 . S
Dy159 O173 2.326 1_455 S
O160 Dy156 2.398 . S
O160 C158 1.185 . S
O161 Dy156 2.491 . S
O161 C158 1.355 . S
O162 Dy156 2.403 1_655 S
O162 C164 1.254 . S
O163 Dy156 2.664 1_655 S
O163 Dy159 2.310 1_654 S
O163 C164 1.268 . S
C164 O162 1.254 . S
C164 O163 1.268 . S
C165 O170 1.254 . S
C165 O171 1.268 . S
O166 Dy159 2.351 1_554 S
O166 C174 1.249 . S
O167 Dy156 2.326 . S
O167 C174 1.267 . S
O168 C157 1.185 . S
O168 Dy159 2.398 1_655 S
O169 C157 1.355 . S
O169 Dy159 2.491 1_655 S
O170 Dy159 2.403 . S
O170 C165 1.254 . S
O171 Dy156 2.310 1_556 S
O171 Dy159 2.664 . S
O171 C165 1.268 . S
O172 Dy156 2.353 1_655 S
O172 C175 1.246 1_554 S
O173 Dy159 2.326 1_655 S
O173 C175 1.267 . S
C174 O166 1.249 . S
C174 O167 1.267 . S
C175 O172 1.246 1_556 S
C175 O173 1.267 . S
H176 C184 0.929 . S
H177 C186 0.930 . S
H178 C188 0.930 . S
H179 C191 0.929 . S
H180 C194 0.930 . S
H181 C196 0.960 . S
H182 C196 0.960 . S
H183 C196 0.960 . S
C184 H176 0.929 . S
C184 C185 1.377 . S
C184 C186 1.384 . S
C185 C184 1.377 . S
C185 C191 1.390 . S
C186 H177 0.930 . S
C186 C184 1.384 . S
C186 C187 1.372 . S
C187 C186 1.372 . S
C187 C188 1.400 . S
C187 C192 1.490 . S
C188 H178 0.930 . S
C188 C187 1.400 . S
C188 C191 1.386 . S
H189 C205 0.930 . S
H190 C206 0.931 . S
C191 H179 0.929 . S
C191 C185 1.390 . S
C191 C188 1.386 . S
C192 C187 1.490 . S
C192 C194 1.395 . S
C192 C195 1.403 . S
H193 C199 0.930 . S
C194 H180 0.930 . S
C194 C192 1.395 . S
C194 C197 1.403 . S
C195 C192 1.403 . S
C195 C196 1.524 . S
C195 C199 1.400 . S
C196 H181 0.960 . S
C196 H182 0.960 . S
C196 H183 0.960 . S
C196 C195 1.524 . S
C197 C194 1.403 . S
C197 C198 1.392 . S
C197 C201 1.495 . S
C198 C197 1.392 . S
C198 C199 1.385 . S
C198 C200 1.478 . S
C199 H193 0.930 . S
C199 C195 1.400 . S
C199 C198 1.385 . S
C200 C198 1.478 . S
C200 C202 1.381 . S
C200 C206 1.383 . S
C201 C197 1.495 . S
C201 H207 0.959 . S
C201 H208 0.961 . S
C201 H209 0.960 . S
C202 C200 1.381 . S
C202 C203 1.394 . S
C202 H210 0.930 . S
C203 C202 1.394 . S
C203 C204 1.383 . S
C203 H211 0.929 . S
C204 C203 1.383 . S
C204 C205 1.377 . S
C205 H189 0.930 . S
C205 C204 1.377 . S
C205 C206 1.379 . S
C206 H190 0.931 . S
C206 C200 1.383 . S
C206 C205 1.379 . S
H207 C201 0.959 . S
H208 C201 0.961 . S
H209 C201 0.960 . S
H210 C202 0.930 . S
H211 C203 0.929 . S
H212 C220 0.929 . S
H213 C222 0.930 . S
H214 C224 0.930 . S
H215 C227 0.929 . S
H216 C230 0.930 . S
H217 C232 0.960 . S
H218 C232 0.960 . S
H219 C232 0.960 . S
C220 H212 0.929 . S
C220 C221 1.377 . S
C220 C222 1.384 . S
C221 C220 1.377 . S
C221 C227 1.390 . S
C222 H213 0.930 . S
C222 C220 1.384 . S
C222 C223 1.372 . S
C223 C222 1.372 . S
C223 C224 1.400 . S
C223 C228 1.490 . S
C224 H214 0.930 . S
C224 C223 1.400 . S
C224 C227 1.386 . S
H225 C241 0.930 . S
H226 C242 0.931 . S
C227 H215 0.929 . S
C227 C221 1.390 . S
C227 C224 1.386 . S
C228 C223 1.490 . S
C228 C230 1.395 . S
C228 C231 1.403 . S
H229 C235 0.930 . S
C230 H216 0.930 . S
C230 C228 1.395 . S
C230 C233 1.403 . S
C231 C228 1.403 . S
C231 C232 1.524 . S
C231 C235 1.400 . S
C232 H217 0.960 . S
C232 H218 0.960 . S
C232 H219 0.960 . S
C232 C231 1.524 . S
C233 C230 1.403 . S
C233 C234 1.392 . S
C233 C237 1.495 . S
C234 C233 1.392 . S
C234 C235 1.385 . S
C234 C236 1.478 . S
C235 H229 0.930 . S
C235 C231 1.400 . S
C235 C234 1.385 . S
C236 C234 1.478 . S
C236 C238 1.381 . S
C236 C242 1.383 . S
C237 C233 1.495 . S
C237 H243 0.959 . S
C237 H244 0.961 . S
C237 H245 0.960 . S
C238 C236 1.381 . S
C238 C239 1.394 . S
C238 H246 0.930 . S
C239 C238 1.394 . S
C239 C240 1.383 . S
C239 H247 0.929 . S
C240 C239 1.383 . S
C240 C241 1.377 . S
C241 H225 0.930 . S
C241 C240 1.377 . S
C241 C242 1.379 . S
C242 H226 0.931 . S
C242 C236 1.383 . S
C242 C241 1.379 . S
H243 C237 0.959 . S
H244 C237 0.961 . S
H245 C237 0.960 . S
H246 C238 0.930 . S
H247 C239 0.929 . S
H248 C256 0.929 . S
H249 C258 0.930 . S
H250 C260 0.930 . S
H251 C263 0.929 . S
H252 C266 0.930 . S
H253 C268 0.960 . S
H254 C268 0.960 . S
H255 C268 0.960 . S
C256 H248 0.929 . S
C256 C257 1.377 . S
C256 C258 1.384 . S
C257 C256 1.377 . S
C257 C263 1.390 . S
C258 H249 0.930 . S
C258 C256 1.384 . S
C258 C259 1.372 . S
C259 C258 1.372 . S
C259 C260 1.400 . S
C259 C264 1.490 . S
C260 H250 0.930 . S
C260 C259 1.400 . S
C260 C263 1.386 . S
H261 C277 0.930 . S
H262 C278 0.931 . S
C263 H251 0.929 . S
C263 C257 1.390 . S
C263 C260 1.386 . S
C264 C259 1.490 . S
C264 C266 1.395 . S
C264 C267 1.403 . S
H265 C271 0.930 . S
C266 H252 0.930 . S
C266 C264 1.395 . S
C266 C269 1.403 . S
C267 C264 1.403 . S
C267 C268 1.524 . S
C267 C271 1.400 . S
C268 H253 0.960 . S
C268 H254 0.960 . S
C268 H255 0.960 . S
C268 C267 1.524 . S
C269 C266 1.403 . S
C269 C270 1.392 . S
C269 C273 1.495 . S
C270 C269 1.392 . S
C270 C271 1.385 . S
C270 C272 1.478 . S
C271 H265 0.930 . S
C271 C267 1.400 . S
C271 C270 1.385 . S
C272 C270 1.478 . S
C272 C274 1.381 . S
C272 C278 1.383 . S
C273 C269 1.495 . S
C273 H279 0.959 . S
C273 H280 0.961 . S
C273 H281 0.960 . S
C274 C272 1.381 . S
C274 C275 1.394 . S
C274 H282 0.930 . S
C275 C274 1.394 . S
C275 C276 1.383 . S
C275 H283 0.929 . S
C276 C275 1.383 . S
C276 C277 1.377 . S
C277 H261 0.930 . S
C277 C276 1.377 . S
C277 C278 1.379 . S
C278 H262 0.931 . S
C278 C272 1.383 . S
C278 C277 1.379 . S
H279 C273 0.959 . S
H280 C273 0.961 . S
H281 C273 0.960 . S
H282 C274 0.930 . S
H283 C275 0.929 . S
H284 C292 0.929 . S
H285 C294 0.930 . S
H286 C296 0.930 . S
H287 C299 0.929 . S
H288 C302 0.930 . S
H289 C304 0.960 . S
H290 C304 0.960 . S
H291 C304 0.960 . S
C292 H284 0.929 . S
C292 C293 1.377 . S
C292 C294 1.384 . S
C293 C292 1.377 . S
C293 C299 1.390 . S
C294 H285 0.930 . S
C294 C292 1.384 . S
C294 C295 1.372 . S
C295 C294 1.372 . S
C295 C296 1.400 . S
C295 C300 1.490 . S
C296 H286 0.930 . S
C296 C295 1.400 . S
C296 C299 1.386 . S
H297 C313 0.930 1_455 S
H298 C314 0.931 . S
C299 H287 0.929 . S
C299 C293 1.390 . S
C299 C296 1.386 . S
C300 C295 1.490 . S
C300 C302 1.395 . S
C300 C303 1.403 . S
H301 C307 0.930 . S
C302 H288 0.930 . S
C302 C300 1.395 . S
C302 C305 1.403 . S
C303 C300 1.403 . S
C303 C304 1.524 . S
C303 C307 1.400 . S
C304 H289 0.960 . S
C304 H290 0.960 . S
C304 H291 0.960 . S
C304 C303 1.524 . S
C305 C302 1.403 . S
C305 C306 1.392 . S
C305 C309 1.495 . S
C306 C305 1.392 . S
C306 C307 1.385 . S
C306 C308 1.478 . S
C307 H301 0.930 . S
C307 C303 1.400 . S
C307 C306 1.385 . S
C308 C306 1.478 . S
C308 C310 1.381 . S
C308 C314 1.383 . S
C309 C305 1.495 . S
C309 H315 0.959 . S
C309 H316 0.961 . S
C309 H317 0.960 . S
C310 C308 1.381 . S
C310 C311 1.394 . S
C310 H318 0.930 . S
C311 C310 1.394 . S
C311 C312 1.383 . S
C311 H319 0.929 . S
C312 C311 1.383 . S
C312 C313 1.377 . S
C313 H297 0.930 1_655 S
C313 C312 1.377 . S
C313 C314 1.379 . S
C314 H298 0.931 . S
C314 C308 1.383 . S
C314 C313 1.379 . S
H315 C309 0.959 . S
H316 C309 0.961 . S
H317 C309 0.960 . S
H318 C310 0.930 . S
H319 C311 0.929 . S
H320 C328 0.929 . S
H321 C330 0.930 . S
H322 C332 0.930 . S
H323 C335 0.929 . S
H324 C338 0.930 . S
H325 C340 0.960 . S
H326 C340 0.960 . S
H327 C340 0.960 . S
C328 H320 0.929 . S
C328 C329 1.377 . S
C328 C330 1.384 . S
C329 C328 1.377 . S
C329 C335 1.390 . S
C330 H321 0.930 . S
C330 C328 1.384 . S
C330 C331 1.372 . S
C331 C330 1.372 . S
C331 C332 1.400 . S
C331 C336 1.490 . S
C332 H322 0.930 . S
C332 C331 1.400 . S
C332 C335 1.386 . S
H333 C349 0.930 . S
H334 C350 0.931 . S
C335 H323 0.929 . S
C335 C329 1.390 . S
C335 C332 1.386 . S
C336 C331 1.490 . S
C336 C338 1.395 . S
C336 C339 1.403 . S
H337 C343 0.930 . S
C338 H324 0.930 . S
C338 C336 1.395 . S
C338 C341 1.403 . S
C339 C336 1.403 . S
C339 C340 1.524 . S
C339 C343 1.400 . S
C340 H325 0.960 . S
C340 H326 0.960 . S
C340 H327 0.960 . S
C340 C339 1.524 . S
C341 C338 1.403 . S
C341 C342 1.392 . S
C341 C345 1.495 . S
C342 C341 1.392 . S
C342 C343 1.385 . S
C342 C344 1.478 . S
C343 H337 0.930 . S
C343 C339 1.400 . S
C343 C342 1.385 . S
C344 C342 1.478 . S
C344 C346 1.381 . S
C344 C350 1.383 . S
C345 C341 1.495 . S
C345 H351 0.959 . S
C345 H352 0.961 . S
C345 H353 0.960 . S
C346 C344 1.381 . S
C346 C347 1.394 . S
C346 H354 0.930 . S
C347 C346 1.394 . S
C347 C348 1.383 . S
C347 H355 0.929 . S
C348 C347 1.383 . S
C348 C349 1.377 . S
C349 H333 0.930 . S
C349 C348 1.377 . S
C349 C350 1.379 . S
C350 H334 0.931 . S
C350 C344 1.383 . S
C350 C349 1.379 . S
H351 C345 0.959 . S
H352 C345 0.961 . S
H353 C345 0.960 . S
H354 C346 0.930 . S
H355 C347 0.929 . S
H356 C364 0.929 . S
H357 C366 0.930 . S
H358 C368 0.930 . S
H359 C371 0.929 . S
H360 C374 0.930 . S
H361 C376 0.960 . S
H362 C376 0.960 . S
H363 C376 0.960 . S
C364 H356 0.929 . S
C364 C365 1.377 . S
C364 C366 1.384 . S
C365 C364 1.377 . S
C365 C371 1.390 . S
C366 H357 0.930 . S
C366 C364 1.384 . S
C366 C367 1.372 . S
C367 C366 1.372 . S
C367 C368 1.400 . S
C367 C372 1.490 . S
C368 H358 0.930 . S
C368 C367 1.400 . S
C368 C371 1.386 . S
H369 C385 0.930 . S
H370 C386 0.931 . S
C371 H359 0.929 . S
C371 C365 1.390 . S
C371 C368 1.386 . S
C372 C367 1.490 . S
C372 C374 1.395 . S
C372 C375 1.403 . S
H373 C379 0.930 . S
C374 H360 0.930 . S
C374 C372 1.395 . S
C374 C377 1.403 . S
C375 C372 1.403 . S
C375 C376 1.524 . S
C375 C379 1.400 . S
C376 H361 0.960 . S
C376 H362 0.960 . S
C376 H363 0.960 . S
C376 C375 1.524 . S
C377 C374 1.403 . S
C377 C378 1.392 . S
C377 C381 1.495 . S
C378 C377 1.392 . S
C378 C379 1.385 . S
C378 C380 1.478 . S
C379 H373 0.930 . S
C379 C375 1.400 . S
C379 C378 1.385 . S
C380 C378 1.478 . S
C380 C382 1.381 . S
C380 C386 1.383 . S
C381 C377 1.495 . S
C381 H387 0.959 . S
C381 H388 0.961 . S
C381 H389 0.960 . S
C382 C380 1.381 . S
C382 C383 1.394 . S
C382 H390 0.930 . S
C383 C382 1.394 . S
C383 C384 1.383 . S
C383 H391 0.920 1_565 S
C384 C383 1.383 . S
C384 C385 1.377 . S
C385 H369 0.930 . S
C385 C384 1.377 . S
C385 C386 1.379 . S
C386 H370 0.931 . S
C386 C380 1.383 . S
C386 C385 1.379 . S
H387 C381 0.959 . S
H388 C381 0.961 . S
H389 C381 0.960 . S
H390 C382 0.930 . S
H391 C383 0.920 1_545 S
H392 C400 0.929 . S
H393 C402 0.930 . S
H394 C404 0.930 . S
H395 C407 0.929 . S
H396 C410 0.930 . S
H397 C412 0.960 . S
H398 C412 0.960 . S
H399 C412 0.960 . S
C400 H392 0.929 . S
C400 C401 1.377 . S
C400 C402 1.384 . S
C401 C400 1.377 . S
C401 C407 1.390 . S
C402 H393 0.930 . S
C402 C400 1.384 . S
C402 C403 1.372 . S
C403 C402 1.372 . S
C403 C404 1.400 . S
C403 C408 1.490 . S
C404 H394 0.930 . S
C404 C403 1.400 . S
C404 C407 1.386 . S
H405 C421 0.930 1_554 S
H406 C422 0.931 . S
C407 H395 0.929 . S
C407 C401 1.390 . S
C407 C404 1.386 . S
C408 C403 1.490 . S
C408 C410 1.395 . S
C408 C411 1.403 . S
H409 C415 0.930 . S
C410 H396 0.930 . S
C410 C408 1.395 . S
C410 C413 1.403 . S
C411 C408 1.403 . S
C411 C412 1.524 . S
C411 C415 1.400 . S
C412 H397 0.960 . S
C412 H398 0.960 . S
C412 H399 0.960 . S
C412 C411 1.524 . S
C413 C410 1.403 . S
C413 C414 1.392 . S
C413 C417 1.495 . S
C414 C413 1.392 . S
C414 C415 1.385 . S
C414 C416 1.478 . S
C415 H409 0.930 . S
C415 C411 1.400 . S
C415 C414 1.385 . S
C416 C414 1.478 . S
C416 C418 1.381 . S
C416 C422 1.383 . S
C417 C413 1.495 . S
C417 H423 0.959 . S
C417 H424 0.961 . S
C417 H425 0.960 . S
C418 C416 1.381 . S
C418 C419 1.394 . S
C418 H426 0.930 . S
C419 C418 1.394 . S
C419 C420 1.383 . S
C419 H427 0.929 . S
C420 C419 1.383 . S
C420 C421 1.377 . S
C421 H405 0.930 1_556 S
C421 C420 1.377 . S
C421 C422 1.379 . S
C422 H406 0.931 . S
C422 C416 1.383 . S
C422 C421 1.379 . S
H423 C417 0.959 . S
H424 C417 0.961 . S
H425 C417 0.960 . S
H426 C418 0.930 . S
H427 C419 0.929 . S
H428 C436 0.929 . S
H429 C438 0.930 . S
H430 C440 0.930 . S
H431 C443 0.929 . S
H432 C446 0.930 . S
H433 C448 0.960 . S
H434 C448 0.960 . S
H435 C448 0.960 . S
C436 H428 0.929 . S
C436 C437 1.377 . S
C436 C438 1.384 . S
C437 C436 1.377 . S
C437 C443 1.390 . S
C438 H429 0.930 . S
C438 C436 1.384 . S
C438 C439 1.372 . S
C439 C438 1.372 . S
C439 C440 1.400 . S
C439 C444 1.490 . S
C440 H430 0.930 . S
C440 C439 1.400 . S
C440 C443 1.386 . S
H441 C457 0.930 . S
H442 C458 0.931 . S
C443 H431 0.929 . S
C443 C437 1.390 . S
C443 C440 1.386 . S
C444 C439 1.490 . S
C444 C446 1.395 . S
C444 C447 1.403 . S
H445 C451 0.930 . S
C446 H432 0.930 . S
C446 C444 1.395 . S
C446 C449 1.403 . S
C447 C444 1.403 . S
C447 C448 1.524 . S
C447 C451 1.400 . S
C448 H433 0.960 . S
C448 H434 0.960 . S
C448 H435 0.960 . S
C448 C447 1.524 . S
C449 C446 1.403 . S
C449 C450 1.392 . S
C449 C453 1.495 . S
C450 C449 1.392 . S
C450 C451 1.385 . S
C450 C452 1.478 . S
C451 H445 0.930 . S
C451 C447 1.400 . S
C451 C450 1.385 . S
C452 C450 1.478 . S
C452 C454 1.381 . S
C452 C458 1.383 . S
C453 C449 1.495 . S
C453 H459 0.959 . S
C453 H460 0.961 . S
C453 H461 0.960 . S
C454 C452 1.381 . S
C454 C455 1.394 . S
C454 H462 0.930 . S
C455 C454 1.394 . S
C455 C456 1.383 . S
C455 H463 0.929 . S
C456 C455 1.383 . S
C456 C457 1.377 . S
C457 H441 0.930 . S
C457 C456 1.377 . S
C457 C458 1.379 . S
C458 H442 0.931 . S
C458 C452 1.383 . S
C458 C457 1.379 . S
H459 C453 0.959 . S
H460 C453 0.961 . S
H461 C453 0.960 . S
H462 C454 0.930 . S
H463 C455 0.929 . S
H464 C472 0.929 . S
H465 C474 0.930 . S
H466 C476 0.930 . S
H467 C479 0.929 . S
H468 C482 0.930 . S
H469 C484 0.960 . S
H470 C484 0.960 . S
H471 C484 0.960 . S
C472 H464 0.929 . S
C472 C473 1.377 . S
C472 C474 1.384 . S
C473 C472 1.377 . S
C473 C479 1.390 . S
C474 H465 0.930 . S
C474 C472 1.384 . S
C474 C475 1.372 . S
C475 C474 1.372 . S
C475 C476 1.400 . S
C475 C480 1.490 . S
C476 H466 0.930 . S
C476 C475 1.400 . S
C476 C479 1.386 . S
H477 C493 0.930 . S
H478 C494 0.931 . S
C479 H467 0.929 . S
C479 C473 1.390 . S
C479 C476 1.386 . S
C480 C475 1.490 . S
C480 C482 1.395 . S
C480 C483 1.403 . S
H481 C487 0.930 . S
C482 H468 0.930 . S
C482 C480 1.395 . S
C482 C485 1.403 . S
C483 C480 1.403 . S
C483 C484 1.524 . S
C483 C487 1.400 . S
C484 H469 0.960 . S
C484 H470 0.960 . S
C484 H471 0.960 . S
C484 C483 1.524 . S
C485 C482 1.403 . S
C485 C486 1.392 . S
C485 C489 1.495 . S
C486 C485 1.392 . S
C486 C487 1.385 . S
C486 C488 1.478 . S
C487 H481 0.930 . S
C487 C483 1.400 . S
C487 C486 1.385 . S
C488 C486 1.478 . S
C488 C490 1.381 . S
C488 C494 1.383 . S
C489 C485 1.495 . S
C489 H495 0.959 . S
C489 H496 0.961 . S
C489 H497 0.960 . S
C490 C488 1.381 . S
C490 C491 1.394 . S
C490 H498 0.930 . S
C491 C490 1.394 . S
C491 C492 1.383 . S
C491 H499 0.929 . S
C492 C491 1.383 . S
C492 C493 1.377 . S
C493 H477 0.930 . S
C493 C492 1.377 . S
C493 C494 1.379 . S
C494 H478 0.931 . S
C494 C488 1.383 . S
C494 C493 1.379 . S
H495 C489 0.959 . S
H496 C489 0.961 . S
H497 C489 0.960 . S
H498 C490 0.930 . S
H499 C491 0.929 . S
H500 C508 0.929 . S
H501 C510 0.930 . S
H502 C512 0.930 . S
H503 C515 0.929 . S
H504 C518 0.930 . S
H505 C520 0.960 . S
H506 C520 0.960 . S
H507 C520 0.960 . S
C508 H500 0.929 . S
C508 C509 1.377 . S
C508 C510 1.384 . S
C509 C508 1.377 . S
C509 C515 1.390 . S
C510 H501 0.930 . S
C510 C508 1.384 . S
C510 C511 1.372 . S
C511 C510 1.372 . S
C511 C512 1.400 . S
C511 C516 1.490 . S
C512 H502 0.930 . S
C512 C511 1.400 . S
C512 C515 1.386 . S
H513 C529 0.930 . S
H514 C530 0.931 . S
C515 H503 0.929 . S
C515 C509 1.390 . S
C515 C512 1.386 . S
C516 C511 1.490 . S
C516 C518 1.395 . S
C516 C519 1.403 . S
H517 C523 0.930 . S
C518 H504 0.930 . S
C518 C516 1.395 . S
C518 C521 1.403 . S
C519 C516 1.403 . S
C519 C520 1.524 . S
C519 C523 1.400 . S
C520 H505 0.960 . S
C520 H506 0.960 . S
C520 H507 0.960 . S
C520 C519 1.524 . S
C521 C518 1.403 . S
C521 C522 1.392 . S
C521 C525 1.495 . S
C522 C521 1.392 . S
C522 C523 1.385 . S
C522 C524 1.478 . S
C523 H517 0.930 . S
C523 C519 1.400 . S
C523 C522 1.385 . S
C524 C522 1.478 . S
C524 C526 1.381 . S
C524 C530 1.383 . S
C525 C521 1.495 . S
C525 H531 0.959 . S
C525 H532 0.961 . S
C525 H533 0.960 . S
C526 C524 1.381 . S
C526 C527 1.394 . S
C526 H534 0.930 . S
C527 C526 1.394 . S
C527 C528 1.383 . S
C527 H535 0.929 1_556 S
C528 C527 1.383 . S
C528 C529 1.377 . S
C529 H513 0.930 . S
C529 C528 1.377 . S
C529 C530 1.379 . S
C530 H514 0.931 . S
C530 C524 1.383 . S
C530 C529 1.379 . S
H531 C525 0.959 . S
H532 C525 0.961 . S
H533 C525 0.960 . S
H534 C526 0.930 . S
H535 C527 0.929 1_554 S
H536 C544 0.929 . S
H537 C546 0.930 . S
H538 C548 0.930 . S
H539 C551 0.929 . S
H540 C554 0.930 . S
H541 C556 0.960 . S
H542 C556 0.960 . S
H543 C556 0.960 . S
C544 H536 0.929 . S
C544 C545 1.377 . S
C544 C546 1.384 . S
C545 C544 1.377 . S
C545 C551 1.390 . S
C546 H537 0.930 . S
C546 C544 1.384 . S
C546 C547 1.372 . S
C547 C546 1.372 . S
C547 C548 1.400 . S
C547 C552 1.490 . S
C548 H538 0.930 . S
C548 C547 1.400 . S
C548 C551 1.386 . S
H549 C565 0.930 1_455 S
H550 C566 0.931 . S
C551 H539 0.929 . S
C551 C545 1.390 . S
C551 C548 1.386 . S
C552 C547 1.490 . S
C552 C554 1.395 . S
C552 C555 1.403 . S
H553 C559 0.930 . S
C554 H540 0.930 . S
C554 C552 1.395 . S
C554 C557 1.403 . S
C555 C552 1.403 . S
C555 C556 1.524 . S
C555 C559 1.400 . S
C556 H541 0.960 . S
C556 H542 0.960 . S
C556 H543 0.960 . S
C556 C555 1.524 . S
C557 C554 1.403 . S
C557 C558 1.392 . S
C557 C561 1.495 . S
C558 C557 1.392 . S
C558 C559 1.385 . S
C558 C560 1.478 . S
C559 H553 0.930 . S
C559 C555 1.400 . S
C559 C558 1.385 . S
C560 C558 1.478 . S
C560 C562 1.381 . S
C560 C566 1.383 . S
C561 C557 1.495 . S
C561 H567 0.959 . S
C561 H568 0.961 . S
C561 H569 0.960 . S
C562 C560 1.381 . S
C562 C563 1.394 . S
C562 H570 0.930 . S
C563 C562 1.394 . S
C563 C564 1.383 . S
C563 H571 0.929 . S
C564 C563 1.383 . S
C564 C565 1.377 . S
C565 H549 0.930 1_655 S
C565 C564 1.377 . S
C565 C566 1.379 . S
C566 H550 0.931 . S
C566 C560 1.383 . S
C566 C565 1.379 . S
H567 C561 0.959 . S
H568 C561 0.961 . S
H569 C561 0.960 . S
H570 C562 0.930 . S
H571 C563 0.929 . S
H572 C580 0.929 . S
H573 C582 0.930 . S
H574 C584 0.930 . S
H575 C587 0.929 . S
H576 C590 0.930 . S
H577 C592 0.960 . S
H578 C592 0.960 . S
H579 C592 0.960 . S
C580 H572 0.929 . S
C580 C581 1.377 . S
C580 C582 1.384 . S
C581 C580 1.377 . S
C581 C587 1.390 . S
C582 H573 0.930 . S
C582 C580 1.384 . S
C582 C583 1.372 . S
C583 C582 1.372 . S
C583 C584 1.400 . S
C583 C588 1.490 . S
C584 H574 0.930 . S
C584 C583 1.400 . S
C584 C587 1.386 . S
H585 C601 0.930 . S
H586 C602 0.931 . S
C587 H575 0.929 . S
C587 C581 1.390 . S
C587 C584 1.386 . S
C588 C583 1.490 . S
C588 C590 1.395 . S
C588 C591 1.403 . S
H589 C595 0.930 . S
C590 H576 0.930 . S
C590 C588 1.395 . S
C590 C593 1.403 . S
C591 C588 1.403 . S
C591 C592 1.524 . S
C591 C595 1.400 . S
C592 H577 0.960 . S
C592 H578 0.960 . S
C592 H579 0.960 . S
C592 C591 1.524 . S
C593 C590 1.403 . S
C593 C594 1.392 . S
C593 C597 1.495 . S
C594 C593 1.392 . S
C594 C595 1.385 . S
C594 C596 1.478 . S
C595 H589 0.930 . S
C595 C591 1.400 . S
C595 C594 1.385 . S
C596 C594 1.478 . S
C596 C598 1.381 . S
C596 C602 1.383 . S
C597 C593 1.495 . S
C597 H603 0.959 . S
C597 H604 0.961 . S
C597 H605 0.960 . S
C598 C596 1.381 . S
C598 C599 1.394 . S
C598 H606 0.930 . S
C599 C598 1.394 . S
C599 C600 1.383 . S
C599 H607 0.929 . S
C600 C599 1.383 . S
C600 C601 1.377 . S
C601 H585 0.930 . S
C601 C600 1.377 . S
C601 C602 1.379 . S
C602 H586 0.931 . S
C602 C596 1.383 . S
C602 C601 1.379 . S
H603 C597 0.959 . S
H604 C597 0.961 . S
H605 C597 0.960 . S
H606 C598 0.930 . S
H607 C599 0.929 . S
H608 C616 0.929 . S
H609 C618 0.930 . S
H610 C620 0.930 . S
H611 C623 0.929 . S
H612 C626 0.930 . S
H613 C628 0.960 . S
H614 C628 0.960 . S
H615 C628 0.960 . S
C616 H608 0.929 . S
C616 C617 1.377 . S
C616 C618 1.384 . S
C617 C616 1.377 . S
C617 C623 1.390 . S
C618 H609 0.930 . S
C618 C616 1.384 . S
C618 C619 1.372 . S
C619 C618 1.372 . S
C619 C620 1.400 . S
C619 C624 1.490 . S
C620 H610 0.930 . S
C620 C619 1.400 . S
C620 C623 1.386 . S
H621 C637 0.930 . S
H622 C638 0.931 . S
C623 H611 0.929 . S
C623 C617 1.390 . S
C623 C620 1.386 . S
C624 C619 1.490 . S
C624 C626 1.395 . S
C624 C627 1.403 . S
H625 C631 0.930 . S
C626 H612 0.930 . S
C626 C624 1.395 . S
C626 C629 1.403 . S
C627 C624 1.403 . S
C627 C628 1.524 . S
C627 C631 1.400 . S
C628 H613 0.960 . S
C628 H614 0.960 . S
C628 H615 0.960 . S
C628 C627 1.524 . S
C629 C626 1.403 . S
C629 C630 1.392 . S
C629 C633 1.495 . S
C630 C629 1.392 . S
C630 C631 1.385 . S
C630 C632 1.478 . S
C631 H625 0.930 . S
C631 C627 1.400 . S
C631 C630 1.385 . S
C632 C630 1.478 . S
C632 C634 1.381 . S
C632 C638 1.383 . S
C633 C629 1.495 . S
C633 H639 0.959 . S
C633 H640 0.961 . S
C633 H641 0.960 . S
C634 C632 1.381 . S
C634 C635 1.394 . S
C634 H642 0.930 . S
C635 C634 1.394 . S
C635 C636 1.383 . S
C635 H643 0.929 . S
C636 C635 1.383 . S
C636 C637 1.377 . S
C637 H621 0.930 . S
C637 C636 1.377 . S
C637 C638 1.379 . S
C638 H622 0.931 . S
C638 C632 1.383 . S
C638 C637 1.379 . S
H639 C633 0.959 . S
H640 C633 0.961 . S
H641 C633 0.960 . S
H642 C634 0.930 . S
H643 C635 0.929 . S
H644 C652 0.929 . S
H645 C654 0.930 . S
H646 C656 0.930 . S
H647 C659 0.929 . S
H648 C662 0.930 . S
H649 C664 0.960 . S
H650 C664 0.960 . S
H651 C664 0.960 . S
C652 H644 0.929 . S
C652 C653 1.377 . S
C652 C654 1.384 . S
C653 C652 1.377 . S
C653 C659 1.390 . S
C654 H645 0.930 . S
C654 C652 1.384 . S
C654 C655 1.372 . S
C655 C654 1.372 . S
C655 C656 1.400 . S
C655 C660 1.490 . S
C656 H646 0.930 . S
C656 C655 1.400 . S
C656 C659 1.386 . S
H657 C673 0.930 . S
H658 C674 0.931 . S
C659 H647 0.929 . S
C659 C653 1.390 . S
C659 C656 1.386 . S
C660 C655 1.490 . S
C660 C662 1.395 . S
C660 C663 1.403 . S
H661 C667 0.930 . S
C662 H648 0.930 . S
C662 C660 1.395 . S
C662 C665 1.403 . S
C663 C660 1.403 . S
C663 C664 1.524 . S
C663 C667 1.400 . S
C664 H649 0.960 . S
C664 H650 0.960 . S
C664 H651 0.960 . S
C664 C663 1.524 . S
C665 C662 1.403 . S
C665 C666 1.392 . S
C665 C669 1.495 . S
C666 C665 1.392 . S
C666 C667 1.385 . S
C666 C668 1.478 . S
C667 H661 0.930 . S
C667 C663 1.400 . S
C667 C666 1.385 . S
C668 C666 1.478 . S
C668 C670 1.381 . S
C668 C674 1.383 . S
C669 C665 1.495 . S
C669 H675 0.959 . S
C669 H676 0.961 . S
C669 H677 0.960 . S
C670 C668 1.381 . S
C670 C671 1.394 . S
C670 H678 0.930 . S
C671 C670 1.394 . S
C671 C672 1.383 . S
C671 H679 0.929 . S
C672 C671 1.383 . S
C672 C673 1.377 . S
C673 H657 0.930 . S
C673 C672 1.377 . S
C673 C674 1.379 . S
C674 H658 0.931 . S
C674 C668 1.383 . S
C674 C673 1.379 . S
H675 C669 0.959 . S
H676 C669 0.961 . S
H677 C669 0.960 . S
H678 C670 0.930 . S
H679 C671 0.929 . S
H680 C688 0.929 . S
H681 C690 0.930 . S
H682 C692 0.930 . S
H683 C695 0.929 . S
H684 C698 0.930 . S
H685 C700 0.960 . S
H686 C700 0.960 . S
H687 C700 0.960 . S
C688 H680 0.929 . S
C688 C689 1.377 . S
C688 C690 1.384 . S
C689 C688 1.377 . S
C689 C695 1.390 . S
C690 H681 0.930 . S
C690 C688 1.384 . S
C690 C691 1.372 . S
C691 C690 1.372 . S
C691 C692 1.400 . S
C691 C696 1.490 . S
C692 H682 0.930 . S
C692 C691 1.400 . S
C692 C695 1.386 . S
H693 C709 0.930 . S
H694 C710 0.931 . S
C695 H683 0.929 . S
C695 C689 1.390 . S
C695 C692 1.386 . S
C696 C691 1.490 . S
C696 C698 1.395 . S
C696 C699 1.403 . S
H697 C703 0.930 . S
C698 H684 0.930 . S
C698 C696 1.395 . S
C698 C701 1.403 . S
C699 C696 1.403 . S
C699 C700 1.524 . S
C699 C703 1.400 . S
C700 H685 0.960 . S
C700 H686 0.960 . S
C700 H687 0.960 . S
C700 C699 1.524 . S
C701 C698 1.403 . S
C701 C702 1.392 . S
C701 C705 1.495 . S
C702 C701 1.392 . S
C702 C703 1.385 . S
C702 C704 1.478 . S
C703 H697 0.930 . S
C703 C699 1.400 . S
C703 C702 1.385 . S
C704 C702 1.478 . S
C704 C706 1.381 . S
C704 C710 1.383 . S
C705 C701 1.495 . S
C705 H711 0.959 . S
C705 H712 0.961 . S
C705 H713 0.960 . S
C706 C704 1.381 . S
C706 C707 1.394 . S
C706 H714 0.930 . S
C707 C706 1.394 . S
C707 C708 1.383 . S
C707 H715 0.929 . S
C708 C707 1.383 . S
C708 C709 1.377 . S
C709 H693 0.930 . S
C709 C708 1.377 . S
C709 C710 1.379 . S
C710 H694 0.931 . S
C710 C704 1.383 . S
C710 C709 1.379 . S
H711 C705 0.959 . S
H712 C705 0.961 . S
H713 C705 0.960 . S
H714 C706 0.930 . S
H715 C707 0.929 . S
H716 C724 0.929 . S
H717 C726 0.930 . S
H718 C728 0.930 . S
H719 C731 0.929 . S
H720 C734 0.930 . S
H721 C736 0.960 . S
H722 C736 0.960 . S
H723 C736 0.960 . S
C724 H716 0.929 . S
C724 C725 1.377 . S
C724 C726 1.384 . S
C725 C724 1.377 . S
C725 C731 1.390 . S
C726 H717 0.930 . S
C726 C724 1.384 . S
C726 C727 1.372 . S
C727 C726 1.372 . S
C727 C728 1.400 . S
C727 C732 1.490 . S
C728 H718 0.930 . S
C728 C727 1.400 . S
C728 C731 1.386 . S
H729 C745 0.930 . S
H730 C746 0.931 . S
C731 H719 0.929 . S
C731 C725 1.390 . S
C731 C728 1.386 . S
C732 C727 1.490 . S
C732 C734 1.395 . S
C732 C735 1.403 . S
H733 C739 0.930 . S
C734 H720 0.930 . S
C734 C732 1.395 . S
C734 C737 1.403 . S
C735 C732 1.403 . S
C735 C736 1.524 . S
C735 C739 1.400 . S
C736 H721 0.960 . S
C736 H722 0.960 . S
C736 H723 0.960 . S
C736 C735 1.524 . S
C737 C734 1.403 . S
C737 C738 1.392 . S
C737 C741 1.495 . S
C738 C737 1.392 . S
C738 C739 1.385 . S
C738 C740 1.478 . S
C739 H733 0.930 . S
C739 C735 1.400 . S
C739 C738 1.385 . S
C740 C738 1.478 . S
C740 C742 1.381 . S
C740 C746 1.383 . S
C741 C737 1.495 . S
C741 H747 0.959 . S
C741 H748 0.961 . S
C741 H749 0.960 . S
C742 C740 1.381 . S
C742 C743 1.394 . S
C742 H750 0.930 . S
C743 C742 1.394 . S
C743 C744 1.383 . S
C743 H751 0.929 . S
C744 C743 1.383 . S
C744 C745 1.377 . S
C745 H729 0.930 . S
C745 C744 1.377 . S
C745 C746 1.379 . S
C746 H730 0.931 . S
C746 C740 1.383 . S
C746 C745 1.379 . S
H747 C741 0.959 . S
H748 C741 0.961 . S
H749 C741 0.960 . S
H750 C742 0.930 . S
H751 C743 0.929 . S
H752 C760 0.929 . S
H753 C762 0.930 . S
H754 C764 0.930 . S
H755 C767 0.929 . S
H756 C770 0.930 . S
H757 C772 0.960 . S
H758 C772 0.960 . S
H759 C772 0.960 . S
C760 H752 0.929 . S
C760 C761 1.377 . S
C760 C762 1.384 . S
C761 C760 1.377 . S
C761 C767 1.390 . S
C762 H753 0.930 . S
C762 C760 1.384 . S
C762 C763 1.372 . S
C763 C762 1.372 . S
C763 C764 1.400 . S
C763 C768 1.490 . S
C764 H754 0.930 . S
C764 C763 1.400 . S
C764 C767 1.386 . S
H765 C781 0.930 . S
H766 C782 0.931 . S
C767 H755 0.929 . S
C767 C761 1.390 . S
C767 C764 1.386 . S
C768 C763 1.490 . S
C768 C770 1.395 . S
C768 C771 1.403 . S
H769 C775 0.930 . S
C770 H756 0.930 . S
C770 C768 1.395 . S
C770 C773 1.403 . S
C771 C768 1.403 . S
C771 C772 1.524 . S
C771 C775 1.400 . S
C772 H757 0.960 . S
C772 H758 0.960 . S
C772 H759 0.960 . S
C772 C771 1.524 . S
C773 C770 1.403 . S
C773 C774 1.392 . S
C773 C777 1.495 . S
C774 C773 1.392 . S
C774 C775 1.385 . S
C774 C776 1.478 . S
C775 H769 0.930 . S
C775 C771 1.400 . S
C775 C774 1.385 . S
C776 C774 1.478 . S
C776 C778 1.381 . S
C776 C782 1.383 . S
C777 C773 1.495 . S
C777 H783 0.959 . S
C777 H784 0.961 . S
C777 H785 0.960 . S
C778 C776 1.381 . S
C778 C779 1.394 . S
C778 H786 0.930 . S
C779 C778 1.394 . S
C779 C780 1.383 . S
C779 H787 0.929 . S
C780 C779 1.383 . S
C780 C781 1.377 . S
C781 H765 0.930 . S
C781 C780 1.377 . S
C781 C782 1.379 . S
C782 H766 0.931 . S
C782 C776 1.383 . S
C782 C781 1.379 . S
H783 C777 0.959 . S
H784 C777 0.961 . S
H785 C777 0.960 . S
H786 C778 0.930 . S
H787 C779 0.929 . S
H788 C796 0.929 . S
H789 C798 0.930 . S
H790 C800 0.930 . S
H791 C803 0.929 . S
H792 C806 0.930 . S
H793 C808 0.960 . S
H794 C808 0.960 . S
H795 C808 0.960 . S
C796 H788 0.929 . S
C796 C797 1.377 . S
C796 C798 1.384 . S
C797 C796 1.377 . S
C797 C803 1.390 . S
C798 H789 0.930 . S
C798 C796 1.384 . S
C798 C799 1.372 . S
C799 C798 1.372 . S
C799 C800 1.400 . S
C799 C804 1.490 . S
C800 H790 0.930 . S
C800 C799 1.400 . S
C800 C803 1.386 . S
H801 C817 0.930 . S
H802 C818 0.931 . S
C803 H791 0.929 . S
C803 C797 1.390 . S
C803 C800 1.386 . S
C804 C799 1.490 . S
C804 C806 1.395 . S
C804 C807 1.403 . S
H805 C811 0.930 . S
C806 H792 0.930 . S
C806 C804 1.395 . S
C806 C809 1.403 . S
C807 C804 1.403 . S
C807 C808 1.524 . S
C807 C811 1.400 . S
C808 H793 0.960 . S
C808 H794 0.960 . S
C808 H795 0.960 . S
C808 C807 1.524 . S
C809 C806 1.403 . S
C809 C810 1.392 . S
C809 C813 1.495 . S
C810 C809 1.392 . S
C810 C811 1.385 . S
C810 C812 1.478 . S
C811 H805 0.930 . S
C811 C807 1.400 . S
C811 C810 1.385 . S
C812 C810 1.478 . S
C812 C814 1.381 . S
C812 C818 1.383 . S
C813 C809 1.495 . S
C813 H819 0.959 . S
C813 H820 0.961 . S
C813 H821 0.960 . S
C814 C812 1.381 . S
C814 C815 1.394 . S
C814 H822 0.930 . S
C815 C814 1.394 . S
C815 C816 1.383 . S
C815 H823 0.929 . S
C816 C815 1.383 . S
C816 C817 1.377 . S
C817 H801 0.930 . S
C817 C816 1.377 . S
C817 C818 1.379 . S
C818 H802 0.931 . S
C818 C812 1.383 . S
C818 C817 1.379 . S
H819 C813 0.959 . S
H820 C813 0.961 . S
H821 C813 0.960 . S
H822 C814 0.930 . S
H823 C815 0.929 . S
H824 C832 0.929 . S
H825 C834 0.930 . S
H826 C836 0.930 . S
H827 C839 0.929 . S
H828 C842 0.930 . S
H829 C844 0.960 . S
H830 C844 0.960 . S
H831 C844 0.960 . S
C832 H824 0.929 . S
C832 C833 1.377 . S
C832 C834 1.384 . S
C833 C832 1.377 . S
C833 C839 1.390 . S
C834 H825 0.930 . S
C834 C832 1.384 . S
C834 C835 1.372 . S
C835 C834 1.372 . S
C835 C836 1.400 . S
C835 C840 1.490 . S
C836 H826 0.930 . S
C836 C835 1.400 . S
C836 C839 1.386 . S
H837 C853 0.930 . S
H838 C854 0.931 . S
C839 H827 0.929 . S
C839 C833 1.390 . S
C839 C836 1.386 . S
C840 C835 1.490 . S
C840 C842 1.395 . S
C840 C843 1.403 . S
H841 C847 0.930 . S
C842 H828 0.930 . S
C842 C840 1.395 . S
C842 C845 1.403 . S
C843 C840 1.403 . S
C843 C844 1.524 . S
C843 C847 1.400 . S
C844 H829 0.960 . S
C844 H830 0.960 . S
C844 H831 0.960 . S
C844 C843 1.524 . S
C845 C842 1.403 . S
C845 C846 1.392 . S
C845 C849 1.495 . S
C846 C845 1.392 . S
C846 C847 1.385 . S
C846 C848 1.478 . S
C847 H841 0.930 . S
C847 C843 1.400 . S
C847 C846 1.385 . S
C848 C846 1.478 . S
C848 C850 1.381 . S
C848 C854 1.383 . S
C849 C845 1.495 . S
C849 H855 0.959 . S
C849 H856 0.961 . S
C849 H857 0.960 . S
C850 C848 1.381 . S
C850 C851 1.394 . S
C850 H858 0.930 . S
C851 C850 1.394 . S
C851 C852 1.383 . S
C851 H859 0.929 . S
C852 C851 1.383 . S
C852 C853 1.377 . S
C853 H837 0.930 . S
C853 C852 1.377 . S
C853 C854 1.379 . S
C854 H838 0.931 . S
C854 C848 1.383 . S
C854 C853 1.379 . S
H855 C849 0.959 . S
H856 C849 0.961 . S
H857 C849 0.960 . S
H858 C850 0.930 . S
H859 C851 0.929 . S
H860 C868 0.929 . S
H861 C870 0.930 . S
H862 C872 0.930 . S
H863 C875 0.929 . S
H864 C878 0.930 . S
H865 C880 0.960 . S
H866 C880 0.960 . S
H867 C880 0.960 . S
C868 H860 0.929 . S
C868 C869 1.377 . S
C868 C870 1.384 . S
C869 C868 1.377 . S
C869 C875 1.390 . S
C870 H861 0.930 . S
C870 C868 1.384 . S
C870 C871 1.372 . S
C871 C870 1.372 . S
C871 C872 1.400 . S
C871 C876 1.490 . S
C872 H862 0.930 . S
C872 C871 1.400 . S
C872 C875 1.386 . S
H873 C889 0.930 . S
H874 C890 0.931 . S
C875 H863 0.929 . S
C875 C869 1.390 . S
C875 C872 1.386 . S
C876 C871 1.490 . S
C876 C878 1.395 . S
C876 C879 1.403 . S
H877 C883 0.930 . S
C878 H864 0.930 . S
C878 C876 1.395 . S
C878 C881 1.403 . S
C879 C876 1.403 . S
C879 C880 1.524 . S
C879 C883 1.400 . S
C880 H865 0.960 . S
C880 H866 0.960 . S
C880 H867 0.960 . S
C880 C879 1.524 . S
C881 C878 1.403 . S
C881 C882 1.392 . S
C881 C885 1.495 . S
C882 C881 1.392 . S
C882 C883 1.385 . S
C882 C884 1.478 . S
C883 H877 0.930 . S
C883 C879 1.400 . S
C883 C882 1.385 . S
C884 C882 1.478 . S
C884 C886 1.381 . S
C884 C890 1.383 . S
C885 C881 1.495 . S
C885 H891 0.959 . S
C885 H892 0.961 . S
C885 H893 0.960 . S
C886 C884 1.381 . S
C886 C887 1.394 . S
C886 H894 0.930 . S
C887 C886 1.394 . S
C887 C888 1.383 . S
C887 H895 0.929 . S
C888 C887 1.383 . S
C888 C889 1.377 . S
C889 H873 0.930 . S
C889 C888 1.377 . S
C889 C890 1.379 . S
C890 H874 0.931 . S
C890 C884 1.383 . S
C890 C889 1.379 . S
H891 C885 0.959 . S
H892 C885 0.961 . S
H893 C885 0.960 . S
H894 C886 0.930 . S
H895 C887 0.929 . S
H896 C904 0.929 . S
H897 C906 0.930 . S
H898 C908 0.930 . S
H899 C911 0.929 . S
H900 C914 0.930 . S
H901 C916 0.960 . S
H902 C916 0.960 . S
H903 C916 0.960 . S
C904 H896 0.929 . S
C904 C905 1.377 . S
C904 C906 1.384 . S
C905 C904 1.377 . S
C905 C911 1.390 . S
C906 H897 0.930 . S
C906 C904 1.384 . S
C906 C907 1.372 . S
C907 C906 1.372 . S
C907 C908 1.400 . S
C907 C912 1.490 . S
C908 H898 0.930 . S
C908 C907 1.400 . S
C908 C911 1.386 . S
H909 C925 0.930 . S
H910 C926 0.931 . S
C911 H899 0.929 . S
C911 C905 1.390 . S
C911 C908 1.386 . S
C912 C907 1.490 . S
C912 C914 1.395 . S
C912 C915 1.403 . S
H913 C919 0.930 . S
C914 H900 0.930 . S
C914 C912 1.395 . S
C914 C917 1.403 . S
C915 C912 1.403 . S
C915 C916 1.524 . S
C915 C919 1.400 . S
C916 H901 0.960 . S
C916 H902 0.960 . S
C916 H903 0.960 . S
C916 C915 1.524 . S
C917 C914 1.403 . S
C917 C918 1.392 . S
C917 C921 1.495 . S
C918 C917 1.392 . S
C918 C919 1.385 . S
C918 C920 1.478 . S
C919 H913 0.930 . S
C919 C915 1.400 . S
C919 C918 1.385 . S
C920 C918 1.478 . S
C920 C922 1.381 . S
C920 C926 1.383 . S
C921 C917 1.495 . S
C921 H927 0.959 . S
C921 H928 0.961 . S
C921 H929 0.960 . S
C922 C920 1.381 . S
C922 C923 1.394 . S
C922 H930 0.930 . S
C923 C922 1.394 . S
C923 C924 1.383 . S
C923 H931 0.929 . S
C924 C923 1.383 . S
C924 C925 1.377 . S
C925 H909 0.930 . S
C925 C924 1.377 . S
C925 C926 1.379 . S
C926 H910 0.931 . S
C926 C920 1.383 . S
C926 C925 1.379 . S
H927 C921 0.959 . S
H928 C921 0.961 . S
H929 C921 0.960 . S
H930 C922 0.930 . S
H931 C923 0.929 . S
H932 C940 0.929 . S
H933 C942 0.930 . S
H934 C944 0.930 . S
H935 C947 0.929 . S
H936 C950 0.930 . S
H937 C952 0.960 . S
H938 C952 0.960 . S
H939 C952 0.960 . S
C940 H932 0.929 . S
C940 C941 1.377 . S
C940 C942 1.384 . S
C941 C940 1.377 . S
C941 C947 1.390 . S
C942 H933 0.930 . S
C942 C940 1.384 . S
C942 C943 1.372 . S
C943 C942 1.372 . S
C943 C944 1.400 . S
C943 C948 1.490 . S
C944 H934 0.930 . S
C944 C943 1.400 . S
C944 C947 1.386 . S
H945 C961 0.930 . S
H946 C962 0.931 . S
C947 H935 0.929 . S
C947 C941 1.390 . S
C947 C944 1.386 . S
C948 C943 1.490 . S
C948 C950 1.395 . S
C948 C951 1.403 . S
H949 C955 0.930 . S
C950 H936 0.930 . S
C950 C948 1.395 . S
C950 C953 1.403 . S
C951 C948 1.403 . S
C951 C952 1.524 . S
C951 C955 1.400 . S
C952 H937 0.960 . S
C952 H938 0.960 . S
C952 H939 0.960 . S
C952 C951 1.524 . S
C953 C950 1.403 . S
C953 C954 1.392 . S
C953 C957 1.495 . S
C954 C953 1.392 . S
C954 C955 1.385 . S
C954 C956 1.478 . S
C955 H949 0.930 . S
C955 C951 1.400 . S
C955 C954 1.385 . S
C956 C954 1.478 . S
C956 C958 1.381 . S
C956 C962 1.383 . S
C957 C953 1.495 . S
C957 H963 0.959 . S
C957 H964 0.961 . S
C957 H965 0.960 . S
C958 C956 1.381 . S
C958 C959 1.394 . S
C958 H966 0.930 . S
C959 C958 1.394 . S
C959 C960 1.383 . S
C959 H967 0.929 . S
C960 C959 1.383 . S
C960 C961 1.377 . S
C961 H945 0.930 . S
C961 C960 1.377 . S
C961 C962 1.379 . S
C962 H946 0.931 . S
C962 C956 1.383 . S
C962 C961 1.379 . S
H963 C957 0.959 . S
H964 C957 0.961 . S
H965 C957 0.960 . S
H966 C958 0.930 . S
H967 C959 0.929 . S
H968 C976 0.929 . S
H969 C978 0.930 . S
H970 C980 0.930 . S
H971 C983 0.929 . S
H972 C986 0.930 . S
H973 C988 0.960 . S
H974 C988 0.960 . S
H975 C988 0.960 . S
C976 H968 0.929 . S
C976 C977 1.377 . S
C976 C978 1.384 . S
C977 C976 1.377 . S
C977 C983 1.390 . S
C978 H969 0.930 . S
C978 C976 1.384 . S
C978 C979 1.372 . S
C979 C978 1.372 . S
C979 C980 1.400 . S
C979 C984 1.490 . S
C980 H970 0.930 . S
C980 C979 1.400 . S
C980 C983 1.386 . S
H981 C997 0.930 . S
H982 C998 0.931 . S
C983 H971 0.929 . S
C983 C977 1.390 . S
C983 C980 1.386 . S
C984 C979 1.490 . S
C984 C986 1.395 . S
C984 C987 1.403 . S
H985 C991 0.930 . S
C986 H972 0.930 . S
C986 C984 1.395 . S
C986 C989 1.403 . S
C987 C984 1.403 . S
C987 C988 1.524 . S
C987 C991 1.400 . S
C988 H973 0.960 . S
C988 H974 0.960 . S
C988 H975 0.960 . S
C988 C987 1.524 . S
C989 C986 1.403 . S
C989 C990 1.392 . S
C989 C993 1.495 . S
C990 C989 1.392 . S
C990 C991 1.385 . S
C990 C992 1.478 . S
C991 H985 0.930 . S
C991 C987 1.400 . S
C991 C990 1.385 . S
C992 C990 1.478 . S
C992 C994 1.381 . S
C992 C998 1.383 . S
C993 C989 1.495 . S
C993 H999 0.959 . S
C993 H1000 0.961 . S
C993 H1001 0.960 . S
C994 C992 1.381 . S
C994 C995 1.394 . S
C994 H1002 0.930 . S
C995 C994 1.394 . S
C995 C996 1.383 . S
C995 H1003 0.929 . S
C996 C995 1.383 . S
C996 C997 1.377 . S
C997 H981 0.930 . S
C997 C996 1.377 . S
C997 C998 1.379 . S
C998 H982 0.931 . S
C998 C992 1.383 . S
C998 C997 1.379 . S
H999 C993 0.959 . S
H1000 C993 0.961 . S
H1001 C993 0.960 . S
H1002 C994 0.930 . S
H1003 C995 0.929 . S
H1004 C1012 0.929 . S
H1005 C1014 0.930 . S
H1006 C1016 0.930 . S
H1007 C1019 0.929 . S
H1008 C1022 0.930 . S
H1009 C1024 0.960 . S
H1010 C1024 0.960 . S
H1011 C1024 0.960 . S
C1012 H1004 0.929 . S
C1012 C1013 1.377 . S
C1012 C1014 1.384 . S
C1013 C1012 1.377 . S
C1013 C1019 1.390 . S
C1014 H1005 0.930 . S
C1014 C1012 1.384 . S
C1014 C1015 1.372 . S
C1015 C1014 1.372 . S
C1015 C1016 1.400 . S
C1015 C1020 1.490 . S
C1016 H1006 0.930 . S
C1016 C1015 1.400 . S
C1016 C1019 1.386 . S
H1017 C1033 0.930 . S
H1018 C1034 0.931 . S
C1019 H1007 0.929 . S
C1019 C1013 1.390 . S
C1019 C1016 1.386 . S
C1020 C1015 1.490 . S
C1020 C1022 1.395 . S
C1020 C1023 1.403 . S
H1021 C1027 0.930 . S
C1022 H1008 0.930 . S
C1022 C1020 1.395 . S
C1022 C1025 1.403 . S
C1023 C1020 1.403 . S
C1023 C1024 1.524 . S
C1023 C1027 1.400 . S
C1024 H1009 0.960 . S
C1024 H1010 0.960 . S
C1024 H1011 0.960 . S
C1024 C1023 1.524 . S
C1025 C1022 1.403 . S
C1025 C1026 1.392 . S
C1025 C1029 1.495 . S
C1026 C1025 1.392 . S
C1026 C1027 1.385 . S
C1026 C1028 1.478 . S
C1027 H1021 0.930 . S
C1027 C1023 1.400 . S
C1027 C1026 1.385 . S
C1028 C1026 1.478 . S
C1028 C1030 1.381 . S
C1028 C1034 1.383 . S
C1029 C1025 1.495 . S
C1029 H1035 0.959 . S
C1029 H1036 0.961 . S
C1029 H1037 0.960 . S
C1030 C1028 1.381 . S
C1030 C1031 1.394 . S
C1030 H1038 0.930 . S
C1031 C1030 1.394 . S
C1031 C1032 1.383 . S
C1031 H1039 0.929 . S
C1032 C1031 1.383 . S
C1032 C1033 1.377 . S
C1033 H1017 0.930 . S
C1033 C1032 1.377 . S
C1033 C1034 1.379 . S
C1034 H1018 0.931 . S
C1034 C1028 1.383 . S
C1034 C1033 1.379 . S
H1035 C1029 0.959 . S
H1036 C1029 0.961 . S
H1037 C1029 0.960 . S
H1038 C1030 0.930 . S
H1039 C1031 0.929 . S
C185 C6 1.530 . S
C204 C98 1.516 . S
C221 C18 1.685 . S
C240 C117 1.668 . S
C276 C154 1.776 . S
C257 C28 1.809 . S
C293 C40 1.027 . S
C312 C164 1.038 . S
C348 C134 2.181 . S
C329 C9 2.159 . S
C384 C104 1.448 . S
C365 C16 1.525 . S
C420 C175 1.455 . S
C401 C30 1.472 . S
C456 C145 0.980 . S
C437 C42 0.991 . S
C473 C4 1.668 . S
C492 C158 1.675 . S
C528 C125 1.817 . S
C509 C33 1.892 . S
C545 C45 1.508 . S
C564 C115 1.505 . S
C581 C21 1.448 . S
C600 C137 1.446 . S
C636 C97 1.536 . S
C617 C57 1.566 . S
C653 C66 1.688 . S
C672 C118 1.625 . S
C689 C76 1.857 . S
C708 C155 1.822 . S
C725 C88 0.958 . S
C744 C165 0.966 . S
C761 C54 2.134 . S
C780 C135 2.149 . S
C816 C105 1.514 . S
C797 C64 1.588 . S
C852 C174 1.344 . S
C833 C78 1.360 . S
C888 C144 0.978 . S
C869 C93 1.017 . S
C905 C52 1.616 . S
C924 C157 1.625 . S
C960 C124 1.813 . S
C941 C81 1.885 . S
C996 C114 1.479 . S
C977 C90 1.489 . S
C1013 C69 1.478 . S
C1032 C138 1.488 . S
