# Generated by pormake.
# Topology wbl, (4,4)-cn, num edge types: 1
# Building blocks:
#     Node 0, Type 0, BuildingBlock: NAWXER_clean_linker_0, # of connection points: 4
#     Node 1, Type 0, BuildingBlock: NAWXER_clean_linker_0, # of connection points: 4
#     Node 2, Type 0, BuildingBlock: NAWXER_clean_linker_0, # of connection points: 4
#     Node 3, Type 0, BuildingBlock: NAWXER_clean_linker_0, # of connection points: 4
#     Node 4, Type 0, BuildingBlock: NAWXER_clean_linker_0, # of connection points: 4
#     Node 5, Type 0, BuildingBlock: NAWXER_clean_linker_0, # of connection points: 4
#     Node 6, Type 0, BuildingBlock: NAWXER_clean_linker_0, # of connection points: 4
#     Node 7, Type 0, BuildingBlock: NAWXER_clean_linker_0, # of connection points: 4
#     Node 8, Type 1, BuildingBlock: NAHDIM_clean_sbu_0, # of connection points: 4
#     Node 9, Type 1, BuildingBlock: NAHDIM_clean_sbu_0, # of connection points: 4
#     Node 10, Type 1, BuildingBlock: NAHDIM_clean_sbu_0, # of connection points: 4
#     Node 11, Type 1, BuildingBlock: NAHDIM_clean_sbu_0, # of connection points: 4
#     Node 12, Type 1, BuildingBlock: NAHDIM_clean_sbu_0, # of connection points: 4
#     Node 13, Type 1, BuildingBlock: NAHDIM_clean_sbu_0, # of connection points: 4
#     Node 14, Type 1, BuildingBlock: NAHDIM_clean_sbu_0, # of connection points: 4
#     Node 15, Type 1, BuildingBlock: NAHDIM_clean_sbu_0, # of connection points: 4
#     Edge 16, Type (0, 1), BuildingBlock: EZIPEK_clean_linker_0, # of connection points: 2
#     Edge 17, Type (0, 1), BuildingBlock: EZIPEK_clean_linker_0, # of connection points: 2
#     Edge 18, Type (0, 1), BuildingBlock: EZIPEK_clean_linker_0, # of connection points: 2
#     Edge 19, Type (0, 1), BuildingBlock: EZIPEK_clean_linker_0, # of connection points: 2
#     Edge 20, Type (0, 1), BuildingBlock: EZIPEK_clean_linker_0, # of connection points: 2
#     Edge 21, Type (0, 1), BuildingBlock: EZIPEK_clean_linker_0, # of connection points: 2
#     Edge 22, Type (0, 1), BuildingBlock: EZIPEK_clean_linker_0, # of connection points: 2
#     Edge 23, Type (0, 1), BuildingBlock: EZIPEK_clean_linker_0, # of connection points: 2
#     Edge 24, Type (0, 1), BuildingBlock: EZIPEK_clean_linker_0, # of connection points: 2
#     Edge 25, Type (0, 1), BuildingBlock: EZIPEK_clean_linker_0, # of connection points: 2
#     Edge 26, Type (0, 1), BuildingBlock: EZIPEK_clean_linker_0, # of connection points: 2
#     Edge 27, Type (0, 1), BuildingBlock: EZIPEK_clean_linker_0, # of connection points: 2
#     Edge 28, Type (0, 1), BuildingBlock: EZIPEK_clean_linker_0, # of connection points: 2
#     Edge 29, Type (0, 1), BuildingBlock: EZIPEK_clean_linker_0, # of connection points: 2
#     Edge 30, Type (0, 1), BuildingBlock: EZIPEK_clean_linker_0, # of connection points: 2
#     Edge 31, Type (0, 1), BuildingBlock: EZIPEK_clean_linker_0, # of connection points: 2
#     Edge 32, Type (0, 1), BuildingBlock: EZIPEK_clean_linker_0, # of connection points: 2
#     Edge 33, Type (0, 1), BuildingBlock: EZIPEK_clean_linker_0, # of connection points: 2
#     Edge 34, Type (0, 1), BuildingBlock: EZIPEK_clean_linker_0, # of connection points: 2
#     Edge 35, Type (0, 1), BuildingBlock: EZIPEK_clean_linker_0, # of connection points: 2
#     Edge 36, Type (0, 1), BuildingBlock: EZIPEK_clean_linker_0, # of connection points: 2
#     Edge 37, Type (0, 1), BuildingBlock: EZIPEK_clean_linker_0, # of connection points: 2
#     Edge 38, Type (0, 1), BuildingBlock: EZIPEK_clean_linker_0, # of connection points: 2
#     Edge 39, Type (0, 1), BuildingBlock: EZIPEK_clean_linker_0, # of connection points: 2
#     Edge 40, Type (0, 1), BuildingBlock: EZIPEK_clean_linker_0, # of connection points: 2
#     Edge 41, Type (0, 1), BuildingBlock: EZIPEK_clean_linker_0, # of connection points: 2
#     Edge 42, Type (0, 1), BuildingBlock: EZIPEK_clean_linker_0, # of connection points: 2
#     Edge 43, Type (0, 1), BuildingBlock: EZIPEK_clean_linker_0, # of connection points: 2
#     Edge 44, Type (0, 1), BuildingBlock: EZIPEK_clean_linker_0, # of connection points: 2
#     Edge 45, Type (0, 1), BuildingBlock: EZIPEK_clean_linker_0, # of connection points: 2
#     Edge 46, Type (0, 1), BuildingBlock: EZIPEK_clean_linker_0, # of connection points: 2
#     Edge 47, Type (0, 1), BuildingBlock: EZIPEK_clean_linker_0, # of connection points: 2
# Relax obj value: 0.155
# Max RMSD: 0.154
# Mean RMSD: 0.138
data_MOF--net-wbl--node1-NAHDIM_clean_sbu_0--node2-NAWXER_clean_linker_0--edge1-EZIPEK_clean_linker_0
_symmetry_space_group_name_H-M    P1
_symmetry_Int_Tables_number       1
_symmetry_cell_setting            triclinic
loop_
_symmetry_equiv_pos_as_xyz
'x, y, z'
_cell_length_a     36.200669
_cell_length_b     34.873299
_cell_length_c     59.341126
_cell_angle_alpha  89.904641
_cell_angle_beta   90.130819
_cell_angle_gamma 89.976059
loop_
_atom_site_label
_atom_site_type_symbol
_atom_site_fract_x
_atom_site_fract_y
_atom_site_fract_z
_atom_type_partial_charge
C0 C 0.07787 0.89863 0.38322 0.0
C1 C 0.10408 0.91529 0.39802 0.0
C2 C 0.053 0.92114 0.37097 0.0
C3 C 0.05249 0.96103 0.37357 0.0
C4 C 0.10024 0.95516 0.40211 0.0
C5 C 0.07543 0.97765 0.38979 0.0
C6 C 0.02663 0.98526 0.36041 0.0
C7 C 0.10689 0.93632 0.31187 0.0
C8 C 0.09149 0.90834 0.29777 0.0
C9 C 0.08412 0.96041 0.32434 0.0
C10 C 0.04558 0.95661 0.32306 0.0
C11 C 0.05298 0.90495 0.29602 0.0
C12 C 0.03008 0.92926 0.3085 0.0
C13 C 0.02168 0.98132 0.33693 0.0
C14 C 0.92076 0.11289 0.31355 0.0
C15 C 0.894 0.09341 0.30084 0.0
C16 C 0.94767 0.09223 0.32535 0.0
C17 C 0.94795 0.05194 0.32455 0.0
C18 C 0.89506 0.05333 0.29942 0.0
C19 C 0.92206 0.03273 0.31106 0.0
C20 C 0.97498 0.02938 0.33763 0.0
C21 C 0.89986 0.08429 0.38921 0.0
C22 C 0.91834 0.10568 0.40574 0.0
C23 C 0.91991 0.06159 0.37417 0.0
C24 C 0.95874 0.0607 0.37519 0.0
C25 C 0.95701 0.10533 0.40659 0.0
C26 C 0.97706 0.083 0.39143 0.0
C27 C 0.98048 0.03404 0.36106 0.0
H28 H 0.0751 0.86802 0.38135 0.0
H29 H 0.03361 0.90715 0.35974 0.0
H30 H 0.11521 0.96972 0.41525 0.0
H31 H 0.07414 0.0082 0.39303 0.0
H32 H 0.1366 0.9393 0.3133 0.0
H33 H 0.0966 0.98188 0.33511 0.0
H34 H 0.0408 0.88342 0.28517 0.0
H35 H 0.00038 0.92617 0.30719 0.0
H36 H 0.92023 0.14388 0.31471 0.0
H37 H 0.96794 0.10759 0.33529 0.0
H38 H 0.87456 0.03801 0.28961 0.0
H39 H 0.92206 0.00171 0.31007 0.0
H40 H 0.86995 0.08387 0.38862 0.0
H41 H 0.90498 0.04369 0.36238 0.0
H42 H 0.97159 0.12145 0.41942 0.0
H43 H 0.00692 0.0825 0.39269 0.0
N44 N 0.00614 0.01176 0.37152 0.0
N45 N -0.00424 0.00315 0.32645 0.0
C46 C 0.89252 0.4235 0.62701 0.0
C47 C 0.90658 0.40066 0.64447 0.0
C48 C 0.91657 0.44455 0.61342 0.0
C49 C 0.95502 0.44229 0.61679 0.0
C50 C 0.94482 0.3986 0.64804 0.0
C51 C 0.96889 0.41935 0.63431 0.0
C52 C 0.98074 0.46529 0.6029 0.0
C53 C 0.92938 0.37844 0.55985 0.0
C54 C 0.89991 0.39379 0.54743 0.0
C55 C 0.9559 0.40254 0.56918 0.0
C56 C 0.95319 0.44238 0.56634 0.0
C57 C 0.89804 0.43347 0.54357 0.0
C58 C 0.92486 0.45771 0.55286 0.0
C59 C 0.97801 0.4677 0.57919 0.0
C60 C 0.11037 0.56462 0.55597 0.0
C61 C 0.09379 0.59577 0.54488 0.0
C62 C 0.08843 0.53691 0.56639 0.0
C63 C 0.04976 0.53988 0.56556 0.0
C64 C 0.05519 0.59761 0.54306 0.0
C65 C 0.03328 0.56961 0.55321 0.0
C66 C 0.02646 0.51363 0.57875 0.0
C67 C 0.07381 0.59538 0.63109 0.0
C68 C 0.09963 0.57733 0.64526 0.0
C69 C 0.05223 0.57367 0.61631 0.0
C70 C 0.05599 0.53362 0.61569 0.0
C71 C 0.10456 0.53746 0.64386 0.0
C72 C 0.08247 0.51569 0.6294 0.0
C73 C 0.03011 0.51016 0.60233 0.0
H74 H 0.863 0.42568 0.62428 0.0
H75 H 0.90503 0.46313 0.60058 0.0
H76 H 0.95595 0.38122 0.6616 0.0
H77 H -0.00165 0.41749 0.63738 0.0
H78 H 0.93114 0.34785 0.56291 0.0
H79 H 0.97779 0.39021 0.57936 0.0
H80 H 0.87533 0.44562 0.53403 0.0
H81 H 0.92244 0.48842 0.55053 0.0
H82 H 0.14015 0.56279 0.55741 0.0
H83 H 0.10156 0.5138 0.57564 0.0
H84 H 0.04206 0.62147 0.53449 0.0
H85 H 0.00348 0.57218 0.55235 0.0
H86 H 0.06963 0.6261 0.63197 0.0
H87 H 0.03161 0.58795 0.60603 0.0
H88 H 0.12441 0.5231 0.65465 0.0
H89 H 0.08559 0.48479 0.62918 0.0
N90 N 0.00706 0.48622 0.61357 0.0
N91 N 0.00057 0.4922 0.56792 0.0
C92 C 0.56237 0.37955 0.87592 0.0
C93 C 0.58143 0.38974 0.89559 0.0
C94 C 0.54358 0.40748 0.86349 0.0
C95 C 0.54419 0.4461 0.87035 0.0
C96 C 0.58176 0.42808 0.90265 0.0
C97 C 0.56318 0.45606 0.89015 0.0
C98 C 0.52351 0.47582 0.85769 0.0
C99 C 0.61317 0.43563 0.81306 0.0
C100 C 0.60057 0.41267 0.79529 0.0
C101 C 0.58837 0.45777 0.82532 0.0
C102 C 0.55055 0.45698 0.8201 0.0
C103 C 0.56293 0.41253 0.78959 0.0
C104 C 0.53803 0.43492 0.80185 0.0
C105 C 0.52424 0.47884 0.83397 0.0
C106 C 0.42673 0.61718 0.81713 0.0
C107 C 0.40231 0.60143 0.80128 0.0
C108 C 0.45288 0.59381 0.82775 0.0
C109 C 0.45455 0.55445 0.82273 0.0
C110 C 0.40547 0.56273 0.79528 0.0
C111 C 0.43157 0.53941 0.80587 0.0
C112 C 0.47899 0.52828 0.83542 0.0
C113 C 0.39476 0.57083 0.88601 0.0
C114 C 0.41093 0.59093 0.90396 0.0
C115 C 0.41698 0.55043 0.87098 0.0
C116 C 0.45557 0.55017 0.8737 0.0
C117 C 0.44941 0.59117 0.90648 0.0
C118 C 0.47157 0.57072 0.89152 0.0
C119 C 0.47935 0.52635 0.8592 0.0
H120 H 0.56157 0.34994 0.87045 0.0
H121 H 0.52807 0.39875 0.84875 0.0
H122 H 0.59619 0.43624 0.91792 0.0
H123 H 0.56368 0.48553 0.89591 0.0
H124 H 0.64219 0.43606 0.81756 0.0
H125 H 0.59866 0.47521 0.83907 0.0
H126 H 0.55292 0.39487 0.77588 0.0
H127 H 0.50895 0.43421 0.79753 0.0
H128 H 0.42461 0.6471 0.82183 0.0
H129 H 0.47104 0.60618 0.84031 0.0
H130 H 0.38678 0.55027 0.78303 0.0
H131 H 0.43269 0.50924 0.8016 0.0
H132 H 0.36501 0.57015 0.88404 0.0
H133 H 0.40399 0.53405 0.85765 0.0
H134 H 0.46216 0.60631 0.9204 0.0
H135 H 0.50124 0.57056 0.89401 0.0
N136 N 0.50152 0.50014 0.86942 0.0
N137 N 0.50153 0.50446 0.82366 0.0
C138 C 0.41258 0.87734 0.05215 0.0
C139 C 0.38554 0.89435 0.03844 0.0
C140 C 0.4382 0.89995 0.06349 0.0
C141 C 0.43716 0.93997 0.06131 0.0
C142 C 0.38484 0.93434 0.03582 0.0
C143 C 0.41093 0.95707 0.047 0.0
C144 C 0.46302 0.96359 0.07448 0.0
C145 C 0.37693 0.92217 0.12346 0.0
C146 C 0.39023 0.90376 0.1429 0.0
C147 C 0.40147 0.94009 0.10865 0.0
C148 C 0.43987 0.93843 0.11248 0.0
C149 C 0.42845 0.90188 0.14671 0.0
C150 C 0.45301 0.9189 0.13162 0.0
C151 C 0.46635 0.96002 0.09816 0.0
C152 C 0.56557 0.08046 0.12968 0.0
C153 C 0.59511 0.06057 0.13966 0.0
C154 C 0.54144 0.06154 0.11507 0.0
C155 C 0.54634 0.02244 0.11056 0.0
C156 C 0.60123 0.02197 0.13405 0.0
C157 C 0.57654 0.00282 0.11988 0.0
C158 C 0.5185 0.00149 0.09739 0.0
C159 C 0.59905 0.05663 0.05185 0.0
C160 C 0.58312 0.0888 0.04148 0.0
C161 C 0.57654 0.0287 0.0616 0.0
C162 C 0.53792 0.03273 0.06108 0.0
C163 C 0.54456 0.09176 0.03987 0.0
C164 C 0.52206 0.06374 0.04953 0.0
C165 C 0.51409 0.0065 0.07401 0.0
H166 H 0.41347 0.84649 0.05432 0.0
H167 H 0.45857 0.88624 0.07422 0.0
H168 H 0.36398 0.94783 0.02535 0.0
H169 H 0.4099 0.98795 0.0451 0.0
H170 H 0.3475 0.924 0.12029 0.0
H171 H 0.39016 0.95635 0.09472 0.0
H172 H 0.43923 0.88776 0.16162 0.0
H173 H 0.48235 0.91742 0.13516 0.0
H174 H 0.56052 0.11026 0.13378 0.0
H175 H 0.51818 0.07699 0.10798 0.0
H176 H 0.624 0.00629 0.14154 0.0
H177 H 0.58062 0.97261 0.11647 0.0
H178 H 0.6288 0.05391 0.05306 0.0
H179 H 0.58924 0.00454 0.0701 0.0
H180 H 0.53194 0.11642 0.03182 0.0
H181 H 0.49233 0.06722 0.04892 0.0
N182 N 0.48656 0.98727 0.06328 0.0
N183 N 0.49436 0.97882 0.10864 0.0
C184 C 0.06631 0.60521 0.87532 0.0
C185 C 0.08354 0.59038 0.85603 0.0
C186 C 0.04743 0.58075 0.89006 0.0
C187 C 0.04667 0.54094 0.88612 0.0
C188 C 0.08327 0.5507 0.8523 0.0
C189 C 0.06515 0.52625 0.86722 0.0
C190 C 0.02318 0.51472 0.89962 0.0
C191 C 0.10166 0.56506 0.95009 0.0
C192 C 0.08473 0.58646 0.96718 0.0
C193 C 0.08039 0.54256 0.93563 0.0
C194 C 0.0418 0.54147 0.93793 0.0
C195 C 0.04628 0.58509 0.96975 0.0
C196 C 0.02495 0.56257 0.95525 0.0
C197 C 0.01915 0.51653 0.92331 0.0
C198 C 0.91797 0.38088 0.94055 0.0
C199 C 0.89161 0.3987 0.95426 0.0
C200 C 0.94607 0.40261 0.93073 0.0
C201 C 0.94761 0.44246 0.93422 0.0
C202 C 0.89456 0.43795 0.95897 0.0
C203 C 0.9225 0.45969 0.94906 0.0
C204 C 0.97398 0.46676 0.92173 0.0
C205 C 0.89688 0.41852 0.86864 0.0
C206 C 0.91495 0.39652 0.85225 0.0
C207 C 0.9174 0.44 0.88409 0.0
C208 C 0.95623 0.43932 0.88346 0.0
C209 C 0.95363 0.39528 0.85184 0.0
C210 C 0.97413 0.4167 0.86727 0.0
C211 C 0.97839 0.46459 0.89816 0.0
H212 H 0.06627 0.63581 0.87845 0.0
H213 H 0.03235 0.59319 0.90398 0.0
H214 H 0.0965 0.53871 0.83754 0.0
H215 H 0.06479 0.49579 0.86364 0.0
H216 H 0.1314 0.56558 0.9481 0.0
H217 H 0.09415 0.5256 0.92288 0.0
H218 H 0.03293 0.60126 0.98301 0.0
H219 H -0.00473 0.5617 0.9575 0.0
H220 H 0.91601 0.35054 0.93686 0.0
H221 H 0.96584 0.38854 0.91984 0.0
H222 H 0.87431 0.45199 0.96955 0.0
H223 H 0.92344 0.49029 0.95216 0.0
H224 H 0.86699 0.42002 0.86897 0.0
H225 H 0.90297 0.45801 0.89603 0.0
H226 H 0.96789 0.37866 0.83914 0.0
H227 H 0.00402 0.41611 0.86635 0.0
N228 N 0.00281 0.48856 0.88811 0.0
N229 N -0.00559 0.49273 0.93339 0.0
C230 C 0.39152 0.57655 0.12939 0.0
C231 C 0.40385 0.59968 0.1116 0.0
C232 C 0.41702 0.55716 0.14297 0.0
C233 C 0.45522 0.56138 0.13927 0.0
C234 C 0.44184 0.6042 0.10794 0.0
C235 C 0.46733 0.58516 0.12166 0.0
C236 C 0.48252 0.53839 0.15215 0.0
C237 C 0.42743 0.61558 0.20026 0.0
C238 C 0.40186 0.5964 0.21392 0.0
C239 C 0.45402 0.595 0.18847 0.0
C240 C 0.4552 0.55489 0.19003 0.0
C241 C 0.40376 0.55641 0.21624 0.0
C242 C 0.43061 0.53573 0.20446 0.0
C243 C 0.48092 0.53307 0.17575 0.0
C244 C 0.61553 0.43273 0.19107 0.0
C245 C 0.5993 0.40153 0.20221 0.0
C246 C 0.5934 0.46231 0.1827 0.0
C247 C 0.55485 0.46095 0.18541 0.0
C248 C 0.56113 0.40139 0.20619 0.0
C249 C 0.53903 0.43108 0.19793 0.0
C250 C 0.53071 0.48869 0.17372 0.0
C251 C 0.57075 0.4114 0.11729 0.0
C252 C 0.59699 0.42967 0.10361 0.0
C253 C 0.55102 0.43235 0.13325 0.0
C254 C 0.55702 0.47188 0.13555 0.0
C255 C 0.6043 0.46886 0.10672 0.0
C256 C 0.58395 0.49 0.12236 0.0
C257 C 0.53287 0.49471 0.15027 0.0
H258 H 0.36223 0.57246 0.13221 0.0
H259 H 0.40677 0.53788 0.15583 0.0
H260 H 0.45169 0.62183 0.09416 0.0
H261 H 0.49656 0.58853 0.1183 0.0
H262 H 0.42631 0.64648 0.19841 0.0
H263 H 0.47315 0.61032 0.1777 0.0
H264 H 0.38412 0.54133 0.22675 0.0
H265 H 0.43129 0.50476 0.2059 0.0
H266 H 0.64502 0.43326 0.188 0.0
H267 H 0.60618 0.48554 0.17342 0.0
H268 H 0.54829 0.37749 0.21483 0.0
H269 H 0.50939 0.42965 0.20027 0.0
H270 H 0.56477 0.38119 0.11512 0.0
H271 H 0.53007 0.41802 0.14319 0.0
H272 H 0.62455 0.48334 0.09633 0.0
H273 H 0.58876 0.52054 0.12392 0.0
N274 N 0.50872 0.51923 0.14034 0.0
N275 N 0.50475 0.50804 0.18569 0.0
C276 C 0.42268 0.88829 0.36877 0.0
C277 C 0.4059 0.90356 0.34939 0.0
C278 C 0.44224 0.91219 0.38346 0.0
C279 C 0.44412 0.95195 0.37942 0.0
C280 C 0.40773 0.94314 0.34535 0.0
C281 C 0.42656 0.96709 0.36024 0.0
C282 C 0.46695 0.97765 0.39368 0.0
C283 C 0.38298 0.92928 0.44081 0.0
C284 C 0.39763 0.90545 0.45764 0.0
C285 C 0.40628 0.9518 0.42765 0.0
C286 C 0.44466 0.95045 0.43097 0.0
C287 C 0.43593 0.90419 0.46118 0.0
C288 C 0.45932 0.92688 0.44801 0.0
C289 C 0.46926 0.975 0.41741 0.0
C290 C 0.56768 0.10937 0.44101 0.0
C291 C 0.59321 0.09054 0.45498 0.0
C292 C 0.54096 0.08825 0.42941 0.0
C293 C 0.53997 0.04808 0.43143 0.0
C294 C 0.59086 0.05078 0.45802 0.0
C295 C 0.56429 0.02968 0.44638 0.0
C296 C 0.51452 0.02467 0.41775 0.0
C297 C 0.59191 0.08146 0.36767 0.0
C298 C 0.57379 0.10117 0.35022 0.0
C299 C 0.57176 0.05823 0.38243 0.0
C300 C 0.53313 0.05539 0.38029 0.0
C301 C 0.5353 0.09884 0.34827 0.0
C302 C 0.51514 0.07617 0.3632 0.0
C303 C 0.51139 0.02821 0.39411 0.0
H304 H 0.42163 0.85775 0.37209 0.0
H305 H 0.45668 0.89933 0.39756 0.0
H306 H 0.39494 0.95541 0.33047 0.0
H307 H 0.42783 -0.00248 0.35658 0.0
H308 H 0.35342 0.9306 0.43798 0.0
H309 H 0.39429 0.97051 0.41501 0.0
H310 H 0.44754 0.88586 0.47413 0.0
H311 H 0.48885 0.92579 0.45096 0.0
H312 H 0.56919 0.14013 0.43862 0.0
H313 H 0.52176 0.10309 0.41841 0.0
H314 H 0.61043 0.03596 0.46879 0.0
H315 H 0.56369 -0.0012 0.44837 0.0
H316 H 0.62172 0.08264 0.36916 0.0
H317 H 0.58652 0.04154 0.39494 0.0
H318 H 0.52101 0.1137 0.33477 0.0
H319 H 0.48546 0.07415 0.36108 0.0
N320 N 0.48781 0.00447 0.38308 0.0
N321 N 0.49334 -0.0018 0.42848 0.0
C322 C 0.09987 0.92901 0.62962 0.0
C323 C 0.08658 0.90605 0.61201 0.0
C324 C 0.07532 0.94432 0.64538 0.0
C325 C 0.03726 0.93658 0.64376 0.0
C326 C 0.04879 0.8977 0.61061 0.0
C327 C 0.02427 0.91305 0.6263 0.0
C328 C 0.01044 0.95621 0.65853 0.0
C329 C 0.07282 0.87691 0.70372 0.0
C330 C 0.09493 0.89534 0.7198 0.0
C331 C 0.04685 0.8977 0.69136 0.0
C332 C 0.04278 0.9373 0.69483 0.0
C333 C 0.09092 0.93483 0.72344 0.0
C334 C 0.06472 0.95567 0.71112 0.0
C335 C 0.0146 0.95912 0.68216 0.0
C336 C 0.87658 0.04842 0.70622 0.0
C337 C 0.8922 0.07948 0.71777 0.0
C338 C 0.89939 0.02131 0.69601 0.0
C339 C 0.93799 0.02512 0.69723 0.0
C340 C 0.93066 0.08188 0.72028 0.0
C341 C 0.95346 0.05468 0.71014 0.0
C342 C 0.96224 0.00035 0.68366 0.0
C343 C 0.9135 0.07992 0.62997 0.0
C344 C 0.88544 0.06145 0.61776 0.0
C345 C 0.9358 0.05908 0.6448 0.0
C346 C 0.93062 0.01946 0.64734 0.0
C347 C 0.87873 0.02226 0.62147 0.0
C348 C 0.90167 0.00123 0.63587 0.0
C349 C 0.95766 -0.0033 0.6602 0.0
H350 H 0.129 0.93583 0.63078 0.0
H351 H 0.0859 0.96329 0.6583 0.0
H352 H 0.0382 0.88007 0.59704 0.0
H353 H -0.00497 0.90706 0.62459 0.0
H354 H 0.07552 0.84635 0.70088 0.0
H355 H 0.02959 0.88273 0.67932 0.0
H356 H 0.10776 0.94931 0.7359 0.0
H357 H 0.06174 0.98613 0.71417 0.0
H358 H 0.84689 0.04622 0.70425 0.0
H359 H 0.88696 -0.00181 0.68648 0.0
H360 H 0.94301 0.10575 0.7292 0.0
H361 H 0.98317 0.05792 0.71135 0.0
H362 H 0.91905 0.11013 0.62734 0.0
H363 H 0.95818 0.0735 0.65348 0.0
H364 H 0.85711 0.0076 0.61223 0.0
H365 H 0.89742 0.97063 0.63767 0.0
N366 N 0.98192 0.97491 0.64849 0.0
N367 N 0.99058 0.98148 0.69386 0.0
C368 C 0.19792 0.66851 0.01329 0.0
O369 O 0.20664 0.67152 0.03471 0.0
O370 O 0.29202 0.66533 0.03165 0.0
Zn371 Zn 0.2731 0.69399 0.00398 0.0
O372 O 0.30099 0.67679 0.97621 0.0
C373 C 0.30773 0.76704 0.00417 0.0
O374 O 0.33364 0.74682 0.99433 0.0
O375 O 0.2209 0.67833 0.99824 0.0
C376 C 0.33394 0.66432 0.97681 0.0
O377 O 0.35215 0.66367 0.99593 0.0
C378 C 0.31958 0.67702 0.04307 0.0
O379 O 0.33559 0.70948 0.03765 0.0
O380 O 0.27709 0.75118 0.00871 0.0
C381 C 0.21306 0.8329 0.25651 0.0
O382 O 0.23746 0.85952 0.25189 0.0
O383 O 0.29279 0.81158 0.21992 0.0
Zn384 Zn 0.27595 0.78713 0.2493 0.0
O385 O 0.30423 0.80772 0.27636 0.0
C386 C 0.31842 0.72048 0.24541 0.0
O387 O 0.34415 0.74655 0.24788 0.0
O388 O 0.22224 0.79783 0.25522 0.0
C389 C 0.33681 0.82139 0.27632 0.0
O390 O 0.35627 0.82125 0.25768 0.0
C391 C 0.30667 0.84493 0.21806 0.0
O392 O 0.30783 0.8676 0.23569 0.0
O393 O 0.2847 0.73029 0.2464 0.0
C394 C 0.27363 0.83772 0.5007 0.0
O395 O 0.24871 0.86491 0.50259 0.0
O396 O 0.19255 0.82479 0.53498 0.0
Zn397 Zn 0.20943 0.79746 0.50664 0.0
O398 O 0.18979 0.8229 0.47836 0.0
C399 C 0.16263 0.73444 0.51531 0.0
O400 O 0.13965 0.76264 0.51937 0.0
O401 O 0.26416 0.80306 0.50377 0.0
C402 C 0.15851 0.82099 0.46869 0.0
O403 O 0.13254 0.79876 0.47689 0.0
C404 C 0.16255 0.84369 0.53558 0.0
O405 O 0.14263 0.84743 0.51722 0.0
O406 O 0.19525 0.74179 0.50881 0.0
C407 C 0.27135 0.6632 0.76156 0.0
O408 O 0.24746 0.63516 0.75928 0.0
O409 O 0.19264 0.66483 0.72663 0.0
Zn410 Zn 0.2066 0.70098 0.75199 0.0
O411 O 0.18154 0.68411 0.78066 0.0
C412 C 0.18679 0.78035 0.75895 0.0
O413 O 0.19715 0.77412 0.77987 0.0
O414 O 0.26088 0.69748 0.75823 0.0
C415 C 0.14856 0.67178 0.78111 0.0
O416 O 0.12864 0.67257 0.7626 0.0
C417 C 0.16621 0.67311 0.71335 0.0
O418 O 0.1486 0.70578 0.71567 0.0
O419 O 0.19029 0.75416 0.74431 0.0
C420 C 0.72347 0.15013 0.49718 0.0
O421 O 0.74967 0.12409 0.49798 0.0
O422 O 0.79323 0.1627 0.54098 0.0
Zn423 Zn 0.78323 0.19254 0.51217 0.0
O424 O 0.81346 0.16988 0.48664 0.0
C425 C 0.81853 0.26086 0.52875 0.0
O426 O 0.83624 0.23591 0.54129 0.0
O427 O 0.73053 0.18424 0.50323 0.0
C428 C 0.84336 0.18319 0.47864 0.0
O429 O 0.85797 0.21433 0.48729 0.0
C430 C 0.82603 0.15168 0.54503 0.0
O431 O 0.85254 0.16084 0.53099 0.0
O432 O 0.79339 0.24941 0.51542 0.0
C433 C 0.72556 0.33595 0.75806 0.0
O434 O 0.75284 0.36051 0.75594 0.0
O435 O 0.80147 0.32028 0.72253 0.0
Zn436 Zn 0.7849 0.28894 0.74958 0.0
O437 O 0.81156 0.30651 0.77784 0.0
C438 C 0.82399 0.21804 0.74791 0.0
O439 O 0.84957 0.23896 0.75763 0.0
O440 O 0.73163 0.3005 0.75498 0.0
C441 C 0.84349 0.32155 0.77753 0.0
O442 O 0.86145 0.32465 0.75845 0.0
C443 C 0.82995 0.31196 0.71103 0.0
O444 O 0.84898 0.28103 0.71593 0.0
O445 O 0.79255 0.23263 0.74382 0.0
C446 C 0.75651 0.33456 0.98788 0.0
O447 O 0.7297 0.35993 0.98844 0.0
O448 O 0.68476 0.32381 0.02851 0.0
Zn449 Zn 0.69694 0.29122 0.00145 0.0
O450 O 0.6663 0.31006 0.97527 0.0
C451 C 0.65259 0.22647 0.01067 0.0
O452 O 0.6268 0.2523 0.00753 0.0
O453 O 0.74985 0.30001 0.99327 0.0
C454 C 0.66049 0.29212 0.957 0.0
O455 O 0.67349 0.25726 0.95436 0.0
C456 C 0.65241 0.3376 0.03034 0.0
O457 O 0.62782 0.33063 0.01458 0.0
O458 O 0.68632 0.23574 0.00853 0.0
C459 C 0.7664 0.15151 0.25482 0.0
O460 O 0.74223 0.12401 0.25146 0.0
O461 O 0.69393 0.15962 0.21426 0.0
Zn462 Zn 0.70409 0.19177 0.24215 0.0
O463 O 0.67637 0.16974 0.26882 0.0
C464 C 0.6638 0.25627 0.22455 0.0
O465 O 0.64406 0.22892 0.21538 0.0
O466 O 0.75719 0.18601 0.25092 0.0
C467 C 0.64536 0.18036 0.2766 0.0
O468 O 0.6276 0.209 0.2671 0.0
C469 C 0.66171 0.14597 0.21147 0.0
O470 O 0.63603 0.15309 0.22645 0.0
O471 O 0.6915 0.2477 0.23675 0.0
C472 C 0.13545 0.85342 0.29767 0.0
C473 C 0.11651 0.88227 0.28542 0.0
C474 C 0.15372 0.86819 0.25208 0.0
C475 C 0.17678 0.84453 0.26551 0.0
N476 N 0.19167 0.81655 0.30175 0.0
N477 N 0.10754 0.91853 0.25121 0.0
C478 C 0.16788 0.83698 0.2884 0.0
C479 C 0.12519 0.88966 0.26254 0.0
N480 N 0.1225 0.84212 0.31827 0.0
N481 N 0.15913 0.86984 0.2293 0.0
H482 H 0.08596 0.93433 0.25819 0.0
H483 H 0.11568 0.9284 0.23542 0.0
H484 H 0.17974 0.8541 0.22123 0.0
H485 H 0.14126 0.88381 0.21824 0.0
H486 H 0.13301 0.81874 0.32714 0.0
H487 H 0.09887 0.85395 0.32553 0.0
H488 H 0.18882 0.81427 0.31915 0.0
H489 H 0.21594 0.80414 0.29581 0.0
C490 C 0.11943 0.63548 0.51329 0.0
C491 C 0.11648 0.62827 0.53676 0.0
C492 C 0.15433 0.68471 0.54473 0.0
C493 C 0.15194 0.69524 0.52175 0.0
N494 N 0.13178 0.68218 0.48385 0.0
N495 N 0.12704 0.6486 0.57522 0.0
C496 C 0.13466 0.67087 0.50585 0.0
C497 C 0.13319 0.65332 0.55264 0.0
N498 N 0.10814 0.60828 0.49822 0.0
N499 N 0.17701 0.70465 0.55894 0.0
H500 H 0.11101 0.6265 0.58186 0.0
H501 H 0.1351 0.66858 0.58729 0.0
H502 H 0.19339 0.72742 0.55345 0.0
H503 H 0.18247 0.69619 0.57545 0.0
H504 H 0.11259 0.6103 0.48094 0.0
H505 H 0.09709 0.58198 0.50323 0.0
H506 H 0.11578 0.66789 0.47193 0.0
H507 H 0.14402 0.70723 0.47777 0.0
C508 C 0.37258 0.63839 0.76989 0.0
C509 C 0.37107 0.62416 0.79227 0.0
C510 C 0.30726 0.64645 0.79584 0.0
C511 C 0.30707 0.65513 0.77251 0.0
N512 N 0.33837 0.65968 0.73688 0.0
N513 N 0.33692 0.61232 0.82651 0.0
C514 C 0.33957 0.65172 0.75943 0.0
C515 C 0.33854 0.62803 0.80538 0.0
N516 N 0.40563 0.63927 0.75881 0.0
N517 N 0.27755 0.65617 0.80885 0.0
H518 H 0.3594 0.59912 0.83434 0.0
H519 H 0.31265 0.61003 0.83579 0.0
H520 H 0.2542 0.66981 0.80231 0.0
H521 H 0.2773 0.65401 0.82634 0.0
H522 H 0.40944 0.65231 0.74321 0.0
H523 H 0.43016 0.62954 0.76613 0.0
H524 H 0.35983 0.65366 0.72579 0.0
H525 H 0.31489 0.67074 0.72896 0.0
C526 C 0.33223 0.85071 0.04233 0.0
C527 C 0.35731 0.86936 0.02792 0.0
C528 C 0.33531 0.8308 0.99635 0.0
C529 C 0.31674 0.80642 0.01178 0.0
N530 N 0.29785 0.79283 0.05024 0.0
N531 N 0.38371 0.87793 0.99102 0.0
C532 C 0.31424 0.81674 0.03496 0.0
C533 C 0.35867 0.86023 0.00472 0.0
N534 N 0.32689 0.86612 0.06315 0.0
N535 N 0.33058 0.82551 0.97372 0.0
H536 H 0.40105 0.89983 0.99659 0.0
H537 H 0.38891 0.86928 0.97454 0.0
H538 H 0.31296 0.80451 0.96727 0.0
H539 H 0.34096 0.84418 0.96158 0.0
H540 H 0.30738 0.85642 0.07473 0.0
H541 H 0.30738 0.85642 0.07473 0.0
H542 H 0.3005 0.79606 0.0676 0.0
H543 H 0.28345 0.76815 0.04592 0.0
C544 C 0.11278 0.64929 0.97863 0.0
C545 C 0.10794 0.60951 0.98261 0.0
C546 C 0.15832 0.60971 0.01015 0.0
C547 C 0.16343 0.64951 0.00606 0.0
N548 N 0.14014 0.70908 0.99125 0.0
N549 N 0.11851 0.55421 0.00609 0.0
C550 C 0.13874 0.66993 0.99187 0.0
C551 C 0.12816 0.59057 0.99979 0.0
N552 N 0.09391 0.66686 0.96151 0.0
N553 N 0.18367 0.58958 0.02254 0.0
H554 H 0.09665 0.53936 0.99864 0.0
H555 H 0.12981 0.54022 0.02001 0.0
H556 H 0.2063 0.60224 0.03043 0.0
H557 H 0.18383 0.55978 0.02368 0.0
H558 H 0.09943 0.69464 0.95603 0.0
H559 H 0.07409 0.65282 0.95177 0.0
H560 H 0.12081 0.72598 0.98282 0.0
H561 H 0.15875 0.72483 0.001 0.0
C562 C 0.34312 0.63294 0.21109 0.0
C563 C 0.37232 0.61903 0.22476 0.0
C564 C 0.3534 0.66168 0.25524 0.0
C565 C 0.32974 0.68097 0.23993 0.0
N566 N 0.30151 0.6856 0.20308 0.0
N567 N 0.40521 0.61829 0.26008 0.0
C568 C 0.3236 0.66622 0.21796 0.0
C569 C 0.37696 0.63225 0.24713 0.0
N570 N 0.33475 0.61464 0.19138 0.0
N571 N 0.35333 0.67194 0.27746 0.0
H572 H 0.42225 0.59591 0.25482 0.0
H573 H 0.4129 0.62995 0.27553 0.0
H574 H 0.33595 0.69333 0.28369 0.0
H575 H 0.36771 0.65712 0.28995 0.0
H576 H 0.31176 0.62123 0.18154 0.0
H577 H 0.34901 0.59032 0.18596 0.0
H578 H 0.29981 0.67901 0.18601 0.0
H579 H 0.28631 0.70983 0.20745 0.0
C580 C 0.35516 0.84967 0.46116 0.0
C581 C 0.37212 0.88187 0.4713 0.0
C582 C 0.33196 0.87499 0.50417 0.0
C583 C 0.31066 0.84775 0.49214 0.0
N584 N 0.29999 0.81104 0.45813 0.0
N585 N 0.37676 0.9265 0.50218 0.0
C586 C 0.32205 0.83491 0.47052 0.0
C587 C 0.36099 0.89457 0.49293 0.0
N588 N 0.37061 0.83354 0.44243 0.0
N589 N 0.32442 0.88189 0.52635 0.0
H590 H 0.39861 0.94115 0.49465 0.0
H591 H 0.36679 0.93987 0.51662 0.0
H592 H 0.30346 0.86756 0.535 0.0
H593 H 0.34097 0.89886 0.53667 0.0
H594 H 0.36156 0.80778 0.43548 0.0
H595 H 0.39482 0.84403 0.43515 0.0
H596 H 0.30482 0.80467 0.44125 0.0
H597 H 0.27515 0.79983 0.464 0.0
C598 C 0.10927 0.85293 0.75255 0.0
C599 C 0.12168 0.87238 0.73301 0.0
C600 C 0.18128 0.83946 0.73554 0.0
C601 C 0.16658 0.81557 0.75265 0.0
N602 N 0.11562 0.79727 0.77664 0.0
N603 N 0.16885 0.88476 0.70537 0.0
C604 C 0.13056 0.8221 0.7613 0.0
C605 C 0.15775 0.8662 0.72451 0.0
N606 N 0.07696 0.8638 0.76257 0.0
N607 N 0.21785 0.83668 0.73008 0.0
H608 H 0.15279 0.90562 0.69739 0.0
H609 H 0.193 0.87817 0.69672 0.0
H610 H 0.23571 0.8175 0.73811 0.0
H611 H 0.23121 0.85549 0.71918 0.0
H612 H 0.06825 0.85341 0.77813 0.0
H613 H 0.0604 0.88587 0.75628 0.0
H614 H 0.08795 0.79771 0.78136 0.0
H615 H 0.1301 0.77427 0.78358 0.0
C616 C 0.64166 0.39962 0.76218 0.0
C617 C 0.62731 0.38801 0.78332 0.0
C618 C 0.67482 0.33847 0.78675 0.0
C619 C 0.68907 0.34986 0.76549 0.0
N620 N 0.68101 0.38394 0.73048 0.0
N621 N 0.62349 0.34082 0.81291 0.0
C622 C 0.67077 0.37811 0.75238 0.0
C623 C 0.64163 0.3554 0.79461 0.0
N624 N 0.62877 0.43223 0.75204 0.0
N625 N 0.69421 0.31362 0.80015 0.0
H626 H 0.59913 0.3528 0.81912 0.0
H627 H 0.63056 0.31495 0.82058 0.0
H628 H 0.71893 0.3008 0.79528 0.0
H629 H 0.68737 0.30798 0.81687 0.0
H630 H 0.64115 0.44469 0.73801 0.0
H631 H 0.607 0.44838 0.75852 0.0
H632 H 0.66653 0.40158 0.71938 0.0
H633 H 0.70202 0.36822 0.72279 0.0
C634 C 0.62136 0.14718 0.04935 0.0
C635 C 0.6065 0.12086 0.03351 0.0
C636 C 0.62675 0.16162 0.00228 0.0
C637 C 0.64182 0.18773 0.01811 0.0
N638 N 0.66107 0.20202 0.05607 0.0
N639 N 0.60182 0.0981 0.99532 0.0
C640 C 0.6418 0.17923 0.04146 0.0
C641 C 0.61141 0.12653 0.01005 0.0
N642 N 0.6141 0.14277 0.07183 0.0
N643 N 0.62612 0.17099 0.9799 0.0
H644 H 0.59051 0.07207 0.00059 0.0
H645 H 0.60783 0.09886 0.97818 0.0
H646 H 0.63876 0.1956 0.97355 0.0
H647 H 0.6116 0.15552 0.96779 0.0
H648 H 0.62041 0.16334 0.08394 0.0
H649 H 0.59925 0.11969 0.07837 0.0
H650 H 0.6652 0.19527 0.07299 0.0
H651 H 0.67575 0.22616 0.05086 0.0
C652 C 0.83042 0.1209 0.30219 0.0
C653 C 0.86334 0.11445 0.28987 0.0
C654 C 0.83479 0.14114 0.25577 0.0
C655 C 0.80064 0.14284 0.26734 0.0
N656 N 0.76486 0.13533 0.30131 0.0
N657 N 0.898 0.11764 0.25532 0.0
C658 C 0.79823 0.13334 0.29057 0.0
C659 C 0.86601 0.12479 0.2668 0.0
N660 N 0.83014 0.11531 0.32503 0.0
N661 N 0.8372 0.15515 0.23428 0.0
H662 H 0.9218 0.10718 0.26316 0.0
H663 H 0.90069 0.12032 0.23794 0.0
H664 H 0.81455 0.1665 0.22565 0.0
H665 H 0.86189 0.15812 0.22552 0.0
H666 H 0.80834 0.12312 0.33545 0.0
H667 H 0.85297 0.10524 0.33402 0.0
H668 H 0.75993 0.12424 0.3173 0.0
H669 H 0.74123 0.14686 0.29382 0.0
C670 C 0.87053 0.35206 0.51806 0.0
C671 C 0.87003 0.36771 0.54008 0.0
C672 C 0.82536 0.31945 0.55229 0.0
C673 C 0.82824 0.30187 0.53084 0.0
N674 N 0.84348 0.30739 0.49141 0.0
N675 N 0.84034 0.37394 0.57612 0.0
C676 C 0.84724 0.3204 0.513 0.0
C677 C 0.84492 0.35399 0.55649 0.0
N678 N 0.89491 0.36597 0.50251 0.0
N679 N 0.80492 0.30216 0.56878 0.0
H680 H 0.85442 0.39943 0.57946 0.0
H681 H 0.82073 0.3672 0.58828 0.0
H682 H 0.78825 0.27834 0.56562 0.0
H683 H 0.80509 0.31056 0.5856 0.0
H684 H 0.90011 0.35286 0.48709 0.0
H685 H 0.91151 0.38988 0.5055 0.0
H686 H 0.85423 0.3215 0.47742 0.0
H687 H 0.82649 0.28443 0.48716 0.0
C688 C 0.62303 0.12258 0.48806 0.0
C689 C 0.62453 0.11161 0.46509 0.0
C690 C 0.68809 0.13498 0.46239 0.0
C691 C 0.68823 0.14086 0.48601 0.0
N692 N 0.65718 0.13962 0.52187 0.0
N693 N 0.65847 0.10487 0.43034 0.0
C694 C 0.6559 0.13497 0.499 0.0
C695 C 0.65695 0.11751 0.45214 0.0
N696 N 0.59008 0.12134 0.49925 0.0
N697 N 0.71755 0.1468 0.44976 0.0
H698 H 0.63594 0.09281 0.42197 0.0
H699 H 0.68268 0.10401 0.42092 0.0
H700 H 0.74083 0.15982 0.45678 0.0
H701 H 0.71766 0.14693 0.43222 0.0
H702 H 0.5862 0.13225 0.51539 0.0
H703 H 0.56565 0.11206 0.49165 0.0
H704 H 0.6359 0.13163 0.53266 0.0
H705 H 0.68059 0.1496 0.53029 0.0
C706 C 0.85687 0.13938 0.70926 0.0
C707 C 0.8688 0.11176 0.72528 0.0
C708 C 0.84531 0.15128 0.75614 0.0
C709 C 0.83355 0.17904 0.74012 0.0
N710 N 0.8196 0.19537 0.70135 0.0
N711 N 0.86787 0.08667 0.76306 0.0
C712 C 0.83627 0.17159 0.71664 0.0
C713 C 0.86087 0.11622 0.74849 0.0
N714 N 0.86715 0.13603 0.68716 0.0
N715 N 0.84216 0.15889 0.77865 0.0
H716 H 0.87936 0.06071 0.75785 0.0
H717 H 0.85972 0.08652 0.77987 0.0
H718 H 0.82838 0.18296 0.78481 0.0
H719 H 0.8543 0.14225 0.79122 0.0
H720 H 0.86349 0.15766 0.67524 0.0
H721 H 0.88201 0.11277 0.68089 0.0
H722 H 0.81724 0.18896 0.68428 0.0
H723 H 0.80508 0.21994 0.70578 0.0
C724 C 0.82715 0.37568 0.94782 0.0
C725 C 0.85871 0.37737 0.962 0.0
C726 C 0.82417 0.34766 0.99288 0.0
C727 C 0.79273 0.34571 0.97862 0.0
N728 N 0.76603 0.34942 0.94144 0.0
N729 N 0.89023 0.35881 0.99608 0.0
C730 C 0.79479 0.35716 0.95572 0.0
C731 C 0.85817 0.36126 0.98394 0.0
N732 N 0.82772 0.39303 0.92712 0.0
N733 N 0.82103 0.33833 0.01519 0.0
H734 H 0.91542 0.36908 0.99005 0.0
H735 H 0.89259 0.34402 0.01126 0.0
H736 H 0.79669 0.32777 0.02223 0.0
H737 H 0.84168 0.34325 0.02706 0.0
H738 H 0.80432 0.39695 0.91715 0.0
H739 H 0.85128 0.4058 0.92035 0.0
H740 H 0.76718 0.35338 0.92407 0.0
H741 H 0.74193 0.33575 0.94672 0.0
C742 C 0.62966 0.35899 0.23087 0.0
C743 C 0.62149 0.3672 0.20799 0.0
C744 C 0.65191 0.30779 0.19648 0.0
C745 C 0.65433 0.29658 0.2194 0.0
N746 N 0.64363 0.31022 0.25875 0.0
N747 N 0.62133 0.34789 0.16888 0.0
C748 C 0.64325 0.32203 0.23677 0.0
C749 C 0.632 0.3414 0.19069 0.0
N750 N 0.62464 0.38665 0.24686 0.0
N751 N 0.66925 0.28656 0.18029 0.0
H752 H 0.60653 0.37208 0.16381 0.0
H753 H 0.62453 0.32779 0.15607 0.0
H754 H 0.68489 0.26225 0.18411 0.0
H755 H 0.67141 0.29522 0.16354 0.0
H756 H 0.63345 0.38377 0.2635 0.0
H757 H 0.6146 0.41394 0.243 0.0
H758 H 0.63166 0.32576 0.2718 0.0
H759 H 0.65374 0.28361 0.26385 0.0
C760 C 0.13318 0.85037 0.40863 0.0
C761 C 0.13119 0.89067 0.41138 0.0
C762 C 0.1587 0.88471 0.44869 0.0
C763 C 0.15154 0.84459 0.44831 0.0
N764 N 0.13689 0.788 0.42647 0.0
N765 N 0.17293 0.93891 0.42506 0.0
C766 C 0.14041 0.82691 0.42779 0.0
C767 C 0.15311 0.90632 0.4288 0.0
N768 N 0.134 0.83539 0.38741 0.0
N769 N 0.16908 0.90284 0.46807 0.0
H770 H 0.17367 0.95172 0.40913 0.0
H771 H 0.19205 0.94965 0.4366 0.0
H772 H 0.17223 0.88886 0.48347 0.0
H773 H 0.17126 0.93262 0.46911 0.0
H774 H 0.13887 0.80653 0.38404 0.0
H775 H 0.13461 0.85311 0.3732 0.0
H776 H 0.12464 0.77429 0.41277 0.0
H777 H 0.14492 0.76952 0.43942 0.0
C778 C 0.14528 0.62853 0.65619 0.0
C779 C 0.11954 0.5999 0.6627 0.0
C780 C 0.13242 0.6134 0.70246 0.0
C781 C 0.15378 0.6456 0.69596 0.0
N782 N 0.17922 0.68575 0.66675 0.0
N783 N 0.08344 0.56979 0.69204 0.0
C784 C 0.15985 0.65374 0.67282 0.0
C785 C 0.11186 0.59338 0.68586 0.0
N786 N 0.15656 0.63082 0.63426 0.0
N787 N 0.1317 0.60184 0.72447 0.0
H788 H 0.06667 0.55553 0.68047 0.0
H789 H 0.07406 0.56736 0.70856 0.0
H790 H 0.14656 0.61556 0.73714 0.0
H791 H 0.1195 0.57631 0.72974 0.0
H792 H 0.17779 0.64868 0.62881 0.0
H793 H 0.14692 0.61232 0.62177 0.0
H794 H 0.18081 0.69577 0.65024 0.0
H795 H 0.19214 0.70359 0.67847 0.0
C796 C 0.37943 0.64898 0.91974 0.0
C797 C 0.38763 0.6093 0.92132 0.0
C798 C 0.35388 0.60506 0.95691 0.0
C799 C 0.34993 0.64549 0.95682 0.0
N800 N 0.35978 0.70681 0.93905 0.0
N801 N 0.38565 0.5496 0.94191 0.0
C802 C 0.3626 0.66774 0.93836 0.0
C803 C 0.37551 0.58727 0.94 0.0
N804 N 0.38741 0.66846 0.90033 0.0
N805 N 0.33586 0.5836 0.97276 0.0
H806 H 0.40047 0.53508 0.92952 0.0
H807 H 0.38158 0.53337 0.95644 0.0
H808 H 0.31899 0.59571 0.98507 0.0
H809 H 0.3346 0.55379 0.97243 0.0
H810 H 0.37892 0.69647 0.89716 0.0
H811 H 0.40022 0.65556 0.88655 0.0
H812 H 0.37221 0.72503 0.92741 0.0
H813 H 0.34667 0.72134 0.95212 0.0
C814 C 0.36585 0.84774 0.16481 0.0
C815 C 0.36446 0.88749 0.15989 0.0
C816 C 0.31701 0.89557 0.18882 0.0
C817 C 0.32383 0.85774 0.19661 0.0
N818 N 0.36036 0.79955 0.19378 0.0
N819 N 0.34241 0.95077 0.16975 0.0
C820 C 0.34943 0.83397 0.18496 0.0
C821 C 0.34082 0.91188 0.17245 0.0
N822 N 0.38274 0.82313 0.1502 0.0
N823 N 0.28733 0.91568 0.19669 0.0
H824 H 0.36028 0.96425 0.1585 0.0
H825 H 0.32848 0.96982 0.18024 0.0
H826 H 0.26834 0.90401 0.20799 0.0
H827 H 0.27929 0.94209 0.19005 0.0
H828 H 0.38148 0.79341 0.15193 0.0
H829 H 0.3946 0.83229 0.13511 0.0
H830 H 0.38173 0.78329 0.18695 0.0
H831 H 0.35117 0.78895 0.20917 0.0
C832 C 0.1394 0.61184 0.83471 0.0
C833 C 0.10117 0.61591 0.83909 0.0
C834 C 0.09691 0.66382 0.80896 0.0
C835 C 0.13327 0.65435 0.80198 0.0
N836 N 0.18659 0.61276 0.80614 0.0
N837 N 0.04187 0.64185 0.82799 0.0
C838 C 0.15411 0.62687 0.81441 0.0
C839 C 0.07941 0.64105 0.82568 0.0
N840 N 0.16165 0.59355 0.84993 0.0
N841 N 0.07938 0.69512 0.80009 0.0
H842 H 0.02765 0.62506 0.83963 0.0
H843 H 0.02457 0.65661 0.81691 0.0
H844 H 0.0918 0.71338 0.78843 0.0
H845 H 0.05422 0.70528 0.80616 0.0
H846 H 0.19034 0.59292 0.84853 0.0
H847 H 0.15173 0.5826 0.86514 0.0
H848 H 0.20086 0.59014 0.81366 0.0
H849 H 0.19716 0.62029 0.79046 0.0
C850 C 0.36694 0.59672 0.076 0.0
C851 C 0.37717 0.6172 0.09565 0.0
C852 C 0.34023 0.67214 0.08319 0.0
C853 C 0.3349 0.65407 0.062 0.0
N854 N 0.34499 0.59959 0.03755 0.0
N855 N 0.375 0.67453 0.11818 0.0
C856 C 0.34816 0.61619 0.05831 0.0
C857 C 0.36398 0.6549 0.09941 0.0
N858 N 0.37518 0.55855 0.07428 0.0
N859 N 0.32164 0.70528 0.08797 0.0
H860 H 0.39117 0.66219 0.13084 0.0
H861 H 0.36999 0.70363 0.12062 0.0
H862 H 0.30307 0.71784 0.07669 0.0
H863 H 0.32167 0.7182 0.10377 0.0
H864 H 0.36482 0.54093 0.0616 0.0
H865 H 0.38989 0.54356 0.08659 0.0
H866 H 0.35866 0.57452 0.03297 0.0
H867 H 0.33055 0.61191 0.02423 0.0
C868 C 0.4077 0.85203 0.31968 0.0
C869 C 0.38705 0.87842 0.33279 0.0
C870 C 0.33269 0.86717 0.30913 0.0
C871 C 0.35263 0.83883 0.29696 0.0
N872 N 0.40551 0.79675 0.29515 0.0
N873 N 0.3276 0.90308 0.34387 0.0
C874 C 0.38905 0.82888 0.30365 0.0
C875 C 0.34872 0.88328 0.3288 0.0
N876 N 0.44529 0.85035 0.32163 0.0
N877 N 0.29968 0.88075 0.30122 0.0
H878 H 0.33845 0.91484 0.35863 0.0
H879 H 0.29888 0.90436 0.34289 0.0
H880 H 0.28758 0.87151 0.28627 0.0
H881 H 0.28612 0.90415 0.30831 0.0
H882 H 0.46184 0.83454 0.3107 0.0
H883 H 0.46032 0.86739 0.33277 0.0
H884 H 0.43072 0.7863 0.30104 0.0
H885 H 0.39212 0.7782 0.28403 0.0
C886 C 0.11977 0.91557 0.57539 0.0
C887 C 0.1117 0.8919 0.5942 0.0
C888 C 0.14059 0.83695 0.57567 0.0
C889 C 0.14909 0.86072 0.55689 0.0
N890 N 0.15551 0.92415 0.54123 0.0
N891 N 0.12163 0.8333 0.61482 0.0
C892 C 0.14138 0.90057 0.5575 0.0
C893 C 0.12462 0.85362 0.59519 0.0
N894 N 0.10556 0.95185 0.57421 0.0
N895 N 0.14553 0.79816 0.5744 0.0
H896 H 0.10963 0.84467 0.62933 0.0
H897 H 0.13391 0.80664 0.61738 0.0
H898 H 0.15712 0.78467 0.5605 0.0
H899 H 0.13565 0.77894 0.5864 0.0
H900 H 0.10667 0.9688 0.55976 0.0
H901 H 0.09045 0.96426 0.58725 0.0
H902 H 0.15389 0.95394 0.54188 0.0
H903 H 0.1721 0.91411 0.52814 0.0
C904 C 0.63719 0.34981 0.90463 0.0
C905 C 0.60012 0.3601 0.90941 0.0
C906 C 0.60093 0.32064 0.94358 0.0
C907 C 0.63831 0.31091 0.93911 0.0
N908 N 0.68977 0.30916 0.91335 0.0
N909 N 0.54402 0.34999 0.93032 0.0
C910 C 0.65565 0.32306 0.91888 0.0
C911 C 0.58114 0.34377 0.92795 0.0
N912 N 0.65514 0.36691 0.88701 0.0
N913 N 0.58462 0.30816 0.96302 0.0
H914 H 0.52881 0.36724 0.91932 0.0
H915 H 0.52758 0.33598 0.9421 0.0
H916 H 0.59706 0.28829 0.97375 0.0
H917 H 0.55941 0.31824 0.96896 0.0
H918 H 0.68337 0.36442 0.88413 0.0
H919 H 0.6421 0.38567 0.87582 0.0
H920 H 0.70238 0.31379 0.89784 0.0
H921 H 0.70462 0.29043 0.92362 0.0
C922 C 0.63923 0.11218 0.15196 0.0
C923 C 0.61759 0.07951 0.15739 0.0
C924 C 0.63719 0.08461 0.1967 0.0
C925 C 0.65255 0.12105 0.19211 0.0
N926 N 0.66649 0.17135 0.16542 0.0
N927 N 0.59133 0.03798 0.18592 0.0
C928 C 0.65364 0.13524 0.16968 0.0
C929 C 0.61556 0.06631 0.18001 0.0
N930 N 0.64627 0.12085 0.12992 0.0
N931 N 0.64376 0.06727 0.21697 0.0
H932 H 0.57356 0.02471 0.17451 0.0
H933 H 0.58623 0.03032 0.20261 0.0
H934 H 0.66114 0.07935 0.22908 0.0
H935 H 0.63572 0.03923 0.22058 0.0
H936 H 0.66453 0.14231 0.12495 0.0
H937 H 0.63652 0.10411 0.11662 0.0
H938 H 0.66382 0.18481 0.14982 0.0
H939 H 0.67764 0.18896 0.17786 0.0
C940 C 0.88803 0.16462 0.42154 0.0
C941 C 0.89735 0.12531 0.42375 0.0
C942 C 0.87332 0.12453 0.46226 0.0
C943 C 0.86179 0.16325 0.45966 0.0
N944 N 0.85194 0.21812 0.43555 0.0
N945 N 0.89373 0.06583 0.44444 0.0
C946 C 0.86751 0.18283 0.43895 0.0
C947 C 0.88828 0.10464 0.44356 0.0
N948 N 0.89931 0.18464 0.40297 0.0
N949 N 0.87189 0.10735 0.48294 0.0
H950 H 0.90598 0.0503 0.43144 0.0
H951 H 0.88351 0.04848 0.45729 0.0
H952 H 0.86166 0.12107 0.49712 0.0
H953 H 0.88387 0.08089 0.48656 0.0
H954 H 0.89721 0.21432 0.4015 0.0
H955 H 0.91308 0.17181 0.38951 0.0
H956 H 0.8518 0.23214 0.42005 0.0
H957 H 0.83623 0.23212 0.44774 0.0
C958 C 0.87071 0.34187 0.65507 0.0
C959 C 0.88132 0.3801 0.65988 0.0
C960 C 0.85316 0.376 0.69727 0.0
C961 C 0.84293 0.33741 0.69265 0.0
N962 N 0.83289 0.28723 0.66547 0.0
N963 N 0.87539 0.43678 0.68273 0.0
C964 C 0.84895 0.32145 0.67097 0.0
C965 C 0.87004 0.39822 0.68007 0.0
N966 N 0.88233 0.32484 0.63559 0.0
N967 N 0.84891 0.39079 0.71842 0.0
H968 H 0.88854 0.45379 0.6707 0.0
H969 H 0.8641 0.45258 0.6959 0.0
H970 H 0.83556 0.37636 0.73137 0.0
H971 H 0.86055 0.4166 0.72362 0.0
H972 H 0.87928 0.29572 0.63224 0.0
H973 H 0.89695 0.33953 0.62314 0.0
H974 H 0.83339 0.2755 0.64936 0.0
H975 H 0.81582 0.27227 0.67656 0.0
C976 C 0.59961 0.1616 0.33335 0.0
C977 C 0.59509 0.12125 0.33248 0.0
C978 C 0.62295 0.11954 0.29495 0.0
C979 C 0.62903 0.15979 0.29612 0.0
N980 N 0.63042 0.21776 0.31825 0.0
N981 N 0.60779 0.06065 0.31453 0.0
C982 C 0.61933 0.1805 0.31584 0.0
C983 C 0.60862 0.09988 0.31396 0.0
N984 N 0.58455 0.18187 0.35076 0.0
N985 N 0.6288 0.10032 0.27523 0.0
H986 H 0.59579 0.04502 0.32759 0.0
H987 H 0.62149 0.04342 0.30293 0.0
H988 H 0.63939 0.11331 0.2609 0.0
H989 H 0.62036 0.0722 0.27239 0.0
H990 H 0.58293 0.21167 0.35104 0.0
H991 H 0.57153 0.16875 0.36442 0.0
H992 H 0.62753 0.23323 0.33313 0.0
H993 H 0.6457 0.23229 0.30605 0.0
C994 C 0.84333 0.11459 0.60464 0.0
C995 C 0.86579 0.08237 0.59949 0.0
C996 C 0.85122 0.09025 0.55952 0.0
C997 C 0.83457 0.12603 0.56422 0.0
N998 N 0.81668 0.17426 0.5912 0.0
N999 N 0.89662 0.04378 0.5713 0.0
C1000 C 0.83071 0.13868 0.58681 0.0
C1001 C 0.87107 0.07111 0.57673 0.0
N1002 N 0.8337 0.12178 0.62648 0.0
N1003 N 0.8474 0.07419 0.53867 0.0
H1004 H 0.9133 0.03009 0.58318 0.0
H1005 H 0.90399 0.03757 0.55474 0.0
H1006 H 0.83123 0.08671 0.52607 0.0
H1007 H 0.85643 0.04658 0.53485 0.0
H1008 H 0.81472 0.14279 0.63109 0.0
H1009 H 0.84211 0.10434 0.63985 0.0
H1010 H 0.8172 0.18674 0.60713 0.0
H1011 H 0.80676 0.19248 0.57862 0.0
C1012 C 0.88135 0.39925 0.81542 0.0
C1013 C 0.8936 0.37739 0.83418 0.0
C1014 C 0.87155 0.31833 0.81627 0.0
C1015 C 0.85825 0.34048 0.79789 0.0
N1016 N 0.84169 0.40221 0.78257 0.0
N1017 N 0.89487 0.31776 0.8547 0.0
C1018 C 0.86055 0.38104 0.79824 0.0
C1019 C 0.88695 0.33735 0.8353 0.0
N1020 N 0.89069 0.43713 0.81362 0.0
N1021 N 0.87071 0.27919 0.81513 0.0
H1022 H 0.90649 0.33089 0.86883 0.0
H1023 H 0.88735 0.28934 0.85748 0.0
H1024 H 0.85885 0.26441 0.80168 0.0
H1025 H 0.88371 0.26133 0.82677 0.0
H1026 H 0.88635 0.4533 0.79908 0.0
H1027 H 0.90543 0.45183 0.82601 0.0
H1028 H 0.83929 0.43194 0.78324 0.0
H1029 H 0.82514 0.38977 0.77018 0.0
C1030 C 0.63756 0.37615 0.08981 0.0
C1031 C 0.61465 0.40814 0.08495 0.0
C1032 C 0.625 0.39849 0.04465 0.0
C1033 C 0.64252 0.36301 0.04937 0.0
N1034 N 0.66078 0.31507 0.07674 0.0
N1035 N 0.58076 0.44542 0.05736 0.0
C1036 C 0.64789 0.35106 0.07205 0.0
C1037 C 0.60687 0.41831 0.06225 0.0
N1038 N 0.64985 0.37007 0.11132 0.0
N1039 N 0.62649 0.41386 0.02347 0.0
H1040 H 0.56558 0.45976 0.06964 0.0
H1041 H 0.57149 0.45084 0.04102 0.0
H1042 H 0.64092 0.40098 0.01029 0.0
H1043 H 0.61706 0.44138 0.01969 0.0
H1044 H 0.66936 0.34924 0.11547 0.0
H1045 H 0.64328 0.38832 0.12464 0.0
H1046 H 0.66138 0.30361 0.09297 0.0
H1047 H 0.66764 0.29526 0.06432 0.0
loop_
_geom_bond_atom_site_label_1
_geom_bond_atom_site_label_2
_geom_bond_distance
_geom_bond_site_symmetry_2
_ccdc_geom_bond_type
C0 C1 1.384 . S
C0 C2 1.384 . S
C0 H28 0.931 . S
C1 C0 1.384 . S
C1 C4 1.382 . S
C2 C0 1.384 . S
C2 C3 1.381 . S
C2 H29 0.930 . S
C3 C2 1.381 . S
C3 C5 1.381 . S
C3 C6 1.487 . S
C4 C1 1.382 . S
C4 C5 1.387 . S
C4 H30 0.930 . S
C5 C3 1.381 . S
C5 C4 1.387 . S
C5 H31 0.931 1_565 S
C6 C3 1.487 . S
C6 C13 1.399 . S
C6 N44 1.343 1_565 S
C7 C8 1.384 . S
C7 C9 1.384 . S
C7 H32 0.931 . S
C8 C7 1.384 . S
C8 C11 1.382 . S
C9 C7 1.384 . S
C9 C10 1.381 . S
C9 H33 0.930 . S
C10 C9 1.381 . S
C10 C12 1.381 . S
C10 C13 1.487 . S
C11 C8 1.382 . S
C11 C12 1.387 . S
C11 H34 0.930 . S
C12 C10 1.381 . S
C12 C11 1.387 . S
C12 H35 0.931 . S
C13 C6 1.399 . S
C13 C10 1.487 . S
C13 N45 1.343 1_455 S
C14 C15 1.384 . S
C14 C16 1.384 . S
C14 H36 0.931 . S
C15 C14 1.384 . S
C15 C18 1.382 . S
C16 C14 1.384 . S
C16 C17 1.381 . S
C16 H37 0.930 . S
C17 C16 1.381 . S
C17 C19 1.381 . S
C17 C20 1.487 . S
C18 C15 1.382 . S
C18 C19 1.387 . S
C18 H38 0.930 . S
C19 C17 1.381 . S
C19 C18 1.387 . S
C19 H39 0.931 1_545 S
C20 C17 1.487 . S
C20 C27 1.399 . S
C20 N45 1.343 1_545 S
C21 C22 1.384 . S
C21 C23 1.384 . S
C21 H40 0.931 . S
C22 C21 1.384 . S
C22 C25 1.382 . S
C23 C21 1.384 . S
C23 C24 1.381 . S
C23 H41 0.930 . S
C24 C23 1.381 . S
C24 C26 1.381 . S
C24 C27 1.487 . S
C25 C22 1.382 . S
C25 C26 1.387 . S
C25 H42 0.930 . S
C26 C24 1.381 . S
C26 C25 1.387 . S
C26 H43 0.931 . S
C27 C20 1.399 . S
C27 C24 1.487 . S
C27 N44 1.343 1_655 S
H28 C0 0.931 . S
H29 C2 0.930 . S
H30 C4 0.930 . S
H31 C5 0.931 1_545 S
H32 C7 0.931 . S
H33 C9 0.930 . S
H34 C11 0.930 . S
H35 C12 0.931 . S
H36 C14 0.931 . S
H37 C16 0.930 . S
H38 C18 0.930 . S
H39 C19 0.931 1_565 S
H40 C21 0.931 . S
H41 C23 0.930 . S
H42 C25 0.930 . S
H43 C26 0.931 . S
N44 C6 1.343 1_545 S
N44 C27 1.343 1_455 S
N45 C13 1.343 1_655 S
N45 C20 1.343 1_565 S
C46 C47 1.384 . S
C46 C48 1.384 . S
C46 H74 0.931 . S
C47 C46 1.384 . S
C47 C50 1.382 . S
C48 C46 1.384 . S
C48 C49 1.381 . S
C48 H75 0.930 . S
C49 C48 1.381 . S
C49 C51 1.381 . S
C49 C52 1.487 . S
C50 C47 1.382 . S
C50 C51 1.387 . S
C50 H76 0.930 . S
C51 C49 1.381 . S
C51 C50 1.387 . S
C51 H77 0.931 1_655 S
C52 C49 1.487 . S
C52 C59 1.399 . S
C52 N90 1.343 1_655 S
C53 C54 1.384 . S
C53 C55 1.384 . S
C53 H78 0.931 . S
C54 C53 1.384 . S
C54 C57 1.382 . S
C55 C53 1.384 . S
C55 C56 1.381 . S
C55 H79 0.930 . S
C56 C55 1.381 . S
C56 C58 1.381 . S
C56 C59 1.487 . S
C57 C54 1.382 . S
C57 C58 1.387 . S
C57 H80 0.930 . S
C58 C56 1.381 . S
C58 C57 1.387 . S
C58 H81 0.931 . S
C59 C52 1.399 . S
C59 C56 1.487 . S
C59 N91 1.343 . S
C60 C61 1.384 . S
C60 C62 1.384 . S
C60 H82 0.931 . S
C61 C60 1.384 . S
C61 C64 1.382 . S
C62 C60 1.384 . S
C62 C63 1.381 . S
C62 H83 0.930 . S
C63 C62 1.381 . S
C63 C65 1.381 . S
C63 C66 1.487 . S
C64 C61 1.382 . S
C64 C65 1.387 . S
C64 H84 0.930 . S
C65 C63 1.381 . S
C65 C64 1.387 . S
C65 H85 0.931 1_455 S
C66 C63 1.487 . S
C66 C73 1.399 . S
C66 N91 1.343 1_455 S
C67 C68 1.384 . S
C67 C69 1.384 . S
C67 H86 0.931 . S
C68 C67 1.384 . S
C68 C71 1.382 . S
C69 C67 1.384 . S
C69 C70 1.381 . S
C69 H87 0.930 . S
C70 C69 1.381 . S
C70 C72 1.381 . S
C70 C73 1.487 . S
C71 C68 1.382 . S
C71 C72 1.387 . S
C71 H88 0.930 . S
C72 C70 1.381 . S
C72 C71 1.387 . S
C72 H89 0.931 . S
C73 C66 1.399 . S
C73 C70 1.487 . S
C73 N90 1.343 . S
H74 C46 0.931 . S
H75 C48 0.930 . S
H76 C50 0.930 . S
H77 C51 0.931 1_455 S
H78 C53 0.931 . S
H79 C55 0.930 . S
H80 C57 0.930 . S
H81 C58 0.931 . S
H82 C60 0.931 . S
H83 C62 0.930 . S
H84 C64 0.930 . S
H85 C65 0.931 1_655 S
H86 C67 0.931 . S
H87 C69 0.930 . S
H88 C71 0.930 . S
H89 C72 0.931 . S
N90 C52 1.343 1_455 S
N90 C73 1.343 . S
N91 C59 1.343 . S
N91 C66 1.343 1_655 S
C92 C93 1.384 . S
C92 C94 1.384 . S
C92 H120 0.931 . S
C93 C92 1.384 . S
C93 C96 1.382 . S
C94 C92 1.384 . S
C94 C95 1.381 . S
C94 H121 0.930 . S
C95 C94 1.381 . S
C95 C97 1.381 . S
C95 C98 1.487 . S
C96 C93 1.382 . S
C96 C97 1.387 . S
C96 H122 0.930 . S
C97 C95 1.381 . S
C97 C96 1.387 . S
C97 H123 0.931 . S
C98 C95 1.487 . S
C98 C105 1.399 . S
C98 N136 1.343 . S
C99 C100 1.384 . S
C99 C101 1.384 . S
C99 H124 0.931 . S
C100 C99 1.384 . S
C100 C103 1.382 . S
C101 C99 1.384 . S
C101 C102 1.381 . S
C101 H125 0.930 . S
C102 C101 1.381 . S
C102 C104 1.381 . S
C102 C105 1.487 . S
C103 C100 1.382 . S
C103 C104 1.387 . S
C103 H126 0.930 . S
C104 C102 1.381 . S
C104 C103 1.387 . S
C104 H127 0.931 . S
C105 C98 1.399 . S
C105 C102 1.487 . S
C105 N137 1.343 . S
C106 C107 1.384 . S
C106 C108 1.384 . S
C106 H128 0.931 . S
C107 C106 1.384 . S
C107 C110 1.382 . S
C108 C106 1.384 . S
C108 C109 1.381 . S
C108 H129 0.930 . S
C109 C108 1.381 . S
C109 C111 1.381 . S
C109 C112 1.487 . S
C110 C107 1.382 . S
C110 C111 1.387 . S
C110 H130 0.930 . S
C111 C109 1.381 . S
C111 C110 1.387 . S
C111 H131 0.931 . S
C112 C109 1.487 . S
C112 C119 1.399 . S
C112 N137 1.343 . S
C113 C114 1.384 . S
C113 C115 1.384 . S
C113 H132 0.931 . S
C114 C113 1.384 . S
C114 C117 1.382 . S
C115 C113 1.384 . S
C115 C116 1.381 . S
C115 H133 0.930 . S
C116 C115 1.381 . S
C116 C118 1.381 . S
C116 C119 1.487 . S
C117 C114 1.382 . S
C117 C118 1.387 . S
C117 H134 0.930 . S
C118 C116 1.381 . S
C118 C117 1.387 . S
C118 H135 0.931 . S
C119 C112 1.399 . S
C119 C116 1.487 . S
C119 N136 1.343 . S
H120 C92 0.931 . S
H121 C94 0.930 . S
H122 C96 0.930 . S
H123 C97 0.931 . S
H124 C99 0.931 . S
H125 C101 0.930 . S
H126 C103 0.930 . S
H127 C104 0.931 . S
H128 C106 0.931 . S
H129 C108 0.930 . S
H130 C110 0.930 . S
H131 C111 0.931 . S
H132 C113 0.931 . S
H133 C115 0.930 . S
H134 C117 0.930 . S
H135 C118 0.931 . S
N136 C98 1.343 . S
N136 C119 1.343 . S
N137 C105 1.343 . S
N137 C112 1.343 . S
C138 C139 1.384 . S
C138 C140 1.384 . S
C138 H166 0.931 . S
C139 C138 1.384 . S
C139 C142 1.382 . S
C140 C138 1.384 . S
C140 C141 1.381 . S
C140 H167 0.930 . S
C141 C140 1.381 . S
C141 C143 1.381 . S
C141 C144 1.487 . S
C142 C139 1.382 . S
C142 C143 1.387 . S
C142 H168 0.930 . S
C143 C141 1.381 . S
C143 C142 1.387 . S
C143 H169 0.931 . S
C144 C141 1.487 . S
C144 C151 1.399 . S
C144 N182 1.343 1_565 S
C145 C146 1.384 . S
C145 C147 1.384 . S
C145 H170 0.931 . S
C146 C145 1.384 . S
C146 C149 1.382 . S
C147 C145 1.384 . S
C147 C148 1.381 . S
C147 H171 0.930 . S
C148 C147 1.381 . S
C148 C150 1.381 . S
C148 C151 1.487 . S
C149 C146 1.382 . S
C149 C150 1.387 . S
C149 H172 0.930 . S
C150 C148 1.381 . S
C150 C149 1.387 . S
C150 H173 0.931 . S
C151 C144 1.399 . S
C151 C148 1.487 . S
C151 N183 1.343 . S
C152 C153 1.384 . S
C152 C154 1.384 . S
C152 H174 0.931 . S
C153 C152 1.384 . S
C153 C156 1.382 . S
C154 C152 1.384 . S
C154 C155 1.381 . S
C154 H175 0.930 . S
C155 C154 1.381 . S
C155 C157 1.381 . S
C155 C158 1.487 . S
C156 C153 1.382 . S
C156 C157 1.387 . S
C156 H176 0.930 . S
C157 C155 1.381 . S
C157 C156 1.387 . S
C157 H177 0.931 . S
C158 C155 1.487 . S
C158 C165 1.399 . S
C158 N183 1.343 1_545 S
C159 C160 1.384 . S
C159 C161 1.384 . S
C159 H178 0.931 . S
C160 C159 1.384 . S
C160 C163 1.382 . S
C161 C159 1.384 . S
C161 C162 1.381 . S
C161 H179 0.930 . S
C162 C161 1.381 . S
C162 C164 1.381 . S
C162 C165 1.487 . S
C163 C160 1.382 . S
C163 C164 1.387 . S
C163 H180 0.930 . S
C164 C162 1.381 . S
C164 C163 1.387 . S
C164 H181 0.931 . S
C165 C158 1.399 . S
C165 C162 1.487 . S
C165 N182 1.343 . S
H166 C138 0.931 . S
H167 C140 0.930 . S
H168 C142 0.930 . S
H169 C143 0.931 . S
H170 C145 0.931 . S
H171 C147 0.930 . S
H172 C149 0.930 . S
H173 C150 0.931 . S
H174 C152 0.931 . S
H175 C154 0.930 . S
H176 C156 0.930 . S
H177 C157 0.931 . S
H178 C159 0.931 . S
H179 C161 0.930 . S
H180 C163 0.930 . S
H181 C164 0.931 . S
N182 C144 1.343 1_545 S
N182 C165 1.343 . S
N183 C151 1.343 . S
N183 C158 1.343 1_565 S
C184 C185 1.384 . S
C184 C186 1.384 . S
C184 H212 0.931 . S
C185 C184 1.384 . S
C185 C188 1.382 . S
C186 C184 1.384 . S
C186 C187 1.381 . S
C186 H213 0.930 . S
C187 C186 1.381 . S
C187 C189 1.381 . S
C187 C190 1.487 . S
C188 C185 1.382 . S
C188 C189 1.387 . S
C188 H214 0.930 . S
C189 C187 1.381 . S
C189 C188 1.387 . S
C189 H215 0.931 . S
C190 C187 1.487 . S
C190 C197 1.399 . S
C190 N228 1.343 . S
C191 C192 1.384 . S
C191 C193 1.384 . S
C191 H216 0.931 . S
C192 C191 1.384 . S
C192 C195 1.382 . S
C193 C191 1.384 . S
C193 C194 1.381 . S
C193 H217 0.930 . S
C194 C193 1.381 . S
C194 C196 1.381 . S
C194 C197 1.487 . S
C195 C192 1.382 . S
C195 C196 1.387 . S
C195 H218 0.930 . S
C196 C194 1.381 . S
C196 C195 1.387 . S
C196 H219 0.931 . S
C197 C190 1.399 . S
C197 C194 1.487 . S
C197 N229 1.343 1_455 S
C198 C199 1.384 . S
C198 C200 1.384 . S
C198 H220 0.931 . S
C199 C198 1.384 . S
C199 C202 1.382 . S
C200 C198 1.384 . S
C200 C201 1.381 . S
C200 H221 0.930 . S
C201 C200 1.381 . S
C201 C203 1.381 . S
C201 C204 1.487 . S
C202 C199 1.382 . S
C202 C203 1.387 . S
C202 H222 0.930 . S
C203 C201 1.381 . S
C203 C202 1.387 . S
C203 H223 0.931 . S
C204 C201 1.487 . S
C204 C211 1.399 . S
C204 N229 1.343 . S
C205 C206 1.384 . S
C205 C207 1.384 . S
C205 H224 0.931 . S
C206 C205 1.384 . S
C206 C209 1.382 . S
C207 C205 1.384 . S
C207 C208 1.381 . S
C207 H225 0.930 . S
C208 C207 1.381 . S
C208 C210 1.381 . S
C208 C211 1.487 . S
C209 C206 1.382 . S
C209 C210 1.387 . S
C209 H226 0.930 . S
C210 C208 1.381 . S
C210 C209 1.387 . S
C210 H227 0.931 . S
C211 C204 1.399 . S
C211 C208 1.487 . S
C211 N228 1.343 1_655 S
H212 C184 0.931 . S
H213 C186 0.930 . S
H214 C188 0.930 . S
H215 C189 0.931 . S
H216 C191 0.931 . S
H217 C193 0.930 . S
H218 C195 0.930 . S
H219 C196 0.931 . S
H220 C198 0.931 . S
H221 C200 0.930 . S
H222 C202 0.930 . S
H223 C203 0.931 . S
H224 C205 0.931 . S
H225 C207 0.930 . S
H226 C209 0.930 . S
H227 C210 0.931 . S
N228 C190 1.343 . S
N228 C211 1.343 1_455 S
N229 C197 1.343 1_655 S
N229 C204 1.343 . S
C230 C231 1.384 . S
C230 C232 1.384 . S
C230 H258 0.931 . S
C231 C230 1.384 . S
C231 C234 1.382 . S
C232 C230 1.384 . S
C232 C233 1.381 . S
C232 H259 0.930 . S
C233 C232 1.381 . S
C233 C235 1.381 . S
C233 C236 1.487 . S
C234 C231 1.382 . S
C234 C235 1.387 . S
C234 H260 0.930 . S
C235 C233 1.381 . S
C235 C234 1.387 . S
C235 H261 0.931 . S
C236 C233 1.487 . S
C236 C243 1.399 . S
C236 N274 1.343 . S
C237 C238 1.384 . S
C237 C239 1.384 . S
C237 H262 0.931 . S
C238 C237 1.384 . S
C238 C241 1.382 . S
C239 C237 1.384 . S
C239 C240 1.381 . S
C239 H263 0.930 . S
C240 C239 1.381 . S
C240 C242 1.381 . S
C240 C243 1.487 . S
C241 C238 1.382 . S
C241 C242 1.387 . S
C241 H264 0.930 . S
C242 C240 1.381 . S
C242 C241 1.387 . S
C242 H265 0.931 . S
C243 C236 1.399 . S
C243 C240 1.487 . S
C243 N275 1.343 . S
C244 C245 1.384 . S
C244 C246 1.384 . S
C244 H266 0.931 . S
C245 C244 1.384 . S
C245 C248 1.382 . S
C246 C244 1.384 . S
C246 C247 1.381 . S
C246 H267 0.930 . S
C247 C246 1.381 . S
C247 C249 1.381 . S
C247 C250 1.487 . S
C248 C245 1.382 . S
C248 C249 1.387 . S
C248 H268 0.930 . S
C249 C247 1.381 . S
C249 C248 1.387 . S
C249 H269 0.931 . S
C250 C247 1.487 . S
C250 C257 1.399 . S
C250 N275 1.343 . S
C251 C252 1.384 . S
C251 C253 1.384 . S
C251 H270 0.931 . S
C252 C251 1.384 . S
C252 C255 1.382 . S
C253 C251 1.384 . S
C253 C254 1.381 . S
C253 H271 0.930 . S
C254 C253 1.381 . S
C254 C256 1.381 . S
C254 C257 1.487 . S
C255 C252 1.382 . S
C255 C256 1.387 . S
C255 H272 0.930 . S
C256 C254 1.381 . S
C256 C255 1.387 . S
C256 H273 0.931 . S
C257 C250 1.399 . S
C257 C254 1.487 . S
C257 N274 1.343 . S
H258 C230 0.931 . S
H259 C232 0.930 . S
H260 C234 0.930 . S
H261 C235 0.931 . S
H262 C237 0.931 . S
H263 C239 0.930 . S
H264 C241 0.930 . S
H265 C242 0.931 . S
H266 C244 0.931 . S
H267 C246 0.930 . S
H268 C248 0.930 . S
H269 C249 0.931 . S
H270 C251 0.931 . S
H271 C253 0.930 . S
H272 C255 0.930 . S
H273 C256 0.931 . S
N274 C236 1.343 . S
N274 C257 1.343 . S
N275 C243 1.343 . S
N275 C250 1.343 . S
C276 C277 1.384 . S
C276 C278 1.384 . S
C276 H304 0.931 . S
C277 C276 1.384 . S
C277 C280 1.382 . S
C278 C276 1.384 . S
C278 C279 1.381 . S
C278 H305 0.930 . S
C279 C278 1.381 . S
C279 C281 1.381 . S
C279 C282 1.487 . S
C280 C277 1.382 . S
C280 C281 1.387 . S
C280 H306 0.930 . S
C281 C279 1.381 . S
C281 C280 1.387 . S
C281 H307 0.931 1_565 S
C282 C279 1.487 . S
C282 C289 1.399 . S
C282 N320 1.343 1_565 S
C283 C284 1.384 . S
C283 C285 1.384 . S
C283 H308 0.931 . S
C284 C283 1.384 . S
C284 C287 1.382 . S
C285 C283 1.384 . S
C285 C286 1.381 . S
C285 H309 0.930 . S
C286 C285 1.381 . S
C286 C288 1.381 . S
C286 C289 1.487 . S
C287 C284 1.382 . S
C287 C288 1.387 . S
C287 H310 0.930 . S
C288 C286 1.381 . S
C288 C287 1.387 . S
C288 H311 0.931 . S
C289 C282 1.399 . S
C289 C286 1.487 . S
C289 N321 1.343 . S
C290 C291 1.384 . S
C290 C292 1.384 . S
C290 H312 0.931 . S
C291 C290 1.384 . S
C291 C294 1.382 . S
C292 C290 1.384 . S
C292 C293 1.381 . S
C292 H313 0.930 . S
C293 C292 1.381 . S
C293 C295 1.381 . S
C293 C296 1.487 . S
C294 C291 1.382 . S
C294 C295 1.387 . S
C294 H314 0.930 . S
C295 C293 1.381 . S
C295 C294 1.387 . S
C295 H315 0.931 1_545 S
C296 C293 1.487 . S
C296 C303 1.399 . S
C296 N321 1.343 1_545 S
C297 C298 1.384 . S
C297 C299 1.384 . S
C297 H316 0.931 . S
C298 C297 1.384 . S
C298 C301 1.382 . S
C299 C297 1.384 . S
C299 C300 1.381 . S
C299 H317 0.930 . S
C300 C299 1.381 . S
C300 C302 1.381 . S
C300 C303 1.487 . S
C301 C298 1.382 . S
C301 C302 1.387 . S
C301 H318 0.930 . S
C302 C300 1.381 . S
C302 C301 1.387 . S
C302 H319 0.931 . S
C303 C296 1.399 . S
C303 C300 1.487 . S
C303 N320 1.343 . S
H304 C276 0.931 . S
H305 C278 0.930 . S
H306 C280 0.930 . S
H307 C281 0.931 1_545 S
H308 C283 0.931 . S
H309 C285 0.930 . S
H310 C287 0.930 . S
H311 C288 0.931 . S
H312 C290 0.931 . S
H313 C292 0.930 . S
H314 C294 0.930 . S
H315 C295 0.931 1_565 S
H316 C297 0.931 . S
H317 C299 0.930 . S
H318 C301 0.930 . S
H319 C302 0.931 . S
N320 C282 1.343 1_545 S
N320 C303 1.343 . S
N321 C289 1.343 . S
N321 C296 1.343 1_565 S
C322 C323 1.384 . S
C322 C324 1.384 . S
C322 H350 0.931 . S
C323 C322 1.384 . S
C323 C326 1.382 . S
C324 C322 1.384 . S
C324 C325 1.381 . S
C324 H351 0.930 . S
C325 C324 1.381 . S
C325 C327 1.381 . S
C325 C328 1.487 . S
C326 C323 1.382 . S
C326 C327 1.387 . S
C326 H352 0.930 . S
C327 C325 1.381 . S
C327 C326 1.387 . S
C327 H353 0.931 1_455 S
C328 C325 1.487 . S
C328 C335 1.399 . S
C328 N366 1.343 1_455 S
C329 C330 1.384 . S
C329 C331 1.384 . S
C329 H354 0.931 . S
C330 C329 1.384 . S
C330 C333 1.382 . S
C331 C329 1.384 . S
C331 C332 1.381 . S
C331 H355 0.930 . S
C332 C331 1.381 . S
C332 C334 1.381 . S
C332 C335 1.487 . S
C333 C330 1.382 . S
C333 C334 1.387 . S
C333 H356 0.930 . S
C334 C332 1.381 . S
C334 C333 1.387 . S
C334 H357 0.931 . S
C335 C328 1.399 . S
C335 C332 1.487 . S
C335 N367 1.343 1_565 S
C336 C337 1.384 . S
C336 C338 1.384 . S
C336 H358 0.931 . S
C337 C336 1.384 . S
C337 C340 1.382 . S
C338 C336 1.384 . S
C338 C339 1.381 . S
C338 H359 0.930 . S
C339 C338 1.381 . S
C339 C341 1.381 . S
C339 C342 1.487 . S
C340 C337 1.382 . S
C340 C341 1.387 . S
C340 H360 0.930 . S
C341 C339 1.381 . S
C341 C340 1.387 . S
C341 H361 0.931 1_655 S
C342 C339 1.487 . S
C342 C349 1.399 . S
C342 N367 1.343 1_655 S
C343 C344 1.384 . S
C343 C345 1.384 . S
C343 H362 0.931 . S
C344 C343 1.384 . S
C344 C347 1.382 . S
C345 C343 1.384 . S
C345 C346 1.381 . S
C345 H363 0.930 . S
C346 C345 1.381 . S
C346 C348 1.381 . S
C346 C349 1.487 . S
C347 C344 1.382 . S
C347 C348 1.387 . S
C347 H364 0.930 . S
C348 C346 1.381 . S
C348 C347 1.387 . S
C348 H365 0.931 . S
C349 C342 1.399 . S
C349 C346 1.487 . S
C349 N366 1.343 1_545 S
H350 C322 0.931 . S
H351 C324 0.930 . S
H352 C326 0.930 . S
H353 C327 0.931 1_655 S
H354 C329 0.931 . S
H355 C331 0.930 . S
H356 C333 0.930 . S
H357 C334 0.931 . S
H358 C336 0.931 . S
H359 C338 0.930 . S
H360 C340 0.930 . S
H361 C341 0.931 1_455 S
H362 C343 0.931 . S
H363 C345 0.930 . S
H364 C347 0.930 . S
H365 C348 0.931 . S
N366 C328 1.343 1_655 S
N366 C349 1.343 1_565 S
N367 C335 1.343 1_545 S
N367 C342 1.343 1_455 S
C368 O369 1.160 1_556 S
C368 O375 1.185 . S
O369 C368 1.160 1_554 S
O370 Zn371 1.899 . S
O370 C378 1.284 . S
Zn371 O370 1.899 . S
Zn371 O372 2.032 1_554 S
Zn371 O375 2.086 1_554 S
Zn371 O380 1.977 . S
O372 Zn371 2.032 1_556 S
O372 C376 1.278 . S
C373 O374 1.203 . S
C373 O380 1.267 . S
O374 C373 1.203 . S
O375 C368 1.185 . S
O375 Zn371 2.086 1_556 S
C376 O372 1.278 . S
C376 O377 1.211 . S
O377 C376 1.211 . S
C378 O370 1.284 . S
C378 O379 1.273 . S
O379 C378 1.273 . S
O380 Zn371 1.977 . S
O380 C373 1.267 . S
C381 O382 1.160 . S
C381 O388 1.185 . S
O382 C381 1.160 . S
O383 Zn384 1.899 . S
O383 C391 1.284 . S
Zn384 O383 1.899 . S
Zn384 O385 2.032 . S
Zn384 O388 2.086 . S
Zn384 O393 1.977 . S
O385 Zn384 2.032 . S
O385 C389 1.278 . S
C386 O387 1.203 . S
C386 O393 1.267 . S
O387 C386 1.203 . S
O388 C381 1.185 . S
O388 Zn384 2.086 . S
C389 O385 1.278 . S
C389 O390 1.211 . S
O390 C389 1.211 . S
C391 O383 1.284 . S
C391 O392 1.273 . S
O392 C391 1.273 . S
O393 Zn384 1.977 . S
O393 C386 1.267 . S
C394 O395 1.160 . S
C394 O401 1.185 . S
O395 C394 1.160 . S
O396 Zn397 1.899 . S
O396 C404 1.284 . S
Zn397 O396 1.899 . S
Zn397 O398 2.032 . S
Zn397 O401 2.086 . S
Zn397 O406 1.977 . S
O398 Zn397 2.032 . S
O398 C402 1.278 . S
C399 O400 1.203 . S
C399 O406 1.267 . S
O400 C399 1.203 . S
O401 C394 1.185 . S
O401 Zn397 2.086 . S
C402 O398 1.278 . S
C402 O403 1.211 . S
O403 C402 1.211 . S
C404 O396 1.284 . S
C404 O405 1.273 . S
O405 C404 1.273 . S
O406 Zn397 1.977 . S
O406 C399 1.267 . S
C407 O408 1.160 . S
C407 O414 1.185 . S
O408 C407 1.160 . S
O409 Zn410 1.899 . S
O409 C417 1.284 . S
Zn410 O409 1.899 . S
Zn410 O411 2.032 . S
Zn410 O414 2.086 . S
Zn410 O419 1.977 . S
O411 Zn410 2.032 . S
O411 C415 1.278 . S
C412 O413 1.203 . S
C412 O419 1.267 . S
O413 C412 1.203 . S
O414 C407 1.185 . S
O414 Zn410 2.086 . S
C415 O411 1.278 . S
C415 O416 1.211 . S
O416 C415 1.211 . S
C417 O409 1.284 . S
C417 O418 1.273 . S
O418 C417 1.273 . S
O419 Zn410 1.977 . S
O419 C412 1.267 . S
C420 O421 1.160 . S
C420 O427 1.185 . S
O421 C420 1.160 . S
O422 Zn423 1.899 . S
O422 C430 1.284 . S
Zn423 O422 1.899 . S
Zn423 O424 2.032 . S
Zn423 O427 2.086 . S
Zn423 O432 1.977 . S
O424 Zn423 2.032 . S
O424 C428 1.278 . S
C425 O426 1.203 . S
C425 O432 1.267 . S
O426 C425 1.203 . S
O427 C420 1.185 . S
O427 Zn423 2.086 . S
C428 O424 1.278 . S
C428 O429 1.211 . S
O429 C428 1.211 . S
C430 O422 1.284 . S
C430 O431 1.273 . S
O431 C430 1.273 . S
O432 Zn423 1.977 . S
O432 C425 1.267 . S
C433 O434 1.160 . S
C433 O440 1.185 . S
O434 C433 1.160 . S
O435 Zn436 1.899 . S
O435 C443 1.284 . S
Zn436 O435 1.899 . S
Zn436 O437 2.032 . S
Zn436 O440 2.086 . S
Zn436 O445 1.977 . S
O437 Zn436 2.032 . S
O437 C441 1.278 . S
C438 O439 1.203 . S
C438 O445 1.267 . S
O439 C438 1.203 . S
O440 C433 1.185 . S
O440 Zn436 2.086 . S
C441 O437 1.278 . S
C441 O442 1.211 . S
O442 C441 1.211 . S
C443 O435 1.284 . S
C443 O444 1.273 . S
O444 C443 1.273 . S
O445 Zn436 1.977 . S
O445 C438 1.267 . S
C446 O447 1.160 1_556 S
C446 O453 1.185 . S
O447 C446 1.160 1_554 S
O448 Zn449 1.899 . S
O448 C456 1.284 . S
Zn449 O448 1.899 . S
Zn449 O450 2.032 1_554 S
Zn449 O453 2.086 1_554 S
Zn449 O458 1.977 . S
O450 Zn449 2.032 1_556 S
O450 C454 1.278 . S
C451 O452 1.203 . S
C451 O458 1.267 . S
O452 C451 1.203 . S
O453 C446 1.185 . S
O453 Zn449 2.086 1_556 S
C454 O450 1.278 . S
C454 O455 1.211 . S
O455 C454 1.211 . S
C456 O448 1.284 . S
C456 O457 1.273 . S
O457 C456 1.273 . S
O458 Zn449 1.977 . S
O458 C451 1.267 . S
C459 O460 1.160 . S
C459 O466 1.185 . S
O460 C459 1.160 . S
O461 Zn462 1.899 . S
O461 C469 1.284 . S
Zn462 O461 1.899 . S
Zn462 O463 2.032 . S
Zn462 O466 2.086 . S
Zn462 O471 1.977 . S
O463 Zn462 2.032 . S
O463 C467 1.278 . S
C464 O465 1.203 . S
C464 O471 1.267 . S
O465 C464 1.203 . S
O466 C459 1.185 . S
O466 Zn462 2.086 . S
C467 O463 1.278 . S
C467 O468 1.211 . S
O468 C467 1.211 . S
C469 O461 1.284 . S
C469 O470 1.273 . S
O470 C469 1.273 . S
O471 Zn462 1.977 . S
O471 C464 1.267 . S
C472 C473 1.363 . S
C472 C478 1.379 . S
C472 N480 1.356 . S
C473 C472 1.363 . S
C473 C479 1.363 . S
C474 C475 1.363 . S
C474 C479 1.379 . S
C474 N481 1.356 . S
C475 C474 1.363 . S
C475 C478 1.363 . S
N476 C478 1.356 . S
N476 H488 0.984 . S
N476 H489 0.985 . S
N477 C479 1.356 . S
N477 H482 0.984 . S
N477 H483 0.985 . S
C478 C472 1.379 . S
C478 C475 1.363 . S
C478 N476 1.356 . S
C479 C473 1.363 . S
C479 C474 1.379 . S
C479 N477 1.356 . S
N480 C472 1.356 . S
N480 H486 0.984 . S
N480 H487 0.984 . S
N481 C474 1.356 . S
N481 H484 0.984 . S
N481 H485 0.985 . S
H482 N477 0.984 . S
H483 N477 0.985 . S
H484 N481 0.984 . S
H485 N481 0.985 . S
H486 N480 0.984 . S
H487 N480 0.984 . S
H488 N476 0.984 . S
H489 N476 0.985 . S
C490 C491 1.363 . S
C490 C496 1.379 . S
C490 N498 1.356 . S
C491 C490 1.363 . S
C491 C497 1.363 . S
C492 C493 1.363 . S
C492 C497 1.379 . S
C492 N499 1.356 . S
C493 C492 1.363 . S
C493 C496 1.363 . S
N494 C496 1.356 . S
N494 H506 0.984 . S
N494 H507 0.985 . S
N495 C497 1.356 . S
N495 H500 0.984 . S
N495 H501 0.985 . S
C496 C490 1.379 . S
C496 C493 1.363 . S
C496 N494 1.356 . S
C497 C491 1.363 . S
C497 C492 1.379 . S
C497 N495 1.356 . S
N498 C490 1.356 . S
N498 H504 0.984 . S
N498 H505 0.984 . S
N499 C492 1.356 . S
N499 H502 0.984 . S
N499 H503 0.985 . S
H500 N495 0.984 . S
H501 N495 0.985 . S
H502 N499 0.984 . S
H503 N499 0.985 . S
H504 N498 0.984 . S
H505 N498 0.984 . S
H506 N494 0.984 . S
H507 N494 0.985 . S
C508 C509 1.363 . S
C508 C514 1.379 . S
C508 N516 1.356 . S
C509 C508 1.363 . S
C509 C515 1.363 . S
C510 C511 1.363 . S
C510 C515 1.379 . S
C510 N517 1.356 . S
C511 C510 1.363 . S
C511 C514 1.363 . S
N512 C514 1.356 . S
N512 H524 0.984 . S
N512 H525 0.985 . S
N513 C515 1.356 . S
N513 H518 0.984 . S
N513 H519 0.985 . S
C514 C508 1.379 . S
C514 C511 1.363 . S
C514 N512 1.356 . S
C515 C509 1.363 . S
C515 C510 1.379 . S
C515 N513 1.356 . S
N516 C508 1.356 . S
N516 H522 0.984 . S
N516 H523 0.984 . S
N517 C510 1.356 . S
N517 H520 0.984 . S
N517 H521 0.985 . S
H518 N513 0.984 . S
H519 N513 0.985 . S
H520 N517 0.984 . S
H521 N517 0.985 . S
H522 N516 0.984 . S
H523 N516 0.984 . S
H524 N512 0.984 . S
H525 N512 0.985 . S
C526 C527 1.363 . S
C526 C532 1.379 . S
C526 N534 1.356 . S
C527 C526 1.363 . S
C527 C533 1.363 . S
C528 C529 1.381 . S
C528 C533 1.381 . S
C528 N535 1.340 1_554 S
C529 C528 1.381 . S
C529 C532 1.363 . S
N530 C532 1.356 . S
N530 H542 0.984 . S
N530 H543 0.985 . S
N531 C533 1.356 1_556 S
N531 H536 0.984 . S
N531 H537 0.985 . S
C532 C526 1.379 . S
C532 C529 1.363 . S
C532 N530 1.356 . S
C533 C527 1.363 . S
C533 C528 1.381 . S
C533 N531 1.356 1_554 S
N534 C526 1.356 . S
N534 H540 0.984 . S
N534 H541 0.984 . S
N535 C528 1.340 1_556 S
N535 H538 0.984 . S
N535 H539 0.985 . S
H536 N531 0.984 . S
H537 N531 0.985 . S
H538 N535 0.984 . S
H539 N535 0.985 . S
H540 N534 0.984 . S
H541 N534 0.984 . S
H542 N530 0.984 . S
H543 N530 0.985 . S
C544 C545 1.363 . S
C544 C550 1.375 1_556 S
C544 N552 1.356 1_556 S
C545 C544 1.363 . S
C545 C551 1.363 . S
C546 C547 1.363 . S
C546 C551 1.379 . S
C546 N553 1.356 . S
C547 C546 1.363 . S
C547 C550 1.347 1_556 S
N548 C550 1.375 . S
N548 H560 0.984 . S
N548 H561 0.985 . S
N549 C551 1.356 . S
N549 H554 0.984 . S
N549 H555 0.985 . S
C550 C544 1.375 1_554 S
C550 C547 1.347 1_554 S
C550 N548 1.375 . S
C551 C545 1.363 . S
C551 C546 1.379 . S
C551 N549 1.356 . S
N552 C544 1.356 1_554 S
N552 H558 0.984 . S
N552 H559 0.992 . S
N553 C546 1.356 . S
N553 H556 0.984 . S
N553 H557 0.985 . S
H554 N549 0.984 . S
H555 N549 0.985 . S
H556 N553 0.984 . S
H557 N553 0.985 . S
H558 N552 0.984 . S
H559 N552 0.992 . S
H560 N548 0.984 . S
H561 N548 0.985 . S
C562 C563 1.363 . S
C562 C568 1.379 . S
C562 N570 1.356 . S
C563 C562 1.363 . S
C563 C569 1.363 . S
C564 C565 1.363 . S
C564 C569 1.379 . S
C564 N571 1.356 . S
C565 C564 1.363 . S
C565 C568 1.363 . S
N566 C568 1.356 . S
N566 H578 0.984 . S
N566 H579 0.985 . S
N567 C569 1.356 . S
N567 H572 0.984 . S
N567 H573 0.985 . S
C568 C562 1.379 . S
C568 C565 1.363 . S
C568 N566 1.356 . S
C569 C563 1.363 . S
C569 C564 1.379 . S
C569 N567 1.356 . S
N570 C562 1.356 . S
N570 H576 0.984 . S
N570 H577 0.984 . S
N571 C564 1.356 . S
N571 H574 0.984 . S
N571 H575 0.985 . S
H572 N567 0.984 . S
H573 N567 0.985 . S
H574 N571 0.984 . S
H575 N571 0.985 . S
H576 N570 0.984 . S
H577 N570 0.984 . S
H578 N566 0.984 . S
H579 N566 0.985 . S
C580 C581 1.363 . S
C580 C586 1.379 . S
C580 N588 1.356 . S
C581 C580 1.363 . S
C581 C587 1.363 . S
C582 C583 1.363 . S
C582 C587 1.379 . S
C582 N589 1.356 . S
C583 C582 1.363 . S
C583 C586 1.363 . S
N584 C586 1.356 . S
N584 H596 0.984 . S
N584 H597 0.985 . S
N585 C587 1.356 . S
N585 H590 0.984 . S
N585 H591 0.985 . S
C586 C580 1.379 . S
C586 C583 1.363 . S
C586 N584 1.356 . S
C587 C581 1.363 . S
C587 C582 1.379 . S
C587 N585 1.356 . S
N588 C580 1.356 . S
N588 H594 0.984 . S
N588 H595 0.984 . S
N589 C582 1.356 . S
N589 H592 0.984 . S
N589 H593 0.985 . S
H590 N585 0.984 . S
H591 N585 0.985 . S
H592 N589 0.984 . S
H593 N589 0.985 . S
H594 N588 0.984 . S
H595 N588 0.984 . S
H596 N584 0.984 . S
H597 N584 0.985 . S
C598 C599 1.363 . S
C598 C604 1.379 . S
C598 N606 1.356 . S
C599 C598 1.363 . S
C599 C605 1.363 . S
C600 C601 1.363 . S
C600 C605 1.379 . S
C600 N607 1.356 . S
C601 C600 1.363 . S
C601 C604 1.363 . S
N602 C604 1.356 . S
N602 H614 0.984 . S
N602 H615 0.985 . S
N603 C605 1.356 . S
N603 H608 0.984 . S
N603 H609 0.985 . S
C604 C598 1.379 . S
C604 C601 1.363 . S
C604 N602 1.356 . S
C605 C599 1.363 . S
C605 C600 1.379 . S
C605 N603 1.356 . S
N606 C598 1.356 . S
N606 H612 0.984 . S
N606 H613 0.984 . S
N607 C600 1.356 . S
N607 H610 0.984 . S
N607 H611 0.985 . S
H608 N603 0.984 . S
H609 N603 0.985 . S
H610 N607 0.984 . S
H611 N607 0.985 . S
H612 N606 0.984 . S
H613 N606 0.984 . S
H614 N602 0.984 . S
H615 N602 0.985 . S
C616 C617 1.363 . S
C616 C622 1.379 . S
C616 N624 1.356 . S
C617 C616 1.363 . S
C617 C623 1.363 . S
C618 C619 1.363 . S
C618 C623 1.379 . S
C618 N625 1.356 . S
C619 C618 1.363 . S
C619 C622 1.363 . S
N620 C622 1.356 . S
N620 H632 0.984 . S
N620 H633 0.985 . S
N621 C623 1.356 . S
N621 H626 0.984 . S
N621 H627 0.985 . S
C622 C616 1.379 . S
C622 C619 1.363 . S
C622 N620 1.356 . S
C623 C617 1.363 . S
C623 C618 1.379 . S
C623 N621 1.356 . S
N624 C616 1.356 . S
N624 H630 0.984 . S
N624 H631 0.984 . S
N625 C618 1.356 . S
N625 H628 0.984 . S
N625 H629 0.985 . S
H626 N621 0.984 . S
H627 N621 0.985 . S
H628 N625 0.984 . S
H629 N625 0.985 . S
H630 N624 0.984 . S
H631 N624 0.984 . S
H632 N620 0.984 . S
H633 N620 0.985 . S
C634 C635 1.363 . S
C634 C640 1.379 . S
C634 N642 1.356 . S
C635 C634 1.363 . S
C635 C641 1.365 1_554 S
C636 C637 1.363 1_556 S
C636 C641 1.379 . S
C636 N643 1.356 . S
C637 C636 1.363 1_554 S
C637 C640 1.363 . S
N638 C640 1.356 . S
N638 H650 0.984 . S
N638 H651 0.985 . S
N639 C641 1.355 . S
N639 H644 0.984 . S
N639 H645 0.985 . S
C640 C634 1.379 . S
C640 C637 1.363 . S
C640 N638 1.356 . S
C641 C635 1.365 1_556 S
C641 C636 1.379 . S
C641 N639 1.355 . S
N642 C634 1.356 . S
N642 H648 0.984 . S
N642 H649 0.984 . S
N643 C636 1.356 . S
N643 H646 0.984 . S
N643 H647 0.985 . S
H644 N639 0.984 . S
H645 N639 0.985 . S
H646 N643 0.984 . S
H647 N643 0.985 . S
H648 N642 0.984 . S
H649 N642 0.984 . S
H650 N638 0.984 . S
H651 N638 0.985 . S
C652 C653 1.363 . S
C652 C658 1.379 . S
C652 N660 1.356 . S
C653 C652 1.363 . S
C653 C659 1.363 . S
C654 C655 1.363 . S
C654 C659 1.379 . S
C654 N661 1.356 . S
C655 C654 1.363 . S
C655 C658 1.363 . S
N656 C658 1.356 . S
N656 H668 0.984 . S
N656 H669 0.985 . S
N657 C659 1.356 . S
N657 H662 0.984 . S
N657 H663 0.985 . S
C658 C652 1.379 . S
C658 C655 1.363 . S
C658 N656 1.356 . S
C659 C653 1.363 . S
C659 C654 1.379 . S
C659 N657 1.356 . S
N660 C652 1.356 . S
N660 H666 0.984 . S
N660 H667 0.984 . S
N661 C654 1.356 . S
N661 H664 0.984 . S
N661 H665 0.985 . S
H662 N657 0.984 . S
H663 N657 0.985 . S
H664 N661 0.984 . S
H665 N661 0.985 . S
H666 N660 0.984 . S
H667 N660 0.984 . S
H668 N656 0.984 . S
H669 N656 0.985 . S
C670 C671 1.363 . S
C670 C676 1.379 . S
C670 N678 1.356 . S
C671 C670 1.363 . S
C671 C677 1.363 . S
C672 C673 1.363 . S
C672 C677 1.379 . S
C672 N679 1.356 . S
C673 C672 1.363 . S
C673 C676 1.363 . S
N674 C676 1.356 . S
N674 H686 0.984 . S
N674 H687 0.985 . S
N675 C677 1.356 . S
N675 H680 0.984 . S
N675 H681 0.985 . S
C676 C670 1.379 . S
C676 C673 1.363 . S
C676 N674 1.356 . S
C677 C671 1.363 . S
C677 C672 1.379 . S
C677 N675 1.356 . S
N678 C670 1.356 . S
N678 H684 0.984 . S
N678 H685 0.984 . S
N679 C672 1.356 . S
N679 H682 0.984 . S
N679 H683 0.985 . S
H680 N675 0.984 . S
H681 N675 0.985 . S
H682 N679 0.984 . S
H683 N679 0.985 . S
H684 N678 0.984 . S
H685 N678 0.984 . S
H686 N674 0.984 . S
H687 N674 0.985 . S
C688 C689 1.363 . S
C688 C694 1.379 . S
C688 N696 1.356 . S
C689 C688 1.363 . S
C689 C695 1.363 . S
C690 C691 1.363 . S
C690 C695 1.379 . S
C690 N697 1.356 . S
C691 C690 1.363 . S
C691 C694 1.363 . S
N692 C694 1.356 . S
N692 H704 0.984 . S
N692 H705 0.985 . S
N693 C695 1.356 . S
N693 H698 0.984 . S
N693 H699 0.985 . S
C694 C688 1.379 . S
C694 C691 1.363 . S
C694 N692 1.356 . S
C695 C689 1.363 . S
C695 C690 1.379 . S
C695 N693 1.356 . S
N696 C688 1.356 . S
N696 H702 0.984 . S
N696 H703 0.984 . S
N697 C690 1.356 . S
N697 H700 0.984 . S
N697 H701 0.985 . S
H698 N693 0.984 . S
H699 N693 0.985 . S
H700 N697 0.984 . S
H701 N697 0.985 . S
H702 N696 0.984 . S
H703 N696 0.984 . S
H704 N692 0.984 . S
H705 N692 0.985 . S
C706 C707 1.363 . S
C706 C712 1.379 . S
C706 N714 1.356 . S
C707 C706 1.363 . S
C707 C713 1.363 . S
C708 C709 1.363 . S
C708 C713 1.379 . S
C708 N715 1.356 . S
C709 C708 1.363 . S
C709 C712 1.363 . S
N710 C712 1.356 . S
N710 H722 0.984 . S
N710 H723 0.985 . S
N711 C713 1.356 . S
N711 H716 0.984 . S
N711 H717 0.985 . S
C712 C706 1.379 . S
C712 C709 1.363 . S
C712 N710 1.356 . S
C713 C707 1.363 . S
C713 C708 1.379 . S
C713 N711 1.356 . S
N714 C706 1.356 . S
N714 H720 0.984 . S
N714 H721 0.984 . S
N715 C708 1.356 . S
N715 H718 0.984 . S
N715 H719 0.985 . S
H716 N711 0.984 . S
H717 N711 0.985 . S
H718 N715 0.984 . S
H719 N715 0.985 . S
H720 N714 0.984 . S
H721 N714 0.984 . S
H722 N710 0.984 . S
H723 N710 0.985 . S
C724 C725 1.363 . S
C724 C730 1.379 . S
C724 N732 1.356 . S
C725 C724 1.363 . S
C725 C731 1.363 1_556 S
C726 C727 1.363 1_554 S
C726 C731 1.379 . S
C726 N733 1.356 . S
C727 C726 1.363 1_556 S
C727 C730 1.363 . S
N728 C730 1.356 . S
N728 H740 0.984 . S
N728 H741 0.985 . S
N729 C731 1.356 . S
N729 H734 0.984 . S
N729 H735 0.985 . S
C730 C724 1.379 . S
C730 C727 1.363 . S
C730 N728 1.356 . S
C731 C725 1.363 1_554 S
C731 C726 1.379 . S
C731 N729 1.356 . S
N732 C724 1.356 . S
N732 H738 0.984 . S
N732 H739 0.984 . S
N733 C726 1.356 . S
N733 H736 0.984 . S
N733 H737 0.985 . S
H734 N729 0.984 . S
H735 N729 0.985 . S
H736 N733 0.984 . S
H737 N733 0.985 . S
H738 N732 0.984 . S
H739 N732 0.984 . S
H740 N728 0.984 . S
H741 N728 0.985 . S
C742 C743 1.363 . S
C742 C748 1.379 . S
C742 N750 1.356 . S
C743 C742 1.363 . S
C743 C749 1.363 . S
C744 C745 1.363 . S
C744 C749 1.379 . S
C744 N751 1.356 . S
C745 C744 1.363 . S
C745 C748 1.363 . S
N746 C748 1.356 . S
N746 H758 0.984 . S
N746 H759 0.985 . S
N747 C749 1.356 . S
N747 H752 0.984 . S
N747 H753 0.985 . S
C748 C742 1.379 . S
C748 C745 1.363 . S
C748 N746 1.356 . S
C749 C743 1.363 . S
C749 C744 1.379 . S
C749 N747 1.356 . S
N750 C742 1.356 . S
N750 H756 0.984 . S
N750 H757 0.984 . S
N751 C744 1.356 . S
N751 H754 0.984 . S
N751 H755 0.985 . S
H752 N747 0.984 . S
H753 N747 0.985 . S
H754 N751 0.984 . S
H755 N751 0.985 . S
H756 N750 0.984 . S
H757 N750 0.984 . S
H758 N746 0.984 . S
H759 N746 0.985 . S
C760 C761 1.363 . S
C760 C766 1.379 . S
C760 N768 1.356 . S
C761 C760 1.363 . S
C761 C767 1.363 . S
C762 C763 1.363 . S
C762 C767 1.379 . S
C762 N769 1.356 . S
C763 C762 1.363 . S
C763 C766 1.363 . S
N764 C766 1.356 . S
N764 H776 0.984 . S
N764 H777 0.985 . S
N765 C767 1.356 . S
N765 H770 0.984 . S
N765 H771 0.985 . S
C766 C760 1.379 . S
C766 C763 1.363 . S
C766 N764 1.356 . S
C767 C761 1.363 . S
C767 C762 1.379 . S
C767 N765 1.356 . S
N768 C760 1.356 . S
N768 H774 0.984 . S
N768 H775 0.984 . S
N769 C762 1.356 . S
N769 H772 0.984 . S
N769 H773 0.985 . S
H770 N765 0.984 . S
H771 N765 0.985 . S
H772 N769 0.984 . S
H773 N769 0.985 . S
H774 N768 0.984 . S
H775 N768 0.984 . S
H776 N764 0.984 . S
H777 N764 0.985 . S
C778 C779 1.363 . S
C778 C784 1.379 . S
C778 N786 1.356 . S
C779 C778 1.363 . S
C779 C785 1.363 . S
C780 C781 1.363 . S
C780 C785 1.379 . S
C780 N787 1.356 . S
C781 C780 1.363 . S
C781 C784 1.363 . S
N782 C784 1.356 . S
N782 H794 0.984 . S
N782 H795 0.985 . S
N783 C785 1.356 . S
N783 H788 0.984 . S
N783 H789 0.985 . S
C784 C778 1.379 . S
C784 C781 1.363 . S
C784 N782 1.356 . S
C785 C779 1.363 . S
C785 C780 1.379 . S
C785 N783 1.356 . S
N786 C778 1.356 . S
N786 H792 0.984 . S
N786 H793 0.984 . S
N787 C780 1.356 . S
N787 H790 0.984 . S
N787 H791 0.985 . S
H788 N783 0.984 . S
H789 N783 0.985 . S
H790 N787 0.984 . S
H791 N787 0.985 . S
H792 N786 0.984 . S
H793 N786 0.984 . S
H794 N782 0.984 . S
H795 N782 0.985 . S
C796 C797 1.363 . S
C796 C802 1.379 . S
C796 N804 1.356 . S
C797 C796 1.363 . S
C797 C803 1.363 . S
C798 C799 1.363 . S
C798 C803 1.379 . S
C798 N805 1.356 . S
C799 C798 1.363 . S
C799 C802 1.363 . S
N800 C802 1.356 . S
N800 H812 0.984 . S
N800 H813 0.985 . S
N801 C803 1.356 . S
N801 H806 0.984 . S
N801 H807 0.985 . S
C802 C796 1.379 . S
C802 C799 1.363 . S
C802 N800 1.356 . S
C803 C797 1.363 . S
C803 C798 1.379 . S
C803 N801 1.356 . S
N804 C796 1.356 . S
N804 H810 0.984 . S
N804 H811 0.984 . S
N805 C798 1.356 . S
N805 H808 0.984 . S
N805 H809 0.985 . S
H806 N801 0.984 . S
H807 N801 0.985 . S
H808 N805 0.984 . S
H809 N805 0.985 . S
H810 N804 0.984 . S
H811 N804 0.984 . S
H812 N800 0.984 . S
H813 N800 0.985 . S
C814 C815 1.363 . S
C814 C820 1.379 . S
C814 N822 1.356 . S
C815 C814 1.363 . S
C815 C821 1.363 . S
C816 C817 1.363 . S
C816 C821 1.379 . S
C816 N823 1.356 . S
C817 C816 1.363 . S
C817 C820 1.363 . S
N818 C820 1.356 . S
N818 H830 0.984 . S
N818 H831 0.985 . S
N819 C821 1.356 . S
N819 H824 0.984 . S
N819 H825 0.985 . S
C820 C814 1.379 . S
C820 C817 1.363 . S
C820 N818 1.356 . S
C821 C815 1.363 . S
C821 C816 1.379 . S
C821 N819 1.356 . S
N822 C814 1.356 . S
N822 H828 0.984 . S
N822 H829 0.984 . S
N823 C816 1.356 . S
N823 H826 0.984 . S
N823 H827 0.985 . S
H824 N819 0.984 . S
H825 N819 0.985 . S
H826 N823 0.984 . S
H827 N823 0.985 . S
H828 N822 0.984 . S
H829 N822 0.984 . S
H830 N818 0.984 . S
H831 N818 0.985 . S
C832 C833 1.363 . S
C832 C838 1.379 . S
C832 N840 1.356 . S
C833 C832 1.363 . S
C833 C839 1.363 . S
C834 C835 1.363 . S
C834 C839 1.379 . S
C834 N841 1.356 . S
C835 C834 1.363 . S
C835 C838 1.363 . S
N836 C838 1.356 . S
N836 H848 0.984 . S
N836 H849 0.985 . S
N837 C839 1.356 . S
N837 H842 0.984 . S
N837 H843 0.985 . S
C838 C832 1.379 . S
C838 C835 1.363 . S
C838 N836 1.356 . S
C839 C833 1.363 . S
C839 C834 1.379 . S
C839 N837 1.356 . S
N840 C832 1.356 . S
N840 H846 0.984 . S
N840 H847 0.984 . S
N841 C834 1.356 . S
N841 H844 0.984 . S
N841 H845 0.985 . S
H842 N837 0.984 . S
H843 N837 0.985 . S
H844 N841 0.984 . S
H845 N841 0.985 . S
H846 N840 0.984 . S
H847 N840 0.984 . S
H848 N836 0.984 . S
H849 N836 0.985 . S
C850 C851 1.363 . S
C850 C856 1.379 . S
C850 N858 1.356 . S
C851 C850 1.363 . S
C851 C857 1.363 . S
C852 C853 1.363 . S
C852 C857 1.379 . S
C852 N859 1.356 . S
C853 C852 1.363 . S
C853 C856 1.363 . S
N854 C856 1.356 . S
N854 H866 0.984 . S
N854 H867 0.985 . S
N855 C857 1.356 . S
N855 H860 0.984 . S
N855 H861 0.985 . S
C856 C850 1.379 . S
C856 C853 1.363 . S
C856 N854 1.356 . S
C857 C851 1.363 . S
C857 C852 1.379 . S
C857 N855 1.356 . S
N858 C850 1.356 . S
N858 H864 0.984 . S
N858 H865 0.984 . S
N859 C852 1.356 . S
N859 H862 0.984 . S
N859 H863 0.985 . S
H860 N855 0.984 . S
H861 N855 0.985 . S
H862 N859 0.984 . S
H863 N859 0.985 . S
H864 N858 0.984 . S
H865 N858 0.984 . S
H866 N854 0.984 . S
H867 N854 0.985 . S
C868 C869 1.363 . S
C868 C874 1.379 . S
C868 N876 1.356 . S
C869 C868 1.363 . S
C869 C875 1.363 . S
C870 C871 1.363 . S
C870 C875 1.379 . S
C870 N877 1.356 . S
C871 C870 1.363 . S
C871 C874 1.363 . S
N872 C874 1.356 . S
N872 H884 0.984 . S
N872 H885 0.985 . S
N873 C875 1.356 . S
N873 H878 0.984 . S
N873 H879 0.985 . S
C874 C868 1.379 . S
C874 C871 1.363 . S
C874 N872 1.356 . S
C875 C869 1.363 . S
C875 C870 1.379 . S
C875 N873 1.356 . S
N876 C868 1.356 . S
N876 H882 0.984 . S
N876 H883 0.984 . S
N877 C870 1.356 . S
N877 H880 0.984 . S
N877 H881 0.985 . S
H878 N873 0.984 . S
H879 N873 0.985 . S
H880 N877 0.984 . S
H881 N877 0.985 . S
H882 N876 0.984 . S
H883 N876 0.984 . S
H884 N872 0.984 . S
H885 N872 0.985 . S
C886 C887 1.363 . S
C886 C892 1.379 . S
C886 N894 1.356 . S
C887 C886 1.363 . S
C887 C893 1.363 . S
C888 C889 1.363 . S
C888 C893 1.379 . S
C888 N895 1.356 . S
C889 C888 1.363 . S
C889 C892 1.363 . S
N890 C892 1.356 . S
N890 H902 0.984 . S
N890 H903 0.985 . S
N891 C893 1.356 . S
N891 H896 0.984 . S
N891 H897 0.985 . S
C892 C886 1.379 . S
C892 C889 1.363 . S
C892 N890 1.356 . S
C893 C887 1.363 . S
C893 C888 1.379 . S
C893 N891 1.356 . S
N894 C886 1.356 . S
N894 H900 0.984 . S
N894 H901 0.984 . S
N895 C888 1.356 . S
N895 H898 0.984 . S
N895 H899 0.985 . S
H896 N891 0.984 . S
H897 N891 0.985 . S
H898 N895 0.984 . S
H899 N895 0.985 . S
H900 N894 0.984 . S
H901 N894 0.984 . S
H902 N890 0.984 . S
H903 N890 0.985 . S
C904 C905 1.363 . S
C904 C910 1.379 . S
C904 N912 1.356 . S
C905 C904 1.363 . S
C905 C911 1.363 . S
C906 C907 1.363 . S
C906 C911 1.379 . S
C906 N913 1.356 . S
C907 C906 1.363 . S
C907 C910 1.363 . S
N908 C910 1.356 . S
N908 H920 0.984 . S
N908 H921 0.985 . S
N909 C911 1.356 . S
N909 H914 0.984 . S
N909 H915 0.985 . S
C910 C904 1.379 . S
C910 C907 1.363 . S
C910 N908 1.356 . S
C911 C905 1.363 . S
C911 C906 1.379 . S
C911 N909 1.356 . S
N912 C904 1.356 . S
N912 H918 0.984 . S
N912 H919 0.984 . S
N913 C906 1.356 . S
N913 H916 0.984 . S
N913 H917 0.985 . S
H914 N909 0.984 . S
H915 N909 0.985 . S
H916 N913 0.984 . S
H917 N913 0.985 . S
H918 N912 0.984 . S
H919 N912 0.984 . S
H920 N908 0.984 . S
H921 N908 0.985 . S
C922 C923 1.363 . S
C922 C928 1.379 . S
C922 N930 1.356 . S
C923 C922 1.363 . S
C923 C929 1.363 . S
C924 C925 1.363 . S
C924 C929 1.379 . S
C924 N931 1.356 . S
C925 C924 1.363 . S
C925 C928 1.363 . S
N926 C928 1.356 . S
N926 H938 0.984 . S
N926 H939 0.985 . S
N927 C929 1.356 . S
N927 H932 0.984 . S
N927 H933 0.985 . S
C928 C922 1.379 . S
C928 C925 1.363 . S
C928 N926 1.356 . S
C929 C923 1.363 . S
C929 C924 1.379 . S
C929 N927 1.356 . S
N930 C922 1.356 . S
N930 H936 0.984 . S
N930 H937 0.984 . S
N931 C924 1.356 . S
N931 H934 0.984 . S
N931 H935 0.985 . S
H932 N927 0.984 . S
H933 N927 0.985 . S
H934 N931 0.984 . S
H935 N931 0.985 . S
H936 N930 0.984 . S
H937 N930 0.984 . S
H938 N926 0.984 . S
H939 N926 0.985 . S
C940 C941 1.363 . S
C940 C946 1.379 . S
C940 N948 1.356 . S
C941 C940 1.363 . S
C941 C947 1.363 . S
C942 C943 1.363 . S
C942 C947 1.379 . S
C942 N949 1.356 . S
C943 C942 1.363 . S
C943 C946 1.363 . S
N944 C946 1.356 . S
N944 H956 0.984 . S
N944 H957 0.985 . S
N945 C947 1.356 . S
N945 H950 0.984 . S
N945 H951 0.985 . S
C946 C940 1.379 . S
C946 C943 1.363 . S
C946 N944 1.356 . S
C947 C941 1.363 . S
C947 C942 1.379 . S
C947 N945 1.356 . S
N948 C940 1.356 . S
N948 H954 0.984 . S
N948 H955 0.984 . S
N949 C942 1.356 . S
N949 H952 0.984 . S
N949 H953 0.985 . S
H950 N945 0.984 . S
H951 N945 0.985 . S
H952 N949 0.984 . S
H953 N949 0.985 . S
H954 N948 0.984 . S
H955 N948 0.984 . S
H956 N944 0.984 . S
H957 N944 0.985 . S
C958 C959 1.363 . S
C958 C964 1.379 . S
C958 N966 1.356 . S
C959 C958 1.363 . S
C959 C965 1.363 . S
C960 C961 1.363 . S
C960 C965 1.379 . S
C960 N967 1.356 . S
C961 C960 1.363 . S
C961 C964 1.363 . S
N962 C964 1.356 . S
N962 H974 0.984 . S
N962 H975 0.985 . S
N963 C965 1.356 . S
N963 H968 0.984 . S
N963 H969 0.985 . S
C964 C958 1.379 . S
C964 C961 1.363 . S
C964 N962 1.356 . S
C965 C959 1.363 . S
C965 C960 1.379 . S
C965 N963 1.356 . S
N966 C958 1.356 . S
N966 H972 0.984 . S
N966 H973 0.984 . S
N967 C960 1.356 . S
N967 H970 0.984 . S
N967 H971 0.985 . S
H968 N963 0.984 . S
H969 N963 0.985 . S
H970 N967 0.984 . S
H971 N967 0.985 . S
H972 N966 0.984 . S
H973 N966 0.984 . S
H974 N962 0.984 . S
H975 N962 0.985 . S
C976 C977 1.363 . S
C976 C982 1.379 . S
C976 N984 1.356 . S
C977 C976 1.363 . S
C977 C983 1.363 . S
C978 C979 1.363 . S
C978 C983 1.379 . S
C978 N985 1.356 . S
C979 C978 1.363 . S
C979 C982 1.363 . S
N980 C982 1.356 . S
N980 H992 0.984 . S
N980 H993 0.985 . S
N981 C983 1.356 . S
N981 H986 0.984 . S
N981 H987 0.985 . S
C982 C976 1.379 . S
C982 C979 1.363 . S
C982 N980 1.356 . S
C983 C977 1.363 . S
C983 C978 1.379 . S
C983 N981 1.356 . S
N984 C976 1.356 . S
N984 H990 0.984 . S
N984 H991 0.984 . S
N985 C978 1.356 . S
N985 H988 0.984 . S
N985 H989 0.985 . S
H986 N981 0.984 . S
H987 N981 0.985 . S
H988 N985 0.984 . S
H989 N985 0.985 . S
H990 N984 0.984 . S
H991 N984 0.984 . S
H992 N980 0.984 . S
H993 N980 0.985 . S
C994 C995 1.363 . S
C994 C1000 1.379 . S
C994 N1002 1.356 . S
C995 C994 1.363 . S
C995 C1001 1.363 . S
C996 C997 1.363 . S
C996 C1001 1.379 . S
C996 N1003 1.356 . S
C997 C996 1.363 . S
C997 C1000 1.363 . S
N998 C1000 1.356 . S
N998 H1010 0.984 . S
N998 H1011 0.985 . S
N999 C1001 1.356 . S
N999 H1004 0.984 . S
N999 H1005 0.985 . S
C1000 C994 1.379 . S
C1000 C997 1.363 . S
C1000 N998 1.356 . S
C1001 C995 1.363 . S
C1001 C996 1.379 . S
C1001 N999 1.356 . S
N1002 C994 1.356 . S
N1002 H1008 0.984 . S
N1002 H1009 0.984 . S
N1003 C996 1.356 . S
N1003 H1006 0.984 . S
N1003 H1007 0.985 . S
H1004 N999 0.984 . S
H1005 N999 0.985 . S
H1006 N1003 0.984 . S
H1007 N1003 0.985 . S
H1008 N1002 0.984 . S
H1009 N1002 0.984 . S
H1010 N998 0.984 . S
H1011 N998 0.985 . S
C1012 C1013 1.363 . S
C1012 C1018 1.379 . S
C1012 N1020 1.356 . S
C1013 C1012 1.363 . S
C1013 C1019 1.363 . S
C1014 C1015 1.363 . S
C1014 C1019 1.379 . S
C1014 N1021 1.356 . S
C1015 C1014 1.363 . S
C1015 C1018 1.363 . S
N1016 C1018 1.356 . S
N1016 H1028 0.984 . S
N1016 H1029 0.985 . S
N1017 C1019 1.356 . S
N1017 H1022 0.984 . S
N1017 H1023 0.985 . S
C1018 C1012 1.379 . S
C1018 C1015 1.363 . S
C1018 N1016 1.356 . S
C1019 C1013 1.363 . S
C1019 C1014 1.379 . S
C1019 N1017 1.356 . S
N1020 C1012 1.356 . S
N1020 H1026 0.984 . S
N1020 H1027 0.984 . S
N1021 C1014 1.356 . S
N1021 H1024 0.984 . S
N1021 H1025 0.985 . S
H1022 N1017 0.984 . S
H1023 N1017 0.985 . S
H1024 N1021 0.984 . S
H1025 N1021 0.985 . S
H1026 N1020 0.984 . S
H1027 N1020 0.984 . S
H1028 N1016 0.984 . S
H1029 N1016 0.985 . S
C1030 C1031 1.363 . S
C1030 C1036 1.379 . S
C1030 N1038 1.356 . S
C1031 C1030 1.363 . S
C1031 C1037 1.363 . S
C1032 C1033 1.363 . S
C1032 C1037 1.379 . S
C1032 N1039 1.356 . S
C1033 C1032 1.363 . S
C1033 C1036 1.363 . S
N1034 C1036 1.356 . S
N1034 H1046 0.984 . S
N1034 H1047 0.985 . S
N1035 C1037 1.356 . S
N1035 H1040 0.984 . S
N1035 H1041 0.985 . S
C1036 C1030 1.379 . S
C1036 C1033 1.363 . S
C1036 N1034 1.356 . S
C1037 C1031 1.363 . S
C1037 C1032 1.379 . S
C1037 N1035 1.356 . S
N1038 C1030 1.356 . S
N1038 H1044 0.984 . S
N1038 H1045 0.984 . S
N1039 C1032 1.356 . S
N1039 H1042 0.984 . S
N1039 H1043 0.985 . S
H1040 N1035 0.984 . S
H1041 N1035 0.985 . S
H1042 N1039 0.984 . S
H1043 N1039 0.985 . S
H1044 N1038 0.984 . S
H1045 N1038 0.984 . S
H1046 N1034 0.984 . S
H1047 N1034 0.985 . S
C475 C381 1.399 . S
C473 C8 1.443 . S
C493 C399 1.417 . S
C491 C61 1.445 . S
C511 C407 1.399 . S
C509 C107 1.445 . S
C527 C139 1.447 . S
C529 C373 1.420 . S
C545 C192 1.444 . S
C547 C368 1.396 . S
C563 C238 1.447 . S
C565 C386 1.417 . S
C583 C394 1.399 . S
C581 C284 1.446 . S
C601 C412 1.417 . S
C599 C330 1.447 . S
C617 C100 1.444 . S
C619 C433 1.399 . S
C637 C451 1.417 . S
C635 C160 1.444 . S
C653 C15 1.445 . S
C655 C459 1.401 . S
C673 C425 1.417 . S
C671 C54 1.449 . S
C689 C291 1.445 . S
C691 C420 1.398 . S
C707 C337 1.447 . S
C709 C438 1.415 . S
C727 C446 1.399 . S
C725 C199 1.447 . S
C743 C245 1.447 . S
C745 C464 1.417 . S
C763 C402 1.571 . S
C761 C1 1.545 . S
C781 C417 1.524 . S
C779 C68 1.532 . S
C797 C114 1.533 . S
C799 C376 1.571 . S
C815 C146 1.545 . S
C817 C391 1.525 . S
C833 C185 1.544 . S
C835 C415 1.571 . S
C853 C378 1.524 . S
C851 C231 1.545 . S
C871 C389 1.572 . S
C869 C277 1.546 . S
C889 C404 1.524 . S
C887 C323 1.545 . S
C907 C454 1.571 . S
C905 C93 1.544 . S
C925 C469 1.524 . S
C923 C153 1.532 . S
C941 C22 1.533 . S
C943 C428 1.570 . S
C961 C443 1.524 . S
C959 C47 1.548 . S
C979 C467 1.572 . S
C977 C298 1.531 . S
C995 C344 1.534 . S
C997 C430 1.524 . S
C1015 C441 1.572 . S
C1013 C206 1.534 . S
C1033 C456 1.524 . S
C1031 C252 1.534 . S
