# Generated by pormake.
# Topology apo, (3,6)-cn, num edge types: 1
# Building blocks:
#     Node 0, Type 0, BuildingBlock: KAKCAD_clean_linker_0, # of connection points: 3
#     Node 1, Type 0, BuildingBlock: KAKCAD_clean_linker_0, # of connection points: 3
#     Node 2, Type 0, BuildingBlock: KAKCAD_clean_linker_0, # of connection points: 3
#     Node 3, Type 0, BuildingBlock: KAKCAD_clean_linker_0, # of connection points: 3
#     Node 4, Type 0, BuildingBlock: KAKCAD_clean_linker_0, # of connection points: 3
#     Node 5, Type 0, BuildingBlock: KAKCAD_clean_linker_0, # of connection points: 3
#     Node 6, Type 0, BuildingBlock: KAKCAD_clean_linker_0, # of connection points: 3
#     Node 7, Type 0, BuildingBlock: KAKCAD_clean_linker_0, # of connection points: 3
#     Node 8, Type 1, BuildingBlock: MIDCAF_clean_sbu_0, # of connection points: 6
#     Node 9, Type 1, BuildingBlock: MIDCAF_clean_sbu_0, # of connection points: 6
#     Node 10, Type 1, BuildingBlock: MIDCAF_clean_sbu_0, # of connection points: 6
#     Node 11, Type 1, BuildingBlock: MIDCAF_clean_sbu_0, # of connection points: 6
#     Edge 12, Type (0, 1), BuildingBlock: XIVTED_clean_linker_0, # of connection points: 2
#     Edge 13, Type (0, 1), BuildingBlock: XIVTED_clean_linker_0, # of connection points: 2
#     Edge 14, Type (0, 1), BuildingBlock: XIVTED_clean_linker_0, # of connection points: 2
#     Edge 15, Type (0, 1), BuildingBlock: XIVTED_clean_linker_0, # of connection points: 2
#     Edge 16, Type (0, 1), BuildingBlock: XIVTED_clean_linker_0, # of connection points: 2
#     Edge 17, Type (0, 1), BuildingBlock: XIVTED_clean_linker_0, # of connection points: 2
#     Edge 18, Type (0, 1), BuildingBlock: XIVTED_clean_linker_0, # of connection points: 2
#     Edge 19, Type (0, 1), BuildingBlock: XIVTED_clean_linker_0, # of connection points: 2
#     Edge 20, Type (0, 1), BuildingBlock: XIVTED_clean_linker_0, # of connection points: 2
#     Edge 21, Type (0, 1), BuildingBlock: XIVTED_clean_linker_0, # of connection points: 2
#     Edge 22, Type (0, 1), BuildingBlock: XIVTED_clean_linker_0, # of connection points: 2
#     Edge 23, Type (0, 1), BuildingBlock: XIVTED_clean_linker_0, # of connection points: 2
#     Edge 24, Type (0, 1), BuildingBlock: XIVTED_clean_linker_0, # of connection points: 2
#     Edge 25, Type (0, 1), BuildingBlock: XIVTED_clean_linker_0, # of connection points: 2
#     Edge 26, Type (0, 1), BuildingBlock: XIVTED_clean_linker_0, # of connection points: 2
#     Edge 27, Type (0, 1), BuildingBlock: XIVTED_clean_linker_0, # of connection points: 2
#     Edge 28, Type (0, 1), BuildingBlock: XIVTED_clean_linker_0, # of connection points: 2
#     Edge 29, Type (0, 1), BuildingBlock: XIVTED_clean_linker_0, # of connection points: 2
#     Edge 30, Type (0, 1), BuildingBlock: XIVTED_clean_linker_0, # of connection points: 2
#     Edge 31, Type (0, 1), BuildingBlock: XIVTED_clean_linker_0, # of connection points: 2
#     Edge 32, Type (0, 1), BuildingBlock: XIVTED_clean_linker_0, # of connection points: 2
#     Edge 33, Type (0, 1), BuildingBlock: XIVTED_clean_linker_0, # of connection points: 2
#     Edge 34, Type (0, 1), BuildingBlock: XIVTED_clean_linker_0, # of connection points: 2
#     Edge 35, Type (0, 1), BuildingBlock: XIVTED_clean_linker_0, # of connection points: 2
# Relax obj value: 0.085
# Max RMSD: 0.099
# Mean RMSD: 0.090
data_MOF--net-apo--node1-MIDCAF_clean_sbu_0--node2-KAKCAD_clean_linker_0--edge1-XIVTED_clean_linker_0
_symmetry_space_group_name_H-M    P1
_symmetry_Int_Tables_number       1
_symmetry_cell_setting            triclinic
loop_
_symmetry_equiv_pos_as_xyz
'x, y, z'
_cell_length_a     42.705859
_cell_length_b     50.937482
_cell_length_c     45.600074
_cell_angle_alpha  90.05065
_cell_angle_beta   89.930591
_cell_angle_gamma 90.186451
loop_
_atom_site_label
_atom_site_type_symbol
_atom_site_fract_x
_atom_site_fract_y
_atom_site_fract_z
_atom_type_partial_charge
C0 C 0.359 0.42267 0.34035 0.0
C1 C 0.39162 0.42635 0.34178 0.0
C2 C 0.34486 0.40091 0.35349 0.0
C3 C 0.36291 0.38226 0.36851 0.0
C4 C 0.39549 0.38607 0.37039 0.0
C5 C 0.4097 0.40787 0.35715 0.0
C6 C 0.34761 0.35889 0.38189 0.0
C7 C 0.32428 0.34516 0.36648 0.0
C8 C 0.3088 0.3235 0.37904 0.0
C9 C 0.31716 0.31553 0.40753 0.0
C10 C 0.34091 0.32873 0.42306 0.0
C11 C 0.35594 0.35041 0.41007 0.0
C12 C 0.3504 0.31994 0.45277 0.0
C13 C 0.32794 0.31446 0.47453 0.0
C14 C 0.38229 0.3177 0.45975 0.0
C15 C 0.3916 0.31061 0.48796 0.0
C16 C 0.36927 0.30566 0.50996 0.0
C17 C 0.28446 0.30907 0.36196 0.0
C18 C 0.26362 0.32273 0.34365 0.0
C19 C 0.2825 0.28153 0.36302 0.0
C20 C 0.26052 0.26802 0.34596 0.0
C21 C 0.24006 0.28165 0.32722 0.0
C22 C 0.24184 0.30921 0.32641 0.0
C23 C 0.3373 0.30756 0.50293 0.0
H24 H 0.34424 0.4368 0.32933 0.0
H25 H 0.31965 0.39883 0.35214 0.0
H26 H 0.41007 0.37192 0.38162 0.0
H27 H 0.4349 0.40998 0.35848 0.0
H28 H 0.31873 0.35105 0.34426 0.0
H29 H 0.37364 0.3611 0.42226 0.0
H30 H 0.30541 0.29893 0.41759 0.0
H31 H 0.30319 0.31616 0.46978 0.0
H32 H 0.40011 0.32157 0.44338 0.0
H33 H 0.41642 0.30969 0.49272 0.0
H34 H 0.26408 0.34397 0.34259 0.0
H35 H 0.29832 0.27031 0.37663 0.0
H36 H 0.31955 0.30376 0.51939 0.0
H37 H 0.22667 0.32043 0.31216 0.0
H38 H 0.25947 0.24684 0.34769 0.0
C39 C 0.12948 0.0782 0.83119 0.0
C40 C 0.09961 0.06988 0.84054 0.0
C41 C 0.14476 0.09914 0.84497 0.0
C42 C 0.13031 0.113 0.86798 0.0
C43 C 0.10005 0.10523 0.87673 0.0
C44 C 0.08513 0.08382 0.86351 0.0
C45 C 0.14678 0.13527 0.88288 0.0
C46 C 0.16784 0.15139 0.86729 0.0
C47 C 0.18358 0.17216 0.88122 0.0
C48 C 0.17782 0.17723 0.91098 0.0
C49 C 0.15668 0.16166 0.92686 0.0
C50 C 0.1416 0.14057 0.91282 0.0
C51 C 0.14953 0.16791 0.95789 0.0
C52 C 0.17363 0.17311 0.9781 0.0
C53 C 0.11828 0.16914 0.96731 0.0
C54 C 0.11118 0.17555 0.99628 0.0
C55 C 0.13519 0.1807 0.01656 0.0
C56 C 0.20612 0.18861 0.86469 0.0
C57 C 0.22949 0.17692 0.84742 0.0
C58 C 0.20488 0.21608 0.86667 0.0
C59 C 0.22699 0.23156 0.85214 0.0
C60 C 0.25113 0.2199 0.83565 0.0
C61 C 0.25186 0.19239 0.83313 0.0
C62 C 0.16651 0.17924 0.00728 0.0
H63 H 0.14134 0.06853 0.81323 0.0
H64 H 0.16818 0.10409 0.83773 0.0
H65 H 0.08768 0.11564 0.89388 0.0
H66 H 0.06244 0.07799 0.87188 0.0
H67 H 0.17159 0.14831 0.84406 0.0
H68 H 0.12619 0.12807 0.92555 0.0
H69 H 0.18966 0.19345 0.92175 0.0
H70 H 0.19794 0.17217 0.97139 0.0
H71 H 0.09926 0.16545 0.95213 0.0
H72 H 0.08683 0.17617 1.00293 0.0
H73 H 0.23106 0.15574 0.84574 0.0
H74 H 0.18679 0.22559 0.87948 0.0
H75 H 0.18544 0.18314 0.02248 0.0
H76 H 0.27035 0.18273 0.821 0.0
H77 H 0.22529 0.25269 0.85406 0.0
C78 C 0.8683 0.08595 0.6855 0.0
C79 C 0.89876 0.079 0.67667 0.0
C80 C 0.85131 0.10486 0.67024 0.0
C81 C 0.86458 0.11837 0.64632 0.0
C82 C 0.89542 0.11209 0.63802 0.0
C83 C 0.9121 0.09247 0.6527 0.0
C84 C 0.84611 0.13874 0.63028 0.0
C85 C 0.82325 0.15348 0.6451 0.0
C86 C 0.80426 0.17155 0.63025 0.0
C87 C 0.80941 0.17606 0.60023 0.0
C88 C 0.83302 0.16238 0.58519 0.0
C89 C 0.85075 0.14343 0.60018 0.0
C90 C 0.84007 0.16833 0.55403 0.0
C91 C 0.81615 0.16977 0.53292 0.0
C92 C 0.87121 0.17252 0.54529 0.0
C93 C 0.87839 0.17792 0.51608 0.0
C94 C 0.85463 0.17909 0.49483 0.0
C95 C 0.77942 0.18567 0.64668 0.0
C96 C 0.76103 0.17214 0.66737 0.0
C97 C 0.77494 0.21278 0.64307 0.0
C98 C 0.75323 0.22617 0.66049 0.0
C99 C 0.73556 0.21275 0.68187 0.0
C100 C 0.73946 0.18551 0.68481 0.0
C101 C 0.82341 0.17487 0.50348 0.0
H102 H 0.85721 0.07673 0.70419 0.0
H103 H 0.82746 0.10848 0.67715 0.0
H104 H 0.90688 0.12226 0.62013 0.0
H105 H 0.93523 0.08761 0.64472 0.0
H106 H 0.82041 0.1513 0.66856 0.0
H107 H 0.86784 0.13209 0.58806 0.0
H108 H 0.79533 0.19037 0.58867 0.0
H109 H 0.79195 0.16651 0.5391 0.0
H110 H 0.89007 0.17175 0.56113 0.0
H111 H 0.90271 0.18074 0.51002 0.0
H112 H 0.76358 0.15116 0.67034 0.0
H113 H 0.7888 0.22376 0.62738 0.0
H114 H 0.80466 0.17569 0.48754 0.0
H115 H 0.72639 0.17454 0.70108 0.0
H116 H 0.75036 0.24708 0.65722 0.0
C117 C 0.6642 0.43152 0.17671 0.0
C118 C 0.63181 0.43238 0.18263 0.0
C119 C 0.67703 0.41099 0.16031 0.0
C120 C 0.65773 0.39118 0.14887 0.0
C121 C 0.62542 0.39209 0.15416 0.0
C122 C 0.61263 0.41228 0.17112 0.0
C123 C 0.6715 0.3688 0.1328 0.0
C124 C 0.69357 0.3528 0.14675 0.0
C125 C 0.70523 0.33038 0.1327 0.0
C126 C 0.6958 0.32466 0.10391 0.0
C127 C 0.67433 0.34093 0.08933 0.0
C128 C 0.66179 0.36273 0.10417 0.0
C129 C 0.66469 0.33487 0.05881 0.0
C130 C 0.68724 0.3292 0.03724 0.0
C131 C 0.63288 0.33468 0.05107 0.0
C132 C 0.62376 0.32868 0.02242 0.0
C133 C 0.64629 0.32307 1.0008 0.0
C134 C 0.72556 0.31207 0.14898 0.0
C135 C 0.75357 0.32084 0.16175 0.0
C136 C 0.71613 0.28596 0.15306 0.0
C137 C 0.73427 0.26888 0.16985 0.0
C138 C 0.76272 0.27734 0.18241 0.0
C139 C 0.77214 0.3036 0.17802 0.0
C140 C 0.67814 0.32356 0.00843 0.0
H141 H 0.67976 0.44685 0.18442 0.0
H142 H 0.70205 0.41066 0.15638 0.0
H143 H 0.61018 0.37676 0.14584 0.0
H144 H 0.58773 0.41179 0.17555 0.0
H145 H 0.70051 0.35708 0.16913 0.0
H146 H 0.64493 0.37526 0.0933 0.0
H147 H 0.70482 0.30731 0.09304 0.0
H148 H 0.71195 0.32941 0.04259 0.0
H149 H 0.61501 0.33884 0.06729 0.0
H150 H 0.59906 0.32873 0.01707 0.0
H151 H 0.76123 0.34097 0.15885 0.0
H152 H 0.69429 0.27892 0.14382 0.0
H153 H 0.69596 0.31926 0.99222 0.0
H154 H 0.7941 0.31084 0.18673 0.0
H155 H 0.72568 0.24909 0.1732 0.0
C156 C 0.59149 0.5981 0.6892 0.0
C157 C 0.59899 0.57164 0.68437 0.0
C158 C 0.60585 0.61777 0.67249 0.0
C159 C 0.62724 0.61113 0.6503 0.0
C160 C 0.63472 0.5847 0.64548 0.0
C161 C 0.62096 0.56512 0.66262 0.0
C162 C 0.64051 0.63166 0.63119 0.0
C163 C 0.65942 0.65159 0.64288 0.0
C164 C 0.67137 0.6717 0.62481 0.0
C165 C 0.6632 0.67181 0.59485 0.0
C166 C 0.64466 0.65161 0.58299 0.0
C167 C 0.63373 0.63146 0.6012 0.0
C168 C 0.63542 0.6518 0.55181 0.0
C169 C 0.61815 0.6728 0.54052 0.0
C170 C 0.64157 0.63 0.53392 0.0
C171 C 0.63014 0.62901 0.50525 0.0
C172 C 0.61165 0.64955 0.4941 0.0
C173 C 0.69308 0.6919 0.6371 0.0
C174 C 0.68955 0.70103 0.6661 0.0
C175 C 0.7184 0.7014 0.62036 0.0
C176 C 0.73971 0.71928 0.63235 0.0
C177 C 0.73652 0.72782 0.66149 0.0
C178 C 0.71122 0.71858 0.67824 0.0
C179 C 0.6061 0.6716 0.51208 0.0
H180 H 0.57453 0.60349 0.70581 0.0
H181 H 0.59965 0.6381 0.6763 0.0
H182 H 0.65107 0.57924 0.62836 0.0
H183 H 0.62681 0.54478 0.65836 0.0
H184 H 0.66543 0.65087 0.66594 0.0
H185 H 0.61894 0.61607 0.59222 0.0
H186 H 0.67127 0.68748 0.58064 0.0
H187 H 0.61281 0.68965 0.55414 0.0
H188 H 0.65499 0.61361 0.54226 0.0
H189 H 0.63564 0.61201 0.49199 0.0
H190 H 0.67003 0.69465 0.6795 0.0
H191 H 0.72232 0.69452 0.59819 0.0
H192 H 0.59151 0.68761 0.50471 0.0
H193 H 0.70803 0.72514 0.70065 0.0
H194 H 0.75922 0.72593 0.61904 0.0
C195 C 0.83009 0.817 0.99188 0.0
C196 C 0.86186 0.81394 0.98441 0.0
C197 C 0.82126 0.82217 0.02092 0.0
C198 C 0.84405 0.82452 0.043 0.0
C199 C 0.87565 0.82064 0.03564 0.0
C200 C 0.88445 0.81553 0.00676 0.0
C201 C 0.83547 0.83252 0.07331 0.0
C202 C 0.8095 0.82149 0.08781 0.0
C203 C 0.80199 0.82908 0.11669 0.0
C204 C 0.82081 0.84799 0.13081 0.0
C205 C 0.84677 0.85924 0.11663 0.0
C206 C 0.85369 0.8515 0.08782 0.0
C207 C 0.86652 0.87932 0.13162 0.0
C208 C 0.85288 0.89864 0.14959 0.0
C209 C 0.8992 0.8797 0.12752 0.0
C210 C 0.91759 0.89935 0.14026 0.0
C211 C 0.90382 0.9189 0.15772 0.0
C212 C 0.77458 0.81749 0.13236 0.0
C213 C 0.74619 0.81272 0.11767 0.0
C214 C 0.77634 0.81192 0.16252 0.0
C215 C 0.75025 0.80249 0.17775 0.0
C216 C 0.72172 0.79797 0.16321 0.0
C217 C 0.72012 0.80302 0.13288 0.0
C218 C 0.87135 0.91812 0.16262 0.0
H219 H 0.81207 0.81562 0.97525 0.0
H220 H 0.79672 0.82516 0.02591 0.0
H221 H 0.89375 0.82198 0.05221 0.0
H222 H 0.90916 0.81366 1.00186 0.0
H223 H 0.79568 0.80653 0.07689 0.0
H224 H 0.87298 0.86076 0.0763 0.0
H225 H 0.8152 0.85404 0.15296 0.0
H226 H 0.82778 0.89922 0.15291 0.0
H227 H 0.91062 0.86483 0.11435 0.0
H228 H 0.94262 0.89933 0.13637 0.0
H229 H 0.74389 0.81692 0.09449 0.0
H230 H 0.79795 0.81486 0.17449 0.0
H231 H 0.86005 0.93315 0.17566 0.0
H232 H 0.69877 0.7993 0.12076 0.0
H233 H 0.75244 0.79908 0.20109 0.0
C234 C 0.14116 0.91019 0.3377 0.0
C235 C 0.1269 0.92851 0.35657 0.0
C236 C 0.15896 0.88945 0.34903 0.0
C237 C 0.1633 0.88667 0.3795 0.0
C238 C 0.14894 0.90498 0.39824 0.0
C239 C 0.1307 0.92526 0.38701 0.0
C240 C 0.18252 0.86485 0.39191 0.0
C241 C 0.20939 0.85565 0.37734 0.0
C242 C 0.22763 0.8351 0.38909 0.0
C243 C 0.21903 0.82436 0.41646 0.0
C244 C 0.19308 0.83412 0.43181 0.0
C245 C 0.17456 0.85367 0.41905 0.0
C246 C 0.18565 0.82518 0.4619 0.0
C247 C 0.1804 0.79856 0.46825 0.0
C248 C 0.18169 0.84392 0.48417 0.0
C249 C 0.17137 0.83642 0.51193 0.0
C250 C 0.16456 0.80998 0.51806 0.0
C251 C 0.25576 0.82531 0.37287 0.0
C252 C 0.25622 0.82519 0.34203 0.0
C253 C 0.28243 0.8162 0.38784 0.0
C254 C 0.30855 0.80695 0.37239 0.0
C255 C 0.30901 0.80699 0.34151 0.0
C256 C 0.28253 0.81659 0.32664 0.0
C257 C 0.16969 0.79103 0.49609 0.0
H258 H 0.13904 0.91204 0.31415 0.0
H259 H 0.1692 0.87555 0.33385 0.0
H260 H 0.15202 0.90398 0.42177 0.0
H261 H 0.11954 0.93841 0.40245 0.0
H262 H 0.21664 0.86511 0.3572 0.0
H263 H 0.15375 0.86013 0.43057 0.0
H264 H 0.23263 0.80869 0.42614 0.0
H265 H 0.18329 0.78378 0.45138 0.0
H266 H 0.18581 0.86456 0.47983 0.0
H267 H 0.16726 0.85158 0.52815 0.0
H268 H 0.23609 0.83153 0.32953 0.0
H269 H 0.28338 0.81632 0.41156 0.0
H270 H 0.16476 0.77049 0.50023 0.0
H271 H 0.28195 0.81755 0.30295 0.0
H272 H 0.32815 0.79941 0.38479 0.0
C273 C 0.33554 0.65961 0.98215 0.0
C274 C 0.36738 0.65723 0.9893 0.0
C275 C 0.32645 0.66281 0.95288 0.0
C276 C 0.34914 0.66376 0.93052 0.0
C277 C 0.38098 0.66314 0.93807 0.0
C278 C 0.38999 0.65987 0.96712 0.0
C279 C 0.34 0.66277 0.89925 0.0
C280 C 0.3161 0.67867 0.88817 0.0
C281 C 0.30719 0.67691 0.85852 0.0
C282 C 0.32281 0.65909 0.83995 0.0
C283 C 0.34673 0.64291 0.85089 0.0
C284 C 0.35489 0.64489 0.88059 0.0
C285 C 0.36207 0.62257 0.83239 0.0
C286 C 0.34446 0.60709 0.8129 0.0
C287 C 0.3939 0.61661 0.83647 0.0
C288 C 0.40707 0.59442 0.82351 0.0
C289 C 0.38893 0.57782 0.80559 0.0
C290 C 0.28103 0.6932 0.8473 0.0
C291 C 0.25394 0.69681 0.86435 0.0
C292 C 0.28281 0.7052 0.81958 0.0
C293 C 0.25809 0.72058 0.80923 0.0
C294 C 0.23115 0.72434 0.82645 0.0
C295 C 0.22934 0.71221 0.85407 0.0
C296 C 0.35781 0.58509 0.79948 0.0
H297 H 0.3177 0.65767 0.99892 0.0
H298 H 0.30173 0.66316 0.9476 0.0
H299 H 0.39895 0.66436 0.92132 0.0
H300 H 0.41473 0.65871 0.97219 0.0
H301 H 0.30472 0.69264 0.90259 0.0
H302 H 0.37219 0.63165 0.88965 0.0
H303 H 0.31596 0.65747 0.81716 0.0
H304 H 0.31989 0.61107 0.8092 0.0
H305 H 0.4084 0.62849 0.85079 0.0
H306 H 0.43102 0.5896 0.829 0.0
H307 H 0.25154 0.68743 0.88554 0.0
H308 H 0.30352 0.70305 0.80606 0.0
H309 H 0.34329 0.57325 0.78517 0.0
H310 H 0.20865 0.71432 0.86763 0.0
H311 H 0.26029 0.72989 0.78798 0.0
Zn312 Zn 0.02686 0.14555 0.30649 0.0
Zn313 Zn 0.9752 0.14158 0.20786 0.0
Zn314 Zn 0.00058 0.14252 0.257 0.0
C315 C 0.02506 0.1735 0.19921 0.0
C316 C 0.9899 0.09026 0.21832 0.0
O317 O 0.96764 0.1616 0.28847 0.0
O318 O 0.99753 0.16903 0.32711 0.0
C319 C 0.06865 0.16896 0.26967 0.0
O320 O 0.03057 0.1642 0.22498 0.0
O321 O 0.99919 0.16889 0.18694 0.0
O322 O 0.98324 0.10478 0.19685 0.0
O323 O 0.99583 0.10061 0.24355 0.0
O324 O 0.0679 0.1601 0.29544 0.0
O325 O 0.04513 0.16546 0.25238 0.0
O326 O 0.01087 0.10143 0.27106 0.0
O327 O 0.02581 0.10796 0.3168 0.0
C328 C 0.01979 0.09233 0.29606 0.0
O329 O 0.95329 0.16117 0.2608 0.0
O330 O 0.93189 0.15013 0.21853 0.0
C331 C 0.97146 0.17118 0.31441 0.0
C332 C 0.92948 0.16065 0.24344 0.0
Zn333 Zn 0.53148 0.35078 0.71141 0.0
Zn334 Zn 0.46864 0.3494 0.82828 0.0
Zn335 Zn 0.49901 0.34334 0.75885 0.0
C336 C 0.47248 0.39708 0.79616 0.0
C337 C 0.44062 0.3198 0.77254 0.0
O338 O 0.54421 0.32357 0.76617 0.0
O339 O 0.57073 0.33552 0.72665 0.0
C340 C 0.51641 0.39985 0.72988 0.0
O341 O 0.48327 0.38273 0.77499 0.0
O342 O 0.46649 0.38779 0.82131 0.0
O343 O 0.45167 0.33143 0.79437 0.0
O344 O 0.45688 0.3203 0.74914 0.0
O345 O 0.5291 0.38945 0.7078 0.0
O346 O 0.50487 0.38548 0.75039 0.0
O347 O 0.47278 0.32314 0.72276 0.0
O348 O 0.50522 0.32875 0.68538 0.0
C349 C 0.47997 0.31953 0.69556 0.0
O350 O 0.52832 0.32489 0.79394 0.0
O351 O 0.50889 0.33313 0.83886 0.0
C352 C 0.56954 0.32357 0.75085 0.0
C353 C 0.52956 0.32324 0.82226 0.0
Zn354 Zn 0.01772 0.84366 0.82517 0.0
Zn355 Zn 0.97168 0.86262 0.68911 0.0
Zn356 Zn 0.98792 0.84948 0.73908 0.0
C357 C 0.98686 0.90872 0.71837 0.0
C358 C 0.91936 0.8379 0.71423 0.0
O359 O 0.03014 0.82511 0.7364 0.0
O360 O 0.02312 0.83302 0.7821 0.0
C361 C 0.01138 0.89526 0.79337 0.0
O362 O 0.98874 0.8922 0.73954 0.0
O363 O 0.98211 0.90065 0.69256 0.0
O364 O 0.927 0.85182 0.69243 0.0
O365 O 0.93952 0.83351 0.73463 0.0
O366 O 0.01729 0.88304 0.81734 0.0
O367 O 0.0024 0.88373 0.7692 0.0
O368 O 0.9507 0.82839 0.76264 0.0
O369 O 0.98968 0.83314 0.79162 0.0
C370 C 0.96159 0.82596 0.78845 0.0
O371 O 0.02151 0.8306 0.70795 0.0
O372 O 0.99942 0.83981 0.66544 0.0
C373 C 0.04024 0.82274 0.76253 0.0
C374 C 0.02073 0.82855 0.67979 0.0
Zn375 Zn 0.53931 0.64046 0.20237 0.0
Zn376 Zn 0.45234 0.649 0.2586 0.0
Zn377 Zn 0.50024 0.64679 0.23866 0.0
C378 C 0.4985 0.64018 0.30216 0.0
C379 C 0.46251 0.59737 0.25668 0.0
O380 O 0.47046 0.641 0.20212 0.0
O381 O 0.50796 0.63306 0.17039 0.0
C382 C 0.5486 0.69097 0.22699 0.0
O383 O 0.50826 0.62678 0.27998 0.0
O384 O 0.47478 0.65473 0.29869 0.0
O385 O 0.43991 0.61155 0.24829 0.0
O386 O 0.48971 0.60814 0.26005 0.0
O387 O 0.5579 0.6762 0.2065 0.0
O388 O 0.52611 0.68365 0.24378 0.0
O389 O 0.52498 0.61142 0.25553 0.0
O390 O 0.56142 0.61032 0.22104 0.0
C391 C 0.54947 0.60066 0.244 0.0
O392 O 0.49014 0.68715 0.25364 0.0
O393 O 0.44321 0.6815 0.23521 0.0
C394 C 0.4791 0.63519 0.17624 0.0
C395 C 0.46386 0.69693 0.24534 0.0
H396 H 0.12283 0.97808 0.37976 0.0
H397 H 0.04013 0.05507 0.25628 0.0
H398 H 0.09004 0.93175 0.30641 0.0
H399 H 0.01616 0.06602 0.34738 0.0
H400 H 0.06303 0.01209 0.26882 0.0
H401 H 0.09085 0.01434 0.36306 0.0
C402 C 0.10869 0.97527 0.36033 0.0
C403 C 0.10872 0.95132 0.345 0.0
C404 C 0.052 0.02373 0.28579 0.0
C405 C 0.07276 0.99363 0.32509 0.0
C406 C 0.0387 0.04808 0.27865 0.0
C407 C 0.02634 0.06416 0.30087 0.0
C408 C 0.05344 0.016 0.31532 0.0
C409 C 0.02577 0.05442 0.32963 0.0
C410 C 0.09055 0.99615 0.35072 0.0
C411 C 0.09088 0.94973 0.31902 0.0
N412 N 0.0397 0.03128 0.3361 0.0
N413 N 0.07366 0.97068 0.30976 0.0
H414 H 0.35689 0.53127 0.79943 0.0
H415 H 0.50628 0.44196 0.80496 0.0
H416 H 0.44971 0.56449 0.79067 0.0
H417 H 0.41688 0.41312 0.7753 0.0
H418 H 0.48693 0.48721 0.80002 0.0
H419 H 0.3785 0.488 0.79039 0.0
C420 C 0.38171 0.5297 0.79499 0.0
C421 C 0.40142 0.55184 0.79606 0.0
C422 C 0.47172 0.47099 0.79414 0.0
C423 C 0.42653 0.50178 0.7867 0.0
C424 C 0.48277 0.44532 0.79693 0.0
C425 C 0.46311 0.42416 0.7902 0.0
C426 C 0.44052 0.47523 0.78558 0.0
C427 C 0.43268 0.42915 0.78043 0.0
C428 C 0.39409 0.50481 0.79004 0.0
C429 C 0.4336 0.54806 0.79081 0.0
N430 N 0.42212 0.45421 0.77877 0.0
N431 N 0.44521 0.52348 0.78682 0.0
H432 H 0.62576 0.53344 0.71747 0.0
H433 H 0.48368 0.43877 0.70278 0.0
H434 H 0.53628 0.56171 0.68773 0.0
H435 H 0.55805 0.42473 0.76441 0.0
H436 H 0.49934 0.48518 0.70037 0.0
H437 H 0.59986 0.49469 0.73803 0.0
C438 C 0.60054 0.5316 0.71576 0.0
C439 C 0.58306 0.55053 0.70081 0.0
C440 C 0.51171 0.47212 0.71504 0.0
C441 C 0.55333 0.50617 0.72362 0.0
C442 C 0.50274 0.44575 0.7164 0.0
C443 C 0.51972 0.42823 0.73378 0.0
C444 C 0.53847 0.48056 0.73039 0.0
C445 C 0.54445 0.43786 0.75081 0.0
C446 C 0.58573 0.50959 0.72756 0.0
C447 C 0.55046 0.54742 0.69915 0.0
N448 N 0.55352 0.46332 0.74826 0.0
N449 N 0.53666 0.52532 0.70988 0.0
H450 H 0.94678 0.94837 0.1281 0.0
H451 H 0.96846 0.05318 0.25721 0.0
H452 H 0.90391 0.93987 0.21326 0.0
H453 H 0.00402 0.06266 0.16932 0.0
H454 H 0.95285 0.00801 0.24493 0.0
H455 H 0.97512 0.98686 0.14583 0.0
C456 C 0.94374 0.95439 0.15072 0.0
C457 C 0.92291 0.94098 0.16922 0.0
C458 C 0.96459 0.01984 0.22852 0.0
C459 C 0.95514 0.98525 0.18972 0.0
C460 C 0.97378 0.04548 0.23563 0.0
C461 C 0.98737 0.06162 0.21417 0.0
C462 C 0.96903 0.01047 0.19978 0.0
C463 C 0.99337 0.05088 0.18642 0.0
C464 C 0.95984 0.97645 0.16083 0.0
C465 C 0.9195 0.94988 0.19821 0.0
N466 N 0.98388 0.02612 0.17994 0.0
N467 N 0.93533 0.97156 0.20755 0.0
H468 H 0.87368 0.03522 0.70366 0.0
H469 H 0.9547 0.93343 0.76192 0.0
H470 H 0.96283 0.07151 0.68323 0.0
H471 H 0.01213 0.94831 0.68591 0.0
H472 H 0.93706 0.97923 0.76062 0.0
H473 H 0.90114 -0.00178 0.72444 0.0
C474 C 0.89898 0.03596 0.70411 0.0
C475 C 0.9157 0.05697 0.69145 0.0
C476 C 0.95412 0.97258 0.7447 0.0
C477 C 0.94744 0.01366 0.71487 0.0
C478 C 0.9645 0.94661 0.74566 0.0
C479 C 0.98458 0.93715 0.72378 0.0
C480 C 0.96395 0.98897 0.72166 0.0
C481 C 0.99633 0.95491 0.70296 0.0
C482 C 0.91468 0.01461 0.71609 0.0
C483 C 0.94867 0.05571 0.69197 0.0
N484 N 0.98551 0.97996 0.70215 0.0
N485 N 0.96343 0.03415 0.70284 0.0
H486 H 0.65857 0.46055 0.2282 0.0
H487 H 0.51325 0.55759 0.24066 0.0
H488 H 0.57343 0.45486 0.17732 0.0
H489 H 0.60756 0.58264 0.25874 0.0
H490 H 0.53164 0.51275 0.23423 0.0
H491 H 0.63705 0.499 0.25321 0.0
C492 C 0.6354 0.46719 0.22222 0.0
C493 C 0.6181 0.45441 0.20009 0.0
C494 C 0.5482 0.52783 0.24069 0.0
C495 C 0.59296 0.49783 0.22974 0.0
C496 C 0.53751 0.55334 0.24525 0.0
C497 C 0.55869 0.57367 0.25134 0.0
C498 C 0.58043 0.5227 0.24176 0.0
C499 C 0.59044 0.56735 0.25463 0.0
C500 C 0.62306 0.489 0.23683 0.0
C501 C 0.58772 0.46363 0.19428 0.0
N502 N 0.60048 0.54242 0.24944 0.0
N503 N 0.57625 0.48476 0.2089 0.0
H504 H 0.43995 0.45753 0.36185 0.0
H505 H 0.41808 0.56413 0.23544 0.0
H506 H 0.37715 0.44793 0.28849 0.0
H507 H 0.49208 0.56892 0.29948 0.0
H508 H 0.40419 0.52068 0.25396 0.0
H509 H 0.4611 0.49724 0.33881 0.0
C510 C 0.43082 0.46357 0.34077 0.0
C511 C 0.4064 0.44949 0.3273 0.0
C512 C 0.42368 0.53104 0.26384 0.0
C513 C 0.43028 0.49512 0.30099 0.0
C514 C 0.43157 0.55587 0.25327 0.0
C515 C 0.45625 0.57007 0.26594 0.0
C516 C 0.44024 0.52043 0.28763 0.0
C517 C 0.47298 0.5585 0.28902 0.0
C518 C 0.44284 0.48632 0.32769 0.0
C519 C 0.3954 0.45844 0.30008 0.0
N520 N 0.4645 0.53441 0.29932 0.0
N521 N 0.40723 0.48072 0.28799 0.0
H522 H 0.12757 0.02585 0.81678 0.0
H523 H 0.9854 0.9329 0.82792 0.0
H524 H 0.03629 0.05914 0.83401 0.0
H525 H 0.05354 0.92128 0.75945 0.0
H526 H 0.00382 0.9784 0.83356 0.0
H527 H 0.10221 0.98638 0.79834 0.0
C528 C 0.10225 0.02527 0.81632 0.0
C529 C 0.08425 0.0462 0.82732 0.0
C530 C 0.01426 0.96604 0.81689 0.0
C531 C 0.05515 0.00019 0.80706 0.0
C532 C 0.00382 0.94019 0.81372 0.0
C533 C 0.01797 0.9236 0.79313 0.0
C534 C 0.03983 0.97486 0.80017 0.0
C535 C 0.04197 0.93368 0.7754 0.0
C536 C 0.08782 0.00252 0.80585 0.0
C537 C 0.0514 0.04346 0.82667 0.0
N538 N 0.05266 0.95856 0.77974 0.0
N539 N 0.03794 0.02072 0.81725 0.0
H540 H 0.16064 0.16048 0.06692 0.0
H541 H 0.01927 0.2144 0.16168 0.0
H542 H 0.0913 0.21529 0.03618 0.0
H543 H 0.08631 0.15876 0.19469 0.0
H544 H 0.05376 0.22347 0.12028 0.0
H545 H 0.14154 0.16688 0.11716 0.0
C546 C 0.14181 0.17424 0.07085 0.0
C547 C 0.12713 0.18705 0.04737 0.0
C548 C 0.0614 0.20971 0.13685 0.0
C549 C 0.10516 0.19441 0.10457 0.0
C550 C 0.04182 0.20474 0.16065 0.0
C551 C 0.04988 0.18562 0.18133 0.0
C552 C 0.08888 0.19493 0.13334 0.0
C553 C 0.07929 0.17363 0.17909 0.0
C554 C 0.13087 0.17785 0.09949 0.0
C555 C 0.1028 0.2046 0.0536 0.0
N556 N 0.09744 0.17795 0.15499 0.0
N557 N 0.09238 0.20753 0.08152 0.0
H558 H 0.41639 0.27286 0.52718 0.0
H559 H 0.4161 0.32476 0.69271 0.0
H560 H 0.34618 0.32513 0.56188 0.0
H561 H 0.49454 0.28801 0.64976 0.0
H562 H 0.3836 0.3149 0.64953 0.0
H563 H 0.43853 0.26854 0.57624 0.0
C564 C 0.40546 0.28326 0.5452 0.0
C565 C 0.37975 0.29976 0.54031 0.0
C566 C 0.40773 0.30846 0.64991 0.0
C567 C 0.40495 0.29485 0.59668 0.0
C568 C 0.42615 0.31382 0.67464 0.0
C569 C 0.45804 0.30734 0.67459 0.0
C570 C 0.42139 0.29635 0.6253 0.0
C571 C 0.47008 0.2935 0.65052 0.0
C572 C 0.41803 0.28071 0.57324 0.0
C573 C 0.36607 0.31225 0.56463 0.0
N574 N 0.45187 0.28872 0.62675 0.0
N575 N 0.37911 0.30984 0.59172 0.0
H576 H 0.6696 0.34304 0.94931 0.0
H577 H 0.53026 0.28029 0.85672 0.0
H578 H 0.6003 0.28924 0.98319 0.0
H579 H 0.58863 0.34306 0.82464 0.0
H580 H 0.56601 0.27426 0.89789 0.0
H581 H 0.64918 0.33561 0.89969 0.0
C582 C 0.65042 0.32935 0.94622 0.0
C583 C 0.63633 0.31697 0.97039 0.0
C584 C 0.57163 0.28885 0.88144 0.0
C585 C 0.61302 0.30829 0.91384 0.0
C586 C 0.55151 0.29195 0.85766 0.0
C587 C 0.55674 0.31207 0.8373 0.0
C588 C 0.59677 0.30639 0.88515 0.0
C589 C 0.58411 0.32713 0.83979 0.0
C590 C 0.63876 0.32515 0.91794 0.0
C591 C 0.61147 0.29953 0.96522 0.0
N592 N 0.6028 0.32443 0.86376 0.0
N593 N 0.6005 0.29586 0.93758 0.0
H594 H 0.83426 0.15287 0.44572 0.0
H595 H 0.97177 0.21351 0.3503 0.0
H596 H 0.89435 0.21645 0.47328 0.0
H597 H 0.91231 0.15091 0.31931 0.0
H598 H 0.93541 0.22139 0.39054 0.0
H599 H 0.85477 0.1574 0.39568 0.0
C600 C 0.85129 0.16812 0.4411 0.0
C601 C 0.86302 0.18404 0.46374 0.0
C602 C 0.9298 0.20628 0.37466 0.0
C603 C 0.88663 0.18926 0.40674 0.0
C604 C 0.95045 0.20196 0.35153 0.0
C605 C 0.94508 0.18142 0.33172 0.0
C606 C 0.90397 0.18946 0.37847 0.0
C607 C 0.9172 0.16697 0.33422 0.0
C608 C 0.86305 0.17065 0.41257 0.0
C609 C 0.88515 0.20341 0.4566 0.0
N610 N 0.89799 0.17081 0.3577 0.0
N611 N 0.89645 0.20527 0.42886 0.0
H612 H 0.90871 0.78241 0.96338 0.0
H613 H 0.89834 0.83307 0.79747 0.0
H614 H 0.83818 0.8372 0.93464 0.0
H615 H 0.98194 0.80289 0.83809 0.0
H616 H 0.86995 0.82619 0.844 0.0
H617 H 0.92964 0.78119 0.91368 0.0
C618 C 0.8975 0.79411 0.94661 0.0
C619 C 0.87195 0.8103 0.95342 0.0
C620 C 0.89442 0.82082 0.84249 0.0
C621 C 0.89561 0.80863 0.89618 0.0
C622 C 0.9105 0.82458 0.81599 0.0
C623 C 0.94252 0.81873 0.81417 0.0
C624 C 0.91047 0.8107 0.86689 0.0
C625 C 0.95732 0.80791 0.83874 0.0
C626 C 0.9094 0.7933 0.91819 0.0
C627 C 0.85787 0.8244 0.93046 0.0
N628 N 0.94123 0.8043 0.86405 0.0
N629 N 0.87006 0.82343 0.90288 0.0
H630 H 0.59894 0.68943 0.4551 0.0
H631 H 0.53748 0.60195 0.32369 0.0
H632 H 0.59108 0.6052 0.46486 0.0
H633 H 0.49752 0.67742 0.3446 0.0
H634 H 0.5667 0.6034 0.37024 0.0
H635 H 0.57131 0.68613 0.40852 0.0
C636 C 0.59143 0.67024 0.44766 0.0
C637 C 0.59715 0.64761 0.46442 0.0
C638 C 0.55136 0.6195 0.36454 0.0
C639 C 0.56643 0.64377 0.41041 0.0
C640 C 0.53475 0.61869 0.33813 0.0
C641 C 0.51488 0.63948 0.33055 0.0
C642 C 0.54866 0.64158 0.38282 0.0
C643 C 0.51229 0.66084 0.34983 0.0
C644 C 0.57583 0.66842 0.42093 0.0
C645 C 0.58767 0.62322 0.45277 0.0
N646 N 0.52924 0.66146 0.37494 0.0
N647 N 0.57282 0.62193 0.42644 0.0
H648 H 0.34925 0.67931 0.04171 0.0
H649 H 0.48438 0.60492 0.12776 0.0
H650 H 0.40805 0.619 0.00481 0.0
H651 H 0.42259 0.66003 0.17014 0.0
H652 H 0.45157 0.60615 0.0843 0.0
H653 H 0.37082 0.66949 0.09046 0.0
C654 C 0.36639 0.66382 0.04398 0.0
C655 C 0.37742 0.65029 0.01927 0.0
C656 C 0.44482 0.61779 0.10314 0.0
C657 C 0.40197 0.63894 0.07449 0.0
C658 C 0.46358 0.61705 0.12797 0.0
C659 C 0.4563 0.63261 0.15232 0.0
C660 C 0.41886 0.63465 0.10238 0.0
C661 C 0.42894 0.64778 0.15167 0.0
C662 C 0.37869 0.65824 0.0717 0.0
C663 C 0.39951 0.63034 0.02325 0.0
N664 N 0.41142 0.64881 0.12679 0.0
N665 N 0.41122 0.62544 0.05025 0.0
H666 H 0.11466 0.77707 0.52679 0.0
H667 H 0.08406 0.83112 0.68857 0.0
H668 H 0.17886 0.8276 0.57342 0.0
H669 H 0.01365 0.79695 0.63254 0.0
H670 H 0.12434 0.81846 0.65273 0.0
H671 H 0.08342 0.77272 0.57141 0.0
C672 C 0.12265 0.78672 0.5466 0.0
C673 C 0.14918 0.80304 0.54625 0.0
C674 C 0.10016 0.81317 0.64867 0.0
C675 C 0.11318 0.79852 0.59728 0.0
C676 C 0.07727 0.82015 0.66922 0.0
C677 C 0.04562 0.81517 0.66326 0.0
C678 C 0.09113 0.80105 0.62225 0.0
C679 C 0.03786 0.80129 0.63773 0.0
C680 C 0.10465 0.7844 0.57203 0.0
C681 C 0.1582 0.81526 0.57258 0.0
N682 N 0.06041 0.79496 0.618 0.0
N683 N 0.14 0.81305 0.59693 0.0
H684 H 0.17974 0.29619 0.31343 0.0
H685 H 0.12931 0.15418 0.2684 0.0
H686 H 0.24665 0.23402 0.29936 0.0
H687 H 0.06922 0.22086 0.25549 0.0
H688 H 0.17415 0.18374 0.27324 0.0
H689 H 0.14046 0.27043 0.28728 0.0
C690 C 0.18642 0.27733 0.30448 0.0
C691 C 0.21658 0.26716 0.30913 0.0
C692 C 0.15139 0.192 0.26848 0.0
C693 C 0.17129 0.23729 0.27946 0.0
C694 C 0.12587 0.17508 0.26544 0.0
C695 C 0.09573 0.1852 0.26148 0.0
C696 C 0.14648 0.21926 0.26856 0.0
C697 C 0.09224 0.21238 0.25831 0.0
C698 C 0.16387 0.26258 0.28953 0.0
C699 C 0.22353 0.24241 0.29716 0.0
N700 N 0.11723 0.22859 0.26268 0.0
N701 N 0.20097 0.22821 0.28329 0.0
H702 H 0.27855 0.26322 0.85979 0.0
H703 H 0.41197 0.28138 0.73794 0.0
H704 H 0.28233 0.21377 0.78287 0.0
H705 H 0.39903 0.32924 0.81525 0.0
H706 H 0.36291 0.25778 0.75032 0.0
H707 H 0.32125 0.2891 0.84043 0.0
C708 C 0.28804 0.25798 0.83855 0.0
C709 C 0.27657 0.23631 0.82291 0.0
C710 C 0.37093 0.27362 0.7643 0.0
C711 C 0.32667 0.26572 0.80068 0.0
C712 C 0.39873 0.28709 0.75718 0.0
C713 C 0.4098 0.30699 0.7758 0.0
C714 C 0.3545 0.28036 0.79005 0.0
C715 C 0.39178 0.31375 0.80041 0.0
C716 C 0.31277 0.27271 0.82753 0.0
C717 C 0.29065 0.23016 0.79583 0.0
N718 N 0.36537 0.30039 0.80684 0.0
N719 N 0.31513 0.24474 0.78558 0.0
H720 H 0.67748 0.19673 0.70109 0.0
H721 H 0.63038 0.33825 0.75336 0.0
H722 H 0.74283 0.26138 0.70697 0.0
H723 H 0.56952 0.27121 0.76268 0.0
H724 H 0.67461 0.30888 0.74554 0.0
H725 H 0.64023 0.22167 0.73055 0.0
C726 C 0.68422 0.21603 0.70888 0.0
C727 C 0.71324 0.2271 0.7011 0.0
C728 C 0.65182 0.30044 0.75011 0.0
C729 C 0.67044 0.25591 0.73471 0.0
C730 C 0.62666 0.31724 0.75492 0.0
C731 C 0.59641 0.30704 0.75846 0.0
C732 C 0.64643 0.27328 0.74799 0.0
C733 C 0.59261 0.27975 0.76007 0.0
C734 C 0.66288 0.23027 0.72574 0.0
C735 C 0.72045 0.25229 0.7117 0.0
N736 N 0.61723 0.26374 0.75398 0.0
N737 N 0.69908 0.26592 0.72764 0.0
H738 H 0.77002 0.22435 0.17326 0.0
H739 H 0.92224 0.20955 0.26786 0.0
H740 H 0.80196 0.28725 0.22959 0.0
H741 H 0.87063 0.14442 0.23148 0.0
H742 H 0.87636 0.23778 0.26012 0.0
H743 H 0.80449 0.19447 0.19862 0.0
C744 C 0.78382 0.23194 0.19128 0.0
C745 C 0.78288 0.25862 0.19905 0.0
C746 C 0.87478 0.21712 0.25468 0.0
C747 C 0.8237 0.22416 0.22789 0.0
C748 C 0.90083 0.20097 0.2594 0.0
C749 C 0.90022 0.17479 0.24984 0.0
C750 C 0.84834 0.20685 0.2402 0.0
C751 C 0.8721 0.16464 0.23875 0.0
C752 C 0.80377 0.21474 0.20576 0.0
C753 C 0.80227 0.26706 0.22223 0.0
N754 N 0.84753 0.18077 0.2337 0.0
N755 N 0.8222 0.24998 0.23555 0.0
H756 H 0.76819 0.72338 0.71355 0.0
H757 H 0.8682 0.85368 0.68393 0.0
H758 H 0.75777 0.77384 0.63835 0.0
H759 H 0.89911 0.79369 0.74398 0.0
H760 H 0.82016 0.82908 0.67564 0.0
H761 H 0.80943 0.75277 0.73231 0.0
C762 C 0.77435 0.74081 0.70121 0.0
C763 C 0.7598 0.74616 0.67427 0.0
C764 C 0.83725 0.82134 0.69086 0.0
C765 C 0.80647 0.77977 0.6956 0.0
C766 C 0.86469 0.83544 0.6957 0.0
C767 C 0.888 0.82547 0.71424 0.0
C768 C 0.83295 0.79694 0.70449 0.0
C769 C 0.88185 0.80197 0.7293 0.0
C770 C 0.79788 0.75747 0.71185 0.0
C771 C 0.76868 0.76886 0.65902 0.0
N772 N 0.85503 0.78823 0.72376 0.0
N773 N 0.79142 0.78478 0.66988 0.0
H774 H 0.72068 0.76231 0.20847 0.0
H775 H 0.53908 0.73664 0.19799 0.0
H776 H 0.65929 0.80984 0.1554 0.0
H777 H 0.59867 0.69979 0.26176 0.0
H778 H 0.58028 0.76903 0.18817 0.0
H779 H 0.67517 0.74385 0.23313 0.0
C780 C 0.69769 0.76921 0.20221 0.0
C781 C 0.69401 0.78757 0.1795 0.0
C782 C 0.58404 0.75444 0.20506 0.0
C783 C 0.64138 0.76591 0.2075 0.0
C784 C 0.56031 0.73623 0.21097 0.0
C785 C 0.56547 0.71582 0.23095 0.0
C786 C 0.61335 0.75169 0.21871 0.0
C787 C 0.5937 0.71553 0.24652 0.0
C788 C 0.6716 0.75855 0.21633 0.0
C789 C 0.66339 0.79529 0.17223 0.0
N790 N 0.61687 0.73283 0.23964 0.0
N791 N 0.63829 0.78421 0.18592 0.0
H792 H 0.30858 0.78155 0.28829 0.0
H793 H 0.47705 0.72342 0.29629 0.0
H794 H 0.37212 0.80731 0.35632 0.0
H795 H 0.4243 0.72893 0.21603 0.0
H796 H 0.44257 0.75655 0.31838 0.0
H797 H 0.35243 0.76342 0.26161 0.0
C798 C 0.33175 0.7839 0.29754 0.0
C799 C 0.33631 0.79629 0.32476 0.0
C800 C 0.43923 0.75114 0.29563 0.0
C801 C 0.38711 0.7744 0.29428 0.0
C802 C 0.45916 0.73248 0.28289 0.0
C803 C 0.45323 0.72326 0.2544 0.0
C804 C 0.41324 0.76025 0.27972 0.0
C805 C 0.42943 0.73534 0.23817 0.0
C806 C 0.35693 0.77333 0.2822 0.0
C807 C 0.36714 0.79761 0.33574 0.0
N808 N 0.40989 0.75274 0.25124 0.0
N809 N 0.3913 0.78651 0.32065 0.0
H810 H 0.19754 0.76053 0.85744 0.0
H811 H 0.07822 0.79297 0.72695 0.0
H812 H 0.20509 0.72584 0.77136 0.0
H813 H 0.06987 0.82269 0.81524 0.0
H814 H 0.12672 0.77056 0.74112 0.0
H815 H 0.15264 0.7858 0.84077 0.0
C816 C 0.18968 0.75819 0.83501 0.0
C817 C 0.20491 0.74084 0.81586 0.0
C818 C 0.1143 0.78209 0.75731 0.0
C819 C 0.15346 0.76992 0.79646 0.0
C820 C 0.08672 0.79495 0.7492 0.0
C821 C 0.07002 0.8097 0.76995 0.0
C822 C 0.12514 0.78408 0.78634 0.0
C823 C 0.08187 0.81143 0.79855 0.0
C824 C 0.16409 0.77272 0.82544 0.0
C825 C 0.19411 0.73906 0.78683 0.0
N826 N 0.10861 0.79876 0.80588 0.0
N827 N 0.1689 0.7533 0.77804 0.0
loop_
_geom_bond_atom_site_label_1
_geom_bond_atom_site_label_2
_geom_bond_distance
_geom_bond_site_symmetry_2
_ccdc_geom_bond_type
C0 C1 1.386 . S
C0 C2 1.397 . S
C0 H24 0.931 . S
C1 C0 1.386 . S
C1 C5 1.397 . S
C2 C0 1.397 . S
C2 C3 1.384 . S
C2 H25 0.930 . S
C3 C2 1.384 . S
C3 C4 1.377 . S
C3 C6 1.481 . S
C4 C3 1.377 . S
C4 C5 1.389 . S
C4 H26 0.929 . S
C5 C1 1.397 . S
C5 C4 1.389 . S
C5 H27 0.931 . S
C6 C3 1.481 . S
C6 C7 1.387 . S
C6 C11 1.390 . S
C7 C6 1.387 . S
C7 C8 1.401 . S
C7 H28 0.930 . S
C8 C7 1.401 . S
C8 C9 1.376 . S
C8 C17 1.511 . S
C9 C8 1.376 . S
C9 C10 1.392 . S
C9 H30 0.931 . S
C10 C9 1.392 . S
C10 C11 1.361 . S
C10 C12 1.500 . S
C11 C6 1.390 . S
C11 C10 1.361 . S
C11 H29 0.931 . S
C12 C10 1.500 . S
C12 C13 1.371 . S
C12 C14 1.365 . S
C13 C12 1.371 . S
C13 C23 1.386 . S
C13 H31 0.931 . S
C14 C12 1.365 . S
C14 C15 1.409 . S
C14 H32 0.929 . S
C15 C14 1.409 . S
C15 C16 1.380 . S
C15 H33 0.930 . S
C16 C15 1.380 . S
C16 C23 1.357 . S
C17 C8 1.511 . S
C17 C18 1.341 . S
C17 C19 1.371 . S
C18 C17 1.341 . S
C18 C22 1.394 . S
C18 H34 0.930 . S
C19 C17 1.371 . S
C19 C20 1.392 . S
C19 H35 0.931 . S
C20 C19 1.392 . S
C20 C21 1.331 . S
C20 H38 0.932 . S
C21 C20 1.331 . S
C21 C22 1.336 . S
C22 C18 1.394 . S
C22 C21 1.336 . S
C22 H37 0.929 . S
C23 C13 1.386 . S
C23 C16 1.357 . S
C23 H36 0.928 . S
H24 C0 0.931 . S
H25 C2 0.930 . S
H26 C4 0.929 . S
H27 C5 0.931 . S
H28 C7 0.930 . S
H29 C11 0.931 . S
H30 C9 0.931 . S
H31 C13 0.931 . S
H32 C14 0.929 . S
H33 C15 0.930 . S
H34 C18 0.930 . S
H35 C19 0.931 . S
H36 C23 0.928 . S
H37 C22 0.929 . S
H38 C20 0.932 . S
C39 C40 1.386 . S
C39 C41 1.397 . S
C39 H63 0.931 . S
C40 C39 1.386 . S
C40 C44 1.397 . S
C41 C39 1.397 . S
C41 C42 1.384 . S
C41 H64 0.930 . S
C42 C41 1.384 . S
C42 C43 1.377 . S
C42 C45 1.481 . S
C43 C42 1.377 . S
C43 C44 1.389 . S
C43 H65 0.929 . S
C44 C40 1.397 . S
C44 C43 1.389 . S
C44 H66 0.931 . S
C45 C42 1.481 . S
C45 C46 1.387 . S
C45 C50 1.390 . S
C46 C45 1.387 . S
C46 C47 1.401 . S
C46 H67 0.930 . S
C47 C46 1.401 . S
C47 C48 1.376 . S
C47 C56 1.511 . S
C48 C47 1.376 . S
C48 C49 1.392 . S
C48 H69 0.931 . S
C49 C48 1.392 . S
C49 C50 1.361 . S
C49 C51 1.500 . S
C50 C45 1.390 . S
C50 C49 1.361 . S
C50 H68 0.931 . S
C51 C49 1.500 . S
C51 C52 1.371 . S
C51 C53 1.365 . S
C52 C51 1.371 . S
C52 C62 1.386 . S
C52 H70 0.931 . S
C53 C51 1.365 . S
C53 C54 1.409 . S
C53 H71 0.929 . S
C54 C53 1.409 . S
C54 C55 1.380 1_556 S
C54 H72 0.930 . S
C55 C54 1.380 1_554 S
C55 C62 1.357 1_554 S
C56 C47 1.511 . S
C56 C57 1.341 . S
C56 C58 1.371 . S
C57 C56 1.341 . S
C57 C61 1.394 . S
C57 H73 0.930 . S
C58 C56 1.371 . S
C58 C59 1.392 . S
C58 H74 0.931 . S
C59 C58 1.392 . S
C59 C60 1.331 . S
C59 H77 0.932 . S
C60 C59 1.331 . S
C60 C61 1.336 . S
C61 C57 1.394 . S
C61 C60 1.336 . S
C61 H76 0.929 . S
C62 C52 1.386 . S
C62 C55 1.357 1_556 S
C62 H75 0.928 1_556 S
H63 C39 0.931 . S
H64 C41 0.930 . S
H65 C43 0.929 . S
H66 C44 0.931 . S
H67 C46 0.930 . S
H68 C50 0.931 . S
H69 C48 0.931 . S
H70 C52 0.931 . S
H71 C53 0.929 . S
H72 C54 0.930 . S
H73 C57 0.930 . S
H74 C58 0.931 . S
H75 C62 0.928 1_554 S
H76 C61 0.929 . S
H77 C59 0.932 . S
C78 C79 1.386 . S
C78 C80 1.397 . S
C78 H102 0.931 . S
C79 C78 1.386 . S
C79 C83 1.397 . S
C80 C78 1.397 . S
C80 C81 1.384 . S
C80 H103 0.930 . S
C81 C80 1.384 . S
C81 C82 1.377 . S
C81 C84 1.481 . S
C82 C81 1.377 . S
C82 C83 1.389 . S
C82 H104 0.929 . S
C83 C79 1.397 . S
C83 C82 1.389 . S
C83 H105 0.931 . S
C84 C81 1.481 . S
C84 C85 1.387 . S
C84 C89 1.390 . S
C85 C84 1.387 . S
C85 C86 1.401 . S
C85 H106 0.930 . S
C86 C85 1.401 . S
C86 C87 1.376 . S
C86 C95 1.511 . S
C87 C86 1.376 . S
C87 C88 1.392 . S
C87 H108 0.931 . S
C88 C87 1.392 . S
C88 C89 1.361 . S
C88 C90 1.500 . S
C89 C84 1.390 . S
C89 C88 1.361 . S
C89 H107 0.931 . S
C90 C88 1.500 . S
C90 C91 1.371 . S
C90 C92 1.365 . S
C91 C90 1.371 . S
C91 C101 1.386 . S
C91 H109 0.931 . S
C92 C90 1.365 . S
C92 C93 1.409 . S
C92 H110 0.929 . S
C93 C92 1.409 . S
C93 C94 1.380 . S
C93 H111 0.930 . S
C94 C93 1.380 . S
C94 C101 1.357 . S
C95 C86 1.511 . S
C95 C96 1.341 . S
C95 C97 1.371 . S
C96 C95 1.341 . S
C96 C100 1.394 . S
C96 H112 0.930 . S
C97 C95 1.371 . S
C97 C98 1.392 . S
C97 H113 0.931 . S
C98 C97 1.392 . S
C98 C99 1.331 . S
C98 H116 0.932 . S
C99 C98 1.331 . S
C99 C100 1.336 . S
C100 C96 1.394 . S
C100 C99 1.336 . S
C100 H115 0.929 . S
C101 C91 1.386 . S
C101 C94 1.357 . S
C101 H114 0.928 . S
H102 C78 0.931 . S
H103 C80 0.930 . S
H104 C82 0.929 . S
H105 C83 0.931 . S
H106 C85 0.930 . S
H107 C89 0.931 . S
H108 C87 0.931 . S
H109 C91 0.931 . S
H110 C92 0.929 . S
H111 C93 0.930 . S
H112 C96 0.930 . S
H113 C97 0.931 . S
H114 C101 0.928 . S
H115 C100 0.929 . S
H116 C98 0.932 . S
C117 C118 1.386 . S
C117 C119 1.397 . S
C117 H141 0.931 . S
C118 C117 1.386 . S
C118 C122 1.397 . S
C119 C117 1.397 . S
C119 C120 1.384 . S
C119 H142 0.930 . S
C120 C119 1.384 . S
C120 C121 1.377 . S
C120 C123 1.481 . S
C121 C120 1.377 . S
C121 C122 1.389 . S
C121 H143 0.929 . S
C122 C118 1.397 . S
C122 C121 1.389 . S
C122 H144 0.931 . S
C123 C120 1.481 . S
C123 C124 1.387 . S
C123 C128 1.390 . S
C124 C123 1.387 . S
C124 C125 1.401 . S
C124 H145 0.930 . S
C125 C124 1.401 . S
C125 C126 1.376 . S
C125 C134 1.511 . S
C126 C125 1.376 . S
C126 C127 1.392 . S
C126 H147 0.931 . S
C127 C126 1.392 . S
C127 C128 1.361 . S
C127 C129 1.500 . S
C128 C123 1.390 . S
C128 C127 1.361 . S
C128 H146 0.931 . S
C129 C127 1.500 . S
C129 C130 1.371 . S
C129 C131 1.365 . S
C130 C129 1.371 . S
C130 C140 1.386 . S
C130 H148 0.931 . S
C131 C129 1.365 . S
C131 C132 1.409 . S
C131 H149 0.929 . S
C132 C131 1.409 . S
C132 C133 1.380 1_554 S
C132 H150 0.930 . S
C133 C132 1.380 1_556 S
C133 C140 1.357 1_556 S
C134 C125 1.511 . S
C134 C135 1.341 . S
C134 C136 1.371 . S
C135 C134 1.341 . S
C135 C139 1.394 . S
C135 H151 0.930 . S
C136 C134 1.371 . S
C136 C137 1.392 . S
C136 H152 0.931 . S
C137 C136 1.392 . S
C137 C138 1.331 . S
C137 H155 0.932 . S
C138 C137 1.331 . S
C138 C139 1.336 . S
C139 C135 1.394 . S
C139 C138 1.336 . S
C139 H154 0.929 . S
C140 C130 1.386 . S
C140 C133 1.357 1_554 S
C140 H153 0.928 1_554 S
H141 C117 0.931 . S
H142 C119 0.930 . S
H143 C121 0.929 . S
H144 C122 0.931 . S
H145 C124 0.930 . S
H146 C128 0.931 . S
H147 C126 0.931 . S
H148 C130 0.931 . S
H149 C131 0.929 . S
H150 C132 0.930 . S
H151 C135 0.930 . S
H152 C136 0.931 . S
H153 C140 0.928 1_556 S
H154 C139 0.929 . S
H155 C137 0.932 . S
C156 C157 1.386 . S
C156 C158 1.397 . S
C156 H180 0.931 . S
C157 C156 1.386 . S
C157 C161 1.397 . S
C158 C156 1.397 . S
C158 C159 1.384 . S
C158 H181 0.930 . S
C159 C158 1.384 . S
C159 C160 1.377 . S
C159 C162 1.481 . S
C160 C159 1.377 . S
C160 C161 1.389 . S
C160 H182 0.929 . S
C161 C157 1.397 . S
C161 C160 1.389 . S
C161 H183 0.931 . S
C162 C159 1.481 . S
C162 C163 1.387 . S
C162 C167 1.390 . S
C163 C162 1.387 . S
C163 C164 1.401 . S
C163 H184 0.930 . S
C164 C163 1.401 . S
C164 C165 1.376 . S
C164 C173 1.511 . S
C165 C164 1.376 . S
C165 C166 1.392 . S
C165 H186 0.931 . S
C166 C165 1.392 . S
C166 C167 1.361 . S
C166 C168 1.500 . S
C167 C162 1.390 . S
C167 C166 1.361 . S
C167 H185 0.931 . S
C168 C166 1.500 . S
C168 C169 1.371 . S
C168 C170 1.365 . S
C169 C168 1.371 . S
C169 C179 1.386 . S
C169 H187 0.931 . S
C170 C168 1.365 . S
C170 C171 1.409 . S
C170 H188 0.929 . S
C171 C170 1.409 . S
C171 C172 1.380 . S
C171 H189 0.930 . S
C172 C171 1.380 . S
C172 C179 1.357 . S
C173 C164 1.511 . S
C173 C174 1.341 . S
C173 C175 1.371 . S
C174 C173 1.341 . S
C174 C178 1.394 . S
C174 H190 0.930 . S
C175 C173 1.371 . S
C175 C176 1.392 . S
C175 H191 0.931 . S
C176 C175 1.392 . S
C176 C177 1.331 . S
C176 H194 0.932 . S
C177 C176 1.331 . S
C177 C178 1.336 . S
C178 C174 1.394 . S
C178 C177 1.336 . S
C178 H193 0.929 . S
C179 C169 1.386 . S
C179 C172 1.357 . S
C179 H192 0.928 . S
H180 C156 0.931 . S
H181 C158 0.930 . S
H182 C160 0.929 . S
H183 C161 0.931 . S
H184 C163 0.930 . S
H185 C167 0.931 . S
H186 C165 0.931 . S
H187 C169 0.931 . S
H188 C170 0.929 . S
H189 C171 0.930 . S
H190 C174 0.930 . S
H191 C175 0.931 . S
H192 C179 0.928 . S
H193 C178 0.929 . S
H194 C176 0.932 . S
C195 C196 1.384 1_554 S
C195 C197 1.407 . S
C195 H219 0.922 1_554 S
C196 C195 1.384 1_556 S
C196 C200 1.397 1_556 S
C197 C195 1.407 . S
C197 C198 1.384 . S
C197 H220 0.930 . S
C198 C197 1.384 . S
C198 C199 1.377 . S
C198 C201 1.481 . S
C199 C198 1.377 . S
C199 C200 1.389 . S
C199 H221 0.929 . S
C200 C196 1.397 1_554 S
C200 C199 1.389 . S
C200 H222 0.931 . S
C201 C198 1.481 . S
C201 C202 1.387 . S
C201 C206 1.390 . S
C202 C201 1.387 . S
C202 C203 1.401 . S
C202 H223 0.930 . S
C203 C202 1.401 . S
C203 C204 1.376 . S
C203 C212 1.511 . S
C204 C203 1.376 . S
C204 C205 1.392 . S
C204 H225 0.931 . S
C205 C204 1.392 . S
C205 C206 1.361 . S
C205 C207 1.500 . S
C206 C201 1.390 . S
C206 C205 1.361 . S
C206 H224 0.931 . S
C207 C205 1.500 . S
C207 C208 1.371 . S
C207 C209 1.365 . S
C208 C207 1.371 . S
C208 C218 1.386 . S
C208 H226 0.931 . S
C209 C207 1.365 . S
C209 C210 1.409 . S
C209 H227 0.929 . S
C210 C209 1.409 . S
C210 C211 1.380 . S
C210 H228 0.930 . S
C211 C210 1.380 . S
C211 C218 1.357 . S
C212 C203 1.511 . S
C212 C213 1.341 . S
C212 C214 1.371 . S
C213 C212 1.341 . S
C213 C217 1.394 . S
C213 H229 0.930 . S
C214 C212 1.371 . S
C214 C215 1.392 . S
C214 H230 0.931 . S
C215 C214 1.392 . S
C215 C216 1.331 . S
C215 H233 0.932 . S
C216 C215 1.331 . S
C216 C217 1.336 . S
C217 C213 1.394 . S
C217 C216 1.336 . S
C217 H232 0.929 . S
C218 C208 1.386 . S
C218 C211 1.357 . S
C218 H231 0.928 . S
H219 C195 0.922 1_556 S
H220 C197 0.930 . S
H221 C199 0.929 . S
H222 C200 0.931 . S
H223 C202 0.930 . S
H224 C206 0.931 . S
H225 C204 0.931 . S
H226 C208 0.931 . S
H227 C209 0.929 . S
H228 C210 0.930 . S
H229 C213 0.930 . S
H230 C214 0.931 . S
H231 C218 0.928 . S
H232 C217 0.929 . S
H233 C215 0.932 . S
C234 C235 1.386 . S
C234 C236 1.397 . S
C234 H258 0.931 . S
C235 C234 1.386 . S
C235 C239 1.397 . S
C236 C234 1.397 . S
C236 C237 1.384 . S
C236 H259 0.930 . S
C237 C236 1.384 . S
C237 C238 1.377 . S
C237 C240 1.481 . S
C238 C237 1.377 . S
C238 C239 1.389 . S
C238 H260 0.929 . S
C239 C235 1.397 . S
C239 C238 1.389 . S
C239 H261 0.931 . S
C240 C237 1.481 . S
C240 C241 1.387 . S
C240 C245 1.390 . S
C241 C240 1.387 . S
C241 C242 1.401 . S
C241 H262 0.930 . S
C242 C241 1.401 . S
C242 C243 1.376 . S
C242 C251 1.511 . S
C243 C242 1.376 . S
C243 C244 1.392 . S
C243 H264 0.931 . S
C244 C243 1.392 . S
C244 C245 1.361 . S
C244 C246 1.500 . S
C245 C240 1.390 . S
C245 C244 1.361 . S
C245 H263 0.931 . S
C246 C244 1.500 . S
C246 C247 1.371 . S
C246 C248 1.365 . S
C247 C246 1.371 . S
C247 C257 1.386 . S
C247 H265 0.931 . S
C248 C246 1.365 . S
C248 C249 1.409 . S
C248 H266 0.929 . S
C249 C248 1.409 . S
C249 C250 1.380 . S
C249 H267 0.930 . S
C250 C249 1.380 . S
C250 C257 1.357 . S
C251 C242 1.511 . S
C251 C252 1.341 . S
C251 C253 1.371 . S
C252 C251 1.341 . S
C252 C256 1.394 . S
C252 H268 0.930 . S
C253 C251 1.371 . S
C253 C254 1.392 . S
C253 H269 0.931 . S
C254 C253 1.392 . S
C254 C255 1.331 . S
C254 H272 0.932 . S
C255 C254 1.331 . S
C255 C256 1.336 . S
C256 C252 1.394 . S
C256 C255 1.336 . S
C256 H271 0.929 . S
C257 C247 1.386 . S
C257 C250 1.357 . S
C257 H270 0.928 . S
H258 C234 0.931 . S
H259 C236 0.930 . S
H260 C238 0.929 . S
H261 C239 0.931 . S
H262 C241 0.930 . S
H263 C245 0.931 . S
H264 C243 0.931 . S
H265 C247 0.931 . S
H266 C248 0.929 . S
H267 C249 0.930 . S
H268 C252 0.930 . S
H269 C253 0.931 . S
H270 C257 0.928 . S
H271 C256 0.929 . S
H272 C254 0.932 . S
C273 C274 1.386 1_556 S
C273 C275 1.397 . S
C273 H297 0.931 1_556 S
C274 C273 1.386 1_554 S
C274 C278 1.397 1_554 S
C275 C273 1.397 . S
C275 C276 1.384 . S
C275 H298 0.930 . S
C276 C275 1.384 . S
C276 C277 1.377 . S
C276 C279 1.481 . S
C277 C276 1.377 . S
C277 C278 1.389 . S
C277 H299 0.929 . S
C278 C274 1.397 1_556 S
C278 C277 1.389 . S
C278 H300 0.931 . S
C279 C276 1.481 . S
C279 C280 1.387 . S
C279 C284 1.390 . S
C280 C279 1.387 . S
C280 C281 1.401 . S
C280 H301 0.930 . S
C281 C280 1.401 . S
C281 C282 1.376 . S
C281 C290 1.511 . S
C282 C281 1.376 . S
C282 C283 1.392 . S
C282 H303 0.931 . S
C283 C282 1.392 . S
C283 C284 1.361 . S
C283 C285 1.500 . S
C284 C279 1.390 . S
C284 C283 1.361 . S
C284 H302 0.931 . S
C285 C283 1.500 . S
C285 C286 1.371 . S
C285 C287 1.365 . S
C286 C285 1.371 . S
C286 C296 1.386 . S
C286 H304 0.931 . S
C287 C285 1.365 . S
C287 C288 1.409 . S
C287 H305 0.929 . S
C288 C287 1.409 . S
C288 C289 1.380 . S
C288 H306 0.930 . S
C289 C288 1.380 . S
C289 C296 1.357 . S
C290 C281 1.511 . S
C290 C291 1.341 . S
C290 C292 1.371 . S
C291 C290 1.341 . S
C291 C295 1.394 . S
C291 H307 0.930 . S
C292 C290 1.371 . S
C292 C293 1.392 . S
C292 H308 0.931 . S
C293 C292 1.392 . S
C293 C294 1.331 . S
C293 H311 0.932 . S
C294 C293 1.331 . S
C294 C295 1.336 . S
C295 C291 1.394 . S
C295 C294 1.336 . S
C295 H310 0.929 . S
C296 C286 1.386 . S
C296 C289 1.357 . S
C296 H309 0.928 . S
H297 C273 0.931 1_554 S
H298 C275 0.930 . S
H299 C277 0.929 . S
H300 C278 0.931 . S
H301 C280 0.930 . S
H302 C284 0.931 . S
H303 C282 0.931 . S
H304 C286 0.931 . S
H305 C287 0.929 . S
H306 C288 0.930 . S
H307 C291 0.930 . S
H308 C292 0.931 . S
H309 C296 0.928 . S
H310 C295 0.929 . S
H311 C293 0.932 . S
Zn312 O318 1.920 1_455 S
Zn312 O324 1.898 . S
Zn312 O327 1.905 . S
Zn313 O321 1.905 1_655 S
Zn313 O322 1.898 . S
Zn313 O330 1.920 . S
Zn314 O317 2.068 1_455 S
Zn314 O320 2.126 . S
Zn314 O323 2.103 1_455 S
Zn314 O325 2.135 . S
Zn314 O326 2.130 . S
Zn314 O329 2.066 1_455 S
C315 O320 1.166 . S
C315 O321 1.182 . S
C316 O322 1.167 . S
C316 O323 1.299 . S
O317 Zn314 2.068 1_655 S
O317 C331 1.305 . S
O318 Zn312 1.920 1_655 S
O318 C331 1.234 . S
C319 O324 1.167 . S
C319 O325 1.299 . S
O320 Zn314 2.126 . S
O320 C315 1.166 . S
O321 Zn313 1.905 1_455 S
O321 C315 1.182 . S
O322 Zn313 1.898 . S
O322 C316 1.167 . S
O323 Zn314 2.103 1_655 S
O323 C316 1.299 . S
O324 Zn312 1.898 . S
O324 C319 1.167 . S
O325 Zn314 2.135 . S
O325 C319 1.299 . S
O326 Zn314 2.130 . S
O326 C328 1.166 . S
O327 Zn312 1.905 . S
O327 C328 1.182 . S
C328 O326 1.166 . S
C328 O327 1.182 . S
O329 Zn314 2.066 1_655 S
O329 C332 1.305 . S
O330 Zn313 1.920 . S
O330 C332 1.234 . S
C331 O317 1.305 . S
C331 O318 1.234 . S
C332 O329 1.305 . S
C332 O330 1.234 . S
Zn333 O339 1.920 . S
Zn333 O345 1.898 . S
Zn333 O348 1.905 . S
Zn334 O342 1.905 . S
Zn334 O343 1.898 . S
Zn334 O351 1.920 . S
Zn335 O338 2.080 . S
Zn335 O341 2.114 . S
Zn335 O344 2.120 . S
Zn335 O346 2.120 . S
Zn335 O347 2.114 . S
Zn335 O350 2.080 . S
C336 O341 1.166 . S
C336 O342 1.182 . S
C337 O343 1.167 . S
C337 O344 1.299 . S
O338 Zn335 2.080 . S
O338 C352 1.305 . S
O339 Zn333 1.920 . S
O339 C352 1.234 . S
C340 O345 1.167 . S
C340 O346 1.299 . S
O341 Zn335 2.114 . S
O341 C336 1.166 . S
O342 Zn334 1.905 . S
O342 C336 1.182 . S
O343 Zn334 1.898 . S
O343 C337 1.167 . S
O344 Zn335 2.120 . S
O344 C337 1.299 . S
O345 Zn333 1.898 . S
O345 C340 1.167 . S
O346 Zn335 2.120 . S
O346 C340 1.299 . S
O347 Zn335 2.114 . S
O347 C349 1.166 . S
O348 Zn333 1.905 . S
O348 C349 1.182 . S
C349 O347 1.166 . S
C349 O348 1.182 . S
O350 Zn335 2.080 . S
O350 C353 1.305 . S
O351 Zn334 1.920 . S
O351 C353 1.234 . S
C352 O338 1.305 . S
C352 O339 1.234 . S
C353 O350 1.305 . S
C353 O351 1.234 . S
Zn354 O360 1.920 . S
Zn354 O366 1.898 . S
Zn354 O369 1.905 1_455 S
Zn355 O363 1.905 . S
Zn355 O364 1.898 . S
Zn355 O372 1.920 1_655 S
Zn356 O359 2.081 . S
Zn356 O362 2.113 1_455 S
Zn356 O365 2.119 1_455 S
Zn356 O367 2.120 . S
Zn356 O368 2.113 1_455 S
Zn356 O371 2.081 . S
C357 O362 1.166 . S
C357 O363 1.182 . S
C358 O364 1.167 . S
C358 O365 1.299 . S
O359 Zn356 2.081 . S
O359 C373 1.305 . S
O360 Zn354 1.920 . S
O360 C373 1.234 . S
C361 O366 1.167 . S
C361 O367 1.299 . S
O362 Zn356 2.113 1_655 S
O362 C357 1.166 . S
O363 Zn355 1.905 . S
O363 C357 1.182 . S
O364 Zn355 1.898 . S
O364 C358 1.167 . S
O365 Zn356 2.119 1_655 S
O365 C358 1.299 . S
O366 Zn354 1.898 . S
O366 C361 1.167 . S
O367 Zn356 2.120 . S
O367 C361 1.299 . S
O368 Zn356 2.113 1_655 S
O368 C370 1.166 . S
O369 Zn354 1.905 1_655 S
O369 C370 1.182 . S
C370 O368 1.166 . S
C370 O369 1.182 . S
O371 Zn356 2.081 . S
O371 C374 1.305 . S
O372 Zn355 1.920 1_455 S
O372 C374 1.234 . S
C373 O359 1.305 . S
C373 O360 1.234 . S
C374 O371 1.305 . S
C374 O372 1.234 . S
Zn375 O381 1.920 . S
Zn375 O387 1.898 . S
Zn375 O390 1.905 . S
Zn376 O384 1.905 . S
Zn376 O385 1.898 . S
Zn376 O393 1.920 . S
Zn377 O380 2.080 . S
Zn377 O383 2.114 . S
Zn377 O386 2.120 . S
Zn377 O388 2.120 . S
Zn377 O389 2.114 . S
Zn377 O392 2.080 . S
C378 O383 1.166 . S
C378 O384 1.182 . S
C379 O385 1.167 . S
C379 O386 1.299 . S
O380 Zn377 2.080 . S
O380 C394 1.305 . S
O381 Zn375 1.920 . S
O381 C394 1.234 . S
C382 O387 1.167 . S
C382 O388 1.299 . S
O383 Zn377 2.114 . S
O383 C378 1.166 . S
O384 Zn376 1.905 . S
O384 C378 1.182 . S
O385 Zn376 1.898 . S
O385 C379 1.167 . S
O386 Zn377 2.120 . S
O386 C379 1.299 . S
O387 Zn375 1.898 . S
O387 C382 1.167 . S
O388 Zn377 2.120 . S
O388 C382 1.299 . S
O389 Zn377 2.114 . S
O389 C391 1.166 . S
O390 Zn375 1.905 . S
O390 C391 1.182 . S
C391 O389 1.166 . S
C391 O390 1.182 . S
O392 Zn377 2.080 . S
O392 C395 1.305 . S
O393 Zn376 1.920 . S
O393 C395 1.234 . S
C394 O380 1.305 . S
C394 O381 1.234 . S
C395 O392 1.305 . S
C395 O393 1.234 . S
H396 C402 0.930 . S
H397 C406 0.930 . S
H398 C411 0.929 . S
H399 C409 0.929 . S
H400 C404 0.929 . S
H401 C410 0.929 . S
C402 H396 0.930 . S
C402 C403 1.367 . S
C402 C410 1.378 1_565 S
C403 C402 1.367 . S
C403 C411 1.433 . S
C404 H400 0.929 . S
C404 C406 1.378 . S
C404 C408 1.350 . S
C405 C408 1.463 . S
C405 C410 1.350 . S
C405 N413 1.427 1_545 S
C406 H397 0.930 . S
C406 C404 1.378 . S
C406 C407 1.367 . S
C407 C406 1.367 . S
C407 C409 1.433 . S
C408 C404 1.350 . S
C408 C405 1.463 . S
C408 N412 1.427 . S
C409 H399 0.929 . S
C409 C407 1.433 . S
C409 N412 1.384 . S
C410 H401 0.929 . S
C410 C402 1.378 1_545 S
C410 C405 1.350 . S
C411 H398 0.929 . S
C411 C403 1.433 . S
C411 N413 1.384 . S
N412 C408 1.427 . S
N412 C409 1.384 . S
N413 C405 1.427 1_565 S
N413 C411 1.384 . S
H414 C420 0.930 . S
H415 C424 0.930 . S
H416 C429 0.929 . S
H417 C427 0.929 . S
H418 C422 0.929 . S
H419 C428 0.929 . S
C420 H414 0.930 . S
C420 C421 1.367 . S
C420 C428 1.378 . S
C421 C420 1.367 . S
C421 C429 1.433 . S
C422 H418 0.929 . S
C422 C424 1.378 . S
C422 C426 1.350 . S
C423 C426 1.463 . S
C423 C428 1.350 . S
C423 N431 1.427 . S
C424 H415 0.930 . S
C424 C422 1.378 . S
C424 C425 1.367 . S
C425 C424 1.367 . S
C425 C427 1.433 . S
C426 C422 1.350 . S
C426 C423 1.463 . S
C426 N430 1.427 . S
C427 H417 0.929 . S
C427 C425 1.433 . S
C427 N430 1.384 . S
C428 H419 0.929 . S
C428 C420 1.378 . S
C428 C423 1.350 . S
C429 H416 0.929 . S
C429 C421 1.433 . S
C429 N431 1.384 . S
N430 C426 1.427 . S
N430 C427 1.384 . S
N431 C423 1.427 . S
N431 C429 1.384 . S
H432 C438 0.930 . S
H433 C442 0.930 . S
H434 C447 0.929 . S
H435 C445 0.929 . S
H436 C440 0.929 . S
H437 C446 0.929 . S
C438 H432 0.930 . S
C438 C439 1.367 . S
C438 C446 1.378 . S
C439 C438 1.367 . S
C439 C447 1.433 . S
C440 H436 0.929 . S
C440 C442 1.378 . S
C440 C444 1.350 . S
C441 C444 1.463 . S
C441 C446 1.350 . S
C441 N449 1.427 . S
C442 H433 0.930 . S
C442 C440 1.378 . S
C442 C443 1.367 . S
C443 C442 1.367 . S
C443 C445 1.433 . S
C444 C440 1.350 . S
C444 C441 1.463 . S
C444 N448 1.427 . S
C445 H435 0.929 . S
C445 C443 1.433 . S
C445 N448 1.384 . S
C446 H437 0.929 . S
C446 C438 1.378 . S
C446 C441 1.350 . S
C447 H434 0.929 . S
C447 C439 1.433 . S
C447 N449 1.384 . S
N448 C444 1.427 . S
N448 C445 1.384 . S
N449 C441 1.427 . S
N449 C447 1.384 . S
H450 C456 0.930 . S
H451 C460 0.930 . S
H452 C465 0.929 . S
H453 C463 0.929 . S
H454 C458 0.929 . S
H455 C464 0.955 . S
C456 H450 0.930 . S
C456 C457 1.367 . S
C456 C464 1.347 1_565 S
C457 C456 1.367 . S
C457 C465 1.433 . S
C458 H454 0.929 . S
C458 C460 1.378 . S
C458 C462 1.350 . S
C459 C462 1.463 . S
C459 C464 1.354 . S
C459 N467 1.427 1_545 S
C460 H451 0.930 . S
C460 C458 1.378 . S
C460 C461 1.367 . S
C461 C460 1.367 . S
C461 C463 1.433 . S
C462 C458 1.350 . S
C462 C459 1.463 . S
C462 N466 1.427 . S
C463 H453 0.929 . S
C463 C461 1.433 . S
C463 N466 1.384 . S
C464 H455 0.955 . S
C464 C456 1.347 1_545 S
C464 C459 1.354 . S
C465 H452 0.929 . S
C465 C457 1.433 . S
C465 N467 1.384 . S
N466 C462 1.427 . S
N466 C463 1.384 . S
N467 C459 1.427 1_565 S
N467 C465 1.384 . S
H468 C474 0.930 . S
H469 C478 0.930 . S
H470 C483 0.929 . S
H471 C481 0.929 . S
H472 C476 0.929 . S
H473 C482 0.929 . S
C474 H468 0.930 . S
C474 C475 1.367 . S
C474 C482 1.378 1_545 S
C475 C474 1.367 . S
C475 C483 1.433 . S
C476 H472 0.929 . S
C476 C478 1.378 . S
C476 C480 1.350 . S
C477 C480 1.463 . S
C477 C482 1.350 . S
C477 N485 1.427 1_565 S
C478 H469 0.930 . S
C478 C476 1.378 . S
C478 C479 1.367 . S
C479 C478 1.367 . S
C479 C481 1.433 . S
C480 C476 1.350 . S
C480 C477 1.463 . S
C480 N484 1.427 . S
C481 H471 0.929 . S
C481 C479 1.433 . S
C481 N484 1.384 . S
C482 H473 0.929 . S
C482 C474 1.378 1_565 S
C482 C477 1.350 . S
C483 H470 0.929 . S
C483 C475 1.433 . S
C483 N485 1.384 . S
N484 C480 1.427 . S
N484 C481 1.384 . S
N485 C477 1.427 1_545 S
N485 C483 1.384 . S
H486 C492 0.930 . S
H487 C496 0.930 . S
H488 C501 0.929 . S
H489 C499 0.929 . S
H490 C494 0.929 . S
H491 C500 0.929 . S
C492 H486 0.930 . S
C492 C493 1.367 . S
C492 C500 1.378 . S
C493 C492 1.367 . S
C493 C501 1.433 . S
C494 H490 0.929 . S
C494 C496 1.378 . S
C494 C498 1.350 . S
C495 C498 1.463 . S
C495 C500 1.350 . S
C495 N503 1.427 . S
C496 H487 0.930 . S
C496 C494 1.378 . S
C496 C497 1.367 . S
C497 C496 1.367 . S
C497 C499 1.433 . S
C498 C494 1.350 . S
C498 C495 1.463 . S
C498 N502 1.427 . S
C499 H489 0.929 . S
C499 C497 1.433 . S
C499 N502 1.384 . S
C500 H491 0.929 . S
C500 C492 1.378 . S
C500 C495 1.350 . S
C501 H488 0.929 . S
C501 C493 1.433 . S
C501 N503 1.384 . S
N502 C498 1.427 . S
N502 C499 1.384 . S
N503 C495 1.427 . S
N503 C501 1.384 . S
H504 C510 0.930 . S
H505 C514 0.930 . S
H506 C519 0.929 . S
H507 C517 0.929 . S
H508 C512 0.929 . S
H509 C518 0.929 . S
C510 H504 0.930 . S
C510 C511 1.367 . S
C510 C518 1.378 . S
C511 C510 1.367 . S
C511 C519 1.433 . S
C512 H508 0.929 . S
C512 C514 1.378 . S
C512 C516 1.350 . S
C513 C516 1.463 . S
C513 C518 1.350 . S
C513 N521 1.427 . S
C514 H505 0.930 . S
C514 C512 1.378 . S
C514 C515 1.367 . S
C515 C514 1.367 . S
C515 C517 1.433 . S
C516 C512 1.350 . S
C516 C513 1.463 . S
C516 N520 1.427 . S
C517 H507 0.929 . S
C517 C515 1.433 . S
C517 N520 1.384 . S
C518 H509 0.929 . S
C518 C510 1.378 . S
C518 C513 1.350 . S
C519 H506 0.929 . S
C519 C511 1.433 . S
C519 N521 1.384 . S
N520 C516 1.427 . S
N520 C517 1.384 . S
N521 C513 1.427 . S
N521 C519 1.384 . S
H522 C528 0.930 . S
H523 C532 0.930 . S
H524 C537 0.929 . S
H525 C535 0.929 . S
H526 C530 0.929 . S
H527 C536 0.929 . S
C528 H522 0.930 . S
C528 C529 1.367 . S
C528 C536 1.378 1_545 S
C529 C528 1.367 . S
C529 C537 1.433 . S
C530 H526 0.929 . S
C530 C532 1.378 . S
C530 C534 1.350 . S
C531 C534 1.463 . S
C531 C536 1.350 . S
C531 N539 1.427 1_565 S
C532 H523 0.930 . S
C532 C530 1.378 . S
C532 C533 1.367 . S
C533 C532 1.367 . S
C533 C535 1.433 . S
C534 C530 1.350 . S
C534 C531 1.463 . S
C534 N538 1.427 . S
C535 H525 0.929 . S
C535 C533 1.433 . S
C535 N538 1.384 . S
C536 H527 0.929 . S
C536 C528 1.378 1_565 S
C536 C531 1.350 . S
C537 H524 0.929 . S
C537 C529 1.433 . S
C537 N539 1.384 . S
N538 C534 1.427 . S
N538 C535 1.384 . S
N539 C531 1.427 1_545 S
N539 C537 1.384 . S
H540 C546 0.930 . S
H541 C550 0.930 . S
H542 C555 0.929 . S
H543 C553 0.929 . S
H544 C548 0.929 . S
H545 C554 0.929 . S
C546 H540 0.930 . S
C546 C547 1.367 . S
C546 C554 1.378 . S
C547 C546 1.367 . S
C547 C555 1.433 . S
C548 H544 0.929 . S
C548 C550 1.378 . S
C548 C552 1.350 . S
C549 C552 1.463 . S
C549 C554 1.350 . S
C549 N557 1.427 . S
C550 H541 0.930 . S
C550 C548 1.378 . S
C550 C551 1.367 . S
C551 C550 1.367 . S
C551 C553 1.433 . S
C552 C548 1.350 . S
C552 C549 1.463 . S
C552 N556 1.427 . S
C553 H543 0.929 . S
C553 C551 1.433 . S
C553 N556 1.384 . S
C554 H545 0.929 . S
C554 C546 1.378 . S
C554 C549 1.350 . S
C555 H542 0.929 . S
C555 C547 1.433 . S
C555 N557 1.384 . S
N556 C552 1.427 . S
N556 C553 1.384 . S
N557 C549 1.427 . S
N557 C555 1.384 . S
H558 C564 0.930 . S
H559 C568 0.930 . S
H560 C573 0.929 . S
H561 C571 0.929 . S
H562 C566 0.929 . S
H563 C572 0.929 . S
C564 H558 0.930 . S
C564 C565 1.367 . S
C564 C572 1.378 . S
C565 C564 1.367 . S
C565 C573 1.433 . S
C566 H562 0.929 . S
C566 C568 1.378 . S
C566 C570 1.350 . S
C567 C570 1.463 . S
C567 C572 1.350 . S
C567 N575 1.427 . S
C568 H559 0.930 . S
C568 C566 1.378 . S
C568 C569 1.367 . S
C569 C568 1.367 . S
C569 C571 1.433 . S
C570 C566 1.350 . S
C570 C567 1.463 . S
C570 N574 1.427 . S
C571 H561 0.929 . S
C571 C569 1.433 . S
C571 N574 1.384 . S
C572 H563 0.929 . S
C572 C564 1.378 . S
C572 C567 1.350 . S
C573 H560 0.929 . S
C573 C565 1.433 . S
C573 N575 1.384 . S
N574 C570 1.427 . S
N574 C571 1.384 . S
N575 C567 1.427 . S
N575 C573 1.384 . S
H576 C582 0.930 . S
H577 C586 0.930 . S
H578 C591 0.929 . S
H579 C589 0.929 . S
H580 C584 0.929 . S
H581 C590 0.929 . S
C582 H576 0.930 . S
C582 C583 1.367 . S
C582 C590 1.378 . S
C583 C582 1.367 . S
C583 C591 1.433 . S
C584 H580 0.929 . S
C584 C586 1.378 . S
C584 C588 1.350 . S
C585 C588 1.463 . S
C585 C590 1.350 . S
C585 N593 1.427 . S
C586 H577 0.930 . S
C586 C584 1.378 . S
C586 C587 1.367 . S
C587 C586 1.367 . S
C587 C589 1.433 . S
C588 C584 1.350 . S
C588 C585 1.463 . S
C588 N592 1.427 . S
C589 H579 0.929 . S
C589 C587 1.433 . S
C589 N592 1.384 . S
C590 H581 0.929 . S
C590 C582 1.378 . S
C590 C585 1.350 . S
C591 H578 0.929 . S
C591 C583 1.433 . S
C591 N593 1.384 . S
N592 C588 1.427 . S
N592 C589 1.384 . S
N593 C585 1.427 . S
N593 C591 1.384 . S
H594 C600 0.930 . S
H595 C604 0.930 . S
H596 C609 0.929 . S
H597 C607 0.929 . S
H598 C602 0.929 . S
H599 C608 0.929 . S
C600 H594 0.930 . S
C600 C601 1.367 . S
C600 C608 1.378 . S
C601 C600 1.367 . S
C601 C609 1.433 . S
C602 H598 0.929 . S
C602 C604 1.378 . S
C602 C606 1.350 . S
C603 C606 1.463 . S
C603 C608 1.350 . S
C603 N611 1.427 . S
C604 H595 0.930 . S
C604 C602 1.378 . S
C604 C605 1.367 . S
C605 C604 1.367 . S
C605 C607 1.433 . S
C606 C602 1.350 . S
C606 C603 1.463 . S
C606 N610 1.427 . S
C607 H597 0.929 . S
C607 C605 1.433 . S
C607 N610 1.384 . S
C608 H599 0.929 . S
C608 C600 1.378 . S
C608 C603 1.350 . S
C609 H596 0.929 . S
C609 C601 1.433 . S
C609 N611 1.384 . S
N610 C606 1.427 . S
N610 C607 1.384 . S
N611 C603 1.427 . S
N611 C609 1.384 . S
H612 C618 0.930 . S
H613 C622 0.930 . S
H614 C627 0.929 . S
H615 C625 0.929 . S
H616 C620 0.929 . S
H617 C626 0.929 . S
C618 H612 0.930 . S
C618 C619 1.367 . S
C618 C626 1.378 . S
C619 C618 1.367 . S
C619 C627 1.433 . S
C620 H616 0.929 . S
C620 C622 1.378 . S
C620 C624 1.350 . S
C621 C624 1.463 . S
C621 C626 1.350 . S
C621 N629 1.427 . S
C622 H613 0.930 . S
C622 C620 1.378 . S
C622 C623 1.367 . S
C623 C622 1.367 . S
C623 C625 1.433 . S
C624 C620 1.350 . S
C624 C621 1.463 . S
C624 N628 1.427 . S
C625 H615 0.929 . S
C625 C623 1.433 . S
C625 N628 1.384 . S
C626 H617 0.929 . S
C626 C618 1.378 . S
C626 C621 1.350 . S
C627 H614 0.929 . S
C627 C619 1.433 . S
C627 N629 1.384 . S
N628 C624 1.427 . S
N628 C625 1.384 . S
N629 C621 1.427 . S
N629 C627 1.384 . S
H630 C636 0.930 . S
H631 C640 0.930 . S
H632 C645 0.929 . S
H633 C643 0.929 . S
H634 C638 0.929 . S
H635 C644 0.929 . S
C636 H630 0.930 . S
C636 C637 1.367 . S
C636 C644 1.378 . S
C637 C636 1.367 . S
C637 C645 1.433 . S
C638 H634 0.929 . S
C638 C640 1.378 . S
C638 C642 1.350 . S
C639 C642 1.463 . S
C639 C644 1.350 . S
C639 N647 1.427 . S
C640 H631 0.930 . S
C640 C638 1.378 . S
C640 C641 1.367 . S
C641 C640 1.367 . S
C641 C643 1.433 . S
C642 C638 1.350 . S
C642 C639 1.463 . S
C642 N646 1.427 . S
C643 H633 0.929 . S
C643 C641 1.433 . S
C643 N646 1.384 . S
C644 H635 0.929 . S
C644 C636 1.378 . S
C644 C639 1.350 . S
C645 H632 0.929 . S
C645 C637 1.433 . S
C645 N647 1.384 . S
N646 C642 1.427 . S
N646 C643 1.384 . S
N647 C639 1.427 . S
N647 C645 1.384 . S
H648 C654 0.930 . S
H649 C658 0.930 . S
H650 C663 0.929 . S
H651 C661 0.929 . S
H652 C656 0.929 . S
H653 C662 0.929 . S
C654 H648 0.930 . S
C654 C655 1.367 . S
C654 C662 1.378 . S
C655 C654 1.367 . S
C655 C663 1.433 . S
C656 H652 0.929 . S
C656 C658 1.378 . S
C656 C660 1.350 . S
C657 C660 1.463 . S
C657 C662 1.350 . S
C657 N665 1.427 . S
C658 H649 0.930 . S
C658 C656 1.378 . S
C658 C659 1.367 . S
C659 C658 1.367 . S
C659 C661 1.433 . S
C660 C656 1.350 . S
C660 C657 1.463 . S
C660 N664 1.427 . S
C661 H651 0.929 . S
C661 C659 1.433 . S
C661 N664 1.384 . S
C662 H653 0.929 . S
C662 C654 1.378 . S
C662 C657 1.350 . S
C663 H650 0.929 . S
C663 C655 1.433 . S
C663 N665 1.384 . S
N664 C660 1.427 . S
N664 C661 1.384 . S
N665 C657 1.427 . S
N665 C663 1.384 . S
H666 C672 0.930 . S
H667 C676 0.930 . S
H668 C681 0.929 . S
H669 C679 0.929 . S
H670 C674 0.929 . S
H671 C680 0.929 . S
C672 H666 0.930 . S
C672 C673 1.367 . S
C672 C680 1.378 . S
C673 C672 1.367 . S
C673 C681 1.433 . S
C674 H670 0.929 . S
C674 C676 1.378 . S
C674 C678 1.350 . S
C675 C678 1.463 . S
C675 C680 1.350 . S
C675 N683 1.427 . S
C676 H667 0.930 . S
C676 C674 1.378 . S
C676 C677 1.367 . S
C677 C676 1.367 . S
C677 C679 1.433 . S
C678 C674 1.350 . S
C678 C675 1.463 . S
C678 N682 1.427 . S
C679 H669 0.929 . S
C679 C677 1.433 . S
C679 N682 1.384 . S
C680 H671 0.929 . S
C680 C672 1.378 . S
C680 C675 1.350 . S
C681 H668 0.929 . S
C681 C673 1.433 . S
C681 N683 1.384 . S
N682 C678 1.427 . S
N682 C679 1.384 . S
N683 C675 1.427 . S
N683 C681 1.384 . S
H684 C690 0.930 . S
H685 C694 0.930 . S
H686 C699 0.929 . S
H687 C697 0.929 . S
H688 C692 0.929 . S
H689 C698 0.929 . S
C690 H684 0.930 . S
C690 C691 1.367 . S
C690 C698 1.378 . S
C691 C690 1.367 . S
C691 C699 1.433 . S
C692 H688 0.929 . S
C692 C694 1.378 . S
C692 C696 1.350 . S
C693 C696 1.463 . S
C693 C698 1.350 . S
C693 N701 1.427 . S
C694 H685 0.930 . S
C694 C692 1.378 . S
C694 C695 1.367 . S
C695 C694 1.367 . S
C695 C697 1.433 . S
C696 C692 1.350 . S
C696 C693 1.463 . S
C696 N700 1.427 . S
C697 H687 0.929 . S
C697 C695 1.433 . S
C697 N700 1.384 . S
C698 H689 0.929 . S
C698 C690 1.378 . S
C698 C693 1.350 . S
C699 H686 0.929 . S
C699 C691 1.433 . S
C699 N701 1.384 . S
N700 C696 1.427 . S
N700 C697 1.384 . S
N701 C693 1.427 . S
N701 C699 1.384 . S
H702 C708 0.930 . S
H703 C712 0.930 . S
H704 C717 0.929 . S
H705 C715 0.929 . S
H706 C710 0.929 . S
H707 C716 0.929 . S
C708 H702 0.930 . S
C708 C709 1.367 . S
C708 C716 1.378 . S
C709 C708 1.367 . S
C709 C717 1.433 . S
C710 H706 0.929 . S
C710 C712 1.378 . S
C710 C714 1.350 . S
C711 C714 1.463 . S
C711 C716 1.350 . S
C711 N719 1.427 . S
C712 H703 0.930 . S
C712 C710 1.378 . S
C712 C713 1.367 . S
C713 C712 1.367 . S
C713 C715 1.433 . S
C714 C710 1.350 . S
C714 C711 1.463 . S
C714 N718 1.427 . S
C715 H705 0.929 . S
C715 C713 1.433 . S
C715 N718 1.384 . S
C716 H707 0.929 . S
C716 C708 1.378 . S
C716 C711 1.350 . S
C717 H704 0.929 . S
C717 C709 1.433 . S
C717 N719 1.384 . S
N718 C714 1.427 . S
N718 C715 1.384 . S
N719 C711 1.427 . S
N719 C717 1.384 . S
H720 C726 0.930 . S
H721 C730 0.930 . S
H722 C735 0.929 . S
H723 C733 0.929 . S
H724 C728 0.929 . S
H725 C734 0.929 . S
C726 H720 0.930 . S
C726 C727 1.367 . S
C726 C734 1.378 . S
C727 C726 1.367 . S
C727 C735 1.433 . S
C728 H724 0.929 . S
C728 C730 1.378 . S
C728 C732 1.350 . S
C729 C732 1.463 . S
C729 C734 1.350 . S
C729 N737 1.427 . S
C730 H721 0.930 . S
C730 C728 1.378 . S
C730 C731 1.367 . S
C731 C730 1.367 . S
C731 C733 1.433 . S
C732 C728 1.350 . S
C732 C729 1.463 . S
C732 N736 1.427 . S
C733 H723 0.929 . S
C733 C731 1.433 . S
C733 N736 1.384 . S
C734 H725 0.929 . S
C734 C726 1.378 . S
C734 C729 1.350 . S
C735 H722 0.929 . S
C735 C727 1.433 . S
C735 N737 1.384 . S
N736 C732 1.427 . S
N736 C733 1.384 . S
N737 C729 1.427 . S
N737 C735 1.384 . S
H738 C744 0.930 . S
H739 C748 0.930 . S
H740 C753 0.929 . S
H741 C751 0.929 . S
H742 C746 0.929 . S
H743 C752 0.929 . S
C744 H738 0.930 . S
C744 C745 1.367 . S
C744 C752 1.378 . S
C745 C744 1.367 . S
C745 C753 1.433 . S
C746 H742 0.929 . S
C746 C748 1.378 . S
C746 C750 1.350 . S
C747 C750 1.463 . S
C747 C752 1.350 . S
C747 N755 1.427 . S
C748 H739 0.930 . S
C748 C746 1.378 . S
C748 C749 1.367 . S
C749 C748 1.367 . S
C749 C751 1.433 . S
C750 C746 1.350 . S
C750 C747 1.463 . S
C750 N754 1.427 . S
C751 H741 0.929 . S
C751 C749 1.433 . S
C751 N754 1.384 . S
C752 H743 0.929 . S
C752 C744 1.378 . S
C752 C747 1.350 . S
C753 H740 0.929 . S
C753 C745 1.433 . S
C753 N755 1.384 . S
N754 C750 1.427 . S
N754 C751 1.384 . S
N755 C747 1.427 . S
N755 C753 1.384 . S
H756 C762 0.930 . S
H757 C766 0.930 . S
H758 C771 0.929 . S
H759 C769 0.929 . S
H760 C764 0.929 . S
H761 C770 0.929 . S
C762 H756 0.930 . S
C762 C763 1.367 . S
C762 C770 1.378 . S
C763 C762 1.367 . S
C763 C771 1.433 . S
C764 H760 0.929 . S
C764 C766 1.378 . S
C764 C768 1.350 . S
C765 C768 1.463 . S
C765 C770 1.350 . S
C765 N773 1.427 . S
C766 H757 0.930 . S
C766 C764 1.378 . S
C766 C767 1.367 . S
C767 C766 1.367 . S
C767 C769 1.433 . S
C768 C764 1.350 . S
C768 C765 1.463 . S
C768 N772 1.427 . S
C769 H759 0.929 . S
C769 C767 1.433 . S
C769 N772 1.384 . S
C770 H761 0.929 . S
C770 C762 1.378 . S
C770 C765 1.350 . S
C771 H758 0.929 . S
C771 C763 1.433 . S
C771 N773 1.384 . S
N772 C768 1.427 . S
N772 C769 1.384 . S
N773 C765 1.427 . S
N773 C771 1.384 . S
H774 C780 0.930 . S
H775 C784 0.930 . S
H776 C789 0.929 . S
H777 C787 0.929 . S
H778 C782 0.929 . S
H779 C788 0.929 . S
C780 H774 0.930 . S
C780 C781 1.367 . S
C780 C788 1.378 . S
C781 C780 1.367 . S
C781 C789 1.433 . S
C782 H778 0.929 . S
C782 C784 1.378 . S
C782 C786 1.350 . S
C783 C786 1.463 . S
C783 C788 1.350 . S
C783 N791 1.427 . S
C784 H775 0.930 . S
C784 C782 1.378 . S
C784 C785 1.367 . S
C785 C784 1.367 . S
C785 C787 1.433 . S
C786 C782 1.350 . S
C786 C783 1.463 . S
C786 N790 1.427 . S
C787 H777 0.929 . S
C787 C785 1.433 . S
C787 N790 1.384 . S
C788 H779 0.929 . S
C788 C780 1.378 . S
C788 C783 1.350 . S
C789 H776 0.929 . S
C789 C781 1.433 . S
C789 N791 1.384 . S
N790 C786 1.427 . S
N790 C787 1.384 . S
N791 C783 1.427 . S
N791 C789 1.384 . S
H792 C798 0.930 . S
H793 C802 0.930 . S
H794 C807 0.929 . S
H795 C805 0.929 . S
H796 C800 0.929 . S
H797 C806 0.929 . S
C798 H792 0.930 . S
C798 C799 1.367 . S
C798 C806 1.378 . S
C799 C798 1.367 . S
C799 C807 1.433 . S
C800 H796 0.929 . S
C800 C802 1.378 . S
C800 C804 1.350 . S
C801 C804 1.463 . S
C801 C806 1.350 . S
C801 N809 1.427 . S
C802 H793 0.930 . S
C802 C800 1.378 . S
C802 C803 1.367 . S
C803 C802 1.367 . S
C803 C805 1.433 . S
C804 C800 1.350 . S
C804 C801 1.463 . S
C804 N808 1.427 . S
C805 H795 0.929 . S
C805 C803 1.433 . S
C805 N808 1.384 . S
C806 H797 0.929 . S
C806 C798 1.378 . S
C806 C801 1.350 . S
C807 H794 0.929 . S
C807 C799 1.433 . S
C807 N809 1.384 . S
N808 C804 1.427 . S
N808 C805 1.384 . S
N809 C801 1.427 . S
N809 C807 1.384 . S
H810 C816 0.930 . S
H811 C820 0.930 . S
H812 C825 0.929 . S
H813 C823 0.929 . S
H814 C818 0.929 . S
H815 C824 0.929 . S
C816 H810 0.930 . S
C816 C817 1.367 . S
C816 C824 1.378 . S
C817 C816 1.367 . S
C817 C825 1.433 . S
C818 H814 0.929 . S
C818 C820 1.378 . S
C818 C822 1.350 . S
C819 C822 1.463 . S
C819 C824 1.350 . S
C819 N827 1.427 . S
C820 H811 0.930 . S
C820 C818 1.378 . S
C820 C821 1.367 . S
C821 C820 1.367 . S
C821 C823 1.433 . S
C822 C818 1.350 . S
C822 C819 1.463 . S
C822 N826 1.427 . S
C823 H813 0.929 . S
C823 C821 1.433 . S
C823 N826 1.384 . S
C824 H815 0.929 . S
C824 C816 1.378 . S
C824 C819 1.350 . S
C825 H812 0.929 . S
C825 C817 1.433 . S
C825 N827 1.384 . S
N826 C822 1.427 . S
N826 C823 1.384 . S
N827 C819 1.427 . S
N827 C825 1.384 . S
C403 C235 1.423 . S
C407 C328 1.387 . S
C425 C336 1.378 . S
C421 C289 1.412 . S
C443 C340 1.365 . S
C439 C157 1.417 . S
C457 C211 1.401 . S
C461 C316 1.361 . S
C479 C357 1.385 . S
C475 C79 1.418 . S
C497 C391 1.376 . S
C493 C118 1.428 . S
C511 C1 1.408 . S
C515 C379 1.364 . S
C529 C40 1.413 . S
C533 C361 1.365 . S
C551 C315 1.289 . S
C547 C55 1.445 . S
C569 C349 1.299 . S
C565 C16 1.451 . S
C587 C353 1.295 . S
C583 C133 1.447 . S
C605 C331 1.297 . S
C601 C94 1.448 . S
C623 C370 1.319 . S
C619 C196 1.451 . S
C637 C172 1.453 . S
C641 C378 1.294 . S
C659 C394 1.295 . S
C655 C274 1.457 . S
C673 C250 1.456 . S
C677 C374 1.304 . S
C695 C319 1.316 . S
C691 C21 1.496 . S
C713 C337 1.329 . S
C709 C60 1.502 . S
C727 C99 1.483 . S
C731 C352 1.303 . S
C749 C332 1.325 . S
C745 C138 1.487 . S
C767 C358 1.305 . S
C763 C177 1.507 . S
C781 C216 1.501 . S
C785 C382 1.306 . S
C799 C255 1.494 . S
C803 C395 1.303 . S
C817 C294 1.488 . S
C821 C373 1.322 . S
