# Generated by pormake.
# Topology ssb, (4,4)-cn, num edge types: 1
# Building blocks:
#     Node 0, Type 0, BuildingBlock: NAWXER_clean_linker_0, # of connection points: 4
#     Node 1, Type 0, BuildingBlock: NAWXER_clean_linker_0, # of connection points: 4
#     Node 2, Type 0, BuildingBlock: NAWXER_clean_linker_0, # of connection points: 4
#     Node 3, Type 0, BuildingBlock: NAWXER_clean_linker_0, # of connection points: 4
#     Node 4, Type 0, BuildingBlock: NAWXER_clean_linker_0, # of connection points: 4
#     Node 5, Type 0, BuildingBlock: NAWXER_clean_linker_0, # of connection points: 4
#     Node 6, Type 0, BuildingBlock: NAWXER_clean_linker_0, # of connection points: 4
#     Node 7, Type 0, BuildingBlock: NAWXER_clean_linker_0, # of connection points: 4
#     Node 8, Type 1, BuildingBlock: KOZSID_clean_sbu_0, # of connection points: 4
#     Node 9, Type 1, BuildingBlock: KOZSID_clean_sbu_0, # of connection points: 4
#     Node 10, Type 1, BuildingBlock: KOZSID_clean_sbu_0, # of connection points: 4
#     Node 11, Type 1, BuildingBlock: KOZSID_clean_sbu_0, # of connection points: 4
#     Node 12, Type 1, BuildingBlock: KOZSID_clean_sbu_0, # of connection points: 4
#     Node 13, Type 1, BuildingBlock: KOZSID_clean_sbu_0, # of connection points: 4
#     Node 14, Type 1, BuildingBlock: KOZSID_clean_sbu_0, # of connection points: 4
#     Node 15, Type 1, BuildingBlock: KOZSID_clean_sbu_0, # of connection points: 4
#     Edge 16, Type (0, 1), BuildingBlock: UVAHIK_clean_linker_0, # of connection points: 2
#     Edge 17, Type (0, 1), BuildingBlock: UVAHIK_clean_linker_0, # of connection points: 2
#     Edge 18, Type (0, 1), BuildingBlock: UVAHIK_clean_linker_0, # of connection points: 2
#     Edge 19, Type (0, 1), BuildingBlock: UVAHIK_clean_linker_0, # of connection points: 2
#     Edge 20, Type (0, 1), BuildingBlock: UVAHIK_clean_linker_0, # of connection points: 2
#     Edge 21, Type (0, 1), BuildingBlock: UVAHIK_clean_linker_0, # of connection points: 2
#     Edge 22, Type (0, 1), BuildingBlock: UVAHIK_clean_linker_0, # of connection points: 2
#     Edge 23, Type (0, 1), BuildingBlock: UVAHIK_clean_linker_0, # of connection points: 2
#     Edge 24, Type (0, 1), BuildingBlock: UVAHIK_clean_linker_0, # of connection points: 2
#     Edge 25, Type (0, 1), BuildingBlock: UVAHIK_clean_linker_0, # of connection points: 2
#     Edge 26, Type (0, 1), BuildingBlock: UVAHIK_clean_linker_0, # of connection points: 2
#     Edge 27, Type (0, 1), BuildingBlock: UVAHIK_clean_linker_0, # of connection points: 2
#     Edge 28, Type (0, 1), BuildingBlock: UVAHIK_clean_linker_0, # of connection points: 2
#     Edge 29, Type (0, 1), BuildingBlock: UVAHIK_clean_linker_0, # of connection points: 2
#     Edge 30, Type (0, 1), BuildingBlock: UVAHIK_clean_linker_0, # of connection points: 2
#     Edge 31, Type (0, 1), BuildingBlock: UVAHIK_clean_linker_0, # of connection points: 2
#     Edge 32, Type (0, 1), BuildingBlock: UVAHIK_clean_linker_0, # of connection points: 2
#     Edge 33, Type (0, 1), BuildingBlock: UVAHIK_clean_linker_0, # of connection points: 2
#     Edge 34, Type (0, 1), BuildingBlock: UVAHIK_clean_linker_0, # of connection points: 2
#     Edge 35, Type (0, 1), BuildingBlock: UVAHIK_clean_linker_0, # of connection points: 2
#     Edge 36, Type (0, 1), BuildingBlock: UVAHIK_clean_linker_0, # of connection points: 2
#     Edge 37, Type (0, 1), BuildingBlock: UVAHIK_clean_linker_0, # of connection points: 2
#     Edge 38, Type (0, 1), BuildingBlock: UVAHIK_clean_linker_0, # of connection points: 2
#     Edge 39, Type (0, 1), BuildingBlock: UVAHIK_clean_linker_0, # of connection points: 2
#     Edge 40, Type (0, 1), BuildingBlock: UVAHIK_clean_linker_0, # of connection points: 2
#     Edge 41, Type (0, 1), BuildingBlock: UVAHIK_clean_linker_0, # of connection points: 2
#     Edge 42, Type (0, 1), BuildingBlock: UVAHIK_clean_linker_0, # of connection points: 2
#     Edge 43, Type (0, 1), BuildingBlock: UVAHIK_clean_linker_0, # of connection points: 2
#     Edge 44, Type (0, 1), BuildingBlock: UVAHIK_clean_linker_0, # of connection points: 2
#     Edge 45, Type (0, 1), BuildingBlock: UVAHIK_clean_linker_0, # of connection points: 2
#     Edge 46, Type (0, 1), BuildingBlock: UVAHIK_clean_linker_0, # of connection points: 2
#     Edge 47, Type (0, 1), BuildingBlock: UVAHIK_clean_linker_0, # of connection points: 2
# Relax obj value: 0.002
# Max RMSD: 0.025
# Mean RMSD: 0.015
data_MOF--net-ssb--node1-KOZSID_clean_sbu_0--node2-NAWXER_clean_linker_0--edge1-UVAHIK_clean_linker_0
_symmetry_space_group_name_H-M    P1
_symmetry_Int_Tables_number       1
_symmetry_cell_setting            triclinic
loop_
_symmetry_equiv_pos_as_xyz
'x, y, z'
_cell_length_a     77.772822
_cell_length_b     77.388095
_cell_length_c     57.218439
_cell_angle_alpha  91.798177
_cell_angle_beta   93.694753
_cell_angle_gamma 90.000251
loop_
_atom_site_label
_atom_site_type_symbol
_atom_site_fract_x
_atom_site_fract_y
_atom_site_fract_z
_atom_type_partial_charge
C0 C 0.28875 0.24669 0.19374 0.0
C1 C 0.3057 0.24616 0.20385 0.0
C2 C 0.27475 0.24643 0.20783 0.0
C3 C 0.27745 0.24576 0.23229 0.0
C4 C 0.30834 0.24519 0.22831 0.0
C5 C 0.29433 0.24488 0.24238 0.0
C6 C 0.26277 0.24542 0.24741 0.0
C7 C 0.26256 0.29791 0.21527 0.0
C8 C 0.2475 0.30186 0.20149 0.0
C9 C 0.26314 0.28356 0.22963 0.0
C10 C 0.24876 0.2726 0.23031 0.0
C11 C 0.23302 0.29104 0.20255 0.0
C12 C 0.23364 0.27665 0.21685 0.0
C13 C 0.24906 0.25743 0.24576 0.0
C14 C 0.20955 0.24227 0.32932 0.0
C15 C 0.19258 0.2436 0.31948 0.0
C16 C 0.22342 0.24171 0.31498 0.0
C17 C 0.22056 0.24231 0.29054 0.0
C18 C 0.18978 0.24429 0.29501 0.0
C19 C 0.20366 0.24377 0.28069 0.0
C20 C 0.23514 0.24248 0.27523 0.0
C21 C 0.23522 0.18995 0.30705 0.0
C22 C 0.24999 0.18637 0.32163 0.0
C23 C 0.23479 0.20422 0.29255 0.0
C24 C 0.24907 0.21535 0.29238 0.0
C25 C 0.26435 0.19741 0.32117 0.0
C26 C 0.26393 0.21165 0.30659 0.0
C27 C 0.24884 0.23047 0.27688 0.0
H28 H 0.28631 0.24751 0.17495 0.0
H29 H 0.26181 0.24671 0.19962 0.0
H30 H 0.32124 0.24447 0.23656 0.0
H31 H 0.29668 0.24413 0.26119 0.0
H32 H 0.274 0.30583 0.21488 0.0
H33 H 0.27482 0.28113 0.24035 0.0
H34 H 0.22109 0.29382 0.19259 0.0
H35 H 0.22227 0.2686 0.2173 0.0
H36 H 0.2121 0.24163 0.3481 0.0
H37 H 0.23638 0.24103 0.32303 0.0
H38 H 0.17688 0.24559 0.28694 0.0
H39 H 0.2012 0.24449 0.26189 0.0
H40 H 0.2239 0.1818 0.307 0.0
H41 H 0.2233 0.20648 0.28135 0.0
H42 H 0.27604 0.19491 0.33185 0.0
H43 H 0.27519 0.21988 0.30659 0.0
N44 N 0.26219 0.23251 0.26297 0.0
N45 N 0.23573 0.25538 0.25968 0.0
C46 C 0.68604 0.27767 0.23858 0.0
C47 C 0.6831 0.26376 0.22242 0.0
C48 C 0.70113 0.27842 0.25324 0.0
C49 C 0.71356 0.26533 0.25185 0.0
C50 C 0.69543 0.25052 0.22143 0.0
C51 C 0.71046 0.25127 0.23608 0.0
C52 C 0.72962 0.2658 0.26712 0.0
C53 C 0.73393 0.31068 0.21984 0.0
C54 C 0.73588 0.32689 0.23147 0.0
C55 C 0.73499 0.29555 0.23244 0.0
C56 C 0.73771 0.29637 0.25694 0.0
C57 C 0.73853 0.3277 0.25599 0.0
C58 C 0.73949 0.31255 0.26861 0.0
C59 C 0.74044 0.28047 0.27022 0.0
C60 C 0.80421 0.25111 0.3179 0.0
C61 C 0.80855 0.26407 0.33501 0.0
C62 C 0.78834 0.25143 0.3051 0.0
C63 C 0.77642 0.26459 0.30938 0.0
C64 C 0.79675 0.27747 0.33888 0.0
C65 C 0.78085 0.27777 0.32605 0.0
C66 C 0.75956 0.2649 0.29599 0.0
C67 C 0.75874 0.21913 0.34159 0.0
C68 C 0.75788 0.20317 0.32915 0.0
C69 C 0.75574 0.23449 0.32993 0.0
C70 C 0.75202 0.23417 0.30559 0.0
C71 C 0.75404 0.20288 0.30481 0.0
C72 C 0.75104 0.21827 0.29315 0.0
C73 C 0.74865 0.25033 0.29312 0.0
H74 H 0.67679 0.28807 0.2397 0.0
H75 H 0.70305 0.28919 0.26569 0.0
H76 H 0.69339 0.23948 0.20946 0.0
H77 H 0.71979 0.24093 0.23491 0.0
H78 H 0.73226 0.30966 0.20091 0.0
H79 H 0.73424 0.28322 0.22294 0.0
H80 H 0.74001 0.34004 0.26539 0.0
H81 H 0.74181 0.31344 0.28749 0.0
H82 H 0.81297 0.24056 0.3146 0.0
H83 H 0.78539 0.24138 0.29185 0.0
H84 H 0.79985 0.28778 0.35168 0.0
H85 H 0.77192 0.28818 0.32935 0.0
H86 H 0.76174 0.21974 0.36035 0.0
H87 H 0.75618 0.2466 0.33996 0.0
H88 H 0.75302 0.19075 0.29485 0.0
H89 H 0.74802 0.21776 0.27439 0.0
N90 N 0.73417 0.25127 0.27867 0.0
N91 N 0.75497 0.27947 0.2846 0.0
C92 C 0.70477 0.74978 0.18373 0.0
C93 C 0.68868 0.75143 0.19348 0.0
C94 C 0.71999 0.75061 0.19805 0.0
C95 C 0.71941 0.75272 0.22245 0.0
C96 C 0.68818 0.75383 0.21789 0.0
C97 C 0.7034 0.75451 0.23221 0.0
C98 C 0.73539 0.75409 0.23782 0.0
C99 C 0.73575 0.70039 0.20488 0.0
C100 C 0.74968 0.69692 0.19092 0.0
C101 C 0.7356 0.7153 0.21934 0.0
C102 C 0.74928 0.72721 0.21999 0.0
C103 C 0.76344 0.70878 0.19183 0.0
C104 C 0.76328 0.72369 0.20629 0.0
C105 C 0.74958 0.74284 0.2358 0.0
C106 C 0.79548 0.75894 0.32047 0.0
C107 C 0.81165 0.75895 0.31075 0.0
C108 C 0.78034 0.75965 0.30605 0.0
C109 C 0.7811 0.76036 0.28168 0.0
C110 C 0.8123 0.76011 0.28633 0.0
C111 C 0.79716 0.76062 0.27193 0.0
C112 C 0.76528 0.75921 0.26613 0.0
C113 C 0.76459 0.81182 0.3022 0.0
C114 C 0.75024 0.81506 0.31546 0.0
C115 C 0.76499 0.79728 0.28704 0.0
C116 C 0.75116 0.78551 0.28503 0.0
C117 C 0.73636 0.80333 0.31326 0.0
C118 C 0.7368 0.78878 0.29814 0.0
C119 C 0.75105 0.77035 0.26839 0.0
H120 H 0.70563 0.74781 0.16502 0.0
H121 H 0.73219 0.74977 0.18998 0.0
H122 H 0.67604 0.75551 0.22594 0.0
H123 H 0.70266 0.75643 0.25096 0.0
H124 H 0.72488 0.69161 0.20455 0.0
H125 H 0.72485 0.71742 0.23021 0.0
H126 H 0.77452 0.70639 0.18166 0.0
H127 H 0.77411 0.73253 0.20673 0.0
H128 H 0.79448 0.75777 0.33914 0.0
H129 H 0.76804 0.75905 0.31386 0.0
H130 H 0.82452 0.76047 0.27828 0.0
H131 H 0.79797 0.76109 0.25312 0.0
H132 H 0.77535 0.82074 0.30309 0.0
H133 H 0.77598 0.79547 0.27654 0.0
H134 H 0.72518 0.80531 0.32336 0.0
H135 H 0.7259 0.78 0.2968 0.0
N136 N 0.73664 0.76729 0.25413 0.0
N137 N 0.76401 0.74597 0.24994 0.0
C138 C 0.308 0.7268 0.208 0.0
C139 C 0.31138 0.74165 0.1955 0.0
C140 C 0.29403 0.7264 0.2222 0.0
C141 C 0.28299 0.74071 0.22376 0.0
C142 C 0.30046 0.75602 0.19735 0.0
C143 C 0.28644 0.75555 0.21135 0.0
C144 C 0.26843 0.74086 0.23924 0.0
C145 C 0.25426 0.69781 0.18628 0.0
C146 C 0.2506 0.68176 0.19575 0.0
C147 C 0.25697 0.71248 0.20089 0.0
C148 C 0.25653 0.71128 0.22527 0.0
C149 C 0.25046 0.68058 0.2202 0.0
C150 C 0.25341 0.69517 0.23478 0.0
C151 C 0.25688 0.72689 0.24078 0.0
C152 C 0.20175 0.75709 0.29849 0.0
C153 C 0.19853 0.74294 0.31244 0.0
C154 C 0.21593 0.75707 0.28472 0.0
C155 C 0.22742 0.74306 0.28498 0.0
C156 C 0.20989 0.7288 0.31232 0.0
C157 C 0.22416 0.72885 0.29868 0.0
C158 C 0.24226 0.74262 0.27001 0.0
C159 C 0.2509 0.78735 0.32056 0.0
C160 C 0.25014 0.80339 0.30969 0.0
C161 C 0.25231 0.77209 0.30723 0.0
C162 C 0.25283 0.77262 0.28279 0.0
C163 C 0.25109 0.8039 0.28529 0.0
C164 C 0.25253 0.78863 0.27196 0.0
C165 C 0.25372 0.7566 0.26837 0.0
H166 H 0.31638 0.71565 0.2072 0.0
H167 H 0.29205 0.715 0.23221 0.0
H168 H 0.30266 0.76758 0.18777 0.0
H169 H 0.2782 0.76681 0.2124 0.0
H170 H 0.25467 0.69915 0.16755 0.0
H171 H 0.25877 0.72483 0.193 0.0
H172 H 0.24738 0.66853 0.22812 0.0
H173 H 0.25274 0.69398 0.25352 0.0
H174 H 0.19335 0.76825 0.29826 0.0
H175 H 0.2178 0.76794 0.27369 0.0
H176 H 0.20763 0.71753 0.32245 0.0
H177 H 0.23267 0.71777 0.29884 0.0
H178 H 0.25014 0.78658 0.33934 0.0
H179 H 0.25289 0.75986 0.31596 0.0
H180 H 0.25084 0.81611 0.27652 0.0
H181 H 0.25309 0.78929 0.25314 0.0
N182 N 0.26629 0.75521 0.25302 0.0
N183 N 0.24436 0.72831 0.25622 0.0
C184 C 0.19264 0.77935 0.70702 0.0
C185 C 0.18814 0.76478 0.69263 0.0
C186 C 0.20747 0.77921 0.72214 0.0
C187 C 0.21807 0.76453 0.72301 0.0
C188 C 0.19881 0.75013 0.69354 0.0
C189 C 0.21357 0.74997 0.70871 0.0
C190 C 0.23328 0.76376 0.7397 0.0
C191 C 0.24571 0.80379 0.68744 0.0
C192 C 0.2473 0.82073 0.69716 0.0
C193 C 0.24517 0.78953 0.70186 0.0
C194 C 0.24624 0.7918 0.72636 0.0
C195 C 0.24843 0.8229 0.72177 0.0
C196 C 0.24807 0.8086 0.73616 0.0
C197 C 0.24613 0.77672 0.74183 0.0
C198 C 0.30265 0.74315 0.79942 0.0
C199 C 0.30838 0.75703 0.81435 0.0
C200 C 0.28718 0.74431 0.7858 0.0
C201 C 0.27711 0.75933 0.78701 0.0
C202 C 0.29831 0.77209 0.8154 0.0
C203 C 0.28287 0.77327 0.8017 0.0
C204 C 0.26108 0.76093 0.77204 0.0
C205 C 0.25188 0.71985 0.82393 0.0
C206 C 0.24654 0.70358 0.81436 0.0
C207 C 0.25225 0.73433 0.80986 0.0
C208 C 0.24779 0.73287 0.78565 0.0
C209 C 0.24158 0.70229 0.79024 0.0
C210 C 0.24222 0.71672 0.77612 0.0
C211 C 0.248 0.74813 0.77032 0.0
H212 H 0.18467 0.79082 0.70662 0.0
H213 H 0.21048 0.79044 0.73343 0.0
H214 H 0.19552 0.73862 0.68293 0.0
H215 H 0.22148 0.73845 0.70932 0.0
H216 H 0.2452 0.80147 0.66866 0.0
H217 H 0.24418 0.77667 0.69383 0.0
H218 H 0.2494 0.83567 0.73002 0.0
H219 H 0.249 0.81068 0.75501 0.0
H220 H 0.31011 0.73136 0.79834 0.0
H221 H 0.28317 0.73355 0.77415 0.0
H222 H 0.30254 0.78308 0.82648 0.0
H223 H 0.27538 0.78505 0.80261 0.0
H224 H 0.25592 0.72148 0.84232 0.0
H225 H 0.25591 0.74669 0.81806 0.0
H226 H 0.23696 0.69018 0.78219 0.0
H227 H 0.23838 0.7152 0.75763 0.0
N228 N 0.23471 0.75004 0.75398 0.0
N229 N 0.25953 0.77478 0.75797 0.0
C230 C 0.31572 0.27494 0.80144 0.0
C231 C 0.31874 0.26144 0.81705 0.0
C232 C 0.29979 0.27638 0.78889 0.0
C233 C 0.28654 0.26452 0.7921 0.0
C234 C 0.30547 0.24957 0.82011 0.0
C235 C 0.28956 0.25106 0.80768 0.0
C236 C 0.2699 0.26516 0.77818 0.0
C237 C 0.27286 0.31418 0.82222 0.0
C238 C 0.27175 0.32937 0.80941 0.0
C239 C 0.26915 0.29817 0.81116 0.0
C240 C 0.26463 0.29706 0.787 0.0
C241 C 0.26712 0.32826 0.78528 0.0
C242 C 0.26358 0.31223 0.77418 0.0
C243 C 0.26001 0.28034 0.77518 0.0
C244 C 0.1945 0.25193 0.72632 0.0
C245 C 0.19082 0.26491 0.71011 0.0
C246 C 0.2102 0.25187 0.73957 0.0
C247 C 0.22261 0.26467 0.73667 0.0
C248 C 0.20309 0.27798 0.7077 0.0
C249 C 0.21881 0.2779 0.72096 0.0
C250 C 0.2394 0.26454 0.75031 0.0
C251 C 0.24205 0.2177 0.70204 0.0
C252 C 0.2438 0.20187 0.71333 0.0
C253 C 0.24313 0.23325 0.715 0.0
C254 C 0.24585 0.23323 0.73948 0.0
C255 C 0.24595 0.20186 0.73789 0.0
C256 C 0.24709 0.21744 0.75085 0.0
C257 C 0.24949 0.2495 0.75295 0.0
H258 H 0.3258 0.28413 0.7985 0.0
H259 H 0.29795 0.28655 0.77641 0.0
H260 H 0.30736 0.23915 0.83222 0.0
H261 H 0.27956 0.24169 0.81027 0.0
H262 H 0.27602 0.31473 0.84095 0.0
H263 H 0.26946 0.28673 0.8216 0.0
H264 H 0.26617 0.3398 0.77504 0.0
H265 H 0.25996 0.31167 0.75557 0.0
H266 H 0.18536 0.24164 0.72851 0.0
H267 H 0.21263 0.24179 0.75207 0.0
H268 H 0.20051 0.28832 0.69565 0.0
H269 H 0.22811 0.28803 0.71868 0.0
H270 H 0.24029 0.21804 0.68312 0.0
H271 H 0.24257 0.24528 0.70579 0.0
H272 H 0.24753 0.18985 0.747 0.0
H273 H 0.2494 0.21718 0.76971 0.0
N274 N 0.26423 0.25036 0.76694 0.0
N275 N 0.24513 0.27943 0.76135 0.0
C276 C 0.80272 0.23502 0.71725 0.0
C277 C 0.80662 0.24985 0.70502 0.0
C278 C 0.78853 0.23488 0.73104 0.0
C279 C 0.7778 0.24943 0.73244 0.0
C280 C 0.79599 0.26445 0.70668 0.0
C281 C 0.78175 0.26425 0.72031 0.0
C282 C 0.7631 0.24982 0.74759 0.0
C283 C 0.75139 0.20787 0.69245 0.0
C284 C 0.74873 0.19131 0.70111 0.0
C285 C 0.75199 0.22252 0.70748 0.0
C286 C 0.75035 0.22095 0.73165 0.0
C287 C 0.74664 0.18986 0.72524 0.0
C288 C 0.74741 0.2045 0.74028 0.0
C289 C 0.75081 0.23635 0.74793 0.0
C290 C 0.69808 0.26689 0.80983 0.0
C291 C 0.69445 0.25232 0.82278 0.0
C292 C 0.71186 0.26673 0.79533 0.0
C293 C 0.7225 0.25212 0.79386 0.0
C294 C 0.70489 0.23757 0.82079 0.0
C295 C 0.71874 0.23747 0.80643 0.0
C296 C 0.73712 0.25167 0.77855 0.0
C297 C 0.74883 0.29391 0.83337 0.0
C298 C 0.75093 0.31047 0.82439 0.0
C299 C 0.74842 0.27916 0.81853 0.0
C300 C 0.74978 0.28062 0.79429 0.0
C301 C 0.75276 0.31181 0.80019 0.0
C302 C 0.75223 0.29707 0.78536 0.0
C303 C 0.74939 0.26514 0.77818 0.0
H304 H 0.81087 0.22369 0.71659 0.0
H305 H 0.78611 0.22349 0.74086 0.0
H306 H 0.79862 0.27601 0.69731 0.0
H307 H 0.77375 0.27568 0.72132 0.0
H308 H 0.75316 0.20955 0.67404 0.0
H309 H 0.75367 0.23508 0.70012 0.0
H310 H 0.74417 0.17744 0.73255 0.0
H311 H 0.74579 0.20293 0.75876 0.0
H312 H 0.69037 0.2785 0.81103 0.0
H313 H 0.71416 0.27801 0.78524 0.0
H314 H 0.70225 0.226 0.83011 0.0
H315 H 0.7266 0.22596 0.80525 0.0
H316 H 0.7473 0.29233 0.85185 0.0
H317 H 0.74708 0.2666 0.82606 0.0
H318 H 0.75479 0.32425 0.79267 0.0
H319 H 0.7536 0.29855 0.76681 0.0
N320 N 0.7618 0.26368 0.76259 0.0
N321 N 0.7384 0.23781 0.76355 0.0
C322 C 0.78591 0.75121 0.67191 0.0
C323 C 0.80294 0.74968 0.68145 0.0
C324 C 0.77207 0.74995 0.68618 0.0
C325 C 0.77504 0.74716 0.71024 0.0
C326 C 0.80584 0.74685 0.70552 0.0
C327 C 0.79201 0.74545 0.71974 0.0
C328 C 0.76054 0.74521 0.72543 0.0
C329 C 0.7592 0.80091 0.70502 0.0
C330 C 0.74367 0.8061 0.69338 0.0
C331 C 0.76043 0.78484 0.7154 0.0
C332 C 0.74624 0.77356 0.71398 0.0
C333 C 0.72948 0.79478 0.69206 0.0
C334 C 0.73076 0.77869 0.70231 0.0
C335 C 0.74683 0.7571 0.72632 0.0
C336 C 0.70858 0.73481 0.80773 0.0
C337 C 0.69167 0.73837 0.79903 0.0
C338 C 0.72215 0.73471 0.79284 0.0
C339 C 0.71902 0.73793 0.76892 0.0
C340 C 0.68857 0.74141 0.77503 0.0
C341 C 0.70212 0.74128 0.76017 0.0
C342 C 0.73336 0.73947 0.75331 0.0
C343 C 0.73388 0.68421 0.77444 0.0
C344 C 0.74911 0.67915 0.78693 0.0
C345 C 0.7331 0.69996 0.76322 0.0
C346 C 0.74746 0.71103 0.7646 0.0
C347 C 0.76354 0.69012 0.78792 0.0
C348 C 0.76274 0.70589 0.77676 0.0
C349 C 0.74702 0.7275 0.75229 0.0
H350 H 0.7833 0.75344 0.65342 0.0
H351 H 0.75906 0.75095 0.67838 0.0
H352 H 0.81881 0.74536 0.71328 0.0
H353 H 0.79456 0.74311 0.73821 0.0
H354 H 0.77039 0.8093 0.70621 0.0
H355 H 0.77235 0.78143 0.72497 0.0
H356 H 0.71725 0.7985 0.68359 0.0
H357 H 0.71957 0.77029 0.70133 0.0
H358 H 0.71143 0.73269 0.82619 0.0
H359 H 0.73514 0.73264 0.80019 0.0
H360 H 0.67566 0.74397 0.76773 0.0
H361 H 0.69941 0.74392 0.74182 0.0
H362 H 0.72265 0.67587 0.77305 0.0
H363 H 0.72135 0.70338 0.75324 0.0
H364 H 0.7754 0.68663 0.79761 0.0
H365 H 0.77401 0.71417 0.77783 0.0
N366 N 0.76014 0.7309 0.73853 0.0
N367 N 0.73377 0.75372 0.74015 0.0
C368 C 0.02618 0.27156 0.55511 0.0
C369 C 0.03102 0.28762 0.56487 0.0
C370 C 0.02194 0.29963 0.55229 0.0
C371 C 0.01205 0.29026 0.53574 0.0
N372 N 0.01415 0.27295 0.5371 0.0
Co373 Co 0.00214 0.2545 0.51677 0.0
N374 N 0.98989 0.27223 0.49708 0.0
C375 C 0.99187 0.28961 0.49889 0.0
C376 C 0.98172 0.29838 0.48279 0.0
C377 C 0.97255 0.28588 0.4701 0.0
C378 C 0.97763 0.27017 0.47935 0.0
N379 N 0.98967 0.23606 0.49687 0.0
C380 C 0.97699 0.23752 0.47967 0.0
C381 C 0.971 0.22147 0.47122 0.0
C382 C 0.98011 0.2094 0.4837 0.0
C383 C 0.99103 0.21874 0.49904 0.0
N384 N 0.01484 0.23676 0.53606 0.0
C385 C 0.0138 0.21936 0.53313 0.0
C386 C 0.0247 0.21058 0.54831 0.0
C387 C 0.03342 0.2231 0.56154 0.0
C388 C 0.02722 0.23886 0.55368 0.0
N389 N 0.98301 0.25463 0.53808 0.0
C390 C 0.95464 0.2544 0.56632 0.0
C391 C 0.96343 0.23918 0.5611 0.0
C392 C 0.97742 0.23957 0.54706 0.0
C393 C 0.96053 0.26982 0.55754 0.0
C394 C 0.97466 0.26965 0.54365 0.0
N395 N 0.02126 0.25436 0.49539 0.0
C396 C 0.04047 0.23866 0.47086 0.0
C397 C 0.04867 0.25395 0.46552 0.0
C398 C 0.04292 0.26947 0.47536 0.0
C399 C 0.02927 0.26938 0.49008 0.0
C400 C 0.02696 0.23915 0.48573 0.0
H401 H 0.02548 0.28163 0.49696 0.0
H402 H 0.02143 0.22703 0.48923 0.0
H403 H 0.9834 0.22749 0.54358 0.0
H404 H 0.97844 0.2818 0.53739 0.0
C405 C 0.00193 0.29734 0.51742 0.0
C406 C 0.03401 0.25545 0.56282 0.0
C407 C 0.96967 0.25378 0.47166 0.0
C408 C 0.00248 0.21165 0.51593 0.0
H409 H 0.04046 0.29036 0.57925 0.0
H410 H 0.02283 0.31356 0.55447 0.0
H411 H 0.98062 0.31223 0.48108 0.0
H412 H 0.96286 0.28807 0.45608 0.0
H413 H 0.96086 0.21877 0.45775 0.0
H414 H 0.9787 0.19549 0.4821 0.0
H415 H 0.02629 0.19673 0.5494 0.0
H416 H 0.04338 0.22088 0.57519 0.0
H417 H 0.95961 0.22694 0.56786 0.0
H418 H 0.95408 0.28196 0.56093 0.0
H419 H 0.04465 0.22628 0.46393 0.0
H420 H 0.04878 0.28167 0.47154 0.0
C421 C 0.72767 0.03179 0.53682 0.0
C422 C 0.71166 0.03851 0.54154 0.0
C423 C 0.69971 0.02921 0.52795 0.0
C424 C 0.70901 0.01728 0.5159 0.0
N425 N 0.72622 0.01834 0.521 0.0
Co426 Co 0.74438 0.00296 0.50805 0.0
N427 N 0.7268 0.98982 0.48721 0.0
C428 C 0.70967 0.99296 0.48481 0.0
C429 C 0.70089 0.98205 0.46892 0.0
C430 C 0.71312 0.97125 0.46066 0.0
C431 C 0.72871 0.97615 0.47215 0.0
N432 N 0.76248 0.98725 0.49561 0.0
C433 C 0.76097 0.97353 0.48024 0.0
C434 C 0.77678 0.96568 0.47731 0.0
C435 C 0.78871 0.97479 0.49119 0.0
C436 C 0.77956 0.98756 0.50188 0.0
N437 N 0.76203 0.01643 0.52837 0.0
C438 C 0.77929 0.014 0.52959 0.0
C439 C 0.78825 0.02578 0.54398 0.0
C440 C 0.77603 0.03649 0.5524 0.0
C441 C 0.76019 0.03049 0.5428 0.0
N442 N 0.74137 0.98673 0.53355 0.0
C443 C 0.73735 0.96237 0.56819 0.0
C444 C 0.75354 0.96921 0.56465 0.0
C445 C 0.75524 0.98128 0.54736 0.0
C446 C 0.72314 0.96826 0.55461 0.0
C447 C 0.72542 0.98041 0.5376 0.0
N448 N 0.7474 0.01925 0.48263 0.0
C449 C 0.76605 0.03621 0.4601 0.0
C450 C 0.752 0.04564 0.45108 0.0
C451 C 0.73553 0.04092 0.45686 0.0
C452 C 0.73353 0.02769 0.47241 0.0
C453 C 0.76347 0.02312 0.47572 0.0
H454 H 0.72067 0.02485 0.47633 0.0
H455 H 0.77472 0.01668 0.48245 0.0
H456 H 0.76795 0.98578 0.54528 0.0
H457 H 0.71408 0.98431 0.52779 0.0
C458 C 0.70206 0.00557 0.49876 0.0
C459 C 0.74385 0.03877 0.54766 0.0
C460 C 0.7449 0.96729 0.46827 0.0
C461 C 0.78669 1.00033 0.51733 0.0
H462 H 0.70889 0.04914 0.55345 0.0
H463 H 0.68589 0.03107 0.52676 0.0
H464 H 0.68719 0.98181 0.46418 0.0
H465 H 0.7108 0.96084 0.44777 0.0
H466 H 0.77943 0.95447 0.46634 0.0
H467 H 0.80243 0.9724 0.49322 0.0
H468 H 0.80205 0.02655 0.5478 0.0
H469 H 0.77855 0.04754 0.56417 0.0
H470 H 0.76495 0.96489 0.57464 0.0
H471 H 0.7103 0.96346 0.557 0.0
H472 H 0.77905 0.03941 0.45599 0.0
H473 H 0.72424 0.04766 0.44979 0.0
C474 C 0.02446 0.76533 0.53606 0.0
C475 C 0.02993 0.78181 0.54351 0.0
C476 C 0.02148 0.79311 0.52905 0.0
C477 C 0.01145 0.78296 0.51359 0.0
N478 N 0.01278 0.76583 0.51748 0.0
Co479 Co 0.00129 0.74641 0.49833 0.0
N480 N 0.98933 0.76307 0.47664 0.0
C481 C 0.99055 0.78052 0.47755 0.0
C482 C 0.98034 0.78843 0.46066 0.0
C483 C 0.97177 0.77527 0.44855 0.0
C484 C 0.97725 0.76006 0.45889 0.0
N485 N 0.99009 0.727 0.47884 0.0
C486 C 0.97795 0.72751 0.4608 0.0
C487 C 0.97308 0.71104 0.45263 0.0
C488 C 0.98237 0.6997 0.46615 0.0
C489 C 0.99229 0.70984 0.48178 0.0
N490 N 0.01291 0.72977 0.52037 0.0
C491 C 0.01134 0.71234 0.51968 0.0
C492 C 0.02094 0.70443 0.5372 0.0
C493 C 0.02927 0.71757 0.5497 0.0
C494 C 0.02431 0.73277 0.53894 0.0
N495 N 0.98124 0.74745 0.51807 0.0
C496 C 0.95185 0.74889 0.54433 0.0
C497 C 0.95867 0.73305 0.53717 0.0
C498 C 0.9733 0.73263 0.52428 0.0
C499 C 0.96012 0.764 0.53842 0.0
C500 C 0.97464 0.763 0.5253 0.0
N501 N 0.02136 0.74536 0.4785 0.0
C502 C 0.04406 0.72911 0.46093 0.0
C503 C 0.05007 0.74395 0.45086 0.0
C504 C 0.0415 0.7595 0.45483 0.0
C505 C 0.02737 0.75992 0.46868 0.0
C506 C 0.02976 0.73007 0.47447 0.0
H507 H 0.02163 0.77223 0.47127 0.0
H508 H 0.02579 0.71827 0.48149 0.0
H509 H 0.97786 0.72015 0.5194 0.0
H510 H 0.98017 0.77498 0.52099 0.0
C511 C 0.00096 0.78912 0.49497 0.0
C512 C 0.03144 0.74961 0.5463 0.0
C513 C 0.9698 0.74324 0.45222 0.0
C514 C 0.00196 0.70371 0.50121 0.0
H515 H 0.03933 0.78532 0.55762 0.0
H516 H 0.02276 0.80705 0.52945 0.0
H517 H 0.97897 0.80214 0.45788 0.0
H518 H 0.96221 0.77669 0.43413 0.0
H519 H 0.96337 0.70753 0.43892 0.0
H520 H 0.98134 0.68574 0.46545 0.0
H521 H 0.02214 0.69072 0.5401 0.0
H522 H 0.03831 0.71613 0.56471 0.0
H523 H 0.95283 0.72098 0.54165 0.0
H524 H 0.9552 0.77658 0.54345 0.0
H525 H 0.05023 0.71673 0.45816 0.0
H526 H 0.04585 0.77139 0.44761 0.0
C527 C 0.26907 0.97584 0.5414 0.0
C528 C 0.28498 0.96887 0.54834 0.0
C529 C 0.29713 0.97829 0.53818 0.0
C530 C 0.28803 0.99036 0.52553 0.0
N531 N 0.27076 0.98929 0.52698 0.0
Co532 Co 0.25277 0.00397 0.51039 0.0
N533 N 0.2707 0.01741 0.49477 0.0
C534 C 0.28797 0.01504 0.49693 0.0
C535 C 0.29704 0.02607 0.48405 0.0
C536 C 0.28488 0.03619 0.47303 0.0
C537 C 0.26901 0.03079 0.47997 0.0
N538 N 0.23478 0.01868 0.49386 0.0
C539 C 0.23645 0.03201 0.47926 0.0
C540 C 0.22055 0.03901 0.47232 0.0
C541 C 0.20842 0.02974 0.48271 0.0
C542 C 0.21752 0.01772 0.49547 0.0
N543 N 0.23482 0.99048 0.52592 0.0
C544 C 0.21755 0.99283 0.5237 0.0
C545 C 0.20847 0.98182 0.53657 0.0
C546 C 0.22062 0.97169 0.54758 0.0
C547 C 0.2365 0.97704 0.54062 0.0
N548 N 0.25426 0.02085 0.53718 0.0
C549 C 0.25628 0.04629 0.57337 0.0
C550 C 0.24038 0.03981 0.56445 0.0
C551 C 0.23967 0.02721 0.5465 0.0
C552 C 0.27119 0.03946 0.56445 0.0
C553 C 0.2699 0.02677 0.54657 0.0
N554 N 0.25127 0.98703 0.48368 0.0
C555 C 0.23429 0.96791 0.45718 0.0
C556 C 0.24919 0.96004 0.44967 0.0
C557 C 0.26513 0.96658 0.45838 0.0
C558 C 0.26587 0.98003 0.47514 0.0
C559 C 0.23563 0.98134 0.47404 0.0
H560 H 0.27839 0.98426 0.48127 0.0
H561 H 0.22382 0.98657 0.47941 0.0
H562 H 0.22715 0.02307 0.54022 0.0
H563 H 0.28172 0.02213 0.54047 0.0
C564 C 0.29529 0.00243 0.5114 0.0
C565 C 0.25276 0.96892 0.5485 0.0
C566 C 0.25274 0.03878 0.47191 0.0
C567 C 0.21024 0.00555 0.50943 0.0
H568 H 0.28759 0.95793 0.55933 0.0
H569 H 0.31094 0.97636 0.53952 0.0
H570 H 0.31085 0.0267 0.48285 0.0
H571 H 0.28743 0.0464 0.46123 0.0
H572 H 0.21797 0.04982 0.4611 0.0
H573 H 0.19461 0.03166 0.48133 0.0
H574 H 0.19466 0.98123 0.53781 0.0
H575 H 0.21803 0.96151 0.55941 0.0
H576 H 0.22846 0.04487 0.57069 0.0
H577 H 0.28382 0.04397 0.57108 0.0
H578 H 0.22164 0.96328 0.45084 0.0
H579 H 0.27702 0.96113 0.45258 0.0
C580 C 0.52521 0.76537 0.03653 0.0
C581 C 0.52998 0.78127 0.0469 0.0
C582 C 0.5212 0.79353 0.03439 0.0
C583 C 0.51152 0.78446 0.01731 0.0
N584 N 0.51346 0.76712 0.01827 0.0
Co585 Co 0.50146 0.74904 0.99729 0.0
N586 N 0.48962 0.76714 0.97782 0.0
C587 C 0.49177 0.78448 0.98008 0.0
C588 C 0.48193 0.79356 0.96398 0.0
C589 C 0.47278 0.78131 0.9508 0.0
C590 C 0.47753 0.76543 0.9598 0.0
N591 N 0.48899 0.73097 0.97672 0.0
C592 C 0.47648 0.73277 0.95936 0.0
C593 C 0.47035 0.71686 0.95054 0.0
C594 C 0.47922 0.70456 0.96286 0.0
C595 C 0.49013 0.71361 0.97852 0.0
N596 N 0.51376 0.73092 0.01636 0.0
C597 C 0.5126 0.71356 0.01292 0.0
C598 C 0.52335 0.70446 0.02787 0.0
C599 C 0.53211 0.71671 0.04153 0.0
C600 C 0.52604 0.73266 0.03418 0.0
N601 N 0.48209 0.74909 0.01824 0.0
C602 C 0.45404 0.74886 0.04712 0.0
C603 C 0.46258 0.73359 0.04132 0.0
C604 C 0.47638 0.73399 0.02695 0.0
C605 C 0.45991 0.76429 0.03836 0.0
C606 C 0.47387 0.76412 0.02413 0.0
N607 N 0.52087 0.74897 0.97635 0.0
C608 C 0.54079 0.73327 0.95288 0.0
C609 C 0.54939 0.7485 0.94831 0.0
C610 C 0.54329 0.76404 0.95768 0.0
C611 C 0.52913 0.76398 0.97155 0.0
C612 C 0.52669 0.73379 0.96676 0.0
H613 H 0.52525 0.77622 0.97839 0.0
H614 H 0.52081 0.72171 0.96955 0.0
H615 H 0.48218 0.72187 0.02311 0.0
H616 H 0.47767 0.7763 0.01795 0.0
C617 C 0.50169 0.79188 0.99899 0.0
C618 C 0.53284 0.74909 0.04396 0.0
C619 C 0.46944 0.74921 0.95158 0.0
C620 C 0.50134 0.7062 0.99539 0.0
H621 H 0.53917 0.78375 0.06164 0.0
H622 H 0.52215 0.80742 0.03701 0.0
H623 H 0.48103 0.80745 0.96256 0.0
H624 H 0.46329 0.78378 0.93662 0.0
H625 H 0.46026 0.71436 0.93694 0.0
H626 H 0.47764 0.69067 0.96097 0.0
H627 H 0.52485 0.69057 0.02852 0.0
H628 H 0.54203 0.71413 0.05508 0.0
H629 H 0.45875 0.72132 0.04798 0.0
H630 H 0.45363 0.77647 0.04211 0.0
H631 H 0.54482 0.72093 0.94565 0.0
H632 H 0.54959 0.77619 0.95474 0.0
C633 C 0.21732 0.52094 0.03833 0.0
C634 C 0.19983 0.52319 0.04086 0.0
C635 C 0.19143 0.51356 0.02331 0.0
C636 C 0.20423 0.506 0.01119 0.0
N637 N 0.22032 0.51 0.02012 0.0
Co638 Co 0.24268 0.50234 0.00758 0.0
N639 N 0.2303 0.48888 0.98107 0.0
C640 C 0.21306 0.48718 0.97674 0.0
C641 C 0.20843 0.47699 0.95735 0.0
C642 C 0.22361 0.47168 0.9489 0.0
C643 C 0.23667 0.47894 0.96376 0.0
N644 N 0.26504 0.49499 0.99474 0.0
C645 C 0.26808 0.48464 0.97593 0.0
C646 C 0.28561 0.48275 0.9732 0.0
C647 C 0.29395 0.49225 0.9909 0.0
C648 C 0.28112 0.49933 0.0034 0.0
N649 N 0.25505 0.51549 0.03438 0.0
C650 C 0.27229 0.51662 0.0392 0.0
C651 C 0.27698 0.52687 0.05847 0.0
C652 C 0.26186 0.53279 0.06639 0.0
C653 C 0.24872 0.52569 0.05146 0.0
N654 N 0.24274 0.48135 0.02701 0.0
C655 C 0.24284 0.45182 0.0551 0.0
C656 C 0.25785 0.46142 0.05295 0.0
C657 C 0.25753 0.47593 0.03892 0.0
C658 C 0.2278 0.45721 0.04271 0.0
C659 C 0.22802 0.47186 0.02896 0.0
N660 N 0.24264 0.52332 0.98817 0.0
C661 C 0.25699 0.54883 0.97535 0.0
C662 C 0.24281 0.55298 0.96023 0.0
C663 C 0.22846 0.54199 0.95964 0.0
C664 C 0.2286 0.52749 0.97373 0.0
C665 C 0.25668 0.53408 0.98885 0.0
H666 H 0.21719 0.51982 0.97255 0.0
H667 H 0.26798 0.53168 -0.00024 0.0
H668 H 0.26946 0.48251 0.03796 0.0
H669 H 0.21611 0.47528 0.02011 0.0
C670 C 0.20155 0.49539 0.99113 0.0
C671 C 0.23055 0.52989 0.05325 0.0
C672 C 0.25487 0.47569 0.96095 0.0
C673 C 0.28379 0.50915 0.02415 0.0
H674 H 0.1938 0.53117 0.05387 0.0
H675 H 0.17764 0.51242 0.01961 0.0
H676 H 0.19555 0.47374 0.95027 0.0
H677 H 0.22494 0.46331 0.93361 0.0
H678 H 0.29178 0.47503 0.96007 0.0
H679 H 0.30773 0.49351 0.99456 0.0
H680 H 0.28988 0.53016 0.06542 0.0
H681 H 0.26079 0.54174 0.0811 0.0
H682 H 0.26993 0.45766 0.06183 0.0
H683 H 0.21577 0.45033 0.0439 0.0
H684 H 0.26833 0.557 0.97704 0.0
H685 H 0.21717 0.54433 0.94812 0.0
C686 C 0.47834 0.26493 0.97763 0.0
C687 C 0.47234 0.28064 0.96931 0.0
C688 C 0.48015 0.29324 0.98341 0.0
C689 C 0.49036 0.28455 -0.00049 0.0
N690 N 0.48971 0.26714 0.99643 0.0
Co691 Co 0.50184 0.24953 0.01654 0.0
N692 N 0.51305 0.26811 0.03757 0.0
C693 C 0.51145 0.28541 0.03543 0.0
C694 C 0.52128 0.29491 0.05189 0.0
C695 C 0.52985 0.28298 0.06522 0.0
C696 C 0.52465 0.26683 0.05614 0.0
N697 N 0.51364 0.23192 0.03696 0.0
C698 C 0.5249 0.23412 0.05588 0.0
C699 C 0.52997 0.21844 0.0652 0.0
C700 C 0.52183 0.20583 0.05144 0.0
C701 C 0.51223 0.21451 0.03466 0.0
N702 N 0.49098 0.23096 0.99519 0.0
C703 C 0.49324 0.21368 0.99667 0.0
C704 C 0.48414 0.20422 0.9794 0.0
C705 C 0.47546 0.21615 0.96615 0.0
C706 C 0.47974 0.23224 0.97625 0.0
N707 N 0.52191 0.24991 0.99684 0.0
C708 C 0.55041 0.25047 0.96891 0.0
C709 C 0.54465 0.23499 0.97757 0.0
C710 C 0.53045 0.23499 0.99131 0.0
C711 C 0.54172 0.26567 0.9745 0.0
C712 C 0.52768 0.26512 0.98847 0.0
N713 N 0.48175 0.24914 0.03622 0.0
C714 C 0.45967 0.2333 0.05444 0.0
C715 C 0.45284 0.24861 0.06343 0.0
C716 C 0.46075 0.26419 0.05865 0.0
C717 C 0.47504 0.26416 0.04509 0.0
C718 C 0.47403 0.23385 0.04106 0.0
H719 H 0.48034 0.27646 0.04193 0.0
H720 H 0.47861 0.22173 0.0348 0.0
H721 H 0.52664 0.22276 0.9972 0.0
H722 H 0.52177 0.27718 0.9923 0.0
C723 C 0.50071 0.29237 0.01766 0.0
C724 C 0.47236 0.2483 0.96763 0.0
C725 C 0.53163 0.25069 0.06511 0.0
C726 C 0.50292 0.20669 0.01548 0.0
H727 H 0.4631 0.2828 0.95474 0.0
H728 H 0.47845 0.30707 0.98222 0.0
H729 H 0.52228 0.30884 0.05375 0.0
H730 H 0.53909 0.28589 0.07976 0.0
H731 H 0.53891 0.21634 0.08014 0.0
H732 H 0.52312 0.19199 0.05308 0.0
H733 H 0.48355 0.19029 0.97707 0.0
H734 H 0.46672 0.21333 0.95101 0.0
H735 H 0.5509 0.22285 0.9735 0.0
H736 H 0.54588 0.27801 0.9684 0.0
H737 H 0.4541 0.22089 0.05793 0.0
H738 H 0.45579 0.27642 0.06502 0.0
C739 C 0.73741 0.53381 0.03461 0.0
C740 C 0.72151 0.54145 0.03763 0.0
C741 C 0.70944 0.53111 0.02589 0.0
C742 C 0.71859 0.51787 0.01624 0.0
N743 N 0.73581 0.51906 0.02117 0.0
Co744 Co 0.75389 0.50306 0.00937 0.0
N745 N 0.73601 0.48743 0.99297 0.0
C746 C 0.71871 0.489 0.99348 0.0
C747 C 0.70967 0.47588 0.9817 0.0
C748 C 0.72191 0.46522 0.97317 0.0
C749 C 0.7378 0.47259 0.98007 0.0
N750 N 0.77198 0.48748 0.99671 0.0
C751 C 0.77042 0.47313 0.98245 0.0
C752 C 0.7864 0.46682 0.97682 0.0
C753 C 0.79848 0.47739 0.98813 0.0
C754 C 0.78925 0.48961 -0.0002 0.0
N755 N 0.77173 0.51825 0.02666 0.0
C756 C 0.78898 0.51579 0.02796 0.0
C757 C 0.79796 0.5279 0.04182 0.0
C758 C 0.78573 0.53874 0.04997 0.0
C759 C 0.76992 0.53266 0.04042 0.0
N760 N 0.75303 0.48891 0.0375 0.0
C761 C 0.75094 0.46615 0.07452 0.0
C762 C 0.76679 0.46983 0.06563 0.0
C763 C 0.76754 0.48123 0.04727 0.0
C764 C 0.73635 0.47473 0.06545 0.0
C765 C 0.73767 0.48598 0.04716 0.0
N766 N 0.75469 0.51718 0.98119 0.0
C767 C 0.77027 0.53535 0.95619 0.0
C768 C 0.75517 0.53873 0.94255 0.0
C769 C 0.73998 0.53066 0.9481 0.0
C770 C 0.74002 0.52009 0.96734 0.0
C771 C 0.76976 0.52454 0.97522 0.0
H772 H 0.72794 0.51458 0.97072 0.0
H773 H 0.78167 0.52255 0.98501 0.0
H774 H 0.77994 0.48335 0.04097 0.0
H775 H 0.726 0.49189 0.04089 0.0
C776 C 0.71133 0.50352 0.0039 0.0
C777 C 0.7536 0.54107 0.04492 0.0
C778 C 0.75416 0.46502 0.97382 0.0
C779 C 0.79641 0.50263 0.0148 0.0
H780 H 0.71889 0.55325 0.04742 0.0
H781 H 0.69561 0.53289 0.02478 0.0
H782 H 0.69583 0.47434 0.97937 0.0
H783 H 0.71939 0.45339 0.96293 0.0
H784 H 0.78909 0.45569 0.96574 0.0
H785 H 0.81235 0.47622 0.98804 0.0
H786 H 0.81178 0.52886 0.04535 0.0
H787 H 0.78818 0.54992 0.06156 0.0
H788 H 0.77846 0.46349 0.07218 0.0
H789 H 0.72385 0.47261 0.07223 0.0
H790 H 0.78236 0.54136 0.95264 0.0
H791 H 0.72801 0.53254 0.93773 0.0
C792 C 0.16265 0.23525 0.3286 0.0
C793 C 0.17786 0.24458 0.33469 0.0
C794 C 0.14869 0.23638 0.34275 0.0
C795 C 0.12973 0.26434 0.38749 0.0
H796 H 0.10464 0.22287 0.40087 0.0
C797 C 0.07802 0.26367 0.45559 0.0
C798 C 0.06321 0.2536 0.44997 0.0
C799 C 0.09195 0.26284 0.44136 0.0
C800 C 0.11137 0.2346 0.39707 0.0
H801 H 0.19033 0.26253 0.36028 0.0
H802 H 0.16602 0.26434 0.38517 0.0
H803 H 0.12914 0.22076 0.37646 0.0
H804 H 0.05116 0.2352 0.42466 0.0
H805 H 0.07541 0.23383 0.39973 0.0
H806 H 0.11192 0.27819 0.40803 0.0
C807 C 0.16485 0.25623 0.36936 0.0
C808 C 0.12542 0.23338 0.3831 0.0
C809 C 0.17883 0.25505 0.35526 0.0
C810 C 0.06251 0.24289 0.42964 0.0
C811 C 0.07641 0.2421 0.41539 0.0
C812 C 0.11565 0.26557 0.40142 0.0
C813 C 0.14963 0.24692 0.36324 0.0
C814 C 0.13475 0.24823 0.37815 0.0
C815 C 0.09135 0.25196 0.42118 0.0
C816 C 0.1063 0.25071 0.40635 0.0
H817 H 0.16157 0.22696 0.31296 0.0
H818 H 0.13707 0.22917 0.33747 0.0
H819 H 0.13652 0.27604 0.38371 0.0
H820 H 0.07902 0.27188 0.4713 0.0
H821 H 0.10336 0.27044 0.44646 0.0
C822 C 0.75252 0.18461 0.36285 0.0
C823 C 0.76031 0.18684 0.3417 0.0
C824 C 0.75431 0.16909 0.37445 0.0
C825 C 0.76317 0.12305 0.36438 0.0
H826 H 0.76737 0.12336 0.43231 0.0
C827 C 0.76599 0.06095 0.41922 0.0
C828 C 0.75457 0.06114 0.43728 0.0
C829 C 0.7688 0.07596 0.40703 0.0
C830 C 0.7662 0.1231 0.41333 0.0
H831 H 0.77637 0.17472 0.31628 0.0
H832 H 0.77954 0.14748 0.33666 0.0
H833 H 0.76904 0.15051 0.4121 0.0
H834 H 0.73732 0.0771 0.45698 0.0
H835 H 0.74217 0.10322 0.43568 0.0
H836 H 0.76009 0.09558 0.36578 0.0
C837 C 0.77189 0.15771 0.34409 0.0
C838 C 0.76712 0.13861 0.40177 0.0
C839 C 0.77007 0.17327 0.33245 0.0
C840 C 0.74602 0.07654 0.44293 0.0
C841 C 0.74895 0.09152 0.43095 0.0
C842 C 0.76234 0.10748 0.37599 0.0
C843 C 0.76398 0.15546 0.36518 0.0
C844 C 0.76515 0.1388 0.3772 0.0
C845 C 0.76043 0.0914 0.413 0.0
C846 C 0.7634 0.10746 0.40057 0.0
H847 H 0.74467 0.19472 0.37018 0.0
H848 H 0.74775 0.16763 0.3904 0.0
H849 H 0.76148 0.12281 0.34544 0.0
H850 H 0.77269 0.0492 0.41452 0.0
H851 H 0.77772 0.07558 0.39324 0.0
C852 C 0.84136 0.74684 0.3181 0.0
C853 C 0.82774 0.75702 0.32587 0.0
C854 C 0.85639 0.74474 0.33236 0.0
C855 C 0.88101 0.7641 0.38422 0.0
H856 H 0.90456 0.7199 0.3838 0.0
C857 C 0.93831 0.74916 0.44902 0.0
C858 C 0.95291 0.74249 0.43879 0.0
C859 C 0.92262 0.75007 0.43589 0.0
C860 C 0.89813 0.73232 0.38398 0.0
H861 H 0.81937 0.77305 0.35477 0.0
H862 H 0.84531 0.76882 0.38003 0.0
H863 H 0.87774 0.72332 0.35983 0.0
H864 H 0.96284 0.73145 0.40719 0.0
H865 H 0.93515 0.73267 0.38415 0.0
H866 H 0.90133 0.77296 0.40869 0.0
C867 C 0.8445 0.76274 0.36268 0.0
C868 C 0.88282 0.73433 0.37021 0.0
C869 C 0.82952 0.76499 0.34831 0.0
C870 C 0.9516 0.7364 0.41541 0.0
C871 C 0.93584 0.73712 0.40233 0.0
C872 C 0.89619 0.76202 0.39819 0.0
C873 C 0.85813 0.75259 0.35487 0.0
C874 C 0.87414 0.75029 0.37003 0.0
C875 C 0.92129 0.74421 0.41237 0.0
C876 C 0.90493 0.74615 0.39809 0.0
H877 H 0.84034 0.74027 0.30108 0.0
H878 H 0.86671 0.73705 0.32562 0.0
H879 H 0.87486 0.77665 0.38421 0.0
H880 H 0.93918 0.75399 0.46705 0.0
H881 H 0.91155 0.75547 0.44406 0.0
C882 C 0.2583 0.82211 0.34506 0.0
C883 C 0.24846 0.81957 0.32379 0.0
C884 C 0.25681 0.83738 0.35832 0.0
C885 C 0.24355 0.88273 0.35371 0.0
H886 H 0.24426 0.88103 0.42144 0.0
C887 C 0.23624 0.94329 0.41461 0.0
C888 C 0.24816 0.94442 0.43412 0.0
C889 C 0.23497 0.92816 0.40061 0.0
C890 C 0.24412 0.88169 0.40254 0.0
H891 H 0.22914 0.83085 0.29987 0.0
H892 H 0.22651 0.85762 0.32313 0.0
H893 H 0.24419 0.85418 0.39802 0.0
H894 H 0.26795 0.93064 0.45446 0.0
H895 H 0.26588 0.90438 0.42992 0.0
H896 H 0.24362 0.91031 0.35835 0.0
C897 C 0.23554 0.84787 0.32936 0.0
C898 C 0.24411 0.86634 0.38915 0.0
C899 C 0.23705 0.83258 0.31606 0.0
C900 C 0.2588 0.93021 0.43935 0.0
C901 C 0.25746 0.91511 0.42549 0.0
C902 C 0.24351 0.89812 0.36713 0.0
C903 C 0.24542 0.85042 0.35062 0.0
C904 C 0.24412 0.86671 0.36463 0.0
C905 C 0.24548 0.91389 0.40608 0.0
C906 C 0.24411 0.89771 0.39169 0.0
H907 H 0.26739 0.8124 0.35126 0.0
H908 H 0.26483 0.83911 0.37442 0.0
H909 H 0.24371 0.88341 0.33485 0.0
H910 H 0.22794 0.9541 0.41015 0.0
H911 H 0.22559 0.92751 0.38577 0.0
C912 C 0.17202 0.75761 0.65426 0.0
C913 C 0.17209 0.76455 0.67725 0.0
C914 C 0.15671 0.75656 0.64016 0.0
C915 C 0.10987 0.75449 0.64375 0.0
H916 H 0.10867 0.76604 0.5782 0.0
C917 C 0.04664 0.75697 0.58517 0.0
C918 C 0.04726 0.75059 0.56206 0.0
C919 C 0.06178 0.75869 0.59954 0.0
C920 C 0.10885 0.76256 0.59641 0.0
H921 H 0.15624 0.77597 0.70345 0.0
H922 H 0.12949 0.77431 0.67869 0.0
H923 H 0.1354 0.7696 0.60257 0.0
H924 H 0.06366 0.7405 0.53577 0.0
H925 H 0.09022 0.74314 0.561 0.0
H926 H 0.08337 0.7473 0.63756 0.0
C927 C 0.14126 0.76956 0.67166 0.0
C928 C 0.12414 0.76465 0.61035 0.0
C929 C 0.1566 0.77069 0.68573 0.0
C930 C 0.06305 0.74553 0.55359 0.0
C931 C 0.07818 0.74719 0.56795 0.0
C932 C 0.09458 0.75235 0.62978 0.0
C933 C 0.14115 0.76238 0.6488 0.0
C934 C 0.12482 0.76059 0.63414 0.0
C935 C 0.07774 0.75396 0.591 0.0
C936 C 0.09392 0.75631 0.60593 0.0
H937 H 0.18381 0.75292 0.64721 0.0
H938 H 0.15699 0.75084 0.62267 0.0
H939 H 0.11009 0.75102 0.66196 0.0
H940 H 0.03449 0.7609 0.5919 0.0
H941 H 0.06104 0.76408 0.61714 0.0
C942 C 0.2552 0.18455 0.68031 0.0
C943 C 0.24478 0.18553 0.69945 0.0
C944 C 0.25686 0.16902 0.66769 0.0
C945 C 0.25149 0.12189 0.67167 0.0
H946 H 0.25254 0.1229 0.60405 0.0
C947 C 0.24636 0.06132 0.60948 0.0
C948 C 0.25715 0.06088 0.5907 0.0
C949 C 0.24586 0.07598 0.62427 0.0
C950 C 0.25248 0.12245 0.62295 0.0
H951 H 0.22781 0.17115 0.72032 0.0
H952 H 0.23045 0.14395 0.69793 0.0
H953 H 0.2488 0.14972 0.62645 0.0
H954 H 0.27626 0.07514 0.57308 0.0
H955 H 0.27548 0.10068 0.59904 0.0
H956 H 0.25488 0.09448 0.66793 0.0
C957 C 0.23757 0.15514 0.69296 0.0
C958 C 0.25033 0.1378 0.63578 0.0
C959 C 0.23599 0.17069 0.7057 0.0
C960 C 0.26792 0.07507 0.58752 0.0
C961 C 0.26734 0.08974 0.60221 0.0
C962 C 0.25353 0.10649 0.65877 0.0
C963 C 0.24806 0.15415 0.67384 0.0
C964 C 0.2499 0.13771 0.66029 0.0
C965 C 0.25605 0.09046 0.6204 0.0
C966 C 0.25414 0.10667 0.63431 0.0
H967 H 0.26242 0.1957 0.67542 0.0
H968 H 0.26531 0.16861 0.65336 0.0
H969 H 0.25143 0.12144 0.69056 0.0
H970 H 0.23806 0.05047 0.61243 0.0
H971 H 0.237 0.07624 0.63813 0.0
C972 C 0.82559 0.23621 0.67582 0.0
C973 C 0.82191 0.25023 0.69086 0.0
C974 C 0.83991 0.23669 0.66233 0.0
C975 C 0.87085 0.26713 0.63903 0.0
H976 H 0.89807 0.22572 0.63026 0.0
C977 C 0.93653 0.26744 0.59716 0.0
C978 C 0.93934 0.25411 0.58057 0.0
C979 C 0.92215 0.26706 0.61058 0.0
C980 C 0.8905 0.23734 0.6324 0.0
H981 H 0.83053 0.27555 0.70399 0.0
H982 H 0.85566 0.27631 0.68073 0.0
H983 H 0.87313 0.2248 0.65392 0.0
H984 H 0.92898 0.23013 0.56475 0.0
H985 H 0.90407 0.22938 0.58842 0.0
H986 H 0.88839 0.27969 0.61769 0.0
C987 C 0.84728 0.26511 0.6789 0.0
C988 C 0.87619 0.23682 0.6459 0.0
C989 C 0.83291 0.26467 0.69228 0.0
C990 C 0.92741 0.24043 0.57769 0.0
C991 C 0.91311 0.24 0.5912 0.0
C992 C 0.88523 0.26767 0.62564 0.0
C993 C 0.85093 0.25115 0.6637 0.0
C994 C 0.86617 0.2517 0.64935 0.0
C995 C 0.91034 0.2533 0.60779 0.0
C996 C 0.89517 0.25278 0.62215 0.0
H997 H 0.81721 0.22499 0.67419 0.0
H998 H 0.84219 0.22583 0.65054 0.0
H999 H 0.86326 0.27875 0.641 0.0
H1000 H 0.94558 0.27804 0.60006 0.0
H1001 H 0.92044 0.27739 0.62343 0.0
C1002 C 0.73285 0.82549 0.66144 0.0
C1003 C 0.74209 0.8234 0.68309 0.0
C1004 C 0.73107 0.8418 0.65193 0.0
C1005 C 0.75173 0.88405 0.65234 0.0
H1006 H 0.70781 0.89858 0.62348 0.0
C1007 C 0.74448 0.94917 0.60705 0.0
C1008 C 0.7355 0.94843 0.58495 0.0
C1009 C 0.74384 0.93529 0.62198 0.0
C1010 C 0.72017 0.89467 0.63138 0.0
H1011 H 0.75651 0.83686 0.71188 0.0
H1012 H 0.75368 0.86536 0.69496 0.0
H1013 H 0.70974 0.87132 0.6438 0.0
H1014 H 0.71859 0.93278 0.56126 0.0
H1015 H 0.7176 0.90852 0.58711 0.0
H1016 H 0.76233 0.90703 0.63927 0.0
C1017 C 0.74788 0.85431 0.68538 0.0
C1018 C 0.72126 0.8791 0.64301 0.0
C1019 C 0.74957 0.83799 0.69498 0.0
C1020 C 0.72545 0.9338 0.57833 0.0
C1021 C 0.72486 0.91991 0.59318 0.0
C1022 C 0.75066 0.89958 0.64059 0.0
C1023 C 0.73859 0.85636 0.6638 0.0
C1024 C 0.73711 0.87351 0.65324 0.0
C1025 C 0.73426 0.92039 0.61501 0.0
C1026 C 0.73494 0.9049 0.62963 0.0
H1027 H 0.72717 0.81447 0.65167 0.0
H1028 H 0.7241 0.84299 0.63505 0.0
H1029 H 0.76414 0.87996 0.65989 0.0
H1030 H 0.75214 0.96041 0.6127 0.0
H1031 H 0.751 0.93613 0.63885 0.0
C1032 C 0.81721 0.74148 0.64466 0.0
C1033 C 0.81765 0.75063 0.66629 0.0
C1034 C 0.83136 0.74178 0.63083 0.0
C1035 C 0.87021 0.76667 0.62014 0.0
H1036 H 0.88642 0.72316 0.59435 0.0
C1037 C 0.9353 0.76081 0.57739 0.0
C1038 C 0.93616 0.7496 0.55773 0.0
C1039 C 0.92059 0.76126 0.59019 0.0
C1040 C 0.88193 0.73546 0.60111 0.0
H1041 H 0.83304 0.76762 0.69013 0.0
H1042 H 0.85779 0.76815 0.66593 0.0
H1043 H 0.861 0.72355 0.61711 0.0
H1044 H 0.92214 0.7304 0.53565 0.0
H1045 H 0.89635 0.73136 0.5577 0.0
H1046 H 0.89101 0.77864 0.604 0.0
C1047 C 0.8465 0.76076 0.65969 0.0
C1048 C 0.86738 0.73567 0.61419 0.0
C1049 C 0.8324 0.76033 0.67362 0.0
C1050 C 0.92194 0.73898 0.55096 0.0
C1051 C 0.90719 0.73952 0.56363 0.0
C1052 C 0.8847 0.76649 0.60691 0.0
C1053 C 0.84618 0.75136 0.63825 0.0
C1054 C 0.8614 0.75126 0.62392 0.0
C1055 C 0.90635 0.7506 0.58349 0.0
C1056 C 0.89078 0.75087 0.59729 0.0
H1057 H 0.80606 0.73378 0.63866 0.0
H1058 H 0.83071 0.73453 0.61428 0.0
H1059 H 0.86576 0.77891 0.62721 0.0
H1060 H 0.94615 0.76901 0.58316 0.0
H1061 H 0.92052 0.76975 0.6056 0.0
C1062 C 0.25819 0.85053 0.68852 0.0
C1063 C 0.24793 0.83601 0.68174 0.0
C1064 C 0.25875 0.86482 0.67415 0.0
C1065 C 0.23524 0.88536 0.62306 0.0
H1066 H 0.27774 0.91133 0.6212 0.0
C1067 C 0.24511 0.93791 0.55494 0.0
C1068 C 0.25262 0.95352 0.56363 0.0
C1069 C 0.24458 0.92358 0.56925 0.0
C1070 C 0.26574 0.90428 0.62166 0.0
H1071 H 0.23006 0.82545 0.65423 0.0
H1072 H 0.23165 0.84988 0.62882 0.0
H1073 H 0.27682 0.8863 0.64593 0.0
H1074 H 0.26548 0.96645 0.59394 0.0
H1075 H 0.2649 0.94129 0.61891 0.0
H1076 H 0.22434 0.90321 0.5983 0.0
C1077 C 0.23901 0.85044 0.64554 0.0
C1078 C 0.26516 0.88994 0.63594 0.0
C1079 C 0.23831 0.83622 0.66003 0.0
C1080 C 0.25973 0.9545 0.58682 0.0
C1081 C 0.25942 0.94011 0.60105 0.0
C1082 C 0.23589 0.89958 0.60857 0.0
C1083 C 0.24921 0.865 0.65238 0.0
C1084 C 0.24988 0.88027 0.63694 0.0
C1085 C 0.25174 0.92449 0.59248 0.0
C1086 C 0.25113 0.90926 0.60775 0.0
H1087 H 0.266 0.85085 0.70489 0.0
H1088 H 0.26657 0.87582 0.6803 0.0
H1089 H 0.22313 0.87855 0.62361 0.0
H1090 H 0.23958 0.93685 0.53708 0.0
H1091 H 0.23872 0.91171 0.56205 0.0
C1092 C 0.17403 0.26839 0.67167 0.0
C1093 C 0.17433 0.26468 0.69557 0.0
C1094 C 0.15859 0.26774 0.65781 0.0
C1095 C 0.1152 0.24859 0.65484 0.0
H1096 H 0.10481 0.28369 0.60915 0.0
C1097 C 0.04944 0.25242 0.60215 0.0
C1098 C 0.04992 0.2561 0.57839 0.0
C1099 C 0.06446 0.25357 0.61688 0.0
C1100 C 0.10761 0.27369 0.62166 0.0
H1101 H 0.15858 0.25774 0.7238 0.0
H1102 H 0.1316 0.25656 0.69956 0.0
H1103 H 0.13135 0.28573 0.63421 0.0
H1104 H 0.06601 0.2638 0.55108 0.0
H1105 H 0.09243 0.26565 0.57672 0.0
H1106 H 0.09151 0.23649 0.64219 0.0
C1107 C 0.14337 0.25974 0.69149 0.0
C1108 C 0.1228 0.27487 0.63602 0.0
C1109 C 0.15881 0.26042 0.70536 0.0
C1110 C 0.0655 0.26091 0.56944 0.0
C1111 C 0.08051 0.26207 0.58413 0.0
C1112 C 0.10001 0.2474 0.64046 0.0
C1113 C 0.14311 0.26333 0.66755 0.0
C1114 C 0.12679 0.2623 0.65269 0.0
C1115 C 0.08015 0.25848 0.60803 0.0
C1116 C 0.0961 0.25989 0.62364 0.0
H1117 H 0.18581 0.27145 0.66353 0.0
H1118 H 0.15884 0.27032 0.63934 0.0
H1119 H 0.11803 0.23857 0.66731 0.0
H1120 H 0.03743 0.24881 0.60928 0.0
H1121 H 0.06374 0.25092 0.63527 0.0
C1122 C 0.74047 0.17635 0.66211 0.0
C1123 C 0.74802 0.17563 0.68511 0.0
C1124 C 0.7398 0.16164 0.64718 0.0
C1125 C 0.74078 0.11405 0.64734 0.0
H1126 H 0.75314 0.11746 0.58309 0.0
C1127 C 0.74866 0.05334 0.5874 0.0
C1128 C 0.7437 0.05444 0.56349 0.0
C1129 C 0.74891 0.06812 0.60216 0.0
C1130 C 0.74938 0.11628 0.60086 0.0
H1131 H 0.76106 0.15872 0.71009 0.0
H1132 H 0.75953 0.13307 0.68421 0.0
H1133 H 0.75396 0.14321 0.6088 0.0
H1134 H 0.73484 0.07161 0.53619 0.0
H1135 H 0.73471 0.09742 0.56198 0.0
H1136 H 0.73591 0.08723 0.63942 0.0
C1137 C 0.75402 0.14503 0.67784 0.0
C1138 C 0.74991 0.13107 0.61563 0.0
C1139 C 0.75485 0.15976 0.69271 0.0
C1140 C 0.73876 0.07051 0.5546 0.0
C1141 C 0.73884 0.08528 0.56937 0.0
C1142 C 0.74009 0.09929 0.63252 0.0
C1143 C 0.74651 0.14579 0.65489 0.0
C1144 C 0.7457 0.13011 0.63907 0.0
C1145 C 0.74402 0.08433 0.59336 0.0
C1146 C 0.74446 0.10016 0.60908 0.0
H1147 H 0.7348 0.18821 0.65571 0.0
H1148 H 0.73374 0.16261 0.62969 0.0
H1149 H 0.73722 0.11293 0.66522 0.0
H1150 H 0.75251 0.04104 0.5946 0.0
H1151 H 0.75322 0.06686 0.62039 0.0
C1152 C 0.84043 0.2589 0.338 0.0
C1153 C 0.82531 0.2635 0.34886 0.0
C1154 C 0.85612 0.25786 0.35115 0.0
C1155 C 0.87841 0.27258 0.40695 0.0
H1156 H 0.90862 0.23374 0.39565 0.0
C1157 C 0.93802 0.25867 0.46821 0.0
C1158 C 0.95309 0.25387 0.45755 0.0
C1159 C 0.92242 0.25961 0.45487 0.0
C1160 C 0.90041 0.24476 0.39883 0.0
H1161 H 0.81477 0.27054 0.38201 0.0
H1162 H 0.84221 0.26879 0.40498 0.0
H1163 H 0.88138 0.23613 0.37235 0.0
H1164 H 0.96406 0.24634 0.42502 0.0
H1165 H 0.9367 0.24806 0.4014 0.0
H1166 H 0.89743 0.28123 0.4334 0.0
C1167 C 0.84195 0.26619 0.38625 0.0
C1168 C 0.88482 0.24613 0.3855 0.0
C1169 C 0.82625 0.26721 0.3731 0.0
C1170 C 0.95245 0.24992 0.43346 0.0
C1171 C 0.93683 0.25086 0.42008 0.0
C1172 C 0.894 0.27122 0.42027 0.0
C1173 C 0.85703 0.26143 0.37543 0.0
C1174 C 0.87365 0.26005 0.38945 0.0
C1175 C 0.92166 0.25582 0.43063 0.0
C1176 C 0.90515 0.25727 0.41639 0.0
H1177 H 0.84016 0.25623 0.31929 0.0
H1178 H 0.86758 0.25443 0.34226 0.0
H1179 H 0.87019 0.28359 0.41016 0.0
H1180 H 0.93839 0.26179 0.48684 0.0
H1181 H 0.91092 0.26324 0.46356 0.0
C1182 C 0.73431 0.84026 0.33267 0.0
C1183 C 0.74963 0.83073 0.33125 0.0
C1184 C 0.73371 0.855 0.34741 0.0
C1185 C 0.76166 0.88808 0.37911 0.0
H1186 H 0.72118 0.89688 0.4138 0.0
C1187 C 0.75202 0.95265 0.43037 0.0
C1188 C 0.74503 0.95175 0.45228 0.0
C1189 C 0.75245 0.93795 0.41553 0.0
C1190 C 0.73264 0.89457 0.40438 0.0
H1191 H 0.7763 0.82919 0.34459 0.0
H1192 H 0.77527 0.85485 0.37033 0.0
H1193 H 0.72241 0.87098 0.38861 0.0
H1194 H 0.73297 0.93505 0.47603 0.0
H1195 H 0.73379 0.90922 0.45025 0.0
H1196 H 0.77203 0.91149 0.39525 0.0
C1197 C 0.76376 0.85108 0.35974 0.0
C1198 C 0.73327 0.8798 0.3897 0.0
C1199 C 0.76435 0.83634 0.34497 0.0
C1200 C 0.73836 0.93599 0.45912 0.0
C1201 C 0.73877 0.92127 0.4443 0.0
C1202 C 0.76103 0.90286 0.39378 0.0
C1203 C 0.74843 0.86061 0.36116 0.0
C1204 C 0.74778 0.87635 0.37686 0.0
C1205 C 0.74587 0.92204 0.42232 0.0
C1206 C 0.74651 0.90631 0.40662 0.0
H1207 H 0.7228 0.8365 0.32207 0.0
H1208 H 0.72177 0.86217 0.34773 0.0
H1209 H 0.77297 0.88596 0.36932 0.0
H1210 H 0.75717 0.96474 0.42478 0.0
H1211 H 0.75778 0.9391 0.39862 0.0
C1212 C 0.1843 0.73581 0.34921 0.0
C1213 C 0.18324 0.74282 0.32677 0.0
C1214 C 0.1699 0.73564 0.36261 0.0
C1215 C 0.12871 0.75748 0.37013 0.0
H1216 H 0.11666 0.71594 0.40161 0.0
C1217 C 0.06492 0.75187 0.41512 0.0
C1218 C 0.06521 0.74329 0.43641 0.0
C1219 C 0.07927 0.7515 0.40165 0.0
C1220 C 0.11997 0.72772 0.3932 0.0
H1221 H 0.16603 0.75487 0.30072 0.0
H1222 H 0.14104 0.75487 0.32432 0.0
H1223 H 0.14198 0.71603 0.37855 0.0
H1224 H 0.08078 0.72771 0.46041 0.0
H1225 H 0.10599 0.72731 0.43715 0.0
H1226 H 0.10694 0.76932 0.385 0.0
C1227 C 0.15308 0.74963 0.33157 0.0
C1228 C 0.13445 0.72774 0.37995 0.0
C1229 C 0.16742 0.74968 0.31809 0.0
C1230 C 0.08013 0.73427 0.44393 0.0
C1231 C 0.09455 0.73402 0.43055 0.0
C1232 C 0.11432 0.75752 0.38352 0.0
C1233 C 0.15417 0.7426 0.35394 0.0
C1234 C 0.13892 0.7426 0.36822 0.0
C1235 C 0.09431 0.74267 0.40927 0.0
C1236 C 0.10972 0.74262 0.39515 0.0
H1237 H 0.19634 0.73067 0.35661 0.0
H1238 H 0.17116 0.73032 0.37992 0.0
H1239 H 0.132 0.7692 0.36154 0.0
H1240 H 0.05349 0.75872 0.40874 0.0
H1241 H 0.07849 0.75801 0.38514 0.0
C1242 C 0.25804 0.17246 0.36011 0.0
C1243 C 0.25045 0.17115 0.33712 0.0
C1244 C 0.25842 0.15821 0.37466 0.0
C1245 C 0.25535 0.11034 0.37317 0.0
H1246 H 0.24581 0.11676 0.43853 0.0
C1247 C 0.24628 0.05234 0.43294 0.0
C1248 C 0.25277 0.05393 0.45636 0.0
C1249 C 0.24615 0.0666 0.41842 0.0
C1250 C 0.24874 0.11473 0.42041 0.0
H1251 H 0.23752 0.15363 0.31139 0.0
H1252 H 0.23803 0.12886 0.33679 0.0
H1253 H 0.24537 0.14158 0.41332 0.0
H1254 H 0.26435 0.07145 0.48303 0.0
H1255 H 0.26449 0.09635 0.45766 0.0
H1256 H 0.25883 0.08352 0.38024 0.0
C1257 C 0.24378 0.1409 0.34355 0.0
C1258 C 0.24846 0.129 0.40591 0.0
C1259 C 0.24331 0.15518 0.32905 0.0
C1260 C 0.25924 0.06997 0.46501 0.0
C1261 C 0.25918 0.08423 0.45049 0.0
C1262 C 0.25569 0.09607 0.38768 0.0
C1263 C 0.25131 0.14222 0.36657 0.0
C1264 C 0.25173 0.12701 0.38208 0.0
C1265 C 0.25259 0.08277 0.42698 0.0
C1266 C 0.25236 0.09804 0.41151 0.0
H1267 H 0.26352 0.18458 0.367 0.0
H1268 H 0.26447 0.15968 0.39219 0.0
H1269 H 0.2582 0.10834 0.355 0.0
H1270 H 0.24122 0.04007 0.42593 0.0
H1271 H 0.24075 0.06499 0.40057 0.0
C1272 C 0.67596 0.72746 0.83268 0.0
C1273 C 0.67737 0.73949 0.81501 0.0
C1274 C 0.66249 0.72861 0.8477 0.0
C1275 C 0.63054 0.75917 0.87029 0.0
H1276 H 0.6065 0.71747 0.88535 0.0
C1277 C 0.56679 0.76054 0.91705 0.0
C1278 C 0.56463 0.74807 0.93396 0.0
C1279 C 0.58091 0.75975 0.90311 0.0
C1280 C 0.61322 0.72922 0.88156 0.0
H1281 H 0.66592 0.76236 0.79954 0.0
H1282 H 0.64228 0.76419 0.82543 0.0
H1283 H 0.63051 0.71551 0.86005 0.0
H1284 H 0.57592 0.72536 0.95006 0.0
H1285 H 0.60054 0.72402 0.92582 0.0
H1286 H 0.61321 0.77288 0.89176 0.0
C1287 C 0.65165 0.75393 0.82781 0.0
C1288 C 0.62698 0.72809 0.86706 0.0
C1289 C 0.66508 0.75275 0.81277 0.0
C1290 C 0.57704 0.73497 0.93688 0.0
C1291 C 0.59115 0.7342 0.92298 0.0
C1292 C 0.61679 0.7603 0.88482 0.0
C1293 C 0.65018 0.74187 0.84542 0.0
C1294 C 0.63577 0.74305 0.86121 0.0
C1295 C 0.59319 0.7465 0.90582 0.0
C1296 C 0.60794 0.74534 0.89058 0.0
H1297 H 0.68517 0.71703 0.83475 0.0
H1298 H 0.66181 0.71921 0.86124 0.0
H1299 H 0.63722 0.77091 0.86639 0.0
H1300 H 0.55736 0.77067 0.9142 0.0
H1301 H 0.58199 0.76931 0.88984 0.0
C1302 C 0.242 0.68972 0.85303 0.0
C1303 C 0.24603 0.68807 0.82941 0.0
C1304 C 0.24164 0.67524 0.8671 0.0
C1305 C 0.25583 0.62899 0.86965 0.0
H1306 H 0.22388 0.62765 0.91879 0.0
C1307 C 0.25848 0.57421 0.93636 0.0
C1308 C 0.24304 0.56853 0.94523 0.0
C1309 C 0.25876 0.58878 0.92247 0.0
C1310 C 0.23276 0.62763 0.90498 0.0
H1311 H 0.25299 0.66951 0.80238 0.0
H1312 H 0.25143 0.64435 0.82635 0.0
H1313 H 0.22401 0.65242 0.89384 0.0
H1314 H 0.21574 0.57416 0.94623 0.0
H1315 H 0.21606 0.59883 0.92111 0.0
H1316 H 0.26398 0.60384 0.87999 0.0
C1317 C 0.24897 0.65691 0.83429 0.0
C1318 C 0.23304 0.64208 0.89083 0.0
C1319 C 0.24957 0.67141 0.82032 0.0
C1320 C 0.22787 0.57786 0.93956 0.0
C1321 C 0.22811 0.5923 0.92538 0.0
C1322 C 0.25537 0.61445 0.88356 0.0
C1323 C 0.24507 0.65857 0.85795 0.0
C1324 C 0.24463 0.64304 0.87298 0.0
C1325 C 0.24357 0.59804 0.91664 0.0
C1326 C 0.24388 0.61354 0.90155 0.0
H1327 H 0.23892 0.7022 0.86073 0.0
H1328 H 0.23883 0.67721 0.88527 0.0
H1329 H 0.26514 0.62923 0.85641 0.0
H1330 H 0.27042 0.56732 0.9399 0.0
H1331 H 0.27101 0.59284 0.9165 0.0
C1332 C 0.34334 0.2432 0.83214 0.0
C1333 C 0.3357 0.25957 0.83003 0.0
C1334 C 0.35897 0.24125 0.84518 0.0
C1335 C 0.39693 0.26542 0.87106 0.0
H1336 H 0.40094 0.22683 0.91271 0.0
C1337 C 0.4596 0.25169 0.92684 0.0
C1338 C 0.45749 0.2477 0.95019 0.0
C1339 C 0.44532 0.25212 0.91078 0.0
C1340 C 0.4 0.2377 0.90123 0.0
H1341 H 0.33851 0.28678 0.83968 0.0
H1342 H 0.36578 0.28339 0.86265 0.0
H1343 H 0.37489 0.23009 0.88729 0.0
H1344 H 0.43931 0.24076 0.97534 0.0
H1345 H 0.41419 0.24162 0.94737 0.0
H1346 H 0.42182 0.27335 0.88562 0.0
C1347 C 0.3598 0.27208 0.85394 0.0
C1348 C 0.38515 0.23946 0.88646 0.0
C1349 C 0.34418 0.27403 0.84083 0.0
C1350 C 0.44109 0.24379 0.95729 0.0
C1351 C 0.4268 0.24422 0.94127 0.0
C1352 C 0.41178 0.26366 0.88585 0.0
C1353 C 0.36728 0.25564 0.85643 0.0
C1354 C 0.38339 0.25342 0.87135 0.0
C1355 C 0.42874 0.24855 0.91788 0.0
C1356 C 0.41341 0.24987 0.90125 0.0
H1357 H 0.33724 0.23186 0.82365 0.0
H1358 H 0.36455 0.22847 0.84641 0.0
H1359 H 0.39603 0.27621 0.85944 0.0
H1360 H 0.47226 0.25469 0.92117 0.0
H1361 H 0.44724 0.25528 0.89282 0.0
C1362 C 0.74359 0.34173 0.83246 0.0
C1363 C 0.75127 0.32626 0.84012 0.0
C1364 C 0.74402 0.3566 0.84705 0.0
C1365 C 0.76705 0.3764 0.90036 0.0
H1366 H 0.72752 0.40697 0.89915 0.0
C1367 C 0.76044 0.43343 0.96747 0.0
C1368 C 0.75423 0.44908 0.95852 0.0
C1369 C 0.7603 0.41841 0.95316 0.0
C1370 C 0.73873 0.39865 0.89954 0.0
H1371 H 0.76553 0.31449 0.86932 0.0
H1372 H 0.76576 0.34019 0.895 0.0
H1373 H 0.72667 0.38079 0.8743 0.0
H1374 H 0.74308 0.46147 0.92778 0.0
H1375 H 0.74267 0.4352 0.90267 0.0
H1376 H 0.77897 0.39423 0.92589 0.0
C1377 C 0.75964 0.34093 0.87752 0.0
C1378 C 0.73827 0.38363 0.88524 0.0
C1379 C 0.7593 0.32607 0.86287 0.0
C1380 C 0.74787 0.4495 0.93503 0.0
C1381 C 0.74758 0.43447 0.92076 0.0
C1382 C 0.76745 0.39137 0.91479 0.0
C1383 C 0.75203 0.35642 0.86981 0.0
C1384 C 0.75245 0.37232 0.88536 0.0
C1385 C 0.75378 0.41873 0.92965 0.0
C1386 C 0.75332 0.40271 0.91448 0.0
H1387 H 0.73709 0.34236 0.8152 0.0
H1388 H 0.7382 0.3683 0.84033 0.0
H1389 H 0.77832 0.36819 0.90069 0.0
H1390 H 0.76533 0.43283 0.9856 0.0
H1391 H 0.765 0.40648 0.96061 0.0
C1392 C 0.66818 0.25782 0.18291 0.0
C1393 C 0.66726 0.26296 0.20656 0.0
C1394 C 0.65328 0.25667 0.16801 0.0
C1395 C 0.60627 0.25165 0.16815 0.0
H1396 H 0.60687 0.26807 0.10487 0.0
C1397 C 0.54503 0.25593 0.10561 0.0
C1398 C 0.5468 0.25113 0.08207 0.0
C1399 C 0.55955 0.25716 0.12127 0.0
C1400 C 0.60656 0.26324 0.1224 0.0
H1401 H 0.65002 0.27094 0.23317 0.0
H1402 H 0.62394 0.26916 0.207 0.0
H1403 H 0.63256 0.27112 0.13136 0.0
H1404 H 0.56463 0.24339 0.05626 0.0
H1405 H 0.59012 0.24527 0.08366 0.0
H1406 H 0.58024 0.24373 0.15913 0.0
C1407 C 0.6362 0.26587 0.20007 0.0
C1408 C 0.62126 0.26501 0.13758 0.0
C1409 C 0.65113 0.26707 0.21497 0.0
C1410 C 0.56312 0.24719 0.07441 0.0
C1411 C 0.57763 0.24839 0.09002 0.0
C1412 C 0.59154 0.24986 0.15295 0.0
C1413 C 0.63712 0.26063 0.17644 0.0
C1414 C 0.62131 0.25916 0.16058 0.0
C1415 C 0.57603 0.25358 0.11357 0.0
C1416 C 0.59156 0.25556 0.12987 0.0
H1417 H 0.68045 0.25475 0.17586 0.0
H1418 H 0.65439 0.25242 0.14996 0.0
H1419 H 0.60599 0.24681 0.18569 0.0
H1420 H 0.53246 0.259 0.11172 0.0
H1421 H 0.55792 0.26132 0.13924 0.0
C1422 C 0.75621 0.68128 0.15321 0.0
C1423 C 0.74998 0.68089 0.17574 0.0
C1424 C 0.75663 0.66621 0.13907 0.0
C1425 C 0.73772 0.62226 0.13118 0.0
H1426 H 0.77709 0.6133 0.09438 0.0
C1427 C 0.74722 0.55665 0.08246 0.0
C1428 C 0.75344 0.55708 0.06002 0.0
C1429 C 0.74689 0.57173 0.09658 0.0
C1430 C 0.7659 0.61569 0.10433 0.0
H1431 H 0.73955 0.66419 0.20111 0.0
H1432 H 0.74027 0.63796 0.17646 0.0
H1433 H 0.77626 0.63961 0.11886 0.0
H1434 H 0.76416 0.57334 0.03457 0.0
H1435 H 0.7635 0.59982 0.05911 0.0
H1436 H 0.72735 0.59835 0.11665 0.0
C1437 C 0.74458 0.64998 0.16957 0.0
C1438 C 0.76543 0.63079 0.11839 0.0
C1439 C 0.74416 0.66504 0.18372 0.0
C1440 C 0.75938 0.57277 0.0519 0.0
C1441 C 0.75907 0.58786 0.06601 0.0
C1442 C 0.73819 0.60716 0.11712 0.0
C1443 C 0.75084 0.65036 0.14706 0.0
C1444 C 0.75133 0.63428 0.13201 0.0
C1445 C 0.75278 0.58755 0.08853 0.0
C1446 C 0.75229 0.60366 0.10351 0.0
H1447 H 0.76055 0.69329 0.14635 0.0
H1448 H 0.76128 0.66705 0.1217 0.0
H1449 H 0.72653 0.62464 0.14114 0.0
H1450 H 0.74264 0.54463 0.08904 0.0
H1451 H 0.74218 0.57095 0.11392 0.0
C1452 C 0.33704 0.75694 0.18156 0.0
C1453 C 0.32633 0.74228 0.18071 0.0
C1454 C 0.35093 0.75771 0.16732 0.0
C1455 C 0.36654 0.73979 0.11253 0.0
H1456 H 0.41115 0.75636 0.13801 0.0
C1457 C 0.42712 0.73494 0.05977 0.0
C1458 C 0.43911 0.74859 0.06211 0.0
C1459 C 0.41332 0.73441 0.07418 0.0
C1460 C 0.39872 0.75194 0.13052 0.0
H1461 H 0.32175 0.71693 0.1643 0.0
H1462 H 0.34607 0.71827 0.13938 0.0
H1463 H 0.38725 0.75486 0.16345 0.0
H1464 H 0.44588 0.77244 0.08147 0.0
H1465 H 0.42148 0.77181 0.10608 0.0
H1466 H 0.37786 0.73707 0.07955 0.0
C1467 C 0.34366 0.72918 0.15102 0.0
C1468 C 0.38505 0.75103 0.14513 0.0
C1469 C 0.32985 0.72835 0.16542 0.0
C1470 C 0.43681 0.76182 0.07903 0.0
C1471 C 0.42294 0.76133 0.09337 0.0
C1472 C 0.38017 0.74082 0.09788 0.0
C1473 C 0.35432 0.74389 0.1518 0.0
C1474 C 0.36884 0.74488 0.1363 0.0
C1475 C 0.41106 0.74757 0.09119 0.0
C1476 C 0.39646 0.74684 0.1067 0.0
H1477 H 0.33472 0.76781 0.19334 0.0
H1478 H 0.35885 0.76926 0.16818 0.0
H1479 H 0.35411 0.73526 0.10516 0.0
H1480 H 0.42833 0.72466 0.04671 0.0
H1481 H 0.40456 0.72351 0.07217 0.0
C1482 C 0.23788 0.31661 0.1641 0.0
C1483 C 0.24682 0.31728 0.1863 0.0
C1484 C 0.23719 0.33107 0.14992 0.0
C1485 C 0.24324 0.37887 0.15227 0.0
H1486 H 0.24598 0.3728 0.0851 0.0
C1487 C 0.25234 0.43653 0.092 0.0
C1488 C 0.24291 0.43638 0.07016 0.0
C1489 C 0.2525 0.42205 0.10611 0.0
C1490 C 0.245 0.37472 0.1038 0.0
H1491 H 0.2619 0.33398 0.21095 0.0
H1492 H 0.2611 0.35894 0.18607 0.0
H1493 H 0.24698 0.34758 0.10965 0.0
H1494 H 0.22637 0.42068 0.04603 0.0
H1495 H 0.22653 0.3955 0.07072 0.0
H1496 H 0.24141 0.40604 0.1464 0.0
C1497 C 0.2544 0.34729 0.17969 0.0
C1498 C 0.24556 0.36023 0.11792 0.0
C1499 C 0.25506 0.33284 0.19388 0.0
C1500 C 0.23364 0.42134 0.06282 0.0
C1501 C 0.23389 0.40682 0.07689 0.0
C1502 C 0.24274 0.39336 0.13816 0.0
C1503 C 0.24544 0.34663 0.1575 0.0
C1504 C 0.24472 0.36209 0.14238 0.0
C1505 C 0.24332 0.40698 0.09873 0.0
C1506 C 0.24365 0.39149 0.11373 0.0
H1507 H 0.23152 0.30482 0.1575 0.0
H1508 H 0.23 0.33007 0.13309 0.0
H1509 H 0.24223 0.38084 0.17095 0.0
H1510 H 0.25948 0.44793 0.09835 0.0
H1511 H 0.26004 0.42261 0.1227 0.0
C1512 C 0.33504 0.25689 0.19563 0.0
C1513 C 0.32059 0.24656 0.18894 0.0
C1514 C 0.34912 0.25722 0.18169 0.0
C1515 C 0.37045 0.23193 0.13644 0.0
H1516 H 0.39254 0.27554 0.12514 0.0
C1517 C 0.42348 0.23749 0.07098 0.0
C1518 C 0.43755 0.24836 0.07762 0.0
C1519 C 0.40904 0.23731 0.08428 0.0
C1520 C 0.38664 0.26324 0.12835 0.0
H1521 H 0.30961 0.22837 0.16249 0.0
H1522 H 0.33415 0.22906 0.13799 0.0
H1523 H 0.36761 0.27519 0.14888 0.0
H1524 H 0.44764 0.26734 0.10363 0.0
H1525 H 0.42251 0.26695 0.12697 0.0
H1526 H 0.38954 0.21995 0.11608 0.0
C1527 C 0.33462 0.23683 0.1541 0.0
C1528 C 0.37235 0.26304 0.14192 0.0
C1529 C 0.3205 0.23657 0.16799 0.0
C1530 C 0.43689 0.25901 0.09788 0.0
C1531 C 0.42248 0.2588 0.11123 0.0
C1532 C 0.38477 0.23212 0.12292 0.0
C1533 C 0.34908 0.24716 0.1608 0.0
C1534 C 0.36412 0.24738 0.14614 0.0
C1535 C 0.40838 0.24797 0.10457 0.0
C1536 C 0.39305 0.24777 0.11876 0.0
H1537 H 0.33541 0.26485 0.21157 0.0
H1538 H 0.36014 0.26518 0.18742 0.0
H1539 H 0.36452 0.21964 0.13966 0.0
H1540 H 0.42351 0.22932 0.05526 0.0
H1541 H 0.39829 0.22902 0.07847 0.0
C1542 C 0.74902 0.35533 0.22291 0.0
C1543 C 0.73615 0.34278 0.2178 0.0
C1544 C 0.75028 0.36953 0.20865 0.0
C1545 C 0.73888 0.38238 0.14847 0.0
H1546 H 0.75002 0.42869 0.17268 0.0
C1547 C 0.73571 0.44082 0.08955 0.0
C1548 C 0.74935 0.45276 0.09217 0.0
C1549 C 0.73422 0.4279 0.10568 0.0
C1550 C 0.74708 0.41578 0.16571 0.0
H1551 H 0.71399 0.33566 0.1946 0.0
H1552 H 0.71608 0.36054 0.16979 0.0
H1553 H 0.74653 0.40541 0.19992 0.0
H1554 H 0.77206 0.46066 0.11385 0.0
H1555 H 0.76954 0.43781 0.1421 0.0
H1556 H 0.73941 0.39268 0.11432 0.0
C1557 C 0.72542 0.35922 0.1845 0.0
C1558 C 0.74506 0.40248 0.18127 0.0
C1559 C 0.72419 0.34501 0.1987 0.0
C1560 C 0.76147 0.45156 0.11135 0.0
C1561 C 0.75994 0.43861 0.12759 0.0
C1562 C 0.74087 0.39565 0.13297 0.0
C1563 C 0.73868 0.37144 0.18906 0.0
C1564 C 0.74083 0.38567 0.17278 0.0
C1565 C 0.74636 0.42659 0.12478 0.0
C1566 C 0.74487 0.4125 0.14141 0.0
H1567 H 0.75854 0.35383 0.23737 0.0
H1568 H 0.76073 0.37864 0.21247 0.0
H1569 H 0.73603 0.36948 0.14138 0.0
H1570 H 0.7263 0.44128 0.07477 0.0
H1571 H 0.72352 0.41893 0.10321 0.0
C1572 C 0.65774 0.74266 0.18541 0.0
C1573 C 0.6725 0.75098 0.17825 0.0
C1574 C 0.64243 0.74254 0.17128 0.0
C1575 C 0.62021 0.76529 0.12204 0.0
H1576 H 0.59159 0.72413 0.11678 0.0
C1577 C 0.56402 0.7558 0.05216 0.0
C1578 C 0.54859 0.7494 0.05991 0.0
C1579 C 0.57892 0.75623 0.06708 0.0
C1580 C 0.59939 0.73576 0.11828 0.0
H1581 H 0.68267 0.76575 0.1506 0.0
H1582 H 0.65619 0.76496 0.12558 0.0
H1583 H 0.61826 0.72419 0.14167 0.0
H1584 H 0.53628 0.73871 0.08907 0.0
H1585 H 0.56254 0.7392 0.1153 0.0
H1586 H 0.60145 0.77669 0.09823 0.0
C1587 C 0.65634 0.75881 0.14233 0.0
C1588 C 0.61464 0.73582 0.13256 0.0
C1589 C 0.67162 0.75904 0.15653 0.0
C1590 C 0.54817 0.74353 0.08279 0.0
C1591 C 0.56312 0.74379 0.09767 0.0
C1592 C 0.60505 0.76516 0.10761 0.0
C1593 C 0.64154 0.75063 0.14958 0.0
C1594 C 0.62525 0.75058 0.13457 0.0
C1595 C 0.57863 0.75016 0.08994 0.0
C1596 C 0.59452 0.75039 0.10558 0.0
H1597 H 0.65803 0.73614 0.2019 0.0
H1598 H 0.63122 0.73628 0.17752 0.0
H1599 H 0.6279 0.77699 0.12354 0.0
H1600 H 0.56451 0.7604 0.03452 0.0
H1601 H 0.59074 0.76107 0.06063 0.0
C1602 C 0.25097 0.64979 0.18682 0.0
C1603 C 0.24596 0.66651 0.18024 0.0
C1604 C 0.24576 0.63538 0.1729 0.0
C1605 C 0.23415 0.62167 0.11326 0.0
H1606 H 0.2138 0.58189 0.1406 0.0
C1607 C 0.22051 0.5603 0.05732 0.0
C1608 C 0.22581 0.54498 0.06796 0.0
C1609 C 0.21869 0.5754 0.07089 0.0
C1610 C 0.21956 0.59284 0.13271 0.0
H1611 H 0.23147 0.6811 0.15379 0.0
H1612 H 0.22305 0.6559 0.12901 0.0
H1613 H 0.22007 0.60799 0.16477 0.0
H1614 H 0.23205 0.53272 0.10084 0.0
H1615 H 0.2297 0.55919 0.12466 0.0
H1616 H 0.23469 0.60643 0.08165 0.0
C1617 C 0.23088 0.65406 0.14509 0.0
C1618 C 0.22308 0.60776 0.14654 0.0
C1619 C 0.23586 0.66847 0.15918 0.0
C1620 C 0.22809 0.54455 0.0924 0.0
C1621 C 0.22659 0.55969 0.10598 0.0
C1622 C 0.2309 0.60668 0.09953 0.0
C1623 C 0.23567 0.63742 0.15196 0.0
C1624 C 0.23064 0.62217 0.13698 0.0
C1625 C 0.22243 0.57543 0.09529 0.0
C1626 C 0.22381 0.59197 0.10918 0.0
H1627 H 0.25899 0.64781 0.20269 0.0
H1628 H 0.24985 0.62265 0.17831 0.0
H1629 H 0.24012 0.6326 0.10559 0.0
H1630 H 0.21851 0.56075 0.03843 0.0
H1631 H 0.21499 0.58717 0.06215 0.0
C1632 C 0.33962 0.74915 0.81846 0.0
C1633 C 0.32494 0.75592 0.82849 0.0
C1634 C 0.35531 0.74832 0.83168 0.0
C1635 C 0.37856 0.76716 0.8847 0.0
H1636 H 0.40781 0.72687 0.87869 0.0
C1637 C 0.43802 0.75545 0.94744 0.0
C1638 C 0.45295 0.74964 0.93724 0.0
C1639 C 0.42244 0.75621 0.934 0.0
C1640 C 0.39985 0.73827 0.88036 0.0
H1641 H 0.31505 0.76683 0.86028 0.0
H1642 H 0.34241 0.76524 0.88347 0.0
H1643 H 0.38034 0.72808 0.85566 0.0
H1644 H 0.46372 0.7403 0.90532 0.0
H1645 H 0.43635 0.74154 0.88159 0.0
H1646 H 0.39802 0.77728 0.90954 0.0
C1647 C 0.34189 0.76088 0.86527 0.0
C1648 C 0.38413 0.73898 0.86718 0.0
C1649 C 0.32622 0.76176 0.85202 0.0
C1650 C 0.45222 0.74465 0.91345 0.0
C1651 C 0.43661 0.74532 0.9 0.0
C1652 C 0.39424 0.76643 0.89794 0.0
C1653 C 0.35662 0.75419 0.85522 0.0
C1654 C 0.37331 0.75343 0.86922 0.0
C1655 C 0.42158 0.75115 0.91014 0.0
C1656 C 0.40502 0.75197 0.89592 0.0
H1657 H 0.33907 0.74479 0.80025 0.0
H1658 H 0.36648 0.74336 0.82332 0.0
H1659 H 0.37066 0.7786 0.88637 0.0
H1660 H 0.43844 0.75938 0.96582 0.0
H1661 H 0.41103 0.76058 0.94234 0.0
C1662 C 0.28819 0.34918 0.83815 0.0
C1663 C 0.27428 0.34638 0.82158 0.0
C1664 C 0.28956 0.36468 0.8513 0.0
C1665 C 0.27147 0.40916 0.85613 0.0
H1666 H 0.28231 0.40347 0.92254 0.0
C1667 C 0.26753 0.46584 0.92373 0.0
C1668 C 0.25988 0.46183 0.9444 0.0
C1669 C 0.27202 0.45263 0.90809 0.0
C1670 C 0.27921 0.40527 0.90405 0.0
H1671 H 0.25117 0.35763 0.80528 0.0
H1672 H 0.25329 0.38448 0.82852 0.0
H1673 H 0.2853 0.37906 0.89541 0.0
H1674 H 0.25074 0.44132 0.96522 0.0
H1675 H 0.25811 0.41817 0.93769 0.0
H1676 H 0.26437 0.43511 0.86503 0.0
C1677 C 0.26339 0.37497 0.83104 0.0
C1678 C 0.28119 0.39134 0.88842 0.0
C1679 C 0.26212 0.35955 0.81777 0.0
C1680 C 0.25673 0.44457 0.94934 0.0
C1681 C 0.2611 0.43138 0.93369 0.0
C1682 C 0.26937 0.42307 0.87181 0.0
C1683 C 0.27694 0.37758 0.84829 0.0
C1684 C 0.27698 0.39301 0.86434 0.0
C1685 C 0.26881 0.43525 0.91289 0.0
C1686 C 0.27284 0.42115 0.89599 0.0
H1687 H 0.29785 0.33928 0.84117 0.0
H1688 H 0.30031 0.36641 0.86414 0.0
H1689 H 0.26838 0.41094 0.83764 0.0
H1690 H 0.26999 0.47917 0.91972 0.0
H1691 H 0.27806 0.45602 0.89232 0.0
C1692 C 0.68126 0.24446 0.85997 0.0
C1693 C 0.67977 0.25243 0.83817 0.0
C1694 C 0.66739 0.24434 0.8743 0.0
C1695 C 0.62738 0.26715 0.88618 0.0
H1696 H 0.61499 0.22445 0.91463 0.0
C1697 C 0.56472 0.26046 0.93374 0.0
C1698 C 0.56534 0.25076 0.95411 0.0
C1699 C 0.57876 0.26069 0.91972 0.0
C1700 C 0.61841 0.23654 0.9071 0.0
H1701 H 0.6624 0.2664 0.81431 0.0
H1702 H 0.6383 0.26643 0.83954 0.0
H1703 H 0.63949 0.22494 0.89014 0.0
H1704 H 0.58122 0.23393 0.97603 0.0
H1705 H 0.60588 0.23455 0.9518 0.0
H1706 H 0.60648 0.27884 0.90331 0.0
C1707 C 0.65028 0.26039 0.84556 0.0
C1708 C 0.63243 0.2368 0.89303 0.0
C1709 C 0.6641 0.2604 0.83115 0.0
C1710 C 0.58031 0.24134 0.96025 0.0
C1711 C 0.59441 0.24167 0.94633 0.0
C1712 C 0.61344 0.26693 0.90038 0.0
C1713 C 0.65176 0.2523 0.86723 0.0
C1714 C 0.63701 0.25209 0.88237 0.0
C1715 C 0.59379 0.25133 0.92587 0.0
C1716 C 0.60875 0.25161 0.91096 0.0
H1717 H 0.69323 0.23847 0.86612 0.0
H1718 H 0.66896 0.23822 0.89106 0.0
H1719 H 0.63077 0.27917 0.87842 0.0
H1720 H 0.55325 0.26765 0.92842 0.0
H1721 H 0.57772 0.26801 0.90387 0.0
C1722 C 0.73616 0.65756 0.81229 0.0
C1723 C 0.74987 0.66258 0.79919 0.0
C1724 C 0.73712 0.6423 0.82462 0.0
C1725 C 0.76848 0.61227 0.85139 0.0
H1726 H 0.72794 0.58382 0.85661 0.0
C1727 C 0.76868 0.55174 0.90839 0.0
C1728 C 0.755 0.55108 0.92325 0.0
C1729 C 0.7685 0.56371 0.89058 0.0
C1730 C 0.73936 0.59166 0.8553 0.0
H1731 H 0.77509 0.65534 0.7881 0.0
H1732 H 0.77676 0.62859 0.80968 0.0
H1733 H 0.72673 0.60775 0.82982 0.0
H1734 H 0.73058 0.56269 0.93131 0.0
H1735 H 0.7302 0.58333 0.90018 0.0
H1736 H 0.78099 0.59633 0.87723 0.0
C1737 C 0.76539 0.6366 0.81066 0.0
C1738 C 0.73866 0.60536 0.84002 0.0
C1739 C 0.76444 0.6519 0.79834 0.0
C1740 C 0.74113 0.56257 0.91985 0.0
C1741 C 0.74091 0.57442 0.90202 0.0
C1742 C 0.76919 0.59851 0.86663 0.0
C1743 C 0.75178 0.63171 0.82407 0.0
C1744 C 0.75309 0.61606 0.83831 0.0
C1745 C 0.7546 0.57514 0.88725 0.0
C1746 C 0.75451 0.58834 0.86911 0.0
H1747 H 0.72488 0.66566 0.81353 0.0
H1748 H 0.72655 0.63905 0.83514 0.0
H1749 H 0.77977 0.62039 0.85062 0.0
H1750 H 0.77946 0.54293 0.9104 0.0
H1751 H 0.77918 0.56396 0.87933 0.0
loop_
_geom_bond_atom_site_label_1
_geom_bond_atom_site_label_2
_geom_bond_distance
_geom_bond_site_symmetry_2
_ccdc_geom_bond_type
C0 C1 1.384 . S
C0 C2 1.384 . S
C0 H28 0.931 . S
C1 C0 1.384 . S
C1 C4 1.382 . S
C2 C0 1.384 . S
C2 C3 1.381 . S
C2 H29 0.930 . S
C3 C2 1.381 . S
C3 C5 1.381 . S
C3 C6 1.487 . S
C4 C1 1.382 . S
C4 C5 1.387 . S
C4 H30 0.930 . S
C5 C3 1.381 . S
C5 C4 1.387 . S
C5 H31 0.931 . S
C6 C3 1.487 . S
C6 C13 1.399 . S
C6 N44 1.343 . S
C7 C8 1.384 . S
C7 C9 1.384 . S
C7 H32 0.931 . S
C8 C7 1.384 . S
C8 C11 1.382 . S
C9 C7 1.384 . S
C9 C10 1.381 . S
C9 H33 0.930 . S
C10 C9 1.381 . S
C10 C12 1.381 . S
C10 C13 1.487 . S
C11 C8 1.382 . S
C11 C12 1.387 . S
C11 H34 0.930 . S
C12 C10 1.381 . S
C12 C11 1.387 . S
C12 H35 0.931 . S
C13 C6 1.399 . S
C13 C10 1.487 . S
C13 N45 1.343 . S
C14 C15 1.384 . S
C14 C16 1.384 . S
C14 H36 0.931 . S
C15 C14 1.384 . S
C15 C18 1.382 . S
C16 C14 1.384 . S
C16 C17 1.381 . S
C16 H37 0.930 . S
C17 C16 1.381 . S
C17 C19 1.381 . S
C17 C20 1.487 . S
C18 C15 1.382 . S
C18 C19 1.387 . S
C18 H38 0.930 . S
C19 C17 1.381 . S
C19 C18 1.387 . S
C19 H39 0.931 . S
C20 C17 1.487 . S
C20 C27 1.399 . S
C20 N45 1.343 . S
C21 C22 1.384 . S
C21 C23 1.384 . S
C21 H40 0.931 . S
C22 C21 1.384 . S
C22 C25 1.382 . S
C23 C21 1.384 . S
C23 C24 1.381 . S
C23 H41 0.930 . S
C24 C23 1.381 . S
C24 C26 1.381 . S
C24 C27 1.487 . S
C25 C22 1.382 . S
C25 C26 1.387 . S
C25 H42 0.930 . S
C26 C24 1.381 . S
C26 C25 1.387 . S
C26 H43 0.931 . S
C27 C20 1.399 . S
C27 C24 1.487 . S
C27 N44 1.343 . S
H28 C0 0.931 . S
H29 C2 0.930 . S
H30 C4 0.930 . S
H31 C5 0.931 . S
H32 C7 0.931 . S
H33 C9 0.930 . S
H34 C11 0.930 . S
H35 C12 0.931 . S
H36 C14 0.931 . S
H37 C16 0.930 . S
H38 C18 0.930 . S
H39 C19 0.931 . S
H40 C21 0.931 . S
H41 C23 0.930 . S
H42 C25 0.930 . S
H43 C26 0.931 . S
N44 C6 1.343 . S
N44 C27 1.343 . S
N45 C13 1.343 . S
N45 C20 1.343 . S
C46 C47 1.384 . S
C46 C48 1.384 . S
C46 H74 0.931 . S
C47 C46 1.384 . S
C47 C50 1.382 . S
C48 C46 1.384 . S
C48 C49 1.381 . S
C48 H75 0.930 . S
C49 C48 1.381 . S
C49 C51 1.381 . S
C49 C52 1.487 . S
C50 C47 1.382 . S
C50 C51 1.387 . S
C50 H76 0.930 . S
C51 C49 1.381 . S
C51 C50 1.387 . S
C51 H77 0.931 . S
C52 C49 1.487 . S
C52 C59 1.399 . S
C52 N90 1.343 . S
C53 C54 1.384 . S
C53 C55 1.384 . S
C53 H78 0.931 . S
C54 C53 1.384 . S
C54 C57 1.382 . S
C55 C53 1.384 . S
C55 C56 1.381 . S
C55 H79 0.930 . S
C56 C55 1.381 . S
C56 C58 1.381 . S
C56 C59 1.487 . S
C57 C54 1.382 . S
C57 C58 1.387 . S
C57 H80 0.930 . S
C58 C56 1.381 . S
C58 C57 1.387 . S
C58 H81 0.931 . S
C59 C52 1.399 . S
C59 C56 1.487 . S
C59 N91 1.343 . S
C60 C61 1.384 . S
C60 C62 1.384 . S
C60 H82 0.931 . S
C61 C60 1.384 . S
C61 C64 1.382 . S
C62 C60 1.384 . S
C62 C63 1.381 . S
C62 H83 0.930 . S
C63 C62 1.381 . S
C63 C65 1.381 . S
C63 C66 1.487 . S
C64 C61 1.382 . S
C64 C65 1.387 . S
C64 H84 0.930 . S
C65 C63 1.381 . S
C65 C64 1.387 . S
C65 H85 0.931 . S
C66 C63 1.487 . S
C66 C73 1.399 . S
C66 N91 1.343 . S
C67 C68 1.384 . S
C67 C69 1.384 . S
C67 H86 0.931 . S
C68 C67 1.384 . S
C68 C71 1.382 . S
C69 C67 1.384 . S
C69 C70 1.381 . S
C69 H87 0.930 . S
C70 C69 1.381 . S
C70 C72 1.381 . S
C70 C73 1.487 . S
C71 C68 1.382 . S
C71 C72 1.387 . S
C71 H88 0.930 . S
C72 C70 1.381 . S
C72 C71 1.387 . S
C72 H89 0.931 . S
C73 C66 1.399 . S
C73 C70 1.487 . S
C73 N90 1.343 . S
H74 C46 0.931 . S
H75 C48 0.930 . S
H76 C50 0.930 . S
H77 C51 0.931 . S
H78 C53 0.931 . S
H79 C55 0.930 . S
H80 C57 0.930 . S
H81 C58 0.931 . S
H82 C60 0.931 . S
H83 C62 0.930 . S
H84 C64 0.930 . S
H85 C65 0.931 . S
H86 C67 0.931 . S
H87 C69 0.930 . S
H88 C71 0.930 . S
H89 C72 0.931 . S
N90 C52 1.343 . S
N90 C73 1.343 . S
N91 C59 1.343 . S
N91 C66 1.343 . S
C92 C93 1.384 . S
C92 C94 1.384 . S
C92 H120 0.931 . S
C93 C92 1.384 . S
C93 C96 1.382 . S
C94 C92 1.384 . S
C94 C95 1.381 . S
C94 H121 0.930 . S
C95 C94 1.381 . S
C95 C97 1.381 . S
C95 C98 1.487 . S
C96 C93 1.382 . S
C96 C97 1.387 . S
C96 H122 0.930 . S
C97 C95 1.381 . S
C97 C96 1.387 . S
C97 H123 0.931 . S
C98 C95 1.487 . S
C98 C105 1.399 . S
C98 N136 1.343 . S
C99 C100 1.384 . S
C99 C101 1.384 . S
C99 H124 0.931 . S
C100 C99 1.384 . S
C100 C103 1.382 . S
C101 C99 1.384 . S
C101 C102 1.381 . S
C101 H125 0.930 . S
C102 C101 1.381 . S
C102 C104 1.381 . S
C102 C105 1.487 . S
C103 C100 1.382 . S
C103 C104 1.387 . S
C103 H126 0.930 . S
C104 C102 1.381 . S
C104 C103 1.387 . S
C104 H127 0.931 . S
C105 C98 1.399 . S
C105 C102 1.487 . S
C105 N137 1.343 . S
C106 C107 1.384 . S
C106 C108 1.384 . S
C106 H128 0.931 . S
C107 C106 1.384 . S
C107 C110 1.382 . S
C108 C106 1.384 . S
C108 C109 1.381 . S
C108 H129 0.930 . S
C109 C108 1.381 . S
C109 C111 1.381 . S
C109 C112 1.487 . S
C110 C107 1.382 . S
C110 C111 1.387 . S
C110 H130 0.930 . S
C111 C109 1.381 . S
C111 C110 1.387 . S
C111 H131 0.931 . S
C112 C109 1.487 . S
C112 C119 1.399 . S
C112 N137 1.343 . S
C113 C114 1.384 . S
C113 C115 1.384 . S
C113 H132 0.931 . S
C114 C113 1.384 . S
C114 C117 1.382 . S
C115 C113 1.384 . S
C115 C116 1.381 . S
C115 H133 0.930 . S
C116 C115 1.381 . S
C116 C118 1.381 . S
C116 C119 1.487 . S
C117 C114 1.382 . S
C117 C118 1.387 . S
C117 H134 0.930 . S
C118 C116 1.381 . S
C118 C117 1.387 . S
C118 H135 0.931 . S
C119 C112 1.399 . S
C119 C116 1.487 . S
C119 N136 1.343 . S
H120 C92 0.931 . S
H121 C94 0.930 . S
H122 C96 0.930 . S
H123 C97 0.931 . S
H124 C99 0.931 . S
H125 C101 0.930 . S
H126 C103 0.930 . S
H127 C104 0.931 . S
H128 C106 0.931 . S
H129 C108 0.930 . S
H130 C110 0.930 . S
H131 C111 0.931 . S
H132 C113 0.931 . S
H133 C115 0.930 . S
H134 C117 0.930 . S
H135 C118 0.931 . S
N136 C98 1.343 . S
N136 C119 1.343 . S
N137 C105 1.343 . S
N137 C112 1.343 . S
C138 C139 1.384 . S
C138 C140 1.384 . S
C138 H166 0.931 . S
C139 C138 1.384 . S
C139 C142 1.382 . S
C140 C138 1.384 . S
C140 C141 1.381 . S
C140 H167 0.930 . S
C141 C140 1.381 . S
C141 C143 1.381 . S
C141 C144 1.487 . S
C142 C139 1.382 . S
C142 C143 1.387 . S
C142 H168 0.930 . S
C143 C141 1.381 . S
C143 C142 1.387 . S
C143 H169 0.931 . S
C144 C141 1.487 . S
C144 C151 1.399 . S
C144 N182 1.343 . S
C145 C146 1.384 . S
C145 C147 1.384 . S
C145 H170 0.931 . S
C146 C145 1.384 . S
C146 C149 1.382 . S
C147 C145 1.384 . S
C147 C148 1.381 . S
C147 H171 0.930 . S
C148 C147 1.381 . S
C148 C150 1.381 . S
C148 C151 1.487 . S
C149 C146 1.382 . S
C149 C150 1.387 . S
C149 H172 0.930 . S
C150 C148 1.381 . S
C150 C149 1.387 . S
C150 H173 0.931 . S
C151 C144 1.399 . S
C151 C148 1.487 . S
C151 N183 1.343 . S
C152 C153 1.384 . S
C152 C154 1.384 . S
C152 H174 0.931 . S
C153 C152 1.384 . S
C153 C156 1.382 . S
C154 C152 1.384 . S
C154 C155 1.381 . S
C154 H175 0.930 . S
C155 C154 1.381 . S
C155 C157 1.381 . S
C155 C158 1.487 . S
C156 C153 1.382 . S
C156 C157 1.387 . S
C156 H176 0.930 . S
C157 C155 1.381 . S
C157 C156 1.387 . S
C157 H177 0.931 . S
C158 C155 1.487 . S
C158 C165 1.399 . S
C158 N183 1.343 . S
C159 C160 1.384 . S
C159 C161 1.384 . S
C159 H178 0.931 . S
C160 C159 1.384 . S
C160 C163 1.382 . S
C161 C159 1.384 . S
C161 C162 1.381 . S
C161 H179 0.930 . S
C162 C161 1.381 . S
C162 C164 1.381 . S
C162 C165 1.487 . S
C163 C160 1.382 . S
C163 C164 1.387 . S
C163 H180 0.930 . S
C164 C162 1.381 . S
C164 C163 1.387 . S
C164 H181 0.931 . S
C165 C158 1.399 . S
C165 C162 1.487 . S
C165 N182 1.343 . S
H166 C138 0.931 . S
H167 C140 0.930 . S
H168 C142 0.930 . S
H169 C143 0.931 . S
H170 C145 0.931 . S
H171 C147 0.930 . S
H172 C149 0.930 . S
H173 C150 0.931 . S
H174 C152 0.931 . S
H175 C154 0.930 . S
H176 C156 0.930 . S
H177 C157 0.931 . S
H178 C159 0.931 . S
H179 C161 0.930 . S
H180 C163 0.930 . S
H181 C164 0.931 . S
N182 C144 1.343 . S
N182 C165 1.343 . S
N183 C151 1.343 . S
N183 C158 1.343 . S
C184 C185 1.384 . S
C184 C186 1.384 . S
C184 H212 0.931 . S
C185 C184 1.384 . S
C185 C188 1.382 . S
C186 C184 1.384 . S
C186 C187 1.381 . S
C186 H213 0.930 . S
C187 C186 1.381 . S
C187 C189 1.381 . S
C187 C190 1.487 . S
C188 C185 1.382 . S
C188 C189 1.387 . S
C188 H214 0.930 . S
C189 C187 1.381 . S
C189 C188 1.387 . S
C189 H215 0.931 . S
C190 C187 1.487 . S
C190 C197 1.399 . S
C190 N228 1.343 . S
C191 C192 1.384 . S
C191 C193 1.384 . S
C191 H216 0.931 . S
C192 C191 1.384 . S
C192 C195 1.382 . S
C193 C191 1.384 . S
C193 C194 1.381 . S
C193 H217 0.930 . S
C194 C193 1.381 . S
C194 C196 1.381 . S
C194 C197 1.487 . S
C195 C192 1.382 . S
C195 C196 1.387 . S
C195 H218 0.930 . S
C196 C194 1.381 . S
C196 C195 1.387 . S
C196 H219 0.931 . S
C197 C190 1.399 . S
C197 C194 1.487 . S
C197 N229 1.343 . S
C198 C199 1.384 . S
C198 C200 1.384 . S
C198 H220 0.931 . S
C199 C198 1.384 . S
C199 C202 1.382 . S
C200 C198 1.384 . S
C200 C201 1.381 . S
C200 H221 0.930 . S
C201 C200 1.381 . S
C201 C203 1.381 . S
C201 C204 1.487 . S
C202 C199 1.382 . S
C202 C203 1.387 . S
C202 H222 0.930 . S
C203 C201 1.381 . S
C203 C202 1.387 . S
C203 H223 0.931 . S
C204 C201 1.487 . S
C204 C211 1.399 . S
C204 N229 1.343 . S
C205 C206 1.384 . S
C205 C207 1.384 . S
C205 H224 0.931 . S
C206 C205 1.384 . S
C206 C209 1.382 . S
C207 C205 1.384 . S
C207 C208 1.381 . S
C207 H225 0.930 . S
C208 C207 1.381 . S
C208 C210 1.381 . S
C208 C211 1.487 . S
C209 C206 1.382 . S
C209 C210 1.387 . S
C209 H226 0.930 . S
C210 C208 1.381 . S
C210 C209 1.387 . S
C210 H227 0.931 . S
C211 C204 1.399 . S
C211 C208 1.487 . S
C211 N228 1.343 . S
H212 C184 0.931 . S
H213 C186 0.930 . S
H214 C188 0.930 . S
H215 C189 0.931 . S
H216 C191 0.931 . S
H217 C193 0.930 . S
H218 C195 0.930 . S
H219 C196 0.931 . S
H220 C198 0.931 . S
H221 C200 0.930 . S
H222 C202 0.930 . S
H223 C203 0.931 . S
H224 C205 0.931 . S
H225 C207 0.930 . S
H226 C209 0.930 . S
H227 C210 0.931 . S
N228 C190 1.343 . S
N228 C211 1.343 . S
N229 C197 1.343 . S
N229 C204 1.343 . S
C230 C231 1.384 . S
C230 C232 1.384 . S
C230 H258 0.931 . S
C231 C230 1.384 . S
C231 C234 1.382 . S
C232 C230 1.384 . S
C232 C233 1.381 . S
C232 H259 0.930 . S
C233 C232 1.381 . S
C233 C235 1.381 . S
C233 C236 1.487 . S
C234 C231 1.382 . S
C234 C235 1.387 . S
C234 H260 0.930 . S
C235 C233 1.381 . S
C235 C234 1.387 . S
C235 H261 0.931 . S
C236 C233 1.487 . S
C236 C243 1.399 . S
C236 N274 1.343 . S
C237 C238 1.384 . S
C237 C239 1.384 . S
C237 H262 0.931 . S
C238 C237 1.384 . S
C238 C241 1.382 . S
C239 C237 1.384 . S
C239 C240 1.381 . S
C239 H263 0.930 . S
C240 C239 1.381 . S
C240 C242 1.381 . S
C240 C243 1.487 . S
C241 C238 1.382 . S
C241 C242 1.387 . S
C241 H264 0.930 . S
C242 C240 1.381 . S
C242 C241 1.387 . S
C242 H265 0.931 . S
C243 C236 1.399 . S
C243 C240 1.487 . S
C243 N275 1.343 . S
C244 C245 1.384 . S
C244 C246 1.384 . S
C244 H266 0.931 . S
C245 C244 1.384 . S
C245 C248 1.382 . S
C246 C244 1.384 . S
C246 C247 1.381 . S
C246 H267 0.930 . S
C247 C246 1.381 . S
C247 C249 1.381 . S
C247 C250 1.487 . S
C248 C245 1.382 . S
C248 C249 1.387 . S
C248 H268 0.930 . S
C249 C247 1.381 . S
C249 C248 1.387 . S
C249 H269 0.931 . S
C250 C247 1.487 . S
C250 C257 1.399 . S
C250 N275 1.343 . S
C251 C252 1.384 . S
C251 C253 1.384 . S
C251 H270 0.931 . S
C252 C251 1.384 . S
C252 C255 1.382 . S
C253 C251 1.384 . S
C253 C254 1.381 . S
C253 H271 0.930 . S
C254 C253 1.381 . S
C254 C256 1.381 . S
C254 C257 1.487 . S
C255 C252 1.382 . S
C255 C256 1.387 . S
C255 H272 0.930 . S
C256 C254 1.381 . S
C256 C255 1.387 . S
C256 H273 0.931 . S
C257 C250 1.399 . S
C257 C254 1.487 . S
C257 N274 1.343 . S
H258 C230 0.931 . S
H259 C232 0.930 . S
H260 C234 0.930 . S
H261 C235 0.931 . S
H262 C237 0.931 . S
H263 C239 0.930 . S
H264 C241 0.930 . S
H265 C242 0.931 . S
H266 C244 0.931 . S
H267 C246 0.930 . S
H268 C248 0.930 . S
H269 C249 0.931 . S
H270 C251 0.931 . S
H271 C253 0.930 . S
H272 C255 0.930 . S
H273 C256 0.931 . S
N274 C236 1.343 . S
N274 C257 1.343 . S
N275 C243 1.343 . S
N275 C250 1.343 . S
C276 C277 1.384 . S
C276 C278 1.384 . S
C276 H304 0.931 . S
C277 C276 1.384 . S
C277 C280 1.382 . S
C278 C276 1.384 . S
C278 C279 1.381 . S
C278 H305 0.930 . S
C279 C278 1.381 . S
C279 C281 1.381 . S
C279 C282 1.487 . S
C280 C277 1.382 . S
C280 C281 1.387 . S
C280 H306 0.930 . S
C281 C279 1.381 . S
C281 C280 1.387 . S
C281 H307 0.931 . S
C282 C279 1.487 . S
C282 C289 1.399 . S
C282 N320 1.343 . S
C283 C284 1.384 . S
C283 C285 1.384 . S
C283 H308 0.931 . S
C284 C283 1.384 . S
C284 C287 1.382 . S
C285 C283 1.384 . S
C285 C286 1.381 . S
C285 H309 0.930 . S
C286 C285 1.381 . S
C286 C288 1.381 . S
C286 C289 1.487 . S
C287 C284 1.382 . S
C287 C288 1.387 . S
C287 H310 0.930 . S
C288 C286 1.381 . S
C288 C287 1.387 . S
C288 H311 0.931 . S
C289 C282 1.399 . S
C289 C286 1.487 . S
C289 N321 1.343 . S
C290 C291 1.384 . S
C290 C292 1.384 . S
C290 H312 0.931 . S
C291 C290 1.384 . S
C291 C294 1.382 . S
C292 C290 1.384 . S
C292 C293 1.381 . S
C292 H313 0.930 . S
C293 C292 1.381 . S
C293 C295 1.381 . S
C293 C296 1.487 . S
C294 C291 1.382 . S
C294 C295 1.387 . S
C294 H314 0.930 . S
C295 C293 1.381 . S
C295 C294 1.387 . S
C295 H315 0.931 . S
C296 C293 1.487 . S
C296 C303 1.399 . S
C296 N321 1.343 . S
C297 C298 1.384 . S
C297 C299 1.384 . S
C297 H316 0.931 . S
C298 C297 1.384 . S
C298 C301 1.382 . S
C299 C297 1.384 . S
C299 C300 1.381 . S
C299 H317 0.930 . S
C300 C299 1.381 . S
C300 C302 1.381 . S
C300 C303 1.487 . S
C301 C298 1.382 . S
C301 C302 1.387 . S
C301 H318 0.930 . S
C302 C300 1.381 . S
C302 C301 1.387 . S
C302 H319 0.931 . S
C303 C296 1.399 . S
C303 C300 1.487 . S
C303 N320 1.343 . S
H304 C276 0.931 . S
H305 C278 0.930 . S
H306 C280 0.930 . S
H307 C281 0.931 . S
H308 C283 0.931 . S
H309 C285 0.930 . S
H310 C287 0.930 . S
H311 C288 0.931 . S
H312 C290 0.931 . S
H313 C292 0.930 . S
H314 C294 0.930 . S
H315 C295 0.931 . S
H316 C297 0.931 . S
H317 C299 0.930 . S
H318 C301 0.930 . S
H319 C302 0.931 . S
N320 C282 1.343 . S
N320 C303 1.343 . S
N321 C289 1.343 . S
N321 C296 1.343 . S
C322 C323 1.384 . S
C322 C324 1.384 . S
C322 H350 0.931 . S
C323 C322 1.384 . S
C323 C326 1.382 . S
C324 C322 1.384 . S
C324 C325 1.381 . S
C324 H351 0.930 . S
C325 C324 1.381 . S
C325 C327 1.381 . S
C325 C328 1.487 . S
C326 C323 1.382 . S
C326 C327 1.387 . S
C326 H352 0.930 . S
C327 C325 1.381 . S
C327 C326 1.387 . S
C327 H353 0.931 . S
C328 C325 1.487 . S
C328 C335 1.399 . S
C328 N366 1.343 . S
C329 C330 1.384 . S
C329 C331 1.384 . S
C329 H354 0.931 . S
C330 C329 1.384 . S
C330 C333 1.382 . S
C331 C329 1.384 . S
C331 C332 1.381 . S
C331 H355 0.930 . S
C332 C331 1.381 . S
C332 C334 1.381 . S
C332 C335 1.487 . S
C333 C330 1.382 . S
C333 C334 1.387 . S
C333 H356 0.930 . S
C334 C332 1.381 . S
C334 C333 1.387 . S
C334 H357 0.931 . S
C335 C328 1.399 . S
C335 C332 1.487 . S
C335 N367 1.343 . S
C336 C337 1.384 . S
C336 C338 1.384 . S
C336 H358 0.931 . S
C337 C336 1.384 . S
C337 C340 1.382 . S
C338 C336 1.384 . S
C338 C339 1.381 . S
C338 H359 0.930 . S
C339 C338 1.381 . S
C339 C341 1.381 . S
C339 C342 1.487 . S
C340 C337 1.382 . S
C340 C341 1.387 . S
C340 H360 0.930 . S
C341 C339 1.381 . S
C341 C340 1.387 . S
C341 H361 0.931 . S
C342 C339 1.487 . S
C342 C349 1.399 . S
C342 N367 1.343 . S
C343 C344 1.384 . S
C343 C345 1.384 . S
C343 H362 0.931 . S
C344 C343 1.384 . S
C344 C347 1.382 . S
C345 C343 1.384 . S
C345 C346 1.381 . S
C345 H363 0.930 . S
C346 C345 1.381 . S
C346 C348 1.381 . S
C346 C349 1.487 . S
C347 C344 1.382 . S
C347 C348 1.387 . S
C347 H364 0.930 . S
C348 C346 1.381 . S
C348 C347 1.387 . S
C348 H365 0.931 . S
C349 C342 1.399 . S
C349 C346 1.487 . S
C349 N366 1.343 . S
H350 C322 0.931 . S
H351 C324 0.930 . S
H352 C326 0.930 . S
H353 C327 0.931 . S
H354 C329 0.931 . S
H355 C331 0.930 . S
H356 C333 0.930 . S
H357 C334 0.931 . S
H358 C336 0.931 . S
H359 C338 0.930 . S
H360 C340 0.930 . S
H361 C341 0.931 . S
H362 C343 0.931 . S
H363 C345 0.930 . S
H364 C347 0.930 . S
H365 C348 0.931 . S
N366 C328 1.343 . S
N366 C349 1.343 . S
N367 C335 1.343 . S
N367 C342 1.343 . S
C368 C369 1.443 . S
C368 N372 1.376 . S
C368 C406 1.389 . S
C369 C368 1.443 . S
C369 C370 1.340 . S
C369 H409 0.951 . S
C370 C369 1.340 . S
C370 C371 1.439 . S
C370 H410 0.950 . S
C371 C370 1.439 . S
C371 N372 1.374 . S
C371 C405 1.395 . S
N372 C368 1.376 . S
N372 C371 1.374 . S
N372 Co373 2.008 . S
Co373 N372 2.008 . S
Co373 N374 1.995 1_455 S
Co373 N379 2.008 1_455 S
Co373 N384 1.995 . S
Co373 N389 2.282 1_455 S
Co373 N395 2.282 . S
N374 Co373 1.995 1_655 S
N374 C375 1.376 . S
N374 C378 1.383 . S
C375 N374 1.376 . S
C375 C376 1.446 . S
C375 C405 1.391 1_655 S
C376 C375 1.446 . S
C376 C377 1.339 . S
C376 H411 0.949 . S
C377 C376 1.339 . S
C377 C378 1.439 . S
C377 H412 0.950 . S
C378 N374 1.383 . S
C378 C377 1.439 . S
C378 C407 1.392 . S
N379 Co373 2.008 1_655 S
N379 C380 1.376 . S
N379 C383 1.374 . S
C380 N379 1.376 . S
C380 C381 1.443 . S
C380 C407 1.389 . S
C381 C380 1.443 . S
C381 C382 1.340 . S
C381 H413 0.951 . S
C382 C381 1.340 . S
C382 C383 1.439 . S
C382 H414 0.950 . S
C383 N379 1.374 . S
C383 C382 1.439 . S
C383 C408 1.404 . S
N384 Co373 1.995 . S
N384 C385 1.376 . S
N384 C388 1.383 . S
C385 N384 1.376 . S
C385 C386 1.446 . S
C385 C408 1.382 1_455 S
C386 C385 1.446 . S
C386 C387 1.339 . S
C386 H415 0.949 . S
C387 C386 1.339 . S
C387 C388 1.439 . S
C387 H416 0.950 . S
C388 N384 1.383 . S
C388 C387 1.439 . S
C388 C406 1.392 . S
N389 Co373 2.282 1_655 S
N389 C392 1.332 . S
N389 C394 1.332 . S
C390 C391 1.386 . S
C390 C393 1.388 . S
C391 C390 1.386 . S
C391 C392 1.382 . S
C391 H417 0.950 . S
C392 N389 1.332 . S
C392 C391 1.382 . S
C392 H403 0.952 . S
C393 C390 1.388 . S
C393 C394 1.382 . S
C393 H418 0.950 . S
C394 N389 1.332 . S
C394 C393 1.382 . S
C394 H404 0.948 . S
N395 Co373 2.282 . S
N395 C399 1.332 . S
N395 C400 1.332 . S
C396 C397 1.388 . S
C396 C400 1.382 . S
C396 H419 0.950 . S
C397 C396 1.388 . S
C397 C398 1.386 . S
C398 C397 1.386 . S
C398 C399 1.382 . S
C398 H420 0.950 . S
C399 N395 1.332 . S
C399 C398 1.382 . S
C399 H401 0.952 . S
C400 N395 1.332 . S
C400 C396 1.382 . S
C400 H402 0.948 . S
H401 C399 0.952 . S
H402 C400 0.948 . S
H403 C392 0.952 . S
H404 C394 0.948 . S
C405 C371 1.395 . S
C405 C375 1.391 1_455 S
C406 C368 1.389 . S
C406 C388 1.392 . S
C407 C378 1.392 . S
C407 C380 1.389 . S
C408 C383 1.404 . S
C408 C385 1.382 1_655 S
H409 C369 0.951 . S
H410 C370 0.950 . S
H411 C376 0.949 . S
H412 C377 0.950 . S
H413 C381 0.951 . S
H414 C382 0.950 . S
H415 C386 0.949 . S
H416 C387 0.950 . S
H417 C391 0.950 . S
H418 C393 0.950 . S
H419 C396 0.950 . S
H420 C398 0.950 . S
C421 C422 1.443 . S
C421 N425 1.376 . S
C421 C459 1.389 . S
C422 C421 1.443 . S
C422 C423 1.340 . S
C422 H462 0.951 . S
C423 C422 1.340 . S
C423 C424 1.439 . S
C423 H463 0.950 . S
C424 C423 1.439 . S
C424 N425 1.374 . S
C424 C458 1.395 . S
N425 C421 1.376 . S
N425 C424 1.374 . S
N425 Co426 2.008 . S
Co426 N425 2.008 . S
Co426 N427 1.995 1_545 S
Co426 N432 2.008 1_545 S
Co426 N437 1.995 . S
Co426 N442 2.282 1_545 S
Co426 N448 2.282 . S
N427 Co426 1.995 1_565 S
N427 C428 1.376 . S
N427 C431 1.383 . S
C428 N427 1.376 . S
C428 C429 1.446 . S
C428 C458 1.391 1_565 S
C429 C428 1.446 . S
C429 C430 1.339 . S
C429 H464 0.949 . S
C430 C429 1.339 . S
C430 C431 1.439 . S
C430 H465 0.950 . S
C431 N427 1.383 . S
C431 C430 1.439 . S
C431 C460 1.392 . S
N432 Co426 2.008 1_565 S
N432 C433 1.376 . S
N432 C436 1.374 . S
C433 N432 1.376 . S
C433 C434 1.443 . S
C433 C460 1.389 . S
C434 C433 1.443 . S
C434 C435 1.340 . S
C434 H466 0.951 . S
C435 C434 1.340 . S
C435 C436 1.439 . S
C435 H467 0.950 . S
C436 N432 1.374 . S
C436 C435 1.439 . S
C436 C461 1.407 . S
N437 Co426 1.995 . S
N437 C438 1.376 . S
N437 C441 1.383 . S
C438 N437 1.376 . S
C438 C439 1.446 . S
C438 C461 1.379 1_545 S
C439 C438 1.446 . S
C439 C440 1.339 . S
C439 H468 0.949 . S
C440 C439 1.339 . S
C440 C441 1.439 . S
C440 H469 0.950 . S
C441 N437 1.383 . S
C441 C440 1.439 . S
C441 C459 1.392 . S
N442 Co426 2.282 1_565 S
N442 C445 1.332 . S
N442 C447 1.332 . S
C443 C444 1.386 . S
C443 C446 1.388 . S
C444 C443 1.386 . S
C444 C445 1.382 . S
C444 H470 0.950 . S
C445 N442 1.332 . S
C445 C444 1.382 . S
C445 H456 0.952 . S
C446 C443 1.388 . S
C446 C447 1.382 . S
C446 H471 0.950 . S
C447 N442 1.332 . S
C447 C446 1.382 . S
C447 H457 0.948 . S
N448 Co426 2.282 . S
N448 C452 1.332 . S
N448 C453 1.332 . S
C449 C450 1.388 . S
C449 C453 1.382 . S
C449 H472 0.950 . S
C450 C449 1.388 . S
C450 C451 1.386 . S
C451 C450 1.386 . S
C451 C452 1.382 . S
C451 H473 0.950 . S
C452 N448 1.332 . S
C452 C451 1.382 . S
C452 H454 0.952 . S
C453 N448 1.332 . S
C453 C449 1.382 . S
C453 H455 0.948 . S
H454 C452 0.952 . S
H455 C453 0.948 . S
H456 C445 0.952 . S
H457 C447 0.948 . S
C458 C424 1.395 . S
C458 C428 1.391 1_545 S
C459 C421 1.389 . S
C459 C441 1.392 . S
C460 C431 1.392 . S
C460 C433 1.389 . S
C461 C436 1.407 . S
C461 C438 1.379 1_565 S
H462 C422 0.951 . S
H463 C423 0.950 . S
H464 C429 0.949 . S
H465 C430 0.950 . S
H466 C434 0.951 . S
H467 C435 0.950 . S
H468 C439 0.949 . S
H469 C440 0.950 . S
H470 C444 0.950 . S
H471 C446 0.950 . S
H472 C449 0.950 . S
H473 C451 0.950 . S
C474 C475 1.443 . S
C474 N478 1.376 . S
C474 C512 1.389 . S
C475 C474 1.443 . S
C475 C476 1.340 . S
C475 H515 0.951 . S
C476 C475 1.340 . S
C476 C477 1.439 . S
C476 H516 0.950 . S
C477 C476 1.439 . S
C477 N478 1.374 . S
C477 C511 1.395 . S
N478 C474 1.376 . S
N478 C477 1.374 . S
N478 Co479 2.008 . S
Co479 N478 2.008 . S
Co479 N480 1.995 1_455 S
Co479 N485 2.008 1_455 S
Co479 N490 1.995 . S
Co479 N495 2.282 1_455 S
Co479 N501 2.282 . S
N480 Co479 1.995 1_655 S
N480 C481 1.376 . S
N480 C484 1.383 . S
C481 N480 1.376 . S
C481 C482 1.446 . S
C481 C511 1.391 1_655 S
C482 C481 1.446 . S
C482 C483 1.339 . S
C482 H517 0.949 . S
C483 C482 1.339 . S
C483 C484 1.439 . S
C483 H518 0.950 . S
C484 N480 1.383 . S
C484 C483 1.439 . S
C484 C513 1.392 . S
N485 Co479 2.008 1_655 S
N485 C486 1.376 . S
N485 C489 1.374 . S
C486 N485 1.376 . S
C486 C487 1.443 . S
C486 C513 1.389 . S
C487 C486 1.443 . S
C487 C488 1.340 . S
C487 H519 0.951 . S
C488 C487 1.340 . S
C488 C489 1.439 . S
C488 H520 0.950 . S
C489 N485 1.374 . S
C489 C488 1.439 . S
C489 C514 1.435 . S
N490 Co479 1.995 . S
N490 C491 1.376 . S
N490 C494 1.383 . S
C491 N490 1.376 . S
C491 C492 1.446 . S
C491 C514 1.349 1_455 S
C492 C491 1.446 . S
C492 C493 1.339 . S
C492 H521 0.949 . S
C493 C492 1.339 . S
C493 C494 1.439 . S
C493 H522 0.950 . S
C494 N490 1.383 . S
C494 C493 1.439 . S
C494 C512 1.392 . S
N495 Co479 2.282 1_655 S
N495 C498 1.332 . S
N495 C500 1.332 . S
C496 C497 1.386 . S
C496 C499 1.388 . S
C497 C496 1.386 . S
C497 C498 1.382 . S
C497 H523 0.950 . S
C498 N495 1.332 . S
C498 C497 1.382 . S
C498 H509 0.952 . S
C499 C496 1.388 . S
C499 C500 1.382 . S
C499 H524 0.950 . S
C500 N495 1.332 . S
C500 C499 1.382 . S
C500 H510 0.948 . S
N501 Co479 2.282 . S
N501 C505 1.332 . S
N501 C506 1.332 . S
C502 C503 1.388 . S
C502 C506 1.382 . S
C502 H525 0.950 . S
C503 C502 1.388 . S
C503 C504 1.386 . S
C504 C503 1.386 . S
C504 C505 1.382 . S
C504 H526 0.950 . S
C505 N501 1.332 . S
C505 C504 1.382 . S
C505 H507 0.952 . S
C506 N501 1.332 . S
C506 C502 1.382 . S
C506 H508 0.948 . S
H507 C505 0.952 . S
H508 C506 0.948 . S
H509 C498 0.952 . S
H510 C500 0.948 . S
C511 C477 1.395 . S
C511 C481 1.391 1_455 S
C512 C474 1.389 . S
C512 C494 1.392 . S
C513 C484 1.392 . S
C513 C486 1.389 . S
C514 C489 1.435 . S
C514 C491 1.349 1_655 S
H515 C475 0.951 . S
H516 C476 0.950 . S
H517 C482 0.949 . S
H518 C483 0.950 . S
H519 C487 0.951 . S
H520 C488 0.950 . S
H521 C492 0.949 . S
H522 C493 0.950 . S
H523 C497 0.950 . S
H524 C499 0.950 . S
H525 C502 0.950 . S
H526 C504 0.950 . S
C527 C528 1.443 . S
C527 N531 1.376 . S
C527 C565 1.389 . S
C528 C527 1.443 . S
C528 C529 1.340 . S
C528 H568 0.951 . S
C529 C528 1.340 . S
C529 C530 1.439 . S
C529 H569 0.950 . S
C530 C529 1.439 . S
C530 N531 1.374 . S
C530 C564 1.409 . S
N531 C527 1.376 . S
N531 C530 1.374 . S
N531 Co532 2.008 1_565 S
Co532 N531 2.008 1_545 S
Co532 N533 1.995 . S
Co532 N538 2.008 . S
Co532 N543 1.995 1_545 S
Co532 N548 2.282 . S
Co532 N554 2.282 1_545 S
N533 Co532 1.995 . S
N533 C534 1.376 . S
N533 C537 1.383 . S
C534 N533 1.376 . S
C534 C535 1.446 . S
C534 C564 1.377 1_545 S
C535 C534 1.446 . S
C535 C536 1.339 . S
C535 H570 0.949 . S
C536 C535 1.339 . S
C536 C537 1.439 . S
C536 H571 0.950 . S
C537 N533 1.383 . S
C537 C536 1.439 . S
C537 C566 1.392 . S
N538 Co532 2.008 . S
N538 C539 1.376 . S
N538 C542 1.374 . S
C539 N538 1.376 . S
C539 C540 1.443 . S
C539 C566 1.389 . S
C540 C539 1.443 . S
C540 C541 1.340 . S
C540 H572 0.951 . S
C541 C540 1.340 . S
C541 C542 1.439 . S
C541 H573 0.950 . S
C542 N538 1.374 . S
C542 C541 1.439 . S
C542 C567 1.395 . S
N543 Co532 1.995 1_565 S
N543 C544 1.376 . S
N543 C547 1.383 . S
C544 N543 1.376 . S
C544 C545 1.446 . S
C544 C567 1.391 1_565 S
C545 C544 1.446 . S
C545 C546 1.339 . S
C545 H574 0.949 . S
C546 C545 1.339 . S
C546 C547 1.439 . S
C546 H575 0.950 . S
C547 N543 1.383 . S
C547 C546 1.439 . S
C547 C565 1.392 . S
N548 Co532 2.282 . S
N548 C551 1.332 . S
N548 C553 1.332 . S
C549 C550 1.386 . S
C549 C552 1.388 . S
C550 C549 1.386 . S
C550 C551 1.382 . S
C550 H576 0.950 . S
C551 N548 1.332 . S
C551 C550 1.382 . S
C551 H562 0.952 . S
C552 C549 1.388 . S
C552 C553 1.382 . S
C552 H577 0.950 . S
C553 N548 1.332 . S
C553 C552 1.382 . S
C553 H563 0.948 . S
N554 Co532 2.282 1_565 S
N554 C558 1.332 . S
N554 C559 1.332 . S
C555 C556 1.388 . S
C555 C559 1.382 . S
C555 H578 0.950 . S
C556 C555 1.388 . S
C556 C557 1.386 . S
C557 C556 1.386 . S
C557 C558 1.382 . S
C557 H579 0.950 . S
C558 N554 1.332 . S
C558 C557 1.382 . S
C558 H560 0.952 . S
C559 N554 1.332 . S
C559 C555 1.382 . S
C559 H561 0.948 . S
H560 C558 0.952 . S
H561 C559 0.948 . S
H562 C551 0.952 . S
H563 C553 0.948 . S
C564 C530 1.409 . S
C564 C534 1.377 1_565 S
C565 C527 1.389 . S
C565 C547 1.392 . S
C566 C537 1.392 . S
C566 C539 1.389 . S
C567 C542 1.395 . S
C567 C544 1.391 1_545 S
H568 C528 0.951 . S
H569 C529 0.950 . S
H570 C535 0.949 . S
H571 C536 0.950 . S
H572 C540 0.951 . S
H573 C541 0.950 . S
H574 C545 0.949 . S
H575 C546 0.950 . S
H576 C550 0.950 . S
H577 C552 0.950 . S
H578 C555 0.950 . S
H579 C557 0.950 . S
C580 C581 1.443 . S
C580 N584 1.376 . S
C580 C618 1.389 . S
C581 C580 1.443 . S
C581 C582 1.340 . S
C581 H621 0.951 . S
C582 C581 1.340 . S
C582 C583 1.439 . S
C582 H622 0.950 . S
C583 C582 1.439 . S
C583 N584 1.374 . S
C583 C617 1.395 1_554 S
N584 C580 1.376 . S
N584 C583 1.374 . S
N584 Co585 2.010 . S
Co585 N584 2.010 . S
Co585 N586 1.992 1_554 S
Co585 N591 2.006 1_554 S
Co585 N596 1.997 . S
Co585 N601 2.287 . S
Co585 N607 2.278 1_554 S
N586 Co585 1.992 1_556 S
N586 C587 1.376 . S
N586 C590 1.383 . S
C587 N586 1.376 . S
C587 C588 1.446 . S
C587 C617 1.391 . S
C588 C587 1.446 . S
C588 C589 1.339 . S
C588 H623 0.949 . S
C589 C588 1.339 . S
C589 C590 1.439 . S
C589 H624 0.950 . S
C590 N586 1.383 . S
C590 C589 1.439 . S
C590 C619 1.392 . S
N591 Co585 2.006 1_556 S
N591 C592 1.376 . S
N591 C595 1.374 . S
C592 N591 1.376 . S
C592 C593 1.443 . S
C592 C619 1.389 . S
C593 C592 1.443 . S
C593 C594 1.340 . S
C593 H625 0.951 . S
C594 C593 1.340 . S
C594 C595 1.439 . S
C594 H626 0.950 . S
C595 N591 1.374 . S
C595 C594 1.439 . S
C595 C620 1.395 1_556 S
N596 Co585 1.997 . S
N596 C597 1.376 . S
N596 C600 1.383 . S
C597 N596 1.376 . S
C597 C598 1.446 . S
C597 C620 1.391 . S
C598 C597 1.446 . S
C598 C599 1.339 . S
C598 H627 0.949 . S
C599 C598 1.339 . S
C599 C600 1.439 . S
C599 H628 0.950 . S
C600 N596 1.383 . S
C600 C599 1.439 . S
C600 C618 1.392 . S
N601 Co585 2.287 . S
N601 C604 1.332 . S
N601 C606 1.332 . S
C602 C603 1.386 . S
C602 C605 1.388 . S
C603 C602 1.386 . S
C603 C604 1.382 . S
C603 H629 0.950 . S
C604 N601 1.332 . S
C604 C603 1.382 . S
C604 H615 0.952 . S
C605 C602 1.388 . S
C605 C606 1.382 . S
C605 H630 0.950 . S
C606 N601 1.332 . S
C606 C605 1.382 . S
C606 H616 0.948 . S
N607 Co585 2.278 1_556 S
N607 C611 1.332 . S
N607 C612 1.332 . S
C608 C609 1.388 . S
C608 C612 1.382 . S
C608 H631 0.950 . S
C609 C608 1.388 . S
C609 C610 1.386 . S
C610 C609 1.386 . S
C610 C611 1.382 . S
C610 H632 0.950 . S
C611 N607 1.332 . S
C611 C610 1.382 . S
C611 H613 0.952 . S
C612 N607 1.332 . S
C612 C608 1.382 . S
C612 H614 0.948 . S
H613 C611 0.952 . S
H614 C612 0.948 . S
H615 C604 0.952 . S
H616 C606 0.948 . S
C617 C583 1.395 1_556 S
C617 C587 1.391 . S
C618 C580 1.389 . S
C618 C600 1.392 . S
C619 C590 1.392 . S
C619 C592 1.389 . S
C620 C595 1.395 1_554 S
C620 C597 1.391 . S
H621 C581 0.951 . S
H622 C582 0.950 . S
H623 C588 0.949 . S
H624 C589 0.950 . S
H625 C593 0.951 . S
H626 C594 0.950 . S
H627 C598 0.949 . S
H628 C599 0.950 . S
H629 C603 0.950 . S
H630 C605 0.950 . S
H631 C608 0.950 . S
H632 C610 0.950 . S
C633 C634 1.443 . S
C633 N637 1.376 . S
C633 C671 1.389 . S
C634 C633 1.443 . S
C634 C635 1.340 . S
C634 H674 0.951 . S
C635 C634 1.340 . S
C635 C636 1.439 . S
C635 H675 0.950 . S
C636 C635 1.439 . S
C636 N637 1.374 . S
C636 C670 1.395 . S
N637 C633 1.376 . S
N637 C636 1.374 . S
N637 Co638 2.008 . S
Co638 N637 2.008 . S
Co638 N639 1.995 1_554 S
Co638 N644 2.008 1_554 S
Co638 N649 1.995 . S
Co638 N654 2.282 . S
Co638 N660 2.282 1_554 S
N639 Co638 1.995 1_556 S
N639 C640 1.376 . S
N639 C643 1.383 . S
C640 N639 1.376 . S
C640 C641 1.446 . S
C640 C670 1.391 1_556 S
C641 C640 1.446 . S
C641 C642 1.339 . S
C641 H676 0.949 . S
C642 C641 1.339 . S
C642 C643 1.439 . S
C642 H677 0.950 . S
C643 N639 1.383 . S
C643 C642 1.439 . S
C643 C672 1.392 . S
N644 Co638 2.008 1_556 S
N644 C645 1.376 . S
N644 C648 1.374 1_556 S
C645 N644 1.376 . S
C645 C646 1.443 . S
C645 C672 1.389 . S
C646 C645 1.443 . S
C646 C647 1.340 . S
C646 H678 0.951 . S
C647 C646 1.340 . S
C647 C648 1.439 1_556 S
C647 H679 0.950 . S
C648 N644 1.374 1_554 S
C648 C647 1.439 1_554 S
C648 C673 1.395 . S
N649 Co638 1.995 . S
N649 C650 1.376 . S
N649 C653 1.383 . S
C650 N649 1.376 . S
C650 C651 1.446 . S
C650 C673 1.391 . S
C651 C650 1.446 . S
C651 C652 1.339 . S
C651 H680 0.949 . S
C652 C651 1.339 . S
C652 C653 1.439 . S
C652 H681 0.950 . S
C653 N649 1.383 . S
C653 C652 1.439 . S
C653 C671 1.392 . S
N654 Co638 2.282 . S
N654 C657 1.332 . S
N654 C659 1.332 . S
C655 C656 1.386 . S
C655 C658 1.388 . S
C656 C655 1.386 . S
C656 C657 1.382 . S
C656 H682 0.950 . S
C657 N654 1.332 . S
C657 C656 1.382 . S
C657 H668 0.952 . S
C658 C655 1.388 . S
C658 C659 1.382 . S
C658 H683 0.950 . S
C659 N654 1.332 . S
C659 C658 1.382 . S
C659 H669 0.948 . S
N660 Co638 2.282 1_556 S
N660 C664 1.332 . S
N660 C665 1.332 . S
C661 C662 1.388 . S
C661 C665 1.382 . S
C661 H684 0.950 . S
C662 C661 1.388 . S
C662 C663 1.386 . S
C663 C662 1.386 . S
C663 C664 1.382 . S
C663 H685 0.950 . S
C664 N660 1.332 . S
C664 C663 1.382 . S
C664 H666 0.952 . S
C665 N660 1.332 . S
C665 C661 1.382 . S
C665 H667 0.948 . S
H666 C664 0.952 . S
H667 C665 0.948 . S
H668 C657 0.952 . S
H669 C659 0.948 . S
C670 C636 1.395 . S
C670 C640 1.391 1_554 S
C671 C633 1.389 . S
C671 C653 1.392 . S
C672 C643 1.392 . S
C672 C645 1.389 . S
C673 C648 1.395 . S
C673 C650 1.391 . S
H674 C634 0.951 . S
H675 C635 0.950 . S
H676 C641 0.949 . S
H677 C642 0.950 . S
H678 C646 0.951 . S
H679 C647 0.950 . S
H680 C651 0.949 . S
H681 C652 0.950 . S
H682 C656 0.950 . S
H683 C658 0.950 . S
H684 C661 0.950 . S
H685 C663 0.950 . S
C686 C687 1.443 . S
C686 N690 1.376 1_556 S
C686 C724 1.389 . S
C687 C686 1.443 . S
C687 C688 1.340 . S
C687 H727 0.951 . S
C688 C687 1.340 . S
C688 C689 1.439 1_556 S
C688 H728 0.951 . S
C689 C688 1.439 1_554 S
C689 N690 1.374 . S
C689 C723 1.395 . S
N690 C686 1.376 1_554 S
N690 C689 1.374 . S
N690 Co691 2.008 . S
Co691 N690 2.008 . S
Co691 N692 1.995 . S
Co691 N697 2.008 . S
Co691 N702 1.995 1_554 S
Co691 N707 2.282 1_554 S
Co691 N713 2.282 . S
N692 Co691 1.995 . S
N692 C693 1.376 . S
N692 C696 1.383 . S
C693 N692 1.376 . S
C693 C694 1.446 . S
C693 C723 1.391 . S
C694 C693 1.446 . S
C694 C695 1.339 . S
C694 H729 0.949 . S
C695 C694 1.339 . S
C695 C696 1.439 . S
C695 H730 0.950 . S
C696 N692 1.383 . S
C696 C695 1.439 . S
C696 C725 1.392 . S
N697 Co691 2.008 . S
N697 C698 1.376 . S
N697 C701 1.374 . S
C698 N697 1.376 . S
C698 C699 1.443 . S
C698 C725 1.389 . S
C699 C698 1.443 . S
C699 C700 1.340 . S
C699 H731 0.951 . S
C700 C699 1.340 . S
C700 C701 1.439 . S
C700 H732 0.950 . S
C701 N697 1.374 . S
C701 C700 1.439 . S
C701 C726 1.395 . S
N702 Co691 1.995 1_556 S
N702 C703 1.376 . S
N702 C706 1.383 . S
C703 N702 1.376 . S
C703 C704 1.446 . S
C703 C726 1.391 1_556 S
C704 C703 1.446 . S
C704 C705 1.339 . S
C704 H733 0.949 . S
C705 C704 1.339 . S
C705 C706 1.439 . S
C705 H734 0.950 . S
C706 N702 1.383 . S
C706 C705 1.439 . S
C706 C724 1.392 . S
N707 Co691 2.282 1_556 S
N707 C710 1.332 . S
N707 C712 1.332 . S
C708 C709 1.386 . S
C708 C711 1.388 . S
C709 C708 1.386 . S
C709 C710 1.382 . S
C709 H735 0.950 . S
C710 N707 1.332 . S
C710 C709 1.382 . S
C710 H721 0.952 . S
C711 C708 1.388 . S
C711 C712 1.382 . S
C711 H736 0.950 . S
C712 N707 1.332 . S
C712 C711 1.382 . S
C712 H722 0.969 . S
N713 Co691 2.282 . S
N713 C717 1.332 . S
N713 C718 1.332 . S
C714 C715 1.388 . S
C714 C718 1.382 . S
C714 H737 0.950 . S
C715 C714 1.388 . S
C715 C716 1.386 . S
C716 C715 1.386 . S
C716 C717 1.382 . S
C716 H738 0.950 . S
C717 N713 1.332 . S
C717 C716 1.382 . S
C717 H719 0.952 . S
C718 N713 1.332 . S
C718 C714 1.382 . S
C718 H720 0.948 . S
H719 C717 0.952 . S
H720 C718 0.948 . S
H721 C710 0.952 . S
H722 C712 0.969 . S
C723 C689 1.395 . S
C723 C693 1.391 . S
C724 C686 1.389 . S
C724 C706 1.392 . S
C725 C696 1.392 . S
C725 C698 1.389 . S
C726 C701 1.395 . S
C726 C703 1.391 1_554 S
H727 C687 0.951 . S
H728 C688 0.951 . S
H729 C694 0.949 . S
H730 C695 0.950 . S
H731 C699 0.951 . S
H732 C700 0.950 . S
H733 C704 0.949 . S
H734 C705 0.950 . S
H735 C709 0.950 . S
H736 C711 0.950 . S
H737 C714 0.950 . S
H738 C716 0.950 . S
C739 C740 1.443 . S
C739 N743 1.376 . S
C739 C777 1.389 . S
C740 C739 1.443 . S
C740 C741 1.340 . S
C740 H780 0.951 . S
C741 C740 1.340 . S
C741 C742 1.439 . S
C741 H781 0.950 . S
C742 C741 1.439 . S
C742 N743 1.374 . S
C742 C776 1.379 1_554 S
N743 C739 1.376 . S
N743 C742 1.374 . S
N743 Co744 2.008 . S
Co744 N743 2.008 . S
Co744 N745 1.995 1_554 S
Co744 N750 2.008 1_554 S
Co744 N755 1.995 . S
Co744 N760 2.282 . S
Co744 N766 2.282 1_554 S
N745 Co744 1.995 1_556 S
N745 C746 1.376 . S
N745 C749 1.383 . S
C746 N745 1.376 . S
C746 C747 1.446 . S
C746 C776 1.406 . S
C747 C746 1.446 . S
C747 C748 1.339 . S
C747 H782 0.949 . S
C748 C747 1.339 . S
C748 C749 1.439 . S
C748 H783 0.950 . S
C749 N745 1.383 . S
C749 C748 1.439 . S
C749 C778 1.392 . S
N750 Co744 2.008 1_556 S
N750 C751 1.376 . S
N750 C754 1.374 1_556 S
C751 N750 1.376 . S
C751 C752 1.443 . S
C751 C778 1.389 . S
C752 C751 1.443 . S
C752 C753 1.340 . S
C752 H784 0.951 . S
C753 C752 1.340 . S
C753 C754 1.439 1_556 S
C753 H785 0.950 . S
C754 N750 1.374 1_554 S
C754 C753 1.439 1_554 S
C754 C779 1.395 . S
N755 Co744 1.995 . S
N755 C756 1.376 . S
N755 C759 1.383 . S
C756 N755 1.376 . S
C756 C757 1.446 . S
C756 C779 1.391 . S
C757 C756 1.446 . S
C757 C758 1.339 . S
C757 H786 0.949 . S
C758 C757 1.339 . S
C758 C759 1.439 . S
C758 H787 0.950 . S
C759 N755 1.383 . S
C759 C758 1.439 . S
C759 C777 1.392 . S
N760 Co744 2.282 . S
N760 C763 1.332 . S
N760 C765 1.332 . S
C761 C762 1.386 . S
C761 C764 1.388 . S
C762 C761 1.386 . S
C762 C763 1.382 . S
C762 H788 0.950 . S
C763 N760 1.332 . S
C763 C762 1.382 . S
C763 H774 0.952 . S
C764 C761 1.388 . S
C764 C765 1.382 . S
C764 H789 0.950 . S
C765 N760 1.332 . S
C765 C764 1.382 . S
C765 H775 0.948 . S
N766 Co744 2.282 1_556 S
N766 C770 1.332 . S
N766 C771 1.332 . S
C767 C768 1.388 . S
C767 C771 1.382 . S
C767 H790 0.950 . S
C768 C767 1.388 . S
C768 C769 1.386 . S
C769 C768 1.386 . S
C769 C770 1.382 . S
C769 H791 0.950 . S
C770 N766 1.332 . S
C770 C769 1.382 . S
C770 H772 0.952 . S
C771 N766 1.332 . S
C771 C767 1.382 . S
C771 H773 0.948 . S
H772 C770 0.952 . S
H773 C771 0.948 . S
H774 C763 0.952 . S
H775 C765 0.948 . S
C776 C742 1.379 1_556 S
C776 C746 1.406 . S
C777 C739 1.389 . S
C777 C759 1.392 . S
C778 C749 1.392 . S
C778 C751 1.389 . S
C779 C754 1.395 . S
C779 C756 1.391 . S
H780 C740 0.951 . S
H781 C741 0.950 . S
H782 C747 0.949 . S
H783 C748 0.950 . S
H784 C752 0.951 . S
H785 C753 0.950 . S
H786 C757 0.949 . S
H787 C758 0.950 . S
H788 C762 0.950 . S
H789 C764 0.950 . S
H790 C767 0.950 . S
H791 C769 0.950 . S
C792 C793 1.349 . S
C792 C794 1.327 . S
C792 H817 0.950 . S
C793 C792 1.349 . S
C793 C809 1.349 . S
C794 C792 1.327 . S
C794 C813 1.429 . S
C794 H818 0.950 . S
C795 C812 1.574 . S
C795 C814 1.368 . S
C795 H819 0.949 . S
H796 C800 0.949 . S
C797 C798 1.349 . S
C797 C799 1.327 . S
C797 H820 0.950 . S
C798 C797 1.349 . S
C798 C810 1.349 . S
C799 C797 1.327 . S
C799 C815 1.429 . S
C799 H821 0.950 . S
C800 H796 0.949 . S
C800 C808 1.574 . S
C800 C816 1.368 . S
H801 C809 0.950 . S
H802 C807 0.950 . S
H803 C808 0.949 . S
H804 C810 0.950 . S
H805 C811 0.950 . S
H806 C812 0.949 . S
C807 H802 0.950 . S
C807 C809 1.327 . S
C807 C813 1.429 . S
C808 C800 1.574 . S
C808 H803 0.949 . S
C808 C814 1.368 . S
C809 C793 1.349 . S
C809 H801 0.950 . S
C809 C807 1.327 . S
C810 C798 1.349 . S
C810 H804 0.950 . S
C810 C811 1.327 . S
C811 H805 0.950 . S
C811 C810 1.327 . S
C811 C815 1.429 . S
C812 C795 1.574 . S
C812 H806 0.949 . S
C812 C816 1.368 . S
C813 C794 1.429 . S
C813 C807 1.429 . S
C813 C814 1.523 . S
C814 C795 1.368 . S
C814 C808 1.368 . S
C814 C813 1.523 . S
C815 C799 1.429 . S
C815 C811 1.429 . S
C815 C816 1.523 . S
C816 C800 1.368 . S
C816 C812 1.368 . S
C816 C815 1.523 . S
H817 C792 0.950 . S
H818 C794 0.950 . S
H819 C795 0.949 . S
H820 C797 0.950 . S
H821 C799 0.950 . S
C822 C823 1.349 . S
C822 C824 1.327 . S
C822 H847 0.950 . S
C823 C822 1.349 . S
C823 C839 1.349 . S
C824 C822 1.327 . S
C824 C843 1.429 . S
C824 H848 0.950 . S
C825 C842 1.574 . S
C825 C844 1.368 . S
C825 H849 0.949 . S
H826 C830 0.949 . S
C827 C828 1.349 . S
C827 C829 1.327 . S
C827 H850 0.950 . S
C828 C827 1.349 . S
C828 C840 1.349 . S
C829 C827 1.327 . S
C829 C845 1.429 . S
C829 H851 0.950 . S
C830 H826 0.949 . S
C830 C838 1.574 . S
C830 C846 1.368 . S
H831 C839 0.950 . S
H832 C837 0.950 . S
H833 C838 0.949 . S
H834 C840 0.950 . S
H835 C841 0.950 . S
H836 C842 0.949 . S
C837 H832 0.950 . S
C837 C839 1.327 . S
C837 C843 1.429 . S
C838 C830 1.574 . S
C838 H833 0.949 . S
C838 C844 1.368 . S
C839 C823 1.349 . S
C839 H831 0.950 . S
C839 C837 1.327 . S
C840 C828 1.349 . S
C840 H834 0.950 . S
C840 C841 1.327 . S
C841 H835 0.950 . S
C841 C840 1.327 . S
C841 C845 1.429 . S
C842 C825 1.574 . S
C842 H836 0.949 . S
C842 C846 1.368 . S
C843 C824 1.429 . S
C843 C837 1.429 . S
C843 C844 1.523 . S
C844 C825 1.368 . S
C844 C838 1.368 . S
C844 C843 1.523 . S
C845 C829 1.429 . S
C845 C841 1.429 . S
C845 C846 1.523 . S
C846 C830 1.368 . S
C846 C842 1.368 . S
C846 C845 1.523 . S
H847 C822 0.950 . S
H848 C824 0.950 . S
H849 C825 0.949 . S
H850 C827 0.950 . S
H851 C829 0.950 . S
C852 C853 1.349 . S
C852 C854 1.327 . S
C852 H877 0.950 . S
C853 C852 1.349 . S
C853 C869 1.349 . S
C854 C852 1.327 . S
C854 C873 1.429 . S
C854 H878 0.950 . S
C855 C872 1.574 . S
C855 C874 1.368 . S
C855 H879 0.949 . S
H856 C860 0.949 . S
C857 C858 1.349 . S
C857 C859 1.327 . S
C857 H880 0.950 . S
C858 C857 1.349 . S
C858 C870 1.349 . S
C859 C857 1.327 . S
C859 C875 1.429 . S
C859 H881 0.950 . S
C860 H856 0.949 . S
C860 C868 1.574 . S
C860 C876 1.368 . S
H861 C869 0.950 . S
H862 C867 0.950 . S
H863 C868 0.949 . S
H864 C870 0.950 . S
H865 C871 0.950 . S
H866 C872 0.949 . S
C867 H862 0.950 . S
C867 C869 1.327 . S
C867 C873 1.429 . S
C868 C860 1.574 . S
C868 H863 0.949 . S
C868 C874 1.368 . S
C869 C853 1.349 . S
C869 H861 0.950 . S
C869 C867 1.327 . S
C870 C858 1.349 . S
C870 H864 0.950 . S
C870 C871 1.327 . S
C871 H865 0.950 . S
C871 C870 1.327 . S
C871 C875 1.429 . S
C872 C855 1.574 . S
C872 H866 0.949 . S
C872 C876 1.368 . S
C873 C854 1.429 . S
C873 C867 1.429 . S
C873 C874 1.523 . S
C874 C855 1.368 . S
C874 C868 1.368 . S
C874 C873 1.523 . S
C875 C859 1.429 . S
C875 C871 1.429 . S
C875 C876 1.523 . S
C876 C860 1.368 . S
C876 C872 1.368 . S
C876 C875 1.523 . S
H877 C852 0.950 . S
H878 C854 0.950 . S
H879 C855 0.949 . S
H880 C857 0.950 . S
H881 C859 0.950 . S
C882 C883 1.349 . S
C882 C884 1.327 . S
C882 H907 0.950 . S
C883 C882 1.349 . S
C883 C899 1.349 . S
C884 C882 1.327 . S
C884 C903 1.429 . S
C884 H908 0.950 . S
C885 C902 1.574 . S
C885 C904 1.368 . S
C885 H909 0.949 . S
H886 C890 0.949 . S
C887 C888 1.349 . S
C887 C889 1.327 . S
C887 H910 0.950 . S
C888 C887 1.349 . S
C888 C900 1.349 . S
C889 C887 1.327 . S
C889 C905 1.429 . S
C889 H911 0.950 . S
C890 H886 0.949 . S
C890 C898 1.574 . S
C890 C906 1.368 . S
H891 C899 0.950 . S
H892 C897 0.950 . S
H893 C898 0.949 . S
H894 C900 0.950 . S
H895 C901 0.950 . S
H896 C902 0.949 . S
C897 H892 0.950 . S
C897 C899 1.327 . S
C897 C903 1.429 . S
C898 C890 1.574 . S
C898 H893 0.949 . S
C898 C904 1.368 . S
C899 C883 1.349 . S
C899 H891 0.950 . S
C899 C897 1.327 . S
C900 C888 1.349 . S
C900 H894 0.950 . S
C900 C901 1.327 . S
C901 H895 0.950 . S
C901 C900 1.327 . S
C901 C905 1.429 . S
C902 C885 1.574 . S
C902 H896 0.949 . S
C902 C906 1.368 . S
C903 C884 1.429 . S
C903 C897 1.429 . S
C903 C904 1.523 . S
C904 C885 1.368 . S
C904 C898 1.368 . S
C904 C903 1.523 . S
C905 C889 1.429 . S
C905 C901 1.429 . S
C905 C906 1.523 . S
C906 C890 1.368 . S
C906 C902 1.368 . S
C906 C905 1.523 . S
H907 C882 0.950 . S
H908 C884 0.950 . S
H909 C885 0.949 . S
H910 C887 0.950 . S
H911 C889 0.950 . S
C912 C913 1.349 . S
C912 C914 1.327 . S
C912 H937 0.950 . S
C913 C912 1.349 . S
C913 C929 1.349 . S
C914 C912 1.327 . S
C914 C933 1.429 . S
C914 H938 0.950 . S
C915 C932 1.574 . S
C915 C934 1.368 . S
C915 H939 0.949 . S
H916 C920 0.949 . S
C917 C918 1.349 . S
C917 C919 1.327 . S
C917 H940 0.950 . S
C918 C917 1.349 . S
C918 C930 1.349 . S
C919 C917 1.327 . S
C919 C935 1.429 . S
C919 H941 0.950 . S
C920 H916 0.949 . S
C920 C928 1.574 . S
C920 C936 1.368 . S
H921 C929 0.950 . S
H922 C927 0.950 . S
H923 C928 0.949 . S
H924 C930 0.950 . S
H925 C931 0.950 . S
H926 C932 0.949 . S
C927 H922 0.950 . S
C927 C929 1.327 . S
C927 C933 1.429 . S
C928 C920 1.574 . S
C928 H923 0.949 . S
C928 C934 1.368 . S
C929 C913 1.349 . S
C929 H921 0.950 . S
C929 C927 1.327 . S
C930 C918 1.349 . S
C930 H924 0.950 . S
C930 C931 1.327 . S
C931 H925 0.950 . S
C931 C930 1.327 . S
C931 C935 1.429 . S
C932 C915 1.574 . S
C932 H926 0.949 . S
C932 C936 1.368 . S
C933 C914 1.429 . S
C933 C927 1.429 . S
C933 C934 1.523 . S
C934 C915 1.368 . S
C934 C928 1.368 . S
C934 C933 1.523 . S
C935 C919 1.429 . S
C935 C931 1.429 . S
C935 C936 1.523 . S
C936 C920 1.368 . S
C936 C932 1.368 . S
C936 C935 1.523 . S
H937 C912 0.950 . S
H938 C914 0.950 . S
H939 C915 0.949 . S
H940 C917 0.950 . S
H941 C919 0.950 . S
C942 C943 1.349 . S
C942 C944 1.327 . S
C942 H967 0.950 . S
C943 C942 1.349 . S
C943 C959 1.349 . S
C944 C942 1.327 . S
C944 C963 1.429 . S
C944 H968 0.950 . S
C945 C962 1.574 . S
C945 C964 1.368 . S
C945 H969 0.949 . S
H946 C950 0.949 . S
C947 C948 1.349 . S
C947 C949 1.327 . S
C947 H970 0.950 . S
C948 C947 1.349 . S
C948 C960 1.349 . S
C949 C947 1.327 . S
C949 C965 1.429 . S
C949 H971 0.950 . S
C950 H946 0.949 . S
C950 C958 1.574 . S
C950 C966 1.368 . S
H951 C959 0.950 . S
H952 C957 0.950 . S
H953 C958 0.949 . S
H954 C960 0.950 . S
H955 C961 0.950 . S
H956 C962 0.949 . S
C957 H952 0.950 . S
C957 C959 1.327 . S
C957 C963 1.429 . S
C958 C950 1.574 . S
C958 H953 0.949 . S
C958 C964 1.368 . S
C959 C943 1.349 . S
C959 H951 0.950 . S
C959 C957 1.327 . S
C960 C948 1.349 . S
C960 H954 0.950 . S
C960 C961 1.327 . S
C961 H955 0.950 . S
C961 C960 1.327 . S
C961 C965 1.429 . S
C962 C945 1.574 . S
C962 H956 0.949 . S
C962 C966 1.368 . S
C963 C944 1.429 . S
C963 C957 1.429 . S
C963 C964 1.523 . S
C964 C945 1.368 . S
C964 C958 1.368 . S
C964 C963 1.523 . S
C965 C949 1.429 . S
C965 C961 1.429 . S
C965 C966 1.523 . S
C966 C950 1.368 . S
C966 C962 1.368 . S
C966 C965 1.523 . S
H967 C942 0.950 . S
H968 C944 0.950 . S
H969 C945 0.949 . S
H970 C947 0.950 . S
H971 C949 0.950 . S
C972 C973 1.349 . S
C972 C974 1.327 . S
C972 H997 0.950 . S
C973 C972 1.349 . S
C973 C989 1.349 . S
C974 C972 1.327 . S
C974 C993 1.429 . S
C974 H998 0.950 . S
C975 C992 1.574 . S
C975 C994 1.368 . S
C975 H999 0.949 . S
H976 C980 0.949 . S
C977 C978 1.349 . S
C977 C979 1.327 . S
C977 H1000 0.950 . S
C978 C977 1.349 . S
C978 C990 1.349 . S
C979 C977 1.327 . S
C979 C995 1.429 . S
C979 H1001 0.950 . S
C980 H976 0.949 . S
C980 C988 1.574 . S
C980 C996 1.368 . S
H981 C989 0.950 . S
H982 C987 0.950 . S
H983 C988 0.949 . S
H984 C990 0.950 . S
H985 C991 0.950 . S
H986 C992 0.949 . S
C987 H982 0.950 . S
C987 C989 1.327 . S
C987 C993 1.429 . S
C988 C980 1.574 . S
C988 H983 0.949 . S
C988 C994 1.368 . S
C989 C973 1.349 . S
C989 H981 0.950 . S
C989 C987 1.327 . S
C990 C978 1.349 . S
C990 H984 0.950 . S
C990 C991 1.327 . S
C991 H985 0.950 . S
C991 C990 1.327 . S
C991 C995 1.429 . S
C992 C975 1.574 . S
C992 H986 0.949 . S
C992 C996 1.368 . S
C993 C974 1.429 . S
C993 C987 1.429 . S
C993 C994 1.523 . S
C994 C975 1.368 . S
C994 C988 1.368 . S
C994 C993 1.523 . S
C995 C979 1.429 . S
C995 C991 1.429 . S
C995 C996 1.523 . S
C996 C980 1.368 . S
C996 C992 1.368 . S
C996 C995 1.523 . S
H997 C972 0.950 . S
H998 C974 0.950 . S
H999 C975 0.949 . S
H1000 C977 0.950 . S
H1001 C979 0.950 . S
C1002 C1003 1.349 . S
C1002 C1004 1.327 . S
C1002 H1027 0.950 . S
C1003 C1002 1.349 . S
C1003 C1019 1.349 . S
C1004 C1002 1.327 . S
C1004 C1023 1.429 . S
C1004 H1028 0.950 . S
C1005 C1022 1.574 . S
C1005 C1024 1.368 . S
C1005 H1029 0.949 . S
H1006 C1010 0.949 . S
C1007 C1008 1.349 . S
C1007 C1009 1.327 . S
C1007 H1030 0.950 . S
C1008 C1007 1.349 . S
C1008 C1020 1.349 . S
C1009 C1007 1.327 . S
C1009 C1025 1.429 . S
C1009 H1031 0.950 . S
C1010 H1006 0.949 . S
C1010 C1018 1.574 . S
C1010 C1026 1.368 . S
H1011 C1019 0.950 . S
H1012 C1017 0.950 . S
H1013 C1018 0.949 . S
H1014 C1020 0.950 . S
H1015 C1021 0.950 . S
H1016 C1022 0.949 . S
C1017 H1012 0.950 . S
C1017 C1019 1.327 . S
C1017 C1023 1.429 . S
C1018 C1010 1.574 . S
C1018 H1013 0.949 . S
C1018 C1024 1.368 . S
C1019 C1003 1.349 . S
C1019 H1011 0.950 . S
C1019 C1017 1.327 . S
C1020 C1008 1.349 . S
C1020 H1014 0.950 . S
C1020 C1021 1.327 . S
C1021 H1015 0.950 . S
C1021 C1020 1.327 . S
C1021 C1025 1.429 . S
C1022 C1005 1.574 . S
C1022 H1016 0.949 . S
C1022 C1026 1.368 . S
C1023 C1004 1.429 . S
C1023 C1017 1.429 . S
C1023 C1024 1.523 . S
C1024 C1005 1.368 . S
C1024 C1018 1.368 . S
C1024 C1023 1.523 . S
C1025 C1009 1.429 . S
C1025 C1021 1.429 . S
C1025 C1026 1.523 . S
C1026 C1010 1.368 . S
C1026 C1022 1.368 . S
C1026 C1025 1.523 . S
H1027 C1002 0.950 . S
H1028 C1004 0.950 . S
H1029 C1005 0.949 . S
H1030 C1007 0.950 . S
H1031 C1009 0.950 . S
C1032 C1033 1.349 . S
C1032 C1034 1.327 . S
C1032 H1057 0.950 . S
C1033 C1032 1.349 . S
C1033 C1049 1.349 . S
C1034 C1032 1.327 . S
C1034 C1053 1.429 . S
C1034 H1058 0.950 . S
C1035 C1052 1.574 . S
C1035 C1054 1.368 . S
C1035 H1059 0.949 . S
H1036 C1040 0.949 . S
C1037 C1038 1.349 . S
C1037 C1039 1.327 . S
C1037 H1060 0.950 . S
C1038 C1037 1.349 . S
C1038 C1050 1.349 . S
C1039 C1037 1.327 . S
C1039 C1055 1.429 . S
C1039 H1061 0.950 . S
C1040 H1036 0.949 . S
C1040 C1048 1.574 . S
C1040 C1056 1.368 . S
H1041 C1049 0.950 . S
H1042 C1047 0.950 . S
H1043 C1048 0.949 . S
H1044 C1050 0.950 . S
H1045 C1051 0.950 . S
H1046 C1052 0.949 . S
C1047 H1042 0.950 . S
C1047 C1049 1.327 . S
C1047 C1053 1.429 . S
C1048 C1040 1.574 . S
C1048 H1043 0.949 . S
C1048 C1054 1.368 . S
C1049 C1033 1.349 . S
C1049 H1041 0.950 . S
C1049 C1047 1.327 . S
C1050 C1038 1.349 . S
C1050 H1044 0.950 . S
C1050 C1051 1.327 . S
C1051 H1045 0.950 . S
C1051 C1050 1.327 . S
C1051 C1055 1.429 . S
C1052 C1035 1.574 . S
C1052 H1046 0.949 . S
C1052 C1056 1.368 . S
C1053 C1034 1.429 . S
C1053 C1047 1.429 . S
C1053 C1054 1.523 . S
C1054 C1035 1.368 . S
C1054 C1048 1.368 . S
C1054 C1053 1.523 . S
C1055 C1039 1.429 . S
C1055 C1051 1.429 . S
C1055 C1056 1.523 . S
C1056 C1040 1.368 . S
C1056 C1052 1.368 . S
C1056 C1055 1.523 . S
H1057 C1032 0.950 . S
H1058 C1034 0.950 . S
H1059 C1035 0.949 . S
H1060 C1037 0.950 . S
H1061 C1039 0.950 . S
C1062 C1063 1.349 . S
C1062 C1064 1.327 . S
C1062 H1087 0.950 . S
C1063 C1062 1.349 . S
C1063 C1079 1.349 . S
C1064 C1062 1.327 . S
C1064 C1083 1.429 . S
C1064 H1088 0.950 . S
C1065 C1082 1.574 . S
C1065 C1084 1.368 . S
C1065 H1089 0.949 . S
H1066 C1070 0.949 . S
C1067 C1068 1.349 . S
C1067 C1069 1.327 . S
C1067 H1090 0.950 . S
C1068 C1067 1.349 . S
C1068 C1080 1.349 . S
C1069 C1067 1.327 . S
C1069 C1085 1.429 . S
C1069 H1091 0.950 . S
C1070 H1066 0.949 . S
C1070 C1078 1.574 . S
C1070 C1086 1.368 . S
H1071 C1079 0.950 . S
H1072 C1077 0.950 . S
H1073 C1078 0.949 . S
H1074 C1080 0.950 . S
H1075 C1081 0.950 . S
H1076 C1082 0.949 . S
C1077 H1072 0.950 . S
C1077 C1079 1.327 . S
C1077 C1083 1.429 . S
C1078 C1070 1.574 . S
C1078 H1073 0.949 . S
C1078 C1084 1.368 . S
C1079 C1063 1.349 . S
C1079 H1071 0.950 . S
C1079 C1077 1.327 . S
C1080 C1068 1.349 . S
C1080 H1074 0.950 . S
C1080 C1081 1.327 . S
C1081 H1075 0.950 . S
C1081 C1080 1.327 . S
C1081 C1085 1.429 . S
C1082 C1065 1.574 . S
C1082 H1076 0.949 . S
C1082 C1086 1.368 . S
C1083 C1064 1.429 . S
C1083 C1077 1.429 . S
C1083 C1084 1.523 . S
C1084 C1065 1.368 . S
C1084 C1078 1.368 . S
C1084 C1083 1.523 . S
C1085 C1069 1.429 . S
C1085 C1081 1.429 . S
C1085 C1086 1.523 . S
C1086 C1070 1.368 . S
C1086 C1082 1.368 . S
C1086 C1085 1.523 . S
H1087 C1062 0.950 . S
H1088 C1064 0.950 . S
H1089 C1065 0.949 . S
H1090 C1067 0.950 . S
H1091 C1069 0.950 . S
C1092 C1093 1.349 . S
C1092 C1094 1.327 . S
C1092 H1117 0.950 . S
C1093 C1092 1.349 . S
C1093 C1109 1.349 . S
C1094 C1092 1.327 . S
C1094 C1113 1.429 . S
C1094 H1118 0.950 . S
C1095 C1112 1.574 . S
C1095 C1114 1.368 . S
C1095 H1119 0.949 . S
H1096 C1100 0.949 . S
C1097 C1098 1.349 . S
C1097 C1099 1.327 . S
C1097 H1120 0.950 . S
C1098 C1097 1.349 . S
C1098 C1110 1.349 . S
C1099 C1097 1.327 . S
C1099 C1115 1.429 . S
C1099 H1121 0.950 . S
C1100 H1096 0.949 . S
C1100 C1108 1.574 . S
C1100 C1116 1.368 . S
H1101 C1109 0.950 . S
H1102 C1107 0.950 . S
H1103 C1108 0.949 . S
H1104 C1110 0.950 . S
H1105 C1111 0.950 . S
H1106 C1112 0.949 . S
C1107 H1102 0.950 . S
C1107 C1109 1.327 . S
C1107 C1113 1.429 . S
C1108 C1100 1.574 . S
C1108 H1103 0.949 . S
C1108 C1114 1.368 . S
C1109 C1093 1.349 . S
C1109 H1101 0.950 . S
C1109 C1107 1.327 . S
C1110 C1098 1.349 . S
C1110 H1104 0.950 . S
C1110 C1111 1.327 . S
C1111 H1105 0.950 . S
C1111 C1110 1.327 . S
C1111 C1115 1.429 . S
C1112 C1095 1.574 . S
C1112 H1106 0.949 . S
C1112 C1116 1.368 . S
C1113 C1094 1.429 . S
C1113 C1107 1.429 . S
C1113 C1114 1.523 . S
C1114 C1095 1.368 . S
C1114 C1108 1.368 . S
C1114 C1113 1.523 . S
C1115 C1099 1.429 . S
C1115 C1111 1.429 . S
C1115 C1116 1.523 . S
C1116 C1100 1.368 . S
C1116 C1112 1.368 . S
C1116 C1115 1.523 . S
H1117 C1092 0.950 . S
H1118 C1094 0.950 . S
H1119 C1095 0.949 . S
H1120 C1097 0.950 . S
H1121 C1099 0.950 . S
C1122 C1123 1.349 . S
C1122 C1124 1.327 . S
C1122 H1147 0.950 . S
C1123 C1122 1.349 . S
C1123 C1139 1.349 . S
C1124 C1122 1.327 . S
C1124 C1143 1.429 . S
C1124 H1148 0.950 . S
C1125 C1142 1.574 . S
C1125 C1144 1.368 . S
C1125 H1149 0.949 . S
H1126 C1130 0.949 . S
C1127 C1128 1.349 . S
C1127 C1129 1.327 . S
C1127 H1150 0.950 . S
C1128 C1127 1.349 . S
C1128 C1140 1.349 . S
C1129 C1127 1.327 . S
C1129 C1145 1.429 . S
C1129 H1151 0.950 . S
C1130 H1126 0.949 . S
C1130 C1138 1.574 . S
C1130 C1146 1.368 . S
H1131 C1139 0.950 . S
H1132 C1137 0.950 . S
H1133 C1138 0.949 . S
H1134 C1140 0.950 . S
H1135 C1141 0.950 . S
H1136 C1142 0.949 . S
C1137 H1132 0.950 . S
C1137 C1139 1.327 . S
C1137 C1143 1.429 . S
C1138 C1130 1.574 . S
C1138 H1133 0.949 . S
C1138 C1144 1.368 . S
C1139 C1123 1.349 . S
C1139 H1131 0.950 . S
C1139 C1137 1.327 . S
C1140 C1128 1.349 . S
C1140 H1134 0.950 . S
C1140 C1141 1.327 . S
C1141 H1135 0.950 . S
C1141 C1140 1.327 . S
C1141 C1145 1.429 . S
C1142 C1125 1.574 . S
C1142 H1136 0.949 . S
C1142 C1146 1.368 . S
C1143 C1124 1.429 . S
C1143 C1137 1.429 . S
C1143 C1144 1.523 . S
C1144 C1125 1.368 . S
C1144 C1138 1.368 . S
C1144 C1143 1.523 . S
C1145 C1129 1.429 . S
C1145 C1141 1.429 . S
C1145 C1146 1.523 . S
C1146 C1130 1.368 . S
C1146 C1142 1.368 . S
C1146 C1145 1.523 . S
H1147 C1122 0.950 . S
H1148 C1124 0.950 . S
H1149 C1125 0.949 . S
H1150 C1127 0.950 . S
H1151 C1129 0.950 . S
C1152 C1153 1.349 . S
C1152 C1154 1.327 . S
C1152 H1177 0.950 . S
C1153 C1152 1.349 . S
C1153 C1169 1.349 . S
C1154 C1152 1.327 . S
C1154 C1173 1.429 . S
C1154 H1178 0.950 . S
C1155 C1172 1.574 . S
C1155 C1174 1.368 . S
C1155 H1179 0.949 . S
H1156 C1160 0.949 . S
C1157 C1158 1.349 . S
C1157 C1159 1.327 . S
C1157 H1180 0.950 . S
C1158 C1157 1.349 . S
C1158 C1170 1.349 . S
C1159 C1157 1.327 . S
C1159 C1175 1.429 . S
C1159 H1181 0.950 . S
C1160 H1156 0.949 . S
C1160 C1168 1.574 . S
C1160 C1176 1.368 . S
H1161 C1169 0.950 . S
H1162 C1167 0.950 . S
H1163 C1168 0.949 . S
H1164 C1170 0.950 . S
H1165 C1171 0.950 . S
H1166 C1172 0.949 . S
C1167 H1162 0.950 . S
C1167 C1169 1.327 . S
C1167 C1173 1.429 . S
C1168 C1160 1.574 . S
C1168 H1163 0.949 . S
C1168 C1174 1.368 . S
C1169 C1153 1.349 . S
C1169 H1161 0.950 . S
C1169 C1167 1.327 . S
C1170 C1158 1.349 . S
C1170 H1164 0.950 . S
C1170 C1171 1.327 . S
C1171 H1165 0.950 . S
C1171 C1170 1.327 . S
C1171 C1175 1.429 . S
C1172 C1155 1.574 . S
C1172 H1166 0.949 . S
C1172 C1176 1.368 . S
C1173 C1154 1.429 . S
C1173 C1167 1.429 . S
C1173 C1174 1.523 . S
C1174 C1155 1.368 . S
C1174 C1168 1.368 . S
C1174 C1173 1.523 . S
C1175 C1159 1.429 . S
C1175 C1171 1.429 . S
C1175 C1176 1.523 . S
C1176 C1160 1.368 . S
C1176 C1172 1.368 . S
C1176 C1175 1.523 . S
H1177 C1152 0.950 . S
H1178 C1154 0.950 . S
H1179 C1155 0.949 . S
H1180 C1157 0.950 . S
H1181 C1159 0.950 . S
C1182 C1183 1.349 . S
C1182 C1184 1.327 . S
C1182 H1207 0.950 . S
C1183 C1182 1.349 . S
C1183 C1199 1.349 . S
C1184 C1182 1.327 . S
C1184 C1203 1.429 . S
C1184 H1208 0.950 . S
C1185 C1202 1.574 . S
C1185 C1204 1.368 . S
C1185 H1209 0.949 . S
H1186 C1190 0.949 . S
C1187 C1188 1.349 . S
C1187 C1189 1.327 . S
C1187 H1210 0.950 . S
C1188 C1187 1.349 . S
C1188 C1200 1.349 . S
C1189 C1187 1.327 . S
C1189 C1205 1.429 . S
C1189 H1211 0.950 . S
C1190 H1186 0.949 . S
C1190 C1198 1.574 . S
C1190 C1206 1.368 . S
H1191 C1199 0.950 . S
H1192 C1197 0.950 . S
H1193 C1198 0.949 . S
H1194 C1200 0.950 . S
H1195 C1201 0.950 . S
H1196 C1202 0.949 . S
C1197 H1192 0.950 . S
C1197 C1199 1.327 . S
C1197 C1203 1.429 . S
C1198 C1190 1.574 . S
C1198 H1193 0.949 . S
C1198 C1204 1.368 . S
C1199 C1183 1.349 . S
C1199 H1191 0.950 . S
C1199 C1197 1.327 . S
C1200 C1188 1.349 . S
C1200 H1194 0.950 . S
C1200 C1201 1.327 . S
C1201 H1195 0.950 . S
C1201 C1200 1.327 . S
C1201 C1205 1.429 . S
C1202 C1185 1.574 . S
C1202 H1196 0.949 . S
C1202 C1206 1.368 . S
C1203 C1184 1.429 . S
C1203 C1197 1.429 . S
C1203 C1204 1.523 . S
C1204 C1185 1.368 . S
C1204 C1198 1.368 . S
C1204 C1203 1.523 . S
C1205 C1189 1.429 . S
C1205 C1201 1.429 . S
C1205 C1206 1.523 . S
C1206 C1190 1.368 . S
C1206 C1202 1.368 . S
C1206 C1205 1.523 . S
H1207 C1182 0.950 . S
H1208 C1184 0.950 . S
H1209 C1185 0.949 . S
H1210 C1187 0.950 . S
H1211 C1189 0.950 . S
C1212 C1213 1.349 . S
C1212 C1214 1.327 . S
C1212 H1237 0.950 . S
C1213 C1212 1.349 . S
C1213 C1229 1.349 . S
C1214 C1212 1.327 . S
C1214 C1233 1.429 . S
C1214 H1238 0.950 . S
C1215 C1232 1.574 . S
C1215 C1234 1.368 . S
C1215 H1239 0.949 . S
H1216 C1220 0.949 . S
C1217 C1218 1.349 . S
C1217 C1219 1.327 . S
C1217 H1240 0.950 . S
C1218 C1217 1.349 . S
C1218 C1230 1.349 . S
C1219 C1217 1.327 . S
C1219 C1235 1.429 . S
C1219 H1241 0.950 . S
C1220 H1216 0.949 . S
C1220 C1228 1.574 . S
C1220 C1236 1.368 . S
H1221 C1229 0.950 . S
H1222 C1227 0.950 . S
H1223 C1228 0.949 . S
H1224 C1230 0.950 . S
H1225 C1231 0.950 . S
H1226 C1232 0.949 . S
C1227 H1222 0.950 . S
C1227 C1229 1.327 . S
C1227 C1233 1.429 . S
C1228 C1220 1.574 . S
C1228 H1223 0.949 . S
C1228 C1234 1.368 . S
C1229 C1213 1.349 . S
C1229 H1221 0.950 . S
C1229 C1227 1.327 . S
C1230 C1218 1.349 . S
C1230 H1224 0.950 . S
C1230 C1231 1.327 . S
C1231 H1225 0.950 . S
C1231 C1230 1.327 . S
C1231 C1235 1.429 . S
C1232 C1215 1.574 . S
C1232 H1226 0.949 . S
C1232 C1236 1.368 . S
C1233 C1214 1.429 . S
C1233 C1227 1.429 . S
C1233 C1234 1.523 . S
C1234 C1215 1.368 . S
C1234 C1228 1.368 . S
C1234 C1233 1.523 . S
C1235 C1219 1.429 . S
C1235 C1231 1.429 . S
C1235 C1236 1.523 . S
C1236 C1220 1.368 . S
C1236 C1232 1.368 . S
C1236 C1235 1.523 . S
H1237 C1212 0.950 . S
H1238 C1214 0.950 . S
H1239 C1215 0.949 . S
H1240 C1217 0.950 . S
H1241 C1219 0.950 . S
C1242 C1243 1.349 . S
C1242 C1244 1.327 . S
C1242 H1267 0.950 . S
C1243 C1242 1.349 . S
C1243 C1259 1.349 . S
C1244 C1242 1.327 . S
C1244 C1263 1.429 . S
C1244 H1268 0.950 . S
C1245 C1262 1.574 . S
C1245 C1264 1.368 . S
C1245 H1269 0.949 . S
H1246 C1250 0.949 . S
C1247 C1248 1.349 . S
C1247 C1249 1.327 . S
C1247 H1270 0.950 . S
C1248 C1247 1.349 . S
C1248 C1260 1.349 . S
C1249 C1247 1.327 . S
C1249 C1265 1.429 . S
C1249 H1271 0.950 . S
C1250 H1246 0.949 . S
C1250 C1258 1.574 . S
C1250 C1266 1.368 . S
H1251 C1259 0.950 . S
H1252 C1257 0.950 . S
H1253 C1258 0.949 . S
H1254 C1260 0.950 . S
H1255 C1261 0.950 . S
H1256 C1262 0.949 . S
C1257 H1252 0.950 . S
C1257 C1259 1.327 . S
C1257 C1263 1.429 . S
C1258 C1250 1.574 . S
C1258 H1253 0.949 . S
C1258 C1264 1.368 . S
C1259 C1243 1.349 . S
C1259 H1251 0.950 . S
C1259 C1257 1.327 . S
C1260 C1248 1.349 . S
C1260 H1254 0.950 . S
C1260 C1261 1.327 . S
C1261 H1255 0.950 . S
C1261 C1260 1.327 . S
C1261 C1265 1.429 . S
C1262 C1245 1.574 . S
C1262 H1256 0.949 . S
C1262 C1266 1.368 . S
C1263 C1244 1.429 . S
C1263 C1257 1.429 . S
C1263 C1264 1.523 . S
C1264 C1245 1.368 . S
C1264 C1258 1.368 . S
C1264 C1263 1.523 . S
C1265 C1249 1.429 . S
C1265 C1261 1.429 . S
C1265 C1266 1.523 . S
C1266 C1250 1.368 . S
C1266 C1262 1.368 . S
C1266 C1265 1.523 . S
H1267 C1242 0.950 . S
H1268 C1244 0.950 . S
H1269 C1245 0.949 . S
H1270 C1247 0.950 . S
H1271 C1249 0.950 . S
C1272 C1273 1.349 . S
C1272 C1274 1.327 . S
C1272 H1297 0.950 . S
C1273 C1272 1.349 . S
C1273 C1289 1.349 . S
C1274 C1272 1.327 . S
C1274 C1293 1.429 . S
C1274 H1298 0.950 . S
C1275 C1292 1.574 . S
C1275 C1294 1.368 . S
C1275 H1299 0.949 . S
H1276 C1280 0.949 . S
C1277 C1278 1.349 . S
C1277 C1279 1.327 . S
C1277 H1300 0.950 . S
C1278 C1277 1.349 . S
C1278 C1290 1.349 . S
C1279 C1277 1.327 . S
C1279 C1295 1.429 . S
C1279 H1301 0.950 . S
C1280 H1276 0.949 . S
C1280 C1288 1.574 . S
C1280 C1296 1.368 . S
H1281 C1289 0.950 . S
H1282 C1287 0.950 . S
H1283 C1288 0.949 . S
H1284 C1290 0.950 . S
H1285 C1291 0.950 . S
H1286 C1292 0.949 . S
C1287 H1282 0.950 . S
C1287 C1289 1.327 . S
C1287 C1293 1.429 . S
C1288 C1280 1.574 . S
C1288 H1283 0.949 . S
C1288 C1294 1.368 . S
C1289 C1273 1.349 . S
C1289 H1281 0.950 . S
C1289 C1287 1.327 . S
C1290 C1278 1.349 . S
C1290 H1284 0.950 . S
C1290 C1291 1.327 . S
C1291 H1285 0.950 . S
C1291 C1290 1.327 . S
C1291 C1295 1.429 . S
C1292 C1275 1.574 . S
C1292 H1286 0.949 . S
C1292 C1296 1.368 . S
C1293 C1274 1.429 . S
C1293 C1287 1.429 . S
C1293 C1294 1.523 . S
C1294 C1275 1.368 . S
C1294 C1288 1.368 . S
C1294 C1293 1.523 . S
C1295 C1279 1.429 . S
C1295 C1291 1.429 . S
C1295 C1296 1.523 . S
C1296 C1280 1.368 . S
C1296 C1292 1.368 . S
C1296 C1295 1.523 . S
H1297 C1272 0.950 . S
H1298 C1274 0.950 . S
H1299 C1275 0.949 . S
H1300 C1277 0.950 . S
H1301 C1279 0.950 . S
C1302 C1303 1.349 . S
C1302 C1304 1.327 . S
C1302 H1327 0.950 . S
C1303 C1302 1.349 . S
C1303 C1319 1.349 . S
C1304 C1302 1.327 . S
C1304 C1323 1.429 . S
C1304 H1328 0.950 . S
C1305 C1322 1.574 . S
C1305 C1324 1.368 . S
C1305 H1329 0.949 . S
H1306 C1310 0.949 . S
C1307 C1308 1.349 . S
C1307 C1309 1.327 . S
C1307 H1330 0.950 . S
C1308 C1307 1.349 . S
C1308 C1320 1.349 . S
C1309 C1307 1.327 . S
C1309 C1325 1.429 . S
C1309 H1331 0.950 . S
C1310 H1306 0.949 . S
C1310 C1318 1.574 . S
C1310 C1326 1.368 . S
H1311 C1319 0.950 . S
H1312 C1317 0.950 . S
H1313 C1318 0.949 . S
H1314 C1320 0.950 . S
H1315 C1321 0.950 . S
H1316 C1322 0.949 . S
C1317 H1312 0.950 . S
C1317 C1319 1.327 . S
C1317 C1323 1.429 . S
C1318 C1310 1.574 . S
C1318 H1313 0.949 . S
C1318 C1324 1.368 . S
C1319 C1303 1.349 . S
C1319 H1311 0.950 . S
C1319 C1317 1.327 . S
C1320 C1308 1.349 . S
C1320 H1314 0.950 . S
C1320 C1321 1.327 . S
C1321 H1315 0.950 . S
C1321 C1320 1.327 . S
C1321 C1325 1.429 . S
C1322 C1305 1.574 . S
C1322 H1316 0.949 . S
C1322 C1326 1.368 . S
C1323 C1304 1.429 . S
C1323 C1317 1.429 . S
C1323 C1324 1.523 . S
C1324 C1305 1.368 . S
C1324 C1318 1.368 . S
C1324 C1323 1.523 . S
C1325 C1309 1.429 . S
C1325 C1321 1.429 . S
C1325 C1326 1.523 . S
C1326 C1310 1.368 . S
C1326 C1322 1.368 . S
C1326 C1325 1.523 . S
H1327 C1302 0.950 . S
H1328 C1304 0.950 . S
H1329 C1305 0.949 . S
H1330 C1307 0.950 . S
H1331 C1309 0.950 . S
C1332 C1333 1.349 . S
C1332 C1334 1.327 . S
C1332 H1357 0.950 . S
C1333 C1332 1.349 . S
C1333 C1349 1.349 . S
C1334 C1332 1.327 . S
C1334 C1353 1.429 . S
C1334 H1358 0.950 . S
C1335 C1352 1.574 . S
C1335 C1354 1.368 . S
C1335 H1359 0.949 . S
H1336 C1340 0.949 . S
C1337 C1338 1.349 . S
C1337 C1339 1.327 . S
C1337 H1360 0.950 . S
C1338 C1337 1.349 . S
C1338 C1350 1.349 . S
C1339 C1337 1.327 . S
C1339 C1355 1.429 . S
C1339 H1361 0.950 . S
C1340 H1336 0.949 . S
C1340 C1348 1.574 . S
C1340 C1356 1.368 . S
H1341 C1349 0.950 . S
H1342 C1347 0.950 . S
H1343 C1348 0.949 . S
H1344 C1350 0.950 . S
H1345 C1351 0.950 . S
H1346 C1352 0.949 . S
C1347 H1342 0.950 . S
C1347 C1349 1.327 . S
C1347 C1353 1.429 . S
C1348 C1340 1.574 . S
C1348 H1343 0.949 . S
C1348 C1354 1.368 . S
C1349 C1333 1.349 . S
C1349 H1341 0.950 . S
C1349 C1347 1.327 . S
C1350 C1338 1.349 . S
C1350 H1344 0.950 . S
C1350 C1351 1.327 . S
C1351 H1345 0.950 . S
C1351 C1350 1.327 . S
C1351 C1355 1.429 . S
C1352 C1335 1.574 . S
C1352 H1346 0.949 . S
C1352 C1356 1.368 . S
C1353 C1334 1.429 . S
C1353 C1347 1.429 . S
C1353 C1354 1.523 . S
C1354 C1335 1.368 . S
C1354 C1348 1.368 . S
C1354 C1353 1.523 . S
C1355 C1339 1.429 . S
C1355 C1351 1.429 . S
C1355 C1356 1.523 . S
C1356 C1340 1.368 . S
C1356 C1352 1.368 . S
C1356 C1355 1.523 . S
H1357 C1332 0.950 . S
H1358 C1334 0.950 . S
H1359 C1335 0.949 . S
H1360 C1337 0.950 . S
H1361 C1339 0.950 . S
C1362 C1363 1.349 . S
C1362 C1364 1.327 . S
C1362 H1387 0.950 . S
C1363 C1362 1.349 . S
C1363 C1379 1.349 . S
C1364 C1362 1.327 . S
C1364 C1383 1.429 . S
C1364 H1388 0.950 . S
C1365 C1382 1.574 . S
C1365 C1384 1.368 . S
C1365 H1389 0.949 . S
H1366 C1370 0.949 . S
C1367 C1368 1.349 . S
C1367 C1369 1.327 . S
C1367 H1390 0.950 . S
C1368 C1367 1.349 . S
C1368 C1380 1.349 . S
C1369 C1367 1.327 . S
C1369 C1385 1.429 . S
C1369 H1391 0.950 . S
C1370 H1366 0.949 . S
C1370 C1378 1.574 . S
C1370 C1386 1.368 . S
H1371 C1379 0.950 . S
H1372 C1377 0.950 . S
H1373 C1378 0.949 . S
H1374 C1380 0.950 . S
H1375 C1381 0.950 . S
H1376 C1382 0.949 . S
C1377 H1372 0.950 . S
C1377 C1379 1.327 . S
C1377 C1383 1.429 . S
C1378 C1370 1.574 . S
C1378 H1373 0.949 . S
C1378 C1384 1.368 . S
C1379 C1363 1.349 . S
C1379 H1371 0.950 . S
C1379 C1377 1.327 . S
C1380 C1368 1.349 . S
C1380 H1374 0.950 . S
C1380 C1381 1.327 . S
C1381 H1375 0.950 . S
C1381 C1380 1.327 . S
C1381 C1385 1.429 . S
C1382 C1365 1.574 . S
C1382 H1376 0.949 . S
C1382 C1386 1.368 . S
C1383 C1364 1.429 . S
C1383 C1377 1.429 . S
C1383 C1384 1.523 . S
C1384 C1365 1.368 . S
C1384 C1378 1.368 . S
C1384 C1383 1.523 . S
C1385 C1369 1.429 . S
C1385 C1381 1.429 . S
C1385 C1386 1.523 . S
C1386 C1370 1.368 . S
C1386 C1382 1.368 . S
C1386 C1385 1.523 . S
H1387 C1362 0.950 . S
H1388 C1364 0.950 . S
H1389 C1365 0.949 . S
H1390 C1367 0.950 . S
H1391 C1369 0.950 . S
C1392 C1393 1.349 . S
C1392 C1394 1.327 . S
C1392 H1417 0.950 . S
C1393 C1392 1.349 . S
C1393 C1409 1.349 . S
C1394 C1392 1.327 . S
C1394 C1413 1.429 . S
C1394 H1418 0.950 . S
C1395 C1412 1.574 . S
C1395 C1414 1.368 . S
C1395 H1419 0.949 . S
H1396 C1400 0.949 . S
C1397 C1398 1.349 . S
C1397 C1399 1.327 . S
C1397 H1420 0.950 . S
C1398 C1397 1.349 . S
C1398 C1410 1.349 . S
C1399 C1397 1.327 . S
C1399 C1415 1.429 . S
C1399 H1421 0.950 . S
C1400 H1396 0.949 . S
C1400 C1408 1.574 . S
C1400 C1416 1.368 . S
H1401 C1409 0.950 . S
H1402 C1407 0.950 . S
H1403 C1408 0.949 . S
H1404 C1410 0.950 . S
H1405 C1411 0.950 . S
H1406 C1412 0.949 . S
C1407 H1402 0.950 . S
C1407 C1409 1.327 . S
C1407 C1413 1.429 . S
C1408 C1400 1.574 . S
C1408 H1403 0.949 . S
C1408 C1414 1.368 . S
C1409 C1393 1.349 . S
C1409 H1401 0.950 . S
C1409 C1407 1.327 . S
C1410 C1398 1.349 . S
C1410 H1404 0.950 . S
C1410 C1411 1.327 . S
C1411 H1405 0.950 . S
C1411 C1410 1.327 . S
C1411 C1415 1.429 . S
C1412 C1395 1.574 . S
C1412 H1406 0.949 . S
C1412 C1416 1.368 . S
C1413 C1394 1.429 . S
C1413 C1407 1.429 . S
C1413 C1414 1.523 . S
C1414 C1395 1.368 . S
C1414 C1408 1.368 . S
C1414 C1413 1.523 . S
C1415 C1399 1.429 . S
C1415 C1411 1.429 . S
C1415 C1416 1.523 . S
C1416 C1400 1.368 . S
C1416 C1412 1.368 . S
C1416 C1415 1.523 . S
H1417 C1392 0.950 . S
H1418 C1394 0.950 . S
H1419 C1395 0.949 . S
H1420 C1397 0.950 . S
H1421 C1399 0.950 . S
C1422 C1423 1.349 . S
C1422 C1424 1.327 . S
C1422 H1447 0.950 . S
C1423 C1422 1.349 . S
C1423 C1439 1.349 . S
C1424 C1422 1.327 . S
C1424 C1443 1.429 . S
C1424 H1448 0.950 . S
C1425 C1442 1.574 . S
C1425 C1444 1.368 . S
C1425 H1449 0.949 . S
H1426 C1430 0.949 . S
C1427 C1428 1.349 . S
C1427 C1429 1.327 . S
C1427 H1450 0.950 . S
C1428 C1427 1.349 . S
C1428 C1440 1.349 . S
C1429 C1427 1.327 . S
C1429 C1445 1.429 . S
C1429 H1451 0.950 . S
C1430 H1426 0.949 . S
C1430 C1438 1.574 . S
C1430 C1446 1.368 . S
H1431 C1439 0.950 . S
H1432 C1437 0.950 . S
H1433 C1438 0.949 . S
H1434 C1440 0.950 . S
H1435 C1441 0.950 . S
H1436 C1442 0.949 . S
C1437 H1432 0.950 . S
C1437 C1439 1.327 . S
C1437 C1443 1.429 . S
C1438 C1430 1.574 . S
C1438 H1433 0.949 . S
C1438 C1444 1.368 . S
C1439 C1423 1.349 . S
C1439 H1431 0.950 . S
C1439 C1437 1.327 . S
C1440 C1428 1.349 . S
C1440 H1434 0.950 . S
C1440 C1441 1.327 . S
C1441 H1435 0.950 . S
C1441 C1440 1.327 . S
C1441 C1445 1.429 . S
C1442 C1425 1.574 . S
C1442 H1436 0.949 . S
C1442 C1446 1.368 . S
C1443 C1424 1.429 . S
C1443 C1437 1.429 . S
C1443 C1444 1.523 . S
C1444 C1425 1.368 . S
C1444 C1438 1.368 . S
C1444 C1443 1.523 . S
C1445 C1429 1.429 . S
C1445 C1441 1.429 . S
C1445 C1446 1.523 . S
C1446 C1430 1.368 . S
C1446 C1442 1.368 . S
C1446 C1445 1.523 . S
H1447 C1422 0.950 . S
H1448 C1424 0.950 . S
H1449 C1425 0.949 . S
H1450 C1427 0.950 . S
H1451 C1429 0.950 . S
C1452 C1453 1.349 . S
C1452 C1454 1.327 . S
C1452 H1477 0.950 . S
C1453 C1452 1.349 . S
C1453 C1469 1.349 . S
C1454 C1452 1.327 . S
C1454 C1473 1.429 . S
C1454 H1478 0.950 . S
C1455 C1472 1.574 . S
C1455 C1474 1.368 . S
C1455 H1479 0.949 . S
H1456 C1460 0.949 . S
C1457 C1458 1.349 . S
C1457 C1459 1.327 . S
C1457 H1480 0.950 . S
C1458 C1457 1.349 . S
C1458 C1470 1.349 . S
C1459 C1457 1.327 . S
C1459 C1475 1.429 . S
C1459 H1481 0.950 . S
C1460 H1456 0.949 . S
C1460 C1468 1.574 . S
C1460 C1476 1.368 . S
H1461 C1469 0.950 . S
H1462 C1467 0.950 . S
H1463 C1468 0.949 . S
H1464 C1470 0.950 . S
H1465 C1471 0.950 . S
H1466 C1472 0.949 . S
C1467 H1462 0.950 . S
C1467 C1469 1.327 . S
C1467 C1473 1.429 . S
C1468 C1460 1.574 . S
C1468 H1463 0.949 . S
C1468 C1474 1.368 . S
C1469 C1453 1.349 . S
C1469 H1461 0.950 . S
C1469 C1467 1.327 . S
C1470 C1458 1.349 . S
C1470 H1464 0.950 . S
C1470 C1471 1.327 . S
C1471 H1465 0.950 . S
C1471 C1470 1.327 . S
C1471 C1475 1.429 . S
C1472 C1455 1.574 . S
C1472 H1466 0.949 . S
C1472 C1476 1.368 . S
C1473 C1454 1.429 . S
C1473 C1467 1.429 . S
C1473 C1474 1.523 . S
C1474 C1455 1.368 . S
C1474 C1468 1.368 . S
C1474 C1473 1.523 . S
C1475 C1459 1.429 . S
C1475 C1471 1.429 . S
C1475 C1476 1.523 . S
C1476 C1460 1.368 . S
C1476 C1472 1.368 . S
C1476 C1475 1.523 . S
H1477 C1452 0.950 . S
H1478 C1454 0.950 . S
H1479 C1455 0.949 . S
H1480 C1457 0.950 . S
H1481 C1459 0.950 . S
C1482 C1483 1.349 . S
C1482 C1484 1.327 . S
C1482 H1507 0.950 . S
C1483 C1482 1.349 . S
C1483 C1499 1.349 . S
C1484 C1482 1.327 . S
C1484 C1503 1.429 . S
C1484 H1508 0.950 . S
C1485 C1502 1.574 . S
C1485 C1504 1.368 . S
C1485 H1509 0.949 . S
H1486 C1490 0.949 . S
C1487 C1488 1.349 . S
C1487 C1489 1.327 . S
C1487 H1510 0.950 . S
C1488 C1487 1.349 . S
C1488 C1500 1.349 . S
C1489 C1487 1.327 . S
C1489 C1505 1.429 . S
C1489 H1511 0.950 . S
C1490 H1486 0.949 . S
C1490 C1498 1.574 . S
C1490 C1506 1.368 . S
H1491 C1499 0.950 . S
H1492 C1497 0.950 . S
H1493 C1498 0.949 . S
H1494 C1500 0.950 . S
H1495 C1501 0.950 . S
H1496 C1502 0.949 . S
C1497 H1492 0.950 . S
C1497 C1499 1.327 . S
C1497 C1503 1.429 . S
C1498 C1490 1.574 . S
C1498 H1493 0.949 . S
C1498 C1504 1.368 . S
C1499 C1483 1.349 . S
C1499 H1491 0.950 . S
C1499 C1497 1.327 . S
C1500 C1488 1.349 . S
C1500 H1494 0.950 . S
C1500 C1501 1.327 . S
C1501 H1495 0.950 . S
C1501 C1500 1.327 . S
C1501 C1505 1.429 . S
C1502 C1485 1.574 . S
C1502 H1496 0.949 . S
C1502 C1506 1.368 . S
C1503 C1484 1.429 . S
C1503 C1497 1.429 . S
C1503 C1504 1.523 . S
C1504 C1485 1.368 . S
C1504 C1498 1.368 . S
C1504 C1503 1.523 . S
C1505 C1489 1.429 . S
C1505 C1501 1.429 . S
C1505 C1506 1.523 . S
C1506 C1490 1.368 . S
C1506 C1502 1.368 . S
C1506 C1505 1.523 . S
H1507 C1482 0.950 . S
H1508 C1484 0.950 . S
H1509 C1485 0.949 . S
H1510 C1487 0.950 . S
H1511 C1489 0.950 . S
C1512 C1513 1.349 . S
C1512 C1514 1.327 . S
C1512 H1537 0.950 . S
C1513 C1512 1.349 . S
C1513 C1529 1.349 . S
C1514 C1512 1.327 . S
C1514 C1533 1.429 . S
C1514 H1538 0.950 . S
C1515 C1532 1.574 . S
C1515 C1534 1.368 . S
C1515 H1539 0.949 . S
H1516 C1520 0.949 . S
C1517 C1518 1.349 . S
C1517 C1519 1.327 . S
C1517 H1540 0.950 . S
C1518 C1517 1.349 . S
C1518 C1530 1.349 . S
C1519 C1517 1.327 . S
C1519 C1535 1.429 . S
C1519 H1541 0.950 . S
C1520 H1516 0.949 . S
C1520 C1528 1.574 . S
C1520 C1536 1.368 . S
H1521 C1529 0.950 . S
H1522 C1527 0.950 . S
H1523 C1528 0.949 . S
H1524 C1530 0.950 . S
H1525 C1531 0.950 . S
H1526 C1532 0.949 . S
C1527 H1522 0.950 . S
C1527 C1529 1.327 . S
C1527 C1533 1.429 . S
C1528 C1520 1.574 . S
C1528 H1523 0.949 . S
C1528 C1534 1.368 . S
C1529 C1513 1.349 . S
C1529 H1521 0.950 . S
C1529 C1527 1.327 . S
C1530 C1518 1.349 . S
C1530 H1524 0.950 . S
C1530 C1531 1.327 . S
C1531 H1525 0.950 . S
C1531 C1530 1.327 . S
C1531 C1535 1.429 . S
C1532 C1515 1.574 . S
C1532 H1526 0.949 . S
C1532 C1536 1.368 . S
C1533 C1514 1.429 . S
C1533 C1527 1.429 . S
C1533 C1534 1.523 . S
C1534 C1515 1.368 . S
C1534 C1528 1.368 . S
C1534 C1533 1.523 . S
C1535 C1519 1.429 . S
C1535 C1531 1.429 . S
C1535 C1536 1.523 . S
C1536 C1520 1.368 . S
C1536 C1532 1.368 . S
C1536 C1535 1.523 . S
H1537 C1512 0.950 . S
H1538 C1514 0.950 . S
H1539 C1515 0.949 . S
H1540 C1517 0.950 . S
H1541 C1519 0.950 . S
C1542 C1543 1.349 . S
C1542 C1544 1.327 . S
C1542 H1567 0.950 . S
C1543 C1542 1.349 . S
C1543 C1559 1.349 . S
C1544 C1542 1.327 . S
C1544 C1563 1.429 . S
C1544 H1568 0.950 . S
C1545 C1562 1.574 . S
C1545 C1564 1.368 . S
C1545 H1569 0.949 . S
H1546 C1550 0.949 . S
C1547 C1548 1.349 . S
C1547 C1549 1.327 . S
C1547 H1570 0.950 . S
C1548 C1547 1.349 . S
C1548 C1560 1.349 . S
C1549 C1547 1.327 . S
C1549 C1565 1.429 . S
C1549 H1571 0.950 . S
C1550 H1546 0.949 . S
C1550 C1558 1.574 . S
C1550 C1566 1.368 . S
H1551 C1559 0.950 . S
H1552 C1557 0.950 . S
H1553 C1558 0.949 . S
H1554 C1560 0.950 . S
H1555 C1561 0.950 . S
H1556 C1562 0.949 . S
C1557 H1552 0.950 . S
C1557 C1559 1.327 . S
C1557 C1563 1.429 . S
C1558 C1550 1.574 . S
C1558 H1553 0.949 . S
C1558 C1564 1.368 . S
C1559 C1543 1.349 . S
C1559 H1551 0.950 . S
C1559 C1557 1.327 . S
C1560 C1548 1.349 . S
C1560 H1554 0.950 . S
C1560 C1561 1.327 . S
C1561 H1555 0.950 . S
C1561 C1560 1.327 . S
C1561 C1565 1.429 . S
C1562 C1545 1.574 . S
C1562 H1556 0.949 . S
C1562 C1566 1.368 . S
C1563 C1544 1.429 . S
C1563 C1557 1.429 . S
C1563 C1564 1.523 . S
C1564 C1545 1.368 . S
C1564 C1558 1.368 . S
C1564 C1563 1.523 . S
C1565 C1549 1.429 . S
C1565 C1561 1.429 . S
C1565 C1566 1.523 . S
C1566 C1550 1.368 . S
C1566 C1562 1.368 . S
C1566 C1565 1.523 . S
H1567 C1542 0.950 . S
H1568 C1544 0.950 . S
H1569 C1545 0.949 . S
H1570 C1547 0.950 . S
H1571 C1549 0.950 . S
C1572 C1573 1.349 . S
C1572 C1574 1.327 . S
C1572 H1597 0.950 . S
C1573 C1572 1.349 . S
C1573 C1589 1.349 . S
C1574 C1572 1.327 . S
C1574 C1593 1.429 . S
C1574 H1598 0.950 . S
C1575 C1592 1.574 . S
C1575 C1594 1.368 . S
C1575 H1599 0.949 . S
H1576 C1580 0.949 . S
C1577 C1578 1.349 . S
C1577 C1579 1.327 . S
C1577 H1600 0.950 . S
C1578 C1577 1.349 . S
C1578 C1590 1.349 . S
C1579 C1577 1.327 . S
C1579 C1595 1.429 . S
C1579 H1601 0.950 . S
C1580 H1576 0.949 . S
C1580 C1588 1.574 . S
C1580 C1596 1.368 . S
H1581 C1589 0.950 . S
H1582 C1587 0.950 . S
H1583 C1588 0.949 . S
H1584 C1590 0.950 . S
H1585 C1591 0.950 . S
H1586 C1592 0.949 . S
C1587 H1582 0.950 . S
C1587 C1589 1.327 . S
C1587 C1593 1.429 . S
C1588 C1580 1.574 . S
C1588 H1583 0.949 . S
C1588 C1594 1.368 . S
C1589 C1573 1.349 . S
C1589 H1581 0.950 . S
C1589 C1587 1.327 . S
C1590 C1578 1.349 . S
C1590 H1584 0.950 . S
C1590 C1591 1.327 . S
C1591 H1585 0.950 . S
C1591 C1590 1.327 . S
C1591 C1595 1.429 . S
C1592 C1575 1.574 . S
C1592 H1586 0.949 . S
C1592 C1596 1.368 . S
C1593 C1574 1.429 . S
C1593 C1587 1.429 . S
C1593 C1594 1.523 . S
C1594 C1575 1.368 . S
C1594 C1588 1.368 . S
C1594 C1593 1.523 . S
C1595 C1579 1.429 . S
C1595 C1591 1.429 . S
C1595 C1596 1.523 . S
C1596 C1580 1.368 . S
C1596 C1592 1.368 . S
C1596 C1595 1.523 . S
H1597 C1572 0.950 . S
H1598 C1574 0.950 . S
H1599 C1575 0.949 . S
H1600 C1577 0.950 . S
H1601 C1579 0.950 . S
C1602 C1603 1.349 . S
C1602 C1604 1.327 . S
C1602 H1627 0.950 . S
C1603 C1602 1.349 . S
C1603 C1619 1.349 . S
C1604 C1602 1.327 . S
C1604 C1623 1.429 . S
C1604 H1628 0.950 . S
C1605 C1622 1.574 . S
C1605 C1624 1.368 . S
C1605 H1629 0.949 . S
H1606 C1610 0.949 . S
C1607 C1608 1.349 . S
C1607 C1609 1.327 . S
C1607 H1630 0.950 . S
C1608 C1607 1.349 . S
C1608 C1620 1.349 . S
C1609 C1607 1.327 . S
C1609 C1625 1.429 . S
C1609 H1631 0.950 . S
C1610 H1606 0.949 . S
C1610 C1618 1.574 . S
C1610 C1626 1.368 . S
H1611 C1619 0.950 . S
H1612 C1617 0.950 . S
H1613 C1618 0.949 . S
H1614 C1620 0.950 . S
H1615 C1621 0.950 . S
H1616 C1622 0.949 . S
C1617 H1612 0.950 . S
C1617 C1619 1.327 . S
C1617 C1623 1.429 . S
C1618 C1610 1.574 . S
C1618 H1613 0.949 . S
C1618 C1624 1.368 . S
C1619 C1603 1.349 . S
C1619 H1611 0.950 . S
C1619 C1617 1.327 . S
C1620 C1608 1.349 . S
C1620 H1614 0.950 . S
C1620 C1621 1.327 . S
C1621 H1615 0.950 . S
C1621 C1620 1.327 . S
C1621 C1625 1.429 . S
C1622 C1605 1.574 . S
C1622 H1616 0.949 . S
C1622 C1626 1.368 . S
C1623 C1604 1.429 . S
C1623 C1617 1.429 . S
C1623 C1624 1.523 . S
C1624 C1605 1.368 . S
C1624 C1618 1.368 . S
C1624 C1623 1.523 . S
C1625 C1609 1.429 . S
C1625 C1621 1.429 . S
C1625 C1626 1.523 . S
C1626 C1610 1.368 . S
C1626 C1622 1.368 . S
C1626 C1625 1.523 . S
H1627 C1602 0.950 . S
H1628 C1604 0.950 . S
H1629 C1605 0.949 . S
H1630 C1607 0.950 . S
H1631 C1609 0.950 . S
C1632 C1633 1.349 . S
C1632 C1634 1.327 . S
C1632 H1657 0.950 . S
C1633 C1632 1.349 . S
C1633 C1649 1.349 . S
C1634 C1632 1.327 . S
C1634 C1653 1.429 . S
C1634 H1658 0.950 . S
C1635 C1652 1.574 . S
C1635 C1654 1.368 . S
C1635 H1659 0.949 . S
H1636 C1640 0.949 . S
C1637 C1638 1.349 . S
C1637 C1639 1.327 . S
C1637 H1660 0.950 . S
C1638 C1637 1.349 . S
C1638 C1650 1.349 . S
C1639 C1637 1.327 . S
C1639 C1655 1.429 . S
C1639 H1661 0.950 . S
C1640 H1636 0.949 . S
C1640 C1648 1.574 . S
C1640 C1656 1.368 . S
H1641 C1649 0.950 . S
H1642 C1647 0.950 . S
H1643 C1648 0.949 . S
H1644 C1650 0.950 . S
H1645 C1651 0.950 . S
H1646 C1652 0.949 . S
C1647 H1642 0.950 . S
C1647 C1649 1.327 . S
C1647 C1653 1.429 . S
C1648 C1640 1.574 . S
C1648 H1643 0.949 . S
C1648 C1654 1.368 . S
C1649 C1633 1.349 . S
C1649 H1641 0.950 . S
C1649 C1647 1.327 . S
C1650 C1638 1.349 . S
C1650 H1644 0.950 . S
C1650 C1651 1.327 . S
C1651 H1645 0.950 . S
C1651 C1650 1.327 . S
C1651 C1655 1.429 . S
C1652 C1635 1.574 . S
C1652 H1646 0.949 . S
C1652 C1656 1.368 . S
C1653 C1634 1.429 . S
C1653 C1647 1.429 . S
C1653 C1654 1.523 . S
C1654 C1635 1.368 . S
C1654 C1648 1.368 . S
C1654 C1653 1.523 . S
C1655 C1639 1.429 . S
C1655 C1651 1.429 . S
C1655 C1656 1.523 . S
C1656 C1640 1.368 . S
C1656 C1652 1.368 . S
C1656 C1655 1.523 . S
H1657 C1632 0.950 . S
H1658 C1634 0.950 . S
H1659 C1635 0.949 . S
H1660 C1637 0.950 . S
H1661 C1639 0.950 . S
C1662 C1663 1.349 . S
C1662 C1664 1.327 . S
C1662 H1687 0.950 . S
C1663 C1662 1.349 . S
C1663 C1679 1.349 . S
C1664 C1662 1.327 . S
C1664 C1683 1.429 . S
C1664 H1688 0.950 . S
C1665 C1682 1.574 . S
C1665 C1684 1.368 . S
C1665 H1689 0.949 . S
H1666 C1670 0.949 . S
C1667 C1668 1.349 . S
C1667 C1669 1.327 . S
C1667 H1690 0.950 . S
C1668 C1667 1.349 . S
C1668 C1680 1.349 . S
C1669 C1667 1.327 . S
C1669 C1685 1.429 . S
C1669 H1691 0.950 . S
C1670 H1666 0.949 . S
C1670 C1678 1.574 . S
C1670 C1686 1.368 . S
H1671 C1679 0.950 . S
H1672 C1677 0.950 . S
H1673 C1678 0.949 . S
H1674 C1680 0.950 . S
H1675 C1681 0.950 . S
H1676 C1682 0.949 . S
C1677 H1672 0.950 . S
C1677 C1679 1.327 . S
C1677 C1683 1.429 . S
C1678 C1670 1.574 . S
C1678 H1673 0.949 . S
C1678 C1684 1.368 . S
C1679 C1663 1.349 . S
C1679 H1671 0.950 . S
C1679 C1677 1.327 . S
C1680 C1668 1.349 . S
C1680 H1674 0.950 . S
C1680 C1681 1.327 . S
C1681 H1675 0.950 . S
C1681 C1680 1.327 . S
C1681 C1685 1.429 . S
C1682 C1665 1.574 . S
C1682 H1676 0.949 . S
C1682 C1686 1.368 . S
C1683 C1664 1.429 . S
C1683 C1677 1.429 . S
C1683 C1684 1.523 . S
C1684 C1665 1.368 . S
C1684 C1678 1.368 . S
C1684 C1683 1.523 . S
C1685 C1669 1.429 . S
C1685 C1681 1.429 . S
C1685 C1686 1.523 . S
C1686 C1670 1.368 . S
C1686 C1682 1.368 . S
C1686 C1685 1.523 . S
H1687 C1662 0.950 . S
H1688 C1664 0.950 . S
H1689 C1665 0.949 . S
H1690 C1667 0.950 . S
H1691 C1669 0.950 . S
C1692 C1693 1.349 . S
C1692 C1694 1.327 . S
C1692 H1717 0.950 . S
C1693 C1692 1.349 . S
C1693 C1709 1.349 . S
C1694 C1692 1.327 . S
C1694 C1713 1.429 . S
C1694 H1718 0.950 . S
C1695 C1712 1.574 . S
C1695 C1714 1.368 . S
C1695 H1719 0.949 . S
H1696 C1700 0.949 . S
C1697 C1698 1.349 . S
C1697 C1699 1.327 . S
C1697 H1720 0.950 . S
C1698 C1697 1.349 . S
C1698 C1710 1.349 . S
C1699 C1697 1.327 . S
C1699 C1715 1.429 . S
C1699 H1721 0.950 . S
C1700 H1696 0.949 . S
C1700 C1708 1.574 . S
C1700 C1716 1.368 . S
H1701 C1709 0.950 . S
H1702 C1707 0.950 . S
H1703 C1708 0.949 . S
H1704 C1710 0.950 . S
H1705 C1711 0.950 . S
H1706 C1712 0.949 . S
C1707 H1702 0.950 . S
C1707 C1709 1.327 . S
C1707 C1713 1.429 . S
C1708 C1700 1.574 . S
C1708 H1703 0.949 . S
C1708 C1714 1.368 . S
C1709 C1693 1.349 . S
C1709 H1701 0.950 . S
C1709 C1707 1.327 . S
C1710 C1698 1.349 . S
C1710 H1704 0.950 . S
C1710 C1711 1.327 . S
C1711 H1705 0.950 . S
C1711 C1710 1.327 . S
C1711 C1715 1.429 . S
C1712 C1695 1.574 . S
C1712 H1706 0.949 . S
C1712 C1716 1.368 . S
C1713 C1694 1.429 . S
C1713 C1707 1.429 . S
C1713 C1714 1.523 . S
C1714 C1695 1.368 . S
C1714 C1708 1.368 . S
C1714 C1713 1.523 . S
C1715 C1699 1.429 . S
C1715 C1711 1.429 . S
C1715 C1716 1.523 . S
C1716 C1700 1.368 . S
C1716 C1712 1.368 . S
C1716 C1715 1.523 . S
H1717 C1692 0.950 . S
H1718 C1694 0.950 . S
H1719 C1695 0.949 . S
H1720 C1697 0.950 . S
H1721 C1699 0.950 . S
C1722 C1723 1.349 . S
C1722 C1724 1.327 . S
C1722 H1747 0.950 . S
C1723 C1722 1.349 . S
C1723 C1739 1.349 . S
C1724 C1722 1.327 . S
C1724 C1743 1.429 . S
C1724 H1748 0.950 . S
C1725 C1742 1.574 . S
C1725 C1744 1.368 . S
C1725 H1749 0.949 . S
H1726 C1730 0.949 . S
C1727 C1728 1.349 . S
C1727 C1729 1.327 . S
C1727 H1750 0.950 . S
C1728 C1727 1.349 . S
C1728 C1740 1.349 . S
C1729 C1727 1.327 . S
C1729 C1745 1.429 . S
C1729 H1751 0.950 . S
C1730 H1726 0.949 . S
C1730 C1738 1.574 . S
C1730 C1746 1.368 . S
H1731 C1739 0.950 . S
H1732 C1737 0.950 . S
H1733 C1738 0.949 . S
H1734 C1740 0.950 . S
H1735 C1741 0.950 . S
H1736 C1742 0.949 . S
C1737 H1732 0.950 . S
C1737 C1739 1.327 . S
C1737 C1743 1.429 . S
C1738 C1730 1.574 . S
C1738 H1733 0.949 . S
C1738 C1744 1.368 . S
C1739 C1723 1.349 . S
C1739 H1731 0.950 . S
C1739 C1737 1.327 . S
C1740 C1728 1.349 . S
C1740 H1734 0.950 . S
C1740 C1741 1.327 . S
C1741 H1735 0.950 . S
C1741 C1740 1.327 . S
C1741 C1745 1.429 . S
C1742 C1725 1.574 . S
C1742 H1736 0.949 . S
C1742 C1746 1.368 . S
C1743 C1724 1.429 . S
C1743 C1737 1.429 . S
C1743 C1744 1.523 . S
C1744 C1725 1.368 . S
C1744 C1738 1.368 . S
C1744 C1743 1.523 . S
C1745 C1729 1.429 . S
C1745 C1741 1.429 . S
C1745 C1746 1.523 . S
C1746 C1730 1.368 . S
C1746 C1742 1.368 . S
C1746 C1745 1.523 . S
H1747 C1722 0.950 . S
H1748 C1724 0.950 . S
H1749 C1725 0.949 . S
H1750 C1727 0.950 . S
H1751 C1729 0.950 . S
C798 C397 1.463 . S
C793 C15 1.465 . S
C828 C450 1.300 . S
C823 C68 1.300 . S
C858 C513 1.537 . S
C853 C107 1.538 . S
C888 C556 1.243 . S
C883 C160 1.242 . S
C913 C185 1.536 . S
C918 C512 1.535 . S
C948 C549 1.314 . S
C943 C252 1.314 . S
C978 C390 1.465 . S
C973 C277 1.464 . S
C1008 C443 1.230 . S
C1003 C330 1.229 . S
C1038 C496 1.472 . S
C1033 C323 1.469 . S
C1068 C565 1.792 . S
C1063 C192 1.793 . S
C1098 C406 1.554 . S
C1093 C245 1.554 . S
C1128 C459 1.729 . S
C1123 C284 1.730 . S
C1158 C407 1.543 . S
C1153 C61 1.542 . S
C1188 C460 1.802 . S
C1183 C114 1.802 . S
C1218 C503 1.483 . S
C1213 C153 1.481 . S
C1248 C566 1.716 . S
C1243 C22 1.716 . S
C1278 C609 1.433 . S
C1273 C337 1.434 . S
C1303 C206 1.672 . S
C1308 C662 1.672 . S
C1333 C231 1.576 . S
C1338 C724 1.575 . S
C1363 C298 1.676 . S
C1368 C778 1.678 . S
C1393 C47 1.504 . S
C1398 C725 1.504 . S
C1423 C100 1.753 . S
C1428 C777 1.751 . S
C1453 C139 1.500 . S
C1458 C602 1.500 . S
C1488 C655 1.605 . S
C1483 C8 1.603 . S
C1518 C715 1.451 . S
C1513 C1 1.447 . S
C1543 C54 1.354 . S
C1548 C761 1.352 . S
C1573 C93 1.583 . S
C1578 C618 1.585 . S
C1603 C146 1.318 . S
C1608 C671 1.318 . S
C1638 C619 1.519 . S
C1633 C199 1.518 . S
C1668 C672 1.395 . S
C1663 C238 1.398 . S
C1693 C291 1.508 . S
C1698 C708 1.510 . S
C1728 C768 1.282 . S
C1723 C344 1.280 . S
