# Generated by pormake.
# Topology eea, (3,6)-cn, num edge types: 1
# Building blocks:
#     Node 0, Type 0, BuildingBlock: CUQRIR_clean_linker_1, # of connection points: 3
#     Node 1, Type 0, BuildingBlock: CUQRIR_clean_linker_1, # of connection points: 3
#     Node 2, Type 0, BuildingBlock: CUQRIR_clean_linker_1, # of connection points: 3
#     Node 3, Type 0, BuildingBlock: CUQRIR_clean_linker_1, # of connection points: 3
#     Node 4, Type 0, BuildingBlock: CUQRIR_clean_linker_1, # of connection points: 3
#     Node 5, Type 0, BuildingBlock: CUQRIR_clean_linker_1, # of connection points: 3
#     Node 6, Type 0, BuildingBlock: CUQRIR_clean_linker_1, # of connection points: 3
#     Node 7, Type 0, BuildingBlock: CUQRIR_clean_linker_1, # of connection points: 3
#     Node 8, Type 0, BuildingBlock: CUQRIR_clean_linker_1, # of connection points: 3
#     Node 9, Type 0, BuildingBlock: CUQRIR_clean_linker_1, # of connection points: 3
#     Node 10, Type 0, BuildingBlock: CUQRIR_clean_linker_1, # of connection points: 3
#     Node 11, Type 0, BuildingBlock: CUQRIR_clean_linker_1, # of connection points: 3
#     Node 12, Type 0, BuildingBlock: CUQRIR_clean_linker_1, # of connection points: 3
#     Node 13, Type 0, BuildingBlock: CUQRIR_clean_linker_1, # of connection points: 3
#     Node 14, Type 0, BuildingBlock: CUQRIR_clean_linker_1, # of connection points: 3
#     Node 15, Type 0, BuildingBlock: CUQRIR_clean_linker_1, # of connection points: 3
#     Node 16, Type 0, BuildingBlock: CUQRIR_clean_linker_1, # of connection points: 3
#     Node 17, Type 0, BuildingBlock: CUQRIR_clean_linker_1, # of connection points: 3
#     Node 18, Type 1, BuildingBlock: CUKXOW_clean_sbu_0, # of connection points: 6
#     Node 19, Type 1, BuildingBlock: CUKXOW_clean_sbu_0, # of connection points: 6
#     Node 20, Type 1, BuildingBlock: CUKXOW_clean_sbu_0, # of connection points: 6
#     Node 21, Type 1, BuildingBlock: CUKXOW_clean_sbu_0, # of connection points: 6
#     Node 22, Type 1, BuildingBlock: CUKXOW_clean_sbu_0, # of connection points: 6
#     Node 23, Type 1, BuildingBlock: CUKXOW_clean_sbu_0, # of connection points: 6
#     Node 24, Type 1, BuildingBlock: CUKXOW_clean_sbu_0, # of connection points: 6
#     Node 25, Type 1, BuildingBlock: CUKXOW_clean_sbu_0, # of connection points: 6
#     Node 26, Type 1, BuildingBlock: CUKXOW_clean_sbu_0, # of connection points: 6
#     Edge 27, Type (0, 1), BuildingBlock: XIVTED_clean_linker_0, # of connection points: 2
#     Edge 28, Type (0, 1), BuildingBlock: XIVTED_clean_linker_0, # of connection points: 2
#     Edge 29, Type (0, 1), BuildingBlock: XIVTED_clean_linker_0, # of connection points: 2
#     Edge 30, Type (0, 1), BuildingBlock: XIVTED_clean_linker_0, # of connection points: 2
#     Edge 31, Type (0, 1), BuildingBlock: XIVTED_clean_linker_0, # of connection points: 2
#     Edge 32, Type (0, 1), BuildingBlock: XIVTED_clean_linker_0, # of connection points: 2
#     Edge 33, Type (0, 1), BuildingBlock: XIVTED_clean_linker_0, # of connection points: 2
#     Edge 34, Type (0, 1), BuildingBlock: XIVTED_clean_linker_0, # of connection points: 2
#     Edge 35, Type (0, 1), BuildingBlock: XIVTED_clean_linker_0, # of connection points: 2
#     Edge 36, Type (0, 1), BuildingBlock: XIVTED_clean_linker_0, # of connection points: 2
#     Edge 37, Type (0, 1), BuildingBlock: XIVTED_clean_linker_0, # of connection points: 2
#     Edge 38, Type (0, 1), BuildingBlock: XIVTED_clean_linker_0, # of connection points: 2
#     Edge 39, Type (0, 1), BuildingBlock: XIVTED_clean_linker_0, # of connection points: 2
#     Edge 40, Type (0, 1), BuildingBlock: XIVTED_clean_linker_0, # of connection points: 2
#     Edge 41, Type (0, 1), BuildingBlock: XIVTED_clean_linker_0, # of connection points: 2
#     Edge 42, Type (0, 1), BuildingBlock: XIVTED_clean_linker_0, # of connection points: 2
#     Edge 43, Type (0, 1), BuildingBlock: XIVTED_clean_linker_0, # of connection points: 2
#     Edge 44, Type (0, 1), BuildingBlock: XIVTED_clean_linker_0, # of connection points: 2
#     Edge 45, Type (0, 1), BuildingBlock: XIVTED_clean_linker_0, # of connection points: 2
#     Edge 46, Type (0, 1), BuildingBlock: XIVTED_clean_linker_0, # of connection points: 2
#     Edge 47, Type (0, 1), BuildingBlock: XIVTED_clean_linker_0, # of connection points: 2
#     Edge 48, Type (0, 1), BuildingBlock: XIVTED_clean_linker_0, # of connection points: 2
#     Edge 49, Type (0, 1), BuildingBlock: XIVTED_clean_linker_0, # of connection points: 2
#     Edge 50, Type (0, 1), BuildingBlock: XIVTED_clean_linker_0, # of connection points: 2
#     Edge 51, Type (0, 1), BuildingBlock: XIVTED_clean_linker_0, # of connection points: 2
#     Edge 52, Type (0, 1), BuildingBlock: XIVTED_clean_linker_0, # of connection points: 2
#     Edge 53, Type (0, 1), BuildingBlock: XIVTED_clean_linker_0, # of connection points: 2
#     Edge 54, Type (0, 1), BuildingBlock: XIVTED_clean_linker_0, # of connection points: 2
#     Edge 55, Type (0, 1), BuildingBlock: XIVTED_clean_linker_0, # of connection points: 2
#     Edge 56, Type (0, 1), BuildingBlock: XIVTED_clean_linker_0, # of connection points: 2
#     Edge 57, Type (0, 1), BuildingBlock: XIVTED_clean_linker_0, # of connection points: 2
#     Edge 58, Type (0, 1), BuildingBlock: XIVTED_clean_linker_0, # of connection points: 2
#     Edge 59, Type (0, 1), BuildingBlock: XIVTED_clean_linker_0, # of connection points: 2
#     Edge 60, Type (0, 1), BuildingBlock: XIVTED_clean_linker_0, # of connection points: 2
#     Edge 61, Type (0, 1), BuildingBlock: XIVTED_clean_linker_0, # of connection points: 2
#     Edge 62, Type (0, 1), BuildingBlock: XIVTED_clean_linker_0, # of connection points: 2
#     Edge 63, Type (0, 1), BuildingBlock: XIVTED_clean_linker_0, # of connection points: 2
#     Edge 64, Type (0, 1), BuildingBlock: XIVTED_clean_linker_0, # of connection points: 2
#     Edge 65, Type (0, 1), BuildingBlock: XIVTED_clean_linker_0, # of connection points: 2
#     Edge 66, Type (0, 1), BuildingBlock: XIVTED_clean_linker_0, # of connection points: 2
#     Edge 67, Type (0, 1), BuildingBlock: XIVTED_clean_linker_0, # of connection points: 2
#     Edge 68, Type (0, 1), BuildingBlock: XIVTED_clean_linker_0, # of connection points: 2
#     Edge 69, Type (0, 1), BuildingBlock: XIVTED_clean_linker_0, # of connection points: 2
#     Edge 70, Type (0, 1), BuildingBlock: XIVTED_clean_linker_0, # of connection points: 2
#     Edge 71, Type (0, 1), BuildingBlock: XIVTED_clean_linker_0, # of connection points: 2
#     Edge 72, Type (0, 1), BuildingBlock: XIVTED_clean_linker_0, # of connection points: 2
#     Edge 73, Type (0, 1), BuildingBlock: XIVTED_clean_linker_0, # of connection points: 2
#     Edge 74, Type (0, 1), BuildingBlock: XIVTED_clean_linker_0, # of connection points: 2
#     Edge 75, Type (0, 1), BuildingBlock: XIVTED_clean_linker_0, # of connection points: 2
#     Edge 76, Type (0, 1), BuildingBlock: XIVTED_clean_linker_0, # of connection points: 2
#     Edge 77, Type (0, 1), BuildingBlock: XIVTED_clean_linker_0, # of connection points: 2
#     Edge 78, Type (0, 1), BuildingBlock: XIVTED_clean_linker_0, # of connection points: 2
#     Edge 79, Type (0, 1), BuildingBlock: XIVTED_clean_linker_0, # of connection points: 2
#     Edge 80, Type (0, 1), BuildingBlock: XIVTED_clean_linker_0, # of connection points: 2
# Relax obj value: 0.068
# Max RMSD: 0.210
# Mean RMSD: 0.143
data_MOF--net-eea--node1-CUKXOW_clean_sbu_0--node2-CUQRIR_clean_linker_1--edge1-XIVTED_clean_linker_0
_symmetry_space_group_name_H-M    P1
_symmetry_Int_Tables_number       1
_symmetry_cell_setting            triclinic
loop_
_symmetry_equiv_pos_as_xyz
'x, y, z'
_cell_length_a     54.537289
_cell_length_b     51.863223
_cell_length_c     47.556922
_cell_angle_alpha  86.859102
_cell_angle_beta   93.316212
_cell_angle_gamma 119.07406
loop_
_atom_site_label
_atom_site_type_symbol
_atom_site_fract_x
_atom_site_fract_y
_atom_site_fract_z
_atom_type_partial_charge
C0 C 0.22001 0.12216 0.42166 0.0
N1 N 0.2328 0.14648 0.43767 0.0
N2 N 0.23 0.10324 0.4289 0.0
C3 C 0.19911 0.11769 0.39783 0.0
C4 C 0.2493 0.11691 0.44984 0.0
N5 N 0.25124 0.14329 0.45497 0.0
C6 C 0.26462 0.10341 0.46682 0.0
H7 H 0.17781 0.10761 0.40642 0.0
H8 H 0.19923 0.10272 0.38211 0.0
H9 H 0.20369 0.13909 0.38727 0.0
H10 H 0.28557 0.11148 0.45794 0.0
H11 H 0.253 0.07897 0.46613 0.0
H12 H 0.26773 0.10993 0.48912 0.0
C13 C 0.89546 0.12717 0.44257 0.0
N14 N 0.90795 0.14829 0.46215 0.0
N15 N 0.87234 0.10359 0.45283 0.0
C16 C 0.9066 0.12878 0.41394 0.0
C17 C 0.87121 0.11096 0.47938 0.0
N18 N 0.89297 0.138 0.48522 0.0
C19 C 0.84799 0.09226 0.49911 0.0
H20 H 0.89954 0.14137 0.39917 0.0
H21 H 0.8987 0.10642 0.40565 0.0
H22 H 0.92989 0.14036 0.41482 0.0
H23 H 0.85397 0.07747 0.51184 0.0
H24 H 0.82809 0.07837 0.48721 0.0
H25 H 0.84447 0.10595 0.51377 0.0
C26 C 0.87673 0.74257 0.40517 0.0
N27 N 0.88929 0.73182 0.4241 0.0
N28 N 0.84902 0.73035 0.40986 0.0
C29 C 0.89184 0.76678 0.38351 0.0
C30 C 0.84511 0.71121 0.43188 0.0
N31 N 0.86956 0.71199 0.44061 0.0
C32 C 0.81798 0.69441 0.44708 0.0
H33 H 0.89809 0.7884 0.39274 0.0
H34 H 0.87806 0.76437 0.36467 0.0
H35 H 0.91093 0.76667 0.37679 0.0
H36 H 0.81255 0.67091 0.45004 0.0
H37 H 0.80035 0.69547 0.43523 0.0
H38 H 0.82057 0.70362 0.46825 0.0
C39 C 0.09477 0.20051 0.60433 0.0
N40 N 0.11601 0.21573 0.58657 0.0
N41 N 0.07067 0.19905 0.59353 0.0
C42 C 0.09824 0.19029 0.6338 0.0
C43 C 0.07798 0.2135 0.56828 0.0
N44 N 0.10554 0.22387 0.56409 0.0
C45 C 0.05849 0.21952 0.54876 0.0
H46 H 0.07913 0.16958 0.63963 0.0
H47 H 0.10129 0.20738 0.64876 0.0
H48 H 0.11663 0.18652 0.63581 0.0
H49 H 0.05981 0.24073 0.55408 0.0
H50 H 0.03647 0.20178 0.55114 0.0
H51 H 0.0645 0.22123 0.52655 0.0
C52 C 0.79239 0.90159 0.62005 0.0
N53 N 0.7805 0.87831 0.60271 0.0
N54 N 0.78063 0.91931 0.61514 0.0
C55 C 0.81522 0.90687 0.64201 0.0
C56 C 0.7609 0.90568 0.59448 0.0
N57 N 0.76068 0.88071 0.58703 0.0
C58 C 0.74197 0.91695 0.58123 0.0
H59 H 0.80541 0.89515 0.66192 0.0
H60 H 0.82824 0.93074 0.64608 0.0
H61 H 0.82907 0.89836 0.63559 0.0
H62 H 0.75073 0.92866 0.56098 0.0
H63 H 0.73995 0.93222 0.59514 0.0
H64 H 0.72064 0.89857 0.57669 0.0
C65 C 0.11833 0.92345 0.61929 0.0
N66 N 0.10651 0.89895 0.60348 0.0
N67 N 0.14304 0.94405 0.60867 0.0
C68 C 0.10628 0.92709 0.6455 0.0
C69 C 0.14582 0.93141 0.58586 0.0
N70 N 0.12359 0.90418 0.58252 0.0
C71 C 0.17085 0.94522 0.56744 0.0
H72 H 0.08305 0.91379 0.64476 0.0
H73 H 0.11242 0.95057 0.64824 0.0
H74 H 0.1147 0.91959 0.66407 0.0
H75 H 0.18593 0.93761 0.57517 0.0
H76 H 0.18154 0.96965 0.56815 0.0
H77 H 0.16449 0.93836 0.54533 0.0
C78 C 0.88379 0.44713 0.75739 0.0
N79 N 0.89687 0.47304 0.77105 0.0
N80 N 0.89428 0.4291 0.7666 0.0
C81 C 0.86229 0.44024 0.73365 0.0
C82 C 0.91421 0.44495 0.78628 0.0
N83 N 0.91603 0.47172 0.78877 0.0
C84 C 0.93051 0.43346 0.80456 0.0
H85 H 0.84117 0.43066 0.74257 0.0
H86 H 0.86236 0.42401 0.71944 0.0
H87 H 0.86629 0.46058 0.72124 0.0
H88 H 0.95088 0.44035 0.79486 0.0
H89 H 0.91893 0.40902 0.80656 0.0
H90 H 0.93488 0.44267 0.82592 0.0
C91 C 0.55918 0.45633 0.77086 0.0
N92 N 0.57161 0.48008 0.78762 0.0
N93 N 0.53667 0.43391 0.78327 0.0
C94 C 0.56987 0.45417 0.74309 0.0
C95 C 0.53585 0.44464 0.80827 0.0
N96 N 0.55723 0.4726 0.81113 0.0
C97 C 0.51315 0.42821 0.82915 0.0
H98 H 0.56167 0.46376 0.72611 0.0
H99 H 0.56268 0.43082 0.73826 0.0
H100 H 0.59315 0.46658 0.74327 0.0
H101 H 0.51863 0.41343 0.84256 0.0
H102 H 0.49272 0.41431 0.81808 0.0
H103 H 0.51086 0.44334 0.84304 0.0
C104 C 0.53483 0.06313 0.74292 0.0
N105 N 0.54821 0.05551 0.76379 0.0
N106 N 0.50854 0.05574 0.75012 0.0
C107 C 0.54774 0.07849 0.71559 0.0
C108 C 0.50617 0.04263 0.77601 0.0
N109 N 0.5302 0.0422 0.7842 0.0
C110 C 0.48206 0.03468 0.79491 0.0
H111 H 0.56028 0.1026 0.71862 0.0
H112 H 0.53123 0.07443 0.69897 0.0
H113 H 0.56205 0.07068 0.70867 0.0
H114 H 0.46311 0.01524 0.78645 0.0
H115 H 0.47728 0.05318 0.795 0.0
H116 H 0.48632 0.0294 0.81692 0.0
C117 C 0.79104 0.59576 0.96889 0.0
N118 N 0.80875 0.60481 0.94736 0.0
N119 N 0.77225 0.6056 0.96471 0.0
C120 C 0.79288 0.57854 0.9947 0.0
C121 C 0.77931 0.62118 0.93994 0.0
N122 N 0.80184 0.62107 0.92965 0.0
C123 C 0.76233 0.63361 0.92436 0.0
H124 H 0.78157 0.55465 0.99025 0.0
H125 H 0.78321 0.58226 0.01285 0.0
H126 H 0.8151 0.58492 1.00035 0.0
H127 H 0.76869 0.6557 0.93252 0.0
H128 H 0.7396 0.61926 0.9278 0.0
H129 H 0.76581 0.63604 0.9014 0.0
C130 C 0.4558 0.24525 0.95517 0.0
N131 N 0.44416 0.22039 0.93998 0.0
N132 N 0.44307 0.26173 0.94838 0.0
C133 C 0.47949 0.25337 0.97677 0.0
C134 C 0.42301 0.24576 0.92879 0.0
N135 N 0.42353 0.22055 0.9238 0.0
C136 C 0.4031 0.25499 0.91412 0.0
H137 H 0.47055 0.2437 0.99757 0.0
H138 H 0.49214 0.27767 0.97848 0.0
H139 H 0.49353 0.24462 0.97156 0.0
H140 H 0.41042 0.26363 0.89259 0.0
H141 H 0.40168 0.27214 0.92572 0.0
H142 H 0.38168 0.23597 0.91209 0.0
C143 C 0.80226 0.25684 0.96587 0.0
N144 N 0.78785 0.23195 0.95081 0.0
N145 N 0.82682 0.27559 0.95367 0.0
C146 C 0.79259 0.26268 0.99261 0.0
C147 C 0.82671 0.26146 0.93058 0.0
N148 N 0.80301 0.23513 0.9287 0.0
C149 C 0.84999 0.27323 0.91004 0.0
H150 H 0.76936 0.25246 0.9922 0.0
H151 H 0.80194 0.28664 0.99602 0.0
H152 H 0.79927 0.25284 0.0107 0.0
H153 H 0.86518 0.26554 0.91705 0.0
H154 H 0.86127 0.29772 0.90922 0.0
H155 H 0.84177 0.265 0.88861 0.0
C156 C 0.55323 0.79399 0.08739 0.0
N157 N 0.56627 0.81899 0.10239 0.0
N158 N 0.56266 0.77496 0.09609 0.0
C159 C 0.53275 0.78897 0.06298 0.0
C160 C 0.58195 0.78927 0.11684 0.0
N161 N 0.58437 0.81615 0.12048 0.0
C162 C 0.59674 0.77603 0.13509 0.0
H163 H 0.51128 0.7792 0.07109 0.0
H164 H 0.53311 0.77352 0.04798 0.0
H165 H 0.53759 0.81009 0.05165 0.0
H166 H 0.61756 0.78299 0.12637 0.0
H167 H 0.5846 0.75157 0.13561 0.0
H168 H 0.60011 0.78384 0.15695 0.0
C169 C 0.22493 0.80786 0.09346 0.0
N170 N 0.23793 0.82985 0.11215 0.0
N171 N 0.20179 0.78496 0.10457 0.0
C172 C 0.23595 0.80761 0.06524 0.0
C173 C 0.20117 0.79364 0.1307 0.0
N174 N 0.2232 0.82076 0.13542 0.0
C175 C 0.17849 0.77601 0.15127 0.0
H176 H 0.22858 0.81901 0.04933 0.0
H177 H 0.22822 0.78471 0.0585 0.0
H178 H 0.25924 0.81938 0.06593 0.0
H179 H 0.18494 0.76214 0.16493 0.0
H180 H 0.15837 0.76131 0.14011 0.0
H181 H 0.17521 0.79062 0.16497 0.0
C182 C 0.25928 0.50548 0.13905 0.0
N183 N 0.26776 0.48839 0.15458 0.0
N184 N 0.23472 0.50185 0.14818 0.0
C185 C 0.27219 0.52114 0.11176 0.0
C186 C 0.22905 0.48244 0.17024 0.0
N187 N 0.2487 0.47369 0.17377 0.0
C188 C 0.20227 0.46916 0.18607 0.0
H189 H 0.26172 0.53328 0.10194 0.0
H190 H 0.27091 0.5048 0.0968 0.0
H191 H 0.29471 0.53707 0.11564 0.0
H192 H 0.19343 0.48448 0.1854 0.0
H193 H 0.20616 0.46401 0.2083 0.0
H194 H 0.18663 0.44828 0.17625 0.0
C195 C 0.47832 0.97673 0.31998 0.0
N196 N 0.49883 0.98566 0.30116 0.0
N197 N 0.46186 0.98924 0.31364 0.0
C198 C 0.47274 0.95379 0.34319 0.0
C199 C 0.47374 1.00682 0.29072 0.0
N200 N 0.4962 1.00468 0.28307 0.0
C201 C 0.46116 0.02309 0.2736 0.0
H202 H 0.46522 0.95912 0.36202 0.0
H203 H 0.49192 0.95228 0.34944 0.0
H204 H 0.45612 0.93202 0.33583 0.0
H205 H 0.44457 0.02416 0.28512 0.0
H206 H 0.4521 0.01181 0.25344 0.0
H207 H 0.47773 0.04589 0.26849 0.0
C208 C 0.12456 0.57085 0.29295 0.0
N209 N 0.11589 0.54963 0.2735 0.0
N210 N 0.12467 0.5954 0.28154 0.0
C211 C 0.13469 0.5684 0.32256 0.0
C212 C 0.11597 0.58852 0.25443 0.0
N213 N 0.11088 0.56086 0.24941 0.0
C214 C 0.11134 0.6084 0.23309 0.0
H215 H 0.11626 0.55603 0.33596 0.0
H216 H 0.14816 0.59048 0.33148 0.0
H217 H 0.14665 0.55611 0.32312 0.0
H218 H 0.12965 0.61918 0.21933 0.0
H219 H 0.10906 0.62576 0.24341 0.0
H220 H 0.09238 0.59551 0.21953 0.0
C221 C 0.45304 0.5972 0.28331 0.0
N222 N 0.43998 0.57234 0.26801 0.0
N223 N 0.47983 0.61443 0.27525 0.0
C224 C 0.44066 0.60343 0.30781 0.0
C225 C 0.48267 0.59921 0.25464 0.0
N226 N 0.45863 0.5736 0.2504 0.0
C227 C 0.50856 0.60995 0.23776 0.0
H228 H 0.42866 0.61468 0.29983 0.0
H229 H 0.45733 0.61806 0.3229 0.0
H230 H 0.42614 0.58264 0.31904 0.0
H231 H 0.52183 0.60088 0.24761 0.0
H232 H 0.52096 0.6344 0.23731 0.0
H233 H 0.50295 0.60224 0.21583 0.0
Tb234 Tb 0.54431 0.05064 0.02797 0.0
C235 C 0.52536 0.9826 0.044 0.0
Tb236 Tb 0.48152 1.00546 0.03439 0.0
O237 O 0.54457 0.0708 0.06737 0.0
O238 O 0.51772 0.02628 0.06112 0.0
O239 O 0.54541 1.00859 0.03424 0.0
C240 C 0.42949 0.97494 0.05394 0.0
O241 O 0.49942 0.9774 0.04807 0.0
C242 C 0.50237 1.00837 0.98533 0.0
C243 C 0.49968 0.07252 0.0165 0.0
O244 O 0.43587 0.97838 0.02759 0.0
O245 O 0.4524 0.98874 0.06921 0.0
O246 O 0.48133 0.98447 0.99535 0.0
O247 O 0.5084 0.0292 1.0014 0.0
O248 O 0.48055 0.04734 0.02839 0.0
O249 O 0.52549 0.07754 0.01172 0.0
C250 C 0.59736 0.08219 0.01139 0.0
O251 O 0.58886 0.0817 0.03642 0.0
O252 O 0.57601 0.06474 0.99568 0.0
C253 C 0.52422 0.04671 0.07788 0.0
Tb254 Tb 0.99839 0.54303 0.01351 0.0
C255 C 0.05995 0.59031 0.02819 0.0
Tb256 Tb 0.04416 0.5247 0.0136 0.0
O257 O 0.00237 0.54882 0.05936 0.0
O258 O 0.01376 0.52062 0.04158 0.0
O259 O 0.03535 0.58612 0.01748 0.0
C260 C 0.08657 0.51469 0.02813 0.0
O261 O 0.06613 0.56853 0.03179 0.0
C262 C 0.02711 0.53357 0.96321 0.0
C263 C 0.98182 0.47673 1.00156 0.0
O264 O 0.0887 0.53781 0.01418 0.0
O265 O 0.06045 0.49687 0.03344 0.0
O266 O 0.03975 0.51799 0.96813 0.0
O267 O 0.02858 0.54668 0.98534 0.0
O268 O 0.00686 0.48127 0.01149 0.0
O269 O 0.97571 0.49852 0.99725 0.0
C270 C 0.95889 0.55699 0.99673 0.0
O271 O 0.95482 0.53402 0.01236 0.0
O272 O 0.9852 0.57232 0.99101 0.0
C273 C 0.01496 0.53311 0.064 0.0
Tb274 Tb 0.46453 0.50458 0.0265 0.0
C275 C 0.48312 0.45738 0.0155 0.0
Tb276 Tb 0.52764 0.52245 0.03273 0.0
O277 O 0.46236 0.50021 0.98056 0.0
O278 O 0.50034 0.52659 1.00178 0.0
O279 O 0.46196 0.46184 0.02133 0.0
C280 C 0.5812 0.53981 0.02518 0.0
O281 O 0.50982 0.47834 0.01606 0.0
C282 C 0.50253 0.51336 0.08042 0.0
C283 C 0.50996 0.57074 0.04043 0.0
O284 O 0.56424 0.51574 0.03869 0.0
O285 O 0.56791 0.5536 0.01554 0.0
O286 O 0.52952 0.52861 0.07815 0.0
O287 O 0.49183 0.50068 0.05757 0.0
O288 O 0.53031 0.56555 0.03347 0.0
O289 O 0.48342 0.54958 0.04201 0.0
C290 C 0.41304 0.48981 0.04184 0.0
O291 O 0.42884 0.51284 0.02633 0.0
O292 O 0.426 0.47476 0.04794 0.0
C293 C 0.48955 0.51487 0.97851 0.0
Tb294 Tb 0.20743 0.37487 0.3582 0.0
C295 C 0.1926 0.3116 0.38487 0.0
Tb296 Tb 0.14492 0.3302 0.37092 0.0
O297 O 0.21918 0.38222 0.40265 0.0
O298 O 0.17814 0.36897 0.38872 0.0
O299 O 0.21165 0.33582 0.37136 0.0
C300 C 0.09518 0.29521 0.39444 0.0
O301 O 0.16628 0.30597 0.38801 0.0
C302 C 0.161 0.33034 0.31943 0.0
C303 C 0.159 0.39095 0.3428 0.0
O304 O 0.09883 0.30579 0.36875 0.0
O305 O 0.11963 0.30405 0.40691 0.0
O306 O 0.1352 0.32195 0.32535 0.0
O307 O 0.17496 0.33526 0.34214 0.0
O308 O 0.14347 0.37113 0.36219 0.0
O309 O 0.18269 0.39267 0.33466 0.0
C310 C 0.25536 0.4147 0.33466 0.0
O311 O 0.23877 0.42056 0.34819 0.0
O312 O 0.24518 0.38627 0.33464 0.0
C313 C 0.19366 0.37238 0.41053 0.0
Tb314 Tb 0.65992 0.87813 0.34994 0.0
C315 C 0.72404 0.91818 0.36563 0.0
Tb316 Tb 0.69936 0.8508 0.35008 0.0
O317 O 0.66426 0.88281 0.39593 0.0
O318 O 0.67042 0.85116 0.37727 0.0
O319 O 0.70039 0.91775 0.35625 0.0
C320 C 0.73253 0.82732 0.36316 0.0
O321 O 0.72728 0.89434 0.36696 0.0
C322 C 0.68477 0.86359 0.30009 0.0
C323 C 0.63513 0.81019 0.33656 0.0
O324 O 0.73637 0.84636 0.34268 0.0
O325 O 0.71021 0.82168 0.37632 0.0
O326 O 0.69305 0.8441 0.30477 0.0
O327 O 0.68857 0.87752 0.32229 0.0
O328 O 0.65881 0.81111 0.34644 0.0
O329 O 0.63224 0.83423 0.33313 0.0
C330 C 0.62594 0.90029 0.33438 0.0
O331 O 0.61945 0.8773 0.35095 0.0
O332 O 0.65159 0.91089 0.32669 0.0
C333 C 0.6733 0.86383 0.40003 0.0
Tb334 Tb 0.14015 0.83252 0.36319 0.0
C335 C 0.16461 0.78731 0.35962 0.0
Tb336 Tb 0.20611 0.85574 0.3705 0.0
O337 O 0.1445 0.84895 0.31888 0.0
O338 O 0.17385 0.83923 0.33878 0.0
O339 O 0.1421 0.79116 0.36064 0.0
C340 C 0.25957 0.88154 0.35725 0.0
O341 O 0.19103 0.80935 0.36168 0.0
C342 C 0.18094 0.84642 0.41905 0.0
C343 C 0.18191 0.90004 0.37405 0.0
O344 O 0.24878 0.86265 0.37814 0.0
O345 O 0.24025 0.88557 0.34376 0.0
O346 O 0.20758 0.85496 0.4175 0.0
O347 O 0.17154 0.84394 0.39423 0.0
O348 O 0.20335 0.89647 0.3672 0.0
O349 O 0.15622 0.87748 0.37768 0.0
C350 C 0.08632 0.80611 0.37662 0.0
O351 O 0.09827 0.8286 0.35918 0.0
O352 O 0.10454 0.79817 0.38603 0.0
C353 C 0.16913 0.85094 0.31687 0.0
Tb354 Tb 0.87115 0.69819 0.68115 0.0
C355 C 0.85334 0.63295 0.70297 0.0
Tb356 Tb 0.8071 0.6538 0.68914 0.0
O357 O 0.88037 0.69934 0.72639 0.0
O358 O 0.84021 0.68948 0.7106 0.0
O359 O 0.87334 0.65761 0.69109 0.0
C360 C 0.75724 0.62056 0.71282 0.0
O361 O 0.82713 0.6279 0.7055 0.0
C362 C 0.82483 0.66087 0.63775 0.0
C363 C 0.82446 0.71803 0.66523 0.0
O364 O 0.76474 0.61516 0.68933 0.0
O365 O 0.77775 0.6446 0.72284 0.0
O366 O 0.79862 0.65121 0.64322 0.0
O367 O 0.83838 0.66215 0.66041 0.0
O368 O 0.80487 0.69393 0.67803 0.0
O369 O 0.85054 0.72283 0.6623 0.0
C370 C 0.92223 0.73618 0.66302 0.0
O371 O 0.91044 0.73981 0.68426 0.0
O372 O 0.90527 0.71102 0.65181 0.0
C373 C 0.85454 0.69013 0.73266 0.0
Tb374 Tb 0.32188 0.20588 0.68739 0.0
C375 C 0.38554 0.24524 0.70401 0.0
Tb376 Tb 0.36063 0.17759 0.68966 0.0
O377 O 0.32671 0.21261 0.73296 0.0
O378 O 0.33167 0.17919 0.71603 0.0
O379 O 0.36259 0.24513 0.6928 0.0
C380 C 0.39298 0.15331 0.70334 0.0
O381 O 0.38793 0.22092 0.70759 0.0
C382 C 0.34689 0.18954 0.63883 0.0
C383 C 0.29603 0.13714 0.67697 0.0
O384 O 0.40049 0.1773 0.68802 0.0
O385 O 0.36754 0.14337 0.71135 0.0
O386 O 0.35562 0.17054 0.6442 0.0
O387 O 0.35037 0.20367 0.66078 0.0
O388 O 0.31987 0.13811 0.68632 0.0
O389 O 0.293 0.16106 0.67372 0.0
C390 C 0.28914 0.22815 0.66774 0.0
O391 O 0.28498 0.21172 0.6905 0.0
O392 O 0.31187 0.23234 0.65638 0.0
C393 C 0.33475 0.1929 0.73819 0.0
Tb394 Tb 0.8009 0.15654 0.70859 0.0
C395 C 0.81904 0.10976 0.69464 0.0
Tb396 Tb 0.86437 0.17453 0.71326 0.0
O397 O 0.79824 0.15297 0.66242 0.0
O398 O 0.83638 0.17878 0.68344 0.0
O399 O 0.798 0.11411 0.70101 0.0
C400 C 0.91604 0.18625 0.70253 0.0
O401 O 0.84574 0.13062 0.69571 0.0
C402 C 0.8403 0.16478 0.76149 0.0
C403 C 0.8466 0.22299 0.72164 0.0
O404 O 0.89815 0.1633 0.71668 0.0
O405 O 0.90498 0.20285 0.69479 0.0
O406 O 0.86727 0.1801 0.7588 0.0
O407 O 0.82907 0.1525 0.73854 0.0
O408 O 0.86709 0.21781 0.71475 0.0
O409 O 0.81998 0.20182 0.72338 0.0
C410 C 0.74857 0.13711 0.72421 0.0
O411 O 0.7622 0.15979 0.70734 0.0
O412 O 0.76437 0.1256 0.7321 0.0
C413 C 0.82538 0.16765 0.66004 0.0
H414 H 0.24971 0.87041 0.06982 0.0
H415 H 0.41475 0.95713 0.1085 0.0
H416 H 0.28575 0.84958 0.14458 0.0
H417 H 0.37936 0.95244 0.02427 0.0
H418 H 0.36722 0.9257 0.12579 0.0
H419 H 0.29659 0.90941 0.05708 0.0
C420 C 0.26754 0.87457 0.08382 0.0
C421 C 0.26403 0.85675 0.10813 0.0
C422 C 0.36989 0.93172 0.10357 0.0
C423 C 0.31769 0.9011 0.09375 0.0
C424 C 0.39695 0.94966 0.0937 0.0
C425 C 0.40094 0.95722 0.06489 0.0
C426 C 0.34665 0.92168 0.08453 0.0
C427 C 0.3772 0.94698 0.04661 0.0
C428 C 0.29426 0.89664 0.0765 0.0
C429 C 0.28766 0.86303 0.12576 0.0
N430 N 0.3511 0.92977 0.05673 0.0
N431 N 0.31359 0.88454 0.1181 0.0
H432 H 0.19111 0.4569 0.12278 0.0
H433 H 0.14088 0.55807 0.03341 0.0
H434 H 0.23149 0.55098 0.13199 0.0
H435 H 0.08552 0.46626 0.05412 0.0
H436 H 0.17847 0.55546 0.06214 0.0
H437 H 0.15573 0.45965 0.09068 0.0
C438 C 0.19215 0.47809 0.11817 0.0
C439 C 0.2136 0.50371 0.13025 0.0
C440 C 0.15815 0.53588 0.06015 0.0
C441 C 0.17406 0.50723 0.09314 0.0
C442 C 0.13685 0.53725 0.0436 0.0
C443 C 0.11023 0.51229 0.04152 0.0
C444 C 0.15271 0.50927 0.07423 0.0
C445 C 0.10584 0.48594 0.05527 0.0
C446 C 0.1722 0.4797 0.09981 0.0
C447 C 0.21487 0.53084 0.1232 0.0
N448 N 0.12693 0.4851 0.07111 0.0
N449 N 0.19528 0.53197 0.10493 0.0
H450 H 0.50992 0.72898 0.09257 0.0
H451 H 0.56164 0.62012 0.03863 0.0
H452 H 0.596 0.75527 0.07704 0.0
H453 H 0.47543 0.59143 0.05739 0.0
H454 H 0.57397 0.67015 0.05056 0.0
H455 H 0.49611 0.67899 0.07746 0.0
C456 C 0.5258 0.72415 0.08571 0.0
C457 C 0.55407 0.74601 0.08602 0.0
C458 C 0.55233 0.65296 0.05202 0.0
C459 C 0.53871 0.68918 0.069 0.0
C460 C 0.54523 0.62429 0.04519 0.0
C461 C 0.51741 0.60139 0.04702 0.0
C462 C 0.53152 0.65897 0.06081 0.0
C463 C 0.49714 0.60833 0.05566 0.0
C464 C 0.51801 0.69569 0.07725 0.0
C465 C 0.57403 0.73882 0.07725 0.0
N466 N 0.50461 0.63648 0.06227 0.0
N467 N 0.56599 0.71102 0.06915 0.0
H468 H 0.82288 0.32517 0.95612 0.0
H469 H 0.98448 0.42483 1.00545 0.0
H470 H 0.87992 0.29036 0.9708 0.0
H471 H 0.92771 0.4592 0.98327 0.0
H472 H 0.94642 0.37511 0.99513 0.0
H473 H 0.8608 0.37424 0.96876 0.0
C474 C 0.84342 0.32798 0.96241 0.0
C475 C 0.84841 0.30395 0.96286 0.0
C476 C 0.94236 0.39359 0.99254 0.0
C477 C 0.89203 0.3598 0.97681 0.0
C478 C 0.96409 0.42199 0.99842 0.0
C479 C 0.95939 0.44634 0.99523 0.0
C480 C 0.91572 0.38949 0.9835 0.0
C481 C 0.93246 0.44122 0.98605 0.0
C482 C 0.8651 0.35591 0.96943 0.0
C483 C 0.87542 0.30853 0.97049 0.0
N484 N 0.91174 0.41346 0.98057 0.0
N485 N 0.89628 0.33595 0.97719 0.0
H486 H 0.73381 0.54984 0.97831 0.0
H487 H 0.61966 0.59458 0.0079 0.0
H488 H 0.75374 0.64056 0.98443 0.0
H489 H 0.61017 0.50935 0.03417 0.0
H490 H 0.66893 0.61188 0.99911 0.0
H491 H 0.68866 0.5341 0.99938 0.0
C492 C 0.7288 0.5664 0.98473 0.0
C493 C 0.74722 0.59646 0.97976 0.0
C494 C 0.6562 0.5895 0.00711 0.0
C495 C 0.69567 0.57881 1.00295 0.0
C496 C 0.62809 0.57958 0.01193 0.0
C497 C 0.61102 0.55048 0.02145 0.0
C498 C 0.66705 0.56996 0.01138 0.0
C499 C 0.6228 0.53192 0.02665 0.0
C500 C 0.70309 0.55747 0.9966 0.0
C501 C 0.73976 0.61718 0.98776 0.0
N502 N 0.65016 0.54188 0.02115 0.0
N503 N 0.71429 0.60796 0.99867 0.0
H504 H 0.48984 0.21743 0.92559 0.0
H505 H 0.44884 0.07069 0.02129 0.0
H506 H 0.41124 0.16876 0.96663 0.0
H507 H 0.52986 0.12324 0.98472 0.0
H508 H 0.4335 0.10433 0.9991 0.0
H509 H 0.50313 0.18028 0.9432 0.0
C510 C 0.47518 0.19842 0.93778 0.0
C511 C 0.44948 0.19588 0.94472 0.0
C512 C 0.45465 0.10854 0.99596 0.0
C513 C 0.46454 0.15376 0.96551 0.0
C514 C 0.46351 0.08938 0.00877 0.0
C515 C 0.49079 0.0941 1.00504 0.0
C516 C 0.47311 0.13264 0.97916 0.0
C517 C 0.50871 0.11871 0.98839 0.0
C518 C 0.4828 0.17742 0.94808 0.0
C519 C 0.43115 0.17118 0.96077 0.0
N520 N 0.49956 0.13696 0.97607 0.0
N521 N 0.43911 0.15118 0.97087 0.0
H522 H 0.74062 0.2071 0.91752 0.0
H523 H 0.64469 0.11254 0.04409 0.0
H524 H 0.77464 0.19958 0.99957 0.0
H525 H 0.61564 0.09513 0.95739 0.0
H526 H 0.69211 0.14616 0.0283 0.0
H527 H 0.69437 0.16718 0.93118 0.0
C528 C 0.73839 0.19663 0.93822 0.0
C529 C 0.76132 0.20661 0.95752 0.0
C530 C 0.67544 0.13482 0.0127 0.0
C531 C 0.70856 0.16171 0.97362 0.0
C532 C 0.64838 0.1157 0.02171 0.0
C533 C 0.6263 0.10112 1.002 0.0
C534 C 0.68039 0.13981 0.98372 0.0
C535 C 0.63217 0.10596 0.97325 0.0
C536 C 0.71202 0.17404 0.9461 0.0
C537 C 0.75731 0.19278 0.98431 0.0
N538 N 0.65862 0.12515 0.96493 0.0
N539 N 0.73138 0.17128 0.9917 0.0
H540 H 0.86374 0.6433 0.94246 0.0
H541 H 0.9025 0.52092 0.99778 0.0
H542 H 0.80366 0.55072 0.94602 0.0
H543 H 0.96544 0.60695 0.96858 0.0
H544 H 0.86598 0.53158 0.97783 0.0
H545 H 0.90193 0.63095 0.949 0.0
C546 C 0.85879 0.62037 0.94386 0.0
C547 C 0.83087 0.59792 0.94427 0.0
C548 C 0.88778 0.54807 0.97557 0.0
C549 C 0.87373 0.58362 0.95238 0.0
C550 C 0.90855 0.54208 0.98719 0.0
C551 C 0.93684 0.56326 0.98504 0.0
C552 C 0.89542 0.57561 0.96212 0.0
C553 C 0.94374 0.59019 0.97082 0.0
C554 C 0.88042 0.6133 0.94777 0.0
C555 C 0.82512 0.56851 0.9462 0.0
N556 N 0.92311 0.59578 0.96012 0.0
N557 N 0.84638 0.56216 0.95072 0.0
H558 H 0.45322 0.31066 0.91688 0.0
H559 H 0.50911 0.42603 0.0346 0.0
H560 H 0.44904 0.27794 1.00271 0.0
H561 H 0.4433 0.42217 0.97727 0.0
H562 H 0.49932 0.37725 0.01911 0.0
H563 H 0.46187 0.35827 0.93422 0.0
C564 C 0.45415 0.31357 0.93936 0.0
C565 C 0.45004 0.29032 0.95843 0.0
C566 C 0.48704 0.38716 0.0101 0.0
C567 C 0.46102 0.34471 0.97822 0.0
C568 C 0.4926 0.41483 0.0188 0.0
C569 C 0.47679 0.4278 0.00725 0.0
C570 C 0.4663 0.37309 0.98902 0.0
C571 C 0.45569 0.41262 0.98681 0.0
C572 C 0.45912 0.3406 0.94916 0.0
C573 C 0.45222 0.29539 0.98739 0.0
N574 N 0.4513 0.38616 0.97796 0.0
N575 N 0.4578 0.3222 0.99649 0.0
H576 H 0.17187 0.7791 0.0559 0.0
H577 H 0.05952 0.64269 0.01781 0.0
H578 H 0.18701 0.72948 0.12356 0.0
H579 H 0.10821 0.60594 0.06029 0.0
H580 H 0.09389 0.69132 0.03455 0.0
H581 H 0.13716 0.73271 0.03452 0.0
C582 C 0.16772 0.75829 0.06617 0.0
C583 C 0.18197 0.75786 0.0915 0.0
C584 C 0.09738 0.67277 0.03978 0.0
C585 C 0.14203 0.70481 0.0678 0.0
C586 C 0.07756 0.64487 0.03044 0.0
C587 C 0.08103 0.62016 0.03747 0.0
C588 C 0.12082 0.676 0.05641 0.0
C589 C 0.10476 0.62436 0.0541 0.0
C590 C 0.14772 0.73185 0.05424 0.0
C591 C 0.17611 0.73052 0.10414 0.0
N592 N 0.12361 0.65168 0.06316 0.0
N593 N 0.15664 0.70505 0.09211 0.0
H594 H 0.26171 0.43899 0.13174 0.0
H595 H 0.39953 0.53232 0.05148 0.0
H596 H 0.32279 0.52603 0.1575 0.0
H597 H 0.37382 0.44036 0.06907 0.0
H598 H 0.36518 0.52895 0.08441 0.0
H599 H 0.29783 0.43644 0.10511 0.0
C600 C 0.28305 0.45697 0.13275 0.0
C601 C 0.28964 0.48264 0.14693 0.0
C602 C 0.36698 0.50949 0.08089 0.0
C603 C 0.3301 0.48067 0.11555 0.0
C604 C 0.3862 0.51127 0.06183 0.0
C605 C 0.38924 0.48651 0.05752 0.0
C606 C 0.35034 0.48263 0.09523 0.0
C607 C 0.37186 0.45986 0.07182 0.0
C608 C 0.30346 0.45571 0.1173 0.0
C609 C 0.31724 0.50586 0.1469 0.0
N610 N 0.35288 0.4585 0.09001 0.0
N611 N 0.33639 0.50466 0.13084 0.0
H612 H 0.60569 0.87512 0.09003 0.0
H613 H 0.48945 0.92683 0.06316 0.0
H614 H 0.51777 0.82035 0.10497 0.0
H615 H 0.57688 0.98411 0.04587 0.0
H616 H 0.50051 0.88863 0.08017 0.0
H617 H 0.59698 0.91665 0.0766 0.0
C618 C 0.58467 0.87212 0.09091 0.0
C619 C 0.56234 0.84448 0.09842 0.0
C620 C 0.51737 0.9095 0.07268 0.0
C621 C 0.55206 0.89126 0.08281 0.0
C622 C 0.51105 0.93144 0.06282 0.0
C623 C 0.53225 0.95889 0.05295 0.0
C624 C 0.54516 0.91475 0.07276 0.0
C625 C 0.55982 0.9633 0.05315 0.0
C626 C 0.57963 0.89562 0.08305 0.0
C627 C 0.53541 0.84136 0.09905 0.0
N628 N 0.56549 0.94145 0.06291 0.0
N629 N 0.531 0.86437 0.09118 0.0
H630 H 0.95641 0.1651 0.49277 0.0
H631 H 0.04366 0.2814 0.37128 0.0
H632 H 0.9191 0.19196 0.42325 0.0
H633 H 0.08378 0.26699 0.44666 0.0
H634 H 0.99795 0.25015 0.39162 0.0
H635 H 0.00315 0.20446 0.47907 0.0
C636 C 0.95809 0.17994 0.47515 0.0
C637 C 0.93405 0.17541 0.45904 0.0
C638 C 0.01667 0.25387 0.40388 0.0
C639 C 0.98716 0.21971 0.44266 0.0
C640 C 0.04282 0.27165 0.39219 0.0
C641 C 0.06753 0.27664 0.40722 0.0
C642 C 0.01503 0.2406 0.43081 0.0
C643 C 0.06518 0.26357 0.43431 0.0
C644 C 0.98471 0.20214 0.46711 0.0
C645 C 0.93722 0.19479 0.43609 0.0
N646 N 0.03938 0.24594 0.44517 0.0
N647 N 0.96324 0.21578 0.42837 0.0
H648 H 0.82737 0.73383 0.35795 0.0
H649 H 0.73543 0.79996 0.41247 0.0
H650 H 0.83197 0.75733 0.44428 0.0
H651 H 0.76892 0.82283 0.32929 0.0
H652 H 0.7639 0.77569 0.42346 0.0
H653 H 0.79907 0.75847 0.34552 0.0
C654 C 0.82232 0.74417 0.37417 0.0
C655 C 0.83172 0.74361 0.4021 0.0
C656 C 0.76502 0.78608 0.40283 0.0
C657 C 0.79935 0.77096 0.38843 0.0
C658 C 0.7488 0.79982 0.39655 0.0
C659 C 0.75005 0.8134 0.37003 0.0
C660 C 0.78206 0.78542 0.38219 0.0
C661 C 0.76763 0.8127 0.35006 0.0
C662 C 0.80631 0.75814 0.36716 0.0
C663 C 0.82467 0.75705 0.42259 0.0
N664 N 0.78287 0.79866 0.35647 0.0
N665 N 0.80869 0.77 0.41541 0.0
H666 H 0.26443 0.08686 0.40658 0.0
H667 H 0.14533 0.91782 0.39173 0.0
H668 H 0.1781 0.05556 0.42544 0.0
H669 H 0.23135 0.95189 0.36878 0.0
H670 H 0.15602 0.96795 0.40252 0.0
H671 H 0.25198 0.03763 0.39084 0.0
C672 C 0.24278 0.06951 0.40716 0.0
C673 C 0.22224 0.07506 0.4173 0.0
C674 C 0.17249 0.96444 0.39498 0.0
C675 C 0.20769 0.01861 0.39956 0.0
C676 C 0.16641 0.93579 0.38878 0.0
C677 C 0.18747 0.93046 0.37939 0.0
C678 C 0.19986 0.988 0.39183 0.0
C679 C 0.2144 0.95474 0.37604 0.0
C680 C 0.23563 0.04144 0.39821 0.0
C681 C 0.19444 0.05204 0.41759 0.0
N682 N 0.2198 0.98231 0.38235 0.0
N683 N 0.18797 0.02472 0.40904 0.0
H684 H 0.53065 0.62605 0.29725 0.0
H685 H 0.58244 0.79787 0.316 0.0
H686 H 0.47735 0.66499 0.27895 0.0
H687 H 0.63286 0.75614 0.3394 0.0
H688 H 0.54354 0.74977 0.30283 0.0
H689 H 0.56813 0.6737 0.31353 0.0
C690 C 0.52695 0.64477 0.29682 0.0
C691 C 0.50112 0.64185 0.28671 0.0
C692 C 0.56309 0.75116 0.31093 0.0
C693 C 0.54372 0.69645 0.30517 0.0
C694 C 0.58537 0.77865 0.31845 0.0
C695 C 0.61108 0.78118 0.32883 0.0
C696 C 0.56653 0.72597 0.31372 0.0
C697 C 0.61353 0.7554 0.3315 0.0
C698 C 0.54824 0.67193 0.30611 0.0
C699 C 0.49705 0.66653 0.28672 0.0
N700 N 0.59162 0.72899 0.32394 0.0
N701 N 0.51821 0.6929 0.29565 0.0
H702 H 0.4409 0.98696 0.36461 0.0
H703 H 0.28212 0.90967 0.30798 0.0
H704 H 0.41716 0.96146 0.27841 0.0
H705 H 0.3045 0.89023 0.39185 0.0
H706 H 0.33206 0.93793 0.29764 0.0
H707 H 0.39086 0.9604 0.37624 0.0
C708 C 0.42508 0.97594 0.3482 0.0
C709 C 0.43287 0.97635 0.32057 0.0
C710 C 0.32599 0.92744 0.31829 0.0
C711 C 0.37629 0.94674 0.33336 0.0
C712 C 0.29761 0.91138 0.32417 0.0
C713 C 0.2894 0.89756 0.3507 0.0
C714 C 0.34618 0.93018 0.3393 0.0
C715 C 0.31015 0.90042 0.37105 0.0
C716 C 0.39673 0.96086 0.35478 0.0
C717 C 0.4118 0.96199 0.29985 0.0
N718 N 0.33774 0.91667 0.365 0.0
N719 N 0.38442 0.94787 0.30662 0.0
H720 H 0.14673 0.53196 0.2458 0.0
H721 H 0.11452 0.39796 0.35703 0.0
H722 H 0.08716 0.50558 0.31122 0.0
H723 H 0.18198 0.43135 0.29892 0.0
H724 H 0.10021 0.433 0.3364 0.0
H725 H 0.15516 0.49048 0.26003 0.0
C726 C 0.13488 0.51686 0.26265 0.0
C727 C 0.11623 0.52201 0.27738 0.0
C728 C 0.1181 0.43262 0.32807 0.0
C729 C 0.12609 0.47505 0.29428 0.0
C730 C 0.12633 0.41258 0.33989 0.0
C731 C 0.1497 0.41178 0.32994 0.0
C732 C 0.13321 0.45208 0.30598 0.0
C733 C 0.164 0.43129 0.30752 0.0
C734 C 0.13991 0.49345 0.27102 0.0
C735 C 0.10171 0.50224 0.29942 0.0
N736 N 0.1556 0.45065 0.29639 0.0
N737 N 0.1071 0.47981 0.30735 0.0
H738 H 0.42527 0.51464 0.2768 0.0
H739 H 0.27304 0.47329 0.32623 0.0
H740 H 0.39156 0.57456 0.26874 0.0
H741 H 0.29668 0.40691 0.31268 0.0
H742 H 0.31674 0.51067 0.30561 0.0
H743 H 0.37874 0.47451 0.28945 0.0
C744 C 0.40789 0.51915 0.27718 0.0
C745 C 0.41215 0.54788 0.2719 0.0
C746 C 0.31238 0.48792 0.30696 0.0
C747 C 0.3592 0.50249 0.287 0.0
C748 C 0.28747 0.4666 0.31885 0.0
C749 C 0.28139 0.43705 0.32133 0.0
C750 C 0.33161 0.47976 0.2978 0.0
C751 C 0.3007 0.42953 0.31124 0.0
C752 C 0.38142 0.49635 0.28458 0.0
C753 C 0.38912 0.55276 0.27308 0.0
N754 N 0.32511 0.45081 0.30015 0.0
N755 N 0.36373 0.53041 0.28081 0.0
H756 H 0.55534 0.01638 0.29979 0.0
H757 H 0.56945 0.87391 0.3399 0.0
H758 H 0.48512 0.92846 0.29702 0.0
H759 H 0.6397 0.95395 0.30901 0.0
H760 H 0.53844 0.89458 0.32636 0.0
H761 H 0.58742 0.99535 0.30377 0.0
C762 C 0.54683 0.99268 0.29963 0.0
C763 C 0.51776 0.97399 0.29888 0.0
C764 C 0.56061 0.90756 0.32233 0.0
C765 C 0.55377 0.94986 0.30376 0.0
C766 C 0.57829 0.89584 0.33021 0.0
C767 C 0.60709 0.91234 0.32564 0.0
C768 C 0.5719 0.93622 0.31027 0.0
C769 C 0.61754 0.94058 0.31289 0.0
C770 C 0.56499 0.98069 0.30197 0.0
C771 C 0.50748 0.94345 0.29843 0.0
N772 N 0.59998 0.95183 0.30591 0.0
N773 N 0.52543 0.93228 0.30139 0.0
H774 H 0.16746 0.64889 0.2682 0.0
H775 H 0.20438 0.77292 0.34549 0.0
H776 H 0.09913 0.60385 0.32439 0.0
H777 H 0.11515 0.73447 0.35616 0.0
H778 H 0.19681 0.72613 0.32834 0.0
H779 H 0.17929 0.69588 0.28927 0.0
C780 C 0.15522 0.64905 0.28526 0.0
C781 C 0.13253 0.62275 0.29484 0.0
C782 C 0.17885 0.72795 0.33425 0.0
C783 C 0.1458 0.67606 0.31922 0.0
C784 C 0.18316 0.75464 0.3444 0.0
C785 C 0.16032 0.7579 0.35205 0.0
C786 C 0.1515 0.70414 0.33174 0.0
C787 C 0.13337 0.73315 0.35026 0.0
C788 C 0.16203 0.67572 0.29744 0.0
C789 C 0.11696 0.62383 0.31675 0.0
N790 N 0.1297 0.70731 0.34028 0.0
N791 N 0.12368 0.65015 0.32806 0.0
H792 H 0.84105 0.10083 0.40586 0.0
H793 H 0.76893 0.92498 0.39946 0.0
H794 H 0.85829 0.04723 0.46739 0.0
H795 H 0.73243 0.97484 0.35733 0.0
H796 H 0.80616 0.97045 0.41947 0.0
H797 H 0.8054 0.05574 0.38279 0.0
C798 C 0.83738 0.07946 0.41427 0.0
C799 C 0.85242 0.07746 0.4384 0.0
C800 C 0.79006 0.97146 0.40578 0.0
C801 C 0.81204 0.02609 0.41239 0.0
C802 C 0.76885 0.94552 0.39417 0.0
C803 C 0.74746 0.94603 0.37661 0.0
C804 C 0.79019 0.9983 0.39959 0.0
C805 C 0.74842 0.97336 0.3708 0.0
C806 C 0.81703 0.05383 0.40128 0.0
C807 C 0.84695 0.04946 0.44881 0.0
N808 N 0.76947 0.99842 0.3822 0.0
N809 N 0.82725 0.02483 0.4357 0.0
H810 H 0.93116 0.78712 0.43263 0.0
H811 H 0.05496 0.75288 0.40369 0.0
H812 H 0.91436 0.6983 0.42076 0.0
H813 H 0.05285 0.83158 0.37294 0.0
H814 H 0.00747 0.73362 0.42151 0.0
H815 H 0.98093 0.80513 0.4243 0.0
C816 C 0.93822 0.77143 0.42884 0.0
C817 C 0.91886 0.74137 0.42671 0.0
C818 C 0.01753 0.7551 0.4109 0.0
C819 C 0.97537 0.76155 0.41733 0.0
C820 C 0.04447 0.76605 0.40071 0.0
C821 C 0.05758 0.79369 0.38663 0.0
C822 C 0.00411 0.77236 0.40759 0.0
C823 C 0.0433 0.81002 0.38342 0.0
C824 C 0.96645 0.78165 0.42394 0.0
C825 C 0.92885 0.72167 0.42232 0.0
N826 N 0.01739 0.79919 0.39398 0.0
N827 N 0.95651 0.73213 0.41741 0.0
H828 H 0.27234 0.20274 0.42634 0.0
H829 H 0.16039 0.26141 0.41604 0.0
H830 H 0.18455 0.1483 0.44207 0.0
H831 H 0.24215 0.31 0.38005 0.0
H832 H 0.17156 0.22292 0.43241 0.0
H833 H 0.2643 0.24523 0.41619 0.0
C834 C 0.25147 0.19997 0.42804 0.0
C835 C 0.22901 0.17216 0.43488 0.0
C836 C 0.1871 0.24198 0.42095 0.0
C837 C 0.21955 0.22023 0.42328 0.0
C838 C 0.18075 0.26408 0.41151 0.0
C839 C 0.20019 0.28894 0.39616 0.0
C840 C 0.21319 0.24459 0.41522 0.0
C841 C 0.22639 0.29116 0.39154 0.0
C842 C 0.24683 0.22405 0.42208 0.0
C843 C 0.2023 0.16942 0.43665 0.0
N844 N 0.23208 0.26921 0.4009 0.0
N845 N 0.19828 0.1931 0.43082 0.0
H846 H 0.57998 0.51572 0.74165 0.0
H847 H 0.74478 0.61791 0.76819 0.0
H848 H 0.62063 0.50564 0.81844 0.0
H849 H 0.7072 0.58265 0.68725 0.0
H850 H 0.69872 0.58772 0.78946 0.0
H851 H 0.62578 0.55292 0.72434 0.0
C852 C 0.59856 0.522 0.75514 0.0
C853 C 0.59668 0.50742 0.7813 0.0
C854 C 0.70064 0.58676 0.76705 0.0
C855 C 0.64905 0.54993 0.76179 0.0
C856 C 0.7268 0.60393 0.7549 0.0
C857 C 0.72973 0.60262 0.72594 0.0
C858 C 0.67717 0.56888 0.74992 0.0
C859 C 0.70585 0.58415 0.70967 0.0
C860 C 0.62464 0.54297 0.7452 0.0
C861 C 0.62128 0.51648 0.79817 0.0
N862 N 0.68055 0.56821 0.72183 0.0
N863 N 0.6466 0.53703 0.78804 0.0
H864 H 0.52717 0.11368 0.73957 0.0
H865 H 0.3755 0.09801 0.72572 0.0
H866 H 0.45277 0.0286 0.73715 0.0
H867 H 0.44829 0.17454 0.69334 0.0
H868 H 0.40351 0.07283 0.73389 0.0
H869 H 0.49882 0.13717 0.72541 0.0
C870 C 0.5049 0.09992 0.73529 0.0
C871 C 0.49225 0.06917 0.73895 0.0
C872 C 0.41328 0.09508 0.72488 0.0
C873 C 0.45952 0.0959 0.72408 0.0
C874 C 0.39742 0.1095 0.72043 0.0
C875 C 0.40976 0.13836 0.70898 0.0
C876 C 0.44172 0.10987 0.71823 0.0
C877 C 0.43811 0.15229 0.70229 0.0
C878 C 0.4887 0.11333 0.72752 0.0
C879 C 0.46315 0.05237 0.73441 0.0
N880 N 0.45324 0.13796 0.70721 0.0
N881 N 0.44763 0.06599 0.72745 0.0
H882 H 0.8423 0.38154 0.76564 0.0
H883 H 0.89792 0.27313 0.71889 0.0
H884 H 0.9284 0.41016 0.74787 0.0
H885 H 0.81144 0.24339 0.7373 0.0
H886 H 0.90906 0.32355 0.72818 0.0
H887 H 0.82994 0.33104 0.75355 0.0
C888 C 0.85848 0.37711 0.75889 0.0
C889 C 0.88636 0.39982 0.75776 0.0
C890 C 0.88763 0.30602 0.73016 0.0
C891 C 0.87266 0.34233 0.74424 0.0
C892 C 0.88122 0.27712 0.72488 0.0
C893 C 0.85366 0.25381 0.7273 0.0
C894 C 0.86637 0.31183 0.73797 0.0
C895 C 0.83299 0.26056 0.73513 0.0
C896 C 0.85153 0.34835 0.75217 0.0
C897 C 0.90672 0.39309 0.74919 0.0
N898 N 0.83976 0.28889 0.7402 0.0
N899 N 0.8995 0.36498 0.74285 0.0
H900 H 0.19294 0.95461 0.63192 0.0
H901 H 0.24364 0.1252 0.65607 0.0
H902 H 0.14047 0.99437 0.613 0.0
H903 H 0.29359 0.08299 0.67983 0.0
H904 H 0.20521 0.07758 0.64131 0.0
H905 H 0.22977 1.00146 0.65068 0.0
C906 C 0.18928 0.97334 0.632 0.0
C907 C 0.16387 0.97093 0.62119 0.0
C908 C 0.22453 0.07873 0.64989 0.0
C909 C 0.20564 0.02451 0.64222 0.0
C910 C 0.24653 0.10594 0.65835 0.0
C911 C 0.272 0.10821 0.6692 0.0
C912 C 0.22801 0.05357 0.65217 0.0
C913 C 0.27442 0.08242 0.67158 0.0
C914 C 0.21017 1.00001 0.64263 0.0
C915 C 0.15983 0.99558 0.62146 0.0
N916 N 0.25279 0.05626 0.66304 0.0
N917 N 0.18058 0.02147 0.63172 0.0
H918 H 0.06416 0.24444 0.60772 0.0
H919 H 0.93449 0.14588 0.70522 0.0
H920 H 0.02908 0.15027 0.61808 0.0
H921 H 0.95559 0.23364 0.67397 0.0
H922 H 0.97381 0.14898 0.67998 0.0
H923 H 0.02843 0.24248 0.63782 0.0
C924 C 0.04854 0.2233 0.61617 0.0
C925 C 0.04889 0.19738 0.61017 0.0
C926 C 0.96995 0.16763 0.67891 0.0
C927 C 0.00864 0.19492 0.64506 0.0
C928 C 0.94775 0.16598 0.69345 0.0
C929 C 0.94193 0.18955 0.6915 0.0
C930 C 0.98641 0.1931 0.66259 0.0
C931 C 0.95947 0.21501 0.67591 0.0
C932 C 0.02838 0.22217 0.63346 0.0
C933 C 0.02902 0.17056 0.62215 0.0
N934 N 0.98091 0.21608 0.66191 0.0
N935 N 0.00952 0.16995 0.63913 0.0
H936 H 0.82647 0.87543 0.58879 0.0
H937 H 0.77382 0.71725 0.66717 0.0
H938 H 0.74445 0.82401 0.62255 0.0
H939 H 0.8572 0.76987 0.63572 0.0
H940 H 0.7615 0.75416 0.64764 0.0
H941 H 0.83664 0.83485 0.60142 0.0
C942 C 0.81046 0.85524 0.59839 0.0
C943 C 0.78469 0.85287 0.6048 0.0
C944 C 0.78248 0.75763 0.64493 0.0
C945 C 0.79608 0.80662 0.61974 0.0
C946 C 0.7896 0.73654 0.65617 0.0
C947 C 0.81672 0.74042 0.65334 0.0
C948 C 0.80256 0.78295 0.63066 0.0
C949 C 0.8361 0.76591 0.63865 0.0
C950 C 0.81626 0.83219 0.60578 0.0
C951 C 0.76452 0.82645 0.61726 0.0
N952 N 0.82868 0.78618 0.62798 0.0
N953 N 0.77071 0.80445 0.6246 0.0
H954 H 0.06076 0.86927 0.56903 0.0
H955 H 0.96484 0.77801 0.69401 0.0
H956 H 0.09545 0.86652 0.65206 0.0
H957 H 0.94356 0.74304 0.61057 0.0
H958 H 0.01133 0.81468 0.67822 0.0
H959 H 0.01623 0.8259 0.58227 0.0
C960 C 0.05913 0.85914 0.58982 0.0
C961 C 0.08159 0.8715 0.60959 0.0
C962 C 0.99658 0.79885 0.66341 0.0
C963 C 0.03084 0.8229 0.62513 0.0
C964 C 0.97005 0.77805 0.67235 0.0
C965 C 0.95049 0.75753 0.65354 0.0
C966 C 0.00337 0.79965 0.63524 0.0
C967 C 0.95823 0.75847 0.62571 0.0
C968 C 0.03376 0.8346 0.59742 0.0
C969 C 0.07836 0.85794 0.63646 0.0
N970 N 0.98403 0.77952 0.61722 0.0
N971 N 0.05331 0.83469 0.64361 0.0
H972 H 0.14574 0.25334 0.62767 0.0
H973 H 0.28285 0.2383 0.61183 0.0
H974 H 0.15198 0.20251 0.56267 0.0
H975 H 0.24823 0.23388 0.69236 0.0
H976 H 0.2437 0.2428 0.58843 0.0
H977 H 0.19274 0.26417 0.64614 0.0
C978 C 0.15746 0.24519 0.61693 0.0
C979 C 0.14529 0.22703 0.59377 0.0
C980 C 0.24508 0.24144 0.61123 0.0
C981 C 0.1986 0.2395 0.61426 0.0
C982 C 0.26736 0.23901 0.62457 0.0
C983 C 0.2685 0.23558 0.654 0.0
C984 C 0.22435 0.24115 0.62755 0.0
C985 C 0.24789 0.23634 0.66961 0.0
C986 C 0.18405 0.25126 0.62742 0.0
C987 C 0.161 0.2169 0.58034 0.0
N988 N 0.22655 0.23903 0.65616 0.0
N989 N 0.18692 0.22312 0.5909 0.0
H990 H 0.78554 0.93029 0.67096 0.0
H991 H 0.77805 0.07627 0.65648 0.0
H992 H 0.79237 0.97118 0.58833 0.0
H993 H 0.84573 0.07782 0.70926 0.0
H994 H 0.76971 0.02942 0.63726 0.0
H995 H 0.7959 0.97718 0.69187 0.0
C996 C 0.78941 0.94917 0.65729 0.0
C997 C 0.78797 0.9469 0.6279 0.0
C998 C 0.7862 0.04002 0.65323 0.0
C999 C 0.79849 0.99965 0.65148 0.0
C1000 C 0.79084 0.06649 0.66428 0.0
C1001 C 0.81255 0.08072 0.68445 0.0
C1002 C 0.80279 0.02735 0.66314 0.0
C1003 C 0.82881 0.06742 0.69367 0.0
C1004 C 0.79511 0.9757 0.66918 0.0
C1005 C 0.79275 0.97189 0.61105 0.0
N1006 N 0.82341 0.04121 0.68316 0.0
N1007 N 0.79733 0.99711 0.62305 0.0
H1008 H 0.52149 0.37888 0.80401 0.0
H1009 H 0.39554 0.30148 0.69032 0.0
H1010 H 0.5053 0.42688 0.7355 0.0
H1011 H 0.42868 0.25327 0.74139 0.0
H1012 H 0.43335 0.3476 0.70895 0.0
H1013 H 0.48522 0.33229 0.78384 0.0
C1014 C 0.51025 0.37943 0.78466 0.0
C1015 C 0.51624 0.40645 0.77123 0.0
C1016 C 0.43242 0.32693 0.71595 0.0
C1017 C 0.47481 0.35374 0.74821 0.0
C1018 C 0.4108 0.30057 0.70539 0.0
C1019 C 0.40895 0.27344 0.71423 0.0
C1020 C 0.45215 0.32618 0.73586 0.0
C1021 C 0.42938 0.27367 0.7338 0.0
C1022 C 0.4897 0.35299 0.77311 0.0
C1023 C 0.50129 0.40633 0.74622 0.0
N1024 N 0.45 0.2996 0.7441 0.0
N1025 N 0.48112 0.38038 0.73558 0.0
H1026 H 0.57598 0.02416 0.76699 0.0
H1027 H 0.71612 0.16397 0.7179 0.0
H1028 H 0.58766 0.11242 0.76526 0.0
H1029 H 0.71589 0.08495 0.75162 0.0
H1030 H 0.66799 0.14439 0.73324 0.0
H1031 H 0.62681 0.04469 0.76104 0.0
C1032 C 0.58948 0.04785 0.76596 0.0
C1033 C 0.578 0.06677 0.76619 0.0
C1034 C 0.67854 0.13142 0.73745 0.0
C1035 C 0.63531 0.09029 0.75877 0.0
C1036 C 0.70589 0.14252 0.72855 0.0
C1037 C 0.71978 0.12595 0.73343 0.0
C1038 C 0.66494 0.10338 0.7509 0.0
C1039 C 0.70576 0.09834 0.74744 0.0
C1040 C 0.61829 0.05957 0.76241 0.0
C1041 C 0.59599 0.0973 0.76471 0.0
N1042 N 0.67895 0.08773 0.75546 0.0
N1043 N 0.62371 0.10816 0.76059 0.0
H1044 H 0.93538 0.52876 0.756 0.0
H1045 H 0.81844 0.57982 0.72866 0.0
H1046 H 0.84801 0.47398 0.77336 0.0
H1047 H 0.9043 0.63347 0.70409 0.0
H1048 H 0.83001 0.54252 0.74817 0.0
H1049 H 0.92584 0.56932 0.74085 0.0
C1050 C 0.9143 0.52555 0.75704 0.0
C1051 C 0.89239 0.49813 0.76579 0.0
C1052 C 0.84637 0.56242 0.73851 0.0
C1053 C 0.88113 0.54394 0.74821 0.0
C1054 C 0.83976 0.58381 0.72725 0.0
C1055 C 0.86035 0.60991 0.71443 0.0
C1056 C 0.87385 0.56695 0.73713 0.0
C1057 C 0.88765 0.61369 0.71357 0.0
C1058 C 0.90877 0.54852 0.74819 0.0
C1059 C 0.86535 0.49479 0.76652 0.0
N1060 N 0.89358 0.59246 0.72471 0.0
N1061 N 0.86045 0.51733 0.75771 0.0
H1062 H 0.52815 0.05886 0.25966 0.0
H1063 H 0.4951 0.99356 0.10515 0.0
H1064 H 0.48624 0.96621 0.24285 0.0
H1065 H 0.54417 0.08677 0.12003 0.0
H1066 H 0.49184 0.98359 0.15579 0.0
H1067 H 0.53627 0.07021 0.20902 0.0
C1068 C 0.52136 0.04101 0.24524 0.0
C1069 C 0.50677 0.01165 0.25512 0.0
C1070 C 0.50327 1.00627 0.14808 0.0
C1071 C 0.51512 0.02413 0.19755 0.0
C1072 C 0.50487 0.012 0.11911 0.0
C1073 C 0.51975 0.04106 0.10839 0.0
C1074 C 0.51662 0.02977 0.1666 0.0
C1075 C 0.53239 0.06404 0.12748 0.0
C1076 C 0.52573 0.04739 0.21644 0.0
C1077 C 0.49795 0.9891 0.23588 0.0
N1078 N 0.53055 0.05791 0.15573 0.0
N1079 N 0.50201 0.99579 0.20796 0.0
H1080 H 0.05561 0.525 0.24181 0.0
H1081 H 0.06247 0.52801 0.07386 0.0
H1082 H 0.13386 0.56401 0.19974 0.0
H1083 H 0.99748 0.53298 0.11649 0.0
H1084 H 0.08528 0.52701 0.11968 0.0
H1085 H 0.03025 0.51224 0.19581 0.0
C1086 C 0.06733 0.52963 0.22285 0.0
C1087 C 0.09672 0.54506 0.22438 0.0
C1088 C 0.06579 0.52785 0.11898 0.0
C1089 C 0.06817 0.53138 0.17186 0.0
C1090 C 0.05266 0.52814 0.09285 0.0
C1091 C 0.02793 0.53025 0.0914 0.0
C1092 C 0.05376 0.52908 0.14384 0.0
C1093 C 0.01654 0.53133 0.11671 0.0
C1094 C 0.05296 0.52285 0.19666 0.0
C1095 C 0.11116 0.55161 0.19927 0.0
N1096 N 0.02945 0.53062 0.14189 0.0
N1097 N 0.09676 0.54492 0.17396 0.0
H1098 H 0.48211 0.53868 0.25105 0.0
H1099 H 0.45308 0.51447 0.08554 0.0
H1100 H 0.42714 0.56271 0.20208 0.0
H1101 H 0.52012 0.50999 0.13398 0.0
H1102 H 0.43405 0.5193 0.12929 0.0
H1103 H 0.486 0.51424 0.21024 0.0
C1104 C 0.47014 0.53784 0.23181 0.0
C1105 C 0.45429 0.55251 0.22968 0.0
C1106 C 0.45255 0.51657 0.13037 0.0
C1107 C 0.45932 0.52573 0.18263 0.0
C1108 C 0.46317 0.51342 0.10542 0.0
C1109 C 0.48794 0.51144 0.10624 0.0
C1110 C 0.46686 0.51763 0.15622 0.0
C1111 C 0.50094 0.51145 0.1325 0.0
C1112 C 0.47254 0.52423 0.20846 0.0
C1113 C 0.43939 0.55136 0.20436 0.0
N1114 N 0.49034 0.51463 0.15639 0.0
N1115 N 0.44262 0.53863 0.18155 0.0
H1116 H 0.97225 0.50241 0.79026 0.0
H1117 H 0.9785 0.53689 0.95313 0.0
H1118 H 0.8997 0.48753 0.83436 0.0
H1119 H 0.04312 0.5304 0.91135 0.0
H1120 H 0.95288 0.53132 0.90773 0.0
H1121 H 0.00207 0.52639 0.83169 0.0
C1122 C 0.96284 0.50522 0.80847 0.0
C1123 C 0.93369 0.49317 0.80911 0.0
C1124 C 0.97296 0.53175 0.90842 0.0
C1125 C 0.96725 0.51952 0.85689 0.0
C1126 C 0.98773 0.53529 0.93431 0.0
C1127 C 0.01309 0.53449 0.93593 0.0
C1128 C 0.98382 0.52756 0.88403 0.0
C1129 C 0.02361 0.53116 0.91099 0.0
C1130 C 0.97971 0.51853 0.83221 0.0
C1131 C 0.9222 0.49684 0.83319 0.0
N1132 N 0.00893 0.52774 0.88614 0.0
N1133 N 0.93896 0.50928 0.8564 0.0
H1134 H 0.58169 0.4771 0.86275 0.0
H1135 H 0.47109 0.51238 0.92388 0.0
H1136 H 0.53437 0.50824 0.80986 0.0
H1137 H 0.54177 0.51974 0.9751 0.0
H1138 H 0.49439 0.51116 0.88182 0.0
H1139 H 0.56972 0.4945 0.90425 0.0
C1140 C 0.56987 0.4889 0.85987 0.0
C1141 C 0.55942 0.49184 0.83296 0.0
C1142 C 0.50508 0.51359 0.90221 0.0
C1143 C 0.54422 0.51019 0.88017 0.0
C1144 C 0.49172 0.51413 0.92622 0.0
C1145 C 0.5047 0.51655 0.95299 0.0
C1146 C 0.53134 0.51462 0.90501 0.0
C1147 C 0.53135 0.51854 0.95486 0.0
C1148 C 0.56269 0.49845 0.8835 0.0
C1149 C 0.54327 0.50622 0.83026 0.0
N1150 N 0.54363 0.51709 0.93125 0.0
N1151 N 0.53562 0.51427 0.8536 0.0
H1152 H 0.51115 0.98856 0.80921 0.0
H1153 H 0.53711 0.06011 0.95845 0.0
H1154 H 0.56236 0.08132 0.82323 0.0
H1155 H 0.4916 0.96612 0.94706 0.0
H1156 H 0.5526 0.0674 0.91029 0.0
H1157 H 0.51049 0.97864 0.86032 0.0
C1158 C 0.52315 1.00665 0.8232 0.0
C1159 C 0.53694 0.0357 0.81237 0.0
C1160 C 0.53957 0.0451 0.91833 0.0
C1161 C 0.53552 0.02495 0.87051 0.0
C1162 C 0.53082 0.04092 0.94594 0.0
C1163 C 0.51319 0.01244 0.95679 0.0
C1164 C 0.53019 0.02066 0.90114 0.0
C1165 C 0.50513 0.98844 0.93941 0.0
C1166 C 0.52255 1.00112 0.85229 0.0
C1167 C 0.55177 0.05864 0.83102 0.0
N1168 N 0.51345 0.99311 0.9123 0.0
N1169 N 0.55028 0.05285 0.85927 0.0
H1170 H 0.13604 0.22118 0.52283 0.0
H1171 H 0.21925 0.34579 0.44073 0.0
H1172 H 0.11072 0.27816 0.55965 0.0
H1173 H 0.14617 0.35769 0.43911 0.0
H1174 H 0.20021 0.31005 0.47984 0.0
H1175 H 0.16099 0.25994 0.48688 0.0
C1176 C 0.1363 0.24212 0.52356 0.0
C1177 C 0.12177 0.24688 0.54411 0.0
C1178 C 0.18842 0.32057 0.47097 0.0
C1179 C 0.14929 0.29064 0.50325 0.0
C1180 C 0.19934 0.34119 0.44891 0.0
C1181 C 0.18395 0.35432 0.43654 0.0
C1182 C 0.16224 0.31356 0.48109 0.0
C1183 C 0.15841 0.3477 0.448 0.0
C1184 C 0.15033 0.26409 0.50314 0.0
C1185 C 0.12173 0.2739 0.54389 0.0
N1186 N 0.14826 0.32767 0.46981 0.0
N1187 N 0.13501 0.29474 0.52348 0.0
H1188 H 0.70525 0.84447 0.5777 0.0
H1189 H 0.72177 0.86072 0.41059 0.0
H1190 H 0.78511 0.88329 0.53871 0.0
H1191 H 0.65126 0.8558 0.45165 0.0
H1192 H 0.74163 0.85507 0.45649 0.0
H1193 H 0.68161 0.83321 0.53084 0.0
C1194 C 0.71768 0.84954 0.55921 0.0
C1195 C 0.74704 0.86498 0.56181 0.0
C1196 C 0.72154 0.85464 0.45541 0.0
C1197 C 0.72047 0.85269 0.50838 0.0
C1198 C 0.71002 0.85749 0.42914 0.0
C1199 C 0.68454 0.85808 0.42726 0.0
C1200 C 0.70736 0.85218 0.47998 0.0
C1201 C 0.67089 0.85529 0.45223 0.0
C1202 C 0.70429 0.84351 0.53254 0.0
C1203 C 0.7624 0.8713 0.53738 0.0
N1204 N 0.68244 0.85242 0.47757 0.0
N1205 N 0.74897 0.86554 0.51159 0.0
H1206 H 0.09641 0.89442 0.53202 0.0
H1207 H 0.19898 0.84573 0.47338 0.0
H1208 H 0.14847 0.8704 0.58605 0.0
H1209 H 0.12983 0.84377 0.42302 0.0
H1210 H 0.17796 0.85021 0.51561 0.0
H1211 H 0.10433 0.871 0.49262 0.0
C1212 C 0.10854 0.88303 0.53571 0.0
C1213 C 0.12138 0.88365 0.56218 0.0
C1214 C 0.16708 0.84828 0.49541 0.0
C1215 C 0.13183 0.8583 0.51726 0.0
C1216 C 0.17912 0.84578 0.47131 0.0
C1217 C 0.16621 0.84462 0.44473 0.0
C1218 C 0.14223 0.85025 0.49282 0.0
C1219 C 0.14048 0.8447 0.44314 0.0
C1220 C 0.11335 0.86998 0.51326 0.0
C1221 C 0.13789 0.86977 0.56592 0.0
N1222 N 0.12955 0.84801 0.46682 0.0
N1223 N 0.14306 0.85807 0.54359 0.0
H1224 H 0.56587 0.83173 0.16458 0.0
H1225 H 0.70593 0.86523 0.24991 0.0
H1226 H 0.64056 0.84403 0.12653 0.0
H1227 H 0.63924 0.87201 0.28711 0.0
H1228 H 0.68441 0.86431 0.20336 0.0
H1229 H 0.59368 0.85359 0.20796 0.0
C1230 C 0.58835 0.84008 0.16514 0.0
C1231 C 0.60112 0.83611 0.14227 0.0
C1232 C 0.67465 0.86662 0.22155 0.0
C1233 C 0.63283 0.86023 0.19161 0.0
C1234 C 0.68699 0.86717 0.24813 0.0
C1235 C 0.67441 0.86889 0.27227 0.0
C1236 C 0.64895 0.86683 0.21905 0.0
C1237 C 0.6498 0.87115 0.26894 0.0
C1238 C 0.60418 0.8523 0.18988 0.0
C1239 C 0.63013 0.84675 0.1439 0.0
N1240 N 0.63751 0.86946 0.2428 0.0
N1241 N 0.64494 0.85787 0.1683 0.0
H1242 H 0.24734 0.8161 0.18479 0.0
H1243 H 0.15915 0.87171 0.26559 0.0
H1244 H 0.20553 0.86006 0.14261 0.0
H1245 H 0.21207 0.84003 0.30751 0.0
H1246 H 0.18008 0.87331 0.22074 0.0
H1247 H 0.24024 0.8312 0.23023 0.0
C1248 C 0.2377 0.83005 0.1852 0.0
C1249 C 0.22744 0.83738 0.16015 0.0
C1250 C 0.18745 0.86647 0.23983 0.0
C1251 C 0.21775 0.85345 0.21189 0.0
C1252 C 0.17546 0.86553 0.26541 0.0
C1253 C 0.18379 0.85561 0.29026 0.0
C1254 C 0.2077 0.85713 0.2391 0.0
C1255 C 0.20503 0.84786 0.28887 0.0
C1256 C 0.23326 0.83835 0.21107 0.0
C1257 C 0.21418 0.85458 0.16159 0.0
N1258 N 0.21599 0.84847 0.26373 0.0
N1259 N 0.20924 0.8616 0.18707 0.0
H1260 H 0.21326 0.41923 0.15676 0.0
H1261 H 0.13743 0.34275 0.27188 0.0
H1262 H 0.27103 0.46741 0.2241 0.0
H1263 H 0.21312 0.34355 0.3046 0.0
H1264 H 0.1627 0.37146 0.23033 0.0
H1265 H 0.19175 0.37528 0.18816 0.0
C1266 C 0.22218 0.41997 0.17784 0.0
C1267 C 0.24376 0.44665 0.18812 0.0
C1268 C 0.17359 0.36478 0.24638 0.0
C1269 C 0.21926 0.39724 0.22393 0.0
C1270 C 0.15921 0.34848 0.27001 0.0
C1271 C 0.17361 0.34172 0.29192 0.0
C1272 C 0.2025 0.37459 0.24506 0.0
C1273 C 0.2018 0.3496 0.28856 0.0
C1274 C 0.20974 0.39519 0.19573 0.0
C1275 C 0.25447 0.44705 0.21561 0.0
N1276 N 0.21569 0.36649 0.26595 0.0
N1277 N 0.24182 0.42268 0.23286 0.0
H1278 H 0.83048 0.6778 0.91216 0.0
H1279 H 0.81321 0.63624 0.75112 0.0
H1280 H 0.79669 0.58866 0.88537 0.0
H1281 H 0.875 0.72205 0.77958 0.0
H1282 H 0.80152 0.6197 0.79983 0.0
H1283 H 0.8433 0.69586 0.86339 0.0
C1284 C 0.8263 0.66222 0.8959 0.0
C1285 C 0.81293 0.63192 0.90235 0.0
C1286 C 0.81742 0.64226 0.79541 0.0
C1287 C 0.82645 0.65191 0.84699 0.0
C1288 C 0.82368 0.6519 0.76751 0.0
C1289 C 0.8444 0.68083 0.76132 0.0
C1290 C 0.83206 0.66175 0.81721 0.0
C1291 C 0.85848 0.6997 0.78362 0.0
C1292 C 0.8334 0.67238 0.86823 0.0
C1293 C 0.80734 0.61222 0.8809 0.0
N1294 N 0.85196 0.6899 0.81068 0.0
N1295 N 0.81388 0.62254 0.854 0.0
H1296 H 0.36813 0.183 0.91656 0.0
H1297 H 0.37794 0.18058 0.74971 0.0
H1298 H 0.44721 0.2185 0.87648 0.0
H1299 H 0.31682 0.19478 0.78969 0.0
H1300 H 0.39829 0.17725 0.79638 0.0
H1301 H 0.34366 0.16815 0.87038 0.0
C1302 C 0.38022 0.18651 0.89809 0.0
C1303 C 0.40959 0.20225 0.90004 0.0
C1304 C 0.38008 0.1805 0.79487 0.0
C1305 C 0.38206 0.18563 0.84744 0.0
C1306 C 0.36836 0.1822 0.7683 0.0
C1307 C 0.3456 0.18778 0.76591 0.0
C1308 C 0.36846 0.18372 0.81914 0.0
C1309 C 0.33442 0.19051 0.79067 0.0
C1310 C 0.36635 0.1784 0.8718 0.0
C1311 C 0.42449 0.2064 0.87564 0.0
N1312 N 0.3459 0.18838 0.81626 0.0
N1313 N 0.41059 0.19858 0.85017 0.0
H1314 H 0.8197 0.19421 0.9317 0.0
H1315 H 0.7918 0.16791 0.76615 0.0
H1316 H 0.77596 0.22935 0.87837 0.0
H1317 H 0.85796 0.16222 0.81523 0.0
H1318 H 0.77426 0.17584 0.80937 0.0
H1319 H 0.82174 0.16738 0.89163 0.0
C1320 C 0.80959 0.19524 0.91172 0.0
C1321 C 0.79731 0.21346 0.90815 0.0
C1322 C 0.79221 0.17213 0.81072 0.0
C1323 C 0.80014 0.18384 0.86226 0.0
C1324 C 0.80199 0.16724 0.78608 0.0
C1325 C 0.82615 0.16411 0.78721 0.0
C1326 C 0.80664 0.17366 0.83658 0.0
C1327 C 0.83923 0.16454 0.81354 0.0
C1328 C 0.81098 0.18029 0.88885 0.0
C1329 C 0.78512 0.21498 0.88182 0.0
N1330 N 0.8294 0.16938 0.83717 0.0
N1331 N 0.78707 0.20059 0.8597 0.0
H1332 H 0.30741 0.17144 0.46226 0.0
H1333 H 0.29705 0.18944 0.62594 0.0
H1334 H 0.23149 0.15598 0.49997 0.0
H1335 H 0.36969 0.19554 0.58835 0.0
H1336 H 0.27584 0.18811 0.57894 0.0
H1337 H 0.33361 0.1918 0.50648 0.0
C1338 C 0.29651 0.17321 0.47976 0.0
C1339 C 0.26741 0.16207 0.47775 0.0
C1340 C 0.29672 0.19048 0.58091 0.0
C1341 C 0.2968 0.18442 0.52859 0.0
C1342 C 0.30905 0.19177 0.60781 0.0
C1343 C 0.33551 0.19349 0.61101 0.0
C1344 C 0.31087 0.19056 0.55708 0.0
C1345 C 0.34935 0.19454 0.58671 0.0
C1346 C 0.31132 0.18455 0.50504 0.0
C1347 C 0.25399 0.16455 0.50087 0.0
N1348 N 0.33685 0.19292 0.56082 0.0
N1349 N 0.26871 0.17502 0.52556 0.0
H1350 H 0.91506 0.13529 0.5367 0.0
H1351 H 0.80749 0.16995 0.60586 0.0
H1352 H 0.87185 0.17473 0.48895 0.0
H1353 H 0.87635 0.17014 0.65498 0.0
H1354 H 0.83067 0.17122 0.56272 0.0
H1355 H 0.90298 0.14895 0.58054 0.0
C1356 C 0.90409 0.14802 0.53556 0.0
C1357 C 0.89486 0.15448 0.50937 0.0
C1358 C 0.84099 0.17152 0.58294 0.0
C1359 C 0.87954 0.16863 0.55908 0.0
C1360 C 0.8277 0.17064 0.60754 0.0
C1361 C 0.84028 0.17043 0.63403 0.0
C1362 C 0.86672 0.17131 0.58482 0.0
C1363 C 0.86635 0.1711 0.63504 0.0
C1364 C 0.89687 0.15547 0.56048 0.0
C1365 C 0.87979 0.17001 0.50882 0.0
N1366 N 0.87855 0.17108 0.61083 0.0
N1367 N 0.87206 0.176 0.53329 0.0
H1368 H 0.84946 0.65612 0.46111 0.0
H1369 H 0.86908 0.71162 0.61841 0.0
H1370 H 0.89825 0.747 0.48367 0.0
H1371 H 0.80592 0.62543 0.59247 0.0
H1372 H 0.88811 0.72223 0.57137 0.0
H1373 H 0.84269 0.64161 0.5113 0.0
C1374 C 0.85964 0.67284 0.47681 0.0
C1375 C 0.87427 0.70272 0.4685 0.0
C1376 C 0.87036 0.70081 0.57602 0.0
C1377 C 0.8662 0.68664 0.52558 0.0
C1378 C 0.85972 0.69464 0.603 0.0
C1379 C 0.83641 0.6674 0.60944 0.0
C1380 C 0.85742 0.67956 0.55524 0.0
C1381 C 0.82403 0.6467 0.58824 0.0
C1382 C 0.85549 0.66467 0.50534 0.0
C1383 C 0.88699 0.72372 0.4894 0.0
N1384 N 0.83469 0.65319 0.56202 0.0
N1385 N 0.88228 0.71536 0.51702 0.0
loop_
_geom_bond_atom_site_label_1
_geom_bond_atom_site_label_2
_geom_bond_distance
_geom_bond_site_symmetry_2
_ccdc_geom_bond_type
C0 N1 1.317 . S
C0 N2 1.348 . S
C0 C3 1.485 . S
N1 C0 1.317 . S
N1 N5 1.370 . S
N2 C0 1.348 . S
N2 C4 1.346 . S
C3 C0 1.485 . S
C3 H7 0.960 . S
C3 H8 0.961 . S
C3 H9 0.960 . S
C4 N2 1.346 . S
C4 N5 1.307 . S
C4 C6 1.486 . S
N5 N1 1.370 . S
N5 C4 1.307 . S
C6 C4 1.486 . S
C6 H10 0.960 . S
C6 H11 0.960 . S
C6 H12 0.959 . S
H7 C3 0.960 . S
H8 C3 0.961 . S
H9 C3 0.960 . S
H10 C6 0.960 . S
H11 C6 0.960 . S
H12 C6 0.959 . S
C13 N14 1.317 . S
C13 N15 1.348 . S
C13 C16 1.485 . S
N14 C13 1.317 . S
N14 N18 1.370 . S
N15 C13 1.348 . S
N15 C17 1.346 . S
C16 C13 1.485 . S
C16 H20 0.960 . S
C16 H21 0.961 . S
C16 H22 0.960 . S
C17 N15 1.346 . S
C17 N18 1.307 . S
C17 C19 1.486 . S
N18 N14 1.370 . S
N18 C17 1.307 . S
C19 C17 1.486 . S
C19 H23 0.960 . S
C19 H24 0.960 . S
C19 H25 0.959 . S
H20 C16 0.960 . S
H21 C16 0.961 . S
H22 C16 0.960 . S
H23 C19 0.960 . S
H24 C19 0.960 . S
H25 C19 0.959 . S
C26 N27 1.317 . S
C26 N28 1.348 . S
C26 C29 1.485 . S
N27 C26 1.317 . S
N27 N31 1.370 . S
N28 C26 1.348 . S
N28 C30 1.346 . S
C29 C26 1.485 . S
C29 H33 0.960 . S
C29 H34 0.961 . S
C29 H35 0.960 . S
C30 N28 1.346 . S
C30 N31 1.307 . S
C30 C32 1.486 . S
N31 N27 1.370 . S
N31 C30 1.307 . S
C32 C30 1.486 . S
C32 H36 0.960 . S
C32 H37 0.960 . S
C32 H38 0.959 . S
H33 C29 0.960 . S
H34 C29 0.961 . S
H35 C29 0.960 . S
H36 C32 0.960 . S
H37 C32 0.960 . S
H38 C32 0.959 . S
C39 N40 1.317 . S
C39 N41 1.348 . S
C39 C42 1.485 . S
N40 C39 1.317 . S
N40 N44 1.370 . S
N41 C39 1.348 . S
N41 C43 1.346 . S
C42 C39 1.485 . S
C42 H46 0.960 . S
C42 H47 0.961 . S
C42 H48 0.960 . S
C43 N41 1.346 . S
C43 N44 1.307 . S
C43 C45 1.486 . S
N44 N40 1.370 . S
N44 C43 1.307 . S
C45 C43 1.486 . S
C45 H49 0.960 . S
C45 H50 0.960 . S
C45 H51 0.959 . S
H46 C42 0.960 . S
H47 C42 0.961 . S
H48 C42 0.960 . S
H49 C45 0.960 . S
H50 C45 0.960 . S
H51 C45 0.959 . S
C52 N53 1.317 . S
C52 N54 1.348 . S
C52 C55 1.485 . S
N53 C52 1.317 . S
N53 N57 1.370 . S
N54 C52 1.348 . S
N54 C56 1.346 . S
C55 C52 1.485 . S
C55 H59 0.960 . S
C55 H60 0.961 . S
C55 H61 0.960 . S
C56 N54 1.346 . S
C56 N57 1.307 . S
C56 C58 1.486 . S
N57 N53 1.370 . S
N57 C56 1.307 . S
C58 C56 1.486 . S
C58 H62 0.960 . S
C58 H63 0.960 . S
C58 H64 0.959 . S
H59 C55 0.960 . S
H60 C55 0.961 . S
H61 C55 0.960 . S
H62 C58 0.960 . S
H63 C58 0.960 . S
H64 C58 0.959 . S
C65 N66 1.317 . S
C65 N67 1.348 . S
C65 C68 1.485 . S
N66 C65 1.317 . S
N66 N70 1.370 . S
N67 C65 1.348 . S
N67 C69 1.346 . S
C68 C65 1.485 . S
C68 H72 0.960 . S
C68 H73 0.961 . S
C68 H74 0.960 . S
C69 N67 1.346 . S
C69 N70 1.307 . S
C69 C71 1.486 . S
N70 N66 1.370 . S
N70 C69 1.307 . S
C71 C69 1.486 . S
C71 H75 0.960 . S
C71 H76 0.960 . S
C71 H77 0.959 . S
H72 C68 0.960 . S
H73 C68 0.961 . S
H74 C68 0.960 . S
H75 C71 0.960 . S
H76 C71 0.960 . S
H77 C71 0.959 . S
C78 N79 1.317 . S
C78 N80 1.348 . S
C78 C81 1.485 . S
N79 C78 1.317 . S
N79 N83 1.370 . S
N80 C78 1.348 . S
N80 C82 1.346 . S
C81 C78 1.485 . S
C81 H85 0.960 . S
C81 H86 0.961 . S
C81 H87 0.960 . S
C82 N80 1.346 . S
C82 N83 1.307 . S
C82 C84 1.486 . S
N83 N79 1.370 . S
N83 C82 1.307 . S
C84 C82 1.486 . S
C84 H88 0.960 . S
C84 H89 0.960 . S
C84 H90 0.959 . S
H85 C81 0.960 . S
H86 C81 0.961 . S
H87 C81 0.960 . S
H88 C84 0.960 . S
H89 C84 0.960 . S
H90 C84 0.959 . S
C91 N92 1.317 . S
C91 N93 1.348 . S
C91 C94 1.485 . S
N92 C91 1.317 . S
N92 N96 1.370 . S
N93 C91 1.348 . S
N93 C95 1.346 . S
C94 C91 1.485 . S
C94 H98 0.960 . S
C94 H99 0.961 . S
C94 H100 0.960 . S
C95 N93 1.346 . S
C95 N96 1.307 . S
C95 C97 1.486 . S
N96 N92 1.370 . S
N96 C95 1.307 . S
C97 C95 1.486 . S
C97 H101 0.960 . S
C97 H102 0.960 . S
C97 H103 0.959 . S
H98 C94 0.960 . S
H99 C94 0.961 . S
H100 C94 0.960 . S
H101 C97 0.960 . S
H102 C97 0.960 . S
H103 C97 0.959 . S
C104 N105 1.317 . S
C104 N106 1.348 . S
C104 C107 1.485 . S
N105 C104 1.317 . S
N105 N109 1.370 . S
N106 C104 1.348 . S
N106 C108 1.346 . S
C107 C104 1.485 . S
C107 H111 0.960 . S
C107 H112 0.961 . S
C107 H113 0.960 . S
C108 N106 1.346 . S
C108 N109 1.307 . S
C108 C110 1.486 . S
N109 N105 1.370 . S
N109 C108 1.307 . S
C110 C108 1.486 . S
C110 H114 0.960 . S
C110 H115 0.960 . S
C110 H116 0.959 . S
H111 C107 0.960 . S
H112 C107 0.961 . S
H113 C107 0.960 . S
H114 C110 0.960 . S
H115 C110 0.960 . S
H116 C110 0.959 . S
C117 N118 1.317 . S
C117 N119 1.348 . S
C117 C120 1.485 . S
N118 C117 1.317 . S
N118 N122 1.370 . S
N119 C117 1.348 . S
N119 C121 1.346 . S
C120 C117 1.485 . S
C120 H124 0.960 . S
C120 H125 0.961 . S
C120 H126 0.960 . S
C121 N119 1.346 . S
C121 N122 1.307 . S
C121 C123 1.486 . S
N122 N118 1.370 . S
N122 C121 1.307 . S
C123 C121 1.486 . S
C123 H127 0.960 . S
C123 H128 0.960 . S
C123 H129 0.959 . S
H124 C120 0.960 . S
H125 C120 0.961 . S
H126 C120 0.960 . S
H127 C123 0.960 . S
H128 C123 0.960 . S
H129 C123 0.959 . S
C130 N131 1.317 . S
C130 N132 1.348 . S
C130 C133 1.485 1_556 S
N131 C130 1.317 . S
N131 N135 1.370 . S
N132 C130 1.348 . S
N132 C134 1.346 . S
C133 C130 1.485 1_554 S
C133 H137 0.960 . S
C133 H138 0.961 . S
C133 H139 0.960 . S
C134 N132 1.346 . S
C134 N135 1.307 . S
C134 C136 1.486 . S
N135 N131 1.370 . S
N135 C134 1.307 . S
C136 C134 1.486 . S
C136 H140 0.960 . S
C136 H141 0.960 . S
C136 H142 0.959 . S
H137 C133 0.960 . S
H138 C133 0.961 . S
H139 C133 0.960 . S
H140 C136 0.960 . S
H141 C136 0.960 . S
H142 C136 0.959 . S
C143 N144 1.317 . S
C143 N145 1.348 . S
C143 C146 1.485 1_556 S
N144 C143 1.317 . S
N144 N148 1.370 . S
N145 C143 1.348 . S
N145 C147 1.346 . S
C146 C143 1.485 1_554 S
C146 H150 0.960 . S
C146 H151 0.961 . S
C146 H152 0.960 . S
C147 N145 1.346 . S
C147 N148 1.307 . S
C147 C149 1.486 . S
N148 N144 1.370 . S
N148 C147 1.307 . S
C149 C147 1.486 . S
C149 H153 0.960 . S
C149 H154 0.960 . S
C149 H155 0.959 . S
H150 C146 0.960 . S
H151 C146 0.961 . S
H152 C146 0.960 . S
H153 C149 0.960 . S
H154 C149 0.960 . S
H155 C149 0.959 . S
C156 N157 1.317 . S
C156 N158 1.348 . S
C156 C159 1.485 . S
N157 C156 1.317 . S
N157 N161 1.370 . S
N158 C156 1.348 . S
N158 C160 1.346 . S
C159 C156 1.485 . S
C159 H163 0.960 . S
C159 H164 0.961 . S
C159 H165 0.960 . S
C160 N158 1.346 . S
C160 N161 1.307 . S
C160 C162 1.486 . S
N161 N157 1.370 . S
N161 C160 1.307 . S
C162 C160 1.486 . S
C162 H166 0.960 . S
C162 H167 0.960 . S
C162 H168 0.959 . S
H163 C159 0.960 . S
H164 C159 0.961 . S
H165 C159 0.960 . S
H166 C162 0.960 . S
H167 C162 0.960 . S
H168 C162 0.959 . S
C169 N170 1.317 . S
C169 N171 1.348 . S
C169 C172 1.485 . S
N170 C169 1.317 . S
N170 N174 1.370 . S
N171 C169 1.348 . S
N171 C173 1.346 . S
C172 C169 1.485 . S
C172 H176 0.960 . S
C172 H177 0.961 . S
C172 H178 0.960 . S
C173 N171 1.346 . S
C173 N174 1.307 . S
C173 C175 1.486 . S
N174 N170 1.370 . S
N174 C173 1.307 . S
C175 C173 1.486 . S
C175 H179 0.960 . S
C175 H180 0.960 . S
C175 H181 0.959 . S
H176 C172 0.960 . S
H177 C172 0.961 . S
H178 C172 0.960 . S
H179 C175 0.960 . S
H180 C175 0.960 . S
H181 C175 0.959 . S
C182 N183 1.317 . S
C182 N184 1.348 . S
C182 C185 1.485 . S
N183 C182 1.317 . S
N183 N187 1.370 . S
N184 C182 1.348 . S
N184 C186 1.346 . S
C185 C182 1.485 . S
C185 H189 0.960 . S
C185 H190 0.961 . S
C185 H191 0.960 . S
C186 N184 1.346 . S
C186 N187 1.307 . S
C186 C188 1.486 . S
N187 N183 1.370 . S
N187 C186 1.307 . S
C188 C186 1.486 . S
C188 H192 0.960 . S
C188 H193 0.960 . S
C188 H194 0.959 . S
H189 C185 0.960 . S
H190 C185 0.961 . S
H191 C185 0.960 . S
H192 C188 0.960 . S
H193 C188 0.960 . S
H194 C188 0.959 . S
C195 N196 1.317 . S
C195 N197 1.348 . S
C195 C198 1.485 . S
N196 C195 1.317 . S
N196 N200 1.370 . S
N197 C195 1.348 . S
N197 C199 1.346 . S
C198 C195 1.485 . S
C198 H202 0.960 . S
C198 H203 0.961 . S
C198 H204 0.960 . S
C199 N197 1.346 . S
C199 N200 1.307 . S
C199 C201 1.486 . S
N200 N196 1.370 . S
N200 C199 1.307 . S
C201 C199 1.486 . S
C201 H205 0.960 . S
C201 H206 0.960 . S
C201 H207 0.959 . S
H202 C198 0.960 . S
H203 C198 0.961 . S
H204 C198 0.960 . S
H205 C201 0.960 . S
H206 C201 0.960 . S
H207 C201 0.959 . S
C208 N209 1.317 . S
C208 N210 1.348 . S
C208 C211 1.485 . S
N209 C208 1.317 . S
N209 N213 1.370 . S
N210 C208 1.348 . S
N210 C212 1.346 . S
C211 C208 1.485 . S
C211 H215 0.960 . S
C211 H216 0.961 . S
C211 H217 0.960 . S
C212 N210 1.346 . S
C212 N213 1.307 . S
C212 C214 1.486 . S
N213 N209 1.370 . S
N213 C212 1.307 . S
C214 C212 1.486 . S
C214 H218 0.960 . S
C214 H219 0.960 . S
C214 H220 0.959 . S
H215 C211 0.960 . S
H216 C211 0.961 . S
H217 C211 0.960 . S
H218 C214 0.960 . S
H219 C214 0.960 . S
H220 C214 0.959 . S
C221 N222 1.317 . S
C221 N223 1.348 . S
C221 C224 1.485 . S
N222 C221 1.317 . S
N222 N226 1.370 . S
N223 C221 1.348 . S
N223 C225 1.346 . S
C224 C221 1.485 . S
C224 H228 0.960 . S
C224 H229 0.961 . S
C224 H230 0.960 . S
C225 N223 1.346 . S
C225 N226 1.307 . S
C225 C227 1.486 . S
N226 N222 1.370 . S
N226 C225 1.307 . S
C227 C225 1.486 . S
C227 H231 0.960 . S
C227 H232 0.960 . S
C227 H233 0.959 . S
H228 C224 0.960 . S
H229 C224 0.961 . S
H230 C224 0.960 . S
H231 C227 0.960 . S
H232 C227 0.960 . S
H233 C227 0.959 . S
Tb234 O237 2.453 . S
Tb234 O238 2.596 1_545 S
Tb234 O239 2.374 1_545 S
Tb234 O247 2.343 1_554 S
Tb234 O249 2.353 . S
Tb234 O251 2.427 . S
Tb234 O252 2.513 . S
C235 O239 1.251 . S
C235 O241 1.263 . S
Tb236 O238 2.343 . S
Tb236 O241 2.353 . S
Tb236 O244 2.427 . S
Tb236 O245 2.513 . S
Tb236 O246 2.455 1_554 S
Tb236 O247 2.596 1_564 S
Tb236 O248 2.374 1_565 S
O237 Tb234 2.453 . S
O237 C253 1.245 1_545 S
O238 Tb234 2.596 1_565 S
O238 Tb236 2.343 . S
O238 C253 1.259 . S
O239 Tb234 2.374 1_565 S
O239 C235 1.251 . S
C240 O244 1.275 . S
C240 O245 1.246 . S
O241 C235 1.263 . S
O241 Tb236 2.353 . S
C242 O246 1.239 1_545 S
C242 O247 1.259 . S
C243 O248 1.250 . S
C243 O249 1.263 . S
O244 Tb236 2.427 . S
O244 C240 1.275 . S
O245 Tb236 2.513 . S
O245 C240 1.246 . S
O246 Tb236 2.455 1_556 S
O246 C242 1.239 1_565 S
O247 Tb234 2.343 1_556 S
O247 Tb236 2.596 1_546 S
O247 C242 1.259 . S
O248 Tb236 2.374 1_545 S
O248 C243 1.250 . S
O249 Tb234 2.353 . S
O249 C243 1.263 . S
C250 O251 1.275 . S
C250 O252 1.246 . S
O251 Tb234 2.427 . S
O251 C250 1.275 . S
O252 Tb234 2.513 . S
O252 C250 1.246 . S
C253 O237 1.245 1_565 S
C253 O238 1.259 . S
Tb254 O257 2.453 . S
Tb254 O258 2.596 1_655 S
Tb254 O259 2.374 1_655 S
Tb254 O267 2.343 1_554 S
Tb254 O269 2.353 . S
Tb254 O271 2.427 1_554 S
Tb254 O272 2.513 1_554 S
C255 O259 1.251 . S
C255 O261 1.263 . S
Tb256 O258 2.343 1_556 S
Tb256 O261 2.353 1_556 S
Tb256 O264 2.427 1_556 S
Tb256 O265 2.513 1_556 S
Tb256 O266 2.453 . S
Tb256 O267 2.596 1_455 S
Tb256 O268 2.374 1_456 S
O257 Tb254 2.453 . S
O257 C273 1.245 1_655 S
O258 Tb254 2.596 1_455 S
O258 Tb256 2.343 1_554 S
O258 C273 1.259 . S
O259 Tb254 2.374 1_455 S
O259 C255 1.251 . S
C260 O264 1.275 . S
C260 O265 1.246 . S
O261 C255 1.263 . S
O261 Tb256 2.353 1_554 S
C262 O266 1.245 . S
C262 O267 1.259 1_455 S
C263 O268 1.250 . S
C263 O269 1.263 . S
O264 Tb256 2.427 1_554 S
O264 C260 1.275 . S
O265 Tb256 2.513 1_554 S
O265 C260 1.246 . S
O266 Tb256 2.453 . S
O266 C262 1.245 . S
O267 Tb254 2.343 1_556 S
O267 Tb256 2.596 1_655 S
O267 C262 1.259 1_655 S
O268 Tb256 2.374 1_654 S
O268 C263 1.250 . S
O269 Tb254 2.353 . S
O269 C263 1.263 . S
C270 O271 1.275 . S
C270 O272 1.246 . S
O271 Tb254 2.427 1_556 S
O271 C270 1.275 . S
O272 Tb254 2.513 1_556 S
O272 C270 1.246 . S
C273 O257 1.245 1_455 S
C273 O258 1.259 . S
Tb274 O277 2.453 1_554 S
Tb274 O278 2.596 . S
Tb274 O279 2.374 . S
Tb274 O287 2.343 . S
Tb274 O289 2.353 . S
Tb274 O291 2.427 . S
Tb274 O292 2.513 . S
C275 O279 1.251 . S
C275 O281 1.263 . S
Tb276 O278 2.343 . S
Tb276 O281 2.353 . S
Tb276 O284 2.427 . S
Tb276 O285 2.513 . S
Tb276 O286 2.453 . S
Tb276 O287 2.596 . S
Tb276 O288 2.374 . S
O277 Tb274 2.453 1_556 S
O277 C293 1.245 . S
O278 Tb274 2.596 . S
O278 Tb276 2.343 . S
O278 C293 1.259 1_554 S
O279 Tb274 2.374 . S
O279 C275 1.251 . S
C280 O284 1.275 . S
C280 O285 1.246 . S
O281 C275 1.263 . S
O281 Tb276 2.353 . S
C282 O286 1.245 . S
C282 O287 1.259 . S
C283 O288 1.250 . S
C283 O289 1.263 . S
O284 Tb276 2.427 . S
O284 C280 1.275 . S
O285 Tb276 2.513 . S
O285 C280 1.246 . S
O286 Tb276 2.453 . S
O286 C282 1.245 . S
O287 Tb274 2.343 . S
O287 Tb276 2.596 . S
O287 C282 1.259 . S
O288 Tb276 2.374 . S
O288 C283 1.250 . S
O289 Tb274 2.353 . S
O289 C283 1.263 . S
C290 O291 1.275 . S
C290 O292 1.246 . S
O291 Tb274 2.427 . S
O291 C290 1.275 . S
O292 Tb274 2.513 . S
O292 C290 1.246 . S
C293 O277 1.245 . S
C293 O278 1.259 1_556 S
Tb294 O297 2.453 . S
Tb294 O298 2.596 . S
Tb294 O299 2.374 . S
Tb294 O307 2.343 . S
Tb294 O309 2.353 . S
Tb294 O311 2.427 . S
Tb294 O312 2.513 . S
C295 O299 1.251 . S
C295 O301 1.263 . S
Tb296 O298 2.343 . S
Tb296 O301 2.353 . S
Tb296 O304 2.427 . S
Tb296 O305 2.513 . S
Tb296 O306 2.453 . S
Tb296 O307 2.596 . S
Tb296 O308 2.374 . S
O297 Tb294 2.453 . S
O297 C313 1.245 . S
O298 Tb294 2.596 . S
O298 Tb296 2.343 . S
O298 C313 1.259 . S
O299 Tb294 2.374 . S
O299 C295 1.251 . S
C300 O304 1.275 . S
C300 O305 1.246 . S
O301 C295 1.263 . S
O301 Tb296 2.353 . S
C302 O306 1.245 . S
C302 O307 1.259 . S
C303 O308 1.250 . S
C303 O309 1.263 . S
O304 Tb296 2.427 . S
O304 C300 1.275 . S
O305 Tb296 2.513 . S
O305 C300 1.246 . S
O306 Tb296 2.453 . S
O306 C302 1.245 . S
O307 Tb294 2.343 . S
O307 Tb296 2.596 . S
O307 C302 1.259 . S
O308 Tb296 2.374 . S
O308 C303 1.250 . S
O309 Tb294 2.353 . S
O309 C303 1.263 . S
C310 O311 1.275 . S
C310 O312 1.246 . S
O311 Tb294 2.427 . S
O311 C310 1.275 . S
O312 Tb294 2.513 . S
O312 C310 1.246 . S
C313 O297 1.245 . S
C313 O298 1.259 . S
Tb314 O317 2.453 . S
Tb314 O318 2.596 . S
Tb314 O319 2.374 . S
Tb314 O327 2.343 . S
Tb314 O329 2.353 . S
Tb314 O331 2.427 . S
Tb314 O332 2.513 . S
C315 O319 1.251 . S
C315 O321 1.263 . S
Tb316 O318 2.343 . S
Tb316 O321 2.353 . S
Tb316 O324 2.427 . S
Tb316 O325 2.513 . S
Tb316 O326 2.453 . S
Tb316 O327 2.596 . S
Tb316 O328 2.374 . S
O317 Tb314 2.453 . S
O317 C333 1.245 . S
O318 Tb314 2.596 . S
O318 Tb316 2.343 . S
O318 C333 1.259 . S
O319 Tb314 2.374 . S
O319 C315 1.251 . S
C320 O324 1.275 . S
C320 O325 1.246 . S
O321 C315 1.263 . S
O321 Tb316 2.353 . S
C322 O326 1.245 . S
C322 O327 1.259 . S
C323 O328 1.250 . S
C323 O329 1.263 . S
O324 Tb316 2.427 . S
O324 C320 1.275 . S
O325 Tb316 2.513 . S
O325 C320 1.246 . S
O326 Tb316 2.453 . S
O326 C322 1.245 . S
O327 Tb314 2.343 . S
O327 Tb316 2.596 . S
O327 C322 1.259 . S
O328 Tb316 2.374 . S
O328 C323 1.250 . S
O329 Tb314 2.353 . S
O329 C323 1.263 . S
C330 O331 1.275 . S
C330 O332 1.246 . S
O331 Tb314 2.427 . S
O331 C330 1.275 . S
O332 Tb314 2.513 . S
O332 C330 1.246 . S
C333 O317 1.245 . S
C333 O318 1.259 . S
Tb334 O337 2.453 . S
Tb334 O338 2.596 . S
Tb334 O339 2.374 . S
Tb334 O347 2.343 . S
Tb334 O349 2.353 . S
Tb334 O351 2.427 . S
Tb334 O352 2.513 . S
C335 O339 1.251 . S
C335 O341 1.263 . S
Tb336 O338 2.343 . S
Tb336 O341 2.353 . S
Tb336 O344 2.427 . S
Tb336 O345 2.513 . S
Tb336 O346 2.453 . S
Tb336 O347 2.596 . S
Tb336 O348 2.374 . S
O337 Tb334 2.453 . S
O337 C353 1.245 . S
O338 Tb334 2.596 . S
O338 Tb336 2.343 . S
O338 C353 1.259 . S
O339 Tb334 2.374 . S
O339 C335 1.251 . S
C340 O344 1.275 . S
C340 O345 1.246 . S
O341 C335 1.263 . S
O341 Tb336 2.353 . S
C342 O346 1.245 . S
C342 O347 1.259 . S
C343 O348 1.250 . S
C343 O349 1.263 . S
O344 Tb336 2.427 . S
O344 C340 1.275 . S
O345 Tb336 2.513 . S
O345 C340 1.246 . S
O346 Tb336 2.453 . S
O346 C342 1.245 . S
O347 Tb334 2.343 . S
O347 Tb336 2.596 . S
O347 C342 1.259 . S
O348 Tb336 2.374 . S
O348 C343 1.250 . S
O349 Tb334 2.353 . S
O349 C343 1.263 . S
C350 O351 1.275 . S
C350 O352 1.246 . S
O351 Tb334 2.427 . S
O351 C350 1.275 . S
O352 Tb334 2.513 . S
O352 C350 1.246 . S
C353 O337 1.245 . S
C353 O338 1.259 . S
Tb354 O357 2.453 . S
Tb354 O358 2.596 . S
Tb354 O359 2.374 . S
Tb354 O367 2.343 . S
Tb354 O369 2.353 . S
Tb354 O371 2.427 . S
Tb354 O372 2.513 . S
C355 O359 1.251 . S
C355 O361 1.263 . S
Tb356 O358 2.343 . S
Tb356 O361 2.353 . S
Tb356 O364 2.427 . S
Tb356 O365 2.513 . S
Tb356 O366 2.453 . S
Tb356 O367 2.596 . S
Tb356 O368 2.374 . S
O357 Tb354 2.453 . S
O357 C373 1.245 . S
O358 Tb354 2.596 . S
O358 Tb356 2.343 . S
O358 C373 1.259 . S
O359 Tb354 2.374 . S
O359 C355 1.251 . S
C360 O364 1.275 . S
C360 O365 1.246 . S
O361 C355 1.263 . S
O361 Tb356 2.353 . S
C362 O366 1.245 . S
C362 O367 1.259 . S
C363 O368 1.250 . S
C363 O369 1.263 . S
O364 Tb356 2.427 . S
O364 C360 1.275 . S
O365 Tb356 2.513 . S
O365 C360 1.246 . S
O366 Tb356 2.453 . S
O366 C362 1.245 . S
O367 Tb354 2.343 . S
O367 Tb356 2.596 . S
O367 C362 1.259 . S
O368 Tb356 2.374 . S
O368 C363 1.250 . S
O369 Tb354 2.353 . S
O369 C363 1.263 . S
C370 O371 1.275 . S
C370 O372 1.246 . S
O371 Tb354 2.427 . S
O371 C370 1.275 . S
O372 Tb354 2.513 . S
O372 C370 1.246 . S
C373 O357 1.245 . S
C373 O358 1.259 . S
Tb374 O377 2.453 . S
Tb374 O378 2.596 . S
Tb374 O379 2.374 . S
Tb374 O387 2.343 . S
Tb374 O389 2.353 . S
Tb374 O391 2.427 . S
Tb374 O392 2.513 . S
C375 O379 1.251 . S
C375 O381 1.263 . S
Tb376 O378 2.343 . S
Tb376 O381 2.353 . S
Tb376 O384 2.427 . S
Tb376 O385 2.513 . S
Tb376 O386 2.453 . S
Tb376 O387 2.596 . S
Tb376 O388 2.374 . S
O377 Tb374 2.453 . S
O377 C393 1.245 . S
O378 Tb374 2.596 . S
O378 Tb376 2.343 . S
O378 C393 1.259 . S
O379 Tb374 2.374 . S
O379 C375 1.251 . S
C380 O384 1.275 . S
C380 O385 1.246 . S
O381 C375 1.263 . S
O381 Tb376 2.353 . S
C382 O386 1.245 . S
C382 O387 1.259 . S
C383 O388 1.250 . S
C383 O389 1.263 . S
O384 Tb376 2.427 . S
O384 C380 1.275 . S
O385 Tb376 2.513 . S
O385 C380 1.246 . S
O386 Tb376 2.453 . S
O386 C382 1.245 . S
O387 Tb374 2.343 . S
O387 Tb376 2.596 . S
O387 C382 1.259 . S
O388 Tb376 2.374 . S
O388 C383 1.250 . S
O389 Tb374 2.353 . S
O389 C383 1.263 . S
C390 O391 1.275 . S
C390 O392 1.246 . S
O391 Tb374 2.427 . S
O391 C390 1.275 . S
O392 Tb374 2.513 . S
O392 C390 1.246 . S
C393 O377 1.245 . S
C393 O378 1.259 . S
Tb394 O397 2.453 . S
Tb394 O398 2.596 . S
Tb394 O399 2.374 . S
Tb394 O407 2.343 . S
Tb394 O409 2.353 . S
Tb394 O411 2.427 . S
Tb394 O412 2.513 . S
C395 O399 1.251 . S
C395 O401 1.263 . S
Tb396 O398 2.343 . S
Tb396 O401 2.353 . S
Tb396 O404 2.427 . S
Tb396 O405 2.513 . S
Tb396 O406 2.453 . S
Tb396 O407 2.596 . S
Tb396 O408 2.374 . S
O397 Tb394 2.453 . S
O397 C413 1.245 . S
O398 Tb394 2.596 . S
O398 Tb396 2.343 . S
O398 C413 1.259 . S
O399 Tb394 2.374 . S
O399 C395 1.251 . S
C400 O404 1.275 . S
C400 O405 1.246 . S
O401 C395 1.263 . S
O401 Tb396 2.353 . S
C402 O406 1.245 . S
C402 O407 1.259 . S
C403 O408 1.250 . S
C403 O409 1.263 . S
O404 Tb396 2.427 . S
O404 C400 1.275 . S
O405 Tb396 2.513 . S
O405 C400 1.246 . S
O406 Tb396 2.453 . S
O406 C402 1.245 . S
O407 Tb394 2.343 . S
O407 Tb396 2.596 . S
O407 C402 1.259 . S
O408 Tb396 2.374 . S
O408 C403 1.250 . S
O409 Tb394 2.353 . S
O409 C403 1.263 . S
C410 O411 1.275 . S
C410 O412 1.246 . S
O411 Tb394 2.427 . S
O411 C410 1.275 . S
O412 Tb394 2.513 . S
O412 C410 1.246 . S
C413 O397 1.245 . S
C413 O398 1.259 . S
H414 C420 0.930 . S
H415 C424 0.930 . S
H416 C429 0.929 . S
H417 C427 0.929 . S
H418 C422 0.929 . S
H419 C428 0.929 . S
C420 H414 0.930 . S
C420 C421 1.367 . S
C420 C428 1.378 . S
C421 C420 1.367 . S
C421 C429 1.433 . S
C422 H418 0.929 . S
C422 C424 1.378 . S
C422 C426 1.350 . S
C423 C426 1.463 . S
C423 C428 1.350 . S
C423 N431 1.427 . S
C424 H415 0.930 . S
C424 C422 1.378 . S
C424 C425 1.367 . S
C425 C424 1.367 . S
C425 C427 1.433 . S
C426 C422 1.350 . S
C426 C423 1.463 . S
C426 N430 1.427 . S
C427 H417 0.929 . S
C427 C425 1.433 . S
C427 N430 1.384 . S
C428 H419 0.929 . S
C428 C420 1.378 . S
C428 C423 1.350 . S
C429 H416 0.929 . S
C429 C421 1.433 . S
C429 N431 1.384 . S
N430 C426 1.427 . S
N430 C427 1.384 . S
N431 C423 1.427 . S
N431 C429 1.384 . S
H432 C438 0.930 . S
H433 C442 0.930 . S
H434 C447 0.929 . S
H435 C445 0.929 . S
H436 C440 0.929 . S
H437 C446 0.929 . S
C438 H432 0.930 . S
C438 C439 1.367 . S
C438 C446 1.378 . S
C439 C438 1.367 . S
C439 C447 1.433 . S
C440 H436 0.929 . S
C440 C442 1.378 . S
C440 C444 1.350 . S
C441 C444 1.463 . S
C441 C446 1.350 . S
C441 N449 1.427 . S
C442 H433 0.930 . S
C442 C440 1.378 . S
C442 C443 1.367 . S
C443 C442 1.367 . S
C443 C445 1.433 . S
C444 C440 1.350 . S
C444 C441 1.463 . S
C444 N448 1.427 . S
C445 H435 0.929 . S
C445 C443 1.433 . S
C445 N448 1.384 . S
C446 H437 0.929 . S
C446 C438 1.378 . S
C446 C441 1.350 . S
C447 H434 0.929 . S
C447 C439 1.433 . S
C447 N449 1.384 . S
N448 C444 1.427 . S
N448 C445 1.384 . S
N449 C441 1.427 . S
N449 C447 1.384 . S
H450 C456 0.930 . S
H451 C460 0.930 . S
H452 C465 0.929 . S
H453 C463 0.929 . S
H454 C458 0.929 . S
H455 C464 0.929 . S
C456 H450 0.930 . S
C456 C457 1.367 . S
C456 C464 1.378 . S
C457 C456 1.367 . S
C457 C465 1.433 . S
C458 H454 0.929 . S
C458 C460 1.378 . S
C458 C462 1.350 . S
C459 C462 1.463 . S
C459 C464 1.350 . S
C459 N467 1.427 . S
C460 H451 0.930 . S
C460 C458 1.378 . S
C460 C461 1.367 . S
C461 C460 1.367 . S
C461 C463 1.433 . S
C462 C458 1.350 . S
C462 C459 1.463 . S
C462 N466 1.427 . S
C463 H453 0.929 . S
C463 C461 1.433 . S
C463 N466 1.384 . S
C464 H455 0.929 . S
C464 C456 1.378 . S
C464 C459 1.350 . S
C465 H452 0.929 . S
C465 C457 1.433 . S
C465 N467 1.384 . S
N466 C462 1.427 . S
N466 C463 1.384 . S
N467 C459 1.427 . S
N467 C465 1.384 . S
H468 C474 0.930 . S
H469 C478 0.930 . S
H470 C483 0.929 1_554 S
H471 C481 0.929 . S
H472 C476 0.929 . S
H473 C482 0.929 . S
C474 H468 0.930 . S
C474 C475 1.367 . S
C474 C482 1.378 . S
C475 C474 1.367 . S
C475 C483 1.433 . S
C476 H472 0.929 . S
C476 C478 1.378 . S
C476 C480 1.350 1_554 S
C477 C480 1.463 . S
C477 C482 1.350 . S
C477 N485 1.427 . S
C478 H469 0.930 . S
C478 C476 1.378 . S
C478 C479 1.367 1_554 S
C479 C478 1.367 1_556 S
C479 C481 1.433 . S
C480 C476 1.350 1_556 S
C480 C477 1.463 . S
C480 N484 1.427 . S
C481 H471 0.929 . S
C481 C479 1.433 . S
C481 N484 1.384 . S
C482 H473 0.929 . S
C482 C474 1.378 . S
C482 C477 1.350 . S
C483 H470 0.929 1_556 S
C483 C475 1.433 . S
C483 N485 1.384 . S
N484 C480 1.427 . S
N484 C481 1.384 . S
N485 C477 1.427 . S
N485 C483 1.384 . S
H486 C492 0.930 . S
H487 C496 0.937 . S
H488 C501 0.929 . S
H489 C499 0.929 . S
H490 C494 0.929 . S
H491 C500 0.929 . S
C492 H486 0.930 . S
C492 C493 1.367 . S
C492 C500 1.378 . S
C493 C492 1.367 . S
C493 C501 1.433 . S
C494 H490 0.929 . S
C494 C496 1.378 . S
C494 C498 1.350 . S
C495 C498 1.463 . S
C495 C500 1.350 . S
C495 N503 1.427 . S
C496 H487 0.937 . S
C496 C494 1.378 . S
C496 C497 1.367 . S
C497 C496 1.367 . S
C497 C499 1.433 . S
C498 C494 1.350 . S
C498 C495 1.463 . S
C498 N502 1.427 . S
C499 H489 0.929 . S
C499 C497 1.433 . S
C499 N502 1.384 . S
C500 H491 0.929 . S
C500 C492 1.378 . S
C500 C495 1.350 . S
C501 H488 0.929 . S
C501 C493 1.433 . S
C501 N503 1.384 . S
N502 C498 1.427 . S
N502 C499 1.384 . S
N503 C495 1.427 . S
N503 C501 1.384 . S
H504 C510 0.934 . S
H505 C514 0.930 . S
H506 C519 0.929 . S
H507 C517 0.929 . S
H508 C512 0.929 . S
H509 C518 0.929 1_554 S
C510 H504 0.934 . S
C510 C511 1.367 . S
C510 C518 1.378 . S
C511 C510 1.367 . S
C511 C519 1.433 . S
C512 H508 0.929 . S
C512 C514 1.378 . S
C512 C516 1.350 . S
C513 C516 1.463 . S
C513 C518 1.350 . S
C513 N521 1.427 . S
C514 H505 0.930 . S
C514 C512 1.378 . S
C514 C515 1.367 1_556 S
C515 C514 1.367 1_554 S
C515 C517 1.433 . S
C516 C512 1.350 . S
C516 C513 1.463 . S
C516 N520 1.427 1_556 S
C517 H507 0.929 . S
C517 C515 1.433 . S
C517 N520 1.384 . S
C518 H509 0.929 1_556 S
C518 C510 1.378 . S
C518 C513 1.350 . S
C519 H506 0.929 . S
C519 C511 1.433 . S
C519 N521 1.384 . S
N520 C516 1.427 1_554 S
N520 C517 1.384 . S
N521 C513 1.427 . S
N521 C519 1.384 . S
H522 C528 0.930 . S
H523 C532 0.930 . S
H524 C537 0.929 1_554 S
H525 C535 0.929 . S
H526 C530 0.929 . S
H527 C536 0.929 . S
C528 H522 0.930 . S
C528 C529 1.367 . S
C528 C536 1.378 . S
C529 C528 1.367 . S
C529 C537 1.433 . S
C530 H526 0.929 . S
C530 C532 1.378 . S
C530 C534 1.350 1_554 S
C531 C534 1.463 . S
C531 C536 1.350 . S
C531 N539 1.399 1_556 S
C532 H523 0.930 . S
C532 C530 1.378 . S
C532 C533 1.367 1_554 S
C533 C532 1.367 1_556 S
C533 C535 1.433 . S
C534 C530 1.350 1_556 S
C534 C531 1.463 . S
C534 N538 1.427 . S
C535 H525 0.929 . S
C535 C533 1.433 . S
C535 N538 1.384 . S
C536 H527 0.929 . S
C536 C528 1.378 . S
C536 C531 1.350 . S
C537 H524 0.929 1_556 S
C537 C529 1.433 . S
C537 N539 1.376 1_556 S
N538 C534 1.427 . S
N538 C535 1.384 . S
N539 C531 1.399 1_554 S
N539 C537 1.376 1_554 S
H540 C546 0.930 . S
H541 C550 0.930 . S
H542 C555 0.929 . S
H543 C553 0.929 . S
H544 C548 0.929 . S
H545 C554 0.929 . S
C546 H540 0.930 . S
C546 C547 1.367 . S
C546 C554 1.378 . S
C547 C546 1.367 . S
C547 C555 1.433 . S
C548 H544 0.929 . S
C548 C550 1.378 . S
C548 C552 1.350 . S
C549 C552 1.463 . S
C549 C554 1.350 . S
C549 N557 1.427 . S
C550 H541 0.930 . S
C550 C548 1.378 . S
C550 C551 1.367 . S
C551 C550 1.367 . S
C551 C553 1.433 . S
C552 C548 1.350 . S
C552 C549 1.463 . S
C552 N556 1.427 . S
C553 H543 0.929 . S
C553 C551 1.433 . S
C553 N556 1.384 . S
C554 H545 0.929 . S
C554 C546 1.378 . S
C554 C549 1.350 . S
C555 H542 0.929 . S
C555 C547 1.433 . S
C555 N557 1.384 . S
N556 C552 1.427 . S
N556 C553 1.384 . S
N557 C549 1.427 . S
N557 C555 1.384 . S
H558 C564 0.930 . S
H559 C568 0.930 . S
H560 C573 0.929 . S
H561 C571 0.929 . S
H562 C566 0.929 . S
H563 C572 0.929 . S
C564 H558 0.930 . S
C564 C565 1.367 . S
C564 C572 1.378 . S
C565 C564 1.367 . S
C565 C573 1.433 1_556 S
C566 H562 0.929 . S
C566 C568 1.378 . S
C566 C570 1.350 . S
C567 C570 1.463 1_556 S
C567 C572 1.350 . S
C567 N575 1.427 1_556 S
C568 H559 0.930 . S
C568 C566 1.378 . S
C568 C569 1.367 . S
C569 C568 1.367 . S
C569 C571 1.433 1_554 S
C570 C566 1.350 . S
C570 C567 1.463 1_554 S
C570 N574 1.427 1_554 S
C571 H561 0.929 . S
C571 C569 1.433 1_556 S
C571 N574 1.384 . S
C572 H563 0.929 . S
C572 C564 1.378 . S
C572 C567 1.350 . S
C573 H560 0.929 . S
C573 C565 1.433 1_554 S
C573 N575 1.384 . S
N574 C570 1.427 1_556 S
N574 C571 1.384 . S
N575 C567 1.427 1_554 S
N575 C573 1.384 . S
H576 C582 0.930 . S
H577 C586 0.930 . S
H578 C591 0.929 . S
H579 C589 0.929 1_556 S
H580 C584 0.929 . S
H581 C590 0.929 . S
C582 H576 0.930 . S
C582 C583 1.367 . S
C582 C590 1.378 . S
C583 C582 1.367 . S
C583 C591 1.433 . S
C584 H580 0.929 . S
C584 C586 1.378 . S
C584 C588 1.350 . S
C585 C588 1.463 . S
C585 C590 1.350 . S
C585 N593 1.427 . S
C586 H577 0.930 . S
C586 C584 1.378 . S
C586 C587 1.367 . S
C587 C586 1.367 . S
C587 C589 1.433 . S
C588 C584 1.350 . S
C588 C585 1.463 . S
C588 N592 1.427 . S
C589 H579 0.929 1_554 S
C589 C587 1.433 . S
C589 N592 1.384 . S
C590 H581 0.929 . S
C590 C582 1.378 . S
C590 C585 1.350 . S
C591 H578 0.929 . S
C591 C583 1.433 . S
C591 N593 1.384 . S
N592 C588 1.427 . S
N592 C589 1.384 . S
N593 C585 1.427 . S
N593 C591 1.384 . S
H594 C600 0.930 . S
H595 C604 0.930 . S
H596 C609 0.929 . S
H597 C607 0.929 . S
H598 C602 0.929 . S
H599 C608 0.929 . S
C600 H594 0.930 . S
C600 C601 1.367 . S
C600 C608 1.378 . S
C601 C600 1.367 . S
C601 C609 1.433 . S
C602 H598 0.929 . S
C602 C604 1.378 . S
C602 C606 1.350 . S
C603 C606 1.463 . S
C603 C608 1.350 . S
C603 N611 1.427 . S
C604 H595 0.930 . S
C604 C602 1.378 . S
C604 C605 1.367 . S
C605 C604 1.367 . S
C605 C607 1.433 . S
C606 C602 1.350 . S
C606 C603 1.463 . S
C606 N610 1.427 . S
C607 H597 0.929 . S
C607 C605 1.433 . S
C607 N610 1.384 . S
C608 H599 0.929 . S
C608 C600 1.378 . S
C608 C603 1.350 . S
C609 H596 0.929 . S
C609 C601 1.433 . S
C609 N611 1.384 . S
N610 C606 1.427 . S
N610 C607 1.384 . S
N611 C603 1.427 . S
N611 C609 1.384 . S
H612 C618 0.930 . S
H613 C622 0.930 . S
H614 C627 0.929 . S
H615 C625 0.929 . S
H616 C620 0.929 . S
H617 C626 0.929 . S
C618 H612 0.930 . S
C618 C619 1.367 . S
C618 C626 1.378 . S
C619 C618 1.367 . S
C619 C627 1.433 . S
C620 H616 0.929 . S
C620 C622 1.378 . S
C620 C624 1.350 . S
C621 C624 1.463 . S
C621 C626 1.350 . S
C621 N629 1.427 . S
C622 H613 0.930 . S
C622 C620 1.378 . S
C622 C623 1.367 . S
C623 C622 1.367 . S
C623 C625 1.433 . S
C624 C620 1.350 . S
C624 C621 1.463 . S
C624 N628 1.427 . S
C625 H615 0.929 . S
C625 C623 1.433 . S
C625 N628 1.384 . S
C626 H617 0.929 . S
C626 C618 1.378 . S
C626 C621 1.350 . S
C627 H614 0.929 . S
C627 C619 1.433 . S
C627 N629 1.384 . S
N628 C624 1.427 . S
N628 C625 1.384 . S
N629 C621 1.427 . S
N629 C627 1.384 . S
H630 C636 0.930 . S
H631 C640 0.930 . S
H632 C645 0.929 . S
H633 C643 0.929 . S
H634 C638 0.929 . S
H635 C644 0.929 . S
C636 H630 0.930 . S
C636 C637 1.367 . S
C636 C644 1.378 . S
C637 C636 1.367 . S
C637 C645 1.433 . S
C638 H634 0.929 . S
C638 C640 1.378 . S
C638 C642 1.350 . S
C639 C642 1.463 1_655 S
C639 C644 1.350 . S
C639 N647 1.427 . S
C640 H631 0.930 . S
C640 C638 1.378 . S
C640 C641 1.367 . S
C641 C640 1.367 . S
C641 C643 1.433 . S
C642 C638 1.350 . S
C642 C639 1.463 1_455 S
C642 N646 1.427 . S
C643 H633 0.929 . S
C643 C641 1.433 . S
C643 N646 1.384 . S
C644 H635 0.929 . S
C644 C636 1.378 . S
C644 C639 1.350 . S
C645 H632 0.929 . S
C645 C637 1.433 . S
C645 N647 1.384 . S
N646 C642 1.427 . S
N646 C643 1.384 . S
N647 C639 1.427 . S
N647 C645 1.384 . S
H648 C654 0.930 . S
H649 C658 0.930 . S
H650 C663 0.929 . S
H651 C661 0.929 . S
H652 C656 0.929 . S
H653 C662 0.929 . S
C654 H648 0.930 . S
C654 C655 1.367 . S
C654 C662 1.378 . S
C655 C654 1.367 . S
C655 C663 1.433 . S
C656 H652 0.929 . S
C656 C658 1.378 . S
C656 C660 1.350 . S
C657 C660 1.463 . S
C657 C662 1.350 . S
C657 N665 1.427 . S
C658 H649 0.930 . S
C658 C656 1.378 . S
C658 C659 1.367 . S
C659 C658 1.367 . S
C659 C661 1.433 . S
C660 C656 1.350 . S
C660 C657 1.463 . S
C660 N664 1.427 . S
C661 H651 0.929 . S
C661 C659 1.433 . S
C661 N664 1.384 . S
C662 H653 0.929 . S
C662 C654 1.378 . S
C662 C657 1.350 . S
C663 H650 0.929 . S
C663 C655 1.433 . S
C663 N665 1.384 . S
N664 C660 1.427 . S
N664 C661 1.384 . S
N665 C657 1.427 . S
N665 C663 1.384 . S
H666 C672 0.930 . S
H667 C676 0.930 . S
H668 C681 0.929 . S
H669 C679 0.929 . S
H670 C674 0.929 . S
H671 C680 0.929 . S
C672 H666 0.930 . S
C672 C673 1.367 . S
C672 C680 1.378 . S
C673 C672 1.367 . S
C673 C681 1.433 . S
C674 H670 0.929 . S
C674 C676 1.378 . S
C674 C678 1.350 . S
C675 C678 1.463 1_545 S
C675 C680 1.350 . S
C675 N683 1.427 . S
C676 H667 0.930 . S
C676 C674 1.378 . S
C676 C677 1.367 . S
C677 C676 1.367 . S
C677 C679 1.433 . S
C678 C674 1.350 . S
C678 C675 1.463 1_565 S
C678 N682 1.427 . S
C679 H669 0.929 . S
C679 C677 1.433 . S
C679 N682 1.384 . S
C680 H671 0.929 . S
C680 C672 1.378 . S
C680 C675 1.350 . S
C681 H668 0.929 . S
C681 C673 1.433 . S
C681 N683 1.384 . S
N682 C678 1.427 . S
N682 C679 1.384 . S
N683 C675 1.427 . S
N683 C681 1.384 . S
H684 C690 0.930 . S
H685 C694 0.930 . S
H686 C699 0.929 . S
H687 C697 0.929 . S
H688 C692 0.929 . S
H689 C698 0.929 . S
C690 H684 0.930 . S
C690 C691 1.367 . S
C690 C698 1.378 . S
C691 C690 1.367 . S
C691 C699 1.433 . S
C692 H688 0.929 . S
C692 C694 1.378 . S
C692 C696 1.350 . S
C693 C696 1.463 . S
C693 C698 1.350 . S
C693 N701 1.427 . S
C694 H685 0.930 . S
C694 C692 1.378 . S
C694 C695 1.367 . S
C695 C694 1.367 . S
C695 C697 1.433 . S
C696 C692 1.350 . S
C696 C693 1.463 . S
C696 N700 1.427 . S
C697 H687 0.929 . S
C697 C695 1.433 . S
C697 N700 1.384 . S
C698 H689 0.929 . S
C698 C690 1.378 . S
C698 C693 1.350 . S
C699 H686 0.929 . S
C699 C691 1.433 . S
C699 N701 1.384 . S
N700 C696 1.427 . S
N700 C697 1.384 . S
N701 C693 1.427 . S
N701 C699 1.384 . S
H702 C708 0.930 . S
H703 C712 0.930 . S
H704 C717 0.929 . S
H705 C715 0.929 . S
H706 C710 0.929 . S
H707 C716 0.929 . S
C708 H702 0.930 . S
C708 C709 1.367 . S
C708 C716 1.378 . S
C709 C708 1.367 . S
C709 C717 1.433 . S
C710 H706 0.929 . S
C710 C712 1.378 . S
C710 C714 1.350 . S
C711 C714 1.463 . S
C711 C716 1.350 . S
C711 N719 1.427 . S
C712 H703 0.930 . S
C712 C710 1.378 . S
C712 C713 1.367 . S
C713 C712 1.367 . S
C713 C715 1.433 . S
C714 C710 1.350 . S
C714 C711 1.463 . S
C714 N718 1.427 . S
C715 H705 0.929 . S
C715 C713 1.433 . S
C715 N718 1.384 . S
C716 H707 0.929 . S
C716 C708 1.378 . S
C716 C711 1.350 . S
C717 H704 0.929 . S
C717 C709 1.433 . S
C717 N719 1.384 . S
N718 C714 1.427 . S
N718 C715 1.384 . S
N719 C711 1.427 . S
N719 C717 1.384 . S
H720 C726 0.930 . S
H721 C730 0.930 . S
H722 C735 0.929 . S
H723 C733 0.929 . S
H724 C728 0.929 . S
H725 C734 0.929 . S
C726 H720 0.930 . S
C726 C727 1.367 . S
C726 C734 1.378 . S
C727 C726 1.367 . S
C727 C735 1.433 . S
C728 H724 0.929 . S
C728 C730 1.378 . S
C728 C732 1.350 . S
C729 C732 1.463 . S
C729 C734 1.350 . S
C729 N737 1.427 . S
C730 H721 0.930 . S
C730 C728 1.378 . S
C730 C731 1.367 . S
C731 C730 1.367 . S
C731 C733 1.433 . S
C732 C728 1.350 . S
C732 C729 1.463 . S
C732 N736 1.427 . S
C733 H723 0.929 . S
C733 C731 1.433 . S
C733 N736 1.384 . S
C734 H725 0.929 . S
C734 C726 1.378 . S
C734 C729 1.350 . S
C735 H722 0.929 . S
C735 C727 1.433 . S
C735 N737 1.384 . S
N736 C732 1.427 . S
N736 C733 1.384 . S
N737 C729 1.427 . S
N737 C735 1.384 . S
H738 C744 0.930 . S
H739 C748 0.930 . S
H740 C753 0.929 . S
H741 C751 0.929 . S
H742 C746 0.929 . S
H743 C752 0.929 . S
C744 H738 0.930 . S
C744 C745 1.367 . S
C744 C752 1.378 . S
C745 C744 1.367 . S
C745 C753 1.433 . S
C746 H742 0.929 . S
C746 C748 1.378 . S
C746 C750 1.350 . S
C747 C750 1.463 . S
C747 C752 1.350 . S
C747 N755 1.427 . S
C748 H739 0.930 . S
C748 C746 1.378 . S
C748 C749 1.367 . S
C749 C748 1.367 . S
C749 C751 1.433 . S
C750 C746 1.350 . S
C750 C747 1.463 . S
C750 N754 1.427 . S
C751 H741 0.929 . S
C751 C749 1.433 . S
C751 N754 1.384 . S
C752 H743 0.929 . S
C752 C744 1.378 . S
C752 C747 1.350 . S
C753 H740 0.929 . S
C753 C745 1.433 . S
C753 N755 1.384 . S
N754 C750 1.427 . S
N754 C751 1.384 . S
N755 C747 1.427 . S
N755 C753 1.384 . S
H756 C762 0.930 . S
H757 C766 0.930 . S
H758 C771 0.929 . S
H759 C769 0.929 . S
H760 C764 0.929 . S
H761 C770 0.929 . S
C762 H756 0.930 . S
C762 C763 1.367 . S
C762 C770 1.378 . S
C763 C762 1.367 . S
C763 C771 1.433 . S
C764 H760 0.929 . S
C764 C766 1.378 . S
C764 C768 1.350 . S
C765 C768 1.463 . S
C765 C770 1.350 . S
C765 N773 1.427 . S
C766 H757 0.930 . S
C766 C764 1.378 . S
C766 C767 1.367 . S
C767 C766 1.367 . S
C767 C769 1.433 . S
C768 C764 1.350 . S
C768 C765 1.463 . S
C768 N772 1.427 . S
C769 H759 0.929 . S
C769 C767 1.433 . S
C769 N772 1.384 . S
C770 H761 0.929 . S
C770 C762 1.378 . S
C770 C765 1.350 . S
C771 H758 0.929 . S
C771 C763 1.433 . S
C771 N773 1.384 . S
N772 C768 1.427 . S
N772 C769 1.384 . S
N773 C765 1.427 . S
N773 C771 1.384 . S
H774 C780 0.930 . S
H775 C784 0.930 . S
H776 C789 0.929 . S
H777 C787 0.929 . S
H778 C782 0.929 . S
H779 C788 0.929 . S
C780 H774 0.930 . S
C780 C781 1.367 . S
C780 C788 1.378 . S
C781 C780 1.367 . S
C781 C789 1.433 . S
C782 H778 0.929 . S
C782 C784 1.378 . S
C782 C786 1.350 . S
C783 C786 1.463 . S
C783 C788 1.350 . S
C783 N791 1.427 . S
C784 H775 0.930 . S
C784 C782 1.378 . S
C784 C785 1.367 . S
C785 C784 1.367 . S
C785 C787 1.433 . S
C786 C782 1.350 . S
C786 C783 1.463 . S
C786 N790 1.427 . S
C787 H777 0.929 . S
C787 C785 1.433 . S
C787 N790 1.384 . S
C788 H779 0.929 . S
C788 C780 1.378 . S
C788 C783 1.350 . S
C789 H776 0.929 . S
C789 C781 1.433 . S
C789 N791 1.384 . S
N790 C786 1.427 . S
N790 C787 1.384 . S
N791 C783 1.427 . S
N791 C789 1.384 . S
H792 C798 0.930 . S
H793 C802 0.930 . S
H794 C807 0.929 . S
H795 C805 0.929 . S
H796 C800 0.929 . S
H797 C806 0.929 . S
C798 H792 0.930 . S
C798 C799 1.367 . S
C798 C806 1.378 . S
C799 C798 1.367 . S
C799 C807 1.433 . S
C800 H796 0.929 . S
C800 C802 1.378 . S
C800 C804 1.350 . S
C801 C804 1.463 1_545 S
C801 C806 1.350 . S
C801 N809 1.427 . S
C802 H793 0.930 . S
C802 C800 1.378 . S
C802 C803 1.367 . S
C803 C802 1.367 . S
C803 C805 1.433 . S
C804 C800 1.350 . S
C804 C801 1.463 1_565 S
C804 N808 1.427 . S
C805 H795 0.929 . S
C805 C803 1.433 . S
C805 N808 1.384 . S
C806 H797 0.929 . S
C806 C798 1.378 . S
C806 C801 1.350 . S
C807 H794 0.929 . S
C807 C799 1.433 . S
C807 N809 1.384 . S
N808 C804 1.427 . S
N808 C805 1.384 . S
N809 C801 1.427 . S
N809 C807 1.384 . S
H810 C816 0.930 . S
H811 C820 0.930 . S
H812 C825 0.929 . S
H813 C823 0.929 . S
H814 C818 0.929 . S
H815 C824 0.929 1_455 S
C816 H810 0.930 . S
C816 C817 1.367 . S
C816 C824 1.378 . S
C817 C816 1.367 . S
C817 C825 1.433 . S
C818 H814 0.929 . S
C818 C820 1.378 . S
C818 C822 1.350 . S
C819 C822 1.463 1_655 S
C819 C824 1.350 . S
C819 N827 1.427 . S
C820 H811 0.930 . S
C820 C818 1.378 . S
C820 C821 1.367 . S
C821 C820 1.367 . S
C821 C823 1.433 . S
C822 C818 1.350 . S
C822 C819 1.463 1_455 S
C822 N826 1.427 . S
C823 H813 0.929 . S
C823 C821 1.433 . S
C823 N826 1.384 . S
C824 H815 0.929 1_655 S
C824 C816 1.378 . S
C824 C819 1.350 . S
C825 H812 0.929 . S
C825 C817 1.433 . S
C825 N827 1.384 . S
N826 C822 1.427 . S
N826 C823 1.384 . S
N827 C819 1.427 . S
N827 C825 1.384 . S
H828 C834 0.930 . S
H829 C838 0.930 . S
H830 C843 0.929 . S
H831 C841 0.929 . S
H832 C836 0.929 . S
H833 C842 0.929 . S
C834 H828 0.930 . S
C834 C835 1.367 . S
C834 C842 1.378 . S
C835 C834 1.367 . S
C835 C843 1.433 . S
C836 H832 0.929 . S
C836 C838 1.378 . S
C836 C840 1.350 . S
C837 C840 1.463 . S
C837 C842 1.350 . S
C837 N845 1.427 . S
C838 H829 0.930 . S
C838 C836 1.378 . S
C838 C839 1.367 . S
C839 C838 1.367 . S
C839 C841 1.433 . S
C840 C836 1.350 . S
C840 C837 1.463 . S
C840 N844 1.427 . S
C841 H831 0.929 . S
C841 C839 1.433 . S
C841 N844 1.384 . S
C842 H833 0.929 . S
C842 C834 1.378 . S
C842 C837 1.350 . S
C843 H830 0.929 . S
C843 C835 1.433 . S
C843 N845 1.384 . S
N844 C840 1.427 . S
N844 C841 1.384 . S
N845 C837 1.427 . S
N845 C843 1.384 . S
H846 C852 0.930 . S
H847 C856 0.930 . S
H848 C861 0.929 . S
H849 C859 0.929 . S
H850 C854 0.929 . S
H851 C860 0.929 . S
C852 H846 0.930 . S
C852 C853 1.367 . S
C852 C860 1.378 . S
C853 C852 1.367 . S
C853 C861 1.433 . S
C854 H850 0.929 . S
C854 C856 1.378 . S
C854 C858 1.350 . S
C855 C858 1.463 . S
C855 C860 1.350 . S
C855 N863 1.427 . S
C856 H847 0.930 . S
C856 C854 1.378 . S
C856 C857 1.367 . S
C857 C856 1.367 . S
C857 C859 1.433 . S
C858 C854 1.350 . S
C858 C855 1.463 . S
C858 N862 1.427 . S
C859 H849 0.929 . S
C859 C857 1.433 . S
C859 N862 1.384 . S
C860 H851 0.929 . S
C860 C852 1.378 . S
C860 C855 1.350 . S
C861 H848 0.929 . S
C861 C853 1.433 . S
C861 N863 1.384 . S
N862 C858 1.427 . S
N862 C859 1.384 . S
N863 C855 1.427 . S
N863 C861 1.384 . S
H864 C870 0.930 . S
H865 C874 0.930 . S
H866 C879 0.929 . S
H867 C877 0.929 . S
H868 C872 0.929 . S
H869 C878 0.929 . S
C870 H864 0.930 . S
C870 C871 1.367 . S
C870 C878 1.378 . S
C871 C870 1.367 . S
C871 C879 1.433 . S
C872 H868 0.929 . S
C872 C874 1.378 . S
C872 C876 1.350 . S
C873 C876 1.463 . S
C873 C878 1.350 . S
C873 N881 1.427 . S
C874 H865 0.930 . S
C874 C872 1.378 . S
C874 C875 1.367 . S
C875 C874 1.367 . S
C875 C877 1.433 . S
C876 C872 1.350 . S
C876 C873 1.463 . S
C876 N880 1.427 . S
C877 H867 0.929 . S
C877 C875 1.433 . S
C877 N880 1.384 . S
C878 H869 0.929 . S
C878 C870 1.378 . S
C878 C873 1.350 . S
C879 H866 0.929 . S
C879 C871 1.433 . S
C879 N881 1.384 . S
N880 C876 1.427 . S
N880 C877 1.384 . S
N881 C873 1.427 . S
N881 C879 1.384 . S
H882 C888 0.930 . S
H883 C892 0.930 . S
H884 C897 0.929 . S
H885 C895 0.929 . S
H886 C890 0.929 . S
H887 C896 0.929 . S
C888 H882 0.930 . S
C888 C889 1.367 . S
C888 C896 1.378 . S
C889 C888 1.367 . S
C889 C897 1.433 . S
C890 H886 0.929 . S
C890 C892 1.378 . S
C890 C894 1.350 . S
C891 C894 1.463 . S
C891 C896 1.350 . S
C891 N899 1.427 . S
C892 H883 0.930 . S
C892 C890 1.378 . S
C892 C893 1.367 . S
C893 C892 1.367 . S
C893 C895 1.433 . S
C894 C890 1.350 . S
C894 C891 1.463 . S
C894 N898 1.427 . S
C895 H885 0.929 . S
C895 C893 1.433 . S
C895 N898 1.384 . S
C896 H887 0.929 . S
C896 C888 1.378 . S
C896 C891 1.350 . S
C897 H884 0.929 . S
C897 C889 1.433 . S
C897 N899 1.384 . S
N898 C894 1.427 . S
N898 C895 1.384 . S
N899 C891 1.427 . S
N899 C897 1.384 . S
H900 C906 0.930 . S
H901 C910 0.930 . S
H902 C915 0.929 . S
H903 C913 0.929 . S
H904 C908 0.929 . S
H905 C914 0.929 . S
C906 H900 0.930 . S
C906 C907 1.367 . S
C906 C914 1.378 . S
C907 C906 1.367 . S
C907 C915 1.433 . S
C908 H904 0.929 . S
C908 C910 1.378 . S
C908 C912 1.350 . S
C909 C912 1.463 . S
C909 C914 1.350 1_545 S
C909 N917 1.429 1_545 S
C910 H901 0.930 . S
C910 C908 1.378 . S
C910 C911 1.367 . S
C911 C910 1.367 . S
C911 C913 1.433 . S
C912 C908 1.350 . S
C912 C909 1.463 . S
C912 N916 1.427 . S
C913 H903 0.929 . S
C913 C911 1.433 . S
C913 N916 1.384 . S
C914 H905 0.929 . S
C914 C906 1.378 . S
C914 C909 1.350 1_565 S
C915 H902 0.929 . S
C915 C907 1.433 . S
C915 N917 1.391 . S
N916 C912 1.427 . S
N916 C913 1.384 . S
N917 C909 1.429 1_565 S
N917 C915 1.391 . S
H918 C924 0.930 . S
H919 C928 0.930 . S
H920 C933 0.929 . S
H921 C931 0.929 . S
H922 C926 0.929 . S
H923 C932 0.929 . S
C924 H918 0.930 . S
C924 C925 1.367 . S
C924 C932 1.378 . S
C925 C924 1.367 . S
C925 C933 1.433 . S
C926 H922 0.929 . S
C926 C928 1.378 . S
C926 C930 1.350 . S
C927 C930 1.463 1_455 S
C927 C932 1.350 . S
C927 N935 1.427 . S
C928 H919 0.930 . S
C928 C926 1.378 . S
C928 C929 1.367 . S
C929 C928 1.367 . S
C929 C931 1.433 . S
C930 C926 1.350 . S
C930 C927 1.463 1_655 S
C930 N934 1.427 . S
C931 H921 0.929 . S
C931 C929 1.433 . S
C931 N934 1.384 . S
C932 H923 0.929 . S
C932 C924 1.378 . S
C932 C927 1.350 . S
C933 H920 0.929 . S
C933 C925 1.433 . S
C933 N935 1.384 . S
N934 C930 1.427 . S
N934 C931 1.384 . S
N935 C927 1.427 . S
N935 C933 1.384 . S
H936 C942 0.930 . S
H937 C946 0.930 . S
H938 C951 0.929 . S
H939 C949 0.929 . S
H940 C944 0.929 . S
H941 C950 0.929 . S
C942 H936 0.930 . S
C942 C943 1.367 . S
C942 C950 1.378 . S
C943 C942 1.367 . S
C943 C951 1.433 . S
C944 H940 0.929 . S
C944 C946 1.378 . S
C944 C948 1.350 . S
C945 C948 1.463 . S
C945 C950 1.350 . S
C945 N953 1.427 . S
C946 H937 0.930 . S
C946 C944 1.378 . S
C946 C947 1.367 . S
C947 C946 1.367 . S
C947 C949 1.433 . S
C948 C944 1.350 . S
C948 C945 1.463 . S
C948 N952 1.427 . S
C949 H939 0.929 . S
C949 C947 1.433 . S
C949 N952 1.384 . S
C950 H941 0.929 . S
C950 C942 1.378 . S
C950 C945 1.350 . S
C951 H938 0.929 . S
C951 C943 1.433 . S
C951 N953 1.384 . S
N952 C948 1.427 . S
N952 C949 1.384 . S
N953 C945 1.427 . S
N953 C951 1.384 . S
H954 C960 0.930 . S
H955 C964 0.930 . S
H956 C969 0.929 . S
H957 C967 0.929 . S
H958 C962 0.929 . S
H959 C968 0.929 . S
C960 H954 0.930 . S
C960 C961 1.367 . S
C960 C968 1.378 . S
C961 C960 1.367 . S
C961 C969 1.433 . S
C962 H958 0.929 . S
C962 C964 1.378 1_455 S
C962 C966 1.350 . S
C963 C966 1.463 . S
C963 C968 1.350 . S
C963 N971 1.427 . S
C964 H955 0.930 . S
C964 C962 1.378 1_655 S
C964 C965 1.367 . S
C965 C964 1.367 . S
C965 C967 1.433 . S
C966 C962 1.350 . S
C966 C963 1.463 . S
C966 N970 1.427 1_455 S
C967 H957 0.929 . S
C967 C965 1.433 . S
C967 N970 1.384 . S
C968 H959 0.929 . S
C968 C960 1.378 . S
C968 C963 1.350 . S
C969 H956 0.929 . S
C969 C961 1.433 . S
C969 N971 1.384 . S
N970 C966 1.427 1_655 S
N970 C967 1.384 . S
N971 C963 1.427 . S
N971 C969 1.384 . S
H972 C978 0.930 . S
H973 C982 0.930 . S
H974 C987 0.929 . S
H975 C985 0.929 . S
H976 C980 0.929 . S
H977 C986 0.929 . S
C978 H972 0.930 . S
C978 C979 1.367 . S
C978 C986 1.378 . S
C979 C978 1.367 . S
C979 C987 1.433 . S
C980 H976 0.929 . S
C980 C982 1.378 . S
C980 C984 1.350 . S
C981 C984 1.463 . S
C981 C986 1.350 . S
C981 N989 1.427 . S
C982 H973 0.930 . S
C982 C980 1.378 . S
C982 C983 1.367 . S
C983 C982 1.367 . S
C983 C985 1.433 . S
C984 C980 1.350 . S
C984 C981 1.463 . S
C984 N988 1.427 . S
C985 H975 0.929 . S
C985 C983 1.433 . S
C985 N988 1.384 . S
C986 H977 0.929 . S
C986 C978 1.378 . S
C986 C981 1.350 . S
C987 H974 0.929 . S
C987 C979 1.433 . S
C987 N989 1.384 . S
N988 C984 1.427 . S
N988 C985 1.384 . S
N989 C981 1.427 . S
N989 C987 1.384 . S
H990 C996 0.930 . S
H991 C1000 0.930 . S
H992 C1005 0.929 . S
H993 C1003 0.929 . S
H994 C998 0.929 . S
H995 C1004 0.929 . S
C996 H990 0.930 . S
C996 C997 1.367 . S
C996 C1004 1.378 . S
C997 C996 1.367 . S
C997 C1005 1.433 . S
C998 H994 0.929 . S
C998 C1000 1.378 . S
C998 C1002 1.350 . S
C999 C1002 1.463 1_565 S
C999 C1004 1.350 . S
C999 N1007 1.427 . S
C1000 H991 0.930 . S
C1000 C998 1.378 . S
C1000 C1001 1.367 . S
C1001 C1000 1.367 . S
C1001 C1003 1.433 . S
C1002 C998 1.350 . S
C1002 C999 1.463 1_545 S
C1002 N1006 1.427 . S
C1003 H993 0.929 . S
C1003 C1001 1.433 . S
C1003 N1006 1.384 . S
C1004 H995 0.929 . S
C1004 C996 1.378 . S
C1004 C999 1.350 . S
C1005 H992 0.929 . S
C1005 C997 1.433 . S
C1005 N1007 1.384 . S
N1006 C1002 1.427 . S
N1006 C1003 1.384 . S
N1007 C999 1.427 . S
N1007 C1005 1.384 . S
H1008 C1014 0.930 . S
H1009 C1018 0.930 . S
H1010 C1023 0.929 . S
H1011 C1021 0.929 . S
H1012 C1016 0.929 . S
H1013 C1022 0.929 . S
C1014 H1008 0.930 . S
C1014 C1015 1.367 . S
C1014 C1022 1.378 . S
C1015 C1014 1.367 . S
C1015 C1023 1.433 . S
C1016 H1012 0.929 . S
C1016 C1018 1.378 . S
C1016 C1020 1.350 . S
C1017 C1020 1.463 . S
C1017 C1022 1.350 . S
C1017 N1025 1.427 . S
C1018 H1009 0.930 . S
C1018 C1016 1.378 . S
C1018 C1019 1.367 . S
C1019 C1018 1.367 . S
C1019 C1021 1.433 . S
C1020 C1016 1.350 . S
C1020 C1017 1.463 . S
C1020 N1024 1.427 . S
C1021 H1011 0.929 . S
C1021 C1019 1.433 . S
C1021 N1024 1.384 . S
C1022 H1013 0.929 . S
C1022 C1014 1.378 . S
C1022 C1017 1.350 . S
C1023 H1010 0.929 . S
C1023 C1015 1.433 . S
C1023 N1025 1.384 . S
N1024 C1020 1.427 . S
N1024 C1021 1.384 . S
N1025 C1017 1.427 . S
N1025 C1023 1.384 . S
H1026 C1032 0.930 . S
H1027 C1036 0.930 . S
H1028 C1041 0.929 . S
H1029 C1039 0.929 . S
H1030 C1034 0.929 . S
H1031 C1040 0.929 . S
C1032 H1026 0.930 . S
C1032 C1033 1.367 . S
C1032 C1040 1.378 . S
C1033 C1032 1.367 . S
C1033 C1041 1.433 . S
C1034 H1030 0.929 . S
C1034 C1036 1.378 . S
C1034 C1038 1.350 . S
C1035 C1038 1.463 . S
C1035 C1040 1.350 . S
C1035 N1043 1.427 . S
C1036 H1027 0.930 . S
C1036 C1034 1.378 . S
C1036 C1037 1.367 . S
C1037 C1036 1.367 . S
C1037 C1039 1.433 . S
C1038 C1034 1.350 . S
C1038 C1035 1.463 . S
C1038 N1042 1.427 . S
C1039 H1029 0.929 . S
C1039 C1037 1.433 . S
C1039 N1042 1.384 . S
C1040 H1031 0.929 . S
C1040 C1032 1.378 . S
C1040 C1035 1.350 . S
C1041 H1028 0.929 . S
C1041 C1033 1.433 . S
C1041 N1043 1.384 . S
N1042 C1038 1.427 . S
N1042 C1039 1.384 . S
N1043 C1035 1.427 . S
N1043 C1041 1.384 . S
H1044 C1050 0.930 . S
H1045 C1054 0.930 . S
H1046 C1059 0.929 . S
H1047 C1057 0.929 . S
H1048 C1052 0.929 . S
H1049 C1058 0.929 . S
C1050 H1044 0.930 . S
C1050 C1051 1.367 . S
C1050 C1058 1.378 . S
C1051 C1050 1.367 . S
C1051 C1059 1.433 . S
C1052 H1048 0.929 . S
C1052 C1054 1.378 . S
C1052 C1056 1.350 . S
C1053 C1056 1.463 . S
C1053 C1058 1.350 . S
C1053 N1061 1.427 . S
C1054 H1045 0.930 . S
C1054 C1052 1.378 . S
C1054 C1055 1.367 . S
C1055 C1054 1.367 . S
C1055 C1057 1.433 . S
C1056 C1052 1.350 . S
C1056 C1053 1.463 . S
C1056 N1060 1.427 . S
C1057 H1047 0.929 . S
C1057 C1055 1.433 . S
C1057 N1060 1.384 . S
C1058 H1049 0.929 . S
C1058 C1050 1.378 . S
C1058 C1053 1.350 . S
C1059 H1046 0.929 . S
C1059 C1051 1.433 . S
C1059 N1061 1.384 . S
N1060 C1056 1.427 . S
N1060 C1057 1.384 . S
N1061 C1053 1.427 . S
N1061 C1059 1.384 . S
H1062 C1068 0.930 . S
H1063 C1072 0.930 . S
H1064 C1077 0.929 . S
H1065 C1075 0.929 1_545 S
H1066 C1070 0.929 . S
H1067 C1076 0.929 . S
C1068 H1062 0.930 . S
C1068 C1069 1.367 . S
C1068 C1076 1.378 . S
C1069 C1068 1.367 . S
C1069 C1077 1.433 . S
C1070 H1066 0.929 . S
C1070 C1072 1.378 . S
C1070 C1074 1.350 . S
C1071 C1074 1.463 . S
C1071 C1076 1.350 . S
C1071 N1079 1.427 . S
C1072 H1063 0.930 . S
C1072 C1070 1.378 . S
C1072 C1073 1.367 . S
C1073 C1072 1.367 . S
C1073 C1075 1.433 . S
C1074 C1070 1.350 . S
C1074 C1071 1.463 . S
C1074 N1078 1.427 . S
C1075 H1065 0.929 1_565 S
C1075 C1073 1.433 . S
C1075 N1078 1.384 . S
C1076 H1067 0.929 . S
C1076 C1068 1.378 . S
C1076 C1071 1.350 . S
C1077 H1064 0.929 . S
C1077 C1069 1.433 . S
C1077 N1079 1.384 . S
N1078 C1074 1.427 . S
N1078 C1075 1.384 . S
N1079 C1071 1.427 . S
N1079 C1077 1.384 . S
H1080 C1086 0.930 . S
H1081 C1090 0.930 . S
H1082 C1095 0.929 . S
H1083 C1093 0.929 1_655 S
H1084 C1088 0.929 . S
H1085 C1094 0.929 . S
C1086 H1080 0.930 . S
C1086 C1087 1.367 . S
C1086 C1094 1.378 . S
C1087 C1086 1.367 . S
C1087 C1095 1.433 . S
C1088 H1084 0.929 . S
C1088 C1090 1.378 . S
C1088 C1092 1.350 . S
C1089 C1092 1.463 . S
C1089 C1094 1.350 . S
C1089 N1097 1.427 . S
C1090 H1081 0.930 . S
C1090 C1088 1.378 . S
C1090 C1091 1.367 . S
C1091 C1090 1.367 . S
C1091 C1093 1.433 . S
C1092 C1088 1.350 . S
C1092 C1089 1.463 . S
C1092 N1096 1.427 . S
C1093 H1083 0.929 1_455 S
C1093 C1091 1.433 . S
C1093 N1096 1.384 . S
C1094 H1085 0.929 . S
C1094 C1086 1.378 . S
C1094 C1089 1.350 . S
C1095 H1082 0.929 . S
C1095 C1087 1.433 . S
C1095 N1097 1.384 . S
N1096 C1092 1.427 . S
N1096 C1093 1.384 . S
N1097 C1089 1.427 . S
N1097 C1095 1.384 . S
H1098 C1104 0.930 . S
H1099 C1108 0.930 . S
H1100 C1113 0.929 . S
H1101 C1111 0.929 . S
H1102 C1106 0.929 . S
H1103 C1112 0.929 . S
C1104 H1098 0.930 . S
C1104 C1105 1.367 . S
C1104 C1112 1.378 . S
C1105 C1104 1.367 . S
C1105 C1113 1.433 . S
C1106 H1102 0.929 . S
C1106 C1108 1.378 . S
C1106 C1110 1.350 . S
C1107 C1110 1.463 . S
C1107 C1112 1.350 . S
C1107 N1115 1.427 . S
C1108 H1099 0.930 . S
C1108 C1106 1.378 . S
C1108 C1109 1.367 . S
C1109 C1108 1.367 . S
C1109 C1111 1.433 . S
C1110 C1106 1.350 . S
C1110 C1107 1.463 . S
C1110 N1114 1.427 . S
C1111 H1101 0.929 . S
C1111 C1109 1.433 . S
C1111 N1114 1.384 . S
C1112 H1103 0.929 . S
C1112 C1104 1.378 . S
C1112 C1107 1.350 . S
C1113 H1100 0.929 . S
C1113 C1105 1.433 . S
C1113 N1115 1.384 . S
N1114 C1110 1.427 . S
N1114 C1111 1.384 . S
N1115 C1107 1.427 . S
N1115 C1113 1.384 . S
H1116 C1122 0.930 . S
H1117 C1126 0.930 . S
H1118 C1131 0.929 . S
H1119 C1129 0.929 . S
H1120 C1124 0.929 . S
H1121 C1130 0.929 . S
C1122 H1116 0.930 . S
C1122 C1123 1.367 . S
C1122 C1130 1.378 . S
C1123 C1122 1.367 . S
C1123 C1131 1.433 . S
C1124 H1120 0.929 . S
C1124 C1126 1.378 . S
C1124 C1128 1.350 . S
C1125 C1128 1.463 . S
C1125 C1130 1.350 . S
C1125 N1133 1.427 . S
C1126 H1117 0.930 . S
C1126 C1124 1.378 . S
C1126 C1127 1.367 . S
C1127 C1126 1.367 . S
C1127 C1129 1.433 . S
C1128 C1124 1.350 . S
C1128 C1125 1.463 . S
C1128 N1132 1.427 . S
C1129 H1119 0.929 . S
C1129 C1127 1.433 . S
C1129 N1132 1.384 . S
C1130 H1121 0.929 . S
C1130 C1122 1.378 . S
C1130 C1125 1.350 . S
C1131 H1118 0.929 . S
C1131 C1123 1.433 . S
C1131 N1133 1.384 . S
N1132 C1128 1.427 . S
N1132 C1129 1.384 . S
N1133 C1125 1.427 . S
N1133 C1131 1.384 . S
H1134 C1140 0.930 . S
H1135 C1144 0.930 . S
H1136 C1149 0.929 . S
H1137 C1147 0.929 . S
H1138 C1142 0.929 . S
H1139 C1148 0.929 . S
C1140 H1134 0.930 . S
C1140 C1141 1.367 . S
C1140 C1148 1.378 . S
C1141 C1140 1.367 . S
C1141 C1149 1.433 . S
C1142 H1138 0.929 . S
C1142 C1144 1.378 . S
C1142 C1146 1.350 . S
C1143 C1146 1.463 . S
C1143 C1148 1.350 . S
C1143 N1151 1.427 . S
C1144 H1135 0.930 . S
C1144 C1142 1.378 . S
C1144 C1145 1.367 . S
C1145 C1144 1.367 . S
C1145 C1147 1.433 . S
C1146 C1142 1.350 . S
C1146 C1143 1.463 . S
C1146 N1150 1.427 . S
C1147 H1137 0.929 . S
C1147 C1145 1.433 . S
C1147 N1150 1.384 . S
C1148 H1139 0.929 . S
C1148 C1140 1.378 . S
C1148 C1143 1.350 . S
C1149 H1136 0.929 . S
C1149 C1141 1.433 . S
C1149 N1151 1.384 . S
N1150 C1146 1.427 . S
N1150 C1147 1.384 . S
N1151 C1143 1.427 . S
N1151 C1149 1.384 . S
H1152 C1158 0.930 . S
H1153 C1162 0.930 . S
H1154 C1167 0.929 . S
H1155 C1165 0.929 . S
H1156 C1160 0.929 . S
H1157 C1166 0.929 . S
C1158 H1152 0.930 . S
C1158 C1159 1.367 . S
C1158 C1166 1.378 . S
C1159 C1158 1.367 . S
C1159 C1167 1.433 . S
C1160 H1156 0.929 . S
C1160 C1162 1.378 . S
C1160 C1164 1.350 . S
C1161 C1164 1.463 . S
C1161 C1166 1.350 . S
C1161 N1169 1.427 . S
C1162 H1153 0.930 . S
C1162 C1160 1.378 . S
C1162 C1163 1.367 . S
C1163 C1162 1.367 . S
C1163 C1165 1.433 . S
C1164 C1160 1.350 . S
C1164 C1161 1.463 . S
C1164 N1168 1.427 . S
C1165 H1155 0.929 . S
C1165 C1163 1.433 . S
C1165 N1168 1.384 . S
C1166 H1157 0.929 . S
C1166 C1158 1.378 . S
C1166 C1161 1.350 . S
C1167 H1154 0.929 . S
C1167 C1159 1.433 . S
C1167 N1169 1.384 . S
N1168 C1164 1.427 . S
N1168 C1165 1.384 . S
N1169 C1161 1.427 . S
N1169 C1167 1.384 . S
H1170 C1176 0.930 . S
H1171 C1180 0.930 . S
H1172 C1185 0.929 . S
H1173 C1183 0.929 . S
H1174 C1178 0.929 . S
H1175 C1184 0.929 . S
C1176 H1170 0.930 . S
C1176 C1177 1.367 . S
C1176 C1184 1.378 . S
C1177 C1176 1.367 . S
C1177 C1185 1.433 . S
C1178 H1174 0.929 . S
C1178 C1180 1.378 . S
C1178 C1182 1.350 . S
C1179 C1182 1.463 . S
C1179 C1184 1.350 . S
C1179 N1187 1.427 . S
C1180 H1171 0.930 . S
C1180 C1178 1.378 . S
C1180 C1181 1.367 . S
C1181 C1180 1.367 . S
C1181 C1183 1.433 . S
C1182 C1178 1.350 . S
C1182 C1179 1.463 . S
C1182 N1186 1.427 . S
C1183 H1173 0.929 . S
C1183 C1181 1.433 . S
C1183 N1186 1.384 . S
C1184 H1175 0.929 . S
C1184 C1176 1.378 . S
C1184 C1179 1.350 . S
C1185 H1172 0.929 . S
C1185 C1177 1.433 . S
C1185 N1187 1.384 . S
N1186 C1182 1.427 . S
N1186 C1183 1.384 . S
N1187 C1179 1.427 . S
N1187 C1185 1.384 . S
H1188 C1194 0.930 . S
H1189 C1198 0.930 . S
H1190 C1203 0.929 . S
H1191 C1201 0.929 . S
H1192 C1196 0.929 . S
H1193 C1202 0.929 . S
C1194 H1188 0.930 . S
C1194 C1195 1.367 . S
C1194 C1202 1.378 . S
C1195 C1194 1.367 . S
C1195 C1203 1.433 . S
C1196 H1192 0.929 . S
C1196 C1198 1.378 . S
C1196 C1200 1.350 . S
C1197 C1200 1.463 . S
C1197 C1202 1.350 . S
C1197 N1205 1.427 . S
C1198 H1189 0.930 . S
C1198 C1196 1.378 . S
C1198 C1199 1.367 . S
C1199 C1198 1.367 . S
C1199 C1201 1.433 . S
C1200 C1196 1.350 . S
C1200 C1197 1.463 . S
C1200 N1204 1.427 . S
C1201 H1191 0.929 . S
C1201 C1199 1.433 . S
C1201 N1204 1.384 . S
C1202 H1193 0.929 . S
C1202 C1194 1.378 . S
C1202 C1197 1.350 . S
C1203 H1190 0.929 . S
C1203 C1195 1.433 . S
C1203 N1205 1.384 . S
N1204 C1200 1.427 . S
N1204 C1201 1.384 . S
N1205 C1197 1.427 . S
N1205 C1203 1.384 . S
H1206 C1212 0.930 . S
H1207 C1216 0.930 . S
H1208 C1221 0.929 . S
H1209 C1219 0.929 . S
H1210 C1214 0.929 . S
H1211 C1220 0.929 . S
C1212 H1206 0.930 . S
C1212 C1213 1.367 . S
C1212 C1220 1.378 . S
C1213 C1212 1.367 . S
C1213 C1221 1.433 . S
C1214 H1210 0.929 . S
C1214 C1216 1.378 . S
C1214 C1218 1.350 . S
C1215 C1218 1.463 . S
C1215 C1220 1.350 . S
C1215 N1223 1.427 . S
C1216 H1207 0.930 . S
C1216 C1214 1.378 . S
C1216 C1217 1.367 . S
C1217 C1216 1.367 . S
C1217 C1219 1.433 . S
C1218 C1214 1.350 . S
C1218 C1215 1.463 . S
C1218 N1222 1.427 . S
C1219 H1209 0.929 . S
C1219 C1217 1.433 . S
C1219 N1222 1.384 . S
C1220 H1211 0.929 . S
C1220 C1212 1.378 . S
C1220 C1215 1.350 . S
C1221 H1208 0.929 . S
C1221 C1213 1.433 . S
C1221 N1223 1.384 . S
N1222 C1218 1.427 . S
N1222 C1219 1.384 . S
N1223 C1215 1.427 . S
N1223 C1221 1.384 . S
H1224 C1230 0.930 . S
H1225 C1234 0.930 . S
H1226 C1239 0.929 . S
H1227 C1237 0.929 . S
H1228 C1232 0.929 . S
H1229 C1238 0.929 . S
C1230 H1224 0.930 . S
C1230 C1231 1.367 . S
C1230 C1238 1.378 . S
C1231 C1230 1.367 . S
C1231 C1239 1.433 . S
C1232 H1228 0.929 . S
C1232 C1234 1.378 . S
C1232 C1236 1.350 . S
C1233 C1236 1.463 . S
C1233 C1238 1.350 . S
C1233 N1241 1.427 . S
C1234 H1225 0.930 . S
C1234 C1232 1.378 . S
C1234 C1235 1.367 . S
C1235 C1234 1.367 . S
C1235 C1237 1.433 . S
C1236 C1232 1.350 . S
C1236 C1233 1.463 . S
C1236 N1240 1.427 . S
C1237 H1227 0.929 . S
C1237 C1235 1.433 . S
C1237 N1240 1.384 . S
C1238 H1229 0.929 . S
C1238 C1230 1.378 . S
C1238 C1233 1.350 . S
C1239 H1226 0.929 . S
C1239 C1231 1.433 . S
C1239 N1241 1.384 . S
N1240 C1236 1.427 . S
N1240 C1237 1.384 . S
N1241 C1233 1.427 . S
N1241 C1239 1.384 . S
H1242 C1248 0.930 . S
H1243 C1252 0.930 . S
H1244 C1257 0.929 . S
H1245 C1255 0.929 . S
H1246 C1250 0.929 . S
H1247 C1256 0.929 . S
C1248 H1242 0.930 . S
C1248 C1249 1.367 . S
C1248 C1256 1.378 . S
C1249 C1248 1.367 . S
C1249 C1257 1.433 . S
C1250 H1246 0.929 . S
C1250 C1252 1.378 . S
C1250 C1254 1.350 . S
C1251 C1254 1.463 . S
C1251 C1256 1.350 . S
C1251 N1259 1.427 . S
C1252 H1243 0.930 . S
C1252 C1250 1.378 . S
C1252 C1253 1.367 . S
C1253 C1252 1.367 . S
C1253 C1255 1.433 . S
C1254 C1250 1.350 . S
C1254 C1251 1.463 . S
C1254 N1258 1.427 . S
C1255 H1245 0.929 . S
C1255 C1253 1.433 . S
C1255 N1258 1.384 . S
C1256 H1247 0.929 . S
C1256 C1248 1.378 . S
C1256 C1251 1.350 . S
C1257 H1244 0.929 . S
C1257 C1249 1.433 . S
C1257 N1259 1.384 . S
N1258 C1254 1.427 . S
N1258 C1255 1.384 . S
N1259 C1251 1.427 . S
N1259 C1257 1.384 . S
H1260 C1266 0.930 . S
H1261 C1270 0.930 . S
H1262 C1275 0.929 . S
H1263 C1273 0.929 . S
H1264 C1268 0.929 . S
H1265 C1274 0.929 . S
C1266 H1260 0.930 . S
C1266 C1267 1.367 . S
C1266 C1274 1.378 . S
C1267 C1266 1.367 . S
C1267 C1275 1.433 . S
C1268 H1264 0.929 . S
C1268 C1270 1.378 . S
C1268 C1272 1.350 . S
C1269 C1272 1.463 . S
C1269 C1274 1.350 . S
C1269 N1277 1.427 . S
C1270 H1261 0.930 . S
C1270 C1268 1.378 . S
C1270 C1271 1.367 . S
C1271 C1270 1.367 . S
C1271 C1273 1.433 . S
C1272 C1268 1.350 . S
C1272 C1269 1.463 . S
C1272 N1276 1.427 . S
C1273 H1263 0.929 . S
C1273 C1271 1.433 . S
C1273 N1276 1.384 . S
C1274 H1265 0.929 . S
C1274 C1266 1.378 . S
C1274 C1269 1.350 . S
C1275 H1262 0.929 . S
C1275 C1267 1.433 . S
C1275 N1277 1.384 . S
N1276 C1272 1.427 . S
N1276 C1273 1.384 . S
N1277 C1269 1.427 . S
N1277 C1275 1.384 . S
H1278 C1284 0.930 . S
H1279 C1288 0.930 . S
H1280 C1293 0.929 . S
H1281 C1291 0.929 . S
H1282 C1286 0.929 . S
H1283 C1292 0.929 . S
C1284 H1278 0.930 . S
C1284 C1285 1.367 . S
C1284 C1292 1.378 . S
C1285 C1284 1.367 . S
C1285 C1293 1.433 . S
C1286 H1282 0.929 . S
C1286 C1288 1.378 . S
C1286 C1290 1.350 . S
C1287 C1290 1.463 . S
C1287 C1292 1.350 . S
C1287 N1295 1.427 . S
C1288 H1279 0.930 . S
C1288 C1286 1.378 . S
C1288 C1289 1.367 . S
C1289 C1288 1.367 . S
C1289 C1291 1.433 . S
C1290 C1286 1.350 . S
C1290 C1287 1.463 . S
C1290 N1294 1.427 . S
C1291 H1281 0.929 . S
C1291 C1289 1.433 . S
C1291 N1294 1.384 . S
C1292 H1283 0.929 . S
C1292 C1284 1.378 . S
C1292 C1287 1.350 . S
C1293 H1280 0.929 . S
C1293 C1285 1.433 . S
C1293 N1295 1.384 . S
N1294 C1290 1.427 . S
N1294 C1291 1.384 . S
N1295 C1287 1.427 . S
N1295 C1293 1.384 . S
H1296 C1302 0.930 . S
H1297 C1306 0.930 . S
H1298 C1311 0.929 . S
H1299 C1309 0.929 . S
H1300 C1304 0.929 . S
H1301 C1310 0.929 . S
C1302 H1296 0.930 . S
C1302 C1303 1.367 . S
C1302 C1310 1.378 . S
C1303 C1302 1.367 . S
C1303 C1311 1.433 . S
C1304 H1300 0.929 . S
C1304 C1306 1.378 . S
C1304 C1308 1.350 . S
C1305 C1308 1.463 . S
C1305 C1310 1.350 . S
C1305 N1313 1.427 . S
C1306 H1297 0.930 . S
C1306 C1304 1.378 . S
C1306 C1307 1.367 . S
C1307 C1306 1.367 . S
C1307 C1309 1.433 . S
C1308 C1304 1.350 . S
C1308 C1305 1.463 . S
C1308 N1312 1.427 . S
C1309 H1299 0.929 . S
C1309 C1307 1.433 . S
C1309 N1312 1.384 . S
C1310 H1301 0.929 . S
C1310 C1302 1.378 . S
C1310 C1305 1.350 . S
C1311 H1298 0.929 . S
C1311 C1303 1.433 . S
C1311 N1313 1.384 . S
N1312 C1308 1.427 . S
N1312 C1309 1.384 . S
N1313 C1305 1.427 . S
N1313 C1311 1.384 . S
H1314 C1320 0.930 . S
H1315 C1324 0.930 . S
H1316 C1329 0.929 . S
H1317 C1327 0.929 . S
H1318 C1322 0.929 . S
H1319 C1328 0.929 . S
C1320 H1314 0.930 . S
C1320 C1321 1.367 . S
C1320 C1328 1.378 . S
C1321 C1320 1.367 . S
C1321 C1329 1.433 . S
C1322 H1318 0.929 . S
C1322 C1324 1.378 . S
C1322 C1326 1.350 . S
C1323 C1326 1.463 . S
C1323 C1328 1.350 . S
C1323 N1331 1.427 . S
C1324 H1315 0.930 . S
C1324 C1322 1.378 . S
C1324 C1325 1.367 . S
C1325 C1324 1.367 . S
C1325 C1327 1.433 . S
C1326 C1322 1.350 . S
C1326 C1323 1.463 . S
C1326 N1330 1.427 . S
C1327 H1317 0.929 . S
C1327 C1325 1.433 . S
C1327 N1330 1.384 . S
C1328 H1319 0.929 . S
C1328 C1320 1.378 . S
C1328 C1323 1.350 . S
C1329 H1316 0.929 . S
C1329 C1321 1.433 . S
C1329 N1331 1.384 . S
N1330 C1326 1.427 . S
N1330 C1327 1.384 . S
N1331 C1323 1.427 . S
N1331 C1329 1.384 . S
H1332 C1338 0.930 . S
H1333 C1342 0.930 . S
H1334 C1347 0.929 . S
H1335 C1345 0.929 . S
H1336 C1340 0.929 . S
H1337 C1346 0.929 . S
C1338 H1332 0.930 . S
C1338 C1339 1.367 . S
C1338 C1346 1.378 . S
C1339 C1338 1.367 . S
C1339 C1347 1.433 . S
C1340 H1336 0.929 . S
C1340 C1342 1.378 . S
C1340 C1344 1.350 . S
C1341 C1344 1.463 . S
C1341 C1346 1.350 . S
C1341 N1349 1.427 . S
C1342 H1333 0.930 . S
C1342 C1340 1.378 . S
C1342 C1343 1.367 . S
C1343 C1342 1.367 . S
C1343 C1345 1.433 . S
C1344 C1340 1.350 . S
C1344 C1341 1.463 . S
C1344 N1348 1.427 . S
C1345 H1335 0.929 . S
C1345 C1343 1.433 . S
C1345 N1348 1.384 . S
C1346 H1337 0.929 . S
C1346 C1338 1.378 . S
C1346 C1341 1.350 . S
C1347 H1334 0.929 . S
C1347 C1339 1.433 . S
C1347 N1349 1.384 . S
N1348 C1344 1.427 . S
N1348 C1345 1.384 . S
N1349 C1341 1.427 . S
N1349 C1347 1.384 . S
H1350 C1356 0.930 . S
H1351 C1360 0.930 . S
H1352 C1365 0.929 . S
H1353 C1363 0.929 . S
H1354 C1358 0.929 . S
H1355 C1364 0.929 . S
C1356 H1350 0.930 . S
C1356 C1357 1.367 . S
C1356 C1364 1.378 . S
C1357 C1356 1.367 . S
C1357 C1365 1.433 . S
C1358 H1354 0.929 . S
C1358 C1360 1.378 . S
C1358 C1362 1.350 . S
C1359 C1362 1.463 . S
C1359 C1364 1.350 . S
C1359 N1367 1.427 . S
C1360 H1351 0.930 . S
C1360 C1358 1.378 . S
C1360 C1361 1.367 . S
C1361 C1360 1.367 . S
C1361 C1363 1.433 . S
C1362 C1358 1.350 . S
C1362 C1359 1.463 . S
C1362 N1366 1.427 . S
C1363 H1353 0.929 . S
C1363 C1361 1.433 . S
C1363 N1366 1.384 . S
C1364 H1355 0.929 . S
C1364 C1356 1.378 . S
C1364 C1359 1.350 . S
C1365 H1352 0.929 . S
C1365 C1357 1.433 . S
C1365 N1367 1.384 . S
N1366 C1362 1.427 . S
N1366 C1363 1.384 . S
N1367 C1359 1.427 . S
N1367 C1365 1.384 . S
H1368 C1374 0.930 . S
H1369 C1378 0.930 . S
H1370 C1383 0.929 . S
H1371 C1381 0.929 . S
H1372 C1376 0.929 . S
H1373 C1382 0.929 . S
C1374 H1368 0.930 . S
C1374 C1375 1.367 . S
C1374 C1382 1.378 . S
C1375 C1374 1.367 . S
C1375 C1383 1.433 . S
C1376 H1372 0.929 . S
C1376 C1378 1.378 . S
C1376 C1380 1.350 . S
C1377 C1380 1.463 . S
C1377 C1382 1.350 . S
C1377 N1385 1.427 . S
C1378 H1369 0.930 . S
C1378 C1376 1.378 . S
C1378 C1379 1.367 . S
C1379 C1378 1.367 . S
C1379 C1381 1.433 . S
C1380 C1376 1.350 . S
C1380 C1377 1.463 . S
C1380 N1384 1.427 . S
C1381 H1371 0.929 . S
C1381 C1379 1.433 . S
C1381 N1384 1.384 . S
C1382 H1373 0.929 . S
C1382 C1374 1.378 . S
C1382 C1377 1.350 . S
C1383 H1370 0.929 . S
C1383 C1375 1.433 . S
C1383 N1385 1.384 . S
N1384 C1380 1.427 . S
N1384 C1381 1.384 . S
N1385 C1377 1.427 . S
N1385 C1383 1.384 . S
C421 N170 1.907 . S
C425 C240 1.912 . S
C439 N184 1.086 . S
C443 C260 1.075 . S
C457 N158 1.574 . S
C461 C283 1.571 . S
C475 N145 1.495 . S
C479 C263 1.491 1_556 S
C497 C280 0.999 1_556 S
C493 N119 1.015 . S
C511 N131 1.871 . S
C515 C243 1.890 . S
C533 C250 1.621 1_556 S
C529 N144 1.649 . S
C551 C270 1.397 . S
C547 N118 1.426 . S
C565 N132 1.515 . S
C569 C275 1.527 . S
C583 N171 1.458 . S
C587 C255 1.465 . S
C601 N183 1.322 . S
C605 C290 1.311 . S
C623 C235 1.572 . S
C619 N157 1.576 . S
C641 C300 1.905 . S
C637 N14 1.909 . S
C655 N28 1.087 . S
C659 C320 1.077 . S
C673 N2 1.579 . S
C677 C343 1.577 . S
C691 N223 1.500 . S
C695 C323 1.497 . S
C709 N197 1.015 . S
C713 C340 1.009 . S
C727 N209 1.870 . S
C731 C303 1.888 . S
C745 N222 1.651 . S
C749 C310 1.624 . S
C763 N196 1.425 . S
C767 C330 1.400 . S
C785 C335 1.527 . S
C781 N210 1.515 . S
C799 N15 1.459 . S
C803 C315 1.466 . S
C821 C350 1.305 . S
C817 N27 1.324 . S
C835 N1 1.576 . S
C839 C295 1.568 . S
C857 C360 1.914 . S
C853 N92 1.909 . S
C871 N106 1.086 . S
C875 C380 1.063 . S
C893 C403 1.572 . S
C889 N80 1.575 . S
C911 C383 1.494 . S
C907 N67 1.496 . S
C929 C400 1.009 . S
C925 N41 1.014 . S
C943 N53 1.874 . S
C947 C363 1.889 . S
C961 N66 1.649 . S
C965 C370 1.621 . S
C979 N40 1.424 . S
C983 C390 1.401 . S
C1001 C395 1.529 . S
C997 N54 1.520 . S
C1015 N93 1.452 . S
C1019 C375 1.462 . S
C1033 N105 1.328 . S
C1037 C410 1.301 . S
C1051 N79 1.574 . S
C1055 C355 1.572 . S
C1069 N200 0.979 . S
C1073 C253 0.973 . S
C1091 C273 1.893 . S
C1087 N213 1.919 . S
C1105 N226 1.501 . S
C1109 C282 1.482 . S
C1123 N83 1.598 . S
C1127 C262 1.567 1_655 S
C1141 N96 1.827 . S
C1145 C293 1.808 . S
C1163 C242 1.016 . S
C1159 N109 1.027 . S
C1177 N44 0.975 . S
C1181 C313 0.953 . S
C1195 N57 1.920 . S
C1199 C333 1.892 . S
C1213 N70 1.509 . S
C1217 C342 1.471 . S
C1231 N161 1.604 . S
C1235 C322 1.555 . S
C1253 C353 1.809 . S
C1249 N174 1.826 . S
C1267 N187 1.027 . S
C1271 C302 1.016 . S
C1285 N122 0.977 . S
C1289 C373 0.973 . S
C1303 N135 1.919 . S
C1307 C393 1.893 . S
C1325 C402 1.481 . S
C1321 N148 1.501 . S
C1339 N5 1.598 . S
C1343 C382 1.567 . S
C1357 N18 1.826 . S
C1361 C413 1.811 . S
C1375 N31 1.022 . S
C1379 C362 1.020 . S
