# Generated by pormake.
# Topology ftw, (4,12)-cn, num edge types: 1
# Building blocks:
#     Node 0, Type 0, BuildingBlock: MUDLON_clean_linker_0, # of connection points: 4
#     Node 1, Type 0, BuildingBlock: MUDLON_clean_linker_0, # of connection points: 4
#     Node 2, Type 0, BuildingBlock: MUDLON_clean_linker_0, # of connection points: 4
#     Node 3, Type 1, BuildingBlock: EZIPEK_clean_sbu_0, # of connection points: 12
#     Edge 4, Type (0, 1), BuildingBlock: MIFKUJ_clean_linker_0, # of connection points: 2
#     Edge 5, Type (0, 1), BuildingBlock: MIFKUJ_clean_linker_0, # of connection points: 2
#     Edge 6, Type (0, 1), BuildingBlock: MIFKUJ_clean_linker_0, # of connection points: 2
#     Edge 7, Type (0, 1), BuildingBlock: MIFKUJ_clean_linker_0, # of connection points: 2
#     Edge 8, Type (0, 1), BuildingBlock: MIFKUJ_clean_linker_0, # of connection points: 2
#     Edge 9, Type (0, 1), BuildingBlock: MIFKUJ_clean_linker_0, # of connection points: 2
#     Edge 10, Type (0, 1), BuildingBlock: MIFKUJ_clean_linker_0, # of connection points: 2
#     Edge 11, Type (0, 1), BuildingBlock: MIFKUJ_clean_linker_0, # of connection points: 2
#     Edge 12, Type (0, 1), BuildingBlock: MIFKUJ_clean_linker_0, # of connection points: 2
#     Edge 13, Type (0, 1), BuildingBlock: MIFKUJ_clean_linker_0, # of connection points: 2
#     Edge 14, Type (0, 1), BuildingBlock: MIFKUJ_clean_linker_0, # of connection points: 2
#     Edge 15, Type (0, 1), BuildingBlock: MIFKUJ_clean_linker_0, # of connection points: 2
# Relax obj value: 0.079
# Max RMSD: 0.225
# Mean RMSD: 0.171
data_MOF--net-ftw--node1-EZIPEK_clean_sbu_0--node2-MUDLON_clean_linker_0--edge1-MIFKUJ_clean_linker_0
_symmetry_space_group_name_H-M    P1
_symmetry_Int_Tables_number       1
_symmetry_cell_setting            triclinic
loop_
_symmetry_equiv_pos_as_xyz
'x, y, z'
_cell_length_a     35.552704
_cell_length_b     39.063158
_cell_length_c     36.528624
_cell_angle_alpha  89.740375
_cell_angle_beta   90.127198
_cell_angle_gamma 89.728809
loop_
_atom_site_label
_atom_site_type_symbol
_atom_site_fract_x
_atom_site_fract_y
_atom_site_fract_z
_atom_type_partial_charge
H0 H 0.95067 0.70917 0.55748 0.0
N1 N 0.00106 0.66713 0.5278 0.0
H2 H 0.95738 0.74414 0.61256 0.0
H3 H 0.06261 0.66917 0.57286 0.0
H4 H 0.06974 0.70413 0.62838 0.0
H5 H 0.06436 0.70153 0.50695 0.0
H6 H 0.0725 0.73557 0.45086 0.0
H7 H 0.95295 0.67369 0.47204 0.0
H8 H 0.96079 0.70741 0.41582 0.0
H9 H 0.95682 0.62051 0.55915 0.0
H10 H 0.06039 0.63088 0.49944 0.0
H11 H 0.96463 0.55841 0.56018 0.0
H12 H 0.06736 0.56874 0.49786 0.0
H13 H 0.9714 0.37188 0.54453 0.0
H14 H 0.96283 0.33765 0.60061 0.0
H15 H 0.06959 0.37366 0.64132 0.0
H16 H 0.07818 0.40709 0.585 0.0
H17 H 0.08292 0.36452 0.50198 0.0
H18 H 0.07911 0.32942 0.44707 0.0
H19 H 0.97307 0.37781 0.41926 0.0
H20 H 0.9762 0.41099 0.47558 0.0
H21 H 0.96734 0.44624 0.52852 0.0
H22 H 0.96037 0.50854 0.52794 0.0
H23 H 0.08155 0.51864 0.52754 0.0
N24 N 0.03298 0.40989 0.52665 0.0
H25 H 0.08764 0.45638 0.52534 0.0
C26 C 0.00594 0.68646 0.56117 0.0
C27 C 0.97669 0.7079 0.57292 0.0
C28 C 0.98071 0.72802 0.6043 0.0
C29 C 0.01417 0.72713 0.62495 0.0
C30 C 0.04347 0.70527 0.61335 0.0
C31 C 0.03951 0.68532 0.58159 0.0
C32 C 0.00785 0.68521 0.49378 0.0
C33 C 0.04173 0.70259 0.4871 0.0
C34 C 0.04626 0.72216 0.45506 0.0
C35 C 0.01724 0.72441 0.42878 0.0
C36 C 0.98387 0.70607 0.43518 0.0
C37 C 0.97925 0.68685 0.46734 0.0
C38 C 0.00773 0.6305 0.52907 0.0
C39 C 0.98121 0.60928 0.54606 0.0
C40 C 0.98557 0.57357 0.54615 0.0
C41 C 0.01644 0.55784 0.52866 0.0
C42 C 0.04338 0.57941 0.51207 0.0
C43 C 0.03931 0.61523 0.51263 0.0
C44 C 0.0256 0.3919 0.56054 0.0
C45 C -0.00719 0.37248 0.56563 0.0
C46 C 0.98804 0.35285 0.59762 0.0
C47 C 0.01558 0.35283 0.62545 0.0
C48 C 0.0477 0.37326 0.62065 0.0
C49 C 0.05271 0.39235 0.58848 0.0
C50 C 0.03027 0.3908 0.49284 0.0
C51 C 0.05893 0.36756 0.48391 0.0
C52 C 0.05675 0.34765 0.45216 0.0
C53 C 0.02592 0.35072 0.42795 0.0
C54 C -0.00289 0.37417 0.43709 0.0
C55 C -0.00094 0.39367 0.46929 0.0
C56 C 0.02804 0.44667 0.52618 0.0
C57 C -0.00771 0.46199 0.52758 0.0
C58 C 0.98848 0.49783 0.52787 0.0
C59 C 0.02039 0.51934 0.52771 0.0
C60 C 0.05615 0.50353 0.52681 0.0
C61 C 0.05981 0.46777 0.52582 0.0
H62 H 0.50165 0.88109 0.33132 0.0
N63 N 0.52561 0.91365 0.39053 0.0
H64 H 0.4426 0.8903 0.29756 0.0
H65 H 0.46925 0.95985 0.40769 0.0
H66 H 0.41069 0.96852 0.37474 0.0
H67 H 0.52936 0.982 0.37277 0.0
H68 H 0.58433 1.01213 0.34902 0.0
H69 H 0.59293 0.88777 0.37624 0.0
H70 H 0.64804 0.91769 0.35229 0.0
H71 H 0.52405 0.85688 0.43072 0.0
H72 H 0.52619 0.96685 0.43915 0.0
H73 H 0.52434 0.85207 0.4975 0.0
H74 H 0.52347 0.96263 0.50528 0.0
H75 H 0.47326 0.87062 0.71549 0.0
H76 H 0.41358 0.89137 0.74065 0.0
H77 H 0.41613 0.97735 0.66586 0.0
H78 H 0.4759 0.95695 0.64151 0.0
H79 H 0.52634 0.96501 0.69153 0.0
H80 H 0.58148 0.98523 0.72405 0.0
H81 H 0.63258 0.88517 0.715 0.0
H82 H 0.5765 0.86451 0.68269 0.0
H83 H 0.48616 0.85617 0.61667 0.0
H84 H 0.48808 0.8591 0.54991 0.0
H85 H 0.55798 0.94926 0.55671 0.0
N86 N 0.51526 0.9 0.66424 0.0
H87 H 0.55335 0.94773 0.62265 0.0
C88 C 0.49 0.91927 0.3723 0.0
C89 C 0.48175 0.90005 0.341 0.0
C90 C 0.44816 0.90536 0.32179 0.0
C91 C 0.422 0.92987 0.33384 0.0
C92 C 0.43008 0.94901 0.36529 0.0
C93 C 0.46383 0.94402 0.38417 0.0
C94 C 0.55701 0.93239 0.37585 0.0
C95 C 0.55507 0.96773 0.36831 0.0
C96 C 0.58654 0.98497 0.35481 0.0
C97 C 0.62053 0.96731 0.349 0.0
C98 C 0.62244 0.93212 0.35705 0.0
C99 C 0.59096 0.91491 0.37031 0.0
C100 C 0.52464 0.91204 0.42993 0.0
C101 C 0.52402 0.87995 0.44705 0.0
C102 C 0.5239 0.87734 0.48521 0.0
C103 C 0.52384 0.90697 0.50702 0.0
C104 C 0.52428 0.93918 0.48961 0.0
C105 C 0.52526 0.9417 0.45156 0.0
C106 C 0.47902 0.91201 0.6767 0.0
C107 C 0.46067 0.89375 0.70439 0.0
C108 C 0.42656 0.90555 0.71852 0.0
C109 C 0.41018 0.936 0.70518 0.0
C110 C 0.42823 0.95399 0.6769 0.0
C111 C 0.4623 0.94216 0.66277 0.0
C112 C 0.54683 0.91275 0.6851 0.0
C113 C 0.54883 0.94701 0.69698 0.0
C114 C 0.58054 0.95872 0.71554 0.0
C115 C 0.61116 0.93674 0.72209 0.0
C116 C 0.60935 0.90266 0.71011 0.0
C117 C 0.57737 0.89079 0.69192 0.0
C118 C 0.51977 0.90131 0.62493 0.0
C119 C 0.50196 0.87645 0.60359 0.0
C120 C 0.50335 0.87809 0.56542 0.0
C121 C 0.52318 0.90446 0.54769 0.0
C122 C 0.54175 0.92897 0.5692 0.0
C123 C 0.5396 0.92778 0.60728 0.0
H124 H 0.50132 0.37509 0.048 0.0
N125 N 0.51466 0.41696 0.98894 0.0
H126 H 0.44516 0.34049 0.05838 0.0
H127 H 0.45204 0.41599 0.94901 0.0
H128 H 0.39537 0.38176 0.95959 0.0
H129 H 0.5434 0.37412 0.94011 0.0
H130 H 0.60034 0.3393 0.94556 0.0
H131 H 0.56345 0.41598 0.0473 0.0
H132 H 0.62167 0.38307 0.05218 0.0
H133 H 0.48656 0.44282 0.05345 0.0
H134 H 0.54607 0.46965 0.95477 0.0
H135 H 0.48785 0.50208 0.07289 0.0
H136 H 0.55032 0.52882 0.97538 0.0
H137 H 0.50722 0.7197 0.10823 0.0
H138 H 0.45133 0.75578 0.10445 0.0
H139 H 0.39893 0.68176 0.0333 0.0
H140 H 0.45491 0.64686 0.03554 0.0
H141 H 0.53262 0.69864 1.01138 0.0
H142 H 0.58875 0.73203 0.99643 0.0
H143 H 0.64037 0.699 0.09793 0.0
H144 H 0.5844 0.66529 0.11223 0.0
H145 H 0.52335 0.60529 0.11558 0.0
H146 H 0.52402 0.54558 0.09607 0.0
H147 H 0.5172 0.57897 0.98305 0.0
N148 N 0.5212 0.66102 0.07374 0.0
H149 H 0.51921 0.63827 1.00302 0.0
C150 C 0.48109 0.39774 0.99723 0.0
C151 C 0.47843 0.37668 0.0285 0.0
C152 C 0.44629 0.35696 0.03447 0.0
C153 C 0.416 0.35835 1.00971 0.0
C154 C 0.41818 0.38037 0.97926 0.0
C155 C 0.45051 0.39976 0.97307 0.0
C156 C 0.54936 0.39791 0.99291 0.0
C157 C 0.56051 0.37615 0.96456 0.0
C158 C 0.59329 0.35651 0.96768 0.0
C159 C 0.61603 0.35849 0.99921 0.0
C160 C 0.60479 0.38049 0.02766 0.0
C161 C 0.57162 0.39972 0.02474 0.0
C162 C 0.51555 0.45181 1.00204 0.0
C163 C 0.50003 0.46142 0.0359 0.0
C164 C 0.50132 0.4955 0.04732 0.0
C165 C 0.5191 0.52064 0.02576 0.0
C166 C 0.53549 0.51061 0.99239 0.0
C167 C 0.53341 0.4767 0.98062 0.0
C168 C 0.48648 0.68076 0.07159 0.0
C169 C 0.4838 0.71134 0.09156 0.0
C170 C 0.45155 0.73182 0.08966 0.0
C171 C 0.4205 0.72189 0.06835 0.0
C172 C 0.42259 0.69076 0.04923 0.0
C173 C 0.45508 0.67051 0.05067 0.0
C174 C 0.55447 0.67955 0.06306 0.0
C175 C 0.55624 0.69829 0.03013 0.0
C176 C 0.58821 0.71754 0.02177 0.0
C177 C 0.61901 0.7182 0.04602 0.0
C178 C 0.61738 0.6987 0.07843 0.0
C179 C 0.58542 0.6796 0.08679 0.0
C180 C 0.52083 0.62613 0.06092 0.0
C181 C 0.52212 0.59952 0.08663 0.0
C182 C 0.52218 0.56539 0.07533 0.0
C183 C 0.52032 0.5571 0.03786 0.0
C184 C 0.51932 0.58405 1.01208 0.0
C185 C 0.52017 0.61815 0.02344 0.0
C186 C 0.01456 0.12055 0.93611 0.0
C187 C 0.02003 0.12137 0.11551 0.0
C188 C 0.01696 0.95427 0.93757 0.0
C189 C 0.02084 0.95528 0.11721 0.0
C190 C 0.10835 0.95449 0.03293 0.0
C191 C 0.10951 0.1198 0.02108 0.0
C192 C 0.92587 0.95533 0.02762 0.0
C193 C 0.92641 0.12097 0.02454 0.0
C194 C 0.92813 0.03969 0.11631 0.0
C195 C 0.11018 0.03609 0.11352 0.0
C196 C 0.92519 0.03604 0.9395 0.0
C197 C 0.10669 0.03024 0.93746 0.0
Eu198 Eu 0.01791 0.10347 0.02594 0.0
O199 O 0.0516 0.06871 0.0586 0.0
O200 O 0.9843 0.06838 0.99444 0.0
Eu201 Eu 0.08797 0.03728 0.02572 0.0
Eu202 Eu 0.94719 0.03809 0.02755 0.0
O203 O 0.05051 0.06832 0.99311 0.0
O204 O 0.98508 0.06895 0.05918 0.0
Eu205 Eu 0.01652 0.03741 0.95742 0.0
Eu206 Eu 0.01871 0.0382 0.09579 0.0
O207 O 0.04999 1.00651 0.99412 0.0
O208 O 0.05043 1.00735 0.05845 0.0
O209 O 0.98474 1.00706 0.06013 0.0
O210 O 0.98396 1.00697 0.99488 0.0
Eu211 Eu 0.01729 0.97193 0.02727 0.0
O212 O 0.01568 0.13161 0.9708 0.0
O213 O 0.01895 0.13225 0.08062 0.0
O214 O 0.01834 0.94336 0.97244 0.0
O215 O 0.0188 0.94401 0.08263 0.0
O216 O 0.1194 0.98709 0.03285 0.0
O217 O 0.12014 0.08697 0.02133 0.0
O218 O 0.91505 0.98812 0.02786 0.0
O219 O 0.91557 0.08832 0.02478 0.0
O220 O 0.96392 0.03854 0.12734 0.0
O221 O 0.07474 0.03567 0.1255 0.0
O222 O 0.96065 0.03606 0.92762 0.0
O223 O 0.07131 0.03458 0.92611 0.0
O224 O 0.96143 0.94415 0.02761 0.0
O225 O 0.07303 0.94352 0.02935 0.0
O226 O 0.96197 0.13192 0.02578 0.0
O227 O 0.074 0.13108 0.02308 0.0
O228 O 0.02033 0.08859 0.12612 0.0
O229 O 0.02089 0.98813 0.12721 0.0
O230 O 0.015 0.08769 0.92599 0.0
O231 O 0.01558 0.98702 0.92697 0.0
O232 O 0.11831 0.03004 0.97217 0.0
O233 O 0.12061 0.0382 0.07858 0.0
O234 O 0.91458 0.03706 0.97447 0.0
O235 O 0.91648 0.03997 0.08157 0.0
H236 H 0.963 0.32526 0.39245 0.0
H237 H 0.96038 0.29043 0.33735 0.0
H238 H 0.08153 0.29041 0.33156 0.0
H239 H 0.08432 0.32762 0.38463 0.0
H240 H 0.05866 0.29428 0.267 0.0
H241 H 0.02393 0.22101 0.36681 0.0
H242 H 0.98754 0.20053 0.4199 0.0
H243 H 0.88787 0.19594 0.35353 0.0
H244 H 0.9235 0.217 0.30021 0.0
H245 H 0.03255 0.11 0.18851 0.0
H246 H 0.03276 0.15102 0.23821 0.0
H247 H 0.00888 0.23276 0.16176 0.0
H248 H 0.0093 0.19158 0.1112 0.0
H249 H 0.98151 0.18894 0.26601 0.0
H250 H 0.04586 0.30832 0.19558 0.0
H251 H 0.09047 0.3222 0.14606 0.0
H252 H 0.1443 0.22437 0.16002 0.0
H253 H 0.1004 0.21012 0.20993 0.0
C254 C 0.98918 0.31849 0.37923 0.0
C255 C 0.02394 0.32938 0.39371 0.0
C256 C 0.98763 0.29795 0.3478 0.0
C257 C 0.02078 0.28691 0.33035 0.0
C258 C 0.05541 0.29823 0.34432 0.0
C259 C 0.05698 0.31926 0.37529 0.0
C260 C 0.01967 0.26345 0.29785 0.0
C261 C 0.04162 0.27133 0.26688 0.0
C262 C -0.00204 0.23302 0.29737 0.0
C263 C 0.97629 0.22111 0.32965 0.0
C264 C -0.00584 0.21604 0.36365 0.0
C265 C 0.97367 0.20426 0.39377 0.0
C266 C 0.93538 0.1971 0.39014 0.0
C267 C 0.91749 0.20166 0.35636 0.0
C268 C 0.93781 0.21355 0.32619 0.0
C269 C 0.02737 0.13667 0.18193 0.0
C270 C 0.02087 0.14728 0.14552 0.0
C271 C 0.02741 0.16021 0.21064 0.0
C272 C 0.02093 0.19517 0.20403 0.0
C273 C 0.01445 0.20603 0.16771 0.0
C274 C 0.0146 0.18239 0.13875 0.0
C275 C 0.0206 0.21971 0.23545 0.0
C276 C -0.00175 0.21208 0.2661 0.0
C277 C 0.04292 0.24966 0.23613 0.0
C278 C 0.06949 0.25801 0.20616 0.0
C279 C 0.06725 0.28981 0.1881 0.0
C280 C 0.09243 0.29774 0.15998 0.0
C281 C 0.12011 0.27413 0.1498 0.0
C282 C 0.12275 0.24258 0.16781 0.0
C283 C 0.09769 0.23455 0.19598 0.0
H284 H 0.13958 0.28033 0.12803 0.0
H285 H 0.9196 0.18789 0.41346 0.0
H286 H 0.62077 1.01142 0.29095 0.0
H287 H 0.67552 0.03291 0.25784 0.0
H288 H 0.74921 0.98349 0.33591 0.0
H289 H 0.69445 0.96223 0.36959 0.0
H290 H 0.77614 0.04932 0.30823 0.0
H291 H 0.73055 0.93996 0.26654 0.0
H292 H 0.68172 0.89985 0.24567 0.0
H293 H 0.65754 0.96508 0.15355 0.0
H294 H 0.70585 1.00589 0.17426 0.0
H295 H 0.93486 0.02267 0.18908 0.0
H296 H 0.88429 1.01883 0.23425 0.0
H297 H 0.8044 0.05387 0.15311 0.0
H298 H 0.85437 0.0574 0.10783 0.0
H299 H 0.78173 0.99645 0.18504 0.0
H300 H 0.83005 0.10469 0.2245 0.0
H301 H 0.87865 0.145 0.24545 0.0
H302 H 0.89865 0.08279 0.34078 0.0
H303 H 0.85052 0.04181 0.32013 0.0
C304 C 0.64858 1.00596 0.3017 0.0
C305 C 0.65337 0.98477 0.33256 0.0
C306 C 0.67981 1.01819 0.28273 0.0
C307 C 0.71629 1.00946 0.29431 0.0
C308 C 0.72124 0.99048 0.32662 0.0
C309 C 0.68998 0.97807 0.34554 0.0
C310 C 0.74864 1.01592 0.26994 0.0
C311 C 0.77769 0.03762 0.2814 0.0
C312 C 0.75027 1.0008 0.2349 0.0
C313 C 0.72151 0.97614 0.22216 0.0
C314 C 0.7146 0.94588 0.242 0.0
C315 C 0.68706 0.92301 0.23018 0.0
C316 C 0.66647 0.92995 0.19835 0.0
C317 C 0.67347 0.95976 0.17823 0.0
C318 C 0.70093 0.98276 0.18999 0.0
C319 C 0.90662 0.03001 0.18099 0.0
C320 C 0.89859 0.04003 0.14474 0.0
C321 C 0.87779 0.02793 0.2069 0.0
C322 C 0.84064 0.03618 0.19703 0.0
C323 C 0.83287 0.04728 0.16124 0.0
C324 C 0.8615 0.04918 0.13536 0.0
C325 C 0.80919 0.03049 0.22281 0.0
C326 C 0.78031 1.00849 0.21173 0.0
C327 C 0.80793 0.04539 0.25806 0.0
C328 C 0.83689 0.06999 0.27058 0.0
C329 C 0.84503 0.09943 0.24977 0.0
C330 C 0.87245 0.12244 0.26163 0.0
C331 C 0.89178 0.11642 0.29439 0.0
C332 C 0.88368 0.0874 0.31539 0.0
C333 C 0.8563 0.06429 0.30364 0.0
H334 H 0.91299 0.13427 0.30352 0.0
H335 H 0.64517 0.9122 0.18923 0.0
H336 H -0.00349 0.71003 0.35792 0.0
H337 H -0.0002 0.7476 0.30414 0.0
H338 H 0.04965 0.82665 0.37011 0.0
H339 H 0.04616 0.78932 0.42406 0.0
H340 H -0.00776 0.85157 0.32739 0.0
H341 H 0.10257 0.7822 0.31009 0.0
H342 H 0.1388 0.7286 0.30363 0.0
H343 H 0.07298 0.70172 0.20943 0.0
H344 H 0.03599 0.75496 0.21564 0.0
H345 H 0.04453 0.9659 0.18747 0.0
H346 H 0.04628 0.92542 0.23824 0.0
H347 H 0.005 0.84586 0.16746 0.0
H348 H 0.00385 0.88636 0.11588 0.0
H349 H 0.05726 0.82054 0.21209 0.0
H350 H 0.9466 0.88894 0.22874 0.0
H351 H 0.91047 0.94278 0.23383 0.0
H352 H 0.97517 0.97087 0.32832 0.0
H353 H 0.01213 0.91747 0.32345 0.0
C354 C 0.00823 0.7354 0.36101 0.0
C355 C 0.02109 0.74658 0.39543 0.0
C356 C 0.01033 0.7568 0.33012 0.0
C357 C 0.02517 0.78999 0.33289 0.0
C358 C 0.03815 0.80117 0.36717 0.0
C359 C 0.03639 0.77967 0.39799 0.0
C360 C 0.02601 0.81344 0.30039 0.0
C361 C 0.00688 0.84493 0.30236 0.0
C362 C 0.04417 0.80451 0.26724 0.0
C363 C 0.0662 0.77238 0.26362 0.0
C364 C 0.09556 0.7647 0.28823 0.0
C365 C 0.1163 0.73442 0.28455 0.0
C366 C 0.10812 0.71172 0.25621 0.0
C367 C 0.07924 0.7193 0.23142 0.0
C368 C 0.05839 0.74953 0.23499 0.0
C369 C 0.03563 0.93985 0.18252 0.0
C370 C 0.02339 0.92964 0.14753 0.0
C371 C 0.03656 0.91667 0.21178 0.0
C372 C 0.02483 0.88268 0.20711 0.0
C373 C 0.01391 0.87198 0.17193 0.0
C374 C 0.01322 0.8952 0.14243 0.0
C375 C 0.02356 0.85868 0.23913 0.0
C376 C 0.04255 0.82712 0.23709 0.0
C377 C 0.00499 0.86741 0.27216 0.0
C378 C 0.98234 0.8993 0.27555 0.0
C379 C 0.95327 0.90669 0.25049 0.0
C380 C 0.93263 0.93713 0.25333 0.0
C381 C 0.94056 0.96025 0.28134 0.0
C382 C 0.96908 0.95294 0.30662 0.0
C383 C 0.98986 0.92258 0.30385 0.0
H384 H 0.92457 0.98381 0.2835 0.0
H385 H 0.12422 0.6883 0.2534 0.0
H386 H 0.41535 0.94068 0.26044 0.0
H387 H 0.3589 0.95832 0.2266 0.0
H388 H 0.2938 0.95287 0.32591 0.0
H389 H 0.35033 0.93536 0.36003 0.0
H390 H 0.25752 0.92536 0.25824 0.0
H391 H 0.31948 0.02575 0.30624 0.0
H392 H 0.3742 0.06297 0.31698 0.0
H393 H 0.38914 0.07502 0.20103 0.0
H394 H 0.33485 0.03738 0.1896 0.0
H395 H 0.10368 1.02011 0.18652 0.0
H396 H 0.15441 1.00374 0.22844 0.0
H397 H 0.23601 0.02282 0.14362 0.0
H398 H 0.18594 0.03994 0.10188 0.0
H399 H 0.26147 0.04391 0.20868 0.0
H400 H 0.20472 0.94243 0.1588 0.0
H401 H 0.14978 0.90652 0.1445 0.0
H402 H 0.12597 0.89574 0.25913 0.0
H403 H 0.18056 0.93205 0.27415 0.0
C404 C 0.38886 0.94261 0.2749 0.0
C405 C 0.38715 0.93684 0.31283 0.0
C406 C 0.35674 0.95276 0.25561 0.0
C407 C 0.32237 0.95699 0.27389 0.0
C408 C 0.32012 0.94965 0.31141 0.0
C409 C 0.35238 0.93992 0.33083 0.0
C410 C 0.28973 0.97182 0.2543 0.0
C411 C 0.25804 0.95141 0.24785 0.0
C412 C 0.2909 1.00559 0.24025 0.0
C413 C 0.32333 0.02848 0.24707 0.0
C414 C 0.33464 0.03609 0.28303 0.0
C415 C 0.36554 0.05731 0.28925 0.0
C416 C 0.38519 0.07128 0.25971 0.0
C417 C 0.37392 0.06414 0.22388 0.0
C418 C 0.34307 0.04289 0.21752 0.0
C419 C 0.13245 0.02149 0.17696 0.0
C420 C 0.14065 0.03104 0.14067 0.0
C421 C 0.16138 1.01191 0.20091 0.0
C422 C 0.19885 1.01151 0.18887 0.0
C423 C 0.20725 0.02284 0.15339 0.0
C424 C 0.17847 0.0325 0.12951 0.0
C425 C 0.22927 0.99744 0.21226 0.0
C426 C 0.26067 1.01795 0.21937 0.0
C427 C 0.228 0.96364 0.22639 0.0
C428 C 0.19649 0.94023 0.2176 0.0
C429 C 0.18772 0.93248 0.18097 0.0
C430 C 0.15659 0.91218 0.17273 0.0
C431 C 0.13427 0.89912 0.2009 0.0
C432 C 0.14325 0.90602 0.23737 0.0
C433 C 0.17431 0.92643 0.24577 0.0
H434 H 0.11018 0.88342 0.19445 0.0
H435 H 0.4091 0.08771 0.26457 0.0
H436 H 0.04425 0.71024 0.6923 0.0
H437 H 0.04843 0.7463 0.74703 0.0
H438 H -0.00271 0.83001 0.68753 0.0
H439 H -0.00662 0.79433 0.63284 0.0
H440 H 0.05681 0.85165 0.72845 0.0
H441 H 0.94633 0.78269 0.74711 0.0
H442 H 0.91104 0.72873 0.7527 0.0
H443 H 0.98114 0.69775 0.84294 0.0
H444 H 0.0172 0.75137 0.83755 0.0
H445 H -0.0038 0.96362 0.8661 0.0
H446 H -0.00054 0.92306 0.8159 0.0
H447 H 0.04234 0.84553 0.88953 0.0
H448 H 0.03838 0.88613 0.94057 0.0
H449 H -0.00694 0.81798 0.8437 0.0
H450 H 0.10044 0.88989 0.8283 0.0
H451 H 0.13447 0.94459 0.82291 0.0
H452 H 0.07099 0.97015 0.72639 0.0
H453 H 0.03613 0.91593 0.73152 0.0
C454 C 0.03419 0.73642 0.69079 0.0
C455 C 0.01825 0.74925 0.65813 0.0
C456 C 0.03635 0.75696 0.72221 0.0
C457 C 0.02286 0.79089 0.72165 0.0
C458 C 0.00781 0.80396 0.68882 0.0
C459 C 0.00534 0.78339 0.65757 0.0
C460 C 0.02392 0.81282 0.75516 0.0
C461 C 0.04263 0.84439 0.75356 0.0
C462 C 0.00635 0.80307 0.78838 0.0
C463 C 0.98474 0.77084 0.79163 0.0
C464 C 0.95444 0.76423 0.76793 0.0
C465 C 0.93425 0.73374 0.7711 0.0
C466 C 0.94392 0.70978 0.79808 0.0
C467 C 0.97373 0.7163 0.822 0.0
C468 C -0.00596 0.74674 0.81891 0.0
C469 C 0.00643 0.93799 0.87185 0.0
C470 C 0.0174 0.92838 0.90755 0.0
C471 C 0.00843 0.91475 0.84288 0.0
C472 C 0.02204 0.88131 0.84848 0.0
C473 C 0.03202 0.87122 0.88429 0.0
C474 C 0.02971 0.89449 0.91352 0.0
C475 C 0.02549 0.85715 0.81688 0.0
C476 C 0.00765 0.82514 0.81879 0.0
C477 C 0.044 0.86648 0.78392 0.0
C478 C 0.06541 0.89892 0.78049 0.0
C479 C 0.09357 0.90726 0.80605 0.0
C480 C 0.11302 0.93819 0.80303 0.0
C481 C 0.10477 0.96086 0.7744 0.0
C482 C 0.07728 0.95257 0.74859 0.0
C483 C 0.05769 0.92174 0.75153 0.0
H484 H 0.1196 0.98489 0.77217 0.0
H485 H 0.92825 0.68619 0.8005 0.0
H486 H 0.34702 0.90082 0.72513 0.0
H487 H 0.29218 0.92296 0.75783 0.0
H488 H 0.3397 0.02438 0.75552 0.0
H489 H 0.39506 1.00225 0.72375 0.0
H490 H 0.3182 1.0072 0.82265 0.0
H491 H 0.26399 1.0047 0.70353 0.0
H492 H 0.24493 0.98084 0.644 0.0
H493 H 0.17534 0.90706 0.69855 0.0
H494 H 0.19456 0.92995 0.75845 0.0
H495 H 0.10846 0.05313 0.86658 0.0
H496 H 0.15799 0.0425 0.8213 0.0
H497 H 0.21732 0.97913 0.8997 0.0
H498 H 0.16906 0.99084 0.94525 0.0
H499 H 0.18479 0.98763 0.7894 0.0
H500 H 0.31306 0.98754 0.88858 0.0
H501 H 0.32915 1.0106 0.94925 0.0
H502 H 0.24802 0.09121 0.93492 0.0
H503 H 0.23318 0.07015 0.87307 0.0
C504 C 0.34569 0.92785 0.73147 0.0
C505 C 0.37539 0.94977 0.72199 0.0
C506 C 0.31418 0.94054 0.74979 0.0
C507 C 0.31177 0.97536 0.75882 0.0
C508 C 0.34097 0.99744 0.74864 0.0
C509 C 0.37245 0.9848 0.73029 0.0
C510 C 0.2803 0.9881 0.78152 0.0
C511 C 0.28898 1.00318 0.81529 0.0
C512 C 0.24223 0.98312 0.77162 0.0
C513 C 0.2311 0.96886 0.73557 0.0
C514 C 0.245 0.98311 0.70289 0.0
C515 C 0.23409 0.96979 0.66905 0.0
C516 C 0.20905 0.94238 0.66749 0.0
C517 C 0.19482 0.92823 0.69978 0.0
C518 C 0.20573 0.94137 0.73369 0.0
C519 C 0.13222 0.03709 0.87407 0.0
C520 C 0.13546 0.02343 0.90956 0.0
C521 C 0.16036 0.03094 0.84823 0.0
C522 C 0.19178 1.01073 0.85748 0.0
C523 C 0.19394 0.99569 0.89236 0.0
C524 C 0.16637 1.00242 0.91835 0.0
C525 C 0.22267 1.00557 0.83097 0.0
C526 C 0.21394 0.99201 0.79655 0.0
C527 C 0.2607 1.01204 0.84025 0.0
C528 C 0.27172 0.02697 0.87614 0.0
C529 C 0.29917 1.01062 0.89796 0.0
C530 C 0.30819 0.02345 0.93254 0.0
C531 C 0.28977 0.05249 0.94581 0.0
C532 C 0.2626 0.06899 0.92436 0.0
C533 C 0.25404 0.05674 0.88942 0.0
H534 H 0.29646 0.06215 0.97276 0.0
H535 H 0.20058 0.93216 0.64126 0.0
H536 H -0.00473 0.28531 0.62938 0.0
H537 H -0.00746 0.24846 0.68359 0.0
H538 H 0.0238 0.33383 0.75157 0.0
H539 H 0.02786 0.37041 0.69713 0.0
H540 H 0.06076 0.28191 0.77403 0.0
H541 H 0.93029 0.29836 0.74709 0.0
H542 H 0.87271 0.29887 0.70931 0.0
H543 H 0.88402 0.19073 0.69151 0.0
H544 H 0.94196 0.18965 0.72877 0.0
H545 H 0.01956 0.19105 0.94068 0.0
H546 H 0.01653 0.23287 0.89047 0.0
H547 H 0.00158 0.15104 0.81309 0.0
H548 H 0.00428 0.10927 0.86271 0.0
H549 H 0.95395 0.20397 0.79852 0.0
H550 H 0.08611 0.18923 0.82451 0.0
H551 H 0.14221 0.18939 0.86411 0.0
H552 H 0.12586 0.29642 0.88554 0.0
H553 H 0.06901 0.2967 0.84664 0.0
C554 C 0.00113 0.29632 0.65594 0.0
C555 C 0.01163 0.33088 0.65888 0.0
C556 C -0.00054 0.27521 0.68706 0.0
C557 C 0.00734 0.28828 0.72212 0.0
C558 C 0.01758 0.32291 0.72505 0.0
C559 C 0.01984 0.34389 0.69385 0.0
C560 C 0.0061 0.26567 0.75546 0.0
C561 C 0.03701 0.26538 0.7796 0.0
C562 C 0.97553 0.24345 0.76286 0.0
C563 C 0.94066 0.244 0.74046 0.0
C564 C 0.92065 0.27474 0.7349 0.0
C565 C 0.88792 0.27512 0.71361 0.0
C566 C 0.87476 0.24487 0.69795 0.0
C567 C 0.89426 0.21415 0.70362 0.0
C568 C 0.92703 0.21364 0.72485 0.0
C569 C 0.01558 0.18189 0.91301 0.0
C570 C 0.01243 0.14657 0.90598 0.0
C571 C 0.01394 0.2059 0.88426 0.0
C572 C 0.00911 0.19517 0.84782 0.0
C573 C 0.0053 0.16006 0.84087 0.0
C574 C 0.00708 0.13611 0.86945 0.0
C575 C 0.00862 0.22019 0.81667 0.0
C576 C 0.97744 0.22084 0.79298 0.0
C577 C 0.03874 0.24294 0.80988 0.0
C578 C 0.07308 0.24289 0.83299 0.0
C579 C 0.09428 0.21274 0.83791 0.0
C580 C 0.12627 0.21276 0.86021 0.0
C581 C 0.13764 0.2429 0.87737 0.0
C582 C 0.11701 0.27308 0.87226 0.0
C583 C 0.08488 0.27316 0.85011 0.0
H584 H 0.16246 0.24291 0.89454 0.0
H585 H 0.84942 0.24522 0.68148 0.0
H586 H 0.68439 0.92927 0.70142 0.0
H587 H 0.74031 0.95118 0.73256 0.0
H588 H 0.66998 0.99466 0.81677 0.0
H589 H 0.61403 0.97356 0.78516 0.0
H590 H 0.72275 0.03812 0.79978 0.0
H591 H 0.71855 0.91841 0.82784 0.0
H592 H 0.71695 0.85627 0.81674 0.0
H593 H 0.82235 0.8621 0.75995 0.0
H594 H 0.82437 0.92443 0.77034 0.0
H595 H 0.84983 0.04678 0.94902 0.0
H596 H 0.79947 0.03556 0.90542 0.0
H597 H 0.88123 1.00684 0.82394 0.0
H598 H 0.93203 1.01763 0.86754 0.0
H599 H 0.82673 0.95888 0.83342 0.0
H600 H 0.83193 0.07959 0.8131 0.0
H601 H 0.83371 0.14021 0.8315 0.0
H602 H 0.72488 0.13054 0.88109 0.0
H603 H 0.72264 0.0697 0.86344 0.0
C604 C 0.68099 0.94339 0.72666 0.0
C605 C 0.64501 0.94958 0.74106 0.0
C606 C 0.71288 0.95592 0.7444 0.0
C607 C 0.70937 0.97423 0.77724 0.0
C608 C 0.67337 0.98071 0.79141 0.0
C609 C 0.64147 0.96858 0.77343 0.0
C610 C 0.74314 0.9861 0.7973 0.0
C611 C 0.74531 1.02069 0.80744 0.0
C612 C 0.77299 0.96354 0.8066 0.0
C613 C 0.77134 0.9262 0.79942 0.0
C614 C 0.74115 0.90654 0.81256 0.0
C615 C 0.74024 0.87125 0.80652 0.0
C616 C 0.76946 0.85526 0.78753 0.0
C617 C 0.79969 0.87454 0.77458 0.0
C618 C 0.80073 0.90985 0.78054 0.0
C619 C 0.85724 0.03844 0.92172 0.0
C620 C 0.895 0.03293 0.91185 0.0
C621 C 0.82838 0.03229 0.89675 0.0
C622 C 0.83668 1.02063 0.86141 0.0
C623 C 0.87433 1.01598 0.85108 0.0
C624 C 0.90329 0.02227 0.87601 0.0
C625 C 0.80586 1.01052 0.83653 0.0
C626 C 0.80427 0.97627 0.82544 0.0
C627 C 0.77629 0.03321 0.82703 0.0
C628 C 0.77723 0.06999 0.83712 0.0
C629 C 0.80846 0.09032 0.82811 0.0
C630 C 0.80954 0.12474 0.83839 0.0
C631 C 0.77946 0.1392 0.85751 0.0
C632 C 0.74816 0.1193 0.86628 0.0
C633 C 0.74694 0.08486 0.85608 0.0
H634 H 0.78038 0.16583 0.8655 0.0
H635 H 0.76874 0.82792 0.78294 0.0
H636 H 0.34128 0.37521 1.00497 0.0
H637 H 0.28733 0.33633 1.0086 0.0
H638 H 0.36274 0.25132 0.02792 0.0
H639 H 0.41662 0.28997 0.0245 0.0
H640 H 0.31073 0.24143 0.97048 0.0
H641 H 0.31304 0.27915 0.09559 0.0
H642 H 0.31172 0.3211 0.14577 0.0
H643 H 0.20277 0.35614 0.11064 0.0
H644 H 0.20373 0.31483 0.05978 0.0
H645 H 0.18563 0.10857 1.01815 0.0
H646 H 0.2355 0.15092 1.01506 0.0
H647 H 0.15283 0.2321 1.01417 0.0
H648 H 0.10248 0.18988 1.01787 0.0
H649 H 0.20679 0.24655 0.06059 0.0
H650 H 0.20195 0.20865 0.93749 0.0
H651 H 0.20362 0.17093 0.88357 0.0
H652 H 0.31582 0.13915 0.91119 0.0
H653 H 0.31467 0.17605 0.96574 0.0
C654 C 0.34624 0.34826 1.01026 0.0
C655 C 0.3831 0.33558 1.01447 0.0
C656 C 0.31547 0.32616 1.01252 0.0
C657 C 0.32112 0.29101 1.01863 0.0
C658 C 0.35784 0.27839 0.02329 0.0
C659 C 0.38853 0.3005 0.02152 0.0
C660 C 0.28904 0.26697 1.01801 0.0
C661 C 0.28821 0.24212 0.99047 0.0
C662 C 0.25905 0.26899 0.04326 0.0
C663 C 0.25872 0.29421 0.07351 0.0
C664 C 0.28902 0.29611 0.09823 0.0
C665 C 0.28829 0.31972 0.12688 0.0
C666 C 0.25726 0.34137 0.1313 0.0
C667 C 0.22685 0.33943 0.10711 0.0
C668 C 0.22748 0.31593 0.07836 0.0
C669 C 0.17784 0.1354 1.01718 0.0
C670 C 0.13984 0.14571 1.01836 0.0
C671 C 0.20653 0.15962 1.01517 0.0
C672 C 0.19796 0.19471 1.01397 0.0
C673 C 0.16012 0.20515 1.01502 0.0
C674 C 0.13134 0.18092 1.01711 0.0
C675 C 0.22859 0.22045 1.01323 0.0
C676 C 0.22918 0.24573 0.04048 0.0
C677 C 0.25825 0.21902 0.98741 0.0
C678 C 0.2581 0.19505 0.95592 0.0
C679 C 0.2268 0.19329 0.93239 0.0
C680 C 0.2277 0.17216 0.90161 0.0
C681 C 0.25985 0.15288 0.89383 0.0
C682 C 0.29102 0.1543 0.91711 0.0
C683 C 0.2902 0.17523 0.94803 0.0
H684 H 0.26054 0.13669 0.86988 0.0
H685 H 0.25672 0.35958 0.15354 0.0
H686 H 0.37469 0.73266 1.00867 0.0
H687 H 0.31915 0.76915 1.00438 0.0
H688 H 0.33446 0.79988 0.11672 0.0
H689 H 0.38842 0.76141 0.12213 0.0
H690 H 0.26392 0.7917 0.10528 0.0
H691 H 0.36083 0.85131 0.04134 0.0
H692 H 0.41142 0.85978 0.99617 0.0
H693 H 0.33338 0.84196 0.90849 0.0
H694 H 0.28241 0.8329 0.95318 0.0
H695 H 0.16853 0.95767 0.07876 0.0
H696 H 0.21816 0.91448 0.0874 0.0
H697 H 0.16486 0.84991 1.00735 0.0
H698 H 0.11428 0.89246 0.99958 0.0
H699 H 0.25268 0.87501 1.0029 0.0
H700 H 0.15513 0.81663 0.07187 0.0
H701 H 0.10737 0.81009 0.12017 0.0
H702 H 0.19073 0.83032 0.20236 0.0
H703 H 0.23879 0.83804 0.15445 0.0
C704 C 0.36596 0.74665 0.03274 0.0
C705 C 0.38633 0.74407 0.06574 0.0
C706 C 0.33442 0.76798 0.03005 0.0
C707 C 0.32298 0.78788 0.05999 0.0
C708 C 0.34282 0.78497 0.09314 0.0
C709 C 0.37403 0.76323 0.09604 0.0
C710 C 0.29045 0.81179 0.05674 0.0
C711 C 0.26174 0.81014 0.08308 0.0
C712 C 0.28727 0.83573 0.02759 0.0
C713 C 0.31789 0.84106 1.00064 0.0
C714 C 0.35452 0.84892 1.01244 0.0
C715 C 0.38326 0.85387 0.98692 0.0
C716 C 0.37564 0.85131 0.94949 0.0
C717 C 0.33925 0.84387 0.9375 0.0
C718 C 0.31042 0.83884 0.96291 0.0
C719 C 0.16736 0.93418 0.06315 0.0
C720 C 0.13782 0.92834 0.03834 0.0
C721 C 0.1955 0.90952 0.06829 0.0
C722 C 0.19485 0.87906 0.04818 0.0
C723 C 0.16547 0.8732 0.02333 0.0
C724 C 0.13675 0.89744 1.0189 0.0
C725 C 0.22641 0.85455 0.05118 0.0
C726 C 0.25499 0.85638 0.02493 0.0
C727 C 0.2298 0.83135 0.08078 0.0
C728 C 0.20048 0.82841 0.10947 0.0
C729 C 0.16315 0.8204 0.10016 0.0
C730 C 0.13605 0.81628 0.1275 0.0
C731 C 0.14604 0.81966 0.16431 0.0
C732 C 0.18307 0.82753 0.17384 0.0
C733 C 0.21021 0.83194 0.14659 0.0
H734 H 0.12509 0.81624 0.18545 0.0
H735 H 0.39792 0.85518 0.92978 0.0
H736 H 0.66588 0.34044 0.94509 0.0
H737 H 0.71949 0.30158 0.94975 0.0
H738 H 0.70085 0.29142 0.06596 0.0
H739 H 0.64542 0.328 0.06109 0.0
H740 H 0.7837 0.30074 0.98126 0.0
H741 H 0.72402 0.2131 0.09598 0.0
H742 H 0.66256 0.19325 0.11883 0.0
H743 H 0.61351 0.21055 1.01279 0.0
H744 H 0.67476 0.23005 0.9892 0.0
H745 H 0.9292 0.18882 0.04359 0.0
H746 H 0.87816 0.23102 0.03977 0.0
H747 H 0.80471 0.15418 0.99477 0.0
H748 H 0.85496 0.11186 0.99948 0.0
H749 H 0.76807 0.18822 0.04273 0.0
H750 H 0.84538 0.21743 0.94102 0.0
H751 H 0.90442 0.23224 0.90949 0.0
H752 H 0.91322 0.32385 0.9734 0.0
H753 H 0.85449 0.30932 1.00573 0.0
C754 C 0.67275 0.32959 0.9716 0.0
C755 C 0.65075 0.33708 1.00259 0.0
C756 C 0.70384 0.3077 0.9743 0.0
C757 C 0.71395 0.29305 1.00809 0.0
C758 C 0.69319 0.30177 0.0394 0.0
C759 C 0.66169 0.32317 0.03663 0.0
C760 C 0.74535 0.2678 1.0103 0.0
C761 C 0.78029 0.27618 0.99479 0.0
C762 C 0.74079 0.23534 0.02712 0.0
C763 C 0.70388 0.22341 0.04098 0.0
C764 C 0.70013 0.21257 0.07753 0.0
C765 C 0.66534 0.20139 0.09061 0.0
C766 C 0.63412 0.20076 0.06731 0.0
C767 C 0.63767 0.21118 0.03084 0.0
C768 C 0.67241 0.22233 1.01762 0.0
C769 C 0.90218 0.18098 0.03283 0.0
C770 C 0.89612 0.14697 0.02197 0.0
C771 C 0.87306 0.20514 0.03056 0.0
C772 C 0.83763 0.19586 1.01672 0.0
C773 C 0.83168 0.16194 1.00575 0.0
C774 C 0.86052 0.13775 1.00845 0.0
C775 C 0.80646 0.22121 1.01391 0.0
C776 C 0.77156 0.21286 0.02937 0.0
C777 C 0.81065 0.25304 0.99572 0.0
C778 C 0.84573 0.26211 0.97606 0.0
C779 C 0.86004 0.24063 0.94853 0.0
C780 C 0.89342 0.24898 0.93049 0.0
C781 C 0.9126 0.27892 0.93951 0.0
C782 C 0.89836 0.30064 0.96649 0.0
C783 C 0.865 0.29237 0.98467 0.0
H784 H 0.93846 0.28533 0.92553 0.0
H785 H 0.6072 0.19213 0.07749 0.0
H786 H 0.69351 0.70251 0.05579 0.0
H787 H 0.74741 0.74064 0.04886 0.0
H788 H 0.67339 0.82185 1.01266 0.0
H789 H 0.61932 0.7839 1.01964 0.0
H790 H 0.73792 0.82032 0.97273 0.0
H791 H 0.70388 0.81924 0.10019 0.0
H792 H 0.68983 0.7924 0.15982 0.0
H793 H 0.80073 0.74845 0.16329 0.0
H794 H 0.81527 0.77467 0.1034 0.0
H795 H 0.85151 0.9647 1.01066 0.0
H796 H 0.80185 0.92179 1.00988 0.0
H797 H 0.88188 0.84396 0.04214 0.0
H798 H 0.93191 0.88676 0.04314 0.0
H799 H 0.81649 0.84182 0.08268 0.0
H800 H 0.85118 0.8435 0.95615 0.0
H801 H 0.86556 0.87 0.89642 0.0
H802 H 0.75452 0.91355 0.8919 0.0
H803 H 0.73944 0.88722 0.95158 0.0
C804 C 0.68871 0.72847 0.04631 0.0
C805 C 0.65209 0.74026 0.03858 0.0
C806 C 0.71954 0.75021 0.0423 0.0
C807 C 0.71434 0.78424 0.03077 0.0
C808 C 0.67803 0.79569 0.02161 0.0
C809 C 0.64717 0.77393 0.02552 0.0
C810 C 0.74649 0.80831 0.02978 0.0
C811 C 0.75485 0.82528 0.99686 0.0
C812 C 0.76912 0.81424 0.06106 0.0
C813 C 0.76052 0.79862 0.09715 0.0
C814 C 0.72517 0.80364 0.11355 0.0
C815 C 0.71713 0.78857 0.1474 0.0
C816 C 0.74433 0.76865 0.16528 0.0
C817 C 0.77967 0.76384 0.14938 0.0
C818 C 0.78783 0.77882 0.1155 0.0
C819 C 0.85866 0.93849 1.01765 0.0
C820 C 0.89576 0.92921 0.02702 0.0
C821 C 0.83024 0.91394 1.01693 0.0
C822 C 0.83827 0.87966 0.02564 0.0
C823 C 0.87515 0.87029 0.03522 0.0
C824 C 0.90371 0.89478 0.03566 0.0
C825 C 0.80783 0.85386 0.02569 0.0
C826 C 0.79971 0.83666 0.05849 0.0
C827 C 0.78545 0.84776 0.99434 0.0
C828 C 0.79427 0.86357 0.95841 0.0
C829 C 0.82989 0.85886 0.94248 0.0
C830 C 0.83812 0.87374 0.90859 0.0
C831 C 0.81094 0.89334 0.89034 0.0
C832 C 0.77547 0.89817 0.90595 0.0
C833 C 0.76703 0.8832 0.93977 0.0
H834 H 0.8174 0.90468 0.86408 0.0
H835 H 0.73806 0.75701 0.19149 0.0
loop_
_geom_bond_atom_site_label_1
_geom_bond_atom_site_label_2
_geom_bond_distance
_geom_bond_site_symmetry_2
_ccdc_geom_bond_type
H0 C27 0.924 1_655 S
N1 C26 1.433 . S
N1 C32 1.435 . S
N1 C38 1.423 . S
H2 C28 0.930 1_655 S
H3 C31 0.931 . S
H4 C30 0.929 . S
H5 C33 0.930 . S
H6 C34 0.932 . S
H7 C37 0.929 . S
H8 C36 0.930 1_655 S
H9 C39 0.929 . S
H10 C43 0.932 . S
H11 C40 0.931 . S
H12 C42 0.929 . S
H13 C45 0.924 1_655 S
H14 C46 0.930 1_655 S
H15 C48 0.929 . S
H16 C49 0.931 . S
H17 C51 0.930 . S
H18 C52 0.932 . S
H19 C54 0.930 1_655 S
H20 C55 0.929 . S
H21 C57 0.929 . S
H22 C58 0.931 . S
H23 C60 0.929 . S
N24 C44 1.433 . S
N24 C50 1.435 . S
N24 C56 1.423 . S
H25 C61 0.932 . S
C26 N1 1.433 . S
C26 C27 1.367 . S
C26 C31 1.370 . S
C27 H0 0.924 1_455 S
C27 C26 1.367 . S
C27 C28 1.386 . S
C28 H2 0.930 1_455 S
C28 C27 1.386 . S
C28 C29 1.357 . S
C29 C28 1.357 . S
C29 C30 1.406 . S
C30 H4 0.929 . S
C30 C29 1.406 . S
C30 C31 1.391 . S
C31 H3 0.931 . S
C31 C26 1.370 . S
C31 C30 1.391 . S
C32 N1 1.435 . S
C32 C33 1.358 . S
C32 C37 1.371 1_455 S
C33 H5 0.930 . S
C33 C32 1.358 . S
C33 C34 1.405 . S
C34 H6 0.932 . S
C34 C33 1.405 . S
C34 C35 1.383 . S
C35 C34 1.383 . S
C35 C36 1.395 . S
C36 H8 0.930 1_455 S
C36 C35 1.395 . S
C36 C37 1.382 1_455 S
C37 H7 0.929 . S
C37 C32 1.371 1_655 S
C37 C36 1.382 1_655 S
C38 N1 1.423 . S
C38 C39 1.362 1_455 S
C38 C43 1.388 . S
C39 H9 0.929 . S
C39 C38 1.362 1_655 S
C39 C40 1.376 . S
C40 H11 0.931 . S
C40 C39 1.376 . S
C40 C41 1.380 1_655 S
C41 C40 1.380 1_455 S
C41 C42 1.365 . S
C41 C59 1.472 . S
C42 H12 0.929 . S
C42 C41 1.365 . S
C42 C43 1.443 . S
C43 H10 0.932 . S
C43 C38 1.388 . S
C43 C42 1.443 . S
C44 N24 1.433 . S
C44 C45 1.367 . S
C44 C49 1.370 . S
C45 H13 0.924 1_455 S
C45 C44 1.367 . S
C45 C46 1.386 . S
C46 H14 0.930 1_455 S
C46 C45 1.386 . S
C46 C47 1.357 . S
C47 C46 1.357 . S
C47 C48 1.406 . S
C48 H15 0.929 . S
C48 C47 1.406 . S
C48 C49 1.391 . S
C49 H16 0.931 . S
C49 C44 1.370 . S
C49 C48 1.391 . S
C50 N24 1.435 . S
C50 C51 1.358 . S
C50 C55 1.371 1_455 S
C51 H17 0.930 . S
C51 C50 1.358 . S
C51 C52 1.405 . S
C52 H18 0.932 . S
C52 C51 1.405 . S
C52 C53 1.383 . S
C53 C52 1.383 . S
C53 C54 1.395 . S
C54 H19 0.930 1_455 S
C54 C53 1.395 . S
C54 C55 1.382 1_455 S
C55 H20 0.929 . S
C55 C50 1.371 1_655 S
C55 C54 1.382 1_655 S
C56 N24 1.423 . S
C56 C57 1.362 1_455 S
C56 C61 1.388 . S
C57 H21 0.929 . S
C57 C56 1.362 1_655 S
C57 C58 1.376 . S
C58 H22 0.931 . S
C58 C57 1.376 . S
C58 C59 1.380 1_655 S
C59 C41 1.472 . S
C59 C58 1.380 1_455 S
C59 C60 1.365 . S
C60 H23 0.929 . S
C60 C59 1.365 . S
C60 C61 1.443 . S
C61 H25 0.932 . S
C61 C56 1.388 . S
C61 C60 1.443 . S
H62 C89 0.929 . S
N63 C88 1.433 . S
N63 C94 1.435 . S
N63 C100 1.423 . S
H64 C90 0.930 . S
H65 C93 0.931 . S
H66 C92 0.929 . S
H67 C95 0.930 . S
H68 C96 0.932 . S
H69 C99 0.929 . S
H70 C98 0.931 . S
H71 C101 0.929 . S
H72 C105 0.932 1_545 S
H73 C102 0.931 . S
H74 C104 0.929 1_545 S
H75 C107 0.929 . S
H76 C108 0.930 . S
H77 C110 0.929 . S
H78 C111 0.931 . S
H79 C113 0.930 . S
H80 C114 0.932 . S
H81 C116 0.931 . S
H82 C117 0.929 . S
H83 C119 0.929 . S
H84 C120 0.931 . S
H85 C122 0.929 1_545 S
N86 C106 1.433 . S
N86 C112 1.435 . S
N86 C118 1.423 . S
H87 C123 0.932 1_545 S
C88 N63 1.433 . S
C88 C89 1.363 . S
C88 C93 1.370 1_565 S
C89 H62 0.929 . S
C89 C88 1.363 . S
C89 C90 1.385 . S
C90 H64 0.930 . S
C90 C89 1.385 . S
C90 C91 1.357 . S
C91 C90 1.357 . S
C91 C92 1.406 1_565 S
C92 H66 0.929 . S
C92 C91 1.406 1_545 S
C92 C93 1.391 . S
C93 H65 0.931 . S
C93 C88 1.370 1_545 S
C93 C92 1.391 . S
C94 N63 1.435 . S
C94 C95 1.358 1_565 S
C94 C99 1.371 . S
C95 H67 0.930 . S
C95 C94 1.358 1_545 S
C95 C96 1.405 . S
C96 H68 0.932 . S
C96 C95 1.405 . S
C96 C97 1.383 1_545 S
C97 C96 1.383 1_565 S
C97 C98 1.393 . S
C98 H70 0.931 . S
C98 C97 1.393 . S
C98 C99 1.382 . S
C99 H69 0.929 . S
C99 C94 1.371 . S
C99 C98 1.382 . S
C100 N63 1.423 . S
C100 C101 1.362 . S
C100 C105 1.388 . S
C101 H71 0.929 . S
C101 C100 1.362 . S
C101 C102 1.376 . S
C102 H73 0.931 . S
C102 C101 1.376 . S
C102 C103 1.396 . S
C103 C102 1.396 . S
C103 C104 1.348 . S
C103 C121 1.472 . S
C104 H74 0.929 1_565 S
C104 C103 1.348 . S
C104 C105 1.443 . S
C105 H72 0.932 1_565 S
C105 C100 1.388 . S
C105 C104 1.443 . S
C106 N86 1.433 . S
C106 C107 1.363 . S
C106 C111 1.370 1_565 S
C107 H75 0.929 . S
C107 C106 1.363 . S
C107 C108 1.385 . S
C108 H76 0.930 . S
C108 C107 1.385 . S
C108 C109 1.357 . S
C109 C108 1.357 . S
C109 C110 1.406 1_565 S
C110 H77 0.929 . S
C110 C109 1.406 1_545 S
C110 C111 1.391 . S
C111 H78 0.931 . S
C111 C106 1.370 1_545 S
C111 C110 1.391 . S
C112 N86 1.435 . S
C112 C113 1.358 1_565 S
C112 C117 1.371 . S
C113 H79 0.930 . S
C113 C112 1.358 1_545 S
C113 C114 1.405 . S
C114 H80 0.932 . S
C114 C113 1.405 . S
C114 C115 1.383 1_545 S
C115 C114 1.383 1_565 S
C115 C116 1.393 . S
C116 H81 0.931 . S
C116 C115 1.393 . S
C116 C117 1.382 . S
C117 H82 0.929 . S
C117 C112 1.371 . S
C117 C116 1.382 . S
C118 N86 1.423 . S
C118 C119 1.362 . S
C118 C123 1.388 . S
C119 H83 0.929 . S
C119 C118 1.362 . S
C119 C120 1.376 . S
C120 H84 0.931 . S
C120 C119 1.376 . S
C120 C121 1.396 . S
C121 C103 1.472 . S
C121 C120 1.396 . S
C121 C122 1.348 . S
C122 H85 0.929 1_565 S
C122 C121 1.348 . S
C122 C123 1.443 . S
C123 H87 0.932 1_565 S
C123 C118 1.388 . S
C123 C122 1.443 . S
H124 C151 0.929 . S
N125 C150 1.433 . S
N125 C156 1.435 . S
N125 C162 1.423 . S
H126 C152 0.930 . S
H127 C155 0.931 . S
H128 C154 0.929 . S
H129 C157 0.930 . S
H130 C158 0.932 . S
H131 C161 0.929 . S
H132 C160 0.931 . S
H133 C163 0.929 . S
H134 C167 0.932 1_556 S
H135 C164 0.931 . S
H136 C166 0.929 . S
H137 C169 0.929 . S
H138 C170 0.930 . S
H139 C172 0.929 . S
H140 C173 0.931 . S
H141 C175 0.930 . S
H142 C176 0.932 . S
H143 C178 0.931 . S
H144 C179 0.929 . S
H145 C181 0.929 . S
H146 C182 0.931 . S
H147 C184 0.929 . S
N148 C168 1.433 . S
N148 C174 1.435 . S
N148 C180 1.423 . S
H149 C185 0.932 1_556 S
C150 N125 1.433 . S
C150 C151 1.363 . S
C150 C155 1.370 1_554 S
C151 H124 0.929 . S
C151 C150 1.363 . S
C151 C152 1.385 . S
C152 H126 0.930 . S
C152 C151 1.385 . S
C152 C153 1.357 . S
C153 C152 1.357 . S
C153 C154 1.406 1_554 S
C154 H128 0.929 . S
C154 C153 1.406 1_556 S
C154 C155 1.391 . S
C155 H127 0.931 . S
C155 C150 1.370 1_556 S
C155 C154 1.391 . S
C156 N125 1.435 . S
C156 C157 1.358 1_554 S
C156 C161 1.371 . S
C157 H129 0.930 . S
C157 C156 1.358 1_556 S
C157 C158 1.405 . S
C158 H130 0.932 . S
C158 C157 1.405 . S
C158 C159 1.383 1_556 S
C159 C158 1.383 1_554 S
C159 C160 1.393 . S
C160 H132 0.931 . S
C160 C159 1.393 . S
C160 C161 1.382 . S
C161 H131 0.929 . S
C161 C156 1.371 . S
C161 C160 1.382 . S
C162 N125 1.423 . S
C162 C163 1.362 . S
C162 C167 1.388 . S
C163 H133 0.929 . S
C163 C162 1.362 . S
C163 C164 1.376 . S
C164 H135 0.931 . S
C164 C163 1.376 . S
C164 C165 1.396 . S
C165 C164 1.396 . S
C165 C166 1.348 . S
C165 C183 1.472 . S
C166 H136 0.929 . S
C166 C165 1.348 . S
C166 C167 1.443 . S
C167 H134 0.932 1_554 S
C167 C162 1.388 . S
C167 C166 1.443 . S
C168 N148 1.433 . S
C168 C169 1.363 . S
C168 C173 1.370 1_554 S
C169 H137 0.929 . S
C169 C168 1.363 . S
C169 C170 1.385 . S
C170 H138 0.930 . S
C170 C169 1.385 . S
C170 C171 1.357 . S
C171 C170 1.357 . S
C171 C172 1.406 1_554 S
C172 H139 0.929 . S
C172 C171 1.406 1_556 S
C172 C173 1.391 . S
C173 H140 0.931 . S
C173 C168 1.370 1_556 S
C173 C172 1.391 . S
C174 N148 1.435 . S
C174 C175 1.358 1_554 S
C174 C179 1.371 . S
C175 H141 0.930 . S
C175 C174 1.358 1_556 S
C175 C176 1.405 . S
C176 H142 0.932 . S
C176 C175 1.405 . S
C176 C177 1.383 1_556 S
C177 C176 1.383 1_554 S
C177 C178 1.393 . S
C178 H143 0.931 . S
C178 C177 1.393 . S
C178 C179 1.382 . S
C179 H144 0.929 . S
C179 C174 1.371 . S
C179 C178 1.382 . S
C180 N148 1.423 . S
C180 C181 1.362 . S
C180 C185 1.388 . S
C181 H145 0.929 . S
C181 C180 1.362 . S
C181 C182 1.376 . S
C182 H146 0.931 . S
C182 C181 1.376 . S
C182 C183 1.396 . S
C183 C165 1.472 . S
C183 C182 1.396 . S
C183 C184 1.348 . S
C184 H147 0.929 . S
C184 C183 1.348 . S
C184 C185 1.443 . S
C185 H149 0.932 1_554 S
C185 C180 1.388 . S
C185 C184 1.443 . S
C186 O212 1.283 . S
C186 O230 1.283 . S
C187 O213 1.283 . S
C187 O228 1.283 . S
C188 O214 1.283 . S
C188 O231 1.283 . S
C189 O215 1.283 . S
C189 O229 1.283 . S
C190 O216 1.283 . S
C190 O225 1.283 . S
C191 O217 1.283 . S
C191 O227 1.283 . S
C192 O218 1.283 . S
C192 O224 1.283 . S
C193 O219 1.283 . S
C193 O226 1.283 . S
C194 O220 1.283 . S
C194 O235 1.283 . S
C195 O221 1.283 . S
C195 O233 1.283 . S
C196 O222 1.283 . S
C196 O234 1.283 . S
C197 O223 1.283 . S
C197 O232 1.283 . S
Eu198 O199 2.370 . S
Eu198 O200 2.370 1_454 S
Eu198 O203 2.370 1_554 S
Eu198 O204 2.370 1_455 S
Eu198 O212 2.363 1_554 S
Eu198 O213 2.363 . S
Eu198 O226 2.363 1_455 S
Eu198 O227 2.363 . S
O199 Eu198 2.370 . S
O199 Eu201 2.370 . S
O199 Eu206 2.370 . S
O200 Eu198 2.370 1_656 S
O200 Eu202 2.370 1_556 S
O200 Eu205 2.370 1_655 S
Eu201 O199 2.370 . S
Eu201 O203 2.370 1_554 S
Eu201 O207 2.370 1_544 S
Eu201 O208 2.370 1_545 S
Eu201 O216 2.363 1_545 S
Eu201 O217 2.363 . S
Eu201 O232 2.363 1_554 S
Eu201 O233 2.363 . S
Eu202 O200 2.370 1_554 S
Eu202 O204 2.370 . S
Eu202 O209 2.370 1_545 S
Eu202 O210 2.370 1_544 S
Eu202 O218 2.363 1_545 S
Eu202 O219 2.363 . S
Eu202 O234 2.363 1_554 S
Eu202 O235 2.363 . S
O203 Eu198 2.370 1_556 S
O203 Eu201 2.370 1_556 S
O203 Eu205 2.370 . S
O204 Eu198 2.370 1_655 S
O204 Eu202 2.370 . S
O204 Eu206 2.370 1_655 S
Eu205 O200 2.370 1_455 S
Eu205 O203 2.370 . S
Eu205 O207 2.370 1_545 S
Eu205 O210 2.370 1_445 S
Eu205 O222 2.363 1_455 S
Eu205 O223 2.363 . S
Eu205 O230 2.363 . S
Eu205 O231 2.363 1_545 S
Eu206 O199 2.370 . S
Eu206 O204 2.370 1_455 S
Eu206 O208 2.370 1_545 S
Eu206 O209 2.370 1_445 S
Eu206 O220 2.363 1_455 S
Eu206 O221 2.363 . S
Eu206 O228 2.363 . S
Eu206 O229 2.363 1_545 S
O207 Eu201 2.370 1_566 S
O207 Eu205 2.370 1_565 S
O207 Eu211 2.370 1_556 S
O208 Eu201 2.370 1_565 S
O208 Eu206 2.370 1_565 S
O208 Eu211 2.370 . S
O209 Eu202 2.370 1_565 S
O209 Eu206 2.370 1_665 S
O209 Eu211 2.370 1_655 S
O210 Eu202 2.370 1_566 S
O210 Eu205 2.370 1_665 S
O210 Eu211 2.370 1_656 S
Eu211 O207 2.370 1_554 S
Eu211 O208 2.370 . S
Eu211 O209 2.370 1_455 S
Eu211 O210 2.370 1_454 S
Eu211 O214 2.363 1_554 S
Eu211 O215 2.363 . S
Eu211 O224 2.363 1_455 S
Eu211 O225 2.363 . S
O212 C186 1.283 . S
O212 Eu198 2.363 1_556 S
O213 C187 1.283 . S
O213 Eu198 2.363 . S
O214 C188 1.283 . S
O214 Eu211 2.363 1_556 S
O215 C189 1.283 . S
O215 Eu211 2.363 . S
O216 C190 1.283 . S
O216 Eu201 2.363 1_565 S
O217 C191 1.283 . S
O217 Eu201 2.363 . S
O218 C192 1.283 . S
O218 Eu202 2.363 1_565 S
O219 C193 1.283 . S
O219 Eu202 2.363 . S
O220 C194 1.283 . S
O220 Eu206 2.363 1_655 S
O221 C195 1.283 . S
O221 Eu206 2.363 . S
O222 C196 1.283 . S
O222 Eu205 2.363 1_655 S
O223 C197 1.283 . S
O223 Eu205 2.363 . S
O224 C192 1.283 . S
O224 Eu211 2.363 1_655 S
O225 C190 1.283 . S
O225 Eu211 2.363 . S
O226 C193 1.283 . S
O226 Eu198 2.363 1_655 S
O227 C191 1.283 . S
O227 Eu198 2.363 . S
O228 C187 1.283 . S
O228 Eu206 2.363 . S
O229 C189 1.283 . S
O229 Eu206 2.363 1_565 S
O230 C186 1.283 . S
O230 Eu205 2.363 . S
O231 C188 1.283 . S
O231 Eu205 2.363 1_565 S
O232 C197 1.283 . S
O232 Eu201 2.363 1_556 S
O233 C195 1.283 . S
O233 Eu201 2.363 . S
O234 C196 1.283 . S
O234 Eu202 2.363 1_556 S
O235 C194 1.283 . S
O235 Eu202 2.363 . S
H236 C254 0.951 . S
H237 C256 0.951 . S
H238 C258 0.950 . S
H239 C259 0.950 . S
H240 C261 0.950 . S
H241 C264 0.950 1_455 S
H242 C265 0.950 . S
H243 C267 0.950 . S
H244 C268 0.950 . S
H245 C269 0.951 . S
H246 C271 0.951 . S
H247 C273 0.950 . S
H248 C274 0.950 . S
H249 C276 0.950 1_655 S
H250 C279 0.950 . S
H251 C280 0.950 . S
H252 C282 0.950 . S
H253 C283 0.950 . S
C254 H236 0.951 . S
C254 C255 1.366 1_655 S
C254 C256 1.388 . S
C255 C254 1.366 1_455 S
C255 C259 1.385 . S
C256 H237 0.951 . S
C256 C254 1.388 . S
C256 C257 1.366 1_655 S
C257 C256 1.366 1_455 S
C257 C258 1.414 . S
C257 C260 1.499 . S
C258 H238 0.950 . S
C258 C257 1.414 . S
C258 C259 1.374 . S
C259 H239 0.950 . S
C259 C255 1.385 . S
C259 C258 1.374 . S
C260 C257 1.499 . S
C260 C261 1.373 . S
C260 C262 1.389 . S
C261 H240 0.950 . S
C261 C260 1.373 . S
C261 C277 1.377 . S
C262 C260 1.389 . S
C262 C263 1.524 1_455 S
C262 C276 1.377 . S
C263 C262 1.524 1_655 S
C263 C264 1.397 . S
C263 C268 1.363 . S
C264 H241 0.950 1_655 S
C264 C263 1.397 . S
C264 C265 1.334 . S
C265 H242 0.950 . S
C265 C264 1.334 . S
C265 C266 1.287 . S
C266 C265 1.287 . S
C266 C267 1.524 . S
C266 H285 0.913 . S
C267 H243 0.950 . S
C267 C266 1.524 . S
C267 C268 1.415 . S
C268 H244 0.950 . S
C268 C263 1.363 . S
C268 C267 1.415 . S
C269 H245 0.951 . S
C269 C270 1.366 . S
C269 C271 1.388 . S
C270 C269 1.366 . S
C270 C274 1.385 1_455 S
C271 H246 0.951 . S
C271 C269 1.388 . S
C271 C272 1.366 . S
C272 C271 1.366 . S
C272 C273 1.414 1_455 S
C272 C275 1.499 . S
C273 H247 0.950 . S
C273 C272 1.414 1_655 S
C273 C274 1.374 . S
C274 H248 0.950 . S
C274 C270 1.385 1_655 S
C274 C273 1.374 . S
C275 C272 1.499 . S
C275 C276 1.373 . S
C275 C277 1.389 . S
C276 H249 0.950 1_455 S
C276 C262 1.377 . S
C276 C275 1.373 . S
C277 C261 1.377 . S
C277 C275 1.389 . S
C277 C278 1.524 . S
C278 C277 1.524 . S
C278 C279 1.397 . S
C278 C283 1.363 . S
C279 H250 0.950 . S
C279 C278 1.397 . S
C279 C280 1.334 . S
C280 H251 0.950 . S
C280 C279 1.334 . S
C280 C281 1.287 . S
C281 C280 1.287 . S
C281 C282 1.524 . S
C281 H284 0.999 . S
C282 H252 0.950 . S
C282 C281 1.524 . S
C282 C283 1.415 . S
C283 H253 0.950 . S
C283 C278 1.363 . S
C283 C282 1.415 . S
H284 C281 0.999 . S
H285 C266 0.913 . S
H286 C304 0.951 . S
H287 C306 0.951 . S
H288 C308 0.950 . S
H289 C309 0.950 . S
H290 C311 0.950 . S
H291 C314 0.950 . S
H292 C315 0.950 . S
H293 C317 0.950 . S
H294 C318 0.950 . S
H295 C319 0.951 . S
H296 C321 0.951 . S
H297 C323 0.950 . S
H298 C324 0.950 . S
H299 C326 0.950 . S
H300 C329 0.950 . S
H301 C330 0.950 . S
H302 C332 0.950 . S
H303 C333 0.950 . S
C304 H286 0.951 . S
C304 C305 1.365 1_565 S
C304 C306 1.388 . S
C305 C304 1.365 1_545 S
C305 C309 1.385 . S
C306 H287 0.951 . S
C306 C304 1.388 . S
C306 C307 1.366 . S
C307 C306 1.366 . S
C307 C308 1.414 1_565 S
C307 C310 1.499 . S
C308 H288 0.950 . S
C308 C307 1.414 1_545 S
C308 C309 1.374 . S
C309 H289 0.950 . S
C309 C305 1.385 . S
C309 C308 1.374 . S
C310 C307 1.499 . S
C310 C311 1.347 1_565 S
C310 C312 1.414 . S
C311 H290 0.950 . S
C311 C310 1.347 1_545 S
C311 C327 1.377 . S
C312 C310 1.414 . S
C312 C313 1.524 . S
C312 C326 1.377 . S
C313 C312 1.524 . S
C313 C314 1.397 . S
C313 C318 1.363 . S
C314 H291 0.950 . S
C314 C313 1.397 . S
C314 C315 1.334 . S
C315 H292 0.950 . S
C315 C314 1.334 . S
C315 C316 1.287 . S
C316 C315 1.287 . S
C316 C317 1.524 . S
C316 H335 0.913 . S
C317 H293 0.950 . S
C317 C316 1.524 . S
C317 C318 1.415 . S
C318 H294 0.950 . S
C318 C313 1.363 . S
C318 C317 1.415 . S
C319 H295 0.951 . S
C319 C320 1.365 . S
C319 C321 1.388 . S
C320 C319 1.365 . S
C320 C324 1.386 1_545 S
C321 H296 0.951 . S
C321 C319 1.388 . S
C321 C322 1.366 . S
C322 C321 1.366 . S
C322 C323 1.414 1_545 S
C322 C325 1.499 . S
C323 H297 0.950 . S
C323 C322 1.414 1_565 S
C323 C324 1.374 . S
C324 H298 0.950 . S
C324 C320 1.386 1_565 S
C324 C323 1.374 . S
C325 C322 1.499 . S
C325 C326 1.373 1_545 S
C325 C327 1.389 . S
C326 H299 0.950 . S
C326 C312 1.377 . S
C326 C325 1.373 1_565 S
C327 C311 1.377 . S
C327 C325 1.389 . S
C327 C328 1.524 . S
C328 C327 1.524 . S
C328 C329 1.397 . S
C328 C333 1.363 . S
C329 H300 0.950 . S
C329 C328 1.397 . S
C329 C330 1.334 . S
C330 H301 0.950 . S
C330 C329 1.334 . S
C330 C331 1.287 . S
C331 C330 1.287 . S
C331 C332 1.524 . S
C331 H334 0.999 . S
C332 H302 0.950 . S
C332 C331 1.524 . S
C332 C333 1.415 . S
C333 H303 0.950 . S
C333 C328 1.363 . S
C333 C332 1.415 . S
H334 C331 0.999 . S
H335 C316 0.913 . S
H336 C354 0.951 1_655 S
H337 C356 0.951 1_655 S
H338 C358 0.950 . S
H339 C359 0.950 . S
H340 C361 0.950 . S
H341 C364 0.950 . S
H342 C365 0.950 . S
H343 C367 0.950 1_655 S
H344 C368 0.950 1_655 S
H345 C369 0.951 . S
H346 C371 0.951 . S
H347 C373 0.950 1_655 S
H348 C374 0.950 1_655 S
H349 C376 0.950 . S
H350 C379 0.950 . S
H351 C380 0.950 . S
H352 C382 0.950 . S
H353 C383 0.950 . S
C354 H336 0.951 1_455 S
C354 C355 1.366 . S
C354 C356 1.388 . S
C355 C354 1.366 . S
C355 C359 1.385 . S
C356 H337 0.951 1_455 S
C356 C354 1.388 . S
C356 C357 1.366 . S
C357 C356 1.366 . S
C357 C358 1.414 . S
C357 C360 1.499 . S
C358 H338 0.950 . S
C358 C357 1.414 . S
C358 C359 1.374 . S
C359 H339 0.950 . S
C359 C355 1.385 . S
C359 C358 1.374 . S
C360 C357 1.499 . S
C360 C361 1.373 . S
C360 C362 1.389 . S
C361 H340 0.950 . S
C361 C360 1.373 . S
C361 C377 1.377 . S
C362 C360 1.389 . S
C362 C363 1.524 . S
C362 C376 1.377 . S
C363 C362 1.524 . S
C363 C364 1.397 . S
C363 C368 1.363 . S
C364 H341 0.950 . S
C364 C363 1.397 . S
C364 C365 1.334 . S
C365 H342 0.950 . S
C365 C364 1.334 . S
C365 C366 1.287 . S
C366 C365 1.287 . S
C366 C367 1.524 . S
C366 H385 0.913 . S
C367 H343 0.950 1_455 S
C367 C366 1.524 . S
C367 C368 1.415 . S
C368 H344 0.950 1_455 S
C368 C363 1.363 . S
C368 C367 1.415 . S
C369 H345 0.951 . S
C369 C370 1.366 . S
C369 C371 1.388 . S
C370 C369 1.366 . S
C370 C374 1.385 . S
C371 H346 0.951 . S
C371 C369 1.388 . S
C371 C372 1.366 . S
C372 C371 1.366 . S
C372 C373 1.414 . S
C372 C375 1.499 . S
C373 H347 0.950 1_455 S
C373 C372 1.414 . S
C373 C374 1.374 . S
C374 H348 0.950 1_455 S
C374 C370 1.385 . S
C374 C373 1.374 . S
C375 C372 1.499 . S
C375 C376 1.373 . S
C375 C377 1.389 . S
C376 H349 0.950 . S
C376 C362 1.377 . S
C376 C375 1.373 . S
C377 C361 1.377 . S
C377 C375 1.389 . S
C377 C378 1.524 . S
C378 C377 1.524 . S
C378 C379 1.397 1_455 S
C378 C383 1.363 . S
C379 H350 0.950 . S
C379 C378 1.397 1_655 S
C379 C380 1.334 . S
C380 H351 0.950 . S
C380 C379 1.334 . S
C380 C381 1.287 1_655 S
C381 C380 1.287 1_455 S
C381 C382 1.524 . S
C381 H384 0.999 . S
C382 H352 0.950 . S
C382 C381 1.524 . S
C382 C383 1.415 . S
C383 H353 0.950 . S
C383 C378 1.363 . S
C383 C382 1.415 . S
H384 C381 0.999 . S
H385 C366 0.913 . S
H386 C404 0.951 . S
H387 C406 0.951 . S
H388 C408 0.950 . S
H389 C409 0.950 . S
H390 C411 0.950 . S
H391 C414 0.950 . S
H392 C415 0.950 . S
H393 C417 0.950 . S
H394 C418 0.950 . S
H395 C419 0.951 . S
H396 C421 0.951 . S
H397 C423 0.950 . S
H398 C424 0.950 . S
H399 C426 0.950 . S
H400 C429 0.950 . S
H401 C430 0.950 . S
H402 C432 0.950 . S
H403 C433 0.950 . S
C404 H386 0.951 . S
C404 C405 1.366 . S
C404 C406 1.388 . S
C405 C404 1.366 . S
C405 C409 1.385 1_545 S
C406 H387 0.951 . S
C406 C404 1.388 . S
C406 C407 1.366 . S
C407 C406 1.366 . S
C407 C408 1.414 1_545 S
C407 C410 1.499 . S
C408 H388 0.950 . S
C408 C407 1.414 1_565 S
C408 C409 1.374 . S
C409 H389 0.950 . S
C409 C405 1.385 1_565 S
C409 C408 1.374 . S
C410 C407 1.499 . S
C410 C411 1.373 1_545 S
C410 C412 1.389 . S
C411 H390 0.950 . S
C411 C410 1.373 1_565 S
C411 C427 1.377 . S
C412 C410 1.389 . S
C412 C413 1.524 . S
C412 C426 1.377 . S
C413 C412 1.524 . S
C413 C414 1.397 . S
C413 C418 1.363 . S
C414 H391 0.950 . S
C414 C413 1.397 . S
C414 C415 1.334 . S
C415 H392 0.950 . S
C415 C414 1.334 . S
C415 C416 1.287 . S
C416 C415 1.287 . S
C416 C417 1.524 . S
C416 H435 0.913 . S
C417 H393 0.950 . S
C417 C416 1.524 . S
C417 C418 1.415 . S
C418 H394 0.950 . S
C418 C413 1.363 . S
C418 C417 1.415 . S
C419 H395 0.951 . S
C419 C420 1.366 1_565 S
C419 C421 1.388 . S
C420 C419 1.366 1_545 S
C420 C424 1.385 . S
C421 H396 0.951 . S
C421 C419 1.388 . S
C421 C422 1.366 . S
C422 C421 1.366 . S
C422 C423 1.414 1_565 S
C422 C425 1.499 . S
C423 H397 0.950 . S
C423 C422 1.414 1_545 S
C423 C424 1.374 . S
C424 H398 0.950 . S
C424 C420 1.385 . S
C424 C423 1.374 . S
C425 C422 1.499 . S
C425 C426 1.373 1_565 S
C425 C427 1.389 . S
C426 H399 0.950 . S
C426 C412 1.377 . S
C426 C425 1.373 1_545 S
C427 C411 1.377 . S
C427 C425 1.389 . S
C427 C428 1.524 . S
C428 C427 1.524 . S
C428 C429 1.397 . S
C428 C433 1.363 . S
C429 H400 0.950 . S
C429 C428 1.397 . S
C429 C430 1.334 . S
C430 H401 0.950 . S
C430 C429 1.334 . S
C430 C431 1.287 . S
C431 C430 1.287 . S
C431 C432 1.524 . S
C431 H434 0.999 . S
C432 H402 0.950 . S
C432 C431 1.524 . S
C432 C433 1.415 . S
C433 H403 0.950 . S
C433 C428 1.363 . S
C433 C432 1.415 . S
H434 C431 0.999 . S
H435 C416 0.913 . S
H436 C454 0.951 . S
H437 C456 0.951 . S
H438 C458 0.950 . S
H439 C459 0.950 . S
H440 C461 0.950 . S
H441 C464 0.950 . S
H442 C465 0.950 . S
H443 C467 0.950 . S
H444 C468 0.950 . S
H445 C469 0.951 . S
H446 C471 0.951 . S
H447 C473 0.950 . S
H448 C474 0.950 . S
H449 C476 0.950 1_655 S
H450 C479 0.950 . S
H451 C480 0.950 . S
H452 C482 0.950 . S
H453 C483 0.950 . S
C454 H436 0.951 . S
C454 C455 1.366 . S
C454 C456 1.388 . S
C455 C454 1.366 . S
C455 C459 1.385 . S
C456 H437 0.951 . S
C456 C454 1.388 . S
C456 C457 1.366 . S
C457 C456 1.366 . S
C457 C458 1.414 . S
C457 C460 1.499 . S
C458 H438 0.950 . S
C458 C457 1.414 . S
C458 C459 1.374 . S
C459 H439 0.950 . S
C459 C455 1.385 . S
C459 C458 1.374 . S
C460 C457 1.499 . S
C460 C461 1.373 . S
C460 C462 1.389 . S
C461 H440 0.950 . S
C461 C460 1.373 . S
C461 C477 1.377 . S
C462 C460 1.389 . S
C462 C463 1.524 1_455 S
C462 C476 1.377 . S
C463 C462 1.524 1_655 S
C463 C464 1.397 . S
C463 C468 1.363 . S
C464 H441 0.950 . S
C464 C463 1.397 . S
C464 C465 1.334 . S
C465 H442 0.950 . S
C465 C464 1.334 . S
C465 C466 1.287 . S
C466 C465 1.287 . S
C466 C467 1.524 . S
C466 H485 0.913 . S
C467 H443 0.950 . S
C467 C466 1.524 . S
C467 C468 1.415 . S
C468 H444 0.950 . S
C468 C463 1.363 . S
C468 C467 1.415 . S
C469 H445 0.951 . S
C469 C470 1.366 . S
C469 C471 1.388 . S
C470 C469 1.366 . S
C470 C474 1.385 . S
C471 H446 0.951 . S
C471 C469 1.388 . S
C471 C472 1.366 . S
C472 C471 1.366 . S
C472 C473 1.414 . S
C472 C475 1.499 . S
C473 H447 0.950 . S
C473 C472 1.414 . S
C473 C474 1.374 . S
C474 H448 0.950 . S
C474 C470 1.385 . S
C474 C473 1.374 . S
C475 C472 1.499 . S
C475 C476 1.373 . S
C475 C477 1.389 . S
C476 H449 0.950 1_455 S
C476 C462 1.377 . S
C476 C475 1.373 . S
C477 C461 1.377 . S
C477 C475 1.389 . S
C477 C478 1.524 . S
C478 C477 1.524 . S
C478 C479 1.397 . S
C478 C483 1.363 . S
C479 H450 0.950 . S
C479 C478 1.397 . S
C479 C480 1.334 . S
C480 H451 0.950 . S
C480 C479 1.334 . S
C480 C481 1.287 . S
C481 C480 1.287 . S
C481 C482 1.524 . S
C481 H484 0.999 . S
C482 H452 0.950 . S
C482 C481 1.524 . S
C482 C483 1.415 . S
C483 H453 0.950 . S
C483 C478 1.363 . S
C483 C482 1.415 . S
H484 C481 0.999 . S
H485 C466 0.913 . S
H486 C504 0.951 . S
H487 C506 0.951 . S
H488 C508 0.950 . S
H489 C509 0.950 . S
H490 C511 0.950 . S
H491 C514 0.950 . S
H492 C515 0.950 . S
H493 C517 0.950 . S
H494 C518 0.950 . S
H495 C519 0.951 . S
H496 C521 0.951 . S
H497 C523 0.950 . S
H498 C524 0.950 . S
H499 C526 0.950 . S
H500 C529 0.950 . S
H501 C530 0.950 . S
H502 C532 0.950 . S
H503 C533 0.950 . S
C504 H486 0.951 . S
C504 C505 1.365 1_565 S
C504 C506 1.388 . S
C505 C504 1.365 1_545 S
C505 C509 1.386 . S
C506 H487 0.951 . S
C506 C504 1.388 . S
C506 C507 1.381 . S
C507 C506 1.381 . S
C507 C508 1.398 1_565 S
C507 C510 1.498 1_565 S
C508 H488 0.950 . S
C508 C507 1.398 1_545 S
C508 C509 1.374 . S
C509 H489 0.950 . S
C509 C505 1.386 . S
C509 C508 1.374 . S
C510 C507 1.498 1_545 S
C510 C511 1.378 . S
C510 C512 1.385 1_545 S
C511 H490 0.950 . S
C511 C510 1.378 . S
C511 C527 1.377 . S
C512 C510 1.385 1_565 S
C512 C513 1.524 . S
C512 C526 1.377 . S
C513 C512 1.524 . S
C513 C514 1.397 . S
C513 C518 1.363 . S
C514 H491 0.950 . S
C514 C513 1.397 . S
C514 C515 1.334 . S
C515 H492 0.950 . S
C515 C514 1.334 . S
C515 C516 1.287 . S
C516 C515 1.287 . S
C516 C517 1.524 . S
C516 H535 0.913 . S
C517 H493 0.950 . S
C517 C516 1.524 . S
C517 C518 1.415 . S
C518 H494 0.950 . S
C518 C513 1.363 . S
C518 C517 1.415 . S
C519 H495 0.951 . S
C519 C520 1.365 . S
C519 C521 1.388 . S
C520 C519 1.365 . S
C520 C524 1.386 1_545 S
C521 H496 0.951 . S
C521 C519 1.388 . S
C521 C522 1.387 . S
C522 C521 1.387 . S
C522 C523 1.392 1_545 S
C522 C525 1.498 1_545 S
C523 H497 0.950 . S
C523 C522 1.392 1_565 S
C523 C524 1.374 . S
C524 H498 0.950 . S
C524 C520 1.386 1_565 S
C524 C523 1.374 . S
C525 C522 1.498 1_565 S
C525 C526 1.372 . S
C525 C527 1.391 1_565 S
C526 H499 0.950 . S
C526 C512 1.377 . S
C526 C525 1.372 . S
C527 C511 1.377 . S
C527 C525 1.391 1_545 S
C527 C528 1.524 . S
C528 C527 1.524 . S
C528 C529 1.397 . S
C528 C533 1.363 . S
C529 H500 0.950 . S
C529 C528 1.397 . S
C529 C530 1.334 . S
C530 H501 0.950 . S
C530 C529 1.334 . S
C530 C531 1.287 . S
C531 C530 1.287 . S
C531 C532 1.524 . S
C531 H534 0.999 . S
C532 H502 0.950 . S
C532 C531 1.524 . S
C532 C533 1.415 . S
C533 H503 0.950 . S
C533 C528 1.363 . S
C533 C532 1.415 . S
H534 C531 0.999 . S
H535 C516 0.913 . S
H536 C554 0.951 . S
H537 C556 0.951 . S
H538 C558 0.950 1_655 S
H539 C559 0.950 1_655 S
H540 C561 0.950 . S
H541 C564 0.950 . S
H542 C565 0.950 . S
H543 C567 0.950 . S
H544 C568 0.950 . S
H545 C569 0.951 1_655 S
H546 C571 0.951 1_655 S
H547 C573 0.950 . S
H548 C574 0.950 . S
H549 C576 0.950 . S
H550 C579 0.950 . S
H551 C580 0.950 . S
H552 C582 0.950 . S
H553 C583 0.950 . S
C554 H536 0.951 . S
C554 C555 1.366 . S
C554 C556 1.388 . S
C555 C554 1.366 . S
C555 C559 1.385 . S
C556 H537 0.951 . S
C556 C554 1.388 . S
C556 C557 1.366 . S
C557 C556 1.366 . S
C557 C558 1.414 . S
C557 C560 1.499 . S
C558 H538 0.950 1_455 S
C558 C557 1.414 . S
C558 C559 1.374 . S
C559 H539 0.950 1_455 S
C559 C555 1.385 . S
C559 C558 1.374 . S
C560 C557 1.499 . S
C560 C561 1.373 . S
C560 C562 1.389 . S
C561 H540 0.950 . S
C561 C560 1.373 . S
C561 C577 1.377 . S
C562 C560 1.389 . S
C562 C563 1.524 . S
C562 C576 1.377 . S
C563 C562 1.524 . S
C563 C564 1.397 1_455 S
C563 C568 1.363 . S
C564 H541 0.950 . S
C564 C563 1.397 1_655 S
C564 C565 1.334 . S
C565 H542 0.950 . S
C565 C564 1.334 . S
C565 C566 1.287 . S
C566 C565 1.287 . S
C566 C567 1.524 1_655 S
C566 H585 0.913 . S
C567 H543 0.950 . S
C567 C566 1.524 1_455 S
C567 C568 1.415 . S
C568 H544 0.950 . S
C568 C563 1.363 . S
C568 C567 1.415 . S
C569 H545 0.951 1_455 S
C569 C570 1.366 . S
C569 C571 1.388 . S
C570 C569 1.366 . S
C570 C574 1.385 . S
C571 H546 0.951 1_455 S
C571 C569 1.388 . S
C571 C572 1.366 . S
C572 C571 1.366 . S
C572 C573 1.414 . S
C572 C575 1.499 . S
C573 H547 0.950 . S
C573 C572 1.414 . S
C573 C574 1.374 . S
C574 H548 0.950 . S
C574 C570 1.385 . S
C574 C573 1.374 . S
C575 C572 1.499 . S
C575 C576 1.373 . S
C575 C577 1.389 . S
C576 H549 0.950 . S
C576 C562 1.377 . S
C576 C575 1.373 . S
C577 C561 1.377 . S
C577 C575 1.389 . S
C577 C578 1.524 . S
C578 C577 1.524 . S
C578 C579 1.397 . S
C578 C583 1.363 . S
C579 H550 0.950 . S
C579 C578 1.397 . S
C579 C580 1.334 . S
C580 H551 0.950 . S
C580 C579 1.334 . S
C580 C581 1.287 . S
C581 C580 1.287 . S
C581 C582 1.524 . S
C581 H584 0.999 . S
C582 H552 0.950 . S
C582 C581 1.524 . S
C582 C583 1.415 . S
C583 H553 0.950 . S
C583 C578 1.363 . S
C583 C582 1.415 . S
H584 C581 0.999 . S
H585 C566 0.913 . S
H586 C604 0.951 . S
H587 C606 0.951 . S
H588 C608 0.950 . S
H589 C609 0.950 . S
H590 C611 0.950 . S
H591 C614 0.950 . S
H592 C615 0.950 . S
H593 C617 0.950 . S
H594 C618 0.950 . S
H595 C619 0.951 . S
H596 C621 0.951 . S
H597 C623 0.950 . S
H598 C624 0.950 . S
H599 C626 0.950 . S
H600 C629 0.950 . S
H601 C630 0.950 . S
H602 C632 0.950 . S
H603 C633 0.950 . S
C604 H586 0.951 . S
C604 C605 1.365 1_565 S
C604 C606 1.388 . S
C605 C604 1.365 1_545 S
C605 C609 1.386 . S
C606 H587 0.951 . S
C606 C604 1.388 . S
C606 C607 1.366 . S
C607 C606 1.366 . S
C607 C608 1.414 1_565 S
C607 C610 1.499 . S
C608 H588 0.950 . S
C608 C607 1.414 1_545 S
C608 C609 1.374 . S
C609 H589 0.950 . S
C609 C605 1.386 . S
C609 C608 1.374 . S
C610 C607 1.499 . S
C610 C611 1.345 1_565 S
C610 C612 1.416 . S
C611 H590 0.950 . S
C611 C610 1.345 1_545 S
C611 C627 1.377 . S
C612 C610 1.416 . S
C612 C613 1.524 . S
C612 C626 1.377 . S
C613 C612 1.524 . S
C613 C614 1.397 . S
C613 C618 1.363 . S
C614 H591 0.950 . S
C614 C613 1.397 . S
C614 C615 1.334 . S
C615 H592 0.950 . S
C615 C614 1.334 . S
C615 C616 1.287 . S
C616 C615 1.287 . S
C616 C617 1.524 . S
C616 H635 0.913 . S
C617 H593 0.950 . S
C617 C616 1.524 . S
C617 C618 1.415 . S
C618 H594 0.950 . S
C618 C613 1.363 . S
C618 C617 1.415 . S
C619 H595 0.951 . S
C619 C620 1.365 . S
C619 C621 1.388 . S
C620 C619 1.365 . S
C620 C624 1.385 1_545 S
C621 H596 0.951 . S
C621 C619 1.388 . S
C621 C622 1.366 . S
C622 C621 1.366 . S
C622 C623 1.414 1_545 S
C622 C625 1.499 . S
C623 H597 0.950 . S
C623 C622 1.414 1_565 S
C623 C624 1.374 . S
C624 H598 0.950 . S
C624 C620 1.385 1_565 S
C624 C623 1.374 . S
C625 C622 1.499 . S
C625 C626 1.373 1_545 S
C625 C627 1.389 . S
C626 H599 0.950 . S
C626 C612 1.377 . S
C626 C625 1.373 1_565 S
C627 C611 1.377 . S
C627 C625 1.389 . S
C627 C628 1.524 . S
C628 C627 1.524 . S
C628 C629 1.397 . S
C628 C633 1.363 . S
C629 H600 0.950 . S
C629 C628 1.397 . S
C629 C630 1.334 . S
C630 H601 0.950 . S
C630 C629 1.334 . S
C630 C631 1.287 . S
C631 C630 1.287 . S
C631 C632 1.524 . S
C631 H634 0.999 . S
C632 H602 0.950 . S
C632 C631 1.524 . S
C632 C633 1.415 . S
C633 H603 0.950 . S
C633 C628 1.363 . S
C633 C632 1.415 . S
H634 C631 0.999 . S
H635 C616 0.913 . S
H636 C654 0.953 . S
H637 C656 0.951 . S
H638 C658 0.950 . S
H639 C659 0.950 . S
H640 C661 0.950 . S
H641 C664 0.950 . S
H642 C665 0.950 . S
H643 C667 0.950 . S
H644 C668 0.950 . S
H645 C669 0.951 . S
H646 C671 0.951 . S
H647 C673 0.950 . S
H648 C674 0.951 . S
H649 C676 0.950 . S
H650 C679 0.950 . S
H651 C680 0.950 . S
H652 C682 0.950 . S
H653 C683 0.950 . S
C654 H636 0.953 . S
C654 C655 1.366 . S
C654 C656 1.388 . S
C655 C654 1.366 . S
C655 C659 1.385 . S
C656 H637 0.951 . S
C656 C654 1.388 . S
C656 C657 1.366 . S
C657 C656 1.366 . S
C657 C658 1.414 . S
C657 C660 1.499 . S
C658 H638 0.950 . S
C658 C657 1.414 . S
C658 C659 1.374 . S
C659 H639 0.950 . S
C659 C655 1.385 . S
C659 C658 1.374 . S
C660 C657 1.499 . S
C660 C661 1.373 1_554 S
C660 C662 1.389 . S
C661 H640 0.950 . S
C661 C660 1.373 1_556 S
C661 C677 1.377 . S
C662 C660 1.389 . S
C662 C663 1.524 . S
C662 C676 1.377 . S
C663 C662 1.524 . S
C663 C664 1.397 . S
C663 C668 1.363 . S
C664 H641 0.950 . S
C664 C663 1.397 . S
C664 C665 1.334 . S
C665 H642 0.950 . S
C665 C664 1.334 . S
C665 C666 1.287 . S
C666 C665 1.287 . S
C666 C667 1.524 . S
C666 H685 0.913 . S
C667 H643 0.950 . S
C667 C666 1.524 . S
C667 C668 1.415 . S
C668 H644 0.950 . S
C668 C663 1.363 . S
C668 C667 1.415 . S
C669 H645 0.951 . S
C669 C670 1.366 . S
C669 C671 1.388 . S
C670 C669 1.366 . S
C670 C674 1.385 . S
C671 H646 0.951 . S
C671 C669 1.388 . S
C671 C672 1.366 . S
C672 C671 1.366 . S
C672 C673 1.414 . S
C672 C675 1.499 . S
C673 H647 0.950 . S
C673 C672 1.414 . S
C673 C674 1.374 . S
C674 H648 0.951 . S
C674 C670 1.385 . S
C674 C673 1.374 . S
C675 C672 1.499 . S
C675 C676 1.373 . S
C675 C677 1.389 1_554 S
C676 H649 0.950 . S
C676 C662 1.377 . S
C676 C675 1.373 . S
C677 C661 1.377 . S
C677 C675 1.389 1_556 S
C677 C678 1.524 . S
C678 C677 1.524 . S
C678 C679 1.397 . S
C678 C683 1.363 . S
C679 H650 0.950 . S
C679 C678 1.397 . S
C679 C680 1.334 . S
C680 H651 0.950 . S
C680 C679 1.334 . S
C680 C681 1.287 . S
C681 C680 1.287 . S
C681 C682 1.524 . S
C681 H684 0.999 . S
C682 H652 0.950 . S
C682 C681 1.524 . S
C682 C683 1.415 . S
C683 H653 0.950 . S
C683 C678 1.363 . S
C683 C682 1.415 . S
H684 C681 0.999 . S
H685 C666 0.913 . S
H686 C704 0.951 . S
H687 C706 0.951 . S
H688 C708 0.950 . S
H689 C709 0.950 . S
H690 C711 0.950 . S
H691 C714 0.950 . S
H692 C715 0.950 . S
H693 C717 0.950 . S
H694 C718 0.950 . S
H695 C719 0.951 . S
H696 C721 0.951 . S
H697 C723 0.950 . S
H698 C724 0.950 . S
H699 C726 0.950 . S
H700 C729 0.950 . S
H701 C730 0.950 . S
H702 C732 0.950 . S
H703 C733 0.950 . S
C704 H686 0.951 . S
C704 C705 1.366 1_556 S
C704 C706 1.388 . S
C705 C704 1.366 1_554 S
C705 C709 1.385 . S
C706 H687 0.951 . S
C706 C704 1.388 . S
C706 C707 1.366 1_556 S
C707 C706 1.366 1_554 S
C707 C708 1.414 . S
C707 C710 1.499 . S
C708 H688 0.950 . S
C708 C707 1.414 . S
C708 C709 1.374 . S
C709 H689 0.950 . S
C709 C705 1.385 . S
C709 C708 1.374 . S
C710 C707 1.499 . S
C710 C711 1.373 . S
C710 C712 1.389 1_554 S
C711 H690 0.950 . S
C711 C710 1.373 . S
C711 C727 1.377 . S
C712 C710 1.389 1_556 S
C712 C713 1.524 . S
C712 C726 1.377 . S
C713 C712 1.524 . S
C713 C714 1.397 . S
C713 C718 1.363 . S
C714 H691 0.950 . S
C714 C713 1.397 . S
C714 C715 1.334 . S
C715 H692 0.950 . S
C715 C714 1.334 . S
C715 C716 1.287 . S
C716 C715 1.287 . S
C716 C717 1.524 . S
C716 H735 0.913 . S
C717 H693 0.950 . S
C717 C716 1.524 . S
C717 C718 1.415 . S
C718 H694 0.950 . S
C718 C713 1.363 . S
C718 C717 1.415 . S
C719 H695 0.951 . S
C719 C720 1.366 . S
C719 C721 1.388 . S
C720 C719 1.366 . S
C720 C724 1.385 1_554 S
C721 H696 0.951 . S
C721 C719 1.388 . S
C721 C722 1.366 . S
C722 C721 1.366 . S
C722 C723 1.414 1_554 S
C722 C725 1.499 . S
C723 H697 0.950 . S
C723 C722 1.414 1_556 S
C723 C724 1.374 . S
C724 H698 0.950 . S
C724 C720 1.385 1_556 S
C724 C723 1.374 . S
C725 C722 1.499 . S
C725 C726 1.373 1_554 S
C725 C727 1.389 . S
C726 H699 0.950 . S
C726 C712 1.377 . S
C726 C725 1.373 1_556 S
C727 C711 1.377 . S
C727 C725 1.389 . S
C727 C728 1.524 . S
C728 C727 1.524 . S
C728 C729 1.397 . S
C728 C733 1.363 . S
C729 H700 0.950 . S
C729 C728 1.397 . S
C729 C730 1.334 . S
C730 H701 0.950 . S
C730 C729 1.334 . S
C730 C731 1.287 . S
C731 C730 1.287 . S
C731 C732 1.524 . S
C731 H734 0.999 . S
C732 H702 0.950 . S
C732 C731 1.524 . S
C732 C733 1.415 . S
C733 H703 0.950 . S
C733 C728 1.363 . S
C733 C732 1.415 . S
H734 C731 0.999 . S
H735 C716 0.913 . S
H736 C754 0.951 . S
H737 C756 0.951 . S
H738 C758 0.950 . S
H739 C759 0.950 . S
H740 C761 0.950 . S
H741 C764 0.950 . S
H742 C765 0.950 . S
H743 C767 0.950 . S
H744 C768 0.950 . S
H745 C769 0.951 . S
H746 C771 0.951 . S
H747 C773 0.950 . S
H748 C774 0.950 . S
H749 C776 0.950 . S
H750 C779 0.950 . S
H751 C780 0.950 . S
H752 C782 0.950 . S
H753 C783 0.950 . S
C754 H736 0.951 . S
C754 C755 1.366 1_556 S
C754 C756 1.388 . S
C755 C754 1.366 1_554 S
C755 C759 1.385 . S
C756 H737 0.951 . S
C756 C754 1.388 . S
C756 C757 1.366 1_556 S
C757 C756 1.366 1_554 S
C757 C758 1.414 . S
C757 C760 1.499 . S
C758 H738 0.950 . S
C758 C757 1.414 . S
C758 C759 1.374 . S
C759 H739 0.950 . S
C759 C755 1.385 . S
C759 C758 1.374 . S
C760 C757 1.499 . S
C760 C761 1.373 . S
C760 C762 1.394 . S
C761 H740 0.950 . S
C761 C760 1.373 . S
C761 C777 1.377 . S
C762 C760 1.394 . S
C762 C763 1.523 1_554 S
C762 C776 1.375 1_554 S
C763 C762 1.523 1_556 S
C763 C764 1.397 1_556 S
C763 C768 1.363 . S
C764 H741 0.950 . S
C764 C763 1.397 1_554 S
C764 C765 1.334 . S
C765 H742 0.950 . S
C765 C764 1.334 . S
C765 C766 1.287 . S
C766 C765 1.287 . S
C766 C767 1.523 1_554 S
C766 H785 0.913 1_554 S
C767 H743 0.950 . S
C767 C766 1.523 1_556 S
C767 C768 1.415 . S
C768 H744 0.950 . S
C768 C763 1.363 . S
C768 C767 1.415 . S
C769 H745 0.951 . S
C769 C770 1.366 . S
C769 C771 1.388 . S
C770 C769 1.366 . S
C770 C774 1.385 1_554 S
C771 H746 0.951 . S
C771 C769 1.388 . S
C771 C772 1.366 . S
C772 C771 1.366 . S
C772 C773 1.414 1_554 S
C772 C775 1.499 . S
C773 H747 0.950 . S
C773 C772 1.414 1_556 S
C773 C774 1.374 . S
C774 H748 0.950 . S
C774 C770 1.385 1_556 S
C774 C773 1.374 . S
C775 C772 1.499 . S
C775 C776 1.373 1_554 S
C775 C777 1.389 . S
C776 H749 0.950 . S
C776 C762 1.375 1_556 S
C776 C775 1.373 1_556 S
C777 C761 1.377 . S
C777 C775 1.389 . S
C777 C778 1.524 . S
C778 C777 1.524 . S
C778 C779 1.397 1_554 S
C778 C783 1.363 . S
C779 H750 0.950 . S
C779 C778 1.397 1_556 S
C779 C780 1.334 . S
C780 H751 0.950 . S
C780 C779 1.334 . S
C780 C781 1.287 1_556 S
C781 C780 1.287 1_554 S
C781 C782 1.524 . S
C781 H784 0.999 . S
C782 H752 0.950 . S
C782 C781 1.524 . S
C782 C783 1.415 . S
C783 H753 0.950 . S
C783 C778 1.363 . S
C783 C782 1.415 . S
H784 C781 0.999 . S
H785 C766 0.913 1_556 S
H786 C804 0.951 . S
H787 C806 0.951 . S
H788 C808 0.950 . S
H789 C809 0.950 . S
H790 C811 0.950 . S
H791 C814 0.950 . S
H792 C815 0.950 . S
H793 C817 0.950 . S
H794 C818 0.950 . S
H795 C819 0.951 . S
H796 C821 0.951 . S
H797 C823 0.950 . S
H798 C824 0.950 . S
H799 C826 0.950 . S
H800 C829 0.950 . S
H801 C830 0.950 . S
H802 C832 0.950 . S
H803 C833 0.950 . S
C804 H786 0.951 . S
C804 C805 1.366 1_556 S
C804 C806 1.388 . S
C805 C804 1.366 1_554 S
C805 C809 1.385 . S
C806 H787 0.951 . S
C806 C804 1.388 . S
C806 C807 1.366 1_556 S
C807 C806 1.366 1_554 S
C807 C808 1.414 . S
C807 C810 1.499 . S
C808 H788 0.950 . S
C808 C807 1.414 . S
C808 C809 1.374 . S
C809 H789 0.950 . S
C809 C805 1.385 . S
C809 C808 1.374 . S
C810 C807 1.499 . S
C810 C811 1.373 1_554 S
C810 C812 1.389 . S
C811 H790 0.950 . S
C811 C810 1.373 1_556 S
C811 C827 1.377 . S
C812 C810 1.389 . S
C812 C813 1.524 . S
C812 C826 1.377 . S
C813 C812 1.524 . S
C813 C814 1.397 . S
C813 C818 1.363 . S
C814 H791 0.950 . S
C814 C813 1.397 . S
C814 C815 1.334 . S
C815 H792 0.950 . S
C815 C814 1.334 . S
C815 C816 1.287 . S
C816 C815 1.287 . S
C816 C817 1.524 . S
C816 H835 0.913 . S
C817 H793 0.950 . S
C817 C816 1.524 . S
C817 C818 1.415 . S
C818 H794 0.950 . S
C818 C813 1.363 . S
C818 C817 1.415 . S
C819 H795 0.951 . S
C819 C820 1.366 . S
C819 C821 1.388 . S
C820 C819 1.366 . S
C820 C824 1.385 1_554 S
C821 H796 0.951 . S
C821 C819 1.388 . S
C821 C822 1.366 . S
C822 C821 1.366 . S
C822 C823 1.414 1_554 S
C822 C825 1.499 . S
C823 H797 0.950 . S
C823 C822 1.414 1_556 S
C823 C824 1.374 . S
C824 H798 0.950 . S
C824 C820 1.385 1_556 S
C824 C823 1.374 . S
C825 C822 1.499 . S
C825 C826 1.373 . S
C825 C827 1.389 1_554 S
C826 H799 0.950 . S
C826 C812 1.377 . S
C826 C825 1.373 . S
C827 C811 1.377 . S
C827 C825 1.389 1_556 S
C827 C828 1.524 . S
C828 C827 1.524 . S
C828 C829 1.397 . S
C828 C833 1.363 . S
C829 H800 0.950 . S
C829 C828 1.397 . S
C829 C830 1.334 . S
C830 H801 0.950 . S
C830 C829 1.334 . S
C830 C831 1.287 . S
C831 C830 1.287 . S
C831 C832 1.524 . S
C831 H834 0.999 . S
C832 H802 0.950 . S
C832 C831 1.524 . S
C832 C833 1.415 . S
C833 H803 0.950 . S
C833 C828 1.363 . S
C833 C832 1.415 . S
H834 C831 0.999 . S
H835 C816 0.913 . S
C270 C187 2.060 . S
C255 C53 2.061 . S
C320 C194 1.062 . S
C305 C97 1.064 1_545 S
C370 C189 2.061 . S
C355 C35 2.065 . S
C420 C195 1.235 . S
C405 C91 1.202 1_545 S
C455 C29 2.213 . S
C470 C188 2.271 . S
C520 C197 1.235 . S
C505 C109 1.201 1_545 S
C555 C47 2.213 . S
C570 C186 2.267 . S
C605 C115 1.064 1_545 S
C620 C196 1.062 . S
C655 C153 1.666 . S
C670 C191 1.727 . S
C705 C171 1.667 . S
C720 C190 1.732 . S
C770 C193 1.497 . S
C755 C159 1.492 . S
C820 C192 1.497 . S
C805 C177 1.496 . S
