# Generated by pormake.
# Topology tsx, (6,3)-cn, num edge types: 1
# Building blocks:
#     Node 0, Type 0, BuildingBlock: VOLQOD_clean_sbu_1, # of connection points: 6
#     Node 1, Type 0, BuildingBlock: VOLQOD_clean_sbu_1, # of connection points: 6
#     Node 2, Type 1, BuildingBlock: BELTOD_clean_linker_0, # of connection points: 3
#     Node 3, Type 1, BuildingBlock: BELTOD_clean_linker_0, # of connection points: 3
#     Node 4, Type 1, BuildingBlock: BELTOD_clean_linker_0, # of connection points: 3
#     Node 5, Type 1, BuildingBlock: BELTOD_clean_linker_0, # of connection points: 3
#     Edge 6, Type (0, 1), BuildingBlock: FUNLAD_clean_linker_0, # of connection points: 2
#     Edge 7, Type (0, 1), BuildingBlock: FUNLAD_clean_linker_0, # of connection points: 2
#     Edge 8, Type (0, 1), BuildingBlock: FUNLAD_clean_linker_0, # of connection points: 2
#     Edge 9, Type (0, 1), BuildingBlock: FUNLAD_clean_linker_0, # of connection points: 2
#     Edge 10, Type (0, 1), BuildingBlock: FUNLAD_clean_linker_0, # of connection points: 2
#     Edge 11, Type (0, 1), BuildingBlock: FUNLAD_clean_linker_0, # of connection points: 2
#     Edge 12, Type (0, 1), BuildingBlock: FUNLAD_clean_linker_0, # of connection points: 2
#     Edge 13, Type (0, 1), BuildingBlock: FUNLAD_clean_linker_0, # of connection points: 2
#     Edge 14, Type (0, 1), BuildingBlock: FUNLAD_clean_linker_0, # of connection points: 2
#     Edge 15, Type (0, 1), BuildingBlock: FUNLAD_clean_linker_0, # of connection points: 2
#     Edge 16, Type (0, 1), BuildingBlock: FUNLAD_clean_linker_0, # of connection points: 2
#     Edge 17, Type (0, 1), BuildingBlock: FUNLAD_clean_linker_0, # of connection points: 2
# Relax obj value: 0.067
# Max RMSD: 0.102
# Mean RMSD: 0.074
data_MOF--net-tsx--node1-VOLQOD_clean_sbu_1--node2-BELTOD_clean_linker_0--edge1-FUNLAD_clean_linker_0
_symmetry_space_group_name_H-M    P1
_symmetry_Int_Tables_number       1
_symmetry_cell_setting            triclinic
loop_
_symmetry_equiv_pos_as_xyz
'x, y, z'
_cell_length_a     26.375583
_cell_length_b     27.32625
_cell_length_c     51.413836
_cell_angle_alpha  91.06231
_cell_angle_beta   90.153837
_cell_angle_gamma 90.089367
loop_
_atom_site_label
_atom_site_type_symbol
_atom_site_fract_x
_atom_site_fract_y
_atom_site_fract_z
_atom_type_partial_charge
O0 O 0.99522 0.98345 0.06719 0.0
Zn1 Zn 0.02565 0.98183 0.0316 0.0
O2 O 0.97429 0.99155 0.00501 0.0
Zn3 Zn 0.97012 0.9327 0.9831 0.0
Zn4 Zn 0.90863 0.00465 0.02184 0.0
Zn5 Zn 0.99429 0.0464 0.98346 0.0
O6 O 0.98101 0.94776 0.94539 0.0
O7 O 0.00706 0.02501 0.94627 0.0
O8 O 0.06389 0.91898 0.02612 0.0
O9 O 0.02438 0.88427 0.99241 0.0
O10 O 0.90268 0.89997 0.98704 0.0
O11 O 0.85966 0.94901 0.01392 0.0
O12 O 0.87801 0.06809 0.00898 0.0
O13 O 0.07669 0.03597 0.0314 0.0
O14 O 0.93773 0.09487 0.98231 0.0
O15 O 0.05633 0.08152 0.99771 0.0
C16 C 0.95253 0.99703 0.07625 0.0
C17 C 0.99779 0.98524 0.93382 0.0
C18 C 0.8627 0.9102 0.99984 0.0
C19 C 0.05901 0.88385 0.0097 0.0
C20 C 0.89451 0.09955 0.99303 0.0
C21 C 0.08469 0.07274 0.01716 0.0
O22 O 0.91621 0.00887 0.0612 0.0
O23 O 0.52262 0.50467 0.56821 0.0
Zn24 Zn 0.54122 0.49675 0.5306 0.0
O25 O 0.48194 0.50373 0.50823 0.0
Zn26 Zn 0.47249 0.44351 0.48775 0.0
Zn27 Zn 0.42173 0.5164 0.52986 0.0
Zn28 Zn 0.49332 0.55781 0.48449 0.0
O29 O 0.47427 0.4559 0.44931 0.0
O30 O 0.49457 0.53449 0.44695 0.0
O31 O 0.57538 0.43162 0.52519 0.0
O32 O 0.52806 0.3951 0.49483 0.0
O33 O 0.40636 0.41147 0.49637 0.0
O34 O 0.37151 0.46053 0.52622 0.0
O35 O 0.38642 0.57856 0.51884 0.0
O36 O 0.59283 0.5488 0.5235 0.0
O37 O 0.43692 0.60649 0.48792 0.0
O38 O 0.5591 0.59319 0.49222 0.0
C39 C 0.4822 0.51619 0.58031 0.0
C40 C 0.48497 0.49331 0.43597 0.0
C41 C 0.37042 0.4218 0.51201 0.0
C42 C 0.56605 0.39516 0.51015 0.0
C43 C 0.39734 0.61044 0.50193 0.0
C44 C 0.59492 0.58476 0.50816 0.0
O45 O 0.44068 0.52306 0.56814 0.0
P46 P 0.05683 0.09399 0.39592 0.0
H47 H 0.05912 0.14269 0.44658 0.0
H48 H 0.99255 0.1748 0.47522 0.0
H49 H 0.87885 0.12165 0.42092 0.0
H50 H 0.94533 0.08897 0.39277 0.0
H51 H 0.15412 0.05125 0.38316 0.0
H52 H 0.19889 0.97897 0.39833 0.0
H53 H 0.07547 0.94866 0.45078 0.0
H54 H 0.03096 0.02142 0.43558 0.0
H55 H 0.05004 0.14863 0.34769 0.0
H56 H 0.00962 0.00511 0.37433 0.0
O57 O 0.09847 0.13967 0.39329 0.0
H58 H 0.02167 0.1261 0.30385 0.0
H59 H 0.97977 0.98255 0.33064 0.0
C60 C 0.00718 0.11425 0.4174 0.0
C61 C 0.0198 0.13777 0.44097 0.0
C62 C 0.98176 0.15616 0.45727 0.0
C63 C 0.93042 0.15109 0.45025 0.0
C64 C 0.91798 0.12578 0.42702 0.0
C65 C 0.95607 0.10743 0.41075 0.0
C66 C 0.08977 0.04207 0.40855 0.0
C67 C 0.13692 0.02927 0.39808 0.0
C68 C 0.16223 0.98774 0.40662 0.0
C69 C 0.14062 0.95808 0.42572 0.0
C70 C 0.09328 0.97113 0.43626 0.0
C71 C 0.06783 0.01268 0.42758 0.0
C72 C 0.03294 0.07816 0.36405 0.0
C73 C 0.03476 0.11232 0.34411 0.0
C74 C 0.01801 0.0995 0.31908 0.0
C75 C -0.00134 0.05237 0.31364 0.0
C76 C 0.9953 0.01883 0.33402 0.0
C77 C 0.01225 0.03168 0.35902 0.0
P78 P 0.09852 0.91511 0.60849 0.0
H79 H 0.09697 0.85778 0.56011 0.0
H80 H 0.0294 0.81367 0.53681 0.0
H81 H 0.92129 0.86486 0.59419 0.0
H82 H 0.98863 0.90962 0.61689 0.0
H83 H 0.18288 0.98044 0.6183 0.0
H84 H 0.20149 0.06395 0.60521 0.0
H85 H 0.06178 0.06672 0.56114 0.0
H86 H 0.0436 0.98272 0.57421 0.0
H87 H 0.11243 0.84836 0.65163 0.0
H88 H 0.04807 0.99122 0.63981 0.0
O89 O 0.15069 0.88107 0.60526 0.0
H90 H 0.09216 0.85477 0.69798 0.0
H91 H 0.0269 0.99762 0.68595 0.0
C92 C 0.04797 0.88588 0.59054 0.0
C93 C 0.05863 0.85961 0.56756 0.0
C94 C 0.02003 0.83437 0.55431 0.0
C95 C 0.97003 0.83533 0.56378 0.0
C96 C 0.95926 0.8636 0.58624 0.0
C97 C -0.00211 0.88883 0.59943 0.0
C98 C 0.11239 0.97524 0.5969 0.0
C99 C 0.1565 -0.00111 0.60563 0.0
C100 C 0.16678 0.04677 0.59835 0.0
C101 C 0.13293 0.072 0.58225 0.0
C102 C 0.08874 0.04805 0.57338 0.0
C103 C 0.07835 5e-05 0.58083 0.0
C104 C 0.08282 0.91976 0.64247 0.0
C105 C 0.09401 0.88113 0.65905 0.0
C106 C 0.08203 0.8847 0.68548 0.0
C107 C 0.05827 0.9269 0.69571 0.0
C108 C 0.04612 0.96508 0.67881 0.0
C109 C 0.05812 0.96142 0.6524 0.0
P110 P 0.57993 0.60807 0.90544 0.0
H111 H 0.54864 0.66725 0.95032 0.0
H112 H 0.46537 0.68901 0.96791 0.0
H113 H 0.39377 0.59767 0.90886 0.0
H114 H 0.47691 0.57673 0.89123 0.0
H115 H 0.6851 0.58608 0.918 0.0
H116 H 0.72569 0.51614 0.93825 0.0
H117 H 0.57885 0.44894 0.94882 0.0
H118 H 0.53849 0.51984 0.92921 0.0
H119 H 0.57288 0.66959 0.85992 0.0
H120 H 0.56995 0.51526 0.87586 0.0
O121 O 0.61656 0.65763 0.90893 0.0
H122 H 0.56014 0.65145 0.81362 0.0
H123 H 0.55603 0.49682 0.82979 0.0
C124 C 0.51878 0.62157 0.91906 0.0
C125 C 0.51495 0.65199 0.94119 0.0
C126 C 0.46739 0.664 0.95136 0.0
C127 C 0.42296 0.64544 0.9396 0.0
C128 C 0.42724 0.61332 0.91803 0.0
C129 C 0.47478 0.60133 0.90792 0.0
C130 C 0.60884 0.55833 0.92238 0.0
C131 C 0.66162 0.55664 0.92505 0.0
C132 C 0.68477 0.51642 0.93645 0.0
C133 C 0.65553 0.47677 0.94505 0.0
C134 C 0.60243 0.47911 0.94276 0.0
C135 C 0.57931 0.51954 0.93145 0.0
C136 C 0.57354 0.59379 0.87125 0.0
C137 C 0.56986 0.63177 0.85342 0.0
C138 C 0.562 0.62134 0.82699 0.0
C139 C 0.55714 0.57263 0.81794 0.0
C140 C 0.56048 0.53467 0.83599 0.0
C141 C 0.56843 0.54519 0.86241 0.0
P142 P 0.57835 0.42907 0.10995 0.0
H143 H 0.56784 0.3499 0.07131 0.0
H144 H 0.49394 0.30844 0.05231 0.0
H145 H 0.39532 0.40298 0.0976 0.0
H146 H 0.46947 0.4435 0.11687 0.0
H147 H 0.65671 0.45858 0.07317 0.0
H148 H 0.67169 0.53444 0.05005 0.0
H149 H 0.53525 0.59602 0.08354 0.0
H150 H 0.52114 0.52016 0.10704 0.0
H151 H 0.52972 0.37364 0.15099 0.0
H152 H 0.60824 0.51136 0.14433 0.0
O153 O 0.62892 0.39275 0.10712 0.0
H154 H 0.51795 0.3894 0.19751 0.0
H155 H 0.59546 0.52805 0.19066 0.0
C156 C 0.524 0.39882 0.09596 0.0
C157 C 0.5303 0.36146 0.07724 0.0
C158 C 0.48801 0.33817 0.0662 0.0
C159 C 0.43874 0.35222 0.07358 0.0
C160 C 0.43274 0.39071 0.09185 0.0
C161 C 0.47505 0.41396 0.10284 0.0
C162 C 0.58835 0.48421 0.09216 0.0
C163 C 0.63002 0.48838 0.07553 0.0
C164 C 0.63823 0.53162 0.06209 0.0
C165 C 0.60471 0.57136 0.06501 0.0
C166 C 0.5621 0.56635 0.08114 0.0
C167 C 0.55392 0.52302 0.09453 0.0
C168 C 0.56851 0.44195 0.14405 0.0
C169 C 0.54374 0.40763 0.15948 0.0
C170 C 0.53692 0.41677 0.18607 0.0
C171 C 0.55531 0.46023 0.19781 0.0
C172 C 0.58102 0.49412 0.1823 0.0
C173 C 0.58787 0.48486 0.15571 0.0
C174 C 0.13672 0.14837 0.00947 0.0
C175 C 0.12689 0.10642 0.02409 0.0
C176 C 0.17548 0.18085 0.0169 0.0
C177 C 0.20524 0.17183 0.03908 0.0
C178 C 0.1954 0.12988 0.05354 0.0
C179 C 0.15694 0.09747 0.04612 0.0
C180 C 0.24546 0.20584 0.04856 0.0
C181 C 0.26952 0.23834 0.03354 0.0
C182 C 0.31116 0.26992 0.0438 0.0
C183 C 0.35033 0.28396 0.02708 0.0
C184 C 0.39148 0.31129 0.03659 0.0
C185 C 0.39389 0.32563 0.06298 0.0
H186 H 0.2823 0.27718 0.08326 0.0
C187 C 0.35366 0.31318 0.07946 0.0
C188 C 0.31266 0.28583 0.06998 0.0
H189 H 0.35437 0.32356 0.09989 0.0
H190 H 0.11406 0.15653 0.9925 0.0
H191 H 0.18101 0.21341 0.00559 0.0
H192 H 0.21753 0.12211 0.07077 0.0
H193 H 0.15047 0.06563 0.05791 0.0
H194 H 0.25761 0.20185 0.06861 0.0
H195 H 0.26133 0.2395 0.01286 0.0
H196 H 0.34972 0.27277 0.00676 0.0
H197 H 0.42147 0.32109 0.02331 0.0
C198 C 0.09129 0.80374 0.99201 0.0
C199 C 0.09708 0.84408 0.00913 0.0
C200 C 0.13033 0.76967 0.98885 0.0
C201 C 0.17634 0.77563 0.0025 0.0
C202 C 0.18068 0.814 0.02091 0.0
C203 C 0.14154 0.84793 0.02419 0.0
C204 C 0.22151 0.74459 0.9971 0.0
C205 C 0.2294 0.72213 0.97389 0.0
C206 C 0.27814 0.69887 0.96613 0.0
C207 C 0.28801 0.69234 0.93947 0.0
C208 C 0.33454 0.67407 0.93094 0.0
C209 C 0.37235 0.66155 0.9489 0.0
H210 H 0.30872 0.68733 0.00492 0.0
C211 C 0.362 0.66635 0.97563 0.0
C212 C 0.31527 0.68456 0.9842 0.0
H213 H 0.39007 0.65606 0.98993 0.0
H214 H 0.05711 0.79913 0.98049 0.0
H215 H 0.12449 0.73935 0.97535 0.0
H216 H 0.21537 0.8191 0.03198 0.0
H217 H 0.14712 0.8783 0.03773 0.0
H218 H 0.25143 0.74524 0.01162 0.0
H219 H 0.2009 0.7251 0.95874 0.0
H220 H 0.26013 0.70278 0.92508 0.0
H221 H 0.34145 0.67125 0.91021 0.0
C222 C 0.78024 0.87902 0.01738 0.0
C223 C 0.82063 0.8742 0.99976 0.0
C224 C 0.74421 0.84171 0.01959 0.0
C225 C 0.74762 0.79883 0.004 0.0
C226 C 0.78656 0.79535 0.98551 0.0
C227 C 0.82258 0.8325 0.98337 0.0
C228 C 0.7155 0.75482 0.00819 0.0
C229 C 0.67367 0.75416 0.02319 0.0
C230 C 0.64991 0.70782 0.03171 0.0
C231 C 0.62697 0.70699 0.05628 0.0
C232 C 0.6105 0.66291 0.06668 0.0
C233 C 0.61615 0.61871 0.05258 0.0
H234 H 0.668 0.6636 0.99737 0.0
C235 C 0.63596 0.61998 0.02724 0.0
C236 C 0.65251 0.66411 0.01684 0.0
H237 H 0.63951 0.5867 0.01561 0.0
H238 H 0.77761 0.91065 0.03031 0.0
H239 H 0.71554 0.84605 0.03441 0.0
H240 H 0.79026 0.7629 0.97322 0.0
H241 H 0.85294 0.82769 0.96941 0.0
H242 H 0.72963 0.72059 1.0 0.0
H243 H 0.6593 0.78783 0.03182 0.0
H244 H 0.62411 0.74017 0.06805 0.0
H245 H 0.59559 0.66323 0.08629 0.0
C246 C 0.82084 0.15642 0.00115 0.0
C247 C 0.86304 0.14225 0.98615 0.0
C248 C 0.79224 0.19757 0.99445 0.0
C249 C 0.80523 0.2249 0.97248 0.0
C250 C 0.84669 0.20997 0.95731 0.0
C251 C 0.87546 0.16949 0.96413 0.0
C252 C 0.77672 0.26873 0.9642 0.0
C253 C 0.75 0.29822 0.98036 0.0
C254 C 0.72656 0.34451 0.97145 0.0
C255 C 0.68355 0.36312 0.98424 0.0
C256 C 0.66055 0.40629 0.97593 0.0
C257 C 0.68056 0.432 0.95482 0.0
H258 H 0.7816 0.35923 0.94108 0.0
C259 C 0.72437 0.41396 0.94251 0.0
C260 C 0.7473 0.37105 0.95081 0.0
H261 H 0.74066 0.43258 0.92609 0.0
H262 H 0.81017 0.13601 0.01815 0.0
H263 H 0.75978 0.20729 0.00627 0.0
H264 H 0.85735 0.23012 0.9402 0.0
H265 H 0.90739 0.15941 0.95196 0.0
H266 H 0.78011 0.27816 0.94386 0.0
H267 H 0.7453 0.28876 1.00062 0.0
H268 H 0.66731 0.34389 1.00048 0.0
H269 H 0.62727 0.41964 0.98609 0.0
C270 C 0.68038 0.60724 0.52598 0.0
C271 C 0.63934 0.61799 0.50956 0.0
C272 C 0.72135 0.63935 0.5284 0.0
C273 C 0.72249 0.683 0.5143 0.0
C274 C 0.68161 0.69373 0.49784 0.0
C275 C 0.64058 0.66144 0.49533 0.0
C276 C 0.764 0.71938 0.51787 0.0
C277 C 0.81112 0.70683 0.5254 0.0
C278 C 0.85172 0.74255 0.5324 0.0
C279 C 0.90184 0.72566 0.53402 0.0
C280 C 0.9405 0.75632 0.5433 0.0
C281 C 0.92988 0.80465 0.55134 0.0
H282 H 0.8031 0.80576 0.53937 0.0
C283 C 0.88 0.8221 0.54902 0.0
C284 C 0.84127 0.79141 0.53973 0.0
H285 H 0.87067 0.85928 0.55487 0.0
H286 H 0.6806 0.57428 0.53737 0.0
H287 H 0.75118 0.63045 0.54199 0.0
H288 H 0.68125 0.72735 0.48699 0.0
H289 H 0.60949 0.67098 0.4826 0.0
H290 H 0.7552 0.75734 0.514 0.0
H291 H 0.8207 0.66831 0.52672 0.0
H292 H 0.91097 0.68813 0.52874 0.0
H293 H 0.97834 0.74144 0.54518 0.0
C294 C 0.64429 0.35263 0.52583 0.0
C295 C 0.60205 0.35362 0.50911 0.0
C296 C 0.6813 0.31642 0.52287 0.0
C297 C 0.67707 0.28068 0.5029 0.0
C298 C 0.63332 0.27993 0.48729 0.0
C299 C 0.59626 0.31602 0.49029 0.0
C300 C 0.7183 0.24531 0.49676 0.0
C301 C 0.76749 0.25436 0.50225 0.0
C302 C 0.80988 0.22469 0.49137 0.0
C303 C 0.85738 0.24718 0.48856 0.0
C304 C 0.89698 0.22268 0.47599 0.0
C305 C 0.8901 0.17486 0.46609 0.0
H306 H 0.76841 0.15646 0.48541 0.0
C307 C 0.84343 0.15129 0.47011 0.0
C308 C 0.80376 0.17583 0.48273 0.0
H309 H 0.8374 0.11403 0.46323 0.0
H310 H 0.64948 0.38052 0.54086 0.0
H311 H 0.71335 0.31713 0.53604 0.0
H312 H 0.62871 0.25249 0.47198 0.0
H313 H 0.56397 0.31533 0.47723 0.0
H314 H 0.70827 0.21388 0.48458 0.0
H315 H 0.77782 0.28799 0.51251 0.0
H316 H 0.86334 0.28463 0.4952 0.0
H317 H 0.93232 0.24204 0.47308 0.0
C318 C 0.29036 0.39372 0.53359 0.0
C319 C 0.32811 0.3865 0.51465 0.0
C320 C 0.2535 0.35783 0.53769 0.0
C321 C 0.25387 0.31382 0.523 0.0
C322 C 0.28972 0.30801 0.50308 0.0
C323 C 0.32653 0.34377 0.499 0.0
C324 C 0.21971 0.27201 0.52861 0.0
C325 C 0.20026 0.26407 0.55238 0.0
C326 C 0.17685 0.2168 0.55973 0.0
C327 C 0.17961 0.20298 0.58584 0.0
C328 C 0.16381 0.15656 0.59326 0.0
C329 C 0.14442 0.12298 0.57474 0.0
H330 H 0.15011 0.19421 0.52126 0.0
C331 C 0.1386 0.13778 0.54887 0.0
C332 C 0.15458 0.1843 0.54141 0.0
H333 H 0.12346 0.11279 0.5342 0.0
H334 H 0.28998 0.42655 0.54573 0.0
H335 H 0.22534 0.36454 0.55259 0.0
H336 H 0.29058 0.27478 0.49125 0.0
H337 H 0.3546 0.33718 0.484 0.0
H338 H 0.21619 0.2438 0.51356 0.0
H339 H 0.20752 0.29035 0.56804 0.0
H340 H 0.1959 0.22748 0.60044 0.0
H341 H 0.16765 0.1466 0.61347 0.0
C342 C 0.37653 0.68896 0.48017 0.0
C343 C 0.36294 0.65242 0.49774 0.0
C344 C 0.34357 0.72741 0.475 0.0
C345 C 0.29584 0.73008 0.48706 0.0
C346 C 0.28291 0.69469 0.50537 0.0
C347 C 0.31603 0.65605 0.51059 0.0
C348 C 0.25944 0.76979 0.48103 0.0
C349 C 0.25773 0.79038 0.45742 0.0
C350 C 0.22397 0.8315 0.45022 0.0
C351 C 0.21894 0.84219 0.42373 0.0
C352 C 0.191 0.88257 0.41583 0.0
C353 C 0.16747 0.91348 0.43425 0.0
H354 H 0.2032 0.8557 0.48935 0.0
C355 C 0.17133 0.90233 0.46076 0.0
C356 C 0.19952 0.86187 0.46872 0.0
H357 H 0.15401 0.92583 0.47541 0.0
H358 H 0.41267 0.68787 0.47022 0.0
H359 H 0.35587 0.75512 0.46162 0.0
H360 H 0.24668 0.69634 0.51522 0.0
H361 H 0.30452 0.62871 0.52438 0.0
H362 H 0.23246 0.78045 0.49597 0.0
H363 H 0.28197 0.77576 0.4421 0.0
H364 H 0.23729 0.81954 0.40903 0.0
H365 H 0.18807 0.88977 0.39523 0.0
C366 C 0.98612 0.98656 0.12133 0.0
C367 C 0.94636 0.00089 0.10488 0.0
C368 C 0.98235 0.99272 0.14824 0.0
C369 C 0.93842 0.01303 0.15951 0.0
C370 C 0.89845 0.02701 0.14314 0.0
C371 C 0.9022 0.02077 0.1161 0.0
C372 C 0.93503 0.02335 0.18799 0.0
C373 C 0.96223 -0.00142 0.20566 0.0
C374 C 0.96568 0.01193 0.23383 0.0
C375 C 0.98839 0.97847 0.25066 0.0
C376 C 0.99766 0.99106 0.27669 0.0
C377 C 0.98452 0.03761 0.28658 0.0
H378 H 0.93454 0.08554 0.23163 0.0
C379 C 0.96043 0.07069 0.26997 0.0
C380 C 0.95126 0.05815 0.24387 0.0
H381 H 0.94933 0.10668 0.27703 0.0
H382 H 0.02087 0.97141 0.11342 0.0
H383 H 0.01482 0.98305 0.15995 0.0
H384 H 0.86442 0.04326 0.15126 0.0
H385 H 0.87094 0.03242 0.10401 0.0
H386 H 0.90944 0.05222 0.19429 0.0
H387 H 0.98394 0.96689 0.19923 0.0
H388 H 0.00031 0.94277 0.2435 0.0
H389 H 0.01693 0.96488 0.28879 0.0
C390 C -0.00177 0.9383 0.89145 0.0
C391 C 0.00692 0.98228 0.9054 0.0
C392 C 0.00712 0.93522 0.86469 0.0
C393 C 0.02458 0.97627 0.85117 0.0
C394 C 0.03375 0.02002 0.86517 0.0
C395 C 0.02485 0.02312 0.89194 0.0
C396 C 0.03542 0.97453 0.82278 0.0
C397 C 0.01431 0.94172 0.80607 0.0
C398 C 0.02585 0.93932 0.77776 0.0
C399 C 0.01691 0.89523 0.76403 0.0
C400 C 0.02737 0.89114 0.73745 0.0
C401 C 0.0466 0.93129 0.72391 0.0
H402 H 0.0503 0.01492 0.77366 0.0
C403 C 0.05474 0.97571 0.73752 0.0
C404 C 0.04436 0.97979 0.76411 0.0
H405 H 0.0697 0.0073 0.72768 0.0
H406 H 0.98492 0.90595 0.90121 0.0
H407 H 0.00122 0.90028 0.85494 0.0
H408 H 0.04764 0.05208 0.85533 0.0
H409 H 0.03216 0.05753 0.90206 0.0
H410 H 0.06164 0.00172 0.81561 0.0
H411 H 0.98802 0.9146 0.81326 0.0
H412 H 0.00212 0.86363 0.77395 0.0
H413 H 0.01986 0.85663 0.72746 0.0
C414 C 0.53094 0.51867 0.6222 0.0
C415 C 0.48438 0.52278 0.60902 0.0
C416 C 0.53391 0.52605 0.6491 0.0
C417 C 0.49018 0.53722 0.66366 0.0
C418 C 0.44367 0.54157 0.65051 0.0
C419 C 0.4407 0.5343 0.6235 0.0
C420 C 0.49222 0.5468 0.69228 0.0
C421 C 0.52951 0.52983 0.70771 0.0
C422 C 0.53388 0.54081 0.73612 0.0
C423 C 0.56619 0.51171 0.75111 0.0
C424 C 0.57342 0.52177 0.7776 0.0
C425 C 0.54866 0.56145 0.78981 0.0
H426 H 0.48485 0.60485 0.7375 0.0
C427 C 0.51626 0.59064 0.77486 0.0
C428 C 0.50905 0.58061 0.74832 0.0
H429 H 0.49629 0.62128 0.78368 0.0
H430 H 0.56552 0.51041 0.61169 0.0
H431 H 0.57087 0.5241 0.65816 0.0
H432 H 0.40945 0.55065 0.66115 0.0
H433 H 0.40425 0.53797 0.614 0.0
H434 H 0.46109 0.56739 0.7008 0.0
H435 H 0.55794 0.50556 0.6994 0.0
H436 H 0.58629 0.48116 0.74224 0.0
H437 H 0.59925 0.49897 0.7884 0.0
C438 C 0.50299 0.52785 0.39197 0.0
C439 C 0.48729 0.48841 0.40721 0.0
C440 C 0.50653 0.52261 0.36491 0.0
C441 C 0.49456 0.47769 0.3525 0.0
C442 C 0.47776 0.43874 0.36768 0.0
C443 C 0.47443 0.44388 0.3947 0.0
C444 C 0.49811 0.47024 0.32383 0.0
C445 C 0.52969 0.49594 0.30865 0.0
C446 C 0.53492 0.48671 0.28017 0.0
C447 C 0.58041 0.49966 0.26794 0.0
C448 C 0.58707 0.49115 0.24128 0.0
C449 C 0.5481 0.46988 0.22613 0.0
H450 H 0.45924 0.45734 0.27342 0.0
C451 C 0.50215 0.45781 0.23828 0.0
C452 C 0.49554 0.46623 0.26496 0.0
H453 H 0.47093 0.44243 0.22709 0.0
H454 H 0.51278 0.5628 0.40092 0.0
H455 H 0.51805 0.55402 0.35385 0.0
H456 H 0.46781 0.40389 0.35862 0.0
H457 H 0.4619 0.41279 0.40577 0.0
H458 H 0.47623 0.44028 0.31531 0.0
H459 H 0.55514 0.52271 0.31754 0.0
H460 H 0.61126 0.51578 0.27913 0.0
H461 H 0.62311 0.50051 0.23263 0.0
loop_
_geom_bond_atom_site_label_1
_geom_bond_atom_site_label_2
_geom_bond_distance
_geom_bond_site_symmetry_2
_ccdc_geom_bond_type
O0 Zn1 1.953 . S
O0 C16 1.225 1_565 S
Zn1 O0 1.953 . S
Zn1 O2 1.949 1_565 S
Zn1 O8 1.919 . S
Zn1 O13 1.924 1_565 S
O2 Zn1 1.949 1_545 S
O2 Zn3 1.923 1_444 S
O2 Zn4 1.950 1_455 S
O2 Zn5 1.945 1_554 S
Zn3 O2 1.923 1_666 S
Zn3 O6 1.933 . S
Zn3 O9 1.941 1_655 S
Zn3 O10 1.965 . S
Zn4 O2 1.950 1_655 S
Zn4 O11 1.938 1_545 S
Zn4 O12 1.906 . S
Zn4 O22 1.953 . S
Zn5 O2 1.945 1_556 S
Zn5 O7 1.932 . S
Zn5 O14 1.977 1_455 S
Zn5 O15 1.910 . S
O6 Zn3 1.933 . S
O6 C17 1.226 1_665 S
O7 Zn5 1.932 . S
O7 C17 1.307 . S
O8 Zn1 1.919 . S
O8 C19 1.253 1_554 S
O9 Zn3 1.941 1_455 S
O9 C19 1.283 . S
O10 Zn3 1.965 . S
O10 C18 1.303 1_556 S
O11 Zn4 1.938 1_565 S
O11 C18 1.247 . S
O12 Zn4 1.906 . S
O12 C20 1.304 1_554 S
O13 Zn1 1.924 1_545 S
O13 C21 1.311 . S
O14 Zn5 1.977 1_655 S
O14 C20 1.272 . S
O15 Zn5 1.910 . S
O15 C21 1.231 1_556 S
C16 O0 1.225 1_545 S
C16 O22 1.298 1_455 S
C17 O6 1.226 1_445 S
C17 O7 1.307 . S
C18 O10 1.303 1_554 S
C18 O11 1.247 . S
C19 O8 1.253 1_556 S
C19 O9 1.283 . S
C20 O12 1.304 1_556 S
C20 O14 1.272 . S
C21 O13 1.311 . S
C21 O15 1.231 1_554 S
O22 Zn4 1.953 . S
O22 C16 1.298 1_655 S
O23 Zn24 1.953 . S
O23 C39 1.225 . S
Zn24 O23 1.953 . S
Zn24 O25 1.949 . S
Zn24 O31 1.919 . S
Zn24 O36 1.924 . S
O25 Zn24 1.949 . S
O25 Zn26 1.923 . S
O25 Zn27 1.950 . S
O25 Zn28 1.945 . S
Zn26 O25 1.923 . S
Zn26 O29 1.933 . S
Zn26 O32 1.941 . S
Zn26 O33 1.965 . S
Zn27 O25 1.950 . S
Zn27 O34 1.938 . S
Zn27 O35 1.906 . S
Zn27 O45 1.953 . S
Zn28 O25 1.945 . S
Zn28 O30 1.932 . S
Zn28 O37 1.977 . S
Zn28 O38 1.910 . S
O29 Zn26 1.933 . S
O29 C40 1.226 . S
O30 Zn28 1.932 . S
O30 C40 1.307 . S
O31 Zn24 1.919 . S
O31 C42 1.253 . S
O32 Zn26 1.941 . S
O32 C42 1.283 . S
O33 Zn26 1.965 . S
O33 C41 1.303 . S
O34 Zn27 1.938 . S
O34 C41 1.247 . S
O35 Zn27 1.906 . S
O35 C43 1.304 . S
O36 Zn24 1.924 . S
O36 C44 1.311 . S
O37 Zn28 1.977 . S
O37 C43 1.272 . S
O38 Zn28 1.910 . S
O38 C44 1.231 . S
C39 O23 1.225 . S
C39 O45 1.298 . S
C40 O29 1.226 . S
C40 O30 1.307 . S
C41 O33 1.303 . S
C41 O34 1.247 . S
C42 O31 1.253 . S
C42 O32 1.283 . S
C43 O35 1.304 . S
C43 O37 1.272 . S
C44 O36 1.311 . S
C44 O38 1.231 . S
O45 Zn27 1.953 . S
O45 C39 1.298 . S
P46 O57 1.490 . S
P46 C60 1.812 1_455 S
P46 C66 1.803 1_545 S
P46 C72 1.819 . S
H47 C61 0.941 1_455 S
H48 C62 0.939 . S
H49 C64 0.940 . S
H50 C65 0.940 . S
H51 C67 0.939 1_545 S
H52 C68 0.942 . S
H53 C70 0.940 . S
H54 C71 0.939 . S
H55 C73 0.941 . S
H56 C77 0.939 . S
O57 P46 1.490 . S
H58 C74 0.939 . S
H59 C76 0.940 . S
C60 P46 1.812 1_655 S
C60 C61 1.389 . S
C60 C65 1.391 . S
C61 H47 0.941 1_655 S
C61 C60 1.389 . S
C61 C62 1.397 . S
C62 H48 0.939 . S
C62 C61 1.397 . S
C62 C63 1.378 . S
C63 C62 1.378 . S
C63 C64 1.378 . S
C64 H49 0.940 . S
C64 C63 1.378 . S
C64 C65 1.396 . S
C65 H50 0.940 . S
C65 C60 1.391 . S
C65 C64 1.396 . S
C66 P46 1.803 1_565 S
C66 C67 1.378 . S
C66 C71 1.400 . S
C67 H51 0.939 1_565 S
C67 C66 1.378 . S
C67 C68 1.361 . S
C68 H52 0.942 . S
C68 C67 1.361 . S
C68 C69 1.369 . S
C69 C68 1.369 . S
C69 C70 1.404 . S
C70 H53 0.940 . S
C70 C69 1.404 . S
C70 C71 1.389 . S
C71 H54 0.939 . S
C71 C66 1.400 . S
C71 C70 1.389 . S
C72 P46 1.819 . S
C72 C73 1.391 . S
C72 C77 1.391 1_545 S
C73 H55 0.941 . S
C73 C72 1.391 . S
C73 C74 1.396 . S
C74 H58 0.939 . S
C74 C73 1.396 . S
C74 C75 1.397 . S
C75 C74 1.397 . S
C75 C76 1.385 1_545 S
C76 H59 0.940 . S
C76 C75 1.385 1_565 S
C76 C77 1.388 . S
C77 H56 0.939 . S
C77 C72 1.391 1_565 S
C77 C76 1.388 . S
P78 O89 1.490 . S
P78 C92 1.812 . S
P78 C98 1.803 1_565 S
P78 C104 1.819 . S
H79 C93 0.941 . S
H80 C94 0.939 . S
H81 C96 0.940 . S
H82 C97 0.940 . S
H83 C99 0.939 . S
H84 C100 0.942 . S
H85 C102 0.940 . S
H86 C103 0.939 . S
H87 C105 0.941 . S
H88 C109 0.939 . S
O89 P78 1.490 . S
H90 C106 0.939 . S
H91 C108 0.940 . S
C92 P78 1.812 . S
C92 C93 1.389 . S
C92 C97 1.391 1_455 S
C93 H79 0.941 . S
C93 C92 1.389 . S
C93 C94 1.397 1_455 S
C94 H80 0.939 . S
C94 C93 1.397 1_655 S
C94 C95 1.378 . S
C95 C94 1.378 . S
C95 C96 1.378 . S
C96 H81 0.940 . S
C96 C95 1.378 . S
C96 C97 1.396 . S
C97 H82 0.940 . S
C97 C92 1.391 1_655 S
C97 C96 1.396 . S
C98 P78 1.803 1_545 S
C98 C99 1.378 . S
C98 C103 1.400 . S
C99 H83 0.939 . S
C99 C98 1.378 . S
C99 C100 1.361 . S
C100 H84 0.942 . S
C100 C99 1.361 . S
C100 C101 1.369 . S
C101 C100 1.369 . S
C101 C102 1.404 . S
C102 H85 0.940 . S
C102 C101 1.404 . S
C102 C103 1.389 . S
C103 H86 0.939 . S
C103 C98 1.400 . S
C103 C102 1.389 . S
C104 P78 1.819 . S
C104 C105 1.391 . S
C104 C109 1.391 1_565 S
C105 H87 0.941 . S
C105 C104 1.391 . S
C105 C106 1.396 . S
C106 H90 0.939 . S
C106 C105 1.396 . S
C106 C107 1.397 . S
C107 C106 1.397 . S
C107 C108 1.385 1_565 S
C108 H91 0.940 . S
C108 C107 1.385 1_545 S
C108 C109 1.388 . S
C109 H88 0.939 . S
C109 C104 1.391 1_545 S
C109 C108 1.388 . S
P110 O121 1.490 . S
P110 C124 1.812 . S
P110 C130 1.803 . S
P110 C136 1.819 . S
H111 C125 0.941 . S
H112 C126 0.939 . S
H113 C128 0.940 . S
H114 C129 0.940 . S
H115 C131 0.939 . S
H116 C132 0.942 . S
H117 C134 0.940 . S
H118 C135 0.939 . S
H119 C137 0.941 . S
H120 C141 0.939 . S
O121 P110 1.490 . S
H122 C138 0.939 . S
H123 C140 0.940 . S
C124 P110 1.812 . S
C124 C125 1.389 . S
C124 C129 1.391 . S
C125 H111 0.941 . S
C125 C124 1.389 . S
C125 C126 1.397 . S
C126 H112 0.939 . S
C126 C125 1.397 . S
C126 C127 1.378 . S
C127 C126 1.378 . S
C127 C128 1.378 . S
C128 H113 0.940 . S
C128 C127 1.378 . S
C128 C129 1.396 . S
C129 H114 0.940 . S
C129 C124 1.391 . S
C129 C128 1.396 . S
C130 P110 1.803 . S
C130 C131 1.378 . S
C130 C135 1.400 . S
C131 H115 0.939 . S
C131 C130 1.378 . S
C131 C132 1.361 . S
C132 H116 0.942 . S
C132 C131 1.361 . S
C132 C133 1.369 . S
C133 C132 1.369 . S
C133 C134 1.404 . S
C134 H117 0.940 . S
C134 C133 1.404 . S
C134 C135 1.389 . S
C135 H118 0.939 . S
C135 C130 1.400 . S
C135 C134 1.389 . S
C136 P110 1.819 . S
C136 C137 1.391 . S
C136 C141 1.391 . S
C137 H119 0.941 . S
C137 C136 1.391 . S
C137 C138 1.396 . S
C138 H122 0.939 . S
C138 C137 1.396 . S
C138 C139 1.397 . S
C139 C138 1.397 . S
C139 C140 1.385 . S
C140 H123 0.940 . S
C140 C139 1.385 . S
C140 C141 1.388 . S
C141 H120 0.939 . S
C141 C136 1.391 . S
C141 C140 1.388 . S
P142 O153 1.490 . S
P142 C156 1.812 . S
P142 C162 1.803 . S
P142 C168 1.819 . S
H143 C157 0.941 . S
H144 C158 0.939 . S
H145 C160 0.940 . S
H146 C161 0.940 . S
H147 C163 0.939 . S
H148 C164 0.942 . S
H149 C166 0.940 . S
H150 C167 0.939 . S
H151 C169 0.941 . S
H152 C173 0.939 . S
O153 P142 1.490 . S
H154 C170 0.939 . S
H155 C172 0.940 . S
C156 P142 1.812 . S
C156 C157 1.389 . S
C156 C161 1.391 . S
C157 H143 0.941 . S
C157 C156 1.389 . S
C157 C158 1.397 . S
C158 H144 0.939 . S
C158 C157 1.397 . S
C158 C159 1.378 . S
C159 C158 1.378 . S
C159 C160 1.378 . S
C160 H145 0.940 . S
C160 C159 1.378 . S
C160 C161 1.396 . S
C161 H146 0.940 . S
C161 C156 1.391 . S
C161 C160 1.396 . S
C162 P142 1.803 . S
C162 C163 1.378 . S
C162 C167 1.400 . S
C163 H147 0.939 . S
C163 C162 1.378 . S
C163 C164 1.361 . S
C164 H148 0.942 . S
C164 C163 1.361 . S
C164 C165 1.369 . S
C165 C164 1.369 . S
C165 C166 1.404 . S
C166 H149 0.940 . S
C166 C165 1.404 . S
C166 C167 1.389 . S
C167 H150 0.939 . S
C167 C162 1.400 . S
C167 C166 1.389 . S
C168 P142 1.819 . S
C168 C169 1.391 . S
C168 C173 1.391 . S
C169 H151 0.941 . S
C169 C168 1.391 . S
C169 C170 1.396 . S
C170 H154 0.939 . S
C170 C169 1.396 . S
C170 C171 1.397 . S
C171 C170 1.397 . S
C171 C172 1.385 . S
C172 H155 0.940 . S
C172 C171 1.385 . S
C172 C173 1.388 . S
C173 H152 0.939 . S
C173 C168 1.391 . S
C173 C172 1.388 . S
C174 C175 1.386 . S
C174 C176 1.383 . S
C174 H190 0.951 1_554 S
C175 C174 1.386 . S
C175 C179 1.383 . S
C176 C174 1.383 . S
C176 C177 1.402 . S
C176 H191 0.951 . S
C177 C176 1.402 . S
C177 C178 1.375 . S
C177 C180 1.481 . S
C178 C177 1.375 . S
C178 C179 1.367 . S
C178 H192 0.951 . S
C179 C175 1.383 . S
C179 C178 1.367 . S
C179 H193 0.950 . S
C180 C177 1.481 . S
C180 C181 1.297 . S
C180 H194 0.950 . S
C181 C180 1.297 . S
C181 C182 1.479 . S
C181 H195 0.950 . S
C182 C181 1.479 . S
C182 C183 1.375 . S
C182 C188 1.404 . S
C183 C182 1.375 . S
C183 C184 1.369 . S
C183 H196 0.950 . S
C184 C183 1.369 . S
C184 C185 1.392 . S
C184 H197 0.951 . S
C185 C184 1.392 . S
C185 C187 1.384 . S
H186 C188 0.949 . S
C187 C185 1.384 . S
C187 C188 1.385 . S
C187 H189 0.950 . S
C188 C182 1.404 . S
C188 H186 0.949 . S
C188 C187 1.385 . S
H189 C187 0.950 . S
H190 C174 0.951 1_556 S
H191 C176 0.951 . S
H192 C178 0.951 . S
H193 C179 0.950 . S
H194 C180 0.950 . S
H195 C181 0.950 . S
H196 C183 0.950 . S
H197 C184 0.951 . S
C198 C199 1.386 . S
C198 C200 1.383 . S
C198 H214 0.951 . S
C199 C198 1.386 . S
C199 C203 1.383 1_556 S
C200 C198 1.383 . S
C200 C201 1.402 . S
C200 H215 0.951 . S
C201 C200 1.402 . S
C201 C202 1.375 1_556 S
C201 C204 1.481 . S
C202 C201 1.375 1_554 S
C202 C203 1.367 . S
C202 H216 0.951 . S
C203 C199 1.383 1_554 S
C203 C202 1.367 . S
C203 H217 0.950 . S
C204 C201 1.481 . S
C204 C205 1.297 . S
C204 H218 0.950 . S
C205 C204 1.297 . S
C205 C206 1.479 . S
C205 H219 0.950 . S
C206 C205 1.479 . S
C206 C207 1.375 . S
C206 C212 1.404 . S
C207 C206 1.375 . S
C207 C208 1.369 . S
C207 H220 0.950 . S
C208 C207 1.369 . S
C208 C209 1.392 . S
C208 H221 0.951 . S
C209 C208 1.392 . S
C209 C211 1.384 . S
H210 C212 0.949 . S
C211 C209 1.384 . S
C211 C212 1.385 . S
C211 H213 0.950 . S
C212 C206 1.404 . S
C212 H210 0.949 . S
C212 C211 1.385 . S
H213 C211 0.950 . S
H214 C198 0.951 . S
H215 C200 0.951 . S
H216 C202 0.951 . S
H217 C203 0.950 . S
H218 C204 0.950 . S
H219 C205 0.950 . S
H220 C207 0.950 . S
H221 C208 0.951 . S
C222 C223 1.386 . S
C222 C224 1.383 . S
C222 H238 0.951 . S
C223 C222 1.386 . S
C223 C227 1.383 . S
C224 C222 1.383 . S
C224 C225 1.402 . S
C224 H239 0.951 . S
C225 C224 1.402 . S
C225 C226 1.375 . S
C225 C228 1.481 . S
C226 C225 1.375 . S
C226 C227 1.367 . S
C226 H240 0.951 . S
C227 C223 1.383 . S
C227 C226 1.367 . S
C227 H241 0.950 . S
C228 C225 1.481 . S
C228 C229 1.297 . S
C228 H242 0.950 . S
C229 C228 1.297 . S
C229 C230 1.479 . S
C229 H243 0.950 . S
C230 C229 1.479 . S
C230 C231 1.375 . S
C230 C236 1.404 . S
C231 C230 1.375 . S
C231 C232 1.369 . S
C231 H244 0.950 . S
C232 C231 1.369 . S
C232 C233 1.392 . S
C232 H245 0.951 . S
C233 C232 1.392 . S
C233 C235 1.384 . S
H234 C236 0.949 . S
C235 C233 1.384 . S
C235 C236 1.385 . S
C235 H237 0.950 . S
C236 C230 1.404 . S
C236 H234 0.949 . S
C236 C235 1.385 . S
H237 C235 0.950 . S
H238 C222 0.951 . S
H239 C224 0.951 . S
H240 C226 0.951 . S
H241 C227 0.950 . S
H242 C228 0.950 . S
H243 C229 0.950 . S
H244 C231 0.950 . S
H245 C232 0.951 . S
C246 C247 1.386 1_554 S
C246 C248 1.383 1_554 S
C246 H262 0.951 . S
C247 C246 1.386 1_556 S
C247 C251 1.383 . S
C248 C246 1.383 1_556 S
C248 C249 1.402 . S
C248 H263 0.951 1_556 S
C249 C248 1.402 . S
C249 C250 1.375 . S
C249 C252 1.481 . S
C250 C249 1.375 . S
C250 C251 1.367 . S
C250 H264 0.951 . S
C251 C247 1.383 . S
C251 C250 1.367 . S
C251 H265 0.950 . S
C252 C249 1.481 . S
C252 C253 1.297 . S
C252 H266 0.950 . S
C253 C252 1.297 . S
C253 C254 1.479 . S
C253 H267 0.950 . S
C254 C253 1.479 . S
C254 C255 1.375 . S
C254 C260 1.404 . S
C255 C254 1.375 . S
C255 C256 1.369 . S
C255 H268 0.950 . S
C256 C255 1.369 . S
C256 C257 1.392 . S
C256 H269 0.951 . S
C257 C256 1.392 . S
C257 C259 1.384 . S
H258 C260 0.949 . S
C259 C257 1.384 . S
C259 C260 1.385 . S
C259 H261 0.950 . S
C260 C254 1.404 . S
C260 H258 0.949 . S
C260 C259 1.385 . S
H261 C259 0.950 . S
H262 C246 0.951 . S
H263 C248 0.951 1_554 S
H264 C250 0.951 . S
H265 C251 0.950 . S
H266 C252 0.950 . S
H267 C253 0.950 . S
H268 C255 0.950 . S
H269 C256 0.951 . S
C270 C271 1.386 . S
C270 C272 1.383 . S
C270 H286 0.951 . S
C271 C270 1.386 . S
C271 C275 1.383 . S
C272 C270 1.383 . S
C272 C273 1.402 . S
C272 H287 0.951 . S
C273 C272 1.402 . S
C273 C274 1.375 . S
C273 C276 1.481 . S
C274 C273 1.375 . S
C274 C275 1.367 . S
C274 H288 0.951 . S
C275 C271 1.383 . S
C275 C274 1.367 . S
C275 H289 0.950 . S
C276 C273 1.481 . S
C276 C277 1.297 . S
C276 H290 0.950 . S
C277 C276 1.297 . S
C277 C278 1.479 . S
C277 H291 0.950 . S
C278 C277 1.479 . S
C278 C279 1.375 . S
C278 C284 1.404 . S
C279 C278 1.375 . S
C279 C280 1.369 . S
C279 H292 0.950 . S
C280 C279 1.369 . S
C280 C281 1.392 . S
C280 H293 0.951 . S
C281 C280 1.392 . S
C281 C283 1.384 . S
H282 C284 0.949 . S
C283 C281 1.384 . S
C283 C284 1.385 . S
C283 H285 0.950 . S
C284 C278 1.404 . S
C284 H282 0.949 . S
C284 C283 1.385 . S
H285 C283 0.950 . S
H286 C270 0.951 . S
H287 C272 0.951 . S
H288 C274 0.951 . S
H289 C275 0.950 . S
H290 C276 0.950 . S
H291 C277 0.950 . S
H292 C279 0.950 . S
H293 C280 0.951 . S
C294 C295 1.386 . S
C294 C296 1.383 . S
C294 H310 0.951 . S
C295 C294 1.386 . S
C295 C299 1.383 . S
C296 C294 1.383 . S
C296 C297 1.402 . S
C296 H311 0.951 . S
C297 C296 1.402 . S
C297 C298 1.375 . S
C297 C300 1.481 . S
C298 C297 1.375 . S
C298 C299 1.367 . S
C298 H312 0.951 . S
C299 C295 1.383 . S
C299 C298 1.367 . S
C299 H313 0.950 . S
C300 C297 1.481 . S
C300 C301 1.297 . S
C300 H314 0.950 . S
C301 C300 1.297 . S
C301 C302 1.479 . S
C301 H315 0.950 . S
C302 C301 1.479 . S
C302 C303 1.375 . S
C302 C308 1.404 . S
C303 C302 1.375 . S
C303 C304 1.369 . S
C303 H316 0.950 . S
C304 C303 1.369 . S
C304 C305 1.392 . S
C304 H317 0.951 . S
C305 C304 1.392 . S
C305 C307 1.384 . S
H306 C308 0.949 . S
C307 C305 1.384 . S
C307 C308 1.385 . S
C307 H309 0.950 . S
C308 C302 1.404 . S
C308 H306 0.949 . S
C308 C307 1.385 . S
H309 C307 0.950 . S
H310 C294 0.951 . S
H311 C296 0.951 . S
H312 C298 0.951 . S
H313 C299 0.950 . S
H314 C300 0.950 . S
H315 C301 0.950 . S
H316 C303 0.950 . S
H317 C304 0.951 . S
C318 C319 1.386 . S
C318 C320 1.383 . S
C318 H334 0.951 . S
C319 C318 1.386 . S
C319 C323 1.383 . S
C320 C318 1.383 . S
C320 C321 1.402 . S
C320 H335 0.951 . S
C321 C320 1.402 . S
C321 C322 1.375 . S
C321 C324 1.481 . S
C322 C321 1.375 . S
C322 C323 1.367 . S
C322 H336 0.951 . S
C323 C319 1.383 . S
C323 C322 1.367 . S
C323 H337 0.950 . S
C324 C321 1.481 . S
C324 C325 1.297 . S
C324 H338 0.950 . S
C325 C324 1.297 . S
C325 C326 1.479 . S
C325 H339 0.950 . S
C326 C325 1.479 . S
C326 C327 1.375 . S
C326 C332 1.404 . S
C327 C326 1.375 . S
C327 C328 1.369 . S
C327 H340 0.950 . S
C328 C327 1.369 . S
C328 C329 1.392 . S
C328 H341 0.951 . S
C329 C328 1.392 . S
C329 C331 1.384 . S
H330 C332 0.949 . S
C331 C329 1.384 . S
C331 C332 1.385 . S
C331 H333 0.950 . S
C332 C326 1.404 . S
C332 H330 0.949 . S
C332 C331 1.385 . S
H333 C331 0.950 . S
H334 C318 0.951 . S
H335 C320 0.951 . S
H336 C322 0.951 . S
H337 C323 0.950 . S
H338 C324 0.950 . S
H339 C325 0.950 . S
H340 C327 0.950 . S
H341 C328 0.951 . S
C342 C343 1.386 . S
C342 C344 1.383 . S
C342 H358 0.951 . S
C343 C342 1.386 . S
C343 C347 1.383 . S
C344 C342 1.383 . S
C344 C345 1.402 . S
C344 H359 0.951 . S
C345 C344 1.402 . S
C345 C346 1.375 . S
C345 C348 1.481 . S
C346 C345 1.375 . S
C346 C347 1.367 . S
C346 H360 0.951 . S
C347 C343 1.383 . S
C347 C346 1.367 . S
C347 H361 0.950 . S
C348 C345 1.481 . S
C348 C349 1.297 . S
C348 H362 0.950 . S
C349 C348 1.297 . S
C349 C350 1.479 . S
C349 H363 0.950 . S
C350 C349 1.479 . S
C350 C351 1.375 . S
C350 C356 1.404 . S
C351 C350 1.375 . S
C351 C352 1.369 . S
C351 H364 0.950 . S
C352 C351 1.369 . S
C352 C353 1.392 . S
C352 H365 0.951 . S
C353 C352 1.392 . S
C353 C355 1.384 . S
H354 C356 0.949 . S
C355 C353 1.384 . S
C355 C356 1.385 . S
C355 H357 0.950 . S
C356 C350 1.404 . S
C356 H354 0.949 . S
C356 C355 1.385 . S
H357 C355 0.950 . S
H358 C342 0.951 . S
H359 C344 0.951 . S
H360 C346 0.951 . S
H361 C347 0.950 . S
H362 C348 0.950 . S
H363 C349 0.950 . S
H364 C351 0.950 . S
H365 C352 0.951 . S
C366 C367 1.386 1_565 S
C366 C368 1.383 1_565 S
C366 H382 0.951 . S
C367 C366 1.386 1_545 S
C367 C371 1.383 1_455 S
C368 C366 1.383 1_545 S
C368 C369 1.402 1_455 S
C368 H383 0.951 1_545 S
C369 C368 1.402 1_655 S
C369 C370 1.375 . S
C369 C372 1.481 . S
C370 C369 1.375 . S
C370 C371 1.367 . S
C370 H384 0.951 . S
C371 C367 1.383 1_655 S
C371 C370 1.367 . S
C371 H385 0.950 . S
C372 C369 1.481 . S
C372 C373 1.297 1_655 S
C372 H386 0.950 . S
C373 C372 1.297 1_455 S
C373 C374 1.479 . S
C373 H387 0.950 . S
C374 C373 1.479 . S
C374 C375 1.375 . S
C374 C380 1.404 1_455 S
C375 C374 1.375 . S
C375 C376 1.369 1_545 S
C375 H388 0.950 1_545 S
C376 C375 1.369 1_565 S
C376 C377 1.392 1_565 S
C376 H389 0.951 . S
C377 C376 1.392 1_545 S
C377 C379 1.384 1_455 S
H378 C380 0.949 . S
C379 C377 1.384 1_655 S
C379 C380 1.385 . S
C379 H381 0.950 . S
C380 C374 1.404 1_655 S
C380 H378 0.949 . S
C380 C379 1.385 . S
H381 C379 0.950 . S
H382 C366 0.951 . S
H383 C368 0.951 1_565 S
H384 C370 0.951 . S
H385 C371 0.950 . S
H386 C372 0.950 . S
H387 C373 0.950 . S
H388 C375 0.950 1_565 S
H389 C376 0.951 . S
C390 C391 1.387 1_655 S
C390 C392 1.383 . S
C390 H406 0.949 1_545 S
C391 C390 1.387 1_455 S
C391 C395 1.383 . S
C392 C390 1.383 . S
C392 C393 1.402 1_655 S
C392 H407 0.950 1_545 S
C393 C392 1.402 1_455 S
C393 C394 1.375 . S
C393 C396 1.481 . S
C394 C393 1.375 . S
C394 C395 1.367 . S
C394 H408 0.951 . S
C395 C391 1.383 . S
C395 C394 1.367 . S
C395 H409 0.950 . S
C396 C393 1.481 . S
C396 C397 1.297 1_455 S
C396 H410 0.950 . S
C397 C396 1.297 1_655 S
C397 C398 1.479 1_655 S
C397 H411 0.950 . S
C398 C397 1.479 1_455 S
C398 C399 1.375 1_455 S
C398 C404 1.404 . S
C399 C398 1.375 1_655 S
C399 C400 1.369 1_545 S
C399 H412 0.950 . S
C400 C399 1.369 1_565 S
C400 C401 1.392 1_665 S
C400 H413 0.951 . S
C401 C400 1.392 1_445 S
C401 C403 1.384 . S
H402 C404 0.949 . S
C403 C401 1.384 . S
C403 C404 1.385 . S
C403 H405 0.950 . S
C404 C398 1.404 . S
C404 H402 0.949 . S
C404 C403 1.385 . S
H405 C403 0.950 . S
H406 C390 0.949 1_565 S
H407 C392 0.950 1_565 S
H408 C394 0.951 . S
H409 C395 0.950 . S
H410 C396 0.950 . S
H411 C397 0.950 . S
H412 C399 0.950 . S
H413 C400 0.951 . S
C414 C415 1.386 . S
C414 C416 1.383 . S
C414 H430 0.951 . S
C415 C414 1.386 . S
C415 C419 1.383 . S
C416 C414 1.383 . S
C416 C417 1.402 . S
C416 H431 0.951 . S
C417 C416 1.402 . S
C417 C418 1.375 . S
C417 C420 1.481 . S
C418 C417 1.375 . S
C418 C419 1.367 . S
C418 H432 0.951 . S
C419 C415 1.383 . S
C419 C418 1.367 . S
C419 H433 0.950 . S
C420 C417 1.481 . S
C420 C421 1.297 . S
C420 H434 0.950 . S
C421 C420 1.297 . S
C421 C422 1.479 . S
C421 H435 0.950 . S
C422 C421 1.479 . S
C422 C423 1.375 . S
C422 C428 1.404 . S
C423 C422 1.375 . S
C423 C424 1.369 . S
C423 H436 0.950 . S
C424 C423 1.369 . S
C424 C425 1.392 . S
C424 H437 0.951 . S
C425 C424 1.392 . S
C425 C427 1.384 . S
H426 C428 0.949 . S
C427 C425 1.384 . S
C427 C428 1.385 . S
C427 H429 0.950 . S
C428 C422 1.404 . S
C428 H426 0.949 . S
C428 C427 1.385 . S
H429 C427 0.950 . S
H430 C414 0.951 . S
H431 C416 0.951 . S
H432 C418 0.951 . S
H433 C419 0.950 . S
H434 C420 0.950 . S
H435 C421 0.950 . S
H436 C423 0.950 . S
H437 C424 0.951 . S
C438 C439 1.386 . S
C438 C440 1.383 . S
C438 H454 0.951 . S
C439 C438 1.386 . S
C439 C443 1.383 . S
C440 C438 1.383 . S
C440 C441 1.402 . S
C440 H455 0.951 . S
C441 C440 1.402 . S
C441 C442 1.375 . S
C441 C444 1.481 . S
C442 C441 1.375 . S
C442 C443 1.367 . S
C442 H456 0.951 . S
C443 C439 1.383 . S
C443 C442 1.367 . S
C443 H457 0.950 . S
C444 C441 1.481 . S
C444 C445 1.297 . S
C444 H458 0.950 . S
C445 C444 1.297 . S
C445 C446 1.479 . S
C445 H459 0.950 . S
C446 C445 1.479 . S
C446 C447 1.375 . S
C446 C452 1.404 . S
C447 C446 1.375 . S
C447 C448 1.369 . S
C447 H460 0.950 . S
C448 C447 1.369 . S
C448 C449 1.392 . S
C448 H461 0.951 . S
C449 C448 1.392 . S
C449 C451 1.384 . S
H450 C452 0.949 . S
C451 C449 1.384 . S
C451 C452 1.385 . S
C451 H453 0.950 . S
C452 C446 1.404 . S
C452 H450 0.949 . S
C452 C451 1.385 . S
H453 C451 0.950 . S
H454 C438 0.951 . S
H455 C440 0.951 . S
H456 C442 0.951 . S
H457 C443 0.950 . S
H458 C444 0.950 . S
H459 C445 0.950 . S
H460 C447 0.950 . S
H461 C448 0.951 . S
C185 C159 1.433 . S
C175 C21 1.432 . S
C199 C19 1.399 . S
C209 C127 1.372 . S
C223 C18 1.390 . S
C233 C165 1.371 . S
C247 C20 1.395 . S
C257 C133 1.340 . S
C271 C44 1.425 . S
C281 C95 1.421 . S
C295 C42 1.401 . S
C305 C63 1.419 . S
C329 C101 1.395 . S
C319 C41 1.362 . S
C353 C69 1.403 . S
C343 C43 1.402 . S
C367 C16 1.493 . S
C377 C75 1.413 . S
C391 C17 1.457 . S
C401 C107 1.448 1_545 S
C425 C139 1.409 . S
C415 C39 1.492 . S
C439 C40 1.451 . S
C449 C171 1.383 . S
