# Generated by pormake.
# Topology rtl, (3,6)-cn, num edge types: 1
# Building blocks:
#     Node 0, Type 0, BuildingBlock: VETTIZ_charged_linker_0, # of connection points: 3
#     Node 1, Type 0, BuildingBlock: VETTIZ_charged_linker_0, # of connection points: 3
#     Node 2, Type 0, BuildingBlock: VETTIZ_charged_linker_0, # of connection points: 3
#     Node 3, Type 0, BuildingBlock: VETTIZ_charged_linker_0, # of connection points: 3
#     Node 4, Type 1, BuildingBlock: KUMBOL_clean_sbu_1, # of connection points: 6
#     Node 5, Type 1, BuildingBlock: KUMBOL_clean_sbu_1, # of connection points: 6
#     Edge 6, Type (0, 1), BuildingBlock: XUDNAN_clean_linker_2, # of connection points: 2
#     Edge 7, Type (0, 1), BuildingBlock: XUDNAN_clean_linker_2, # of connection points: 2
#     Edge 8, Type (0, 1), BuildingBlock: XUDNAN_clean_linker_2, # of connection points: 2
#     Edge 9, Type (0, 1), BuildingBlock: XUDNAN_clean_linker_2, # of connection points: 2
#     Edge 10, Type (0, 1), BuildingBlock: XUDNAN_clean_linker_2, # of connection points: 2
#     Edge 11, Type (0, 1), BuildingBlock: XUDNAN_clean_linker_2, # of connection points: 2
#     Edge 12, Type (0, 1), BuildingBlock: XUDNAN_clean_linker_2, # of connection points: 2
#     Edge 13, Type (0, 1), BuildingBlock: XUDNAN_clean_linker_2, # of connection points: 2
#     Edge 14, Type (0, 1), BuildingBlock: XUDNAN_clean_linker_2, # of connection points: 2
#     Edge 15, Type (0, 1), BuildingBlock: XUDNAN_clean_linker_2, # of connection points: 2
#     Edge 16, Type (0, 1), BuildingBlock: XUDNAN_clean_linker_2, # of connection points: 2
#     Edge 17, Type (0, 1), BuildingBlock: XUDNAN_clean_linker_2, # of connection points: 2
# Relax obj value: 0.017
# Max RMSD: 0.097
# Mean RMSD: 0.057
data_MOF--net-rtl--node1-KUMBOL_clean_sbu_1--node2-VETTIZ_charged_linker_0--edge1-XUDNAN_clean_linker_2
_symmetry_space_group_name_H-M    P1
_symmetry_Int_Tables_number       1
_symmetry_cell_setting            triclinic
loop_
_symmetry_equiv_pos_as_xyz
'x, y, z'
_cell_length_a     39.328392
_cell_length_b     39.984276
_cell_length_c     35.046744
_cell_angle_alpha  79.960298
_cell_angle_beta   99.217857
_cell_angle_gamma 90.647944
loop_
_atom_site_label
_atom_site_type_symbol
_atom_site_fract_x
_atom_site_fract_y
_atom_site_fract_z
_atom_type_partial_charge
C0 C 0.17141 0.89676 0.88149 0.0
C1 C 0.14508 0.92161 0.87401 0.0
C2 C 0.13529 0.93471 0.9054 0.0
C3 C 0.17512 0.89573 0.95155 0.0
C4 C 0.186 0.88404 0.92053 0.0
C5 C 0.21222 0.85548 0.93442 0.0
H6 H 0.28763 0.73528 0.0832 0.0
C7 C 0.19161 0.87429 0.98838 0.0
C8 C 0.21329 0.85051 0.97865 0.0
H9 H 0.30981 0.75728 0.96416 0.0
H10 H 0.26856 0.80361 0.949 0.0
H11 H 0.29437 0.81281 0.09327 0.0
H12 H 0.20649 0.75105 0.06575 0.0
H13 H 0.19647 0.77591 0.0993 0.0
H14 H 0.23198 0.74581 0.11376 0.0
H15 H 0.28006 0.78058 0.12936 0.0
H16 H 0.2626 0.82329 0.11929 0.0
C17 C 0.24708 0.86796 0.92238 0.0
C18 C 0.19819 0.82392 0.91737 0.0
C19 C 0.15816 0.89129 0.11802 0.0
C20 C 0.16479 0.87233 0.1562 0.0
C21 C 0.18519 0.84249 0.16338 0.0
C22 C 0.19925 0.83191 0.13301 0.0
C23 C 0.19253 0.85119 0.09491 0.0
C24 C 0.17191 0.88009 0.08787 0.0
C25 C 0.16523 0.89588 0.0451 0.0
C26 C 0.18659 0.87262 0.02791 0.0
C27 C 0.20266 0.84664 0.05722 0.0
C28 C 0.1794 0.9324 0.04082 0.0
C29 C 0.12603 0.89387 0.02993 0.0
C30 C 0.28428 0.75005 0.05388 0.0
C31 C 0.3024 0.74185 0.02498 0.0
C32 C 0.29598 0.76199 0.98706 0.0
C33 C 0.27224 0.78933 0.97829 0.0
C34 C 0.2549 0.79719 0.00776 0.0
C35 C 0.26163 0.77807 0.04499 0.0
C36 C 0.24356 0.79202 0.07371 0.0
C37 C 0.22457 0.82251 0.04746 0.0
C38 C 0.23058 0.82495 0.00861 0.0
C39 C 0.27135 0.8026 0.10588 0.0
C40 C 0.21841 0.76487 0.08934 0.0
H41 H 0.14135 0.93265 0.96685 0.0
H42 H 0.17899 0.88616 0.85764 0.0
H43 H 0.17098 0.81955 0.92169 0.0
H44 H 0.21252 0.80033 0.93159 0.0
H45 H 0.19899 0.82742 0.88538 0.0
H46 H 0.24901 0.89607 0.91913 0.0
H47 H 0.25041 0.86088 0.89391 0.0
H48 H 0.26932 0.85802 0.94494 0.0
H49 H 0.14186 0.91388 0.11156 0.0
H50 H 0.19047 0.8275 0.19264 0.0
H51 H 0.21465 0.80902 0.14033 0.0
H52 H 0.20503 0.93285 0.05953 0.0
H53 H 0.16184 0.94992 0.05005 0.0
H54 H 0.18354 0.94273 0.01061 0.0
H55 H 0.11346 0.87384 0.0489 0.0
H56 H 0.12067 0.88669 1.00048 0.0
H57 H 0.11253 0.9183 0.02911 0.0
H58 H 0.11485 0.95373 0.89998 0.0
C59 C 0.15039 0.92214 0.94412 0.0
C60 C 0.65218 0.66371 0.74027 0.0
C61 C 0.62581 0.63997 0.74443 0.0
C62 C 0.61333 0.62302 0.71323 0.0
C63 C 0.65226 0.65433 0.67354 0.0
C64 C 0.66501 0.6705 0.70455 0.0
C65 C 0.69218 0.69588 0.69418 0.0
H66 H 0.77955 0.78074 0.55595 0.0
C67 C 0.66973 0.66818 0.63995 0.0
C68 C 0.6933 0.69248 0.6518 0.0
H69 H 0.78705 0.7922 0.67745 0.0
H70 H 0.74669 0.74701 0.68819 0.0
H71 H 0.78057 0.69756 0.5736 0.0
H72 H 0.69884 0.77284 0.53986 0.0
H73 H 0.6882 0.74035 0.51242 0.0
H74 H 0.72667 0.76434 0.50665 0.0
H75 H 0.77156 0.72228 0.5251 0.0
H76 H 0.74957 0.68315 0.53843 0.0
C77 C 0.72655 0.68425 0.72136 0.0
C78 C 0.67915 0.73151 0.69747 0.0
C79 C 0.63352 0.62913 0.50929 0.0
C80 C 0.64328 0.63844 0.47202 0.0
C81 C 0.66968 0.66228 0.4674 0.0
C82 C 0.68549 0.67708 0.49911 0.0
C83 C 0.6748 0.66807 0.53593 0.0
C84 C 0.64944 0.64421 0.54055 0.0
C85 C 0.64107 0.6378 0.58154 0.0
C86 C 0.66552 0.66182 0.60085 0.0
C87 C 0.68515 0.67956 0.57402 0.0
C88 C 0.64997 0.60012 0.59968 0.0
C89 C 0.60278 0.6481 0.57926 0.0
C90 C 0.7729 0.77321 0.58502 0.0
C91 C 0.78636 0.79038 0.61576 0.0
C92 C 0.77663 0.77988 0.65303 0.0
C93 C 0.75324 0.75352 0.65928 0.0
C94 C 0.73917 0.73738 0.62794 0.0
C95 C 0.74945 0.74697 0.59172 0.0
C96 C 0.73179 0.72704 0.5618 0.0
C97 C 0.70904 0.70415 0.5859 0.0
C98 C 0.7133 0.7104 0.62463 0.0
C99 C 0.75963 0.70652 0.54863 0.0
C100 C 0.71035 0.75224 0.52815 0.0
H101 H 0.61564 0.61637 0.65512 0.0
H102 H 0.66198 0.67716 0.76392 0.0
H103 H 0.65104 0.73459 0.68631 0.0
H104 H 0.69118 0.75239 0.67962 0.0
H105 H 0.68346 0.73541 0.72848 0.0
H106 H 0.72908 0.65606 0.72748 0.0
H107 H 0.72808 0.693 0.74997 0.0
H108 H 0.74939 0.69305 0.708 0.0
H109 H 0.61379 0.61046 0.51415 0.0
H110 H 0.67759 0.67009 0.43901 0.0
H111 H 0.70511 0.69533 0.49357 0.0
H112 H 0.67303 0.59133 0.58923 0.0
H113 H 0.62834 0.58334 0.59143 0.0
H114 H 0.65691 0.5959 0.63199 0.0
H115 H 0.59518 0.67018 0.55535 0.0
H116 H 0.59746 0.65663 0.60605 0.0
H117 H 0.5854 0.62691 0.5732 0.0
H118 H 0.59294 0.60473 0.71608 0.0
C119 C 0.62649 0.62993 0.6779 0.0
C120 C 0.86552 0.12421 0.17707 0.0
C121 C 0.8895 0.09756 0.18092 0.0
C122 C 0.8987 0.08844 0.14682 0.0
C123 C 0.85948 0.13153 0.10603 0.0
C124 C 0.85072 0.14057 0.13953 0.0
C125 C 0.82335 0.16802 0.13034 0.0
H126 H 0.70728 0.26819 0.9972 0.0
C127 C 0.83825 0.15252 0.07172 0.0
C128 C 0.8169 0.17379 0.08577 0.0
H129 H 0.72732 0.26082 0.12349 0.0
H130 H 0.7733 0.22079 0.12817 0.0
H131 H 0.7903 0.26937 0.98805 0.0
H132 H 0.71624 0.18894 0.99525 0.0
H133 H 0.74062 0.18421 0.95855 0.0
H134 H 0.71418 0.22184 0.95287 0.0
H135 H 0.75507 0.26686 0.9492 0.0
H136 H 0.79511 0.24413 0.95282 0.0
C137 C 0.8388 0.1997 0.14629 0.0
C138 C 0.79136 0.15347 0.14791 0.0
C139 C 0.85282 0.13808 0.93434 0.0
C140 C 0.83594 0.15234 0.8967 0.0
C141 C 0.80863 0.17581 0.89304 0.0
C142 C 0.79873 0.18537 0.92646 0.0
C143 C 0.8161 0.17105 0.96396 0.0
C144 C 0.84245 0.14758 0.96733 0.0
C145 C 0.85715 0.13379 0.00932 0.0
C146 C 0.83608 0.15359 0.03071 0.0
C147 C 0.81207 0.17548 1.00411 0.0
C148 C 0.89578 0.14289 0.01615 0.0
C149 C 0.85005 0.09514 0.01738 0.0
C150 C 0.72178 0.25807 0.02577 0.0
C151 C 0.71302 0.26718 0.06011 0.0
C152 C 0.73275 0.25355 0.09669 0.0
C153 C 0.75968 0.23037 0.09938 0.0
C154 C 0.76732 0.22052 0.06516 0.0
C155 C 0.74902 0.23473 0.02902 0.0
C156 C 0.76174 0.22161 0.99591 0.0
C157 C 0.79011 0.19681 0.01836 0.0
C158 C 0.79295 0.19621 0.05893 0.0
C159 C 0.77617 0.25194 0.96977 0.0
C160 C 0.73173 0.20333 0.97413 0.0
H161 H 0.89199 0.09719 0.08465 0.0
H162 H 0.85756 0.13148 0.20272 0.0
H163 H 0.78781 0.12634 0.14494 0.0
H164 H 0.76698 0.16624 0.1327 0.0
H165 H 0.79419 0.15485 0.17964 0.0
H166 H 0.867 0.20117 0.14572 0.0
H167 H 0.83495 0.19903 0.17712 0.0
H168 H 0.82808 0.22384 0.12815 0.0
H169 H 0.87338 0.11941 0.93811 0.0
H170 H 0.79526 0.1871 0.86428 0.0
H171 H 0.7779 0.20348 0.92184 0.0
H172 H 0.89973 0.16922 1.00116 0.0
H173 H 0.91149 0.12544 1.00429 0.0
H174 H 0.90633 0.14245 0.04737 0.0
H175 H 0.8265 0.08868 0.99805 0.0
H176 H 0.84481 0.0861 0.0475 0.0
H177 H 0.87185 0.08008 0.01208 0.0
H178 H 0.91733 0.06814 0.1491 0.0
C179 C 0.88396 0.10536 0.10944 0.0
C180 C 0.35951 0.35395 0.32876 0.0
C181 C 0.38532 0.37858 0.3265 0.0
C182 C 0.39697 0.39355 0.35969 0.0
C183 C 0.35893 0.35803 0.39702 0.0
C184 C 0.34668 0.34417 0.36408 0.0
C185 C 0.31941 0.31815 0.37147 0.0
H186 H 0.23839 0.21677 0.50272 0.0
C187 C 0.34141 0.34127 0.42947 0.0
C188 C 0.31808 0.31793 0.41461 0.0
H189 H 0.22071 0.22464 0.37602 0.0
H190 H 0.26182 0.26929 0.37076 0.0
H191 H 0.32064 0.23125 0.51766 0.0
H192 H 0.22865 0.29262 0.49768 0.0
H193 H 0.25967 0.31508 0.52447 0.0
H194 H 0.24761 0.27317 0.54628 0.0
H195 H 0.28967 0.22895 0.55053 0.0
H196 H 0.32436 0.25848 0.55268 0.0
C197 C 0.33242 0.28373 0.36436 0.0
C198 C 0.28509 0.33123 0.34498 0.0
C199 C 0.37529 0.36835 0.56755 0.0
C200 C 0.36328 0.35647 0.60326 0.0
C201 C 0.33641 0.33271 0.60341 0.0
C202 C 0.32278 0.32008 0.56954 0.0
C203 C 0.33549 0.33158 0.53451 0.0
C204 C 0.36082 0.35578 0.53358 0.0
C205 C 0.3697 0.36608 0.49291 0.0
C206 C 0.34552 0.34397 0.4699 0.0
C207 C 0.32604 0.32345 0.49473 0.0
C208 C 0.40801 0.35651 0.49454 0.0
C209 C 0.361 0.4044 0.47901 0.0
C210 C 0.24269 0.22796 0.47356 0.0
C211 C 0.2262 0.21578 0.43996 0.0
C212 C 0.23356 0.23192 0.40292 0.0
C213 C 0.25729 0.25841 0.39968 0.0
C214 C 0.27358 0.26973 0.43365 0.0
C215 C 0.26534 0.25518 0.46962 0.0
C216 C 0.28204 0.27286 0.50212 0.0
C217 C 0.303 0.29942 0.47997 0.0
C218 C 0.29849 0.2971 0.43999 0.0
C219 C 0.30535 0.24665 0.53263 0.0
C220 C 0.2532 0.28916 0.51881 0.0
H221 H 0.39429 0.39537 0.41926 0.0
H222 H 0.34959 0.34241 0.30355 0.0
H223 H 0.28386 0.35948 0.33831 0.0
H224 H 0.26237 0.32394 0.35936 0.0
H225 H 0.28202 0.32194 0.31656 0.0
H226 H 0.35956 0.27863 0.37904 0.0
H227 H 0.33153 0.28383 0.33249 0.0
H228 H 0.3176 0.26193 0.3763 0.0
H229 H 0.39573 0.38665 0.56601 0.0
H230 H 0.3255 0.3239 0.62977 0.0
H231 H 0.30286 0.30174 0.57207 0.0
H232 H 0.41442 0.33127 0.51339 0.0
H233 H 0.42528 0.37543 0.50704 0.0
H234 H 0.41445 0.35407 0.46566 0.0
H235 H 0.33826 0.41192 0.49103 0.0
H236 H 0.35364 0.41122 0.44682 0.0
H237 H 0.3829 0.42029 0.48888 0.0
H238 H 0.41694 0.41243 0.35879 0.0
C239 C 0.38397 0.3834 0.39488 0.0
C240 C 0.96406 0.11265 0.48465 0.0
C241 C 0.9067 0.10489 0.45008 0.0
C242 C 0.93602 0.09198 0.47717 0.0
C243 C 0.90584 0.13887 0.431 0.0
C244 C 0.96341 0.14669 0.4652 0.0
C245 C 0.93421 0.15964 0.43831 0.0
N246 N 0.99172 0.09967 0.51138 0.0
C247 C 0.01924 0.11945 0.52063 0.0
C248 C 0.9919 0.1669 0.47389 0.0
C249 C 0.01981 0.15328 0.50192 0.0
Gd250 Gd 0.03246 0.96031 0.51934 0.0
Gd251 Gd 0.98736 0.04337 0.54259 0.0
N252 N 0.93755 0.05919 0.49619 0.0
C253 C 0.87902 0.08329 0.44309 0.0
C254 C 0.91012 0.03838 0.49046 0.0
C255 C 0.88073 0.04993 0.46345 0.0
H256 H 0.91071 0.01282 0.50644 0.0
H257 H 0.85926 0.03317 0.45862 0.0
H258 H 0.10852 0.99748 0.50377 0.0
H259 H 0.04006 0.10946 0.54362 0.0
H260 H 0.16645 1.00169 0.54079 0.0
H261 H 0.85613 0.0922 0.42232 0.0
H262 H 0.88347 0.14924 0.4102 0.0
H263 H 0.99597 0.89406 0.56811 0.0
H264 H 0.99233 0.19321 0.45969 0.0
H265 H 0.04139 0.16908 0.50968 0.0
H266 H 0.16779 0.91947 0.65805 0.0
H267 H 0.93321 0.18575 0.42319 0.0
H268 H 0.06696 0.85274 0.67114 0.0
H269 H 0.00989 0.85213 0.6295 0.0
N270 N 0.04441 0.91808 0.57544 0.0
C271 C 0.07625 0.91828 0.59723 0.0
C272 C 0.02091 0.89432 0.58612 0.0
C273 C 0.061 0.87107 0.64421 0.0
C274 C 0.02875 0.87063 0.62081 0.0
C275 C 0.08531 0.89489 0.63242 0.0
H276 H 0.12567 0.87828 0.68177 0.0
N277 N 0.08992 0.96464 0.55034 0.0
C278 C 0.09952 0.94245 0.58451 0.0
C279 C 0.15688 0.96534 0.59078 0.0
C280 C 0.13307 0.94267 0.60599 0.0
C281 C 0.11424 0.98396 0.53348 0.0
C282 C 0.14764 0.98552 0.55391 0.0
O283 O 0.98242 0.03898 0.47809 0.0
O284 O 0.98579 0.9815 0.47652 0.0
O285 O 0.05985 0.94942 0.47348 0.0
O286 O 0.02913 0.91078 0.50183 0.0
O287 O 0.96135 0.99273 0.55707 0.0
O288 O 0.97578 0.95238 0.52126 0.0
O289 O 0.02362 0.96537 0.57992 0.0
O290 O 0.03534 0.02062 0.58276 0.0
O291 O 0.9552 0.0363 0.58814 0.0
O292 O 0.98321 0.08286 0.57719 0.0
O293 O 0.04815 0.01303 0.49252 0.0
O294 O 0.04423 0.04557 0.53976 0.0
C295 C 0.97828 0.01299 0.45932 0.0
C296 C 0.95611 0.96388 0.54357 0.0
C297 C 0.03191 0.9114 0.4346 0.0
C298 C 0.03976 0.90452 0.36864 0.0
C299 C 0.98428 0.89327 0.38996 0.0
C300 C 0.99742 0.90161 0.42649 0.0
C301 C 0.00533 0.89448 0.36125 0.0
C302 C 0.05286 0.91308 0.40539 0.0
C303 C 0.04666 0.91948 0.47335 0.0
C304 C 0.14215 0.91957 0.6412 0.0
C305 C 0.11825 0.89595 0.65457 0.0
H306 H 0.18289 0.96632 0.60639 0.0
C307 C 0.03657 0.98866 0.59955 0.0
C308 C 0.05684 0.03987 0.50888 0.0
C309 C 0.97308 0.06382 0.64186 0.0
C310 C 0.95741 0.07232 0.70433 0.0
C311 C 0.01362 0.04835 0.70208 0.0
C312 C 0.00551 0.05136 0.66142 0.0
C313 C 0.98976 0.05853 0.72348 0.0
C314 C 0.94925 0.07458 0.66324 0.0
C315 C 0.96354 0.06514 0.59933 0.0
H316 H 0.9577 0.8858 0.38391 0.0
H317 H 0.98057 0.90039 0.44829 0.0
H318 H 0.99463 0.88798 0.33307 0.0
H319 H 0.07952 0.9205 0.41148 0.0
H320 H 0.03846 0.03806 0.71708 0.0
H321 H 0.02449 0.04402 0.64523 0.0
H322 H 0.99669 0.05538 0.75508 0.0
H323 H 0.92462 0.08513 0.64765 0.0
C324 C 0.60376 0.57667 0.03206 0.0
C325 C 0.58275 0.63479 0.02164 0.0
C326 C 0.57916 0.59991 0.03585 0.0
C327 C 0.61081 0.64567 1.0026 0.0
C328 C 0.63264 0.58755 0.01437 0.0
C329 C 0.63578 0.62213 0.99915 0.0
N330 N 0.59954 0.5433 0.04608 0.0
C331 C 0.62407 0.51962 0.04548 0.0
C332 C 0.65768 0.56335 0.01297 0.0
C333 C 0.65339 0.52924 0.02864 0.0
Gd334 Gd 0.47799 0.48889 1.00221 0.0
Gd335 Gd 0.55063 0.5293 0.07527 0.0
N336 N 0.55259 0.58858 0.05492 0.0
C337 C 0.5586 0.6578 0.02799 0.0
C338 C 0.53062 0.6112 0.06377 0.0
C339 C 0.53274 0.64598 0.04971 0.0
H340 H 0.51196 0.60277 0.08256 0.0
H341 H 0.51481 0.6637 0.05624 0.0
H342 H 0.50231 0.40756 0.01802 0.0
H343 H 0.62089 0.4933 0.05793 0.0
H344 H 0.4828 0.35188 0.04964 0.0
H345 H 0.56042 0.6848 0.01751 0.0
H346 H 0.61385 0.67235 0.99126 0.0
H347 H 0.40721 0.54031 0.98185 0.0
H348 H 0.6805 0.57077 1.00011 0.0
H349 H 0.67271 0.51041 0.02789 0.0
H350 H 0.37665 0.37863 0.09022 0.0
H351 H 0.65764 0.63097 0.9851 0.0
H352 H 0.33121 0.49199 0.04635 0.0
H353 H 0.35076 0.54205 1.00365 0.0
N354 N 0.42155 0.49183 0.0162 0.0
C355 C 0.41012 0.46311 0.03684 0.0
C356 C 0.39984 0.51918 1.00232 0.0
C357 C 0.35649 0.49156 0.03787 0.0
C358 C 0.36746 0.51989 0.01385 0.0
C359 C 0.37742 0.46227 0.04861 0.0
H360 H 0.34123 0.43088 0.07883 0.0
N361 N 0.46076 0.43515 0.03033 0.0
C362 C 0.42999 0.43366 0.04337 0.0
C363 C 0.43748 0.37302 0.06456 0.0
C364 C 0.41783 0.40265 0.06165 0.0
C365 C 0.47898 0.40618 0.03075 0.0
C366 C 0.46788 0.37473 0.04841 0.0
O367 O 0.55388 0.53072 0.0108 0.0
O368 O 0.49813 0.54058 0.98169 0.0
O369 O 0.49355 0.47499 0.95004 0.0
O370 O 0.43957 0.48009 0.95355 0.0
O371 O 0.49544 0.54627 0.07273 0.0
O372 O 0.46734 0.54311 0.0101 0.0
O373 O 0.49293 0.46287 0.06552 0.0
O374 O 0.50389 0.50664 0.09963 0.0
O375 O 0.56932 0.5525 0.12641 0.0
O376 O 0.58722 0.50237 0.12327 0.0
O377 O 0.53293 0.46857 0.0093 0.0
O378 O 0.55846 0.47422 0.07228 0.0
C379 C 0.53102 0.54601 0.98179 0.0
C380 C 0.47041 0.55564 0.04296 0.0
C381 C 0.45464 0.48895 0.89033 0.0
C382 C 0.43696 0.47937 0.82286 0.0
C383 C 0.43867 0.53681 0.83803 0.0
C384 C 0.44967 0.52399 0.87777 0.0
C385 C 0.43182 0.51476 0.81085 0.0
C386 C 0.44951 0.46707 0.86285 0.0
C387 C 0.46203 0.47394 0.93213 0.0
C388 C 0.3862 0.40211 0.0755 0.0
C389 C 0.36607 0.4319 0.06909 0.0
H390 H 0.429 0.34866 0.07835 0.0
C391 C 0.49183 0.47628 0.09688 0.0
C392 C 0.55512 0.45877 0.0417 0.0
C393 C 0.57536 0.51163 0.18452 0.0
C394 C 0.56917 0.51991 0.25048 0.0
C395 C 0.54761 0.46881 0.22686 0.0
C396 C 0.55863 0.48032 0.19106 0.0
C397 C 0.55274 0.48847 0.25638 0.0
C398 C 0.58084 0.53122 0.21455 0.0
C399 C 0.58508 0.52474 0.14573 0.0
H400 H 0.43446 0.56388 0.8284 0.0
H401 H 0.45358 0.54122 0.8987 0.0
H402 H 0.42163 0.5256 0.78077 0.0
H403 H 0.45476 0.44024 0.8733 0.0
H404 H 0.53471 0.44473 0.23156 0.0
H405 H 0.55369 0.4648 0.16841 0.0
H406 H 0.54388 0.4791 0.28395 0.0
H407 H 0.59317 0.55564 0.20952 0.0
H408 H 0.18755 0.1941 0.49972 0.0
H409 H 0.20806 0.17024 0.38883 0.0
H410 H 0.16601 0.12461 0.39355 0.0
H411 H 0.18443 0.10481 0.54522 0.0
H412 H 0.15238 0.11315 0.57397 0.0
H413 H 0.18285 0.14537 0.56074 0.0
H414 H 0.13246 0.18739 0.52929 0.0
H415 H 0.10187 0.1552 0.54195 0.0
H416 H 0.09996 0.17596 0.49155 0.0
H417 H 0.11978 0.08247 0.40909 0.0
H418 H 0.07732 0.04389 0.43728 0.0
H419 H 0.09426 0.08921 0.54252 0.0
C420 C 0.18412 0.17919 0.47653 0.0
C421 C 0.20135 0.1869 0.44346 0.0
C422 C 0.19473 0.16634 0.41388 0.0
C423 C 0.17103 0.13984 0.41646 0.0
C424 C 0.15471 0.13326 0.44935 0.0
C425 C 0.16157 0.15184 0.47927 0.0
C426 C 0.14196 0.13846 0.51251 0.0
C427 C 0.1669 0.12462 0.55034 0.0
C428 C 0.11759 0.16589 0.51919 0.0
C429 C 0.12216 0.11004 0.49603 0.0
C430 C 0.12974 0.10761 0.45945 0.0
C431 C 0.11392 0.08393 0.4379 0.0
C432 C 0.08982 0.0621 0.45422 0.0
C433 C 0.08201 0.06371 0.49199 0.0
C434 C 0.09882 0.08785 0.51321 0.0
H435 H 0.32391 0.70133 0.97569 0.0
H436 H 0.34211 0.71778 0.09685 0.0
H437 H 0.38301 0.6699 0.11424 0.0
H438 H 0.33388 0.61053 0.99388 0.0
H439 H 0.35773 0.60933 0.9543 0.0
H440 H 0.327 0.64326 0.95083 0.0
H441 H 0.37427 0.68784 0.93911 0.0
H442 H 0.40501 0.65409 0.94194 0.0
H443 H 0.41377 0.68513 0.97373 0.0
H444 H 0.42071 0.61931 0.11971 0.0
H445 H 0.45918 0.57412 0.11117 0.0
H446 H 0.42471 0.59598 0.98512 0.0
C447 C 0.33654 0.69529 0.00587 0.0
C448 C 0.3285 0.71329 0.03493 0.0
C449 C 0.3461 0.70391 0.07404 0.0
C450 C 0.36987 0.67678 0.08432 0.0
C451 C 0.37674 0.65959 0.05511 0.0
C452 C 0.36123 0.66885 0.01653 0.0
C453 C 0.37532 0.64758 0.99046 0.0
C454 C 0.34677 0.62643 0.97123 0.0
C455 C 0.39315 0.67 0.95948 0.0
C456 C 0.40114 0.62503 0.02055 0.0
C457 C 0.4009 0.632 0.05774 0.0
C458 C 0.42149 0.6139 0.09066 0.0
C459 C 0.44334 0.5883 0.08543 0.0
C460 C 0.44521 0.58148 0.04742 0.0
C461 C 0.42366 0.60016 0.01459 0.0
H462 H 0.83956 0.79811 0.57218 0.0
H463 H 0.78418 0.8503 0.64282 0.0
H464 H 0.82083 0.9002 0.6309 0.0
H465 H 0.9235 0.83053 0.60344 0.0
H466 H 0.93654 0.83481 0.55585 0.0
H467 H 0.90608 0.80286 0.56993 0.0
H468 H 0.86255 0.82726 0.50786 0.0
H469 H 0.89288 0.85931 0.49366 0.0
H470 H 0.85017 0.87156 0.49903 0.0
H471 H 0.86298 0.94432 0.61167 0.0
H472 H 0.90913 0.97978 0.58765 0.0
H473 H 0.9371 0.9001 0.52782 0.0
C474 C 0.83503 0.82011 0.58497 0.0
C475 C 0.80905 0.82014 0.60869 0.0
C476 C 0.80424 0.84936 0.62516 0.0
C477 C 0.82476 0.87796 0.6183 0.0
C478 C 0.85004 0.87709 0.59484 0.0
C479 C 0.85538 0.84896 0.57846 0.0
C480 C 0.88463 0.8547 0.55467 0.0
C481 C 0.91445 0.82921 0.57202 0.0
C482 C 0.87178 0.85312 0.51122 0.0
C483 C 0.89477 0.89047 0.5602 0.0
C484 C 0.87443 0.90281 0.58349 0.0
C485 C 0.87907 0.93496 0.59337 0.0
C486 C 0.90546 0.95494 0.57949 0.0
C487 C 0.92705 0.94283 0.55587 0.0
C488 C 0.92121 0.91021 0.54582 0.0
H489 H 0.69309 0.32648 0.00777 0.0
H490 H 0.66556 0.2599 0.10962 0.0
H491 H 0.62006 0.30045 0.11306 0.0
H492 H 0.6819 0.40346 0.03908 0.0
H493 H 0.66309 0.42681 0.99179 0.0
H494 H 0.69196 0.39149 0.99482 0.0
H495 H 0.64535 0.36285 0.95082 0.0
H496 H 0.6164 0.39828 0.94738 0.0
H497 H 0.60328 0.35572 0.96463 0.0
H498 H 0.58293 0.35033 0.11105 0.0
H499 H 0.55197 0.40548 0.0996 0.0
H500 H 0.59912 0.43888 0.99613 0.0
C501 C 0.67696 0.32011 0.03021 0.0
C502 C 0.68323 0.29018 0.05876 0.0
C503 C 0.66177 0.28297 0.08794 0.0
C504 C 0.63566 0.30572 0.08999 0.0
C505 C 0.63083 0.3354 0.06225 0.0
C506 C 0.65041 0.34252 0.0325 0.0
C507 C 0.64041 0.37696 0.00733 0.0
C508 C 0.67117 0.40109 0.00833 0.0
C509 C 0.62546 0.37321 0.96503 0.0
C510 C 0.61288 0.38834 0.02831 0.0
C511 C 0.6079 0.36389 0.05996 0.0
C512 C 0.58601 0.3694 0.08589 0.0
C513 C 0.56871 0.40075 0.07932 0.0
C514 C 0.57295 0.42588 0.04678 0.0
C515 C 0.595 0.41957 0.0207 0.0
H516 H 0.12537 0.83516 0.20517 0.0
H517 H 0.17004 0.93444 0.17868 0.0
H518 H 0.14438 0.95322 0.23171 0.0
H519 H 0.04523 0.86566 0.22309 0.0
H520 H 0.0406 0.83072 0.26194 0.0
H521 H 0.06407 0.82468 0.2235 0.0
H522 H 0.11734 0.80311 0.27544 0.0
H523 H 0.09402 0.80905 0.31406 0.0
H524 H 0.13486 0.8293 0.31059 0.0
H525 H 0.11429 0.96067 0.28831 0.0
H526 H 0.07851 0.95767 0.3409 0.0
H527 H 0.05091 0.85458 0.32758 0.0
C528 C 0.12998 0.86072 0.21089 0.0
C529 C 0.14988 0.88334 0.18826 0.0
C530 C 0.15486 0.91681 0.19587 0.0
C531 C 0.14051 0.92761 0.22594 0.0
C532 C 0.1209 0.90471 0.24772 0.0
C533 C 0.11535 0.87207 0.24031 0.0
C534 C 0.09194 0.85298 0.26664 0.0
C535 C 0.05848 0.84293 0.24234 0.0
C536 C 0.11067 0.82177 0.29326 0.0
C537 C 0.08519 0.87994 0.29007 0.0
C538 C 0.10244 0.90947 0.27906 0.0
C539 C 0.10057 0.93772 0.29707 0.0
C540 C 0.08034 0.93578 0.32693 0.0
C541 C 0.06193 0.90598 0.33801 0.0
C542 C 0.06449 0.87777 0.31933 0.0
H543 H 0.64659 0.59541 0.81269 0.0
H544 H 0.56752 0.66997 0.75491 0.0
H545 H 0.53627 0.65645 0.8116 0.0
H546 H 0.58989 0.53422 0.85185 0.0
H547 H 0.6183 0.51984 0.89738 0.0
H548 H 0.63591 0.53727 0.85393 0.0
H549 H 0.66879 0.58322 0.88954 0.0
H550 H 0.65258 0.56328 0.93289 0.0
H551 H 0.64536 0.6082 0.91517 0.0
H552 H 0.5113 0.63133 0.87138 0.0
H553 H 0.4951 0.59795 0.93181 0.0
H554 H 0.59116 0.54048 0.95243 0.0
C555 C 0.62308 0.6093 0.81259 0.0
C556 C 0.60952 0.63407 0.78004 0.0
C557 C 0.57833 0.65127 0.78005 0.0
C558 C 0.56048 0.6437 0.81201 0.0
C559 C 0.57426 0.61887 0.84364 0.0
C560 C 0.60492 0.60203 0.84432 0.0
C561 C 0.61312 0.57521 0.88098 0.0
C562 C 0.61436 0.53953 0.87038 0.0
C563 C 0.64696 0.58302 0.90616 0.0
C564 C 0.58228 0.57956 0.90083 0.0
C565 C 0.5601 0.60477 0.87861 0.0
C566 C 0.5287 0.61191 0.88934 0.0
C567 C 0.51966 0.59274 0.92359 0.0
C568 C 0.54202 0.56693 0.94692 0.0
C569 C 0.57389 0.56053 0.93554 0.0
H570 H 0.91565 0.1235 0.24684 0.0
H571 H 0.895 0.02868 0.20396 0.0
H572 H 0.91576 0.9967 0.2705 0.0
H573 H 0.99395 0.09366 0.31469 0.0
H574 H 0.98517 0.11774 0.35107 0.0
H575 H 0.96971 0.13306 0.29982 0.0
H576 H 0.90673 0.13547 0.31405 0.0
H577 H 0.9235 0.12151 0.36505 0.0
H578 H 0.88951 0.09823 0.34098 0.0
H579 H 0.93648 0.97525 0.34205 0.0
H580 H 0.95809 0.96553 0.41306 0.0
H581 H 0.966 0.07448 0.40936 0.0
C582 C 0.91557 0.096 0.25151 0.0
C583 C 0.90373 0.0785 0.22034 0.0
C584 C 0.90431 0.04253 0.2274 0.0
C585 C 0.91587 0.02419 0.26509 0.0
C586 C 0.92701 0.04222 0.29527 0.0
C587 C 0.9273 0.0773 0.28884 0.0
C588 C 0.94071 0.09051 0.32629 0.0
C589 C 0.97439 0.10988 0.32274 0.0
C590 C 0.9134 0.11271 0.33719 0.0
C591 C 0.94709 0.0574 0.35505 0.0
C592 C 0.93919 0.02985 0.33648 0.0
C593 C 0.94288 0.99662 0.35687 0.0
C594 C 0.95521 0.99138 0.39727 0.0
C595 C 0.96379 0.0192 0.41695 0.0
C596 C 0.95948 0.05264 0.39539 0.0
H597 H 0.38857 0.42014 0.61336 0.0
H598 H 0.37255 0.3196 0.67801 0.0
H599 H 0.3903 0.34011 0.74005 0.0
H600 H 0.46689 0.4362 0.68214 0.0
H601 H 0.45674 0.48083 0.67634 0.0
H602 H 0.44341 0.45821 0.63639 0.0
H603 H 0.38031 0.47776 0.63331 0.0
H604 H 0.39335 0.50005 0.67354 0.0
H605 H 0.36039 0.46846 0.67678 0.0
H606 H 0.40201 0.37265 0.79445 0.0
H607 H 0.41587 0.41289 0.83928 0.0
H608 H 0.4346 0.49051 0.7414 0.0
C609 C 0.38944 0.40218 0.64045 0.0
C610 C 0.37811 0.36838 0.64044 0.0
C611 C 0.3797 0.34593 0.67688 0.0
C612 C 0.39012 0.35722 0.71245 0.0
C613 C 0.39995 0.39082 0.71137 0.0
C614 C 0.40065 0.4128 0.67646 0.0
C615 C 0.41283 0.4476 0.68401 0.0
C616 C 0.447 0.45621 0.66882 0.0
C617 C 0.38506 0.47508 0.66583 0.0
C618 C 0.41781 0.44182 0.72856 0.0
C619 C 0.40991 0.40895 0.74352 0.0
C620 C 0.40954 0.39815 0.78332 0.0
C621 C 0.41796 0.4214 0.80875 0.0
C622 C 0.42775 0.4551 0.79472 0.0
C623 C 0.42753 0.46519 0.75375 0.0
H624 H 0.67168 0.61692 0.4132 0.0
H625 H 0.57434 0.6268 0.45412 0.0
H626 H 0.54464 0.60005 0.40002 0.0
H627 H 0.63659 0.63459 0.30799 0.0
H628 H 0.66501 0.60423 0.29615 0.0
H629 H 0.67859 0.6255 0.3372 0.0
H630 H 0.69059 0.56725 0.38315 0.0
H631 H 0.67702 0.54583 0.34231 0.0
H632 H 0.65671 0.53656 0.38548 0.0
H633 H 0.52593 0.56936 0.34428 0.0
H634 H 0.51928 0.53744 0.28924 0.0
H635 H 0.62805 0.54908 0.28252 0.0
C636 C 0.64404 0.61397 0.41042 0.0
C637 C 0.6254 0.62379 0.43814 0.0
C638 C 0.58931 0.61897 0.43372 0.0
C639 C 0.57213 0.60405 0.40288 0.0
C640 C 0.59131 0.59431 0.37642 0.0
C641 C 0.62641 0.59922 0.37965 0.0
C642 C 0.64103 0.58548 0.34785 0.0
C643 C 0.6562 0.61417 0.32069 0.0
C644 C 0.66792 0.55709 0.36578 0.0
C645 C 0.60872 0.57162 0.32666 0.0
C646 C 0.58034 0.57708 0.34362 0.0
C647 C 0.54788 0.56521 0.33049 0.0
C648 C 0.54438 0.54703 0.29938 0.0
C649 C 0.57312 0.54099 0.28166 0.0
C650 C 0.60559 0.55383 0.29521 0.0
H651 H 0.90154 0.14901 0.88111 0.0
H652 H 0.79512 0.13261 0.8337 0.0
H653 H 0.81415 0.11177 0.77782 0.0
H654 H 0.93007 0.17765 0.78686 0.0
H655 H 0.9717 0.15708 0.80294 0.0
H656 H 0.94926 0.17195 0.83789 0.0
H657 H 0.95376 0.11154 0.87991 0.0
H658 H 0.97597 0.09642 0.84497 0.0
H659 H 0.93723 0.076 0.85768 0.0
H660 H 0.84569 0.08861 0.72992 0.0
H661 H 0.88643 0.06847 0.69182 0.0
H662 H 0.97184 0.10344 0.76914 0.0
C663 C 0.88224 0.1412 0.85882 0.0
C664 C 0.84688 0.1423 0.86166 0.0
C665 C 0.82232 0.13218 0.83182 0.0
C666 C 0.83292 0.12019 0.80014 0.0
C667 C 0.86809 0.11891 0.79857 0.0
C668 C 0.89232 0.12956 0.8269 0.0
C669 C 0.92853 0.12545 0.81871 0.0
C670 C 0.9459 0.1601 0.81114 0.0
C671 C 0.95013 0.10089 0.85231 0.0
C672 C 0.921 0.11022 0.78171 0.0
C673 C 0.88604 0.10658 0.77053 0.0
C674 C 0.8731 0.09184 0.73807 0.0
C675 C 0.8965 0.08065 0.71644 0.0
C676 C 0.93252 0.08443 0.72716 0.0
C677 C 0.94463 0.09967 0.76021 0.0
H678 H 0.40028 0.44207 0.28827 0.0
H679 H 0.40693 0.33464 0.28356 0.0
H680 H 0.43553 0.34814 0.22512 0.0
H681 H 0.38289 0.47099 0.18223 0.0
H682 H 0.408 0.50881 0.18434 0.0
H683 H 0.38734 0.49062 0.2253 0.0
H684 H 0.44594 0.48846 0.27039 0.0
H685 H 0.4682 0.50447 0.23 0.0
H686 H 0.48115 0.46435 0.26114 0.0
H687 H 0.46502 0.37277 0.16887 0.0
H688 H 0.49068 0.40735 0.11575 0.0
H689 H 0.46378 0.4992 0.15489 0.0
C690 C 0.40777 0.42143 0.27489 0.0
C691 C 0.40132 0.38727 0.29043 0.0
C692 C 0.41124 0.36098 0.27191 0.0
C693 C 0.42768 0.36839 0.23884 0.0
C694 C 0.43384 0.40224 0.22443 0.0
C695 C 0.4239 0.42841 0.24152 0.0
C696 C 0.43338 0.46262 0.21981 0.0
C697 C 0.40097 0.48455 0.20186 0.0
C698 C 0.45868 0.48109 0.24692 0.0
C699 C 0.45051 0.45151 0.18814 0.0
C700 C 0.45048 0.41656 0.19145 0.0
C701 C 0.46486 0.40017 0.16574 0.0
C702 C 0.47912 0.42004 0.13544 0.0
C703 C 0.47849 0.45591 0.1306 0.0
C704 C 0.46447 0.4718 0.15775 0.0
H705 H 0.15969 0.96469 0.80838 0.0
H706 H 0.08277 0.89655 0.85226 0.0
H707 H 0.04563 0.9087 0.78735 0.0
H708 H 0.09898 0.02767 0.74686 0.0
H709 H 0.12376 0.03656 0.7073 0.0
H710 H 0.14519 0.02329 0.75706 0.0
H711 H 0.1751 0.97462 0.73676 0.0
H712 H 0.15392 0.98522 0.68656 0.0
H713 H 0.15005 0.94324 0.71431 0.0
H714 H 0.01847 0.92537 0.71827 0.0
H715 H 1.00135 0.94697 0.64755 0.0
H716 H 0.09404 0.00673 0.64712 0.0
C717 C 0.13494 0.95257 0.80408 0.0
C718 C 0.12382 0.92968 0.8349 0.0
C719 C 0.09144 0.91415 0.82871 0.0
C720 C 0.07025 0.92094 0.7921 0.0
C721 C 0.08174 0.94365 0.76219 0.0
C722 C 0.11315 0.95946 0.76766 0.0
C723 C 0.11925 0.98241 0.73011 0.0
C724 C 0.12194 0.0197 0.73565 0.0
C725 C 0.15148 0.9707 0.71604 0.0
C726 C 0.08656 0.97659 0.70267 0.0
C727 C 0.0654 0.9541 0.722 0.0
C728 C 0.03454 0.94335 0.70288 0.0
C729 C 0.02505 0.95572 0.66279 0.0
C730 C 0.04614 0.97884 0.64234 0.0
C731 C 0.07716 0.98968 0.66252 0.0
loop_
_geom_bond_atom_site_label_1
_geom_bond_atom_site_label_2
_geom_bond_distance
_geom_bond_site_symmetry_2
_ccdc_geom_bond_type
C0 C1 1.391 . S
C0 C4 1.391 . S
C0 H42 0.948 . S
C1 C0 1.391 . S
C1 C2 1.391 . S
C2 C1 1.391 . S
C2 H58 0.947 . S
C2 C59 1.392 . S
C3 C4 1.391 . S
C3 C7 1.397 . S
C3 C59 1.419 . S
C4 C0 1.391 . S
C4 C3 1.391 . S
C4 C5 1.399 . S
C5 C4 1.399 . S
C5 C8 1.396 . S
C5 C17 1.453 . S
C5 C18 1.684 . S
H6 C30 0.948 . S
C7 C3 1.397 . S
C7 C8 1.394 . S
C7 C26 1.723 1_556 S
C8 C5 1.396 . S
C8 C7 1.394 . S
C8 C38 1.723 1_556 S
H9 C32 0.947 . S
H10 C33 0.948 . S
H11 C39 0.982 . S
H12 C40 0.979 . S
H13 C40 0.980 . S
H14 C40 0.983 . S
H15 C39 0.979 . S
H16 C39 0.977 . S
C17 C5 1.453 . S
C17 H46 0.982 . S
C17 H47 0.979 . S
C17 H48 0.977 . S
C18 C5 1.684 . S
C18 H43 0.979 . S
C18 H44 0.980 . S
C18 H45 0.983 . S
C19 C20 1.391 . S
C19 C24 1.391 . S
C19 H49 0.948 . S
C20 C19 1.391 . S
C20 C21 1.391 . S
C21 C20 1.391 . S
C21 C22 1.392 . S
C21 H50 0.947 . S
C22 C21 1.392 . S
C22 C23 1.419 . S
C22 H51 0.948 . S
C23 C22 1.419 . S
C23 C24 1.391 . S
C23 C27 1.397 . S
C24 C19 1.391 . S
C24 C23 1.391 . S
C24 C25 1.399 . S
C25 C24 1.399 . S
C25 C26 1.396 . S
C25 C28 1.453 . S
C25 C29 1.684 . S
C26 C7 1.723 1_554 S
C26 C25 1.396 . S
C26 C27 1.394 . S
C27 C23 1.397 . S
C27 C26 1.394 . S
C27 C37 1.723 . S
C28 C25 1.453 . S
C28 H52 0.982 . S
C28 H53 0.979 . S
C28 H54 0.977 1_554 S
C29 C25 1.684 . S
C29 H55 0.979 . S
C29 H56 0.980 1_554 S
C29 H57 0.983 . S
C30 H6 0.948 . S
C30 C31 1.391 . S
C30 C35 1.391 . S
C31 C30 1.391 . S
C31 C32 1.391 1_554 S
C32 H9 0.947 . S
C32 C31 1.391 1_556 S
C32 C33 1.392 . S
C33 H10 0.948 . S
C33 C32 1.392 . S
C33 C34 1.419 1_556 S
C34 C33 1.419 1_554 S
C34 C35 1.391 . S
C34 C38 1.397 . S
C35 C30 1.391 . S
C35 C34 1.391 . S
C35 C36 1.399 . S
C36 C35 1.399 . S
C36 C37 1.396 . S
C36 C39 1.453 . S
C36 C40 1.684 . S
C37 C27 1.723 . S
C37 C36 1.396 . S
C37 C38 1.394 . S
C38 C8 1.723 1_554 S
C38 C34 1.397 . S
C38 C37 1.394 . S
C39 H11 0.982 . S
C39 H15 0.979 . S
C39 H16 0.977 . S
C39 C36 1.453 . S
C40 H12 0.979 . S
C40 H13 0.980 . S
C40 H14 0.983 . S
C40 C36 1.684 . S
H41 C59 0.948 . S
H42 C0 0.948 . S
H43 C18 0.979 . S
H44 C18 0.980 . S
H45 C18 0.983 . S
H46 C17 0.982 . S
H47 C17 0.979 . S
H48 C17 0.977 . S
H49 C19 0.948 . S
H50 C21 0.947 . S
H51 C22 0.948 . S
H52 C28 0.982 . S
H53 C28 0.979 . S
H54 C28 0.977 1_556 S
H55 C29 0.979 . S
H56 C29 0.980 1_556 S
H57 C29 0.983 . S
H58 C2 0.947 . S
C59 C2 1.392 . S
C59 C3 1.419 . S
C59 H41 0.948 . S
C60 C61 1.391 . S
C60 C64 1.391 . S
C60 H102 0.948 . S
C61 C60 1.391 . S
C61 C62 1.391 . S
C62 C61 1.391 . S
C62 H118 0.947 . S
C62 C119 1.392 . S
C63 C64 1.391 . S
C63 C67 1.397 . S
C63 C119 1.419 . S
C64 C60 1.391 . S
C64 C63 1.391 . S
C64 C65 1.399 . S
C65 C64 1.399 . S
C65 C68 1.396 . S
C65 C77 1.453 . S
C65 C78 1.684 . S
H66 C90 0.948 . S
C67 C63 1.397 . S
C67 C68 1.394 . S
C67 C86 1.723 . S
C68 C65 1.396 . S
C68 C67 1.394 . S
C68 C98 1.723 . S
H69 C92 0.947 . S
H70 C93 0.948 . S
H71 C99 0.982 . S
H72 C100 0.979 . S
H73 C100 0.980 . S
H74 C100 0.983 . S
H75 C99 0.979 . S
H76 C99 0.977 . S
C77 C65 1.453 . S
C77 H106 0.982 . S
C77 H107 0.979 . S
C77 H108 0.977 . S
C78 C65 1.684 . S
C78 H103 0.979 . S
C78 H104 0.980 . S
C78 H105 0.983 . S
C79 C80 1.391 . S
C79 C84 1.391 . S
C79 H109 0.948 . S
C80 C79 1.391 . S
C80 C81 1.391 . S
C81 C80 1.391 . S
C81 C82 1.392 . S
C81 H110 0.947 . S
C82 C81 1.392 . S
C82 C83 1.419 . S
C82 H111 0.948 . S
C83 C82 1.419 . S
C83 C84 1.391 . S
C83 C87 1.397 . S
C84 C79 1.391 . S
C84 C83 1.391 . S
C84 C85 1.399 . S
C85 C84 1.399 . S
C85 C86 1.396 . S
C85 C88 1.453 . S
C85 C89 1.684 . S
C86 C67 1.723 . S
C86 C85 1.396 . S
C86 C87 1.394 . S
C87 C83 1.397 . S
C87 C86 1.394 . S
C87 C97 1.723 . S
C88 C85 1.453 . S
C88 H112 0.982 . S
C88 H113 0.979 . S
C88 H114 0.977 . S
C89 C85 1.684 . S
C89 H115 0.979 . S
C89 H116 0.980 . S
C89 H117 0.983 . S
C90 H66 0.948 . S
C90 C91 1.391 . S
C90 C95 1.391 . S
C91 C90 1.391 . S
C91 C92 1.391 . S
C92 H69 0.947 . S
C92 C91 1.391 . S
C92 C93 1.392 . S
C93 H70 0.948 . S
C93 C92 1.392 . S
C93 C94 1.419 . S
C94 C93 1.419 . S
C94 C95 1.391 . S
C94 C98 1.397 . S
C95 C90 1.391 . S
C95 C94 1.391 . S
C95 C96 1.399 . S
C96 C95 1.399 . S
C96 C97 1.396 . S
C96 C99 1.453 . S
C96 C100 1.684 . S
C97 C87 1.723 . S
C97 C96 1.396 . S
C97 C98 1.394 . S
C98 C68 1.723 . S
C98 C94 1.397 . S
C98 C97 1.394 . S
C99 H71 0.982 . S
C99 H75 0.979 . S
C99 H76 0.977 . S
C99 C96 1.453 . S
C100 H72 0.979 . S
C100 H73 0.980 . S
C100 H74 0.983 . S
C100 C96 1.684 . S
H101 C119 0.948 . S
H102 C60 0.948 . S
H103 C78 0.979 . S
H104 C78 0.980 . S
H105 C78 0.983 . S
H106 C77 0.982 . S
H107 C77 0.979 . S
H108 C77 0.977 . S
H109 C79 0.948 . S
H110 C81 0.947 . S
H111 C82 0.948 . S
H112 C88 0.982 . S
H113 C88 0.979 . S
H114 C88 0.977 . S
H115 C89 0.979 . S
H116 C89 0.980 . S
H117 C89 0.983 . S
H118 C62 0.947 . S
C119 C62 1.392 . S
C119 C63 1.419 . S
C119 H101 0.948 . S
C120 C121 1.391 . S
C120 C124 1.391 . S
C120 H162 0.948 . S
C121 C120 1.391 . S
C121 C122 1.391 . S
C122 C121 1.391 . S
C122 H178 0.947 . S
C122 C179 1.392 . S
C123 C124 1.391 . S
C123 C127 1.397 . S
C123 C179 1.419 . S
C124 C120 1.391 . S
C124 C123 1.391 . S
C124 C125 1.399 . S
C125 C124 1.399 . S
C125 C128 1.396 . S
C125 C137 1.453 . S
C125 C138 1.684 . S
H126 C150 0.948 . S
C127 C123 1.397 . S
C127 C128 1.394 . S
C127 C146 1.723 . S
C128 C125 1.396 . S
C128 C127 1.394 . S
C128 C158 1.723 . S
H129 C152 0.947 . S
H130 C153 0.948 . S
H131 C159 0.982 . S
H132 C160 0.979 . S
H133 C160 0.980 . S
H134 C160 0.983 . S
H135 C159 0.979 . S
H136 C159 0.977 . S
C137 C125 1.453 . S
C137 H166 0.982 . S
C137 H167 0.979 . S
C137 H168 0.977 . S
C138 C125 1.684 . S
C138 H163 0.979 . S
C138 H164 0.980 . S
C138 H165 0.983 . S
C139 C140 1.391 . S
C139 C144 1.391 . S
C139 H169 0.948 . S
C140 C139 1.391 . S
C140 C141 1.391 . S
C141 C140 1.391 . S
C141 C142 1.392 . S
C141 H170 0.947 . S
C142 C141 1.392 . S
C142 C143 1.419 . S
C142 H171 0.948 . S
C143 C142 1.419 . S
C143 C144 1.391 . S
C143 C147 1.397 1_556 S
C144 C139 1.391 . S
C144 C143 1.391 . S
C144 C145 1.399 1_556 S
C145 C144 1.399 1_554 S
C145 C146 1.396 . S
C145 C148 1.453 . S
C145 C149 1.684 . S
C146 C127 1.723 . S
C146 C145 1.396 . S
C146 C147 1.394 . S
C147 C143 1.397 1_554 S
C147 C146 1.394 . S
C147 C157 1.723 . S
C148 C145 1.453 . S
C148 H172 0.982 . S
C148 H173 0.979 . S
C148 H174 0.977 . S
C149 C145 1.684 . S
C149 H175 0.979 . S
C149 H176 0.980 . S
C149 H177 0.983 . S
C150 H126 0.948 . S
C150 C151 1.391 1_556 S
C150 C155 1.391 1_556 S
C151 C150 1.391 1_554 S
C151 C152 1.391 . S
C152 H129 0.947 . S
C152 C151 1.391 . S
C152 C153 1.392 . S
C153 H130 0.948 . S
C153 C152 1.392 . S
C153 C154 1.419 . S
C154 C153 1.419 . S
C154 C155 1.391 . S
C154 C158 1.397 . S
C155 C150 1.391 1_554 S
C155 C154 1.391 . S
C155 C156 1.399 1_554 S
C156 C155 1.399 1_556 S
C156 C157 1.396 1_556 S
C156 C159 1.453 . S
C156 C160 1.684 . S
C157 C147 1.723 . S
C157 C156 1.396 1_554 S
C157 C158 1.394 . S
C158 C128 1.723 . S
C158 C154 1.397 . S
C158 C157 1.394 . S
C159 H131 0.982 . S
C159 H135 0.979 . S
C159 H136 0.977 . S
C159 C156 1.453 . S
C160 H132 0.979 . S
C160 H133 0.980 . S
C160 H134 0.983 . S
C160 C156 1.684 . S
H161 C179 0.948 . S
H162 C120 0.948 . S
H163 C138 0.979 . S
H164 C138 0.980 . S
H165 C138 0.983 . S
H166 C137 0.982 . S
H167 C137 0.979 . S
H168 C137 0.977 . S
H169 C139 0.948 . S
H170 C141 0.947 . S
H171 C142 0.948 . S
H172 C148 0.982 . S
H173 C148 0.979 . S
H174 C148 0.977 . S
H175 C149 0.979 . S
H176 C149 0.980 . S
H177 C149 0.983 . S
H178 C122 0.947 . S
C179 C122 1.392 . S
C179 C123 1.419 . S
C179 H161 0.948 . S
C180 C181 1.391 . S
C180 C184 1.391 . S
C180 H222 0.948 . S
C181 C180 1.391 . S
C181 C182 1.391 . S
C182 C181 1.391 . S
C182 H238 0.947 . S
C182 C239 1.392 . S
C183 C184 1.391 . S
C183 C187 1.397 . S
C183 C239 1.419 . S
C184 C180 1.391 . S
C184 C183 1.391 . S
C184 C185 1.399 . S
C185 C184 1.399 . S
C185 C188 1.396 . S
C185 C197 1.453 . S
C185 C198 1.684 . S
H186 C210 0.948 . S
C187 C183 1.397 . S
C187 C188 1.394 . S
C187 C206 1.723 . S
C188 C185 1.396 . S
C188 C187 1.394 . S
C188 C218 1.723 . S
H189 C212 0.947 . S
H190 C213 0.948 . S
H191 C219 0.982 . S
H192 C220 0.979 . S
H193 C220 0.980 . S
H194 C220 0.983 . S
H195 C219 0.979 . S
H196 C219 0.977 . S
C197 C185 1.453 . S
C197 H226 0.982 . S
C197 H227 0.979 . S
C197 H228 0.977 . S
C198 C185 1.684 . S
C198 H223 0.979 . S
C198 H224 0.980 . S
C198 H225 0.983 . S
C199 C200 1.391 . S
C199 C204 1.391 . S
C199 H229 0.948 . S
C200 C199 1.391 . S
C200 C201 1.391 . S
C201 C200 1.391 . S
C201 C202 1.392 . S
C201 H230 0.947 . S
C202 C201 1.392 . S
C202 C203 1.419 . S
C202 H231 0.948 . S
C203 C202 1.419 . S
C203 C204 1.391 . S
C203 C207 1.397 . S
C204 C199 1.391 . S
C204 C203 1.391 . S
C204 C205 1.399 . S
C205 C204 1.399 . S
C205 C206 1.396 . S
C205 C208 1.453 . S
C205 C209 1.684 . S
C206 C187 1.723 . S
C206 C205 1.396 . S
C206 C207 1.394 . S
C207 C203 1.397 . S
C207 C206 1.394 . S
C207 C217 1.723 . S
C208 C205 1.453 . S
C208 H232 0.982 . S
C208 H233 0.979 . S
C208 H234 0.977 . S
C209 C205 1.684 . S
C209 H235 0.979 . S
C209 H236 0.980 . S
C209 H237 0.983 . S
C210 H186 0.948 . S
C210 C211 1.391 . S
C210 C215 1.391 . S
C211 C210 1.391 . S
C211 C212 1.391 . S
C212 H189 0.947 . S
C212 C211 1.391 . S
C212 C213 1.392 . S
C213 H190 0.948 . S
C213 C212 1.392 . S
C213 C214 1.419 . S
C214 C213 1.419 . S
C214 C215 1.391 . S
C214 C218 1.397 . S
C215 C210 1.391 . S
C215 C214 1.391 . S
C215 C216 1.399 . S
C216 C215 1.399 . S
C216 C217 1.396 . S
C216 C219 1.453 . S
C216 C220 1.684 . S
C217 C207 1.723 . S
C217 C216 1.396 . S
C217 C218 1.394 . S
C218 C188 1.723 . S
C218 C214 1.397 . S
C218 C217 1.394 . S
C219 H191 0.982 . S
C219 H195 0.979 . S
C219 H196 0.977 . S
C219 C216 1.453 . S
C220 H192 0.979 . S
C220 H193 0.980 . S
C220 H194 0.983 . S
C220 C216 1.684 . S
H221 C239 0.948 . S
H222 C180 0.948 . S
H223 C198 0.979 . S
H224 C198 0.980 . S
H225 C198 0.983 . S
H226 C197 0.982 . S
H227 C197 0.979 . S
H228 C197 0.977 . S
H229 C199 0.948 . S
H230 C201 0.947 . S
H231 C202 0.948 . S
H232 C208 0.982 . S
H233 C208 0.979 . S
H234 C208 0.977 . S
H235 C209 0.979 . S
H236 C209 0.980 . S
H237 C209 0.983 . S
H238 C182 0.947 . S
C239 C182 1.392 . S
C239 C183 1.419 . S
C239 H221 0.948 . S
C240 C242 1.422 . S
C240 C244 1.415 . S
C240 N246 1.369 . S
C241 C242 1.421 . S
C241 C243 1.417 . S
C241 C253 1.422 . S
C242 C240 1.422 . S
C242 C241 1.421 . S
C242 N252 1.359 . S
C243 C241 1.417 . S
C243 C245 1.329 . S
C243 H262 0.930 . S
C244 C240 1.415 . S
C244 C245 1.437 . S
C244 C248 1.413 . S
C245 C243 1.329 . S
C245 C244 1.437 . S
C245 H267 0.929 . S
N246 C240 1.369 . S
N246 C247 1.324 1_655 S
N246 Gd251 2.622 . S
C247 N246 1.324 1_455 S
C247 C249 1.378 1_455 S
C247 H259 0.944 . S
C248 C244 1.413 . S
C248 C249 1.348 . S
C248 H264 0.931 . S
C249 C247 1.378 1_655 S
C249 C248 1.348 . S
C249 H265 0.930 1_655 S
Gd250 N270 2.622 . S
Gd250 N277 2.570 . S
Gd250 O284 2.353 1_455 S
Gd250 O285 2.468 . S
Gd250 O286 2.427 . S
Gd250 O288 2.388 1_455 S
Gd250 O289 2.386 . S
Gd250 O293 2.307 1_565 S
Gd250 C303 2.805 . S
Gd251 N246 2.622 . S
Gd251 N252 2.570 . S
Gd251 O283 2.386 . S
Gd251 O287 2.307 1_545 S
Gd251 O290 2.353 1_655 S
Gd251 O291 2.468 . S
Gd251 O292 2.427 . S
Gd251 O294 2.388 1_655 S
Gd251 C315 2.805 . S
N252 C242 1.359 . S
N252 Gd251 2.570 . S
N252 C254 1.343 . S
C253 C241 1.422 . S
C253 C255 1.321 . S
C253 H261 0.931 . S
C254 N252 1.343 . S
C254 C255 1.390 . S
C254 H256 0.931 . S
C255 C253 1.321 . S
C255 C254 1.390 . S
C255 H257 0.930 . S
H256 C254 0.931 . S
H257 C255 0.930 . S
H258 C281 0.931 . S
H259 C247 0.944 . S
H260 C282 0.930 . S
H261 C253 0.931 . S
H262 C243 0.930 . S
H263 C272 0.929 1_655 S
H264 C248 0.931 . S
H265 C249 0.930 1_455 S
H266 C304 0.930 . S
H267 C245 0.929 . S
H268 C273 0.931 . S
H269 C274 0.930 1_655 S
N270 Gd250 2.622 . S
N270 C271 1.369 . S
N270 C272 1.338 . S
C271 N270 1.369 . S
C271 C275 1.415 . S
C271 C278 1.422 . S
C272 H263 0.929 1_455 S
C272 N270 1.338 . S
C272 C274 1.378 . S
C273 H268 0.931 . S
C273 C274 1.348 . S
C273 C275 1.413 . S
C274 H269 0.930 1_455 S
C274 C272 1.378 . S
C274 C273 1.348 . S
C275 C271 1.415 . S
C275 C273 1.413 . S
C275 C305 1.437 . S
H276 C305 0.929 . S
N277 Gd250 2.570 . S
N277 C278 1.359 . S
N277 C281 1.343 . S
C278 C271 1.422 . S
C278 N277 1.359 . S
C278 C280 1.421 . S
C279 C280 1.422 . S
C279 C282 1.321 . S
C279 H306 0.931 . S
C280 C278 1.421 . S
C280 C279 1.422 . S
C280 C304 1.417 . S
C281 H258 0.931 . S
C281 N277 1.343 . S
C281 C282 1.390 . S
C282 H260 0.930 . S
C282 C279 1.321 . S
C282 C281 1.390 . S
O283 Gd251 2.386 . S
O283 C295 1.265 . S
O284 Gd250 2.353 1_655 S
O284 C295 1.242 1_565 S
O285 Gd250 2.468 . S
O285 C303 1.263 . S
O286 Gd250 2.427 . S
O286 C303 1.252 . S
O287 Gd251 2.307 1_565 S
O287 C296 1.261 . S
O288 Gd250 2.388 1_655 S
O288 C296 1.252 . S
O289 Gd250 2.386 . S
O289 C307 1.265 . S
O290 Gd251 2.353 1_455 S
O290 C307 1.242 1_545 S
O291 Gd251 2.468 . S
O291 C315 1.263 . S
O292 Gd251 2.427 . S
O292 C315 1.252 . S
O293 Gd250 2.307 1_545 S
O293 C308 1.261 . S
O294 Gd251 2.388 1_455 S
O294 C308 1.252 . S
C295 O283 1.265 . S
C295 O284 1.242 1_545 S
C296 O287 1.261 . S
C296 O288 1.252 . S
C297 C300 1.394 . S
C297 C302 1.370 . S
C297 C303 1.500 . S
C298 C301 1.383 . S
C298 C302 1.395 . S
C299 C300 1.396 . S
C299 C301 1.365 . S
C299 H316 0.929 . S
C300 C297 1.394 . S
C300 C299 1.396 . S
C300 H317 0.930 . S
C301 C298 1.383 . S
C301 C299 1.365 . S
C301 H318 0.931 . S
C302 C297 1.370 . S
C302 C298 1.395 . S
C302 H319 0.930 . S
C303 Gd250 2.805 . S
C303 O285 1.263 . S
C303 O286 1.252 . S
C303 C297 1.500 . S
C304 H266 0.930 . S
C304 C280 1.417 . S
C304 C305 1.329 . S
C305 C275 1.437 . S
C305 H276 0.929 . S
C305 C304 1.329 . S
H306 C279 0.931 . S
C307 O289 1.265 . S
C307 O290 1.242 1_565 S
C308 O293 1.261 . S
C308 O294 1.252 . S
C309 C312 1.394 . S
C309 C314 1.370 . S
C309 C315 1.500 . S
C310 C313 1.383 . S
C310 C314 1.395 . S
C311 C312 1.396 . S
C311 C313 1.365 . S
C311 H320 0.929 . S
C312 C309 1.394 . S
C312 C311 1.396 . S
C312 H321 0.930 . S
C313 C310 1.383 . S
C313 C311 1.365 . S
C313 H322 0.931 . S
C314 C309 1.370 . S
C314 C310 1.395 . S
C314 H323 0.930 . S
C315 Gd251 2.805 . S
C315 O291 1.263 . S
C315 O292 1.252 . S
C315 C309 1.500 . S
H316 C299 0.929 . S
H317 C300 0.930 . S
H318 C301 0.931 . S
H319 C302 0.930 . S
H320 C311 0.929 . S
H321 C312 0.930 . S
H322 C313 0.931 . S
H323 C314 0.930 . S
C324 C326 1.422 . S
C324 C328 1.415 . S
C324 N330 1.369 . S
C325 C326 1.421 . S
C325 C327 1.417 . S
C325 C337 1.422 . S
C326 C324 1.422 . S
C326 C325 1.421 . S
C326 N336 1.359 . S
C327 C325 1.417 . S
C327 C329 1.329 . S
C327 H346 0.930 . S
C328 C324 1.415 . S
C328 C329 1.437 . S
C328 C332 1.413 . S
C329 C327 1.329 . S
C329 C328 1.437 . S
C329 H351 0.929 . S
N330 C324 1.369 . S
N330 C331 1.338 . S
N330 Gd335 2.622 . S
C331 N330 1.338 . S
C331 C333 1.378 . S
C331 H343 0.929 . S
C332 C328 1.413 . S
C332 C333 1.348 . S
C332 H348 0.931 . S
C333 C331 1.378 . S
C333 C332 1.348 . S
C333 H349 0.930 . S
Gd334 N354 2.622 . S
Gd334 N361 2.570 1_556 S
Gd334 O368 2.353 . S
Gd334 O369 2.468 . S
Gd334 O370 2.427 . S
Gd334 O372 2.388 . S
Gd334 O373 2.386 1_556 S
Gd334 O377 2.307 1_556 S
Gd334 C387 2.805 . S
Gd335 N330 2.622 . S
Gd335 N336 2.570 . S
Gd335 O367 2.386 1_554 S
Gd335 O371 2.307 . S
Gd335 O374 2.353 . S
Gd335 O375 2.468 . S
Gd335 O376 2.427 . S
Gd335 O378 2.388 . S
Gd335 C399 2.805 . S
N336 C326 1.359 . S
N336 Gd335 2.570 . S
N336 C338 1.343 . S
C337 C325 1.422 . S
C337 C339 1.321 . S
C337 H345 0.931 . S
C338 N336 1.343 . S
C338 C339 1.390 . S
C338 H340 0.931 . S
C339 C337 1.321 . S
C339 C338 1.390 . S
C339 H341 0.930 . S
H340 C338 0.931 . S
H341 C339 0.930 . S
H342 C365 0.931 . S
H343 C331 0.929 . S
H344 C366 0.930 . S
H345 C337 0.931 . S
H346 C327 0.930 . S
H347 C356 0.929 . S
H348 C332 0.931 . S
H349 C333 0.930 . S
H350 C388 0.930 . S
H351 C329 0.929 . S
H352 C357 0.931 . S
H353 C358 0.930 . S
N354 Gd334 2.622 . S
N354 C355 1.369 1_556 S
N354 C356 1.338 . S
C355 N354 1.369 1_554 S
C355 C359 1.415 . S
C355 C362 1.422 . S
C356 H347 0.929 . S
C356 N354 1.338 . S
C356 C358 1.378 . S
C357 H352 0.931 . S
C357 C358 1.348 1_554 S
C357 C359 1.413 . S
C358 H353 0.930 . S
C358 C356 1.378 . S
C358 C357 1.348 1_556 S
C359 C355 1.415 . S
C359 C357 1.413 . S
C359 C389 1.437 . S
H360 C389 0.929 . S
N361 Gd334 2.570 1_554 S
N361 C362 1.359 . S
N361 C365 1.343 . S
C362 C355 1.422 . S
C362 N361 1.359 . S
C362 C364 1.421 . S
C363 C364 1.422 . S
C363 C366 1.321 . S
C363 H390 0.931 . S
C364 C362 1.421 . S
C364 C363 1.422 . S
C364 C388 1.417 . S
C365 H342 0.931 . S
C365 N361 1.343 . S
C365 C366 1.390 . S
C366 H344 0.930 . S
C366 C363 1.321 . S
C366 C365 1.390 . S
O367 Gd335 2.386 1_556 S
O367 C379 1.265 . S
O368 Gd334 2.353 . S
O368 C379 1.242 . S
O369 Gd334 2.468 . S
O369 C387 1.263 . S
O370 Gd334 2.427 . S
O370 C387 1.252 . S
O371 Gd335 2.307 . S
O371 C380 1.261 . S
O372 Gd334 2.388 . S
O372 C380 1.252 1_556 S
O373 Gd334 2.386 1_554 S
O373 C391 1.265 . S
O374 Gd335 2.353 . S
O374 C391 1.242 . S
O375 Gd335 2.468 . S
O375 C399 1.263 . S
O376 Gd335 2.427 . S
O376 C399 1.252 . S
O377 Gd334 2.307 1_554 S
O377 C392 1.261 . S
O378 Gd335 2.388 . S
O378 C392 1.252 . S
C379 O367 1.265 . S
C379 O368 1.242 . S
C380 O371 1.261 . S
C380 O372 1.252 1_554 S
C381 C384 1.394 . S
C381 C386 1.370 . S
C381 C387 1.500 . S
C382 C385 1.383 . S
C382 C386 1.395 . S
C383 C384 1.396 . S
C383 C385 1.365 . S
C383 H400 0.929 . S
C384 C381 1.394 . S
C384 C383 1.396 . S
C384 H401 0.930 . S
C385 C382 1.383 . S
C385 C383 1.365 . S
C385 H402 0.931 . S
C386 C381 1.370 . S
C386 C382 1.395 . S
C386 H403 0.930 . S
C387 Gd334 2.805 . S
C387 O369 1.263 . S
C387 O370 1.252 . S
C387 C381 1.500 . S
C388 H350 0.930 . S
C388 C364 1.417 . S
C388 C389 1.329 . S
C389 C359 1.437 . S
C389 H360 0.929 . S
C389 C388 1.329 . S
H390 C363 0.931 . S
C391 O373 1.265 . S
C391 O374 1.242 . S
C392 O377 1.261 . S
C392 O378 1.252 . S
C393 C396 1.394 . S
C393 C398 1.370 . S
C393 C399 1.500 . S
C394 C397 1.383 . S
C394 C398 1.395 . S
C395 C396 1.396 . S
C395 C397 1.365 . S
C395 H404 0.929 . S
C396 C393 1.394 . S
C396 C395 1.396 . S
C396 H405 0.930 . S
C397 C394 1.383 . S
C397 C395 1.365 . S
C397 H406 0.931 . S
C398 C393 1.370 . S
C398 C394 1.395 . S
C398 H407 0.930 . S
C399 Gd335 2.805 . S
C399 O375 1.263 . S
C399 O376 1.252 . S
C399 C393 1.500 . S
H400 C383 0.929 . S
H401 C384 0.930 . S
H402 C385 0.931 . S
H403 C386 0.930 . S
H404 C395 0.929 . S
H405 C396 0.930 . S
H406 C397 0.931 . S
H407 C398 0.930 . S
H408 C420 0.930 . S
H409 C422 0.930 . S
H410 C423 0.930 . S
H411 C427 0.959 . S
H412 C427 0.959 . S
H413 C427 0.961 . S
H414 C428 0.960 . S
H415 C428 0.961 . S
H416 C428 0.959 . S
H417 C431 0.929 . S
H418 C432 0.931 . S
H419 C434 0.930 . S
C420 H408 0.930 . S
C420 C421 1.399 . S
C420 C425 1.399 . S
C421 C420 1.399 . S
C421 C422 1.376 . S
C422 H409 0.930 . S
C422 C421 1.376 . S
C422 C423 1.388 . S
C423 H410 0.930 . S
C423 C422 1.388 . S
C423 C424 1.390 . S
C424 C423 1.390 . S
C424 C425 1.394 . S
C424 C430 1.465 . S
C425 C420 1.399 . S
C425 C424 1.394 . S
C425 C426 1.516 . S
C426 C425 1.516 . S
C426 C427 1.502 . S
C426 C428 1.561 . S
C426 C429 1.526 . S
C427 H411 0.959 . S
C427 H412 0.959 . S
C427 H413 0.961 . S
C427 C426 1.502 . S
C428 H414 0.960 . S
C428 H415 0.961 . S
C428 H416 0.959 . S
C428 C426 1.561 . S
C429 C426 1.526 . S
C429 C430 1.396 . S
C429 C434 1.390 . S
C430 C424 1.465 . S
C430 C429 1.396 . S
C430 C431 1.399 . S
C431 H417 0.929 . S
C431 C430 1.399 . S
C431 C432 1.385 . S
C432 H418 0.931 . S
C432 C431 1.385 . S
C432 C433 1.389 . S
C433 C432 1.389 . S
C433 C434 1.387 . S
C434 H419 0.930 . S
C434 C429 1.390 . S
C434 C433 1.387 . S
H435 C447 0.930 1_556 S
H436 C449 0.930 . S
H437 C450 0.930 . S
H438 C454 0.959 1_554 S
H439 C454 0.959 . S
H440 C454 0.961 . S
H441 C455 0.960 . S
H442 C455 0.961 . S
H443 C455 0.959 . S
H444 C458 0.929 . S
H445 C459 0.931 . S
H446 C461 0.930 1_556 S
C447 H435 0.930 1_554 S
C447 C448 1.399 . S
C447 C452 1.399 . S
C448 C447 1.399 . S
C448 C449 1.376 . S
C449 H436 0.930 . S
C449 C448 1.376 . S
C449 C450 1.388 . S
C450 H437 0.930 . S
C450 C449 1.388 . S
C450 C451 1.390 . S
C451 C450 1.390 . S
C451 C452 1.394 . S
C451 C457 1.465 . S
C452 C447 1.399 . S
C452 C451 1.394 . S
C452 C453 1.516 1_554 S
C453 C452 1.516 1_556 S
C453 C454 1.502 . S
C453 C455 1.561 . S
C453 C456 1.526 1_556 S
C454 H438 0.959 1_556 S
C454 H439 0.959 . S
C454 H440 0.961 . S
C454 C453 1.502 . S
C455 H441 0.960 . S
C455 H442 0.961 . S
C455 H443 0.959 . S
C455 C453 1.561 . S
C456 C453 1.526 1_554 S
C456 C457 1.396 . S
C456 C461 1.390 . S
C457 C451 1.465 . S
C457 C456 1.396 . S
C457 C458 1.399 . S
C458 H444 0.929 . S
C458 C457 1.399 . S
C458 C459 1.385 . S
C459 H445 0.931 . S
C459 C458 1.385 . S
C459 C460 1.389 . S
C460 C459 1.389 . S
C460 C461 1.387 . S
C461 H446 0.930 1_554 S
C461 C456 1.390 . S
C461 C460 1.387 . S
H462 C474 0.930 . S
H463 C476 0.930 . S
H464 C477 0.930 . S
H465 C481 0.959 . S
H466 C481 0.959 . S
H467 C481 0.961 . S
H468 C482 0.960 . S
H469 C482 0.961 . S
H470 C482 0.959 . S
H471 C485 0.929 . S
H472 C486 0.931 . S
H473 C488 0.930 . S
C474 H462 0.930 . S
C474 C475 1.399 . S
C474 C479 1.399 . S
C475 C474 1.399 . S
C475 C476 1.376 . S
C476 H463 0.930 . S
C476 C475 1.376 . S
C476 C477 1.388 . S
C477 H464 0.930 . S
C477 C476 1.388 . S
C477 C478 1.390 . S
C478 C477 1.390 . S
C478 C479 1.394 . S
C478 C484 1.465 . S
C479 C474 1.399 . S
C479 C478 1.394 . S
C479 C480 1.516 . S
C480 C479 1.516 . S
C480 C481 1.502 . S
C480 C482 1.561 . S
C480 C483 1.526 . S
C481 H465 0.959 . S
C481 H466 0.959 . S
C481 H467 0.961 . S
C481 C480 1.502 . S
C482 H468 0.960 . S
C482 H469 0.961 . S
C482 H470 0.959 . S
C482 C480 1.561 . S
C483 C480 1.526 . S
C483 C484 1.396 . S
C483 C488 1.390 . S
C484 C478 1.465 . S
C484 C483 1.396 . S
C484 C485 1.399 . S
C485 H471 0.929 . S
C485 C484 1.399 . S
C485 C486 1.385 . S
C486 H472 0.931 . S
C486 C485 1.385 . S
C486 C487 1.389 . S
C487 C486 1.389 . S
C487 C488 1.387 . S
C488 H473 0.930 . S
C488 C483 1.390 . S
C488 C487 1.387 . S
H489 C501 0.930 1_556 S
H490 C503 0.930 . S
H491 C504 0.930 . S
H492 C508 0.959 1_554 S
H493 C508 0.959 . S
H494 C508 0.961 . S
H495 C509 0.960 . S
H496 C509 0.961 . S
H497 C509 0.959 . S
H498 C512 0.929 . S
H499 C513 0.931 . S
H500 C515 0.930 1_556 S
C501 H489 0.930 1_554 S
C501 C502 1.399 . S
C501 C506 1.399 . S
C502 C501 1.399 . S
C502 C503 1.376 . S
C503 H490 0.930 . S
C503 C502 1.376 . S
C503 C504 1.388 . S
C504 H491 0.930 . S
C504 C503 1.388 . S
C504 C505 1.390 . S
C505 C504 1.390 . S
C505 C506 1.394 . S
C505 C511 1.465 . S
C506 C501 1.399 . S
C506 C505 1.394 . S
C506 C507 1.516 1_554 S
C507 C506 1.516 1_556 S
C507 C508 1.502 . S
C507 C509 1.561 . S
C507 C510 1.526 1_556 S
C508 H492 0.959 1_556 S
C508 H493 0.959 . S
C508 H494 0.961 . S
C508 C507 1.502 . S
C509 H495 0.960 . S
C509 H496 0.961 . S
C509 H497 0.959 . S
C509 C507 1.561 . S
C510 C507 1.526 1_554 S
C510 C511 1.396 . S
C510 C515 1.390 . S
C511 C505 1.465 . S
C511 C510 1.396 . S
C511 C512 1.399 . S
C512 H498 0.929 . S
C512 C511 1.399 . S
C512 C513 1.385 . S
C513 H499 0.931 . S
C513 C512 1.385 . S
C513 C514 1.389 . S
C514 C513 1.389 . S
C514 C515 1.387 . S
C515 H500 0.930 1_554 S
C515 C510 1.390 . S
C515 C514 1.387 . S
H516 C528 0.930 . S
H517 C530 0.930 . S
H518 C531 0.930 . S
H519 C535 0.959 . S
H520 C535 0.959 . S
H521 C535 0.961 . S
H522 C536 0.960 . S
H523 C536 0.961 . S
H524 C536 0.959 . S
H525 C539 0.929 1_545 S
H526 C540 0.931 1_545 S
H527 C542 0.930 . S
C528 H516 0.930 . S
C528 C529 1.399 . S
C528 C533 1.399 . S
C529 C528 1.399 . S
C529 C530 1.376 . S
C530 H517 0.930 . S
C530 C529 1.376 . S
C530 C531 1.388 . S
C531 H518 0.930 . S
C531 C530 1.388 . S
C531 C532 1.390 . S
C532 C531 1.390 . S
C532 C533 1.394 . S
C532 C538 1.465 . S
C533 C528 1.399 . S
C533 C532 1.394 . S
C533 C534 1.516 . S
C534 C533 1.516 . S
C534 C535 1.502 . S
C534 C536 1.561 . S
C534 C537 1.526 . S
C535 H519 0.959 . S
C535 H520 0.959 . S
C535 H521 0.961 . S
C535 C534 1.502 . S
C536 H522 0.960 . S
C536 H523 0.961 . S
C536 H524 0.959 . S
C536 C534 1.561 . S
C537 C534 1.526 . S
C537 C538 1.396 . S
C537 C542 1.390 . S
C538 C532 1.465 . S
C538 C537 1.396 . S
C538 C539 1.399 . S
C539 H525 0.929 1_565 S
C539 C538 1.399 . S
C539 C540 1.385 . S
C540 H526 0.931 1_565 S
C540 C539 1.385 . S
C540 C541 1.389 . S
C541 C540 1.389 . S
C541 C542 1.387 . S
C542 H527 0.930 . S
C542 C537 1.390 . S
C542 C541 1.387 . S
H543 C555 0.930 . S
H544 C557 0.930 . S
H545 C558 0.930 . S
H546 C562 0.959 . S
H547 C562 0.959 . S
H548 C562 0.961 . S
H549 C563 0.960 . S
H550 C563 0.961 . S
H551 C563 0.959 . S
H552 C566 0.929 . S
H553 C567 0.931 . S
H554 C569 0.930 . S
C555 H543 0.930 . S
C555 C556 1.399 . S
C555 C560 1.399 . S
C556 C555 1.399 . S
C556 C557 1.376 . S
C557 H544 0.930 . S
C557 C556 1.376 . S
C557 C558 1.388 . S
C558 H545 0.930 . S
C558 C557 1.388 . S
C558 C559 1.390 . S
C559 C558 1.390 . S
C559 C560 1.394 . S
C559 C565 1.465 . S
C560 C555 1.399 . S
C560 C559 1.394 . S
C560 C561 1.516 . S
C561 C560 1.516 . S
C561 C562 1.502 . S
C561 C563 1.561 . S
C561 C564 1.526 . S
C562 H546 0.959 . S
C562 H547 0.959 . S
C562 H548 0.961 . S
C562 C561 1.502 . S
C563 H549 0.960 . S
C563 H550 0.961 . S
C563 H551 0.959 . S
C563 C561 1.561 . S
C564 C561 1.526 . S
C564 C565 1.396 . S
C564 C569 1.390 . S
C565 C559 1.465 . S
C565 C564 1.396 . S
C565 C566 1.399 . S
C566 H552 0.929 . S
C566 C565 1.399 . S
C566 C567 1.385 . S
C567 H553 0.931 . S
C567 C566 1.385 . S
C567 C568 1.389 . S
C568 C567 1.389 . S
C568 C569 1.387 . S
C569 H554 0.930 . S
C569 C564 1.390 . S
C569 C568 1.387 . S
H570 C582 0.930 . S
H571 C584 0.930 . S
H572 C585 0.930 . S
H573 C589 0.959 . S
H574 C589 0.959 . S
H575 C589 0.961 . S
H576 C590 0.960 . S
H577 C590 0.961 . S
H578 C590 0.959 . S
H579 C593 0.929 1_565 S
H580 C594 0.931 1_565 S
H581 C596 0.930 . S
C582 H570 0.930 . S
C582 C583 1.399 . S
C582 C587 1.399 . S
C583 C582 1.399 . S
C583 C584 1.376 . S
C584 H571 0.930 . S
C584 C583 1.376 . S
C584 C585 1.388 . S
C585 H572 0.930 . S
C585 C584 1.388 . S
C585 C586 1.390 . S
C586 C585 1.390 . S
C586 C587 1.394 . S
C586 C592 1.465 . S
C587 C582 1.399 . S
C587 C586 1.394 . S
C587 C588 1.516 . S
C588 C587 1.516 . S
C588 C589 1.502 . S
C588 C590 1.561 . S
C588 C591 1.526 . S
C589 H573 0.959 . S
C589 H574 0.959 . S
C589 H575 0.961 . S
C589 C588 1.502 . S
C590 H576 0.960 . S
C590 H577 0.961 . S
C590 H578 0.959 . S
C590 C588 1.561 . S
C591 C588 1.526 . S
C591 C592 1.396 . S
C591 C596 1.390 . S
C592 C586 1.465 . S
C592 C591 1.396 . S
C592 C593 1.399 . S
C593 H579 0.929 1_545 S
C593 C592 1.399 . S
C593 C594 1.385 . S
C594 H580 0.931 1_545 S
C594 C593 1.385 . S
C594 C595 1.389 . S
C595 C594 1.389 . S
C595 C596 1.387 . S
C596 H581 0.930 . S
C596 C591 1.390 . S
C596 C595 1.387 . S
H597 C609 0.930 . S
H598 C611 0.930 . S
H599 C612 0.930 . S
H600 C616 0.959 . S
H601 C616 0.959 . S
H602 C616 0.961 . S
H603 C617 0.960 . S
H604 C617 0.961 . S
H605 C617 0.959 . S
H606 C620 0.929 . S
H607 C621 0.931 . S
H608 C623 0.930 . S
C609 H597 0.930 . S
C609 C610 1.399 . S
C609 C614 1.399 . S
C610 C609 1.399 . S
C610 C611 1.376 . S
C611 H598 0.930 . S
C611 C610 1.376 . S
C611 C612 1.388 . S
C612 H599 0.930 . S
C612 C611 1.388 . S
C612 C613 1.390 . S
C613 C612 1.390 . S
C613 C614 1.394 . S
C613 C619 1.465 . S
C614 C609 1.399 . S
C614 C613 1.394 . S
C614 C615 1.516 . S
C615 C614 1.516 . S
C615 C616 1.502 . S
C615 C617 1.561 . S
C615 C618 1.526 . S
C616 H600 0.959 . S
C616 H601 0.959 . S
C616 H602 0.961 . S
C616 C615 1.502 . S
C617 H603 0.960 . S
C617 H604 0.961 . S
C617 H605 0.959 . S
C617 C615 1.561 . S
C618 C615 1.526 . S
C618 C619 1.396 . S
C618 C623 1.390 . S
C619 C613 1.465 . S
C619 C618 1.396 . S
C619 C620 1.399 . S
C620 H606 0.929 . S
C620 C619 1.399 . S
C620 C621 1.385 . S
C621 H607 0.931 . S
C621 C620 1.385 . S
C621 C622 1.389 . S
C622 C621 1.389 . S
C622 C623 1.387 . S
C623 H608 0.930 . S
C623 C618 1.390 . S
C623 C622 1.387 . S
H624 C636 0.930 . S
H625 C638 0.930 . S
H626 C639 0.930 . S
H627 C643 0.959 . S
H628 C643 0.959 . S
H629 C643 0.961 . S
H630 C644 0.960 . S
H631 C644 0.961 . S
H632 C644 0.959 . S
H633 C647 0.929 . S
H634 C648 0.931 . S
H635 C650 0.930 . S
C636 H624 0.930 . S
C636 C637 1.399 . S
C636 C641 1.399 . S
C637 C636 1.399 . S
C637 C638 1.376 . S
C638 H625 0.930 . S
C638 C637 1.376 . S
C638 C639 1.388 . S
C639 H626 0.930 . S
C639 C638 1.388 . S
C639 C640 1.390 . S
C640 C639 1.390 . S
C640 C641 1.394 . S
C640 C646 1.465 . S
C641 C636 1.399 . S
C641 C640 1.394 . S
C641 C642 1.516 . S
C642 C641 1.516 . S
C642 C643 1.502 . S
C642 C644 1.561 . S
C642 C645 1.526 . S
C643 H627 0.959 . S
C643 H628 0.959 . S
C643 H629 0.961 . S
C643 C642 1.502 . S
C644 H630 0.960 . S
C644 H631 0.961 . S
C644 H632 0.959 . S
C644 C642 1.561 . S
C645 C642 1.526 . S
C645 C646 1.396 . S
C645 C650 1.390 . S
C646 C640 1.465 . S
C646 C645 1.396 . S
C646 C647 1.399 . S
C647 H633 0.929 . S
C647 C646 1.399 . S
C647 C648 1.385 . S
C648 H634 0.931 . S
C648 C647 1.385 . S
C648 C649 1.389 . S
C649 C648 1.389 . S
C649 C650 1.387 . S
C650 H635 0.930 . S
C650 C645 1.390 . S
C650 C649 1.387 . S
H651 C663 0.930 . S
H652 C665 0.930 . S
H653 C666 0.930 . S
H654 C670 0.959 . S
H655 C670 0.959 . S
H656 C670 0.961 . S
H657 C671 0.960 . S
H658 C671 0.961 . S
H659 C671 0.959 . S
H660 C674 0.929 1_565 S
H661 C675 0.931 1_565 S
H662 C677 0.930 . S
C663 H651 0.930 . S
C663 C664 1.399 . S
C663 C668 1.399 . S
C664 C663 1.399 . S
C664 C665 1.376 . S
C665 H652 0.930 . S
C665 C664 1.376 . S
C665 C666 1.388 . S
C666 H653 0.930 . S
C666 C665 1.388 . S
C666 C667 1.390 . S
C667 C666 1.390 . S
C667 C668 1.394 . S
C667 C673 1.465 . S
C668 C663 1.399 . S
C668 C667 1.394 . S
C668 C669 1.516 . S
C669 C668 1.516 . S
C669 C670 1.502 . S
C669 C671 1.561 . S
C669 C672 1.526 . S
C670 H654 0.959 . S
C670 H655 0.959 . S
C670 H656 0.961 . S
C670 C669 1.502 . S
C671 H657 0.960 . S
C671 H658 0.961 . S
C671 H659 0.959 . S
C671 C669 1.561 . S
C672 C669 1.526 . S
C672 C673 1.396 . S
C672 C677 1.390 . S
C673 C667 1.465 . S
C673 C672 1.396 . S
C673 C674 1.399 . S
C674 H660 0.929 1_545 S
C674 C673 1.399 . S
C674 C675 1.385 . S
C675 H661 0.931 1_545 S
C675 C674 1.385 . S
C675 C676 1.389 . S
C676 C675 1.389 . S
C676 C677 1.387 . S
C677 H662 0.930 . S
C677 C672 1.390 . S
C677 C676 1.387 . S
H678 C690 0.930 . S
H679 C692 0.930 . S
H680 C693 0.930 . S
H681 C697 0.959 . S
H682 C697 0.959 . S
H683 C697 0.961 . S
H684 C698 0.960 . S
H685 C698 0.961 . S
H686 C698 0.959 . S
H687 C701 0.929 . S
H688 C702 0.931 . S
H689 C704 0.930 . S
C690 H678 0.930 . S
C690 C691 1.399 . S
C690 C695 1.399 . S
C691 C690 1.399 . S
C691 C692 1.376 . S
C692 H679 0.930 . S
C692 C691 1.376 . S
C692 C693 1.388 . S
C693 H680 0.930 . S
C693 C692 1.388 . S
C693 C694 1.390 . S
C694 C693 1.390 . S
C694 C695 1.394 . S
C694 C700 1.465 . S
C695 C690 1.399 . S
C695 C694 1.394 . S
C695 C696 1.516 . S
C696 C695 1.516 . S
C696 C697 1.502 . S
C696 C698 1.561 . S
C696 C699 1.526 . S
C697 H681 0.959 . S
C697 H682 0.959 . S
C697 H683 0.961 . S
C697 C696 1.502 . S
C698 H684 0.960 . S
C698 H685 0.961 . S
C698 H686 0.959 . S
C698 C696 1.561 . S
C699 C696 1.526 . S
C699 C700 1.396 . S
C699 C704 1.390 . S
C700 C694 1.465 . S
C700 C699 1.396 . S
C700 C701 1.399 . S
C701 H687 0.929 . S
C701 C700 1.399 . S
C701 C702 1.385 . S
C702 H688 0.931 . S
C702 C701 1.385 . S
C702 C703 1.389 . S
C703 C702 1.389 . S
C703 C704 1.387 . S
C704 H689 0.930 . S
C704 C699 1.390 . S
C704 C703 1.387 . S
H705 C717 0.930 . S
H706 C719 0.930 . S
H707 C720 0.930 . S
H708 C724 0.959 . S
H709 C724 0.959 . S
H710 C724 0.961 . S
H711 C725 0.960 . S
H712 C725 0.961 . S
H713 C725 0.959 . S
H714 C728 0.929 . S
H715 C729 0.931 . S
H716 C731 0.930 1_545 S
C717 H705 0.930 . S
C717 C718 1.399 . S
C717 C722 1.399 . S
C718 C717 1.399 . S
C718 C719 1.376 . S
C719 H706 0.930 . S
C719 C718 1.376 . S
C719 C720 1.388 . S
C720 H707 0.930 . S
C720 C719 1.388 . S
C720 C721 1.390 . S
C721 C720 1.390 . S
C721 C722 1.394 . S
C721 C727 1.465 . S
C722 C717 1.399 . S
C722 C721 1.394 . S
C722 C723 1.516 . S
C723 C722 1.516 . S
C723 C724 1.502 1_565 S
C723 C725 1.561 . S
C723 C726 1.526 . S
C724 H708 0.959 . S
C724 H709 0.959 . S
C724 H710 0.961 . S
C724 C723 1.502 1_545 S
C725 H711 0.960 . S
C725 H712 0.961 . S
C725 H713 0.959 . S
C725 C723 1.561 . S
C726 C723 1.526 . S
C726 C727 1.396 . S
C726 C731 1.390 . S
C727 C721 1.465 . S
C727 C726 1.396 . S
C727 C728 1.399 . S
C728 H714 0.929 . S
C728 C727 1.399 . S
C728 C729 1.385 . S
C729 H715 0.931 . S
C729 C728 1.385 . S
C729 C730 1.389 . S
C730 C729 1.389 . S
C730 C731 1.387 . S
C731 H716 0.930 1_565 S
C731 C726 1.390 . S
C731 C730 1.387 . S
C433 C308 1.639 . S
C421 C211 1.594 . S
C448 C31 1.583 . S
C460 C380 1.623 . S
C475 C91 1.635 . S
C487 C296 1.636 . S
C502 C151 1.583 . S
C514 C392 1.595 . S
C541 C298 1.464 . S
C529 C20 1.543 . S
C568 C379 1.603 . S
C556 C61 1.551 . S
C583 C121 1.611 . S
C595 C295 1.608 . S
C610 C200 1.460 . S
C622 C382 1.417 . S
C649 C394 1.449 . S
C637 C80 1.514 . S
C676 C310 1.453 . S
C664 C140 1.557 . S
C703 C391 1.601 . S
C691 C181 1.569 . S
C718 C1 1.527 . S
C730 C307 1.613 . S
