# Generated by pormake.
# Topology eea, (3,6)-cn, num edge types: 1
# Building blocks:
#     Node 0, Type 0, BuildingBlock: BETDAH_clean_linker_0, # of connection points: 3
#     Node 1, Type 0, BuildingBlock: BETDAH_clean_linker_0, # of connection points: 3
#     Node 2, Type 0, BuildingBlock: BETDAH_clean_linker_0, # of connection points: 3
#     Node 3, Type 0, BuildingBlock: BETDAH_clean_linker_0, # of connection points: 3
#     Node 4, Type 0, BuildingBlock: BETDAH_clean_linker_0, # of connection points: 3
#     Node 5, Type 0, BuildingBlock: BETDAH_clean_linker_0, # of connection points: 3
#     Node 6, Type 0, BuildingBlock: BETDAH_clean_linker_0, # of connection points: 3
#     Node 7, Type 0, BuildingBlock: BETDAH_clean_linker_0, # of connection points: 3
#     Node 8, Type 0, BuildingBlock: BETDAH_clean_linker_0, # of connection points: 3
#     Node 9, Type 0, BuildingBlock: BETDAH_clean_linker_0, # of connection points: 3
#     Node 10, Type 0, BuildingBlock: BETDAH_clean_linker_0, # of connection points: 3
#     Node 11, Type 0, BuildingBlock: BETDAH_clean_linker_0, # of connection points: 3
#     Node 12, Type 0, BuildingBlock: BETDAH_clean_linker_0, # of connection points: 3
#     Node 13, Type 0, BuildingBlock: BETDAH_clean_linker_0, # of connection points: 3
#     Node 14, Type 0, BuildingBlock: BETDAH_clean_linker_0, # of connection points: 3
#     Node 15, Type 0, BuildingBlock: BETDAH_clean_linker_0, # of connection points: 3
#     Node 16, Type 0, BuildingBlock: BETDAH_clean_linker_0, # of connection points: 3
#     Node 17, Type 0, BuildingBlock: BETDAH_clean_linker_0, # of connection points: 3
#     Node 18, Type 1, BuildingBlock: KUMBOL_clean_sbu_0, # of connection points: 6
#     Node 19, Type 1, BuildingBlock: KUMBOL_clean_sbu_0, # of connection points: 6
#     Node 20, Type 1, BuildingBlock: KUMBOL_clean_sbu_0, # of connection points: 6
#     Node 21, Type 1, BuildingBlock: KUMBOL_clean_sbu_0, # of connection points: 6
#     Node 22, Type 1, BuildingBlock: KUMBOL_clean_sbu_0, # of connection points: 6
#     Node 23, Type 1, BuildingBlock: KUMBOL_clean_sbu_0, # of connection points: 6
#     Node 24, Type 1, BuildingBlock: KUMBOL_clean_sbu_0, # of connection points: 6
#     Node 25, Type 1, BuildingBlock: KUMBOL_clean_sbu_0, # of connection points: 6
#     Node 26, Type 1, BuildingBlock: KUMBOL_clean_sbu_0, # of connection points: 6
#     Edge 27, Type (0, 1), BuildingBlock: XIVTED_clean_linker_0, # of connection points: 2
#     Edge 28, Type (0, 1), BuildingBlock: XIVTED_clean_linker_0, # of connection points: 2
#     Edge 29, Type (0, 1), BuildingBlock: XIVTED_clean_linker_0, # of connection points: 2
#     Edge 30, Type (0, 1), BuildingBlock: XIVTED_clean_linker_0, # of connection points: 2
#     Edge 31, Type (0, 1), BuildingBlock: XIVTED_clean_linker_0, # of connection points: 2
#     Edge 32, Type (0, 1), BuildingBlock: XIVTED_clean_linker_0, # of connection points: 2
#     Edge 33, Type (0, 1), BuildingBlock: XIVTED_clean_linker_0, # of connection points: 2
#     Edge 34, Type (0, 1), BuildingBlock: XIVTED_clean_linker_0, # of connection points: 2
#     Edge 35, Type (0, 1), BuildingBlock: XIVTED_clean_linker_0, # of connection points: 2
#     Edge 36, Type (0, 1), BuildingBlock: XIVTED_clean_linker_0, # of connection points: 2
#     Edge 37, Type (0, 1), BuildingBlock: XIVTED_clean_linker_0, # of connection points: 2
#     Edge 38, Type (0, 1), BuildingBlock: XIVTED_clean_linker_0, # of connection points: 2
#     Edge 39, Type (0, 1), BuildingBlock: XIVTED_clean_linker_0, # of connection points: 2
#     Edge 40, Type (0, 1), BuildingBlock: XIVTED_clean_linker_0, # of connection points: 2
#     Edge 41, Type (0, 1), BuildingBlock: XIVTED_clean_linker_0, # of connection points: 2
#     Edge 42, Type (0, 1), BuildingBlock: XIVTED_clean_linker_0, # of connection points: 2
#     Edge 43, Type (0, 1), BuildingBlock: XIVTED_clean_linker_0, # of connection points: 2
#     Edge 44, Type (0, 1), BuildingBlock: XIVTED_clean_linker_0, # of connection points: 2
#     Edge 45, Type (0, 1), BuildingBlock: XIVTED_clean_linker_0, # of connection points: 2
#     Edge 46, Type (0, 1), BuildingBlock: XIVTED_clean_linker_0, # of connection points: 2
#     Edge 47, Type (0, 1), BuildingBlock: XIVTED_clean_linker_0, # of connection points: 2
#     Edge 48, Type (0, 1), BuildingBlock: XIVTED_clean_linker_0, # of connection points: 2
#     Edge 49, Type (0, 1), BuildingBlock: XIVTED_clean_linker_0, # of connection points: 2
#     Edge 50, Type (0, 1), BuildingBlock: XIVTED_clean_linker_0, # of connection points: 2
#     Edge 51, Type (0, 1), BuildingBlock: XIVTED_clean_linker_0, # of connection points: 2
#     Edge 52, Type (0, 1), BuildingBlock: XIVTED_clean_linker_0, # of connection points: 2
#     Edge 53, Type (0, 1), BuildingBlock: XIVTED_clean_linker_0, # of connection points: 2
#     Edge 54, Type (0, 1), BuildingBlock: XIVTED_clean_linker_0, # of connection points: 2
#     Edge 55, Type (0, 1), BuildingBlock: XIVTED_clean_linker_0, # of connection points: 2
#     Edge 56, Type (0, 1), BuildingBlock: XIVTED_clean_linker_0, # of connection points: 2
#     Edge 57, Type (0, 1), BuildingBlock: XIVTED_clean_linker_0, # of connection points: 2
#     Edge 58, Type (0, 1), BuildingBlock: XIVTED_clean_linker_0, # of connection points: 2
#     Edge 59, Type (0, 1), BuildingBlock: XIVTED_clean_linker_0, # of connection points: 2
#     Edge 60, Type (0, 1), BuildingBlock: XIVTED_clean_linker_0, # of connection points: 2
#     Edge 61, Type (0, 1), BuildingBlock: XIVTED_clean_linker_0, # of connection points: 2
#     Edge 62, Type (0, 1), BuildingBlock: XIVTED_clean_linker_0, # of connection points: 2
#     Edge 63, Type (0, 1), BuildingBlock: XIVTED_clean_linker_0, # of connection points: 2
#     Edge 64, Type (0, 1), BuildingBlock: XIVTED_clean_linker_0, # of connection points: 2
#     Edge 65, Type (0, 1), BuildingBlock: XIVTED_clean_linker_0, # of connection points: 2
#     Edge 66, Type (0, 1), BuildingBlock: XIVTED_clean_linker_0, # of connection points: 2
#     Edge 67, Type (0, 1), BuildingBlock: XIVTED_clean_linker_0, # of connection points: 2
#     Edge 68, Type (0, 1), BuildingBlock: XIVTED_clean_linker_0, # of connection points: 2
#     Edge 69, Type (0, 1), BuildingBlock: XIVTED_clean_linker_0, # of connection points: 2
#     Edge 70, Type (0, 1), BuildingBlock: XIVTED_clean_linker_0, # of connection points: 2
#     Edge 71, Type (0, 1), BuildingBlock: XIVTED_clean_linker_0, # of connection points: 2
#     Edge 72, Type (0, 1), BuildingBlock: XIVTED_clean_linker_0, # of connection points: 2
#     Edge 73, Type (0, 1), BuildingBlock: XIVTED_clean_linker_0, # of connection points: 2
#     Edge 74, Type (0, 1), BuildingBlock: XIVTED_clean_linker_0, # of connection points: 2
#     Edge 75, Type (0, 1), BuildingBlock: XIVTED_clean_linker_0, # of connection points: 2
#     Edge 76, Type (0, 1), BuildingBlock: XIVTED_clean_linker_0, # of connection points: 2
#     Edge 77, Type (0, 1), BuildingBlock: XIVTED_clean_linker_0, # of connection points: 2
#     Edge 78, Type (0, 1), BuildingBlock: XIVTED_clean_linker_0, # of connection points: 2
#     Edge 79, Type (0, 1), BuildingBlock: XIVTED_clean_linker_0, # of connection points: 2
#     Edge 80, Type (0, 1), BuildingBlock: XIVTED_clean_linker_0, # of connection points: 2
# Relax obj value: 0.023
# Max RMSD: 0.163
# Mean RMSD: 0.118
data_MOF--net-eea--node1-KUMBOL_clean_sbu_0--node2-BETDAH_clean_linker_0--edge1-XIVTED_clean_linker_0
_symmetry_space_group_name_H-M    P1
_symmetry_Int_Tables_number       1
_symmetry_cell_setting            triclinic
loop_
_symmetry_equiv_pos_as_xyz
'x, y, z'
_cell_length_a     54.898188
_cell_length_b     56.138825
_cell_length_c     66.633839
_cell_angle_alpha  89.973518
_cell_angle_beta   90.017102
_cell_angle_gamma 119.92612
loop_
_atom_site_label
_atom_site_type_symbol
_atom_site_fract_x
_atom_site_fract_y
_atom_site_fract_z
_atom_type_partial_charge
H0 H 0.26302 0.07988 0.43576 0.0
H1 H 0.27319 0.15916 0.42131 0.0
H2 H 0.24574 0.09683 0.37605 0.0
C3 C 0.26129 0.09355 0.42511 0.0
C4 C 0.2529 0.08467 0.4053 0.0
C5 C 0.26876 0.1204 0.43108 0.0
C6 C 0.26743 0.13839 0.41698 0.0
C7 C 0.25932 0.12974 0.3971 0.0
C8 C 0.25236 0.10317 0.39139 0.0
N9 N 0.25897 0.14756 0.38224 0.0
C10 C 0.24912 0.16564 0.38564 0.0
H11 H 0.93837 0.18864 0.43466 0.0
H12 H 0.86625 0.10819 0.42557 0.0
H13 H 0.93128 0.1431 0.38101 0.0
C14 C 0.92677 0.17042 0.4255 0.0
C15 C 0.93818 0.16841 0.40713 0.0
C16 C 0.90084 0.14876 0.43238 0.0
C17 C 0.88639 0.12482 0.42061 0.0
C18 C 0.89749 0.12296 0.40201 0.0
C19 C 0.92315 0.1447 0.39547 0.0
N20 N 0.88333 0.10009 0.389 0.0
C21 C 0.86055 0.07476 0.39406 0.0
H22 H 0.83514 0.76868 0.4395 0.0
H23 H 0.91678 0.77737 0.4292 0.0
H24 H 0.87958 0.80491 0.38473 0.0
C25 C 0.85352 0.77534 0.43009 0.0
C26 C 0.85459 0.78735 0.41137 0.0
C27 C 0.87581 0.77168 0.43679 0.0
C28 C 0.89952 0.78009 0.42427 0.0
C29 C 0.9009 0.79236 0.40551 0.0
C30 C 0.87848 0.79586 0.39931 0.0
N31 N 0.92407 0.80143 0.39214 0.0
C32 C 0.94879 0.80068 0.39517 0.0
H33 H 0.07 0.24121 0.59431 0.0
H34 H 0.14101 0.22956 0.60477 0.0
H35 H 0.07466 0.20166 0.64824 0.0
C36 C 0.08093 0.23366 0.60356 0.0
C37 C 0.06886 0.22073 0.62193 0.0
C38 C 0.10697 0.237 0.59708 0.0
C39 C 0.12112 0.22735 0.60951 0.0
C40 C 0.10929 0.21449 0.62796 0.0
C41 C 0.08334 0.21127 0.6339 0.0
N42 N 0.1225 0.20449 0.64122 0.0
C43 C 0.14804 0.20524 0.63843 0.0
H44 H 0.75375 0.82907 0.59742 0.0
H45 H 0.7461 0.89943 0.61384 0.0
H46 H 0.77432 0.86218 0.65716 0.0
C47 C 0.75587 0.84428 0.60834 0.0
C48 C 0.76591 0.84377 0.62766 0.0
C49 C 0.74828 0.86408 0.60315 0.0
C50 C 0.75145 0.88382 0.61756 0.0
C51 C 0.76083 0.88297 0.63702 0.0
C52 C 0.76757 0.86282 0.64198 0.0
N53 N 0.76284 0.90145 0.65225 0.0
C54 C 0.76999 0.92852 0.64872 0.0
H55 H 0.17519 0.92628 0.59705 0.0
H56 H 0.08783 0.86341 0.59446 0.0
H57 H 0.11418 0.9319 0.63419 0.0
C58 C 0.1538 0.91784 0.60231 0.0
C59 C 0.14775 0.93191 0.61719 0.0
C60 C 0.13237 0.89334 0.59369 0.0
C61 C 0.1046 0.88222 0.60085 0.0
C62 C 0.09834 0.8961 0.61574 0.0
C63 C 0.11973 0.92098 0.6234 0.0
N64 N 0.07048 0.88704 0.62225 0.0
C65 C 0.05013 0.85985 0.62581 0.0
H66 H 0.92977 0.41093 0.76918 0.0
H67 H 0.9506 0.49472 0.75877 0.0
H68 H 0.91077 0.4346 0.71242 0.0
C69 C 0.92947 0.42632 0.75953 0.0
C70 C 0.91822 0.41903 0.74009 0.0
C71 C 0.94127 0.45353 0.76648 0.0
C72 C 0.94098 0.47352 0.7539 0.0
C73 C 0.93018 0.46652 0.73435 0.0
C74 C 0.91902 0.43951 0.72755 0.0
N75 N 0.93304 0.48684 0.7205 0.0
C76 C 0.92134 0.50346 0.72354 0.0
H77 H 0.60722 0.51493 0.77119 0.0
H78 H 0.54275 0.42949 0.76929 0.0
H79 H 0.60878 0.46158 0.7255 0.0
C80 C 0.59801 0.49483 0.76423 0.0
C81 C 0.611 0.49114 0.74725 0.0
C82 C 0.57342 0.47273 0.77246 0.0
C83 C 0.5614 0.44681 0.76305 0.0
C84 C 0.57441 0.4429 0.74619 0.0
C85 C 0.59915 0.46492 0.7386 0.0
N86 N 0.56408 0.41689 0.7369 0.0
C87 C 0.53612 0.39612 0.73665 0.0
H88 H 0.49577 0.09844 0.77031 0.0
H89 H 0.58051 0.11342 0.76424 0.0
H90 H 0.54752 0.14745 0.72145 0.0
C91 C 0.51545 0.10738 0.76214 0.0
C92 C 0.51869 0.1231 0.7449 0.0
C93 C 0.53749 0.10365 0.76933 0.0
C94 C 0.56342 0.11618 0.75896 0.0
C95 C 0.56693 0.13204 0.74162 0.0
C96 C 0.54464 0.13547 0.73491 0.0
N97 N 0.59234 0.14524 0.73036 0.0
C98 C 0.61567 0.14178 0.73217 0.0
H99 H 0.73831 0.57276 0.93039 0.0
H100 H 0.80947 0.56121 0.94036 0.0
H101 H 0.74383 0.53383 0.98439 0.0
C102 C 0.74939 0.56531 0.93958 0.0
C103 C 0.73765 0.55262 0.95807 0.0
C104 C 0.77529 0.56853 0.9329 0.0
C105 C 0.78966 0.55906 0.94526 0.0
C106 C 0.77816 0.54645 0.96383 0.0
C107 C 0.7523 0.54328 0.96996 0.0
N108 N 0.79166 0.53667 0.97701 0.0
C109 C 0.81722 0.53759 0.97397 0.0
H110 H 0.41316 0.15774 0.93073 0.0
H111 H 0.41215 0.23234 0.9445 0.0
H112 H 0.44092 0.19642 0.98842 0.0
C113 C 0.41755 0.17444 0.94091 0.0
C114 C 0.42826 0.17465 0.96014 0.0
C115 C 0.41143 0.19505 0.93506 0.0
C116 C 0.41651 0.21621 0.94873 0.0
C117 C 0.42675 0.21625 0.96805 0.0
C118 C 0.43241 0.19556 0.97359 0.0
N119 N 0.43089 0.23628 0.98263 0.0
C120 C 0.43777 0.26307 0.97825 0.0
H121 H 0.84344 0.2618 0.92986 0.0
H122 H 0.7554 0.2009 0.92676 0.0
H123 H 0.78345 0.26897 0.96712 0.0
C124 C 0.82208 0.25383 0.93506 0.0
C125 C 0.81653 0.26808 0.95008 0.0
C126 C 0.80022 0.2298 0.92623 0.0
C127 C 0.7725 0.21933 0.93331 0.0
C128 C 0.76675 0.23342 0.94832 0.0
C129 C 0.78858 0.25784 0.95621 0.0
N130 N 0.73899 0.22508 0.95471 0.0
C131 C 0.7182 0.19808 0.95833 0.0
H132 H 0.58992 0.74462 0.10619 0.0
H133 H 0.60772 0.82653 0.09122 0.0
H134 H 0.57689 0.7638 0.04606 0.0
C135 C 0.5902 0.7592 0.0954 0.0
C136 C 0.5814 0.7506 0.07561 0.0
C137 C 0.60002 0.78662 0.10123 0.0
C138 C 0.60022 0.80533 0.08704 0.0
C139 C 0.59167 0.79689 0.06718 0.0
C140 C 0.58272 0.7698 0.06156 0.0
N141 N 0.59344 0.81555 0.0522 0.0
C142 C 0.58432 0.83433 0.05501 0.0
H143 H 0.27522 0.85126 0.10299 0.0
H144 H 0.20393 0.77072 0.09216 0.0
H145 H 0.26899 0.8087 0.04793 0.0
C146 C 0.26403 0.83328 0.09356 0.0
C147 C 0.27559 0.83246 0.0749 0.0
C148 C 0.23808 0.81113 0.10001 0.0
C149 C 0.22376 0.78799 0.0874 0.0
C150 C 0.23503 0.78724 0.06861 0.0
C151 C 0.26072 0.80941 0.06256 0.0
N152 N 0.22111 0.76492 0.05507 0.0
C153 C 0.19792 0.73953 0.05952 0.0
H154 H 0.16279 0.42661 0.10324 0.0
H155 H 0.24779 0.44247 0.09668 0.0
H156 H 0.21372 0.47583 0.05419 0.0
C157 C 0.1824 0.43568 0.09497 0.0
C158 C 0.1853 0.45133 0.07777 0.0
C159 C 0.20468 0.43225 0.10202 0.0
C160 C 0.23051 0.44499 0.09151 0.0
C161 C 0.23366 0.46075 0.07417 0.0
C162 C 0.21113 0.46389 0.06762 0.0
N163 N 0.25889 0.47408 0.06272 0.0
C164 C 0.28269 0.4714 0.06467 0.0
H165 H 0.40705 0.90722 0.26285 0.0
H166 H 0.47879 0.8967 0.27314 0.0
H167 H 0.41272 0.86838 0.31686 0.0
C168 C 0.41823 0.89993 0.27208 0.0
C169 C 0.40643 0.88704 0.29051 0.0
C170 C 0.44435 0.90355 0.26553 0.0
C171 C 0.45883 0.89427 0.27794 0.0
C172 C 0.44727 0.8815 0.29646 0.0
C173 C 0.42122 0.87794 0.30247 0.0
N174 N 0.46088 0.87193 0.3097 0.0
C175 C 0.48671 0.87338 0.3068 0.0
H176 H 0.08892 0.49681 0.26264 0.0
H177 H 0.07572 0.56333 0.28083 0.0
H178 H 0.10653 0.5273 0.32317 0.0
C179 C 0.08983 0.51112 0.27391 0.0
C180 C 0.09985 0.51045 0.29321 0.0
C181 C 0.08067 0.5299 0.26922 0.0
C182 C 0.08226 0.54845 0.28412 0.0
C183 C 0.09153 0.54732 0.30354 0.0
C184 C 0.09985 0.52818 0.30801 0.0
N185 N 0.09178 0.56449 0.31917 0.0
C186 C 0.10018 0.592 0.31642 0.0
H187 H 0.51094 0.59923 0.26031 0.0
H188 H 0.42972 0.52671 0.26827 0.0
H189 H 0.45867 0.59356 0.3101 0.0
C190 C 0.49171 0.58773 0.26884 0.0
C191 C 0.48742 0.5997 0.28596 0.0
C192 C 0.47116 0.56137 0.2623 0.0
C193 C 0.44568 0.547 0.27308 0.0
C194 C 0.44135 0.55892 0.29036 0.0
C195 C 0.46218 0.58497 0.29657 0.0
N196 N 0.41667 0.54583 0.30228 0.0
C197 C 0.39376 0.51965 0.29977 0.0
Gd198 Gd 0.51757 0.02307 0.0426 0.0
Gd199 Gd 0.4936 0.98854 0.99298 0.0
C200 C 0.4078 0.91163 0.98488 0.0
C201 C 0.42058 0.87675 0.97797 0.0
C202 C 0.45686 0.92421 0.98358 0.0
C203 C 0.43654 0.93152 0.98652 0.0
C204 C 0.44917 0.89689 0.97877 0.0
C205 C 0.39993 0.88411 0.98105 0.0
C206 C 0.38789 0.92014 0.98662 0.0
C207 C 0.39688 0.948 0.9892 0.0
N208 N 0.4449 0.95833 0.99 0.0
C209 C 0.42564 0.96697 0.99057 0.0
H210 H 0.43222 0.9884 0.99264 0.0
C211 C 0.50499 0.93878 0.97883 0.0
N212 N 0.48424 0.94421 0.98426 0.0
C213 C 0.49844 0.91196 0.97408 0.0
C214 C 0.47042 0.89084 0.97431 0.0
H215 H 0.52668 0.95506 0.97875 0.0
H216 H 0.37796 0.86849 0.97993 0.0
H217 H 0.57943 0.024 0.03971 0.0
H218 H 0.36561 0.9055 0.98553 0.0
H219 H 0.38168 0.95487 0.99019 0.0
H220 H 0.41423 0.85559 0.97449 0.0
H221 H 0.48616 0.05493 0.06273 0.0
H222 H 0.64608 0.10692 0.04601 0.0
H223 H 0.6299 0.05769 0.04038 0.0
H224 H 0.59791 0.1555 0.06343 0.0
H225 H 0.51498 0.90759 0.97028 0.0
H226 H 0.46538 0.87009 0.97055 0.0
H227 H 0.6339 0.14345 0.0543 0.0
H228 H 0.49808 0.10167 0.07346 0.0
N229 N 0.56658 0.05369 0.04427 0.0
C230 C 0.62378 0.09217 0.0457 0.0
C231 C 0.61472 0.06441 0.04259 0.0
C232 C 0.60392 0.10039 0.04914 0.0
C233 C 0.57515 0.08035 0.04847 0.0
C234 C 0.58593 0.04529 0.04225 0.0
N235 N 0.52788 0.06684 0.05382 0.0
C236 C 0.55506 0.08717 0.05342 0.0
C237 C 0.51432 0.09794 0.06773 0.0
C238 C 0.54203 0.11948 0.06628 0.0
C239 C 0.50765 0.0715 0.06167 0.0
C240 C 0.56293 0.11414 0.05942 0.0
H241 H 0.54719 0.13992 0.07105 0.0
O242 O 0.49557 0.01159 0.07126 0.0
O243 O 0.48339 0.98923 0.02515 0.0
O244 O 0.48163 0.0215 0.99734 0.0
O245 O 0.50819 0.05099 0.02367 0.0
O246 O 0.4714 0.00846 0.04611 0.0
O247 O 0.53206 0.00723 0.06682 0.0
O248 O 0.51617 0.99786 0.96465 0.0
O249 O 0.52704 0.02327 0.01016 0.0
O250 O 0.53053 0.99098 0.03658 0.0
O251 O 0.49801 0.95951 0.01397 0.0
O252 O 0.54022 0.00441 0.98984 0.0
O253 O 0.47899 0.00168 0.96716 0.0
C254 C 0.46236 0.98906 0.03298 0.0
C255 C 0.59144 0.13457 0.05911 0.0
C256 C 0.61192 0.1277 0.05393 0.0
C257 C 0.51306 0.00524 0.07949 0.0
C258 C 0.52292 0.0161 0.09984 0.0
C259 C 0.54332 0.04375 0.10258 0.0
C260 C 0.51182 0.99873 0.11669 0.0
C261 C 0.52117 0.00891 0.13626 0.0
C262 C 0.55254 0.05402 0.12184 0.0
C263 C 0.54161 0.03683 0.13855 0.0
C264 C 0.49156 0.0447 0.00771 0.0
C265 C 0.54856 0.02458 1.00229 0.0
C266 C 0.49856 0.00313 0.95526 0.0
C267 C 0.48957 0.99072 0.93519 0.0
C268 C 0.47252 0.9622 0.93318 0.0
C269 C 0.49841 0.00739 0.91785 0.0
C270 C 0.49015 0.99556 0.89855 0.0
C271 C 0.46454 0.95033 0.91422 0.0
C272 C 0.47329 0.96678 0.89705 0.0
C273 C 0.51713 0.96627 0.02822 0.0
H274 H 0.55211 0.05738 0.08984 0.0
H275 H 0.49624 0.97729 0.11449 0.0
H276 H 0.5682 0.07544 0.12385 0.0
H277 H 0.54892 0.04557 0.1533 0.0
H278 H 0.46547 0.94909 0.94625 0.0
H279 H 0.51132 0.02948 0.91944 0.0
H280 H 0.45154 0.92826 0.9128 0.0
H281 H 0.467 0.95683 0.88255 0.0
Gd282 Gd 0.98564 0.49395 0.04221 0.0
Gd283 Gd 0.02624 0.5052 0.99524 0.0
C284 C 0.105 0.49722 0.99338 0.0
C285 C 0.14189 0.54464 0.98861 0.0
C286 C 0.09299 0.53313 0.99051 0.0
C287 C 0.08481 0.50576 0.99333 0.0
C288 C 0.12155 0.55281 0.98766 0.0
C289 C 0.13363 0.51688 0.99148 0.0
C290 C 0.09576 0.46911 0.99485 0.0
C291 C 0.06699 0.45029 0.99559 0.0
N292 N 0.05697 0.48731 0.995 0.0
C293 C 0.04776 0.45977 0.9954 0.0
H294 H 0.02562 0.44497 0.99608 0.0
C295 C 0.07941 0.56631 0.98408 0.0
N296 N 0.07277 0.54023 0.98941 0.0
C297 C 0.10747 0.58664 0.9813 0.0
C298 C 0.12869 0.57995 0.98335 0.0
H299 H 0.06304 0.57156 0.98262 0.0
H300 H 0.14947 0.51075 0.99171 0.0
H301 H 0.98372 0.55277 0.03953 0.0
H302 H 0.1106 0.46171 0.99502 0.0
H303 H 0.05959 0.42848 0.99639 0.0
H304 H 0.16398 0.55949 0.98665 0.0
H305 H 0.95181 0.42905 0.0585 0.0
H306 H 0.89795 0.53341 0.04235 0.0
H307 H 0.94849 0.56769 0.03914 0.0
H308 H 0.84824 0.43663 0.05587 0.0
H309 H 0.11272 0.60744 0.97759 0.0
H310 H 0.1504 0.5957 0.98108 0.0
H311 H 0.86058 0.48429 0.04828 0.0
H312 H 0.9033 0.39286 0.06646 0.0
N313 N 0.95353 0.51025 0.04233 0.0
C314 C 0.91335 0.5267 0.04252 0.0
C315 C 0.94186 0.54612 0.04077 0.0
C316 C 0.90516 0.49898 0.04516 0.0
C317 C 0.92606 0.49135 0.04516 0.0
C318 C 0.9618 0.53753 0.041 0.0
N319 N 0.9401 0.45861 0.05037 0.0
C320 C 0.91911 0.46463 0.04934 0.0
C321 C 0.90743 0.41292 0.06156 0.0
C322 C 0.88536 0.4184 0.0596 0.0
C323 C 0.93488 0.43347 0.05707 0.0
C324 C 0.89109 0.44464 0.05373 0.0
H325 H 0.86412 0.40247 0.06313 0.0
O326 O 0.99356 0.48332 0.07191 0.0
O327 O 0.022 0.49438 0.02745 0.0
O328 O 0.99169 0.46049 0.99891 0.0
O329 O 0.95811 0.45966 0.02101 0.0
O330 O 1.00095 0.4638 0.04823 0.0
O331 O 0.9979 0.52334 0.06663 0.0
O332 O 0.02222 0.51904 0.96564 0.0
O333 O 0.98945 0.50414 0.00978 0.0
O334 O 0.01919 0.53892 0.0374 0.0
O335 O 0.05342 0.53746 0.01767 0.0
O336 O 0.01069 0.53521 0.98933 0.0
O337 O 0.01453 0.47752 0.96978 0.0
C338 C 0.02201 0.47441 0.0361 0.0
C339 C 0.86995 0.45176 0.05276 0.0
C340 C 0.87697 0.47889 0.04845 0.0
C341 C 0.99824 0.5064 0.07988 0.0
C342 C 0.98399 0.50421 0.09902 0.0
C343 C 0.95542 0.49628 0.09954 0.0
C344 C 0.99912 0.50964 0.11703 0.0
C345 C 0.98581 0.50699 0.13565 0.0
C346 C 0.94204 0.49363 0.11787 0.0
C347 C 0.95703 0.49884 0.13582 0.0
C348 C 0.96595 0.4485 0.00667 0.0
C349 C 0.98921 0.52397 1.00108 0.0
C350 C 0.01684 0.49612 0.95695 0.0
C351 C 0.03275 0.49885 0.93854 0.0
C352 C 0.06115 0.5062 0.93945 0.0
C353 C 0.01941 0.49421 0.9198 0.0
C354 C 0.03433 0.49671 0.90199 0.0
C355 C 0.07614 0.50894 0.92189 0.0
C356 C 0.06288 0.50424 0.90326 0.0
C357 C 0.04542 0.54981 0.03083 0.0
H358 H 0.94347 0.49208 0.08583 0.0
H359 H 0.02131 0.51614 0.11646 0.0
H360 H 0.91992 0.48733 0.11819 0.0
H361 H 0.94591 0.49605 0.14982 0.0
H362 H 0.07174 0.50979 0.95368 0.0
H363 H 0.99734 0.48819 0.91915 0.0
H364 H 0.0981 0.51472 0.92271 0.0
H365 H 0.07505 0.50671 0.88984 0.0
Gd366 Gd 0.49696 0.5154 0.99224 0.0
Gd367 Gd 0.52265 0.50199 0.04003 0.0
C368 C 0.60762 0.50606 0.04512 0.0
C369 C 0.5938 0.45814 0.0506 0.0
C370 C 0.55829 0.47166 0.04698 0.0
C371 C 0.57903 0.49869 0.04432 0.0
C372 C 0.5654 0.45114 0.0506 0.0
C373 C 0.61488 0.48556 0.04784 0.0
C374 C 0.62803 0.53387 0.04365 0.0
C375 C 0.61969 0.55357 0.04214 0.0
N376 N 0.57124 0.51796 0.04188 0.0
C377 C 0.59106 0.54524 0.04153 0.0
H378 H 0.58499 0.56072 0.04024 0.0
C379 C 0.51006 0.43993 0.05203 0.0
N380 N 0.53113 0.46569 0.04706 0.0
C381 C 0.51603 0.41882 0.0556 0.0
C382 C 0.5438 0.42436 0.05465 0.0
H383 H 0.48855 0.43551 0.05267 0.0
H384 H 0.63672 0.49078 0.0483 0.0
H385 H 0.43444 0.45694 0.99283 0.0
H386 H 0.65021 0.54038 0.04412 0.0
H387 H 0.63529 0.57518 0.04134 0.0
H388 H 0.5997 0.44262 0.05317 0.0
H389 H 0.53118 0.58132 0.97817 0.0
H390 H 0.36948 0.47753 0.9881 0.0
H391 H 0.3842 0.44267 0.9917 0.0
H392 H 0.42037 0.57487 0.97693 0.0
H393 H 0.49922 0.3983 0.05907 0.0
H394 H 0.54838 0.408 0.05749 0.0
H395 H 0.38319 0.52702 0.9828 0.0
H396 H 0.52075 0.6184 0.97065 0.0
N397 N 0.44839 0.49968 0.99046 0.0
C398 C 0.39164 0.48396 0.98859 0.0
C399 C 0.39987 0.46422 0.99057 0.0
C400 C 0.41214 0.51167 0.98663 0.0
C401 C 0.4407 0.51892 0.98747 0.0
C402 C 0.42848 0.47245 0.99119 0.0
N403 N 0.48857 0.55149 0.98413 0.0
C404 C 0.46149 0.54572 0.98418 0.0
C405 C 0.50388 0.59807 0.97451 0.0
C406 C 0.47618 0.59274 0.97536 0.0
C407 C 0.50971 0.57701 0.97872 0.0
C408 C 0.45451 0.56621 0.97996 0.0
H409 H 0.4717 0.60906 0.97204 0.0
O410 O 0.51709 0.52733 0.963 0.0
O411 O 0.53168 0.51363 0.00794 0.0
O412 O 0.5359 0.54712 0.03599 0.0
O413 O 0.50368 0.54888 0.01399 0.0
O414 O 0.54338 0.54521 0.98776 0.0
O415 O 0.48134 0.48657 0.96739 0.0
O416 O 0.50139 0.4892 0.06878 0.0
O417 O 0.48819 0.50434 0.02443 0.0
O418 O 0.4834 0.47019 0.99676 0.0
O419 O 0.51707 0.46959 0.01776 0.0
O420 O 0.47609 0.47228 0.04426 0.0
O421 O 0.53892 0.52905 0.06592 0.0
C422 C 0.55268 0.53378 0.99993 0.0
C423 C 0.42617 0.55938 0.97996 0.0
C424 C 0.40501 0.53215 0.9833 0.0
C425 C 0.49944 0.50404 0.95462 0.0
C426 C 0.48846 0.50565 0.93485 0.0
C427 C 0.46699 0.51214 0.93311 0.0
C428 C 0.49963 0.50055 0.91746 0.0
C429 C 0.48938 0.50175 0.8983 0.0
C430 C 0.45672 0.51341 0.91421 0.0
C431 C 0.46776 0.50824 0.89692 0.0
C432 C 0.52304 0.55971 0.02824 0.0
C433 C 0.46705 0.48423 0.03235 0.0
C434 C 0.51984 0.51131 0.07807 0.0
C435 C 0.52969 0.50692 0.09752 0.0
C436 C 0.54807 0.49641 0.09836 0.0
C437 C 0.52008 0.51267 0.11545 0.0
C438 C 0.52882 0.50799 0.13424 0.0
C439 C 0.55665 0.49151 0.11685 0.0
C440 C 0.5471 0.49717 0.13465 0.0
C441 C 0.49717 0.45822 1.00397 0.0
H442 H 0.45817 0.51616 0.94633 0.0
H443 H 0.51605 0.49527 0.91892 0.0
H444 H 0.44017 0.51849 0.91294 0.0
H445 H 0.45963 0.50973 0.88245 0.0
H446 H 0.55568 0.49189 0.08476 0.0
H447 H 0.50614 0.52111 0.11472 0.0
H448 H 0.5707 0.48322 0.11739 0.0
H449 H 0.55387 0.49281 0.14877 0.0
Gd450 Gd 0.18205 0.35457 0.37377 0.0
Gd451 Gd 0.1573 0.31739 0.32509 0.0
C452 C 0.07163 0.23997 0.31754 0.0
C453 C 0.08459 0.20498 0.31175 0.0
C454 C 0.12072 0.25266 0.31672 0.0
C455 C 0.10034 0.25996 0.31914 0.0
C456 C 0.11315 0.22521 0.31252 0.0
C457 C 0.06386 0.21235 0.31428 0.0
C458 C 0.05166 0.24847 0.31871 0.0
C459 C 0.06058 0.27638 0.32071 0.0
N460 N 0.10863 0.28686 0.32207 0.0
C461 C 0.08931 0.29544 0.32208 0.0
H462 H 0.09583 0.3169 0.32372 0.0
C463 C 0.16891 0.26719 0.31252 0.0
N464 N 0.14805 0.27276 0.31735 0.0
C465 C 0.16248 0.24025 0.30838 0.0
C466 C 0.13449 0.21908 0.30863 0.0
H467 H 0.19059 0.28345 0.31241 0.0
H468 H 0.04191 0.19666 0.31318 0.0
H469 H 0.2436 0.35513 0.37367 0.0
H470 H 0.0294 0.23375 0.31761 0.0
H471 H 0.04534 0.28325 0.32127 0.0
H472 H 0.07833 0.18372 0.30872 0.0
H473 H 0.14929 0.38841 0.38804 0.0
H474 H 0.31023 0.43819 0.37954 0.0
H475 H 0.29413 0.38873 0.37538 0.0
H476 H 0.26163 0.48807 0.3909 0.0
H477 H 0.1791 0.23582 0.30503 0.0
H478 H 0.12955 0.19824 0.30534 0.0
H479 H 0.29789 0.47522 0.38513 0.0
H480 H 0.16098 0.4359 0.39604 0.0
N481 N 0.23084 0.38512 0.37629 0.0
C482 C 0.28794 0.42348 0.3788 0.0
C483 C 0.27893 0.39559 0.37651 0.0
C484 C 0.26803 0.43195 0.38074 0.0
C485 C 0.23927 0.41197 0.37956 0.0
C486 C 0.25015 0.37655 0.37558 0.0
N487 N 0.1917 0.39908 0.38245 0.0
C488 C 0.219 0.4192 0.38276 0.0
C489 C 0.17752 0.43151 0.39225 0.0
C490 C 0.20549 0.45268 0.39178 0.0
C491 C 0.17098 0.40463 0.38776 0.0
C492 C 0.22671 0.4466 0.38727 0.0
H493 H 0.21053 0.47348 0.39532 0.0
O494 O 0.16019 0.34558 0.40243 0.0
O495 O 0.14748 0.32019 0.35703 0.0
O496 O 0.14508 0.35029 0.32911 0.0
O497 O 0.17642 0.38244 0.35217 0.0
O498 O 0.13601 0.34079 0.37713 0.0
O499 O 0.19583 0.33948 0.3989 0.0
O500 O 0.17998 0.32644 0.29684 0.0
O501 O 0.19147 0.35213 0.34173 0.0
O502 O 0.19443 0.32182 0.3692 0.0
O503 O 0.1616 0.28932 0.34717 0.0
O504 O 0.20369 0.33202 0.32186 0.0
O505 O 0.14286 0.33036 0.29905 0.0
C506 C 0.12669 0.32071 0.36458 0.0
C507 C 0.25527 0.46684 0.38764 0.0
C508 C 0.27591 0.45953 0.38436 0.0
C509 C 0.17696 0.33867 0.4112 0.0
C510 C 0.18666 0.34978 0.43151 0.0
C511 C 0.20679 0.37752 0.43419 0.0
C512 C 0.17563 0.33247 0.4484 0.0
C513 C 0.18476 0.34278 0.46798 0.0
C514 C 0.21585 0.38792 0.45346 0.0
C515 C 0.20499 0.37079 0.47021 0.0
C516 C 0.15785 0.37512 0.33738 0.0
C517 C 0.21262 0.35235 0.33418 0.0
C518 C 0.16243 0.33158 0.28727 0.0
C519 C 0.15345 0.31876 0.26733 0.0
C520 C 0.13659 0.29018 0.26563 0.0
C521 C 0.16223 0.33508 0.24982 0.0
C522 C 0.15408 0.32285 0.23065 0.0
C523 C 0.12871 0.27792 0.24678 0.0
C524 C 0.13739 0.29401 0.22944 0.0
C525 C 0.18084 0.29672 0.36144 0.0
H526 H 0.21546 0.39111 0.42141 0.0
H527 H 0.16024 0.31096 0.44624 0.0
H528 H 0.23132 0.40941 0.45543 0.0
H529 H 0.21215 0.37964 0.48495 0.0
H530 H 0.12964 0.27734 0.27885 0.0
H531 H 0.17502 0.35721 0.25118 0.0
H532 H 0.11586 0.2558 0.24559 0.0
H533 H 0.13118 0.28378 0.21504 0.0
Gd534 Gd 0.65342 0.82748 0.37612 0.0
Gd535 Gd 0.69389 0.83839 0.32909 0.0
C536 C 0.77381 0.83247 0.32584 0.0
C537 C 0.80964 0.88001 0.3199 0.0
C538 C 0.76051 0.86745 0.32277 0.0
C539 C 0.75312 0.84037 0.32601 0.0
C540 C 0.78878 0.88752 0.31929 0.0
C541 C 0.80217 0.85252 0.32319 0.0
C542 C 0.76529 0.80459 0.32788 0.0
C543 C 0.73671 0.78533 0.32936 0.0
N544 N 0.72552 0.82155 0.32844 0.0
C545 C 0.71698 0.79418 0.32936 0.0
H546 H 0.69501 0.77904 0.33064 0.0
C547 C 0.74566 0.89977 0.31682 0.0
N548 N 0.73982 0.87393 0.32215 0.0
C549 C 0.7734 0.92046 0.31338 0.0
C550 C 0.79511 0.91439 0.31484 0.0
H551 H 0.72896 0.9046 0.31581 0.0
H552 H 0.81839 0.84689 0.32321 0.0
H553 H 0.65237 0.88677 0.37396 0.0
H554 H 0.78053 0.79768 0.3279 0.0
H555 H 0.72985 0.76366 0.33061 0.0
H556 H 0.83152 0.89517 0.31744 0.0
H557 H 0.61831 0.7616 0.39029 0.0
H558 H 0.5669 0.86836 0.37656 0.0
H559 H 0.6176 0.90227 0.37374 0.0
H560 H 0.51579 0.77104 0.38784 0.0
H561 H 0.77802 0.94106 0.30963 0.0
H562 H 0.81658 0.93042 0.3121 0.0
H563 H 0.52897 0.81923 0.38155 0.0
H564 H 0.56928 0.72533 0.39675 0.0
N565 N 0.62178 0.84432 0.37641 0.0
C566 C 0.5821 0.86141 0.3767 0.0
C567 C 0.6107 0.88061 0.37515 0.0
C568 C 0.57353 0.83354 0.37895 0.0
C569 C 0.59418 0.82559 0.37892 0.0
C570 C 0.63038 0.8717 0.37529 0.0
N571 N 0.60747 0.79213 0.38333 0.0
C572 C 0.58677 0.79858 0.38246 0.0
C573 C 0.57389 0.74582 0.39266 0.0
C574 C 0.55218 0.75186 0.39095 0.0
C575 C 0.60163 0.76642 0.38906 0.0
C576 C 0.55851 0.77861 0.38609 0.0
H577 H 0.53072 0.7359 0.39383 0.0
O578 O 0.65998 0.81589 0.40586 0.0
O579 O 0.68977 0.82781 0.36142 0.0
O580 O 0.66031 0.7936 0.33376 0.0
O581 O 0.62612 0.79404 0.35434 0.0
O582 O 0.66863 0.79732 0.38229 0.0
O583 O 0.66605 0.85664 0.40071 0.0
O584 O 0.68739 0.8505 0.29955 0.0
O585 O 0.65746 0.83777 0.3438 0.0
O586 O 0.6873 0.87232 0.37134 0.0
O587 O 0.72135 0.87096 0.35121 0.0
O588 O 0.67825 0.86835 0.32302 0.0
O589 O 0.68167 0.80976 0.30419 0.0
C590 C 0.68974 0.80791 0.3702 0.0
C591 C 0.53767 0.78614 0.38527 0.0
C592 C 0.54517 0.81357 0.3817 0.0
C593 C 0.66546 0.83919 0.41391 0.0
C594 C 0.65127 0.83741 0.43299 0.0
C595 C 0.6228 0.82984 0.43347 0.0
C596 C 0.6664 0.8429 0.45101 0.0
C597 C 0.65319 0.84069 0.46961 0.0
C598 C 0.60953 0.82766 0.45178 0.0
C599 C 0.62452 0.83296 0.46974 0.0
C600 C 0.63424 0.78221 0.34077 0.0
C601 C 0.65705 0.85745 0.33503 0.0
C602 C 0.68215 0.82742 0.29122 0.0
C603 C 0.69643 0.82978 0.27209 0.0
C604 C 0.72471 0.83664 0.27154 0.0
C605 C 0.68162 0.82571 0.25407 0.0
C606 C 0.69491 0.8285 0.23544 0.0
C607 C 0.73807 0.83944 0.25316 0.0
C608 C 0.72334 0.83544 0.23521 0.0
C609 C 0.71343 0.88325 0.36451 0.0
H610 H 0.61084 0.82553 0.41974 0.0
H611 H 0.68851 0.84909 0.45047 0.0
H612 H 0.58748 0.82166 0.45208 0.0
H613 H 0.61349 0.83055 0.48373 0.0
H614 H 0.73644 0.83985 0.28527 0.0
H615 H 0.65985 0.82078 0.25458 0.0
H616 H 0.7599 0.84468 0.25281 0.0
H617 H 0.7341 0.8374 0.22116 0.0
Gd618 Gd 0.16466 0.84614 0.32422 0.0
Gd619 Gd 0.19084 0.83546 0.37289 0.0
C620 C 0.27715 0.84273 0.37851 0.0
C621 C 0.26491 0.79551 0.3854 0.0
C622 C 0.22824 0.80732 0.38097 0.0
C623 C 0.24833 0.83445 0.37765 0.0
C624 C 0.23628 0.78765 0.38539 0.0
C625 C 0.28532 0.823 0.38193 0.0
C626 C 0.29688 0.87067 0.37644 0.0
C627 C 0.28766 0.88964 0.37432 0.0
N628 N 0.23969 0.85299 0.37459 0.0
C629 C 0.25884 0.88044 0.37371 0.0
H630 H 0.25207 0.89536 0.37197 0.0
C631 C 0.18042 0.77484 0.38687 0.0
N632 N 0.20082 0.80049 0.38104 0.0
C633 C 0.18732 0.75456 0.39126 0.0
C634 C 0.21535 0.76088 0.39026 0.0
H635 H 0.15872 0.76987 0.38755 0.0
H636 H 0.30735 0.82892 0.38244 0.0
H637 H 0.10277 0.78683 0.32719 0.0
H638 H 0.31922 0.87785 0.37692 0.0
H639 H 0.30274 0.91136 0.37308 0.0
H640 H 0.27152 0.78065 0.38856 0.0
H641 H 0.19574 0.9088 0.30422 0.0
H642 H 0.03619 0.80508 0.32242 0.0
H643 H 0.0523 0.77141 0.32705 0.0
H644 H 0.08434 0.90102 0.30609 0.0
H645 H 0.17104 0.73407 0.39539 0.0
H646 H 0.22066 0.74516 0.39374 0.0
H647 H 0.0484 0.85372 0.31498 0.0
H648 H 0.1838 0.94426 0.2945 0.0
N649 N 0.11567 0.82918 0.32332 0.0
C650 C 0.05849 0.81203 0.32249 0.0
C651 C 0.0675 0.79297 0.32503 0.0
C652 C 0.07836 0.83968 0.3193 0.0
C653 C 0.10712 0.84763 0.31963 0.0
C654 C 0.09628 0.80187 0.32508 0.0
N655 N 0.15432 0.88018 0.31382 0.0
C656 C 0.12718 0.8741 0.31474 0.0
C657 C 0.16767 0.92468 0.30031 0.0
C658 C 0.14008 0.91933 0.30236 0.0
C659 C 0.17436 0.90456 0.30581 0.0
C660 C 0.11928 0.89356 0.30925 0.0
H661 H 0.13489 0.93486 0.29798 0.0
O662 O 0.18539 0.85601 0.29513 0.0
O663 O 0.19966 0.84555 0.34055 0.0
O664 O 0.20243 0.88006 0.36869 0.0
O665 O 0.17436 0.88302 0.34324 0.0
O666 O 0.21084 0.87626 0.31956 0.0
O667 O 0.14864 0.81625 0.30001 0.0
O668 O 0.16946 0.82284 0.40162 0.0
O669 O 0.15633 0.8373 0.35685 0.0
O670 O 0.15176 0.80143 0.3302 0.0
O671 O 0.18543 0.80195 0.35176 0.0
O672 O 0.14447 0.80563 0.37715 0.0
O673 O 0.20686 0.86279 0.39865 0.0
C674 C 0.22044 0.86566 0.33226 0.0
C675 C 0.09082 0.88627 0.31001 0.0
C676 C 0.07037 0.85935 0.31506 0.0
C677 C 0.16708 0.83282 0.28703 0.0
C678 C 0.15627 0.83466 0.26723 0.0
C679 C 0.13474 0.84108 0.26558 0.0
C680 C 0.16785 0.83025 0.24976 0.0
C681 C 0.15795 0.83215 0.23062 0.0
C682 C 0.12489 0.84311 0.24672 0.0
C683 C 0.13636 0.83872 0.22936 0.0
C684 C 0.19186 0.89328 0.35868 0.0
C685 C 0.13534 0.81741 0.36512 0.0
C686 C 0.18773 0.84514 0.41082 0.0
C687 C 0.19739 0.84116 0.4305 0.0
C688 C 0.21654 0.83162 0.43182 0.0
C689 C 0.18672 0.84626 0.44817 0.0
C690 C 0.195 0.84172 0.46721 0.0
C691 C 0.22475 0.82693 0.45053 0.0
C692 C 0.21404 0.83182 0.46809 0.0
C693 C 0.16551 0.78984 0.33808 0.0
H694 H 0.12557 0.84451 0.27884 0.0
H695 H 0.1843 0.82501 0.25113 0.0
H696 H 0.10834 0.84821 0.24555 0.0
H697 H 0.12856 0.84086 0.21494 0.0
H698 H 0.22503 0.82767 0.41843 0.0
H699 H 0.17222 0.85402 0.44704 0.0
H700 H 0.23938 0.81934 0.45144 0.0
H701 H 0.22048 0.82751 0.48235 0.0
Gd702 Gd 0.84658 0.68598 0.70945 0.0
Gd703 Gd 0.82366 0.65175 0.65977 0.0
C704 C 0.73973 0.57285 0.6506 0.0
C705 C 0.75464 0.53978 0.6427 0.0
C706 C 0.78932 0.5876 0.64906 0.0
C707 C 0.76814 0.59357 0.65242 0.0
C708 C 0.78287 0.56078 0.64372 0.0
C709 C 0.7331 0.5458 0.64616 0.0
C710 C 0.7189 0.58008 0.65275 0.0
C711 C 0.72668 0.60756 0.65589 0.0
N712 N 0.77533 0.61996 0.65647 0.0
C713 C 0.75515 0.6274 0.65742 0.0
H714 H 0.76078 0.6485 0.65992 0.0
C715 C 0.83789 0.60427 0.64446 0.0
N716 N 0.81631 0.60841 0.65001 0.0
C717 C 0.83259 0.578 0.63917 0.0
C718 C 0.80497 0.55607 0.63903 0.0
H719 H 0.85928 0.62113 0.64465 0.0
H720 H 0.7114 0.52955 0.64488 0.0
H721 H 0.90922 0.68872 0.70819 0.0
H722 H 0.69684 0.56477 0.65153 0.0
H723 H 0.71076 0.61348 0.65719 0.0
H724 H 0.74924 0.51898 0.6388 0.0
H725 H 0.81194 0.71731 0.72521 0.0
H726 H 0.97391 0.77226 0.71601 0.0
H727 H 0.95938 0.72342 0.71024 0.0
H728 H 0.9226 0.8189 0.72977 0.0
H729 H 0.84979 0.57468 0.63523 0.0
H730 H 0.8009 0.53575 0.63486 0.0
H731 H 0.95997 0.80784 0.72308 0.0
H732 H 0.82209 0.76398 0.73455 0.0
N733 N 0.8951 0.71751 0.71224 0.0
C734 C 0.95177 0.75707 0.71512 0.0
C735 C 0.94365 0.72953 0.71192 0.0
C736 C 0.93118 0.76455 0.71772 0.0
C737 C 0.90267 0.74398 0.71632 0.0
C738 C 0.91507 0.70986 0.71079 0.0
N739 N 0.85471 0.72956 0.71941 0.0
C740 C 0.88177 0.75022 0.72002 0.0
C741 C 0.83908 0.76042 0.73042 0.0
C742 C 0.86678 0.78218 0.73024 0.0
C743 C 0.83341 0.73401 0.72518 0.0
C744 C 0.88859 0.77717 0.72529 0.0
H745 H 0.87113 0.80261 0.73436 0.0
O746 O 0.82472 0.67547 0.73814 0.0
O747 O 0.81305 0.65165 0.69195 0.0
O748 O 0.80953 0.68306 0.66516 0.0
O749 O 0.83992 0.71427 0.68905 0.0
O750 O 0.80008 0.6702 0.71272 0.0
O751 O 0.86116 0.6708 0.73402 0.0
O752 O 0.84677 0.66355 0.63164 0.0
O753 O 0.85678 0.68625 0.67726 0.0
O754 O 0.86045 0.6545 0.70374 0.0
O755 O 0.82929 0.62306 0.68037 0.0
O756 O 0.8705 0.6684 0.65662 0.0
O757 O 0.8083 0.66504 0.63446 0.0
C758 C 0.79163 0.65072 0.69969 0.0
C759 C 0.91692 0.798 0.72593 0.0
C760 C 0.93819 0.79171 0.72213 0.0
C761 C 0.84217 0.66918 0.74657 0.0
C762 C 0.852 0.68028 0.76687 0.0
C763 C 0.87201 0.70807 0.76952 0.0
C764 C 0.84128 0.66296 0.78377 0.0
C765 C 0.85062 0.67331 0.8033 0.0
C766 C 0.88126 0.71851 0.78874 0.0
C767 C 0.8707 0.70136 0.8055 0.0
C768 C 0.82156 0.70739 0.67418 0.0
C769 C 0.87856 0.68804 0.66949 0.0
C770 C 0.82858 0.66824 0.62254 0.0
C771 C 0.82068 0.65712 0.60206 0.0
C772 C 0.80271 0.62893 0.59896 0.0
C773 C 0.83195 0.67478 0.58539 0.0
C774 C 0.8255 0.66431 0.56564 0.0
C775 C 0.79614 0.61842 0.5795 0.0
C776 C 0.80745 0.63589 0.56296 0.0
C777 C 0.84802 0.63001 0.69496 0.0
H778 H 0.88048 0.72168 0.75674 0.0
H779 H 0.82599 0.64141 0.78164 0.0
H780 H 0.89663 0.74004 0.79068 0.0
H781 H 0.87801 0.71022 0.82022 0.0
H782 H 0.79385 0.61505 0.61156 0.0
H783 H 0.84607 0.69654 0.58782 0.0
H784 H 0.7822 0.59663 0.57721 0.0
H785 H 0.80169 0.62717 0.54805 0.0
Gd786 Gd 0.31594 0.1596 0.70805 0.0
Gd787 Gd 0.35541 0.17086 0.66052 0.0
C788 C 0.4332 0.16087 0.65871 0.0
C789 C 0.47036 0.2074 0.65142 0.0
C790 C 0.42184 0.19697 0.65411 0.0
C791 C 0.4134 0.16992 0.65835 0.0
C792 C 0.45027 0.21586 0.64989 0.0
C793 C 0.46183 0.17993 0.65586 0.0
C794 C 0.42351 0.1328 0.66116 0.0
C795 C 0.39466 0.11446 0.6623 0.0
N796 N 0.38553 0.15206 0.6607 0.0
C797 C 0.37586 0.12444 0.66175 0.0
H798 H 0.35369 0.10991 0.66276 0.0
C799 C 0.4083 0.2292 0.64458 0.0
N800 N 0.40182 0.2042 0.65237 0.0
C801 C 0.43624 0.2488 0.64038 0.0
C802 C 0.45741 0.24227 0.6434 0.0
H803 H 0.39193 0.23426 0.64222 0.0
H804 H 0.47739 0.17344 0.65635 0.0
H805 H 0.31503 0.219 0.70586 0.0
H806 H 0.43802 0.12502 0.66158 0.0
H807 H 0.38688 0.09263 0.66371 0.0
H808 H 0.49237 0.22169 0.6485 0.0
H809 H 0.28153 0.0946 0.72403 0.0
H810 H 0.22963 0.20071 0.70918 0.0
H811 H 0.28029 0.23454 0.70589 0.0
H812 H 0.17887 0.10384 0.72223 0.0
H813 H 0.44139 0.26888 0.63479 0.0
H814 H 0.47901 0.2574 0.63999 0.0
H815 H 0.19182 0.15174 0.71497 0.0
H816 H 0.23284 0.0588 0.73211 0.0
N817 N 0.28443 0.17657 0.7085 0.0
C818 C 0.24481 0.19373 0.70917 0.0
C819 C 0.27339 0.21289 0.70737 0.0
C820 C 0.23626 0.16589 0.71162 0.0
C821 C 0.25688 0.1579 0.71138 0.0
C822 C 0.29305 0.20395 0.70737 0.0
N823 N 0.27028 0.12457 0.71618 0.0
C824 C 0.24956 0.131 0.71536 0.0
C825 C 0.23723 0.07898 0.72731 0.0
C826 C 0.21541 0.08486 0.72554 0.0
C827 C 0.26476 0.09929 0.72277 0.0
C828 C 0.22148 0.11127 0.71981 0.0
H829 H 0.19411 0.06912 0.72911 0.0
O830 O 0.32303 0.14765 0.73754 0.0
O831 O 0.3529 0.16122 0.69305 0.0
O832 O 0.32105 0.12623 0.66476 0.0
O833 O 0.28775 0.12552 0.68692 0.0
O834 O 0.3313 0.12948 0.7131 0.0
O835 O 0.32803 0.1881 0.73301 0.0
O836 O 0.34847 0.18311 0.63111 0.0
O837 O 0.31901 0.16985 0.67569 0.0
O838 O 0.34996 0.20445 0.70445 0.0
O839 O 0.38244 0.20705 0.68038 0.0
O840 O 0.3398 0.20082 0.65504 0.0
O841 O 0.34276 0.14244 0.63546 0.0
C842 C 0.35283 0.14102 0.70142 0.0
C843 C 0.20062 0.11877 0.71908 0.0
C844 C 0.208 0.14605 0.71495 0.0
C845 C 0.32795 0.17059 0.74593 0.0
C846 C 0.31366 0.1681 0.7651 0.0
C847 C 0.28519 0.16054 0.76566 0.0
C848 C 0.32875 0.17321 0.78311 0.0
C849 C 0.3155 0.17069 0.80174 0.0
C850 C 0.27186 0.15794 0.78401 0.0
C851 C 0.28683 0.16291 0.80194 0.0
C852 C 0.29538 0.11428 0.67255 0.0
C853 C 0.3187 0.18977 0.66716 0.0
C854 C 0.34338 0.16023 0.6226 0.0
C855 C 0.35814 0.16295 0.60363 0.0
C856 C 0.38631 0.16938 0.60346 0.0
C857 C 0.34394 0.15956 0.58542 0.0
C858 C 0.35776 0.16262 0.56699 0.0
C859 C 0.40021 0.17257 0.58527 0.0
C860 C 0.3861 0.16927 0.56713 0.0
C861 C 0.37474 0.21746 0.69532 0.0
H862 H 0.27328 0.15665 0.75196 0.0
H863 H 0.35087 0.17945 0.78254 0.0
H864 H 0.24982 0.15195 0.78435 0.0
H865 H 0.2758 0.16028 0.81597 0.0
H866 H 0.39752 0.1719 0.61733 0.0
H867 H 0.32223 0.15483 0.58563 0.0
H868 H 0.42195 0.17751 0.58523 0.0
H869 H 0.39722 0.17142 0.55322 0.0
Gd870 Gd 0.82704 0.18067 0.65606 0.0
Gd871 Gd 0.85427 0.17114 0.70456 0.0
C872 C 0.94136 0.18005 0.70929 0.0
C873 C 0.93009 0.13315 0.71633 0.0
C874 C 0.89274 0.14408 0.71227 0.0
C875 C 0.91241 0.17131 0.70875 0.0
C876 C 0.90134 0.12481 0.71661 0.0
C877 C 0.95007 0.16072 0.71264 0.0
C878 C 0.96068 0.20807 0.70698 0.0
C879 C 0.95096 0.22665 0.7049 0.0
N880 N 0.90327 0.18947 0.70574 0.0
C881 C 0.92203 0.217 0.70458 0.0
H882 H 0.91488 0.23162 0.70285 0.0
C883 C 0.84523 0.11108 0.7187 0.0
N884 N 0.86518 0.13679 0.71263 0.0
C885 C 0.8527 0.09117 0.72302 0.0
C886 C 0.88084 0.09796 0.72171 0.0
H887 H 0.82344 0.10577 0.71961 0.0
H888 H 0.9722 0.167 0.71291 0.0
H889 H 0.76525 0.12154 0.66028 0.0
H890 H 0.9831 0.21561 0.70723 0.0
H891 H 0.96573 0.24842 0.70346 0.0
H892 H 0.93712 0.11859 0.71942 0.0
H893 H 0.85772 0.24278 0.63513 0.0
H894 H 0.69864 0.13982 0.65594 0.0
H895 H 0.71478 0.10621 0.66081 0.0
H896 H 0.74643 0.23518 0.63789 0.0
H897 H 0.83676 0.07063 0.72733 0.0
H898 H 0.88659 0.08254 0.72514 0.0
H899 H 0.71071 0.18823 0.64776 0.0
H900 H 0.84552 0.27787 0.62489 0.0
N901 N 0.77807 0.16378 0.65583 0.0
C902 C 0.72092 0.14673 0.65573 0.0
C903 C 0.72995 0.1277 0.65841 0.0
C904 C 0.74073 0.17426 0.65202 0.0
C905 C 0.76949 0.18217 0.65201 0.0
C906 C 0.75871 0.13654 0.65808 0.0
N907 N 0.81654 0.21448 0.64538 0.0
C908 C 0.78944 0.20847 0.64659 0.0
C909 C 0.82955 0.2585 0.63111 0.0
C910 C 0.80202 0.25326 0.63345 0.0
C911 C 0.83638 0.23858 0.63689 0.0
C912 C 0.78141 0.22776 0.64088 0.0
H913 H 0.79673 0.26865 0.62886 0.0
O914 O 0.84721 0.18958 0.62678 0.0
O915 O 0.86247 0.18059 0.67211 0.0
O916 O 0.86502 0.21551 0.70014 0.0
O917 O 0.83655 0.2178 0.67471 0.0
O918 O 0.87313 0.21083 0.65085 0.0
O919 O 0.80985 0.15042 0.63212 0.0
O920 O 0.83363 0.1585 0.73354 0.0
O921 O 0.81934 0.17244 0.68878 0.0
O922 O 0.81448 0.13608 0.66236 0.0
O923 O 0.84881 0.13744 0.68363 0.0
O924 O 0.80799 0.14119 0.70934 0.0
O925 O 0.87054 0.19876 0.73015 0.0
C926 C 0.88306 0.20056 0.66355 0.0
C927 C 0.75299 0.22055 0.64198 0.0
C928 C 0.73267 0.19382 0.64758 0.0
C929 C 0.8282 0.16653 0.61891 0.0
C930 C 0.81715 0.16864 0.59928 0.0
C931 C 0.79536 0.17475 0.598 0.0
C932 C 0.82904 0.16524 0.58159 0.0
C933 C 0.81946 0.16824 0.56264 0.0
C934 C 0.78568 0.17764 0.5793 0.0
C935 C 0.79766 0.17451 0.56173 0.0
C936 C 0.85404 0.22838 0.69012 0.0
C937 C 0.79852 0.15271 0.69733 0.0
C938 C 0.85188 0.18101 0.74254 0.0
C939 C 0.86221 0.17743 0.76205 0.0
C940 C 0.88172 0.16831 0.76308 0.0
C941 C 0.85179 0.18244 0.77989 0.0
C942 C 0.86067 0.17821 0.79879 0.0
C943 C 0.89052 0.16392 0.78166 0.0
C944 C 0.88004 0.16869 0.79937 0.0
C945 C 0.82867 0.12491 0.67016 0.0
H946 H 0.78587 0.17733 0.61142 0.0
H947 H 0.8461 0.1608 0.58259 0.0
H948 H 0.76885 0.18237 0.57842 0.0
H949 H 0.78965 0.1767 0.5474 0.0
H950 H 0.89004 0.16446 0.74957 0.0
H951 H 0.83703 0.1899 0.77897 0.0
H952 H 0.90543 0.15665 0.78234 0.0
H953 H 0.88694 0.1646 0.81353 0.0
H954 H 0.29406 0.88771 0.07673 0.0
H955 H 0.44617 0.93415 0.03111 0.0
H956 H 0.31925 0.82999 0.05703 0.0
H957 H 0.41464 0.98969 0.04138 0.0
H958 H 0.39985 0.89545 0.03992 0.0
H959 H 0.33862 0.92538 0.06426 0.0
C960 C 0.30905 0.88299 0.0699 0.0
C961 C 0.30293 0.85567 0.06796 0.0
C962 C 0.40295 0.91606 0.04 0.0
C963 C 0.35393 0.89867 0.05344 0.0
C964 C 0.4293 0.9381 0.03477 0.0
C965 C 0.43396 0.96503 0.03514 0.0
C966 C 0.38142 0.92115 0.04609 0.0
C967 C 0.41171 0.96914 0.0407 0.0
C968 C 0.33439 0.90447 0.0626 0.0
C969 C 0.323 0.85074 0.05869 0.0
N970 N 0.38647 0.94749 0.04604 0.0
N971 N 0.34762 0.87201 0.05185 0.0
H972 H 0.12956 0.41182 0.07541 0.0
H973 H 0.07769 0.51467 0.0373 0.0
H974 H 0.18618 0.49771 0.06319 0.0
H975 H 0.02263 0.42757 0.04495 0.0
H976 H 0.11784 0.50902 0.0461 0.0
H977 H 0.09032 0.41727 0.06402 0.0
C978 C 0.13376 0.43188 0.07041 0.0
C979 C 0.16128 0.45436 0.0704 0.0
C980 C 0.09703 0.49108 0.04568 0.0
C981 C 0.11627 0.46075 0.05712 0.0
C982 C 0.07412 0.49428 0.04048 0.0
C983 C 0.04691 0.47141 0.03981 0.0
C984 C 0.09262 0.46487 0.05066 0.0
C985 C 0.04337 0.44564 0.04493 0.0
C986 C 0.11132 0.43494 0.06377 0.0
C987 C 0.1654 0.47974 0.06336 0.0
N988 N 0.06592 0.44305 0.05009 0.0
N989 N 0.14316 0.48226 0.05711 0.0
H990 H 0.53656 0.71769 0.05156 0.0
H991 H 0.56646 0.59201 0.05353 0.0
H992 H 0.60388 0.71803 0.08526 0.0
H993 H 0.49822 0.5908 0.02037 0.0
H994 H 0.57993 0.63787 0.06566 0.0
H995 H 0.52181 0.67102 0.04026 0.0
C996 C 0.54827 0.70795 0.05656 0.0
C997 C 0.57155 0.72182 0.06934 0.0
C998 C 0.56203 0.62761 0.0557 0.0
C999 C 0.55466 0.66831 0.05656 0.0
C1000 C 0.55429 0.60136 0.04874 0.0
C1001 C 0.5313 0.58755 0.03571 0.0
C1002 C 0.54668 0.64023 0.04965 0.0
C1003 C 0.51634 0.60078 0.03014 0.0
C1004 C 0.53976 0.68126 0.05017 0.0
C1005 C 0.58565 0.70803 0.0756 0.0
N1006 N 0.52432 0.62639 0.03711 0.0
N1007 N 0.57704 0.68209 0.06908 0.0
H1008 H 0.82145 0.2867 0.98893 0.0
H1009 H 0.97245 0.41891 0.97638 0.0
H1010 H 0.86455 0.30892 0.93183 0.0
H1011 H 0.91078 0.41609 0.01801 0.0
H1012 H 0.93683 0.37456 0.96279 0.0
H1013 H 0.85794 0.3302 1.00283 0.0
C1014 C 0.83843 0.30066 0.97923 0.0
C1015 C 0.83957 0.29399 0.95903 0.0
C1016 C 0.93126 0.38367 0.97499 0.0
C1017 C 0.88197 0.34359 0.9752 0.0
C1018 C 0.95156 0.40896 0.98283 0.0
C1019 C 0.9448 0.42124 0.99862 0.0
C1020 C 0.90411 0.37031 0.9832 0.0
C1021 C 0.91724 0.40728 0.00619 0.0
C1022 C 0.85934 0.32544 0.98727 0.0
C1023 C 0.86277 0.31277 0.94752 0.0
N1024 N 0.89798 0.38251 0.99851 0.0
N1025 N 0.88306 0.33666 0.95577 0.0
H1026 H 0.69356 0.50771 0.97613 0.0
H1027 H 0.601 0.58061 0.99146 0.0
H1028 H 0.71945 0.5902 0.95647 0.0
H1029 H 0.56783 0.49371 0.99987 0.0
H1030 H 0.64646 0.58554 0.98224 0.0
H1031 H 0.64933 0.50321 0.9883 0.0
C1032 C 0.69001 0.52493 0.97442 0.0
C1033 C 0.71033 0.54938 0.96518 0.0
C1034 C 0.62936 0.56541 0.98629 0.0
C1035 C 0.65957 0.5443 0.9791 0.0
C1036 C 0.60347 0.56262 0.99165 0.0
C1037 C 0.58082 0.53684 0.99685 0.0
C1038 C 0.63266 0.54215 0.98589 0.0
C1039 C 0.58494 0.51409 0.99647 0.0
C1040 C 0.66467 0.52228 0.9813 0.0
C1041 C 0.70433 0.57085 0.96322 0.0
N1042 N 0.61037 0.51727 0.99111 0.0
N1043 N 0.67961 0.56783 0.97015 0.0
H1044 H 0.45218 0.15085 0.93729 0.0
H1045 H 0.48206 0.08013 0.03025 0.0
H1046 H 0.42144 0.15028 0.99707 0.0
H1047 H 0.48077 0.05357 0.96938 0.0
H1048 H 0.46582 0.11101 0.01833 0.0
H1049 H 0.46743 0.11887 0.9486 0.0
C1050 C 0.44834 0.14383 0.95271 0.0
C1051 C 0.43568 0.15355 0.96626 0.0
C1052 C 0.46915 0.09844 0.00759 0.0
C1053 C 0.45379 0.11755 0.97938 0.0
C1054 C 0.47873 0.08104 0.01438 0.0
C1055 C 0.48292 0.06438 1.00082 0.0
C1056 C 0.46409 0.09942 0.98702 0.0
C1057 C 0.47765 0.06598 0.98037 0.0
C1058 C 0.45724 0.12573 0.95918 0.0
C1059 C 0.43169 0.14396 0.98617 0.0
N1060 N 0.46864 0.0833 0.97406 0.0
N1061 N 0.44093 0.12672 0.99215 0.0
H1062 H 0.67074 0.19281 0.97356 0.0
H1063 H 0.59839 0.03004 0.99033 0.0
H1064 H 0.71143 0.1465 0.95858 0.0
H1065 H 0.55859 0.07751 1.00443 0.0
H1066 H 0.64091 0.07242 0.98027 0.0
H1067 H 0.63018 0.1508 0.9862 0.0
C1068 C 0.67094 0.17362 0.97286 0.0
C1069 C 0.6941 0.17282 0.96493 0.0
C1070 C 0.62299 0.07362 0.98575 0.0
C1071 C 0.64802 0.12473 0.97944 0.0
C1072 C 0.59879 0.04948 0.99154 0.0
C1073 C 0.57516 0.05037 0.9985 0.0
C1074 C 0.62338 0.09881 0.98665 0.0
C1075 C 0.57652 0.07596 0.99951 0.0
C1076 C 0.64788 0.14968 0.98013 0.0
C1077 C 0.69371 0.14771 0.96448 0.0
N1078 N 0.60019 0.09913 0.99363 0.0
N1079 N 0.67093 0.12455 0.97163 0.0
H1080 H 0.81952 0.49119 0.97852 0.0
H1081 H 0.98739 0.57005 0.99129 0.0
H1082 H 0.87167 0.57897 0.97302 0.0
H1083 H 0.9339 0.48299 1.00043 0.0
H1084 H 0.9458 0.57372 0.98307 0.0
H1085 H 0.86158 0.48757 0.98476 0.0
C1086 C 0.83999 0.50966 0.9783 0.0
C1087 C 0.84235 0.53536 0.97503 0.0
C1088 C 0.94311 0.55382 0.98697 0.0
C1089 C 0.89052 0.53156 0.98248 0.0
C1090 C 0.96682 0.55175 0.99169 0.0
C1091 C 0.96397 0.52633 0.99708 0.0
C1092 C 0.91634 0.53017 0.98726 0.0
C1093 C 0.93696 0.50312 0.99694 0.0
C1094 C 0.86396 0.50763 0.98199 0.0
C1095 C 0.86914 0.55875 0.97525 0.0
N1096 N 0.91421 0.50561 0.99218 0.0
N1097 N 0.89224 0.55632 0.97896 0.0
H1098 H 0.49083 0.3036 0.98315 0.0
H1099 H 0.44942 0.42161 0.98379 0.0
H1100 H 0.40682 0.28778 0.97177 0.0
H1101 H 0.52682 0.43128 0.00801 0.0
H1102 H 0.43577 0.37459 0.97393 0.0
H1103 H 0.50678 0.35267 0.98651 0.0
C1104 C 0.47591 0.31069 0.98101 0.0
C1105 C 0.44763 0.29203 0.97715 0.0
C1106 C 0.45577 0.38708 0.98134 0.0
C1107 C 0.46538 0.34769 0.98127 0.0
C1108 C 0.46361 0.41393 0.98695 0.0
C1109 C 0.48914 0.43029 0.99698 0.0
C1110 C 0.47373 0.37665 0.98562 0.0
C1111 C 0.50674 0.41928 1.00059 0.0
C1112 C 0.48492 0.33857 0.98305 0.0
C1113 C 0.42887 0.30183 0.97467 0.0
N1114 N 0.49866 0.39314 0.99497 0.0
N1115 N 0.43806 0.32911 0.9769 0.0
H1116 H 0.20309 0.69459 0.059 0.0
H1117 H 0.03769 0.58986 0.04848 0.0
H1118 H 0.14186 0.72116 0.06115 0.0
H1119 H 0.10229 0.57201 0.03005 0.0
H1120 H 0.07444 0.63584 0.05909 0.0
H1121 H 0.16506 0.64705 0.05491 0.0
C1122 C 0.18149 0.69021 0.059 0.0
C1123 C 0.17534 0.71147 0.06047 0.0
C1124 C 0.08047 0.62175 0.05279 0.0
C1125 C 0.13187 0.65749 0.05544 0.0
C1126 C 0.05955 0.59553 0.04678 0.0
C1127 C 0.06694 0.57719 0.03817 0.0
C1128 C 0.1089 0.62944 0.05042 0.0
C1129 C 0.09558 0.58559 0.03635 0.0
C1130 C 0.15984 0.66318 0.05652 0.0
C1131 C 0.14722 0.70506 0.06016 0.0
N1132 N 0.11546 0.61105 0.0424 0.0
N1133 N 0.12639 0.67854 0.05756 0.0
H1134 H 0.33249 0.51753 0.0602 0.0
H1135 H 0.41786 0.43799 0.0408 0.0
H1136 H 0.29398 0.42938 0.06228 0.0
H1137 H 0.45352 0.52529 0.03283 0.0
H1138 H 0.37272 0.43432 0.04953 0.0
H1139 H 0.37753 0.52087 0.05162 0.0
C1140 C 0.33373 0.49889 0.05916 0.0
C1141 C 0.30977 0.47318 0.0622 0.0
C1142 C 0.39032 0.45426 0.04571 0.0
C1143 C 0.361 0.4767 0.05203 0.0
C1144 C 0.41604 0.45634 0.04068 0.0
C1145 C 0.43926 0.48188 0.03567 0.0
C1146 C 0.38788 0.47801 0.04614 0.0
C1147 C 0.43599 0.50511 0.03612 0.0
C1148 C 0.35935 0.50078 0.05411 0.0
C1149 C 0.31218 0.4496 0.06031 0.0
N1150 N 0.4108 0.50263 0.04127 0.0
N1151 N 0.33738 0.45191 0.05534 0.0
H1152 H 0.60943 0.88703 0.06809 0.0
H1153 H 0.48968 0.91108 0.02001 0.0
H1154 H 0.53416 0.82306 0.04051 0.0
H1155 H 0.56252 0.9745 0.05071 0.0
H1156 H 0.50458 0.87809 0.02879 0.0
H1157 H 0.59149 0.91902 0.06365 0.0
C1158 C 0.58895 0.87974 0.06136 0.0
C1159 C 0.57307 0.85261 0.05469 0.0
C1160 C 0.51727 0.89921 0.03367 0.0
C1161 C 0.55265 0.88876 0.04926 0.0
C1162 C 0.50886 0.91812 0.02855 0.0
C1163 C 0.52511 0.94574 0.03433 0.0
C1164 C 0.54215 0.90794 0.04468 0.0
C1165 C 0.54942 0.95348 0.04579 0.0
C1166 C 0.57874 0.89792 0.05876 0.0
C1167 C 0.54684 0.84394 0.04589 0.0
N1168 N 0.55729 0.93473 0.05047 0.0
N1169 N 0.53748 0.86202 0.0433 0.0
H1170 H 0.95736 0.22381 0.40727 0.0
H1171 H 0.10941 0.26559 0.36399 0.0
H1172 H 0.9814 0.16425 0.39026 0.0
H1173 H 0.07952 0.32288 0.37175 0.0
H1174 H 0.06254 0.22785 0.37278 0.0
H1175 H 0.00235 0.26043 0.3945 0.0
C1176 C 0.97219 0.21847 0.40095 0.0
C1177 C 0.96565 0.19096 0.39986 0.0
C1178 C 0.06612 0.24863 0.37232 0.0
C1179 C 0.0171 0.2327 0.38504 0.0
C1180 C 0.09278 0.2701 0.36711 0.0
C1181 C 0.09804 0.29723 0.36679 0.0
C1182 C 0.04488 0.25451 0.37767 0.0
C1183 C 0.0761 0.30214 0.37163 0.0
C1184 C 0.99776 0.23934 0.39349 0.0
C1185 C 0.9855 0.18517 0.39124 0.0
N1186 N 0.05053 0.28103 0.37696 0.0
N1187 N 0.01036 0.20586 0.38424 0.0
H1188 H 0.85657 0.83185 0.39244 0.0
H1189 H 0.68938 0.76086 0.37973 0.0
H1190 H 0.79804 0.75036 0.41384 0.0
H1191 H 0.74584 0.84731 0.37011 0.0
H1192 H 0.72958 0.7554 0.38879 0.0
H1193 H 0.81693 0.83664 0.38067 0.0
C1194 C 0.8354 0.81492 0.39461 0.0
C1195 C 0.83068 0.79069 0.40424 0.0
C1196 C 0.73325 0.77554 0.38451 0.0
C1197 C 0.78515 0.7961 0.39084 0.0
C1198 C 0.71034 0.77862 0.37927 0.0
C1199 C 0.71438 0.80442 0.37368 0.0
C1200 C 0.76048 0.79852 0.3844 0.0
C1201 C 0.74187 0.82691 0.37375 0.0
C1202 C 0.81278 0.81773 0.38797 0.0
C1203 C 0.80273 0.76956 0.40677 0.0
N1204 N 0.76389 0.82344 0.37898 0.0
N1205 N 0.78109 0.77274 0.40009 0.0
H1206 H 0.22388 0.03686 0.42704 0.0
H1207 H 0.20572 0.93848 0.33557 0.0
H1208 H 0.26302 0.06727 0.3693 0.0
H1209 H 0.19851 0.91198 0.39706 0.0
H1210 H 0.22072 0.98507 0.34714 0.0
H1211 H 0.20934 0.99012 0.41598 0.0
C1212 C 0.22966 0.03382 0.41212 0.0
C1213 C 0.24466 0.05617 0.39908 0.0
C1214 C 0.21577 0.96904 0.3581 0.0
C1215 C 0.2274 0.00263 0.38622 0.0
C1216 C 0.20684 0.94238 0.35149 0.0
C1217 C 0.20047 0.92135 0.36536 0.0
C1218 C 0.21802 0.97457 0.37877 0.0
C1219 C 0.20324 0.92772 0.38589 0.0
C1220 C 0.22118 0.00711 0.4058 0.0
C1221 C 0.251 0.05076 0.37976 0.0
N1222 N 0.21164 0.95378 0.39201 0.0
N1223 N 0.24218 0.02455 0.37389 0.0
H1224 H 0.47982 0.64086 0.30134 0.0
H1225 H 0.64328 0.74637 0.31838 0.0
H1226 H 0.5448 0.6217 0.28685 0.0
H1227 H 0.57698 0.75631 0.34467 0.0
H1228 H 0.60784 0.70228 0.30443 0.0
H1229 H 0.51554 0.68499 0.31484 0.0
C1230 C 0.50159 0.64586 0.30105 0.0
C1231 C 0.50924 0.62735 0.29307 0.0
C1232 C 0.60109 0.71408 0.31332 0.0
C1233 C 0.55037 0.67818 0.3083 0.0
C1234 C 0.6213 0.73928 0.32128 0.0
C1235 C 0.61312 0.75505 0.3328 0.0
C1236 C 0.57247 0.70468 0.31671 0.0
C1237 C 0.58431 0.74477 0.33604 0.0
C1238 C 0.522 0.67114 0.30871 0.0
C1239 C 0.53791 0.63536 0.29267 0.0
N1240 N 0.56504 0.7203 0.32797 0.0
N1241 N 0.55742 0.66015 0.30021 0.0
H1242 H 0.36267 0.8418 0.30852 0.0
H1243 H 0.26813 0.91268 0.32322 0.0
H1244 H 0.38745 0.92402 0.28881 0.0
H1245 H 0.23662 0.82634 0.3332 0.0
H1246 H 0.31382 0.91823 0.31402 0.0
H1247 H 0.31824 0.83671 0.32076 0.0
C1248 C 0.35883 0.85883 0.3068 0.0
C1249 C 0.37891 0.88339 0.29755 0.0
C1250 C 0.29705 0.89809 0.31841 0.0
C1251 C 0.32791 0.87763 0.31154 0.0
C1252 C 0.27102 0.89496 0.32375 0.0
C1253 C 0.24877 0.86915 0.32937 0.0
C1254 C 0.30088 0.87514 0.3184 0.0
C1255 C 0.25343 0.84673 0.32945 0.0
C1256 C 0.33338 0.85585 0.31373 0.0
C1257 C 0.37253 0.9046 0.29558 0.0
N1258 N 0.27898 0.85024 0.32405 0.0
N1259 N 0.3477 0.90125 0.30254 0.0
H1260 H 0.14639 0.52111 0.31503 0.0
H1261 H 0.11557 0.36613 0.3113 0.0
H1262 H 0.07669 0.45599 0.28293 0.0
H1263 H 0.18258 0.43019 0.34616 0.0
H1264 H 0.1026 0.39928 0.2994 0.0
H1265 H 0.16141 0.48865 0.32517 0.0
C1266 C 0.13422 0.49994 0.31012 0.0
C1267 C 0.11009 0.4912 0.29824 0.0
C1268 C 0.12012 0.4061 0.30967 0.0
C1269 C 0.12734 0.45394 0.30968 0.0
C1270 C 0.12759 0.38716 0.31651 0.0
C1271 C 0.15007 0.39527 0.32997 0.0
C1272 C 0.13525 0.43345 0.31625 0.0
C1273 C 0.16486 0.42288 0.33604 0.0
C1274 C 0.14288 0.48145 0.31586 0.0
C1275 C 0.0955 0.46367 0.29198 0.0
N1276 N 0.15715 0.44097 0.32916 0.0
N1277 N 0.10427 0.44599 0.29786 0.0
H1278 H 0.34302 0.51529 0.30137 0.0
H1279 H 0.26189 0.35422 0.32601 0.0
H1280 H 0.38493 0.46786 0.30455 0.0
H1281 H 0.2256 0.40624 0.33375 0.0
H1282 H 0.30659 0.39469 0.31655 0.0
H1283 H 0.29875 0.47437 0.31068 0.0
C1284 C 0.34265 0.496 0.30365 0.0
C1285 C 0.36728 0.49458 0.30194 0.0
C1286 C 0.28894 0.39729 0.32052 0.0
C1287 C 0.31712 0.44796 0.31304 0.0
C1288 C 0.26352 0.37427 0.32597 0.0
C1289 C 0.24028 0.37704 0.33102 0.0
C1290 C 0.29089 0.42318 0.31968 0.0
C1291 C 0.24319 0.4033 0.3304 0.0
C1292 C 0.31752 0.47275 0.30917 0.0
C1293 C 0.3661 0.46946 0.30545 0.0
N1294 N 0.26801 0.42535 0.32477 0.0
N1295 N 0.34135 0.44703 0.31087 0.0
H1296 H 0.54078 0.91548 0.30648 0.0
H1297 H 0.60197 0.81614 0.33437 0.0
H1298 H 0.48997 0.82745 0.31105 0.0
H1299 H 0.65466 0.90333 0.32533 0.0
H1300 H 0.56075 0.8201 0.32619 0.0
H1301 H 0.58295 0.91184 0.31303 0.0
C1302 C 0.53866 0.89538 0.30853 0.0
C1303 C 0.51213 0.87168 0.308 0.0
C1304 C 0.58128 0.83844 0.32603 0.0
C1305 C 0.55985 0.86731 0.31592 0.0
C1306 C 0.60482 0.8362 0.33093 0.0
C1307 C 0.63167 0.85959 0.33112 0.0
C1308 C 0.58459 0.86424 0.32104 0.0
C1309 C 0.63421 0.8849 0.32571 0.0
C1310 C 0.56263 0.89328 0.31239 0.0
C1311 C 0.51022 0.84615 0.31112 0.0
N1312 N 0.61098 0.88661 0.32103 0.0
N1313 N 0.53373 0.84462 0.31502 0.0
H1314 H 0.15245 0.63065 0.32637 0.0
H1315 H 0.11827 0.7532 0.31752 0.0
H1316 H 0.07265 0.61909 0.30639 0.0
H1317 H 0.19355 0.76169 0.34484 0.0
H1318 H 0.10343 0.70543 0.30955 0.0
H1319 H 0.17011 0.68011 0.32934 0.0
C1320 C 0.13883 0.63874 0.32238 0.0
C1321 C 0.11122 0.62119 0.31613 0.0
C1322 C 0.12321 0.71777 0.31726 0.0
C1323 C 0.1309 0.67731 0.31966 0.0
C1324 C 0.13175 0.74508 0.3218 0.0
C1325 C 0.157 0.76138 0.33217 0.0
C1326 C 0.14013 0.7067 0.32301 0.0
C1327 C 0.17366 0.74976 0.33718 0.0
C1328 C 0.14881 0.66686 0.32414 0.0
C1329 C 0.09415 0.63226 0.31123 0.0
N1330 N 0.16487 0.7231 0.33263 0.0
N1331 N 0.10424 0.65974 0.31318 0.0
H1332 H 0.80443 0.0552 0.39763 0.0
H1333 H 0.77036 0.90648 0.36222 0.0
H1334 H 0.86697 0.03068 0.39177 0.0
H1335 H 0.70553 0.92247 0.38335 0.0
H1336 H 0.80579 0.95228 0.37296 0.0
H1337 H 0.76739 0.00694 0.39318 0.0
C1338 C 0.81022 0.03947 0.39586 0.0
C1339 C 0.8385 0.04652 0.39517 0.0
C1340 C 0.78384 0.94577 0.3754 0.0
C1341 C 0.7968 0.99194 0.38957 0.0
C1342 C 0.76355 0.91964 0.36913 0.0
C1343 C 0.7349 0.9107 0.37173 0.0
C1344 C 0.77554 0.96334 0.38417 0.0
C1345 C 0.72739 0.92856 0.38103 0.0
C1346 C 0.78919 0.01206 0.39324 0.0
C1347 C 0.84524 0.02579 0.39252 0.0
N1348 N 0.74761 0.95418 0.38675 0.0
N1349 N 0.82453 -0.00057 0.38961 0.0
H1350 H 0.96128 0.75959 0.39705 0.0
H1351 H 0.12206 0.85861 0.36396 0.0
H1352 H 0.99804 0.84687 0.38852 0.0
H1353 H 0.08664 0.77215 0.37601 0.0
H1354 H 0.07676 0.85477 0.3725 0.0
H1355 H 0.00714 0.76372 0.38973 0.0
C1356 C 0.9792 0.77967 0.39397 0.0
C1357 C 0.97619 0.80299 0.39363 0.0
C1358 C 0.07883 0.8366 0.37323 0.0
C1359 C 0.0284 0.80791 0.38477 0.0
C1360 C 0.10462 0.83876 0.36818 0.0
C1361 C 0.10784 0.81551 0.36885 0.0
C1362 C 0.05618 0.81105 0.37922 0.0
C1363 C 0.08484 0.79047 0.37503 0.0
C1364 C 0.0053 0.78204 0.38965 0.0
C1365 C 0.99975 0.82848 0.38917 0.0
N1366 N 0.05999 0.78886 0.37988 0.0
N1367 N 0.02485 0.83028 0.38484 0.0
H1368 H 0.19687 0.15199 0.37443 0.0
H1369 H 0.22656 0.3063 0.38402 0.0
H1370 H 0.2743 0.21897 0.39713 0.0
H1371 H 0.15385 0.24122 0.3543 0.0
H1372 H 0.24154 0.27346 0.39297 0.0
H1373 H 0.17795 0.18318 0.3711 0.0
C1374 C 0.20966 0.17327 0.37899 0.0
C1375 C 0.237 0.18316 0.38608 0.0
C1376 C 0.22228 0.26635 0.38453 0.0
C1377 C 0.21591 0.21891 0.38211 0.0
C1378 C 0.21365 0.28509 0.37941 0.0
C1379 C 0.18913 0.27663 0.36805 0.0
C1380 C 0.20621 0.23888 0.37835 0.0
C1381 C 0.17319 0.2488 0.36271 0.0
C1382 C 0.19897 0.19106 0.37701 0.0
C1383 C 0.25302 0.21076 0.39166 0.0
N1384 N 0.18209 0.23096 0.3678 0.0
N1385 N 0.24226 0.22781 0.38946 0.0
H1386 H 0.623 0.54432 0.74144 0.0
H1387 H 0.77761 0.59639 0.69782 0.0
H1388 H 0.65794 0.49117 0.7328 0.0
H1389 H 0.74279 0.6492 0.7081 0.0
H1390 H 0.73235 0.55662 0.70723 0.0
H1391 H 0.66552 0.58228 0.72687 0.0
C1392 C 0.63966 0.54065 0.73658 0.0
C1393 C 0.63688 0.5145 0.73847 0.0
C1394 C 0.73449 0.57686 0.70719 0.0
C1395 C 0.68563 0.55788 0.72147 0.0
C1396 C 0.76023 0.5995 0.70163 0.0
C1397 C 0.76372 0.626 0.70195 0.0
C1398 C 0.7123 0.58088 0.71341 0.0
C1399 C 0.7408 0.62902 0.70754 0.0
C1400 C 0.66388 0.56229 0.72809 0.0
C1401 C 0.65901 0.51089 0.73151 0.0
N1402 N 0.71613 0.60679 0.71313 0.0
N1403 N 0.68246 0.53233 0.7234 0.0
H1404 H 0.52015 0.1694 0.7294 0.0
H1405 H 0.3535 0.09465 0.7114 0.0
H1406 H 0.46274 0.08402 0.74275 0.0
H1407 H 0.40863 0.18143 0.70215 0.0
H1408 H 0.39403 0.0901 0.72091 0.0
H1409 H 0.48051 0.1739 0.71721 0.0
C1410 C 0.49927 0.15155 0.72969 0.0
C1411 C 0.49486 0.1263 0.73725 0.0
C1412 C 0.3974 0.11015 0.71667 0.0
C1413 C 0.44927 0.13143 0.72343 0.0
C1414 C 0.37426 0.11271 0.7112 0.0
C1415 C 0.37783 0.13831 0.70556 0.0
C1416 C 0.4244 0.13347 0.71683 0.0
C1417 C 0.40508 0.16119 0.70592 0.0
C1418 C 0.47661 0.1542 0.72281 0.0
C1419 C 0.4672 0.10401 0.73741 0.0
N1420 N 0.42735 0.15823 0.71143 0.0
N1421 N 0.44556 0.10711 0.73064 0.0
H1422 H 0.88796 0.37064 0.76101 0.0
H1423 H 0.86375 0.27296 0.66745 0.0
H1424 H 0.92231 0.40181 0.7022 0.0
H1425 H 0.86254 0.24719 0.72854 0.0
H1426 H 0.87749 0.31915 0.67943 0.0
H1427 H 0.87125 0.32397 0.74883 0.0
C1428 C 0.8921 0.36778 0.74557 0.0
C1429 C 0.90676 0.39038 0.73268 0.0
C1430 C 0.87409 0.30333 0.6902 0.0
C1431 C 0.88702 0.33687 0.71857 0.0
C1432 C 0.86596 0.27691 0.68337 0.0
C1433 C 0.8618 0.25622 0.697 0.0
C1434 C 0.87771 0.30894 0.71085 0.0
C1435 C 0.8657 0.26265 0.71752 0.0
C1436 C 0.88241 0.34109 0.73863 0.0
C1437 C 0.91079 0.38515 0.71267 0.0
N1438 N 0.87331 0.28844 0.72385 0.0
N1439 N 0.90094 0.35896 0.70623 0.0
H1440 H 0.15225 0.95124 0.65581 0.0
H1441 H 0.30205 0.08451 0.64252 0.0
H1442 H 0.19512 0.97324 0.59862 0.0
H1443 H 0.24013 0.08183 0.68384 0.0
H1444 H 0.2667 0.03992 0.62918 0.0
H1445 H 0.18804 0.99539 0.66932 0.0
C1446 C 0.16902 0.96528 0.646 0.0
C1447 C 0.17032 0.95832 0.6259 0.0
C1448 C 0.26099 0.04911 0.64125 0.0
C1449 C 0.21194 0.00869 0.64164 0.0
C1450 C 0.28115 0.07455 0.64895 0.0
C1451 C 0.27426 0.08693 0.6646 0.0
C1452 C 0.23385 0.03568 0.64945 0.0
C1453 C 0.24668 0.07293 0.67214 0.0
C1454 C 0.18953 0.99044 0.65382 0.0
C1455 C 0.19325 0.97728 0.61425 0.0
N1456 N 0.22756 0.04799 0.6646 0.0
N1457 N 0.21317 0.00151 0.62231 0.0
H1458 H 0.02477 0.17572 0.63995 0.0
H1459 H 0.93067 0.24732 0.6537 0.0
H1460 H 0.05018 0.25798 0.61996 0.0
H1461 H 0.89918 0.16119 0.66464 0.0
H1462 H 0.97625 0.25259 0.64441 0.0
H1463 H 0.9804 0.17098 0.65195 0.0
C1464 C 0.0211 0.19284 0.63812 0.0
C1465 C 0.04136 0.21731 0.62886 0.0
C1466 C 0.95951 0.23257 0.64902 0.0
C1467 C 0.99036 0.21191 0.64258 0.0
C1468 C 0.93354 0.22959 0.65441 0.0
C1469 C 0.91133 0.20393 0.66037 0.0
C1470 C 0.96332 0.20961 0.64932 0.0
C1471 C 0.91596 0.18149 0.66065 0.0
C1472 C 0.99566 0.19005 0.64492 0.0
C1473 C 0.03514 0.23862 0.62674 0.0
N1474 N 0.94144 0.18485 0.65523 0.0
N1475 N 0.01031 0.23545 0.63357 0.0
H1476 H 0.73998 0.78873 0.61831 0.0
H1477 H 0.84648 0.76209 0.68384 0.0
H1478 H 0.81169 0.85252 0.64969 0.0
H1479 H 0.77912 0.69927 0.64847 0.0
H1480 H 0.83343 0.79531 0.67193 0.0
H1481 H 0.75385 0.75552 0.62912 0.0
C1482 C 0.75876 0.79581 0.62732 0.0
C1483 C 0.77459 0.82343 0.6332 0.0
C1484 C 0.82148 0.77425 0.66678 0.0
C1485 C 0.79038 0.7855 0.64586 0.0
C1486 C 0.82883 0.7552 0.67369 0.0
C1487 C 0.81375 0.72775 0.66729 0.0
C1488 C 0.79888 0.76583 0.65338 0.0
C1489 C 0.79135 0.72018 0.65385 0.0
C1490 C 0.76658 0.77681 0.6336 0.0
C1491 C 0.79856 0.83135 0.6451 0.0
N1492 N 0.78457 0.73909 0.64737 0.0
N1493 N 0.80565 0.81248 0.65108 0.0
H1494 H 0.04469 0.80881 0.62711 0.0
H1495 H 0.8885 0.74093 0.6722 0.0
H1496 H 1.00177 0.85366 0.63994 0.0
H1497 H 0.92886 0.69394 0.65823 0.0
H1498 H 0.93135 0.78288 0.66281 0.0
H1499 H 0.00371 0.76666 0.63994 0.0
C1500 C 0.02653 0.80964 0.63254 0.0
C1501 C 0.02622 0.83441 0.63237 0.0
C1502 C 0.93102 0.76346 0.66195 0.0
C1503 C 0.97975 0.78684 0.64721 0.0
C1504 C 0.90658 0.73949 0.66754 0.0
C1505 C 0.90531 0.71397 0.66636 0.0
C1506 C 0.95426 0.76191 0.65475 0.0
C1507 C 0.92915 0.7133 0.65955 0.0
C1508 C 0.00325 0.78572 0.63993 0.0
C1509 C 0.00253 0.83475 0.63972 0.0
N1510 N 0.95264 0.7369 0.65394 0.0
N1511 N 0.98023 0.81134 0.64682 0.0
H1512 H 0.14967 0.15853 0.64337 0.0
H1513 H 0.31724 0.23606 0.65774 0.0
H1514 H 0.20268 0.24623 0.63809 0.0
H1515 H 0.26315 0.14905 0.66664 0.0
H1516 H 0.27598 0.24015 0.64935 0.0
H1517 H 0.19129 0.15441 0.65036 0.0
C1518 C 0.17024 0.17687 0.64335 0.0
C1519 C 0.17297 0.2027 0.63991 0.0
C1520 C 0.27306 0.22017 0.65326 0.0
C1521 C 0.22063 0.19832 0.64824 0.0
C1522 C 0.29659 0.21786 0.65809 0.0
C1523 C 0.29351 0.19232 0.66342 0.0
C1524 C 0.2462 0.19665 0.65337 0.0
C1525 C 0.2664 0.16925 0.6632 0.0
C1526 C 0.19395 0.17456 0.64748 0.0
C1527 C 0.19987 0.22592 0.64042 0.0
N1528 N 0.24381 0.17198 0.65831 0.0
N1529 N 0.2227 0.2232 0.64454 0.0
H1530 H 0.82237 0.969 0.65629 0.0
H1531 H 0.78103 0.08696 0.65058 0.0
H1532 H 0.73969 0.95336 0.64017 0.0
H1533 H 0.85852 0.09841 0.67601 0.0
H1534 H 0.76759 0.03949 0.64243 0.0
H1535 H 0.83813 0.01809 0.65911 0.0
C1536 C 0.8077 0.97612 0.65308 0.0
C1537 C 0.77984 0.95751 0.64797 0.0
C1538 C 0.78755 0.05244 0.64976 0.0
C1539 C 0.79737 0.01322 0.6514 0.0
C1540 C 0.79528 0.07956 0.65439 0.0
C1541 C 0.82078 0.09659 0.66426 0.0
C1542 C 0.80555 0.04235 0.65488 0.0
C1543 C 0.83844 0.0859 0.66873 0.0
C1544 C 0.8166 0.00403 0.65477 0.0
C1545 C 0.76141 0.96736 0.64408 0.0
N1546 N 0.83045 0.05946 0.66406 0.0
N1547 N 0.77048 0.99466 0.64596 0.0
H1548 H 0.50717 0.3866 0.70244 0.0
H1549 H 0.38778 0.23483 0.7341 0.0
H1550 H 0.50394 0.35276 0.76104 0.0
H1551 H 0.40767 0.26325 0.67305 0.0
H1552 H 0.4244 0.28036 0.74575 0.0
H1553 H 0.46452 0.34406 0.69303 0.0
C1554 C 0.49704 0.3703 0.71343 0.0
C1555 C 0.50873 0.37296 0.7325 0.0
C1556 C 0.42068 0.27659 0.7298 0.0
C1557 C 0.46043 0.32422 0.72186 0.0
C1558 C 0.39978 0.25072 0.72317 0.0
C1559 C 0.39523 0.24518 0.70256 0.0
C1560 C 0.43673 0.2971 0.71568 0.0
C1561 C 0.4112 0.26638 0.689 0.0
C1562 C 0.47288 0.346 0.70804 0.0
C1563 C 0.49525 0.35133 0.74621 0.0
N1564 N 0.43124 0.29138 0.69578 0.0
N1565 N 0.47178 0.32768 0.74059 0.0
H1566 H 0.62588 0.09896 0.7321 0.0
H1567 H 0.78599 0.19438 0.69616 0.0
H1568 H 0.66558 0.18675 0.72508 0.0
H1569 H 0.74978 0.10813 0.70937 0.0
H1570 H 0.74149 0.19162 0.70553 0.0
H1571 H 0.67067 0.10142 0.72337 0.0
C1572 C 0.6442 0.11877 0.72903 0.0
C1573 C 0.64235 0.14274 0.72955 0.0
C1574 C 0.74319 0.17324 0.70634 0.0
C1575 C 0.69329 0.14576 0.71911 0.0
C1576 C 0.76854 0.17479 0.70081 0.0
C1577 C 0.77134 0.15131 0.70159 0.0
C1578 C 0.72051 0.14807 0.7129 0.0
C1579 C 0.74831 0.12662 0.70831 0.0
C1580 C 0.66968 0.12019 0.72392 0.0
C1581 C 0.66639 0.16786 0.72507 0.0
N1582 N 0.72386 0.12561 0.71362 0.0
N1583 N 0.69083 0.16873 0.71998 0.0
H1584 H 0.94192 0.55453 0.73903 0.0
H1585 H 0.82345 0.57538 0.68509 0.0
H1586 H 0.87214 0.49078 0.70636 0.0
H1587 H 0.89184 0.63868 0.71943 0.0
H1588 H 0.83935 0.5433 0.69438 0.0
H1589 H 0.9221 0.58486 0.73411 0.0
C1590 C 0.92218 0.54689 0.7311 0.0
C1591 C 0.90843 0.52032 0.72313 0.0
C1592 C 0.85083 0.56419 0.69994 0.0
C1593 C 0.88594 0.55467 0.71711 0.0
C1594 C 0.84185 0.5826 0.69453 0.0
C1595 C 0.85658 0.60994 0.7012 0.0
C1596 C 0.87472 0.57315 0.71214 0.0
C1597 C 0.87992 0.61789 0.71378 0.0
C1598 C 0.91092 0.56414 0.7282 0.0
C1599 C 0.88315 0.51122 0.71278 0.0
N1600 N 0.88836 0.59964 0.71874 0.0
N1601 N 0.87276 0.52844 0.70994 0.0
H1602 H 0.49954 0.94057 0.25626 0.0
H1603 H 0.46657 0.96837 0.14398 0.0
H1604 H 0.41681 0.89811 0.22975 0.0
H1605 H 0.54961 0.00818 0.17004 0.0
H1606 H 0.44817 0.94111 0.17466 0.0
H1607 H 0.51842 0.96417 0.22436 0.0
C1608 C 0.48534 0.93598 0.24372 0.0
C1609 C 0.45644 0.91733 0.24586 0.0
C1610 C 0.47044 0.95576 0.17364 0.0
C1611 C 0.478 0.94471 0.20915 0.0
C1612 C 0.48101 0.97124 0.15603 0.0
C1613 C 0.50971 0.99085 0.15437 0.0
C1614 C 0.48864 0.95982 0.18978 0.0
C1615 C 0.52726 0.99375 0.17069 0.0
C1616 C 0.49614 0.94963 0.22549 0.0
C1617 C 0.43912 0.91263 0.22902 0.0
N1618 N 0.51646 0.97855 0.18766 0.0
N1619 N 0.45012 0.92624 0.21147 0.0
H1620 H 0.03595 0.53722 0.26031 0.0
H1621 H 0.02718 0.49478 0.14523 0.0
H1622 H 0.09694 0.52082 0.23217 0.0
H1623 H 0.98075 0.53132 0.17002 0.0
H1624 H 0.052 0.5027 0.17711 0.0
H1625 H 0.01458 0.53386 0.2276 0.0
C1626 C 0.04513 0.53325 0.24726 0.0
C1627 C 0.06836 0.52928 0.24913 0.0
C1628 C 0.03646 0.50909 0.17553 0.0
C1629 C 0.04341 0.52474 0.21153 0.0
C1630 C 0.02234 0.50471 0.15727 0.0
C1631 C 1.00169 0.51231 0.15485 0.0
C1632 C 0.02978 0.52096 0.19162 0.0
C1633 C 0.99607 0.52462 0.17122 0.0
C1634 C 0.03274 0.53114 0.22856 0.0
C1635 C 0.0788 0.52357 0.23161 0.0
N1636 N 0.00991 0.52842 0.1889 0.0
N1637 N 0.06617 0.52132 0.21359 0.0
H1638 H 0.43652 0.53493 0.23006 0.0
H1639 H 0.55977 0.53092 0.16826 0.0
H1640 H 0.51939 0.56092 0.25332 0.0
H1641 H 0.47649 0.50046 0.14401 0.0
H1642 H 0.54427 0.54083 0.19976 0.0
H1643 H 0.44933 0.5203 0.19892 0.0
C1644 C 0.45725 0.53723 0.22872 0.0
C1645 C 0.47701 0.54944 0.24423 0.0
C1646 C 0.52928 0.53191 0.18761 0.0
C1647 C 0.4919 0.53308 0.20866 0.0
C1648 C 0.53811 0.5261 0.16958 0.0
C1649 C 0.51941 0.51464 0.15339 0.0
C1650 C 0.50147 0.5264 0.18964 0.0
C1651 C 0.49176 0.50951 0.15597 0.0
C1652 C 0.46462 0.52907 0.21091 0.0
C1653 C 0.50363 0.55207 0.24163 0.0
N1654 N 0.48362 0.51541 0.17374 0.0
N1655 N 0.5103 0.54414 0.22421 0.0
H1656 H 0.97747 0.43825 0.7818 0.0
H1657 H 0.99691 0.51208 0.88814 0.0
H1658 H 0.93808 0.48614 0.79611 0.0
H1659 H 0.03944 0.46823 0.87056 0.0
H1660 H 0.97431 0.50246 0.85508 0.0
H1661 H 0.99975 0.44896 0.81465 0.0
C1662 C 0.97338 0.45093 0.79194 0.0
C1663 C 0.9556 0.46105 0.78628 0.0
C1664 C 0.98864 0.49502 0.85847 0.0
C1665 C 0.98142 0.47371 0.82404 0.0
C1666 C 1.00141 0.50035 0.87737 0.0
C1667 C 0.02019 0.49103 0.88212 0.0
C1668 C 0.99458 0.48013 0.84427 0.0
C1669 C 0.02546 0.47618 0.86749 0.0
C1670 C 0.98626 0.45718 0.81069 0.0
C1671 C 0.95165 0.47794 0.79987 0.0
N1672 N 0.01272 0.47119 0.8493 0.0
N1673 N 0.96435 0.48365 0.8182 0.0
H1674 H 0.60101 0.50166 0.80616 0.0
H1675 H 0.46125 0.47276 0.86464 0.0
H1676 H 0.5176 0.45252 0.78175 0.0
H1677 H 0.54465 0.51871 0.88971 0.0
H1678 H 0.48132 0.46532 0.83413 0.0
H1679 H 0.58063 0.50834 0.83671 0.0
C1680 C 0.57839 0.49241 0.80715 0.0
C1681 C 0.56103 0.47664 0.79123 0.0
C1682 C 0.49524 0.47698 0.84632 0.0
C1683 C 0.53744 0.48397 0.82645 0.0
C1684 C 0.4838 0.48138 0.86372 0.0
C1685 C 0.50126 0.49646 0.87981 0.0
C1686 C 0.52442 0.48781 0.84488 0.0
C1687 C 0.5303 0.50672 0.87783 0.0
C1688 C 0.56674 0.49608 0.82469 0.0
C1689 C 0.53181 0.46468 0.79364 0.0
N1690 N 0.54094 0.50228 0.86069 0.0
N1691 N 0.52096 0.46866 0.81086 0.0
H1692 H 0.4916 0.05409 0.77829 0.0
H1693 H 0.54108 0.04174 0.88933 0.0
H1694 H 0.57213 0.11417 0.80228 0.0
H1695 H 0.45831 0.98873 0.86507 0.0
H1696 H 0.5543 0.06783 0.85772 0.0
H1697 H 0.48103 0.02851 0.80962 0.0
C1698 C 0.50714 0.0619 0.79018 0.0
C1699 C 0.53268 0.08654 0.78768 0.0
C1700 C 0.53327 0.05046 0.85936 0.0
C1701 C 0.52065 0.05711 0.82391 0.0
C1702 C 0.52563 0.03565 0.87746 0.0
C1703 C 0.49856 0.01276 0.87991 0.0
C1704 C 0.51372 0.04234 0.84357 0.0
C1705 C 0.47958 0.00579 0.86386 0.0
C1706 C 0.50108 0.04724 0.80812 0.0
C1707 C 0.55221 0.09527 0.80352 0.0
N1708 N 0.48753 0.0204 0.84648 0.0
N1709 N 0.54572 0.08068 0.82102 0.0
H1710 H 0.16233 0.27378 0.58799 0.0
H1711 H 0.13025 0.30187 0.47547 0.0
H1712 H 0.07976 0.23191 0.56122 0.0
H1713 H 0.21294 0.34254 0.50209 0.0
H1714 H 0.1117 0.27457 0.50611 0.0
H1715 H 0.18151 0.2976 0.55618 0.0
C1716 C 0.14822 0.26937 0.57541 0.0
C1717 C 0.11928 0.25083 0.57746 0.0
C1718 C 0.13392 0.28941 0.50523 0.0
C1719 C 0.14118 0.27843 0.54085 0.0
C1720 C 0.14459 0.30492 0.48764 0.0
C1721 C 0.17324 0.32477 0.48613 0.0
C1722 C 0.15197 0.29365 0.52151 0.0
C1723 C 0.19064 0.32791 0.50261 0.0
C1724 C 0.15919 0.28314 0.55723 0.0
C1725 C 0.1021 0.24634 0.56056 0.0
N1726 N 0.17975 0.31264 0.51955 0.0
N1727 N 0.11326 0.26005 0.54307 0.0
H1728 H 0.70529 0.87389 0.59389 0.0
H1729 H 0.69376 0.82752 0.47943 0.0
H1730 H 0.76296 0.85238 0.56642 0.0
H1731 H 0.6489 0.86596 0.50372 0.0
H1732 H 0.71867 0.83551 0.51127 0.0
H1733 H 0.68385 0.87035 0.56116 0.0
C1734 C 0.71372 0.86874 0.58097 0.0
C1735 C 0.73602 0.86338 0.58303 0.0
C1736 C 0.70346 0.8423 0.5096 0.0
C1737 C 0.711 0.8587 0.54543 0.0
C1738 C 0.68929 0.83788 0.49135 0.0
C1739 C 0.66907 0.84601 0.4888 0.0
C1740 C 0.69728 0.85478 0.52554 0.0
C1741 C 0.6639 0.85887 0.50503 0.0
C1742 C 0.70129 0.86654 0.56227 0.0
C1743 C 0.74554 0.85624 0.5657 0.0
N1744 N 0.6778 0.86274 0.52269 0.0
N1745 N 0.7329 0.85397 0.54768 0.0
H1746 H 0.17807 0.88634 0.58879 0.0
H1747 H 0.14187 0.83338 0.4751 0.0
H1748 H 0.10241 0.87239 0.55877 0.0
H1749 H 0.22317 0.86304 0.50266 0.0
H1750 H 0.12487 0.84291 0.50637 0.0
H1751 H 0.19221 0.87212 0.55841 0.0
C1752 C 0.16433 0.88014 0.57584 0.0
C1753 C 0.13914 0.88089 0.57632 0.0
C1754 C 0.1464 0.84724 0.50555 0.0
C1755 C 0.15523 0.86444 0.54134 0.0
C1756 C 0.15622 0.84199 0.48763 0.0
C1757 C 0.18407 0.84737 0.48611 0.0
C1758 C 0.16448 0.85784 0.52215 0.0
C1759 C 0.20143 0.85808 0.50309 0.0
C1760 C 0.17242 0.872 0.55847 0.0
C1761 C 0.12193 0.87203 0.55916 0.0
N1762 N 0.19137 0.86293 0.52032 0.0
N1763 N 0.13039 0.86437 0.54233 0.0
H1764 H 0.64823 0.83365 0.11194 0.0
H1765 H 0.64092 0.78831 0.22681 0.0
H1766 H 0.57892 0.76029 0.13713 0.0
H1767 H 0.7129 0.85829 0.20051 0.0
H1768 H 0.61595 0.78032 0.19495 0.0
H1769 H 0.66998 0.8458 0.14516 0.0
C1770 C 0.63736 0.82031 0.12452 0.0
C1771 C 0.61178 0.79581 0.1217 0.0
C1772 C 0.63717 0.79749 0.19616 0.0
C1773 C 0.63682 0.80937 0.15975 0.0
C1774 C 0.6514 0.80216 0.21439 0.0
C1775 C 0.67913 0.82394 0.21634 0.0
C1776 C 0.65069 0.81475 0.17971 0.0
C1777 C 0.69173 0.84099 0.19962 0.0
C1778 C 0.64992 0.82714 0.14346 0.0
C1779 C 0.59886 0.77915 0.13854 0.0
N1780 N 0.67745 0.836 0.18202 0.0
N1781 N 0.61157 0.78615 0.15679 0.0
H1782 H 0.18281 0.7937 0.10894 0.0
H1783 H 0.21328 0.84846 0.22238 0.0
H1784 H 0.26521 0.83176 0.13599 0.0
H1785 H 0.13036 0.80532 0.19619 0.0
H1786 H 0.23268 0.84192 0.19118 0.0
H1787 H 0.16324 0.79717 0.14098 0.0
C1788 C 0.1968 0.80257 0.12164 0.0
C1789 C 0.22577 0.81248 0.11966 0.0
C1790 C 0.21023 0.83382 0.19228 0.0
C1791 C 0.20345 0.8169 0.15649 0.0
C1792 C 0.19909 0.83741 0.21016 0.0
C1793 C 0.1701 0.82754 0.21197 0.0
C1794 C 0.1923 0.82028 0.17601 0.0
C1795 C 0.15288 0.81372 0.19544 0.0
C1796 C 0.1856 0.8047 0.13994 0.0
C1797 C 0.24284 0.82421 0.13666 0.0
N1798 N 0.16423 0.81058 0.1782 0.0
N1799 N 0.23145 0.82614 0.1543 0.0
H1800 H 0.23973 0.44332 0.13476 0.0
H1801 H 0.12208 0.31519 0.19716 0.0
H1802 H 0.15915 0.38255 0.11128 0.0
H1803 H 0.20487 0.36902 0.22107 0.0
H1804 H 0.13602 0.34072 0.16583 0.0
H1805 H 0.22864 0.41706 0.16631 0.0
C1806 C 0.2199 0.42431 0.13613 0.0
C1807 C 0.20023 0.4153 0.12039 0.0
C1808 C 0.15126 0.34702 0.17786 0.0
C1809 C 0.18725 0.3854 0.15649 0.0
C1810 C 0.14331 0.33232 0.19582 0.0
C1811 C 0.16237 0.33967 0.21184 0.0
C1812 C 0.17854 0.36954 0.17568 0.0
C1813 C 0.18938 0.36263 0.20922 0.0
C1814 C 0.21349 0.40945 0.15419 0.0
C1815 C 0.17477 0.3906 0.12308 0.0
N1816 N 0.19669 0.37671 0.19149 0.0
N1817 N 0.16902 0.37671 0.14073 0.0
H1818 H 0.83046 0.60524 0.92333 0.0
H1819 H 0.79631 0.63229 0.81116 0.0
H1820 H 0.74745 0.56288 0.89726 0.0
H1821 H 0.87947 0.67319 0.83703 0.0
H1822 H 0.77835 0.60509 0.8419 0.0
H1823 H 0.84906 0.62869 0.89133 0.0
C1824 C 0.81614 0.60064 0.91086 0.0
C1825 C 0.78725 0.58209 0.91316 0.0
C1826 C 0.80055 0.61996 0.84083 0.0
C1827 C 0.80847 0.60926 0.87634 0.0
C1828 C 0.81088 0.6354 0.82319 0.0
C1829 C 0.83947 0.6553 0.82145 0.0
C1830 C 0.8189 0.62432 0.85693 0.0
C1831 C 0.85719 0.65852 0.83774 0.0
C1832 C 0.82678 0.6142 0.89258 0.0
C1833 C 0.76977 0.57733 0.8964 0.0
N1834 N 0.84663 0.64333 0.85474 0.0
N1835 N 0.78061 0.59085 0.8788 0.0
H1836 H 0.37003 0.20704 0.92547 0.0
H1837 H 0.35577 0.15711 0.81153 0.0
H1838 H 0.42382 0.18002 0.89883 0.0
H1839 H 0.31152 0.19617 0.83579 0.0
H1840 H 0.38071 0.16501 0.84337 0.0
H1841 H 0.34826 0.20302 0.89278 0.0
C1842 C 0.37752 0.20055 0.91273 0.0
C1843 C 0.39883 0.19383 0.915 0.0
C1844 C 0.36561 0.17193 0.8417 0.0
C1845 C 0.3735 0.18866 0.87747 0.0
C1846 C 0.35144 0.16756 0.82346 0.0
C1847 C 0.33138 0.17591 0.82091 0.0
C1848 C 0.35965 0.18463 0.85761 0.0
C1849 C 0.3264 0.18893 0.83711 0.0
C1850 C 0.36491 0.19808 0.89406 0.0
C1851 C 0.40718 0.18501 0.89793 0.0
N1852 N 0.34034 0.1928 0.85475 0.0
N1853 N 0.39444 0.18258 0.87994 0.0
H1854 H 0.84508 0.22151 0.92103 0.0
H1855 H 0.80752 0.16942 0.80729 0.0
H1856 H 0.77007 0.20982 0.89126 0.0
H1857 H 0.88944 0.19976 0.83401 0.0
H1858 H 0.79098 0.17889 0.8388 0.0
H1859 H 0.85864 0.20723 0.89041 0.0
C1860 C 0.83136 0.2158 0.90809 0.0
C1861 C 0.80654 0.21723 0.90871 0.0
C1862 C 0.81255 0.18337 0.83773 0.0
C1863 C 0.82195 0.20066 0.87348 0.0
C1864 C 0.82211 0.17817 0.81968 0.0
C1865 C 0.85 0.18376 0.81785 0.0
C1866 C 0.83092 0.19411 0.85417 0.0
C1867 C 0.86767 0.19462 0.83468 0.0
C1868 C 0.83912 0.20762 0.89059 0.0
C1869 C 0.78931 0.20894 0.89155 0.0
N1870 N 0.85784 0.19939 0.85204 0.0
N1871 N 0.79743 0.20121 0.8746 0.0
H1872 H 0.31468 0.16883 0.44273 0.0
H1873 H 0.30421 0.12241 0.55758 0.0
H1874 H 0.24719 0.09295 0.46642 0.0
H1875 H 0.37666 0.19309 0.53243 0.0
H1876 H 0.28034 0.11449 0.52527 0.0
H1877 H 0.33476 0.18134 0.47648 0.0
C1878 C 0.30385 0.155 0.45509 0.0
C1879 C 0.27935 0.12971 0.45174 0.0
C1880 C 0.30141 0.13181 0.52683 0.0
C1881 C 0.30238 0.14371 0.49033 0.0
C1882 C 0.315 0.13644 0.54532 0.0
C1883 C 0.34255 0.15836 0.54769 0.0
C1884 C 0.31541 0.14926 0.51056 0.0
C1885 C 0.3556 0.17568 0.53118 0.0
C1886 C 0.31544 0.16205 0.47432 0.0
C1887 C 0.26635 0.11246 0.46828 0.0
N1888 N 0.34195 0.17071 0.51331 0.0
N1889 N 0.2781 0.1197 0.48682 0.0
H1890 H 0.8977 0.19317 0.44581 0.0
H1891 H 0.83257 0.12833 0.55308 0.0
H1892 H 0.87658 0.1109 0.46278 0.0
H1893 H 0.83543 0.20119 0.52935 0.0
H1894 H 0.85251 0.12326 0.52149 0.0
H1895 H 0.87864 0.19805 0.47768 0.0
C1896 C 0.88915 0.17615 0.4563 0.0
C1897 C 0.8888 0.1516 0.45163 0.0
C1898 C 0.84874 0.14033 0.52321 0.0
C1899 C 0.86683 0.15704 0.48822 0.0
C1900 C 0.83754 0.14334 0.54127 0.0
C1901 C 0.83223 0.16516 0.54383 0.0
C1902 C 0.85499 0.15948 0.50768 0.0
C1903 C 0.83885 0.18387 0.52795 0.0
C1904 C 0.87812 0.1789 0.47445 0.0
C1905 C 0.87708 0.1301 0.4657 0.0
N1906 N 0.84994 0.18064 0.51062 0.0
N1907 N 0.86668 0.13336 0.4834 0.0
H1908 H 0.88749 0.73075 0.44651 0.0
H1909 H 0.83091 0.71525 0.5597 0.0
H1910 H 0.85868 0.78264 0.47252 0.0
H1911 H 0.84649 0.65541 0.53075 0.0
H1912 H 0.84701 0.74358 0.52934 0.0
H1913 H 0.87874 0.70646 0.47867 0.0
C1914 C 0.8797 0.73728 0.45905 0.0
C1915 C 0.87358 0.75861 0.45673 0.0
C1916 C 0.84704 0.72431 0.52966 0.0
C1917 C 0.86333 0.7308 0.49358 0.0
C1918 C 0.83801 0.70819 0.54706 0.0
C1919 C 0.83711 0.68276 0.54779 0.0
C1920 C 0.85547 0.71509 0.51283 0.0
C1921 C 0.84636 0.67463 0.53079 0.0
C1922 C 0.87451 0.72329 0.47737 0.0
C1923 C 0.86329 0.76604 0.4735 0.0
N1924 N 0.85505 0.69066 0.51404 0.0
N1925 N 0.85841 0.75214 0.49113 0.0
loop_
_geom_bond_atom_site_label_1
_geom_bond_atom_site_label_2
_geom_bond_distance
_geom_bond_site_symmetry_2
_ccdc_geom_bond_type
H0 C3 0.929 . S
H1 C6 0.929 . S
H2 C8 0.930 . S
C3 H0 0.929 . S
C3 C4 1.398 . S
C3 C5 1.396 . S
C4 C3 1.398 . S
C4 C8 1.407 . S
C5 C3 1.396 . S
C5 C6 1.394 . S
C6 H1 0.929 . S
C6 C5 1.394 . S
C6 C7 1.382 . S
C7 C6 1.382 . S
C7 C8 1.392 . S
C7 N9 1.420 . S
C8 H2 0.930 . S
C8 C4 1.407 . S
C8 C7 1.392 . S
N9 C7 1.420 . S
N9 C10 1.244 . S
C10 N9 1.244 . S
H11 C14 0.929 . S
H12 C17 0.929 . S
H13 C19 0.930 . S
C14 H11 0.929 . S
C14 C15 1.398 . S
C14 C16 1.396 . S
C15 C14 1.398 . S
C15 C19 1.407 . S
C16 C14 1.396 . S
C16 C17 1.394 . S
C17 H12 0.929 . S
C17 C16 1.394 . S
C17 C18 1.382 . S
C18 C17 1.382 . S
C18 C19 1.392 . S
C18 N20 1.420 . S
C19 H13 0.930 . S
C19 C15 1.407 . S
C19 C18 1.392 . S
N20 C18 1.420 . S
N20 C21 1.244 . S
C21 N20 1.244 . S
H22 C25 0.929 . S
H23 C28 0.929 . S
H24 C30 0.930 . S
C25 H22 0.929 . S
C25 C26 1.398 . S
C25 C27 1.396 . S
C26 C25 1.398 . S
C26 C30 1.407 . S
C27 C25 1.396 . S
C27 C28 1.394 . S
C28 H23 0.929 . S
C28 C27 1.394 . S
C28 C29 1.382 . S
C29 C28 1.382 . S
C29 C30 1.392 . S
C29 N31 1.420 . S
C30 H24 0.930 . S
C30 C26 1.407 . S
C30 C29 1.392 . S
N31 C29 1.420 . S
N31 C32 1.244 . S
C32 N31 1.244 . S
H33 C36 0.929 . S
H34 C39 0.929 . S
H35 C41 0.930 . S
C36 H33 0.929 . S
C36 C37 1.398 . S
C36 C38 1.396 . S
C37 C36 1.398 . S
C37 C41 1.407 . S
C38 C36 1.396 . S
C38 C39 1.394 . S
C39 H34 0.929 . S
C39 C38 1.394 . S
C39 C40 1.382 . S
C40 C39 1.382 . S
C40 C41 1.392 . S
C40 N42 1.420 . S
C41 H35 0.930 . S
C41 C37 1.407 . S
C41 C40 1.392 . S
N42 C40 1.420 . S
N42 C43 1.244 . S
C43 N42 1.244 . S
H44 C47 0.929 . S
H45 C50 0.929 . S
H46 C52 0.930 . S
C47 H44 0.929 . S
C47 C48 1.398 . S
C47 C49 1.396 . S
C48 C47 1.398 . S
C48 C52 1.407 . S
C49 C47 1.396 . S
C49 C50 1.394 . S
C50 H45 0.929 . S
C50 C49 1.394 . S
C50 C51 1.382 . S
C51 C50 1.382 . S
C51 C52 1.392 . S
C51 N53 1.420 . S
C52 H46 0.930 . S
C52 C48 1.407 . S
C52 C51 1.392 . S
N53 C51 1.420 . S
N53 C54 1.244 . S
C54 N53 1.244 . S
H55 C58 0.929 . S
H56 C61 0.929 . S
H57 C63 0.930 . S
C58 H55 0.929 . S
C58 C59 1.398 . S
C58 C60 1.396 . S
C59 C58 1.398 . S
C59 C63 1.407 . S
C60 C58 1.396 . S
C60 C61 1.394 . S
C61 H56 0.929 . S
C61 C60 1.394 . S
C61 C62 1.382 . S
C62 C61 1.382 . S
C62 C63 1.392 . S
C62 N64 1.420 . S
C63 H57 0.930 . S
C63 C59 1.407 . S
C63 C62 1.392 . S
N64 C62 1.420 . S
N64 C65 1.244 . S
C65 N64 1.244 . S
H66 C69 0.929 . S
H67 C72 0.929 . S
H68 C74 0.930 . S
C69 H66 0.929 . S
C69 C70 1.398 . S
C69 C71 1.396 . S
C70 C69 1.398 . S
C70 C74 1.407 . S
C71 C69 1.396 . S
C71 C72 1.394 . S
C72 H67 0.929 . S
C72 C71 1.394 . S
C72 C73 1.382 . S
C73 C72 1.382 . S
C73 C74 1.392 . S
C73 N75 1.420 . S
C74 H68 0.930 . S
C74 C70 1.407 . S
C74 C73 1.392 . S
N75 C73 1.420 . S
N75 C76 1.244 . S
C76 N75 1.244 . S
H77 C80 0.929 . S
H78 C83 0.929 . S
H79 C85 0.930 . S
C80 H77 0.929 . S
C80 C81 1.398 . S
C80 C82 1.396 . S
C81 C80 1.398 . S
C81 C85 1.407 . S
C82 C80 1.396 . S
C82 C83 1.394 . S
C83 H78 0.929 . S
C83 C82 1.394 . S
C83 C84 1.382 . S
C84 C83 1.382 . S
C84 C85 1.392 . S
C84 N86 1.420 . S
C85 H79 0.930 . S
C85 C81 1.407 . S
C85 C84 1.392 . S
N86 C84 1.420 . S
N86 C87 1.244 . S
C87 N86 1.244 . S
H88 C91 0.929 . S
H89 C94 0.929 . S
H90 C96 0.930 . S
C91 H88 0.929 . S
C91 C92 1.398 . S
C91 C93 1.396 . S
C92 C91 1.398 . S
C92 C96 1.407 . S
C93 C91 1.396 . S
C93 C94 1.394 . S
C94 H89 0.929 . S
C94 C93 1.394 . S
C94 C95 1.382 . S
C95 C94 1.382 . S
C95 C96 1.392 . S
C95 N97 1.420 . S
C96 H90 0.930 . S
C96 C92 1.407 . S
C96 C95 1.392 . S
N97 C95 1.420 . S
N97 C98 1.244 . S
C98 N97 1.244 . S
H99 C102 0.929 . S
H100 C105 0.929 . S
H101 C107 0.930 . S
C102 H99 0.929 . S
C102 C103 1.398 . S
C102 C104 1.396 . S
C103 C102 1.398 . S
C103 C107 1.407 . S
C104 C102 1.396 . S
C104 C105 1.394 . S
C105 H100 0.929 . S
C105 C104 1.394 . S
C105 C106 1.382 . S
C106 C105 1.382 . S
C106 C107 1.392 . S
C106 N108 1.420 . S
C107 H101 0.930 . S
C107 C103 1.407 . S
C107 C106 1.392 . S
N108 C106 1.420 . S
N108 C109 1.244 . S
C109 N108 1.244 . S
H110 C113 0.929 . S
H111 C116 0.929 . S
H112 C118 0.930 . S
C113 H110 0.929 . S
C113 C114 1.398 . S
C113 C115 1.396 . S
C114 C113 1.398 . S
C114 C118 1.407 . S
C115 C113 1.396 . S
C115 C116 1.394 . S
C116 H111 0.929 . S
C116 C115 1.394 . S
C116 C117 1.382 . S
C117 C116 1.382 . S
C117 C118 1.392 . S
C117 N119 1.420 . S
C118 H112 0.930 . S
C118 C114 1.407 . S
C118 C117 1.392 . S
N119 C117 1.420 . S
N119 C120 1.244 . S
C120 N119 1.244 . S
H121 C124 0.929 . S
H122 C127 0.929 . S
H123 C129 0.930 . S
C124 H121 0.929 . S
C124 C125 1.398 . S
C124 C126 1.396 . S
C125 C124 1.398 . S
C125 C129 1.407 . S
C126 C124 1.396 . S
C126 C127 1.394 . S
C127 H122 0.929 . S
C127 C126 1.394 . S
C127 C128 1.382 . S
C128 C127 1.382 . S
C128 C129 1.392 . S
C128 N130 1.420 . S
C129 H123 0.930 . S
C129 C125 1.407 . S
C129 C128 1.392 . S
N130 C128 1.420 . S
N130 C131 1.244 . S
C131 N130 1.244 . S
H132 C135 0.929 . S
H133 C138 0.929 . S
H134 C140 0.930 . S
C135 H132 0.929 . S
C135 C136 1.398 . S
C135 C137 1.396 . S
C136 C135 1.398 . S
C136 C140 1.407 . S
C137 C135 1.396 . S
C137 C138 1.394 . S
C138 H133 0.929 . S
C138 C137 1.394 . S
C138 C139 1.382 . S
C139 C138 1.382 . S
C139 C140 1.392 . S
C139 N141 1.420 . S
C140 H134 0.930 . S
C140 C136 1.407 . S
C140 C139 1.392 . S
N141 C139 1.420 . S
N141 C142 1.244 . S
C142 N141 1.244 . S
H143 C146 0.929 . S
H144 C149 0.929 . S
H145 C151 0.930 . S
C146 H143 0.929 . S
C146 C147 1.398 . S
C146 C148 1.396 . S
C147 C146 1.398 . S
C147 C151 1.407 . S
C148 C146 1.396 . S
C148 C149 1.394 . S
C149 H144 0.929 . S
C149 C148 1.394 . S
C149 C150 1.382 . S
C150 C149 1.382 . S
C150 C151 1.392 . S
C150 N152 1.420 . S
C151 H145 0.930 . S
C151 C147 1.407 . S
C151 C150 1.392 . S
N152 C150 1.420 . S
N152 C153 1.244 . S
C153 N152 1.244 . S
H154 C157 0.929 . S
H155 C160 0.929 . S
H156 C162 0.930 . S
C157 H154 0.929 . S
C157 C158 1.398 . S
C157 C159 1.396 . S
C158 C157 1.398 . S
C158 C162 1.407 . S
C159 C157 1.396 . S
C159 C160 1.394 . S
C160 H155 0.929 . S
C160 C159 1.394 . S
C160 C161 1.382 . S
C161 C160 1.382 . S
C161 C162 1.392 . S
C161 N163 1.420 . S
C162 H156 0.930 . S
C162 C158 1.407 . S
C162 C161 1.392 . S
N163 C161 1.420 . S
N163 C164 1.244 . S
C164 N163 1.244 . S
H165 C168 0.929 . S
H166 C171 0.929 . S
H167 C173 0.930 . S
C168 H165 0.929 . S
C168 C169 1.398 . S
C168 C170 1.396 . S
C169 C168 1.398 . S
C169 C173 1.407 . S
C170 C168 1.396 . S
C170 C171 1.394 . S
C171 H166 0.929 . S
C171 C170 1.394 . S
C171 C172 1.382 . S
C172 C171 1.382 . S
C172 C173 1.392 . S
C172 N174 1.420 . S
C173 H167 0.930 . S
C173 C169 1.407 . S
C173 C172 1.392 . S
N174 C172 1.420 . S
N174 C175 1.244 . S
C175 N174 1.244 . S
H176 C179 0.929 . S
H177 C182 0.929 . S
H178 C184 0.930 . S
C179 H176 0.929 . S
C179 C180 1.398 . S
C179 C181 1.396 . S
C180 C179 1.398 . S
C180 C184 1.407 . S
C181 C179 1.396 . S
C181 C182 1.394 . S
C182 H177 0.929 . S
C182 C181 1.394 . S
C182 C183 1.382 . S
C183 C182 1.382 . S
C183 C184 1.392 . S
C183 N185 1.420 . S
C184 H178 0.930 . S
C184 C180 1.407 . S
C184 C183 1.392 . S
N185 C183 1.420 . S
N185 C186 1.244 . S
C186 N185 1.244 . S
H187 C190 0.929 . S
H188 C193 0.929 . S
H189 C195 0.930 . S
C190 H187 0.929 . S
C190 C191 1.398 . S
C190 C192 1.396 . S
C191 C190 1.398 . S
C191 C195 1.407 . S
C192 C190 1.396 . S
C192 C193 1.394 . S
C193 H188 0.929 . S
C193 C192 1.394 . S
C193 C194 1.382 . S
C194 C193 1.382 . S
C194 C195 1.392 . S
C194 N196 1.420 . S
C195 H189 0.930 . S
C195 C191 1.407 . S
C195 C194 1.392 . S
N196 C194 1.420 . S
N196 C197 1.244 . S
C197 N196 1.244 . S
Gd198 N229 2.661 . S
Gd198 N235 2.601 . S
Gd198 O242 2.545 . S
Gd198 O243 2.606 1_545 S
Gd198 O245 2.429 . S
Gd198 O246 2.545 1_545 S
Gd198 O247 2.412 1_545 S
Gd198 O249 2.362 . S
Gd198 O250 2.324 1_545 S
Gd198 C257 2.828 . S
Gd199 N208 2.661 . S
Gd199 N212 2.601 . S
Gd199 O243 2.362 1_556 S
Gd199 O244 2.324 1_565 S
Gd199 O248 2.545 . S
Gd199 O249 2.606 1_566 S
Gd199 O251 2.427 . S
Gd199 O252 2.545 1_565 S
Gd199 O253 2.412 1_565 S
Gd199 C266 2.828 1_565 S
C200 C203 1.417 . S
C200 C205 1.431 . S
C200 C206 1.412 . S
C201 C204 1.437 . S
C201 C205 1.317 . S
C201 H220 0.929 . S
C202 C203 1.426 . S
C202 C204 1.413 . S
C202 N212 1.359 . S
C203 C200 1.417 . S
C203 C202 1.426 . S
C203 N208 1.350 . S
C204 C201 1.437 . S
C204 C202 1.413 . S
C204 C214 1.391 . S
C205 C200 1.431 . S
C205 C201 1.317 . S
C205 H216 0.930 . S
C206 C200 1.412 . S
C206 C207 1.355 . S
C206 H218 0.930 . S
C207 C206 1.355 . S
C207 C209 1.402 . S
C207 H219 0.930 . S
N208 Gd199 2.661 . S
N208 C203 1.350 . S
N208 C209 1.307 . S
C209 C207 1.402 . S
C209 N208 1.307 . S
C209 H210 0.930 . S
H210 C209 0.930 . S
C211 N212 1.334 . S
C211 C213 1.394 . S
C211 H215 0.930 . S
N212 Gd199 2.601 . S
N212 C202 1.359 . S
N212 C211 1.334 . S
C213 C211 1.394 . S
C213 C214 1.359 . S
C213 H225 0.930 . S
C214 C204 1.391 . S
C214 C213 1.359 . S
C214 H226 0.929 . S
H215 C211 0.930 . S
H216 C205 0.930 . S
H217 C234 0.930 . S
H218 C206 0.930 . S
H219 C207 0.930 . S
H220 C201 0.929 . S
H221 C239 0.930 . S
H222 C230 0.930 . S
H223 C231 0.930 . S
H224 C255 0.929 . S
H225 C213 0.930 . S
H226 C214 0.929 . S
H227 C256 0.930 . S
H228 C237 0.930 . S
N229 Gd198 2.661 . S
N229 C233 1.350 . S
N229 C234 1.307 . S
C230 H222 0.930 . S
C230 C231 1.355 . S
C230 C232 1.412 . S
C231 H223 0.930 . S
C231 C230 1.355 . S
C231 C234 1.402 . S
C232 C230 1.412 . S
C232 C233 1.417 . S
C232 C256 1.431 . S
C233 N229 1.350 . S
C233 C232 1.417 . S
C233 C236 1.426 . S
C234 H217 0.930 . S
C234 N229 1.307 . S
C234 C231 1.402 . S
N235 Gd198 2.601 . S
N235 C236 1.359 . S
N235 C239 1.334 . S
C236 C233 1.426 . S
C236 N235 1.359 . S
C236 C240 1.413 . S
C237 H228 0.930 . S
C237 C238 1.359 . S
C237 C239 1.394 . S
C238 C237 1.359 . S
C238 C240 1.391 . S
C238 H241 0.929 . S
C239 H221 0.930 . S
C239 N235 1.334 . S
C239 C237 1.394 . S
C240 C236 1.413 . S
C240 C238 1.391 . S
C240 C255 1.437 . S
H241 C238 0.929 . S
O242 Gd198 2.545 . S
O242 C257 1.258 . S
O243 Gd198 2.606 1_565 S
O243 Gd199 2.362 1_554 S
O243 C254 1.284 . S
O244 Gd199 2.324 1_545 S
O244 C264 1.254 1_556 S
O245 Gd198 2.429 . S
O245 C264 1.268 . S
O246 Gd198 2.545 1_565 S
O246 C254 1.250 . S
O247 Gd198 2.412 1_565 S
O247 C257 1.252 1_565 S
O248 Gd199 2.545 . S
O248 C266 1.250 1_565 S
O249 Gd198 2.362 . S
O249 Gd199 2.606 1_544 S
O249 C265 1.284 1_554 S
O250 Gd198 2.324 1_565 S
O250 C273 1.254 . S
O251 Gd199 2.427 . S
O251 C273 1.272 1_556 S
O252 Gd199 2.545 1_545 S
O252 C265 1.250 . S
O253 Gd199 2.412 1_545 S
O253 C266 1.258 . S
C254 O243 1.284 . S
C254 O246 1.250 . S
C255 H224 0.929 . S
C255 C240 1.437 . S
C255 C256 1.317 . S
C256 H227 0.930 . S
C256 C232 1.431 . S
C256 C255 1.317 . S
C257 Gd198 2.828 . S
C257 O242 1.258 . S
C257 O247 1.252 1_545 S
C257 C258 1.497 . S
C258 C257 1.497 . S
C258 C259 1.395 . S
C258 C260 1.380 1_545 S
C259 C258 1.395 . S
C259 C262 1.398 . S
C259 H274 0.930 . S
C260 C258 1.380 1_565 S
C260 C261 1.391 . S
C260 H275 0.930 . S
C261 C260 1.391 . S
C261 C263 1.387 . S
C262 C259 1.398 . S
C262 C263 1.380 1_545 S
C262 H276 0.930 . S
C263 C261 1.387 . S
C263 C262 1.380 1_565 S
C263 H277 0.930 . S
C264 O244 1.254 1_554 S
C264 O245 1.268 . S
C265 O249 1.284 1_556 S
C265 O252 1.250 . S
C266 Gd199 2.828 1_545 S
C266 O248 1.250 1_545 S
C266 O253 1.258 . S
C266 C267 1.498 . S
C267 C266 1.498 . S
C267 C268 1.395 1_545 S
C267 C269 1.380 . S
C268 C267 1.395 1_565 S
C268 C271 1.398 . S
C268 H278 0.930 . S
C269 C267 1.380 . S
C269 C270 1.391 . S
C269 H279 0.930 . S
C270 C269 1.391 . S
C270 C272 1.387 . S
C271 C268 1.398 . S
C271 C272 1.380 1_565 S
C271 H280 0.930 . S
C272 C270 1.387 . S
C272 C271 1.380 1_545 S
C272 H281 0.930 . S
C273 O250 1.254 . S
C273 O251 1.272 1_554 S
H274 C259 0.930 . S
H275 C260 0.930 . S
H276 C262 0.930 . S
H277 C263 0.930 . S
H278 C268 0.930 . S
H279 C269 0.930 . S
H280 C271 0.930 . S
H281 C272 0.930 . S
Gd282 N313 2.661 . S
Gd282 N319 2.601 . S
Gd282 O326 2.545 . S
Gd282 O327 2.606 1_655 S
Gd282 O329 2.429 . S
Gd282 O330 2.545 1_655 S
Gd282 O331 2.412 1_655 S
Gd282 O333 2.362 . S
Gd282 O334 2.324 1_655 S
Gd282 C341 2.828 . S
Gd283 N292 2.661 . S
Gd283 N296 2.601 . S
Gd283 O327 2.362 1_556 S
Gd283 O328 2.324 1_455 S
Gd283 O332 2.545 . S
Gd283 O333 2.606 1_456 S
Gd283 O335 2.403 1_556 S
Gd283 O336 2.545 1_455 S
Gd283 O337 2.413 . S
Gd283 C350 2.828 . S
C284 C287 1.417 . S
C284 C289 1.431 . S
C284 C290 1.412 . S
C285 C288 1.437 . S
C285 C289 1.317 . S
C285 H304 0.929 . S
C286 C287 1.426 . S
C286 C288 1.413 . S
C286 N296 1.359 . S
C287 C284 1.417 . S
C287 C286 1.426 . S
C287 N292 1.350 . S
C288 C285 1.437 . S
C288 C286 1.413 . S
C288 C298 1.391 . S
C289 C284 1.431 . S
C289 C285 1.317 . S
C289 H300 0.930 . S
C290 C284 1.412 . S
C290 C291 1.355 . S
C290 H302 0.930 . S
C291 C290 1.355 . S
C291 C293 1.402 . S
C291 H303 0.930 . S
N292 Gd283 2.661 . S
N292 C287 1.350 . S
N292 C293 1.307 . S
C293 C291 1.402 . S
C293 N292 1.307 . S
C293 H294 0.930 . S
H294 C293 0.930 . S
C295 N296 1.334 . S
C295 C297 1.394 . S
C295 H299 0.930 . S
N296 Gd283 2.601 . S
N296 C286 1.359 . S
N296 C295 1.334 . S
C297 C295 1.394 . S
C297 C298 1.359 . S
C297 H309 0.930 . S
C298 C288 1.391 . S
C298 C297 1.359 . S
C298 H310 0.929 . S
H299 C295 0.930 . S
H300 C289 0.930 . S
H301 C318 0.930 . S
H302 C290 0.930 . S
H303 C291 0.930 . S
H304 C285 0.929 . S
H305 C323 0.930 . S
H306 C314 0.930 . S
H307 C315 0.930 . S
H308 C339 0.929 . S
H309 C297 0.930 . S
H310 C298 0.929 . S
H311 C340 0.930 . S
H312 C321 0.930 . S
N313 Gd282 2.661 . S
N313 C317 1.350 . S
N313 C318 1.307 . S
C314 H306 0.930 . S
C314 C315 1.355 . S
C314 C316 1.412 . S
C315 H307 0.930 . S
C315 C314 1.355 . S
C315 C318 1.402 . S
C316 C314 1.412 . S
C316 C317 1.417 . S
C316 C340 1.431 . S
C317 N313 1.350 . S
C317 C316 1.417 . S
C317 C320 1.426 . S
C318 H301 0.930 . S
C318 N313 1.307 . S
C318 C315 1.402 . S
N319 Gd282 2.601 . S
N319 C320 1.359 . S
N319 C323 1.334 . S
C320 C317 1.426 . S
C320 N319 1.359 . S
C320 C324 1.413 . S
C321 H312 0.930 . S
C321 C322 1.359 . S
C321 C323 1.394 . S
C322 C321 1.359 . S
C322 C324 1.391 . S
C322 H325 0.929 . S
C323 H305 0.930 . S
C323 N319 1.334 . S
C323 C321 1.394 . S
C324 C320 1.413 . S
C324 C322 1.391 . S
C324 C339 1.437 . S
H325 C322 0.929 . S
O326 Gd282 2.545 . S
O326 C341 1.258 . S
O327 Gd282 2.606 1_455 S
O327 Gd283 2.362 1_554 S
O327 C338 1.284 . S
O328 Gd283 2.324 1_655 S
O328 C348 1.254 1_556 S
O329 Gd282 2.429 . S
O329 C348 1.268 . S
O330 Gd282 2.545 1_455 S
O330 C338 1.250 . S
O331 Gd282 2.412 1_455 S
O331 C341 1.252 1_455 S
O332 Gd283 2.545 . S
O332 C350 1.258 . S
O333 Gd282 2.362 . S
O333 Gd283 2.606 1_654 S
O333 C349 1.284 1_554 S
O334 Gd282 2.324 1_455 S
O334 C357 1.254 . S
O335 Gd283 2.403 1_554 S
O335 C357 1.320 . S
O336 Gd283 2.545 1_655 S
O336 C349 1.250 . S
O337 Gd283 2.413 . S
O337 C350 1.252 . S
C338 O327 1.284 . S
C338 O330 1.250 . S
C339 H308 0.929 . S
C339 C324 1.437 . S
C339 C340 1.317 . S
C340 H311 0.930 . S
C340 C316 1.431 . S
C340 C339 1.317 . S
C341 Gd282 2.828 . S
C341 O326 1.258 . S
C341 O331 1.252 1_655 S
C341 C342 1.497 1_655 S
C342 C341 1.497 1_455 S
C342 C343 1.395 1_455 S
C342 C344 1.380 . S
C343 C342 1.395 1_655 S
C343 C346 1.398 . S
C343 H358 0.930 . S
C344 C342 1.380 . S
C344 C345 1.391 . S
C344 H359 0.930 . S
C345 C344 1.391 . S
C345 C347 1.387 . S
C346 C343 1.398 . S
C346 C347 1.380 1_655 S
C346 H360 0.930 . S
C347 C345 1.387 . S
C347 C346 1.380 1_455 S
C347 H361 0.930 . S
C348 O328 1.254 1_554 S
C348 O329 1.268 . S
C349 O333 1.284 1_556 S
C349 O336 1.250 . S
C350 Gd283 2.828 . S
C350 O332 1.258 . S
C350 O337 1.252 . S
C350 C351 1.497 . S
C351 C350 1.497 . S
C351 C352 1.395 . S
C351 C353 1.380 1_455 S
C352 C351 1.395 . S
C352 C355 1.398 . S
C352 H362 0.930 . S
C353 C351 1.380 1_655 S
C353 C354 1.391 . S
C353 H363 0.930 . S
C354 C353 1.391 . S
C354 C356 1.387 . S
C355 C352 1.398 . S
C355 C356 1.380 1_455 S
C355 H364 0.930 . S
C356 C354 1.387 . S
C356 C355 1.380 1_655 S
C356 H365 0.930 . S
C357 O334 1.254 . S
C357 O335 1.320 . S
H358 C343 0.930 . S
H359 C344 0.930 . S
H360 C346 0.930 . S
H361 C347 0.930 . S
H362 C352 0.930 . S
H363 C353 0.930 . S
H364 C355 0.930 . S
H365 C356 0.930 . S
Gd366 N397 2.661 . S
Gd366 N403 2.601 . S
Gd366 O410 2.545 . S
Gd366 O411 2.606 1_556 S
Gd366 O413 2.429 1_556 S
Gd366 O414 2.545 . S
Gd366 O415 2.412 . S
Gd366 O417 2.362 1_556 S
Gd366 O418 2.324 . S
Gd366 C425 2.828 . S
Gd367 N376 2.661 . S
Gd367 N380 2.601 . S
Gd367 O411 2.362 . S
Gd367 O412 2.324 . S
Gd367 O416 2.545 . S
Gd367 O417 2.606 . S
Gd367 O419 2.429 . S
Gd367 O420 2.545 . S
Gd367 O421 2.412 . S
Gd367 C434 2.828 . S
C368 C371 1.417 . S
C368 C373 1.431 . S
C368 C374 1.412 . S
C369 C372 1.437 . S
C369 C373 1.317 . S
C369 H388 0.929 . S
C370 C371 1.426 . S
C370 C372 1.413 . S
C370 N380 1.359 . S
C371 C368 1.417 . S
C371 C370 1.426 . S
C371 N376 1.350 . S
C372 C369 1.437 . S
C372 C370 1.413 . S
C372 C382 1.391 . S
C373 C368 1.431 . S
C373 C369 1.317 . S
C373 H384 0.930 . S
C374 C368 1.412 . S
C374 C375 1.355 . S
C374 H386 0.930 . S
C375 C374 1.355 . S
C375 C377 1.402 . S
C375 H387 0.930 . S
N376 Gd367 2.661 . S
N376 C371 1.350 . S
N376 C377 1.307 . S
C377 C375 1.402 . S
C377 N376 1.307 . S
C377 H378 0.930 . S
H378 C377 0.930 . S
C379 N380 1.334 . S
C379 C381 1.394 . S
C379 H383 0.930 . S
N380 Gd367 2.601 . S
N380 C370 1.359 . S
N380 C379 1.334 . S
C381 C379 1.394 . S
C381 C382 1.359 . S
C381 H393 0.930 . S
C382 C372 1.391 . S
C382 C381 1.359 . S
C382 H394 0.929 . S
H383 C379 0.930 . S
H384 C373 0.930 . S
H385 C402 0.930 . S
H386 C374 0.930 . S
H387 C375 0.930 . S
H388 C369 0.929 . S
H389 C407 0.930 . S
H390 C398 0.930 . S
H391 C399 0.930 . S
H392 C423 0.929 . S
H393 C381 0.930 . S
H394 C382 0.929 . S
H395 C424 0.930 . S
H396 C405 0.930 . S
N397 Gd366 2.661 . S
N397 C401 1.350 . S
N397 C402 1.307 . S
C398 H390 0.930 . S
C398 C399 1.355 . S
C398 C400 1.412 . S
C399 H391 0.930 . S
C399 C398 1.355 . S
C399 C402 1.402 . S
C400 C398 1.412 . S
C400 C401 1.417 . S
C400 C424 1.431 . S
C401 N397 1.350 . S
C401 C400 1.417 . S
C401 C404 1.426 . S
C402 H385 0.930 . S
C402 N397 1.307 . S
C402 C399 1.402 . S
N403 Gd366 2.601 . S
N403 C404 1.359 . S
N403 C407 1.334 . S
C404 C401 1.426 . S
C404 N403 1.359 . S
C404 C408 1.413 . S
C405 H396 0.930 . S
C405 C406 1.359 . S
C405 C407 1.394 . S
C406 C405 1.359 . S
C406 C408 1.391 . S
C406 H409 0.929 . S
C407 H389 0.930 . S
C407 N403 1.334 . S
C407 C405 1.394 . S
C408 C404 1.413 . S
C408 C406 1.391 . S
C408 C423 1.437 . S
H409 C406 0.929 . S
O410 Gd366 2.545 . S
O410 C425 1.258 . S
O411 Gd366 2.606 1_554 S
O411 Gd367 2.362 . S
O411 C422 1.284 1_554 S
O412 Gd367 2.324 . S
O412 C432 1.254 . S
O413 Gd366 2.429 1_554 S
O413 C432 1.268 . S
O414 Gd366 2.545 . S
O414 C422 1.250 . S
O415 Gd366 2.412 . S
O415 C425 1.252 . S
O416 Gd367 2.545 . S
O416 C434 1.258 . S
O417 Gd366 2.362 1_554 S
O417 Gd367 2.606 . S
O417 C433 1.284 . S
O418 Gd366 2.324 . S
O418 C441 1.254 1_556 S
O419 Gd367 2.429 . S
O419 C441 1.268 . S
O420 Gd367 2.545 . S
O420 C433 1.250 . S
O421 Gd367 2.412 . S
O421 C434 1.252 . S
C422 O411 1.284 1_556 S
C422 O414 1.250 . S
C423 H392 0.929 . S
C423 C408 1.437 . S
C423 C424 1.317 . S
C424 H395 0.930 . S
C424 C400 1.431 . S
C424 C423 1.317 . S
C425 Gd366 2.828 . S
C425 O410 1.258 . S
C425 O415 1.252 . S
C425 C426 1.497 . S
C426 C425 1.497 . S
C426 C427 1.395 . S
C426 C428 1.380 . S
C427 C426 1.395 . S
C427 C430 1.398 . S
C427 H442 0.930 . S
C428 C426 1.380 . S
C428 C429 1.391 . S
C428 H443 0.930 . S
C429 C428 1.391 . S
C429 C431 1.387 . S
C430 C427 1.398 . S
C430 C431 1.380 . S
C430 H444 0.930 . S
C431 C429 1.387 . S
C431 C430 1.380 . S
C431 H445 0.930 . S
C432 O412 1.254 . S
C432 O413 1.268 . S
C433 O417 1.284 . S
C433 O420 1.250 . S
C434 Gd367 2.828 . S
C434 O416 1.258 . S
C434 O421 1.252 . S
C434 C435 1.497 . S
C435 C434 1.497 . S
C435 C436 1.395 . S
C435 C437 1.380 . S
C436 C435 1.395 . S
C436 C439 1.398 . S
C436 H446 0.930 . S
C437 C435 1.380 . S
C437 C438 1.391 . S
C437 H447 0.930 . S
C438 C437 1.391 . S
C438 C440 1.387 . S
C439 C436 1.398 . S
C439 C440 1.380 . S
C439 H448 0.930 . S
C440 C438 1.387 . S
C440 C439 1.380 . S
C440 H449 0.930 . S
C441 O418 1.254 1_554 S
C441 O419 1.268 . S
H442 C427 0.930 . S
H443 C428 0.930 . S
H444 C430 0.930 . S
H445 C431 0.930 . S
H446 C436 0.930 . S
H447 C437 0.930 . S
H448 C439 0.930 . S
H449 C440 0.930 . S
Gd450 N481 2.661 . S
Gd450 N487 2.601 . S
Gd450 O494 2.545 . S
Gd450 O495 2.606 . S
Gd450 O497 2.429 . S
Gd450 O498 2.545 . S
Gd450 O499 2.412 . S
Gd450 O501 2.362 . S
Gd450 O502 2.324 . S
Gd450 C509 2.828 . S
Gd451 N460 2.661 . S
Gd451 N464 2.601 . S
Gd451 O495 2.362 . S
Gd451 O496 2.324 . S
Gd451 O500 2.545 . S
Gd451 O501 2.606 . S
Gd451 O503 2.429 . S
Gd451 O504 2.545 . S
Gd451 O505 2.412 . S
Gd451 C518 2.828 . S
C452 C455 1.417 . S
C452 C457 1.431 . S
C452 C458 1.412 . S
C453 C456 1.437 . S
C453 C457 1.317 . S
C453 H472 0.929 . S
C454 C455 1.426 . S
C454 C456 1.413 . S
C454 N464 1.359 . S
C455 C452 1.417 . S
C455 C454 1.426 . S
C455 N460 1.350 . S
C456 C453 1.437 . S
C456 C454 1.413 . S
C456 C466 1.391 . S
C457 C452 1.431 . S
C457 C453 1.317 . S
C457 H468 0.930 . S
C458 C452 1.412 . S
C458 C459 1.355 . S
C458 H470 0.953 . S
C459 C458 1.355 . S
C459 C461 1.402 . S
C459 H471 0.930 . S
N460 Gd451 2.661 . S
N460 C455 1.350 . S
N460 C461 1.307 . S
C461 C459 1.402 . S
C461 N460 1.307 . S
C461 H462 0.930 . S
H462 C461 0.930 . S
C463 N464 1.334 . S
C463 C465 1.394 . S
C463 H467 0.930 . S
N464 Gd451 2.601 . S
N464 C454 1.359 . S
N464 C463 1.334 . S
C465 C463 1.394 . S
C465 C466 1.359 . S
C465 H477 0.930 . S
C466 C456 1.391 . S
C466 C465 1.359 . S
C466 H478 0.929 . S
H467 C463 0.930 . S
H468 C457 0.930 . S
H469 C486 0.930 . S
H470 C458 0.953 . S
H471 C459 0.930 . S
H472 C453 0.929 . S
H473 C491 0.930 . S
H474 C482 0.930 . S
H475 C483 0.930 . S
H476 C507 0.929 . S
H477 C465 0.930 . S
H478 C466 0.929 . S
H479 C508 0.930 . S
H480 C489 0.930 . S
N481 Gd450 2.661 . S
N481 C485 1.350 . S
N481 C486 1.307 . S
C482 H474 0.930 . S
C482 C483 1.355 . S
C482 C484 1.412 . S
C483 H475 0.930 . S
C483 C482 1.355 . S
C483 C486 1.402 . S
C484 C482 1.412 . S
C484 C485 1.417 . S
C484 C508 1.431 . S
C485 N481 1.350 . S
C485 C484 1.417 . S
C485 C488 1.426 . S
C486 H469 0.930 . S
C486 N481 1.307 . S
C486 C483 1.402 . S
N487 Gd450 2.601 . S
N487 C488 1.359 . S
N487 C491 1.334 . S
C488 C485 1.426 . S
C488 N487 1.359 . S
C488 C492 1.413 . S
C489 H480 0.930 . S
C489 C490 1.359 . S
C489 C491 1.394 . S
C490 C489 1.359 . S
C490 C492 1.391 . S
C490 H493 0.929 . S
C491 H473 0.930 . S
C491 N487 1.334 . S
C491 C489 1.394 . S
C492 C488 1.413 . S
C492 C490 1.391 . S
C492 C507 1.437 . S
H493 C490 0.929 . S
O494 Gd450 2.545 . S
O494 C509 1.258 . S
O495 Gd450 2.606 . S
O495 Gd451 2.362 . S
O495 C506 1.284 . S
O496 Gd451 2.324 . S
O496 C516 1.254 . S
O497 Gd450 2.429 . S
O497 C516 1.268 . S
O498 Gd450 2.545 . S
O498 C506 1.250 . S
O499 Gd450 2.412 . S
O499 C509 1.252 . S
O500 Gd451 2.545 . S
O500 C518 1.258 . S
O501 Gd450 2.362 . S
O501 Gd451 2.606 . S
O501 C517 1.284 . S
O502 Gd450 2.324 . S
O502 C525 1.254 . S
O503 Gd451 2.429 . S
O503 C525 1.268 . S
O504 Gd451 2.545 . S
O504 C517 1.250 . S
O505 Gd451 2.412 . S
O505 C518 1.252 . S
C506 O495 1.284 . S
C506 O498 1.250 . S
C507 H476 0.929 . S
C507 C492 1.437 . S
C507 C508 1.317 . S
C508 H479 0.930 . S
C508 C484 1.431 . S
C508 C507 1.317 . S
C509 Gd450 2.828 . S
C509 O494 1.258 . S
C509 O499 1.252 . S
C509 C510 1.497 . S
C510 C509 1.497 . S
C510 C511 1.395 . S
C510 C512 1.380 . S
C511 C510 1.395 . S
C511 C514 1.398 . S
C511 H526 0.930 . S
C512 C510 1.380 . S
C512 C513 1.391 . S
C512 H527 0.930 . S
C513 C512 1.391 . S
C513 C515 1.387 . S
C514 C511 1.398 . S
C514 C515 1.380 . S
C514 H528 0.930 . S
C515 C513 1.387 . S
C515 C514 1.380 . S
C515 H529 0.930 . S
C516 O496 1.254 . S
C516 O497 1.268 . S
C517 O501 1.284 . S
C517 O504 1.250 . S
C518 Gd451 2.828 . S
C518 O500 1.258 . S
C518 O505 1.252 . S
C518 C519 1.497 . S
C519 C518 1.497 . S
C519 C520 1.395 . S
C519 C521 1.380 . S
C520 C519 1.395 . S
C520 C523 1.398 . S
C520 H530 0.930 . S
C521 C519 1.380 . S
C521 C522 1.391 . S
C521 H531 0.930 . S
C522 C521 1.391 . S
C522 C524 1.387 . S
C523 C520 1.398 . S
C523 C524 1.380 . S
C523 H532 0.930 . S
C524 C522 1.387 . S
C524 C523 1.380 . S
C524 H533 0.930 . S
C525 O502 1.254 . S
C525 O503 1.268 . S
H526 C511 0.930 . S
H527 C512 0.930 . S
H528 C514 0.930 . S
H529 C515 0.930 . S
H530 C520 0.930 . S
H531 C521 0.930 . S
H532 C523 0.930 . S
H533 C524 0.930 . S
Gd534 N565 2.661 . S
Gd534 N571 2.601 . S
Gd534 O578 2.545 . S
Gd534 O579 2.606 . S
Gd534 O581 2.429 . S
Gd534 O582 2.545 . S
Gd534 O583 2.412 . S
Gd534 O585 2.362 . S
Gd534 O586 2.324 . S
Gd534 C593 2.828 . S
Gd535 N544 2.661 . S
Gd535 N548 2.601 . S
Gd535 O579 2.362 . S
Gd535 O580 2.324 . S
Gd535 O584 2.545 . S
Gd535 O585 2.606 . S
Gd535 O587 2.429 . S
Gd535 O588 2.545 . S
Gd535 O589 2.412 . S
Gd535 C602 2.828 . S
C536 C539 1.417 . S
C536 C541 1.431 . S
C536 C542 1.412 . S
C537 C540 1.437 . S
C537 C541 1.317 . S
C537 H556 0.929 . S
C538 C539 1.426 . S
C538 C540 1.413 . S
C538 N548 1.359 . S
C539 C536 1.417 . S
C539 C538 1.426 . S
C539 N544 1.350 . S
C540 C537 1.437 . S
C540 C538 1.413 . S
C540 C550 1.391 . S
C541 C536 1.431 . S
C541 C537 1.317 . S
C541 H552 0.930 . S
C542 C536 1.412 . S
C542 C543 1.355 . S
C542 H554 0.930 . S
C543 C542 1.355 . S
C543 C545 1.402 . S
C543 H555 0.930 . S
N544 Gd535 2.661 . S
N544 C539 1.350 . S
N544 C545 1.307 . S
C545 C543 1.402 . S
C545 N544 1.307 . S
C545 H546 0.930 . S
H546 C545 0.930 . S
C547 N548 1.334 . S
C547 C549 1.394 . S
C547 H551 0.930 . S
N548 Gd535 2.601 . S
N548 C538 1.359 . S
N548 C547 1.334 . S
C549 C547 1.394 . S
C549 C550 1.359 . S
C549 H561 0.930 . S
C550 C540 1.391 . S
C550 C549 1.359 . S
C550 H562 0.929 . S
H551 C547 0.930 . S
H552 C541 0.930 . S
H553 C570 0.930 . S
H554 C542 0.930 . S
H555 C543 0.930 . S
H556 C537 0.929 . S
H557 C575 0.930 . S
H558 C566 0.930 . S
H559 C567 0.930 . S
H560 C591 0.929 . S
H561 C549 0.930 . S
H562 C550 0.929 . S
H563 C592 0.930 . S
H564 C573 0.930 . S
N565 Gd534 2.661 . S
N565 C569 1.350 . S
N565 C570 1.307 . S
C566 H558 0.930 . S
C566 C567 1.355 . S
C566 C568 1.412 . S
C567 H559 0.930 . S
C567 C566 1.355 . S
C567 C570 1.402 . S
C568 C566 1.412 . S
C568 C569 1.417 . S
C568 C592 1.431 . S
C569 N565 1.350 . S
C569 C568 1.417 . S
C569 C572 1.426 . S
C570 H553 0.930 . S
C570 N565 1.307 . S
C570 C567 1.402 . S
N571 Gd534 2.601 . S
N571 C572 1.359 . S
N571 C575 1.334 . S
C572 C569 1.426 . S
C572 N571 1.359 . S
C572 C576 1.413 . S
C573 H564 0.930 . S
C573 C574 1.359 . S
C573 C575 1.394 . S
C574 C573 1.359 . S
C574 C576 1.391 . S
C574 H577 0.929 . S
C575 H557 0.930 . S
C575 N571 1.334 . S
C575 C573 1.394 . S
C576 C572 1.413 . S
C576 C574 1.391 . S
C576 C591 1.437 . S
H577 C574 0.929 . S
O578 Gd534 2.545 . S
O578 C593 1.258 . S
O579 Gd534 2.606 . S
O579 Gd535 2.362 . S
O579 C590 1.284 . S
O580 Gd535 2.324 . S
O580 C600 1.254 . S
O581 Gd534 2.429 . S
O581 C600 1.268 . S
O582 Gd534 2.545 . S
O582 C590 1.250 . S
O583 Gd534 2.412 . S
O583 C593 1.252 . S
O584 Gd535 2.545 . S
O584 C602 1.258 . S
O585 Gd534 2.362 . S
O585 Gd535 2.606 . S
O585 C601 1.284 . S
O586 Gd534 2.324 . S
O586 C609 1.254 . S
O587 Gd535 2.429 . S
O587 C609 1.268 . S
O588 Gd535 2.545 . S
O588 C601 1.250 . S
O589 Gd535 2.412 . S
O589 C602 1.252 . S
C590 O579 1.284 . S
C590 O582 1.250 . S
C591 H560 0.929 . S
C591 C576 1.437 . S
C591 C592 1.317 . S
C592 H563 0.930 . S
C592 C568 1.431 . S
C592 C591 1.317 . S
C593 Gd534 2.828 . S
C593 O578 1.258 . S
C593 O583 1.252 . S
C593 C594 1.497 . S
C594 C593 1.497 . S
C594 C595 1.395 . S
C594 C596 1.380 . S
C595 C594 1.395 . S
C595 C598 1.398 . S
C595 H610 0.930 . S
C596 C594 1.380 . S
C596 C597 1.391 . S
C596 H611 0.930 . S
C597 C596 1.391 . S
C597 C599 1.387 . S
C598 C595 1.398 . S
C598 C599 1.380 . S
C598 H612 0.930 . S
C599 C597 1.387 . S
C599 C598 1.380 . S
C599 H613 0.930 . S
C600 O580 1.254 . S
C600 O581 1.268 . S
C601 O585 1.284 . S
C601 O588 1.250 . S
C602 Gd535 2.828 . S
C602 O584 1.258 . S
C602 O589 1.252 . S
C602 C603 1.497 . S
C603 C602 1.497 . S
C603 C604 1.395 . S
C603 C605 1.380 . S
C604 C603 1.395 . S
C604 C607 1.398 . S
C604 H614 0.930 . S
C605 C603 1.380 . S
C605 C606 1.391 . S
C605 H615 0.930 . S
C606 C605 1.391 . S
C606 C608 1.387 . S
C607 C604 1.398 . S
C607 C608 1.380 . S
C607 H616 0.930 . S
C608 C606 1.387 . S
C608 C607 1.380 . S
C608 H617 0.930 . S
C609 O586 1.254 . S
C609 O587 1.268 . S
H610 C595 0.930 . S
H611 C596 0.930 . S
H612 C598 0.930 . S
H613 C599 0.930 . S
H614 C604 0.930 . S
H615 C605 0.930 . S
H616 C607 0.930 . S
H617 C608 0.930 . S
Gd618 N649 2.661 . S
Gd618 N655 2.601 . S
Gd618 O662 2.545 . S
Gd618 O663 2.606 . S
Gd618 O665 2.429 . S
Gd618 O666 2.545 . S
Gd618 O667 2.412 . S
Gd618 O669 2.362 . S
Gd618 O670 2.324 . S
Gd618 C677 2.828 . S
Gd619 N628 2.661 . S
Gd619 N632 2.601 . S
Gd619 O663 2.362 . S
Gd619 O664 2.324 . S
Gd619 O668 2.545 . S
Gd619 O669 2.606 . S
Gd619 O671 2.429 . S
Gd619 O672 2.545 . S
Gd619 O673 2.412 . S
Gd619 C686 2.828 . S
C620 C623 1.417 . S
C620 C625 1.431 . S
C620 C626 1.412 . S
C621 C624 1.437 . S
C621 C625 1.317 . S
C621 H640 0.929 . S
C622 C623 1.426 . S
C622 C624 1.413 . S
C622 N632 1.359 . S
C623 C620 1.417 . S
C623 C622 1.426 . S
C623 N628 1.350 . S
C624 C621 1.437 . S
C624 C622 1.413 . S
C624 C634 1.391 . S
C625 C620 1.431 . S
C625 C621 1.317 . S
C625 H636 0.930 . S
C626 C620 1.412 . S
C626 C627 1.355 . S
C626 H638 0.930 . S
C627 C626 1.355 . S
C627 C629 1.402 . S
C627 H639 0.930 . S
N628 Gd619 2.661 . S
N628 C623 1.350 . S
N628 C629 1.307 . S
C629 C627 1.402 . S
C629 N628 1.307 . S
C629 H630 0.930 . S
H630 C629 0.930 . S
C631 N632 1.334 . S
C631 C633 1.394 . S
C631 H635 0.930 . S
N632 Gd619 2.601 . S
N632 C622 1.359 . S
N632 C631 1.334 . S
C633 C631 1.394 . S
C633 C634 1.359 . S
C633 H645 0.930 . S
C634 C624 1.391 . S
C634 C633 1.359 . S
C634 H646 0.929 . S
H635 C631 0.930 . S
H636 C625 0.930 . S
H637 C654 0.930 . S
H638 C626 0.930 . S
H639 C627 0.930 . S
H640 C621 0.929 . S
H641 C659 0.930 . S
H642 C650 0.930 . S
H643 C651 0.930 . S
H644 C675 0.929 . S
H645 C633 0.930 . S
H646 C634 0.929 . S
H647 C676 0.930 . S
H648 C657 0.930 . S
N649 Gd618 2.661 . S
N649 C653 1.350 . S
N649 C654 1.307 . S
C650 H642 0.930 . S
C650 C651 1.355 . S
C650 C652 1.412 . S
C651 H643 0.930 . S
C651 C650 1.355 . S
C651 C654 1.402 . S
C652 C650 1.412 . S
C652 C653 1.417 . S
C652 C676 1.431 . S
C653 N649 1.350 . S
C653 C652 1.417 . S
C653 C656 1.426 . S
C654 H637 0.930 . S
C654 N649 1.307 . S
C654 C651 1.402 . S
N655 Gd618 2.601 . S
N655 C656 1.359 . S
N655 C659 1.334 . S
C656 C653 1.426 . S
C656 N655 1.359 . S
C656 C660 1.413 . S
C657 H648 0.930 . S
C657 C658 1.359 . S
C657 C659 1.394 . S
C658 C657 1.359 . S
C658 C660 1.391 . S
C658 H661 0.929 . S
C659 H641 0.930 . S
C659 N655 1.334 . S
C659 C657 1.394 . S
C660 C656 1.413 . S
C660 C658 1.391 . S
C660 C675 1.437 . S
H661 C658 0.929 . S
O662 Gd618 2.545 . S
O662 C677 1.258 . S
O663 Gd618 2.606 . S
O663 Gd619 2.362 . S
O663 C674 1.284 . S
O664 Gd619 2.324 . S
O664 C684 1.254 . S
O665 Gd618 2.429 . S
O665 C684 1.268 . S
O666 Gd618 2.545 . S
O666 C674 1.250 . S
O667 Gd618 2.412 . S
O667 C677 1.252 . S
O668 Gd619 2.545 . S
O668 C686 1.258 . S
O669 Gd618 2.362 . S
O669 Gd619 2.606 . S
O669 C685 1.284 . S
O670 Gd618 2.324 . S
O670 C693 1.254 . S
O671 Gd619 2.429 . S
O671 C693 1.268 . S
O672 Gd619 2.545 . S
O672 C685 1.250 . S
O673 Gd619 2.412 . S
O673 C686 1.252 . S
C674 O663 1.284 . S
C674 O666 1.250 . S
C675 H644 0.929 . S
C675 C660 1.437 . S
C675 C676 1.317 . S
C676 H647 0.930 . S
C676 C652 1.431 . S
C676 C675 1.317 . S
C677 Gd618 2.828 . S
C677 O662 1.258 . S
C677 O667 1.252 . S
C677 C678 1.497 . S
C678 C677 1.497 . S
C678 C679 1.395 . S
C678 C680 1.380 . S
C679 C678 1.395 . S
C679 C682 1.398 . S
C679 H694 0.930 . S
C680 C678 1.380 . S
C680 C681 1.391 . S
C680 H695 0.930 . S
C681 C680 1.391 . S
C681 C683 1.387 . S
C682 C679 1.398 . S
C682 C683 1.380 . S
C682 H696 0.930 . S
C683 C681 1.387 . S
C683 C682 1.380 . S
C683 H697 0.930 . S
C684 O664 1.254 . S
C684 O665 1.268 . S
C685 O669 1.284 . S
C685 O672 1.250 . S
C686 Gd619 2.828 . S
C686 O668 1.258 . S
C686 O673 1.252 . S
C686 C687 1.497 . S
C687 C686 1.497 . S
C687 C688 1.395 . S
C687 C689 1.380 . S
C688 C687 1.395 . S
C688 C691 1.398 . S
C688 H698 0.930 . S
C689 C687 1.380 . S
C689 C690 1.391 . S
C689 H699 0.930 . S
C690 C689 1.391 . S
C690 C692 1.387 . S
C691 C688 1.398 . S
C691 C692 1.380 . S
C691 H700 0.930 . S
C692 C690 1.387 . S
C692 C691 1.380 . S
C692 H701 0.930 . S
C693 O670 1.254 . S
C693 O671 1.268 . S
H694 C679 0.930 . S
H695 C680 0.930 . S
H696 C682 0.930 . S
H697 C683 0.930 . S
H698 C688 0.930 . S
H699 C689 0.930 . S
H700 C691 0.930 . S
H701 C692 0.930 . S
Gd702 N733 2.661 . S
Gd702 N739 2.601 . S
Gd702 O746 2.545 . S
Gd702 O747 2.606 . S
Gd702 O749 2.429 . S
Gd702 O750 2.545 . S
Gd702 O751 2.412 . S
Gd702 O753 2.362 . S
Gd702 O754 2.324 . S
Gd702 C761 2.828 . S
Gd703 N712 2.661 . S
Gd703 N716 2.601 . S
Gd703 O747 2.362 . S
Gd703 O748 2.324 . S
Gd703 O752 2.545 . S
Gd703 O753 2.606 . S
Gd703 O755 2.429 . S
Gd703 O756 2.545 . S
Gd703 O757 2.412 . S
Gd703 C770 2.828 . S
C704 C707 1.417 . S
C704 C709 1.431 . S
C704 C710 1.412 . S
C705 C708 1.437 . S
C705 C709 1.317 . S
C705 H724 0.929 . S
C706 C707 1.426 . S
C706 C708 1.413 . S
C706 N716 1.359 . S
C707 C704 1.417 . S
C707 C706 1.426 . S
C707 N712 1.350 . S
C708 C705 1.437 . S
C708 C706 1.413 . S
C708 C718 1.391 . S
C709 C704 1.431 . S
C709 C705 1.317 . S
C709 H720 0.930 . S
C710 C704 1.412 . S
C710 C711 1.355 . S
C710 H722 0.930 . S
C711 C710 1.355 . S
C711 C713 1.402 . S
C711 H723 0.930 . S
N712 Gd703 2.661 . S
N712 C707 1.350 . S
N712 C713 1.307 . S
C713 C711 1.402 . S
C713 N712 1.307 . S
C713 H714 0.930 . S
H714 C713 0.930 . S
C715 N716 1.334 . S
C715 C717 1.394 . S
C715 H719 0.930 . S
N716 Gd703 2.601 . S
N716 C706 1.359 . S
N716 C715 1.334 . S
C717 C715 1.394 . S
C717 C718 1.359 . S
C717 H729 0.930 . S
C718 C708 1.391 . S
C718 C717 1.359 . S
C718 H730 0.929 . S
H719 C715 0.930 . S
H720 C709 0.930 . S
H721 C738 0.930 . S
H722 C710 0.930 . S
H723 C711 0.930 . S
H724 C705 0.929 . S
H725 C743 0.930 . S
H726 C734 0.930 . S
H727 C735 0.930 . S
H728 C759 0.929 . S
H729 C717 0.930 . S
H730 C718 0.929 . S
H731 C760 0.930 . S
H732 C741 0.930 . S
N733 Gd702 2.661 . S
N733 C737 1.350 . S
N733 C738 1.307 . S
C734 H726 0.930 . S
C734 C735 1.355 . S
C734 C736 1.412 . S
C735 H727 0.930 . S
C735 C734 1.355 . S
C735 C738 1.402 . S
C736 C734 1.412 . S
C736 C737 1.417 . S
C736 C760 1.431 . S
C737 N733 1.350 . S
C737 C736 1.417 . S
C737 C740 1.426 . S
C738 H721 0.930 . S
C738 N733 1.307 . S
C738 C735 1.402 . S
N739 Gd702 2.601 . S
N739 C740 1.359 . S
N739 C743 1.334 . S
C740 C737 1.426 . S
C740 N739 1.359 . S
C740 C744 1.413 . S
C741 H732 0.930 . S
C741 C742 1.359 . S
C741 C743 1.394 . S
C742 C741 1.359 . S
C742 C744 1.391 . S
C742 H745 0.929 . S
C743 H725 0.930 . S
C743 N739 1.334 . S
C743 C741 1.394 . S
C744 C740 1.413 . S
C744 C742 1.391 . S
C744 C759 1.437 . S
H745 C742 0.929 . S
O746 Gd702 2.545 . S
O746 C761 1.258 . S
O747 Gd702 2.606 . S
O747 Gd703 2.362 . S
O747 C758 1.284 . S
O748 Gd703 2.324 . S
O748 C768 1.254 . S
O749 Gd702 2.429 . S
O749 C768 1.268 . S
O750 Gd702 2.545 . S
O750 C758 1.250 . S
O751 Gd702 2.412 . S
O751 C761 1.252 . S
O752 Gd703 2.545 . S
O752 C770 1.258 . S
O753 Gd702 2.362 . S
O753 Gd703 2.606 . S
O753 C769 1.284 . S
O754 Gd702 2.324 . S
O754 C777 1.254 . S
O755 Gd703 2.429 . S
O755 C777 1.268 . S
O756 Gd703 2.545 . S
O756 C769 1.250 . S
O757 Gd703 2.412 . S
O757 C770 1.252 . S
C758 O747 1.284 . S
C758 O750 1.250 . S
C759 H728 0.929 . S
C759 C744 1.437 . S
C759 C760 1.317 . S
C760 H731 0.930 . S
C760 C736 1.431 . S
C760 C759 1.317 . S
C761 Gd702 2.828 . S
C761 O746 1.258 . S
C761 O751 1.252 . S
C761 C762 1.497 . S
C762 C761 1.497 . S
C762 C763 1.395 . S
C762 C764 1.380 . S
C763 C762 1.395 . S
C763 C766 1.398 . S
C763 H778 0.930 . S
C764 C762 1.380 . S
C764 C765 1.391 . S
C764 H779 0.930 . S
C765 C764 1.391 . S
C765 C767 1.387 . S
C766 C763 1.398 . S
C766 C767 1.380 . S
C766 H780 0.930 . S
C767 C765 1.387 . S
C767 C766 1.380 . S
C767 H781 0.930 . S
C768 O748 1.254 . S
C768 O749 1.268 . S
C769 O753 1.284 . S
C769 O756 1.250 . S
C770 Gd703 2.828 . S
C770 O752 1.258 . S
C770 O757 1.252 . S
C770 C771 1.497 . S
C771 C770 1.497 . S
C771 C772 1.395 . S
C771 C773 1.380 . S
C772 C771 1.395 . S
C772 C775 1.398 . S
C772 H782 0.930 . S
C773 C771 1.380 . S
C773 C774 1.391 . S
C773 H783 0.930 . S
C774 C773 1.391 . S
C774 C776 1.387 . S
C775 C772 1.398 . S
C775 C776 1.380 . S
C775 H784 0.930 . S
C776 C774 1.387 . S
C776 C775 1.380 . S
C776 H785 0.930 . S
C777 O754 1.254 . S
C777 O755 1.268 . S
H778 C763 0.930 . S
H779 C764 0.930 . S
H780 C766 0.930 . S
H781 C767 0.930 . S
H782 C772 0.930 . S
H783 C773 0.930 . S
H784 C775 0.930 . S
H785 C776 0.930 . S
Gd786 N817 2.661 . S
Gd786 N823 2.601 . S
Gd786 O830 2.545 . S
Gd786 O831 2.606 . S
Gd786 O833 2.429 . S
Gd786 O834 2.545 . S
Gd786 O835 2.412 . S
Gd786 O837 2.362 . S
Gd786 O838 2.324 . S
Gd786 C845 2.828 . S
Gd787 N796 2.661 . S
Gd787 N800 2.601 . S
Gd787 O831 2.362 . S
Gd787 O832 2.324 . S
Gd787 O836 2.545 . S
Gd787 O837 2.606 . S
Gd787 O839 2.429 . S
Gd787 O840 2.545 . S
Gd787 O841 2.412 . S
Gd787 C854 2.828 . S
C788 C791 1.417 . S
C788 C793 1.431 . S
C788 C794 1.412 . S
C789 C792 1.437 . S
C789 C793 1.317 . S
C789 H808 0.929 . S
C790 C791 1.426 . S
C790 C792 1.413 . S
C790 N800 1.359 . S
C791 C788 1.417 . S
C791 C790 1.426 . S
C791 N796 1.350 . S
C792 C789 1.437 . S
C792 C790 1.413 . S
C792 C802 1.391 . S
C793 C788 1.431 . S
C793 C789 1.317 . S
C793 H804 0.930 . S
C794 C788 1.412 . S
C794 C795 1.355 . S
C794 H806 0.930 . S
C795 C794 1.355 . S
C795 C797 1.402 . S
C795 H807 0.930 . S
N796 Gd787 2.661 . S
N796 C791 1.350 . S
N796 C797 1.307 . S
C797 C795 1.402 . S
C797 N796 1.307 . S
C797 H798 0.930 . S
H798 C797 0.930 . S
C799 N800 1.334 . S
C799 C801 1.394 . S
C799 H803 0.930 . S
N800 Gd787 2.601 . S
N800 C790 1.359 . S
N800 C799 1.334 . S
C801 C799 1.394 . S
C801 C802 1.359 . S
C801 H813 0.930 . S
C802 C792 1.391 . S
C802 C801 1.359 . S
C802 H814 0.929 . S
H803 C799 0.930 . S
H804 C793 0.930 . S
H805 C822 0.930 . S
H806 C794 0.930 . S
H807 C795 0.930 . S
H808 C789 0.929 . S
H809 C827 0.930 . S
H810 C818 0.930 . S
H811 C819 0.930 . S
H812 C843 0.929 . S
H813 C801 0.930 . S
H814 C802 0.929 . S
H815 C844 0.930 . S
H816 C825 0.930 . S
N817 Gd786 2.661 . S
N817 C821 1.350 . S
N817 C822 1.307 . S
C818 H810 0.930 . S
C818 C819 1.355 . S
C818 C820 1.412 . S
C819 H811 0.930 . S
C819 C818 1.355 . S
C819 C822 1.402 . S
C820 C818 1.412 . S
C820 C821 1.417 . S
C820 C844 1.431 . S
C821 N817 1.350 . S
C821 C820 1.417 . S
C821 C824 1.426 . S
C822 H805 0.930 . S
C822 N817 1.307 . S
C822 C819 1.402 . S
N823 Gd786 2.601 . S
N823 C824 1.359 . S
N823 C827 1.334 . S
C824 C821 1.426 . S
C824 N823 1.359 . S
C824 C828 1.413 . S
C825 H816 0.930 . S
C825 C826 1.359 . S
C825 C827 1.394 . S
C826 C825 1.359 . S
C826 C828 1.391 . S
C826 H829 0.929 . S
C827 H809 0.930 . S
C827 N823 1.334 . S
C827 C825 1.394 . S
C828 C824 1.413 . S
C828 C826 1.391 . S
C828 C843 1.437 . S
H829 C826 0.929 . S
O830 Gd786 2.545 . S
O830 C845 1.258 . S
O831 Gd786 2.606 . S
O831 Gd787 2.362 . S
O831 C842 1.284 . S
O832 Gd787 2.324 . S
O832 C852 1.254 . S
O833 Gd786 2.429 . S
O833 C852 1.268 . S
O834 Gd786 2.545 . S
O834 C842 1.250 . S
O835 Gd786 2.412 . S
O835 C845 1.252 . S
O836 Gd787 2.545 . S
O836 C854 1.258 . S
O837 Gd786 2.362 . S
O837 Gd787 2.606 . S
O837 C853 1.284 . S
O838 Gd786 2.324 . S
O838 C861 1.254 . S
O839 Gd787 2.429 . S
O839 C861 1.268 . S
O840 Gd787 2.545 . S
O840 C853 1.250 . S
O841 Gd787 2.412 . S
O841 C854 1.252 . S
C842 O831 1.284 . S
C842 O834 1.250 . S
C843 H812 0.929 . S
C843 C828 1.437 . S
C843 C844 1.317 . S
C844 H815 0.930 . S
C844 C820 1.431 . S
C844 C843 1.317 . S
C845 Gd786 2.828 . S
C845 O830 1.258 . S
C845 O835 1.252 . S
C845 C846 1.497 . S
C846 C845 1.497 . S
C846 C847 1.395 . S
C846 C848 1.380 . S
C847 C846 1.395 . S
C847 C850 1.398 . S
C847 H862 0.930 . S
C848 C846 1.380 . S
C848 C849 1.391 . S
C848 H863 0.930 . S
C849 C848 1.391 . S
C849 C851 1.387 . S
C850 C847 1.398 . S
C850 C851 1.380 . S
C850 H864 0.930 . S
C851 C849 1.387 . S
C851 C850 1.380 . S
C851 H865 0.930 . S
C852 O832 1.254 . S
C852 O833 1.268 . S
C853 O837 1.284 . S
C853 O840 1.250 . S
C854 Gd787 2.828 . S
C854 O836 1.258 . S
C854 O841 1.252 . S
C854 C855 1.497 . S
C855 C854 1.497 . S
C855 C856 1.395 . S
C855 C857 1.380 . S
C856 C855 1.395 . S
C856 C859 1.398 . S
C856 H866 0.930 . S
C857 C855 1.380 . S
C857 C858 1.391 . S
C857 H867 0.930 . S
C858 C857 1.391 . S
C858 C860 1.387 . S
C859 C856 1.398 . S
C859 C860 1.380 . S
C859 H868 0.930 . S
C860 C858 1.387 . S
C860 C859 1.380 . S
C860 H869 0.930 . S
C861 O838 1.254 . S
C861 O839 1.268 . S
H862 C847 0.930 . S
H863 C848 0.930 . S
H864 C850 0.930 . S
H865 C851 0.930 . S
H866 C856 0.930 . S
H867 C857 0.930 . S
H868 C859 0.930 . S
H869 C860 0.930 . S
Gd870 N901 2.661 . S
Gd870 N907 2.601 . S
Gd870 O914 2.545 . S
Gd870 O915 2.606 . S
Gd870 O917 2.429 . S
Gd870 O918 2.545 . S
Gd870 O919 2.412 . S
Gd870 O921 2.362 . S
Gd870 O922 2.324 . S
Gd870 C929 2.828 . S
Gd871 N880 2.661 . S
Gd871 N884 2.601 . S
Gd871 O915 2.362 . S
Gd871 O916 2.324 . S
Gd871 O920 2.545 . S
Gd871 O921 2.606 . S
Gd871 O923 2.429 . S
Gd871 O924 2.545 . S
Gd871 O925 2.412 . S
Gd871 C938 2.828 . S
C872 C875 1.417 . S
C872 C877 1.431 . S
C872 C878 1.412 . S
C873 C876 1.437 . S
C873 C877 1.317 . S
C873 H892 0.929 . S
C874 C875 1.426 . S
C874 C876 1.413 . S
C874 N884 1.359 . S
C875 C872 1.417 . S
C875 C874 1.426 . S
C875 N880 1.350 . S
C876 C873 1.437 . S
C876 C874 1.413 . S
C876 C886 1.391 . S
C877 C872 1.431 . S
C877 C873 1.317 . S
C877 H888 0.930 1_655 S
C878 C872 1.412 . S
C878 C879 1.355 . S
C878 H890 0.930 1_655 S
C879 C878 1.355 . S
C879 C881 1.402 . S
C879 H891 0.930 . S
N880 Gd871 2.661 . S
N880 C875 1.350 . S
N880 C881 1.307 . S
C881 C879 1.402 . S
C881 N880 1.307 . S
C881 H882 0.930 . S
H882 C881 0.930 . S
C883 N884 1.334 . S
C883 C885 1.394 . S
C883 H887 0.930 . S
N884 Gd871 2.601 . S
N884 C874 1.359 . S
N884 C883 1.334 . S
C885 C883 1.394 . S
C885 C886 1.359 . S
C885 H897 0.930 . S
C886 C876 1.391 . S
C886 C885 1.359 . S
C886 H898 0.929 . S
H887 C883 0.930 . S
H888 C877 0.930 1_455 S
H889 C906 0.930 . S
H890 C878 0.930 1_455 S
H891 C879 0.930 . S
H892 C873 0.929 . S
H893 C911 0.930 . S
H894 C902 0.930 . S
H895 C903 0.930 . S
H896 C927 0.929 . S
H897 C885 0.930 . S
H898 C886 0.929 . S
H899 C928 0.930 . S
H900 C909 0.930 . S
N901 Gd870 2.661 . S
N901 C905 1.350 . S
N901 C906 1.307 . S
C902 H894 0.930 . S
C902 C903 1.355 . S
C902 C904 1.412 . S
C903 H895 0.930 . S
C903 C902 1.355 . S
C903 C906 1.402 . S
C904 C902 1.412 . S
C904 C905 1.417 . S
C904 C928 1.431 . S
C905 N901 1.350 . S
C905 C904 1.417 . S
C905 C908 1.426 . S
C906 H889 0.930 . S
C906 N901 1.307 . S
C906 C903 1.402 . S
N907 Gd870 2.601 . S
N907 C908 1.359 . S
N907 C911 1.334 . S
C908 C905 1.426 . S
C908 N907 1.359 . S
C908 C912 1.413 . S
C909 H900 0.930 . S
C909 C910 1.359 . S
C909 C911 1.394 . S
C910 C909 1.359 . S
C910 C912 1.391 . S
C910 H913 0.929 . S
C911 H893 0.930 . S
C911 N907 1.334 . S
C911 C909 1.394 . S
C912 C908 1.413 . S
C912 C910 1.391 . S
C912 C927 1.437 . S
H913 C910 0.929 . S
O914 Gd870 2.545 . S
O914 C929 1.258 . S
O915 Gd870 2.606 . S
O915 Gd871 2.362 . S
O915 C926 1.284 . S
O916 Gd871 2.324 . S
O916 C936 1.254 . S
O917 Gd870 2.429 . S
O917 C936 1.268 . S
O918 Gd870 2.545 . S
O918 C926 1.250 . S
O919 Gd870 2.412 . S
O919 C929 1.252 . S
O920 Gd871 2.545 . S
O920 C938 1.258 . S
O921 Gd870 2.362 . S
O921 Gd871 2.606 . S
O921 C937 1.284 . S
O922 Gd870 2.324 . S
O922 C945 1.254 . S
O923 Gd871 2.429 . S
O923 C945 1.268 . S
O924 Gd871 2.545 . S
O924 C937 1.250 . S
O925 Gd871 2.412 . S
O925 C938 1.252 . S
C926 O915 1.284 . S
C926 O918 1.250 . S
C927 H896 0.929 . S
C927 C912 1.437 . S
C927 C928 1.317 . S
C928 H899 0.930 . S
C928 C904 1.431 . S
C928 C927 1.317 . S
C929 Gd870 2.828 . S
C929 O914 1.258 . S
C929 O919 1.252 . S
C929 C930 1.497 . S
C930 C929 1.497 . S
C930 C931 1.395 . S
C930 C932 1.380 . S
C931 C930 1.395 . S
C931 C934 1.398 . S
C931 H946 0.930 . S
C932 C930 1.380 . S
C932 C933 1.391 . S
C932 H947 0.930 . S
C933 C932 1.391 . S
C933 C935 1.387 . S
C934 C931 1.398 . S
C934 C935 1.380 . S
C934 H948 0.930 . S
C935 C933 1.387 . S
C935 C934 1.380 . S
C935 H949 0.930 . S
C936 O916 1.254 . S
C936 O917 1.268 . S
C937 O921 1.284 . S
C937 O924 1.250 . S
C938 Gd871 2.828 . S
C938 O920 1.258 . S
C938 O925 1.252 . S
C938 C939 1.497 . S
C939 C938 1.497 . S
C939 C940 1.395 . S
C939 C941 1.380 . S
C940 C939 1.395 . S
C940 C943 1.398 . S
C940 H950 0.930 . S
C941 C939 1.380 . S
C941 C942 1.391 . S
C941 H951 0.930 . S
C942 C941 1.391 . S
C942 C944 1.387 . S
C943 C940 1.398 . S
C943 C944 1.380 . S
C943 H952 0.930 . S
C944 C942 1.387 . S
C944 C943 1.380 . S
C944 H953 0.930 . S
C945 O922 1.254 . S
C945 O923 1.268 . S
H946 C931 0.930 . S
H947 C932 0.930 . S
H948 C934 0.930 . S
H949 C935 0.930 . S
H950 C940 0.930 . S
H951 C941 0.930 . S
H952 C943 0.930 . S
H953 C944 0.930 . S
H954 C960 0.930 . S
H955 C964 0.930 . S
H956 C969 0.929 . S
H957 C967 0.929 . S
H958 C962 0.929 . S
H959 C968 0.929 . S
C960 H954 0.930 . S
C960 C961 1.367 . S
C960 C968 1.378 . S
C961 C960 1.367 . S
C961 C969 1.433 . S
C962 H958 0.929 . S
C962 C964 1.378 . S
C962 C966 1.350 . S
C963 C966 1.463 . S
C963 C968 1.350 . S
C963 N971 1.427 . S
C964 H955 0.930 . S
C964 C962 1.378 . S
C964 C965 1.367 . S
C965 C964 1.367 . S
C965 C967 1.433 . S
C966 C962 1.350 . S
C966 C963 1.463 . S
C966 N970 1.427 . S
C967 H957 0.929 . S
C967 C965 1.433 . S
C967 N970 1.384 . S
C968 H959 0.929 . S
C968 C960 1.378 . S
C968 C963 1.350 . S
C969 H956 0.929 . S
C969 C961 1.433 . S
C969 N971 1.384 . S
N970 C966 1.427 . S
N970 C967 1.384 . S
N971 C963 1.427 . S
N971 C969 1.384 . S
H972 C978 0.930 . S
H973 C982 0.930 . S
H974 C987 0.929 . S
H975 C985 0.984 . S
H976 C980 0.929 . S
H977 C986 0.929 . S
C978 H972 0.930 . S
C978 C979 1.367 . S
C978 C986 1.378 . S
C979 C978 1.367 . S
C979 C987 1.433 . S
C980 H976 0.929 . S
C980 C982 1.378 . S
C980 C984 1.350 . S
C981 C984 1.463 . S
C981 C986 1.350 . S
C981 N989 1.427 . S
C982 H973 0.930 . S
C982 C980 1.378 . S
C982 C983 1.367 . S
C983 C982 1.367 . S
C983 C985 1.433 . S
C984 C980 1.350 . S
C984 C981 1.463 . S
C984 N988 1.427 . S
C985 H975 0.984 . S
C985 C983 1.433 . S
C985 N988 1.384 . S
C986 H977 0.929 . S
C986 C978 1.378 . S
C986 C981 1.350 . S
C987 H974 0.929 . S
C987 C979 1.433 . S
C987 N989 1.384 . S
N988 C984 1.427 . S
N988 C985 1.384 . S
N989 C981 1.427 . S
N989 C987 1.384 . S
H990 C996 0.930 . S
H991 C1000 0.930 . S
H992 C1005 0.929 . S
H993 C1003 0.929 . S
H994 C998 0.929 . S
H995 C1004 0.929 . S
C996 H990 0.930 . S
C996 C997 1.367 . S
C996 C1004 1.378 . S
C997 C996 1.367 . S
C997 C1005 1.433 . S
C998 H994 0.929 . S
C998 C1000 1.378 . S
C998 C1002 1.350 . S
C999 C1002 1.463 . S
C999 C1004 1.350 . S
C999 N1007 1.427 . S
C1000 H991 0.930 . S
C1000 C998 1.378 . S
C1000 C1001 1.367 . S
C1001 C1000 1.367 . S
C1001 C1003 1.433 . S
C1002 C998 1.350 . S
C1002 C999 1.463 . S
C1002 N1006 1.427 . S
C1003 H993 0.929 . S
C1003 C1001 1.433 . S
C1003 N1006 1.384 . S
C1004 H995 0.929 . S
C1004 C996 1.378 . S
C1004 C999 1.350 . S
C1005 H992 0.929 . S
C1005 C997 1.433 . S
C1005 N1007 1.384 . S
N1006 C1002 1.427 . S
N1006 C1003 1.384 . S
N1007 C999 1.427 . S
N1007 C1005 1.384 . S
H1008 C1014 0.930 . S
H1009 C1018 0.930 . S
H1010 C1023 0.929 . S
H1011 C1021 0.929 . S
H1012 C1016 0.929 . S
H1013 C1022 0.929 1_554 S
C1014 H1008 0.930 . S
C1014 C1015 1.367 . S
C1014 C1022 1.378 . S
C1015 C1014 1.367 . S
C1015 C1023 1.433 . S
C1016 H1012 0.929 . S
C1016 C1018 1.378 . S
C1016 C1020 1.350 . S
C1017 C1020 1.463 . S
C1017 C1022 1.350 . S
C1017 N1025 1.427 . S
C1018 H1009 0.930 . S
C1018 C1016 1.378 . S
C1018 C1019 1.367 . S
C1019 C1018 1.367 . S
C1019 C1021 1.433 1_556 S
C1020 C1016 1.350 . S
C1020 C1017 1.463 . S
C1020 N1024 1.427 1_556 S
C1021 H1011 0.929 . S
C1021 C1019 1.433 1_554 S
C1021 N1024 1.384 . S
C1022 H1013 0.929 1_556 S
C1022 C1014 1.378 . S
C1022 C1017 1.350 . S
C1023 H1010 0.929 . S
C1023 C1015 1.433 . S
C1023 N1025 1.384 . S
N1024 C1020 1.427 1_554 S
N1024 C1021 1.384 . S
N1025 C1017 1.427 . S
N1025 C1023 1.384 . S
H1026 C1032 0.930 . S
H1027 C1036 0.962 . S
H1028 C1041 0.929 . S
H1029 C1039 0.929 . S
H1030 C1034 0.929 . S
H1031 C1040 0.929 . S
C1032 H1026 0.930 . S
C1032 C1033 1.367 . S
C1032 C1040 1.378 . S
C1033 C1032 1.367 . S
C1033 C1041 1.433 . S
C1034 H1030 0.929 . S
C1034 C1036 1.362 1_556 S
C1034 C1038 1.350 . S
C1035 C1038 1.463 . S
C1035 C1040 1.350 . S
C1035 N1043 1.427 . S
C1036 H1027 0.962 . S
C1036 C1034 1.362 1_554 S
C1036 C1037 1.353 1_554 S
C1037 C1036 1.353 1_556 S
C1037 C1039 1.433 . S
C1038 C1034 1.350 . S
C1038 C1035 1.463 . S
C1038 N1042 1.427 . S
C1039 H1029 0.929 . S
C1039 C1037 1.433 . S
C1039 N1042 1.384 . S
C1040 H1031 0.929 . S
C1040 C1032 1.378 . S
C1040 C1035 1.350 . S
C1041 H1028 0.929 . S
C1041 C1033 1.433 . S
C1041 N1043 1.384 . S
N1042 C1038 1.427 . S
N1042 C1039 1.384 . S
N1043 C1035 1.427 . S
N1043 C1041 1.384 . S
H1044 C1050 0.930 . S
H1045 C1054 0.930 . S
H1046 C1059 0.929 . S
H1047 C1057 0.929 . S
H1048 C1052 0.940 . S
H1049 C1058 0.929 . S
C1050 H1044 0.930 . S
C1050 C1051 1.367 . S
C1050 C1058 1.378 . S
C1051 C1050 1.367 . S
C1051 C1059 1.433 . S
C1052 H1048 0.940 . S
C1052 C1054 1.384 . S
C1052 C1056 1.333 1_554 S
C1053 C1056 1.463 . S
C1053 C1058 1.350 . S
C1053 N1061 1.427 . S
C1054 H1045 0.930 . S
C1054 C1052 1.384 . S
C1054 C1055 1.367 1_554 S
C1055 C1054 1.367 1_556 S
C1055 C1057 1.433 . S
C1056 C1052 1.333 1_556 S
C1056 C1053 1.463 . S
C1056 N1060 1.427 . S
C1057 H1047 0.929 . S
C1057 C1055 1.433 . S
C1057 N1060 1.384 . S
C1058 H1049 0.929 . S
C1058 C1050 1.378 . S
C1058 C1053 1.350 . S
C1059 H1046 0.929 . S
C1059 C1051 1.433 . S
C1059 N1061 1.384 . S
N1060 C1056 1.427 . S
N1060 C1057 1.384 . S
N1061 C1053 1.427 . S
N1061 C1059 1.384 . S
H1062 C1068 0.933 . S
H1063 C1072 0.930 . S
H1064 C1077 0.929 . S
H1065 C1075 0.929 . S
H1066 C1070 0.929 . S
H1067 C1076 0.929 1_554 S
C1068 H1062 0.933 . S
C1068 C1069 1.367 . S
C1068 C1076 1.378 . S
C1069 C1068 1.367 . S
C1069 C1077 1.433 . S
C1070 H1066 0.929 . S
C1070 C1072 1.378 . S
C1070 C1074 1.350 . S
C1071 C1074 1.463 . S
C1071 C1076 1.350 . S
C1071 N1079 1.427 . S
C1072 H1063 0.930 . S
C1072 C1070 1.378 . S
C1072 C1073 1.367 . S
C1073 C1072 1.367 . S
C1073 C1075 1.433 1_556 S
C1074 C1070 1.350 . S
C1074 C1071 1.463 . S
C1074 N1078 1.427 1_556 S
C1075 H1065 0.929 . S
C1075 C1073 1.433 1_554 S
C1075 N1078 1.384 . S
C1076 H1067 0.929 1_556 S
C1076 C1068 1.378 . S
C1076 C1071 1.350 . S
C1077 H1064 0.929 . S
C1077 C1069 1.433 . S
C1077 N1079 1.384 . S
N1078 C1074 1.427 1_554 S
N1078 C1075 1.384 . S
N1079 C1071 1.427 . S
N1079 C1077 1.384 . S
H1080 C1086 0.930 . S
H1081 C1090 0.930 . S
H1082 C1095 0.929 . S
H1083 C1093 0.929 . S
H1084 C1088 0.929 . S
H1085 C1094 0.929 . S
C1086 H1080 0.930 . S
C1086 C1087 1.367 . S
C1086 C1094 1.378 . S
C1087 C1086 1.367 . S
C1087 C1095 1.433 . S
C1088 H1084 0.929 . S
C1088 C1090 1.378 . S
C1088 C1092 1.350 1_554 S
C1089 C1092 1.463 . S
C1089 C1094 1.350 . S
C1089 N1097 1.427 . S
C1090 H1081 0.930 . S
C1090 C1088 1.378 . S
C1090 C1091 1.367 1_554 S
C1091 C1090 1.367 1_556 S
C1091 C1093 1.433 . S
C1092 C1088 1.350 1_556 S
C1092 C1089 1.463 . S
C1092 N1096 1.427 . S
C1093 H1083 0.929 . S
C1093 C1091 1.433 . S
C1093 N1096 1.384 . S
C1094 H1085 0.929 . S
C1094 C1086 1.378 . S
C1094 C1089 1.350 . S
C1095 H1082 0.929 . S
C1095 C1087 1.433 . S
C1095 N1097 1.384 . S
N1096 C1092 1.427 . S
N1096 C1093 1.384 . S
N1097 C1089 1.427 . S
N1097 C1095 1.384 . S
H1098 C1104 0.930 . S
H1099 C1108 0.930 . S
H1100 C1113 0.929 . S
H1101 C1111 0.929 . S
H1102 C1106 0.929 . S
H1103 C1112 0.928 . S
C1104 H1098 0.930 . S
C1104 C1105 1.367 . S
C1104 C1112 1.378 . S
C1105 C1104 1.367 . S
C1105 C1113 1.433 . S
C1106 H1102 0.929 . S
C1106 C1108 1.378 . S
C1106 C1110 1.350 . S
C1107 C1110 1.463 . S
C1107 C1112 1.350 . S
C1107 N1115 1.427 . S
C1108 H1099 0.930 . S
C1108 C1106 1.378 . S
C1108 C1109 1.367 . S
C1109 C1108 1.367 . S
C1109 C1111 1.433 1_556 S
C1110 C1106 1.350 . S
C1110 C1107 1.463 . S
C1110 N1114 1.412 1_556 S
C1111 H1101 0.929 . S
C1111 C1109 1.433 1_554 S
C1111 N1114 1.389 . S
C1112 H1103 0.928 . S
C1112 C1104 1.378 . S
C1112 C1107 1.350 . S
C1113 H1100 0.929 . S
C1113 C1105 1.433 . S
C1113 N1115 1.384 . S
N1114 C1110 1.412 1_554 S
N1114 C1111 1.389 . S
N1115 C1107 1.427 . S
N1115 C1113 1.384 . S
H1116 C1122 0.930 . S
H1117 C1126 0.930 . S
H1118 C1131 0.929 . S
H1119 C1129 0.929 . S
H1120 C1124 0.929 . S
H1121 C1130 0.929 . S
C1122 H1116 0.930 . S
C1122 C1123 1.367 . S
C1122 C1130 1.378 . S
C1123 C1122 1.367 . S
C1123 C1131 1.433 . S
C1124 H1120 0.929 . S
C1124 C1126 1.378 . S
C1124 C1128 1.350 . S
C1125 C1128 1.463 . S
C1125 C1130 1.350 . S
C1125 N1133 1.427 . S
C1126 H1117 0.930 . S
C1126 C1124 1.378 . S
C1126 C1127 1.367 . S
C1127 C1126 1.367 . S
C1127 C1129 1.433 . S
C1128 C1124 1.350 . S
C1128 C1125 1.463 . S
C1128 N1132 1.427 . S
C1129 H1119 0.929 . S
C1129 C1127 1.433 . S
C1129 N1132 1.384 . S
C1130 H1121 0.929 . S
C1130 C1122 1.378 . S
C1130 C1125 1.350 . S
C1131 H1118 0.929 . S
C1131 C1123 1.433 . S
C1131 N1133 1.384 . S
N1132 C1128 1.427 . S
N1132 C1129 1.384 . S
N1133 C1125 1.427 . S
N1133 C1131 1.384 . S
H1134 C1140 0.930 . S
H1135 C1144 0.930 . S
H1136 C1149 0.929 . S
H1137 C1147 0.929 . S
H1138 C1142 0.929 . S
H1139 C1148 0.929 . S
C1140 H1134 0.930 . S
C1140 C1141 1.367 . S
C1140 C1148 1.378 . S
C1141 C1140 1.367 . S
C1141 C1149 1.433 . S
C1142 H1138 0.929 . S
C1142 C1144 1.378 . S
C1142 C1146 1.350 . S
C1143 C1146 1.463 . S
C1143 C1148 1.350 . S
C1143 N1151 1.427 . S
C1144 H1135 0.930 . S
C1144 C1142 1.378 . S
C1144 C1145 1.367 . S
C1145 C1144 1.367 . S
C1145 C1147 1.433 . S
C1146 C1142 1.350 . S
C1146 C1143 1.463 . S
C1146 N1150 1.427 . S
C1147 H1137 0.929 . S
C1147 C1145 1.433 . S
C1147 N1150 1.384 . S
C1148 H1139 0.929 . S
C1148 C1140 1.378 . S
C1148 C1143 1.350 . S
C1149 H1136 0.929 . S
C1149 C1141 1.433 . S
C1149 N1151 1.384 . S
N1150 C1146 1.427 . S
N1150 C1147 1.384 . S
N1151 C1143 1.427 . S
N1151 C1149 1.384 . S
H1152 C1158 0.930 . S
H1153 C1162 0.930 . S
H1154 C1167 0.929 . S
H1155 C1165 0.929 . S
H1156 C1160 0.929 . S
H1157 C1166 0.929 . S
C1158 H1152 0.930 . S
C1158 C1159 1.367 . S
C1158 C1166 1.378 . S
C1159 C1158 1.367 . S
C1159 C1167 1.433 . S
C1160 H1156 0.929 . S
C1160 C1162 1.378 . S
C1160 C1164 1.350 . S
C1161 C1164 1.463 . S
C1161 C1166 1.350 . S
C1161 N1169 1.427 . S
C1162 H1153 0.930 . S
C1162 C1160 1.378 . S
C1162 C1163 1.367 . S
C1163 C1162 1.367 . S
C1163 C1165 1.433 . S
C1164 C1160 1.350 . S
C1164 C1161 1.463 . S
C1164 N1168 1.427 . S
C1165 H1155 0.929 . S
C1165 C1163 1.433 . S
C1165 N1168 1.384 . S
C1166 H1157 0.929 . S
C1166 C1158 1.378 . S
C1166 C1161 1.350 . S
C1167 H1154 0.929 . S
C1167 C1159 1.433 . S
C1167 N1169 1.384 . S
N1168 C1164 1.427 . S
N1168 C1165 1.384 . S
N1169 C1161 1.427 . S
N1169 C1167 1.384 . S
H1170 C1176 0.930 . S
H1171 C1180 0.930 . S
H1172 C1185 0.929 . S
H1173 C1183 0.929 . S
H1174 C1178 0.929 . S
H1175 C1184 0.929 . S
C1176 H1170 0.930 . S
C1176 C1177 1.367 . S
C1176 C1184 1.378 . S
C1177 C1176 1.367 . S
C1177 C1185 1.433 . S
C1178 H1174 0.929 . S
C1178 C1180 1.378 . S
C1178 C1182 1.350 . S
C1179 C1182 1.463 1_655 S
C1179 C1184 1.350 . S
C1179 N1187 1.427 . S
C1180 H1171 0.930 . S
C1180 C1178 1.378 . S
C1180 C1181 1.367 . S
C1181 C1180 1.367 . S
C1181 C1183 1.433 . S
C1182 C1178 1.350 . S
C1182 C1179 1.463 1_455 S
C1182 N1186 1.427 . S
C1183 H1173 0.929 . S
C1183 C1181 1.433 . S
C1183 N1186 1.384 . S
C1184 H1175 0.929 . S
C1184 C1176 1.378 . S
C1184 C1179 1.350 . S
C1185 H1172 0.929 . S
C1185 C1177 1.433 . S
C1185 N1187 1.384 . S
N1186 C1182 1.427 . S
N1186 C1183 1.384 . S
N1187 C1179 1.427 . S
N1187 C1185 1.384 . S
H1188 C1194 0.930 . S
H1189 C1198 0.930 . S
H1190 C1203 0.929 . S
H1191 C1201 0.929 . S
H1192 C1196 0.929 . S
H1193 C1202 0.929 . S
C1194 H1188 0.930 . S
C1194 C1195 1.367 . S
C1194 C1202 1.378 . S
C1195 C1194 1.367 . S
C1195 C1203 1.433 . S
C1196 H1192 0.929 . S
C1196 C1198 1.378 . S
C1196 C1200 1.350 . S
C1197 C1200 1.463 . S
C1197 C1202 1.350 . S
C1197 N1205 1.427 . S
C1198 H1189 0.930 . S
C1198 C1196 1.378 . S
C1198 C1199 1.367 . S
C1199 C1198 1.367 . S
C1199 C1201 1.433 . S
C1200 C1196 1.350 . S
C1200 C1197 1.463 . S
C1200 N1204 1.427 . S
C1201 H1191 0.929 . S
C1201 C1199 1.433 . S
C1201 N1204 1.384 . S
C1202 H1193 0.929 . S
C1202 C1194 1.378 . S
C1202 C1197 1.350 . S
C1203 H1190 0.929 . S
C1203 C1195 1.433 . S
C1203 N1205 1.384 . S
N1204 C1200 1.427 . S
N1204 C1201 1.384 . S
N1205 C1197 1.427 . S
N1205 C1203 1.384 . S
H1206 C1212 0.930 . S
H1207 C1216 0.930 . S
H1208 C1221 0.929 . S
H1209 C1219 0.929 . S
H1210 C1214 0.929 1_545 S
H1211 C1220 0.929 . S
C1212 H1206 0.930 . S
C1212 C1213 1.367 . S
C1212 C1220 1.378 . S
C1213 C1212 1.367 . S
C1213 C1221 1.433 . S
C1214 H1210 0.929 1_565 S
C1214 C1216 1.378 . S
C1214 C1218 1.350 . S
C1215 C1218 1.463 1_545 S
C1215 C1220 1.350 . S
C1215 N1223 1.427 . S
C1216 H1207 0.930 . S
C1216 C1214 1.378 . S
C1216 C1217 1.367 . S
C1217 C1216 1.367 . S
C1217 C1219 1.433 . S
C1218 C1214 1.350 . S
C1218 C1215 1.463 1_565 S
C1218 N1222 1.427 . S
C1219 H1209 0.929 . S
C1219 C1217 1.433 . S
C1219 N1222 1.384 . S
C1220 H1211 0.929 . S
C1220 C1212 1.378 . S
C1220 C1215 1.350 . S
C1221 H1208 0.929 . S
C1221 C1213 1.433 . S
C1221 N1223 1.384 . S
N1222 C1218 1.427 . S
N1222 C1219 1.384 . S
N1223 C1215 1.427 . S
N1223 C1221 1.384 . S
H1224 C1230 0.930 . S
H1225 C1234 0.930 . S
H1226 C1239 0.929 . S
H1227 C1237 0.929 . S
H1228 C1232 0.929 . S
H1229 C1238 0.929 . S
C1230 H1224 0.930 . S
C1230 C1231 1.367 . S
C1230 C1238 1.378 . S
C1231 C1230 1.367 . S
C1231 C1239 1.433 . S
C1232 H1228 0.929 . S
C1232 C1234 1.378 . S
C1232 C1236 1.350 . S
C1233 C1236 1.463 . S
C1233 C1238 1.350 . S
C1233 N1241 1.427 . S
C1234 H1225 0.930 . S
C1234 C1232 1.378 . S
C1234 C1235 1.367 . S
C1235 C1234 1.367 . S
C1235 C1237 1.433 . S
C1236 C1232 1.350 . S
C1236 C1233 1.463 . S
C1236 N1240 1.427 . S
C1237 H1227 0.929 . S
C1237 C1235 1.433 . S
C1237 N1240 1.384 . S
C1238 H1229 0.929 . S
C1238 C1230 1.378 . S
C1238 C1233 1.350 . S
C1239 H1226 0.929 . S
C1239 C1231 1.433 . S
C1239 N1241 1.384 . S
N1240 C1236 1.427 . S
N1240 C1237 1.384 . S
N1241 C1233 1.427 . S
N1241 C1239 1.384 . S
H1242 C1248 0.930 . S
H1243 C1252 0.930 . S
H1244 C1257 0.929 . S
H1245 C1255 0.929 . S
H1246 C1250 0.929 . S
H1247 C1256 0.929 . S
C1248 H1242 0.930 . S
C1248 C1249 1.367 . S
C1248 C1256 1.378 . S
C1249 C1248 1.367 . S
C1249 C1257 1.433 . S
C1250 H1246 0.929 . S
C1250 C1252 1.378 . S
C1250 C1254 1.350 . S
C1251 C1254 1.463 . S
C1251 C1256 1.350 . S
C1251 N1259 1.427 . S
C1252 H1243 0.930 . S
C1252 C1250 1.378 . S
C1252 C1253 1.367 . S
C1253 C1252 1.367 . S
C1253 C1255 1.433 . S
C1254 C1250 1.350 . S
C1254 C1251 1.463 . S
C1254 N1258 1.427 . S
C1255 H1245 0.929 . S
C1255 C1253 1.433 . S
C1255 N1258 1.384 . S
C1256 H1247 0.929 . S
C1256 C1248 1.378 . S
C1256 C1251 1.350 . S
C1257 H1244 0.929 . S
C1257 C1249 1.433 . S
C1257 N1259 1.384 . S
N1258 C1254 1.427 . S
N1258 C1255 1.384 . S
N1259 C1251 1.427 . S
N1259 C1257 1.384 . S
H1260 C1266 0.930 . S
H1261 C1270 0.930 . S
H1262 C1275 0.929 . S
H1263 C1273 0.929 . S
H1264 C1268 0.929 . S
H1265 C1274 0.929 . S
C1266 H1260 0.930 . S
C1266 C1267 1.367 . S
C1266 C1274 1.378 . S
C1267 C1266 1.367 . S
C1267 C1275 1.433 . S
C1268 H1264 0.929 . S
C1268 C1270 1.378 . S
C1268 C1272 1.350 . S
C1269 C1272 1.463 . S
C1269 C1274 1.350 . S
C1269 N1277 1.427 . S
C1270 H1261 0.930 . S
C1270 C1268 1.378 . S
C1270 C1271 1.367 . S
C1271 C1270 1.367 . S
C1271 C1273 1.433 . S
C1272 C1268 1.350 . S
C1272 C1269 1.463 . S
C1272 N1276 1.427 . S
C1273 H1263 0.929 . S
C1273 C1271 1.433 . S
C1273 N1276 1.384 . S
C1274 H1265 0.929 . S
C1274 C1266 1.378 . S
C1274 C1269 1.350 . S
C1275 H1262 0.929 . S
C1275 C1267 1.433 . S
C1275 N1277 1.384 . S
N1276 C1272 1.427 . S
N1276 C1273 1.384 . S
N1277 C1269 1.427 . S
N1277 C1275 1.384 . S
H1278 C1284 0.930 . S
H1279 C1288 0.930 . S
H1280 C1293 0.929 . S
H1281 C1291 0.929 . S
H1282 C1286 0.929 . S
H1283 C1292 0.929 . S
C1284 H1278 0.930 . S
C1284 C1285 1.367 . S
C1284 C1292 1.378 . S
C1285 C1284 1.367 . S
C1285 C1293 1.433 . S
C1286 H1282 0.929 . S
C1286 C1288 1.378 . S
C1286 C1290 1.350 . S
C1287 C1290 1.463 . S
C1287 C1292 1.350 . S
C1287 N1295 1.427 . S
C1288 H1279 0.930 . S
C1288 C1286 1.378 . S
C1288 C1289 1.367 . S
C1289 C1288 1.367 . S
C1289 C1291 1.433 . S
C1290 C1286 1.350 . S
C1290 C1287 1.463 . S
C1290 N1294 1.427 . S
C1291 H1281 0.929 . S
C1291 C1289 1.433 . S
C1291 N1294 1.384 . S
C1292 H1283 0.929 . S
C1292 C1284 1.378 . S
C1292 C1287 1.350 . S
C1293 H1280 0.929 . S
C1293 C1285 1.433 . S
C1293 N1295 1.384 . S
N1294 C1290 1.427 . S
N1294 C1291 1.384 . S
N1295 C1287 1.427 . S
N1295 C1293 1.384 . S
H1296 C1302 0.930 . S
H1297 C1306 0.930 . S
H1298 C1311 0.929 . S
H1299 C1309 0.929 . S
H1300 C1304 0.929 . S
H1301 C1310 0.929 . S
C1302 H1296 0.930 . S
C1302 C1303 1.367 . S
C1302 C1310 1.378 . S
C1303 C1302 1.367 . S
C1303 C1311 1.433 . S
C1304 H1300 0.929 . S
C1304 C1306 1.378 . S
C1304 C1308 1.350 . S
C1305 C1308 1.463 . S
C1305 C1310 1.350 . S
C1305 N1313 1.427 . S
C1306 H1297 0.930 . S
C1306 C1304 1.378 . S
C1306 C1307 1.367 . S
C1307 C1306 1.367 . S
C1307 C1309 1.433 . S
C1308 C1304 1.350 . S
C1308 C1305 1.463 . S
C1308 N1312 1.427 . S
C1309 H1299 0.929 . S
C1309 C1307 1.433 . S
C1309 N1312 1.384 . S
C1310 H1301 0.929 . S
C1310 C1302 1.378 . S
C1310 C1305 1.350 . S
C1311 H1298 0.929 . S
C1311 C1303 1.433 . S
C1311 N1313 1.384 . S
N1312 C1308 1.427 . S
N1312 C1309 1.384 . S
N1313 C1305 1.427 . S
N1313 C1311 1.384 . S
H1314 C1320 0.930 . S
H1315 C1324 0.930 . S
H1316 C1329 0.929 . S
H1317 C1327 0.929 . S
H1318 C1322 0.929 . S
H1319 C1328 0.929 . S
C1320 H1314 0.930 . S
C1320 C1321 1.367 . S
C1320 C1328 1.378 . S
C1321 C1320 1.367 . S
C1321 C1329 1.433 . S
C1322 H1318 0.929 . S
C1322 C1324 1.378 . S
C1322 C1326 1.350 . S
C1323 C1326 1.463 . S
C1323 C1328 1.350 . S
C1323 N1331 1.427 . S
C1324 H1315 0.930 . S
C1324 C1322 1.378 . S
C1324 C1325 1.367 . S
C1325 C1324 1.367 . S
C1325 C1327 1.433 . S
C1326 C1322 1.350 . S
C1326 C1323 1.463 . S
C1326 N1330 1.427 . S
C1327 H1317 0.929 . S
C1327 C1325 1.433 . S
C1327 N1330 1.384 . S
C1328 H1319 0.929 . S
C1328 C1320 1.378 . S
C1328 C1323 1.350 . S
C1329 H1316 0.929 . S
C1329 C1321 1.433 . S
C1329 N1331 1.384 . S
N1330 C1326 1.427 . S
N1330 C1327 1.384 . S
N1331 C1323 1.427 . S
N1331 C1329 1.384 . S
H1332 C1338 0.930 . S
H1333 C1342 0.930 . S
H1334 C1347 0.929 . S
H1335 C1345 0.929 . S
H1336 C1340 0.929 . S
H1337 C1346 0.929 . S
C1338 H1332 0.930 . S
C1338 C1339 1.367 . S
C1338 C1346 1.378 1_545 S
C1339 C1338 1.367 . S
C1339 C1347 1.433 . S
C1340 H1336 0.929 . S
C1340 C1342 1.378 . S
C1340 C1344 1.350 . S
C1341 C1344 1.463 . S
C1341 C1346 1.350 . S
C1341 N1349 1.427 . S
C1342 H1333 0.930 . S
C1342 C1340 1.378 . S
C1342 C1343 1.367 . S
C1343 C1342 1.367 . S
C1343 C1345 1.433 . S
C1344 C1340 1.350 . S
C1344 C1341 1.463 . S
C1344 N1348 1.427 . S
C1345 H1335 0.929 . S
C1345 C1343 1.433 . S
C1345 N1348 1.384 . S
C1346 H1337 0.929 . S
C1346 C1338 1.378 1_565 S
C1346 C1341 1.350 . S
C1347 H1334 0.929 . S
C1347 C1339 1.433 . S
C1347 N1349 1.384 1_545 S
N1348 C1344 1.427 . S
N1348 C1345 1.384 . S
N1349 C1341 1.427 . S
N1349 C1347 1.384 1_565 S
H1350 C1356 0.930 . S
H1351 C1360 0.930 . S
H1352 C1365 0.929 1_655 S
H1353 C1363 0.929 . S
H1354 C1358 0.929 . S
H1355 C1364 0.929 . S
C1356 H1350 0.930 . S
C1356 C1357 1.367 1_455 S
C1356 C1364 1.378 . S
C1357 C1356 1.367 1_655 S
C1357 C1365 1.433 1_655 S
C1358 H1354 0.929 . S
C1358 C1360 1.378 . S
C1358 C1362 1.350 . S
C1359 C1362 1.463 . S
C1359 C1364 1.350 . S
C1359 N1367 1.427 . S
C1360 H1351 0.930 . S
C1360 C1358 1.378 . S
C1360 C1361 1.367 . S
C1361 C1360 1.367 . S
C1361 C1363 1.433 . S
C1362 C1358 1.350 . S
C1362 C1359 1.463 . S
C1362 N1366 1.427 . S
C1363 H1353 0.929 . S
C1363 C1361 1.433 . S
C1363 N1366 1.384 . S
C1364 H1355 0.929 . S
C1364 C1356 1.378 . S
C1364 C1359 1.350 . S
C1365 H1352 0.929 1_455 S
C1365 C1357 1.433 1_455 S
C1365 N1367 1.384 . S
N1366 C1362 1.427 . S
N1366 C1363 1.384 . S
N1367 C1359 1.427 . S
N1367 C1365 1.384 . S
H1368 C1374 0.930 . S
H1369 C1378 0.930 . S
H1370 C1383 0.929 . S
H1371 C1381 0.929 . S
H1372 C1376 0.929 . S
H1373 C1382 0.929 . S
C1374 H1368 0.930 . S
C1374 C1375 1.367 . S
C1374 C1382 1.378 . S
C1375 C1374 1.367 . S
C1375 C1383 1.433 . S
C1376 H1372 0.929 . S
C1376 C1378 1.378 . S
C1376 C1380 1.350 . S
C1377 C1380 1.463 . S
C1377 C1382 1.350 . S
C1377 N1385 1.427 . S
C1378 H1369 0.930 . S
C1378 C1376 1.378 . S
C1378 C1379 1.367 . S
C1379 C1378 1.367 . S
C1379 C1381 1.433 . S
C1380 C1376 1.350 . S
C1380 C1377 1.463 . S
C1380 N1384 1.427 . S
C1381 H1371 0.929 . S
C1381 C1379 1.433 . S
C1381 N1384 1.384 . S
C1382 H1373 0.929 . S
C1382 C1374 1.378 . S
C1382 C1377 1.350 . S
C1383 H1370 0.929 . S
C1383 C1375 1.433 . S
C1383 N1385 1.384 . S
N1384 C1380 1.427 . S
N1384 C1381 1.384 . S
N1385 C1377 1.427 . S
N1385 C1383 1.384 . S
H1386 C1392 0.930 . S
H1387 C1396 0.930 . S
H1388 C1401 0.929 . S
H1389 C1399 0.929 . S
H1390 C1394 0.929 . S
H1391 C1400 0.929 . S
C1392 H1386 0.930 . S
C1392 C1393 1.367 . S
C1392 C1400 1.378 . S
C1393 C1392 1.367 . S
C1393 C1401 1.433 . S
C1394 H1390 0.929 . S
C1394 C1396 1.378 . S
C1394 C1398 1.350 . S
C1395 C1398 1.463 . S
C1395 C1400 1.350 . S
C1395 N1403 1.427 . S
C1396 H1387 0.930 . S
C1396 C1394 1.378 . S
C1396 C1397 1.367 . S
C1397 C1396 1.367 . S
C1397 C1399 1.433 . S
C1398 C1394 1.350 . S
C1398 C1395 1.463 . S
C1398 N1402 1.427 . S
C1399 H1389 0.929 . S
C1399 C1397 1.433 . S
C1399 N1402 1.384 . S
C1400 H1391 0.929 . S
C1400 C1392 1.378 . S
C1400 C1395 1.350 . S
C1401 H1388 0.929 . S
C1401 C1393 1.433 . S
C1401 N1403 1.384 . S
N1402 C1398 1.427 . S
N1402 C1399 1.384 . S
N1403 C1395 1.427 . S
N1403 C1401 1.384 . S
H1404 C1410 0.930 . S
H1405 C1414 0.930 . S
H1406 C1419 0.929 . S
H1407 C1417 0.929 . S
H1408 C1412 0.929 . S
H1409 C1418 0.929 . S
C1410 H1404 0.930 . S
C1410 C1411 1.367 . S
C1410 C1418 1.378 . S
C1411 C1410 1.367 . S
C1411 C1419 1.433 . S
C1412 H1408 0.929 . S
C1412 C1414 1.378 . S
C1412 C1416 1.350 . S
C1413 C1416 1.463 . S
C1413 C1418 1.350 . S
C1413 N1421 1.427 . S
C1414 H1405 0.930 . S
C1414 C1412 1.378 . S
C1414 C1415 1.367 . S
C1415 C1414 1.367 . S
C1415 C1417 1.433 . S
C1416 C1412 1.350 . S
C1416 C1413 1.463 . S
C1416 N1420 1.427 . S
C1417 H1407 0.929 . S
C1417 C1415 1.433 . S
C1417 N1420 1.384 . S
C1418 H1409 0.929 . S
C1418 C1410 1.378 . S
C1418 C1413 1.350 . S
C1419 H1406 0.929 . S
C1419 C1411 1.433 . S
C1419 N1421 1.384 . S
N1420 C1416 1.427 . S
N1420 C1417 1.384 . S
N1421 C1413 1.427 . S
N1421 C1419 1.384 . S
H1422 C1428 0.930 . S
H1423 C1432 0.930 . S
H1424 C1437 0.929 . S
H1425 C1435 0.929 . S
H1426 C1430 0.929 . S
H1427 C1436 0.929 . S
C1428 H1422 0.930 . S
C1428 C1429 1.367 . S
C1428 C1436 1.378 . S
C1429 C1428 1.367 . S
C1429 C1437 1.433 . S
C1430 H1426 0.929 . S
C1430 C1432 1.378 . S
C1430 C1434 1.350 . S
C1431 C1434 1.463 . S
C1431 C1436 1.350 . S
C1431 N1439 1.427 . S
C1432 H1423 0.930 . S
C1432 C1430 1.378 . S
C1432 C1433 1.367 . S
C1433 C1432 1.367 . S
C1433 C1435 1.433 . S
C1434 C1430 1.350 . S
C1434 C1431 1.463 . S
C1434 N1438 1.427 . S
C1435 H1425 0.929 . S
C1435 C1433 1.433 . S
C1435 N1438 1.384 . S
C1436 H1427 0.929 . S
C1436 C1428 1.378 . S
C1436 C1431 1.350 . S
C1437 H1424 0.929 . S
C1437 C1429 1.433 . S
C1437 N1439 1.384 . S
N1438 C1434 1.427 . S
N1438 C1435 1.384 . S
N1439 C1431 1.427 . S
N1439 C1437 1.384 . S
H1440 C1446 0.930 . S
H1441 C1450 0.930 . S
H1442 C1455 0.929 . S
H1443 C1453 0.929 . S
H1444 C1448 0.929 . S
H1445 C1454 0.929 . S
C1446 H1440 0.930 . S
C1446 C1447 1.367 . S
C1446 C1454 1.378 . S
C1447 C1446 1.367 . S
C1447 C1455 1.433 . S
C1448 H1444 0.929 . S
C1448 C1450 1.378 . S
C1448 C1452 1.350 . S
C1449 C1452 1.463 1_565 S
C1449 C1454 1.350 . S
C1449 N1457 1.427 . S
C1450 H1441 0.930 . S
C1450 C1448 1.378 . S
C1450 C1451 1.367 . S
C1451 C1450 1.367 . S
C1451 C1453 1.433 . S
C1452 C1448 1.350 . S
C1452 C1449 1.463 1_545 S
C1452 N1456 1.427 . S
C1453 H1443 0.929 . S
C1453 C1451 1.433 . S
C1453 N1456 1.384 . S
C1454 H1445 0.929 . S
C1454 C1446 1.378 . S
C1454 C1449 1.350 . S
C1455 H1442 0.929 . S
C1455 C1447 1.433 . S
C1455 N1457 1.384 . S
N1456 C1452 1.427 . S
N1456 C1453 1.384 . S
N1457 C1449 1.427 . S
N1457 C1455 1.384 . S
H1458 C1464 0.930 . S
H1459 C1468 0.930 . S
H1460 C1473 0.929 . S
H1461 C1471 0.929 . S
H1462 C1466 0.929 1_455 S
H1463 C1472 0.929 1_655 S
C1464 H1458 0.930 . S
C1464 C1465 1.367 . S
C1464 C1472 1.378 . S
C1465 C1464 1.367 . S
C1465 C1473 1.433 . S
C1466 H1462 0.929 1_655 S
C1466 C1468 1.378 . S
C1466 C1470 1.350 . S
C1467 C1470 1.463 1_455 S
C1467 C1472 1.350 . S
C1467 N1475 1.427 . S
C1468 H1459 0.930 . S
C1468 C1466 1.378 . S
C1468 C1469 1.367 . S
C1469 C1468 1.367 . S
C1469 C1471 1.433 . S
C1470 C1466 1.350 . S
C1470 C1467 1.463 1_655 S
C1470 N1474 1.427 . S
C1471 H1461 0.929 . S
C1471 C1469 1.433 . S
C1471 N1474 1.384 . S
C1472 H1463 0.929 1_455 S
C1472 C1464 1.378 . S
C1472 C1467 1.350 . S
C1473 H1460 0.929 . S
C1473 C1465 1.433 . S
C1473 N1475 1.384 . S
N1474 C1470 1.427 . S
N1474 C1471 1.384 . S
N1475 C1467 1.427 . S
N1475 C1473 1.384 . S
H1476 C1482 0.930 . S
H1477 C1486 0.930 . S
H1478 C1491 0.929 . S
H1479 C1489 0.929 . S
H1480 C1484 0.929 . S
H1481 C1490 0.929 . S
C1482 H1476 0.930 . S
C1482 C1483 1.367 . S
C1482 C1490 1.378 . S
C1483 C1482 1.367 . S
C1483 C1491 1.433 . S
C1484 H1480 0.929 . S
C1484 C1486 1.378 . S
C1484 C1488 1.350 . S
C1485 C1488 1.463 . S
C1485 C1490 1.350 . S
C1485 N1493 1.427 . S
C1486 H1477 0.930 . S
C1486 C1484 1.378 . S
C1486 C1487 1.367 . S
C1487 C1486 1.367 . S
C1487 C1489 1.433 . S
C1488 C1484 1.350 . S
C1488 C1485 1.463 . S
C1488 N1492 1.427 . S
C1489 H1479 0.929 . S
C1489 C1487 1.433 . S
C1489 N1492 1.384 . S
C1490 H1481 0.929 . S
C1490 C1482 1.378 . S
C1490 C1485 1.350 . S
C1491 H1478 0.929 . S
C1491 C1483 1.433 . S
C1491 N1493 1.384 . S
N1492 C1488 1.427 . S
N1492 C1489 1.384 . S
N1493 C1485 1.427 . S
N1493 C1491 1.384 . S
H1494 C1500 0.930 1_455 S
H1495 C1504 0.930 . S
H1496 C1509 0.929 . S
H1497 C1507 0.929 . S
H1498 C1502 0.929 . S
H1499 C1508 0.929 . S
C1500 H1494 0.930 1_655 S
C1500 C1501 1.367 1_655 S
C1500 C1508 1.378 . S
C1501 C1500 1.367 1_455 S
C1501 C1509 1.433 . S
C1502 H1498 0.929 . S
C1502 C1504 1.378 . S
C1502 C1506 1.350 . S
C1503 C1506 1.463 . S
C1503 C1508 1.350 . S
C1503 N1511 1.427 . S
C1504 H1495 0.930 . S
C1504 C1502 1.378 . S
C1504 C1505 1.367 . S
C1505 C1504 1.367 . S
C1505 C1507 1.433 . S
C1506 C1502 1.350 . S
C1506 C1503 1.463 . S
C1506 N1510 1.427 . S
C1507 H1497 0.929 . S
C1507 C1505 1.433 . S
C1507 N1510 1.384 . S
C1508 H1499 0.929 . S
C1508 C1500 1.378 . S
C1508 C1503 1.350 . S
C1509 H1496 0.929 . S
C1509 C1501 1.433 . S
C1509 N1511 1.384 1_455 S
N1510 C1506 1.427 . S
N1510 C1507 1.384 . S
N1511 C1503 1.427 . S
N1511 C1509 1.384 1_655 S
H1512 C1518 0.930 . S
H1513 C1522 0.930 . S
H1514 C1527 0.929 . S
H1515 C1525 0.929 . S
H1516 C1520 0.929 . S
H1517 C1526 0.929 . S
C1518 H1512 0.930 . S
C1518 C1519 1.367 . S
C1518 C1526 1.378 . S
C1519 C1518 1.367 . S
C1519 C1527 1.433 . S
C1520 H1516 0.929 . S
C1520 C1522 1.378 . S
C1520 C1524 1.350 . S
C1521 C1524 1.463 . S
C1521 C1526 1.350 . S
C1521 N1529 1.427 . S
C1522 H1513 0.930 . S
C1522 C1520 1.378 . S
C1522 C1523 1.367 . S
C1523 C1522 1.367 . S
C1523 C1525 1.433 . S
C1524 C1520 1.350 . S
C1524 C1521 1.463 . S
C1524 N1528 1.427 . S
C1525 H1515 0.929 . S
C1525 C1523 1.433 . S
C1525 N1528 1.384 . S
C1526 H1517 0.929 . S
C1526 C1518 1.378 . S
C1526 C1521 1.350 . S
C1527 H1514 0.929 . S
C1527 C1519 1.433 . S
C1527 N1529 1.384 . S
N1528 C1524 1.427 . S
N1528 C1525 1.384 . S
N1529 C1521 1.427 . S
N1529 C1527 1.384 . S
H1530 C1536 0.930 1_565 S
H1531 C1540 0.930 . S
H1532 C1545 0.929 . S
H1533 C1543 0.929 . S
H1534 C1538 0.929 . S
H1535 C1544 0.929 . S
C1536 H1530 0.930 1_545 S
C1536 C1537 1.367 1_545 S
C1536 C1544 1.378 . S
C1537 C1536 1.367 1_565 S
C1537 C1545 1.433 . S
C1538 H1534 0.929 . S
C1538 C1540 1.378 . S
C1538 C1542 1.350 . S
C1539 C1542 1.463 . S
C1539 C1544 1.350 . S
C1539 N1547 1.427 . S
C1540 H1531 0.930 . S
C1540 C1538 1.378 . S
C1540 C1541 1.367 . S
C1541 C1540 1.367 . S
C1541 C1543 1.433 . S
C1542 C1538 1.350 . S
C1542 C1539 1.463 . S
C1542 N1546 1.427 . S
C1543 H1533 0.929 . S
C1543 C1541 1.433 . S
C1543 N1546 1.384 . S
C1544 H1535 0.929 . S
C1544 C1536 1.378 . S
C1544 C1539 1.350 . S
C1545 H1532 0.929 . S
C1545 C1537 1.433 . S
C1545 N1547 1.384 1_565 S
N1546 C1542 1.427 . S
N1546 C1543 1.384 . S
N1547 C1539 1.427 . S
N1547 C1545 1.384 1_545 S
H1548 C1554 0.930 . S
H1549 C1558 0.930 . S
H1550 C1563 0.929 . S
H1551 C1561 0.929 . S
H1552 C1556 0.929 . S
H1553 C1562 0.929 . S
C1554 H1548 0.930 . S
C1554 C1555 1.367 . S
C1554 C1562 1.378 . S
C1555 C1554 1.367 . S
C1555 C1563 1.433 . S
C1556 H1552 0.929 . S
C1556 C1558 1.378 . S
C1556 C1560 1.350 . S
C1557 C1560 1.463 . S
C1557 C1562 1.350 . S
C1557 N1565 1.427 . S
C1558 H1549 0.930 . S
C1558 C1556 1.378 . S
C1558 C1559 1.367 . S
C1559 C1558 1.367 . S
C1559 C1561 1.433 . S
C1560 C1556 1.350 . S
C1560 C1557 1.463 . S
C1560 N1564 1.427 . S
C1561 H1551 0.929 . S
C1561 C1559 1.433 . S
C1561 N1564 1.384 . S
C1562 H1553 0.929 . S
C1562 C1554 1.378 . S
C1562 C1557 1.350 . S
C1563 H1550 0.929 . S
C1563 C1555 1.433 . S
C1563 N1565 1.384 . S
N1564 C1560 1.427 . S
N1564 C1561 1.384 . S
N1565 C1557 1.427 . S
N1565 C1563 1.384 . S
H1566 C1572 0.930 . S
H1567 C1576 0.930 . S
H1568 C1581 0.929 . S
H1569 C1579 0.929 . S
H1570 C1574 0.929 . S
H1571 C1580 0.929 . S
C1572 H1566 0.930 . S
C1572 C1573 1.367 . S
C1572 C1580 1.378 . S
C1573 C1572 1.367 . S
C1573 C1581 1.433 . S
C1574 H1570 0.929 . S
C1574 C1576 1.378 . S
C1574 C1578 1.350 . S
C1575 C1578 1.463 . S
C1575 C1580 1.350 . S
C1575 N1583 1.427 . S
C1576 H1567 0.930 . S
C1576 C1574 1.378 . S
C1576 C1577 1.367 . S
C1577 C1576 1.367 . S
C1577 C1579 1.433 . S
C1578 C1574 1.350 . S
C1578 C1575 1.463 . S
C1578 N1582 1.427 . S
C1579 H1569 0.929 . S
C1579 C1577 1.433 . S
C1579 N1582 1.384 . S
C1580 H1571 0.929 . S
C1580 C1572 1.378 . S
C1580 C1575 1.350 . S
C1581 H1568 0.929 . S
C1581 C1573 1.433 . S
C1581 N1583 1.384 . S
N1582 C1578 1.427 . S
N1582 C1579 1.384 . S
N1583 C1575 1.427 . S
N1583 C1581 1.384 . S
H1584 C1590 0.930 . S
H1585 C1594 0.930 . S
H1586 C1599 0.929 . S
H1587 C1597 0.929 . S
H1588 C1592 0.929 . S
H1589 C1598 0.929 . S
C1590 H1584 0.930 . S
C1590 C1591 1.367 . S
C1590 C1598 1.378 . S
C1591 C1590 1.367 . S
C1591 C1599 1.433 . S
C1592 H1588 0.929 . S
C1592 C1594 1.378 . S
C1592 C1596 1.350 . S
C1593 C1596 1.463 . S
C1593 C1598 1.350 . S
C1593 N1601 1.427 . S
C1594 H1585 0.930 . S
C1594 C1592 1.378 . S
C1594 C1595 1.367 . S
C1595 C1594 1.367 . S
C1595 C1597 1.433 . S
C1596 C1592 1.350 . S
C1596 C1593 1.463 . S
C1596 N1600 1.427 . S
C1597 H1587 0.929 . S
C1597 C1595 1.433 . S
C1597 N1600 1.384 . S
C1598 H1589 0.929 . S
C1598 C1590 1.378 . S
C1598 C1593 1.350 . S
C1599 H1586 0.929 . S
C1599 C1591 1.433 . S
C1599 N1601 1.384 . S
N1600 C1596 1.427 . S
N1600 C1597 1.384 . S
N1601 C1593 1.427 . S
N1601 C1599 1.384 . S
H1602 C1608 0.930 . S
H1603 C1612 0.930 . S
H1604 C1617 0.929 . S
H1605 C1615 0.929 . S
H1606 C1610 0.929 . S
H1607 C1616 0.929 . S
C1608 H1602 0.930 . S
C1608 C1609 1.367 . S
C1608 C1616 1.378 . S
C1609 C1608 1.367 . S
C1609 C1617 1.433 . S
C1610 H1606 0.929 . S
C1610 C1612 1.378 . S
C1610 C1614 1.350 . S
C1611 C1614 1.463 . S
C1611 C1616 1.350 . S
C1611 N1619 1.427 . S
C1612 H1603 0.930 . S
C1612 C1610 1.378 . S
C1612 C1613 1.367 . S
C1613 C1612 1.367 . S
C1613 C1615 1.433 . S
C1614 C1610 1.350 . S
C1614 C1611 1.463 . S
C1614 N1618 1.427 . S
C1615 H1605 0.929 . S
C1615 C1613 1.433 . S
C1615 N1618 1.384 . S
C1616 H1607 0.929 . S
C1616 C1608 1.378 . S
C1616 C1611 1.350 . S
C1617 H1604 0.929 . S
C1617 C1609 1.433 . S
C1617 N1619 1.384 . S
N1618 C1614 1.427 . S
N1618 C1615 1.384 . S
N1619 C1611 1.427 . S
N1619 C1617 1.384 . S
H1620 C1626 0.930 . S
H1621 C1630 0.930 . S
H1622 C1635 0.929 . S
H1623 C1633 0.929 . S
H1624 C1628 0.929 . S
H1625 C1634 0.929 . S
C1626 H1620 0.930 . S
C1626 C1627 1.367 . S
C1626 C1634 1.378 . S
C1627 C1626 1.367 . S
C1627 C1635 1.433 . S
C1628 H1624 0.929 . S
C1628 C1630 1.378 . S
C1628 C1632 1.350 . S
C1629 C1632 1.463 . S
C1629 C1634 1.350 . S
C1629 N1637 1.427 . S
C1630 H1621 0.930 . S
C1630 C1628 1.378 . S
C1630 C1631 1.367 . S
C1631 C1630 1.367 . S
C1631 C1633 1.433 . S
C1632 C1628 1.350 . S
C1632 C1629 1.463 . S
C1632 N1636 1.427 . S
C1633 H1623 0.929 . S
C1633 C1631 1.433 . S
C1633 N1636 1.384 . S
C1634 H1625 0.929 . S
C1634 C1626 1.378 . S
C1634 C1629 1.350 . S
C1635 H1622 0.929 . S
C1635 C1627 1.433 . S
C1635 N1637 1.384 . S
N1636 C1632 1.427 . S
N1636 C1633 1.384 . S
N1637 C1629 1.427 . S
N1637 C1635 1.384 . S
H1638 C1644 0.930 . S
H1639 C1648 0.930 . S
H1640 C1653 0.929 . S
H1641 C1651 0.929 . S
H1642 C1646 0.929 . S
H1643 C1652 0.929 . S
C1644 H1638 0.930 . S
C1644 C1645 1.367 . S
C1644 C1652 1.378 . S
C1645 C1644 1.367 . S
C1645 C1653 1.433 . S
C1646 H1642 0.929 . S
C1646 C1648 1.378 . S
C1646 C1650 1.350 . S
C1647 C1650 1.463 . S
C1647 C1652 1.350 . S
C1647 N1655 1.427 . S
C1648 H1639 0.930 . S
C1648 C1646 1.378 . S
C1648 C1649 1.367 . S
C1649 C1648 1.367 . S
C1649 C1651 1.433 . S
C1650 C1646 1.350 . S
C1650 C1647 1.463 . S
C1650 N1654 1.427 . S
C1651 H1641 0.929 . S
C1651 C1649 1.433 . S
C1651 N1654 1.384 . S
C1652 H1643 0.929 . S
C1652 C1644 1.378 . S
C1652 C1647 1.350 . S
C1653 H1640 0.929 . S
C1653 C1645 1.433 . S
C1653 N1655 1.384 . S
N1654 C1650 1.427 . S
N1654 C1651 1.384 . S
N1655 C1647 1.427 . S
N1655 C1653 1.384 . S
H1656 C1662 0.930 . S
H1657 C1666 0.930 . S
H1658 C1671 0.929 . S
H1659 C1669 0.929 . S
H1660 C1664 0.929 . S
H1661 C1670 0.929 . S
C1662 H1656 0.930 . S
C1662 C1663 1.367 . S
C1662 C1670 1.378 . S
C1663 C1662 1.367 . S
C1663 C1671 1.433 . S
C1664 H1660 0.929 . S
C1664 C1666 1.378 . S
C1664 C1668 1.350 . S
C1665 C1668 1.463 . S
C1665 C1670 1.350 . S
C1665 N1673 1.427 . S
C1666 H1657 0.930 . S
C1666 C1664 1.378 . S
C1666 C1667 1.367 . S
C1667 C1666 1.367 . S
C1667 C1669 1.433 . S
C1668 C1664 1.350 . S
C1668 C1665 1.463 . S
C1668 N1672 1.427 . S
C1669 H1659 0.929 . S
C1669 C1667 1.433 . S
C1669 N1672 1.384 . S
C1670 H1661 0.929 . S
C1670 C1662 1.378 . S
C1670 C1665 1.350 . S
C1671 H1658 0.929 . S
C1671 C1663 1.433 . S
C1671 N1673 1.384 . S
N1672 C1668 1.427 . S
N1672 C1669 1.384 . S
N1673 C1665 1.427 . S
N1673 C1671 1.384 . S
H1674 C1680 0.930 . S
H1675 C1684 0.930 . S
H1676 C1689 0.929 . S
H1677 C1687 0.929 . S
H1678 C1682 0.929 . S
H1679 C1688 0.929 . S
C1680 H1674 0.930 . S
C1680 C1681 1.367 . S
C1680 C1688 1.378 . S
C1681 C1680 1.367 . S
C1681 C1689 1.433 . S
C1682 H1678 0.929 . S
C1682 C1684 1.378 . S
C1682 C1686 1.350 . S
C1683 C1686 1.463 . S
C1683 C1688 1.350 . S
C1683 N1691 1.427 . S
C1684 H1675 0.930 . S
C1684 C1682 1.378 . S
C1684 C1685 1.367 . S
C1685 C1684 1.367 . S
C1685 C1687 1.433 . S
C1686 C1682 1.350 . S
C1686 C1683 1.463 . S
C1686 N1690 1.427 . S
C1687 H1677 0.929 . S
C1687 C1685 1.433 . S
C1687 N1690 1.384 . S
C1688 H1679 0.929 . S
C1688 C1680 1.378 . S
C1688 C1683 1.350 . S
C1689 H1676 0.929 . S
C1689 C1681 1.433 . S
C1689 N1691 1.384 . S
N1690 C1686 1.427 . S
N1690 C1687 1.384 . S
N1691 C1683 1.427 . S
N1691 C1689 1.384 . S
H1692 C1698 0.930 . S
H1693 C1702 0.930 . S
H1694 C1707 0.929 . S
H1695 C1705 0.929 . S
H1696 C1700 0.929 . S
H1697 C1706 0.929 . S
C1698 H1692 0.930 . S
C1698 C1699 1.367 . S
C1698 C1706 1.378 . S
C1699 C1698 1.367 . S
C1699 C1707 1.433 . S
C1700 H1696 0.929 . S
C1700 C1702 1.378 . S
C1700 C1704 1.350 . S
C1701 C1704 1.463 . S
C1701 C1706 1.350 . S
C1701 N1709 1.427 . S
C1702 H1693 0.930 . S
C1702 C1700 1.378 . S
C1702 C1703 1.367 . S
C1703 C1702 1.367 . S
C1703 C1705 1.433 . S
C1704 C1700 1.350 . S
C1704 C1701 1.463 . S
C1704 N1708 1.427 . S
C1705 H1695 0.929 . S
C1705 C1703 1.433 . S
C1705 N1708 1.384 . S
C1706 H1697 0.929 . S
C1706 C1698 1.378 . S
C1706 C1701 1.350 . S
C1707 H1694 0.929 . S
C1707 C1699 1.433 . S
C1707 N1709 1.384 . S
N1708 C1704 1.427 . S
N1708 C1705 1.384 . S
N1709 C1701 1.427 . S
N1709 C1707 1.384 . S
H1710 C1716 0.930 . S
H1711 C1720 0.930 . S
H1712 C1725 0.929 . S
H1713 C1723 0.929 . S
H1714 C1718 0.929 . S
H1715 C1724 0.929 . S
C1716 H1710 0.930 . S
C1716 C1717 1.367 . S
C1716 C1724 1.378 . S
C1717 C1716 1.367 . S
C1717 C1725 1.433 . S
C1718 H1714 0.929 . S
C1718 C1720 1.378 . S
C1718 C1722 1.350 . S
C1719 C1722 1.463 . S
C1719 C1724 1.350 . S
C1719 N1727 1.427 . S
C1720 H1711 0.930 . S
C1720 C1718 1.378 . S
C1720 C1721 1.367 . S
C1721 C1720 1.367 . S
C1721 C1723 1.433 . S
C1722 C1718 1.350 . S
C1722 C1719 1.463 . S
C1722 N1726 1.427 . S
C1723 H1713 0.929 . S
C1723 C1721 1.433 . S
C1723 N1726 1.384 . S
C1724 H1715 0.929 . S
C1724 C1716 1.378 . S
C1724 C1719 1.350 . S
C1725 H1712 0.929 . S
C1725 C1717 1.433 . S
C1725 N1727 1.384 . S
N1726 C1722 1.427 . S
N1726 C1723 1.384 . S
N1727 C1719 1.427 . S
N1727 C1725 1.384 . S
H1728 C1734 0.930 . S
H1729 C1738 0.930 . S
H1730 C1743 0.929 . S
H1731 C1741 0.929 . S
H1732 C1736 0.929 . S
H1733 C1742 0.929 . S
C1734 H1728 0.930 . S
C1734 C1735 1.367 . S
C1734 C1742 1.378 . S
C1735 C1734 1.367 . S
C1735 C1743 1.433 . S
C1736 H1732 0.929 . S
C1736 C1738 1.378 . S
C1736 C1740 1.350 . S
C1737 C1740 1.463 . S
C1737 C1742 1.350 . S
C1737 N1745 1.427 . S
C1738 H1729 0.930 . S
C1738 C1736 1.378 . S
C1738 C1739 1.367 . S
C1739 C1738 1.367 . S
C1739 C1741 1.433 . S
C1740 C1736 1.350 . S
C1740 C1737 1.463 . S
C1740 N1744 1.427 . S
C1741 H1731 0.929 . S
C1741 C1739 1.433 . S
C1741 N1744 1.384 . S
C1742 H1733 0.929 . S
C1742 C1734 1.378 . S
C1742 C1737 1.350 . S
C1743 H1730 0.929 . S
C1743 C1735 1.433 . S
C1743 N1745 1.384 . S
N1744 C1740 1.427 . S
N1744 C1741 1.384 . S
N1745 C1737 1.427 . S
N1745 C1743 1.384 . S
H1746 C1752 0.930 . S
H1747 C1756 0.930 . S
H1748 C1761 0.929 . S
H1749 C1759 0.929 . S
H1750 C1754 0.929 . S
H1751 C1760 0.929 . S
C1752 H1746 0.930 . S
C1752 C1753 1.367 . S
C1752 C1760 1.378 . S
C1753 C1752 1.367 . S
C1753 C1761 1.433 . S
C1754 H1750 0.929 . S
C1754 C1756 1.378 . S
C1754 C1758 1.350 . S
C1755 C1758 1.463 . S
C1755 C1760 1.350 . S
C1755 N1763 1.427 . S
C1756 H1747 0.930 . S
C1756 C1754 1.378 . S
C1756 C1757 1.367 . S
C1757 C1756 1.367 . S
C1757 C1759 1.433 . S
C1758 C1754 1.350 . S
C1758 C1755 1.463 . S
C1758 N1762 1.427 . S
C1759 H1749 0.929 . S
C1759 C1757 1.433 . S
C1759 N1762 1.384 . S
C1760 H1751 0.929 . S
C1760 C1752 1.378 . S
C1760 C1755 1.350 . S
C1761 H1748 0.929 . S
C1761 C1753 1.433 . S
C1761 N1763 1.384 . S
N1762 C1758 1.427 . S
N1762 C1759 1.384 . S
N1763 C1755 1.427 . S
N1763 C1761 1.384 . S
H1764 C1770 0.930 . S
H1765 C1774 0.930 . S
H1766 C1779 0.929 . S
H1767 C1777 0.929 . S
H1768 C1772 0.929 . S
H1769 C1778 0.929 . S
C1770 H1764 0.930 . S
C1770 C1771 1.367 . S
C1770 C1778 1.378 . S
C1771 C1770 1.367 . S
C1771 C1779 1.433 . S
C1772 H1768 0.929 . S
C1772 C1774 1.378 . S
C1772 C1776 1.350 . S
C1773 C1776 1.463 . S
C1773 C1778 1.350 . S
C1773 N1781 1.427 . S
C1774 H1765 0.930 . S
C1774 C1772 1.378 . S
C1774 C1775 1.367 . S
C1775 C1774 1.367 . S
C1775 C1777 1.433 . S
C1776 C1772 1.350 . S
C1776 C1773 1.463 . S
C1776 N1780 1.427 . S
C1777 H1767 0.929 . S
C1777 C1775 1.433 . S
C1777 N1780 1.384 . S
C1778 H1769 0.929 . S
C1778 C1770 1.378 . S
C1778 C1773 1.350 . S
C1779 H1766 0.929 . S
C1779 C1771 1.433 . S
C1779 N1781 1.384 . S
N1780 C1776 1.427 . S
N1780 C1777 1.384 . S
N1781 C1773 1.427 . S
N1781 C1779 1.384 . S
H1782 C1788 0.930 . S
H1783 C1792 0.930 . S
H1784 C1797 0.929 . S
H1785 C1795 0.929 . S
H1786 C1790 0.929 . S
H1787 C1796 0.929 . S
C1788 H1782 0.930 . S
C1788 C1789 1.367 . S
C1788 C1796 1.378 . S
C1789 C1788 1.367 . S
C1789 C1797 1.433 . S
C1790 H1786 0.929 . S
C1790 C1792 1.378 . S
C1790 C1794 1.350 . S
C1791 C1794 1.463 . S
C1791 C1796 1.350 . S
C1791 N1799 1.427 . S
C1792 H1783 0.930 . S
C1792 C1790 1.378 . S
C1792 C1793 1.367 . S
C1793 C1792 1.367 . S
C1793 C1795 1.433 . S
C1794 C1790 1.350 . S
C1794 C1791 1.463 . S
C1794 N1798 1.427 . S
C1795 H1785 0.929 . S
C1795 C1793 1.433 . S
C1795 N1798 1.384 . S
C1796 H1787 0.929 . S
C1796 C1788 1.378 . S
C1796 C1791 1.350 . S
C1797 H1784 0.929 . S
C1797 C1789 1.433 . S
C1797 N1799 1.384 . S
N1798 C1794 1.427 . S
N1798 C1795 1.384 . S
N1799 C1791 1.427 . S
N1799 C1797 1.384 . S
H1800 C1806 0.930 . S
H1801 C1810 0.930 . S
H1802 C1815 0.929 . S
H1803 C1813 0.929 . S
H1804 C1808 0.929 . S
H1805 C1814 0.929 . S
C1806 H1800 0.930 . S
C1806 C1807 1.367 . S
C1806 C1814 1.378 . S
C1807 C1806 1.367 . S
C1807 C1815 1.433 . S
C1808 H1804 0.929 . S
C1808 C1810 1.378 . S
C1808 C1812 1.350 . S
C1809 C1812 1.463 . S
C1809 C1814 1.350 . S
C1809 N1817 1.427 . S
C1810 H1801 0.930 . S
C1810 C1808 1.378 . S
C1810 C1811 1.367 . S
C1811 C1810 1.367 . S
C1811 C1813 1.433 . S
C1812 C1808 1.350 . S
C1812 C1809 1.463 . S
C1812 N1816 1.427 . S
C1813 H1803 0.929 . S
C1813 C1811 1.433 . S
C1813 N1816 1.384 . S
C1814 H1805 0.929 . S
C1814 C1806 1.378 . S
C1814 C1809 1.350 . S
C1815 H1802 0.929 . S
C1815 C1807 1.433 . S
C1815 N1817 1.384 . S
N1816 C1812 1.427 . S
N1816 C1813 1.384 . S
N1817 C1809 1.427 . S
N1817 C1815 1.384 . S
H1818 C1824 0.930 . S
H1819 C1828 0.930 . S
H1820 C1833 0.929 . S
H1821 C1831 0.929 . S
H1822 C1826 0.929 . S
H1823 C1832 0.929 . S
C1824 H1818 0.930 . S
C1824 C1825 1.367 . S
C1824 C1832 1.378 . S
C1825 C1824 1.367 . S
C1825 C1833 1.433 . S
C1826 H1822 0.929 . S
C1826 C1828 1.378 . S
C1826 C1830 1.350 . S
C1827 C1830 1.463 . S
C1827 C1832 1.350 . S
C1827 N1835 1.427 . S
C1828 H1819 0.930 . S
C1828 C1826 1.378 . S
C1828 C1829 1.367 . S
C1829 C1828 1.367 . S
C1829 C1831 1.433 . S
C1830 C1826 1.350 . S
C1830 C1827 1.463 . S
C1830 N1834 1.427 . S
C1831 H1821 0.929 . S
C1831 C1829 1.433 . S
C1831 N1834 1.384 . S
C1832 H1823 0.929 . S
C1832 C1824 1.378 . S
C1832 C1827 1.350 . S
C1833 H1820 0.929 . S
C1833 C1825 1.433 . S
C1833 N1835 1.384 . S
N1834 C1830 1.427 . S
N1834 C1831 1.384 . S
N1835 C1827 1.427 . S
N1835 C1833 1.384 . S
H1836 C1842 0.930 . S
H1837 C1846 0.930 . S
H1838 C1851 0.929 . S
H1839 C1849 0.929 . S
H1840 C1844 0.929 . S
H1841 C1850 0.929 . S
C1842 H1836 0.930 . S
C1842 C1843 1.367 . S
C1842 C1850 1.378 . S
C1843 C1842 1.367 . S
C1843 C1851 1.433 . S
C1844 H1840 0.929 . S
C1844 C1846 1.378 . S
C1844 C1848 1.350 . S
C1845 C1848 1.463 . S
C1845 C1850 1.350 . S
C1845 N1853 1.427 . S
C1846 H1837 0.930 . S
C1846 C1844 1.378 . S
C1846 C1847 1.367 . S
C1847 C1846 1.367 . S
C1847 C1849 1.433 . S
C1848 C1844 1.350 . S
C1848 C1845 1.463 . S
C1848 N1852 1.427 . S
C1849 H1839 0.929 . S
C1849 C1847 1.433 . S
C1849 N1852 1.384 . S
C1850 H1841 0.929 . S
C1850 C1842 1.378 . S
C1850 C1845 1.350 . S
C1851 H1838 0.929 . S
C1851 C1843 1.433 . S
C1851 N1853 1.384 . S
N1852 C1848 1.427 . S
N1852 C1849 1.384 . S
N1853 C1845 1.427 . S
N1853 C1851 1.384 . S
H1854 C1860 0.930 . S
H1855 C1864 0.930 . S
H1856 C1869 0.929 . S
H1857 C1867 0.929 . S
H1858 C1862 0.929 . S
H1859 C1868 0.929 . S
C1860 H1854 0.930 . S
C1860 C1861 1.367 . S
C1860 C1868 1.378 . S
C1861 C1860 1.367 . S
C1861 C1869 1.433 . S
C1862 H1858 0.929 . S
C1862 C1864 1.378 . S
C1862 C1866 1.350 . S
C1863 C1866 1.463 . S
C1863 C1868 1.350 . S
C1863 N1871 1.427 . S
C1864 H1855 0.930 . S
C1864 C1862 1.378 . S
C1864 C1865 1.367 . S
C1865 C1864 1.367 . S
C1865 C1867 1.433 . S
C1866 C1862 1.350 . S
C1866 C1863 1.463 . S
C1866 N1870 1.427 . S
C1867 H1857 0.929 . S
C1867 C1865 1.433 . S
C1867 N1870 1.384 . S
C1868 H1859 0.929 . S
C1868 C1860 1.378 . S
C1868 C1863 1.350 . S
C1869 H1856 0.929 . S
C1869 C1861 1.433 . S
C1869 N1871 1.384 . S
N1870 C1866 1.427 . S
N1870 C1867 1.384 . S
N1871 C1863 1.427 . S
N1871 C1869 1.384 . S
H1872 C1878 0.930 . S
H1873 C1882 0.930 . S
H1874 C1887 0.929 . S
H1875 C1885 0.929 . S
H1876 C1880 0.929 . S
H1877 C1886 0.929 . S
C1878 H1872 0.930 . S
C1878 C1879 1.367 . S
C1878 C1886 1.378 . S
C1879 C1878 1.367 . S
C1879 C1887 1.433 . S
C1880 H1876 0.929 . S
C1880 C1882 1.378 . S
C1880 C1884 1.350 . S
C1881 C1884 1.463 . S
C1881 C1886 1.350 . S
C1881 N1889 1.427 . S
C1882 H1873 0.930 . S
C1882 C1880 1.378 . S
C1882 C1883 1.367 . S
C1883 C1882 1.367 . S
C1883 C1885 1.433 . S
C1884 C1880 1.350 . S
C1884 C1881 1.463 . S
C1884 N1888 1.427 . S
C1885 H1875 0.929 . S
C1885 C1883 1.433 . S
C1885 N1888 1.384 . S
C1886 H1877 0.929 . S
C1886 C1878 1.378 . S
C1886 C1881 1.350 . S
C1887 H1874 0.929 . S
C1887 C1879 1.433 . S
C1887 N1889 1.384 . S
N1888 C1884 1.427 . S
N1888 C1885 1.384 . S
N1889 C1881 1.427 . S
N1889 C1887 1.384 . S
H1890 C1896 0.930 . S
H1891 C1900 0.930 . S
H1892 C1905 0.929 . S
H1893 C1903 0.929 . S
H1894 C1898 0.929 . S
H1895 C1904 0.929 . S
C1896 H1890 0.930 . S
C1896 C1897 1.367 . S
C1896 C1904 1.378 . S
C1897 C1896 1.367 . S
C1897 C1905 1.433 . S
C1898 H1894 0.929 . S
C1898 C1900 1.378 . S
C1898 C1902 1.350 . S
C1899 C1902 1.463 . S
C1899 C1904 1.350 . S
C1899 N1907 1.427 . S
C1900 H1891 0.930 . S
C1900 C1898 1.378 . S
C1900 C1901 1.367 . S
C1901 C1900 1.367 . S
C1901 C1903 1.433 . S
C1902 C1898 1.350 . S
C1902 C1899 1.463 . S
C1902 N1906 1.427 . S
C1903 H1893 0.929 . S
C1903 C1901 1.433 . S
C1903 N1906 1.384 . S
C1904 H1895 0.929 . S
C1904 C1896 1.378 . S
C1904 C1899 1.350 . S
C1905 H1892 0.929 . S
C1905 C1897 1.433 . S
C1905 N1907 1.384 . S
N1906 C1902 1.427 . S
N1906 C1903 1.384 . S
N1907 C1899 1.427 . S
N1907 C1905 1.384 . S
H1908 C1914 0.930 . S
H1909 C1918 0.930 . S
H1910 C1923 0.929 . S
H1911 C1921 0.929 . S
H1912 C1916 0.929 . S
H1913 C1922 0.929 . S
C1914 H1908 0.930 . S
C1914 C1915 1.367 . S
C1914 C1922 1.378 . S
C1915 C1914 1.367 . S
C1915 C1923 1.433 . S
C1916 H1912 0.929 . S
C1916 C1918 1.378 . S
C1916 C1920 1.350 . S
C1917 C1920 1.463 . S
C1917 C1922 1.350 . S
C1917 N1925 1.427 . S
C1918 H1909 0.930 . S
C1918 C1916 1.378 . S
C1918 C1919 1.367 . S
C1919 C1918 1.367 . S
C1919 C1921 1.433 . S
C1920 C1916 1.350 . S
C1920 C1917 1.463 . S
C1920 N1924 1.427 . S
C1921 H1911 0.929 . S
C1921 C1919 1.433 . S
C1921 N1924 1.384 . S
C1922 H1913 0.929 . S
C1922 C1914 1.378 . S
C1922 C1917 1.350 . S
C1923 H1910 0.929 . S
C1923 C1915 1.433 . S
C1923 N1925 1.384 . S
N1924 C1920 1.427 . S
N1924 C1921 1.384 . S
N1925 C1917 1.427 . S
N1925 C1923 1.384 . S
C961 C147 1.451 . S
C965 C254 1.388 . S
C979 C158 1.479 . S
C983 C338 1.415 . S
C997 C136 1.447 . S
C1001 C432 1.437 . S
C1015 C125 1.432 . S
C1019 C348 1.428 1_556 S
C1037 C422 1.382 . S
C1033 C103 1.437 . S
C1051 C114 1.406 . S
C1055 C264 1.398 1_556 S
C1073 C265 1.433 . S
C1069 C131 1.505 . S
C1091 C349 1.473 . S
C1087 C109 1.521 . S
C1105 C120 1.519 . S
C1109 C441 1.476 1_556 S
C1123 C153 1.493 . S
C1127 C357 1.452 . S
C1141 C164 1.476 . S
C1145 C433 1.415 . S
C1163 C273 1.437 . S
C1159 C142 1.468 . S
C1181 C506 1.389 . S
C1177 C15 1.451 . S
C1195 C26 1.475 . S
C1199 C590 1.430 . S
C1213 C4 1.445 . S
C1217 C684 1.438 . S
C1231 C191 1.433 . S
C1235 C600 1.427 . S
C1249 C169 1.439 . S
C1253 C674 1.371 . S
C1267 C180 1.410 . S
C1271 C516 1.401 . S
C1285 C197 1.505 . S
C1289 C517 1.432 . S
C1303 C175 1.523 . S
C1307 C601 1.475 . S
C1325 C693 1.479 . S
C1321 C186 1.520 . S
C1339 C21 1.487 . S
C1343 C609 1.454 . S
C1361 C685 1.425 . S
C1357 C32 1.474 . S
C1375 C10 1.469 . S
C1379 C525 1.426 . S
C1397 C758 1.387 . S
C1393 C81 1.452 . S
C1411 C92 1.479 . S
C1415 C842 1.416 . S
C1433 C936 1.439 . S
C1429 C70 1.445 . S
C1451 C852 1.429 . S
C1447 C59 1.431 . S
C1469 C926 1.378 . S
C1465 C37 1.437 . S
C1483 C48 1.405 . S
C1487 C768 1.402 . S
C1501 C65 1.497 . S
C1505 C769 1.449 . S
C1519 C43 1.529 . S
C1523 C853 1.460 . S
C1541 C945 1.474 . S
C1537 C54 1.517 . S
C1555 C87 1.494 . S
C1559 C861 1.459 . S
C1573 C98 1.481 . S
C1577 C937 1.415 . S
C1591 C76 1.468 . S
C1595 C777 1.437 . S
C1609 C170 1.558 . S
C1613 C261 1.448 . S
C1631 C345 1.482 . S
C1627 C181 1.611 . S
C1645 C192 1.567 . S
C1649 C438 1.392 . S
C1663 C71 1.581 . S
C1667 C354 1.390 . S
C1681 C82 1.578 . S
C1685 C429 1.432 . S
C1703 C270 1.375 . S
C1699 C93 1.528 . S
C1717 C38 1.555 . S
C1721 C513 1.450 . S
C1735 C49 1.616 . S
C1739 C597 1.478 . S
C1753 C60 1.564 . S
C1757 C690 1.396 . S
C1771 C137 1.587 . S
C1775 C606 1.407 . S
C1793 C681 1.454 . S
C1789 C148 1.575 . S
C1807 C159 1.531 . S
C1811 C522 1.355 . S
C1825 C104 1.559 . S
C1829 C765 1.446 . S
C1843 C115 1.616 . S
C1847 C849 1.471 . S
C1865 C942 1.383 . S
C1861 C126 1.561 . S
C1879 C5 1.589 . S
C1883 C858 1.402 . S
C1897 C16 1.572 . S
C1901 C933 1.446 . S
C1915 C27 1.531 . S
C1919 C774 1.378 . S
