# Generated by pormake.
# Topology zzz, (3,6)-cn, num edge types: 1
# Building blocks:
#     Node 0, Type 0, BuildingBlock: BETDIP_clean_linker_0, # of connection points: 3
#     Node 1, Type 0, BuildingBlock: BETDIP_clean_linker_0, # of connection points: 3
#     Node 2, Type 0, BuildingBlock: BETDIP_clean_linker_0, # of connection points: 3
#     Node 3, Type 0, BuildingBlock: BETDIP_clean_linker_0, # of connection points: 3
#     Node 4, Type 0, BuildingBlock: BETDIP_clean_linker_0, # of connection points: 3
#     Node 5, Type 0, BuildingBlock: BETDIP_clean_linker_0, # of connection points: 3
#     Node 6, Type 0, BuildingBlock: BETDIP_clean_linker_0, # of connection points: 3
#     Node 7, Type 0, BuildingBlock: BETDIP_clean_linker_0, # of connection points: 3
#     Node 8, Type 1, BuildingBlock: GEDQOX_clean_sbu_0, # of connection points: 6
#     Node 9, Type 1, BuildingBlock: GEDQOX_clean_sbu_0, # of connection points: 6
#     Node 10, Type 1, BuildingBlock: GEDQOX_clean_sbu_0, # of connection points: 6
#     Node 11, Type 1, BuildingBlock: GEDQOX_clean_sbu_0, # of connection points: 6
#     Edge 12, Type (0, 1), BuildingBlock: EZIPEK_clean_linker_0, # of connection points: 2
#     Edge 13, Type (0, 1), BuildingBlock: EZIPEK_clean_linker_0, # of connection points: 2
#     Edge 14, Type (0, 1), BuildingBlock: EZIPEK_clean_linker_0, # of connection points: 2
#     Edge 15, Type (0, 1), BuildingBlock: EZIPEK_clean_linker_0, # of connection points: 2
#     Edge 16, Type (0, 1), BuildingBlock: EZIPEK_clean_linker_0, # of connection points: 2
#     Edge 17, Type (0, 1), BuildingBlock: EZIPEK_clean_linker_0, # of connection points: 2
#     Edge 18, Type (0, 1), BuildingBlock: EZIPEK_clean_linker_0, # of connection points: 2
#     Edge 19, Type (0, 1), BuildingBlock: EZIPEK_clean_linker_0, # of connection points: 2
#     Edge 20, Type (0, 1), BuildingBlock: EZIPEK_clean_linker_0, # of connection points: 2
#     Edge 21, Type (0, 1), BuildingBlock: EZIPEK_clean_linker_0, # of connection points: 2
#     Edge 22, Type (0, 1), BuildingBlock: EZIPEK_clean_linker_0, # of connection points: 2
#     Edge 23, Type (0, 1), BuildingBlock: EZIPEK_clean_linker_0, # of connection points: 2
#     Edge 24, Type (0, 1), BuildingBlock: EZIPEK_clean_linker_0, # of connection points: 2
#     Edge 25, Type (0, 1), BuildingBlock: EZIPEK_clean_linker_0, # of connection points: 2
#     Edge 26, Type (0, 1), BuildingBlock: EZIPEK_clean_linker_0, # of connection points: 2
#     Edge 27, Type (0, 1), BuildingBlock: EZIPEK_clean_linker_0, # of connection points: 2
#     Edge 28, Type (0, 1), BuildingBlock: EZIPEK_clean_linker_0, # of connection points: 2
#     Edge 29, Type (0, 1), BuildingBlock: EZIPEK_clean_linker_0, # of connection points: 2
#     Edge 30, Type (0, 1), BuildingBlock: EZIPEK_clean_linker_0, # of connection points: 2
#     Edge 31, Type (0, 1), BuildingBlock: EZIPEK_clean_linker_0, # of connection points: 2
#     Edge 32, Type (0, 1), BuildingBlock: EZIPEK_clean_linker_0, # of connection points: 2
#     Edge 33, Type (0, 1), BuildingBlock: EZIPEK_clean_linker_0, # of connection points: 2
#     Edge 34, Type (0, 1), BuildingBlock: EZIPEK_clean_linker_0, # of connection points: 2
#     Edge 35, Type (0, 1), BuildingBlock: EZIPEK_clean_linker_0, # of connection points: 2
# Relax obj value: 0.140
# Max RMSD: 0.228
# Mean RMSD: 0.080
data_MOF--net-zzz--node1-GEDQOX_clean_sbu_0--node2-BETDIP_clean_linker_0--edge1-EZIPEK_clean_linker_0
_symmetry_space_group_name_H-M    P1
_symmetry_Int_Tables_number       1
_symmetry_cell_setting            triclinic
loop_
_symmetry_equiv_pos_as_xyz
'x, y, z'
_cell_length_a     40.525766
_cell_length_b     39.224546
_cell_length_c     13.714299
_cell_angle_alpha  76.835198
_cell_angle_beta   89.529851
_cell_angle_gamma 102.11918
loop_
_atom_site_label
_atom_site_type_symbol
_atom_site_fract_x
_atom_site_fract_y
_atom_site_fract_z
_atom_type_partial_charge
H0 H 0.77654 0.5648 0.32646 0.0
H1 H 0.79251 0.53235 0.05265 0.0
H2 H 0.87532 0.55452 0.23879 0.0
H3 H 0.75651 0.59337 0.04483 0.0
C4 C 0.73661 0.57254 0.08957 0.0
C5 C 0.793 0.55759 0.27557 0.0
C6 C 0.82752 0.56059 0.29279 0.0
C7 C 0.78023 0.54717 0.18904 0.0
C8 C 0.80199 0.53923 0.1209 0.0
C9 C 0.83625 0.54138 0.13997 0.0
C10 C 0.84856 0.55165 0.22614 0.0
N11 N 0.74589 0.54646 0.16849 0.0
H12 H 0.02929 0.75782 0.44505 0.0
H13 H 0.0483 0.80705 0.1268 0.0
H14 H 0.04011 0.87162 0.33362 0.0
H15 H 0.0231 0.75389 0.10765 0.0
C16 C 0.03073 0.73443 0.16785 0.0
C17 C 0.03385 0.78122 0.38292 0.0
C18 C 0.03474 0.81561 0.40111 0.0
C19 C 0.0382 0.77731 0.28311 0.0
C20 C 0.04414 0.80844 0.2036 0.0
C21 C 0.04442 0.84204 0.22283 0.0
C22 C 0.04012 0.84531 0.32044 0.0
N23 N 0.0367 0.74246 0.26407 0.0
H24 H 0.7852 0.03525 0.33615 0.0
H25 H 0.78213 0.06183 0.0135 0.0
H26 H 0.6916 0.04488 0.19941 0.0
H27 H 0.81791 1.00834 0.08476 0.0
C28 C 0.83588 0.02869 0.11043 0.0
C29 C 0.77132 0.0414 0.26957 0.0
C30 C 0.73628 0.03907 0.27855 0.0
C31 C 0.788 0.04971 0.17374 0.0
C32 C 0.76963 0.0563 0.08732 0.0
C33 C 0.73497 0.0552 0.09694 0.0
C34 C 0.71871 0.04695 0.19231 0.0
N35 N 0.82304 0.05043 0.16482 0.0
H36 H 0.53369 0.81275 0.69122 0.0
H37 H 0.53247 0.83828 0.3675 0.0
H38 H 0.53477 0.7316 0.52745 0.0
H39 H 0.57881 0.90066 0.45937 0.0
C40 C 0.55157 0.89621 0.45576 0.0
C41 C 0.53406 0.80481 0.62067 0.0
C42 C 0.53516 0.76899 0.61986 0.0
C43 C 0.53385 0.83037 0.52877 0.0
C44 C 0.53379 0.81955 0.438 0.0
C45 C 0.53363 0.78396 0.43846 0.0
C46 C 0.53475 0.75922 0.52849 0.0
N47 N 0.53196 0.86634 0.52731 0.0
H48 H 0.29129 0.53084 0.58174 0.0
H49 H 0.28135 0.57724 0.83529 0.0
H50 H 0.19681 0.5541 0.65748 0.0
H51 H 0.32508 0.55157 0.88707 0.0
C52 C 0.34067 0.55461 0.81965 0.0
C53 C 0.27655 0.54196 0.62774 0.0
C54 C 0.24244 0.54163 0.6095 0.0
C55 C 0.29116 0.555 0.7087 0.0
C56 C 0.27117 0.56793 0.77102 0.0
C57 C 0.23712 0.56755 0.75203 0.0
C58 C 0.22345 0.55543 0.66989 0.0
N59 N 0.3255 0.55368 0.72669 0.0
H60 H 0.05411 0.35599 0.43488 0.0
H61 H 0.02452 0.3069 0.74807 0.0
H62 H 0.03696 0.24157 0.54566 0.0
H63 H 0.99839 0.35568 0.72557 0.0
C64 C 0.01943 0.37707 0.6894 0.0
C65 C 0.04674 0.3324 0.49591 0.0
C66 C 0.04579 0.29794 0.47857 0.0
C67 C 0.03802 0.33604 0.59311 0.0
C68 C 0.02948 0.30491 0.67211 0.0
C69 C 0.02953 0.27111 0.65435 0.0
C70 C 0.03689 0.26795 0.55812 0.0
N71 N 0.03979 0.37087 0.61196 0.0
H72 H 0.28832 0.07025 0.56802 0.0
H73 H 0.29914 0.05042 0.88856 0.0
H74 H 0.38403 0.05979 0.69035 0.0
H75 H 0.25675 0.07696 0.89077 0.0
C76 C 0.24163 0.07376 0.8273 0.0
C77 C 0.30378 0.06641 0.63203 0.0
C78 C 0.33791 0.06527 0.61794 0.0
C79 C 0.28973 0.06301 0.72913 0.0
C80 C 0.30959 0.0556 0.81255 0.0
C81 C 0.34354 0.05442 0.79764 0.0
C82 C 0.35759 0.06047 0.70088 0.0
N83 N 0.25576 0.0668 0.74027 0.0
H84 H 0.53749 0.30026 0.25684 0.0
H85 H 0.5856 0.30041 0.53652 0.0
H86 H 0.57803 0.3996 0.3415 0.0
H87 H 0.60583 0.25257 0.47424 0.0
C88 C 0.57948 0.2386 0.47967 0.0
C89 C 0.5505 0.31455 0.30916 0.0
C90 C 0.55665 0.35263 0.28763 0.0
C91 C 0.56193 0.29527 0.3985 0.0
C92 C 0.57831 0.31439 0.46567 0.0
C93 C 0.58403 0.35159 0.44496 0.0
C94 C 0.57351 0.37056 0.35634 0.0
N95 N 0.55601 0.25694 0.42385 0.0
Nd96 Nd 0.031 0.04753 0.84074 0.0
Nd97 Nd 0.04738 0.06653 0.03763 0.0
C98 C 0.01166 1.01266 0.69768 0.0
C99 C 0.01447 0.97794 0.67501 0.0
C100 C 0.01206 0.97383 0.57605 0.0
C101 C 0.01462 0.94137 0.55286 0.0
C102 C 0.01976 0.91226 0.62805 0.0
C103 C 0.02204 0.91621 0.72734 0.0
C104 C 0.01949 0.94875 0.75055 0.0
C105 C 0.09921 0.07468 0.85837 0.0
C106 C 0.0446 0.98574 0.03202 0.0
C107 C 0.07131 0.10347 0.17163 0.0
C108 C 0.06806 0.13784 0.19625 0.0
C109 C 0.07533 0.1707 0.12351 0.0
C110 C 0.07343 0.20297 0.14925 0.0
C111 C 0.06395 0.20306 0.24796 0.0
C112 C 0.05633 0.17031 0.3202 0.0
C113 C 0.0584 0.1381 0.2947 0.0
C114 C 0.97949 0.04012 0.02827 0.0
C115 C 0.03008 0.12769 0.84682 0.0
O116 O 0.99237 1.01108 0.7759 0.0
O117 O 0.0395 0.03715 0.68998 0.0
O118 O 0.0831 0.08195 0.77765 0.0
O119 O 0.0792 0.05214 0.92499 0.0
O120 O 0.02822 0.9935 0.9505 0.0
O121 O 0.05959 1.01074 0.07702 0.0
O122 O 0.08761 0.10579 0.08686 0.0
O123 O 0.04481 0.07684 0.19088 0.0
O124 O 0.99674 0.03192 0.10622 0.0
O125 O 0.99837 0.06166 0.95598 0.0
O126 O 0.0445 0.1201 0.93231 0.0
O127 O 0.01797 0.10283 0.79788 0.0
H128 H 1.00817 0.9958 0.51645 0.0
H129 H 0.01272 0.93899 0.47583 0.0
H130 H 0.02592 0.89417 0.78668 0.0
H131 H 0.02143 0.95101 0.82752 0.0
H132 H 0.08278 0.17158 0.04679 0.0
H133 H 0.0795 0.22788 0.09233 0.0
H134 H 0.04909 0.16974 0.39688 0.0
H135 H 0.05273 0.11334 0.35232 0.0
Nd136 Nd 0.53609 0.02917 0.86965 0.0
Nd137 Nd 0.54249 0.06913 0.00221 0.0
C138 C 0.53542 0.98547 0.74896 0.0
C139 C 0.5649 0.9836 0.68685 0.0
C140 C 0.59421 0.9753 0.73262 0.0
C141 C 0.62436 0.98066 0.67542 0.0
C142 C 0.62587 0.99453 0.57154 0.0
C143 C 0.59636 1.00098 0.52468 0.0
C144 C 0.56607 0.99549 0.58186 0.0
C145 C 0.55346 0.10153 0.773 0.0
C146 C 0.61174 0.05932 0.9295 0.0
C147 C 0.53621 0.09837 0.15493 0.0
C148 C 0.50549 0.0917 0.22002 0.0
C149 C 0.49896 0.11785 0.26718 0.0
C150 C 0.46844 0.11201 0.32337 0.0
C151 C 0.44325 0.08079 0.32788 0.0
C152 C 0.44938 0.05549 0.27616 0.0
C153 C 0.48057 0.0604 0.22545 0.0
C154 C 0.51232 0.98887 0.10305 0.0
C155 C 0.46604 0.04199 0.95342 0.0
O156 O 0.53708 0.97533 0.8458 0.0
O157 O 0.52412 0.0149 0.72354 0.0
O158 O 0.56876 0.07752 0.75631 0.0
O159 O 0.53067 0.0879 0.84201 0.0
O160 O 0.59198 0.03282 0.90044 0.0
O161 O 0.59863 0.08401 0.95619 0.0
O162 O 0.53368 0.11471 0.06235 0.0
O163 O 0.5505 0.07122 0.16104 0.0
O164 O 0.53753 1.0088 0.04354 0.0
O165 O 0.53721 1.00928 0.04368 0.0
O166 O 0.48657 0.06695 0.98511 0.0
O167 O 0.47892 0.02117 0.90779 0.0
H168 H 0.59444 0.96625 0.81331 0.0
H169 H 0.64685 0.97535 0.71262 0.0
H170 H 0.59707 1.01142 0.44425 0.0
H171 H 0.54402 1.00218 0.54458 0.0
H172 H 0.51722 0.14292 0.2589 0.0
H173 H 0.46423 0.1321 0.36185 0.0
H174 H 0.4302 0.03159 0.27663 0.0
H175 H 0.48475 0.04043 0.18671 0.0
Nd176 Nd 0.52858 0.55888 0.04054 0.0
Nd177 Nd 0.55114 0.55124 0.82818 0.0
C178 C 0.50231 0.56665 0.20687 0.0
C179 C 0.5065 0.60202 0.22895 0.0
C180 C 0.49062 0.60762 0.31312 0.0
C181 C 0.49555 0.64238 0.32877 0.0
C182 C 0.51584 0.67148 0.25924 0.0
C183 C 0.53077 0.66575 0.17415 0.0
C184 C 0.52688 0.63124 0.16086 0.0
C185 C 0.59743 0.57584 0.99478 0.0
C186 C 0.53857 0.62934 0.85379 0.0
C187 C 0.58892 0.55003 0.67251 0.0
C188 C 0.60966 0.52594 0.65194 0.0
C189 C 0.62345 0.50459 0.7308 0.0
C190 C 0.63208 0.47312 0.71808 0.0
C191 C 0.62566 0.4625 0.62785 0.0
C192 C 0.61609 0.48625 0.54569 0.0
C193 C 0.60825 0.51794 0.5576 0.0
C194 C 0.48209 0.54699 0.83798 0.0
C195 C 0.53575 0.47888 0.01578 0.0
O196 O 0.48425 0.56283 0.12971 0.0
O197 O 0.53052 0.55558 0.20377 0.0
O198 O 0.58171 0.59383 0.04049 0.0
O199 O 0.57653 0.54996 0.97474 0.0
O200 O 0.52338 0.613 0.94241 0.0
O201 O 0.55514 0.61275 0.80219 0.0
O202 O 0.59971 0.56942 0.73667 0.0
O203 O 0.55661 0.53525 0.68628 0.0
O204 O 0.49839 0.5437 0.76013 0.0
O205 O 0.50249 0.55078 0.90503 0.0
O206 O 0.54802 0.49332 0.92182 0.0
O207 O 0.52361 0.49751 0.07163 0.0
H208 H 0.47483 0.58537 0.36642 0.0
H209 H 0.48377 0.64662 0.39494 0.0
H210 H 0.54645 0.68787 0.12 0.0
H211 H 0.54027 0.62744 0.09755 0.0
H212 H 0.62464 0.51044 0.80435 0.0
H213 H 0.6401 0.45531 0.78152 0.0
H214 H 0.61156 0.47866 0.47493 0.0
H215 H 0.59767 0.53417 0.49614 0.0
Nd216 Nd 0.03364 0.57604 0.84043 0.0
Nd217 Nd 0.03982 0.53534 0.04312 0.0
C218 C 0.0262 0.62012 0.66997 0.0
C219 C 0.99501 0.62074 0.61408 0.0
C220 C 0.96735 0.6316 0.65141 0.0
C221 C 0.93598 0.62585 0.6086 0.0
C222 C 0.93173 0.60892 0.52848 0.0
C223 C 0.95946 0.59928 0.48883 0.0
C224 C 0.99089 0.60547 0.53039 0.0
C225 C 0.02406 0.50341 0.84905 0.0
C226 C 0.96399 0.54158 0.9729 0.0
C227 C 0.04556 0.49036 0.21411 0.0
C228 C 0.07458 0.48982 0.27931 0.0
C229 C 0.09589 0.46586 0.27687 0.0
C230 C 0.12612 0.46889 0.32623 0.0
C231 C 0.13532 0.49572 0.37936 0.0
C232 C 0.11349 0.51861 0.38562 0.0
C233 C 0.08341 0.51571 0.33624 0.0
C234 C 0.04864 0.608 0.03359 0.0
C235 C 0.10974 0.57035 0.91223 0.0
O236 O 0.02654 0.62931 0.756 0.0
O237 O 0.03892 0.59188 0.67427 0.0
O238 O 1.00558 0.5242 0.80126 0.0
O239 O 0.04645 0.52108 0.89328 0.0
O240 O 0.97844 0.56485 0.89176 0.0
O241 O 0.98166 0.52318 0.03697 0.0
O242 O 0.04989 0.48333 0.12673 0.0
O243 O 0.03039 0.51702 0.20817 0.0
O244 O 0.06698 0.58749 0.08352 0.0
O245 O 0.02648 0.58984 0.99007 0.0
O246 O 0.09553 0.54916 0.99679 0.0
O247 O 0.09192 0.58695 0.84421 0.0
H248 H 0.96948 0.64326 0.71609 0.0
H249 H 0.91479 0.63352 0.63989 0.0
H250 H 0.95648 0.58608 0.42719 0.0
H251 H 0.01158 0.59673 0.5 0.0
H252 H 0.08975 0.4456 0.23388 0.0
H253 H 0.14266 0.45087 0.32125 0.0
H254 H 0.12014 0.53929 0.42707 0.0
H255 H 0.06766 0.53455 0.34032 0.0
C256 C 0.18526 0.05535 0.92148 0.0
C257 C 0.20566 0.0763 0.83562 0.0
C258 C 0.15805 0.10341 0.77367 0.0
C259 C 0.13725 0.08118 0.85863 0.0
N260 N 0.13776 0.05123 0.03329 0.0
N261 N 0.21463 0.12716 0.69394 0.0
C262 C 0.15278 0.06166 0.93873 0.0
C263 C 0.19294 0.10222 0.76509 0.0
N264 N 0.19644 0.0286 0.9858 0.0
N265 N 0.14491 0.12655 0.70265 0.0
H266 H 0.24042 0.12786 0.68746 0.0
H267 H 0.20793 0.14909 0.64656 0.0
H268 H 0.12266 0.13448 0.71574 0.0
H269 H 0.1564 0.13846 0.63137 0.0
H270 H 0.18097 1.01005 0.04349 0.0
H271 H 0.22004 0.02278 0.97586 0.0
H272 H 0.14936 0.03933 0.09562 0.0
H273 H 0.11617 0.05921 0.05196 0.0
C274 C 0.55129 0.17247 0.53174 0.0
C275 C 0.56893 0.20409 0.55826 0.0
C276 C 0.57268 0.16872 0.73042 0.0
C277 C 0.55626 0.13716 0.70212 0.0
N278 N 0.52267 0.10969 0.58537 0.0
N279 N 0.60025 0.23161 0.68036 0.0
C280 C 0.5435 0.13925 0.60543 0.0
C281 C 0.58044 0.20204 0.65724 0.0
N282 N 0.54464 0.17335 0.43392 0.0
N283 N 0.58005 0.16694 0.82838 0.0
H284 H 0.60568 0.25686 0.63185 0.0
H285 H 0.61333 0.23094 0.74547 0.0
H286 H 0.57518 0.14297 0.88322 0.0
H287 H 0.58833 0.18925 0.85783 0.0
H288 H 0.53717 0.15025 0.4077 0.0
H289 H 0.5498 0.19675 0.37701 0.0
H290 H 0.50914 0.11025 0.52101 0.0
H291 H 0.51632 0.08509 0.63759 0.0
C292 C 0.38717 0.527 0.90316 0.0
C293 C 0.37717 0.55396 0.8287 0.0
C294 C 0.43612 0.57715 0.76317 0.0
C295 C 0.44636 0.55094 0.8398 0.0
N296 N 0.43265 0.50533 0.99407 0.0
N297 N 0.39286 0.6101 0.70555 0.0
C298 C 0.42223 0.52746 0.91388 0.0
C299 C 0.40183 0.58047 0.76325 0.0
N300 N 0.36314 0.49967 0.95984 0.0
N301 N 0.45924 0.59943 0.69085 0.0
H302 H 0.36827 0.6142 0.70631 0.0
H303 H 0.41024 0.63235 0.66477 0.0
H304 H 0.48524 0.60158 0.69447 0.0
H305 H 0.45253 0.61521 0.62536 0.0
H306 H 0.36867 0.47702 0.00708 0.0
H307 H 0.33725 0.49794 0.95359 0.0
H308 H 0.41681 0.49074 0.05639 0.0
H309 H 0.45777 0.50348 0.00232 0.0
C310 C 0.0347 0.44545 0.6669 0.0
C311 C 0.02669 0.4103 0.73044 0.0
C312 C 0.01976 0.4365 0.87525 0.0
C313 C 0.02884 0.47145 0.81225 0.0
N314 N 0.05529 0.50903 0.65535 0.0
N315 N 0.02108 0.3736 0.89953 0.0
C316 C 0.03966 0.47583 0.71037 0.0
C317 C 0.02214 0.40626 0.83607 0.0
N318 N 0.03528 0.45023 0.56503 0.0
N319 N 1.00765 0.432 0.97164 0.0
H320 H 0.024 0.35117 0.87436 0.0
H321 H 0.02098 0.36968 0.97725 0.0
H322 H 1.00613 0.45353 0.003 0.0
H323 H 0.9969 0.40703 0.0179 0.0
H324 H 0.03725 0.47525 0.51614 0.0
H325 H 0.03029 0.42918 0.52915 0.0
H326 H 0.06659 0.51338 0.58377 0.0
H327 H 0.06034 0.53149 0.68586 0.0
C328 C 0.89737 0.04507 0.15283 0.0
C329 C 0.87293 0.03303 0.08735 0.0
C330 C 0.91857 0.02286 0.98579 0.0
C331 C 0.94294 0.03976 0.04285 0.0
N332 N 0.95465 0.07683 0.16261 0.0
N333 N 0.8623 0.01867 0.92596 0.0
C334 C 0.93208 0.05411 0.12047 0.0
C335 C 0.8841 0.02441 0.99894 0.0
N336 N 0.88818 0.04531 0.24864 0.0
N337 N 0.92788 1.00372 0.92295 0.0
H338 H 0.83726 0.0212 0.92941 0.0
H339 H 0.87024 0.01535 0.85686 0.0
H340 H 0.95245 1.0 0.91794 0.0
H341 H 0.91055 0.98826 0.88589 0.0
H342 H 0.90584 0.05153 0.30032 0.0
H343 H 0.86384 0.0343 0.28109 0.0
H344 H 0.94718 0.08995 0.21432 0.0
H345 H 0.97998 0.08585 0.13696 0.0
C346 C 0.55377 0.91828 0.26707 0.0
C347 C 0.53745 0.9149 0.36241 0.0
C348 C 0.49851 0.95155 0.27914 0.0
C349 C 0.51737 0.95831 0.18651 0.0
N350 N 0.55295 0.93639 0.08591 0.0
N351 N 0.49649 0.93162 0.46064 0.0
C352 C 0.54243 0.93853 0.17863 0.0
C353 C 0.50991 0.93179 0.36868 0.0
N354 N 0.5806 0.90258 0.26083 0.0
N355 N 0.4693 0.96366 0.28092 0.0
H356 H 0.50461 0.91847 0.52791 0.0
H357 H 0.47932 0.94701 0.47109 0.0
H358 H 0.45994 0.97712 0.21606 0.0
H359 H 0.4526 0.95725 0.3437 0.0
H360 H 0.59682 0.90858 0.19709 0.0
H361 H 0.58773 0.88449 0.3207 0.0
H362 H 0.56895 0.92007 0.07326 0.0
H363 H 0.5421 0.94763 0.02149 0.0
C364 C 0.67433 0.56199 0.1429 0.0
C365 C 0.70055 0.57201 0.06562 0.0
C366 C 0.65932 0.58809 0.9424 0.0
C367 C 0.63278 0.5735 0.01754 0.0
N368 N 0.61456 0.53885 0.18579 0.0
N369 N 0.71595 0.58728 0.88758 0.0
C370 C 0.64012 0.55783 0.11658 0.0
C371 C 0.69247 0.58295 0.96399 0.0
N372 N 0.68178 0.55917 0.24102 0.0
N373 N 0.65327 0.60802 0.85163 0.0
H374 H 0.74012 0.58247 0.89929 0.0
H375 H 0.71019 0.59188 0.81242 0.0
H376 H 0.62954 0.61338 0.83502 0.0
H377 H 0.6724 0.62213 0.79726 0.0
H378 H 0.66337 0.55483 0.29869 0.0
H379 H 0.70628 0.56598 0.26355 0.0
H380 H 0.61889 0.52407 0.25608 0.0
H381 H 0.58916 0.53488 0.16943 0.0
C382 C 0.01662 0.66696 0.18571 0.0
C383 C 0.03709 0.7012 0.1411 0.0
C384 C 0.06184 0.67487 0.01826 0.0
C385 C 0.04336 0.64025 0.0677 0.0
N386 N 1.0058 0.6024 0.20554 0.0
N387 N 0.08251 0.73722 0.02363 0.0
C388 C 0.02153 0.63605 0.15356 0.0
C389 C 0.06059 0.70495 0.05961 0.0
N390 N 0.99112 0.66417 0.25483 0.0
N391 N 0.07991 0.67913 0.93007 0.0
H392 H 0.08255 0.75964 0.05252 0.0
H393 H 0.10253 0.74107 0.97146 0.0
H394 H 0.08139 0.65769 0.89827 0.0
H395 H 0.09111 0.70399 0.88418 0.0
H396 H 0.97231 0.64106 0.27955 0.0
H397 H 0.98706 0.68588 0.2816 0.0
H398 H 0.99313 0.59719 0.27543 0.0
H399 H 1.00716 0.57927 0.18188 0.0
C400 C 0.05546 0.22926 0.77512 0.0
C401 C 0.02554 0.23803 0.7349 0.0
C402 C 0.99634 0.1748 0.7873 0.0
C403 C 0.02803 0.16554 0.80797 0.0
N404 N 0.08882 0.18417 0.81168 0.0
N405 N 0.96699 0.22021 0.70304 0.0
C406 C 0.05785 0.19284 0.80083 0.0
C407 C 0.99562 0.21109 0.74255 0.0
N408 N 0.08192 0.25594 0.78553 0.0
N409 N 0.96704 0.14932 0.81308 0.0
H410 H 0.96551 0.2469 0.67494 0.0
H411 H 0.94548 0.20149 0.69449 0.0
H412 H 0.96658 0.12265 0.848 0.0
H413 H 0.94314 0.15523 0.80817 0.0
H414 H 0.10333 0.25111 0.82305 0.0
H415 H 0.08083 0.28296 0.76599 0.0
H416 H 0.11157 0.20313 0.79669 0.0
H417 H 0.09217 0.15792 0.82593 0.0
C418 C 0.3848 0.07458 0.91723 0.0
C419 C 0.36577 0.04604 0.88076 0.0
C420 C 0.4062 1.00887 0.94323 0.0
C421 C 0.42861 0.03994 0.95827 0.0
N422 N 0.43019 0.09387 0.01841 0.0
N423 N 0.35443 0.98425 0.8716 0.0
C424 C 0.41521 0.07029 0.96415 0.0
C425 C 0.37483 1.01221 0.90053 0.0
N426 N 0.37504 0.10662 0.90058 0.0
N427 N 0.41451 0.97626 0.97393 0.0
H428 H 0.3307 0.98591 0.84429 0.0
H429 H 0.36119 0.96006 0.87189 0.0
H430 H 0.43606 0.97327 0.01328 0.0
H431 H 0.39863 0.95202 0.97078 0.0
H432 H 0.39035 0.13011 0.91191 0.0
H433 H 0.35205 0.11003 0.87059 0.0
H434 H 0.41989 0.1148 0.03084 0.0
H435 H 0.44986 0.0895 0.06416 0.0
C436 C 0.63369 0.3893 0.5043 0.0
C437 C 0.59926 0.3712 0.51916 0.0
C438 C 0.59118 0.40082 0.653 0.0
C439 C 0.62262 0.42495 0.62058 0.0
N440 N 0.67631 0.43996 0.52889 0.0
N441 N 0.54511 0.35742 0.61028 0.0
C442 C 0.64506 0.41782 0.5521 0.0
C443 C 0.57818 0.37554 0.59629 0.0
N444 N 0.65494 0.37957 0.44299 0.0
N445 N 0.57338 0.40294 0.73566 0.0
H446 H 0.53486 0.338 0.57169 0.0
H447 H 0.52724 0.36291 0.65601 0.0
H448 H 0.58215 0.42127 0.77874 0.0
H449 H 0.55165 0.38421 0.7678 0.0
H450 H 0.68086 0.39008 0.43346 0.0
H451 H 0.64682 0.35874 0.40717 0.0
H452 H 0.69291 0.43913 0.47162 0.0
H453 H 0.68521 0.45997 0.56705 0.0
C454 C 0.19235 0.54075 0.88507 0.0
C455 C 0.21262 0.5725 0.82561 0.0
C456 C 0.16878 0.60509 0.84884 0.0
C457 C 0.14595 0.57176 0.88887 0.0
N458 N 0.13723 0.50611 0.93329 0.0
N459 N 0.22139 0.63552 0.75121 0.0
C460 C 0.15801 0.53933 0.90587 0.0
C461 C 0.20143 0.60509 0.80909 0.0
N462 N 0.20492 0.51045 0.91233 0.0
N463 N 0.15957 0.6365 0.85066 0.0
H464 H 0.2459 0.63619 0.72547 0.0
H465 H 0.21324 0.65931 0.72581 0.0
H466 H 0.13632 0.63726 0.88225 0.0
H467 H 0.1761 0.66149 0.82987 0.0
H468 H 0.19042 0.48618 0.95404 0.0
H469 H 0.23022 0.5104 0.89774 0.0
H470 H 0.11091 0.50096 0.93966 0.0
H471 H 0.11091 0.50096 0.93966 0.0
C472 C 0.01535 0.8849 0.11792 0.0
C473 C 0.04625 0.87486 0.14306 0.0
C474 C 0.07687 0.9368 0.07641 0.0
C475 C 0.04554 0.94771 0.07096 0.0
N476 N 0.98453 0.93236 0.09421 0.0
N477 N 0.10676 0.89019 0.14687 0.0
C478 C 0.01457 0.92177 0.09227 0.0
C479 C 0.07723 0.90048 0.1211 0.0
N480 N 0.98668 0.85896 0.12186 0.0
N481 N 0.10595 0.96073 0.0359 0.0
H482 H 0.10771 0.86335 0.17485 0.0
H483 H 0.12978 0.90824 0.1445 0.0
H484 H 0.10631 0.9872 0.99949 0.0
H485 H 0.12905 0.95351 0.02978 0.0
H486 H 0.96379 0.86441 0.09619 0.0
H487 H 0.98683 0.83168 0.14142 0.0
H488 H 0.96151 0.91464 0.11903 0.0
H489 H 0.98282 0.95917 0.08023 0.0
C490 C 0.70472 0.09093 0.96759 0.0
C491 C 0.71322 0.05781 0.01076 0.0
C492 C 0.65725 0.02528 0.98728 0.0
C493 C 0.64782 0.05842 0.94503 0.0
N494 N 0.66639 0.12129 0.86413 0.0
N495 N 0.70342 0.99467 0.02165 0.0
C496 C 0.67289 0.09088 0.92453 0.0
C497 C 0.69165 0.02551 0.00324 0.0
N498 N 0.72626 0.12216 0.97291 0.0
N499 N 0.63356 0.99441 0.02439 0.0
H500 H 0.72863 0.99464 0.03692 0.0
H501 H 0.68921 0.97046 0.01118 0.0
H502 H 0.60778 0.99332 0.03088 0.0
H503 H 0.63978 0.97063 0.06262 0.0
H504 H 0.71984 0.1471 0.95341 0.0
H505 H 0.75018 0.12253 1.00094 0.0
H506 H 0.68463 0.14502 0.84143 0.0
H507 H 0.64379 0.12157 0.8283 0.0
C508 C 0.49903 0.75566 0.31887 0.0
C509 C 0.53145 0.77042 0.34674 0.0
C510 C 0.55531 0.72498 0.29597 0.0
C511 C 0.52225 0.70802 0.27636 0.0
N512 N 0.46553 0.71331 0.23483 0.0
N513 N 0.59144 0.77917 0.32462 0.0
C514 C 0.49501 0.72557 0.27578 0.0
C515 C 0.56004 0.75883 0.31965 0.0
N516 N 0.47193 0.76874 0.34091 0.0
N517 N 0.5814 0.7076 0.30088 0.0
H518 H 0.5946 0.80374 0.34479 0.0
H519 H 0.61358 0.77348 0.2997 0.0
H520 H 0.57879 0.68181 0.28956 0.0
H521 H 0.60506 0.71751 0.32473 0.0
H522 H 0.44694 0.7563 0.33454 0.0
H523 H 0.47469 0.79172 0.36893 0.0
H524 H 0.44574 0.72672 0.22527 0.0
H525 H 0.46216 0.69138 0.20199 0.0
C526 C 0.88185 0.57063 0.01011 0.0
C527 C 0.8616 0.53822 0.06604 0.0
C528 C 0.90492 0.50635 0.03346 0.0
C529 C 0.9279 0.53988 0.99836 0.0
N530 N 0.9389 0.60479 0.97312 0.0
N531 N 0.85279 0.47455 0.1314 0.0
C532 C 0.91649 0.57238 0.98988 0.0
C533 C 0.87261 0.50568 0.07657 0.0
N534 N 0.86833 0.60022 0.98183 0.0
N535 N 0.91373 0.47542 0.0243 0.0
H536 H 0.82846 0.47335 0.15964 0.0
H537 H 0.86098 0.45059 0.15211 0.0
H538 H 0.93682 0.47522 0.99044 0.0
H539 H 0.89698 0.45052 0.04135 0.0
H540 H 0.88131 0.62397 0.93383 0.0
H541 H 0.84293 0.5995 0.99785 0.0
H542 H 0.93172 0.62858 0.97579 0.0
H543 H 0.96503 0.60771 0.96957 0.0
C544 C 0.08724 0.28265 0.37059 0.0
C545 C 0.05493 0.29023 0.3811 0.0
C546 C 0.03269 0.25055 0.27012 0.0
C547 C 0.06286 0.2373 0.27807 0.0
N548 N 0.12037 0.24271 0.32646 0.0
N549 N 0.99796 0.28583 0.33193 0.0
C550 C 0.09089 0.25453 0.32378 0.0
C551 C 0.02826 0.27625 0.32534 0.0
N552 N 0.11396 0.30173 0.40927 0.0
N553 N 0.00819 0.23795 0.21141 0.0
H554 H 0.99501 0.30566 0.36877 0.0
H555 H 0.97587 0.27399 0.30356 0.0
H556 H 0.0106 0.21869 0.17203 0.0
H557 H 0.98661 0.24816 0.1959 0.0
H558 H 0.13889 0.29954 0.40039 0.0
H559 H 0.11118 0.3222 0.44374 0.0
H560 H 0.14069 0.25122 0.36736 0.0
H561 H 0.12414 0.22318 0.28967 0.0
C562 C 0.36836 0.03612 0.51636 0.0
C563 C 0.35433 0.06593 0.52003 0.0
C564 C 0.39095 0.10083 0.37301 0.0
C565 C 0.41075 0.0743 0.38806 0.0
N566 N 0.42038 0.01832 0.48977 0.0
N567 N 0.35272 0.12786 0.45163 0.0
C568 C 0.39976 0.04195 0.46275 0.0
C569 C 0.36527 0.09856 0.44707 0.0
N570 N 0.35276 1.00277 0.57025 0.0
N571 N 0.39635 0.12778 0.2879 0.0
H572 H 0.33344 0.12692 0.5036 0.0
H573 H 0.36279 0.1534 0.40737 0.0
H574 H 0.414 0.12929 0.2304 0.0
H575 H 0.38086 0.14616 0.26996 0.0
H576 H 0.3608 0.97961 0.56536 0.0
H577 H 0.32981 0.99828 0.61139 0.0
H578 H 0.41431 0.99608 0.55026 0.0
H579 H 0.44513 0.02297 0.46033 0.0
C580 C 0.51499 0.38544 0.19202 0.0
C581 C 0.54691 0.37589 0.19424 0.0
C582 C 0.57053 0.43126 0.06723 0.0
C583 C 0.53863 0.4413 0.06538 0.0
N584 N 0.47855 0.42281 0.10423 0.0
N585 N 0.6013 0.3835 0.11215 0.0
C586 C 0.51019 0.41661 0.12075 0.0
C587 C 0.57319 0.39661 0.12318 0.0
N588 N 0.4898 0.36574 0.26146 0.0
N589 N 0.59902 0.45569 0.02385 0.0
H590 H 0.60373 0.35835 0.15344 0.0
H591 H 0.62021 0.39568 0.05556 0.0
H592 H 0.59919 0.48209 0.98758 0.0
H593 H 0.62327 0.45089 0.03246 0.0
H594 H 0.46736 0.37368 0.27244 0.0
H595 H 0.49217 0.34209 0.31146 0.0
H596 H 0.45651 0.40449 0.13583 0.0
H597 H 0.4743 0.44478 0.05066 0.0
C598 C 0.22176 0.54278 0.43721 0.0
C599 C 0.22386 0.52319 0.53647 0.0
C600 C 0.17145 0.4803 0.52401 0.0
C601 C 0.16824 0.5011 0.42688 0.0
N602 N 0.19402 0.54564 0.27998 0.0
N603 N 0.20725 0.46843 0.66352 0.0
C604 C 0.19484 0.53013 0.37958 0.0
C605 C 0.20097 0.49 0.57554 0.0
N606 N 0.24431 0.57451 0.40074 0.0
N607 N 0.14541 0.45279 0.56928 0.0
H608 H 0.19309 0.44262 0.69292 0.0
H609 H 0.22873 0.47533 0.7024 0.0
H610 H 0.12367 0.44457 0.53303 0.0
H611 H 0.14439 0.43937 0.64441 0.0
H612 H 0.24192 0.59246 0.33382 0.0
H613 H 0.26498 0.58351 0.44019 0.0
H614 H 0.21387 0.56495 0.23867 0.0
H615 H 0.17448 0.53687 0.2364 0.0
C616 C 0.05757 0.84136 0.54212 0.0
C617 C 0.02895 0.82364 0.50072 0.0
C618 C 0.99319 0.85445 0.58032 0.0
C619 C 0.02269 0.87791 0.601 0.0
N620 N 0.08332 0.89268 0.60779 0.0
N621 N 0.9689 0.8096 0.48885 0.0
C622 C 0.055 0.8705 0.58605 0.0
C623 C 0.9964 0.82833 0.52527 0.0
N624 N 0.08743 0.83105 0.53456 0.0
N625 N 0.96221 0.85754 0.6126 0.0
H626 H 0.97085 0.78945 0.45216 0.0
H627 H 0.94471 0.81451 0.49222 0.0
H628 H 0.95933 0.87649 0.65267 0.0
H629 H 0.93972 0.83972 0.6071 0.0
H630 H 0.10918 0.84087 0.56818 0.0
H631 H 0.08922 0.80999 0.50132 0.0
H632 H 0.10782 0.89127 0.5888 0.0
H633 H 0.08233 0.91389 0.641 0.0
C634 C 0.69844 0.98903 0.40086 0.0
C635 C 0.71588 0.02551 0.37563 0.0
C636 C 0.67941 0.03894 0.49913 0.0
C637 C 0.65874 1.00397 0.51202 0.0
N638 N 0.64824 0.94507 0.47886 0.0
N639 N 0.72434 0.08538 0.40023 0.0
C640 C 0.66846 0.97861 0.46501 0.0
C641 C 0.70714 0.05039 0.4262 0.0
N642 N 0.71058 0.96459 0.36212 0.0
N643 N 0.67238 0.06114 0.55649 0.0
H644 H 0.74574 0.09397 0.35075 0.0
H645 H 0.71688 0.10608 0.42425 0.0
H646 H 0.65176 0.05396 0.60859 0.0
H647 H 0.68818 0.0856 0.55806 0.0
H648 H 0.70088 0.93706 0.38283 0.0
H649 H 0.73245 0.97172 0.31478 0.0
H650 H 0.6514 0.92655 0.43794 0.0
H651 H 0.627 0.93616 0.52889 0.0
C652 C 0.50502 0.71432 0.74581 0.0
C653 C 0.53574 0.73949 0.71081 0.0
C654 C 0.56792 0.69455 0.78924 0.0
C655 C 0.53733 0.66795 0.81185 0.0
N656 N 0.47626 0.65409 0.83287 0.0
N657 N 0.59633 0.75519 0.70253 0.0
C658 C 0.5057 0.67843 0.79759 0.0
C659 C 0.56716 0.7302 0.73571 0.0
N660 N 0.47518 0.72433 0.72205 0.0
N661 N 0.59752 0.68593 0.82257 0.0
H662 H 0.59627 0.78184 0.66838 0.0
H663 H 0.62034 0.74962 0.7057 0.0
H664 H 0.59874 0.66051 0.86448 0.0
H665 H 0.62039 0.70442 0.81658 0.0
H666 H 0.45164 0.70682 0.73179 0.0
H667 H 0.47415 0.75082 0.68917 0.0
H668 H 0.45271 0.66055 0.8351 0.0
H669 H 0.47512 0.62711 0.86454 0.0
C670 C 0.86055 0.61268 0.35014 0.0
C671 C 0.84393 0.57597 0.37437 0.0
C672 C 0.87735 0.56524 0.52208 0.0
C673 C 0.89816 0.59999 0.48645 0.0
N674 N 0.9094 0.65788 0.37078 0.0
N675 N 0.83404 0.51741 0.48528 0.0
C676 C 0.88927 0.62434 0.40278 0.0
C677 C 0.8511 0.55245 0.46249 0.0
N678 N 0.84914 0.636 0.27506 0.0
N679 N 0.88313 0.54449 0.6121 0.0
H680 H 0.8137 0.50803 0.44514 0.0
H681 H 0.84049 0.49749 0.54116 0.0
H682 H 0.90247 0.55312 0.65645 0.0
H683 H 0.86739 0.52004 0.64668 0.0
H684 H 0.85831 0.66364 0.25768 0.0
H685 H 0.82824 0.62781 0.23542 0.0
H686 H 0.90692 0.67559 0.30351 0.0
H687 H 0.92983 0.66759 0.41004 0.0
loop_
_geom_bond_atom_site_label_1
_geom_bond_atom_site_label_2
_geom_bond_distance
_geom_bond_site_symmetry_2
_ccdc_geom_bond_type
H0 C5 0.930 . S
H1 C8 0.930 . S
H2 C10 0.930 . S
H3 C4 1.016 . S
C4 H3 1.016 . S
C4 N11 1.286 1_556 S
C5 H0 0.930 . S
C5 C6 1.397 . S
C5 C7 1.361 . S
C6 C5 1.397 . S
C6 C10 1.390 . S
C7 C5 1.361 . S
C7 C8 1.393 1_554 S
C7 N11 1.413 . S
C8 H1 0.930 . S
C8 C7 1.393 1_556 S
C8 C9 1.399 . S
C9 C8 1.399 . S
C9 C10 1.381 1_556 S
C10 H2 0.930 . S
C10 C6 1.390 . S
C10 C9 1.381 1_554 S
N11 C4 1.286 1_554 S
N11 C7 1.413 . S
H12 C17 0.930 . S
H13 C20 0.930 1_556 S
H14 C22 0.930 . S
H15 C16 1.016 1_556 S
C16 H15 1.016 1_554 S
C16 N23 1.289 . S
C17 H12 0.930 . S
C17 C18 1.397 . S
C17 C19 1.361 . S
C18 C17 1.397 . S
C18 C22 1.390 . S
C19 C17 1.361 . S
C19 C20 1.393 . S
C19 N23 1.415 . S
C20 H13 0.930 1_554 S
C20 C19 1.393 . S
C20 C21 1.399 . S
C21 C20 1.399 . S
C21 C22 1.381 . S
C22 H14 0.930 . S
C22 C18 1.390 . S
C22 C21 1.381 . S
N23 C16 1.289 . S
N23 C19 1.415 . S
H24 C29 0.930 . S
H25 C32 0.930 . S
H26 C34 0.930 . S
H27 C28 1.016 1_556 S
C28 H27 1.016 1_554 S
C28 N35 1.286 . S
C29 H24 0.930 . S
C29 C30 1.397 . S
C29 C31 1.361 . S
C30 C29 1.397 . S
C30 C34 1.390 . S
C31 C29 1.361 . S
C31 C32 1.393 1_554 S
C31 N35 1.413 . S
C32 H25 0.930 . S
C32 C31 1.393 1_556 S
C32 C33 1.399 1_556 S
C33 C32 1.399 1_554 S
C33 C34 1.381 . S
C34 H26 0.930 . S
C34 C30 1.390 . S
C34 C33 1.381 . S
N35 C28 1.286 . S
N35 C31 1.413 . S
H36 C41 0.930 . S
H37 C44 0.930 . S
H38 C46 0.930 . S
H39 C40 1.016 . S
C40 H39 1.016 . S
C40 N47 1.286 . S
C41 H36 0.930 . S
C41 C42 1.397 . S
C41 C43 1.361 . S
C42 C41 1.397 . S
C42 C46 1.390 . S
C43 C41 1.361 . S
C43 C44 1.393 . S
C43 N47 1.413 . S
C44 H37 0.930 . S
C44 C43 1.393 . S
C44 C45 1.399 . S
C45 C44 1.399 . S
C45 C46 1.381 . S
C46 H38 0.930 . S
C46 C42 1.390 . S
C46 C45 1.381 . S
N47 C40 1.286 . S
N47 C43 1.413 . S
H48 C53 0.930 . S
H49 C56 0.930 1_554 S
H50 C58 0.930 . S
H51 C52 1.016 1_554 S
C52 H51 1.016 1_556 S
C52 N59 1.286 . S
C53 H48 0.930 . S
C53 C54 1.397 . S
C53 C55 1.361 . S
C54 C53 1.397 . S
C54 C58 1.390 . S
C55 C53 1.361 . S
C55 C56 1.393 . S
C55 N59 1.413 . S
C56 H49 0.930 1_556 S
C56 C55 1.393 . S
C56 C57 1.399 . S
C57 C56 1.399 . S
C57 C58 1.381 . S
C58 H50 0.930 . S
C58 C54 1.390 . S
C58 C57 1.381 . S
N59 C52 1.286 . S
N59 C55 1.413 . S
H60 C65 0.930 . S
H61 C68 0.930 . S
H62 C70 0.930 . S
H63 C64 1.016 . S
C64 H63 1.016 . S
C64 N71 1.286 . S
C65 H60 0.930 . S
C65 C66 1.397 . S
C65 C67 1.361 . S
C66 C65 1.397 . S
C66 C70 1.390 . S
C67 C65 1.361 . S
C67 C68 1.393 . S
C67 N71 1.413 . S
C68 H61 0.930 . S
C68 C67 1.393 . S
C68 C69 1.399 . S
C69 C68 1.399 . S
C69 C70 1.381 . S
C70 H62 0.930 . S
C70 C66 1.390 . S
C70 C69 1.381 . S
N71 C64 1.286 . S
N71 C67 1.413 . S
H72 C77 0.930 . S
H73 C80 0.930 . S
H74 C82 0.930 . S
H75 C76 1.016 . S
C76 H75 1.016 . S
C76 N83 1.286 . S
C77 H72 0.930 . S
C77 C78 1.397 . S
C77 C79 1.361 . S
C78 C77 1.397 . S
C78 C82 1.390 . S
C79 C77 1.361 . S
C79 C80 1.393 . S
C79 N83 1.413 . S
C80 H73 0.930 . S
C80 C79 1.393 . S
C80 C81 1.399 . S
C81 C80 1.399 . S
C81 C82 1.381 . S
C82 H74 0.930 . S
C82 C78 1.390 . S
C82 C81 1.381 . S
N83 C76 1.286 . S
N83 C79 1.413 . S
H84 C89 0.930 . S
H85 C92 0.930 . S
H86 C94 0.930 . S
H87 C88 1.016 . S
C88 H87 1.016 . S
C88 N95 1.286 . S
C89 H84 0.930 . S
C89 C90 1.397 . S
C89 C91 1.361 . S
C90 C89 1.397 . S
C90 C94 1.390 . S
C91 C89 1.361 . S
C91 C92 1.393 . S
C91 N95 1.413 . S
C92 H85 0.930 . S
C92 C91 1.393 . S
C92 C93 1.399 . S
C93 C92 1.399 . S
C93 C94 1.381 . S
C94 H86 0.930 . S
C94 C90 1.390 . S
C94 C93 1.381 . S
N95 C88 1.286 . S
N95 C91 1.413 . S
Nd96 C98 2.836 1_545 S
Nd96 O116 2.500 1_445 S
Nd96 O117 2.492 . S
Nd96 O118 2.487 . S
Nd96 O119 2.682 . S
Nd96 O120 2.410 1_545 S
Nd96 O125 2.414 1_455 S
Nd96 O127 2.424 . S
Nd97 C107 2.836 . S
Nd97 O119 2.414 1_554 S
Nd97 O121 2.424 1_545 S
Nd97 O122 2.500 . S
Nd97 O123 2.492 . S
Nd97 O124 2.487 1_455 S
Nd97 O125 2.682 1_454 S
Nd97 O126 2.410 1_554 S
C98 Nd96 2.836 1_565 S
C98 C99 1.498 . S
C98 O116 1.258 1_455 S
C98 O117 1.239 1_565 S
C99 C98 1.498 . S
C99 C100 1.366 1_455 S
C99 C104 1.407 . S
C100 C99 1.366 1_655 S
C100 C101 1.392 . S
C100 H128 0.930 . S
C101 C100 1.392 . S
C101 C102 1.413 . S
C101 H129 0.929 . S
C102 C101 1.413 . S
C102 C103 1.337 1_655 S
C103 C102 1.337 1_455 S
C103 C104 1.384 . S
C103 H130 0.930 . S
C104 C99 1.407 . S
C104 C103 1.384 . S
C104 H131 0.929 . S
C105 O118 1.241 . S
C105 O119 1.273 . S
C106 O120 1.251 . S
C106 O121 1.268 1_556 S
C107 Nd97 2.836 . S
C107 C108 1.498 . S
C107 O122 1.258 . S
C107 O123 1.239 . S
C108 C107 1.498 . S
C108 C109 1.366 . S
C108 C113 1.407 . S
C109 C108 1.366 . S
C109 C110 1.392 . S
C109 H132 0.930 . S
C110 C109 1.392 . S
C110 C111 1.398 . S
C110 H133 0.929 . S
C111 C110 1.398 . S
C111 C112 1.352 . S
C112 C111 1.352 . S
C112 C113 1.384 . S
C112 H134 0.930 . S
C113 C108 1.407 . S
C113 C112 1.384 . S
C113 H135 0.929 . S
C114 O124 1.241 1_556 S
C114 O125 1.273 . S
C115 O126 1.251 . S
C115 O127 1.268 . S
O116 Nd96 2.500 1_665 S
O116 C98 1.258 1_655 S
O117 Nd96 2.492 . S
O117 C98 1.239 1_545 S
O118 Nd96 2.487 . S
O118 C105 1.241 . S
O119 Nd96 2.682 . S
O119 Nd97 2.414 1_556 S
O119 C105 1.273 . S
O120 Nd96 2.410 1_565 S
O120 C106 1.251 . S
O121 Nd97 2.424 1_565 S
O121 C106 1.268 1_554 S
O122 Nd97 2.500 . S
O122 C107 1.258 . S
O123 Nd97 2.492 . S
O123 C107 1.239 . S
O124 Nd97 2.487 1_655 S
O124 C114 1.241 1_554 S
O125 Nd96 2.414 1_655 S
O125 Nd97 2.682 1_656 S
O125 C114 1.273 . S
O126 Nd97 2.410 1_556 S
O126 C115 1.251 . S
O127 Nd96 2.424 . S
O127 C115 1.268 . S
H128 C100 0.930 . S
H129 C101 0.929 . S
H130 C103 0.930 . S
H131 C104 0.929 . S
H132 C109 0.930 . S
H133 C110 0.929 . S
H134 C112 0.930 . S
H135 C113 0.929 . S
Nd136 C138 2.818 1_545 S
Nd136 O156 2.500 1_545 S
Nd136 O157 2.492 . S
Nd136 O158 2.487 . S
Nd136 O159 2.682 . S
Nd136 O160 2.410 . S
Nd136 O165 2.414 . S
Nd136 O167 2.424 . S
Nd137 C147 2.836 . S
Nd137 O159 2.414 1_554 S
Nd137 O161 2.424 . S
Nd137 O162 2.500 . S
Nd137 O163 2.492 . S
Nd137 O164 2.487 1_545 S
Nd137 O165 2.682 1_554 S
Nd137 O166 2.410 . S
C138 Nd136 2.818 1_565 S
C138 C139 1.515 . S
C138 O156 1.266 . S
C138 O157 1.215 1_565 S
C139 C138 1.515 . S
C139 C140 1.366 . S
C139 C144 1.407 1_565 S
C140 C139 1.366 . S
C140 C141 1.392 . S
C140 H168 0.930 . S
C141 C140 1.392 . S
C141 C142 1.398 . S
C141 H169 0.929 . S
C142 C141 1.398 . S
C142 C143 1.352 . S
C143 C142 1.352 . S
C143 C144 1.384 1_565 S
C143 H170 0.930 1_565 S
C144 C139 1.407 1_545 S
C144 C143 1.384 1_545 S
C144 H171 0.929 . S
C145 O158 1.241 . S
C145 O159 1.273 . S
C146 O160 1.251 . S
C146 O161 1.268 1_556 S
C147 Nd137 2.836 . S
C147 C148 1.498 . S
C147 O162 1.258 . S
C147 O163 1.239 . S
C148 C147 1.498 . S
C148 C149 1.366 . S
C148 C153 1.407 . S
C149 C148 1.366 . S
C149 C150 1.392 . S
C149 H172 0.930 . S
C150 C149 1.392 . S
C150 C151 1.398 . S
C150 H173 0.929 . S
C151 C150 1.398 . S
C151 C152 1.352 . S
C152 C151 1.352 . S
C152 C153 1.384 . S
C152 H174 0.930 . S
C153 C148 1.407 . S
C153 C152 1.384 . S
C153 H175 0.929 . S
C154 O164 1.241 . S
C154 O165 1.273 1_564 S
C155 O166 1.251 1_556 S
C155 O167 1.268 . S
O156 Nd136 2.500 1_565 S
O156 C138 1.266 . S
O157 Nd136 2.492 . S
O157 C138 1.215 1_545 S
O158 Nd136 2.487 . S
O158 C145 1.241 . S
O159 Nd136 2.682 . S
O159 Nd137 2.414 1_556 S
O159 C145 1.273 . S
O160 Nd136 2.410 . S
O160 C146 1.251 . S
O161 Nd137 2.424 . S
O161 C146 1.268 1_554 S
O162 Nd137 2.500 . S
O162 C147 1.258 . S
O163 Nd137 2.492 . S
O163 C147 1.239 . S
O164 Nd137 2.487 1_565 S
O164 C154 1.241 . S
O165 Nd136 2.414 . S
O165 Nd137 2.682 1_556 S
O165 C154 1.273 1_546 S
O166 Nd137 2.410 . S
O166 C155 1.251 1_554 S
O167 Nd136 2.424 . S
O167 C155 1.268 . S
H168 C140 0.930 . S
H169 C141 0.929 . S
H170 C143 0.930 1_545 S
H171 C144 0.929 . S
H172 C149 0.930 . S
H173 C150 0.929 . S
H174 C152 0.930 . S
H175 C153 0.929 . S
Nd176 C178 2.836 . S
Nd176 O196 2.500 . S
Nd176 O197 2.492 . S
Nd176 O198 2.487 . S
Nd176 O199 2.682 1_554 S
Nd176 O200 2.410 1_554 S
Nd176 O205 2.414 1_554 S
Nd176 O207 2.424 . S
Nd177 C187 2.836 . S
Nd177 O199 2.414 . S
Nd177 O201 2.424 . S
Nd177 O202 2.500 . S
Nd177 O203 2.492 . S
Nd177 O204 2.487 . S
Nd177 O205 2.682 . S
Nd177 O206 2.410 . S
C178 Nd176 2.836 . S
C178 C179 1.498 . S
C178 O196 1.258 . S
C178 O197 1.239 . S
C179 C178 1.498 . S
C179 C180 1.366 . S
C179 C184 1.407 . S
C180 C179 1.366 . S
C180 C181 1.392 . S
C180 H208 0.930 . S
C181 C180 1.392 . S
C181 C182 1.398 . S
C181 H209 0.929 . S
C182 C181 1.398 . S
C182 C183 1.352 . S
C183 C182 1.352 . S
C183 C184 1.384 . S
C183 H210 0.930 . S
C184 C179 1.407 . S
C184 C183 1.384 . S
C184 H211 0.929 . S
C185 O198 1.241 1_556 S
C185 O199 1.273 . S
C186 O200 1.251 . S
C186 O201 1.268 . S
C187 Nd177 2.836 . S
C187 C188 1.498 . S
C187 O202 1.258 . S
C187 O203 1.239 . S
C188 C187 1.498 . S
C188 C189 1.366 . S
C188 C193 1.407 . S
C189 C188 1.366 . S
C189 C190 1.392 . S
C189 H212 0.930 . S
C190 C189 1.392 . S
C190 C191 1.398 . S
C190 H213 0.929 . S
C191 C190 1.398 . S
C191 C192 1.352 . S
C192 C191 1.352 . S
C192 C193 1.384 . S
C192 H214 0.930 . S
C193 C188 1.407 . S
C193 C192 1.384 . S
C193 H215 0.929 . S
C194 O204 1.241 . S
C194 O205 1.273 . S
C195 O206 1.251 1_554 S
C195 O207 1.268 . S
O196 Nd176 2.500 . S
O196 C178 1.258 . S
O197 Nd176 2.492 . S
O197 C178 1.239 . S
O198 Nd176 2.487 . S
O198 C185 1.241 1_554 S
O199 Nd176 2.682 1_556 S
O199 Nd177 2.414 . S
O199 C185 1.273 . S
O200 Nd176 2.410 1_556 S
O200 C186 1.251 . S
O201 Nd177 2.424 . S
O201 C186 1.268 . S
O202 Nd177 2.500 . S
O202 C187 1.258 . S
O203 Nd177 2.492 . S
O203 C187 1.239 . S
O204 Nd177 2.487 . S
O204 C194 1.241 . S
O205 Nd176 2.414 1_556 S
O205 Nd177 2.682 . S
O205 C194 1.273 . S
O206 Nd177 2.410 . S
O206 C195 1.251 1_556 S
O207 Nd176 2.424 . S
O207 C195 1.268 . S
H208 C180 0.930 . S
H209 C181 0.929 . S
H210 C183 0.930 . S
H211 C184 0.929 . S
H212 C189 0.930 . S
H213 C190 0.929 . S
H214 C192 0.930 . S
H215 C193 0.929 . S
Nd216 C218 2.836 1_455 S
Nd216 O236 2.500 1_455 S
Nd216 O237 2.492 1_455 S
Nd216 O238 2.487 . S
Nd216 O239 2.682 . S
Nd216 O240 2.410 1_455 S
Nd216 O245 2.414 . S
Nd216 O247 2.424 . S
Nd217 C227 2.836 . S
Nd217 O239 2.414 1_554 S
Nd217 O241 2.424 1_455 S
Nd217 O242 2.500 . S
Nd217 O243 2.492 . S
Nd217 O244 2.487 . S
Nd217 O245 2.682 1_554 S
Nd217 O246 2.410 . S
C218 Nd216 2.836 1_655 S
C218 C219 1.498 . S
C218 O236 1.258 . S
C218 O237 1.239 . S
C219 C218 1.498 . S
C219 C220 1.366 . S
C219 C224 1.407 . S
C220 C219 1.366 . S
C220 C221 1.392 . S
C220 H248 0.930 . S
C221 C220 1.392 . S
C221 C222 1.398 . S
C221 H249 0.929 . S
C222 C221 1.398 . S
C222 C223 1.352 . S
C223 C222 1.352 . S
C223 C224 1.384 . S
C223 H250 0.930 . S
C224 C219 1.407 . S
C224 C223 1.384 . S
C224 H251 0.929 . S
C225 O238 1.241 . S
C225 O239 1.273 . S
C226 O240 1.251 . S
C226 O241 1.268 1_556 S
C227 Nd217 2.836 . S
C227 C228 1.498 . S
C227 O242 1.258 . S
C227 O243 1.239 . S
C228 C227 1.498 . S
C228 C229 1.366 . S
C228 C233 1.407 . S
C229 C228 1.366 . S
C229 C230 1.392 . S
C229 H252 0.930 . S
C230 C229 1.392 . S
C230 C231 1.398 . S
C230 H253 0.929 . S
C231 C230 1.398 . S
C231 C232 1.352 . S
C232 C231 1.352 . S
C232 C233 1.384 . S
C232 H254 0.930 . S
C233 C228 1.407 . S
C233 C232 1.384 . S
C233 H255 0.929 . S
C234 O244 1.241 1_556 S
C234 O245 1.273 . S
C235 O246 1.251 1_556 S
C235 O247 1.268 . S
O236 Nd216 2.500 1_655 S
O236 C218 1.258 . S
O237 Nd216 2.492 1_655 S
O237 C218 1.239 . S
O238 Nd216 2.487 . S
O238 C225 1.241 . S
O239 Nd216 2.682 . S
O239 Nd217 2.414 1_556 S
O239 C225 1.273 . S
O240 Nd216 2.410 1_655 S
O240 C226 1.251 . S
O241 Nd217 2.424 1_655 S
O241 C226 1.268 1_554 S
O242 Nd217 2.500 . S
O242 C227 1.258 . S
O243 Nd217 2.492 . S
O243 C227 1.239 . S
O244 Nd217 2.487 . S
O244 C234 1.241 1_554 S
O245 Nd216 2.414 . S
O245 Nd217 2.682 1_556 S
O245 C234 1.273 . S
O246 Nd217 2.410 . S
O246 C235 1.251 1_554 S
O247 Nd216 2.424 . S
O247 C235 1.268 . S
H248 C220 0.930 . S
H249 C221 0.929 . S
H250 C223 0.930 . S
H251 C224 0.929 . S
H252 C229 0.930 . S
H253 C230 0.929 . S
H254 C232 0.930 . S
H255 C233 0.929 . S
C256 C257 1.363 . S
C256 C262 1.379 . S
C256 N264 1.356 . S
C257 C256 1.363 . S
C257 C263 1.363 . S
C258 C259 1.363 . S
C258 C263 1.379 . S
C258 N265 1.356 . S
C259 C258 1.363 . S
C259 C262 1.363 . S
N260 C262 1.356 1_554 S
N260 H272 0.984 . S
N260 H273 0.985 . S
N261 C263 1.356 . S
N261 H266 0.984 . S
N261 H267 0.985 . S
C262 C256 1.379 . S
C262 C259 1.363 . S
C262 N260 1.356 1_556 S
C263 C257 1.363 . S
C263 C258 1.379 . S
C263 N261 1.356 . S
N264 C256 1.356 . S
N264 H270 0.984 1_556 S
N264 H271 0.984 . S
N265 C258 1.356 . S
N265 H268 0.984 . S
N265 H269 0.985 . S
H266 N261 0.984 . S
H267 N261 0.985 . S
H268 N265 0.984 . S
H269 N265 0.985 . S
H270 N264 0.984 1_554 S
H271 N264 0.984 . S
H272 N260 0.984 . S
H273 N260 0.985 . S
C274 C275 1.363 . S
C274 C280 1.379 . S
C274 N282 1.356 . S
C275 C274 1.363 . S
C275 C281 1.363 . S
C276 C277 1.363 . S
C276 C281 1.379 . S
C276 N283 1.356 . S
C277 C276 1.363 . S
C277 C280 1.363 . S
N278 C280 1.356 . S
N278 H290 0.984 . S
N278 H291 0.985 . S
N279 C281 1.356 . S
N279 H284 0.984 . S
N279 H285 0.985 . S
C280 C274 1.379 . S
C280 C277 1.363 . S
C280 N278 1.356 . S
C281 C275 1.363 . S
C281 C276 1.379 . S
C281 N279 1.356 . S
N282 C274 1.356 . S
N282 H288 0.984 . S
N282 H289 0.984 . S
N283 C276 1.356 . S
N283 H286 0.984 . S
N283 H287 0.985 . S
H284 N279 0.984 . S
H285 N279 0.985 . S
H286 N283 0.984 . S
H287 N283 0.985 . S
H288 N282 0.984 . S
H289 N282 0.984 . S
H290 N278 0.984 . S
H291 N278 0.985 . S
C292 C293 1.363 1_554 S
C292 C298 1.379 1_554 S
C292 N300 1.356 . S
C293 C292 1.363 1_556 S
C293 C299 1.363 . S
C294 C295 1.363 . S
C294 C299 1.379 . S
C294 N301 1.356 . S
C295 C294 1.363 . S
C295 C298 1.363 . S
N296 C298 1.356 1_554 S
N296 H308 0.984 . S
N296 H309 0.985 . S
N297 C299 1.356 . S
N297 H302 0.984 . S
N297 H303 0.985 . S
C298 C292 1.379 1_556 S
C298 C295 1.363 . S
C298 N296 1.356 1_556 S
C299 C293 1.363 . S
C299 C294 1.379 . S
C299 N297 1.356 . S
N300 C292 1.356 . S
N300 H306 0.984 . S
N300 H307 0.984 . S
N301 C294 1.356 . S
N301 H304 0.984 . S
N301 H305 0.985 . S
H302 N297 0.984 . S
H303 N297 0.985 . S
H304 N301 0.984 . S
H305 N301 0.985 . S
H306 N300 0.984 . S
H307 N300 0.984 . S
H308 N296 0.984 . S
H309 N296 0.985 . S
C310 C311 1.363 . S
C310 C316 1.379 . S
C310 N318 1.356 . S
C311 C310 1.363 . S
C311 C317 1.363 . S
C312 C313 1.363 . S
C312 C317 1.379 . S
C312 N319 1.356 1_556 S
C313 C312 1.363 . S
C313 C316 1.363 . S
N314 C316 1.356 . S
N314 H326 0.984 . S
N314 H327 0.985 . S
N315 C317 1.356 . S
N315 H320 0.984 . S
N315 H321 0.985 1_556 S
C316 C310 1.379 . S
C316 C313 1.363 . S
C316 N314 1.356 . S
C317 C311 1.363 . S
C317 C312 1.379 . S
C317 N315 1.356 . S
N318 C310 1.356 . S
N318 H324 0.984 . S
N318 H325 0.984 . S
N319 C312 1.356 1_554 S
N319 H322 0.984 . S
N319 H323 0.985 . S
H320 N315 0.984 . S
H321 N315 0.985 1_554 S
H322 N319 0.984 . S
H323 N319 0.985 . S
H324 N318 0.984 . S
H325 N318 0.984 . S
H326 N314 0.984 . S
H327 N314 0.985 . S
C328 C329 1.363 1_544 S
C328 C334 1.379 . S
C328 N336 1.356 . S
C329 C328 1.363 1_566 S
C329 C335 1.363 . S
C330 C331 1.363 1_565 S
C330 C335 1.379 . S
C330 N337 1.356 . S
C331 C330 1.363 1_545 S
C331 C334 1.363 1_556 S
N332 C334 1.356 . S
N332 H344 0.984 . S
N332 H345 0.985 . S
N333 C335 1.356 . S
N333 H338 0.984 . S
N333 H339 0.985 . S
C334 C328 1.379 . S
C334 C331 1.363 1_554 S
C334 N332 1.356 . S
C335 C329 1.363 . S
C335 C330 1.379 . S
C335 N333 1.356 . S
N336 C328 1.356 . S
N336 H342 0.984 . S
N336 H343 0.984 1_545 S
N337 C330 1.356 . S
N337 H340 0.984 1_565 S
N337 H341 0.985 . S
H338 N333 0.984 . S
H339 N333 0.985 . S
H340 N337 0.984 1_545 S
H341 N337 0.985 . S
H342 N336 0.984 . S
H343 N336 0.984 1_565 S
H344 N332 0.984 . S
H345 N332 0.985 . S
C346 C347 1.363 . S
C346 C352 1.379 . S
C346 N354 1.356 . S
C347 C346 1.363 . S
C347 C353 1.363 . S
C348 C349 1.363 . S
C348 C353 1.379 . S
C348 N355 1.356 . S
C349 C348 1.363 . S
C349 C352 1.363 . S
N350 C352 1.356 . S
N350 H362 0.984 . S
N350 H363 0.985 . S
N351 C353 1.356 . S
N351 H356 0.984 . S
N351 H357 0.985 . S
C352 C346 1.379 . S
C352 C349 1.363 . S
C352 N350 1.356 . S
C353 C347 1.363 . S
C353 C348 1.379 . S
C353 N351 1.356 . S
N354 C346 1.356 . S
N354 H360 0.984 . S
N354 H361 0.984 . S
N355 C348 1.356 . S
N355 H358 0.984 1_565 S
N355 H359 0.985 1_565 S
H356 N351 0.984 . S
H357 N351 0.985 . S
H358 N355 0.984 1_545 S
H359 N355 0.985 1_545 S
H360 N354 0.984 . S
H361 N354 0.984 . S
H362 N350 0.984 . S
H363 N350 0.985 . S
C364 C365 1.363 1_554 S
C364 C370 1.379 . S
C364 N372 1.356 . S
C365 C364 1.363 1_556 S
C365 C371 1.363 . S
C366 C367 1.363 . S
C366 C371 1.379 . S
C366 N373 1.356 . S
C367 C366 1.363 . S
C367 C370 1.363 1_556 S
N368 C370 1.356 . S
N368 H380 0.984 . S
N368 H381 0.985 . S
N369 C371 1.356 . S
N369 H374 0.984 . S
N369 H375 0.985 . S
C370 C364 1.379 . S
C370 C367 1.363 1_554 S
C370 N368 1.356 . S
C371 C365 1.363 . S
C371 C366 1.379 . S
C371 N369 1.356 . S
N372 C364 1.356 . S
N372 H378 0.984 . S
N372 H379 0.984 . S
N373 C366 1.356 . S
N373 H376 0.984 . S
N373 H377 0.985 . S
H374 N369 0.984 . S
H375 N369 0.985 . S
H376 N373 0.984 . S
H377 N373 0.985 . S
H378 N372 0.984 . S
H379 N372 0.984 . S
H380 N368 0.984 . S
H381 N368 0.985 . S
C382 C383 1.363 . S
C382 C388 1.379 1_655 S
C382 N390 1.356 . S
C383 C382 1.363 . S
C383 C389 1.363 1_654 S
C384 C385 1.363 . S
C384 C389 1.379 . S
C384 N391 1.356 . S
C385 C384 1.363 . S
C385 C388 1.363 1_556 S
N386 C388 1.356 . S
N386 H398 0.984 1_455 S
N386 H399 0.985 . S
N387 C389 1.356 . S
N387 H392 0.991 . S
N387 H393 0.985 . S
C388 C382 1.379 1_455 S
C388 C385 1.363 1_554 S
C388 N386 1.356 . S
C389 C383 1.363 1_456 S
C389 C384 1.379 . S
C389 N387 1.356 . S
N390 C382 1.356 . S
N390 H396 0.984 . S
N390 H397 0.984 . S
N391 C384 1.356 . S
N391 H394 0.984 . S
N391 H395 0.985 . S
H392 N387 0.991 . S
H393 N387 0.985 . S
H394 N391 0.984 . S
H395 N391 0.985 . S
H396 N390 0.984 . S
H397 N390 0.984 . S
H398 N386 0.984 1_655 S
H399 N386 0.985 . S
C400 C401 1.363 . S
C400 C406 1.379 . S
C400 N408 1.356 1_556 S
C401 C400 1.363 . S
C401 C407 1.363 . S
C402 C403 1.363 . S
C402 C407 1.379 . S
C402 N409 1.356 . S
C403 C402 1.363 . S
C403 C406 1.363 . S
N404 C406 1.356 1_554 S
N404 H416 0.984 . S
N404 H417 0.985 1_554 S
N405 C407 1.356 . S
N405 H410 0.984 . S
N405 H411 0.985 . S
C406 C400 1.379 . S
C406 C403 1.363 . S
C406 N404 1.356 1_556 S
C407 C401 1.363 . S
C407 C402 1.379 . S
C407 N405 1.356 . S
N408 C400 1.356 1_554 S
N408 H414 0.984 . S
N408 H415 0.984 1_554 S
N409 C402 1.356 . S
N409 H412 0.984 . S
N409 H413 0.985 . S
H410 N405 0.984 . S
H411 N405 0.985 . S
H412 N409 0.984 . S
H413 N409 0.985 . S
H414 N408 0.984 . S
H415 N408 0.984 1_556 S
H416 N404 0.984 . S
H417 N404 0.985 1_556 S
C418 C419 1.363 . S
C418 C424 1.380 1_556 S
C418 N426 1.356 1_556 S
C419 C418 1.363 . S
C419 C425 1.363 . S
C420 C421 1.363 . S
C420 C425 1.379 . S
C420 N427 1.356 . S
C421 C420 1.363 . S
C421 C424 1.353 1_556 S
N422 C424 1.363 . S
N422 H434 0.984 . S
N422 H435 0.985 . S
N423 C425 1.356 . S
N423 H428 0.984 . S
N423 H429 0.985 . S
C424 C418 1.380 1_554 S
C424 C421 1.353 1_554 S
C424 N422 1.363 . S
C425 C419 1.363 . S
C425 C420 1.379 . S
C425 N423 1.356 . S
N426 C418 1.356 1_554 S
N426 H432 0.984 . S
N426 H433 0.984 . S
N427 C420 1.356 . S
N427 H430 0.984 . S
N427 H431 0.985 . S
H428 N423 0.984 . S
H429 N423 0.985 . S
H430 N427 0.984 . S
H431 N427 0.985 . S
H432 N426 0.984 . S
H433 N426 0.984 . S
H434 N422 0.984 . S
H435 N422 0.985 . S
C436 C437 1.363 . S
C436 C442 1.379 . S
C436 N444 1.356 . S
C437 C436 1.363 . S
C437 C443 1.363 . S
C438 C439 1.363 . S
C438 C443 1.379 . S
C438 N445 1.356 . S
C439 C438 1.363 . S
C439 C442 1.363 . S
N440 C442 1.356 . S
N440 H452 0.984 . S
N440 H453 0.985 . S
N441 C443 1.356 . S
N441 H446 0.984 . S
N441 H447 0.985 . S
C442 C436 1.379 . S
C442 C439 1.363 . S
C442 N440 1.356 . S
C443 C437 1.363 . S
C443 C438 1.379 . S
C443 N441 1.356 . S
N444 C436 1.356 . S
N444 H450 0.984 . S
N444 H451 0.984 . S
N445 C438 1.356 . S
N445 H448 0.984 . S
N445 H449 0.985 . S
H446 N441 0.984 . S
H447 N441 0.985 . S
H448 N445 0.984 . S
H449 N445 0.985 . S
H450 N444 0.984 . S
H451 N444 0.984 . S
H452 N440 0.984 . S
H453 N440 0.985 . S
C454 C455 1.363 . S
C454 C460 1.379 . S
C454 N462 1.356 . S
C455 C454 1.363 . S
C455 C461 1.363 1_556 S
C456 C457 1.363 1_554 S
C456 C461 1.379 . S
C456 N463 1.356 . S
C457 C456 1.363 1_556 S
C457 C460 1.363 . S
N458 C460 1.356 . S
N458 H470 0.984 . S
N458 H471 0.985 . S
N459 C461 1.356 . S
N459 H464 0.984 . S
N459 H465 0.985 . S
C460 C454 1.379 . S
C460 C457 1.363 . S
C460 N458 1.356 . S
C461 C455 1.363 1_554 S
C461 C456 1.379 . S
C461 N459 1.356 . S
N462 C454 1.356 . S
N462 H468 0.984 . S
N462 H469 0.984 . S
N463 C456 1.356 . S
N463 H466 0.984 . S
N463 H467 0.985 . S
H464 N459 0.984 . S
H465 N459 0.985 . S
H466 N463 0.984 . S
H467 N463 0.985 . S
H468 N462 0.984 . S
H469 N462 0.984 . S
H470 N458 0.984 . S
H471 N458 0.985 . S
C472 C473 1.367 . S
C472 C478 1.379 . S
C472 N480 1.356 . S
C473 C472 1.367 . S
C473 C479 1.360 1_654 S
C474 C475 1.363 1_556 S
C474 C479 1.379 . S
C474 N481 1.356 . S
C475 C474 1.363 1_554 S
C475 C478 1.363 1_455 S
N476 C478 1.356 . S
N476 H488 0.984 . S
N476 H489 0.985 . S
N477 C479 1.356 . S
N477 H482 0.984 . S
N477 H483 0.985 . S
C478 C472 1.379 . S
C478 C475 1.363 1_655 S
C478 N476 1.356 . S
C479 C473 1.360 1_456 S
C479 C474 1.379 . S
C479 N477 1.356 . S
N480 C472 1.356 . S
N480 H486 0.984 . S
N480 H487 0.984 . S
N481 C474 1.356 . S
N481 H484 0.984 . S
N481 H485 0.985 . S
H482 N477 0.984 . S
H483 N477 0.985 . S
H484 N481 0.984 . S
H485 N481 0.985 . S
H486 N480 0.984 . S
H487 N480 0.984 . S
H488 N476 0.984 . S
H489 N476 0.985 . S
C490 C491 1.363 1_545 S
C490 C496 1.379 . S
C490 N498 1.356 . S
C491 C490 1.363 1_565 S
C491 C497 1.363 1_556 S
C492 C493 1.363 1_564 S
C492 C497 1.379 . S
C492 N499 1.356 . S
C493 C492 1.363 1_546 S
C493 C496 1.363 . S
N494 C496 1.356 . S
N494 H506 0.984 . S
N494 H507 0.985 . S
N495 C497 1.356 . S
N495 H500 0.984 . S
N495 H501 0.985 . S
C496 C490 1.379 . S
C496 C493 1.363 . S
C496 N494 1.356 . S
C497 C491 1.363 1_554 S
C497 C492 1.379 . S
C497 N495 1.356 . S
N498 C490 1.356 . S
N498 H504 0.984 . S
N498 H505 0.982 1_545 S
N499 C492 1.356 . S
N499 H502 0.984 1_565 S
N499 H503 0.985 . S
H500 N495 0.984 . S
H501 N495 0.985 . S
H502 N499 0.984 1_545 S
H503 N499 0.985 . S
H504 N498 0.984 . S
H505 N498 0.982 1_565 S
H506 N494 0.984 . S
H507 N494 0.985 . S
C508 C509 1.363 . S
C508 C514 1.379 . S
C508 N516 1.356 . S
C509 C508 1.363 . S
C509 C515 1.363 . S
C510 C511 1.363 . S
C510 C515 1.379 . S
C510 N517 1.356 . S
C511 C510 1.363 . S
C511 C514 1.363 . S
N512 C514 1.356 . S
N512 H524 0.984 . S
N512 H525 0.985 . S
N513 C515 1.356 . S
N513 H518 0.984 . S
N513 H519 0.985 . S
C514 C508 1.379 . S
C514 C511 1.363 . S
C514 N512 1.356 . S
C515 C509 1.363 . S
C515 C510 1.379 . S
C515 N513 1.356 . S
N516 C508 1.356 . S
N516 H522 0.984 . S
N516 H523 0.984 . S
N517 C510 1.356 . S
N517 H520 0.984 . S
N517 H521 0.985 . S
H518 N513 0.984 . S
H519 N513 0.985 . S
H520 N517 0.984 . S
H521 N517 0.985 . S
H522 N516 0.984 . S
H523 N516 0.984 . S
H524 N512 0.984 . S
H525 N512 0.985 . S
C526 C527 1.363 . S
C526 C532 1.379 . S
C526 N534 1.356 . S
C527 C526 1.363 . S
C527 C533 1.363 . S
C528 C529 1.363 . S
C528 C533 1.379 . S
C528 N535 1.356 . S
C529 C528 1.363 . S
C529 C532 1.363 . S
N530 C532 1.356 1_554 S
N530 H542 0.984 . S
N530 H543 0.985 . S
N531 C533 1.356 . S
N531 H536 0.984 . S
N531 H537 0.985 . S
C532 C526 1.379 . S
C532 C529 1.363 . S
C532 N530 1.356 1_556 S
C533 C527 1.363 . S
C533 C528 1.379 . S
C533 N531 1.356 . S
N534 C526 1.356 . S
N534 H540 0.984 1_556 S
N534 H541 0.984 . S
N535 C528 1.356 . S
N535 H538 0.984 . S
N535 H539 0.985 . S
H536 N531 0.984 . S
H537 N531 0.985 . S
H538 N535 0.984 . S
H539 N535 0.985 . S
H540 N534 0.984 1_554 S
H541 N534 0.984 . S
H542 N530 0.984 . S
H543 N530 0.985 . S
C544 C545 1.363 . S
C544 C550 1.379 . S
C544 N552 1.356 . S
C545 C544 1.363 . S
C545 C551 1.363 . S
C546 C547 1.363 . S
C546 C551 1.379 . S
C546 N553 1.356 . S
C547 C546 1.363 . S
C547 C550 1.363 . S
N548 C550 1.356 . S
N548 H560 0.984 . S
N548 H561 0.985 . S
N549 C551 1.356 . S
N549 H554 0.984 . S
N549 H555 0.985 . S
C550 C544 1.379 . S
C550 C547 1.363 . S
C550 N548 1.356 . S
C551 C545 1.363 . S
C551 C546 1.379 . S
C551 N549 1.356 . S
N552 C544 1.356 . S
N552 H558 0.984 . S
N552 H559 0.984 . S
N553 C546 1.356 . S
N553 H556 0.984 . S
N553 H557 0.985 . S
H554 N549 0.984 . S
H555 N549 0.985 . S
H556 N553 0.984 . S
H557 N553 0.985 . S
H558 N552 0.984 . S
H559 N552 0.984 . S
H560 N548 0.984 . S
H561 N548 0.985 . S
C562 C563 1.363 . S
C562 C568 1.379 . S
C562 N570 1.356 . S
C563 C562 1.363 . S
C563 C569 1.363 . S
C564 C565 1.363 . S
C564 C569 1.379 . S
C564 N571 1.356 . S
C565 C564 1.363 . S
C565 C568 1.363 . S
N566 C568 1.356 . S
N566 H578 0.984 . S
N566 H579 0.985 . S
N567 C569 1.356 . S
N567 H572 0.984 . S
N567 H573 0.985 . S
C568 C562 1.379 . S
C568 C565 1.363 . S
C568 N566 1.356 . S
C569 C563 1.363 . S
C569 C564 1.379 . S
C569 N567 1.356 . S
N570 C562 1.356 . S
N570 H576 0.984 . S
N570 H577 0.984 . S
N571 C564 1.356 . S
N571 H574 0.984 . S
N571 H575 0.985 . S
H572 N567 0.984 . S
H573 N567 0.985 . S
H574 N571 0.984 . S
H575 N571 0.985 . S
H576 N570 0.984 . S
H577 N570 0.984 . S
H578 N566 0.984 . S
H579 N566 0.985 . S
C580 C581 1.363 . S
C580 C586 1.379 . S
C580 N588 1.356 . S
C581 C580 1.363 . S
C581 C587 1.363 . S
C582 C583 1.363 . S
C582 C587 1.379 . S
C582 N589 1.356 1_554 S
C583 C582 1.363 . S
C583 C586 1.363 . S
N584 C586 1.356 . S
N584 H596 0.984 . S
N584 H597 0.985 . S
N585 C587 1.356 . S
N585 H590 0.984 . S
N585 H591 0.985 1_554 S
C586 C580 1.379 . S
C586 C583 1.363 . S
C586 N584 1.356 . S
C587 C581 1.363 . S
C587 C582 1.379 . S
C587 N585 1.356 . S
N588 C580 1.356 . S
N588 H594 0.984 . S
N588 H595 0.984 . S
N589 C582 1.356 1_556 S
N589 H592 0.984 . S
N589 H593 0.985 . S
H590 N585 0.984 . S
H591 N585 0.985 1_556 S
H592 N589 0.984 . S
H593 N589 0.985 . S
H594 N588 0.984 . S
H595 N588 0.984 . S
H596 N584 0.984 . S
H597 N584 0.985 . S
C598 C599 1.363 . S
C598 C604 1.379 . S
C598 N606 1.356 . S
C599 C598 1.363 . S
C599 C605 1.363 . S
C600 C601 1.363 . S
C600 C605 1.379 . S
C600 N607 1.356 . S
C601 C600 1.363 . S
C601 C604 1.363 . S
N602 C604 1.356 . S
N602 H614 0.984 . S
N602 H615 0.985 . S
N603 C605 1.356 . S
N603 H608 0.984 . S
N603 H609 0.985 . S
C604 C598 1.379 . S
C604 C601 1.363 . S
C604 N602 1.356 . S
C605 C599 1.363 . S
C605 C600 1.379 . S
C605 N603 1.356 . S
N606 C598 1.356 . S
N606 H612 0.984 . S
N606 H613 0.984 . S
N607 C600 1.356 . S
N607 H610 0.984 . S
N607 H611 0.985 . S
H608 N603 0.984 . S
H609 N603 0.985 . S
H610 N607 0.984 . S
H611 N607 0.985 . S
H612 N606 0.984 . S
H613 N606 0.984 . S
H614 N602 0.984 . S
H615 N602 0.985 . S
C616 C617 1.363 1_455 S
C616 C622 1.379 . S
C616 N624 1.356 . S
C617 C616 1.363 1_655 S
C617 C623 1.363 . S
C618 C619 1.363 . S
C618 C623 1.379 . S
C618 N625 1.356 . S
C619 C618 1.363 . S
C619 C622 1.363 1_655 S
N620 C622 1.356 . S
N620 H632 0.984 . S
N620 H633 0.985 . S
N621 C623 1.356 . S
N621 H626 0.984 . S
N621 H627 0.985 . S
C622 C616 1.379 . S
C622 C619 1.363 1_455 S
C622 N620 1.356 . S
C623 C617 1.363 . S
C623 C618 1.379 . S
C623 N621 1.356 . S
N624 C616 1.356 . S
N624 H630 0.984 . S
N624 H631 0.984 . S
N625 C618 1.356 . S
N625 H628 0.984 . S
N625 H629 0.985 . S
H626 N621 0.984 . S
H627 N621 0.985 . S
H628 N625 0.984 . S
H629 N625 0.985 . S
H630 N624 0.984 . S
H631 N624 0.984 . S
H632 N620 0.984 . S
H633 N620 0.985 . S
C634 C635 1.363 . S
C634 C640 1.379 . S
C634 N642 1.356 . S
C635 C634 1.363 . S
C635 C641 1.363 . S
C636 C637 1.363 . S
C636 C641 1.379 . S
C636 N643 1.356 1_565 S
C637 C636 1.363 . S
C637 C640 1.363 . S
N638 C640 1.356 . S
N638 H650 0.984 . S
N638 H651 0.985 . S
N639 C641 1.356 1_545 S
N639 H644 0.984 . S
N639 H645 0.985 . S
C640 C634 1.379 . S
C640 C637 1.363 . S
C640 N638 1.356 . S
C641 C635 1.363 . S
C641 C636 1.379 . S
C641 N639 1.356 1_565 S
N642 C634 1.356 . S
N642 H648 0.984 . S
N642 H649 0.984 . S
N643 C636 1.356 1_545 S
N643 H646 0.984 1_545 S
N643 H647 0.985 . S
H644 N639 0.984 . S
H645 N639 0.985 . S
H646 N643 0.984 1_565 S
H647 N643 0.985 . S
H648 N642 0.984 . S
H649 N642 0.984 . S
H650 N638 0.984 . S
H651 N638 0.985 . S
C652 C653 1.363 . S
C652 C658 1.379 . S
C652 N660 1.356 . S
C653 C652 1.363 . S
C653 C659 1.363 . S
C654 C655 1.363 . S
C654 C659 1.379 . S
C654 N661 1.356 . S
C655 C654 1.363 . S
C655 C658 1.363 . S
N656 C658 1.356 . S
N656 H668 0.984 1_556 S
N656 H669 0.985 . S
N657 C659 1.356 . S
N657 H662 0.984 . S
N657 H663 0.985 . S
C658 C652 1.379 . S
C658 C655 1.363 . S
C658 N656 1.356 . S
C659 C653 1.363 . S
C659 C654 1.379 . S
C659 N657 1.356 . S
N660 C652 1.356 . S
N660 H666 0.984 . S
N660 H667 0.984 . S
N661 C654 1.356 . S
N661 H664 0.984 . S
N661 H665 0.985 . S
H662 N657 0.984 . S
H663 N657 0.985 . S
H664 N661 0.984 . S
H665 N661 0.985 . S
H666 N660 0.984 . S
H667 N660 0.984 . S
H668 N656 0.984 1_554 S
H669 N656 0.985 . S
C670 C671 1.363 . S
C670 C676 1.379 . S
C670 N678 1.356 . S
C671 C670 1.363 . S
C671 C677 1.363 . S
C672 C673 1.363 . S
C672 C677 1.379 . S
C672 N679 1.356 . S
C673 C672 1.363 . S
C673 C676 1.363 . S
N674 C676 1.356 . S
N674 H686 0.984 . S
N674 H687 0.985 . S
N675 C677 1.356 . S
N675 H680 0.984 . S
N675 H681 0.985 . S
C676 C670 1.379 . S
C676 C673 1.363 . S
C676 N674 1.356 . S
C677 C671 1.363 . S
C677 C672 1.379 . S
C677 N675 1.356 . S
N678 C670 1.356 . S
N678 H684 0.984 . S
N678 H685 0.984 . S
N679 C672 1.356 . S
N679 H682 0.984 . S
N679 H683 0.985 . S
H680 N675 0.984 . S
H681 N675 0.985 . S
H682 N679 0.984 . S
H683 N679 0.985 . S
H684 N678 0.984 . S
H685 N678 0.984 . S
H686 N674 0.984 . S
H687 N674 0.985 . S
C257 C76 1.655 . S
C259 C105 1.661 . S
C277 C145 1.407 . S
C275 C88 1.413 . S
C295 C194 1.432 . S
C293 C52 1.458 . S
C313 C225 1.788 . S
C311 C64 1.858 . S
C331 C114 1.661 . S
C329 C28 1.674 1_556 S
C347 C40 1.421 . S
C349 C154 1.406 . S
C365 C4 1.461 . S
C367 C185 1.432 . S
C383 C16 1.875 . S
C385 C234 1.788 . S
C403 C115 1.246 . S
C401 C69 1.088 . S
C421 C155 1.708 . S
C419 C81 1.497 . S
C439 C191 0.943 . S
C437 C93 0.960 . S
C455 C57 1.268 . S
C457 C235 1.456 . S
C473 C21 1.080 . S
C475 C106 1.246 1_554 S
C493 C146 1.708 . S
C491 C33 1.475 1_556 S
C511 C182 0.943 . S
C509 C45 0.958 . S
C527 C9 1.260 . S
C529 C226 1.456 . S
C545 C66 1.630 . S
C547 C111 1.660 . S
C563 C78 1.529 . S
C565 C151 1.485 . S
C583 C195 2.036 . S
C581 C90 1.846 . S
C601 C231 1.462 . S
C599 C54 1.488 . S
C617 C18 1.624 . S
C619 C102 1.660 . S
C637 C142 1.485 . S
C635 C30 1.538 . S
C655 C186 2.036 . S
C653 C42 1.844 . S
C671 C6 1.505 . S
C673 C222 1.461 . S
