# Generated by pormake.
# Topology zzz, (3,6)-cn, num edge types: 1
# Building blocks:
#     Node 0, Type 0, BuildingBlock: BETDIP_clean_linker_0, # of connection points: 3
#     Node 1, Type 0, BuildingBlock: BETDIP_clean_linker_0, # of connection points: 3
#     Node 2, Type 0, BuildingBlock: BETDIP_clean_linker_0, # of connection points: 3
#     Node 3, Type 0, BuildingBlock: BETDIP_clean_linker_0, # of connection points: 3
#     Node 4, Type 0, BuildingBlock: BETDIP_clean_linker_0, # of connection points: 3
#     Node 5, Type 0, BuildingBlock: BETDIP_clean_linker_0, # of connection points: 3
#     Node 6, Type 0, BuildingBlock: BETDIP_clean_linker_0, # of connection points: 3
#     Node 7, Type 0, BuildingBlock: BETDIP_clean_linker_0, # of connection points: 3
#     Node 8, Type 1, BuildingBlock: PAMTUU_clean_sbu_0, # of connection points: 6
#     Node 9, Type 1, BuildingBlock: PAMTUU_clean_sbu_0, # of connection points: 6
#     Node 10, Type 1, BuildingBlock: PAMTUU_clean_sbu_0, # of connection points: 6
#     Node 11, Type 1, BuildingBlock: PAMTUU_clean_sbu_0, # of connection points: 6
#     Edge 12, Type (0, 1), BuildingBlock: KIFKEQ_clean_linker_1, # of connection points: 2
#     Edge 13, Type (0, 1), BuildingBlock: KIFKEQ_clean_linker_1, # of connection points: 2
#     Edge 14, Type (0, 1), BuildingBlock: KIFKEQ_clean_linker_1, # of connection points: 2
#     Edge 15, Type (0, 1), BuildingBlock: KIFKEQ_clean_linker_1, # of connection points: 2
#     Edge 16, Type (0, 1), BuildingBlock: KIFKEQ_clean_linker_1, # of connection points: 2
#     Edge 17, Type (0, 1), BuildingBlock: KIFKEQ_clean_linker_1, # of connection points: 2
#     Edge 18, Type (0, 1), BuildingBlock: KIFKEQ_clean_linker_1, # of connection points: 2
#     Edge 19, Type (0, 1), BuildingBlock: KIFKEQ_clean_linker_1, # of connection points: 2
#     Edge 20, Type (0, 1), BuildingBlock: KIFKEQ_clean_linker_1, # of connection points: 2
#     Edge 21, Type (0, 1), BuildingBlock: KIFKEQ_clean_linker_1, # of connection points: 2
#     Edge 22, Type (0, 1), BuildingBlock: KIFKEQ_clean_linker_1, # of connection points: 2
#     Edge 23, Type (0, 1), BuildingBlock: KIFKEQ_clean_linker_1, # of connection points: 2
#     Edge 24, Type (0, 1), BuildingBlock: KIFKEQ_clean_linker_1, # of connection points: 2
#     Edge 25, Type (0, 1), BuildingBlock: KIFKEQ_clean_linker_1, # of connection points: 2
#     Edge 26, Type (0, 1), BuildingBlock: KIFKEQ_clean_linker_1, # of connection points: 2
#     Edge 27, Type (0, 1), BuildingBlock: KIFKEQ_clean_linker_1, # of connection points: 2
#     Edge 28, Type (0, 1), BuildingBlock: KIFKEQ_clean_linker_1, # of connection points: 2
#     Edge 29, Type (0, 1), BuildingBlock: KIFKEQ_clean_linker_1, # of connection points: 2
#     Edge 30, Type (0, 1), BuildingBlock: KIFKEQ_clean_linker_1, # of connection points: 2
#     Edge 31, Type (0, 1), BuildingBlock: KIFKEQ_clean_linker_1, # of connection points: 2
#     Edge 32, Type (0, 1), BuildingBlock: KIFKEQ_clean_linker_1, # of connection points: 2
#     Edge 33, Type (0, 1), BuildingBlock: KIFKEQ_clean_linker_1, # of connection points: 2
#     Edge 34, Type (0, 1), BuildingBlock: KIFKEQ_clean_linker_1, # of connection points: 2
#     Edge 35, Type (0, 1), BuildingBlock: KIFKEQ_clean_linker_1, # of connection points: 2
# Relax obj value: 0.213
# Max RMSD: 0.222
# Mean RMSD: 0.119
data_MOF--net-zzz--node1-PAMTUU_clean_sbu_0--node2-BETDIP_clean_linker_0--edge1-KIFKEQ_clean_linker_1
_symmetry_space_group_name_H-M    P1
_symmetry_Int_Tables_number       1
_symmetry_cell_setting            triclinic
loop_
_symmetry_equiv_pos_as_xyz
'x, y, z'
_cell_length_a     52.325233
_cell_length_b     55.749223
_cell_length_c     15.78659
_cell_angle_alpha  101.35566
_cell_angle_beta   90.070831
_cell_angle_gamma 90.980986
loop_
_atom_site_label
_atom_site_type_symbol
_atom_site_fract_x
_atom_site_fract_y
_atom_site_fract_z
_atom_type_partial_charge
H0 H 0.77574 0.50162 0.47668 0.0
H1 H 0.75354 0.55204 0.31567 0.0
H2 H 0.82781 0.55858 0.43318 0.0
H3 H 0.7132 0.5454 0.41584 0.0
C4 C 0.71399 0.52768 0.3724 0.0
C5 C 0.7799 0.5175 0.4488 0.0
C6 C 0.80387 0.5302 0.46638 0.0
C7 C 0.76108 0.52604 0.39646 0.0
C8 C 0.7671 0.54628 0.3593 0.0
C9 C 0.79119 0.55768 0.37054 0.0
C10 C 0.80891 0.55012 0.42625 0.0
N11 N 0.73679 0.51383 0.37521 0.0
H12 H 0.98449 0.75256 0.52376 0.0
H13 H 1.01202 0.73694 0.26137 0.0
H14 H 0.02963 0.80611 0.42571 0.0
H15 H 0.95988 0.71991 0.27444 0.0
C16 C 0.97226 0.70803 0.30237 0.0
C17 C 0.9955 0.75789 0.47218 0.0
C18 C 1.00725 0.78121 0.48448 0.0
C19 C 0.9974 0.74175 0.39175 0.0
C20 C 1.01089 0.74911 0.32384 0.0
C21 C 0.02311 0.77207 0.33671 0.0
C22 C 0.02137 0.7878 0.41716 0.0
N23 N 0.98601 0.71803 0.37923 0.0
H24 H 0.76277 0.98902 0.45012 0.0
H25 H 0.7812 0.0442 0.30077 0.0
H26 H 0.71438 0.05131 0.4589 0.0
H27 H 0.78867 0.00285 0.20235 0.0
C28 C 0.80417 1.00089 0.24634 0.0
C29 C 0.75861 0.00614 0.43087 0.0
C30 C 0.73649 0.01946 0.46411 0.0
C31 C 0.77511 0.01509 0.37132 0.0
C32 C 0.76907 0.03718 0.34623 0.0
C33 C 0.74752 0.05033 0.37857 0.0
C34 C 0.73165 0.04149 0.43729 0.0
N35 N 0.79755 0.00228 0.33557 0.0
H36 H 0.54211 0.77276 0.3108 0.0
H37 H 0.50349 0.74792 0.06531 0.0
H38 H 0.51072 0.69976 0.24389 0.0
H39 H 0.52915 0.77683 0.02641 0.0
C40 C 0.52814 0.79217 0.0806 0.0
C41 C 0.53166 0.7588 0.26593 0.0
C42 C 0.52703 0.73564 0.28674 0.0
C43 C 0.52319 0.76369 0.18587 0.0
C44 C 0.51018 0.74489 0.12712 0.0
C45 C 0.50538 0.72197 0.14883 0.0
C46 C 0.51362 0.71778 0.22855 0.0
N47 N 0.52768 0.78746 0.16637 0.0
H48 H 0.26759 0.51438 0.2154 0.0
H49 H 0.28288 0.45173 0.33063 0.0
H50 H 0.21528 0.45289 0.17844 0.0
H51 H 0.29415 0.4844 0.44179 0.0
C52 C 0.30864 0.49197 0.40471 0.0
C53 C 0.2627 0.49613 0.22464 0.0
C54 C 0.23986 0.48424 0.18663 0.0
C55 C 0.27866 0.48442 0.27746 0.0
C56 C 0.27134 0.46094 0.29026 0.0
C57 C 0.24842 0.44967 0.25628 0.0
C58 C 0.23351 0.46108 0.20246 0.0
N59 N 0.30118 0.49625 0.32109 0.0
H60 H 0.0426 0.25276 0.1093 0.0
H61 H 0.01737 0.2639 0.3746 0.0
H62 H 0.03503 0.1919 0.23858 0.0
H63 H 0.99103 0.29269 0.3002 0.0
C64 C 1.00958 0.30134 0.29439 0.0
C65 C 0.03825 0.24563 0.1668 0.0
C66 C 0.03998 0.22039 0.16547 0.0
C67 C 0.03016 0.26153 0.2425 0.0
C68 C 0.02373 0.25195 0.31607 0.0
C69 C 0.02593 0.22697 0.31491 0.0
C70 C 0.03424 0.21143 0.24009 0.0
N71 N 0.02874 0.28712 0.24525 0.0
H72 H 0.27411 0.01222 0.2138 0.0
H73 H 0.25394 0.95734 0.362 0.0
H74 H 0.32352 0.95124 0.21747 0.0
H75 H 0.21262 0.96513 0.27627 0.0
C76 C 0.21362 0.98297 0.31914 0.0
C77 C 0.27818 0.99532 0.23471 0.0
C78 C 0.30101 0.98245 0.20648 0.0
C79 C 0.26031 0.98562 0.28832 0.0
C80 C 0.26647 0.96414 0.31707 0.0
C81 C 0.28909 0.95186 0.29176 0.0
C82 C 0.30575 0.96067 0.23516 0.0
N83 N 0.2366 0.99732 0.31633 0.0
H84 H 0.5071 0.22453 0.3533 0.0
H85 H 0.52249 0.25344 0.62459 0.0
H86 H 0.51301 0.30211 0.44902 0.0
H87 H 0.54206 0.21716 0.61491 0.0
C88 C 0.52901 0.2041 0.576 0.0
C89 C 0.51037 0.23984 0.40641 0.0
C90 C 0.50953 0.26398 0.39171 0.0
C91 C 0.51566 0.23557 0.4903 0.0
C92 C 0.51943 0.25594 0.55913 0.0
C93 C 0.51824 0.27985 0.5438 0.0
C94 C 0.51363 0.28353 0.4605 0.0
N95 N 0.51624 0.21095 0.50447 0.0
Tb96 Tb 0.99875 0.00652 0.75065 0.0
Tb97 Tb 0.03543 0.99639 0.90507 0.0
C98 C 0.97585 0.00166 0.93164 0.0
C99 C 0.97376 0.0411 0.60023 0.0
C100 C 0.978 0.08903 0.56962 0.0
C101 C 0.95394 0.07725 0.56722 0.0
C102 C 0.95184 0.05345 0.58284 0.0
C103 C 0.99786 0.05247 0.59902 0.0
C104 C 0.99996 0.07615 0.58353 0.0
C105 C 0.97131 0.01875 0.63559 0.0
O106 O 0.01952 0.0408 0.7958 0.0
O107 O 0.03071 0.03581 0.93184 0.0
O108 O 0.06187 0.00707 0.81022 0.0
O109 O 0.03608 0.9968 0.69094 0.0
O110 O 0.04258 0.99799 0.03725 0.0
O111 O 0.06939 0.98142 0.94072 0.0
O112 O 0.02831 0.96127 0.82024 0.0
O113 O 0.99084 0.96829 0.75473 0.0
O114 O 0.97603 0.01405 0.86896 0.0
O115 O 0.99613 0.98931 0.94562 0.0
C116 C 0.02747 0.04979 0.87476 0.0
O117 O 0.98981 0.00319 0.61868 0.0
O118 O 0.96538 0.02281 0.71697 0.0
C119 C 0.05895 0.002 0.72559 0.0
C120 C 0.05979 0.96026 0.04949 0.0
C121 C 0.05677 0.9125 0.08272 0.0
C122 C 0.07826 0.92767 0.10997 0.0
C123 C 0.07981 0.95141 0.09299 0.0
C124 C 0.03824 0.94533 0.02366 0.0
C125 C 0.03679 0.9217 0.03956 0.0
C126 C 0.06213 0.98362 0.02065 0.0
C127 C 1.00734 0.95323 0.77766 0.0
H128 H 0.9367 0.08677 0.55674 0.0
H129 H 0.93306 0.04513 0.58529 0.0
H130 H 1.01503 0.04346 0.61372 0.0
H131 H 0.0188 0.08453 0.58389 0.0
H132 H 0.09383 0.92124 0.14432 0.0
H133 H 0.09673 0.96262 0.11233 0.0
H134 H 0.02279 0.95167 0.98849 0.0
H135 H 0.02022 0.91044 0.01596 0.0
Tb136 Tb 0.50897 0.98418 0.74649 0.0
Tb137 Tb 0.53011 0.01506 0.93016 0.0
C138 C 0.52171 0.95761 0.89993 0.0
C139 C 0.47247 0.94059 0.57874 0.0
C140 C 0.42996 0.90945 0.52683 0.0
C141 C 0.44024 0.91178 0.61062 0.0
C142 C 0.46128 0.92736 0.63656 0.0
C143 C 0.46317 0.93742 0.4943 0.0
C144 C 0.44212 0.9221 0.46858 0.0
C145 C 0.49287 0.95878 0.60598 0.0
O146 O 0.47415 0.99595 0.82175 0.0
O147 O 0.49108 0.00436 0.95895 0.0
O148 O 0.51603 0.04199 0.85872 0.0
O149 O 0.51819 0.02031 0.72022 0.0
O150 O 0.55543 0.01942 0.03507 0.0
O151 O 0.52648 0.04613 0.02948 0.0
O152 O 0.56274 0.01522 0.84266 0.0
O153 O 0.55085 0.983 0.73493 0.0
O154 O 0.50658 0.95875 0.83457 0.0
O155 O 0.53575 0.9766 0.93693 0.0
C156 C 0.47116 1.00035 0.90661 0.0
O157 O 0.48541 0.98098 0.63699 0.0
O158 O 0.5113 0.95222 0.65164 0.0
C159 C 0.51672 0.04122 0.77507 0.0
C160 C 0.56647 0.0607 0.08843 0.0
C161 C 0.60707 0.09413 0.14184 0.0
C162 C 0.58374 0.09625 0.18698 0.0
C163 C 0.56369 0.0795 0.16086 0.0
C164 C 0.58863 0.06005 0.03822 0.0
C165 C 0.60878 0.07649 0.06485 0.0
C166 C 0.547 0.04107 0.06861 0.0
C167 C 0.56821 0.99902 0.77259 0.0
H168 H 0.43157 0.90221 0.65698 0.0
H169 H 0.46833 0.92962 0.70227 0.0
H170 H 0.47158 0.94756 0.44905 0.0
H171 H 0.43456 0.92144 0.40431 0.0
H172 H 0.58147 0.10996 0.24532 0.0
H173 H 0.54646 0.08058 0.19937 0.0
H174 H 0.59098 0.04595 0.981 0.0
H175 H 0.62637 0.074 0.02839 0.0
Tb176 Tb 0.50345 0.49219 0.91924 0.0
Tb177 Tb 0.53775 0.51164 0.76881 0.0
C178 C 0.47804 0.5019 0.7424 0.0
C179 C 0.4838 0.44687 0.05164 0.0
C180 C 0.48992 0.40019 0.09453 0.0
C181 C 0.46652 0.41246 0.10871 0.0
C182 C 0.46352 0.4355 0.08739 0.0
C183 C 0.5073 0.43491 0.03824 0.0
C184 C 0.51035 0.41186 0.05969 0.0
C185 C 0.47936 0.46979 0.02033 0.0
O186 O 0.53022 0.46432 0.86431 0.0
O187 O 0.53373 0.47195 0.7282 0.0
O188 O 0.56504 0.50309 0.86552 0.0
O189 O 0.53877 0.50772 0.98366 0.0
O190 O 0.54638 0.51335 0.63973 0.0
O191 O 0.56925 0.53316 0.74462 0.0
O192 O 0.52269 0.544 0.85121 0.0
O193 O 0.49168 0.53009 0.93566 0.0
O194 O 0.47812 0.48971 0.80616 0.0
O195 O 0.49833 0.51433 0.72485 0.0
C196 C 0.53421 0.45672 0.78191 0.0
O197 O 0.49503 0.48821 0.04665 0.0
O198 O 0.47502 0.46679 0.93778 0.0
C199 C 0.56188 0.50636 0.95011 0.0
C200 C 0.56119 0.55314 0.62991 0.0
C201 C 0.55692 0.59903 0.5792 0.0
C202 C 0.57942 0.58532 0.56297 0.0
C203 C 0.58155 0.56268 0.5884 0.0
C204 C 0.53863 0.56652 0.64532 0.0
C205 C 0.53654 0.58921 0.62072 0.0
C206 C 0.56404 0.5302 0.66252 0.0
C207 C 0.50326 0.54769 0.9047 0.0
H208 H 0.45048 0.40427 0.13656 0.0
H209 H 0.44515 0.44427 0.09743 0.0
H210 H 0.52312 0.44317 0.00955 0.0
H211 H 0.52855 0.40292 0.04699 0.0
H212 H 0.59538 0.59197 0.53002 0.0
H213 H 0.59918 0.5527 0.5762 0.0
H214 H 0.52273 0.5595 0.67748 0.0
H215 H 0.51905 0.59923 0.63575 0.0
Tb216 Tb 0.03665 0.51748 0.74354 0.0
Tb217 Tb 1.01015 0.49079 0.88368 0.0
C218 C 1.01265 0.54778 0.90917 0.0
C219 C 0.07903 0.51619 0.56986 0.0
C220 C 0.10958 0.47652 0.49418 0.0
C221 C 0.11809 0.49312 0.56803 0.0
C222 C 0.10306 0.51277 0.60527 0.0
C223 C 0.07143 0.50067 0.49212 0.0
C224 C 0.08655 0.48098 0.45472 0.0
C225 C 0.05987 0.53145 0.62342 0.0
O226 O 0.06866 0.50299 0.80726 0.0
O227 O 0.04926 0.49935 0.93395 0.0
O228 O 0.03031 0.46113 0.80351 0.0
O229 O 0.03157 0.47895 0.68487 0.0
O230 O 1.0024 0.49158 0.01476 0.0
O231 O 0.98502 0.46399 0.91533 0.0
O232 O 0.98249 0.48969 0.77738 0.0
O233 O 0.99556 0.52412 0.73173 0.0
O234 O 0.03217 0.54652 0.85656 0.0
O235 O 0.99803 0.52857 0.9102 0.0
C236 C 0.07021 0.501 0.88889 0.0
O237 O 0.03657 0.52262 0.61525 0.0
O238 O 0.06591 0.53923 0.70459 0.0
C239 C 0.0333 0.45961 0.72018 0.0
C240 C 0.95827 0.48764 0.01799 0.0
C241 C 0.921 0.52394 0.06329 0.0
C242 C 0.93335 0.51373 0.1273 0.0
C243 C 0.95216 0.49608 0.10486 0.0
C244 C 0.94422 0.49603 0.95406 0.0
C245 C 0.92629 0.51428 0.97619 0.0
C246 C 0.98314 0.47639 0.99434 0.0
C247 C 0.97756 0.50769 0.73726 0.0
H248 H 0.13623 0.49067 0.59809 0.0
H249 H 0.10967 0.52439 0.66476 0.0
H250 H 0.05301 0.50276 0.46328 0.0
H251 H 0.07968 0.46866 0.3971 0.0
H252 H 0.92912 0.51977 0.19512 0.0
H253 H 0.96289 0.49009 0.15541 0.0
H254 H 0.94835 0.48985 0.88642 0.0
H255 H 0.91762 0.52144 0.92435 0.0
H256 H 0.20835 0.02023 0.4669 0.0
H257 H 0.16806 0.95956 0.30828 0.0
H258 H 0.17144 0.02671 0.56564 0.0
H259 H 0.13183 0.96565 0.4054 0.0
H260 H 0.0602 0.9927 0.54782 0.0
H261 H 0.0969 0.99116 0.45247 0.0
H262 H 0.14714 0.0092 0.67366 0.0
H263 H 0.11011 0.01112 0.76969 0.0
C264 C 0.19158 0.00847 0.45243 0.0
C265 C 0.1912 0.98949 0.3788 0.0
C266 C 0.17043 0.012 0.50953 0.0
C267 C 0.14823 0.99682 0.49406 0.0
C268 C 0.14806 0.97812 0.41967 0.0
C269 C 0.16906 0.97453 0.36365 0.0
C270 C 0.079 0.99641 0.57668 0.0
C271 C 0.08189 0.00184 0.66726 0.0
C272 C 0.10026 0.99541 0.52153 0.0
C273 C 0.12539 0.9998 0.55442 0.0
C274 C 0.12827 0.00585 0.64513 0.0
C275 C 0.10691 0.00679 0.70053 0.0
H276 H 0.55155 0.18914 0.70956 0.0
H277 H 0.50007 0.16349 0.49612 0.0
H278 H 0.54762 0.14991 0.75434 0.0
H279 H 0.49579 0.1239 0.54172 0.0
H280 H 0.51747 0.04798 0.60641 0.0
H281 H 0.51932 0.08665 0.55509 0.0
H282 H 0.51702 0.12639 0.81882 0.0
H283 H 0.51555 0.088 0.86997 0.0
C284 C 0.5393 0.17506 0.67219 0.0
C285 C 0.5261 0.17951 0.59944 0.0
C286 C 0.53689 0.15255 0.69828 0.0
C287 C 0.52117 0.13364 0.65239 0.0
C288 C 0.50816 0.13794 0.57852 0.0
C289 C 0.51052 0.16067 0.5525 0.0
C290 C 0.51725 0.06496 0.65349 0.0
C291 C 0.5165 0.06471 0.74257 0.0
C292 C 0.51818 0.08719 0.62392 0.0
C293 C 0.51854 0.10979 0.68261 0.0
C294 C 0.51725 0.10945 0.77151 0.0
C295 C 0.51624 0.08731 0.80097 0.0
H296 H 0.35089 0.52232 0.3834 0.0
H297 H 0.32679 0.46448 0.51178 0.0
H298 H 0.39188 0.52572 0.46253 0.0
H299 H 0.36744 0.4666 0.58588 0.0
H300 H 0.4294 0.48868 0.78164 0.0
H301 H 0.39043 0.48756 0.69798 0.0
H302 H 0.4325 0.51207 0.49454 0.0
H303 H 0.47159 0.51444 0.5818 0.0
C304 C 0.3545 0.51002 0.4271 0.0
C305 C 0.33537 0.49319 0.44136 0.0
C306 C 0.3781 0.51191 0.47284 0.0
C307 C 0.38332 0.49683 0.53333 0.0
C308 C 0.36436 0.47933 0.54345 0.0
C309 C 0.3409 0.47782 0.49951 0.0
C310 C 0.43049 0.49384 0.71906 0.0
C311 C 0.45398 0.50145 0.68891 0.0
C312 C 0.40793 0.49298 0.66992 0.0
C313 C 0.40781 0.4992 0.58723 0.0
C314 C 0.43134 0.5072 0.55748 0.0
C315 C 0.45397 0.50843 0.60762 0.0
H316 H 0.0536 0.32993 0.30596 0.0
H317 H 0.97929 0.32488 0.42028 0.0
H318 H 0.06308 0.36743 0.41274 0.0
H319 H 0.98872 0.36203 0.52657 0.0
H320 H 0.02124 0.41462 0.75557 0.0
H321 H 0.01835 0.37568 0.65281 0.0
H322 H 0.04665 0.41089 0.45038 0.0
H323 H 0.04963 0.44982 0.55294 0.0
C324 C 0.03931 0.33685 0.35372 0.0
C325 C 1.01569 0.32456 0.35499 0.0
C326 C 0.04473 0.35827 0.41474 0.0
C327 C 0.02675 0.36749 0.47866 0.0
C328 C 1.00314 0.35516 0.47922 0.0
C329 C 0.99764 0.33403 0.41787 0.0
C330 C 0.02731 0.41398 0.68959 0.0
C331 C 0.03537 0.43536 0.66222 0.0
C332 C 0.02547 0.39172 0.6306 0.0
C333 C 0.03194 0.39031 0.54329 0.0
C334 C 0.04155 0.41138 0.51717 0.0
C335 C 0.04312 0.4337 0.57591 0.0
H336 H 0.81594 0.99665 0.07867 0.0
H337 H 0.85259 1.00121 0.32609 0.0
H338 H 0.85726 0.9963 0.00913 0.0
H339 H 0.89479 1.00115 0.25564 0.0
H340 H 0.96619 0.97841 0.06979 0.0
H341 H 0.92623 0.97754 0.15133 0.0
H342 H 0.89147 0.02417 0.99739 0.0
H343 H 0.93076 0.0248 0.91633 0.0
C344 C 0.83294 0.99753 0.11856 0.0
C345 C 0.8307 0.99904 0.20832 0.0
C346 C 0.85683 0.99753 0.07842 0.0
C347 C 0.87975 0.9991 0.12619 0.0
C348 C 0.87769 0.99988 0.21619 0.0
C349 C 0.85347 0.99996 0.25685 0.0
C350 C 0.95003 0.98853 0.05351 0.0
C351 C 0.95195 0.00154 0.98539 0.0
C352 C 0.92705 0.98813 0.10077 0.0
C353 C 0.90519 1.00054 0.08096 0.0
C354 C 0.90746 0.0139 0.01408 0.0
C355 C 0.93028 0.01439 0.96744 0.0
H356 H 0.52894 0.80355 0.92255 0.0
H357 H 0.52722 0.8375 0.19267 0.0
H358 H 0.52784 0.84358 0.88324 0.0
H359 H 0.52581 0.87801 0.15323 0.0
H360 H 0.54899 0.94707 0.03804 0.0
H361 H 0.55084 0.90794 0.08645 0.0
H362 H 0.49789 0.87598 0.88399 0.0
H363 H 0.49627 0.9146 0.83525 0.0
C364 C 0.5283 0.81965 0.9737 0.0
C365 C 0.52808 0.81727 0.06066 0.0
C366 C 0.52751 0.84267 0.95113 0.0
C367 C 0.52647 0.86418 0.01485 0.0
C368 C 0.52672 0.86189 0.10233 0.0
C369 C 0.52741 0.83868 0.12502 0.0
C370 C 0.53773 0.93169 0.00392 0.0
C371 C 0.52263 0.93411 0.93217 0.0
C372 C 0.53867 0.90926 0.03207 0.0
C373 C 0.52469 0.88861 0.98884 0.0
C374 C 0.50931 0.89125 0.9181 0.0
C375 C 0.50829 0.91357 0.8903 0.0
H376 H 0.70975 0.49188 0.21978 0.0
H377 H 0.66844 0.54962 0.38142 0.0
H378 H 0.67367 0.48539 0.1163 0.0
H379 H 0.63298 0.54346 0.27971 0.0
H380 H 0.56234 0.51401 0.12753 0.0
H381 H 0.59853 0.51636 0.22573 0.0
H382 H 0.65011 0.50411 0.0091 0.0
H383 H 0.61353 0.50144 0.90984 0.0
C384 C 0.69292 0.50297 0.23389 0.0
C385 C 0.69199 0.52112 0.30979 0.0
C386 C 0.67226 0.49945 0.17407 0.0
C387 C 0.65002 0.51379 0.18906 0.0
C388 C 0.64929 0.53167 0.26566 0.0
C389 C 0.66982 0.53528 0.32434 0.0
C390 C 0.58133 0.5118 0.10018 0.0
C391 C 0.58471 0.50771 0.00991 0.0
C392 C 0.60229 0.51325 0.15704 0.0
C393 C 0.62761 0.51064 0.12633 0.0
C394 C 0.63104 0.50607 0.03587 0.0
C395 C 0.60997 0.50472 0.97867 0.0
H396 H 0.94338 0.68234 0.17258 0.0
H397 H 1.0127 0.67824 0.31722 0.0
H398 H 0.9528 0.64297 0.07934 0.0
H399 H 0.02236 0.63904 0.22286 0.0
H400 H 0.04342 0.58844 0.95782 0.0
H401 H 0.03325 0.62634 0.05871 0.0
H402 H 0.95764 0.59772 0.09328 0.0
H403 H 0.96776 0.5598 0.99358 0.0
C404 C 0.96049 0.67286 0.18485 0.0
C405 C 0.97721 0.68322 0.25223 0.0
C406 C 0.96586 0.65037 0.13164 0.0
C407 C 0.98836 0.63805 0.14369 0.0
C408 C 1.00498 0.64827 0.21184 0.0
C409 C 0.99934 0.67058 0.26618 0.0
C410 C 0.02461 0.59028 0.98669 0.0
C411 C 1.00639 0.57116 0.96737 0.0
C412 C 0.01888 0.61187 0.04494 0.0
C413 C 0.99469 0.6149 0.08388 0.0
C414 C 0.97639 0.5959 0.0639 0.0
C415 C 0.98224 0.57419 0.00686 0.0
H416 H 0.97798 0.22529 0.37867 0.0
H417 H 0.05527 0.20282 0.41035 0.0
H418 H 0.9624 0.19656 0.46701 0.0
H419 H 0.03997 0.17426 0.4984 0.0
H420 H 1.00819 0.12549 0.66157 0.0
H421 H 0.01725 0.16574 0.62844 0.0
H422 H 0.96232 0.15079 0.41936 0.0
H423 H 0.95345 0.11052 0.4518 0.0
C424 C 0.99166 0.21494 0.40777 0.0
C425 C 0.01774 0.21607 0.38817 0.0
C426 C 0.98278 0.1984 0.45749 0.0
C427 C 0.99995 0.18302 0.48869 0.0
C428 C 0.0263 0.18601 0.47591 0.0
C429 C 0.0351 0.2023 0.42551 0.0
C430 C 0.99788 0.13093 0.60904 0.0
C431 C 0.98052 0.11468 0.55797 0.0
C432 C 1.00294 0.15401 0.59062 0.0
C433 C 0.99061 0.16132 0.52113 0.0
C434 C 0.97189 0.14578 0.47409 0.0
C435 C 0.96689 0.12265 0.49233 0.0
H436 H 0.2955 0.95498 0.46282 0.0
H437 H 0.30286 0.90522 0.21838 0.0
H438 H 0.32291 0.93003 0.53022 0.0
H439 H 0.3289 0.87848 0.28688 0.0
H440 H 0.38815 0.90716 0.6313 0.0
H441 H 0.34424 0.90179 0.58238 0.0
H442 H 0.37048 0.88129 0.31841 0.0
H443 H 0.41394 0.88354 0.36879 0.0
C444 C 0.30204 0.9379 0.42453 0.0
C445 C 0.29777 0.93231 0.33523 0.0
C446 C 0.31781 0.92326 0.46332 0.0
C447 C 0.32941 0.90248 0.41358 0.0
C448 C 0.32157 0.89494 0.32671 0.0
C449 C 0.30639 0.91006 0.28733 0.0
C450 C 0.38458 0.90027 0.56325 0.0
C451 C 0.40466 0.89733 0.50316 0.0
C452 C 0.3592 0.89762 0.53474 0.0
C453 C 0.35352 0.89317 0.44566 0.0
C454 C 0.3736 0.88569 0.38746 0.0
C455 C 0.39888 0.8874 0.41629 0.0
H456 H 0.56208 0.299 0.62564 0.0
H457 H 0.4814 0.31155 0.60596 0.0
H458 H 0.56903 0.34249 0.69099 0.0
H459 H 0.48837 0.35485 0.6689 0.0
H460 H 0.52126 0.42966 0.62358 0.0
H461 H 0.51834 0.38494 0.58338 0.0
H462 H 0.54996 0.37895 0.83067 0.0
H463 H 0.55247 0.42365 0.8719 0.0
C464 C 0.54575 0.31081 0.63923 0.0
C465 C 0.52118 0.302 0.61195 0.0
C466 C 0.54975 0.33567 0.67528 0.0
C467 C 0.52927 0.35192 0.68292 0.0
C468 C 0.50446 0.34266 0.66251 0.0
C469 C 0.50043 0.31788 0.62791 0.0
C470 C 0.52811 0.41882 0.66854 0.0
C471 C 0.53703 0.43012 0.75079 0.0
C472 C 0.52622 0.3933 0.64595 0.0
C473 C 0.53369 0.37868 0.70453 0.0
C474 C 0.54406 0.38989 0.78468 0.0
C475 C 0.54549 0.41541 0.80797 0.0
H476 H 0.24702 0.44624 0.42584 0.0
H477 H 0.22123 0.40878 0.1739 0.0
H478 H 0.20848 0.43398 0.48908 0.0
H479 H 0.18203 0.39639 0.23784 0.0
H480 H 0.12105 0.45955 0.3249 0.0
H481 H 0.15508 0.43219 0.26953 0.0
H482 H 0.16811 0.41753 0.52498 0.0
H483 H 0.13372 0.44529 0.58055 0.0
C484 C 0.23391 0.43397 0.38437 0.0
C485 C 0.23622 0.42995 0.29406 0.0
C486 C 0.2115 0.42686 0.42099 0.0
C487 C 0.19135 0.41578 0.36729 0.0
C488 C 0.19677 0.40603 0.2802 0.0
C489 C 0.21929 0.41309 0.24354 0.0
C490 C 0.13046 0.44978 0.36867 0.0
C491 C 0.12542 0.45524 0.45748 0.0
C492 C 0.14994 0.43378 0.33679 0.0
C493 C 0.16484 0.423 0.39329 0.0
C494 C 0.15736 0.4259 0.48014 0.0
C495 C 0.13788 0.442 0.51207 0.0
H496 H 1.00131 0.7743 0.18234 0.0
H497 H 0.07036 0.79289 0.33229 0.0
H498 H 1.01305 0.80391 0.0932 0.0
H499 H 0.08191 0.82278 0.24454 0.0
H500 H 0.09464 0.87845 0.07434 0.0
H501 H 0.09082 0.83724 0.10602 0.0
H502 H 1.01044 0.84843 0.15814 0.0
H503 H 1.01427 0.88938 0.12936 0.0
C504 C 0.01958 0.78385 0.19348 0.0
C505 C 0.03474 0.78175 0.2649 0.0
C506 C 0.02618 0.80097 0.14311 0.0
C507 C 0.04801 0.81609 0.16363 0.0
C508 C 0.06494 0.81146 0.22735 0.0
C509 C 0.05832 0.79439 0.27773 0.0
C510 C 0.07619 0.87207 0.0927 0.0
C511 C 0.05477 0.88724 0.09938 0.0
C512 C 0.07397 0.84841 0.10979 0.0
C513 C 0.05025 0.83947 0.13294 0.0
C514 C 0.02882 0.85448 0.13785 0.0
C515 C 0.03107 0.87808 0.12176 0.0
H516 H 0.7329 0.09519 0.46689 0.0
H517 H 0.74209 0.05271 0.20949 0.0
H518 H 0.70447 0.12271 0.41071 0.0
H519 H 0.71334 0.0795 0.15355 0.0
H520 H 0.64899 0.11138 0.06375 0.0
H521 H 0.69228 0.11516 0.12327 0.0
H522 H 0.66203 0.10824 0.3721 0.0
H523 H 0.61958 0.104 0.31337 0.0
C524 C 0.72961 0.09235 0.39783 0.0
C525 C 0.739 0.07149 0.34273 0.0
C526 C 0.71333 0.10806 0.36561 0.0
C527 C 0.70585 0.1028 0.2782 0.0
C528 C 0.7185 0.08414 0.22133 0.0
C529 C 0.73498 0.0686 0.25343 0.0
C530 C 0.65158 0.1114 0.13183 0.0
C531 C 0.63084 0.10629 0.18266 0.0
C532 C 0.67639 0.11371 0.166 0.0
C533 C 0.68077 0.11115 0.25164 0.0
C534 C 0.65958 0.11021 0.30571 0.0
C535 C 0.63491 0.10772 0.27157 0.0
H536 H 0.46307 0.69466 0.16902 0.0
H537 H 0.52524 0.7003 0.99482 0.0
H538 H 0.45541 0.65209 0.098 0.0
H539 H 0.51827 0.65772 0.92503 0.0
H540 H 0.48553 0.5719 0.0617 0.0
H541 H 0.4788 0.61595 0.10504 0.0
H542 H 0.49424 0.62476 0.84377 0.0
H543 H 0.50173 0.58114 0.80216 0.0
C544 C 0.4744 0.68701 0.1131 0.0
C545 C 0.49471 0.7007 0.0871 0.0
C546 C 0.47033 0.66252 0.0734 0.0
C547 C 0.48659 0.65121 0.00713 0.0
C548 C 0.50524 0.66574 0.97553 0.0
C549 C 0.50919 0.69028 0.01504 0.0
C550 C 0.48697 0.58326 0.01352 0.0
C551 C 0.49464 0.57323 0.92912 0.0
C552 C 0.48302 0.60851 0.03799 0.0
C553 C 0.48632 0.62407 0.97807 0.0
C554 C 0.49214 0.61353 0.89215 0.0
C555 C 0.4964 0.58849 0.86823 0.0
H556 H 0.78277 0.54937 0.19738 0.0
H557 H 0.82082 0.60006 0.40248 0.0
H558 H 0.81379 0.55784 0.09682 0.0
H559 H 0.85201 0.60978 0.2994 0.0
H560 H 0.92062 0.55998 0.21015 0.0
H561 H 0.88556 0.5855 0.26444 0.0
H562 H 0.84683 0.56446 0.01772 0.0
H563 H 0.88005 0.53591 0.96849 0.0
C564 C 0.79703 0.56349 0.22033 0.0
C565 C 0.80043 0.57279 0.30893 0.0
C566 C 0.81524 0.56846 0.16179 0.0
C567 C 0.83717 0.58275 0.19136 0.0
C568 C 0.83661 0.59701 0.27567 0.0
C569 C 0.81856 0.59168 0.33484 0.0
C570 C 0.90441 0.56032 0.16782 0.0
C571 C 0.90255 0.54428 0.0873 0.0
C572 C 0.88435 0.57577 0.19815 0.0
C573 C 0.86214 0.57607 0.14766 0.0
C574 C 0.86268 0.56358 0.06105 0.0
C575 C 0.88218 0.54726 0.03209 0.0
H576 H 0.08262 0.19351 0.12911 0.0
H577 H 1.00763 0.20422 0.03148 0.0
H578 H 0.08349 0.15257 0.03883 0.0
H579 H 1.00807 0.16309 0.94228 0.0
H580 H 0.01734 0.08596 0.78407 0.0
H581 H 0.02541 0.13 0.82962 0.0
H582 H 0.05847 0.11776 0.06803 0.0
H583 H 0.05069 0.07407 0.02271 0.0
C584 C 0.0669 0.18753 0.08484 0.0
C585 C 0.04515 0.20201 0.0866 0.0
C586 C 0.06715 0.16394 0.0343 0.0
C587 C 0.04555 0.15431 0.98516 0.0
C588 C 0.02502 0.1699 0.97929 0.0
C589 C 0.02483 0.19358 0.02978 0.0
C590 C 0.02656 0.09267 0.84586 0.0
C591 C 0.03324 0.07644 0.89998 0.0
C592 C 0.03115 0.11792 0.87189 0.0
C593 C 0.04279 0.12743 0.95211 0.0
C594 C 0.04996 0.11108 0.00504 0.0
C595 C 0.04521 0.08597 0.97944 0.0
H596 H 0.33436 0.02206 0.24484 0.0
H597 H 0.31559 0.95988 0.0449 0.0
H598 H 0.3742 0.02849 0.16964 0.0
H599 H 0.35528 0.96587 0.9701 0.0
H600 H 0.42427 0.98883 0.82444 0.0
H601 H 0.38185 0.98806 0.88916 0.0
H602 H 0.4153 0.01073 0.14292 0.0
H603 H 0.45744 0.01184 0.07831 0.0
C604 C 0.33827 0.01027 0.18324 0.0
C605 C 0.3213 0.9908 0.15019 0.0
C606 C 0.36147 0.01362 0.1406 0.0
C607 C 0.36853 0.99759 0.06332 0.0
C608 C 0.3508 0.97887 0.02841 0.0
C609 C 0.32778 0.97547 0.07126 0.0
C610 C 0.42263 0.9938 0.89404 0.0
C611 C 0.44467 1.00037 0.9455 0.0
C612 C 0.39813 0.99324 0.93157 0.0
C613 C 0.39465 0.99936 0.02209 0.0
C614 C 0.41672 0.00624 0.07321 0.0
C615 C 0.44117 0.00668 0.03579 0.0
H616 H 0.54401 0.27051 0.26966 0.0
H617 H 0.46403 0.2762 0.3324 0.0
H618 H 0.53931 0.30032 0.17629 0.0
H619 H 0.45922 0.30647 0.24174 0.0
H620 H 0.45562 0.36145 0.06846 0.0
H621 H 0.45958 0.32199 0.11185 0.0
H622 H 0.53491 0.34352 0.21464 0.0
H623 H 0.53102 0.3827 0.1704 0.0
C624 C 0.52511 0.27712 0.25956 0.0
C625 C 0.5043 0.27072 0.30721 0.0
C626 C 0.5225 0.29472 0.20783 0.0
C627 C 0.49903 0.30646 0.20313 0.0
C628 C 0.4776 0.29792 0.24317 0.0
C629 C 0.48023 0.28025 0.29452 0.0
C630 C 0.47306 0.35773 0.10023 0.0
C631 C 0.49292 0.37544 0.11648 0.0
C632 C 0.47536 0.33502 0.12495 0.0
C633 C 0.49758 0.32935 0.1669 0.0
C634 C 0.5177 0.34685 0.18094 0.0
C635 C 0.51543 0.36949 0.15591 0.0
H636 H 0.20186 0.51579 0.25126 0.0
H637 H 0.23055 0.47425 0.01278 0.0
H638 H 0.16155 0.5216 0.17939 0.0
H639 H 0.19033 0.47959 0.94051 0.0
H640 H 0.08199 0.49887 0.05829 0.0
H641 H 0.12397 0.49896 0.12619 0.0
H642 H 0.16003 0.50351 0.88399 0.0
H643 H 0.11805 0.50297 0.81589 0.0
C644 C 0.20002 0.50883 0.18242 0.0
C645 C 0.22003 0.49533 0.1374 0.0
C646 C 0.17654 0.51161 0.14128 0.0
C647 C 0.17209 0.50086 0.05351 0.0
C648 C 0.19271 0.48848 0.00753 0.0
C649 C 0.2161 0.48562 0.04884 0.0
C650 C 0.09882 0.49986 0.0192 0.0
C651 C 0.09624 0.50081 0.93094 0.0
C652 C 0.12312 0.50016 0.05864 0.0
C653 C 0.14591 0.50137 0.01148 0.0
C654 C 0.14326 0.50231 0.9231 0.0
C655 C 0.11896 0.50208 0.88375 0.0
H656 H 0.9625 0.80272 0.54183 0.0
H657 H 0.04336 0.80451 0.59498 0.0
H658 H 0.95861 0.84355 0.63234 0.0
H659 H 0.03996 0.84527 0.68262 0.0
H660 H 0.97414 0.92757 0.65627 0.0
H661 H 0.97059 0.88325 0.60873 0.0
H662 H 0.02619 0.87389 0.8019 0.0
H663 H 0.03069 0.91797 0.84566 0.0
C664 C 0.97921 0.81144 0.57602 0.0
C665 C 1.0032 0.80049 0.56202 0.0
C666 C 0.97713 0.83502 0.62644 0.0
C667 C 0.99904 0.84805 0.66355 0.0
C668 C 0.02258 0.83594 0.65597 0.0
C669 C 0.0246 0.81245 0.6059 0.0
C670 C 0.98542 0.91601 0.68897 0.0
C671 C 1.00296 0.92636 0.75388 0.0
C672 C 0.98321 0.89053 0.66235 0.0
C673 C 0.99827 0.87483 0.7009 0.0
C674 C 1.01469 0.8853 0.76929 0.0
C675 C 0.01719 0.91068 0.79475 0.0
H676 H 0.70725 0.97654 0.44176 0.0
H677 H 0.71939 0.04528 0.61765 0.0
H678 H 0.66831 0.96928 0.52012 0.0
H679 H 0.68029 0.03903 0.6928 0.0
H680 H 0.61264 0.0214 0.84611 0.0
H681 H 0.65482 0.02251 0.78225 0.0
H682 H 0.62589 0.97914 0.54288 0.0
H683 H 0.58405 0.97705 0.60906 0.0
C684 C 0.70204 0.98981 0.4986 0.0
C685 C 0.71685 0.01138 0.52358 0.0
C686 C 0.67923 0.98596 0.54287 0.0
C687 C 0.67031 0.00365 0.61336 0.0
C688 C 0.68605 0.02459 0.64043 0.0
C689 C 0.70879 0.02827 0.59689 0.0
C690 C 0.61525 0.01197 0.77995 0.0
C691 C 0.59458 0.9992 0.73327 0.0
C692 C 0.63966 0.01274 0.74247 0.0
C693 C 0.64442 1.00113 0.65592 0.0
C694 C 0.62368 0.98809 0.60971 0.0
C695 C 0.59935 0.98702 0.64777 0.0
H696 H 0.57438 0.71885 0.30892 0.0
H697 H 0.50109 0.7315 0.43178 0.0
H698 H 0.5835 0.68824 0.39575 0.0
H699 H 0.51019 0.70123 0.52003 0.0
H700 H 0.51447 0.61812 0.51627 0.0
H701 H 0.51042 0.65697 0.47051 0.0
H702 H 0.58987 0.67402 0.53258 0.0
H703 H 0.59391 0.63509 0.5803 0.0
C704 C 0.56091 0.71618 0.35847 0.0
C705 C 0.53718 0.72781 0.36445 0.0
C706 C 0.56597 0.69837 0.4076 0.0
C707 C 0.5473 0.69177 0.46343 0.0
C708 C 0.52477 0.70545 0.4763 0.0
C709 C 0.51975 0.72322 0.42721 0.0
C710 C 0.53102 0.63026 0.52203 0.0
C711 C 0.55452 0.62326 0.55237 0.0
C712 C 0.52867 0.65268 0.4958 0.0
C713 C 0.54975 0.66886 0.49858 0.0
C714 C 0.57326 0.66201 0.52923 0.0
C715 C 0.57558 0.63957 0.55609 0.0
H716 H 0.82858 0.55978 0.60056 0.0
H717 H 0.82902 0.48596 0.45379 0.0
H718 H 0.86945 0.55347 0.66628 0.0
H719 H 0.87026 0.47942 0.52065 0.0
H720 H 0.93802 0.47339 0.71314 0.0
H721 H 0.89502 0.47673 0.6552 0.0
H722 H 0.91388 0.54959 0.61858 0.0
H723 H 0.95679 0.54621 0.67594 0.0
C724 C 0.83712 0.5419 0.58378 0.0
C725 C 0.82517 0.52337 0.52182 0.0
C726 C 0.86088 0.53838 0.6208 0.0
C727 C 0.87377 0.51607 0.59803 0.0
C728 C 0.86111 0.4969 0.54016 0.0
C729 C 0.83724 0.50054 0.50224 0.0
C730 C 0.93308 0.49014 0.69253 0.0
C731 C 0.95122 0.50952 0.69958 0.0
C732 C 0.9083 0.49201 0.6588 0.0
C733 C 0.90055 0.51349 0.63218 0.0
C734 C 0.91875 0.53283 0.6392 0.0
C735 C 0.9436 0.53084 0.67175 0.0
loop_
_geom_bond_atom_site_label_1
_geom_bond_atom_site_label_2
_geom_bond_distance
_geom_bond_site_symmetry_2
_ccdc_geom_bond_type
H0 C5 0.930 . S
H1 C8 0.930 . S
H2 C10 0.930 . S
H3 C4 1.016 . S
C4 H3 1.016 . S
C4 N11 1.286 . S
C5 H0 0.930 . S
C5 C6 1.397 . S
C5 C7 1.361 . S
C6 C5 1.397 . S
C6 C10 1.390 . S
C7 C5 1.361 . S
C7 C8 1.393 . S
C7 N11 1.413 . S
C8 H1 0.930 . S
C8 C7 1.393 . S
C8 C9 1.399 . S
C9 C8 1.399 . S
C9 C10 1.381 . S
C10 H2 0.930 . S
C10 C6 1.390 . S
C10 C9 1.381 . S
N11 C4 1.286 . S
N11 C7 1.413 . S
H12 C17 0.930 . S
H13 C20 0.930 . S
H14 C22 0.930 . S
H15 C16 1.016 . S
C16 H15 1.016 . S
C16 N23 1.286 1_655 S
C17 H12 0.930 . S
C17 C18 1.400 . S
C17 C19 1.361 . S
C18 C17 1.400 . S
C18 C22 1.388 1_455 S
C19 C17 1.361 . S
C19 C20 1.393 . S
C19 N23 1.413 . S
C20 H13 0.930 . S
C20 C19 1.393 . S
C20 C21 1.398 1_455 S
C21 C20 1.398 1_655 S
C21 C22 1.381 . S
C22 H14 0.930 . S
C22 C18 1.388 1_655 S
C22 C21 1.381 . S
N23 C16 1.286 1_455 S
N23 C19 1.413 . S
H24 C29 0.930 . S
H25 C32 0.930 . S
H26 C34 0.930 . S
H27 C28 1.022 . S
C28 H27 1.022 . S
C28 N35 1.274 1_565 S
C29 H24 0.930 . S
C29 C30 1.397 . S
C29 C31 1.361 . S
C30 C29 1.397 . S
C30 C34 1.390 1_545 S
C31 C29 1.361 . S
C31 C32 1.393 . S
C31 N35 1.413 . S
C32 H25 0.930 . S
C32 C31 1.393 . S
C32 C33 1.402 . S
C33 C32 1.402 . S
C33 C34 1.375 1_545 S
C34 H26 0.930 . S
C34 C30 1.390 1_565 S
C34 C33 1.375 1_565 S
N35 C28 1.274 1_545 S
N35 C31 1.413 . S
H36 C41 0.930 . S
H37 C44 0.930 . S
H38 C46 0.930 . S
H39 C40 1.016 . S
C40 H39 1.016 . S
C40 N47 1.286 1_556 S
C41 H36 0.930 . S
C41 C42 1.397 . S
C41 C43 1.361 . S
C42 C41 1.397 . S
C42 C46 1.390 . S
C43 C41 1.361 . S
C43 C44 1.393 1_554 S
C43 N47 1.413 . S
C44 H37 0.930 . S
C44 C43 1.393 1_556 S
C44 C45 1.399 . S
C45 C44 1.399 . S
C45 C46 1.381 1_556 S
C46 H38 0.930 . S
C46 C42 1.390 . S
C46 C45 1.381 1_554 S
N47 C40 1.286 1_554 S
N47 C43 1.413 . S
H48 C53 0.930 . S
H49 C56 0.930 . S
H50 C58 0.930 . S
H51 C52 1.016 . S
C52 H51 1.016 . S
C52 N59 1.286 . S
C53 H48 0.930 . S
C53 C54 1.397 . S
C53 C55 1.361 . S
C54 C53 1.397 . S
C54 C58 1.390 . S
C55 C53 1.361 . S
C55 C56 1.393 . S
C55 N59 1.413 . S
C56 H49 0.930 . S
C56 C55 1.393 . S
C56 C57 1.399 . S
C57 C56 1.399 . S
C57 C58 1.381 . S
C58 H50 0.930 . S
C58 C54 1.390 . S
C58 C57 1.381 . S
N59 C52 1.286 . S
N59 C55 1.413 . S
H60 C65 0.930 . S
H61 C68 0.930 . S
H62 C70 0.930 1_655 S
H63 C64 1.016 1_655 S
C64 H63 1.016 1_455 S
C64 N71 1.286 . S
C65 H60 0.930 . S
C65 C66 1.397 . S
C65 C67 1.361 . S
C66 C65 1.397 . S
C66 C70 1.390 . S
C67 C65 1.361 . S
C67 C68 1.393 . S
C67 N71 1.413 . S
C68 H61 0.930 . S
C68 C67 1.393 . S
C68 C69 1.399 . S
C69 C68 1.399 . S
C69 C70 1.381 . S
C70 H62 0.930 1_455 S
C70 C66 1.390 . S
C70 C69 1.381 . S
N71 C64 1.286 . S
N71 C67 1.413 . S
H72 C77 0.930 . S
H73 C80 0.930 . S
H74 C82 0.930 . S
H75 C76 1.031 . S
C76 H75 1.031 . S
C76 N83 1.269 1_565 S
C77 H72 0.930 . S
C77 C78 1.397 . S
C77 C79 1.361 . S
C78 C77 1.397 . S
C78 C82 1.390 1_545 S
C79 C77 1.361 . S
C79 C80 1.393 . S
C79 N83 1.413 . S
C80 H73 0.930 . S
C80 C79 1.393 . S
C80 C81 1.404 . S
C81 C80 1.404 . S
C81 C82 1.384 1_545 S
C82 H74 0.930 . S
C82 C78 1.390 1_565 S
C82 C81 1.384 1_565 S
N83 C76 1.269 1_545 S
N83 C79 1.413 . S
H84 C89 0.930 . S
H85 C92 0.930 . S
H86 C94 0.930 . S
H87 C88 1.016 . S
C88 H87 1.016 . S
C88 N95 1.286 . S
C89 H84 0.930 . S
C89 C90 1.397 . S
C89 C91 1.361 . S
C90 C89 1.397 . S
C90 C94 1.390 . S
C91 C89 1.361 . S
C91 C92 1.393 . S
C91 N95 1.413 . S
C92 H85 0.930 . S
C92 C91 1.393 . S
C92 C93 1.399 . S
C93 C92 1.399 . S
C93 C94 1.381 . S
C94 H86 0.930 . S
C94 C90 1.390 . S
C94 C93 1.381 . S
N95 C88 1.286 . S
N95 C91 1.413 . S
Tb96 C105 2.764 . S
Tb96 O106 2.325 . S
Tb96 O109 2.303 1_655 S
Tb96 O113 2.322 1_545 S
Tb96 O114 2.349 . S
Tb96 O117 2.415 . S
Tb96 O118 2.399 . S
Tb97 O107 2.322 1_565 S
Tb97 O108 2.349 . S
Tb97 O110 2.415 . S
Tb97 O111 2.399 . S
Tb97 O112 2.325 . S
Tb97 O115 2.303 1_455 S
Tb97 C126 2.764 . S
C98 O114 1.266 . S
C98 O115 1.255 1_545 S
C99 C102 1.358 . S
C99 C103 1.332 . S
C99 C105 1.504 . S
C100 C101 1.373 . S
C100 C104 1.308 . S
C101 C100 1.373 . S
C101 C102 1.429 . S
C101 H128 0.932 . S
C102 C99 1.358 . S
C102 C101 1.429 . S
C102 H129 0.930 . S
C103 C99 1.332 . S
C103 C104 1.394 . S
C103 H130 0.932 1_655 S
C104 C100 1.308 . S
C104 C103 1.394 . S
C104 H131 0.929 1_655 S
C105 Tb96 2.764 . S
C105 C99 1.504 . S
C105 O117 1.239 . S
C105 O118 1.263 . S
O106 Tb96 2.325 . S
O106 C116 1.236 1_655 S
O107 Tb97 2.322 1_545 S
O107 C116 1.257 . S
O108 Tb97 2.349 . S
O108 C119 1.260 . S
O109 Tb96 2.303 1_455 S
O109 C119 1.257 1_545 S
O110 Tb97 2.415 . S
O110 C126 1.239 . S
O111 Tb97 2.399 . S
O111 C126 1.263 . S
O112 Tb97 2.325 . S
O112 C127 1.236 1_455 S
O113 Tb96 2.322 1_565 S
O113 C127 1.257 . S
O114 Tb96 2.349 . S
O114 C98 1.266 . S
O115 Tb97 2.303 1_655 S
O115 C98 1.255 1_565 S
C116 O106 1.236 1_455 S
C116 O107 1.257 . S
O117 Tb96 2.415 . S
O117 C105 1.239 . S
O118 Tb96 2.399 . S
O118 C105 1.263 . S
C119 O108 1.260 . S
C119 O109 1.257 1_565 S
C120 C123 1.358 . S
C120 C124 1.332 . S
C120 C126 1.504 1_554 S
C121 C122 1.373 . S
C121 C125 1.308 . S
C122 C121 1.373 . S
C122 C123 1.429 . S
C122 H132 0.932 . S
C123 C120 1.358 . S
C123 C122 1.429 . S
C123 H133 0.930 . S
C124 C120 1.332 . S
C124 C125 1.394 . S
C124 H134 0.932 1_455 S
C125 C121 1.308 . S
C125 C124 1.394 . S
C125 H135 0.929 1_455 S
C126 Tb97 2.764 . S
C126 O110 1.239 . S
C126 O111 1.263 . S
C126 C120 1.504 1_556 S
C127 O112 1.236 1_655 S
C127 O113 1.257 . S
H128 C101 0.932 . S
H129 C102 0.930 . S
H130 C103 0.932 1_455 S
H131 C104 0.929 1_455 S
H132 C122 0.932 . S
H133 C123 0.930 . S
H134 C124 0.932 1_655 S
H135 C125 0.929 1_655 S
Tb136 C145 2.764 . S
Tb136 O146 2.325 . S
Tb136 O149 2.303 1_565 S
Tb136 O153 2.322 . S
Tb136 O154 2.349 . S
Tb136 O157 2.415 1_565 S
Tb136 O158 2.399 . S
Tb137 O147 2.322 . S
Tb137 O148 2.349 . S
Tb137 O150 2.415 1_545 S
Tb137 O151 2.399 1_556 S
Tb137 O152 2.325 . S
Tb137 O155 2.303 1_545 S
Tb137 C166 2.764 1_556 S
C138 O154 1.261 . S
C138 O155 1.257 . S
C139 C142 1.358 . S
C139 C143 1.332 1_565 S
C139 C145 1.504 . S
C140 C141 1.373 . S
C140 C144 1.308 1_565 S
C141 C140 1.373 . S
C141 C142 1.429 . S
C141 H168 0.932 . S
C142 C139 1.358 . S
C142 C141 1.429 . S
C142 H169 0.930 . S
C143 C139 1.332 1_545 S
C143 C144 1.394 . S
C143 H170 0.932 . S
C144 C140 1.308 1_545 S
C144 C143 1.394 . S
C144 H171 0.929 . S
C145 Tb136 2.764 . S
C145 C139 1.504 . S
C145 O157 1.239 1_565 S
C145 O158 1.263 . S
O146 Tb136 2.325 . S
O146 C156 1.236 1_565 S
O147 Tb137 2.322 . S
O147 C156 1.257 . S
O148 Tb137 2.349 . S
O148 C159 1.261 . S
O149 Tb136 2.303 1_545 S
O149 C159 1.257 . S
O150 Tb137 2.415 1_565 S
O150 C166 1.239 1_566 S
O151 Tb137 2.399 1_554 S
O151 C166 1.263 . S
O152 Tb137 2.325 . S
O152 C167 1.236 1_545 S
O153 Tb136 2.322 . S
O153 C167 1.257 . S
O154 Tb136 2.349 . S
O154 C138 1.261 . S
O155 Tb137 2.303 1_565 S
O155 C138 1.257 . S
C156 O146 1.236 1_545 S
C156 O147 1.257 . S
O157 Tb136 2.415 1_545 S
O157 C145 1.239 1_545 S
O158 Tb136 2.399 . S
O158 C145 1.263 . S
C159 O148 1.261 . S
C159 O149 1.257 . S
C160 C163 1.358 . S
C160 C164 1.332 1_545 S
C160 C166 1.504 . S
C161 C162 1.373 . S
C161 C165 1.308 1_545 S
C162 C161 1.373 . S
C162 C163 1.429 . S
C162 H172 0.932 . S
C163 C160 1.358 . S
C163 C162 1.429 . S
C163 H173 0.930 . S
C164 C160 1.332 1_565 S
C164 C165 1.394 . S
C164 H174 0.932 . S
C165 C161 1.308 1_565 S
C165 C164 1.394 . S
C165 H175 0.929 . S
C166 Tb137 2.764 1_554 S
C166 O150 1.239 1_544 S
C166 O151 1.263 . S
C166 C160 1.504 . S
C167 O152 1.236 1_565 S
C167 O153 1.257 . S
H168 C141 0.932 . S
H169 C142 0.930 . S
H170 C143 0.932 . S
H171 C144 0.929 . S
H172 C162 0.932 . S
H173 C163 0.930 . S
H174 C164 0.932 . S
H175 C165 0.929 . S
Tb176 C185 2.764 1_556 S
Tb176 O186 2.325 . S
Tb176 O189 2.303 . S
Tb176 O193 2.322 . S
Tb176 O194 2.349 . S
Tb176 O197 2.415 1_556 S
Tb176 O198 2.399 . S
Tb177 O187 2.322 . S
Tb177 O188 2.349 . S
Tb177 O190 2.415 . S
Tb177 O191 2.399 . S
Tb177 O192 2.325 . S
Tb177 O195 2.303 . S
Tb177 C206 2.764 . S
C178 O194 1.261 . S
C178 O195 1.257 . S
C179 C182 1.358 . S
C179 C183 1.332 . S
C179 C185 1.504 . S
C180 C181 1.373 . S
C180 C184 1.308 . S
C181 C180 1.373 . S
C181 C182 1.429 . S
C181 H208 0.932 . S
C182 C179 1.358 . S
C182 C181 1.429 . S
C182 H209 0.930 . S
C183 C179 1.332 . S
C183 C184 1.394 . S
C183 H210 0.932 . S
C184 C180 1.308 . S
C184 C183 1.394 . S
C184 H211 0.929 . S
C185 Tb176 2.764 1_554 S
C185 C179 1.504 . S
C185 O197 1.239 . S
C185 O198 1.263 1_554 S
O186 Tb176 2.325 . S
O186 C196 1.236 . S
O187 Tb177 2.322 . S
O187 C196 1.257 . S
O188 Tb177 2.349 . S
O188 C199 1.261 . S
O189 Tb176 2.303 . S
O189 C199 1.257 . S
O190 Tb177 2.415 . S
O190 C206 1.239 . S
O191 Tb177 2.399 . S
O191 C206 1.263 . S
O192 Tb177 2.325 . S
O192 C207 1.236 . S
O193 Tb176 2.322 . S
O193 C207 1.257 . S
O194 Tb176 2.349 . S
O194 C178 1.261 . S
O195 Tb177 2.303 . S
O195 C178 1.257 . S
C196 O186 1.236 . S
C196 O187 1.257 . S
O197 Tb176 2.415 1_554 S
O197 C185 1.239 . S
O198 Tb176 2.399 . S
O198 C185 1.263 1_556 S
C199 O188 1.261 . S
C199 O189 1.257 . S
C200 C203 1.358 . S
C200 C204 1.332 . S
C200 C206 1.504 . S
C201 C202 1.373 . S
C201 C205 1.308 . S
C202 C201 1.373 . S
C202 C203 1.429 . S
C202 H212 0.932 . S
C203 C200 1.358 . S
C203 C202 1.429 . S
C203 H213 0.930 . S
C204 C200 1.332 . S
C204 C205 1.394 . S
C204 H214 0.932 . S
C205 C201 1.308 . S
C205 C204 1.394 . S
C205 H215 0.929 . S
C206 Tb177 2.764 . S
C206 O190 1.239 . S
C206 O191 1.263 . S
C206 C200 1.504 . S
C207 O192 1.236 . S
C207 O193 1.257 . S
H208 C181 0.932 . S
H209 C182 0.930 . S
H210 C183 0.932 . S
H211 C184 0.929 . S
H212 C202 0.932 . S
H213 C203 0.930 . S
H214 C204 0.932 . S
H215 C205 0.929 . S
Tb216 C225 2.764 . S
Tb216 O226 2.325 . S
Tb216 O229 2.303 . S
Tb216 O233 2.322 1_455 S
Tb216 O234 2.349 . S
Tb216 O237 2.415 . S
Tb216 O238 2.399 . S
Tb217 O227 2.322 1_655 S
Tb217 O228 2.349 . S
Tb217 O230 2.415 1_556 S
Tb217 O231 2.399 . S
Tb217 O232 2.325 . S
Tb217 O235 2.303 . S
Tb217 C246 2.771 . S
C218 O234 1.261 . S
C218 O235 1.257 1_455 S
C219 C222 1.358 . S
C219 C223 1.332 . S
C219 C225 1.504 . S
C220 C221 1.373 . S
C220 C224 1.308 . S
C221 C220 1.373 . S
C221 C222 1.429 . S
C221 H248 0.932 . S
C222 C219 1.358 . S
C222 C221 1.429 . S
C222 H249 0.930 . S
C223 C219 1.332 . S
C223 C224 1.394 . S
C223 H250 0.932 . S
C224 C220 1.308 . S
C224 C223 1.394 . S
C224 H251 0.929 . S
C225 Tb216 2.764 . S
C225 C219 1.504 . S
C225 O237 1.239 . S
C225 O238 1.263 . S
O226 Tb216 2.325 . S
O226 C236 1.236 . S
O227 Tb217 2.322 1_455 S
O227 C236 1.257 . S
O228 Tb217 2.349 . S
O228 C239 1.261 . S
O229 Tb216 2.303 . S
O229 C239 1.257 1_455 S
O230 Tb217 2.415 1_554 S
O230 C246 1.241 1_554 S
O231 Tb217 2.399 . S
O231 C246 1.267 . S
O232 Tb217 2.325 . S
O232 C247 1.236 . S
O233 Tb216 2.322 1_655 S
O233 C247 1.257 . S
O234 Tb216 2.349 . S
O234 C218 1.261 . S
O235 Tb217 2.303 . S
O235 C218 1.257 1_655 S
C236 O226 1.236 . S
C236 O227 1.257 . S
O237 Tb216 2.415 . S
O237 C225 1.239 . S
O238 Tb216 2.399 . S
O238 C225 1.263 . S
C239 O228 1.261 . S
C239 O229 1.257 1_655 S
C240 C243 1.358 . S
C240 C244 1.332 . S
C240 C246 1.497 1_554 S
C241 C242 1.373 . S
C241 C245 1.308 . S
C242 C241 1.373 . S
C242 C243 1.429 . S
C242 H252 0.932 . S
C243 C240 1.358 . S
C243 C242 1.429 . S
C243 H253 0.930 . S
C244 C240 1.332 . S
C244 C245 1.394 . S
C244 H254 0.932 . S
C245 C241 1.308 . S
C245 C244 1.394 . S
C245 H255 0.929 . S
C246 Tb217 2.771 . S
C246 O230 1.241 1_556 S
C246 O231 1.267 . S
C246 C240 1.497 1_556 S
C247 O232 1.236 . S
C247 O233 1.257 . S
H248 C221 0.932 . S
H249 C222 0.930 . S
H250 C223 0.932 . S
H251 C224 0.929 . S
H252 C242 0.932 . S
H253 C243 0.930 . S
H254 C244 0.932 . S
H255 C245 0.929 . S
H256 C264 0.950 . S
H257 C269 0.950 . S
H258 C266 0.950 . S
H259 C268 0.950 . S
H260 C270 0.950 . S
H261 C272 0.950 . S
H262 C274 0.950 . S
H263 C275 0.950 . S
C264 H256 0.950 . S
C264 C265 1.412 . S
C264 C266 1.391 . S
C265 C264 1.412 . S
C265 C269 1.362 1_545 S
C266 H258 0.950 . S
C266 C264 1.391 . S
C266 C267 1.400 . S
C267 C266 1.400 . S
C267 C268 1.398 1_545 S
C267 C273 1.491 . S
C268 H259 0.950 . S
C268 C267 1.398 1_565 S
C268 C269 1.391 . S
C269 H257 0.950 . S
C269 C265 1.362 1_565 S
C269 C268 1.391 . S
C270 H260 0.950 . S
C270 C271 1.386 1_565 S
C270 C272 1.391 . S
C271 C270 1.386 1_545 S
C271 C275 1.393 . S
C272 H261 0.950 . S
C272 C270 1.391 . S
C272 C273 1.400 1_565 S
C273 C267 1.491 . S
C273 C272 1.400 1_545 S
C273 C274 1.398 . S
C274 H262 0.950 . S
C274 C273 1.398 . S
C274 C275 1.391 . S
C275 H263 0.950 . S
C275 C271 1.393 . S
C275 C274 1.391 . S
H276 C284 0.950 . S
H277 C289 0.950 . S
H278 C286 0.950 . S
H279 C288 0.950 . S
H280 C290 0.950 . S
H281 C292 0.950 . S
H282 C294 0.950 . S
H283 C295 0.950 . S
C284 H276 0.950 . S
C284 C285 1.386 . S
C284 C286 1.391 . S
C285 C284 1.386 . S
C285 C289 1.393 . S
C286 H278 0.950 . S
C286 C284 1.391 . S
C286 C287 1.400 . S
C287 C286 1.400 . S
C287 C288 1.398 . S
C287 C293 1.491 . S
C288 H279 0.950 . S
C288 C287 1.398 . S
C288 C289 1.391 . S
C289 H277 0.950 . S
C289 C285 1.393 . S
C289 C288 1.391 . S
C290 H280 0.950 . S
C290 C291 1.386 . S
C290 C292 1.391 . S
C291 C290 1.386 . S
C291 C295 1.393 . S
C292 H281 0.950 . S
C292 C290 1.391 . S
C292 C293 1.400 . S
C293 C287 1.491 . S
C293 C292 1.400 . S
C293 C294 1.398 . S
C294 H282 0.950 . S
C294 C293 1.398 . S
C294 C295 1.391 . S
C295 H283 0.950 . S
C295 C291 1.393 . S
C295 C294 1.391 . S
H296 C304 0.950 . S
H297 C309 0.950 . S
H298 C306 0.950 . S
H299 C308 0.950 . S
H300 C310 0.950 . S
H301 C312 0.950 . S
H302 C314 0.950 . S
H303 C315 0.950 . S
C304 H296 0.950 . S
C304 C305 1.386 . S
C304 C306 1.391 . S
C305 C304 1.386 . S
C305 C309 1.393 . S
C306 H298 0.950 . S
C306 C304 1.391 . S
C306 C307 1.400 . S
C307 C306 1.400 . S
C307 C308 1.398 . S
C307 C313 1.491 . S
C308 H299 0.950 . S
C308 C307 1.398 . S
C308 C309 1.391 . S
C309 H297 0.950 . S
C309 C305 1.393 . S
C309 C308 1.391 . S
C310 H300 0.950 . S
C310 C311 1.386 . S
C310 C312 1.391 . S
C311 C310 1.386 . S
C311 C315 1.393 . S
C312 H301 0.950 . S
C312 C310 1.391 . S
C312 C313 1.400 . S
C313 C307 1.491 . S
C313 C312 1.400 . S
C313 C314 1.398 . S
C314 H302 0.950 . S
C314 C313 1.398 . S
C314 C315 1.391 . S
C315 H303 0.950 . S
C315 C311 1.393 . S
C315 C314 1.391 . S
H316 C324 0.950 . S
H317 C329 0.955 . S
H318 C326 0.950 . S
H319 C328 0.950 . S
H320 C330 0.946 1_655 S
H321 C332 0.947 1_655 S
H322 C334 0.950 . S
H323 C335 0.950 . S
C324 H316 0.950 . S
C324 C325 1.386 . S
C324 C326 1.391 . S
C325 C324 1.386 . S
C325 C329 1.388 1_455 S
C326 H318 0.950 . S
C326 C324 1.391 . S
C326 C327 1.400 . S
C327 C326 1.400 . S
C327 C328 1.398 1_455 S
C327 C333 1.491 . S
C328 H319 0.950 . S
C328 C327 1.398 1_655 S
C328 C329 1.393 . S
C329 H317 0.955 . S
C329 C325 1.388 1_655 S
C329 C328 1.393 . S
C330 H320 0.946 1_455 S
C330 C331 1.390 . S
C330 C332 1.391 . S
C331 C330 1.390 . S
C331 C335 1.393 . S
C332 H321 0.947 1_455 S
C332 C330 1.391 . S
C332 C333 1.404 . S
C333 C327 1.491 . S
C333 C332 1.404 . S
C333 C334 1.398 . S
C334 H322 0.950 . S
C334 C333 1.398 . S
C334 C335 1.391 . S
C335 H323 0.950 . S
C335 C331 1.393 . S
C335 C334 1.391 . S
H336 C344 0.950 . S
H337 C349 0.950 . S
H338 C346 0.950 . S
H339 C348 0.950 . S
H340 C350 0.950 . S
H341 C352 0.947 . S
H342 C354 0.950 . S
H343 C355 0.950 . S
C344 H336 0.950 . S
C344 C345 1.397 1_565 S
C344 C346 1.387 . S
C345 C344 1.397 1_545 S
C345 C349 1.393 . S
C346 H338 0.950 . S
C346 C344 1.387 . S
C346 C347 1.400 . S
C347 C346 1.400 . S
C347 C348 1.404 1_565 S
C347 C353 1.487 . S
C348 H339 0.950 . S
C348 C347 1.404 1_545 S
C348 C349 1.391 . S
C349 H337 0.950 . S
C349 C345 1.393 . S
C349 C348 1.391 . S
C350 H340 0.950 . S
C350 C351 1.386 1_554 S
C350 C352 1.391 . S
C351 C350 1.386 1_556 S
C351 C355 1.393 . S
C352 H341 0.947 . S
C352 C350 1.391 . S
C352 C353 1.400 . S
C353 C347 1.487 . S
C353 C352 1.400 . S
C353 C354 1.398 . S
C354 H342 0.950 . S
C354 C353 1.398 . S
C354 C355 1.391 1_554 S
C355 H343 0.950 . S
C355 C351 1.393 . S
C355 C354 1.391 1_556 S
H356 C364 0.950 . S
H357 C369 0.950 . S
H358 C366 0.950 . S
H359 C368 0.950 1_554 S
H360 C370 0.950 . S
H361 C372 0.950 1_554 S
H362 C374 0.950 . S
H363 C375 0.950 . S
C364 H356 0.950 . S
C364 C365 1.386 . S
C364 C366 1.391 . S
C365 C364 1.386 . S
C365 C369 1.393 1_556 S
C366 H358 0.950 . S
C366 C364 1.391 . S
C366 C367 1.400 . S
C367 C366 1.400 . S
C367 C368 1.398 . S
C367 C373 1.491 . S
C368 H359 0.950 1_556 S
C368 C367 1.398 . S
C368 C369 1.391 1_556 S
C369 H357 0.950 . S
C369 C365 1.393 1_554 S
C369 C368 1.391 1_554 S
C370 H360 0.950 . S
C370 C371 1.386 . S
C370 C372 1.391 . S
C371 C370 1.386 . S
C371 C375 1.393 . S
C372 H361 0.950 1_556 S
C372 C370 1.391 . S
C372 C373 1.400 . S
C373 C367 1.491 . S
C373 C372 1.400 . S
C373 C374 1.398 . S
C374 H362 0.950 . S
C374 C373 1.398 . S
C374 C375 1.391 . S
C375 H363 0.950 . S
C375 C371 1.393 . S
C375 C374 1.391 . S
H376 C384 0.950 . S
H377 C389 0.950 . S
H378 C386 0.950 . S
H379 C388 0.950 . S
H380 C390 0.950 . S
H381 C392 0.950 . S
H382 C394 0.950 . S
H383 C395 0.950 . S
C384 H376 0.950 . S
C384 C385 1.386 . S
C384 C386 1.391 . S
C385 C384 1.386 . S
C385 C389 1.393 . S
C386 H378 0.950 . S
C386 C384 1.391 . S
C386 C387 1.400 . S
C387 C386 1.400 . S
C387 C388 1.398 . S
C387 C393 1.491 . S
C388 H379 0.950 . S
C388 C387 1.398 . S
C388 C389 1.391 . S
C389 H377 0.950 . S
C389 C385 1.393 . S
C389 C388 1.391 . S
C390 H380 0.950 . S
C390 C391 1.386 1_554 S
C390 C392 1.391 . S
C391 C390 1.386 1_556 S
C391 C395 1.393 . S
C392 H381 0.950 . S
C392 C390 1.391 . S
C392 C393 1.400 . S
C393 C387 1.491 . S
C393 C392 1.400 . S
C393 C394 1.398 . S
C394 H382 0.950 . S
C394 C393 1.398 . S
C394 C395 1.391 1_554 S
C395 H383 0.950 . S
C395 C391 1.393 . S
C395 C394 1.391 1_556 S
H396 C404 0.950 . S
H397 C409 0.950 . S
H398 C406 0.950 . S
H399 C408 0.950 . S
H400 C410 0.950 . S
H401 C412 0.950 . S
H402 C414 0.950 . S
H403 C415 0.950 . S
C404 H396 0.950 . S
C404 C405 1.386 . S
C404 C406 1.391 . S
C405 C404 1.386 . S
C405 C409 1.393 1_655 S
C406 H398 0.950 . S
C406 C404 1.391 . S
C406 C407 1.420 . S
C407 C406 1.420 . S
C407 C408 1.381 1_655 S
C407 C413 1.489 . S
C408 H399 0.950 . S
C408 C407 1.381 1_455 S
C408 C409 1.391 . S
C409 H397 0.950 . S
C409 C405 1.393 1_455 S
C409 C408 1.391 . S
C410 H400 0.950 . S
C410 C411 1.396 . S
C410 C412 1.391 1_556 S
C411 C410 1.396 . S
C411 C415 1.383 1_456 S
C412 H401 0.950 . S
C412 C410 1.391 1_554 S
C412 C413 1.402 1_455 S
C413 C407 1.489 . S
C413 C412 1.402 1_655 S
C413 C414 1.396 . S
C414 H402 0.950 . S
C414 C413 1.396 . S
C414 C415 1.391 . S
C415 H403 0.950 . S
C415 C411 1.383 1_654 S
C415 C414 1.391 . S
H416 C424 0.950 . S
H417 C429 0.950 . S
H418 C426 0.950 . S
H419 C428 0.950 . S
H420 C430 0.950 . S
H421 C432 0.950 . S
H422 C434 0.950 . S
H423 C435 0.950 . S
C424 H416 0.950 . S
C424 C425 1.386 1_655 S
C424 C426 1.391 . S
C425 C424 1.386 1_455 S
C425 C429 1.393 . S
C426 H418 0.950 . S
C426 C424 1.391 . S
C426 C427 1.400 . S
C427 C426 1.400 . S
C427 C428 1.398 1_655 S
C427 C433 1.491 . S
C428 H419 0.950 . S
C428 C427 1.398 1_455 S
C428 C429 1.391 . S
C429 H417 0.950 . S
C429 C425 1.393 . S
C429 C428 1.391 . S
C430 H420 0.950 . S
C430 C431 1.386 . S
C430 C432 1.391 . S
C431 C430 1.386 . S
C431 C435 1.393 . S
C432 H421 0.950 . S
C432 C430 1.391 . S
C432 C433 1.400 . S
C433 C427 1.491 . S
C433 C432 1.400 . S
C433 C434 1.398 . S
C434 H422 0.950 . S
C434 C433 1.398 . S
C434 C435 1.391 . S
C435 H423 0.950 . S
C435 C431 1.393 . S
C435 C434 1.391 . S
H436 C444 0.950 . S
H437 C449 0.950 . S
H438 C446 0.950 . S
H439 C448 0.950 . S
H440 C450 0.950 . S
H441 C452 0.950 . S
H442 C454 0.950 . S
H443 C455 0.950 . S
C444 H436 0.950 . S
C444 C445 1.386 . S
C444 C446 1.391 . S
C445 C444 1.386 . S
C445 C449 1.393 1_545 S
C446 H438 0.950 . S
C446 C444 1.391 . S
C446 C447 1.400 1_545 S
C447 C446 1.400 1_565 S
C447 C448 1.398 . S
C447 C453 1.491 . S
C448 H439 0.950 . S
C448 C447 1.398 . S
C448 C449 1.391 . S
C449 H437 0.950 . S
C449 C445 1.393 1_565 S
C449 C448 1.391 . S
C450 H440 0.950 . S
C450 C451 1.386 . S
C450 C452 1.391 . S
C451 C450 1.386 . S
C451 C455 1.393 . S
C452 H441 0.950 . S
C452 C450 1.391 . S
C452 C453 1.400 . S
C453 C447 1.491 . S
C453 C452 1.400 . S
C453 C454 1.398 . S
C454 H442 0.950 . S
C454 C453 1.398 . S
C454 C455 1.391 . S
C455 H443 0.950 . S
C455 C451 1.393 . S
C455 C454 1.391 . S
H456 C464 0.950 . S
H457 C469 0.950 . S
H458 C466 0.950 . S
H459 C468 0.950 . S
H460 C470 0.950 . S
H461 C472 0.950 . S
H462 C474 0.950 . S
H463 C475 0.950 . S
C464 H456 0.950 . S
C464 C465 1.386 . S
C464 C466 1.391 . S
C465 C464 1.386 . S
C465 C469 1.393 . S
C466 H458 0.950 . S
C466 C464 1.391 . S
C466 C467 1.400 . S
C467 C466 1.400 . S
C467 C468 1.398 . S
C467 C473 1.491 . S
C468 H459 0.950 . S
C468 C467 1.398 . S
C468 C469 1.391 . S
C469 H457 0.950 . S
C469 C465 1.393 . S
C469 C468 1.391 . S
C470 H460 0.950 . S
C470 C471 1.386 . S
C470 C472 1.391 . S
C471 C470 1.386 . S
C471 C475 1.393 . S
C472 H461 0.950 . S
C472 C470 1.391 . S
C472 C473 1.400 . S
C473 C467 1.491 . S
C473 C472 1.400 . S
C473 C474 1.398 . S
C474 H462 0.950 . S
C474 C473 1.398 . S
C474 C475 1.391 . S
C475 H463 0.950 . S
C475 C471 1.393 . S
C475 C474 1.391 . S
H476 C484 0.950 . S
H477 C489 0.950 . S
H478 C486 0.950 . S
H479 C488 0.950 . S
H480 C490 0.950 . S
H481 C492 0.950 . S
H482 C494 0.950 . S
H483 C495 0.950 . S
C484 H476 0.950 . S
C484 C485 1.386 . S
C484 C486 1.391 . S
C485 C484 1.386 . S
C485 C489 1.393 . S
C486 H478 0.950 . S
C486 C484 1.391 . S
C486 C487 1.400 . S
C487 C486 1.400 . S
C487 C488 1.398 . S
C487 C493 1.491 . S
C488 H479 0.950 . S
C488 C487 1.398 . S
C488 C489 1.391 . S
C489 H477 0.950 . S
C489 C485 1.393 . S
C489 C488 1.391 . S
C490 H480 0.950 . S
C490 C491 1.386 . S
C490 C492 1.391 . S
C491 C490 1.386 . S
C491 C495 1.393 . S
C492 H481 0.950 . S
C492 C490 1.391 . S
C492 C493 1.400 . S
C493 C487 1.491 . S
C493 C492 1.400 . S
C493 C494 1.398 . S
C494 H482 0.950 . S
C494 C493 1.398 . S
C494 C495 1.391 . S
C495 H483 0.950 . S
C495 C491 1.393 . S
C495 C494 1.391 . S
H496 C504 0.950 . S
H497 C509 0.950 . S
H498 C506 0.950 . S
H499 C508 0.950 . S
H500 C510 0.950 . S
H501 C512 0.950 . S
H502 C514 0.966 . S
H503 C515 0.950 . S
C504 H496 0.950 . S
C504 C505 1.376 1_655 S
C504 C506 1.391 . S
C505 C504 1.376 1_455 S
C505 C509 1.410 . S
C506 H498 0.950 . S
C506 C504 1.391 . S
C506 C507 1.400 1_655 S
C507 C506 1.400 1_455 S
C507 C508 1.398 . S
C507 C513 1.491 . S
C508 H499 0.950 . S
C508 C507 1.398 . S
C508 C509 1.391 . S
C509 H497 0.950 . S
C509 C505 1.410 . S
C509 C508 1.391 . S
C510 H500 0.950 . S
C510 C511 1.386 . S
C510 C512 1.391 . S
C511 C510 1.386 . S
C511 C515 1.393 . S
C512 H501 0.950 . S
C512 C510 1.391 . S
C512 C513 1.400 . S
C513 C507 1.491 . S
C513 C512 1.400 . S
C513 C514 1.398 . S
C514 H502 0.966 . S
C514 C513 1.398 . S
C514 C515 1.391 . S
C515 H503 0.950 . S
C515 C511 1.393 . S
C515 C514 1.391 . S
H516 C524 0.950 . S
H517 C529 0.950 . S
H518 C526 0.950 . S
H519 C528 0.950 . S
H520 C530 0.950 . S
H521 C532 0.950 1_565 S
H522 C534 0.950 . S
H523 C535 0.950 . S
C524 H516 0.950 . S
C524 C525 1.375 1_545 S
C524 C526 1.391 . S
C525 C524 1.375 1_565 S
C525 C529 1.394 . S
C526 H518 0.950 . S
C526 C524 1.391 . S
C526 C527 1.400 . S
C527 C526 1.400 . S
C527 C528 1.398 1_545 S
C527 C533 1.491 . S
C528 H519 0.950 . S
C528 C527 1.398 1_565 S
C528 C529 1.391 . S
C529 H517 0.950 . S
C529 C525 1.394 . S
C529 C528 1.391 . S
C530 H520 0.950 . S
C530 C531 1.386 . S
C530 C532 1.391 . S
C531 C530 1.386 . S
C531 C535 1.393 . S
C532 H521 0.950 1_545 S
C532 C530 1.391 . S
C532 C533 1.400 . S
C533 C527 1.491 . S
C533 C532 1.400 . S
C533 C534 1.398 . S
C534 H522 0.950 . S
C534 C533 1.398 . S
C534 C535 1.391 . S
C535 H523 0.950 . S
C535 C531 1.393 . S
C535 C534 1.391 . S
H536 C544 0.950 . S
H537 C549 0.950 . S
H538 C546 0.950 . S
H539 C548 0.950 . S
H540 C550 0.950 . S
H541 C552 0.950 . S
H542 C554 0.950 . S
H543 C555 0.950 . S
C544 H536 0.950 . S
C544 C545 1.386 . S
C544 C546 1.391 . S
C545 C544 1.386 . S
C545 C549 1.393 . S
C546 H538 0.950 . S
C546 C544 1.391 . S
C546 C547 1.400 . S
C547 C546 1.400 . S
C547 C548 1.398 . S
C547 C553 1.491 . S
C548 H539 0.950 . S
C548 C547 1.398 . S
C548 C549 1.391 . S
C549 H537 0.950 . S
C549 C545 1.393 . S
C549 C548 1.391 . S
C550 H540 0.950 . S
C550 C551 1.386 . S
C550 C552 1.391 . S
C551 C550 1.386 . S
C551 C555 1.393 . S
C552 H541 0.950 . S
C552 C550 1.391 . S
C552 C553 1.400 . S
C553 C547 1.491 . S
C553 C552 1.400 . S
C553 C554 1.398 . S
C554 H542 0.950 . S
C554 C553 1.398 . S
C554 C555 1.391 . S
C555 H543 0.950 . S
C555 C551 1.393 . S
C555 C554 1.391 . S
H556 C564 0.950 . S
H557 C569 0.950 . S
H558 C566 0.950 . S
H559 C568 0.950 . S
H560 C570 0.950 . S
H561 C572 0.950 . S
H562 C574 0.950 . S
H563 C575 0.950 . S
C564 H556 0.950 . S
C564 C565 1.386 . S
C564 C566 1.391 . S
C565 C564 1.386 . S
C565 C569 1.393 . S
C566 H558 0.950 . S
C566 C564 1.391 . S
C566 C567 1.400 . S
C567 C566 1.400 . S
C567 C568 1.398 . S
C567 C573 1.491 . S
C568 H559 0.950 . S
C568 C567 1.398 . S
C568 C569 1.391 . S
C569 H557 0.950 . S
C569 C565 1.393 . S
C569 C568 1.391 . S
C570 H560 0.950 . S
C570 C571 1.386 . S
C570 C572 1.391 . S
C571 C570 1.386 . S
C571 C575 1.393 . S
C572 H561 0.950 . S
C572 C570 1.391 . S
C572 C573 1.400 . S
C573 C567 1.491 . S
C573 C572 1.400 . S
C573 C574 1.398 . S
C574 H562 0.950 . S
C574 C573 1.398 . S
C574 C575 1.391 . S
C575 H563 0.950 . S
C575 C571 1.393 . S
C575 C574 1.391 . S
H576 C584 0.950 . S
H577 C589 0.950 . S
H578 C586 0.950 . S
H579 C588 0.950 1_556 S
H580 C590 0.950 . S
H581 C592 0.950 . S
H582 C594 0.950 1_554 S
H583 C595 0.950 . S
C584 H576 0.950 . S
C584 C585 1.386 . S
C584 C586 1.391 . S
C585 C584 1.386 . S
C585 C589 1.393 1_455 S
C586 H578 0.950 . S
C586 C584 1.391 . S
C586 C587 1.400 . S
C587 C586 1.400 . S
C587 C588 1.398 1_455 S
C587 C593 1.491 1_554 S
C588 H579 0.950 1_554 S
C588 C587 1.398 1_655 S
C588 C589 1.391 . S
C589 H577 0.950 . S
C589 C585 1.393 1_655 S
C589 C588 1.391 . S
C590 H580 0.950 . S
C590 C591 1.386 1_655 S
C590 C592 1.391 . S
C591 C590 1.386 1_455 S
C591 C595 1.393 . S
C592 H581 0.950 . S
C592 C590 1.391 . S
C592 C593 1.400 1_655 S
C593 C587 1.491 1_556 S
C593 C592 1.400 1_455 S
C593 C594 1.398 . S
C594 H582 0.950 1_556 S
C594 C593 1.398 . S
C594 C595 1.391 . S
C595 H583 0.950 . S
C595 C591 1.393 . S
C595 C594 1.391 . S
H596 C604 0.950 . S
H597 C609 0.950 . S
H598 C606 0.950 . S
H599 C608 0.950 . S
H600 C610 0.950 . S
H601 C612 0.950 . S
H602 C614 0.950 . S
H603 C615 0.950 1_554 S
C604 H596 0.950 . S
C604 C605 1.402 . S
C604 C606 1.391 . S
C605 C604 1.402 . S
C605 C609 1.379 1_544 S
C606 H598 0.950 . S
C606 C604 1.391 . S
C606 C607 1.400 1_554 S
C607 C606 1.400 1_556 S
C607 C608 1.398 1_545 S
C607 C613 1.491 . S
C608 H599 0.950 . S
C608 C607 1.398 1_565 S
C608 C609 1.391 . S
C609 H597 0.950 . S
C609 C605 1.379 1_566 S
C609 C608 1.391 . S
C610 H600 0.950 . S
C610 C611 1.386 1_565 S
C610 C612 1.391 . S
C611 C610 1.386 1_545 S
C611 C615 1.393 . S
C612 H601 0.950 . S
C612 C610 1.391 . S
C612 C613 1.400 1_565 S
C613 C607 1.491 . S
C613 C612 1.400 1_545 S
C613 C614 1.398 1_556 S
C614 H602 0.950 . S
C614 C613 1.398 1_554 S
C614 C615 1.391 1_554 S
C615 H603 0.950 1_556 S
C615 C611 1.393 . S
C615 C614 1.391 1_556 S
H616 C624 0.950 . S
H617 C629 0.950 . S
H618 C626 0.950 . S
H619 C628 0.950 . S
H620 C630 0.950 . S
H621 C632 0.950 . S
H622 C634 0.950 . S
H623 C635 0.950 . S
C624 H616 0.950 . S
C624 C625 1.386 . S
C624 C626 1.391 . S
C625 C624 1.386 . S
C625 C629 1.393 . S
C626 H618 0.950 . S
C626 C624 1.391 . S
C626 C627 1.400 . S
C627 C626 1.400 . S
C627 C628 1.398 . S
C627 C633 1.491 . S
C628 H619 0.950 . S
C628 C627 1.398 . S
C628 C629 1.391 . S
C629 H617 0.950 . S
C629 C625 1.393 . S
C629 C628 1.391 . S
C630 H620 0.950 . S
C630 C631 1.386 . S
C630 C632 1.391 . S
C631 C630 1.386 . S
C631 C635 1.393 . S
C632 H621 0.950 . S
C632 C630 1.391 . S
C632 C633 1.400 . S
C633 C627 1.491 . S
C633 C632 1.400 . S
C633 C634 1.398 . S
C634 H622 0.950 . S
C634 C633 1.398 . S
C634 C635 1.391 . S
C635 H623 0.950 . S
C635 C631 1.393 . S
C635 C634 1.391 . S
H636 C644 0.950 . S
H637 C649 0.950 . S
H638 C646 0.950 . S
H639 C648 0.950 . S
H640 C650 0.950 . S
H641 C652 0.950 1_554 S
H642 C654 0.950 . S
H643 C655 0.950 . S
C644 H636 0.950 . S
C644 C645 1.386 1_556 S
C644 C646 1.391 . S
C645 C644 1.386 1_554 S
C645 C649 1.393 . S
C646 H638 0.950 . S
C646 C644 1.391 . S
C646 C647 1.400 . S
C647 C646 1.400 . S
C647 C648 1.398 1_556 S
C647 C653 1.491 . S
C648 H639 0.950 . S
C648 C647 1.398 1_554 S
C648 C649 1.391 . S
C649 H637 0.950 . S
C649 C645 1.393 . S
C649 C648 1.391 . S
C650 H640 0.950 . S
C650 C651 1.386 . S
C650 C652 1.391 . S
C651 C650 1.386 . S
C651 C655 1.393 . S
C652 H641 0.950 1_556 S
C652 C650 1.391 . S
C652 C653 1.400 . S
C653 C647 1.491 . S
C653 C652 1.400 . S
C653 C654 1.398 . S
C654 H642 0.950 . S
C654 C653 1.398 . S
C654 C655 1.391 . S
C655 H643 0.950 . S
C655 C651 1.393 . S
C655 C654 1.391 . S
H656 C664 0.950 . S
H657 C669 0.954 . S
H658 C666 0.950 . S
H659 C668 0.948 1_455 S
H660 C670 0.950 . S
H661 C672 0.950 . S
H662 C674 0.950 . S
H663 C675 0.950 . S
C664 H656 0.950 . S
C664 C665 1.386 . S
C664 C666 1.391 . S
C665 C664 1.386 . S
C665 C669 1.391 1_655 S
C666 H658 0.950 . S
C666 C664 1.391 . S
C666 C667 1.400 . S
C667 C666 1.400 . S
C667 C668 1.398 . S
C667 C673 1.491 . S
C668 H659 0.948 1_655 S
C668 C667 1.398 . S
C668 C669 1.388 1_655 S
C669 H657 0.954 . S
C669 C665 1.391 1_455 S
C669 C668 1.388 1_455 S
C670 H660 0.950 . S
C670 C671 1.386 . S
C670 C672 1.391 . S
C671 C670 1.386 . S
C671 C675 1.393 . S
C672 H661 0.950 . S
C672 C670 1.391 . S
C672 C673 1.400 . S
C673 C667 1.491 . S
C673 C672 1.400 . S
C673 C674 1.398 . S
C674 H662 0.950 . S
C674 C673 1.398 . S
C674 C675 1.391 . S
C675 H663 0.950 . S
C675 C671 1.393 . S
C675 C674 1.391 . S
H676 C684 0.950 . S
H677 C689 0.950 . S
H678 C686 0.950 . S
H679 C688 0.950 . S
H680 C690 0.950 . S
H681 C692 0.950 . S
H682 C694 0.950 . S
H683 C695 0.950 . S
C684 H676 0.950 . S
C684 C685 1.386 . S
C684 C686 1.391 . S
C685 C684 1.386 . S
C685 C689 1.393 1_565 S
C686 H678 0.950 . S
C686 C684 1.391 . S
C686 C687 1.400 . S
C687 C686 1.400 . S
C687 C688 1.398 1_565 S
C687 C693 1.491 . S
C688 H679 0.950 . S
C688 C687 1.398 1_545 S
C688 C689 1.391 . S
C689 H677 0.950 . S
C689 C685 1.393 1_545 S
C689 C688 1.391 . S
C690 H680 0.950 . S
C690 C691 1.386 1_545 S
C690 C692 1.391 . S
C691 C690 1.386 1_565 S
C691 C695 1.393 . S
C692 H681 0.950 . S
C692 C690 1.391 . S
C692 C693 1.400 1_545 S
C693 C687 1.491 . S
C693 C692 1.400 1_565 S
C693 C694 1.398 . S
C694 H682 0.950 . S
C694 C693 1.398 . S
C694 C695 1.391 . S
C695 H683 0.950 . S
C695 C691 1.393 . S
C695 C694 1.391 . S
H696 C704 0.950 . S
H697 C709 0.950 . S
H698 C706 0.950 . S
H699 C708 0.950 . S
H700 C710 0.950 . S
H701 C712 0.950 . S
H702 C714 0.950 . S
H703 C715 0.950 . S
C704 H696 0.950 . S
C704 C705 1.386 . S
C704 C706 1.391 . S
C705 C704 1.386 . S
C705 C709 1.393 . S
C706 H698 0.950 . S
C706 C704 1.391 . S
C706 C707 1.400 . S
C707 C706 1.400 . S
C707 C708 1.398 . S
C707 C713 1.491 . S
C708 H699 0.950 . S
C708 C707 1.398 . S
C708 C709 1.391 . S
C709 H697 0.950 . S
C709 C705 1.393 . S
C709 C708 1.391 . S
C710 H700 0.950 . S
C710 C711 1.386 . S
C710 C712 1.391 . S
C711 C710 1.386 . S
C711 C715 1.393 . S
C712 H701 0.950 . S
C712 C710 1.391 . S
C712 C713 1.400 . S
C713 C707 1.491 . S
C713 C712 1.400 . S
C713 C714 1.398 . S
C714 H702 0.950 . S
C714 C713 1.398 . S
C714 C715 1.391 . S
C715 H703 0.950 . S
C715 C711 1.393 . S
C715 C714 1.391 . S
H716 C724 0.950 . S
H717 C729 0.950 . S
H718 C726 0.950 . S
H719 C728 0.950 . S
H720 C730 0.950 . S
H721 C732 0.950 . S
H722 C734 0.950 . S
H723 C735 0.950 . S
C724 H716 0.950 . S
C724 C725 1.386 . S
C724 C726 1.391 . S
C725 C724 1.386 . S
C725 C729 1.393 . S
C726 H718 0.950 . S
C726 C724 1.391 . S
C726 C727 1.400 . S
C727 C726 1.400 . S
C727 C728 1.398 . S
C727 C733 1.491 . S
C728 H719 0.950 . S
C728 C727 1.398 . S
C728 C729 1.391 . S
C729 H717 0.950 . S
C729 C725 1.393 . S
C729 C728 1.391 . S
C730 H720 0.950 . S
C730 C731 1.386 . S
C730 C732 1.391 . S
C731 C730 1.386 . S
C731 C735 1.393 . S
C732 H721 0.950 . S
C732 C730 1.391 . S
C732 C733 1.400 . S
C733 C727 1.491 . S
C733 C732 1.400 . S
C733 C734 1.398 . S
C734 H722 0.950 . S
C734 C733 1.398 . S
C734 C735 1.391 . S
C735 H723 0.950 . S
C735 C731 1.393 . S
C735 C734 1.391 . S
C265 C76 1.882 1_545 S
C271 C119 2.018 1_545 S
C291 C159 1.726 . S
C285 C88 1.731 . S
C311 C178 2.027 . S
C305 C52 1.855 . S
C331 C239 1.435 1_455 S
C325 C64 1.336 . S
C351 C98 2.021 1_565 S
C345 C28 1.857 1_545 S
C365 C40 1.737 . S
C371 C138 1.739 . S
C385 C4 1.885 . S
C391 C199 2.020 . S
C405 C16 1.323 . S
C411 C218 1.425 . S
C431 C100 0.866 . S
C425 C69 0.851 . S
C451 C140 0.389 . S
C445 C81 0.400 . S
C471 C196 0.918 . S
C465 C93 0.840 . S
C485 C57 0.397 . S
C491 C220 0.412 . S
C505 C21 0.829 1_455 S
C511 C121 0.830 . S
C531 C161 0.331 . S
C525 C33 0.394 1_565 S
C551 C207 0.925 . S
C545 C45 0.901 . S
C565 C9 0.472 . S
C571 C241 0.460 . S
C585 C66 1.447 . S
C591 C116 1.606 . S
C605 C78 2.147 . S
C611 C156 2.363 . S
C631 C180 1.525 . S
C625 C90 1.508 . S
C651 C236 2.348 . S
C645 C54 2.163 . S
C665 C18 1.467 1_655 S
C671 C127 1.622 . S
C691 C167 2.362 . S
C685 C30 2.172 1_565 S
C711 C201 1.525 . S
C705 C42 1.512 . S
C725 C6 2.162 . S
C731 C247 2.351 . S
