# Generated by pormake.
# Topology pth, (4,4)-cn, num edge types: 1
# Building blocks:
#     Node 0, Type 0, BuildingBlock: TATPOV_clean_sbu_0, # of connection points: 4
#     Node 1, Type 0, BuildingBlock: TATPOV_clean_sbu_0, # of connection points: 4
#     Node 2, Type 0, BuildingBlock: TATPOV_clean_sbu_0, # of connection points: 4
#     Node 3, Type 1, BuildingBlock: NAWXER_clean_linker_0, # of connection points: 4
#     Node 4, Type 1, BuildingBlock: NAWXER_clean_linker_0, # of connection points: 4
#     Node 5, Type 1, BuildingBlock: NAWXER_clean_linker_0, # of connection points: 4
#     Edge 6, Type (0, 1), BuildingBlock: AJUNOK_clean_linker_0, # of connection points: 2
#     Edge 7, Type (0, 1), BuildingBlock: AJUNOK_clean_linker_0, # of connection points: 2
#     Edge 8, Type (0, 1), BuildingBlock: AJUNOK_clean_linker_0, # of connection points: 2
#     Edge 9, Type (0, 1), BuildingBlock: AJUNOK_clean_linker_0, # of connection points: 2
#     Edge 10, Type (0, 1), BuildingBlock: AJUNOK_clean_linker_0, # of connection points: 2
#     Edge 11, Type (0, 1), BuildingBlock: AJUNOK_clean_linker_0, # of connection points: 2
#     Edge 12, Type (0, 1), BuildingBlock: AJUNOK_clean_linker_0, # of connection points: 2
#     Edge 13, Type (0, 1), BuildingBlock: AJUNOK_clean_linker_0, # of connection points: 2
#     Edge 14, Type (0, 1), BuildingBlock: AJUNOK_clean_linker_0, # of connection points: 2
#     Edge 15, Type (0, 1), BuildingBlock: AJUNOK_clean_linker_0, # of connection points: 2
#     Edge 16, Type (0, 1), BuildingBlock: AJUNOK_clean_linker_0, # of connection points: 2
#     Edge 17, Type (0, 1), BuildingBlock: AJUNOK_clean_linker_0, # of connection points: 2
# Relax obj value: 0.037
# Max RMSD: 0.162
# Mean RMSD: 0.080
data_MOF--net-pth--node1-TATPOV_clean_sbu_0--node2-NAWXER_clean_linker_0--edge1-AJUNOK_clean_linker_0
_symmetry_space_group_name_H-M    P1
_symmetry_Int_Tables_number       1
_symmetry_cell_setting            triclinic
loop_
_symmetry_equiv_pos_as_xyz
'x, y, z'
_cell_length_a     22.833529
_cell_length_b     22.779199
_cell_length_c     49.871763
_cell_angle_alpha  92.692854
_cell_angle_beta   92.192458
_cell_angle_gamma 120.77552
loop_
_atom_site_label
_atom_site_type_symbol
_atom_site_fract_x
_atom_site_fract_y
_atom_site_fract_z
_atom_type_partial_charge
Zn0 Zn 0.1293 0.98844 0.02142 0.0
Zn1 Zn 0.08264 0.05359 0.05132 0.0
O2 O 0.08768 0.98725 0.07721 0.0
O3 O 0.12224 0.9308 0.05186 0.0
O4 O 0.05671 0.11262 0.07339 0.0
O5 O 0.21568 0.07471 0.01481 0.0
O6 O 0.16941 0.12718 0.03501 0.0
C7 C 0.10232 0.94038 0.0741 0.0
C8 C -0.00028 0.96884 1.00064 0.0
O9 O 0.0039 0.00264 0.02244 0.0
O10 O 0.04712 0.95764 0.99535 0.0
C11 C 0.0386 0.10493 0.09737 0.0
O12 O 0.03435 0.05347 0.10978 0.0
C13 C 0.2169 0.12951 0.02163 0.0
Zn14 Zn 0.1799 0.13499 0.35754 0.0
Zn15 Zn 0.06695 0.07891 0.38443 0.0
O16 O 0.14834 0.10015 0.41108 0.0
O17 O 0.24295 0.15922 0.39071 0.0
O18 O 0.98693 0.05237 0.40759 0.0
O19 O 0.15922 0.20134 0.34131 0.0
O20 O 0.06638 0.15454 0.36354 0.0
C21 C 0.21337 0.13237 0.41153 0.0
C22 C 0.07849 0.99058 0.34119 0.0
O23 O 0.04168 -0.00409 0.35858 0.0
O24 O 0.13768 0.04088 0.33818 0.0
C25 C 0.99211 0.05539 0.4332 0.0
O26 O 0.05092 0.07203 0.4456 0.0
C27 C 0.10382 0.19709 0.34711 0.0
Zn28 Zn 0.09779 0.91278 0.73722 0.0
Zn29 Zn 0.03986 0.97658 0.71438 0.0
O30 O 0.09606 0.96539 0.68537 0.0
O31 O 0.13464 0.90299 0.70217 0.0
O32 O 0.98133 0.00478 0.69414 0.0
O33 O 0.00894 0.83784 0.75003 0.0
O34 O 0.96538 0.89468 0.73232 0.0
C35 C 0.13025 0.93561 0.68308 0.0
C36 C 0.14704 0.05503 0.75909 0.0
O37 O 0.10287 0.05391 0.74233 0.0
O38 O 0.15354 0.00308 0.76034 0.0
C39 C -0.00073 0.04929 0.67695 0.0
O40 O 0.06394 0.08572 0.67195 0.0
C41 C 0.95829 0.84531 0.74556 0.0
C42 C 0.95922 0.30543 0.25949 0.0
C43 C 0.00397 0.33644 0.28264 0.0
C44 C 0.94633 0.34523 0.2424 0.0
C45 C 0.9803 0.41676 0.24783 0.0
C46 C 0.03477 0.40695 0.28884 0.0
C47 C 0.02326 0.44676 0.27157 0.0
C48 C 0.97269 0.46244 0.22966 0.0
C49 C 0.04388 0.34567 0.17856 0.0
C50 C -0.00185 0.30694 0.15635 0.0
C51 C 0.03687 0.39535 0.19315 0.0
C52 C 0.9829 0.40591 0.18621 0.0
C53 C 0.94499 0.31848 0.1491 0.0
C54 C 0.93766 0.36781 0.16384 0.0
C55 C 0.97525 0.4587 0.20137 0.0
C56 C 0.06468 0.74379 0.1755 0.0
C57 C 0.02838 0.7321 0.15056 0.0
C58 C 0.0476 0.68981 0.1918 0.0
C59 C 0.9929 0.62339 0.18375 0.0
C60 C 0.97406 0.66566 0.14241 0.0
C61 C 0.95656 0.61179 0.15884 0.0
C62 C 0.97797 0.56495 0.19992 0.0
C63 C 0.94955 0.71314 0.2535 0.0
C64 C -0.00317 0.7398 0.27607 0.0
C65 C 0.94052 0.65622 0.23769 0.0
C66 C 0.97895 0.62591 0.24437 0.0
C67 C 0.0332 0.7079 0.28313 0.0
C68 C 0.02415 0.6514 0.26752 0.0
C69 C 0.97322 0.56724 0.22804 0.0
H70 H 0.93511 0.25078 0.2545 0.0
H71 H 0.91098 0.32033 0.22484 0.0
H72 H 0.06985 0.43162 0.30653 0.0
H73 H 0.0498 0.50164 0.27645 0.0
H74 H 0.08574 0.33827 0.18434 0.0
H75 H 0.0737 0.42563 0.20982 0.0
H76 H 0.90876 0.28892 0.13217 0.0
H77 H 0.89623 0.37579 0.15795 0.0
H78 H 0.10787 0.79411 0.18191 0.0
H79 H 0.07858 0.69973 0.21033 0.0
H80 H 0.94556 0.65533 0.12317 0.0
H81 H 0.91506 0.56086 0.15198 0.0
H82 H 0.92129 0.73746 0.24771 0.0
H83 H 0.90435 0.63645 0.2202 0.0
H84 H 0.06972 0.72761 0.30053 0.0
H85 H 0.05405 0.62868 0.27319 0.0
N86 N 0.97107 0.51616 0.24159 0.0
N87 N 0.97737 0.50996 0.1876 0.0
C88 C 0.79474 0.10056 0.51482 0.0
C89 C 0.77624 0.05045 0.49343 0.0
C90 C 0.74464 0.10328 0.52912 0.0
C91 C 0.6751 0.05551 0.52247 0.0
C92 C 0.70661 0.00427 0.48619 0.0
C93 C 0.6565 0.00688 0.50057 0.0
C94 C 0.62134 0.05576 0.53808 0.0
C95 C 0.74332 0.00218 0.59432 0.0
C96 C 0.78446 0.0571 0.61343 0.0
C97 C 0.69007 0.00101 0.57905 0.0
C98 C 0.67679 0.05445 0.58289 0.0
C99 C 0.77084 0.11029 0.61737 0.0
C100 C 0.71691 0.1086 0.60238 0.0
C101 C 0.62178 0.05462 0.56641 0.0
C102 C 0.33229 0.96199 0.58461 0.0
C103 C 0.33815 0.00189 0.60796 0.0
C104 C 0.38968 0.9788 0.57037 0.0
C105 C 0.454 0.03519 0.57948 0.0
C106 C 0.40223 0.05879 0.61692 0.0
C107 C 0.45995 0.07486 0.60294 0.0
C108 C 0.5151 0.04992 0.56519 0.0
C109 C 0.41218 0.1323 0.51425 0.0
C110 C 0.37872 0.09195 0.4903 0.0
C111 C 0.45594 0.11944 0.52985 0.0
C112 C 0.46736 0.06649 0.52156 0.0
C113 C 0.3892 0.03834 0.4822 0.0
C114 C 0.43392 0.02623 0.49757 0.0
C115 C 0.51712 0.05605 0.5372 0.0
H116 H 0.84799 0.1381 0.52031 0.0
H117 H 0.76027 0.14279 0.54535 0.0
H118 H 0.69099 0.96542 0.46969 0.0
H119 H 0.60314 0.96997 0.49491 0.0
H120 H 0.75284 0.96051 0.59106 0.0
H121 H 0.65926 0.95851 0.56424 0.0
H122 H 0.80145 0.15267 0.63225 0.0
H123 H 0.7072 0.15014 0.60565 0.0
H124 H 0.28343 0.91759 0.57753 0.0
H125 H 0.38416 0.94672 0.55257 0.0
H126 H 0.40786 0.08965 0.63513 0.0
H127 H 0.50917 0.11816 0.6104 0.0
H128 H 0.40489 0.17406 0.52072 0.0
H129 H 0.48221 0.15196 0.54806 0.0
H130 H 0.36413 0.00705 0.46362 0.0
H131 H 0.44245 0.98551 0.49075 0.0
N132 N 0.56932 0.05722 0.52453 0.0
N133 N 0.5682 0.05087 0.57893 0.0
C134 C 0.36004 0.30054 0.85211 0.0
C135 C 0.32313 0.30138 0.82905 0.0
C136 C 0.40743 0.3616 0.86685 0.0
C137 C 0.41694 0.42442 0.85939 0.0
C138 C 0.33193 0.36415 0.82188 0.0
C139 C 0.37856 0.42509 0.83687 0.0
C140 C 0.47199 0.49012 0.87274 0.0
C141 C 0.33919 0.36983 0.93846 0.0
C142 C 0.37677 0.35982 0.95888 0.0
C143 C 0.37288 0.41787 0.91963 0.0
C144 C 0.4446 0.45598 0.9209 0.0
C145 C 0.44825 0.4004 0.96083 0.0
C146 C 0.48176 0.44789 0.94203 0.0
C147 C 0.48307 0.50526 0.90092 0.0
C148 C 0.72338 0.79884 0.91182 0.0
C149 C 0.75125 0.7933 0.93648 0.0
C150 C 0.66763 0.74074 0.89816 0.0
C151 C 0.6408 0.67628 0.90866 0.0
C152 C 0.72281 0.7296 0.94737 0.0
C153 C 0.66838 0.67171 0.93358 0.0
C154 C 0.58277 0.61301 0.89484 0.0
C155 C 0.74575 0.68478 0.83628 0.0
C156 C 0.72801 0.69658 0.81064 0.0
C157 C 0.69622 0.65314 0.85466 0.0
C158 C 0.62804 0.6341 0.8481 0.0
C159 C 0.65946 0.67589 0.8038 0.0
C160 C 0.60997 0.64492 0.82237 0.0
C161 C 0.57446 0.59592 0.86678 0.0
H162 H 0.35343 0.25278 0.85842 0.0
H163 H 0.43798 0.35971 0.88356 0.0
H164 H 0.30457 0.36643 0.80411 0.0
H165 H 0.38588 0.47309 0.8305 0.0
H166 H 0.28387 0.33928 0.93666 0.0
H167 H 0.34308 0.42457 0.90398 0.0
H168 H 0.47832 0.3948 0.97672 0.0
H169 H 0.53714 0.47735 0.94368 0.0
H170 H 0.7448 0.84785 0.90319 0.0
H171 H 0.64589 0.74622 0.87944 0.0
H172 H 0.74418 0.72421 0.96623 0.0
H173 H 0.64867 0.62291 0.94227 0.0
H174 H 0.79809 0.69999 0.84214 0.0
H175 H 0.71121 0.64254 0.87385 0.0
H176 H 0.64385 0.6826 0.78396 0.0
H177 H 0.55738 0.62886 0.81655 0.0
N178 N 0.51836 0.53601 0.85685 0.0
N179 N 0.53721 0.56647 0.91062 0.0
C180 C 0.02052 0.15542 0.13974 0.0
C181 C 0.02582 0.15559 0.11168 0.0
C182 C 0.01144 0.2044 0.154 0.0
C183 C 0.00643 0.25492 0.14073 0.0
H184 H 0.02442 0.11779 0.15093 0.0
H185 H 0.00806 0.20259 0.17558 0.0
S186 S 0.01662 0.27825 0.06764 0.0
N187 N 0.02489 0.21109 0.0712 0.0
N188 N 0.0077 0.30278 0.09812 0.0
C189 C 0.01085 0.25543 0.11272 0.0
C190 C 0.02062 0.20594 0.09818 0.0
C191 C 0.87804 0.04583 0.43568 0.0
C192 C 0.93495 0.04813 0.44888 0.0
C193 C 0.82634 0.04527 0.45017 0.0
C194 C 0.82953 0.04713 0.47843 0.0
H195 H 0.87408 0.04625 0.41398 0.0
H196 H 0.78447 0.04529 0.4392 0.0
S197 S 0.96311 0.04581 0.52264 0.0
N198 N 0.98832 0.04705 0.49197 0.0
N199 N 0.89089 0.04569 0.51902 0.0
C200 C 0.88463 0.04691 0.49186 0.0
C201 C 0.93729 0.04739 0.47715 0.0
C202 C 0.8846 0.74519 0.77184 0.0
C203 C 0.89385 0.80235 0.75866 0.0
C204 C 0.82952 0.70987 0.78779 0.0
C205 C 0.7815 0.73035 0.79132 0.0
H206 H 0.92127 0.72862 0.77048 0.0
H207 H 0.82527 0.66692 0.79789 0.0
S208 S 0.78036 0.87482 0.76043 0.0
N209 N 0.84788 0.8757 0.74925 0.0
N210 N 0.7455 0.81014 0.77974 0.0
C211 C 0.78848 0.78569 0.77748 0.0
C212 C 0.84431 0.82145 0.76104 0.0
C213 C 0.08291 0.82795 0.08759 0.0
C214 C 0.08874 0.89133 0.09501 0.0
C215 C 0.06354 0.77717 0.10572 0.0
C216 C 0.04994 0.78777 0.13215 0.0
H217 H 0.09157 0.8164 0.06733 0.0
H218 H 0.0591 0.72905 0.09896 0.0
S219 S 0.06085 0.9452 0.16241 0.0
N220 N 0.08161 0.96247 0.13118 0.0
N221 N 0.0454 0.86665 0.16532 0.0
C222 C 0.05731 0.85131 0.14022 0.0
C223 C 0.07654 0.90309 0.12163 0.0
C224 C 0.22499 0.07037 0.44935 0.0
C225 C 0.25373 0.12906 0.43468 0.0
C226 C 0.26543 0.05943 0.46794 0.0
C227 C 0.33546 0.10757 0.47292 0.0
H228 H 0.17175 0.03073 0.44539 0.0
H229 H 0.24223 0.0123 0.478 0.0
S230 S 0.43402 0.27246 0.44196 0.0
N231 N 0.3557 0.23782 0.42776 0.0
N232 N 0.43112 0.21782 0.46328 0.0
C233 C 0.36402 0.16811 0.4596 0.0
C234 C 0.32326 0.17875 0.44032 0.0
C235 C 0.1706 0.16296 0.78477 0.0
C236 C 0.19224 0.11733 0.77697 0.0
C237 C 0.2128 0.22193 0.8019 0.0
C238 C 0.27832 0.23765 0.81164 0.0
H239 H 0.12043 0.15264 0.77785 0.0
H240 H 0.19383 0.25529 0.80769 0.0
S241 S 0.36158 0.13831 0.79494 0.0
N242 N 0.28482 0.09371 0.77912 0.0
N243 N 0.36459 0.2053 0.81063 0.0
C244 C 0.30103 0.19312 0.80352 0.0
C245 C 0.25789 0.13283 0.78635 0.0
C246 C 0.87686 0.00206 0.66136 0.0
C247 C 0.9459 0.05462 0.66114 0.0
C248 C 0.82519 0.00331 0.64581 0.0
C249 C 0.84024 0.05763 0.62977 0.0
H250 H 0.86245 0.95878 0.6733 0.0
H251 H 0.7729 0.96155 0.64644 0.0
S252 S 0.01161 0.20817 0.62201 0.0
N253 N 0.02605 0.16284 0.64332 0.0
N254 N 0.92824 0.16531 0.61442 0.0
C255 C 0.90854 0.11096 0.62951 0.0
C256 C 0.96152 0.10937 0.64509 0.0
C257 C 0.87344 0.9142 0.99314 0.0
C258 C 0.93704 0.93693 0.98246 0.0
C259 C 0.81248 0.87152 0.97738 0.0
C260 C 0.81335 0.85162 0.95036 0.0
H261 H 0.87065 0.92538 0.01425 0.0
H262 H 0.76446 0.85084 0.98676 0.0
S263 S 0.96604 0.90577 0.91183 0.0
N264 N -0.00292 0.94279 0.94244 0.0
N265 N 0.88208 0.86305 0.91282 0.0
C266 C 0.87624 0.87865 0.93885 0.0
C267 C 0.93833 0.92124 0.95493 0.0
C268 C 0.10138 0.91831 0.30955 0.0
C269 C 0.05401 0.9261 0.32425 0.0
C270 C 0.08156 0.85846 0.29352 0.0
C271 C 0.01353 0.80404 0.29134 0.0
H272 H 0.15477 0.95837 0.31067 0.0
H273 H 0.12005 0.85438 0.28291 0.0
S274 S 0.86865 0.79828 0.3246 0.0
N275 N 0.93507 0.87429 0.3349 0.0
N276 N 0.89803 0.76114 0.30443 0.0
C277 C 0.96502 0.81108 0.30529 0.0
C278 C 0.98526 0.8722 0.3219 0.0
C279 C 0.1977 0.9029 0.65413 0.0
C280 C 0.17385 0.94772 0.66024 0.0
C281 C 0.24869 0.91939 0.63614 0.0
C282 C 0.27847 0.98179 0.624 0.0
H283 H 0.17849 0.85575 0.66402 0.0
H284 H 0.26717 0.88453 0.63265 0.0
S285 S 0.23123 0.11456 0.63131 0.0
N286 N 0.18105 0.05525 0.65099 0.0
N287 N 0.27794 0.08641 0.61764 0.0
C288 C 0.25335 0.0257 0.62893 0.0
C289 C 0.20059 0.00852 0.64687 0.0
C290 C 0.24995 0.2455 0.00724 0.0
C291 C 0.26578 0.19367 0.00973 0.0
C292 C 0.28697 0.29997 0.99121 0.0
C293 C 0.34172 0.30513 0.97742 0.0
H294 H 0.20644 0.24228 0.01657 0.0
H295 H 0.2718 0.33759 0.98916 0.0
S296 S 0.40788 0.18659 0.97905 0.0
N297 N 0.3433 0.15402 0.99851 0.0
N298 N 0.41246 0.25618 0.96832 0.0
C299 C 0.36037 0.25577 0.98081 0.0
C300 C 0.32258 0.20017 0.99701 0.0
C301 C 0.09927 0.25133 0.30559 0.0
C302 C 0.07827 0.2343 0.33173 0.0
C303 C 0.07266 0.28199 0.28947 0.0
C304 C 0.02486 0.29748 0.29904 0.0
H305 H 0.13575 0.23985 0.29726 0.0
H306 H 0.09049 0.29483 0.26954 0.0
S307 S 0.95411 0.26543 0.36592 0.0
N308 N 0.00656 0.23555 0.36636 0.0
N309 N 0.95813 0.29542 0.33608 0.0
C310 C 0.00368 0.28157 0.32509 0.0
C311 C 0.02993 0.24926 0.34143 0.0
loop_
_geom_bond_atom_site_label_1
_geom_bond_atom_site_label_2
_geom_bond_distance
_geom_bond_site_symmetry_2
_ccdc_geom_bond_type
Zn0 O3 2.031 . S
Zn0 O5 2.049 1_564 S
Zn0 O10 2.067 . S
Zn1 O2 1.962 . S
Zn1 O4 1.986 . S
Zn1 O6 1.996 . S
Zn1 O9 1.943 . S
O2 Zn1 1.962 . S
O2 C7 1.254 1_545 S
O3 Zn0 2.031 . S
O3 C7 1.269 . S
O4 Zn1 1.986 . S
O4 C11 1.262 . S
O5 Zn0 2.049 1_546 S
O5 C13 1.260 1_556 S
O6 Zn1 1.996 . S
O6 C13 1.257 . S
C7 O2 1.254 1_565 S
C7 O3 1.269 . S
C8 O9 1.249 1_665 S
C8 O10 1.270 1_655 S
O9 Zn1 1.943 . S
O9 C8 1.249 1_445 S
O10 Zn0 2.067 . S
O10 C8 1.270 1_455 S
C11 O4 1.262 . S
C11 O12 1.232 . S
O12 C11 1.232 . S
C13 O5 1.260 1_554 S
C13 O6 1.257 . S
Zn14 O17 2.031 . S
Zn14 O19 2.049 . S
Zn14 O24 2.067 . S
Zn15 O16 1.962 . S
Zn15 O18 1.986 1_455 S
Zn15 O20 1.996 . S
Zn15 O23 1.943 1_445 S
O16 Zn15 1.962 . S
O16 C21 1.254 . S
O17 Zn14 2.031 . S
O17 C21 1.269 . S
O18 Zn15 1.986 1_655 S
O18 C25 1.262 . S
O19 Zn14 2.049 . S
O19 C27 1.260 . S
O20 Zn15 1.996 . S
O20 C27 1.257 . S
C21 O16 1.254 . S
C21 O17 1.269 . S
C22 O23 1.249 1_455 S
C22 O24 1.270 1_565 S
O23 Zn15 1.943 1_665 S
O23 C22 1.249 1_655 S
O24 Zn14 2.067 . S
O24 C22 1.270 1_545 S
C25 O18 1.262 . S
C25 O26 1.232 . S
O26 C25 1.232 . S
C27 O19 1.260 . S
C27 O20 1.257 . S
Zn28 O31 2.031 1_565 S
Zn28 O33 2.049 . S
Zn28 O38 2.067 1_565 S
Zn29 O30 1.962 1_545 S
Zn29 O32 1.987 1_445 S
Zn29 O34 1.996 1_445 S
Zn29 O37 1.943 . S
O30 Zn29 1.962 1_565 S
O30 C35 1.251 . S
O31 Zn28 2.031 1_545 S
O31 C35 1.269 1_545 S
O32 Zn29 1.987 1_665 S
O32 C39 1.260 1_565 S
O33 Zn28 2.049 . S
O33 C41 1.260 1_455 S
O34 Zn29 1.996 1_665 S
O34 C41 1.257 . S
C35 O30 1.251 . S
C35 O31 1.269 1_565 S
C36 O37 1.249 . S
C36 O38 1.270 . S
O37 Zn29 1.943 . S
O37 C36 1.249 . S
O38 Zn28 2.067 1_545 S
O38 C36 1.270 . S
C39 O32 1.260 1_545 S
C39 O40 1.232 1_655 S
O40 C39 1.232 1_455 S
C41 O33 1.260 1_655 S
C41 O34 1.257 . S
C42 C43 1.384 . S
C42 C44 1.384 . S
C42 H70 0.931 1_455 S
C43 C42 1.384 . S
C43 C46 1.382 . S
C44 C42 1.384 . S
C44 C45 1.381 . S
C44 H71 0.930 1_455 S
C45 C44 1.381 . S
C45 C47 1.381 . S
C45 C48 1.487 . S
C46 C43 1.382 . S
C46 C47 1.387 . S
C46 H72 0.930 . S
C47 C45 1.381 . S
C47 C46 1.387 . S
C47 H73 0.931 . S
C48 C45 1.487 . S
C48 C55 1.399 . S
C48 N86 1.343 . S
C49 C50 1.384 . S
C49 C51 1.384 . S
C49 H74 0.931 . S
C50 C49 1.384 . S
C50 C53 1.382 . S
C51 C49 1.384 . S
C51 C52 1.381 . S
C51 H75 0.930 . S
C52 C51 1.381 . S
C52 C54 1.381 . S
C52 C55 1.487 . S
C53 C50 1.382 . S
C53 C54 1.387 . S
C53 H76 0.930 1_455 S
C54 C52 1.381 . S
C54 C53 1.387 . S
C54 H77 0.931 1_455 S
C55 C48 1.399 . S
C55 C52 1.487 . S
C55 N87 1.343 . S
C56 C57 1.384 . S
C56 C58 1.384 . S
C56 H78 0.931 . S
C57 C56 1.384 . S
C57 C60 1.382 . S
C58 C56 1.384 . S
C58 C59 1.381 . S
C58 H79 0.930 . S
C59 C58 1.381 . S
C59 C61 1.381 . S
C59 C62 1.487 . S
C60 C57 1.382 . S
C60 C61 1.387 . S
C60 H80 0.930 1_455 S
C61 C59 1.381 . S
C61 C60 1.387 . S
C61 H81 0.931 1_455 S
C62 C59 1.487 . S
C62 C69 1.399 . S
C62 N87 1.343 . S
C63 C64 1.384 . S
C63 C65 1.384 . S
C63 H82 0.931 1_455 S
C64 C63 1.384 . S
C64 C67 1.382 . S
C65 C63 1.384 . S
C65 C66 1.381 . S
C65 H83 0.930 1_455 S
C66 C65 1.381 . S
C66 C68 1.381 . S
C66 C69 1.487 . S
C67 C64 1.382 . S
C67 C68 1.387 . S
C67 H84 0.930 . S
C68 C66 1.381 . S
C68 C67 1.387 . S
C68 H85 0.931 . S
C69 C62 1.399 . S
C69 C66 1.487 . S
C69 N86 1.343 . S
H70 C42 0.931 1_655 S
H71 C44 0.930 1_655 S
H72 C46 0.930 . S
H73 C47 0.931 . S
H74 C49 0.931 . S
H75 C51 0.930 . S
H76 C53 0.930 1_655 S
H77 C54 0.931 1_655 S
H78 C56 0.931 . S
H79 C58 0.930 . S
H80 C60 0.930 1_655 S
H81 C61 0.931 1_655 S
H82 C63 0.931 1_655 S
H83 C65 0.930 1_655 S
H84 C67 0.930 . S
H85 C68 0.931 . S
N86 C48 1.343 . S
N86 C69 1.343 . S
N87 C55 1.343 . S
N87 C62 1.343 . S
C88 C89 1.384 . S
C88 C90 1.384 . S
C88 H116 0.931 . S
C89 C88 1.384 . S
C89 C92 1.382 . S
C90 C88 1.384 . S
C90 C91 1.381 . S
C90 H117 0.930 . S
C91 C90 1.381 . S
C91 C93 1.390 . S
C91 C94 1.487 . S
C92 C89 1.382 . S
C92 C93 1.382 . S
C92 H118 0.930 1_545 S
C93 C91 1.390 . S
C93 C92 1.382 . S
C93 H119 0.929 1_545 S
C94 C91 1.487 . S
C94 C101 1.399 . S
C94 N132 1.343 . S
C95 C96 1.384 1_565 S
C95 C97 1.384 . S
C95 H120 0.931 . S
C96 C95 1.384 1_545 S
C96 C99 1.382 . S
C97 C95 1.384 . S
C97 C98 1.381 1_565 S
C97 H121 0.930 . S
C98 C97 1.381 1_545 S
C98 C100 1.381 . S
C98 C101 1.487 . S
C99 C96 1.382 . S
C99 C100 1.387 . S
C99 H122 0.930 . S
C100 C98 1.381 . S
C100 C99 1.387 . S
C100 H123 0.931 . S
C101 C94 1.399 . S
C101 C98 1.487 . S
C101 N133 1.343 . S
C102 C103 1.384 1_565 S
C102 C104 1.384 . S
C102 H124 0.931 . S
C103 C102 1.384 1_545 S
C103 C106 1.382 . S
C104 C102 1.384 . S
C104 C105 1.381 1_565 S
C104 H125 0.930 . S
C105 C104 1.381 1_545 S
C105 C107 1.381 . S
C105 C108 1.487 . S
C106 C103 1.382 . S
C106 C107 1.387 . S
C106 H126 0.930 . S
C107 C105 1.381 . S
C107 C106 1.387 . S
C107 H127 0.931 . S
C108 C105 1.487 . S
C108 C115 1.399 . S
C108 N133 1.343 . S
C109 C110 1.384 . S
C109 C111 1.384 . S
C109 H128 0.931 . S
C110 C109 1.384 . S
C110 C113 1.382 . S
C111 C109 1.384 . S
C111 C112 1.381 . S
C111 H129 0.930 . S
C112 C111 1.381 . S
C112 C114 1.389 . S
C112 C115 1.487 . S
C113 C110 1.382 . S
C113 C114 1.396 . S
C113 H130 0.930 1_545 S
C114 C112 1.389 . S
C114 C113 1.396 . S
C114 H131 0.916 1_545 S
C115 C108 1.399 . S
C115 C112 1.487 . S
C115 N132 1.343 . S
H116 C88 0.931 . S
H117 C90 0.930 . S
H118 C92 0.930 1_565 S
H119 C93 0.929 1_565 S
H120 C95 0.931 . S
H121 C97 0.930 . S
H122 C99 0.930 . S
H123 C100 0.931 . S
H124 C102 0.931 . S
H125 C104 0.930 . S
H126 C106 0.930 . S
H127 C107 0.931 . S
H128 C109 0.931 . S
H129 C111 0.930 . S
H130 C113 0.930 1_565 S
H131 C114 0.916 1_565 S
N132 C94 1.343 . S
N132 C115 1.343 . S
N133 C101 1.343 . S
N133 C108 1.343 . S
C134 C135 1.384 . S
C134 C136 1.384 . S
C134 H162 0.931 . S
C135 C134 1.384 . S
C135 C138 1.382 . S
C136 C134 1.384 . S
C136 C137 1.381 . S
C136 H163 0.930 . S
C137 C136 1.381 . S
C137 C139 1.381 . S
C137 C140 1.487 . S
C138 C135 1.382 . S
C138 C139 1.387 . S
C138 H164 0.930 . S
C139 C137 1.381 . S
C139 C138 1.387 . S
C139 H165 0.931 . S
C140 C137 1.487 . S
C140 C147 1.399 . S
C140 N178 1.343 . S
C141 C142 1.384 . S
C141 C143 1.384 . S
C141 H166 0.931 . S
C142 C141 1.384 . S
C142 C145 1.382 . S
C143 C141 1.384 . S
C143 C144 1.381 . S
C143 H167 0.930 . S
C144 C143 1.381 . S
C144 C146 1.381 . S
C144 C147 1.487 . S
C145 C142 1.382 . S
C145 C146 1.387 . S
C145 H168 0.930 . S
C146 C144 1.381 . S
C146 C145 1.387 . S
C146 H169 0.931 . S
C147 C140 1.399 . S
C147 C144 1.487 . S
C147 N179 1.343 . S
C148 C149 1.384 . S
C148 C150 1.384 . S
C148 H170 0.931 . S
C149 C148 1.384 . S
C149 C152 1.382 . S
C150 C148 1.384 . S
C150 C151 1.381 . S
C150 H171 0.930 . S
C151 C150 1.381 . S
C151 C153 1.381 . S
C151 C154 1.487 . S
C152 C149 1.382 . S
C152 C153 1.387 . S
C152 H172 0.930 . S
C153 C151 1.381 . S
C153 C152 1.387 . S
C153 H173 0.931 . S
C154 C151 1.487 . S
C154 C161 1.399 . S
C154 N179 1.343 . S
C155 C156 1.384 . S
C155 C157 1.384 . S
C155 H174 0.931 . S
C156 C155 1.384 . S
C156 C159 1.382 . S
C157 C155 1.384 . S
C157 C158 1.381 . S
C157 H175 0.930 . S
C158 C157 1.381 . S
C158 C160 1.381 . S
C158 C161 1.487 . S
C159 C156 1.382 . S
C159 C160 1.387 . S
C159 H176 0.930 . S
C160 C158 1.381 . S
C160 C159 1.387 . S
C160 H177 0.931 . S
C161 C154 1.399 . S
C161 C158 1.487 . S
C161 N178 1.343 . S
H162 C134 0.931 . S
H163 C136 0.930 . S
H164 C138 0.930 . S
H165 C139 0.931 . S
H166 C141 0.931 . S
H167 C143 0.930 . S
H168 C145 0.930 . S
H169 C146 0.931 . S
H170 C148 0.931 . S
H171 C150 0.930 . S
H172 C152 0.930 . S
H173 C153 0.931 . S
H174 C155 0.931 . S
H175 C157 0.930 . S
H176 C159 0.930 . S
H177 C160 0.931 . S
N178 C140 1.343 . S
N178 C161 1.343 . S
N179 C147 1.343 . S
N179 C154 1.343 . S
C180 C181 1.369 . S
C180 C182 1.419 . S
C180 H184 0.930 . S
C181 C180 1.369 . S
C181 C190 1.429 . S
C182 C180 1.419 . S
C182 C183 1.363 . S
C182 H185 0.929 . S
C183 C182 1.363 . S
C183 C189 1.428 . S
H184 C180 0.930 . S
H185 C182 0.929 . S
S186 N187 1.613 1_655 S
S186 N188 1.610 1_655 S
N187 S186 1.613 1_455 S
N187 C190 1.350 . S
N188 S186 1.610 1_455 S
N188 C189 1.351 . S
C189 C183 1.428 . S
C189 N188 1.351 . S
C189 C190 1.434 . S
C190 C181 1.429 . S
C190 N187 1.350 . S
C190 C189 1.434 . S
C191 C192 1.369 . S
C191 C193 1.419 . S
C191 H195 0.930 . S
C192 C191 1.369 . S
C192 C201 1.429 . S
C193 C191 1.419 . S
C193 C194 1.363 . S
C193 H196 0.929 . S
C194 C193 1.363 . S
C194 C200 1.428 . S
H195 C191 0.930 . S
H196 C193 0.929 . S
S197 N198 1.613 . S
S197 N199 1.610 . S
N198 S197 1.613 . S
N198 C201 1.350 . S
N199 S197 1.610 . S
N199 C200 1.351 . S
C200 C194 1.428 . S
C200 N199 1.351 . S
C200 C201 1.434 . S
C201 C192 1.429 . S
C201 N198 1.350 . S
C201 C200 1.434 . S
C202 C203 1.369 . S
C202 C204 1.419 . S
C202 H206 0.930 . S
C203 C202 1.369 . S
C203 C212 1.429 . S
C204 C202 1.419 . S
C204 C205 1.363 . S
C204 H207 0.929 . S
C205 C204 1.363 . S
C205 C211 1.428 . S
H206 C202 0.930 . S
H207 C204 0.929 . S
S208 N209 1.613 . S
S208 N210 1.610 . S
N209 S208 1.613 . S
N209 C212 1.350 . S
N210 S208 1.610 . S
N210 C211 1.351 . S
C211 C205 1.428 . S
C211 N210 1.351 . S
C211 C212 1.434 . S
C212 C203 1.429 . S
C212 N209 1.350 . S
C212 C211 1.434 . S
C213 C214 1.369 . S
C213 C215 1.419 . S
C213 H217 0.930 . S
C214 C213 1.369 . S
C214 C223 1.429 . S
C215 C213 1.419 . S
C215 C216 1.363 . S
C215 H218 0.929 . S
C216 C215 1.363 . S
C216 C222 1.428 . S
H217 C213 0.930 . S
H218 C215 0.929 . S
S219 N220 1.613 1_565 S
S219 N221 1.610 . S
N220 S219 1.613 1_545 S
N220 C223 1.350 1_545 S
N221 S219 1.610 . S
N221 C222 1.351 . S
C222 C216 1.428 . S
C222 N221 1.351 . S
C222 C223 1.434 . S
C223 C214 1.429 . S
C223 N220 1.350 1_565 S
C223 C222 1.434 . S
C224 C225 1.369 . S
C224 C226 1.419 . S
C224 H228 0.930 1_545 S
C225 C224 1.369 . S
C225 C234 1.429 . S
C226 C224 1.419 . S
C226 C227 1.363 . S
C226 H229 0.929 1_545 S
C227 C226 1.363 . S
C227 C233 1.428 . S
H228 C224 0.930 1_565 S
H229 C226 0.929 1_565 S
S230 N231 1.613 . S
S230 N232 1.610 . S
N231 S230 1.613 . S
N231 C234 1.350 . S
N232 S230 1.610 . S
N232 C233 1.351 . S
C233 C227 1.428 . S
C233 N232 1.351 . S
C233 C234 1.434 . S
C234 C225 1.429 . S
C234 N231 1.350 . S
C234 C233 1.434 . S
C235 C236 1.369 . S
C235 C237 1.419 . S
C235 H239 0.930 . S
C236 C235 1.369 . S
C236 C245 1.429 . S
C237 C235 1.419 . S
C237 C238 1.363 . S
C237 H240 0.929 . S
C238 C237 1.363 . S
C238 C244 1.428 . S
H239 C235 0.930 . S
H240 C237 0.929 . S
S241 N242 1.613 . S
S241 N243 1.610 . S
N242 S241 1.613 . S
N242 C245 1.350 . S
N243 S241 1.610 . S
N243 C244 1.351 . S
C244 C238 1.428 . S
C244 N243 1.351 . S
C244 C245 1.434 . S
C245 C236 1.429 . S
C245 N242 1.350 . S
C245 C244 1.434 . S
C246 C247 1.369 . S
C246 C248 1.419 1_545 S
C246 H250 0.930 1_545 S
C247 C246 1.369 . S
C247 C256 1.429 . S
C248 C246 1.419 1_565 S
C248 C249 1.363 1_565 S
C248 H251 0.929 . S
C249 C248 1.363 1_545 S
C249 C255 1.428 . S
H250 C246 0.930 1_565 S
H251 C248 0.929 . S
S252 N253 1.613 . S
S252 N254 1.610 . S
N253 S252 1.613 . S
N253 C256 1.350 . S
N254 S252 1.610 . S
N254 C255 1.351 . S
C255 C249 1.428 . S
C255 N254 1.351 . S
C255 C256 1.434 . S
C256 C247 1.429 . S
C256 N253 1.350 . S
C256 C255 1.434 . S
C257 C258 1.369 . S
C257 C259 1.419 1_554 S
C257 H261 0.930 . S
C258 C257 1.369 . S
C258 C267 1.429 1_554 S
C259 C257 1.419 1_556 S
C259 C260 1.363 . S
C259 H262 0.929 1_556 S
C260 C259 1.363 . S
C260 C266 1.428 . S
H261 C257 0.930 . S
H262 C259 0.929 1_554 S
S263 N264 1.613 . S
S263 N265 1.610 . S
N264 S263 1.613 . S
N264 C267 1.350 . S
N265 S263 1.610 . S
N265 C266 1.351 . S
C266 C260 1.428 . S
C266 N265 1.351 . S
C266 C267 1.434 . S
C267 C258 1.429 1_556 S
C267 N264 1.350 . S
C267 C266 1.434 . S
C268 C269 1.369 . S
C268 C270 1.419 . S
C268 H272 0.930 . S
C269 C268 1.369 . S
C269 C278 1.429 1_455 S
C270 C268 1.419 . S
C270 C271 1.363 . S
C270 H273 0.929 . S
C271 C270 1.363 . S
C271 C277 1.428 1_455 S
H272 C268 0.930 . S
H273 C270 0.929 . S
S274 N275 1.613 . S
S274 N276 1.610 . S
N275 S274 1.613 . S
N275 C278 1.350 . S
N276 S274 1.610 . S
N276 C277 1.351 . S
C277 C271 1.428 1_655 S
C277 N276 1.351 . S
C277 C278 1.434 . S
C278 C269 1.429 1_655 S
C278 N275 1.350 . S
C278 C277 1.434 . S
C279 C280 1.369 1_565 S
C279 C281 1.419 . S
C279 H283 0.930 . S
C280 C279 1.369 1_545 S
C280 C289 1.429 . S
C281 C279 1.419 . S
C281 C282 1.363 1_565 S
C281 H284 0.929 . S
C282 C281 1.363 1_545 S
C282 C288 1.428 . S
H283 C279 0.930 . S
H284 C281 0.929 . S
S285 N286 1.613 . S
S285 N287 1.610 . S
N286 S285 1.613 . S
N286 C289 1.350 . S
N287 S285 1.610 . S
N287 C288 1.351 . S
C288 C282 1.428 . S
C288 N287 1.351 . S
C288 C289 1.434 . S
C289 C280 1.429 . S
C289 N286 1.350 . S
C289 C288 1.434 . S
C290 C291 1.365 1_556 S
C290 C292 1.446 . S
C290 H294 0.907 1_556 S
C291 C290 1.365 1_554 S
C291 C300 1.424 1_554 S
C292 C290 1.446 . S
C292 C293 1.363 . S
C292 H295 0.929 . S
C293 C292 1.363 . S
C293 C299 1.428 . S
H294 C290 0.907 1_554 S
H295 C292 0.929 . S
S296 N297 1.613 . S
S296 N298 1.610 . S
N297 S296 1.613 . S
N297 C300 1.350 . S
N298 S296 1.610 . S
N298 C299 1.351 . S
C299 C293 1.428 . S
C299 N298 1.351 . S
C299 C300 1.434 . S
C300 C291 1.424 1_556 S
C300 N297 1.350 . S
C300 C299 1.434 . S
C301 C302 1.369 . S
C301 C303 1.419 . S
C301 H305 0.930 . S
C302 C301 1.369 . S
C302 C311 1.429 . S
C303 C301 1.419 . S
C303 C304 1.363 . S
C303 H306 0.929 . S
C304 C303 1.363 . S
C304 C310 1.428 . S
H305 C301 0.930 . S
H306 C303 0.929 . S
S307 N308 1.613 1_655 S
S307 N309 1.610 . S
N308 S307 1.613 1_455 S
N308 C311 1.350 . S
N309 S307 1.610 . S
N309 C310 1.351 1_655 S
C310 C304 1.428 . S
C310 N309 1.351 1_455 S
C310 C311 1.434 . S
C311 C302 1.429 . S
C311 N308 1.350 . S
C311 C310 1.434 . S
C183 C50 1.371 . S
C181 C11 1.356 . S
C192 C25 1.413 . S
C194 C89 1.431 . S
C203 C41 1.395 . S
C205 C156 1.459 . S
C214 C7 1.399 . S
C216 C57 1.401 . S
C227 C110 1.457 . S
C225 C21 1.453 . S
C236 C36 1.415 . S
C238 C135 1.494 . S
C249 C96 1.423 . S
C247 C39 1.410 . S
C258 C8 1.419 . S
C260 C149 1.496 . S
C271 C64 1.526 . S
C269 C22 1.459 . S
C282 C103 1.451 . S
C280 C35 1.448 1_545 S
C293 C142 1.458 . S
C291 C13 1.388 . S
C302 C27 1.464 . S
C304 C43 1.497 . S
