# Generated by pormake.
# Topology wbl, (4,4)-cn, num edge types: 1
# Building blocks:
#     Node 0, Type 0, BuildingBlock: MIFKUJ_clean_linker_1, # of connection points: 4
#     Node 1, Type 0, BuildingBlock: MIFKUJ_clean_linker_1, # of connection points: 4
#     Node 2, Type 0, BuildingBlock: MIFKUJ_clean_linker_1, # of connection points: 4
#     Node 3, Type 0, BuildingBlock: MIFKUJ_clean_linker_1, # of connection points: 4
#     Node 4, Type 0, BuildingBlock: MIFKUJ_clean_linker_1, # of connection points: 4
#     Node 5, Type 0, BuildingBlock: MIFKUJ_clean_linker_1, # of connection points: 4
#     Node 6, Type 0, BuildingBlock: MIFKUJ_clean_linker_1, # of connection points: 4
#     Node 7, Type 0, BuildingBlock: MIFKUJ_clean_linker_1, # of connection points: 4
#     Node 8, Type 1, BuildingBlock: CEKHIL_clean_sbu_0, # of connection points: 4
#     Node 9, Type 1, BuildingBlock: CEKHIL_clean_sbu_0, # of connection points: 4
#     Node 10, Type 1, BuildingBlock: CEKHIL_clean_sbu_0, # of connection points: 4
#     Node 11, Type 1, BuildingBlock: CEKHIL_clean_sbu_0, # of connection points: 4
#     Node 12, Type 1, BuildingBlock: CEKHIL_clean_sbu_0, # of connection points: 4
#     Node 13, Type 1, BuildingBlock: CEKHIL_clean_sbu_0, # of connection points: 4
#     Node 14, Type 1, BuildingBlock: CEKHIL_clean_sbu_0, # of connection points: 4
#     Node 15, Type 1, BuildingBlock: CEKHIL_clean_sbu_0, # of connection points: 4
#     Edge 16, Type (0, 1), BuildingBlock: UVAHIK_clean_linker_0, # of connection points: 2
#     Edge 17, Type (0, 1), BuildingBlock: UVAHIK_clean_linker_0, # of connection points: 2
#     Edge 18, Type (0, 1), BuildingBlock: UVAHIK_clean_linker_0, # of connection points: 2
#     Edge 19, Type (0, 1), BuildingBlock: UVAHIK_clean_linker_0, # of connection points: 2
#     Edge 20, Type (0, 1), BuildingBlock: UVAHIK_clean_linker_0, # of connection points: 2
#     Edge 21, Type (0, 1), BuildingBlock: UVAHIK_clean_linker_0, # of connection points: 2
#     Edge 22, Type (0, 1), BuildingBlock: UVAHIK_clean_linker_0, # of connection points: 2
#     Edge 23, Type (0, 1), BuildingBlock: UVAHIK_clean_linker_0, # of connection points: 2
#     Edge 24, Type (0, 1), BuildingBlock: UVAHIK_clean_linker_0, # of connection points: 2
#     Edge 25, Type (0, 1), BuildingBlock: UVAHIK_clean_linker_0, # of connection points: 2
#     Edge 26, Type (0, 1), BuildingBlock: UVAHIK_clean_linker_0, # of connection points: 2
#     Edge 27, Type (0, 1), BuildingBlock: UVAHIK_clean_linker_0, # of connection points: 2
#     Edge 28, Type (0, 1), BuildingBlock: UVAHIK_clean_linker_0, # of connection points: 2
#     Edge 29, Type (0, 1), BuildingBlock: UVAHIK_clean_linker_0, # of connection points: 2
#     Edge 30, Type (0, 1), BuildingBlock: UVAHIK_clean_linker_0, # of connection points: 2
#     Edge 31, Type (0, 1), BuildingBlock: UVAHIK_clean_linker_0, # of connection points: 2
#     Edge 32, Type (0, 1), BuildingBlock: UVAHIK_clean_linker_0, # of connection points: 2
#     Edge 33, Type (0, 1), BuildingBlock: UVAHIK_clean_linker_0, # of connection points: 2
#     Edge 34, Type (0, 1), BuildingBlock: UVAHIK_clean_linker_0, # of connection points: 2
#     Edge 35, Type (0, 1), BuildingBlock: UVAHIK_clean_linker_0, # of connection points: 2
#     Edge 36, Type (0, 1), BuildingBlock: UVAHIK_clean_linker_0, # of connection points: 2
#     Edge 37, Type (0, 1), BuildingBlock: UVAHIK_clean_linker_0, # of connection points: 2
#     Edge 38, Type (0, 1), BuildingBlock: UVAHIK_clean_linker_0, # of connection points: 2
#     Edge 39, Type (0, 1), BuildingBlock: UVAHIK_clean_linker_0, # of connection points: 2
#     Edge 40, Type (0, 1), BuildingBlock: UVAHIK_clean_linker_0, # of connection points: 2
#     Edge 41, Type (0, 1), BuildingBlock: UVAHIK_clean_linker_0, # of connection points: 2
#     Edge 42, Type (0, 1), BuildingBlock: UVAHIK_clean_linker_0, # of connection points: 2
#     Edge 43, Type (0, 1), BuildingBlock: UVAHIK_clean_linker_0, # of connection points: 2
#     Edge 44, Type (0, 1), BuildingBlock: UVAHIK_clean_linker_0, # of connection points: 2
#     Edge 45, Type (0, 1), BuildingBlock: UVAHIK_clean_linker_0, # of connection points: 2
#     Edge 46, Type (0, 1), BuildingBlock: UVAHIK_clean_linker_0, # of connection points: 2
#     Edge 47, Type (0, 1), BuildingBlock: UVAHIK_clean_linker_0, # of connection points: 2
# Relax obj value: 0.159
# Max RMSD: 0.158
# Mean RMSD: 0.137
data_MOF--net-wbl--node1-CEKHIL_clean_sbu_0--node2-MIFKUJ_clean_linker_1--edge1-UVAHIK_clean_linker_0
_symmetry_space_group_name_H-M    P1
_symmetry_Int_Tables_number       1
_symmetry_cell_setting            triclinic
loop_
_symmetry_equiv_pos_as_xyz
'x, y, z'
_cell_length_a     56.956429
_cell_length_b     57.198761
_cell_length_c     93.345036
_cell_angle_alpha  90.343118
_cell_angle_beta   90.094414
_cell_angle_gamma 89.99614
loop_
_atom_site_label
_atom_site_type_symbol
_atom_site_fract_x
_atom_site_fract_y
_atom_site_fract_z
_atom_type_partial_charge
H0 H 0.01277 0.05918 0.34507 0.0
H1 H 0.98884 0.08335 0.36101 0.0
H2 H 0.926 0.05121 0.344 0.0
H3 H 0.9501 0.02685 0.32809 0.0
H4 H 0.01586 0.01285 0.34595 0.0
H5 H 0.99463 0.06985 0.3103 0.0
H6 H 0.96579 0.09384 0.29764 0.0
H7 H 0.93148 0.03103 0.28231 0.0
H8 H 0.96055 0.00731 0.29475 0.0
H9 H 0.01548 0.95219 0.29765 0.0
H10 H 0.04302 0.92515 0.28582 0.0
H11 H 0.10059 0.97086 0.29714 0.0
H12 H 0.07316 0.99752 0.30902 0.0
H13 H 0.00851 0.00388 0.29322 0.0
H14 H 0.03037 0.94722 0.32869 0.0
H15 H 0.05536 0.9235 0.3442 0.0
H16 H 0.08808 0.98631 0.36067 0.0
H17 H 0.06307 0.00993 0.34512 0.0
C18 C 0.98325 0.04121 0.3354 0.0
C19 C 0.99384 0.05748 0.34467 0.0
C20 C 0.98016 0.07124 0.35377 0.0
C21 C 0.95558 0.069 0.35381 0.0
C22 C 0.94489 0.05342 0.34411 0.0
C23 C 0.95864 0.03951 0.33502 0.0
C24 C -0.00186 0.02491 0.32698 0.0
C25 C 0.01447 0.01118 0.33439 0.0
C26 C 0.99592 0.02224 0.31196 0.0
C27 C 0.97954 0.03682 0.30356 0.0
C28 C 0.98094 0.06132 0.30413 0.0
C29 C 0.96444 0.07499 0.29692 0.0
C30 C 0.94631 0.06437 0.28898 0.0
C31 C 0.94543 0.03981 0.28811 0.0
C32 C 0.96196 0.02618 0.29528 0.0
C33 C 0.04238 0.97677 0.30416 0.0
C34 C 0.03401 0.95641 0.29742 0.0
C35 C 0.04971 0.94097 0.29079 0.0
C36 C 0.07385 0.94601 0.29057 0.0
C37 C 0.08203 0.9667 0.29705 0.0
C38 C 0.06643 0.98189 0.30384 0.0
C39 C 0.02635 0.99221 0.31223 0.0
C40 C 0.00988 0.00569 0.30476 0.0
C41 C 0.02855 0.99484 0.32721 0.0
C42 C 0.04492 0.98034 0.33573 0.0
C43 C 0.04327 0.95584 0.33542 0.0
C44 C 0.05759 0.9423 0.34426 0.0
C45 C 0.07362 0.95307 0.35368 0.0
C46 C 0.0757 0.97756 0.35364 0.0
C47 C 0.06144 0.99106 0.34477 0.0
H48 H 5e-05 0.4587 0.55164 0.0
H49 H 0.97753 0.42712 0.54051 0.0
H50 H 0.91298 0.46273 0.55156 0.0
H51 H 0.93574 0.49395 0.563 0.0
H52 H 0.0011 0.5076 0.54667 0.0
H53 H 0.98726 0.45466 0.58665 0.0
H54 H 0.96293 0.42943 0.6015 0.0
H55 H 0.91465 0.48683 0.60844 0.0
H56 H 0.93991 0.51218 0.59416 0.0
H57 H 0.99638 0.56736 0.59742 0.0
H58 H 0.02168 0.5936 0.61138 0.0
H59 H 0.08293 0.55908 0.594 0.0
H60 H 0.05761 0.53241 0.58058 0.0
H61 H 0.99196 0.52036 0.59905 0.0
H62 H 0.00879 0.57456 0.5613 0.0
H63 H 0.03545 0.60011 0.54815 0.0
H64 H 0.07762 0.54032 0.53624 0.0
H65 H 0.05068 0.5147 0.54942 0.0
C66 C 0.96953 0.47851 0.5582 0.0
C67 C 0.98105 0.45976 0.55153 0.0
C68 C 0.96813 0.44179 0.54512 0.0
C69 C 0.94341 0.44237 0.54514 0.0
C70 C 0.93196 0.46155 0.55154 0.0
C71 C 0.94492 0.47944 0.55802 0.0
C72 C 0.98326 0.49665 0.56583 0.0
C73 C -0.00076 0.51029 0.55813 0.0
C74 C 0.98051 0.50046 0.58068 0.0
C75 C 0.96536 0.48522 0.58941 0.0
C76 C 0.97142 0.46173 0.59141 0.0
C77 C 0.95732 0.44728 0.59979 0.0
C78 C 0.93672 0.45601 0.6062 0.0
C79 C 0.93057 0.47957 0.60392 0.0
C80 C 0.9449 0.49409 0.59572 0.0
C81 C 0.0251 0.54805 0.58788 0.0
C82 C 0.01527 0.56552 0.59661 0.0
C83 C 0.02975 0.58065 0.60446 0.0
C84 C 0.05433 0.57846 0.60377 0.0
C85 C 0.06408 0.56111 0.59486 0.0
C86 C 0.04962 0.54599 0.58707 0.0
C87 C 0.00985 0.53144 0.57991 0.0
C88 C 0.99365 0.51795 0.58756 0.0
C89 C 0.01238 0.52779 0.56499 0.0
C90 C 0.02785 0.54282 0.55633 0.0
C91 C 0.02367 0.56695 0.55576 0.0
C92 C 0.03884 0.58147 0.54822 0.0
C93 C 0.05853 0.57212 0.54118 0.0
C94 C 0.0626 0.54791 0.54163 0.0
C95 C 0.0472 0.53331 0.54905 0.0
H96 H 0.49488 0.5627 0.84605 0.0
H97 H 0.4658 0.58159 0.86158 0.0
H98 H 0.4113 0.53855 0.84295 0.0
H99 H 0.44046 0.51981 0.82735 0.0
H100 H 0.50449 0.5146 0.84651 0.0
H101 H 0.48308 0.57311 0.81329 0.0
H102 H 0.45375 0.59729 0.80127 0.0
H103 H 0.42602 0.53581 0.78009 0.0
H104 H 0.45544 0.5117 0.79216 0.0
H105 H 0.51139 0.45984 0.79578 0.0
H106 H 0.54058 0.43484 0.78381 0.0
H107 H 0.59606 0.47928 0.79999 0.0
H108 H 0.56693 0.50406 0.81187 0.0
H109 H 0.50308 0.51025 0.79338 0.0
H110 H 0.5253 0.45203 0.82842 0.0
H111 H 0.54995 0.42915 0.84461 0.0
H112 H 0.57745 0.4931 0.86296 0.0
H113 H 0.5526 0.51583 0.84684 0.0
C114 C 0.46978 0.53991 0.83558 0.0
C115 C 0.4766 0.55763 0.84516 0.0
C116 C 0.45998 0.56849 0.85393 0.0
C117 C 0.43633 0.56152 0.85343 0.0
C118 C 0.42943 0.5442 0.84354 0.0
C119 C 0.44602 0.53357 0.83463 0.0
C120 C 0.48769 0.52684 0.82731 0.0
C121 C 0.50445 0.51397 0.83489 0.0
C122 C 0.48736 0.52578 0.81218 0.0
C123 C 0.47114 0.54057 0.80379 0.0
C124 C 0.47073 0.56487 0.806 0.0
C125 C 0.454 0.57866 0.79913 0.0
C126 C 0.4375 0.56842 0.78983 0.0
C127 C 0.43866 0.54423 0.7871 0.0
C128 C 0.45538 0.53042 0.79402 0.0
C129 C 0.5371 0.4837 0.80469 0.0
C130 C 0.52985 0.46424 0.7966 0.0
C131 C 0.54648 0.44994 0.78988 0.0
C132 C 0.57052 0.45519 0.79098 0.0
C133 C 0.57762 0.47498 0.79885 0.0
C134 C 0.56105 0.48908 0.80567 0.0
C135 C 0.51981 0.49793 0.81264 0.0
C136 C 0.50319 0.51101 0.805 0.0
C137 C 0.52051 0.49951 0.82775 0.0
C138 C 0.53713 0.48562 0.83645 0.0
C139 C 0.53699 0.46109 0.83574 0.0
C140 C 0.55113 0.44805 0.84497 0.0
C141 C 0.56553 0.45934 0.85512 0.0
C142 C 0.56628 0.48391 0.8554 0.0
C143 C 0.55214 0.49691 0.84619 0.0
H144 H 0.50401 0.95348 0.04721 0.0
H145 H 0.48201 0.92312 0.03458 0.0
H146 H 0.4169 0.95479 0.04856 0.0
H147 H 0.43923 0.98465 0.0616 0.0
H148 H 0.50257 0.00304 0.04468 0.0
H149 H 0.49359 0.94388 0.08186 0.0
H150 H 0.47134 0.91588 0.09631 0.0
H151 H 0.42299 0.97067 0.10839 0.0
H152 H 0.44553 -0.0013 0.09409 0.0
H153 H 0.50015 0.05306 0.09982 0.0
H154 H 0.52543 0.07795 0.11454 0.0
H155 H 0.58601 0.05332 0.09098 0.0
H156 H 0.56091 0.0272 0.07718 0.0
H157 H 0.49739 0.00775 0.09771 0.0
H158 H 0.51021 0.06817 0.06293 0.0
H159 H 0.53505 0.09604 0.0502 0.0
H160 H 0.57618 0.03893 0.03308 0.0
H161 H 0.55115 0.01101 0.04586 0.0
C162 C 0.47322 0.97114 0.05538 0.0
C163 C 0.48499 0.95393 0.04745 0.0
C164 C 0.47235 0.93668 0.04015 0.0
C165 C 0.44763 0.93651 0.0405 0.0
C166 C 0.4359 0.95418 0.04823 0.0
C167 C 0.4486 0.9713 0.05564 0.0
C168 C 0.48677 0.98867 0.06362 0.0
C169 C 0.50156 0.00402 0.05627 0.0
C170 C 0.4851 0.99023 0.07868 0.0
C171 C 0.47114 0.97328 0.08696 0.0
C172 C 0.47813 0.94979 0.08757 0.0
C173 C 0.46547 0.93387 0.09581 0.0
C174 C 0.44547 0.94117 0.10339 0.0
C175 C 0.43823 0.96461 0.10252 0.0
C176 C 0.45113 0.98061 0.09446 0.0
C177 C 0.52853 0.03842 0.08725 0.0
C178 C 0.51889 0.05301 0.09786 0.0
C179 C 0.53338 0.06749 0.10615 0.0
C180 C 0.55783 0.06777 0.10395 0.0
C181 C 0.56734 0.0534 0.09313 0.0
C182 C 0.55291 0.03867 0.08505 0.0
C183 C 0.5133 0.02235 0.0788 0.0
C184 C 0.4982 0.00713 0.08611 0.0
C185 C 0.51465 0.02097 0.06367 0.0
C186 C 0.52894 0.03761 0.05535 0.0
C187 C 0.52449 0.06166 0.05637 0.0
C188 C 0.5386 0.07751 0.04906 0.0
C189 C 0.55748 0.06957 0.04068 0.0
C190 C 0.5618 0.04545 0.03955 0.0
C191 C 0.54746 0.02955 0.04674 0.0
H192 H -0.00212 0.56152 0.90562 0.0
H193 H 0.02379 0.58474 0.8903 0.0
H194 H 0.08185 0.53946 0.901 0.0
H195 H 0.05589 0.51633 0.91628 0.0
H196 H 0.98801 0.51341 0.90227 0.0
H197 H 0.01593 0.56586 0.93871 0.0
H198 H 0.04734 0.58819 0.95025 0.0
H199 H 0.08258 0.52361 0.96096 0.0
H200 H 0.05073 0.50146 0.94971 0.0
H201 H 0.98885 0.44941 0.9487 0.0
H202 H 0.96059 0.42538 0.96212 0.0
H203 H 0.90721 0.47779 0.95524 0.0
H204 H 0.93521 0.50138 0.94181 0.0
H205 H 0.00141 0.50041 0.95421 0.0
H206 H 0.97198 0.44821 0.9175 0.0
H207 H 0.94364 0.42729 0.90258 0.0
H208 H 0.91045 0.49291 0.89181 0.0
H209 H 0.93942 0.51373 0.90645 0.0
C210 C 0.02502 0.53727 0.91205 0.0
C211 C 0.01624 0.55677 0.90475 0.0
C212 C 0.03106 0.57009 0.89612 0.0
C213 C 0.05479 0.56387 0.89452 0.0
C214 C 0.06361 0.54456 0.90204 0.0
C215 C 0.04885 0.53141 0.91078 0.0
C216 C 0.00915 0.52245 0.92062 0.0
C217 C 0.99071 0.51082 0.91366 0.0
C218 C 0.01301 0.51875 0.93539 0.0
C219 C 0.03116 0.53206 0.94329 0.0
C220 C 0.03037 0.55657 0.94365 0.0
C221 C 0.04839 0.56929 0.95017 0.0
C222 C 0.06757 0.55771 0.95645 0.0
C223 C 0.06794 0.53309 0.9564 0.0
C224 C 0.04981 0.52038 0.94994 0.0
C225 C 0.96398 0.47706 0.94431 0.0
C226 C 0.97107 0.45567 0.9502 0.0
C227 C 0.95499 0.44199 0.95778 0.0
C228 C 0.93187 0.4499 0.95979 0.0
C229 C 0.92504 0.47149 0.95402 0.0
C230 C 0.94093 0.4849 0.9463 0.0
C231 C 0.98033 0.49131 0.93581 0.0
C232 C -0.00125 0.50296 0.94281 0.0
C233 C 0.97628 0.49523 0.92108 0.0
C234 C 0.95778 0.48249 0.91306 0.0
C235 C 0.95838 0.45803 0.91208 0.0
C236 C 0.94205 0.44609 0.90359 0.0
C237 C 0.92474 0.4584 0.89594 0.0
C238 C 0.92375 0.4829 0.89735 0.0
C239 C 0.94023 0.49483 0.90576 0.0
H240 H 0.50621 0.54877 0.19912 0.0
H241 H 0.48576 0.58037 0.21155 0.0
H242 H 0.41909 0.54897 0.20022 0.0
H243 H 0.43984 0.51793 0.18731 0.0
H244 H 0.50408 0.49909 0.20265 0.0
H245 H 0.49378 0.55697 0.16559 0.0
H246 H 0.47144 0.58571 0.15175 0.0
H247 H 0.42106 0.53232 0.14032 0.0
H248 H 0.44362 0.50355 0.15411 0.0
H249 H 0.49536 0.4447 0.14991 0.0
H250 H 0.51874 0.41743 0.13549 0.0
H251 H 0.58224 0.44601 0.15401 0.0
H252 H 0.55889 0.47379 0.16785 0.0
H253 H 0.49422 0.49212 0.14991 0.0
H254 H 0.50914 0.43296 0.18517 0.0
H255 H 0.53459 0.40524 0.19758 0.0
H256 H 0.57773 0.4624 0.21277 0.0
H257 H 0.55218 0.49014 0.2002 0.0
C258 C 0.47451 0.53117 0.19227 0.0
C259 C 0.4872 0.54865 0.19943 0.0
C260 C 0.47543 0.56662 0.20661 0.0
C261 C 0.45071 0.56725 0.20693 0.0
C262 C 0.43809 0.54927 0.20002 0.0
C263 C 0.4499 0.53145 0.1927 0.0
C264 C 0.48704 0.51303 0.18395 0.0
C265 C 0.50206 0.49763 0.19112 0.0
C266 C 0.48411 0.51094 0.16897 0.0
C267 C 0.47028 0.52822 0.16084 0.0
C268 C 0.47786 0.55152 0.16015 0.0
C269 C 0.46516 0.56786 0.15224 0.0
C270 C 0.44454 0.56119 0.14503 0.0
C271 C 0.43678 0.53791 0.14592 0.0
C272 C 0.44969 0.52148 0.15367 0.0
C273 C 0.52536 0.46114 0.16005 0.0
C274 C 0.51432 0.44508 0.15082 0.0
C275 C 0.5277 0.42934 0.14272 0.0
C276 C 0.55236 0.42948 0.14364 0.0
C277 C 0.56331 0.44556 0.15294 0.0
C278 C 0.54996 0.46131 0.16097 0.0
C279 C 0.51129 0.47799 0.1686 0.0
C280 C 0.49602 0.49327 0.16147 0.0
C281 C 0.51409 0.48005 0.18362 0.0
C282 C 0.52887 0.46353 0.19174 0.0
C283 C 0.52402 0.43951 0.19122 0.0
C284 C 0.53849 0.42374 0.19836 0.0
C285 C 0.55809 0.43172 0.20615 0.0
C286 C 0.56281 0.45582 0.20677 0.0
C287 C 0.54818 0.47164 0.19971 0.0
H288 H 0.5004 0.94048 0.40451 0.0
H289 H 0.47129 0.9208 0.38935 0.0
H290 H 0.41745 0.96701 0.40563 0.0
H291 H 0.4467 0.98683 0.4206 0.0
H292 H 0.5114 0.98753 0.40182 0.0
H293 H 0.48494 0.93601 0.43975 0.0
H294 H 0.4523 0.91759 0.45254 0.0
H295 H 0.42758 0.98573 0.46582 0.0
H296 H 0.46013 0.00405 0.45299 0.0
H297 H 0.51611 0.04663 0.45224 0.0
H298 H 0.54398 0.07463 0.46273 0.0
H299 H 0.60148 0.03601 0.44393 0.0
H300 H 0.57374 0.00794 0.43373 0.0
H301 H 0.50824 0.00089 0.45437 0.0
H302 H 0.53021 0.05297 0.41704 0.0
H303 H 0.55485 0.07484 0.40042 0.0
H304 H 0.58398 0.00995 0.38448 0.0
H305 H 0.55915 0.98818 0.40109 0.0
C306 C 0.47569 0.96502 0.41371 0.0
C307 C 0.48224 0.94609 0.40498 0.0
C308 C 0.46557 0.93477 0.39641 0.0
C309 C 0.44209 0.94239 0.3963 0.0
C310 C 0.43543 0.96085 0.40544 0.0
C311 C 0.45208 0.97207 0.41406 0.0
C312 C 0.4938 0.97878 0.42145 0.0
C313 C 0.5111 0.99 0.41336 0.0
C314 C 0.49281 0.9827 0.4364 0.0
C315 C 0.47476 0.97137 0.44534 0.0
C316 C 0.47262 0.94692 0.44556 0.0
C317 C 0.4541 0.93643 0.45292 0.0
C318 C 0.43741 0.95029 0.46006 0.0
C319 C 0.44013 0.9747 0.46028 0.0
C320 C 0.45875 0.98515 0.45304 0.0
C321 C 0.54284 0.02541 0.44202 0.0
C322 C 0.53475 0.04406 0.45054 0.0
C323 C 0.55063 0.06006 0.45649 0.0
C324 C 0.57481 0.05766 0.45393 0.0
C325 C 0.58289 0.03855 0.4458 0.0
C326 C 0.56707 0.02248 0.44 0.0
C327 C 0.526 0.00956 0.43473 0.0
C328 C 0.50892 0.99804 0.44288 0.0
C329 C 0.52693 0.00565 0.41976 0.0
C330 C 0.54294 0.01896 0.41033 0.0
C331 C 0.54219 0.04349 0.41013 0.0
C332 C 0.55634 0.05597 0.40066 0.0
C333 C 0.57134 0.04412 0.39113 0.0
C334 C 0.5724 0.01956 0.39158 0.0
C335 C 0.55826 0.0071 0.40106 0.0
H336 H 0.00781 0.06512 0.69908 0.0
H337 H 0.98233 0.0934 0.71111 0.0
H338 H 0.92229 0.04922 0.70217 0.0
H339 H 0.94785 0.0218 0.6895 0.0
H340 H 0.01239 0.01221 0.70332 0.0
H341 H 0.99276 0.0716 0.66877 0.0
H342 H 0.96713 0.09753 0.65503 0.0
H343 H 0.92959 0.03737 0.63862 0.0
H344 H 0.95478 0.01168 0.6527 0.0
H345 H -0.00112 0.9572 0.65327 0.0
H346 H 0.01817 0.92857 0.63776 0.0
H347 H 0.08585 0.95643 0.6501 0.0
H348 H 0.06635 0.98471 0.6659 0.0
H349 H 0.00151 0.00523 0.65067 0.0
H350 H 0.01431 0.94731 0.68677 0.0
H351 H 0.03847 0.91834 0.69902 0.0
H352 H 0.08707 0.97265 0.71176 0.0
H353 H 0.06274 0.00169 0.69931 0.0
C354 C 0.97961 0.04158 0.69337 0.0
C355 C 0.98918 0.06153 0.69987 0.0
C356 C 0.97455 0.07758 0.70681 0.0
C357 C 0.95014 0.07369 0.70759 0.0
C358 C 0.94087 0.05308 0.70154 0.0
C359 C 0.95545 0.03727 0.6944 0.0
C360 C 0.9945 0.02577 0.68478 0.0
C361 C 0.01042 0.01101 0.69177 0.0
C362 C 0.99146 0.0239 0.6698 0.0
C363 C 0.97555 0.03972 0.66183 0.0
C364 C 0.97875 0.06405 0.66239 0.0
C365 C 0.96423 0.07883 0.65444 0.0
C366 C 0.94627 0.06952 0.64577 0.0
C367 C 0.94299 0.04514 0.64537 0.0
C368 C 0.95752 0.0304 0.6533 0.0
C369 C 0.03119 0.97314 0.66063 0.0
C370 C 0.01788 0.95699 0.65271 0.0
C371 C 0.02894 0.94067 0.64385 0.0
C372 C 0.05355 0.94038 0.64258 0.0
C373 C 0.06689 0.95604 0.65095 0.0
C374 C 0.05579 0.9723 0.65991 0.0
C375 C 0.01915 0.9914 0.6692 0.0
C376 C 0.0038 0.00669 0.66219 0.0
C377 C 0.02256 0.99363 0.68414 0.0
C378 C 0.03686 0.97654 0.6921 0.0
C379 C 0.03014 0.95297 0.69223 0.0
C380 C 0.04386 0.9365 0.6993 0.0
C381 C 0.06459 0.94329 0.70637 0.0
C382 C 0.07124 0.96696 0.70632 0.0
C383 C 0.05734 0.98353 0.69932 0.0
Co384 Co 0.32038 0.67498 0.00677 0.0
O385 O 0.29839 0.64968 0.00754 0.0
O386 O 0.2906 0.68486 -0.00114 0.0
C387 C 0.33425 0.67085 0.02919 0.0
O388 O 0.33836 0.70552 0.00497 0.0
Co389 Co 0.37383 0.66445 0.00937 0.0
O390 O 0.37695 0.69896 0.00865 0.0
C391 C 0.34806 0.6506 0.98355 0.0
C392 C 0.28336 0.66384 0.00177 0.0
C393 C 0.35971 0.71261 0.00625 0.0
O394 O 0.33107 0.66416 0.9872 0.0
O395 O 0.36547 0.64603 0.99174 0.0
O396 O 0.31472 0.68205 0.02701 0.0
O397 O 0.34324 0.66077 0.01808 0.0
Co398 Co 0.32224 0.82814 0.24368 0.0
O399 O 0.29897 0.85235 0.24367 0.0
O400 O 0.29303 0.81616 0.25121 0.0
C401 C 0.33564 0.83461 0.22138 0.0
O402 O 0.34166 0.79835 0.24457 0.0
Co403 Co 0.37517 0.84109 0.24122 0.0
O404 O 0.37979 0.80674 0.2407 0.0
C405 C 0.34921 0.85186 0.2675 0.0
C406 C 0.28466 0.83697 0.24891 0.0
C407 C 0.36321 0.79221 0.24286 0.0
O408 O 0.33262 0.83801 0.26353 0.0
O409 O 0.36634 0.85763 0.25943 0.0
O410 O 0.3167 0.82235 0.22327 0.0
O411 O 0.3443 0.84426 0.23275 0.0
Co412 Co 0.17836 0.81614 0.49437 0.0
O413 O 0.15411 0.79295 0.49356 0.0
O414 O 0.19055 0.78654 0.50093 0.0
C415 C 0.17115 0.83124 0.47254 0.0
O416 O 0.20828 0.8354 0.496 0.0
Co417 Co 0.16571 0.86914 0.49322 0.0
O418 O 0.20014 0.87377 0.49363 0.0
C419 C 0.15397 0.84111 0.51848 0.0
C420 C 0.16965 0.77834 0.49835 0.0
C421 C 0.21456 0.85697 0.4953 0.0
O422 O 0.16837 0.825 0.51449 0.0
O423 O 0.14836 0.85847 0.5106 0.0
O424 O 0.18384 0.81244 0.47369 0.0
O425 O 0.16197 0.83884 0.48427 0.0
Co426 Co 0.17188 0.69028 0.75324 0.0
O427 O 0.147 0.71263 0.75117 0.0
O428 O 0.18465 0.71986 0.74714 0.0
C429 C 0.16009 0.67645 0.77456 0.0
O430 O 0.20258 0.67216 0.75489 0.0
Co431 Co 0.16173 0.6369 0.75488 0.0
O432 O 0.19478 0.63514 0.76127 0.0
C433 C 0.16028 0.66076 0.7269 0.0
C434 C 0.16316 0.72751 0.7476 0.0
C435 C 0.20918 0.65174 0.75905 0.0
O436 O 0.16751 0.67995 0.73267 0.0
O437 O 0.15576 0.64225 0.73403 0.0
O438 O 0.17218 0.69568 0.77396 0.0
O439 O 0.15393 0.66748 0.76241 0.0
Co440 Co 0.83081 0.18793 0.49552 0.0
O441 O 0.85665 0.20935 0.49655 0.0
O442 O 0.81977 0.21824 0.50187 0.0
C443 C 0.84061 0.17298 0.47394 0.0
O444 O 0.79938 0.17096 0.49502 0.0
Co445 Co 0.83899 0.13429 0.49403 0.0
O446 O 0.80499 0.13294 0.48983 0.0
C447 C 0.8436 0.15908 0.52169 0.0
C448 C 0.8415 0.22494 0.50065 0.0
C449 C 0.79155 0.15041 0.49199 0.0
O450 O 0.83659 0.1783 0.51602 0.0
O451 O 0.84686 0.14011 0.51465 0.0
O452 O 0.82881 0.19239 0.4748 0.0
O453 O 0.84736 0.16426 0.48598 0.0
Co454 Co 0.81953 0.33253 0.74505 0.0
O455 O 0.79857 0.35874 0.74615 0.0
O456 O 0.78958 0.32256 0.75252 0.0
C457 C 0.83262 0.33997 0.72279 0.0
O458 O 0.83589 0.30087 0.74475 0.0
Co459 Co 0.87335 0.33964 0.74191 0.0
O460 O 0.87418 0.30531 0.73947 0.0
C461 C 0.85081 0.34776 0.76991 0.0
C462 C 0.78303 0.34419 0.75098 0.0
C463 C 0.85637 0.29252 0.74198 0.0
O464 O 0.83128 0.33961 0.76504 0.0
O465 O 0.86904 0.35067 0.76212 0.0
O466 O 0.81283 0.32911 0.72463 0.0
O467 O 0.84273 0.34761 0.7343 0.0
Co468 Co 0.67189 0.31788 0.99513 0.0
O469 O 0.64716 0.29519 0.99573 0.0
O470 O 0.68462 0.28777 0.00033 0.0
C471 C 0.66094 0.33385 0.97413 0.0
O472 O 0.70243 0.33641 0.99491 0.0
Co473 Co 0.66066 0.37121 0.99537 0.0
O474 O 0.69463 0.37463 0.99175 0.0
C475 C 0.65839 0.34441 0.02229 0.0
C476 C 0.6632 0.28008 -0.00088 0.0
C477 C 0.70899 0.35769 0.993 0.0
O478 O 0.66627 0.32594 0.01598 0.0
O479 O 0.65376 0.3635 0.01579 0.0
O480 O 0.67342 0.31483 0.97424 0.0
O481 O 0.65406 0.34132 0.98649 0.0
Co482 Co 0.68077 0.18634 0.25242 0.0
O483 O 0.65488 0.20772 0.25142 0.0
O484 O 0.69206 0.21707 0.24743 0.0
C485 C 0.6699 0.1697 0.27322 0.0
O486 O 0.71227 0.16951 0.25311 0.0
Co487 Co 0.67266 0.13239 0.25205 0.0
O488 O 0.70684 0.1307 0.25548 0.0
C489 C 0.66963 0.15915 0.22514 0.0
C490 C 0.67024 0.22364 0.24828 0.0
C491 C 0.72008 0.14858 0.2547 0.0
O492 O 0.67638 0.17804 0.23148 0.0
O493 O 0.66583 0.13986 0.23159 0.0
O494 O 0.68131 0.18938 0.27333 0.0
O495 O 0.66396 0.16189 0.26074 0.0
C496 C 0.10788 0.93823 0.27447 0.0
C497 C 0.09077 0.92969 0.28388 0.0
C498 C 0.12525 0.92344 0.26911 0.0
C499 C 0.15843 0.87155 0.27854 0.0
H500 H 0.18184 0.87754 0.23975 0.0
C501 C 0.2449 0.82766 0.25905 0.0
C502 C 0.25996 0.84313 0.25187 0.0
C503 C 0.22162 0.83406 0.26191 0.0
C504 C 0.17547 0.87563 0.25061 0.0
H505 H 0.07798 0.89897 0.29486 0.0
H506 H 0.10868 0.87294 0.28552 0.0
H507 H 0.14491 0.89623 0.2464 0.0
H508 H 0.2624 0.87723 0.24191 0.0
H509 H 0.22212 0.88831 0.2469 0.0
H510 H 0.18955 0.85175 0.2829 0.0
C511 C 0.10854 0.8911 0.28228 0.0
C512 C 0.15434 0.8863 0.2544 0.0
C513 C 0.09093 0.9059 0.28753 0.0
C514 C 0.25127 0.8649 0.24747 0.0
C515 C 0.22809 0.87119 0.25021 0.0
C516 C 0.17964 0.86087 0.27475 0.0
C517 C 0.12601 0.89982 0.27314 0.0
C518 C 0.14602 0.88504 0.26852 0.0
C519 C 0.213 0.85589 0.25747 0.0
C520 C 0.18875 0.86352 0.26087 0.0
H521 H 0.10804 0.95649 0.27144 0.0
H522 H 0.13865 0.93075 0.26224 0.0
H523 H 0.1525 0.87041 0.28954 0.0
H524 H 0.25115 0.81075 0.26257 0.0
H525 H 0.21035 0.82194 0.26752 0.0
C526 C 0.06618 0.6051 0.52446 0.0
C527 C 0.07493 0.5879 0.53369 0.0
C528 C 0.08123 0.62156 0.51848 0.0
C529 C 0.13542 0.65233 0.52636 0.0
H530 H 0.1264 0.67656 0.48803 0.0
C531 C 0.17935 0.73806 0.50715 0.0
C532 C 0.16352 0.75358 0.50065 0.0
C533 C 0.17287 0.7148 0.50959 0.0
C534 C 0.12918 0.66995 0.49875 0.0
H535 H 0.1063 0.57386 0.54359 0.0
H536 H 0.13279 0.60292 0.53315 0.0
H537 H 0.1071 0.64027 0.49495 0.0
H538 H 0.12874 0.75687 0.49134 0.0
H539 H 0.11747 0.71664 0.49566 0.0
H540 H 0.1566 0.6826 0.53038 0.0
C541 C 0.11426 0.60359 0.53056 0.0
C542 C 0.11817 0.64918 0.5027 0.0
C543 C 0.09917 0.58692 0.53644 0.0
C544 C 0.14134 0.74536 0.49639 0.0
C545 C 0.13496 0.7222 0.49874 0.0
C546 C 0.14641 0.67317 0.52242 0.0
C547 C 0.10535 0.62127 0.52168 0.0
C548 C 0.12051 0.64061 0.51669 0.0
C549 C 0.15056 0.70668 0.50543 0.0
C550 C 0.14268 0.68261 0.50874 0.0
H551 H 0.04757 0.60612 0.52211 0.0
H552 H 0.0738 0.63515 0.51183 0.0
H553 H 0.13741 0.64622 0.53726 0.0
H554 H 0.19659 0.74393 0.51052 0.0
H555 H 0.18527 0.70319 0.51474 0.0
C556 C 0.41062 0.57936 0.76961 0.0
C557 C 0.41805 0.58254 0.78385 0.0
C558 C 0.39066 0.59086 0.76454 0.0
C559 C 0.33877 0.60052 0.76154 0.0
H560 H 0.31848 0.66171 0.77472 0.0
C561 C 0.24192 0.62449 0.76516 0.0
C562 C 0.23456 0.64678 0.76074 0.0
C563 C 0.2657 0.61915 0.7662 0.0
C564 C 0.32402 0.64474 0.77077 0.0
H565 H 0.41083 0.60078 0.8038 0.0
H566 H 0.37593 0.62057 0.79504 0.0
H567 H 0.35888 0.64909 0.77902 0.0
H568 H 0.24661 0.68111 0.75421 0.0
H569 H 0.28841 0.67165 0.75608 0.0
H570 H 0.30393 0.59601 0.75345 0.0
C571 C 0.38572 0.60961 0.78767 0.0
C572 C 0.34707 0.63743 0.77334 0.0
C573 C 0.40571 0.5982 0.79272 0.0
C574 C 0.25166 0.66376 0.75763 0.0
C575 C 0.27558 0.65838 0.75872 0.0
C576 C 0.31581 0.60781 0.75897 0.0
C577 C 0.37764 0.60565 0.77363 0.0
C578 C 0.3545 0.61498 0.76908 0.0
C579 C 0.28279 0.63591 0.76286 0.0
C580 C 0.30799 0.6297 0.76393 0.0
H581 H 0.42001 0.56765 0.76248 0.0
H582 H 0.38509 0.58774 0.7536 0.0
H583 H 0.34379 0.58305 0.75821 0.0
H584 H 0.22931 0.611 0.76777 0.0
H585 H 0.2707 0.60185 0.76975 0.0
C586 C 0.44235 0.90764 0.02035 0.0
C587 C 0.43434 0.91734 0.03334 0.0
C588 C 0.43159 0.88783 0.01452 0.0
C589 C 0.37914 0.85083 0.01461 0.0
H590 H 0.42324 0.79963 0.01052 0.0
C591 C 0.34997 0.75409 0.01221 0.0
C592 C 0.36466 0.73781 0.0054 0.0
C593 C 0.35656 0.77761 0.01311 0.0
C594 C 0.41062 0.81374 0.01119 0.0
H595 H 0.40789 0.91437 0.04997 0.0
H596 H 0.38877 0.88013 0.03952 0.0
H597 H 0.43763 0.83845 0.01617 0.0
H598 H 0.3966 0.73333 0.99316 0.0
H599 H 0.4074 0.77447 0.99388 0.0
H600 H 0.35208 0.8262 0.0095 0.0
C601 C 0.40344 0.88793 0.03393 0.0
C602 C 0.41894 0.83602 0.01453 0.0
C603 C 0.4144 0.90757 0.03989 0.0
C604 C 0.38518 0.74557 -0.00133 0.0
C605 C 0.39144 0.76913 -0.00079 0.0
C606 C 0.37078 0.82856 0.01098 0.0
C607 C 0.41236 0.87753 0.02142 0.0
C608 C 0.40329 0.85466 0.01648 0.0
C609 C 0.3777 0.78535 0.00691 0.0
C610 C 0.38641 0.80961 0.00944 0.0
H611 H 0.45728 0.91504 0.01483 0.0
H612 H 0.43863 0.88021 0.00478 0.0
H613 H 0.36676 0.86503 0.01603 0.0
H614 H 0.33408 0.74842 0.01753 0.0
H615 H 0.3456 0.78942 0.01926 0.0
C616 C 0.09907 0.56358 0.97498 0.0
C617 C 0.08756 0.57121 0.96252 0.0
C618 C 0.11886 0.57535 0.9801 0.0
C619 C 0.15138 0.63078 0.97888 0.0
H620 H 0.20527 0.59162 0.98702 0.0
C621 C 0.24512 0.66771 0.98861 0.0
C622 C 0.25931 0.65588 -0.00148 0.0
C623 C 0.22306 0.65876 0.98485 0.0
C624 C 0.19031 0.60284 0.98505 0.0
H625 H 0.08764 0.59752 0.94584 0.0
H626 H 0.122 0.61828 0.95498 0.0
H627 H 0.16847 0.57366 0.97973 0.0
H628 H 0.26113 0.62627 0.01287 0.0
H629 H 0.22256 0.61116 0.00673 0.0
H630 H 0.17324 0.66001 0.98433 0.0
C631 C 0.11557 0.60324 0.96078 0.0
C632 C 0.16924 0.59251 0.98083 0.0
C633 C 0.09587 0.59135 0.95558 0.0
C634 C 0.25071 0.63557 0.00503 0.0
C635 C 0.22864 0.62683 0.00144 0.0
C636 C 0.17247 0.64116 0.98326 0.0
C637 C 0.12747 0.5951 0.97295 0.0
C638 C 0.14956 0.60635 0.97772 0.0
C639 C 0.21475 0.63798 0.99106 0.0
C640 C 0.19218 0.62728 0.98642 0.0
H641 H 0.09286 0.54842 0.98074 0.0
H642 H 0.12755 0.56891 0.98963 0.0
H643 H 0.1364 0.64183 0.97659 0.0
H644 H 0.25137 0.68341 0.98343 0.0
H645 H 0.21288 0.66771 0.97675 0.0
C646 C 0.41784 0.5966 0.20775 0.0
C647 C 0.4383 0.58715 0.21392 0.0
C648 C 0.40747 0.61666 0.21355 0.0
C649 C 0.4242 0.66976 0.23132 0.0
H650 H 0.35797 0.67878 0.23913 0.0
C651 C 0.39075 0.75979 0.24858 0.0
C652 C 0.36916 0.76717 0.24296 0.0
C653 C 0.39753 0.73642 0.24751 0.0
C654 C 0.37647 0.67665 0.23685 0.0
H655 H 0.46292 0.59062 0.2316 0.0
H656 H 0.44528 0.62619 0.24132 0.0
H657 H 0.37246 0.63996 0.23245 0.0
H658 H 0.33739 0.75598 0.23217 0.0
H659 H 0.3497 0.71535 0.22953 0.0
H660 H 0.42836 0.70634 0.23474 0.0
C661 C 0.43737 0.61796 0.232 0.0
C662 C 0.38473 0.65439 0.23313 0.0
C663 C 0.44754 0.59772 0.22635 0.0
C664 C 0.3541 0.75065 0.23665 0.0
C665 C 0.36115 0.72733 0.23523 0.0
C666 C 0.41594 0.69202 0.23475 0.0
C667 C 0.41751 0.62782 0.2255 0.0
C668 C 0.40866 0.65082 0.23031 0.0
C669 C 0.3832 0.71999 0.24039 0.0
C670 C 0.39194 0.69585 0.23752 0.0
H671 H 0.41038 0.58915 0.19807 0.0
H672 H 0.39228 0.62411 0.20827 0.0
H673 H 0.44268 0.6675 0.22895 0.0
H674 H 0.40251 0.77218 0.2537 0.0
H675 H 0.41427 0.73138 0.25205 0.0
C676 C 0.41795 0.91999 0.47536 0.0
C677 C 0.41627 0.93953 0.46638 0.0
C678 C 0.39768 0.90987 0.48108 0.0
C679 C 0.33439 0.92252 0.48719 0.0
H680 H 0.32864 0.85514 0.48952 0.0
C681 C 0.24704 0.88251 0.50379 0.0
C682 C 0.23966 0.86276 0.49606 0.0
C683 C 0.27037 0.88981 0.5032 0.0
C684 C 0.32989 0.87399 0.48886 0.0
H685 H 0.39225 0.96334 0.45592 0.0
H686 H 0.35701 0.94545 0.46547 0.0
H687 H 0.36569 0.87239 0.48197 0.0
H688 H 0.25075 0.83452 0.48212 0.0
H689 H 0.29126 0.84799 0.4803 0.0
H690 H 0.29836 0.92432 0.49298 0.0
C691 C 0.37386 0.93836 0.46861 0.0
C692 C 0.35127 0.8839 0.48473 0.0
C693 C 0.39405 0.94859 0.46307 0.0
C694 C 0.25614 0.84979 0.4882 0.0
C695 C 0.2794 0.85748 0.48726 0.0
C696 C 0.31299 0.91266 0.49107 0.0
C697 C 0.37538 0.91898 0.47778 0.0
C698 C 0.3536 0.90829 0.48355 0.0
C699 C 0.28667 0.87798 0.49445 0.0
C700 C 0.31029 0.88824 0.49176 0.0
H701 H 0.43494 0.91273 0.47808 0.0
H702 H 0.39951 0.89509 0.48819 0.0
H703 H 0.33567 0.94139 0.48674 0.0
H704 H 0.23464 0.89256 0.51012 0.0
H705 H 0.27542 0.90518 0.50929 0.0
C706 C 0.1036 0.92453 0.71125 0.0
C707 C 0.07923 0.92545 0.71354 0.0
C708 C 0.11689 0.90614 0.71686 0.0
C709 C 0.11493 0.85775 0.74315 0.0
H710 H 0.1549 0.82517 0.71598 0.0
C711 C 0.13431 0.7602 0.74731 0.0
C712 C 0.15719 0.75213 0.74468 0.0
C713 C 0.12846 0.7835 0.74492 0.0
C714 C 0.14417 0.8343 0.72378 0.0
H715 H 0.04988 0.90871 0.72408 0.0
H716 H 0.0729 0.87661 0.7337 0.0
H717 H 0.13823 0.86309 0.70968 0.0
H718 H 0.19192 0.7621 0.73744 0.0
H719 H 0.1815 0.80305 0.73305 0.0
H720 H 0.12005 0.82851 0.75699 0.0
C721 C 0.08185 0.89004 0.72767 0.0
C722 C 0.13465 0.85603 0.7202 0.0
C723 C 0.06859 0.90828 0.72203 0.0
C724 C 0.17413 0.76785 0.73954 0.0
C725 C 0.16819 0.79123 0.73702 0.0
C726 C 0.12436 0.83604 0.7467 0.0
C727 C 0.10607 0.88852 0.72494 0.0
C728 C 0.11933 0.86762 0.72967 0.0
C729 C 0.14531 0.79927 0.73978 0.0
C730 C 0.13845 0.82377 0.73688 0.0
H731 H 0.11221 0.9375 0.70469 0.0
H732 H 0.13555 0.9055 0.71467 0.0
H733 H 0.10357 0.86649 0.75078 0.0
H734 H 0.12086 0.74854 0.75127 0.0
H735 H 0.11058 0.7891 0.74689 0.0
C736 C 0.60689 0.44989 0.77644 0.0
C737 C 0.58838 0.43995 0.78422 0.0
C738 C 0.62491 0.43588 0.77107 0.0
C739 C 0.65574 0.38149 0.7784 0.0
H740 H 0.68519 0.39433 0.74186 0.0
C741 C 0.74204 0.33649 0.75962 0.0
C742 C 0.75885 0.35198 0.75408 0.0
C743 C 0.71904 0.34408 0.76218 0.0
C744 C 0.67716 0.39055 0.7521 0.0
H745 H 0.5738 0.40755 0.79219 0.0
H746 H 0.6055 0.38292 0.78278 0.0
H747 H 0.64804 0.41311 0.74788 0.0
H748 H 0.76481 0.38751 0.74693 0.0
H749 H 0.72497 0.4007 0.75146 0.0
H750 H 0.68532 0.35951 0.78279 0.0
C751 C 0.60602 0.40157 0.78088 0.0
C752 C 0.6559 0.40127 0.75553 0.0
C753 C 0.58783 0.41561 0.78616 0.0
C754 C 0.75227 0.37513 0.75118 0.0
C755 C 0.72937 0.38264 0.75365 0.0
C756 C 0.67707 0.37074 0.77496 0.0
C757 C 0.62487 0.41164 0.77343 0.0
C758 C 0.64533 0.39741 0.76889 0.0
C759 C 0.71247 0.36722 0.75912 0.0
C760 C 0.68833 0.37576 0.76195 0.0
H761 H 0.60762 0.46858 0.7747 0.0
H762 H 0.63933 0.4442 0.76553 0.0
H763 H 0.64808 0.3783 0.78882 0.0
H764 H 0.74661 0.31853 0.76194 0.0
H765 H 0.70635 0.33181 0.76638 0.0
C766 C 0.56266 0.10491 0.0255 0.0
C767 C 0.57272 0.0866 0.03333 0.0
C768 C 0.5768 0.12213 0.01949 0.0
C769 C 0.63217 0.15201 0.02532 0.0
H770 H 0.61744 0.17985 0.9886 0.0
C771 C 0.67376 0.23913 0.00626 0.0
C772 C 0.65709 0.25529 0.00129 0.0
C773 C 0.66743 0.21575 0.00844 0.0
C774 C 0.62182 0.17222 -0.00114 0.0
H775 H 0.60541 0.07152 0.04078 0.0
H776 H 0.63029 0.10193 0.0303 0.0
H777 H 0.59902 0.14302 0.99531 0.0
H778 H 0.6209 0.25964 0.99449 0.0
H779 H 0.60993 0.2192 -0.00167 0.0
H780 H 0.65414 0.1818 0.02912 0.0
C781 C 0.61145 0.10285 0.02881 0.0
C782 C 0.6113 0.15116 0.00268 0.0
C783 C 0.59727 0.08543 0.03471 0.0
C784 C 0.63416 0.24764 -0.00166 0.0
C785 C 0.62792 0.22438 0.00041 0.0
C786 C 0.64267 0.17316 0.02149 0.0
C787 C 0.6013 0.1215 0.02127 0.0
C788 C 0.61573 0.14128 0.01615 0.0
C789 C 0.64442 0.20818 0.00551 0.0
C790 C 0.63691 0.18388 0.00845 0.0
H791 H 0.54379 0.1061 0.0242 0.0
H792 H 0.56845 0.13645 0.0139 0.0
H793 H 0.63579 0.14486 0.03581 0.0
H794 H 0.69158 0.24456 0.0086 0.0
H795 H 0.6805 0.20361 0.01237 0.0
C796 C 0.91777 0.07195 0.26905 0.0
C797 C 0.92748 0.07861 0.28232 0.0
C798 C 0.89778 0.08309 0.26381 0.0
C799 C 0.85898 0.13408 0.26678 0.0
H800 H 0.80948 0.08869 0.26039 0.0
C801 C 0.76031 0.15905 0.26344 0.0
C802 C 0.74556 0.14464 0.2552 0.0
C803 C 0.7841 0.15341 0.26503 0.0
C804 C 0.82311 0.1017 0.26176 0.0
H805 H 0.92462 0.10324 0.30002 0.0
H806 H 0.88986 0.12296 0.29066 0.0
H807 H 0.8489 0.07534 0.26556 0.0
H808 H 0.74411 0.11435 0.24122 0.0
H809 H 0.78564 0.10528 0.24323 0.0
H810 H 0.83314 0.16051 0.26284 0.0
C811 C 0.8978 0.10908 0.28438 0.0
C812 C 0.84573 0.09398 0.2648 0.0
C813 C 0.91771 0.09778 0.28972 0.0
C814 C 0.75512 0.12544 0.24787 0.0
C815 C 0.77889 0.12018 0.24912 0.0
C816 C 0.83631 0.14188 0.26347 0.0
C817 C 0.88723 0.10128 0.27164 0.0
C818 C 0.86383 0.11004 0.26742 0.0
C819 C 0.79356 0.13356 0.25813 0.0
C820 C 0.81804 0.12574 0.261 0.0
H821 H 0.9252 0.05762 0.26292 0.0
H822 H 0.89007 0.07697 0.25385 0.0
H823 H 0.87272 0.14678 0.26878 0.0
H824 H 0.75323 0.17396 0.26919 0.0
H825 H 0.79476 0.16405 0.27213 0.0
C826 C 0.9376 0.41114 0.52647 0.0
C827 C 0.92975 0.42262 0.53893 0.0
C828 C 0.92602 0.39128 0.52136 0.0
C829 C 0.87113 0.35799 0.52214 0.0
H830 H 0.91183 0.30451 0.51612 0.0
C831 C 0.83585 0.26379 0.51275 0.0
C832 C 0.84902 0.24909 0.50374 0.0
C833 C 0.84425 0.28607 0.51638 0.0
C834 C 0.90018 0.31932 0.51747 0.0
H835 H 0.90302 0.42261 0.5555 0.0
H836 H 0.88252 0.38814 0.54632 0.0
H837 H 0.92873 0.34182 0.52312 0.0
H838 H 0.88046 0.2465 0.49078 0.0
H839 H 0.89456 0.28545 0.49656 0.0
H840 H 0.84255 0.33553 0.51625 0.0
C841 C 0.89767 0.39461 0.54056 0.0
C842 C 0.90991 0.34069 0.52154 0.0
C843 C 0.9094 0.41437 0.54578 0.0
C844 C 0.87014 0.25733 0.49795 0.0
C845 C 0.87829 0.27964 0.50135 0.0
C846 C 0.86136 0.3366 0.51785 0.0
C847 C 0.9062 0.38261 0.52849 0.0
C848 C 0.89552 0.36022 0.5239 0.0
C849 C 0.86578 0.29411 0.51089 0.0
C850 C 0.87581 0.317 0.51543 0.0
H851 H 0.95288 0.41732 0.52074 0.0
H852 H 0.93274 0.38249 0.5119 0.0
H853 H 0.85969 0.37286 0.52387 0.0
H854 H 0.8195 0.2578 0.51736 0.0
H855 H 0.83422 0.29664 0.52384 0.0
C856 C 0.59107 0.08217 0.474 0.0
C857 C 0.59178 0.075 0.45959 0.0
C858 C 0.60867 0.09666 0.47959 0.0
C859 C 0.65831 0.10818 0.48954 0.0
H860 H 0.6895 0.1561 0.46731 0.0
C861 C 0.75692 0.12371 0.49184 0.0
C862 C 0.76591 0.14655 0.49117 0.0
C863 C 0.7329 0.11965 0.49055 0.0
C864 C 0.68077 0.1431 0.47381 0.0
H865 H 0.61037 0.07858 0.43949 0.0
H866 H 0.64115 0.10359 0.44922 0.0
H867 H 0.6509 0.14188 0.45985 0.0
H868 H 0.75662 0.18314 0.48893 0.0
H869 H 0.71438 0.17589 0.48642 0.0
H870 H 0.68858 0.10872 0.50315 0.0
C871 C 0.62706 0.09816 0.45623 0.0
C872 C 0.65878 0.13482 0.46947 0.0
C873 C 0.60962 0.08359 0.45069 0.0
C874 C 0.75022 0.16534 0.48947 0.0
C875 C 0.7261 0.16121 0.48801 0.0
C876 C 0.68031 0.11639 0.49383 0.0
C877 C 0.62711 0.1044 0.47081 0.0
C878 C 0.64775 0.11665 0.47698 0.0
C879 C 0.71725 0.13829 0.48847 0.0
C880 C 0.69214 0.13326 0.4857 0.0
H881 H 0.57749 0.07578 0.48108 0.0
H882 H 0.6082 0.10131 0.49085 0.0
H883 H 0.65034 0.0941 0.49552 0.0
H884 H 0.76847 0.10884 0.49323 0.0
H885 H 0.72666 0.10176 0.49072 0.0
C886 C 0.94181 0.10523 0.72577 0.0
C887 C 0.93437 0.09163 0.71403 0.0
C888 C 0.92798 0.12361 0.73088 0.0
C889 C 0.88121 0.16349 0.71846 0.0
H890 H 0.88586 0.18646 0.75754 0.0
C891 C 0.84179 0.25201 0.73681 0.0
C892 C 0.85969 0.26698 0.7417 0.0
C893 C 0.84602 0.22801 0.73532 0.0
C894 C 0.88419 0.18005 0.74664 0.0
H895 H 0.90587 0.08621 0.69886 0.0
H896 H 0.88129 0.11733 0.70826 0.0
H897 H 0.90168 0.14798 0.75146 0.0
H898 H 0.89545 0.2686 0.74965 0.0
H899 H 0.90257 0.2267 0.7474 0.0
H900 H 0.86387 0.19576 0.71371 0.0
C901 C 0.89816 0.11427 0.71327 0.0
C902 C 0.89343 0.15814 0.7431 0.0
C903 C 0.91217 0.09613 0.708 0.0
C904 C 0.88142 0.25746 0.74575 0.0
C905 C 0.88543 0.2335 0.74459 0.0
C906 C 0.87161 0.18519 0.72207 0.0
C907 C 0.90615 0.12865 0.72453 0.0
C908 C 0.89285 0.14996 0.72885 0.0
C909 C 0.86796 0.21865 0.73909 0.0
C910 C 0.87375 0.19396 0.73607 0.0
H911 H 0.95857 0.102 0.73088 0.0
H912 H 0.93494 0.1344 0.73945 0.0
H913 H 0.88066 0.15802 0.70735 0.0
H914 H 0.82491 0.25897 0.73359 0.0
H915 H 0.83234 0.21683 0.73101 0.0
C916 C 0.90983 0.41245 0.96321 0.0
C917 C 0.91431 0.43565 0.96742 0.0
C918 C 0.89004 0.40073 0.96841 0.0
C919 C 0.83133 0.41653 0.97909 0.0
H920 H 0.82368 0.35249 0.99168 0.0
C921 C 0.74194 0.38522 0.99732 0.0
C922 C 0.73425 0.36322 0.99255 0.0
C923 C 0.76539 0.39162 0.99599 0.0
C924 C 0.82558 0.37034 0.98806 0.0
H925 H 0.9033 0.46398 0.98137 0.0
H926 H 0.86891 0.44354 0.9905 0.0
H927 H 0.86318 0.36767 0.98665 0.0
H928 H 0.74515 0.33018 0.98323 0.0
H929 H 0.78633 0.34177 0.98035 0.0
H930 H 0.79411 0.41932 0.97992 0.0
C931 C 0.88032 0.43456 0.983 0.0
C932 C 0.84813 0.379 0.98525 0.0
C933 C 0.89995 0.44623 0.97779 0.0
C934 C 0.75068 0.3473 0.98695 0.0
C935 C 0.77423 0.3539 0.98537 0.0
C936 C 0.80897 0.40789 0.98174 0.0
C937 C 0.87461 0.41213 0.97788 0.0
C938 C 0.85115 0.4023 0.98094 0.0
C939 C 0.78167 0.37639 0.98956 0.0
C940 C 0.80577 0.38483 0.98646 0.0
H941 H 0.92067 0.40398 0.95519 0.0
H942 H 0.88597 0.38346 0.96429 0.0
H943 H 0.83309 0.43435 0.97537 0.0
H944 H 0.72975 0.39765 0.00199 0.0
H945 H 0.77066 0.40879 -0.00024 0.0
C946 C 0.59812 0.41596 0.21176 0.0
C947 C 0.57362 0.41475 0.21339 0.0
C948 C 0.61254 0.39868 0.21763 0.0
C949 C 0.61316 0.35044 0.24391 0.0
H950 H 0.65702 0.32094 0.21769 0.0
C951 C 0.63967 0.25472 0.24867 0.0
C952 C 0.66298 0.24809 0.24596 0.0
C953 C 0.6324 0.27766 0.24643 0.0
C954 C 0.64522 0.32925 0.22525 0.0
H955 H 0.54507 0.39529 0.22293 0.0
H956 H 0.57011 0.3651 0.23307 0.0
H957 H 0.63765 0.3573 0.21087 0.0
H958 H 0.69707 0.26031 0.2389 0.0
H959 H 0.68419 0.30063 0.23482 0.0
H960 H 0.62002 0.32194 0.25804 0.0
C961 C 0.57826 0.37938 0.22734 0.0
C962 C 0.63414 0.35008 0.22136 0.0
C963 C 0.56388 0.3965 0.22141 0.0
C964 C 0.67897 0.26494 0.24105 0.0
C965 C 0.67162 0.28796 0.2387 0.0
C966 C 0.62421 0.32965 0.24779 0.0
C967 C 0.6027 0.38007 0.22534 0.0
C968 C 0.61741 0.36044 0.23045 0.0
C969 C 0.64824 0.29451 0.24138 0.0
C970 C 0.63974 0.31844 0.2383 0.0
H971 H 0.60605 0.4298 0.20555 0.0
H972 H 0.63133 0.39969 0.21598 0.0
H973 H 0.60068 0.35829 0.25125 0.0
H974 H 0.62692 0.24216 0.25247 0.0
H975 H 0.61417 0.28206 0.24835 0.0
C976 C 0.08752 0.9466 0.37869 0.0
C977 C 0.0866 0.93901 0.36437 0.0
C978 C 0.09821 0.93289 0.3891 0.0
C979 C 0.14073 0.88644 0.39561 0.0
H980 H 0.10544 0.87975 0.43085 0.0
C981 C 0.16995 0.83145 0.4456 0.0
C982 C 0.16599 0.84273 0.45879 0.0
C983 C 0.16184 0.8415 0.43284 0.0
C984 C 0.11556 0.88153 0.4211 0.0
H985 H 0.09676 0.91137 0.34964 0.0
H986 H 0.11566 0.88722 0.36802 0.0
H987 H 0.08798 0.90025 0.41073 0.0
H988 H 0.15203 0.87401 0.46892 0.0
H989 H 0.13834 0.8915 0.44686 0.0
H990 H 0.16856 0.86799 0.40626 0.0
C991 C 0.10803 0.90386 0.37108 0.0
C992 C 0.10556 0.89324 0.40959 0.0
C993 C 0.09711 0.91757 0.36062 0.0
C994 C 0.15506 0.86471 0.45895 0.0
C995 C 0.14709 0.8747 0.44631 0.0
C996 C 0.15084 0.87467 0.40722 0.0
C997 C 0.10829 0.91125 0.38545 0.0
C998 C 0.11825 0.8964 0.39688 0.0
C999 C 0.1497 0.86291 0.43318 0.0
C1000 C 0.13855 0.87274 0.4202 0.0
H1001 H 0.07934 0.96288 0.38196 0.0
H1002 H 0.09842 0.93915 0.40008 0.0
H1003 H 0.15084 0.88862 0.38589 0.0
H1004 H 0.17837 0.81448 0.44519 0.0
H1005 H 0.16415 0.83211 0.42283 0.0
C1006 C 0.08881 0.58313 0.62018 0.0
C1007 C 0.06971 0.59322 0.61296 0.0
C1008 C 0.10247 0.59642 0.62958 0.0
C1009 C 0.09843 0.64778 0.65301 0.0
H1010 H 0.16423 0.63365 0.6593 0.0
C1011 C 0.14766 0.679 0.70376 0.0
C1012 C 0.15651 0.6597 0.71128 0.0
C1013 C 0.14095 0.67657 0.68938 0.0
C1014 C 0.14594 0.63801 0.65756 0.0
H1015 H 0.05054 0.62546 0.60951 0.0
H1016 H 0.07448 0.64878 0.62603 0.0
H1017 H 0.14458 0.61884 0.63783 0.0
H1018 H 0.1669 0.62334 0.70952 0.0
H1019 H 0.15569 0.61924 0.68449 0.0
H1020 H 0.09965 0.66619 0.67304 0.0
C1021 C 0.07869 0.63047 0.6245 0.0
C1022 C 0.13465 0.62943 0.64533 0.0
C1023 C 0.06496 0.61712 0.61507 0.0
C1024 C 0.15996 0.63845 0.70399 0.0
C1025 C 0.15373 0.63616 0.68962 0.0
C1026 C 0.1098 0.6565 0.6652 0.0
C1027 C 0.09742 0.62019 0.632 0.0
C1028 C 0.1105 0.63334 0.64324 0.0
C1029 C 0.14356 0.65498 0.68227 0.0
C1030 C 0.13339 0.65084 0.66788 0.0
H1031 H 0.0927 0.56469 0.619 0.0
H1032 H 0.11639 0.58776 0.63541 0.0
H1033 H 0.0798 0.65102 0.65179 0.0
H1034 H 0.1448 0.69556 0.70917 0.0
H1035 H 0.13315 0.69132 0.68392 0.0
C1036 C 0.40638 0.55499 0.87247 0.0
C1037 C 0.41956 0.57065 0.86418 0.0
C1038 C 0.39324 0.5631 0.88409 0.0
C1039 C 0.36564 0.61336 0.90135 0.0
H1040 H 0.38791 0.5859 0.93671 0.0
C1041 C 0.34784 0.65494 0.95701 0.0
C1042 C 0.3484 0.64048 0.96907 0.0
C1043 C 0.35219 0.64557 0.94338 0.0
C1044 C 0.38087 0.59342 0.927 0.0
H1045 H 0.4282 0.60711 0.86093 0.0
H1046 H 0.40474 0.62139 0.8812 0.0
H1047 H 0.4023 0.57114 0.914 0.0
H1048 H 0.35198 0.60494 0.9765 0.0
H1049 H 0.35779 0.58821 0.95273 0.0
H1050 H 0.34386 0.63544 0.9143 0.0
C1051 C 0.40475 0.60286 0.8787 0.0
C1052 C 0.38934 0.58501 0.91396 0.0
C1053 C 0.41825 0.59471 0.86721 0.0
C1054 C 0.35173 0.61639 0.96729 0.0
C1055 C 0.35534 0.60692 0.95367 0.0
C1056 C 0.35671 0.6215 0.91444 0.0
C1057 C 0.39273 0.58703 0.88748 0.0
C1058 C 0.38203 0.59506 0.90105 0.0
C1059 C 0.35662 0.62148 0.94157 0.0
C1060 C 0.36444 0.61182 0.92748 0.0
H1061 H 0.40725 0.53634 0.87045 0.0
H1062 H 0.38408 0.55059 0.89072 0.0
H1063 H 0.35976 0.62133 0.89148 0.0
H1064 H 0.34546 0.67364 0.95821 0.0
H1065 H 0.35323 0.65746 0.93443 0.0
C1066 C 0.4453 0.91197 0.12313 0.0
C1067 C 0.43288 0.92471 0.11281 0.0
C1068 C 0.43339 0.89776 0.13281 0.0
C1069 C 0.37426 0.88997 0.14868 0.0
H1070 H 0.4044 0.83645 0.1662 0.0
C1071 C 0.33209 0.83734 0.19476 0.0
C1072 C 0.34605 0.83841 0.20716 0.0
C1073 C 0.34146 0.84367 0.18149 0.0
C1074 C 0.39573 0.85124 0.16129 0.0
H1075 H 0.39848 0.93189 0.104 0.0
H1076 H 0.37759 0.90633 0.12053 0.0
H1077 H 0.42265 0.8551 0.14557 0.0
H1078 H 0.38093 0.84558 0.21539 0.0
H1079 H 0.39746 0.85593 0.19215 0.0
H1080 H 0.3473 0.88586 0.16445 0.0
C1081 C 0.39647 0.90783 0.12151 0.0
C1082 C 0.40624 0.86209 0.14956 0.0
C1083 C 0.40839 0.92239 0.11199 0.0
C1084 C 0.36978 0.84471 0.206 0.0
C1085 C 0.37927 0.8505 0.19271 0.0
C1086 C 0.36355 0.87881 0.16022 0.0
C1087 C 0.40877 0.89566 0.13224 0.0
C1088 C 0.39603 0.88208 0.14338 0.0
C1089 C 0.36506 0.85055 0.18041 0.0
C1090 C 0.37452 0.85977 0.16685 0.0
H1091 H 0.46419 0.91368 0.12407 0.0
H1092 H 0.44351 0.88915 0.14107 0.0
H1093 H 0.36597 0.90546 0.1444 0.0
H1094 H 0.31371 0.83259 0.1954 0.0
H1095 H 0.33021 0.84362 0.17212 0.0
C1096 C 0.08244 0.5635 0.87385 0.0
C1097 C 0.06975 0.57631 0.88412 0.0
C1098 C 0.0947 0.575 0.86307 0.0
C1099 C 0.12233 0.62909 0.85208 0.0
H1100 H 0.10299 0.61047 0.81384 0.0
C1101 C 0.15132 0.67844 0.8008 0.0
C1102 C 0.15374 0.66524 0.78817 0.0
C1103 C 0.14289 0.66797 0.81329 0.0
C1104 C 0.10902 0.61562 0.8244 0.0
H1105 H 0.06074 0.61109 0.89161 0.0
H1106 H 0.08267 0.63132 0.87274 0.0
H1107 H 0.08579 0.59142 0.83447 0.0
H1108 H 0.15083 0.63058 0.77886 0.0
H1109 H 0.13744 0.61209 0.80067 0.0
H1110 H 0.14608 0.65291 0.842 0.0
C1111 C 0.08293 0.6124 0.87307 0.0
C1112 C 0.099 0.60478 0.83621 0.0
C1113 C 0.07032 0.60086 0.88376 0.0
C1114 C 0.14878 0.64125 0.78839 0.0
C1115 C 0.1409 0.6307 0.8009 0.0
C1116 C 0.13274 0.63973 0.8402 0.0
C1117 C 0.09476 0.5995 0.86247 0.0
C1118 C 0.1056 0.61134 0.85013 0.0
C1119 C 0.13714 0.64402 0.81341 0.0
C1120 C 0.12627 0.63302 0.82619 0.0
H1121 H 0.08212 0.54456 0.87381 0.0
H1122 H 0.10377 0.56473 0.85501 0.0
H1123 H 0.12766 0.63439 0.86276 0.0
H1124 H 0.155 0.69703 0.80086 0.0
H1125 H 0.14008 0.67884 0.82267 0.0
C1126 C 0.44399 0.59133 0.12582 0.0
C1127 C 0.43179 0.5782 0.13604 0.0
C1128 C 0.43192 0.60628 0.11663 0.0
C1129 C 0.37252 0.61566 0.10157 0.0
H1130 H 0.40279 0.66985 0.08496 0.0
C1131 C 0.33041 0.66874 0.0558 0.0
C1132 C 0.3446 0.66799 0.04352 0.0
C1133 C 0.33972 0.66264 0.06915 0.0
C1134 C 0.39406 0.6549 0.08964 0.0
H1135 H 0.39763 0.57105 0.14514 0.0
H1136 H 0.37648 0.59781 0.12942 0.0
H1137 H 0.4212 0.65002 0.10517 0.0
H1138 H 0.37983 0.66191 0.03559 0.0
H1139 H 0.39622 0.65192 0.05895 0.0
H1140 H 0.34545 0.62065 0.08593 0.0
C1141 C 0.3953 0.5961 0.12817 0.0
C1142 C 0.40466 0.64338 0.10111 0.0
C1143 C 0.40737 0.58083 0.13722 0.0
C1144 C 0.3685 0.66249 0.0449 0.0
C1145 C 0.3779 0.65693 0.05826 0.0
C1146 C 0.36175 0.62745 0.09027 0.0
C1147 C 0.40737 0.60873 0.11758 0.0
C1148 C 0.39443 0.62311 0.10691 0.0
C1149 C 0.36346 0.65632 0.07042 0.0
C1150 C 0.37278 0.64671 0.08394 0.0
H1151 H 0.4628 0.5894 0.12459 0.0
H1152 H 0.44183 0.61524 0.10844 0.0
H1153 H 0.36421 0.59999 0.10557 0.0
H1154 H 0.3119 0.67286 0.05499 0.0
H1155 H 0.32827 0.66227 0.07841 0.0
C1156 C 0.42429 0.9085 0.38287 0.0
C1157 C 0.4253 0.93267 0.38567 0.0
C1158 C 0.41056 0.89982 0.37159 0.0
C1159 C 0.39131 0.91765 0.3365 0.0
H1160 H 0.35045 0.86345 0.33716 0.0
C1161 C 0.34996 0.88534 0.28442 0.0
C1162 C 0.34935 0.86113 0.28218 0.0
C1163 C 0.35409 0.89447 0.29808 0.0
C1164 C 0.36197 0.87849 0.33675 0.0
H1165 H 0.41214 0.96657 0.37915 0.0
H1166 H 0.38835 0.9514 0.35943 0.0
H1167 H 0.3676 0.87819 0.35953 0.0
H1168 H 0.35174 0.8273 0.29229 0.0
H1169 H 0.36024 0.84309 0.31613 0.0
H1170 H 0.38711 0.91747 0.31385 0.0
C1171 C 0.39808 0.93921 0.366 0.0
C1172 C 0.37166 0.88696 0.34958 0.0
C1173 C 0.41157 0.94785 0.37735 0.0
C1174 C 0.35194 0.84608 0.29387 0.0
C1175 C 0.35672 0.85519 0.30752 0.0
C1176 C 0.382 0.90902 0.32371 0.0
C1177 C 0.39787 0.91519 0.36281 0.0
C1178 C 0.38644 0.90661 0.34953 0.0
C1179 C 0.35857 0.87953 0.30971 0.0
C1180 C 0.3672 0.8893 0.32361 0.0
H1181 H 0.43457 0.8964 0.38918 0.0
H1182 H 0.41079 0.88123 0.3693 0.0
H1183 H 0.40303 0.93256 0.33612 0.0
H1184 H 0.34787 0.89721 0.2755 0.0
H1185 H 0.35457 0.91328 0.29939 0.0
C1186 C 0.05475 0.92318 0.61796 0.0
C1187 C 0.06496 0.92532 0.63161 0.0
C1188 C 0.06595 0.91057 0.60716 0.0
C1189 C 0.11025 0.86606 0.59888 0.0
H1190 H 0.11025 0.89756 0.5622 0.0
C1191 C 0.15812 0.83808 0.54515 0.0
C1192 C 0.14389 0.84096 0.53297 0.0
C1193 C 0.1496 0.84445 0.55873 0.0
C1194 C 0.11031 0.8885 0.57237 0.0
H1195 H 0.09467 0.91518 0.64475 0.0
H1196 H 0.11454 0.89319 0.62562 0.0
H1197 H 0.09399 0.91723 0.58306 0.0
H1198 H 0.10914 0.85016 0.52544 0.0
H1199 H 0.09421 0.86075 0.54901 0.0
H1200 H 0.12668 0.83719 0.58787 0.0
C1201 C 0.09773 0.90127 0.62342 0.0
C1202 C 0.10099 0.89974 0.5843 0.0
C1203 C 0.08647 0.914 0.6343 0.0
C1204 C 0.12049 0.84801 0.53467 0.0
C1205 C 0.11199 0.85415 0.54813 0.0
C1206 C 0.11975 0.85473 0.58683 0.0
C1207 C 0.08775 0.89987 0.60967 0.0
C1208 C 0.1002 0.88844 0.59759 0.0
C1209 C 0.1268 0.85362 0.56015 0.0
C1210 C 0.11918 0.86568 0.5734 0.0
H1211 H 0.0384 0.9319 0.61542 0.0
H1212 H 0.05766 0.90952 0.59672 0.0
H1213 H 0.10994 0.85702 0.60904 0.0
H1214 H 0.17629 0.83278 0.54404 0.0
H1215 H 0.1613 0.84387 0.56788 0.0
C1216 C 0.57749 0.45312 0.88056 0.0
C1217 C 0.57809 0.44566 0.8662 0.0
C1218 C 0.5878 0.43972 0.89127 0.0
C1219 C 0.63112 0.394 0.89866 0.0
H1220 H 0.59399 0.38614 0.93309 0.0
C1221 C 0.65895 0.33629 0.9473 0.0
C1222 C 0.65435 0.34608 0.96086 0.0
C1223 C 0.6508 0.34731 0.93488 0.0
C1224 C 0.60467 0.38832 0.9236 0.0
H1225 H 0.59057 0.41857 0.85176 0.0
H1226 H 0.60865 0.39493 0.87064 0.0
H1227 H 0.57763 0.40737 0.91292 0.0
H1228 H 0.63866 0.37554 0.97203 0.0
H1229 H 0.62485 0.39479 0.95051 0.0
H1230 H 0.65833 0.37511 0.90954 0.0
C1231 C 0.60018 0.41125 0.87352 0.0
C1232 C 0.59529 0.40046 0.91205 0.0
C1233 C 0.58971 0.42467 0.86275 0.0
C1234 C 0.64227 0.36742 0.96175 0.0
C1235 C 0.63422 0.37839 0.94941 0.0
C1236 C 0.64059 0.38184 0.9103 0.0
C1237 C 0.59896 0.4185 0.88791 0.0
C1238 C 0.60856 0.40387 0.89957 0.0
C1239 C 0.63793 0.36824 0.93587 0.0
C1240 C 0.62761 0.37934 0.923 0.0
H1241 H 0.56843 0.46904 0.88361 0.0
H1242 H 0.58686 0.4459 0.90225 0.0
H1243 H 0.64172 0.3964 0.88916 0.0
H1244 H 0.66826 0.31985 0.94631 0.0
H1245 H 0.6539 0.33909 0.92457 0.0
C1246 C 0.59537 0.07289 0.11775 0.0
C1247 C 0.57348 0.08185 0.11345 0.0
C1248 C 0.60937 0.08508 0.12751 0.0
C1249 C 0.61745 0.142 0.14648 0.0
H1250 H 0.64416 0.10202 0.17566 0.0
C1251 C 0.64774 0.17168 0.20337 0.0
C1252 C 0.6661 0.15892 0.20958 0.0
C1253 C 0.64007 0.16617 0.18948 0.0
C1254 C 0.63728 0.11348 0.16746 0.0
H1255 H 0.54983 0.11142 0.11559 0.0
H1256 H 0.57384 0.1322 0.13318 0.0
H1257 H 0.62346 0.08464 0.15565 0.0
H1258 H 0.69239 0.13225 0.20601 0.0
H1259 H 0.67975 0.12327 0.18162 0.0
H1260 H 0.63075 0.17095 0.15884 0.0
C1261 C 0.58031 0.11587 0.12878 0.0
C1262 C 0.62535 0.10348 0.15595 0.0
C1263 C 0.56636 0.10376 0.11885 0.0
C1264 C 0.67814 0.14225 0.20137 0.0
C1265 C 0.67076 0.137 0.18749 0.0
C1266 C 0.62939 0.15209 0.15813 0.0
C1267 C 0.60174 0.10639 0.13346 0.0
C1268 C 0.61525 0.11754 0.14531 0.0
C1269 C 0.65082 0.14793 0.1817 0.0
C1270 C 0.63943 0.13788 0.16874 0.0
H1271 H 0.60142 0.056 0.11399 0.0
H1272 H 0.62599 0.07747 0.13067 0.0
H1273 H 0.60998 0.15333 0.13841 0.0
H1274 H 0.6381 0.18446 0.20964 0.0
H1275 H 0.62463 0.17488 0.18532 0.0
C1276 C 0.92058 0.0932 0.36113 0.0
C1277 C 0.94151 0.08159 0.36474 0.0
C1278 C 0.9077 0.10513 0.37167 0.0
C1279 C 0.91459 0.12999 0.40828 0.0
H1280 H 0.84668 0.12573 0.41021 0.0
C1281 C 0.86441 0.14423 0.46014 0.0
C1282 C 0.848 0.16256 0.46016 0.0
C1283 C 0.87364 0.13584 0.4473 0.0
C1284 C 0.86562 0.12725 0.40965 0.0
H1285 H 0.96475 0.0724 0.38223 0.0
H1286 H 0.94229 0.09268 0.40052 0.0
H1287 H 0.86758 0.1084 0.38975 0.0
H1288 H 0.8274 0.18564 0.44674 0.0
H1289 H 0.84337 0.17038 0.42406 0.0
H1290 H 0.91272 0.14777 0.42847 0.0
C1291 C 0.93614 0.09339 0.38955 0.0
C1292 C 0.87758 0.11743 0.39796 0.0
C1293 C 0.94902 0.08169 0.37907 0.0
C1294 C 0.84011 0.17156 0.44702 0.0
C1295 C 0.84915 0.16285 0.43408 0.0
C1296 C 0.90271 0.13946 0.41998 0.0
C1297 C 0.91547 0.1055 0.38598 0.0
C1298 C 0.90228 0.11817 0.39736 0.0
C1299 C 0.86641 0.14534 0.4342 0.0
C1300 C 0.87821 0.13771 0.42091 0.0
H1301 H 0.91442 0.09338 0.35015 0.0
H1302 H 0.8919 0.11434 0.36856 0.0
H1303 H 0.93354 0.13149 0.40797 0.0
H1304 H 0.87078 0.13686 0.47008 0.0
H1305 H 0.8868 0.12217 0.4476 0.0
C1306 C 0.91149 0.45023 0.62796 0.0
C1307 C 0.92227 0.44086 0.61565 0.0
C1308 C 0.89905 0.43587 0.63729 0.0
C1309 C 0.89824 0.37715 0.65087 0.0
H1310 H 0.83786 0.39482 0.66679 0.0
C1311 C 0.82738 0.3448 0.69639 0.0
C1312 C 0.84211 0.34505 0.70847 0.0
C1313 C 0.83574 0.3525 0.68315 0.0
C1314 C 0.85455 0.38946 0.66229 0.0
H1315 H 0.9275 0.40897 0.60329 0.0
H1316 H 0.90655 0.38376 0.62 0.0
H1317 H 0.85419 0.41698 0.6468 0.0
H1318 H 0.87738 0.35216 0.71609 0.0
H1319 H 0.89209 0.36512 0.69291 0.0
H1320 H 0.89915 0.3504 0.66686 0.0
C1321 C 0.90775 0.40232 0.62229 0.0
C1322 C 0.86394 0.40222 0.65094 0.0
C1323 C 0.91988 0.41676 0.6128 0.0
C1324 C 0.86563 0.35189 0.70695 0.0
C1325 C 0.87409 0.35917 0.69368 0.0
C1326 C 0.88903 0.36463 0.66237 0.0
C1327 C 0.89737 0.41175 0.63466 0.0
C1328 C 0.88606 0.39645 0.64533 0.0
C1329 C 0.85907 0.36008 0.68175 0.0
C1330 C 0.86732 0.37098 0.66835 0.0
H1331 H 0.91328 0.46856 0.6307 0.0
H1332 H 0.89148 0.4435 0.64688 0.0
H1333 H 0.91541 0.37247 0.64677 0.0
H1334 H 0.80915 0.33962 0.69729 0.0
H1335 H 0.82386 0.35301 0.67408 0.0
C1336 C 0.59557 0.07859 0.38338 0.0
C1337 C 0.58454 0.05721 0.38008 0.0
C1338 C 0.60655 0.09156 0.37263 0.0
C1339 C 0.60416 0.09996 0.33375 0.0
H1340 H 0.66549 0.12874 0.33791 0.0
C1341 C 0.65275 0.13502 0.28522 0.0
C1342 C 0.66337 0.15709 0.28636 0.0
C1343 C 0.6446 0.12362 0.29737 0.0
C1344 C 0.64823 0.12101 0.33668 0.0
H1345 H 0.57664 0.03258 0.36298 0.0
H1346 H 0.59602 0.05494 0.34436 0.0
H1347 H 0.64841 0.10724 0.35802 0.0
H1348 H 0.67464 0.1842 0.30117 0.0
H1349 H 0.66008 0.16421 0.32257 0.0
H1350 H 0.6038 0.11356 0.31252 0.0
C1351 C 0.59604 0.0618 0.35521 0.0
C1352 C 0.63849 0.10873 0.34816 0.0
C1353 C 0.58517 0.04885 0.36591 0.0
C1354 C 0.66647 0.1672 0.29999 0.0
C1355 C 0.65822 0.15575 0.31222 0.0
C1356 C 0.61383 0.11221 0.32235 0.0
C1357 C 0.60652 0.08345 0.35839 0.0
C1358 C 0.61653 0.09772 0.34669 0.0
C1359 C 0.64675 0.13405 0.31096 0.0
C1360 C 0.63615 0.12249 0.32357 0.0
H1361 H 0.59554 0.08538 0.39423 0.0
H1362 H 0.61445 0.10822 0.37538 0.0
H1363 H 0.58695 0.09218 0.33242 0.0
H1364 H 0.65031 0.12664 0.27488 0.0
H1365 H 0.63634 0.10667 0.29608 0.0
C1366 C 0.94218 0.10301 0.62867 0.0
C1367 C 0.93175 0.08489 0.63655 0.0
C1368 C 0.92907 0.11559 0.61866 0.0
C1369 C 0.87911 0.10649 0.59497 0.0
H1370 H 0.88578 0.17245 0.58651 0.0
C1371 C 0.83415 0.14355 0.54565 0.0
C1372 C 0.84791 0.15825 0.53716 0.0
C1373 C 0.8407 0.13888 0.55974 0.0
C1374 C 0.8838 0.15399 0.5887 0.0
H1375 H 0.89898 0.06701 0.64089 0.0
H1376 H 0.87615 0.08885 0.62334 0.0
H1377 H 0.9045 0.15628 0.6079 0.0
H1378 H 0.8786 0.18046 0.53662 0.0
H1379 H 0.89078 0.17161 0.56115 0.0
H1380 H 0.85954 0.10364 0.57559 0.0
C1381 C 0.89456 0.09306 0.62475 0.0
C1382 C 0.89447 0.14477 0.60097 0.0
C1383 C 0.90764 0.08052 0.63476 0.0
C1384 C 0.86766 0.16923 0.54312 0.0
C1385 C 0.87453 0.16418 0.55717 0.0
C1386 C 0.86866 0.1156 0.58271 0.0
C1387 C 0.90528 0.11028 0.61631 0.0
C1388 C 0.8924 0.12086 0.60414 0.0
C1389 C 0.86157 0.14826 0.56548 0.0
C1390 C 0.87102 0.13942 0.57931 0.0
H1391 H 0.96076 0.10669 0.62971 0.0
H1392 H 0.93788 0.1286 0.61222 0.0
H1393 H 0.87759 0.0879 0.59693 0.0
H1394 H 0.8188 0.13497 0.54119 0.0
H1395 H 0.82991 0.12709 0.56594 0.0
C1396 C 0.90057 0.42331 0.88874 0.0
C1397 C 0.90901 0.44587 0.88571 0.0
C1398 C 0.88812 0.41057 0.87839 0.0
C1399 C 0.88209 0.38316 0.85049 0.0
H1400 H 0.83874 0.4115 0.8236 0.0
C1401 C 0.87469 0.35516 0.79188 0.0
C1402 C 0.85257 0.35435 0.78522 0.0
C1403 C 0.87694 0.36299 0.80598 0.0
C1404 C 0.85047 0.40317 0.83116 0.0
H1405 H 0.91023 0.47292 0.8695 0.0
H1406 H 0.88831 0.45091 0.85164 0.0
H1407 H 0.84991 0.43271 0.84539 0.0
H1408 H 0.81533 0.36052 0.78824 0.0
H1409 H 0.8194 0.37478 0.81297 0.0
H1410 H 0.88343 0.35406 0.83597 0.0
C1411 C 0.89112 0.44314 0.86205 0.0
C1412 C 0.85702 0.41539 0.84355 0.0
C1413 C 0.90371 0.45578 0.87233 0.0
C1414 C 0.8326 0.36094 0.79311 0.0
C1415 C 0.83492 0.36916 0.80721 0.0
C1416 C 0.87568 0.37104 0.83806 0.0
C1417 C 0.88366 0.42021 0.86484 0.0
C1418 C 0.87346 0.4058 0.85312 0.0
C1419 C 0.85717 0.37045 0.81371 0.0
C1420 C 0.86039 0.38124 0.82806 0.0
H1421 H 0.90395 0.4153 0.89902 0.0
H1422 H 0.88237 0.39301 0.88088 0.0
H1423 H 0.89489 0.37536 0.8576 0.0
H1424 H 0.89039 0.35004 0.78613 0.0
H1425 H 0.89435 0.36407 0.81063 0.0
C1426 C 0.58709 0.42218 0.12781 0.0
C1427 C 0.56671 0.41371 0.13446 0.0
C1428 C 0.6001 0.4079 0.11863 0.0
C1429 C 0.59327 0.35784 0.0945 0.0
H1430 H 0.66065 0.36549 0.0908 0.0
C1431 C 0.64316 0.32519 0.04449 0.0
C1432 C 0.65431 0.34414 0.03785 0.0
C1433 C 0.63579 0.32708 0.05878 0.0
C1434 C 0.64188 0.3629 0.09181 0.0
H1435 H 0.54443 0.38327 0.13702 0.0
H1436 H 0.56715 0.35828 0.12081 0.0
H1437 H 0.64056 0.38143 0.11177 0.0
H1438 H 0.66819 0.37905 0.04105 0.0
H1439 H 0.65591 0.38215 0.06592 0.0
H1440 H 0.59452 0.34023 0.0742 0.0
C1441 C 0.57292 0.37609 0.12267 0.0
C1442 C 0.63036 0.37214 0.10376 0.0
C1443 C 0.55988 0.39041 0.13191 0.0
C1444 C 0.65949 0.36425 0.04593 0.0
C1445 C 0.65262 0.36594 0.0602 0.0
C1446 C 0.60484 0.34848 0.08257 0.0
C1447 C 0.59307 0.38476 0.11583 0.0
C1448 C 0.60579 0.37066 0.1049 0.0
C1449 C 0.64005 0.3477 0.06665 0.0
C1450 C 0.62909 0.35187 0.08082 0.0
H1451 H 0.59262 0.44015 0.12932 0.0
H1452 H 0.61518 0.41536 0.11329 0.0
H1453 H 0.57433 0.35646 0.09501 0.0
H1454 H 0.63893 0.30954 0.03842 0.0
H1455 H 0.62613 0.31278 0.06352 0.0
loop_
_geom_bond_atom_site_label_1
_geom_bond_atom_site_label_2
_geom_bond_distance
_geom_bond_site_symmetry_2
_ccdc_geom_bond_type
H0 C19 0.949 . S
H1 C20 0.950 . S
H2 C22 0.950 . S
H3 C23 0.950 . S
H4 C25 0.950 . S
H5 C28 0.950 . S
H6 C29 0.950 . S
H7 C31 0.951 . S
H8 C32 0.949 . S
H9 C34 0.949 . S
H10 C35 0.950 . S
H11 C37 0.950 . S
H12 C38 0.950 . S
H13 C40 0.944 1_565 S
H14 C43 0.950 . S
H15 C44 0.950 . S
H16 C46 0.951 . S
H17 C47 0.949 1_545 S
C18 C19 1.376 . S
C18 C23 1.386 . S
C18 C24 1.483 . S
C19 H0 0.949 . S
C19 C18 1.376 . S
C19 C20 1.397 . S
C20 H1 0.950 . S
C20 C19 1.397 . S
C20 C21 1.391 . S
C21 C20 1.391 . S
C21 C22 1.405 . S
C22 H2 0.950 . S
C22 C21 1.405 . S
C22 C23 1.367 . S
C23 H3 0.950 . S
C23 C18 1.386 . S
C23 C22 1.367 . S
C24 C18 1.483 . S
C24 C25 1.382 1_655 S
C24 C26 1.403 . S
C25 H4 0.950 . S
C25 C24 1.382 1_455 S
C25 C41 1.411 1_545 S
C26 C24 1.403 . S
C26 C27 1.489 . S
C26 C40 1.411 1_655 S
C27 C26 1.489 . S
C27 C28 1.383 . S
C27 C32 1.382 . S
C28 H5 0.950 . S
C28 C27 1.383 . S
C28 C29 1.395 . S
C29 H6 0.950 . S
C29 C28 1.395 . S
C29 C30 1.288 . S
C30 C29 1.288 . S
C30 C31 1.392 . S
C31 H7 0.951 . S
C31 C30 1.392 . S
C31 C32 1.392 . S
C32 H8 0.949 . S
C32 C27 1.382 . S
C32 C31 1.392 . S
C33 C34 1.376 . S
C33 C38 1.386 . S
C33 C39 1.483 . S
C34 H9 0.949 . S
C34 C33 1.376 . S
C34 C35 1.397 . S
C35 H10 0.950 . S
C35 C34 1.397 . S
C35 C36 1.391 . S
C36 C35 1.391 . S
C36 C37 1.405 . S
C37 H11 0.950 . S
C37 C36 1.405 . S
C37 C38 1.367 . S
C38 H12 0.950 . S
C38 C33 1.386 . S
C38 C37 1.367 . S
C39 C33 1.483 . S
C39 C40 1.382 1_565 S
C39 C41 1.403 . S
C40 H13 0.944 1_545 S
C40 C26 1.411 1_455 S
C40 C39 1.382 1_545 S
C41 C25 1.411 1_565 S
C41 C39 1.403 . S
C41 C42 1.489 . S
C42 C41 1.489 . S
C42 C43 1.383 . S
C42 C47 1.382 . S
C43 H14 0.950 . S
C43 C42 1.383 . S
C43 C44 1.395 . S
C44 H15 0.950 . S
C44 C43 1.395 . S
C44 C45 1.288 . S
C45 C44 1.288 . S
C45 C46 1.392 . S
C46 H16 0.951 . S
C46 C45 1.392 . S
C46 C47 1.392 . S
C47 H17 0.949 1_565 S
C47 C42 1.382 . S
C47 C46 1.392 . S
H48 C67 0.949 1_455 S
H49 C68 0.950 . S
H50 C70 0.950 . S
H51 C71 0.950 . S
H52 C73 0.950 . S
H53 C76 0.950 . S
H54 C77 0.950 . S
H55 C79 0.951 . S
H56 C80 0.949 . S
H57 C82 0.949 . S
H58 C83 0.950 . S
H59 C85 0.950 . S
H60 C86 0.950 . S
H61 C88 0.948 1_655 S
H62 C91 0.950 . S
H63 C92 0.950 . S
H64 C94 0.951 . S
H65 C95 0.949 . S
C66 C67 1.376 . S
C66 C71 1.386 . S
C66 C72 1.483 . S
C67 H48 0.949 1_655 S
C67 C66 1.376 . S
C67 C68 1.397 . S
C68 H49 0.950 . S
C68 C67 1.397 . S
C68 C69 1.391 . S
C69 C68 1.391 . S
C69 C70 1.405 . S
C70 H50 0.950 . S
C70 C69 1.405 . S
C70 C71 1.367 . S
C71 H51 0.950 . S
C71 C66 1.386 . S
C71 C70 1.367 . S
C72 C66 1.483 . S
C72 C73 1.382 1_655 S
C72 C74 1.403 . S
C73 H52 0.950 . S
C73 C72 1.382 1_455 S
C73 C89 1.411 . S
C74 C72 1.403 . S
C74 C75 1.489 . S
C74 C88 1.411 1_655 S
C75 C74 1.489 . S
C75 C76 1.383 . S
C75 C80 1.382 . S
C76 H53 0.950 . S
C76 C75 1.383 . S
C76 C77 1.395 . S
C77 H54 0.950 . S
C77 C76 1.395 . S
C77 C78 1.288 . S
C78 C77 1.288 . S
C78 C79 1.392 . S
C79 H55 0.951 . S
C79 C78 1.392 . S
C79 C80 1.392 . S
C80 H56 0.949 . S
C80 C75 1.382 . S
C80 C79 1.392 . S
C81 C82 1.376 . S
C81 C86 1.386 . S
C81 C87 1.483 . S
C82 H57 0.949 . S
C82 C81 1.376 . S
C82 C83 1.397 . S
C83 H58 0.950 . S
C83 C82 1.397 . S
C83 C84 1.391 . S
C84 C83 1.391 . S
C84 C85 1.405 . S
C85 H59 0.950 . S
C85 C84 1.405 . S
C85 C86 1.367 . S
C86 H60 0.950 . S
C86 C81 1.386 . S
C86 C85 1.367 . S
C87 C81 1.483 . S
C87 C88 1.382 . S
C87 C89 1.403 . S
C88 H61 0.948 1_455 S
C88 C74 1.411 1_455 S
C88 C87 1.382 . S
C89 C73 1.411 . S
C89 C87 1.403 . S
C89 C90 1.489 . S
C90 C89 1.489 . S
C90 C91 1.383 . S
C90 C95 1.382 . S
C91 H62 0.950 . S
C91 C90 1.383 . S
C91 C92 1.395 . S
C92 H63 0.950 . S
C92 C91 1.395 . S
C92 C93 1.288 . S
C93 C92 1.288 . S
C93 C94 1.392 . S
C94 H64 0.951 . S
C94 C93 1.392 . S
C94 C95 1.392 . S
C95 H65 0.949 . S
C95 C90 1.382 . S
C95 C94 1.392 . S
H96 C115 0.949 . S
H97 C116 0.950 . S
H98 C118 0.950 . S
H99 C119 0.950 . S
H100 C121 0.950 . S
H101 C124 0.950 . S
H102 C125 0.950 . S
H103 C127 0.951 . S
H104 C128 0.949 . S
H105 C130 0.949 . S
H106 C131 0.950 . S
H107 C133 0.950 . S
H108 C134 0.950 . S
H109 C136 0.950 . S
H110 C139 0.950 . S
H111 C140 0.950 . S
H112 C142 0.951 . S
H113 C143 0.949 . S
C114 C115 1.376 . S
C114 C119 1.386 . S
C114 C120 1.483 . S
C115 H96 0.949 . S
C115 C114 1.376 . S
C115 C116 1.397 . S
C116 H97 0.950 . S
C116 C115 1.397 . S
C116 C117 1.391 . S
C117 C116 1.391 . S
C117 C118 1.405 . S
C118 H98 0.950 . S
C118 C117 1.405 . S
C118 C119 1.367 . S
C119 H99 0.950 . S
C119 C114 1.386 . S
C119 C118 1.367 . S
C120 C114 1.483 . S
C120 C121 1.382 . S
C120 C122 1.403 . S
C121 H100 0.950 . S
C121 C120 1.382 . S
C121 C137 1.411 . S
C122 C120 1.403 . S
C122 C123 1.489 . S
C122 C136 1.411 . S
C123 C122 1.489 . S
C123 C124 1.383 . S
C123 C128 1.382 . S
C124 H101 0.950 . S
C124 C123 1.383 . S
C124 C125 1.395 . S
C125 H102 0.950 . S
C125 C124 1.395 . S
C125 C126 1.288 . S
C126 C125 1.288 . S
C126 C127 1.392 . S
C127 H103 0.951 . S
C127 C126 1.392 . S
C127 C128 1.392 . S
C128 H104 0.949 . S
C128 C123 1.382 . S
C128 C127 1.392 . S
C129 C130 1.376 . S
C129 C134 1.386 . S
C129 C135 1.483 . S
C130 H105 0.949 . S
C130 C129 1.376 . S
C130 C131 1.397 . S
C131 H106 0.950 . S
C131 C130 1.397 . S
C131 C132 1.391 . S
C132 C131 1.391 . S
C132 C133 1.405 . S
C133 H107 0.950 . S
C133 C132 1.405 . S
C133 C134 1.367 . S
C134 H108 0.950 . S
C134 C129 1.386 . S
C134 C133 1.367 . S
C135 C129 1.483 . S
C135 C136 1.382 . S
C135 C137 1.403 . S
C136 H109 0.950 . S
C136 C122 1.411 . S
C136 C135 1.382 . S
C137 C121 1.411 . S
C137 C135 1.403 . S
C137 C138 1.489 . S
C138 C137 1.489 . S
C138 C139 1.383 . S
C138 C143 1.382 . S
C139 H110 0.950 . S
C139 C138 1.383 . S
C139 C140 1.395 . S
C140 H111 0.950 . S
C140 C139 1.395 . S
C140 C141 1.288 . S
C141 C140 1.288 . S
C141 C142 1.392 . S
C142 H112 0.951 . S
C142 C141 1.392 . S
C142 C143 1.392 . S
C143 H113 0.949 . S
C143 C138 1.382 . S
C143 C142 1.392 . S
H144 C163 0.949 . S
H145 C164 0.950 . S
H146 C166 0.950 . S
H147 C167 0.950 . S
H148 C169 0.950 . S
H149 C172 0.950 . S
H150 C173 0.950 . S
H151 C175 0.951 . S
H152 C176 0.949 . S
H153 C178 0.949 . S
H154 C179 0.950 . S
H155 C181 0.950 . S
H156 C182 0.950 . S
H157 C184 0.950 . S
H158 C187 0.950 . S
H159 C188 0.950 . S
H160 C190 0.951 . S
H161 C191 0.949 . S
C162 C163 1.376 . S
C162 C167 1.386 . S
C162 C168 1.483 . S
C163 H144 0.949 . S
C163 C162 1.376 . S
C163 C164 1.397 . S
C164 H145 0.950 . S
C164 C163 1.397 . S
C164 C165 1.391 . S
C165 C164 1.391 . S
C165 C166 1.405 . S
C166 H146 0.950 . S
C166 C165 1.405 . S
C166 C167 1.367 . S
C167 H147 0.950 . S
C167 C162 1.386 . S
C167 C166 1.367 . S
C168 C162 1.483 . S
C168 C169 1.382 . S
C168 C170 1.403 . S
C169 H148 0.950 . S
C169 C168 1.382 . S
C169 C185 1.411 1_565 S
C170 C168 1.403 . S
C170 C171 1.489 . S
C170 C184 1.411 1_565 S
C171 C170 1.489 . S
C171 C172 1.383 . S
C171 C176 1.382 . S
C172 H149 0.950 . S
C172 C171 1.383 . S
C172 C173 1.395 . S
C173 H150 0.950 . S
C173 C172 1.395 . S
C173 C174 1.288 . S
C174 C173 1.288 . S
C174 C175 1.392 . S
C175 H151 0.951 . S
C175 C174 1.392 . S
C175 C176 1.392 . S
C176 H152 0.949 . S
C176 C171 1.382 . S
C176 C175 1.392 . S
C177 C178 1.376 . S
C177 C182 1.386 . S
C177 C183 1.483 . S
C178 H153 0.949 . S
C178 C177 1.376 . S
C178 C179 1.397 . S
C179 H154 0.950 . S
C179 C178 1.397 . S
C179 C180 1.391 . S
C180 C179 1.391 . S
C180 C181 1.405 . S
C181 H155 0.950 . S
C181 C180 1.405 . S
C181 C182 1.367 . S
C182 H156 0.950 . S
C182 C177 1.386 . S
C182 C181 1.367 . S
C183 C177 1.483 . S
C183 C184 1.382 . S
C183 C185 1.403 . S
C184 H157 0.950 . S
C184 C170 1.411 1_545 S
C184 C183 1.382 . S
C185 C169 1.411 1_545 S
C185 C183 1.403 . S
C185 C186 1.489 . S
C186 C185 1.489 . S
C186 C187 1.383 . S
C186 C191 1.382 . S
C187 H158 0.950 . S
C187 C186 1.383 . S
C187 C188 1.395 . S
C188 H159 0.950 . S
C188 C187 1.395 . S
C188 C189 1.288 . S
C189 C188 1.288 . S
C189 C190 1.392 . S
C190 H160 0.951 . S
C190 C189 1.392 . S
C190 C191 1.392 . S
C191 H161 0.949 . S
C191 C186 1.382 . S
C191 C190 1.392 . S
H192 C211 0.949 . S
H193 C212 0.950 . S
H194 C214 0.950 . S
H195 C215 0.950 . S
H196 C217 0.950 . S
H197 C220 0.950 . S
H198 C221 0.950 . S
H199 C223 0.951 . S
H200 C224 0.949 . S
H201 C226 0.949 . S
H202 C227 0.950 . S
H203 C229 0.950 . S
H204 C230 0.950 . S
H205 C232 0.950 . S
H206 C235 0.950 . S
H207 C236 0.950 . S
H208 C238 0.951 . S
H209 C239 0.949 . S
C210 C211 1.376 . S
C210 C215 1.386 . S
C210 C216 1.483 . S
C211 H192 0.949 . S
C211 C210 1.376 . S
C211 C212 1.397 . S
C212 H193 0.950 . S
C212 C211 1.397 . S
C212 C213 1.391 . S
C213 C212 1.391 . S
C213 C214 1.405 . S
C214 H194 0.950 . S
C214 C213 1.405 . S
C214 C215 1.367 . S
C215 H195 0.950 . S
C215 C210 1.386 . S
C215 C214 1.367 . S
C216 C210 1.483 . S
C216 C217 1.382 1_455 S
C216 C218 1.403 . S
C217 H196 0.950 . S
C217 C216 1.382 1_655 S
C217 C233 1.411 . S
C218 C216 1.403 . S
C218 C219 1.489 . S
C218 C232 1.411 . S
C219 C218 1.489 . S
C219 C220 1.383 . S
C219 C224 1.382 . S
C220 H197 0.950 . S
C220 C219 1.383 . S
C220 C221 1.395 . S
C221 H198 0.950 . S
C221 C220 1.395 . S
C221 C222 1.288 . S
C222 C221 1.288 . S
C222 C223 1.392 . S
C223 H199 0.951 . S
C223 C222 1.392 . S
C223 C224 1.392 . S
C224 H200 0.949 . S
C224 C219 1.382 . S
C224 C223 1.392 . S
C225 C226 1.376 . S
C225 C230 1.386 . S
C225 C231 1.483 . S
C226 H201 0.949 . S
C226 C225 1.376 . S
C226 C227 1.397 . S
C227 H202 0.950 . S
C227 C226 1.397 . S
C227 C228 1.391 . S
C228 C227 1.391 . S
C228 C229 1.405 . S
C229 H203 0.950 . S
C229 C228 1.405 . S
C229 C230 1.367 . S
C230 H204 0.950 . S
C230 C225 1.386 . S
C230 C229 1.367 . S
C231 C225 1.483 . S
C231 C232 1.382 1_655 S
C231 C233 1.403 . S
C232 H205 0.950 . S
C232 C218 1.411 . S
C232 C231 1.382 1_455 S
C233 C217 1.411 . S
C233 C231 1.403 . S
C233 C234 1.489 . S
C234 C233 1.489 . S
C234 C235 1.383 . S
C234 C239 1.382 . S
C235 H206 0.950 . S
C235 C234 1.383 . S
C235 C236 1.395 . S
C236 H207 0.950 . S
C236 C235 1.395 . S
C236 C237 1.288 . S
C237 C236 1.288 . S
C237 C238 1.392 . S
C238 H208 0.951 . S
C238 C237 1.392 . S
C238 C239 1.392 . S
C239 H209 0.949 . S
C239 C234 1.382 . S
C239 C238 1.392 . S
H240 C259 0.949 . S
H241 C260 0.950 . S
H242 C262 0.950 . S
H243 C263 0.950 . S
H244 C265 0.950 . S
H245 C268 0.950 . S
H246 C269 0.950 . S
H247 C271 0.951 . S
H248 C272 0.949 . S
H249 C274 0.949 . S
H250 C275 0.950 . S
H251 C277 0.950 . S
H252 C278 0.950 . S
H253 C280 0.950 . S
H254 C283 0.950 . S
H255 C284 0.950 . S
H256 C286 0.951 . S
H257 C287 0.949 . S
C258 C259 1.376 . S
C258 C263 1.386 . S
C258 C264 1.483 . S
C259 H240 0.949 . S
C259 C258 1.376 . S
C259 C260 1.397 . S
C260 H241 0.950 . S
C260 C259 1.397 . S
C260 C261 1.391 . S
C261 C260 1.391 . S
C261 C262 1.405 . S
C262 H242 0.950 . S
C262 C261 1.405 . S
C262 C263 1.367 . S
C263 H243 0.950 . S
C263 C258 1.386 . S
C263 C262 1.367 . S
C264 C258 1.483 . S
C264 C265 1.382 . S
C264 C266 1.403 . S
C265 H244 0.950 . S
C265 C264 1.382 . S
C265 C281 1.411 . S
C266 C264 1.403 . S
C266 C267 1.489 . S
C266 C280 1.411 . S
C267 C266 1.489 . S
C267 C268 1.383 . S
C267 C272 1.382 . S
C268 H245 0.950 . S
C268 C267 1.383 . S
C268 C269 1.395 . S
C269 H246 0.950 . S
C269 C268 1.395 . S
C269 C270 1.288 . S
C270 C269 1.288 . S
C270 C271 1.392 . S
C271 H247 0.951 . S
C271 C270 1.392 . S
C271 C272 1.392 . S
C272 H248 0.949 . S
C272 C267 1.382 . S
C272 C271 1.392 . S
C273 C274 1.376 . S
C273 C278 1.386 . S
C273 C279 1.483 . S
C274 H249 0.949 . S
C274 C273 1.376 . S
C274 C275 1.397 . S
C275 H250 0.950 . S
C275 C274 1.397 . S
C275 C276 1.391 . S
C276 C275 1.391 . S
C276 C277 1.405 . S
C277 H251 0.950 . S
C277 C276 1.405 . S
C277 C278 1.367 . S
C278 H252 0.950 . S
C278 C273 1.386 . S
C278 C277 1.367 . S
C279 C273 1.483 . S
C279 C280 1.382 . S
C279 C281 1.403 . S
C280 H253 0.950 . S
C280 C266 1.411 . S
C280 C279 1.382 . S
C281 C265 1.411 . S
C281 C279 1.403 . S
C281 C282 1.489 . S
C282 C281 1.489 . S
C282 C283 1.383 . S
C282 C287 1.382 . S
C283 H254 0.950 . S
C283 C282 1.383 . S
C283 C284 1.395 . S
C284 H255 0.950 . S
C284 C283 1.395 . S
C284 C285 1.288 . S
C285 C284 1.288 . S
C285 C286 1.392 . S
C286 H256 0.951 . S
C286 C285 1.392 . S
C286 C287 1.392 . S
C287 H257 0.949 . S
C287 C282 1.382 . S
C287 C286 1.392 . S
H288 C307 0.949 . S
H289 C308 0.950 . S
H290 C310 0.950 . S
H291 C311 0.950 . S
H292 C313 0.948 1_565 S
H293 C316 0.950 . S
H294 C317 0.950 . S
H295 C319 0.951 . S
H296 C320 0.949 1_545 S
H297 C322 0.949 . S
H298 C323 0.950 . S
H299 C325 0.950 . S
H300 C326 0.950 . S
H301 C328 0.950 . S
H302 C331 0.950 . S
H303 C332 0.950 . S
H304 C334 0.951 . S
H305 C335 0.939 1_565 S
C306 C307 1.376 . S
C306 C311 1.386 . S
C306 C312 1.483 . S
C307 H288 0.949 . S
C307 C306 1.376 . S
C307 C308 1.397 . S
C308 H289 0.950 . S
C308 C307 1.397 . S
C308 C309 1.391 . S
C309 C308 1.391 . S
C309 C310 1.405 . S
C310 H290 0.950 . S
C310 C309 1.405 . S
C310 C311 1.367 . S
C311 H291 0.950 . S
C311 C306 1.386 . S
C311 C310 1.367 . S
C312 C306 1.483 . S
C312 C313 1.375 1_565 S
C312 C314 1.403 . S
C313 H292 0.948 1_545 S
C313 C312 1.375 1_545 S
C313 C329 1.420 . S
C314 C312 1.403 . S
C314 C315 1.489 . S
C314 C328 1.411 1_565 S
C315 C314 1.489 . S
C315 C316 1.383 . S
C315 C320 1.382 . S
C316 H293 0.950 . S
C316 C315 1.383 . S
C316 C317 1.395 . S
C317 H294 0.950 . S
C317 C316 1.395 . S
C317 C318 1.288 . S
C318 C317 1.288 . S
C318 C319 1.392 . S
C319 H295 0.951 . S
C319 C318 1.392 . S
C319 C320 1.392 . S
C320 H296 0.949 1_565 S
C320 C315 1.382 . S
C320 C319 1.392 . S
C321 C322 1.376 . S
C321 C326 1.386 . S
C321 C327 1.483 . S
C322 H297 0.949 . S
C322 C321 1.376 . S
C322 C323 1.397 . S
C323 H298 0.950 . S
C323 C322 1.397 . S
C323 C324 1.391 . S
C324 C323 1.391 . S
C324 C325 1.405 . S
C325 H299 0.950 . S
C325 C324 1.405 . S
C325 C326 1.367 . S
C326 H300 0.950 . S
C326 C321 1.386 . S
C326 C325 1.367 . S
C327 C321 1.483 . S
C327 C328 1.382 . S
C327 C329 1.403 . S
C328 H301 0.950 . S
C328 C314 1.411 1_545 S
C328 C327 1.382 . S
C329 C313 1.420 . S
C329 C327 1.403 . S
C329 C330 1.489 . S
C330 C329 1.489 . S
C330 C331 1.383 . S
C330 C335 1.382 . S
C331 H302 0.950 . S
C331 C330 1.383 . S
C331 C332 1.395 . S
C332 H303 0.950 . S
C332 C331 1.395 . S
C332 C333 1.288 . S
C333 C332 1.288 . S
C333 C334 1.392 . S
C334 H304 0.951 . S
C334 C333 1.392 . S
C334 C335 1.392 . S
C335 H305 0.939 1_545 S
C335 C330 1.382 . S
C335 C334 1.392 . S
H336 C355 0.949 1_455 S
H337 C356 0.950 . S
H338 C358 0.950 . S
H339 C359 0.950 . S
H340 C361 0.950 . S
H341 C364 0.950 . S
H342 C365 0.950 . S
H343 C367 0.951 . S
H344 C368 0.949 . S
H345 C370 0.949 . S
H346 C371 0.950 . S
H347 C373 0.950 . S
H348 C374 0.950 . S
H349 C376 0.950 . S
H350 C379 0.950 . S
H351 C380 0.950 . S
H352 C382 0.951 . S
H353 C383 0.949 1_545 S
C354 C355 1.376 . S
C354 C359 1.386 . S
C354 C360 1.483 . S
C355 H336 0.949 1_655 S
C355 C354 1.376 . S
C355 C356 1.397 . S
C356 H337 0.950 . S
C356 C355 1.397 . S
C356 C357 1.391 . S
C357 C356 1.391 . S
C357 C358 1.405 . S
C358 H338 0.950 . S
C358 C357 1.405 . S
C358 C359 1.367 . S
C359 H339 0.950 . S
C359 C354 1.386 . S
C359 C358 1.367 . S
C360 C354 1.483 . S
C360 C361 1.382 1_655 S
C360 C362 1.403 . S
C361 H340 0.950 . S
C361 C360 1.382 1_455 S
C361 C377 1.411 1_545 S
C362 C360 1.403 . S
C362 C363 1.489 . S
C362 C376 1.411 1_655 S
C363 C362 1.489 . S
C363 C364 1.383 . S
C363 C368 1.382 . S
C364 H341 0.950 . S
C364 C363 1.383 . S
C364 C365 1.395 . S
C365 H342 0.950 . S
C365 C364 1.395 . S
C365 C366 1.288 . S
C366 C365 1.288 . S
C366 C367 1.392 . S
C367 H343 0.951 . S
C367 C366 1.392 . S
C367 C368 1.392 . S
C368 H344 0.949 . S
C368 C363 1.382 . S
C368 C367 1.392 . S
C369 C370 1.376 . S
C369 C374 1.386 . S
C369 C375 1.483 . S
C370 H345 0.949 . S
C370 C369 1.376 . S
C370 C371 1.397 . S
C371 H346 0.950 . S
C371 C370 1.397 . S
C371 C372 1.391 . S
C372 C371 1.391 . S
C372 C373 1.405 . S
C373 H347 0.950 . S
C373 C372 1.405 . S
C373 C374 1.367 . S
C374 H348 0.950 . S
C374 C369 1.386 . S
C374 C373 1.367 . S
C375 C369 1.483 . S
C375 C376 1.382 1_565 S
C375 C377 1.403 . S
C376 H349 0.950 . S
C376 C362 1.411 1_455 S
C376 C375 1.382 1_545 S
C377 C361 1.411 1_565 S
C377 C375 1.403 . S
C377 C378 1.489 . S
C378 C377 1.489 . S
C378 C379 1.383 . S
C378 C383 1.382 . S
C379 H350 0.950 . S
C379 C378 1.383 . S
C379 C380 1.395 . S
C380 H351 0.950 . S
C380 C379 1.395 . S
C380 C381 1.288 . S
C381 C380 1.288 . S
C381 C382 1.392 . S
C382 H352 0.951 . S
C382 C381 1.392 . S
C382 C383 1.392 . S
C383 H353 0.949 1_565 S
C383 C378 1.382 . S
C383 C382 1.392 . S
Co384 O385 2.206 1_554 S
Co384 O386 2.083 1_554 S
Co384 O388 2.004 . S
Co384 O394 2.021 1_554 S
Co384 O396 2.137 . S
Co384 O397 2.244 . S
O385 Co384 2.206 1_556 S
O385 C392 1.253 . S
O386 Co384 2.083 1_556 S
O386 C392 1.266 . S
C387 O396 1.247 . S
C387 O397 1.272 . S
O388 Co384 2.004 . S
O388 C393 1.259 . S
Co389 O390 2.061 . S
Co389 O395 2.052 1_554 S
Co389 O397 2.135 . S
O390 Co389 2.061 . S
O390 C393 1.235 . S
C391 O394 1.238 . S
C391 O395 1.241 . S
C392 O385 1.253 . S
C392 O386 1.266 . S
C393 O388 1.259 . S
C393 O390 1.235 . S
O394 Co384 2.021 1_556 S
O394 C391 1.238 . S
O395 Co389 2.052 1_556 S
O395 C391 1.241 . S
O396 Co384 2.137 . S
O396 C387 1.247 . S
O397 Co384 2.244 . S
O397 C387 1.272 . S
O397 Co389 2.135 . S
Co398 O399 2.216 . S
Co398 O400 2.091 . S
Co398 O402 2.004 . S
Co398 O408 2.021 . S
Co398 O410 2.137 . S
Co398 O411 2.244 . S
O399 Co398 2.216 . S
O399 C406 1.247 . S
O400 Co398 2.091 . S
O400 C406 1.261 . S
C401 O410 1.247 . S
C401 O411 1.272 . S
O402 Co398 2.004 . S
O402 C407 1.259 . S
Co403 O404 2.061 . S
Co403 O409 2.052 . S
Co403 O411 2.135 . S
O404 Co403 2.061 . S
O404 C407 1.235 . S
C405 O408 1.238 . S
C405 O409 1.241 . S
C406 O399 1.247 . S
C406 O400 1.261 . S
C407 O402 1.259 . S
C407 O404 1.235 . S
O408 Co398 2.021 . S
O408 C405 1.238 . S
O409 Co403 2.052 . S
O409 C405 1.241 . S
O410 Co398 2.137 . S
O410 C401 1.247 . S
O411 Co398 2.244 . S
O411 C401 1.272 . S
O411 Co403 2.135 . S
Co412 O413 2.216 . S
Co412 O414 2.091 . S
Co412 O416 2.004 . S
Co412 O422 2.021 . S
Co412 O424 2.137 . S
Co412 O425 2.244 . S
O413 Co412 2.216 . S
O413 C420 1.247 . S
O414 Co412 2.091 . S
O414 C420 1.261 . S
C415 O424 1.247 . S
C415 O425 1.272 . S
O416 Co412 2.004 . S
O416 C421 1.259 . S
Co417 O418 2.061 . S
Co417 O423 2.052 . S
Co417 O425 2.135 . S
O418 Co417 2.061 . S
O418 C421 1.235 . S
C419 O422 1.238 . S
C419 O423 1.241 . S
C420 O413 1.247 . S
C420 O414 1.261 . S
C421 O416 1.259 . S
C421 O418 1.235 . S
O422 Co412 2.021 . S
O422 C419 1.238 . S
O423 Co417 2.052 . S
O423 C419 1.241 . S
O424 Co412 2.137 . S
O424 C415 1.247 . S
O425 Co412 2.244 . S
O425 C415 1.272 . S
O425 Co417 2.135 . S
Co426 O427 2.216 . S
Co426 O428 2.091 . S
Co426 O430 2.004 . S
Co426 O436 2.021 . S
Co426 O438 2.137 . S
Co426 O439 2.244 . S
O427 Co426 2.216 . S
O427 C434 1.247 . S
O428 Co426 2.091 . S
O428 C434 1.261 . S
C429 O438 1.247 . S
C429 O439 1.272 . S
O430 Co426 2.004 . S
O430 C435 1.259 . S
Co431 O432 2.061 . S
Co431 O437 2.052 . S
Co431 O439 2.135 . S
O432 Co431 2.061 . S
O432 C435 1.235 . S
C433 O436 1.238 . S
C433 O437 1.241 . S
C434 O427 1.247 . S
C434 O428 1.261 . S
C435 O430 1.259 . S
C435 O432 1.235 . S
O436 Co426 2.021 . S
O436 C433 1.238 . S
O437 Co431 2.052 . S
O437 C433 1.241 . S
O438 Co426 2.137 . S
O438 C429 1.247 . S
O439 Co426 2.244 . S
O439 C429 1.272 . S
O439 Co431 2.135 . S
Co440 O441 2.216 . S
Co440 O442 2.091 . S
Co440 O444 2.004 . S
Co440 O450 2.021 . S
Co440 O452 2.137 . S
Co440 O453 2.244 . S
O441 Co440 2.216 . S
O441 C448 1.247 . S
O442 Co440 2.091 . S
O442 C448 1.261 . S
C443 O452 1.247 . S
C443 O453 1.272 . S
O444 Co440 2.004 . S
O444 C449 1.259 . S
Co445 O446 2.061 . S
Co445 O451 2.052 . S
Co445 O453 2.135 . S
O446 Co445 2.061 . S
O446 C449 1.235 . S
C447 O450 1.238 . S
C447 O451 1.241 . S
C448 O441 1.247 . S
C448 O442 1.261 . S
C449 O444 1.259 . S
C449 O446 1.235 . S
O450 Co440 2.021 . S
O450 C447 1.238 . S
O451 Co445 2.052 . S
O451 C447 1.241 . S
O452 Co440 2.137 . S
O452 C443 1.247 . S
O453 Co440 2.244 . S
O453 C443 1.272 . S
O453 Co445 2.135 . S
Co454 O455 2.216 . S
Co454 O456 2.091 . S
Co454 O458 2.004 . S
Co454 O464 2.021 . S
Co454 O466 2.137 . S
Co454 O467 2.244 . S
O455 Co454 2.216 . S
O455 C462 1.247 . S
O456 Co454 2.091 . S
O456 C462 1.261 . S
C457 O466 1.247 . S
C457 O467 1.272 . S
O458 Co454 2.004 . S
O458 C463 1.259 . S
Co459 O460 2.061 . S
Co459 O465 2.052 . S
Co459 O467 2.135 . S
O460 Co459 2.061 . S
O460 C463 1.235 . S
C461 O464 1.238 . S
C461 O465 1.241 . S
C462 O455 1.247 . S
C462 O456 1.261 . S
C463 O458 1.259 . S
C463 O460 1.235 . S
O464 Co454 2.021 . S
O464 C461 1.238 . S
O465 Co459 2.052 . S
O465 C461 1.241 . S
O466 Co454 2.137 . S
O466 C457 1.247 . S
O467 Co454 2.244 . S
O467 C457 1.272 . S
O467 Co459 2.135 . S
Co468 O469 2.216 1_556 S
Co468 O470 2.091 1_556 S
Co468 O472 2.004 . S
Co468 O478 2.021 1_556 S
Co468 O480 2.137 . S
Co468 O481 2.244 . S
O469 Co468 2.216 1_554 S
O469 C476 1.247 . S
O470 Co468 2.091 1_554 S
O470 C476 1.261 . S
C471 O480 1.247 . S
C471 O481 1.272 . S
O472 Co468 2.004 . S
O472 C477 1.259 . S
Co473 O474 2.061 . S
Co473 O479 2.052 1_556 S
Co473 O481 2.135 . S
O474 Co473 2.061 . S
O474 C477 1.235 . S
C475 O478 1.238 . S
C475 O479 1.241 . S
C476 O469 1.247 . S
C476 O470 1.261 . S
C477 O472 1.259 . S
C477 O474 1.235 . S
O478 Co468 2.021 1_554 S
O478 C475 1.238 . S
O479 Co473 2.052 1_554 S
O479 C475 1.241 . S
O480 Co468 2.137 . S
O480 C471 1.247 . S
O481 Co468 2.244 . S
O481 C471 1.272 . S
O481 Co473 2.135 . S
Co482 O483 2.216 . S
Co482 O484 2.091 . S
Co482 O486 2.004 . S
Co482 O492 2.021 . S
Co482 O494 2.137 . S
Co482 O495 2.244 . S
O483 Co482 2.216 . S
O483 C490 1.247 . S
O484 Co482 2.091 . S
O484 C490 1.261 . S
C485 O494 1.247 . S
C485 O495 1.272 . S
O486 Co482 2.004 . S
O486 C491 1.259 . S
Co487 O488 2.061 . S
Co487 O493 2.052 . S
Co487 O495 2.135 . S
O488 Co487 2.061 . S
O488 C491 1.235 . S
C489 O492 1.238 . S
C489 O493 1.241 . S
C490 O483 1.247 . S
C490 O484 1.261 . S
C491 O486 1.259 . S
C491 O488 1.235 . S
O492 Co482 2.021 . S
O492 C489 1.238 . S
O493 Co487 2.052 . S
O493 C489 1.241 . S
O494 Co482 2.137 . S
O494 C485 1.247 . S
O495 Co482 2.244 . S
O495 C485 1.272 . S
O495 Co487 2.135 . S
C496 C497 1.349 . S
C496 C498 1.327 . S
C496 H521 0.950 . S
C497 C496 1.349 . S
C497 C513 1.349 . S
C498 C496 1.327 . S
C498 C517 1.429 . S
C498 H522 0.950 . S
C499 C516 1.574 . S
C499 C518 1.368 . S
C499 H523 0.949 . S
H500 C504 0.949 . S
C501 C502 1.349 . S
C501 C503 1.327 . S
C501 H524 0.950 . S
C502 C501 1.349 . S
C502 C514 1.349 . S
C503 C501 1.327 . S
C503 C519 1.429 . S
C503 H525 0.950 . S
C504 H500 0.949 . S
C504 C512 1.574 . S
C504 C520 1.368 . S
H505 C513 0.950 . S
H506 C511 0.950 . S
H507 C512 0.949 . S
H508 C514 0.950 . S
H509 C515 0.950 . S
H510 C516 0.949 . S
C511 H506 0.950 . S
C511 C513 1.327 . S
C511 C517 1.429 . S
C512 C504 1.574 . S
C512 H507 0.949 . S
C512 C518 1.368 . S
C513 C497 1.349 . S
C513 H505 0.950 . S
C513 C511 1.327 . S
C514 C502 1.349 . S
C514 H508 0.950 . S
C514 C515 1.327 . S
C515 H509 0.950 . S
C515 C514 1.327 . S
C515 C519 1.429 . S
C516 C499 1.574 . S
C516 H510 0.949 . S
C516 C520 1.368 . S
C517 C498 1.429 . S
C517 C511 1.429 . S
C517 C518 1.523 . S
C518 C499 1.368 . S
C518 C512 1.368 . S
C518 C517 1.523 . S
C519 C503 1.429 . S
C519 C515 1.429 . S
C519 C520 1.523 . S
C520 C504 1.368 . S
C520 C516 1.368 . S
C520 C519 1.523 . S
H521 C496 0.950 . S
H522 C498 0.950 . S
H523 C499 0.949 . S
H524 C501 0.950 . S
H525 C503 0.950 . S
C526 C527 1.349 . S
C526 C528 1.327 . S
C526 H551 0.950 . S
C527 C526 1.349 . S
C527 C543 1.349 . S
C528 C526 1.327 . S
C528 C547 1.429 . S
C528 H552 0.950 . S
C529 C546 1.574 . S
C529 C548 1.368 . S
C529 H553 0.949 . S
H530 C534 0.949 . S
C531 C532 1.349 . S
C531 C533 1.327 . S
C531 H554 0.950 . S
C532 C531 1.349 . S
C532 C544 1.349 . S
C533 C531 1.327 . S
C533 C549 1.429 . S
C533 H555 0.950 . S
C534 H530 0.949 . S
C534 C542 1.574 . S
C534 C550 1.368 . S
H535 C543 0.950 . S
H536 C541 0.950 . S
H537 C542 0.949 . S
H538 C544 0.950 . S
H539 C545 0.950 . S
H540 C546 0.949 . S
C541 H536 0.950 . S
C541 C543 1.327 . S
C541 C547 1.429 . S
C542 C534 1.574 . S
C542 H537 0.949 . S
C542 C548 1.368 . S
C543 C527 1.349 . S
C543 H535 0.950 . S
C543 C541 1.327 . S
C544 C532 1.349 . S
C544 H538 0.950 . S
C544 C545 1.327 . S
C545 H539 0.950 . S
C545 C544 1.327 . S
C545 C549 1.429 . S
C546 C529 1.574 . S
C546 H540 0.949 . S
C546 C550 1.368 . S
C547 C528 1.429 . S
C547 C541 1.429 . S
C547 C548 1.523 . S
C548 C529 1.368 . S
C548 C542 1.368 . S
C548 C547 1.523 . S
C549 C533 1.429 . S
C549 C545 1.429 . S
C549 C550 1.523 . S
C550 C534 1.368 . S
C550 C546 1.368 . S
C550 C549 1.523 . S
H551 C526 0.950 . S
H552 C528 0.950 . S
H553 C529 0.949 . S
H554 C531 0.950 . S
H555 C533 0.950 . S
C556 C557 1.349 . S
C556 C558 1.327 . S
C556 H581 0.950 . S
C557 C556 1.349 . S
C557 C573 1.349 . S
C558 C556 1.327 . S
C558 C577 1.429 . S
C558 H582 0.950 . S
C559 C576 1.574 . S
C559 C578 1.368 . S
C559 H583 0.949 . S
H560 C564 0.949 . S
C561 C562 1.349 . S
C561 C563 1.327 . S
C561 H584 0.950 . S
C562 C561 1.349 . S
C562 C574 1.349 . S
C563 C561 1.327 . S
C563 C579 1.429 . S
C563 H585 0.950 . S
C564 H560 0.949 . S
C564 C572 1.574 . S
C564 C580 1.368 . S
H565 C573 0.950 . S
H566 C571 0.950 . S
H567 C572 0.949 . S
H568 C574 0.950 . S
H569 C575 0.950 . S
H570 C576 0.949 . S
C571 H566 0.950 . S
C571 C573 1.327 . S
C571 C577 1.429 . S
C572 C564 1.574 . S
C572 H567 0.949 . S
C572 C578 1.368 . S
C573 C557 1.349 . S
C573 H565 0.950 . S
C573 C571 1.327 . S
C574 C562 1.349 . S
C574 H568 0.950 . S
C574 C575 1.327 . S
C575 H569 0.950 . S
C575 C574 1.327 . S
C575 C579 1.429 . S
C576 C559 1.574 . S
C576 H570 0.949 . S
C576 C580 1.368 . S
C577 C558 1.429 . S
C577 C571 1.429 . S
C577 C578 1.523 . S
C578 C559 1.368 . S
C578 C572 1.368 . S
C578 C577 1.523 . S
C579 C563 1.429 . S
C579 C575 1.429 . S
C579 C580 1.523 . S
C580 C564 1.368 . S
C580 C576 1.368 . S
C580 C579 1.523 . S
H581 C556 0.950 . S
H582 C558 0.950 . S
H583 C559 0.949 . S
H584 C561 0.950 . S
H585 C563 0.950 . S
C586 C587 1.349 . S
C586 C588 1.327 . S
C586 H611 0.950 . S
C587 C586 1.349 . S
C587 C603 1.349 . S
C588 C586 1.327 . S
C588 C607 1.429 . S
C588 H612 0.950 . S
C589 C606 1.574 . S
C589 C608 1.368 . S
C589 H613 0.949 . S
H590 C594 0.949 . S
C591 C592 1.349 . S
C591 C593 1.327 . S
C591 H614 0.950 . S
C592 C591 1.349 . S
C592 C604 1.349 . S
C593 C591 1.327 . S
C593 C609 1.429 . S
C593 H615 0.950 . S
C594 H590 0.949 . S
C594 C602 1.574 . S
C594 C610 1.368 . S
H595 C603 0.950 . S
H596 C601 0.950 . S
H597 C602 0.949 . S
H598 C604 0.950 1_556 S
H599 C605 0.950 . S
H600 C606 0.949 . S
C601 H596 0.950 . S
C601 C603 1.327 . S
C601 C607 1.429 . S
C602 C594 1.574 . S
C602 H597 0.949 . S
C602 C608 1.368 . S
C603 C587 1.349 . S
C603 H595 0.950 . S
C603 C601 1.327 . S
C604 C592 1.349 . S
C604 H598 0.950 1_554 S
C604 C605 1.327 . S
C605 H599 0.950 . S
C605 C604 1.327 . S
C605 C609 1.429 . S
C606 C589 1.574 . S
C606 H600 0.949 . S
C606 C610 1.368 . S
C607 C588 1.429 . S
C607 C601 1.429 . S
C607 C608 1.523 . S
C608 C589 1.368 . S
C608 C602 1.368 . S
C608 C607 1.523 . S
C609 C593 1.429 . S
C609 C605 1.429 . S
C609 C610 1.523 . S
C610 C594 1.368 . S
C610 C606 1.368 . S
C610 C609 1.523 . S
H611 C586 0.950 . S
H612 C588 0.950 . S
H613 C589 0.949 . S
H614 C591 0.950 . S
H615 C593 0.950 . S
C616 C617 1.349 . S
C616 C618 1.327 . S
C616 H641 0.950 . S
C617 C616 1.349 . S
C617 C633 1.349 . S
C618 C616 1.327 . S
C618 C637 1.429 . S
C618 H642 0.950 . S
C619 C636 1.574 . S
C619 C638 1.368 . S
C619 H643 0.949 . S
H620 C624 0.896 1_554 S
C621 C622 1.349 . S
C621 C623 1.327 . S
C621 H644 0.950 . S
C622 C621 1.349 . S
C622 C634 1.349 1_556 S
C623 C621 1.327 . S
C623 C639 1.429 . S
C623 H645 0.950 . S
C624 H620 0.896 1_556 S
C624 C632 1.574 . S
C624 C640 1.368 . S
H625 C633 0.950 . S
H626 C631 0.950 . S
H627 C632 0.949 . S
H628 C634 0.950 . S
H629 C635 0.936 1_554 S
H630 C636 0.949 . S
C631 H626 0.950 . S
C631 C633 1.327 . S
C631 C637 1.429 . S
C632 C624 1.574 . S
C632 H627 0.949 . S
C632 C638 1.368 . S
C633 C617 1.349 . S
C633 H625 0.950 . S
C633 C631 1.327 . S
C634 C622 1.349 1_554 S
C634 H628 0.950 . S
C634 C635 1.322 1_554 S
C635 H629 0.936 1_556 S
C635 C634 1.322 1_556 S
C635 C639 1.447 . S
C636 C619 1.574 . S
C636 H630 0.949 . S
C636 C640 1.368 . S
C637 C618 1.429 . S
C637 C631 1.429 . S
C637 C638 1.523 . S
C638 C619 1.368 . S
C638 C632 1.368 . S
C638 C637 1.523 . S
C639 C623 1.429 . S
C639 C635 1.447 . S
C639 C640 1.523 . S
C640 C624 1.368 . S
C640 C636 1.368 . S
C640 C639 1.523 . S
H641 C616 0.950 . S
H642 C618 0.950 . S
H643 C619 0.949 . S
H644 C621 0.950 . S
H645 C623 0.950 . S
C646 C647 1.349 . S
C646 C648 1.327 . S
C646 H671 0.950 . S
C647 C646 1.349 . S
C647 C663 1.349 . S
C648 C646 1.327 . S
C648 C667 1.429 . S
C648 H672 0.950 . S
C649 C666 1.574 . S
C649 C668 1.368 . S
C649 H673 0.949 . S
H650 C654 0.949 . S
C651 C652 1.349 . S
C651 C653 1.327 . S
C651 H674 0.950 . S
C652 C651 1.349 . S
C652 C664 1.349 . S
C653 C651 1.327 . S
C653 C669 1.429 . S
C653 H675 0.950 . S
C654 H650 0.949 . S
C654 C662 1.574 . S
C654 C670 1.368 . S
H655 C663 0.950 . S
H656 C661 0.950 . S
H657 C662 0.949 . S
H658 C664 0.950 . S
H659 C665 0.950 . S
H660 C666 0.949 . S
C661 H656 0.950 . S
C661 C663 1.327 . S
C661 C667 1.429 . S
C662 C654 1.574 . S
C662 H657 0.949 . S
C662 C668 1.368 . S
C663 C647 1.349 . S
C663 H655 0.950 . S
C663 C661 1.327 . S
C664 C652 1.349 . S
C664 H658 0.950 . S
C664 C665 1.327 . S
C665 H659 0.950 . S
C665 C664 1.327 . S
C665 C669 1.429 . S
C666 C649 1.574 . S
C666 H660 0.949 . S
C666 C670 1.368 . S
C667 C648 1.429 . S
C667 C661 1.429 . S
C667 C668 1.523 . S
C668 C649 1.368 . S
C668 C662 1.368 . S
C668 C667 1.523 . S
C669 C653 1.429 . S
C669 C665 1.429 . S
C669 C670 1.523 . S
C670 C654 1.368 . S
C670 C666 1.368 . S
C670 C669 1.523 . S
H671 C646 0.950 . S
H672 C648 0.950 . S
H673 C649 0.949 . S
H674 C651 0.950 . S
H675 C653 0.950 . S
C676 C677 1.349 . S
C676 C678 1.327 . S
C676 H701 0.950 . S
C677 C676 1.349 . S
C677 C693 1.349 . S
C678 C676 1.327 . S
C678 C697 1.429 . S
C678 H702 0.950 . S
C679 C696 1.574 . S
C679 C698 1.368 . S
C679 H703 0.949 . S
H680 C684 0.949 . S
C681 C682 1.349 . S
C681 C683 1.327 . S
C681 H704 0.950 . S
C682 C681 1.349 . S
C682 C694 1.349 . S
C683 C681 1.327 . S
C683 C699 1.429 . S
C683 H705 0.950 . S
C684 H680 0.949 . S
C684 C692 1.574 . S
C684 C700 1.368 . S
H685 C693 0.950 . S
H686 C691 0.950 . S
H687 C692 0.949 . S
H688 C694 0.950 . S
H689 C695 0.950 . S
H690 C696 0.949 . S
C691 H686 0.950 . S
C691 C693 1.327 . S
C691 C697 1.429 . S
C692 C684 1.574 . S
C692 H687 0.949 . S
C692 C698 1.368 . S
C693 C677 1.349 . S
C693 H685 0.950 . S
C693 C691 1.327 . S
C694 C682 1.349 . S
C694 H688 0.950 . S
C694 C695 1.327 . S
C695 H689 0.950 . S
C695 C694 1.327 . S
C695 C699 1.429 . S
C696 C679 1.574 . S
C696 H690 0.949 . S
C696 C700 1.368 . S
C697 C678 1.429 . S
C697 C691 1.429 . S
C697 C698 1.523 . S
C698 C679 1.368 . S
C698 C692 1.368 . S
C698 C697 1.523 . S
C699 C683 1.429 . S
C699 C695 1.429 . S
C699 C700 1.523 . S
C700 C684 1.368 . S
C700 C696 1.368 . S
C700 C699 1.523 . S
H701 C676 0.950 . S
H702 C678 0.950 . S
H703 C679 0.949 . S
H704 C681 0.950 . S
H705 C683 0.950 . S
C706 C707 1.349 . S
C706 C708 1.327 . S
C706 H731 0.950 . S
C707 C706 1.349 . S
C707 C723 1.349 . S
C708 C706 1.327 . S
C708 C727 1.429 . S
C708 H732 0.950 . S
C709 C726 1.574 . S
C709 C728 1.368 . S
C709 H733 0.949 . S
H710 C714 0.949 . S
C711 C712 1.349 . S
C711 C713 1.327 . S
C711 H734 0.950 . S
C712 C711 1.349 . S
C712 C724 1.349 . S
C713 C711 1.327 . S
C713 C729 1.429 . S
C713 H735 0.950 . S
C714 H710 0.949 . S
C714 C722 1.574 . S
C714 C730 1.368 . S
H715 C723 0.950 . S
H716 C721 0.950 . S
H717 C722 0.949 . S
H718 C724 0.950 . S
H719 C725 0.950 . S
H720 C726 0.949 . S
C721 H716 0.950 . S
C721 C723 1.327 . S
C721 C727 1.429 . S
C722 C714 1.574 . S
C722 H717 0.949 . S
C722 C728 1.368 . S
C723 C707 1.349 . S
C723 H715 0.950 . S
C723 C721 1.327 . S
C724 C712 1.349 . S
C724 H718 0.950 . S
C724 C725 1.327 . S
C725 H719 0.950 . S
C725 C724 1.327 . S
C725 C729 1.429 . S
C726 C709 1.574 . S
C726 H720 0.949 . S
C726 C730 1.368 . S
C727 C708 1.429 . S
C727 C721 1.429 . S
C727 C728 1.523 . S
C728 C709 1.368 . S
C728 C722 1.368 . S
C728 C727 1.523 . S
C729 C713 1.429 . S
C729 C725 1.429 . S
C729 C730 1.523 . S
C730 C714 1.368 . S
C730 C726 1.368 . S
C730 C729 1.523 . S
H731 C706 0.950 . S
H732 C708 0.950 . S
H733 C709 0.949 . S
H734 C711 0.950 . S
H735 C713 0.950 . S
C736 C737 1.349 . S
C736 C738 1.327 . S
C736 H761 0.950 . S
C737 C736 1.349 . S
C737 C753 1.349 . S
C738 C736 1.327 . S
C738 C757 1.429 . S
C738 H762 0.950 . S
C739 C756 1.574 . S
C739 C758 1.368 . S
C739 H763 0.949 . S
H740 C744 0.949 . S
C741 C742 1.349 . S
C741 C743 1.327 . S
C741 H764 0.950 . S
C742 C741 1.349 . S
C742 C754 1.349 . S
C743 C741 1.327 . S
C743 C759 1.429 . S
C743 H765 0.950 . S
C744 H740 0.949 . S
C744 C752 1.574 . S
C744 C760 1.368 . S
H745 C753 0.950 . S
H746 C751 0.950 . S
H747 C752 0.949 . S
H748 C754 0.950 . S
H749 C755 0.950 . S
H750 C756 0.949 . S
C751 H746 0.950 . S
C751 C753 1.327 . S
C751 C757 1.429 . S
C752 C744 1.574 . S
C752 H747 0.949 . S
C752 C758 1.368 . S
C753 C737 1.349 . S
C753 H745 0.950 . S
C753 C751 1.327 . S
C754 C742 1.349 . S
C754 H748 0.950 . S
C754 C755 1.327 . S
C755 H749 0.950 . S
C755 C754 1.327 . S
C755 C759 1.429 . S
C756 C739 1.574 . S
C756 H750 0.949 . S
C756 C760 1.368 . S
C757 C738 1.429 . S
C757 C751 1.429 . S
C757 C758 1.523 . S
C758 C739 1.368 . S
C758 C752 1.368 . S
C758 C757 1.523 . S
C759 C743 1.429 . S
C759 C755 1.429 . S
C759 C760 1.523 . S
C760 C744 1.368 . S
C760 C756 1.368 . S
C760 C759 1.523 . S
H761 C736 0.950 . S
H762 C738 0.950 . S
H763 C739 0.949 . S
H764 C741 0.950 . S
H765 C743 0.950 . S
C766 C767 1.349 . S
C766 C768 1.327 . S
C766 H791 0.950 . S
C767 C766 1.349 . S
C767 C783 1.349 . S
C768 C766 1.327 . S
C768 C787 1.429 . S
C768 H792 0.950 . S
C769 C786 1.574 . S
C769 C788 1.368 . S
C769 H793 0.949 . S
H770 C774 0.947 1_556 S
C771 C772 1.349 . S
C771 C773 1.327 . S
C771 H794 0.950 . S
C772 C771 1.349 . S
C772 C784 1.302 1_554 S
C773 C771 1.327 . S
C773 C789 1.429 . S
C773 H795 0.950 . S
C774 H770 0.947 1_554 S
C774 C782 1.574 . S
C774 C790 1.368 . S
H775 C783 0.950 . S
H776 C781 0.950 . S
H777 C782 0.949 . S
H778 C784 1.018 . S
H779 C785 0.950 1_556 S
H780 C786 0.949 . S
C781 H776 0.950 . S
C781 C783 1.327 . S
C781 C787 1.429 . S
C782 C774 1.574 . S
C782 H777 0.949 . S
C782 C788 1.368 . S
C783 C767 1.349 . S
C783 H775 0.950 . S
C783 C781 1.327 . S
C784 C772 1.302 1_556 S
C784 H778 1.018 . S
C784 C785 1.313 1_556 S
C785 H779 0.950 1_554 S
C785 C784 1.313 1_554 S
C785 C789 1.429 . S
C786 C769 1.574 . S
C786 H780 0.949 . S
C786 C790 1.368 . S
C787 C768 1.429 . S
C787 C781 1.429 . S
C787 C788 1.523 . S
C788 C769 1.368 . S
C788 C782 1.368 . S
C788 C787 1.523 . S
C789 C773 1.429 . S
C789 C785 1.429 . S
C789 C790 1.523 . S
C790 C774 1.368 . S
C790 C786 1.368 . S
C790 C789 1.523 . S
H791 C766 0.950 . S
H792 C768 0.950 . S
H793 C769 0.949 . S
H794 C771 0.950 . S
H795 C773 0.950 . S
C796 C797 1.349 . S
C796 C798 1.327 . S
C796 H821 0.950 . S
C797 C796 1.349 . S
C797 C813 1.349 . S
C798 C796 1.327 . S
C798 C817 1.429 . S
C798 H822 0.950 . S
C799 C816 1.574 . S
C799 C818 1.368 . S
C799 H823 0.949 . S
H800 C804 0.949 . S
C801 C802 1.349 . S
C801 C803 1.327 . S
C801 H824 0.950 . S
C802 C801 1.349 . S
C802 C814 1.349 . S
C803 C801 1.327 . S
C803 C819 1.429 . S
C803 H825 0.950 . S
C804 H800 0.949 . S
C804 C812 1.574 . S
C804 C820 1.368 . S
H805 C813 0.950 . S
H806 C811 0.950 . S
H807 C812 0.949 . S
H808 C814 0.950 . S
H809 C815 0.950 . S
H810 C816 0.949 . S
C811 H806 0.950 . S
C811 C813 1.327 . S
C811 C817 1.429 . S
C812 C804 1.574 . S
C812 H807 0.949 . S
C812 C818 1.368 . S
C813 C797 1.349 . S
C813 H805 0.950 . S
C813 C811 1.327 . S
C814 C802 1.349 . S
C814 H808 0.950 . S
C814 C815 1.327 . S
C815 H809 0.950 . S
C815 C814 1.327 . S
C815 C819 1.429 . S
C816 C799 1.574 . S
C816 H810 0.949 . S
C816 C820 1.368 . S
C817 C798 1.429 . S
C817 C811 1.429 . S
C817 C818 1.523 . S
C818 C799 1.368 . S
C818 C812 1.368 . S
C818 C817 1.523 . S
C819 C803 1.429 . S
C819 C815 1.429 . S
C819 C820 1.523 . S
C820 C804 1.368 . S
C820 C816 1.368 . S
C820 C819 1.523 . S
H821 C796 0.950 . S
H822 C798 0.950 . S
H823 C799 0.949 . S
H824 C801 0.950 . S
H825 C803 0.950 . S
C826 C827 1.349 . S
C826 C828 1.327 . S
C826 H851 0.950 . S
C827 C826 1.349 . S
C827 C843 1.349 . S
C828 C826 1.327 . S
C828 C847 1.429 . S
C828 H852 0.950 . S
C829 C846 1.574 . S
C829 C848 1.368 . S
C829 H853 0.949 . S
H830 C834 0.949 . S
C831 C832 1.349 . S
C831 C833 1.327 . S
C831 H854 0.950 . S
C832 C831 1.349 . S
C832 C844 1.349 . S
C833 C831 1.327 . S
C833 C849 1.429 . S
C833 H855 0.950 . S
C834 H830 0.949 . S
C834 C842 1.574 . S
C834 C850 1.368 . S
H835 C843 0.950 . S
H836 C841 0.950 . S
H837 C842 0.949 . S
H838 C844 0.950 . S
H839 C845 0.950 . S
H840 C846 0.949 . S
C841 H836 0.950 . S
C841 C843 1.327 . S
C841 C847 1.429 . S
C842 C834 1.574 . S
C842 H837 0.949 . S
C842 C848 1.368 . S
C843 C827 1.349 . S
C843 H835 0.950 . S
C843 C841 1.327 . S
C844 C832 1.349 . S
C844 H838 0.950 . S
C844 C845 1.327 . S
C845 H839 0.950 . S
C845 C844 1.327 . S
C845 C849 1.429 . S
C846 C829 1.574 . S
C846 H840 0.949 . S
C846 C850 1.368 . S
C847 C828 1.429 . S
C847 C841 1.429 . S
C847 C848 1.523 . S
C848 C829 1.368 . S
C848 C842 1.368 . S
C848 C847 1.523 . S
C849 C833 1.429 . S
C849 C845 1.429 . S
C849 C850 1.523 . S
C850 C834 1.368 . S
C850 C846 1.368 . S
C850 C849 1.523 . S
H851 C826 0.950 . S
H852 C828 0.950 . S
H853 C829 0.949 . S
H854 C831 0.950 . S
H855 C833 0.950 . S
C856 C857 1.349 . S
C856 C858 1.327 . S
C856 H881 0.950 . S
C857 C856 1.349 . S
C857 C873 1.349 . S
C858 C856 1.327 . S
C858 C877 1.429 . S
C858 H882 0.950 . S
C859 C876 1.574 . S
C859 C878 1.368 . S
C859 H883 0.949 . S
H860 C864 0.949 . S
C861 C862 1.349 . S
C861 C863 1.327 . S
C861 H884 0.950 . S
C862 C861 1.349 . S
C862 C874 1.349 . S
C863 C861 1.327 . S
C863 C879 1.429 . S
C863 H885 0.950 . S
C864 H860 0.949 . S
C864 C872 1.574 . S
C864 C880 1.368 . S
H865 C873 0.950 . S
H866 C871 0.950 . S
H867 C872 0.949 . S
H868 C874 0.950 . S
H869 C875 0.950 . S
H870 C876 0.949 . S
C871 H866 0.950 . S
C871 C873 1.327 . S
C871 C877 1.429 . S
C872 C864 1.574 . S
C872 H867 0.949 . S
C872 C878 1.368 . S
C873 C857 1.349 . S
C873 H865 0.950 . S
C873 C871 1.327 . S
C874 C862 1.349 . S
C874 H868 0.950 . S
C874 C875 1.327 . S
C875 H869 0.950 . S
C875 C874 1.327 . S
C875 C879 1.429 . S
C876 C859 1.574 . S
C876 H870 0.949 . S
C876 C880 1.368 . S
C877 C858 1.429 . S
C877 C871 1.429 . S
C877 C878 1.523 . S
C878 C859 1.368 . S
C878 C872 1.368 . S
C878 C877 1.523 . S
C879 C863 1.429 . S
C879 C875 1.429 . S
C879 C880 1.523 . S
C880 C864 1.368 . S
C880 C876 1.368 . S
C880 C879 1.523 . S
H881 C856 0.950 . S
H882 C858 0.950 . S
H883 C859 0.949 . S
H884 C861 0.950 . S
H885 C863 0.950 . S
C886 C887 1.349 . S
C886 C888 1.327 . S
C886 H911 0.950 . S
C887 C886 1.349 . S
C887 C903 1.349 . S
C888 C886 1.327 . S
C888 C907 1.429 . S
C888 H912 0.950 . S
C889 C906 1.574 . S
C889 C908 1.368 . S
C889 H913 0.949 . S
H890 C894 0.949 . S
C891 C892 1.349 . S
C891 C893 1.327 . S
C891 H914 0.950 . S
C892 C891 1.349 . S
C892 C904 1.349 . S
C893 C891 1.327 . S
C893 C909 1.429 . S
C893 H915 0.950 . S
C894 H890 0.949 . S
C894 C902 1.574 . S
C894 C910 1.368 . S
H895 C903 0.950 . S
H896 C901 0.950 . S
H897 C902 0.949 . S
H898 C904 0.950 . S
H899 C905 0.950 . S
H900 C906 0.949 . S
C901 H896 0.950 . S
C901 C903 1.327 . S
C901 C907 1.429 . S
C902 C894 1.574 . S
C902 H897 0.949 . S
C902 C908 1.368 . S
C903 C887 1.349 . S
C903 H895 0.950 . S
C903 C901 1.327 . S
C904 C892 1.349 . S
C904 H898 0.950 . S
C904 C905 1.327 . S
C905 H899 0.950 . S
C905 C904 1.327 . S
C905 C909 1.429 . S
C906 C889 1.574 . S
C906 H900 0.949 . S
C906 C910 1.368 . S
C907 C888 1.429 . S
C907 C901 1.429 . S
C907 C908 1.523 . S
C908 C889 1.368 . S
C908 C902 1.368 . S
C908 C907 1.523 . S
C909 C893 1.429 . S
C909 C905 1.429 . S
C909 C910 1.523 . S
C910 C894 1.368 . S
C910 C906 1.368 . S
C910 C909 1.523 . S
H911 C886 0.950 . S
H912 C888 0.950 . S
H913 C889 0.949 . S
H914 C891 0.950 . S
H915 C893 0.950 . S
C916 C917 1.349 . S
C916 C918 1.327 . S
C916 H941 0.950 . S
C917 C916 1.349 . S
C917 C933 1.349 . S
C918 C916 1.327 . S
C918 C937 1.429 . S
C918 H942 0.950 . S
C919 C936 1.574 . S
C919 C938 1.368 . S
C919 H943 0.949 . S
H920 C924 0.949 . S
C921 C922 1.349 . S
C921 C923 1.327 . S
C921 H944 0.950 1_556 S
C922 C921 1.349 . S
C922 C934 1.349 . S
C923 C921 1.327 . S
C923 C939 1.429 . S
C923 H945 0.970 . S
C924 H920 0.949 . S
C924 C932 1.574 . S
C924 C940 1.368 . S
H925 C933 0.950 . S
H926 C931 0.950 . S
H927 C932 0.949 . S
H928 C934 0.950 . S
H929 C935 0.950 . S
H930 C936 0.949 . S
C931 H926 0.950 . S
C931 C933 1.327 . S
C931 C937 1.429 . S
C932 C924 1.574 . S
C932 H927 0.949 . S
C932 C938 1.368 . S
C933 C917 1.349 . S
C933 H925 0.950 . S
C933 C931 1.327 . S
C934 C922 1.349 . S
C934 H928 0.950 . S
C934 C935 1.327 . S
C935 H929 0.950 . S
C935 C934 1.327 . S
C935 C939 1.429 . S
C936 C919 1.574 . S
C936 H930 0.949 . S
C936 C940 1.368 . S
C937 C918 1.429 . S
C937 C931 1.429 . S
C937 C938 1.523 . S
C938 C919 1.368 . S
C938 C932 1.368 . S
C938 C937 1.523 . S
C939 C923 1.429 . S
C939 C935 1.429 . S
C939 C940 1.523 . S
C940 C924 1.368 . S
C940 C936 1.368 . S
C940 C939 1.523 . S
H941 C916 0.950 . S
H942 C918 0.950 . S
H943 C919 0.949 . S
H944 C921 0.950 1_554 S
H945 C923 0.970 . S
C946 C947 1.349 . S
C946 C948 1.327 . S
C946 H971 0.950 . S
C947 C946 1.349 . S
C947 C963 1.349 . S
C948 C946 1.327 . S
C948 C967 1.429 . S
C948 H972 0.950 . S
C949 C966 1.574 . S
C949 C968 1.368 . S
C949 H973 0.949 . S
H950 C954 0.949 . S
C951 C952 1.349 . S
C951 C953 1.327 . S
C951 H974 0.950 . S
C952 C951 1.349 . S
C952 C964 1.349 . S
C953 C951 1.327 . S
C953 C969 1.429 . S
C953 H975 0.950 . S
C954 H950 0.949 . S
C954 C962 1.574 . S
C954 C970 1.368 . S
H955 C963 0.950 . S
H956 C961 0.950 . S
H957 C962 0.949 . S
H958 C964 0.950 . S
H959 C965 0.950 . S
H960 C966 0.949 . S
C961 H956 0.950 . S
C961 C963 1.327 . S
C961 C967 1.429 . S
C962 C954 1.574 . S
C962 H957 0.949 . S
C962 C968 1.368 . S
C963 C947 1.349 . S
C963 H955 0.950 . S
C963 C961 1.327 . S
C964 C952 1.349 . S
C964 H958 0.950 . S
C964 C965 1.327 . S
C965 H959 0.950 . S
C965 C964 1.327 . S
C965 C969 1.429 . S
C966 C949 1.574 . S
C966 H960 0.949 . S
C966 C970 1.368 . S
C967 C948 1.429 . S
C967 C961 1.429 . S
C967 C968 1.523 . S
C968 C949 1.368 . S
C968 C962 1.368 . S
C968 C967 1.523 . S
C969 C953 1.429 . S
C969 C965 1.429 . S
C969 C970 1.523 . S
C970 C954 1.368 . S
C970 C966 1.368 . S
C970 C969 1.523 . S
H971 C946 0.950 . S
H972 C948 0.950 . S
H973 C949 0.949 . S
H974 C951 0.950 . S
H975 C953 0.950 . S
C976 C977 1.349 . S
C976 C978 1.327 . S
C976 H1001 0.950 . S
C977 C976 1.349 . S
C977 C993 1.349 . S
C978 C976 1.327 . S
C978 C997 1.429 . S
C978 H1002 0.950 . S
C979 C996 1.574 . S
C979 C998 1.368 . S
C979 H1003 0.949 . S
H980 C984 0.949 . S
C981 C982 1.349 . S
C981 C983 1.327 . S
C981 H1004 0.950 . S
C982 C981 1.349 . S
C982 C994 1.349 . S
C983 C981 1.327 . S
C983 C999 1.429 . S
C983 H1005 0.950 . S
C984 H980 0.949 . S
C984 C992 1.574 . S
C984 C1000 1.368 . S
H985 C993 0.950 . S
H986 C991 0.950 . S
H987 C992 0.949 . S
H988 C994 0.950 . S
H989 C995 0.950 . S
H990 C996 0.949 . S
C991 H986 0.950 . S
C991 C993 1.327 . S
C991 C997 1.429 . S
C992 C984 1.574 . S
C992 H987 0.949 . S
C992 C998 1.368 . S
C993 C977 1.349 . S
C993 H985 0.950 . S
C993 C991 1.327 . S
C994 C982 1.349 . S
C994 H988 0.950 . S
C994 C995 1.327 . S
C995 H989 0.950 . S
C995 C994 1.327 . S
C995 C999 1.429 . S
C996 C979 1.574 . S
C996 H990 0.949 . S
C996 C1000 1.368 . S
C997 C978 1.429 . S
C997 C991 1.429 . S
C997 C998 1.523 . S
C998 C979 1.368 . S
C998 C992 1.368 . S
C998 C997 1.523 . S
C999 C983 1.429 . S
C999 C995 1.429 . S
C999 C1000 1.523 . S
C1000 C984 1.368 . S
C1000 C996 1.368 . S
C1000 C999 1.523 . S
H1001 C976 0.950 . S
H1002 C978 0.950 . S
H1003 C979 0.949 . S
H1004 C981 0.950 . S
H1005 C983 0.950 . S
C1006 C1007 1.349 . S
C1006 C1008 1.327 . S
C1006 H1031 0.950 . S
C1007 C1006 1.349 . S
C1007 C1023 1.349 . S
C1008 C1006 1.327 . S
C1008 C1027 1.429 . S
C1008 H1032 0.950 . S
C1009 C1026 1.574 . S
C1009 C1028 1.368 . S
C1009 H1033 0.949 . S
H1010 C1014 0.949 . S
C1011 C1012 1.349 . S
C1011 C1013 1.327 . S
C1011 H1034 0.950 . S
C1012 C1011 1.349 . S
C1012 C1024 1.349 . S
C1013 C1011 1.327 . S
C1013 C1029 1.429 . S
C1013 H1035 0.950 . S
C1014 H1010 0.949 . S
C1014 C1022 1.574 . S
C1014 C1030 1.368 . S
H1015 C1023 0.950 . S
H1016 C1021 0.950 . S
H1017 C1022 0.949 . S
H1018 C1024 0.950 . S
H1019 C1025 0.950 . S
H1020 C1026 0.949 . S
C1021 H1016 0.950 . S
C1021 C1023 1.327 . S
C1021 C1027 1.429 . S
C1022 C1014 1.574 . S
C1022 H1017 0.949 . S
C1022 C1028 1.368 . S
C1023 C1007 1.349 . S
C1023 H1015 0.950 . S
C1023 C1021 1.327 . S
C1024 C1012 1.349 . S
C1024 H1018 0.950 . S
C1024 C1025 1.327 . S
C1025 H1019 0.950 . S
C1025 C1024 1.327 . S
C1025 C1029 1.429 . S
C1026 C1009 1.574 . S
C1026 H1020 0.949 . S
C1026 C1030 1.368 . S
C1027 C1008 1.429 . S
C1027 C1021 1.429 . S
C1027 C1028 1.523 . S
C1028 C1009 1.368 . S
C1028 C1022 1.368 . S
C1028 C1027 1.523 . S
C1029 C1013 1.429 . S
C1029 C1025 1.429 . S
C1029 C1030 1.523 . S
C1030 C1014 1.368 . S
C1030 C1026 1.368 . S
C1030 C1029 1.523 . S
H1031 C1006 0.950 . S
H1032 C1008 0.950 . S
H1033 C1009 0.949 . S
H1034 C1011 0.950 . S
H1035 C1013 0.950 . S
C1036 C1037 1.349 . S
C1036 C1038 1.327 . S
C1036 H1061 0.950 . S
C1037 C1036 1.349 . S
C1037 C1053 1.349 . S
C1038 C1036 1.327 . S
C1038 C1057 1.429 . S
C1038 H1062 0.950 . S
C1039 C1056 1.574 . S
C1039 C1058 1.368 . S
C1039 H1063 0.949 . S
H1040 C1044 0.949 . S
C1041 C1042 1.349 . S
C1041 C1043 1.327 . S
C1041 H1064 0.950 . S
C1042 C1041 1.349 . S
C1042 C1054 1.349 . S
C1043 C1041 1.327 . S
C1043 C1059 1.429 . S
C1043 H1065 0.950 . S
C1044 H1040 0.949 . S
C1044 C1052 1.574 . S
C1044 C1060 1.368 . S
H1045 C1053 0.950 . S
H1046 C1051 0.950 . S
H1047 C1052 0.949 . S
H1048 C1054 0.950 . S
H1049 C1055 0.950 . S
H1050 C1056 0.949 . S
C1051 H1046 0.950 . S
C1051 C1053 1.327 . S
C1051 C1057 1.429 . S
C1052 C1044 1.574 . S
C1052 H1047 0.949 . S
C1052 C1058 1.368 . S
C1053 C1037 1.349 . S
C1053 H1045 0.950 . S
C1053 C1051 1.327 . S
C1054 C1042 1.349 . S
C1054 H1048 0.950 . S
C1054 C1055 1.327 . S
C1055 H1049 0.950 . S
C1055 C1054 1.327 . S
C1055 C1059 1.429 . S
C1056 C1039 1.574 . S
C1056 H1050 0.949 . S
C1056 C1060 1.368 . S
C1057 C1038 1.429 . S
C1057 C1051 1.429 . S
C1057 C1058 1.523 . S
C1058 C1039 1.368 . S
C1058 C1052 1.368 . S
C1058 C1057 1.523 . S
C1059 C1043 1.429 . S
C1059 C1055 1.429 . S
C1059 C1060 1.523 . S
C1060 C1044 1.368 . S
C1060 C1056 1.368 . S
C1060 C1059 1.523 . S
H1061 C1036 0.950 . S
H1062 C1038 0.950 . S
H1063 C1039 0.949 . S
H1064 C1041 0.950 . S
H1065 C1043 0.950 . S
C1066 C1067 1.349 . S
C1066 C1068 1.327 . S
C1066 H1091 0.950 . S
C1067 C1066 1.349 . S
C1067 C1083 1.349 . S
C1068 C1066 1.327 . S
C1068 C1087 1.429 . S
C1068 H1092 0.950 . S
C1069 C1086 1.574 . S
C1069 C1088 1.368 . S
C1069 H1093 0.949 . S
H1070 C1074 0.949 . S
C1071 C1072 1.349 . S
C1071 C1073 1.327 . S
C1071 H1094 0.950 . S
C1072 C1071 1.349 . S
C1072 C1084 1.349 . S
C1073 C1071 1.327 . S
C1073 C1089 1.429 . S
C1073 H1095 0.950 . S
C1074 H1070 0.949 . S
C1074 C1082 1.574 . S
C1074 C1090 1.368 . S
H1075 C1083 0.950 . S
H1076 C1081 0.950 . S
H1077 C1082 0.949 . S
H1078 C1084 0.950 . S
H1079 C1085 0.950 . S
H1080 C1086 0.949 . S
C1081 H1076 0.950 . S
C1081 C1083 1.327 . S
C1081 C1087 1.429 . S
C1082 C1074 1.574 . S
C1082 H1077 0.949 . S
C1082 C1088 1.368 . S
C1083 C1067 1.349 . S
C1083 H1075 0.950 . S
C1083 C1081 1.327 . S
C1084 C1072 1.349 . S
C1084 H1078 0.950 . S
C1084 C1085 1.327 . S
C1085 H1079 0.950 . S
C1085 C1084 1.327 . S
C1085 C1089 1.429 . S
C1086 C1069 1.574 . S
C1086 H1080 0.949 . S
C1086 C1090 1.368 . S
C1087 C1068 1.429 . S
C1087 C1081 1.429 . S
C1087 C1088 1.523 . S
C1088 C1069 1.368 . S
C1088 C1082 1.368 . S
C1088 C1087 1.523 . S
C1089 C1073 1.429 . S
C1089 C1085 1.429 . S
C1089 C1090 1.523 . S
C1090 C1074 1.368 . S
C1090 C1086 1.368 . S
C1090 C1089 1.523 . S
H1091 C1066 0.950 . S
H1092 C1068 0.950 . S
H1093 C1069 0.949 . S
H1094 C1071 0.950 . S
H1095 C1073 0.950 . S
C1096 C1097 1.349 . S
C1096 C1098 1.327 . S
C1096 H1121 0.950 . S
C1097 C1096 1.349 . S
C1097 C1113 1.349 . S
C1098 C1096 1.327 . S
C1098 C1117 1.429 . S
C1098 H1122 0.950 . S
C1099 C1116 1.574 . S
C1099 C1118 1.368 . S
C1099 H1123 0.949 . S
H1100 C1104 0.949 . S
C1101 C1102 1.349 . S
C1101 C1103 1.327 . S
C1101 H1124 0.950 . S
C1102 C1101 1.349 . S
C1102 C1114 1.349 . S
C1103 C1101 1.327 . S
C1103 C1119 1.429 . S
C1103 H1125 0.950 . S
C1104 H1100 0.949 . S
C1104 C1112 1.574 . S
C1104 C1120 1.368 . S
H1105 C1113 0.950 . S
H1106 C1111 0.950 . S
H1107 C1112 0.949 . S
H1108 C1114 0.950 . S
H1109 C1115 0.950 . S
H1110 C1116 0.949 . S
C1111 H1106 0.950 . S
C1111 C1113 1.327 . S
C1111 C1117 1.429 . S
C1112 C1104 1.574 . S
C1112 H1107 0.949 . S
C1112 C1118 1.368 . S
C1113 C1097 1.349 . S
C1113 H1105 0.950 . S
C1113 C1111 1.327 . S
C1114 C1102 1.349 . S
C1114 H1108 0.950 . S
C1114 C1115 1.327 . S
C1115 H1109 0.950 . S
C1115 C1114 1.327 . S
C1115 C1119 1.429 . S
C1116 C1099 1.574 . S
C1116 H1110 0.949 . S
C1116 C1120 1.368 . S
C1117 C1098 1.429 . S
C1117 C1111 1.429 . S
C1117 C1118 1.523 . S
C1118 C1099 1.368 . S
C1118 C1112 1.368 . S
C1118 C1117 1.523 . S
C1119 C1103 1.429 . S
C1119 C1115 1.429 . S
C1119 C1120 1.523 . S
C1120 C1104 1.368 . S
C1120 C1116 1.368 . S
C1120 C1119 1.523 . S
H1121 C1096 0.950 . S
H1122 C1098 0.950 . S
H1123 C1099 0.949 . S
H1124 C1101 0.950 . S
H1125 C1103 0.950 . S
C1126 C1127 1.349 . S
C1126 C1128 1.327 . S
C1126 H1151 0.950 . S
C1127 C1126 1.349 . S
C1127 C1143 1.349 . S
C1128 C1126 1.327 . S
C1128 C1147 1.429 . S
C1128 H1152 0.950 . S
C1129 C1146 1.574 . S
C1129 C1148 1.368 . S
C1129 H1153 0.949 . S
H1130 C1134 0.949 . S
C1131 C1132 1.349 . S
C1131 C1133 1.327 . S
C1131 H1154 0.950 . S
C1132 C1131 1.349 . S
C1132 C1144 1.349 . S
C1133 C1131 1.327 . S
C1133 C1149 1.429 . S
C1133 H1155 0.950 . S
C1134 H1130 0.949 . S
C1134 C1142 1.574 . S
C1134 C1150 1.368 . S
H1135 C1143 0.950 . S
H1136 C1141 0.950 . S
H1137 C1142 0.949 . S
H1138 C1144 0.950 . S
H1139 C1145 0.950 . S
H1140 C1146 0.949 . S
C1141 H1136 0.950 . S
C1141 C1143 1.327 . S
C1141 C1147 1.429 . S
C1142 C1134 1.574 . S
C1142 H1137 0.949 . S
C1142 C1148 1.368 . S
C1143 C1127 1.349 . S
C1143 H1135 0.950 . S
C1143 C1141 1.327 . S
C1144 C1132 1.349 . S
C1144 H1138 0.950 . S
C1144 C1145 1.327 . S
C1145 H1139 0.950 . S
C1145 C1144 1.327 . S
C1145 C1149 1.429 . S
C1146 C1129 1.574 . S
C1146 H1140 0.949 . S
C1146 C1150 1.368 . S
C1147 C1128 1.429 . S
C1147 C1141 1.429 . S
C1147 C1148 1.523 . S
C1148 C1129 1.368 . S
C1148 C1142 1.368 . S
C1148 C1147 1.523 . S
C1149 C1133 1.429 . S
C1149 C1145 1.429 . S
C1149 C1150 1.523 . S
C1150 C1134 1.368 . S
C1150 C1146 1.368 . S
C1150 C1149 1.523 . S
H1151 C1126 0.950 . S
H1152 C1128 0.950 . S
H1153 C1129 0.949 . S
H1154 C1131 0.950 . S
H1155 C1133 0.950 . S
C1156 C1157 1.349 . S
C1156 C1158 1.327 . S
C1156 H1181 0.950 . S
C1157 C1156 1.349 . S
C1157 C1173 1.349 . S
C1158 C1156 1.327 . S
C1158 C1177 1.429 . S
C1158 H1182 0.950 . S
C1159 C1176 1.574 . S
C1159 C1178 1.368 . S
C1159 H1183 0.949 . S
H1160 C1164 0.949 . S
C1161 C1162 1.349 . S
C1161 C1163 1.327 . S
C1161 H1184 0.950 . S
C1162 C1161 1.349 . S
C1162 C1174 1.349 . S
C1163 C1161 1.327 . S
C1163 C1179 1.429 . S
C1163 H1185 0.950 . S
C1164 H1160 0.949 . S
C1164 C1172 1.574 . S
C1164 C1180 1.368 . S
H1165 C1173 0.950 . S
H1166 C1171 0.950 . S
H1167 C1172 0.949 . S
H1168 C1174 0.950 . S
H1169 C1175 0.950 . S
H1170 C1176 0.949 . S
C1171 H1166 0.950 . S
C1171 C1173 1.327 . S
C1171 C1177 1.429 . S
C1172 C1164 1.574 . S
C1172 H1167 0.949 . S
C1172 C1178 1.368 . S
C1173 C1157 1.349 . S
C1173 H1165 0.950 . S
C1173 C1171 1.327 . S
C1174 C1162 1.349 . S
C1174 H1168 0.950 . S
C1174 C1175 1.327 . S
C1175 H1169 0.950 . S
C1175 C1174 1.327 . S
C1175 C1179 1.429 . S
C1176 C1159 1.574 . S
C1176 H1170 0.949 . S
C1176 C1180 1.368 . S
C1177 C1158 1.429 . S
C1177 C1171 1.429 . S
C1177 C1178 1.523 . S
C1178 C1159 1.368 . S
C1178 C1172 1.368 . S
C1178 C1177 1.523 . S
C1179 C1163 1.429 . S
C1179 C1175 1.429 . S
C1179 C1180 1.523 . S
C1180 C1164 1.368 . S
C1180 C1176 1.368 . S
C1180 C1179 1.523 . S
H1181 C1156 0.950 . S
H1182 C1158 0.950 . S
H1183 C1159 0.949 . S
H1184 C1161 0.950 . S
H1185 C1163 0.950 . S
C1186 C1187 1.349 . S
C1186 C1188 1.327 . S
C1186 H1211 0.950 . S
C1187 C1186 1.349 . S
C1187 C1203 1.349 . S
C1188 C1186 1.327 . S
C1188 C1207 1.429 . S
C1188 H1212 0.950 . S
C1189 C1206 1.574 . S
C1189 C1208 1.368 . S
C1189 H1213 0.949 . S
H1190 C1194 0.949 . S
C1191 C1192 1.349 . S
C1191 C1193 1.327 . S
C1191 H1214 0.950 . S
C1192 C1191 1.349 . S
C1192 C1204 1.349 . S
C1193 C1191 1.327 . S
C1193 C1209 1.429 . S
C1193 H1215 0.950 . S
C1194 H1190 0.949 . S
C1194 C1202 1.574 . S
C1194 C1210 1.368 . S
H1195 C1203 0.950 . S
H1196 C1201 0.950 . S
H1197 C1202 0.949 . S
H1198 C1204 0.950 . S
H1199 C1205 0.950 . S
H1200 C1206 0.949 . S
C1201 H1196 0.950 . S
C1201 C1203 1.327 . S
C1201 C1207 1.429 . S
C1202 C1194 1.574 . S
C1202 H1197 0.949 . S
C1202 C1208 1.368 . S
C1203 C1187 1.349 . S
C1203 H1195 0.950 . S
C1203 C1201 1.327 . S
C1204 C1192 1.349 . S
C1204 H1198 0.950 . S
C1204 C1205 1.327 . S
C1205 H1199 0.950 . S
C1205 C1204 1.327 . S
C1205 C1209 1.429 . S
C1206 C1189 1.574 . S
C1206 H1200 0.949 . S
C1206 C1210 1.368 . S
C1207 C1188 1.429 . S
C1207 C1201 1.429 . S
C1207 C1208 1.523 . S
C1208 C1189 1.368 . S
C1208 C1202 1.368 . S
C1208 C1207 1.523 . S
C1209 C1193 1.429 . S
C1209 C1205 1.429 . S
C1209 C1210 1.523 . S
C1210 C1194 1.368 . S
C1210 C1206 1.368 . S
C1210 C1209 1.523 . S
H1211 C1186 0.950 . S
H1212 C1188 0.950 . S
H1213 C1189 0.949 . S
H1214 C1191 0.950 . S
H1215 C1193 0.950 . S
C1216 C1217 1.349 . S
C1216 C1218 1.327 . S
C1216 H1241 0.950 . S
C1217 C1216 1.349 . S
C1217 C1233 1.349 . S
C1218 C1216 1.327 . S
C1218 C1237 1.429 . S
C1218 H1242 0.950 . S
C1219 C1236 1.574 . S
C1219 C1238 1.368 . S
C1219 H1243 0.949 . S
H1220 C1224 0.949 . S
C1221 C1222 1.349 . S
C1221 C1223 1.327 . S
C1221 H1244 0.950 . S
C1222 C1221 1.349 . S
C1222 C1234 1.349 . S
C1223 C1221 1.327 . S
C1223 C1239 1.429 . S
C1223 H1245 0.950 . S
C1224 H1220 0.949 . S
C1224 C1232 1.574 . S
C1224 C1240 1.368 . S
H1225 C1233 0.950 . S
H1226 C1231 0.950 . S
H1227 C1232 0.949 . S
H1228 C1234 0.950 . S
H1229 C1235 0.950 . S
H1230 C1236 0.949 . S
C1231 H1226 0.950 . S
C1231 C1233 1.327 . S
C1231 C1237 1.429 . S
C1232 C1224 1.574 . S
C1232 H1227 0.949 . S
C1232 C1238 1.368 . S
C1233 C1217 1.349 . S
C1233 H1225 0.950 . S
C1233 C1231 1.327 . S
C1234 C1222 1.349 . S
C1234 H1228 0.950 . S
C1234 C1235 1.327 . S
C1235 H1229 0.950 . S
C1235 C1234 1.327 . S
C1235 C1239 1.429 . S
C1236 C1219 1.574 . S
C1236 H1230 0.949 . S
C1236 C1240 1.368 . S
C1237 C1218 1.429 . S
C1237 C1231 1.429 . S
C1237 C1238 1.523 . S
C1238 C1219 1.368 . S
C1238 C1232 1.368 . S
C1238 C1237 1.523 . S
C1239 C1223 1.429 . S
C1239 C1235 1.429 . S
C1239 C1240 1.523 . S
C1240 C1224 1.368 . S
C1240 C1236 1.368 . S
C1240 C1239 1.523 . S
H1241 C1216 0.950 . S
H1242 C1218 0.950 . S
H1243 C1219 0.949 . S
H1244 C1221 0.950 . S
H1245 C1223 0.950 . S
C1246 C1247 1.349 . S
C1246 C1248 1.327 . S
C1246 H1271 0.950 . S
C1247 C1246 1.349 . S
C1247 C1263 1.349 . S
C1248 C1246 1.327 . S
C1248 C1267 1.429 . S
C1248 H1272 0.950 . S
C1249 C1266 1.574 . S
C1249 C1268 1.368 . S
C1249 H1273 0.949 . S
H1250 C1254 0.949 . S
C1251 C1252 1.349 . S
C1251 C1253 1.327 . S
C1251 H1274 0.950 . S
C1252 C1251 1.349 . S
C1252 C1264 1.349 . S
C1253 C1251 1.327 . S
C1253 C1269 1.429 . S
C1253 H1275 0.950 . S
C1254 H1250 0.949 . S
C1254 C1262 1.574 . S
C1254 C1270 1.368 . S
H1255 C1263 0.950 . S
H1256 C1261 0.950 . S
H1257 C1262 0.949 . S
H1258 C1264 0.950 . S
H1259 C1265 0.950 . S
H1260 C1266 0.949 . S
C1261 H1256 0.950 . S
C1261 C1263 1.327 . S
C1261 C1267 1.429 . S
C1262 C1254 1.574 . S
C1262 H1257 0.949 . S
C1262 C1268 1.368 . S
C1263 C1247 1.349 . S
C1263 H1255 0.950 . S
C1263 C1261 1.327 . S
C1264 C1252 1.349 . S
C1264 H1258 0.950 . S
C1264 C1265 1.327 . S
C1265 H1259 0.950 . S
C1265 C1264 1.327 . S
C1265 C1269 1.429 . S
C1266 C1249 1.574 . S
C1266 H1260 0.949 . S
C1266 C1270 1.368 . S
C1267 C1248 1.429 . S
C1267 C1261 1.429 . S
C1267 C1268 1.523 . S
C1268 C1249 1.368 . S
C1268 C1262 1.368 . S
C1268 C1267 1.523 . S
C1269 C1253 1.429 . S
C1269 C1265 1.429 . S
C1269 C1270 1.523 . S
C1270 C1254 1.368 . S
C1270 C1266 1.368 . S
C1270 C1269 1.523 . S
H1271 C1246 0.950 . S
H1272 C1248 0.950 . S
H1273 C1249 0.949 . S
H1274 C1251 0.950 . S
H1275 C1253 0.950 . S
C1276 C1277 1.349 . S
C1276 C1278 1.327 . S
C1276 H1301 0.950 . S
C1277 C1276 1.349 . S
C1277 C1293 1.349 . S
C1278 C1276 1.327 . S
C1278 C1297 1.429 . S
C1278 H1302 0.950 . S
C1279 C1296 1.574 . S
C1279 C1298 1.368 . S
C1279 H1303 0.949 . S
H1280 C1284 0.949 . S
C1281 C1282 1.349 . S
C1281 C1283 1.327 . S
C1281 H1304 0.950 . S
C1282 C1281 1.349 . S
C1282 C1294 1.349 . S
C1283 C1281 1.327 . S
C1283 C1299 1.429 . S
C1283 H1305 0.950 . S
C1284 H1280 0.949 . S
C1284 C1292 1.574 . S
C1284 C1300 1.368 . S
H1285 C1293 0.950 . S
H1286 C1291 0.950 . S
H1287 C1292 0.949 . S
H1288 C1294 0.950 . S
H1289 C1295 0.950 . S
H1290 C1296 0.949 . S
C1291 H1286 0.950 . S
C1291 C1293 1.327 . S
C1291 C1297 1.429 . S
C1292 C1284 1.574 . S
C1292 H1287 0.949 . S
C1292 C1298 1.368 . S
C1293 C1277 1.349 . S
C1293 H1285 0.950 . S
C1293 C1291 1.327 . S
C1294 C1282 1.349 . S
C1294 H1288 0.950 . S
C1294 C1295 1.327 . S
C1295 H1289 0.950 . S
C1295 C1294 1.327 . S
C1295 C1299 1.429 . S
C1296 C1279 1.574 . S
C1296 H1290 0.949 . S
C1296 C1300 1.368 . S
C1297 C1278 1.429 . S
C1297 C1291 1.429 . S
C1297 C1298 1.523 . S
C1298 C1279 1.368 . S
C1298 C1292 1.368 . S
C1298 C1297 1.523 . S
C1299 C1283 1.429 . S
C1299 C1295 1.429 . S
C1299 C1300 1.523 . S
C1300 C1284 1.368 . S
C1300 C1296 1.368 . S
C1300 C1299 1.523 . S
H1301 C1276 0.950 . S
H1302 C1278 0.950 . S
H1303 C1279 0.949 . S
H1304 C1281 0.950 . S
H1305 C1283 0.950 . S
C1306 C1307 1.349 . S
C1306 C1308 1.327 . S
C1306 H1331 0.950 . S
C1307 C1306 1.349 . S
C1307 C1323 1.349 . S
C1308 C1306 1.327 . S
C1308 C1327 1.429 . S
C1308 H1332 0.950 . S
C1309 C1326 1.574 . S
C1309 C1328 1.368 . S
C1309 H1333 0.949 . S
H1310 C1314 0.949 . S
C1311 C1312 1.349 . S
C1311 C1313 1.327 . S
C1311 H1334 0.950 . S
C1312 C1311 1.349 . S
C1312 C1324 1.349 . S
C1313 C1311 1.327 . S
C1313 C1329 1.429 . S
C1313 H1335 0.950 . S
C1314 H1310 0.949 . S
C1314 C1322 1.574 . S
C1314 C1330 1.368 . S
H1315 C1323 0.950 . S
H1316 C1321 0.950 . S
H1317 C1322 0.949 . S
H1318 C1324 0.950 . S
H1319 C1325 0.950 . S
H1320 C1326 0.949 . S
C1321 H1316 0.950 . S
C1321 C1323 1.327 . S
C1321 C1327 1.429 . S
C1322 C1314 1.574 . S
C1322 H1317 0.949 . S
C1322 C1328 1.368 . S
C1323 C1307 1.349 . S
C1323 H1315 0.950 . S
C1323 C1321 1.327 . S
C1324 C1312 1.349 . S
C1324 H1318 0.950 . S
C1324 C1325 1.327 . S
C1325 H1319 0.950 . S
C1325 C1324 1.327 . S
C1325 C1329 1.429 . S
C1326 C1309 1.574 . S
C1326 H1320 0.949 . S
C1326 C1330 1.368 . S
C1327 C1308 1.429 . S
C1327 C1321 1.429 . S
C1327 C1328 1.523 . S
C1328 C1309 1.368 . S
C1328 C1322 1.368 . S
C1328 C1327 1.523 . S
C1329 C1313 1.429 . S
C1329 C1325 1.429 . S
C1329 C1330 1.523 . S
C1330 C1314 1.368 . S
C1330 C1326 1.368 . S
C1330 C1329 1.523 . S
H1331 C1306 0.950 . S
H1332 C1308 0.950 . S
H1333 C1309 0.949 . S
H1334 C1311 0.950 . S
H1335 C1313 0.950 . S
C1336 C1337 1.349 . S
C1336 C1338 1.327 . S
C1336 H1361 0.950 . S
C1337 C1336 1.349 . S
C1337 C1353 1.349 . S
C1338 C1336 1.327 . S
C1338 C1357 1.429 . S
C1338 H1362 0.950 . S
C1339 C1356 1.574 . S
C1339 C1358 1.368 . S
C1339 H1363 0.949 . S
H1340 C1344 0.949 . S
C1341 C1342 1.349 . S
C1341 C1343 1.327 . S
C1341 H1364 0.950 . S
C1342 C1341 1.349 . S
C1342 C1354 1.349 . S
C1343 C1341 1.327 . S
C1343 C1359 1.429 . S
C1343 H1365 0.950 . S
C1344 H1340 0.949 . S
C1344 C1352 1.574 . S
C1344 C1360 1.368 . S
H1345 C1353 0.950 . S
H1346 C1351 0.950 . S
H1347 C1352 0.949 . S
H1348 C1354 0.950 . S
H1349 C1355 0.950 . S
H1350 C1356 0.949 . S
C1351 H1346 0.950 . S
C1351 C1353 1.327 . S
C1351 C1357 1.429 . S
C1352 C1344 1.574 . S
C1352 H1347 0.949 . S
C1352 C1358 1.368 . S
C1353 C1337 1.349 . S
C1353 H1345 0.950 . S
C1353 C1351 1.327 . S
C1354 C1342 1.349 . S
C1354 H1348 0.950 . S
C1354 C1355 1.327 . S
C1355 H1349 0.950 . S
C1355 C1354 1.327 . S
C1355 C1359 1.429 . S
C1356 C1339 1.574 . S
C1356 H1350 0.949 . S
C1356 C1360 1.368 . S
C1357 C1338 1.429 . S
C1357 C1351 1.429 . S
C1357 C1358 1.523 . S
C1358 C1339 1.368 . S
C1358 C1352 1.368 . S
C1358 C1357 1.523 . S
C1359 C1343 1.429 . S
C1359 C1355 1.429 . S
C1359 C1360 1.523 . S
C1360 C1344 1.368 . S
C1360 C1356 1.368 . S
C1360 C1359 1.523 . S
H1361 C1336 0.950 . S
H1362 C1338 0.950 . S
H1363 C1339 0.949 . S
H1364 C1341 0.950 . S
H1365 C1343 0.950 . S
C1366 C1367 1.349 . S
C1366 C1368 1.327 . S
C1366 H1391 0.950 . S
C1367 C1366 1.349 . S
C1367 C1383 1.349 . S
C1368 C1366 1.327 . S
C1368 C1387 1.429 . S
C1368 H1392 0.950 . S
C1369 C1386 1.574 . S
C1369 C1388 1.368 . S
C1369 H1393 0.949 . S
H1370 C1374 0.949 . S
C1371 C1372 1.349 . S
C1371 C1373 1.327 . S
C1371 H1394 0.950 . S
C1372 C1371 1.349 . S
C1372 C1384 1.349 . S
C1373 C1371 1.327 . S
C1373 C1389 1.429 . S
C1373 H1395 0.950 . S
C1374 H1370 0.949 . S
C1374 C1382 1.574 . S
C1374 C1390 1.368 . S
H1375 C1383 0.950 . S
H1376 C1381 0.950 . S
H1377 C1382 0.949 . S
H1378 C1384 0.950 . S
H1379 C1385 0.950 . S
H1380 C1386 0.949 . S
C1381 H1376 0.950 . S
C1381 C1383 1.327 . S
C1381 C1387 1.429 . S
C1382 C1374 1.574 . S
C1382 H1377 0.949 . S
C1382 C1388 1.368 . S
C1383 C1367 1.349 . S
C1383 H1375 0.950 . S
C1383 C1381 1.327 . S
C1384 C1372 1.349 . S
C1384 H1378 0.950 . S
C1384 C1385 1.327 . S
C1385 H1379 0.950 . S
C1385 C1384 1.327 . S
C1385 C1389 1.429 . S
C1386 C1369 1.574 . S
C1386 H1380 0.949 . S
C1386 C1390 1.368 . S
C1387 C1368 1.429 . S
C1387 C1381 1.429 . S
C1387 C1388 1.523 . S
C1388 C1369 1.368 . S
C1388 C1382 1.368 . S
C1388 C1387 1.523 . S
C1389 C1373 1.429 . S
C1389 C1385 1.429 . S
C1389 C1390 1.523 . S
C1390 C1374 1.368 . S
C1390 C1386 1.368 . S
C1390 C1389 1.523 . S
H1391 C1366 0.950 . S
H1392 C1368 0.950 . S
H1393 C1369 0.949 . S
H1394 C1371 0.950 . S
H1395 C1373 0.950 . S
C1396 C1397 1.349 . S
C1396 C1398 1.327 . S
C1396 H1421 0.950 . S
C1397 C1396 1.349 . S
C1397 C1413 1.349 . S
C1398 C1396 1.327 . S
C1398 C1417 1.429 . S
C1398 H1422 0.950 . S
C1399 C1416 1.574 . S
C1399 C1418 1.368 . S
C1399 H1423 0.949 . S
H1400 C1404 0.949 . S
C1401 C1402 1.349 . S
C1401 C1403 1.327 . S
C1401 H1424 0.950 . S
C1402 C1401 1.349 . S
C1402 C1414 1.349 . S
C1403 C1401 1.327 . S
C1403 C1419 1.429 . S
C1403 H1425 0.950 . S
C1404 H1400 0.949 . S
C1404 C1412 1.574 . S
C1404 C1420 1.368 . S
H1405 C1413 0.950 . S
H1406 C1411 0.950 . S
H1407 C1412 0.949 . S
H1408 C1414 0.950 . S
H1409 C1415 0.950 . S
H1410 C1416 0.949 . S
C1411 H1406 0.950 . S
C1411 C1413 1.327 . S
C1411 C1417 1.429 . S
C1412 C1404 1.574 . S
C1412 H1407 0.949 . S
C1412 C1418 1.368 . S
C1413 C1397 1.349 . S
C1413 H1405 0.950 . S
C1413 C1411 1.327 . S
C1414 C1402 1.349 . S
C1414 H1408 0.950 . S
C1414 C1415 1.327 . S
C1415 H1409 0.950 . S
C1415 C1414 1.327 . S
C1415 C1419 1.429 . S
C1416 C1399 1.574 . S
C1416 H1410 0.949 . S
C1416 C1420 1.368 . S
C1417 C1398 1.429 . S
C1417 C1411 1.429 . S
C1417 C1418 1.523 . S
C1418 C1399 1.368 . S
C1418 C1412 1.368 . S
C1418 C1417 1.523 . S
C1419 C1403 1.429 . S
C1419 C1415 1.429 . S
C1419 C1420 1.523 . S
C1420 C1404 1.368 . S
C1420 C1416 1.368 . S
C1420 C1419 1.523 . S
H1421 C1396 0.950 . S
H1422 C1398 0.950 . S
H1423 C1399 0.949 . S
H1424 C1401 0.950 . S
H1425 C1403 0.950 . S
C1426 C1427 1.349 . S
C1426 C1428 1.327 . S
C1426 H1451 0.950 . S
C1427 C1426 1.349 . S
C1427 C1443 1.349 . S
C1428 C1426 1.327 . S
C1428 C1447 1.429 . S
C1428 H1452 0.950 . S
C1429 C1446 1.574 . S
C1429 C1448 1.368 . S
C1429 H1453 0.949 . S
H1430 C1434 0.949 . S
C1431 C1432 1.349 . S
C1431 C1433 1.327 . S
C1431 H1454 0.950 . S
C1432 C1431 1.349 . S
C1432 C1444 1.349 . S
C1433 C1431 1.327 . S
C1433 C1449 1.429 . S
C1433 H1455 0.950 . S
C1434 H1430 0.949 . S
C1434 C1442 1.574 . S
C1434 C1450 1.368 . S
H1435 C1443 0.950 . S
H1436 C1441 0.950 . S
H1437 C1442 0.949 . S
H1438 C1444 0.950 . S
H1439 C1445 0.950 . S
H1440 C1446 0.949 . S
C1441 H1436 0.950 . S
C1441 C1443 1.327 . S
C1441 C1447 1.429 . S
C1442 C1434 1.574 . S
C1442 H1437 0.949 . S
C1442 C1448 1.368 . S
C1443 C1427 1.349 . S
C1443 H1435 0.950 . S
C1443 C1441 1.327 . S
C1444 C1432 1.349 . S
C1444 H1438 0.950 . S
C1444 C1445 1.327 . S
C1445 H1439 0.950 . S
C1445 C1444 1.327 . S
C1445 C1449 1.429 . S
C1446 C1429 1.574 . S
C1446 H1440 0.949 . S
C1446 C1450 1.368 . S
C1447 C1428 1.429 . S
C1447 C1441 1.429 . S
C1447 C1448 1.523 . S
C1448 C1429 1.368 . S
C1448 C1442 1.368 . S
C1448 C1447 1.523 . S
C1449 C1433 1.429 . S
C1449 C1445 1.429 . S
C1449 C1450 1.523 . S
C1450 C1434 1.368 . S
C1450 C1446 1.368 . S
C1450 C1449 1.523 . S
H1451 C1426 0.950 . S
H1452 C1428 0.950 . S
H1453 C1429 0.949 . S
H1454 C1431 0.950 . S
H1455 C1433 0.950 . S
C502 C406 1.245 . S
C497 C36 1.218 . S
C532 C420 1.250 . S
C527 C93 1.236 . S
C562 C435 1.234 . S
C557 C126 1.241 . S
C587 C165 1.214 . S
C592 C393 1.217 . S
C617 C222 1.201 . S
C622 C392 1.222 . S
C647 C261 1.205 . S
C652 C407 1.204 . S
C682 C421 1.255 . S
C677 C318 1.258 . S
C712 C434 1.262 . S
C707 C381 1.248 . S
C737 C132 1.203 . S
C742 C462 1.229 . S
C772 C476 1.275 . S
C767 C189 1.255 . S
C797 C30 1.213 . S
C802 C491 1.209 . S
C832 C448 1.208 . S
C827 C69 1.179 . S
C857 C324 1.230 . S
C862 C449 1.226 . S
C887 C357 1.232 . S
C892 C463 1.230 . S
C922 C477 1.232 . S
C917 C228 1.241 . S
C947 C285 1.261 . S
C952 C490 1.276 . S
C982 C415 1.738 . S
C977 C45 1.731 . S
C1012 C433 1.688 . S
C1007 C84 1.735 . S
C1037 C117 1.727 . S
C1042 C391 1.691 . S
C1067 C174 1.714 . S
C1072 C401 1.749 . S
C1097 C213 1.725 . S
C1102 C429 1.727 . S
C1132 C387 1.736 . S
C1127 C270 1.706 . S
C1162 C405 1.684 . S
C1157 C309 1.723 . S
C1192 C419 1.684 . S
C1187 C372 1.732 . S
C1222 C471 1.729 . S
C1217 C141 1.723 . S
C1252 C489 1.678 . S
C1247 C180 1.723 . S
C1277 C21 1.722 . S
C1282 C443 1.729 . S
C1312 C457 1.726 . S
C1307 C78 1.698 . S
C1342 C485 1.749 . S
C1337 C333 1.742 . S
C1367 C366 1.710 . S
C1372 C447 1.699 . S
C1402 C461 1.693 . S
C1397 C237 1.734 . S
C1432 C475 1.692 . S
C1427 C276 1.738 . S
