# Generated by pormake.
# Topology apo, (3,6)-cn, num edge types: 1
# Building blocks:
#     Node 0, Type 0, BuildingBlock: KAKCAD_clean_linker_0, # of connection points: 3
#     Node 1, Type 0, BuildingBlock: KAKCAD_clean_linker_0, # of connection points: 3
#     Node 2, Type 0, BuildingBlock: KAKCAD_clean_linker_0, # of connection points: 3
#     Node 3, Type 0, BuildingBlock: KAKCAD_clean_linker_0, # of connection points: 3
#     Node 4, Type 0, BuildingBlock: KAKCAD_clean_linker_0, # of connection points: 3
#     Node 5, Type 0, BuildingBlock: KAKCAD_clean_linker_0, # of connection points: 3
#     Node 6, Type 0, BuildingBlock: KAKCAD_clean_linker_0, # of connection points: 3
#     Node 7, Type 0, BuildingBlock: KAKCAD_clean_linker_0, # of connection points: 3
#     Node 8, Type 1, BuildingBlock: KUMBUR_clean_sbu_1, # of connection points: 6
#     Node 9, Type 1, BuildingBlock: KUMBUR_clean_sbu_1, # of connection points: 6
#     Node 10, Type 1, BuildingBlock: KUMBUR_clean_sbu_1, # of connection points: 6
#     Node 11, Type 1, BuildingBlock: KUMBUR_clean_sbu_1, # of connection points: 6
#     Edge 12, Type (0, 1), None
#     Edge 13, Type (0, 1), None
#     Edge 14, Type (0, 1), None
#     Edge 15, Type (0, 1), None
#     Edge 16, Type (0, 1), None
#     Edge 17, Type (0, 1), None
#     Edge 18, Type (0, 1), None
#     Edge 19, Type (0, 1), None
#     Edge 20, Type (0, 1), None
#     Edge 21, Type (0, 1), None
#     Edge 22, Type (0, 1), None
#     Edge 23, Type (0, 1), None
#     Edge 24, Type (0, 1), None
#     Edge 25, Type (0, 1), None
#     Edge 26, Type (0, 1), None
#     Edge 27, Type (0, 1), None
#     Edge 28, Type (0, 1), None
#     Edge 29, Type (0, 1), None
#     Edge 30, Type (0, 1), None
#     Edge 31, Type (0, 1), None
#     Edge 32, Type (0, 1), None
#     Edge 33, Type (0, 1), None
#     Edge 34, Type (0, 1), None
#     Edge 35, Type (0, 1), None
# Relax obj value: 0.006
# Max RMSD: 0.141
# Mean RMSD: 0.105
data_MOF--net-apo--node1-KUMBUR_clean_sbu_1--node2-KAKCAD_clean_linker_0--edge1-none
_symmetry_space_group_name_H-M    P1
_symmetry_Int_Tables_number       1
_symmetry_cell_setting            triclinic
loop_
_symmetry_equiv_pos_as_xyz
'x, y, z'
_cell_length_a     16.503874
_cell_length_b     28.256362
_cell_length_c     37.984898
_cell_angle_alpha  89.807234
_cell_angle_beta   90.112818
_cell_angle_gamma 90.690429
loop_
_atom_site_label
_atom_site_type_symbol
_atom_site_fract_x
_atom_site_fract_y
_atom_site_fract_z
_atom_type_partial_charge
C0 C 0.31009 0.52237 0.32611 0.0
C1 C 0.39375 0.53142 0.32366 0.0
C2 C 0.28034 0.48634 0.34807 0.0
C3 C 0.3336 0.45982 0.36893 0.0
C4 C 0.41674 0.4703 0.36793 0.0
C5 C 0.44661 0.50546 0.34534 0.0
C6 C 0.30325 0.41955 0.39025 0.0
C7 C 0.26249 0.38209 0.37378 0.0
C8 C 0.23551 0.34261 0.39314 0.0
C9 C 0.24857 0.34122 0.42988 0.0
C10 C 0.28888 0.37915 0.447 0.0
C11 C 0.31664 0.41788 0.42664 0.0
C12 C 0.29976 0.38051 0.48607 0.0
C13 C 0.23531 0.36938 0.50905 0.0
C14 C 0.37227 0.39862 0.50054 0.0
C15 C 0.37786 0.4093 0.53635 0.0
C16 C 0.31151 0.40162 0.55883 0.0
C17 C 0.19305 0.30382 0.37407 0.0
C18 C 0.12868 0.31469 0.3513 0.0
C19 C 0.22056 0.25696 0.37575 0.0
C20 C 0.18445 0.22172 0.35476 0.0
C21 C 0.11952 0.23279 0.33234 0.0
C22 C 0.09225 0.27959 0.33074 0.0
C23 C 0.24122 0.3798 0.54517 0.0
H24 H 0.26764 0.54264 0.31087 0.0
H25 H 0.21574 0.47908 0.34873 0.0
H26 H 0.45888 0.45021 0.38378 0.0
H27 H 0.51144 0.51182 0.34463 0.0
H28 H 0.25345 0.38319 0.34548 0.0
H29 H 0.34672 0.4477 0.4392 0.0
H30 H 0.2269 0.31106 0.44501 0.0
H31 H 0.17854 0.35554 0.49882 0.0
H32 H 0.42376 0.40663 0.4838 0.0
H33 H 0.43306 0.42566 0.54625 0.0
H34 H 0.10664 0.35057 0.34932 0.0
H35 H 0.27104 0.24789 0.39263 0.0
H36 H 0.18902 0.37374 0.5619 0.0
H37 H 0.04248 0.28906 0.31355 0.0
H38 H 0.20637 0.18579 0.35642 0.0
C39 C 0.15588 0.96608 0.83891 0.0
C40 C 0.07665 0.97093 0.82577 0.0
C41 C 0.19032 0.0013 0.86043 0.0
C42 C 0.14625 0.04192 0.86892 0.0
C43 C 0.06806 0.04727 0.85521 0.0
C44 C 0.03361 0.01217 0.8339 0.0
C45 C 0.18336 0.08051 0.88992 0.0
C46 C 0.21788 0.11948 0.87246 0.0
C47 C 0.25299 0.15699 0.89143 0.0
C48 C 0.25294 0.15537 0.92848 0.0
C49 C 0.219 0.11619 0.94663 0.0
C50 C 0.18375 0.07894 0.92693 0.0
C51 C 0.22493 0.11274 0.98587 0.0
C52 C 0.29857 0.12326 1.00301 0.0
C53 C 0.15889 0.09672 1.00635 0.0
C54 C 0.16713 0.09011 0.04288 0.0
C55 C 0.24193 0.09861 0.05959 0.0
C56 C 0.29357 0.19628 0.87206 0.0
C57 C 0.35386 0.18601 0.84732 0.0
C58 C 0.27141 0.24365 0.87721 0.0
C59 C 0.30853 0.28006 0.85758 0.0
C60 C 0.36944 0.26959 0.83314 0.0
C61 C 0.39192 0.22228 0.82834 0.0
C62 C 0.3071 0.11593 0.03931 0.0
H63 H 0.19063 0.9348 0.83308 0.0
H64 H 0.25144 0.997 0.87028 0.0
H65 H 0.0337 0.07875 0.86093 0.0
H66 H 0.97304 0.01742 0.82373 0.0
H67 H 0.2176 0.12053 0.84389 0.0
H68 H 0.1581 0.0483 0.94028 0.0
H69 H 0.28088 0.18414 0.9431 0.0
H70 H 0.35085 0.13528 0.98812 0.0
H71 H 0.10116 0.08862 0.99402 0.0
H72 H 0.11614 0.07629 0.05779 0.0
H73 H 0.37199 0.14981 0.84284 0.0
H74 H 0.22456 0.25235 0.89596 0.0
H75 H 0.36556 0.12261 0.05146 0.0
H76 H 0.43848 0.21323 0.80953 0.0
H77 H 0.29043 0.31633 0.86175 0.0
C78 C 0.87544 0.0207 0.73946 0.0
C79 C 0.87736 0.97773 0.72113 0.0
C80 C 0.86161 0.06303 0.72151 0.0
C81 C 0.84767 0.06324 0.68491 0.0
C82 C 0.84816 0.01995 0.66675 0.0
C83 C 0.86334 0.97768 0.68465 0.0
C84 C 0.82852 0.10809 0.66615 0.0
C85 C 0.77882 0.14153 0.68239 0.0
C86 C 0.75386 0.1824 0.66443 0.0
C87 C 0.78038 0.18994 0.62979 0.0
C88 C 0.83209 0.15774 0.61348 0.0
C89 C 0.85637 0.11698 0.63171 0.0
C90 C 0.85824 0.1666 0.57689 0.0
C91 C 0.79996 0.172 0.55028 0.0
C92 C 0.9407 0.17224 0.56868 0.0
C93 C 0.96438 0.18419 0.53438 0.0
C94 C 0.90592 0.18962 0.50778 0.0
C95 C 0.69856 0.21632 0.68172 0.0
C96 C 0.63882 0.19967 0.7052 0.0
C97 C 0.70538 0.26542 0.67542 0.0
C98 C 0.65384 0.29695 0.69238 0.0
C99 C 0.59651 0.27988 0.71649 0.0
C100 C 0.5896 0.23119 0.72291 0.0
C101 C 0.82364 0.18298 0.51596 0.0
H102 H 0.88784 0.02188 0.76745 0.0
H103 H 0.86312 0.09571 0.73632 0.0
H104 H 0.8361 0.0186 0.63874 0.0
H105 H 0.86496 0.94495 0.6699 0.0
H106 H 0.75824 0.13523 0.70904 0.0
H107 H 0.8958 0.09201 0.61885 0.0
H108 H 0.76036 0.22068 0.61518 0.0
H109 H 0.73603 0.16784 0.55613 0.0
H110 H 0.98646 0.16851 0.58895 0.0
H111 H 0.02821 0.18886 0.52855 0.0
H112 H 0.62976 0.16222 0.71005 0.0
H113 H 0.75143 0.27964 0.65796 0.0
H114 H 0.77753 0.18712 0.49587 0.0
H115 H 0.54566 0.21745 0.74162 0.0
H116 H 0.66037 0.33462 0.68753 0.0
C117 C 0.58527 0.47808 0.22981 0.0
C118 C 0.58917 0.52191 0.21243 0.0
C119 C 0.60764 0.43683 0.21243 0.0
C120 C 0.63522 0.43869 0.17745 0.0
C121 C 0.63993 0.48277 0.16022 0.0
C122 C 0.61733 0.52407 0.17763 0.0
C123 C 0.66211 0.395 0.15954 0.0
C124 C 0.71045 0.36245 0.1777 0.0
C125 C 0.7403 0.3219 0.16098 0.0
C126 C 0.72 0.31409 0.12541 0.0
C127 C 0.66917 0.34544 0.10728 0.0
C128 C 0.64069 0.38588 0.1244 0.0
C129 C 0.6445 0.33542 0.07057 0.0
C130 C 0.70295 0.33119 0.04401 0.0
C131 C 0.56219 0.32933 0.06207 0.0
C132 C 0.53876 0.31829 0.02762 0.0
C133 C 0.59716 0.31435 1.00101 0.0
C134 C 0.79149 0.28783 0.18103 0.0
C135 C 0.8438 0.30395 0.20795 0.0
C136 C 0.78708 0.23885 0.17423 0.0
C137 C 0.83362 0.20708 0.19379 0.0
C138 C 0.88349 0.22349 0.22112 0.0
C139 C 0.88815 0.27205 0.22814 0.0
C140 C 0.67937 0.32131 1.00937 0.0
H141 H 0.56299 0.47552 0.25657 0.0
H142 H 0.60246 0.40338 0.2263 0.0
H143 H 0.66217 0.48541 0.13347 0.0
H144 H 0.62135 0.55766 0.16386 0.0
H145 H 0.72492 0.36902 0.20507 0.0
H146 H 0.60179 0.41017 0.11032 0.0
H147 H 0.74294 0.28349 0.11172 0.0
H148 H 0.76674 0.33585 0.05004 0.0
H149 H 0.51619 0.33227 0.08223 0.0
H150 H 0.47504 0.31312 1.02167 0.0
H151 H 0.85122 0.34131 0.21343 0.0
H152 H 0.74669 0.22479 0.15427 0.0
H153 H 0.72536 0.31822 0.98923 0.0
H154 H 0.92751 0.28542 0.24881 0.0
H155 H 0.82929 0.16958 0.1881 0.0
C156 C 0.53499 0.48621 0.68754 0.0
C157 C 0.58158 0.46174 0.71258 0.0
C158 C 0.56943 0.52245 0.667 0.0
C159 C 0.65147 0.53528 0.67107 0.0
C160 C 0.69882 0.50975 0.69523 0.0
C161 C 0.66441 0.47329 0.71554 0.0
C162 C 0.68576 0.57733 0.65219 0.0
C163 C 0.73155 0.6112 0.67091 0.0
C164 C 0.75741 0.65401 0.65504 0.0
C165 C 0.74 0.66092 0.61911 0.0
C166 C 0.69773 0.62654 0.59931 0.0
C167 C 0.6697 0.58509 0.61624 0.0
C168 C 0.68551 0.63409 0.56076 0.0
C169 C 0.6683 0.67948 0.54754 0.0
C170 C 0.69815 0.59717 0.53666 0.0
C171 C 0.69844 0.60614 0.50034 0.0
C172 C 0.68672 0.65224 0.48744 0.0
C173 C 0.79893 0.69219 0.67622 0.0
C174 C 0.78567 0.69555 0.71272 0.0
C175 C 0.85022 0.72659 0.66037 0.0
C176 C 0.88324 0.76411 0.68007 0.0
C177 C 0.86835 0.76735 0.71636 0.0
C178 C 0.82184 0.73154 0.73242 0.0
C179 C 0.66953 0.6885 0.51137 0.0
H180 H 0.47125 0.47821 0.68441 0.0
H181 H 0.53102 0.5416 0.64886 0.0
H182 H 0.76258 0.51816 0.69859 0.0
H183 H 0.70296 0.45413 0.73344 0.0
H184 H 0.74524 0.60422 0.69827 0.0
H185 H 0.63527 0.55893 0.6015 0.0
H186 H 0.75923 0.69327 0.60621 0.0
H187 H 0.65606 0.7085 0.56523 0.0
H188 H 0.71198 0.56186 0.54588 0.0
H189 H 0.71207 0.57754 0.48246 0.0
H190 H 0.74606 0.6711 0.72652 0.0
H191 H 0.86533 0.72494 0.63273 0.0
H192 H 0.65883 0.7242 0.5021 0.0
H193 H 0.81237 0.73122 0.76036 0.0
H194 H 0.92071 0.79039 0.66685 0.0
C195 C 0.76654 0.89082 1.0109 0.0
C196 C 0.84276 0.90864 1.00045 0.0
C197 C 0.75262 0.87789 0.04605 0.0
C198 C 0.81507 0.88215 0.07108 0.0
C199 C 0.89267 0.89682 0.05982 0.0
C200 C 0.90609 0.91042 0.02501 0.0
C201 C 0.79838 0.87762 0.10938 0.0
C202 C 0.75012 0.84086 0.12361 0.0
C203 C 0.73546 0.83843 0.16023 0.0
C204 C 0.77044 0.8733 0.18227 0.0
C205 C 0.81717 0.91059 0.16816 0.0
C206 C 0.82985 0.91249 0.13183 0.0
C207 C 0.85054 0.94922 0.19052 0.0
C208 C 0.80297 0.96984 0.21681 0.0
C209 C 0.92785 0.96861 0.1835 0.0
C210 C 0.95548 0.00881 0.20131 0.0
C211 C 0.90703 0.03009 0.22694 0.0
C212 C 0.68358 0.80005 0.17579 0.0
C213 C 0.686 0.75331 0.16301 0.0
C214 C 0.6325 0.80978 0.20446 0.0
C215 C 0.58799 0.77363 0.22082 0.0
C216 C 0.5925 0.72694 0.20871 0.0
C217 C 0.64038 0.71716 0.17919 0.0
C218 C 0.83114 0.00982 0.23483 0.0
H219 H 0.7169 0.88888 0.99223 0.0
H220 H 0.69219 0.86696 0.05395 0.0
H221 H 0.94253 0.89949 0.07833 0.0
H222 H 0.96583 0.92298 1.01737 0.0
H223 H 0.72378 0.81457 0.10619 0.0
H224 H 0.86269 0.94242 0.12069 0.0
H225 H 0.76216 0.87126 0.21052 0.0
H226 H 0.74273 0.95627 0.2225 0.0
H227 H 0.96667 0.95307 0.16381 0.0
H228 H 0.01497 0.02312 0.19508 0.0
H229 H 0.72498 0.74431 0.14121 0.0
H230 H 0.62715 0.8454 0.21453 0.0
H231 H 0.79224 0.02576 0.25399 0.0
H232 H 0.64493 0.6813 0.16946 0.0
H233 H 0.55044 0.78216 0.24323 0.0
C234 C 0.09488 0.98063 0.31368 0.0
C235 C 0.09857 0.02583 0.32855 0.0
C236 C 0.1212 0.94139 0.33281 0.0
C237 C 0.15449 0.94663 0.36688 0.0
C238 C 0.1584 0.99233 0.38152 0.0
C239 C 0.1297 0.03138 0.36273 0.0
C240 C 0.18595 0.90459 0.38645 0.0
C241 C 0.22042 0.86706 0.36772 0.0
C242 C 0.24679 0.82584 0.38479 0.0
C243 C 0.24132 0.82324 0.42176 0.0
C244 C 0.21179 0.86147 0.44134 0.0
C245 C 0.18301 0.90166 0.4235 0.0
C246 C 0.21528 0.8603 0.48049 0.0
C247 C 0.18324 0.82165 0.49954 0.0
C248 C 0.25476 0.89695 0.49895 0.0
C249 C 0.26388 0.89447 0.53556 0.0
C250 C 0.23226 0.85574 0.55461 0.0
C251 C 0.28353 0.78696 0.3638 0.0
C252 C 0.25689 0.77732 0.32922 0.0
C253 C 0.34837 0.76074 0.37739 0.0
C254 C 0.38628 0.72663 0.35688 0.0
C255 C 0.36183 0.71841 0.32185 0.0
C256 C 0.29626 0.74402 0.30836 0.0
C257 C 0.19079 0.81968 0.5363 0.0
H258 H 0.06961 0.97548 0.28759 0.0
H259 H 0.11454 0.90684 0.32085 0.0
H260 H 0.18467 0.99825 0.40728 0.0
H261 H 0.13322 0.06612 0.37467 0.0
H262 H 0.22912 0.87058 0.3396 0.0
H263 H 0.15751 0.93022 0.43868 0.0
H264 H 0.26187 0.79199 0.43556 0.0
H265 H 0.15249 0.79295 0.48596 0.0
H266 H 0.28058 0.92695 0.48491 0.0
H267 H 0.29565 0.92289 0.54905 0.0
H268 H 0.20592 0.79586 0.31797 0.0
H269 H 0.37184 0.7674 0.40355 0.0
H270 H 0.16599 0.78941 0.55035 0.0
H271 H 0.27561 0.73883 0.28157 0.0
H272 H 0.43632 0.70757 0.36844 0.0
C273 C 0.27476 0.67246 0.0332 0.0
C274 C 0.35648 0.67417 0.04362 0.0
C275 C 0.25362 0.66057 0.99853 0.0
C276 C 0.31368 0.64937 0.97375 0.0
C277 C 0.39506 0.64897 0.9847 0.0
C278 C 0.41625 0.66155 1.01915 0.0
C279 C 0.29259 0.64153 0.93603 0.0
C280 C 0.24168 0.6735 0.91842 0.0
C281 C 0.22645 0.66921 0.88207 0.0
C282 C 0.26186 0.63173 0.86371 0.0
C283 C 0.30939 0.59796 0.88097 0.0
C284 C 0.32581 0.6036 0.91713 0.0
C285 C 0.34062 0.55697 0.86069 0.0
C286 C 0.29157 0.53491 0.83502 0.0
C287 C 0.4194 0.54014 0.8661 0.0
C288 C 0.44822 0.50211 0.84641 0.0
C289 C 0.39901 0.47998 0.82074 0.0
C290 C 0.17545 0.7041 0.86274 0.0
C291 C 0.17548 0.75218 0.8724 0.0
C292 C 0.12821 0.68983 0.83355 0.0
C293 C 0.08481 0.72285 0.8139 0.0
C294 C 0.08537 0.77052 0.8237 0.0
C295 C 0.12998 0.78491 0.85333 0.0
C296 C 0.32047 0.49718 0.8152 0.0
H297 H 0.22746 0.68217 0.05144 0.0
H298 H 0.19034 0.66086 0.99093 0.0
H299 H 0.44274 0.64078 0.96621 0.0
H300 H 0.47969 0.66222 0.02652 0.0
H301 H 0.21515 0.70224 0.93305 0.0
H302 H 0.36305 0.57807 0.93079 0.0
H303 H 0.25392 0.6292 0.83547 0.0
H304 H 0.23005 0.54641 0.83048 0.0
H305 H 0.45917 0.55664 0.8853 0.0
H306 H 0.50903 0.48991 0.85161 0.0
H307 H 0.21202 0.76493 0.89415 0.0
H308 H 0.12446 0.65306 0.82576 0.0
H309 H 0.28046 0.4811 0.79592 0.0
H310 H 0.13157 0.82177 0.86112 0.0
H311 H 0.04979 0.71104 0.79135 0.0
Tb312 Tb 0.10054 0.13542 0.24277 0.0
C313 C 0.73248 0.13073 0.295 0.0
N314 N 0.79157 0.16439 0.29702 0.0
C315 C 0.69588 0.2238 0.28021 0.0
C316 C 0.65294 0.14199 0.28455 0.0
C317 C 0.77325 0.21093 0.29163 0.0
C318 C 0.63565 0.18908 0.27619 0.0
C319 C 0.68959 0.0502 0.30772 0.0
C320 C 0.75046 0.08556 0.30614 0.0
C321 C 0.611 0.06054 0.29591 0.0
C322 C 0.59277 0.10635 0.28421 0.0
Tb323 Tb 0.91652 0.13905 0.31493 0.0
N324 N 0.8271 0.07692 0.3171 0.0
C325 C 0.70937 0.00592 0.32181 0.0
C326 C 0.8454 0.03494 0.33314 0.0
C327 C 0.7874 0.99847 0.33497 0.0
H328 H 0.81813 0.23837 0.2963 0.0
H329 H 0.80273 0.96479 0.34672 0.0
H330 H 0.24304 0.07758 0.28506 0.0
H331 H 0.08379 0.31725 0.19661 0.0
H332 H 0.90551 0.02947 0.34367 0.0
H333 H 0.66445 0.97772 0.32341 0.0
H334 H 0.04247 0.23368 0.19887 0.0
H335 H 0.6824 0.26059 0.27511 0.0
H336 H 0.56352 0.03373 0.29649 0.0
H337 H 0.53145 0.11419 0.27601 0.0
H338 H 0.37569 0.09599 0.31269 0.0
H339 H 0.57536 0.19923 0.26798 0.0
H340 H 0.20736 0.34422 0.22799 0.0
N341 N 0.22235 0.14868 0.26934 0.0
C342 C 0.25244 0.19357 0.26726 0.0
C343 C 0.34127 0.12381 0.30024 0.0
C344 C 0.32708 0.20584 0.28301 0.0
C345 C 0.26619 0.1135 0.28469 0.0
C346 C 0.37159 0.17024 0.29965 0.0
N347 N 0.13449 0.21391 0.23538 0.0
C348 C 0.0931 0.2451 0.2147 0.0
C349 C 0.23421 0.27473 0.24852 0.0
C350 C 0.20619 0.22747 0.25037 0.0
C351 C 0.18798 0.30759 0.22994 0.0
C352 C 0.11793 0.29253 0.21243 0.0
H353 H 0.42949 0.17816 0.31192 0.0
H354 H 0.41142 0.26333 0.29393 0.0
H355 H 0.33011 0.32371 0.26373 0.0
O356 O 0.14629 0.14653 0.19107 0.0
O357 O 0.11652 0.16097 0.2975 0.0
O358 O 0.99826 0.19929 0.30752 0.0
O359 O 0.16512 0.0801 0.21891 0.0
O360 O 0.98422 0.16405 0.22475 0.0
O361 O 0.93655 0.19563 0.27609 0.0
O362 O 0.95491 0.12805 0.36695 0.0
O363 O 0.91497 0.07877 0.27849 0.0
O364 O 0.98495 0.10195 0.22802 0.0
O365 O 0.84961 0.16949 0.35616 0.0
O366 O 0.02541 0.09795 0.32711 0.0
O367 O 0.0878 0.07164 0.27556 0.0
C368 C 0.07669 0.19588 0.31186 0.0
C369 C 0.2231 0.08584 0.15993 0.0
C370 C 0.25562 0.08399 0.09687 0.0
C371 C 0.31747 0.05165 0.10423 0.0
C372 C 0.2846 0.05299 0.16624 0.0
C373 C 0.33146 0.03617 0.13858 0.0
C374 C 0.20819 0.1011 0.12498 0.0
C375 C 0.93202 0.19022 0.24185 0.0
C376 C 0.17719 0.10453 0.19027 0.0
C377 C 0.3544 0.25307 0.28181 0.0
C378 C 0.30797 0.28747 0.26469 0.0
C379 C 0.93682 0.0727 0.2455 0.0
C380 C 0.92221 0.18566 0.40856 0.0
C381 C 0.92994 0.20184 0.47138 0.0
C382 C 0.97861 0.24189 0.46433 0.0
C383 C 0.96849 0.2265 0.40171 0.0
C384 C 0.90231 0.17378 0.4433 0.0
C385 C 0.9972 0.25431 0.42956 0.0
C386 C 0.06728 0.06681 0.30904 0.0
C387 C 0.89756 0.15328 0.38037 0.0
H388 H 0.35448 0.03779 0.0832 0.0
H389 H 0.29737 0.04082 0.19274 0.0
H390 H 0.37908 0.01107 0.1438 0.0
H391 H 0.16068 0.12632 0.11972 0.0
H392 H 0.00058 0.26404 0.48561 0.0
H393 H 0.98234 0.23657 0.37498 0.0
H394 H 0.86621 0.1422 0.44856 0.0
H395 H 0.03371 0.28559 0.42418 0.0
Tb396 Tb 0.37429 0.35877 0.74137 0.0
C397 C 0.75281 0.33403 0.78386 0.0
N398 N 0.68294 0.31181 0.79321 0.0
C399 C 0.74546 0.23641 0.78533 0.0
C400 C 0.82181 0.3084 0.77404 0.0
C401 C 0.67927 0.26362 0.79564 0.0
C402 C 0.81673 0.2589 0.77397 0.0
C403 C 0.83018 0.4072 0.78162 0.0
C404 C 0.75674 0.38245 0.78727 0.0
C405 C 0.89846 0.38234 0.77009 0.0
C406 C 0.8942 0.33296 0.76619 0.0
Tb407 Tb 0.57625 0.35911 0.80666 0.0
N408 N 0.68998 0.40471 0.79911 0.0
C409 C 0.83346 0.45565 0.78927 0.0
C410 C 0.69421 0.45115 0.80898 0.0
C411 C 0.76549 0.47755 0.80357 0.0
H412 H 0.62456 0.24616 0.80482 0.0
H413 H 0.76802 0.51467 0.81048 0.0
H414 H 0.21996 0.40107 0.78512 0.0
H415 H 0.41938 0.18392 0.6853 0.0
H416 H 0.6417 0.46798 0.82012 0.0
H417 H 0.88874 0.47603 0.78534 0.0
H418 H 0.4377 0.26993 0.68851 0.0
H419 H 0.74159 0.19816 0.7863 0.0
H420 H 0.95542 0.40068 0.76526 0.0
H421 H 0.94793 0.31401 0.7584 0.0
H422 H 0.09946 0.36974 0.81669 0.0
H423 H 0.8682 0.23779 0.76641 0.0
H424 H 0.31916 0.14344 0.7236 0.0
N425 N 0.26075 0.33309 0.77001 0.0
C426 C 0.24527 0.28588 0.76954 0.0
C427 C 0.14034 0.34574 0.80376 0.0
C428 C 0.17807 0.26631 0.78749 0.0
C429 C 0.20837 0.36338 0.78585 0.0
C430 C 0.12561 0.29693 0.80494 0.0
N431 N 0.35886 0.27833 0.7326 0.0
C432 C 0.39804 0.25291 0.70732 0.0
C433 C 0.28145 0.20826 0.74859 0.0
C434 C 0.29694 0.2574 0.75072 0.0
C435 C 0.329 0.18127 0.72605 0.0
C436 C 0.38588 0.20396 0.70454 0.0
H437 H 0.07309 0.28334 0.81895 0.0
H438 H 0.1147 0.20121 0.80126 0.0
H439 H 0.20494 0.15031 0.7669 0.0
O440 O 0.3151 0.34771 0.69261 0.0
O441 O 0.3708 0.34168 0.79838 0.0
O442 O 0.48796 0.30132 0.80482 0.0
O443 O 0.29758 0.41137 0.72137 0.0
O444 O 0.48985 0.33586 0.7191 0.0
O445 O 0.53686 0.30532 0.76982 0.0
O446 O 0.52318 0.37042 0.85619 0.0
O447 O 0.58298 0.41278 0.7646 0.0
O448 O 0.4738 0.40618 0.72451 0.0
O449 O 0.6445 0.34415 0.85212 0.0
O450 O 0.49896 0.42101 0.81123 0.0
O451 O 0.37769 0.4184 0.778 0.0
C452 C 0.41184 0.30736 0.81315 0.0
C453 C 0.29858 0.41787 0.65889 0.0
C454 C 0.31235 0.42292 0.59462 0.0
C455 C 0.32928 0.47158 0.59778 0.0
C456 C 0.31355 0.46692 0.66091 0.0
C457 C 0.3293 0.49336 0.63061 0.0
C458 C 0.29632 0.39612 0.62534 0.0
C459 C 0.54537 0.31231 0.73616 0.0
C460 C 0.28515 0.38987 0.69166 0.0
C461 C 0.16524 0.21708 0.78718 0.0
C462 C 0.21689 0.18808 0.76776 0.0
C463 C 0.54369 0.42472 0.73547 0.0
C464 C 0.56927 0.32097 0.902 0.0
C465 C 0.57266 0.30216 0.96466 0.0
C466 C 0.53164 0.25932 0.95781 0.0
C467 C 0.53145 0.2772 0.8954 0.0
C468 C 0.59104 0.33299 0.9366 0.0
C469 C 0.5118 0.24679 0.92325 0.0
C470 C 0.42746 0.43746 0.80163 0.0
C471 C 0.58583 0.35474 0.87333 0.0
H472 H 0.34136 0.49303 0.57463 0.0
H473 H 0.31429 0.48501 0.686 0.0
H474 H 0.34176 0.53095 0.63261 0.0
H475 H 0.28359 0.35853 0.62316 0.0
H476 H 0.51665 0.23516 0.97909 0.0
H477 H 0.51746 0.2666 0.8688 0.0
H478 H 0.62149 0.36649 0.94177 0.0
H479 H 0.48153 0.21333 0.91802 0.0
Tb480 Tb 0.06122 0.86858 0.73502 0.0
C481 C 0.70479 0.83776 0.78377 0.0
N482 N 0.75322 0.87711 0.78352 0.0
C483 C 0.6436 0.92214 0.7591 0.0
C484 C 0.62485 0.83874 0.77051 0.0
C485 C 0.72173 0.91966 0.7733 0.0
C486 C 0.59537 0.88136 0.75716 0.0
C487 C 0.68354 0.75652 0.803 0.0
C488 C 0.73348 0.79711 0.79963 0.0
C489 C 0.60507 0.75678 0.78866 0.0
C490 C 0.57589 0.79774 0.77232 0.0
Tb491 Tb 0.87973 0.8674 0.80802 0.0
N492 N 0.8103 0.79768 0.81244 0.0
C493 C 0.71383 0.71718 0.82108 0.0
C494 C 0.83903 0.76031 0.83148 0.0
C495 C 0.79166 0.71927 0.83567 0.0
H496 H 0.75493 0.95237 0.77691 0.0
H497 H 0.81508 0.68938 0.85019 0.0
H498 H 0.19129 0.78733 0.76366 0.0
H499 H 0.09959 0.0551 0.70589 0.0
H500 H 0.89885 0.76218 0.84308 0.0
H501 H 0.67733 0.68534 0.8243 0.0
H502 H 0.03012 0.97766 0.70399 0.0
H503 H 0.61987 0.9558 0.75048 0.0
H504 H 0.56601 0.72578 0.79061 0.0
H505 H 0.51458 0.79777 0.76205 0.0
H506 H 0.33027 0.7862 0.78717 0.0
H507 H 0.53436 0.88361 0.74672 0.0
H508 H 0.23681 0.06183 0.7319 0.0
N509 N 0.18988 0.8622 0.7567 0.0
C510 C 0.23436 0.90304 0.75721 0.0
C511 C 0.30365 0.8194 0.77922 0.0
C512 C 0.3146 0.90389 0.77 0.0
C513 C 0.22417 0.82034 0.76639 0.0
C514 C 0.34884 0.8614 0.78136 0.0
N515 N 0.12148 0.94183 0.73246 0.0
C516 C 0.08719 0.98057 0.71733 0.0
C517 C 0.24264 0.98738 0.74528 0.0
C518 C 0.19894 0.94422 0.74482 0.0
C519 C 0.20541 0.02793 0.73196 0.0
C520 C 0.12774 0.02434 0.71748 0.0
H521 H 0.41037 0.86053 0.79132 0.0
H522 H 0.41977 0.94829 0.78067 0.0
H523 H 0.35656 0.02146 0.75926 0.0
O524 O 0.08428 0.88469 0.68212 0.0
O525 O 0.08166 0.90299 0.7869 0.0
O526 O 0.95731 0.93057 0.80519 0.0
O527 O 0.11422 0.8162 0.70295 0.0
O528 O 0.94892 0.905 0.7211 0.0
O529 O 0.89001 0.92985 0.77331 0.0
O530 O 0.90407 0.85715 0.86171 0.0
O531 O 0.88811 0.80743 0.77172 0.0
O532 O 0.93886 0.84266 0.72225 0.0
O533 O 0.79893 0.89534 0.84519 0.0
O534 O 0.99814 0.83707 0.82044 0.0
O535 O 0.04818 0.80561 0.76854 0.0
C536 C 0.03701 0.93293 0.8048 0.0
C537 C 0.1879 0.84515 0.6528 0.0
C538 C 0.24389 0.85276 0.5934 0.0
C539 C 0.32171 0.85787 0.60811 0.0
C540 C 0.26609 0.84988 0.66695 0.0
C541 C 0.33264 0.856 0.64462 0.0
C542 C 0.17728 0.84597 0.616 0.0
C543 C 0.90386 0.9343 0.73919 0.0
C544 C 0.11539 0.84377 0.67534 0.0
C545 C 0.3581 0.94691 0.77083 0.0
C546 C 0.32212 0.98858 0.75862 0.0
C547 C 0.9005 0.80749 0.73765 0.0
C548 C 0.85428 0.91315 0.90099 0.0
C549 C 0.85643 0.92626 0.96421 0.0
C550 C 0.89034 0.97153 0.95839 0.0
C551 C 0.88696 0.95854 0.89541 0.0
C552 C 0.83811 0.89737 0.9353 0.0
C553 C 0.90491 0.98764 0.92411 0.0
C554 C 0.03988 0.80533 0.80309 0.0
C555 C 0.84089 0.88032 0.87184 0.0
H556 H 0.37408 0.86304 0.59132 0.0
H557 H 0.27571 0.84956 0.69508 0.0
H558 H 0.39285 0.85988 0.65567 0.0
H559 H 0.11674 0.84305 0.60499 0.0
H560 H 0.90506 0.99446 0.98035 0.0
H561 H 0.89901 0.97109 0.86901 0.0
H562 H 0.8136 0.86201 0.93955 0.0
H563 H 0.93075 0.02257 0.91979 0.0
Tb564 Tb 0.39791 0.62392 0.22572 0.0
C565 C 0.73898 0.67297 0.26238 0.0
N566 N 0.70115 0.6304 0.26706 0.0
C567 C 0.81044 0.5921 0.23716 0.0
C568 C 0.81192 0.67708 0.2433 0.0
C569 C 0.73861 0.58985 0.25663 0.0
C570 C 0.84644 0.63598 0.22984 0.0
C571 C 0.74604 0.75666 0.27625 0.0
C572 C 0.70692 0.71219 0.27863 0.0
C573 C 0.8165 0.76147 0.25582 0.0
C574 C 0.84936 0.72174 0.23934 0.0
Tb575 Tb 0.5811 0.63241 0.29758 0.0
N576 N 0.63759 0.70644 0.29736 0.0
C577 C 0.7135 0.79471 0.29481 0.0
C578 C 0.60783 0.74268 0.31703 0.0
C579 C 0.64472 0.7875 0.31569 0.0
H580 H 0.71453 0.55544 0.26368 0.0
H581 H 0.62008 0.81643 0.33071 0.0
H582 H 0.23608 0.65914 0.26839 0.0
H583 H 0.43914 0.47165 0.14172 0.0
H584 H 0.55497 0.73702 0.33324 0.0
H585 H 0.74172 0.8295 0.29366 0.0
H586 H 0.46398 0.55355 0.16169 0.0
H587 H 0.83869 0.55989 0.2283 0.0
H588 H 0.84685 0.79551 0.25315 0.0
H589 H 0.90488 0.72569 0.22438 0.0
H590 H 0.10531 0.62488 0.28824 0.0
H591 H 0.90253 0.63756 0.21508 0.0
H592 H 0.32612 0.42463 0.16728 0.0
N593 N 0.27641 0.59521 0.24543 0.0
C594 C 0.25682 0.55016 0.23621 0.0
C595 C 0.14772 0.60332 0.27391 0.0
C596 C 0.18281 0.52911 0.24667 0.0
C597 C 0.22197 0.62259 0.26284 0.0
C598 C 0.12843 0.55616 0.26619 0.0
N599 N 0.37588 0.55004 0.20246 0.0
C600 C 0.4186 0.53216 0.17485 0.0
C601 C 0.28933 0.48056 0.20242 0.0
C602 C 0.30941 0.52635 0.21453 0.0
C603 C 0.33917 0.45982 0.17719 0.0
C604 C 0.40307 0.48621 0.16274 0.0
H605 H 0.07079 0.54138 0.27466 0.0
H606 H 0.10847 0.46541 0.24444 0.0
H607 H 0.20139 0.42312 0.20526 0.0
O608 O 0.33555 0.6245 0.17725 0.0
O609 O 0.3781 0.59188 0.27844 0.0
O610 O 0.50595 0.56874 0.29447 0.0
O611 O 0.35535 0.68876 0.20584 0.0
O612 O 0.51804 0.59565 0.21231 0.0
O613 O 0.57294 0.56863 0.26449 0.0
O614 O 0.56097 0.63155 0.35235 0.0
O615 O 0.54603 0.69057 0.26241 0.0
O616 O 0.51643 0.65334 0.21105 0.0
O617 O 0.67488 0.61026 0.33127 0.0
O618 O 0.46606 0.66136 0.31522 0.0
O619 O 0.3864 0.68008 0.26588 0.0
C620 C 0.42708 0.56667 0.29835 0.0
C621 C 0.36688 0.69206 0.14331 0.0
C622 C 0.3801 0.69224 0.079 0.0
C623 C 0.44031 0.72766 0.08179 0.0
C624 C 0.42623 0.72811 0.14517 0.0
C625 C 0.46269 0.7456 0.11462 0.0
C626 C 0.34309 0.6748 0.10996 0.0
C627 C 0.56026 0.56462 0.2303 0.0
C628 C 0.33337 0.6703 0.17587 0.0
C629 C 0.16465 0.48246 0.23641 0.0
C630 C 0.21785 0.45823 0.2143 0.0
C631 C 0.55021 0.68863 0.22807 0.0
C632 C 0.67618 0.64676 0.38724 0.0
C633 C 0.69912 0.6635 0.44958 0.0
C634 C 0.75034 0.70151 0.43996 0.0
C635 C 0.72896 0.68422 0.37831 0.0
C636 C 0.66209 0.63618 0.42296 0.0
C637 C 0.76534 0.71157 0.40457 0.0
C638 C 0.40642 0.68425 0.29967 0.0
C639 C 0.6344 0.61896 0.35975 0.0
H640 H 0.46933 0.742 0.05846 0.0
H641 H 0.44529 0.74252 0.17025 0.0
H642 H 0.50883 0.77306 0.11643 0.0
H643 H 0.2975 0.64696 0.10817 0.0
H644 H 0.78021 0.72286 0.45988 0.0
H645 H 0.74235 0.69235 0.35111 0.0
H646 H 0.62175 0.6071 0.43 0.0
H647 H 0.80569 0.74052 0.39746 0.0
loop_
_geom_bond_atom_site_label_1
_geom_bond_atom_site_label_2
_geom_bond_distance
_geom_bond_site_symmetry_2
_ccdc_geom_bond_type
C0 C1 1.386 . S
C0 C2 1.397 . S
C0 H24 0.931 . S
C1 C0 1.386 . S
C1 C5 1.397 . S
C2 C0 1.397 . S
C2 C3 1.384 . S
C2 H25 0.930 . S
C3 C2 1.384 . S
C3 C4 1.377 . S
C3 C6 1.481 . S
C4 C3 1.377 . S
C4 C5 1.389 . S
C4 H26 0.929 . S
C5 C1 1.397 . S
C5 C4 1.389 . S
C5 H27 0.931 . S
C6 C3 1.481 . S
C6 C7 1.387 . S
C6 C11 1.390 . S
C7 C6 1.387 . S
C7 C8 1.401 . S
C7 H28 0.930 . S
C8 C7 1.401 . S
C8 C9 1.376 . S
C8 C17 1.511 . S
C9 C8 1.376 . S
C9 C10 1.392 . S
C9 H30 0.931 . S
C10 C9 1.392 . S
C10 C11 1.361 . S
C10 C12 1.500 . S
C11 C6 1.390 . S
C11 C10 1.361 . S
C11 H29 0.931 . S
C12 C10 1.500 . S
C12 C13 1.371 . S
C12 C14 1.365 . S
C13 C12 1.371 . S
C13 C23 1.386 . S
C13 H31 0.931 . S
C14 C12 1.365 . S
C14 C15 1.409 . S
C14 H32 0.929 . S
C15 C14 1.409 . S
C15 C16 1.380 . S
C15 H33 0.930 . S
C16 C15 1.380 . S
C16 C23 1.357 . S
C17 C8 1.511 . S
C17 C18 1.341 . S
C17 C19 1.371 . S
C18 C17 1.341 . S
C18 C22 1.394 . S
C18 H34 0.930 . S
C19 C17 1.371 . S
C19 C20 1.392 . S
C19 H35 0.931 . S
C20 C19 1.392 . S
C20 C21 1.331 . S
C20 H38 0.932 . S
C21 C20 1.331 . S
C21 C22 1.336 . S
C22 C18 1.394 . S
C22 C21 1.336 . S
C22 H37 0.929 . S
C23 C13 1.386 . S
C23 C16 1.357 . S
C23 H36 0.928 . S
H24 C0 0.931 . S
H25 C2 0.930 . S
H26 C4 0.929 . S
H27 C5 0.931 . S
H28 C7 0.930 . S
H29 C11 0.931 . S
H30 C9 0.931 . S
H31 C13 0.931 . S
H32 C14 0.929 . S
H33 C15 0.930 . S
H34 C18 0.930 . S
H35 C19 0.931 . S
H36 C23 0.928 . S
H37 C22 0.929 . S
H38 C20 0.932 . S
C39 C40 1.386 . S
C39 C41 1.397 1_565 S
C39 H63 0.931 . S
C40 C39 1.386 . S
C40 C44 1.397 . S
C41 C39 1.397 1_545 S
C41 C42 1.384 . S
C41 H64 0.930 . S
C42 C41 1.384 . S
C42 C43 1.377 . S
C42 C45 1.481 . S
C43 C42 1.377 . S
C43 C44 1.389 1_545 S
C43 H65 0.929 . S
C44 C40 1.397 . S
C44 C43 1.389 1_565 S
C44 H66 0.931 . S
C45 C42 1.481 . S
C45 C46 1.387 . S
C45 C50 1.390 . S
C46 C45 1.387 . S
C46 C47 1.401 . S
C46 H67 0.930 . S
C47 C46 1.401 . S
C47 C48 1.376 . S
C47 C56 1.511 . S
C48 C47 1.376 . S
C48 C49 1.392 . S
C48 H69 0.931 . S
C49 C48 1.392 . S
C49 C50 1.361 . S
C49 C51 1.500 . S
C50 C45 1.390 . S
C50 C49 1.361 . S
C50 H68 0.931 . S
C51 C49 1.500 . S
C51 C52 1.371 . S
C51 C53 1.365 . S
C52 C51 1.371 . S
C52 C62 1.386 1_556 S
C52 H70 0.931 . S
C53 C51 1.365 . S
C53 C54 1.409 1_556 S
C53 H71 0.929 . S
C54 C53 1.409 1_554 S
C54 C55 1.380 . S
C54 H72 0.930 . S
C55 C54 1.380 . S
C55 C62 1.357 . S
C56 C47 1.511 . S
C56 C57 1.341 . S
C56 C58 1.371 . S
C57 C56 1.341 . S
C57 C61 1.394 . S
C57 H73 0.930 . S
C58 C56 1.371 . S
C58 C59 1.392 . S
C58 H74 0.931 . S
C59 C58 1.392 . S
C59 C60 1.331 . S
C59 H77 0.932 . S
C60 C59 1.331 . S
C60 C61 1.336 . S
C61 C57 1.394 . S
C61 C60 1.336 . S
C61 H76 0.929 . S
C62 C52 1.386 1_554 S
C62 C55 1.357 . S
C62 H75 0.928 . S
H63 C39 0.931 . S
H64 C41 0.930 . S
H65 C43 0.929 . S
H66 C44 0.931 . S
H67 C46 0.930 . S
H68 C50 0.931 . S
H69 C48 0.931 . S
H70 C52 0.931 . S
H71 C53 0.929 . S
H72 C54 0.930 . S
H73 C57 0.930 . S
H74 C58 0.931 . S
H75 C62 0.928 . S
H76 C61 0.929 . S
H77 C59 0.932 . S
C78 C79 1.386 . S
C78 C80 1.397 1_565 S
C78 H102 0.931 . S
C79 C78 1.386 . S
C79 C83 1.397 . S
C80 C78 1.397 1_545 S
C80 C81 1.384 . S
C80 H103 0.930 . S
C81 C80 1.384 . S
C81 C82 1.377 . S
C81 C84 1.481 . S
C82 C81 1.377 . S
C82 C83 1.389 1_545 S
C82 H104 0.929 . S
C83 C79 1.397 . S
C83 C82 1.389 1_565 S
C83 H105 0.931 . S
C84 C81 1.481 . S
C84 C85 1.387 . S
C84 C89 1.390 . S
C85 C84 1.387 . S
C85 C86 1.401 . S
C85 H106 0.930 . S
C86 C85 1.401 . S
C86 C87 1.376 . S
C86 C95 1.511 . S
C87 C86 1.376 . S
C87 C88 1.392 . S
C87 H108 0.931 . S
C88 C87 1.392 . S
C88 C89 1.361 . S
C88 C90 1.500 . S
C89 C84 1.390 . S
C89 C88 1.361 . S
C89 H107 0.931 . S
C90 C88 1.500 . S
C90 C91 1.371 . S
C90 C92 1.365 . S
C91 C90 1.371 . S
C91 C101 1.386 . S
C91 H109 0.931 . S
C92 C90 1.365 . S
C92 C93 1.409 . S
C92 H110 0.929 . S
C93 C92 1.409 . S
C93 C94 1.380 . S
C93 H111 0.930 . S
C94 C93 1.380 . S
C94 C101 1.357 . S
C95 C86 1.511 . S
C95 C96 1.341 . S
C95 C97 1.371 . S
C96 C95 1.341 . S
C96 C100 1.394 . S
C96 H112 0.930 . S
C97 C95 1.371 . S
C97 C98 1.392 . S
C97 H113 0.931 . S
C98 C97 1.392 . S
C98 C99 1.331 . S
C98 H116 0.932 . S
C99 C98 1.331 . S
C99 C100 1.336 . S
C100 C96 1.394 . S
C100 C99 1.336 . S
C100 H115 0.929 . S
C101 C91 1.386 . S
C101 C94 1.357 . S
C101 H114 0.928 . S
H102 C78 0.931 . S
H103 C80 0.930 . S
H104 C82 0.929 . S
H105 C83 0.931 . S
H106 C85 0.930 . S
H107 C89 0.931 . S
H108 C87 0.931 . S
H109 C91 0.931 . S
H110 C92 0.929 . S
H111 C93 0.930 . S
H112 C96 0.930 . S
H113 C97 0.931 . S
H114 C101 0.928 . S
H115 C100 0.929 . S
H116 C98 0.932 . S
C117 C118 1.386 . S
C117 C119 1.397 . S
C117 H141 0.931 . S
C118 C117 1.386 . S
C118 C122 1.397 . S
C119 C117 1.397 . S
C119 C120 1.384 . S
C119 H142 0.930 . S
C120 C119 1.384 . S
C120 C121 1.377 . S
C120 C123 1.481 . S
C121 C120 1.377 . S
C121 C122 1.389 . S
C121 H143 0.929 . S
C122 C118 1.397 . S
C122 C121 1.389 . S
C122 H144 0.931 . S
C123 C120 1.481 . S
C123 C124 1.387 . S
C123 C128 1.390 . S
C124 C123 1.387 . S
C124 C125 1.401 . S
C124 H145 0.930 . S
C125 C124 1.401 . S
C125 C126 1.376 . S
C125 C134 1.511 . S
C126 C125 1.376 . S
C126 C127 1.392 . S
C126 H147 0.931 . S
C127 C126 1.392 . S
C127 C128 1.361 . S
C127 C129 1.500 . S
C128 C123 1.390 . S
C128 C127 1.361 . S
C128 H146 0.931 . S
C129 C127 1.500 . S
C129 C130 1.371 . S
C129 C131 1.365 . S
C130 C129 1.371 . S
C130 C140 1.386 1_554 S
C130 H148 0.931 . S
C131 C129 1.365 . S
C131 C132 1.409 1_554 S
C131 H149 0.929 . S
C132 C131 1.409 1_556 S
C132 C133 1.380 . S
C132 H150 0.930 . S
C133 C132 1.380 . S
C133 C140 1.357 . S
C134 C125 1.511 . S
C134 C135 1.341 . S
C134 C136 1.371 . S
C135 C134 1.341 . S
C135 C139 1.394 . S
C135 H151 0.930 . S
C136 C134 1.371 . S
C136 C137 1.392 . S
C136 H152 0.931 . S
C137 C136 1.392 . S
C137 C138 1.331 . S
C137 H155 0.932 . S
C138 C137 1.331 . S
C138 C139 1.336 . S
C139 C135 1.394 . S
C139 C138 1.336 . S
C139 H154 0.929 . S
C140 C130 1.386 1_556 S
C140 C133 1.357 . S
C140 H153 0.928 . S
H141 C117 0.931 . S
H142 C119 0.930 . S
H143 C121 0.929 . S
H144 C122 0.931 . S
H145 C124 0.930 . S
H146 C128 0.931 . S
H147 C126 0.931 . S
H148 C130 0.931 . S
H149 C131 0.929 . S
H150 C132 0.930 . S
H151 C135 0.930 . S
H152 C136 0.931 . S
H153 C140 0.928 . S
H154 C139 0.929 . S
H155 C137 0.932 . S
C156 C157 1.386 . S
C156 C158 1.397 . S
C156 H180 0.931 . S
C157 C156 1.386 . S
C157 C161 1.397 . S
C158 C156 1.397 . S
C158 C159 1.384 . S
C158 H181 0.930 . S
C159 C158 1.384 . S
C159 C160 1.377 . S
C159 C162 1.481 . S
C160 C159 1.377 . S
C160 C161 1.389 . S
C160 H182 0.929 . S
C161 C157 1.397 . S
C161 C160 1.389 . S
C161 H183 0.931 . S
C162 C159 1.481 . S
C162 C163 1.387 . S
C162 C167 1.390 . S
C163 C162 1.387 . S
C163 C164 1.401 . S
C163 H184 0.930 . S
C164 C163 1.401 . S
C164 C165 1.376 . S
C164 C173 1.511 . S
C165 C164 1.376 . S
C165 C166 1.392 . S
C165 H186 0.931 . S
C166 C165 1.392 . S
C166 C167 1.361 . S
C166 C168 1.500 . S
C167 C162 1.390 . S
C167 C166 1.361 . S
C167 H185 0.931 . S
C168 C166 1.500 . S
C168 C169 1.371 . S
C168 C170 1.365 . S
C169 C168 1.371 . S
C169 C179 1.386 . S
C169 H187 0.931 . S
C170 C168 1.365 . S
C170 C171 1.409 . S
C170 H188 0.929 . S
C171 C170 1.409 . S
C171 C172 1.380 . S
C171 H189 0.930 . S
C172 C171 1.380 . S
C172 C179 1.357 . S
C173 C164 1.511 . S
C173 C174 1.341 . S
C173 C175 1.371 . S
C174 C173 1.341 . S
C174 C178 1.394 . S
C174 H190 0.930 . S
C175 C173 1.371 . S
C175 C176 1.392 . S
C175 H191 0.931 . S
C176 C175 1.392 . S
C176 C177 1.331 . S
C176 H194 0.932 . S
C177 C176 1.331 . S
C177 C178 1.336 . S
C178 C174 1.394 . S
C178 C177 1.336 . S
C178 H193 0.929 . S
C179 C169 1.386 . S
C179 C172 1.357 . S
C179 H192 0.928 . S
H180 C156 0.931 . S
H181 C158 0.930 . S
H182 C160 0.929 . S
H183 C161 0.931 . S
H184 C163 0.930 . S
H185 C167 0.931 . S
H186 C165 0.931 . S
H187 C169 0.931 . S
H188 C170 0.929 . S
H189 C171 0.930 . S
H190 C174 0.930 . S
H191 C175 0.931 . S
H192 C179 0.928 . S
H193 C178 0.929 . S
H194 C176 0.932 . S
C195 C196 1.386 . S
C195 C197 1.397 1_556 S
C195 H219 0.931 . S
C196 C195 1.386 . S
C196 C200 1.397 . S
C197 C195 1.397 1_554 S
C197 C198 1.384 . S
C197 H220 0.930 . S
C198 C197 1.384 . S
C198 C199 1.377 . S
C198 C201 1.481 . S
C199 C198 1.377 . S
C199 C200 1.389 1_554 S
C199 H221 0.929 . S
C200 C196 1.397 . S
C200 C199 1.389 1_556 S
C200 H222 0.931 . S
C201 C198 1.481 . S
C201 C202 1.387 . S
C201 C206 1.390 . S
C202 C201 1.387 . S
C202 C203 1.401 . S
C202 H223 0.930 . S
C203 C202 1.401 . S
C203 C204 1.376 . S
C203 C212 1.511 . S
C204 C203 1.376 . S
C204 C205 1.392 . S
C204 H225 0.931 . S
C205 C204 1.392 . S
C205 C206 1.361 . S
C205 C207 1.500 . S
C206 C201 1.390 . S
C206 C205 1.361 . S
C206 H224 0.931 . S
C207 C205 1.500 . S
C207 C208 1.371 . S
C207 C209 1.365 . S
C208 C207 1.371 . S
C208 C218 1.386 1_565 S
C208 H226 0.931 . S
C209 C207 1.365 . S
C209 C210 1.409 1_565 S
C209 H227 0.929 . S
C210 C209 1.409 1_545 S
C210 C211 1.380 . S
C210 H228 0.930 . S
C211 C210 1.380 . S
C211 C218 1.357 . S
C212 C203 1.511 . S
C212 C213 1.341 . S
C212 C214 1.371 . S
C213 C212 1.341 . S
C213 C217 1.394 . S
C213 H229 0.930 . S
C214 C212 1.371 . S
C214 C215 1.392 . S
C214 H230 0.931 . S
C215 C214 1.392 . S
C215 C216 1.331 . S
C215 H233 0.932 . S
C216 C215 1.331 . S
C216 C217 1.336 . S
C217 C213 1.394 . S
C217 C216 1.336 . S
C217 H232 0.929 . S
C218 C208 1.386 1_545 S
C218 C211 1.357 . S
C218 H231 0.928 . S
H219 C195 0.931 . S
H220 C197 0.930 . S
H221 C199 0.929 . S
H222 C200 0.931 . S
H223 C202 0.930 . S
H224 C206 0.931 . S
H225 C204 0.931 . S
H226 C208 0.931 . S
H227 C209 0.929 . S
H228 C210 0.930 . S
H229 C213 0.930 . S
H230 C214 0.931 . S
H231 C218 0.928 . S
H232 C217 0.929 . S
H233 C215 0.932 . S
C234 C235 1.386 1_565 S
C234 C236 1.397 . S
C234 H258 0.931 . S
C235 C234 1.386 1_545 S
C235 C239 1.397 . S
C236 C234 1.397 . S
C236 C237 1.384 . S
C236 H259 0.930 . S
C237 C236 1.384 . S
C237 C238 1.377 1_565 S
C237 C240 1.481 . S
C238 C237 1.377 1_545 S
C238 C239 1.389 . S
C238 H260 0.929 . S
C239 C235 1.397 . S
C239 C238 1.389 . S
C239 H261 0.931 . S
C240 C237 1.481 . S
C240 C241 1.387 . S
C240 C245 1.390 . S
C241 C240 1.387 . S
C241 C242 1.401 . S
C241 H262 0.930 . S
C242 C241 1.401 . S
C242 C243 1.376 . S
C242 C251 1.511 . S
C243 C242 1.376 . S
C243 C244 1.392 . S
C243 H264 0.931 . S
C244 C243 1.392 . S
C244 C245 1.361 . S
C244 C246 1.500 . S
C245 C240 1.390 . S
C245 C244 1.361 . S
C245 H263 0.931 . S
C246 C244 1.500 . S
C246 C247 1.371 . S
C246 C248 1.365 . S
C247 C246 1.371 . S
C247 C257 1.386 . S
C247 H265 0.931 . S
C248 C246 1.365 . S
C248 C249 1.409 . S
C248 H266 0.929 . S
C249 C248 1.409 . S
C249 C250 1.380 . S
C249 H267 0.930 . S
C250 C249 1.380 . S
C250 C257 1.357 . S
C251 C242 1.511 . S
C251 C252 1.341 . S
C251 C253 1.371 . S
C252 C251 1.341 . S
C252 C256 1.394 . S
C252 H268 0.930 . S
C253 C251 1.371 . S
C253 C254 1.392 . S
C253 H269 0.931 . S
C254 C253 1.392 . S
C254 C255 1.331 . S
C254 H272 0.932 . S
C255 C254 1.331 . S
C255 C256 1.336 . S
C256 C252 1.394 . S
C256 C255 1.336 . S
C256 H271 0.929 . S
C257 C247 1.386 . S
C257 C250 1.357 . S
C257 H270 0.928 . S
H258 C234 0.931 . S
H259 C236 0.930 . S
H260 C238 0.929 . S
H261 C239 0.931 . S
H262 C241 0.930 . S
H263 C245 0.931 . S
H264 C243 0.931 . S
H265 C247 0.931 . S
H266 C248 0.929 . S
H267 C249 0.930 . S
H268 C252 0.930 . S
H269 C253 0.931 . S
H270 C257 0.928 . S
H271 C256 0.929 . S
H272 C254 0.932 . S
C273 C274 1.386 . S
C273 C275 1.397 1_554 S
C273 H297 0.931 . S
C274 C273 1.386 . S
C274 C278 1.398 1_554 S
C275 C273 1.397 1_556 S
C275 C276 1.384 . S
C275 H298 0.930 . S
C276 C275 1.384 . S
C276 C277 1.377 . S
C276 C279 1.481 . S
C277 C276 1.377 . S
C277 C278 1.387 . S
C277 H299 0.929 . S
C278 C274 1.398 1_556 S
C278 C277 1.387 . S
C278 H300 0.931 1_556 S
C279 C276 1.481 . S
C279 C280 1.387 . S
C279 C284 1.390 . S
C280 C279 1.387 . S
C280 C281 1.401 . S
C280 H301 0.930 . S
C281 C280 1.401 . S
C281 C282 1.376 . S
C281 C290 1.511 . S
C282 C281 1.376 . S
C282 C283 1.392 . S
C282 H303 0.931 . S
C283 C282 1.392 . S
C283 C284 1.361 . S
C283 C285 1.500 . S
C284 C279 1.390 . S
C284 C283 1.361 . S
C284 H302 0.931 . S
C285 C283 1.500 . S
C285 C286 1.371 . S
C285 C287 1.365 . S
C286 C285 1.371 . S
C286 C296 1.386 . S
C286 H304 0.931 . S
C287 C285 1.365 . S
C287 C288 1.409 . S
C287 H305 0.929 . S
C288 C287 1.409 . S
C288 C289 1.380 . S
C288 H306 0.930 . S
C289 C288 1.380 . S
C289 C296 1.357 . S
C290 C281 1.511 . S
C290 C291 1.341 . S
C290 C292 1.371 . S
C291 C290 1.341 . S
C291 C295 1.394 . S
C291 H307 0.930 . S
C292 C290 1.371 . S
C292 C293 1.392 . S
C292 H308 0.931 . S
C293 C292 1.392 . S
C293 C294 1.331 . S
C293 H311 0.932 . S
C294 C293 1.331 . S
C294 C295 1.336 . S
C295 C291 1.394 . S
C295 C294 1.336 . S
C295 H310 0.929 . S
C296 C286 1.386 . S
C296 C289 1.357 . S
C296 H309 0.928 . S
H297 C273 0.931 . S
H298 C275 0.930 . S
H299 C277 0.929 . S
H300 C278 0.931 1_554 S
H301 C280 0.930 . S
H302 C284 0.931 . S
H303 C282 0.931 . S
H304 C286 0.931 . S
H305 C287 0.929 . S
H306 C288 0.930 . S
H307 C291 0.930 . S
H308 C292 0.931 . S
H309 C296 0.928 . S
H310 C295 0.929 . S
H311 C293 0.932 . S
Tb312 N341 2.617 . S
Tb312 N347 2.572 . S
Tb312 O356 2.465 . S
Tb312 O357 2.387 . S
Tb312 O359 2.428 . S
Tb312 O360 2.308 1_455 S
Tb312 O364 2.349 1_455 S
Tb312 O367 2.393 . S
Tb312 C376 2.802 . S
C313 N314 1.379 . S
C313 C316 1.416 . S
C313 C320 1.424 . S
N314 C313 1.379 . S
N314 C317 1.334 . S
N314 Tb323 2.617 . S
C315 C317 1.390 . S
C315 C318 1.339 . S
C315 H335 0.930 . S
C316 C313 1.416 . S
C316 C318 1.416 . S
C316 C322 1.448 . S
C317 N314 1.334 . S
C317 C315 1.390 . S
C317 H328 0.930 . S
C318 C315 1.339 . S
C318 C316 1.416 . S
C318 H339 0.930 . S
C319 C320 1.413 . S
C319 C321 1.427 . S
C319 C325 1.416 1_545 S
C320 C313 1.424 . S
C320 C319 1.413 . S
C320 N324 1.361 . S
C321 C319 1.427 . S
C321 C322 1.328 . S
C321 H336 0.929 1_545 S
C322 C316 1.448 . S
C322 C321 1.328 . S
C322 H337 0.930 . S
Tb323 N314 2.617 . S
Tb323 N324 2.572 . S
Tb323 O358 2.349 1_655 S
Tb323 O361 2.393 . S
Tb323 O362 2.465 . S
Tb323 O363 2.387 . S
Tb323 O365 2.428 . S
Tb323 O366 2.308 1_655 S
Tb323 C387 2.802 . S
N324 C320 1.361 . S
N324 Tb323 2.572 . S
N324 C326 1.340 . S
C325 C319 1.416 1_565 S
C325 C327 1.332 . S
C325 H333 0.931 . S
C326 N324 1.340 . S
C326 C327 1.407 1_545 S
C326 H332 0.930 . S
C327 C325 1.332 . S
C327 C326 1.407 1_565 S
C327 H329 0.929 . S
H328 C317 0.930 . S
H329 C327 0.929 . S
H330 C345 0.930 . S
H331 C352 0.929 . S
H332 C326 0.930 . S
H333 C325 0.931 . S
H334 C348 0.930 . S
H335 C315 0.930 . S
H336 C321 0.929 1_565 S
H337 C322 0.930 . S
H338 C343 0.930 . S
H339 C318 0.930 . S
H340 C351 0.931 . S
N341 Tb312 2.617 . S
N341 C342 1.379 . S
N341 C345 1.334 . S
C342 N341 1.379 . S
C342 C344 1.416 . S
C342 C350 1.424 . S
C343 H338 0.930 . S
C343 C345 1.390 . S
C343 C346 1.339 . S
C344 C342 1.416 . S
C344 C346 1.416 . S
C344 C377 1.448 . S
C345 H330 0.930 . S
C345 N341 1.334 . S
C345 C343 1.390 . S
C346 C343 1.339 . S
C346 C344 1.416 . S
C346 H353 0.930 . S
N347 Tb312 2.572 . S
N347 C348 1.340 . S
N347 C350 1.361 . S
C348 H334 0.930 . S
C348 N347 1.340 . S
C348 C352 1.407 . S
C349 C350 1.413 . S
C349 C351 1.416 . S
C349 C378 1.427 . S
C350 C342 1.424 . S
C350 N347 1.361 . S
C350 C349 1.413 . S
C351 H340 0.931 . S
C351 C349 1.416 . S
C351 C352 1.332 . S
C352 H331 0.929 . S
C352 C348 1.407 . S
C352 C351 1.332 . S
H353 C346 0.930 . S
H354 C377 0.930 . S
H355 C378 0.929 . S
O356 Tb312 2.465 . S
O356 C376 1.264 . S
O357 Tb312 2.387 . S
O357 C368 1.264 . S
O358 Tb323 2.349 1_455 S
O358 C368 1.243 . S
O359 Tb312 2.428 . S
O359 C376 1.256 . S
O360 Tb312 2.308 1_655 S
O360 C375 1.266 . S
O361 Tb323 2.393 . S
O361 C375 1.248 . S
O362 Tb323 2.465 . S
O362 C387 1.264 . S
O363 Tb323 2.387 . S
O363 C379 1.264 . S
O364 Tb312 2.349 1_655 S
O364 C379 1.243 . S
O365 Tb323 2.428 . S
O365 C387 1.256 . S
O366 Tb323 2.308 1_455 S
O366 C386 1.266 . S
O367 Tb312 2.393 . S
O367 C386 1.248 . S
C368 O357 1.264 . S
C368 O358 1.243 . S
C369 C372 1.399 . S
C369 C374 1.383 . S
C369 C376 1.496 . S
C370 C371 1.399 . S
C370 C374 1.389 . S
C371 C370 1.399 . S
C371 C373 1.380 . S
C371 H388 0.929 . S
C372 C369 1.399 . S
C372 C373 1.392 . S
C372 H389 0.929 . S
C373 C371 1.380 . S
C373 C372 1.392 . S
C373 H390 0.929 . S
C374 C369 1.383 . S
C374 C370 1.389 . S
C374 H391 0.931 . S
C375 O360 1.266 . S
C375 O361 1.248 . S
C376 Tb312 2.802 . S
C376 O356 1.264 . S
C376 O359 1.256 . S
C376 C369 1.496 . S
C377 C344 1.448 . S
C377 H354 0.930 . S
C377 C378 1.328 . S
C378 C349 1.427 . S
C378 H355 0.929 . S
C378 C377 1.328 . S
C379 O363 1.264 . S
C379 O364 1.243 . S
C380 C383 1.399 . S
C380 C384 1.383 . S
C380 C387 1.496 . S
C381 C382 1.399 . S
C381 C384 1.389 . S
C382 C381 1.399 . S
C382 C385 1.380 . S
C382 H392 0.929 . S
C383 C380 1.399 . S
C383 C385 1.392 . S
C383 H393 0.929 . S
C384 C380 1.383 . S
C384 C381 1.389 . S
C384 H394 0.931 . S
C385 C382 1.380 . S
C385 C383 1.392 . S
C385 H395 0.929 . S
C386 O366 1.266 . S
C386 O367 1.248 . S
C387 Tb323 2.802 . S
C387 O362 1.264 . S
C387 O365 1.256 . S
C387 C380 1.496 . S
H388 C371 0.929 . S
H389 C372 0.929 . S
H390 C373 0.929 . S
H391 C374 0.931 . S
H392 C382 0.929 . S
H393 C383 0.929 . S
H394 C384 0.931 . S
H395 C385 0.929 . S
Tb396 N425 2.617 . S
Tb396 N431 2.572 . S
Tb396 O440 2.465 . S
Tb396 O441 2.387 . S
Tb396 O443 2.428 . S
Tb396 O444 2.308 . S
Tb396 O448 2.349 . S
Tb396 O451 2.393 . S
Tb396 C460 2.802 . S
C397 N398 1.379 . S
C397 C400 1.416 . S
C397 C404 1.424 . S
N398 C397 1.379 . S
N398 C401 1.334 . S
N398 Tb407 2.617 . S
C399 C401 1.390 . S
C399 C402 1.339 . S
C399 H419 0.930 . S
C400 C397 1.416 . S
C400 C402 1.416 . S
C400 C406 1.448 . S
C401 N398 1.334 . S
C401 C399 1.390 . S
C401 H412 0.930 . S
C402 C399 1.339 . S
C402 C400 1.416 . S
C402 H423 0.930 . S
C403 C404 1.413 . S
C403 C405 1.427 . S
C403 C409 1.416 . S
C404 C397 1.424 . S
C404 C403 1.413 . S
C404 N408 1.361 . S
C405 C403 1.427 . S
C405 C406 1.328 . S
C405 H420 0.929 . S
C406 C400 1.448 . S
C406 C405 1.328 . S
C406 H421 0.930 . S
Tb407 N398 2.617 . S
Tb407 N408 2.572 . S
Tb407 O442 2.349 . S
Tb407 O445 2.393 . S
Tb407 O446 2.465 . S
Tb407 O447 2.387 . S
Tb407 O449 2.428 . S
Tb407 O450 2.308 . S
Tb407 C471 2.802 . S
N408 C404 1.361 . S
N408 Tb407 2.572 . S
N408 C410 1.340 . S
C409 C403 1.416 . S
C409 C411 1.332 . S
C409 H417 0.931 . S
C410 N408 1.340 . S
C410 C411 1.407 . S
C410 H416 0.930 . S
C411 C409 1.332 . S
C411 C410 1.407 . S
C411 H413 0.929 . S
H412 C401 0.930 . S
H413 C411 0.929 . S
H414 C429 0.930 . S
H415 C436 0.929 . S
H416 C410 0.930 . S
H417 C409 0.931 . S
H418 C432 0.930 . S
H419 C399 0.930 . S
H420 C405 0.929 . S
H421 C406 0.930 . S
H422 C427 0.930 . S
H423 C402 0.930 . S
H424 C435 0.931 . S
N425 Tb396 2.617 . S
N425 C426 1.379 . S
N425 C429 1.334 . S
C426 N425 1.379 . S
C426 C428 1.416 . S
C426 C434 1.424 . S
C427 H422 0.930 . S
C427 C429 1.390 . S
C427 C430 1.339 . S
C428 C426 1.416 . S
C428 C430 1.416 . S
C428 C461 1.448 . S
C429 H414 0.930 . S
C429 N425 1.334 . S
C429 C427 1.390 . S
C430 C427 1.339 . S
C430 C428 1.416 . S
C430 H437 0.930 . S
N431 Tb396 2.572 . S
N431 C432 1.340 . S
N431 C434 1.361 . S
C432 H418 0.930 . S
C432 N431 1.340 . S
C432 C436 1.407 . S
C433 C434 1.413 . S
C433 C435 1.416 . S
C433 C462 1.427 . S
C434 C426 1.424 . S
C434 N431 1.361 . S
C434 C433 1.413 . S
C435 H424 0.931 . S
C435 C433 1.416 . S
C435 C436 1.332 . S
C436 H415 0.929 . S
C436 C432 1.407 . S
C436 C435 1.332 . S
H437 C430 0.930 . S
H438 C461 0.930 . S
H439 C462 0.929 . S
O440 Tb396 2.465 . S
O440 C460 1.264 . S
O441 Tb396 2.387 . S
O441 C452 1.264 . S
O442 Tb407 2.349 . S
O442 C452 1.243 . S
O443 Tb396 2.428 . S
O443 C460 1.256 . S
O444 Tb396 2.308 . S
O444 C459 1.266 . S
O445 Tb407 2.393 . S
O445 C459 1.248 . S
O446 Tb407 2.465 . S
O446 C471 1.264 . S
O447 Tb407 2.387 . S
O447 C463 1.264 . S
O448 Tb396 2.349 . S
O448 C463 1.243 . S
O449 Tb407 2.428 . S
O449 C471 1.256 . S
O450 Tb407 2.308 . S
O450 C470 1.266 . S
O451 Tb396 2.393 . S
O451 C470 1.248 . S
C452 O441 1.264 . S
C452 O442 1.243 . S
C453 C456 1.399 . S
C453 C458 1.383 . S
C453 C460 1.496 . S
C454 C455 1.399 . S
C454 C458 1.389 . S
C455 C454 1.399 . S
C455 C457 1.380 . S
C455 H472 0.929 . S
C456 C453 1.399 . S
C456 C457 1.392 . S
C456 H473 0.929 . S
C457 C455 1.380 . S
C457 C456 1.392 . S
C457 H474 0.929 . S
C458 C453 1.383 . S
C458 C454 1.389 . S
C458 H475 0.931 . S
C459 O444 1.266 . S
C459 O445 1.248 . S
C460 Tb396 2.802 . S
C460 O440 1.264 . S
C460 O443 1.256 . S
C460 C453 1.496 . S
C461 C428 1.448 . S
C461 H438 0.930 . S
C461 C462 1.328 . S
C462 C433 1.427 . S
C462 H439 0.929 . S
C462 C461 1.328 . S
C463 O447 1.264 . S
C463 O448 1.243 . S
C464 C467 1.399 . S
C464 C468 1.383 . S
C464 C471 1.496 . S
C465 C466 1.399 . S
C465 C468 1.389 . S
C466 C465 1.399 . S
C466 C469 1.380 . S
C466 H476 0.929 . S
C467 C464 1.399 . S
C467 C469 1.392 . S
C467 H477 0.929 . S
C468 C464 1.383 . S
C468 C465 1.389 . S
C468 H478 0.931 . S
C469 C466 1.380 . S
C469 C467 1.392 . S
C469 H479 0.929 . S
C470 O450 1.266 . S
C470 O451 1.248 . S
C471 Tb407 2.802 . S
C471 O446 1.264 . S
C471 O449 1.256 . S
C471 C464 1.496 . S
H472 C455 0.929 . S
H473 C456 0.929 . S
H474 C457 0.929 . S
H475 C458 0.931 . S
H476 C466 0.929 . S
H477 C467 0.929 . S
H478 C468 0.931 . S
H479 C469 0.929 . S
Tb480 N509 2.617 . S
Tb480 N515 2.572 . S
Tb480 O524 2.465 . S
Tb480 O525 2.387 . S
Tb480 O527 2.428 . S
Tb480 O528 2.306 1_455 S
Tb480 O532 2.359 . S
Tb480 O535 2.393 . S
Tb480 C544 2.802 . S
C481 N482 1.379 . S
C481 C484 1.416 . S
C481 C488 1.424 . S
N482 C481 1.379 . S
N482 C485 1.334 . S
N482 Tb491 2.617 . S
C483 C485 1.390 . S
C483 C486 1.339 . S
C483 H503 0.930 . S
C484 C481 1.416 . S
C484 C486 1.416 . S
C484 C490 1.448 . S
C485 N482 1.334 . S
C485 C483 1.390 . S
C485 H496 0.930 . S
C486 C483 1.339 . S
C486 C484 1.416 . S
C486 H507 0.930 . S
C487 C488 1.413 . S
C487 C489 1.427 . S
C487 C493 1.416 . S
C488 C481 1.424 . S
C488 C487 1.413 . S
C488 N492 1.361 . S
C489 C487 1.427 . S
C489 C490 1.328 . S
C489 H504 0.929 . S
C490 C484 1.448 . S
C490 C489 1.328 . S
C490 H505 0.930 . S
Tb491 N482 2.617 . S
Tb491 N492 2.572 . S
Tb491 O526 2.349 1_655 S
Tb491 O529 2.393 . S
Tb491 O530 2.465 . S
Tb491 O531 2.387 . S
Tb491 O533 2.428 . S
Tb491 O534 2.308 1_655 S
Tb491 C555 2.802 . S
N492 C488 1.361 . S
N492 Tb491 2.572 . S
N492 C494 1.340 . S
C493 C487 1.416 . S
C493 C495 1.332 . S
C493 H501 0.931 . S
C494 N492 1.340 . S
C494 C495 1.407 . S
C494 H500 0.930 . S
C495 C493 1.332 . S
C495 C494 1.407 . S
C495 H497 0.929 . S
H496 C485 0.930 . S
H497 C495 0.929 . S
H498 C513 0.930 . S
H499 C520 0.929 . S
H500 C494 0.930 . S
H501 C493 0.931 . S
H502 C516 0.930 . S
H503 C483 0.930 . S
H504 C489 0.929 . S
H505 C490 0.930 . S
H506 C511 0.930 . S
H507 C486 0.930 . S
H508 C519 0.931 . S
N509 Tb480 2.617 . S
N509 C510 1.379 . S
N509 C513 1.334 . S
C510 N509 1.379 . S
C510 C512 1.416 . S
C510 C518 1.424 . S
C511 H506 0.930 . S
C511 C513 1.390 . S
C511 C514 1.339 . S
C512 C510 1.416 . S
C512 C514 1.416 . S
C512 C545 1.448 . S
C513 H498 0.930 . S
C513 N509 1.334 . S
C513 C511 1.390 . S
C514 C511 1.339 . S
C514 C512 1.416 . S
C514 H521 0.930 . S
N515 Tb480 2.572 . S
N515 C516 1.340 . S
N515 C518 1.361 . S
C516 H502 0.930 . S
C516 N515 1.340 . S
C516 C520 1.407 1_565 S
C517 C518 1.413 . S
C517 C519 1.416 1_565 S
C517 C546 1.427 . S
C518 C510 1.424 . S
C518 N515 1.361 . S
C518 C517 1.413 . S
C519 H508 0.931 . S
C519 C517 1.416 1_545 S
C519 C520 1.332 . S
C520 H499 0.929 . S
C520 C516 1.407 1_545 S
C520 C519 1.332 . S
H521 C514 0.930 . S
H522 C545 0.930 . S
H523 C546 0.929 1_545 S
O524 Tb480 2.465 . S
O524 C544 1.264 . S
O525 Tb480 2.387 . S
O525 C536 1.264 . S
O526 Tb491 2.349 1_455 S
O526 C536 1.243 . S
O527 Tb480 2.428 . S
O527 C544 1.256 . S
O528 Tb480 2.306 1_655 S
O528 C543 1.268 . S
O529 Tb491 2.393 . S
O529 C543 1.248 . S
O530 Tb491 2.465 . S
O530 C555 1.264 . S
O531 Tb491 2.387 . S
O531 C547 1.264 . S
O532 Tb480 2.359 . S
O532 C547 1.231 1_455 S
O533 Tb491 2.428 . S
O533 C555 1.256 . S
O534 Tb491 2.308 1_455 S
O534 C554 1.266 . S
O535 Tb480 2.393 . S
O535 C554 1.248 . S
C536 O525 1.264 . S
C536 O526 1.243 . S
C537 C540 1.399 . S
C537 C542 1.383 . S
C537 C544 1.496 . S
C538 C539 1.399 . S
C538 C542 1.389 . S
C539 C538 1.399 . S
C539 C541 1.380 . S
C539 H556 0.929 . S
C540 C537 1.399 . S
C540 C541 1.392 . S
C540 H557 0.929 . S
C541 C539 1.380 . S
C541 C540 1.392 . S
C541 H558 0.929 . S
C542 C537 1.383 . S
C542 C538 1.389 . S
C542 H559 0.931 . S
C543 O528 1.268 . S
C543 O529 1.248 . S
C544 Tb480 2.802 . S
C544 O524 1.264 . S
C544 O527 1.256 . S
C544 C537 1.496 . S
C545 C512 1.448 . S
C545 H522 0.930 . S
C545 C546 1.328 . S
C546 C517 1.427 . S
C546 H523 0.929 1_565 S
C546 C545 1.328 . S
C547 O531 1.264 . S
C547 O532 1.231 1_655 S
C548 C551 1.399 . S
C548 C552 1.383 . S
C548 C555 1.496 . S
C549 C550 1.399 . S
C549 C552 1.389 . S
C550 C549 1.399 . S
C550 C553 1.380 . S
C550 H560 0.929 . S
C551 C548 1.399 . S
C551 C553 1.392 . S
C551 H561 0.929 . S
C552 C548 1.383 . S
C552 C549 1.389 . S
C552 H562 0.931 . S
C553 C550 1.380 . S
C553 C551 1.392 . S
C553 H563 0.929 . S
C554 O534 1.266 . S
C554 O535 1.248 . S
C555 Tb491 2.802 . S
C555 O530 1.264 . S
C555 O533 1.256 . S
C555 C548 1.496 . S
H556 C539 0.929 . S
H557 C540 0.929 . S
H558 C541 0.929 . S
H559 C542 0.931 . S
H560 C550 0.929 . S
H561 C551 0.929 . S
H562 C552 0.931 . S
H563 C553 0.929 . S
Tb564 N593 2.617 . S
Tb564 N599 2.572 . S
Tb564 O608 2.465 . S
Tb564 O609 2.387 . S
Tb564 O611 2.428 . S
Tb564 O612 2.308 . S
Tb564 O616 2.349 . S
Tb564 O619 2.393 . S
Tb564 C628 2.802 . S
C565 N566 1.379 . S
C565 C568 1.416 . S
C565 C572 1.424 . S
N566 C565 1.379 . S
N566 C569 1.334 . S
N566 Tb575 2.617 . S
C567 C569 1.390 . S
C567 C570 1.339 . S
C567 H587 0.930 . S
C568 C565 1.416 . S
C568 C570 1.416 . S
C568 C574 1.448 . S
C569 N566 1.334 . S
C569 C567 1.390 . S
C569 H580 0.930 . S
C570 C567 1.339 . S
C570 C568 1.416 . S
C570 H591 0.930 . S
C571 C572 1.413 . S
C571 C573 1.427 . S
C571 C577 1.416 . S
C572 C565 1.424 . S
C572 C571 1.413 . S
C572 N576 1.361 . S
C573 C571 1.427 . S
C573 C574 1.328 . S
C573 H588 0.929 . S
C574 C568 1.448 . S
C574 C573 1.328 . S
C574 H589 0.930 . S
Tb575 N566 2.617 . S
Tb575 N576 2.572 . S
Tb575 O610 2.349 . S
Tb575 O613 2.393 . S
Tb575 O614 2.465 . S
Tb575 O615 2.387 . S
Tb575 O617 2.428 . S
Tb575 O618 2.308 . S
Tb575 C639 2.802 . S
N576 C572 1.361 . S
N576 Tb575 2.572 . S
N576 C578 1.340 . S
C577 C571 1.416 . S
C577 C579 1.332 . S
C577 H585 0.931 . S
C578 N576 1.340 . S
C578 C579 1.407 . S
C578 H584 0.930 . S
C579 C577 1.332 . S
C579 C578 1.407 . S
C579 H581 0.929 . S
H580 C569 0.930 . S
H581 C579 0.929 . S
H582 C597 0.930 . S
H583 C604 0.929 . S
H584 C578 0.930 . S
H585 C577 0.931 . S
H586 C600 0.930 . S
H587 C567 0.930 . S
H588 C573 0.929 . S
H589 C574 0.930 . S
H590 C595 0.930 . S
H591 C570 0.930 . S
H592 C603 0.931 . S
N593 Tb564 2.617 . S
N593 C594 1.379 . S
N593 C597 1.334 . S
C594 N593 1.379 . S
C594 C596 1.416 . S
C594 C602 1.424 . S
C595 H590 0.930 . S
C595 C597 1.390 . S
C595 C598 1.339 . S
C596 C594 1.416 . S
C596 C598 1.416 . S
C596 C629 1.448 . S
C597 H582 0.930 . S
C597 N593 1.334 . S
C597 C595 1.390 . S
C598 C595 1.339 . S
C598 C596 1.416 . S
C598 H605 0.930 . S
N599 Tb564 2.572 . S
N599 C600 1.340 . S
N599 C602 1.361 . S
C600 H586 0.930 . S
C600 N599 1.340 . S
C600 C604 1.407 . S
C601 C602 1.413 . S
C601 C603 1.416 . S
C601 C630 1.427 . S
C602 C594 1.424 . S
C602 N599 1.361 . S
C602 C601 1.413 . S
C603 H592 0.931 . S
C603 C601 1.416 . S
C603 C604 1.332 . S
C604 H583 0.929 . S
C604 C600 1.407 . S
C604 C603 1.332 . S
H605 C598 0.930 . S
H606 C629 0.930 . S
H607 C630 0.929 . S
O608 Tb564 2.465 . S
O608 C628 1.264 . S
O609 Tb564 2.387 . S
O609 C620 1.264 . S
O610 Tb575 2.349 . S
O610 C620 1.243 . S
O611 Tb564 2.428 . S
O611 C628 1.256 . S
O612 Tb564 2.308 . S
O612 C627 1.266 . S
O613 Tb575 2.393 . S
O613 C627 1.248 . S
O614 Tb575 2.465 . S
O614 C639 1.264 . S
O615 Tb575 2.387 . S
O615 C631 1.264 . S
O616 Tb564 2.349 . S
O616 C631 1.243 . S
O617 Tb575 2.428 . S
O617 C639 1.256 . S
O618 Tb575 2.308 . S
O618 C638 1.266 . S
O619 Tb564 2.393 . S
O619 C638 1.248 . S
C620 O609 1.264 . S
C620 O610 1.243 . S
C621 C624 1.399 . S
C621 C626 1.383 . S
C621 C628 1.496 . S
C622 C623 1.399 . S
C622 C626 1.389 . S
C623 C622 1.399 . S
C623 C625 1.380 . S
C623 H640 0.929 . S
C624 C621 1.399 . S
C624 C625 1.392 . S
C624 H641 0.929 . S
C625 C623 1.380 . S
C625 C624 1.392 . S
C625 H642 0.929 . S
C626 C621 1.383 . S
C626 C622 1.389 . S
C626 H643 0.931 . S
C627 O612 1.266 . S
C627 O613 1.248 . S
C628 Tb564 2.802 . S
C628 O608 1.264 . S
C628 O611 1.256 . S
C628 C621 1.496 . S
C629 C596 1.448 . S
C629 H606 0.930 . S
C629 C630 1.328 . S
C630 C601 1.427 . S
C630 H607 0.929 . S
C630 C629 1.328 . S
C631 O615 1.264 . S
C631 O616 1.243 . S
C632 C635 1.399 . S
C632 C636 1.383 . S
C632 C639 1.496 . S
C633 C634 1.399 . S
C633 C636 1.389 . S
C634 C633 1.399 . S
C634 C637 1.380 . S
C634 H644 0.929 . S
C635 C632 1.399 . S
C635 C637 1.392 . S
C635 H645 0.929 . S
C636 C632 1.383 . S
C636 C633 1.389 . S
C636 H646 0.931 . S
C637 C634 1.380 . S
C637 C635 1.392 . S
C637 H647 0.929 . S
C638 O618 1.266 . S
C638 O619 1.248 . S
C639 Tb575 2.802 . S
C639 O614 1.264 . S
C639 O617 1.256 . S
C639 C632 1.496 . S
H640 C623 0.929 . S
H641 C624 0.929 . S
H642 C625 0.929 . S
H643 C626 0.931 . S
H644 C634 0.929 . S
H645 C635 0.929 . S
H646 C636 0.931 . S
H647 C637 0.929 . S
C235 C386 1.490 . S
C470 C289 1.495 . S
C463 C157 1.488 . S
C211 C379 1.489 . S
C543 C79 1.497 . S
C627 C118 1.503 . S
C1 C620 1.495 . S
C40 C536 1.502 . S
C370 C55 1.215 . S
C454 C16 1.217 . S
C465 C133 1.476 . S
C381 C94 1.474 . S
C549 C196 1.226 . S
C172 C633 1.223 . S
C622 C274 1.475 . S
C250 C538 1.479 . S
C368 C21 1.714 . S
C452 C60 1.719 . S
C99 C459 1.724 . S
C375 C138 1.728 . S
C547 C177 1.700 . S
C216 C631 1.717 . S
C255 C638 1.719 . S
C294 C554 1.723 . S
