# Generated by pormake.
# Topology tsx, (6,3)-cn, num edge types: 1
# Building blocks:
#     Node 0, Type 0, BuildingBlock: FUNLAD_clean_sbu_0, # of connection points: 6
#     Node 1, Type 0, BuildingBlock: FUNLAD_clean_sbu_0, # of connection points: 6
#     Node 2, Type 1, BuildingBlock: BETDIP_clean_linker_0, # of connection points: 3
#     Node 3, Type 1, BuildingBlock: BETDIP_clean_linker_0, # of connection points: 3
#     Node 4, Type 1, BuildingBlock: BETDIP_clean_linker_0, # of connection points: 3
#     Node 5, Type 1, BuildingBlock: BETDIP_clean_linker_0, # of connection points: 3
#     Edge 6, Type (0, 1), BuildingBlock: XIVTED_clean_linker_0, # of connection points: 2
#     Edge 7, Type (0, 1), BuildingBlock: XIVTED_clean_linker_0, # of connection points: 2
#     Edge 8, Type (0, 1), BuildingBlock: XIVTED_clean_linker_0, # of connection points: 2
#     Edge 9, Type (0, 1), BuildingBlock: XIVTED_clean_linker_0, # of connection points: 2
#     Edge 10, Type (0, 1), BuildingBlock: XIVTED_clean_linker_0, # of connection points: 2
#     Edge 11, Type (0, 1), BuildingBlock: XIVTED_clean_linker_0, # of connection points: 2
#     Edge 12, Type (0, 1), BuildingBlock: XIVTED_clean_linker_0, # of connection points: 2
#     Edge 13, Type (0, 1), BuildingBlock: XIVTED_clean_linker_0, # of connection points: 2
#     Edge 14, Type (0, 1), BuildingBlock: XIVTED_clean_linker_0, # of connection points: 2
#     Edge 15, Type (0, 1), BuildingBlock: XIVTED_clean_linker_0, # of connection points: 2
#     Edge 16, Type (0, 1), BuildingBlock: XIVTED_clean_linker_0, # of connection points: 2
#     Edge 17, Type (0, 1), BuildingBlock: XIVTED_clean_linker_0, # of connection points: 2
# Relax obj value: 0.112
# Max RMSD: 0.116
# Mean RMSD: 0.112
data_MOF--net-tsx--node1-FUNLAD_clean_sbu_0--node2-BETDIP_clean_linker_0--edge1-XIVTED_clean_linker_0
_symmetry_space_group_name_H-M    P1
_symmetry_Int_Tables_number       1
_symmetry_cell_setting            triclinic
loop_
_symmetry_equiv_pos_as_xyz
'x, y, z'
_cell_length_a     19.537743
_cell_length_b     21.698587
_cell_length_c     39.579166
_cell_angle_alpha  91.132018
_cell_angle_beta   102.15769
_cell_angle_gamma 90.127341
loop_
_atom_site_label
_atom_site_type_symbol
_atom_site_fract_x
_atom_site_fract_y
_atom_site_fract_z
_atom_type_partial_charge
C0 C 0.96617 0.90473 0.01687 0.0
N1 N 0.10284 0.0162 0.08823 0.0
C2 C 0.05007 0.02506 0.10537 0.0
C3 C 0.06488 0.03681 0.14085 0.0
C4 C 0.13465 0.03846 0.15907 0.0
C5 C 0.1883 0.02808 0.14103 0.0
C6 C 0.17111 0.01753 0.10525 0.0
Zn7 Zn 0.0755 0.00368 0.03592 0.0
C8 C 0.16267 0.91638 0.00748 0.0
N9 N 0.00977 0.98312 0.92703 0.0
C10 C 0.94313 0.97059 0.90979 0.0
C11 C 0.06227 0.99121 0.90978 0.0
C12 C 0.04874 0.98817 0.87388 0.0
C13 C 0.98058 0.97542 0.85516 0.0
C14 C 0.92734 0.96623 0.87364 0.0
Zn15 Zn 0.03611 0.99306 0.97953 0.0
O16 O 0.00257 0.93555 0.04197 0.0
C17 C 0.95003 0.08224 0.00691 0.0
O18 O 0.97168 0.91636 0.98615 0.0
H19 H 0.11498 0.0009 0.92388 0.0
H20 H 0.99615 0.02311 0.09149 0.0
H21 H 0.9022 0.96429 0.92405 0.0
O22 O -0.00297 0.0731 0.03384 0.0
O23 O 0.95162 0.0521 0.97928 0.0
H24 H 0.21222 0.01061 0.09106 0.0
O25 O 0.10032 0.07076 0.97401 0.0
O26 O 0.14828 0.07113 0.02936 0.0
O27 O 0.12166 0.93433 0.98024 0.0
O28 O 0.1537 0.93524 0.03684 0.0
C29 C 0.1452 0.09244 -0.00054 0.0
H30 H 0.02208 0.04334 0.15405 0.0
H31 H 0.24273 0.02877 0.15438 0.0
H32 H 0.09135 -0.00291 0.86102 0.0
H33 H 0.87416 0.9556 0.86041 0.0
C34 C 0.3698 0.40842 0.49861 0.0
N35 N 0.51988 0.49547 0.57592 0.0
C36 C 0.46908 0.50841 0.59376 0.0
C37 C 0.48528 0.51245 0.62973 0.0
C38 C 0.55405 0.50181 0.64746 0.0
C39 C 0.6054 0.48767 0.6286 0.0
C40 C 0.5872 0.48535 0.59254 0.0
Zn41 Zn 0.49309 0.49284 0.52334 0.0
C42 C 0.5668 0.39518 0.49197 0.0
N43 N 0.43119 0.48826 0.41381 0.0
C44 C 0.3633 0.48932 0.39626 0.0
C45 C 0.48504 0.49172 0.39702 0.0
C46 C 0.47184 0.49915 0.36144 0.0
C47 C 0.40257 0.50195 0.34283 0.0
C48 C 0.34766 0.49557 0.36034 0.0
Zn49 Zn 0.45716 0.48834 0.46638 0.0
O50 O 0.40952 0.4323 0.52525 0.0
C51 C 0.38359 0.58619 0.49729 0.0
O52 O 0.37906 0.42161 0.46873 0.0
H53 H 0.53858 0.4902 0.41137 0.0
H54 H 0.41575 0.51559 0.58011 0.0
H55 H 0.32137 0.48675 0.4102 0.0
O56 O 0.42584 0.56955 0.52447 0.0
O57 O 0.38419 0.55884 0.4687 0.0
H58 H 0.62683 0.47554 0.57783 0.0
O59 O 0.53622 0.55681 0.46507 0.0
O60 O 0.57531 0.55277 0.52111 0.0
O61 O 0.52974 0.41683 0.46455 0.0
O62 O 0.5611 0.4173 0.52121 0.0
C63 C 0.58006 0.57403 0.49209 0.0
H64 H 0.44423 0.52261 0.64359 0.0
H65 H 0.65902 0.47924 0.64161 0.0
H66 H 0.51538 0.50295 0.34857 0.0
H67 H 0.29358 0.49735 0.34657 0.0
H68 H 0.02933 0.97895 0.48371 0.0
H69 H 0.02276 0.08995 0.39448 0.0
H70 H 0.18566 0.95563 0.42301 0.0
H71 H -0.00093 0.16437 0.43793 0.0
C72 C 0.95655 0.13772 0.44438 0.0
C73 C 0.05169 0.99231 0.46209 0.0
C74 C 0.11126 0.96237 0.45574 0.0
C75 C 0.02217 0.0407 0.44107 0.0
C76 C 0.0493 0.0558 0.41204 0.0
C77 C 0.10748 0.02437 0.40463 0.0
C78 C 0.13981 0.97959 0.42768 0.0
N79 N 0.96464 0.07326 0.44917 0.0
H80 H 0.90939 0.97725 0.49871 0.0
H81 H 0.97159 0.07437 0.5965 0.0
H82 H 0.8675 0.89946 0.59159 0.0
H83 H 0.94944 0.15837 0.55871 0.0
C84 C 0.98148 0.14083 0.54133 0.0
C85 C 0.91139 0.98048 0.52626 0.0
C86 C 0.8851 0.93216 0.54296 0.0
C87 C 0.94169 0.03251 0.5453 0.0
C88 C 0.94593 0.03564 0.58125 0.0
C89 C 0.91851 0.98808 0.59789 0.0
C90 C 0.88782 0.93677 0.57862 0.0
N91 N 0.97176 0.07925 0.52839 0.0
H92 H 0.6192 0.48206 0.00319 0.0
H93 H 0.55622 0.58124 0.90875 0.0
H94 H 0.66416 0.40887 0.90879 0.0
H95 H 0.58251 0.66413 0.94952 0.0
C96 C 0.55082 0.64666 0.96679 0.0
C97 C 0.61689 0.48603 0.97573 0.0
C98 C 0.64314 0.43868 0.9576 0.0
C99 C 0.58683 0.53822 0.95832 0.0
C100 C 0.58287 0.54262 0.92253 0.0
C101 C 0.61023 0.49599 0.90421 0.0
C102 C 0.64098 0.4446 0.9222 0.0
N103 N 0.55704 0.58409 0.97673 0.0
H104 H 0.49991 0.48596 0.01177 0.0
H105 H 0.52033 0.5726 0.11211 0.0
H106 H 0.35059 0.44668 0.07399 0.0
H107 H 0.56057 0.65124 0.08642 0.0
C108 C 0.59195 0.63002 0.0698 0.0
C109 C 0.48077 0.49379 0.03522 0.0
C110 C 0.42145 0.46172 0.04015 0.0
C111 C 0.51444 0.53669 0.06026 0.0
C112 C 0.49098 0.54389 0.0914 0.0
C113 C 0.43195 0.51149 0.09675 0.0
C114 C 0.39635 0.47198 0.0704 0.0
N115 N 0.57188 0.57164 0.05376 0.0
H116 H 0.27904 0.11059 0.03436 0.0
H117 H 0.28865 0.45548 0.00139 0.0
H118 H 0.1201 0.18729 0.95401 0.0
H119 H 0.48022 0.35284 0.02811 0.0
H120 H 0.2259 0.35993 0.97975 0.0
H121 H 0.35465 0.199 0.03074 0.0
C122 C 0.26045 0.14592 0.01572 0.0
C123 C 0.19318 0.14231 -0.00527 0.0
C124 C 0.28208 0.35862 0.98919 0.0
C125 C 0.27877 0.24368 0.99073 0.0
C126 C 0.3178 0.41306 0.00134 0.0
C127 C 0.38936 0.41151 0.01649 0.0
C128 C 0.31806 0.30244 0.99338 0.0
C129 C 0.42498 0.3556 0.01646 0.0
C130 C 0.30378 0.19599 0.01342 0.0
C131 C 0.17168 0.18878 0.97072 0.0
N132 N 0.38856 0.30278 0.006 0.0
N133 N 0.2138 0.23852 0.96991 0.0
H134 H 0.22753 0.91156 0.9535 0.0
H135 H 0.45783 0.62091 0.00832 0.0
H136 H 0.23499 0.83423 0.05386 0.0
H137 H 0.5249 0.76523 0.94908 0.0
H138 H 0.36813 0.68964 0.02244 0.0
H139 H 0.32736 0.84853 0.94724 0.0
C140 C 0.25009 0.88103 0.9742 0.0
C141 C 0.2229 0.87776 0.0042 0.0
C142 C 0.40324 0.70638 0.00679 0.0
C143 C 0.33684 0.80535 -0.00299 0.0
C144 C 0.45458 0.66734 -0.00118 0.0
C145 C 0.4992 0.68775 0.97777 0.0
C146 C 0.39544 0.76536 0.99269 0.0
C147 C 0.49146 0.74787 0.96541 0.0
C148 C 0.30736 0.84552 0.97069 0.0
C149 C 0.25461 0.83796 0.03035 0.0
N150 N 0.43989 0.78437 0.97266 0.0
N151 N 0.30967 0.8025 0.02599 0.0
H152 H 0.89453 0.81461 0.97306 0.0
H153 H 0.63652 0.7412 0.09699 0.0
H154 H 0.92068 0.89102 0.07661 0.0
H155 H 0.67932 0.60253 0.02476 0.0
H156 H 0.73018 0.8051 0.08386 0.0
H157 H 0.8053 0.74328 0.98571 0.0
C158 C 0.88181 0.81621 -0.00159 0.0
C159 C 0.91503 0.85885 0.02381 0.0
C160 C 0.71912 0.76066 0.07087 0.0
C161 C 0.81301 0.77862 0.03807 0.0
C162 C 0.66569 0.72429 0.0783 0.0
C163 C 0.64993 0.66683 0.06177 0.0
C164 C 0.75657 0.73989 0.0463 0.0
C165 C 0.68928 0.64695 0.03776 0.0
C166 C 0.83122 0.77548 0.0056 0.0
C167 C 0.89665 0.85892 0.05624 0.0
N168 N 0.74063 0.68378 0.03045 0.0
N169 N 0.84647 0.81995 0.06229 0.0
H170 H 0.94968 0.17727 0.05367 0.0
H171 H 0.6035 0.32104 0.93919 0.0
H172 H 0.82628 0.09357 0.96069 0.0
H173 H 0.75138 0.42809 0.01383 0.0
H174 H 0.66884 0.22785 0.95835 0.0
H175 H 0.86335 0.26031 0.04959 0.0
C176 C 0.904 0.17594 0.03269 0.0
C177 C 0.89553 0.12905 0.00715 0.0
C178 C 0.68656 0.27149 0.97097 0.0
C179 C 0.79681 0.22308 0.00263 0.0
C180 C 0.64915 0.32451 0.96014 0.0
C181 C 0.673 0.38205 0.97465 0.0
C182 C 0.74869 0.27614 -0.00374 0.0
C183 C 0.73179 0.38437 0.00195 0.0
C184 C 0.85493 0.22329 0.03039 0.0
C185 C 0.83539 0.12933 0.98062 0.0
N186 N 0.76858 0.3321 0.01154 0.0
N187 N 0.78859 0.17579 0.97896 0.0
H188 H 0.57845 0.66479 0.44458 0.0
H189 H 0.92907 0.81533 0.55636 0.0
H190 H 0.70608 0.58734 0.53608 0.0
H191 H 0.77379 0.92069 0.488 0.0
H192 H 0.86469 0.72088 0.53517 0.0
H193 H 0.6649 0.74854 0.44778 0.0
C194 C 0.62523 0.66486 0.46492 0.0
C195 C 0.63488 0.61985 0.49044 0.0
C196 C 0.84519 0.76447 0.52431 0.0
C197 C 0.73352 0.71426 0.49395 0.0
C198 C 0.88203 0.81819 0.53628 0.0
C199 C 0.85579 0.8755 0.52421 0.0
C200 C 0.7812 0.7682 0.5004 0.0
C201 C 0.79519 0.87711 0.49799 0.0
C202 C 0.67427 0.71256 0.46676 0.0
C203 C 0.69618 0.62177 0.51623 0.0
N204 N 0.75894 0.82411 0.48733 0.0
N205 N 0.74294 0.66838 0.51742 0.0
H206 H 0.55882 0.30178 0.44414 0.0
H207 H 0.95768 0.25609 0.46708 0.0
H208 H 0.69632 0.38409 0.53334 0.0
H209 H 0.8248 0.09499 0.44563 0.0
H210 H 0.86118 0.31292 0.48392 0.0
H211 H 0.65375 0.23218 0.43643 0.0
C212 C 0.60875 0.3046 0.46229 0.0
C213 C 0.62005 0.34842 0.48944 0.0
C214 C 0.85349 0.26502 0.47572 0.0
C215 C 0.72839 0.27086 0.48017 0.0
C216 C 0.90807 0.23285 0.46593 0.0
C217 C 0.89875 0.17107 0.455 0.0
C218 C 0.78856 0.23573 0.47326 0.0
C219 C 0.8338 0.14267 0.45401 0.0
C220 C 0.66251 0.26494 0.45794 0.0
C221 C 0.68558 0.35054 0.51224 0.0
N222 N 0.78044 0.17564 0.46246 0.0
N223 N 0.73795 0.31309 0.50668 0.0
H224 H 0.30244 0.3182 0.45412 0.0
H225 H 0.00702 0.26028 0.56055 0.0
H226 H 0.30408 0.40815 0.55255 0.0
H227 H 0.08097 0.1122 0.50359 0.0
H228 H 0.1002 0.3268 0.54843 0.0
H229 H 0.20485 0.25247 0.46272 0.0
C230 C 0.28215 0.32416 0.47742 0.0
C231 C 0.31143 0.36824 0.50278 0.0
C232 C 0.09553 0.27981 0.53841 0.0
C233 C 0.19994 0.29482 0.51229 0.0
C234 C 0.04256 0.24202 0.54526 0.0
C235 C 0.03607 0.18103 0.53277 0.0
C236 C 0.14168 0.25653 0.51859 0.0
C237 C 0.08346 0.1593 0.51318 0.0
C238 C 0.22687 0.28671 0.48231 0.0
C239 C 0.28338 0.37428 0.53252 0.0
N240 N 0.13422 0.19722 0.50647 0.0
N241 N 0.22882 0.33828 0.53634 0.0
H242 H 0.25795 0.60574 0.45396 0.0
H243 H 0.23865 0.95288 0.49914 0.0
H244 H 0.39895 0.6832 0.54355 0.0
H245 H 0.05237 0.84908 0.45437 0.0
H246 H 0.2989 0.85627 0.51761 0.0
H247 H 0.18197 0.69519 0.45364 0.0
C248 C 0.2726 0.64147 0.4737 0.0
C249 C 0.335 0.63755 0.49861 0.0
C250 C 0.24423 0.85474 0.50467 0.0
C251 C 0.24888 0.74002 0.4982 0.0
C252 C 0.20993 0.90972 0.49433 0.0
C253 C 0.14069 0.90839 0.47548 0.0
C254 C 0.20945 0.79839 0.49501 0.0
C255 C 0.1057 0.85161 0.46915 0.0
C256 C 0.22899 0.69218 0.47369 0.0
C257 C 0.35129 0.68472 0.52383 0.0
N258 N 0.141 0.79855 0.47821 0.0
N259 N 0.3091 0.73476 0.5226 0.0
H260 H 0.08551 0.12909 0.19629 0.0
H261 H 0.15801 0.93752 0.36491 0.0
H262 H 0.21707 0.96833 0.20775 0.0
H263 H 0.10695 0.13114 0.36742 0.0
H264 H 0.18351 0.94971 0.30815 0.0
H265 H 0.09533 0.13355 0.25902 0.0
C266 C 0.11736 0.09535 0.21217 0.0
C267 C 0.14998 0.04789 0.19698 0.0
C268 C 0.16781 0.98979 0.32132 0.0
C269 C 0.16064 0.05215 0.26838 0.0
C270 C 0.15357 0.98308 0.35404 0.0
C271 C 0.12998 0.0334 0.37133 0.0
C272 C 0.15685 0.04683 0.30514 0.0
C273 C 0.12345 0.09066 0.35495 0.0
C274 C 0.12318 0.09803 0.2479 0.0
C275 C 0.19113 0.00559 0.21855 0.0
N276 N 0.13574 0.0956 0.32253 0.0
N277 N 0.19426 0.00802 0.25316 0.0
H278 H 0.86191 0.01301 0.80937 0.0
H279 H 0.03832 0.00146 0.64684 0.0
H280 H 0.06571 0.93313 0.8128 0.0
H281 H 0.81529 0.97703 0.63448 0.0
H282 H 0.05085 -0.00352 0.70968 0.0
H283 H 0.84395 0.01622 0.74627 0.0
C284 C 0.9026 -0.00442 0.79702 0.0
C285 C 0.96588 0.97343 0.8167 0.0
C286 C -0.00083 0.99241 0.69318 0.0
C287 C 0.94623 0.979 0.74477 0.0
C288 C 0.99201 -0.00424 0.6575 0.0
C289 C 0.92574 0.98967 0.63575 0.0
C290 C 0.93951 0.98403 0.70712 0.0
C291 C 0.86725 0.98172 0.65061 0.0
C292 C 0.89238 -0.00211 0.76104 0.0
C293 C 0.01694 0.95232 0.79902 0.0
N294 N 0.87538 0.97945 0.68554 0.0
N295 N 0.00632 0.9563 0.76417 0.0
H296 H 0.61628 0.41246 0.69048 0.0
H297 H 0.61958 0.59903 0.86563 0.0
H298 H 0.52947 0.595 0.69052 0.0
H299 H 0.58944 0.40148 0.85583 0.0
H300 H 0.61103 0.60296 0.80309 0.0
H301 H 0.63479 0.41277 0.75377 0.0
C302 C 0.60206 0.45284 0.70394 0.0
C303 C 0.57109 0.50366 0.68555 0.0
C304 C 0.60664 0.5589 0.81489 0.0
C305 C 0.59225 0.50448 0.75736 0.0
C306 C 0.61098 0.55654 0.8505 0.0
C307 C 0.60546 0.49977 0.86628 0.0
C308 C 0.59806 0.50409 0.79507 0.0
C309 C 0.59572 0.44618 0.8452 0.0
C310 C 0.61214 0.45286 0.73986 0.0
C311 C 0.55302 0.55482 0.70398 0.0
N312 N 0.59275 0.44964 0.81076 0.0
N313 N 0.56401 0.55405 0.73902 0.0
H314 H 0.4504 0.59608 0.3098 0.0
H315 H 0.38287 0.41807 0.13122 0.0
H316 H 0.32564 0.42997 0.29107 0.0
H317 H 0.43396 0.61241 0.14031 0.0
H318 H 0.35839 0.42227 0.18894 0.0
H319 H 0.44253 0.60459 0.24756 0.0
C320 C 0.42052 0.56191 0.29238 0.0
C321 C 0.38904 0.51202 0.30531 0.0
C322 C 0.37397 0.4642 0.17811 0.0
C323 C 0.38072 0.52075 0.23443 0.0
C324 C 0.3877 0.46201 0.14498 0.0
C325 C 0.41096 0.51499 0.13074 0.0
C326 C 0.38478 0.51941 0.19753 0.0
C327 C 0.41766 0.5701 0.15042 0.0
C328 C 0.41585 0.56683 0.25695 0.0
C329 C 0.35058 0.46905 0.28192 0.0
N330 N 0.40554 0.57069 0.18299 0.0
N331 N 0.34846 0.47379 0.24752 0.0
loop_
_geom_bond_atom_site_label_1
_geom_bond_atom_site_label_2
_geom_bond_distance
_geom_bond_site_symmetry_2
_ccdc_geom_bond_type
C0 O16 1.251 . S
C0 O18 1.254 1_554 S
N1 C2 1.333 1_445 S
N1 C6 1.307 . S
N1 Zn7 2.020 . S
C2 N1 1.333 1_665 S
C2 C3 1.379 . S
C2 H20 0.952 . S
C3 C2 1.379 . S
C3 C4 1.390 1_665 S
C3 H30 0.949 . S
C4 C3 1.390 1_445 S
C4 C5 1.357 . S
C5 C4 1.357 . S
C5 C6 1.370 . S
C5 H31 0.950 . S
C6 N1 1.307 . S
C6 C5 1.370 . S
C6 H24 0.948 . S
Zn7 N1 2.020 . S
Zn7 O16 2.039 1_445 S
Zn7 O22 2.034 1_455 S
Zn7 O26 2.025 . S
Zn7 O28 2.024 1_545 S
C8 O27 1.246 1_554 S
C8 O28 1.249 . S
N9 C10 1.307 1_545 S
N9 C11 1.333 1_655 S
N9 Zn15 2.020 1_655 S
C10 N9 1.307 1_565 S
C10 C14 1.370 . S
C10 H21 0.948 . S
C11 N9 1.333 1_455 S
C11 C12 1.379 . S
C11 H19 0.952 . S
C12 C11 1.379 . S
C12 C13 1.390 1_455 S
C12 H32 0.949 . S
C13 C12 1.390 1_655 S
C13 C14 1.357 1_545 S
C14 C10 1.370 . S
C14 C13 1.357 1_565 S
C14 H33 0.950 . S
Zn15 N9 2.020 1_455 S
Zn15 O18 2.025 1_445 S
Zn15 O23 2.024 1_455 S
Zn15 O25 2.039 . S
Zn15 O27 2.034 1_545 S
O16 C0 1.251 . S
O16 Zn7 2.039 1_665 S
C17 O22 1.246 . S
C17 O23 1.249 1_554 S
O18 C0 1.254 1_556 S
O18 Zn15 2.025 1_665 S
H19 C11 0.952 . S
H20 C2 0.952 . S
H21 C10 0.948 . S
O22 Zn7 2.034 1_655 S
O22 C17 1.246 . S
O23 Zn15 2.024 1_655 S
O23 C17 1.249 1_556 S
H24 C6 0.948 . S
O25 Zn15 2.039 . S
O25 C29 1.251 1_556 S
O26 Zn7 2.025 . S
O26 C29 1.254 . S
O27 C8 1.246 1_556 S
O27 Zn15 2.034 1_565 S
O28 Zn7 2.024 1_565 S
O28 C8 1.249 . S
C29 O25 1.251 1_554 S
C29 O26 1.254 . S
H30 C3 0.949 . S
H31 C5 0.950 . S
H32 C12 0.949 . S
H33 C14 0.950 . S
C34 O50 1.251 . S
C34 O52 1.254 . S
N35 C36 1.333 . S
N35 C40 1.307 . S
N35 Zn41 2.020 . S
C36 N35 1.333 . S
C36 C37 1.379 . S
C36 H54 0.952 . S
C37 C36 1.379 . S
C37 C38 1.390 . S
C37 H64 0.949 . S
C38 C37 1.390 . S
C38 C39 1.357 . S
C39 C38 1.357 . S
C39 C40 1.370 . S
C39 H65 0.950 . S
C40 N35 1.307 . S
C40 C39 1.370 . S
C40 H58 0.948 . S
Zn41 N35 2.020 . S
Zn41 O50 2.039 . S
Zn41 O56 2.034 . S
Zn41 O60 2.025 . S
Zn41 O62 2.024 . S
C42 O61 1.246 . S
C42 O62 1.249 . S
N43 C44 1.307 . S
N43 C45 1.333 . S
N43 Zn49 2.020 . S
C44 N43 1.307 . S
C44 C48 1.370 . S
C44 H55 0.948 . S
C45 N43 1.333 . S
C45 C46 1.379 . S
C45 H53 0.952 . S
C46 C45 1.379 . S
C46 C47 1.390 . S
C46 H66 0.949 . S
C47 C46 1.390 . S
C47 C48 1.357 . S
C48 C44 1.370 . S
C48 C47 1.357 . S
C48 H67 0.950 . S
Zn49 N43 2.020 . S
Zn49 O52 2.025 . S
Zn49 O57 2.024 . S
Zn49 O59 2.039 . S
Zn49 O61 2.034 . S
O50 C34 1.251 . S
O50 Zn41 2.039 . S
C51 O56 1.246 . S
C51 O57 1.249 . S
O52 C34 1.254 . S
O52 Zn49 2.025 . S
H53 C45 0.952 . S
H54 C36 0.952 . S
H55 C44 0.948 . S
O56 Zn41 2.034 . S
O56 C51 1.246 . S
O57 Zn49 2.024 . S
O57 C51 1.249 . S
H58 C40 0.948 . S
O59 Zn49 2.039 . S
O59 C63 1.251 . S
O60 Zn41 2.025 . S
O60 C63 1.254 . S
O61 C42 1.246 . S
O61 Zn49 2.034 . S
O62 Zn41 2.024 . S
O62 C42 1.249 . S
C63 O59 1.251 . S
C63 O60 1.254 . S
H64 C37 0.949 . S
H65 C39 0.950 . S
H66 C46 0.949 . S
H67 C48 0.950 . S
H68 C73 0.930 . S
H69 C76 0.930 1_655 S
H70 C78 0.930 . S
H71 C72 1.016 . S
C72 H71 1.016 . S
C72 N79 1.286 . S
C73 H68 0.930 . S
C73 C74 1.397 . S
C73 C75 1.361 1_565 S
C74 C73 1.397 . S
C74 C78 1.390 . S
C75 C73 1.361 1_545 S
C75 C76 1.393 . S
C75 N79 1.413 1_455 S
C76 H69 0.930 1_455 S
C76 C75 1.393 . S
C76 C77 1.399 . S
C77 C76 1.399 . S
C77 C78 1.381 1_545 S
C78 H70 0.930 . S
C78 C74 1.390 . S
C78 C77 1.381 1_565 S
N79 C72 1.286 . S
N79 C75 1.413 1_655 S
H80 C85 0.930 . S
H81 C88 0.930 . S
H82 C90 0.930 . S
H83 C84 1.016 . S
C84 H83 1.016 . S
C84 N91 1.286 . S
C85 H80 0.930 . S
C85 C86 1.397 . S
C85 C87 1.361 1_665 S
C86 C85 1.397 . S
C86 C90 1.390 . S
C87 C85 1.361 1_445 S
C87 C88 1.393 . S
C87 N91 1.413 . S
C88 H81 0.930 . S
C88 C87 1.393 . S
C88 C89 1.399 1_455 S
C89 C88 1.399 1_655 S
C89 C90 1.381 1_545 S
C90 H82 0.930 . S
C90 C86 1.390 . S
C90 C89 1.381 1_565 S
N91 C84 1.286 . S
N91 C87 1.413 . S
H92 C97 0.930 1_554 S
H93 C100 0.930 . S
H94 C102 0.930 . S
H95 C96 1.016 . S
C96 H95 1.016 . S
C96 N103 1.286 . S
C97 H92 0.930 1_556 S
C97 C98 1.397 . S
C97 C99 1.361 . S
C98 C97 1.397 . S
C98 C102 1.390 . S
C99 C97 1.361 . S
C99 C100 1.393 . S
C99 N103 1.413 . S
C100 H93 0.930 . S
C100 C99 1.393 . S
C100 C101 1.399 . S
C101 C100 1.399 . S
C101 C102 1.381 . S
C102 H94 0.930 . S
C102 C98 1.390 . S
C102 C101 1.381 . S
N103 C96 1.286 . S
N103 C99 1.413 . S
H104 C109 0.930 1_556 S
H105 C112 0.930 . S
H106 C114 0.930 . S
H107 C108 1.016 . S
C108 H107 1.016 . S
C108 N115 1.286 . S
C109 H104 0.930 1_554 S
C109 C110 1.397 . S
C109 C111 1.361 . S
C110 C109 1.397 . S
C110 C114 1.390 . S
C111 C109 1.361 . S
C111 C112 1.393 . S
C111 N115 1.413 . S
C112 H105 0.930 . S
C112 C111 1.393 . S
C112 C113 1.399 . S
C113 C112 1.399 . S
C113 C114 1.381 . S
C114 H106 0.930 . S
C114 C110 1.390 . S
C114 C113 1.381 . S
N115 C108 1.286 . S
N115 C111 1.413 . S
H116 C122 0.930 . S
H117 C126 0.930 . S
H118 C131 0.929 . S
H119 C129 0.929 . S
H120 C124 0.929 . S
H121 C130 0.929 . S
C122 H116 0.930 . S
C122 C123 1.367 . S
C122 C130 1.378 . S
C123 C122 1.367 . S
C123 C131 1.433 . S
C124 H120 0.929 . S
C124 C126 1.378 . S
C124 C128 1.350 . S
C125 C128 1.463 . S
C125 C130 1.350 . S
C125 N133 1.427 . S
C126 H117 0.930 . S
C126 C124 1.378 . S
C126 C127 1.367 . S
C127 C126 1.367 . S
C127 C129 1.433 . S
C128 C124 1.350 . S
C128 C125 1.463 . S
C128 N132 1.427 . S
C129 H119 0.929 . S
C129 C127 1.433 . S
C129 N132 1.384 . S
C130 H121 0.929 . S
C130 C122 1.378 . S
C130 C125 1.350 . S
C131 H118 0.929 . S
C131 C123 1.433 . S
C131 N133 1.384 . S
N132 C128 1.427 . S
N132 C129 1.384 . S
N133 C125 1.427 . S
N133 C131 1.384 . S
H134 C140 0.930 . S
H135 C144 0.930 . S
H136 C149 0.929 . S
H137 C147 0.929 . S
H138 C142 0.929 . S
H139 C148 0.929 . S
C140 H134 0.930 . S
C140 C141 1.367 1_556 S
C140 C148 1.378 . S
C141 C140 1.367 1_554 S
C141 C149 1.433 . S
C142 H138 0.929 . S
C142 C144 1.378 . S
C142 C146 1.350 . S
C143 C146 1.463 . S
C143 C148 1.350 1_554 S
C143 N151 1.427 . S
C144 H135 0.930 . S
C144 C142 1.378 . S
C144 C145 1.398 . S
C145 C144 1.398 . S
C145 C147 1.408 1_554 S
C146 C142 1.350 . S
C146 C143 1.463 . S
C146 N150 1.427 1_554 S
C147 H137 0.929 . S
C147 C145 1.408 1_556 S
C147 N150 1.384 . S
C148 H139 0.929 . S
C148 C140 1.378 . S
C148 C143 1.350 1_556 S
C149 H136 0.929 . S
C149 C141 1.433 . S
C149 N151 1.384 . S
N150 C146 1.427 1_556 S
N150 C147 1.384 . S
N151 C143 1.427 . S
N151 C149 1.384 . S
H152 C158 0.930 . S
H153 C162 0.930 . S
H154 C167 0.929 . S
H155 C165 0.929 . S
H156 C160 0.929 . S
H157 C166 0.929 . S
C158 H152 0.930 . S
C158 C159 1.367 1_556 S
C158 C166 1.378 . S
C159 C158 1.367 1_554 S
C159 C167 1.433 . S
C160 H156 0.929 . S
C160 C162 1.378 . S
C160 C164 1.350 . S
C161 C164 1.463 . S
C161 C166 1.350 1_554 S
C161 N169 1.427 . S
C162 H153 0.930 . S
C162 C160 1.378 . S
C162 C163 1.367 . S
C163 C162 1.367 . S
C163 C165 1.433 1_554 S
C164 C160 1.350 . S
C164 C161 1.463 . S
C164 N168 1.427 1_554 S
C165 H155 0.929 . S
C165 C163 1.433 1_556 S
C165 N168 1.384 . S
C166 H157 0.929 . S
C166 C158 1.378 . S
C166 C161 1.350 1_556 S
C167 H154 0.929 . S
C167 C159 1.433 . S
C167 N169 1.384 . S
N168 C164 1.427 1_556 S
N168 C165 1.384 . S
N169 C161 1.427 . S
N169 C167 1.384 . S
H170 C176 0.930 . S
H171 C180 0.930 . S
H172 C185 0.929 . S
H173 C183 0.929 . S
H174 C178 0.929 . S
H175 C184 0.929 . S
C176 H170 0.930 . S
C176 C177 1.367 . S
C176 C184 1.378 . S
C177 C176 1.367 . S
C177 C185 1.433 1_554 S
C178 H174 0.929 . S
C178 C180 1.378 . S
C178 C182 1.350 . S
C179 C182 1.463 . S
C179 C184 1.350 1_556 S
C179 N187 1.427 . S
C180 H171 0.930 . S
C180 C178 1.378 . S
C180 C181 1.367 . S
C181 C180 1.367 . S
C181 C183 1.433 1_556 S
C182 C178 1.350 . S
C182 C179 1.463 . S
C182 N186 1.427 1_556 S
C183 H173 0.929 . S
C183 C181 1.433 1_554 S
C183 N186 1.384 . S
C184 H175 0.929 . S
C184 C176 1.378 . S
C184 C179 1.350 1_554 S
C185 H172 0.929 . S
C185 C177 1.433 1_556 S
C185 N187 1.384 . S
N186 C182 1.427 1_554 S
N186 C183 1.384 . S
N187 C179 1.427 . S
N187 C185 1.384 . S
H188 C194 0.930 . S
H189 C198 0.930 . S
H190 C203 0.929 . S
H191 C201 0.929 . S
H192 C196 0.929 . S
H193 C202 0.929 . S
C194 H188 0.930 . S
C194 C195 1.367 . S
C194 C202 1.378 . S
C195 C194 1.367 . S
C195 C203 1.433 . S
C196 H192 0.929 . S
C196 C198 1.378 . S
C196 C200 1.350 . S
C197 C200 1.463 . S
C197 C202 1.350 . S
C197 N205 1.427 . S
C198 H189 0.930 . S
C198 C196 1.378 . S
C198 C199 1.367 . S
C199 C198 1.367 . S
C199 C201 1.433 . S
C200 C196 1.350 . S
C200 C197 1.463 . S
C200 N204 1.427 . S
C201 H191 0.929 . S
C201 C199 1.433 . S
C201 N204 1.384 . S
C202 H193 0.929 . S
C202 C194 1.378 . S
C202 C197 1.350 . S
C203 H190 0.929 . S
C203 C195 1.433 . S
C203 N205 1.384 . S
N204 C200 1.427 . S
N204 C201 1.384 . S
N205 C197 1.427 . S
N205 C203 1.384 . S
H206 C212 0.930 . S
H207 C216 0.930 . S
H208 C221 0.929 . S
H209 C219 0.929 . S
H210 C214 0.929 . S
H211 C220 0.929 . S
C212 H206 0.930 . S
C212 C213 1.367 . S
C212 C220 1.378 . S
C213 C212 1.367 . S
C213 C221 1.433 . S
C214 H210 0.929 . S
C214 C216 1.378 . S
C214 C218 1.350 . S
C215 C218 1.463 . S
C215 C220 1.350 . S
C215 N223 1.427 . S
C216 H207 0.930 . S
C216 C214 1.378 . S
C216 C217 1.367 . S
C217 C216 1.367 . S
C217 C219 1.433 . S
C218 C214 1.350 . S
C218 C215 1.463 . S
C218 N222 1.427 . S
C219 H209 0.929 . S
C219 C217 1.433 . S
C219 N222 1.384 . S
C220 H211 0.929 . S
C220 C212 1.378 . S
C220 C215 1.350 . S
C221 H208 0.929 . S
C221 C213 1.433 . S
C221 N223 1.384 . S
N222 C218 1.427 . S
N222 C219 1.384 . S
N223 C215 1.427 . S
N223 C221 1.384 . S
H224 C230 0.930 . S
H225 C234 0.930 . S
H226 C239 0.929 . S
H227 C237 0.929 . S
H228 C232 0.929 . S
H229 C238 0.929 . S
C230 H224 0.930 . S
C230 C231 1.367 . S
C230 C238 1.378 . S
C231 C230 1.367 . S
C231 C239 1.433 . S
C232 H228 0.929 . S
C232 C234 1.378 . S
C232 C236 1.350 . S
C233 C236 1.463 . S
C233 C238 1.350 . S
C233 N241 1.427 . S
C234 H225 0.930 . S
C234 C232 1.378 . S
C234 C235 1.367 . S
C235 C234 1.367 . S
C235 C237 1.433 . S
C236 C232 1.350 . S
C236 C233 1.463 . S
C236 N240 1.427 . S
C237 H227 0.929 . S
C237 C235 1.433 . S
C237 N240 1.384 . S
C238 H229 0.929 . S
C238 C230 1.378 . S
C238 C233 1.350 . S
C239 H226 0.929 . S
C239 C231 1.433 . S
C239 N241 1.384 . S
N240 C236 1.427 . S
N240 C237 1.384 . S
N241 C233 1.427 . S
N241 C239 1.384 . S
H242 C248 0.930 . S
H243 C252 0.930 . S
H244 C257 0.929 . S
H245 C255 0.929 . S
H246 C250 0.929 . S
H247 C256 0.929 . S
C248 H242 0.930 . S
C248 C249 1.367 . S
C248 C256 1.378 . S
C249 C248 1.367 . S
C249 C257 1.433 . S
C250 H246 0.929 . S
C250 C252 1.378 . S
C250 C254 1.350 . S
C251 C254 1.463 . S
C251 C256 1.350 . S
C251 N259 1.427 . S
C252 H243 0.930 . S
C252 C250 1.378 . S
C252 C253 1.367 . S
C253 C252 1.367 . S
C253 C255 1.433 . S
C254 C250 1.350 . S
C254 C251 1.463 . S
C254 N258 1.427 . S
C255 H245 0.929 . S
C255 C253 1.433 . S
C255 N258 1.384 . S
C256 H247 0.929 . S
C256 C248 1.378 . S
C256 C251 1.350 . S
C257 H244 0.929 . S
C257 C249 1.433 . S
C257 N259 1.384 . S
N258 C254 1.427 . S
N258 C255 1.384 . S
N259 C251 1.427 . S
N259 C257 1.384 . S
H260 C266 0.930 1_655 S
H261 C270 0.930 . S
H262 C275 0.929 . S
H263 C273 0.929 1_655 S
H264 C268 0.929 . S
H265 C274 0.929 1_655 S
C266 H260 0.930 1_455 S
C266 C267 1.367 . S
C266 C274 1.378 . S
C267 C266 1.367 . S
C267 C275 1.433 1_545 S
C268 H264 0.929 . S
C268 C270 1.378 . S
C268 C272 1.350 1_565 S
C269 C272 1.463 . S
C269 C274 1.350 . S
C269 N277 1.427 1_545 S
C270 H261 0.930 . S
C270 C268 1.378 . S
C270 C271 1.367 1_565 S
C271 C270 1.367 1_545 S
C271 C273 1.433 . S
C272 C268 1.350 1_545 S
C272 C269 1.463 . S
C272 N276 1.427 . S
C273 H263 0.929 1_455 S
C273 C271 1.433 . S
C273 N276 1.384 . S
C274 H265 0.929 1_455 S
C274 C266 1.378 . S
C274 C269 1.350 . S
C275 H262 0.929 . S
C275 C267 1.433 1_565 S
C275 N277 1.384 . S
N276 C272 1.427 . S
N276 C273 1.384 . S
N277 C269 1.427 1_565 S
N277 C275 1.384 . S
H278 C284 0.930 . S
H279 C288 0.930 1_565 S
H280 C293 0.929 1_565 S
H281 C291 0.929 . S
H282 C286 0.929 1_565 S
H283 C292 0.929 . S
C284 H278 0.930 . S
C284 C285 1.367 . S
C284 C292 1.378 . S
C285 C284 1.367 . S
C285 C293 1.433 1_655 S
C286 H282 0.929 1_545 S
C286 C288 1.378 . S
C286 C290 1.350 1_455 S
C287 C290 1.463 . S
C287 C292 1.350 . S
C287 N295 1.427 1_655 S
C288 H279 0.930 1_545 S
C288 C286 1.378 . S
C288 C289 1.367 1_455 S
C289 C288 1.367 1_655 S
C289 C291 1.433 . S
C290 C286 1.350 1_655 S
C290 C287 1.463 . S
C290 N294 1.427 . S
C291 H281 0.929 . S
C291 C289 1.433 . S
C291 N294 1.384 . S
C292 H283 0.929 . S
C292 C284 1.378 . S
C292 C287 1.350 . S
C293 H280 0.929 1_545 S
C293 C285 1.433 1_455 S
C293 N295 1.384 . S
N294 C290 1.427 . S
N294 C291 1.384 . S
N295 C287 1.427 1_455 S
N295 C293 1.384 . S
H296 C302 0.930 . S
H297 C306 0.930 . S
H298 C311 0.929 . S
H299 C309 0.929 . S
H300 C304 0.929 . S
H301 C310 0.929 . S
C302 H296 0.930 . S
C302 C303 1.367 . S
C302 C310 1.378 . S
C303 C302 1.367 . S
C303 C311 1.433 . S
C304 H300 0.929 . S
C304 C306 1.378 . S
C304 C308 1.350 . S
C305 C308 1.463 . S
C305 C310 1.350 . S
C305 N313 1.427 . S
C306 H297 0.930 . S
C306 C304 1.378 . S
C306 C307 1.367 . S
C307 C306 1.367 . S
C307 C309 1.433 . S
C308 C304 1.350 . S
C308 C305 1.463 . S
C308 N312 1.427 . S
C309 H299 0.929 . S
C309 C307 1.433 . S
C309 N312 1.384 . S
C310 H301 0.929 . S
C310 C302 1.378 . S
C310 C305 1.350 . S
C311 H298 0.929 . S
C311 C303 1.433 . S
C311 N313 1.384 . S
N312 C308 1.427 . S
N312 C309 1.384 . S
N313 C305 1.427 . S
N313 C311 1.384 . S
H314 C320 0.930 . S
H315 C324 0.930 . S
H316 C329 0.929 . S
H317 C327 0.929 . S
H318 C322 0.929 . S
H319 C328 0.929 . S
C320 H314 0.930 . S
C320 C321 1.367 . S
C320 C328 1.378 . S
C321 C320 1.367 . S
C321 C329 1.433 . S
C322 H318 0.929 . S
C322 C324 1.378 . S
C322 C326 1.350 . S
C323 C326 1.463 . S
C323 C328 1.350 . S
C323 N331 1.427 . S
C324 H315 0.930 . S
C324 C322 1.378 . S
C324 C325 1.367 . S
C325 C324 1.367 . S
C325 C327 1.433 . S
C326 C322 1.350 . S
C326 C323 1.463 . S
C326 N330 1.427 . S
C327 H317 0.929 . S
C327 C325 1.433 . S
C327 N330 1.384 . S
C328 H319 0.929 . S
C328 C320 1.378 . S
C328 C323 1.350 . S
C329 H316 0.929 . S
C329 C321 1.433 . S
C329 N331 1.384 . S
N330 C326 1.427 . S
N330 C327 1.384 . S
N331 C323 1.427 . S
N331 C329 1.384 . S
C127 C110 1.457 . S
C123 C29 1.491 . S
C141 C8 1.402 . S
C145 C96 1.344 1_554 S
C159 C0 1.412 . S
C163 C108 1.353 . S
C177 C17 1.493 . S
C181 C98 1.456 . S
C195 C63 1.491 . S
C199 C86 1.451 . S
C213 C42 1.405 . S
C217 C72 1.357 . S
C235 C84 1.354 . S
C231 C34 1.412 . S
C253 C74 1.467 . S
C249 C51 1.490 . S
C267 C4 1.520 . S
C271 C77 1.515 . S
C285 C13 1.514 . S
C289 C89 1.510 . S
C307 C101 1.520 . S
C303 C38 1.522 . S
C321 C47 1.514 . S
C325 C113 1.507 . S
