# Generated by pormake.
# Topology ptr, (4,4)-cn, num edge types: 1
# Building blocks:
#     Node 0, Type 0, BuildingBlock: QUQFOY_clean_sbu_1, # of connection points: 4
#     Node 1, Type 0, BuildingBlock: QUQFOY_clean_sbu_1, # of connection points: 4
#     Node 2, Type 0, BuildingBlock: QUQFOY_clean_sbu_1, # of connection points: 4
#     Node 3, Type 0, BuildingBlock: QUQFOY_clean_sbu_1, # of connection points: 4
#     Node 4, Type 0, BuildingBlock: QUQFOY_clean_sbu_1, # of connection points: 4
#     Node 5, Type 0, BuildingBlock: QUQFOY_clean_sbu_1, # of connection points: 4
#     Node 6, Type 0, BuildingBlock: QUQFOY_clean_sbu_1, # of connection points: 4
#     Node 7, Type 0, BuildingBlock: QUQFOY_clean_sbu_1, # of connection points: 4
#     Node 8, Type 0, BuildingBlock: QUQFOY_clean_sbu_1, # of connection points: 4
#     Node 9, Type 0, BuildingBlock: QUQFOY_clean_sbu_1, # of connection points: 4
#     Node 10, Type 0, BuildingBlock: QUQFOY_clean_sbu_1, # of connection points: 4
#     Node 11, Type 0, BuildingBlock: QUQFOY_clean_sbu_1, # of connection points: 4
#     Node 12, Type 0, BuildingBlock: QUQFOY_clean_sbu_1, # of connection points: 4
#     Node 13, Type 0, BuildingBlock: QUQFOY_clean_sbu_1, # of connection points: 4
#     Node 14, Type 0, BuildingBlock: QUQFOY_clean_sbu_1, # of connection points: 4
#     Node 15, Type 0, BuildingBlock: QUQFOY_clean_sbu_1, # of connection points: 4
#     Node 16, Type 0, BuildingBlock: QUQFOY_clean_sbu_1, # of connection points: 4
#     Node 17, Type 0, BuildingBlock: QUQFOY_clean_sbu_1, # of connection points: 4
#     Node 18, Type 1, BuildingBlock: MUDLON_clean_linker_0, # of connection points: 4
#     Node 19, Type 1, BuildingBlock: MUDLON_clean_linker_0, # of connection points: 4
#     Node 20, Type 1, BuildingBlock: MUDLON_clean_linker_0, # of connection points: 4
#     Node 21, Type 1, BuildingBlock: MUDLON_clean_linker_0, # of connection points: 4
#     Node 22, Type 1, BuildingBlock: MUDLON_clean_linker_0, # of connection points: 4
#     Node 23, Type 1, BuildingBlock: MUDLON_clean_linker_0, # of connection points: 4
#     Node 24, Type 1, BuildingBlock: MUDLON_clean_linker_0, # of connection points: 4
#     Node 25, Type 1, BuildingBlock: MUDLON_clean_linker_0, # of connection points: 4
#     Node 26, Type 1, BuildingBlock: MUDLON_clean_linker_0, # of connection points: 4
#     Node 27, Type 1, BuildingBlock: MUDLON_clean_linker_0, # of connection points: 4
#     Node 28, Type 1, BuildingBlock: MUDLON_clean_linker_0, # of connection points: 4
#     Node 29, Type 1, BuildingBlock: MUDLON_clean_linker_0, # of connection points: 4
#     Node 30, Type 1, BuildingBlock: MUDLON_clean_linker_0, # of connection points: 4
#     Node 31, Type 1, BuildingBlock: MUDLON_clean_linker_0, # of connection points: 4
#     Node 32, Type 1, BuildingBlock: MUDLON_clean_linker_0, # of connection points: 4
#     Node 33, Type 1, BuildingBlock: MUDLON_clean_linker_0, # of connection points: 4
#     Node 34, Type 1, BuildingBlock: MUDLON_clean_linker_0, # of connection points: 4
#     Node 35, Type 1, BuildingBlock: MUDLON_clean_linker_0, # of connection points: 4
#     Edge 36, Type (0, 1), BuildingBlock: KIFKEQ_clean_linker_1, # of connection points: 2
#     Edge 37, Type (0, 1), BuildingBlock: KIFKEQ_clean_linker_1, # of connection points: 2
#     Edge 38, Type (0, 1), BuildingBlock: KIFKEQ_clean_linker_1, # of connection points: 2
#     Edge 39, Type (0, 1), BuildingBlock: KIFKEQ_clean_linker_1, # of connection points: 2
#     Edge 40, Type (0, 1), BuildingBlock: KIFKEQ_clean_linker_1, # of connection points: 2
#     Edge 41, Type (0, 1), BuildingBlock: KIFKEQ_clean_linker_1, # of connection points: 2
#     Edge 42, Type (0, 1), BuildingBlock: KIFKEQ_clean_linker_1, # of connection points: 2
#     Edge 43, Type (0, 1), BuildingBlock: KIFKEQ_clean_linker_1, # of connection points: 2
#     Edge 44, Type (0, 1), BuildingBlock: KIFKEQ_clean_linker_1, # of connection points: 2
#     Edge 45, Type (0, 1), BuildingBlock: KIFKEQ_clean_linker_1, # of connection points: 2
#     Edge 46, Type (0, 1), BuildingBlock: KIFKEQ_clean_linker_1, # of connection points: 2
#     Edge 47, Type (0, 1), BuildingBlock: KIFKEQ_clean_linker_1, # of connection points: 2
#     Edge 48, Type (0, 1), BuildingBlock: KIFKEQ_clean_linker_1, # of connection points: 2
#     Edge 49, Type (0, 1), BuildingBlock: KIFKEQ_clean_linker_1, # of connection points: 2
#     Edge 50, Type (0, 1), BuildingBlock: KIFKEQ_clean_linker_1, # of connection points: 2
#     Edge 51, Type (0, 1), BuildingBlock: KIFKEQ_clean_linker_1, # of connection points: 2
#     Edge 52, Type (0, 1), BuildingBlock: KIFKEQ_clean_linker_1, # of connection points: 2
#     Edge 53, Type (0, 1), BuildingBlock: KIFKEQ_clean_linker_1, # of connection points: 2
#     Edge 54, Type (0, 1), BuildingBlock: KIFKEQ_clean_linker_1, # of connection points: 2
#     Edge 55, Type (0, 1), BuildingBlock: KIFKEQ_clean_linker_1, # of connection points: 2
#     Edge 56, Type (0, 1), BuildingBlock: KIFKEQ_clean_linker_1, # of connection points: 2
#     Edge 57, Type (0, 1), BuildingBlock: KIFKEQ_clean_linker_1, # of connection points: 2
#     Edge 58, Type (0, 1), BuildingBlock: KIFKEQ_clean_linker_1, # of connection points: 2
#     Edge 59, Type (0, 1), BuildingBlock: KIFKEQ_clean_linker_1, # of connection points: 2
#     Edge 60, Type (0, 1), BuildingBlock: KIFKEQ_clean_linker_1, # of connection points: 2
#     Edge 61, Type (0, 1), BuildingBlock: KIFKEQ_clean_linker_1, # of connection points: 2
#     Edge 62, Type (0, 1), BuildingBlock: KIFKEQ_clean_linker_1, # of connection points: 2
#     Edge 63, Type (0, 1), BuildingBlock: KIFKEQ_clean_linker_1, # of connection points: 2
#     Edge 64, Type (0, 1), BuildingBlock: KIFKEQ_clean_linker_1, # of connection points: 2
#     Edge 65, Type (0, 1), BuildingBlock: KIFKEQ_clean_linker_1, # of connection points: 2
#     Edge 66, Type (0, 1), BuildingBlock: KIFKEQ_clean_linker_1, # of connection points: 2
#     Edge 67, Type (0, 1), BuildingBlock: KIFKEQ_clean_linker_1, # of connection points: 2
#     Edge 68, Type (0, 1), BuildingBlock: KIFKEQ_clean_linker_1, # of connection points: 2
#     Edge 69, Type (0, 1), BuildingBlock: KIFKEQ_clean_linker_1, # of connection points: 2
#     Edge 70, Type (0, 1), BuildingBlock: KIFKEQ_clean_linker_1, # of connection points: 2
#     Edge 71, Type (0, 1), BuildingBlock: KIFKEQ_clean_linker_1, # of connection points: 2
#     Edge 72, Type (0, 1), BuildingBlock: KIFKEQ_clean_linker_1, # of connection points: 2
#     Edge 73, Type (0, 1), BuildingBlock: KIFKEQ_clean_linker_1, # of connection points: 2
#     Edge 74, Type (0, 1), BuildingBlock: KIFKEQ_clean_linker_1, # of connection points: 2
#     Edge 75, Type (0, 1), BuildingBlock: KIFKEQ_clean_linker_1, # of connection points: 2
#     Edge 76, Type (0, 1), BuildingBlock: KIFKEQ_clean_linker_1, # of connection points: 2
#     Edge 77, Type (0, 1), BuildingBlock: KIFKEQ_clean_linker_1, # of connection points: 2
#     Edge 78, Type (0, 1), BuildingBlock: KIFKEQ_clean_linker_1, # of connection points: 2
#     Edge 79, Type (0, 1), BuildingBlock: KIFKEQ_clean_linker_1, # of connection points: 2
#     Edge 80, Type (0, 1), BuildingBlock: KIFKEQ_clean_linker_1, # of connection points: 2
#     Edge 81, Type (0, 1), BuildingBlock: KIFKEQ_clean_linker_1, # of connection points: 2
#     Edge 82, Type (0, 1), BuildingBlock: KIFKEQ_clean_linker_1, # of connection points: 2
#     Edge 83, Type (0, 1), BuildingBlock: KIFKEQ_clean_linker_1, # of connection points: 2
#     Edge 84, Type (0, 1), BuildingBlock: KIFKEQ_clean_linker_1, # of connection points: 2
#     Edge 85, Type (0, 1), BuildingBlock: KIFKEQ_clean_linker_1, # of connection points: 2
#     Edge 86, Type (0, 1), BuildingBlock: KIFKEQ_clean_linker_1, # of connection points: 2
#     Edge 87, Type (0, 1), BuildingBlock: KIFKEQ_clean_linker_1, # of connection points: 2
#     Edge 88, Type (0, 1), BuildingBlock: KIFKEQ_clean_linker_1, # of connection points: 2
#     Edge 89, Type (0, 1), BuildingBlock: KIFKEQ_clean_linker_1, # of connection points: 2
#     Edge 90, Type (0, 1), BuildingBlock: KIFKEQ_clean_linker_1, # of connection points: 2
#     Edge 91, Type (0, 1), BuildingBlock: KIFKEQ_clean_linker_1, # of connection points: 2
#     Edge 92, Type (0, 1), BuildingBlock: KIFKEQ_clean_linker_1, # of connection points: 2
#     Edge 93, Type (0, 1), BuildingBlock: KIFKEQ_clean_linker_1, # of connection points: 2
#     Edge 94, Type (0, 1), BuildingBlock: KIFKEQ_clean_linker_1, # of connection points: 2
#     Edge 95, Type (0, 1), BuildingBlock: KIFKEQ_clean_linker_1, # of connection points: 2
#     Edge 96, Type (0, 1), BuildingBlock: KIFKEQ_clean_linker_1, # of connection points: 2
#     Edge 97, Type (0, 1), BuildingBlock: KIFKEQ_clean_linker_1, # of connection points: 2
#     Edge 98, Type (0, 1), BuildingBlock: KIFKEQ_clean_linker_1, # of connection points: 2
#     Edge 99, Type (0, 1), BuildingBlock: KIFKEQ_clean_linker_1, # of connection points: 2
#     Edge 100, Type (0, 1), BuildingBlock: KIFKEQ_clean_linker_1, # of connection points: 2
#     Edge 101, Type (0, 1), BuildingBlock: KIFKEQ_clean_linker_1, # of connection points: 2
#     Edge 102, Type (0, 1), BuildingBlock: KIFKEQ_clean_linker_1, # of connection points: 2
#     Edge 103, Type (0, 1), BuildingBlock: KIFKEQ_clean_linker_1, # of connection points: 2
#     Edge 104, Type (0, 1), BuildingBlock: KIFKEQ_clean_linker_1, # of connection points: 2
#     Edge 105, Type (0, 1), BuildingBlock: KIFKEQ_clean_linker_1, # of connection points: 2
#     Edge 106, Type (0, 1), BuildingBlock: KIFKEQ_clean_linker_1, # of connection points: 2
#     Edge 107, Type (0, 1), BuildingBlock: KIFKEQ_clean_linker_1, # of connection points: 2
# Relax obj value: 0.012
# Max RMSD: 0.036
# Mean RMSD: 0.035
data_MOF--net-ptr--node1-QUQFOY_clean_sbu_1--node2-MUDLON_clean_linker_0--edge1-KIFKEQ_clean_linker_1
_symmetry_space_group_name_H-M    P1
_symmetry_Int_Tables_number       1
_symmetry_cell_setting            triclinic
loop_
_symmetry_equiv_pos_as_xyz
'x, y, z'
_cell_length_a     108.48289
_cell_length_b     108.48385
_cell_length_c     65.426234
_cell_angle_alpha  89.995311
_cell_angle_beta   89.97468
_cell_angle_gamma 120.00426
loop_
_atom_site_label
_atom_site_type_symbol
_atom_site_fract_x
_atom_site_fract_y
_atom_site_fract_z
_atom_type_partial_charge
O0 O 0.02332 0.38942 0.04266 0.0
Cd1 Cd 0.02787 0.38063 0.01789 0.0
Cd2 Cd 0.99909 0.3667 0.01437 0.0
O3 O 0.9999 0.37628 0.04222 0.0
O4 O 0.04773 0.38466 0.02281 0.0
O5 O 0.02915 0.36288 0.02201 0.0
C6 C 0.04266 0.37114 0.02477 0.0
C7 C 0.98405 0.34225 0.00899 0.0
C8 C 0.01128 0.38597 0.05045 0.0
C9 C 0.01636 0.38741 0.98079 0.0
O10 O 1.00415 0.37939 0.9886 0.0
O11 O 0.02748 0.38884 0.98951 0.0
O12 O 0.97913 0.35087 0.01006 0.0
O13 O 0.99756 0.34746 0.01175 0.0
O14 O 0.62808 0.63528 0.04879 0.0
Cd15 Cd 0.63506 0.64834 0.02334 0.0
Cd16 Cd 0.64974 0.63397 0.01685 0.0
O17 O 0.64064 0.62454 0.04454 0.0
O18 O 0.63003 0.6634 0.02898 0.0
O19 O 0.65223 0.66799 0.02613 0.0
C20 C 0.64346 0.67253 0.0297 0.0
C21 C 0.674 0.643 0.01039 0.0
C22 C 0.63172 0.6264 0.05475 0.0
C23 C 0.62793 0.63042 0.98526 0.0
O24 O 0.63673 0.62677 0.99154 0.0
O25 O 0.62599 0.63935 0.99533 0.0
O26 O 0.66524 0.6295 0.01156 0.0
O27 O 0.66907 0.65149 0.01362 0.0
O28 O 0.38942 0.01177 0.98727 0.0
Cd29 Cd 0.38127 0.01741 0.012 0.0
Cd30 Cd 0.3672 0.98875 0.01678 0.0
O31 O 0.37514 0.98849 0.98823 0.0
O32 O 0.3861 0.03746 0.00651 0.0
O33 O 0.36397 0.01954 0.00776 0.0
C34 C 0.37267 0.03295 0.00484 0.0
C35 C 0.34326 0.97367 0.02503 0.0
C36 C 0.38508 0.99949 0.9796 0.0
C37 C 0.38889 0.00656 0.04881 0.0
O38 O 0.38127 0.99434 0.04088 0.0
O39 O 0.38948 0.01749 0.04067 0.0
O40 O 0.35209 0.96901 0.02387 0.0
O41 O 0.34788 0.98689 0.02068 0.0
O42 O 0.99776 0.62695 0.9904 0.0
Cd43 Cd 0.99362 0.63569 0.01565 0.0
Cd44 Cd 0.02274 0.64885 0.01872 0.0
O45 O 0.02122 0.63939 0.99055 0.0
O46 O 0.97348 0.63083 0.01149 0.0
O47 O 0.99136 0.65298 0.01197 0.0
C48 C 0.97791 0.64422 0.00964 0.0
C49 C 0.03967 0.67277 0.02468 0.0
C50 C 0.00964 0.63009 0.98232 0.0
C51 C 1.00512 0.62824 0.05223 0.0
O52 O 0.01733 0.63593 0.04425 0.0
O53 O 0.9941 0.62724 0.0438 0.0
O54 O 0.04326 0.66315 0.0228 0.0
O55 O 0.02639 0.66891 0.02231 0.0
O56 O 0.39433 0.37745 0.99114 0.0
Cd57 Cd 0.38484 0.36416 0.01589 0.0
Cd58 Cd 0.37182 0.38019 0.01842 0.0
O59 O 0.38132 0.38786 0.99021 0.0
O60 O 0.38968 0.34882 0.01202 0.0
O61 O 0.36761 0.34477 0.01096 0.0
C62 C 0.37634 0.33998 0.00922 0.0
C63 C 0.34787 0.37325 0.02414 0.0
C64 C 0.39103 0.38593 0.9826 0.0
C65 C 0.39183 0.383 0.05254 0.0
O66 O 0.3848 0.38802 0.04385 0.0
O67 O 0.39236 0.37256 0.04463 0.0
O68 O 0.35747 0.38642 0.02187 0.0
O69 O 0.35176 0.36381 0.0224 0.0
O70 O 0.62771 0.99563 0.04196 0.0
Cd71 Cd 0.6375 0.99264 0.01685 0.0
Cd72 Cd 0.65078 0.02187 0.01661 0.0
O73 O 0.64056 0.01904 0.04444 0.0
O74 O 0.63425 0.97286 0.01934 0.0
O75 O 0.65554 0.99207 0.02196 0.0
C76 C 0.64769 0.97836 0.02274 0.0
C77 C 0.67437 0.04002 0.01146 0.0
C78 C 0.63081 0.00713 0.05126 0.0
C79 C 0.63108 0.00563 0.98128 0.0
O80 O 0.63829 0.01729 0.99085 0.0
O81 O 0.63011 0.99423 0.98824 0.0
O82 O 0.66412 0.04271 0.01324 0.0
O83 O 0.6714 0.02699 0.01374 0.0
O84 O 0.68392 0.72044 0.37786 0.0
Cd85 Cd 0.68999 0.71315 0.35276 0.0
Cd86 Cd 0.66081 0.6989 0.3465 0.0
O87 O 0.66058 0.70774 0.37447 0.0
O88 O 0.70988 0.7178 0.35915 0.0
O89 O 0.69209 0.69575 0.3557 0.0
C90 C 0.70537 0.70433 0.3598 0.0
C91 C 0.64425 0.67501 0.33939 0.0
C92 C 0.6715 0.7168 0.3843 0.0
C93 C 0.67973 0.72084 0.31496 0.0
O94 O 0.66726 0.71229 0.32146 0.0
O95 O 0.69057 0.7224 0.32473 0.0
O96 O 0.64059 0.68462 0.3401 0.0
O97 O 0.65735 0.67886 0.34346 0.0
O98 O 0.29707 0.97036 0.38084 0.0
Cd99 Cd 0.30421 0.98328 0.35524 0.0
Cd100 Cd 0.31851 0.96886 0.34867 0.0
O101 O 0.3093 0.95929 0.37625 0.0
O102 O 0.30024 0.99917 0.36004 0.0
O103 O 0.32203 1.00239 0.35815 0.0
C104 C 0.3138 0.00767 0.36101 0.0
C105 C 0.34292 0.97849 0.34263 0.0
C106 C 0.30054 0.96131 0.38663 0.0
C107 C 0.29677 0.96531 0.31715 0.0
O108 O 0.30562 0.96167 0.32323 0.0
O109 O 0.29491 0.97424 0.32736 0.0
O110 O 0.33434 0.96493 0.34313 0.0
O111 O 0.33769 0.98668 0.34629 0.0
O112 O 0.05668 0.34741 0.32256 0.0
Cd113 Cd 0.04971 0.35428 0.34713 0.0
Cd114 Cd 0.03509 0.32486 0.35436 0.0
O115 O 0.0443 0.32412 0.32696 0.0
O116 O 0.05633 0.37459 0.3404 0.0
O117 O 0.03359 0.35837 0.34299 0.0
C118 C 0.04321 0.37137 0.33913 0.0
C119 C 0.01113 0.30863 0.36127 0.0
C120 C 0.05324 0.3349 0.31676 0.0
C121 C 0.05673 0.34431 0.38587 0.0
O122 O 0.04806 0.33176 0.37982 0.0
O123 O 0.05866 0.355 0.3754 0.0
O124 O 0.0207 0.30493 0.36195 0.0
O125 O 0.01502 0.32152 0.35581 0.0
O126 O 0.66588 0.9567 0.32274 0.0
Cd127 Cd 0.66007 0.96442 0.34761 0.0
Cd128 Cd 0.68936 0.98126 0.35069 0.0
O129 O 0.6889 0.97227 0.32255 0.0
O130 O 0.63964 0.9584 0.34302 0.0
O131 O 0.65674 0.98095 0.3434 0.0
C132 C 0.64342 0.97165 0.34096 0.0
C133 C 0.70618 0.00521 0.35701 0.0
C134 C 0.6781 0.96171 0.31454 0.0
C135 C 0.6732 0.95966 0.38444 0.0
O136 O 0.68497 0.96847 0.37618 0.0
O137 O 0.66151 0.95697 0.37614 0.0
O138 O 0.70977 0.99559 0.35552 0.0
O139 O 0.69298 1.0014 0.35396 0.0
O140 O 0.05848 0.71318 0.32583 0.0
Cd141 Cd 0.05044 0.7 0.35083 0.0
Cd142 Cd 0.03657 0.71528 0.35575 0.0
O143 O 0.04612 0.72425 0.32789 0.0
O144 O 0.05547 0.6849 0.34566 0.0
O145 O 0.03326 0.68041 0.3472 0.0
C146 C 0.04207 0.67585 0.34413 0.0
C147 C 0.01222 0.7063 0.36133 0.0
C148 C 0.05526 0.72213 0.31877 0.0
C149 C 0.05762 0.71814 0.38841 0.0
O150 O 0.04921 0.72217 0.38166 0.0
O151 O 0.0593 0.7089 0.37877 0.0
O152 O 0.02108 0.71981 0.36075 0.0
O153 O 0.01713 0.69781 0.35794 0.0
O154 O 0.2932 0.33003 0.37815 0.0
Cd155 Cd 0.3026 0.32719 0.35238 0.0
Cd156 Cd 0.31651 0.3559 0.35417 0.0
O157 O 0.30756 0.35302 0.38291 0.0
O158 O 0.29706 0.30665 0.35403 0.0
O159 O 0.31935 0.32414 0.35635 0.0
C160 C 0.31028 0.31065 0.35709 0.0
C161 C 0.34086 0.37014 0.34766 0.0
C162 C 0.29718 0.3412 0.38881 0.0
C163 C 0.29649 0.34211 0.31903 0.0
O164 O 0.30326 0.3532 0.32996 0.0
O165 O 0.29604 0.33055 0.32406 0.0
O166 O 0.3331 0.37569 0.35216 0.0
O167 O 0.3349 0.35641 0.34777 0.0
O168 O 0.35454 0.05778 0.7055 0.0
Cd169 Cd 0.35903 0.04822 0.68156 0.0
Cd170 Cd 0.33031 0.03411 0.67815 0.0
O171 O 0.33139 0.04274 0.7068 0.0
O172 O 0.37874 0.05175 0.68622 0.0
O173 O 0.3596 0.03031 0.68765 0.0
C174 C 0.37323 0.03829 0.68956 0.0
C175 C 0.31433 0.01002 0.67147 0.0
C176 C 0.34254 0.05326 0.7142 0.0
C177 C 0.34754 0.05487 0.64464 0.0
O178 O 0.33547 0.0476 0.65322 0.0
O179 O 0.35855 0.05549 0.65253 0.0
O180 O 0.31007 0.01914 0.67322 0.0
O181 O 0.32771 0.01449 0.67424 0.0
O182 O 0.95919 0.30207 0.7105 0.0
Cd183 Cd 0.96782 0.31592 0.68623 0.0
Cd184 Cd 0.98302 0.30215 0.68219 0.0
O185 O 0.97423 0.29395 0.71068 0.0
O186 O 0.96297 0.33113 0.69137 0.0
O187 O 0.98509 0.33526 0.6908 0.0
C188 C 0.97639 0.34 0.69348 0.0
C189 C 0.00719 0.31039 0.67578 0.0
C190 C 0.96381 0.29452 0.71861 0.0
C191 C 0.96172 0.29807 0.64899 0.0
O192 O 0.96992 0.2941 0.65678 0.0
O193 O 0.96004 0.3076 0.65771 0.0
O194 O 0.9981 0.297 0.67752 0.0
O195 O 1.00265 0.31925 0.67842 0.0
O196 O 0.72725 0.68628 0.65641 0.0
Cd197 Cd 0.71956 0.69233 0.6809 0.0
Cd198 Cd 0.70489 0.66333 0.68761 0.0
O199 O 0.71406 0.66297 0.65981 0.0
O200 O 0.72431 0.71222 0.67459 0.0
O201 O 0.7022 0.69436 0.67711 0.0
C202 C 0.71085 0.70769 0.67342 0.0
C203 C 0.68063 0.64774 0.69393 0.0
C204 C 0.72345 0.67379 0.65011 0.0
C205 C 0.72637 0.68223 0.71952 0.0
O206 O 0.71769 0.66969 0.71339 0.0
O207 O 0.72841 0.69298 0.70909 0.0
O208 O 0.68969 0.64335 0.69366 0.0
O209 O 0.68527 0.66101 0.68983 0.0
O210 O 0.33708 0.29535 0.65323 0.0
Cd211 Cd 0.33037 0.3008 0.67958 0.0
Cd212 Cd 0.36001 0.31698 0.68492 0.0
O213 O 0.36041 0.30834 0.6569 0.0
O214 O 0.30983 0.29356 0.67373 0.0
O215 O 0.32525 0.31638 0.67848 0.0
C216 C 0.31245 0.30653 0.67407 0.0
C217 C 0.37625 0.34103 0.69177 0.0
C218 C 0.3496 0.29946 0.64674 0.0
C219 C 0.34257 0.29411 0.71638 0.0
O220 O 0.35465 0.30368 0.70984 0.0
O221 O 0.33125 0.2914 0.70688 0.0
O222 O 0.38022 0.33167 0.69044 0.0
O223 O 0.36297 0.33682 0.68855 0.0
O224 O 0.72633 0.04491 0.66053 0.0
Cd225 Cd 0.71757 0.03265 0.68634 0.0
Cd226 Cd 0.70257 0.04666 0.68625 0.0
O227 O 0.7125 0.05437 0.65827 0.0
O228 O 0.72229 0.01714 0.68394 0.0
O229 O 0.70024 0.01319 0.68288 0.0
C230 C 0.70889 0.00829 0.68155 0.0
C231 C 0.67823 0.03846 0.69081 0.0
C232 C 0.72253 0.05274 0.65119 0.0
C233 C 0.723 0.0523 0.72138 0.0
O234 O 0.71475 0.05557 0.71207 0.0
O235 O 0.72518 0.04262 0.71431 0.0
O236 O 0.68734 0.0518 0.68853 0.0
O237 O 0.68285 0.02958 0.68957 0.0
O238 O 0.96147 0.66507 0.70868 0.0
Cd239 Cd 0.97023 0.66047 0.68386 0.0
Cd240 Cd 0.98353 0.68952 0.68005 0.0
O241 O 0.97403 0.68853 0.70803 0.0
O242 O 0.96508 0.64026 0.68856 0.0
O243 O 0.98732 0.65794 0.68808 0.0
C244 C 0.97843 0.64453 0.69057 0.0
C245 C 0.00779 0.70525 0.67429 0.0
C246 C 0.96463 0.67705 0.71641 0.0
C247 C 0.96298 0.67165 0.64669 0.0
O248 O 0.97068 0.68394 0.65441 0.0
O249 O 0.96195 0.66071 0.65546 0.0
O250 O 0.99873 0.70965 0.67504 0.0
O251 O 1.00314 0.69189 0.67763 0.0
H252 H 0.25232 0.37455 0.15558 0.0
N253 N 0.22895 0.35495 0.13704 0.0
H254 H 0.26326 0.37197 0.18655 0.0
H255 H 0.21771 0.3315 0.16216 0.0
H256 H 0.2279 0.3291 0.19397 0.0
H257 H 0.23272 0.3328 0.12607 0.0
H258 H 0.25028 0.33404 0.1013 0.0
H259 H 0.24229 0.37499 0.109 0.0
H260 H 0.25944 0.37619 0.08367 0.0
H261 H 0.21838 0.37229 0.13909 0.0
H262 H 0.20632 0.32841 0.12992 0.0
H263 H 0.19349 0.36612 0.13714 0.0
H264 H 0.18121 0.32179 0.12956 0.0
H265 H 0.1259 0.3497 0.15555 0.0
H266 H 0.11433 0.34994 0.18728 0.0
H267 H 0.10033 0.30541 0.19642 0.0
H268 H 0.11198 0.30524 0.16429 0.0
H269 H 0.10162 0.30885 0.11824 0.0
H270 H 0.08841 0.31492 0.09381 0.0
H271 H 0.12172 0.35901 0.09612 0.0
H272 H 0.13499 0.35274 0.12018 0.0
H273 H 0.14798 0.34968 0.15661 0.0
H274 H 0.17273 0.35608 0.15541 0.0
H275 H 0.16236 0.32169 0.11292 0.0
N276 N 0.12543 0.32657 0.13778 0.0
H277 H 0.13721 0.31469 0.11546 0.0
C278 C 0.23412 0.35337 0.15663 0.0
C279 C 0.2469 0.36466 0.16405 0.0
C280 C 0.25309 0.36315 0.18188 0.0
C281 C 0.24649 0.35032 0.19305 0.0
C282 C 0.23348 0.33907 0.18574 0.0
C283 C 0.22746 0.3405 0.1676 0.0
C284 C 0.23636 0.35391 0.11946 0.0
C285 C 0.23827 0.34214 0.11648 0.0
C286 C 0.24832 0.34288 0.1023 0.0
C287 C 0.25652 0.35535 0.09079 0.0
C288 C 0.2536 0.36657 0.09264 0.0
C289 C 0.24368 0.36586 0.10689 0.0
C290 C 0.21416 0.35081 0.135 0.0
C291 C 0.21027 0.36127 0.13683 0.0
C292 C 0.19597 0.35766 0.13593 0.0
C293 C 0.18512 0.34337 0.13356 0.0
C294 C 0.18915 0.33292 0.13124 0.0
C295 C 0.20353 0.33663 0.1317 0.0
C296 C 0.11993 0.32742 0.15756 0.0
C297 C 0.12055 0.34002 0.16444 0.0
C298 C 0.11393 0.34015 0.18269 0.0
C299 C 0.10641 0.3277 0.19441 0.0
C300 C 0.10595 0.31516 0.18766 0.0
C301 C 0.11269 0.31506 0.16944 0.0
C302 C 0.11924 0.33029 0.12104 0.0
C303 C 0.10619 0.31976 0.11308 0.0
C304 C 0.09861 0.32329 0.09931 0.0
C305 C 0.1039 0.33749 0.0932 0.0
C306 C 0.11736 0.34796 0.10039 0.0
C307 C 0.12496 0.3444 0.11419 0.0
C308 C 0.14051 0.33144 0.13636 0.0
C309 C 0.15087 0.34339 0.14711 0.0
C310 C 0.16523 0.34719 0.14619 0.0
C311 C 0.16975 0.33943 0.13408 0.0
C312 C 0.15939 0.32778 0.1228 0.0
C313 C 0.14498 0.32382 0.12406 0.0
H314 H 0.7136 0.80712 0.16069 0.0
N315 N 0.69248 0.8029 0.13577 0.0
H316 H 0.71188 0.79423 0.19231 0.0
H317 H 0.66787 0.78451 0.15578 0.0
H318 H 0.66601 0.77184 0.18745 0.0
H319 H 0.66573 0.78855 0.1193 0.0
H320 H 0.65689 0.76833 0.09572 0.0
H321 H 0.70774 0.79382 0.11597 0.0
H322 H 0.69906 0.77357 0.09267 0.0
H323 H 0.71136 0.82704 0.11819 0.0
H324 H 0.67056 0.80704 0.14821 0.0
H325 H 0.71086 0.84924 0.11568 0.0
H326 H 0.6702 0.82937 0.14665 0.0
H327 H 0.71286 0.92011 0.15063 0.0
H328 H 0.71064 0.93051 0.1827 0.0
H329 H 0.66949 0.89329 0.19304 0.0
H330 H 0.67185 0.88298 0.161 0.0
H331 H 0.66659 0.89165 0.12962 0.0
H332 H 0.65912 0.90389 0.106 0.0
H333 H 0.69986 0.92193 0.07532 0.0
H334 H 0.70757 0.91041 0.10027 0.0
H335 H 0.71477 0.89066 0.13792 0.0
H336 H 0.71374 0.86768 0.13766 0.0
H337 H 0.66849 0.84675 0.12591 0.0
N338 N 0.6936 0.8959 0.13338 0.0
H339 H 0.66964 0.86992 0.12694 0.0
C340 C 0.69093 0.79687 0.1559 0.0
C341 C 0.70319 0.79964 0.16674 0.0
C342 C 0.70217 0.79226 0.18479 0.0
C343 C 0.68881 0.78189 0.19233 0.0
C344 C 0.67648 0.77958 0.18189 0.0
C345 C 0.67752 0.78697 0.16386 0.0
C346 C 0.68743 0.79268 0.11935 0.0
C347 C 0.6731 0.78551 0.1132 0.0
C348 C 0.66805 0.77388 0.09984 0.0
C349 C 0.67723 0.76922 0.09239 0.0
C350 C 0.6917 0.77692 0.09785 0.0
C351 C 0.6967 0.78849 0.11119 0.0
C352 C 0.69116 0.81543 0.1336 0.0
C353 C 0.70229 0.82747 0.12426 0.0
C354 C 0.70202 0.84019 0.12301 0.0
C355 C 0.6906 0.84126 0.13129 0.0
C356 C 0.67915 0.82898 0.14003 0.0
C357 C 0.67939 0.81618 0.1411 0.0
C358 C 0.69256 0.90084 0.15342 0.0
C359 C 0.70349 0.91413 0.16003 0.0
C360 C 0.7022 0.92002 0.17834 0.0
C361 C 0.68985 0.91275 0.19035 0.0
C362 C 0.67905 0.89922 0.18399 0.0
C363 C 0.68042 0.89327 0.16574 0.0
C364 C 0.68779 0.90032 0.11695 0.0
C365 C 0.67388 0.89812 0.11772 0.0
C366 C 0.66957 0.9051 0.10396 0.0
C367 C 0.67893 0.9142 0.08878 0.0
C368 C 0.69246 0.91542 0.08712 0.0
C369 C 0.69684 0.90865 0.10116 0.0
C370 C 0.69238 0.88205 0.13225 0.0
C371 C 0.70465 0.8811 0.13518 0.0
C372 C 0.70403 0.86793 0.13488 0.0
C373 C 0.69105 0.85527 0.13152 0.0
C374 C 0.67866 0.85623 0.12866 0.0
C375 C 0.6793 0.86949 0.12908 0.0
H376 H 0.1382 0.77985 0.16603 0.0
N377 N 0.13314 0.79532 0.13928 0.0
H378 H 0.12535 0.76931 0.19788 0.0
H379 H 0.11295 0.7998 0.15631 0.0
H380 H 0.10026 0.7897 0.18839 0.0
H381 H 0.10958 0.79196 0.12006 0.0
H382 H 0.095 0.77311 0.09564 0.0
H383 H 0.14061 0.77832 0.12022 0.0
H384 H 0.12659 0.7599 0.09506 0.0
H385 H 0.16061 0.80337 0.13496 0.0
H386 H 0.13153 0.81941 0.13763 0.0
H387 H 0.18071 0.82766 0.13246 0.0
H388 H 0.15151 0.84383 0.13647 0.0
H389 H 0.23656 0.89401 0.15449 0.0
H390 H 0.24914 0.90482 0.18627 0.0
H391 H 0.21977 0.91988 0.19853 0.0
H392 H 0.20724 0.909 0.16652 0.0
H393 H 0.22737 0.92276 0.12579 0.0
H394 H 0.2472 0.93441 0.10228 0.0
H395 H 0.24362 0.89366 0.08867 0.0
H396 H 0.22475 0.88245 0.1139 0.0
H397 H 0.21401 0.87202 0.15325 0.0
H398 H 0.1942 0.84779 0.15218 0.0
H399 H 0.16972 0.86197 0.11732 0.0
N400 N 0.21436 0.89595 0.13833 0.0
H401 H 0.18946 0.88648 0.11963 0.0
C402 C 0.12658 0.79064 0.15898 0.0
C403 C 0.13007 0.78217 0.17106 0.0
C404 C 0.12272 0.77622 0.18926 0.0
C405 C 0.11173 0.77864 0.19574 0.0
C406 C 0.10852 0.78746 0.18376 0.0
C407 C 0.11587 0.79337 0.16552 0.0
C408 C 0.12609 0.78641 0.12198 0.0
C409 C 0.11342 0.78513 0.11435 0.0
C410 C 0.10514 0.77436 0.10033 0.0
C411 C 0.10947 0.76477 0.09359 0.0
C412 C 0.12271 0.76682 0.10027 0.0
C413 C 0.13086 0.77746 0.11443 0.0
C414 C 0.14465 0.80965 0.13659 0.0
C415 C 0.15861 0.8122 0.13501 0.0
C416 C 0.17009 0.82613 0.13382 0.0
C417 C 0.16786 0.83786 0.13451 0.0
C418 C 0.15373 0.83516 0.13565 0.0
C419 C 0.14225 0.82119 0.13652 0.0
C420 C 0.22085 0.90062 0.15822 0.0
C421 C 0.23263 0.89936 0.16423 0.0
C422 C 0.23983 0.90557 0.18241 0.0
C423 C 0.2355 0.91327 0.1949 0.0
C424 C 0.22347 0.91416 0.18913 0.0
C425 C 0.21622 0.90785 0.17099 0.0
C426 C 0.22446 0.90176 0.12167 0.0
C427 C 0.2308 0.91635 0.11753 0.0
C428 C 0.24214 0.92298 0.10384 0.0
C429 C 0.24727 0.91511 0.09332 0.0
C430 C 0.24037 0.90027 0.09673 0.0
C431 C 0.2293 0.89372 0.11101 0.0
C432 C 0.20317 0.88123 0.13682 0.0
C433 C 0.20439 0.87002 0.1455 0.0
C434 C 0.19302 0.85602 0.14463 0.0
C435 C 0.1802 0.85278 0.13472 0.0
C436 C 0.17923 0.86399 0.12548 0.0
C437 C 0.19055 0.87802 0.12661 0.0
H438 H 0.37386 0.24271 0.86838 0.0
N439 N 0.35465 0.22228 0.89196 0.0
H440 H 0.36976 0.25251 0.83716 0.0
H441 H 0.32905 0.21243 0.87276 0.0
H442 H 0.32475 0.22214 0.8413 0.0
H443 H 0.33143 0.223 0.90673 0.0
H444 H 0.33173 0.23939 0.93272 0.0
H445 H 0.37613 0.23884 0.91651 0.0
H446 H 0.37658 0.25528 0.94251 0.0
H447 H 0.36615 0.20959 0.87105 0.0
H448 H 0.3341 0.20135 0.91639 0.0
H449 H 0.36044 0.18489 0.87279 0.0
H450 H 0.32903 0.17689 0.9195 0.0
H451 H 0.35441 0.11897 0.8842 0.0
H452 H 0.3564 0.10852 0.85252 0.0
H453 H 0.31523 0.10179 0.83367 0.0
H454 H 0.31289 0.11124 0.86643 0.0
H455 H 0.31388 0.09448 0.91322 0.0
H456 H 0.32018 0.08099 0.93674 0.0
H457 H 0.36204 0.11778 0.94408 0.0
H458 H 0.3558 0.13103 0.92038 0.0
H459 H 0.35714 0.14363 0.89077 0.0
H460 H 0.36277 0.16833 0.89123 0.0
H461 H 0.31873 0.15455 0.90511 0.0
N462 N 0.33102 0.12008 0.89769 0.0
H463 H 0.31359 0.12993 0.90627 0.0
C464 C 0.35181 0.2269 0.87278 0.0
C465 C 0.36315 0.23809 0.86237 0.0
C466 C 0.36077 0.24361 0.84452 0.0
C467 C 0.34692 0.23807 0.83668 0.0
C468 C 0.33552 0.22671 0.84704 0.0
C469 C 0.33795 0.22111 0.86493 0.0
C470 C 0.35382 0.22975 0.90966 0.0
C471 C 0.34125 0.22982 0.91475 0.0
C472 C 0.34146 0.23925 0.92953 0.0
C473 C 0.35421 0.24874 0.93959 0.0
C474 C 0.36655 0.24804 0.93525 0.0
C475 C 0.36633 0.23866 0.9204 0.0
C476 C 0.35067 0.20745 0.89357 0.0
C477 C 0.35795 0.20245 0.88155 0.0
C478 C 0.35477 0.1883 0.8828 0.0
C479 C 0.34437 0.17874 0.89653 0.0
C480 C 0.33699 0.18377 0.90855 0.0
C481 C 0.33998 0.19791 0.90693 0.0
C482 C 0.3333 0.11559 0.87793 0.0
C483 C 0.34577 0.11521 0.87333 0.0
C484 C 0.34696 0.10934 0.85494 0.0
C485 C 0.33591 0.10409 0.84038 0.0
C486 C 0.3238 0.10527 0.84463 0.0
C487 C 0.32249 0.11084 0.86326 0.0
C488 C 0.33427 0.11377 0.91486 0.0
C489 C 0.32429 0.09974 0.92034 0.0
C490 C 0.32792 0.09204 0.9338 0.0
C491 C 0.3417 0.09823 0.94212 0.0
C492 C 0.35142 0.11259 0.93764 0.0
C493 C 0.34778 0.12028 0.92416 0.0
C494 C 0.33496 0.1349 0.89897 0.0
C495 C 0.34879 0.14595 0.89449 0.0
C496 C 0.35192 0.16013 0.89436 0.0
C497 C 0.34121 0.16363 0.89804 0.0
C498 C 0.32738 0.15247 0.90258 0.0
C499 C 0.32436 0.13833 0.90315 0.0
H500 H 0.77166 0.13668 0.87398 0.0
N501 N 0.79298 0.13874 0.89647 0.0
H502 H 0.7616 0.12259 0.84292 0.0
H503 H 0.80358 0.12418 0.8758 0.0
H504 H 0.79358 0.10998 0.84461 0.0
H505 H 0.78554 0.11104 0.90495 0.0
H506 H 0.76867 0.09598 0.93044 0.0
H507 H 0.78411 0.14735 0.92862 0.0
H508 H 0.76842 0.13269 0.95607 0.0
H509 H 0.80588 0.16365 0.8774 0.0
H510 H 0.81381 0.13752 0.91876 0.0
H511 H 0.83084 0.18201 0.87887 0.0
H512 H 0.83865 0.15632 0.92182 0.0
H513 H 0.89771 0.23951 0.88806 0.0
H514 H 0.90853 0.25226 0.85672 0.0
H515 H 0.915 0.21778 0.8372 0.0
H516 H 0.90516 0.20565 0.86966 0.0
H517 H 0.92092 0.22032 0.91729 0.0
H518 H 0.93547 0.23907 0.94176 0.0
H519 H 0.902 0.24945 0.94741 0.0
H520 H 0.88748 0.23053 0.92358 0.0
H521 H 0.87319 0.21846 0.89625 0.0
H522 H 0.84827 0.20003 0.89724 0.0
H523 H 0.86075 0.16831 0.90704 0.0
N524 N 0.89626 0.21477 0.90107 0.0
H525 H 0.88565 0.18716 0.90788 0.0
C526 C 0.78832 0.13149 0.8771 0.0
C527 C 0.77661 0.13105 0.86742 0.0
C528 C 0.77091 0.12301 0.84969 0.0
C529 C 0.77678 0.11515 0.84131 0.0
C530 C 0.78875 0.11583 0.8508 0.0
C531 C 0.79454 0.12401 0.86849 0.0
C532 C 0.78572 0.13032 0.91431 0.0
C533 C 0.78186 0.1159 0.91597 0.0
C534 C 0.77223 0.10723 0.93098 0.0
C535 C 0.76663 0.11285 0.94533 0.0
C536 C 0.77181 0.12766 0.94488 0.0
C537 C 0.78104 0.1362 0.92937 0.0
C538 C 0.8079 0.14928 0.89805 0.0
C539 C 0.81304 0.16199 0.88704 0.0
C540 C 0.82734 0.17259 0.88815 0.0
C541 C 0.83695 0.17092 0.90075 0.0
C542 C 0.83175 0.15806 0.91176 0.0
C543 C 0.81744 0.14728 0.91022 0.0
C544 C 0.90089 0.2217 0.88145 0.0
C545 C 0.90149 0.23468 0.87712 0.0
C546 C 0.90758 0.24193 0.85892 0.0
C547 C 0.91285 0.23621 0.84427 0.0
C548 C 0.91149 0.22281 0.84824 0.0
C549 C 0.90569 0.21573 0.86668 0.0
C550 C 0.9031 0.22392 0.91846 0.0
C551 C 0.91658 0.22639 0.92428 0.0
C552 C 0.92495 0.23724 0.93808 0.0
C553 C 0.92002 0.24596 0.94636 0.0
C554 C 0.90614 0.24291 0.94148 0.0
C555 C 0.89776 0.23201 0.92771 0.0
C556 C 0.88133 0.20424 0.90253 0.0
C557 C 0.87056 0.20762 0.89926 0.0
C558 C 0.85622 0.19692 0.89939 0.0
C559 C 0.85226 0.18248 0.90206 0.0
C560 C 0.86316 0.17922 0.90534 0.0
C561 C 0.87747 0.18999 0.90571 0.0
H562 H 0.79511 0.70897 0.89118 0.0
N563 N 0.80413 0.69125 0.90226 0.0
H564 H 0.78296 0.70868 0.85968 0.0
H565 H 0.80097 0.67504 0.86783 0.0
H566 H 0.78981 0.67535 0.83602 0.0
H567 H 0.77928 0.66578 0.89904 0.0
H568 H 0.75887 0.65711 0.92174 0.0
H569 H 0.80359 0.70131 0.93916 0.0
H570 H 0.78348 0.69225 0.96286 0.0
H571 H 0.83174 0.71001 0.90544 0.0
H572 H 0.80212 0.66502 0.90138 0.0
H573 H 0.85161 0.70543 0.90588 0.0
H574 H 0.82181 0.66029 0.90033 0.0
H575 H 0.9063 0.69426 0.88 0.0
H576 H 0.91953 0.69727 0.84848 0.0
H577 H 0.8911 0.65302 0.83364 0.0
H578 H 0.87766 0.65031 0.86496 0.0
H579 H 0.88135 0.64634 0.91164 0.0
H580 H 0.89669 0.64507 0.93799 0.0
H581 H 0.92001 0.69097 0.94174 0.0
H582 H 0.90421 0.69207 0.91572 0.0
H583 H 0.88443 0.69423 0.88287 0.0
H584 H 0.86507 0.69926 0.8858 0.0
H585 H 0.83976 0.65922 0.91733 0.0
N586 N 0.88379 0.66951 0.89422 0.0
H587 H 0.85891 0.65385 0.91283 0.0
C588 C 0.79907 0.69214 0.88211 0.0
C589 C 0.79414 0.70174 0.87905 0.0
C590 C 0.78723 0.70158 0.86094 0.0
C591 C 0.78524 0.6919 0.8452 0.0
C592 C 0.79078 0.68272 0.84792 0.0
C593 C 0.79743 0.68269 0.8662 0.0
C594 C 0.79294 0.68436 0.91727 0.0
C595 C 0.78035 0.67152 0.91306 0.0
C596 C 0.76865 0.66652 0.92622 0.0
C597 C 0.76933 0.67406 0.94414 0.0
C598 C 0.78234 0.68635 0.94898 0.0
C599 C 0.79395 0.69146 0.93561 0.0
C600 C 0.81548 0.68794 0.90324 0.0
C601 C 0.82956 0.69914 0.90455 0.0
C602 C 0.84092 0.69647 0.90457 0.0
C603 C 0.83847 0.68246 0.90293 0.0
C604 C 0.82425 0.67121 0.90195 0.0
C605 C 0.81289 0.67389 0.90237 0.0
C606 C 0.89086 0.67205 0.87473 0.0
C607 C 0.90275 0.68528 0.8698 0.0
C608 C 0.91042 0.68694 0.85181 0.0
C609 C 0.90647 0.67538 0.83847 0.0
C610 C 0.89436 0.66224 0.84331 0.0
C611 C 0.88666 0.66063 0.86122 0.0
C612 C 0.89175 0.66925 0.91163 0.0
C613 C 0.88957 0.65609 0.91851 0.0
C614 C 0.89832 0.65541 0.93355 0.0
C615 C 0.9096 0.66793 0.94185 0.0
C616 C 0.91148 0.68116 0.93547 0.0
C617 C 0.9025 0.68181 0.92062 0.0
C618 C 0.87307 0.6735 0.89736 0.0
C619 C 0.87474 0.68649 0.89034 0.0
C620 C 0.8636 0.68943 0.89226 0.0
C621 C 0.85064 0.67963 0.9017 0.0
C622 C 0.84932 0.66691 0.90947 0.0
C623 C 0.86035 0.66386 0.90714 0.0
H624 H 0.76777 0.63862 0.48903 0.0
N625 N 0.78927 0.65918 0.46832 0.0
H626 H 0.75757 0.64079 0.52134 0.0
H627 H 0.80036 0.68273 0.49271 0.0
H628 H 0.79022 0.68508 0.52498 0.0
H629 H 0.79618 0.68635 0.45791 0.0
H630 H 0.78327 0.69301 0.43401 0.0
H631 H 0.76904 0.64218 0.4424 0.0
H632 H 0.75596 0.64876 0.41835 0.0
H633 H 0.79422 0.63767 0.47007 0.0
H634 H 0.81542 0.68318 0.46282 0.0
H635 H 0.81706 0.63846 0.46854 0.0
H636 H 0.83834 0.68411 0.46023 0.0
H637 H 0.87723 0.63797 0.49148 0.0
H638 H 0.88955 0.63934 0.52356 0.0
H639 H 0.91275 0.68522 0.51892 0.0
H640 H 0.90034 0.68373 0.48715 0.0
H641 H 0.89824 0.68597 0.45083 0.0
H642 H 0.91862 0.69324 0.42787 0.0
H643 H 0.90814 0.64932 0.42268 0.0
H644 H 0.8882 0.64234 0.44619 0.0
H645 H 0.8576 0.64091 0.44891 0.0
H646 H 0.8355 0.64164 0.44698 0.0
H647 H 0.8558 0.68195 0.47889 0.0
N648 N 0.88177 0.65937 0.46689 0.0
H649 H 0.87804 0.68145 0.47958 0.0
C650 C 0.78474 0.66048 0.48848 0.0
C651 C 0.77284 0.64871 0.49704 0.0
C652 C 0.76705 0.64998 0.51547 0.0
C653 C 0.77303 0.66314 0.52565 0.0
C654 C 0.78527 0.67485 0.51735 0.0
C655 C 0.79111 0.67352 0.49896 0.0
C656 C 0.78368 0.66371 0.45179 0.0
C657 C 0.78774 0.6781 0.44892 0.0
C658 C 0.78029 0.68191 0.43524 0.0
C659 C 0.76851 0.67141 0.42435 0.0
C660 C 0.76487 0.65709 0.42665 0.0
C661 C 0.77241 0.65332 0.4402 0.0
C662 C 0.80302 0.66027 0.46631 0.0
C663 C 0.80383 0.64782 0.4678 0.0
C664 C 0.81694 0.64832 0.46676 0.0
C665 C 0.82967 0.66135 0.464 0.0
C666 C 0.82884 0.67388 0.4625 0.0
C667 C 0.81566 0.67336 0.46377 0.0
C668 C 0.88774 0.66069 0.487 0.0
C669 C 0.88477 0.6483 0.49767 0.0
C670 C 0.89192 0.64912 0.51584 0.0
C671 C 0.90221 0.66239 0.52374 0.0
C672 C 0.90479 0.67483 0.5134 0.0
C673 C 0.89767 0.674 0.49518 0.0
C674 C 0.89181 0.66361 0.45031 0.0
C675 C 0.90024 0.67793 0.44446 0.0
C676 C 0.91185 0.68204 0.43126 0.0
C677 C 0.91519 0.67189 0.42368 0.0
C678 C 0.90611 0.65747 0.42857 0.0
C679 C 0.8946 0.65342 0.44179 0.0
C680 C 0.86941 0.66095 0.46462 0.0
C681 C 0.85729 0.64998 0.45523 0.0
C682 C 0.84461 0.65037 0.45437 0.0
C683 C 0.84366 0.66172 0.46317 0.0
C684 C 0.85606 0.67305 0.47187 0.0
C685 C 0.86883 0.67272 0.47246 0.0
H686 H 0.38072 0.13262 0.48259 0.0
N687 N 0.36149 0.13803 0.46633 0.0
H688 H 0.37868 0.11971 0.51429 0.0
H689 H 0.3403 0.12966 0.49475 0.0
H690 H 0.33807 0.1166 0.52645 0.0
H691 H 0.33443 0.11518 0.46377 0.0
H692 H 0.32653 0.09517 0.44073 0.0
H693 H 0.37474 0.13714 0.43255 0.0
H694 H 0.36651 0.11758 0.40804 0.0
H695 H 0.38101 0.16408 0.47731 0.0
H696 H 0.33818 0.14002 0.45426 0.0
H697 H 0.37938 0.18566 0.477 0.0
H698 H 0.33671 0.16174 0.4525 0.0
H699 H 0.37675 0.25388 0.47862 0.0
H700 H 0.37624 0.26592 0.50976 0.0
H701 H 0.33748 0.22801 0.52814 0.0
H702 H 0.33755 0.21664 0.49619 0.0
H703 H 0.32908 0.21934 0.4584 0.0
H704 H 0.31964 0.22993 0.43456 0.0
H705 H 0.36247 0.25904 0.41378 0.0
H706 H 0.37153 0.24775 0.4368 0.0
H707 H 0.37913 0.22497 0.45729 0.0
H708 H 0.37973 0.20281 0.4561 0.0
H709 H 0.33472 0.17931 0.47012 0.0
N710 N 0.35713 0.22845 0.46527 0.0
H711 H 0.33414 0.2015 0.46963 0.0
C712 C 0.36069 0.13206 0.48632 0.0
C713 C 0.37152 0.12938 0.49233 0.0
C714 C 0.37033 0.12202 0.51042 0.0
C715 C 0.35817 0.11706 0.5228 0.0
C716 C 0.34749 0.12015 0.51709 0.0
C717 C 0.34878 0.12766 0.49907 0.0
C718 C 0.35535 0.12761 0.45016 0.0
C719 C 0.34148 0.11587 0.45159 0.0
C720 C 0.3369 0.1044 0.43812 0.0
C721 C 0.34592 0.10449 0.42253 0.0
C722 C 0.35937 0.11682 0.42018 0.0
C723 C 0.36405 0.12816 0.43396 0.0
C724 C 0.35987 0.15046 0.46557 0.0
C725 C 0.3713 0.16352 0.47191 0.0
C726 C 0.37037 0.1759 0.4715 0.0
C727 C 0.35799 0.17565 0.46436 0.0
C728 C 0.3464 0.16245 0.45823 0.0
C729 C 0.34727 0.14996 0.45902 0.0
C730 C 0.35735 0.23432 0.48512 0.0
C731 C 0.36825 0.24816 0.48954 0.0
C732 C 0.36795 0.25499 0.50749 0.0
C733 C 0.3568 0.24802 0.52172 0.0
C734 C 0.3461 0.23391 0.51749 0.0
C735 C 0.34625 0.22722 0.49926 0.0
C736 C 0.35101 0.23265 0.44912 0.0
C737 C 0.33633 0.22764 0.44816 0.0
C738 C 0.331 0.23392 0.43473 0.0
C739 C 0.34027 0.24552 0.42228 0.0
C740 C 0.35491 0.25004 0.42277 0.0
C741 C 0.36016 0.24362 0.43597 0.0
C742 C 0.35672 0.21498 0.46392 0.0
C743 C 0.3694 0.215 0.45993 0.0
C744 C 0.36971 0.20227 0.45951 0.0
C745 C 0.35733 0.18913 0.46346 0.0
C746 C 0.34449 0.18912 0.46692 0.0
C747 C 0.34416 0.20189 0.46694 0.0
H748 H 0.80278 0.10444 0.49317 0.0
N749 N 0.80201 0.12485 0.47164 0.0
H750 H 0.79018 0.09361 0.52511 0.0
H751 H 0.78714 0.13393 0.49489 0.0
H752 H 0.77461 0.12329 0.52683 0.0
H753 H 0.77341 0.11494 0.46674 0.0
H754 H 0.75825 0.09817 0.44121 0.0
H755 H 0.81047 0.11853 0.43681 0.0
H756 H 0.79548 0.10294 0.40959 0.0
H757 H 0.8297 0.13398 0.4708 0.0
H758 H 0.79937 0.14843 0.46699 0.0
H759 H 0.84927 0.15845 0.46812 0.0
H760 H 0.81882 0.17315 0.46598 0.0
H761 H 0.90372 0.22535 0.48593 0.0
H762 H 0.91631 0.23659 0.51754 0.0
H763 H 0.88665 0.25138 0.52909 0.0
H764 H 0.87404 0.24 0.49732 0.0
H765 H 0.89282 0.25308 0.45566 0.0
H766 H 0.91276 0.26514 0.4324 0.0
H767 H 0.91183 0.22529 0.42155 0.0
H768 H 0.89277 0.21374 0.44652 0.0
H769 H 0.88117 0.20339 0.48667 0.0
H770 H 0.86177 0.17906 0.48639 0.0
H771 H 0.83734 0.19141 0.44791 0.0
N772 N 0.8812 0.22669 0.46963 0.0
H773 H 0.85663 0.21616 0.44961 0.0
C774 C 0.79598 0.12 0.49169 0.0
C775 C 0.79686 0.10875 0.50068 0.0
C776 C 0.78966 0.1026 0.51891 0.0
C777 C 0.78133 0.10755 0.52845 0.0
C778 C 0.78082 0.11914 0.51974 0.0
C779 C 0.78812 0.12535 0.50158 0.0
C780 C 0.79316 0.11772 0.45415 0.0
C781 C 0.77839 0.11244 0.45436 0.0
C782 C 0.76963 0.10286 0.43938 0.0
C783 C 0.77545 0.0987 0.42332 0.0
C784 C 0.79041 0.10525 0.42206 0.0
C785 C 0.7991 0.11443 0.43746 0.0
C786 C 0.81316 0.13944 0.46947 0.0
C787 C 0.82732 0.14253 0.4696 0.0
C788 C 0.83849 0.15658 0.46828 0.0
C789 C 0.83577 0.16798 0.46719 0.0
C790 C 0.82145 0.16476 0.46664 0.0
C791 C 0.81025 0.15061 0.46754 0.0
C792 C 0.88781 0.23174 0.48937 0.0
C793 C 0.89973 0.23074 0.49547 0.0
C794 C 0.90694 0.23719 0.51355 0.0
C795 C 0.9025 0.24492 0.52577 0.0
C796 C 0.8904 0.24562 0.51988 0.0
C797 C 0.88311 0.23904 0.50188 0.0
C798 C 0.8912 0.23252 0.45286 0.0
C799 C 0.89682 0.24693 0.44801 0.0
C800 C 0.90824 0.2538 0.43448 0.0
C801 C 0.91417 0.24633 0.42487 0.0
C802 C 0.90794 0.23161 0.42891 0.0
C803 C 0.89677 0.22484 0.44301 0.0
C804 C 0.87032 0.21181 0.46843 0.0
C805 C 0.87166 0.20101 0.47828 0.0
C806 C 0.8605 0.1869 0.47786 0.0
C807 C 0.84781 0.18308 0.46715 0.0
C808 C 0.84673 0.19387 0.45673 0.0
C809 C 0.85782 0.20804 0.45748 0.0
H810 H 0.02053 0.56996 0.21352 0.0
N811 N 0.99688 0.54827 0.23191 0.0
H812 H 0.02114 0.58207 0.18189 0.0
H813 H 0.9754 0.54169 0.20628 0.0
H814 H 0.97592 0.5539 0.17439 0.0
H815 H 0.98075 0.55622 0.25192 0.0
H816 H 0.98849 0.57593 0.276 0.0
H817 H 0.02345 0.56322 0.24912 0.0
H818 H 0.03128 0.58275 0.2736 0.0
H819 H 0.02049 0.54838 0.21602 0.0
H820 H 0.9817 0.52305 0.24982 0.0
H821 H 0.02499 0.52862 0.21565 0.0
H822 H 0.98654 0.50331 0.25061 0.0
H823 H 0.03702 0.47241 0.19861 0.0
H824 H 0.03452 0.45907 0.16725 0.0
H825 H 0.98915 0.43394 0.1776 0.0
H826 H 0.99191 0.44715 0.2092 0.0
H827 H 0.99606 0.44426 0.24533 0.0
H828 H 0.99979 0.42899 0.26917 0.0
H829 H 0.045 0.4591 0.2688 0.0
H830 H 0.04112 0.47383 0.24426 0.0
H831 H 0.03606 0.49481 0.23072 0.0
H832 H 0.03177 0.51479 0.23437 0.0
H833 H 0.98643 0.48555 0.23017 0.0
N834 N 0.01679 0.46743 0.2258 0.0
H835 H 0.99096 0.46565 0.2278 0.0
C836 C 0.99788 0.55475 0.21222 0.0
C837 C 0.01078 0.56615 0.20495 0.0
C838 C 0.01112 0.5731 0.1868 0.0
C839 C 0.99858 0.56895 0.17563 0.0
C840 C 0.98574 0.55741 0.18274 0.0
C841 C 0.98544 0.55037 0.20083 0.0
C842 C 1.00145 0.5582 0.24873 0.0
C843 C 0.99172 0.56178 0.25698 0.0
C844 C 0.99619 0.57305 0.27078 0.0
C845 C 0.01056 0.58104 0.27668 0.0
C846 C 0.02019 0.57699 0.26915 0.0
C847 C 0.01569 0.5657 0.25528 0.0
C848 C 1.00056 0.53717 0.23272 0.0
C849 C 0.01296 0.53862 0.22355 0.0
C850 C 0.01561 0.52725 0.22355 0.0
C851 C 1.00611 0.51422 0.23303 0.0
C852 C 0.99397 0.51301 0.24276 0.0
C853 C 0.99124 0.52433 0.24251 0.0
C854 C 0.01468 0.46083 0.20608 0.0
C855 C 0.02653 0.4642 0.19384 0.0
C856 C 0.02505 0.45656 0.17592 0.0
C857 C 0.01162 0.44536 0.16989 0.0
C858 C 0.99966 0.44235 0.18191 0.0
C859 C 1.00119 0.45 0.19987 0.0
C860 C 0.01836 0.46008 0.24297 0.0
C861 C 0.00671 0.44763 0.25071 0.0
C862 C 0.00888 0.43896 0.2644 0.0
C863 C 0.02274 0.44266 0.27065 0.0
C864 C 0.03422 0.45571 0.26394 0.0
C865 C 0.03204 0.46425 0.25014 0.0
C866 C 0.01385 0.47883 0.22883 0.0
C867 C 0.02521 0.49278 0.23082 0.0
C868 C 0.02271 0.50419 0.23269 0.0
C869 C 0.00874 0.50192 0.23234 0.0
C870 C 0.99734 0.48779 0.23074 0.0
C871 C 0.99988 0.47636 0.22916 0.0
H872 H 0.58808 0.55276 0.2212 0.0
N873 N 0.56191 0.54424 0.2343 0.0
H874 H 0.59935 0.56569 0.18996 0.0
H875 H 0.54857 0.54992 0.20329 0.0
H876 H 0.5594 0.56204 0.17112 0.0
H877 H 0.55416 0.56452 0.238 0.0
H878 H 0.56496 0.58505 0.26082 0.0
H879 H 0.57944 0.54843 0.26519 0.0
H880 H 0.591 0.56931 0.2873 0.0
H881 H 0.55591 0.5188 0.22083 0.0
H882 H 0.53626 0.54079 0.2485 0.0
H883 H 0.5331 0.49676 0.22091 0.0
H884 H 0.5136 0.51864 0.24981 0.0
H885 H 0.46659 0.42823 0.21922 0.0
H886 H 0.45506 0.41673 0.18703 0.0
H887 H 0.44653 0.45094 0.1749 0.0
H888 H 0.45848 0.46249 0.20657 0.0
H889 H 0.44633 0.45622 0.23872 0.0
H890 H 0.42648 0.44412 0.26229 0.0
H891 H 0.44888 0.42593 0.29337 0.0
H892 H 0.46819 0.43727 0.2685 0.0
H893 H 0.49497 0.45623 0.2414 0.0
H894 H 0.51726 0.47888 0.2422 0.0
H895 H 0.49393 0.50104 0.23187 0.0
N896 N 0.46895 0.4518 0.23534 0.0
H897 H 0.47161 0.47824 0.23261 0.0
C898 C 0.56751 0.55027 0.21447 0.0
C899 C 0.58176 0.55464 0.21018 0.0
C900 C 0.58814 0.56197 0.19218 0.0
C901 C 0.58034 0.56495 0.17776 0.0
C902 C 0.56587 0.5602 0.18191 0.0
C903 C 0.55956 0.55307 0.20019 0.0
C904 C 0.56585 0.55481 0.25015 0.0
C905 C 0.56179 0.56524 0.24927 0.0
C906 C 0.56821 0.57713 0.26212 0.0
C907 C 0.57908 0.57906 0.27579 0.0
C908 C 0.58258 0.56821 0.27725 0.0
C909 C 0.57599 0.55622 0.26461 0.0
C910 C 0.548 0.53151 0.23476 0.0
C911 C 0.54669 0.51884 0.22711 0.0
C912 C 0.5336 0.50618 0.22738 0.0
C913 C 0.5214 0.50573 0.23569 0.0
C914 C 0.52266 0.51851 0.24314 0.0
C915 C 0.53577 0.53127 0.24254 0.0
C916 C 0.46343 0.44619 0.21533 0.0
C917 C 0.46243 0.43332 0.20939 0.0
C918 C 0.4557 0.42671 0.1911 0.0
C919 C 0.44972 0.43282 0.17839 0.0
C920 C 0.45113 0.44598 0.18413 0.0
C921 C 0.45793 0.45261 0.20238 0.0
C922 C 0.45865 0.44742 0.25162 0.0
C923 C 0.44702 0.44973 0.25068 0.0
C924 C 0.43566 0.44283 0.2644 0.0
C925 C 0.43582 0.43373 0.27968 0.0
C926 C 0.44806 0.43242 0.28149 0.0
C927 C 0.45926 0.43909 0.26749 0.0
C928 C 0.4817 0.46552 0.23662 0.0
C929 C 0.49471 0.46601 0.23948 0.0
C930 C 0.50747 0.47901 0.23968 0.0
C931 C 0.50756 0.49193 0.23666 0.0
C932 C 0.49437 0.4914 0.23431 0.0
C933 C 0.48155 0.47833 0.23446 0.0
H934 H 0.54533 0.97167 0.20252 0.0
N935 N 0.54447 0.99094 0.22643 0.0
H936 H 0.55952 0.97579 0.17155 0.0
H937 H 0.56068 0.01661 0.20757 0.0
H938 H 0.57504 0.02093 0.1765 0.0
H939 H 0.56834 0.0142 0.24143 0.0
H940 H 0.5846 0.01384 0.26697 0.0
H941 H 0.53987 0.96933 0.25049 0.0
H942 H 0.55612 0.96879 0.27591 0.0
H943 H 0.52013 0.97982 0.20603 0.0
H944 H 0.54505 0.01225 0.25033 0.0
H945 H 0.50185 0.98656 0.20738 0.0
H946 H 0.52641 0.01839 0.25297 0.0
H947 H 0.444 0.99597 0.21832 0.0
H948 H 0.43113 0.99406 0.18714 0.0
H949 H 0.46588 0.03466 0.16698 0.0
H950 H 0.47816 0.03694 0.19928 0.0
H951 H 0.46363 0.03813 0.24755 0.0
H952 H 0.44523 0.03391 0.27272 0.0
H953 H 0.435 0.99008 0.27792 0.0
H954 H 0.45355 0.99449 0.25338 0.0
H955 H 0.46514 0.9923 0.22491 0.0
H956 H 0.48339 0.98552 0.22572 0.0
H957 H 0.51528 0.02935 0.23763 0.0
N958 N 0.46907 0.01906 0.23086 0.0
H959 H 0.49663 0.03569 0.23841 0.0
C960 C 0.55198 0.99379 0.20728 0.0
C961 C 0.55165 0.98241 0.19672 0.0
C962 C 0.55974 0.98481 0.17903 0.0
C963 C 0.56842 0.9987 0.17156 0.0
C964 C 0.56856 0.01013 0.18199 0.0
C965 C 0.56035 0.00768 0.19967 0.0
C966 C 0.55284 0.99173 0.24406 0.0
C967 C 0.56544 1.00432 0.24921 0.0
C968 C 0.57479 1.00407 0.26373 0.0
C969 C 0.57176 0.99126 0.27338 0.0
C970 C 0.55876 0.97888 0.26898 0.0
C971 C 0.54944 0.97914 0.25445 0.0
C972 C 0.53397 0.9954 0.22806 0.0
C973 C 0.52158 0.98831 0.21623 0.0
C974 C 0.51103 0.99209 0.21724 0.0
C975 C 0.51243 1.00296 0.23049 0.0
C976 C 0.52492 0.0101 0.24237 0.0
C977 C 0.53564 0.00648 0.24101 0.0
C978 C 0.46198 0.0168 0.21138 0.0
C979 C 0.44886 0.0045 0.20729 0.0
C980 C 0.44154 1.00335 0.18917 0.0
C981 C 0.44732 0.01426 0.17437 0.0
C982 C 0.46083 0.0262 0.17813 0.0
C983 C 0.46799 0.02748 0.19649 0.0
C984 C 0.46007 0.01672 0.24845 0.0
C985 C 0.45766 0.02773 0.25457 0.0
C986 C 0.44702 0.02523 0.26878 0.0
C987 C 0.43846 0.01159 0.27717 0.0
C988 C 0.44143 1.00075 0.27193 0.0
C989 C 0.45211 1.00328 0.25775 0.0
C990 C 0.47948 0.0145 0.23205 0.0
C991 C 0.47599 1.00037 0.22824 0.0
C992 C 0.48657 0.99657 0.22833 0.0
C993 C 0.50099 0.00687 0.23162 0.0
C994 C 0.50437 0.021 0.23544 0.0
C995 C 0.49372 0.02471 0.23577 0.0
H996 H 0.43331 0.97151 0.81417 0.0
N997 N 0.45701 0.99337 0.79942 0.0
H998 H 0.42126 0.97036 0.84637 0.0
H999 H 0.46753 0.01321 0.83034 0.0
H1000 H 0.45542 0.01246 0.86186 0.0
H1001 H 0.45882 0.01955 0.8003 0.0
H1002 H 0.44584 0.02726 0.77818 0.0
H1003 H 0.44353 0.98115 0.76481 0.0
H1004 H 0.43087 0.98915 0.74206 0.0
H1005 H 0.4657 0.97465 0.79452 0.0
H1006 H 0.48134 0.01958 0.80071 0.0
H1007 H 0.49009 0.97912 0.79316 0.0
H1008 H 0.5057 0.02416 0.80104 0.0
H1009 H 0.5562 0.98965 0.81733 0.0
H1010 H 0.56655 0.98641 0.84854 0.0
H1011 H 0.58207 0.03042 0.86451 0.0
H1012 H 0.5713 0.0334 0.83341 0.0
H1013 H 0.57918 0.03767 0.78656 0.0
H1014 H 0.5959 0.03889 0.76039 0.0
H1015 H 0.57286 0.99303 0.75596 0.0
H1016 H 0.55584 0.99197 0.78176 0.0
H1017 H 0.53425 0.98956 0.81442 0.0
H1018 H 0.50987 0.98473 0.8125 0.0
H1019 H 0.52457 0.0255 0.78319 0.0
N1020 N 0.5583 0.01448 0.80378 0.0
H1021 H 0.54908 0.03062 0.78668 0.0
C1022 C 0.45131 0.99237 0.81972 0.0
C1023 C 0.4383 0.98033 0.82478 0.0
C1024 C 0.43136 0.97979 0.84308 0.0
C1025 C 0.43726 0.99138 0.8567 0.0
C1026 C 0.4506 1.00324 0.85194 0.0
C1027 C 0.45756 1.00371 0.83372 0.0
C1028 C 0.45201 0.99961 0.78438 0.0
C1029 C 0.45296 0.0129 0.78752 0.0
C1030 C 0.4455 0.01731 0.77488 0.0
C1031 C 0.43726 0.00872 0.75857 0.0
C1032 C 0.43717 0.99597 0.75452 0.0
C1033 C 0.44441 0.99141 0.76744 0.0
C1034 C 0.47163 0.99669 0.79797 0.0
C1035 C 0.47444 0.98549 0.79574 0.0
C1036 C 0.48844 0.98808 0.7952 0.0
C1037 C 0.50006 1.00202 0.79723 0.0
C1038 C 0.49717 0.01329 0.79915 0.0
C1039 C 0.48314 0.01068 0.79927 0.0
C1040 C 0.56289 0.01179 0.82312 0.0
C1041 C 0.56161 0.99853 0.82769 0.0
C1042 C 0.56767 0.99673 0.8455 0.0
C1043 C 0.57523 0.00816 0.85905 0.0
C1044 C 0.57617 0.02131 0.85463 0.0
C1045 C 0.57005 0.02307 0.83685 0.0
C1046 C 0.56642 0.01477 0.7862 0.0
C1047 C 0.57755 0.02792 0.77954 0.0
C1048 C 0.58707 0.02858 0.76461 0.0
C1049 C 0.58573 0.01604 0.75622 0.0
C1050 C 0.5742 1.00285 0.76231 0.0
C1051 C 0.5645 1.00222 0.77703 0.0
C1052 C 0.5436 0.01061 0.80097 0.0
C1053 C 0.53228 0.99749 0.80764 0.0
C1054 C 0.51821 0.99468 0.8063 0.0
C1055 C 0.51506 0.00475 0.79781 0.0
C1056 C 0.52645 0.0176 0.79034 0.0
C1057 C 0.54051 0.02051 0.79208 0.0
H1058 H 0.98099 0.54497 0.83106 0.0
N1059 N 1.00134 0.54841 0.80521 0.0
H1060 H 0.9836 0.55844 0.86232 0.0
H1061 H 0.02648 0.56789 0.82286 0.0
H1062 H 0.02928 0.58118 0.85428 0.0
H1063 H 0.02445 0.57065 0.78715 0.0
H1064 H 0.02379 0.58671 0.7613 0.0
H1065 H 0.97884 0.54452 0.78402 0.0
H1066 H 0.97803 0.56033 0.75805 0.0
H1067 H 0.98265 0.52083 0.80238 0.0
H1068 H 0.02762 0.55084 0.80279 0.0
H1069 H 0.98746 0.50113 0.80018 0.0
H1070 H 0.03267 0.53129 0.8019 0.0
H1071 H 0.99961 0.44708 0.82217 0.0
H1072 H 0.99924 0.43477 0.85345 0.0
H1073 H 0.04451 0.46294 0.86044 0.0
H1074 H 0.04479 0.47531 0.82886 0.0
H1075 H 0.03906 0.46042 0.78354 0.0
H1076 H 0.03104 0.44047 0.75983 0.0
H1077 H 0.9884 0.43406 0.76242 0.0
H1078 H 0.99651 0.45382 0.78654 0.0
H1079 H 0.99991 0.46886 0.82034 0.0
H1080 H 0.99508 0.48838 0.81985 0.0
H1081 H 0.03257 0.513 0.7827 0.0
N1082 N 0.02317 0.4687 0.80349 0.0
H1083 H 0.03776 0.49352 0.78432 0.0
C1084 C 1.00348 0.55534 0.82471 0.0
C1085 C 0.99156 0.55271 0.83628 0.0
C1086 C 0.9931 0.56041 0.85415 0.0
C1087 C 0.00667 0.57094 0.86083 0.0
C1088 C 0.01866 0.57329 0.84945 0.0
C1089 C 0.01709 0.56557 0.83154 0.0
C1090 C 1.00164 0.55645 0.78755 0.0
C1091 C 0.01433 0.56822 0.78062 0.0
C1092 C 0.01392 0.57741 0.7659 0.0
C1093 C 1.00085 0.57484 0.7577 0.0
C1094 C 0.98829 0.56256 0.76387 0.0
C1095 C 0.9887 0.55351 0.77869 0.0
C1096 C 1.00473 0.53724 0.80301 0.0
C1097 C 0.99358 0.52312 0.80209 0.0
C1098 C 0.99638 0.51188 0.80105 0.0
C1099 C 0.01048 0.5145 0.80115 0.0
C1100 C 0.02167 0.52877 0.80162 0.0
C1101 C 0.01882 0.54003 0.80238 0.0
C1102 C 0.02227 0.46229 0.82321 0.0
C1103 C 0.00943 0.45086 0.83058 0.0
C1104 C 0.00922 0.44379 0.84853 0.0
C1105 C 0.02185 0.44785 0.85943 0.0
C1106 C 0.03462 0.45947 0.85229 0.0
C1107 C 0.03479 0.46663 0.83439 0.0
C1108 C 0.01846 0.45865 0.7868 0.0
C1109 C 0.02806 0.4549 0.77859 0.0
C1110 C 0.02343 0.44349 0.765 0.0
C1111 C 0.00903 0.43555 0.75929 0.0
C1112 C 0.99952 0.43979 0.76674 0.0
C1113 C 1.00418 0.4512 0.7804 0.0
C1114 C 0.0194 0.47974 0.80258 0.0
C1115 C 0.00719 0.47842 0.81218 0.0
C1116 C 1.00432 0.48965 0.81167 0.0
C1117 C 0.01343 0.50241 0.80126 0.0
C1118 C 0.02544 0.50352 0.79123 0.0
C1119 C 0.02838 0.49234 0.79197 0.0
H1120 H 0.47787 0.44491 0.8332 0.0
N1121 N 0.47303 0.46013 0.80595 0.0
H1122 H 0.46441 0.43392 0.86443 0.0
H1123 H 0.45219 0.46429 0.82235 0.0
H1124 H 0.43893 0.45372 0.85373 0.0
H1125 H 0.45161 0.46169 0.78643 0.0
H1126 H 0.43551 0.44484 0.76071 0.0
H1127 H 0.47611 0.44041 0.7865 0.0
H1128 H 0.46031 0.42371 0.76061 0.0
H1129 H 0.50041 0.46925 0.79956 0.0
H1130 H 0.47038 0.48392 0.80607 0.0
H1131 H 0.51983 0.49381 0.79621 0.0
H1132 H 0.48972 0.50856 0.80404 0.0
H1133 H 0.57336 0.56073 0.82073 0.0
H1134 H 0.58445 0.57154 0.85313 0.0
H1135 H 0.55469 0.58666 0.86082 0.0
H1136 H 0.54355 0.57572 0.82804 0.0
H1137 H 0.55738 0.58569 0.78197 0.0
H1138 H 0.57704 0.59922 0.75825 0.0
H1139 H 0.58865 0.56654 0.76202 0.0
H1140 H 0.56866 0.55291 0.78521 0.0
H1141 H 0.55286 0.53877 0.81541 0.0
H1142 H 0.53365 0.51423 0.81531 0.0
H1143 H 0.50674 0.52687 0.78363 0.0
N1144 N 0.55147 0.56212 0.80196 0.0
H1145 H 0.52594 0.55169 0.78493 0.0
C1146 C 0.46615 0.45548 0.82552 0.0
C1147 C 0.46954 0.44705 0.83784 0.0
C1148 C 0.46183 0.44081 0.8557 0.0
C1149 C 0.45052 0.44288 0.86161 0.0
C1150 C 0.44743 0.45173 0.84951 0.0
C1151 C 0.45514 0.45794 0.83162 0.0
C1152 C 0.46498 0.45217 0.78844 0.0
C1153 C 0.45365 0.45354 0.78066 0.0
C1154 C 0.44445 0.44389 0.76601 0.0
C1155 C 0.44659 0.4329 0.75869 0.0
C1156 C 0.45843 0.43212 0.76574 0.0
C1157 C 0.46747 0.44163 0.78053 0.0
C1158 C 0.48402 0.47475 0.80333 0.0
C1159 C 0.49806 0.47783 0.80038 0.0
C1160 C 0.50915 0.49191 0.79867 0.0
C1161 C 0.50648 0.50332 0.80011 0.0
C1162 C 0.49226 0.50014 0.80265 0.0
C1163 C 0.48114 0.486 0.80407 0.0
C1164 C 0.55746 0.56729 0.82197 0.0
C1165 C 0.56899 0.56612 0.82945 0.0
C1166 C 0.57536 0.57233 0.84807 0.0
C1167 C 0.57045 0.57996 0.85958 0.0
C1168 C 0.55879 0.58095 0.85223 0.0
C1169 C 0.55235 0.57463 0.83363 0.0
C1170 C 0.56154 0.56835 0.78542 0.0
C1171 C 0.56397 0.58131 0.77725 0.0
C1172 C 0.57532 0.58909 0.76389 0.0
C1173 C 0.58461 0.5841 0.75846 0.0
C1174 C 0.5817 0.57069 0.76578 0.0
C1175 C 0.57027 0.56288 0.77912 0.0
C1176 C 0.54082 0.54722 0.8004 0.0
C1177 C 0.54288 0.53636 0.80846 0.0
C1178 C 0.53182 0.52218 0.80819 0.0
C1179 C 0.51848 0.51842 0.79955 0.0
C1180 C 0.51668 0.52929 0.79084 0.0
C1181 C 0.5277 0.54349 0.79135 0.0
H1182 H 0.70451 0.90733 0.53823 0.0
N1183 N 0.68443 0.89005 0.56414 0.0
H1184 H 0.70146 0.91774 0.50679 0.0
H1185 H 0.65905 0.88389 0.54676 0.0
H1186 H 0.65583 0.89393 0.51518 0.0
H1187 H 0.66147 0.88948 0.58223 0.0
H1188 H 0.66234 0.90595 0.60865 0.0
H1189 H 0.70698 0.90813 0.58573 0.0
H1190 H 0.70799 0.92449 0.61229 0.0
H1191 H 0.70316 0.88115 0.56554 0.0
H1192 H 0.65822 0.86621 0.56757 0.0
H1193 H 0.69839 0.85665 0.56718 0.0
H1194 H 0.65317 0.8416 0.56783 0.0
H1195 H 0.68626 0.79058 0.54473 0.0
H1196 H 0.68677 0.77913 0.51305 0.0
H1197 H 0.64159 0.76241 0.50556 0.0
H1198 H 0.64115 0.77394 0.53764 0.0
H1199 H 0.64698 0.76418 0.58311 0.0
H1200 H 0.6552 0.75236 0.60673 0.0
H1201 H 0.69765 0.78889 0.60422 0.0
H1202 H 0.68935 0.80045 0.58025 0.0
H1203 H 0.68556 0.81205 0.5461 0.0
H1204 H 0.69039 0.83638 0.54728 0.0
H1205 H 0.65361 0.82329 0.58609 0.0
N1206 N 0.66264 0.78852 0.56341 0.0
H1207 H 0.64837 0.79862 0.58375 0.0
C1208 C 0.68207 0.89481 0.54476 0.0
C1209 C 0.69386 0.90425 0.53308 0.0
C1210 C 0.69207 0.91014 0.51511 0.0
C1211 C 0.67838 0.90668 0.50843 0.0
C1212 C 0.66652 0.89696 0.52 0.0
C1213 C 0.66835 0.89109 0.53801 0.0
C1214 C 0.68422 0.89769 0.58196 0.0
C1215 C 0.67161 0.89694 0.58895 0.0
C1216 C 0.67214 0.90639 0.60399 0.0
C1217 C 0.68525 0.91659 0.61249 0.0
C1218 C 0.69771 0.9167 0.60624 0.0
C1219 C 0.69718 0.90738 0.59107 0.0
C1220 C 0.68109 0.87549 0.56616 0.0
C1221 C 0.69224 0.87252 0.56624 0.0
C1222 C 0.68945 0.85847 0.56695 0.0
C1223 C 0.67536 0.84699 0.56732 0.0
C1224 C 0.66417 0.85007 0.56772 0.0
C1225 C 0.66701 0.86418 0.56731 0.0
C1226 C 0.66362 0.78322 0.54355 0.0
C1227 C 0.67648 0.78469 0.53618 0.0
C1228 C 0.67677 0.77812 0.51797 0.0
C1229 C 0.66422 0.76983 0.50677 0.0
C1230 C 0.65142 0.76861 0.51393 0.0
C1231 C 0.65116 0.77528 0.53212 0.0
C1232 C 0.66747 0.78316 0.57992 0.0
C1233 C 0.65798 0.76974 0.58805 0.0
C1234 C 0.66272 0.76302 0.60158 0.0
C1235 C 0.67713 0.76962 0.60729 0.0
C1236 C 0.68652 0.78341 0.5999 0.0
C1237 C 0.68176 0.79011 0.58632 0.0
C1238 C 0.66639 0.80332 0.56461 0.0
C1239 C 0.67843 0.81428 0.55476 0.0
C1240 C 0.6813 0.82836 0.55567 0.0
C1241 C 0.6724 0.83195 0.56677 0.0
C1242 C 0.66057 0.82099 0.57704 0.0
C1243 C 0.65761 0.80687 0.57588 0.0
H1244 H 0.25604 0.88628 0.55244 0.0
N1245 N 0.23053 0.87966 0.56648 0.0
H1246 H 0.26756 0.89917 0.52126 0.0
H1247 H 0.21787 0.88679 0.536 0.0
H1248 H 0.2288 0.89867 0.50402 0.0
H1249 H 0.22358 0.90028 0.57279 0.0
H1250 H 0.23584 0.9206 0.59609 0.0
H1251 H 0.24863 0.88264 0.59589 0.0
H1252 H 0.26097 0.90289 0.61921 0.0
H1253 H 0.2266 0.8538 0.57244 0.0
H1254 H 0.20383 0.87653 0.56491 0.0
H1255 H 0.20415 0.83136 0.57452 0.0
H1256 H 0.18123 0.85407 0.56539 0.0
H1257 H 0.12938 0.75985 0.55666 0.0
H1258 H 0.11622 0.74876 0.52553 0.0
H1259 H 0.12041 0.78901 0.50703 0.0
H1260 H 0.13268 0.79965 0.53915 0.0
H1261 H 0.11768 0.79292 0.57477 0.0
H1262 H 0.09757 0.7813 0.59849 0.0
H1263 H 0.116 0.75763 0.62458 0.0
H1264 H 0.13613 0.7694 0.60087 0.0
H1265 H 0.16388 0.79209 0.55566 0.0
H1266 H 0.18581 0.81498 0.55469 0.0
H1267 H 0.16417 0.83463 0.58394 0.0
N1268 N 0.1386 0.78617 0.5697 0.0
H1269 H 0.14206 0.81182 0.58354 0.0
C1270 C 0.23606 0.88539 0.54652 0.0
C1271 C 0.25001 0.88882 0.54175 0.0
C1272 C 0.25655 0.89615 0.52379 0.0
C1273 C 0.24918 0.90006 0.50988 0.0
C1274 C 0.23497 0.89615 0.51442 0.0
C1275 C 0.22856 0.88909 0.53266 0.0
C1276 C 0.23517 0.88992 0.58277 0.0
C1277 C 0.23138 0.90055 0.58337 0.0
C1278 C 0.23844 0.91218 0.59664 0.0
C1279 C 0.24949 0.91342 0.60932 0.0
C1280 C 0.25264 0.90233 0.60945 0.0
C1281 C 0.24552 0.8907 0.59633 0.0
C1282 C 0.21693 0.86678 0.56816 0.0
C1283 C 0.21669 0.85388 0.57102 0.0
C1284 C 0.2038 0.84104 0.57197 0.0
C1285 C 0.19071 0.84071 0.56971 0.0
C1286 C 0.19099 0.85378 0.56729 0.0
C1287 C 0.20397 0.86669 0.56673 0.0
C1288 C 0.13214 0.78056 0.5501 0.0
C1289 C 0.12753 0.76627 0.54576 0.0
C1290 C 0.12007 0.75999 0.52781 0.0
C1291 C 0.11725 0.76795 0.51347 0.0
C1292 C 0.12214 0.78243 0.51774 0.0
C1293 C 0.12936 0.78862 0.53599 0.0
C1294 C 0.1285 0.78211 0.58624 0.0
C1295 C 0.11765 0.78562 0.58609 0.0
C1296 C 0.10612 0.77893 0.59961 0.0
C1297 C 0.10514 0.76845 0.61328 0.0
C1298 C 0.1164 0.76555 0.6141 0.0
C1299 C 0.12796 0.77236 0.60074 0.0
C1300 C 0.15131 0.80007 0.56983 0.0
C1301 C 0.16388 0.80136 0.56182 0.0
C1302 C 0.17648 0.8145 0.56149 0.0
C1303 C 0.17698 0.82678 0.56955 0.0
C1304 C 0.16428 0.82551 0.57742 0.0
C1305 C 0.15156 0.81235 0.5774 0.0
H1306 H 0.21294 0.30851 0.5433 0.0
N1307 N 0.21349 0.32928 0.56559 0.0
H1308 H 0.22632 0.31091 0.51192 0.0
H1309 H 0.22898 0.35373 0.5435 0.0
H1310 H 0.24233 0.35624 0.51219 0.0
H1311 H 0.24135 0.34931 0.57301 0.0
H1312 H 0.25677 0.34722 0.59769 0.0
H1313 H 0.20516 0.31203 0.59796 0.0
H1314 H 0.22022 0.31071 0.62449 0.0
H1315 H 0.18568 0.31129 0.56513 0.0
H1316 H 0.21677 0.35567 0.57162 0.0
H1317 H 0.1665 0.31678 0.56756 0.0
H1318 H 0.19776 0.36158 0.57243 0.0
H1319 H 0.11372 0.33107 0.54916 0.0
H1320 H 0.10195 0.33055 0.5173 0.0
H1321 H 0.13173 0.37529 0.50832 0.0
H1322 H 0.14353 0.37575 0.5406 0.0
H1323 H 0.12798 0.37082 0.58622 0.0
H1324 H 0.10799 0.36331 0.60975 0.0
H1325 H 0.101 0.32044 0.60862 0.0
H1326 H 0.12082 0.32803 0.58468 0.0
H1327 H 0.13591 0.33142 0.54874 0.0
H1328 H 0.15488 0.32589 0.54926 0.0
H1329 H 0.17907 0.36138 0.58999 0.0
N1330 N 0.13603 0.35445 0.56706 0.0
H1331 H 0.16022 0.36748 0.58813 0.0
C1332 C 0.2199 0.33087 0.54572 0.0
C1333 C 0.21912 0.3189 0.53632 0.0
C1334 C 0.22676 0.32031 0.51842 0.0
C1335 C 0.23546 0.33379 0.50965 0.0
C1336 C 0.23585 0.34574 0.51871 0.0
C1337 C 0.22809 0.34429 0.53652 0.0
C1338 C 0.2221 0.33049 0.58314 0.0
C1339 C 0.23661 0.34086 0.58418 0.0
C1340 C 0.24548 0.33972 0.59866 0.0
C1341 C 0.23997 0.3285 0.61301 0.0
C1342 C 0.22512 0.31912 0.61325 0.0
C1343 C 0.21636 0.31999 0.59829 0.0
C1344 C 0.20259 0.33305 0.56781 0.0
C1345 C 0.18832 0.32227 0.56688 0.0
C1346 C 0.17738 0.32549 0.56805 0.0
C1347 C 0.18045 0.3397 0.56982 0.0
C1348 C 0.19486 0.35051 0.57121 0.0
C1349 C 0.20582 0.3472 0.57045 0.0
C1350 C 0.12966 0.35349 0.54727 0.0
C1351 C 0.1179 0.34075 0.54029 0.0
C1352 C 0.11116 0.34045 0.52197 0.0
C1353 C 0.11591 0.35288 0.51024 0.0
C1354 C 0.12776 0.36557 0.51709 0.0
C1355 C 0.13458 0.36583 0.5354 0.0
C1356 C 0.12594 0.35006 0.5837 0.0
C1357 C 0.12232 0.35988 0.59146 0.0
C1358 C 0.11089 0.35555 0.60494 0.0
C1359 C 0.10277 0.34122 0.61101 0.0
C1360 C 0.10687 0.33151 0.60402 0.0
C1361 C 0.11831 0.33586 0.59047 0.0
C1362 C 0.14666 0.35012 0.56817 0.0
C1363 C 0.14526 0.33814 0.5577 0.0
C1364 C 0.15618 0.33484 0.55824 0.0
C1365 C 0.16868 0.34316 0.56966 0.0
C1366 C 0.16982 0.35486 0.58064 0.0
C1367 C 0.15898 0.35831 0.57978 0.0
H1368 H 0.98767 0.38194 0.07182 0.0
H1369 H 0.03352 0.40813 0.07004 0.0
H1370 H 0.98691 0.39617 0.10031 0.0
H1371 H 0.03272 0.42216 0.0984 0.0
H1372 H 0.02536 0.45413 0.13303 0.0
H1373 H 0.02465 0.4394 0.10443 0.0
H1374 H 0.99413 0.4017 0.13685 0.0
H1375 H 0.99494 0.4164 0.16563 0.0
C1376 C 0.99758 0.39064 0.07756 0.0
C1377 C 0.01065 0.3939 0.06856 0.0
C1378 C 0.99714 0.39878 0.0939 0.0
C1379 C 0.00974 0.41039 0.10148 0.0
C1380 C 0.02279 0.41346 0.09269 0.0
C1381 C 0.02325 0.40531 0.0765 0.0
C1382 C 0.01852 0.4427 0.13412 0.0
C1383 C 0.01029 0.43647 0.15173 0.0
C1384 C 0.01811 0.43425 0.11771 0.0
C1385 C 0.00942 0.41936 0.11844 0.0
C1386 C 1.00084 0.41314 0.13575 0.0
C1387 C 1.00129 0.4216 0.15222 0.0
H1388 H 0.62784 0.60012 0.06378 0.0
H1389 H 0.61994 0.63276 0.08704 0.0
H1390 H 0.61492 0.58487 0.09252 0.0
H1391 H 0.60781 0.61797 0.11655 0.0
H1392 H 0.57514 0.58415 0.15745 0.0
H1393 H 0.58719 0.59834 0.12763 0.0
H1394 H 0.61488 0.58035 0.12678 0.0
H1395 H 0.60189 0.56512 0.15524 0.0
C1396 C 0.62356 0.60414 0.07528 0.0
C1397 C 0.62489 0.61763 0.07314 0.0
C1398 C 0.61617 0.59541 0.09188 0.0
C1399 C 0.61019 0.60007 0.10703 0.0
C1400 C 0.61189 0.61377 0.10505 0.0
C1401 C 0.619 0.62236 0.08821 0.0
C1402 C 0.58356 0.58292 0.15065 0.0
C1403 C 0.58748 0.57341 0.15898 0.0
C1404 C 0.59072 0.59134 0.13369 0.0
C1405 C 0.60221 0.59071 0.12474 0.0
C1406 C 0.60603 0.5811 0.13296 0.0
C1407 C 0.59868 0.57248 0.14965 0.0
H1408 H 0.39811 0.02693 0.07877 0.0
H1409 H 0.39934 0.98944 0.05992 0.0
H1410 H 0.412 0.02875 0.1091 0.0
H1411 H 0.41401 0.99174 0.08923 0.0
H1412 H 0.42865 0.9903 0.15274 0.0
H1413 H 0.41422 0.98863 0.12362 0.0
H1414 H 0.4339 0.03451 0.1223 0.0
H1415 H 0.4472 0.03607 0.15286 0.0
C1416 C 0.40149 0.01917 0.08103 0.0
C1417 C 0.39754 0.00798 0.06709 0.0
C1418 C 0.40958 0.02026 0.09835 0.0
C1419 C 0.4142 0.01037 0.10186 0.0
C1420 C 0.4104 0.99935 0.08755 0.0
C1421 C 0.40204 0.99807 0.07057 0.0
C1422 C 0.42975 1.00006 0.14657 0.0
C1423 C 0.43913 0.01332 0.15546 0.0
C1424 C 0.42161 0.99912 0.12946 0.0
C1425 C 0.42283 0.01144 0.12031 0.0
C1426 C 0.4324 0.02473 0.12898 0.0
C1427 C 0.44031 0.02565 0.14639 0.0
H1428 H 0.37678 0.9757 0.95601 0.0
H1429 H 0.40953 0.01987 0.96142 0.0
H1430 H 0.38919 0.97311 0.92655 0.0
H1431 H 0.42186 0.01723 0.93207 0.0
H1432 H 0.44787 1.00242 0.89469 0.0
H1433 H 0.43497 1.00416 0.92404 0.0
H1434 H 0.39559 0.98217 0.89031 0.0
H1435 H 0.40848 0.98075 0.86071 0.0
C1436 C 0.38658 0.98487 0.95089 0.0
C1437 C 0.39215 0.99799 0.9611 0.0
C1438 C 0.39366 0.98338 0.93398 0.0
C1439 C 0.40655 0.99494 0.92709 0.0
C1440 C 0.41205 0.00808 0.93719 0.0
C1441 C 0.40491 0.00961 0.95392 0.0
C1442 C 0.43648 0.99803 0.89342 0.0
C1443 C 0.42927 0.99149 0.87521 0.0
C1444 C 0.42909 0.99901 0.91028 0.0
C1445 C 0.41428 0.99337 0.90944 0.0
C1446 C 0.40699 0.9865 0.89148 0.0
C1447 C 0.41439 0.98564 0.87454 0.0
H1448 H 0.99486 0.385 0.95629 0.0
H1449 H 0.04059 0.4088 0.96313 0.0
H1450 H 0.99659 0.39962 0.92704 0.0
H1451 H 0.0423 0.42373 0.93416 0.0
H1452 H 0.04069 0.43892 0.86906 0.0
H1453 H 0.03963 0.42408 0.89778 0.0
H1454 H 1.00165 0.42327 0.91972 0.0
H1455 H 1.00261 0.43791 0.89083 0.0
C1456 C 1.0053 0.39335 0.95155 0.0
C1457 C 0.01758 0.39573 0.96212 0.0
C1458 C 1.00629 0.40183 0.93485 0.0
C1459 C 0.01957 0.41298 0.92833 0.0
C1460 C 0.0319 0.41517 0.93863 0.0
C1461 C 0.03091 0.40662 0.95529 0.0
C1462 C 0.03221 0.4357 0.88016 0.0
C1463 C 0.02171 0.43957 0.87764 0.0
C1464 C 0.03159 0.42718 0.89663 0.0
C1465 C 0.02049 0.42237 0.91103 0.0
C1466 C 0.01017 0.4265 0.9087 0.0
C1467 C 0.01075 0.43495 0.89218 0.0
H1468 H 0.60573 0.63274 0.96935 0.0
H1469 H 0.63111 0.61284 0.95863 0.0
H1470 H 0.59117 0.62046 0.93955 0.0
H1471 H 0.61684 0.6009 0.92873 0.0
H1472 H 0.57985 0.56957 0.89018 0.0
H1473 H 0.59338 0.58199 0.92051 0.0
H1474 H 0.59162 0.61941 0.90255 0.0
H1475 H 0.57791 0.60687 0.87228 0.0
C1476 C 0.60829 0.62586 0.96055 0.0
C1477 C 0.61955 0.62373 0.96647 0.0
C1478 C 0.59997 0.61885 0.94343 0.0
C1479 C 0.60273 0.60957 0.93183 0.0
C1480 C 0.61419 0.60771 0.93754 0.0
C1481 C 0.62246 0.61466 0.95464 0.0
C1482 C 0.58235 0.58045 0.89271 0.0
C1483 C 0.57786 0.58725 0.87877 0.0
C1484 C 0.59015 0.5876 0.91007 0.0
C1485 C 0.59374 0.60177 0.91389 0.0
C1486 C 0.58894 0.60846 0.9002 0.0
C1487 C 0.58107 0.60128 0.88285 0.0
H1488 H 0.03281 0.63309 0.96087 0.0
H1489 H 0.98681 0.60917 0.9619 0.0
H1490 H 0.03279 0.61892 0.93177 0.0
H1491 H 0.98684 0.59523 0.93287 0.0
H1492 H 0.99206 0.5623 0.89703 0.0
H1493 H 0.99332 0.57699 0.92601 0.0
H1494 H 0.02595 0.61431 0.89519 0.0
H1495 H 0.02461 0.59964 0.86605 0.0
C1496 C 0.02271 0.62491 0.95482 0.0
C1497 C 0.00982 0.62225 0.96381 0.0
C1498 C 0.0227 0.61681 0.93812 0.0
C1499 C 0.00981 0.60584 0.93013 0.0
C1500 C 0.99696 0.60341 0.93889 0.0
C1501 C 0.99695 0.6115 0.95547 0.0
C1502 C 0.99947 0.57365 0.89637 0.0
C1503 C 0.00817 0.57978 0.87912 0.0
C1504 C 1.00019 0.58207 0.91299 0.0
C1505 C 0.00966 0.59685 0.91284 0.0
C1506 C 0.01864 0.60295 0.89586 0.0
C1507 C 0.01788 0.59452 0.87918 0.0
H1508 H 0.41327 0.38537 0.96392 0.0
H1509 H 0.38715 0.40502 0.95979 0.0
H1510 H 0.42734 0.39948 0.935 0.0
H1511 H 0.40142 0.41929 0.93085 0.0
H1512 H 0.42154 0.4304 0.8658 0.0
H1513 H 0.40687 0.41686 0.89482 0.0
H1514 H 0.44462 0.42446 0.92748 0.0
H1515 H 0.45931 0.43812 0.8986 0.0
C1516 C 0.41049 0.39268 0.95684 0.0
C1517 C 0.39907 0.39406 0.96426 0.0
C1518 C 0.41865 0.40086 0.94032 0.0
C1519 C 0.4156 0.41061 0.93072 0.0
C1520 C 0.40401 0.41182 0.93784 0.0
C1521 C 0.39585 0.40366 0.95447 0.0
C1522 C 0.42675 0.42939 0.87929 0.0
C1523 C 0.44163 0.43533 0.8798 0.0
C1524 C 0.41832 0.42159 0.89592 0.0
C1525 C 0.42456 0.41948 0.91341 0.0
C1526 C 0.43945 0.42565 0.91408 0.0
C1527 C 0.44788 0.43349 0.89751 0.0
H1528 H 0.61414 0.9829 0.95633 0.0
H1529 H 0.63008 0.02797 0.96392 0.0
H1530 H 0.60008 0.98269 0.92691 0.0
H1531 H 0.61619 0.02773 0.93467 0.0
H1532 H 0.57746 0.01929 0.89741 0.0
H1533 H 0.59084 0.01809 0.92649 0.0
H1534 H 0.603 0.9922 0.8913 0.0
H1535 H 0.58978 0.99355 0.86204 0.0
C1536 C 0.61474 0.99276 0.95167 0.0
C1537 C 0.62321 0.00543 0.96258 0.0
C1538 C 0.6067 0.99265 0.9348 0.0
C1539 C 0.6069 0.00517 0.9286 0.0
C1540 C 0.61558 0.01785 0.93928 0.0
C1541 C 0.62364 0.01799 0.95599 0.0
C1542 C 0.58303 0.01339 0.8958 0.0
C1543 C 0.58259 0.0066 0.87728 0.0
C1544 C 0.59069 0.01269 0.91249 0.0
C1545 C 0.59808 0.00514 0.91116 0.0
C1546 C 0.59733 0.998 0.89288 0.0
C1547 C 0.58971 0.99876 0.87612 0.0
H1548 H 0.61078 0.98348 0.07136 0.0
H1549 H 0.63182 0.02942 0.07268 0.0
H1550 H 0.59606 0.98225 0.10015 0.0
H1551 H 0.61678 0.02815 0.10135 0.0
H1552 H 0.59635 0.01924 0.16607 0.0
H1553 H 0.61186 0.02183 0.13732 0.0
H1554 H 0.5766 0.98626 0.10713 0.0
H1555 H 0.56121 0.98361 0.13589 0.0
C1556 C 0.61228 0.99334 0.07778 0.0
C1557 C 0.62247 0.00655 0.06961 0.0
C1558 C 0.60373 0.99262 0.09423 0.0
C1559 C 0.60509 0.00509 0.10294 0.0
C1560 C 0.6155 0.01834 0.09509 0.0
C1561 C 0.6241 0.01906 0.07862 0.0
C1562 C 0.59188 0.01211 0.15315 0.0
C1563 C 0.57757 1.00114 0.15333 0.0
C1564 C 0.60078 0.01358 0.13667 0.0
C1565 C 0.59554 1.00415 0.12 0.0
C1566 C 0.58109 0.9935 0.11993 0.0
C1567 C 0.57224 0.992 0.13639 0.0
H1568 H 0.02649 0.63035 0.07674 0.0
H1569 H 0.98073 0.60721 0.07006 0.0
H1570 H 0.0245 0.61598 0.10641 0.0
H1571 H 0.97876 0.59249 0.09943 0.0
H1572 H 0.98003 0.57805 0.16511 0.0
H1573 H 0.98135 0.59254 0.13576 0.0
H1574 H 0.0191 0.59244 0.11481 0.0
H1575 H 0.01789 0.57821 0.14437 0.0
C1576 C 0.01599 0.62217 0.08158 0.0
C1577 C 1.00377 0.61993 0.07096 0.0
C1578 C 0.01486 0.61383 0.09853 0.0
C1579 C 1.00148 0.60295 0.10525 0.0
C1580 C 0.98923 0.60086 0.09484 0.0
C1581 C 0.99036 0.60928 0.07793 0.0
C1582 C 0.98852 0.58101 0.1541 0.0
C1583 C 0.99888 0.57702 0.15709 0.0
C1584 C 0.98928 0.58932 0.13726 0.0
C1585 C 1.00039 0.59377 0.12293 0.0
C1586 C 0.01057 0.5895 0.12574 0.0
C1587 C 0.00986 0.58128 0.14264 0.0
H1588 H 0.39557 0.40726 0.07097 0.0
H1589 H 0.40658 0.37425 0.07695 0.0
H1590 H 0.40968 0.41905 0.10119 0.0
H1591 H 0.42079 0.38615 0.10718 0.0
H1592 H 0.43161 0.40417 0.17316 0.0
H1593 H 0.4177 0.39191 0.14297 0.0
H1594 H 0.43515 0.43206 0.11115 0.0
H1595 H 0.44929 0.44434 0.14118 0.0
C1596 C 0.40096 0.40248 0.07875 0.0
C1597 C 0.39994 0.38979 0.07148 0.0
C1598 C 0.40914 0.40931 0.096 0.0
C1599 C 0.41643 0.40359 0.10651 0.0
C1600 C 0.41523 0.39078 0.09949 0.0
C1601 C 0.40712 0.38399 0.08212 0.0
C1602 C 0.43268 0.41039 0.15964 0.0
C1603 C 0.4416 0.42528 0.15967 0.0
C1604 C 0.42466 0.40334 0.14235 0.0
C1605 C 0.42527 0.41101 0.1247 0.0
C1606 C 0.43427 0.42587 0.12463 0.0
C1607 C 0.44236 0.43291 0.14187 0.0
H1608 H 0.69239 0.73515 0.4102 0.0
H1609 H 0.64696 0.71434 0.40034 0.0
H1610 H 0.69009 0.74766 0.43947 0.0
H1611 H 0.64471 0.72717 0.42944 0.0
H1612 H 0.64519 0.7424 0.49562 0.0
H1613 H 0.64652 0.72918 0.46633 0.0
H1614 H 0.68518 0.76651 0.44658 0.0
H1615 H 0.6839 0.77965 0.47593 0.0
C1616 C 0.68189 0.73323 0.41426 0.0
C1617 C 0.66987 0.72376 0.40284 0.0
C1618 C 0.68059 0.74051 0.43099 0.0
C1619 C 0.66723 0.73856 0.43672 0.0
C1620 C 0.65515 0.72886 0.42556 0.0
C1621 C 0.65645 0.72153 0.40882 0.0
C1622 C 0.65386 0.74783 0.48487 0.0
C1623 C 0.66447 0.76207 0.48816 0.0
C1624 C 0.65464 0.74025 0.46808 0.0
C1625 C 0.66602 0.74673 0.45416 0.0
C1626 C 0.67643 0.76108 0.45722 0.0
C1627 C 0.67568 0.76863 0.47402 0.0
H1628 H 0.2958 0.93466 0.3951 0.0
H1629 H 0.28981 0.96821 0.41963 0.0
H1630 H 0.28304 0.91957 0.42406 0.0
H1631 H 0.27789 0.95359 0.44937 0.0
H1632 H 0.24514 0.92041 0.49079 0.0
H1633 H 0.25719 0.93454 0.461 0.0
H1634 H 0.28316 0.91466 0.45808 0.0
H1635 H 0.27005 0.89944 0.4865 0.0
C1636 C 0.29198 0.9389 0.40693 0.0
C1637 C 0.29378 0.9526 0.40508 0.0
C1638 C 0.28469 0.93027 0.42366 0.0
C1639 C 0.2793 0.93524 0.43924 0.0
C1640 C 0.2815 0.94915 0.43755 0.0
C1641 C 0.28848 0.95764 0.42057 0.0
C1642 C 0.25316 0.91874 0.48355 0.0
C1643 C 0.25651 0.90865 0.49126 0.0
C1644 C 0.26035 0.92714 0.4666 0.0
C1645 C 0.27135 0.92596 0.45705 0.0
C1646 C 0.27467 0.91584 0.46471 0.0
C1647 C 0.26727 0.90722 0.48139 0.0
H1648 H 0.05355 0.32399 0.41336 0.0
H1649 H 0.079 0.36907 0.40111 0.0
H1650 H 0.06812 0.32672 0.44307 0.0
H1651 H 0.09386 0.37175 0.43072 0.0
H1652 H 0.10836 0.37229 0.4976 0.0
H1653 H 0.09407 0.37078 0.46784 0.0
H1654 H 0.09172 0.33125 0.45037 0.0
H1655 H 0.10584 0.33271 0.48016 0.0
C1656 C 0.06226 0.3345 0.41699 0.0
C1657 C 0.06513 0.3463 0.40475 0.0
C1658 C 0.0707 0.33605 0.43398 0.0
C1659 C 0.0823 0.34942 0.43917 0.0
C1660 C 0.08497 0.36131 0.42724 0.0
C1661 C 0.07647 0.35976 0.41023 0.0
C1662 C 0.10493 0.36338 0.48724 0.0
C1663 C 0.10815 0.35257 0.49132 0.0
C1664 C 0.09673 0.3625 0.47019 0.0
C1665 C 0.0916 0.35081 0.45681 0.0
C1666 C 0.0952 0.34023 0.46061 0.0
C1667 C 0.10333 0.34108 0.47766 0.0
H1668 H 0.07077 0.3554 0.28977 0.0
H1669 H 0.05167 0.31038 0.30214 0.0
H1670 H 0.08332 0.35297 0.26071 0.0
H1671 H 0.06458 0.30802 0.27317 0.0
H1672 H 0.0795 0.30783 0.20669 0.0
H1673 H 0.06626 0.30898 0.23613 0.0
H1674 H 0.10275 0.34894 0.25401 0.0
H1675 H 0.11587 0.34784 0.22452 0.0
C1676 C 0.06925 0.34496 0.28632 0.0
C1677 C 0.06024 0.3331 0.29839 0.0
C1678 C 0.07656 0.3436 0.2697 0.0
C1679 C 0.07512 0.33033 0.26471 0.0
C1680 C 0.06587 0.31838 0.2765 0.0
C1681 C 0.0585 0.31974 0.29315 0.0
C1682 C 0.08474 0.31676 0.21707 0.0
C1683 C 0.09871 0.32779 0.21318 0.0
C1684 C 0.07715 0.31743 0.23395 0.0
C1685 C 0.08337 0.32913 0.24735 0.0
C1686 C 0.09749 0.33993 0.24376 0.0
C1687 C 0.10505 0.33929 0.22688 0.0
H1688 H 0.70455 0.74158 0.29739 0.0
H1689 H 0.65882 0.71968 0.29045 0.0
H1690 H 0.70707 0.75625 0.26759 0.0
H1691 H 0.66133 0.73447 0.26109 0.0
H1692 H 0.67109 0.75326 0.19714 0.0
H1693 H 0.66939 0.73843 0.22612 0.0
H1694 H 0.70252 0.77529 0.25712 0.0
H1695 H 0.70425 0.79018 0.228 0.0
C1696 C 0.69504 0.73986 0.28951 0.0
C1697 C 0.68149 0.72942 0.29634 0.0
C1698 C 0.69648 0.74835 0.27252 0.0
C1699 C 0.6844 0.74656 0.26193 0.0
C1700 C 0.67088 0.73602 0.26868 0.0
C1701 C 0.66944 0.72757 0.28562 0.0
C1702 C 0.67791 0.75826 0.21023 0.0
C1703 C 0.68772 0.77295 0.21029 0.0
C1704 C 0.67695 0.74973 0.22684 0.0
C1705 C 0.68578 0.75565 0.24401 0.0
C1706 C 0.69569 0.77034 0.24404 0.0
C1707 C 0.69665 0.77888 0.22738 0.0
H1708 H 0.29978 0.94787 0.28996 0.0
H1709 H 0.27408 0.96719 0.30242 0.0
H1710 H 0.28489 0.9356 0.26065 0.0
H1711 H 0.2589 0.95457 0.27334 0.0
H1712 H 0.24333 0.94026 0.20751 0.0
H1713 H 0.2582 0.95324 0.23664 0.0
H1714 H 0.26153 0.91643 0.25311 0.0
H1715 H 0.24682 0.90356 0.22382 0.0
C1716 C 0.29094 0.9495 0.28646 0.0
C1717 C 0.28812 0.95851 0.29861 0.0
C1718 C 0.28231 0.94236 0.26971 0.0
C1719 C 0.27058 0.94395 0.2647 0.0
C1720 C 0.26791 0.95317 0.27662 0.0
C1721 C 0.2766 0.96038 0.29335 0.0
C1722 C 0.2471 0.93489 0.2175 0.0
C1723 C 0.2439 0.92088 0.21333 0.0
C1724 C 0.25564 0.94233 0.23421 0.0
C1725 C 0.26116 0.93593 0.2472 0.0
C1726 C 0.25772 0.92182 0.24321 0.0
C1727 C 0.24925 0.9144 0.22646 0.0
H1728 H 0.70173 0.97087 0.29028 0.0
H1729 H 0.65823 0.93678 0.29686 0.0
H1730 H 0.70448 0.9591 0.2603 0.0
H1731 H 0.66111 0.9248 0.26741 0.0
H1732 H 0.66629 0.91397 0.20189 0.0
H1733 H 0.6635 0.92606 0.23138 0.0
H1734 H 0.70646 0.93901 0.25036 0.0
H1735 H 0.7093 0.92716 0.22053 0.0
C1736 C 0.69276 0.96085 0.28537 0.0
C1737 C 0.67975 0.9548 0.29597 0.0
C1738 C 0.69437 0.95403 0.26826 0.0
C1739 C 0.68303 0.94095 0.2614 0.0
C1740 C 0.67002 0.93496 0.272 0.0
C1741 C 0.66838 0.94181 0.28899 0.0
C1742 C 0.67508 0.91928 0.21248 0.0
C1743 C 0.688 0.91958 0.2089 0.0
C1744 C 0.67349 0.92622 0.22942 0.0
C1745 C 0.68475 0.93355 0.24332 0.0
C1746 C 0.69764 0.93372 0.23982 0.0
C1747 C 0.69926 0.92686 0.22277 0.0
H1748 H 0.07665 0.72141 0.29787 0.0
H1749 H 0.05119 0.74188 0.29793 0.0
H1750 H 0.08999 0.73571 0.26871 0.0
H1751 H 0.06474 0.75634 0.26857 0.0
H1752 H 0.08293 0.76677 0.20168 0.0
H1753 H 0.06898 0.75367 0.23149 0.0
H1754 H 0.1074 0.76097 0.26178 0.0
H1755 H 0.12139 0.77424 0.23218 0.0
C1756 C 0.07385 0.72894 0.29166 0.0
C1757 C 0.06283 0.7305 0.30034 0.0
C1758 C 0.0816 0.73723 0.275 0.0
C1759 C 0.07853 0.74727 0.26646 0.0
C1760 C 0.06733 0.74866 0.2748 0.0
C1761 C 0.05959 0.7404 0.29163 0.0
C1762 C 0.08845 0.76582 0.21483 0.0
C1763 C 0.1033 0.7715 0.21444 0.0
C1764 C 0.08043 0.75827 0.2319 0.0
C1765 C 0.08707 0.75617 0.24891 0.0
C1766 C 0.10194 0.76218 0.24875 0.0
C1767 C 0.10996 0.76977 0.23176 0.0
H1768 H 0.29001 0.32617 0.284 0.0
H1769 H 0.28534 0.35931 0.31304 0.0
H1770 H 0.27797 0.32801 0.25361 0.0
H1771 H 0.27249 0.36054 0.28353 0.0
H1772 H 0.26276 0.37076 0.22144 0.0
H1773 H 0.27503 0.36857 0.25076 0.0
H1774 H 0.25692 0.32361 0.23847 0.0
H1775 H 0.24585 0.32615 0.20778 0.0
C1776 C 0.28624 0.33372 0.28395 0.0
C1777 C 0.28874 0.34269 0.30079 0.0
C1778 C 0.27923 0.33473 0.26659 0.0
C1779 C 0.27426 0.34451 0.26587 0.0
C1780 C 0.27648 0.35318 0.28308 0.0
C1781 C 0.28377 0.35241 0.30015 0.0
C1782 C 0.26157 0.36043 0.22466 0.0
C1783 C 0.25331 0.34868 0.21194 0.0
C1784 C 0.26843 0.3591 0.24186 0.0
C1785 C 0.26698 0.34587 0.24728 0.0
C1786 C 0.25853 0.33404 0.23476 0.0
C1787 C 0.2519 0.33545 0.21726 0.0
H1788 H 0.2772 0.31736 0.40863 0.0
H1789 H 0.29861 0.36328 0.41118 0.0
H1790 H 0.26269 0.3159 0.43787 0.0
H1791 H 0.28374 0.36183 0.44009 0.0
H1792 H 0.26344 0.35377 0.50383 0.0
H1793 H 0.27883 0.35574 0.47535 0.0
H1794 H 0.24346 0.31953 0.44636 0.0
H1795 H 0.2282 0.31742 0.47508 0.0
C1796 C 0.27882 0.32716 0.41543 0.0
C1797 C 0.28907 0.34044 0.40751 0.0
C1798 C 0.27039 0.32633 0.43212 0.0
C1799 C 0.27189 0.33874 0.44126 0.0
C1800 C 0.28235 0.35204 0.4336 0.0
C1801 C 0.29088 0.35288 0.41696 0.0
C1802 C 0.25893 0.34633 0.49126 0.0
C1803 C 0.2446 0.33543 0.49172 0.0
C1804 C 0.26776 0.34745 0.47491 0.0
C1805 C 0.26245 0.33776 0.45854 0.0
C1806 C 0.24802 0.32701 0.45888 0.0
C1807 C 0.23924 0.32583 0.4753 0.0
H1808 H 0.69636 0.96263 0.40514 0.0
H1809 H 0.65035 0.93944 0.40641 0.0
H1810 H 0.69685 0.94943 0.43481 0.0
H1811 H 0.6509 0.92607 0.43618 0.0
H1812 H 0.65983 0.91665 0.50255 0.0
H1813 H 0.65792 0.92919 0.4728 0.0
H1814 H 0.69106 0.92502 0.44261 0.0
H1815 H 0.69289 0.91239 0.47219 0.0
C1816 C 0.68632 0.95473 0.41175 0.0
C1817 C 0.6733 0.95208 0.40328 0.0
C1818 C 0.68662 0.94708 0.42871 0.0
C1819 C 0.67392 0.93658 0.43773 0.0
C1820 C 0.66087 0.93413 0.42962 0.0
C1821 C 0.66056 0.94177 0.41253 0.0
C1822 C 0.66656 0.91821 0.48945 0.0
C1823 C 0.67658 0.91357 0.48984 0.0
C1824 C 0.66547 0.92542 0.47241 0.0
C1825 C 0.67443 0.92822 0.45542 0.0
C1826 C 0.6842 0.92329 0.45562 0.0
C1827 C 0.68525 0.91605 0.4726 0.0
H1828 H 0.05094 0.73011 0.42013 0.0
H1829 H 0.08352 0.72156 0.39855 0.0
H1830 H 0.06521 0.74186 0.45022 0.0
H1831 H 0.09829 0.73414 0.42779 0.0
H1832 H 0.11696 0.74636 0.49094 0.0
H1833 H 0.10209 0.73378 0.46206 0.0
H1834 H 0.08473 0.76202 0.46243 0.0
H1835 H 0.0985 0.77363 0.49274 0.0
C1836 C 0.06122 0.73084 0.42179 0.0
C1837 C 0.06608 0.72485 0.40705 0.0
C1838 C 0.06951 0.73772 0.43896 0.0
C1839 C 0.08305 0.73911 0.44159 0.0
C1840 C 0.08786 0.73309 0.4267 0.0
C1841 C 0.07941 0.72591 0.4098 0.0
C1842 C 0.10979 0.74976 0.48518 0.0
C1843 C 0.10892 0.761 0.49453 0.0
C1844 C 0.10139 0.74266 0.46822 0.0
C1845 C 0.09209 0.74678 0.45969 0.0
C1846 C 0.0915 0.75827 0.4687 0.0
C1847 C 0.09967 0.76517 0.48595 0.0
H1848 H 0.32298 0.04222 0.74508 0.0
H1849 H 0.35983 0.08098 0.72476 0.0
H1850 H 0.32156 0.05441 0.77548 0.0
H1851 H 0.35792 0.09351 0.75426 0.0
H1852 H 0.35977 0.10991 0.81799 0.0
H1853 H 0.36139 0.09725 0.78863 0.0
H1854 H 0.31558 0.07036 0.78849 0.0
H1855 H 0.31412 0.08197 0.81921 0.0
C1856 C 0.33069 0.0534 0.74704 0.0
C1857 C 0.34156 0.06062 0.73262 0.0
C1858 C 0.32982 0.06048 0.76441 0.0
C1859 C 0.3396 0.07505 0.76752 0.0
C1860 C 0.35037 0.08225 0.75283 0.0
C1861 C 0.35143 0.07509 0.73576 0.0
C1862 C 0.35003 0.10112 0.812 0.0
C1863 C 0.33682 0.097 0.82127 0.0
C1864 C 0.35094 0.09398 0.79478 0.0
C1865 C 0.33862 0.0827 0.78594 0.0
C1866 C 0.32537 0.07878 0.79495 0.0
C1867 C 0.3245 0.0857 0.81245 0.0
H1868 H 0.93615 0.28392 0.72944 0.0
H1869 H 0.97493 0.28554 0.74892 0.0
H1870 H 0.9237 0.26928 0.75877 0.0
H1871 H 0.96279 0.27169 0.77925 0.0
H1872 H 0.93498 0.23653 0.82304 0.0
H1873 H 0.94675 0.24979 0.79246 0.0
H1874 H 0.92016 0.26904 0.79311 0.0
H1875 H 0.90737 0.25462 0.82226 0.0
C1876 C 0.94207 0.28131 0.74023 0.0
C1877 C 0.95653 0.28591 0.73691 0.0
C1878 C 0.93495 0.27297 0.75722 0.0
C1879 C 0.94217 0.26929 0.7717 0.0
C1880 C 0.95672 0.27401 0.76836 0.0
C1881 C 0.96376 0.28208 0.75104 0.0
C1882 C 0.93136 0.2433 0.81642 0.0
C1883 C 0.9201 0.24436 0.82531 0.0
C1884 C 0.93837 0.2512 0.799 0.0
C1885 C 0.93455 0.26064 0.79014 0.0
C1886 C 0.92333 0.26175 0.79911 0.0
C1887 C 0.91611 0.25361 0.81623 0.0
H1888 H 0.71966 0.66362 0.75126 0.0
H1889 H 0.75169 0.70533 0.73066 0.0
H1890 H 0.73357 0.6664 0.78181 0.0
H1891 H 0.76607 0.70787 0.76064 0.0
H1892 H 0.78378 0.71343 0.82491 0.0
H1893 H 0.76899 0.7114 0.79578 0.0
H1894 H 0.75369 0.6662 0.79294 0.0
H1895 H 0.76739 0.66801 0.82308 0.0
C1896 C 0.72973 0.67337 0.75323 0.0
C1897 C 0.73458 0.68424 0.73853 0.0
C1898 C 0.73781 0.67494 0.77069 0.0
C1899 C 0.7511 0.68731 0.77373 0.0
C1900 C 0.75583 0.69827 0.75908 0.0
C1901 C 0.74762 0.6968 0.74179 0.0
C1902 C 0.7771 0.70301 0.8183 0.0
C1903 C 0.77685 0.69089 0.82653 0.0
C1904 C 0.76874 0.70187 0.80131 0.0
C1905 C 0.76005 0.68862 0.79188 0.0
C1906 C 0.75999 0.67656 0.79992 0.0
C1907 C 0.76814 0.67766 0.81708 0.0
H1908 H 0.7461 0.69448 0.62908 0.0
H1909 H 0.71679 0.64913 0.62951 0.0
H1910 H 0.7582 0.69181 0.59968 0.0
H1911 H 0.72866 0.64649 0.59949 0.0
H1912 H 0.76232 0.64516 0.55856 0.0
H1913 H 0.75023 0.64754 0.58851 0.0
H1914 H 0.75547 0.68693 0.56421 0.0
H1915 H 0.76778 0.68466 0.5346 0.0
C1916 C 0.74213 0.68393 0.62278 0.0
C1917 C 0.73043 0.67202 0.63169 0.0
C1918 C 0.74905 0.6824 0.60579 0.0
C1919 C 0.74441 0.66894 0.59708 0.0
C1920 C 0.73267 0.65701 0.60594 0.0
C1921 C 0.72578 0.65852 0.62307 0.0
C1922 C 0.76087 0.65432 0.55966 0.0
C1923 C 0.76608 0.66477 0.54426 0.0
C1924 C 0.75388 0.65566 0.57678 0.0
C1925 C 0.75184 0.66743 0.57885 0.0
C1926 C 0.75706 0.67786 0.56339 0.0
C1927 C 0.76413 0.67657 0.54637 0.0
H1928 H 0.3273 0.05967 0.62767 0.0
H1929 H 0.37078 0.06936 0.6197 0.0
H1930 H 0.32983 0.07481 0.59873 0.0
H1931 H 0.37317 0.08412 0.5902 0.0
H1932 H 0.3778 0.1215 0.55238 0.0
H1933 H 0.37511 0.10627 0.58145 0.0
H1934 H 0.33192 0.07681 0.56279 0.0
H1935 H 0.33454 0.09226 0.5341 0.0
C1936 C 0.33736 0.06488 0.61957 0.0
C1937 C 0.34885 0.0633 0.62606 0.0
C1938 C 0.33879 0.07354 0.60286 0.0
C1939 C 0.35172 0.08076 0.59207 0.0
C1940 C 0.36313 0.07896 0.59834 0.0
C1941 C 0.36173 0.07038 0.61518 0.0
C1942 C 0.36773 0.11177 0.55455 0.0
C1943 C 0.35637 0.10811 0.541 0.0
C1944 C 0.3662 0.10298 0.57114 0.0
C1945 C 0.35331 0.09023 0.57449 0.0
C1946 C 0.34193 0.08663 0.56094 0.0
C1947 C 0.34342 0.09549 0.54446 0.0
H1948 H 0.965 0.27982 0.6237 0.0
H1949 H 0.93981 0.30018 0.6319 0.0
H1950 H 0.95084 0.26731 0.59388 0.0
H1951 H 0.92532 0.2873 0.6025 0.0
H1952 H 0.91064 0.27216 0.53721 0.0
H1953 H 0.92529 0.28541 0.56633 0.0
H1954 H 0.9278 0.2485 0.58496 0.0
H1955 H 0.91342 0.2354 0.55553 0.0
C1956 C 0.95642 0.28162 0.61916 0.0
C1957 C 0.95355 0.29101 0.63022 0.0
C1958 C 0.94821 0.27434 0.60213 0.0
C1959 C 0.93683 0.27618 0.59581 0.0
C1960 C 0.93409 0.28573 0.60673 0.0
C1961 C 0.94238 0.2931 0.62367 0.0
C1962 C 0.91422 0.26684 0.54765 0.0
C1963 C 0.91087 0.25273 0.54409 0.0
C1964 C 0.92262 0.27444 0.56437 0.0
C1965 C 0.9278 0.26807 0.57804 0.0
C1966 C 0.92427 0.25386 0.57457 0.0
C1967 C 0.91596 0.24631 0.55775 0.0
H1968 H 0.37145 0.2949 0.63688 0.0
H1969 H 0.3318 0.28958 0.61393 0.0
H1970 H 0.37327 0.28233 0.60725 0.0
H1971 H 0.33402 0.27794 0.58354 0.0
H1972 H 0.33297 0.24479 0.5416 0.0
H1973 H 0.33172 0.25711 0.57158 0.0
H1974 H 0.37769 0.28218 0.57305 0.0
H1975 H 0.37895 0.26873 0.5444 0.0
C1976 C 0.36327 0.2913 0.62523 0.0
C1977 C 0.35146 0.29316 0.62774 0.0
C1978 C 0.36433 0.28412 0.60812 0.0
C1979 C 0.35375 0.27893 0.59284 0.0
C1980 C 0.3422 0.28134 0.59513 0.0
C1981 C 0.34098 0.28818 0.61248 0.0
C1982 C 0.34286 0.25267 0.54854 0.0
C1983 C 0.35607 0.25563 0.54037 0.0
C1984 C 0.34213 0.26003 0.56561 0.0
C1985 C 0.35459 0.27086 0.57483 0.0
C1986 C 0.36781 0.27384 0.56667 0.0
C1987 C 0.36854 0.26624 0.54988 0.0
H1988 H 0.74183 0.04894 0.6294 0.0
H1989 H 0.72107 0.07409 0.63073 0.0
H1990 H 0.75571 0.0623 0.59992 0.0
H1991 H 0.73532 0.08781 0.60148 0.0
H1992 H 0.75367 0.10002 0.53636 0.0
H1993 H 0.73907 0.08672 0.56555 0.0
H1994 H 0.77497 0.08525 0.59142 0.0
H1995 H 0.78944 0.09832 0.56204 0.0
C1996 C 0.74023 0.05735 0.62342 0.0
C1997 C 0.73035 0.06045 0.6325 0.0
C1998 C 0.7483 0.06511 0.60658 0.0
C1999 C 0.74678 0.07627 0.5984 0.0
C2000 C 0.7367 0.07921 0.60724 0.0
C2001 C 0.72854 0.07137 0.62406 0.0
C2002 C 0.75848 0.09699 0.54841 0.0
C2003 C 0.77271 0.1002 0.54686 0.0
C2004 C 0.7501 0.08936 0.56517 0.0
C2005 C 0.75578 0.08481 0.58084 0.0
C2006 C 0.77013 0.0883 0.57945 0.0
C2007 C 0.77846 0.09584 0.56264 0.0
H2008 H 0.9432 0.64698 0.62798 0.0
H2009 H 0.96361 0.69276 0.62303 0.0
H2010 H 0.92828 0.64449 0.59862 0.0
H2011 H 0.94896 0.69026 0.59343 0.0
H2012 H 0.90988 0.681 0.55589 0.0
H2013 H 0.92466 0.68302 0.58521 0.0
H2014 H 0.92884 0.64796 0.56218 0.0
H2015 H 0.91397 0.64588 0.53298 0.0
C2016 C 0.94462 0.65652 0.62051 0.0
C2017 C 0.95459 0.67007 0.62794 0.0
C2018 C 0.93609 0.65509 0.60361 0.0
C2019 C 0.93734 0.66717 0.59371 0.0
C2020 C 0.94751 0.68072 0.60091 0.0
C2021 C 0.95601 0.68215 0.61781 0.0
C2022 C 0.91398 0.67375 0.55707 0.0
C2023 C 0.91072 0.66327 0.5421 0.0
C2024 C 0.9225 0.67493 0.57385 0.0
C2025 C 0.92802 0.6657 0.57604 0.0
C2026 C 0.92462 0.65512 0.56115 0.0
C2027 C 0.91608 0.65392 0.54441 0.0
H2028 H 0.96946 0.70024 0.73956 0.0
H2029 H 0.94178 0.6547 0.7347 0.0
H2030 H 0.95555 0.70064 0.7688 0.0
H2031 H 0.92804 0.65515 0.76375 0.0
H2032 H 0.89726 0.66343 0.80056 0.0
H2033 H 0.91164 0.66441 0.77131 0.0
H2034 H 0.94993 0.69168 0.80515 0.0
H2035 H 0.9356 0.69049 0.83464 0.0
C2036 C 0.96047 0.69032 0.74474 0.0
C2037 C 0.95674 0.67745 0.73473 0.0
C2038 C 0.95254 0.69055 0.76152 0.0
C2039 C 0.94063 0.67794 0.76846 0.0
C2040 C 0.93701 0.66508 0.75857 0.0
C2041 C 0.94499 0.66482 0.74199 0.0
C2042 C 0.90874 0.66958 0.80186 0.0
C2043 C 0.91523 0.6768 0.82008 0.0
C2044 C 0.91698 0.67016 0.78506 0.0
C2045 C 0.93192 0.67805 0.78596 0.0
C2046 C 0.93844 0.68562 0.80391 0.0
C2047 C 0.9302 0.68495 0.8208 0.0
H2048 H 0.36481 0.29781 0.74007 0.0
H2049 H 0.31918 0.27132 0.73409 0.0
H2050 H 0.36459 0.28335 0.76848 0.0
H2051 H 0.31903 0.25666 0.76271 0.0
H2052 H 0.36271 0.24625 0.80165 0.0
H2053 H 0.36061 0.25919 0.77274 0.0
H2054 H 0.32367 0.25753 0.80047 0.0
H2055 H 0.32581 0.24453 0.8296 0.0
C2056 C 0.35469 0.28891 0.74481 0.0
C2057 C 0.34202 0.2857 0.73464 0.0
C2058 C 0.3546 0.28054 0.76106 0.0
C2059 C 0.34183 0.26872 0.76767 0.0
C2060 C 0.32905 0.26571 0.75797 0.0
C2061 C 0.32914 0.27409 0.74157 0.0
C2062 C 0.35413 0.24862 0.80161 0.0
C2063 C 0.34455 0.24452 0.81807 0.0
C2064 C 0.35293 0.25606 0.78504 0.0
C2065 C 0.34211 0.2596 0.78446 0.0
C2066 C 0.3321 0.25493 0.80044 0.0
C2067 C 0.33331 0.24747 0.8171 0.0
H2068 H 0.71821 0.07103 0.74288 0.0
H2069 H 0.74512 0.05219 0.74178 0.0
H2070 H 0.73159 0.0858 0.77163 0.0
H2071 H 0.75883 0.06734 0.77042 0.0
H2072 H 0.77099 0.08777 0.83507 0.0
H2073 H 0.75805 0.07201 0.80655 0.0
H2074 H 0.75452 0.10604 0.77803 0.0
H2075 H 0.76723 0.12164 0.8066 0.0
C2076 C 0.727 0.07003 0.74877 0.0
C2077 C 0.73062 0.06046 0.73991 0.0
C2078 C 0.73476 0.07861 0.7652 0.0
C2079 C 0.74645 0.07795 0.77319 0.0
C2080 C 0.74986 0.06809 0.76472 0.0
C2081 C 0.74202 0.05942 0.74827 0.0
C2082 C 0.7676 0.09191 0.82256 0.0
C2083 C 0.77004 0.10592 0.82317 0.0
C2084 C 0.76017 0.08288 0.80622 0.0
C2085 C 0.75506 0.08768 0.79009 0.0
C2086 C 0.75796 0.10186 0.79042 0.0
C2087 C 0.7653 0.11083 0.80676 0.0
H2088 H 0.03531 0.34332 0.03142 0.0
H2089 H 0.07108 0.3862 0.03334 0.0
H2090 H 0.05025 0.33442 0.04541 0.0
H2091 H 0.08587 0.37739 0.04778 0.0
H2092 H 0.11221 0.35657 0.06137 0.0
H2093 H 0.09762 0.3639 0.04219 0.0
H2094 H 0.06087 0.33494 0.07784 0.0
H2095 H 0.07537 0.32759 0.09679 0.0
C2096 C 0.04638 0.35083 0.03467 0.0
C2097 C 0.05197 0.36548 0.03135 0.0
C2098 C 0.05493 0.34575 0.04284 0.0
C2099 C 0.06927 0.35519 0.0479 0.0
C2100 C 0.07495 0.36978 0.04388 0.0
C2101 C 0.06642 0.37485 0.03569 0.0
C2102 C 0.101 0.35176 0.06506 0.0
C2103 C 0.09497 0.34147 0.0806 0.0
C2104 C 0.09263 0.35596 0.05408 0.0
C2105 C 0.07803 0.35002 0.05843 0.0
C2106 C 0.07198 0.33956 0.07375 0.0
C2107 C 0.08033 0.33534 0.08467 0.0
H2108 H 0.67089 0.69393 0.03641 0.0
H2109 H 0.62737 0.68503 0.03663 0.0
H2110 H 0.67874 0.71782 0.0495 0.0
H2111 H 0.63522 0.70893 0.04927 0.0
H2112 H 0.6524 0.74412 0.09838 0.0
H2113 H 0.64428 0.72152 0.08106 0.0
H2114 H 0.68139 0.74103 0.0421 0.0
H2115 H 0.68954 0.76374 0.05946 0.0
C2116 C 0.66303 0.69714 0.03896 0.0
C2117 C 0.6485 0.68752 0.03561 0.0
C2118 C 0.66753 0.71086 0.04638 0.0
C2119 C 0.6576 0.71529 0.05061 0.0
C2120 C 0.64313 0.70581 0.04655 0.0
C2121 C 0.63864 0.69211 0.03917 0.0
C2122 C 0.6587 0.74371 0.08583 0.0
C2123 C 0.67164 0.7558 0.08035 0.0
C2124 C 0.65404 0.7307 0.0759 0.0
C2125 C 0.66219 0.72941 0.06019 0.0
C2126 C 0.67496 0.74158 0.05434 0.0
C2127 C 0.67962 0.75461 0.06428 0.0
H2128 H 0.31898 0.97412 0.01488 0.0
H2129 H 0.33463 0.95223 0.05239 0.0
H2130 H 0.295 0.95876 0.0281 0.0
H2131 H 0.31121 0.93779 0.06707 0.0
H2132 H 0.26724 0.9071 0.08464 0.0
H2133 H 0.28884 0.91974 0.0651 0.0
H2134 H 0.27974 0.95374 0.05428 0.0
H2135 H 0.25714 0.94013 0.07129 0.0
C2136 C 0.31726 0.96606 0.02609 0.0
C2137 C 0.32861 0.96429 0.03253 0.0
C2138 C 0.30352 0.9573 0.03388 0.0
C2139 C 0.30091 0.94687 0.04883 0.0
C2140 C 0.31245 0.94527 0.05522 0.0
C2141 C 0.32602 0.95369 0.04693 0.0
C2142 C 0.2695 0.91703 0.07758 0.0
C2143 C 0.26026 0.92252 0.07999 0.0
C2144 C 0.28224 0.92455 0.06667 0.0
C2145 C 0.28648 0.93809 0.05838 0.0
C2146 C 0.27702 0.94338 0.06021 0.0
C2147 C 0.26405 0.93562 0.07052 0.0
H2148 H 0.34559 0.02648 0.99426 0.0
H2149 H 0.38833 0.06185 0.00148 0.0
H2150 H 0.33799 0.04268 0.98098 0.0
H2151 H 0.3807 0.07804 0.98877 0.0
H2152 H 0.36698 0.09856 0.93935 0.0
H2153 H 0.37404 0.0832 0.95645 0.0
H2154 H 0.33378 0.0622 0.98838 0.0
H2155 H 0.32666 0.07764 0.97108 0.0
C2156 C 0.35331 0.03773 0.99331 0.0
C2157 C 0.36759 0.04284 0.99876 0.0
C2158 C 0.34894 0.04704 0.98578 0.0
C2159 C 0.35876 0.06168 0.98359 0.0
C2160 C 0.37291 0.06681 0.98982 0.0
C2161 C 0.37727 0.05752 0.99724 0.0
C2162 C 0.35971 0.09087 0.95031 0.0
C2163 C 0.34627 0.08942 0.95389 0.0
C2164 C 0.36377 0.08202 0.96014 0.0
C2165 C 0.35451 0.07145 0.97388 0.0
C2166 C 0.34112 0.0701 0.9777 0.0
C2167 C 0.33704 0.07897 0.96782 0.0
H2168 H 0.99136 0.32178 0.00195 0.0
H2169 H 0.95528 0.32841 0.00314 0.0
H2170 H 0.976 0.29753 0.98954 0.0
H2171 H 0.94003 0.30435 0.99045 0.0
H2172 H 0.94836 0.26457 0.93997 0.0
H2173 H 0.96374 0.28672 0.95777 0.0
H2174 H 0.92905 0.2791 0.99799 0.0
H2175 H 0.9136 0.25681 0.98018 0.0
C2176 C 0.98013 0.31803 0.99976 0.0
C2177 C 0.97457 0.32708 0.00345 0.0
C2178 C 0.97134 0.30416 0.99252 0.0
C2179 C 0.95677 0.29899 0.98887 0.0
C2180 C 0.95114 0.30789 0.99329 0.0
C2181 C 0.95993 0.32175 1.00046 0.0
C2182 C 0.94406 0.26742 0.9529 0.0
C2183 C 0.92969 0.25885 0.95859 0.0
C2184 C 0.95291 0.28017 0.96312 0.0
C2185 C 0.94765 0.28475 0.97931 0.0
C2186 C 0.9334 0.27601 0.9854 0.0
C2187 C 0.92453 0.26322 0.97517 0.0
H2188 H 0.6892 0.62923 0.01286 0.0
H2189 H 0.69255 0.66884 0.99359 0.0
H2190 H 0.71301 0.63708 0.99982 0.0
H2191 H 0.71604 0.67644 0.97942 0.0
H2192 H 0.76164 0.69117 0.96518 0.0
H2193 H 0.73996 0.6842 0.98421 0.0
H2194 H 0.72499 0.64011 0.96939 0.0
H2195 H 0.74723 0.64696 0.952 0.0
C2196 C 0.69506 0.63965 0.00583 0.0
C2197 C 0.68899 0.64841 0.00421 0.0
C2198 C 0.70869 0.64412 0.99815 0.0
C2199 C 0.71652 0.65736 0.98824 0.0
C2200 C 0.71053 0.66627 0.98716 0.0
C2201 C 0.69699 0.6619 0.99521 0.0
C2202 C 0.75393 0.67993 0.96642 0.0
C2203 C 0.75632 0.66966 0.95689 0.0
C2204 C 0.74129 0.67594 0.97708 0.0
C2205 C 0.73051 0.66157 0.97828 0.0
C2206 C 0.73302 0.65127 0.96912 0.0
C2207 C 0.74576 0.65524 0.95875 0.0
H2208 H 0.98358 0.67163 0.00306 0.0
H2209 H 0.9495 0.62787 0.00238 0.0
H2210 H 0.96719 0.67915 0.99022 0.0
H2211 H 0.93337 0.63523 0.98903 0.0
H2212 H 0.90371 0.65096 0.97547 0.0
H2213 H 0.92031 0.64685 0.99542 0.0
H2214 H 0.95523 0.67821 0.95905 0.0
H2215 H 0.93862 0.6826 0.93963 0.0
C2216 C 0.97258 0.66363 1.00034 0.0
C2217 C 0.96787 0.64914 0.0037 0.0
C2218 C 0.9632 0.66793 0.99284 0.0
C2219 C 0.94891 0.65782 0.98851 0.0
C2220 C 0.94418 0.64339 0.99249 0.0
C2221 C 0.95351 0.63912 1.00003 0.0
C2222 C 0.91497 0.65712 0.97199 0.0
C2223 C 0.91986 0.66702 0.95591 0.0
C2224 C 0.9245 0.65472 0.98333 0.0
C2225 C 0.93913 0.66201 0.97866 0.0
C2226 C 0.94409 0.67247 0.96325 0.0
C2227 C 0.93456 0.67499 0.95206 0.0
H2228 H 0.34939 0.31913 0.99837 0.0
H2229 H 0.39241 0.32725 0.00535 0.0
H2230 H 0.34224 0.29554 0.98454 0.0
H2231 H 0.3854 0.30398 0.99119 0.0
H2232 H 0.36827 0.25809 0.97614 0.0
H2233 H 0.37199 0.27871 0.99604 0.0
H2234 H 0.34604 0.28608 0.95323 0.0
H2235 H 0.34221 0.26542 0.93354 0.0
C2236 C 0.35728 0.31584 0.99716 0.0
C2237 C 0.37148 0.32511 0.00288 0.0
C2238 C 0.35321 0.30235 0.98911 0.0
C2239 C 0.36325 0.29784 0.98665 0.0
C2240 C 0.37732 0.30696 0.99309 0.0
C2241 C 0.38138 0.32039 1.0011 0.0
C2242 C 0.36326 0.26405 0.9711 0.0
C2243 C 0.35502 0.26014 0.95317 0.0
C2244 C 0.36541 0.27589 0.98248 0.0
C2245 C 0.35944 0.28417 0.97616 0.0
C2246 C 0.35067 0.27988 0.95873 0.0
C2247 C 0.34848 0.26801 0.9474 0.0
H2248 H 0.70018 0.0415 0.01746 0.0
H2249 H 0.68086 0.06411 0.99075 0.0
H2250 H 0.7235 0.06 0.00536 0.0
H2251 H 0.70362 0.08184 0.97726 0.0
H2252 H 0.74564 0.11712 0.96204 0.0
H2253 H 0.72523 0.10092 0.98176 0.0
H2254 H 0.73834 0.06932 0.97804 0.0
H2255 H 0.7599 0.08631 0.96078 0.0
C2256 C 0.70094 0.05042 0.00896 0.0
C2257 C 0.68872 0.05141 0.00519 0.0
C2258 C 0.7143 0.061 0.00181 0.0
C2259 C 0.71568 0.07262 0.99022 0.0
C2260 C 0.70331 0.07346 0.98658 0.0
C2261 C 0.69012 0.06314 0.9942 0.0
C2262 C 0.7446 0.10696 0.96595 0.0
C2263 C 0.75463 0.10318 0.9593 0.0
C2264 C 0.73251 0.09739 0.97696 0.0
C2265 C 0.72967 0.08347 0.9811 0.0
C2266 C 0.73997 0.07987 0.97528 0.0
C2267 C 0.75234 0.08963 0.96485 0.0
H2268 H 0.63668 0.95006 0.015 0.0
H2269 H 0.67188 0.98589 0.04461 0.0
H2270 H 0.645 0.93443 0.02782 0.0
H2271 H 0.67977 0.97023 0.0586 0.0
H2272 H 0.69645 0.94121 0.07369 0.0
H2273 H 0.68994 0.9562 0.05457 0.0
H2274 H 0.64571 0.92316 0.05713 0.0
H2275 H 0.65239 0.90764 0.07443 0.0
C2276 C 0.64623 0.95459 0.02425 0.0
C2277 C 0.65361 0.9692 0.02881 0.0
C2278 C 0.65095 0.9456 0.03182 0.0
C2279 C 0.66301 0.95091 0.04457 0.0
C2280 C 0.67059 0.96566 0.04862 0.0
C2281 C 0.66603 0.9747 0.04067 0.0
C2282 C 0.68537 0.93691 0.06969 0.0
C2283 C 0.67498 0.9231 0.07581 0.0
C2284 C 0.68157 0.9457 0.059 0.0
C2285 C 0.66724 0.94109 0.05439 0.0
C2286 C 0.65689 0.92715 0.06009 0.0
C2287 C 0.66072 0.91827 0.07043 0.0
H2288 H 0.03535 0.69494 0.03469 0.0
H2289 H 0.06827 0.6838 0.02904 0.0
H2290 H 0.0527 0.71797 0.04927 0.0
H2291 H 0.08553 0.70676 0.04328 0.0
H2292 H 0.10524 0.73781 0.09687 0.0
H2293 H 0.08902 0.71675 0.07768 0.0
H2294 H 0.07485 0.74129 0.04321 0.0
H2295 H 0.0914 0.76265 0.0623 0.0
C2296 C 0.04632 0.69749 0.03622 0.0
C2297 C 0.05038 0.68746 0.03089 0.0
C2298 C 0.05627 0.71071 0.04452 0.0
C2299 C 0.07047 0.71413 0.0477 0.0
C2300 C 0.07463 0.70436 0.04142 0.0
C2301 C 0.06473 0.6912 0.03314 0.0
C2302 C 0.09894 0.73888 0.08491 0.0
C2303 C 0.0998 0.75205 0.08105 0.0
C2304 C 0.08957 0.72673 0.07392 0.0
C2305 C 0.08069 0.72733 0.05879 0.0
C2306 C 0.08148 0.74046 0.05486 0.0
C2307 C 0.09096 0.75269 0.06583 0.0
H2308 H 0.33587 0.39007 0.02268 0.0
H2309 H 0.3266 0.34773 0.03908 0.0
H2310 H 0.31291 0.38501 0.03615 0.0
H2311 H 0.30367 0.34275 0.0532 0.0
H2312 H 0.25885 0.33595 0.06609 0.0
H2313 H 0.27992 0.33939 0.04735 0.0
H2314 H 0.30351 0.38255 0.06986 0.0
H2315 H 0.28269 0.37916 0.08833 0.0
C2316 C 0.32888 0.37963 0.02905 0.0
C2317 C 0.33314 0.36936 0.02999 0.0
C2318 C 0.31573 0.37674 0.03691 0.0
C2319 C 0.30651 0.36355 0.04613 0.0
C2320 C 0.31046 0.353 0.04615 0.0
C2321 C 0.32363 0.35587 0.03811 0.0
C2322 C 0.26854 0.34617 0.06695 0.0
C2323 C 0.26899 0.35733 0.07853 0.0
C2324 C 0.28062 0.34814 0.05624 0.0
C2325 C 0.2934 0.3613 0.05689 0.0
C2326 C 0.29379 0.37239 0.06851 0.0
C2327 C 0.28179 0.37044 0.07914 0.0
H2328 H 0.73282 0.71999 0.37296 0.0
H2329 H 0.69976 0.67669 0.36141 0.0
H2330 H 0.74806 0.71147 0.38642 0.0
H2331 H 0.71526 0.66811 0.37427 0.0
H2332 H 0.73948 0.65812 0.42354 0.0
H2333 H 0.72456 0.66554 0.4058 0.0
H2334 H 0.76207 0.70092 0.37922 0.0
H2335 H 0.777 0.69362 0.39745 0.0
C2336 C 0.72887 0.70863 0.37298 0.0
C2337 C 0.71502 0.69902 0.36618 0.0
C2338 C 0.73769 0.70373 0.3806 0.0
C2339 C 0.73295 0.68907 0.38152 0.0
C2340 C 0.71922 0.67946 0.37413 0.0
C2341 C 0.71035 0.68438 0.36661 0.0
C2342 C 0.74453 0.66736 0.41365 0.0
C2343 C 0.75944 0.6753 0.41196 0.0
C2344 C 0.73595 0.67161 0.40341 0.0
C2345 C 0.74205 0.68389 0.39107 0.0
C2346 C 0.75697 0.69157 0.38888 0.0
C2347 C 0.76555 0.68737 0.39927 0.0
H2348 H 0.30168 0.02406 0.35423 0.0
H2349 H 0.33883 0.02538 0.38031 0.0
H2350 H 0.31013 0.04835 0.36558 0.0
H2351 H 0.34687 0.04926 0.39307 0.0
H2352 H 0.3632 0.09503 0.40634 0.0
H2353 H 0.35631 0.07314 0.3881 0.0
H2354 H 0.31205 0.06143 0.39385 0.0
H2355 H 0.31904 0.08402 0.41002 0.0
C2356 C 0.31168 0.02959 0.36245 0.0
C2357 C 0.31959 0.02283 0.36641 0.0
C2358 C 0.31648 0.0435 0.36918 0.0
C2359 C 0.32915 0.0509 0.38058 0.0
C2360 C 0.33721 0.04416 0.38409 0.0
C2361 C 0.33257 0.03037 0.37687 0.0
C2362 C 0.35201 0.08804 0.40319 0.0
C2363 C 0.34172 0.09144 0.40991 0.0
C2364 C 0.348 0.07523 0.39303 0.0
C2365 C 0.33356 0.06522 0.38964 0.0
C2366 C 0.3233 0.0688 0.39586 0.0
C2367 C 0.32732 0.08176 0.40559 0.0
H2368 H 0.98631 0.30711 0.34852 0.0
H2369 H 1.00282 0.28771 0.38945 0.0
H2370 H 0.96221 0.29074 0.3605 0.0
H2371 H 0.97919 0.27226 0.4028 0.0
H2372 H 0.93545 0.23978 0.41842 0.0
H2373 H 0.95741 0.25321 0.3999 0.0
H2374 H 0.94601 0.28517 0.38561 0.0
H2375 H 0.92316 0.27073 0.40166 0.0
C2376 C 0.98475 0.29938 0.3602 0.0
C2377 C 0.9964 0.29862 0.36797 0.0
C2378 C 0.97094 0.29004 0.36727 0.0
C2379 C 0.9685 0.28001 0.38278 0.0
C2380 C 0.98032 0.27941 0.39049 0.0
C2381 C 0.99401 0.28841 0.38296 0.0
C2382 C 0.9373 0.24941 0.4108 0.0
C2383 C 0.92735 0.25411 0.41199 0.0
C2384 C 0.95023 0.2574 0.40048 0.0
C2385 C 0.95392 0.27063 0.39156 0.0
C2386 C 0.94375 0.27508 0.3921 0.0
C2387 C 0.93061 0.26685 0.40183 0.0
H2388 H 0.0168 0.36764 0.33002 0.0
H2389 H 0.06136 0.39961 0.33264 0.0
H2390 H 0.01145 0.38517 0.31514 0.0
H2391 H 0.05602 0.41704 0.31817 0.0
H2392 H 0.04443 0.43704 0.26568 0.0
H2393 H 0.04883 0.42028 0.28426 0.0
H2394 H 0.01131 0.40788 0.32092 0.0
H2395 H 0.00693 0.42494 0.30235 0.0
C2396 C 0.02541 0.37844 0.32771 0.0
C2397 C 0.03952 0.38218 0.33232 0.0
C2398 C 0.02234 0.38849 0.31926 0.0
C2399 C 0.03334 0.40246 0.31522 0.0
C2400 C 0.04734 0.40631 0.32069 0.0
C2401 C 0.05039 0.39631 0.3291 0.0
C2402 C 0.03724 0.43099 0.27796 0.0
C2403 C 0.02542 0.43253 0.28265 0.0
C2404 C 0.03975 0.42131 0.2886 0.0
C2405 C 0.0305 0.41282 0.30422 0.0
C2406 C 0.01859 0.41421 0.30889 0.0
C2407 C 0.0161 0.42399 0.29824 0.0
H2408 H 0.61733 0.66516 0.3251 0.0
H2409 H 0.64768 0.65155 0.33867 0.0
H2410 H 0.60088 0.64164 0.31151 0.0
H2411 H 0.63107 0.62788 0.32506 0.0
H2412 H 0.59093 0.58339 0.31436 0.0
H2413 H 0.60629 0.60609 0.33138 0.0
H2414 H 0.60163 0.62847 0.28016 0.0
H2415 H 0.58682 0.60602 0.26278 0.0
C2416 C 0.62045 0.65711 0.32539 0.0
C2417 C 0.63387 0.66028 0.33289 0.0
C2418 C 0.61103 0.64365 0.31751 0.0
C2419 C 0.61472 0.63295 0.3171 0.0
C2420 C 0.62791 0.6359 0.32529 0.0
C2421 C 0.63743 0.64947 0.333 0.0
C2422 C 0.59322 0.59314 0.30664 0.0
C2423 C 0.58752 0.59276 0.28713 0.0
C2424 C 0.60201 0.60614 0.31644 0.0
C2425 C 0.60513 0.61905 0.30713 0.0
C2426 C 0.59924 0.61869 0.28787 0.0
C2427 C 0.59064 0.60575 0.27796 0.0
H2428 H 0.35687 0.9638 0.33567 0.0
H2429 H 0.36317 0.0064 0.33593 0.0
H2430 H 0.38085 0.97291 0.32243 0.0
H2431 H 0.38734 0.01558 0.32292 0.0
H2432 H 0.41971 0.02127 0.2719 0.0
H2433 H 0.39781 0.01437 0.29051 0.0
H2434 H 0.40618 0.98735 0.3297 0.0
H2435 H 0.42824 0.99434 0.3111 0.0
C2436 C 0.36345 0.97516 0.33319 0.0
C2437 C 0.35805 0.98436 0.33675 0.0
C2438 C 0.37726 0.9804 0.3257 0.0
C2439 C 0.38603 0.99498 0.32151 0.0
C2440 C 0.38081 1.00426 0.32573 0.0
C2441 C 0.36698 0.99901 0.3333 0.0
C2442 C 0.41709 0.01411 0.28478 0.0
C2443 C 0.42578 0.00835 0.28994 0.0
C2444 C 0.40448 0.01013 0.29546 0.0
C2445 C 0.40017 1.00025 0.31157 0.0
C2446 C 0.40906 0.99482 0.31717 0.0
C2447 C 0.42171 0.99883 0.30649 0.0
H2448 H 0.6148 0.95438 0.33614 0.0
H2449 H 0.64814 0.99832 0.33139 0.0
H2450 H 0.59776 0.96054 0.32242 0.0
H2451 H 0.63095 0.00458 0.31795 0.0
H2452 H 0.60052 1.00413 0.26721 0.0
H2453 H 0.6178 1.00069 0.28631 0.0
H2454 H 0.58481 0.97294 0.32836 0.0
H2455 H 0.56746 0.97637 0.30916 0.0
C2456 C 0.61846 0.96542 0.33246 0.0
C2457 C 0.63287 0.97584 0.33476 0.0
C2458 C 0.60864 0.96898 0.3247 0.0
C2459 C 0.61296 0.98306 0.319 0.0
C2460 C 0.62729 0.99359 0.32194 0.0
C2461 C 0.63713 0.99003 0.32977 0.0
C2462 C 0.59699 0.99755 0.28079 0.0
C2463 C 0.58255 0.99047 0.28656 0.0
C2464 C 0.60693 0.99557 0.29178 0.0
C2465 C 0.60271 0.98646 0.30882 0.0
C2466 C 0.58839 0.97984 0.3151 0.0
C2467 C 0.57844 0.98181 0.3041 0.0
H2468 H 0.05828 0.66345 0.33772 0.0
H2469 H 0.0148 0.65463 0.33575 0.0
H2470 H 0.0508 0.63992 0.32387 0.0
H2471 H 0.00733 0.63109 0.3215 0.0
H2472 H 0.99722 0.5854 0.30942 0.0
H2473 H 1.00465 0.60757 0.32797 0.0
H2474 H 0.0426 0.62858 0.29084 0.0
H2475 H 0.03517 0.60657 0.27226 0.0
C2476 C 0.04709 0.65645 0.33447 0.0
C2477 C 0.03715 0.66097 0.33773 0.0
C2478 C 0.04282 0.64297 0.3264 0.0
C2479 C 0.02849 0.63365 0.32135 0.0
C2480 C 0.01844 0.63795 0.32536 0.0
C2481 C 0.02273 0.65147 0.33345 0.0
C2482 C 0.00716 0.59475 0.30523 0.0
C2483 C 0.01559 0.59415 0.28932 0.0
C2484 C 0.01141 0.60746 0.31586 0.0
C2485 C 0.02422 0.61987 0.31091 0.0
C2486 C 0.03279 0.61918 0.29532 0.0
C2487 C 0.02853 0.60651 0.28466 0.0
H2488 H 0.35713 0.3625 0.32502 0.0
H2489 H 0.35832 0.39852 0.35494 0.0
H2490 H 0.38049 0.37804 0.31037 0.0
H2491 H 0.38209 0.41404 0.34136 0.0
H2492 H 0.41592 0.44046 0.29391 0.0
H2493 H 0.39378 0.42512 0.31156 0.0
H2494 H 0.40476 0.39194 0.31425 0.0
H2495 H 0.42618 0.40674 0.29486 0.0
C2496 C 0.36255 0.37371 0.32887 0.0
C2497 C 0.35584 0.37928 0.34106 0.0
C2498 C 0.37604 0.38268 0.32053 0.0
C2499 C 0.38331 0.39744 0.32448 0.0
C2500 C 0.37678 0.40285 0.33747 0.0
C2501 C 0.36317 0.39392 0.34547 0.0
C2502 C 0.41358 0.42985 0.29802 0.0
C2503 C 0.42294 0.42492 0.29265 0.0
C2504 C 0.40091 0.42106 0.30855 0.0
C2505 C 0.39729 0.40715 0.31439 0.0
C2506 C 0.40692 0.40244 0.30972 0.0
C2507 C 0.41946 0.41111 0.29887 0.0
H2508 H 0.29297 0.2826 0.36637 0.0
H2509 H 0.33732 0.31493 0.36164 0.0
H2510 H 0.29977 0.26594 0.38004 0.0
H2511 H 0.3441 0.29811 0.3752 0.0
H2512 H 0.34988 0.25891 0.38498 0.0
H2513 H 0.34273 0.27412 0.36716 0.0
H2514 H 0.31129 0.26552 0.41375 0.0
H2515 H 0.31875 0.25088 0.43209 0.0
C2516 C 0.30418 0.28611 0.36795 0.0
C2517 C 0.3146 0.30014 0.36299 0.0
C2518 C 0.30806 0.27656 0.37589 0.0
C2519 C 0.32245 0.28075 0.37882 0.0
C2520 C 0.33292 0.29457 0.37301 0.0
C2521 C 0.32903 0.30421 0.3653 0.0
C2522 C 0.34149 0.2603 0.39155 0.0
C2523 C 0.33496 0.25361 0.41012 0.0
C2524 C 0.33738 0.26899 0.38125 0.0
C2525 C 0.32646 0.27101 0.38906 0.0
C2526 C 0.31962 0.26402 0.40722 0.0
C2527 C 0.32387 0.25552 0.41768 0.0
H2528 H 0.73107 0.01341 0.37659 0.0
H2529 H 0.70513 0.02992 0.35268 0.0
H2530 H 0.74778 0.03657 0.39005 0.0
H2531 H 0.72252 0.05367 0.36497 0.0
H2532 H 0.74778 0.08991 0.41083 0.0
H2533 H 0.73146 0.06806 0.39336 0.0
H2534 H 0.76562 0.05902 0.38409 0.0
H2535 H 0.78136 0.07971 0.40372 0.0
C2536 C 0.72912 0.02212 0.37379 0.0
C2537 C 0.71678 0.01982 0.36353 0.0
C2538 C 0.73883 0.03555 0.38139 0.0
C2539 C 0.73673 0.04724 0.37853 0.0
C2540 C 0.72448 0.04498 0.36781 0.0
C2541 C 0.71454 0.03138 0.36059 0.0
C2542 C 0.75182 0.08319 0.4054 0.0
C2543 C 0.76598 0.08666 0.40932 0.0
C2544 C 0.74244 0.07069 0.39492 0.0
C2545 C 0.74702 0.06144 0.38755 0.0
C2546 C 0.76144 0.06549 0.3901 0.0
C2547 C 0.77068 0.07772 0.40107 0.0
H2548 H 0.99932 0.72172 0.37064 0.0
H2549 H 0.99093 0.67851 0.36525 0.0
H2550 H 0.97534 0.71299 0.38363 0.0
H2551 H 0.96675 0.66973 0.37781 0.0
H2552 H 0.93347 0.66158 0.42756 0.0
H2553 H 0.95591 0.66934 0.41008 0.0
H2554 H 0.95015 0.70027 0.37619 0.0
H2555 H 0.92755 0.69247 0.39383 0.0
C2556 C 0.99228 0.71033 0.37192 0.0
C2557 C 0.9971 0.70082 0.36704 0.0
C2558 C 0.97847 0.70532 0.37927 0.0
C2559 C 0.96909 0.69065 0.38192 0.0
C2560 C 0.97375 0.68111 0.3763 0.0
C2561 C 0.98759 0.68614 0.36896 0.0
C2562 C 0.93681 0.66986 0.41611 0.0
C2563 C 0.92862 0.67634 0.41206 0.0
C2564 C 0.94973 0.67431 0.40605 0.0
C2565 C 0.95487 0.6854 0.39163 0.0
C2566 C 0.94661 0.6918 0.38737 0.0
C2567 C 0.93365 0.68733 0.39748 0.0
H2568 H 0.40187 0.04969 0.68433 0.0
H2569 H 0.36503 0.01394 0.71145 0.0
H2570 H 0.41719 0.04152 0.69946 0.0
H2571 H 0.38044 0.00603 0.727 0.0
H2572 H 0.41705 0.01384 0.77402 0.0
H2573 H 0.40105 0.01963 0.75534 0.0
H2574 H 0.4203 0.01803 0.69841 0.0
H2575 H 0.43613 0.01183 0.71716 0.0
C2576 C 0.39703 0.04001 0.69333 0.0
C2577 C 0.38225 0.03246 0.69673 0.0
C2578 C 0.4058 0.03533 0.70191 0.0
C2579 C 0.39998 0.0232 0.71444 0.0
C2580 C 0.38517 0.01545 0.71744 0.0
C2581 C 0.37636 0.01994 0.70847 0.0
C2582 C 0.41786 0.01473 0.75751 0.0
C2583 C 0.42785 0.01248 0.747 0.0
C2584 C 0.40864 0.01793 0.74684 0.0
C2585 C 0.40943 0.01921 0.72546 0.0
C2586 C 0.4195 0.01709 0.71491 0.0
C2587 C 0.42852 0.01355 0.72558 0.0
H2588 H 1.00372 0.36099 0.70201 0.0
H2589 H 0.96042 0.35268 0.69976 0.0
H2590 H 0.01145 0.38467 0.71589 0.0
H2591 H 0.96816 0.37635 0.71328 0.0
H2592 H 0.98428 0.4102 0.76427 0.0
H2593 H 0.97656 0.38795 0.7462 0.0
H2594 H 0.01435 0.40825 0.70866 0.0
H2595 H 0.02207 0.43066 0.72668 0.0
C2596 C 0.99589 0.36428 0.7042 0.0
C2597 C 0.98144 0.35489 0.69991 0.0
C2598 C 1.00032 0.37788 0.71207 0.0
C2599 C 0.9904 0.38237 0.71587 0.0
C2600 C 0.97605 0.37314 0.71088 0.0
C2601 C 0.97162 0.35959 0.70301 0.0
C2602 C 0.99083 0.41006 0.75188 0.0
C2603 C 1.00381 0.42229 0.74695 0.0
C2604 C 0.9864 0.39725 0.74152 0.0
C2605 C 0.99484 0.39629 0.72598 0.0
C2606 C 0.00769 0.40857 0.72075 0.0
C2607 C 0.01211 0.42142 0.73107 0.0
H2608 H 0.66819 0.61954 0.70367 0.0
H2609 H 0.65913 0.65391 0.69836 0.0
H2610 H 0.6444 0.60411 0.71717 0.0
H2611 H 0.63514 0.63833 0.7115 0.0
H2612 H 0.60244 0.61283 0.76203 0.0
H2613 H 0.62461 0.62783 0.74405 0.0
H2614 H 0.61917 0.59136 0.7099 0.0
H2615 H 0.59685 0.57627 0.72799 0.0
C2616 C 0.66105 0.62375 0.70509 0.0
C2617 C 0.66562 0.63801 0.70004 0.0
C2618 C 0.64734 0.61485 0.71274 0.0
C2619 C 0.63783 0.61996 0.71555 0.0
C2620 C 0.64225 0.63409 0.70984 0.0
C2621 C 0.65598 0.64301 0.70217 0.0
C2622 C 0.60579 0.60802 0.75042 0.0
C2623 C 0.59779 0.59331 0.74646 0.0
C2624 C 0.61855 0.61665 0.74007 0.0
C2625 C 0.62372 0.61084 0.72547 0.0
C2626 C 0.61561 0.59617 0.72124 0.0
C2627 C 0.60281 0.58751 0.73161 0.0
H2628 H 0.72664 0.73624 0.66628 0.0
H2629 H 0.68337 0.70114 0.66562 0.0
H2630 H 0.71863 0.75192 0.65268 0.0
H2631 H 0.67536 0.71683 0.65159 0.0
H2632 H 0.66435 0.75183 0.6401 0.0
H2633 H 0.67235 0.73739 0.65822 0.0
H2634 H 0.70987 0.75483 0.6201 0.0
H2635 H 0.70189 0.76914 0.60201 0.0
C2636 C 0.71539 0.73187 0.66334 0.0
C2637 C 0.70566 0.7174 0.66692 0.0
C2638 C 0.71081 0.74087 0.65542 0.0
C2639 C 0.69637 0.73562 0.65083 0.0
C2640 C 0.68655 0.72125 0.6551 0.0
C2641 C 0.69114 0.71224 0.66306 0.0
C2642 C 0.67432 0.75259 0.63562 0.0
C2643 C 0.68248 0.76168 0.61959 0.0
C2644 C 0.67889 0.7443 0.646 0.0
C2645 C 0.69175 0.74493 0.64063 0.0
C2646 C 0.70003 0.75424 0.6249 0.0
C2647 C 0.69546 0.76249 0.61452 0.0
H2648 H 0.31871 0.98722 0.67123 0.0
H2649 H 0.28717 0.99918 0.65746 0.0
H2650 H 0.30258 0.96319 0.65887 0.0
H2651 H 0.27134 0.97546 0.64425 0.0
H2652 H 0.2411 0.92871 0.63327 0.0
H2653 H 0.25627 0.95119 0.6509 0.0
H2654 H 0.29359 0.951 0.62805 0.0
H2655 H 0.27843 0.92841 0.61119 0.0
C2656 C 0.30833 0.98471 0.66558 0.0
C2657 C 0.30426 0.99513 0.66529 0.0
C2658 C 0.29909 0.97095 0.65833 0.0
C2659 C 0.28562 0.96731 0.65035 0.0
C2660 C 0.28148 0.9777 0.65053 0.0
C2661 C 0.29063 0.99139 0.65801 0.0
C2662 C 0.25255 0.93347 0.63218 0.0
C2663 C 0.25856 0.92675 0.62093 0.0
C2664 C 0.26128 0.9464 0.6422 0.0
C2665 C 0.27623 0.95302 0.64095 0.0
C2666 C 0.28217 0.94616 0.62981 0.0
C2667 C 0.27346 0.93318 0.62004 0.0
H2668 H 0.02855 0.33757 0.66723 0.0
H2669 H 0.01955 0.29406 0.67018 0.0
H2670 H 0.05222 0.34489 0.65361 0.0
H2671 H 0.04321 0.30139 0.65695 0.0
H2672 H 0.07725 0.31663 0.60634 0.0
H2673 H 0.05501 0.30938 0.6242 0.0
H2674 H 0.07562 0.34755 0.66088 0.0
H2675 H 0.09802 0.35481 0.64304 0.0
C2676 C 0.03169 0.3296 0.66527 0.0
C2677 C 0.02211 0.31521 0.66965 0.0
C2678 C 0.04529 0.3338 0.65753 0.0
C2679 C 0.04959 0.3237 0.654 0.0
C2680 C 0.04017 0.30941 0.65913 0.0
C2681 C 0.02661 0.30522 0.66684 0.0
C2682 C 0.07717 0.32336 0.6185 0.0
C2683 C 0.08949 0.33631 0.62323 0.0
C2684 C 0.06436 0.31921 0.62874 0.0
C2685 C 0.06349 0.32788 0.64399 0.0
C2686 C 0.07586 0.34071 0.64902 0.0
C2687 C 0.08871 0.34486 0.6388 0.0
H2688 H 0.2887 0.29002 0.6519 0.0
H2689 H 0.31108 0.33069 0.68235 0.0
H2690 H 0.27115 0.29569 0.63956 0.0
H2691 H 0.29281 0.33613 0.67118 0.0
H2692 H 0.26681 0.34782 0.62795 0.0
H2693 H 0.28385 0.34267 0.64397 0.0
H2694 H 0.25196 0.29802 0.64632 0.0
H2695 H 0.23562 0.30286 0.62807 0.0
C2696 C 0.28968 0.30009 0.65636 0.0
C2697 C 0.30128 0.30989 0.66814 0.0
C2698 C 0.27948 0.30334 0.64941 0.0
C2699 C 0.28032 0.31637 0.65444 0.0
C2700 C 0.29182 0.32608 0.66665 0.0
C2701 C 0.30227 0.32294 0.67323 0.0
C2702 C 0.26343 0.33685 0.63154 0.0
C2703 C 0.24974 0.32579 0.62612 0.0
C2704 C 0.27322 0.33391 0.64119 0.0
C2705 C 0.26951 0.31985 0.64621 0.0
C2706 C 0.25551 0.30895 0.64213 0.0
C2707 C 0.24589 0.31182 0.63199 0.0
H2708 H 0.72494 0.99559 0.67665 0.0
H2709 H 0.68162 0.98708 0.67298 0.0
H2710 H 0.71759 0.97215 0.6629 0.0
H2711 H 0.67411 0.96329 0.65969 0.0
H2712 H 0.67215 0.9324 0.60856 0.0
H2713 H 0.67644 0.95318 0.62839 0.0
H2714 H 0.7049 0.94714 0.66792 0.0
H2715 H 0.70081 0.92652 0.64773 0.0
C2716 C 0.71376 0.9886 0.67328 0.0
C2717 C 0.70389 0.99327 0.6758 0.0
C2718 C 0.70951 0.97506 0.66549 0.0
C2719 C 0.69524 0.96577 0.66007 0.0
C2720 C 0.68523 0.97023 0.6634 0.0
C2721 C 0.68951 0.98383 0.67117 0.0
C2722 C 0.67908 0.93533 0.62176 0.0
C2723 C 0.68623 0.92787 0.62647 0.0
C2724 C 0.68154 0.94726 0.63318 0.0
C2725 C 0.69115 0.95198 0.64969 0.0
C2726 C 0.69768 0.94403 0.65505 0.0
C2727 C 0.6953 0.93217 0.64353 0.0
H2728 H 0.01911 0.73217 0.6591 0.0
H2729 H 0.03045 0.70066 0.67608 0.0
H2730 H 0.04306 0.74761 0.64643 0.0
H2731 H 0.05474 0.71642 0.66427 0.0
H2732 H 0.09037 0.73958 0.61709 0.0
H2733 H 0.06761 0.72483 0.63386 0.0
H2734 H 0.06717 0.76267 0.6535 0.0
H2735 H 0.08977 0.77739 0.63592 0.0
C2736 C 0.02681 0.72864 0.66049 0.0
C2737 C 0.02283 0.71513 0.66851 0.0
C2738 C 0.04064 0.73757 0.65331 0.0
C2739 C 0.05096 0.73333 0.65419 0.0
C2740 C 0.04707 0.71998 0.66292 0.0
C2741 C 0.03315 0.71096 0.66986 0.0
C2742 C 0.0855 0.74475 0.62524 0.0
C2743 C 0.09187 0.75966 0.62518 0.0
C2744 C 0.07243 0.73627 0.63496 0.0
C2745 C 0.06541 0.74247 0.6451 0.0
C2746 C 0.07205 0.75745 0.64554 0.0
C2747 C 0.08505 0.76592 0.63556 0.0
H2748 H 1.0056 0.65008 0.69882 0.0
H2749 H 0.96188 0.61596 0.69657 0.0
H2750 H 0.01275 0.63344 0.71187 0.0
H2751 H 0.9689 0.59954 0.70999 0.0
H2752 H 0.98504 0.56985 0.72286 0.0
H2753 H 0.98115 0.58684 0.70352 0.0
H2754 H 0.01049 0.62072 0.74315 0.0
H2755 H 0.01454 0.60376 0.76219 0.0
C2756 C 0.99754 0.63902 0.70094 0.0
C2757 C 0.98316 0.63437 0.69671 0.0
C2758 C 1.00162 0.6295 0.70854 0.0
C2759 C 0.99141 0.61512 0.71205 0.0
C2760 C 0.97711 0.61045 0.70721 0.0
C2761 C 0.97305 0.61993 0.69962 0.0
C2762 C 0.99077 0.58096 0.72727 0.0
C2763 C 1.00002 0.58543 0.74415 0.0
C2764 C 0.98852 0.5907 0.71624 0.0
C2765 C 0.99535 0.60515 0.7219 0.0
C2766 C 1.00514 0.60973 0.73818 0.0
C2767 C 0.00747 0.59999 0.74913 0.0
H2768 H 0.37131 0.3632 0.69869 0.0
H2769 H 0.40457 0.35236 0.69914 0.0
H2770 H 0.38818 0.38695 0.71164 0.0
H2771 H 0.42121 0.37574 0.71247 0.0
H2772 H 0.4517 0.42139 0.72474 0.0
H2773 H 0.43462 0.40057 0.7054 0.0
H2774 H 0.40051 0.39757 0.74314 0.0
H2775 H 0.41759 0.41855 0.76214 0.0
C2776 C 0.38223 0.36591 0.70139 0.0
C2777 C 0.38657 0.35586 0.69793 0.0
C2778 C 0.39188 0.37949 0.70893 0.0
C2779 C 0.40609 0.38331 0.71315 0.0
C2780 C 0.41045 0.37333 0.70911 0.0
C2781 C 0.40085 0.35983 0.70158 0.0
C2782 C 0.44052 0.41637 0.72872 0.0
C2783 C 0.43601 0.42155 0.74507 0.0
C2784 C 0.43072 0.4044 0.7177 0.0
C2785 C 0.41618 0.39722 0.72287 0.0
C2786 C 0.41158 0.40286 0.73856 0.0
C2787 C 0.42139 0.41491 0.7495 0.0
H2788 H 0.66645 0.0552 0.69703 0.0
H2789 H 0.6561 0.01123 0.69723 0.0
H2790 H 0.6429 0.04824 0.70983 0.0
H2791 H 0.63214 1.00411 0.70944 0.0
H2792 H 0.59752 0.03322 0.72291 0.0
H2793 H 0.61835 0.03708 0.70347 0.0
H2794 H 0.62085 0.00518 0.74 0.0
H2795 H 0.59971 1.00103 0.75885 0.0
C2796 C 0.65904 0.04398 0.69942 0.0
C2797 C 0.66322 0.03379 0.6962 0.0
C2798 C 0.64542 0.03995 0.70666 0.0
C2799 C 0.63551 0.02558 0.71074 0.0
C2800 C 0.63953 0.0153 0.70677 0.0
C2801 C 0.65324 0.01936 0.69963 0.0
C2802 C 0.60242 0.02689 0.72652 0.0
C2803 C 0.59705 0.01689 0.74247 0.0
C2804 C 0.61442 0.02915 0.71548 0.0
C2805 C 0.6215 0.02162 0.72032 0.0
C2806 C 0.61566 0.0111 0.73564 0.0
C2807 C 0.60353 0.00872 0.74651 0.0
loop_
_geom_bond_atom_site_label_1
_geom_bond_atom_site_label_2
_geom_bond_distance
_geom_bond_site_symmetry_2
_ccdc_geom_bond_type
O0 Cd1 2.223 . S
O0 C8 1.315 . S
Cd1 O0 2.223 . S
Cd1 O4 2.297 . S
Cd1 O5 2.439 . S
Cd1 O11 2.240 1_554 S
Cd2 O3 2.229 1_655 S
Cd2 O10 2.223 1_554 S
Cd2 O12 2.297 1_554 S
Cd2 O13 2.439 . S
O3 Cd2 2.229 1_455 S
O3 C8 1.280 . S
O4 Cd1 2.297 . S
O4 C6 1.247 . S
O5 Cd1 2.439 . S
O5 C6 1.208 . S
C6 O4 1.247 . S
C6 O5 1.208 . S
C7 O12 1.247 . S
C7 O13 1.208 1_556 S
C8 O0 1.315 . S
C8 O3 1.280 . S
C9 O10 1.337 . S
C9 O11 1.257 1_655 S
O10 Cd2 2.223 1_556 S
O10 C9 1.337 . S
O11 Cd1 2.240 1_556 S
O11 C9 1.257 1_455 S
O12 Cd2 2.297 1_556 S
O12 C7 1.247 . S
O13 Cd2 2.439 . S
O13 C7 1.208 1_554 S
O14 Cd15 2.223 . S
O14 C22 1.315 . S
Cd15 O14 2.223 . S
Cd15 O18 2.297 . S
Cd15 O19 2.439 . S
Cd15 O25 2.240 1_554 S
Cd16 O17 2.240 . S
Cd16 O24 2.223 1_554 S
Cd16 O26 2.297 1_554 S
Cd16 O27 2.439 . S
O17 Cd16 2.240 . S
O17 C22 1.279 . S
O18 Cd15 2.297 . S
O18 C20 1.247 . S
O19 Cd15 2.439 . S
O19 C20 1.208 . S
C20 O18 1.247 . S
C20 O19 1.208 . S
C21 O26 1.247 . S
C21 O27 1.208 1_556 S
C22 O14 1.315 . S
C22 O17 1.279 . S
C23 O24 1.315 . S
C23 O25 1.279 . S
O24 Cd16 2.223 1_556 S
O24 C23 1.315 . S
O25 Cd15 2.240 1_556 S
O25 C23 1.279 . S
O26 Cd16 2.297 1_556 S
O26 C21 1.247 . S
O27 Cd16 2.439 . S
O27 C21 1.208 1_554 S
O28 Cd29 2.223 1_556 S
O28 C36 1.315 . S
Cd29 O28 2.223 1_554 S
Cd29 O32 2.297 1_554 S
Cd29 O33 2.439 . S
Cd29 O39 2.240 . S
Cd30 O31 2.240 1_564 S
Cd30 O38 2.223 . S
Cd30 O40 2.297 . S
Cd30 O41 2.439 . S
O31 Cd30 2.240 1_546 S
O31 C36 1.279 . S
O32 Cd29 2.297 1_556 S
O32 C34 1.247 . S
O33 Cd29 2.439 . S
O33 C34 1.208 1_554 S
C34 O32 1.247 . S
C34 O33 1.208 1_556 S
C35 O40 1.247 . S
C35 O41 1.208 . S
C36 O28 1.315 . S
C36 O31 1.279 . S
C37 O38 1.354 . S
C37 O39 1.240 1_565 S
O38 Cd30 2.223 . S
O38 C37 1.354 . S
O39 Cd29 2.240 . S
O39 C37 1.240 1_545 S
O40 Cd30 2.297 . S
O40 C35 1.247 . S
O41 Cd30 2.439 . S
O41 C35 1.208 . S
O42 Cd43 2.223 1_556 S
O42 C50 1.332 . S
Cd43 O42 2.223 1_554 S
Cd43 O46 2.297 1_554 S
Cd43 O47 2.439 . S
Cd43 O53 2.224 1_655 S
Cd44 O45 2.240 1_554 S
Cd44 O52 2.223 . S
Cd44 O54 2.297 . S
Cd44 O55 2.439 . S
O45 Cd44 2.240 1_556 S
O45 C50 1.279 1_455 S
O46 Cd43 2.297 1_556 S
O46 C48 1.247 . S
O47 Cd43 2.439 . S
O47 C48 1.208 1_554 S
C48 O46 1.247 . S
C48 O47 1.208 1_556 S
C49 O54 1.247 . S
C49 O55 1.208 . S
C50 O42 1.332 . S
C50 O45 1.279 1_655 S
C51 O52 1.315 . S
C51 O53 1.298 . S
O52 Cd44 2.223 . S
O52 C51 1.315 . S
O53 Cd43 2.224 1_455 S
O53 C51 1.298 . S
O54 Cd44 2.297 . S
O54 C49 1.247 . S
O55 Cd44 2.439 . S
O55 C49 1.208 . S
O56 Cd57 2.223 1_556 S
O56 C64 1.315 . S
Cd57 O56 2.223 1_554 S
Cd57 O60 2.297 1_554 S
Cd57 O61 2.439 . S
Cd57 O67 2.240 . S
Cd58 O59 2.240 1_554 S
Cd58 O66 2.223 . S
Cd58 O68 2.297 . S
Cd58 O69 2.439 . S
O59 Cd58 2.240 1_556 S
O59 C64 1.279 . S
O60 Cd57 2.297 1_556 S
O60 C62 1.247 . S
O61 Cd57 2.439 . S
O61 C62 1.208 1_554 S
C62 O60 1.247 . S
C62 O61 1.208 1_556 S
C63 O68 1.247 . S
C63 O69 1.208 . S
C64 O56 1.315 . S
C64 O59 1.279 . S
C65 O66 1.315 . S
C65 O67 1.279 . S
O66 Cd58 2.223 . S
O66 C65 1.315 . S
O67 Cd57 2.240 . S
O67 C65 1.279 . S
O68 Cd58 2.297 . S
O68 C63 1.247 . S
O69 Cd58 2.439 . S
O69 C63 1.208 . S
O70 Cd71 2.223 . S
O70 C78 1.347 . S
Cd71 O70 2.223 . S
Cd71 O74 2.297 . S
Cd71 O75 2.439 . S
Cd71 O81 2.240 1_564 S
Cd72 O73 2.240 . S
Cd72 O80 2.223 1_554 S
Cd72 O82 2.297 1_554 S
Cd72 O83 2.439 . S
O73 Cd72 2.240 . S
O73 C78 1.279 1_545 S
O74 Cd71 2.297 . S
O74 C76 1.247 . S
O75 Cd71 2.439 . S
O75 C76 1.208 . S
C76 O74 1.247 . S
C76 O75 1.208 . S
C77 O82 1.247 . S
C77 O83 1.208 1_556 S
C78 O70 1.347 . S
C78 O73 1.279 1_565 S
C79 O80 1.315 . S
C79 O81 1.279 . S
O80 Cd72 2.223 1_556 S
O80 C79 1.315 . S
O81 Cd71 2.240 1_546 S
O81 C79 1.279 . S
O82 Cd72 2.297 1_556 S
O82 C77 1.247 . S
O83 Cd72 2.439 . S
O83 C77 1.208 1_554 S
O84 Cd85 2.223 . S
O84 C92 1.315 . S
Cd85 O84 2.223 . S
Cd85 O88 2.297 . S
Cd85 O89 2.439 . S
Cd85 O95 2.240 . S
Cd86 O87 2.240 . S
Cd86 O94 2.223 . S
Cd86 O96 2.297 . S
Cd86 O97 2.439 . S
O87 Cd86 2.240 . S
O87 C92 1.279 . S
O88 Cd85 2.297 . S
O88 C90 1.247 . S
O89 Cd85 2.439 . S
O89 C90 1.208 . S
C90 O88 1.247 . S
C90 O89 1.208 . S
C91 O96 1.247 . S
C91 O97 1.208 . S
C92 O84 1.315 . S
C92 O87 1.279 . S
C93 O94 1.315 . S
C93 O95 1.279 . S
O94 Cd86 2.223 . S
O94 C93 1.315 . S
O95 Cd85 2.240 . S
O95 C93 1.279 . S
O96 Cd86 2.297 . S
O96 C91 1.247 . S
O97 Cd86 2.439 . S
O97 C91 1.208 . S
O98 Cd99 2.223 . S
O98 C106 1.315 . S
Cd99 O98 2.223 . S
Cd99 O102 2.297 1_565 S
Cd99 O103 2.439 1_565 S
Cd99 O109 2.240 . S
Cd100 O101 2.240 . S
Cd100 O108 2.223 . S
Cd100 O110 2.297 . S
Cd100 O111 2.439 . S
O101 Cd100 2.240 . S
O101 C106 1.279 . S
O102 Cd99 2.297 1_545 S
O102 C104 1.247 . S
O103 Cd99 2.439 1_545 S
O103 C104 1.208 . S
C104 O102 1.247 . S
C104 O103 1.208 . S
C105 O110 1.247 . S
C105 O111 1.208 . S
C106 O98 1.315 . S
C106 O101 1.279 . S
C107 O108 1.315 . S
C107 O109 1.279 . S
O108 Cd100 2.223 . S
O108 C107 1.315 . S
O109 Cd99 2.240 . S
O109 C107 1.279 . S
O110 Cd100 2.297 . S
O110 C105 1.247 . S
O111 Cd100 2.439 . S
O111 C105 1.208 . S
O112 Cd113 2.223 . S
O112 C120 1.315 . S
Cd113 O112 2.223 . S
Cd113 O116 2.297 . S
Cd113 O117 2.439 . S
Cd113 O123 2.240 . S
Cd114 O115 2.240 . S
Cd114 O122 2.223 . S
Cd114 O124 2.297 . S
Cd114 O125 2.439 . S
O115 Cd114 2.240 . S
O115 C120 1.279 . S
O116 Cd113 2.297 . S
O116 C118 1.247 . S
O117 Cd113 2.439 . S
O117 C118 1.208 . S
C118 O116 1.247 . S
C118 O117 1.208 . S
C119 O124 1.247 1_655 S
C119 O125 1.208 1_655 S
C120 O112 1.315 . S
C120 O115 1.279 . S
C121 O122 1.315 . S
C121 O123 1.279 . S
O122 Cd114 2.223 . S
O122 C121 1.315 . S
O123 Cd113 2.240 . S
O123 C121 1.279 . S
O124 Cd114 2.297 . S
O124 C119 1.247 1_455 S
O125 Cd114 2.439 . S
O125 C119 1.208 1_455 S
O126 Cd127 2.223 . S
O126 C134 1.315 . S
Cd127 O126 2.223 . S
Cd127 O130 2.297 . S
Cd127 O131 2.439 . S
Cd127 O137 2.240 . S
Cd128 O129 2.240 . S
Cd128 O136 2.223 . S
Cd128 O138 2.297 1_565 S
Cd128 O139 2.439 1_565 S
O129 Cd128 2.240 . S
O129 C134 1.279 . S
O130 Cd127 2.297 . S
O130 C132 1.247 . S
O131 Cd127 2.439 . S
O131 C132 1.208 . S
C132 O130 1.247 . S
C132 O131 1.208 . S
C133 O138 1.247 . S
C133 O139 1.208 . S
C134 O126 1.315 . S
C134 O129 1.279 . S
C135 O136 1.315 . S
C135 O137 1.279 . S
O136 Cd128 2.223 . S
O136 C135 1.315 . S
O137 Cd127 2.240 . S
O137 C135 1.279 . S
O138 Cd128 2.297 1_545 S
O138 C133 1.247 . S
O139 Cd128 2.439 1_545 S
O139 C133 1.208 . S
O140 Cd141 2.223 . S
O140 C148 1.315 . S
Cd141 O140 2.223 . S
Cd141 O144 2.297 . S
Cd141 O145 2.439 . S
Cd141 O151 2.240 . S
Cd142 O143 2.240 . S
Cd142 O150 2.223 . S
Cd142 O152 2.297 . S
Cd142 O153 2.439 . S
O143 Cd142 2.240 . S
O143 C148 1.279 . S
O144 Cd141 2.297 . S
O144 C146 1.247 . S
O145 Cd141 2.439 . S
O145 C146 1.208 . S
C146 O144 1.247 . S
C146 O145 1.208 . S
C147 O152 1.247 1_655 S
C147 O153 1.208 1_655 S
C148 O140 1.315 . S
C148 O143 1.279 . S
C149 O150 1.315 . S
C149 O151 1.279 . S
O150 Cd142 2.223 . S
O150 C149 1.315 . S
O151 Cd141 2.240 . S
O151 C149 1.279 . S
O152 Cd142 2.297 . S
O152 C147 1.247 1_455 S
O153 Cd142 2.439 . S
O153 C147 1.208 1_455 S
O154 Cd155 2.223 . S
O154 C162 1.315 . S
Cd155 O154 2.223 . S
Cd155 O158 2.297 . S
Cd155 O159 2.439 . S
Cd155 O165 2.240 . S
Cd156 O157 2.240 . S
Cd156 O164 2.223 . S
Cd156 O166 2.297 . S
Cd156 O167 2.439 . S
O157 Cd156 2.240 . S
O157 C162 1.279 . S
O158 Cd155 2.297 . S
O158 C160 1.247 . S
O159 Cd155 2.439 . S
O159 C160 1.208 . S
C160 O158 1.247 . S
C160 O159 1.208 . S
C161 O166 1.247 . S
C161 O167 1.208 . S
C162 O154 1.315 . S
C162 O157 1.279 . S
C163 O164 1.315 . S
C163 O165 1.279 . S
O164 Cd156 2.223 . S
O164 C163 1.315 . S
O165 Cd155 2.240 . S
O165 C163 1.279 . S
O166 Cd156 2.297 . S
O166 C161 1.247 . S
O167 Cd156 2.439 . S
O167 C161 1.208 . S
O168 Cd169 2.223 . S
O168 C176 1.315 . S
Cd169 O168 2.223 . S
Cd169 O172 2.297 . S
Cd169 O173 2.439 . S
Cd169 O179 2.240 . S
Cd170 O171 2.240 . S
Cd170 O178 2.223 . S
Cd170 O180 2.297 . S
Cd170 O181 2.439 . S
O171 Cd170 2.240 . S
O171 C176 1.279 . S
O172 Cd169 2.297 . S
O172 C174 1.247 . S
O173 Cd169 2.439 . S
O173 C174 1.208 . S
C174 O172 1.247 . S
C174 O173 1.208 . S
C175 O180 1.247 1_565 S
C175 O181 1.208 1_565 S
C176 O168 1.315 . S
C176 O171 1.279 . S
C177 O178 1.315 . S
C177 O179 1.279 . S
O178 Cd170 2.223 . S
O178 C177 1.315 . S
O179 Cd169 2.240 . S
O179 C177 1.279 . S
O180 Cd170 2.297 . S
O180 C175 1.247 1_545 S
O181 Cd170 2.439 . S
O181 C175 1.208 1_545 S
O182 Cd183 2.223 . S
O182 C190 1.315 . S
Cd183 O182 2.223 . S
Cd183 O186 2.297 . S
Cd183 O187 2.439 . S
Cd183 O193 2.240 . S
Cd184 O185 2.240 . S
Cd184 O192 2.223 . S
Cd184 O194 2.297 1_655 S
Cd184 O195 2.439 1_655 S
O185 Cd184 2.240 . S
O185 C190 1.279 . S
O186 Cd183 2.297 . S
O186 C188 1.247 . S
O187 Cd183 2.439 . S
O187 C188 1.208 . S
C188 O186 1.247 . S
C188 O187 1.208 . S
C189 O194 1.247 . S
C189 O195 1.208 . S
C190 O182 1.315 . S
C190 O185 1.279 . S
C191 O192 1.315 . S
C191 O193 1.279 . S
O192 Cd184 2.223 . S
O192 C191 1.315 . S
O193 Cd183 2.240 . S
O193 C191 1.279 . S
O194 Cd184 2.297 1_455 S
O194 C189 1.247 . S
O195 Cd184 2.439 1_455 S
O195 C189 1.208 . S
O196 Cd197 2.223 . S
O196 C204 1.315 . S
Cd197 O196 2.223 . S
Cd197 O200 2.297 . S
Cd197 O201 2.439 . S
Cd197 O207 2.240 . S
Cd198 O199 2.240 . S
Cd198 O206 2.223 . S
Cd198 O208 2.297 . S
Cd198 O209 2.439 . S
O199 Cd198 2.240 . S
O199 C204 1.279 . S
O200 Cd197 2.297 . S
O200 C202 1.247 . S
O201 Cd197 2.439 . S
O201 C202 1.208 . S
C202 O200 1.247 . S
C202 O201 1.208 . S
C203 O208 1.247 . S
C203 O209 1.208 . S
C204 O196 1.315 . S
C204 O199 1.279 . S
C205 O206 1.315 . S
C205 O207 1.279 . S
O206 Cd198 2.223 . S
O206 C205 1.315 . S
O207 Cd197 2.240 . S
O207 C205 1.279 . S
O208 Cd198 2.297 . S
O208 C203 1.247 . S
O209 Cd198 2.439 . S
O209 C203 1.208 . S
O210 Cd211 2.223 . S
O210 C218 1.315 . S
Cd211 O210 2.223 . S
Cd211 O214 2.297 . S
Cd211 O215 2.439 . S
Cd211 O221 2.240 . S
Cd212 O213 2.240 . S
Cd212 O220 2.223 . S
Cd212 O222 2.297 . S
Cd212 O223 2.439 . S
O213 Cd212 2.240 . S
O213 C218 1.279 . S
O214 Cd211 2.297 . S
O214 C216 1.247 . S
O215 Cd211 2.439 . S
O215 C216 1.208 . S
C216 O214 1.247 . S
C216 O215 1.208 . S
C217 O222 1.247 . S
C217 O223 1.208 . S
C218 O210 1.315 . S
C218 O213 1.279 . S
C219 O220 1.315 . S
C219 O221 1.279 . S
O220 Cd212 2.223 . S
O220 C219 1.315 . S
O221 Cd211 2.240 . S
O221 C219 1.279 . S
O222 Cd212 2.297 . S
O222 C217 1.247 . S
O223 Cd212 2.439 . S
O223 C217 1.208 . S
O224 Cd225 2.223 . S
O224 C232 1.315 . S
Cd225 O224 2.223 . S
Cd225 O228 2.297 . S
Cd225 O229 2.439 . S
Cd225 O235 2.240 . S
Cd226 O227 2.240 . S
Cd226 O234 2.223 . S
Cd226 O236 2.297 . S
Cd226 O237 2.439 . S
O227 Cd226 2.240 . S
O227 C232 1.279 . S
O228 Cd225 2.297 . S
O228 C230 1.247 1_545 S
O229 Cd225 2.439 . S
O229 C230 1.208 1_545 S
C230 O228 1.247 1_565 S
C230 O229 1.208 1_565 S
C231 O236 1.247 . S
C231 O237 1.208 . S
C232 O224 1.315 . S
C232 O227 1.279 . S
C233 O234 1.315 . S
C233 O235 1.279 . S
O234 Cd226 2.223 . S
O234 C233 1.315 . S
O235 Cd225 2.240 . S
O235 C233 1.279 . S
O236 Cd226 2.297 . S
O236 C231 1.247 . S
O237 Cd226 2.439 . S
O237 C231 1.208 . S
O238 Cd239 2.223 . S
O238 C246 1.315 . S
Cd239 O238 2.223 . S
Cd239 O242 2.297 . S
Cd239 O243 2.439 . S
Cd239 O249 2.240 . S
Cd240 O241 2.240 . S
Cd240 O248 2.223 . S
Cd240 O250 2.297 1_655 S
Cd240 O251 2.439 1_655 S
O241 Cd240 2.240 . S
O241 C246 1.279 . S
O242 Cd239 2.297 . S
O242 C244 1.247 . S
O243 Cd239 2.439 . S
O243 C244 1.208 . S
C244 O242 1.247 . S
C244 O243 1.208 . S
C245 O250 1.247 . S
C245 O251 1.208 . S
C246 O238 1.315 . S
C246 O241 1.279 . S
C247 O248 1.315 . S
C247 O249 1.279 . S
O248 Cd240 2.223 . S
O248 C247 1.315 . S
O249 Cd239 2.240 . S
O249 C247 1.279 . S
O250 Cd240 2.297 1_455 S
O250 C245 1.247 . S
O251 Cd240 2.439 1_455 S
O251 C245 1.208 . S
H252 C279 0.929 . S
N253 C278 1.433 . S
N253 C284 1.435 . S
N253 C290 1.423 . S
H254 C280 0.930 . S
H255 C283 0.931 . S
H256 C282 0.929 . S
H257 C285 0.930 . S
H258 C286 0.932 . S
H259 C289 0.929 . S
H260 C288 0.931 . S
H261 C291 0.929 . S
H262 C295 0.932 . S
H263 C292 0.931 . S
H264 C294 0.929 . S
H265 C297 0.929 . S
H266 C298 0.930 . S
H267 C300 0.929 . S
H268 C301 0.931 . S
H269 C303 0.930 . S
H270 C304 0.932 . S
H271 C306 0.931 . S
H272 C307 0.929 . S
H273 C309 0.929 . S
H274 C310 0.931 . S
H275 C312 0.929 . S
N276 C296 1.433 . S
N276 C302 1.435 . S
N276 C308 1.423 . S
H277 C313 0.932 . S
C278 N253 1.433 . S
C278 C279 1.363 . S
C278 C283 1.370 . S
C279 H252 0.929 . S
C279 C278 1.363 . S
C279 C280 1.385 . S
C280 H254 0.930 . S
C280 C279 1.385 . S
C280 C281 1.357 . S
C281 C280 1.357 . S
C281 C282 1.406 . S
C282 H256 0.929 . S
C282 C281 1.406 . S
C282 C283 1.391 . S
C283 H255 0.931 . S
C283 C278 1.370 . S
C283 C282 1.391 . S
C284 N253 1.435 . S
C284 C285 1.358 . S
C284 C289 1.371 . S
C285 H257 0.930 . S
C285 C284 1.358 . S
C285 C286 1.405 . S
C286 H258 0.932 . S
C286 C285 1.405 . S
C286 C287 1.383 . S
C287 C286 1.383 . S
C287 C288 1.393 . S
C288 H260 0.931 . S
C288 C287 1.393 . S
C288 C289 1.382 . S
C289 H259 0.929 . S
C289 C284 1.371 . S
C289 C288 1.382 . S
C290 N253 1.423 . S
C290 C291 1.362 . S
C290 C295 1.388 . S
C291 H261 0.929 . S
C291 C290 1.362 . S
C291 C292 1.376 . S
C292 H263 0.931 . S
C292 C291 1.376 . S
C292 C293 1.396 . S
C293 C292 1.396 . S
C293 C294 1.348 . S
C293 C311 1.472 . S
C294 H264 0.929 . S
C294 C293 1.348 . S
C294 C295 1.443 . S
C295 H262 0.932 . S
C295 C290 1.388 . S
C295 C294 1.443 . S
C296 N276 1.433 . S
C296 C297 1.363 . S
C296 C301 1.370 . S
C297 H265 0.929 . S
C297 C296 1.363 . S
C297 C298 1.385 . S
C298 H266 0.930 . S
C298 C297 1.385 . S
C298 C299 1.357 . S
C299 C298 1.357 . S
C299 C300 1.406 . S
C300 H267 0.929 . S
C300 C299 1.406 . S
C300 C301 1.391 . S
C301 H268 0.931 . S
C301 C296 1.370 . S
C301 C300 1.391 . S
C302 N276 1.435 . S
C302 C303 1.358 . S
C302 C307 1.371 . S
C303 H269 0.930 . S
C303 C302 1.358 . S
C303 C304 1.405 . S
C304 H270 0.932 . S
C304 C303 1.405 . S
C304 C305 1.383 . S
C305 C304 1.383 . S
C305 C306 1.393 . S
C306 H271 0.931 . S
C306 C305 1.393 . S
C306 C307 1.382 . S
C307 H272 0.929 . S
C307 C302 1.371 . S
C307 C306 1.382 . S
C308 N276 1.423 . S
C308 C309 1.362 . S
C308 C313 1.388 . S
C309 H273 0.929 . S
C309 C308 1.362 . S
C309 C310 1.376 . S
C310 H274 0.931 . S
C310 C309 1.376 . S
C310 C311 1.396 . S
C311 C293 1.472 . S
C311 C310 1.396 . S
C311 C312 1.348 . S
C312 H275 0.929 . S
C312 C311 1.348 . S
C312 C313 1.443 . S
C313 H277 0.932 . S
C313 C308 1.388 . S
C313 C312 1.443 . S
H314 C341 0.929 . S
N315 C340 1.433 . S
N315 C346 1.435 . S
N315 C352 1.423 . S
H316 C342 0.930 . S
H317 C345 0.931 . S
H318 C344 0.929 . S
H319 C347 0.930 . S
H320 C348 0.932 . S
H321 C351 0.929 . S
H322 C350 0.931 . S
H323 C353 0.929 . S
H324 C357 0.932 . S
H325 C354 0.931 . S
H326 C356 0.929 . S
H327 C359 0.929 . S
H328 C360 0.930 . S
H329 C362 0.929 . S
H330 C363 0.931 . S
H331 C365 0.930 . S
H332 C366 0.932 . S
H333 C368 0.931 . S
H334 C369 0.929 . S
H335 C371 0.929 . S
H336 C372 0.931 . S
H337 C374 0.929 . S
N338 C358 1.433 . S
N338 C364 1.435 . S
N338 C370 1.423 . S
H339 C375 0.932 . S
C340 N315 1.433 . S
C340 C341 1.363 . S
C340 C345 1.370 . S
C341 H314 0.929 . S
C341 C340 1.363 . S
C341 C342 1.385 . S
C342 H316 0.930 . S
C342 C341 1.385 . S
C342 C343 1.357 . S
C343 C342 1.357 . S
C343 C344 1.406 . S
C344 H318 0.929 . S
C344 C343 1.406 . S
C344 C345 1.391 . S
C345 H317 0.931 . S
C345 C340 1.370 . S
C345 C344 1.391 . S
C346 N315 1.435 . S
C346 C347 1.358 . S
C346 C351 1.371 . S
C347 H319 0.930 . S
C347 C346 1.358 . S
C347 C348 1.405 . S
C348 H320 0.932 . S
C348 C347 1.405 . S
C348 C349 1.383 . S
C349 C348 1.383 . S
C349 C350 1.393 . S
C350 H322 0.931 . S
C350 C349 1.393 . S
C350 C351 1.382 . S
C351 H321 0.929 . S
C351 C346 1.371 . S
C351 C350 1.382 . S
C352 N315 1.423 . S
C352 C353 1.362 . S
C352 C357 1.388 . S
C353 H323 0.929 . S
C353 C352 1.362 . S
C353 C354 1.376 . S
C354 H325 0.931 . S
C354 C353 1.376 . S
C354 C355 1.396 . S
C355 C354 1.396 . S
C355 C356 1.348 . S
C355 C373 1.472 . S
C356 H326 0.929 . S
C356 C355 1.348 . S
C356 C357 1.443 . S
C357 H324 0.932 . S
C357 C352 1.388 . S
C357 C356 1.443 . S
C358 N338 1.433 . S
C358 C359 1.363 . S
C358 C363 1.370 . S
C359 H327 0.929 . S
C359 C358 1.363 . S
C359 C360 1.385 . S
C360 H328 0.930 . S
C360 C359 1.385 . S
C360 C361 1.357 . S
C361 C360 1.357 . S
C361 C362 1.406 . S
C362 H329 0.929 . S
C362 C361 1.406 . S
C362 C363 1.391 . S
C363 H330 0.931 . S
C363 C358 1.370 . S
C363 C362 1.391 . S
C364 N338 1.435 . S
C364 C365 1.358 . S
C364 C369 1.371 . S
C365 H331 0.930 . S
C365 C364 1.358 . S
C365 C366 1.405 . S
C366 H332 0.932 . S
C366 C365 1.405 . S
C366 C367 1.383 . S
C367 C366 1.383 . S
C367 C368 1.393 . S
C368 H333 0.931 . S
C368 C367 1.393 . S
C368 C369 1.382 . S
C369 H334 0.929 . S
C369 C364 1.371 . S
C369 C368 1.382 . S
C370 N338 1.423 . S
C370 C371 1.362 . S
C370 C375 1.388 . S
C371 H335 0.929 . S
C371 C370 1.362 . S
C371 C372 1.376 . S
C372 H336 0.931 . S
C372 C371 1.376 . S
C372 C373 1.396 . S
C373 C355 1.472 . S
C373 C372 1.396 . S
C373 C374 1.348 . S
C374 H337 0.929 . S
C374 C373 1.348 . S
C374 C375 1.443 . S
C375 H339 0.932 . S
C375 C370 1.388 . S
C375 C374 1.443 . S
H376 C403 0.929 . S
N377 C402 1.433 . S
N377 C408 1.435 . S
N377 C414 1.423 . S
H378 C404 0.930 . S
H379 C407 0.931 . S
H380 C406 0.929 . S
H381 C409 0.930 . S
H382 C410 0.932 . S
H383 C413 0.929 . S
H384 C412 0.931 . S
H385 C415 0.929 . S
H386 C419 0.932 . S
H387 C416 0.931 . S
H388 C418 0.929 . S
H389 C421 0.929 . S
H390 C422 0.930 . S
H391 C424 0.929 . S
H392 C425 0.931 . S
H393 C427 0.930 . S
H394 C428 0.932 . S
H395 C430 0.931 . S
H396 C431 0.929 . S
H397 C433 0.929 . S
H398 C434 0.931 . S
H399 C436 0.929 . S
N400 C420 1.433 . S
N400 C426 1.435 . S
N400 C432 1.423 . S
H401 C437 0.932 . S
C402 N377 1.433 . S
C402 C403 1.363 . S
C402 C407 1.370 . S
C403 H376 0.929 . S
C403 C402 1.363 . S
C403 C404 1.385 . S
C404 H378 0.930 . S
C404 C403 1.385 . S
C404 C405 1.357 . S
C405 C404 1.357 . S
C405 C406 1.406 . S
C406 H380 0.929 . S
C406 C405 1.406 . S
C406 C407 1.391 . S
C407 H379 0.931 . S
C407 C402 1.370 . S
C407 C406 1.391 . S
C408 N377 1.435 . S
C408 C409 1.358 . S
C408 C413 1.371 . S
C409 H381 0.930 . S
C409 C408 1.358 . S
C409 C410 1.405 . S
C410 H382 0.932 . S
C410 C409 1.405 . S
C410 C411 1.383 . S
C411 C410 1.383 . S
C411 C412 1.393 . S
C412 H384 0.931 . S
C412 C411 1.393 . S
C412 C413 1.382 . S
C413 H383 0.929 . S
C413 C408 1.371 . S
C413 C412 1.382 . S
C414 N377 1.423 . S
C414 C415 1.362 . S
C414 C419 1.388 . S
C415 H385 0.929 . S
C415 C414 1.362 . S
C415 C416 1.376 . S
C416 H387 0.931 . S
C416 C415 1.376 . S
C416 C417 1.396 . S
C417 C416 1.396 . S
C417 C418 1.348 . S
C417 C435 1.472 . S
C418 H388 0.929 . S
C418 C417 1.348 . S
C418 C419 1.443 . S
C419 H386 0.932 . S
C419 C414 1.388 . S
C419 C418 1.443 . S
C420 N400 1.433 . S
C420 C421 1.363 . S
C420 C425 1.370 . S
C421 H389 0.929 . S
C421 C420 1.363 . S
C421 C422 1.385 . S
C422 H390 0.930 . S
C422 C421 1.385 . S
C422 C423 1.357 . S
C423 C422 1.357 . S
C423 C424 1.406 . S
C424 H391 0.929 . S
C424 C423 1.406 . S
C424 C425 1.391 . S
C425 H392 0.931 . S
C425 C420 1.370 . S
C425 C424 1.391 . S
C426 N400 1.435 . S
C426 C427 1.358 . S
C426 C431 1.371 . S
C427 H393 0.930 . S
C427 C426 1.358 . S
C427 C428 1.405 . S
C428 H394 0.932 . S
C428 C427 1.405 . S
C428 C429 1.383 . S
C429 C428 1.383 . S
C429 C430 1.393 . S
C430 H395 0.931 . S
C430 C429 1.393 . S
C430 C431 1.382 . S
C431 H396 0.929 . S
C431 C426 1.371 . S
C431 C430 1.382 . S
C432 N400 1.423 . S
C432 C433 1.362 . S
C432 C437 1.388 . S
C433 H397 0.929 . S
C433 C432 1.362 . S
C433 C434 1.376 . S
C434 H398 0.931 . S
C434 C433 1.376 . S
C434 C435 1.396 . S
C435 C417 1.472 . S
C435 C434 1.396 . S
C435 C436 1.348 . S
C436 H399 0.929 . S
C436 C435 1.348 . S
C436 C437 1.443 . S
C437 H401 0.932 . S
C437 C432 1.388 . S
C437 C436 1.443 . S
H438 C465 0.929 . S
N439 C464 1.433 . S
N439 C470 1.435 . S
N439 C476 1.423 . S
H440 C466 0.930 . S
H441 C469 0.931 . S
H442 C468 0.929 . S
H443 C471 0.930 . S
H444 C472 0.932 . S
H445 C475 0.929 . S
H446 C474 0.931 . S
H447 C477 0.929 . S
H448 C481 0.932 . S
H449 C478 0.931 . S
H450 C480 0.929 . S
H451 C483 0.929 . S
H452 C484 0.930 . S
H453 C486 0.929 . S
H454 C487 0.931 . S
H455 C489 0.930 . S
H456 C490 0.932 . S
H457 C492 0.931 . S
H458 C493 0.929 . S
H459 C495 0.929 . S
H460 C496 0.931 . S
H461 C498 0.929 . S
N462 C482 1.433 . S
N462 C488 1.435 . S
N462 C494 1.423 . S
H463 C499 0.932 . S
C464 N439 1.433 . S
C464 C465 1.363 . S
C464 C469 1.370 . S
C465 H438 0.929 . S
C465 C464 1.363 . S
C465 C466 1.385 . S
C466 H440 0.930 . S
C466 C465 1.385 . S
C466 C467 1.357 . S
C467 C466 1.357 . S
C467 C468 1.406 . S
C468 H442 0.929 . S
C468 C467 1.406 . S
C468 C469 1.391 . S
C469 H441 0.931 . S
C469 C464 1.370 . S
C469 C468 1.391 . S
C470 N439 1.435 . S
C470 C471 1.358 . S
C470 C475 1.371 . S
C471 H443 0.930 . S
C471 C470 1.358 . S
C471 C472 1.405 . S
C472 H444 0.932 . S
C472 C471 1.405 . S
C472 C473 1.383 . S
C473 C472 1.383 . S
C473 C474 1.393 . S
C474 H446 0.931 . S
C474 C473 1.393 . S
C474 C475 1.382 . S
C475 H445 0.929 . S
C475 C470 1.371 . S
C475 C474 1.382 . S
C476 N439 1.423 . S
C476 C477 1.362 . S
C476 C481 1.388 . S
C477 H447 0.929 . S
C477 C476 1.362 . S
C477 C478 1.376 . S
C478 H449 0.931 . S
C478 C477 1.376 . S
C478 C479 1.396 . S
C479 C478 1.396 . S
C479 C480 1.348 . S
C479 C497 1.472 . S
C480 H450 0.929 . S
C480 C479 1.348 . S
C480 C481 1.443 . S
C481 H448 0.932 . S
C481 C476 1.388 . S
C481 C480 1.443 . S
C482 N462 1.433 . S
C482 C483 1.363 . S
C482 C487 1.370 . S
C483 H451 0.929 . S
C483 C482 1.363 . S
C483 C484 1.385 . S
C484 H452 0.930 . S
C484 C483 1.385 . S
C484 C485 1.357 . S
C485 C484 1.357 . S
C485 C486 1.406 . S
C486 H453 0.929 . S
C486 C485 1.406 . S
C486 C487 1.391 . S
C487 H454 0.931 . S
C487 C482 1.370 . S
C487 C486 1.391 . S
C488 N462 1.435 . S
C488 C489 1.358 . S
C488 C493 1.371 . S
C489 H455 0.930 . S
C489 C488 1.358 . S
C489 C490 1.405 . S
C490 H456 0.932 . S
C490 C489 1.405 . S
C490 C491 1.383 . S
C491 C490 1.383 . S
C491 C492 1.393 . S
C492 H457 0.931 . S
C492 C491 1.393 . S
C492 C493 1.382 . S
C493 H458 0.929 . S
C493 C488 1.371 . S
C493 C492 1.382 . S
C494 N462 1.423 . S
C494 C495 1.362 . S
C494 C499 1.388 . S
C495 H459 0.929 . S
C495 C494 1.362 . S
C495 C496 1.376 . S
C496 H460 0.931 . S
C496 C495 1.376 . S
C496 C497 1.396 . S
C497 C479 1.472 . S
C497 C496 1.396 . S
C497 C498 1.348 . S
C498 H461 0.929 . S
C498 C497 1.348 . S
C498 C499 1.443 . S
C499 H463 0.932 . S
C499 C494 1.388 . S
C499 C498 1.443 . S
H500 C527 0.929 . S
N501 C526 1.433 . S
N501 C532 1.435 . S
N501 C538 1.423 . S
H502 C528 0.930 . S
H503 C531 0.931 . S
H504 C530 0.929 . S
H505 C533 0.930 . S
H506 C534 0.932 . S
H507 C537 0.929 . S
H508 C536 0.931 . S
H509 C539 0.929 . S
H510 C543 0.932 . S
H511 C540 0.931 . S
H512 C542 0.929 . S
H513 C545 0.929 . S
H514 C546 0.930 . S
H515 C548 0.929 . S
H516 C549 0.931 . S
H517 C551 0.930 . S
H518 C552 0.932 . S
H519 C554 0.931 . S
H520 C555 0.929 . S
H521 C557 0.929 . S
H522 C558 0.931 . S
H523 C560 0.929 . S
N524 C544 1.433 . S
N524 C550 1.435 . S
N524 C556 1.423 . S
H525 C561 0.932 . S
C526 N501 1.433 . S
C526 C527 1.363 . S
C526 C531 1.370 . S
C527 H500 0.929 . S
C527 C526 1.363 . S
C527 C528 1.385 . S
C528 H502 0.930 . S
C528 C527 1.385 . S
C528 C529 1.357 . S
C529 C528 1.357 . S
C529 C530 1.406 . S
C530 H504 0.929 . S
C530 C529 1.406 . S
C530 C531 1.391 . S
C531 H503 0.931 . S
C531 C526 1.370 . S
C531 C530 1.391 . S
C532 N501 1.435 . S
C532 C533 1.358 . S
C532 C537 1.371 . S
C533 H505 0.930 . S
C533 C532 1.358 . S
C533 C534 1.405 . S
C534 H506 0.932 . S
C534 C533 1.405 . S
C534 C535 1.383 . S
C535 C534 1.383 . S
C535 C536 1.393 . S
C536 H508 0.931 . S
C536 C535 1.393 . S
C536 C537 1.382 . S
C537 H507 0.929 . S
C537 C532 1.371 . S
C537 C536 1.382 . S
C538 N501 1.423 . S
C538 C539 1.362 . S
C538 C543 1.388 . S
C539 H509 0.929 . S
C539 C538 1.362 . S
C539 C540 1.376 . S
C540 H511 0.931 . S
C540 C539 1.376 . S
C540 C541 1.396 . S
C541 C540 1.396 . S
C541 C542 1.348 . S
C541 C559 1.472 . S
C542 H512 0.929 . S
C542 C541 1.348 . S
C542 C543 1.443 . S
C543 H510 0.932 . S
C543 C538 1.388 . S
C543 C542 1.443 . S
C544 N524 1.433 . S
C544 C545 1.363 . S
C544 C549 1.370 . S
C545 H513 0.929 . S
C545 C544 1.363 . S
C545 C546 1.385 . S
C546 H514 0.930 . S
C546 C545 1.385 . S
C546 C547 1.357 . S
C547 C546 1.357 . S
C547 C548 1.406 . S
C548 H515 0.929 . S
C548 C547 1.406 . S
C548 C549 1.391 . S
C549 H516 0.931 . S
C549 C544 1.370 . S
C549 C548 1.391 . S
C550 N524 1.435 . S
C550 C551 1.358 . S
C550 C555 1.371 . S
C551 H517 0.930 . S
C551 C550 1.358 . S
C551 C552 1.405 . S
C552 H518 0.932 . S
C552 C551 1.405 . S
C552 C553 1.383 . S
C553 C552 1.383 . S
C553 C554 1.393 . S
C554 H519 0.931 . S
C554 C553 1.393 . S
C554 C555 1.382 . S
C555 H520 0.929 . S
C555 C550 1.371 . S
C555 C554 1.382 . S
C556 N524 1.423 . S
C556 C557 1.362 . S
C556 C561 1.388 . S
C557 H521 0.929 . S
C557 C556 1.362 . S
C557 C558 1.376 . S
C558 H522 0.931 . S
C558 C557 1.376 . S
C558 C559 1.396 . S
C559 C541 1.472 . S
C559 C558 1.396 . S
C559 C560 1.348 . S
C560 H523 0.929 . S
C560 C559 1.348 . S
C560 C561 1.443 . S
C561 H525 0.932 . S
C561 C556 1.388 . S
C561 C560 1.443 . S
H562 C589 0.929 . S
N563 C588 1.433 . S
N563 C594 1.435 . S
N563 C600 1.423 . S
H564 C590 0.930 . S
H565 C593 0.931 . S
H566 C592 0.929 . S
H567 C595 0.930 . S
H568 C596 0.932 . S
H569 C599 0.929 . S
H570 C598 0.931 . S
H571 C601 0.929 . S
H572 C605 0.932 . S
H573 C602 0.931 . S
H574 C604 0.929 . S
H575 C607 0.929 . S
H576 C608 0.930 . S
H577 C610 0.929 . S
H578 C611 0.931 . S
H579 C613 0.930 . S
H580 C614 0.932 . S
H581 C616 0.931 . S
H582 C617 0.929 . S
H583 C619 0.929 . S
H584 C620 0.931 . S
H585 C622 0.929 . S
N586 C606 1.433 . S
N586 C612 1.435 . S
N586 C618 1.423 . S
H587 C623 0.932 . S
C588 N563 1.433 . S
C588 C589 1.363 . S
C588 C593 1.370 . S
C589 H562 0.929 . S
C589 C588 1.363 . S
C589 C590 1.385 . S
C590 H564 0.930 . S
C590 C589 1.385 . S
C590 C591 1.357 . S
C591 C590 1.357 . S
C591 C592 1.406 . S
C592 H566 0.929 . S
C592 C591 1.406 . S
C592 C593 1.391 . S
C593 H565 0.931 . S
C593 C588 1.370 . S
C593 C592 1.391 . S
C594 N563 1.435 . S
C594 C595 1.358 . S
C594 C599 1.371 . S
C595 H567 0.930 . S
C595 C594 1.358 . S
C595 C596 1.405 . S
C596 H568 0.932 . S
C596 C595 1.405 . S
C596 C597 1.383 . S
C597 C596 1.383 . S
C597 C598 1.393 . S
C598 H570 0.931 . S
C598 C597 1.393 . S
C598 C599 1.382 . S
C599 H569 0.929 . S
C599 C594 1.371 . S
C599 C598 1.382 . S
C600 N563 1.423 . S
C600 C601 1.362 . S
C600 C605 1.388 . S
C601 H571 0.929 . S
C601 C600 1.362 . S
C601 C602 1.376 . S
C602 H573 0.931 . S
C602 C601 1.376 . S
C602 C603 1.396 . S
C603 C602 1.396 . S
C603 C604 1.348 . S
C603 C621 1.472 . S
C604 H574 0.929 . S
C604 C603 1.348 . S
C604 C605 1.443 . S
C605 H572 0.932 . S
C605 C600 1.388 . S
C605 C604 1.443 . S
C606 N586 1.433 . S
C606 C607 1.363 . S
C606 C611 1.370 . S
C607 H575 0.929 . S
C607 C606 1.363 . S
C607 C608 1.385 . S
C608 H576 0.930 . S
C608 C607 1.385 . S
C608 C609 1.357 . S
C609 C608 1.357 . S
C609 C610 1.406 . S
C610 H577 0.929 . S
C610 C609 1.406 . S
C610 C611 1.391 . S
C611 H578 0.931 . S
C611 C606 1.370 . S
C611 C610 1.391 . S
C612 N586 1.435 . S
C612 C613 1.358 . S
C612 C617 1.371 . S
C613 H579 0.930 . S
C613 C612 1.358 . S
C613 C614 1.405 . S
C614 H580 0.932 . S
C614 C613 1.405 . S
C614 C615 1.383 . S
C615 C614 1.383 . S
C615 C616 1.393 . S
C616 H581 0.931 . S
C616 C615 1.393 . S
C616 C617 1.382 . S
C617 H582 0.929 . S
C617 C612 1.371 . S
C617 C616 1.382 . S
C618 N586 1.423 . S
C618 C619 1.362 . S
C618 C623 1.388 . S
C619 H583 0.929 . S
C619 C618 1.362 . S
C619 C620 1.376 . S
C620 H584 0.931 . S
C620 C619 1.376 . S
C620 C621 1.396 . S
C621 C603 1.472 . S
C621 C620 1.396 . S
C621 C622 1.348 . S
C622 H585 0.929 . S
C622 C621 1.348 . S
C622 C623 1.443 . S
C623 H587 0.932 . S
C623 C618 1.388 . S
C623 C622 1.443 . S
H624 C651 0.929 . S
N625 C650 1.433 . S
N625 C656 1.435 . S
N625 C662 1.423 . S
H626 C652 0.930 . S
H627 C655 0.931 . S
H628 C654 0.929 . S
H629 C657 0.930 . S
H630 C658 0.932 . S
H631 C661 0.929 . S
H632 C660 0.931 . S
H633 C663 0.929 . S
H634 C667 0.932 . S
H635 C664 0.931 . S
H636 C666 0.929 . S
H637 C669 0.929 . S
H638 C670 0.930 . S
H639 C672 0.929 . S
H640 C673 0.931 . S
H641 C675 0.930 . S
H642 C676 0.932 . S
H643 C678 0.931 . S
H644 C679 0.929 . S
H645 C681 0.929 . S
H646 C682 0.931 . S
H647 C684 0.929 . S
N648 C668 1.433 . S
N648 C674 1.435 . S
N648 C680 1.423 . S
H649 C685 0.932 . S
C650 N625 1.433 . S
C650 C651 1.363 . S
C650 C655 1.370 . S
C651 H624 0.929 . S
C651 C650 1.363 . S
C651 C652 1.385 . S
C652 H626 0.930 . S
C652 C651 1.385 . S
C652 C653 1.357 . S
C653 C652 1.357 . S
C653 C654 1.406 . S
C654 H628 0.929 . S
C654 C653 1.406 . S
C654 C655 1.391 . S
C655 H627 0.931 . S
C655 C650 1.370 . S
C655 C654 1.391 . S
C656 N625 1.435 . S
C656 C657 1.358 . S
C656 C661 1.371 . S
C657 H629 0.930 . S
C657 C656 1.358 . S
C657 C658 1.405 . S
C658 H630 0.932 . S
C658 C657 1.405 . S
C658 C659 1.383 . S
C659 C658 1.383 . S
C659 C660 1.393 . S
C660 H632 0.931 . S
C660 C659 1.393 . S
C660 C661 1.382 . S
C661 H631 0.929 . S
C661 C656 1.371 . S
C661 C660 1.382 . S
C662 N625 1.423 . S
C662 C663 1.362 . S
C662 C667 1.388 . S
C663 H633 0.929 . S
C663 C662 1.362 . S
C663 C664 1.376 . S
C664 H635 0.931 . S
C664 C663 1.376 . S
C664 C665 1.396 . S
C665 C664 1.396 . S
C665 C666 1.348 . S
C665 C683 1.472 . S
C666 H636 0.929 . S
C666 C665 1.348 . S
C666 C667 1.443 . S
C667 H634 0.932 . S
C667 C662 1.388 . S
C667 C666 1.443 . S
C668 N648 1.433 . S
C668 C669 1.363 . S
C668 C673 1.370 . S
C669 H637 0.929 . S
C669 C668 1.363 . S
C669 C670 1.385 . S
C670 H638 0.930 . S
C670 C669 1.385 . S
C670 C671 1.357 . S
C671 C670 1.357 . S
C671 C672 1.406 . S
C672 H639 0.929 . S
C672 C671 1.406 . S
C672 C673 1.391 . S
C673 H640 0.931 . S
C673 C668 1.370 . S
C673 C672 1.391 . S
C674 N648 1.435 . S
C674 C675 1.358 . S
C674 C679 1.371 . S
C675 H641 0.930 . S
C675 C674 1.358 . S
C675 C676 1.405 . S
C676 H642 0.932 . S
C676 C675 1.405 . S
C676 C677 1.383 . S
C677 C676 1.383 . S
C677 C678 1.393 . S
C678 H643 0.931 . S
C678 C677 1.393 . S
C678 C679 1.382 . S
C679 H644 0.929 . S
C679 C674 1.371 . S
C679 C678 1.382 . S
C680 N648 1.423 . S
C680 C681 1.362 . S
C680 C685 1.388 . S
C681 H645 0.929 . S
C681 C680 1.362 . S
C681 C682 1.376 . S
C682 H646 0.931 . S
C682 C681 1.376 . S
C682 C683 1.396 . S
C683 C665 1.472 . S
C683 C682 1.396 . S
C683 C684 1.348 . S
C684 H647 0.929 . S
C684 C683 1.348 . S
C684 C685 1.443 . S
C685 H649 0.932 . S
C685 C680 1.388 . S
C685 C684 1.443 . S
H686 C713 0.929 . S
N687 C712 1.433 . S
N687 C718 1.435 . S
N687 C724 1.423 . S
H688 C714 0.930 . S
H689 C717 0.931 . S
H690 C716 0.929 . S
H691 C719 0.930 . S
H692 C720 0.932 . S
H693 C723 0.929 . S
H694 C722 0.931 . S
H695 C725 0.929 . S
H696 C729 0.932 . S
H697 C726 0.931 . S
H698 C728 0.929 . S
H699 C731 0.929 . S
H700 C732 0.930 . S
H701 C734 0.929 . S
H702 C735 0.931 . S
H703 C737 0.930 . S
H704 C738 0.932 . S
H705 C740 0.931 . S
H706 C741 0.929 . S
H707 C743 0.929 . S
H708 C744 0.931 . S
H709 C746 0.929 . S
N710 C730 1.433 . S
N710 C736 1.435 . S
N710 C742 1.423 . S
H711 C747 0.932 . S
C712 N687 1.433 . S
C712 C713 1.363 . S
C712 C717 1.370 . S
C713 H686 0.929 . S
C713 C712 1.363 . S
C713 C714 1.385 . S
C714 H688 0.930 . S
C714 C713 1.385 . S
C714 C715 1.357 . S
C715 C714 1.357 . S
C715 C716 1.406 . S
C716 H690 0.929 . S
C716 C715 1.406 . S
C716 C717 1.391 . S
C717 H689 0.931 . S
C717 C712 1.370 . S
C717 C716 1.391 . S
C718 N687 1.435 . S
C718 C719 1.358 . S
C718 C723 1.371 . S
C719 H691 0.930 . S
C719 C718 1.358 . S
C719 C720 1.405 . S
C720 H692 0.932 . S
C720 C719 1.405 . S
C720 C721 1.383 . S
C721 C720 1.383 . S
C721 C722 1.393 . S
C722 H694 0.931 . S
C722 C721 1.393 . S
C722 C723 1.382 . S
C723 H693 0.929 . S
C723 C718 1.371 . S
C723 C722 1.382 . S
C724 N687 1.423 . S
C724 C725 1.362 . S
C724 C729 1.388 . S
C725 H695 0.929 . S
C725 C724 1.362 . S
C725 C726 1.376 . S
C726 H697 0.931 . S
C726 C725 1.376 . S
C726 C727 1.396 . S
C727 C726 1.396 . S
C727 C728 1.348 . S
C727 C745 1.472 . S
C728 H698 0.929 . S
C728 C727 1.348 . S
C728 C729 1.443 . S
C729 H696 0.932 . S
C729 C724 1.388 . S
C729 C728 1.443 . S
C730 N710 1.433 . S
C730 C731 1.363 . S
C730 C735 1.370 . S
C731 H699 0.929 . S
C731 C730 1.363 . S
C731 C732 1.385 . S
C732 H700 0.930 . S
C732 C731 1.385 . S
C732 C733 1.357 . S
C733 C732 1.357 . S
C733 C734 1.406 . S
C734 H701 0.929 . S
C734 C733 1.406 . S
C734 C735 1.391 . S
C735 H702 0.931 . S
C735 C730 1.370 . S
C735 C734 1.391 . S
C736 N710 1.435 . S
C736 C737 1.358 . S
C736 C741 1.371 . S
C737 H703 0.930 . S
C737 C736 1.358 . S
C737 C738 1.405 . S
C738 H704 0.932 . S
C738 C737 1.405 . S
C738 C739 1.383 . S
C739 C738 1.383 . S
C739 C740 1.393 . S
C740 H705 0.931 . S
C740 C739 1.393 . S
C740 C741 1.382 . S
C741 H706 0.929 . S
C741 C736 1.371 . S
C741 C740 1.382 . S
C742 N710 1.423 . S
C742 C743 1.362 . S
C742 C747 1.388 . S
C743 H707 0.929 . S
C743 C742 1.362 . S
C743 C744 1.376 . S
C744 H708 0.931 . S
C744 C743 1.376 . S
C744 C745 1.396 . S
C745 C727 1.472 . S
C745 C744 1.396 . S
C745 C746 1.348 . S
C746 H709 0.929 . S
C746 C745 1.348 . S
C746 C747 1.443 . S
C747 H711 0.932 . S
C747 C742 1.388 . S
C747 C746 1.443 . S
H748 C775 0.929 . S
N749 C774 1.433 . S
N749 C780 1.435 . S
N749 C786 1.423 . S
H750 C776 0.930 . S
H751 C779 0.931 . S
H752 C778 0.929 . S
H753 C781 0.930 . S
H754 C782 0.932 . S
H755 C785 0.929 . S
H756 C784 0.931 . S
H757 C787 0.929 . S
H758 C791 0.932 . S
H759 C788 0.931 . S
H760 C790 0.929 . S
H761 C793 0.929 . S
H762 C794 0.930 . S
H763 C796 0.929 . S
H764 C797 0.931 . S
H765 C799 0.930 . S
H766 C800 0.932 . S
H767 C802 0.931 . S
H768 C803 0.929 . S
H769 C805 0.929 . S
H770 C806 0.931 . S
H771 C808 0.929 . S
N772 C792 1.433 . S
N772 C798 1.435 . S
N772 C804 1.423 . S
H773 C809 0.932 . S
C774 N749 1.433 . S
C774 C775 1.363 . S
C774 C779 1.370 . S
C775 H748 0.929 . S
C775 C774 1.363 . S
C775 C776 1.385 . S
C776 H750 0.930 . S
C776 C775 1.385 . S
C776 C777 1.357 . S
C777 C776 1.357 . S
C777 C778 1.406 . S
C778 H752 0.929 . S
C778 C777 1.406 . S
C778 C779 1.391 . S
C779 H751 0.931 . S
C779 C774 1.370 . S
C779 C778 1.391 . S
C780 N749 1.435 . S
C780 C781 1.358 . S
C780 C785 1.371 . S
C781 H753 0.930 . S
C781 C780 1.358 . S
C781 C782 1.405 . S
C782 H754 0.932 . S
C782 C781 1.405 . S
C782 C783 1.383 . S
C783 C782 1.383 . S
C783 C784 1.393 . S
C784 H756 0.931 . S
C784 C783 1.393 . S
C784 C785 1.382 . S
C785 H755 0.929 . S
C785 C780 1.371 . S
C785 C784 1.382 . S
C786 N749 1.423 . S
C786 C787 1.362 . S
C786 C791 1.388 . S
C787 H757 0.929 . S
C787 C786 1.362 . S
C787 C788 1.376 . S
C788 H759 0.931 . S
C788 C787 1.376 . S
C788 C789 1.396 . S
C789 C788 1.396 . S
C789 C790 1.348 . S
C789 C807 1.472 . S
C790 H760 0.929 . S
C790 C789 1.348 . S
C790 C791 1.443 . S
C791 H758 0.932 . S
C791 C786 1.388 . S
C791 C790 1.443 . S
C792 N772 1.433 . S
C792 C793 1.363 . S
C792 C797 1.370 . S
C793 H761 0.929 . S
C793 C792 1.363 . S
C793 C794 1.385 . S
C794 H762 0.930 . S
C794 C793 1.385 . S
C794 C795 1.357 . S
C795 C794 1.357 . S
C795 C796 1.406 . S
C796 H763 0.929 . S
C796 C795 1.406 . S
C796 C797 1.391 . S
C797 H764 0.931 . S
C797 C792 1.370 . S
C797 C796 1.391 . S
C798 N772 1.435 . S
C798 C799 1.358 . S
C798 C803 1.371 . S
C799 H765 0.930 . S
C799 C798 1.358 . S
C799 C800 1.405 . S
C800 H766 0.932 . S
C800 C799 1.405 . S
C800 C801 1.383 . S
C801 C800 1.383 . S
C801 C802 1.393 . S
C802 H767 0.931 . S
C802 C801 1.393 . S
C802 C803 1.382 . S
C803 H768 0.929 . S
C803 C798 1.371 . S
C803 C802 1.382 . S
C804 N772 1.423 . S
C804 C805 1.362 . S
C804 C809 1.388 . S
C805 H769 0.929 . S
C805 C804 1.362 . S
C805 C806 1.376 . S
C806 H770 0.931 . S
C806 C805 1.376 . S
C806 C807 1.396 . S
C807 C789 1.472 . S
C807 C806 1.396 . S
C807 C808 1.348 . S
C808 H771 0.929 . S
C808 C807 1.348 . S
C808 C809 1.443 . S
C809 H773 0.932 . S
C809 C804 1.388 . S
C809 C808 1.443 . S
H810 C837 0.929 . S
N811 C836 1.433 . S
N811 C842 1.435 . S
N811 C848 1.423 . S
H812 C838 0.930 . S
H813 C841 0.931 1_655 S
H814 C840 0.929 . S
H815 C843 0.930 1_655 S
H816 C844 0.932 1_655 S
H817 C847 0.929 . S
H818 C846 0.931 . S
H819 C849 0.929 . S
H820 C853 0.932 . S
H821 C850 0.931 . S
H822 C852 0.929 . S
H823 C855 0.929 . S
H824 C856 0.930 . S
H825 C858 0.929 . S
H826 C859 0.931 1_655 S
H827 C861 0.930 1_655 S
H828 C862 0.932 1_655 S
H829 C864 0.931 . S
H830 C865 0.929 . S
H831 C867 0.929 . S
H832 C868 0.931 . S
H833 C870 0.929 . S
N834 C854 1.433 . S
N834 C860 1.435 . S
N834 C866 1.423 . S
H835 C871 0.932 . S
C836 N811 1.433 . S
C836 C837 1.363 . S
C836 C841 1.370 . S
C837 H810 0.929 . S
C837 C836 1.363 . S
C837 C838 1.385 . S
C838 H812 0.930 . S
C838 C837 1.385 . S
C838 C839 1.357 . S
C839 C838 1.357 . S
C839 C840 1.406 1_455 S
C840 H814 0.929 . S
C840 C839 1.406 1_655 S
C840 C841 1.391 1_655 S
C841 H813 0.931 1_455 S
C841 C836 1.370 . S
C841 C840 1.391 1_455 S
C842 N811 1.435 . S
C842 C843 1.358 . S
C842 C847 1.371 . S
C843 H815 0.930 1_455 S
C843 C842 1.358 . S
C843 C844 1.405 . S
C844 H816 0.932 1_455 S
C844 C843 1.405 . S
C844 C845 1.383 . S
C845 C844 1.383 . S
C845 C846 1.393 . S
C846 H818 0.931 . S
C846 C845 1.393 . S
C846 C847 1.382 . S
C847 H817 0.929 . S
C847 C842 1.371 . S
C847 C846 1.382 . S
C848 N811 1.423 . S
C848 C849 1.362 . S
C848 C853 1.388 . S
C849 H819 0.929 . S
C849 C848 1.362 . S
C849 C850 1.376 . S
C850 H821 0.931 . S
C850 C849 1.376 . S
C850 C851 1.396 . S
C851 C850 1.396 . S
C851 C852 1.348 . S
C851 C869 1.472 . S
C852 H822 0.929 . S
C852 C851 1.348 . S
C852 C853 1.443 . S
C853 H820 0.932 . S
C853 C848 1.388 . S
C853 C852 1.443 . S
C854 N834 1.433 . S
C854 C855 1.363 . S
C854 C859 1.370 . S
C855 H823 0.929 . S
C855 C854 1.363 . S
C855 C856 1.385 . S
C856 H824 0.930 . S
C856 C855 1.385 . S
C856 C857 1.357 . S
C857 C856 1.357 . S
C857 C858 1.406 1_455 S
C858 H825 0.929 . S
C858 C857 1.406 1_655 S
C858 C859 1.391 1_655 S
C859 H826 0.931 1_455 S
C859 C854 1.370 . S
C859 C858 1.391 1_455 S
C860 N834 1.435 . S
C860 C861 1.358 . S
C860 C865 1.371 . S
C861 H827 0.930 1_455 S
C861 C860 1.358 . S
C861 C862 1.405 . S
C862 H828 0.932 1_455 S
C862 C861 1.405 . S
C862 C863 1.383 . S
C863 C862 1.383 . S
C863 C864 1.393 . S
C864 H829 0.931 . S
C864 C863 1.393 . S
C864 C865 1.382 . S
C865 H830 0.929 . S
C865 C860 1.371 . S
C865 C864 1.382 . S
C866 N834 1.423 . S
C866 C867 1.362 . S
C866 C871 1.388 . S
C867 H831 0.929 . S
C867 C866 1.362 . S
C867 C868 1.376 . S
C868 H832 0.931 . S
C868 C867 1.376 . S
C868 C869 1.396 . S
C869 C851 1.472 . S
C869 C868 1.396 . S
C869 C870 1.348 . S
C870 H833 0.929 . S
C870 C869 1.348 . S
C870 C871 1.443 . S
C871 H835 0.932 . S
C871 C866 1.388 . S
C871 C870 1.443 . S
H872 C899 0.929 . S
N873 C898 1.433 . S
N873 C904 1.435 . S
N873 C910 1.423 . S
H874 C900 0.930 . S
H875 C903 0.931 . S
H876 C902 0.929 . S
H877 C905 0.930 . S
H878 C906 0.932 . S
H879 C909 0.929 . S
H880 C908 0.931 . S
H881 C911 0.929 . S
H882 C915 0.932 . S
H883 C912 0.931 . S
H884 C914 0.929 . S
H885 C917 0.929 . S
H886 C918 0.930 . S
H887 C920 0.929 . S
H888 C921 0.931 . S
H889 C923 0.930 . S
H890 C924 0.932 . S
H891 C926 0.931 . S
H892 C927 0.929 . S
H893 C929 0.929 . S
H894 C930 0.931 . S
H895 C932 0.929 . S
N896 C916 1.433 . S
N896 C922 1.435 . S
N896 C928 1.423 . S
H897 C933 0.932 . S
C898 N873 1.433 . S
C898 C899 1.363 . S
C898 C903 1.370 . S
C899 H872 0.929 . S
C899 C898 1.363 . S
C899 C900 1.385 . S
C900 H874 0.930 . S
C900 C899 1.385 . S
C900 C901 1.357 . S
C901 C900 1.357 . S
C901 C902 1.406 . S
C902 H876 0.929 . S
C902 C901 1.406 . S
C902 C903 1.391 . S
C903 H875 0.931 . S
C903 C898 1.370 . S
C903 C902 1.391 . S
C904 N873 1.435 . S
C904 C905 1.358 . S
C904 C909 1.371 . S
C905 H877 0.930 . S
C905 C904 1.358 . S
C905 C906 1.405 . S
C906 H878 0.932 . S
C906 C905 1.405 . S
C906 C907 1.383 . S
C907 C906 1.383 . S
C907 C908 1.393 . S
C908 H880 0.931 . S
C908 C907 1.393 . S
C908 C909 1.382 . S
C909 H879 0.929 . S
C909 C904 1.371 . S
C909 C908 1.382 . S
C910 N873 1.423 . S
C910 C911 1.362 . S
C910 C915 1.388 . S
C911 H881 0.929 . S
C911 C910 1.362 . S
C911 C912 1.376 . S
C912 H883 0.931 . S
C912 C911 1.376 . S
C912 C913 1.396 . S
C913 C912 1.396 . S
C913 C914 1.348 . S
C913 C931 1.472 . S
C914 H884 0.929 . S
C914 C913 1.348 . S
C914 C915 1.443 . S
C915 H882 0.932 . S
C915 C910 1.388 . S
C915 C914 1.443 . S
C916 N896 1.433 . S
C916 C917 1.363 . S
C916 C921 1.370 . S
C917 H885 0.929 . S
C917 C916 1.363 . S
C917 C918 1.385 . S
C918 H886 0.930 . S
C918 C917 1.385 . S
C918 C919 1.357 . S
C919 C918 1.357 . S
C919 C920 1.406 . S
C920 H887 0.929 . S
C920 C919 1.406 . S
C920 C921 1.391 . S
C921 H888 0.931 . S
C921 C916 1.370 . S
C921 C920 1.391 . S
C922 N896 1.435 . S
C922 C923 1.358 . S
C922 C927 1.371 . S
C923 H889 0.930 . S
C923 C922 1.358 . S
C923 C924 1.405 . S
C924 H890 0.932 . S
C924 C923 1.405 . S
C924 C925 1.383 . S
C925 C924 1.383 . S
C925 C926 1.393 . S
C926 H891 0.931 . S
C926 C925 1.393 . S
C926 C927 1.382 . S
C927 H892 0.929 . S
C927 C922 1.371 . S
C927 C926 1.382 . S
C928 N896 1.423 . S
C928 C929 1.362 . S
C928 C933 1.388 . S
C929 H893 0.929 . S
C929 C928 1.362 . S
C929 C930 1.376 . S
C930 H894 0.931 . S
C930 C929 1.376 . S
C930 C931 1.396 . S
C931 C913 1.472 . S
C931 C930 1.396 . S
C931 C932 1.348 . S
C932 H895 0.929 . S
C932 C931 1.348 . S
C932 C933 1.443 . S
C933 H897 0.932 . S
C933 C928 1.388 . S
C933 C932 1.443 . S
H934 C961 0.929 . S
N935 C960 1.433 . S
N935 C966 1.435 . S
N935 C972 1.423 . S
H936 C962 0.930 . S
H937 C965 0.931 . S
H938 C964 0.929 . S
H939 C967 0.930 . S
H940 C968 0.932 . S
H941 C971 0.929 . S
H942 C970 0.931 . S
H943 C973 0.929 . S
H944 C977 0.932 1_545 S
H945 C974 0.931 . S
H946 C976 0.981 . S
H947 C979 0.929 . S
H948 C980 0.930 . S
H949 C982 0.929 . S
H950 C983 0.931 . S
H951 C985 0.930 . S
H952 C986 0.932 . S
H953 C988 0.931 . S
H954 C989 0.929 . S
H955 C991 0.929 . S
H956 C992 0.931 . S
H957 C994 0.941 . S
N958 C978 1.433 . S
N958 C984 1.435 . S
N958 C990 1.423 . S
H959 C995 0.932 1_545 S
C960 N935 1.433 . S
C960 C961 1.363 . S
C960 C965 1.370 1_565 S
C961 H934 0.929 . S
C961 C960 1.363 . S
C961 C962 1.385 . S
C962 H936 0.930 . S
C962 C961 1.385 . S
C962 C963 1.357 1_565 S
C963 C962 1.357 1_545 S
C963 C964 1.406 . S
C964 H938 0.929 . S
C964 C963 1.406 . S
C964 C965 1.391 . S
C965 H937 0.931 . S
C965 C960 1.370 1_545 S
C965 C964 1.391 . S
C966 N935 1.435 . S
C966 C967 1.358 1_565 S
C966 C971 1.371 . S
C967 H939 0.930 . S
C967 C966 1.358 1_545 S
C967 C968 1.405 . S
C968 H940 0.932 . S
C968 C967 1.405 . S
C968 C969 1.383 1_545 S
C969 C968 1.383 1_565 S
C969 C970 1.393 . S
C970 H942 0.931 . S
C970 C969 1.393 . S
C970 C971 1.382 . S
C971 H941 0.929 . S
C971 C966 1.371 . S
C971 C970 1.382 . S
C972 N935 1.423 . S
C972 C973 1.362 . S
C972 C977 1.388 . S
C973 H943 0.929 . S
C973 C972 1.362 . S
C973 C974 1.376 . S
C974 H945 0.931 . S
C974 C973 1.376 . S
C974 C975 1.396 . S
C975 C974 1.396 . S
C975 C976 1.348 . S
C975 C993 1.472 . S
C976 H946 0.981 . S
C976 C975 1.348 . S
C976 C977 1.443 . S
C977 H944 0.932 1_565 S
C977 C972 1.388 . S
C977 C976 1.443 . S
C978 N958 1.433 . S
C978 C979 1.363 . S
C978 C983 1.370 1_565 S
C979 H947 0.929 . S
C979 C978 1.363 . S
C979 C980 1.385 . S
C980 H948 0.930 . S
C980 C979 1.385 . S
C980 C981 1.357 1_565 S
C981 C980 1.357 1_545 S
C981 C982 1.406 . S
C982 H949 0.929 . S
C982 C981 1.406 . S
C982 C983 1.391 . S
C983 H950 0.931 . S
C983 C978 1.370 1_545 S
C983 C982 1.391 . S
C984 N958 1.435 . S
C984 C985 1.358 1_565 S
C984 C989 1.371 . S
C985 H951 0.930 . S
C985 C984 1.358 1_545 S
C985 C986 1.405 . S
C986 H952 0.932 . S
C986 C985 1.405 . S
C986 C987 1.383 1_545 S
C987 C986 1.383 1_565 S
C987 C988 1.393 . S
C988 H953 0.931 . S
C988 C987 1.393 . S
C988 C989 1.382 . S
C989 H954 0.929 . S
C989 C984 1.371 . S
C989 C988 1.382 . S
C990 N958 1.423 . S
C990 C991 1.362 . S
C990 C995 1.388 . S
C991 H955 0.929 . S
C991 C990 1.362 . S
C991 C992 1.376 . S
C992 H956 0.931 . S
C992 C991 1.376 . S
C992 C993 1.396 . S
C993 C975 1.472 . S
C993 C992 1.396 . S
C993 C994 1.348 . S
C994 H957 0.941 . S
C994 C993 1.348 . S
C994 C995 1.443 . S
C995 H959 0.932 1_565 S
C995 C990 1.388 . S
C995 C994 1.443 . S
H996 C1023 0.929 . S
N997 C1022 1.427 . S
N997 C1028 1.461 . S
N997 C1034 1.391 1_545 S
H998 C1024 0.930 . S
H999 C1027 0.931 . S
H1000 C1026 0.929 . S
H1001 C1029 0.930 . S
H1002 C1030 0.932 . S
H1003 C1033 0.929 . S
H1004 C1032 0.933 1_565 S
H1005 C1035 0.929 . S
H1006 C1039 0.932 . S
H1007 C1036 0.931 . S
H1008 C1038 0.929 . S
H1009 C1041 0.929 . S
H1010 C1042 0.930 . S
H1011 C1044 0.929 . S
H1012 C1045 0.931 . S
H1013 C1047 0.930 . S
H1014 C1048 0.932 . S
H1015 C1050 0.933 1_565 S
H1016 C1051 0.929 . S
H1017 C1053 0.929 . S
H1018 C1054 0.931 . S
H1019 C1056 0.929 . S
N1020 C1040 1.438 . S
N1020 C1046 1.428 . S
N1020 C1052 1.445 1_545 S
H1021 C1057 0.932 . S
C1022 N997 1.427 . S
C1022 C1023 1.371 1_545 S
C1022 C1027 1.385 . S
C1023 H996 0.929 . S
C1023 C1022 1.371 1_565 S
C1023 C1024 1.385 . S
C1024 H998 0.930 . S
C1024 C1023 1.385 . S
C1024 C1025 1.357 1_565 S
C1025 C1024 1.357 1_545 S
C1025 C1026 1.406 . S
C1026 H1000 0.929 . S
C1026 C1025 1.406 . S
C1026 C1027 1.391 . S
C1027 H999 0.931 . S
C1027 C1022 1.385 . S
C1027 C1026 1.391 . S
C1028 N997 1.461 . S
C1028 C1029 1.358 . S
C1028 C1033 1.371 1_545 S
C1029 H1001 0.930 . S
C1029 C1028 1.358 . S
C1029 C1030 1.405 . S
C1030 H1002 0.932 . S
C1030 C1029 1.405 . S
C1030 C1031 1.383 . S
C1031 C1030 1.383 . S
C1031 C1032 1.388 . S
C1032 H1004 0.933 1_545 S
C1032 C1031 1.388 . S
C1032 C1033 1.385 1_545 S
C1033 H1003 0.929 . S
C1033 C1028 1.371 1_565 S
C1033 C1032 1.385 1_565 S
C1034 N997 1.391 1_565 S
C1034 C1035 1.362 . S
C1034 C1039 1.388 1_565 S
C1035 H1005 0.929 . S
C1035 C1034 1.362 . S
C1035 C1036 1.376 . S
C1036 H1007 0.931 . S
C1036 C1035 1.376 . S
C1036 C1037 1.396 . S
C1037 C1036 1.396 . S
C1037 C1038 1.348 1_565 S
C1037 C1055 1.472 . S
C1038 H1008 0.929 . S
C1038 C1037 1.348 1_545 S
C1038 C1039 1.443 . S
C1039 H1006 0.932 . S
C1039 C1034 1.388 1_545 S
C1039 C1038 1.443 . S
C1040 N1020 1.438 . S
C1040 C1041 1.295 1_545 S
C1040 C1045 1.428 . S
C1041 H1009 0.929 . S
C1041 C1040 1.295 1_565 S
C1041 C1042 1.385 . S
C1042 H1010 0.930 . S
C1042 C1041 1.385 . S
C1042 C1043 1.357 1_565 S
C1043 C1042 1.357 1_545 S
C1043 C1044 1.406 . S
C1044 H1011 0.929 . S
C1044 C1043 1.406 . S
C1044 C1045 1.391 . S
C1045 H1012 0.931 . S
C1045 C1040 1.428 . S
C1045 C1044 1.391 . S
C1046 N1020 1.428 . S
C1046 C1047 1.358 . S
C1046 C1051 1.371 1_545 S
C1047 H1013 0.930 . S
C1047 C1046 1.358 . S
C1047 C1048 1.405 . S
C1048 H1014 0.932 . S
C1048 C1047 1.405 . S
C1048 C1049 1.383 . S
C1049 C1048 1.383 . S
C1049 C1050 1.392 . S
C1050 H1015 0.933 1_545 S
C1050 C1049 1.392 . S
C1050 C1051 1.382 1_545 S
C1051 H1016 0.929 . S
C1051 C1046 1.371 1_565 S
C1051 C1050 1.382 1_565 S
C1052 N1020 1.445 1_565 S
C1052 C1053 1.362 . S
C1052 C1057 1.388 1_565 S
C1053 H1017 0.929 . S
C1053 C1052 1.362 . S
C1053 C1054 1.376 . S
C1054 H1018 0.931 . S
C1054 C1053 1.376 . S
C1054 C1055 1.396 . S
C1055 C1037 1.472 . S
C1055 C1054 1.396 . S
C1055 C1056 1.348 1_565 S
C1056 H1019 0.929 . S
C1056 C1055 1.348 1_545 S
C1056 C1057 1.443 . S
C1057 H1021 0.932 . S
C1057 C1052 1.388 1_545 S
C1057 C1056 1.443 . S
H1058 C1085 0.929 . S
N1059 C1084 1.433 . S
N1059 C1090 1.435 . S
N1059 C1096 1.423 . S
H1060 C1086 0.930 . S
H1061 C1089 0.931 . S
H1062 C1088 0.929 . S
H1063 C1091 0.930 . S
H1064 C1092 0.932 . S
H1065 C1095 0.929 . S
H1066 C1094 0.931 . S
H1067 C1097 0.929 . S
H1068 C1101 0.932 1_455 S
H1069 C1098 0.931 . S
H1070 C1100 0.967 . S
H1071 C1103 0.929 . S
H1072 C1104 0.930 . S
H1073 C1106 0.929 . S
H1074 C1107 0.931 . S
H1075 C1109 0.930 . S
H1076 C1110 0.932 . S
H1077 C1112 0.931 . S
H1078 C1113 0.929 . S
H1079 C1115 0.929 . S
H1080 C1116 0.931 . S
H1081 C1118 0.937 . S
N1082 C1102 1.433 . S
N1082 C1108 1.435 . S
N1082 C1114 1.423 . S
H1083 C1119 0.932 1_455 S
C1084 N1059 1.433 . S
C1084 C1085 1.363 . S
C1084 C1089 1.370 1_655 S
C1085 H1058 0.929 . S
C1085 C1084 1.363 . S
C1085 C1086 1.385 . S
C1086 H1060 0.930 . S
C1086 C1085 1.385 . S
C1086 C1087 1.357 1_655 S
C1087 C1086 1.357 1_455 S
C1087 C1088 1.406 . S
C1088 H1062 0.929 . S
C1088 C1087 1.406 . S
C1088 C1089 1.391 . S
C1089 H1061 0.931 . S
C1089 C1084 1.370 1_455 S
C1089 C1088 1.391 . S
C1090 N1059 1.435 . S
C1090 C1091 1.358 1_655 S
C1090 C1095 1.371 . S
C1091 H1063 0.930 . S
C1091 C1090 1.358 1_455 S
C1091 C1092 1.405 . S
C1092 H1064 0.932 . S
C1092 C1091 1.405 . S
C1092 C1093 1.383 1_455 S
C1093 C1092 1.383 1_655 S
C1093 C1094 1.393 . S
C1094 H1066 0.931 . S
C1094 C1093 1.393 . S
C1094 C1095 1.382 . S
C1095 H1065 0.929 . S
C1095 C1090 1.371 . S
C1095 C1094 1.382 . S
C1096 N1059 1.423 . S
C1096 C1097 1.362 . S
C1096 C1101 1.388 . S
C1097 H1067 0.929 . S
C1097 C1096 1.362 . S
C1097 C1098 1.376 . S
C1098 H1069 0.931 . S
C1098 C1097 1.376 . S
C1098 C1099 1.396 . S
C1099 C1098 1.396 . S
C1099 C1100 1.348 . S
C1099 C1117 1.472 . S
C1100 H1070 0.967 . S
C1100 C1099 1.348 . S
C1100 C1101 1.443 . S
C1101 H1068 0.932 1_655 S
C1101 C1096 1.388 . S
C1101 C1100 1.443 . S
C1102 N1082 1.433 . S
C1102 C1103 1.363 . S
C1102 C1107 1.370 1_655 S
C1103 H1071 0.929 . S
C1103 C1102 1.363 . S
C1103 C1104 1.385 . S
C1104 H1072 0.930 . S
C1104 C1103 1.385 . S
C1104 C1105 1.357 1_655 S
C1105 C1104 1.357 1_455 S
C1105 C1106 1.406 . S
C1106 H1073 0.929 . S
C1106 C1105 1.406 . S
C1106 C1107 1.391 . S
C1107 H1074 0.931 . S
C1107 C1102 1.370 1_455 S
C1107 C1106 1.391 . S
C1108 N1082 1.435 . S
C1108 C1109 1.358 1_655 S
C1108 C1113 1.371 . S
C1109 H1075 0.930 . S
C1109 C1108 1.358 1_455 S
C1109 C1110 1.405 . S
C1110 H1076 0.932 . S
C1110 C1109 1.405 . S
C1110 C1111 1.383 1_455 S
C1111 C1110 1.383 1_655 S
C1111 C1112 1.393 . S
C1112 H1077 0.931 . S
C1112 C1111 1.393 . S
C1112 C1113 1.382 . S
C1113 H1078 0.929 . S
C1113 C1108 1.371 . S
C1113 C1112 1.382 . S
C1114 N1082 1.423 . S
C1114 C1115 1.362 . S
C1114 C1119 1.388 . S
C1115 H1079 0.929 . S
C1115 C1114 1.362 . S
C1115 C1116 1.376 . S
C1116 H1080 0.931 . S
C1116 C1115 1.376 . S
C1116 C1117 1.396 . S
C1117 C1099 1.472 . S
C1117 C1116 1.396 . S
C1117 C1118 1.348 . S
C1118 H1081 0.937 . S
C1118 C1117 1.348 . S
C1118 C1119 1.443 . S
C1119 H1083 0.932 1_655 S
C1119 C1114 1.388 . S
C1119 C1118 1.443 . S
H1120 C1147 0.929 . S
N1121 C1146 1.433 . S
N1121 C1152 1.435 . S
N1121 C1158 1.423 . S
H1122 C1148 0.930 . S
H1123 C1151 0.931 . S
H1124 C1150 0.929 . S
H1125 C1153 0.930 . S
H1126 C1154 0.932 . S
H1127 C1157 0.929 . S
H1128 C1156 0.931 . S
H1129 C1159 0.929 . S
H1130 C1163 0.932 . S
H1131 C1160 0.931 . S
H1132 C1162 0.929 . S
H1133 C1165 0.929 . S
H1134 C1166 0.930 . S
H1135 C1168 0.929 . S
H1136 C1169 0.931 . S
H1137 C1171 0.930 . S
H1138 C1172 0.932 . S
H1139 C1174 0.931 . S
H1140 C1175 0.929 . S
H1141 C1177 0.929 . S
H1142 C1178 0.931 . S
H1143 C1180 0.929 . S
N1144 C1164 1.433 . S
N1144 C1170 1.435 . S
N1144 C1176 1.423 . S
H1145 C1181 0.932 . S
C1146 N1121 1.433 . S
C1146 C1147 1.363 . S
C1146 C1151 1.370 . S
C1147 H1120 0.929 . S
C1147 C1146 1.363 . S
C1147 C1148 1.385 . S
C1148 H1122 0.930 . S
C1148 C1147 1.385 . S
C1148 C1149 1.357 . S
C1149 C1148 1.357 . S
C1149 C1150 1.406 . S
C1150 H1124 0.929 . S
C1150 C1149 1.406 . S
C1150 C1151 1.391 . S
C1151 H1123 0.931 . S
C1151 C1146 1.370 . S
C1151 C1150 1.391 . S
C1152 N1121 1.435 . S
C1152 C1153 1.358 . S
C1152 C1157 1.371 . S
C1153 H1125 0.930 . S
C1153 C1152 1.358 . S
C1153 C1154 1.405 . S
C1154 H1126 0.932 . S
C1154 C1153 1.405 . S
C1154 C1155 1.383 . S
C1155 C1154 1.383 . S
C1155 C1156 1.393 . S
C1156 H1128 0.931 . S
C1156 C1155 1.393 . S
C1156 C1157 1.382 . S
C1157 H1127 0.929 . S
C1157 C1152 1.371 . S
C1157 C1156 1.382 . S
C1158 N1121 1.423 . S
C1158 C1159 1.362 . S
C1158 C1163 1.388 . S
C1159 H1129 0.929 . S
C1159 C1158 1.362 . S
C1159 C1160 1.376 . S
C1160 H1131 0.931 . S
C1160 C1159 1.376 . S
C1160 C1161 1.396 . S
C1161 C1160 1.396 . S
C1161 C1162 1.348 . S
C1161 C1179 1.472 . S
C1162 H1132 0.929 . S
C1162 C1161 1.348 . S
C1162 C1163 1.443 . S
C1163 H1130 0.932 . S
C1163 C1158 1.388 . S
C1163 C1162 1.443 . S
C1164 N1144 1.433 . S
C1164 C1165 1.363 . S
C1164 C1169 1.370 . S
C1165 H1133 0.929 . S
C1165 C1164 1.363 . S
C1165 C1166 1.385 . S
C1166 H1134 0.930 . S
C1166 C1165 1.385 . S
C1166 C1167 1.357 . S
C1167 C1166 1.357 . S
C1167 C1168 1.406 . S
C1168 H1135 0.929 . S
C1168 C1167 1.406 . S
C1168 C1169 1.391 . S
C1169 H1136 0.931 . S
C1169 C1164 1.370 . S
C1169 C1168 1.391 . S
C1170 N1144 1.435 . S
C1170 C1171 1.358 . S
C1170 C1175 1.371 . S
C1171 H1137 0.930 . S
C1171 C1170 1.358 . S
C1171 C1172 1.405 . S
C1172 H1138 0.932 . S
C1172 C1171 1.405 . S
C1172 C1173 1.383 . S
C1173 C1172 1.383 . S
C1173 C1174 1.393 . S
C1174 H1139 0.931 . S
C1174 C1173 1.393 . S
C1174 C1175 1.382 . S
C1175 H1140 0.929 . S
C1175 C1170 1.371 . S
C1175 C1174 1.382 . S
C1176 N1144 1.423 . S
C1176 C1177 1.362 . S
C1176 C1181 1.388 . S
C1177 H1141 0.929 . S
C1177 C1176 1.362 . S
C1177 C1178 1.376 . S
C1178 H1142 0.931 . S
C1178 C1177 1.376 . S
C1178 C1179 1.396 . S
C1179 C1161 1.472 . S
C1179 C1178 1.396 . S
C1179 C1180 1.348 . S
C1180 H1143 0.929 . S
C1180 C1179 1.348 . S
C1180 C1181 1.443 . S
C1181 H1145 0.932 . S
C1181 C1176 1.388 . S
C1181 C1180 1.443 . S
H1182 C1209 0.929 . S
N1183 C1208 1.433 . S
N1183 C1214 1.435 . S
N1183 C1220 1.423 . S
H1184 C1210 0.930 . S
H1185 C1213 0.931 . S
H1186 C1212 0.929 . S
H1187 C1215 0.930 . S
H1188 C1216 0.932 . S
H1189 C1219 0.929 . S
H1190 C1218 0.931 . S
H1191 C1221 0.929 . S
H1192 C1225 0.932 . S
H1193 C1222 0.931 . S
H1194 C1224 0.929 . S
H1195 C1227 0.929 . S
H1196 C1228 0.930 . S
H1197 C1230 0.929 . S
H1198 C1231 0.931 . S
H1199 C1233 0.930 . S
H1200 C1234 0.932 . S
H1201 C1236 0.931 . S
H1202 C1237 0.929 . S
H1203 C1239 0.929 . S
H1204 C1240 0.931 . S
H1205 C1242 0.929 . S
N1206 C1226 1.433 . S
N1206 C1232 1.435 . S
N1206 C1238 1.423 . S
H1207 C1243 0.932 . S
C1208 N1183 1.433 . S
C1208 C1209 1.363 . S
C1208 C1213 1.370 . S
C1209 H1182 0.929 . S
C1209 C1208 1.363 . S
C1209 C1210 1.385 . S
C1210 H1184 0.930 . S
C1210 C1209 1.385 . S
C1210 C1211 1.357 . S
C1211 C1210 1.357 . S
C1211 C1212 1.406 . S
C1212 H1186 0.929 . S
C1212 C1211 1.406 . S
C1212 C1213 1.391 . S
C1213 H1185 0.931 . S
C1213 C1208 1.370 . S
C1213 C1212 1.391 . S
C1214 N1183 1.435 . S
C1214 C1215 1.358 . S
C1214 C1219 1.371 . S
C1215 H1187 0.930 . S
C1215 C1214 1.358 . S
C1215 C1216 1.405 . S
C1216 H1188 0.932 . S
C1216 C1215 1.405 . S
C1216 C1217 1.383 . S
C1217 C1216 1.383 . S
C1217 C1218 1.393 . S
C1218 H1190 0.931 . S
C1218 C1217 1.393 . S
C1218 C1219 1.382 . S
C1219 H1189 0.929 . S
C1219 C1214 1.371 . S
C1219 C1218 1.382 . S
C1220 N1183 1.423 . S
C1220 C1221 1.362 . S
C1220 C1225 1.388 . S
C1221 H1191 0.929 . S
C1221 C1220 1.362 . S
C1221 C1222 1.376 . S
C1222 H1193 0.931 . S
C1222 C1221 1.376 . S
C1222 C1223 1.396 . S
C1223 C1222 1.396 . S
C1223 C1224 1.348 . S
C1223 C1241 1.472 . S
C1224 H1194 0.929 . S
C1224 C1223 1.348 . S
C1224 C1225 1.443 . S
C1225 H1192 0.932 . S
C1225 C1220 1.388 . S
C1225 C1224 1.443 . S
C1226 N1206 1.433 . S
C1226 C1227 1.363 . S
C1226 C1231 1.370 . S
C1227 H1195 0.929 . S
C1227 C1226 1.363 . S
C1227 C1228 1.385 . S
C1228 H1196 0.930 . S
C1228 C1227 1.385 . S
C1228 C1229 1.357 . S
C1229 C1228 1.357 . S
C1229 C1230 1.406 . S
C1230 H1197 0.929 . S
C1230 C1229 1.406 . S
C1230 C1231 1.391 . S
C1231 H1198 0.931 . S
C1231 C1226 1.370 . S
C1231 C1230 1.391 . S
C1232 N1206 1.435 . S
C1232 C1233 1.358 . S
C1232 C1237 1.371 . S
C1233 H1199 0.930 . S
C1233 C1232 1.358 . S
C1233 C1234 1.405 . S
C1234 H1200 0.932 . S
C1234 C1233 1.405 . S
C1234 C1235 1.383 . S
C1235 C1234 1.383 . S
C1235 C1236 1.393 . S
C1236 H1201 0.931 . S
C1236 C1235 1.393 . S
C1236 C1237 1.382 . S
C1237 H1202 0.929 . S
C1237 C1232 1.371 . S
C1237 C1236 1.382 . S
C1238 N1206 1.423 . S
C1238 C1239 1.362 . S
C1238 C1243 1.388 . S
C1239 H1203 0.929 . S
C1239 C1238 1.362 . S
C1239 C1240 1.376 . S
C1240 H1204 0.931 . S
C1240 C1239 1.376 . S
C1240 C1241 1.396 . S
C1241 C1223 1.472 . S
C1241 C1240 1.396 . S
C1241 C1242 1.348 . S
C1242 H1205 0.929 . S
C1242 C1241 1.348 . S
C1242 C1243 1.443 . S
C1243 H1207 0.932 . S
C1243 C1238 1.388 . S
C1243 C1242 1.443 . S
H1244 C1271 0.929 . S
N1245 C1270 1.433 . S
N1245 C1276 1.435 . S
N1245 C1282 1.423 . S
H1246 C1272 0.930 . S
H1247 C1275 0.931 . S
H1248 C1274 0.929 . S
H1249 C1277 0.930 . S
H1250 C1278 0.932 . S
H1251 C1281 0.929 . S
H1252 C1280 0.931 . S
H1253 C1283 0.929 . S
H1254 C1287 0.932 . S
H1255 C1284 0.931 . S
H1256 C1286 0.929 . S
H1257 C1289 0.929 . S
H1258 C1290 0.930 . S
H1259 C1292 0.929 . S
H1260 C1293 0.931 . S
H1261 C1295 0.930 . S
H1262 C1296 0.932 . S
H1263 C1298 0.931 . S
H1264 C1299 0.929 . S
H1265 C1301 0.929 . S
H1266 C1302 0.931 . S
H1267 C1304 0.929 . S
N1268 C1288 1.433 . S
N1268 C1294 1.435 . S
N1268 C1300 1.423 . S
H1269 C1305 0.932 . S
C1270 N1245 1.433 . S
C1270 C1271 1.363 . S
C1270 C1275 1.370 . S
C1271 H1244 0.929 . S
C1271 C1270 1.363 . S
C1271 C1272 1.385 . S
C1272 H1246 0.930 . S
C1272 C1271 1.385 . S
C1272 C1273 1.357 . S
C1273 C1272 1.357 . S
C1273 C1274 1.406 . S
C1274 H1248 0.929 . S
C1274 C1273 1.406 . S
C1274 C1275 1.391 . S
C1275 H1247 0.931 . S
C1275 C1270 1.370 . S
C1275 C1274 1.391 . S
C1276 N1245 1.435 . S
C1276 C1277 1.358 . S
C1276 C1281 1.371 . S
C1277 H1249 0.930 . S
C1277 C1276 1.358 . S
C1277 C1278 1.405 . S
C1278 H1250 0.932 . S
C1278 C1277 1.405 . S
C1278 C1279 1.383 . S
C1279 C1278 1.383 . S
C1279 C1280 1.393 . S
C1280 H1252 0.931 . S
C1280 C1279 1.393 . S
C1280 C1281 1.382 . S
C1281 H1251 0.929 . S
C1281 C1276 1.371 . S
C1281 C1280 1.382 . S
C1282 N1245 1.423 . S
C1282 C1283 1.362 . S
C1282 C1287 1.388 . S
C1283 H1253 0.929 . S
C1283 C1282 1.362 . S
C1283 C1284 1.376 . S
C1284 H1255 0.931 . S
C1284 C1283 1.376 . S
C1284 C1285 1.396 . S
C1285 C1284 1.396 . S
C1285 C1286 1.348 . S
C1285 C1303 1.472 . S
C1286 H1256 0.929 . S
C1286 C1285 1.348 . S
C1286 C1287 1.443 . S
C1287 H1254 0.932 . S
C1287 C1282 1.388 . S
C1287 C1286 1.443 . S
C1288 N1268 1.433 . S
C1288 C1289 1.363 . S
C1288 C1293 1.370 . S
C1289 H1257 0.929 . S
C1289 C1288 1.363 . S
C1289 C1290 1.385 . S
C1290 H1258 0.930 . S
C1290 C1289 1.385 . S
C1290 C1291 1.357 . S
C1291 C1290 1.357 . S
C1291 C1292 1.406 . S
C1292 H1259 0.929 . S
C1292 C1291 1.406 . S
C1292 C1293 1.391 . S
C1293 H1260 0.931 . S
C1293 C1288 1.370 . S
C1293 C1292 1.391 . S
C1294 N1268 1.435 . S
C1294 C1295 1.358 . S
C1294 C1299 1.371 . S
C1295 H1261 0.930 . S
C1295 C1294 1.358 . S
C1295 C1296 1.405 . S
C1296 H1262 0.932 . S
C1296 C1295 1.405 . S
C1296 C1297 1.383 . S
C1297 C1296 1.383 . S
C1297 C1298 1.393 . S
C1298 H1263 0.931 . S
C1298 C1297 1.393 . S
C1298 C1299 1.382 . S
C1299 H1264 0.929 . S
C1299 C1294 1.371 . S
C1299 C1298 1.382 . S
C1300 N1268 1.423 . S
C1300 C1301 1.362 . S
C1300 C1305 1.388 . S
C1301 H1265 0.929 . S
C1301 C1300 1.362 . S
C1301 C1302 1.376 . S
C1302 H1266 0.931 . S
C1302 C1301 1.376 . S
C1302 C1303 1.396 . S
C1303 C1285 1.472 . S
C1303 C1302 1.396 . S
C1303 C1304 1.348 . S
C1304 H1267 0.929 . S
C1304 C1303 1.348 . S
C1304 C1305 1.443 . S
C1305 H1269 0.932 . S
C1305 C1300 1.388 . S
C1305 C1304 1.443 . S
H1306 C1333 0.929 . S
N1307 C1332 1.433 . S
N1307 C1338 1.435 . S
N1307 C1344 1.423 . S
H1308 C1334 0.930 . S
H1309 C1337 0.931 . S
H1310 C1336 0.929 . S
H1311 C1339 0.930 . S
H1312 C1340 0.932 . S
H1313 C1343 0.929 . S
H1314 C1342 0.931 . S
H1315 C1345 0.929 . S
H1316 C1349 0.932 . S
H1317 C1346 0.931 . S
H1318 C1348 0.929 . S
H1319 C1351 0.929 . S
H1320 C1352 0.930 . S
H1321 C1354 0.929 . S
H1322 C1355 0.931 . S
H1323 C1357 0.930 . S
H1324 C1358 0.932 . S
H1325 C1360 0.931 . S
H1326 C1361 0.929 . S
H1327 C1363 0.929 . S
H1328 C1364 0.931 . S
H1329 C1366 0.929 . S
N1330 C1350 1.433 . S
N1330 C1356 1.435 . S
N1330 C1362 1.423 . S
H1331 C1367 0.932 . S
C1332 N1307 1.433 . S
C1332 C1333 1.363 . S
C1332 C1337 1.370 . S
C1333 H1306 0.929 . S
C1333 C1332 1.363 . S
C1333 C1334 1.385 . S
C1334 H1308 0.930 . S
C1334 C1333 1.385 . S
C1334 C1335 1.357 . S
C1335 C1334 1.357 . S
C1335 C1336 1.406 . S
C1336 H1310 0.929 . S
C1336 C1335 1.406 . S
C1336 C1337 1.391 . S
C1337 H1309 0.931 . S
C1337 C1332 1.370 . S
C1337 C1336 1.391 . S
C1338 N1307 1.435 . S
C1338 C1339 1.358 . S
C1338 C1343 1.371 . S
C1339 H1311 0.930 . S
C1339 C1338 1.358 . S
C1339 C1340 1.405 . S
C1340 H1312 0.932 . S
C1340 C1339 1.405 . S
C1340 C1341 1.383 . S
C1341 C1340 1.383 . S
C1341 C1342 1.393 . S
C1342 H1314 0.931 . S
C1342 C1341 1.393 . S
C1342 C1343 1.382 . S
C1343 H1313 0.929 . S
C1343 C1338 1.371 . S
C1343 C1342 1.382 . S
C1344 N1307 1.423 . S
C1344 C1345 1.362 . S
C1344 C1349 1.388 . S
C1345 H1315 0.929 . S
C1345 C1344 1.362 . S
C1345 C1346 1.376 . S
C1346 H1317 0.931 . S
C1346 C1345 1.376 . S
C1346 C1347 1.396 . S
C1347 C1346 1.396 . S
C1347 C1348 1.348 . S
C1347 C1365 1.472 . S
C1348 H1318 0.929 . S
C1348 C1347 1.348 . S
C1348 C1349 1.443 . S
C1349 H1316 0.932 . S
C1349 C1344 1.388 . S
C1349 C1348 1.443 . S
C1350 N1330 1.433 . S
C1350 C1351 1.363 . S
C1350 C1355 1.370 . S
C1351 H1319 0.929 . S
C1351 C1350 1.363 . S
C1351 C1352 1.385 . S
C1352 H1320 0.930 . S
C1352 C1351 1.385 . S
C1352 C1353 1.357 . S
C1353 C1352 1.357 . S
C1353 C1354 1.406 . S
C1354 H1321 0.929 . S
C1354 C1353 1.406 . S
C1354 C1355 1.391 . S
C1355 H1322 0.931 . S
C1355 C1350 1.370 . S
C1355 C1354 1.391 . S
C1356 N1330 1.435 . S
C1356 C1357 1.358 . S
C1356 C1361 1.371 . S
C1357 H1323 0.930 . S
C1357 C1356 1.358 . S
C1357 C1358 1.405 . S
C1358 H1324 0.932 . S
C1358 C1357 1.405 . S
C1358 C1359 1.383 . S
C1359 C1358 1.383 . S
C1359 C1360 1.393 . S
C1360 H1325 0.931 . S
C1360 C1359 1.393 . S
C1360 C1361 1.382 . S
C1361 H1326 0.929 . S
C1361 C1356 1.371 . S
C1361 C1360 1.382 . S
C1362 N1330 1.423 . S
C1362 C1363 1.362 . S
C1362 C1367 1.388 . S
C1363 H1327 0.929 . S
C1363 C1362 1.362 . S
C1363 C1364 1.376 . S
C1364 H1328 0.931 . S
C1364 C1363 1.376 . S
C1364 C1365 1.396 . S
C1365 C1347 1.472 . S
C1365 C1364 1.396 . S
C1365 C1366 1.348 . S
C1366 H1329 0.929 . S
C1366 C1365 1.348 . S
C1366 C1367 1.443 . S
C1367 H1331 0.932 . S
C1367 C1362 1.388 . S
C1367 C1366 1.443 . S
H1368 C1376 0.950 . S
H1369 C1381 0.950 . S
H1370 C1378 0.950 . S
H1371 C1380 0.950 . S
H1372 C1382 0.950 . S
H1373 C1384 0.950 . S
H1374 C1386 0.950 . S
H1375 C1387 0.950 . S
C1376 H1368 0.950 . S
C1376 C1377 1.386 1_655 S
C1376 C1378 1.391 . S
C1377 C1376 1.386 1_455 S
C1377 C1381 1.393 . S
C1378 H1370 0.950 . S
C1378 C1376 1.391 . S
C1378 C1379 1.400 1_655 S
C1379 C1378 1.400 1_455 S
C1379 C1380 1.398 . S
C1379 C1385 1.491 . S
C1380 H1371 0.950 . S
C1380 C1379 1.398 . S
C1380 C1381 1.391 . S
C1381 H1369 0.950 . S
C1381 C1377 1.393 . S
C1381 C1380 1.391 . S
C1382 H1372 0.950 . S
C1382 C1383 1.386 . S
C1382 C1384 1.391 . S
C1383 C1382 1.386 . S
C1383 C1387 1.393 1_455 S
C1384 H1373 0.950 . S
C1384 C1382 1.391 . S
C1384 C1385 1.400 . S
C1385 C1379 1.491 . S
C1385 C1384 1.400 . S
C1385 C1386 1.398 1_455 S
C1386 H1374 0.950 . S
C1386 C1385 1.398 1_655 S
C1386 C1387 1.391 . S
C1387 H1375 0.950 . S
C1387 C1383 1.393 1_655 S
C1387 C1386 1.391 . S
H1388 C1396 0.950 . S
H1389 C1401 0.950 . S
H1390 C1398 0.950 . S
H1391 C1400 0.950 . S
H1392 C1402 0.950 . S
H1393 C1404 0.950 . S
H1394 C1406 0.950 . S
H1395 C1407 0.950 . S
C1396 H1388 0.950 . S
C1396 C1397 1.386 . S
C1396 C1398 1.391 . S
C1397 C1396 1.386 . S
C1397 C1401 1.393 . S
C1398 H1390 0.950 . S
C1398 C1396 1.391 . S
C1398 C1399 1.400 . S
C1399 C1398 1.400 . S
C1399 C1400 1.398 . S
C1399 C1405 1.491 . S
C1400 H1391 0.950 . S
C1400 C1399 1.398 . S
C1400 C1401 1.391 . S
C1401 H1389 0.950 . S
C1401 C1397 1.393 . S
C1401 C1400 1.391 . S
C1402 H1392 0.950 . S
C1402 C1403 1.386 . S
C1402 C1404 1.391 . S
C1403 C1402 1.386 . S
C1403 C1407 1.393 . S
C1404 H1393 0.950 . S
C1404 C1402 1.391 . S
C1404 C1405 1.400 . S
C1405 C1399 1.491 . S
C1405 C1404 1.400 . S
C1405 C1406 1.398 . S
C1406 H1394 0.950 . S
C1406 C1405 1.398 . S
C1406 C1407 1.391 . S
C1407 H1395 0.950 . S
C1407 C1403 1.393 . S
C1407 C1406 1.391 . S
H1408 C1416 0.950 . S
H1409 C1421 0.950 . S
H1410 C1418 0.950 . S
H1411 C1420 0.950 . S
H1412 C1422 0.899 1_565 S
H1413 C1424 0.943 1_565 S
H1414 C1426 0.950 . S
H1415 C1427 0.950 . S
C1416 H1408 0.950 . S
C1416 C1417 1.386 . S
C1416 C1418 1.391 . S
C1417 C1416 1.386 . S
C1417 C1421 1.393 1_545 S
C1418 H1410 0.950 . S
C1418 C1416 1.391 . S
C1418 C1419 1.400 . S
C1419 C1418 1.400 . S
C1419 C1420 1.398 1_545 S
C1419 C1425 1.491 . S
C1420 H1411 0.950 . S
C1420 C1419 1.398 1_565 S
C1420 C1421 1.391 . S
C1421 H1409 0.950 . S
C1421 C1417 1.393 1_565 S
C1421 C1420 1.391 . S
C1422 H1412 0.899 1_545 S
C1422 C1423 1.412 . S
C1422 C1424 1.413 . S
C1423 C1422 1.412 . S
C1423 C1427 1.393 . S
C1424 H1413 0.943 1_545 S
C1424 C1422 1.413 . S
C1424 C1425 1.414 . S
C1425 C1419 1.491 . S
C1425 C1424 1.414 . S
C1425 C1426 1.398 . S
C1426 H1414 0.950 . S
C1426 C1425 1.398 . S
C1426 C1427 1.391 . S
C1427 H1415 0.950 . S
C1427 C1423 1.393 . S
C1427 C1426 1.391 . S
H1428 C1436 0.946 . S
H1429 C1441 0.950 . S
H1430 C1438 0.947 1_565 S
H1431 C1440 0.950 . S
H1432 C1442 0.950 . S
H1433 C1444 0.950 . S
H1434 C1446 0.935 . S
H1435 C1447 0.961 . S
C1436 H1428 0.946 . S
C1436 C1437 1.386 . S
C1436 C1438 1.391 . S
C1437 C1436 1.386 . S
C1437 C1441 1.393 . S
C1438 H1430 0.947 1_545 S
C1438 C1436 1.391 . S
C1438 C1439 1.400 . S
C1439 C1438 1.400 . S
C1439 C1440 1.398 . S
C1439 C1445 1.491 . S
C1440 H1431 0.950 . S
C1440 C1439 1.398 . S
C1440 C1441 1.391 . S
C1441 H1429 0.950 . S
C1441 C1437 1.393 . S
C1441 C1440 1.391 . S
C1442 H1432 0.950 . S
C1442 C1443 1.386 . S
C1442 C1444 1.391 . S
C1443 C1442 1.386 . S
C1443 C1447 1.423 1_545 S
C1444 H1433 0.950 . S
C1444 C1442 1.391 . S
C1444 C1445 1.400 . S
C1445 C1439 1.491 . S
C1445 C1444 1.400 . S
C1445 C1446 1.392 1_545 S
C1446 H1434 0.935 . S
C1446 C1445 1.392 1_565 S
C1446 C1447 1.379 . S
C1447 H1435 0.961 . S
C1447 C1443 1.423 1_565 S
C1447 C1446 1.379 . S
H1448 C1456 0.950 . S
H1449 C1461 0.950 . S
H1450 C1458 0.950 . S
H1451 C1460 0.950 . S
H1452 C1462 0.950 . S
H1453 C1464 0.950 . S
H1454 C1466 0.950 . S
H1455 C1467 0.950 . S
C1456 H1448 0.950 . S
C1456 C1457 1.386 1_655 S
C1456 C1458 1.391 . S
C1457 C1456 1.386 1_455 S
C1457 C1461 1.393 . S
C1458 H1450 0.950 . S
C1458 C1456 1.391 . S
C1458 C1459 1.400 1_655 S
C1459 C1458 1.400 1_455 S
C1459 C1460 1.398 . S
C1459 C1465 1.491 . S
C1460 H1451 0.950 . S
C1460 C1459 1.398 . S
C1460 C1461 1.391 . S
C1461 H1449 0.950 . S
C1461 C1457 1.393 . S
C1461 C1460 1.391 . S
C1462 H1452 0.950 . S
C1462 C1463 1.386 . S
C1462 C1464 1.391 . S
C1463 C1462 1.386 . S
C1463 C1467 1.393 1_455 S
C1464 H1453 0.950 . S
C1464 C1462 1.391 . S
C1464 C1465 1.400 . S
C1465 C1459 1.491 . S
C1465 C1464 1.400 . S
C1465 C1466 1.398 1_455 S
C1466 H1454 0.950 . S
C1466 C1465 1.398 1_655 S
C1466 C1467 1.391 . S
C1467 H1455 0.950 . S
C1467 C1463 1.393 1_655 S
C1467 C1466 1.391 . S
H1468 C1476 0.950 . S
H1469 C1481 0.950 . S
H1470 C1478 0.950 . S
H1471 C1480 0.950 . S
H1472 C1482 0.950 . S
H1473 C1484 0.950 . S
H1474 C1486 0.950 . S
H1475 C1487 0.950 . S
C1476 H1468 0.950 . S
C1476 C1477 1.386 . S
C1476 C1478 1.391 . S
C1477 C1476 1.386 . S
C1477 C1481 1.393 . S
C1478 H1470 0.950 . S
C1478 C1476 1.391 . S
C1478 C1479 1.400 . S
C1479 C1478 1.400 . S
C1479 C1480 1.398 . S
C1479 C1485 1.491 . S
C1480 H1471 0.950 . S
C1480 C1479 1.398 . S
C1480 C1481 1.391 . S
C1481 H1469 0.950 . S
C1481 C1477 1.393 . S
C1481 C1480 1.391 . S
C1482 H1472 0.950 . S
C1482 C1483 1.386 . S
C1482 C1484 1.391 . S
C1483 C1482 1.386 . S
C1483 C1487 1.393 . S
C1484 H1473 0.950 . S
C1484 C1482 1.391 . S
C1484 C1485 1.400 . S
C1485 C1479 1.491 . S
C1485 C1484 1.400 . S
C1485 C1486 1.398 . S
C1486 H1474 0.950 . S
C1486 C1485 1.398 . S
C1486 C1487 1.391 . S
C1487 H1475 0.950 . S
C1487 C1483 1.393 . S
C1487 C1486 1.391 . S
H1488 C1496 0.950 . S
H1489 C1501 0.950 . S
H1490 C1498 0.950 . S
H1491 C1500 0.950 . S
H1492 C1502 0.950 . S
H1493 C1504 0.950 . S
H1494 C1506 0.950 . S
H1495 C1507 0.950 . S
C1496 H1488 0.950 . S
C1496 C1497 1.386 . S
C1496 C1498 1.391 . S
C1497 C1496 1.386 . S
C1497 C1501 1.393 1_455 S
C1498 H1490 0.950 . S
C1498 C1496 1.391 . S
C1498 C1499 1.400 . S
C1499 C1498 1.400 . S
C1499 C1500 1.398 1_455 S
C1499 C1505 1.491 . S
C1500 H1491 0.950 . S
C1500 C1499 1.398 1_655 S
C1500 C1501 1.391 . S
C1501 H1489 0.950 . S
C1501 C1497 1.393 1_655 S
C1501 C1500 1.391 . S
C1502 H1492 0.950 . S
C1502 C1503 1.386 1_655 S
C1502 C1504 1.391 . S
C1503 C1502 1.386 1_455 S
C1503 C1507 1.393 . S
C1504 H1493 0.950 . S
C1504 C1502 1.391 . S
C1504 C1505 1.400 1_655 S
C1505 C1499 1.491 . S
C1505 C1504 1.400 1_455 S
C1505 C1506 1.398 . S
C1506 H1494 0.950 . S
C1506 C1505 1.398 . S
C1506 C1507 1.391 . S
C1507 H1495 0.950 . S
C1507 C1503 1.393 . S
C1507 C1506 1.391 . S
H1508 C1516 0.950 . S
H1509 C1521 0.950 . S
H1510 C1518 0.950 . S
H1511 C1520 0.950 . S
H1512 C1522 0.950 . S
H1513 C1524 0.950 . S
H1514 C1526 0.950 . S
H1515 C1527 0.950 . S
C1516 H1508 0.950 . S
C1516 C1517 1.386 . S
C1516 C1518 1.391 . S
C1517 C1516 1.386 . S
C1517 C1521 1.393 . S
C1518 H1510 0.950 . S
C1518 C1516 1.391 . S
C1518 C1519 1.400 . S
C1519 C1518 1.400 . S
C1519 C1520 1.398 . S
C1519 C1525 1.491 . S
C1520 H1511 0.950 . S
C1520 C1519 1.398 . S
C1520 C1521 1.391 . S
C1521 H1509 0.950 . S
C1521 C1517 1.393 . S
C1521 C1520 1.391 . S
C1522 H1512 0.950 . S
C1522 C1523 1.386 . S
C1522 C1524 1.391 . S
C1523 C1522 1.386 . S
C1523 C1527 1.393 . S
C1524 H1513 0.950 . S
C1524 C1522 1.391 . S
C1524 C1525 1.400 . S
C1525 C1519 1.491 . S
C1525 C1524 1.400 . S
C1525 C1526 1.398 . S
C1526 H1514 0.950 . S
C1526 C1525 1.398 . S
C1526 C1527 1.391 . S
C1527 H1515 0.950 . S
C1527 C1523 1.393 . S
C1527 C1526 1.391 . S
H1528 C1536 0.950 . S
H1529 C1541 0.950 . S
H1530 C1538 0.950 . S
H1531 C1540 0.950 . S
H1532 C1542 0.950 . S
H1533 C1544 0.950 . S
H1534 C1546 0.950 . S
H1535 C1547 0.950 . S
C1536 H1528 0.950 . S
C1536 C1537 1.386 1_565 S
C1536 C1538 1.391 . S
C1537 C1536 1.386 1_545 S
C1537 C1541 1.393 . S
C1538 H1530 0.950 . S
C1538 C1536 1.391 . S
C1538 C1539 1.400 1_565 S
C1539 C1538 1.400 1_545 S
C1539 C1540 1.398 . S
C1539 C1545 1.491 . S
C1540 H1531 0.950 . S
C1540 C1539 1.398 . S
C1540 C1541 1.391 . S
C1541 H1529 0.950 . S
C1541 C1537 1.393 . S
C1541 C1540 1.391 . S
C1542 H1532 0.950 . S
C1542 C1543 1.386 . S
C1542 C1544 1.391 . S
C1543 C1542 1.386 . S
C1543 C1547 1.393 1_545 S
C1544 H1533 0.950 . S
C1544 C1542 1.391 . S
C1544 C1545 1.400 . S
C1545 C1539 1.491 . S
C1545 C1544 1.400 . S
C1545 C1546 1.398 1_545 S
C1546 H1534 0.950 . S
C1546 C1545 1.398 1_565 S
C1546 C1547 1.391 . S
C1547 H1535 0.950 . S
C1547 C1543 1.393 1_565 S
C1547 C1546 1.391 . S
H1548 C1556 0.950 . S
H1549 C1561 0.950 . S
H1550 C1558 0.950 . S
H1551 C1560 0.950 . S
H1552 C1562 0.950 . S
H1553 C1564 0.950 . S
H1554 C1566 0.950 . S
H1555 C1567 0.950 . S
C1556 H1548 0.950 . S
C1556 C1557 1.386 1_565 S
C1556 C1558 1.391 . S
C1557 C1556 1.386 1_545 S
C1557 C1561 1.393 . S
C1558 H1550 0.950 . S
C1558 C1556 1.391 . S
C1558 C1559 1.400 1_565 S
C1559 C1558 1.400 1_545 S
C1559 C1560 1.398 . S
C1559 C1565 1.491 . S
C1560 H1551 0.950 . S
C1560 C1559 1.398 . S
C1560 C1561 1.391 . S
C1561 H1549 0.950 . S
C1561 C1557 1.393 . S
C1561 C1560 1.391 . S
C1562 H1552 0.950 . S
C1562 C1563 1.386 . S
C1562 C1564 1.391 . S
C1563 C1562 1.386 . S
C1563 C1567 1.393 1_545 S
C1564 H1553 0.950 . S
C1564 C1562 1.391 . S
C1564 C1565 1.400 . S
C1565 C1559 1.491 . S
C1565 C1564 1.400 . S
C1565 C1566 1.398 1_545 S
C1566 H1554 0.950 . S
C1566 C1565 1.398 1_565 S
C1566 C1567 1.391 . S
C1567 H1555 0.950 . S
C1567 C1563 1.393 1_565 S
C1567 C1566 1.391 . S
H1568 C1576 0.950 . S
H1569 C1581 0.950 . S
H1570 C1578 0.950 . S
H1571 C1580 0.950 . S
H1572 C1582 0.950 . S
H1573 C1584 0.950 . S
H1574 C1586 0.950 . S
H1575 C1587 0.950 . S
C1576 H1568 0.950 . S
C1576 C1577 1.386 . S
C1576 C1578 1.391 . S
C1577 C1576 1.386 . S
C1577 C1581 1.393 1_455 S
C1578 H1570 0.950 . S
C1578 C1576 1.391 . S
C1578 C1579 1.400 . S
C1579 C1578 1.400 . S
C1579 C1580 1.398 1_455 S
C1579 C1585 1.491 . S
C1580 H1571 0.950 . S
C1580 C1579 1.398 1_655 S
C1580 C1581 1.391 . S
C1581 H1569 0.950 . S
C1581 C1577 1.393 1_655 S
C1581 C1580 1.391 . S
C1582 H1572 0.950 . S
C1582 C1583 1.386 1_655 S
C1582 C1584 1.391 . S
C1583 C1582 1.386 1_455 S
C1583 C1587 1.393 . S
C1584 H1573 0.950 . S
C1584 C1582 1.391 . S
C1584 C1585 1.400 1_655 S
C1585 C1579 1.491 . S
C1585 C1584 1.400 1_455 S
C1585 C1586 1.398 . S
C1586 H1574 0.950 . S
C1586 C1585 1.398 . S
C1586 C1587 1.391 . S
C1587 H1575 0.950 . S
C1587 C1583 1.393 . S
C1587 C1586 1.391 . S
H1588 C1596 0.950 . S
H1589 C1601 0.950 . S
H1590 C1598 0.950 . S
H1591 C1600 0.950 . S
H1592 C1602 0.950 . S
H1593 C1604 0.950 . S
H1594 C1606 0.950 . S
H1595 C1607 0.950 . S
C1596 H1588 0.950 . S
C1596 C1597 1.386 . S
C1596 C1598 1.391 . S
C1597 C1596 1.386 . S
C1597 C1601 1.393 . S
C1598 H1590 0.950 . S
C1598 C1596 1.391 . S
C1598 C1599 1.400 . S
C1599 C1598 1.400 . S
C1599 C1600 1.398 . S
C1599 C1605 1.491 . S
C1600 H1591 0.950 . S
C1600 C1599 1.398 . S
C1600 C1601 1.391 . S
C1601 H1589 0.950 . S
C1601 C1597 1.393 . S
C1601 C1600 1.391 . S
C1602 H1592 0.950 . S
C1602 C1603 1.386 . S
C1602 C1604 1.391 . S
C1603 C1602 1.386 . S
C1603 C1607 1.393 . S
C1604 H1593 0.950 . S
C1604 C1602 1.391 . S
C1604 C1605 1.400 . S
C1605 C1599 1.491 . S
C1605 C1604 1.400 . S
C1605 C1606 1.398 . S
C1606 H1594 0.950 . S
C1606 C1605 1.398 . S
C1606 C1607 1.391 . S
C1607 H1595 0.950 . S
C1607 C1603 1.393 . S
C1607 C1606 1.391 . S
H1608 C1616 0.950 . S
H1609 C1621 0.950 . S
H1610 C1618 0.950 . S
H1611 C1620 0.950 . S
H1612 C1622 0.950 . S
H1613 C1624 0.950 . S
H1614 C1626 0.950 . S
H1615 C1627 0.950 . S
C1616 H1608 0.950 . S
C1616 C1617 1.386 . S
C1616 C1618 1.391 . S
C1617 C1616 1.386 . S
C1617 C1621 1.393 . S
C1618 H1610 0.950 . S
C1618 C1616 1.391 . S
C1618 C1619 1.400 . S
C1619 C1618 1.400 . S
C1619 C1620 1.398 . S
C1619 C1625 1.491 . S
C1620 H1611 0.950 . S
C1620 C1619 1.398 . S
C1620 C1621 1.391 . S
C1621 H1609 0.950 . S
C1621 C1617 1.393 . S
C1621 C1620 1.391 . S
C1622 H1612 0.950 . S
C1622 C1623 1.386 . S
C1622 C1624 1.391 . S
C1623 C1622 1.386 . S
C1623 C1627 1.393 . S
C1624 H1613 0.950 . S
C1624 C1622 1.391 . S
C1624 C1625 1.400 . S
C1625 C1619 1.491 . S
C1625 C1624 1.400 . S
C1625 C1626 1.398 . S
C1626 H1614 0.950 . S
C1626 C1625 1.398 . S
C1626 C1627 1.391 . S
C1627 H1615 0.950 . S
C1627 C1623 1.393 . S
C1627 C1626 1.391 . S
H1628 C1636 0.950 . S
H1629 C1641 0.950 . S
H1630 C1638 0.950 . S
H1631 C1640 0.950 . S
H1632 C1642 0.950 . S
H1633 C1644 0.950 . S
H1634 C1646 0.950 . S
H1635 C1647 0.950 . S
C1636 H1628 0.950 . S
C1636 C1637 1.386 . S
C1636 C1638 1.391 . S
C1637 C1636 1.386 . S
C1637 C1641 1.393 . S
C1638 H1630 0.950 . S
C1638 C1636 1.391 . S
C1638 C1639 1.400 . S
C1639 C1638 1.400 . S
C1639 C1640 1.398 . S
C1639 C1645 1.491 . S
C1640 H1631 0.950 . S
C1640 C1639 1.398 . S
C1640 C1641 1.391 . S
C1641 H1629 0.950 . S
C1641 C1637 1.393 . S
C1641 C1640 1.391 . S
C1642 H1632 0.950 . S
C1642 C1643 1.386 . S
C1642 C1644 1.391 . S
C1643 C1642 1.386 . S
C1643 C1647 1.393 . S
C1644 H1633 0.950 . S
C1644 C1642 1.391 . S
C1644 C1645 1.400 . S
C1645 C1639 1.491 . S
C1645 C1644 1.400 . S
C1645 C1646 1.398 . S
C1646 H1634 0.950 . S
C1646 C1645 1.398 . S
C1646 C1647 1.391 . S
C1647 H1635 0.950 . S
C1647 C1643 1.393 . S
C1647 C1646 1.391 . S
H1648 C1656 0.950 . S
H1649 C1661 0.950 . S
H1650 C1658 0.950 . S
H1651 C1660 0.950 . S
H1652 C1662 0.950 . S
H1653 C1664 0.950 . S
H1654 C1666 0.950 . S
H1655 C1667 0.950 . S
C1656 H1648 0.950 . S
C1656 C1657 1.386 . S
C1656 C1658 1.391 . S
C1657 C1656 1.386 . S
C1657 C1661 1.393 . S
C1658 H1650 0.950 . S
C1658 C1656 1.391 . S
C1658 C1659 1.400 . S
C1659 C1658 1.400 . S
C1659 C1660 1.398 . S
C1659 C1665 1.491 . S
C1660 H1651 0.950 . S
C1660 C1659 1.398 . S
C1660 C1661 1.391 . S
C1661 H1649 0.950 . S
C1661 C1657 1.393 . S
C1661 C1660 1.391 . S
C1662 H1652 0.950 . S
C1662 C1663 1.386 . S
C1662 C1664 1.391 . S
C1663 C1662 1.386 . S
C1663 C1667 1.393 . S
C1664 H1653 0.950 . S
C1664 C1662 1.391 . S
C1664 C1665 1.400 . S
C1665 C1659 1.491 . S
C1665 C1664 1.400 . S
C1665 C1666 1.398 . S
C1666 H1654 0.950 . S
C1666 C1665 1.398 . S
C1666 C1667 1.391 . S
C1667 H1655 0.950 . S
C1667 C1663 1.393 . S
C1667 C1666 1.391 . S
H1668 C1676 0.950 . S
H1669 C1681 0.950 . S
H1670 C1678 0.950 . S
H1671 C1680 0.950 . S
H1672 C1682 0.950 . S
H1673 C1684 0.950 . S
H1674 C1686 0.950 . S
H1675 C1687 0.950 . S
C1676 H1668 0.950 . S
C1676 C1677 1.386 . S
C1676 C1678 1.391 . S
C1677 C1676 1.386 . S
C1677 C1681 1.393 . S
C1678 H1670 0.950 . S
C1678 C1676 1.391 . S
C1678 C1679 1.400 . S
C1679 C1678 1.400 . S
C1679 C1680 1.398 . S
C1679 C1685 1.491 . S
C1680 H1671 0.950 . S
C1680 C1679 1.398 . S
C1680 C1681 1.391 . S
C1681 H1669 0.950 . S
C1681 C1677 1.393 . S
C1681 C1680 1.391 . S
C1682 H1672 0.950 . S
C1682 C1683 1.386 . S
C1682 C1684 1.391 . S
C1683 C1682 1.386 . S
C1683 C1687 1.393 . S
C1684 H1673 0.950 . S
C1684 C1682 1.391 . S
C1684 C1685 1.400 . S
C1685 C1679 1.491 . S
C1685 C1684 1.400 . S
C1685 C1686 1.398 . S
C1686 H1674 0.950 . S
C1686 C1685 1.398 . S
C1686 C1687 1.391 . S
C1687 H1675 0.950 . S
C1687 C1683 1.393 . S
C1687 C1686 1.391 . S
H1688 C1696 0.950 . S
H1689 C1701 0.950 . S
H1690 C1698 0.950 . S
H1691 C1700 0.950 . S
H1692 C1702 0.950 . S
H1693 C1704 0.950 . S
H1694 C1706 0.950 . S
H1695 C1707 0.950 . S
C1696 H1688 0.950 . S
C1696 C1697 1.386 . S
C1696 C1698 1.391 . S
C1697 C1696 1.386 . S
C1697 C1701 1.393 . S
C1698 H1690 0.950 . S
C1698 C1696 1.391 . S
C1698 C1699 1.400 . S
C1699 C1698 1.400 . S
C1699 C1700 1.398 . S
C1699 C1705 1.491 . S
C1700 H1691 0.950 . S
C1700 C1699 1.398 . S
C1700 C1701 1.391 . S
C1701 H1689 0.950 . S
C1701 C1697 1.393 . S
C1701 C1700 1.391 . S
C1702 H1692 0.950 . S
C1702 C1703 1.386 . S
C1702 C1704 1.391 . S
C1703 C1702 1.386 . S
C1703 C1707 1.393 . S
C1704 H1693 0.950 . S
C1704 C1702 1.391 . S
C1704 C1705 1.400 . S
C1705 C1699 1.491 . S
C1705 C1704 1.400 . S
C1705 C1706 1.398 . S
C1706 H1694 0.950 . S
C1706 C1705 1.398 . S
C1706 C1707 1.391 . S
C1707 H1695 0.950 . S
C1707 C1703 1.393 . S
C1707 C1706 1.391 . S
H1708 C1716 0.950 . S
H1709 C1721 0.950 . S
H1710 C1718 0.950 . S
H1711 C1720 0.950 . S
H1712 C1722 0.950 . S
H1713 C1724 0.950 . S
H1714 C1726 0.950 . S
H1715 C1727 0.950 . S
C1716 H1708 0.950 . S
C1716 C1717 1.386 . S
C1716 C1718 1.391 . S
C1717 C1716 1.386 . S
C1717 C1721 1.393 . S
C1718 H1710 0.950 . S
C1718 C1716 1.391 . S
C1718 C1719 1.400 . S
C1719 C1718 1.400 . S
C1719 C1720 1.398 . S
C1719 C1725 1.491 . S
C1720 H1711 0.950 . S
C1720 C1719 1.398 . S
C1720 C1721 1.391 . S
C1721 H1709 0.950 . S
C1721 C1717 1.393 . S
C1721 C1720 1.391 . S
C1722 H1712 0.950 . S
C1722 C1723 1.386 . S
C1722 C1724 1.391 . S
C1723 C1722 1.386 . S
C1723 C1727 1.393 . S
C1724 H1713 0.950 . S
C1724 C1722 1.391 . S
C1724 C1725 1.400 . S
C1725 C1719 1.491 . S
C1725 C1724 1.400 . S
C1725 C1726 1.398 . S
C1726 H1714 0.950 . S
C1726 C1725 1.398 . S
C1726 C1727 1.391 . S
C1727 H1715 0.950 . S
C1727 C1723 1.393 . S
C1727 C1726 1.391 . S
H1728 C1736 0.950 . S
H1729 C1741 0.950 . S
H1730 C1738 0.950 . S
H1731 C1740 0.950 . S
H1732 C1742 0.950 . S
H1733 C1744 0.950 . S
H1734 C1746 0.950 . S
H1735 C1747 0.950 . S
C1736 H1728 0.950 . S
C1736 C1737 1.386 . S
C1736 C1738 1.391 . S
C1737 C1736 1.386 . S
C1737 C1741 1.393 . S
C1738 H1730 0.950 . S
C1738 C1736 1.391 . S
C1738 C1739 1.400 . S
C1739 C1738 1.400 . S
C1739 C1740 1.398 . S
C1739 C1745 1.491 . S
C1740 H1731 0.950 . S
C1740 C1739 1.398 . S
C1740 C1741 1.391 . S
C1741 H1729 0.950 . S
C1741 C1737 1.393 . S
C1741 C1740 1.391 . S
C1742 H1732 0.950 . S
C1742 C1743 1.386 . S
C1742 C1744 1.391 . S
C1743 C1742 1.386 . S
C1743 C1747 1.393 . S
C1744 H1733 0.950 . S
C1744 C1742 1.391 . S
C1744 C1745 1.400 . S
C1745 C1739 1.491 . S
C1745 C1744 1.400 . S
C1745 C1746 1.398 . S
C1746 H1734 0.950 . S
C1746 C1745 1.398 . S
C1746 C1747 1.391 . S
C1747 H1735 0.950 . S
C1747 C1743 1.393 . S
C1747 C1746 1.391 . S
H1748 C1756 0.950 . S
H1749 C1761 0.950 . S
H1750 C1758 0.950 . S
H1751 C1760 0.950 . S
H1752 C1762 0.950 . S
H1753 C1764 0.950 . S
H1754 C1766 0.950 . S
H1755 C1767 0.950 . S
C1756 H1748 0.950 . S
C1756 C1757 1.386 . S
C1756 C1758 1.391 . S
C1757 C1756 1.386 . S
C1757 C1761 1.393 . S
C1758 H1750 0.950 . S
C1758 C1756 1.391 . S
C1758 C1759 1.400 . S
C1759 C1758 1.400 . S
C1759 C1760 1.398 . S
C1759 C1765 1.491 . S
C1760 H1751 0.950 . S
C1760 C1759 1.398 . S
C1760 C1761 1.391 . S
C1761 H1749 0.950 . S
C1761 C1757 1.393 . S
C1761 C1760 1.391 . S
C1762 H1752 0.950 . S
C1762 C1763 1.386 . S
C1762 C1764 1.391 . S
C1763 C1762 1.386 . S
C1763 C1767 1.393 . S
C1764 H1753 0.950 . S
C1764 C1762 1.391 . S
C1764 C1765 1.400 . S
C1765 C1759 1.491 . S
C1765 C1764 1.400 . S
C1765 C1766 1.398 . S
C1766 H1754 0.950 . S
C1766 C1765 1.398 . S
C1766 C1767 1.391 . S
C1767 H1755 0.950 . S
C1767 C1763 1.393 . S
C1767 C1766 1.391 . S
H1768 C1776 0.950 . S
H1769 C1781 0.950 . S
H1770 C1778 0.950 . S
H1771 C1780 0.950 . S
H1772 C1782 0.950 . S
H1773 C1784 0.950 . S
H1774 C1786 0.950 . S
H1775 C1787 0.950 . S
C1776 H1768 0.950 . S
C1776 C1777 1.386 . S
C1776 C1778 1.391 . S
C1777 C1776 1.386 . S
C1777 C1781 1.393 . S
C1778 H1770 0.950 . S
C1778 C1776 1.391 . S
C1778 C1779 1.400 . S
C1779 C1778 1.400 . S
C1779 C1780 1.398 . S
C1779 C1785 1.491 . S
C1780 H1771 0.950 . S
C1780 C1779 1.398 . S
C1780 C1781 1.391 . S
C1781 H1769 0.950 . S
C1781 C1777 1.393 . S
C1781 C1780 1.391 . S
C1782 H1772 0.950 . S
C1782 C1783 1.386 . S
C1782 C1784 1.391 . S
C1783 C1782 1.386 . S
C1783 C1787 1.393 . S
C1784 H1773 0.950 . S
C1784 C1782 1.391 . S
C1784 C1785 1.400 . S
C1785 C1779 1.491 . S
C1785 C1784 1.400 . S
C1785 C1786 1.398 . S
C1786 H1774 0.950 . S
C1786 C1785 1.398 . S
C1786 C1787 1.391 . S
C1787 H1775 0.950 . S
C1787 C1783 1.393 . S
C1787 C1786 1.391 . S
H1788 C1796 0.950 . S
H1789 C1801 0.950 . S
H1790 C1798 0.950 . S
H1791 C1800 0.950 . S
H1792 C1802 0.950 . S
H1793 C1804 0.950 . S
H1794 C1806 0.950 . S
H1795 C1807 0.950 . S
C1796 H1788 0.950 . S
C1796 C1797 1.386 . S
C1796 C1798 1.391 . S
C1797 C1796 1.386 . S
C1797 C1801 1.393 . S
C1798 H1790 0.950 . S
C1798 C1796 1.391 . S
C1798 C1799 1.400 . S
C1799 C1798 1.400 . S
C1799 C1800 1.398 . S
C1799 C1805 1.491 . S
C1800 H1791 0.950 . S
C1800 C1799 1.398 . S
C1800 C1801 1.391 . S
C1801 H1789 0.950 . S
C1801 C1797 1.393 . S
C1801 C1800 1.391 . S
C1802 H1792 0.950 . S
C1802 C1803 1.386 . S
C1802 C1804 1.391 . S
C1803 C1802 1.386 . S
C1803 C1807 1.393 . S
C1804 H1793 0.950 . S
C1804 C1802 1.391 . S
C1804 C1805 1.400 . S
C1805 C1799 1.491 . S
C1805 C1804 1.400 . S
C1805 C1806 1.398 . S
C1806 H1794 0.950 . S
C1806 C1805 1.398 . S
C1806 C1807 1.391 . S
C1807 H1795 0.950 . S
C1807 C1803 1.393 . S
C1807 C1806 1.391 . S
H1808 C1816 0.950 . S
H1809 C1821 0.950 . S
H1810 C1818 0.950 . S
H1811 C1820 0.950 . S
H1812 C1822 0.950 . S
H1813 C1824 0.950 . S
H1814 C1826 0.950 . S
H1815 C1827 0.950 . S
C1816 H1808 0.950 . S
C1816 C1817 1.386 . S
C1816 C1818 1.391 . S
C1817 C1816 1.386 . S
C1817 C1821 1.393 . S
C1818 H1810 0.950 . S
C1818 C1816 1.391 . S
C1818 C1819 1.400 . S
C1819 C1818 1.400 . S
C1819 C1820 1.398 . S
C1819 C1825 1.491 . S
C1820 H1811 0.950 . S
C1820 C1819 1.398 . S
C1820 C1821 1.391 . S
C1821 H1809 0.950 . S
C1821 C1817 1.393 . S
C1821 C1820 1.391 . S
C1822 H1812 0.950 . S
C1822 C1823 1.386 . S
C1822 C1824 1.391 . S
C1823 C1822 1.386 . S
C1823 C1827 1.393 . S
C1824 H1813 0.950 . S
C1824 C1822 1.391 . S
C1824 C1825 1.400 . S
C1825 C1819 1.491 . S
C1825 C1824 1.400 . S
C1825 C1826 1.398 . S
C1826 H1814 0.950 . S
C1826 C1825 1.398 . S
C1826 C1827 1.391 . S
C1827 H1815 0.950 . S
C1827 C1823 1.393 . S
C1827 C1826 1.391 . S
H1828 C1836 0.950 . S
H1829 C1841 0.950 . S
H1830 C1838 0.950 . S
H1831 C1840 0.950 . S
H1832 C1842 0.950 . S
H1833 C1844 0.950 . S
H1834 C1846 0.950 . S
H1835 C1847 0.950 . S
C1836 H1828 0.950 . S
C1836 C1837 1.386 . S
C1836 C1838 1.391 . S
C1837 C1836 1.386 . S
C1837 C1841 1.393 . S
C1838 H1830 0.950 . S
C1838 C1836 1.391 . S
C1838 C1839 1.400 . S
C1839 C1838 1.400 . S
C1839 C1840 1.398 . S
C1839 C1845 1.491 . S
C1840 H1831 0.950 . S
C1840 C1839 1.398 . S
C1840 C1841 1.391 . S
C1841 H1829 0.950 . S
C1841 C1837 1.393 . S
C1841 C1840 1.391 . S
C1842 H1832 0.950 . S
C1842 C1843 1.386 . S
C1842 C1844 1.391 . S
C1843 C1842 1.386 . S
C1843 C1847 1.393 . S
C1844 H1833 0.950 . S
C1844 C1842 1.391 . S
C1844 C1845 1.400 . S
C1845 C1839 1.491 . S
C1845 C1844 1.400 . S
C1845 C1846 1.398 . S
C1846 H1834 0.950 . S
C1846 C1845 1.398 . S
C1846 C1847 1.391 . S
C1847 H1835 0.950 . S
C1847 C1843 1.393 . S
C1847 C1846 1.391 . S
H1848 C1856 0.950 . S
H1849 C1861 0.950 . S
H1850 C1858 0.950 . S
H1851 C1860 0.950 . S
H1852 C1862 0.950 . S
H1853 C1864 0.950 . S
H1854 C1866 0.950 . S
H1855 C1867 0.950 . S
C1856 H1848 0.950 . S
C1856 C1857 1.386 . S
C1856 C1858 1.391 . S
C1857 C1856 1.386 . S
C1857 C1861 1.393 . S
C1858 H1850 0.950 . S
C1858 C1856 1.391 . S
C1858 C1859 1.400 . S
C1859 C1858 1.400 . S
C1859 C1860 1.398 . S
C1859 C1865 1.491 . S
C1860 H1851 0.950 . S
C1860 C1859 1.398 . S
C1860 C1861 1.391 . S
C1861 H1849 0.950 . S
C1861 C1857 1.393 . S
C1861 C1860 1.391 . S
C1862 H1852 0.950 . S
C1862 C1863 1.386 . S
C1862 C1864 1.391 . S
C1863 C1862 1.386 . S
C1863 C1867 1.393 . S
C1864 H1853 0.950 . S
C1864 C1862 1.391 . S
C1864 C1865 1.400 . S
C1865 C1859 1.491 . S
C1865 C1864 1.400 . S
C1865 C1866 1.398 . S
C1866 H1854 0.950 . S
C1866 C1865 1.398 . S
C1866 C1867 1.391 . S
C1867 H1855 0.950 . S
C1867 C1863 1.393 . S
C1867 C1866 1.391 . S
H1868 C1876 0.950 . S
H1869 C1881 0.950 . S
H1870 C1878 0.950 . S
H1871 C1880 0.950 . S
H1872 C1882 0.950 . S
H1873 C1884 0.950 . S
H1874 C1886 0.950 . S
H1875 C1887 0.950 . S
C1876 H1868 0.950 . S
C1876 C1877 1.386 . S
C1876 C1878 1.391 . S
C1877 C1876 1.386 . S
C1877 C1881 1.393 . S
C1878 H1870 0.950 . S
C1878 C1876 1.391 . S
C1878 C1879 1.400 . S
C1879 C1878 1.400 . S
C1879 C1880 1.398 . S
C1879 C1885 1.491 . S
C1880 H1871 0.950 . S
C1880 C1879 1.398 . S
C1880 C1881 1.391 . S
C1881 H1869 0.950 . S
C1881 C1877 1.393 . S
C1881 C1880 1.391 . S
C1882 H1872 0.950 . S
C1882 C1883 1.386 . S
C1882 C1884 1.391 . S
C1883 C1882 1.386 . S
C1883 C1887 1.393 . S
C1884 H1873 0.950 . S
C1884 C1882 1.391 . S
C1884 C1885 1.400 . S
C1885 C1879 1.491 . S
C1885 C1884 1.400 . S
C1885 C1886 1.398 . S
C1886 H1874 0.950 . S
C1886 C1885 1.398 . S
C1886 C1887 1.391 . S
C1887 H1875 0.950 . S
C1887 C1883 1.393 . S
C1887 C1886 1.391 . S
H1888 C1896 0.950 . S
H1889 C1901 0.950 . S
H1890 C1898 0.950 . S
H1891 C1900 0.950 . S
H1892 C1902 0.950 . S
H1893 C1904 0.950 . S
H1894 C1906 0.950 . S
H1895 C1907 0.950 . S
C1896 H1888 0.950 . S
C1896 C1897 1.386 . S
C1896 C1898 1.391 . S
C1897 C1896 1.386 . S
C1897 C1901 1.393 . S
C1898 H1890 0.950 . S
C1898 C1896 1.391 . S
C1898 C1899 1.400 . S
C1899 C1898 1.400 . S
C1899 C1900 1.398 . S
C1899 C1905 1.491 . S
C1900 H1891 0.950 . S
C1900 C1899 1.398 . S
C1900 C1901 1.391 . S
C1901 H1889 0.950 . S
C1901 C1897 1.393 . S
C1901 C1900 1.391 . S
C1902 H1892 0.950 . S
C1902 C1903 1.386 . S
C1902 C1904 1.391 . S
C1903 C1902 1.386 . S
C1903 C1907 1.393 . S
C1904 H1893 0.950 . S
C1904 C1902 1.391 . S
C1904 C1905 1.400 . S
C1905 C1899 1.491 . S
C1905 C1904 1.400 . S
C1905 C1906 1.398 . S
C1906 H1894 0.950 . S
C1906 C1905 1.398 . S
C1906 C1907 1.391 . S
C1907 H1895 0.950 . S
C1907 C1903 1.393 . S
C1907 C1906 1.391 . S
H1908 C1916 0.950 . S
H1909 C1921 0.950 . S
H1910 C1918 0.950 . S
H1911 C1920 0.950 . S
H1912 C1922 0.950 . S
H1913 C1924 0.950 . S
H1914 C1926 0.950 . S
H1915 C1927 0.950 . S
C1916 H1908 0.950 . S
C1916 C1917 1.386 . S
C1916 C1918 1.391 . S
C1917 C1916 1.386 . S
C1917 C1921 1.393 . S
C1918 H1910 0.950 . S
C1918 C1916 1.391 . S
C1918 C1919 1.400 . S
C1919 C1918 1.400 . S
C1919 C1920 1.398 . S
C1919 C1925 1.491 . S
C1920 H1911 0.950 . S
C1920 C1919 1.398 . S
C1920 C1921 1.391 . S
C1921 H1909 0.950 . S
C1921 C1917 1.393 . S
C1921 C1920 1.391 . S
C1922 H1912 0.950 . S
C1922 C1923 1.386 . S
C1922 C1924 1.391 . S
C1923 C1922 1.386 . S
C1923 C1927 1.393 . S
C1924 H1913 0.950 . S
C1924 C1922 1.391 . S
C1924 C1925 1.400 . S
C1925 C1919 1.491 . S
C1925 C1924 1.400 . S
C1925 C1926 1.398 . S
C1926 H1914 0.950 . S
C1926 C1925 1.398 . S
C1926 C1927 1.391 . S
C1927 H1915 0.950 . S
C1927 C1923 1.393 . S
C1927 C1926 1.391 . S
H1928 C1936 0.950 . S
H1929 C1941 0.950 . S
H1930 C1938 0.950 . S
H1931 C1940 0.950 . S
H1932 C1942 0.950 . S
H1933 C1944 0.950 . S
H1934 C1946 0.950 . S
H1935 C1947 0.950 . S
C1936 H1928 0.950 . S
C1936 C1937 1.386 . S
C1936 C1938 1.391 . S
C1937 C1936 1.386 . S
C1937 C1941 1.393 . S
C1938 H1930 0.950 . S
C1938 C1936 1.391 . S
C1938 C1939 1.400 . S
C1939 C1938 1.400 . S
C1939 C1940 1.398 . S
C1939 C1945 1.491 . S
C1940 H1931 0.950 . S
C1940 C1939 1.398 . S
C1940 C1941 1.391 . S
C1941 H1929 0.950 . S
C1941 C1937 1.393 . S
C1941 C1940 1.391 . S
C1942 H1932 0.950 . S
C1942 C1943 1.386 . S
C1942 C1944 1.391 . S
C1943 C1942 1.386 . S
C1943 C1947 1.393 . S
C1944 H1933 0.950 . S
C1944 C1942 1.391 . S
C1944 C1945 1.400 . S
C1945 C1939 1.491 . S
C1945 C1944 1.400 . S
C1945 C1946 1.398 . S
C1946 H1934 0.950 . S
C1946 C1945 1.398 . S
C1946 C1947 1.391 . S
C1947 H1935 0.950 . S
C1947 C1943 1.393 . S
C1947 C1946 1.391 . S
H1948 C1956 0.950 . S
H1949 C1961 0.950 . S
H1950 C1958 0.950 . S
H1951 C1960 0.950 . S
H1952 C1962 0.950 . S
H1953 C1964 0.950 . S
H1954 C1966 0.950 . S
H1955 C1967 0.950 . S
C1956 H1948 0.950 . S
C1956 C1957 1.386 . S
C1956 C1958 1.391 . S
C1957 C1956 1.386 . S
C1957 C1961 1.393 . S
C1958 H1950 0.950 . S
C1958 C1956 1.391 . S
C1958 C1959 1.400 . S
C1959 C1958 1.400 . S
C1959 C1960 1.398 . S
C1959 C1965 1.491 . S
C1960 H1951 0.950 . S
C1960 C1959 1.398 . S
C1960 C1961 1.391 . S
C1961 H1949 0.950 . S
C1961 C1957 1.393 . S
C1961 C1960 1.391 . S
C1962 H1952 0.950 . S
C1962 C1963 1.386 . S
C1962 C1964 1.391 . S
C1963 C1962 1.386 . S
C1963 C1967 1.393 . S
C1964 H1953 0.950 . S
C1964 C1962 1.391 . S
C1964 C1965 1.400 . S
C1965 C1959 1.491 . S
C1965 C1964 1.400 . S
C1965 C1966 1.398 . S
C1966 H1954 0.950 . S
C1966 C1965 1.398 . S
C1966 C1967 1.391 . S
C1967 H1955 0.950 . S
C1967 C1963 1.393 . S
C1967 C1966 1.391 . S
H1968 C1976 0.950 . S
H1969 C1981 0.950 . S
H1970 C1978 0.950 . S
H1971 C1980 0.950 . S
H1972 C1982 0.950 . S
H1973 C1984 0.950 . S
H1974 C1986 0.950 . S
H1975 C1987 0.950 . S
C1976 H1968 0.950 . S
C1976 C1977 1.386 . S
C1976 C1978 1.391 . S
C1977 C1976 1.386 . S
C1977 C1981 1.393 . S
C1978 H1970 0.950 . S
C1978 C1976 1.391 . S
C1978 C1979 1.400 . S
C1979 C1978 1.400 . S
C1979 C1980 1.398 . S
C1979 C1985 1.491 . S
C1980 H1971 0.950 . S
C1980 C1979 1.398 . S
C1980 C1981 1.391 . S
C1981 H1969 0.950 . S
C1981 C1977 1.393 . S
C1981 C1980 1.391 . S
C1982 H1972 0.950 . S
C1982 C1983 1.386 . S
C1982 C1984 1.391 . S
C1983 C1982 1.386 . S
C1983 C1987 1.393 . S
C1984 H1973 0.950 . S
C1984 C1982 1.391 . S
C1984 C1985 1.400 . S
C1985 C1979 1.491 . S
C1985 C1984 1.400 . S
C1985 C1986 1.398 . S
C1986 H1974 0.950 . S
C1986 C1985 1.398 . S
C1986 C1987 1.391 . S
C1987 H1975 0.950 . S
C1987 C1983 1.393 . S
C1987 C1986 1.391 . S
H1988 C1996 0.950 . S
H1989 C2001 0.950 . S
H1990 C1998 0.950 . S
H1991 C2000 0.950 . S
H1992 C2002 0.950 . S
H1993 C2004 0.950 . S
H1994 C2006 0.950 . S
H1995 C2007 0.950 . S
C1996 H1988 0.950 . S
C1996 C1997 1.386 . S
C1996 C1998 1.391 . S
C1997 C1996 1.386 . S
C1997 C2001 1.393 . S
C1998 H1990 0.950 . S
C1998 C1996 1.391 . S
C1998 C1999 1.400 . S
C1999 C1998 1.400 . S
C1999 C2000 1.398 . S
C1999 C2005 1.491 . S
C2000 H1991 0.950 . S
C2000 C1999 1.398 . S
C2000 C2001 1.391 . S
C2001 H1989 0.950 . S
C2001 C1997 1.393 . S
C2001 C2000 1.391 . S
C2002 H1992 0.950 . S
C2002 C2003 1.386 . S
C2002 C2004 1.391 . S
C2003 C2002 1.386 . S
C2003 C2007 1.393 . S
C2004 H1993 0.950 . S
C2004 C2002 1.391 . S
C2004 C2005 1.400 . S
C2005 C1999 1.491 . S
C2005 C2004 1.400 . S
C2005 C2006 1.398 . S
C2006 H1994 0.950 . S
C2006 C2005 1.398 . S
C2006 C2007 1.391 . S
C2007 H1995 0.950 . S
C2007 C2003 1.393 . S
C2007 C2006 1.391 . S
H2008 C2016 0.950 . S
H2009 C2021 0.950 . S
H2010 C2018 0.950 . S
H2011 C2020 0.950 . S
H2012 C2022 0.950 . S
H2013 C2024 0.950 . S
H2014 C2026 0.950 . S
H2015 C2027 0.950 . S
C2016 H2008 0.950 . S
C2016 C2017 1.386 . S
C2016 C2018 1.391 . S
C2017 C2016 1.386 . S
C2017 C2021 1.393 . S
C2018 H2010 0.950 . S
C2018 C2016 1.391 . S
C2018 C2019 1.400 . S
C2019 C2018 1.400 . S
C2019 C2020 1.398 . S
C2019 C2025 1.491 . S
C2020 H2011 0.950 . S
C2020 C2019 1.398 . S
C2020 C2021 1.391 . S
C2021 H2009 0.950 . S
C2021 C2017 1.393 . S
C2021 C2020 1.391 . S
C2022 H2012 0.950 . S
C2022 C2023 1.386 . S
C2022 C2024 1.391 . S
C2023 C2022 1.386 . S
C2023 C2027 1.393 . S
C2024 H2013 0.950 . S
C2024 C2022 1.391 . S
C2024 C2025 1.400 . S
C2025 C2019 1.491 . S
C2025 C2024 1.400 . S
C2025 C2026 1.398 . S
C2026 H2014 0.950 . S
C2026 C2025 1.398 . S
C2026 C2027 1.391 . S
C2027 H2015 0.950 . S
C2027 C2023 1.393 . S
C2027 C2026 1.391 . S
H2028 C2036 0.950 . S
H2029 C2041 0.950 . S
H2030 C2038 0.950 . S
H2031 C2040 0.950 . S
H2032 C2042 0.950 . S
H2033 C2044 0.950 . S
H2034 C2046 0.950 . S
H2035 C2047 0.950 . S
C2036 H2028 0.950 . S
C2036 C2037 1.386 . S
C2036 C2038 1.391 . S
C2037 C2036 1.386 . S
C2037 C2041 1.393 . S
C2038 H2030 0.950 . S
C2038 C2036 1.391 . S
C2038 C2039 1.400 . S
C2039 C2038 1.400 . S
C2039 C2040 1.398 . S
C2039 C2045 1.491 . S
C2040 H2031 0.950 . S
C2040 C2039 1.398 . S
C2040 C2041 1.391 . S
C2041 H2029 0.950 . S
C2041 C2037 1.393 . S
C2041 C2040 1.391 . S
C2042 H2032 0.950 . S
C2042 C2043 1.386 . S
C2042 C2044 1.391 . S
C2043 C2042 1.386 . S
C2043 C2047 1.393 . S
C2044 H2033 0.950 . S
C2044 C2042 1.391 . S
C2044 C2045 1.400 . S
C2045 C2039 1.491 . S
C2045 C2044 1.400 . S
C2045 C2046 1.398 . S
C2046 H2034 0.950 . S
C2046 C2045 1.398 . S
C2046 C2047 1.391 . S
C2047 H2035 0.950 . S
C2047 C2043 1.393 . S
C2047 C2046 1.391 . S
H2048 C2056 0.950 . S
H2049 C2061 0.950 . S
H2050 C2058 0.950 . S
H2051 C2060 0.950 . S
H2052 C2062 0.950 . S
H2053 C2064 0.950 . S
H2054 C2066 0.950 . S
H2055 C2067 0.950 . S
C2056 H2048 0.950 . S
C2056 C2057 1.386 . S
C2056 C2058 1.391 . S
C2057 C2056 1.386 . S
C2057 C2061 1.393 . S
C2058 H2050 0.950 . S
C2058 C2056 1.391 . S
C2058 C2059 1.400 . S
C2059 C2058 1.400 . S
C2059 C2060 1.398 . S
C2059 C2065 1.491 . S
C2060 H2051 0.950 . S
C2060 C2059 1.398 . S
C2060 C2061 1.391 . S
C2061 H2049 0.950 . S
C2061 C2057 1.393 . S
C2061 C2060 1.391 . S
C2062 H2052 0.950 . S
C2062 C2063 1.386 . S
C2062 C2064 1.391 . S
C2063 C2062 1.386 . S
C2063 C2067 1.393 . S
C2064 H2053 0.950 . S
C2064 C2062 1.391 . S
C2064 C2065 1.400 . S
C2065 C2059 1.491 . S
C2065 C2064 1.400 . S
C2065 C2066 1.398 . S
C2066 H2054 0.950 . S
C2066 C2065 1.398 . S
C2066 C2067 1.391 . S
C2067 H2055 0.950 . S
C2067 C2063 1.393 . S
C2067 C2066 1.391 . S
H2068 C2076 0.950 . S
H2069 C2081 0.950 . S
H2070 C2078 0.950 . S
H2071 C2080 0.950 . S
H2072 C2082 0.950 . S
H2073 C2084 0.950 . S
H2074 C2086 0.950 . S
H2075 C2087 0.950 . S
C2076 H2068 0.950 . S
C2076 C2077 1.386 . S
C2076 C2078 1.391 . S
C2077 C2076 1.386 . S
C2077 C2081 1.393 . S
C2078 H2070 0.950 . S
C2078 C2076 1.391 . S
C2078 C2079 1.400 . S
C2079 C2078 1.400 . S
C2079 C2080 1.398 . S
C2079 C2085 1.491 . S
C2080 H2071 0.950 . S
C2080 C2079 1.398 . S
C2080 C2081 1.391 . S
C2081 H2069 0.950 . S
C2081 C2077 1.393 . S
C2081 C2080 1.391 . S
C2082 H2072 0.950 . S
C2082 C2083 1.386 . S
C2082 C2084 1.391 . S
C2083 C2082 1.386 . S
C2083 C2087 1.393 . S
C2084 H2073 0.950 . S
C2084 C2082 1.391 . S
C2084 C2085 1.400 . S
C2085 C2079 1.491 . S
C2085 C2084 1.400 . S
C2085 C2086 1.398 . S
C2086 H2074 0.950 . S
C2086 C2085 1.398 . S
C2086 C2087 1.391 . S
C2087 H2075 0.950 . S
C2087 C2083 1.393 . S
C2087 C2086 1.391 . S
H2088 C2096 0.950 . S
H2089 C2101 0.950 . S
H2090 C2098 0.950 . S
H2091 C2100 0.950 . S
H2092 C2102 0.950 . S
H2093 C2104 0.950 . S
H2094 C2106 0.950 . S
H2095 C2107 0.950 . S
C2096 H2088 0.950 . S
C2096 C2097 1.386 . S
C2096 C2098 1.391 . S
C2097 C2096 1.386 . S
C2097 C2101 1.393 . S
C2098 H2090 0.950 . S
C2098 C2096 1.391 . S
C2098 C2099 1.400 . S
C2099 C2098 1.400 . S
C2099 C2100 1.398 . S
C2099 C2105 1.491 . S
C2100 H2091 0.950 . S
C2100 C2099 1.398 . S
C2100 C2101 1.391 . S
C2101 H2089 0.950 . S
C2101 C2097 1.393 . S
C2101 C2100 1.391 . S
C2102 H2092 0.950 . S
C2102 C2103 1.386 . S
C2102 C2104 1.391 . S
C2103 C2102 1.386 . S
C2103 C2107 1.393 . S
C2104 H2093 0.950 . S
C2104 C2102 1.391 . S
C2104 C2105 1.400 . S
C2105 C2099 1.491 . S
C2105 C2104 1.400 . S
C2105 C2106 1.398 . S
C2106 H2094 0.950 . S
C2106 C2105 1.398 . S
C2106 C2107 1.391 . S
C2107 H2095 0.950 . S
C2107 C2103 1.393 . S
C2107 C2106 1.391 . S
H2108 C2116 0.950 . S
H2109 C2121 0.950 . S
H2110 C2118 0.950 . S
H2111 C2120 0.950 . S
H2112 C2122 0.950 . S
H2113 C2124 0.950 . S
H2114 C2126 0.950 . S
H2115 C2127 0.950 . S
C2116 H2108 0.950 . S
C2116 C2117 1.386 . S
C2116 C2118 1.391 . S
C2117 C2116 1.386 . S
C2117 C2121 1.393 . S
C2118 H2110 0.950 . S
C2118 C2116 1.391 . S
C2118 C2119 1.400 . S
C2119 C2118 1.400 . S
C2119 C2120 1.398 . S
C2119 C2125 1.491 . S
C2120 H2111 0.950 . S
C2120 C2119 1.398 . S
C2120 C2121 1.391 . S
C2121 H2109 0.950 . S
C2121 C2117 1.393 . S
C2121 C2120 1.391 . S
C2122 H2112 0.950 . S
C2122 C2123 1.386 . S
C2122 C2124 1.391 . S
C2123 C2122 1.386 . S
C2123 C2127 1.393 . S
C2124 H2113 0.950 . S
C2124 C2122 1.391 . S
C2124 C2125 1.400 . S
C2125 C2119 1.491 . S
C2125 C2124 1.400 . S
C2125 C2126 1.398 . S
C2126 H2114 0.950 . S
C2126 C2125 1.398 . S
C2126 C2127 1.391 . S
C2127 H2115 0.950 . S
C2127 C2123 1.393 . S
C2127 C2126 1.391 . S
H2128 C2136 0.950 . S
H2129 C2141 0.950 . S
H2130 C2138 0.950 . S
H2131 C2140 0.950 . S
H2132 C2142 0.950 . S
H2133 C2144 0.950 . S
H2134 C2146 0.950 . S
H2135 C2147 0.950 . S
C2136 H2128 0.950 . S
C2136 C2137 1.386 . S
C2136 C2138 1.391 . S
C2137 C2136 1.386 . S
C2137 C2141 1.393 . S
C2138 H2130 0.950 . S
C2138 C2136 1.391 . S
C2138 C2139 1.400 . S
C2139 C2138 1.400 . S
C2139 C2140 1.398 . S
C2139 C2145 1.491 . S
C2140 H2131 0.950 . S
C2140 C2139 1.398 . S
C2140 C2141 1.391 . S
C2141 H2129 0.950 . S
C2141 C2137 1.393 . S
C2141 C2140 1.391 . S
C2142 H2132 0.950 . S
C2142 C2143 1.386 . S
C2142 C2144 1.391 . S
C2143 C2142 1.386 . S
C2143 C2147 1.393 . S
C2144 H2133 0.950 . S
C2144 C2142 1.391 . S
C2144 C2145 1.400 . S
C2145 C2139 1.491 . S
C2145 C2144 1.400 . S
C2145 C2146 1.398 . S
C2146 H2134 0.950 . S
C2146 C2145 1.398 . S
C2146 C2147 1.391 . S
C2147 H2135 0.950 . S
C2147 C2143 1.393 . S
C2147 C2146 1.391 . S
H2148 C2156 0.950 . S
H2149 C2161 0.950 . S
H2150 C2158 0.950 . S
H2151 C2160 0.950 . S
H2152 C2162 0.950 . S
H2153 C2164 0.950 . S
H2154 C2166 0.950 . S
H2155 C2167 0.950 . S
C2156 H2148 0.950 . S
C2156 C2157 1.386 . S
C2156 C2158 1.391 . S
C2157 C2156 1.386 . S
C2157 C2161 1.393 . S
C2158 H2150 0.950 . S
C2158 C2156 1.391 . S
C2158 C2159 1.400 . S
C2159 C2158 1.400 . S
C2159 C2160 1.398 . S
C2159 C2165 1.491 . S
C2160 H2151 0.950 . S
C2160 C2159 1.398 . S
C2160 C2161 1.391 . S
C2161 H2149 0.950 . S
C2161 C2157 1.393 . S
C2161 C2160 1.391 . S
C2162 H2152 0.950 . S
C2162 C2163 1.386 . S
C2162 C2164 1.391 . S
C2163 C2162 1.386 . S
C2163 C2167 1.393 . S
C2164 H2153 0.950 . S
C2164 C2162 1.391 . S
C2164 C2165 1.400 . S
C2165 C2159 1.491 . S
C2165 C2164 1.400 . S
C2165 C2166 1.398 . S
C2166 H2154 0.950 . S
C2166 C2165 1.398 . S
C2166 C2167 1.391 . S
C2167 H2155 0.950 . S
C2167 C2163 1.393 . S
C2167 C2166 1.391 . S
H2168 C2176 0.950 1_554 S
H2169 C2181 0.950 . S
H2170 C2178 0.950 . S
H2171 C2180 0.950 . S
H2172 C2182 0.950 . S
H2173 C2184 0.950 . S
H2174 C2186 0.950 . S
H2175 C2187 0.950 . S
C2176 H2168 0.950 1_556 S
C2176 C2177 1.386 . S
C2176 C2178 1.391 . S
C2177 C2176 1.386 . S
C2177 C2181 1.393 . S
C2178 H2170 0.950 . S
C2178 C2176 1.391 . S
C2178 C2179 1.400 . S
C2179 C2178 1.400 . S
C2179 C2180 1.398 . S
C2179 C2185 1.491 . S
C2180 H2171 0.950 . S
C2180 C2179 1.398 . S
C2180 C2181 1.391 . S
C2181 H2169 0.950 . S
C2181 C2177 1.393 . S
C2181 C2180 1.391 . S
C2182 H2172 0.950 . S
C2182 C2183 1.386 . S
C2182 C2184 1.391 . S
C2183 C2182 1.386 . S
C2183 C2187 1.393 . S
C2184 H2173 0.950 . S
C2184 C2182 1.391 . S
C2184 C2185 1.400 . S
C2185 C2179 1.491 . S
C2185 C2184 1.400 . S
C2185 C2186 1.398 . S
C2186 H2174 0.950 . S
C2186 C2185 1.398 . S
C2186 C2187 1.391 . S
C2187 H2175 0.950 . S
C2187 C2183 1.393 . S
C2187 C2186 1.391 . S
H2188 C2196 0.950 . S
H2189 C2201 0.950 . S
H2190 C2198 0.950 . S
H2191 C2200 0.950 . S
H2192 C2202 0.950 . S
H2193 C2204 0.950 . S
H2194 C2206 0.950 . S
H2195 C2207 0.950 . S
C2196 H2188 0.950 . S
C2196 C2197 1.386 . S
C2196 C2198 1.391 . S
C2197 C2196 1.386 . S
C2197 C2201 1.393 . S
C2198 H2190 0.950 . S
C2198 C2196 1.391 . S
C2198 C2199 1.400 . S
C2199 C2198 1.400 . S
C2199 C2200 1.398 . S
C2199 C2205 1.491 . S
C2200 H2191 0.950 . S
C2200 C2199 1.398 . S
C2200 C2201 1.391 . S
C2201 H2189 0.950 . S
C2201 C2197 1.393 . S
C2201 C2200 1.391 . S
C2202 H2192 0.950 . S
C2202 C2203 1.386 . S
C2202 C2204 1.391 . S
C2203 C2202 1.386 . S
C2203 C2207 1.393 . S
C2204 H2193 0.950 . S
C2204 C2202 1.391 . S
C2204 C2205 1.400 . S
C2205 C2199 1.491 . S
C2205 C2204 1.400 . S
C2205 C2206 1.398 . S
C2206 H2194 0.950 . S
C2206 C2205 1.398 . S
C2206 C2207 1.391 . S
C2207 H2195 0.950 . S
C2207 C2203 1.393 . S
C2207 C2206 1.391 . S
H2208 C2216 0.950 . S
H2209 C2221 0.950 . S
H2210 C2218 0.950 . S
H2211 C2220 0.950 . S
H2212 C2222 0.950 . S
H2213 C2224 0.950 . S
H2214 C2226 0.950 . S
H2215 C2227 0.950 . S
C2216 H2208 0.950 . S
C2216 C2217 1.386 . S
C2216 C2218 1.391 . S
C2217 C2216 1.386 . S
C2217 C2221 1.393 . S
C2218 H2210 0.950 . S
C2218 C2216 1.391 . S
C2218 C2219 1.400 . S
C2219 C2218 1.400 . S
C2219 C2220 1.398 . S
C2219 C2225 1.491 . S
C2220 H2211 0.950 . S
C2220 C2219 1.398 . S
C2220 C2221 1.391 . S
C2221 H2209 0.950 . S
C2221 C2217 1.393 . S
C2221 C2220 1.391 . S
C2222 H2212 0.950 . S
C2222 C2223 1.386 . S
C2222 C2224 1.391 . S
C2223 C2222 1.386 . S
C2223 C2227 1.393 . S
C2224 H2213 0.950 . S
C2224 C2222 1.391 . S
C2224 C2225 1.400 . S
C2225 C2219 1.491 . S
C2225 C2224 1.400 . S
C2225 C2226 1.398 . S
C2226 H2214 0.950 . S
C2226 C2225 1.398 . S
C2226 C2227 1.391 . S
C2227 H2215 0.950 . S
C2227 C2223 1.393 . S
C2227 C2226 1.391 . S
H2228 C2236 0.950 . S
H2229 C2241 0.950 . S
H2230 C2238 0.950 . S
H2231 C2240 0.950 . S
H2232 C2242 0.950 . S
H2233 C2244 0.950 . S
H2234 C2246 0.950 . S
H2235 C2247 0.950 . S
C2236 H2228 0.950 . S
C2236 C2237 1.386 . S
C2236 C2238 1.391 . S
C2237 C2236 1.386 . S
C2237 C2241 1.393 . S
C2238 H2230 0.950 . S
C2238 C2236 1.391 . S
C2238 C2239 1.400 . S
C2239 C2238 1.400 . S
C2239 C2240 1.398 . S
C2239 C2245 1.491 . S
C2240 H2231 0.950 . S
C2240 C2239 1.398 . S
C2240 C2241 1.391 . S
C2241 H2229 0.950 . S
C2241 C2237 1.393 . S
C2241 C2240 1.391 . S
C2242 H2232 0.950 . S
C2242 C2243 1.386 . S
C2242 C2244 1.391 . S
C2243 C2242 1.386 . S
C2243 C2247 1.393 . S
C2244 H2233 0.950 . S
C2244 C2242 1.391 . S
C2244 C2245 1.400 . S
C2245 C2239 1.491 . S
C2245 C2244 1.400 . S
C2245 C2246 1.398 . S
C2246 H2234 0.950 . S
C2246 C2245 1.398 . S
C2246 C2247 1.391 . S
C2247 H2235 0.950 . S
C2247 C2243 1.393 . S
C2247 C2246 1.391 . S
H2248 C2256 0.950 . S
H2249 C2261 0.950 . S
H2250 C2258 0.950 . S
H2251 C2260 0.950 . S
H2252 C2262 0.950 . S
H2253 C2264 0.950 . S
H2254 C2266 0.950 . S
H2255 C2267 0.950 . S
C2256 H2248 0.950 . S
C2256 C2257 1.386 . S
C2256 C2258 1.391 . S
C2257 C2256 1.386 . S
C2257 C2261 1.393 . S
C2258 H2250 0.950 . S
C2258 C2256 1.391 . S
C2258 C2259 1.400 . S
C2259 C2258 1.400 . S
C2259 C2260 1.398 . S
C2259 C2265 1.491 . S
C2260 H2251 0.950 . S
C2260 C2259 1.398 . S
C2260 C2261 1.391 . S
C2261 H2249 0.950 . S
C2261 C2257 1.393 . S
C2261 C2260 1.391 . S
C2262 H2252 0.950 . S
C2262 C2263 1.386 . S
C2262 C2264 1.391 . S
C2263 C2262 1.386 . S
C2263 C2267 1.393 . S
C2264 H2253 0.950 . S
C2264 C2262 1.391 . S
C2264 C2265 1.400 . S
C2265 C2259 1.491 . S
C2265 C2264 1.400 . S
C2265 C2266 1.398 . S
C2266 H2254 0.950 . S
C2266 C2265 1.398 . S
C2266 C2267 1.391 . S
C2267 H2255 0.950 . S
C2267 C2263 1.393 . S
C2267 C2266 1.391 . S
H2268 C2276 0.950 . S
H2269 C2281 0.950 . S
H2270 C2278 0.950 . S
H2271 C2280 0.950 . S
H2272 C2282 0.950 . S
H2273 C2284 0.950 . S
H2274 C2286 0.950 . S
H2275 C2287 0.950 . S
C2276 H2268 0.950 . S
C2276 C2277 1.386 . S
C2276 C2278 1.391 . S
C2277 C2276 1.386 . S
C2277 C2281 1.393 . S
C2278 H2270 0.950 . S
C2278 C2276 1.391 . S
C2278 C2279 1.400 . S
C2279 C2278 1.400 . S
C2279 C2280 1.398 . S
C2279 C2285 1.491 . S
C2280 H2271 0.950 . S
C2280 C2279 1.398 . S
C2280 C2281 1.391 . S
C2281 H2269 0.950 . S
C2281 C2277 1.393 . S
C2281 C2280 1.391 . S
C2282 H2272 0.950 . S
C2282 C2283 1.386 . S
C2282 C2284 1.391 . S
C2283 C2282 1.386 . S
C2283 C2287 1.393 . S
C2284 H2273 0.950 . S
C2284 C2282 1.391 . S
C2284 C2285 1.400 . S
C2285 C2279 1.491 . S
C2285 C2284 1.400 . S
C2285 C2286 1.398 . S
C2286 H2274 0.950 . S
C2286 C2285 1.398 . S
C2286 C2287 1.391 . S
C2287 H2275 0.950 . S
C2287 C2283 1.393 . S
C2287 C2286 1.391 . S
H2288 C2296 0.950 . S
H2289 C2301 0.950 . S
H2290 C2298 0.950 . S
H2291 C2300 0.950 . S
H2292 C2302 0.950 . S
H2293 C2304 0.950 . S
H2294 C2306 0.950 . S
H2295 C2307 0.950 . S
C2296 H2288 0.950 . S
C2296 C2297 1.386 . S
C2296 C2298 1.391 . S
C2297 C2296 1.386 . S
C2297 C2301 1.393 . S
C2298 H2290 0.950 . S
C2298 C2296 1.391 . S
C2298 C2299 1.400 . S
C2299 C2298 1.400 . S
C2299 C2300 1.398 . S
C2299 C2305 1.491 . S
C2300 H2291 0.950 . S
C2300 C2299 1.398 . S
C2300 C2301 1.391 . S
C2301 H2289 0.950 . S
C2301 C2297 1.393 . S
C2301 C2300 1.391 . S
C2302 H2292 0.950 . S
C2302 C2303 1.386 . S
C2302 C2304 1.391 . S
C2303 C2302 1.386 . S
C2303 C2307 1.393 . S
C2304 H2293 0.950 . S
C2304 C2302 1.391 . S
C2304 C2305 1.400 . S
C2305 C2299 1.491 . S
C2305 C2304 1.400 . S
C2305 C2306 1.398 . S
C2306 H2294 0.950 . S
C2306 C2305 1.398 . S
C2306 C2307 1.391 . S
C2307 H2295 0.950 . S
C2307 C2303 1.393 . S
C2307 C2306 1.391 . S
H2308 C2316 0.950 . S
H2309 C2321 0.950 . S
H2310 C2318 0.950 . S
H2311 C2320 0.950 . S
H2312 C2322 0.950 . S
H2313 C2324 0.950 . S
H2314 C2326 0.950 . S
H2315 C2327 0.950 . S
C2316 H2308 0.950 . S
C2316 C2317 1.386 . S
C2316 C2318 1.391 . S
C2317 C2316 1.386 . S
C2317 C2321 1.393 . S
C2318 H2310 0.950 . S
C2318 C2316 1.391 . S
C2318 C2319 1.400 . S
C2319 C2318 1.400 . S
C2319 C2320 1.398 . S
C2319 C2325 1.491 . S
C2320 H2311 0.950 . S
C2320 C2319 1.398 . S
C2320 C2321 1.391 . S
C2321 H2309 0.950 . S
C2321 C2317 1.393 . S
C2321 C2320 1.391 . S
C2322 H2312 0.950 . S
C2322 C2323 1.386 . S
C2322 C2324 1.391 . S
C2323 C2322 1.386 . S
C2323 C2327 1.393 . S
C2324 H2313 0.950 . S
C2324 C2322 1.391 . S
C2324 C2325 1.400 . S
C2325 C2319 1.491 . S
C2325 C2324 1.400 . S
C2325 C2326 1.398 . S
C2326 H2314 0.950 . S
C2326 C2325 1.398 . S
C2326 C2327 1.391 . S
C2327 H2315 0.950 . S
C2327 C2323 1.393 . S
C2327 C2326 1.391 . S
H2328 C2336 0.950 . S
H2329 C2341 0.950 . S
H2330 C2338 0.950 . S
H2331 C2340 0.950 . S
H2332 C2342 0.950 . S
H2333 C2344 0.950 . S
H2334 C2346 0.950 . S
H2335 C2347 0.950 . S
C2336 H2328 0.950 . S
C2336 C2337 1.386 . S
C2336 C2338 1.391 . S
C2337 C2336 1.386 . S
C2337 C2341 1.393 . S
C2338 H2330 0.950 . S
C2338 C2336 1.391 . S
C2338 C2339 1.400 . S
C2339 C2338 1.400 . S
C2339 C2340 1.398 . S
C2339 C2345 1.491 . S
C2340 H2331 0.950 . S
C2340 C2339 1.398 . S
C2340 C2341 1.391 . S
C2341 H2329 0.950 . S
C2341 C2337 1.393 . S
C2341 C2340 1.391 . S
C2342 H2332 0.950 . S
C2342 C2343 1.386 . S
C2342 C2344 1.391 . S
C2343 C2342 1.386 . S
C2343 C2347 1.393 . S
C2344 H2333 0.950 . S
C2344 C2342 1.391 . S
C2344 C2345 1.400 . S
C2345 C2339 1.491 . S
C2345 C2344 1.400 . S
C2345 C2346 1.398 . S
C2346 H2334 0.950 . S
C2346 C2345 1.398 . S
C2346 C2347 1.391 . S
C2347 H2335 0.950 . S
C2347 C2343 1.393 . S
C2347 C2346 1.391 . S
H2348 C2356 0.950 . S
H2349 C2361 0.950 . S
H2350 C2358 0.950 . S
H2351 C2360 0.950 . S
H2352 C2362 0.950 . S
H2353 C2364 0.950 . S
H2354 C2366 0.950 . S
H2355 C2367 0.950 . S
C2356 H2348 0.950 . S
C2356 C2357 1.386 . S
C2356 C2358 1.391 . S
C2357 C2356 1.386 . S
C2357 C2361 1.393 . S
C2358 H2350 0.950 . S
C2358 C2356 1.391 . S
C2358 C2359 1.400 . S
C2359 C2358 1.400 . S
C2359 C2360 1.398 . S
C2359 C2365 1.491 . S
C2360 H2351 0.950 . S
C2360 C2359 1.398 . S
C2360 C2361 1.391 . S
C2361 H2349 0.950 . S
C2361 C2357 1.393 . S
C2361 C2360 1.391 . S
C2362 H2352 0.950 . S
C2362 C2363 1.386 . S
C2362 C2364 1.391 . S
C2363 C2362 1.386 . S
C2363 C2367 1.393 . S
C2364 H2353 0.950 . S
C2364 C2362 1.391 . S
C2364 C2365 1.400 . S
C2365 C2359 1.491 . S
C2365 C2364 1.400 . S
C2365 C2366 1.398 . S
C2366 H2354 0.950 . S
C2366 C2365 1.398 . S
C2366 C2367 1.391 . S
C2367 H2355 0.950 . S
C2367 C2363 1.393 . S
C2367 C2366 1.391 . S
H2368 C2376 0.950 . S
H2369 C2381 0.950 . S
H2370 C2378 0.950 . S
H2371 C2380 0.950 . S
H2372 C2382 0.950 . S
H2373 C2384 0.950 . S
H2374 C2386 0.950 . S
H2375 C2387 0.950 . S
C2376 H2368 0.950 . S
C2376 C2377 1.386 . S
C2376 C2378 1.391 . S
C2377 C2376 1.386 . S
C2377 C2381 1.393 . S
C2378 H2370 0.950 . S
C2378 C2376 1.391 . S
C2378 C2379 1.400 . S
C2379 C2378 1.400 . S
C2379 C2380 1.398 . S
C2379 C2385 1.491 . S
C2380 H2371 0.950 . S
C2380 C2379 1.398 . S
C2380 C2381 1.391 . S
C2381 H2369 0.950 . S
C2381 C2377 1.393 . S
C2381 C2380 1.391 . S
C2382 H2372 0.950 . S
C2382 C2383 1.386 . S
C2382 C2384 1.391 . S
C2383 C2382 1.386 . S
C2383 C2387 1.393 . S
C2384 H2373 0.950 . S
C2384 C2382 1.391 . S
C2384 C2385 1.400 . S
C2385 C2379 1.491 . S
C2385 C2384 1.400 . S
C2385 C2386 1.398 . S
C2386 H2374 0.950 . S
C2386 C2385 1.398 . S
C2386 C2387 1.391 . S
C2387 H2375 0.950 . S
C2387 C2383 1.393 . S
C2387 C2386 1.391 . S
H2388 C2396 0.933 1_655 S
H2389 C2401 0.950 . S
H2390 C2398 0.950 1_655 S
H2391 C2400 0.950 . S
H2392 C2402 0.950 . S
H2393 C2404 0.950 . S
H2394 C2406 0.950 1_655 S
H2395 C2407 0.873 1_655 S
C2396 H2388 0.933 1_455 S
C2396 C2397 1.386 . S
C2396 C2398 1.391 . S
C2397 C2396 1.386 . S
C2397 C2401 1.393 . S
C2398 H2390 0.950 1_455 S
C2398 C2396 1.391 . S
C2398 C2399 1.400 . S
C2399 C2398 1.400 . S
C2399 C2400 1.398 . S
C2399 C2405 1.491 . S
C2400 H2391 0.950 . S
C2400 C2399 1.398 . S
C2400 C2401 1.391 . S
C2401 H2389 0.950 . S
C2401 C2397 1.393 . S
C2401 C2400 1.391 . S
C2402 H2392 0.950 . S
C2402 C2403 1.386 . S
C2402 C2404 1.391 . S
C2403 C2402 1.386 . S
C2403 C2407 1.426 . S
C2404 H2393 0.950 . S
C2404 C2402 1.391 . S
C2404 C2405 1.400 . S
C2405 C2399 1.491 . S
C2405 C2404 1.400 . S
C2405 C2406 1.398 . S
C2406 H2394 0.950 1_455 S
C2406 C2405 1.398 . S
C2406 C2407 1.437 . S
C2407 H2395 0.873 1_455 S
C2407 C2403 1.426 . S
C2407 C2406 1.437 . S
H2408 C2416 0.950 . S
H2409 C2421 0.950 . S
H2410 C2418 0.950 . S
H2411 C2420 0.950 . S
H2412 C2422 0.950 . S
H2413 C2424 0.950 . S
H2414 C2426 0.950 . S
H2415 C2427 0.950 . S
C2416 H2408 0.950 . S
C2416 C2417 1.386 . S
C2416 C2418 1.391 . S
C2417 C2416 1.386 . S
C2417 C2421 1.393 . S
C2418 H2410 0.950 . S
C2418 C2416 1.391 . S
C2418 C2419 1.400 . S
C2419 C2418 1.400 . S
C2419 C2420 1.398 . S
C2419 C2425 1.491 . S
C2420 H2411 0.950 . S
C2420 C2419 1.398 . S
C2420 C2421 1.391 . S
C2421 H2409 0.950 . S
C2421 C2417 1.393 . S
C2421 C2420 1.391 . S
C2422 H2412 0.950 . S
C2422 C2423 1.386 . S
C2422 C2424 1.391 . S
C2423 C2422 1.386 . S
C2423 C2427 1.393 . S
C2424 H2413 0.950 . S
C2424 C2422 1.391 . S
C2424 C2425 1.400 . S
C2425 C2419 1.491 . S
C2425 C2424 1.400 . S
C2425 C2426 1.398 . S
C2426 H2414 0.950 . S
C2426 C2425 1.398 . S
C2426 C2427 1.391 . S
C2427 H2415 0.950 . S
C2427 C2423 1.393 . S
C2427 C2426 1.391 . S
H2428 C2436 0.950 . S
H2429 C2441 0.950 . S
H2430 C2438 0.950 . S
H2431 C2440 0.950 . S
H2432 C2442 0.934 1_545 S
H2433 C2444 0.950 . S
H2434 C2446 0.950 . S
H2435 C2447 0.950 . S
C2436 H2428 0.950 . S
C2436 C2437 1.386 . S
C2436 C2438 1.391 . S
C2437 C2436 1.386 . S
C2437 C2441 1.393 . S
C2438 H2430 0.950 . S
C2438 C2436 1.391 . S
C2438 C2439 1.400 . S
C2439 C2438 1.400 . S
C2439 C2440 1.398 . S
C2439 C2445 1.491 . S
C2440 H2431 0.950 . S
C2440 C2439 1.398 . S
C2440 C2441 1.391 . S
C2441 H2429 0.950 . S
C2441 C2437 1.393 . S
C2441 C2440 1.391 . S
C2442 H2432 0.934 1_565 S
C2442 C2443 1.386 . S
C2442 C2444 1.391 . S
C2443 C2442 1.386 . S
C2443 C2447 1.393 . S
C2444 H2433 0.950 . S
C2444 C2442 1.391 . S
C2444 C2445 1.400 . S
C2445 C2439 1.491 . S
C2445 C2444 1.400 . S
C2445 C2446 1.398 . S
C2446 H2434 0.950 . S
C2446 C2445 1.398 . S
C2446 C2447 1.391 . S
C2447 H2435 0.950 . S
C2447 C2443 1.393 . S
C2447 C2446 1.391 . S
H2448 C2456 0.950 . S
H2449 C2461 0.950 1_545 S
H2450 C2458 0.950 . S
H2451 C2460 0.950 1_545 S
H2452 C2462 0.950 . S
H2453 C2464 0.950 . S
H2454 C2466 0.950 . S
H2455 C2467 0.950 . S
C2456 H2448 0.950 . S
C2456 C2457 1.386 . S
C2456 C2458 1.391 . S
C2457 C2456 1.386 . S
C2457 C2461 1.393 . S
C2458 H2450 0.950 . S
C2458 C2456 1.391 . S
C2458 C2459 1.400 . S
C2459 C2458 1.400 . S
C2459 C2460 1.398 . S
C2459 C2465 1.491 . S
C2460 H2451 0.950 1_565 S
C2460 C2459 1.398 . S
C2460 C2461 1.391 . S
C2461 H2449 0.950 1_565 S
C2461 C2457 1.393 . S
C2461 C2460 1.391 . S
C2462 H2452 0.950 . S
C2462 C2463 1.386 1_545 S
C2462 C2464 1.391 . S
C2463 C2462 1.386 1_565 S
C2463 C2467 1.393 . S
C2464 H2453 0.950 . S
C2464 C2462 1.391 . S
C2464 C2465 1.400 1_545 S
C2465 C2459 1.491 . S
C2465 C2464 1.400 1_565 S
C2465 C2466 1.398 . S
C2466 H2454 0.950 . S
C2466 C2465 1.398 . S
C2466 C2467 1.391 . S
C2467 H2455 0.950 . S
C2467 C2463 1.393 . S
C2467 C2466 1.391 . S
H2468 C2476 0.950 . S
H2469 C2481 0.950 . S
H2470 C2478 0.950 . S
H2471 C2480 0.950 . S
H2472 C2482 0.950 1_655 S
H2473 C2484 0.995 . S
H2474 C2486 0.950 . S
H2475 C2487 0.950 . S
C2476 H2468 0.950 . S
C2476 C2477 1.386 . S
C2476 C2478 1.391 . S
C2477 C2476 1.386 . S
C2477 C2481 1.393 . S
C2478 H2470 0.950 . S
C2478 C2476 1.391 . S
C2478 C2479 1.400 . S
C2479 C2478 1.400 . S
C2479 C2480 1.398 . S
C2479 C2485 1.491 . S
C2480 H2471 0.950 . S
C2480 C2479 1.398 . S
C2480 C2481 1.391 . S
C2481 H2469 0.950 . S
C2481 C2477 1.393 . S
C2481 C2480 1.391 . S
C2482 H2472 0.950 1_455 S
C2482 C2483 1.386 . S
C2482 C2484 1.391 . S
C2483 C2482 1.386 . S
C2483 C2487 1.393 . S
C2484 H2473 0.995 . S
C2484 C2482 1.391 . S
C2484 C2485 1.400 . S
C2485 C2479 1.491 . S
C2485 C2484 1.400 . S
C2485 C2486 1.398 . S
C2486 H2474 0.950 . S
C2486 C2485 1.398 . S
C2486 C2487 1.391 . S
C2487 H2475 0.950 . S
C2487 C2483 1.393 . S
C2487 C2486 1.391 . S
H2488 C2496 0.950 . S
H2489 C2501 0.950 . S
H2490 C2498 0.950 . S
H2491 C2500 0.950 . S
H2492 C2502 0.950 . S
H2493 C2504 0.950 . S
H2494 C2506 0.950 . S
H2495 C2507 0.950 . S
C2496 H2488 0.950 . S
C2496 C2497 1.386 . S
C2496 C2498 1.391 . S
C2497 C2496 1.386 . S
C2497 C2501 1.393 . S
C2498 H2490 0.950 . S
C2498 C2496 1.391 . S
C2498 C2499 1.400 . S
C2499 C2498 1.400 . S
C2499 C2500 1.398 . S
C2499 C2505 1.491 . S
C2500 H2491 0.950 . S
C2500 C2499 1.398 . S
C2500 C2501 1.391 . S
C2501 H2489 0.950 . S
C2501 C2497 1.393 . S
C2501 C2500 1.391 . S
C2502 H2492 0.950 . S
C2502 C2503 1.386 . S
C2502 C2504 1.391 . S
C2503 C2502 1.386 . S
C2503 C2507 1.393 . S
C2504 H2493 0.950 . S
C2504 C2502 1.391 . S
C2504 C2505 1.400 . S
C2505 C2499 1.491 . S
C2505 C2504 1.400 . S
C2505 C2506 1.398 . S
C2506 H2494 0.950 . S
C2506 C2505 1.398 . S
C2506 C2507 1.391 . S
C2507 H2495 0.950 . S
C2507 C2503 1.393 . S
C2507 C2506 1.391 . S
H2508 C2516 0.950 . S
H2509 C2521 0.950 . S
H2510 C2518 0.950 . S
H2511 C2520 0.950 . S
H2512 C2522 0.950 . S
H2513 C2524 0.950 . S
H2514 C2526 0.950 . S
H2515 C2527 0.950 . S
C2516 H2508 0.950 . S
C2516 C2517 1.386 . S
C2516 C2518 1.391 . S
C2517 C2516 1.386 . S
C2517 C2521 1.393 . S
C2518 H2510 0.950 . S
C2518 C2516 1.391 . S
C2518 C2519 1.400 . S
C2519 C2518 1.400 . S
C2519 C2520 1.398 . S
C2519 C2525 1.491 . S
C2520 H2511 0.950 . S
C2520 C2519 1.398 . S
C2520 C2521 1.391 . S
C2521 H2509 0.950 . S
C2521 C2517 1.393 . S
C2521 C2520 1.391 . S
C2522 H2512 0.950 . S
C2522 C2523 1.386 . S
C2522 C2524 1.391 . S
C2523 C2522 1.386 . S
C2523 C2527 1.393 . S
C2524 H2513 0.950 . S
C2524 C2522 1.391 . S
C2524 C2525 1.400 . S
C2525 C2519 1.491 . S
C2525 C2524 1.400 . S
C2525 C2526 1.398 . S
C2526 H2514 0.950 . S
C2526 C2525 1.398 . S
C2526 C2527 1.391 . S
C2527 H2515 0.950 . S
C2527 C2523 1.393 . S
C2527 C2526 1.391 . S
H2528 C2536 0.950 . S
H2529 C2541 0.950 . S
H2530 C2538 0.950 . S
H2531 C2540 0.950 . S
H2532 C2542 0.950 . S
H2533 C2544 0.950 . S
H2534 C2546 0.950 . S
H2535 C2547 0.950 . S
C2536 H2528 0.950 . S
C2536 C2537 1.386 . S
C2536 C2538 1.391 . S
C2537 C2536 1.386 . S
C2537 C2541 1.393 . S
C2538 H2530 0.950 . S
C2538 C2536 1.391 . S
C2538 C2539 1.400 . S
C2539 C2538 1.400 . S
C2539 C2540 1.398 . S
C2539 C2545 1.491 . S
C2540 H2531 0.950 . S
C2540 C2539 1.398 . S
C2540 C2541 1.391 . S
C2541 H2529 0.950 . S
C2541 C2537 1.393 . S
C2541 C2540 1.391 . S
C2542 H2532 0.950 . S
C2542 C2543 1.386 . S
C2542 C2544 1.391 . S
C2543 C2542 1.386 . S
C2543 C2547 1.393 . S
C2544 H2533 0.950 . S
C2544 C2542 1.391 . S
C2544 C2545 1.400 . S
C2545 C2539 1.491 . S
C2545 C2544 1.400 . S
C2545 C2546 1.398 . S
C2546 H2534 0.950 . S
C2546 C2545 1.398 . S
C2546 C2547 1.391 . S
C2547 H2535 0.950 . S
C2547 C2543 1.393 . S
C2547 C2546 1.391 . S
H2548 C2556 0.950 . S
H2549 C2561 0.950 . S
H2550 C2558 0.950 . S
H2551 C2560 0.950 . S
H2552 C2562 0.950 . S
H2553 C2564 0.950 . S
H2554 C2566 0.950 . S
H2555 C2567 0.950 . S
C2556 H2548 0.950 . S
C2556 C2557 1.386 . S
C2556 C2558 1.391 . S
C2557 C2556 1.386 . S
C2557 C2561 1.393 . S
C2558 H2550 0.950 . S
C2558 C2556 1.391 . S
C2558 C2559 1.400 . S
C2559 C2558 1.400 . S
C2559 C2560 1.398 . S
C2559 C2565 1.491 . S
C2560 H2551 0.950 . S
C2560 C2559 1.398 . S
C2560 C2561 1.391 . S
C2561 H2549 0.950 . S
C2561 C2557 1.393 . S
C2561 C2560 1.391 . S
C2562 H2552 0.950 . S
C2562 C2563 1.386 . S
C2562 C2564 1.391 . S
C2563 C2562 1.386 . S
C2563 C2567 1.393 . S
C2564 H2553 0.950 . S
C2564 C2562 1.391 . S
C2564 C2565 1.400 . S
C2565 C2559 1.491 . S
C2565 C2564 1.400 . S
C2565 C2566 1.398 . S
C2566 H2554 0.950 . S
C2566 C2565 1.398 . S
C2566 C2567 1.391 . S
C2567 H2555 0.950 . S
C2567 C2563 1.393 . S
C2567 C2566 1.391 . S
H2568 C2576 0.950 . S
H2569 C2581 0.950 . S
H2570 C2578 0.950 . S
H2571 C2580 0.950 . S
H2572 C2582 0.950 . S
H2573 C2584 0.950 . S
H2574 C2586 0.950 . S
H2575 C2587 0.950 . S
C2576 H2568 0.950 . S
C2576 C2577 1.386 . S
C2576 C2578 1.391 . S
C2577 C2576 1.386 . S
C2577 C2581 1.393 . S
C2578 H2570 0.950 . S
C2578 C2576 1.391 . S
C2578 C2579 1.400 . S
C2579 C2578 1.400 . S
C2579 C2580 1.398 . S
C2579 C2585 1.491 . S
C2580 H2571 0.950 . S
C2580 C2579 1.398 . S
C2580 C2581 1.391 . S
C2581 H2569 0.950 . S
C2581 C2577 1.393 . S
C2581 C2580 1.391 . S
C2582 H2572 0.950 . S
C2582 C2583 1.386 . S
C2582 C2584 1.391 . S
C2583 C2582 1.386 . S
C2583 C2587 1.393 . S
C2584 H2573 0.950 . S
C2584 C2582 1.391 . S
C2584 C2585 1.400 . S
C2585 C2579 1.491 . S
C2585 C2584 1.400 . S
C2585 C2586 1.398 . S
C2586 H2574 0.950 . S
C2586 C2585 1.398 . S
C2586 C2587 1.391 . S
C2587 H2575 0.950 . S
C2587 C2583 1.393 . S
C2587 C2586 1.391 . S
H2588 C2596 0.950 . S
H2589 C2601 0.950 . S
H2590 C2598 0.950 1_455 S
H2591 C2600 0.950 . S
H2592 C2602 0.950 . S
H2593 C2604 0.950 . S
H2594 C2606 0.955 1_455 S
H2595 C2607 0.950 . S
C2596 H2588 0.950 . S
C2596 C2597 1.386 . S
C2596 C2598 1.391 . S
C2597 C2596 1.386 . S
C2597 C2601 1.393 . S
C2598 H2590 0.950 1_655 S
C2598 C2596 1.391 . S
C2598 C2599 1.400 . S
C2599 C2598 1.400 . S
C2599 C2600 1.398 . S
C2599 C2605 1.491 . S
C2600 H2591 0.950 . S
C2600 C2599 1.398 . S
C2600 C2601 1.391 . S
C2601 H2589 0.950 . S
C2601 C2597 1.393 . S
C2601 C2600 1.391 . S
C2602 H2592 0.950 . S
C2602 C2603 1.386 . S
C2602 C2604 1.391 . S
C2603 C2602 1.386 . S
C2603 C2607 1.393 1_655 S
C2604 H2593 0.950 . S
C2604 C2602 1.391 . S
C2604 C2605 1.400 . S
C2605 C2599 1.491 . S
C2605 C2604 1.400 . S
C2605 C2606 1.397 . S
C2606 H2594 0.955 1_655 S
C2606 C2605 1.397 . S
C2606 C2607 1.387 1_655 S
C2607 H2595 0.950 . S
C2607 C2603 1.393 1_455 S
C2607 C2606 1.387 1_455 S
H2608 C2616 0.950 . S
H2609 C2621 0.950 . S
H2610 C2618 0.950 . S
H2611 C2620 0.950 . S
H2612 C2622 0.950 . S
H2613 C2624 0.950 . S
H2614 C2626 0.950 . S
H2615 C2627 0.950 . S
C2616 H2608 0.950 . S
C2616 C2617 1.386 . S
C2616 C2618 1.391 . S
C2617 C2616 1.386 . S
C2617 C2621 1.393 . S
C2618 H2610 0.950 . S
C2618 C2616 1.391 . S
C2618 C2619 1.400 . S
C2619 C2618 1.400 . S
C2619 C2620 1.398 . S
C2619 C2625 1.491 . S
C2620 H2611 0.950 . S
C2620 C2619 1.398 . S
C2620 C2621 1.391 . S
C2621 H2609 0.950 . S
C2621 C2617 1.393 . S
C2621 C2620 1.391 . S
C2622 H2612 0.950 . S
C2622 C2623 1.386 . S
C2622 C2624 1.391 . S
C2623 C2622 1.386 . S
C2623 C2627 1.393 . S
C2624 H2613 0.950 . S
C2624 C2622 1.391 . S
C2624 C2625 1.400 . S
C2625 C2619 1.491 . S
C2625 C2624 1.400 . S
C2625 C2626 1.398 . S
C2626 H2614 0.950 . S
C2626 C2625 1.398 . S
C2626 C2627 1.391 . S
C2627 H2615 0.950 . S
C2627 C2623 1.393 . S
C2627 C2626 1.391 . S
H2628 C2636 0.950 . S
H2629 C2641 0.950 . S
H2630 C2638 0.950 . S
H2631 C2640 0.950 . S
H2632 C2642 0.950 . S
H2633 C2644 0.950 . S
H2634 C2646 0.950 . S
H2635 C2647 0.950 . S
C2636 H2628 0.950 . S
C2636 C2637 1.386 . S
C2636 C2638 1.391 . S
C2637 C2636 1.386 . S
C2637 C2641 1.393 . S
C2638 H2630 0.950 . S
C2638 C2636 1.391 . S
C2638 C2639 1.400 . S
C2639 C2638 1.400 . S
C2639 C2640 1.398 . S
C2639 C2645 1.491 . S
C2640 H2631 0.950 . S
C2640 C2639 1.398 . S
C2640 C2641 1.391 . S
C2641 H2629 0.950 . S
C2641 C2637 1.393 . S
C2641 C2640 1.391 . S
C2642 H2632 0.950 . S
C2642 C2643 1.386 . S
C2642 C2644 1.391 . S
C2643 C2642 1.386 . S
C2643 C2647 1.393 . S
C2644 H2633 0.950 . S
C2644 C2642 1.391 . S
C2644 C2645 1.400 . S
C2645 C2639 1.491 . S
C2645 C2644 1.400 . S
C2645 C2646 1.398 . S
C2646 H2634 0.950 . S
C2646 C2645 1.398 . S
C2646 C2647 1.391 . S
C2647 H2635 0.950 . S
C2647 C2643 1.393 . S
C2647 C2646 1.391 . S
H2648 C2656 0.950 . S
H2649 C2661 0.950 . S
H2650 C2658 0.950 . S
H2651 C2660 0.950 . S
H2652 C2662 0.950 . S
H2653 C2664 0.950 . S
H2654 C2666 0.950 . S
H2655 C2667 0.950 . S
C2656 H2648 0.950 . S
C2656 C2657 1.386 . S
C2656 C2658 1.391 . S
C2657 C2656 1.386 . S
C2657 C2661 1.393 . S
C2658 H2650 0.950 . S
C2658 C2656 1.391 . S
C2658 C2659 1.400 . S
C2659 C2658 1.400 . S
C2659 C2660 1.398 . S
C2659 C2665 1.491 . S
C2660 H2651 0.950 . S
C2660 C2659 1.398 . S
C2660 C2661 1.391 . S
C2661 H2649 0.950 . S
C2661 C2657 1.393 . S
C2661 C2660 1.391 . S
C2662 H2652 0.950 . S
C2662 C2663 1.386 . S
C2662 C2664 1.391 . S
C2663 C2662 1.386 . S
C2663 C2667 1.393 . S
C2664 H2653 0.950 . S
C2664 C2662 1.391 . S
C2664 C2665 1.400 . S
C2665 C2659 1.491 . S
C2665 C2664 1.400 . S
C2665 C2666 1.398 . S
C2666 H2654 0.950 . S
C2666 C2665 1.398 . S
C2666 C2667 1.391 . S
C2667 H2655 0.950 . S
C2667 C2663 1.393 . S
C2667 C2666 1.391 . S
H2668 C2676 0.950 . S
H2669 C2681 0.950 . S
H2670 C2678 0.950 . S
H2671 C2680 0.950 . S
H2672 C2682 0.950 . S
H2673 C2684 0.950 . S
H2674 C2686 0.950 . S
H2675 C2687 0.950 . S
C2676 H2668 0.950 . S
C2676 C2677 1.386 . S
C2676 C2678 1.391 . S
C2677 C2676 1.386 . S
C2677 C2681 1.393 . S
C2678 H2670 0.950 . S
C2678 C2676 1.391 . S
C2678 C2679 1.400 . S
C2679 C2678 1.400 . S
C2679 C2680 1.398 . S
C2679 C2685 1.491 . S
C2680 H2671 0.950 . S
C2680 C2679 1.398 . S
C2680 C2681 1.391 . S
C2681 H2669 0.950 . S
C2681 C2677 1.393 . S
C2681 C2680 1.391 . S
C2682 H2672 0.950 . S
C2682 C2683 1.386 . S
C2682 C2684 1.391 . S
C2683 C2682 1.386 . S
C2683 C2687 1.393 . S
C2684 H2673 0.950 . S
C2684 C2682 1.391 . S
C2684 C2685 1.400 . S
C2685 C2679 1.491 . S
C2685 C2684 1.400 . S
C2685 C2686 1.398 . S
C2686 H2674 0.950 . S
C2686 C2685 1.398 . S
C2686 C2687 1.391 . S
C2687 H2675 0.950 . S
C2687 C2683 1.393 . S
C2687 C2686 1.391 . S
H2688 C2696 0.950 . S
H2689 C2701 0.950 . S
H2690 C2698 0.950 . S
H2691 C2700 0.950 . S
H2692 C2702 0.950 . S
H2693 C2704 0.950 . S
H2694 C2706 0.950 . S
H2695 C2707 0.950 . S
C2696 H2688 0.950 . S
C2696 C2697 1.386 . S
C2696 C2698 1.391 . S
C2697 C2696 1.386 . S
C2697 C2701 1.393 . S
C2698 H2690 0.950 . S
C2698 C2696 1.391 . S
C2698 C2699 1.400 . S
C2699 C2698 1.400 . S
C2699 C2700 1.398 . S
C2699 C2705 1.491 . S
C2700 H2691 0.950 . S
C2700 C2699 1.398 . S
C2700 C2701 1.391 . S
C2701 H2689 0.950 . S
C2701 C2697 1.393 . S
C2701 C2700 1.391 . S
C2702 H2692 0.950 . S
C2702 C2703 1.386 . S
C2702 C2704 1.391 . S
C2703 C2702 1.386 . S
C2703 C2707 1.393 . S
C2704 H2693 0.950 . S
C2704 C2702 1.391 . S
C2704 C2705 1.400 . S
C2705 C2699 1.491 . S
C2705 C2704 1.400 . S
C2705 C2706 1.398 . S
C2706 H2694 0.950 . S
C2706 C2705 1.398 . S
C2706 C2707 1.391 . S
C2707 H2695 0.950 . S
C2707 C2703 1.393 . S
C2707 C2706 1.391 . S
H2708 C2716 0.950 . S
H2709 C2721 0.950 . S
H2710 C2718 0.950 . S
H2711 C2720 0.950 . S
H2712 C2722 0.950 . S
H2713 C2724 0.950 . S
H2714 C2726 0.950 . S
H2715 C2727 0.950 . S
C2716 H2708 0.950 . S
C2716 C2717 1.386 . S
C2716 C2718 1.391 . S
C2717 C2716 1.386 . S
C2717 C2721 1.393 . S
C2718 H2710 0.950 . S
C2718 C2716 1.391 . S
C2718 C2719 1.400 . S
C2719 C2718 1.400 . S
C2719 C2720 1.398 . S
C2719 C2725 1.491 . S
C2720 H2711 0.950 . S
C2720 C2719 1.398 . S
C2720 C2721 1.391 . S
C2721 H2709 0.950 . S
C2721 C2717 1.393 . S
C2721 C2720 1.391 . S
C2722 H2712 0.950 . S
C2722 C2723 1.386 . S
C2722 C2724 1.391 . S
C2723 C2722 1.386 . S
C2723 C2727 1.393 . S
C2724 H2713 0.950 . S
C2724 C2722 1.391 . S
C2724 C2725 1.400 . S
C2725 C2719 1.491 . S
C2725 C2724 1.400 . S
C2725 C2726 1.398 . S
C2726 H2714 0.950 . S
C2726 C2725 1.398 . S
C2726 C2727 1.391 . S
C2727 H2715 0.950 . S
C2727 C2723 1.393 . S
C2727 C2726 1.391 . S
H2728 C2736 0.950 . S
H2729 C2741 0.950 . S
H2730 C2738 0.950 . S
H2731 C2740 0.950 . S
H2732 C2742 0.950 . S
H2733 C2744 0.950 . S
H2734 C2746 0.950 . S
H2735 C2747 0.950 . S
C2736 H2728 0.950 . S
C2736 C2737 1.386 . S
C2736 C2738 1.391 . S
C2737 C2736 1.386 . S
C2737 C2741 1.393 . S
C2738 H2730 0.950 . S
C2738 C2736 1.391 . S
C2738 C2739 1.400 . S
C2739 C2738 1.400 . S
C2739 C2740 1.398 . S
C2739 C2745 1.491 . S
C2740 H2731 0.950 . S
C2740 C2739 1.398 . S
C2740 C2741 1.391 . S
C2741 H2729 0.950 . S
C2741 C2737 1.393 . S
C2741 C2740 1.391 . S
C2742 H2732 0.950 . S
C2742 C2743 1.386 . S
C2742 C2744 1.391 . S
C2743 C2742 1.386 . S
C2743 C2747 1.393 . S
C2744 H2733 0.950 . S
C2744 C2742 1.391 . S
C2744 C2745 1.400 . S
C2745 C2739 1.491 . S
C2745 C2744 1.400 . S
C2745 C2746 1.398 . S
C2746 H2734 0.950 . S
C2746 C2745 1.398 . S
C2746 C2747 1.391 . S
C2747 H2735 0.950 . S
C2747 C2743 1.393 . S
C2747 C2746 1.391 . S
H2748 C2756 0.950 . S
H2749 C2761 0.950 . S
H2750 C2758 0.950 . S
H2751 C2760 0.950 . S
H2752 C2762 0.950 . S
H2753 C2764 0.950 . S
H2754 C2766 0.950 . S
H2755 C2767 0.925 1_455 S
C2756 H2748 0.950 . S
C2756 C2757 1.386 . S
C2756 C2758 1.391 . S
C2757 C2756 1.386 . S
C2757 C2761 1.393 . S
C2758 H2750 0.950 . S
C2758 C2756 1.391 . S
C2758 C2759 1.400 . S
C2759 C2758 1.400 . S
C2759 C2760 1.398 . S
C2759 C2765 1.491 . S
C2760 H2751 0.950 . S
C2760 C2759 1.398 . S
C2760 C2761 1.391 . S
C2761 H2749 0.950 . S
C2761 C2757 1.393 . S
C2761 C2760 1.391 . S
C2762 H2752 0.950 . S
C2762 C2763 1.386 . S
C2762 C2764 1.391 . S
C2763 C2762 1.386 . S
C2763 C2767 1.393 . S
C2764 H2753 0.950 . S
C2764 C2762 1.391 . S
C2764 C2765 1.400 . S
C2765 C2759 1.491 . S
C2765 C2764 1.400 . S
C2765 C2766 1.398 . S
C2766 H2754 0.950 . S
C2766 C2765 1.398 . S
C2766 C2767 1.391 . S
C2767 H2755 0.925 1_655 S
C2767 C2763 1.393 . S
C2767 C2766 1.391 . S
H2768 C2776 0.950 . S
H2769 C2781 0.950 . S
H2770 C2778 0.950 . S
H2771 C2780 0.950 . S
H2772 C2782 0.950 . S
H2773 C2784 0.950 . S
H2774 C2786 0.950 . S
H2775 C2787 0.950 . S
C2776 H2768 0.950 . S
C2776 C2777 1.386 . S
C2776 C2778 1.391 . S
C2777 C2776 1.386 . S
C2777 C2781 1.393 . S
C2778 H2770 0.950 . S
C2778 C2776 1.391 . S
C2778 C2779 1.400 . S
C2779 C2778 1.400 . S
C2779 C2780 1.398 . S
C2779 C2785 1.491 . S
C2780 H2771 0.950 . S
C2780 C2779 1.398 . S
C2780 C2781 1.391 . S
C2781 H2769 0.950 . S
C2781 C2777 1.393 . S
C2781 C2780 1.391 . S
C2782 H2772 0.950 . S
C2782 C2783 1.386 . S
C2782 C2784 1.391 . S
C2783 C2782 1.386 . S
C2783 C2787 1.393 . S
C2784 H2773 0.950 . S
C2784 C2782 1.391 . S
C2784 C2785 1.400 . S
C2785 C2779 1.491 . S
C2785 C2784 1.400 . S
C2785 C2786 1.398 . S
C2786 H2774 0.950 . S
C2786 C2785 1.398 . S
C2786 C2787 1.391 . S
C2787 H2775 0.950 . S
C2787 C2783 1.393 . S
C2787 C2786 1.391 . S
H2788 C2796 0.950 . S
H2789 C2801 0.950 . S
H2790 C2798 0.950 . S
H2791 C2800 0.950 . S
H2792 C2802 0.950 . S
H2793 C2804 0.950 . S
H2794 C2806 0.950 . S
H2795 C2807 0.950 . S
C2796 H2788 0.950 . S
C2796 C2797 1.386 . S
C2796 C2798 1.391 . S
C2797 C2796 1.386 . S
C2797 C2801 1.393 . S
C2798 H2790 0.950 . S
C2798 C2796 1.391 . S
C2798 C2799 1.400 . S
C2799 C2798 1.400 . S
C2799 C2800 1.398 . S
C2799 C2805 1.491 . S
C2800 H2791 0.950 . S
C2800 C2799 1.398 . S
C2800 C2801 1.391 . S
C2801 H2789 0.950 . S
C2801 C2797 1.393 . S
C2801 C2800 1.391 . S
C2802 H2792 0.950 . S
C2802 C2803 1.386 . S
C2802 C2804 1.391 . S
C2803 C2802 1.386 . S
C2803 C2807 1.393 . S
C2804 H2793 0.950 . S
C2804 C2802 1.391 . S
C2804 C2805 1.400 . S
C2805 C2799 1.491 . S
C2805 C2804 1.400 . S
C2805 C2806 1.398 . S
C2806 H2794 0.950 . S
C2806 C2805 1.398 . S
C2806 C2807 1.391 . S
C2807 H2795 0.950 . S
C2807 C2803 1.393 . S
C2807 C2806 1.391 . S
C1377 C8 1.561 . S
C1383 C857 1.523 . S
C1397 C22 1.569 . S
C1403 C901 1.527 . S
C1423 C981 1.517 . S
C1417 C37 1.568 1_545 S
C1437 C36 1.556 . S
C1443 C1025 1.522 . S
C1457 C9 1.568 1_455 S
C1463 C1105 1.500 . S
C1477 C23 1.568 . S
C1483 C1167 1.513 . S
C1497 C50 1.549 1_455 S
C1503 C1087 1.496 . S
C1523 C1149 1.513 . S
C1517 C64 1.568 . S
C1543 C1043 1.514 . S
C1537 C79 1.568 . S
C1557 C78 1.541 1_545 S
C1563 C963 1.521 . S
C1583 C839 1.518 . S
C1577 C51 1.565 . S
C1597 C65 1.555 . S
C1603 C919 1.520 . S
C1617 C92 1.563 . S
C1623 C1229 1.496 . S
C1637 C106 1.569 . S
C1643 C1273 1.530 . S
C1663 C1353 1.503 . S
C1657 C121 1.557 . S
C1677 C120 1.557 . S
C1683 C299 1.503 . S
C1697 C93 1.563 . S
C1703 C343 1.534 . S
C1717 C107 1.559 . S
C1723 C423 1.500 . S
C1737 C134 1.566 . S
C1743 C361 1.512 . S
C1757 C148 1.561 . S
C1763 C405 1.523 . S
C1783 C281 1.495 . S
C1777 C163 1.568 . S
C1803 C1335 1.522 . S
C1797 C162 1.562 . S
C1823 C1211 1.522 . S
C1817 C135 1.561 . S
C1843 C1291 1.532 . S
C1837 C149 1.568 . S
C1857 C176 1.557 . S
C1863 C485 1.521 . S
C1877 C190 1.569 . S
C1883 C547 1.498 . S
C1897 C205 1.557 . S
C1903 C591 1.513 . S
C1917 C204 1.568 . S
C1923 C653 1.515 . S
C1943 C715 1.509 . S
C1937 C177 1.561 . S
C1963 C795 1.504 . S
C1957 C191 1.558 . S
C1983 C733 1.512 . S
C1977 C218 1.558 . S
C2003 C777 1.522 . S
C1997 C232 1.561 . S
C2017 C247 1.568 . S
C2023 C671 1.516 . S
C2043 C609 1.516 . S
C2037 C246 1.568 . S
C2057 C219 1.570 . S
C2063 C467 1.499 . S
C2083 C529 1.522 . S
C2077 C233 1.561 . S
C2103 C305 1.458 . S
C2097 C6 1.492 . S
C2117 C20 1.482 . S
C2123 C349 1.471 . S
C2143 C429 1.462 . S
C2137 C35 1.482 . S
C2163 C491 1.458 . S
C2157 C34 1.485 . S
C2183 C553 1.472 . S
C2177 C7 1.482 . S
C2203 C597 1.485 . S
C2197 C21 1.491 . S
C2217 C48 1.488 . S
C2223 C615 1.482 . S
C2237 C62 1.487 . S
C2243 C473 1.480 . S
C2257 C77 1.494 . S
C2263 C535 1.482 . S
C2277 C76 1.493 . S
C2283 C367 1.466 . S
C2303 C411 1.482 . S
C2297 C49 1.489 . S
C2317 C63 1.482 . S
C2323 C287 1.464 . S
C2343 C659 1.484 . S
C2337 C90 1.490 . S
C2357 C104 1.491 . S
C2363 C721 1.485 . S
C2377 C119 1.482 . S
C2383 C801 1.462 . S
C2403 C863 1.458 . S
C2397 C118 1.487 . S
C2417 C91 1.501 . S
C2423 C907 1.482 . S
C2437 C105 1.485 . S
C2443 C987 1.478 . S
C2457 C132 1.494 . S
C2463 C969 1.459 . S
C2477 C146 1.482 . S
C2483 C845 1.462 . S
C2503 C925 1.482 . S
C2497 C161 1.488 . S
C2517 C160 1.482 . S
C2523 C739 1.468 . S
C2537 C133 1.484 . S
C2543 C783 1.459 . S
C2563 C677 1.464 . S
C2557 C147 1.482 . S
C2583 C1031 1.474 . S
C2577 C174 1.482 . S
C2597 C188 1.482 . S
C2603 C1111 1.467 . S
C2617 C203 1.489 . S
C2623 C1173 1.482 . S
C2643 C1235 1.473 . S
C2637 C202 1.501 . S
C2663 C1279 1.463 . S
C2657 C175 1.484 . S
C2677 C189 1.484 . S
C2683 C1359 1.459 . S
C2697 C216 1.484 . S
C2703 C1341 1.459 . S
C2717 C230 1.495 . S
C2723 C1217 1.460 . S
C2743 C1297 1.463 . S
C2737 C245 1.483 . S
C2763 C1093 1.474 . S
C2757 C244 1.482 . S
C2783 C1155 1.477 . S
C2777 C217 1.484 . S
C2797 C231 1.481 . S
C2803 C1049 1.471 . S
