# Generated by pormake.
# Topology zzz, (3,6)-cn, num edge types: 1
# Building blocks:
#     Node 0, Type 0, BuildingBlock: CUQRIR_clean_linker_1, # of connection points: 3
#     Node 1, Type 0, BuildingBlock: CUQRIR_clean_linker_1, # of connection points: 3
#     Node 2, Type 0, BuildingBlock: CUQRIR_clean_linker_1, # of connection points: 3
#     Node 3, Type 0, BuildingBlock: CUQRIR_clean_linker_1, # of connection points: 3
#     Node 4, Type 0, BuildingBlock: CUQRIR_clean_linker_1, # of connection points: 3
#     Node 5, Type 0, BuildingBlock: CUQRIR_clean_linker_1, # of connection points: 3
#     Node 6, Type 0, BuildingBlock: CUQRIR_clean_linker_1, # of connection points: 3
#     Node 7, Type 0, BuildingBlock: CUQRIR_clean_linker_1, # of connection points: 3
#     Node 8, Type 1, BuildingBlock: KUMJIN_clean_sbu_0, # of connection points: 6
#     Node 9, Type 1, BuildingBlock: KUMJIN_clean_sbu_0, # of connection points: 6
#     Node 10, Type 1, BuildingBlock: KUMJIN_clean_sbu_0, # of connection points: 6
#     Node 11, Type 1, BuildingBlock: KUMJIN_clean_sbu_0, # of connection points: 6
#     Edge 12, Type (0, 1), BuildingBlock: UVAHIK_clean_linker_0, # of connection points: 2
#     Edge 13, Type (0, 1), BuildingBlock: UVAHIK_clean_linker_0, # of connection points: 2
#     Edge 14, Type (0, 1), BuildingBlock: UVAHIK_clean_linker_0, # of connection points: 2
#     Edge 15, Type (0, 1), BuildingBlock: UVAHIK_clean_linker_0, # of connection points: 2
#     Edge 16, Type (0, 1), BuildingBlock: UVAHIK_clean_linker_0, # of connection points: 2
#     Edge 17, Type (0, 1), BuildingBlock: UVAHIK_clean_linker_0, # of connection points: 2
#     Edge 18, Type (0, 1), BuildingBlock: UVAHIK_clean_linker_0, # of connection points: 2
#     Edge 19, Type (0, 1), BuildingBlock: UVAHIK_clean_linker_0, # of connection points: 2
#     Edge 20, Type (0, 1), BuildingBlock: UVAHIK_clean_linker_0, # of connection points: 2
#     Edge 21, Type (0, 1), BuildingBlock: UVAHIK_clean_linker_0, # of connection points: 2
#     Edge 22, Type (0, 1), BuildingBlock: UVAHIK_clean_linker_0, # of connection points: 2
#     Edge 23, Type (0, 1), BuildingBlock: UVAHIK_clean_linker_0, # of connection points: 2
#     Edge 24, Type (0, 1), BuildingBlock: UVAHIK_clean_linker_0, # of connection points: 2
#     Edge 25, Type (0, 1), BuildingBlock: UVAHIK_clean_linker_0, # of connection points: 2
#     Edge 26, Type (0, 1), BuildingBlock: UVAHIK_clean_linker_0, # of connection points: 2
#     Edge 27, Type (0, 1), BuildingBlock: UVAHIK_clean_linker_0, # of connection points: 2
#     Edge 28, Type (0, 1), BuildingBlock: UVAHIK_clean_linker_0, # of connection points: 2
#     Edge 29, Type (0, 1), BuildingBlock: UVAHIK_clean_linker_0, # of connection points: 2
#     Edge 30, Type (0, 1), BuildingBlock: UVAHIK_clean_linker_0, # of connection points: 2
#     Edge 31, Type (0, 1), BuildingBlock: UVAHIK_clean_linker_0, # of connection points: 2
#     Edge 32, Type (0, 1), BuildingBlock: UVAHIK_clean_linker_0, # of connection points: 2
#     Edge 33, Type (0, 1), BuildingBlock: UVAHIK_clean_linker_0, # of connection points: 2
#     Edge 34, Type (0, 1), BuildingBlock: UVAHIK_clean_linker_0, # of connection points: 2
#     Edge 35, Type (0, 1), BuildingBlock: UVAHIK_clean_linker_0, # of connection points: 2
# Relax obj value: 0.165
# Max RMSD: 0.155
# Mean RMSD: 0.116
data_MOF--net-zzz--node1-KUMJIN_clean_sbu_0--node2-CUQRIR_clean_linker_1--edge1-UVAHIK_clean_linker_0
_symmetry_space_group_name_H-M    P1
_symmetry_Int_Tables_number       1
_symmetry_cell_setting            triclinic
loop_
_symmetry_equiv_pos_as_xyz
'x, y, z'
_cell_length_a     62.134911
_cell_length_b     62.211268
_cell_length_c     17.324323
_cell_angle_alpha  91.737537
_cell_angle_beta   89.538956
_cell_angle_gamma 89.889084
loop_
_atom_site_label
_atom_site_type_symbol
_atom_site_fract_x
_atom_site_fract_y
_atom_site_fract_z
_atom_type_partial_charge
C0 C 0.74893 0.53665 0.20535 0.0
N1 N 0.76965 0.54354 0.20761 0.0
N2 N 0.73781 0.54684 0.14979 0.0
C3 C 0.74004 0.51899 0.25307 0.0
C4 C 0.75257 0.55998 0.11815 0.0
N5 N 0.7718 0.55804 0.15329 0.0
C6 C 0.74843 0.5738 0.05014 0.0
H7 H 0.74447 0.50328 0.22528 0.0
H8 H 0.72223 0.52006 0.25718 0.0
H9 H 0.7471 0.51971 0.31172 0.0
H10 H 0.732 0.58078 0.05377 0.0
H11 H 0.7495 0.56365 0.99646 0.0
H12 H 0.76043 0.58693 0.04683 0.0
C13 C 0.99772 0.75713 0.2244 0.0
N14 N 0.99019 0.77769 0.23227 0.0
N15 N 0.98856 0.74663 0.16262 0.0
C16 C 0.01338 0.74711 0.2781 0.0
C17 C 0.97546 0.76171 0.13291 0.0
N18 N 0.97631 0.78035 0.1752 0.0
C19 C 0.96353 0.75889 0.0579 0.0
H20 H 0.02996 0.75004 0.25674 0.0
H21 H 1.01084 0.72948 0.27994 0.0
H22 H 0.01181 0.75441 0.33712 0.0
H23 H 0.94687 0.75354 0.07038 0.0
H24 H 0.97141 0.74662 0.01933 0.0
H25 H 0.96266 0.77424 0.02717 0.0
C26 C 0.78687 0.98657 0.29558 0.0
N27 N 0.76524 0.98475 0.2854 0.0
N28 N 0.79753 0.98439 0.22666 0.0
C29 C 0.79741 0.99168 0.37135 0.0
C30 C 0.78158 0.98136 0.17475 0.0
N31 N 0.76213 0.98153 0.2102 0.0
C32 C 0.78484 0.98068 0.08852 0.0
H33 H 0.79769 1.00939 0.38087 0.0
H34 H 0.81423 0.98564 0.37117 0.0
H35 H 0.78812 0.98461 0.41931 0.0
H36 H 0.77338 0.96932 0.06048 0.0
H37 H 0.80151 0.9758 0.07246 0.0
H38 H 0.78172 0.99692 0.06628 0.0
C39 C 0.53827 0.78213 0.23252 0.0
N40 N 0.5435 0.76103 0.23726 0.0
N41 N 0.54532 0.78998 0.16449 0.0
C42 C 0.52429 0.7943 0.28973 0.0
C43 C 0.55482 0.77283 0.12811 0.0
N44 N 0.55381 0.75535 0.17236 0.0
C45 C 0.56453 0.77302 0.04842 0.0
H46 H 0.50737 0.79348 0.26996 0.0
H47 H 0.52908 0.81147 0.29349 0.0
H48 H 0.52524 0.7872 0.34761 0.0
H49 H 0.57136 0.78908 0.03666 0.0
H50 H 0.55177 0.76949 1.00546 0.0
H51 H 0.57727 0.76057 0.04147 0.0
C52 C 0.28278 0.50957 0.08138 0.0
N53 N 0.26245 0.50171 0.07639 0.0
N54 N 0.29413 0.49926 0.13622 0.0
C55 C 0.29129 0.52765 0.03469 0.0
C56 C 0.27982 0.48497 0.16442 0.0
N57 N 0.26072 0.48641 0.12789 0.0
C58 C 0.28443 0.47002 0.22901 0.0
H59 H 0.30901 0.52632 0.02734 0.0
H60 H 0.28756 0.54312 0.0655 0.0
H61 H 0.28351 0.52777 0.97729 0.0
H62 H 0.29364 0.47857 0.27515 0.0
H63 H 0.29446 0.45645 0.20627 0.0
H64 H 0.26956 0.46321 0.25398 0.0
C65 C 0.03282 0.28139 0.05585 0.0
N66 N 0.04037 0.26078 0.05501 0.0
N67 N 0.04176 0.29339 0.11462 0.0
C68 C 0.01522 0.28905 1.00482 0.0
C69 C 0.05504 0.27926 0.14856 0.0
N70 N 0.05409 0.25957 0.11324 0.0
C71 C 0.0691 0.28481 0.21663 0.0
H72 H 0.01686 0.28152 0.94617 0.0
H73 H 0.01539 0.30682 1.00124 0.0
H74 H 0.99949 0.2841 0.02928 0.0
H75 H 0.05958 0.28353 0.27073 0.0
H76 H 0.07496 0.3016 0.21338 0.0
H77 H 0.08304 0.27368 0.21888 0.0
C78 C 0.26013 0.03868 0.05944 0.0
N79 N 0.28031 0.04634 0.04718 0.0
N80 N 0.24958 0.05086 0.11465 0.0
C81 C 0.25061 0.01976 0.01635 0.0
C82 C 0.26431 0.06599 0.13579 0.0
N83 N 0.28277 0.06331 0.09463 0.0
C84 C 0.26148 0.08199 0.20208 0.0
H85 H 0.23288 0.02147 0.01222 0.0
H86 H 0.25422 1.00496 0.04799 0.0
H87 H 0.25778 0.01801 0.95761 0.0
H88 H 0.25029 0.0758 0.24635 0.0
H89 H 0.2547 0.09709 0.17985 0.0
H90 H 0.27711 0.08583 0.2297 0.0
C91 C 0.48939 0.25096 0.06201 0.0
N92 N 0.48201 0.27089 0.04668 0.0
N93 N 0.47628 0.24131 0.11379 0.0
C94 C 0.51027 0.24169 0.03194 0.0
C95 C 0.46081 0.25629 0.1294 0.0
N96 N 0.46428 0.27417 0.08877 0.0
C97 C 0.44221 0.2536 0.18427 0.0
H98 H 0.50683 0.23002 0.98397 0.0
H99 H 0.5186 0.23295 0.07798 0.0
H100 H 0.521 0.25438 0.00978 0.0
H101 H 0.4469 0.25961 0.24268 0.0
H102 H 0.43761 0.23643 0.18756 0.0
H103 H 0.42815 0.26314 0.16575 0.0
Eu104 Eu 0.04325 0.01356 0.74839 0.0
C105 C 0.98206 0.97461 0.49946 0.0
C106 C 1.00758 0.96012 0.40515 0.0
C107 C 0.97126 0.94597 0.40879 0.0
C108 C 1.00237 0.975 0.46602 0.0
C109 C 0.96635 0.95998 0.47139 0.0
C110 C 0.99184 0.94602 0.37582 0.0
C111 C 0.94183 0.97394 0.56912 0.0
N112 N 0.97783 0.98791 0.56124 0.0
C113 C 0.95777 0.98821 0.59451 0.0
C114 C 0.94615 0.9597 0.50738 0.0
Eu115 Eu 1.00397 0.01433 0.59404 0.0
N116 N 0.01749 0.98846 0.49724 0.0
C117 C 0.03864 0.98548 0.47534 0.0
C118 C 0.02872 0.95904 0.37773 0.0
C119 C 0.0444 0.97143 0.41423 0.0
H120 H 0.9537 0.99985 0.63977 0.0
H121 H 0.06112 0.96963 0.39718 0.0
H122 H 0.9956 0.93464 0.32902 0.0
H123 H 0.9261 0.97419 0.59642 0.0
H124 H 0.05165 0.99267 0.50699 0.0
H125 H 0.02788 0.08119 0.94999 0.0
H126 H 0.03333 0.9478 0.33145 0.0
H127 H 0.09098 0.99624 0.67832 0.0
H128 H 0.01989 0.04733 0.87888 0.0
H129 H 0.12845 1.0091 0.66696 0.0
H130 H 0.95939 0.93472 0.38645 0.0
H131 H 0.06272 0.09941 0.9301 0.0
H132 H 0.09966 0.09861 0.87003 0.0
H133 H 0.93373 0.94869 0.48754 0.0
H134 H 0.12722 0.0788 0.79368 0.0
N135 N 0.04972 0.0464 0.81763 0.0
C136 C 0.03519 0.055 0.86953 0.0
C137 C 0.05933 0.08448 0.89872 0.0
C138 C 0.0747 0.07488 0.84931 0.0
C139 C 0.03968 0.07422 0.91026 0.0
C140 C 0.06944 0.05543 0.80987 0.0
H141 H 0.13826 0.04516 0.71942 0.0
N142 N 0.07954 0.02507 0.73403 0.0
C143 C 0.11634 0.01923 0.69484 0.0
C144 C 0.08491 0.04433 0.76716 0.0
C145 C 0.09512 0.012 0.70143 0.0
C146 C 0.1218 0.03962 0.7244 0.0
C147 C 0.10611 0.0523 0.76232 0.0
O148 O 0.0614 0.98825 0.80316 0.0
O149 O 0.02157 0.99322 0.67241 0.0
O150 O 0.98849 1.00089 0.70358 0.0
O151 O 1.00933 0.01585 0.80135 0.0
O152 O 0.05254 0.98222 0.68394 0.0
O153 O 0.03918 1.00763 0.87142 0.0
O154 O 0.97503 0.03398 0.61319 0.0
O155 O 0.01726 0.03297 0.69646 0.0
O156 O 0.05932 0.02821 0.64168 0.0
O157 O 0.0353 0.02539 0.53757 0.0
O158 O 0.01444 0.04957 0.5952 0.0
O159 O 0.98472 0.02406 0.49689 0.0
C160 C 0.03413 0.97792 0.65408 0.0
C161 C 0.04411 0.97143 0.90482 0.0
C162 C 0.01586 0.94543 0.92781 0.0
C163 C 0.02244 0.96517 0.89897 0.0
C164 C 0.03097 0.9321 0.96292 0.0
C165 C 0.05899 0.95804 0.94039 0.0
C166 C 0.0524 0.93844 0.96942 0.0
C167 C 0.99126 1.00666 0.77717 0.0
C168 C 0.05196 0.99106 0.86977 0.0
C169 C 0.1111 0.07228 0.79757 0.0
C170 C 0.09541 0.08357 0.84096 0.0
C171 C 0.01963 0.05126 0.66709 0.0
C172 C 0.96776 0.05781 0.51336 0.0
C173 C 0.98334 0.06841 0.46951 0.0
C174 C 0.97959 0.08927 0.4443 0.0
C175 C 0.95997 0.0995 0.46349 0.0
C176 C 0.94831 0.06821 0.53219 0.0
C177 C 0.94446 0.08899 0.50726 0.0
C178 C 0.05455 0.03001 0.5673 0.0
C179 C 0.97166 0.03594 0.53952 0.0
H180 H 1.01088 0.97528 0.87096 0.0
H181 H 0.02611 0.91683 0.98593 0.0
H182 H 0.07576 0.96263 0.94472 0.0
H183 H 0.06395 0.92811 0.99659 0.0
H184 H 0.9983 0.06032 0.45414 0.0
H185 H 0.95674 0.11571 0.44555 0.0
H186 H 0.93614 0.06024 0.56607 0.0
H187 H 0.92943 0.097 0.52204 0.0
Eu188 Eu 0.52129 0.03543 0.71221 0.0
C189 C 0.54353 0.95688 0.49042 0.0
C190 C 0.57358 0.97016 0.41659 0.0
C191 C 0.57026 0.93185 0.43705 0.0
C192 C 0.55459 0.97383 0.46039 0.0
C193 C 0.55092 0.93559 0.47783 0.0
C194 C 0.58158 0.94913 0.40643 0.0
C195 C 0.5185 0.9233 0.54012 0.0
N196 N 0.52486 0.96113 0.52853 0.0
C197 C 0.51182 0.94469 0.55032 0.0
C198 C 0.5383 0.91872 0.5046 0.0
Eu199 Eu 0.51443 0.9976 0.54853 0.0
N200 N 0.54635 0.99387 0.47172 0.0
C201 C 0.55584 0.01093 0.43698 0.0
C202 C 0.58373 0.9877 0.38339 0.0
C203 C 0.57467 1.00814 0.39297 0.0
H204 H 0.49637 0.94814 0.57698 0.0
H205 H 0.58229 0.02182 0.36703 0.0
H206 H 0.59626 0.94602 0.37374 0.0
H207 H 0.50832 0.91037 0.55931 0.0
H208 H 0.54938 0.02694 0.44419 0.0
H209 H 0.55615 1.00962 0.98477 0.0
H210 H 0.59838 0.9856 0.34964 0.0
H211 H 0.478 0.06891 0.70039 0.0
H212 H 0.55681 0.02028 0.84957 0.0
H213 H 0.44511 0.07761 0.77366 0.0
H214 H 0.57632 0.91564 0.42734 0.0
H215 H 0.52198 1.01052 0.05891 0.0
H216 H 0.48299 0.02091 0.06591 0.0
H217 H 0.54339 0.90214 0.49619 0.0
H218 H 0.45237 0.03927 1.00749 0.0
N219 N 0.52313 0.02682 0.84514 0.0
C220 C 0.54177 0.02105 0.88085 0.0
C221 C 0.52214 0.01525 0.99923 0.0
C222 C 0.50348 0.02287 0.96451 0.0
C223 C 0.54147 0.01483 0.95773 0.0
C224 C 0.50455 0.02887 0.88659 0.0
H225 H 0.43835 0.06112 0.89958 0.0
N226 N 0.48962 0.04642 0.78092 0.0
C227 C 0.45665 0.06642 0.79631 0.0
C228 C 0.48725 0.039 0.85341 0.0
C229 C 0.47534 0.06115 0.75425 0.0
C230 C 0.45287 0.05706 0.86724 0.0
C231 C 0.46856 0.0437 0.89784 0.0
O232 O 0.54008 0.0609 0.65959 0.0
O233 O 0.53765 0.01909 0.61055 0.0
O234 O 0.52575 0.97776 0.64883 0.0
O235 O 0.52274 1.00112 0.75805 0.0
O236 O 0.55521 0.02168 0.71117 0.0
O237 O 0.52803 0.0657 0.77495 0.0
O238 O 0.48598 0.98356 0.49379 0.0
O239 O 0.49738 0.01789 0.6405 0.0
O240 O 0.50064 0.04908 0.61699 0.0
O241 O 0.51694 0.03238 0.5125 0.0
O242 O 0.48653 0.9868 0.62471 0.0
O243 O 0.50352 1.00794 0.43547 0.0
C244 C 0.55549 0.01421 0.64098 0.0
C245 C 0.56111 0.08151 0.74392 0.0
C246 C 0.59579 0.07502 0.80289 0.0
C247 C 0.57502 0.06819 0.78363 0.0
C248 C 0.6026 0.09557 0.78166 0.0
C249 C 0.56794 0.10199 0.72313 0.0
C250 C 0.58866 0.109 0.74218 0.0
C251 C 0.52568 0.98175 0.72466 0.0
C252 C 0.54 0.07341 0.72064 0.0
C253 C 0.46676 0.03616 0.97316 0.0
C254 C 0.48421 0.02573 1.00646 0.0
C255 C 0.48381 1.00446 0.66415 0.0
C256 C 0.46569 1.01087 0.4364 0.0
C257 C 0.46481 0.02841 0.38703 0.0
C258 C 0.44759 0.04303 0.39249 0.0
C259 C 0.43087 0.03965 0.44577 0.0
C260 C 0.44843 1.00747 0.48782 0.0
C261 C 0.43116 0.02178 0.4922 0.0
C262 C 0.50641 0.04895 0.54343 0.0
C263 C 0.48543 0.99764 0.44006 0.0
H264 H 0.56976 0.05228 0.79826 0.0
H265 H 0.61855 0.10131 0.79623 0.0
H266 H 0.55737 0.11242 0.6917 0.0
H267 H 0.59395 0.12483 0.72605 0.0
H268 H 0.47769 0.03096 0.34576 0.0
H269 H 0.41722 0.05051 0.4497 0.0
H270 H 0.44846 0.99407 0.5263 0.0
H271 H 0.41807 0.01915 0.5324 0.0
Eu272 Eu 0.53773 0.50776 0.57798 0.0
C273 C 0.4467 0.51884 0.63945 0.0
C274 C 0.4302 0.55415 0.6417 0.0
C275 C 0.41013 0.52327 0.59274 0.0
C276 C 0.44793 0.54063 0.65588 0.0
C277 C 0.4277 0.50987 0.608 0.0
C278 C 0.4114 0.54538 0.60932 0.0
C279 C 0.44484 0.47508 0.60789 0.0
N280 N 0.46414 0.50641 0.65336 0.0
C281 C 0.46337 0.48471 0.6383 0.0
C282 C 0.42693 0.48771 0.5925 0.0
Eu283 Eu 0.49454 0.52377 0.7107 0.0
N284 N 0.4663 0.54859 0.68706 0.0
C285 C 0.46734 0.56973 0.71103 0.0
C286 C 0.43174 0.57604 0.66174 0.0
C287 C 0.45033 0.58382 0.69737 0.0
H288 H 0.47705 0.4746 0.64785 0.0
H289 H 0.45149 0.6006 0.71512 0.0
H290 H 0.39769 0.55552 0.59762 0.0
H291 H 0.44448 0.45793 0.5956 0.0
H292 H 0.48141 0.57575 0.7409 0.0
H293 H 0.59641 0.47605 0.78292 0.0
H294 H 0.41851 0.58694 0.65167 0.0
H295 H 0.54888 0.53592 0.4214 0.0
H296 H 0.56198 0.47771 0.71757 0.0
H297 H 0.57759 0.55961 0.3729 0.0
H298 H 0.39549 0.51668 0.56814 0.0
H299 H 0.6253 0.50166 0.75239 0.0
H300 H 0.63854 0.53166 0.67201 0.0
H301 H 0.41267 0.48024 0.56821 0.0
H302 H 0.63325 0.55492 0.56158 0.0
N303 N 0.5705 0.50426 0.64777 0.0
C304 C 0.57414 0.48898 0.70149 0.0
C305 C 0.61011 0.50243 0.72228 0.0
C306 C 0.60678 0.5174 0.66507 0.0
C307 C 0.59387 0.48792 0.73946 0.0
C308 C 0.58668 0.51776 0.62749 0.0
H309 H 0.61078 0.56516 0.44883 0.0
N310 N 0.56498 0.52965 0.52613 0.0
C311 C 0.57943 0.55191 0.42766 0.0
C312 C 0.58373 0.53098 0.56543 0.0
C313 C 0.56318 0.53862 0.45541 0.0
C314 C 0.5981 0.55503 0.47076 0.0
C315 C 0.60073 0.54401 0.53934 0.0
O316 O 0.55953 0.49044 0.49821 0.0
O317 O 0.50193 0.51026 0.59314 0.0
O318 O 0.50305 0.48921 0.73544 0.0
O319 O 0.53038 0.47853 0.64959 0.0
O320 O 0.51496 0.52186 0.4912 0.0
O321 O 0.52641 0.48086 0.50466 0.0
O322 O 0.48505 0.50498 0.81032 0.0
O323 O 0.52994 0.51646 0.70103 0.0
O324 O 0.53455 0.54439 0.57187 0.0
O325 O 0.50382 0.55388 0.64505 0.0
O326 O 0.5212 0.54478 0.75961 0.0
O327 O 0.48407 0.53951 0.81892 0.0
C328 C 0.4974 0.51902 0.5299 0.0
C329 C 0.54256 0.48011 0.38054 0.0
C330 C 0.5235 0.47003 0.26203 0.0
C331 C 0.52553 0.46948 0.34276 0.0
C332 C 0.53863 0.48157 0.2192 0.0
C333 C 0.5576 0.49149 0.33645 0.0
C334 C 0.55548 0.49233 0.25641 0.0
C335 C 0.51666 0.47468 0.70638 0.0
C336 C 0.54428 0.47929 0.46557 0.0
C337 C 0.62015 0.54477 0.58006 0.0
C338 C 0.62318 0.53148 0.6428 0.0
C339 C 0.53719 0.53277 0.73797 0.0
C340 C 0.49449 0.52109 0.9306 0.0
C341 C 0.50855 0.53772 0.95355 0.0
C342 C 0.51859 0.53763 0.02586 0.0
C343 C 0.51477 0.52052 0.07505 0.0
C344 C 0.49108 0.50392 0.98001 0.0
C345 C 0.50126 0.50362 0.05171 0.0
C346 C 0.51996 0.55859 0.59775 0.0
C347 C 0.48301 0.52174 0.85632 0.0
H348 H 0.51419 0.46024 0.37612 0.0
H349 H 0.53752 0.48209 0.15694 0.0
H350 H 0.57103 0.49971 0.36353 0.0
H351 H 0.5671 0.50116 0.22298 0.0
H352 H 0.51116 0.5512 0.91643 0.0
H353 H 0.52216 0.52029 0.13141 0.0
H354 H 0.4804 0.49087 0.96343 0.0
H355 H 0.49843 0.49041 0.08972 0.0
Eu356 Eu 0.02568 0.54135 0.56796 0.0
C357 C 0.99805 0.45222 0.64737 0.0
C358 C 0.96005 0.44664 0.67422 0.0
C359 C 0.98108 0.41816 0.61095 0.0
C360 C 0.9784 0.45998 0.67554 0.0
C361 C 0.99965 0.43089 0.61746 0.0
C362 C 0.96133 0.426 0.63936 0.0
C363 C 0.03821 0.43511 0.61249 0.0
N364 N 0.01586 0.4648 0.655 0.0
C365 C 0.03588 0.45611 0.64254 0.0
C366 C 0.01999 0.42261 0.59815 0.0
Eu367 Eu 1.00937 0.50049 0.70221 0.0
N368 N 0.9776 0.47989 0.70988 0.0
C369 C 0.95974 0.48658 0.75062 0.0
C370 C 0.94119 0.45405 0.71105 0.0
C371 C 0.94119 0.47391 0.75085 0.0
H372 H 0.05025 0.46532 0.65295 0.0
H373 H 0.9269 0.4795 0.78146 0.0
H374 H 0.94732 0.41567 0.63676 0.0
H375 H 0.05408 0.42862 0.60006 0.0
H376 H 0.95959 0.50193 0.78125 0.0
H377 H 0.10756 0.57357 0.56666 0.0
H378 H 0.9268 0.44425 0.71145 0.0
H379 H 0.97811 0.56924 0.59303 0.0
H380 H 0.07908 0.54652 0.54226 0.0
H381 H 0.96613 0.6049 0.63634 0.0
H382 H 0.98199 0.4019 0.58688 0.0
H383 H 0.09804 0.60931 0.62349 0.0
H384 H 0.06946 0.63523 0.66944 0.0
H385 H 0.02187 0.40635 0.57481 0.0
H386 H 0.03108 0.64373 0.68762 0.0
N387 N 0.05386 0.56663 0.5868 0.0
C388 C 0.07482 0.56217 0.56687 0.0
C389 C 0.08551 0.59752 0.61289 0.0
C390 C 0.06391 0.60244 0.62878 0.0
C391 C 0.09095 0.57739 0.58066 0.0
C392 C 0.04817 0.58652 0.614 0.0
H393 H 0.99261 0.6327 0.67444 0.0
N394 N 0.01169 0.57583 0.60667 0.0
C395 C 0.98317 0.60129 0.6333 0.0
C396 C 0.02651 0.59131 0.62367 0.0
C397 C 0.99021 0.58085 0.60848 0.0
C398 C 0.99815 0.61693 0.65477 0.0
C399 C 0.0201 0.61218 0.64906 0.0
O400 O 1.00734 0.54509 0.46108 0.0
O401 O 0.01871 0.50619 0.57895 0.0
O402 O 0.046 0.50133 0.6911 0.0
O403 O 0.05212 0.53647 0.65679 0.0
O404 O 0.04633 0.51369 0.51936 0.0
O405 O 0.04146 0.55155 0.46284 0.0
O406 O 0.0242 0.51033 0.81182 0.0
O407 O 0.01555 0.53557 0.68916 0.0
O408 O 0.98954 0.5353 0.55593 0.0
O409 O 0.97954 0.50603 0.62958 0.0
O410 O 0.98816 0.52779 0.75016 0.0
O411 O 1.00916 0.47935 0.80112 0.0
C412 C 0.03394 0.49812 0.53873 0.0
C413 C 0.02728 0.53821 0.34496 0.0
C414 C 0.04926 0.51499 0.25898 0.0
C415 C 0.04401 0.52323 0.33329 0.0
C416 C 0.03656 0.52114 0.19648 0.0
C417 C 0.01472 0.54397 0.28203 0.0
C418 C 0.01929 0.53533 0.20827 0.0
C419 C 0.05849 0.5185 0.68876 0.0
C420 C 0.02438 0.54957 0.42035 0.0
C421 C 0.03574 0.62775 0.66713 0.0
C422 C 0.05759 0.6229 0.65694 0.0
C423 C 0.9999 0.54356 0.72755 0.0
C424 C 1.00892 0.49635 0.92441 0.0
C425 C 0.9911 0.50996 0.93608 0.0
C426 C 0.98171 0.5128 0.00976 0.0
C427 C 0.99054 0.50189 0.07202 0.0
C428 C 0.01752 0.48559 0.98703 0.0
C429 C 1.00833 0.48836 0.06051 0.0
C430 C 0.97524 0.52093 0.57871 0.0
C431 C 0.01858 0.49312 0.84731 0.0
H432 H 0.05355 0.51863 0.38183 0.0
H433 H 0.04043 0.51571 0.13808 0.0
H434 H 1.00182 0.5556 0.28954 0.0
H435 H 1.00993 0.54027 0.15951 0.0
H436 H 0.98459 0.5184 0.88797 0.0
H437 H 0.98348 0.50349 0.12928 0.0
H438 H 0.0313 0.47503 0.97903 0.0
H439 H 0.01497 0.47994 0.10867 0.0
C440 C 0.22155 0.02879 0.1784 0.0
C441 C 0.22812 0.04833 0.14706 0.0
C442 C 0.20174 0.02728 0.218 0.0
C443 C 0.16159 0.06146 0.32544 0.0
H444 H 0.12521 0.01101 0.31004 0.0
C445 C 0.09131 0.04577 0.54149 0.0
C446 C 0.07247 0.03588 0.51336 0.0
C447 C 0.10942 0.04831 0.49361 0.0
C448 C 0.13507 0.02531 0.31472 0.0
H449 H 0.21865 0.08126 0.12976 0.0
H450 H 0.18426 0.07877 0.19866 0.0
H451 H 0.15802 0.01274 0.2315 0.0
H452 H 0.05755 0.02259 0.40971 0.0
H453 H 0.08904 0.02693 0.32648 0.0
H454 H 0.13873 0.07402 0.40873 0.0
C455 C 0.19445 0.06464 0.19393 0.0
C456 C 0.15406 0.0262 0.27013 0.0
C457 C 0.21411 0.06607 0.15403 0.0
C458 C 0.07184 0.02986 0.43433 0.0
C459 C 0.09002 0.03222 0.38648 0.0
C460 C 0.14274 0.06048 0.37053 0.0
C461 C 0.18807 0.04533 0.22771 0.0
C462 C 0.16763 0.0443 0.27471 0.0
C463 C 0.10926 0.04109 0.41573 0.0
C464 C 0.12916 0.04239 0.36598 0.0
H465 H 0.2321 0.01493 0.17486 0.0
H466 H 0.19753 0.01217 0.24351 0.0
H467 H 0.17166 0.07558 0.33143 0.0
H468 H 0.0922 0.05129 0.60108 0.0
H469 H 0.12382 0.05531 0.51851 0.0
C470 C 0.47901 0.22076 0.2332 0.0
C471 C 0.47954 0.22126 0.15219 0.0
C472 C 0.48082 0.20129 0.27094 0.0
C473 C 0.50159 0.14622 0.25062 0.0
H474 H 0.46167 0.13474 0.41751 0.0
C475 C 0.50516 0.06654 0.41478 0.0
C476 C 0.5013 0.06759 0.49494 0.0
C477 C 0.501 0.08426 0.36914 0.0
C478 C 0.47315 0.13775 0.37179 0.0
H479 H 0.48306 0.20187 0.04718 0.0
H480 H 0.48691 0.16765 0.11331 0.0
H481 H 0.45796 0.16759 0.34549 0.0
H482 H 0.49017 0.08835 0.58978 0.0
H483 H 0.48358 0.11937 0.51115 0.0
H484 H 0.51728 0.11683 0.27824 0.0
C485 C 0.48482 0.18238 0.14752 0.0
C486 C 0.47094 0.15658 0.33023 0.0
C487 C 0.4827 0.20191 0.10966 0.0
C488 C 0.49311 0.08682 0.52822 0.0
C489 C 0.48922 0.10465 0.48277 0.0
C490 C 0.50397 0.12749 0.29279 0.0
C491 C 0.48359 0.18183 0.22865 0.0
C492 C 0.48527 0.16116 0.26968 0.0
C493 C 0.49322 0.1037 0.40254 0.0
C494 C 0.48993 0.12308 0.35463 0.0
H495 H 0.47719 0.2355 0.26743 0.0
H496 H 0.48027 0.20149 0.33347 0.0
H497 H 0.51299 0.14936 0.20469 0.0
H498 H 0.51144 0.05199 0.38697 0.0
H499 H 0.50389 0.08266 0.30753 0.0
C500 C 0.3306 0.48617 0.16714 0.0
C501 C 0.3158 0.50319 0.16354 0.0
C502 C 0.35069 0.48914 0.20211 0.0
C503 C 0.37967 0.52592 0.34101 0.0
H504 H 0.42931 0.49265 0.2712 0.0
C505 C 0.46491 0.53711 0.47602 0.0
C506 C 0.47638 0.5182 0.49034 0.0
C507 C 0.44564 0.53627 0.43409 0.0
C508 C 0.41558 0.50195 0.29199 0.0
H509 H 0.3107 0.53688 0.19187 0.0
H510 H 0.3461 0.54246 0.25065 0.0
H511 H 0.39577 0.48989 0.20004 0.0
H512 H 0.47787 0.48392 0.46661 0.0
H513 H 0.44435 0.48231 0.39357 0.0
H514 H 0.39973 0.53819 0.4324 0.0
C515 C 0.34206 0.52658 0.22806 0.0
C516 C 0.39622 0.50034 0.2511 0.0
C517 C 0.32186 0.52352 0.19333 0.0
C518 C 0.46889 0.49862 0.45857 0.0
C519 C 0.44983 0.49778 0.41588 0.0
C520 C 0.39912 0.52768 0.38151 0.0
C521 C 0.35671 0.50934 0.23412 0.0
C522 C 0.37782 0.51208 0.27537 0.0
C523 C 0.43781 0.51657 0.40332 0.0
C524 C 0.4173 0.51551 0.35821 0.0
H525 H 0.3264 0.47038 0.1441 0.0
H526 H 0.36121 0.47534 0.20606 0.0
H527 H 0.36591 0.53502 0.36261 0.0
H528 H 0.47077 0.5525 0.49788 0.0
H529 H 0.43707 0.55112 0.42467 0.0
C530 C 0.04143 0.33335 0.10652 0.0
C531 C 0.03608 0.31464 0.1458 0.0
C532 C 0.03932 0.35385 0.14315 0.0
C533 C 0.0158 0.38249 0.32154 0.0
H534 H 0.05812 0.42586 0.27411 0.0
C535 C 0.01325 0.46768 0.47294 0.0
C536 C 0.03294 0.47772 0.49069 0.0
C537 C 0.01263 0.44865 0.42678 0.0
C538 C 0.04624 0.41394 0.28899 0.0
H539 H 0.02385 0.30285 0.25351 0.0
H540 H 0.02052 0.33807 0.31785 0.0
H541 H 0.05857 0.39154 0.20307 0.0
H542 H 0.06729 0.47618 0.47021 0.0
H543 H 0.06641 0.44294 0.3918 0.0
H544 H 1.00411 0.40449 0.40993 0.0
C545 C 0.02595 0.33734 0.25833 0.0
C546 C 0.04627 0.39419 0.24691 0.0
C547 C 0.02794 0.31699 0.22156 0.0
C548 C 0.05188 0.46867 0.45869 0.0
C549 C 0.05131 0.44962 0.41291 0.0
C550 C 0.01588 0.40216 0.36401 0.0
C551 C 0.03191 0.35623 0.22046 0.0
C552 C 0.03115 0.37796 0.26267 0.0
C553 C 0.03168 0.43911 0.39642 0.0
C554 C 0.03118 0.41824 0.34897 0.0
H555 H 0.04801 0.33204 0.04851 0.0
H556 H 0.04377 0.36782 0.11091 0.0
H557 H 1.00358 0.37082 0.3353 0.0
H558 H 0.99828 0.47454 0.49479 0.0
H559 H 0.9971 0.44152 0.41454 0.0
C560 C 0.82629 1.00695 0.17317 0.0
C561 C 0.81997 0.98783 0.20785 0.0
C562 C 0.84654 1.00865 0.13736 0.0
C563 C 0.88964 0.97428 0.0461 0.0
H564 H 0.91997 0.02848 0.03506 0.0
C565 C 0.95622 0.9891 0.81539 0.0
C566 C 0.97349 1.00287 0.8341 0.0
C567 C 0.93905 0.98631 0.86735 0.0
C568 C 0.91193 0.01309 0.03798 0.0
H569 H 0.82995 0.9556 0.23327 0.0
H570 H 0.8657 0.95859 0.17304 0.0
H571 H 0.88822 0.02586 0.11751 0.0
H572 H 0.98649 0.02372 0.92465 0.0
H573 H 0.95677 0.01875 0.01531 0.0
H574 H 0.91349 0.96147 0.96708 0.0
C575 C 0.85497 0.97231 0.17259 0.0
C576 C 0.89344 0.01166 0.08482 0.0
C577 C 0.83465 0.97066 0.20841 0.0
C578 C 0.97341 0.01318 0.90758 0.0
C579 C 0.9562 1.01043 0.95956 0.0
C580 C 0.90814 0.97571 0.99924 0.0
C581 C 0.86108 0.99118 0.13475 0.0
C582 C 0.8818 0.9923 0.08907 0.0
C583 C 0.93856 0.99718 0.93997 0.0
C584 C 0.91948 0.99522 0.99362 0.0
H585 H 0.81499 0.02017 0.17015 0.0
H586 H 0.8503 0.02333 0.10819 0.0
H587 H 0.88115 0.95911 0.04678 0.0
H588 H 0.95589 0.98044 0.76032 0.0
H589 H 0.92585 0.97602 0.8495 0.0
C590 C 0.52784 0.81156 0.06601 0.0
C591 C 0.54086 0.8105 0.13149 0.0
C592 C 0.52569 0.83081 0.02704 0.0
C593 C 0.53498 0.89007 0.04218 0.0
H594 H 0.5348 0.88461 0.81866 0.0
C595 C 0.54086 0.96364 0.84074 0.0
C596 C 0.52774 0.96299 0.77503 0.0
C597 C 0.54259 0.94565 0.88745 0.0
C598 C 0.5346 0.88647 0.88102 0.0
H599 H 0.56153 0.8286 0.2089 0.0
H600 H 0.55798 0.86249 0.14071 0.0
H601 H 0.53701 0.85254 0.89481 0.0
H602 H 0.50546 0.94331 0.70897 0.0
H603 H 0.50866 0.91197 0.78867 0.0
H604 H 0.53274 0.92417 0.02771 0.0
C605 C 0.54914 0.84854 0.11979 0.0
C606 C 0.53582 0.86801 0.9249 0.0
C607 C 0.5512 0.82921 0.15896 0.0
C608 C 0.51624 0.9441 0.75756 0.0
C609 C 0.518 0.92614 0.80374 0.0
C610 C 0.53382 0.90862 0.99809 0.0
C611 C 0.53669 0.84949 0.05223 0.0
C612 C 0.5358 0.86947 1.00616 0.0
C613 C 0.53129 0.92657 0.86913 0.0
C614 C 0.53339 0.90704 0.91685 0.0
H615 H 0.51973 0.79728 0.04407 0.0
H616 H 0.51558 0.83095 0.97645 0.0
H617 H 0.53479 0.89187 0.10455 0.0
H618 H 0.55024 0.9778 0.85487 0.0
H619 H 0.55315 0.94652 0.93685 0.0
C620 C 0.69969 0.55761 0.14093 0.0
C621 C 0.71626 0.543 0.12204 0.0
C622 C 0.67957 0.55589 0.10497 0.0
C623 C 0.64532 0.5189 0.98261 0.0
H624 H 0.61678 0.57195 0.93068 0.0
C625 C 0.56085 0.51898 0.8416 0.0
C626 C 0.55744 0.53348 0.78237 0.0
C627 C 0.57947 0.52028 0.88682 0.0
C628 C 0.62456 0.55695 0.94413 0.0
H629 H 0.72502 0.51519 0.05127 0.0
H630 H 0.69002 0.51205 0.9876 0.0
H631 H 0.65049 0.57331 1.0013 0.0
H632 H 0.56974 0.56179 0.728 0.0
H633 H 0.60261 0.56384 0.8051 0.0
H634 H 0.61973 0.50258 0.92299 0.0
C635 C 0.69219 0.52463 0.03134 0.0
C636 C 0.64384 0.55771 0.98585 0.0
C637 C 0.71228 0.52635 0.06769 0.0
C638 C 0.57236 0.55005 0.77192 0.0
C639 C 0.59106 0.55133 0.81681 0.0
C640 C 0.62606 0.51814 0.94073 0.0
C641 C 0.67559 0.5396 0.04845 0.0
C642 C 0.6546 0.5387 1.00567 0.0
C643 C 0.59504 0.53631 0.87446 0.0
C644 C 0.6154 0.53715 0.92059 0.0
H645 H 0.70257 0.57072 0.18204 0.0
H646 H 0.66721 0.56751 0.12097 0.0
H647 H 0.65288 0.50388 0.9972 0.0
H648 H 0.54909 0.5066 0.85286 0.0
H649 H 0.58159 0.50879 0.93182 0.0
C650 C 0.01178 0.71703 0.10792 0.0
C651 C 0.99149 0.72469 0.13283 0.0
C652 C 0.0138 0.69705 0.06757 0.0
C653 C 0.98098 0.65841 0.94792 0.0
H654 H 0.02885 0.61925 0.97181 0.0
C655 C 0.98067 0.57328 0.8014 0.0
C656 C 1.00006 0.56453 0.7722 0.0
C657 C 0.98042 0.59255 0.8458 0.0
C658 C 0.01547 0.63008 0.96344 0.0
H659 H 0.95767 0.71693 0.13825 0.0
H660 H 0.96104 0.68222 0.06934 0.0
H661 H 0.02718 0.65273 0.04944 0.0
H662 H 0.03465 0.56853 0.77175 0.0
H663 H 0.03431 0.60246 0.84741 0.0
H664 H 0.96933 0.63608 0.86158 0.0
C665 C 0.97544 0.69167 0.0791 0.0
C666 C 0.0145 0.64936 1.00835 0.0
C667 C 0.97348 0.71151 0.11939 0.0
C668 C 0.01936 0.57516 0.79135 0.0
C669 C 0.01915 0.59452 0.83581 0.0
C670 C 0.98199 0.63925 0.90293 0.0
C671 C 0.99554 0.68427 0.0508 0.0
C672 C 0.99711 0.66378 1.00193 0.0
C673 C 0.99963 0.60367 0.8634 0.0
C674 C 0.99912 0.62459 0.91027 0.0
H675 H 0.02591 0.72693 0.1166 0.0
H676 H 0.02956 0.69206 0.04673 0.0
H677 H 0.96757 0.66921 0.93947 0.0
H678 H 0.96557 0.5652 0.7895 0.0
H679 H 0.96508 0.59856 0.86729 0.0
C680 C 0.07148 0.22383 0.10028 0.0
C681 C 0.06094 0.23972 0.14591 0.0
C682 C 0.07344 0.20289 0.12676 0.0
C683 C 0.06575 0.16961 0.29934 0.0
H684 H 0.03221 0.13256 0.16266 0.0
C685 C 0.01804 0.09936 0.41907 0.0
C686 C 0.99621 0.10031 0.39838 0.0
C687 C 0.03352 0.11073 0.3781 0.0
C688 C 0.04187 0.14254 0.20117 0.0
H689 H 0.04552 0.24674 0.25614 0.0
H690 H 0.04978 0.21079 0.30389 0.0
H691 H 0.04875 0.16488 0.1129 0.0
H692 H 0.97369 0.11286 0.31613 0.0
H693 H 1.00048 0.13321 0.2462 0.0
H694 H 0.05718 0.14851 0.38935 0.0
C695 C 0.05656 0.21427 0.24783 0.0
C696 C 0.05158 0.1609 0.17242 0.0
C697 C 0.05415 0.23492 0.22071 0.0
C698 C 0.99032 0.11212 0.33414 0.0
C699 C 1.00577 0.12345 0.2932 0.0
C700 C 0.05603 0.15129 0.32811 0.0
C701 C 0.06541 0.19783 0.20004 0.0
C702 C 0.06243 0.17529 0.22251 0.0
C703 C 0.02748 0.12324 0.31562 0.0
C704 C 0.04286 0.13834 0.28037 0.0
H705 H 0.07702 0.22733 0.04266 0.0
H706 H 0.08029 0.19048 0.0888 0.0
H707 H 0.07426 0.18036 0.33886 0.0
H708 H 0.02306 0.09042 0.46856 0.0
H709 H 0.05012 0.11021 0.3966 0.0
C710 C 0.32086 0.06164 0.12917 0.0
C711 C 0.30299 0.0739 0.1088 0.0
C712 C 0.34085 0.07125 0.13881 0.0
C713 C 0.38179 0.09863 0.0976 0.0
H714 H 0.39115 0.11109 0.31488 0.0
C715 C 0.44264 0.05558 0.25952 0.0
C716 C 0.44544 0.06065 0.33803 0.0
C717 C 0.43249 0.07019 0.21224 0.0
C718 C 0.38927 0.10856 0.25325 0.0
H719 H 0.29153 0.10585 0.08487 0.0
H720 H 0.32692 0.12322 0.10625 0.0
H721 H 0.35517 0.11278 0.26398 0.0
H722 H 0.44382 0.08605 0.42595 0.0
H723 H 0.42719 0.11216 0.34241 0.0
H724 H 0.41565 0.09301 0.08731 0.0
C725 C 0.32535 0.106 0.11175 0.0
C726 C 0.36842 0.10956 0.22421 0.0
C727 C 0.30525 0.09619 0.10042 0.0
C728 C 0.4413 0.0817 0.36567 0.0
C729 C 0.43163 0.09655 0.31783 0.0
C730 C 0.40276 0.09807 0.1262 0.0
C731 C 0.34327 0.09345 0.13011 0.0
C732 C 0.3644 0.10287 0.1479 0.0
C733 C 0.42514 0.09021 0.24281 0.0
C734 C 0.40641 0.10087 0.20605 0.0
H735 H 0.31928 0.04456 0.13784 0.0
H736 H 0.35443 0.06141 0.1548 0.0
H737 H 0.37896 0.09345 0.03827 0.0
H738 H 0.4459 0.03946 0.23691 0.0
H739 H 0.42815 0.06453 0.1548 0.0
C740 C 0.45898 0.3055 0.17544 0.0
C741 C 0.45506 0.29506 0.10431 0.0
C742 C 0.45562 0.32758 0.1847 0.0
C743 C 0.44635 0.37478 0.19821 0.0
H744 H 0.47257 0.40385 0.02666 0.0
C745 C 0.48563 0.45634 0.25177 0.0
C746 C 0.50679 0.45688 0.22269 0.0
C747 C 0.47103 0.44104 0.2232 0.0
C748 C 0.46512 0.39603 0.07506 0.0
H749 H 0.4429 0.29872 0.98909 0.0
H750 H 0.43652 0.33752 1.00506 0.0
H751 H 0.46089 0.36682 1.00924 0.0
H752 H 0.52883 0.44293 0.13752 0.0
H753 H 0.50387 0.41596 0.08958 0.0
H754 H 0.45262 0.40316 0.26622 0.0
C755 C 0.44255 0.32878 0.05352 0.0
C756 C 0.45809 0.37483 0.06478 0.0
C757 C 0.44601 0.30662 0.04439 0.0
C758 C 0.5126 0.44296 0.16076 0.0
C759 C 0.49814 0.42754 0.13286 0.0
C760 C 0.45369 0.39585 0.20882 0.0
C761 C 0.4482 0.33968 0.1228 0.0
C762 C 0.44973 0.36356 0.12749 0.0
C763 C 0.47743 0.42582 0.16571 0.0
C764 C 0.46427 0.4063 0.14848 0.0
H765 H 0.46637 0.29686 0.22169 0.0
H766 H 0.46054 0.33533 0.23847 0.0
H767 H 0.43939 0.36679 0.24714 0.0
H768 H 0.48064 0.4672 0.29867 0.0
H769 H 0.45508 0.44051 0.24868 0.0
C770 C 0.22985 0.46401 0.08921 0.0
C771 C 0.24086 0.47588 0.14653 0.0
C772 C 0.20828 0.45843 0.10021 0.0
C773 C 0.16406 0.45807 0.24695 0.0
H774 H 0.12903 0.47879 0.0803 0.0
C775 C 0.08736 0.50588 0.29225 0.0
C776 C 0.0691 0.50175 0.24655 0.0
C777 C 0.10642 0.49455 0.27904 0.0
C778 C 0.1385 0.47235 0.12654 0.0
H779 H 0.23864 0.4905 0.26084 0.0
H780 H 0.20116 0.48053 0.28141 0.0
H781 H 0.16748 0.47296 0.05927 0.0
H782 H 0.05677 0.48191 0.1515 0.0
H783 H 0.09082 0.4629 0.12574 0.0
H784 H 0.1353 0.45926 0.31594 0.0
C785 C 0.20907 0.47518 0.22829 0.0
C786 C 0.16054 0.46899 0.11458 0.0
C787 C 0.23053 0.48086 0.21691 0.0
C788 C 0.07051 0.48575 0.18733 0.0
C789 C 0.0899 0.4747 0.17293 0.0
C790 C 0.14209 0.46159 0.25899 0.0
C791 C 0.19747 0.46457 0.16902 0.0
C792 C 0.17371 0.46277 0.1758 0.0
C793 C 0.10801 0.47912 0.21865 0.0
C794 C 0.12933 0.46968 0.19993 0.0
H795 H 0.2376 0.46026 0.03423 0.0
H796 H 0.19981 0.45018 0.05367 0.0
H797 H 0.17373 0.4529 0.29474 0.0
H798 H 0.08738 0.5185 0.33662 0.0
H799 H 0.1203 0.49866 0.3139 0.0
C800 C 0.97995 0.81865 0.14746 0.0
C801 C 0.96681 0.80058 0.15538 0.0
C802 C 0.9711 0.83828 0.12806 0.0
C803 C 0.9338 0.86167 1.00869 0.0
H804 H 0.95363 0.91294 0.11868 0.0
C805 C 0.98856 0.91898 0.8843 0.0
C806 C 0.9933 0.93836 0.92359 0.0
C807 C 0.96999 0.90767 0.9028 0.0
C808 C 0.94709 0.89913 0.08746 0.0
H809 H 0.9342 0.78858 0.1483 0.0
H810 H 0.91864 0.82312 0.10913 0.0
H811 H 0.95097 0.87945 0.18552 0.0
H812 H 0.98108 0.96307 1.00291 0.0
H813 H 0.9485 0.94317 0.03626 0.0
H814 H 0.93206 0.88087 0.90841 0.0
C815 C 0.93571 0.82205 0.12076 0.0
C816 C 0.94571 0.87984 0.12608 0.0
C817 C 0.94457 0.8024 0.14238 0.0
C818 C 0.97776 0.94794 0.97278 0.0
C819 C 0.95915 0.93653 0.9918 0.0
C820 C 0.93519 0.88102 0.96984 0.0
C821 C 0.94895 0.84015 0.11408 0.0
C822 C 0.94084 0.86069 0.08525 0.0
C823 C 0.95612 0.91542 0.96209 0.0
C824 C 0.94389 0.89943 1.00711 0.0
H825 H 0.99718 0.81746 0.15504 0.0
H826 H 0.98173 0.85189 0.12119 0.0
H827 H 0.92982 0.84707 0.97622 0.0
H828 H 1.0003 0.9115 0.84542 0.0
H829 H 0.96826 0.89159 0.878 0.0
C830 C 0.7322 0.96892 0.12783 0.0
C831 C 0.74201 0.98516 0.17293 0.0
C832 C 0.71294 0.97314 0.08977 0.0
C833 C 0.66702 1.01044 0.09118 0.0
H834 H 0.66824 1.00387 0.86784 0.0
C835 C 0.602 0.04829 0.90528 0.0
C836 C 0.61013 0.06037 0.8443 0.0
C837 C 0.61527 0.03406 0.94342 0.0
C838 C 0.66762 1.00564 0.93021 0.0
H839 H 0.74002 0.0182 0.21411 0.0
H840 H 0.70613 0.02553 0.14995 0.0
H841 H 0.69652 0.98734 0.94377 0.0
H842 H 0.63832 0.06666 0.77411 0.0
H843 H 0.66179 0.04229 0.84256 0.0
H844 H 0.63897 0.02977 0.07799 0.0
C845 C 0.71303 1.00954 0.14421 0.0
C846 C 0.68361 0.99598 0.97356 0.0
C847 C 0.73234 1.00543 0.18076 0.0
C848 C 0.63174 0.05779 0.82165 0.0
C849 C 0.64503 0.04356 0.85991 0.0
C850 C 0.65102 0.01999 0.04802 0.0
C851 C 0.70323 0.99352 0.0979 0.0
C852 C 0.68388 0.99907 0.05411 0.0
C853 C 0.63696 0.0317 0.92156 0.0
C854 C 0.65164 0.01838 0.96698 0.0
H855 H 0.73959 0.95318 0.12161 0.0
H856 H 0.70567 0.9606 0.05397 0.0
H857 H 0.66687 0.01289 0.15339 0.0
H858 H 0.58542 0.05002 0.92427 0.0
H859 H 0.60861 0.02506 0.9905 0.0
C860 C 0.54727 0.72344 0.08917 0.0
C861 C 0.55874 0.73349 0.1493 0.0
C862 C 0.54904 0.70128 0.07554 0.0
C863 C 0.5611 0.65512 0.03871 0.0
H864 H 0.55787 0.62019 0.22005 0.0
C865 C 0.54731 0.56479 1.00234 0.0
C866 C 0.5315 0.55645 0.0513 0.0
C867 C 0.55669 0.58473 0.01948 0.0
C868 C 0.55878 0.62968 0.16875 0.0
H869 H 0.58163 0.72889 0.24045 0.0
H870 H 0.58508 0.68997 0.21641 0.0
H871 H 0.56224 0.65897 0.23539 0.0
H872 H 0.5139 0.5617 0.15855 0.0
H873 H 0.52953 0.59685 0.18734 0.0
H874 H 0.55608 0.62625 0.97207 0.0
C875 C 0.57451 0.69909 0.18023 0.0
C876 C 0.56158 0.65192 0.17754 0.0
C877 C 0.57271 0.72129 0.19368 0.0
C878 C 0.52618 0.56774 0.12015 0.0
C879 C 0.53524 0.58789 0.13667 0.0
C880 C 0.55811 0.63296 0.02993 0.0
C881 C 0.56235 0.68877 0.12196 0.0
C882 C 0.56225 0.66495 0.11259 0.0
C883 C 0.55004 0.59699 0.08507 0.0
C884 C 0.55642 0.61998 0.09485 0.0
H885 H 0.53605 0.73259 0.05561 0.0
H886 H 0.53913 0.69384 0.03111 0.0
H887 H 0.56188 0.66464 0.98746 0.0
H888 H 0.55178 0.55629 0.94919 0.0
H889 H 0.56848 0.5909 0.97952 0.0
C890 C 0.80073 0.56044 0.05695 0.0
C891 C 0.79207 0.56671 0.12903 0.0
C892 C 0.82241 0.56408 0.04049 0.0
C893 C 0.86909 0.57512 0.01292 0.0
H894 H 0.90274 0.55414 0.18258 0.0
C895 C 0.95974 0.5401 0.0863 0.0
C896 C 0.96223 0.52646 0.02063 0.0
C897 C 0.94087 0.55209 0.09784 0.0
C898 C 0.89382 0.56054 0.13495 0.0
H899 H 0.79831 0.58317 0.238 0.0
H900 H 0.83634 0.58993 0.20931 0.0
H901 H 0.86557 0.56469 0.20468 0.0
H902 H 0.94689 0.51485 0.91537 0.0
H903 H 0.91404 0.53543 0.93576 0.0
H904 H 0.89728 0.57032 0.94262 0.0
C905 C 0.82655 0.58194 0.16574 0.0
C906 C 0.87241 0.56656 0.14764 0.0
C907 C 0.80485 0.57824 0.18208 0.0
C908 C 0.94567 0.52547 0.96592 0.0
C909 C 0.92682 0.53737 0.97751 0.0
C910 C 0.89058 0.56925 1.00029 0.0
C911 C 0.83579 0.57405 0.09607 0.0
C912 C 0.85953 0.57296 0.08605 0.0
C913 C 0.92405 0.5506 0.04413 0.0
C914 C 0.90289 0.56099 0.06044 0.0
H915 H 0.79114 0.55121 0.01597 0.0
H916 H 0.829 0.55751 0.98673 0.0
H917 H 0.8597 0.58044 0.96465 0.0
H918 H 0.97229 0.54143 0.12907 0.0
H919 H 0.93934 0.56229 0.14936 0.0
C920 C 0.02013 0.2266 0.03737 0.0
C921 C 0.03369 0.24238 1.0071 0.0
C922 C 0.01744 0.20651 0.99876 0.0
C923 C 0.02969 0.17597 0.80946 0.0
H924 H 0.01884 0.12623 0.93328 0.0
C925 C 0.03761 0.08726 0.68727 0.0
C926 C 0.02157 0.0726 0.7085 0.0
C927 C 0.03861 0.108 0.72223 0.0
C928 C 0.02171 0.13994 0.89757 0.0
H929 H 0.05509 0.24937 0.91267 0.0
H930 H 0.05078 0.21456 0.84534 0.0
H931 H 0.02126 0.16179 0.99554 0.0
H932 H 0.99298 0.06889 0.77876 0.0
H933 H 0.99484 0.10489 0.84084 0.0
H934 H 0.03084 0.15377 0.71186 0.0
C935 C 0.04158 0.21761 0.8978 0.0
C936 C 0.02299 0.16056 0.93338 0.0
C937 C 0.04405 0.23777 0.93616 0.0
C938 C 1.00597 0.07954 0.76315 0.0
C939 C 1.00703 0.10022 0.79854 0.0
C940 C 0.02874 0.1553 0.77391 0.0
C941 C 0.02849 0.20135 0.92889 0.0
C942 C 0.02692 0.1791 0.89013 0.0
C943 C 0.02343 0.1148 0.77897 0.0
C944 C 0.02464 0.13693 0.81724 0.0
H945 H 0.0123 0.22953 0.09276 0.0
H946 H 1.00686 0.19494 0.02475 0.0
H947 H 0.03233 0.18953 0.77295 0.0
H948 H 0.04949 0.08261 0.64377 0.0
H949 H 0.05146 0.11866 0.70538 0.0
C950 C 0.3055 0.0523 0.93915 0.0
C951 C 0.29687 0.03845 0.99394 0.0
C952 C 0.32474 0.0472 0.89971 0.0
C953 C 0.37532 0.01725 0.92305 0.0
H954 H 0.38388 0.02707 0.70518 0.0
C955 C 0.45656 0.99633 0.76671 0.0
C956 C 0.46336 1.00929 0.70627 0.0
C957 C 0.43615 0.99929 0.80117 0.0
C958 C 0.38201 0.02454 0.7664 0.0
H959 H 0.30143 1.0082 0.04949 0.0
H960 H 0.33524 0.99912 0.98066 0.0
H961 H 0.34842 0.0327 0.76358 0.0
H962 H 0.45381 0.03482 0.63207 0.0
H963 H 0.41846 0.04034 0.69204 0.0
H964 H 0.40898 1.00984 0.92695 0.0
C965 C 0.32702 0.01394 0.96782 0.0
C966 C 0.36151 0.02764 0.79981 0.0
C967 C 0.3075 0.01891 1.00631 0.0
C968 C 0.44912 0.02488 0.6796 0.0
C969 C 0.42868 0.02781 0.71358 0.0
C970 C 0.39591 0.01443 0.88991 0.0
C971 C 0.33613 0.02823 0.91499 0.0
C972 C 0.35783 0.02403 0.87862 0.0
C973 C 0.42176 0.01506 0.77506 0.0
C974 C 0.39967 0.01803 0.81088 0.0
H975 H 0.29783 0.06764 0.92982 0.0
H976 H 0.33128 0.05868 0.86009 0.0
H977 H 0.37321 0.01467 0.9842 0.0
H978 H 0.46699 0.98375 0.78691 0.0
H979 H 0.43148 0.98877 0.84696 0.0
C980 C 0.5056 0.30259 0.0448 0.0
C981 C 0.4927 0.28757 1.00495 0.0
C982 C 0.5117 0.32176 0.01032 0.0
C983 C 0.51253 0.35033 0.82233 0.0
H984 H 0.51019 0.40118 0.95692 0.0
C985 C 0.52982 0.43623 0.71148 0.0
C986 C 0.51639 0.45291 0.74037 0.0
C987 C 0.52909 0.41572 0.74319 0.0
C988 C 0.51077 0.38718 0.91832 0.0
H989 H 0.47632 0.28038 0.8981 0.0
H990 H 0.48678 0.31381 0.8371 0.0
H991 H 0.50537 0.36593 0.01111 0.0
H992 H 0.49169 0.46084 0.82614 0.0
H993 H 0.49033 0.42538 0.88028 0.0
H994 H 0.51711 0.37181 0.72913 0.0
C995 C 0.4927 0.31078 0.89434 0.0
C996 C 0.50833 0.36683 0.94964 0.0
C997 C 0.48675 0.29156 0.92888 0.0
C998 C 0.50235 0.44853 0.80214 0.0
C999 C 0.50166 0.42811 0.83379 0.0
C1000 C 0.51493 0.37074 0.79096 0.0
C1001 C 0.50481 0.32645 0.9353 0.0
C1002 C 0.50893 0.34807 0.90208 0.0
C1003 C 0.51497 0.41137 0.80481 0.0
C1004 C 0.51379 0.38949 0.83841 0.0
H1005 H 0.50997 0.29994 0.10414 0.0
H1006 H 0.52132 0.33316 0.04342 0.0
H1007 H 0.5134 0.33632 0.7838 0.0
H1008 H 0.54087 0.43895 0.66415 0.0
H1009 H 0.53976 0.40333 0.71983 0.0
C1010 C 0.24333 0.50288 0.9519 0.0
C1011 C 0.24471 0.50907 0.03024 0.0
C1012 C 0.22398 0.5054 0.91155 0.0
C1013 C 0.16981 0.53226 0.92219 0.0
H1014 H 0.15349 0.48587 0.78031 0.0
C1015 C 0.09223 0.53672 0.73785 0.0
C1016 C 0.08031 0.51776 0.72458 0.0
C1017 C 0.11253 0.53617 0.77274 0.0
C1018 C 0.15765 0.49892 0.82013 0.0
H1019 H 0.22722 0.52307 0.12749 0.0
H1020 H 0.19349 0.52754 0.058 0.0
H1021 H 0.18818 0.48467 0.8446 0.0
H1022 H 0.08057 0.48328 0.73941 0.0
H1023 H 0.1157 0.48232 0.80117 0.0
H1024 H 0.13901 0.54618 0.89965 0.0
C1025 C 0.20731 0.52108 0.02663 0.0
C1026 C 0.17779 0.49839 0.85632 0.0
C1027 C 0.22665 0.51861 0.06664 0.0
C1028 C 0.08927 0.49822 0.74795 0.0
C1029 C 0.10957 0.49766 0.78304 0.0
C1030 C 0.14967 0.53278 0.88605 0.0
C1031 C 0.20549 0.51409 0.94879 0.0
C1032 C 0.18421 0.51504 0.90807 0.0
C1033 C 0.12156 0.51663 0.79611 0.0
C1034 C 0.14321 0.51611 0.83446 0.0
H1035 H 0.2569 0.49507 0.92313 0.0
H1036 H 0.22341 0.5001 0.8515 0.0
H1037 H 0.17411 0.54549 0.96104 0.0
H1038 H 0.08576 0.55215 0.72234 0.0
H1039 H 0.1212 0.55113 0.78086 0.0
C1040 C 0.97868 0.80509 0.33115 0.0
C1041 C 0.99533 0.79425 0.2905 0.0
C1042 C 0.98274 0.82384 0.37593 0.0
C1043 C 0.02696 0.85739 0.46538 0.0
H1044 H 0.98396 0.90258 0.463 0.0
C1045 C 0.04523 0.94421 0.58077 0.0
C1046 C 0.0288 0.95648 0.61715 0.0
C1047 C 0.04088 0.92419 0.54464 0.0
C1048 C 0.9961 0.89013 0.46523 0.0
H1049 H 0.02949 0.79444 0.26672 0.0
H1050 H 0.03682 0.82707 0.34515 0.0
H1051 H 0.97738 0.86848 0.39448 0.0
H1052 H 0.9952 0.95612 0.65054 0.0
H1053 H 0.9874 0.92119 0.58705 0.0
H1054 H 0.04577 0.87915 0.53541 0.0
C1055 C 0.02051 0.82101 0.34335 0.0
C1056 C 0.99229 0.87038 0.4258 0.0
C1057 C 0.01639 0.80216 0.29856 0.0
C1058 C 1.00804 0.94756 0.62017 0.0
C1059 C 1.00362 0.92743 0.58385 0.0
C1060 C 0.03079 0.87716 0.50454 0.0
C1061 C 1.00365 0.83249 0.38155 0.0
C1062 C 1.00767 0.8536 0.42496 0.0
C1063 C 0.01998 0.91543 0.54498 0.0
C1064 C 0.01548 0.89397 0.50495 0.0
H1065 H 0.96228 0.79941 0.32584 0.0
H1066 H 0.96932 0.83171 0.40542 0.0
H1067 H 0.03912 0.84495 0.46772 0.0
H1068 H 0.0615 0.9504 0.5784 0.0
H1069 H 0.05395 0.91577 0.51505 0.0
C1070 C 0.74181 1.00691 0.3735 0.0
C1071 C 0.74776 0.98673 0.34133 0.0
C1072 C 0.72167 1.00985 0.41044 0.0
C1073 C 0.67171 0.01265 0.42569 0.0
H1074 H 0.64968 0.97371 0.5776 0.0
C1075 C 0.58839 0.0278 0.57431 0.0
C1076 C 0.57637 1.01031 0.60028 0.0
C1077 C 0.60937 0.02488 0.54475 0.0
C1078 C 0.65524 0.98459 0.53422 0.0
H1079 H 0.73757 0.9538 0.32448 0.0
H1080 H 0.70303 0.9585 0.39263 0.0
H1081 H 0.68603 0.96877 0.52588 0.0
H1082 H 0.57734 0.9762 0.61966 0.0
H1083 H 0.6133 0.97065 0.56396 0.0
H1084 H 0.64084 0.02793 0.43054 0.0
C1085 C 0.71376 0.97214 0.38895 0.0
C1086 C 0.67632 0.98182 0.50503 0.0
C1087 C 0.73362 0.96936 0.35051 0.0
C1088 C 0.586 0.98987 0.59785 0.0
C1089 C 0.60687 0.98683 0.56699 0.0
C1090 C 0.6505 0.01518 0.45364 0.0
C1091 C 0.70719 0.99255 0.41757 0.0
C1092 C 0.68492 0.99587 0.45066 0.0
C1093 C 0.61908 1.00431 0.54015 0.0
C1094 C 0.64181 1.00128 0.50888 0.0
H1095 H 0.75213 0.02068 0.36544 0.0
H1096 H 0.7172 0.02578 0.43197 0.0
H1097 H 0.67761 0.02354 0.38279 0.0
H1098 H 0.5817 0.04389 0.57845 0.0
H1099 H 0.6181 0.03898 0.52741 0.0
C1100 C 0.51849 0.73238 0.27248 0.0
C1101 C 0.53584 0.74578 0.29212 0.0
C1102 C 0.51455 0.71366 0.31309 0.0
C1103 C 0.52096 0.66795 0.36351 0.0
H1104 H 0.53092 0.66176 0.58231 0.0
C1105 C 0.52952 0.58428 0.49401 0.0
C1106 C 0.52111 0.5808 0.56808 0.0
C1107 C 0.5304 0.60493 0.46452 0.0
C1108 C 0.52784 0.66319 0.52126 0.0
H1109 H 0.56228 0.75068 0.3705 0.0
H1110 H 0.55546 0.71802 0.44261 0.0
H1111 H 0.53274 0.69735 0.52676 0.0
H1112 H 0.50679 0.59659 0.66913 0.0
H1113 H 0.50771 0.63269 0.61703 0.0
H1114 H 0.51573 0.634 0.3577 0.0
C1115 C 0.54461 0.72203 0.3966 0.0
C1116 C 0.52912 0.68362 0.4892 0.0
C1117 C 0.54848 0.74081 0.35585 0.0
C1118 C 0.51334 0.59863 0.61179 0.0
C1119 C 0.5141 0.6194 0.58211 0.0
C1120 C 0.51963 0.6476 0.39549 0.0
C1121 C 0.52801 0.70781 0.37409 0.0
C1122 C 0.52576 0.68628 0.40976 0.0
C1123 C 0.5226 0.62284 0.5078 0.0
C1124 C 0.52322 0.64484 0.47474 0.0
H1125 H 0.50884 0.73577 0.2225 0.0
H1126 H 0.50138 0.70338 0.29485 0.0
H1127 H 0.51865 0.66919 0.30191 0.0
H1128 H 0.53493 0.57098 0.45755 0.0
H1129 H 0.5373 0.6068 0.40753 0.0
C1130 C 0.804 0.5237 0.21497 0.0
C1131 C 0.78737 0.5354 0.25217 0.0
C1132 C 0.82349 0.51987 0.25263 0.0
C1133 C 0.85056 0.52237 0.44601 0.0
H1134 H 0.90226 0.52795 0.32148 0.0
C1135 C 0.93705 0.50697 0.56425 0.0
C1136 C 0.95322 0.52164 0.54381 0.0
C1137 C 0.91654 0.50765 0.53058 0.0
C1138 C 0.88802 0.52643 0.35735 0.0
H1139 H 0.7779 0.552 0.35817 0.0
H1140 H 0.81181 0.54527 0.425 0.0
H1141 H 0.86713 0.52987 0.26095 0.0
H1142 H 0.96013 0.54846 0.47022 0.0
H1143 H 0.92471 0.54943 0.41141 0.0
H1144 H 0.87166 0.51886 0.54252 0.0
C1145 C 0.80981 0.53868 0.36697 0.0
C1146 C 0.86775 0.52737 0.32239 0.0
C1147 C 0.79029 0.54248 0.32904 0.0
C1148 C 0.94824 0.53688 0.48802 0.0
C1149 C 0.92786 0.53738 0.45374 0.0
C1150 C 0.87088 0.52114 0.48088 0.0
C1151 C 0.82696 0.52776 0.32871 0.0
C1152 C 0.84864 0.52561 0.36615 0.0
C1153 C 0.91167 0.5228 0.47448 0.0
C1154 C 0.88992 0.52338 0.43719 0.0
H1155 H 0.8022 0.51836 0.1553 0.0
H1156 H 0.83601 0.51109 0.22133 0.0
H1157 H 0.83633 0.52065 0.48178 0.0
H1158 H 0.94022 0.49479 0.60578 0.0
H1159 H 0.90461 0.49598 0.54744 0.0
loop_
_geom_bond_atom_site_label_1
_geom_bond_atom_site_label_2
_geom_bond_distance
_geom_bond_site_symmetry_2
_ccdc_geom_bond_type
C0 N1 1.317 . S
C0 N2 1.348 . S
C0 C3 1.485 . S
N1 C0 1.317 . S
N1 N5 1.370 . S
N2 C0 1.348 . S
N2 C4 1.346 . S
C3 C0 1.485 . S
C3 H7 0.960 . S
C3 H8 0.961 . S
C3 H9 0.960 . S
C4 N2 1.346 . S
C4 N5 1.307 . S
C4 C6 1.486 . S
N5 N1 1.370 . S
N5 C4 1.307 . S
C6 C4 1.486 . S
C6 H10 0.960 . S
C6 H11 0.960 . S
C6 H12 0.959 . S
H7 C3 0.960 . S
H8 C3 0.961 . S
H9 C3 0.960 . S
H10 C6 0.960 . S
H11 C6 0.960 . S
H12 C6 0.959 . S
C13 N14 1.317 . S
C13 N15 1.348 . S
C13 C16 1.485 . S
N14 C13 1.317 . S
N14 N18 1.370 . S
N15 C13 1.348 . S
N15 C17 1.346 . S
C16 C13 1.485 . S
C16 H20 0.960 . S
C16 H21 0.961 . S
C16 H22 0.960 . S
C17 N15 1.346 . S
C17 N18 1.307 . S
C17 C19 1.486 . S
N18 N14 1.370 . S
N18 C17 1.307 . S
C19 C17 1.486 . S
C19 H23 0.960 . S
C19 H24 0.960 . S
C19 H25 0.959 . S
H20 C16 0.960 . S
H21 C16 0.961 . S
H22 C16 0.960 . S
H23 C19 0.960 . S
H24 C19 0.960 . S
H25 C19 0.959 . S
C26 N27 1.317 . S
C26 N28 1.348 . S
C26 C29 1.485 . S
N27 C26 1.317 . S
N27 N31 1.370 . S
N28 C26 1.348 . S
N28 C30 1.346 . S
C29 C26 1.485 . S
C29 H33 0.960 . S
C29 H34 0.961 . S
C29 H35 0.960 . S
C30 N28 1.346 . S
C30 N31 1.307 . S
C30 C32 1.486 . S
N31 N27 1.370 . S
N31 C30 1.307 . S
C32 C30 1.486 . S
C32 H36 0.960 . S
C32 H37 0.960 . S
C32 H38 0.959 . S
H33 C29 0.960 . S
H34 C29 0.961 . S
H35 C29 0.960 . S
H36 C32 0.960 . S
H37 C32 0.960 . S
H38 C32 0.959 . S
C39 N40 1.317 . S
C39 N41 1.348 . S
C39 C42 1.485 . S
N40 C39 1.317 . S
N40 N44 1.370 . S
N41 C39 1.348 . S
N41 C43 1.346 . S
C42 C39 1.485 . S
C42 H46 0.960 . S
C42 H47 0.961 . S
C42 H48 0.960 . S
C43 N41 1.346 . S
C43 N44 1.307 . S
C43 C45 1.486 . S
N44 N40 1.370 . S
N44 C43 1.307 . S
C45 C43 1.486 . S
C45 H49 0.960 . S
C45 H50 0.960 . S
C45 H51 0.959 . S
H46 C42 0.960 . S
H47 C42 0.961 . S
H48 C42 0.960 . S
H49 C45 0.960 . S
H50 C45 0.960 . S
H51 C45 0.959 . S
C52 N53 1.317 . S
C52 N54 1.348 1_556 S
C52 C55 1.485 . S
N53 C52 1.317 . S
N53 N57 1.370 1_556 S
N54 C52 1.348 1_554 S
N54 C56 1.346 . S
C55 C52 1.485 . S
C55 H59 0.960 . S
C55 H60 0.961 . S
C55 H61 0.960 . S
C56 N54 1.346 . S
C56 N57 1.307 . S
C56 C58 1.486 . S
N57 N53 1.370 1_554 S
N57 C56 1.307 . S
C58 C56 1.486 . S
C58 H62 0.960 . S
C58 H63 0.960 . S
C58 H64 0.959 . S
H59 C55 0.960 . S
H60 C55 0.961 . S
H61 C55 0.960 . S
H62 C58 0.960 . S
H63 C58 0.960 . S
H64 C58 0.959 . S
C65 N66 1.317 . S
C65 N67 1.348 1_556 S
C65 C68 1.485 . S
N66 C65 1.317 . S
N66 N70 1.370 1_556 S
N67 C65 1.348 1_554 S
N67 C69 1.346 . S
C68 C65 1.485 . S
C68 H72 0.960 . S
C68 H73 0.961 . S
C68 H74 0.960 . S
C69 N67 1.346 . S
C69 N70 1.307 . S
C69 C71 1.486 . S
N70 N66 1.370 1_554 S
N70 C69 1.307 . S
C71 C69 1.486 . S
C71 H75 0.960 . S
C71 H76 0.960 . S
C71 H77 0.959 . S
H72 C68 0.960 . S
H73 C68 0.961 . S
H74 C68 0.960 . S
H75 C71 0.960 . S
H76 C71 0.960 . S
H77 C71 0.959 . S
C78 N79 1.317 . S
C78 N80 1.348 1_556 S
C78 C81 1.485 . S
N79 C78 1.317 . S
N79 N83 1.370 1_556 S
N80 C78 1.348 1_554 S
N80 C82 1.346 . S
C81 C78 1.485 . S
C81 H85 0.960 . S
C81 H86 0.961 . S
C81 H87 0.960 . S
C82 N80 1.346 . S
C82 N83 1.307 . S
C82 C84 1.486 . S
N83 N79 1.370 1_554 S
N83 C82 1.307 . S
C84 C82 1.486 . S
C84 H88 0.960 . S
C84 H89 0.960 . S
C84 H90 0.959 . S
H85 C81 0.960 . S
H86 C81 0.961 . S
H87 C81 0.960 . S
H88 C84 0.960 . S
H89 C84 0.960 . S
H90 C84 0.959 . S
C91 N92 1.317 . S
C91 N93 1.348 1_556 S
C91 C94 1.485 . S
N92 C91 1.317 . S
N92 N96 1.370 1_556 S
N93 C91 1.348 1_554 S
N93 C95 1.346 . S
C94 C91 1.485 . S
C94 H98 0.960 . S
C94 H99 0.961 . S
C94 H100 0.960 . S
C95 N93 1.346 . S
C95 N96 1.307 . S
C95 C97 1.486 . S
N96 N92 1.370 1_554 S
N96 C95 1.307 . S
C97 C95 1.486 . S
C97 H101 0.960 . S
C97 H102 0.960 . S
C97 H103 0.959 . S
H98 C94 0.960 . S
H99 C94 0.961 . S
H100 C94 0.960 . S
H101 C97 0.960 . S
H102 C97 0.960 . S
H103 C97 0.959 . S
Eu104 N135 2.657 1_565 S
Eu104 N142 2.597 1_565 S
Eu104 O148 2.558 . S
Eu104 O149 2.612 1_455 S
Eu104 O151 2.339 1_455 S
Eu104 O152 2.563 . S
Eu104 O153 2.419 . S
Eu104 O155 2.380 1_565 S
Eu104 O156 2.432 . S
Eu104 C168 2.848 . S
C105 C108 1.429 1_545 S
C105 C109 1.411 . S
C105 N112 1.377 . S
C106 C108 1.420 . S
C106 C110 1.423 . S
C106 C118 1.392 . S
C107 C109 1.420 1_565 S
C107 C110 1.351 . S
C107 H130 0.931 . S
C108 C105 1.429 1_565 S
C108 C106 1.420 . S
C108 N116 1.362 1_565 S
C109 C105 1.411 . S
C109 C107 1.420 1_545 S
C109 C114 1.395 . S
C110 C106 1.423 . S
C110 C107 1.351 . S
C110 H122 0.930 . S
C111 C113 1.400 . S
C111 C114 1.386 . S
C111 H123 0.930 . S
N112 C105 1.377 . S
N112 C113 1.321 . S
N112 Eu115 2.609 . S
C113 C111 1.400 . S
C113 N112 1.321 . S
C113 H120 0.930 . S
C114 C109 1.395 . S
C114 C111 1.386 . S
C114 H133 0.930 . S
Eu115 N112 2.609 . S
Eu115 N116 2.657 . S
Eu115 O149 2.380 1_545 S
Eu115 O150 2.432 . S
Eu115 O154 2.558 . S
Eu115 O155 2.612 1_655 S
Eu115 O157 2.339 1_655 S
Eu115 O158 2.563 1_655 S
Eu115 O159 2.419 . S
Eu115 C179 2.848 . S
N116 C108 1.362 1_545 S
N116 Eu115 2.657 . S
N116 C117 1.334 1_645 S
C117 N116 1.334 1_465 S
C117 C119 1.413 . S
C117 H124 0.929 . S
C118 C106 1.392 . S
C118 C119 1.367 1_655 S
C118 H126 0.930 . S
C119 C117 1.413 . S
C119 C118 1.367 1_455 S
C119 H121 0.930 . S
H120 C113 0.930 . S
H121 C119 0.930 . S
H122 C110 0.930 . S
H123 C111 0.930 . S
H124 C117 0.929 . S
H125 C139 0.930 1_655 S
H126 C118 0.930 . S
H127 C145 0.930 . S
H128 C136 0.929 1_655 S
H129 C143 0.930 . S
H130 C107 0.931 . S
H131 C137 0.930 1_554 S
H132 C170 0.930 1_554 S
H133 C114 0.930 . S
H134 C169 0.931 . S
N135 Eu104 2.657 1_545 S
N135 C136 1.334 . S
N135 C140 1.362 . S
C136 H128 0.929 1_455 S
C136 N135 1.334 . S
C136 C139 1.413 . S
C137 H131 0.930 1_556 S
C137 C138 1.392 . S
C137 C139 1.367 . S
C138 C137 1.392 . S
C138 C140 1.420 . S
C138 C170 1.423 . S
C139 H125 0.930 1_455 S
C139 C136 1.413 . S
C139 C137 1.367 . S
C140 N135 1.362 . S
C140 C138 1.420 . S
C140 C144 1.429 . S
H141 C146 0.930 . S
N142 Eu104 2.597 1_545 S
N142 C144 1.405 . S
N142 C145 1.301 1_545 S
C143 H129 0.930 . S
C143 C145 1.400 . S
C143 C146 1.386 1_565 S
C144 C140 1.429 . S
C144 N142 1.405 . S
C144 C147 1.411 . S
C145 H127 0.930 . S
C145 N142 1.301 1_565 S
C145 C143 1.400 . S
C146 H141 0.930 . S
C146 C143 1.386 1_545 S
C146 C147 1.395 . S
C147 C144 1.411 . S
C147 C146 1.395 . S
C147 C169 1.420 . S
O148 Eu104 2.558 . S
O148 C168 1.257 . S
O149 Eu104 2.612 1_655 S
O149 Eu115 2.380 1_565 S
O149 C160 1.276 . S
O150 Eu115 2.432 . S
O150 C167 1.264 . S
O151 Eu104 2.339 1_655 S
O151 C167 1.254 1_565 S
O152 Eu104 2.563 . S
O152 C160 1.235 1_455 S
O153 Eu104 2.419 . S
O153 C168 1.249 . S
O154 Eu115 2.558 . S
O154 C179 1.257 . S
O155 Eu104 2.380 1_545 S
O155 Eu115 2.612 1_455 S
O155 C171 1.276 . S
O156 Eu104 2.432 . S
O156 C178 1.264 1_565 S
O157 Eu115 2.339 1_455 S
O157 C178 1.254 . S
O158 Eu115 2.563 1_455 S
O158 C171 1.235 . S
O159 Eu115 2.419 . S
O159 C179 1.249 . S
C160 O149 1.276 . S
C160 O152 1.235 1_655 S
C161 C163 1.393 . S
C161 C165 1.395 . S
C161 C168 1.492 . S
C162 C163 1.392 . S
C162 C164 1.386 . S
C163 C161 1.393 . S
C163 C162 1.392 . S
C163 H180 0.910 1_455 S
C164 C162 1.386 . S
C164 C166 1.395 . S
C164 H181 0.930 . S
C165 C161 1.395 . S
C165 C166 1.379 . S
C165 H182 0.930 . S
C166 C164 1.395 . S
C166 C165 1.379 . S
C166 H183 0.930 . S
C167 O150 1.264 . S
C167 O151 1.254 1_545 S
C168 Eu104 2.848 . S
C168 O148 1.257 . S
C168 O153 1.249 . S
C168 C161 1.492 . S
C169 H134 0.931 . S
C169 C147 1.420 . S
C169 C170 1.351 . S
C170 H132 0.930 1_556 S
C170 C138 1.423 . S
C170 C169 1.351 . S
C171 O155 1.276 . S
C171 O158 1.235 . S
C172 C173 1.393 . S
C172 C176 1.395 . S
C172 C179 1.492 . S
C173 C172 1.393 . S
C173 C174 1.392 . S
C173 H184 0.930 1_655 S
C174 C173 1.392 . S
C174 C175 1.386 . S
C175 C174 1.386 . S
C175 C177 1.395 . S
C175 H185 0.930 . S
C176 C172 1.395 . S
C176 C177 1.379 . S
C176 H186 0.930 . S
C177 C175 1.395 . S
C177 C176 1.379 . S
C177 H187 0.930 . S
C178 O156 1.264 1_545 S
C178 O157 1.254 . S
C179 Eu115 2.848 . S
C179 O154 1.257 . S
C179 O159 1.249 . S
C179 C172 1.492 . S
H180 C163 0.910 1_655 S
H181 C164 0.930 . S
H182 C165 0.930 . S
H183 C166 0.930 . S
H184 C173 0.930 1_455 S
H185 C175 0.930 . S
H186 C176 0.930 . S
H187 C177 0.930 . S
Eu188 N219 2.657 . S
Eu188 N226 2.609 . S
Eu188 O232 2.558 . S
Eu188 O233 2.587 1_545 S
Eu188 O235 2.339 1_545 S
Eu188 O236 2.563 . S
Eu188 O237 2.419 . S
Eu188 O239 2.380 . S
Eu188 O240 2.432 . S
Eu188 C252 2.848 . S
C189 C192 1.429 . S
C189 C193 1.411 . S
C189 N196 1.377 . S
C190 C192 1.420 . S
C190 C194 1.423 . S
C190 C202 1.392 . S
C191 C193 1.420 . S
C191 C194 1.351 . S
C191 H214 0.931 . S
C192 C189 1.429 . S
C192 C190 1.420 . S
C192 N200 1.362 . S
C193 C189 1.411 . S
C193 C191 1.420 . S
C193 C198 1.395 . S
C194 C190 1.423 . S
C194 C191 1.351 . S
C194 H206 0.930 . S
C195 C197 1.400 . S
C195 C198 1.386 . S
C195 H207 0.930 . S
N196 C189 1.377 . S
N196 C197 1.321 . S
N196 Eu199 2.609 . S
C197 C195 1.400 . S
C197 N196 1.321 . S
C197 H204 0.930 . S
C198 C193 1.395 . S
C198 C195 1.386 . S
C198 H217 0.930 . S
Eu199 N196 2.609 . S
Eu199 N200 2.657 . S
Eu199 O233 2.388 . S
Eu199 O234 2.432 . S
Eu199 O238 2.558 . S
Eu199 O239 2.612 1_565 S
Eu199 O241 2.339 1_565 S
Eu199 O242 2.563 1_565 S
Eu199 O243 2.409 1_565 S
Eu199 C263 2.848 . S
N200 C192 1.362 . S
N200 Eu199 2.657 . S
N200 C201 1.334 1_565 S
C201 N200 1.334 1_545 S
C201 C203 1.413 . S
C201 H208 0.929 . S
C202 C190 1.392 . S
C202 C203 1.367 1_565 S
C202 H210 0.930 . S
C203 C201 1.413 . S
C203 C202 1.367 1_545 S
C203 H205 0.930 . S
H204 C197 0.930 . S
H205 C203 0.930 . S
H206 C194 0.930 . S
H207 C195 0.930 . S
H208 C201 0.929 . S
H209 C223 0.930 1_565 S
H210 C202 0.930 . S
H211 C229 0.930 . S
H212 C220 0.929 1_565 S
H213 C227 0.930 . S
H214 C191 0.931 . S
H215 C221 0.930 1_554 S
H216 C254 0.930 1_554 S
H217 C198 0.930 . S
H218 C253 0.931 . S
N219 Eu188 2.657 . S
N219 C220 1.334 . S
N219 C224 1.362 . S
C220 H212 0.929 1_545 S
C220 N219 1.334 . S
C220 C223 1.413 . S
C221 H215 0.930 1_556 S
C221 C222 1.392 . S
C221 C223 1.367 . S
C222 C221 1.392 . S
C222 C224 1.420 . S
C222 C254 1.423 . S
C223 H209 0.930 1_545 S
C223 C220 1.413 . S
C223 C221 1.367 . S
C224 N219 1.362 . S
C224 C222 1.420 . S
C224 C228 1.429 . S
H225 C230 0.930 . S
N226 Eu188 2.609 . S
N226 C228 1.377 . S
N226 C229 1.321 . S
C227 H213 0.930 . S
C227 C229 1.400 . S
C227 C230 1.386 . S
C228 C224 1.429 . S
C228 N226 1.377 . S
C228 C231 1.411 . S
C229 H211 0.930 . S
C229 N226 1.321 . S
C229 C227 1.400 . S
C230 H225 0.930 . S
C230 C227 1.386 . S
C230 C231 1.395 . S
C231 C228 1.411 . S
C231 C230 1.395 . S
C231 C253 1.420 . S
O232 Eu188 2.558 . S
O232 C252 1.257 . S
O233 Eu188 2.587 1_565 S
O233 Eu199 2.388 . S
O233 C244 1.275 . S
O234 Eu199 2.432 . S
O234 C251 1.264 . S
O235 Eu188 2.339 1_565 S
O235 C251 1.254 . S
O236 Eu188 2.563 . S
O236 C244 1.237 1_545 S
O237 Eu188 2.419 . S
O237 C252 1.249 . S
O238 Eu199 2.558 . S
O238 C263 1.257 . S
O239 Eu188 2.380 . S
O239 Eu199 2.612 1_545 S
O239 C255 1.276 . S
O240 Eu188 2.432 . S
O240 C262 1.264 . S
O241 Eu199 2.339 1_545 S
O241 C262 1.254 . S
O242 Eu199 2.563 1_545 S
O242 C255 1.235 . S
O243 Eu199 2.409 1_545 S
O243 C263 1.207 1_545 S
C244 O233 1.275 . S
C244 O236 1.237 1_565 S
C245 C247 1.393 . S
C245 C249 1.395 . S
C245 C252 1.492 . S
C246 C247 1.392 . S
C246 C248 1.386 . S
C247 C245 1.393 . S
C247 C246 1.392 . S
C247 H264 0.930 . S
C248 C246 1.386 . S
C248 C250 1.395 . S
C248 H265 0.930 . S
C249 C245 1.395 . S
C249 C250 1.379 . S
C249 H266 0.930 . S
C250 C248 1.395 . S
C250 C249 1.379 . S
C250 H267 0.930 . S
C251 O234 1.264 . S
C251 O235 1.254 . S
C252 Eu188 2.848 . S
C252 O232 1.257 . S
C252 O237 1.249 . S
C252 C245 1.492 . S
C253 H218 0.931 . S
C253 C231 1.420 . S
C253 C254 1.351 . S
C254 H216 0.930 1_556 S
C254 C222 1.423 . S
C254 C253 1.351 . S
C255 O239 1.276 . S
C255 O242 1.235 . S
C256 C257 1.379 1_565 S
C256 C260 1.395 . S
C256 C263 1.492 . S
C257 C256 1.379 1_545 S
C257 C258 1.391 1_545 S
C257 H268 0.945 . S
C258 C257 1.391 1_565 S
C258 C259 1.386 . S
C259 C258 1.386 . S
C259 C261 1.395 . S
C259 H269 0.930 . S
C260 C256 1.395 . S
C260 C261 1.379 . S
C260 H270 0.930 . S
C261 C259 1.395 . S
C261 C260 1.379 . S
C261 H271 0.930 . S
C262 O240 1.264 . S
C262 O241 1.254 . S
C263 Eu199 2.848 . S
C263 O238 1.257 . S
C263 O243 1.207 1_565 S
C263 C256 1.492 . S
H264 C247 0.930 . S
H265 C248 0.930 . S
H266 C249 0.930 . S
H267 C250 0.930 . S
H268 C257 0.945 . S
H269 C259 0.930 . S
H270 C260 0.930 . S
H271 C261 0.930 . S
Eu272 N303 2.657 . S
Eu272 N310 2.609 . S
Eu272 O316 2.558 . S
Eu272 O317 2.612 . S
Eu272 O319 2.339 . S
Eu272 O320 2.563 . S
Eu272 O321 2.419 . S
Eu272 O323 2.380 . S
Eu272 O324 2.432 . S
Eu272 C336 2.848 . S
C273 C276 1.429 . S
C273 C277 1.411 . S
C273 N280 1.377 . S
C274 C276 1.420 . S
C274 C278 1.423 . S
C274 C286 1.392 . S
C275 C277 1.420 . S
C275 C278 1.351 . S
C275 H298 0.931 . S
C276 C273 1.429 . S
C276 C274 1.420 . S
C276 N284 1.362 . S
C277 C273 1.411 . S
C277 C275 1.420 . S
C277 C282 1.395 . S
C278 C274 1.423 . S
C278 C275 1.351 . S
C278 H290 0.930 . S
C279 C281 1.400 . S
C279 C282 1.386 . S
C279 H291 0.930 . S
N280 C273 1.377 . S
N280 C281 1.321 . S
N280 Eu283 2.609 . S
C281 C279 1.400 . S
C281 N280 1.321 . S
C281 H288 0.930 . S
C282 C277 1.395 . S
C282 C279 1.386 . S
C282 H301 0.930 . S
Eu283 N280 2.609 . S
Eu283 N284 2.657 . S
Eu283 O317 2.380 . S
Eu283 O318 2.432 . S
Eu283 O322 2.558 . S
Eu283 O323 2.612 . S
Eu283 O325 2.339 . S
Eu283 O326 2.563 . S
Eu283 O327 2.419 . S
Eu283 C347 2.848 . S
N284 C276 1.362 . S
N284 Eu283 2.657 . S
N284 C285 1.334 . S
C285 N284 1.334 . S
C285 C287 1.413 . S
C285 H292 0.929 . S
C286 C274 1.392 . S
C286 C287 1.367 . S
C286 H294 0.930 . S
C287 C285 1.413 . S
C287 C286 1.367 . S
C287 H289 0.930 . S
H288 C281 0.930 . S
H289 C287 0.930 . S
H290 C278 0.930 . S
H291 C279 0.930 . S
H292 C285 0.929 . S
H293 C307 0.930 . S
H294 C286 0.930 . S
H295 C313 0.930 . S
H296 C304 0.929 . S
H297 C311 0.930 . S
H298 C275 0.931 . S
H299 C305 0.930 . S
H300 C338 0.930 . S
H301 C282 0.930 . S
H302 C337 0.931 . S
N303 Eu272 2.657 . S
N303 C304 1.334 . S
N303 C308 1.362 . S
C304 H296 0.929 . S
C304 N303 1.334 . S
C304 C307 1.413 . S
C305 H299 0.930 . S
C305 C306 1.392 . S
C305 C307 1.367 . S
C306 C305 1.392 . S
C306 C308 1.420 . S
C306 C338 1.423 . S
C307 H293 0.930 . S
C307 C304 1.413 . S
C307 C305 1.367 . S
C308 N303 1.362 . S
C308 C306 1.420 . S
C308 C312 1.429 . S
H309 C314 0.930 . S
N310 Eu272 2.609 . S
N310 C312 1.377 . S
N310 C313 1.321 . S
C311 H297 0.930 . S
C311 C313 1.400 . S
C311 C314 1.386 . S
C312 C308 1.429 . S
C312 N310 1.377 . S
C312 C315 1.411 . S
C313 H295 0.930 . S
C313 N310 1.321 . S
C313 C311 1.400 . S
C314 H309 0.930 . S
C314 C311 1.386 . S
C314 C315 1.395 . S
C315 C312 1.411 . S
C315 C314 1.395 . S
C315 C337 1.420 . S
O316 Eu272 2.558 . S
O316 C336 1.257 . S
O317 Eu272 2.612 . S
O317 Eu283 2.380 . S
O317 C328 1.276 . S
O318 Eu283 2.432 . S
O318 C335 1.264 . S
O319 Eu272 2.339 . S
O319 C335 1.254 . S
O320 Eu272 2.563 . S
O320 C328 1.235 . S
O321 Eu272 2.419 . S
O321 C336 1.249 . S
O322 Eu283 2.558 . S
O322 C347 1.257 . S
O323 Eu272 2.380 . S
O323 Eu283 2.612 . S
O323 C339 1.276 . S
O324 Eu272 2.432 . S
O324 C346 1.264 . S
O325 Eu283 2.339 . S
O325 C346 1.254 . S
O326 Eu283 2.563 . S
O326 C339 1.235 . S
O327 Eu283 2.419 . S
O327 C347 1.249 . S
C328 O317 1.276 . S
C328 O320 1.235 . S
C329 C331 1.393 . S
C329 C333 1.395 . S
C329 C336 1.492 . S
C330 C331 1.392 . S
C330 C332 1.386 . S
C331 C329 1.393 . S
C331 C330 1.392 . S
C331 H348 0.930 . S
C332 C330 1.386 . S
C332 C334 1.395 . S
C332 H349 0.930 . S
C333 C329 1.395 . S
C333 C334 1.379 . S
C333 H350 0.930 . S
C334 C332 1.395 . S
C334 C333 1.379 . S
C334 H351 0.930 . S
C335 O318 1.264 . S
C335 O319 1.254 . S
C336 Eu272 2.848 . S
C336 O316 1.257 . S
C336 O321 1.249 . S
C336 C329 1.492 . S
C337 H302 0.931 . S
C337 C315 1.420 . S
C337 C338 1.351 . S
C338 H300 0.930 . S
C338 C306 1.423 . S
C338 C337 1.351 . S
C339 O323 1.276 . S
C339 O326 1.235 . S
C340 C341 1.393 . S
C340 C344 1.395 . S
C340 C347 1.492 . S
C341 C340 1.393 . S
C341 C342 1.392 . S
C341 H352 0.930 . S
C342 C341 1.392 . S
C342 C343 1.386 1_556 S
C343 C342 1.386 1_554 S
C343 C345 1.395 . S
C343 H353 0.930 . S
C344 C340 1.395 . S
C344 C345 1.379 1_556 S
C344 H354 0.930 . S
C345 C343 1.395 . S
C345 C344 1.379 1_554 S
C345 H355 0.930 . S
C346 O324 1.264 . S
C346 O325 1.254 . S
C347 Eu283 2.848 . S
C347 O322 1.257 . S
C347 O327 1.249 . S
C347 C340 1.492 . S
H348 C331 0.930 . S
H349 C332 0.930 . S
H350 C333 0.930 . S
H351 C334 0.930 . S
H352 C341 0.930 . S
H353 C343 0.930 . S
H354 C344 0.930 . S
H355 C345 0.930 . S
Eu356 N387 2.657 . S
Eu356 N394 2.609 . S
Eu356 O400 2.558 . S
Eu356 O401 2.612 . S
Eu356 O403 2.339 . S
Eu356 O404 2.563 . S
Eu356 O405 2.419 . S
Eu356 O407 2.380 . S
Eu356 O408 2.432 1_455 S
Eu356 C420 2.848 . S
C357 C360 1.429 . S
C357 C361 1.411 . S
C357 N364 1.377 . S
C358 C360 1.420 . S
C358 C362 1.423 . S
C358 C370 1.392 . S
C359 C361 1.420 . S
C359 C362 1.351 . S
C359 H382 0.931 . S
C360 C357 1.429 . S
C360 C358 1.420 . S
C360 N368 1.362 . S
C361 C357 1.411 . S
C361 C359 1.420 . S
C361 C366 1.395 1_655 S
C362 C358 1.423 . S
C362 C359 1.351 . S
C362 H374 0.930 . S
C363 C365 1.400 . S
C363 C366 1.386 . S
C363 H375 0.930 . S
N364 C357 1.377 . S
N364 C365 1.321 1_655 S
N364 Eu367 2.609 . S
C365 C363 1.400 . S
C365 N364 1.321 1_455 S
C365 H372 0.930 . S
C366 C361 1.395 1_455 S
C366 C363 1.386 . S
C366 H385 0.930 . S
Eu367 N364 2.609 . S
Eu367 N368 2.657 . S
Eu367 O401 2.380 1_655 S
Eu367 O402 2.432 1_655 S
Eu367 O406 2.558 . S
Eu367 O407 2.612 1_655 S
Eu367 O409 2.339 . S
Eu367 O410 2.563 . S
Eu367 O411 2.419 . S
Eu367 C431 2.848 . S
N368 C360 1.362 . S
N368 Eu367 2.657 . S
N368 C369 1.334 . S
C369 N368 1.334 . S
C369 C371 1.413 . S
C369 H376 0.929 . S
C370 C358 1.392 . S
C370 C371 1.367 . S
C370 H378 0.930 . S
C371 C369 1.413 . S
C371 C370 1.367 . S
C371 H373 0.930 . S
H372 C365 0.930 . S
H373 C371 0.930 . S
H374 C362 0.930 . S
H375 C363 0.930 . S
H376 C369 0.929 . S
H377 C391 0.930 . S
H378 C370 0.930 . S
H379 C397 0.930 1_655 S
H380 C388 0.929 . S
H381 C395 0.962 . S
H382 C359 0.931 . S
H383 C389 0.930 . S
H384 C422 0.930 . S
H385 C366 0.930 . S
H386 C421 0.931 . S
N387 Eu356 2.657 . S
N387 C388 1.334 . S
N387 C392 1.362 . S
C388 H380 0.929 . S
C388 N387 1.334 . S
C388 C391 1.413 . S
C389 H383 0.930 . S
C389 C390 1.392 . S
C389 C391 1.367 . S
C390 C389 1.392 . S
C390 C392 1.420 . S
C390 C422 1.423 . S
C391 H377 0.930 . S
C391 C388 1.413 . S
C391 C389 1.367 . S
C392 N387 1.362 . S
C392 C390 1.420 . S
C392 C396 1.429 . S
H393 C398 0.930 . S
N394 Eu356 2.609 . S
N394 C396 1.377 . S
N394 C397 1.321 . S
C395 H381 0.962 . S
C395 C397 1.393 1_655 S
C395 C398 1.362 1_655 S
C396 C392 1.429 . S
C396 N394 1.377 . S
C396 C399 1.411 . S
C397 H379 0.930 1_455 S
C397 N394 1.321 . S
C397 C395 1.393 1_455 S
C398 H393 0.930 . S
C398 C395 1.362 1_455 S
C398 C399 1.395 . S
C399 C396 1.411 . S
C399 C398 1.395 . S
C399 C421 1.420 . S
O400 Eu356 2.558 . S
O400 C420 1.257 . S
O401 Eu356 2.612 . S
O401 Eu367 2.380 1_455 S
O401 C412 1.276 . S
O402 Eu367 2.432 1_455 S
O402 C419 1.264 . S
O403 Eu356 2.339 . S
O403 C419 1.254 . S
O404 Eu356 2.563 . S
O404 C412 1.235 . S
O405 Eu356 2.419 . S
O405 C420 1.249 . S
O406 Eu367 2.558 . S
O406 C431 1.257 . S
O407 Eu356 2.380 . S
O407 Eu367 2.612 1_455 S
O407 C423 1.276 1_455 S
O408 Eu356 2.432 1_655 S
O408 C430 1.264 . S
O409 Eu367 2.339 . S
O409 C430 1.254 . S
O410 Eu367 2.563 . S
O410 C423 1.235 . S
O411 Eu367 2.419 . S
O411 C431 1.249 . S
C412 O401 1.276 . S
C412 O404 1.235 . S
C413 C415 1.393 . S
C413 C417 1.395 . S
C413 C420 1.492 . S
C414 C415 1.392 . S
C414 C416 1.386 . S
C415 C413 1.393 . S
C415 C414 1.392 . S
C415 H432 0.930 . S
C416 C414 1.386 . S
C416 C418 1.395 . S
C416 H433 0.930 . S
C417 C413 1.395 . S
C417 C418 1.379 . S
C417 H434 0.930 . S
C418 C416 1.395 . S
C418 C417 1.379 . S
C418 H435 0.930 . S
C419 O402 1.264 . S
C419 O403 1.254 . S
C420 Eu356 2.848 . S
C420 O400 1.257 . S
C420 O405 1.249 . S
C420 C413 1.492 . S
C421 H386 0.931 . S
C421 C399 1.420 . S
C421 C422 1.351 . S
C422 H384 0.930 . S
C422 C390 1.423 . S
C422 C421 1.351 . S
C423 O407 1.276 1_655 S
C423 O410 1.235 . S
C424 C425 1.393 . S
C424 C428 1.395 . S
C424 C431 1.492 . S
C425 C424 1.393 . S
C425 C426 1.392 . S
C425 H436 0.930 . S
C426 C425 1.392 . S
C426 C427 1.386 1_556 S
C427 C426 1.386 1_554 S
C427 C429 1.395 . S
C427 H437 0.930 . S
C428 C424 1.395 . S
C428 C429 1.379 1_556 S
C428 H438 0.930 . S
C429 C427 1.395 . S
C429 C428 1.379 1_554 S
C429 H439 0.930 . S
C430 O408 1.264 . S
C430 O409 1.254 . S
C431 Eu367 2.848 . S
C431 O406 1.257 . S
C431 O411 1.249 . S
C431 C424 1.492 . S
H432 C415 0.930 . S
H433 C416 0.930 . S
H434 C417 0.930 . S
H435 C418 0.930 . S
H436 C425 0.930 . S
H437 C427 0.930 . S
H438 C428 0.930 . S
H439 C429 0.930 . S
C440 C441 1.349 . S
C440 C442 1.327 . S
C440 H465 0.950 . S
C441 C440 1.349 . S
C441 C457 1.349 . S
C442 C440 1.327 . S
C442 C461 1.429 . S
C442 H466 0.950 . S
C443 C460 1.574 . S
C443 C462 1.368 . S
C443 H467 0.949 . S
H444 C448 0.949 . S
C445 C446 1.349 . S
C445 C447 1.327 . S
C445 H468 0.950 . S
C446 C445 1.349 . S
C446 C458 1.349 . S
C447 C445 1.327 . S
C447 C463 1.429 . S
C447 H469 0.950 . S
C448 H444 0.949 . S
C448 C456 1.574 . S
C448 C464 1.368 . S
H449 C457 0.950 . S
H450 C455 0.950 . S
H451 C456 0.949 . S
H452 C458 0.950 . S
H453 C459 0.950 . S
H454 C460 0.949 . S
C455 H450 0.950 . S
C455 C457 1.327 . S
C455 C461 1.429 . S
C456 C448 1.574 . S
C456 H451 0.949 . S
C456 C462 1.368 . S
C457 C441 1.349 . S
C457 H449 0.950 . S
C457 C455 1.327 . S
C458 C446 1.349 . S
C458 H452 0.950 . S
C458 C459 1.327 . S
C459 H453 0.950 . S
C459 C458 1.327 . S
C459 C463 1.429 . S
C460 C443 1.574 . S
C460 H454 0.949 . S
C460 C464 1.368 . S
C461 C442 1.429 . S
C461 C455 1.429 . S
C461 C462 1.523 . S
C462 C443 1.368 . S
C462 C456 1.368 . S
C462 C461 1.523 . S
C463 C447 1.429 . S
C463 C459 1.429 . S
C463 C464 1.523 . S
C464 C448 1.368 . S
C464 C460 1.368 . S
C464 C463 1.523 . S
H465 C440 0.950 . S
H466 C442 0.950 . S
H467 C443 0.949 . S
H468 C445 0.950 . S
H469 C447 0.950 . S
C470 C471 1.349 . S
C470 C472 1.327 . S
C470 H495 0.950 . S
C471 C470 1.349 . S
C471 C487 1.349 . S
C472 C470 1.327 . S
C472 C491 1.429 . S
C472 H496 0.950 . S
C473 C490 1.574 . S
C473 C492 1.368 . S
C473 H497 0.949 . S
H474 C478 0.949 . S
C475 C476 1.349 . S
C475 C477 1.327 . S
C475 H498 0.950 . S
C476 C475 1.349 . S
C476 C488 1.349 . S
C477 C475 1.327 . S
C477 C493 1.429 . S
C477 H499 0.950 . S
C478 H474 0.949 . S
C478 C486 1.574 . S
C478 C494 1.368 . S
H479 C487 0.950 . S
H480 C485 0.950 . S
H481 C486 0.949 . S
H482 C488 0.950 . S
H483 C489 0.950 . S
H484 C490 0.949 . S
C485 H480 0.950 . S
C485 C487 1.327 . S
C485 C491 1.429 . S
C486 C478 1.574 . S
C486 H481 0.949 . S
C486 C492 1.368 . S
C487 C471 1.349 . S
C487 H479 0.950 . S
C487 C485 1.327 . S
C488 C476 1.349 . S
C488 H482 0.950 . S
C488 C489 1.327 . S
C489 H483 0.950 . S
C489 C488 1.327 . S
C489 C493 1.429 . S
C490 C473 1.574 . S
C490 H484 0.949 . S
C490 C494 1.368 . S
C491 C472 1.429 . S
C491 C485 1.429 . S
C491 C492 1.523 . S
C492 C473 1.368 . S
C492 C486 1.368 . S
C492 C491 1.523 . S
C493 C477 1.429 . S
C493 C489 1.429 . S
C493 C494 1.523 . S
C494 C478 1.368 . S
C494 C490 1.368 . S
C494 C493 1.523 . S
H495 C470 0.950 . S
H496 C472 0.950 . S
H497 C473 0.949 . S
H498 C475 0.950 . S
H499 C477 0.950 . S
C500 C501 1.349 . S
C500 C502 1.327 . S
C500 H525 0.950 . S
C501 C500 1.349 . S
C501 C517 1.349 . S
C502 C500 1.327 . S
C502 C521 1.429 . S
C502 H526 0.950 . S
C503 C520 1.574 . S
C503 C522 1.368 . S
C503 H527 0.949 . S
H504 C508 0.949 . S
C505 C506 1.349 . S
C505 C507 1.327 . S
C505 H528 0.950 . S
C506 C505 1.349 . S
C506 C518 1.349 . S
C507 C505 1.327 . S
C507 C523 1.429 . S
C507 H529 0.950 . S
C508 H504 0.949 . S
C508 C516 1.574 . S
C508 C524 1.368 . S
H509 C517 0.950 . S
H510 C515 0.950 . S
H511 C516 0.949 . S
H512 C518 0.950 . S
H513 C519 0.950 . S
H514 C520 0.949 . S
C515 H510 0.950 . S
C515 C517 1.327 . S
C515 C521 1.429 . S
C516 C508 1.574 . S
C516 H511 0.949 . S
C516 C522 1.368 . S
C517 C501 1.349 . S
C517 H509 0.950 . S
C517 C515 1.327 . S
C518 C506 1.349 . S
C518 H512 0.950 . S
C518 C519 1.327 . S
C519 H513 0.950 . S
C519 C518 1.327 . S
C519 C523 1.429 . S
C520 C503 1.574 . S
C520 H514 0.949 . S
C520 C524 1.368 . S
C521 C502 1.429 . S
C521 C515 1.429 . S
C521 C522 1.523 . S
C522 C503 1.368 . S
C522 C516 1.368 . S
C522 C521 1.523 . S
C523 C507 1.429 . S
C523 C519 1.429 . S
C523 C524 1.523 . S
C524 C508 1.368 . S
C524 C520 1.368 . S
C524 C523 1.523 . S
H525 C500 0.950 . S
H526 C502 0.950 . S
H527 C503 0.949 . S
H528 C505 0.950 . S
H529 C507 0.950 . S
C530 C531 1.349 . S
C530 C532 1.327 . S
C530 H555 0.950 . S
C531 C530 1.349 . S
C531 C547 1.349 . S
C532 C530 1.327 . S
C532 C551 1.429 . S
C532 H556 0.950 . S
C533 C550 1.574 . S
C533 C552 1.368 . S
C533 H557 0.949 . S
H534 C538 0.949 . S
C535 C536 1.349 . S
C535 C537 1.327 . S
C535 H558 0.950 . S
C536 C535 1.349 . S
C536 C548 1.349 . S
C537 C535 1.327 . S
C537 C553 1.429 . S
C537 H559 0.950 . S
C538 H534 0.949 . S
C538 C546 1.574 . S
C538 C554 1.368 . S
H539 C547 0.950 . S
H540 C545 0.950 . S
H541 C546 0.949 . S
H542 C548 0.950 . S
H543 C549 0.950 . S
H544 C550 0.949 . S
C545 H540 0.950 . S
C545 C547 1.327 . S
C545 C551 1.429 . S
C546 C538 1.574 . S
C546 H541 0.949 . S
C546 C552 1.368 . S
C547 C531 1.349 . S
C547 H539 0.950 . S
C547 C545 1.327 . S
C548 C536 1.349 . S
C548 H542 0.950 . S
C548 C549 1.327 . S
C549 H543 0.950 . S
C549 C548 1.327 . S
C549 C553 1.429 . S
C550 C533 1.574 . S
C550 H544 0.949 . S
C550 C554 1.368 . S
C551 C532 1.429 . S
C551 C545 1.429 . S
C551 C552 1.523 . S
C552 C533 1.368 . S
C552 C546 1.368 . S
C552 C551 1.523 . S
C553 C537 1.429 . S
C553 C549 1.429 . S
C553 C554 1.523 . S
C554 C538 1.368 . S
C554 C550 1.368 . S
C554 C553 1.523 . S
H555 C530 0.950 . S
H556 C532 0.950 . S
H557 C533 0.949 . S
H558 C535 0.950 . S
H559 C537 0.950 . S
C560 C561 1.349 . S
C560 C562 1.327 . S
C560 H585 0.950 . S
C561 C560 1.349 . S
C561 C577 1.349 . S
C562 C560 1.327 . S
C562 C581 1.429 . S
C562 H586 0.950 . S
C563 C580 1.574 . S
C563 C582 1.368 1_556 S
C563 H587 0.949 . S
H564 C568 0.949 1_544 S
C565 C566 1.349 . S
C565 C567 1.327 . S
C565 H588 0.950 . S
C566 C565 1.349 . S
C566 C578 1.349 1_565 S
C567 C565 1.327 . S
C567 C583 1.429 . S
C567 H589 0.950 . S
C568 H564 0.949 1_566 S
C568 C576 1.574 1_556 S
C568 C584 1.368 . S
H569 C577 0.950 . S
H570 C575 0.950 . S
H571 C576 0.949 . S
H572 C578 0.950 . S
H573 C579 0.950 . S
H574 C580 0.949 . S
C575 H570 0.950 . S
C575 C577 1.327 . S
C575 C581 1.429 . S
C576 C568 1.574 1_554 S
C576 H571 0.949 . S
C576 C582 1.368 . S
C577 C561 1.349 . S
C577 H569 0.950 . S
C577 C575 1.327 . S
C578 C566 1.349 1_545 S
C578 H572 0.950 . S
C578 C579 1.327 . S
C579 H573 0.950 . S
C579 C578 1.327 . S
C579 C583 1.429 1_545 S
C580 C563 1.574 . S
C580 H574 0.949 . S
C580 C584 1.368 . S
C581 C562 1.429 . S
C581 C575 1.429 . S
C581 C582 1.523 . S
C582 C563 1.368 1_554 S
C582 C576 1.368 . S
C582 C581 1.523 . S
C583 C567 1.429 . S
C583 C579 1.429 1_565 S
C583 C584 1.523 . S
C584 C568 1.368 . S
C584 C580 1.368 . S
C584 C583 1.523 . S
H585 C560 0.950 . S
H586 C562 0.950 . S
H587 C563 0.949 . S
H588 C565 0.950 . S
H589 C567 0.950 . S
C590 C591 1.349 . S
C590 C592 1.327 . S
C590 H615 0.950 . S
C591 C590 1.349 . S
C591 C607 1.349 . S
C592 C590 1.327 . S
C592 C611 1.429 . S
C592 H616 0.950 . S
C593 C610 1.574 1_554 S
C593 C612 1.368 . S
C593 H617 0.949 . S
H594 C598 0.949 . S
C595 C596 1.349 . S
C595 C597 1.327 . S
C595 H618 0.950 . S
C596 C595 1.349 . S
C596 C608 1.349 . S
C597 C595 1.327 . S
C597 C613 1.429 . S
C597 H619 0.950 . S
C598 H594 0.949 . S
C598 C606 1.574 . S
C598 C614 1.368 . S
H599 C607 0.950 . S
H600 C605 0.950 . S
H601 C606 0.949 . S
H602 C608 0.950 . S
H603 C609 0.950 . S
H604 C610 0.949 1_554 S
C605 H600 0.950 . S
C605 C607 1.327 . S
C605 C611 1.429 . S
C606 C598 1.574 . S
C606 H601 0.949 . S
C606 C612 1.368 1_556 S
C607 C591 1.349 . S
C607 H599 0.950 . S
C607 C605 1.327 . S
C608 C596 1.349 . S
C608 H602 0.950 . S
C608 C609 1.327 . S
C609 H603 0.950 . S
C609 C608 1.327 . S
C609 C613 1.429 . S
C610 C593 1.574 1_556 S
C610 H604 0.949 1_556 S
C610 C614 1.368 . S
C611 C592 1.429 . S
C611 C605 1.429 . S
C611 C612 1.523 . S
C612 C593 1.368 . S
C612 C606 1.368 1_554 S
C612 C611 1.523 . S
C613 C597 1.429 . S
C613 C609 1.429 . S
C613 C614 1.523 . S
C614 C598 1.368 . S
C614 C610 1.368 . S
C614 C613 1.523 . S
H615 C590 0.950 . S
H616 C592 0.950 . S
H617 C593 0.949 . S
H618 C595 0.950 . S
H619 C597 0.950 . S
C620 C621 1.349 . S
C620 C622 1.327 . S
C620 H645 0.950 . S
C621 C620 1.349 . S
C621 C637 1.349 . S
C622 C620 1.327 . S
C622 C641 1.429 . S
C622 H646 0.950 . S
C623 C640 1.574 1_554 S
C623 C642 1.368 . S
C623 H647 0.949 . S
H624 C628 0.949 . S
C625 C626 1.349 . S
C625 C627 1.327 . S
C625 H648 0.950 . S
C626 C625 1.349 . S
C626 C638 1.349 . S
C627 C625 1.327 . S
C627 C643 1.429 . S
C627 H649 0.950 . S
C628 H624 0.949 . S
C628 C636 1.574 . S
C628 C644 1.368 . S
H629 C637 0.950 . S
H630 C635 0.950 . S
H631 C636 0.949 . S
H632 C638 0.950 . S
H633 C639 0.950 . S
H634 C640 0.949 . S
C635 H630 0.950 . S
C635 C637 1.327 . S
C635 C641 1.429 . S
C636 C628 1.574 . S
C636 H631 0.949 . S
C636 C642 1.368 1_556 S
C637 C621 1.349 . S
C637 H629 0.950 . S
C637 C635 1.327 . S
C638 C626 1.349 . S
C638 H632 0.950 . S
C638 C639 1.327 . S
C639 H633 0.950 . S
C639 C638 1.327 . S
C639 C643 1.429 . S
C640 C623 1.574 1_556 S
C640 H634 0.949 . S
C640 C644 1.368 . S
C641 C622 1.429 . S
C641 C635 1.429 . S
C641 C642 1.523 . S
C642 C623 1.368 . S
C642 C636 1.368 1_554 S
C642 C641 1.523 . S
C643 C627 1.429 . S
C643 C639 1.429 . S
C643 C644 1.523 . S
C644 C628 1.368 . S
C644 C640 1.368 . S
C644 C643 1.523 . S
H645 C620 0.950 . S
H646 C622 0.950 . S
H647 C623 0.949 . S
H648 C625 0.950 . S
H649 C627 0.950 . S
C650 C651 1.349 . S
C650 C652 1.327 . S
C650 H675 0.950 . S
C651 C650 1.349 . S
C651 C667 1.349 . S
C652 C650 1.327 . S
C652 C671 1.429 . S
C652 H676 0.950 . S
C653 C670 1.574 . S
C653 C672 1.368 1_556 S
C653 H677 0.949 . S
H654 C658 0.949 1_554 S
C655 C656 1.349 . S
C655 C657 1.327 . S
C655 H678 0.950 . S
C656 C655 1.349 . S
C656 C668 1.349 . S
C657 C655 1.327 . S
C657 C673 1.429 . S
C657 H679 0.950 . S
C658 H654 0.949 1_556 S
C658 C666 1.574 1_556 S
C658 C674 1.368 . S
H659 C667 0.950 . S
H660 C665 0.950 . S
H661 C666 0.949 . S
H662 C668 0.950 . S
H663 C669 0.950 . S
H664 C670 0.949 . S
C665 H660 0.950 . S
C665 C667 1.327 . S
C665 C671 1.429 . S
C666 C658 1.574 1_554 S
C666 H661 0.949 . S
C666 C672 1.368 . S
C667 C651 1.349 . S
C667 H659 0.950 . S
C667 C665 1.327 . S
C668 C656 1.349 . S
C668 H662 0.950 . S
C668 C669 1.327 . S
C669 H663 0.950 . S
C669 C668 1.327 . S
C669 C673 1.429 . S
C670 C653 1.574 . S
C670 H664 0.949 . S
C670 C674 1.368 . S
C671 C652 1.429 . S
C671 C665 1.429 . S
C671 C672 1.523 . S
C672 C653 1.368 1_554 S
C672 C666 1.368 . S
C672 C671 1.523 . S
C673 C657 1.429 . S
C673 C669 1.429 . S
C673 C674 1.523 . S
C674 C658 1.368 . S
C674 C670 1.368 . S
C674 C673 1.523 . S
H675 C650 0.950 . S
H676 C652 0.950 . S
H677 C653 0.949 . S
H678 C655 0.950 . S
H679 C657 0.950 . S
C680 C681 1.349 . S
C680 C682 1.327 . S
C680 H705 0.950 . S
C681 C680 1.349 . S
C681 C697 1.349 . S
C682 C680 1.327 . S
C682 C701 1.429 . S
C682 H706 0.950 . S
C683 C700 1.574 . S
C683 C702 1.368 . S
C683 H707 0.949 . S
H684 C688 0.949 . S
C685 C686 1.349 1_655 S
C685 C687 1.327 1_655 S
C685 H708 0.950 . S
C686 C685 1.349 1_455 S
C686 C698 1.349 . S
C687 C685 1.327 1_455 S
C687 C703 1.429 . S
C687 H709 0.950 1_455 S
C688 H684 0.949 . S
C688 C696 1.574 . S
C688 C704 1.368 . S
H689 C697 0.950 . S
H690 C695 0.950 . S
H691 C696 0.949 . S
H692 C698 0.950 . S
H693 C699 0.950 . S
H694 C700 0.949 . S
C695 H690 0.950 . S
C695 C697 1.327 . S
C695 C701 1.429 . S
C696 C688 1.574 . S
C696 H691 0.949 . S
C696 C702 1.368 . S
C697 C681 1.349 . S
C697 H689 0.950 . S
C697 C695 1.327 . S
C698 C686 1.349 . S
C698 H692 0.950 . S
C698 C699 1.327 . S
C699 H693 0.950 . S
C699 C698 1.327 . S
C699 C703 1.429 . S
C700 C683 1.574 . S
C700 H694 0.949 . S
C700 C704 1.368 . S
C701 C682 1.429 . S
C701 C695 1.429 . S
C701 C702 1.523 . S
C702 C683 1.368 . S
C702 C696 1.368 . S
C702 C701 1.523 . S
C703 C687 1.429 . S
C703 C699 1.429 . S
C703 C704 1.523 . S
C704 C688 1.368 . S
C704 C700 1.368 . S
C704 C703 1.523 . S
H705 C680 0.950 . S
H706 C682 0.950 . S
H707 C683 0.949 . S
H708 C685 0.950 . S
H709 C687 0.950 1_655 S
C710 C711 1.349 . S
C710 C712 1.327 . S
C710 H735 0.950 . S
C711 C710 1.349 . S
C711 C727 1.349 . S
C712 C710 1.327 . S
C712 C731 1.429 . S
C712 H736 0.950 . S
C713 C730 1.574 . S
C713 C732 1.368 . S
C713 H737 0.949 . S
H714 C718 0.949 . S
C715 C716 1.349 . S
C715 C717 1.327 . S
C715 H738 0.950 . S
C716 C715 1.349 . S
C716 C728 1.349 . S
C717 C715 1.327 . S
C717 C733 1.429 . S
C717 H739 0.950 . S
C718 H714 0.949 . S
C718 C726 1.574 . S
C718 C734 1.368 . S
H719 C727 0.950 1_556 S
H720 C725 0.950 . S
H721 C726 0.949 . S
H722 C728 0.950 1_565 S
H723 C729 0.950 . S
H724 C730 0.949 . S
C725 H720 0.950 . S
C725 C727 1.327 . S
C725 C731 1.429 . S
C726 C718 1.574 . S
C726 H721 0.949 . S
C726 C732 1.368 . S
C727 C711 1.349 . S
C727 H719 0.950 1_554 S
C727 C725 1.327 . S
C728 C716 1.349 . S
C728 H722 0.950 1_545 S
C728 C729 1.327 . S
C729 H723 0.950 . S
C729 C728 1.327 . S
C729 C733 1.429 . S
C730 C713 1.574 . S
C730 H724 0.949 . S
C730 C734 1.368 . S
C731 C712 1.429 . S
C731 C725 1.429 . S
C731 C732 1.523 . S
C732 C713 1.368 . S
C732 C726 1.368 . S
C732 C731 1.523 . S
C733 C717 1.429 . S
C733 C729 1.429 . S
C733 C734 1.523 . S
C734 C718 1.368 . S
C734 C730 1.368 . S
C734 C733 1.523 . S
H735 C710 0.950 . S
H736 C712 0.950 . S
H737 C713 0.949 . S
H738 C715 0.950 . S
H739 C717 0.950 . S
C740 C741 1.349 . S
C740 C742 1.327 . S
C740 H765 0.950 1_554 S
C741 C740 1.349 . S
C741 C757 1.349 . S
C742 C740 1.327 . S
C742 C761 1.429 . S
C742 H766 0.950 . S
C743 C760 1.574 . S
C743 C762 1.368 . S
C743 H767 0.949 . S
H744 C748 0.949 . S
C745 C746 1.349 . S
C745 C747 1.327 . S
C745 H768 0.950 . S
C746 C745 1.349 . S
C746 C758 1.349 . S
C747 C745 1.327 . S
C747 C763 1.429 . S
C747 H769 0.950 . S
C748 H744 0.949 . S
C748 C756 1.574 . S
C748 C764 1.368 . S
H749 C757 0.950 . S
H750 C755 0.950 . S
H751 C756 0.949 . S
H752 C758 0.950 . S
H753 C759 0.950 . S
H754 C760 0.949 . S
C755 H750 0.950 . S
C755 C757 1.327 . S
C755 C761 1.429 . S
C756 C748 1.574 . S
C756 H751 0.949 . S
C756 C762 1.368 . S
C757 C741 1.349 . S
C757 H749 0.950 . S
C757 C755 1.327 . S
C758 C746 1.349 . S
C758 H752 0.950 . S
C758 C759 1.327 . S
C759 H753 0.950 . S
C759 C758 1.327 . S
C759 C763 1.429 . S
C760 C743 1.574 . S
C760 H754 0.949 . S
C760 C764 1.368 . S
C761 C742 1.429 . S
C761 C755 1.429 . S
C761 C762 1.523 . S
C762 C743 1.368 . S
C762 C756 1.368 . S
C762 C761 1.523 . S
C763 C747 1.429 . S
C763 C759 1.429 . S
C763 C764 1.523 . S
C764 C748 1.368 . S
C764 C760 1.368 . S
C764 C763 1.523 . S
H765 C740 0.950 1_556 S
H766 C742 0.950 . S
H767 C743 0.949 . S
H768 C745 0.950 . S
H769 C747 0.950 . S
C770 C771 1.349 . S
C770 C772 1.327 . S
C770 H795 0.950 1_554 S
C771 C770 1.349 . S
C771 C787 1.349 . S
C772 C770 1.327 . S
C772 C791 1.429 . S
C772 H796 0.950 . S
C773 C790 1.574 . S
C773 C792 1.368 . S
C773 H797 0.949 . S
H774 C778 0.949 . S
C775 C776 1.349 . S
C775 C777 1.327 . S
C775 H798 0.950 . S
C776 C775 1.349 . S
C776 C788 1.349 . S
C777 C775 1.327 . S
C777 C793 1.429 . S
C777 H799 0.950 . S
C778 H774 0.949 . S
C778 C786 1.574 . S
C778 C794 1.368 . S
H779 C787 0.950 . S
H780 C785 0.950 . S
H781 C786 0.949 . S
H782 C788 0.950 . S
H783 C789 0.950 . S
H784 C790 0.949 . S
C785 H780 0.950 . S
C785 C787 1.327 . S
C785 C791 1.429 . S
C786 C778 1.574 . S
C786 H781 0.949 . S
C786 C792 1.368 . S
C787 C771 1.349 . S
C787 H779 0.950 . S
C787 C785 1.327 . S
C788 C776 1.349 . S
C788 H782 0.950 . S
C788 C789 1.327 . S
C789 H783 0.950 . S
C789 C788 1.327 . S
C789 C793 1.429 . S
C790 C773 1.574 . S
C790 H784 0.949 . S
C790 C794 1.368 . S
C791 C772 1.429 . S
C791 C785 1.429 . S
C791 C792 1.523 . S
C792 C773 1.368 . S
C792 C786 1.368 . S
C792 C791 1.523 . S
C793 C777 1.429 . S
C793 C789 1.429 . S
C793 C794 1.523 . S
C794 C778 1.368 . S
C794 C790 1.368 . S
C794 C793 1.523 . S
H795 C770 0.950 1_556 S
H796 C772 0.950 . S
H797 C773 0.949 . S
H798 C775 0.950 . S
H799 C777 0.950 . S
C800 C801 1.349 . S
C800 C802 1.327 . S
C800 H825 0.950 . S
C801 C800 1.349 . S
C801 C817 1.349 . S
C802 C800 1.327 . S
C802 C821 1.429 . S
C802 H826 0.950 . S
C803 C820 1.574 1_554 S
C803 C822 1.368 . S
C803 H827 0.949 . S
H804 C808 0.949 1_455 S
C805 C806 1.349 1_655 S
C805 C807 1.327 . S
C805 H828 0.950 . S
C806 C805 1.349 1_455 S
C806 C818 1.349 . S
C807 C805 1.327 . S
C807 C823 1.429 . S
C807 H829 0.950 . S
C808 H804 0.949 1_655 S
C808 C816 1.574 . S
C808 C824 1.368 . S
H809 C817 0.950 . S
H810 C815 0.950 . S
H811 C816 0.949 . S
H812 C818 0.950 . S
H813 C819 0.950 . S
H814 C820 0.949 . S
C815 H810 0.950 . S
C815 C817 1.327 . S
C815 C821 1.429 . S
C816 C808 1.574 . S
C816 H811 0.949 . S
C816 C822 1.368 . S
C817 C801 1.349 . S
C817 H809 0.950 . S
C817 C815 1.327 . S
C818 C806 1.349 . S
C818 H812 0.950 . S
C818 C819 1.327 1_556 S
C819 H813 0.950 . S
C819 C818 1.327 1_554 S
C819 C823 1.429 1_454 S
C820 C803 1.574 1_556 S
C820 H814 0.949 . S
C820 C824 1.368 1_556 S
C821 C802 1.429 . S
C821 C815 1.429 . S
C821 C822 1.523 . S
C822 C803 1.368 . S
C822 C816 1.368 . S
C822 C821 1.523 . S
C823 C807 1.429 . S
C823 C819 1.429 1_656 S
C823 C824 1.523 1_556 S
C824 C808 1.368 . S
C824 C820 1.368 1_554 S
C824 C823 1.523 1_554 S
H825 C800 0.950 . S
H826 C802 0.950 . S
H827 C803 0.949 . S
H828 C805 0.950 . S
H829 C807 0.950 . S
C830 C831 1.349 . S
C830 C832 1.327 . S
C830 H855 0.950 . S
C831 C830 1.349 . S
C831 C847 1.349 . S
C832 C830 1.327 . S
C832 C851 1.429 . S
C832 H856 0.950 . S
C833 C850 1.574 1_565 S
C833 C852 1.368 . S
C833 H857 0.949 1_565 S
H834 C838 0.949 1_556 S
C835 C836 1.349 . S
C835 C837 1.327 . S
C835 H858 0.950 . S
C836 C835 1.349 . S
C836 C848 1.349 1_545 S
C837 C835 1.327 . S
C837 C853 1.429 1_545 S
C837 H859 0.950 1_556 S
C838 H834 0.949 1_554 S
C838 C846 1.574 . S
C838 C854 1.368 . S
H839 C847 0.950 . S
H840 C845 0.950 . S
H841 C846 0.949 . S
H842 C848 0.950 . S
H843 C849 0.950 . S
H844 C850 0.949 . S
C845 H840 0.950 . S
C845 C847 1.327 . S
C845 C851 1.429 . S
C846 C838 1.574 . S
C846 H841 0.949 . S
C846 C852 1.368 . S
C847 C831 1.349 . S
C847 H839 0.950 . S
C847 C845 1.327 . S
C848 C836 1.349 1_565 S
C848 H842 0.950 . S
C848 C849 1.327 . S
C849 H843 0.950 . S
C849 C848 1.327 . S
C849 C853 1.429 . S
C850 C833 1.574 1_545 S
C850 H844 0.949 . S
C850 C854 1.368 1_545 S
C851 C832 1.429 . S
C851 C845 1.429 . S
C851 C852 1.523 . S
C852 C833 1.368 . S
C852 C846 1.368 . S
C852 C851 1.523 . S
C853 C837 1.429 1_565 S
C853 C849 1.429 . S
C853 C854 1.523 1_556 S
C854 C838 1.368 . S
C854 C850 1.368 1_565 S
C854 C853 1.523 1_554 S
H855 C830 0.950 . S
H856 C832 0.950 . S
H857 C833 0.949 1_545 S
H858 C835 0.950 . S
H859 C837 0.950 1_554 S
C860 C861 1.349 . S
C860 C862 1.327 . S
C860 H885 0.950 . S
C861 C860 1.349 . S
C861 C877 1.349 . S
C862 C860 1.327 . S
C862 C881 1.429 . S
C862 H886 0.950 . S
C863 C880 1.574 1_554 S
C863 C882 1.368 . S
C863 H887 0.949 . S
H864 C868 0.949 . S
C865 C866 1.349 . S
C865 C867 1.327 . S
C865 H888 0.950 . S
C866 C865 1.349 . S
C866 C878 1.349 . S
C867 C865 1.327 . S
C867 C883 1.429 . S
C867 H889 0.950 . S
C868 H864 0.949 . S
C868 C876 1.574 . S
C868 C884 1.368 . S
H869 C877 0.950 . S
H870 C875 0.950 . S
H871 C876 0.949 . S
H872 C878 0.950 1_554 S
H873 C879 0.950 . S
H874 C880 0.949 . S
C875 H870 0.950 . S
C875 C877 1.327 . S
C875 C881 1.429 . S
C876 C868 1.574 . S
C876 H871 0.949 . S
C876 C882 1.368 . S
C877 C861 1.349 . S
C877 H869 0.950 . S
C877 C875 1.327 . S
C878 C866 1.349 . S
C878 H872 0.950 1_556 S
C878 C879 1.327 1_556 S
C879 H873 0.950 . S
C879 C878 1.327 1_554 S
C879 C883 1.429 1_554 S
C880 C863 1.574 1_556 S
C880 H874 0.949 . S
C880 C884 1.368 1_556 S
C881 C862 1.429 . S
C881 C875 1.429 . S
C881 C882 1.523 . S
C882 C863 1.368 . S
C882 C876 1.368 . S
C882 C881 1.523 . S
C883 C867 1.429 . S
C883 C879 1.429 1_556 S
C883 C884 1.523 1_556 S
C884 C868 1.368 . S
C884 C880 1.368 1_554 S
C884 C883 1.523 1_554 S
H885 C860 0.950 . S
H886 C862 0.950 . S
H887 C863 0.949 . S
H888 C865 0.950 . S
H889 C867 0.950 . S
C890 C891 1.349 . S
C890 C892 1.327 . S
C890 H915 0.950 . S
C891 C890 1.349 . S
C891 C907 1.349 . S
C892 C890 1.327 . S
C892 C911 1.429 . S
C892 H916 0.950 . S
C893 C910 1.574 . S
C893 C912 1.368 . S
C893 H917 0.949 . S
H894 C898 0.949 . S
C895 C896 1.349 . S
C895 C897 1.327 . S
C895 H918 0.950 . S
C896 C895 1.349 . S
C896 C908 1.349 . S
C897 C895 1.327 . S
C897 C913 1.429 . S
C897 H919 0.950 . S
C898 H894 0.949 . S
C898 C906 1.574 . S
C898 C914 1.368 . S
H899 C907 0.950 . S
H900 C905 0.950 . S
H901 C906 0.949 . S
H902 C908 0.950 . S
H903 C909 0.950 . S
H904 C910 0.949 . S
C905 H900 0.950 . S
C905 C907 1.327 . S
C905 C911 1.429 . S
C906 C898 1.574 . S
C906 H901 0.949 . S
C906 C912 1.368 . S
C907 C891 1.349 . S
C907 H899 0.950 . S
C907 C905 1.327 . S
C908 C896 1.349 . S
C908 H902 0.950 . S
C908 C909 1.327 . S
C909 H903 0.950 . S
C909 C908 1.327 . S
C909 C913 1.429 . S
C910 C893 1.574 . S
C910 H904 0.949 . S
C910 C914 1.368 . S
C911 C892 1.429 . S
C911 C905 1.429 . S
C911 C912 1.523 . S
C912 C893 1.368 . S
C912 C906 1.368 . S
C912 C911 1.523 . S
C913 C897 1.429 . S
C913 C909 1.429 . S
C913 C914 1.523 1_556 S
C914 C898 1.368 . S
C914 C910 1.368 . S
C914 C913 1.523 1_554 S
H915 C890 0.950 . S
H916 C892 0.950 . S
H917 C893 0.949 . S
H918 C895 0.950 . S
H919 C897 0.950 . S
C920 C921 1.349 . S
C920 C922 1.327 . S
C920 H945 0.950 1_556 S
C921 C920 1.349 . S
C921 C937 1.349 . S
C922 C920 1.327 . S
C922 C941 1.429 . S
C922 H946 0.950 . S
C923 C940 1.574 . S
C923 C942 1.368 . S
C923 H947 0.949 . S
H924 C928 0.949 . S
C925 C926 1.349 . S
C925 C927 1.327 . S
C925 H948 0.950 . S
C926 C925 1.349 . S
C926 C938 1.349 . S
C927 C925 1.327 . S
C927 C943 1.429 . S
C927 H949 0.950 . S
C928 H924 0.949 . S
C928 C936 1.574 . S
C928 C944 1.368 . S
H929 C937 0.950 . S
H930 C935 0.950 . S
H931 C936 0.949 . S
H932 C938 0.950 . S
H933 C939 0.950 . S
H934 C940 0.949 . S
C935 H930 0.950 . S
C935 C937 1.327 . S
C935 C941 1.429 . S
C936 C928 1.574 . S
C936 H931 0.949 . S
C936 C942 1.368 . S
C937 C921 1.349 . S
C937 H929 0.950 . S
C937 C935 1.327 . S
C938 C926 1.349 . S
C938 H932 0.950 . S
C938 C939 1.327 . S
C939 H933 0.950 . S
C939 C938 1.327 . S
C939 C943 1.429 . S
C940 C923 1.574 . S
C940 H934 0.949 . S
C940 C944 1.368 . S
C941 C922 1.429 . S
C941 C935 1.429 . S
C941 C942 1.523 . S
C942 C923 1.368 . S
C942 C936 1.368 . S
C942 C941 1.523 . S
C943 C927 1.429 . S
C943 C939 1.429 . S
C943 C944 1.523 . S
C944 C928 1.368 . S
C944 C940 1.368 . S
C944 C943 1.523 . S
H945 C920 0.950 1_554 S
H946 C922 0.950 . S
H947 C923 0.949 . S
H948 C925 0.950 . S
H949 C927 0.950 . S
C950 C951 1.349 . S
C950 C952 1.327 . S
C950 H975 0.950 . S
C951 C950 1.349 . S
C951 C967 1.349 . S
C952 C950 1.327 . S
C952 C971 1.429 . S
C952 H976 0.950 . S
C953 C970 1.574 . S
C953 C972 1.368 . S
C953 H977 0.949 . S
H954 C958 0.949 . S
C955 C956 1.349 . S
C955 C957 1.327 . S
C955 H978 0.950 1_545 S
C956 C955 1.349 . S
C956 C968 1.349 . S
C957 C955 1.327 . S
C957 C973 1.429 . S
C957 H979 0.950 . S
C958 H954 0.949 . S
C958 C966 1.574 . S
C958 C974 1.368 . S
H959 C967 0.950 . S
H960 C965 0.950 . S
H961 C966 0.949 . S
H962 C968 0.950 . S
H963 C969 0.950 . S
H964 C970 0.949 . S
C965 H960 0.950 . S
C965 C967 1.327 . S
C965 C971 1.429 . S
C966 C958 1.574 . S
C966 H961 0.949 . S
C966 C972 1.368 . S
C967 C951 1.349 . S
C967 H959 0.950 . S
C967 C965 1.327 . S
C968 C956 1.349 . S
C968 H962 0.950 . S
C968 C969 1.327 . S
C969 H963 0.950 . S
C969 C968 1.327 . S
C969 C973 1.429 . S
C970 C953 1.574 . S
C970 H964 0.949 . S
C970 C974 1.368 . S
C971 C952 1.429 . S
C971 C965 1.429 . S
C971 C972 1.523 . S
C972 C953 1.368 . S
C972 C966 1.368 . S
C972 C971 1.523 . S
C973 C957 1.429 . S
C973 C969 1.429 . S
C973 C974 1.523 . S
C974 C958 1.368 . S
C974 C970 1.368 . S
C974 C973 1.523 . S
H975 C950 0.950 . S
H976 C952 0.950 . S
H977 C953 0.949 . S
H978 C955 0.950 1_565 S
H979 C957 0.950 . S
C980 C981 1.349 . S
C980 C982 1.327 . S
C980 H1005 0.950 1_556 S
C981 C980 1.349 . S
C981 C997 1.349 . S
C982 C980 1.327 . S
C982 C1001 1.429 . S
C982 H1006 0.950 . S
C983 C1000 1.574 . S
C983 C1002 1.368 . S
C983 H1007 0.949 . S
H984 C988 0.949 . S
C985 C986 1.349 . S
C985 C987 1.327 . S
C985 H1008 0.950 . S
C986 C985 1.349 . S
C986 C998 1.349 . S
C987 C985 1.327 . S
C987 C1003 1.429 . S
C987 H1009 0.950 . S
C988 H984 0.949 . S
C988 C996 1.574 . S
C988 C1004 1.368 . S
H989 C997 0.950 . S
H990 C995 0.950 . S
H991 C996 0.949 . S
H992 C998 0.950 . S
H993 C999 0.950 . S
H994 C1000 0.949 . S
C995 H990 0.950 . S
C995 C997 1.327 . S
C995 C1001 1.429 . S
C996 C988 1.574 . S
C996 H991 0.949 . S
C996 C1002 1.368 . S
C997 C981 1.349 . S
C997 H989 0.950 . S
C997 C995 1.327 . S
C998 C986 1.349 . S
C998 H992 0.950 . S
C998 C999 1.327 . S
C999 H993 0.950 . S
C999 C998 1.327 . S
C999 C1003 1.429 . S
C1000 C983 1.574 . S
C1000 H994 0.949 . S
C1000 C1004 1.368 . S
C1001 C982 1.429 . S
C1001 C995 1.429 . S
C1001 C1002 1.523 . S
C1002 C983 1.368 . S
C1002 C996 1.368 . S
C1002 C1001 1.523 . S
C1003 C987 1.429 . S
C1003 C999 1.429 . S
C1003 C1004 1.523 . S
C1004 C988 1.368 . S
C1004 C1000 1.368 . S
C1004 C1003 1.523 . S
H1005 C980 0.950 1_554 S
H1006 C982 0.950 . S
H1007 C983 0.949 . S
H1008 C985 0.950 . S
H1009 C987 0.950 . S
C1010 C1011 1.349 . S
C1010 C1012 1.327 . S
C1010 H1035 0.950 . S
C1011 C1010 1.349 . S
C1011 C1027 1.349 . S
C1012 C1010 1.327 . S
C1012 C1031 1.429 . S
C1012 H1036 0.950 . S
C1013 C1030 1.574 . S
C1013 C1032 1.368 . S
C1013 H1037 0.949 . S
H1014 C1018 0.949 . S
C1015 C1016 1.349 . S
C1015 C1017 1.327 . S
C1015 H1038 0.950 . S
C1016 C1015 1.349 . S
C1016 C1028 1.349 . S
C1017 C1015 1.327 . S
C1017 C1033 1.429 . S
C1017 H1039 0.950 . S
C1018 H1014 0.949 . S
C1018 C1026 1.574 . S
C1018 C1034 1.368 . S
H1019 C1027 0.950 . S
H1020 C1025 0.950 . S
H1021 C1026 0.949 . S
H1022 C1028 0.950 . S
H1023 C1029 0.950 . S
H1024 C1030 0.949 . S
C1025 H1020 0.950 . S
C1025 C1027 1.327 . S
C1025 C1031 1.429 . S
C1026 C1018 1.574 . S
C1026 H1021 0.949 . S
C1026 C1032 1.368 . S
C1027 C1011 1.349 . S
C1027 H1019 0.950 . S
C1027 C1025 1.327 . S
C1028 C1016 1.349 . S
C1028 H1022 0.950 . S
C1028 C1029 1.327 . S
C1029 H1023 0.950 . S
C1029 C1028 1.327 . S
C1029 C1033 1.429 . S
C1030 C1013 1.574 . S
C1030 H1024 0.949 . S
C1030 C1034 1.368 . S
C1031 C1012 1.429 . S
C1031 C1025 1.429 . S
C1031 C1032 1.523 . S
C1032 C1013 1.368 . S
C1032 C1026 1.368 . S
C1032 C1031 1.523 . S
C1033 C1017 1.429 . S
C1033 C1029 1.429 . S
C1033 C1034 1.523 . S
C1034 C1018 1.368 . S
C1034 C1030 1.368 . S
C1034 C1033 1.523 . S
H1035 C1010 0.950 . S
H1036 C1012 0.950 . S
H1037 C1013 0.949 . S
H1038 C1015 0.950 . S
H1039 C1017 0.950 . S
C1040 C1041 1.349 . S
C1040 C1042 1.327 . S
C1040 H1065 0.950 . S
C1041 C1040 1.349 . S
C1041 C1057 1.349 . S
C1042 C1040 1.327 . S
C1042 C1061 1.429 . S
C1042 H1066 0.950 . S
C1043 C1060 1.574 . S
C1043 C1062 1.368 . S
C1043 H1067 0.949 . S
H1044 C1048 0.949 . S
C1045 C1046 1.349 . S
C1045 C1047 1.327 . S
C1045 H1068 0.950 . S
C1046 C1045 1.349 . S
C1046 C1058 1.349 . S
C1047 C1045 1.327 . S
C1047 C1063 1.429 . S
C1047 H1069 0.950 . S
C1048 H1044 0.949 . S
C1048 C1056 1.574 . S
C1048 C1064 1.368 . S
H1049 C1057 0.950 . S
H1050 C1055 0.950 . S
H1051 C1056 0.949 . S
H1052 C1058 0.950 . S
H1053 C1059 0.950 . S
H1054 C1060 0.949 . S
C1055 H1050 0.950 . S
C1055 C1057 1.327 . S
C1055 C1061 1.429 . S
C1056 C1048 1.574 . S
C1056 H1051 0.949 . S
C1056 C1062 1.368 . S
C1057 C1041 1.349 . S
C1057 H1049 0.950 . S
C1057 C1055 1.327 . S
C1058 C1046 1.349 . S
C1058 H1052 0.950 . S
C1058 C1059 1.327 . S
C1059 H1053 0.950 . S
C1059 C1058 1.327 . S
C1059 C1063 1.429 . S
C1060 C1043 1.574 . S
C1060 H1054 0.949 . S
C1060 C1064 1.368 . S
C1061 C1042 1.429 . S
C1061 C1055 1.429 . S
C1061 C1062 1.523 . S
C1062 C1043 1.368 . S
C1062 C1056 1.368 . S
C1062 C1061 1.523 . S
C1063 C1047 1.429 . S
C1063 C1059 1.429 . S
C1063 C1064 1.523 . S
C1064 C1048 1.368 . S
C1064 C1060 1.368 . S
C1064 C1063 1.523 . S
H1065 C1040 0.950 . S
H1066 C1042 0.950 . S
H1067 C1043 0.949 . S
H1068 C1045 0.950 . S
H1069 C1047 0.950 . S
C1070 C1071 1.349 . S
C1070 C1072 1.327 . S
C1070 H1095 0.950 . S
C1071 C1070 1.349 . S
C1071 C1087 1.349 . S
C1072 C1070 1.327 . S
C1072 C1091 1.429 . S
C1072 H1096 0.950 . S
C1073 C1090 1.574 . S
C1073 C1092 1.368 . S
C1073 H1097 0.949 . S
H1074 C1078 0.949 . S
C1075 C1076 1.349 . S
C1075 C1077 1.327 . S
C1075 H1098 0.954 . S
C1076 C1075 1.349 . S
C1076 C1088 1.349 . S
C1077 C1075 1.327 . S
C1077 C1093 1.429 . S
C1077 H1099 0.950 . S
C1078 H1074 0.949 . S
C1078 C1086 1.574 . S
C1078 C1094 1.368 . S
H1079 C1087 0.950 . S
H1080 C1085 0.950 . S
H1081 C1086 0.949 . S
H1082 C1088 0.950 . S
H1083 C1089 0.950 . S
H1084 C1090 0.949 . S
C1085 H1080 0.950 . S
C1085 C1087 1.327 . S
C1085 C1091 1.429 . S
C1086 C1078 1.574 . S
C1086 H1081 0.949 . S
C1086 C1092 1.368 . S
C1087 C1071 1.349 . S
C1087 H1079 0.950 . S
C1087 C1085 1.327 . S
C1088 C1076 1.349 . S
C1088 H1082 0.950 . S
C1088 C1089 1.327 . S
C1089 H1083 0.950 . S
C1089 C1088 1.327 . S
C1089 C1093 1.429 . S
C1090 C1073 1.574 . S
C1090 H1084 0.949 . S
C1090 C1094 1.368 . S
C1091 C1072 1.429 . S
C1091 C1085 1.429 . S
C1091 C1092 1.523 . S
C1092 C1073 1.368 . S
C1092 C1086 1.368 . S
C1092 C1091 1.523 . S
C1093 C1077 1.429 . S
C1093 C1089 1.429 . S
C1093 C1094 1.523 . S
C1094 C1078 1.368 . S
C1094 C1090 1.368 . S
C1094 C1093 1.523 . S
H1095 C1070 0.950 . S
H1096 C1072 0.950 . S
H1097 C1073 0.949 . S
H1098 C1075 0.954 . S
H1099 C1077 0.950 . S
C1100 C1101 1.349 . S
C1100 C1102 1.327 . S
C1100 H1125 0.950 . S
C1101 C1100 1.349 . S
C1101 C1117 1.349 . S
C1102 C1100 1.327 . S
C1102 C1121 1.429 . S
C1102 H1126 0.950 . S
C1103 C1120 1.574 . S
C1103 C1122 1.368 . S
C1103 H1127 0.949 . S
H1104 C1108 0.949 . S
C1105 C1106 1.349 . S
C1105 C1107 1.327 . S
C1105 H1128 0.950 . S
C1106 C1105 1.349 . S
C1106 C1118 1.349 . S
C1107 C1105 1.327 . S
C1107 C1123 1.429 . S
C1107 H1129 0.950 . S
C1108 H1104 0.949 . S
C1108 C1116 1.574 . S
C1108 C1124 1.368 . S
H1109 C1117 0.950 . S
H1110 C1115 0.950 . S
H1111 C1116 0.949 . S
H1112 C1118 0.950 . S
H1113 C1119 0.950 . S
H1114 C1120 0.949 . S
C1115 H1110 0.950 . S
C1115 C1117 1.327 . S
C1115 C1121 1.429 . S
C1116 C1108 1.574 . S
C1116 H1111 0.949 . S
C1116 C1122 1.368 . S
C1117 C1101 1.349 . S
C1117 H1109 0.950 . S
C1117 C1115 1.327 . S
C1118 C1106 1.349 . S
C1118 H1112 0.950 . S
C1118 C1119 1.327 . S
C1119 H1113 0.950 . S
C1119 C1118 1.327 . S
C1119 C1123 1.429 . S
C1120 C1103 1.574 . S
C1120 H1114 0.949 . S
C1120 C1124 1.368 . S
C1121 C1102 1.429 . S
C1121 C1115 1.429 . S
C1121 C1122 1.523 . S
C1122 C1103 1.368 . S
C1122 C1116 1.368 . S
C1122 C1121 1.523 . S
C1123 C1107 1.429 . S
C1123 C1119 1.429 . S
C1123 C1124 1.523 . S
C1124 C1108 1.368 . S
C1124 C1120 1.368 . S
C1124 C1123 1.523 . S
H1125 C1100 0.950 . S
H1126 C1102 0.950 . S
H1127 C1103 0.949 . S
H1128 C1105 0.950 . S
H1129 C1107 0.950 . S
C1130 C1131 1.349 . S
C1130 C1132 1.327 . S
C1130 H1155 0.950 . S
C1131 C1130 1.349 . S
C1131 C1147 1.349 . S
C1132 C1130 1.327 . S
C1132 C1151 1.429 . S
C1132 H1156 0.950 . S
C1133 C1150 1.574 . S
C1133 C1152 1.368 . S
C1133 H1157 0.949 . S
H1134 C1138 0.949 . S
C1135 C1136 1.349 . S
C1135 C1137 1.327 . S
C1135 H1158 0.950 . S
C1136 C1135 1.349 . S
C1136 C1148 1.349 . S
C1137 C1135 1.327 . S
C1137 C1153 1.429 . S
C1137 H1159 0.950 . S
C1138 H1134 0.949 . S
C1138 C1146 1.574 . S
C1138 C1154 1.368 . S
H1139 C1147 0.950 . S
H1140 C1145 0.950 . S
H1141 C1146 0.949 . S
H1142 C1148 0.950 . S
H1143 C1149 0.950 . S
H1144 C1150 0.949 . S
C1145 H1140 0.950 . S
C1145 C1147 1.327 . S
C1145 C1151 1.429 . S
C1146 C1138 1.574 . S
C1146 H1141 0.949 . S
C1146 C1152 1.368 . S
C1147 C1131 1.349 . S
C1147 H1139 0.950 . S
C1147 C1145 1.327 . S
C1148 C1136 1.349 . S
C1148 H1142 0.950 . S
C1148 C1149 1.327 . S
C1149 H1143 0.950 . S
C1149 C1148 1.327 . S
C1149 C1153 1.429 . S
C1150 C1133 1.574 . S
C1150 H1144 0.949 . S
C1150 C1154 1.368 . S
C1151 C1132 1.429 . S
C1151 C1145 1.429 . S
C1151 C1152 1.523 . S
C1152 C1133 1.368 . S
C1152 C1146 1.368 . S
C1152 C1151 1.523 . S
C1153 C1137 1.429 . S
C1153 C1149 1.429 . S
C1153 C1154 1.523 . S
C1154 C1138 1.368 . S
C1154 C1150 1.368 . S
C1154 C1153 1.523 . S
H1155 C1130 0.950 . S
H1156 C1132 0.950 . S
H1157 C1133 0.949 . S
H1158 C1135 0.950 . S
H1159 C1137 0.950 . S
C441 N80 1.844 . S
C446 C178 1.852 . S
C476 C262 1.879 . S
C471 N93 1.870 . S
C506 C328 1.909 . S
C501 N54 1.983 . S
C536 C412 1.885 . S
C531 N67 1.959 . S
C566 C167 1.852 1_565 S
C561 N28 1.853 . S
C591 N41 1.880 . S
C596 C251 1.879 . S
C621 N2 1.994 . S
C626 C339 1.909 . S
C651 N15 1.969 . S
C656 C423 1.885 . S
C686 C174 0.502 1_455 S
C681 N70 0.414 . S
C716 C258 0.493 1_545 S
C711 N83 0.382 . S
C746 C330 0.481 . S
C741 N96 0.347 . S
C771 N57 0.378 . S
C776 C414 0.488 . S
C801 N18 0.406 . S
C806 C162 0.502 . S
C836 C246 0.493 . S
C831 N31 0.374 . S
C866 C342 0.480 . S
C861 N44 0.337 . S
C891 N5 0.369 . S
C896 C426 0.488 . S
C921 N66 2.014 . S
C926 C171 1.964 . S
C951 N79 1.980 . S
C956 C255 1.930 . S
C986 C335 1.906 . S
C981 N92 1.871 . S
C1016 C419 1.938 . S
C1011 N53 1.902 . S
C1041 N14 2.031 . S
C1046 C160 1.965 . S
C1076 C244 1.929 . S
C1071 N27 1.995 . S
C1106 C346 1.906 . S
C1101 N40 1.888 . S
C1131 N1 1.919 . S
C1136 C430 1.938 . S
