# Generated by pormake.
# Topology zzz, (3,6)-cn, num edge types: 1
# Building blocks:
#     Node 0, Type 0, BuildingBlock: PAMTOO_clean_linker_0, # of connection points: 3
#     Node 1, Type 0, BuildingBlock: PAMTOO_clean_linker_0, # of connection points: 3
#     Node 2, Type 0, BuildingBlock: PAMTOO_clean_linker_0, # of connection points: 3
#     Node 3, Type 0, BuildingBlock: PAMTOO_clean_linker_0, # of connection points: 3
#     Node 4, Type 0, BuildingBlock: PAMTOO_clean_linker_0, # of connection points: 3
#     Node 5, Type 0, BuildingBlock: PAMTOO_clean_linker_0, # of connection points: 3
#     Node 6, Type 0, BuildingBlock: PAMTOO_clean_linker_0, # of connection points: 3
#     Node 7, Type 0, BuildingBlock: PAMTOO_clean_linker_0, # of connection points: 3
#     Node 8, Type 1, BuildingBlock: BETDIP_clean_sbu_0, # of connection points: 6
#     Node 9, Type 1, BuildingBlock: BETDIP_clean_sbu_0, # of connection points: 6
#     Node 10, Type 1, BuildingBlock: BETDIP_clean_sbu_0, # of connection points: 6
#     Node 11, Type 1, BuildingBlock: BETDIP_clean_sbu_0, # of connection points: 6
#     Edge 12, Type (0, 1), BuildingBlock: AJUNOK_clean_linker_0, # of connection points: 2
#     Edge 13, Type (0, 1), BuildingBlock: AJUNOK_clean_linker_0, # of connection points: 2
#     Edge 14, Type (0, 1), BuildingBlock: AJUNOK_clean_linker_0, # of connection points: 2
#     Edge 15, Type (0, 1), BuildingBlock: AJUNOK_clean_linker_0, # of connection points: 2
#     Edge 16, Type (0, 1), BuildingBlock: AJUNOK_clean_linker_0, # of connection points: 2
#     Edge 17, Type (0, 1), BuildingBlock: AJUNOK_clean_linker_0, # of connection points: 2
#     Edge 18, Type (0, 1), BuildingBlock: AJUNOK_clean_linker_0, # of connection points: 2
#     Edge 19, Type (0, 1), BuildingBlock: AJUNOK_clean_linker_0, # of connection points: 2
#     Edge 20, Type (0, 1), BuildingBlock: AJUNOK_clean_linker_0, # of connection points: 2
#     Edge 21, Type (0, 1), BuildingBlock: AJUNOK_clean_linker_0, # of connection points: 2
#     Edge 22, Type (0, 1), BuildingBlock: AJUNOK_clean_linker_0, # of connection points: 2
#     Edge 23, Type (0, 1), BuildingBlock: AJUNOK_clean_linker_0, # of connection points: 2
#     Edge 24, Type (0, 1), BuildingBlock: AJUNOK_clean_linker_0, # of connection points: 2
#     Edge 25, Type (0, 1), BuildingBlock: AJUNOK_clean_linker_0, # of connection points: 2
#     Edge 26, Type (0, 1), BuildingBlock: AJUNOK_clean_linker_0, # of connection points: 2
#     Edge 27, Type (0, 1), BuildingBlock: AJUNOK_clean_linker_0, # of connection points: 2
#     Edge 28, Type (0, 1), BuildingBlock: AJUNOK_clean_linker_0, # of connection points: 2
#     Edge 29, Type (0, 1), BuildingBlock: AJUNOK_clean_linker_0, # of connection points: 2
#     Edge 30, Type (0, 1), BuildingBlock: AJUNOK_clean_linker_0, # of connection points: 2
#     Edge 31, Type (0, 1), BuildingBlock: AJUNOK_clean_linker_0, # of connection points: 2
#     Edge 32, Type (0, 1), BuildingBlock: AJUNOK_clean_linker_0, # of connection points: 2
#     Edge 33, Type (0, 1), BuildingBlock: AJUNOK_clean_linker_0, # of connection points: 2
#     Edge 34, Type (0, 1), BuildingBlock: AJUNOK_clean_linker_0, # of connection points: 2
#     Edge 35, Type (0, 1), BuildingBlock: AJUNOK_clean_linker_0, # of connection points: 2
# Relax obj value: 0.355
# Max RMSD: 0.190
# Mean RMSD: 0.147
data_MOF--net-zzz--node1-BETDIP_clean_sbu_0--node2-PAMTOO_clean_linker_0--edge1-AJUNOK_clean_linker_0
_symmetry_space_group_name_H-M    P1
_symmetry_Int_Tables_number       1
_symmetry_cell_setting            triclinic
loop_
_symmetry_equiv_pos_as_xyz
'x, y, z'
_cell_length_a     37.085438
_cell_length_b     37.191605
_cell_length_c     10.201295
_cell_angle_alpha  90.040496
_cell_angle_beta   89.623319
_cell_angle_gamma 90.254273
loop_
_atom_site_label
_atom_site_type_symbol
_atom_site_fract_x
_atom_site_fract_y
_atom_site_fract_z
_atom_type_partial_charge
H0 H 0.8492 0.46861 0.47278 0.0
H1 H 0.74851 0.48195 0.271 0.0
H2 H 0.79674 0.57112 0.47556 0.0
H3 H 0.70158 0.57328 0.4312 0.0
C4 C 0.70585 0.54942 0.36749 0.0
O5 O 0.74147 0.54949 0.32363 0.0
H6 H 0.70036 0.52545 0.43016 0.0
C7 C 0.8257 0.48466 0.45023 0.0
C8 C 0.82582 0.52066 0.48986 0.0
C9 C 0.79868 0.47052 0.36814 0.0
C10 C 0.76934 0.49226 0.33501 0.0
C11 C 0.76796 0.52832 0.37445 0.0
C12 C 0.79658 0.54279 0.45113 0.0
H13 H 0.11394 0.8538 0.49486 0.0
H14 H 0.10782 0.7569 0.268 0.0
H15 H 1.01611 0.79153 0.49738 0.0
H16 H 1.02633 0.69903 0.43671 0.0
C17 C 0.04559 0.70597 0.35662 0.0
O18 O 0.04096 0.74215 0.32533 0.0
H19 H 0.07327 0.70134 0.39442 0.0
C20 C 0.09954 0.82939 0.469 0.0
C21 C 0.06393 0.82543 0.51306 0.0
C22 C 0.11578 0.80516 0.38149 0.0
C23 C 0.096 0.77524 0.33858 0.0
C24 C 0.06024 0.76968 0.38064 0.0
C25 C 0.04401 0.79502 0.46803 0.0
H26 H 0.72636 0.11212 0.51392 0.0
H27 H 0.82431 0.10482 0.28819 0.0
H28 H 0.78574 1.01332 0.50752 0.0
H29 H 0.87881 1.01675 0.44847 0.0
C30 C 0.8737 0.03964 0.38143 0.0
O31 O 0.83761 0.03808 0.34381 0.0
H32 H 0.87909 0.06478 0.43729 0.0
C33 C 0.75069 0.09761 0.48762 0.0
C34 C 0.75343 0.06172 0.52689 0.0
C35 C 0.77563 0.11331 0.40013 0.0
C36 C 0.8057 0.09337 0.35916 0.0
C37 C 0.8104 0.05768 0.39998 0.0
C38 C 0.78374 0.04154 0.4829 0.0
H39 H 0.46444 0.72436 0.49532 0.0
H40 H 0.47626 0.82351 0.28091 0.0
H41 H 0.56572 0.78014 0.49471 0.0
H42 H 0.56728 0.87162 0.44521 0.0
C43 C 0.54406 0.86837 0.37791 0.0
O44 O 0.54368 0.83292 0.334 0.0
H45 H 0.51911 0.87419 0.43471 0.0
C46 C 0.47973 0.7484 0.47143 0.0
C47 C 0.51564 0.74989 0.51238 0.0
C48 C 0.46513 0.77422 0.38597 0.0
C49 C 0.48665 0.80371 0.34862 0.0
C50 C 0.52271 0.80642 0.38798 0.0
C51 C 0.53743 0.77917 0.46935 0.0
H52 H 0.23004 0.61441 0.14244 0.0
H53 H 0.33291 0.60938 0.33299 0.0
H54 H 0.29128 0.51669 0.12827 0.0
H55 H 0.33817 0.5005 0.38662 0.0
C56 C 0.35064 0.52771 0.39058 0.0
O57 O 0.34721 0.54337 0.26736 0.0
H58 H 0.3352 0.54336 0.46505 0.0
C59 C 0.25491 0.60015 0.16192 0.0
C60 C 0.25756 0.56436 0.12129 0.0
C61 C 0.28153 0.61648 0.23961 0.0
C62 C 0.31274 0.59725 0.27042 0.0
C63 C 0.31686 0.56141 0.23011 0.0
C64 C 0.28887 0.54466 0.15626 0.0
H65 H 0.97083 0.22806 0.14081 0.0
H66 H 0.98441 0.32165 0.38161 0.0
H67 H 0.07241 0.28405 0.14053 0.0
H68 H 1.02921 0.37504 0.20944 0.0
C69 C 0.05213 0.36953 0.27649 0.0
O70 O 0.05114 0.33377 0.31704 0.0
H71 H 0.07722 0.37399 0.21863 0.0
C72 C 0.98681 0.25134 0.16821 0.0
C73 C 1.02252 0.25333 0.12344 0.0
C74 C 0.97272 0.27548 0.26094 0.0
C75 C 0.99446 0.30377 0.30593 0.0
C76 C 1.03011 0.3077 0.26114 0.0
C77 C 0.04443 0.28207 0.17065 0.0
H78 H 0.34501 0.96519 0.23547 0.0
H79 H 0.2328 0.97474 0.33451 0.0
H80 H 0.28438 0.05436 0.08796 0.0
H81 H 0.20577 0.08575 0.25607 0.0
C82 C 0.21279 0.06054 0.30796 0.0
O83 O 0.22281 1.03515 0.21427 0.0
H84 H 0.23615 0.06767 0.37112 0.0
C85 C 0.31939 0.97867 0.22296 0.0
C86 C 0.31857 1.00974 0.1457 0.0
C87 C 0.28875 0.96543 0.2892 0.0
C88 C 0.25646 0.98453 0.28269 0.0
C89 C 0.2548 1.01711 0.21429 0.0
C90 C 0.28588 1.02972 0.14402 0.0
H91 H 0.61628 0.3481 0.22117 0.0
H92 H 0.59955 0.24631 0.40421 0.0
H93 H 0.51793 0.29011 0.14999 0.0
H94 H 0.56542 0.19624 0.24706 0.0
C95 C 0.53798 0.2011 0.28801 0.0
O96 O 0.53382 0.23719 0.32158 0.0
H97 H 0.51838 0.19468 0.20936 0.0
C98 C 0.60051 0.32361 0.22828 0.0
C99 C 0.5672 0.3219 0.1646 0.0
C100 C 0.61307 0.29604 0.30929 0.0
C101 C 0.5907 0.26665 0.3359 0.0
C102 C 0.55629 0.26417 0.2799 0.0
C103 C 0.54457 0.29172 0.19236 0.0
Tb104 Tb 0.06473 1.02818 0.93976 0.0
Tb105 Tb 1.01394 0.04852 0.70649 0.0
C106 C 0.09212 1.0098 0.15335 0.0
C107 C 0.12093 0.9844 0.18683 0.0
C108 C 0.11959 0.96659 0.30737 0.0
C109 C 0.14126 0.9366 0.32866 0.0
C110 C 0.16438 0.92374 0.22895 0.0
C111 C 0.16873 0.94422 0.11441 0.0
C112 C 0.14701 0.97429 0.09325 0.0
C113 C 0.10337 1.03302 0.71617 0.0
C114 C 1.03558 0.96585 0.75091 0.0
C115 C 0.98668 0.06871 0.49514 0.0
C116 C 0.9588 0.0955 0.46735 0.0
C117 C 0.95722 0.1111 0.34295 0.0
C118 C 0.93707 0.14225 0.32366 0.0
C119 C 0.91865 0.15856 0.4294 0.0
C120 C 0.91736 0.14072 0.55046 0.0
C121 C 0.93741 0.10948 0.56939 0.0
C122 C 0.97525 0.04366 0.92986 0.0
C123 C 0.04412 0.11094 0.89252 0.0
O124 O 0.06273 0.99508 0.10595 0.0
O125 O 0.10217 0.03842 0.08757 0.0
O126 O 0.06989 0.03804 0.73351 0.0
O127 O 0.11586 1.02496 0.82991 0.0
O128 O 0.05006 0.97446 0.86593 0.0
O129 O 1.02289 0.99068 0.66948 0.0
O130 O 1.01664 0.08213 0.54237 0.0
O131 O 0.97593 0.04 0.55905 0.0
O132 O 1.00874 0.03862 0.91283 0.0
O133 O 0.96274 0.05139 0.81602 0.0
O134 O 1.02914 0.10224 0.77867 0.0
O135 O 0.05649 0.08615 0.97445 0.0
H136 H 0.09989 0.97418 0.38123 0.0
H137 H 0.13705 0.92137 0.418 0.0
H138 H 0.1866 0.93523 0.03676 0.0
H139 H 0.14898 0.98801 1.00015 0.0
H140 H 0.97368 0.10081 0.26329 0.0
H141 H 0.9393 0.15561 0.2296 0.0
H142 H 0.90369 0.15278 0.63362 0.0
H143 H 0.93826 0.09798 0.6664 0.0
Tb144 Tb 0.54414 0.06141 0.93833 0.0
Tb145 Tb 0.52884 1.01136 0.74118 0.0
C146 C 0.56906 0.09761 0.12614 0.0
C147 C 0.5989 0.12292 0.14634 0.0
C148 C 0.6113 0.12862 0.2736 0.0
C149 C 0.64243 0.14879 0.29475 0.0
C150 C 0.66205 0.16356 0.18852 0.0
C151 C 0.64781 0.16007 0.06146 0.0
C152 C 0.61651 0.13972 0.04042 0.0
C153 C 0.52466 0.09394 0.71596 0.0
C154 C 0.60924 1.03531 0.7489 0.0
C155 C 0.498 0.97567 0.56568 0.0
C156 C 0.46108 0.9606 0.56203 0.0
C157 C 0.43111 0.98348 0.56322 0.0
C158 C 0.39635 0.96934 0.56396 0.0
C159 C 0.39046 0.93192 0.56368 0.0
C160 C 0.42036 0.9089 0.56365 0.0
C161 C 0.4554 0.92318 0.56416 0.0
C162 C 0.54947 0.97885 0.95976 0.0
C163 C 0.46428 1.03694 0.92928 0.0
O164 O 0.5781 0.06432 0.10195 0.0
O165 O 0.54326 0.10861 0.05012 0.0
O166 O 0.54498 0.06684 0.72635 0.0
O167 O 0.51515 0.1032 0.83288 0.0
O168 O 0.59963 0.04993 0.86283 0.0
O169 O 0.58407 1.02136 0.6728 0.0
O170 O 0.50101 1.01075 0.5629 0.0
O171 O 0.51946 0.96133 0.65165 0.0
O172 O 0.52857 1.00576 0.95267 0.0
O173 O 0.55927 0.97009 0.84235 0.0
O174 O 0.47394 1.02451 0.81294 0.0
O175 O 0.48936 0.04919 1.00888 0.0
H176 H 0.59804 0.11581 0.35635 0.0
H177 H 0.65276 0.14978 0.39371 0.0
H178 H 0.66225 0.17088 0.9776 0.0
H179 H 0.6071 0.13563 0.94117 0.0
H180 H 0.43433 1.01243 0.56261 0.0
H181 H 0.37401 0.98796 0.55903 0.0
H182 H 0.41661 0.88001 0.56086 0.0
H183 H 0.47807 0.905 0.56588 0.0
Tb184 Tb 0.51403 0.54041 0.91273 0.0
Tb185 Tb 0.56681 0.52806 0.72543 0.0
C186 C 0.47235 0.56557 0.08513 0.0
C187 C 0.45539 0.60107 0.1005 0.0
C188 C 0.47664 0.63229 0.09962 0.0
C189 C 0.46071 0.66579 0.11225 0.0
C190 C 0.42307 0.66914 0.1257 0.0
C191 C 0.40156 0.63799 0.12422 0.0
C192 C 0.41767 0.60412 0.11081 0.0
C193 C 0.48558 0.51857 0.68637 0.0
C194 C 0.5405 0.60634 0.73129 0.0
C195 C 0.60566 0.5037 0.54286 0.0
C196 C 0.62887 0.47214 0.52372 0.0
C197 C 0.62573 0.45269 0.40706 0.0
C198 C 0.64442 0.42066 0.39012 0.0
C199 C 0.66584 0.40678 0.49137 0.0
C200 C 0.67042 0.42706 0.60612 0.0
C201 C 0.65213 0.4597 0.62216 0.0
C202 C 0.59564 0.55063 0.94989 0.0
C203 C 0.54161 0.46221 0.91281 0.0
O204 O 0.50742 0.56425 0.09765 0.0
O205 O 0.4613 0.5469 0.98509 0.0
O206 O 0.51067 0.54143 0.70092 0.0
O207 O 0.47815 0.50547 0.80061 0.0
O208 O 0.52668 0.59646 0.84628 0.0
O209 O 0.55372 0.58138 0.65356 0.0
O210 O 0.57116 0.49691 0.55449 0.0
O211 O 0.61658 0.52785 0.62667 0.0
O212 O 0.57035 0.52785 0.9372 0.0
O213 O 0.60471 0.56167 0.83433 0.0
O214 O 0.55808 0.47258 0.80296 0.0
O215 O 0.52421 0.48612 0.984 0.0
H216 H 0.50573 0.63098 0.09059 0.0
H217 H 0.47825 0.68914 0.11676 0.0
H218 H 0.37259 0.63982 0.13581 0.0
H219 H 0.40076 0.5803 0.11042 0.0
H220 H 0.60779 0.46168 0.33042 0.0
H221 H 0.63974 0.40533 0.30149 0.0
H222 H 0.68652 0.41671 0.68565 0.0
H223 H 0.65482 0.47422 0.71369 0.0
Tb224 Tb 1.03331 0.51735 0.90705 0.0
Tb225 Tb 0.05149 0.56434 0.70551 0.0
C226 C 1.00476 0.48529 0.09829 0.0
C227 C 0.97223 0.46329 0.11834 0.0
C228 C 0.95237 0.46799 0.23386 0.0
C229 C 0.92091 0.44836 0.25511 0.0
C230 C 0.90813 0.42412 0.15984 0.0
C231 C 0.92824 0.41903 0.04432 0.0
C232 C 0.96029 0.43839 0.02392 0.0
C233 C 0.05412 0.4813 0.69295 0.0
C234 C 0.97099 0.54145 0.70847 0.0
C235 C 0.07751 0.59881 0.51451 0.0
C236 C 0.10666 0.62497 0.495 0.0
C237 C 0.11899 0.63169 0.36781 0.0
C238 C 0.14994 0.6523 0.34739 0.0
C239 C 0.16931 0.6666 0.45429 0.0
C240 C 0.15489 0.66231 0.58141 0.0
C241 C 0.12385 0.64142 0.60171 0.0
C242 C 1.03223 0.59977 0.9246 0.0
C243 C 0.11446 0.5391 0.89745 0.0
O244 O 0.99927 0.51921 0.07214 0.0
O245 O 1.03011 0.4714 0.02514 0.0
O246 O 1.03409 0.50888 0.69609 0.0
O247 O 0.06286 0.47375 0.81194 0.0
O248 O 0.97865 0.52996 0.82817 0.0
O249 O 0.99784 0.55146 0.63146 0.0
O250 O 0.08743 0.56624 0.54573 0.0
O251 O 0.05028 0.6098 0.58497 0.0
O252 O 0.0516 0.57199 0.91691 0.0
O253 O 1.02386 0.60849 0.80653 0.0
O254 O 0.10623 0.55095 0.7788 0.0
O255 O 0.08801 0.5289 0.97669 0.0
H256 H 0.96099 0.48725 0.30715 0.0
H257 H 0.90543 0.4538 0.34328 0.0
H258 H 0.91849 0.40117 0.96833 0.0
H259 H 0.97513 0.43466 0.93314 0.0
H260 H 0.10592 0.61924 0.28446 0.0
H261 H 0.16036 0.65393 0.24821 0.0
H262 H 0.16907 0.67282 0.66573 0.0
H263 H 0.11439 0.63658 0.7009 0.0
C264 C 0.18792 1.02568 0.50339 0.0
C265 C 0.18126 0.04829 0.39598 0.0
C266 C 0.16157 1.0194 0.60092 0.0
C267 C 0.12706 1.03533 0.59634 0.0
H268 H 0.21448 1.01443 0.51642 0.0
H269 H 0.16899 1.00299 0.68412 0.0
S270 S 0.09445 0.09447 0.3319 0.0
N271 N 0.13635 0.08515 0.28756 0.0
N272 N 0.0871 0.07273 0.47036 0.0
C273 C 0.11924 0.05624 0.48597 0.0
C274 C 0.14621 0.06291 0.38634 0.0
C275 C 0.52086 0.13946 0.37909 0.0
C276 C 0.53232 0.17514 0.40395 0.0
C277 C 0.51911 0.11312 0.47886 0.0
C278 C 0.52808 0.12143 0.6091 0.0
H279 H 0.51347 0.13169 0.28064 0.0
H280 H 0.51024 0.08619 0.45403 0.0
S281 S 0.56077 0.21005 0.72897 0.0
N282 N 0.55396 0.21649 0.57096 0.0
N283 N 0.54957 0.16776 0.75769 0.0
C284 C 0.53949 0.15691 0.63601 0.0
C285 C 0.54194 0.1835 0.53403 0.0
C286 C 0.40227 0.49242 0.49067 0.0
C287 C 0.38975 0.52524 0.43888 0.0
C288 C 0.43452 0.49032 0.56271 0.0
C289 C 0.45626 0.52078 0.58569 0.0
H290 H 0.38596 0.46833 0.48165 0.0
H291 H 0.4417 0.46474 0.60593 0.0
S292 S 0.43675 0.61324 0.46927 0.0
N293 N 0.40242 0.58904 0.41525 0.0
N294 N 0.4635 0.58486 0.54595 0.0
C295 C 0.44517 0.55352 0.52911 0.0
C296 C 0.41186 0.55579 0.45738 0.0
C297 C 1.02764 0.42577 0.38993 0.0
C298 C 0.05161 0.39642 0.39123 0.0
C299 C 1.02893 0.45348 0.48484 0.0
C300 C 0.05427 0.45302 0.58707 0.0
H301 H 1.00782 0.4273 0.31355 0.0
H302 H 1.00965 0.4752 0.47882 0.0
S303 S 0.12386 0.38266 0.63544 0.0
N304 N 0.10214 0.36931 0.50302 0.0
N305 N 0.10427 0.42035 0.6829 0.0
C306 C 0.0784 0.4237 0.5901 0.0
C307 C 0.07722 0.39576 0.4923 0.0
C308 C 0.89435 0.06119 0.15476 0.0
C309 C 0.8999 0.03875 0.26371 0.0
C310 C 0.91942 0.06293 0.05033 0.0
C311 C 0.9519 0.04316 0.05067 0.0
H312 H 0.87039 0.07762 0.14985 0.0
H313 H 0.91321 0.08017 0.96799 0.0
S314 S 0.98064 0.98143 0.31294 0.0
N315 N 0.94111 0.99634 0.36479 0.0
N316 N 0.98837 1.001 0.1705 0.0
C317 C 0.95832 1.02135 0.15974 0.0
C318 C 0.9324 1.01886 0.26538 0.0
C319 C 0.53687 0.88849 0.13677 0.0
C320 C 0.54687 0.89625 0.26705 0.0
C321 C 0.53789 0.91524 0.03817 0.0
C322 C 0.54766 0.9512 0.06628 0.0
H323 H 0.52825 0.86161 0.11041 0.0
H324 H 0.53044 0.9078 0.93927 0.0
S325 S 0.5757 0.98581 0.38927 0.0
N326 N 0.56728 0.94281 0.41646 0.0
N327 N 0.56728 0.99288 0.23297 0.0
C328 C 0.55693 0.9594 0.19564 0.0
C329 C 0.55691 0.93209 0.29519 0.0
C330 C 0.66159 0.51816 0.21248 0.0
C331 C 0.67886 0.55003 0.25403 0.0
C332 C 0.63362 0.51855 0.11882 0.0
C333 C 0.62263 0.55078 0.05871 0.0
H334 H 0.66979 0.49271 0.25343 0.0
H335 H 0.62123 0.49328 0.09066 0.0
S336 S 0.66174 0.64114 0.12109 0.0
N337 N 0.68396 0.61447 0.22148 0.0
N338 N 0.63314 0.61505 0.04128 0.0
C339 C 0.64084 0.58257 0.0948 0.0
C340 C 0.66857 0.58225 0.19264 0.0
C341 C 1.02733 0.64493 0.26278 0.0
C342 C 0.03993 0.68035 0.23974 0.0
C343 C 1.02531 0.61895 0.1617 0.0
C344 C 1.03527 0.6273 0.03191 0.0
H345 H 1.01934 0.63701 0.36086 0.0
H346 H 1.01557 0.59221 0.18529 0.0
S347 S 0.07236 0.71494 0.9182 0.0
N348 N 0.06472 0.7212 0.07627 0.0
N349 N 0.05949 0.67328 0.88652 0.0
C350 C 0.04806 0.66247 1.00708 0.0
C351 C 0.05086 0.68866 0.11058 0.0
C352 C 0.94532 0.25294 0.464 0.0
C353 C 0.9399 0.26379 0.33365 0.0
C354 C 0.93145 0.22 0.50802 0.0
C355 C 0.9116 0.19773 0.42275 0.0
H356 H 0.96579 0.26592 0.52302 0.0
H357 H 0.94166 0.20951 0.59958 0.0
S358 S 0.87434 0.22435 0.10208 0.0
N359 N 0.90135 0.25794 0.14321 0.0
N360 N 0.87558 0.19549 0.22508 0.0
C361 C 0.89811 0.21318 0.30775 0.0
C362 C 0.91189 0.24694 0.26395 0.0
C363 C 0.31725 0.90772 0.34445 0.0
C364 C 0.29394 0.93565 0.38359 0.0
C365 C 0.34764 0.89989 0.42021 0.0
C366 C 0.35346 0.91844 0.53848 0.0
H367 H 0.31698 0.89846 0.2437 0.0
H368 H 0.36923 0.88468 0.37488 0.0
S369 S 0.28652 0.97365 0.71748 0.0
N370 N 0.26881 0.96727 0.57114 0.0
N371 N 0.32473 0.95104 0.71694 0.0
C372 C 0.32391 0.93631 0.59522 0.0
C373 C 0.29366 0.94497 0.5167 0.0
C374 C 0.63932 0.31309 0.51836 0.0
C375 C 0.64578 0.30364 0.38715 0.0
C376 C 0.65315 0.34545 0.56729 0.0
C377 C 0.67441 0.36799 0.48716 0.0
H378 H 0.61769 0.30016 0.57289 0.0
H379 H 0.64134 0.35568 0.65644 0.0
S380 S 0.71433 0.34379 0.16651 0.0
N381 N 0.68641 0.3103 0.20121 0.0
N382 N 0.71255 0.37137 0.29346 0.0
C383 C 0.68916 0.35318 0.3724 0.0
C384 C 0.67515 0.32017 0.32294 0.0
C385 C 0.26469 0.64348 0.45025 0.0
C386 C 0.27093 0.64877 0.31554 0.0
C387 C 0.23342 0.65709 0.50943 0.0
C388 C 0.20804 0.67605 0.43438 0.0
H389 H 0.27989 0.62347 0.50348 0.0
H390 H 0.22641 0.64719 0.60601 0.0
S391 S 0.22413 0.71425 0.10432 0.0
N392 N 0.25842 0.68681 0.12813 0.0
N393 N 0.19985 0.7131 0.24072 0.0
C394 C 0.21988 0.69018 0.31368 0.0
C395 C 0.25159 0.67621 0.25325 0.0
C396 C 0.17501 0.83618 0.39061 0.0
C397 C 0.14945 0.81737 0.31457 0.0
C398 C 0.1868 0.87047 0.35139 0.0
C399 C 0.17486 0.88525 0.23245 0.0
H400 H 0.17933 0.82835 0.49159 0.0
H401 H 0.20008 0.88746 0.42282 0.0
S402 S 0.12801 0.83564 0.96795 0.0
N403 N 0.12715 0.80797 0.09416 0.0
N404 N 0.15038 0.87162 0.01711 0.0
C405 C 0.15912 0.86167 0.14099 0.0
C406 C 0.14656 0.82722 0.18245 0.0
C407 C 0.7573 0.14001 0.19019 0.0
C408 C 0.76353 0.14518 0.32482 0.0
C409 C 0.72623 0.15392 0.13215 0.0
C410 C 0.70076 0.17276 0.20837 0.0
H411 H 0.77255 0.12017 0.13553 0.0
H412 H 0.71942 0.14446 0.03512 0.0
S413 S 0.71654 0.21063 0.53858 0.0
N414 N 0.75086 0.18321 0.51318 0.0
N415 N 0.69231 0.20947 0.40324 0.0
C416 C 0.71238 0.18657 0.32931 0.0
C417 C 0.74405 0.17253 0.38839 0.0
C418 C 0.43595 0.76432 0.17121 0.0
C419 C 0.4325 0.76411 0.30894 0.0
C420 C 0.42357 0.73501 0.09774 0.0
C421 C 0.4086 0.70489 0.16178 0.0
H422 H 0.45387 0.78317 0.12248 0.0
H423 H 0.43256 0.73275 0.99675 0.0
S424 S 0.37327 0.70341 0.50178 0.0
N425 N 0.39656 0.74132 0.49143 0.0
N426 N 0.37575 0.68462 0.3552 0.0
C427 C 0.39537 0.70984 0.28965 0.0
C428 C 0.40682 0.74033 0.36335 0.0
C429 C 0.8274 0.41052 0.35399 0.0
C430 C 0.80737 0.43757 0.29132 0.0
C431 C 0.8593 0.39788 0.29584 0.0
C432 C 0.87049 0.41126 0.17302 0.0
H433 H 0.82304 0.40523 0.45735 0.0
H434 H 0.87822 0.38347 0.3567 0.0
S435 S 0.81426 0.46195 0.93996 0.0
N436 N 0.79123 0.46244 0.07895 0.0
N437 N 0.85069 0.43794 0.96886 0.0
C438 C 0.84457 0.42827 0.09554 0.0
C439 C 0.8125 0.44156 0.15528 0.0
C440 C 1.01295 0.20829 0.94066 0.0
C441 C 1.03542 0.2219 0.04102 0.0
C442 C 1.01709 0.17331 0.88917 0.0
C443 C 0.04405 0.14993 0.93472 0.0
H444 H 0.99029 0.22407 0.90737 0.0
H445 H 0.99764 0.16392 0.81799 0.0
S446 S 0.1157 0.1752 0.17129 0.0
N447 N 0.0893 0.21082 0.16795 0.0
N448 N 0.09788 0.14574 0.06864 0.0
C449 C 0.06891 0.16437 0.02544 0.0
C450 C 0.06455 0.20011 0.07842 0.0
C451 C 0.37083 0.05273 0.09054 0.0
C452 C 0.35301 1.01944 0.07223 0.0
C453 C 0.40666 0.05864 0.04417 0.0
C454 C 0.42593 1.03176 0.97547 0.0
H455 H 0.35771 0.07373 0.14656 0.0
H456 H 0.41947 0.08432 0.0633 0.0
S457 S 0.39297 0.93938 0.90817 0.0
N458 N 0.35867 0.95906 0.9825 0.0
N459 N 0.42477 0.97036 0.89649 0.0
C460 C 0.40822 0.99879 0.95477 0.0
C461 C 0.37221 0.99264 1.00244 0.0
C462 C 0.52457 0.37255 0.09578 0.0
C463 C 0.55737 0.35388 0.0792 0.0
C464 C 0.51912 0.40705 0.03945 0.0
C465 C 0.54611 0.42438 0.96334 0.0
H466 H 0.5037 0.36138 0.15854 0.0
H467 H 0.49384 0.42064 0.05828 0.0
S468 S 0.63749 0.38857 0.89742 0.0
N469 N 0.61697 0.35593 0.97795 0.0
N470 N 0.60736 0.42068 0.88132 0.0
C471 C 0.57857 0.40574 0.94417 0.0
C472 C 0.58394 0.37064 0.99912 0.0
C473 C 0.1955 0.53669 0.13212 0.0
C474 C 0.22483 0.54879 0.05504 0.0
C475 C 0.16056 0.53235 0.07935 0.0
C476 C 0.15292 0.54036 0.94689 0.0
H477 H 0.19915 0.53252 0.23629 0.0
H478 H 0.13902 0.52405 0.14501 0.0
S479 S 0.22084 0.57111 0.70113 0.0
N480 N 0.2441 0.56742 0.838 0.0
N481 N 0.17907 0.5591 0.73827 0.0
C482 C 0.18244 0.55113 0.86752 0.0
C483 C 0.21804 0.55546 0.92159 0.0
C484 C 0.07132 0.87054 0.69597 0.0
C485 C 0.04936 0.85604 0.596 0.0
C486 C 0.06548 0.90496 0.74972 0.0
C487 C 1.03726 0.92709 0.70631 0.0
H488 H 0.09503 0.85603 0.72628 0.0
H489 H 0.08467 0.91505 0.82058 0.0
S490 S 0.96669 0.89916 0.46934 0.0
N491 N 0.9948 0.86484 0.47056 0.0
N492 N 0.98316 0.92913 0.57306 0.0
C493 C 1.01305 0.91179 0.61499 0.0
C494 C 1.01911 0.87646 0.56015 0.0
C495 C 0.6919 1.03321 0.51705 0.0
C496 C 0.7206 0.04605 0.59408 0.0
C497 C 0.65671 1.02877 0.56897 0.0
C498 C 0.64806 1.03714 0.70068 0.0
H499 H 0.69616 1.02866 0.41318 0.0
H500 H 0.63579 1.02027 0.5028 0.0
S501 S 0.71422 0.0693 0.94713 0.0
N502 N 0.73832 0.06566 0.811 0.0
N503 N 0.67278 0.05679 0.90924 0.0
C504 C 0.67698 0.04863 0.78029 0.0
C505 C 0.71288 0.05324 0.727 0.0
C506 C 0.51328 0.70586 0.7013 0.0
C507 C 0.52959 0.71715 0.58253 0.0
C508 C 0.51812 0.67078 0.75164 0.0
C509 C 0.53896 0.64491 0.68439 0.0
H510 H 0.49512 0.72384 0.75264 0.0
H511 H 0.50403 0.66346 0.84104 0.0
S512 S 0.58805 0.66095 0.37003 0.0
N513 N 0.56811 0.69967 0.40101 0.0
N514 N 0.57731 0.63421 0.49351 0.0
C515 C 0.5564 0.65634 0.56759 0.0
C516 C 0.55171 0.69219 0.51739 0.0
C517 C 0.86839 0.52406 0.68289 0.0
C518 C 0.85996 0.53414 0.5533 0.0
C519 C 0.90375 0.52749 0.73362 0.0
C520 C 0.93274 0.54061 0.65636 0.0
H521 H 0.84771 0.51196 0.74391 0.0
H522 H 0.90857 0.51858 0.83301 0.0
S523 S 0.92516 0.57 0.30857 0.0
N524 N 0.88375 0.55753 0.34873 0.0
N525 N 0.94962 0.56415 0.44149 0.0
C526 C 0.92436 0.55144 0.52696 0.0
C527 C 0.88831 0.54812 0.47621 0.0
loop_
_geom_bond_atom_site_label_1
_geom_bond_atom_site_label_2
_geom_bond_distance
_geom_bond_site_symmetry_2
_ccdc_geom_bond_type
H0 C7 0.929 . S
H1 C10 0.930 . S
H2 C12 0.929 . S
H3 C4 0.969 . S
C4 H3 0.969 . S
C4 O5 1.550 . S
C4 H6 0.973 . S
O5 C4 1.550 . S
O5 C11 1.412 . S
H6 C4 0.973 . S
C7 H0 0.929 . S
C7 C8 1.400 . S
C7 C9 1.364 . S
C8 C7 1.400 . S
C8 C12 1.377 . S
C9 C7 1.364 . S
C9 C10 1.374 . S
C10 H1 0.930 . S
C10 C9 1.374 . S
C10 C11 1.383 . S
C11 O5 1.412 . S
C11 C10 1.383 . S
C11 C12 1.394 . S
C12 H2 0.929 . S
C12 C8 1.377 . S
C12 C11 1.394 . S
H13 C20 0.928 1_655 S
H14 C23 0.931 . S
H15 C25 0.928 1_655 S
H16 C17 0.969 . S
C17 H16 0.969 . S
C17 O18 1.550 1_455 S
C17 H19 0.973 1_455 S
O18 C17 1.550 1_655 S
O18 C24 1.404 1_655 S
H19 C17 0.973 1_655 S
C20 H13 0.928 1_455 S
C20 C21 1.399 . S
C20 C22 1.364 . S
C21 C20 1.399 . S
C21 C25 1.377 . S
C22 C20 1.364 . S
C22 C23 1.374 1_455 S
C23 H14 0.931 . S
C23 C22 1.374 1_655 S
C23 C24 1.382 1_655 S
C24 O18 1.404 1_455 S
C24 C23 1.382 1_455 S
C24 C25 1.394 . S
C25 H15 0.928 1_455 S
C25 C21 1.377 . S
C25 C24 1.394 . S
H26 C33 0.928 1_565 S
H27 C36 0.931 . S
H28 C38 0.929 1_565 S
H29 C30 0.969 . S
C30 H29 0.969 . S
C30 O31 1.550 1_545 S
C30 H32 0.973 1_545 S
O31 C30 1.550 1_565 S
O31 C37 1.404 1_565 S
H32 C30 0.973 1_565 S
C33 H26 0.928 1_545 S
C33 C34 1.399 . S
C33 C35 1.364 . S
C34 C33 1.399 . S
C34 C38 1.377 . S
C35 C33 1.364 . S
C35 C36 1.374 1_545 S
C36 H27 0.931 . S
C36 C35 1.374 1_565 S
C36 C37 1.382 1_565 S
C37 O31 1.404 1_545 S
C37 C36 1.382 1_545 S
C37 C38 1.394 . S
C38 H28 0.929 1_545 S
C38 C34 1.377 . S
C38 C37 1.394 . S
H39 C46 0.929 . S
H40 C49 0.930 . S
H41 C51 0.929 . S
H42 C43 0.969 . S
C43 H42 0.969 . S
C43 O44 1.550 . S
C43 H45 0.973 . S
O44 C43 1.550 . S
O44 C50 1.412 . S
H45 C43 0.973 . S
C46 H39 0.929 . S
C46 C47 1.400 . S
C46 C48 1.364 . S
C47 C46 1.400 . S
C47 C51 1.377 . S
C48 C46 1.364 . S
C48 C49 1.374 . S
C49 H40 0.930 . S
C49 C48 1.374 . S
C49 C50 1.383 . S
C50 O44 1.412 . S
C50 C49 1.383 . S
C50 C51 1.394 . S
C51 H41 0.929 . S
C51 C47 1.377 . S
C51 C50 1.394 . S
H52 C59 0.929 . S
H53 C62 0.930 . S
H54 C64 0.929 . S
H55 C56 0.969 . S
C56 H55 0.969 . S
C56 O57 1.550 . S
C56 H58 0.973 . S
O57 C56 1.550 . S
O57 C63 1.412 . S
H58 C56 0.973 . S
C59 H52 0.929 . S
C59 C60 1.400 1_554 S
C59 C61 1.364 . S
C60 C59 1.400 1_556 S
C60 C64 1.377 . S
C61 C59 1.364 . S
C61 C62 1.374 . S
C62 H53 0.930 . S
C62 C61 1.374 . S
C62 C63 1.383 . S
C63 O57 1.412 . S
C63 C62 1.383 . S
C63 C64 1.394 1_554 S
C64 H54 0.929 . S
C64 C60 1.377 . S
C64 C63 1.394 1_556 S
H65 C72 0.928 1_655 S
H66 C75 0.930 . S
H67 C77 0.928 1_655 S
H68 C69 0.969 . S
C69 H68 0.969 . S
C69 O70 1.550 1_455 S
C69 H71 0.973 1_455 S
O70 C69 1.550 1_655 S
O70 C76 1.412 1_655 S
H71 C69 0.973 1_655 S
C72 H65 0.928 1_455 S
C72 C73 1.400 1_554 S
C72 C74 1.364 . S
C73 C72 1.400 1_556 S
C73 C77 1.377 . S
C74 C72 1.364 . S
C74 C75 1.374 1_455 S
C75 H66 0.930 . S
C75 C74 1.374 1_655 S
C75 C76 1.383 1_655 S
C76 O70 1.412 1_455 S
C76 C75 1.383 1_455 S
C76 C77 1.395 1_554 S
C77 H67 0.928 1_455 S
C77 C73 1.377 . S
C77 C76 1.395 1_556 S
H78 C85 0.928 1_565 S
H79 C88 0.930 . S
H80 C90 0.928 1_565 S
H81 C82 0.969 . S
C82 H81 0.969 . S
C82 O83 1.550 1_545 S
C82 H84 0.973 1_545 S
O83 C82 1.550 1_565 S
O83 C89 1.412 1_565 S
H84 C82 0.973 1_565 S
C85 H78 0.928 1_545 S
C85 C86 1.400 1_554 S
C85 C87 1.364 . S
C86 C85 1.400 1_556 S
C86 C90 1.377 . S
C87 C85 1.364 . S
C87 C88 1.374 1_545 S
C88 H79 0.930 . S
C88 C87 1.374 1_565 S
C88 C89 1.383 1_565 S
C89 O83 1.412 1_545 S
C89 C88 1.383 1_545 S
C89 C90 1.395 1_554 S
C90 H80 0.928 1_545 S
C90 C86 1.377 . S
C90 C89 1.395 1_556 S
H91 C98 0.929 . S
H92 C101 0.930 . S
H93 C103 0.929 . S
H94 C95 0.969 . S
C95 H94 0.969 . S
C95 O96 1.550 . S
C95 H97 0.973 . S
O96 C95 1.550 . S
O96 C102 1.412 . S
H97 C95 0.973 . S
C98 H91 0.929 . S
C98 C99 1.400 1_554 S
C98 C100 1.364 . S
C99 C98 1.400 1_556 S
C99 C103 1.377 . S
C100 C98 1.364 . S
C100 C101 1.374 . S
C101 H92 0.930 . S
C101 C100 1.374 . S
C101 C102 1.383 . S
C102 O96 1.412 . S
C102 C101 1.383 . S
C102 C103 1.394 1_554 S
C103 H93 0.929 . S
C103 C99 1.377 . S
C103 C102 1.394 1_556 S
Tb104 C106 2.809 1_556 S
Tb104 O124 2.484 1_556 S
Tb104 O125 2.440 1_556 S
Tb104 O126 2.658 1_565 S
Tb104 O127 2.409 . S
Tb104 O128 2.378 . S
Tb104 O132 2.325 1_455 S
Tb104 O135 2.341 1_565 S
Tb105 C115 2.809 . S
Tb105 O126 2.325 1_655 S
Tb105 O129 2.341 1_545 S
Tb105 O130 2.484 . S
Tb105 O131 2.440 . S
Tb105 O132 2.658 1_545 S
Tb105 O133 2.409 . S
Tb105 O134 2.378 . S
C106 Tb104 2.809 1_554 S
C106 C107 1.514 . S
C106 O124 1.248 . S
C106 O125 1.266 . S
C107 C106 1.514 . S
C107 C108 1.359 . S
C107 C112 1.348 . S
C108 C107 1.359 . S
C108 C109 1.380 . S
C108 H136 0.929 1_455 S
C109 C108 1.380 . S
C109 C110 1.347 . S
C109 H137 0.931 1_455 S
C110 C109 1.347 . S
C110 C111 1.369 . S
C111 C110 1.369 . S
C111 C112 1.408 . S
C111 H138 0.930 . S
C112 C107 1.348 . S
C112 C111 1.408 . S
C112 H139 0.930 . S
C113 O126 1.281 1_565 S
C113 O127 1.254 . S
C114 O128 1.236 1_655 S
C114 O129 1.266 . S
C115 Tb105 2.809 . S
C115 C116 1.514 . S
C115 O130 1.248 . S
C115 O131 1.266 . S
C116 C115 1.514 . S
C116 C117 1.359 . S
C116 C121 1.348 . S
C117 C116 1.359 . S
C117 C118 1.380 . S
C117 H140 0.929 1_655 S
C118 C117 1.380 . S
C118 C119 1.347 . S
C118 H141 0.931 1_655 S
C119 C118 1.347 . S
C119 C120 1.369 . S
C120 C119 1.369 . S
C120 C121 1.408 . S
C120 H142 0.930 . S
C121 C116 1.348 . S
C121 C120 1.408 . S
C121 H143 0.930 . S
C122 O132 1.281 1_545 S
C122 O133 1.254 . S
C123 O134 1.236 1_455 S
C123 O135 1.266 . S
O124 Tb104 2.484 1_554 S
O124 C106 1.248 . S
O125 Tb104 2.440 1_554 S
O125 C106 1.266 . S
O126 Tb104 2.658 1_545 S
O126 Tb105 2.325 1_455 S
O126 C113 1.281 1_545 S
O127 Tb104 2.409 . S
O127 C113 1.254 . S
O128 Tb104 2.378 . S
O128 C114 1.236 1_455 S
O129 Tb105 2.341 1_565 S
O129 C114 1.266 . S
O130 Tb105 2.484 . S
O130 C115 1.248 . S
O131 Tb105 2.440 . S
O131 C115 1.266 . S
O132 Tb104 2.325 1_655 S
O132 Tb105 2.658 1_565 S
O132 C122 1.281 1_565 S
O133 Tb105 2.409 . S
O133 C122 1.254 . S
O134 Tb105 2.378 . S
O134 C123 1.236 1_655 S
O135 Tb104 2.341 1_545 S
O135 C123 1.266 . S
H136 C108 0.929 1_655 S
H137 C109 0.931 1_655 S
H138 C111 0.930 . S
H139 C112 0.930 . S
H140 C117 0.929 1_455 S
H141 C118 0.931 1_455 S
H142 C120 0.930 . S
H143 C121 0.930 . S
Tb144 C146 2.809 1_556 S
Tb144 O164 2.484 1_556 S
Tb144 O165 2.440 1_556 S
Tb144 O166 2.658 . S
Tb144 O167 2.409 . S
Tb144 O168 2.378 . S
Tb144 O172 2.325 1_545 S
Tb144 O175 2.341 . S
Tb145 C155 2.809 . S
Tb145 O166 2.325 1_565 S
Tb145 O169 2.341 . S
Tb145 O170 2.484 . S
Tb145 O171 2.440 . S
Tb145 O172 2.658 . S
Tb145 O173 2.409 . S
Tb145 O174 2.378 . S
C146 Tb144 2.809 1_554 S
C146 C147 1.514 . S
C146 O164 1.248 . S
C146 O165 1.266 . S
C147 C146 1.514 . S
C147 C148 1.359 . S
C147 C152 1.348 . S
C148 C147 1.359 . S
C148 C149 1.380 . S
C148 H176 0.929 1_545 S
C149 C148 1.380 . S
C149 C150 1.347 . S
C149 H177 0.931 1_545 S
C150 C149 1.347 . S
C150 C151 1.369 . S
C151 C150 1.369 . S
C151 C152 1.408 . S
C151 H178 0.930 . S
C152 C147 1.348 . S
C152 C151 1.408 . S
C152 H179 0.930 . S
C153 O166 1.281 . S
C153 O167 1.254 . S
C154 O168 1.236 1_565 S
C154 O169 1.266 . S
C155 Tb145 2.809 . S
C155 C156 1.514 . S
C155 O170 1.248 . S
C155 O171 1.266 . S
C156 C155 1.514 . S
C156 C157 1.359 . S
C156 C161 1.348 . S
C157 C156 1.359 . S
C157 C158 1.380 . S
C157 H180 0.929 1_565 S
C158 C157 1.380 . S
C158 C159 1.347 . S
C158 H181 0.931 1_565 S
C159 C158 1.347 . S
C159 C160 1.369 . S
C160 C159 1.369 . S
C160 C161 1.408 . S
C160 H182 0.930 . S
C161 C156 1.348 . S
C161 C160 1.408 . S
C161 H183 0.930 . S
C162 O172 1.281 . S
C162 O173 1.254 . S
C163 O174 1.236 1_545 S
C163 O175 1.266 . S
O164 Tb144 2.484 1_554 S
O164 C146 1.248 . S
O165 Tb144 2.440 1_554 S
O165 C146 1.266 . S
O166 Tb144 2.658 . S
O166 Tb145 2.325 1_545 S
O166 C153 1.281 . S
O167 Tb144 2.409 . S
O167 C153 1.254 . S
O168 Tb144 2.378 . S
O168 C154 1.236 1_545 S
O169 Tb145 2.341 . S
O169 C154 1.266 . S
O170 Tb145 2.484 . S
O170 C155 1.248 . S
O171 Tb145 2.440 . S
O171 C155 1.266 . S
O172 Tb144 2.325 1_565 S
O172 Tb145 2.658 . S
O172 C162 1.281 . S
O173 Tb145 2.409 . S
O173 C162 1.254 . S
O174 Tb145 2.378 . S
O174 C163 1.236 1_565 S
O175 Tb144 2.341 . S
O175 C163 1.266 . S
H176 C148 0.929 1_565 S
H177 C149 0.931 1_565 S
H178 C151 0.930 . S
H179 C152 0.930 . S
H180 C157 0.929 1_545 S
H181 C158 0.931 1_545 S
H182 C160 0.930 . S
H183 C161 0.930 . S
Tb184 C186 2.809 1_556 S
Tb184 O204 2.484 1_556 S
Tb184 O205 2.440 1_556 S
Tb184 O206 2.658 . S
Tb184 O207 2.409 . S
Tb184 O208 2.378 . S
Tb184 O212 2.325 . S
Tb184 O215 2.341 . S
Tb185 C195 2.809 . S
Tb185 O206 2.325 . S
Tb185 O209 2.341 . S
Tb185 O210 2.484 . S
Tb185 O211 2.440 . S
Tb185 O212 2.658 . S
Tb185 O213 2.409 . S
Tb185 O214 2.378 . S
C186 Tb184 2.809 1_554 S
C186 C187 1.514 . S
C186 O204 1.248 . S
C186 O205 1.266 . S
C187 C186 1.514 . S
C187 C188 1.359 . S
C187 C192 1.348 . S
C188 C187 1.359 . S
C188 C189 1.380 . S
C188 H216 0.929 . S
C189 C188 1.380 . S
C189 C190 1.347 . S
C189 H217 0.931 . S
C190 C189 1.347 . S
C190 C191 1.369 . S
C191 C190 1.369 . S
C191 C192 1.408 . S
C191 H218 0.930 . S
C192 C187 1.348 . S
C192 C191 1.408 . S
C192 H219 0.930 . S
C193 O206 1.281 . S
C193 O207 1.254 . S
C194 O208 1.236 . S
C194 O209 1.266 . S
C195 Tb185 2.809 . S
C195 C196 1.514 . S
C195 O210 1.248 . S
C195 O211 1.266 . S
C196 C195 1.514 . S
C196 C197 1.359 . S
C196 C201 1.348 . S
C197 C196 1.359 . S
C197 C198 1.380 . S
C197 H220 0.929 . S
C198 C197 1.380 . S
C198 C199 1.347 . S
C198 H221 0.931 . S
C199 C198 1.347 . S
C199 C200 1.369 . S
C200 C199 1.369 . S
C200 C201 1.408 . S
C200 H222 0.930 . S
C201 C196 1.348 . S
C201 C200 1.408 . S
C201 H223 0.930 . S
C202 O212 1.281 . S
C202 O213 1.254 . S
C203 O214 1.236 . S
C203 O215 1.266 . S
O204 Tb184 2.484 1_554 S
O204 C186 1.248 . S
O205 Tb184 2.440 1_554 S
O205 C186 1.266 . S
O206 Tb184 2.658 . S
O206 Tb185 2.325 . S
O206 C193 1.281 . S
O207 Tb184 2.409 . S
O207 C193 1.254 . S
O208 Tb184 2.378 . S
O208 C194 1.236 . S
O209 Tb185 2.341 . S
O209 C194 1.266 . S
O210 Tb185 2.484 . S
O210 C195 1.248 . S
O211 Tb185 2.440 . S
O211 C195 1.266 . S
O212 Tb184 2.325 . S
O212 Tb185 2.658 . S
O212 C202 1.281 . S
O213 Tb185 2.409 . S
O213 C202 1.254 . S
O214 Tb185 2.378 . S
O214 C203 1.236 . S
O215 Tb184 2.341 . S
O215 C203 1.266 . S
H216 C188 0.929 . S
H217 C189 0.931 . S
H218 C191 0.930 . S
H219 C192 0.930 . S
H220 C197 0.929 . S
H221 C198 0.931 . S
H222 C200 0.930 . S
H223 C201 0.930 . S
Tb224 C226 2.809 1_556 S
Tb224 O244 2.484 1_556 S
Tb224 O245 2.440 1_556 S
Tb224 O246 2.658 1_655 S
Tb224 O247 2.409 . S
Tb224 O248 2.378 . S
Tb224 O252 2.325 . S
Tb224 O255 2.341 1_655 S
Tb225 C235 2.809 . S
Tb225 O246 2.325 . S
Tb225 O249 2.341 1_455 S
Tb225 O250 2.484 . S
Tb225 O251 2.440 . S
Tb225 O252 2.658 1_455 S
Tb225 O253 2.409 . S
Tb225 O254 2.378 . S
C226 Tb224 2.809 1_554 S
C226 C227 1.514 . S
C226 O244 1.248 . S
C226 O245 1.266 . S
C227 C226 1.514 . S
C227 C228 1.359 . S
C227 C232 1.348 . S
C228 C227 1.359 . S
C228 C229 1.380 . S
C228 H256 0.929 . S
C229 C228 1.380 . S
C229 C230 1.347 . S
C229 H257 0.931 . S
C230 C229 1.347 . S
C230 C231 1.369 . S
C231 C230 1.369 . S
C231 C232 1.408 . S
C231 H258 0.930 . S
C232 C227 1.348 . S
C232 C231 1.408 . S
C232 H259 0.930 . S
C233 O246 1.277 1_655 S
C233 O247 1.259 . S
C234 O248 1.236 . S
C234 O249 1.266 . S
C235 Tb225 2.809 . S
C235 C236 1.514 . S
C235 O250 1.248 . S
C235 O251 1.266 . S
C236 C235 1.514 . S
C236 C237 1.359 . S
C236 C241 1.348 . S
C237 C236 1.359 . S
C237 C238 1.380 . S
C237 H260 0.929 . S
C238 C237 1.380 . S
C238 C239 1.347 . S
C238 H261 0.931 . S
C239 C238 1.347 . S
C239 C240 1.369 . S
C240 C239 1.369 . S
C240 C241 1.408 . S
C240 H262 0.930 . S
C241 C236 1.348 . S
C241 C240 1.408 . S
C241 H263 0.930 . S
C242 O252 1.274 1_455 S
C242 O253 1.262 . S
C243 O254 1.236 . S
C243 O255 1.266 . S
O244 Tb224 2.484 1_554 S
O244 C226 1.248 . S
O245 Tb224 2.440 1_554 S
O245 C226 1.266 . S
O246 Tb224 2.658 1_455 S
O246 Tb225 2.325 . S
O246 C233 1.277 1_455 S
O247 Tb224 2.409 . S
O247 C233 1.259 . S
O248 Tb224 2.378 . S
O248 C234 1.236 . S
O249 Tb225 2.341 1_655 S
O249 C234 1.266 . S
O250 Tb225 2.484 . S
O250 C235 1.248 . S
O251 Tb225 2.440 . S
O251 C235 1.266 . S
O252 Tb224 2.325 . S
O252 Tb225 2.658 1_655 S
O252 C242 1.274 1_655 S
O253 Tb225 2.409 . S
O253 C242 1.262 . S
O254 Tb225 2.378 . S
O254 C243 1.236 . S
O255 Tb224 2.341 1_455 S
O255 C243 1.266 . S
H256 C228 0.929 . S
H257 C229 0.931 . S
H258 C231 0.930 . S
H259 C232 0.930 . S
H260 C237 0.929 . S
H261 C238 0.931 . S
H262 C240 0.930 . S
H263 C241 0.930 . S
C264 C265 1.362 1_565 S
C264 C266 1.419 . S
C264 H268 0.930 . S
C265 C264 1.362 1_545 S
C265 C274 1.436 . S
C266 C264 1.419 . S
C266 C267 1.365 . S
C266 H269 0.929 . S
C267 C266 1.365 . S
C267 C273 1.426 1_565 S
H268 C264 0.930 . S
H269 C266 0.929 . S
S270 N271 1.613 . S
S270 N272 1.610 . S
N271 S270 1.613 . S
N271 C274 1.350 . S
N272 S270 1.610 . S
N272 C273 1.351 . S
C273 C267 1.426 1_545 S
C273 N272 1.351 . S
C273 C274 1.434 . S
C274 C265 1.436 . S
C274 N271 1.350 . S
C274 C273 1.434 . S
C275 C276 1.369 . S
C275 C277 1.419 . S
C275 H279 0.930 . S
C276 C275 1.369 . S
C276 C285 1.429 . S
C277 C275 1.419 . S
C277 C278 1.363 . S
C277 H280 0.929 . S
C278 C277 1.363 . S
C278 C284 1.428 . S
H279 C275 0.930 . S
H280 C277 0.929 . S
S281 N282 1.613 . S
S281 N283 1.610 . S
N282 S281 1.613 . S
N282 C285 1.350 . S
N283 S281 1.610 . S
N283 C284 1.351 . S
C284 C278 1.428 . S
C284 N283 1.351 . S
C284 C285 1.434 . S
C285 C276 1.429 . S
C285 N282 1.350 . S
C285 C284 1.434 . S
C286 C287 1.369 . S
C286 C288 1.419 . S
C286 H290 0.930 . S
C287 C286 1.369 . S
C287 C296 1.429 . S
C288 C286 1.419 . S
C288 C289 1.363 . S
C288 H291 0.929 . S
C289 C288 1.363 . S
C289 C295 1.428 . S
H290 C286 0.930 . S
H291 C288 0.929 . S
S292 N293 1.613 . S
S292 N294 1.610 . S
N293 S292 1.613 . S
N293 C296 1.350 . S
N294 S292 1.610 . S
N294 C295 1.351 . S
C295 C289 1.428 . S
C295 N294 1.351 . S
C295 C296 1.434 . S
C296 C287 1.429 . S
C296 N293 1.350 . S
C296 C295 1.434 . S
C297 C298 1.358 1_655 S
C297 C299 1.419 . S
C297 H301 0.930 . S
C298 C297 1.358 1_455 S
C298 C307 1.440 . S
C299 C297 1.419 . S
C299 C300 1.363 1_655 S
C299 H302 0.929 . S
C300 C299 1.363 1_455 S
C300 C306 1.428 . S
H301 C297 0.930 . S
H302 C299 0.929 . S
S303 N304 1.613 . S
S303 N305 1.610 . S
N304 S303 1.613 . S
N304 C307 1.350 . S
N305 S303 1.610 . S
N305 C306 1.351 . S
C306 C300 1.428 . S
C306 N305 1.351 . S
C306 C307 1.434 . S
C307 C298 1.440 . S
C307 N304 1.350 . S
C307 C306 1.434 . S
C308 C309 1.372 . S
C308 C310 1.419 . S
C308 H312 0.930 . S
C309 C308 1.372 . S
C309 C318 1.426 1_545 S
C310 C308 1.419 . S
C310 C311 1.372 . S
C310 H313 0.929 . S
C311 C310 1.372 . S
C311 C317 1.420 1_545 S
H312 C308 0.930 . S
H313 C310 0.929 . S
S314 N315 1.613 . S
S314 N316 1.610 . S
N315 S314 1.613 . S
N315 C318 1.350 . S
N316 S314 1.610 . S
N316 C317 1.351 . S
C317 C311 1.420 1_565 S
C317 N316 1.351 . S
C317 C318 1.434 . S
C318 C309 1.426 1_565 S
C318 N315 1.350 . S
C318 C317 1.434 . S
C319 C320 1.369 . S
C319 C321 1.419 . S
C319 H323 0.930 . S
C320 C319 1.369 . S
C320 C329 1.429 . S
C321 C319 1.419 . S
C321 C322 1.363 . S
C321 H324 0.929 . S
C322 C321 1.363 . S
C322 C328 1.428 . S
H323 C319 0.930 . S
H324 C321 0.929 . S
S325 N326 1.613 . S
S325 N327 1.610 . S
N326 S325 1.613 . S
N326 C329 1.350 . S
N327 S325 1.610 . S
N327 C328 1.351 . S
C328 C322 1.428 . S
C328 N327 1.351 . S
C328 C329 1.434 . S
C329 C320 1.429 . S
C329 N326 1.350 . S
C329 C328 1.434 . S
C330 C331 1.369 . S
C330 C332 1.419 . S
C330 H334 0.930 . S
C331 C330 1.369 . S
C331 C340 1.429 . S
C332 C330 1.419 . S
C332 C333 1.363 . S
C332 H335 0.929 . S
C333 C332 1.363 . S
C333 C339 1.428 . S
H334 C330 0.930 . S
H335 C332 0.929 . S
S336 N337 1.613 . S
S336 N338 1.610 . S
N337 S336 1.613 . S
N337 C340 1.350 . S
N338 S336 1.610 . S
N338 C339 1.351 . S
C339 C333 1.428 . S
C339 N338 1.351 . S
C339 C340 1.434 . S
C340 C331 1.429 . S
C340 N337 1.350 . S
C340 C339 1.434 . S
C341 C342 1.371 . S
C341 C343 1.419 . S
C341 H345 0.930 . S
C342 C341 1.371 . S
C342 C351 1.427 1_655 S
C343 C341 1.419 . S
C343 C344 1.363 . S
C343 H346 0.929 . S
C344 C343 1.363 . S
C344 C350 1.428 1_655 S
H345 C341 0.930 . S
H346 C343 0.929 . S
S347 N348 1.613 . S
S347 N349 1.610 . S
N348 S347 1.613 . S
N348 C351 1.350 . S
N349 S347 1.610 . S
N349 C350 1.351 . S
C350 C344 1.428 1_455 S
C350 N349 1.351 . S
C350 C351 1.434 . S
C351 C342 1.427 1_455 S
C351 N348 1.350 . S
C351 C350 1.434 . S
C352 C353 1.369 1_455 S
C352 C354 1.419 1_455 S
C352 H356 0.930 . S
C353 C352 1.369 1_655 S
C353 C362 1.429 . S
C354 C352 1.419 1_655 S
C354 C355 1.363 . S
C354 H357 0.929 . S
C355 C354 1.363 . S
C355 C361 1.428 . S
H356 C352 0.930 . S
H357 C354 0.929 . S
S358 N359 1.613 . S
S358 N360 1.610 . S
N359 S358 1.613 . S
N359 C362 1.350 . S
N360 S358 1.610 . S
N360 C361 1.351 . S
C361 C355 1.428 . S
C361 N360 1.351 . S
C361 C362 1.434 . S
C362 C353 1.429 . S
C362 N359 1.350 . S
C362 C361 1.434 . S
C363 C364 1.374 . S
C363 C365 1.419 . S
C363 H367 0.930 . S
C364 C363 1.374 . S
C364 C373 1.431 . S
C365 C363 1.419 . S
C365 C366 1.363 . S
C365 H368 0.929 . S
C366 C365 1.363 . S
C366 C372 1.428 . S
H367 C363 0.930 . S
H368 C365 0.929 . S
S369 N370 1.613 1_565 S
S369 N371 1.610 . S
N370 S369 1.613 1_545 S
N370 C373 1.350 1_545 S
N371 S369 1.610 . S
N371 C372 1.351 . S
C372 C366 1.428 . S
C372 N371 1.351 . S
C372 C373 1.434 . S
C373 C364 1.431 . S
C373 N370 1.350 1_565 S
C373 C372 1.434 . S
C374 C375 1.369 . S
C374 C376 1.419 . S
C374 H378 0.930 . S
C375 C374 1.369 . S
C375 C384 1.429 . S
C376 C374 1.419 . S
C376 C377 1.363 . S
C376 H379 0.929 . S
C377 C376 1.363 . S
C377 C383 1.428 . S
H378 C374 0.930 . S
H379 C376 0.929 . S
S380 N381 1.613 . S
S380 N382 1.610 . S
N381 S380 1.613 . S
N381 C384 1.350 . S
N382 S380 1.610 . S
N382 C383 1.351 . S
C383 C377 1.428 . S
C383 N382 1.351 . S
C383 C384 1.434 . S
C384 C375 1.429 . S
C384 N381 1.350 . S
C384 C383 1.434 . S
C385 C386 1.369 . S
C385 C387 1.419 . S
C385 H389 0.930 . S
C386 C385 1.369 . S
C386 C395 1.429 . S
C387 C385 1.419 . S
C387 C388 1.363 . S
C387 H390 0.929 . S
C388 C387 1.363 . S
C388 C394 1.428 . S
H389 C385 0.930 . S
H390 C387 0.929 . S
S391 N392 1.613 1_556 S
S391 N393 1.610 1_556 S
N392 S391 1.613 1_554 S
N392 C395 1.350 . S
N393 S391 1.610 1_554 S
N393 C394 1.351 . S
C394 C388 1.428 . S
C394 N393 1.351 . S
C394 C395 1.434 . S
C395 C386 1.429 . S
C395 N392 1.350 . S
C395 C394 1.434 . S
C396 C397 1.383 . S
C396 C398 1.419 . S
C396 H400 0.930 . S
C397 C396 1.383 . S
C397 C406 1.431 . S
C398 C396 1.419 . S
C398 C399 1.363 . S
C398 H401 0.929 . S
C399 C398 1.363 . S
C399 C405 1.428 . S
H400 C396 0.930 . S
H401 C398 0.929 . S
S402 N403 1.613 1_455 S
S402 N404 1.610 . S
N403 S402 1.613 1_655 S
N403 C406 1.350 1_655 S
N404 S402 1.610 . S
N404 C405 1.351 . S
C405 C399 1.428 . S
C405 N404 1.351 . S
C405 C406 1.434 . S
C406 C397 1.431 . S
C406 N403 1.350 1_455 S
C406 C405 1.434 . S
C407 C408 1.362 1_565 S
C407 C409 1.419 1_565 S
C407 H411 0.930 . S
C408 C407 1.362 1_545 S
C408 C417 1.459 . S
C409 C407 1.419 1_545 S
C409 C410 1.363 . S
C409 H412 0.929 . S
C410 C409 1.363 . S
C410 C416 1.428 . S
H411 C407 0.930 . S
H412 C409 0.929 . S
S413 N414 1.613 . S
S413 N415 1.610 . S
N414 S413 1.613 . S
N414 C417 1.350 . S
N415 S413 1.610 . S
N415 C416 1.351 . S
C416 C410 1.428 . S
C416 N415 1.351 . S
C416 C417 1.434 . S
C417 C408 1.459 . S
C417 N414 1.350 . S
C417 C416 1.434 . S
C418 C419 1.369 . S
C418 C420 1.419 . S
C418 H422 0.930 . S
C419 C418 1.369 . S
C419 C428 1.429 . S
C420 C418 1.419 . S
C420 C421 1.363 . S
C420 H423 0.929 . S
C421 C420 1.363 . S
C421 C427 1.428 . S
H422 C418 0.930 . S
H423 C420 0.929 . S
S424 N425 1.613 . S
S424 N426 1.610 . S
N425 S424 1.613 . S
N425 C428 1.350 . S
N426 S424 1.610 . S
N426 C427 1.351 . S
C427 C421 1.428 . S
C427 N426 1.351 . S
C427 C428 1.434 . S
C428 C419 1.429 . S
C428 N425 1.350 . S
C428 C427 1.434 . S
C429 C430 1.369 . S
C429 C431 1.419 . S
C429 H433 0.930 . S
C430 C429 1.369 . S
C430 C439 1.429 . S
C431 C429 1.419 . S
C431 C432 1.363 . S
C431 H434 0.929 . S
C432 C431 1.363 . S
C432 C438 1.428 . S
H433 C429 0.930 . S
H434 C431 0.929 . S
S435 N436 1.613 . S
S435 N437 1.610 . S
N436 S435 1.613 . S
N436 C439 1.350 . S
N437 S435 1.610 . S
N437 C438 1.351 . S
C438 C432 1.428 . S
C438 N437 1.351 . S
C438 C439 1.434 . S
C439 C430 1.429 . S
C439 N436 1.350 . S
C439 C438 1.434 . S
C440 C441 1.369 1_655 S
C440 C442 1.419 . S
C440 H444 0.930 . S
C441 C440 1.369 1_455 S
C441 C450 1.429 . S
C442 C440 1.419 . S
C442 C443 1.363 1_655 S
C442 H445 0.929 . S
C443 C442 1.363 1_455 S
C443 C449 1.428 . S
H444 C440 0.930 . S
H445 C442 0.929 . S
S446 N447 1.613 . S
S446 N448 1.610 . S
N447 S446 1.613 . S
N447 C450 1.350 1_554 S
N448 S446 1.610 . S
N448 C449 1.351 1_554 S
C449 C443 1.428 . S
C449 N448 1.351 1_556 S
C449 C450 1.434 . S
C450 C441 1.429 . S
C450 N447 1.350 1_556 S
C450 C449 1.434 . S
C451 C452 1.369 . S
C451 C453 1.419 . S
C451 H455 0.933 . S
C452 C451 1.369 . S
C452 C461 1.429 1_545 S
C453 C451 1.419 . S
C453 C454 1.363 . S
C453 H456 0.929 1_556 S
C454 C453 1.363 . S
C454 C460 1.428 1_545 S
H455 C451 0.933 . S
H456 C453 0.929 1_554 S
S457 N458 1.613 . S
S457 N459 1.610 . S
N458 S457 1.613 . S
N458 C461 1.350 . S
N459 S457 1.610 . S
N459 C460 1.351 . S
C460 C454 1.428 1_565 S
C460 N459 1.351 . S
C460 C461 1.434 . S
C461 C452 1.429 1_565 S
C461 N458 1.350 . S
C461 C460 1.434 . S
C462 C463 1.369 . S
C462 C464 1.419 . S
C462 H466 0.930 . S
C463 C462 1.369 . S
C463 C472 1.429 . S
C464 C462 1.419 . S
C464 C465 1.363 . S
C464 H467 0.929 . S
C465 C464 1.363 . S
C465 C471 1.428 . S
H466 C462 0.930 . S
H467 C464 0.929 . S
S468 N469 1.613 . S
S468 N470 1.610 . S
N469 S468 1.613 . S
N469 C472 1.350 . S
N470 S468 1.610 . S
N470 C471 1.351 . S
C471 C465 1.428 . S
C471 N470 1.351 . S
C471 C472 1.434 . S
C472 C463 1.429 . S
C472 N469 1.350 . S
C472 C471 1.434 . S
C473 C474 1.369 . S
C473 C475 1.419 . S
C473 H477 0.930 . S
C474 C473 1.369 . S
C474 C483 1.429 . S
C475 C473 1.419 . S
C475 C476 1.363 . S
C475 H478 0.929 . S
C476 C475 1.363 . S
C476 C482 1.428 . S
H477 C473 0.930 . S
H478 C475 0.929 . S
S479 N480 1.613 . S
S479 N481 1.610 . S
N480 S479 1.613 . S
N480 C483 1.350 . S
N481 S479 1.610 . S
N481 C482 1.351 . S
C482 C476 1.428 . S
C482 N481 1.351 . S
C482 C483 1.434 . S
C483 C474 1.429 . S
C483 N480 1.350 . S
C483 C482 1.434 . S
C484 C485 1.369 1_455 S
C484 C486 1.419 . S
C484 H488 0.930 . S
C485 C484 1.369 1_655 S
C485 C494 1.429 . S
C486 C484 1.419 . S
C486 C487 1.363 1_455 S
C486 H489 0.929 . S
C487 C486 1.363 1_655 S
C487 C493 1.428 . S
H488 C484 0.930 . S
H489 C486 0.929 . S
S490 N491 1.613 . S
S490 N492 1.610 . S
N491 S490 1.613 . S
N491 C494 1.350 . S
N492 S490 1.610 . S
N492 C493 1.351 . S
C493 C487 1.428 . S
C493 N492 1.351 . S
C493 C494 1.434 . S
C494 C485 1.429 . S
C494 N491 1.350 . S
C494 C493 1.434 . S
C495 C496 1.369 . S
C495 C497 1.419 . S
C495 H499 0.930 . S
C496 C495 1.369 . S
C496 C505 1.429 1_565 S
C497 C495 1.419 . S
C497 C498 1.363 . S
C497 H500 0.929 . S
C498 C497 1.363 . S
C498 C504 1.417 1_565 S
H499 C495 0.930 . S
H500 C497 0.929 . S
S501 N502 1.613 1_554 S
S501 N503 1.610 1_554 S
N502 S501 1.613 1_556 S
N502 C505 1.350 . S
N503 S501 1.610 1_556 S
N503 C504 1.360 . S
C504 C498 1.417 1_545 S
C504 N503 1.360 . S
C504 C505 1.437 . S
C505 C496 1.429 1_545 S
C505 N502 1.350 . S
C505 C504 1.437 . S
C506 C507 1.369 . S
C506 C508 1.419 . S
C506 H510 0.930 . S
C507 C506 1.369 . S
C507 C516 1.429 . S
C508 C506 1.419 . S
C508 C509 1.363 . S
C508 H511 0.929 . S
C509 C508 1.363 . S
C509 C515 1.428 . S
H510 C506 0.930 . S
H511 C508 0.929 . S
S512 N513 1.613 1_554 S
S512 N514 1.610 1_554 S
N513 S512 1.613 1_556 S
N513 C516 1.350 . S
N514 S512 1.610 1_556 S
N514 C515 1.351 . S
C515 C509 1.428 . S
C515 N514 1.351 . S
C515 C516 1.434 . S
C516 C507 1.429 . S
C516 N513 1.350 . S
C516 C515 1.434 . S
C517 C518 1.369 . S
C517 C519 1.419 . S
C517 H521 0.930 . S
C518 C517 1.369 . S
C518 C527 1.429 . S
C519 C517 1.419 . S
C519 C520 1.363 . S
C519 H522 0.929 . S
C520 C519 1.363 . S
C520 C526 1.428 . S
H521 C517 0.930 . S
H522 C519 0.929 . S
S523 N524 1.613 1_554 S
S523 N525 1.610 1_554 S
N524 S523 1.613 1_556 S
N524 C527 1.350 . S
N525 S523 1.610 1_556 S
N525 C526 1.351 . S
C526 C520 1.428 . S
C526 N525 1.351 . S
C526 C527 1.434 . S
C527 C518 1.429 . S
C527 N524 1.350 . S
C527 C526 1.434 . S
C265 C82 1.746 . S
C267 C113 2.178 . S
C278 C153 2.201 . S
C276 C95 1.746 . S
C289 C193 2.214 . S
C287 C56 1.769 . S
C300 C233 2.192 1_455 S
C298 C69 1.756 . S
C311 C122 2.180 1_554 S
C309 C30 1.755 . S
C320 C43 1.791 . S
C322 C162 2.203 1_554 S
C331 C4 1.804 . S
C333 C202 2.215 1_554 S
C342 C17 1.756 1_655 S
C344 C242 2.193 1_654 S
C355 C119 0.791 . S
C353 C74 0.773 1_655 S
C366 C159 0.774 . S
C364 C87 0.792 1_565 S
C377 C199 0.777 . S
C375 C100 0.768 . S
C386 C61 0.759 . S
C388 C239 0.773 . S
C397 C22 0.790 . S
C399 C110 0.783 . S
C410 C150 0.786 . S
C408 C35 0.770 . S
C421 C190 0.765 . S
C419 C48 0.770 . S
C430 C9 0.778 . S
C432 C230 0.767 . S
C441 C73 2.245 . S
C443 C123 2.560 . S
C452 C86 2.202 . S
C454 C163 2.510 . S
C465 C203 2.491 . S
C463 C99 2.179 . S
C476 C243 2.543 . S
C474 C60 2.223 . S
C485 C21 2.245 1_655 S
C487 C114 2.568 . S
C498 C154 2.511 . S
C496 C34 2.205 1_565 S
C509 C194 2.493 . S
C507 C47 2.191 . S
C518 C8 2.239 . S
C520 C234 2.549 . S
