# Generated by pormake.
# Topology anh, (6,3)-cn, num edge types: 1
# Building blocks:
#     Node 0, Type 0, BuildingBlock: BETGAK_clean_sbu_0, # of connection points: 6
#     Node 1, Type 0, BuildingBlock: BETGAK_clean_sbu_0, # of connection points: 6
#     Node 2, Type 0, BuildingBlock: BETGAK_clean_sbu_0, # of connection points: 6
#     Node 3, Type 1, BuildingBlock: BETDAH_clean_linker_0, # of connection points: 3
#     Node 4, Type 1, BuildingBlock: BETDAH_clean_linker_0, # of connection points: 3
#     Node 5, Type 1, BuildingBlock: BETDAH_clean_linker_0, # of connection points: 3
#     Node 6, Type 1, BuildingBlock: BETDAH_clean_linker_0, # of connection points: 3
#     Node 7, Type 1, BuildingBlock: BETDAH_clean_linker_0, # of connection points: 3
#     Node 8, Type 1, BuildingBlock: BETDAH_clean_linker_0, # of connection points: 3
#     Edge 9, Type (0, 1), BuildingBlock: CIFDUS_clean_linker_0, # of connection points: 2
#     Edge 10, Type (0, 1), BuildingBlock: CIFDUS_clean_linker_0, # of connection points: 2
#     Edge 11, Type (0, 1), BuildingBlock: CIFDUS_clean_linker_0, # of connection points: 2
#     Edge 12, Type (0, 1), BuildingBlock: CIFDUS_clean_linker_0, # of connection points: 2
#     Edge 13, Type (0, 1), BuildingBlock: CIFDUS_clean_linker_0, # of connection points: 2
#     Edge 14, Type (0, 1), BuildingBlock: CIFDUS_clean_linker_0, # of connection points: 2
#     Edge 15, Type (0, 1), BuildingBlock: CIFDUS_clean_linker_0, # of connection points: 2
#     Edge 16, Type (0, 1), BuildingBlock: CIFDUS_clean_linker_0, # of connection points: 2
#     Edge 17, Type (0, 1), BuildingBlock: CIFDUS_clean_linker_0, # of connection points: 2
#     Edge 18, Type (0, 1), BuildingBlock: CIFDUS_clean_linker_0, # of connection points: 2
#     Edge 19, Type (0, 1), BuildingBlock: CIFDUS_clean_linker_0, # of connection points: 2
#     Edge 20, Type (0, 1), BuildingBlock: CIFDUS_clean_linker_0, # of connection points: 2
#     Edge 21, Type (0, 1), BuildingBlock: CIFDUS_clean_linker_0, # of connection points: 2
#     Edge 22, Type (0, 1), BuildingBlock: CIFDUS_clean_linker_0, # of connection points: 2
#     Edge 23, Type (0, 1), BuildingBlock: CIFDUS_clean_linker_0, # of connection points: 2
#     Edge 24, Type (0, 1), BuildingBlock: CIFDUS_clean_linker_0, # of connection points: 2
#     Edge 25, Type (0, 1), BuildingBlock: CIFDUS_clean_linker_0, # of connection points: 2
#     Edge 26, Type (0, 1), BuildingBlock: CIFDUS_clean_linker_0, # of connection points: 2
# Relax obj value: 0.176
# Max RMSD: 0.192
# Mean RMSD: 0.115
data_MOF--net-anh--node1-BETGAK_clean_sbu_0--node2-BETDAH_clean_linker_0--edge1-CIFDUS_clean_linker_0
_symmetry_space_group_name_H-M    P1
_symmetry_Int_Tables_number       1
_symmetry_cell_setting            triclinic
loop_
_symmetry_equiv_pos_as_xyz
'x, y, z'
_cell_length_a     27.066604
_cell_length_b     34.304107
_cell_length_c     43.106745
_cell_angle_alpha  94.358709
_cell_angle_beta   89.383466
_cell_angle_gamma 131.00451
loop_
_atom_site_label
_atom_site_type_symbol
_atom_site_fract_x
_atom_site_fract_y
_atom_site_fract_z
_atom_type_partial_charge
La0 La 0.24536 0.59305 0.15456 0.0
La1 La 0.14765 0.6044 0.17064 0.0
C2 C 0.32409 0.58612 0.12998 0.0
C3 C 0.31915 0.54082 0.12478 0.0
C4 C 0.28065 0.4998 0.14382 0.0
C5 C 0.2734 0.45565 0.13826 0.0
C6 C 0.30395 0.45143 0.11335 0.0
C7 C 0.34185 0.49231 0.09406 0.0
C8 C 0.34944 0.53674 0.09978 0.0
C9 C 0.22085 0.59119 0.21405 0.0
C10 C 0.29261 0.70612 0.16757 0.0
C11 C 1.05869 0.59827 0.19581 0.0
C12 C 0.98724 0.55995 0.19125 0.0
C13 C 0.95793 0.5191 0.16773 0.0
C14 C 0.89043 0.485 0.16135 0.0
C15 C 0.85099 0.49118 0.17837 0.0
C16 C 0.88037 0.53086 0.2029 0.0
C17 C 0.94817 0.56508 0.20927 0.0
C18 C 0.16769 0.60365 0.11049 0.0
C19 C 1.10141 0.49036 0.16056 0.0
O20 O 0.28077 0.58309 0.11388 0.0
O21 O 0.33026 0.60312 0.15916 0.0
O22 O 0.23331 0.56375 0.20029 0.0
O23 O 0.22653 0.6199 0.19524 0.0
O24 O 0.3026 0.67717 0.15182 0.0
O25 O 0.23727 0.68421 0.1817 0.0
O26 O 1.0897 0.62484 0.17195 0.0
O27 O 1.08534 0.58149 0.20767 0.0
O28 O 0.15317 0.62946 0.12454 0.0
O29 O 0.16489 0.57631 0.12957 0.0
O30 O 1.08755 0.51967 0.17046 0.0
O31 O 0.15952 0.51092 0.15028 0.0
H32 H 0.25579 0.50173 0.16293 0.0
H33 H 0.24327 0.42453 0.15326 0.0
H34 H 0.36637 0.49023 0.07484 0.0
H35 H 0.37865 0.56775 0.08464 0.0
H36 H 0.98755 0.51475 0.15352 0.0
H37 H 0.86979 0.45557 0.14194 0.0
H38 H 0.8512 0.53632 0.21658 0.0
H39 H 0.97024 0.59633 0.22764 0.0
La40 La 0.6965 0.06192 0.47846 0.0
La41 La 0.61638 0.08987 0.46564 0.0
C42 C 0.74782 0.02858 0.50006 0.0
C43 C 0.72944 0.98067 0.50972 0.0
C44 C 0.77901 0.98152 0.51998 0.0
C45 C 0.76371 0.93623 0.52814 0.0
C46 C 0.69832 0.88913 0.52625 0.0
C47 C 0.64846 0.88867 0.51645 0.0
C48 C 0.66398 0.93419 0.50823 0.0
C49 C 0.69012 0.07676 0.41982 0.0
C50 C 0.5427 0.97262 0.46316 0.0
C51 C 0.57024 0.12932 0.4481 0.0
C52 C 0.5838 0.17693 0.46027 0.0
C53 C 0.53684 0.18184 0.45621 0.0
C54 C 0.54634 0.22417 0.47123 0.0
C55 C 0.60284 0.26196 0.49067 0.0
C56 C 0.65066 0.25763 0.49375 0.0
C57 C 0.64104 0.21544 0.47888 0.0
C58 C 0.62122 0.07548 0.52444 0.0
C59 C 0.77308 0.17955 0.47689 0.0
O60 O 0.74001 0.02945 0.47033 0.0
O61 O 0.72873 0.04914 0.51733 0.0
O62 O 0.74186 0.08948 0.43356 0.0
O63 O 0.6442 0.05416 0.43808 0.0
O64 O 0.59473 0.98706 0.47923 0.0
O65 O 0.54516 1.00746 0.44994 0.0
O66 O 0.5418 0.09335 0.46741 0.0
O67 O 0.61854 0.13562 0.43483 0.0
O68 O 0.57143 0.06462 0.5101 0.0
O69 O 0.66834 0.09788 0.50664 0.0
O70 O 0.71729 0.1654 0.466 0.0
O71 O 0.77538 0.1453 0.48688 0.0
H72 H 0.82985 0.01714 0.52117 0.0
H73 H 0.80346 0.93786 0.53497 0.0
H74 H 0.5976 0.85314 0.51493 0.0
H75 H 0.62516 0.933 0.50039 0.0
H76 H 0.49196 0.15216 0.44226 0.0
H77 H 0.5084 0.22626 0.46858 0.0
H78 H 0.6952 0.28649 0.50811 0.0
H79 H 0.67763 0.21229 0.48275 0.0
La80 La 0.67529 0.60249 0.85525 0.0
La81 La 0.58622 0.48774 0.84869 0.0
C82 C 0.7381 0.69632 0.84684 0.0
C83 C 0.72938 0.73261 0.83832 0.0
C84 C 0.73879 0.76839 0.86138 0.0
C85 C 0.74046 0.80791 0.85335 0.0
C86 C 0.73337 0.81296 0.82199 0.0
C87 C 0.72121 0.7759 0.79896 0.0
C88 C 0.71952 0.73623 0.80702 0.0
C89 C 0.64928 0.55831 0.90731 0.0
C90 C 0.51836 0.53581 0.85561 0.0
C91 C 0.53071 0.39443 0.85362 0.0
C92 C 0.54221 0.36053 0.83944 0.0
C93 C 0.54697 0.35603 0.80705 0.0
C94 C 0.55881 0.32454 0.79387 0.0
C95 C 0.56696 0.29733 0.81275 0.0
C96 C 0.56294 0.30225 0.84518 0.0
C97 C 0.55036 0.3334 0.85838 0.0
C98 C 0.61066 0.52915 0.79552 0.0
C99 C 0.74471 0.55546 0.85434 0.0
O100 O 0.71875 0.67772 0.87403 0.0
O101 O 0.72538 0.66157 0.8251 0.0
O102 O 0.70652 0.60158 0.90196 0.0
O103 O 0.61008 0.54322 0.88473 0.0
O104 O 0.57682 0.58033 0.84953 0.0
O105 O 0.51315 0.49548 0.86097 0.0
O106 O 0.50936 0.40912 0.83463 0.0
O107 O 0.57656 0.43266 0.87357 0.0
O108 O 0.55608 0.48472 0.80145 0.0
O109 O 0.65135 0.54676 0.81814 0.0
O110 O 0.6844 0.50899 0.85277 0.0
O111 O 0.75293 0.59808 0.85361 0.0
H112 H 0.74708 0.76694 0.88564 0.0
H113 H 0.74878 0.8353 0.87171 0.0
H114 H 0.71594 0.77889 0.7746 0.0
H115 H 0.71281 0.70961 0.78859 0.0
H116 H 0.54191 0.37705 0.79181 0.0
H117 H 0.5626 0.3221 0.76887 0.0
H118 H 0.56872 0.2815 0.86028 0.0
H119 H 0.54724 0.33648 0.8834 0.0
H120 H 0.60219 0.99256 0.23959 0.0
H121 H 0.76289 0.15096 0.22271 0.0
H122 H 0.64482 0.03532 0.14561 0.0
C123 C 0.63101 0.02199 0.22341 0.0
C124 C 0.61632 1.00755 0.1913 0.0
C125 C 0.6839 0.07339 0.23494 0.0
C126 C 0.72238 0.11125 0.21388 0.0
C127 C 0.70809 0.09772 0.18154 0.0
C128 C 0.65566 0.04573 0.17049 0.0
N129 N 0.74506 0.13504 0.15944 0.0
C130 C 0.794 0.18855 0.16656 0.0
H131 H 0.60154 0.46528 0.60679 0.0
H132 H 0.68323 0.6236 0.61119 0.0
H133 H 0.68947 0.55209 0.52674 0.0
C134 C 0.62608 0.5008 0.59567 0.0
C135 C 0.64315 0.50304 0.56457 0.0
C136 C 0.64086 0.54424 0.61268 0.0
C137 C 0.67189 0.59007 0.59818 0.0
C138 C 0.68852 0.59243 0.56693 0.0
C139 C 0.675 0.54933 0.55057 0.0
N140 N 0.72003 0.63775 0.5513 0.0
C141 C 0.71347 0.67423 0.55849 0.0
H142 H 1.03923 0.57741 0.92731 0.0
H143 H 0.19012 0.56873 0.91599 0.0
H144 H 1.06127 0.5276 0.83751 0.0
C145 C 1.06494 0.56989 0.91222 0.0
C146 C 1.04334 0.55287 0.88069 0.0
C147 C 0.11685 0.57502 0.92516 0.0
C148 C 0.14982 0.56414 0.90604 0.0
C149 C 0.13118 0.54753 0.87425 0.0
C150 C 1.07676 0.54104 0.86186 0.0
N151 N 0.16508 0.53648 0.85445 0.0
C152 C 0.22266 0.54439 0.86141 0.0
H153 H 0.27703 0.67567 0.39347 0.0
H154 H 0.11975 0.51674 0.41071 0.0
H155 H 0.22444 0.63572 0.48742 0.0
C156 C 0.24559 0.64694 0.40969 0.0
C157 C 0.25624 0.66256 0.44169 0.0
C158 C 0.19678 0.59465 0.3983 0.0
C159 C 0.15758 0.55705 0.41943 0.0
C160 C 0.16717 0.57177 0.45171 0.0
C161 C 0.21705 0.62444 0.4626 0.0
N162 N 0.12808 0.53502 0.47392 0.0
C163 C 1.07285 0.48263 0.46706 0.0
H164 H 0.66702 0.1501 0.70624 0.0
H165 H 0.71742 0.05565 0.7158 0.0
H166 H 0.70195 0.12666 0.79732 0.0
C167 C 0.67853 0.13253 0.72103 0.0
C168 C 0.68264 0.14232 0.75354 0.0
C169 C 0.69121 0.10154 0.70723 0.0
C170 C 0.70762 0.07955 0.72629 0.0
C171 C 0.71131 0.0888 0.75892 0.0
C172 C 0.69943 0.12033 0.77216 0.0
N173 N 0.72817 0.06838 0.77953 0.0
C174 C 0.72443 0.02626 0.77258 0.0
H175 H 0.59383 0.39281 0.05107 0.0
H176 H 0.39904 0.28146 0.00786 0.0
H177 H 0.44832 0.24841 0.09025 0.0
C178 C 0.54493 0.35504 0.04953 0.0
C179 C 0.52722 0.3214 0.07243 0.0
C180 C 0.49967 0.34133 0.02575 0.0
C181 C 0.43567 0.29301 0.02549 0.0
C182 C 0.41684 0.25986 0.0489 0.0
C183 C 0.46331 0.27331 0.07171 0.0
N184 N 0.34947 0.21874 0.053 0.0
C185 C 0.3106 0.23159 0.05692 0.0
H186 H 0.27751 0.39482 0.05838 0.0
H187 H 0.31633 0.40429 0.15672 0.0
H188 H 0.31208 0.33095 0.14823 0.0
H189 H 0.30757 0.26947 0.11227 0.0
H190 H 0.27347 0.26187 0.01384 0.0
H191 H 0.26473 0.32862 0.02277 0.0
C192 C 0.28486 0.38065 0.07791 0.0
C193 C 0.29765 0.4051 0.10808 0.0
C194 C 0.28269 0.33861 0.07282 0.0
C195 C 0.30607 0.38592 0.13329 0.0
C196 C 0.30384 0.34411 0.12846 0.0
C197 C 0.29611 0.28141 0.09299 0.0
C198 C 0.28964 0.2605 0.0626 0.0
C199 C 0.29318 0.32069 0.0983 0.0
C200 C 0.27691 0.27691 0.0375 0.0
C201 C 0.27279 0.31543 0.04259 0.0
H202 H 0.79302 0.25916 0.45075 0.0
H203 H 0.89259 0.22515 0.50441 0.0
H204 H 0.99426 0.31521 0.50515 0.0
H205 H 1.05564 0.40463 0.49117 0.0
H206 H 0.95743 0.43912 0.43732 0.0
H207 H 0.85505 0.34828 0.43583 0.0
C208 C 0.83687 0.2714 0.46268 0.0
C209 C 0.83465 0.23505 0.4776 0.0
C210 C 0.89578 0.32351 0.46282 0.0
C211 C 0.8924 0.25192 0.49273 0.0
C212 C 0.95083 0.30358 0.49316 0.0
C213 C 1.01184 0.39195 0.47887 0.0
C214 C 1.01382 0.4281 0.46416 0.0
C215 C 0.95321 0.33975 0.47829 0.0
C216 C 0.95692 0.41167 0.44857 0.0
C217 C 0.8984 0.35982 0.44785 0.0
H218 H 0.66125 0.81554 0.7793 0.0
H219 H 0.82778 0.91345 0.84526 0.0
H220 H 0.84246 0.98875 0.83364 0.0
H221 H 0.80496 0.02644 0.80697 0.0
H222 H 0.63786 0.93018 0.7418 0.0
H223 H 0.627 0.85475 0.75024 0.0
C224 C 0.70109 0.85346 0.79087 0.0
C225 C 0.74273 0.85862 0.81348 0.0
C226 C 0.70933 0.89691 0.78407 0.0
C227 C 0.79406 0.90807 0.82832 0.0
C228 C 0.80286 0.95131 0.82153 0.0
C229 C 0.76696 0.98903 0.79424 0.0
C230 C 0.72269 0.98346 0.77362 0.0
C231 C 0.76039 0.94609 0.79978 0.0
C232 C 0.67287 0.93505 0.75752 0.0
C233 C 0.66649 0.89204 0.76253 0.0
H234 H 0.76098 0.38814 0.15833 0.0
H235 H 0.78561 0.52603 0.17373 0.0
H236 H 0.68086 0.48174 0.14603 0.0
H237 H 0.59185 0.40931 0.11042 0.0
H238 H 0.5696 0.27321 0.09166 0.0
H239 H 0.6637 0.3111 0.1277 0.0
C240 C 0.74296 0.40823 0.15593 0.0
C241 C 0.78159 0.46056 0.1677 0.0
C242 C 0.68362 0.38309 0.13899 0.0
C243 C 0.7569 0.48572 0.16508 0.0
C244 C 0.69726 0.4606 0.14892 0.0
C245 C 0.60721 0.38776 0.11464 0.0
C246 C 0.57517 0.33919 0.09816 0.0
C247 C 0.66174 0.41017 0.13472 0.0
C248 C 0.59413 0.31088 0.10408 0.0
C249 C 0.648 0.33264 0.12449 0.0
H250 H 0.50985 0.89048 0.49263 0.0
H251 H 0.44035 0.92826 0.42117 0.0
H252 H 0.3446 0.83674 0.40973 0.0
H253 H 0.28231 0.7455 0.41823 0.0
H254 H 0.35019 0.7061 0.48924 0.0
H255 H 0.44401 0.7984 0.50287 0.0
C256 C 0.47386 0.87872 0.47453 0.0
C257 C 0.48305 0.91655 0.45761 0.0
C258 C 0.41828 0.82557 0.46803 0.0
C259 C 0.43502 0.90036 0.43459 0.0
C260 C 0.38007 0.84784 0.42796 0.0
C261 C 0.31753 0.75706 0.43677 0.0
C262 C 0.30933 0.71874 0.45252 0.0
C263 C 0.37149 0.81009 0.44428 0.0
C264 C 0.35493 0.73463 0.47685 0.0
C265 C 0.40891 0.78746 0.48448 0.0
H266 H 0.65991 0.29399 0.83112 0.0
H267 H 0.50278 0.22641 0.76211 0.0
H268 H 0.52472 0.17279 0.73762 0.0
H269 H 0.58789 0.14455 0.73608 0.0
H270 H 0.74785 0.21456 0.80398 0.0
H271 H 0.72466 0.26694 0.82891 0.0
C272 C 0.63019 0.26719 0.81088 0.0
C273 C 0.57973 0.26407 0.79848 0.0
C274 C 0.64343 0.23678 0.79675 0.0
C275 C 0.54222 0.22977 0.77195 0.0
C276 C 0.55461 0.199 0.75799 0.0
C277 C 0.61823 0.17169 0.75611 0.0
C278 C 0.66939 0.1753 0.76814 0.0
C279 C 0.60522 0.20229 0.77014 0.0
C280 C 0.70745 0.21021 0.79446 0.0
C281 C 0.6945 0.24048 0.80866 0.0
H282 H 0.75151 0.87493 0.57262 0.0
H283 H 0.61225 0.7939 0.49355 0.0
H284 H 0.59893 0.71727 0.49914 0.0
H285 H 0.63657 0.67692 0.52258 0.0
H286 H 0.78011 0.75921 0.59957 0.0
H287 H 0.78266 0.83199 0.59869 0.0
C288 C 0.71806 0.84043 0.55668 0.0
C289 C 0.68353 0.84045 0.53248 0.0
C290 C 0.71192 0.79695 0.55952 0.0
C291 C 0.63918 0.79497 0.51249 0.0
C292 C 0.63194 0.75122 0.51549 0.0
C293 C 0.6674 0.71053 0.53947 0.0
C294 C 0.70808 0.71333 0.56111 0.0
C295 C 0.66938 0.75231 0.53835 0.0
C296 C 0.74833 0.75669 0.58283 0.0
C297 C 0.74992 0.79819 0.58221 0.0
H298 H 0.76508 0.48495 0.83932 0.0
H299 H 0.86415 0.64023 0.88037 0.0
H300 H 0.96277 0.65356 0.89063 0.0
H301 H 1.02251 0.62176 0.88987 0.0
H302 H 0.92932 0.46919 0.84658 0.0
H303 H 0.82943 0.45502 0.83508 0.0
C304 C 0.80824 0.52182 0.8504 0.0
C305 C 0.8056 0.56145 0.85901 0.0
C306 C 0.86704 0.53008 0.85582 0.0
C307 C 0.8633 0.60884 0.87318 0.0
C308 C 0.92038 0.61662 0.8792 0.0
C309 C 0.98072 0.58544 0.87759 0.0
C310 C 0.98477 0.5467 0.86921 0.0
C311 C 0.9231 0.57765 0.87081 0.0
C312 C 0.92915 0.5002 0.85316 0.0
C313 C 0.87132 0.49189 0.84679 0.0
H314 H 0.41224 0.76936 0.14053 0.0
H315 H 0.29327 0.77292 0.20623 0.0
H316 H 0.38085 0.86576 0.21793 0.0
H317 H 0.49292 0.94586 0.21171 0.0
H318 H 0.61341 0.94511 0.146 0.0
H319 H 0.5237 0.85203 0.13184 0.0
C320 C 0.40537 0.7905 0.15727 0.0
C321 C 0.34598 0.76362 0.17257 0.0
C322 C 0.45635 0.84466 0.16394 0.0
C323 C 0.3381 0.79205 0.19403 0.0
C324 C 0.38836 0.84541 0.20086 0.0
C325 C 0.49949 0.92535 0.1942 0.0
C326 C 0.55999 0.95234 0.18014 0.0
C327 C 0.4479 0.87201 0.18627 0.0
C328 C 0.56728 0.92535 0.1571 0.0
C329 C 0.51609 0.87201 0.14916 0.0
H330 H 0.57817 0.3218 0.47098 0.0
H331 H 0.64579 0.29764 0.55143 0.0
H332 H 0.66323 0.36929 0.58138 0.0
H333 H 0.66175 0.44011 0.58454 0.0
H334 H 0.59298 0.46418 0.50461 0.0
H335 H 0.57336 0.39128 0.47472 0.0
C336 C 0.59612 0.33195 0.49515 0.0
C337 C 0.61115 0.30467 0.50883 0.0
C338 C 0.60601 0.37327 0.51233 0.0
C339 C 0.63494 0.31859 0.54013 0.0
C340 C 0.64458 0.35938 0.55736 0.0
C341 C 0.6417 0.429 0.5607 0.0
C342 C 0.62893 0.45755 0.54682 0.0
C343 C 0.63066 0.38717 0.54367 0.0
C344 C 0.60395 0.44317 0.51573 0.0
C345 C 0.59246 0.40138 0.49866 0.0
H346 H 0.50647 0.61149 0.8544 0.0
H347 H 0.39085 0.44784 0.86182 0.0
H348 H 0.29185 0.43605 0.86519 0.0
H349 H 0.23484 0.47094 0.86526 0.0
H350 H 0.34902 0.63423 0.8586 0.0
H351 H 0.44945 0.64697 0.85595 0.0
C352 C 0.45974 0.57316 0.85676 0.0
C353 C 0.45767 0.53066 0.85772 0.0
C354 C 0.40154 0.56637 0.85899 0.0
C355 C 0.39555 0.48161 0.86096 0.0
C356 C 0.33816 0.47467 0.86292 0.0
C357 C 0.28176 0.50947 0.86357 0.0
C358 C 0.28358 0.55167 0.86247 0.0
C359 C 0.34011 0.51659 0.86194 0.0
C360 C 0.34539 0.60101 0.85985 0.0
C361 C 0.40321 0.60829 0.85818 0.0
H362 H 0.97659 0.43198 0.18133 0.0
H363 H 0.11131 0.41869 0.13954 0.0
H364 H 1.02918 0.32464 0.13889 0.0
H365 H 0.91786 0.24515 0.14911 0.0
H366 H 0.78263 0.25723 0.19075 0.0
H367 H 0.86578 0.35229 0.19272 0.0
C368 C 0.98806 0.40857 0.17209 0.0
C369 C 1.05032 0.43281 0.16038 0.0
C370 C 0.94039 0.35404 0.17186 0.0
C371 C 1.06402 0.4015 0.14862 0.0
C372 C 1.01699 0.34749 0.14826 0.0
C373 C 0.90708 0.2688 0.15889 0.0
C374 C 0.84476 0.24467 0.17 0.0
C375 C 0.95499 0.32328 0.15972 0.0
C376 C 0.83069 0.2753 0.18233 0.0
C377 C 0.87812 0.32955 0.18332 0.0
H378 H 0.16503 0.65602 0.06765 0.0
H379 H 0.16617 0.53224 0.07625 0.0
H380 H 0.1555 0.5148 0.01944 0.0
H381 H 0.13841 0.53117 0.96733 0.0
H382 H 0.13544 0.65425 0.95944 0.0
H383 H 0.15414 0.67544 0.01579 0.0
C384 C 0.1634 0.62546 0.05707 0.0
C385 C 0.16622 0.59539 0.07613 0.0
C386 C 0.15649 0.6153 0.02445 0.0
C387 C 0.16429 0.55604 0.06209 0.0
C388 C 0.15794 0.54594 0.0296 0.0
C389 C 0.1429 0.56314 0.97792 0.0
C390 C 0.13504 0.59083 0.95915 0.0
C391 C 0.15306 0.57486 0.01053 0.0
C392 C 0.14041 0.63186 0.97333 0.0
C393 C 0.15123 0.64408 0.00557 0.0
H394 H 0.78228 0.11885 0.37603 0.0
H395 H 0.578 0.0384 0.38855 0.0
H396 H 0.55927 0.03386 0.33272 0.0
H397 H 0.59887 0.04744 0.27995 0.0
H398 H 0.80256 0.12758 0.26646 0.0
H399 H 0.82398 0.13854 0.32294 0.0
C400 C 0.73388 0.10071 0.36647 0.0
C401 C 0.68144 0.07839 0.3863 0.0
C402 C 0.72336 0.09823 0.33418 0.0
C403 C 0.61906 0.05545 0.37375 0.0
C404 C 0.60826 0.05283 0.3418 0.0
C405 C 0.64805 0.0676 0.28942 0.0
C406 C 0.69893 0.08624 0.26911 0.0
C407 C 0.65972 0.07324 0.32176 0.0
C408 C 0.76264 0.11306 0.28166 0.0
C409 C 0.77476 0.11897 0.31393 0.0
H410 H 0.52741 0.48399 0.74518 0.0
H411 H 0.73057 0.60938 0.7741 0.0
H412 H 0.75705 0.62885 0.71973 0.0
H413 H 0.72312 0.60487 0.66341 0.0
H414 H 0.52078 0.47536 0.63547 0.0
H415 H 0.49298 0.46272 0.69003 0.0
C416 C 0.57746 0.5159 0.73964 0.0
C417 C 0.62705 0.5451 0.76353 0.0
C418 C 0.59234 0.52581 0.70847 0.0
C419 C 0.69157 0.58643 0.75607 0.0
C420 C 0.70669 0.59737 0.72499 0.0
C421 C 0.67288 0.57451 0.66944 0.0
C422 C 0.6239 0.54102 0.64565 0.0
C423 C 0.65764 0.56664 0.70092 0.0
C424 C 0.55909 0.50137 0.65352 0.0
C425 C 0.54328 0.49414 0.68464 0.0
H426 H 0.72527 0.10608 0.56185 0.0
H427 H 0.52349 0.03882 0.56328 0.0
H428 H 0.52618 0.03802 0.61954 0.0
H429 H 0.58689 0.06062 0.66883 0.0
H430 H 0.78682 0.12445 0.66884 0.0
H431 H 0.78362 0.12131 0.61167 0.0
C432 C 0.6818 0.09064 0.57449 0.0
C433 C 0.62444 0.07289 0.55838 0.0
C434 C 0.68328 0.08957 0.60712 0.0
C435 C 0.56847 0.05311 0.57509 0.0
C436 C 0.56982 0.05253 0.60732 0.0
C437 C 0.62943 0.07323 0.65621 0.0
C438 C 0.68703 0.09294 0.67281 0.0
C439 C 0.62709 0.07126 0.6236 0.0
C440 C 0.74184 0.10889 0.65638 0.0
C441 C 0.74011 0.10743 0.62377 0.0
H442 H 0.53232 0.48797 0.93085 0.0
H443 H 0.73291 0.55314 0.93738 0.0
H444 H 0.70354 0.48964 0.97357 0.0
H445 H 0.61961 0.41368 0.00138 0.0
H446 H 0.42137 0.35567 -0.00098 0.0
H447 H 0.4507 0.41716 0.96218 0.0
C448 C 0.56965 0.48853 0.94054 0.0
C449 C 0.63454 0.52494 0.93174 0.0
C450 C 0.55255 0.45258 0.96147 0.0
C451 C 0.68276 0.52567 0.94426 0.0
C452 C 0.66582 0.48915 0.96467 0.0
C453 C 0.58282 0.41482 0.99334 0.0
C454 C 0.51793 0.37908 0.00292 0.0
C455 C 0.60068 0.45216 0.97324 0.0
C456 C 0.47112 0.3811 0.99151 0.0
C457 C 0.48803 0.41692 0.9707 0.0
H458 H 0.20492 0.53087 0.25805 0.0
H459 H 0.20995 0.65683 0.2447 0.0
H460 H 0.19633 0.66537 0.30005 0.0
H461 H 0.19009 0.64116 0.3527 0.0
H462 H 0.18727 0.51686 0.36744 0.0
H463 H 0.19123 0.50262 0.31117 0.0
C464 C 0.20267 0.55993 0.26734 0.0
C465 C 0.20902 0.59347 0.2474 0.0
C466 C 0.19497 0.5648 0.2994 0.0
C467 C 0.2055 0.63071 0.25959 0.0
C468 C 0.19768 0.63564 0.29125 0.0
C469 C 0.18992 0.61072 0.34355 0.0
C470 C 0.18909 0.58048 0.36417 0.0
C471 C 0.19342 0.6035 0.31142 0.0
C472 C 0.18765 0.54053 0.352 0.0
C473 C 0.19052 0.53272 0.31987 0.0
loop_
_geom_bond_atom_site_label_1
_geom_bond_atom_site_label_2
_geom_bond_distance
_geom_bond_site_symmetry_2
_ccdc_geom_bond_type
La0 C2 2.928 . S
La0 O20 2.521 . S
La0 O21 2.628 . S
La0 O22 2.554 . S
La0 O23 2.757 . S
La0 O24 2.470 . S
La0 O29 2.482 . S
La0 O31 2.503 1_455 S
La1 C11 2.928 1_455 S
La1 O23 2.482 . S
La1 O25 2.503 . S
La1 O26 2.521 1_455 S
La1 O27 2.628 1_455 S
La1 O28 2.554 . S
La1 O29 2.757 . S
La1 O30 2.470 1_455 S
C2 La0 2.928 . S
C2 C3 1.503 . S
C2 O20 1.261 . S
C2 O21 1.243 . S
C3 C2 1.503 . S
C3 C4 1.394 . S
C3 C8 1.373 . S
C4 C3 1.394 . S
C4 C5 1.380 . S
C4 H32 0.930 . S
C5 C4 1.380 . S
C5 C6 1.376 . S
C5 H33 0.930 . S
C6 C5 1.376 . S
C6 C7 1.370 . S
C7 C6 1.370 . S
C7 C8 1.396 . S
C7 H34 0.929 . S
C8 C3 1.373 . S
C8 C7 1.396 . S
C8 H35 0.929 . S
C9 O22 1.240 . S
C9 O23 1.289 . S
C10 O24 1.258 . S
C10 O25 1.256 . S
C11 La1 2.928 1_655 S
C11 C12 1.503 . S
C11 O26 1.261 . S
C11 O27 1.243 . S
C12 C11 1.503 . S
C12 C13 1.394 . S
C12 C17 1.373 . S
C13 C12 1.394 . S
C13 C14 1.380 . S
C13 H36 0.930 . S
C14 C13 1.380 . S
C14 C15 1.376 . S
C14 H37 0.930 . S
C15 C14 1.376 . S
C15 C16 1.370 . S
C16 C15 1.370 . S
C16 C17 1.396 . S
C16 H38 0.929 . S
C17 C12 1.373 . S
C17 C16 1.396 . S
C17 H39 0.929 . S
C18 O28 1.240 . S
C18 O29 1.289 . S
C19 O30 1.258 . S
C19 O31 1.256 . S
O20 La0 2.521 . S
O20 C2 1.261 . S
O21 La0 2.628 . S
O21 C2 1.243 . S
O22 La0 2.554 . S
O22 C9 1.240 . S
O23 La0 2.757 . S
O23 La1 2.482 . S
O23 C9 1.289 . S
O24 La0 2.470 . S
O24 C10 1.258 . S
O25 La1 2.503 . S
O25 C10 1.256 . S
O26 La1 2.521 1_655 S
O26 C11 1.261 . S
O27 La1 2.628 1_655 S
O27 C11 1.243 . S
O28 La1 2.554 . S
O28 C18 1.240 . S
O29 La0 2.482 . S
O29 La1 2.757 . S
O29 C18 1.289 . S
O30 La1 2.470 1_655 S
O30 C19 1.258 . S
O31 La0 2.503 1_655 S
O31 C19 1.256 . S
H32 C4 0.930 . S
H33 C5 0.930 . S
H34 C7 0.929 . S
H35 C8 0.929 . S
H36 C13 0.930 . S
H37 C14 0.930 . S
H38 C16 0.929 . S
H39 C17 0.929 . S
La40 C42 2.928 1_545 S
La40 O60 2.521 1_545 S
La40 O61 2.628 1_545 S
La40 O62 2.554 . S
La40 O63 2.757 . S
La40 O64 2.470 1_545 S
La40 O69 2.482 . S
La40 O71 2.503 . S
La41 C51 2.928 . S
La41 O63 2.482 . S
La41 O65 2.503 1_545 S
La41 O66 2.521 . S
La41 O67 2.628 . S
La41 O68 2.554 . S
La41 O69 2.757 . S
La41 O70 2.470 . S
C42 La40 2.928 1_565 S
C42 C43 1.503 . S
C42 O60 1.261 . S
C42 O61 1.243 . S
C43 C42 1.503 . S
C43 C44 1.394 . S
C43 C48 1.373 . S
C44 C43 1.394 . S
C44 C45 1.380 . S
C44 H72 0.930 . S
C45 C44 1.380 . S
C45 C46 1.376 . S
C45 H73 0.930 . S
C46 C45 1.376 . S
C46 C47 1.370 . S
C47 C46 1.370 . S
C47 C48 1.396 . S
C47 H74 0.929 . S
C48 C43 1.373 . S
C48 C47 1.396 . S
C48 H75 0.929 . S
C49 O62 1.240 . S
C49 O63 1.289 . S
C50 O64 1.258 . S
C50 O65 1.256 . S
C51 La41 2.928 . S
C51 C52 1.503 . S
C51 O66 1.261 . S
C51 O67 1.243 . S
C52 C51 1.503 . S
C52 C53 1.394 . S
C52 C57 1.373 . S
C53 C52 1.394 . S
C53 C54 1.380 . S
C53 H76 0.930 . S
C54 C53 1.380 . S
C54 C55 1.376 . S
C54 H77 0.930 . S
C55 C54 1.376 . S
C55 C56 1.370 . S
C56 C55 1.370 . S
C56 C57 1.396 . S
C56 H78 0.929 . S
C57 C52 1.373 . S
C57 C56 1.396 . S
C57 H79 0.929 . S
C58 O68 1.240 . S
C58 O69 1.289 . S
C59 O70 1.258 . S
C59 O71 1.256 . S
O60 La40 2.521 1_565 S
O60 C42 1.261 . S
O61 La40 2.628 1_565 S
O61 C42 1.243 . S
O62 La40 2.554 . S
O62 C49 1.240 . S
O63 La40 2.757 . S
O63 La41 2.482 . S
O63 C49 1.289 . S
O64 La40 2.470 1_565 S
O64 C50 1.258 . S
O65 La41 2.503 1_565 S
O65 C50 1.256 . S
O66 La41 2.521 . S
O66 C51 1.261 . S
O67 La41 2.628 . S
O67 C51 1.243 . S
O68 La41 2.554 . S
O68 C58 1.240 . S
O69 La40 2.482 . S
O69 La41 2.757 . S
O69 C58 1.289 . S
O70 La41 2.470 . S
O70 C59 1.258 . S
O71 La40 2.503 . S
O71 C59 1.256 . S
H72 C44 0.930 . S
H73 C45 0.930 . S
H74 C47 0.929 . S
H75 C48 0.929 . S
H76 C53 0.930 . S
H77 C54 0.930 . S
H78 C56 0.929 . S
H79 C57 0.929 . S
La80 C82 2.928 . S
La80 O100 2.521 . S
La80 O101 2.628 . S
La80 O102 2.554 . S
La80 O103 2.757 . S
La80 O104 2.470 . S
La80 O109 2.482 . S
La80 O111 2.503 . S
La81 C91 2.928 . S
La81 O103 2.482 . S
La81 O105 2.503 . S
La81 O106 2.521 . S
La81 O107 2.628 . S
La81 O108 2.554 . S
La81 O109 2.757 . S
La81 O110 2.470 . S
C82 La80 2.928 . S
C82 C83 1.503 . S
C82 O100 1.261 . S
C82 O101 1.243 . S
C83 C82 1.503 . S
C83 C84 1.394 . S
C83 C88 1.373 . S
C84 C83 1.394 . S
C84 C85 1.380 . S
C84 H112 0.930 . S
C85 C84 1.380 . S
C85 C86 1.376 . S
C85 H113 0.930 . S
C86 C85 1.376 . S
C86 C87 1.370 . S
C87 C86 1.370 . S
C87 C88 1.396 . S
C87 H114 0.929 . S
C88 C83 1.373 . S
C88 C87 1.396 . S
C88 H115 0.929 . S
C89 O102 1.240 . S
C89 O103 1.289 . S
C90 O104 1.258 . S
C90 O105 1.256 . S
C91 La81 2.928 . S
C91 C92 1.503 . S
C91 O106 1.261 . S
C91 O107 1.243 . S
C92 C91 1.503 . S
C92 C93 1.394 . S
C92 C97 1.373 . S
C93 C92 1.394 . S
C93 C94 1.380 . S
C93 H116 0.930 . S
C94 C93 1.380 . S
C94 C95 1.376 . S
C94 H117 0.930 . S
C95 C94 1.376 . S
C95 C96 1.370 . S
C96 C95 1.370 . S
C96 C97 1.396 . S
C96 H118 0.929 . S
C97 C92 1.373 . S
C97 C96 1.396 . S
C97 H119 0.929 . S
C98 O108 1.240 . S
C98 O109 1.289 . S
C99 O110 1.258 . S
C99 O111 1.256 . S
O100 La80 2.521 . S
O100 C82 1.261 . S
O101 La80 2.628 . S
O101 C82 1.243 . S
O102 La80 2.554 . S
O102 C89 1.240 . S
O103 La80 2.757 . S
O103 La81 2.482 . S
O103 C89 1.289 . S
O104 La80 2.470 . S
O104 C90 1.258 . S
O105 La81 2.503 . S
O105 C90 1.256 . S
O106 La81 2.521 . S
O106 C91 1.261 . S
O107 La81 2.628 . S
O107 C91 1.243 . S
O108 La81 2.554 . S
O108 C98 1.240 . S
O109 La80 2.482 . S
O109 La81 2.757 . S
O109 C98 1.289 . S
O110 La81 2.470 . S
O110 C99 1.258 . S
O111 La80 2.503 . S
O111 C99 1.256 . S
H112 C84 0.930 . S
H113 C85 0.930 . S
H114 C87 0.929 . S
H115 C88 0.929 . S
H116 C93 0.930 . S
H117 C94 0.930 . S
H118 C96 0.929 . S
H119 C97 0.929 . S
H120 C123 0.929 . S
H121 C126 0.929 . S
H122 C128 0.930 . S
C123 H120 0.929 . S
C123 C124 1.398 . S
C123 C125 1.396 1_565 S
C124 C123 1.398 . S
C124 C128 1.407 1_565 S
C125 C123 1.396 1_545 S
C125 C126 1.394 . S
C126 H121 0.929 . S
C126 C125 1.394 . S
C126 C127 1.382 . S
C127 C126 1.382 . S
C127 C128 1.392 . S
C127 N129 1.420 . S
C128 H122 0.930 . S
C128 C124 1.407 1_545 S
C128 C127 1.392 . S
N129 C127 1.420 . S
N129 C130 1.244 . S
C130 N129 1.244 . S
H131 C134 0.929 . S
H132 C137 0.929 . S
H133 C139 0.930 . S
C134 H131 0.929 . S
C134 C135 1.398 . S
C134 C136 1.396 . S
C135 C134 1.398 . S
C135 C139 1.407 . S
C136 C134 1.396 . S
C136 C137 1.394 . S
C137 H132 0.929 . S
C137 C136 1.394 . S
C137 C138 1.382 . S
C138 C137 1.382 . S
C138 C139 1.392 . S
C138 N140 1.420 . S
C139 H133 0.930 . S
C139 C135 1.407 . S
C139 C138 1.392 . S
N140 C138 1.420 . S
N140 C141 1.244 . S
C141 N140 1.244 . S
H142 C145 0.929 1_655 S
H143 C148 0.929 . S
H144 C150 0.930 . S
C145 H142 0.929 1_455 S
C145 C146 1.398 . S
C145 C147 1.396 . S
C146 C145 1.398 . S
C146 C150 1.407 . S
C147 C145 1.396 . S
C147 C148 1.394 . S
C148 H143 0.929 . S
C148 C147 1.394 . S
C148 C149 1.382 . S
C149 C148 1.382 . S
C149 C150 1.392 . S
C149 N151 1.420 . S
C150 H144 0.930 . S
C150 C146 1.407 . S
C150 C149 1.392 . S
N151 C149 1.420 . S
N151 C152 1.244 . S
C152 N151 1.244 . S
H153 C156 0.929 . S
H154 C159 0.929 . S
H155 C161 0.930 . S
C156 H153 0.929 . S
C156 C157 1.398 . S
C156 C158 1.396 . S
C157 C156 1.398 . S
C157 C161 1.407 . S
C158 C156 1.396 . S
C158 C159 1.394 1_455 S
C159 H154 0.929 . S
C159 C158 1.394 1_655 S
C159 C160 1.382 . S
C160 C159 1.382 . S
C160 C161 1.392 1_655 S
C160 N162 1.420 . S
C161 H155 0.930 . S
C161 C157 1.407 . S
C161 C160 1.392 1_455 S
N162 C160 1.420 . S
N162 C163 1.244 . S
C163 N162 1.244 . S
H164 C167 0.929 . S
H165 C170 0.929 1_565 S
H166 C172 0.930 . S
C167 H164 0.929 . S
C167 C168 1.398 . S
C167 C169 1.396 . S
C168 C167 1.398 . S
C168 C172 1.407 . S
C169 C167 1.396 . S
C169 C170 1.394 . S
C170 H165 0.929 1_545 S
C170 C169 1.394 . S
C170 C171 1.382 . S
C171 C170 1.382 . S
C171 C172 1.392 . S
C171 N173 1.420 1_545 S
C172 H166 0.930 . S
C172 C168 1.407 . S
C172 C171 1.392 . S
N173 C171 1.420 1_565 S
N173 C174 1.244 . S
C174 N173 1.244 . S
H175 C178 0.929 . S
H176 C181 0.929 . S
H177 C183 0.930 . S
C178 H175 0.929 . S
C178 C179 1.398 . S
C178 C180 1.396 . S
C179 C178 1.398 . S
C179 C183 1.407 . S
C180 C178 1.396 . S
C180 C181 1.394 . S
C181 H176 0.929 . S
C181 C180 1.394 . S
C181 C182 1.382 . S
C182 C181 1.382 . S
C182 C183 1.392 . S
C182 N184 1.420 . S
C183 H177 0.930 . S
C183 C179 1.407 . S
C183 C182 1.392 . S
N184 C182 1.420 . S
N184 C185 1.244 . S
C185 N184 1.244 . S
H186 C192 0.930 . S
H187 C195 0.930 . S
H188 C196 0.930 . S
H189 C197 0.930 . S
H190 C200 0.930 . S
H191 C201 0.930 . S
C192 H186 0.930 . S
C192 C193 1.355 . S
C192 C194 1.415 . S
C193 C192 1.355 . S
C193 C195 1.419 . S
C194 C192 1.415 . S
C194 C199 1.425 . S
C194 C201 1.409 . S
C195 H187 0.930 . S
C195 C193 1.419 . S
C195 C196 1.362 . S
C196 H188 0.930 . S
C196 C195 1.362 . S
C196 C199 1.409 . S
C197 H189 0.930 . S
C197 C198 1.355 . S
C197 C199 1.415 . S
C198 C197 1.355 . S
C198 C200 1.419 . S
C199 C194 1.425 . S
C199 C196 1.409 . S
C199 C197 1.415 . S
C200 H190 0.930 . S
C200 C198 1.419 . S
C200 C201 1.362 . S
C201 H191 0.930 . S
C201 C194 1.409 . S
C201 C200 1.362 . S
H202 C208 0.930 . S
H203 C211 0.930 . S
H204 C212 0.930 . S
H205 C213 0.930 . S
H206 C216 0.930 . S
H207 C217 0.930 . S
C208 H202 0.930 . S
C208 C209 1.355 . S
C208 C210 1.415 . S
C209 C208 1.355 . S
C209 C211 1.419 . S
C210 C208 1.415 . S
C210 C215 1.425 . S
C210 C217 1.409 . S
C211 H203 0.930 . S
C211 C209 1.419 . S
C211 C212 1.362 . S
C212 H204 0.930 . S
C212 C211 1.362 . S
C212 C215 1.409 . S
C213 H205 0.930 . S
C213 C214 1.355 . S
C213 C215 1.415 . S
C214 C213 1.355 . S
C214 C216 1.419 . S
C215 C210 1.425 . S
C215 C212 1.409 . S
C215 C213 1.415 . S
C216 H206 0.930 . S
C216 C214 1.419 . S
C216 C217 1.362 . S
C217 H207 0.930 . S
C217 C210 1.409 . S
C217 C216 1.362 . S
H218 C224 0.930 . S
H219 C227 0.930 . S
H220 C228 0.930 . S
H221 C229 0.930 . S
H222 C232 0.930 . S
H223 C233 0.930 . S
C224 H218 0.930 . S
C224 C225 1.355 . S
C224 C226 1.415 . S
C225 C224 1.355 . S
C225 C227 1.419 . S
C226 C224 1.415 . S
C226 C231 1.425 . S
C226 C233 1.409 . S
C227 H219 0.930 . S
C227 C225 1.419 . S
C227 C228 1.362 . S
C228 H220 0.930 . S
C228 C227 1.362 . S
C228 C231 1.409 . S
C229 H221 0.930 . S
C229 C230 1.355 . S
C229 C231 1.415 . S
C230 C229 1.355 . S
C230 C232 1.419 . S
C231 C226 1.425 . S
C231 C228 1.409 . S
C231 C229 1.415 . S
C232 H222 0.930 . S
C232 C230 1.419 . S
C232 C233 1.362 . S
C233 H223 0.930 . S
C233 C226 1.409 . S
C233 C232 1.362 . S
H234 C240 0.930 . S
H235 C243 0.930 . S
H236 C244 0.930 . S
H237 C245 0.930 . S
H238 C248 0.930 . S
H239 C249 0.930 . S
C240 H234 0.930 . S
C240 C241 1.355 . S
C240 C242 1.415 . S
C241 C240 1.355 . S
C241 C243 1.419 . S
C242 C240 1.415 . S
C242 C247 1.425 . S
C242 C249 1.409 . S
C243 H235 0.930 . S
C243 C241 1.419 . S
C243 C244 1.362 . S
C244 H236 0.930 . S
C244 C243 1.362 . S
C244 C247 1.409 . S
C245 H237 0.930 . S
C245 C246 1.355 . S
C245 C247 1.415 . S
C246 C245 1.355 . S
C246 C248 1.419 . S
C247 C242 1.425 . S
C247 C244 1.409 . S
C247 C245 1.415 . S
C248 H238 0.930 . S
C248 C246 1.419 . S
C248 C249 1.362 . S
C249 H239 0.930 . S
C249 C242 1.409 . S
C249 C248 1.362 . S
H250 C256 0.930 . S
H251 C259 0.930 . S
H252 C260 0.930 . S
H253 C261 0.930 . S
H254 C264 0.930 . S
H255 C265 0.930 . S
C256 H250 0.930 . S
C256 C257 1.355 . S
C256 C258 1.415 . S
C257 C256 1.355 . S
C257 C259 1.419 . S
C258 C256 1.415 . S
C258 C263 1.425 . S
C258 C265 1.409 . S
C259 H251 0.930 . S
C259 C257 1.419 . S
C259 C260 1.362 . S
C260 H252 0.930 . S
C260 C259 1.362 . S
C260 C263 1.409 . S
C261 H253 0.930 . S
C261 C262 1.355 . S
C261 C263 1.415 . S
C262 C261 1.355 . S
C262 C264 1.419 . S
C263 C258 1.425 . S
C263 C260 1.409 . S
C263 C261 1.415 . S
C264 H254 0.930 . S
C264 C262 1.419 . S
C264 C265 1.362 . S
C265 H255 0.930 . S
C265 C258 1.409 . S
C265 C264 1.362 . S
H266 C272 0.930 . S
H267 C275 0.930 . S
H268 C276 0.930 . S
H269 C277 0.930 . S
H270 C280 0.930 . S
H271 C281 0.930 . S
C272 H266 0.930 . S
C272 C273 1.355 . S
C272 C274 1.415 . S
C273 C272 1.355 . S
C273 C275 1.419 . S
C274 C272 1.415 . S
C274 C279 1.425 . S
C274 C281 1.409 . S
C275 H267 0.930 . S
C275 C273 1.419 . S
C275 C276 1.362 . S
C276 H268 0.930 . S
C276 C275 1.362 . S
C276 C279 1.409 . S
C277 H269 0.930 . S
C277 C278 1.355 . S
C277 C279 1.415 . S
C278 C277 1.355 . S
C278 C280 1.419 . S
C279 C274 1.425 . S
C279 C276 1.409 . S
C279 C277 1.415 . S
C280 H270 0.930 . S
C280 C278 1.419 . S
C280 C281 1.362 . S
C281 H271 0.930 . S
C281 C274 1.409 . S
C281 C280 1.362 . S
H282 C288 0.930 . S
H283 C291 0.930 . S
H284 C292 0.930 . S
H285 C293 0.930 . S
H286 C296 0.930 . S
H287 C297 0.930 . S
C288 H282 0.930 . S
C288 C289 1.355 . S
C288 C290 1.415 . S
C289 C288 1.355 . S
C289 C291 1.419 . S
C290 C288 1.415 . S
C290 C295 1.425 . S
C290 C297 1.409 . S
C291 H283 0.930 . S
C291 C289 1.419 . S
C291 C292 1.362 . S
C292 H284 0.930 . S
C292 C291 1.362 . S
C292 C295 1.409 . S
C293 H285 0.930 . S
C293 C294 1.355 . S
C293 C295 1.415 . S
C294 C293 1.355 . S
C294 C296 1.419 . S
C295 C290 1.425 . S
C295 C292 1.409 . S
C295 C293 1.415 . S
C296 H286 0.930 . S
C296 C294 1.419 . S
C296 C297 1.362 . S
C297 H287 0.930 . S
C297 C290 1.409 . S
C297 C296 1.362 . S
H298 C304 0.930 . S
H299 C307 0.930 . S
H300 C308 0.930 . S
H301 C309 0.930 . S
H302 C312 0.930 . S
H303 C313 0.930 . S
C304 H298 0.930 . S
C304 C305 1.355 . S
C304 C306 1.415 . S
C305 C304 1.355 . S
C305 C307 1.419 . S
C306 C304 1.415 . S
C306 C311 1.425 . S
C306 C313 1.409 . S
C307 H299 0.930 . S
C307 C305 1.419 . S
C307 C308 1.362 . S
C308 H300 0.930 . S
C308 C307 1.362 . S
C308 C311 1.409 . S
C309 H301 0.930 . S
C309 C310 1.355 . S
C309 C311 1.415 . S
C310 C309 1.355 . S
C310 C312 1.419 . S
C311 C306 1.425 . S
C311 C308 1.409 . S
C311 C309 1.415 . S
C312 H302 0.930 . S
C312 C310 1.419 . S
C312 C313 1.362 . S
C313 H303 0.930 . S
C313 C306 1.409 . S
C313 C312 1.362 . S
H314 C320 0.930 . S
H315 C323 0.930 . S
H316 C324 0.930 . S
H317 C325 0.930 . S
H318 C328 0.930 . S
H319 C329 0.930 . S
C320 H314 0.930 . S
C320 C321 1.355 . S
C320 C322 1.415 . S
C321 C320 1.355 . S
C321 C323 1.419 . S
C322 C320 1.415 . S
C322 C327 1.425 . S
C322 C329 1.409 . S
C323 H315 0.930 . S
C323 C321 1.419 . S
C323 C324 1.362 . S
C324 H316 0.930 . S
C324 C323 1.362 . S
C324 C327 1.409 . S
C325 H317 0.930 . S
C325 C326 1.355 . S
C325 C327 1.415 . S
C326 C325 1.355 . S
C326 C328 1.419 . S
C327 C322 1.425 . S
C327 C324 1.409 . S
C327 C325 1.415 . S
C328 H318 0.930 . S
C328 C326 1.419 . S
C328 C329 1.362 . S
C329 H319 0.930 . S
C329 C322 1.409 . S
C329 C328 1.362 . S
H330 C336 0.930 . S
H331 C339 0.930 . S
H332 C340 0.930 . S
H333 C341 0.930 . S
H334 C344 0.930 . S
H335 C345 0.930 . S
C336 H330 0.930 . S
C336 C337 1.355 . S
C336 C338 1.415 . S
C337 C336 1.355 . S
C337 C339 1.419 . S
C338 C336 1.415 . S
C338 C343 1.425 . S
C338 C345 1.409 . S
C339 H331 0.930 . S
C339 C337 1.419 . S
C339 C340 1.362 . S
C340 H332 0.930 . S
C340 C339 1.362 . S
C340 C343 1.409 . S
C341 H333 0.930 . S
C341 C342 1.355 . S
C341 C343 1.415 . S
C342 C341 1.355 . S
C342 C344 1.419 . S
C343 C338 1.425 . S
C343 C340 1.409 . S
C343 C341 1.415 . S
C344 H334 0.930 . S
C344 C342 1.419 . S
C344 C345 1.362 . S
C345 H335 0.930 . S
C345 C338 1.409 . S
C345 C344 1.362 . S
H346 C352 0.930 . S
H347 C355 0.930 . S
H348 C356 0.930 . S
H349 C357 0.930 . S
H350 C360 0.930 . S
H351 C361 0.930 . S
C352 H346 0.930 . S
C352 C353 1.355 . S
C352 C354 1.415 . S
C353 C352 1.355 . S
C353 C355 1.419 . S
C354 C352 1.415 . S
C354 C359 1.425 . S
C354 C361 1.409 . S
C355 H347 0.930 . S
C355 C353 1.419 . S
C355 C356 1.362 . S
C356 H348 0.930 . S
C356 C355 1.362 . S
C356 C359 1.409 . S
C357 H349 0.930 . S
C357 C358 1.355 . S
C357 C359 1.415 . S
C358 C357 1.355 . S
C358 C360 1.419 . S
C359 C354 1.425 . S
C359 C356 1.409 . S
C359 C357 1.415 . S
C360 H350 0.930 . S
C360 C358 1.419 . S
C360 C361 1.362 . S
C361 H351 0.930 . S
C361 C354 1.409 . S
C361 C360 1.362 . S
H362 C368 0.930 . S
H363 C371 0.930 . S
H364 C372 0.930 . S
H365 C373 0.930 . S
H366 C376 0.930 . S
H367 C377 0.930 . S
C368 H362 0.930 . S
C368 C369 1.355 . S
C368 C370 1.415 . S
C369 C368 1.355 . S
C369 C371 1.419 . S
C370 C368 1.415 . S
C370 C375 1.425 . S
C370 C377 1.409 . S
C371 H363 0.930 . S
C371 C369 1.419 . S
C371 C372 1.362 . S
C372 H364 0.930 . S
C372 C371 1.362 . S
C372 C375 1.409 . S
C373 H365 0.930 . S
C373 C374 1.355 . S
C373 C375 1.415 . S
C374 C373 1.355 . S
C374 C376 1.419 . S
C375 C370 1.425 . S
C375 C372 1.409 . S
C375 C373 1.415 . S
C376 H366 0.930 . S
C376 C374 1.419 . S
C376 C377 1.362 . S
C377 H367 0.930 . S
C377 C370 1.409 . S
C377 C376 1.362 . S
H378 C384 0.934 . S
H379 C387 0.930 . S
H380 C388 0.930 . S
H381 C389 0.930 . S
H382 C392 0.930 . S
H383 C393 0.930 1_655 S
C384 H378 0.934 . S
C384 C385 1.355 . S
C384 C386 1.415 . S
C385 C384 1.355 . S
C385 C387 1.419 . S
C386 C384 1.415 . S
C386 C391 1.425 . S
C386 C393 1.409 1_554 S
C387 H379 0.930 . S
C387 C385 1.419 . S
C387 C388 1.362 . S
C388 H380 0.930 . S
C388 C387 1.362 . S
C388 C391 1.409 . S
C389 H381 0.930 . S
C389 C390 1.355 . S
C389 C391 1.415 1_556 S
C390 C389 1.355 . S
C390 C392 1.419 . S
C391 C386 1.425 . S
C391 C388 1.409 . S
C391 C389 1.415 1_554 S
C392 H382 0.930 . S
C392 C390 1.419 . S
C392 C393 1.362 . S
C393 H383 0.930 1_455 S
C393 C386 1.409 1_556 S
C393 C392 1.362 . S
H394 C400 0.930 . S
H395 C403 0.930 . S
H396 C404 0.930 . S
H397 C405 0.930 . S
H398 C408 0.930 . S
H399 C409 0.930 . S
C400 H394 0.930 . S
C400 C401 1.355 1_565 S
C400 C402 1.415 1_565 S
C401 C400 1.355 1_545 S
C401 C403 1.419 . S
C402 C400 1.415 1_545 S
C402 C407 1.425 . S
C402 C409 1.409 1_545 S
C403 H395 0.930 . S
C403 C401 1.419 . S
C403 C404 1.362 . S
C404 H396 0.930 . S
C404 C403 1.362 . S
C404 C407 1.409 . S
C405 H397 0.930 . S
C405 C406 1.355 . S
C405 C407 1.415 . S
C406 C405 1.355 . S
C406 C408 1.419 1_545 S
C407 C402 1.425 . S
C407 C404 1.409 . S
C407 C405 1.415 . S
C408 H398 0.930 . S
C408 C406 1.419 1_565 S
C408 C409 1.362 . S
C409 H399 0.930 . S
C409 C402 1.409 1_565 S
C409 C408 1.362 . S
H410 C416 0.930 . S
H411 C419 0.930 . S
H412 C420 0.930 . S
H413 C421 0.930 . S
H414 C424 0.930 . S
H415 C425 0.930 . S
C416 H410 0.930 . S
C416 C417 1.355 . S
C416 C418 1.415 . S
C417 C416 1.355 . S
C417 C419 1.419 . S
C418 C416 1.415 . S
C418 C423 1.425 . S
C418 C425 1.409 . S
C419 H411 0.930 . S
C419 C417 1.419 . S
C419 C420 1.362 . S
C420 H412 0.930 . S
C420 C419 1.362 . S
C420 C423 1.409 . S
C421 H413 0.930 . S
C421 C422 1.355 . S
C421 C423 1.415 . S
C422 C421 1.355 . S
C422 C424 1.419 . S
C423 C418 1.425 . S
C423 C420 1.409 . S
C423 C421 1.415 . S
C424 H414 0.930 . S
C424 C422 1.419 . S
C424 C425 1.362 . S
C425 H415 0.930 . S
C425 C418 1.409 . S
C425 C424 1.362 . S
H426 C432 0.930 1_565 S
H427 C435 0.930 . S
H428 C436 0.930 . S
H429 C437 0.930 . S
H430 C440 0.930 1_565 S
H431 C441 0.930 . S
C432 H426 0.930 1_545 S
C432 C433 1.355 . S
C432 C434 1.415 . S
C433 C432 1.355 . S
C433 C435 1.419 . S
C434 C432 1.415 . S
C434 C439 1.425 . S
C434 C441 1.409 1_545 S
C435 H427 0.930 . S
C435 C433 1.419 . S
C435 C436 1.362 . S
C436 H428 0.930 . S
C436 C435 1.362 . S
C436 C439 1.409 . S
C437 H429 0.930 . S
C437 C438 1.355 . S
C437 C439 1.415 . S
C438 C437 1.355 . S
C438 C440 1.419 . S
C439 C434 1.425 . S
C439 C436 1.409 . S
C439 C437 1.415 . S
C440 H430 0.930 1_545 S
C440 C438 1.419 . S
C440 C441 1.362 1_545 S
C441 H431 0.930 . S
C441 C434 1.409 1_565 S
C441 C440 1.362 1_565 S
H442 C448 0.930 . S
H443 C451 0.930 . S
H444 C452 0.930 . S
H445 C453 0.930 . S
H446 C456 0.930 . S
H447 C457 0.933 . S
C448 H442 0.930 . S
C448 C449 1.355 . S
C448 C450 1.415 . S
C449 C448 1.355 . S
C449 C451 1.419 . S
C450 C448 1.415 . S
C450 C455 1.425 . S
C450 C457 1.415 . S
C451 H443 0.930 . S
C451 C449 1.419 . S
C451 C452 1.362 . S
C452 H444 0.930 . S
C452 C451 1.362 . S
C452 C455 1.409 . S
C453 H445 0.930 . S
C453 C454 1.355 . S
C453 C455 1.415 1_554 S
C454 C453 1.355 . S
C454 C456 1.419 . S
C455 C450 1.425 . S
C455 C452 1.409 . S
C455 C453 1.415 1_556 S
C456 H446 0.930 . S
C456 C454 1.419 . S
C456 C457 1.354 1_554 S
C457 H447 0.933 . S
C457 C450 1.415 . S
C457 C456 1.354 1_556 S
H458 C464 0.930 . S
H459 C467 0.930 . S
H460 C468 0.930 . S
H461 C469 0.930 . S
H462 C472 0.930 . S
H463 C473 0.930 . S
C464 H458 0.930 . S
C464 C465 1.355 . S
C464 C466 1.415 . S
C465 C464 1.355 . S
C465 C467 1.419 1_455 S
C466 C464 1.415 . S
C466 C471 1.443 . S
C466 C473 1.409 . S
C467 H459 0.930 . S
C467 C465 1.419 1_655 S
C467 C468 1.362 . S
C468 H460 0.930 . S
C468 C467 1.362 . S
C468 C471 1.397 1_655 S
C469 H461 0.930 . S
C469 C470 1.355 1_655 S
C469 C471 1.410 1_655 S
C470 C469 1.355 1_455 S
C470 C472 1.419 . S
C471 C466 1.443 . S
C471 C468 1.397 1_455 S
C471 C469 1.410 1_455 S
C472 H462 0.930 . S
C472 C470 1.419 . S
C472 C473 1.362 . S
C473 H463 0.930 . S
C473 C466 1.409 . S
C473 C472 1.362 . S
C193 C6 0.884 . S
C198 C185 0.849 . S
C209 C59 1.938 . S
C214 C163 1.905 . S
C225 C86 1.305 . S
C230 C174 1.357 . S
C241 C15 0.369 . S
C246 C179 0.294 . S
C262 C157 1.822 . S
C257 C50 1.889 . S
C278 C168 1.204 . S
C273 C95 1.188 . S
C289 C46 1.347 . S
C294 C141 1.327 . S
C305 C99 3.059 . S
C310 C146 3.023 1_655 S
C321 C10 1.871 . S
C326 C124 1.899 . S
C342 C135 1.183 . S
C337 C55 1.191 . S
C358 C152 3.028 . S
C353 C90 3.070 . S
C369 C19 1.928 . S
C374 C130 1.904 . S
C390 C147 1.730 . S
C385 C18 1.724 . S
C401 C49 1.369 . S
C406 C125 1.441 . S
C417 C98 1.527 . S
C422 C136 1.519 . S
C438 C169 1.518 . S
C433 C58 1.465 . S
C454 C180 1.231 . S
C449 C89 1.243 . S
C465 C9 1.387 . S
C470 C158 1.406 . S
