# Generated by pormake.
# Topology dag, (6,3)-cn, num edge types: 1
# Building blocks:
#     Node 0, Type 0, BuildingBlock: MIDCAF_clean_sbu_0, # of connection points: 6
#     Node 1, Type 0, BuildingBlock: MIDCAF_clean_sbu_0, # of connection points: 6
#     Node 2, Type 0, BuildingBlock: MIDCAF_clean_sbu_0, # of connection points: 6
#     Node 3, Type 0, BuildingBlock: MIDCAF_clean_sbu_0, # of connection points: 6
#     Node 4, Type 1, BuildingBlock: BETDAH_clean_linker_0, # of connection points: 3
#     Node 5, Type 1, BuildingBlock: BETDAH_clean_linker_0, # of connection points: 3
#     Node 6, Type 1, BuildingBlock: BETDAH_clean_linker_0, # of connection points: 3
#     Node 7, Type 1, BuildingBlock: BETDAH_clean_linker_0, # of connection points: 3
#     Node 8, Type 1, BuildingBlock: BETDAH_clean_linker_0, # of connection points: 3
#     Node 9, Type 1, BuildingBlock: BETDAH_clean_linker_0, # of connection points: 3
#     Node 10, Type 1, BuildingBlock: BETDAH_clean_linker_0, # of connection points: 3
#     Node 11, Type 1, BuildingBlock: BETDAH_clean_linker_0, # of connection points: 3
#     Edge 12, Type (0, 1), BuildingBlock: XIVTED_clean_linker_0, # of connection points: 2
#     Edge 13, Type (0, 1), BuildingBlock: XIVTED_clean_linker_0, # of connection points: 2
#     Edge 14, Type (0, 1), BuildingBlock: XIVTED_clean_linker_0, # of connection points: 2
#     Edge 15, Type (0, 1), BuildingBlock: XIVTED_clean_linker_0, # of connection points: 2
#     Edge 16, Type (0, 1), BuildingBlock: XIVTED_clean_linker_0, # of connection points: 2
#     Edge 17, Type (0, 1), BuildingBlock: XIVTED_clean_linker_0, # of connection points: 2
#     Edge 18, Type (0, 1), BuildingBlock: XIVTED_clean_linker_0, # of connection points: 2
#     Edge 19, Type (0, 1), BuildingBlock: XIVTED_clean_linker_0, # of connection points: 2
#     Edge 20, Type (0, 1), BuildingBlock: XIVTED_clean_linker_0, # of connection points: 2
#     Edge 21, Type (0, 1), BuildingBlock: XIVTED_clean_linker_0, # of connection points: 2
#     Edge 22, Type (0, 1), BuildingBlock: XIVTED_clean_linker_0, # of connection points: 2
#     Edge 23, Type (0, 1), BuildingBlock: XIVTED_clean_linker_0, # of connection points: 2
#     Edge 24, Type (0, 1), BuildingBlock: XIVTED_clean_linker_0, # of connection points: 2
#     Edge 25, Type (0, 1), BuildingBlock: XIVTED_clean_linker_0, # of connection points: 2
#     Edge 26, Type (0, 1), BuildingBlock: XIVTED_clean_linker_0, # of connection points: 2
#     Edge 27, Type (0, 1), BuildingBlock: XIVTED_clean_linker_0, # of connection points: 2
#     Edge 28, Type (0, 1), BuildingBlock: XIVTED_clean_linker_0, # of connection points: 2
#     Edge 29, Type (0, 1), BuildingBlock: XIVTED_clean_linker_0, # of connection points: 2
#     Edge 30, Type (0, 1), BuildingBlock: XIVTED_clean_linker_0, # of connection points: 2
#     Edge 31, Type (0, 1), BuildingBlock: XIVTED_clean_linker_0, # of connection points: 2
#     Edge 32, Type (0, 1), BuildingBlock: XIVTED_clean_linker_0, # of connection points: 2
#     Edge 33, Type (0, 1), BuildingBlock: XIVTED_clean_linker_0, # of connection points: 2
#     Edge 34, Type (0, 1), BuildingBlock: XIVTED_clean_linker_0, # of connection points: 2
#     Edge 35, Type (0, 1), BuildingBlock: XIVTED_clean_linker_0, # of connection points: 2
# Relax obj value: 0.133
# Max RMSD: 0.141
# Mean RMSD: 0.110
data_MOF--net-dag--node1-MIDCAF_clean_sbu_0--node2-BETDAH_clean_linker_0--edge1-XIVTED_clean_linker_0
_symmetry_space_group_name_H-M    P1
_symmetry_Int_Tables_number       1
_symmetry_cell_setting            triclinic
loop_
_symmetry_equiv_pos_as_xyz
'x, y, z'
_cell_length_a     40.5627
_cell_length_b     42.160494
_cell_length_c     31.169794
_cell_angle_alpha  92.578193
_cell_angle_beta   90.154976
_cell_angle_gamma 90.686115
loop_
_atom_site_label
_atom_site_type_symbol
_atom_site_fract_x
_atom_site_fract_y
_atom_site_fract_z
_atom_type_partial_charge
Zn0 Zn 0.13269 0.82589 0.12345 0.0
Zn1 Zn 0.16957 0.8254 0.96648 0.0
Zn2 Zn 0.1514 0.82607 0.04312 0.0
C3 C 0.17579 0.88794 0.99352 0.0
C4 C 0.10567 0.80494 0.96013 0.0
O5 O 0.17846 0.78733 0.07614 0.0
O6 O 0.15453 0.78716 0.13985 0.0
C7 C 0.16037 0.88496 0.11301 0.0
O8 O 0.16979 0.87526 0.0297 0.0
O9 O 0.17499 0.87098 0.9592 0.0
O10 O 0.13108 0.80519 0.93689 0.0
O11 O 0.10806 0.81319 1.00047 0.0
O12 O 0.15161 0.8677 0.14308 0.0
O13 O 0.16076 0.87371 0.0738 0.0
O14 O 0.09733 0.81857 0.0431 0.0
O15 O 0.08469 0.82278 0.11227 0.0
C16 C 0.07582 0.81929 0.07352 0.0
O17 O 0.19143 0.79017 0.035 0.0
O18 O 0.21033 0.80147 0.97096 0.0
C19 C 0.17471 0.77523 0.11322 0.0
C20 C 0.21282 0.7863 1.00469 0.0
Zn21 Zn 0.60189 0.62462 0.47228 0.0
Zn22 Zn 0.63827 0.669 0.65277 0.0
Zn23 Zn 0.62025 0.65344 0.52922 0.0
C24 C 0.62722 0.60331 0.61264 0.0
C25 C 0.58844 0.69512 0.58515 0.0
O26 O 0.65262 0.67225 0.47968 0.0
O27 O 0.61317 0.66201 0.4325 0.0
C28 C 0.66473 0.6085 0.48572 0.0
O29 O 0.62341 0.61506 0.57538 0.0
O30 O 0.63278 0.62074 0.64682 0.0
O31 O 0.61435 0.68323 0.59999 0.0
O32 O 0.58363 0.68905 0.54521 0.0
O33 O 0.63742 0.5938 0.48637 0.0
O34 O 0.66469 0.63876 0.49253 0.0
O35 O 0.56865 0.66651 0.512 0.0
O36 O 0.55542 0.61781 0.48984 0.0
C37 C 0.54657 0.64541 0.50164 0.0
O38 O 0.66751 0.6785 0.52455 0.0
O39 O 0.65124 0.67516 0.58992 0.0
C40 C 0.63906 0.67769 0.44316 0.0
C41 C 0.67369 0.68367 0.56448 0.0
Zn42 Zn 0.82394 0.14466 0.91866 0.0
Zn43 Zn 0.8211 0.15988 0.13425 0.0
Zn44 Zn 0.81733 0.15561 0.05216 0.0
C45 C 0.88517 0.16717 0.09902 0.0
C46 C 0.79426 0.10012 0.11708 0.0
O47 O 0.78133 0.18882 0.02621 0.0
O48 O 0.80239 0.16144 0.97386 0.0
C49 C 0.88171 0.16464 0.97724 0.0
O50 O 0.86955 0.16543 0.06305 0.0
O51 O 0.87002 0.1644 0.13402 0.0
O52 O 0.8009 0.11816 0.14949 0.0
O53 O 0.7997 0.10989 0.07902 0.0
O54 O 0.86949 0.15938 0.93949 0.0
O55 O 0.86495 0.16279 1.0129 0.0
O56 O 0.8036 0.10629 0.03579 0.0
O57 O 0.80988 0.12734 0.97524 0.0
C58 C 0.80628 0.10215 0.99527 0.0
O59 O 0.78466 0.19623 0.07065 0.0
O60 O 0.79514 0.19947 0.14037 0.0
C61 C 0.78257 0.18297 0.9858 0.0
C62 C 0.78114 0.21029 0.10793 0.0
Zn63 Zn 0.36907 0.33961 0.63637 0.0
Zn64 Zn 0.30522 0.33298 0.44196 0.0
Zn65 Zn 0.34499 0.32837 0.56227 0.0
C66 C 0.36235 0.37504 0.47389 0.0
C67 C 0.28024 0.33814 0.53049 0.0
O68 O 0.30282 0.32853 0.60873 0.0
O69 O 0.32837 0.33623 0.67112 0.0
C70 C 0.3987 0.28381 0.60006 0.0
O71 O 0.36239 0.36207 0.5111 0.0
O72 O 0.34113 0.36761 0.44445 0.0
O73 O 0.29168 0.31924 0.50168 0.0
O74 O 0.29232 0.33527 0.56792 0.0
O75 O 0.39917 0.3029 0.63252 0.0
O76 O 0.37816 0.28786 0.56932 0.0
O77 O 0.36927 0.37346 0.55721 0.0
O78 O 0.38676 0.3825 0.62376 0.0
C79 C 0.38342 0.39159 0.58593 0.0
O80 O 0.35698 0.28183 0.53209 0.0
O81 O 0.32936 0.30886 0.48792 0.0
C82 C 0.30205 0.33088 0.65016 0.0
C83 C 0.34403 0.28335 0.49499 0.0
H84 H 0.11995 0.10146 0.15988 0.0
H85 H 0.20557 0.1292 0.23319 0.0
H86 H 0.12963 0.19742 0.21268 0.0
C87 C 0.13371 0.12012 0.17722 0.0
C88 C 0.12052 0.15064 0.18304 0.0
C89 C 0.16452 0.11264 0.19403 0.0
C90 C 0.18194 0.13525 0.21973 0.0
C91 C 0.16889 0.16586 0.22688 0.0
C92 C 0.13869 0.17348 0.20788 0.0
N93 N 0.18543 0.18984 0.25242 0.0
C94 C 0.21375 0.18551 0.27662 0.0
H95 H 0.40628 0.63538 0.666 0.0
H96 H 0.38395 0.66607 0.79613 0.0
H97 H 0.34991 0.57467 0.74554 0.0
C98 C 0.39361 0.6316 0.696 0.0
C99 C 0.37732 0.6027 0.70136 0.0
C100 C 0.39604 0.65461 0.72985 0.0
C101 C 0.38107 0.64886 0.76948 0.0
C102 C 0.36366 0.6201 0.77478 0.0
C103 C 0.36201 0.59729 0.74067 0.0
N104 N 0.34945 0.61215 0.81454 0.0
C105 C 0.34201 0.63378 0.84794 0.0
H106 H 0.82934 0.88191 0.09171 0.0
H107 H 0.83874 0.7898 0.1443 0.0
H108 H 0.75969 0.85056 0.1852 0.0
C109 C 0.82049 0.86362 0.11227 0.0
C110 C 0.79258 0.86957 0.13794 0.0
C111 C 0.838 0.83522 0.11461 0.0
C112 C 0.82564 0.81181 0.14114 0.0
C113 C 0.79732 0.81676 0.16596 0.0
C114 C 0.78103 0.84606 0.16513 0.0
N115 N 0.78693 0.79156 0.19165 0.0
C116 C 0.76198 0.79218 0.22213 0.0
H117 H 0.59745 0.35455 0.61063 0.0
H118 H 0.645 0.27897 0.67505 0.0
H119 H 0.68818 0.37252 0.67947 0.0
C120 C 0.61799 0.34601 0.62902 0.0
C121 C 0.6424 0.3676 0.64413 0.0
C122 C 0.61874 0.31388 0.63962 0.0
C123 C 0.64419 0.30354 0.66635 0.0
C124 C 0.66934 0.32486 0.68036 0.0
C125 C 0.66855 0.35642 0.66855 0.0
N126 N 0.69666 0.31521 0.70479 0.0
C127 C 0.69452 0.29562 0.73935 0.0
H128 H 0.59826 0.45154 0.37556 0.0
H129 H 0.65243 0.42945 0.25961 0.0
H130 H 0.55079 0.40065 0.26934 0.0
C131 C 0.59942 0.44012 0.34373 0.0
C132 C 0.57098 0.42552 0.32582 0.0
C133 C 0.62878 0.44198 0.31998 0.0
C134 C 0.63001 0.42788 0.27825 0.0
C135 C 0.6018 0.41267 0.26021 0.0
C136 C 0.5724 0.41221 0.28372 0.0
N137 N 0.60169 0.39881 0.21786 0.0
C138 C 0.62798 0.38197 0.2001 0.0
H139 H 0.11824 0.11573 0.97544 0.0
H140 H 0.13602 0.19979 0.90449 0.0
H141 H 0.21053 0.12852 0.91129 0.0
C142 C 0.1346 0.13044 0.95711 0.0
C143 C 0.16574 0.11886 0.94563 0.0
C144 C 0.12345 0.15959 0.94243 0.0
C145 C 0.14424 0.17736 0.91606 0.0
C146 C 0.17588 0.16619 0.90529 0.0
C147 C 0.18636 0.1372 0.92035 0.0
N148 N 0.19815 0.18306 0.87941 0.0
C149 C 0.19038 0.20774 0.8532 0.0
H150 H 0.3141 0.56301 0.45614 0.0
H151 H 0.33432 0.61412 0.34225 0.0
H152 H 0.26654 0.53555 0.3366 0.0
C153 C 0.30957 0.56692 0.42262 0.0
C154 C 0.28831 0.54597 0.39924 0.0
C155 C 0.3272 0.59117 0.4026 0.0
C156 C 0.32055 0.59637 0.35902 0.0
C157 C 0.29824 0.57653 0.33562 0.0
C158 C 0.2827 0.55129 0.35561 0.0
N159 N 0.29472 0.57859 0.29056 0.0
C160 C 0.28494 0.60594 0.27096 0.0
H161 H 0.88931 0.88096 0.88811 0.0
H162 H 0.88468 0.819 0.77433 0.0
H163 H 0.82584 0.90274 0.78297 0.0
C164 C 0.87833 0.87438 0.8572 0.0
C165 C 0.85547 0.8948 0.8392 0.0
C166 C 0.88929 0.84703 0.8341 0.0
C167 C 0.87613 0.83962 0.79288 0.0
C168 C 0.85337 0.85997 0.77458 0.0
C169 C 0.84333 0.8873 0.79771 0.0
N170 N 0.84237 0.85539 0.73153 0.0
C171 C 0.83421 0.82609 0.71202 0.0
H172 H 0.13584 0.93484 0.07224 0.0
H173 H 0.18103 0.08934 0.11507 0.0
H174 H 0.19732 0.91155 0.17899 0.0
H175 H 0.17517 0.06367 0.24712 0.0
H176 H 0.18584 0.0332 0.09297 0.0
H177 H 0.14495 -0.00873 0.09068 0.0
C178 C 0.15186 0.94175 0.09903 0.0
C179 C 0.16702 0.9188 0.12307 0.0
C180 C 0.18395 0.03988 0.1268 0.0
C181 C 0.17718 0.98301 0.14483 0.0
C182 C 0.18174 0.07182 0.13945 0.0
C183 C 0.17756 0.08086 0.18288 0.0
C184 C 0.18161 0.01687 0.1578 0.0
C185 C 0.17845 0.05743 0.21334 0.0
C186 C 0.15712 0.97385 0.1095 0.0
C187 C 0.18609 0.92877 0.15895 0.0
N188 N 0.17996 0.02624 0.20016 0.0
N189 N 0.1906 0.96029 0.16894 0.0
H190 H 0.58786 0.70039 0.67307 0.0
H191 H 0.39349 0.69941 0.66966 0.0
H192 H 0.5274 0.71546 0.56188 0.0
H193 H 0.45242 0.66843 0.77464 0.0
H194 H 0.44212 0.7254 0.64042 0.0
H195 H 0.53936 0.70741 0.71871 0.0
C196 C 0.56454 0.70584 0.65831 0.0
C197 C 0.56147 0.70647 0.61348 0.0
C198 C 0.44427 0.71388 0.67065 0.0
C199 C 0.50591 0.71451 0.66553 0.0
C200 C 0.41641 0.69941 0.68761 0.0
C201 C 0.41921 0.68138 0.72416 0.0
C202 C 0.4751 0.70987 0.69016 0.0
C203 C 0.44937 0.68196 0.74621 0.0
C204 C 0.53685 0.70988 0.68442 0.0
C205 C 0.53076 0.71414 0.59622 0.0
N206 N 0.47646 0.69516 0.7282 0.0
N207 N 0.50405 0.71728 0.6222 0.0
H208 H 0.76328 0.05889 0.05868 0.0
H209 H 0.78349 0.91043 0.20729 0.0
H210 H 0.79843 0.066 0.18957 0.0
H211 H 0.77138 0.90247 0.06981 0.0
H212 H 0.77433 0.96777 0.20529 0.0
H213 H 0.7526 0.00221 0.06625 0.0
C214 C 0.76867 0.04859 0.08906 0.0
C215 C 0.78287 0.06703 0.12304 0.0
C216 C 0.77298 0.95337 0.17567 0.0
C217 C 0.76982 0.0023 0.13235 0.0
C218 C 0.77784 0.92063 0.17688 0.0
C219 C 0.77839 0.90184 0.13862 0.0
C220 C 0.76856 0.96728 0.13591 0.0
C221 C 0.77137 0.91626 0.09997 0.0
C222 C 0.76233 0.01625 0.09346 0.0
C223 C 0.78801 0.05262 0.16224 0.0
N224 N 0.76715 0.94817 0.09952 0.0
N225 N 0.78188 0.02105 0.16566 0.0
H226 H 0.43301 0.26943 0.52636 0.0
H227 H 0.59284 0.30686 0.5587 0.0
H228 H 0.4314 0.25291 0.6617 0.0
H229 H 0.58249 0.27198 0.68586 0.0
H230 H 0.54096 0.28141 0.53807 0.0
H231 H 0.49222 0.26048 0.52578 0.0
C232 C 0.44494 0.26264 0.55565 0.0
C233 C 0.42755 0.26304 0.59447 0.0
C234 C 0.55005 0.27829 0.57017 0.0
C235 C 0.49577 0.25504 0.595 0.0
C236 C 0.57983 0.29316 0.58205 0.0
C237 C 0.59157 0.29222 0.62436 0.0
C238 C 0.53152 0.26255 0.60107 0.0
C239 C 0.57416 0.27361 0.65301 0.0
C240 C 0.47913 0.25838 0.55568 0.0
C241 C 0.44417 0.25371 0.63128 0.0
N242 N 0.54468 0.26015 0.64113 0.0
N243 N 0.47749 0.25111 0.63098 0.0
H244 H 0.68958 0.61744 0.40651 0.0
H245 H 0.66096 0.4357 0.39607 0.0
H246 H 0.69714 0.55783 0.51442 0.0
H247 H 0.65808 0.49375 0.28594 0.0
H248 H 0.69387 0.47676 0.43454 0.0
H249 H 0.70001 0.57143 0.35823 0.0
C250 C 0.69566 0.59507 0.42024 0.0
C251 C 0.69168 0.59116 0.46437 0.0
C252 C 0.68692 0.48031 0.40155 0.0
C253 C 0.70204 0.53818 0.40949 0.0
C254 C 0.66817 0.45677 0.3796 0.0
C255 C 0.65643 0.46165 0.33811 0.0
C256 C 0.6931 0.50935 0.38235 0.0
C257 C 0.66653 0.48924 0.31806 0.0
C258 C 0.7009 0.56854 0.39255 0.0
C259 C 0.69954 0.56165 0.48042 0.0
N260 N 0.68353 0.51246 0.34076 0.0
N261 N 0.70311 0.53599 0.45296 0.0
H262 H 0.9154 0.21082 0.93665 0.0
H263 H 0.09103 0.15663 0.01917 0.0
H264 H 0.92862 0.13126 0.01614 0.0
H265 H 0.07765 0.18554 0.88918 0.0
H266 H 0.03203 0.16448 0.03174 0.0
H267 H 0.97579 0.21663 0.93117 0.0
C268 C 0.93113 0.19531 0.95419 0.0
C269 C 0.91733 0.17155 0.97895 0.0
C270 C 0.04227 0.16915 1.00072 0.0
C271 C 0.98573 0.1779 0.9726 0.0
C272 C 0.07581 0.16482 0.99338 0.0
C273 C 0.08923 0.16976 0.95269 0.0
C274 C 0.02193 0.17856 0.96743 0.0
C275 C 0.06838 0.18131 0.92096 0.0
C276 C 0.96538 0.19853 0.95085 0.0
C277 C 0.93849 0.15121 0.99955 0.0
N278 N 0.03559 0.18498 0.92883 0.0
N279 N 0.97169 0.15493 0.99623 0.0
H280 H 0.28717 0.39637 0.57399 0.0
H281 H 0.27937 0.48635 0.36091 0.0
H282 H 0.24899 0.35195 0.45643 0.0
H283 H 0.26959 0.53741 0.48355 0.0
H284 H 0.26761 0.4371 0.39567 0.0
H285 H 0.28 0.44846 0.54347 0.0
C286 C 0.27659 0.39755 0.54217 0.0
C287 C 0.26935 0.36971 0.51729 0.0
C288 C 0.26755 0.45916 0.41488 0.0
C289 C 0.26185 0.42908 0.482 0.0
C290 C 0.27403 0.48752 0.39494 0.0
C291 C 0.27589 0.51645 0.41915 0.0
C292 C 0.26352 0.45937 0.45959 0.0
C293 C 0.26941 0.51578 0.46353 0.0
C294 C 0.27263 0.4273 0.52471 0.0
C295 C 0.25569 0.37277 0.47628 0.0
N296 N 0.26414 0.48768 0.48243 0.0
N297 N 0.25306 0.40183 0.45956 0.0
H298 H 0.09064 0.81481 0.87691 0.0
H299 H 0.9002 0.8285 0.91656 0.0
H300 H 0.04701 0.78256 0.99316 0.0
H301 H 0.94366 0.82604 0.79026 0.0
H302 H 0.95208 0.80916 0.94569 0.0
H303 H 0.03631 0.81558 0.84409 0.0
C304 C 0.06956 0.80771 0.89564 0.0
C305 C 0.07317 0.80015 0.93879 0.0
C306 C 0.94997 0.81217 0.91147 0.0
C307 C 0.01047 0.80147 0.90134 0.0
C308 C 0.92043 0.82333 0.89484 0.0
C309 C 0.91766 0.82923 0.85093 0.0
C310 C 0.97703 0.80731 0.88405 0.0
C311 C 0.94452 0.82177 0.82422 0.0
C312 C 0.03843 0.80823 0.87681 0.0
C313 C 0.04496 0.79072 0.961 0.0
N314 N 0.9732 0.81174 0.84132 0.0
N315 N 0.0146 0.79228 0.94239 0.0
H316 H 0.82132 0.04603 0.03154 0.0
H317 H 0.84599 0.9531 0.8057 0.0
H318 H 0.80154 0.08661 0.90969 0.0
H319 H 0.84379 0.9057 0.92566 0.0
H320 H 0.83106 0.00242 0.84385 0.0
H321 H 0.83052 -0.00541 0.99425 0.0
C322 C 0.81821 0.04396 0.99705 0.0
C323 C 0.81008 0.07049 0.97374 0.0
C324 C 0.83364 0.98121 0.86185 0.0
C325 C 0.8218 0.01206 0.93069 0.0
C326 C 0.84199 0.95289 0.84001 0.0
C327 C 0.84597 0.92498 0.86236 0.0
C328 C 0.82951 0.98192 0.90657 0.0
C329 C 0.84133 0.92663 0.9071 0.0
C330 C 0.82381 0.01466 0.97572 0.0
C331 C 0.80771 0.06675 0.92891 0.0
N332 N 0.83345 0.95463 0.92774 0.0
N333 N 0.81368 0.03814 0.90885 0.0
H334 H 0.42401 0.37741 0.5111 0.0
H335 H 0.50796 0.43658 0.29828 0.0
H336 H 0.3689 0.41305 0.40516 0.0
H337 H 0.56289 0.41234 0.41065 0.0
H338 H 0.45686 0.43237 0.33918 0.0
H339 H 0.47471 0.39618 0.47882 0.0
C340 C 0.42228 0.39013 0.48182 0.0
C341 C 0.39186 0.39353 0.4609 0.0
C342 C 0.48009 0.42823 0.35505 0.0
C343 C 0.45047 0.41393 0.42261 0.0
C344 C 0.50928 0.43036 0.33157 0.0
C345 C 0.53978 0.42448 0.35089 0.0
C346 C 0.48127 0.41986 0.39817 0.0
C347 C 0.53998 0.41715 0.39444 0.0
C348 C 0.45149 0.40047 0.463 0.0
C349 C 0.39172 0.40959 0.42234 0.0
N350 N 0.51119 0.41474 0.41643 0.0
N351 N 0.42056 0.4187 0.40412 0.0
H352 H 0.20815 0.93208 0.04793 0.0
H353 H 0.18802 0.07263 0.89001 0.0
H354 H 0.15443 0.92228 0.92841 0.0
H355 H 0.16372 0.09038 0.02355 0.0
H356 H 0.19659 0.01669 0.90405 0.0
H357 H 0.21102 0.99022 0.03953 0.0
C358 C 0.19673 0.94216 0.02032 0.0
C359 C 0.17994 0.9226 0.9897 0.0
C360 C 0.18998 0.03302 0.93038 0.0
C361 C 0.18482 0.98792 0.97872 0.0
C362 C 0.18523 0.06488 0.92249 0.0
C363 C 0.17503 0.08607 0.95564 0.0
C364 C 0.18503 0.0223 0.97182 0.0
C365 C 0.17134 0.07465 0.99708 0.0
C366 C 0.19864 0.97509 0.01539 0.0
C367 C 0.16715 0.93651 0.95321 0.0
N368 N 0.17624 0.04337 1.00406 0.0
N369 N 0.16987 0.96824 0.94875 0.0
H370 H 0.50125 0.62059 0.55376 0.0
H371 H 0.35242 0.65233 0.3938 0.0
H372 H 0.51197 0.68291 0.44886 0.0
H373 H 0.36796 0.5674 0.46378 0.0
H374 H 0.40246 0.67557 0.42777 0.0
H375 H 0.44228 0.61566 0.53832 0.0
C376 C 0.49081 0.6342 0.52847 0.0
C377 C 0.51119 0.65211 0.50246 0.0
C378 C 0.3942 0.65213 0.43613 0.0
C379 C 0.44428 0.64552 0.4833 0.0
C380 C 0.36582 0.63866 0.41653 0.0
C381 C 0.35537 0.60772 0.4258 0.0
C382 C 0.41187 0.63477 0.46574 0.0
C383 C 0.37382 0.59156 0.45613 0.0
C384 C 0.45729 0.63114 0.51934 0.0
C385 C 0.49677 0.66902 0.4697 0.0
N386 N 0.40094 0.60524 0.47477 0.0
N387 N 0.46413 0.66478 0.46032 0.0
H388 H 0.34381 0.4321 0.54516 0.0
H389 H 0.43326 0.58138 0.66234 0.0
H390 H 0.43641 0.42748 0.61246 0.0
H391 H 0.32814 0.56493 0.66525 0.0
H392 H 0.43907 0.53389 0.61488 0.0
H393 H 0.34392 0.48994 0.55896 0.0
C394 C 0.36486 0.44346 0.56108 0.0
C395 C 0.38986 0.42522 0.57844 0.0
C396 C 0.41469 0.54118 0.62511 0.0
C397 C 0.39026 0.4907 0.59393 0.0
C398 C 0.41132 0.56818 0.65211 0.0
C399 C 0.38018 0.57676 0.66805 0.0
C400 C 0.38671 0.52291 0.61359 0.0
C401 C 0.35259 0.55876 0.65408 0.0
C402 C 0.36475 0.47631 0.56926 0.0
C403 C 0.41655 0.44086 0.59903 0.0
N404 N 0.35651 0.53245 0.62783 0.0
N405 N 0.41586 0.47278 0.60676 0.0
H406 H 0.03982 0.86058 0.02842 0.0
H407 H 0.86681 0.78003 0.08194 0.0
H408 H 0.03167 0.77541 0.09923 0.0
H409 H 0.88476 0.88122 0.09817 0.0
H410 H 0.92422 0.7734 0.05982 0.0
H411 H 0.97914 0.86285 0.02508 0.0
C412 C 0.02518 0.84199 0.04225 0.0
C413 C 0.04036 0.81784 0.06425 0.0
C414 C 0.91512 0.79703 0.06744 0.0
C415 C 0.97183 0.82004 0.06014 0.0
C416 C 0.88246 0.80092 0.08052 0.0
C417 C 0.87072 0.8312 0.09314 0.0
C418 C 0.93599 0.82365 0.06582 0.0
C419 C 0.89218 0.85738 0.08873 0.0
C420 C -0.00921 0.84332 0.04044 0.0
C421 C 0.02062 0.79439 0.08209 0.0
N422 N 0.9238 0.85295 0.07577 0.0
N423 N 0.98726 0.79607 0.07972 0.0
H424 H 0.63567 0.5706 0.68541 0.0
H425 H 0.62453 0.39712 0.57039 0.0
H426 H 0.61825 0.55592 0.54914 0.0
H427 H 0.65306 0.41675 0.70249 0.0
H428 H 0.61897 0.45444 0.56151 0.0
H429 H 0.63842 0.51363 0.69186 0.0
C430 C 0.63231 0.55545 0.65671 0.0
C431 C 0.62693 0.56832 0.61654 0.0
C432 C 0.62653 0.44612 0.59235 0.0
C433 C 0.63024 0.50241 0.62385 0.0
C434 C 0.62961 0.41345 0.59748 0.0
C435 C 0.63953 0.40212 0.63717 0.0
C436 C 0.63312 0.46751 0.62729 0.0
C437 C 0.64593 0.42435 0.67111 0.0
C438 C 0.63399 0.52275 0.66046 0.0
C439 C 0.62265 0.54717 0.5807 0.0
N440 N 0.64257 0.45585 0.66539 0.0
N441 N 0.62448 0.51522 0.58517 0.0
H442 H 0.92482 0.2192 0.11439 0.0
H443 H 0.09147 0.1235 0.10958 0.0
H444 H 0.92631 0.11757 0.09363 0.0
H445 H 0.07371 0.19452 0.21131 0.0
H446 H 0.03484 0.12829 0.08631 0.0
H447 H 0.98435 0.21868 0.13139 0.0
C448 C 0.93799 0.19699 0.1121 0.0
C449 C 0.92127 0.1685 0.10104 0.0
C450 C 0.04373 0.14334 0.11307 0.0
C451 C 0.98833 0.16767 0.12082 0.0
C452 C 0.076 0.1402 0.12722 0.0
C453 C 0.08762 0.15771 0.16388 0.0
C454 C 0.02327 0.16571 0.13356 0.0
C455 C 0.06633 0.18039 0.18304 0.0
C456 C 0.97164 0.19667 0.12218 0.0
C457 C 0.93879 0.14009 0.10052 0.0
N458 N 0.03519 0.18381 0.16755 0.0
N459 N 0.9715 0.14039 0.10978 0.0
H460 H 0.24097 0.76089 0.10492 0.0
H461 H 0.22078 0.61904 0.26685 0.0
H462 H 0.14859 0.72569 0.15286 0.0
H463 H 0.31563 0.6477 0.2193 0.0
H464 H 0.19452 0.65762 0.22223 0.0
H465 H 0.26962 0.71815 0.1413 0.0
C466 C 0.22672 0.74371 0.12213 0.0
C467 C 0.19243 0.74674 0.12604 0.0
C468 C 0.22111 0.65572 0.22142 0.0
C469 C 0.22474 0.69866 0.16828 0.0
C470 C 0.23604 0.63383 0.24718 0.0
C471 C 0.27025 0.63067 0.24693 0.0
C472 C 0.24056 0.67469 0.1951 0.0
C473 C 0.28908 0.6499 0.22051 0.0
C474 C 0.24303 0.7196 0.14326 0.0
C475 C 0.17509 0.72428 0.14927 0.0
N476 N 0.27398 0.67126 0.1956 0.0
N477 N 0.19139 0.70146 0.16965 0.0
H478 H 0.71872 0.72116 0.52337 0.0
H479 H 0.80959 0.77241 0.74445 0.0
H480 H 0.6987 0.67993 0.64485 0.0
H481 H 0.82557 0.8196 0.62647 0.0
H482 H 0.77644 0.73167 0.70498 0.0
H483 H 0.76519 0.75094 0.55681 0.0
C484 C 0.72442 0.71797 0.55679 0.0
C485 C 0.70454 0.69846 0.5815 0.0
C486 C 0.78763 0.75061 0.68747 0.0
C487 C 0.75736 0.73238 0.62003 0.0
C488 C 0.80665 0.77367 0.71 0.0
C489 C 0.82017 0.79904 0.6884 0.0
C490 C 0.78184 0.75334 0.64323 0.0
C491 C 0.8155 0.80011 0.64398 0.0
C492 C 0.75083 0.73504 0.57597 0.0
C493 C 0.71299 0.6952 0.62477 0.0
N494 N 0.79639 0.77774 0.62281 0.0
N495 N 0.73852 0.71216 0.64269 0.0
H496 H 0.79106 0.25707 0.16886 0.0
H497 H 0.62113 0.34474 0.12787 0.0
H498 H 0.7266 0.22993 0.06284 0.0
H499 H 0.68959 0.37174 0.22922 0.0
H500 H 0.66083 0.30564 0.09917 0.0
H501 H 0.75618 0.30215 0.18659 0.0
C502 C 0.76956 0.26075 0.14905 0.0
C503 C 0.76155 0.2395 0.11453 0.0
C504 C 0.66736 0.32033 0.12737 0.0
C505 C 0.72101 0.29129 0.13509 0.0
C506 C 0.64479 0.34262 0.14366 0.0
C507 C 0.65239 0.36127 0.18077 0.0
C508 C 0.69756 0.3167 0.14867 0.0
C509 C 0.68302 0.35772 0.20043 0.0
C510 C 0.74962 0.2866 0.15922 0.0
C511 C 0.73367 0.24576 0.08968 0.0
N512 N 0.70444 0.33571 0.18427 0.0
N513 N 0.7141 0.27093 0.10079 0.0
H514 H 0.28431 0.3544 0.72933 0.0
H515 H 0.17789 0.20044 0.76823 0.0
H516 H 0.25234 0.28879 0.62713 0.0
H517 H 0.20637 0.26954 0.86775 0.0
H518 H 0.19361 0.23818 0.71396 0.0
H519 H 0.24463 0.33058 0.77728 0.0
C520 C 0.26825 0.33547 0.71669 0.0
C521 C 0.27192 0.32323 0.6744 0.0
C522 C 0.1956 0.24549 0.74763 0.0
C523 C 0.22707 0.29505 0.72957 0.0
C524 C 0.18644 0.22403 0.77853 0.0
C525 C 0.19085 0.23215 0.82222 0.0
C526 C 0.20976 0.27498 0.76076 0.0
C527 C 0.2025 0.26261 0.83422 0.0
C528 C 0.24566 0.32174 0.74416 0.0
C529 C 0.25037 0.29884 0.65958 0.0
N530 N 0.21204 0.28279 0.80364 0.0
N531 N 0.22939 0.285 0.68745 0.0
H532 H 0.69704 0.71115 0.45338 0.0
H533 H 0.69937 0.77012 0.21315 0.0
H534 H 0.61778 0.69247 0.3629 0.0
H535 H 0.77471 0.79429 0.30697 0.0
H536 H 0.66646 0.74578 0.26922 0.0
H537 H 0.72382 0.74495 0.40192 0.0
C538 C 0.68516 0.7143 0.42281 0.0
C539 C 0.65516 0.69885 0.41251 0.0
C540 C 0.6899 0.75692 0.27781 0.0
C541 C 0.6858 0.73748 0.35304 0.0
C542 C 0.70847 0.77103 0.24591 0.0
C543 C 0.73942 0.78443 0.25589 0.0
C544 C 0.70274 0.75587 0.31971 0.0
C545 C 0.75067 0.78447 0.29836 0.0
C546 C 0.70046 0.73365 0.39336 0.0
C547 C 0.64098 0.70377 0.37221 0.0
N548 N 0.73247 0.77011 0.3287 0.0
N549 N 0.6565 0.72248 0.34389 0.0
H550 H 0.75561 0.24307 0.99174 0.0
H551 H 0.69908 0.23202 0.74414 0.0
H552 H 0.76535 0.16029 0.90648 0.0
H553 H 0.70038 0.31965 0.82064 0.0
H554 H 0.71481 0.20355 0.80779 0.0
H555 H 0.72736 0.27009 0.93375 0.0
C556 C 0.75151 0.23053 0.96107 0.0
C557 C 0.76323 0.19962 0.95364 0.0
C558 C 0.71126 0.22896 0.81094 0.0
C559 C 0.73104 0.23004 0.8876 0.0
C560 C 0.70208 0.24508 0.77467 0.0
C561 C 0.69839 0.27799 0.77759 0.0
C562 C 0.71707 0.24603 0.85019 0.0
C563 C 0.70289 0.29411 0.81751 0.0
C564 C 0.73553 0.24592 0.92799 0.0
C565 C 0.75733 0.18438 0.91334 0.0
N566 N 0.71229 0.27801 0.85232 0.0
N567 N 0.74183 0.19973 0.88193 0.0
H568 H 0.32131 0.22324 0.50678 0.0
H569 H 0.27375 0.20917 0.25839 0.0
H570 H 0.35795 0.2846 0.41049 0.0
H571 H 0.21766 0.16638 0.35813 0.0
H572 H 0.31769 0.22253 0.31057 0.0
H573 H 0.29713 0.18809 0.44966 0.0
C574 C 0.32564 0.22842 0.47352 0.0
C575 C 0.34157 0.25671 0.46308 0.0
C576 C 0.29614 0.20954 0.32089 0.0
C577 C 0.31353 0.21736 0.39802 0.0
C578 C 0.27121 0.20183 0.29112 0.0
C579 C 0.24229 0.18685 0.30435 0.0
C580 C 0.29181 0.20246 0.3642 0.0
C581 C 0.23978 0.17801 0.34698 0.0
C582 C 0.31147 0.20866 0.44099 0.0
C583 C 0.34585 0.2629 0.41966 0.0
N584 N 0.26407 0.18636 0.37568 0.0
N585 N 0.33151 0.24365 0.38873 0.0
H586 H 0.20702 0.72318 0.02055 0.0
H587 H 0.36458 0.69234 0.87374 0.0
H588 H 0.2772 0.79541 0.9872 0.0
H589 H 0.29257 0.6203 0.90155 0.0
H590 H 0.33987 0.72773 0.92914 0.0
H591 H 0.24545 0.68241 0.99356 0.0
C592 C 0.23111 0.73035 1.00927 0.0
C593 C 0.23899 0.76254 1.00561 0.0
C594 C 0.32971 0.70402 0.92366 0.0
C595 C 0.2824 0.71649 0.97348 0.0
C596 C 0.34379 0.68396 0.89203 0.0
C597 C 0.33021 0.65377 0.88318 0.0
C598 C 0.30168 0.69378 0.94605 0.0
C599 C 0.30343 0.64368 0.90753 0.0
C600 C 0.25287 0.70716 0.9933 0.0
C601 C 0.27025 0.77073 0.99022 0.0
N602 N 0.28973 0.6638 0.93758 0.0
N603 N 0.29056 0.7479 0.97397 0.0
loop_
_geom_bond_atom_site_label_1
_geom_bond_atom_site_label_2
_geom_bond_distance
_geom_bond_site_symmetry_2
_ccdc_geom_bond_type
Zn0 O6 1.920 . S
Zn0 O12 1.898 . S
Zn0 O15 1.905 . S
Zn1 O9 1.905 . S
Zn1 O10 1.898 . S
Zn1 O18 1.920 . S
Zn2 O5 2.080 . S
Zn2 O8 2.118 . S
Zn2 O11 2.120 1_554 S
Zn2 O13 2.120 . S
Zn2 O14 2.114 . S
Zn2 O17 2.080 . S
C3 O8 1.162 1_556 S
C3 O9 1.182 . S
C4 O10 1.167 . S
C4 O11 1.299 . S
O5 Zn2 2.080 . S
O5 C19 1.305 . S
O6 Zn0 1.920 . S
O6 C19 1.234 . S
C7 O12 1.167 . S
C7 O13 1.299 . S
O8 Zn2 2.118 . S
O8 C3 1.162 1_554 S
O9 Zn1 1.905 . S
O9 C3 1.182 . S
O10 Zn1 1.898 . S
O10 C4 1.167 . S
O11 Zn2 2.120 1_556 S
O11 C4 1.299 . S
O12 Zn0 1.898 . S
O12 C7 1.167 . S
O13 Zn2 2.120 . S
O13 C7 1.299 . S
O14 Zn2 2.114 . S
O14 C16 1.166 . S
O15 Zn0 1.905 . S
O15 C16 1.182 . S
C16 O14 1.166 . S
C16 O15 1.182 . S
O17 Zn2 2.080 . S
O17 C20 1.305 1_554 S
O18 Zn1 1.920 . S
O18 C20 1.234 . S
C19 O5 1.305 . S
C19 O6 1.234 . S
C20 O17 1.305 1_556 S
C20 O18 1.234 . S
Zn21 O27 1.920 . S
Zn21 O33 1.898 . S
Zn21 O36 1.905 . S
Zn22 O30 1.905 . S
Zn22 O31 1.898 . S
Zn22 O39 1.920 . S
Zn23 O26 2.080 . S
Zn23 O29 2.114 . S
Zn23 O32 2.120 . S
Zn23 O34 2.120 . S
Zn23 O35 2.114 . S
Zn23 O38 2.080 . S
C24 O29 1.166 . S
C24 O30 1.182 . S
C25 O31 1.167 . S
C25 O32 1.299 . S
O26 Zn23 2.080 . S
O26 C40 1.305 . S
O27 Zn21 1.920 . S
O27 C40 1.234 . S
C28 O33 1.167 . S
C28 O34 1.299 . S
O29 Zn23 2.114 . S
O29 C24 1.166 . S
O30 Zn22 1.905 . S
O30 C24 1.182 . S
O31 Zn22 1.898 . S
O31 C25 1.167 . S
O32 Zn23 2.120 . S
O32 C25 1.299 . S
O33 Zn21 1.898 . S
O33 C28 1.167 . S
O34 Zn23 2.120 . S
O34 C28 1.299 . S
O35 Zn23 2.114 . S
O35 C37 1.166 . S
O36 Zn21 1.905 . S
O36 C37 1.182 . S
C37 O35 1.166 . S
C37 O36 1.182 . S
O38 Zn23 2.080 . S
O38 C41 1.305 . S
O39 Zn22 1.920 . S
O39 C41 1.234 . S
C40 O26 1.305 . S
C40 O27 1.234 . S
C41 O38 1.305 . S
C41 O39 1.234 . S
Zn42 O48 1.920 . S
Zn42 O54 1.898 . S
Zn42 O57 1.905 . S
Zn43 O51 1.905 . S
Zn43 O52 1.898 . S
Zn43 O60 1.920 . S
Zn44 O47 2.079 1_554 S
Zn44 O50 2.115 . S
Zn44 O53 2.121 . S
Zn44 O55 2.119 1_554 S
Zn44 O56 2.113 1_554 S
Zn44 O59 2.082 . S
C45 O50 1.166 . S
C45 O51 1.182 . S
C46 O52 1.167 . S
C46 O53 1.299 . S
O47 Zn44 2.079 1_556 S
O47 C61 1.305 . S
O48 Zn42 1.920 . S
O48 C61 1.234 . S
C49 O54 1.167 . S
C49 O55 1.299 . S
O50 Zn44 2.115 . S
O50 C45 1.166 . S
O51 Zn43 1.905 . S
O51 C45 1.182 . S
O52 Zn43 1.898 . S
O52 C46 1.167 . S
O53 Zn44 2.121 . S
O53 C46 1.299 . S
O54 Zn42 1.898 . S
O54 C49 1.167 . S
O55 Zn44 2.119 1_556 S
O55 C49 1.299 . S
O56 Zn44 2.113 1_556 S
O56 C58 1.166 . S
O57 Zn42 1.905 . S
O57 C58 1.182 . S
C58 O56 1.166 . S
C58 O57 1.182 . S
O59 Zn44 2.082 . S
O59 C62 1.305 . S
O60 Zn43 1.920 . S
O60 C62 1.234 . S
C61 O47 1.305 . S
C61 O48 1.234 . S
C62 O59 1.305 . S
C62 O60 1.234 . S
Zn63 O69 1.920 . S
Zn63 O75 1.898 . S
Zn63 O78 1.905 . S
Zn64 O72 1.905 . S
Zn64 O73 1.898 . S
Zn64 O81 1.920 . S
Zn65 O68 2.080 . S
Zn65 O71 2.114 . S
Zn65 O74 2.120 . S
Zn65 O76 2.120 . S
Zn65 O77 2.114 . S
Zn65 O80 2.080 . S
C66 O71 1.166 . S
C66 O72 1.182 . S
C67 O73 1.167 . S
C67 O74 1.299 . S
O68 Zn65 2.080 . S
O68 C82 1.305 . S
O69 Zn63 1.920 . S
O69 C82 1.234 . S
C70 O75 1.167 . S
C70 O76 1.299 . S
O71 Zn65 2.114 . S
O71 C66 1.166 . S
O72 Zn64 1.905 . S
O72 C66 1.182 . S
O73 Zn64 1.898 . S
O73 C67 1.167 . S
O74 Zn65 2.120 . S
O74 C67 1.299 . S
O75 Zn63 1.898 . S
O75 C70 1.167 . S
O76 Zn65 2.120 . S
O76 C70 1.299 . S
O77 Zn65 2.114 . S
O77 C79 1.166 . S
O78 Zn63 1.905 . S
O78 C79 1.182 . S
C79 O77 1.166 . S
C79 O78 1.182 . S
O80 Zn65 2.080 . S
O80 C83 1.305 . S
O81 Zn64 1.920 . S
O81 C83 1.234 . S
C82 O68 1.305 . S
C82 O69 1.234 . S
C83 O80 1.305 . S
C83 O81 1.234 . S
H84 C87 0.929 . S
H85 C90 0.929 . S
H86 C92 0.930 . S
C87 H84 0.929 . S
C87 C88 1.398 . S
C87 C89 1.396 . S
C88 C87 1.398 . S
C88 C92 1.407 . S
C89 C87 1.396 . S
C89 C90 1.394 . S
C90 H85 0.929 . S
C90 C89 1.394 . S
C90 C91 1.382 . S
C91 C90 1.382 . S
C91 C92 1.392 . S
C91 N93 1.420 . S
C92 H86 0.930 . S
C92 C88 1.407 . S
C92 C91 1.392 . S
N93 C91 1.420 . S
N93 C94 1.244 . S
C94 N93 1.244 . S
H95 C98 0.929 . S
H96 C101 0.929 . S
H97 C103 0.930 . S
C98 H95 0.929 . S
C98 C99 1.398 . S
C98 C100 1.396 . S
C99 C98 1.398 . S
C99 C103 1.407 . S
C100 C98 1.396 . S
C100 C101 1.394 . S
C101 H96 0.929 . S
C101 C100 1.394 . S
C101 C102 1.382 . S
C102 C101 1.382 . S
C102 C103 1.392 . S
C102 N104 1.420 . S
C103 H97 0.930 . S
C103 C99 1.407 . S
C103 C102 1.392 . S
N104 C102 1.420 . S
N104 C105 1.244 . S
C105 N104 1.244 . S
H106 C109 0.929 . S
H107 C112 0.929 . S
H108 C114 0.930 . S
C109 H106 0.929 . S
C109 C110 1.398 . S
C109 C111 1.396 . S
C110 C109 1.398 . S
C110 C114 1.407 . S
C111 C109 1.396 . S
C111 C112 1.394 . S
C112 H107 0.929 . S
C112 C111 1.394 . S
C112 C113 1.382 . S
C113 C112 1.382 . S
C113 C114 1.392 . S
C113 N115 1.420 . S
C114 H108 0.930 . S
C114 C110 1.407 . S
C114 C113 1.392 . S
N115 C113 1.420 . S
N115 C116 1.244 . S
C116 N115 1.244 . S
H117 C120 0.929 . S
H118 C123 0.929 . S
H119 C125 0.930 . S
C120 H117 0.929 . S
C120 C121 1.398 . S
C120 C122 1.396 . S
C121 C120 1.398 . S
C121 C125 1.407 . S
C122 C120 1.396 . S
C122 C123 1.394 . S
C123 H118 0.929 . S
C123 C122 1.394 . S
C123 C124 1.382 . S
C124 C123 1.382 . S
C124 C125 1.392 . S
C124 N126 1.420 . S
C125 H119 0.930 . S
C125 C121 1.407 . S
C125 C124 1.392 . S
N126 C124 1.420 . S
N126 C127 1.244 . S
C127 N126 1.244 . S
H128 C131 0.929 . S
H129 C134 0.929 . S
H130 C136 0.930 . S
C131 H128 0.929 . S
C131 C132 1.398 . S
C131 C133 1.396 . S
C132 C131 1.398 . S
C132 C136 1.407 . S
C133 C131 1.396 . S
C133 C134 1.394 . S
C134 H129 0.929 . S
C134 C133 1.394 . S
C134 C135 1.382 . S
C135 C134 1.382 . S
C135 C136 1.392 . S
C135 N137 1.420 . S
C136 H130 0.930 . S
C136 C132 1.407 . S
C136 C135 1.392 . S
N137 C135 1.420 . S
N137 C138 1.244 . S
C138 N137 1.244 . S
H139 C142 0.929 . S
H140 C145 0.929 . S
H141 C147 0.930 . S
C142 H139 0.929 . S
C142 C143 1.398 . S
C142 C144 1.396 . S
C143 C142 1.398 . S
C143 C147 1.407 . S
C144 C142 1.396 . S
C144 C145 1.394 . S
C145 H140 0.929 . S
C145 C144 1.394 . S
C145 C146 1.382 . S
C146 C145 1.382 . S
C146 C147 1.392 . S
C146 N148 1.420 . S
C147 H141 0.930 . S
C147 C143 1.407 . S
C147 C146 1.392 . S
N148 C146 1.420 . S
N148 C149 1.244 . S
C149 N148 1.244 . S
H150 C153 0.929 . S
H151 C156 0.929 . S
H152 C158 0.930 . S
C153 H150 0.929 . S
C153 C154 1.398 . S
C153 C155 1.396 . S
C154 C153 1.398 . S
C154 C158 1.407 . S
C155 C153 1.396 . S
C155 C156 1.394 . S
C156 H151 0.929 . S
C156 C155 1.394 . S
C156 C157 1.382 . S
C157 C156 1.382 . S
C157 C158 1.392 . S
C157 N159 1.420 . S
C158 H152 0.930 . S
C158 C154 1.407 . S
C158 C157 1.392 . S
N159 C157 1.420 . S
N159 C160 1.244 . S
C160 N159 1.244 . S
H161 C164 0.929 . S
H162 C167 0.929 . S
H163 C169 0.930 . S
C164 H161 0.929 . S
C164 C165 1.398 . S
C164 C166 1.396 . S
C165 C164 1.398 . S
C165 C169 1.407 . S
C166 C164 1.396 . S
C166 C167 1.394 . S
C167 H162 0.929 . S
C167 C166 1.394 . S
C167 C168 1.382 . S
C168 C167 1.382 . S
C168 C169 1.392 . S
C168 N170 1.420 . S
C169 H163 0.930 . S
C169 C165 1.407 . S
C169 C168 1.392 . S
N170 C168 1.420 . S
N170 C171 1.244 . S
C171 N170 1.244 . S
H172 C178 0.930 . S
H173 C182 0.930 . S
H174 C187 0.929 . S
H175 C185 0.929 . S
H176 C180 0.929 . S
H177 C186 0.929 . S
C178 H172 0.930 . S
C178 C179 1.367 . S
C178 C186 1.378 . S
C179 C178 1.367 . S
C179 C187 1.433 . S
C180 H176 0.929 . S
C180 C182 1.378 . S
C180 C184 1.350 . S
C181 C184 1.463 1_565 S
C181 C186 1.350 . S
C181 N189 1.427 . S
C182 H173 0.930 . S
C182 C180 1.378 . S
C182 C183 1.367 . S
C183 C182 1.367 . S
C183 C185 1.433 . S
C184 C180 1.350 . S
C184 C181 1.463 1_545 S
C184 N188 1.427 . S
C185 H175 0.929 . S
C185 C183 1.433 . S
C185 N188 1.384 . S
C186 H177 0.929 . S
C186 C178 1.378 . S
C186 C181 1.350 . S
C187 H174 0.929 . S
C187 C179 1.433 . S
C187 N189 1.384 . S
N188 C184 1.427 . S
N188 C185 1.384 . S
N189 C181 1.427 . S
N189 C187 1.384 . S
H190 C196 0.930 . S
H191 C200 0.930 . S
H192 C205 0.929 . S
H193 C203 0.929 . S
H194 C198 0.929 . S
H195 C204 0.929 . S
C196 H190 0.930 . S
C196 C197 1.367 . S
C196 C204 1.378 . S
C197 C196 1.367 . S
C197 C205 1.433 . S
C198 H194 0.929 . S
C198 C200 1.378 . S
C198 C202 1.350 . S
C199 C202 1.463 . S
C199 C204 1.350 . S
C199 N207 1.427 . S
C200 H191 0.930 . S
C200 C198 1.378 . S
C200 C201 1.367 . S
C201 C200 1.367 . S
C201 C203 1.433 . S
C202 C198 1.350 . S
C202 C199 1.463 . S
C202 N206 1.427 . S
C203 H193 0.929 . S
C203 C201 1.433 . S
C203 N206 1.384 . S
C204 H195 0.929 . S
C204 C196 1.378 . S
C204 C199 1.350 . S
C205 H192 0.929 . S
C205 C197 1.433 . S
C205 N207 1.384 . S
N206 C202 1.427 . S
N206 C203 1.384 . S
N207 C199 1.427 . S
N207 C205 1.384 . S
H208 C214 0.930 . S
H209 C218 0.930 . S
H210 C223 0.929 . S
H211 C221 0.929 . S
H212 C216 0.929 1_545 S
H213 C222 0.929 1_565 S
C214 H208 0.930 . S
C214 C215 1.367 . S
C214 C222 1.378 . S
C215 C214 1.367 . S
C215 C223 1.433 . S
C216 H212 0.929 1_565 S
C216 C218 1.378 . S
C216 C220 1.350 . S
C217 C220 1.463 1_545 S
C217 C222 1.350 . S
C217 N225 1.427 . S
C218 H209 0.930 . S
C218 C216 1.378 . S
C218 C219 1.367 . S
C219 C218 1.367 . S
C219 C221 1.433 . S
C220 C216 1.350 . S
C220 C217 1.463 1_565 S
C220 N224 1.427 . S
C221 H211 0.929 . S
C221 C219 1.433 . S
C221 N224 1.384 . S
C222 H213 0.929 1_545 S
C222 C214 1.378 . S
C222 C217 1.350 . S
C223 H210 0.929 . S
C223 C215 1.433 . S
C223 N225 1.384 . S
N224 C220 1.427 . S
N224 C221 1.384 . S
N225 C217 1.427 . S
N225 C223 1.384 . S
H226 C232 0.930 . S
H227 C236 0.930 . S
H228 C241 0.929 . S
H229 C239 0.929 . S
H230 C234 0.929 . S
H231 C240 0.929 . S
C232 H226 0.930 . S
C232 C233 1.367 . S
C232 C240 1.378 . S
C233 C232 1.367 . S
C233 C241 1.433 . S
C234 H230 0.929 . S
C234 C236 1.378 . S
C234 C238 1.350 . S
C235 C238 1.463 . S
C235 C240 1.350 . S
C235 N243 1.427 . S
C236 H227 0.930 . S
C236 C234 1.378 . S
C236 C237 1.367 . S
C237 C236 1.367 . S
C237 C239 1.433 . S
C238 C234 1.350 . S
C238 C235 1.463 . S
C238 N242 1.427 . S
C239 H229 0.929 . S
C239 C237 1.433 . S
C239 N242 1.384 . S
C240 H231 0.929 . S
C240 C232 1.378 . S
C240 C235 1.350 . S
C241 H228 0.929 . S
C241 C233 1.433 . S
C241 N243 1.384 . S
N242 C238 1.427 . S
N242 C239 1.384 . S
N243 C235 1.427 . S
N243 C241 1.384 . S
H244 C250 0.930 . S
H245 C254 0.930 . S
H246 C259 0.929 . S
H247 C257 0.929 . S
H248 C252 0.929 . S
H249 C258 0.929 . S
C250 H244 0.930 . S
C250 C251 1.367 . S
C250 C258 1.378 . S
C251 C250 1.367 . S
C251 C259 1.433 . S
C252 H248 0.929 . S
C252 C254 1.378 . S
C252 C256 1.350 . S
C253 C256 1.463 . S
C253 C258 1.350 . S
C253 N261 1.427 . S
C254 H245 0.930 . S
C254 C252 1.378 . S
C254 C255 1.367 . S
C255 C254 1.367 . S
C255 C257 1.433 . S
C256 C252 1.350 . S
C256 C253 1.463 . S
C256 N260 1.427 . S
C257 H247 0.929 . S
C257 C255 1.433 . S
C257 N260 1.384 . S
C258 H249 0.929 . S
C258 C250 1.378 . S
C258 C253 1.350 . S
C259 H246 0.929 . S
C259 C251 1.433 . S
C259 N261 1.384 . S
N260 C256 1.427 . S
N260 C257 1.384 . S
N261 C253 1.427 . S
N261 C259 1.384 . S
H262 C268 0.930 . S
H263 C272 0.930 . S
H264 C277 0.929 . S
H265 C275 0.929 . S
H266 C270 0.929 . S
H267 C276 0.929 . S
C268 H262 0.930 . S
C268 C269 1.367 . S
C268 C276 1.378 . S
C269 C268 1.367 . S
C269 C277 1.433 . S
C270 H266 0.929 . S
C270 C272 1.378 . S
C270 C274 1.350 . S
C271 C274 1.463 . S
C271 C276 1.350 1_455 S
C271 N279 1.427 . S
C272 H263 0.930 . S
C272 C270 1.378 . S
C272 C273 1.367 . S
C273 C272 1.367 . S
C273 C275 1.433 . S
C274 C270 1.350 . S
C274 C271 1.463 . S
C274 N278 1.427 . S
C275 H265 0.929 . S
C275 C273 1.433 . S
C275 N278 1.384 . S
C276 H267 0.929 . S
C276 C268 1.378 . S
C276 C271 1.350 1_655 S
C277 H264 0.929 . S
C277 C269 1.433 . S
C277 N279 1.384 1_655 S
N278 C274 1.427 . S
N278 C275 1.384 . S
N279 C271 1.427 . S
N279 C277 1.384 1_455 S
H280 C286 0.930 . S
H281 C290 0.930 . S
H282 C295 0.929 . S
H283 C293 0.929 . S
H284 C288 0.929 . S
H285 C294 0.929 . S
C286 H280 0.930 . S
C286 C287 1.367 . S
C286 C294 1.378 . S
C287 C286 1.367 . S
C287 C295 1.433 . S
C288 H284 0.929 . S
C288 C290 1.378 . S
C288 C292 1.350 . S
C289 C292 1.463 . S
C289 C294 1.350 . S
C289 N297 1.427 . S
C290 H281 0.930 . S
C290 C288 1.378 . S
C290 C291 1.367 . S
C291 C290 1.367 . S
C291 C293 1.433 . S
C292 C288 1.350 . S
C292 C289 1.463 . S
C292 N296 1.427 . S
C293 H283 0.929 . S
C293 C291 1.433 . S
C293 N296 1.384 . S
C294 H285 0.929 . S
C294 C286 1.378 . S
C294 C289 1.350 . S
C295 H282 0.929 . S
C295 C287 1.433 . S
C295 N297 1.384 . S
N296 C292 1.427 . S
N296 C293 1.384 . S
N297 C289 1.427 . S
N297 C295 1.384 . S
H298 C304 0.930 . S
H299 C308 0.930 . S
H300 C313 0.929 . S
H301 C311 0.929 . S
H302 C306 0.929 . S
H303 C312 0.929 . S
C304 H298 0.930 . S
C304 C305 1.367 . S
C304 C312 1.378 . S
C305 C304 1.367 . S
C305 C313 1.433 . S
C306 H302 0.929 . S
C306 C308 1.378 . S
C306 C310 1.350 . S
C307 C310 1.463 1_455 S
C307 C312 1.350 . S
C307 N315 1.427 . S
C308 H299 0.930 . S
C308 C306 1.378 . S
C308 C309 1.367 . S
C309 C308 1.367 . S
C309 C311 1.433 . S
C310 C306 1.350 . S
C310 C307 1.463 1_655 S
C310 N314 1.427 1_655 S
C311 H301 0.929 . S
C311 C309 1.433 . S
C311 N314 1.384 1_655 S
C312 H303 0.929 . S
C312 C304 1.378 . S
C312 C307 1.350 . S
C313 H300 0.929 . S
C313 C305 1.433 . S
C313 N315 1.384 . S
N314 C310 1.427 1_455 S
N314 C311 1.384 1_455 S
N315 C307 1.427 . S
N315 C313 1.384 . S
H316 C322 0.930 . S
H317 C326 0.930 . S
H318 C331 0.929 . S
H319 C329 0.929 . S
H320 C324 0.929 . S
H321 C330 0.929 . S
C322 H316 0.930 . S
C322 C323 1.367 . S
C322 C330 1.378 1_545 S
C323 C322 1.367 . S
C323 C331 1.433 . S
C324 H320 0.929 . S
C324 C326 1.378 . S
C324 C328 1.350 . S
C325 C328 1.463 . S
C325 C330 1.350 . S
C325 N333 1.427 1_565 S
C326 H317 0.930 . S
C326 C324 1.378 . S
C326 C327 1.367 . S
C327 C326 1.367 . S
C327 C329 1.433 . S
C328 C324 1.350 . S
C328 C325 1.463 . S
C328 N332 1.427 . S
C329 H319 0.929 . S
C329 C327 1.433 . S
C329 N332 1.384 . S
C330 H321 0.929 . S
C330 C322 1.378 1_565 S
C330 C325 1.350 . S
C331 H318 0.929 . S
C331 C323 1.433 . S
C331 N333 1.384 . S
N332 C328 1.427 . S
N332 C329 1.384 . S
N333 C325 1.427 1_545 S
N333 C331 1.384 . S
H334 C340 0.930 . S
H335 C344 0.930 . S
H336 C349 0.929 . S
H337 C347 0.929 . S
H338 C342 0.929 . S
H339 C348 0.929 . S
C340 H334 0.930 . S
C340 C341 1.367 . S
C340 C348 1.378 . S
C341 C340 1.367 . S
C341 C349 1.433 . S
C342 H338 0.929 . S
C342 C344 1.378 . S
C342 C346 1.350 . S
C343 C346 1.463 . S
C343 C348 1.350 . S
C343 N351 1.427 . S
C344 H335 0.930 . S
C344 C342 1.378 . S
C344 C345 1.367 . S
C345 C344 1.367 . S
C345 C347 1.433 . S
C346 C342 1.350 . S
C346 C343 1.463 . S
C346 N350 1.427 . S
C347 H337 0.929 . S
C347 C345 1.433 . S
C347 N350 1.384 . S
C348 H339 0.929 . S
C348 C340 1.378 . S
C348 C343 1.350 . S
C349 H336 0.929 . S
C349 C341 1.433 . S
C349 N351 1.384 . S
N350 C346 1.427 . S
N350 C347 1.384 . S
N351 C343 1.427 . S
N351 C349 1.384 . S
H352 C358 0.913 1_554 S
H353 C362 0.930 . S
H354 C367 0.929 . S
H355 C365 0.929 . S
H356 C360 0.929 . S
H357 C366 0.929 . S
C358 H352 0.913 1_556 S
C358 C359 1.367 . S
C358 C366 1.378 1_565 S
C359 C358 1.367 . S
C359 C367 1.433 . S
C360 H356 0.929 . S
C360 C362 1.378 . S
C360 C364 1.350 . S
C361 C364 1.463 . S
C361 C366 1.350 . S
C361 N369 1.427 . S
C362 H353 0.930 . S
C362 C360 1.378 . S
C362 C363 1.367 . S
C363 C362 1.367 . S
C363 C365 1.433 . S
C364 C360 1.350 . S
C364 C361 1.463 . S
C364 N368 1.427 . S
C365 H355 0.929 . S
C365 C363 1.433 . S
C365 N368 1.384 . S
C366 H357 0.929 . S
C366 C358 1.378 1_545 S
C366 C361 1.350 . S
C367 H354 0.929 . S
C367 C359 1.433 . S
C367 N369 1.384 1_565 S
N368 C364 1.427 . S
N368 C365 1.384 . S
N369 C361 1.427 . S
N369 C367 1.384 1_545 S
H370 C376 0.930 . S
H371 C380 0.930 . S
H372 C385 0.929 . S
H373 C383 0.929 . S
H374 C378 0.929 . S
H375 C384 0.929 . S
C376 H370 0.930 . S
C376 C377 1.367 . S
C376 C384 1.378 . S
C377 C376 1.367 . S
C377 C385 1.433 . S
C378 H374 0.929 . S
C378 C380 1.378 . S
C378 C382 1.350 . S
C379 C382 1.463 . S
C379 C384 1.350 . S
C379 N387 1.427 . S
C380 H371 0.930 . S
C380 C378 1.378 . S
C380 C381 1.367 . S
C381 C380 1.367 . S
C381 C383 1.433 . S
C382 C378 1.350 . S
C382 C379 1.463 . S
C382 N386 1.427 . S
C383 H373 0.929 . S
C383 C381 1.433 . S
C383 N386 1.384 . S
C384 H375 0.929 . S
C384 C376 1.378 . S
C384 C379 1.350 . S
C385 H372 0.929 . S
C385 C377 1.433 . S
C385 N387 1.384 . S
N386 C382 1.427 . S
N386 C383 1.384 . S
N387 C379 1.427 . S
N387 C385 1.384 . S
H388 C394 0.930 . S
H389 C398 0.930 . S
H390 C403 0.929 . S
H391 C401 0.929 . S
H392 C396 0.929 . S
H393 C402 0.929 . S
C394 H388 0.930 . S
C394 C395 1.367 . S
C394 C402 1.378 . S
C395 C394 1.367 . S
C395 C403 1.433 . S
C396 H392 0.929 . S
C396 C398 1.378 . S
C396 C400 1.350 . S
C397 C400 1.463 . S
C397 C402 1.350 . S
C397 N405 1.427 . S
C398 H389 0.930 . S
C398 C396 1.378 . S
C398 C399 1.367 . S
C399 C398 1.367 . S
C399 C401 1.433 . S
C400 C396 1.350 . S
C400 C397 1.463 . S
C400 N404 1.427 . S
C401 H391 0.929 . S
C401 C399 1.433 . S
C401 N404 1.384 . S
C402 H393 0.929 . S
C402 C394 1.378 . S
C402 C397 1.350 . S
C403 H390 0.929 . S
C403 C395 1.433 . S
C403 N405 1.384 . S
N404 C400 1.427 . S
N404 C401 1.384 . S
N405 C397 1.427 . S
N405 C403 1.384 . S
H406 C412 0.930 1_455 S
H407 C416 0.930 . S
H408 C421 0.929 . S
H409 C419 0.929 . S
H410 C414 0.929 . S
H411 C420 0.929 . S
C412 H406 0.930 1_655 S
C412 C413 1.367 1_655 S
C412 C420 1.378 . S
C413 C412 1.367 1_455 S
C413 C421 1.433 . S
C414 H410 0.929 . S
C414 C416 1.378 . S
C414 C418 1.350 . S
C415 C418 1.463 . S
C415 C420 1.350 . S
C415 N423 1.427 . S
C416 H407 0.930 . S
C416 C414 1.378 . S
C416 C417 1.367 . S
C417 C416 1.367 . S
C417 C419 1.433 . S
C418 C414 1.350 . S
C418 C415 1.463 . S
C418 N422 1.427 . S
C419 H409 0.929 . S
C419 C417 1.433 . S
C419 N422 1.384 . S
C420 H411 0.929 . S
C420 C412 1.378 . S
C420 C415 1.350 . S
C421 H408 0.929 . S
C421 C413 1.433 . S
C421 N423 1.384 1_455 S
N422 C418 1.427 . S
N422 C419 1.384 . S
N423 C415 1.427 . S
N423 C421 1.384 1_655 S
H424 C430 0.930 . S
H425 C434 0.930 . S
H426 C439 0.929 . S
H427 C437 0.929 . S
H428 C432 0.929 . S
H429 C438 0.929 . S
C430 H424 0.930 . S
C430 C431 1.367 . S
C430 C438 1.378 . S
C431 C430 1.367 . S
C431 C439 1.433 . S
C432 H428 0.929 . S
C432 C434 1.378 . S
C432 C436 1.350 . S
C433 C436 1.463 . S
C433 C438 1.350 . S
C433 N441 1.427 . S
C434 H425 0.930 . S
C434 C432 1.378 . S
C434 C435 1.367 . S
C435 C434 1.367 . S
C435 C437 1.433 . S
C436 C432 1.350 . S
C436 C433 1.463 . S
C436 N440 1.427 . S
C437 H427 0.929 . S
C437 C435 1.433 . S
C437 N440 1.384 . S
C438 H429 0.929 . S
C438 C430 1.378 . S
C438 C433 1.350 . S
C439 H426 0.929 . S
C439 C431 1.433 . S
C439 N441 1.384 . S
N440 C436 1.427 . S
N440 C437 1.384 . S
N441 C433 1.427 . S
N441 C439 1.384 . S
H442 C448 0.930 . S
H443 C452 0.930 . S
H444 C457 0.929 . S
H445 C455 0.929 . S
H446 C450 0.929 . S
H447 C456 0.929 . S
C448 H442 0.930 . S
C448 C449 1.367 . S
C448 C456 1.378 . S
C449 C448 1.367 . S
C449 C457 1.433 . S
C450 H446 0.929 . S
C450 C452 1.378 . S
C450 C454 1.350 . S
C451 C454 1.463 . S
C451 C456 1.350 1_455 S
C451 N459 1.427 . S
C452 H443 0.930 . S
C452 C450 1.378 . S
C452 C453 1.367 . S
C453 C452 1.367 . S
C453 C455 1.433 . S
C454 C450 1.350 . S
C454 C451 1.463 . S
C454 N458 1.427 . S
C455 H445 0.929 . S
C455 C453 1.433 . S
C455 N458 1.384 . S
C456 H447 0.929 . S
C456 C448 1.378 . S
C456 C451 1.350 1_655 S
C457 H444 0.929 . S
C457 C449 1.433 . S
C457 N459 1.384 1_655 S
N458 C454 1.427 . S
N458 C455 1.384 . S
N459 C451 1.427 . S
N459 C457 1.384 1_455 S
H460 C466 0.930 . S
H461 C470 0.930 . S
H462 C475 0.929 . S
H463 C473 0.929 . S
H464 C468 0.929 . S
H465 C474 0.929 . S
C466 H460 0.930 . S
C466 C467 1.367 . S
C466 C474 1.378 . S
C467 C466 1.367 . S
C467 C475 1.433 . S
C468 H464 0.929 . S
C468 C470 1.378 . S
C468 C472 1.350 . S
C469 C472 1.463 . S
C469 C474 1.350 . S
C469 N477 1.427 . S
C470 H461 0.930 . S
C470 C468 1.378 . S
C470 C471 1.367 . S
C471 C470 1.367 . S
C471 C473 1.433 . S
C472 C468 1.350 . S
C472 C469 1.463 . S
C472 N476 1.427 . S
C473 H463 0.929 . S
C473 C471 1.433 . S
C473 N476 1.384 . S
C474 H465 0.929 . S
C474 C466 1.378 . S
C474 C469 1.350 . S
C475 H462 0.929 . S
C475 C467 1.433 . S
C475 N477 1.384 . S
N476 C472 1.427 . S
N476 C473 1.384 . S
N477 C469 1.427 . S
N477 C475 1.384 . S
H478 C484 0.930 . S
H479 C488 0.930 . S
H480 C493 0.929 . S
H481 C491 0.929 . S
H482 C486 0.929 . S
H483 C492 0.929 . S
C484 H478 0.930 . S
C484 C485 1.367 . S
C484 C492 1.378 . S
C485 C484 1.367 . S
C485 C493 1.433 . S
C486 H482 0.929 . S
C486 C488 1.378 . S
C486 C490 1.350 . S
C487 C490 1.463 . S
C487 C492 1.350 . S
C487 N495 1.427 . S
C488 H479 0.930 . S
C488 C486 1.378 . S
C488 C489 1.367 . S
C489 C488 1.367 . S
C489 C491 1.433 . S
C490 C486 1.350 . S
C490 C487 1.463 . S
C490 N494 1.427 . S
C491 H481 0.929 . S
C491 C489 1.433 . S
C491 N494 1.384 . S
C492 H483 0.929 . S
C492 C484 1.378 . S
C492 C487 1.350 . S
C493 H480 0.929 . S
C493 C485 1.433 . S
C493 N495 1.384 . S
N494 C490 1.427 . S
N494 C491 1.384 . S
N495 C487 1.427 . S
N495 C493 1.384 . S
H496 C502 0.930 . S
H497 C506 0.930 . S
H498 C511 0.929 . S
H499 C509 0.929 . S
H500 C504 0.929 . S
H501 C510 0.929 . S
C502 H496 0.930 . S
C502 C503 1.367 . S
C502 C510 1.378 . S
C503 C502 1.367 . S
C503 C511 1.433 . S
C504 H500 0.929 . S
C504 C506 1.378 . S
C504 C508 1.350 . S
C505 C508 1.463 . S
C505 C510 1.350 . S
C505 N513 1.427 . S
C506 H497 0.930 . S
C506 C504 1.378 . S
C506 C507 1.367 . S
C507 C506 1.367 . S
C507 C509 1.433 . S
C508 C504 1.350 . S
C508 C505 1.463 . S
C508 N512 1.427 . S
C509 H499 0.929 . S
C509 C507 1.433 . S
C509 N512 1.384 . S
C510 H501 0.929 . S
C510 C502 1.378 . S
C510 C505 1.350 . S
C511 H498 0.929 . S
C511 C503 1.433 . S
C511 N513 1.384 . S
N512 C508 1.427 . S
N512 C509 1.384 . S
N513 C505 1.427 . S
N513 C511 1.384 . S
H514 C520 0.930 . S
H515 C524 0.930 . S
H516 C529 0.929 . S
H517 C527 0.929 . S
H518 C522 0.929 . S
H519 C528 0.929 . S
C520 H514 0.930 . S
C520 C521 1.367 . S
C520 C528 1.378 . S
C521 C520 1.367 . S
C521 C529 1.433 . S
C522 H518 0.929 . S
C522 C524 1.378 . S
C522 C526 1.350 . S
C523 C526 1.463 . S
C523 C528 1.350 . S
C523 N531 1.427 . S
C524 H515 0.930 . S
C524 C522 1.378 . S
C524 C525 1.367 . S
C525 C524 1.367 . S
C525 C527 1.433 . S
C526 C522 1.350 . S
C526 C523 1.463 . S
C526 N530 1.427 . S
C527 H517 0.929 . S
C527 C525 1.433 . S
C527 N530 1.384 . S
C528 H519 0.929 . S
C528 C520 1.378 . S
C528 C523 1.350 . S
C529 H516 0.929 . S
C529 C521 1.433 . S
C529 N531 1.384 . S
N530 C526 1.427 . S
N530 C527 1.384 . S
N531 C523 1.427 . S
N531 C529 1.384 . S
H532 C538 0.930 . S
H533 C542 0.930 . S
H534 C547 0.929 . S
H535 C545 0.929 . S
H536 C540 0.929 . S
H537 C546 0.929 . S
C538 H532 0.930 . S
C538 C539 1.367 . S
C538 C546 1.378 . S
C539 C538 1.367 . S
C539 C547 1.433 . S
C540 H536 0.929 . S
C540 C542 1.378 . S
C540 C544 1.350 . S
C541 C544 1.463 . S
C541 C546 1.350 . S
C541 N549 1.427 . S
C542 H533 0.930 . S
C542 C540 1.378 . S
C542 C543 1.367 . S
C543 C542 1.367 . S
C543 C545 1.433 . S
C544 C540 1.350 . S
C544 C541 1.463 . S
C544 N548 1.427 . S
C545 H535 0.929 . S
C545 C543 1.433 . S
C545 N548 1.384 . S
C546 H537 0.929 . S
C546 C538 1.378 . S
C546 C541 1.350 . S
C547 H534 0.929 . S
C547 C539 1.433 . S
C547 N549 1.384 . S
N548 C544 1.427 . S
N548 C545 1.384 . S
N549 C541 1.427 . S
N549 C547 1.384 . S
H550 C556 0.930 . S
H551 C560 0.930 . S
H552 C565 0.929 . S
H553 C563 0.929 . S
H554 C558 0.929 . S
H555 C564 0.929 . S
C556 H550 0.930 . S
C556 C557 1.367 . S
C556 C564 1.378 . S
C557 C556 1.367 . S
C557 C565 1.433 . S
C558 H554 0.929 . S
C558 C560 1.378 . S
C558 C562 1.350 . S
C559 C562 1.463 . S
C559 C564 1.350 . S
C559 N567 1.427 . S
C560 H551 0.930 . S
C560 C558 1.378 . S
C560 C561 1.367 . S
C561 C560 1.367 . S
C561 C563 1.433 . S
C562 C558 1.350 . S
C562 C559 1.463 . S
C562 N566 1.427 . S
C563 H553 0.929 . S
C563 C561 1.433 . S
C563 N566 1.384 . S
C564 H555 0.929 . S
C564 C556 1.378 . S
C564 C559 1.350 . S
C565 H552 0.929 . S
C565 C557 1.433 . S
C565 N567 1.384 . S
N566 C562 1.427 . S
N566 C563 1.384 . S
N567 C559 1.427 . S
N567 C565 1.384 . S
H568 C574 0.930 . S
H569 C578 0.930 . S
H570 C583 0.929 . S
H571 C581 0.929 . S
H572 C576 0.929 . S
H573 C582 0.929 . S
C574 H568 0.930 . S
C574 C575 1.367 . S
C574 C582 1.378 . S
C575 C574 1.367 . S
C575 C583 1.433 . S
C576 H572 0.929 . S
C576 C578 1.378 . S
C576 C580 1.350 . S
C577 C580 1.463 . S
C577 C582 1.350 . S
C577 N585 1.427 . S
C578 H569 0.930 . S
C578 C576 1.378 . S
C578 C579 1.367 . S
C579 C578 1.367 . S
C579 C581 1.433 . S
C580 C576 1.350 . S
C580 C577 1.463 . S
C580 N584 1.427 . S
C581 H571 0.929 . S
C581 C579 1.433 . S
C581 N584 1.384 . S
C582 H573 0.929 . S
C582 C574 1.378 . S
C582 C577 1.350 . S
C583 H570 0.929 . S
C583 C575 1.433 . S
C583 N585 1.384 . S
N584 C580 1.427 . S
N584 C581 1.384 . S
N585 C577 1.427 . S
N585 C583 1.384 . S
H586 C592 0.930 1_554 S
H587 C596 0.930 . S
H588 C601 0.929 . S
H589 C599 0.929 . S
H590 C594 0.929 . S
H591 C600 0.929 . S
C592 H586 0.930 1_556 S
C592 C593 1.367 . S
C592 C600 1.378 . S
C593 C592 1.367 . S
C593 C601 1.433 . S
C594 H590 0.929 . S
C594 C596 1.378 . S
C594 C598 1.350 . S
C595 C598 1.463 . S
C595 C600 1.350 . S
C595 N603 1.427 . S
C596 H587 0.930 . S
C596 C594 1.378 . S
C596 C597 1.367 . S
C597 C596 1.367 . S
C597 C599 1.433 . S
C598 C594 1.350 . S
C598 C595 1.463 . S
C598 N602 1.427 . S
C599 H589 0.929 . S
C599 C597 1.433 . S
C599 N602 1.384 . S
C600 H591 0.929 . S
C600 C592 1.378 . S
C600 C595 1.350 . S
C601 H588 0.929 . S
C601 C593 1.433 . S
C601 N603 1.384 . S
N602 C598 1.427 . S
N602 C599 1.384 . S
N603 C595 1.427 . S
N603 C601 1.384 . S
C179 C7 0.801 . S
C183 C89 0.831 . S
C197 C25 0.841 . S
C201 C100 0.878 . S
C215 C46 0.883 . S
C219 C110 0.886 . S
C237 C122 0.774 . S
C233 C70 0.745 . S
C255 C133 0.802 . S
C251 C28 0.799 . S
C269 C49 0.759 . S
C273 C144 0.745 . S
C287 C67 0.882 . S
C291 C154 0.876 . S
C305 C4 0.852 . S
C309 C166 0.859 . S
C323 C58 1.575 . S
C327 C165 1.671 . S
C345 C132 1.570 . S
C341 C66 1.485 . S
C363 C143 1.660 . S
C359 C3 1.603 . S
C377 C37 1.708 . S
C381 C155 1.778 . S
C399 C99 1.671 . S
C395 C79 1.576 . S
C413 C16 1.708 . S
C417 C111 1.778 . S
C435 C121 1.664 . S
C431 C24 1.593 . S
C453 C88 1.560 . S
C449 C45 1.472 . S
C471 C160 1.462 . S
C467 C19 1.300 . S
C489 C171 1.458 . S
C485 C41 1.331 . S
C503 C62 1.223 . S
C507 C138 1.351 . S
C525 C149 1.327 . S
C521 C82 1.184 . S
C543 C116 1.463 . S
C539 C40 1.326 . S
C557 C61 1.203 . S
C561 C127 1.331 . S
C579 C94 1.348 . S
C575 C83 1.248 . S
C597 C105 1.458 . S
C593 C20 1.330 . S
