# Generated by pormake.
# Topology sqc, (4,8)-cn, num edge types: 1
# Building blocks:
#     Node 0, Type 0, BuildingBlock: MUDLON_clean_linker_0, # of connection points: 4
#     Node 1, Type 0, BuildingBlock: MUDLON_clean_linker_0, # of connection points: 4
#     Node 2, Type 0, BuildingBlock: MUDLON_clean_linker_0, # of connection points: 4
#     Node 3, Type 0, BuildingBlock: MUDLON_clean_linker_0, # of connection points: 4
#     Node 4, Type 0, BuildingBlock: MUDLON_clean_linker_0, # of connection points: 4
#     Node 5, Type 0, BuildingBlock: MUDLON_clean_linker_0, # of connection points: 4
#     Node 6, Type 0, BuildingBlock: MUDLON_clean_linker_0, # of connection points: 4
#     Node 7, Type 0, BuildingBlock: MUDLON_clean_linker_0, # of connection points: 4
#     Node 8, Type 1, BuildingBlock: VETTIZ_charged_sbu_0, # of connection points: 8
#     Node 9, Type 1, BuildingBlock: VETTIZ_charged_sbu_0, # of connection points: 8
#     Node 10, Type 1, BuildingBlock: VETTIZ_charged_sbu_0, # of connection points: 8
#     Node 11, Type 1, BuildingBlock: VETTIZ_charged_sbu_0, # of connection points: 8
#     Edge 12, Type (0, 1), BuildingBlock: AJUNOK_clean_linker_0, # of connection points: 2
#     Edge 13, Type (0, 1), BuildingBlock: AJUNOK_clean_linker_0, # of connection points: 2
#     Edge 14, Type (0, 1), BuildingBlock: AJUNOK_clean_linker_0, # of connection points: 2
#     Edge 15, Type (0, 1), BuildingBlock: AJUNOK_clean_linker_0, # of connection points: 2
#     Edge 16, Type (0, 1), BuildingBlock: AJUNOK_clean_linker_0, # of connection points: 2
#     Edge 17, Type (0, 1), BuildingBlock: AJUNOK_clean_linker_0, # of connection points: 2
#     Edge 18, Type (0, 1), BuildingBlock: AJUNOK_clean_linker_0, # of connection points: 2
#     Edge 19, Type (0, 1), BuildingBlock: AJUNOK_clean_linker_0, # of connection points: 2
#     Edge 20, Type (0, 1), BuildingBlock: AJUNOK_clean_linker_0, # of connection points: 2
#     Edge 21, Type (0, 1), BuildingBlock: AJUNOK_clean_linker_0, # of connection points: 2
#     Edge 22, Type (0, 1), BuildingBlock: AJUNOK_clean_linker_0, # of connection points: 2
#     Edge 23, Type (0, 1), BuildingBlock: AJUNOK_clean_linker_0, # of connection points: 2
#     Edge 24, Type (0, 1), BuildingBlock: AJUNOK_clean_linker_0, # of connection points: 2
#     Edge 25, Type (0, 1), BuildingBlock: AJUNOK_clean_linker_0, # of connection points: 2
#     Edge 26, Type (0, 1), BuildingBlock: AJUNOK_clean_linker_0, # of connection points: 2
#     Edge 27, Type (0, 1), BuildingBlock: AJUNOK_clean_linker_0, # of connection points: 2
#     Edge 28, Type (0, 1), BuildingBlock: AJUNOK_clean_linker_0, # of connection points: 2
#     Edge 29, Type (0, 1), BuildingBlock: AJUNOK_clean_linker_0, # of connection points: 2
#     Edge 30, Type (0, 1), BuildingBlock: AJUNOK_clean_linker_0, # of connection points: 2
#     Edge 31, Type (0, 1), BuildingBlock: AJUNOK_clean_linker_0, # of connection points: 2
#     Edge 32, Type (0, 1), BuildingBlock: AJUNOK_clean_linker_0, # of connection points: 2
#     Edge 33, Type (0, 1), BuildingBlock: AJUNOK_clean_linker_0, # of connection points: 2
#     Edge 34, Type (0, 1), BuildingBlock: AJUNOK_clean_linker_0, # of connection points: 2
#     Edge 35, Type (0, 1), BuildingBlock: AJUNOK_clean_linker_0, # of connection points: 2
#     Edge 36, Type (0, 1), BuildingBlock: AJUNOK_clean_linker_0, # of connection points: 2
#     Edge 37, Type (0, 1), BuildingBlock: AJUNOK_clean_linker_0, # of connection points: 2
#     Edge 38, Type (0, 1), BuildingBlock: AJUNOK_clean_linker_0, # of connection points: 2
#     Edge 39, Type (0, 1), BuildingBlock: AJUNOK_clean_linker_0, # of connection points: 2
#     Edge 40, Type (0, 1), BuildingBlock: AJUNOK_clean_linker_0, # of connection points: 2
#     Edge 41, Type (0, 1), BuildingBlock: AJUNOK_clean_linker_0, # of connection points: 2
#     Edge 42, Type (0, 1), BuildingBlock: AJUNOK_clean_linker_0, # of connection points: 2
#     Edge 43, Type (0, 1), BuildingBlock: AJUNOK_clean_linker_0, # of connection points: 2
# Relax obj value: 0.166
# Max RMSD: 0.289
# Mean RMSD: 0.211
data_MOF--net-sqc--node1-VETTIZ_charged_sbu_0--node2-MUDLON_clean_linker_0--edge1-AJUNOK_clean_linker_0
_symmetry_space_group_name_H-M    P1
_symmetry_Int_Tables_number       1
_symmetry_cell_setting            triclinic
loop_
_symmetry_equiv_pos_as_xyz
'x, y, z'
_cell_length_a     25.953871
_cell_length_b     25.657981
_cell_length_c     70.260241
_cell_angle_alpha  90.13764
_cell_angle_beta   90.019965
_cell_angle_gamma 89.943965
loop_
_atom_site_label
_atom_site_type_symbol
_atom_site_fract_x
_atom_site_fract_y
_atom_site_fract_z
_atom_type_partial_charge
H0 H 0.75785 0.94711 0.59595 0.0
N1 N 0.8196 0.9718 0.56735 0.0
H2 H 0.69862 1.00466 0.61317 0.0
H3 H 0.81594 0.07825 0.56441 0.0
H4 H 0.75707 0.13632 0.58172 0.0
H5 H 0.78785 0.02875 0.53664 0.0
H6 H 0.73294 0.99848 0.51074 0.0
H7 H 0.78599 0.87516 0.56135 0.0
H8 H 0.73025 0.84445 0.53528 0.0
H9 H 0.88854 0.9255 0.5894 0.0
H10 H 0.87571 0.03138 0.54215 0.0
H11 H 0.98238 0.92889 0.58708 0.0
H12 H 0.96939 0.03346 0.53917 0.0
H13 H 0.24062 0.95284 0.59252 0.0
H14 H 0.2974 1.00658 0.61258 0.0
H15 H 0.29193 0.12878 0.57051 0.0
H16 H 0.23568 0.07508 0.55062 0.0
H17 H 0.20352 0.02576 0.52357 0.0
H18 H 0.25542 1.00428 0.49535 0.0
H19 H 0.31795 0.87075 0.52472 0.0
H20 H 0.26604 0.89251 0.55274 0.0
H21 H 0.14301 0.89641 0.56544 0.0
H22 H 0.04906 0.89763 0.56729 0.0
H23 H 0.04937 0.06139 0.55293 0.0
N24 N 0.20586 0.97489 0.55779 0.0
H25 H 0.14349 0.05895 0.5504 0.0
C26 C 0.79155 1.00828 0.57906 0.0
C27 C 0.75864 0.98857 0.5931 0.0
C28 C 0.72487 0.02148 0.6029 0.0
C29 C 0.72337 0.07507 0.59886 0.0
C30 C 0.75726 0.09513 0.58507 0.0
C31 C 0.79119 0.06206 0.57527 0.0
C32 C 0.792 0.95382 0.55079 0.0
C33 C 0.77676 0.98819 0.53628 0.0
C34 C 0.74507 0.97088 0.5215 0.0
C35 C 0.72771 0.91902 0.52095 0.0
C36 C 0.74315 0.8846 0.53538 0.0
C37 C 0.77523 0.9019 0.55012 0.0
C38 C 0.87484 0.97756 0.56592 0.0
C39 C 0.90605 0.94944 0.5785 0.0
C40 C 0.95975 0.95109 0.577 0.0
C41 C 0.98384 0.98082 0.56271 0.0
C42 C 0.95244 1.0103 0.5504 0.0
C43 C 0.89853 1.00884 0.55201 0.0
C44 C 0.23406 1.00974 0.57009 0.0
C45 C 0.25123 0.99151 0.5878 0.0
C46 C 0.28364 0.02211 0.59918 0.0
C47 C 0.29984 0.0714 0.59292 0.0
C48 C 0.28098 0.09043 0.57549 0.0
C49 C 0.24841 0.05994 0.56418 0.0
C50 C 0.23114 0.96062 0.54027 0.0
C51 C 0.22811 0.9917 0.52385 0.0
C52 C 0.25801 0.97958 0.50779 0.0
C53 C 0.29121 0.93614 0.5079 0.0
C54 C 0.29265 0.90433 0.52415 0.0
C55 C 0.26307 0.91662 0.54016 0.0
C56 C 0.15033 0.97746 0.55797 0.0
C57 C 0.12267 0.93244 0.5626 0.0
C58 C 0.06892 0.93345 0.56382 0.0
C59 C 0.04127 0.97985 0.56056 0.0
C60 C 0.06913 0.02488 0.55546 0.0
C61 C 0.12313 0.02367 0.55412 0.0
H62 H 0.32335 0.52039 0.82824 0.0
N63 N 0.28339 0.58376 0.80205 0.0
H64 H 0.277 0.46831 0.85214 0.0
H65 H 0.17853 0.57694 0.80636 0.0
H66 H 0.13244 0.52641 0.83059 0.0
H67 H 0.22775 0.51972 0.77859 0.0
H68 H 0.26194 0.46537 0.7528 0.0
H69 H 0.3793 0.58265 0.78851 0.0
H70 H 0.41379 0.52842 0.7626 0.0
H71 H 0.29256 0.66466 0.82559 0.0
H72 H 0.23046 0.62149 0.77088 0.0
H73 H 0.26335 0.75405 0.82083 0.0
H74 H 0.20517 0.71106 0.76523 0.0
H75 H 0.24556 1.0131 0.79724 0.0
H76 H 0.2246 0.0773 0.82173 0.0
H77 H 0.06354 0.03726 0.81681 0.0
H78 H 0.08471 0.97399 0.79178 0.0
H79 H 0.13843 0.02099 0.75094 0.0
H80 H 0.18702 0.08059 0.7304 0.0
H81 H 0.32863 1.00683 0.74801 0.0
H82 H 0.28097 0.94902 0.76865 0.0
H83 H 0.25519 0.92037 0.79966 0.0
H84 H 0.27939 0.83053 0.80556 0.0
H85 H 0.1505 0.77865 0.77132 0.0
N86 N 0.17666 0.95492 0.7765 0.0
H87 H 0.12937 0.86931 0.76428 0.0
C88 C 0.25466 0.55331 0.81574 0.0
C89 C 0.28165 0.52165 0.82864 0.0
C90 C 0.25528 0.49182 0.84217 0.0
C91 C 0.20135 0.49369 0.84317 0.0
C92 C 0.17413 0.52462 0.83009 0.0
C93 C 0.20044 0.5537 0.81634 0.0
C94 C 0.3013 0.55475 0.78566 0.0
C95 C 0.26828 0.52222 0.7751 0.0
C96 C 0.28779 0.49139 0.76031 0.0
C97 C 0.34046 0.49289 0.75564 0.0
C98 C 0.37291 0.5271 0.76567 0.0
C99 C 0.35342 0.5577 0.78055 0.0
C100 C 0.26469 0.63618 0.7986 0.0
C101 C 0.27313 0.67463 0.81245 0.0
C102 C 0.25679 0.72602 0.80956 0.0
C103 C 0.23228 0.74074 0.79248 0.0
C104 C 0.22317 0.70174 0.7787 0.0
C105 C 0.23842 0.65008 0.78181 0.0
C106 C 0.16647 0.98862 0.79259 0.0
C107 C 0.20577 0.01768 0.80149 0.0
C108 C 0.19374 0.05461 0.81547 0.0
C109 C 0.14231 0.06326 0.8209 0.0
C110 C 0.10337 0.03274 0.81251 0.0
C111 C 0.1154 0.99603 0.79845 0.0
C112 C 0.20548 0.9804 0.76152 0.0
C113 C 0.17986 0.01674 0.74992 0.0
C114 C 0.20759 0.05069 0.73817 0.0
C115 C 0.2616 0.04857 0.73775 0.0
C116 C 0.28698 1.00967 0.74824 0.0
C117 C 0.25942 0.97617 0.76007 0.0
C118 C 0.19079 0.90184 0.78117 0.0
C119 C 0.23233 0.8898 0.79327 0.0
C120 C 0.24579 0.83788 0.79685 0.0
C121 C 0.2172 0.79643 0.78892 0.0
C122 C 0.17457 0.8089 0.77733 0.0
C123 C 0.16196 0.86087 0.7734 0.0
H124 H 0.73237 0.07129 0.06948 0.0
N125 N 0.70121 1.01233 0.03904 0.0
H126 H 0.76832 0.0388 0.09944 0.0
H127 H 0.71787 0.91389 0.04879 0.0
H128 H 0.75667 0.8811 0.0781 0.0
H129 H 0.80467 1.00156 0.03534 0.0
H130 H 0.86135 0.04526 0.01301 0.0
H131 H 0.67581 0.09079 0.01356 0.0
H132 H 0.73332 0.13443 0.99151 0.0
H133 H 0.6626 0.10543 0.0519 0.0
H134 H 0.6202 0.95339 0.03113 0.0
H135 H 0.57183 0.12692 0.05674 0.0
H136 H 0.52949 0.97317 0.03673 0.0
H137 H 0.29352 0.11402 0.09918 0.0
H138 H 0.2541 0.05607 0.12268 0.0
H139 H 0.28075 0.92493 0.08521 0.0
H140 H 0.32333 0.98257 0.06255 0.0
H141 H 0.27988 0.02673 0.03878 0.0
H142 H 0.2197 0.05527 0.01427 0.0
H143 H 0.23314 0.21373 0.0342 0.0
H144 H 0.29535 0.18526 0.05855 0.0
H145 H 0.41095 0.12485 0.08357 0.0
H146 H 0.50182 0.10875 0.07668 0.0
H147 H 0.45801 0.02055 0.02669 0.0
N148 N 0.32938 0.08905 0.06503 0.0
H149 H 0.36802 0.03406 0.03435 0.0
C150 C 0.72215 0.99477 0.05697 0.0
C151 C 0.73639 0.02971 0.07148 0.0
C152 C 0.75712 1.01104 0.08857 0.0
C153 C 0.76455 0.9572 0.09139 0.0
C154 C 0.74983 0.92256 0.0768 0.0
C155 C 0.72846 0.94121 0.05989 0.0
C156 C 0.73545 0.04397 0.02729 0.0
C157 C 0.78839 0.0315 0.02633 0.0
C158 C 0.82098 0.05603 0.01332 0.0
C159 C 0.80167 0.09321 1.00057 0.0
C160 C 0.74926 0.10634 1.00139 0.0
C161 C 0.71637 0.08142 0.0143 0.0
C162 C 0.64799 0.02787 0.04092 0.0
C163 C 0.63365 0.07663 0.04842 0.0
C164 C 0.58164 0.08869 0.05129 0.0
C165 C 0.54296 0.05184 0.04714 0.0
C166 C 0.55778 1.00308 0.03969 0.0
C167 C 0.60964 0.99147 0.03656 0.0
C168 C 0.31012 0.05294 0.07899 0.0
C169 C 0.29162 0.0726 0.09627 0.0
C170 C 0.26918 0.03944 0.10963 0.0
C171 C 0.26414 0.98581 0.10584 0.0
C172 C 0.28481 0.96577 0.0888 0.0
C173 C 0.30819 0.99893 0.0756 0.0
C174 C 0.29313 0.10414 0.05041 0.0
C175 C 0.27064 0.06767 0.03791 0.0
C176 C 0.23593 0.0839 0.02392 0.0
C177 C 0.22192 0.13655 0.02245 0.0
C178 C 0.24329 0.17285 0.03516 0.0
C179 C 0.27886 0.15673 0.04895 0.0
C180 C 0.3824 0.08132 0.0595 0.0
C181 C 0.42117 0.10228 0.07108 0.0
C182 C 0.47313 0.0933 0.06701 0.0
C183 C 0.4876 0.06337 0.05106 0.0
C184 C 0.44855 0.04307 0.03927 0.0
C185 C 0.39659 0.05138 0.04354 0.0
H186 H 0.27769 0.51726 0.29319 0.0
N187 N 0.34813 0.46043 0.27287 0.0
H188 H 0.29592 0.57832 0.31903 0.0
H189 H 0.43853 0.47619 0.29022 0.0
H190 H 0.45694 0.53604 0.31669 0.0
H191 H 0.35886 0.56135 0.26213 0.0
H192 H 0.30488 0.61081 0.24067 0.0
H193 H 0.2754 0.42092 0.24746 0.0
H194 H 0.22744 0.46902 0.2239 0.0
H195 H 0.2792 0.42362 0.29973 0.0
H196 H 0.38147 0.37554 0.25471 0.0
H197 H 0.25846 0.33426 0.30632 0.0
H198 H 0.35581 0.28551 0.25939 0.0
H199 H 0.19948 0.02715 0.32413 0.0
H200 H 0.24018 0.97274 0.34878 0.0
H201 H 0.38987 0.02284 0.32963 0.0
H202 H 0.34989 0.07532 0.30489 0.0
H203 H 0.30025 0.01985 0.27522 0.0
H204 H 0.2643 0.96209 0.2506 0.0
H205 H 0.1138 0.02924 0.25977 0.0
H206 H 0.14978 0.08603 0.28459 0.0
H207 H 0.19552 0.17194 0.30831 0.0
H208 H 0.21719 0.2618 0.30139 0.0
H209 H 0.35664 0.20928 0.2732 0.0
N210 N 0.24559 0.08617 0.29801 0.0
H211 H 0.32983 0.11974 0.27797 0.0
C212 C 0.35688 0.49176 0.28981 0.0
C213 C 0.3168 0.52046 0.29844 0.0
C214 C 0.32728 0.55538 0.31325 0.0
C215 C 0.37786 0.56185 0.32002 0.0
C216 C 0.41763 0.53225 0.31168 0.0
C217 C 0.40718 0.49762 0.29673 0.0
C218 C 0.31908 0.48763 0.25803 0.0
C219 C 0.32908 0.54078 0.25437 0.0
C220 C 0.29876 0.56917 0.24164 0.0
C221 C 0.25955 0.5447 0.23114 0.0
C222 C 0.2544 0.49021 0.23275 0.0
C223 C 0.28279 0.46223 0.24626 0.0
C224 C 0.33322 0.4069 0.27691 0.0
C225 C 0.29714 0.3939 0.29108 0.0
C226 C 0.2843 0.34179 0.2946 0.0
C227 C 0.30485 0.3008 0.28345 0.0
C228 C 0.33981 0.3145 0.26887 0.0
C229 C 0.35435 0.36649 0.26593 0.0
C230 C 0.27114 0.05646 0.31279 0.0
C231 C 0.24109 0.02644 0.32529 0.0
C232 C 0.26425 0.99512 0.33922 0.0
C233 C 0.31807 0.9937 0.34104 0.0
C234 C 0.34823 0.02346 0.32852 0.0
C235 C 0.32515 0.05396 0.31439 0.0
C236 C 0.22738 0.05681 0.28184 0.0
C237 C 0.25972 0.0226 0.27173 0.0
C238 C 0.23919 0.98973 0.25769 0.0
C239 C 0.18634 0.99143 0.25325 0.0
C240 C 0.15475 0.02763 0.26271 0.0
C241 C 0.17513 0.05985 0.27691 0.0
C242 C 0.26183 0.13909 0.29433 0.0
C243 C 0.23076 0.1802 0.30064 0.0
C244 C 0.24391 0.23203 0.29679 0.0
C245 C 0.2898 0.24464 0.28699 0.0
C246 C 0.32077 0.20267 0.28059 0.0
C247 C 0.30623 0.15073 0.28375 0.0
H248 H 0.77399 0.04623 0.30343 0.0
N249 N 0.7132 0.09116 0.27607 0.0
H250 H 0.74582 0.987 0.32826 0.0
H251 H 0.61658 0.068 0.28557 0.0
H252 H 0.58735 1.012 0.31166 0.0
H253 H 0.69455 0.02676 0.24737 0.0
H254 H 0.75675 0.97236 0.23021 0.0
H255 H 0.81833 0.099 0.27858 0.0
H256 H 0.88103 0.04453 0.26145 0.0
H257 H 0.76337 0.15038 0.30282 0.0
H258 H 0.66515 0.15806 0.25353 0.0
H259 H 0.75819 0.24551 0.30635 0.0
H260 H 0.66073 0.25285 0.25652 0.0
H261 H 0.74954 0.48798 0.31727 0.0
H262 H 0.73344 0.54216 0.34555 0.0
H263 H 0.58927 0.59302 0.32118 0.0
H264 H 0.6055 0.5387 0.29307 0.0
H265 H 0.64826 0.51988 0.25369 0.0
H266 H 0.69274 0.57305 0.22958 0.0
H267 H 0.8339 0.55974 0.26168 0.0
H268 H 0.78927 0.5083 0.28579 0.0
H269 H 0.7741 0.42329 0.29442 0.0
H270 H 0.78257 0.3286 0.29245 0.0
H271 H 0.62214 0.31706 0.27653 0.0
N272 N 0.68774 0.48096 0.28566 0.0
H273 H 0.61459 0.41198 0.27802 0.0
C274 C 0.69728 0.06141 0.29247 0.0
C275 C 0.73321 0.03906 0.30503 0.0
C276 C 0.71689 1.00546 0.31946 0.0
C277 C 0.66415 0.99504 0.32217 0.0
C278 C 0.62827 0.01863 0.30987 0.0
C279 C 0.64476 0.05119 0.29513 0.0
C280 C 0.75166 0.06674 0.26422 0.0
C281 C 0.7353 0.03162 0.25018 0.0
C282 C 0.77084 1.00058 0.24045 0.0
C283 C 0.82366 1.00374 0.24468 0.0
C284 C 0.84045 0.04072 0.25813 0.0
C285 C 0.80473 0.07216 0.26779 0.0
C286 C 0.71423 0.14718 0.27794 0.0
C287 C 0.7411 0.17262 0.29266 0.0
C288 C 0.73821 0.22709 0.2946 0.0
C289 C 0.70847 0.25708 0.28186 0.0
C290 C 0.68298 0.23121 0.26688 0.0
C291 C 0.68581 0.17704 0.26501 0.0
C292 C 0.6782 0.5088 0.30315 0.0
C293 C 0.71424 0.51024 0.31811 0.0
C294 C 0.70513 0.54138 0.33422 0.0
C295 C 0.66024 0.57199 0.33549 0.0
C296 C 0.62445 0.57031 0.3205 0.0
C297 C 0.63334 0.53895 0.30456 0.0
C298 C 0.71561 0.50924 0.2713 0.0
C299 C 0.6889 0.52822 0.25537 0.0
C300 C 0.71411 0.55874 0.24174 0.0
C301 C 0.76667 0.57022 0.24379 0.0
C302 C 0.79343 0.5509 0.25969 0.0
C303 C 0.76807 0.52113 0.27342 0.0
C304 C 0.69355 0.42498 0.2862 0.0
C305 C 0.74067 0.40057 0.29057 0.0
C306 C 0.74543 0.3461 0.28954 0.0
C307 C 0.70323 0.3149 0.28411 0.0
C308 C 0.65584 0.33964 0.28034 0.0
C309 C 0.65122 0.39391 0.28134 0.0
H310 H 0.76021 1.00674 0.81398 0.0
N311 N 0.82791 0.98006 0.78558 0.0
H312 H 0.77957 0.06013 0.84217 0.0
H313 H 0.9184 0.01888 0.79595 0.0
H314 H 0.9374 0.07405 0.8237 0.0
H315 H 0.72403 0.98971 0.78191 0.0
H316 H 0.67827 0.04195 0.75813 0.0
H317 H 0.86913 0.03487 0.75731 0.0
H318 H 0.82368 0.08664 0.73316 0.0
H319 H 0.75905 0.91991 0.80568 0.0
H320 H 0.88289 0.91367 0.765 0.0
H321 H 0.75155 0.82509 0.80461 0.0
H322 H 0.87394 0.81931 0.76288 0.0
H323 H 0.75888 0.58397 0.81212 0.0
H324 H 0.78765 0.52595 0.83765 0.0
H325 H 0.90969 0.46857 0.80135 0.0
H326 H 0.87841 0.52446 0.77557 0.0
H327 H 0.80646 0.56 0.74006 0.0
H328 H 0.74574 0.50591 0.72197 0.0
H329 H 0.63951 0.51078 0.7692 0.0
H330 H 0.70027 0.5646 0.78715 0.0
H331 H 0.71893 0.65739 0.7842 0.0
H332 H 0.72509 0.75211 0.78693 0.0
H333 H 0.88985 0.74198 0.77841 0.0
N334 N 0.79856 0.58945 0.77625 0.0
H335 H 0.88251 0.6479 0.77452 0.0
C336 C 0.83838 1.00759 0.80308 0.0
C337 C 0.79927 0.01992 0.81624 0.0
C338 C 0.81016 0.05094 0.83222 0.0
C339 C 0.85986 0.07123 0.83499 0.0
C340 C 0.89872 0.059 0.82181 0.0
C341 C 0.88808 0.02724 0.8061 0.0
C342 C 0.79994 1.00856 0.77131 0.0
C343 C 0.74596 1.01067 0.77131 0.0
C344 C 0.71996 0.04037 0.75767 0.0
C345 C 0.74744 0.06863 0.74381 0.0
C346 C 0.8015 0.06598 0.74378 0.0
C347 C 0.82743 0.03622 0.75744 0.0
C348 C 0.82248 0.92402 0.78568 0.0
C349 C 0.78485 0.89825 0.79656 0.0
C350 C 0.78016 0.84371 0.79572 0.0
C351 C 0.8124 0.81378 0.78377 0.0
C352 C 0.84927 0.84025 0.77268 0.0
C353 C 0.85433 0.89444 0.77375 0.0
C354 C 0.81639 0.55809 0.79192 0.0
C355 C 0.79135 0.55837 0.80962 0.0
C356 C 0.80805 0.5253 0.82421 0.0
C357 C 0.85054 0.49181 0.82148 0.0
C358 C 0.87589 0.49241 0.80379 0.0
C359 C 0.85865 0.52491 0.78915 0.0
C360 C 0.75812 0.56644 0.7649 0.0
C361 C 0.76943 0.55062 0.74626 0.0
C362 C 0.73467 0.51984 0.73596 0.0
C363 C 0.68781 0.50417 0.74418 0.0
C364 C 0.6754 0.52213 0.76254 0.0
C365 C 0.7101 0.55311 0.77279 0.0
C366 C 0.8003 0.64539 0.77874 0.0
C367 C 0.75627 0.67553 0.78274 0.0
C368 C 0.76002 0.72999 0.78452 0.0
C369 C 0.80795 0.75546 0.78267 0.0
C370 C 0.85198 0.72455 0.77936 0.0
C371 C 0.84803 0.6705 0.77729 0.0
H372 H 0.24847 0.59127 0.02108 0.0
N373 N 0.31751 0.54712 0.0439 0.0
H374 H 0.19235 0.54893 0.99785 0.0
H375 H 0.32121 0.44385 0.03309 0.0
H376 H 0.26855 0.40214 1.00876 0.0
H377 H 0.26617 0.48753 0.06986 0.0
H378 H 0.20634 0.52009 0.09452 0.0
H379 H 0.30094 0.64542 0.05373 0.0
H380 H 0.24115 0.67802 0.07801 0.0
H381 H 0.39697 0.6029 0.0317 0.0
H382 H 0.35861 0.46579 0.06382 0.0
H383 H 0.48842 0.58814 0.03783 0.0
H384 H 0.4501 0.44829 0.06909 0.0
H385 H 0.74356 0.53551 0.04084 0.0
H386 H 0.80067 0.50353 0.01603 0.0
H387 H 0.7709 0.34519 0.03355 0.0
H388 H 0.71436 0.37786 0.05902 0.0
H389 H 0.75639 0.45343 0.09656 0.0
H390 H 0.81406 0.51253 0.11395 0.0
H391 H 0.75063 0.64299 0.08312 0.0
H392 H 0.69344 0.58385 0.06574 0.0
H393 H 0.65054 0.52454 0.03636 0.0
H394 H 0.5597 0.53855 0.03041 0.0
H395 H 0.52358 0.47345 0.08554 0.0
N396 N 0.69387 0.47703 0.06786 0.0
H397 H 0.6151 0.45629 0.09081 0.0
C398 C 0.28903 0.52108 0.02896 0.0
C399 C 0.25299 0.5499 0.01845 0.0
C400 C 0.22113 0.52562 1.00506 0.0
C401 C 0.22508 0.47177 1.00156 0.0
C402 C 0.26294 0.44327 0.01151 0.0
C403 C 0.29387 0.46739 0.02532 0.0
C404 C 0.28796 0.56435 0.06007 0.0
C405 C 0.26182 0.52911 0.07195 0.0
C406 C 0.22774 0.54765 0.08596 0.0
C407 C 0.21926 0.60147 0.08805 0.0
C408 C 0.24708 0.63636 0.07663 0.0
C409 C 0.28123 0.61792 0.06285 0.0
C410 C 0.37115 0.53515 0.04702 0.0
C411 C 0.40857 0.569 0.0398 0.0
C412 C 0.46094 0.56017 0.04325 0.0
C413 C 0.47734 0.51666 0.05388 0.0
C414 C 0.43939 0.48261 0.06108 0.0
C415 C 0.38687 0.4921 0.05787 0.0
C416 C 0.72451 0.45898 0.05194 0.0
C417 C 0.74903 0.49392 0.03946 0.0
C418 C 0.78171 0.47554 0.02517 0.0
C419 C 0.79076 0.42186 0.02295 0.0
C420 C 0.76553 0.38683 0.03516 0.0
C421 C 0.7328 0.40534 0.04954 0.0
C422 C 0.72067 0.51397 0.07986 0.0
C423 C 0.75426 0.49491 0.09386 0.0
C424 C 0.78718 0.52863 0.10372 0.0
C425 C 0.78741 0.58216 0.09963 0.0
C426 C 0.75194 0.60171 0.08628 0.0
C427 C 0.71887 0.56798 0.07647 0.0
C428 C 0.6401 0.48833 0.06402 0.0
C429 C 0.62343 0.51267 0.04715 0.0
C430 C 0.57091 0.52133 0.04384 0.0
C431 C 0.53357 0.50711 0.05743 0.0
C432 C 0.55063 0.48392 0.07448 0.0
C433 C 0.60311 0.47449 0.07764 0.0
H434 H 0.22392 0.62465 0.6029 0.0
N435 N 0.19135 0.60276 0.56801 0.0
H436 H 0.26158 0.56475 0.62615 0.0
H437 H 0.19788 0.49644 0.56444 0.0
H438 H 0.24018 0.43716 0.58668 0.0
H439 H 0.22859 0.54049 0.53918 0.0
H440 H 0.28589 0.56676 0.5136 0.0
H441 H 0.23196 0.69652 0.56209 0.0
H442 H 0.28971 0.72333 0.53613 0.0
H443 H 0.12023 0.65631 0.58664 0.0
H444 H 0.13944 0.54515 0.54115 0.0
H445 H 0.02709 0.65405 0.58215 0.0
H446 H 0.04679 0.54489 0.53567 0.0
H447 H 0.77971 0.60423 0.59283 0.0
H448 H 0.74124 0.54113 0.61478 0.0
H449 H 0.75582 0.42133 0.57177 0.0
H450 H 0.79048 0.48527 0.54965 0.0
H451 H 0.80873 0.5398 0.52207 0.0
H452 H 0.75485 0.56194 0.49447 0.0
H453 H 0.6842 0.6861 0.52688 0.0
H454 H 0.73839 0.66393 0.55425 0.0
H455 H 0.86485 0.6729 0.56261 0.0
H456 H 0.95879 0.67917 0.56283 0.0
H457 H 0.96899 0.51557 0.54822 0.0
N458 N 0.80787 0.58857 0.55685 0.0
H459 H 0.87564 0.51098 0.54673 0.0
C460 C 0.21025 0.56554 0.58165 0.0
C461 C 0.22699 0.58363 0.59941 0.0
C462 C 0.2488 0.54939 0.61258 0.0
C463 C 0.2558 0.49643 0.60799 0.0
C464 C 0.23593 0.47777 0.59062 0.0
C465 C 0.2127 0.51189 0.57767 0.0
C466 C 0.22542 0.61675 0.55261 0.0
C467 C 0.24128 0.58048 0.53876 0.0
C468 C 0.27407 0.5956 0.52401 0.0
C469 C 0.29173 0.64723 0.52275 0.0
C470 C 0.27664 0.68328 0.53676 0.0
C471 C 0.2436 0.66812 0.5515 0.0
C472 C 0.13688 0.6015 0.56418 0.0
C473 C 0.10425 0.63207 0.57546 0.0
C474 C 0.05099 0.63103 0.57271 0.0
C475 C 0.02901 0.59965 0.55838 0.0
C476 C 0.06203 0.56913 0.54697 0.0
C477 C 0.11537 0.56964 0.54996 0.0
C478 C 0.78789 0.54964 0.56964 0.0
C479 C 0.77479 0.5642 0.58826 0.0
C480 C 0.75366 0.52788 0.60088 0.0
C481 C 0.74601 0.47589 0.59515 0.0
C482 C 0.76106 0.46106 0.57665 0.0
C483 C 0.78112 0.49761 0.56395 0.0
C484 C 0.77735 0.6003 0.54025 0.0
C485 C 0.78152 0.5716 0.52323 0.0
C486 C 0.75055 0.58417 0.5075 0.0
C487 C 0.71502 0.6256 0.50853 0.0
C488 C 0.71136 0.6542 0.52558 0.0
C489 C 0.74209 0.64154 0.54123 0.0
C490 C 0.86309 0.59149 0.55503 0.0
C491 C 0.88758 0.63872 0.55917 0.0
C492 C 0.94131 0.64196 0.5595 0.0
C493 C 0.97188 0.59759 0.55595 0.0
C494 C 0.94707 0.55071 0.55095 0.0
C495 C 0.89327 0.54781 0.5503 0.0
Fe496 Fe 0.00995 0.74017 0.21409 0.0
O497 O 0.01128 0.74238 0.18608 0.0
Fe498 Fe 0.94905 0.77953 0.17226 0.0
Fe499 Fe 0.06958 0.77403 0.17155 0.0
O500 O 1.00578 0.74309 0.18621 0.0
O501 O 1.00733 0.81148 0.15791 0.0
O502 O 0.01287 0.81154 0.15796 0.0
Fe503 Fe 0.00842 0.81628 0.13016 0.0
C504 C 0.08337 0.83169 0.2083 0.0
O505 O 0.066 0.68568 0.20911 0.0
O506 O 0.12044 0.72699 0.18797 0.0
O507 O 0.94992 0.7625 0.12628 0.0
O508 O 0.944 0.71835 0.1534 0.0
O509 O 0.89538 0.7392 0.18956 0.0
O510 O 0.94714 0.69283 0.21028 0.0
O511 O 0.0687 0.71319 0.15222 0.0
O512 O 0.06169 0.7585 0.12536 0.0
C513 C 0.90362 0.70193 0.20185 0.0
O514 O 0.95084 0.86944 0.1353 0.0
O515 O 0.89732 0.82351 0.15536 0.0
O516 O 0.06996 0.7918 0.21775 0.0
O517 O 0.0748 0.83539 0.19055 0.0
C518 C 0.1091 0.68937 0.19984 0.0
C519 C 0.07567 0.7179 0.13436 0.0
C520 C 0.1146 0.85358 0.14262 0.0
O521 O 0.12282 0.81507 0.1544 0.0
O522 O 0.07077 0.86416 0.13454 0.0
C523 C 0.93477 0.72298 0.13569 0.0
O524 O 0.95071 0.84134 0.19074 0.0
O525 O 0.95803 0.80062 0.21854 0.0
C526 C 0.90637 0.86054 0.14307 0.0
C527 C 0.94563 0.84042 0.20871 0.0
Fe528 Fe 0.50615 0.78392 0.44442 0.0
O529 O 0.47533 0.74268 0.4232 0.0
Fe530 Fe 0.53342 0.90269 0.42389 0.0
Fe531 Fe 0.47845 0.66631 0.42313 0.0
O532 O 0.53682 0.82629 0.42358 0.0
O533 O 0.53677 0.82638 0.42168 0.0
O534 O 0.47498 0.74294 0.42121 0.0
Fe535 Fe 0.50688 0.78477 0.40017 0.0
C536 C 0.57037 0.69039 0.44943 0.0
O537 O 0.4672 0.73501 0.46375 0.0
O538 O 0.42511 0.67574 0.44462 0.0
O539 O 0.442 0.83206 0.39854 0.0
O540 O 0.4767 0.91032 0.40376 0.0
O541 O 0.47818 0.90727 0.4454 0.0
O542 O 0.44157 0.82953 0.44497 0.0
O543 O 0.43022 0.67225 0.39971 0.0
O544 O 0.47096 0.73337 0.38074 0.0
C545 C 0.44101 0.87715 0.44976 0.0
O546 O 0.54558 0.8358 0.3813 0.0
O547 O 0.58308 0.89735 0.40104 0.0
O548 O 0.57067 0.73803 0.44471 0.0
O549 O 0.53272 0.66098 0.44493 0.0
C550 C 0.43088 0.70092 0.46055 0.0
C551 C 0.43933 0.69434 0.38337 0.0
C552 C 0.57206 0.68826 0.39721 0.0
O553 O 0.53621 0.65911 0.4034 0.0
O554 O 0.57166 0.73765 0.39943 0.0
C555 C 0.44156 0.8816 0.39671 0.0
O556 O 0.58613 0.89277 0.44541 0.0
O557 O 0.54533 0.83194 0.46415 0.0
C558 C 0.57728 0.87446 0.38464 0.0
C559 C 0.5815 0.86623 0.46102 0.0
Fe560 Fe 0.50676 0.23976 0.71379 0.0
O561 O 0.5072 0.24089 0.6859 0.0
Fe562 Fe 0.44247 0.27352 0.6721 0.0
Fe563 Fe 0.56339 0.27504 0.67096 0.0
O564 O 0.50142 0.24006 0.68582 0.0
O565 O 0.49888 0.30636 0.65685 0.0
O566 O 0.50437 0.3065 0.65679 0.0
Fe567 Fe 0.50049 0.30777 0.62895 0.0
C568 C 0.5725 0.33762 0.7067 0.0
O569 O 0.56681 0.18936 0.70932 0.0
O570 O 0.61781 0.23496 0.68817 0.0
O571 O 0.44592 0.25073 0.62571 0.0
O572 O 0.43733 0.21062 0.65367 0.0
O573 O 0.39171 0.23202 0.6904 0.0
O574 O 0.44713 0.18822 0.71064 0.0
O575 O 0.56552 0.21208 0.65292 0.0
O576 O 0.55792 0.2523 0.62508 0.0
C577 C 0.40198 0.19658 0.70326 0.0
O578 O 0.43995 0.35808 0.63339 0.0
O579 O 0.38875 0.31585 0.65551 0.0
O580 O 0.56194 0.29763 0.71669 0.0
O581 O 0.56434 0.33846 0.68887 0.0
C582 C 0.61 0.19802 0.70064 0.0
C583 C 0.57458 0.21459 0.63517 0.0
C584 C 0.60443 0.35096 0.63959 0.0
O585 O 0.61443 0.31652 0.65279 0.0
O586 O 0.55918 0.35997 0.63251 0.0
C587 C 0.43185 0.21195 0.63564 0.0
O588 O 0.44321 0.33685 0.69044 0.0
O589 O 0.4501 0.29459 0.71792 0.0
C590 C 0.39744 0.35217 0.64289 0.0
C591 C 0.43676 0.33432 0.70837 0.0
Fe592 Fe 0.00975 0.28277 0.9449 0.0
O593 O 0.04285 0.24418 0.92343 0.0
Fe594 Fe 0.97945 0.40236 0.92467 0.0
Fe595 Fe 0.04243 0.16776 0.92225 0.0
O596 O 0.97881 0.32588 0.92421 0.0
O597 O 0.97892 0.32611 0.92231 0.0
O598 O 0.04304 0.24447 0.92143 0.0
Fe599 Fe 0.0106 0.28674 0.90063 0.0
C600 C 0.08501 0.1988 0.96083 0.0
O601 O 0.94646 0.23481 0.94446 0.0
O602 O 0.98719 0.15888 0.94325 0.0
O603 O 0.9714 0.33783 0.88193 0.0
O604 O 0.92961 0.39602 0.90184 0.0
O605 O 0.92765 0.39039 0.94655 0.0
O606 O 0.96907 0.32858 0.96475 0.0
O607 O 0.98582 0.16052 0.90197 0.0
O608 O 0.94729 0.23802 0.89913 0.0
C609 C 0.93348 0.36381 0.96215 0.0
O610 O 0.07413 0.3356 0.89987 0.0
O611 O 0.03565 0.41238 0.90439 0.0
O612 O 0.04851 0.23283 0.96389 0.0
O613 O 0.09385 0.17648 0.94449 0.0
C614 C 0.94818 0.18626 0.94786 0.0
C615 C 0.94878 0.18893 0.89622 0.0
C616 C 0.08082 0.19937 0.8831 0.0
O617 O 0.0917 0.17747 0.89933 0.0
O618 O 0.04829 0.23782 0.8809 0.0
C619 C 0.93844 0.37545 0.8852 0.0
O620 O 0.03538 0.40826 0.94573 0.0
O621 O 0.07298 0.33031 0.94683 0.0
C622 C 0.07291 0.3851 0.89805 0.0
C623 C 0.07252 0.37869 0.95064 0.0
C624 C 0.32833 0.87281 0.4844 0.0
C625 C 0.32556 0.92404 0.49147 0.0
C626 C 0.36417 0.8588 0.47037 0.0
C627 C 0.39933 0.89532 0.46286 0.0
H628 H 0.30314 0.84293 0.49003 0.0
H629 H 0.36525 0.8184 0.46587 0.0
S630 S 0.40631 0.03547 0.47605 0.0
N631 N 0.35968 1.01201 0.48951 0.0
N632 N 0.42702 0.98597 0.46307 0.0
C633 C 0.39571 0.94724 0.46935 0.0
C634 C 0.35889 0.96152 0.48363 0.0
C635 C 0.33133 0.11462 0.73922 0.0
C636 C 0.29243 0.09026 0.72855 0.0
C637 C 0.36436 0.15096 0.73098 0.0
C638 C 0.36004 0.16487 0.71167 0.0
H639 H 0.33697 0.1048 0.75407 0.0
H640 H 0.39454 0.16741 0.7398 0.0
S641 S 0.26111 0.11649 0.67796 0.0
N642 N 0.24872 0.08521 0.69798 0.0
N643 N 0.31078 0.15483 0.68251 0.0
C644 C 0.31925 0.14345 0.70108 0.0
C645 C 0.28548 0.10579 0.70951 0.0
C646 C 0.2005 0.1464 0.98807 0.0
C647 C 0.1864 0.1535 1.00718 0.0
C648 C 0.16754 0.16142 0.97327 0.0
C649 C 0.11891 0.18378 0.97699 0.0
H650 H 0.23753 0.12939 0.98454 0.0
H651 H 0.18057 0.15564 0.95877 0.0
S652 S 0.06261 0.20673 0.02491 0.0
N653 N 0.12034 0.1823 0.02926 0.0
N654 N 0.05748 0.20958 1.0015 0.0
C655 C 0.10409 0.19028 0.99616 0.0
C656 C 0.13806 0.17542 1.01123 0.0
C657 C 0.16953 0.89871 0.24446 0.0
C658 C 0.16308 0.95191 0.24037 0.0
C659 C 0.14406 0.86032 0.23382 0.0
C660 C 0.11182 0.87348 0.21844 0.0
H661 H 0.19316 0.88672 0.25639 0.0
H662 H 0.14949 0.81989 0.23778 0.0
S663 S 0.08388 1.0072 0.20137 0.0
N664 N 0.12314 0.01593 0.21962 0.0
N665 N 0.07603 0.94354 0.19931 0.0
C666 C 0.10625 0.92648 0.21381 0.0
C667 C 0.13156 0.96573 0.22488 0.0
C668 C 0.32794 0.11289 0.62371 0.0
C669 C 0.33705 0.10267 0.6043 0.0
C670 C 0.36061 0.14596 0.63418 0.0
C671 C 0.40341 0.16991 0.62564 0.0
H672 H 0.29423 0.09688 0.63065 0.0
H673 H 0.3509 0.15494 0.64876 0.0
S674 S 0.44888 0.14881 0.57614 0.0
N675 N 0.39552 0.11406 0.57763 0.0
N676 N 0.45646 0.17629 0.59722 0.0
C677 C 0.41456 0.15749 0.60656 0.0
C678 C 0.38148 0.1239 0.59592 0.0
C679 C 0.15771 0.10486 0.85272 0.0
C680 C 0.12954 0.10308 0.83563 0.0
C681 C 0.14374 0.13876 0.86752 0.0
C682 C 0.10114 0.17257 0.86585 0.0
H683 H 0.18955 0.07828 0.85502 0.0
H684 H 0.16545 0.13696 0.88067 0.0
S685 S 0.01814 0.18711 0.82306 0.0
N686 N 0.06 0.14137 0.81714 0.0
N687 N 0.03321 0.20466 0.84499 0.0
C688 C 0.0744 0.17326 0.84838 0.0
C689 C 0.08857 0.13851 0.83332 0.0
C690 C 0.18297 0.9723 0.12409 0.0
C691 C 0.23112 0.95279 0.11825 0.0
C692 C 0.14711 0.94048 0.13322 0.0
C693 C 0.15771 0.88773 0.13694 0.0
H694 H 0.1715 1.01177 0.12064 0.0
H695 H 0.10971 0.95684 0.13664 0.0
S696 S 0.2802 0.81884 0.12673 0.0
N697 N 0.28958 0.87851 0.11863 0.0
N698 N 0.22125 0.81824 0.13559 0.0
C699 C 0.20679 0.86834 0.13235 0.0
C700 C 0.2436 0.9009 0.12297 0.0
C701 C 0.37332 0.99006 0.36998 0.0
C702 C 0.34336 0.96354 0.35647 0.0
C703 C 0.40199 0.96299 0.38364 0.0
C704 C 0.40281 0.90795 0.38425 0.0
H705 H 0.37547 0.03223 0.36972 0.0
H706 H 0.42527 0.98576 0.39338 0.0
S707 S 0.32809 0.82028 0.35243 0.0
N708 N 0.31339 0.87954 0.345 0.0
N709 N 0.36826 0.82811 0.37046 0.0
C710 C 0.3711 0.88093 0.37125 0.0
C711 C 0.34126 0.90883 0.35741 0.0
C712 C 0.65362 0.14281 0.59766 0.0
C713 C 0.68511 0.10947 0.60847 0.0
C714 C 0.61696 0.17529 0.60636 0.0
C715 C 0.61026 0.17595 0.62628 0.0
H716 H 0.65714 0.1436 0.5823 0.0
H717 H 0.59402 0.20049 0.59735 0.0
S718 S 0.68464 0.09671 0.66104 0.0
N719 N 0.70814 0.07961 0.64011 0.0
N720 N 0.63924 0.14008 0.65656 0.0
C721 C 0.64139 0.1423 0.63725 0.0
C722 C 0.67877 0.10931 0.62834 0.0
C723 C 0.60669 0.92377 0.33475 0.0
C724 C 0.64628 0.96041 0.33791 0.0
C725 C 0.58658 0.89359 0.34967 0.0
C726 C 0.60526 0.89882 0.3684 0.0
H727 H 0.5904 0.91899 0.32066 0.0
H728 H 0.55469 0.86768 0.34662 0.0
S729 S 0.71161 0.9862 0.38402 0.0
N730 N 0.70469 0.99858 0.36114 0.0
N731 N 0.66901 0.94048 0.38887 0.0
C732 C 0.64679 0.93333 0.37152 0.0
C733 C 0.66673 0.96444 0.3564 0.0
C734 C 0.83909 0.96276 0.11385 0.0
C735 C 0.79338 0.93755 0.10829 0.0
C736 C 0.87307 0.93971 0.12681 0.0
C737 C 0.86297 0.89037 0.13472 0.0
H738 H 0.85076 0.9988 0.10713 0.0
H739 H 0.90934 0.95914 0.12963 0.0
S740 S 0.74405 0.81266 0.12768 0.0
N741 N 0.73584 0.8644 0.11406 0.0
N742 N 0.8007 0.82027 0.13803 0.0
C743 C 0.81519 0.86701 0.13074 0.0
C744 C 0.7803 0.89067 0.11755 0.0
C745 C 0.88981 0.15611 0.84874 0.0
C746 C 0.87211 0.10487 0.85159 0.0
C747 C 0.90957 0.18581 0.86391 0.0
C748 C 0.91329 0.16478 0.88233 0.0
H749 H 0.89045 0.17247 0.83454 0.0
H750 H 0.92583 0.22375 0.86088 0.0
S751 S 0.8684 0.03424 0.89749 0.0
N752 N 0.85566 0.0361 0.87446 0.0
N753 N 0.89437 0.09121 0.90282 0.0
C754 C 0.89316 0.11472 0.88552 0.0
C755 C 0.87216 0.08491 0.87017 0.0
C756 C 0.64505 0.87805 0.50981 0.0
C757 C 0.69259 0.90166 0.50552 0.0
C758 C 0.60956 0.8656 0.49537 0.0
C759 C 0.62039 0.87643 0.47614 0.0
H760 H 0.63458 0.87061 0.52447 0.0
H761 H 0.57291 0.84871 0.49937 0.0
S762 S 0.74309 0.93089 0.45739 0.0
N763 N 0.75086 0.93046 0.4807 0.0
N764 N 0.68491 0.90716 0.45357 0.0
C765 C 0.66901 0.8978 0.47168 0.0
C766 C 0.70487 0.91042 0.48636 0.0
C767 C 0.85898 0.95841 0.21588 0.0
C768 C 0.86004 0.96623 0.23569 0.0
C769 C 0.88838 0.91904 0.20725 0.0
C770 C 0.91954 0.88529 0.21812 0.0
H771 H 0.83437 0.98231 0.207 0.0
H772 H 0.88505 0.91393 0.19199 0.0
S773 S 0.93815 0.89152 0.27047 0.0
N774 N 0.89658 0.93862 0.26589 0.0
N775 N 0.95195 0.86461 0.24972 0.0
C776 C 0.92233 0.8939 0.23789 0.0
C777 C 0.89265 0.93437 0.24666 0.0
C778 C 0.84107 0.17102 0.98452 0.0
C779 C 0.83602 0.1166 0.98598 0.0
C780 C 0.87605 0.19344 0.97165 0.0
C781 C 0.90715 0.16221 0.95973 0.0
H782 H 0.819 0.19638 0.9938 0.0
H783 H 0.87993 0.23548 0.97154 0.0
S784 S 0.90307 0.01778 0.95638 0.0
N785 N 0.86118 0.03227 0.97327 0.0
N786 N 0.92674 0.07402 0.94912 0.0
C787 C 0.90058 0.10777 0.96051 0.0
C788 C 0.86512 0.08509 0.97362 0.0
C789 C 0.67611 0.07966 0.72025 0.0
C790 C 0.71909 0.10087 0.72966 0.0
C791 C 0.64356 0.11094 0.70924 0.0
C792 C 0.65293 0.16456 0.70699 0.0
H793 H 0.66625 0.03896 0.7221 0.0
H794 H 0.6091 0.09357 0.70325 0.0
S795 S 0.76206 0.23871 0.72744 0.0
N796 N 0.77096 0.1785 0.73508 0.0
N797 N 0.70973 0.23708 0.71406 0.0
C798 C 0.69761 0.18568 0.71517 0.0
C799 C 0.73074 0.15386 0.72658 0.0
C800 C 0.82131 0.42407 0.98925 0.0
C801 C 0.82603 0.40332 1.00765 0.0
C802 C 0.85577 0.41049 0.97477 0.0
C803 C 0.8968 0.37547 0.97796 0.0
H804 H 0.79069 0.45137 0.986 0.0
H805 H 0.85009 0.42816 0.96094 0.0
S806 S 0.92545 0.30913 0.02375 0.0
N807 N 0.87438 0.34544 0.02839 0.0
N808 N 0.93908 0.31916 1.0011 0.0
C809 C 0.90134 0.35342 0.99627 0.0
C810 C 0.86601 0.36744 1.01109 0.0
C811 C 0.83978 0.58228 0.22133 0.0
C812 C 0.79454 0.60215 0.22955 0.0
C813 C 0.87238 0.6142 0.21065 0.0
C814 C 0.86118 0.66733 0.20783 0.0
H815 H 0.85131 0.54233 0.22396 0.0
H816 H 0.90837 0.59792 0.20554 0.0
S817 S 0.74516 0.73721 0.22497 0.0
N818 N 0.7379 0.67712 0.23295 0.0
N819 N 0.7998 0.73747 0.21289 0.0
C820 C 0.81423 0.68685 0.21477 0.0
C821 C 0.78077 0.65414 0.22568 0.0
C822 C 0.6774 0.69227 0.48648 0.0
C823 C 0.68165 0.6398 0.49204 0.0
C824 C 0.64302 0.70773 0.47217 0.0
C825 C 0.61085 0.67144 0.46284 0.0
H826 H 0.70037 0.72191 0.49348 0.0
H827 H 0.64058 0.74888 0.46887 0.0
S828 S 0.60907 0.52864 0.47143 0.0
N829 N 0.65232 0.55109 0.48661 0.0
N830 N 0.58777 0.57991 0.45963 0.0
C831 C 0.616 0.61849 0.46782 0.0
C832 C 0.65135 0.60274 0.48239 0.0
C833 C 0.64002 0.4196 0.74441 0.0
C834 C 0.65475 0.46475 0.73452 0.0
C835 C 0.61264 0.37949 0.73539 0.0
C836 C 0.59859 0.38276 0.71604 0.0
H837 H 0.65117 0.4144 0.75917 0.0
H838 H 0.60343 0.34523 0.74363 0.0
S839 S 0.62356 0.49567 0.68428 0.0
N840 N 0.65039 0.51231 0.70473 0.0
N841 N 0.59869 0.43721 0.68765 0.0
C842 C 0.61157 0.4287 0.70614 0.0
C843 C 0.63975 0.46952 0.71537 0.0
C844 C 0.83323 0.61749 0.12843 0.0
C845 C 0.82629 0.61703 0.10857 0.0
C846 C 0.86941 0.6507 0.13707 0.0
C847 C 0.90026 0.68458 0.12616 0.0
H848 H 0.80978 0.59272 0.13739 0.0
H849 H 0.87224 0.65061 0.15245 0.0
S850 S 0.9008 0.69363 0.07336 0.0
N851 N 0.85587 0.65011 0.07813 0.0
N852 N 0.92374 0.71239 0.09419 0.0
C853 C 0.89477 0.68306 0.1062 0.0
C854 C 0.85784 0.64941 0.09746 0.0
C855 C 0.63499 0.65745 0.35025 0.0
C856 C 0.64914 0.60478 0.35251 0.0
C857 C 0.61528 0.68668 0.36554 0.0
C858 C 0.60826 0.66395 0.38355 0.0
H859 H 0.63687 0.67542 0.33633 0.0
H860 H 0.6015 0.72585 0.36282 0.0
S861 S 0.64438 0.52944 0.39743 0.0
N862 N 0.65921 0.53279 0.3746 0.0
N863 N 0.62147 0.58742 0.40323 0.0
C864 C 0.6256 0.61255 0.3863 0.0
C865 C 0.64622 0.58302 0.3708 0.0
C866 C 0.67605 0.41039 0.59855 0.0
C867 C 0.71574 0.43918 0.60718 0.0
C868 C 0.64256 0.37994 0.60929 0.0
C869 C 0.64677 0.3769 0.62922 0.0
H870 H 0.66909 0.41311 0.58338 0.0
H871 H 0.61177 0.3598 0.60189 0.0
S872 S 0.74707 0.43988 0.65881 0.0
N873 N 0.76021 0.45909 0.63689 0.0
N874 N 0.69596 0.40174 0.65718 0.0
C875 C 0.68771 0.40302 0.6381 0.0
C876 C 0.72226 0.43445 0.62708 0.0
C877 C 0.87432 0.48127 0.85577 0.0
C878 C 0.87033 0.45924 0.8375 0.0
C879 C 0.89489 0.45317 0.87102 0.0
C880 C 0.91298 0.40164 0.86877 0.0
H881 H 0.86275 0.52128 0.85827 0.0
H882 H 0.898 0.47298 0.8846 0.0
S883 S 0.90758 0.32408 0.82417 0.0
N884 N 0.88298 0.38121 0.81825 0.0
N885 N 0.92312 0.32879 0.8469 0.0
C886 C 0.9084 0.37858 0.85065 0.0
C887 C 0.88682 0.40721 0.83506 0.0
C888 C 0.13755 0.65043 0.09234 0.0
C889 C 0.17812 0.62219 0.1006 0.0
C890 C 0.10229 0.67791 0.10357 0.0
C891 C 0.10633 0.67877 0.12357 0.0
H892 H 0.13424 0.6529 0.07699 0.0
H893 H 0.07293 0.70066 0.09642 0.0
S894 S 0.20337 0.60695 0.15219 0.0
N895 N 0.21839 0.59301 0.12989 0.0
N896 N 0.15225 0.64529 0.15121 0.0
C897 C 0.14489 0.64789 0.13209 0.0
C898 C 0.18084 0.61954 0.12054 0.0
C899 C 0.17071 0.41092 0.85863 0.0
C900 C 0.17333 0.46568 0.85844 0.0
C901 C 0.14039 0.38454 0.87216 0.0
C902 C 0.11198 0.41212 0.88604 0.0
H903 H 0.19068 0.3885 0.84783 0.0
H904 H 0.13748 0.34251 0.8712 0.0
S905 S 0.11273 0.55589 0.89302 0.0
N906 N 0.14943 0.54627 0.87416 0.0
N907 N 0.09363 0.49747 0.89981 0.0
C908 C 0.11715 0.46689 0.88658 0.0
C909 C 0.14744 0.49347 0.87271 0.0
C910 C 0.27377 0.40955 0.62352 0.0
C911 C 0.288 0.46189 0.62025 0.0
C912 C 0.30763 0.37441 0.63248 0.0
C913 C 0.35684 0.39051 0.63837 0.0
H914 H 0.23699 0.39517 0.61847 0.0
H915 H 0.29658 0.33384 0.63367 0.0
S916 S 0.41137 0.52363 0.63489 0.0
N917 N 0.35411 0.52812 0.62481 0.0
N918 N 0.41645 0.46264 0.64203 0.0
C919 C 0.37013 0.44326 0.63635 0.0
C920 C 0.33607 0.47883 0.62721 0.0
C921 C 0.43165 0.63376 0.33411 0.0
C922 C 0.38941 0.59957 0.33564 0.0
C923 C 0.4454 0.6672 0.34914 0.0
C924 C 0.41767 0.66752 0.36637 0.0
H925 H 0.4549 0.63403 0.32131 0.0
H926 H 0.47961 0.69096 0.34756 0.0
S927 S 0.30168 0.58817 0.37714 0.0
N928 N 0.31857 0.56992 0.35548 0.0
N929 N 0.34366 0.63325 0.3835 0.0
C930 C 0.37391 0.63525 0.36772 0.0
C931 C 0.35998 0.60121 0.35244 0.0
C932 C 0.17353 0.47051 0.97103 0.0
C933 C 0.18847 0.44567 0.98808 0.0
C934 C 0.13645 0.44847 0.95884 0.0
C935 C 0.1137 0.40014 0.96298 0.0
H936 H 0.19036 0.50755 0.96709 0.0
H937 H 0.12557 0.46933 0.94606 0.0
S938 S 0.13655 0.32028 1.00606 0.0
N939 N 0.17476 0.37106 1.00878 0.0
N940 N 0.10739 0.32865 0.98541 0.0
C941 C 0.12861 0.37447 0.97975 0.0
C942 C 0.16543 0.39739 0.99238 0.0
C943 C 0.35232 0.40113 0.74485 0.0
C944 C 0.36235 0.45437 0.74202 0.0
C945 C 0.37573 0.36299 0.73352 0.0
C946 C 0.40955 0.37644 0.71868 0.0
H947 H 0.32749 0.38868 0.75637 0.0
H948 H 0.36769 0.32242 0.73658 0.0
S949 S 0.44688 0.51032 0.7047 0.0
N950 N 0.40728 0.51883 0.72288 0.0
N951 N 0.45077 0.44668 0.7013 0.0
C952 C 0.41871 0.42952 0.71522 0.0
C953 C 0.39539 0.46857 0.727 0.0
C954 C 0.37255 0.68878 0.5102 0.0
C955 C 0.32555 0.66318 0.50672 0.0
C956 C 0.40614 0.70147 0.49522 0.0
C957 C 0.39395 0.68907 0.47619 0.0
H958 H 0.384 0.69795 0.52465 0.0
H959 H 0.44234 0.72022 0.49867 0.0
S960 S 0.27204 0.62807 0.45947 0.0
N961 N 0.26633 0.63009 0.48285 0.0
N962 N 0.32888 0.65371 0.45472 0.0
C963 C 0.346 0.66516 0.47254 0.0
C964 C 0.312 0.65228 0.48778 0.0
C965 C 0.23722 0.62278 0.21063 0.0
C966 C 0.22164 0.57682 0.22009 0.0
C967 C 0.20105 0.65798 0.203 0.0
C968 C 0.14787 0.64834 0.20438 0.0
H969 H 0.27769 0.63262 0.20965 0.0
H970 H 0.21479 0.69399 0.19681 0.0
S971 S 0.08656 0.53049 0.2252 0.0
N972 N 0.14868 0.52252 0.22909 0.0
N973 N 0.08173 0.58587 0.21351 0.0
C974 C 0.13204 0.60047 0.21233 0.0
C975 C 0.16855 0.56545 0.22048 0.0
loop_
_geom_bond_atom_site_label_1
_geom_bond_atom_site_label_2
_geom_bond_distance
_geom_bond_site_symmetry_2
_ccdc_geom_bond_type
H0 C27 0.929 1_565 S
N1 C26 1.446 . S
N1 C32 1.427 1_545 S
N1 C38 1.420 1_545 S
H2 C28 0.930 . S
H3 C31 0.931 . S
H4 C30 0.929 . S
H5 C33 0.930 . S
H6 C34 0.932 1_545 S
H7 C37 0.929 . S
H8 C36 0.931 . S
H9 C39 0.929 . S
H10 C43 0.932 . S
H11 C40 0.931 . S
H12 C42 0.929 . S
H13 C45 0.929 1_565 S
H14 C46 0.930 . S
H15 C48 0.929 . S
H16 C49 0.931 . S
H17 C51 0.930 . S
H18 C52 0.932 1_545 S
H19 C54 0.931 . S
H20 C55 0.929 . S
H21 C57 0.929 . S
H22 C58 0.931 . S
H23 C60 0.929 . S
N24 C44 1.446 . S
N24 C50 1.427 1_545 S
N24 C56 1.420 1_545 S
H25 C61 0.932 . S
C26 N1 1.446 . S
C26 C27 1.363 . S
C26 C31 1.370 . S
C27 H0 0.929 1_545 S
C27 C26 1.363 . S
C27 C28 1.385 . S
C28 H2 0.930 . S
C28 C27 1.385 . S
C28 C29 1.357 . S
C29 C28 1.357 . S
C29 C30 1.406 . S
C30 H4 0.929 . S
C30 C29 1.406 . S
C30 C31 1.391 . S
C31 H3 0.931 . S
C31 C26 1.370 . S
C31 C30 1.391 . S
C32 N1 1.427 1_565 S
C32 C33 1.358 1_565 S
C32 C37 1.371 . S
C33 H5 0.930 . S
C33 C32 1.358 1_545 S
C33 C34 1.405 1_545 S
C34 H6 0.932 1_565 S
C34 C33 1.405 1_565 S
C34 C35 1.383 . S
C35 C34 1.383 . S
C35 C36 1.393 . S
C36 H8 0.931 . S
C36 C35 1.393 . S
C36 C37 1.382 . S
C37 H7 0.929 . S
C37 C32 1.371 . S
C37 C36 1.382 . S
C38 N1 1.420 1_565 S
C38 C39 1.362 . S
C38 C43 1.388 . S
C39 H9 0.929 . S
C39 C38 1.362 . S
C39 C40 1.376 . S
C40 H11 0.931 . S
C40 C39 1.376 . S
C40 C41 1.396 . S
C41 C40 1.396 . S
C41 C42 1.348 . S
C41 C59 1.472 1_655 S
C42 H12 0.929 . S
C42 C41 1.348 . S
C42 C43 1.443 . S
C43 H10 0.932 . S
C43 C38 1.388 . S
C43 C42 1.443 . S
C44 N24 1.446 . S
C44 C45 1.363 . S
C44 C49 1.370 . S
C45 H13 0.929 1_545 S
C45 C44 1.363 . S
C45 C46 1.385 . S
C46 H14 0.930 . S
C46 C45 1.385 . S
C46 C47 1.357 . S
C47 C46 1.357 . S
C47 C48 1.406 . S
C48 H15 0.929 . S
C48 C47 1.406 . S
C48 C49 1.391 . S
C49 H16 0.931 . S
C49 C44 1.370 . S
C49 C48 1.391 . S
C50 N24 1.427 1_565 S
C50 C51 1.358 1_565 S
C50 C55 1.371 . S
C51 H17 0.930 . S
C51 C50 1.358 1_545 S
C51 C52 1.405 1_545 S
C52 H18 0.932 1_565 S
C52 C51 1.405 1_565 S
C52 C53 1.383 . S
C53 C52 1.383 . S
C53 C54 1.393 . S
C54 H19 0.931 . S
C54 C53 1.393 . S
C54 C55 1.382 . S
C55 H20 0.929 . S
C55 C50 1.371 . S
C55 C54 1.382 . S
C56 N24 1.420 1_565 S
C56 C57 1.362 . S
C56 C61 1.388 . S
C57 H21 0.929 . S
C57 C56 1.362 . S
C57 C58 1.376 . S
C58 H22 0.931 . S
C58 C57 1.376 . S
C58 C59 1.396 . S
C59 C41 1.472 1_455 S
C59 C58 1.396 . S
C59 C60 1.348 . S
C60 H23 0.929 . S
C60 C59 1.348 . S
C60 C61 1.443 . S
C61 H25 0.932 . S
C61 C56 1.388 . S
C61 C60 1.443 . S
H62 C89 0.929 . S
N63 C88 1.433 . S
N63 C94 1.435 . S
N63 C100 1.423 . S
H64 C90 0.930 . S
H65 C93 0.931 . S
H66 C92 0.929 . S
H67 C95 0.930 . S
H68 C96 0.932 . S
H69 C99 0.929 . S
H70 C98 0.931 . S
H71 C101 0.929 . S
H72 C105 0.932 . S
H73 C102 0.931 . S
H74 C104 0.929 . S
H75 C107 0.929 . S
H76 C108 0.930 . S
H77 C110 0.929 . S
H78 C111 0.931 . S
H79 C113 0.930 . S
H80 C114 0.932 . S
H81 C116 0.931 . S
H82 C117 0.929 . S
H83 C119 0.929 . S
H84 C120 0.931 . S
H85 C122 0.929 . S
N86 C106 1.433 . S
N86 C112 1.435 . S
N86 C118 1.423 . S
H87 C123 0.932 . S
C88 N63 1.433 . S
C88 C89 1.363 . S
C88 C93 1.370 . S
C89 H62 0.929 . S
C89 C88 1.363 . S
C89 C90 1.385 . S
C90 H64 0.930 . S
C90 C89 1.385 . S
C90 C91 1.357 . S
C91 C90 1.357 . S
C91 C92 1.406 . S
C92 H66 0.929 . S
C92 C91 1.406 . S
C92 C93 1.391 . S
C93 H65 0.931 . S
C93 C88 1.370 . S
C93 C92 1.391 . S
C94 N63 1.435 . S
C94 C95 1.358 . S
C94 C99 1.371 . S
C95 H67 0.930 . S
C95 C94 1.358 . S
C95 C96 1.405 . S
C96 H68 0.932 . S
C96 C95 1.405 . S
C96 C97 1.383 . S
C97 C96 1.383 . S
C97 C98 1.393 . S
C98 H70 0.931 . S
C98 C97 1.393 . S
C98 C99 1.382 . S
C99 H69 0.929 . S
C99 C94 1.371 . S
C99 C98 1.382 . S
C100 N63 1.423 . S
C100 C101 1.362 . S
C100 C105 1.388 . S
C101 H71 0.929 . S
C101 C100 1.362 . S
C101 C102 1.376 . S
C102 H73 0.931 . S
C102 C101 1.376 . S
C102 C103 1.396 . S
C103 C102 1.396 . S
C103 C104 1.348 . S
C103 C121 1.472 . S
C104 H74 0.929 . S
C104 C103 1.348 . S
C104 C105 1.443 . S
C105 H72 0.932 . S
C105 C100 1.388 . S
C105 C104 1.443 . S
C106 N86 1.433 . S
C106 C107 1.363 1_565 S
C106 C111 1.370 . S
C107 H75 0.929 . S
C107 C106 1.363 1_545 S
C107 C108 1.385 . S
C108 H76 0.930 . S
C108 C107 1.385 . S
C108 C109 1.357 . S
C109 C108 1.357 . S
C109 C110 1.406 1_545 S
C110 H77 0.929 . S
C110 C109 1.406 1_565 S
C110 C111 1.391 . S
C111 H78 0.931 . S
C111 C106 1.370 . S
C111 C110 1.391 . S
C112 N86 1.435 . S
C112 C113 1.358 1_565 S
C112 C117 1.371 . S
C113 H79 0.930 . S
C113 C112 1.358 1_545 S
C113 C114 1.405 . S
C114 H80 0.932 . S
C114 C113 1.405 . S
C114 C115 1.383 . S
C115 C114 1.383 . S
C115 C116 1.393 . S
C116 H81 0.931 . S
C116 C115 1.393 . S
C116 C117 1.382 1_545 S
C117 H82 0.929 . S
C117 C112 1.371 . S
C117 C116 1.382 1_565 S
C118 N86 1.423 . S
C118 C119 1.362 . S
C118 C123 1.388 . S
C119 H83 0.929 . S
C119 C118 1.362 . S
C119 C120 1.376 . S
C120 H84 0.931 . S
C120 C119 1.376 . S
C120 C121 1.396 . S
C121 C103 1.472 . S
C121 C120 1.396 . S
C121 C122 1.348 . S
C122 H85 0.929 . S
C122 C121 1.348 . S
C122 C123 1.443 . S
C123 H87 0.932 . S
C123 C118 1.388 . S
C123 C122 1.443 . S
H124 C151 0.929 . S
N125 C150 1.424 1_545 S
N125 C156 1.435 . S
N125 C162 1.423 . S
H126 C152 0.930 . S
H127 C155 0.931 . S
H128 C154 0.929 . S
H129 C157 0.930 1_565 S
H130 C158 0.932 . S
H131 C161 0.929 . S
H132 C160 0.931 . S
H133 C163 0.929 . S
H134 C167 0.932 . S
H135 C164 0.931 . S
H136 C166 0.929 . S
H137 C169 0.929 . S
H138 C170 0.930 . S
H139 C172 0.929 . S
H140 C173 0.931 . S
H141 C175 0.930 1_565 S
H142 C176 0.932 . S
H143 C178 0.931 . S
H144 C179 0.929 . S
H145 C181 0.929 . S
H146 C182 0.931 . S
H147 C184 0.929 . S
N148 C168 1.424 1_545 S
N148 C174 1.435 . S
N148 C180 1.423 . S
H149 C185 0.932 . S
C150 N125 1.424 1_565 S
C150 C151 1.361 1_565 S
C150 C155 1.381 . S
C151 H124 0.929 . S
C151 C150 1.361 1_545 S
C151 C152 1.385 1_545 S
C152 H126 0.930 . S
C152 C151 1.385 1_565 S
C152 C153 1.357 . S
C153 C152 1.357 . S
C153 C154 1.406 . S
C154 H128 0.929 . S
C154 C153 1.406 . S
C154 C155 1.391 . S
C155 H127 0.931 . S
C155 C150 1.381 . S
C155 C154 1.391 . S
C156 N125 1.435 . S
C156 C157 1.358 . S
C156 C161 1.371 . S
C157 H129 0.930 1_545 S
C157 C156 1.358 . S
C157 C158 1.405 . S
C158 H130 0.932 . S
C158 C157 1.405 . S
C158 C159 1.383 1_554 S
C159 C158 1.383 1_556 S
C159 C160 1.393 1_556 S
C160 H132 0.931 . S
C160 C159 1.393 1_554 S
C160 C161 1.382 . S
C161 H131 0.929 . S
C161 C156 1.371 . S
C161 C160 1.382 . S
C162 N125 1.423 . S
C162 C163 1.362 . S
C162 C167 1.388 . S
C163 H133 0.929 . S
C163 C162 1.362 . S
C163 C164 1.376 . S
C164 H135 0.931 . S
C164 C163 1.376 . S
C164 C165 1.396 . S
C165 C164 1.396 . S
C165 C166 1.348 . S
C165 C183 1.472 . S
C166 H136 0.929 . S
C166 C165 1.348 . S
C166 C167 1.443 . S
C167 H134 0.932 . S
C167 C162 1.388 . S
C167 C166 1.443 . S
C168 N148 1.424 1_565 S
C168 C169 1.361 1_565 S
C168 C173 1.381 . S
C169 H137 0.929 . S
C169 C168 1.361 1_545 S
C169 C170 1.385 1_545 S
C170 H138 0.930 . S
C170 C169 1.385 1_565 S
C170 C171 1.357 . S
C171 C170 1.357 . S
C171 C172 1.406 . S
C172 H139 0.929 . S
C172 C171 1.406 . S
C172 C173 1.391 . S
C173 H140 0.931 . S
C173 C168 1.381 . S
C173 C172 1.391 . S
C174 N148 1.435 . S
C174 C175 1.358 . S
C174 C179 1.371 . S
C175 H141 0.930 1_545 S
C175 C174 1.358 . S
C175 C176 1.405 . S
C176 H142 0.932 . S
C176 C175 1.405 . S
C176 C177 1.383 1_554 S
C177 C176 1.383 1_556 S
C177 C178 1.393 1_556 S
C178 H143 0.931 . S
C178 C177 1.393 1_554 S
C178 C179 1.382 . S
C179 H144 0.929 . S
C179 C174 1.371 . S
C179 C178 1.382 . S
C180 N148 1.423 . S
C180 C181 1.362 . S
C180 C185 1.388 . S
C181 H145 0.929 . S
C181 C180 1.362 . S
C181 C182 1.376 . S
C182 H146 0.931 . S
C182 C181 1.376 . S
C182 C183 1.396 . S
C183 C165 1.472 . S
C183 C182 1.396 . S
C183 C184 1.348 . S
C184 H147 0.929 . S
C184 C183 1.348 . S
C184 C185 1.443 . S
C185 H149 0.932 . S
C185 C180 1.388 . S
C185 C184 1.443 . S
H186 C213 0.929 . S
N187 C212 1.433 . S
N187 C218 1.435 . S
N187 C224 1.423 . S
H188 C214 0.930 . S
H189 C217 0.931 . S
H190 C216 0.929 . S
H191 C219 0.930 . S
H192 C220 0.932 . S
H193 C223 0.929 . S
H194 C222 0.931 . S
H195 C225 0.929 . S
H196 C229 0.932 . S
H197 C226 0.931 . S
H198 C228 0.929 . S
H199 C231 0.929 1_565 S
H200 C232 0.930 . S
H201 C234 0.929 . S
H202 C235 0.931 . S
H203 C237 0.930 . S
H204 C238 0.932 . S
H205 C240 0.931 . S
H206 C241 0.929 . S
H207 C243 0.929 . S
H208 C244 0.931 . S
H209 C246 0.929 . S
N210 C230 1.433 . S
N210 C236 1.435 . S
N210 C242 1.423 . S
H211 C247 0.932 . S
C212 N187 1.433 . S
C212 C213 1.363 . S
C212 C217 1.370 . S
C213 H186 0.929 . S
C213 C212 1.363 . S
C213 C214 1.385 . S
C214 H188 0.930 . S
C214 C213 1.385 . S
C214 C215 1.357 . S
C215 C214 1.357 . S
C215 C216 1.406 . S
C216 H190 0.929 . S
C216 C215 1.406 . S
C216 C217 1.391 . S
C217 H189 0.931 . S
C217 C212 1.370 . S
C217 C216 1.391 . S
C218 N187 1.435 . S
C218 C219 1.358 . S
C218 C223 1.371 . S
C219 H191 0.930 . S
C219 C218 1.358 . S
C219 C220 1.405 . S
C220 H192 0.932 . S
C220 C219 1.405 . S
C220 C221 1.383 . S
C221 C220 1.383 . S
C221 C222 1.393 . S
C222 H194 0.931 . S
C222 C221 1.393 . S
C222 C223 1.382 . S
C223 H193 0.929 . S
C223 C218 1.371 . S
C223 C222 1.382 . S
C224 N187 1.423 . S
C224 C225 1.362 . S
C224 C229 1.388 . S
C225 H195 0.929 . S
C225 C224 1.362 . S
C225 C226 1.376 . S
C226 H197 0.931 . S
C226 C225 1.376 . S
C226 C227 1.396 . S
C227 C226 1.396 . S
C227 C228 1.348 . S
C227 C245 1.472 . S
C228 H198 0.929 . S
C228 C227 1.348 . S
C228 C229 1.443 . S
C229 H196 0.932 . S
C229 C224 1.388 . S
C229 C228 1.443 . S
C230 N210 1.433 . S
C230 C231 1.363 . S
C230 C235 1.370 . S
C231 H199 0.929 1_545 S
C231 C230 1.363 . S
C231 C232 1.385 1_545 S
C232 H200 0.930 . S
C232 C231 1.385 1_565 S
C232 C233 1.357 1_565 S
C233 C232 1.357 1_545 S
C233 C234 1.406 . S
C234 H201 0.929 . S
C234 C233 1.406 . S
C234 C235 1.391 . S
C235 H202 0.931 . S
C235 C230 1.370 . S
C235 C234 1.391 . S
C236 N210 1.435 . S
C236 C237 1.358 . S
C236 C241 1.371 . S
C237 H203 0.930 . S
C237 C236 1.358 . S
C237 C238 1.405 1_545 S
C238 H204 0.932 . S
C238 C237 1.405 1_565 S
C238 C239 1.383 . S
C239 C238 1.383 . S
C239 C240 1.393 1_565 S
C240 H205 0.931 . S
C240 C239 1.393 1_545 S
C240 C241 1.382 . S
C241 H206 0.929 . S
C241 C236 1.371 . S
C241 C240 1.382 . S
C242 N210 1.423 . S
C242 C243 1.362 . S
C242 C247 1.388 . S
C243 H207 0.929 . S
C243 C242 1.362 . S
C243 C244 1.376 . S
C244 H208 0.931 . S
C244 C243 1.376 . S
C244 C245 1.396 . S
C245 C227 1.472 . S
C245 C244 1.396 . S
C245 C246 1.348 . S
C246 H209 0.929 . S
C246 C245 1.348 . S
C246 C247 1.443 . S
C247 H211 0.932 . S
C247 C242 1.388 . S
C247 C246 1.443 . S
H248 C275 0.929 1_565 S
N249 C274 1.433 . S
N249 C280 1.435 . S
N249 C286 1.423 . S
H250 C276 0.930 . S
H251 C279 0.931 . S
H252 C278 0.929 . S
H253 C281 0.930 . S
H254 C282 0.932 . S
H255 C285 0.929 . S
H256 C284 0.931 . S
H257 C287 0.929 . S
H258 C291 0.932 . S
H259 C288 0.931 . S
H260 C290 0.929 . S
H261 C293 0.929 . S
H262 C294 0.930 . S
H263 C296 0.929 . S
H264 C297 0.931 . S
H265 C299 0.930 . S
H266 C300 0.932 . S
H267 C302 0.931 . S
H268 C303 0.929 . S
H269 C305 0.929 . S
H270 C306 0.931 . S
H271 C308 0.929 . S
N272 C292 1.433 . S
N272 C298 1.435 . S
N272 C304 1.423 . S
H273 C309 0.932 . S
C274 N249 1.433 . S
C274 C275 1.363 . S
C274 C279 1.370 . S
C275 H248 0.929 1_545 S
C275 C274 1.363 . S
C275 C276 1.385 1_545 S
C276 H250 0.930 . S
C276 C275 1.385 1_565 S
C276 C277 1.357 1_565 S
C277 C276 1.357 1_545 S
C277 C278 1.406 . S
C278 H252 0.929 . S
C278 C277 1.406 . S
C278 C279 1.391 . S
C279 H251 0.931 . S
C279 C274 1.370 . S
C279 C278 1.391 . S
C280 N249 1.435 . S
C280 C281 1.358 . S
C280 C285 1.371 . S
C281 H253 0.930 . S
C281 C280 1.358 . S
C281 C282 1.405 1_545 S
C282 H254 0.932 . S
C282 C281 1.405 1_565 S
C282 C283 1.383 . S
C283 C282 1.383 . S
C283 C284 1.393 1_565 S
C284 H256 0.931 . S
C284 C283 1.393 1_545 S
C284 C285 1.382 . S
C285 H255 0.929 . S
C285 C280 1.371 . S
C285 C284 1.382 . S
C286 N249 1.423 . S
C286 C287 1.362 . S
C286 C291 1.388 . S
C287 H257 0.929 . S
C287 C286 1.362 . S
C287 C288 1.376 . S
C288 H259 0.931 . S
C288 C287 1.376 . S
C288 C289 1.396 . S
C289 C288 1.396 . S
C289 C290 1.348 . S
C289 C307 1.472 . S
C290 H260 0.929 . S
C290 C289 1.348 . S
C290 C291 1.443 . S
C291 H258 0.932 . S
C291 C286 1.388 . S
C291 C290 1.443 . S
C292 N272 1.433 . S
C292 C293 1.363 . S
C292 C297 1.370 . S
C293 H261 0.929 . S
C293 C292 1.363 . S
C293 C294 1.385 . S
C294 H262 0.930 . S
C294 C293 1.385 . S
C294 C295 1.357 . S
C295 C294 1.357 . S
C295 C296 1.406 . S
C296 H263 0.929 . S
C296 C295 1.406 . S
C296 C297 1.391 . S
C297 H264 0.931 . S
C297 C292 1.370 . S
C297 C296 1.391 . S
C298 N272 1.435 . S
C298 C299 1.358 . S
C298 C303 1.371 . S
C299 H265 0.930 . S
C299 C298 1.358 . S
C299 C300 1.405 . S
C300 H266 0.932 . S
C300 C299 1.405 . S
C300 C301 1.383 . S
C301 C300 1.383 . S
C301 C302 1.393 . S
C302 H267 0.931 . S
C302 C301 1.393 . S
C302 C303 1.382 . S
C303 H268 0.929 . S
C303 C298 1.371 . S
C303 C302 1.382 . S
C304 N272 1.423 . S
C304 C305 1.362 . S
C304 C309 1.388 . S
C305 H269 0.929 . S
C305 C304 1.362 . S
C305 C306 1.376 . S
C306 H270 0.931 . S
C306 C305 1.376 . S
C306 C307 1.396 . S
C307 C289 1.472 . S
C307 C306 1.396 . S
C307 C308 1.348 . S
C308 H271 0.929 . S
C308 C307 1.348 . S
C308 C309 1.443 . S
C309 H273 0.932 . S
C309 C304 1.388 . S
C309 C308 1.443 . S
H310 C337 0.929 . S
N311 C336 1.433 . S
N311 C342 1.435 . S
N311 C348 1.423 . S
H312 C338 0.930 . S
H313 C341 0.931 . S
H314 C340 0.929 . S
H315 C343 0.930 . S
H316 C344 0.932 . S
H317 C347 0.929 . S
H318 C346 0.931 . S
H319 C349 0.929 . S
H320 C353 0.932 . S
H321 C350 0.931 . S
H322 C352 0.929 . S
H323 C355 0.929 . S
H324 C356 0.930 . S
H325 C358 0.929 . S
H326 C359 0.931 . S
H327 C361 0.930 . S
H328 C362 0.932 . S
H329 C364 0.931 . S
H330 C365 0.929 . S
H331 C367 0.929 . S
H332 C368 0.931 . S
H333 C370 0.929 . S
N334 C354 1.433 . S
N334 C360 1.435 . S
N334 C366 1.423 . S
H335 C371 0.932 . S
C336 N311 1.433 . S
C336 C337 1.363 1_565 S
C336 C341 1.370 . S
C337 H310 0.929 . S
C337 C336 1.363 1_545 S
C337 C338 1.385 . S
C338 H312 0.930 . S
C338 C337 1.385 . S
C338 C339 1.357 . S
C339 C338 1.357 . S
C339 C340 1.406 1_545 S
C340 H314 0.929 . S
C340 C339 1.406 1_565 S
C340 C341 1.391 . S
C341 H313 0.931 . S
C341 C336 1.370 . S
C341 C340 1.391 . S
C342 N311 1.435 . S
C342 C343 1.358 1_565 S
C342 C347 1.371 . S
C343 H315 0.930 . S
C343 C342 1.358 1_545 S
C343 C344 1.405 . S
C344 H316 0.932 . S
C344 C343 1.405 . S
C344 C345 1.383 . S
C345 C344 1.383 . S
C345 C346 1.393 . S
C346 H318 0.931 . S
C346 C345 1.393 . S
C346 C347 1.382 1_545 S
C347 H317 0.929 . S
C347 C342 1.371 . S
C347 C346 1.382 1_565 S
C348 N311 1.423 . S
C348 C349 1.362 . S
C348 C353 1.388 . S
C349 H319 0.929 . S
C349 C348 1.362 . S
C349 C350 1.376 . S
C350 H321 0.931 . S
C350 C349 1.376 . S
C350 C351 1.396 . S
C351 C350 1.396 . S
C351 C352 1.348 . S
C351 C369 1.472 . S
C352 H322 0.929 . S
C352 C351 1.348 . S
C352 C353 1.443 . S
C353 H320 0.932 . S
C353 C348 1.388 . S
C353 C352 1.443 . S
C354 N334 1.433 . S
C354 C355 1.363 . S
C354 C359 1.370 . S
C355 H323 0.929 . S
C355 C354 1.363 . S
C355 C356 1.385 . S
C356 H324 0.930 . S
C356 C355 1.385 . S
C356 C357 1.357 . S
C357 C356 1.357 . S
C357 C358 1.406 . S
C358 H325 0.929 . S
C358 C357 1.406 . S
C358 C359 1.391 . S
C359 H326 0.931 . S
C359 C354 1.370 . S
C359 C358 1.391 . S
C360 N334 1.435 . S
C360 C361 1.358 . S
C360 C365 1.371 . S
C361 H327 0.930 . S
C361 C360 1.358 . S
C361 C362 1.405 . S
C362 H328 0.932 . S
C362 C361 1.405 . S
C362 C363 1.383 . S
C363 C362 1.383 . S
C363 C364 1.393 . S
C364 H329 0.931 . S
C364 C363 1.393 . S
C364 C365 1.382 . S
C365 H330 0.929 . S
C365 C360 1.371 . S
C365 C364 1.382 . S
C366 N334 1.423 . S
C366 C367 1.362 . S
C366 C371 1.388 . S
C367 H331 0.929 . S
C367 C366 1.362 . S
C367 C368 1.376 . S
C368 H332 0.931 . S
C368 C367 1.376 . S
C368 C369 1.396 . S
C369 C351 1.472 . S
C369 C368 1.396 . S
C369 C370 1.348 . S
C370 H333 0.929 . S
C370 C369 1.348 . S
C370 C371 1.443 . S
C371 H335 0.932 . S
C371 C366 1.388 . S
C371 C370 1.443 . S
H372 C399 0.929 . S
N373 C398 1.433 . S
N373 C404 1.435 . S
N373 C410 1.423 . S
H374 C400 0.930 . S
H375 C403 0.931 . S
H376 C402 0.929 . S
H377 C405 0.930 . S
H378 C406 0.932 . S
H379 C409 0.929 . S
H380 C408 0.931 . S
H381 C411 0.929 1_556 S
H382 C415 0.932 . S
H383 C412 0.931 1_556 S
H384 C414 0.929 . S
H385 C417 0.929 . S
H386 C418 0.930 . S
H387 C420 0.929 . S
H388 C421 0.931 . S
H389 C423 0.930 . S
H390 C424 0.932 . S
H391 C426 0.931 . S
H392 C427 0.929 . S
H393 C429 0.929 1_556 S
H394 C430 0.931 1_556 S
H395 C432 0.929 . S
N396 C416 1.433 . S
N396 C422 1.435 . S
N396 C428 1.423 . S
H397 C433 0.932 . S
C398 N373 1.433 . S
C398 C399 1.363 . S
C398 C403 1.370 . S
C399 H372 0.929 . S
C399 C398 1.363 . S
C399 C400 1.385 1_554 S
C400 H374 0.930 . S
C400 C399 1.385 1_556 S
C400 C401 1.357 . S
C401 C400 1.357 . S
C401 C402 1.406 . S
C402 H376 0.929 . S
C402 C401 1.406 . S
C402 C403 1.391 1_556 S
C403 H375 0.931 . S
C403 C398 1.370 . S
C403 C402 1.391 1_554 S
C404 N373 1.435 . S
C404 C405 1.358 . S
C404 C409 1.371 . S
C405 H377 0.930 . S
C405 C404 1.358 . S
C405 C406 1.405 . S
C406 H378 0.932 . S
C406 C405 1.405 . S
C406 C407 1.383 . S
C407 C406 1.383 . S
C407 C408 1.393 . S
C408 H380 0.931 . S
C408 C407 1.393 . S
C408 C409 1.382 . S
C409 H379 0.929 . S
C409 C404 1.371 . S
C409 C408 1.382 . S
C410 N373 1.423 . S
C410 C411 1.362 . S
C410 C415 1.388 . S
C411 H381 0.929 1_554 S
C411 C410 1.362 . S
C411 C412 1.376 . S
C412 H383 0.931 1_554 S
C412 C411 1.376 . S
C412 C413 1.396 . S
C413 C412 1.396 . S
C413 C414 1.348 . S
C413 C431 1.472 . S
C414 H384 0.929 . S
C414 C413 1.348 . S
C414 C415 1.443 . S
C415 H382 0.932 . S
C415 C410 1.388 . S
C415 C414 1.443 . S
C416 N396 1.433 . S
C416 C417 1.363 . S
C416 C421 1.370 . S
C417 H385 0.929 . S
C417 C416 1.363 . S
C417 C418 1.385 1_554 S
C418 H386 0.930 . S
C418 C417 1.385 1_556 S
C418 C419 1.357 . S
C419 C418 1.357 . S
C419 C420 1.406 . S
C420 H387 0.929 . S
C420 C419 1.406 . S
C420 C421 1.391 1_556 S
C421 H388 0.931 . S
C421 C416 1.370 . S
C421 C420 1.391 1_554 S
C422 N396 1.435 . S
C422 C423 1.358 . S
C422 C427 1.371 . S
C423 H389 0.930 . S
C423 C422 1.358 . S
C423 C424 1.405 . S
C424 H390 0.932 . S
C424 C423 1.405 . S
C424 C425 1.383 . S
C425 C424 1.383 . S
C425 C426 1.393 . S
C426 H391 0.931 . S
C426 C425 1.393 . S
C426 C427 1.382 . S
C427 H392 0.929 . S
C427 C422 1.371 . S
C427 C426 1.382 . S
C428 N396 1.423 . S
C428 C429 1.362 . S
C428 C433 1.388 . S
C429 H393 0.929 1_554 S
C429 C428 1.362 . S
C429 C430 1.376 . S
C430 H394 0.931 1_554 S
C430 C429 1.376 . S
C430 C431 1.396 . S
C431 C413 1.472 . S
C431 C430 1.396 . S
C431 C432 1.348 . S
C432 H395 0.929 . S
C432 C431 1.348 . S
C432 C433 1.443 . S
C433 H397 0.932 . S
C433 C428 1.388 . S
C433 C432 1.443 . S
H434 C461 0.929 . S
N435 C460 1.433 . S
N435 C466 1.435 . S
N435 C472 1.423 . S
H436 C462 0.930 . S
H437 C465 0.931 . S
H438 C464 0.929 . S
H439 C467 0.930 . S
H440 C468 0.932 . S
H441 C471 0.929 . S
H442 C470 0.931 . S
H443 C473 0.929 . S
H444 C477 0.932 . S
H445 C474 0.931 . S
H446 C476 0.929 . S
H447 C479 0.929 . S
H448 C480 0.930 . S
H449 C482 0.929 . S
H450 C483 0.931 . S
H451 C485 0.930 . S
H452 C486 0.932 . S
H453 C488 0.931 . S
H454 C489 0.929 . S
H455 C491 0.929 . S
H456 C492 0.931 . S
H457 C494 0.929 . S
N458 C478 1.433 . S
N458 C484 1.435 . S
N458 C490 1.423 . S
H459 C495 0.932 . S
C460 N435 1.433 . S
C460 C461 1.363 . S
C460 C465 1.370 . S
C461 H434 0.929 . S
C461 C460 1.363 . S
C461 C462 1.385 . S
C462 H436 0.930 . S
C462 C461 1.385 . S
C462 C463 1.357 . S
C463 C462 1.357 . S
C463 C464 1.406 . S
C464 H438 0.929 . S
C464 C463 1.406 . S
C464 C465 1.391 . S
C465 H437 0.931 . S
C465 C460 1.370 . S
C465 C464 1.391 . S
C466 N435 1.435 . S
C466 C467 1.358 . S
C466 C471 1.371 . S
C467 H439 0.930 . S
C467 C466 1.358 . S
C467 C468 1.405 . S
C468 H440 0.932 . S
C468 C467 1.405 . S
C468 C469 1.383 . S
C469 C468 1.383 . S
C469 C470 1.393 . S
C470 H442 0.931 . S
C470 C469 1.393 . S
C470 C471 1.382 . S
C471 H441 0.929 . S
C471 C466 1.371 . S
C471 C470 1.382 . S
C472 N435 1.423 . S
C472 C473 1.362 . S
C472 C477 1.388 . S
C473 H443 0.929 . S
C473 C472 1.362 . S
C473 C474 1.376 . S
C474 H445 0.931 . S
C474 C473 1.376 . S
C474 C475 1.396 . S
C475 C474 1.396 . S
C475 C476 1.348 . S
C475 C493 1.472 1_455 S
C476 H446 0.929 . S
C476 C475 1.348 . S
C476 C477 1.443 . S
C477 H444 0.932 . S
C477 C472 1.388 . S
C477 C476 1.443 . S
C478 N458 1.433 . S
C478 C479 1.363 . S
C478 C483 1.370 . S
C479 H447 0.929 . S
C479 C478 1.363 . S
C479 C480 1.385 . S
C480 H448 0.930 . S
C480 C479 1.385 . S
C480 C481 1.357 . S
C481 C480 1.357 . S
C481 C482 1.406 . S
C482 H449 0.929 . S
C482 C481 1.406 . S
C482 C483 1.391 . S
C483 H450 0.931 . S
C483 C478 1.370 . S
C483 C482 1.391 . S
C484 N458 1.435 . S
C484 C485 1.358 . S
C484 C489 1.371 . S
C485 H451 0.930 . S
C485 C484 1.358 . S
C485 C486 1.405 . S
C486 H452 0.932 . S
C486 C485 1.405 . S
C486 C487 1.383 . S
C487 C486 1.383 . S
C487 C488 1.393 . S
C488 H453 0.931 . S
C488 C487 1.393 . S
C488 C489 1.382 . S
C489 H454 0.929 . S
C489 C484 1.371 . S
C489 C488 1.382 . S
C490 N458 1.423 . S
C490 C491 1.362 . S
C490 C495 1.388 . S
C491 H455 0.929 . S
C491 C490 1.362 . S
C491 C492 1.376 . S
C492 H456 0.931 . S
C492 C491 1.376 . S
C492 C493 1.396 . S
C493 C475 1.472 1_655 S
C493 C492 1.396 . S
C493 C494 1.348 . S
C494 H457 0.929 . S
C494 C493 1.348 . S
C494 C495 1.443 . S
C495 H459 0.932 . S
C495 C490 1.388 . S
C495 C494 1.443 . S
Fe496 O497 1.886 . S
Fe496 O500 1.715 1_455 S
Fe496 O505 2.077 . S
Fe496 O510 1.935 1_455 S
Fe496 O516 2.077 . S
Fe496 O525 1.935 1_455 S
O497 Fe496 1.886 . S
O497 Fe499 1.715 . S
Fe498 O500 1.886 . S
Fe498 O501 1.715 . S
Fe498 O508 1.935 . S
Fe498 O509 2.077 . S
Fe498 O515 1.935 . S
Fe498 O524 2.077 . S
Fe499 O497 1.715 . S
Fe499 O502 1.886 . S
Fe499 O506 1.935 . S
Fe499 O511 2.077 . S
Fe499 O517 1.935 . S
Fe499 O521 2.077 . S
O500 Fe496 1.715 1_655 S
O500 Fe498 1.886 . S
O501 Fe498 1.715 . S
O501 Fe503 1.886 . S
O502 Fe499 1.886 . S
O502 Fe503 1.715 1_455 S
Fe503 O501 1.886 . S
Fe503 O502 1.715 1_655 S
Fe503 O507 2.077 . S
Fe503 O512 1.935 1_655 S
Fe503 O514 2.077 . S
Fe503 O522 1.935 1_655 S
C504 O516 1.381 . S
C504 O517 1.421 . S
O505 Fe496 2.077 . S
O505 C518 1.381 . S
O506 Fe499 1.935 . S
O506 C518 1.421 . S
O507 Fe503 2.077 . S
O507 C523 1.381 . S
O508 Fe498 1.935 . S
O508 C523 1.421 . S
O509 Fe498 2.077 . S
O509 C513 1.381 . S
O510 Fe496 1.935 1_655 S
O510 C513 1.421 . S
O511 Fe499 2.077 . S
O511 C519 1.381 . S
O512 Fe503 1.935 1_455 S
O512 C519 1.421 . S
C513 O509 1.381 . S
C513 O510 1.421 . S
O514 Fe503 2.077 . S
O514 C526 1.381 . S
O515 Fe498 1.935 . S
O515 C526 1.421 . S
O516 Fe496 2.077 . S
O516 C504 1.381 . S
O517 Fe499 1.935 . S
O517 C504 1.421 . S
C518 O505 1.381 . S
C518 O506 1.421 . S
C519 O511 1.381 . S
C519 O512 1.421 . S
C520 O521 1.381 . S
C520 O522 1.421 . S
O521 Fe499 2.077 . S
O521 C520 1.381 . S
O522 Fe503 1.935 1_455 S
O522 C520 1.421 . S
C523 O507 1.381 . S
C523 O508 1.421 . S
O524 Fe498 2.077 . S
O524 C527 1.381 . S
O525 Fe496 1.935 1_655 S
O525 C527 1.421 . S
C526 O514 1.381 . S
C526 O515 1.421 . S
C527 O524 1.381 . S
C527 O525 1.421 . S
Fe528 O529 1.886 . S
Fe528 O532 1.715 . S
Fe528 O537 2.077 . S
Fe528 O542 1.935 . S
Fe528 O548 2.077 . S
Fe528 O557 1.935 . S
O529 Fe528 1.886 . S
O529 Fe531 1.715 . S
Fe530 O532 1.886 . S
Fe530 O533 1.715 . S
Fe530 O540 1.935 . S
Fe530 O541 2.077 . S
Fe530 O547 1.935 . S
Fe530 O556 2.077 . S
Fe531 O529 1.715 . S
Fe531 O534 1.886 . S
Fe531 O538 1.935 . S
Fe531 O543 2.077 . S
Fe531 O549 1.935 . S
Fe531 O553 2.077 . S
O532 Fe528 1.715 . S
O532 Fe530 1.886 . S
O533 Fe530 1.715 . S
O533 Fe535 1.886 . S
O534 Fe531 1.886 . S
O534 Fe535 1.715 . S
Fe535 O533 1.886 . S
Fe535 O534 1.715 . S
Fe535 O539 2.077 . S
Fe535 O544 1.935 . S
Fe535 O546 2.077 . S
Fe535 O554 1.935 . S
C536 O548 1.381 . S
C536 O549 1.421 . S
O537 Fe528 2.077 . S
O537 C550 1.381 . S
O538 Fe531 1.935 . S
O538 C550 1.421 . S
O539 Fe535 2.077 . S
O539 C555 1.381 . S
O540 Fe530 1.935 . S
O540 C555 1.421 . S
O541 Fe530 2.077 . S
O541 C545 1.381 . S
O542 Fe528 1.935 . S
O542 C545 1.421 . S
O543 Fe531 2.077 . S
O543 C551 1.381 . S
O544 Fe535 1.935 . S
O544 C551 1.421 . S
C545 O541 1.381 . S
C545 O542 1.421 . S
O546 Fe535 2.077 . S
O546 C558 1.381 . S
O547 Fe530 1.935 . S
O547 C558 1.421 . S
O548 Fe528 2.077 . S
O548 C536 1.381 . S
O549 Fe531 1.935 . S
O549 C536 1.421 . S
C550 O537 1.381 . S
C550 O538 1.421 . S
C551 O543 1.381 . S
C551 O544 1.421 . S
C552 O553 1.381 . S
C552 O554 1.421 . S
O553 Fe531 2.077 . S
O553 C552 1.381 . S
O554 Fe535 1.935 . S
O554 C552 1.421 . S
C555 O539 1.381 . S
C555 O540 1.421 . S
O556 Fe530 2.077 . S
O556 C559 1.381 . S
O557 Fe528 1.935 . S
O557 C559 1.421 . S
C558 O546 1.381 . S
C558 O547 1.421 . S
C559 O556 1.381 . S
C559 O557 1.421 . S
Fe560 O561 1.886 . S
Fe560 O564 1.715 . S
Fe560 O569 2.077 . S
Fe560 O574 1.935 . S
Fe560 O580 2.077 . S
Fe560 O589 1.935 . S
O561 Fe560 1.886 . S
O561 Fe563 1.715 . S
Fe562 O564 1.886 . S
Fe562 O565 1.715 . S
Fe562 O572 1.935 . S
Fe562 O573 2.077 . S
Fe562 O579 1.935 . S
Fe562 O588 2.077 . S
Fe563 O561 1.715 . S
Fe563 O566 1.886 . S
Fe563 O570 1.935 . S
Fe563 O575 2.077 . S
Fe563 O581 1.935 . S
Fe563 O585 2.077 . S
O564 Fe560 1.715 . S
O564 Fe562 1.886 . S
O565 Fe562 1.715 . S
O565 Fe567 1.886 . S
O566 Fe563 1.886 . S
O566 Fe567 1.715 . S
Fe567 O565 1.886 . S
Fe567 O566 1.715 . S
Fe567 O571 2.077 . S
Fe567 O576 1.935 . S
Fe567 O578 2.077 . S
Fe567 O586 1.935 . S
C568 O580 1.381 . S
C568 O581 1.421 . S
O569 Fe560 2.077 . S
O569 C582 1.381 . S
O570 Fe563 1.935 . S
O570 C582 1.421 . S
O571 Fe567 2.077 . S
O571 C587 1.381 . S
O572 Fe562 1.935 . S
O572 C587 1.421 . S
O573 Fe562 2.077 . S
O573 C577 1.381 . S
O574 Fe560 1.935 . S
O574 C577 1.421 . S
O575 Fe563 2.077 . S
O575 C583 1.381 . S
O576 Fe567 1.935 . S
O576 C583 1.421 . S
C577 O573 1.381 . S
C577 O574 1.421 . S
O578 Fe567 2.077 . S
O578 C590 1.381 . S
O579 Fe562 1.935 . S
O579 C590 1.421 . S
O580 Fe560 2.077 . S
O580 C568 1.381 . S
O581 Fe563 1.935 . S
O581 C568 1.421 . S
C582 O569 1.381 . S
C582 O570 1.421 . S
C583 O575 1.381 . S
C583 O576 1.421 . S
C584 O585 1.381 . S
C584 O586 1.421 . S
O585 Fe563 2.077 . S
O585 C584 1.381 . S
O586 Fe567 1.935 . S
O586 C584 1.421 . S
C587 O571 1.381 . S
C587 O572 1.421 . S
O588 Fe562 2.077 . S
O588 C591 1.381 . S
O589 Fe560 1.935 . S
O589 C591 1.421 . S
C590 O578 1.381 . S
C590 O579 1.421 . S
C591 O588 1.381 . S
C591 O589 1.421 . S
Fe592 O593 1.886 . S
Fe592 O596 1.715 . S
Fe592 O601 2.077 1_455 S
Fe592 O606 1.935 1_455 S
Fe592 O612 2.077 . S
Fe592 O621 1.935 . S
O593 Fe592 1.886 . S
O593 Fe595 1.715 . S
Fe594 O596 1.886 . S
Fe594 O597 1.715 . S
Fe594 O604 1.935 1_455 S
Fe594 O605 2.077 1_455 S
Fe594 O611 1.935 . S
Fe594 O620 2.077 . S
Fe595 O593 1.715 . S
Fe595 O598 1.886 . S
Fe595 O602 1.935 1_455 S
Fe595 O607 2.077 1_455 S
Fe595 O613 1.935 . S
Fe595 O617 2.077 . S
O596 Fe592 1.715 . S
O596 Fe594 1.886 . S
O597 Fe594 1.715 . S
O597 Fe599 1.886 . S
O598 Fe595 1.886 . S
O598 Fe599 1.715 . S
Fe599 O597 1.886 . S
Fe599 O598 1.715 . S
Fe599 O603 2.077 1_455 S
Fe599 O608 1.935 1_455 S
Fe599 O610 2.077 . S
Fe599 O618 1.935 . S
C600 O612 1.381 . S
C600 O613 1.421 . S
O601 Fe592 2.077 1_655 S
O601 C614 1.381 . S
O602 Fe595 1.935 1_655 S
O602 C614 1.421 . S
O603 Fe599 2.077 1_655 S
O603 C619 1.381 . S
O604 Fe594 1.935 1_655 S
O604 C619 1.421 . S
O605 Fe594 2.077 1_655 S
O605 C609 1.381 . S
O606 Fe592 1.935 1_655 S
O606 C609 1.421 . S
O607 Fe595 2.077 1_655 S
O607 C615 1.381 . S
O608 Fe599 1.935 1_655 S
O608 C615 1.421 . S
C609 O605 1.381 . S
C609 O606 1.421 . S
O610 Fe599 2.077 . S
O610 C622 1.381 . S
O611 Fe594 1.935 . S
O611 C622 1.421 . S
O612 Fe592 2.077 . S
O612 C600 1.381 . S
O613 Fe595 1.935 . S
O613 C600 1.421 . S
C614 O601 1.381 . S
C614 O602 1.421 . S
C615 O607 1.381 . S
C615 O608 1.421 . S
C616 O617 1.381 . S
C616 O618 1.421 . S
O617 Fe595 2.077 . S
O617 C616 1.381 . S
O618 Fe599 1.935 . S
O618 C616 1.421 . S
C619 O603 1.381 . S
C619 O604 1.421 . S
O620 Fe594 2.077 . S
O620 C623 1.381 . S
O621 Fe592 1.935 . S
O621 C623 1.421 . S
C622 O610 1.381 . S
C622 O611 1.421 . S
C623 O620 1.381 . S
C623 O621 1.421 . S
C624 C625 1.369 . S
C624 C626 1.419 . S
C624 H628 0.930 . S
C625 C624 1.369 . S
C625 C634 1.429 . S
C626 C624 1.419 . S
C626 C627 1.363 . S
C626 H629 0.929 . S
C627 C626 1.363 . S
C627 C633 1.428 . S
H628 C624 0.930 . S
H629 C626 0.929 . S
S630 N631 1.613 . S
S630 N632 1.610 . S
N631 S630 1.613 . S
N631 C634 1.350 . S
N632 S630 1.610 . S
N632 C633 1.351 . S
C633 C627 1.428 . S
C633 N632 1.351 . S
C633 C634 1.434 . S
C634 C625 1.429 . S
C634 N631 1.350 . S
C634 C633 1.434 . S
C635 C636 1.369 . S
C635 C637 1.419 . S
C635 H639 0.930 . S
C636 C635 1.369 . S
C636 C645 1.429 . S
C637 C635 1.419 . S
C637 C638 1.363 . S
C637 H640 0.929 . S
C638 C637 1.363 . S
C638 C644 1.428 . S
H639 C635 0.930 . S
H640 C637 0.929 . S
S641 N642 1.613 . S
S641 N643 1.610 . S
N642 S641 1.613 . S
N642 C645 1.350 . S
N643 S641 1.610 . S
N643 C644 1.351 . S
C644 C638 1.428 . S
C644 N643 1.351 . S
C644 C645 1.434 . S
C645 C636 1.429 . S
C645 N642 1.350 . S
C645 C644 1.434 . S
C646 C647 1.369 . S
C646 C648 1.419 . S
C646 H650 0.930 . S
C647 C646 1.369 . S
C647 C656 1.429 . S
C648 C646 1.419 . S
C648 C649 1.363 . S
C648 H651 0.929 . S
C649 C648 1.363 . S
C649 C655 1.428 . S
H650 C646 0.930 . S
H651 C648 0.929 . S
S652 N653 1.605 1_556 S
S652 N654 1.668 . S
N653 S652 1.605 1_554 S
N653 C656 1.350 1_554 S
N654 S652 1.668 . S
N654 C655 1.351 . S
C655 C649 1.428 . S
C655 N654 1.351 . S
C655 C656 1.434 . S
C656 C647 1.429 . S
C656 N653 1.350 1_556 S
C656 C655 1.434 . S
C657 C658 1.369 . S
C657 C659 1.419 . S
C657 H661 0.930 . S
C658 C657 1.369 . S
C658 C667 1.429 . S
C659 C657 1.419 . S
C659 C660 1.363 . S
C659 H662 0.929 . S
C660 C659 1.363 . S
C660 C666 1.428 . S
H661 C657 0.930 . S
H662 C659 0.929 . S
S663 N664 1.613 . S
S663 N665 1.610 1_545 S
N664 S663 1.613 . S
N664 C667 1.350 1_545 S
N665 S663 1.610 1_565 S
N665 C666 1.351 . S
C666 C660 1.428 . S
C666 N665 1.351 . S
C666 C667 1.434 . S
C667 C658 1.429 . S
C667 N664 1.350 1_565 S
C667 C666 1.434 . S
C668 C669 1.369 . S
C668 C670 1.419 . S
C668 H672 0.930 . S
C669 C668 1.369 . S
C669 C678 1.429 . S
C670 C668 1.419 . S
C670 C671 1.363 . S
C670 H673 0.929 . S
C671 C670 1.363 . S
C671 C677 1.428 . S
H672 C668 0.930 . S
H673 C670 0.929 . S
S674 N675 1.613 . S
S674 N676 1.610 . S
N675 S674 1.613 . S
N675 C678 1.350 . S
N676 S674 1.610 . S
N676 C677 1.351 . S
C677 C671 1.428 . S
C677 N676 1.351 . S
C677 C678 1.434 . S
C678 C669 1.429 . S
C678 N675 1.350 . S
C678 C677 1.434 . S
C679 C680 1.369 . S
C679 C681 1.419 . S
C679 H683 0.930 . S
C680 C679 1.369 . S
C680 C689 1.429 . S
C681 C679 1.419 . S
C681 C682 1.363 . S
C681 H684 0.929 . S
C682 C681 1.363 . S
C682 C688 1.428 . S
H683 C679 0.930 . S
H684 C681 0.929 . S
S685 N686 1.613 . S
S685 N687 1.610 . S
N686 S685 1.613 . S
N686 C689 1.350 . S
N687 S685 1.610 . S
N687 C688 1.351 . S
C688 C682 1.428 . S
C688 N687 1.351 . S
C688 C689 1.434 . S
C689 C680 1.429 . S
C689 N686 1.350 . S
C689 C688 1.434 . S
C690 C691 1.369 . S
C690 C692 1.419 . S
C690 H694 0.930 . S
C691 C690 1.369 . S
C691 C700 1.429 . S
C692 C690 1.419 . S
C692 C693 1.363 . S
C692 H695 0.929 . S
C693 C692 1.363 . S
C693 C699 1.428 . S
H694 C690 0.930 . S
H695 C692 0.929 . S
S696 N697 1.613 . S
S696 N698 1.610 . S
N697 S696 1.613 . S
N697 C700 1.350 . S
N698 S696 1.610 . S
N698 C699 1.351 . S
C699 C693 1.428 . S
C699 N698 1.351 . S
C699 C700 1.434 . S
C700 C691 1.429 . S
C700 N697 1.350 . S
C700 C699 1.434 . S
C701 C702 1.369 . S
C701 C703 1.419 . S
C701 H705 0.930 1_565 S
C702 C701 1.369 . S
C702 C711 1.429 . S
C703 C701 1.419 . S
C703 C704 1.363 . S
C703 H706 0.929 . S
C704 C703 1.363 . S
C704 C710 1.428 . S
H705 C701 0.930 1_545 S
H706 C703 0.929 . S
S707 N708 1.613 . S
S707 N709 1.610 . S
N708 S707 1.613 . S
N708 C711 1.350 . S
N709 S707 1.610 . S
N709 C710 1.351 . S
C710 C704 1.428 . S
C710 N709 1.351 . S
C710 C711 1.434 . S
C711 C702 1.429 . S
C711 N708 1.350 . S
C711 C710 1.434 . S
C712 C713 1.369 . S
C712 C714 1.419 . S
C712 H716 0.930 . S
C713 C712 1.369 . S
C713 C722 1.429 . S
C714 C712 1.419 . S
C714 C715 1.363 . S
C714 H717 0.929 . S
C715 C714 1.363 . S
C715 C721 1.428 . S
H716 C712 0.930 . S
H717 C714 0.929 . S
S718 N719 1.613 . S
S718 N720 1.610 . S
N719 S718 1.613 . S
N719 C722 1.350 . S
N720 S718 1.610 . S
N720 C721 1.351 . S
C721 C715 1.428 . S
C721 N720 1.351 . S
C721 C722 1.434 . S
C722 C713 1.429 . S
C722 N719 1.350 . S
C722 C721 1.434 . S
C723 C724 1.369 . S
C723 C725 1.419 . S
C723 H727 0.930 . S
C724 C723 1.369 . S
C724 C733 1.429 . S
C725 C723 1.419 . S
C725 C726 1.363 . S
C725 H728 0.929 . S
C726 C725 1.363 . S
C726 C732 1.428 . S
H727 C723 0.930 . S
H728 C725 0.929 . S
S729 N730 1.613 . S
S729 N731 1.610 1_545 S
N730 S729 1.613 . S
N730 C733 1.350 1_545 S
N731 S729 1.610 1_565 S
N731 C732 1.351 . S
C732 C726 1.428 . S
C732 N731 1.351 . S
C732 C733 1.434 . S
C733 C724 1.429 . S
C733 N730 1.350 1_565 S
C733 C732 1.434 . S
C734 C735 1.369 . S
C734 C736 1.419 . S
C734 H738 0.930 . S
C735 C734 1.369 . S
C735 C744 1.429 . S
C736 C734 1.419 . S
C736 C737 1.363 . S
C736 H739 0.929 . S
C737 C736 1.363 . S
C737 C743 1.428 . S
H738 C734 0.930 . S
H739 C736 0.929 . S
S740 N741 1.613 . S
S740 N742 1.610 . S
N741 S740 1.613 . S
N741 C744 1.350 . S
N742 S740 1.610 . S
N742 C743 1.351 . S
C743 C737 1.428 . S
C743 N742 1.351 . S
C743 C744 1.434 . S
C744 C735 1.429 . S
C744 N741 1.350 . S
C744 C743 1.434 . S
C745 C746 1.369 . S
C745 C747 1.419 . S
C745 H749 0.930 . S
C746 C745 1.369 . S
C746 C755 1.429 . S
C747 C745 1.419 . S
C747 C748 1.363 . S
C747 H750 0.929 . S
C748 C747 1.363 . S
C748 C754 1.428 . S
H749 C745 0.930 . S
H750 C747 0.929 . S
S751 N752 1.613 . S
S751 N753 1.610 . S
N752 S751 1.613 . S
N752 C755 1.350 . S
N753 S751 1.610 . S
N753 C754 1.351 . S
C754 C748 1.428 . S
C754 N753 1.351 . S
C754 C755 1.434 . S
C755 C746 1.429 . S
C755 N752 1.350 . S
C755 C754 1.434 . S
C756 C757 1.369 . S
C756 C758 1.419 . S
C756 H760 0.930 . S
C757 C756 1.369 . S
C757 C766 1.429 . S
C758 C756 1.419 . S
C758 C759 1.363 . S
C758 H761 0.929 . S
C759 C758 1.363 . S
C759 C765 1.428 . S
H760 C756 0.930 . S
H761 C758 0.929 . S
S762 N763 1.613 . S
S762 N764 1.610 . S
N763 S762 1.613 . S
N763 C766 1.350 . S
N764 S762 1.610 . S
N764 C765 1.351 . S
C765 C759 1.428 . S
C765 N764 1.351 . S
C765 C766 1.434 . S
C766 C757 1.429 . S
C766 N763 1.350 . S
C766 C765 1.434 . S
C767 C768 1.369 . S
C767 C769 1.419 . S
C767 H771 0.930 . S
C768 C767 1.369 . S
C768 C777 1.429 . S
C769 C767 1.419 . S
C769 C770 1.363 . S
C769 H772 0.929 . S
C770 C769 1.363 . S
C770 C776 1.428 . S
H771 C767 0.930 . S
H772 C769 0.929 . S
S773 N774 1.613 . S
S773 N775 1.610 . S
N774 S773 1.613 . S
N774 C777 1.350 . S
N775 S773 1.610 . S
N775 C776 1.351 . S
C776 C770 1.428 . S
C776 N775 1.351 . S
C776 C777 1.434 . S
C777 C768 1.429 . S
C777 N774 1.350 . S
C777 C776 1.434 . S
C778 C779 1.369 . S
C778 C780 1.419 . S
C778 H782 0.930 . S
C779 C778 1.369 . S
C779 C788 1.429 . S
C780 C778 1.419 . S
C780 C781 1.363 . S
C780 H783 0.929 . S
C781 C780 1.363 . S
C781 C787 1.428 . S
H782 C778 0.930 . S
H783 C780 0.929 . S
S784 N785 1.613 . S
S784 N786 1.610 . S
N785 S784 1.613 . S
N785 C788 1.350 . S
N786 S784 1.610 . S
N786 C787 1.351 . S
C787 C781 1.428 . S
C787 N786 1.351 . S
C787 C788 1.434 . S
C788 C779 1.429 . S
C788 N785 1.350 . S
C788 C787 1.434 . S
C789 C790 1.369 . S
C789 C791 1.419 . S
C789 H793 0.930 . S
C790 C789 1.369 . S
C790 C799 1.429 . S
C791 C789 1.419 . S
C791 C792 1.363 . S
C791 H794 0.929 . S
C792 C791 1.363 . S
C792 C798 1.428 . S
H793 C789 0.930 . S
H794 C791 0.929 . S
S795 N796 1.613 . S
S795 N797 1.610 . S
N796 S795 1.613 . S
N796 C799 1.350 . S
N797 S795 1.610 . S
N797 C798 1.351 . S
C798 C792 1.428 . S
C798 N797 1.351 . S
C798 C799 1.434 . S
C799 C790 1.429 . S
C799 N796 1.350 . S
C799 C798 1.434 . S
C800 C801 1.369 . S
C800 C802 1.419 . S
C800 H804 0.930 . S
C801 C800 1.369 . S
C801 C810 1.429 . S
C802 C800 1.419 . S
C802 C803 1.363 . S
C802 H805 0.929 . S
C803 C802 1.363 . S
C803 C809 1.428 . S
H804 C800 0.930 . S
H805 C802 0.929 . S
S806 N807 1.613 . S
S806 N808 1.610 . S
N807 S806 1.613 . S
N807 C810 1.350 . S
N808 S806 1.610 . S
N808 C809 1.351 . S
C809 C803 1.428 . S
C809 N808 1.351 . S
C809 C810 1.434 . S
C810 C801 1.429 . S
C810 N807 1.350 . S
C810 C809 1.434 . S
C811 C812 1.369 . S
C811 C813 1.419 . S
C811 H815 0.930 . S
C812 C811 1.369 . S
C812 C821 1.429 . S
C813 C811 1.419 . S
C813 C814 1.363 . S
C813 H816 0.929 . S
C814 C813 1.363 . S
C814 C820 1.428 . S
H815 C811 0.930 . S
H816 C813 0.929 . S
S817 N818 1.613 . S
S817 N819 1.610 . S
N818 S817 1.613 . S
N818 C821 1.350 . S
N819 S817 1.610 . S
N819 C820 1.351 . S
C820 C814 1.428 . S
C820 N819 1.351 . S
C820 C821 1.434 . S
C821 C812 1.429 . S
C821 N818 1.350 . S
C821 C820 1.434 . S
C822 C823 1.369 . S
C822 C824 1.419 . S
C822 H826 0.930 . S
C823 C822 1.369 . S
C823 C832 1.429 . S
C824 C822 1.419 . S
C824 C825 1.363 . S
C824 H827 0.929 . S
C825 C824 1.363 . S
C825 C831 1.428 . S
H826 C822 0.930 . S
H827 C824 0.929 . S
S828 N829 1.613 . S
S828 N830 1.610 . S
N829 S828 1.613 . S
N829 C832 1.350 . S
N830 S828 1.610 . S
N830 C831 1.351 . S
C831 C825 1.428 . S
C831 N830 1.351 . S
C831 C832 1.434 . S
C832 C823 1.429 . S
C832 N829 1.350 . S
C832 C831 1.434 . S
C833 C834 1.369 . S
C833 C835 1.419 . S
C833 H837 0.930 . S
C834 C833 1.369 . S
C834 C843 1.429 . S
C835 C833 1.419 . S
C835 C836 1.363 . S
C835 H838 0.929 . S
C836 C835 1.363 . S
C836 C842 1.428 . S
H837 C833 0.930 . S
H838 C835 0.929 . S
S839 N840 1.613 . S
S839 N841 1.610 . S
N840 S839 1.613 . S
N840 C843 1.350 . S
N841 S839 1.610 . S
N841 C842 1.351 . S
C842 C836 1.428 . S
C842 N841 1.351 . S
C842 C843 1.434 . S
C843 C834 1.429 . S
C843 N840 1.350 . S
C843 C842 1.434 . S
C844 C845 1.369 . S
C844 C846 1.419 . S
C844 H848 0.930 . S
C845 C844 1.369 . S
C845 C854 1.429 . S
C846 C844 1.419 . S
C846 C847 1.363 . S
C846 H849 0.929 . S
C847 C846 1.363 . S
C847 C853 1.428 . S
H848 C844 0.930 . S
H849 C846 0.929 . S
S850 N851 1.613 . S
S850 N852 1.610 . S
N851 S850 1.613 . S
N851 C854 1.350 . S
N852 S850 1.610 . S
N852 C853 1.351 . S
C853 C847 1.428 . S
C853 N852 1.351 . S
C853 C854 1.434 . S
C854 C845 1.429 . S
C854 N851 1.350 . S
C854 C853 1.434 . S
C855 C856 1.369 . S
C855 C857 1.419 . S
C855 H859 0.930 . S
C856 C855 1.369 . S
C856 C865 1.429 . S
C857 C855 1.419 . S
C857 C858 1.363 . S
C857 H860 0.929 . S
C858 C857 1.363 . S
C858 C864 1.428 . S
H859 C855 0.930 . S
H860 C857 0.929 . S
S861 N862 1.613 . S
S861 N863 1.610 . S
N862 S861 1.613 . S
N862 C865 1.350 . S
N863 S861 1.610 . S
N863 C864 1.351 . S
C864 C858 1.428 . S
C864 N863 1.351 . S
C864 C865 1.434 . S
C865 C856 1.429 . S
C865 N862 1.350 . S
C865 C864 1.434 . S
C866 C867 1.369 . S
C866 C868 1.419 . S
C866 H870 0.930 . S
C867 C866 1.369 . S
C867 C876 1.429 . S
C868 C866 1.419 . S
C868 C869 1.363 . S
C868 H871 0.929 . S
C869 C868 1.363 . S
C869 C875 1.428 . S
H870 C866 0.930 . S
H871 C868 0.929 . S
S872 N873 1.613 . S
S872 N874 1.610 . S
N873 S872 1.613 . S
N873 C876 1.350 . S
N874 S872 1.610 . S
N874 C875 1.351 . S
C875 C869 1.428 . S
C875 N874 1.351 . S
C875 C876 1.434 . S
C876 C867 1.429 . S
C876 N873 1.350 . S
C876 C875 1.434 . S
C877 C878 1.369 . S
C877 C879 1.419 . S
C877 H881 0.930 . S
C878 C877 1.369 . S
C878 C887 1.429 . S
C879 C877 1.419 . S
C879 C880 1.363 . S
C879 H882 0.929 . S
C880 C879 1.363 . S
C880 C886 1.428 . S
H881 C877 0.930 . S
H882 C879 0.929 . S
S883 N884 1.613 . S
S883 N885 1.610 . S
N884 S883 1.613 . S
N884 C887 1.350 . S
N885 S883 1.610 . S
N885 C886 1.351 . S
C886 C880 1.428 . S
C886 N885 1.351 . S
C886 C887 1.434 . S
C887 C878 1.429 . S
C887 N884 1.350 . S
C887 C886 1.434 . S
C888 C889 1.369 . S
C888 C890 1.419 . S
C888 H892 0.930 . S
C889 C888 1.369 . S
C889 C898 1.429 . S
C890 C888 1.419 . S
C890 C891 1.363 . S
C890 H893 0.929 . S
C891 C890 1.363 . S
C891 C897 1.428 . S
H892 C888 0.930 . S
H893 C890 0.929 . S
S894 N895 1.613 . S
S894 N896 1.610 . S
N895 S894 1.613 . S
N895 C898 1.350 . S
N896 S894 1.610 . S
N896 C897 1.351 . S
C897 C891 1.428 . S
C897 N896 1.351 . S
C897 C898 1.434 . S
C898 C889 1.429 . S
C898 N895 1.350 . S
C898 C897 1.434 . S
C899 C900 1.369 . S
C899 C901 1.419 . S
C899 H903 0.930 . S
C900 C899 1.369 . S
C900 C909 1.429 . S
C901 C899 1.419 . S
C901 C902 1.363 . S
C901 H904 0.929 . S
C902 C901 1.363 . S
C902 C908 1.428 . S
H903 C899 0.930 . S
H904 C901 0.929 . S
S905 N906 1.613 . S
S905 N907 1.610 . S
N906 S905 1.613 . S
N906 C909 1.350 . S
N907 S905 1.610 . S
N907 C908 1.351 . S
C908 C902 1.428 . S
C908 N907 1.351 . S
C908 C909 1.434 . S
C909 C900 1.429 . S
C909 N906 1.350 . S
C909 C908 1.434 . S
C910 C911 1.369 . S
C910 C912 1.419 . S
C910 H914 0.930 . S
C911 C910 1.369 . S
C911 C920 1.429 . S
C912 C910 1.419 . S
C912 C913 1.363 . S
C912 H915 0.929 . S
C913 C912 1.363 . S
C913 C919 1.428 . S
H914 C910 0.930 . S
H915 C912 0.929 . S
S916 N917 1.613 . S
S916 N918 1.610 . S
N917 S916 1.613 . S
N917 C920 1.350 . S
N918 S916 1.610 . S
N918 C919 1.351 . S
C919 C913 1.428 . S
C919 N918 1.351 . S
C919 C920 1.434 . S
C920 C911 1.429 . S
C920 N917 1.350 . S
C920 C919 1.434 . S
C921 C922 1.369 . S
C921 C923 1.419 . S
C921 H925 0.930 . S
C922 C921 1.369 . S
C922 C931 1.429 . S
C923 C921 1.419 . S
C923 C924 1.363 . S
C923 H926 0.929 . S
C924 C923 1.363 . S
C924 C930 1.428 . S
H925 C921 0.930 . S
H926 C923 0.929 . S
S927 N928 1.613 . S
S927 N929 1.610 . S
N928 S927 1.613 . S
N928 C931 1.350 . S
N929 S927 1.610 . S
N929 C930 1.351 . S
C930 C924 1.428 . S
C930 N929 1.351 . S
C930 C931 1.434 . S
C931 C922 1.429 . S
C931 N928 1.350 . S
C931 C930 1.434 . S
C932 C933 1.369 . S
C932 C934 1.419 . S
C932 H936 0.930 . S
C933 C932 1.369 . S
C933 C942 1.429 . S
C934 C932 1.419 . S
C934 C935 1.363 . S
C934 H937 0.929 . S
C935 C934 1.363 . S
C935 C941 1.428 . S
H936 C932 0.930 . S
H937 C934 0.929 . S
S938 N939 1.613 . S
S938 N940 1.610 . S
N939 S938 1.613 . S
N939 C942 1.350 . S
N940 S938 1.610 . S
N940 C941 1.351 . S
C941 C935 1.428 . S
C941 N940 1.351 . S
C941 C942 1.434 . S
C942 C933 1.429 . S
C942 N939 1.350 . S
C942 C941 1.434 . S
C943 C944 1.369 . S
C943 C945 1.419 . S
C943 H947 0.930 . S
C944 C943 1.369 . S
C944 C953 1.429 . S
C945 C943 1.419 . S
C945 C946 1.363 . S
C945 H948 0.929 . S
C946 C945 1.363 . S
C946 C952 1.428 . S
H947 C943 0.930 . S
H948 C945 0.929 . S
S949 N950 1.613 . S
S949 N951 1.610 . S
N950 S949 1.613 . S
N950 C953 1.350 . S
N951 S949 1.610 . S
N951 C952 1.351 . S
C952 C946 1.428 . S
C952 N951 1.351 . S
C952 C953 1.434 . S
C953 C944 1.429 . S
C953 N950 1.350 . S
C953 C952 1.434 . S
C954 C955 1.369 . S
C954 C956 1.419 . S
C954 H958 0.930 . S
C955 C954 1.369 . S
C955 C964 1.429 . S
C956 C954 1.419 . S
C956 C957 1.363 . S
C956 H959 0.929 . S
C957 C956 1.363 . S
C957 C963 1.428 . S
H958 C954 0.930 . S
H959 C956 0.929 . S
S960 N961 1.613 . S
S960 N962 1.610 . S
N961 S960 1.613 . S
N961 C964 1.350 . S
N962 S960 1.610 . S
N962 C963 1.351 . S
C963 C957 1.428 . S
C963 N962 1.351 . S
C963 C964 1.434 . S
C964 C955 1.429 . S
C964 N961 1.350 . S
C964 C963 1.434 . S
C965 C966 1.369 . S
C965 C967 1.419 . S
C965 H969 0.930 . S
C966 C965 1.369 . S
C966 C975 1.429 . S
C967 C965 1.419 . S
C967 C968 1.363 . S
C967 H970 0.929 . S
C968 C967 1.363 . S
C968 C974 1.428 . S
H969 C965 0.930 . S
H970 C967 0.929 . S
S971 N972 1.613 . S
S971 N973 1.610 . S
N972 S971 1.613 . S
N972 C975 1.350 . S
N973 S971 1.610 . S
N973 C974 1.351 . S
C974 C968 1.428 . S
C974 N973 1.351 . S
C974 C975 1.434 . S
C975 C966 1.429 . S
C975 N972 1.350 . S
C975 C974 1.434 . S
C627 C545 1.468 . S
C625 C53 1.531 . S
C636 C115 1.541 . S
C638 C577 1.484 . S
C647 C177 1.558 . S
C649 C600 1.507 . S
C660 C504 1.508 . S
C658 C239 1.548 . S
C671 C587 1.529 . S
C669 C47 1.603 . S
C682 C616 1.532 . S
C680 C109 1.582 . S
C693 C520 1.535 . S
C691 C171 1.587 . S
C704 C555 1.526 . S
C702 C233 1.589 1_565 S
C713 C29 1.605 . S
C715 C583 1.551 . S
C724 C277 1.594 1_565 S
C726 C558 1.525 . S
C735 C153 1.587 . S
C737 C526 1.521 . S
C748 C615 1.529 . S
C746 C339 1.593 . S
C759 C559 1.475 . S
C757 C35 1.534 . S
C768 C283 1.549 . S
C770 C527 1.492 . S
C779 C159 1.557 . S
C781 C614 1.513 . S
C792 C582 1.494 . S
C790 C345 1.542 . S
C801 C419 1.576 . S
C803 C609 1.663 . S
C812 C301 1.552 . S
C814 C513 1.488 . S
C823 C487 1.532 . S
C825 C536 1.488 . S
C834 C363 1.542 . S
C836 C568 1.499 . S
C847 C523 1.476 . S
C845 C425 1.580 . S
C856 C295 1.592 . S
C858 C552 1.544 . S
C867 C481 1.606 . S
C869 C584 1.550 . S
C880 C619 1.518 . S
C878 C357 1.587 . S
C889 C407 1.577 . S
C891 C519 1.468 . S
C900 C91 1.590 . S
C902 C622 1.517 . S
C911 C463 1.597 . S
C913 C590 1.536 . S
C924 C551 1.544 . S
C922 C215 1.590 . S
C935 C623 1.661 . S
C933 C401 1.578 . S
C946 C591 1.485 . S
C944 C97 1.542 . S
C957 C550 1.488 . S
C955 C469 1.531 . S
C968 C518 1.506 . S
C966 C221 1.551 . S
