# Generated by pormake.
# Topology ctn, (3,4)-cn, num edge types: 1
# Building blocks:
#     Node 0, Type 0, BuildingBlock: PAMTOO_clean_linker_0, # of connection points: 3
#     Node 1, Type 0, BuildingBlock: PAMTOO_clean_linker_0, # of connection points: 3
#     Node 2, Type 0, BuildingBlock: PAMTOO_clean_linker_0, # of connection points: 3
#     Node 3, Type 0, BuildingBlock: PAMTOO_clean_linker_0, # of connection points: 3
#     Node 4, Type 0, BuildingBlock: PAMTOO_clean_linker_0, # of connection points: 3
#     Node 5, Type 0, BuildingBlock: PAMTOO_clean_linker_0, # of connection points: 3
#     Node 6, Type 0, BuildingBlock: PAMTOO_clean_linker_0, # of connection points: 3
#     Node 7, Type 0, BuildingBlock: PAMTOO_clean_linker_0, # of connection points: 3
#     Node 8, Type 0, BuildingBlock: PAMTOO_clean_linker_0, # of connection points: 3
#     Node 9, Type 0, BuildingBlock: PAMTOO_clean_linker_0, # of connection points: 3
#     Node 10, Type 0, BuildingBlock: PAMTOO_clean_linker_0, # of connection points: 3
#     Node 11, Type 0, BuildingBlock: PAMTOO_clean_linker_0, # of connection points: 3
#     Node 12, Type 0, BuildingBlock: PAMTOO_clean_linker_0, # of connection points: 3
#     Node 13, Type 0, BuildingBlock: PAMTOO_clean_linker_0, # of connection points: 3
#     Node 14, Type 0, BuildingBlock: PAMTOO_clean_linker_0, # of connection points: 3
#     Node 15, Type 0, BuildingBlock: PAMTOO_clean_linker_0, # of connection points: 3
#     Node 16, Type 1, BuildingBlock: AZAVOO_clean_sbu_0, # of connection points: 4
#     Node 17, Type 1, BuildingBlock: AZAVOO_clean_sbu_0, # of connection points: 4
#     Node 18, Type 1, BuildingBlock: AZAVOO_clean_sbu_0, # of connection points: 4
#     Node 19, Type 1, BuildingBlock: AZAVOO_clean_sbu_0, # of connection points: 4
#     Node 20, Type 1, BuildingBlock: AZAVOO_clean_sbu_0, # of connection points: 4
#     Node 21, Type 1, BuildingBlock: AZAVOO_clean_sbu_0, # of connection points: 4
#     Node 22, Type 1, BuildingBlock: AZAVOO_clean_sbu_0, # of connection points: 4
#     Node 23, Type 1, BuildingBlock: AZAVOO_clean_sbu_0, # of connection points: 4
#     Node 24, Type 1, BuildingBlock: AZAVOO_clean_sbu_0, # of connection points: 4
#     Node 25, Type 1, BuildingBlock: AZAVOO_clean_sbu_0, # of connection points: 4
#     Node 26, Type 1, BuildingBlock: AZAVOO_clean_sbu_0, # of connection points: 4
#     Node 27, Type 1, BuildingBlock: AZAVOO_clean_sbu_0, # of connection points: 4
#     Edge 28, Type (0, 1), BuildingBlock: AJUNOK_clean_linker_0, # of connection points: 2
#     Edge 29, Type (0, 1), BuildingBlock: AJUNOK_clean_linker_0, # of connection points: 2
#     Edge 30, Type (0, 1), BuildingBlock: AJUNOK_clean_linker_0, # of connection points: 2
#     Edge 31, Type (0, 1), BuildingBlock: AJUNOK_clean_linker_0, # of connection points: 2
#     Edge 32, Type (0, 1), BuildingBlock: AJUNOK_clean_linker_0, # of connection points: 2
#     Edge 33, Type (0, 1), BuildingBlock: AJUNOK_clean_linker_0, # of connection points: 2
#     Edge 34, Type (0, 1), BuildingBlock: AJUNOK_clean_linker_0, # of connection points: 2
#     Edge 35, Type (0, 1), BuildingBlock: AJUNOK_clean_linker_0, # of connection points: 2
#     Edge 36, Type (0, 1), BuildingBlock: AJUNOK_clean_linker_0, # of connection points: 2
#     Edge 37, Type (0, 1), BuildingBlock: AJUNOK_clean_linker_0, # of connection points: 2
#     Edge 38, Type (0, 1), BuildingBlock: AJUNOK_clean_linker_0, # of connection points: 2
#     Edge 39, Type (0, 1), BuildingBlock: AJUNOK_clean_linker_0, # of connection points: 2
#     Edge 40, Type (0, 1), BuildingBlock: AJUNOK_clean_linker_0, # of connection points: 2
#     Edge 41, Type (0, 1), BuildingBlock: AJUNOK_clean_linker_0, # of connection points: 2
#     Edge 42, Type (0, 1), BuildingBlock: AJUNOK_clean_linker_0, # of connection points: 2
#     Edge 43, Type (0, 1), BuildingBlock: AJUNOK_clean_linker_0, # of connection points: 2
#     Edge 44, Type (0, 1), BuildingBlock: AJUNOK_clean_linker_0, # of connection points: 2
#     Edge 45, Type (0, 1), BuildingBlock: AJUNOK_clean_linker_0, # of connection points: 2
#     Edge 46, Type (0, 1), BuildingBlock: AJUNOK_clean_linker_0, # of connection points: 2
#     Edge 47, Type (0, 1), BuildingBlock: AJUNOK_clean_linker_0, # of connection points: 2
#     Edge 48, Type (0, 1), BuildingBlock: AJUNOK_clean_linker_0, # of connection points: 2
#     Edge 49, Type (0, 1), BuildingBlock: AJUNOK_clean_linker_0, # of connection points: 2
#     Edge 50, Type (0, 1), BuildingBlock: AJUNOK_clean_linker_0, # of connection points: 2
#     Edge 51, Type (0, 1), BuildingBlock: AJUNOK_clean_linker_0, # of connection points: 2
#     Edge 52, Type (0, 1), BuildingBlock: AJUNOK_clean_linker_0, # of connection points: 2
#     Edge 53, Type (0, 1), BuildingBlock: AJUNOK_clean_linker_0, # of connection points: 2
#     Edge 54, Type (0, 1), BuildingBlock: AJUNOK_clean_linker_0, # of connection points: 2
#     Edge 55, Type (0, 1), BuildingBlock: AJUNOK_clean_linker_0, # of connection points: 2
#     Edge 56, Type (0, 1), BuildingBlock: AJUNOK_clean_linker_0, # of connection points: 2
#     Edge 57, Type (0, 1), BuildingBlock: AJUNOK_clean_linker_0, # of connection points: 2
#     Edge 58, Type (0, 1), BuildingBlock: AJUNOK_clean_linker_0, # of connection points: 2
#     Edge 59, Type (0, 1), BuildingBlock: AJUNOK_clean_linker_0, # of connection points: 2
#     Edge 60, Type (0, 1), BuildingBlock: AJUNOK_clean_linker_0, # of connection points: 2
#     Edge 61, Type (0, 1), BuildingBlock: AJUNOK_clean_linker_0, # of connection points: 2
#     Edge 62, Type (0, 1), BuildingBlock: AJUNOK_clean_linker_0, # of connection points: 2
#     Edge 63, Type (0, 1), BuildingBlock: AJUNOK_clean_linker_0, # of connection points: 2
#     Edge 64, Type (0, 1), BuildingBlock: AJUNOK_clean_linker_0, # of connection points: 2
#     Edge 65, Type (0, 1), BuildingBlock: AJUNOK_clean_linker_0, # of connection points: 2
#     Edge 66, Type (0, 1), BuildingBlock: AJUNOK_clean_linker_0, # of connection points: 2
#     Edge 67, Type (0, 1), BuildingBlock: AJUNOK_clean_linker_0, # of connection points: 2
#     Edge 68, Type (0, 1), BuildingBlock: AJUNOK_clean_linker_0, # of connection points: 2
#     Edge 69, Type (0, 1), BuildingBlock: AJUNOK_clean_linker_0, # of connection points: 2
#     Edge 70, Type (0, 1), BuildingBlock: AJUNOK_clean_linker_0, # of connection points: 2
#     Edge 71, Type (0, 1), BuildingBlock: AJUNOK_clean_linker_0, # of connection points: 2
#     Edge 72, Type (0, 1), BuildingBlock: AJUNOK_clean_linker_0, # of connection points: 2
#     Edge 73, Type (0, 1), BuildingBlock: AJUNOK_clean_linker_0, # of connection points: 2
#     Edge 74, Type (0, 1), BuildingBlock: AJUNOK_clean_linker_0, # of connection points: 2
#     Edge 75, Type (0, 1), BuildingBlock: AJUNOK_clean_linker_0, # of connection points: 2
# Relax obj value: 0.060
# Max RMSD: 0.169
# Mean RMSD: 0.106
data_MOF--net-ctn--node1-AZAVOO_clean_sbu_0--node2-PAMTOO_clean_linker_0--edge1-AJUNOK_clean_linker_0
_symmetry_space_group_name_H-M    P1
_symmetry_Int_Tables_number       1
_symmetry_cell_setting            triclinic
loop_
_symmetry_equiv_pos_as_xyz
'x, y, z'
_cell_length_a     38.031081
_cell_length_b     39.327724
_cell_length_c     40.343929
_cell_angle_alpha  85.402435
_cell_angle_beta   96.603281
_cell_angle_gamma 101.04655
loop_
_atom_site_label
_atom_site_type_symbol
_atom_site_fract_x
_atom_site_fract_y
_atom_site_fract_z
_atom_type_partial_charge
H0 H 0.99043 0.09533 0.04064 0.0
H1 H 0.01565 0.99266 0.05497 0.0
H2 H 0.05355 0.05991 0.9728 0.0
H3 H 0.04579 0.9911 0.95686 0.0
C4 C 0.0465 0.97741 0.98208 0.0
O5 O 0.05693 0.00127 0.00616 0.0
H6 H 0.01897 0.96252 0.98524 0.0
C7 C 1.00224 0.07502 0.03213 0.0
C8 C 0.0221 0.08189 0.00419 0.0
C9 C 0.9995 0.04289 0.05059 0.0
C10 C 0.01668 0.01729 0.04067 0.0
C11 C 0.03654 0.02391 0.01295 0.0
C12 C 0.03848 0.05566 0.99442 0.0
H13 H 0.33447 0.68376 0.30032 0.0
H14 H 0.28227 0.71435 0.20525 0.0
H15 H 0.37524 0.78168 0.25004 0.0
H16 H 0.32992 0.82452 0.20809 0.0
C17 C 0.30971 0.80206 0.19892 0.0
O18 O 0.3264 0.77389 0.19834 0.0
H19 H 0.2884 0.79624 0.21644 0.0
C20 C 0.33296 0.70238 0.2791 0.0
C21 C 0.35787 0.7337 0.27859 0.0
C22 C 0.30585 0.69505 0.25265 0.0
C23 C 0.30336 0.71954 0.22565 0.0
C24 C 0.32859 0.75059 0.22463 0.0
C25 C 0.35609 0.75744 0.25085 0.0
H26 H 0.9903 0.54408 0.14048 0.0
H27 H 0.93781 0.50248 0.04787 0.0
H28 H 0.02896 0.46338 0.09708 0.0
H29 H 0.02899 0.47907 0.02688 0.0
C30 C 1.0015 0.46471 0.01896 0.0
O31 O 0.98072 0.45844 0.0455 0.0
H32 H 0.98856 0.4809 0.99911 0.0
C33 C 0.98803 0.52603 0.12107 0.0
C34 C 0.01327 0.5038 0.12218 0.0
C35 C 0.96048 0.52574 0.09431 0.0
C36 C 0.95884 0.50334 0.0685 0.0
C37 C 0.98348 0.48099 0.06965 0.0
C38 C 0.01025 0.48104 0.09647 0.0
H39 H 0.73744 0.87916 0.28853 0.0
H40 H 0.68761 0.77208 0.27839 0.0
H41 H 0.77498 0.81714 0.2213 0.0
H42 H 0.69221 0.76848 0.19634 0.0
C43 C 0.70614 0.74781 0.20916 0.0
O44 O 0.72991 0.76027 0.23582 0.0
H45 H 0.68486 0.72706 0.21863 0.0
C46 C 0.73523 0.85495 0.27671 0.0
C47 C 0.75925 0.85206 0.25341 0.0
C48 C 0.70901 0.82633 0.28561 0.0
C49 C 0.70706 0.79463 0.27117 0.0
C50 C 0.7308 0.79144 0.2481 0.0
C51 C 0.7566 0.82008 0.23906 0.0
H52 H 0.11626 0.97487 0.55609 0.0
H53 H 0.02917 0.94397 0.47986 0.0
H54 H 0.09346 0.04583 0.47275 0.0
H55 H 0.02281 0.04697 0.44524 0.0
C56 C 0.01336 0.01998 0.43744 0.0
O57 O 0.04135 0.00178 0.44301 0.0
H58 H 0.9912 0.00707 0.45245 0.0
C59 C 0.09985 0.9809 0.53339 0.0
C60 C 0.1077 0.01378 0.51647 0.0
C61 C 0.07138 0.95551 0.52034 0.0
C62 C 0.05065 0.96348 0.49057 0.0
C63 C 0.05864 0.99593 0.47351 0.0
C64 C 0.08702 0.02098 0.48649 0.0
H65 H 0.16128 0.77066 0.7971 0.0
H66 H 0.20141 0.70191 0.73851 0.0
H67 H 0.25472 0.72657 0.83483 0.0
H68 H 0.30582 0.71974 0.79222 0.0
C69 C 0.28796 0.7067 0.77137 0.0
O70 O 0.25494 0.69238 0.78235 0.0
H71 H 0.28432 0.72674 0.75081 0.0
C72 C 0.18052 0.75438 0.79411 0.0
C73 C 0.20814 0.75071 0.82001 0.0
C74 C 0.17776 0.73689 0.76436 0.0
C75 C 0.20304 0.71583 0.76092 0.0
C76 C 0.23049 0.71222 0.7863 0.0
C77 C 0.23291 0.72943 0.81563 0.0
H78 H 0.91504 0.53843 0.54044 0.0
H79 H 0.95293 0.48443 0.467 0.0
H80 H 0.01148 0.58394 0.49376 0.0
H81 H 1.00667 0.56805 0.42102 0.0
C82 C 1.00759 0.5399 0.42502 0.0
O83 O 0.01046 0.53065 0.45881 0.0
H84 H 0.98215 0.52513 0.41276 0.0
C85 C 0.93436 0.53765 0.52289 0.0
C86 C 0.96427 0.56507 0.52037 0.0
C87 C 0.92996 0.50846 0.50366 0.0
C88 C 0.95569 0.50676 0.48183 0.0
C89 C 0.98508 0.53371 0.47873 0.0
C90 C 0.98902 0.56296 0.4974 0.0
H91 H 0.76342 0.81359 0.87159 0.0
H92 H 0.83648 0.75267 0.84239 0.0
H93 H 0.80512 0.83401 0.77553 0.0
H94 H 0.80741 0.76251 0.75097 0.0
C95 C 0.83566 0.76234 0.76189 0.0
O96 O 0.8459 0.78735 0.78502 0.0
H97 H 0.83656 0.73633 0.77462 0.0
C98 C 0.77927 0.80726 0.85309 0.0
C99 C 0.78105 0.82707 0.8224 0.0
C100 C 0.79909 0.78018 0.86072 0.0
C101 C 0.82127 0.77347 0.83734 0.0
C102 C 0.82352 0.79312 0.8069 0.0
C103 C 0.8032 0.81938 0.79938 0.0
H104 H 0.2514 0.30108 0.36764 0.0
H105 H 0.33432 0.25153 0.33965 0.0
H106 H 0.29913 0.33328 0.27555 0.0
H107 H 0.30258 0.26067 0.24958 0.0
C108 C 0.33115 0.26159 0.25989 0.0
O109 O 0.34105 0.28728 0.28242 0.0
H110 H 0.3329 0.23601 0.27321 0.0
C111 C 0.27036 0.29882 0.35026 0.0
C112 C 0.27251 0.32098 0.32098 0.0
C113 C 0.29266 0.27373 0.35742 0.0
C114 C 0.31717 0.2708 0.33475 0.0
C115 C 0.31877 0.29173 0.30499 0.0
C116 C 0.29677 0.3168 0.29832 0.0
H117 H 0.49868 0.04423 0.63659 0.0
H118 H 0.4464 1.00093 0.54452 0.0
H119 H 0.53108 0.9564 0.59938 0.0
H120 H 0.53468 0.97007 0.52882 0.0
C121 C 0.50664 0.95769 0.52013 0.0
O122 O 0.48513 0.95285 0.54614 0.0
H123 H 0.49562 0.97516 0.50023 0.0
C124 C 0.49549 0.02506 0.6181 0.0
C125 C 0.51901 1.00094 0.62104 0.0
C126 C 0.46836 0.02486 0.59089 0.0
C127 C 0.46575 1.00069 0.56641 0.0
C128 C 0.4883 0.97623 0.56962 0.0
C129 C 0.51412 0.97585 0.59716 0.0
H130 H 0.22094 0.37385 0.77383 0.0
H131 H 0.18157 0.264 0.76799 0.0
H132 H 0.27583 0.31145 0.72152 0.0
H133 H 0.19175 0.25308 0.69478 0.0
C134 C 0.21015 0.23641 0.70818 0.0
O135 O 0.23199 0.25314 0.73398 0.0
H136 H 0.19251 0.21328 0.71894 0.0
C137 C 0.22288 0.34909 0.76492 0.0
C138 C 0.25189 0.34652 0.74698 0.0
C139 C 0.19692 0.31953 0.77224 0.0
C140 C 0.20053 0.28729 0.76171 0.0
C141 C 0.2286 0.28458 0.74319 0.0
C142 C 0.25394 0.3141 0.73554 0.0
H143 H 0.82868 0.19073 0.80753 0.0
H144 H 0.77546 0.21988 0.71265 0.0
H145 H 0.86756 0.28892 0.7565 0.0
H146 H 0.81052 0.32677 0.71564 0.0
C147 C 0.79623 0.30345 0.70252 0.0
O148 O 0.8189 0.27964 0.70479 0.0
H149 H 0.77139 0.29257 0.71481 0.0
C150 C 0.82665 0.20935 0.78639 0.0
C151 C 0.8513 0.24089 0.7855 0.0
C152 C 0.79911 0.20176 0.76038 0.0
C153 C 0.79662 0.22557 0.73289 0.0
C154 C 0.82143 0.25687 0.73146 0.0
C155 C 0.84876 0.26449 0.75767 0.0
H156 H 0.48881 0.58949 0.54676 0.0
H157 H 0.51113 0.48578 0.56227 0.0
H158 H 0.55379 0.55265 0.48168 0.0
H159 H 0.53904 0.48729 0.46401 0.0
C160 C 0.54265 0.47155 0.48791 0.0
O161 O 0.55336 0.49296 0.51406 0.0
H162 H 0.51636 0.45453 0.49202 0.0
C163 C 0.50059 0.56885 0.53887 0.0
C164 C 0.52157 0.57533 0.51172 0.0
C165 C 0.49614 0.53651 0.55704 0.0
C166 C 0.51342 0.51054 0.54806 0.0
C167 C 0.53446 0.51679 0.52112 0.0
C168 C 0.53802 0.54877 0.50283 0.0
H169 H 0.61667 0.47808 0.06081 0.0
H170 H 0.52994 0.44205 0.98585 0.0
H171 H 0.59388 0.54369 0.97335 0.0
H172 H 0.51455 0.53748 0.95221 0.0
C173 C 0.50922 0.51117 0.94235 0.0
O174 O 0.54089 0.49829 0.94638 0.0
H175 H 0.4887 0.49396 0.95661 0.0
C176 C 0.60069 0.48227 0.03732 0.0
C177 C 0.60861 0.51394 0.01848 0.0
C178 C 0.57209 0.4561 0.02586 0.0
C179 C 0.55153 0.46214 0.99543 0.0
C180 C 0.55939 0.49362 0.97658 0.0
C181 C 0.58782 0.51945 0.98815 0.0
H182 H 0.66242 0.27114 0.29863 0.0
H183 H 0.70157 0.20427 0.23738 0.0
H184 H 0.75645 0.22672 0.33374 0.0
H185 H 0.8006 0.22925 0.27572 0.0
C186 C 0.78534 0.20511 0.26456 0.0
O187 O 0.75496 0.19274 0.28068 0.0
H188 H 0.77727 0.21196 0.23783 0.0
C189 C 0.68168 0.25511 0.29492 0.0
C190 C 0.70929 0.25039 0.32053 0.0
C191 C 0.67907 0.23894 0.26448 0.0
C192 C 0.70368 0.21754 0.26026 0.0
C193 C 0.73138 0.21327 0.28518 0.0
C194 C 0.73442 0.22995 0.31491 0.0
H195 H 0.41272 0.0437 0.03227 0.0
H196 H 0.45019 0.98781 0.96015 0.0
H197 H 0.51695 0.08053 0.99618 0.0
H198 H 0.51865 0.97954 0.96909 0.0
C199 C 0.53462 0.00631 0.96685 0.0
O200 O 0.5118 0.02947 0.95671 0.0
H201 H 0.54844 0.01256 0.99203 0.0
C202 C 0.4333 0.04125 0.01661 0.0
C203 C 0.4654 0.06638 0.01664 0.0
C204 C 0.42799 0.01239 0.99684 0.0
C205 C 0.45404 0.00973 0.9757 0.0
C206 C 0.48608 0.034 0.97571 0.0
C207 C 0.49177 0.06216 0.99613 0.0
Mg208 Mg 0.2219 0.85998 0.00782 0.0
O209 O 0.27617 0.89869 0.00274 0.0
O210 O 0.31675 0.86379 0.00919 0.0
Mg211 Mg 0.2919 0.80686 0.02016 0.0
C212 C 0.30885 0.89407 0.00439 0.0
C213 C 0.15626 0.88986 0.00094 0.0
O214 O 0.15184 0.86114 0.02023 0.0
O215 O 0.22183 0.83984 0.95568 0.0
O216 O 0.2603 0.8032 0.96801 0.0
O217 O 0.22728 0.86606 0.06296 0.0
O218 O 0.24946 0.82702 0.03971 0.0
C219 C 0.23739 0.8161 0.94759 0.0
C220 C 0.24613 0.84171 0.06627 0.0
O221 O 0.18598 0.89902 0.98814 0.0
Mg222 Mg 0.1735 0.50984 0.30319 0.0
O223 O 0.13399 0.50455 0.25492 0.0
O224 O 0.16719 0.50533 0.21276 0.0
Mg225 Mg 0.2267 0.5107 0.23304 0.0
C226 C 0.1367 0.50384 0.22371 0.0
C227 C 0.13037 0.51877 0.35889 0.0
O228 O 0.16142 0.54004 0.36362 0.0
O229 O 0.183 0.45324 0.30456 0.0
O230 O 0.21789 0.45769 0.26271 0.0
O231 O 0.18164 0.56759 0.2953 0.0
O232 O 0.21613 0.53576 0.27675 0.0
C233 C 0.20252 0.44025 0.28689 0.0
C234 C 0.20876 0.56599 0.27924 0.0
O235 O 0.12598 0.4984 0.33514 0.0
Mg236 Mg 0.80704 0.67158 0.06447 0.0
O237 O 0.75394 0.63129 0.05496 0.0
O238 O 0.70902 0.66134 0.04988 0.0
Mg239 Mg 0.73138 0.71923 0.05276 0.0
C240 C 0.72032 0.63269 0.05092 0.0
C241 C 0.85012 0.61231 0.08703 0.0
O242 O 0.83508 0.61611 0.11385 0.0
O243 O 0.80453 0.69004 0.00821 0.0
O244 O 0.75896 0.71917 0.00525 0.0
O245 O 0.80008 0.66928 0.11956 0.0
O246 O 0.77906 0.70621 0.08236 0.0
C247 C 0.78351 0.70879 0.99178 0.0
C248 C 0.78178 0.69389 0.11275 0.0
O249 O 0.84258 0.63044 0.06039 0.0
Mg250 Mg 0.91294 0.0509 0.22975 0.0
O251 O 0.87516 0.99765 0.23056 0.0
O252 O 0.90981 0.95802 0.22945 0.0
Mg253 Mg 0.96802 0.98531 0.22409 0.0
C254 C 0.87906 0.96605 0.231 0.0
C255 C 0.87942 0.10427 0.26201 0.0
O256 O 0.9138 0.11331 0.27218 0.0
O257 O 0.93489 0.03956 0.28412 0.0
O258 O 0.97279 0.00409 0.27733 0.0
O259 O 0.90638 0.0562 0.17373 0.0
O260 O 0.94877 0.03247 0.20314 0.0
C261 C 0.95926 0.02221 0.2957 0.0
C262 C 0.9339 0.04116 0.17422 0.0
O263 O 0.86935 0.07762 0.245 0.0
Mg264 Mg 0.31094 0.16676 0.56084 0.0
O265 O 0.25664 0.12783 0.55306 0.0
O266 O 0.21286 0.15898 0.5491 0.0
Mg267 Mg 0.23729 0.21646 0.55197 0.0
C268 C 0.2232 0.12991 0.54951 0.0
C269 C 0.37525 0.12898 0.57183 0.0
O270 O 0.38696 0.15844 0.5862 0.0
O271 O 0.30638 0.18434 0.50436 0.0
O272 O 0.26163 0.21434 0.50308 0.0
O273 O 0.3065 0.16457 0.6162 0.0
O274 O 0.28558 0.20251 0.57982 0.0
C275 C 0.28478 0.20289 0.48859 0.0
C276 C 0.28931 0.19014 0.61016 0.0
O277 O 0.34369 0.12399 0.55633 0.0
Mg278 Mg 0.4088 0.54624 0.73454 0.0
O279 O 0.36951 0.49341 0.73489 0.0
O280 O 0.40341 0.4534 0.73181 0.0
Mg281 Mg 0.46204 0.47948 0.72759 0.0
C282 C 0.37294 0.46176 0.73402 0.0
C283 C 0.36833 0.60452 0.73511 0.0
O284 O 0.39151 0.61349 0.71278 0.0
O285 O 0.43114 0.53421 0.78844 0.0
O286 O 0.46577 0.49585 0.78183 0.0
O287 O 0.40106 0.55191 0.67881 0.0
O288 O 0.44331 0.52701 0.70707 0.0
C289 C 0.45342 0.51471 0.80041 0.0
C290 C 0.42773 0.5359 0.67851 0.0
O291 O 0.36732 0.57506 0.75092 0.0
Mg292 Mg 0.72091 0.36053 0.5069 0.0
O293 O 0.77666 0.39684 0.50308 0.0
O294 O 0.81587 0.3608 0.51399 0.0
Mg295 Mg 0.78795 0.30467 0.52414 0.0
C296 C 0.80908 0.39133 0.50731 0.0
C297 C 0.65525 0.38879 0.49038 0.0
O298 O 0.64778 0.35662 0.50287 0.0
O299 O 0.72139 0.33837 0.45578 0.0
O300 O 0.75891 0.30122 0.47071 0.0
O301 O 0.72603 0.36881 0.56141 0.0
O302 O 0.7444 0.32599 0.54041 0.0
C303 C 0.73687 0.31395 0.44912 0.0
C304 C 0.74207 0.3424 0.56617 0.0
O305 O 0.6878 0.40122 0.48538 0.0
Mg306 Mg 0.67313 0.0111 0.80637 0.0
O307 O 0.63495 0.00494 0.75673 0.0
O308 O 0.67224 0.0118 0.7169 0.0
Mg309 Mg 0.73141 0.02325 0.73839 0.0
C310 C 0.64041 0.00629 0.72585 0.0
C311 C 0.6365 0.00731 0.86782 0.0
O312 O 0.66909 0.02583 0.87272 0.0
O313 O 0.68872 0.95664 0.80541 0.0
O314 O 0.72799 0.97026 0.76707 0.0
O315 O 0.67618 0.06907 0.80162 0.0
O316 O 0.71422 0.0423 0.78182 0.0
C317 C 0.71296 0.94899 0.78914 0.0
C318 C 0.70415 0.07091 0.78567 0.0
O319 O 0.62717 0.99361 0.83981 0.0
Mg320 Mg 0.04983 0.28582 0.92446 0.0
O321 O 0.99568 0.27431 0.89154 0.0
O322 O 0.95467 0.25231 0.92679 0.0
Mg323 Mg 0.98161 0.24618 0.98012 0.0
C324 C 0.96307 0.26242 0.89735 0.0
C325 C 0.07926 0.30504 0.85464 0.0
O326 O 0.07965 0.32122 0.88183 0.0
O327 O 0.0324 0.33212 0.94436 0.0
O328 O 0.99613 0.30557 0.9824 0.0
O329 O 0.06124 0.23304 0.91859 0.0
O330 O 0.03128 0.24559 0.95832 0.0
C331 C 0.01315 0.33299 0.96811 0.0
C332 C 0.04322 0.22268 0.944 0.0
O333 O 0.07897 0.31979 0.88159 0.0
Mg334 Mg 0.54995 0.77671 0.42527 0.0
O335 O 0.49724 0.76547 0.39042 0.0
O336 O 0.45373 0.74498 0.42348 0.0
Mg337 Mg 0.47813 0.73881 0.47781 0.0
C338 C 0.46407 0.7545 0.39459 0.0
C339 C 0.61377 0.8145 0.38988 0.0
O340 O 0.62753 0.8079 0.42057 0.0
O341 O 0.53262 0.82413 0.44369 0.0
O342 O 0.49417 0.79803 0.4801 0.0
O343 O 0.56092 0.72342 0.42149 0.0
O344 O 0.52955 0.73738 0.45941 0.0
C345 C 0.51246 0.8253 0.46671 0.0
C346 C 0.54207 0.71393 0.44647 0.0
O347 O 0.57976 0.80718 0.38323 0.0
Mg348 Mg 0.98657 0.75031 0.61609 0.0
O349 O 0.03656 0.74382 0.65273 0.0
O350 O 0.07881 0.73574 0.62163 0.0
Mg351 Mg 0.05521 0.73172 0.56683 0.0
C352 C 0.06861 0.73971 0.64994 0.0
C353 C 0.92691 0.76715 0.65377 0.0
O354 O 0.90998 0.75682 0.62503 0.0
O355 O 0.01541 0.80484 0.5978 0.0
O356 O 0.05192 0.78962 0.56423 0.0
O357 O 0.96331 0.69299 0.61841 0.0
O358 O 1.00063 0.71843 0.58224 0.0
C359 C 0.03822 0.81272 0.57609 0.0
C360 C 0.98155 0.69039 0.59389 0.0
O361 O 0.96101 0.77008 0.65792 0.0
Mg362 Mg 0.48628 0.24817 0.11855 0.0
O363 O 0.5377 0.24388 0.15444 0.0
O364 O 0.57976 0.23839 0.12195 0.0
Mg365 Mg 0.55587 0.23595 0.0673 0.0
C366 C 0.57005 0.24149 0.15066 0.0
C367 C 0.42516 0.26352 0.15429 0.0
O368 O 0.4105 0.25453 0.12442 0.0
O369 O 0.51198 0.30408 0.1016 0.0
O370 O 0.55196 0.29344 0.06892 0.0
O371 O 0.46754 0.19013 0.11985 0.0
O372 O 0.50137 0.21927 0.08265 0.0
C373 C 0.53657 0.31453 0.08196 0.0
C374 C 0.48463 0.1898 0.09397 0.0
O375 O 0.45899 0.26524 0.16086 0.0
C376 C 0.2192 0.74908 0.88237 0.0
C377 C 0.21166 0.76808 0.85216 0.0
C378 C 0.22702 0.76497 0.91282 0.0
C379 C 0.22706 0.80053 0.9147 0.0
H380 H 0.21967 0.72161 0.88248 0.0
H381 H 0.2332 0.74911 0.93516 0.0
S382 S 0.20773 0.86204 0.84339 0.0
N383 N 0.20412 0.82461 0.8262 0.0
N384 N 0.21756 0.85424 0.88393 0.0
C385 C 0.21811 0.81973 0.88503 0.0
C386 C 0.21066 0.80357 0.85369 0.0
C387 C 0.03548 0.50879 0.3849 0.0
C388 C 0.03976 0.53277 0.40982 0.0
C389 C 0.06505 0.50348 0.36933 0.0
C390 C 0.10005 0.52191 0.37813 0.0
H391 H 0.00897 0.4945 0.37692 0.0
H392 H 0.06022 0.4854 0.3497 0.0
S393 S 0.12551 0.58605 0.44373 0.0
N394 N 0.08148 0.57389 0.44366 0.0
N395 N 0.13718 0.56393 0.415 0.0
C396 C 0.1047 0.54515 0.40389 0.0
C397 C 0.07456 0.55058 0.41955 0.0
C398 C 0.76203 0.74682 0.90424 0.0
C399 C 0.79613 0.75889 0.89299 0.0
C400 C 0.75827 0.7288 0.93539 0.0
C401 C 0.78841 0.72175 0.95668 0.0
H402 H 0.73796 0.75184 0.88903 0.0
H403 H 0.73145 0.7211 0.94328 0.0
S404 S 0.88376 0.74694 0.93899 0.0
N405 N 0.8608 0.76198 0.90558 0.0
N406 N 0.85352 0.72745 0.96395 0.0
C407 C 0.82261 0.73235 0.94528 0.0
C408 C 0.82652 0.75108 0.91354 0.0
C409 C 0.9629 0.01916 0.39043 0.0
C410 C 0.99995 0.02145 0.4006 0.0
C411 C 0.94979 0.02032 0.35639 0.0
C412 C 0.97329 0.02346 0.3314 0.0
H413 H 0.94387 0.01615 0.40895 0.0
H414 H 0.92105 0.01785 0.34962 0.0
S415 S 0.07291 0.03523 0.34451 0.0
N416 N 0.06018 0.03113 0.38262 0.0
N417 N 0.03544 0.03181 0.3189 0.0
C418 C 0.01043 0.02703 0.34117 0.0
C419 C 0.02381 0.02659 0.37569 0.0
C420 C 0.24158 0.19227 0.68747 0.0
C421 C 0.23267 0.22559 0.68398 0.0
C422 C 0.26084 0.18117 0.664 0.0
C423 C 0.27172 0.20302 0.63626 0.0
H424 H 0.23293 0.17446 0.70811 0.0
H425 H 0.26631 0.155 0.66711 0.0
S426 S 0.25914 0.29428 0.61851 0.0
N427 N 0.23913 0.28138 0.65275 0.0
N428 N 0.27509 0.26068 0.6085 0.0
C429 C 0.26436 0.23694 0.63343 0.0
C430 C 0.24501 0.24824 0.65741 0.0
C431 C 0.49181 0.52036 0.61804 0.0
C432 C 0.47568 0.53126 0.58687 0.0
C433 C 0.47518 0.52015 0.64739 0.0
C434 C 0.44175 0.53079 0.64669 0.0
H435 H 0.51831 0.51358 0.62 0.0
H436 H 0.48949 0.51309 0.67094 0.0
S437 S 0.38599 0.55663 0.5705 0.0
N438 N 0.42275 0.54922 0.55645 0.0
N439 N 0.39142 0.54894 0.61143 0.0
C440 C 0.42434 0.53964 0.61533 0.0
C441 C 0.44133 0.53989 0.5855 0.0
C442 C 0.78055 0.34741 0.65701 0.0
C443 C 0.78493 0.31313 0.6664 0.0
C444 C 0.76723 0.35677 0.62439 0.0
C445 C 0.75786 0.33221 0.59987 0.0
H446 H 0.78698 0.36708 0.6752 0.0
H447 H 0.76407 0.38344 0.61841 0.0
S448 S 0.76208 0.23852 0.61207 0.0
N449 N 0.77705 0.25414 0.64888 0.0
N450 N 0.75285 0.27191 0.58739 0.0
C451 C 0.76208 0.29783 0.60886 0.0
C452 C 0.77521 0.28821 0.6422 0.0
C453 C 0.54514 0.00408 0.68163 0.0
C454 C 0.54996 0.00261 0.64771 0.0
C455 C 0.57417 0.00444 0.70684 0.0
C456 C 0.60929 0.00361 0.69913 0.0
H457 H 0.51866 0.00456 0.68878 0.0
H458 H 0.56906 0.00578 0.73251 0.0
S459 S 0.63618 1.00081 0.61365 0.0
N460 N 0.59269 0.00146 0.60765 0.0
N461 N 0.64673 0.00139 0.65444 0.0
C462 C 0.61428 0.0022 0.66513 0.0
C463 C 0.58484 0.00192 0.63965 0.0
C464 C 0.91589 0.25797 0.80869 0.0
C465 C 0.87928 0.24895 0.81398 0.0
C466 C 0.94279 0.26297 0.83571 0.0
C467 C 0.93405 0.25922 0.86902 0.0
H468 H 0.92384 0.26019 0.78356 0.0
H469 H 0.97065 0.26903 0.83039 0.0
S470 S 0.84145 0.23983 0.89559 0.0
N471 N 0.83535 0.23932 0.85446 0.0
N472 N 0.88547 0.24859 0.90524 0.0
C473 C 0.89728 0.25151 0.87439 0.0
C474 C 0.87004 0.2464 0.8469 0.0
C475 C 0.50684 0.92016 0.47196 0.0
C476 C 0.50791 0.92322 0.50666 0.0
C477 C 0.5089 0.88856 0.45897 0.0
C478 C 0.51173 0.85893 0.48027 0.0
H479 H 0.50435 0.94237 0.45474 0.0
H480 H 0.50761 0.88714 0.43214 0.0
S481 S 0.52005 0.85424 0.57298 0.0
N482 N 0.5157 0.89468 0.56202 0.0
N483 N 0.51824 0.83517 0.53767 0.0
C484 C 0.51382 0.86189 0.51497 0.0
C485 C 0.51241 0.8941 0.52816 0.0
C486 C 0.13161 0.30362 0.78126 0.0
C487 C 0.16645 0.3213 0.79176 0.0
C488 C 0.10331 0.30042 0.80133 0.0
C489 C 0.10849 0.31507 0.8325 0.0
H490 H 0.12643 0.29116 0.75774 0.0
H491 H 0.07738 0.28523 0.79287 0.0
S492 S 0.1942 0.36546 0.87103 0.0
N493 N 0.20432 0.3546 0.83508 0.0
N494 N 0.15095 0.34943 0.87247 0.0
C495 C 0.14276 0.33438 0.8427 0.0
C496 C 0.17175 0.33733 0.82234 0.0
C497 C 0.49807 0.62809 0.48616 0.0
C498 C 0.52704 0.61014 0.49349 0.0
C499 C 0.50288 0.66154 0.47042 0.0
C500 C 0.5366 0.67789 0.46072 0.0
H501 H 0.47145 0.61628 0.49274 0.0
H502 H 0.48004 0.67461 0.4657 0.0
S503 S 0.62153 0.64348 0.47527 0.0
N504 N 0.59126 0.6126 0.49122 0.0
N505 N 0.5995 0.67449 0.45989 0.0
C506 C 0.56562 0.66024 0.46728 0.0
C507 C 0.56104 0.6266 0.48408 0.0
C508 C 0.84646 0.76919 0.70086 0.0
C509 C 0.86073 0.76826 0.73458 0.0
C510 C 0.86845 0.77042 0.67501 0.0
C511 C 0.9057 0.77074 0.68172 0.0
H512 H 0.81781 0.76792 0.69435 0.0
H513 H 0.85582 0.77016 0.64953 0.0
S514 S 0.9566 0.77025 0.76602 0.0
N515 N 0.91451 0.76889 0.77345 0.0
N516 N 0.95611 0.77158 0.72494 0.0
C517 C 0.92059 0.77115 0.71538 0.0
C518 C 0.89804 0.7697 0.74175 0.0
C519 C 0.05323 0.91201 0.56756 0.0
C520 C 0.06505 0.9195 0.53554 0.0
C521 C 0.04455 0.87747 0.58072 0.0
C522 C 0.04804 0.84934 0.56251 0.0
H523 H 0.04986 0.93291 0.58215 0.0
H524 H 0.03509 0.87279 0.60529 0.0
S525 S 0.07888 0.85594 0.47756 0.0
N526 N 0.08038 0.89651 0.48623 0.0
N527 N 0.06459 0.832 0.51056 0.0
C528 C 0.06053 0.85688 0.53062 0.0
C529 C 0.0689 0.89182 0.51726 0.0
C530 C 0.15858 0.74524 0.70321 0.0
C531 C 0.14922 0.74037 0.73625 0.0
C532 C 0.13239 0.74519 0.67581 0.0
C533 C 0.09549 0.74056 0.68004 0.0
H534 H 0.18654 0.74879 0.6984 0.0
H535 H 0.14134 0.74876 0.65102 0.0
S536 S 0.05654 0.72781 0.76147 0.0
N537 N 0.10033 0.73128 0.77175 0.0
N538 N 0.05101 0.73202 0.72024 0.0
C539 C 0.08571 0.73671 0.71301 0.0
C540 C 0.11253 0.73649 0.74105 0.0
C541 C 0.93953 0.61016 0.54721 0.0
C542 C 0.96943 0.59593 0.54129 0.0
C543 C 0.94371 0.63995 0.5654 0.0
C544 C 0.97796 0.65719 0.57784 0.0
H545 H 0.91266 0.59879 0.53698 0.0
H546 H 0.91999 0.65031 0.5687 0.0
S547 S 0.06465 0.62909 0.57322 0.0
N548 N 0.03444 0.5999 0.55307 0.0
N549 N 0.04202 0.65699 0.5853 0.0
C550 C 1.00799 0.6431 0.57295 0.0
C551 C 1.0038 0.61224 0.55519 0.0
C552 C 0.82425 0.87576 0.24722 0.0
C553 C 0.78874 0.88152 0.2459 0.0
C554 C 0.85295 0.90311 0.24183 0.0
C555 C 0.84747 0.93753 0.23491 0.0
H556 H 0.83011 0.84995 0.25327 0.0
H557 H 0.87978 0.89713 0.24375 0.0
S558 S 0.75893 0.96596 0.22607 0.0
N559 N 0.74919 0.92375 0.23519 0.0
N560 N 0.80307 0.97539 0.22538 0.0
C561 C 0.81186 0.94354 0.2328 0.0
C562 C 0.78258 0.91555 0.23824 0.0
C563 C 0.79915 0.15008 0.24526 0.0
C564 C 0.80849 0.17768 0.26658 0.0
C565 C 0.82143 0.1255 0.24497 0.0
C566 C 0.85396 0.12766 0.26599 0.0
H567 H 0.77487 0.14804 0.22806 0.0
H568 H 0.81368 0.10542 0.22727 0.0
S569 S 0.88802 0.19259 0.32958 0.0
N570 N 0.8504 0.20388 0.31154 0.0
N571 N 0.89252 0.15802 0.31093 0.0
C572 C 0.86259 0.1542 0.28864 0.0
C573 C 0.83976 0.17907 0.28902 0.0
C574 C 0.36135 0.98717 0.9932 0.0
C575 C 0.39739 0.98289 1.00033 0.0
C576 C 0.33275 0.95846 0.99439 0.0
C577 C 0.33921 0.92449 0.00287 0.0
H578 H 0.35529 0.01271 0.986 0.0
H579 H 0.30546 0.96294 0.98836 0.0
S580 S 0.42934 0.90066 0.02695 0.0
N581 N 0.43803 0.94294 0.0183 0.0
N582 N 0.38515 0.88927 0.02068 0.0
C583 C 0.3754 0.92036 0.01096 0.0
C584 C 0.4042 0.94945 0.00968 0.0
C585 C 0.23496 0.35579 0.28105 0.0
C586 C 0.24995 0.34872 0.31394 0.0
C587 C 0.21734 0.38412 0.27287 0.0
C588 C 0.21307 0.40617 0.29732 0.0
H589 H 0.23771 0.33987 0.26114 0.0
H590 H 0.20804 0.38952 0.24692 0.0
S591 S 0.24619 0.39908 0.38724 0.0
N592 N 0.25883 0.36655 0.37122 0.0
N593 N 0.22424 0.41857 0.35595 0.0
C594 C 0.22612 0.39846 0.33056 0.0
C595 C 0.24485 0.37007 0.33885 0.0
C596 C 0.13066 0.07218 0.53842 0.0
C597 C 0.13795 0.04087 0.52901 0.0
C598 C 0.15853 0.10015 0.54616 0.0
C599 C 0.19495 0.09818 0.54444 0.0
H600 H 0.10306 0.07533 0.53904 0.0
H601 H 0.15123 0.12384 0.55281 0.0
S602 S 0.22797 0.02123 0.52108 0.0
N603 N 0.18377 0.00884 0.51878 0.0
N604 N 0.23646 0.06146 0.53302 0.0
C605 C 0.20259 0.06648 0.53585 0.0
C606 C 0.17403 0.03786 0.52816 0.0
C607 C 0.78517 0.13724 0.76316 0.0
C608 C 0.77303 0.16881 0.76247 0.0
C609 C 0.76196 0.10562 0.76886 0.0
C610 C 0.72593 0.10447 0.77478 0.0
H611 H 0.81305 0.13707 0.76004 0.0
H612 H 0.77291 0.08202 0.77011 0.0
S613 S 0.68079 0.18032 0.77359 0.0
N614 N 0.72256 0.19737 0.76624 0.0
N615 N 0.67884 0.13787 0.77773 0.0
C616 C 0.71319 0.13594 0.77303 0.0
C617 C 0.73678 0.16815 0.76667 0.0
C618 C 0.45763 0.08604 0.59118 0.0
C619 C 0.44374 0.05069 0.58685 0.0
C620 C 0.43533 0.11101 0.58583 0.0
C621 C 0.39817 0.10182 0.57571 0.0
H622 H 0.48612 0.09464 0.59821 0.0
H623 H 0.44748 0.13787 0.58949 0.0
S624 S 0.34779 0.01239 0.56324 0.0
N625 N 0.38986 0.00749 0.57375 0.0
N626 N 0.34826 0.05448 0.56295 0.0
C627 C 0.38382 0.06652 0.57156 0.0
C628 C 0.40648 0.041 0.57733 0.0
C629 C 0.56478 0.41466 0.49434 0.0
C630 C 0.57128 0.45038 0.48556 0.0
C631 C 0.59182 0.39499 0.49453 0.0
C632 C 0.62667 0.41027 0.48629 0.0
H633 H 0.53873 0.40188 0.50166 0.0
H634 H 0.58542 0.36763 0.50203 0.0
S635 S 0.65683 0.50309 0.46052 0.0
N636 N 0.61439 0.50034 0.46749 0.0
N637 N 0.66561 0.46349 0.46808 0.0
C638 C 0.63326 0.44596 0.47674 0.0
C639 C 0.60552 0.46597 0.47641 0.0
C640 C 0.71282 0.30179 0.35554 0.0
C641 C 0.71242 0.2661 0.35347 0.0
C642 C 0.71993 0.31728 0.38658 0.0
C643 C 0.72729 0.29763 0.41648 0.0
H644 H 0.7088 0.31805 0.33298 0.0
H645 H 0.72081 0.34493 0.38703 0.0
S646 S 0.72387 0.20235 0.42502 0.0
N647 N 0.71563 0.21103 0.38449 0.0
N648 N 0.72987 0.23998 0.44223 0.0
C649 C 0.72532 0.2617 0.41475 0.0
C650 C 0.71764 0.24599 0.38344 0.0
C651 C 0.54916 0.99749 0.90874 0.0
C652 C 0.56134 0.00698 0.94161 0.0
C653 C 0.57349 0.99668 0.88515 0.0
C654 C 0.61097 0.00541 0.89357 0.0
H655 H 0.52054 0.99064 0.90126 0.0
H656 H 0.56283 0.98979 0.86003 0.0
S657 S 0.65665 0.02988 0.97709 0.0
N658 N 0.6133 0.02382 0.98173 0.0
N659 N 0.65895 0.02227 0.93783 0.0
C660 C 0.62342 0.0143 0.92662 0.0
C661 C 0.59867 0.0151 0.95052 0.0
C662 C 0.32223 0.24728 0.40981 0.0
C663 C 0.29066 0.251 0.38885 0.0
C664 C 0.32054 0.22911 0.44129 0.0
C665 C 0.28721 0.21418 0.45287 0.0
H666 H 0.34834 0.25991 0.40254 0.0
H667 H 0.34528 0.22865 0.45744 0.0
S668 S 0.19725 0.21123 0.40543 0.0
N669 N 0.22553 0.23401 0.38025 0.0
N670 N 0.22234 0.20076 0.43949 0.0
C671 C 0.25572 0.21576 0.43128 0.0
C672 C 0.25743 0.23396 0.39928 0.0
C673 C 0.49857 0.48709 0.88482 0.0
C674 C 0.49463 0.51273 0.90579 0.0
C675 C 0.485 0.48795 0.85101 0.0
C676 C 0.46614 0.51403 0.83679 0.0
H677 H 0.51249 0.46624 0.89452 0.0
H678 H 0.48931 0.4678 0.83595 0.0
S679 S 0.44553 0.58538 0.88204 0.0
N680 N 0.46855 0.56363 0.91064 0.0
N681 N 0.44269 0.56523 0.8472 0.0
C682 C 0.46083 0.53913 0.85787 0.0
C683 C 0.475 0.53838 0.8923 0.0
C684 C 0.73361 0.75199 0.15467 0.0
C685 C 0.72593 0.73332 0.18493 0.0
C686 C 0.75162 0.73886 0.13162 0.0
C687 C 0.76311 0.70676 0.13811 0.0
H688 H 0.72543 0.77687 0.14867 0.0
H689 H 0.75681 0.75423 0.1086 0.0
S690 S 0.75061 0.64851 0.21455 0.0
N691 N 0.73178 0.68169 0.22078 0.0
N692 N 0.76604 0.65697 0.17756 0.0
C693 C 0.75622 0.68815 0.16866 0.0
C694 C 0.73759 0.70147 0.19205 0.0
C695 C 0.94681 0.04563 0.08179 0.0
C696 C 0.98137 0.03775 0.08185 0.0
C697 C 0.93096 0.04499 0.11164 0.0
C698 C 0.94913 0.03668 0.1428 0.0
H699 H 0.93224 0.05312 0.05852 0.0
H700 H 0.90468 0.05212 0.11029 0.0
S701 S 0.04036 0.01386 0.15634 0.0
N702 N 0.03313 0.02089 0.11547 0.0
N703 N 1.00367 0.01983 0.17152 0.0
C704 C 0.98335 0.02774 0.14303 0.0
C705 C 0.99937 0.02825 0.11259 0.0
C706 C 0.25767 0.81617 0.15874 0.0
C707 C 0.29373 0.81161 0.16423 0.0
C708 C 0.24267 0.82617 0.12691 0.0
C709 C 0.26304 0.83154 0.09939 0.0
H710 H 0.24095 0.81212 0.17921 0.0
H711 H 0.21477 0.82934 0.12372 0.0
S712 S 0.35951 0.82631 0.10112 0.0
N713 N 0.3501 0.81566 0.13999 0.0
N714 N 0.32164 0.83387 0.08004 0.0
C715 C 0.29921 0.82762 0.10458 0.0
C716 C 0.31465 0.8179 0.13707 0.0
C717 C 0.07885 0.50598 0.14018 0.0
C718 C 0.04389 0.50472 0.14904 0.0
C719 C 0.10822 0.50527 0.16445 0.0
C720 C 0.10416 0.50328 0.1989 0.0
H721 H 0.08367 0.50768 0.1141 0.0
H722 H 0.13442 0.50651 0.15589 0.0
S723 S 0.01777 0.49842 0.23543 0.0
N724 N 1.00652 0.50064 0.19464 0.0
N725 N 0.06171 0.49964 0.2405 0.0
C726 C 0.06921 0.50198 0.20818 0.0
C727 C 0.03917 0.50272 0.18326 0.0
C728 C 0.4218 0.7469 0.30445 0.0
C729 C 0.38477 0.74172 0.30778 0.0
C730 C 0.44735 0.75175 0.33254 0.0
C731 C 0.43672 0.75169 0.36493 0.0
H732 H 0.43101 0.74619 0.28012 0.0
H733 H 0.47557 0.7547 0.32888 0.0
S734 S 0.34265 0.7435 0.38582 0.0
N735 N 0.33863 0.73968 0.34506 0.0
N736 N 0.38625 0.74905 0.39782 0.0
C737 C 0.39963 0.74795 0.36817 0.0
C738 C 0.37377 0.7429 0.33962 0.0
C739 C 1.00023 0.42592 0.97143 0.0
C740 C 1.00516 0.43071 0.00601 0.0
C741 C 1.0036 0.39443 0.95904 0.0
C742 C 0.01158 0.36666 0.98091 0.0
H743 H 0.99351 0.44658 0.95386 0.0
H744 H 0.99914 0.39151 0.93233 0.0
S745 S 0.03109 0.36722 0.07302 0.0
N746 N 0.02189 0.40605 0.06145 0.0
N747 N 0.02691 0.34661 0.03829 0.0
C748 C 0.01756 0.37143 0.01534 0.0
C749 C 0.01482 0.40357 0.02786 0.0
C750 C 0.64732 0.81789 0.30445 0.0
C751 C 0.68475 0.82849 0.31134 0.0
C752 C 0.62418 0.81564 0.32956 0.0
C753 C 0.63771 0.82335 0.36263 0.0
H754 H 0.63595 0.8104 0.27965 0.0
H755 H 0.59572 0.8061 0.32328 0.0
S756 S 0.73359 0.85456 0.39291 0.0
N757 N 0.73417 0.84862 0.35294 0.0
N758 N 0.6909 0.84432 0.40023 0.0
C759 C 0.67499 0.83548 0.36942 0.0
C760 C 0.69846 0.83806 0.34376 0.0
C761 C 0.99879 0.13552 0.98081 0.0
C762 C 0.02751 0.11712 0.98677 0.0
C763 C 1.00382 0.16957 0.96643 0.0
C764 C 0.0375 0.18612 0.95677 0.0
H765 H 0.97225 0.12364 0.98753 0.0
H766 H 0.98119 0.18298 0.96278 0.0
S767 S 0.12181 0.15065 0.96796 0.0
N768 N 0.09149 0.11933 0.98323 0.0
N769 N 0.10005 0.18237 0.95437 0.0
C770 C 0.06622 0.16803 0.96187 0.0
C771 C 0.06146 0.13376 0.9773 0.0
C772 C 0.39294 0.2675 0.23986 0.0
C773 C 0.35581 0.26711 0.2322 0.0
C774 C 0.41559 0.26792 0.21452 0.0
C775 C 0.40188 0.2676 0.18053 0.0
H776 H 0.40432 0.26634 0.26571 0.0
H777 H 0.44376 0.26716 0.22176 0.0
S778 S 0.30683 0.2691 0.14724 0.0
N779 N 0.30672 0.26838 0.18818 0.0
N780 N 0.34888 0.26913 0.14071 0.0
C781 C 0.36497 0.26857 0.17258 0.0
C782 C 0.34205 0.26828 0.19835 0.0
C783 C 0.52939 0.40743 0.05231 0.0
C784 C 0.56454 0.42167 0.04437 0.0
C785 C 0.52085 0.37334 0.06641 0.0
C786 C 0.54701 0.35206 0.07237 0.0
H787 H 0.50817 0.42252 0.04689 0.0
H788 H 0.49324 0.36307 0.07112 0.0
S789 S 0.64344 0.37776 0.05791 0.0
N790 N 0.62598 0.41248 0.04518 0.0
N791 N 0.61 0.34849 0.07121 0.0
C792 C 0.58252 0.36648 0.06565 0.0
C793 C 0.59127 0.40126 0.05179 0.0
C794 C 0.61425 0.23451 0.24045 0.0
C795 C 0.65118 0.24397 0.23641 0.0
C796 C 0.58798 0.23442 0.21277 0.0
C797 C 0.59778 0.24359 0.18011 0.0
H798 H 0.6057 0.22586 0.26491 0.0
H799 H 0.5599 0.22606 0.21688 0.0
S800 S 0.69093 0.27532 0.15733 0.0
N801 N 0.69602 0.26622 0.19805 0.0
N802 N 0.64717 0.26602 0.14625 0.0
C803 C 0.63465 0.25477 0.17621 0.0
C804 C 0.66118 0.25498 0.20428 0.0
C805 C 0.48594 0.13035 0.02423 0.0
C806 C 0.47166 0.09708 0.03777 0.0
C807 C 0.49131 0.15983 0.04302 0.0
C808 C 0.48244 0.15748 0.07619 0.0
H809 H 0.49225 0.13385 0.99853 0.0
H810 H 0.50149 0.18483 0.03099 0.0
S811 S 0.4478 0.07611 0.12475 0.0
N812 N 0.45169 0.06329 0.08758 0.0
N813 N 0.4608 0.1187 0.12251 0.0
C814 C 0.4691 0.12429 0.09041 0.0
C815 C 0.46391 0.09416 0.07133 0.0
C816 C 0.31765 0.37179 0.74964 0.0
C817 C 0.28179 0.37666 0.74263 0.0
C818 C 0.34661 0.3994 0.74661 0.0
C819 C 0.34114 0.43331 0.73667 0.0
H820 H 0.32349 0.34643 0.7581 0.0
H821 H 0.37359 0.39405 0.75263 0.0
S822 S 0.25246 0.45979 0.71375 0.0
N823 N 0.24233 0.4178 0.72391 0.0
N824 N 0.29685 0.47 0.71887 0.0
C825 C 0.30539 0.43865 0.72945 0.0
C826 C 0.27576 0.41031 0.7323 0.0
C827 C 0.30806 0.64849 0.78025 0.0
C828 C 0.30578 0.67902 0.76 0.0
C829 C 0.32736 0.62394 0.77158 0.0
C830 C 0.34563 0.6293 0.74261 0.0
H831 H 0.29536 0.64385 0.8033 0.0
H832 H 0.32876 0.6011 0.78822 0.0
S833 S 0.34763 0.70505 0.68099 0.0
N834 N 0.32309 0.71309 0.70959 0.0
N835 N 0.35925 0.66734 0.69322 0.0
C836 C 0.34312 0.6596 0.72197 0.0
C837 C 0.32337 0.68441 0.73074 0.0
C838 C 0.86343 0.48395 0.50076 0.0
C839 C 0.89931 0.47888 0.50665 0.0
C840 C 0.83441 0.45564 0.50065 0.0
C841 C 0.84016 0.42115 0.50657 0.0
H842 H 0.8578 0.50993 0.49546 0.0
H843 H 0.80731 0.4609 0.4958 0.0
S844 S 0.92963 0.39467 0.52576 0.0
N845 N 0.93911 0.43732 0.52031 0.0
N846 N 0.88533 0.38426 0.51998 0.0
C847 C 0.87618 0.41605 0.51319 0.0
C848 C 0.90549 0.44482 0.51328 0.0
C849 C 0.7805 0.88826 0.80007 0.0
C850 C 0.76213 0.85736 0.8149 0.0
C851 C 0.76398 0.91706 0.79177 0.0
C852 C 0.72828 0.91684 0.79824 0.0
H853 H 0.80825 0.89048 0.79504 0.0
H854 H 0.77986 0.94006 0.78059 0.0
S855 S 0.66778 0.84249 0.83659 0.0
N856 N 0.70561 0.82804 0.83531 0.0
N857 N 0.67495 0.88297 0.82067 0.0
C858 C 0.70954 0.88639 0.81355 0.0
C859 C 0.72633 0.85657 0.82167 0.0
C860 C 0.67294 0.5446 0.02073 0.0
C861 C 0.63811 0.5419 0.03042 0.0
C862 C 0.70012 0.5733 0.02877 0.0
C863 C 0.69307 0.60044 0.04629 0.0
H864 H 0.67888 0.52489 0.00605 0.0
H865 H 0.72629 0.57495 0.01998 0.0
S866 S 0.60681 0.60363 0.07972 0.0
N867 N 0.5986 0.56714 0.06022 0.0
N868 N 0.6492 0.62113 0.07522 0.0
C869 C 0.65858 0.59717 0.05713 0.0
C870 C 0.63119 0.56789 0.04918 0.0
C871 C 0.24379 0.66137 0.25798 0.0
C872 C 0.28007 0.6618 0.25401 0.0
C873 C 0.2203 0.62999 0.26458 0.0
C874 C 0.23224 0.59801 0.26697 0.0
H875 H 0.23398 0.68552 0.25756 0.0
H876 H 0.19292 0.63092 0.2689 0.0
S877 S 0.32439 0.5856 0.25543 0.0
N878 N 0.32648 0.62801 0.25077 0.0
N879 N 0.2825 0.56894 0.26259 0.0
C880 C 0.2681 0.59817 0.26115 0.0
C881 C 0.292 0.63012 0.25488 0.0
C882 C 0.92451 0.56833 0.0639 0.0
C883 C 0.9328 0.54815 0.0932 0.0
C884 C 0.89752 0.58859 0.06187 0.0
C885 C 0.8775 0.58935 0.08901 0.0
H886 H 0.93922 0.56865 0.04238 0.0
H887 H 0.89255 0.60397 0.03892 0.0
S888 S 0.88724 0.53908 0.17071 0.0
N889 N 0.91783 0.52889 0.14933 0.0
N890 N 0.86726 0.56666 0.14586 0.0
C891 C 0.88526 0.56877 0.11833 0.0
C892 C 0.91286 0.54833 0.12036 0.0
C893 C 0.10271 0.95976 0.96633 0.0
C894 C 0.07317 0.95322 0.98545 0.0
C895 C 0.12936 0.93904 0.9712 0.0
C896 C 0.12752 0.91118 0.99554 0.0
H897 H 0.10543 0.9813 0.94773 0.0
H898 H 0.15162 0.94504 0.95591 0.0
S899 S 0.05631 0.88494 0.05344 0.0
N900 N 0.04422 0.91817 0.03035 0.0
N901 N 0.09383 0.87906 0.0397 0.0
C902 C 0.09806 0.90465 0.01497 0.0
C903 C 0.0711 0.92578 0.00996 0.0
loop_
_geom_bond_atom_site_label_1
_geom_bond_atom_site_label_2
_geom_bond_distance
_geom_bond_site_symmetry_2
_ccdc_geom_bond_type
H0 C7 0.929 . S
H1 C10 0.930 . S
H2 C12 0.926 . S
H3 C4 0.969 . S
C4 H3 0.969 . S
C4 O5 1.550 1_565 S
C4 H6 0.973 . S
O5 C4 1.550 1_545 S
O5 C11 1.412 . S
H6 C4 0.973 . S
C7 H0 0.929 . S
C7 C8 1.400 . S
C7 C9 1.364 . S
C8 C7 1.400 . S
C8 C12 1.378 1_654 S
C9 C7 1.364 . S
C9 C10 1.374 1_655 S
C10 H1 0.930 . S
C10 C9 1.374 1_455 S
C10 C11 1.383 . S
C11 O5 1.412 . S
C11 C10 1.383 . S
C11 C12 1.396 1_554 S
C12 H2 0.926 . S
C12 C8 1.378 1_456 S
C12 C11 1.396 1_556 S
H13 C20 0.929 . S
H14 C23 0.930 . S
H15 C25 0.929 . S
H16 C17 0.969 . S
C17 H16 0.969 . S
C17 O18 1.550 . S
C17 H19 0.973 . S
O18 C17 1.550 . S
O18 C24 1.412 . S
H19 C17 0.973 . S
C20 H13 0.929 . S
C20 C21 1.400 . S
C20 C22 1.364 . S
C21 C20 1.400 . S
C21 C25 1.377 . S
C22 C20 1.364 . S
C22 C23 1.374 . S
C23 H14 0.930 . S
C23 C22 1.374 . S
C23 C24 1.383 . S
C24 O18 1.412 . S
C24 C23 1.383 . S
C24 C25 1.394 . S
C25 H15 0.929 . S
C25 C21 1.377 . S
C25 C24 1.394 . S
H26 C33 0.929 . S
H27 C36 0.930 . S
H28 C38 0.929 . S
H29 C30 0.969 . S
C30 H29 0.969 . S
C30 O31 1.550 . S
C30 H32 0.973 . S
O31 C30 1.550 . S
O31 C37 1.412 . S
H32 C30 0.973 . S
C33 H26 0.929 . S
C33 C34 1.400 1_655 S
C33 C35 1.364 . S
C34 C33 1.400 1_455 S
C34 C38 1.377 . S
C35 C33 1.364 . S
C35 C36 1.374 . S
C36 H27 0.930 . S
C36 C35 1.374 . S
C36 C37 1.383 . S
C37 O31 1.412 . S
C37 C36 1.383 . S
C37 C38 1.394 1_655 S
C38 H28 0.929 . S
C38 C34 1.377 . S
C38 C37 1.394 1_455 S
H39 C46 0.929 . S
H40 C49 0.930 . S
H41 C51 0.929 . S
H42 C43 0.969 . S
C43 H42 0.969 . S
C43 O44 1.550 . S
C43 H45 0.973 . S
O44 C43 1.550 . S
O44 C50 1.412 . S
H45 C43 0.973 . S
C46 H39 0.929 . S
C46 C47 1.400 . S
C46 C48 1.364 . S
C47 C46 1.400 . S
C47 C51 1.377 . S
C48 C46 1.364 . S
C48 C49 1.374 . S
C49 H40 0.930 . S
C49 C48 1.374 . S
C49 C50 1.383 . S
C50 O44 1.412 . S
C50 C49 1.383 . S
C50 C51 1.394 . S
C51 H41 0.929 . S
C51 C47 1.377 . S
C51 C50 1.394 . S
H52 C59 0.929 . S
H53 C62 0.930 . S
H54 C64 0.929 . S
H55 C56 0.969 1_655 S
C56 H55 0.969 1_455 S
C56 O57 1.551 1_565 S
C56 H58 0.973 1_455 S
O57 C56 1.551 1_545 S
O57 C63 1.413 1_545 S
H58 C56 0.973 1_655 S
C59 H52 0.929 . S
C59 C60 1.400 1_565 S
C59 C61 1.364 . S
C60 C59 1.400 1_545 S
C60 C64 1.377 . S
C61 C59 1.364 . S
C61 C62 1.374 . S
C62 H53 0.930 . S
C62 C61 1.374 . S
C62 C63 1.383 . S
C63 O57 1.413 1_565 S
C63 C62 1.383 . S
C63 C64 1.394 1_565 S
C64 H54 0.929 . S
C64 C60 1.377 . S
C64 C63 1.394 1_545 S
H65 C72 0.929 . S
H66 C75 0.930 . S
H67 C77 0.929 . S
H68 C69 0.969 . S
C69 H68 0.969 . S
C69 O70 1.550 . S
C69 H71 0.973 . S
O70 C69 1.550 . S
O70 C76 1.412 . S
H71 C69 0.973 . S
C72 H65 0.929 . S
C72 C73 1.400 . S
C72 C74 1.364 . S
C73 C72 1.400 . S
C73 C77 1.377 . S
C74 C72 1.364 . S
C74 C75 1.374 . S
C75 H66 0.930 . S
C75 C74 1.374 . S
C75 C76 1.383 . S
C76 O70 1.412 . S
C76 C75 1.383 . S
C76 C77 1.394 . S
C77 H67 0.929 . S
C77 C73 1.377 . S
C77 C76 1.394 . S
H78 C85 0.929 . S
H79 C88 0.930 . S
H80 C90 0.929 1_455 S
H81 C82 0.969 1_655 S
C82 H81 0.969 1_455 S
C82 O83 1.550 . S
C82 H84 0.973 1_455 S
O83 C82 1.550 . S
O83 C89 1.412 1_455 S
H84 C82 0.973 1_655 S
C85 H78 0.929 . S
C85 C86 1.400 . S
C85 C87 1.364 . S
C86 C85 1.400 . S
C86 C90 1.377 . S
C87 C85 1.364 . S
C87 C88 1.374 . S
C88 H79 0.930 . S
C88 C87 1.374 . S
C88 C89 1.383 . S
C89 O83 1.412 1_655 S
C89 C88 1.383 . S
C89 C90 1.394 . S
C90 H80 0.929 1_655 S
C90 C86 1.377 . S
C90 C89 1.394 . S
H91 C98 0.929 . S
H92 C101 0.930 . S
H93 C103 0.929 . S
H94 C95 0.969 . S
C95 H94 0.969 . S
C95 O96 1.550 . S
C95 H97 0.973 . S
O96 C95 1.550 . S
O96 C102 1.412 . S
H97 C95 0.973 . S
C98 H91 0.929 . S
C98 C99 1.400 . S
C98 C100 1.364 . S
C99 C98 1.400 . S
C99 C103 1.377 . S
C100 C98 1.364 . S
C100 C101 1.374 . S
C101 H92 0.930 . S
C101 C100 1.374 . S
C101 C102 1.383 . S
C102 O96 1.412 . S
C102 C101 1.383 . S
C102 C103 1.394 . S
C103 H93 0.929 . S
C103 C99 1.377 . S
C103 C102 1.394 . S
H104 C111 0.929 . S
H105 C114 0.930 . S
H106 C116 0.929 . S
H107 C108 0.969 . S
C108 H107 0.969 . S
C108 O109 1.550 . S
C108 H110 0.973 . S
O109 C108 1.550 . S
O109 C115 1.412 . S
H110 C108 0.973 . S
C111 H104 0.929 . S
C111 C112 1.400 . S
C111 C113 1.364 . S
C112 C111 1.400 . S
C112 C116 1.377 . S
C113 C111 1.364 . S
C113 C114 1.374 . S
C114 H105 0.930 . S
C114 C113 1.374 . S
C114 C115 1.383 . S
C115 O109 1.412 . S
C115 C114 1.383 . S
C115 C116 1.394 . S
C116 H106 0.929 . S
C116 C112 1.377 . S
C116 C115 1.394 . S
H117 C124 0.929 1_545 S
H118 C127 0.930 . S
H119 C129 0.929 . S
H120 C121 0.969 . S
C121 H120 0.969 . S
C121 O122 1.550 . S
C121 H123 0.973 . S
O122 C121 1.550 . S
O122 C128 1.412 . S
H123 C121 0.973 . S
C124 H117 0.929 1_565 S
C124 C125 1.400 . S
C124 C126 1.364 . S
C125 C124 1.400 . S
C125 C129 1.377 . S
C126 C124 1.364 . S
C126 C127 1.374 . S
C127 H118 0.930 . S
C127 C126 1.374 . S
C127 C128 1.383 . S
C128 O122 1.412 . S
C128 C127 1.383 . S
C128 C129 1.394 . S
C129 H119 0.929 . S
C129 C125 1.377 . S
C129 C128 1.394 . S
H130 C137 0.929 . S
H131 C140 0.930 . S
H132 C142 0.929 . S
H133 C134 0.969 . S
C134 H133 0.969 . S
C134 O135 1.550 . S
C134 H136 0.973 . S
O135 C134 1.550 . S
O135 C141 1.412 . S
H136 C134 0.973 . S
C137 H130 0.929 . S
C137 C138 1.400 . S
C137 C139 1.364 . S
C138 C137 1.400 . S
C138 C142 1.377 . S
C139 C137 1.364 . S
C139 C140 1.374 . S
C140 H131 0.930 . S
C140 C139 1.374 . S
C140 C141 1.383 . S
C141 O135 1.412 . S
C141 C140 1.383 . S
C141 C142 1.394 . S
C142 H132 0.929 . S
C142 C138 1.377 . S
C142 C141 1.394 . S
H143 C150 0.929 . S
H144 C153 0.930 . S
H145 C155 0.929 . S
H146 C147 0.969 . S
C147 H146 0.969 . S
C147 O148 1.550 . S
C147 H149 0.973 . S
O148 C147 1.550 . S
O148 C154 1.412 . S
H149 C147 0.973 . S
C150 H143 0.929 . S
C150 C151 1.400 . S
C150 C152 1.364 . S
C151 C150 1.400 . S
C151 C155 1.377 . S
C152 C150 1.364 . S
C152 C153 1.374 . S
C153 H144 0.930 . S
C153 C152 1.374 . S
C153 C154 1.383 . S
C154 O148 1.412 . S
C154 C153 1.383 . S
C154 C155 1.394 . S
C155 H145 0.929 . S
C155 C151 1.377 . S
C155 C154 1.394 . S
H156 C163 0.929 . S
H157 C166 0.930 . S
H158 C168 0.929 . S
H159 C160 0.969 . S
C160 H159 0.969 . S
C160 O161 1.550 . S
C160 H162 0.973 . S
O161 C160 1.550 . S
O161 C167 1.412 . S
H162 C160 0.973 . S
C163 H156 0.929 . S
C163 C164 1.400 . S
C163 C165 1.364 . S
C164 C163 1.400 . S
C164 C168 1.377 . S
C165 C163 1.364 . S
C165 C166 1.374 . S
C166 H157 0.930 . S
C166 C165 1.374 . S
C166 C167 1.383 . S
C167 O161 1.412 . S
C167 C166 1.383 . S
C167 C168 1.394 . S
C168 H158 0.929 . S
C168 C164 1.377 . S
C168 C167 1.394 . S
H169 C176 0.929 . S
H170 C179 0.930 . S
H171 C181 0.929 . S
H172 C173 0.969 . S
C173 H172 0.969 . S
C173 O174 1.550 . S
C173 H175 0.973 . S
O174 C173 1.550 . S
O174 C180 1.412 . S
H175 C173 0.973 . S
C176 H169 0.929 . S
C176 C177 1.400 1_554 S
C176 C178 1.364 . S
C177 C176 1.400 1_556 S
C177 C181 1.377 . S
C178 C176 1.364 . S
C178 C179 1.374 1_554 S
C179 H170 0.930 . S
C179 C178 1.374 1_556 S
C179 C180 1.383 . S
C180 O174 1.412 . S
C180 C179 1.383 . S
C180 C181 1.394 . S
C181 H171 0.929 . S
C181 C177 1.377 . S
C181 C180 1.394 . S
H182 C189 0.929 . S
H183 C192 0.930 . S
H184 C194 0.929 . S
H185 C186 0.969 . S
C186 H185 0.969 . S
C186 O187 1.550 . S
C186 H188 0.973 . S
O187 C186 1.550 . S
O187 C193 1.412 . S
H188 C186 0.973 . S
C189 H182 0.929 . S
C189 C190 1.400 . S
C189 C191 1.364 . S
C190 C189 1.400 . S
C190 C194 1.377 . S
C191 C189 1.364 . S
C191 C192 1.374 . S
C192 H183 0.930 . S
C192 C191 1.374 . S
C192 C193 1.383 . S
C193 O187 1.412 . S
C193 C192 1.383 . S
C193 C194 1.394 . S
C194 H184 0.929 . S
C194 C190 1.377 . S
C194 C193 1.394 . S
H195 C202 0.929 . S
H196 C205 0.930 . S
H197 C207 0.929 . S
H198 C199 0.969 . S
C199 H198 0.969 . S
C199 O200 1.550 . S
C199 H201 0.973 . S
O200 C199 1.550 . S
O200 C206 1.412 . S
H201 C199 0.973 . S
C202 H195 0.929 . S
C202 C203 1.400 . S
C202 C204 1.364 . S
C203 C202 1.400 . S
C203 C207 1.377 . S
C204 C202 1.364 . S
C204 C205 1.374 1_554 S
C205 H196 0.930 . S
C205 C204 1.374 1_556 S
C205 C206 1.383 . S
C206 O200 1.412 . S
C206 C205 1.383 . S
C206 C207 1.394 1_556 S
C207 H197 0.929 . S
C207 C203 1.377 . S
C207 C206 1.394 1_554 S
Mg208 O209 2.030 . S
Mg208 O215 1.986 1_554 S
Mg208 O217 2.114 . S
Mg208 O218 2.251 . S
Mg208 O221 2.010 . S
O209 Mg208 2.030 . S
O209 C212 1.248 1_554 S
O210 Mg211 2.028 . S
O210 C212 1.248 . S
Mg211 O210 2.028 . S
Mg211 O216 2.032 . S
Mg211 O218 2.079 1_556 S
C212 O209 1.248 1_556 S
C212 O210 1.248 . S
C213 O214 1.264 . S
C213 O221 1.249 . S
O214 C213 1.264 . S
O215 Mg208 1.986 1_556 S
O215 C219 1.246 . S
O216 Mg211 2.032 . S
O216 C219 1.259 . S
O217 Mg208 2.114 . S
O217 C220 1.252 . S
O218 Mg208 2.251 . S
O218 Mg211 2.079 1_554 S
O218 C220 1.273 . S
C219 O215 1.246 . S
C219 O216 1.259 . S
C220 O217 1.252 . S
C220 O218 1.273 . S
O221 Mg208 2.010 . S
O221 C213 1.249 . S
Mg222 O223 2.028 . S
Mg222 O229 1.986 . S
Mg222 O231 2.114 . S
Mg222 O232 2.251 . S
Mg222 O235 2.010 . S
O223 Mg222 2.028 . S
O223 C226 1.250 . S
O224 Mg225 2.028 . S
O224 C226 1.248 . S
Mg225 O224 2.028 . S
Mg225 O230 2.032 . S
Mg225 O232 2.079 . S
C226 O223 1.250 . S
C226 O224 1.248 . S
C227 O228 1.264 . S
C227 O235 1.249 . S
O228 C227 1.264 . S
O229 Mg222 1.986 . S
O229 C233 1.246 . S
O230 Mg225 2.032 . S
O230 C233 1.259 . S
O231 Mg222 2.114 . S
O231 C234 1.252 . S
O232 Mg222 2.251 . S
O232 Mg225 2.079 . S
O232 C234 1.273 . S
C233 O229 1.246 . S
C233 O230 1.259 . S
C234 O231 1.252 . S
C234 O232 1.273 . S
O235 Mg222 2.010 . S
O235 C227 1.249 . S
Mg236 O237 2.028 . S
Mg236 O243 1.986 . S
Mg236 O245 2.114 . S
Mg236 O246 2.251 . S
Mg236 O249 2.010 . S
O237 Mg236 2.028 . S
O237 C240 1.250 . S
O238 Mg239 2.028 . S
O238 C240 1.248 . S
Mg239 O238 2.028 . S
Mg239 O244 2.032 1_554 S
Mg239 O246 2.079 . S
C240 O237 1.250 . S
C240 O238 1.248 . S
C241 O242 1.264 . S
C241 O249 1.249 . S
O242 C241 1.264 . S
O243 Mg236 1.986 . S
O243 C247 1.246 1_554 S
O244 Mg239 2.032 1_556 S
O244 C247 1.259 . S
O245 Mg236 2.114 . S
O245 C248 1.252 . S
O246 Mg236 2.251 . S
O246 Mg239 2.079 . S
O246 C248 1.273 . S
C247 O243 1.246 1_556 S
C247 O244 1.259 . S
C248 O245 1.252 . S
C248 O246 1.273 . S
O249 Mg236 2.010 . S
O249 C241 1.249 . S
Mg250 O251 2.028 . S
Mg250 O257 1.986 . S
Mg250 O259 2.114 . S
Mg250 O260 2.251 . S
Mg250 O263 2.010 . S
O251 Mg250 2.028 . S
O251 C254 1.250 1_545 S
O252 Mg253 2.028 . S
O252 C254 1.248 . S
Mg253 O252 2.028 . S
Mg253 O258 2.032 . S
Mg253 O260 2.079 1_565 S
C254 O251 1.250 1_565 S
C254 O252 1.248 . S
C255 O256 1.264 . S
C255 O263 1.249 . S
O256 C255 1.264 . S
O257 Mg250 1.986 . S
O257 C261 1.246 . S
O258 Mg253 2.032 . S
O258 C261 1.259 1_565 S
O259 Mg250 2.114 . S
O259 C262 1.252 . S
O260 Mg250 2.251 . S
O260 Mg253 2.079 1_545 S
O260 C262 1.273 . S
C261 O257 1.246 . S
C261 O258 1.259 1_545 S
C262 O259 1.252 . S
C262 O260 1.273 . S
O263 Mg250 2.010 . S
O263 C255 1.249 . S
Mg264 O265 2.028 . S
Mg264 O271 1.986 . S
Mg264 O273 2.114 . S
Mg264 O274 2.251 . S
Mg264 O277 2.010 . S
O265 Mg264 2.028 . S
O265 C268 1.250 . S
O266 Mg267 2.028 . S
O266 C268 1.248 . S
Mg267 O266 2.028 . S
Mg267 O272 2.032 . S
Mg267 O274 2.079 . S
C268 O265 1.250 . S
C268 O266 1.248 . S
C269 O270 1.264 . S
C269 O277 1.249 . S
O270 C269 1.264 . S
O271 Mg264 1.986 . S
O271 C275 1.246 . S
O272 Mg267 2.032 . S
O272 C275 1.259 . S
O273 Mg264 2.114 . S
O273 C276 1.252 . S
O274 Mg264 2.251 . S
O274 Mg267 2.079 . S
O274 C276 1.273 . S
C275 O271 1.246 . S
C275 O272 1.259 . S
C276 O273 1.252 . S
C276 O274 1.273 . S
O277 Mg264 2.010 . S
O277 C269 1.249 . S
Mg278 O279 2.028 . S
Mg278 O285 1.986 . S
Mg278 O287 2.114 . S
Mg278 O288 2.251 . S
Mg278 O291 2.010 . S
O279 Mg278 2.028 . S
O279 C282 1.250 . S
O280 Mg281 2.028 . S
O280 C282 1.248 . S
Mg281 O280 2.028 . S
Mg281 O286 2.032 . S
Mg281 O288 2.079 . S
C282 O279 1.250 . S
C282 O280 1.248 . S
C283 O284 1.264 . S
C283 O291 1.249 . S
O284 C283 1.264 . S
O285 Mg278 1.986 . S
O285 C289 1.246 . S
O286 Mg281 2.032 . S
O286 C289 1.259 . S
O287 Mg278 2.114 . S
O287 C290 1.252 . S
O288 Mg278 2.251 . S
O288 Mg281 2.079 . S
O288 C290 1.273 . S
C289 O285 1.246 . S
C289 O286 1.259 . S
C290 O287 1.252 . S
C290 O288 1.273 . S
O291 Mg278 2.010 . S
O291 C283 1.249 . S
Mg292 O293 2.028 . S
Mg292 O299 1.986 . S
Mg292 O301 2.114 . S
Mg292 O302 2.251 . S
Mg292 O305 2.010 . S
O293 Mg292 2.028 . S
O293 C296 1.250 . S
O294 Mg295 2.028 . S
O294 C296 1.248 . S
Mg295 O294 2.028 . S
Mg295 O300 2.032 . S
Mg295 O302 2.079 . S
C296 O293 1.250 . S
C296 O294 1.248 . S
C297 O298 1.264 . S
C297 O305 1.249 . S
O298 C297 1.264 . S
O299 Mg292 1.986 . S
O299 C303 1.246 . S
O300 Mg295 2.032 . S
O300 C303 1.259 . S
O301 Mg292 2.114 . S
O301 C304 1.252 . S
O302 Mg292 2.251 . S
O302 Mg295 2.079 . S
O302 C304 1.273 . S
C303 O299 1.246 . S
C303 O300 1.259 . S
C304 O301 1.252 . S
C304 O302 1.273 . S
O305 Mg292 2.010 . S
O305 C297 1.249 . S
Mg306 O307 2.028 1_545 S
Mg306 O313 1.986 1_545 S
Mg306 O315 2.114 . S
Mg306 O316 2.251 . S
Mg306 O319 2.010 . S
O307 Mg306 2.028 1_565 S
O307 C310 1.250 . S
O308 Mg309 2.028 . S
O308 C310 1.248 . S
Mg309 O308 2.028 . S
Mg309 O314 2.032 . S
Mg309 O316 2.079 1_565 S
C310 O307 1.250 . S
C310 O308 1.248 . S
C311 O312 1.264 . S
C311 O319 1.249 . S
O312 C311 1.264 . S
O313 Mg306 1.986 1_565 S
O313 C317 1.246 . S
O314 Mg309 2.032 . S
O314 C317 1.259 . S
O315 Mg306 2.114 . S
O315 C318 1.252 . S
O316 Mg306 2.251 . S
O316 Mg309 2.079 1_545 S
O316 C318 1.273 . S
C317 O313 1.246 . S
C317 O314 1.259 . S
C318 O315 1.252 . S
C318 O316 1.273 . S
O319 Mg306 2.010 . S
O319 C311 1.249 . S
Mg320 O321 2.028 1_455 S
Mg320 O327 1.986 . S
Mg320 O329 2.114 . S
Mg320 O330 2.251 1_455 S
Mg320 O333 2.010 . S
O321 Mg320 2.028 1_655 S
O321 C324 1.250 . S
O322 Mg323 2.028 . S
O322 C324 1.248 . S
Mg323 O322 2.028 . S
Mg323 O328 2.032 . S
Mg323 O330 2.079 . S
C324 O321 1.250 . S
C324 O322 1.248 . S
C325 O326 1.264 . S
C325 O333 1.249 . S
O326 C325 1.264 . S
O327 Mg320 1.986 . S
O327 C331 1.246 1_455 S
O328 Mg323 2.032 . S
O328 C331 1.259 . S
O329 Mg320 2.114 . S
O329 C332 1.252 . S
O330 Mg320 2.251 1_655 S
O330 Mg323 2.079 . S
O330 C332 1.273 1_655 S
C331 O327 1.246 1_655 S
C331 O328 1.259 . S
C332 O329 1.252 . S
C332 O330 1.273 1_455 S
O333 Mg320 2.010 . S
O333 C325 1.249 . S
Mg334 O335 2.028 . S
Mg334 O341 1.986 . S
Mg334 O343 2.114 . S
Mg334 O344 2.251 . S
Mg334 O347 2.010 . S
O335 Mg334 2.028 . S
O335 C338 1.250 . S
O336 Mg337 2.028 . S
O336 C338 1.248 . S
Mg337 O336 2.028 . S
Mg337 O342 2.032 . S
Mg337 O344 2.079 . S
C338 O335 1.250 . S
C338 O336 1.248 . S
C339 O340 1.264 . S
C339 O347 1.249 . S
O340 C339 1.264 . S
O341 Mg334 1.986 . S
O341 C345 1.246 . S
O342 Mg337 2.032 . S
O342 C345 1.259 . S
O343 Mg334 2.114 . S
O343 C346 1.252 . S
O344 Mg334 2.251 . S
O344 Mg337 2.079 . S
O344 C346 1.273 . S
C345 O341 1.246 . S
C345 O342 1.259 . S
C346 O343 1.252 . S
C346 O344 1.273 . S
O347 Mg334 2.010 . S
O347 C339 1.249 . S
Mg348 O349 2.028 1_655 S
Mg348 O355 1.986 1_655 S
Mg348 O357 2.114 . S
Mg348 O358 2.251 1_655 S
Mg348 O361 2.010 . S
O349 Mg348 2.028 1_455 S
O349 C352 1.250 . S
O350 Mg351 2.028 . S
O350 C352 1.248 . S
Mg351 O350 2.028 . S
Mg351 O356 2.032 . S
Mg351 O358 2.079 . S
C352 O349 1.250 . S
C352 O350 1.248 . S
C353 O354 1.264 . S
C353 O361 1.249 . S
O354 C353 1.264 . S
O355 Mg348 1.986 1_455 S
O355 C359 1.246 . S
O356 Mg351 2.032 . S
O356 C359 1.259 . S
O357 Mg348 2.114 . S
O357 C360 1.252 . S
O358 Mg348 2.251 1_455 S
O358 Mg351 2.079 . S
O358 C360 1.273 1_455 S
C359 O355 1.246 . S
C359 O356 1.259 . S
C360 O357 1.252 . S
C360 O358 1.273 1_655 S
O361 Mg348 2.010 . S
O361 C353 1.249 . S
Mg362 O363 2.028 . S
Mg362 O369 1.986 . S
Mg362 O371 2.114 . S
Mg362 O372 2.251 . S
Mg362 O375 2.010 . S
O363 Mg362 2.028 . S
O363 C366 1.250 . S
O364 Mg365 2.028 . S
O364 C366 1.248 . S
Mg365 O364 2.028 . S
Mg365 O370 2.032 . S
Mg365 O372 2.079 . S
C366 O363 1.250 . S
C366 O364 1.248 . S
C367 O368 1.264 . S
C367 O375 1.249 . S
O368 C367 1.264 . S
O369 Mg362 1.986 . S
O369 C373 1.246 . S
O370 Mg365 2.032 . S
O370 C373 1.259 . S
O371 Mg362 2.114 . S
O371 C374 1.252 . S
O372 Mg362 2.251 . S
O372 Mg365 2.079 . S
O372 C374 1.273 . S
C373 O369 1.246 . S
C373 O370 1.259 . S
C374 O371 1.252 . S
C374 O372 1.273 . S
O375 Mg362 2.010 . S
O375 C367 1.249 . S
C376 C377 1.369 . S
C376 C378 1.419 . S
C376 H380 0.930 . S
C377 C376 1.369 . S
C377 C386 1.429 . S
C378 C376 1.419 . S
C378 C379 1.363 . S
C378 H381 0.929 . S
C379 C378 1.363 . S
C379 C385 1.428 . S
H380 C376 0.930 . S
H381 C378 0.929 . S
S382 N383 1.613 . S
S382 N384 1.610 . S
N383 S382 1.613 . S
N383 C386 1.350 . S
N384 S382 1.610 . S
N384 C385 1.351 . S
C385 C379 1.428 . S
C385 N384 1.351 . S
C385 C386 1.434 . S
C386 C377 1.429 . S
C386 N383 1.350 . S
C386 C385 1.434 . S
C387 C388 1.369 . S
C387 C389 1.419 . S
C387 H391 0.930 . S
C388 C387 1.369 . S
C388 C397 1.429 . S
C389 C387 1.419 . S
C389 C390 1.363 . S
C389 H392 0.929 . S
C390 C389 1.363 . S
C390 C396 1.428 . S
H391 C387 0.930 . S
H392 C389 0.929 . S
S393 N394 1.613 . S
S393 N395 1.610 . S
N394 S393 1.613 . S
N394 C397 1.350 . S
N395 S393 1.610 . S
N395 C396 1.351 . S
C396 C390 1.428 . S
C396 N395 1.351 . S
C396 C397 1.434 . S
C397 C388 1.429 . S
C397 N394 1.350 . S
C397 C396 1.434 . S
C398 C399 1.369 . S
C398 C400 1.419 . S
C398 H402 0.930 . S
C399 C398 1.369 . S
C399 C408 1.429 . S
C400 C398 1.419 . S
C400 C401 1.363 . S
C400 H403 0.929 . S
C401 C400 1.363 . S
C401 C407 1.428 . S
H402 C398 0.930 . S
H403 C400 0.929 . S
S404 N405 1.613 . S
S404 N406 1.610 . S
N405 S404 1.613 . S
N405 C408 1.350 . S
N406 S404 1.610 . S
N406 C407 1.351 . S
C407 C401 1.428 . S
C407 N406 1.351 . S
C407 C408 1.434 . S
C408 C399 1.429 . S
C408 N405 1.350 . S
C408 C407 1.434 . S
C409 C410 1.369 1_545 S
C409 C411 1.419 . S
C409 H413 0.930 . S
C410 C409 1.369 1_565 S
C410 C419 1.429 1_655 S
C411 C409 1.419 . S
C411 C412 1.363 . S
C411 H414 0.929 . S
C412 C411 1.363 . S
C412 C418 1.428 . S
H413 C409 0.930 . S
H414 C411 0.929 . S
S415 N416 1.613 . S
S415 N417 1.610 1_465 S
N416 S415 1.613 . S
N416 C419 1.350 . S
N417 S415 1.610 1_645 S
N417 C418 1.351 . S
C418 C412 1.428 . S
C418 N417 1.351 . S
C418 C419 1.434 1_645 S
C419 C410 1.429 1_455 S
C419 N416 1.350 . S
C419 C418 1.434 1_465 S
C420 C421 1.369 . S
C420 C422 1.419 . S
C420 H424 0.930 . S
C421 C420 1.369 . S
C421 C430 1.429 . S
C422 C420 1.419 . S
C422 C423 1.363 . S
C422 H425 0.929 . S
C423 C422 1.363 . S
C423 C429 1.428 . S
H424 C420 0.930 . S
H425 C422 0.929 . S
S426 N427 1.613 . S
S426 N428 1.610 . S
N427 S426 1.613 . S
N427 C430 1.350 . S
N428 S426 1.610 . S
N428 C429 1.351 . S
C429 C423 1.428 . S
C429 N428 1.351 . S
C429 C430 1.434 . S
C430 C421 1.429 . S
C430 N427 1.350 . S
C430 C429 1.434 . S
C431 C432 1.369 . S
C431 C433 1.419 . S
C431 H435 0.930 . S
C432 C431 1.369 . S
C432 C441 1.429 . S
C433 C431 1.419 . S
C433 C434 1.363 . S
C433 H436 0.929 . S
C434 C433 1.363 . S
C434 C440 1.428 . S
H435 C431 0.930 . S
H436 C433 0.929 . S
S437 N438 1.613 . S
S437 N439 1.610 . S
N438 S437 1.613 . S
N438 C441 1.350 . S
N439 S437 1.610 . S
N439 C440 1.351 . S
C440 C434 1.428 . S
C440 N439 1.351 . S
C440 C441 1.434 . S
C441 C432 1.429 . S
C441 N438 1.350 . S
C441 C440 1.434 . S
C442 C443 1.369 . S
C442 C444 1.419 . S
C442 H446 0.930 . S
C443 C442 1.369 . S
C443 C452 1.429 . S
C444 C442 1.419 . S
C444 C445 1.363 . S
C444 H447 0.929 . S
C445 C444 1.363 . S
C445 C451 1.428 . S
H446 C442 0.930 . S
H447 C444 0.929 . S
S448 N449 1.613 . S
S448 N450 1.610 . S
N449 S448 1.613 . S
N449 C452 1.350 . S
N450 S448 1.610 . S
N450 C451 1.351 . S
C451 C445 1.428 . S
C451 N450 1.351 . S
C451 C452 1.434 . S
C452 C443 1.429 . S
C452 N449 1.350 . S
C452 C451 1.434 . S
C453 C454 1.369 . S
C453 C455 1.419 . S
C453 H457 0.930 . S
C454 C453 1.369 . S
C454 C463 1.429 . S
C455 C453 1.419 . S
C455 C456 1.363 . S
C455 H458 0.929 . S
C456 C455 1.363 . S
C456 C462 1.428 . S
H457 C453 0.930 . S
H458 C455 0.929 . S
S459 N460 1.614 . S
S459 N461 1.610 . S
N460 S459 1.614 . S
N460 C463 1.349 1_545 S
N461 S459 1.610 . S
N461 C462 1.351 1_545 S
C462 C456 1.428 . S
C462 N461 1.351 1_565 S
C462 C463 1.434 . S
C463 C454 1.429 . S
C463 N460 1.349 1_565 S
C463 C462 1.434 . S
C464 C465 1.369 . S
C464 C466 1.419 . S
C464 H468 0.930 . S
C465 C464 1.369 . S
C465 C474 1.429 . S
C466 C464 1.419 . S
C466 C467 1.363 . S
C466 H469 0.929 . S
C467 C466 1.363 . S
C467 C473 1.428 . S
H468 C464 0.930 . S
H469 C466 0.929 . S
S470 N471 1.613 . S
S470 N472 1.610 . S
N471 S470 1.613 . S
N471 C474 1.350 . S
N472 S470 1.610 . S
N472 C473 1.351 . S
C473 C467 1.428 . S
C473 N472 1.351 . S
C473 C474 1.434 . S
C474 C465 1.429 . S
C474 N471 1.350 . S
C474 C473 1.434 . S
C475 C476 1.369 . S
C475 C477 1.419 . S
C475 H479 0.930 . S
C476 C475 1.369 . S
C476 C485 1.429 . S
C477 C475 1.419 . S
C477 C478 1.363 . S
C477 H480 0.929 . S
C478 C477 1.363 . S
C478 C484 1.428 . S
H479 C475 0.930 . S
H480 C477 0.929 . S
S481 N482 1.613 . S
S481 N483 1.610 . S
N482 S481 1.613 . S
N482 C485 1.350 . S
N483 S481 1.610 . S
N483 C484 1.351 . S
C484 C478 1.428 . S
C484 N483 1.351 . S
C484 C485 1.434 . S
C485 C476 1.429 . S
C485 N482 1.350 . S
C485 C484 1.434 . S
C486 C487 1.369 . S
C486 C488 1.419 . S
C486 H490 0.930 . S
C487 C486 1.369 . S
C487 C496 1.429 . S
C488 C486 1.419 . S
C488 C489 1.363 . S
C488 H491 0.929 . S
C489 C488 1.363 . S
C489 C495 1.428 . S
H490 C486 0.930 . S
H491 C488 0.929 . S
S492 N493 1.613 . S
S492 N494 1.610 . S
N493 S492 1.613 . S
N493 C496 1.350 . S
N494 S492 1.610 . S
N494 C495 1.351 . S
C495 C489 1.428 . S
C495 N494 1.351 . S
C495 C496 1.434 . S
C496 C487 1.429 . S
C496 N493 1.350 . S
C496 C495 1.434 . S
C497 C498 1.369 . S
C497 C499 1.419 . S
C497 H501 0.930 . S
C498 C497 1.369 . S
C498 C507 1.429 . S
C499 C497 1.419 . S
C499 C500 1.363 . S
C499 H502 0.929 . S
C500 C499 1.363 . S
C500 C506 1.428 . S
H501 C497 0.930 . S
H502 C499 0.929 . S
S503 N504 1.613 . S
S503 N505 1.610 . S
N504 S503 1.613 . S
N504 C507 1.350 . S
N505 S503 1.610 . S
N505 C506 1.351 . S
C506 C500 1.428 . S
C506 N505 1.351 . S
C506 C507 1.434 . S
C507 C498 1.429 . S
C507 N504 1.350 . S
C507 C506 1.434 . S
C508 C509 1.369 . S
C508 C510 1.419 . S
C508 H512 0.930 . S
C509 C508 1.369 . S
C509 C518 1.429 . S
C510 C508 1.419 . S
C510 C511 1.363 . S
C510 H513 0.929 . S
C511 C510 1.363 . S
C511 C517 1.428 . S
H512 C508 0.930 . S
H513 C510 0.929 . S
S514 N515 1.613 . S
S514 N516 1.610 . S
N515 S514 1.613 . S
N515 C518 1.350 . S
N516 S514 1.610 . S
N516 C517 1.351 . S
C517 C511 1.428 . S
C517 N516 1.351 . S
C517 C518 1.434 . S
C518 C509 1.429 . S
C518 N515 1.350 . S
C518 C517 1.434 . S
C519 C520 1.369 . S
C519 C521 1.419 . S
C519 H523 0.930 . S
C520 C519 1.369 . S
C520 C529 1.429 . S
C521 C519 1.419 . S
C521 C522 1.363 . S
C521 H524 0.929 . S
C522 C521 1.363 . S
C522 C528 1.428 . S
H523 C519 0.930 . S
H524 C521 0.929 . S
S525 N526 1.613 . S
S525 N527 1.610 . S
N526 S525 1.613 . S
N526 C529 1.350 . S
N527 S525 1.610 . S
N527 C528 1.351 . S
C528 C522 1.428 . S
C528 N527 1.351 . S
C528 C529 1.434 . S
C529 C520 1.429 . S
C529 N526 1.350 . S
C529 C528 1.434 . S
C530 C531 1.369 . S
C530 C532 1.419 . S
C530 H534 0.930 . S
C531 C530 1.369 . S
C531 C540 1.429 . S
C532 C530 1.419 . S
C532 C533 1.363 . S
C532 H535 0.929 . S
C533 C532 1.363 . S
C533 C539 1.428 . S
H534 C530 0.930 . S
H535 C532 0.929 . S
S536 N537 1.613 . S
S536 N538 1.610 . S
N537 S536 1.613 . S
N537 C540 1.350 . S
N538 S536 1.610 . S
N538 C539 1.351 . S
C539 C533 1.428 . S
C539 N538 1.351 . S
C539 C540 1.434 . S
C540 C531 1.429 . S
C540 N537 1.350 . S
C540 C539 1.434 . S
C541 C542 1.369 . S
C541 C543 1.419 . S
C541 H545 0.930 . S
C542 C541 1.369 . S
C542 C551 1.429 1_655 S
C543 C541 1.419 . S
C543 C544 1.363 . S
C543 H546 0.929 . S
C544 C543 1.363 . S
C544 C550 1.428 1_655 S
H545 C541 0.930 . S
H546 C543 0.929 . S
S547 N548 1.613 . S
S547 N549 1.610 . S
N548 S547 1.613 . S
N548 C551 1.350 . S
N549 S547 1.610 . S
N549 C550 1.351 . S
C550 C544 1.428 1_455 S
C550 N549 1.351 . S
C550 C551 1.434 . S
C551 C542 1.429 1_455 S
C551 N548 1.350 . S
C551 C550 1.434 . S
C552 C553 1.369 . S
C552 C554 1.419 . S
C552 H556 0.930 . S
C553 C552 1.369 . S
C553 C562 1.429 . S
C554 C552 1.419 . S
C554 C555 1.363 . S
C554 H557 0.929 . S
C555 C554 1.363 . S
C555 C561 1.428 . S
H556 C552 0.930 . S
H557 C554 0.929 . S
S558 N559 1.613 . S
S558 N560 1.610 . S
N559 S558 1.613 . S
N559 C562 1.350 . S
N560 S558 1.610 . S
N560 C561 1.351 . S
C561 C555 1.428 . S
C561 N560 1.351 . S
C561 C562 1.434 . S
C562 C553 1.429 . S
C562 N559 1.350 . S
C562 C561 1.434 . S
C563 C564 1.369 . S
C563 C565 1.419 . S
C563 H567 0.930 . S
C564 C563 1.369 . S
C564 C573 1.429 . S
C565 C563 1.419 . S
C565 C566 1.363 . S
C565 H568 0.929 . S
C566 C565 1.363 . S
C566 C572 1.428 . S
H567 C563 0.930 . S
H568 C565 0.929 . S
S569 N570 1.613 . S
S569 N571 1.610 . S
N570 S569 1.613 . S
N570 C573 1.350 . S
N571 S569 1.610 . S
N571 C572 1.351 . S
C572 C566 1.428 . S
C572 N571 1.351 . S
C572 C573 1.434 . S
C573 C564 1.429 . S
C573 N570 1.350 . S
C573 C572 1.434 . S
C574 C575 1.369 . S
C574 C576 1.419 1_545 S
C574 H578 0.930 . S
C575 C574 1.369 . S
C575 C584 1.429 1_544 S
C576 C574 1.419 1_565 S
C576 C577 1.371 . S
C576 H579 0.929 . S
C577 C576 1.371 . S
C577 C583 1.422 1_554 S
H578 C574 0.930 . S
H579 C576 0.929 . S
S580 N581 1.613 . S
S580 N582 1.610 . S
N581 S580 1.613 . S
N581 C584 1.350 . S
N582 S580 1.610 . S
N582 C583 1.351 . S
C583 C577 1.422 1_556 S
C583 N582 1.351 . S
C583 C584 1.434 . S
C584 C575 1.429 1_566 S
C584 N581 1.350 . S
C584 C583 1.434 . S
C585 C586 1.369 . S
C585 C587 1.419 . S
C585 H589 0.930 . S
C586 C585 1.369 . S
C586 C595 1.429 . S
C587 C585 1.419 . S
C587 C588 1.363 . S
C587 H590 0.929 . S
C588 C587 1.363 . S
C588 C594 1.428 . S
H589 C585 0.930 . S
H590 C587 0.929 . S
S591 N592 1.613 . S
S591 N593 1.610 . S
N592 S591 1.613 . S
N592 C595 1.350 . S
N593 S591 1.610 . S
N593 C594 1.351 . S
C594 C588 1.428 . S
C594 N593 1.351 . S
C594 C595 1.434 . S
C595 C586 1.429 . S
C595 N592 1.350 . S
C595 C594 1.434 . S
C596 C597 1.369 . S
C596 C598 1.419 . S
C596 H600 0.930 . S
C597 C596 1.369 . S
C597 C606 1.429 . S
C598 C596 1.419 . S
C598 C599 1.363 . S
C598 H601 0.929 . S
C599 C598 1.363 . S
C599 C605 1.428 . S
H600 C596 0.930 . S
H601 C598 0.929 . S
S602 N603 1.613 . S
S602 N604 1.610 . S
N603 S602 1.613 . S
N603 C606 1.350 . S
N604 S602 1.610 . S
N604 C605 1.351 . S
C605 C599 1.428 . S
C605 N604 1.351 . S
C605 C606 1.434 . S
C606 C597 1.429 . S
C606 N603 1.350 . S
C606 C605 1.434 . S
C607 C608 1.369 . S
C607 C609 1.419 . S
C607 H611 0.930 . S
C608 C607 1.369 . S
C608 C617 1.429 . S
C609 C607 1.419 . S
C609 C610 1.363 . S
C609 H612 0.929 . S
C610 C609 1.363 . S
C610 C616 1.428 . S
H611 C607 0.930 . S
H612 C609 0.929 . S
S613 N614 1.613 . S
S613 N615 1.610 . S
N614 S613 1.613 . S
N614 C617 1.350 . S
N615 S613 1.610 . S
N615 C616 1.351 . S
C616 C610 1.428 . S
C616 N615 1.351 . S
C616 C617 1.434 . S
C617 C608 1.429 . S
C617 N614 1.350 . S
C617 C616 1.434 . S
C618 C619 1.369 . S
C618 C620 1.419 . S
C618 H622 0.930 . S
C619 C618 1.369 . S
C619 C628 1.425 1_545 S
C620 C618 1.419 . S
C620 C621 1.363 . S
C620 H623 0.929 . S
C621 C620 1.363 . S
C621 C627 1.428 . S
H622 C618 0.930 . S
H623 C620 0.929 . S
S624 N625 1.613 . S
S624 N626 1.610 1_565 S
N625 S624 1.613 . S
N625 C628 1.366 . S
N626 S624 1.610 1_545 S
N626 C627 1.351 . S
C627 C621 1.428 . S
C627 N626 1.351 . S
C627 C628 1.422 1_545 S
C628 C619 1.425 1_565 S
C628 N625 1.366 . S
C628 C627 1.422 1_565 S
C629 C630 1.369 . S
C629 C631 1.419 . S
C629 H633 0.930 . S
C630 C629 1.369 . S
C630 C639 1.429 . S
C631 C629 1.419 . S
C631 C632 1.363 . S
C631 H634 0.929 . S
C632 C631 1.363 . S
C632 C638 1.428 . S
H633 C629 0.930 . S
H634 C631 0.929 . S
S635 N636 1.613 . S
S635 N637 1.610 . S
N636 S635 1.613 . S
N636 C639 1.350 . S
N637 S635 1.610 . S
N637 C638 1.351 . S
C638 C632 1.428 . S
C638 N637 1.351 . S
C638 C639 1.434 . S
C639 C630 1.429 . S
C639 N636 1.350 . S
C639 C638 1.434 . S
C640 C641 1.369 . S
C640 C642 1.419 . S
C640 H644 0.930 . S
C641 C640 1.369 . S
C641 C650 1.429 . S
C642 C640 1.419 . S
C642 C643 1.363 . S
C642 H645 0.929 . S
C643 C642 1.363 . S
C643 C649 1.428 . S
H644 C640 0.930 . S
H645 C642 0.929 . S
S646 N647 1.613 . S
S646 N648 1.610 . S
N647 S646 1.613 . S
N647 C650 1.350 . S
N648 S646 1.610 . S
N648 C649 1.351 . S
C649 C643 1.428 . S
C649 N648 1.351 . S
C649 C650 1.434 . S
C650 C641 1.429 . S
C650 N647 1.350 . S
C650 C649 1.434 . S
C651 C652 1.369 . S
C651 C653 1.419 . S
C651 H655 0.930 . S
C652 C651 1.369 . S
C652 C661 1.429 . S
C653 C651 1.419 . S
C653 C654 1.363 . S
C653 H656 0.929 . S
C654 C653 1.363 . S
C654 C660 1.431 . S
H655 C651 0.930 . S
H656 C653 0.929 . S
S657 N658 1.594 1_565 S
S657 N659 1.610 . S
N658 S657 1.594 1_545 S
N658 C661 1.357 . S
N659 S657 1.610 . S
N659 C660 1.342 1_565 S
C660 C654 1.431 . S
C660 N659 1.342 1_545 S
C660 C661 1.441 . S
C661 C652 1.429 . S
C661 N658 1.357 . S
C661 C660 1.441 . S
C662 C663 1.369 . S
C662 C664 1.419 . S
C662 H666 0.930 . S
C663 C662 1.369 . S
C663 C672 1.429 . S
C664 C662 1.419 . S
C664 C665 1.363 . S
C664 H667 0.929 . S
C665 C664 1.363 . S
C665 C671 1.428 . S
H666 C662 0.930 . S
H667 C664 0.929 . S
S668 N669 1.613 . S
S668 N670 1.610 . S
N669 S668 1.613 . S
N669 C672 1.350 . S
N670 S668 1.610 . S
N670 C671 1.351 . S
C671 C665 1.428 . S
C671 N670 1.351 . S
C671 C672 1.434 . S
C672 C663 1.429 . S
C672 N669 1.350 . S
C672 C671 1.434 . S
C673 C674 1.369 . S
C673 C675 1.419 . S
C673 H677 0.930 . S
C674 C673 1.369 . S
C674 C683 1.429 . S
C675 C673 1.419 . S
C675 C676 1.363 . S
C675 H678 0.929 . S
C676 C675 1.363 . S
C676 C682 1.428 . S
H677 C673 0.930 . S
H678 C675 0.929 . S
S679 N680 1.613 . S
S679 N681 1.610 . S
N680 S679 1.613 . S
N680 C683 1.350 . S
N681 S679 1.610 . S
N681 C682 1.351 . S
C682 C676 1.428 . S
C682 N681 1.351 . S
C682 C683 1.434 . S
C683 C674 1.429 . S
C683 N680 1.350 . S
C683 C682 1.434 . S
C684 C685 1.369 . S
C684 C686 1.419 . S
C684 H688 0.930 . S
C685 C684 1.369 . S
C685 C694 1.429 . S
C686 C684 1.419 . S
C686 C687 1.363 . S
C686 H689 0.929 . S
C687 C686 1.363 . S
C687 C693 1.428 . S
H688 C684 0.930 . S
H689 C686 0.929 . S
S690 N691 1.613 . S
S690 N692 1.610 . S
N691 S690 1.613 . S
N691 C694 1.350 . S
N692 S690 1.610 . S
N692 C693 1.351 . S
C693 C687 1.428 . S
C693 N692 1.351 . S
C693 C694 1.434 . S
C694 C685 1.429 . S
C694 N691 1.350 . S
C694 C693 1.434 . S
C695 C696 1.369 . S
C695 C697 1.419 . S
C695 H699 0.930 . S
C696 C695 1.369 . S
C696 C705 1.429 . S
C697 C695 1.419 . S
C697 C698 1.363 . S
C697 H700 0.929 . S
C698 C697 1.363 . S
C698 C704 1.428 . S
H699 C695 0.930 . S
H700 C697 0.929 . S
S701 N702 1.613 . S
S701 N703 1.610 1_455 S
N702 S701 1.613 . S
N702 C705 1.350 1_455 S
N703 S701 1.610 1_655 S
N703 C704 1.351 . S
C704 C698 1.428 . S
C704 N703 1.351 . S
C704 C705 1.434 . S
C705 C696 1.429 . S
C705 N702 1.350 1_655 S
C705 C704 1.434 . S
C706 C707 1.369 . S
C706 C708 1.419 . S
C706 H710 0.930 . S
C707 C706 1.369 . S
C707 C716 1.429 . S
C708 C706 1.419 . S
C708 C709 1.363 . S
C708 H711 0.929 . S
C709 C708 1.363 . S
C709 C715 1.428 . S
H710 C706 0.930 . S
H711 C708 0.929 . S
S712 N713 1.613 . S
S712 N714 1.610 . S
N713 S712 1.613 . S
N713 C716 1.350 . S
N714 S712 1.610 . S
N714 C715 1.351 . S
C715 C709 1.428 . S
C715 N714 1.351 . S
C715 C716 1.434 . S
C716 C707 1.429 . S
C716 N713 1.350 . S
C716 C715 1.434 . S
C717 C718 1.369 . S
C717 C719 1.419 . S
C717 H721 0.930 . S
C718 C717 1.369 . S
C718 C727 1.429 . S
C719 C717 1.419 . S
C719 C720 1.363 . S
C719 H722 0.929 . S
C720 C719 1.363 . S
C720 C726 1.428 . S
H721 C717 0.930 . S
H722 C719 0.929 . S
S723 N724 1.613 . S
S723 N725 1.610 1_655 S
N724 S723 1.613 . S
N724 C727 1.350 1_655 S
N725 S723 1.610 1_455 S
N725 C726 1.351 . S
C726 C720 1.428 . S
C726 N725 1.351 . S
C726 C727 1.434 . S
C727 C718 1.429 . S
C727 N724 1.350 1_455 S
C727 C726 1.434 . S
C728 C729 1.369 . S
C728 C730 1.419 . S
C728 H732 0.930 . S
C729 C728 1.369 . S
C729 C738 1.429 . S
C730 C728 1.419 . S
C730 C731 1.363 . S
C730 H733 0.929 . S
C731 C730 1.363 . S
C731 C737 1.428 . S
H732 C728 0.930 . S
H733 C730 0.929 . S
S734 N735 1.613 . S
S734 N736 1.610 . S
N735 S734 1.613 . S
N735 C738 1.350 . S
N736 S734 1.610 . S
N736 C737 1.351 . S
C737 C731 1.428 . S
C737 N736 1.351 . S
C737 C738 1.434 . S
C738 C729 1.429 . S
C738 N735 1.350 . S
C738 C737 1.434 . S
C739 C740 1.369 1_556 S
C739 C741 1.419 . S
C739 H743 0.930 . S
C740 C739 1.369 1_554 S
C740 C749 1.429 1_655 S
C741 C739 1.419 . S
C741 C742 1.354 1_655 S
C741 H744 0.929 . S
C742 C741 1.354 1_455 S
C742 C748 1.433 . S
H743 C739 0.930 . S
H744 C741 0.929 . S
S745 N746 1.613 . S
S745 N747 1.610 . S
N746 S745 1.613 . S
N746 C749 1.350 . S
N747 S745 1.610 . S
N747 C748 1.351 1_554 S
C748 C742 1.433 . S
C748 N747 1.351 1_556 S
C748 C749 1.434 1_556 S
C749 C740 1.429 1_455 S
C749 N746 1.350 . S
C749 C748 1.434 1_554 S
C750 C751 1.369 . S
C750 C752 1.419 . S
C750 H754 0.930 . S
C751 C750 1.369 . S
C751 C760 1.429 . S
C752 C750 1.419 . S
C752 C753 1.363 . S
C752 H755 0.929 . S
C753 C752 1.363 . S
C753 C759 1.428 . S
H754 C750 0.930 . S
H755 C752 0.929 . S
S756 N757 1.613 . S
S756 N758 1.610 . S
N757 S756 1.613 . S
N757 C760 1.350 . S
N758 S756 1.610 . S
N758 C759 1.351 . S
C759 C753 1.428 . S
C759 N758 1.351 . S
C759 C760 1.434 . S
C760 C751 1.429 . S
C760 N757 1.350 . S
C760 C759 1.434 . S
C761 C762 1.369 . S
C761 C763 1.419 . S
C761 H765 0.930 1_556 S
C762 C761 1.369 . S
C762 C771 1.429 1_655 S
C763 C761 1.419 . S
C763 C764 1.363 1_655 S
C763 H766 0.929 . S
C764 C763 1.363 1_455 S
C764 C770 1.428 . S
H765 C761 0.930 1_554 S
H766 C763 0.929 . S
S767 N768 1.613 . S
S767 N769 1.610 . S
N768 S767 1.613 . S
N768 C771 1.350 . S
N769 S767 1.610 . S
N769 C770 1.351 . S
C770 C764 1.428 . S
C770 N769 1.351 . S
C770 C771 1.434 . S
C771 C762 1.429 1_455 S
C771 N768 1.350 . S
C771 C770 1.434 . S
C772 C773 1.369 . S
C772 C774 1.419 . S
C772 H776 0.930 . S
C773 C772 1.369 . S
C773 C782 1.429 . S
C774 C772 1.419 . S
C774 C775 1.363 . S
C774 H777 0.929 . S
C775 C774 1.363 . S
C775 C781 1.428 . S
H776 C772 0.930 . S
H777 C774 0.929 . S
S778 N779 1.613 . S
S778 N780 1.610 . S
N779 S778 1.613 . S
N779 C782 1.350 . S
N780 S778 1.610 . S
N780 C781 1.351 . S
C781 C775 1.428 . S
C781 N780 1.351 . S
C781 C782 1.434 . S
C782 C773 1.429 . S
C782 N779 1.350 . S
C782 C781 1.434 . S
C783 C784 1.369 . S
C783 C785 1.419 . S
C783 H787 0.930 . S
C784 C783 1.369 . S
C784 C793 1.429 . S
C785 C783 1.419 . S
C785 C786 1.363 . S
C785 H788 0.929 . S
C786 C785 1.363 . S
C786 C792 1.428 . S
H787 C783 0.930 . S
H788 C785 0.929 . S
S789 N790 1.615 . S
S789 N791 1.610 . S
N790 S789 1.615 . S
N790 C793 1.365 . S
N791 S789 1.610 . S
N791 C792 1.351 . S
C792 C786 1.428 . S
C792 N791 1.351 . S
C792 C793 1.434 . S
C793 C784 1.429 . S
C793 N790 1.365 . S
C793 C792 1.434 . S
C794 C795 1.369 . S
C794 C796 1.419 . S
C794 H798 0.930 . S
C795 C794 1.369 . S
C795 C804 1.429 . S
C796 C794 1.419 . S
C796 C797 1.363 . S
C796 H799 0.929 . S
C797 C796 1.363 . S
C797 C803 1.428 . S
H798 C794 0.930 . S
H799 C796 0.929 . S
S800 N801 1.613 . S
S800 N802 1.610 . S
N801 S800 1.613 . S
N801 C804 1.350 . S
N802 S800 1.610 . S
N802 C803 1.351 . S
C803 C797 1.428 . S
C803 N802 1.351 . S
C803 C804 1.434 . S
C804 C795 1.429 . S
C804 N801 1.350 . S
C804 C803 1.434 . S
C805 C806 1.369 . S
C805 C807 1.419 . S
C805 H809 0.930 . S
C806 C805 1.369 . S
C806 C815 1.429 . S
C807 C805 1.419 . S
C807 C808 1.363 . S
C807 H810 0.929 . S
C808 C807 1.363 . S
C808 C814 1.428 . S
H809 C805 0.930 . S
H810 C807 0.929 . S
S811 N812 1.613 . S
S811 N813 1.610 . S
N812 S811 1.613 . S
N812 C815 1.350 . S
N813 S811 1.610 . S
N813 C814 1.351 . S
C814 C808 1.428 . S
C814 N813 1.351 . S
C814 C815 1.434 . S
C815 C806 1.429 . S
C815 N812 1.350 . S
C815 C814 1.434 . S
C816 C817 1.369 . S
C816 C818 1.419 . S
C816 H820 0.930 . S
C817 C816 1.369 . S
C817 C826 1.429 . S
C818 C816 1.419 . S
C818 C819 1.363 . S
C818 H821 0.929 . S
C819 C818 1.363 . S
C819 C825 1.428 . S
H820 C816 0.930 . S
H821 C818 0.929 . S
S822 N823 1.613 . S
S822 N824 1.610 . S
N823 S822 1.613 . S
N823 C826 1.350 . S
N824 S822 1.610 . S
N824 C825 1.351 . S
C825 C819 1.428 . S
C825 N824 1.351 . S
C825 C826 1.434 . S
C826 C817 1.429 . S
C826 N823 1.350 . S
C826 C825 1.434 . S
C827 C828 1.369 . S
C827 C829 1.419 . S
C827 H831 0.930 . S
C828 C827 1.369 . S
C828 C837 1.429 . S
C829 C827 1.419 . S
C829 C830 1.363 . S
C829 H832 0.929 . S
C830 C829 1.363 . S
C830 C836 1.428 . S
H831 C827 0.930 . S
H832 C829 0.929 . S
S833 N834 1.613 . S
S833 N835 1.610 . S
N834 S833 1.613 . S
N834 C837 1.350 . S
N835 S833 1.610 . S
N835 C836 1.351 . S
C836 C830 1.428 . S
C836 N835 1.351 . S
C836 C837 1.434 . S
C837 C828 1.429 . S
C837 N834 1.350 . S
C837 C836 1.434 . S
C838 C839 1.369 . S
C838 C840 1.419 . S
C838 H842 0.930 . S
C839 C838 1.369 . S
C839 C848 1.429 . S
C840 C838 1.419 . S
C840 C841 1.363 . S
C840 H843 0.929 . S
C841 C840 1.363 . S
C841 C847 1.428 . S
H842 C838 0.930 . S
H843 C840 0.929 . S
S844 N845 1.613 . S
S844 N846 1.610 . S
N845 S844 1.613 . S
N845 C848 1.350 . S
N846 S844 1.610 . S
N846 C847 1.351 . S
C847 C841 1.428 . S
C847 N846 1.351 . S
C847 C848 1.434 . S
C848 C839 1.429 . S
C848 N845 1.350 . S
C848 C847 1.434 . S
C849 C850 1.369 . S
C849 C851 1.419 . S
C849 H853 0.930 . S
C850 C849 1.369 . S
C850 C859 1.429 . S
C851 C849 1.419 . S
C851 C852 1.363 . S
C851 H854 0.929 . S
C852 C851 1.363 . S
C852 C858 1.428 . S
H853 C849 0.930 . S
H854 C851 0.929 . S
S855 N856 1.613 . S
S855 N857 1.610 . S
N856 S855 1.613 . S
N856 C859 1.350 . S
N857 S855 1.610 . S
N857 C858 1.351 . S
C858 C852 1.428 . S
C858 N857 1.351 . S
C858 C859 1.434 . S
C859 C850 1.429 . S
C859 N856 1.350 . S
C859 C858 1.434 . S
C860 C861 1.369 1_556 S
C860 C862 1.419 1_556 S
C860 H864 0.930 . S
C861 C860 1.369 1_554 S
C861 C870 1.429 . S
C862 C860 1.419 1_554 S
C862 C863 1.363 . S
C862 H865 0.929 1_554 S
C863 C862 1.363 . S
C863 C869 1.428 . S
H864 C860 0.930 . S
H865 C862 0.929 1_556 S
S866 N867 1.613 . S
S866 N868 1.610 . S
N867 S866 1.613 . S
N867 C870 1.350 . S
N868 S866 1.610 . S
N868 C869 1.351 . S
C869 C863 1.428 . S
C869 N868 1.351 . S
C869 C870 1.434 . S
C870 C861 1.429 . S
C870 N867 1.350 . S
C870 C869 1.434 . S
C871 C872 1.369 . S
C871 C873 1.419 . S
C871 H875 0.930 . S
C872 C871 1.369 . S
C872 C881 1.429 . S
C873 C871 1.419 . S
C873 C874 1.363 . S
C873 H876 0.929 . S
C874 C873 1.363 . S
C874 C880 1.428 . S
H875 C871 0.930 . S
H876 C873 0.929 . S
S877 N878 1.613 . S
S877 N879 1.610 . S
N878 S877 1.613 . S
N878 C881 1.350 . S
N879 S877 1.610 . S
N879 C880 1.351 . S
C880 C874 1.428 . S
C880 N879 1.351 . S
C880 C881 1.434 . S
C881 C872 1.429 . S
C881 N878 1.350 . S
C881 C880 1.434 . S
C882 C883 1.369 . S
C882 C884 1.419 . S
C882 H886 0.930 . S
C883 C882 1.369 . S
C883 C892 1.429 . S
C884 C882 1.419 . S
C884 C885 1.363 . S
C884 H887 0.929 . S
C885 C884 1.363 . S
C885 C891 1.428 . S
H886 C882 0.930 . S
H887 C884 0.929 . S
S888 N889 1.613 . S
S888 N890 1.610 . S
N889 S888 1.613 . S
N889 C892 1.350 . S
N890 S888 1.610 . S
N890 C891 1.351 . S
C891 C885 1.428 . S
C891 N890 1.351 . S
C891 C892 1.434 . S
C892 C883 1.429 . S
C892 N889 1.350 . S
C892 C891 1.434 . S
C893 C894 1.369 1_556 S
C893 C895 1.419 . S
C893 H897 0.930 1_565 S
C894 C893 1.369 1_554 S
C894 C903 1.429 . S
C895 C893 1.419 . S
C895 C896 1.363 1_556 S
C895 H898 0.929 . S
C896 C895 1.363 1_554 S
C896 C902 1.428 . S
H897 C893 0.930 1_545 S
H898 C895 0.929 . S
S899 N900 1.613 . S
S899 N901 1.610 . S
N900 S899 1.613 . S
N900 C903 1.350 . S
N901 S899 1.610 . S
N901 C902 1.351 . S
C902 C896 1.428 . S
C902 N901 1.351 . S
C902 C903 1.434 . S
C903 C894 1.429 . S
C903 N900 1.350 . S
C903 C902 1.434 . S
C379 C219 1.648 . S
C377 C73 1.681 . S
C390 C227 1.162 . S
C388 C82 1.318 . S
C399 C100 1.716 . S
C401 C247 1.660 . S
C412 C261 1.361 . S
C410 C56 1.364 1_655 S
C423 C276 1.453 . S
C421 C134 1.441 . S
C434 C290 1.692 . S
C432 C165 1.672 . S
C443 C147 1.289 . S
C445 C304 1.332 . S
C456 C310 1.706 . S
C454 C125 1.753 . S
C465 C151 1.436 . S
C467 C324 1.398 . S
C478 C345 1.467 . S
C476 C121 1.466 . S
C487 C139 1.671 . S
C489 C325 1.417 . S
C500 C346 1.408 . S
C498 C164 1.399 . S
C509 C95 1.332 . S
C511 C353 1.180 . S
C520 C61 1.516 . S
C522 C359 1.491 . S
C531 C74 1.464 . S
C533 C352 1.436 . S
C542 C86 1.674 . S
C544 C360 1.679 . S
C553 C47 1.449 . S
C555 C254 1.404 . S
C564 C186 1.355 . S
C566 C255 1.134 . S
C577 C212 1.499 1_554 S
C575 C204 1.567 . S
C588 C233 1.710 . S
C586 C112 1.744 . S
C597 C60 1.403 . S
C599 C268 1.360 . S
C610 C318 1.467 . S
C608 C152 1.457 . S
C621 C269 1.519 . S
C619 C126 1.773 1_545 S
C632 C297 1.121 . S
C630 C160 1.420 . S
C643 C303 1.645 . S
C641 C190 1.680 . S
C652 C199 1.322 . S
C654 C311 1.154 . S
C663 C113 1.716 . S
C665 C275 1.654 . S
C676 C289 1.364 . S
C674 C173 1.356 . S
C685 C43 1.442 . S
C687 C248 1.455 . S
C698 C262 1.692 . S
C696 C9 1.674 . S
C709 C220 1.331 . S
C707 C17 1.291 . S
C720 C226 1.710 . S
C718 C34 1.754 . S
C729 C21 1.436 . S
C731 C338 1.401 . S
C740 C30 1.464 . S
C742 C331 1.471 1_455 S
C751 C48 1.671 . S
C753 C339 1.417 . S
C762 C8 1.398 1_556 S
C764 C332 1.408 . S
C775 C367 1.178 . S
C773 C108 1.322 . S
C786 C373 1.490 . S
C784 C178 1.515 . S
C797 C366 1.433 . S
C795 C191 1.466 . S
C806 C203 1.675 . S
C808 C374 1.682 . S
C817 C138 1.450 . S
C819 C282 1.406 . S
C830 C283 1.138 . S
C828 C69 1.349 . S
C841 C296 1.499 . S
C839 C87 1.568 . S
C852 C317 1.708 . S
C850 C99 1.747 . S
C861 C177 1.401 1_554 S
C863 C240 1.357 . S
C874 C234 1.468 . S
C872 C22 1.458 . S
C883 C35 1.773 . S
C885 C241 1.518 . S
C896 C213 1.110 . S
C894 C4 1.416 . S
