# Generated by pormake.
# Topology zzz, (3,6)-cn, num edge types: 1
# Building blocks:
#     Node 0, Type 0, BuildingBlock: ESEHIV_clean_linker_0, # of connection points: 3
#     Node 1, Type 0, BuildingBlock: ESEHIV_clean_linker_0, # of connection points: 3
#     Node 2, Type 0, BuildingBlock: ESEHIV_clean_linker_0, # of connection points: 3
#     Node 3, Type 0, BuildingBlock: ESEHIV_clean_linker_0, # of connection points: 3
#     Node 4, Type 0, BuildingBlock: ESEHIV_clean_linker_0, # of connection points: 3
#     Node 5, Type 0, BuildingBlock: ESEHIV_clean_linker_0, # of connection points: 3
#     Node 6, Type 0, BuildingBlock: ESEHIV_clean_linker_0, # of connection points: 3
#     Node 7, Type 0, BuildingBlock: ESEHIV_clean_linker_0, # of connection points: 3
#     Node 8, Type 1, BuildingBlock: KUMJIN_clean_sbu_0, # of connection points: 6
#     Node 9, Type 1, BuildingBlock: KUMJIN_clean_sbu_0, # of connection points: 6
#     Node 10, Type 1, BuildingBlock: KUMJIN_clean_sbu_0, # of connection points: 6
#     Node 11, Type 1, BuildingBlock: KUMJIN_clean_sbu_0, # of connection points: 6
#     Edge 12, Type (0, 1), BuildingBlock: OJICUG_clean_linker_0, # of connection points: 2
#     Edge 13, Type (0, 1), BuildingBlock: OJICUG_clean_linker_0, # of connection points: 2
#     Edge 14, Type (0, 1), BuildingBlock: OJICUG_clean_linker_0, # of connection points: 2
#     Edge 15, Type (0, 1), BuildingBlock: OJICUG_clean_linker_0, # of connection points: 2
#     Edge 16, Type (0, 1), BuildingBlock: OJICUG_clean_linker_0, # of connection points: 2
#     Edge 17, Type (0, 1), BuildingBlock: OJICUG_clean_linker_0, # of connection points: 2
#     Edge 18, Type (0, 1), BuildingBlock: OJICUG_clean_linker_0, # of connection points: 2
#     Edge 19, Type (0, 1), BuildingBlock: OJICUG_clean_linker_0, # of connection points: 2
#     Edge 20, Type (0, 1), BuildingBlock: OJICUG_clean_linker_0, # of connection points: 2
#     Edge 21, Type (0, 1), BuildingBlock: OJICUG_clean_linker_0, # of connection points: 2
#     Edge 22, Type (0, 1), BuildingBlock: OJICUG_clean_linker_0, # of connection points: 2
#     Edge 23, Type (0, 1), BuildingBlock: OJICUG_clean_linker_0, # of connection points: 2
#     Edge 24, Type (0, 1), BuildingBlock: OJICUG_clean_linker_0, # of connection points: 2
#     Edge 25, Type (0, 1), BuildingBlock: OJICUG_clean_linker_0, # of connection points: 2
#     Edge 26, Type (0, 1), BuildingBlock: OJICUG_clean_linker_0, # of connection points: 2
#     Edge 27, Type (0, 1), BuildingBlock: OJICUG_clean_linker_0, # of connection points: 2
#     Edge 28, Type (0, 1), BuildingBlock: OJICUG_clean_linker_0, # of connection points: 2
#     Edge 29, Type (0, 1), BuildingBlock: OJICUG_clean_linker_0, # of connection points: 2
#     Edge 30, Type (0, 1), BuildingBlock: OJICUG_clean_linker_0, # of connection points: 2
#     Edge 31, Type (0, 1), BuildingBlock: OJICUG_clean_linker_0, # of connection points: 2
#     Edge 32, Type (0, 1), BuildingBlock: OJICUG_clean_linker_0, # of connection points: 2
#     Edge 33, Type (0, 1), BuildingBlock: OJICUG_clean_linker_0, # of connection points: 2
#     Edge 34, Type (0, 1), BuildingBlock: OJICUG_clean_linker_0, # of connection points: 2
#     Edge 35, Type (0, 1), BuildingBlock: OJICUG_clean_linker_0, # of connection points: 2
# Relax obj value: 0.425
# Max RMSD: 0.240
# Mean RMSD: 0.217
data_MOF--net-zzz--node1-KUMJIN_clean_sbu_0--node2-ESEHIV_clean_linker_0--edge1-OJICUG_clean_linker_0
_symmetry_space_group_name_H-M    P1
_symmetry_Int_Tables_number       1
_symmetry_cell_setting            triclinic
loop_
_symmetry_equiv_pos_as_xyz
'x, y, z'
_cell_length_a     31.053911
_cell_length_b     30.753316
_cell_length_c     11.022805
_cell_angle_alpha  91.914752
_cell_angle_beta   91.537172
_cell_angle_gamma 90.051356
loop_
_atom_site_label
_atom_site_type_symbol
_atom_site_fract_x
_atom_site_fract_y
_atom_site_fract_z
_atom_type_partial_charge
H0 H 0.82517 0.4529 0.36522 0.0
H1 H 0.71135 0.43741 0.14144 0.0
H2 H 0.74041 0.562 0.31902 0.0
C3 C 0.79511 0.466 0.32965 0.0
C4 C 0.78532 0.50937 0.35776 0.0
C5 C 0.76966 0.44057 0.24856 0.0
C6 C 0.73142 0.45795 0.20089 0.0
C7 C 0.71971 0.50167 0.2243 0.0
C8 C 0.74778 0.52805 0.30182 0.0
H9 H 0.90242 0.839 0.35678 0.0
H10 H 0.90016 0.71597 0.16674 0.0
H11 H 0.02099 0.76899 0.30642 0.0
C12 C 0.91907 0.80998 0.32583 0.0
C13 C 0.96331 0.8062 0.35571 0.0
C14 C 0.8976 0.7806 0.24377 0.0
C15 C 0.9184 0.74135 0.21532 0.0
C16 C 0.96344 0.73776 0.22385 0.0
C17 C 0.98633 0.77065 0.29709 0.0
H18 H 0.71403 0.11056 0.49764 0.0
H19 H 0.82974 0.12583 0.23043 0.0
H20 H 0.8141 0.99534 0.57568 0.0
C21 C 0.74581 0.09786 0.4808 0.0
C22 C 0.76017 0.0538 0.56123 0.0
C23 C 0.7714 0.12195 0.36677 0.0
C24 C 0.81848 0.10789 0.30628 0.0
C25 C 0.84694 0.06387 0.3488 0.0
C26 C 0.80747 0.02544 0.52857 0.0
H27 H 0.64288 0.71122 0.33769 0.0
H28 H 0.53317 0.79582 0.35343 0.0
H29 H 0.63417 0.82078 0.10718 0.0
C30 C 0.62651 0.74035 0.30929 0.0
C31 C 0.64102 0.76155 0.20662 0.0
C32 C 0.58738 0.75155 0.36371 0.0
C33 C 0.56449 0.78826 0.31918 0.0
C34 C 0.58296 0.81502 0.23058 0.0
C35 C 0.62191 0.80179 0.17968 0.0
H36 H 0.2381 0.61587 0.11926 0.0
H37 H 0.35588 0.62009 0.3295 0.0
H38 H 0.30997 0.4981 0.16687 0.0
C39 C 0.267 0.59976 0.15203 0.0
C40 C 0.27126 0.55515 0.12659 0.0
C41 C 0.29649 0.62287 0.228 0.0
C42 C 0.33316 0.60164 0.27174 0.0
C43 C 0.33955 0.55673 0.25067 0.0
C44 C 0.30719 0.53288 0.18043 0.0
H45 H 0.135 0.22588 0.12533 0.0
H46 H 0.15191 0.34054 0.33992 0.0
H47 H 0.02624 0.31022 0.1754 0.0
C48 C 0.12151 0.25564 0.16281 0.0
C49 C 0.07918 0.26636 0.12812 0.0
C50 C 0.14431 0.2787 0.25593 0.0
C51 C 0.12931 0.32015 0.28918 0.0
C52 C 0.08559 0.33214 0.27234 0.0
C53 C 0.06005 0.30374 0.19008 0.0
H54 H 0.29743 0.91896 1.0041 0.0
H55 H 0.18572 0.94265 0.2788 0.0
H56 H 0.22119 0.04649 0.88005 0.0
C57 C 0.26872 0.93833 1.01251 0.0
C58 C 0.26247 0.97978 0.91504 0.0
C59 C 0.2407 0.92667 0.13748 0.0
C60 C 0.19852 0.95332 0.19433 0.0
C61 C 0.17853 0.99924 0.13414 0.0
C62 C 0.22175 1.01813 0.93736 0.0
H63 H 0.41293 0.32627 0.14856 0.0
H64 H 0.52153 0.24113 0.10222 0.0
H65 H 0.42304 0.21183 0.35602 0.0
C66 C 0.4291 0.29604 0.16676 0.0
C67 C 0.41523 0.27169 0.26463 0.0
C68 C 0.46713 0.28617 0.10418 0.0
C69 C 0.49063 0.24837 0.14073 0.0
C70 C 0.47348 0.22021 0.22911 0.0
C71 C 0.43472 0.23157 0.28392 0.0
Eu72 Eu 0.0531 1.01509 0.83443 0.0
C73 C 0.87051 0.06808 0.55566 0.0
C74 C 0.85653 0.98803 0.39487 0.0
C75 C 0.78024 0.04421 0.35593 0.0
C76 C 0.88481 0.02067 0.49628 0.0
C77 C 0.82345 0.09348 0.51602 0.0
C78 C 0.8078 0.99737 0.32711 0.0
C79 C 0.84848 0.14594 0.67654 0.0
N80 N 0.89849 0.08658 0.63747 0.0
C81 C 0.88647 0.12288 0.70247 0.0
C82 C 0.81864 0.13361 0.58426 0.0
Eu83 Eu 0.97286 0.0632 0.63316 0.0
N84 N 0.92745 1.01197 0.51532 0.0
C85 C 0.94689 0.98297 0.43876 0.0
C86 C 0.87973 0.95324 0.34861 0.0
C87 C 0.92428 0.95211 0.36518 0.0
H88 H 0.90794 0.13645 0.77243 0.0
H89 H 0.94232 0.92823 0.3131 0.0
H90 H 0.79455 0.97389 0.26094 0.0
H91 H 0.84251 0.17558 0.72917 0.0
H92 H 0.98123 0.98484 0.42962 0.0
H93 H 0.11221 0.1517 0.11508 0.0
H94 H 0.86421 0.9303 0.28566 0.0
H95 H 0.08762 0.91198 0.80389 0.0
H96 H 0.06192 0.09996 1.02087 0.0
H97 H 0.14718 0.86503 0.84585 0.0
H98 H 0.74915 0.04781 0.30807 0.0
H99 H 0.18861 0.13437 0.14158 0.0
H100 H 0.24834 0.07982 0.18082 0.0
H101 H 0.79182 0.15565 0.5732 0.0
H102 H 0.27752 0.99648 0.16478 0.0
N103 N 0.1076 0.05745 0.9482 0.0
C104 C 0.09549 0.09392 1.01087 0.0
C105 C 0.16799 0.11251 0.08848 0.0
C106 C 0.18313 0.0717 0.05623 0.0
C107 C 0.12457 0.12234 0.07212 0.0
C108 C 0.14762 0.04065 0.97038 0.0
H109 H 0.21062 0.88656 0.95321 0.0
N110 N 0.11681 0.97069 0.8708 0.0
C111 C 0.15052 0.89914 0.87231 0.0
C112 C 0.15125 0.98849 0.93196 0.0
C113 C 0.11623 0.92698 0.84443 0.0
C114 C 0.1878 0.91236 0.93675 0.0
C115 C 0.19324 0.95659 0.97985 0.0
O116 O 0.05441 0.97399 0.99363 0.0
O117 O 1.00175 0.99652 0.6888 0.0
O118 O 0.94247 0.05012 0.81741 0.0
O119 O 1.00331 0.05327 0.94718 0.0
O120 O 0.062 0.96685 0.67729 0.0
O121 O 0.99766 0.97649 0.87883 0.0
O122 O 0.95322 0.12145 0.53852 0.0
O123 O 0.02428 0.0797 0.77819 0.0
O124 O 0.09075 0.03599 0.66755 0.0
O125 O 0.03287 0.04426 0.53005 0.0
O126 O 0.98345 0.12884 0.73253 0.0
O127 O 1.00397 0.0815 0.46625 0.0
C128 C 0.02337 0.96652 0.63118 0.0
C129 C 1.00589 0.91336 0.98655 0.0
C130 C 0.9515 0.85621 0.98357 0.0
C131 C 0.96298 0.89955 0.96805 0.0
C132 C 0.98382 0.82649 1.01675 0.0
C133 C 0.03746 0.88359 1.02306 0.0
C134 C 0.02636 0.84019 0.0372 0.0
C135 C 0.9605 0.05329 0.92893 0.0
C136 C 0.01546 0.95955 0.97336 0.0
C137 C 0.24747 1.00397 0.1156 0.0
C138 C 0.23 0.05636 0.12532 0.0
C139 C 0.01665 0.12071 0.79895 0.0
C140 C 1.00972 0.15819 0.45018 0.0
C141 C 0.05442 0.15979 0.47685 0.0
C142 C 0.0766 0.19946 0.47248 0.0
C143 C 0.05357 0.23696 0.43977 0.0
C144 C 0.98783 0.1959 0.41621 0.0
C145 C 1.00972 0.2351 0.41109 0.0
C146 C 0.07485 0.04141 0.5552 0.0
C147 C 0.98419 0.11861 0.46208 0.0
H148 H 0.93809 0.92297 0.94593 0.0
H149 H 0.97595 0.79294 1.03212 0.0
H150 H 0.07039 0.89379 0.04193 0.0
H151 H 0.05062 0.81717 0.06591 0.0
H152 H 0.07184 0.13075 0.50088 0.0
H153 H 0.06967 0.26792 0.43409 0.0
H154 H 0.95355 0.19506 0.39489 0.0
H155 H 0.99272 0.26418 0.38487 0.0
Eu156 Eu 0.51099 0.05904 0.84855 0.0
C157 C 0.5896 0.90525 0.57459 0.0
C158 C 0.64313 0.93872 0.45048 0.0
C159 C 0.65195 0.86367 0.50761 0.0
C160 C 0.60424 0.94143 0.51459 0.0
C161 C 0.61286 0.86574 0.56823 0.0
C162 C 0.66711 0.90006 0.44933 0.0
C163 C 0.55423 0.83074 0.66581 0.0
N164 N 0.5511 0.9075 0.63065 0.0
C165 C 0.53217 0.87025 0.66907 0.0
C166 C 0.59523 0.82871 0.61801 0.0
Eu167 Eu 0.51424 0.97529 0.6226 0.0
N168 N 0.58086 0.97908 0.51871 0.0
C169 C 0.59418 1.01409 0.45551 0.0
C170 C 0.65677 0.97479 0.38791 0.0
C171 C 0.63215 1.01253 0.39036 0.0
H172 H 0.49951 0.87094 0.70084 0.0
H173 H 0.64253 0.04069 0.34243 0.0
H174 H 0.69701 0.89768 0.40109 0.0
H175 H 0.53906 0.80166 0.69693 0.0
H176 H 0.57676 0.04408 0.45557 0.0
H177 H 0.45074 0.97764 0.25037 0.0
H178 H 0.68632 0.97388 0.33777 0.0
H179 H 0.45914 0.13921 0.68416 0.0
H180 H 0.50522 1.00086 0.11666 0.0
H181 H 0.39279 0.17951 0.68783 0.0
H182 H 0.67016 0.83364 0.50241 0.0
H183 H 0.37858 1.01011 0.24376 0.0
H184 H 0.33032 0.06648 0.16182 0.0
H185 H 0.61213 0.79793 0.61466 0.0
H186 H 0.3163 0.12392 1.01762 0.0
N187 N 0.46226 0.03721 1.00163 0.0
C188 C 0.4729 1.0114 0.09719 0.0
C189 C 0.40174 1.01832 0.17626 0.0
C190 C 0.39267 0.04962 0.09087 0.0
C191 C 0.44229 0.99967 0.18013 0.0
C192 C 0.4237 0.05852 1.00273 0.0
H193 H 0.33905 0.16576 0.84231 0.0
N194 N 0.44419 0.09762 0.83053 0.0
C195 C 0.39843 0.15428 0.75259 0.0
C196 C 0.41539 0.09065 0.91926 0.0
C197 C 0.43626 0.12989 0.74948 0.0
C198 C 0.36841 0.14675 0.84054 0.0
C199 C 0.37654 0.11488 0.92525 0.0
O200 O 0.50574 0.12388 0.93011 0.0
O201 O 0.559 1.01502 0.75057 0.0
O202 O 0.51975 0.94058 0.80213 0.0
O203 O 0.53736 0.99698 0.93847 0.0
O204 O 0.57192 0.08123 0.76287 0.0
O205 O 0.55371 0.08057 1.00193 0.0
O206 O 0.51233 0.93303 0.45917 0.0
O207 O 0.46623 1.01902 0.72271 0.0
O208 O 0.51578 0.09413 0.66943 0.0
O209 O 0.5066 0.03911 0.52146 0.0
O210 O 0.45859 0.95167 0.729 0.0
O211 O 0.45529 0.96766 0.5083 0.0
C212 C 0.58763 0.04386 0.72997 0.0
C213 C 0.57032 0.15656 1.00191 0.0
C214 C 0.63645 0.19038 0.08172 0.0
C215 C 0.60608 0.1566 0.08178 0.0
C216 C 0.63059 0.22501 1.00376 0.0
C217 C 0.56466 0.19161 0.92365 0.0
C218 C 0.59446 0.22576 0.92571 0.0
C219 C 0.53182 0.95477 0.91199 0.0
C220 C 0.53905 0.12032 1.00217 0.0
C221 C 0.34624 0.10592 1.01303 0.0
C222 C 0.35404 0.07302 0.09446 0.0
C223 C 0.44069 0.98876 0.75543 0.0
C224 C 0.44627 0.89535 0.42853 0.0
C225 C 0.40173 0.89695 0.40765 0.0
C226 C 0.37743 0.85846 0.39062 0.0
C227 C 0.39803 0.81802 0.39699 0.0
C228 C 0.46651 0.85456 0.43245 0.0
C229 C 0.44244 0.81619 0.41889 0.0
C230 C 0.51028 0.08084 0.55443 0.0
C231 C 0.47119 0.93631 0.44186 0.0
H232 H 0.61112 0.12959 0.14141 0.0
H233 H 0.65428 0.25083 1.00172 0.0
H234 H 0.53722 0.19286 0.86111 0.0
H235 H 0.58984 0.25252 0.86537 0.0
H236 H 0.38624 0.92836 0.39916 0.0
H237 H 0.37993 0.78808 0.38264 0.0
H238 H 0.50097 0.8524 0.44486 0.0
H239 H 0.45836 0.78496 0.42284 0.0
Eu240 Eu 0.5733 0.5021 0.66124 0.0
C241 C 0.39198 0.49519 0.89301 0.0
C242 C 0.33695 0.51223 0.74288 0.0
C243 C 0.32079 0.46244 0.90186 0.0
C244 C 0.37981 0.51567 0.78835 0.0
C245 C 0.36242 0.46884 0.95218 0.0
C246 C 0.30797 0.48435 0.79767 0.0
C247 C 0.41458 0.46325 0.11637 0.0
N248 N 0.43195 0.50333 0.94135 0.0
C249 C 0.443 0.48904 0.05408 0.0
C250 C 0.37483 0.45164 0.06346 0.0
Eu251 Eu 0.47958 0.54496 0.82573 0.0
N252 N 0.40876 0.542 0.73719 0.0
C253 C 0.39559 0.56914 0.64774 0.0
C254 C 0.32388 0.53866 0.64807 0.0
C255 C 0.35304 0.56816 0.60299 0.0
H256 H 0.47385 0.4969 0.09619 0.0
H257 H 0.34307 0.58947 0.53183 0.0
H258 H 0.27514 0.48078 0.76286 0.0
H259 H 0.42283 0.45349 0.20683 0.0
H260 H 0.41803 0.59153 0.60984 0.0
H261 H 0.69805 0.42832 0.94206 0.0
H262 H 0.2911 0.53755 0.61178 0.0
H263 H 0.59066 0.56274 0.41738 0.0
H264 H 0.62584 0.43614 0.85021 0.0
H265 H 0.64572 0.6135 0.34707 0.0
H266 H 0.29769 0.44224 0.94589 0.0
H267 H 0.75408 0.48441 0.91211 0.0
H268 H 0.77633 0.55191 0.80623 0.0
H269 H 0.35303 0.43156 0.11257 0.0
H270 H 0.76187 0.60262 0.64163 0.0
N271 N 0.64098 0.49424 0.76089 0.0
C272 C 0.64995 0.46035 0.83401 0.0
C273 C 0.72256 0.48732 0.86873 0.0
C274 C 0.71363 0.52094 0.78949 0.0
C275 C 0.69096 0.45603 0.88745 0.0
C276 C 0.67254 0.52235 0.73239 0.0
H277 H 0.71357 0.62501 0.46704 0.0
N278 N 0.62678 0.54629 0.57623 0.0
C279 C 0.65145 0.59602 0.42956 0.0
C280 C 0.6649 0.54988 0.63816 0.0
C281 C 0.62049 0.567 0.46911 0.0
C282 C 0.68959 0.60258 0.49787 0.0
C283 C 0.6973 0.57836 0.60155 0.0
O284 O 0.59456 0.47045 0.4941 0.0
O285 O 0.50179 0.51293 0.6534 0.0
O286 O 0.47802 0.47024 0.82843 0.0
O287 O 0.55078 0.45384 0.80568 0.0
O288 O 0.5316 0.51316 0.49033 0.0
O289 O 0.57492 0.4312 0.64288 0.0
O290 O 0.48262 0.59081 0.98221 0.0
O291 O 0.55101 0.53457 0.82885 0.0
O292 O 0.57391 0.57675 0.67023 0.0
O293 O 0.50083 0.59095 0.67625 0.0
O294 O 0.52434 0.54045 0.99527 0.0
O295 O 0.44954 0.60874 0.81678 0.0
C296 C 0.49454 0.51527 0.53945 0.0
C297 C 0.54694 0.41349 0.44616 0.0
C298 C 0.47201 0.39088 0.41275 0.0
C299 C 0.50704 0.40068 0.49219 0.0
C300 C 0.47754 0.39469 0.28716 0.0
C301 C 0.5514 0.41621 0.32073 0.0
C302 C 0.51643 0.40843 0.24246 0.0
C303 C 0.51106 0.44277 0.83725 0.0
C304 C 0.58096 0.43249 0.52638 0.0
C305 C 0.73675 0.58045 0.66687 0.0
C306 C 0.74495 0.55164 0.76076 0.0
C307 C 0.5604 0.535 0.9417 0.0
C308 C 0.4904 0.66281 0.91604 0.0
C309 C 0.53565 0.66194 0.91565 0.0
C310 C 0.55949 0.70063 0.90804 0.0
C311 C 0.53675 0.73997 0.8941 0.0
C312 C 0.46864 0.70219 0.90128 0.0
C313 C 0.49181 0.74053 0.88909 0.0
C314 C 0.54062 0.60284 0.65065 0.0
C315 C 0.46559 0.62235 0.9209 0.0
H316 H 0.50296 0.39863 0.58912 0.0
H317 H 0.45217 0.38602 0.22207 0.0
H318 H 0.58145 0.42639 0.28377 0.0
H319 H 0.51943 0.41337 0.14693 0.0
H320 H 0.55214 0.63113 0.92296 0.0
H321 H 0.55337 0.77087 0.89319 0.0
H322 H 0.43375 0.70318 0.89834 0.0
H323 H 0.47491 0.77103 0.87888 0.0
Eu324 Eu 0.04423 0.57727 0.6519 0.0
C325 C 0.01973 0.39695 0.72018 0.0
C326 C 0.94921 0.36985 0.65261 0.0
C327 C 1.01156 0.32329 0.63406 0.0
C328 C 0.97562 0.40371 0.70381 0.0
C329 C 0.03765 0.35603 0.68804 0.0
C330 C 0.96768 0.33041 0.6139 0.0
C331 C 0.10554 0.38039 0.77642 0.0
N332 N 0.04452 0.42865 0.77629 0.0
C333 C 0.0867 0.4203 0.80698 0.0
C334 C 0.08099 0.34821 0.71618 0.0
Eu335 Eu 1.00737 0.49181 0.84625 0.0
N336 N 0.95782 0.44078 0.75098 0.0
C337 C 0.91416 0.44189 0.76795 0.0
C338 C 0.9045 0.37491 0.65166 0.0
C339 C 0.88687 0.41064 0.71267 0.0
H340 H 0.10622 0.44334 0.85852 0.0
H341 H 0.85232 0.41332 0.72125 0.0
H342 H 0.94782 0.30413 0.57549 0.0
H343 H 0.13891 0.37427 0.80109 0.0
H344 H 0.9001 0.46701 0.82504 0.0
H345 H 0.126 0.67881 1.0043 0.0
H346 H 0.88333 0.34983 0.61255 0.0
H347 H 0.97705 0.61198 0.42777 0.0
H348 H 0.10995 0.61232 0.88505 0.0
H349 H 0.92865 0.67308 0.3865 0.0
H350 H 0.02477 0.2916 0.61312 0.0
H351 H 0.08441 0.74569 0.96739 0.0
H352 H 0.02842 0.78351 0.8434 0.0
H353 H 0.09556 0.31713 0.69405 0.0
H354 H 0.97021 0.78053 0.68901 0.0
N355 N 0.05722 0.63891 0.78456 0.0
C356 C 0.09035 0.64024 0.86902 0.0
C357 C 0.07657 0.71604 0.91559 0.0
C358 C 0.04365 0.71513 0.82666 0.0
C359 C 0.10003 0.67839 0.93676 0.0
C360 C 0.03445 0.6756 0.76208 0.0
H361 H 0.93102 0.7388 0.52207 0.0
N362 N 0.99837 0.63715 0.60179 0.0
C363 C 0.94881 0.67382 0.46806 0.0
C364 C 1.00281 0.67414 0.67156 0.0
C365 C 0.97512 0.63844 0.49424 0.0
C366 C 0.95025 0.71069 0.5447 0.0
C367 C 0.97921 0.71208 0.64395 0.0
O368 O 0.06157 0.59924 0.47278 0.0
O369 O 0.04286 0.50348 0.67205 0.0
O370 O 0.07545 0.51022 0.91507 0.0
O371 O 0.10297 0.54845 0.75522 0.0
O372 O 0.0285 0.52632 0.50151 0.0
O373 O 0.11066 0.59549 0.61337 0.0
O374 O 0.02749 0.44932 0.99277 0.0
O375 O 0.01656 0.5641 0.83227 0.0
O376 O 0.97386 0.56401 0.59676 0.0
O377 O 0.94794 0.51775 0.74 0.0
O378 O 0.99378 0.54433 0.99344 0.0
O379 O 0.96292 0.47598 0.988 0.0
C380 C 0.03223 0.49132 0.56248 0.0
C381 C 0.11469 0.65499 0.48346 0.0
C382 C 0.17292 0.70512 0.44086 0.0
C383 C 0.15834 0.66307 0.4665 0.0
C384 C 0.14363 0.73961 0.43622 0.0
C385 C 0.08562 0.68992 0.47676 0.0
C386 C 0.10012 0.73202 0.45607 0.0
C387 C 0.1081 0.52835 0.86002 0.0
C388 C 0.10057 0.61007 0.50696 0.0
C389 C 0.98751 0.75102 0.71007 0.0
C390 C 0.02035 0.7527 0.79909 0.0
C391 C 1.00488 0.57834 0.93701 0.0
C392 C 0.96935 0.40225 0.03749 0.0
C393 C 0.9269 0.39813 0.07507 0.0
C394 C 0.90547 0.35792 0.06587 0.0
C395 C 0.92687 0.32103 1.02083 0.0
C396 C 0.99089 0.36482 0.9941 0.0
C397 C 0.96958 0.3246 0.98504 0.0
C398 C 0.94214 0.542 0.64344 0.0
C399 C 0.98839 0.44635 1.03246 0.0
H400 H 0.18076 0.63603 0.46727 0.0
H401 H 0.15424 0.77193 0.41449 0.0
H402 H 0.05166 0.68487 0.48451 0.0
H403 H 0.07743 0.75862 0.45245 0.0
H404 H 0.90978 0.42672 0.10816 0.0
H405 H 0.91057 0.28989 1.01251 0.0
H406 H 0.02388 0.3666 0.96548 0.0
H407 H 0.98621 0.29619 0.9497 0.0
C408 C 0.17218 0.0319 0.34841 0.0
C409 C 0.15225 0.02224 0.23323 0.0
H410 H 0.16431 0.04498 0.5402 0.0
C411 C 0.10734 0.02199 0.22701 0.0
H412 H 0.20691 0.03071 0.35908 0.0
C413 C 0.08296 0.03002 0.33008 0.0
C414 C 0.10266 0.03751 0.44601 0.0
H415 H 0.0908 1.01353 0.14371 0.0
H416 H 0.04829 0.02793 0.31857 0.0
C417 C 0.14781 0.03931 0.45331 0.0
C418 C 0.48165 0.13967 0.25985 0.0
C419 C 0.49636 0.18248 0.28603 0.0
H420 H 0.47483 0.07438 0.32157 0.0
C421 C 0.51958 0.19007 0.39645 0.0
H422 H 0.46203 0.13281 0.17872 0.0
C423 C 0.52542 0.15692 0.48094 0.0
C424 C 0.50869 0.1147 0.45765 0.0
H425 H 0.52988 0.22281 0.4225 0.0
H426 H 0.54157 0.16497 0.56709 0.0
C427 C 0.4883 0.10622 0.34331 0.0
C428 C 0.41926 0.56124 0.29781 0.0
C429 C 0.38026 0.5382 0.30841 0.0
H430 H 0.48395 0.57307 0.36355 0.0
C431 C 0.38008 0.50432 0.39208 0.0
H432 H 0.4214 0.58687 0.2331 0.0
C433 C 0.41674 0.49645 0.46875 0.0
C434 C 0.45397 0.52291 0.46526 0.0
H435 H 0.35097 0.48565 0.40326 0.0
H436 H 0.41545 0.47069 0.53318 0.0
C437 C 0.45518 0.55373 0.37414 0.0
C438 C 0.02835 0.39192 0.33202 0.0
C439 C 0.0691 0.372 0.34972 0.0
H440 H 0.98451 0.44386 0.38385 0.0
C441 C 0.09521 0.39145 0.44585 0.0
H442 H 1.00618 0.37889 0.26296 0.0
C443 C 0.08321 0.42923 0.51241 0.0
C444 C 0.04287 0.44851 0.49573 0.0
H445 H 0.12559 0.378 0.47474 0.0
H446 H 0.10611 0.44361 0.57781 0.0
C447 C 0.01568 0.42945 0.40279 0.0
C448 C 0.92236 0.06071 0.25766 0.0
C449 C 0.87814 0.05241 0.24589 0.0
H450 H 0.98325 0.06719 0.17153 0.0
C451 C 0.8613 0.0442 0.12682 0.0
H452 H 0.93566 0.06824 0.34555 0.0
C453 C 0.88773 0.04442 1.02493 0.0
C454 C 0.93217 0.05313 0.03779 0.0
H455 H 0.82699 0.03956 0.11161 0.0
H456 H 0.87304 0.03841 0.93572 0.0
C457 C 0.94924 0.06047 0.15655 0.0
C458 C 0.58201 0.89484 0.18211 0.0
C459 C 0.56148 0.85383 0.17401 0.0
H460 H 0.58866 0.95872 0.10998 0.0
C461 C 0.52866 0.84783 0.08443 0.0
H462 H 0.6087 0.90002 0.24549 0.0
C463 C 0.51843 0.88084 1.00212 0.0
C464 C 0.54019 0.92132 1.0076 0.0
H465 H 0.51292 0.8165 0.07262 0.0
H466 H 0.49404 0.87418 0.93192 0.0
C467 C 0.57105 0.9283 0.10216 0.0
C468 C 0.64029 0.49221 0.17834 0.0
C469 C 0.67803 0.51675 0.16393 0.0
H470 H 0.57503 0.47818 0.11916 0.0
C471 C 0.67654 0.5488 0.07493 0.0
H472 H 0.64019 0.46739 0.2455 0.0
C473 C 0.63914 0.55426 0.99938 0.0
C474 C 0.60233 0.52774 1.01051 0.0
H475 H 0.70491 0.56812 0.05953 0.0
H476 H 0.63914 0.57897 0.93167 0.0
C477 C 0.60318 0.49789 0.10438 0.0
C478 C 1.01292 0.67088 0.18339 0.0
C479 C 0.98272 0.70159 0.14205 0.0
H480 H 0.04404 0.60886 0.15087 0.0
C481 C 0.9641 0.69293 1.02426 0.0
H482 H 0.02744 0.67508 0.27315 0.0
C483 C 0.9723 0.65424 0.95605 0.0
C484 C 1.00212 0.62349 0.99724 0.0
H485 H 0.94085 0.71528 0.98654 0.0
H486 H 0.95421 0.64786 0.87198 0.0
C487 C 0.0222 0.63253 0.1127 0.0
C488 C 0.16813 0.26662 0.46831 0.0
C489 C 0.17278 0.2544 0.34462 0.0
H490 H 0.12852 0.25414 0.61977 0.0
C491 C 0.17562 0.20912 0.32361 0.0
H492 H 0.17391 0.29979 0.50053 0.0
C493 C 0.14737 0.18288 0.38676 0.0
C494 C 0.12429 0.20228 0.48236 0.0
H495 H 0.18857 0.19687 0.23954 0.0
H496 H 0.1379 0.15146 0.34734 0.0
C497 C 0.14212 0.24033 0.53785 0.0
C498 C 0.28423 0.85993 0.17212 0.0
C499 C 0.26238 0.89634 0.21963 0.0
H500 H 0.339 0.8184 0.19223 0.0
C501 C 0.27091 0.9103 0.34056 0.0
H502 H 0.27753 0.84802 0.07991 0.0
C503 C 0.30553 0.89297 0.40534 0.0
C504 C 0.33209 0.86185 0.34939 0.0
H505 H 0.25473 0.93831 0.38018 0.0
H506 H 0.31461 0.9076 0.49318 0.0
C507 C 0.31917 0.84276 0.23676 0.0
C508 C 0.37297 0.33443 0.34514 0.0
C509 C 0.39346 0.29465 0.36866 0.0
H510 H 0.3858 0.40279 0.34253 0.0
C511 C 0.41677 0.29352 0.48028 0.0
H512 H 0.34975 0.33636 0.2704 0.0
C513 C 0.43858 0.33127 0.52082 0.0
C514 C 0.4326 0.36928 0.45524 0.0
H515 H 0.42799 0.263 0.51566 0.0
H516 H 0.46561 0.32806 0.58404 0.0
C517 C 0.39396 0.37275 0.38608 0.0
C518 C 0.25622 0.69307 0.2168 0.0
C519 C 0.28303 0.6652 0.28356 0.0
H520 H 0.19779 0.72975 0.21946 0.0
C521 C 0.28377 0.66961 0.41107 0.0
H522 H 0.25631 0.69195 0.11845 0.0
C523 C 0.2507 0.69186 0.46897 0.0
C524 C 0.2172 0.70973 0.39921 0.0
H525 H 0.3049 0.65 0.46616 0.0
H526 H 0.24735 0.6884 0.56579 0.0
C527 C 0.22287 0.71512 0.27478 0.0
C528 C 0.85627 0.8418 0.15952 0.0
C529 C 0.86286 0.79651 0.15634 0.0
H530 H 0.88775 0.90009 0.10553 0.0
C531 C 0.86579 0.77901 0.03657 0.0
H532 H 0.84324 0.85769 0.23948 0.0
C533 C 0.89222 0.80146 0.95855 0.0
C534 C 0.90571 0.84379 0.99411 0.0
H535 H 0.86005 0.74474 1.01697 0.0
H536 H 0.90708 0.78396 0.88374 0.0
C537 C 0.88148 0.86618 0.08257 0.0
C538 C 0.74364 0.14548 0.1657 0.0
C539 C 0.74423 0.15112 0.29304 0.0
H540 H 0.70882 0.15499 0.99874 0.0
C541 C 0.71284 0.1778 0.34719 0.0
H542 H 0.76626 0.12427 0.12003 0.0
C543 C 0.67884 0.19422 0.27668 0.0
C544 C 0.67684 0.18528 0.15117 0.0
H545 H 0.7128 0.18336 0.44471 0.0
H546 H 0.65279 0.21137 0.32082 0.0
C547 C 0.71041 0.16274 0.09546 0.0
C548 C 0.65646 0.69051 0.10666 0.0
C549 C 0.66413 0.73572 0.10861 0.0
H550 H 0.6085 0.64419 0.04952 0.0
C551 C 0.66344 0.75336 0.99208 0.0
H552 H 0.66574 0.6712 0.18331 0.0
C553 C 0.63186 0.73781 0.90817 0.0
C554 C 0.60664 0.70171 0.93808 0.0
H555 H 0.67789 0.78477 0.97788 0.0
H556 H 0.62333 0.75725 0.83101 0.0
C557 C 0.62378 0.67443 1.02774 0.0
C558 C 0.79406 0.39737 0.06943 0.0
C559 C 0.78895 0.40028 0.19572 0.0
H560 H 0.83657 0.37946 0.92679 0.0
C561 C 0.81459 0.37366 0.26994 0.0
H562 H 0.77475 0.41706 1.00952 0.0
C563 C 0.85055 0.35258 0.22234 0.0
C564 C 0.86009 0.35692 0.09983 0.0
H565 H 0.81076 0.37454 0.36742 0.0
H566 H 0.87377 0.33814 0.28407 0.0
C567 C 0.82965 0.37583 1.02171 0.0
C568 C 0.08002 0.22065 0.92974 0.0
C569 C 0.05776 0.23364 0.03605 0.0
H570 H 0.08628 0.17534 0.77697 0.0
C571 C 0.02198 0.2077 0.06378 0.0
H572 H 0.10789 0.23907 0.90403 0.0
C573 C 1.0098 0.17036 0.99011 0.0
C574 C 0.03385 0.15613 0.88829 0.0
H575 H 1.00408 0.21542 0.14455 0.0
H576 H 0.9816 0.1521 1.01392 0.0
C577 C 0.06831 0.18311 0.85772 0.0
C578 C 0.32056 0.0244 0.80426 0.0
C579 C 0.30171 0.98445 0.83451 0.0
H580 H 0.37621 0.05617 0.7313 0.0
C581 C 0.32646 0.94695 0.8077 0.0
H582 H 0.30232 0.05422 0.8138 0.0
C583 C 0.37066 0.94945 0.78516 0.0
C584 C 0.39166 0.98953 0.77121 0.0
H585 H 0.31259 0.91481 0.81332 0.0
H586 H 0.38845 0.91921 0.77923 0.0
C587 C 0.36412 0.02616 0.76467 0.0
C588 C 0.45042 0.34305 0.94623 0.0
C589 C 0.48179 0.31965 1.01323 0.0
H590 H 0.43434 0.39922 0.84422 0.0
C591 C 0.52493 0.33392 1.00494 0.0
H592 H 0.41707 0.3327 0.94375 0.0
C593 C 0.53525 0.37216 0.94155 0.0
C594 C 0.50264 0.39814 0.88803 0.0
H595 H 0.5504 0.31728 0.05359 0.0
H596 H 0.56842 0.38305 0.94249 0.0
C597 C 0.46037 0.38166 0.88782 0.0
C598 C 0.1997 0.51522 0.10146 0.0
C599 C 0.23515 0.53511 0.04818 0.0
H600 H 0.13264 0.49727 0.08574 0.0
C601 C 0.22909 0.54903 0.92806 0.0
H602 H 0.20228 0.50562 0.19502 0.0
C603 C 0.18884 0.54516 0.86573 0.0
C604 C 0.15265 0.52746 0.9212 0.0
H605 H 0.25495 0.56587 0.88503 0.0
H606 H 0.1857 0.55799 0.77564 0.0
C607 C 0.1593 0.51121 0.03893 0.0
C608 C 0.9593 0.86162 0.53539 0.0
C609 C 0.9828 0.84353 0.43658 0.0
H610 H 0.95203 0.91352 0.67098 0.0
C611 C 0.02041 0.86617 0.40695 0.0
H612 H 0.93038 0.84551 0.56348 0.0
C613 C 0.03286 0.90556 0.47007 0.0
C614 C 1.00794 0.92469 0.56394 0.0
H615 H 0.03942 0.85443 0.33176 0.0
H616 H 0.0618 0.92192 0.44294 0.0
C617 C 0.97144 0.9012 0.59728 0.0
C618 C 0.70332 1.00304 0.65202 0.0
C619 C 0.72563 0.0431 0.6511 0.0
H620 H 0.64471 0.97002 0.70088 0.0
C621 C 0.70541 0.07888 0.70914 0.0
H622 H 0.71805 0.97388 0.61441 0.0
C623 C 0.66154 0.07791 0.73617 0.0
C624 C 0.63664 0.03967 0.7198 0.0
H625 H 0.72189 0.10996 0.71798 0.0
H626 H 0.64682 0.10822 0.76581 0.0
C627 C 0.6601 1.00115 0.69388 0.0
C628 C 0.59954 0.70313 0.54296 0.0
C629 C 0.57063 0.72051 0.45609 0.0
H630 H 0.61317 0.65313 0.66966 0.0
C631 C 0.52916 0.70168 0.4452 0.0
H632 H 0.63161 0.7167 0.55577 0.0
C633 C 0.51828 0.66495 0.51291 0.0
C634 C 0.54876 0.64567 0.59196 0.0
H635 H 0.50605 0.71353 0.37888 0.0
H636 H 0.48683 0.65018 0.49801 0.0
C637 C 0.58902 0.6663 0.60839 0.0
C638 C 0.85523 0.55009 0.38796 0.0
C639 C 0.81842 0.53235 0.43943 0.0
H640 H 0.9224 0.56477 0.40746 0.0
C641 C 0.82193 0.52134 0.56257 0.0
H642 H 0.85489 0.55658 0.29193 0.0
C643 C 0.86071 0.52735 0.63122 0.0
C644 C 0.89843 0.54234 0.57754 0.0
H645 H 0.79549 0.50474 0.60325 0.0
H646 H 0.86143 0.5183 0.72505 0.0
C647 C 0.89446 0.55457 0.45513 0.0
loop_
_geom_bond_atom_site_label_1
_geom_bond_atom_site_label_2
_geom_bond_distance
_geom_bond_site_symmetry_2
_ccdc_geom_bond_type
H0 C3 0.931 . S
H1 C6 0.928 . S
H2 C8 0.930 . S
C3 H0 0.931 . S
C3 C4 1.413 . S
C3 C5 1.360 . S
C4 C3 1.413 . S
C4 C8 1.429 . S
C5 C3 1.360 . S
C5 C6 1.372 . S
C6 H1 0.928 . S
C6 C5 1.372 . S
C6 C7 1.404 . S
C7 C6 1.404 . S
C7 C8 1.391 . S
C8 H2 0.930 . S
C8 C4 1.429 . S
C8 C7 1.391 . S
H9 C12 0.931 . S
H10 C15 0.928 . S
H11 C17 0.930 . S
C12 H9 0.931 . S
C12 C13 1.413 . S
C12 C14 1.360 . S
C13 C12 1.413 . S
C13 C17 1.429 . S
C14 C12 1.360 . S
C14 C15 1.372 . S
C15 H10 0.928 . S
C15 C14 1.372 . S
C15 C16 1.404 . S
C16 C15 1.404 . S
C16 C17 1.391 . S
C17 H11 0.930 . S
C17 C13 1.429 . S
C17 C16 1.391 . S
H18 C21 0.931 . S
H19 C24 0.928 . S
H20 C26 0.930 . S
C21 H18 0.931 . S
C21 C22 1.413 . S
C21 C23 1.360 . S
C22 C21 1.413 . S
C22 C26 1.429 . S
C23 C21 1.360 . S
C23 C24 1.372 . S
C24 H19 0.928 . S
C24 C23 1.372 . S
C24 C25 1.404 . S
C25 C24 1.404 . S
C25 C26 1.391 . S
C26 H20 0.930 . S
C26 C22 1.429 . S
C26 C25 1.391 . S
H27 C30 0.931 . S
H28 C33 0.928 . S
H29 C35 0.930 . S
C30 H27 0.931 . S
C30 C31 1.413 . S
C30 C32 1.360 . S
C31 C30 1.413 . S
C31 C35 1.429 . S
C32 C30 1.360 . S
C32 C33 1.372 . S
C33 H28 0.928 . S
C33 C32 1.372 . S
C33 C34 1.404 . S
C34 C33 1.404 . S
C34 C35 1.391 . S
C35 H29 0.930 . S
C35 C31 1.429 . S
C35 C34 1.391 . S
H36 C39 0.931 . S
H37 C42 0.928 . S
H38 C44 0.930 . S
C39 H36 0.931 . S
C39 C40 1.413 . S
C39 C41 1.360 1_556 S
C40 C39 1.413 . S
C40 C44 1.429 . S
C41 C39 1.360 1_554 S
C41 C42 1.372 . S
C42 H37 0.928 . S
C42 C41 1.372 . S
C42 C43 1.404 . S
C43 C42 1.404 . S
C43 C44 1.391 1_554 S
C44 H38 0.930 . S
C44 C40 1.429 . S
C44 C43 1.391 1_556 S
H45 C48 0.931 . S
H46 C51 0.928 . S
H47 C53 0.930 . S
C48 H45 0.931 . S
C48 C49 1.413 . S
C48 C50 1.360 1_556 S
C49 C48 1.413 . S
C49 C53 1.429 . S
C50 C48 1.360 1_554 S
C50 C51 1.372 . S
C51 H46 0.928 . S
C51 C50 1.372 . S
C51 C52 1.404 . S
C52 C51 1.404 . S
C52 C53 1.391 1_554 S
C53 H47 0.930 . S
C53 C49 1.429 . S
C53 C52 1.391 1_556 S
H54 C57 0.931 . S
H55 C60 0.928 . S
H56 C62 0.930 . S
C57 H54 0.931 . S
C57 C58 1.413 . S
C57 C59 1.360 1_556 S
C58 C57 1.413 . S
C58 C62 1.429 . S
C59 C57 1.360 1_554 S
C59 C60 1.372 . S
C60 H55 0.928 . S
C60 C59 1.372 . S
C60 C61 1.404 . S
C61 C60 1.404 . S
C61 C62 1.391 1_554 S
C62 H56 0.930 . S
C62 C58 1.429 . S
C62 C61 1.391 1_556 S
H63 C66 0.931 . S
H64 C69 0.928 . S
H65 C71 0.930 . S
C66 H63 0.931 . S
C66 C67 1.413 1_556 S
C66 C68 1.360 . S
C67 C66 1.413 1_554 S
C67 C71 1.429 . S
C68 C66 1.360 . S
C68 C69 1.372 . S
C69 H64 0.928 . S
C69 C68 1.372 . S
C69 C70 1.404 1_556 S
C70 C69 1.404 1_554 S
C70 C71 1.391 . S
C71 H65 0.930 . S
C71 C67 1.429 . S
C71 C70 1.391 . S
Eu72 N103 2.657 1_565 S
Eu72 N110 2.608 1_565 S
Eu72 O116 2.558 . S
Eu72 O117 2.612 1_455 S
Eu72 O119 2.339 1_455 S
Eu72 O120 2.563 . S
Eu72 O121 2.419 . S
Eu72 O123 2.380 1_565 S
Eu72 O124 2.432 . S
Eu72 C136 2.848 . S
C73 C76 1.429 . S
C73 C77 1.411 . S
C73 N80 1.377 1_565 S
C74 C76 1.420 . S
C74 C78 1.423 . S
C74 C86 1.392 . S
C75 C77 1.420 . S
C75 C78 1.351 . S
C75 H98 0.931 . S
C76 C73 1.429 . S
C76 C74 1.420 . S
C76 N84 1.362 . S
C77 C73 1.411 . S
C77 C75 1.420 . S
C77 C82 1.385 1_565 S
C78 C74 1.423 . S
C78 C75 1.351 . S
C78 H90 0.930 . S
C79 C81 1.400 . S
C79 C82 1.399 . S
C79 H91 0.930 . S
N80 C73 1.377 1_545 S
N80 C81 1.321 . S
N80 Eu83 2.609 . S
C81 C79 1.400 . S
C81 N80 1.321 . S
C81 H88 0.930 . S
C82 C77 1.385 1_545 S
C82 C79 1.399 . S
C82 H101 0.927 1_545 S
Eu83 N80 2.609 . S
Eu83 N84 2.657 1_545 S
Eu83 O117 2.380 1_545 S
Eu83 O118 2.432 . S
Eu83 O122 2.558 . S
Eu83 O123 2.612 1_655 S
Eu83 O125 2.339 1_655 S
Eu83 O126 2.563 . S
Eu83 O127 2.419 . S
Eu83 C147 2.848 . S
N84 C76 1.362 . S
N84 Eu83 2.657 1_565 S
N84 C85 1.334 . S
C85 N84 1.334 . S
C85 C87 1.413 . S
C85 H92 0.929 1_655 S
C86 C74 1.392 . S
C86 C87 1.367 . S
C86 H94 0.930 . S
C87 C85 1.413 . S
C87 C86 1.367 . S
C87 H89 0.930 1_655 S
H88 C81 0.930 . S
H89 C87 0.930 1_455 S
H90 C78 0.930 . S
H91 C79 0.930 . S
H92 C85 0.929 1_455 S
H93 C107 0.930 . S
H94 C86 0.930 . S
H95 C113 0.930 . S
H96 C104 0.929 1_655 S
H97 C111 0.930 . S
H98 C75 0.931 . S
H99 C105 0.930 . S
H100 C138 0.930 . S
H101 C82 0.927 1_565 S
H102 C137 0.931 . S
N103 Eu72 2.657 1_545 S
N103 C104 1.334 1_556 S
N103 C108 1.362 1_556 S
C104 H96 0.929 1_455 S
C104 N103 1.334 1_554 S
C104 C107 1.413 . S
C105 H99 0.930 . S
C105 C106 1.392 . S
C105 C107 1.367 . S
C106 C105 1.392 . S
C106 C108 1.420 . S
C106 C138 1.423 . S
C107 H93 0.930 . S
C107 C104 1.413 . S
C107 C105 1.367 . S
C108 N103 1.362 1_554 S
C108 C106 1.420 . S
C108 C112 1.429 1_554 S
H109 C114 0.930 . S
N110 Eu72 2.608 1_545 S
N110 C112 1.378 . S
N110 C113 1.320 1_545 S
C111 H97 0.930 . S
C111 C113 1.400 . S
C111 C114 1.386 1_565 S
C112 C108 1.429 1_556 S
C112 N110 1.378 . S
C112 C115 1.411 . S
C113 H95 0.930 . S
C113 N110 1.320 1_565 S
C113 C111 1.400 . S
C114 H109 0.930 . S
C114 C111 1.386 1_545 S
C114 C115 1.395 . S
C115 C112 1.411 . S
C115 C114 1.395 . S
C115 C137 1.420 1_556 S
O116 Eu72 2.558 . S
O116 C136 1.257 . S
O117 Eu72 2.612 1_655 S
O117 Eu83 2.380 1_565 S
O117 C128 1.276 . S
O118 Eu83 2.432 . S
O118 C135 1.270 . S
O119 Eu72 2.339 1_655 S
O119 C135 1.252 1_565 S
O120 Eu72 2.563 . S
O120 C128 1.235 1_455 S
O121 Eu72 2.419 . S
O121 C136 1.249 . S
O122 Eu83 2.558 . S
O122 C147 1.257 . S
O123 Eu72 2.380 1_545 S
O123 Eu83 2.612 1_455 S
O123 C139 1.276 . S
O124 Eu72 2.432 . S
O124 C146 1.264 1_565 S
O125 Eu83 2.339 1_455 S
O125 C146 1.254 . S
O126 Eu83 2.563 . S
O126 C139 1.235 1_655 S
O127 Eu83 2.419 . S
O127 C147 1.249 . S
C128 O117 1.276 . S
C128 O120 1.235 1_655 S
C129 C131 1.393 . S
C129 C133 1.395 . S
C129 C136 1.492 1_554 S
C130 C131 1.392 . S
C130 C132 1.386 . S
C131 C129 1.393 . S
C131 C130 1.392 . S
C131 H148 0.930 . S
C132 C130 1.386 . S
C132 C134 1.395 . S
C132 H149 0.930 . S
C133 C129 1.395 . S
C133 C134 1.379 . S
C133 H150 0.930 1_554 S
C134 C132 1.395 . S
C134 C133 1.379 . S
C134 H151 0.930 . S
C135 O118 1.270 . S
C135 O119 1.252 1_545 S
C136 Eu72 2.848 . S
C136 O116 1.257 . S
C136 O121 1.249 . S
C136 C129 1.492 1_556 S
C137 H102 0.931 . S
C137 C115 1.420 1_554 S
C137 C138 1.351 . S
C138 H100 0.930 . S
C138 C106 1.423 . S
C138 C137 1.351 . S
C139 O123 1.276 . S
C139 O126 1.235 1_455 S
C140 C141 1.393 . S
C140 C144 1.395 . S
C140 C147 1.492 . S
C141 C140 1.393 . S
C141 C142 1.392 . S
C141 H152 0.930 . S
C142 C141 1.392 . S
C142 C143 1.386 . S
C143 C142 1.386 . S
C143 C145 1.395 . S
C143 H153 0.930 . S
C144 C140 1.395 . S
C144 C145 1.379 . S
C144 H154 0.930 . S
C145 C143 1.395 . S
C145 C144 1.379 . S
C145 H155 0.930 . S
C146 O124 1.264 1_545 S
C146 O125 1.254 . S
C147 Eu83 2.848 . S
C147 O122 1.257 . S
C147 O127 1.249 . S
C147 C140 1.492 . S
H148 C131 0.930 . S
H149 C132 0.930 . S
H150 C133 0.930 1_556 S
H151 C134 0.930 . S
H152 C141 0.930 . S
H153 C143 0.930 . S
H154 C144 0.930 . S
H155 C145 0.930 . S
Eu156 N187 2.657 . S
Eu156 N194 2.609 . S
Eu156 O200 2.558 . S
Eu156 O201 2.612 1_545 S
Eu156 O203 2.339 1_545 S
Eu156 O204 2.563 . S
Eu156 O205 2.419 . S
Eu156 O207 2.380 . S
Eu156 O208 2.432 . S
Eu156 C220 2.848 . S
C157 C160 1.429 . S
C157 C161 1.411 . S
C157 N164 1.377 . S
C158 C160 1.420 . S
C158 C162 1.423 . S
C158 C170 1.392 . S
C159 C161 1.420 . S
C159 C162 1.351 . S
C159 H182 0.931 . S
C160 C157 1.429 . S
C160 C158 1.420 . S
C160 N168 1.362 . S
C161 C157 1.411 . S
C161 C159 1.420 . S
C161 C166 1.395 . S
C162 C158 1.423 . S
C162 C159 1.351 . S
C162 H174 0.930 . S
C163 C165 1.400 . S
C163 C166 1.386 . S
C163 H175 0.930 . S
N164 C157 1.377 . S
N164 C165 1.321 . S
N164 Eu167 2.609 . S
C165 C163 1.400 . S
C165 N164 1.321 . S
C165 H172 0.930 . S
C166 C161 1.395 . S
C166 C163 1.386 . S
C166 H185 0.930 . S
Eu167 N164 2.609 . S
Eu167 N168 2.657 . S
Eu167 O201 2.380 . S
Eu167 O202 2.432 . S
Eu167 O206 2.558 . S
Eu167 O207 2.612 1_565 S
Eu167 O209 2.339 1_565 S
Eu167 O210 2.563 . S
Eu167 O211 2.419 . S
Eu167 C231 2.848 . S
N168 C160 1.362 . S
N168 Eu167 2.657 . S
N168 C169 1.334 . S
C169 N168 1.334 . S
C169 C171 1.413 . S
C169 H176 0.929 1_565 S
C170 C158 1.392 . S
C170 C171 1.367 . S
C170 H178 0.930 . S
C171 C169 1.413 . S
C171 C170 1.367 . S
C171 H173 0.930 1_565 S
H172 C165 0.930 . S
H173 C171 0.930 1_545 S
H174 C162 0.930 . S
H175 C163 0.930 . S
H176 C169 0.929 1_545 S
H177 C191 0.930 . S
H178 C170 0.930 . S
H179 C197 0.930 . S
H180 C188 0.929 1_565 S
H181 C195 0.930 . S
H182 C159 0.931 . S
H183 C189 0.930 . S
H184 C222 0.930 . S
H185 C166 0.930 . S
H186 C221 0.931 . S
N187 Eu156 2.657 . S
N187 C188 1.334 1_556 S
N187 C192 1.362 1_556 S
C188 H180 0.929 1_545 S
C188 N187 1.334 1_554 S
C188 C191 1.413 . S
C189 H183 0.930 . S
C189 C190 1.392 . S
C189 C191 1.367 . S
C190 C189 1.392 . S
C190 C192 1.420 . S
C190 C222 1.423 . S
C191 H177 0.930 . S
C191 C188 1.413 . S
C191 C189 1.367 . S
C192 N187 1.362 1_554 S
C192 C190 1.420 . S
C192 C196 1.429 1_554 S
H193 C198 0.930 . S
N194 Eu156 2.609 . S
N194 C196 1.377 . S
N194 C197 1.321 . S
C195 H181 0.930 . S
C195 C197 1.400 . S
C195 C198 1.386 . S
C196 C192 1.429 1_556 S
C196 N194 1.377 . S
C196 C199 1.408 1_556 S
C197 H179 0.930 . S
C197 N194 1.321 . S
C197 C195 1.400 . S
C198 H193 0.930 . S
C198 C195 1.386 . S
C198 C199 1.390 1_556 S
C199 C196 1.408 1_554 S
C199 C198 1.390 1_554 S
C199 C221 1.427 . S
O200 Eu156 2.558 . S
O200 C220 1.257 . S
O201 Eu156 2.612 1_565 S
O201 Eu167 2.380 . S
O201 C212 1.276 . S
O202 Eu167 2.432 . S
O202 C219 1.264 . S
O203 Eu156 2.339 1_565 S
O203 C219 1.254 . S
O204 Eu156 2.563 . S
O204 C212 1.235 1_545 S
O205 Eu156 2.419 . S
O205 C220 1.249 . S
O206 Eu167 2.558 . S
O206 C231 1.257 . S
O207 Eu156 2.380 . S
O207 Eu167 2.612 1_545 S
O207 C223 1.276 . S
O208 Eu156 2.432 . S
O208 C230 1.264 . S
O209 Eu167 2.339 1_545 S
O209 C230 1.254 . S
O210 Eu167 2.563 . S
O210 C223 1.235 1_565 S
O211 Eu167 2.419 . S
O211 C231 1.249 . S
C212 O201 1.276 . S
C212 O204 1.235 1_565 S
C213 C215 1.393 . S
C213 C217 1.395 . S
C213 C220 1.492 1_554 S
C214 C215 1.392 . S
C214 C216 1.386 . S
C215 C213 1.393 . S
C215 C214 1.392 . S
C215 H232 0.930 . S
C216 C214 1.386 . S
C216 C218 1.395 . S
C216 H233 0.930 . S
C217 C213 1.395 . S
C217 C218 1.379 . S
C217 H234 0.930 1_554 S
C218 C216 1.395 . S
C218 C217 1.379 . S
C218 H235 0.930 . S
C219 O202 1.264 . S
C219 O203 1.254 . S
C220 Eu156 2.848 . S
C220 O200 1.257 . S
C220 O205 1.249 . S
C220 C213 1.492 1_556 S
C221 H186 0.931 . S
C221 C199 1.427 . S
C221 C222 1.351 . S
C222 H184 0.930 . S
C222 C190 1.423 . S
C222 C221 1.351 . S
C223 O207 1.276 . S
C223 O210 1.235 1_545 S
C224 C225 1.393 . S
C224 C228 1.395 . S
C224 C231 1.492 . S
C225 C224 1.393 . S
C225 C226 1.392 . S
C225 H236 0.930 . S
C226 C225 1.392 . S
C226 C227 1.386 . S
C227 C226 1.386 . S
C227 C229 1.395 . S
C227 H237 0.930 . S
C228 C224 1.395 . S
C228 C229 1.379 . S
C228 H238 0.930 . S
C229 C227 1.395 . S
C229 C228 1.379 . S
C229 H239 0.930 . S
C230 O208 1.264 . S
C230 O209 1.254 . S
C231 Eu167 2.848 . S
C231 O206 1.257 . S
C231 O211 1.249 . S
C231 C224 1.492 . S
H232 C215 0.930 . S
H233 C216 0.930 . S
H234 C217 0.930 1_556 S
H235 C218 0.930 . S
H236 C225 0.930 . S
H237 C227 0.930 . S
H238 C228 0.930 . S
H239 C229 0.930 . S
Eu240 N271 2.657 . S
Eu240 N278 2.609 . S
Eu240 O284 2.558 . S
Eu240 O285 2.612 . S
Eu240 O287 2.339 . S
Eu240 O288 2.563 . S
Eu240 O289 2.419 . S
Eu240 O291 2.380 . S
Eu240 O292 2.432 . S
Eu240 C304 2.848 . S
C241 C244 1.429 . S
C241 C245 1.411 . S
C241 N248 1.377 . S
C242 C244 1.420 . S
C242 C246 1.423 . S
C242 C254 1.392 . S
C243 C245 1.420 . S
C243 C246 1.351 . S
C243 H266 0.931 . S
C244 C241 1.429 . S
C244 C242 1.420 . S
C244 N252 1.362 . S
C245 C241 1.411 . S
C245 C243 1.420 . S
C245 C250 1.395 . S
C246 C242 1.423 . S
C246 C243 1.351 . S
C246 H258 0.930 . S
C247 C249 1.400 . S
C247 C250 1.386 . S
C247 H259 0.930 1_556 S
N248 C241 1.377 . S
N248 C249 1.321 . S
N248 Eu251 2.609 . S
C249 C247 1.400 . S
C249 N248 1.321 . S
C249 H256 0.930 . S
C250 C245 1.395 . S
C250 C247 1.386 . S
C250 H269 0.930 . S
Eu251 N248 2.609 . S
Eu251 N252 2.657 . S
Eu251 O285 2.380 . S
Eu251 O286 2.432 . S
Eu251 O290 2.558 1_556 S
Eu251 O291 2.612 . S
Eu251 O293 2.339 . S
Eu251 O294 2.563 . S
Eu251 O295 2.419 . S
Eu251 C315 2.848 1_556 S
N252 C244 1.362 . S
N252 Eu251 2.657 . S
N252 C253 1.334 . S
C253 N252 1.334 . S
C253 C255 1.413 . S
C253 H260 0.929 . S
C254 C242 1.392 . S
C254 C255 1.367 . S
C254 H262 0.930 . S
C255 C253 1.413 . S
C255 C254 1.367 . S
C255 H257 0.930 . S
H256 C249 0.930 . S
H257 C255 0.930 . S
H258 C246 0.930 . S
H259 C247 0.930 1_554 S
H260 C253 0.929 . S
H261 C275 0.930 . S
H262 C254 0.930 . S
H263 C281 0.930 . S
H264 C272 0.929 . S
H265 C279 0.930 . S
H266 C243 0.931 . S
H267 C273 0.930 . S
H268 C306 0.930 . S
H269 C250 0.930 . S
H270 C305 0.931 . S
N271 Eu240 2.657 . S
N271 C272 1.334 . S
N271 C276 1.362 . S
C272 H264 0.929 . S
C272 N271 1.334 . S
C272 C275 1.413 . S
C273 H267 0.930 . S
C273 C274 1.392 . S
C273 C275 1.367 . S
C274 C273 1.392 . S
C274 C276 1.420 . S
C274 C306 1.423 . S
C275 H261 0.930 . S
C275 C272 1.413 . S
C275 C273 1.367 . S
C276 N271 1.362 . S
C276 C274 1.420 . S
C276 C280 1.429 . S
H277 C282 0.930 . S
N278 Eu240 2.609 . S
N278 C280 1.377 . S
N278 C281 1.321 . S
C279 H265 0.930 . S
C279 C281 1.400 . S
C279 C282 1.386 . S
C280 C276 1.429 . S
C280 N278 1.377 . S
C280 C283 1.411 . S
C281 H263 0.930 . S
C281 N278 1.321 . S
C281 C279 1.400 . S
C282 H277 0.930 . S
C282 C279 1.386 . S
C282 C283 1.395 . S
C283 C280 1.411 . S
C283 C282 1.395 . S
C283 C305 1.420 . S
O284 Eu240 2.558 . S
O284 C304 1.257 . S
O285 Eu240 2.612 . S
O285 Eu251 2.380 . S
O285 C296 1.276 . S
O286 Eu251 2.432 . S
O286 C303 1.264 . S
O287 Eu240 2.339 . S
O287 C303 1.254 . S
O288 Eu240 2.563 . S
O288 C296 1.235 . S
O289 Eu240 2.419 . S
O289 C304 1.249 . S
O290 Eu251 2.558 1_554 S
O290 C315 1.257 . S
O291 Eu240 2.380 . S
O291 Eu251 2.612 . S
O291 C307 1.276 . S
O292 Eu240 2.432 . S
O292 C314 1.264 . S
O293 Eu251 2.339 . S
O293 C314 1.254 . S
O294 Eu251 2.563 . S
O294 C307 1.235 . S
O295 Eu251 2.419 . S
O295 C315 1.249 1_556 S
C296 O285 1.276 . S
C296 O288 1.235 . S
C297 C299 1.393 . S
C297 C301 1.395 . S
C297 C304 1.492 . S
C298 C299 1.392 . S
C298 C300 1.386 . S
C299 C297 1.393 . S
C299 C298 1.392 . S
C299 H316 0.930 . S
C300 C298 1.386 . S
C300 C302 1.395 . S
C300 H317 0.930 . S
C301 C297 1.395 . S
C301 C302 1.379 . S
C301 H318 0.930 . S
C302 C300 1.395 . S
C302 C301 1.379 . S
C302 H319 0.930 . S
C303 O286 1.264 . S
C303 O287 1.254 . S
C304 Eu240 2.848 . S
C304 O284 1.257 . S
C304 O289 1.249 . S
C304 C297 1.492 . S
C305 H270 0.931 . S
C305 C283 1.420 . S
C305 C306 1.351 . S
C306 H268 0.930 . S
C306 C274 1.423 . S
C306 C305 1.351 . S
C307 O291 1.276 . S
C307 O294 1.235 . S
C308 C309 1.393 . S
C308 C312 1.395 . S
C308 C315 1.492 . S
C309 C308 1.393 . S
C309 C310 1.392 . S
C309 H320 0.930 . S
C310 C309 1.392 . S
C310 C311 1.386 . S
C311 C310 1.386 . S
C311 C313 1.395 . S
C311 H321 0.930 . S
C312 C308 1.395 . S
C312 C313 1.379 . S
C312 H322 0.930 . S
C313 C311 1.395 . S
C313 C312 1.379 . S
C313 H323 0.930 . S
C314 O292 1.264 . S
C314 O293 1.254 . S
C315 Eu251 2.848 1_554 S
C315 O290 1.257 . S
C315 O295 1.249 1_554 S
C315 C308 1.492 . S
H316 C299 0.930 . S
H317 C300 0.930 . S
H318 C301 0.930 . S
H319 C302 0.930 . S
H320 C309 0.930 . S
H321 C311 0.930 . S
H322 C312 0.930 . S
H323 C313 0.930 . S
Eu324 N355 2.657 . S
Eu324 N362 2.609 . S
Eu324 O368 2.558 . S
Eu324 O369 2.612 . S
Eu324 O371 2.339 . S
Eu324 O372 2.563 . S
Eu324 O373 2.419 . S
Eu324 O375 2.380 1_455 S
Eu324 O376 2.432 1_455 S
Eu324 C388 2.848 . S
C325 C328 1.429 . S
C325 C329 1.411 . S
C325 N332 1.377 . S
C326 C328 1.420 . S
C326 C330 1.423 . S
C326 C338 1.392 . S
C327 C329 1.420 . S
C327 C330 1.351 . S
C327 H350 0.931 . S
C328 C325 1.429 . S
C328 C326 1.420 . S
C328 N336 1.362 . S
C329 C325 1.411 . S
C329 C327 1.420 . S
C329 C334 1.395 1_655 S
C330 C326 1.423 . S
C330 C327 1.351 . S
C330 H342 0.930 . S
C331 C333 1.400 . S
C331 C334 1.386 . S
C331 H343 0.930 1_556 S
N332 C325 1.377 . S
N332 C333 1.321 1_655 S
N332 Eu335 2.609 . S
C333 C331 1.400 . S
C333 N332 1.321 1_455 S
C333 H340 0.930 . S
C334 C329 1.395 1_455 S
C334 C331 1.386 . S
C334 H353 0.930 . S
Eu335 N332 2.609 . S
Eu335 N336 2.657 . S
Eu335 O369 2.380 1_655 S
Eu335 O370 2.432 1_655 S
Eu335 O374 2.558 1_556 S
Eu335 O375 2.612 . S
Eu335 O377 2.339 . S
Eu335 O378 2.563 . S
Eu335 O379 2.419 . S
Eu335 C399 2.848 1_556 S
N336 C328 1.362 . S
N336 Eu335 2.657 . S
N336 C337 1.334 . S
C337 N336 1.334 . S
C337 C339 1.413 . S
C337 H344 0.929 . S
C338 C326 1.392 . S
C338 C339 1.367 . S
C338 H346 0.930 . S
C339 C337 1.413 . S
C339 C338 1.367 . S
C339 H341 0.930 . S
H340 C333 0.930 . S
H341 C339 0.930 . S
H342 C330 0.930 . S
H343 C331 0.930 1_554 S
H344 C337 0.929 . S
H345 C359 0.930 . S
H346 C338 0.930 . S
H347 C365 0.930 . S
H348 C356 0.929 . S
H349 C363 0.930 . S
H350 C327 0.931 . S
H351 C357 0.930 . S
H352 C390 0.930 . S
H353 C334 0.930 . S
H354 C389 0.931 . S
N355 Eu324 2.657 . S
N355 C356 1.334 . S
N355 C360 1.362 . S
C356 H348 0.929 . S
C356 N355 1.334 . S
C356 C359 1.413 . S
C357 H351 0.930 . S
C357 C358 1.392 . S
C357 C359 1.367 . S
C358 C357 1.392 . S
C358 C360 1.420 . S
C358 C390 1.423 . S
C359 H345 0.930 . S
C359 C356 1.413 . S
C359 C357 1.367 . S
C360 N355 1.362 . S
C360 C358 1.420 . S
C360 C364 1.429 . S
H361 C366 0.930 . S
N362 Eu324 2.609 . S
N362 C364 1.377 . S
N362 C365 1.321 1_455 S
C363 H349 0.930 . S
C363 C365 1.400 . S
C363 C366 1.386 . S
C364 C360 1.429 . S
C364 N362 1.377 . S
C364 C367 1.411 . S
C365 H347 0.930 . S
C365 N362 1.321 1_655 S
C365 C363 1.400 . S
C366 H361 0.930 . S
C366 C363 1.386 . S
C366 C367 1.395 1_655 S
C367 C364 1.411 . S
C367 C366 1.395 1_455 S
C367 C389 1.420 . S
O368 Eu324 2.558 . S
O368 C388 1.257 . S
O369 Eu324 2.612 . S
O369 Eu335 2.380 1_455 S
O369 C380 1.276 . S
O370 Eu335 2.432 1_455 S
O370 C387 1.264 . S
O371 Eu324 2.339 . S
O371 C387 1.254 . S
O372 Eu324 2.563 . S
O372 C380 1.235 . S
O373 Eu324 2.419 . S
O373 C388 1.249 . S
O374 Eu335 2.558 1_554 S
O374 C399 1.257 . S
O375 Eu324 2.380 1_655 S
O375 Eu335 2.612 . S
O375 C391 1.276 . S
O376 Eu324 2.432 1_655 S
O376 C398 1.264 . S
O377 Eu335 2.339 . S
O377 C398 1.254 . S
O378 Eu335 2.563 . S
O378 C391 1.235 . S
O379 Eu335 2.419 . S
O379 C399 1.249 1_556 S
C380 O369 1.276 . S
C380 O372 1.235 . S
C381 C383 1.393 . S
C381 C385 1.395 . S
C381 C388 1.492 . S
C382 C383 1.392 . S
C382 C384 1.386 . S
C383 C381 1.393 . S
C383 C382 1.392 . S
C383 H400 0.930 . S
C384 C382 1.386 . S
C384 C386 1.395 . S
C384 H401 0.930 . S
C385 C381 1.395 . S
C385 C386 1.379 . S
C385 H402 0.930 . S
C386 C384 1.395 . S
C386 C385 1.379 . S
C386 H403 0.930 . S
C387 O370 1.264 . S
C387 O371 1.254 . S
C388 Eu324 2.848 . S
C388 O368 1.257 . S
C388 O373 1.249 . S
C388 C381 1.492 . S
C389 H354 0.931 . S
C389 C367 1.420 . S
C389 C390 1.351 . S
C390 H352 0.930 . S
C390 C358 1.423 . S
C390 C389 1.351 . S
C391 O375 1.276 . S
C391 O378 1.235 . S
C392 C393 1.393 . S
C392 C396 1.395 . S
C392 C399 1.492 . S
C393 C392 1.393 . S
C393 C394 1.392 . S
C393 H404 0.930 . S
C394 C393 1.392 . S
C394 C395 1.386 . S
C395 C394 1.386 . S
C395 C397 1.395 . S
C395 H405 0.930 . S
C396 C392 1.395 . S
C396 C397 1.379 . S
C396 H406 0.930 . S
C397 C395 1.395 . S
C397 C396 1.379 . S
C397 H407 0.930 . S
C398 O376 1.264 . S
C398 O377 1.254 . S
C399 Eu335 2.848 1_554 S
C399 O374 1.257 . S
C399 O379 1.249 1_554 S
C399 C392 1.492 . S
H400 C383 0.930 . S
H401 C384 0.930 . S
H402 C385 0.930 . S
H403 C386 0.930 . S
H404 C393 0.930 . S
H405 C395 0.930 . S
H406 C396 0.930 . S
H407 C397 0.930 . S
C408 C409 1.387 . S
C408 H412 0.950 . S
C408 C417 1.390 . S
C409 C408 1.387 . S
C409 C411 1.387 . S
H410 C417 0.950 . S
C411 C409 1.387 . S
C411 C413 1.390 . S
C411 H415 0.950 1_545 S
H412 C408 0.950 . S
C413 C411 1.390 . S
C413 C414 1.387 . S
C413 H416 0.950 1_545 S
C414 C413 1.387 . S
C414 C417 1.387 . S
H415 C411 0.950 1_565 S
H416 C413 0.950 1_565 S
C417 C408 1.390 . S
C417 H410 0.950 . S
C417 C414 1.387 . S
C418 C419 1.387 . S
C418 H422 0.950 . S
C418 C427 1.390 . S
C419 C418 1.387 . S
C419 C421 1.387 . S
H420 C427 0.950 . S
C421 C419 1.387 . S
C421 C423 1.390 . S
C421 H425 0.950 . S
H422 C418 0.950 . S
C423 C421 1.390 . S
C423 C424 1.387 . S
C423 H426 0.950 . S
C424 C423 1.387 . S
C424 C427 1.387 . S
H425 C421 0.950 . S
H426 C423 0.950 . S
C427 C418 1.390 . S
C427 H420 0.950 . S
C427 C424 1.387 . S
C428 C429 1.387 . S
C428 H432 0.950 . S
C428 C437 1.390 . S
C429 C428 1.387 . S
C429 C431 1.387 . S
H430 C437 0.950 . S
C431 C429 1.387 . S
C431 C433 1.390 . S
C431 H435 0.950 . S
H432 C428 0.950 . S
C433 C431 1.390 . S
C433 C434 1.387 . S
C433 H436 0.950 . S
C434 C433 1.387 . S
C434 C437 1.387 . S
H435 C431 0.950 . S
H436 C433 0.950 . S
C437 C428 1.390 . S
C437 H430 0.950 . S
C437 C434 1.387 . S
C438 C439 1.387 . S
C438 H442 0.950 . S
C438 C447 1.390 . S
C439 C438 1.387 . S
C439 C441 1.387 . S
H440 C447 0.950 . S
C441 C439 1.387 . S
C441 C443 1.390 1_455 S
C441 H445 0.950 1_455 S
H442 C438 0.950 . S
C443 C441 1.390 1_655 S
C443 C444 1.385 1_655 S
C443 H446 0.953 . S
C444 C443 1.385 1_455 S
C444 C447 1.387 . S
H445 C441 0.950 1_655 S
H446 C443 0.953 . S
C447 C438 1.390 . S
C447 H440 0.950 . S
C447 C444 1.387 . S
C448 C449 1.387 1_545 S
C448 H452 0.950 . S
C448 C457 1.390 . S
C449 C448 1.387 1_565 S
C449 C451 1.387 . S
H450 C457 0.950 . S
C451 C449 1.387 . S
C451 C453 1.390 . S
C451 H455 0.950 . S
H452 C448 0.950 . S
C453 C451 1.390 . S
C453 C454 1.387 . S
C453 H456 0.950 1_554 S
C454 C453 1.387 . S
C454 C457 1.387 1_565 S
H455 C451 0.950 . S
H456 C453 0.950 1_556 S
C457 C448 1.390 . S
C457 H450 0.950 . S
C457 C454 1.387 1_545 S
C458 C459 1.387 . S
C458 H462 0.950 . S
C458 C467 1.390 . S
C459 C458 1.387 . S
C459 C461 1.387 . S
H460 C467 0.950 1_556 S
C461 C459 1.387 . S
C461 C463 1.390 . S
C461 H465 0.950 . S
H462 C458 0.950 . S
C463 C461 1.390 . S
C463 C464 1.387 . S
C463 H466 0.950 . S
C464 C463 1.387 . S
C464 C467 1.387 . S
H465 C461 0.950 . S
H466 C463 0.950 . S
C467 C458 1.390 . S
C467 H460 0.950 1_554 S
C467 C464 1.387 . S
C468 C469 1.387 . S
C468 H472 0.950 . S
C468 C477 1.390 . S
C469 C468 1.387 . S
C469 C471 1.387 . S
H470 C477 0.950 . S
C471 C469 1.387 . S
C471 C473 1.390 . S
C471 H475 0.950 . S
H472 C468 0.950 . S
C473 C471 1.390 . S
C473 C474 1.387 1_554 S
C473 H476 0.950 1_554 S
C474 C473 1.387 1_556 S
C474 C477 1.387 1_556 S
H475 C471 0.950 . S
H476 C473 0.950 1_556 S
C477 C468 1.390 . S
C477 H470 0.950 . S
C477 C474 1.387 1_554 S
C478 C479 1.387 . S
C478 H482 0.950 . S
C478 C487 1.390 . S
C479 C478 1.387 . S
C479 C481 1.387 . S
H480 C487 0.950 . S
C481 C479 1.387 . S
C481 C483 1.390 . S
C481 H485 0.950 . S
H482 C478 0.950 . S
C483 C481 1.390 . S
C483 C484 1.389 . S
C483 H486 0.950 1_554 S
C484 C483 1.389 . S
C484 C487 1.391 . S
H485 C481 0.950 . S
H486 C483 0.950 1_556 S
C487 C478 1.390 . S
C487 H480 0.950 . S
C487 C484 1.391 . S
C488 C489 1.387 . S
C488 H492 0.950 . S
C488 C497 1.390 1_455 S
C489 C488 1.387 . S
C489 C491 1.387 . S
H490 C497 0.950 . S
C491 C489 1.387 . S
C491 C493 1.390 . S
C491 H495 0.950 . S
H492 C488 0.950 . S
C493 C491 1.390 . S
C493 C494 1.387 1_455 S
C493 H496 0.950 . S
C494 C493 1.387 1_655 S
C494 C497 1.387 . S
H495 C491 0.950 . S
H496 C493 0.950 . S
C497 C488 1.390 1_655 S
C497 H490 0.950 . S
C497 C494 1.387 . S
C498 C499 1.387 . S
C498 H502 0.950 . S
C498 C507 1.390 1_545 S
C499 C498 1.387 . S
C499 C501 1.387 . S
H500 C507 0.950 . S
C501 C499 1.387 . S
C501 C503 1.390 . S
C501 H505 0.950 . S
H502 C498 0.950 . S
C503 C501 1.390 . S
C503 C504 1.387 1_545 S
C503 H506 0.950 . S
C504 C503 1.387 1_565 S
C504 C507 1.387 . S
H505 C501 0.950 . S
H506 C503 0.950 . S
C507 C498 1.390 1_565 S
C507 H500 0.950 . S
C507 C504 1.387 . S
C508 C509 1.387 . S
C508 H512 0.950 1_554 S
C508 C517 1.390 . S
C509 C508 1.387 . S
C509 C511 1.387 . S
H510 C517 0.950 . S
C511 C509 1.387 . S
C511 C513 1.390 . S
C511 H515 0.950 . S
H512 C508 0.950 1_556 S
C513 C511 1.390 . S
C513 C514 1.387 . S
C513 H516 0.950 . S
C514 C513 1.387 . S
C514 C517 1.387 . S
H515 C511 0.950 . S
H516 C513 0.950 . S
C517 C508 1.390 . S
C517 H510 0.950 . S
C517 C514 1.387 . S
C518 C519 1.387 . S
C518 H522 0.950 . S
C518 C527 1.390 . S
C519 C518 1.387 . S
C519 C521 1.387 . S
H520 C527 0.950 . S
C521 C519 1.387 . S
C521 C523 1.390 . S
C521 H525 0.950 . S
H522 C518 0.950 . S
C523 C521 1.390 . S
C523 C524 1.387 . S
C523 H526 0.950 . S
C524 C523 1.387 . S
C524 C527 1.387 . S
H525 C521 0.950 . S
H526 C523 0.950 . S
C527 C518 1.390 . S
C527 H520 0.950 . S
C527 C524 1.387 . S
C528 C529 1.387 . S
C528 H532 0.950 . S
C528 C537 1.390 1_655 S
C529 C528 1.387 . S
C529 C531 1.387 . S
H530 C537 0.950 . S
C531 C529 1.387 . S
C531 C533 1.390 1_655 S
C531 H535 0.950 . S
H532 C528 0.950 . S
C533 C531 1.390 1_455 S
C533 C534 1.387 . S
C533 H536 0.950 . S
C534 C533 1.387 . S
C534 C537 1.387 . S
H535 C531 0.950 . S
H536 C533 0.950 . S
C537 C528 1.390 1_455 S
C537 H530 0.950 . S
C537 C534 1.387 . S
C538 C539 1.387 . S
C538 H542 0.950 . S
C538 C547 1.390 1_565 S
C539 C538 1.387 . S
C539 C541 1.387 1_565 S
H540 C547 0.949 1_565 S
C541 C539 1.387 1_545 S
C541 C543 1.390 . S
C541 H545 0.950 . S
H542 C538 0.950 . S
C543 C541 1.390 . S
C543 C544 1.387 . S
C543 H546 0.950 . S
C544 C543 1.387 . S
C544 C547 1.387 . S
H545 C541 0.950 . S
H546 C543 0.950 . S
C547 C538 1.390 1_545 S
C547 H540 0.949 1_545 S
C547 C544 1.387 . S
C548 C549 1.387 . S
C548 H552 0.950 . S
C548 C557 1.390 . S
C549 C548 1.387 . S
C549 C551 1.387 . S
H550 C557 0.950 . S
C551 C549 1.387 . S
C551 C553 1.390 . S
C551 H555 0.950 . S
H552 C548 0.950 . S
C553 C551 1.390 . S
C553 C554 1.387 . S
C553 H556 0.950 . S
C554 C553 1.387 . S
C554 C557 1.387 . S
H555 C551 0.950 . S
H556 C553 0.950 . S
C557 C548 1.390 . S
C557 H550 0.950 . S
C557 C554 1.387 . S
C558 C559 1.387 . S
C558 H562 0.950 . S
C558 C567 1.390 . S
C559 C558 1.387 . S
C559 C561 1.387 . S
H560 C567 0.950 . S
C561 C559 1.387 . S
C561 C563 1.390 . S
C561 H565 0.950 . S
H562 C558 0.950 . S
C563 C561 1.390 . S
C563 C564 1.387 . S
C563 H566 0.950 . S
C564 C563 1.387 . S
C564 C567 1.387 . S
H565 C561 0.950 . S
H566 C563 0.950 . S
C567 C558 1.390 . S
C567 H560 0.950 . S
C567 C564 1.387 . S
C568 C569 1.387 . S
C568 H572 0.950 . S
C568 C577 1.390 . S
C569 C568 1.387 . S
C569 C571 1.387 . S
H570 C577 0.950 . S
C571 C569 1.387 . S
C571 C573 1.390 . S
C571 H575 0.950 . S
H572 C568 0.950 . S
C573 C571 1.390 . S
C573 C574 1.387 . S
C573 H576 0.950 . S
C574 C573 1.387 . S
C574 C577 1.387 . S
H575 C571 0.950 . S
H576 C573 0.950 . S
C577 C568 1.390 . S
C577 H570 0.950 . S
C577 C574 1.387 . S
C578 C579 1.387 . S
C578 H582 0.950 . S
C578 C587 1.390 . S
C579 C578 1.387 . S
C579 C581 1.387 . S
H580 C587 0.950 . S
C581 C579 1.387 . S
C581 C583 1.390 . S
C581 H585 0.950 1_545 S
H582 C578 0.950 . S
C583 C581 1.390 . S
C583 C584 1.387 . S
C583 H586 0.950 1_545 S
C584 C583 1.387 . S
C584 C587 1.387 . S
H585 C581 0.950 1_565 S
H586 C583 0.950 1_565 S
C587 C578 1.390 . S
C587 H580 0.950 . S
C587 C584 1.387 . S
C588 C589 1.387 . S
C588 H592 0.950 . S
C588 C597 1.390 . S
C589 C588 1.387 . S
C589 C591 1.387 . S
H590 C597 0.950 . S
C591 C589 1.387 . S
C591 C593 1.390 . S
C591 H595 0.950 . S
H592 C588 0.950 . S
C593 C591 1.390 . S
C593 C594 1.387 . S
C593 H596 0.950 . S
C594 C593 1.387 . S
C594 C597 1.387 . S
H595 C591 0.950 . S
H596 C593 0.950 . S
C597 C588 1.390 . S
C597 H590 0.950 . S
C597 C594 1.387 . S
C598 C599 1.387 . S
C598 H602 0.950 . S
C598 C607 1.390 . S
C599 C598 1.387 . S
C599 C601 1.387 . S
H600 C607 0.950 . S
C601 C599 1.387 . S
C601 C603 1.390 . S
C601 H605 0.950 . S
H602 C598 0.950 . S
C603 C601 1.390 . S
C603 C604 1.387 . S
C603 H606 0.950 . S
C604 C603 1.387 . S
C604 C607 1.387 . S
H605 C601 0.950 . S
H606 C603 0.950 . S
C607 C598 1.390 . S
C607 H600 0.950 . S
C607 C604 1.387 . S
C608 C609 1.387 . S
C608 H612 0.950 . S
C608 C617 1.390 . S
C609 C608 1.387 . S
C609 C611 1.387 . S
H610 C617 0.950 . S
C611 C609 1.387 . S
C611 C613 1.390 . S
C611 H615 0.950 . S
H612 C608 0.950 . S
C613 C611 1.390 . S
C613 C614 1.387 . S
C613 H616 0.950 . S
C614 C613 1.387 . S
C614 C617 1.387 . S
H615 C611 0.950 . S
H616 C613 0.950 . S
C617 C608 1.390 . S
C617 H610 0.950 . S
C617 C614 1.387 . S
C618 C619 1.387 . S
C618 H622 0.950 . S
C618 C627 1.390 . S
C619 C618 1.387 . S
C619 C621 1.387 1_565 S
H620 C627 0.950 . S
C621 C619 1.387 1_545 S
C621 C623 1.390 . S
C621 H625 0.950 . S
H622 C618 0.950 . S
C623 C621 1.390 . S
C623 C624 1.387 1_545 S
C623 H626 0.950 . S
C624 C623 1.387 1_565 S
C624 C627 1.387 . S
H625 C621 0.950 . S
H626 C623 0.950 . S
C627 C618 1.390 . S
C627 H620 0.950 . S
C627 C624 1.387 . S
C628 C629 1.387 . S
C628 H632 0.950 . S
C628 C637 1.390 . S
C629 C628 1.387 . S
C629 C631 1.387 . S
H630 C637 0.950 . S
C631 C629 1.387 . S
C631 C633 1.390 . S
C631 H635 0.950 . S
H632 C628 0.950 . S
C633 C631 1.390 . S
C633 C634 1.387 . S
C633 H636 0.950 . S
C634 C633 1.387 . S
C634 C637 1.387 . S
H635 C631 0.950 . S
H636 C633 0.950 . S
C637 C628 1.390 . S
C637 H630 0.950 . S
C637 C634 1.387 . S
C638 C639 1.387 . S
C638 H642 0.950 . S
C638 C647 1.390 . S
C639 C638 1.387 . S
C639 C641 1.387 . S
H640 C647 0.950 . S
C641 C639 1.387 . S
C641 C643 1.390 . S
C641 H645 0.950 . S
H642 C638 0.950 . S
C643 C641 1.390 . S
C643 C644 1.387 . S
C643 H646 0.950 . S
C644 C643 1.387 . S
C644 C647 1.387 . S
H645 C641 0.950 . S
H646 C643 0.950 . S
C647 C638 1.390 . S
C647 H640 0.950 . S
C647 C644 1.387 . S
C409 C61 2.005 . S
C414 C146 2.130 . S
C424 C230 2.137 . S
C419 C70 2.035 . S
C434 C296 2.042 . S
C429 C43 2.084 . S
C444 C380 2.035 . S
C439 C52 2.076 . S
C454 C135 2.127 1_564 S
C449 C25 2.008 . S
C459 C34 2.034 . S
C464 C219 2.139 1_554 S
C469 C7 2.084 . S
C474 C307 2.038 . S
C479 C16 2.082 . S
C484 C391 2.033 1_554 S
C494 C142 1.016 . S
C489 C50 0.937 . S
C504 C226 0.983 . S
C499 C59 0.910 . S
C514 C298 0.922 . S
C509 C67 0.873 . S
C519 C41 0.892 . S
C524 C382 0.954 . S
C529 C14 0.946 . S
C534 C130 1.016 . S
C544 C214 0.982 . S
C539 C23 0.918 . S
C554 C310 0.923 . S
C549 C31 0.877 . S
C559 C5 0.898 . S
C564 C394 0.954 . S
C569 C49 2.138 . S
C574 C139 2.254 . S
C579 C58 2.121 . S
C584 C223 2.239 . S
C594 C303 2.292 . S
C589 C68 2.031 . S
C604 C387 2.305 . S
C599 C40 2.044 . S
C609 C13 2.138 . S
C614 C128 2.254 . S
C624 C212 2.238 . S
C619 C22 2.118 . S
C634 C314 2.291 . S
C629 C32 2.028 . S
C639 C4 2.045 . S
C644 C398 2.305 . S
