# Generated by pormake.
# Topology zzz, (3,6)-cn, num edge types: 1
# Building blocks:
#     Node 0, Type 0, BuildingBlock: KAKCAD_clean_linker_0, # of connection points: 3
#     Node 1, Type 0, BuildingBlock: KAKCAD_clean_linker_0, # of connection points: 3
#     Node 2, Type 0, BuildingBlock: KAKCAD_clean_linker_0, # of connection points: 3
#     Node 3, Type 0, BuildingBlock: KAKCAD_clean_linker_0, # of connection points: 3
#     Node 4, Type 0, BuildingBlock: KAKCAD_clean_linker_0, # of connection points: 3
#     Node 5, Type 0, BuildingBlock: KAKCAD_clean_linker_0, # of connection points: 3
#     Node 6, Type 0, BuildingBlock: KAKCAD_clean_linker_0, # of connection points: 3
#     Node 7, Type 0, BuildingBlock: KAKCAD_clean_linker_0, # of connection points: 3
#     Node 8, Type 1, BuildingBlock: CUWYAW_clean_sbu_0, # of connection points: 6
#     Node 9, Type 1, BuildingBlock: CUWYAW_clean_sbu_0, # of connection points: 6
#     Node 10, Type 1, BuildingBlock: CUWYAW_clean_sbu_0, # of connection points: 6
#     Node 11, Type 1, BuildingBlock: CUWYAW_clean_sbu_0, # of connection points: 6
#     Edge 12, Type (0, 1), BuildingBlock: CIFDUS_clean_linker_0, # of connection points: 2
#     Edge 13, Type (0, 1), BuildingBlock: CIFDUS_clean_linker_0, # of connection points: 2
#     Edge 14, Type (0, 1), BuildingBlock: CIFDUS_clean_linker_0, # of connection points: 2
#     Edge 15, Type (0, 1), BuildingBlock: CIFDUS_clean_linker_0, # of connection points: 2
#     Edge 16, Type (0, 1), BuildingBlock: CIFDUS_clean_linker_0, # of connection points: 2
#     Edge 17, Type (0, 1), BuildingBlock: CIFDUS_clean_linker_0, # of connection points: 2
#     Edge 18, Type (0, 1), BuildingBlock: CIFDUS_clean_linker_0, # of connection points: 2
#     Edge 19, Type (0, 1), BuildingBlock: CIFDUS_clean_linker_0, # of connection points: 2
#     Edge 20, Type (0, 1), BuildingBlock: CIFDUS_clean_linker_0, # of connection points: 2
#     Edge 21, Type (0, 1), BuildingBlock: CIFDUS_clean_linker_0, # of connection points: 2
#     Edge 22, Type (0, 1), BuildingBlock: CIFDUS_clean_linker_0, # of connection points: 2
#     Edge 23, Type (0, 1), BuildingBlock: CIFDUS_clean_linker_0, # of connection points: 2
#     Edge 24, Type (0, 1), BuildingBlock: CIFDUS_clean_linker_0, # of connection points: 2
#     Edge 25, Type (0, 1), BuildingBlock: CIFDUS_clean_linker_0, # of connection points: 2
#     Edge 26, Type (0, 1), BuildingBlock: CIFDUS_clean_linker_0, # of connection points: 2
#     Edge 27, Type (0, 1), BuildingBlock: CIFDUS_clean_linker_0, # of connection points: 2
#     Edge 28, Type (0, 1), BuildingBlock: CIFDUS_clean_linker_0, # of connection points: 2
#     Edge 29, Type (0, 1), BuildingBlock: CIFDUS_clean_linker_0, # of connection points: 2
#     Edge 30, Type (0, 1), BuildingBlock: CIFDUS_clean_linker_0, # of connection points: 2
#     Edge 31, Type (0, 1), BuildingBlock: CIFDUS_clean_linker_0, # of connection points: 2
#     Edge 32, Type (0, 1), BuildingBlock: CIFDUS_clean_linker_0, # of connection points: 2
#     Edge 33, Type (0, 1), BuildingBlock: CIFDUS_clean_linker_0, # of connection points: 2
#     Edge 34, Type (0, 1), BuildingBlock: CIFDUS_clean_linker_0, # of connection points: 2
#     Edge 35, Type (0, 1), BuildingBlock: CIFDUS_clean_linker_0, # of connection points: 2
# Relax obj value: 0.447
# Max RMSD: 0.248
# Mean RMSD: 0.231
data_MOF--net-zzz--node1-CUWYAW_clean_sbu_0--node2-KAKCAD_clean_linker_0--edge1-CIFDUS_clean_linker_0
_symmetry_space_group_name_H-M    P1
_symmetry_Int_Tables_number       1
_symmetry_cell_setting            triclinic
loop_
_symmetry_equiv_pos_as_xyz
'x, y, z'
_cell_length_a     51.998191
_cell_length_b     52.008812
_cell_length_c     17.081982
_cell_angle_alpha  89.7974
_cell_angle_beta   89.927689
_cell_angle_gamma 90.013817
loop_
_atom_site_label
_atom_site_type_symbol
_atom_site_fract_x
_atom_site_fract_y
_atom_site_fract_z
_atom_type_partial_charge
C0 C 0.78116 0.42615 0.09567 0.0
C1 C 0.79738 0.40702 0.12688 0.0
C2 C 0.76257 0.43788 0.14232 0.0
C3 C 0.75991 0.43093 0.22135 0.0
C4 C 0.77391 0.40982 0.25007 0.0
C5 C 0.7923 0.39777 0.20295 0.0
C6 C 0.74682 0.44887 0.27557 0.0
C7 C 0.72334 0.46019 0.25529 0.0
C8 C 0.71396 0.48162 0.29612 0.0
C9 C 0.72845 0.49186 0.3587 0.0
C10 C 0.75156 0.47973 0.38216 0.0
C11 C 0.76029 0.45821 0.34045 0.0
C12 C 0.76871 0.49007 0.44443 0.0
C13 C 0.77958 0.51469 0.4373 0.0
C14 C 0.77843 0.47331 0.50204 0.0
C15 C 0.79967 0.48024 0.54758 0.0
C16 C 0.8119 0.50412 0.53659 0.0
C17 C 0.69009 0.49377 0.26608 0.0
C18 C 0.69163 0.51597 0.21925 0.0
C19 C 0.66697 0.4798 0.26759 0.0
C20 C 0.64647 0.48679 0.21891 0.0
C21 C 0.64876 0.50764 0.16666 0.0
C22 C 0.67113 0.52287 0.17001 0.0
C23 C 0.80098 0.52163 0.48279 0.0
H24 H 0.78438 0.43402 0.03775 0.0
H25 H 0.75215 0.45417 0.11854 0.0
H26 H 0.77189 0.40381 0.31056 0.0
H27 H 0.80385 0.38254 0.2282 0.0
H28 H 0.71294 0.45312 0.20469 0.0
H29 H 0.77888 0.44999 0.35478 0.0
H30 H 0.72184 0.50895 0.3887 0.0
H31 H 0.77271 0.52789 0.39282 0.0
H32 H 0.77055 0.45413 0.50842 0.0
H33 H 0.8075 0.46613 0.58776 0.0
H34 H 0.70944 0.52674 0.2159 0.0
H35 H 0.66541 0.46247 0.30266 0.0
H36 H 0.80959 0.54036 0.4736 0.0
H37 H 0.67362 0.53899 0.1304 0.0
H38 H 0.62926 0.47509 0.21909 0.0
C39 C 0.12645 0.77158 0.12636 0.0
C40 C 0.13856 0.79321 0.15907 0.0
C41 C 0.10987 0.7565 0.17161 0.0
C42 C 0.10617 0.76193 0.25159 0.0
C43 C 0.12279 0.77979 0.28703 0.0
C44 C 0.13843 0.79566 0.24115 0.0
C45 C 0.08221 0.75325 0.29264 0.0
C46 C 0.06939 0.73073 0.27026 0.0
C47 C 0.04383 0.72587 0.29348 0.0
C48 C 0.03146 0.74341 0.34446 0.0
C49 C 0.04482 0.76519 0.37246 0.0
C50 C 0.06983 0.76994 0.345 0.0
C51 C 0.03309 0.78485 0.42524 0.0
C52 C 1.00994 0.79723 0.40586 0.0
C53 C 0.04767 0.79463 0.48778 0.0
C54 C 0.04055 0.81736 0.52557 0.0
C55 C 1.01837 0.83097 0.50277 0.0
C56 C 0.03001 0.70404 0.25524 0.0
C57 C 1.00621 0.708 0.21831 0.0
C58 C 0.04279 0.68055 0.24269 0.0
C59 C 0.03351 0.66275 0.18832 0.0
C60 C 1.01087 0.6677 0.14568 0.0
C61 C 0.99669 0.69 0.16453 0.0
C62 C 1.00263 0.81999 0.4443 0.0
H63 H 0.1274 0.76797 0.06404 0.0
H64 H 0.09817 0.74252 0.1414 0.0
H65 H 0.12185 0.78341 0.34935 0.0
H66 H 0.14803 0.81149 0.26982 0.0
H67 H 0.07874 0.71767 0.23013 0.0
H68 H 0.07888 0.78795 0.36072 0.0
H69 H 1.01172 0.74013 0.36222 0.0
H70 H 0.99833 0.79028 0.35776 0.0
H71 H 0.0656 0.7855 0.50431 0.0
H72 H 0.05344 0.82499 0.56941 0.0
H73 H 0.99581 0.72583 0.22661 0.0
H74 H 0.06099 0.67669 0.27119 0.0
H75 H 0.98507 0.82945 0.42612 0.0
H76 H 0.97875 0.69421 0.13509 0.0
H77 H 0.04515 0.64598 0.17621 0.0
C78 C 0.74183 0.1213 0.09364 0.0
C79 C 0.72624 0.13983 0.1302 0.0
C80 C 0.7597 0.10724 0.13708 0.0
C81 C 0.76225 0.11139 0.21788 0.0
C82 C 0.7491 0.13209 0.25219 0.0
C83 C 0.73133 0.1463 0.20857 0.0
C84 C 0.77419 0.09119 0.2674 0.0
C85 C 0.79712 0.07927 0.24484 0.0
C86 C 0.80561 0.05663 0.28191 0.0
C87 C 0.79061 0.04582 0.34288 0.0
C88 C 0.76793 0.05829 0.36832 0.0
C89 C 0.76016 0.08096 0.33017 0.0
C90 C 0.7502 0.04714 0.42836 0.0
C91 C 0.74154 0.02164 0.42249 0.0
C92 C 0.73818 0.06343 0.48297 0.0
C93 C 0.71647 0.05532 0.52473 0.0
C94 C 0.70627 0.03054 0.51379 0.0
C95 C 0.8291 0.04395 0.25046 0.0
C96 C 0.82824 1.01858 0.22266 0.0
C97 C 0.85124 0.05874 0.23579 0.0
C98 C 0.87123 0.04913 0.18959 0.0
C99 C 0.86966 0.02443 0.15664 0.0
C100 C 0.84829 1.00893 0.17607 0.0
C101 C 0.71988 1.01341 0.4649 0.0
H102 H 0.73844 0.11568 0.03355 0.0
H103 H 0.7695 0.09138 0.10895 0.0
H104 H 0.75109 0.13598 0.31415 0.0
H105 H 0.72005 0.16088 0.23794 0.0
H106 H 0.80776 0.08698 0.19539 0.0
H107 H 0.74184 0.08958 0.34537 0.0
H108 H 0.79656 0.02797 0.37028 0.0
H109 H 0.75032 1.0086 0.38101 0.0
H110 H 0.74456 0.08314 0.48949 0.0
H111 H 0.70671 0.0692 0.56134 0.0
H112 H 0.81136 1.0068 0.23258 0.0
H113 H 0.85244 0.07837 0.25653 0.0
H114 H 0.71309 0.99394 0.45645 0.0
H115 H 0.84659 0.98967 0.15279 0.0
H116 H 0.88715 0.06178 0.17568 0.0
C117 C 0.50218 0.73684 0.57185 0.0
C118 C 0.51336 0.71523 0.5354 0.0
C119 C 0.49598 0.75888 0.52828 0.0
C120 C 0.50147 0.76008 0.44797 0.0
C121 C 0.51466 0.73959 0.413 0.0
C122 C 0.52044 0.7174 0.45595 0.0
C123 C 0.48715 0.77802 0.39684 0.0
C124 C 0.49831 0.80032 0.36458 0.0
C125 C 0.48524 0.81412 0.30559 0.0
C126 C 0.46157 0.80494 0.27737 0.0
C127 C 0.45073 0.78232 0.30791 0.0
C128 C 0.46321 0.76967 0.36965 0.0
C129 C 0.43042 0.76813 0.26508 0.0
C130 C 0.41159 0.75425 0.30658 0.0
C131 C 0.43409 0.76288 0.18529 0.0
C132 C 0.42222 0.74163 0.15112 0.0
C133 C 0.40638 0.72533 0.19613 0.0
C134 C 0.49759 0.83578 0.26387 0.0
C135 C 0.49153 0.86131 0.28265 0.0
C136 C 0.51266 0.83078 0.19764 0.0
C137 C 0.52091 0.85089 0.14928 0.0
C138 C 0.51438 0.87659 0.16622 0.0
C139 C 0.50001 0.88156 0.23464 0.0
C140 C 0.39961 0.73303 0.27228 0.0
H141 H 0.49699 0.7363 0.63322 0.0
H142 H 0.48534 0.77426 0.55611 0.0
H143 H 0.51844 0.73981 0.35059 0.0
H144 H 0.52867 0.70129 0.42483 0.0
H145 H 0.51736 0.80626 0.38278 0.0
H146 H 0.45566 0.75153 0.3913 0.0
H147 H 0.45244 0.8145 0.2282 0.0
H148 H 0.4081 0.75818 0.36792 0.0
H149 H 0.44851 0.77317 0.15171 0.0
H150 H 0.42793 0.73641 0.0923 0.0
H151 H 0.47961 0.86551 0.33307 0.0
H152 H 0.51707 0.81115 0.18134 0.0
H153 H 0.38692 0.72128 0.30783 0.0
H154 H 0.49488 0.90103 0.25043 0.0
H155 H 0.53141 0.84607 0.09659 0.0
C156 C 0.23757 0.64401 0.22854 0.0
C157 C 0.232 0.63844 0.30764 0.0
C158 C 0.25422 0.62823 0.18578 0.0
C159 C 0.2663 0.60722 0.22204 0.0
C160 C 0.26347 0.60378 0.30302 0.0
C161 C 0.24641 0.61906 0.34526 0.0
C162 C 0.27737 0.58605 0.17519 0.0
C163 C 0.30065 0.57464 0.19722 0.0
C164 C 0.30802 0.55057 0.16741 0.0
C165 C 0.29149 0.53783 0.11432 0.0
C166 C 0.2685 0.54979 0.08932 0.0
C167 C 0.26192 0.57396 0.11925 0.0
C168 C 0.24897 0.53662 0.0404 0.0
C169 C 0.24593 0.54347 0.9614 0.0
C170 C 0.22958 0.52217 0.07705 0.0
C171 C 0.20704 0.51572 0.03671 0.0
C172 C 0.20327 0.52348 0.9583 0.0
C173 C 0.33136 0.53822 0.20147 0.0
C174 C 0.35438 0.55233 0.20776 0.0
C175 C 0.32937 0.5147 0.2416 0.0
C176 C 0.34897 0.50669 0.29253 0.0
C177 C 0.37106 0.52195 0.30405 0.0
C178 C 0.37405 0.54424 0.25815 0.0
C179 C 0.22349 0.53675 0.92055 0.0
H180 H 0.22769 0.65935 0.19799 0.0
H181 H 0.25639 0.63145 0.12342 0.0
H182 H 0.27245 0.58761 0.33241 0.0
H183 H 0.24284 0.61379 0.40561 0.0
H184 H 0.31221 0.58377 0.24204 0.0
H185 H 0.24348 0.58234 0.10389 0.0
H186 H 0.29623 0.51872 0.09377 0.0
H187 H 0.26036 0.55512 0.93236 0.0
H188 H 0.23112 0.51735 0.13864 0.0
H189 H 0.19197 0.50592 0.06883 0.0
H190 H 0.35645 0.57057 0.17752 0.0
H191 H 0.31182 0.50351 0.23847 0.0
H192 H 0.22173 0.54268 0.86 0.0
H193 H 0.3907 0.55651 0.26558 0.0
H194 H 0.3462 0.48923 0.32624 0.0
C195 C 0.08578 0.27526 0.39246 0.0
C196 C 0.09212 0.24928 0.381 0.0
C197 C 0.08396 0.2919 0.32853 0.0
C198 C 0.08991 0.28321 0.25248 0.0
C199 C 0.10266 0.25945 0.2456 0.0
C200 C 0.10313 0.24232 0.30869 0.0
C201 C 0.07736 0.29537 0.18259 0.0
C202 C 0.06866 0.32085 0.18517 0.0
C203 C 0.04925 0.32969 0.13452 0.0
C204 C 0.04019 0.3133 0.07449 0.0
C205 C 0.05113 0.28862 0.06503 0.0
C206 C 0.06914 0.27989 0.12018 0.0
C207 C 0.04314 0.26998 1.00338 0.0
C208 C 1.01785 0.26044 1.00008 0.0
C209 C 0.06237 0.25733 0.96007 0.0
C210 C 0.05705 0.23448 0.92041 0.0
C211 C 0.03227 0.22378 0.92198 0.0
C212 C 0.03639 0.35424 0.15641 0.0
C213 C 1.01072 0.35378 0.18199 0.0
C214 C 0.05148 0.37594 0.17405 0.0
C215 C 0.04225 0.39505 0.22437 0.0
C216 C 1.01763 0.39297 0.25801 0.0
C217 C 1.00142 0.37297 0.23217 0.0
C218 C 1.01243 0.23757 0.95929 0.0
H219 H 0.0791 0.28199 0.44883 0.0
H220 H 0.07505 0.31035 0.33876 0.0
H221 H 0.10959 0.25276 0.18949 0.0
H222 H 0.10938 0.22287 0.29719 0.0
H223 H 0.07526 0.33334 0.23153 0.0
H224 H 0.07507 0.25998 0.11701 0.0
H225 H 0.02491 0.31966 0.03595 0.0
H226 H 1.00274 0.26951 0.0338 0.0
H227 H 0.08205 0.26417 0.96168 0.0
H228 H 0.07265 0.2245 0.89138 0.0
H229 H 0.99865 0.33728 0.16989 0.0
H230 H 0.07139 0.37678 0.15532 0.0
H231 H 0.99313 0.22976 0.96149 0.0
H232 H 0.9821 0.37109 0.25525 0.0
H233 H 0.05533 0.41009 0.24249 0.0
C234 C 0.28528 0.90575 0.30941 0.0
C235 C 0.2918 0.91704 0.38167 0.0
C236 C 0.26908 0.91858 0.25693 0.0
C237 C 0.25835 0.94238 0.27704 0.0
C238 C 0.26244 0.95224 0.35219 0.0
C239 C 0.27913 0.93986 0.40372 0.0
C240 C 0.24645 0.95904 0.21713 0.0
C241 C 0.22248 0.9702 0.23057 0.0
C242 C 0.21323 0.98995 0.18201 0.0
C243 C 0.2287 0.99893 0.11942 0.0
C244 C 0.25269 0.98711 0.10374 0.0
C245 C 0.2611 0.96705 0.15285 0.0
C246 C 0.27082 0.99648 0.04202 0.0
C247 C 0.28452 0.9786 0.99645 0.0
C248 C 0.27804 0.02248 0.03807 0.0
C249 C 0.29982 0.03 0.99494 0.0
C250 C 0.31492 1.01168 0.95494 0.0
C251 C 0.18812 1.00154 0.20339 0.0
C252 C 0.16649 0.9855 0.21015 0.0
C253 C 0.18705 0.0263 0.23559 0.0
C254 C 0.16561 0.03397 0.27981 0.0
C255 C 0.14489 1.01695 0.29289 0.0
C256 C 0.14514 0.99308 0.25422 0.0
C257 C 0.30628 0.98605 0.95379 0.0
H258 H 0.29389 0.8878 0.29117 0.0
H259 H 0.26591 0.91055 0.19931 0.0
H260 H 0.25447 0.9707 0.36869 0.0
H261 H 0.28363 0.94954 0.45795 0.0
H262 H 0.21139 0.96419 0.28132 0.0
H263 H 0.28011 0.95891 0.14467 0.0
H264 H 0.22209 1.01477 0.08332 0.0
H265 H 0.27933 0.95843 0.99779 0.0
H266 H 0.26797 0.03672 0.0726 0.0
H267 H 0.30546 0.05004 0.99578 0.0
H268 H 0.16696 0.96619 0.18653 0.0
H269 H 0.2036 0.03892 0.23198 0.0
H270 H 0.31726 0.97128 0.92433 0.0
H271 H 0.1298 0.97929 0.26291 0.0
H272 H 0.1659 0.05271 0.30718 0.0
C273 C 0.49827 0.31042 0.9876 0.0
C274 C 0.5146 0.32197 0.93166 0.0
C275 C 0.50582 0.28807 0.02757 0.0
C276 C 0.52984 0.27677 1.0124 0.0
C277 C 0.54503 0.28693 0.95149 0.0
C278 C 0.53755 0.30926 0.91176 0.0
C279 C 0.54129 0.25819 0.0691 0.0
C280 C 0.52732 0.23726 0.10039 0.0
C281 C 0.5379 0.22234 0.16142 0.0
C282 C 0.56206 0.22875 0.19216 0.0
C283 C 0.57573 0.24997 0.16341 0.0
C284 C 0.56557 0.26401 0.10042 0.0
C285 C 0.59733 0.26115 0.20861 0.0
C286 C 0.59413 0.26543 0.28913 0.0
C287 C 0.6184 0.27247 0.17008 0.0
C288 C 0.63392 0.29028 0.209 0.0
C289 C 0.62835 0.29735 0.28669 0.0
C290 C 0.523 0.20205 0.2017 0.0
C291 C 0.50978 0.20809 0.27074 0.0
C292 C 0.52602 0.17619 0.18073 0.0
C293 C 0.51683 0.15656 0.22986 0.0
C294 C 0.50465 0.1625 0.30135 0.0
C295 C 0.50067 0.18858 0.31997 0.0
C296 C 0.60942 0.28338 0.32773 0.0
H297 H 0.48018 0.31935 1.0033 0.0
H298 H 0.49372 0.2808 0.07434 0.0
H299 H 0.5636 0.27855 0.93816 0.0
H300 H 0.55072 0.3175 0.86941 0.0
H301 H 0.50817 0.23305 0.07907 0.0
H302 H 0.57548 0.28121 0.08077 0.0
H303 H 0.56952 0.21806 0.24183 0.0
H304 H 0.57803 0.25709 0.32053 0.0
H305 H 0.62158 0.26913 0.10826 0.0
H306 H 0.64886 0.30008 0.17625 0.0
H307 H 0.50779 0.22795 0.28882 0.0
H308 H 0.53651 0.17125 0.1282 0.0
H309 H 0.60437 0.28818 0.38742 0.0
H310 H 0.49184 0.19404 0.37487 0.0
H311 H 0.51996 0.13676 0.21293 0.0
C312 C 0.98584 0.0523 0.58243 0.0
Eu313 Eu 1.00526 0.0288 0.70223 0.0
C314 C 0.99474 0.0772 0.55079 0.0
C315 C 0.99369 0.09939 0.59746 0.0
C316 C 1.00897 0.12064 0.57968 0.0
C317 C 0.0253 0.12035 0.51407 0.0
C318 C 0.02464 0.09903 0.46368 0.0
C319 C 1.00949 0.07767 0.48186 0.0
C320 C 0.98158 1.0147 0.83765 0.0
C321 C 0.02889 0.07346 0.81493 0.0
C322 C 0.06769 0.99437 0.94027 0.0
Eu323 Eu 0.0418 1.01485 0.82557 0.0
C324 C 0.0837 0.9713 0.94611 0.0
C325 C 0.0888 0.95663 0.87913 0.0
C326 C 0.10204 0.93339 0.88549 0.0
C327 C 0.11034 0.92444 0.95901 0.0
C328 C 0.10632 0.93993 0.02538 0.0
C329 C 0.09304 0.9632 0.01891 0.0
C330 C 0.06493 0.03013 0.68999 0.0
C331 C 1.01789 0.96916 0.71352 0.0
O332 O 1.00259 0.0337 0.57597 0.0
O333 O 0.97495 0.05265 0.65157 0.0
O334 O 0.97312 1.00891 0.76833 0.0
O335 O 1.00156 0.02843 0.83222 0.0
O336 O 0.02146 0.06766 0.74306 0.0
O337 O 0.0338 0.05503 0.86575 0.0
O338 O 0.04314 0.99023 0.929 0.0
O339 O 0.07675 1.01255 0.89513 0.0
O340 O 0.07306 0.03599 0.7592 0.0
O341 O 0.04562 1.01558 0.69556 0.0
O342 O 0.03078 0.97537 0.77756 0.0
O343 O 1.00684 0.98694 0.66987 0.0
H344 H 0.98241 0.09975 0.65074 0.0
H345 H 1.00895 0.13674 0.61974 0.0
H346 H 0.03643 0.09854 0.41138 0.0
H347 H 1.01063 0.06084 0.44477 0.0
H348 H 0.08186 0.96278 0.82229 0.0
H349 H 0.10501 0.92199 0.83331 0.0
H350 H 0.11214 0.93341 0.08298 0.0
H351 H 0.0893 0.9744 0.07106 0.0
C352 C 0.49844 0.96768 0.57029 0.0
Eu353 Eu 0.50924 0.9997 0.68246 0.0
C354 C 0.4777 0.94982 0.54995 0.0
C355 C 0.46319 0.93721 0.60783 0.0
C356 C 0.44202 0.92216 0.58682 0.0
C357 C 0.4348 0.91983 0.50771 0.0
C358 C 0.45012 0.93185 0.4501 0.0
C359 C 0.47138 0.94658 0.47111 0.0
C360 C 0.51897 0.98402 0.8319 0.0
C361 C 0.45678 1.01927 0.76984 0.0
C362 C 0.52324 0.07459 0.90354 0.0
Eu363 Eu 0.51286 0.0421 0.79183 0.0
C364 C 0.54435 0.09156 0.92696 0.0
C365 C 0.54036 0.10954 0.98652 0.0
C366 C 0.5609 0.12416 1.01457 0.0
C367 C 0.5858 0.12089 0.98384 0.0
C368 C 0.58935 0.10365 0.92132 0.0
C369 C 0.56876 0.0892 0.89297 0.0
C370 C 0.50261 0.05746 0.64235 0.0
C371 C 0.56516 0.02235 0.70386 0.0
O372 O 0.49246 0.9921 0.56805 0.0
O373 O 0.51257 0.96165 0.63083 0.0
O374 O 0.53024 0.97477 0.77051 0.0
O375 O 0.50313 1.00114 0.81175 0.0
O376 O 0.46663 1.00752 0.70801 0.0
O377 O 0.47188 0.03157 0.81895 0.0
O378 O 0.5278 0.0499 0.90829 0.0
O379 O 0.51108 0.08091 0.83953 0.0
O380 O 0.4913 0.06663 0.70381 0.0
O381 O 0.51879 0.04068 0.66256 0.0
O382 O 0.5555 0.03354 0.76696 0.0
O383 O 0.54983 1.01077 0.65392 0.0
H384 H 0.46779 0.93954 0.66924 0.0
H385 H 0.43092 0.91296 0.63271 0.0
H386 H 0.44499 0.93109 0.38875 0.0
H387 H 0.48234 0.95627 0.42576 0.0
H388 H 0.52153 0.11176 1.01289 0.0
H389 H 0.55744 0.13742 0.06202 0.0
H390 H 0.60827 0.10028 0.89685 0.0
H391 H 0.57206 0.07555 0.84639 0.0
C392 C 0.56602 0.49966 0.5022 0.0
Eu393 Eu 0.54208 0.50688 0.63397 0.0
C394 C 0.58295 0.48032 0.46612 0.0
C395 C 0.60384 0.46957 0.5068 0.0
C396 C 0.61857 0.45006 0.47266 0.0
C397 C 0.61249 0.44074 0.39765 0.0
C398 C 0.59207 0.45229 0.35634 0.0
C399 C 0.57757 0.47191 0.39014 0.0
C400 C 0.56356 0.50254 0.77792 0.0
C401 C 0.51621 0.46192 0.73487 0.0
C402 C 0.48796 0.53627 0.91063 0.0
Eu403 Eu 0.50613 0.52216 0.7759 0.0
C404 C 0.47033 0.55705 0.93368 0.0
C405 C 0.45295 0.55342 0.99553 0.0
C406 C 0.4364 0.57333 0.01796 0.0
C407 C 0.43708 0.59725 0.97899 0.0
C408 C 0.45413 0.60043 0.91562 0.0
C409 C 0.47042 0.58052 0.89293 0.0
C410 C 0.47776 0.51847 0.641 0.0
C411 C 0.52774 0.56776 0.66555 0.0
O412 O 0.54208 0.49265 0.5141 0.0
O413 O 0.57559 0.51309 0.56012 0.0
O414 O 0.5688 0.48744 0.71975 0.0
O415 O 0.54848 0.52027 0.75635 0.0
O416 O 0.52399 0.46858 0.66366 0.0
O417 O 0.51204 0.47917 0.79049 0.0
O418 O 0.51051 0.54354 0.88416 0.0
O419 O 0.47775 0.51776 0.86923 0.0
O420 O 0.46807 0.52428 0.70858 0.0
O421 O 0.50147 0.51503 0.65001 0.0
O422 O 0.51447 0.5619 0.72925 0.0
O423 O 0.53886 0.55018 0.62097 0.0
H424 H 0.60848 0.47581 0.56553 0.0
H425 H 0.63435 0.44191 0.50576 0.0
H426 H 0.58641 0.44543 0.29915 0.0
H427 H 0.56158 0.48 0.35772 0.0
H428 H 0.45233 0.53529 0.02688 0.0
H429 H 0.4233 0.57007 0.06631 0.0
H430 H 0.45562 0.61864 0.88502 0.0
H431 H 0.48344 0.58368 0.8443 0.0
C432 C 0.03135 0.57623 0.51926 0.0
Eu433 Eu 1.01684 0.55065 0.64287 0.0
C434 C 0.05093 0.5943 0.49081 0.0
C435 C 0.06262 0.61241 0.54006 0.0
C436 C 0.08208 0.62848 0.51104 0.0
C437 C 0.09025 0.62649 0.43259 0.0
C438 C 0.07784 0.60866 0.38352 0.0
C439 C 0.05837 0.59285 0.41232 0.0
C440 C 1.00345 0.56953 0.78596 0.0
C441 C 0.06472 0.52868 0.74865 0.0
C442 C 0.99308 0.48846 0.90697 0.0
Eu443 Eu 1.00524 0.50922 0.77368 0.0
C444 C 0.97496 0.46936 0.93798 0.0
C445 C 0.96447 0.45014 0.89016 0.0
C446 C 0.94599 0.43319 0.92021 0.0
C447 C 0.9376 0.43537 0.99832 0.0
C448 C 0.94877 0.45434 0.04613 0.0
C449 C 0.9673 0.47109 1.01623 0.0
C450 C 1.00869 0.48569 0.6308 0.0
C451 C 0.95924 0.52862 0.65914 0.0
O452 O 0.03919 0.55287 0.53517 0.0
O453 O 1.01452 0.5849 0.56973 0.0
O454 O 0.99752 0.58049 0.72 0.0
O455 O 1.01729 0.55012 0.77282 0.0
O456 O 0.05716 0.54381 0.69022 0.0
O457 O 0.04838 0.51425 0.78929 0.0
O458 O 0.98288 0.51 0.88138 0.0
O459 O 1.01157 0.47976 0.86195 0.0
O460 O 1.004 0.47346 0.69566 0.0
O461 O 1.01122 0.50914 0.64672 0.0
O462 O 0.96506 0.52036 0.73064 0.0
O463 O 0.97711 0.53728 0.61059 0.0
H464 H 0.05702 0.61382 0.60101 0.0
H465 H 0.09101 0.64209 0.55036 0.0
H466 H 0.08389 0.60597 0.32344 0.0
H467 H 0.04955 0.57896 0.37357 0.0
H468 H 0.9702 0.44857 0.82936 0.0
H469 H 0.93797 0.41871 0.88194 0.0
H470 H 0.94244 0.45708 0.10593 0.0
H471 H 0.97514 0.4859 0.05377 0.0
H472 H 0.15127 0.0409 0.43355 0.0
H473 H 0.09328 1.00459 0.29104 0.0
H474 H 0.06285 1.00651 0.39995 0.0
H475 H 0.05392 1.01507 0.54008 0.0
H476 H 0.1119 0.05253 0.67955 0.0
H477 H 0.14078 0.05405 0.56709 0.0
C478 C 0.1318 0.03402 0.42514 0.0
C479 C 0.12486 0.02232 0.35389 0.0
C480 C 0.11435 0.03516 0.48807 0.0
C481 C 0.09948 1.01322 0.34543 0.0
C482 C 0.08198 1.01436 0.40777 0.0
C483 C 0.07277 0.0238 0.54546 0.0
C484 C 0.08088 0.0333 0.6185 0.0
C485 C 0.08941 0.02465 0.48015 0.0
C486 C 0.10525 0.04482 0.62433 0.0
C487 C 0.12183 0.04569 0.55997 0.0
H488 H 0.5317 0.11875 0.33621 0.0
H489 H 0.46269 0.16007 0.39885 0.0
H490 H 0.4552 0.13031 0.50713 0.0
H491 H 0.47009 0.09464 0.59079 0.0
H492 H 0.53821 0.05249 0.52581 0.0
H493 H 0.54379 0.08006 0.41074 0.0
C494 C 0.51466 0.12096 0.37217 0.0
C495 C 0.49803 0.142 0.35964 0.0
C496 C 0.51034 0.10364 0.43439 0.0
C497 C 0.4762 0.1445 0.4079 0.0
C498 C 0.47181 0.12739 0.4698 0.0
C499 C 0.48596 0.09131 0.55082 0.0
C500 C 0.50387 0.07176 0.56728 0.0
C501 C 0.48908 0.10727 0.48478 0.0
C502 C 0.52421 0.06748 0.51464 0.0
C503 C 0.52746 0.08331 0.44895 0.0
H504 H 0.42414 0.52414 0.30803 0.0
H505 H 0.35763 0.50912 0.45268 0.0
H506 H 0.38492 0.50556 0.56773 0.0
H507 H 0.42706 0.50965 0.6297 0.0
H508 H 0.49441 0.52324 0.48852 0.0
H509 H 0.46758 0.52441 0.36997 0.0
C510 C 0.4157 0.51985 0.36465 0.0
C511 C 0.38876 0.51685 0.37128 0.0
C512 C 0.43165 0.51777 0.43138 0.0
C513 C 0.37822 0.51114 0.44522 0.0
C514 C 0.39382 0.50932 0.51142 0.0
C515 C 0.43591 0.51265 0.57284 0.0
C516 C 0.46261 0.51655 0.56778 0.0
C517 C 0.42045 0.51301 0.50545 0.0
C518 C 0.47388 0.52014 0.49378 0.0
C519 C 0.45851 0.52092 0.42614 0.0
H520 H 0.02725 0.44442 0.28612 0.0
H521 H 0.99319 0.3767 0.39038 0.0
H522 H 0.98657 0.39972 0.51221 0.0
H523 H 0.99316 0.43785 0.59331 0.0
H524 H 0.02682 0.506 0.49241 0.0
H525 H 0.03111 0.4841 0.36599 0.0
C526 C 1.01821 0.43476 0.33529 0.0
C527 C 1.01068 0.40875 0.32822 0.0
C528 C 1.01467 0.44812 0.40643 0.0
C529 C 0.99878 0.39674 0.39281 0.0
C530 C 0.99522 0.40983 0.46323 0.0
C531 C 1.00133 0.44798 0.54354 0.0
C532 C 1.00993 0.47345 0.55246 0.0
C533 C 1.00351 0.43532 0.4712 0.0
C534 C 1.02017 0.48639 0.48718 0.0
C535 C 0.02263 0.47382 0.4149 0.0
H536 H 0.92181 0.03261 0.15465 0.0
H537 H 0.86051 0.99827 0.02063 0.0
H538 H 0.89025 0.98996 0.91327 0.0
H539 H 0.9327 0.99623 0.85171 0.0
H540 H 0.99354 0.03215 0.98335 0.0
H541 H 0.96502 0.03616 0.09656 0.0
C542 C 0.91494 0.02321 0.10212 0.0
C543 C 0.88879 1.01624 0.0961 0.0
C544 C 0.93207 1.01899 0.03951 0.0
C545 C 0.88049 1.00362 0.02784 0.0
C546 C 0.89747 0.99908 0.9658 0.0
C547 C 0.9398 1.00465 0.9055 0.0
C548 C 0.96515 1.01411 0.90876 0.0
C549 C 0.92316 1.00721 0.9702 0.0
C550 C 0.97407 0.02487 0.97906 0.0
C551 C 0.95775 0.02721 0.04383 0.0
H552 H 0.48607 0.91933 0.12757 0.0
H553 H 0.5581 0.88149 0.07674 0.0
H554 H 0.56646 0.91213 0.97158 0.0
H555 H 0.55181 0.94771 0.88705 0.0
H556 H 0.48105 0.98693 0.94213 0.0
H557 H 0.47414 0.95821 0.05383 0.0
C558 C 0.50392 0.91805 0.09499 0.0
C559 C 0.52114 0.89762 0.10968 0.0
C560 C 0.50885 0.93602 0.03494 0.0
C561 C 0.54405 0.89642 0.06572 0.0
C562 C 0.54898 0.91409 1.00568 0.0
C563 C 0.53506 0.95015 0.92422 0.0
C564 C 0.51684 0.96921 0.90584 0.0
C565 C 0.53123 0.93359 0.98853 0.0
C566 C 0.49535 0.97237 0.95489 0.0
C567 C 0.49132 0.95586 0.0186 0.0
H568 H 0.6272 0.47086 0.07578 0.0
H569 H 0.62768 0.55287 0.11161 0.0
H570 H 0.59917 0.55866 0.99856 0.0
H571 H 0.57628 0.54033 0.88338 0.0
H572 H 0.57883 0.45843 0.84579 0.0
H573 H 0.60338 0.45263 0.96614 0.0
C574 C 0.62068 0.49 0.06 0.0
C575 C 0.6295 0.51138 0.10267 0.0
C576 C 0.60479 0.49319 0.99413 0.0
C577 C 0.62129 0.53607 0.07979 0.0
C578 C 0.60495 0.53938 1.01514 0.0
C579 C 0.58192 0.52124 0.90245 0.0
C580 C 0.57577 0.49981 0.85582 0.0
C581 C 0.59687 0.5181 0.97096 0.0
C582 C 0.58344 0.47521 0.88053 0.0
C583 C 0.59752 0.47187 0.94931 0.0
H584 H 1.01761 0.61539 0.12566 0.0
H585 H 0.9887 0.68305 1.00743 0.0
H586 H 0.98136 0.65809 0.88972 0.0
H587 H 0.98671 0.61812 0.81519 0.0
H588 H 1.01867 0.55123 0.92872 0.0
H589 H 0.02152 0.57483 0.05222 0.0
C590 C 1.00974 0.62479 0.0743 0.0
C591 C 1.00379 0.65131 0.0766 0.0
C592 C 1.00632 0.61044 1.00508 0.0
C593 C 0.99309 0.66272 1.0091 0.0
C594 C 0.98913 0.64847 0.94088 0.0
C595 C 0.99403 0.6086 0.86719 0.0
C596 C 1.00253 0.58295 0.86259 0.0
C597 C 0.99614 0.62247 0.93761 0.0
C598 C 1.01201 0.57096 0.93056 0.0
C599 C 1.01371 0.58448 1.00121 0.0
H600 H 0.10991 0.20004 0.4089 0.0
H601 H 0.04853 0.25236 0.47162 0.0
H602 H 0.02404 0.21726 0.52556 0.0
H603 H 1.01601 0.17128 0.53298 0.0
H604 H 0.07522 0.11792 0.46301 0.0
H605 H 0.10365 0.15373 0.42968 0.0
C606 C 0.09125 0.2039 0.43454 0.0
C607 C 0.08119 0.22907 0.43385 0.0
C608 C 0.07622 0.18325 0.46159 0.0
C609 C 0.05732 0.23352 0.47094 0.0
C610 C 0.04283 0.21325 0.50089 0.0
C611 C 0.0353 0.1674 0.51193 0.0
C612 C 0.04325 0.14198 0.4991 0.0
C613 C 0.05152 0.18799 0.49296 0.0
C614 C 0.06831 0.13737 0.47127 0.0
C615 C 0.0847 0.15783 0.45299 0.0
H616 H 0.33547 0.89443 0.32478 0.0
H617 H 0.30053 0.91964 0.54112 0.0
H618 H 0.3425 0.91936 0.6042 0.0
H619 H 0.38938 0.92069 0.58855 0.0
H620 H 0.42374 0.89192 0.37569 0.0
H621 H 0.38116 0.88422 0.32137 0.0
C622 C 0.33654 0.89886 0.38659 0.0
C623 C 0.31478 0.90822 0.42676 0.0
C624 C 0.3607 0.89846 0.42288 0.0
C625 C 0.31705 0.91357 0.50727 0.0
C626 C 0.34108 0.91331 0.5437 0.0
C627 C 0.38776 0.91181 0.53147 0.0
C628 C 0.40984 0.90794 0.48507 0.0
C629 C 0.36319 0.90722 0.50061 0.0
C630 C 0.40708 0.8962 0.41145 0.0
C631 C 0.38272 0.89165 0.38039 0.0
H632 H 0.63594 0.34202 0.20678 0.0
H633 H 0.64041 0.30951 0.43936 0.0
H634 H 0.63972 0.35263 0.49529 0.0
H635 H 0.62853 0.39814 0.47795 0.0
H636 H 0.62495 0.43028 0.24469 0.0
H637 H 0.63514 0.38851 0.1894 0.0
C638 C 0.63789 0.34418 0.26959 0.0
C639 C 0.63739 0.32238 0.31878 0.0
C640 C 0.63707 0.36897 0.30141 0.0
C641 C 0.63993 0.32589 0.40008 0.0
C642 C 0.63949 0.35057 0.43218 0.0
C643 C 0.63086 0.39635 0.41514 0.0
C644 C 0.62518 0.41733 0.36563 0.0
C645 C 0.63654 0.37213 0.38346 0.0
C646 C 0.62838 0.4144 0.28432 0.0
C647 C 0.6343 0.39047 0.2525 0.0
H648 H 0.18675 0.65232 0.23737 0.0
H649 H 0.22269 0.64726 0.46498 0.0
H650 H 0.18048 0.64695 0.52694 0.0
H651 H 0.13426 0.63808 0.51285 0.0
H652 H 0.09863 0.64654 0.28587 0.0
H653 H 0.14023 0.65639 0.22775 0.0
C654 C 0.18574 0.65227 0.30069 0.0
C655 C 0.20811 0.64842 0.34584 0.0
C656 C 0.16141 0.65223 0.33616 0.0
C657 C 0.20585 0.64882 0.42807 0.0
C658 C 0.18166 0.64875 0.4638 0.0
C659 C 0.13528 0.64303 0.45124 0.0
C660 C 0.11341 0.6404 0.40329 0.0
C661 C 0.15933 0.64877 0.41793 0.0
C662 C 0.1153 0.64729 0.32371 0.0
C663 C 0.13911 0.65302 0.29033 0.0
H664 H 0.1158 0.80736 0.02204 0.0
H665 H 0.17525 0.83123 0.18291 0.0
H666 H 0.17405 0.87447 0.1269 0.0
H667 H 0.15021 0.90694 0.04923 0.0
H668 H 0.09067 0.88164 0.89114 0.0
H669 H 0.09877 0.8372 0.92726 0.0
C670 C 0.12942 0.82143 0.04342 0.0
C671 C 0.14498 0.81596 0.10894 0.0
C672 C 0.12842 0.84625 1.01178 0.0
C673 C 0.16231 0.83497 0.13462 0.0
C674 C 0.16166 0.85977 0.10255 0.0
C675 C 0.13938 0.89161 0.02174 0.0
C676 C 0.11959 0.89765 0.96856 0.0
C677 C 0.14373 0.86594 0.04413 0.0
C678 C 0.10605 0.8776 0.93207 0.0
C679 C 0.11051 0.85213 0.9532 0.0
H680 H 0.67961 0.14287 0.1996 0.0
H681 H 0.71717 0.15266 0.97602 0.0
H682 H 0.67541 0.15167 0.91031 0.0
H683 H 0.62939 0.1404 0.91563 0.0
H684 H 0.59332 0.12775 0.14053 0.0
H685 H 0.63317 0.13865 0.20633 0.0
C686 C 0.67875 0.14584 0.13678 0.0
C687 C 0.70158 0.14743 0.09275 0.0
C688 C 0.65484 0.14445 0.0994 0.0
C689 C 0.69991 0.15095 1.01121 0.0
C690 C 0.67604 0.15029 0.9736 0.0
C691 C 0.63018 0.14031 0.97906 0.0
C692 C 0.60843 0.13277 0.02275 0.0
C693 C 0.65353 0.1457 0.01688 0.0
C694 C 0.60961 0.1335 0.10502 0.0
C695 C 0.63253 0.13951 0.14294 0.0
H696 H 0.39492 0.70762 0.04924 0.0
H697 H 0.41007 0.68197 0.28545 0.0
H698 H 0.41666 0.63839 0.23934 0.0
H699 H 0.42708 0.60997 0.13051 0.0
H700 H 0.41334 0.63521 0.89318 0.0
H701 H 0.39778 0.67652 0.94121 0.0
C702 C 0.39913 0.69237 0.09078 0.0
C703 C 0.4024 0.6983 0.1705 0.0
C704 C 0.40392 0.66736 0.06353 0.0
C705 C 0.40728 0.67815 0.22377 0.0
C706 C 0.41145 0.65316 0.19733 0.0
C707 C 0.41991 0.62409 0.08913 0.0
C708 C 0.42209 0.61966 1.00819 0.0
C709 C 0.41114 0.64787 0.11703 0.0
C710 C 0.41269 0.63838 0.95578 0.0
C711 C 0.40366 0.662 0.98318 0.0
H712 H 0.84404 0.39855 0.19463 0.0
H713 H 0.80711 0.40287 0.96855 0.0
H714 H 0.84891 0.40855 0.90581 0.0
H715 H 0.8942 0.42122 0.91948 0.0
H716 H 0.93108 0.41492 0.14516 0.0
H717 H 0.89076 0.40052 0.20348 0.0
C718 C 0.84497 0.39962 0.13132 0.0
C719 C 0.82221 0.40119 0.08686 0.0
C720 C 0.86902 0.40308 0.09564 0.0
C721 C 0.8242 0.40254 1.00472 0.0
C722 C 0.84812 0.40579 0.96869 0.0
C723 C 0.89376 0.41585 0.98084 0.0
C724 C 0.91547 0.42007 0.02836 0.0
C725 C 0.87048 0.40756 1.01417 0.0
C726 C 0.91442 0.41281 0.10774 0.0
C727 C 0.89138 0.40445 0.14115 0.0
H728 H 0.05905 0.18102 0.96014 0.0
H729 H 0.99587 0.2068 0.81725 0.0
H730 H 0.98986 0.16284 0.76783 0.0
H731 H 1.00239 0.1166 0.7676 0.0
H732 H 0.06397 0.09134 0.91815 0.0
H733 H 0.07079 0.13538 0.96217 0.0
C734 C 0.04404 0.17703 0.91782 0.0
C735 C 0.02808 0.19719 0.89182 0.0
C736 C 0.0404 0.15172 0.89118 0.0
C737 C 1.0084 0.19163 0.83814 0.0
C738 C 1.00502 0.16651 0.80981 0.0
C739 C 1.01744 0.12083 0.80933 0.0
C740 C 0.03278 0.10066 0.83898 0.0
C741 C 1.02089 0.14633 0.83604 0.0
C742 C 0.05185 0.10642 0.89448 0.0
C743 C 0.0558 0.13164 0.91967 0.0
H744 H 0.33882 0.99303 0.82234 0.0
H745 H 0.35018 0.04528 1.01532 0.0
H746 H 0.39404 0.05328 0.97221 0.0
H747 H 0.43033 0.04336 0.88605 0.0
H748 H 0.42018 0.99003 0.69556 0.0
H749 H 0.375 0.98437 0.73213 0.0
C750 C 0.35084 1.00619 0.85508 0.0
C751 C 0.34087 1.0185 0.92228 0.0
C752 C 0.37648 1.01035 0.83091 0.0
C753 C 0.35685 0.03581 0.96274 0.0
C754 C 0.38217 0.04022 0.93862 0.0
C755 C 0.41827 0.03057 0.85208 0.0
C756 C 0.42883 1.01704 0.78829 0.0
C757 C 0.39234 0.02729 0.87367 0.0
C758 C 0.4127 1.0007 0.74492 0.0
C759 C 0.38681 0.99741 0.76594 0.0
H760 H 0.52339 0.34137 0.78399 0.0
H761 H 0.49484 0.36279 1.01215 0.0
H762 H 0.4911 0.40732 0.9696 0.0
H763 H 0.4991 0.44091 0.87178 0.0
H764 H 0.52901 0.42023 0.64466 0.0
H765 H 0.52923 0.37494 0.68304 0.0
C766 C 0.51626 0.35574 0.82439 0.0
C767 C 0.50943 0.3485 0.90136 0.0
C768 C 0.51463 0.38162 0.80004 0.0
C769 C 0.49987 0.36749 0.95226 0.0
C770 C 0.49797 0.39312 0.92824 0.0
C771 C 0.50551 0.42654 0.83025 0.0
C772 C 0.51419 0.43415 0.75551 0.0
C773 C 0.50576 0.4005 0.85283 0.0
C774 C 0.52224 0.41508 0.70262 0.0
C775 C 0.52243 0.3891 0.7246 0.0
H776 H 0.17876 0.55463 0.85115 0.0
H777 H 0.16981 0.48266 0.97533 0.0
H778 H 0.12671 0.47785 0.92157 0.0
H779 H 0.09062 0.49476 0.84307 0.0
H780 H 0.10066 0.56535 0.71296 0.0
H781 H 0.14432 0.56949 0.76362 0.0
C782 C 0.16775 0.53756 0.86544 0.0
C783 C 0.17781 0.51923 0.9185 0.0
C784 C 0.14296 0.5346 0.83309 0.0
C785 C 0.16266 0.49751 0.93649 0.0
C786 C 0.13793 0.4946 0.90522 0.0
C787 C 0.1024 0.51098 0.82532 0.0
C788 C 0.09213 0.52978 0.77446 0.0
C789 C 0.12771 0.51319 0.85431 0.0
C790 C 0.1079 0.55052 0.75177 0.0
C791 C 0.13293 0.55298 0.78103 0.0
H792 H 0.02821 0.84953 0.6509 0.0
H793 H 0.99734 0.8727 0.4268 0.0
H794 H 0.99278 0.9166 0.4737 0.0
H795 H 1.00035 0.94943 0.57482 0.0
H796 H 0.03404 0.92681 0.79542 0.0
H797 H 0.03519 0.88212 0.75255 0.0
C798 C 1.02059 0.86411 0.61183 0.0
C799 C 1.01321 0.85739 0.53492 0.0
C800 C 1.01875 0.88971 0.63834 0.0
C801 C 1.00282 0.8768 0.48657 0.0
C802 C 1.00046 0.90215 0.5131 0.0
C803 C 1.00775 0.93473 0.61391 0.0
C804 C 1.01709 0.94168 0.68844 0.0
C805 C 1.00873 0.90895 0.58841 0.0
C806 C 0.02673 0.92221 0.73778 0.0
C807 C 0.02741 0.89655 0.71327 0.0
H808 H 0.68412 0.04476 0.65437 0.0
H809 H 0.66888 1.00174 0.44346 0.0
H810 H 0.62496 0.99425 0.48623 0.0
H811 H 0.58984 1.00225 0.57784 0.0
H812 H 0.60362 0.04652 0.7868 0.0
H813 H 0.64885 0.05151 0.7496 0.0
C814 C 0.67125 0.03373 0.61762 0.0
C815 C 0.68018 0.02382 0.54553 0.0
C816 C 0.64553 0.02996 0.6417 0.0
C817 C 0.66306 1.00923 0.49979 0.0
C818 C 0.63769 1.00516 0.52378 0.0
C819 C 0.60267 1.01291 0.61576 0.0
C820 C 0.5931 0.02421 0.68484 0.0
C821 C 0.62859 1.01578 0.59387 0.0
C822 C 0.61026 0.03779 0.73305 0.0
C823 C 0.6362 0.04062 0.71177 0.0
H824 H 0.54947 0.67706 0.51713 0.0
H825 H 0.48035 0.69531 0.64622 0.0
H826 H 0.48005 0.65236 0.70284 0.0
H827 H 0.49709 0.60818 0.70757 0.0
H828 H 0.56375 0.58895 0.56879 0.0
H829 H 0.56676 0.63331 0.52291 0.0
C830 C 0.5342 0.67174 0.55726 0.0
C831 C 0.51497 0.68977 0.5767 0.0
C832 C 0.53342 0.64652 0.58733 0.0
C833 C 0.49579 0.68233 0.63068 0.0
C834 C 0.49535 0.65751 0.66259 0.0
C835 C 0.51241 0.61374 0.66783 0.0
C836 C 0.53009 0.59515 0.64151 0.0
C837 C 0.51376 0.63927 0.64019 0.0
C838 C 0.54972 0.60274 0.58958 0.0
C839 C 0.55152 0.62816 0.56338 0.0
H840 H 0.85409 0.52742 0.47322 0.0
H841 H 0.82708 0.49228 0.68715 0.0
H842 H 0.86983 0.497 0.74502 0.0
H843 H 0.91575 0.50965 0.73287 0.0
H844 H 0.94164 0.54503 0.51749 0.0
H845 H 0.89864 0.54193 0.4635 0.0
C846 C 0.8573 0.52126 0.53312 0.0
C847 C 0.83718 0.50951 0.57544 0.0
C848 C 0.88197 0.52393 0.56602 0.0
C849 C 0.84214 0.50117 0.65257 0.0
C850 C 0.86664 0.50391 0.68589 0.0
C851 C 0.91196 0.51682 0.67435 0.0
C852 C 0.93221 0.52745 0.62961 0.0
C853 C 0.88687 0.51496 0.64282 0.0
C854 C 0.92672 0.53663 0.55372 0.0
C855 C 0.902 0.53491 0.52243 0.0
loop_
_geom_bond_atom_site_label_1
_geom_bond_atom_site_label_2
_geom_bond_distance
_geom_bond_site_symmetry_2
_ccdc_geom_bond_type
C0 C1 1.386 . S
C0 C2 1.397 . S
C0 H24 0.931 . S
C1 C0 1.386 . S
C1 C5 1.397 . S
C2 C0 1.397 . S
C2 C3 1.384 . S
C2 H25 0.930 . S
C3 C2 1.384 . S
C3 C4 1.377 . S
C3 C6 1.481 . S
C4 C3 1.377 . S
C4 C5 1.389 . S
C4 H26 0.929 . S
C5 C1 1.397 . S
C5 C4 1.389 . S
C5 H27 0.931 . S
C6 C3 1.481 . S
C6 C7 1.387 . S
C6 C11 1.390 . S
C7 C6 1.387 . S
C7 C8 1.401 . S
C7 H28 0.930 . S
C8 C7 1.401 . S
C8 C9 1.376 . S
C8 C17 1.511 . S
C9 C8 1.376 . S
C9 C10 1.392 . S
C9 H30 0.931 . S
C10 C9 1.392 . S
C10 C11 1.361 . S
C10 C12 1.500 . S
C11 C6 1.390 . S
C11 C10 1.361 . S
C11 H29 0.931 . S
C12 C10 1.500 . S
C12 C13 1.371 . S
C12 C14 1.365 . S
C13 C12 1.371 . S
C13 C23 1.386 . S
C13 H31 0.931 . S
C14 C12 1.365 . S
C14 C15 1.409 . S
C14 H32 0.929 . S
C15 C14 1.409 . S
C15 C16 1.380 . S
C15 H33 0.930 . S
C16 C15 1.380 . S
C16 C23 1.357 . S
C17 C8 1.511 . S
C17 C18 1.341 . S
C17 C19 1.371 . S
C18 C17 1.341 . S
C18 C22 1.394 . S
C18 H34 0.930 . S
C19 C17 1.371 . S
C19 C20 1.392 . S
C19 H35 0.931 . S
C20 C19 1.392 . S
C20 C21 1.331 . S
C20 H38 0.932 . S
C21 C20 1.331 . S
C21 C22 1.336 . S
C22 C18 1.394 . S
C22 C21 1.336 . S
C22 H37 0.929 . S
C23 C13 1.386 . S
C23 C16 1.357 . S
C23 H36 0.928 . S
H24 C0 0.931 . S
H25 C2 0.930 . S
H26 C4 0.929 . S
H27 C5 0.931 . S
H28 C7 0.930 . S
H29 C11 0.931 . S
H30 C9 0.931 . S
H31 C13 0.931 . S
H32 C14 0.929 . S
H33 C15 0.930 . S
H34 C18 0.930 . S
H35 C19 0.931 . S
H36 C23 0.928 . S
H37 C22 0.929 . S
H38 C20 0.932 . S
C39 C40 1.394 . S
C39 C41 1.397 . S
C39 H63 0.931 . S
C40 C39 1.394 . S
C40 C44 1.389 1_655 S
C41 C39 1.397 . S
C41 C42 1.389 . S
C41 H64 0.930 . S
C42 C41 1.389 . S
C42 C43 1.373 1_655 S
C42 C45 1.480 . S
C43 C42 1.373 1_455 S
C43 C44 1.389 . S
C43 H65 0.929 . S
C44 C40 1.389 1_455 S
C44 C43 1.389 . S
C44 H66 0.931 . S
C45 C42 1.480 . S
C45 C46 1.388 . S
C45 C50 1.390 . S
C46 C45 1.388 . S
C46 C47 1.402 . S
C46 H67 0.930 . S
C47 C46 1.402 . S
C47 C48 1.376 . S
C47 C56 1.513 . S
C48 C47 1.376 . S
C48 C49 1.392 . S
C48 H69 0.934 . S
C49 C48 1.392 . S
C49 C50 1.361 . S
C49 C51 1.499 1_655 S
C50 C45 1.390 . S
C50 C49 1.361 . S
C50 H68 0.931 . S
C51 C49 1.499 1_455 S
C51 C52 1.362 1_455 S
C51 C53 1.375 . S
C52 C51 1.362 1_655 S
C52 C62 1.386 . S
C52 H70 0.931 . S
C53 C51 1.375 . S
C53 C54 1.409 . S
C53 H71 0.929 . S
C54 C53 1.409 . S
C54 C55 1.379 . S
C54 H72 0.930 . S
C55 C54 1.379 . S
C55 C62 1.358 1_455 S
C56 C47 1.513 . S
C56 C57 1.341 . S
C56 C58 1.371 1_655 S
C57 C56 1.341 . S
C57 C61 1.394 . S
C57 H73 0.930 . S
C58 C56 1.371 1_455 S
C58 C59 1.392 . S
C58 H74 0.931 . S
C59 C58 1.392 . S
C59 C60 1.322 1_455 S
C59 H77 0.932 . S
C60 C59 1.322 1_655 S
C60 C61 1.345 . S
C61 C57 1.394 . S
C61 C60 1.345 . S
C61 H76 0.929 . S
C62 C52 1.386 . S
C62 C55 1.358 1_655 S
C62 H75 0.928 . S
H63 C39 0.931 . S
H64 C41 0.930 . S
H65 C43 0.929 . S
H66 C44 0.931 . S
H67 C46 0.930 . S
H68 C50 0.931 . S
H69 C48 0.934 . S
H70 C52 0.931 . S
H71 C53 0.929 . S
H72 C54 0.930 . S
H73 C57 0.930 . S
H74 C58 0.931 . S
H75 C62 0.928 . S
H76 C61 0.929 . S
H77 C59 0.932 . S
C78 C79 1.394 . S
C78 C80 1.397 . S
C78 H102 0.931 . S
C79 C78 1.394 . S
C79 C83 1.389 1_565 S
C80 C78 1.397 . S
C80 C81 1.389 . S
C80 H103 0.930 . S
C81 C80 1.389 . S
C81 C82 1.373 1_565 S
C81 C84 1.481 . S
C82 C81 1.373 1_545 S
C82 C83 1.389 . S
C82 H104 0.929 . S
C83 C79 1.389 1_545 S
C83 C82 1.389 . S
C83 H105 0.931 . S
C84 C81 1.481 . S
C84 C85 1.388 . S
C84 C89 1.390 . S
C85 C84 1.388 . S
C85 C86 1.402 . S
C85 H106 0.930 . S
C86 C85 1.402 . S
C86 C87 1.376 . S
C86 C95 1.513 . S
C87 C86 1.376 . S
C87 C88 1.391 . S
C87 H108 0.934 . S
C88 C87 1.391 . S
C88 C89 1.361 . S
C88 C90 1.499 1_565 S
C89 C84 1.390 . S
C89 C88 1.361 . S
C89 H107 0.931 . S
C90 C88 1.499 1_545 S
C90 C91 1.362 1_545 S
C90 C92 1.375 . S
C91 C90 1.362 1_565 S
C91 C101 1.386 . S
C91 H109 0.931 . S
C92 C90 1.375 . S
C92 C93 1.409 . S
C92 H110 0.929 . S
C93 C92 1.409 . S
C93 C94 1.379 . S
C93 H111 0.930 . S
C94 C93 1.379 . S
C94 C101 1.358 1_545 S
C95 C86 1.513 . S
C95 C96 1.341 . S
C95 C97 1.371 1_565 S
C96 C95 1.341 . S
C96 C100 1.394 . S
C96 H112 0.930 . S
C97 C95 1.371 1_545 S
C97 C98 1.392 . S
C97 H113 0.931 . S
C98 C97 1.392 . S
C98 C99 1.322 1_545 S
C98 H116 0.932 . S
C99 C98 1.322 1_565 S
C99 C100 1.345 . S
C100 C96 1.394 . S
C100 C99 1.345 . S
C100 H115 0.929 . S
C101 C91 1.386 . S
C101 C94 1.358 1_565 S
C101 H114 0.928 . S
H102 C78 0.931 . S
H103 C80 0.930 . S
H104 C82 0.929 . S
H105 C83 0.931 . S
H106 C85 0.930 . S
H107 C89 0.931 . S
H108 C87 0.934 . S
H109 C91 0.931 . S
H110 C92 0.929 . S
H111 C93 0.930 . S
H112 C96 0.930 . S
H113 C97 0.931 . S
H114 C101 0.928 . S
H115 C100 0.929 . S
H116 C98 0.932 . S
C117 C118 1.386 . S
C117 C119 1.397 . S
C117 H141 0.931 . S
C118 C117 1.386 . S
C118 C122 1.397 . S
C119 C117 1.397 . S
C119 C120 1.384 . S
C119 H142 0.930 . S
C120 C119 1.384 . S
C120 C121 1.377 . S
C120 C123 1.481 . S
C121 C120 1.377 . S
C121 C122 1.389 . S
C121 H143 0.929 . S
C122 C118 1.397 . S
C122 C121 1.389 . S
C122 H144 0.931 . S
C123 C120 1.481 . S
C123 C124 1.387 . S
C123 C128 1.390 . S
C124 C123 1.387 . S
C124 C125 1.401 . S
C124 H145 0.930 . S
C125 C124 1.401 . S
C125 C126 1.376 . S
C125 C134 1.511 . S
C126 C125 1.376 . S
C126 C127 1.392 . S
C126 H147 0.931 . S
C127 C126 1.392 . S
C127 C128 1.361 . S
C127 C129 1.500 . S
C128 C123 1.390 . S
C128 C127 1.361 . S
C128 H146 0.931 . S
C129 C127 1.500 . S
C129 C130 1.371 . S
C129 C131 1.365 . S
C130 C129 1.371 . S
C130 C140 1.386 . S
C130 H148 0.931 . S
C131 C129 1.365 . S
C131 C132 1.409 . S
C131 H149 0.929 . S
C132 C131 1.409 . S
C132 C133 1.380 . S
C132 H150 0.930 . S
C133 C132 1.380 . S
C133 C140 1.357 . S
C134 C125 1.511 . S
C134 C135 1.341 . S
C134 C136 1.371 . S
C135 C134 1.341 . S
C135 C139 1.394 . S
C135 H151 0.930 . S
C136 C134 1.371 . S
C136 C137 1.392 . S
C136 H152 0.931 . S
C137 C136 1.392 . S
C137 C138 1.331 . S
C137 H155 0.932 . S
C138 C137 1.331 . S
C138 C139 1.336 . S
C139 C135 1.394 . S
C139 C138 1.336 . S
C139 H154 0.929 . S
C140 C130 1.386 . S
C140 C133 1.357 . S
C140 H153 0.928 . S
H141 C117 0.931 . S
H142 C119 0.930 . S
H143 C121 0.929 . S
H144 C122 0.931 . S
H145 C124 0.930 . S
H146 C128 0.931 . S
H147 C126 0.931 . S
H148 C130 0.931 . S
H149 C131 0.929 . S
H150 C132 0.930 . S
H151 C135 0.930 . S
H152 C136 0.931 . S
H153 C140 0.928 . S
H154 C139 0.929 . S
H155 C137 0.932 . S
C156 C157 1.386 . S
C156 C158 1.397 . S
C156 H180 0.931 . S
C157 C156 1.386 . S
C157 C161 1.397 . S
C158 C156 1.397 . S
C158 C159 1.384 . S
C158 H181 0.930 . S
C159 C158 1.384 . S
C159 C160 1.377 . S
C159 C162 1.481 . S
C160 C159 1.377 . S
C160 C161 1.389 . S
C160 H182 0.929 . S
C161 C157 1.397 . S
C161 C160 1.389 . S
C161 H183 0.931 . S
C162 C159 1.481 . S
C162 C163 1.387 . S
C162 C167 1.390 . S
C163 C162 1.387 . S
C163 C164 1.401 . S
C163 H184 0.930 . S
C164 C163 1.401 . S
C164 C165 1.376 1_554 S
C164 C173 1.511 . S
C165 C164 1.376 1_556 S
C165 C166 1.392 . S
C165 H186 0.931 . S
C166 C165 1.392 . S
C166 C167 1.361 1_556 S
C166 C168 1.500 . S
C167 C162 1.390 . S
C167 C166 1.361 1_554 S
C167 H185 0.931 . S
C168 C166 1.500 . S
C168 C169 1.371 . S
C168 C170 1.365 . S
C169 C168 1.371 . S
C169 C179 1.386 . S
C169 H187 0.931 . S
C170 C168 1.365 . S
C170 C171 1.409 . S
C170 H188 0.929 . S
C171 C170 1.409 . S
C171 C172 1.380 . S
C171 H189 0.930 . S
C172 C171 1.380 . S
C172 C179 1.357 . S
C173 C164 1.511 . S
C173 C174 1.341 . S
C173 C175 1.371 . S
C174 C173 1.341 . S
C174 C178 1.394 . S
C174 H190 0.930 . S
C175 C173 1.371 . S
C175 C176 1.392 . S
C175 H191 0.931 1_554 S
C176 C175 1.392 . S
C176 C177 1.331 . S
C176 H194 0.932 . S
C177 C176 1.331 . S
C177 C178 1.336 . S
C178 C174 1.394 . S
C178 C177 1.336 . S
C178 H193 0.929 . S
C179 C169 1.386 . S
C179 C172 1.357 . S
C179 H192 0.928 . S
H180 C156 0.931 . S
H181 C158 0.930 . S
H182 C160 0.929 . S
H183 C161 0.931 . S
H184 C163 0.930 . S
H185 C167 0.931 . S
H186 C165 0.931 . S
H187 C169 0.931 . S
H188 C170 0.929 . S
H189 C171 0.930 . S
H190 C174 0.930 . S
H191 C175 0.931 1_556 S
H192 C179 0.928 . S
H193 C178 0.929 . S
H194 C176 0.932 . S
C195 C196 1.388 . S
C195 C197 1.397 . S
C195 H219 0.931 . S
C196 C195 1.388 . S
C196 C200 1.395 1_655 S
C197 C195 1.397 . S
C197 C198 1.382 . S
C197 H220 0.930 . S
C198 C197 1.382 . S
C198 C199 1.379 1_655 S
C198 C201 1.480 . S
C199 C198 1.379 1_455 S
C199 C200 1.389 . S
C199 H221 0.929 . S
C200 C196 1.395 1_455 S
C200 C199 1.389 . S
C200 H222 0.931 . S
C201 C198 1.480 . S
C201 C202 1.388 . S
C201 C206 1.390 . S
C202 C201 1.388 . S
C202 C203 1.402 . S
C202 H223 0.930 . S
C203 C202 1.402 . S
C203 C204 1.388 . S
C203 C212 1.512 . S
C204 C203 1.388 . S
C204 C205 1.389 1_654 S
C204 H225 0.924 1_554 S
C205 C204 1.389 1_456 S
C205 C206 1.361 1_456 S
C205 C207 1.499 . S
C206 C201 1.390 . S
C206 C205 1.361 1_654 S
C206 H224 0.931 . S
C207 C205 1.499 . S
C207 C208 1.357 1_455 S
C207 C209 1.380 . S
C208 C207 1.357 1_655 S
C208 C218 1.386 . S
C208 H226 0.931 . S
C209 C207 1.380 . S
C209 C210 1.409 . S
C209 H227 0.929 . S
C210 C209 1.409 . S
C210 C211 1.384 . S
C210 H228 0.930 . S
C211 C210 1.384 . S
C211 C218 1.353 1_455 S
C212 C203 1.512 . S
C212 C213 1.341 . S
C212 C214 1.371 1_655 S
C213 C212 1.341 . S
C213 C217 1.394 . S
C213 H229 0.930 . S
C214 C212 1.371 1_455 S
C214 C215 1.392 . S
C214 H230 0.931 1_554 S
C215 C214 1.392 . S
C215 C216 1.325 1_455 S
C215 H233 0.932 . S
C216 C215 1.325 1_655 S
C216 C217 1.342 . S
C217 C213 1.394 . S
C217 C216 1.342 . S
C217 H232 0.929 . S
C218 C208 1.386 . S
C218 C211 1.353 1_655 S
C218 H231 0.928 . S
H219 C195 0.931 . S
H220 C197 0.930 . S
H221 C199 0.929 . S
H222 C200 0.931 . S
H223 C202 0.930 . S
H224 C206 0.931 . S
H225 C204 0.924 1_556 S
H226 C208 0.931 . S
H227 C209 0.929 . S
H228 C210 0.930 . S
H229 C213 0.930 . S
H230 C214 0.931 1_556 S
H231 C218 0.928 . S
H232 C217 0.929 . S
H233 C215 0.932 . S
C234 C235 1.388 . S
C234 C236 1.397 . S
C234 H258 0.931 . S
C235 C234 1.388 . S
C235 C239 1.395 1_565 S
C236 C234 1.397 . S
C236 C237 1.382 . S
C236 H259 0.930 . S
C237 C236 1.382 . S
C237 C238 1.379 1_565 S
C237 C240 1.480 . S
C238 C237 1.379 1_545 S
C238 C239 1.389 . S
C238 H260 0.929 . S
C239 C235 1.395 1_545 S
C239 C238 1.389 . S
C239 H261 0.931 . S
C240 C237 1.480 . S
C240 C241 1.388 . S
C240 C245 1.390 . S
C241 C240 1.388 . S
C241 C242 1.402 . S
C241 H262 0.930 . S
C242 C241 1.402 . S
C242 C243 1.364 1_554 S
C242 C251 1.512 . S
C243 C242 1.364 1_556 S
C243 C244 1.395 1_565 S
C243 H264 0.943 . S
C244 C243 1.395 1_545 S
C244 C245 1.361 1_546 S
C244 C246 1.499 . S
C245 C240 1.390 . S
C245 C244 1.361 1_564 S
C245 H263 0.931 . S
C246 C244 1.499 . S
C246 C247 1.357 1_545 S
C246 C248 1.380 . S
C247 C246 1.357 1_565 S
C247 C257 1.386 . S
C247 H265 0.931 . S
C248 C246 1.380 . S
C248 C249 1.409 . S
C248 H266 0.929 . S
C249 C248 1.409 . S
C249 C250 1.384 . S
C249 H267 0.930 . S
C250 C249 1.384 . S
C250 C257 1.353 1_545 S
C251 C242 1.512 . S
C251 C252 1.341 . S
C251 C253 1.371 1_565 S
C252 C251 1.341 . S
C252 C256 1.394 . S
C252 H268 0.930 . S
C253 C251 1.371 1_545 S
C253 C254 1.392 . S
C253 H269 0.931 1_554 S
C254 C253 1.392 . S
C254 C255 1.325 1_545 S
C254 H272 0.932 . S
C255 C254 1.325 1_565 S
C255 C256 1.342 . S
C256 C252 1.394 . S
C256 C255 1.342 . S
C256 H271 0.929 . S
C257 C247 1.386 . S
C257 C250 1.353 1_565 S
C257 H270 0.928 . S
H258 C234 0.931 . S
H259 C236 0.930 . S
H260 C238 0.929 . S
H261 C239 0.931 . S
H262 C241 0.930 . S
H263 C245 0.931 . S
H264 C243 0.943 . S
H265 C247 0.931 . S
H266 C248 0.929 . S
H267 C249 0.930 . S
H268 C252 0.930 . S
H269 C253 0.931 1_556 S
H270 C257 0.928 . S
H271 C256 0.929 . S
H272 C254 0.932 . S
C273 C274 1.386 . S
C273 C275 1.397 . S
C273 H297 0.931 . S
C274 C273 1.386 . S
C274 C278 1.397 . S
C275 C273 1.397 . S
C275 C276 1.384 . S
C275 H298 0.930 . S
C276 C275 1.384 . S
C276 C277 1.377 . S
C276 C279 1.481 . S
C277 C276 1.377 . S
C277 C278 1.389 . S
C277 H299 0.929 . S
C278 C274 1.397 . S
C278 C277 1.389 . S
C278 H300 0.931 . S
C279 C276 1.481 . S
C279 C280 1.390 . S
C279 C284 1.390 1_556 S
C280 C279 1.390 . S
C280 C281 1.388 1_556 S
C280 H301 0.940 . S
C281 C280 1.388 1_554 S
C281 C282 1.376 . S
C281 C290 1.511 . S
C282 C281 1.376 . S
C282 C283 1.392 . S
C282 H303 0.931 . S
C283 C282 1.392 . S
C283 C284 1.361 . S
C283 C285 1.500 . S
C284 C279 1.390 1_554 S
C284 C283 1.361 . S
C284 H302 0.931 . S
C285 C283 1.500 . S
C285 C286 1.371 . S
C285 C287 1.365 . S
C286 C285 1.371 . S
C286 C296 1.386 . S
C286 H304 0.931 . S
C287 C285 1.365 . S
C287 C288 1.409 . S
C287 H305 0.929 . S
C288 C287 1.409 . S
C288 C289 1.380 . S
C288 H306 0.930 . S
C289 C288 1.380 . S
C289 C296 1.357 . S
C290 C281 1.511 . S
C290 C291 1.341 . S
C290 C292 1.371 . S
C291 C290 1.341 . S
C291 C295 1.394 . S
C291 H307 0.930 1_554 S
C292 C290 1.371 . S
C292 C293 1.392 . S
C292 H308 0.931 . S
C293 C292 1.392 . S
C293 C294 1.331 . S
C293 H311 0.932 . S
C294 C293 1.331 . S
C294 C295 1.336 . S
C295 C291 1.394 . S
C295 C294 1.336 . S
C295 H310 0.929 . S
C296 C286 1.386 . S
C296 C289 1.357 . S
C296 H309 0.928 . S
H297 C273 0.931 . S
H298 C275 0.930 . S
H299 C277 0.929 . S
H300 C278 0.931 . S
H301 C280 0.940 . S
H302 C284 0.931 . S
H303 C282 0.931 . S
H304 C286 0.931 . S
H305 C287 0.929 . S
H306 C288 0.930 . S
H307 C291 0.930 1_556 S
H308 C292 0.931 . S
H309 C296 0.928 . S
H310 C295 0.929 . S
H311 C293 0.932 . S
C312 Eu313 2.835 . S
C312 C314 1.500 . S
C312 O332 1.257 . S
C312 O333 1.260 . S
Eu313 C312 2.835 . S
Eu313 O332 2.473 . S
Eu313 O333 2.480 . S
Eu313 O334 2.430 . S
Eu313 O335 2.670 1_545 S
Eu313 O336 2.394 . S
Eu313 O341 2.355 1_655 S
Eu313 O343 2.374 1_545 S
C314 C312 1.500 . S
C314 C315 1.377 . S
C314 C319 1.377 . S
C315 C314 1.377 . S
C315 C316 1.395 . S
C315 H344 0.931 . S
C316 C315 1.395 . S
C316 C317 1.383 . S
C316 H345 0.931 . S
C317 C316 1.383 . S
C317 C318 1.394 . S
C318 C317 1.394 . S
C318 C319 1.378 . S
C318 H346 0.931 1_655 S
C319 C314 1.377 . S
C319 C318 1.378 . S
C319 H347 0.931 1_655 S
C320 O334 1.259 . S
C320 O335 1.270 1_545 S
C321 O336 1.251 1_455 S
C321 O337 1.251 . S
C322 Eu323 2.835 . S
C322 C324 1.500 . S
C322 O338 1.257 . S
C322 O339 1.260 . S
Eu323 C322 2.835 . S
Eu323 O335 2.355 1_455 S
Eu323 O337 2.374 1_565 S
Eu323 O338 2.473 . S
Eu323 O339 2.480 . S
Eu323 O340 2.430 . S
Eu323 O341 2.670 1_565 S
Eu323 O342 2.394 . S
C324 C322 1.500 . S
C324 C325 1.377 . S
C324 C329 1.377 . S
C325 C324 1.377 . S
C325 C326 1.395 . S
C325 H348 0.931 . S
C326 C325 1.395 . S
C326 C327 1.383 . S
C326 H349 0.931 . S
C327 C326 1.383 . S
C327 C328 1.394 . S
C328 C327 1.394 . S
C328 C329 1.378 . S
C328 H350 0.931 1_455 S
C329 C324 1.377 . S
C329 C328 1.378 . S
C329 H351 0.931 1_455 S
C330 O340 1.259 . S
C330 O341 1.270 1_565 S
C331 O342 1.251 1_655 S
C331 O343 1.251 . S
O332 C312 1.257 . S
O332 Eu313 2.473 . S
O333 C312 1.260 . S
O333 Eu313 2.480 . S
O334 Eu313 2.430 . S
O334 C320 1.259 . S
O335 Eu313 2.670 1_565 S
O335 C320 1.270 1_565 S
O335 Eu323 2.355 1_655 S
O336 Eu313 2.394 . S
O336 C321 1.251 1_655 S
O337 C321 1.251 . S
O337 Eu323 2.374 1_545 S
O338 C322 1.257 . S
O338 Eu323 2.473 . S
O339 C322 1.260 . S
O339 Eu323 2.480 . S
O340 Eu323 2.430 . S
O340 C330 1.259 . S
O341 Eu313 2.355 1_455 S
O341 Eu323 2.670 1_545 S
O341 C330 1.270 1_545 S
O342 Eu323 2.394 . S
O342 C331 1.251 1_455 S
O343 Eu313 2.374 1_565 S
O343 C331 1.251 . S
H344 C315 0.931 . S
H345 C316 0.931 . S
H346 C318 0.931 1_455 S
H347 C319 0.931 1_455 S
H348 C325 0.931 . S
H349 C326 0.931 . S
H350 C328 0.931 1_655 S
H351 C329 0.931 1_655 S
C352 Eu353 2.835 . S
C352 C354 1.500 . S
C352 O372 1.257 . S
C352 O373 1.260 . S
Eu353 C352 2.835 . S
Eu353 O372 2.473 . S
Eu353 O373 2.480 . S
Eu353 O374 2.430 . S
Eu353 O375 2.670 . S
Eu353 O376 2.394 . S
Eu353 O381 2.355 1_565 S
Eu353 O383 2.374 . S
C354 C352 1.500 . S
C354 C355 1.377 . S
C354 C359 1.377 . S
C355 C354 1.377 . S
C355 C356 1.395 . S
C355 H384 0.931 . S
C356 C355 1.395 . S
C356 C357 1.383 . S
C356 H385 0.931 . S
C357 C356 1.383 . S
C357 C358 1.394 . S
C358 C357 1.394 . S
C358 C359 1.378 . S
C358 H386 0.931 1_565 S
C359 C354 1.377 . S
C359 C358 1.378 . S
C359 H387 0.931 1_565 S
C360 O374 1.259 . S
C360 O375 1.270 . S
C361 O376 1.251 1_545 S
C361 O377 1.251 . S
C362 Eu363 2.835 . S
C362 C364 1.500 . S
C362 O378 1.257 . S
C362 O379 1.260 . S
Eu363 C362 2.835 . S
Eu363 O375 2.355 1_545 S
Eu363 O377 2.374 . S
Eu363 O378 2.473 . S
Eu363 O379 2.480 . S
Eu363 O380 2.430 . S
Eu363 O381 2.670 . S
Eu363 O382 2.394 . S
C364 C362 1.500 . S
C364 C365 1.377 . S
C364 C369 1.377 . S
C365 C364 1.377 . S
C365 C366 1.395 . S
C365 H388 0.931 . S
C366 C365 1.395 . S
C366 C367 1.383 . S
C366 H389 0.931 . S
C367 C366 1.383 . S
C367 C368 1.394 . S
C368 C367 1.394 . S
C368 C369 1.378 . S
C368 H390 0.931 1_545 S
C369 C364 1.377 . S
C369 C368 1.378 . S
C369 H391 0.931 1_545 S
C370 O380 1.259 . S
C370 O381 1.270 . S
C371 O382 1.251 1_565 S
C371 O383 1.251 . S
O372 C352 1.257 . S
O372 Eu353 2.473 . S
O373 C352 1.260 . S
O373 Eu353 2.480 . S
O374 Eu353 2.430 . S
O374 C360 1.259 . S
O375 Eu353 2.670 . S
O375 C360 1.270 . S
O375 Eu363 2.355 1_565 S
O376 Eu353 2.394 . S
O376 C361 1.251 1_565 S
O377 C361 1.251 . S
O377 Eu363 2.374 . S
O378 C362 1.257 . S
O378 Eu363 2.473 . S
O379 C362 1.260 . S
O379 Eu363 2.480 . S
O380 Eu363 2.430 . S
O380 C370 1.259 . S
O381 Eu353 2.355 1_545 S
O381 Eu363 2.670 . S
O381 C370 1.270 . S
O382 Eu363 2.394 . S
O382 C371 1.251 1_545 S
O383 Eu353 2.374 . S
O383 C371 1.251 . S
H384 C355 0.931 . S
H385 C356 0.931 . S
H386 C358 0.931 1_545 S
H387 C359 0.931 1_545 S
H388 C365 0.931 . S
H389 C366 0.931 . S
H390 C368 0.931 1_565 S
H391 C369 0.931 1_565 S
C392 Eu393 2.835 . S
C392 C394 1.500 . S
C392 O412 1.257 . S
C392 O413 1.260 . S
Eu393 C392 2.835 . S
Eu393 O412 2.473 . S
Eu393 O413 2.480 . S
Eu393 O414 2.430 . S
Eu393 O415 2.670 . S
Eu393 O416 2.394 . S
Eu393 O421 2.355 . S
Eu393 O423 2.374 . S
C394 C392 1.500 . S
C394 C395 1.377 . S
C394 C399 1.377 . S
C395 C394 1.377 . S
C395 C396 1.395 . S
C395 H424 0.931 . S
C396 C395 1.395 . S
C396 C397 1.383 . S
C396 H425 0.931 . S
C397 C396 1.383 . S
C397 C398 1.394 . S
C398 C397 1.394 . S
C398 C399 1.378 . S
C398 H426 0.931 . S
C399 C394 1.377 . S
C399 C398 1.378 . S
C399 H427 0.931 . S
C400 O414 1.259 . S
C400 O415 1.270 . S
C401 O416 1.251 . S
C401 O417 1.251 . S
C402 Eu403 2.835 . S
C402 C404 1.500 . S
C402 O418 1.257 . S
C402 O419 1.260 . S
Eu403 C402 2.835 . S
Eu403 O415 2.355 . S
Eu403 O417 2.374 . S
Eu403 O418 2.473 . S
Eu403 O419 2.480 . S
Eu403 O420 2.430 . S
Eu403 O421 2.670 . S
Eu403 O422 2.394 . S
C404 C402 1.500 . S
C404 C405 1.377 . S
C404 C409 1.377 . S
C405 C404 1.377 . S
C405 C406 1.395 . S
C405 H428 0.931 . S
C406 C405 1.395 . S
C406 C407 1.383 . S
C406 H429 0.931 . S
C407 C406 1.383 . S
C407 C408 1.394 . S
C408 C407 1.394 . S
C408 C409 1.378 . S
C408 H430 0.937 . S
C409 C404 1.377 . S
C409 C408 1.378 . S
C409 H431 0.931 . S
C410 O420 1.259 . S
C410 O421 1.270 . S
C411 O422 1.251 . S
C411 O423 1.251 . S
O412 C392 1.257 . S
O412 Eu393 2.473 . S
O413 C392 1.260 . S
O413 Eu393 2.480 . S
O414 Eu393 2.430 . S
O414 C400 1.259 . S
O415 Eu393 2.670 . S
O415 C400 1.270 . S
O415 Eu403 2.355 . S
O416 Eu393 2.394 . S
O416 C401 1.251 . S
O417 C401 1.251 . S
O417 Eu403 2.374 . S
O418 C402 1.257 . S
O418 Eu403 2.473 . S
O419 C402 1.260 . S
O419 Eu403 2.480 . S
O420 Eu403 2.430 . S
O420 C410 1.259 . S
O421 Eu393 2.355 . S
O421 Eu403 2.670 . S
O421 C410 1.270 . S
O422 Eu403 2.394 . S
O422 C411 1.251 . S
O423 Eu393 2.374 . S
O423 C411 1.251 . S
H424 C395 0.931 . S
H425 C396 0.931 . S
H426 C398 0.931 . S
H427 C399 0.931 . S
H428 C405 0.931 . S
H429 C406 0.931 . S
H430 C408 0.937 . S
H431 C409 0.931 . S
C432 Eu433 2.835 . S
C432 C434 1.500 . S
C432 O452 1.257 . S
C432 O453 1.260 . S
Eu433 C432 2.835 . S
Eu433 O452 2.473 . S
Eu433 O453 2.480 . S
Eu433 O454 2.430 . S
Eu433 O455 2.670 1_455 S
Eu433 O456 2.394 . S
Eu433 O461 2.355 . S
Eu433 O463 2.374 1_455 S
C434 C432 1.500 . S
C434 C435 1.377 . S
C434 C439 1.377 . S
C435 C434 1.377 . S
C435 C436 1.395 . S
C435 H464 0.931 . S
C436 C435 1.395 . S
C436 C437 1.383 . S
C436 H465 0.931 . S
C437 C436 1.383 . S
C437 C438 1.394 . S
C438 C437 1.394 . S
C438 C439 1.378 . S
C438 H466 0.931 . S
C439 C434 1.377 . S
C439 C438 1.378 . S
C439 H467 0.931 . S
C440 O454 1.264 . S
C440 O455 1.267 1_455 S
C441 O456 1.251 . S
C441 O457 1.251 . S
C442 Eu443 2.835 . S
C442 C444 1.500 . S
C442 O458 1.257 . S
C442 O459 1.260 . S
Eu443 C442 2.835 . S
Eu443 O455 2.355 . S
Eu443 O457 2.374 1_655 S
Eu443 O458 2.473 . S
Eu443 O459 2.480 . S
Eu443 O460 2.430 . S
Eu443 O461 2.670 1_655 S
Eu443 O462 2.394 . S
C444 C442 1.500 . S
C444 C445 1.377 . S
C444 C449 1.377 . S
C445 C444 1.377 . S
C445 C446 1.395 . S
C445 H468 0.931 . S
C446 C445 1.395 . S
C446 C447 1.383 . S
C446 H469 0.931 . S
C447 C446 1.383 . S
C447 C448 1.394 . S
C448 C447 1.394 . S
C448 C449 1.378 . S
C448 H470 0.931 . S
C449 C444 1.377 . S
C449 C448 1.378 . S
C449 H471 0.931 . S
C450 O460 1.259 . S
C450 O461 1.270 1_655 S
C451 O462 1.251 . S
C451 O463 1.251 . S
O452 C432 1.257 . S
O452 Eu433 2.473 . S
O453 C432 1.260 . S
O453 Eu433 2.480 . S
O454 Eu433 2.430 . S
O454 C440 1.264 . S
O455 Eu433 2.670 1_655 S
O455 C440 1.267 1_655 S
O455 Eu443 2.355 . S
O456 Eu433 2.394 . S
O456 C441 1.251 . S
O457 C441 1.251 . S
O457 Eu443 2.374 1_455 S
O458 C442 1.257 . S
O458 Eu443 2.473 . S
O459 C442 1.260 . S
O459 Eu443 2.480 . S
O460 Eu443 2.430 . S
O460 C450 1.259 . S
O461 Eu433 2.355 . S
O461 Eu443 2.670 1_455 S
O461 C450 1.270 1_455 S
O462 Eu443 2.394 . S
O462 C451 1.251 . S
O463 Eu433 2.374 1_655 S
O463 C451 1.251 . S
H464 C435 0.931 . S
H465 C436 0.931 . S
H466 C438 0.931 . S
H467 C439 0.931 . S
H468 C445 0.931 . S
H469 C446 0.931 . S
H470 C448 0.931 . S
H471 C449 0.931 . S
H472 C478 0.930 . S
H473 C481 0.930 . S
H474 C482 0.930 . S
H475 C483 0.930 . S
H476 C486 0.930 . S
H477 C487 0.930 . S
C478 H472 0.930 . S
C478 C479 1.355 1_545 S
C478 C480 1.415 . S
C479 C478 1.355 1_565 S
C479 C481 1.419 . S
C480 C478 1.415 . S
C480 C485 1.425 1_545 S
C480 C487 1.409 . S
C481 H473 0.930 . S
C481 C479 1.419 . S
C481 C482 1.362 . S
C482 H474 0.930 . S
C482 C481 1.362 . S
C482 C485 1.409 . S
C483 H475 0.930 . S
C483 C484 1.355 1_565 S
C483 C485 1.415 . S
C484 C483 1.355 1_545 S
C484 C486 1.419 . S
C485 C480 1.425 1_565 S
C485 C482 1.409 . S
C485 C483 1.415 . S
C486 H476 0.930 . S
C486 C484 1.419 . S
C486 C487 1.362 . S
C487 H477 0.930 . S
C487 C480 1.409 . S
C487 C486 1.362 . S
H488 C494 0.930 . S
H489 C497 0.930 . S
H490 C498 0.930 . S
H491 C499 0.930 . S
H492 C502 0.930 . S
H493 C503 0.930 . S
C494 H488 0.930 . S
C494 C495 1.355 . S
C494 C496 1.415 . S
C495 C494 1.355 . S
C495 C497 1.419 . S
C496 C494 1.415 . S
C496 C501 1.425 . S
C496 C503 1.409 . S
C497 H489 0.930 . S
C497 C495 1.419 . S
C497 C498 1.362 . S
C498 H490 0.930 . S
C498 C497 1.362 . S
C498 C501 1.409 . S
C499 H491 0.930 . S
C499 C500 1.355 . S
C499 C501 1.415 . S
C500 C499 1.355 . S
C500 C502 1.419 . S
C501 C496 1.425 . S
C501 C498 1.409 . S
C501 C499 1.415 . S
C502 H492 0.930 . S
C502 C500 1.419 . S
C502 C503 1.362 . S
C503 H493 0.930 . S
C503 C496 1.409 . S
C503 C502 1.362 . S
H504 C510 0.930 . S
H505 C513 0.930 . S
H506 C514 0.930 . S
H507 C515 0.930 . S
H508 C518 0.930 . S
H509 C519 0.930 . S
C510 H504 0.930 . S
C510 C511 1.355 . S
C510 C512 1.415 . S
C511 C510 1.355 . S
C511 C513 1.419 . S
C512 C510 1.415 . S
C512 C517 1.425 . S
C512 C519 1.409 . S
C513 H505 0.930 . S
C513 C511 1.419 . S
C513 C514 1.362 . S
C514 H506 0.930 . S
C514 C513 1.362 . S
C514 C517 1.409 . S
C515 H507 0.930 . S
C515 C516 1.355 . S
C515 C517 1.415 . S
C516 C515 1.355 . S
C516 C518 1.419 . S
C517 C512 1.425 . S
C517 C514 1.409 . S
C517 C515 1.415 . S
C518 H508 0.930 . S
C518 C516 1.419 . S
C518 C519 1.362 . S
C519 H509 0.930 . S
C519 C512 1.409 . S
C519 C518 1.362 . S
H520 C526 0.930 . S
H521 C529 0.930 . S
H522 C530 0.930 . S
H523 C531 0.930 . S
H524 C534 0.930 . S
H525 C535 0.930 . S
C526 H520 0.930 . S
C526 C527 1.360 . S
C526 C528 1.415 . S
C527 C526 1.360 . S
C527 C529 1.414 1_455 S
C528 C526 1.415 . S
C528 C533 1.425 1_455 S
C528 C535 1.409 . S
C529 H521 0.930 . S
C529 C527 1.414 1_655 S
C529 C530 1.362 . S
C530 H522 0.930 . S
C530 C529 1.362 . S
C530 C533 1.409 . S
C531 H523 0.930 . S
C531 C532 1.351 1_655 S
C531 C533 1.415 . S
C532 C531 1.351 1_455 S
C532 C534 1.425 . S
C533 C528 1.425 1_655 S
C533 C530 1.409 . S
C533 C531 1.415 . S
C534 H524 0.930 . S
C534 C532 1.425 . S
C534 C535 1.362 . S
C535 H525 0.930 . S
C535 C528 1.409 . S
C535 C534 1.362 . S
H536 C542 0.930 . S
H537 C545 0.930 . S
H538 C546 0.930 . S
H539 C547 0.930 . S
H540 C550 0.930 . S
H541 C551 0.930 . S
C542 H536 0.930 . S
C542 C543 1.355 1_565 S
C542 C544 1.415 . S
C543 C542 1.355 1_545 S
C543 C545 1.419 . S
C544 C542 1.415 . S
C544 C549 1.425 1_565 S
C544 C551 1.409 . S
C545 H537 0.930 . S
C545 C543 1.419 . S
C545 C546 1.362 . S
C546 H538 0.930 . S
C546 C545 1.362 . S
C546 C549 1.409 . S
C547 H539 0.930 . S
C547 C548 1.355 1_545 S
C547 C549 1.415 1_556 S
C548 C547 1.355 1_565 S
C548 C550 1.419 . S
C549 C544 1.425 1_545 S
C549 C546 1.409 . S
C549 C547 1.415 1_554 S
C550 H540 0.930 . S
C550 C548 1.419 . S
C550 C551 1.362 1_556 S
C551 H541 0.930 . S
C551 C544 1.409 . S
C551 C550 1.362 1_554 S
H552 C558 0.930 . S
H553 C561 0.930 . S
H554 C562 0.930 . S
H555 C563 0.930 . S
H556 C566 0.930 . S
H557 C567 0.930 . S
C558 H552 0.930 . S
C558 C559 1.355 . S
C558 C560 1.415 . S
C559 C558 1.355 . S
C559 C561 1.419 . S
C560 C558 1.415 . S
C560 C565 1.425 . S
C560 C567 1.409 1_554 S
C561 H553 0.930 . S
C561 C559 1.419 . S
C561 C562 1.362 . S
C562 H554 0.930 . S
C562 C561 1.362 . S
C562 C565 1.409 . S
C563 H555 0.930 . S
C563 C564 1.355 . S
C563 C565 1.415 1_556 S
C564 C563 1.355 . S
C564 C566 1.419 . S
C565 C560 1.425 . S
C565 C562 1.409 . S
C565 C563 1.415 1_554 S
C566 H556 0.930 . S
C566 C564 1.419 . S
C566 C567 1.362 . S
C567 H557 0.930 . S
C567 C560 1.409 1_556 S
C567 C566 1.362 . S
H568 C574 0.930 . S
H569 C577 0.930 . S
H570 C578 0.930 . S
H571 C579 0.930 . S
H572 C582 0.930 . S
H573 C583 0.930 . S
C574 H568 0.930 . S
C574 C575 1.355 . S
C574 C576 1.415 . S
C575 C574 1.355 . S
C575 C577 1.419 . S
C576 C574 1.415 . S
C576 C581 1.425 . S
C576 C583 1.409 . S
C577 H569 0.930 . S
C577 C575 1.419 . S
C577 C578 1.362 . S
C578 H570 0.930 . S
C578 C577 1.362 . S
C578 C581 1.409 . S
C579 H571 0.930 . S
C579 C580 1.355 . S
C579 C581 1.415 1_556 S
C580 C579 1.355 . S
C580 C582 1.419 . S
C581 C576 1.425 . S
C581 C578 1.409 . S
C581 C579 1.415 1_554 S
C582 H572 0.930 . S
C582 C580 1.419 . S
C582 C583 1.362 1_556 S
C583 H573 0.930 . S
C583 C576 1.409 . S
C583 C582 1.362 1_554 S
H584 C590 0.930 . S
H585 C593 0.930 . S
H586 C594 0.930 . S
H587 C595 0.930 . S
H588 C598 0.930 . S
H589 C599 0.930 . S
C590 H584 0.930 . S
C590 C591 1.355 1_455 S
C590 C592 1.415 . S
C591 C590 1.355 1_655 S
C591 C593 1.419 . S
C592 C590 1.415 . S
C592 C597 1.425 1_455 S
C592 C599 1.409 . S
C593 H585 0.930 . S
C593 C591 1.419 . S
C593 C594 1.362 . S
C594 H586 0.930 . S
C594 C593 1.362 . S
C594 C597 1.409 . S
C595 H587 0.930 . S
C595 C596 1.327 1_655 S
C595 C597 1.415 1_556 S
C596 C595 1.327 1_455 S
C596 C598 1.455 . S
C597 C592 1.425 1_655 S
C597 C594 1.409 . S
C597 C595 1.415 1_554 S
C598 H588 0.930 . S
C598 C596 1.455 . S
C598 C599 1.362 1_556 S
C599 H589 0.930 . S
C599 C592 1.409 . S
C599 C598 1.362 1_554 S
H600 C606 0.930 . S
H601 C609 0.930 . S
H602 C610 0.930 . S
H603 C611 0.930 . S
H604 C614 0.930 . S
H605 C615 0.930 1_455 S
C606 H600 0.930 . S
C606 C607 1.355 . S
C606 C608 1.415 1_455 S
C607 C606 1.355 . S
C607 C609 1.419 1_455 S
C608 C606 1.415 1_655 S
C608 C613 1.425 . S
C608 C615 1.409 . S
C609 H601 0.930 . S
C609 C607 1.419 1_655 S
C609 C610 1.362 . S
C610 H602 0.930 . S
C610 C609 1.362 . S
C610 C613 1.409 . S
C611 H603 0.930 . S
C611 C612 1.355 . S
C611 C613 1.415 . S
C612 C611 1.355 . S
C612 C614 1.419 . S
C613 C608 1.425 . S
C613 C610 1.409 . S
C613 C611 1.415 . S
C614 H604 0.930 . S
C614 C612 1.419 . S
C614 C615 1.362 . S
C615 H605 0.930 1_655 S
C615 C608 1.409 . S
C615 C614 1.362 . S
H616 C622 0.930 . S
H617 C625 0.930 . S
H618 C626 0.930 . S
H619 C627 0.930 . S
H620 C630 0.930 . S
H621 C631 0.931 . S
C622 H616 0.930 . S
C622 C623 1.360 . S
C622 C624 1.415 1_545 S
C623 C622 1.360 . S
C623 C625 1.403 1_545 S
C624 C622 1.415 1_565 S
C624 C629 1.425 . S
C624 C631 1.409 1_565 S
C625 H617 0.930 . S
C625 C623 1.403 1_565 S
C625 C626 1.362 . S
C626 H618 0.930 . S
C626 C625 1.362 . S
C626 C629 1.409 . S
C627 H619 0.930 . S
C627 C628 1.355 . S
C627 C629 1.415 . S
C628 C627 1.355 . S
C628 C630 1.419 . S
C629 C624 1.425 . S
C629 C626 1.409 . S
C629 C627 1.415 . S
C630 H620 0.930 . S
C630 C628 1.419 . S
C630 C631 1.362 1_565 S
C631 H621 0.931 . S
C631 C624 1.409 1_545 S
C631 C630 1.362 1_545 S
H632 C638 0.930 . S
H633 C641 0.930 . S
H634 C642 0.930 . S
H635 C643 0.930 . S
H636 C646 0.930 . S
H637 C647 0.930 . S
C638 H632 0.930 . S
C638 C639 1.355 . S
C638 C640 1.415 . S
C639 C638 1.355 . S
C639 C641 1.419 . S
C640 C638 1.415 . S
C640 C645 1.425 . S
C640 C647 1.409 . S
C641 H633 0.930 . S
C641 C639 1.419 . S
C641 C642 1.362 . S
C642 H634 0.930 . S
C642 C641 1.362 . S
C642 C645 1.409 . S
C643 H635 0.930 . S
C643 C644 1.355 . S
C643 C645 1.415 . S
C644 C643 1.355 . S
C644 C646 1.419 . S
C645 C640 1.425 . S
C645 C642 1.409 . S
C645 C643 1.415 . S
C646 H636 0.930 . S
C646 C644 1.419 . S
C646 C647 1.362 . S
C647 H637 0.930 . S
C647 C640 1.409 . S
C647 C646 1.362 . S
H648 C654 0.930 . S
H649 C657 0.930 . S
H650 C658 0.930 . S
H651 C659 0.930 . S
H652 C662 0.930 . S
H653 C663 0.930 . S
C654 H648 0.930 . S
C654 C655 1.355 . S
C654 C656 1.415 . S
C655 C654 1.355 . S
C655 C657 1.419 . S
C656 C654 1.415 . S
C656 C661 1.425 . S
C656 C663 1.409 . S
C657 H649 0.930 . S
C657 C655 1.419 . S
C657 C658 1.362 . S
C658 H650 0.930 . S
C658 C657 1.362 . S
C658 C661 1.409 . S
C659 H651 0.930 . S
C659 C660 1.355 . S
C659 C661 1.415 . S
C660 C659 1.355 . S
C660 C662 1.419 . S
C661 C656 1.425 . S
C661 C658 1.409 . S
C661 C659 1.415 . S
C662 H652 0.930 . S
C662 C660 1.419 . S
C662 C663 1.362 . S
C663 H653 0.930 . S
C663 C656 1.409 . S
C663 C662 1.362 . S
H664 C670 0.930 . S
H665 C673 0.930 . S
H666 C674 0.930 . S
H667 C675 0.930 . S
H668 C678 0.930 . S
H669 C679 0.930 . S
C670 H664 0.930 . S
C670 C671 1.363 . S
C670 C672 1.415 1_655 S
C671 C670 1.363 . S
C671 C673 1.395 1_655 S
C672 C670 1.415 1_455 S
C672 C677 1.425 . S
C672 C679 1.409 1_454 S
C673 H665 0.930 . S
C673 C671 1.395 1_455 S
C673 C674 1.362 . S
C674 H666 0.930 . S
C674 C673 1.362 . S
C674 C677 1.409 . S
C675 H667 0.930 . S
C675 C676 1.355 1_554 S
C675 C677 1.415 . S
C676 C675 1.355 1_556 S
C676 C678 1.419 . S
C677 C672 1.425 . S
C677 C674 1.409 . S
C677 C675 1.415 . S
C678 H668 0.930 . S
C678 C676 1.419 . S
C678 C679 1.362 1_455 S
C679 H669 0.930 . S
C679 C672 1.409 1_656 S
C679 C678 1.362 1_655 S
H680 C686 0.930 . S
H681 C689 0.930 . S
H682 C690 0.930 . S
H683 C691 0.930 . S
H684 C694 0.930 . S
H685 C695 0.930 . S
C686 H680 0.930 . S
C686 C687 1.355 1_545 S
C686 C688 1.415 . S
C687 C686 1.355 1_565 S
C687 C689 1.419 . S
C688 C686 1.415 . S
C688 C693 1.425 . S
C688 C695 1.409 . S
C689 H681 0.930 . S
C689 C687 1.419 . S
C689 C690 1.362 1_564 S
C690 H682 0.930 . S
C690 C689 1.362 1_546 S
C690 C693 1.409 1_556 S
C691 H683 0.930 . S
C691 C692 1.355 1_556 S
C691 C693 1.415 1_556 S
C692 C691 1.355 1_554 S
C692 C694 1.419 . S
C693 C688 1.425 . S
C693 C690 1.409 1_554 S
C693 C691 1.415 1_554 S
C694 H684 0.930 . S
C694 C692 1.419 . S
C694 C695 1.362 . S
C695 H685 0.930 . S
C695 C688 1.409 . S
C695 C694 1.362 . S
H696 C702 0.930 . S
H697 C705 0.930 . S
H698 C706 0.930 . S
H699 C707 0.930 . S
H700 C710 0.930 . S
H701 C711 0.930 . S
C702 H696 0.930 . S
C702 C703 1.355 . S
C702 C704 1.415 . S
C703 C702 1.355 . S
C703 C705 1.419 . S
C704 C702 1.415 . S
C704 C709 1.425 . S
C704 C711 1.409 1_554 S
C705 H697 0.930 . S
C705 C703 1.419 . S
C705 C706 1.362 . S
C706 H698 0.930 . S
C706 C705 1.362 . S
C706 C709 1.409 . S
C707 H699 0.930 . S
C707 C708 1.355 1_554 S
C707 C709 1.415 . S
C708 C707 1.355 1_556 S
C708 C710 1.419 . S
C709 C704 1.425 . S
C709 C706 1.409 . S
C709 C707 1.415 . S
C710 H700 0.930 . S
C710 C708 1.419 . S
C710 C711 1.362 . S
C711 H701 0.930 . S
C711 C704 1.409 1_556 S
C711 C710 1.362 . S
H712 C718 0.930 . S
H713 C721 0.930 . S
H714 C722 0.930 1_556 S
H715 C723 0.930 . S
H716 C726 0.930 . S
H717 C727 0.930 . S
C718 H712 0.930 . S
C718 C719 1.355 . S
C718 C720 1.415 . S
C719 C718 1.355 . S
C719 C721 1.419 . S
C720 C718 1.415 . S
C720 C725 1.425 . S
C720 C727 1.409 . S
C721 H713 0.930 . S
C721 C719 1.419 . S
C721 C722 1.362 . S
C722 H714 0.930 1_554 S
C722 C721 1.362 . S
C722 C725 1.409 . S
C723 H715 0.930 . S
C723 C724 1.355 1_556 S
C723 C725 1.415 1_556 S
C724 C723 1.355 1_554 S
C724 C726 1.419 . S
C725 C720 1.425 . S
C725 C722 1.409 . S
C725 C723 1.415 1_554 S
C726 H716 0.930 . S
C726 C724 1.419 . S
C726 C727 1.362 . S
C727 H717 0.930 . S
C727 C720 1.409 . S
C727 C726 1.362 . S
H728 C734 0.930 . S
H729 C737 0.930 . S
H730 C738 0.930 . S
H731 C739 0.930 . S
H732 C742 0.930 . S
H733 C743 0.930 . S
C734 H728 0.930 . S
C734 C735 1.376 . S
C734 C736 1.415 . S
C735 C734 1.376 . S
C735 C737 1.395 1_455 S
C736 C734 1.415 . S
C736 C741 1.425 1_455 S
C736 C743 1.409 . S
C737 H729 0.930 . S
C737 C735 1.395 1_655 S
C737 C738 1.362 . S
C738 H730 0.930 . S
C738 C737 1.362 . S
C738 C741 1.409 . S
C739 H731 0.930 . S
C739 C740 1.355 1_655 S
C739 C741 1.415 . S
C740 C739 1.355 1_455 S
C740 C742 1.419 . S
C741 C736 1.425 1_655 S
C741 C738 1.409 . S
C741 C739 1.415 . S
C742 H732 0.930 . S
C742 C740 1.419 . S
C742 C743 1.362 . S
C743 H733 0.930 . S
C743 C736 1.409 . S
C743 C742 1.362 . S
H744 C750 0.930 . S
H745 C753 0.930 . S
H746 C754 0.930 . S
H747 C755 0.930 . S
H748 C758 0.930 . S
H749 C759 0.930 . S
C750 H744 0.930 . S
C750 C751 1.355 1_565 S
C750 C752 1.414 1_565 S
C751 C750 1.355 1_545 S
C751 C753 1.419 . S
C752 C750 1.414 1_545 S
C752 C757 1.427 . S
C752 C759 1.408 1_545 S
C753 H745 0.930 . S
C753 C751 1.419 . S
C753 C754 1.362 . S
C754 H746 0.930 . S
C754 C753 1.362 . S
C754 C757 1.409 . S
C755 H747 0.930 . S
C755 C756 1.355 . S
C755 C757 1.415 . S
C756 C755 1.355 . S
C756 C758 1.419 1_545 S
C757 C752 1.427 . S
C757 C754 1.409 . S
C757 C755 1.415 . S
C758 H748 0.930 . S
C758 C756 1.419 1_565 S
C758 C759 1.362 . S
C759 H749 0.930 . S
C759 C752 1.408 1_565 S
C759 C758 1.362 . S
H760 C766 0.930 . S
H761 C769 0.930 . S
H762 C770 0.930 . S
H763 C771 0.930 . S
H764 C774 0.930 . S
H765 C775 0.930 . S
C766 H760 0.930 . S
C766 C767 1.355 . S
C766 C768 1.415 . S
C767 C766 1.355 . S
C767 C769 1.419 . S
C768 C766 1.415 . S
C768 C773 1.425 . S
C768 C775 1.409 . S
C769 H761 0.930 . S
C769 C767 1.419 . S
C769 C770 1.362 . S
C770 H762 0.930 . S
C770 C769 1.362 . S
C770 C773 1.409 . S
C771 H763 0.930 . S
C771 C772 1.355 . S
C771 C773 1.415 . S
C772 C771 1.355 . S
C772 C774 1.419 . S
C773 C768 1.425 . S
C773 C770 1.409 . S
C773 C771 1.415 . S
C774 H764 0.930 . S
C774 C772 1.419 . S
C774 C775 1.362 . S
C775 H765 0.930 . S
C775 C768 1.409 . S
C775 C774 1.362 . S
H776 C782 0.930 . S
H777 C785 0.930 . S
H778 C786 0.930 . S
H779 C787 0.930 . S
H780 C790 0.930 . S
H781 C791 0.930 . S
C782 H776 0.930 . S
C782 C783 1.355 . S
C782 C784 1.415 . S
C783 C782 1.355 . S
C783 C785 1.419 . S
C784 C782 1.415 . S
C784 C789 1.425 . S
C784 C791 1.409 . S
C785 H777 0.930 . S
C785 C783 1.419 . S
C785 C786 1.362 . S
C786 H778 0.930 . S
C786 C785 1.362 . S
C786 C789 1.409 . S
C787 H779 0.930 . S
C787 C788 1.355 . S
C787 C789 1.415 . S
C788 C787 1.355 . S
C788 C790 1.419 . S
C789 C784 1.425 . S
C789 C786 1.409 . S
C789 C787 1.415 . S
C790 H780 0.930 . S
C790 C788 1.419 . S
C790 C791 1.362 . S
C791 H781 0.930 . S
C791 C784 1.409 . S
C791 C790 1.362 . S
H792 C798 0.945 . S
H793 C801 0.930 . S
H794 C802 0.930 . S
H795 C803 0.930 . S
H796 C806 0.930 . S
H797 C807 0.930 . S
C798 H792 0.945 . S
C798 C799 1.345 1_455 S
C798 C800 1.411 1_455 S
C799 C798 1.345 1_655 S
C799 C801 1.419 . S
C800 C798 1.411 1_655 S
C800 C805 1.425 . S
C800 C807 1.409 1_655 S
C801 H793 0.930 . S
C801 C799 1.419 . S
C801 C802 1.362 . S
C802 H794 0.930 . S
C802 C801 1.362 . S
C802 C805 1.409 . S
C803 H795 0.930 . S
C803 C804 1.355 . S
C803 C805 1.415 . S
C804 C803 1.355 . S
C804 C806 1.419 1_655 S
C805 C800 1.425 . S
C805 C802 1.409 . S
C805 C803 1.415 . S
C806 H796 0.930 . S
C806 C804 1.419 1_455 S
C806 C807 1.362 . S
C807 H797 0.930 . S
C807 C800 1.409 1_455 S
C807 C806 1.362 . S
H808 C814 0.930 . S
H809 C817 0.930 . S
H810 C818 0.930 . S
H811 C819 0.930 . S
H812 C822 0.930 . S
H813 C823 0.930 . S
C814 H808 0.930 . S
C814 C815 1.355 1_545 S
C814 C816 1.417 . S
C815 C814 1.355 1_565 S
C815 C817 1.419 . S
C816 C814 1.417 . S
C816 C821 1.417 1_545 S
C816 C823 1.415 . S
C817 H809 0.930 . S
C817 C815 1.419 . S
C817 C818 1.362 . S
C818 H810 0.930 . S
C818 C817 1.362 . S
C818 C821 1.409 . S
C819 H811 0.930 . S
C819 C820 1.355 . S
C819 C821 1.415 . S
C820 C819 1.355 . S
C820 C822 1.419 1_565 S
C821 C816 1.417 1_565 S
C821 C818 1.409 . S
C821 C819 1.415 . S
C822 H812 0.930 . S
C822 C820 1.419 1_545 S
C822 C823 1.362 . S
C823 H813 0.930 . S
C823 C816 1.415 . S
C823 C822 1.362 . S
H824 C830 0.930 . S
H825 C833 0.930 . S
H826 C834 0.930 . S
H827 C835 0.930 . S
H828 C838 0.930 . S
H829 C839 0.930 . S
C830 H824 0.930 . S
C830 C831 1.355 . S
C830 C832 1.415 . S
C831 C830 1.355 . S
C831 C833 1.419 . S
C832 C830 1.415 . S
C832 C837 1.425 . S
C832 C839 1.409 . S
C833 H825 0.930 . S
C833 C831 1.419 . S
C833 C834 1.362 . S
C834 H826 0.930 . S
C834 C833 1.362 . S
C834 C837 1.409 . S
C835 H827 0.930 . S
C835 C836 1.355 . S
C835 C837 1.415 . S
C836 C835 1.355 . S
C836 C838 1.419 . S
C837 C832 1.425 . S
C837 C834 1.409 . S
C837 C835 1.415 . S
C838 H828 0.930 . S
C838 C836 1.419 . S
C838 C839 1.362 . S
C839 H829 0.930 . S
C839 C832 1.409 . S
C839 C838 1.362 . S
H840 C846 0.930 . S
H841 C849 0.930 . S
H842 C850 0.930 . S
H843 C851 0.930 . S
H844 C854 0.930 . S
H845 C855 0.930 . S
C846 H840 0.930 . S
C846 C847 1.355 . S
C846 C848 1.415 . S
C847 C846 1.355 . S
C847 C849 1.419 . S
C848 C846 1.415 . S
C848 C853 1.425 . S
C848 C855 1.409 . S
C849 H841 0.930 . S
C849 C847 1.419 . S
C849 C850 1.362 . S
C850 H842 0.930 . S
C850 C849 1.362 . S
C850 C853 1.409 . S
C851 H843 0.930 . S
C851 C852 1.355 . S
C851 C853 1.415 . S
C852 C851 1.355 . S
C852 C854 1.419 . S
C853 C848 1.425 . S
C853 C850 1.409 . S
C853 C851 1.415 . S
C854 H844 0.930 . S
C854 C852 1.419 . S
C854 C855 1.362 . S
C855 H845 0.930 . S
C855 C848 1.409 . S
C855 C854 1.362 . S
C479 C255 2.364 . S
C484 C330 2.606 1_545 S
C500 C370 2.631 . S
C495 C294 2.361 . S
C516 C410 2.618 . S
C511 C177 2.333 . S
C532 C450 2.603 1_455 S
C527 C216 2.317 1_455 S
C548 C320 2.607 1_565 S
C543 C99 2.362 1_545 S
C559 C138 2.359 . S
C564 C360 2.630 . S
C575 C21 2.351 . S
C580 C400 2.614 . S
C591 C60 2.330 . S
C596 C440 2.602 . S
C612 C317 0.461 . S
C607 C196 0.414 1_455 S
C628 C357 0.438 . S
C623 C235 0.467 1_545 S
C644 C397 0.392 . S
C639 C289 0.406 . S
C655 C157 0.591 . S
C660 C437 0.595 . S
C671 C40 0.416 . S
C676 C327 0.411 . S
C692 C367 0.610 1_554 S
C687 C79 0.607 . S
C708 C407 0.418 . S
C703 C133 0.386 . S
C719 C1 0.529 . S
C724 C447 0.507 1_554 S
C735 C211 2.977 . S
C740 C321 3.416 . S
C751 C250 2.904 . S
C756 C361 3.364 . S
C772 C401 3.360 . S
C767 C274 2.904 . S
C788 C441 3.381 . S
C783 C172 2.956 . S
C799 C55 2.952 1_655 S
C804 C331 3.403 . S
C820 C371 3.358 . S
C815 C94 2.916 1_565 S
C836 C411 3.375 . S
C831 C118 2.933 . S
C847 C16 2.962 . S
C852 C451 3.409 . S
