# Generated by pormake.
# Topology pyr, (3,6)-cn, num edge types: 1
# Building blocks:
#     Node 0, Type 0, BuildingBlock: MIDCAF_clean_linker_0, # of connection points: 3
#     Node 1, Type 0, BuildingBlock: MIDCAF_clean_linker_0, # of connection points: 3
#     Node 2, Type 0, BuildingBlock: MIDCAF_clean_linker_0, # of connection points: 3
#     Node 3, Type 0, BuildingBlock: MIDCAF_clean_linker_0, # of connection points: 3
#     Node 4, Type 0, BuildingBlock: MIDCAF_clean_linker_0, # of connection points: 3
#     Node 5, Type 0, BuildingBlock: MIDCAF_clean_linker_0, # of connection points: 3
#     Node 6, Type 0, BuildingBlock: MIDCAF_clean_linker_0, # of connection points: 3
#     Node 7, Type 0, BuildingBlock: MIDCAF_clean_linker_0, # of connection points: 3
#     Node 8, Type 1, BuildingBlock: LEVNOQ01_clean_sbu_1, # of connection points: 6
#     Node 9, Type 1, BuildingBlock: LEVNOQ01_clean_sbu_1, # of connection points: 6
#     Node 10, Type 1, BuildingBlock: LEVNOQ01_clean_sbu_1, # of connection points: 6
#     Node 11, Type 1, BuildingBlock: LEVNOQ01_clean_sbu_1, # of connection points: 6
#     Edge 12, Type (0, 1), BuildingBlock: XIVTED_clean_linker_0, # of connection points: 2
#     Edge 13, Type (0, 1), BuildingBlock: XIVTED_clean_linker_0, # of connection points: 2
#     Edge 14, Type (0, 1), BuildingBlock: XIVTED_clean_linker_0, # of connection points: 2
#     Edge 15, Type (0, 1), BuildingBlock: XIVTED_clean_linker_0, # of connection points: 2
#     Edge 16, Type (0, 1), BuildingBlock: XIVTED_clean_linker_0, # of connection points: 2
#     Edge 17, Type (0, 1), BuildingBlock: XIVTED_clean_linker_0, # of connection points: 2
#     Edge 18, Type (0, 1), BuildingBlock: XIVTED_clean_linker_0, # of connection points: 2
#     Edge 19, Type (0, 1), BuildingBlock: XIVTED_clean_linker_0, # of connection points: 2
#     Edge 20, Type (0, 1), BuildingBlock: XIVTED_clean_linker_0, # of connection points: 2
#     Edge 21, Type (0, 1), BuildingBlock: XIVTED_clean_linker_0, # of connection points: 2
#     Edge 22, Type (0, 1), BuildingBlock: XIVTED_clean_linker_0, # of connection points: 2
#     Edge 23, Type (0, 1), BuildingBlock: XIVTED_clean_linker_0, # of connection points: 2
#     Edge 24, Type (0, 1), BuildingBlock: XIVTED_clean_linker_0, # of connection points: 2
#     Edge 25, Type (0, 1), BuildingBlock: XIVTED_clean_linker_0, # of connection points: 2
#     Edge 26, Type (0, 1), BuildingBlock: XIVTED_clean_linker_0, # of connection points: 2
#     Edge 27, Type (0, 1), BuildingBlock: XIVTED_clean_linker_0, # of connection points: 2
#     Edge 28, Type (0, 1), BuildingBlock: XIVTED_clean_linker_0, # of connection points: 2
#     Edge 29, Type (0, 1), BuildingBlock: XIVTED_clean_linker_0, # of connection points: 2
#     Edge 30, Type (0, 1), BuildingBlock: XIVTED_clean_linker_0, # of connection points: 2
#     Edge 31, Type (0, 1), BuildingBlock: XIVTED_clean_linker_0, # of connection points: 2
#     Edge 32, Type (0, 1), BuildingBlock: XIVTED_clean_linker_0, # of connection points: 2
#     Edge 33, Type (0, 1), BuildingBlock: XIVTED_clean_linker_0, # of connection points: 2
#     Edge 34, Type (0, 1), BuildingBlock: XIVTED_clean_linker_0, # of connection points: 2
#     Edge 35, Type (0, 1), BuildingBlock: XIVTED_clean_linker_0, # of connection points: 2
# Relax obj value: 0.035
# Max RMSD: 0.111
# Mean RMSD: 0.047
data_MOF--net-pry--node1-LEVNOQ01_clean_sbu_1--node2-MIDCAF_clean_linker_0--edge1-XIVTED_clean_linker_0
_symmetry_space_group_name_H-M    P1
_symmetry_Int_Tables_number       1
_symmetry_cell_setting            triclinic
loop_
_symmetry_equiv_pos_as_xyz
'x, y, z'
_cell_length_a     45.797006
_cell_length_b     44.172954
_cell_length_c     44.07184
_cell_angle_alpha  92.301223
_cell_angle_beta   91.463085
_cell_angle_gamma 94.219677
loop_
_atom_site_label
_atom_site_type_symbol
_atom_site_fract_x
_atom_site_fract_y
_atom_site_fract_z
_atom_type_partial_charge
C0 C 0.0925 0.13724 0.23334 0.0
C1 C 0.10628 0.11503 0.24924 0.0
C2 C 0.13092 0.10265 0.23671 0.0
C3 C 0.14091 0.11155 0.20837 0.0
H4 H 0.20379 0.09701 0.14449 0.0
H5 H 0.24716 0.07741 0.12233 0.0
H6 H 0.22946 0.12274 0.03952 0.0
H7 H 0.18663 0.14301 0.06184 0.0
H8 H 0.14087 0.19451 0.0621 0.0
H9 H 0.11583 0.23424 0.03738 0.0
H10 H 0.0598 0.24162 0.11429 0.0
H11 H 0.08416 0.20178 0.1386 0.0
H12 H 0.09095 0.16306 0.19353 0.0
H13 H 0.07369 0.1475 0.24256 0.0
H14 H 0.14185 0.08531 0.24829 0.0
H15 H 0.15958 0.10109 0.19908 0.0
N16 N 0.15842 0.12843 0.14777 0.0
N17 N 0.15248 0.1575 0.10484 0.0
N18 N 0.122 0.16297 0.14628 0.0
C19 C 0.16678 0.13612 0.1195 0.0
C20 C 0.13003 0.17105 0.1181 0.0
C21 C 0.136 0.14175 0.16132 0.0
C22 C 0.19184 0.12203 0.10517 0.0
C23 C 0.20899 0.10267 0.12147 0.0
C24 C 0.23381 0.09119 0.10867 0.0
C25 C 0.24204 0.09871 0.07923 0.0
C26 C 0.22415 0.11697 0.06249 0.0
C27 C 0.19946 0.12855 0.0753 0.0
C28 C 0.11462 0.19481 0.10242 0.0
C29 C 0.1231 0.20449 0.07368 0.0
C30 C 0.10883 0.22741 0.05953 0.0
C31 C 0.08567 0.24112 0.07374 0.0
C32 C 0.07714 0.23126 0.10236 0.0
C33 C 0.09136 0.20846 0.11646 0.0
C34 C 0.12654 0.13315 0.19205 0.0
C35 C 0.10249 0.1462 0.20518 0.0
C36 C 0.26298 0.91224 0.59529 0.0
C37 C 0.25493 0.90427 0.56485 0.0
C38 C 0.27493 0.89014 0.54643 0.0
C39 C 0.30236 0.88393 0.55821 0.0
H40 H 0.35902 0.81055 0.56013 0.0
H41 H 0.38419 0.76875 0.53825 0.0
H42 H 0.46686 0.81133 0.57364 0.0
H43 H 0.44126 0.8522 0.59704 0.0
H44 H 0.43567 0.89747 0.65771 0.0
H45 H 0.45607 0.91887 0.70593 0.0
H46 H 0.37055 0.94503 0.73097 0.0
H47 H 0.35026 0.9245 0.68201 0.0
H48 H 0.29625 0.91298 0.63048 0.0
H49 H 0.24805 0.92343 0.60991 0.0
H50 H 0.26925 0.88363 0.52294 0.0
H51 H 0.3172 0.87297 0.54331 0.0
N52 N 0.35533 0.86472 0.58583 0.0
N53 N 0.39386 0.87329 0.62183 0.0
N54 N 0.35152 0.89986 0.62667 0.0
C55 C 0.38227 0.85846 0.5962 0.0
C56 C 0.37863 0.89397 0.63728 0.0
C57 C 0.33988 0.88549 0.60073 0.0
C58 C 0.39811 0.83454 0.5806 0.0
C59 C 0.38261 0.81108 0.56306 0.0
C60 C 0.39716 0.78714 0.55026 0.0
C61 C 0.42769 0.78631 0.55421 0.0
C62 C 0.44328 0.81061 0.57068 0.0
C63 C 0.42864 0.83423 0.584 0.0
C64 C 0.39122 0.90894 0.66602 0.0
C65 C 0.42117 0.90791 0.67338 0.0
C66 C 0.43287 0.92008 0.70121 0.0
C67 C 0.41493 0.93331 0.72272 0.0
C68 C 0.38512 0.93524 0.71497 0.0
C69 C 0.37343 0.9233 0.6869 0.0
C70 C 0.31062 0.89212 0.58858 0.0
C71 C 0.29064 0.90644 0.60699 0.0
C72 C 0.62819 0.26727 0.88326 0.0
C73 C 0.60014 0.25312 0.8762 0.0
C74 C 0.57736 0.27153 0.86862 0.0
C75 C 0.58257 0.3031 0.86809 0.0
H76 H 0.56922 0.3808 0.8089 0.0
H77 H 0.56192 0.39644 0.75716 0.0
H78 H 0.64439 0.45097 0.76425 0.0
H79 H 0.651 0.43623 0.81655 0.0
H80 H 0.67987 0.4466 0.8858 0.0
H81 H 0.72331 0.46365 0.91686 0.0
H82 H 0.70258 0.39292 0.97934 0.0
H83 H 0.65929 0.37575 0.94848 0.0
H84 H 0.65493 0.30896 0.88924 0.0
H85 H 0.64658 0.25411 0.88834 0.0
H86 H 0.55531 0.26177 0.86367 0.0
H87 H 0.56478 0.31676 0.86198 0.0
N88 N 0.60764 0.36439 0.85 0.0
N89 N 0.63586 0.40867 0.86704 0.0
N90 N 0.63495 0.36499 0.89562 0.0
C91 C 0.61721 0.39374 0.84597 0.0
C92 C 0.64429 0.39453 0.89235 0.0
C93 C 0.61657 0.3499 0.87467 0.0
C94 C 0.61072 0.40719 0.81669 0.0
C95 C 0.58556 0.39649 0.79952 0.0
C96 C 0.58159 0.40517 0.76972 0.0
C97 C 0.6029 0.4244 0.75621 0.0
C98 C 0.62747 0.4362 0.77391 0.0
C99 C 0.63124 0.42783 0.80394 0.0
C100 C 0.66655 0.40929 0.91419 0.0
C101 C 0.68411 0.43518 0.90658 0.0
C102 C 0.70893 0.44507 0.92446 0.0
C103 C 0.71652 0.42923 0.9502 0.0
C104 C 0.69747 0.40518 0.95931 0.0
C105 C 0.67271 0.39535 0.94154 0.0
C106 C 0.61036 0.31692 0.8761 0.0
C107 C 0.63308 0.29879 0.88372 0.0
C108 C 0.79081 0.58622 0.4609 0.0
C109 C 0.77402 0.56351 0.44361 0.0
C110 C 0.78741 0.5475 0.42026 0.0
C111 C 0.81626 0.55554 0.41279 0.0
H112 H 0.85558 0.56934 0.33215 0.0
H113 H 0.86375 0.56303 0.27817 0.0
H114 H 0.95265 0.6021 0.29238 0.0
H115 H 0.94402 0.60963 0.34634 0.0
H116 H 0.9585 0.64933 0.40973 0.0
H117 H 0.98155 0.69804 0.42868 0.0
H118 H 0.9102 0.70847 0.48954 0.0
H119 H 0.88743 0.65938 0.47118 0.0
H120 H 0.83174 0.61289 0.46624 0.0
H121 H 0.78107 0.59895 0.47904 0.0
H122 H 0.77523 0.52938 0.407 0.0
H123 H 0.82545 0.54344 0.39386 0.0
N124 N 0.86847 0.58363 0.38837 0.0
N125 N 0.91066 0.6169 0.39314 0.0
N126 N 0.87859 0.61253 0.4337 0.0
C127 C 0.89318 0.59619 0.37617 0.0
C128 C 0.90362 0.62512 0.42196 0.0
C129 C 0.86111 0.59142 0.41715 0.0
C130 C 0.89915 0.59003 0.34367 0.0
C131 C 0.87696 0.57644 0.32385 0.0
C132 C 0.88168 0.57274 0.29278 0.0
C133 C 0.90884 0.58216 0.28071 0.0
C134 C 0.93123 0.59519 0.30066 0.0
C135 C 0.92639 0.59922 0.33172 0.0
C136 C 0.92071 0.65081 0.43834 0.0
C137 C 0.94804 0.66162 0.42768 0.0
C138 C 0.96128 0.68956 0.43855 0.0
C139 C 0.94736 0.70744 0.4601 0.0
C140 C 0.92153 0.69526 0.47297 0.0
C141 C 0.90836 0.66714 0.46225 0.0
C142 C 0.83248 0.57972 0.42859 0.0
C143 C 0.81983 0.59425 0.45348 0.0
C144 C 0.77867 0.94163 0.90266 0.0
C145 C 0.76317 0.92915 0.9269 0.0
C146 C 0.77273 0.90262 0.93944 0.0
C147 C 0.79701 0.88892 0.92796 0.0
H148 H 0.85048 0.81382 0.93769 0.0
H149 H 0.87121 0.7687 0.9575 0.0
H150 H 0.94804 0.7862 0.90429 0.0
H151 H 0.92734 0.83049 0.88417 0.0
H152 H 0.91802 0.86049 0.82162 0.0
H153 H 0.93683 0.87498 0.77286 0.0
H154 H 0.87061 0.93914 0.76471 0.0
H155 H 0.85128 0.92431 0.81349 0.0
H156 H 0.81407 0.93817 0.87235 0.0
H157 H 0.77236 0.96229 0.89272 0.0
H158 H 0.76111 0.89201 0.95778 0.0
H159 H 0.80351 0.86839 0.93803 0.0
N160 N 0.84998 0.86377 0.90537 0.0
N161 N 0.88389 0.85986 0.86666 0.0
N162 N 0.84854 0.89533 0.86371 0.0
C163 C 0.87335 0.85054 0.89354 0.0
C164 C 0.87163 0.88209 0.85149 0.0
C165 C 0.8376 0.88642 0.89063 0.0
C166 C 0.88696 0.82546 0.90885 0.0
C167 C 0.87196 0.80822 0.93055 0.0
C168 C 0.88389 0.78244 0.94202 0.0
C169 C 0.91107 0.77354 0.93208 0.0
C170 C 0.92675 0.79196 0.91188 0.0
C171 C 0.91484 0.81744 0.90034 0.0
C172 C 0.88313 0.89127 0.8217 0.0
C173 C 0.90735 0.8777 0.80955 0.0
C174 C 0.91828 0.8861 0.78156 0.0
C175 C 0.90532 0.90831 0.76488 0.0
C176 C 0.88093 0.92173 0.77682 0.0
C177 C 0.86999 0.91336 0.80493 0.0
C178 C 0.81223 0.90123 0.90347 0.0
C179 C 0.80278 0.92782 0.89105 0.0
C180 C 0.61031 0.06226 0.30492 0.0
C181 C 0.59132 0.07777 0.28665 0.0
C182 C 0.57857 0.10322 0.29909 0.0
C183 C 0.58552 0.11379 0.32885 0.0
H184 H 0.55492 0.16208 0.40819 0.0
H185 H 0.53033 0.20563 0.42712 0.0
H186 H 0.61158 0.24352 0.47012 0.0
H187 H 0.63574 0.19905 0.45241 0.0
H188 H 0.69036 0.15622 0.45313 0.0
H189 H 0.73807 0.14411 0.47347 0.0
H190 H 0.72542 0.05425 0.43089 0.0
H191 H 0.67787 0.06635 0.41011 0.0
H192 H 0.63325 0.06141 0.34789 0.0
H193 H 0.6205 0.04265 0.29571 0.0
H194 H 0.56378 0.11548 0.28541 0.0
H195 H 0.57588 0.13404 0.33727 0.0
N196 N 0.60187 0.13639 0.38964 0.0
N197 N 0.63792 0.14341 0.42851 0.0
N198 N 0.64118 0.10527 0.3903 0.0
C199 C 0.61254 0.1514 0.41556 0.0
C200 C 0.65221 0.12017 0.41619 0.0
C201 C 0.61606 0.11337 0.37677 0.0
C202 C 0.59733 0.17719 0.42859 0.0
C203 C 0.56748 0.17961 0.42188 0.0
C204 C 0.55342 0.20475 0.43263 0.0
C205 C 0.56897 0.2285 0.44988 0.0
C206 C 0.59871 0.22563 0.45726 0.0
C207 C 0.61266 0.20017 0.44692 0.0
C208 C 0.68035 0.11226 0.42992 0.0
C209 C 0.69761 0.13378 0.4483 0.0
C210 C 0.72496 0.12694 0.45986 0.0
C211 C 0.73533 0.09826 0.45379 0.0
C212 C 0.71779 0.07645 0.43613 0.0
C213 C 0.69068 0.08346 0.42408 0.0
C214 C 0.60582 0.09943 0.34676 0.0
C215 C 0.61768 0.07313 0.33468 0.0
C216 C 0.28401 0.559 0.10788 0.0
C217 C 0.2674 0.57361 0.0863 0.0
C218 C 0.2777 0.60263 0.07748 0.0
C219 C 0.30268 0.61756 0.09156 0.0
H220 H 0.3613 0.68869 0.08573 0.0
H221 H 0.3771 0.73784 0.06778 0.0
H222 H 0.4291 0.75812 0.15034 0.0
H223 H 0.41213 0.70877 0.16917 0.0
H224 H 0.40989 0.6489 0.22066 0.0
H225 H 0.41419 0.63781 0.27424 0.0
H226 H 0.32493 0.59785 0.27063 0.0
H227 H 0.32151 0.60725 0.21682 0.0
H228 H 0.32006 0.56294 0.14004 0.0
H229 H 0.27732 0.53625 0.11452 0.0
H230 H 0.26551 0.61473 0.06112 0.0
H231 H 0.3091 0.64054 0.08536 0.0
N232 N 0.35417 0.64719 0.12291 0.0
N233 N 0.37718 0.65923 0.17044 0.0
N234 N 0.34457 0.61578 0.16348 0.0
C235 C 0.3728 0.66583 0.14088 0.0
C236 C 0.36306 0.63421 0.18184 0.0
C237 C 0.34023 0.62202 0.1339 0.0
C238 C 0.38531 0.69471 0.12902 0.0
C239 C 0.37628 0.70337 0.10013 0.0
C240 C 0.38552 0.73166 0.08968 0.0
C241 C 0.40444 0.75201 0.10757 0.0
C242 C 0.41417 0.74316 0.13618 0.0
C243 C 0.40464 0.71477 0.14685 0.0
C244 C 0.36557 0.6285 0.21452 0.0
C245 C 0.39126 0.63775 0.23144 0.0
C246 C 0.39354 0.63168 0.26227 0.0
C247 C 0.36991 0.61682 0.27699 0.0
C248 C 0.34385 0.60866 0.26009 0.0
C249 C 0.34184 0.61409 0.22918 0.0
C250 C 0.31758 0.604 0.1151 0.0
C251 C 0.30863 0.57419 0.1224 0.0
C252 C 0.0762 0.30472 0.54807 0.0
C253 C 0.0486 0.29517 0.55911 0.0
C254 C 0.03565 0.31423 0.58041 0.0
C255 C 0.0508 0.34096 0.59202 0.0
H256 H 0.08801 0.36942 0.68418 0.0
H257 H 0.08298 0.38079 0.73799 0.0
H258 H 0.10768 0.47567 0.7242 0.0
H259 H 0.11494 0.46344 0.67065 0.0
H260 H 0.16549 0.46763 0.61213 0.0
H261 H 0.21369 0.48607 0.59591 0.0
H262 H 0.21809 0.40477 0.53881 0.0
H263 H 0.16927 0.38679 0.55427 0.0
H264 H 0.11292 0.33773 0.55134 0.0
H265 H 0.08705 0.29055 0.53193 0.0
H266 H 0.01414 0.30804 0.58888 0.0
H267 H 0.0406 0.35452 0.60921 0.0
N268 N 0.09022 0.38487 0.62615 0.0
N269 N 0.12981 0.42166 0.62694 0.0
N270 N 0.12004 0.38924 0.58378 0.0
C271 C 0.10677 0.40785 0.64101 0.0
C272 C 0.13663 0.41246 0.59835 0.0
C273 C 0.09646 0.37571 0.59739 0.0
C274 C 0.10169 0.41558 0.67325 0.0
C275 C 0.09223 0.39272 0.69271 0.0
C276 C 0.08922 0.39937 0.72366 0.0
C277 C 0.09474 0.42928 0.73587 0.0
C278 C 0.10383 0.45224 0.71608 0.0
C279 C 0.10766 0.44537 0.68523 0.0
C280 C 0.16375 0.42555 0.58485 0.0
C281 C 0.17654 0.45388 0.59576 0.0
C282 C 0.20426 0.46438 0.58657 0.0
C283 C 0.22008 0.44659 0.56658 0.0
C284 C 0.20652 0.4191 0.55416 0.0
C285 C 0.17854 0.40874 0.56311 0.0
C286 C 0.07905 0.34956 0.58224 0.0
C287 C 0.09118 0.33172 0.55938 0.0
O288 O 0.02157 -0.00247 0.57797 0.0
Mg289 Mg 0.03919 0.02621 0.54458 0.0
O290 O 0.9825 0.98456 0.54889 0.0
Mg291 Mg -0.00243 0.00274 0.50208 0.0
O292 O 0.01156 0.05241 0.52211 0.0
O293 O 0.04325 0.06979 0.55988 0.0
O294 O 0.01578 0.02351 0.45549 0.0
O295 O 0.95213 0.02489 0.50047 0.0
Mg296 Mg 0.9683 0.98359 0.45219 0.0
O297 O 0.97957 0.95267 0.48373 0.0
O298 O -0.0028 0.99296 0.4185 0.0
O299 O 0.93391 0.01188 0.45499 0.0
O300 O 0.94982 0.94206 0.44276 0.0
C301 C 0.06966 0.98877 0.50866 0.0
C302 C 0.99626 0.98408 0.5744 0.0
C303 C 0.02392 0.07471 0.53924 0.0
C304 C 0.0144 0.01525 0.42727 0.0
C305 C 0.93231 0.02641 0.47993 0.0
C306 C 0.96385 0.93304 0.46599 0.0
O307 O 0.07568 0.01482 0.52077 0.0
O308 O 0.04286 0.97882 0.50469 0.0
O309 O 0.46147 0.08109 0.0244 0.0
Mg310 Mg 0.50703 0.08542 0.02112 0.0
O311 O 0.45656 0.0313 0.0144 0.0
Mg312 Mg 0.50384 0.01626 0.00199 0.0
O313 O 0.51915 0.06233 0.98336 0.0
O314 O 0.5247 0.1129 0.98925 0.0
O315 O 0.55377 0.00695 0.98841 0.0
O316 O 0.48499 0.00493 0.95261 0.0
Mg317 Mg 0.51764 0.96584 0.99293 0.0
O318 O 0.48344 0.96908 0.02132 0.0
O319 O 0.55924 0.96653 0.0138 0.0
O320 O 0.51363 0.96821 0.94485 0.0
O321 O 0.49741 0.92542 7e-05 0.0
C322 C 0.53443 0.04979 0.06808 0.0
C323 C 0.4455 0.05644 0.02121 0.0
C324 C 0.52774 0.08844 0.97302 0.0
C325 C 0.5707 0.98842 -0.00014 0.0
C326 C 0.49539 0.98556 0.9345 0.0
C327 C 0.48073 0.93958 0.01788 0.0
O328 O 0.53297 0.07641 0.05884 0.0
O329 O 0.52336 0.02669 0.05216 0.0
O330 O 0.50386 0.57769 0.54861 0.0
Mg331 Mg 0.49126 0.53345 0.55871 0.0
O332 O 0.49166 0.56136 0.50199 0.0
Mg333 Mg 0.49615 0.5076 0.49896 0.0
O334 O 0.51912 0.50132 0.54671 0.0
O335 O 0.51466 0.52097 0.59428 0.0
O336 O 0.50035 0.45444 0.49296 0.0
O337 O 0.54367 0.51844 0.4822 0.0
Mg338 Mg 0.50215 0.48557 0.4287 0.0
O339 O 0.47512 0.51159 0.45216 0.0
O340 O 0.49656 0.44119 0.44372 0.0
O341 O 0.54484 0.50731 0.43265 0.0
O342 O 0.46982 0.50256 0.40232 0.0
C343 C 0.43387 0.50364 0.53829 0.0
C344 C 0.4979 0.58326 0.52147 0.0
C345 C 0.52696 0.50318 0.57541 0.0
C346 C 0.49857 0.43413 0.47125 0.0
C347 C 0.55737 0.51786 0.45729 0.0
C348 C 0.46137 0.5157 0.42688 0.0
O349 O 0.44654 0.51944 0.56002 0.0
O350 O 0.44808 0.49656 0.51482 0.0
O351 O 0.97854 0.43821 0.04672 0.0
Mg352 Mg -0.00071 0.4821 0.05459 0.0
O353 O 0.00559 0.45168 0.00919 0.0
Mg354 Mg 0.99367 0.50367 0.00447 0.0
O355 O 0.97564 0.51918 0.05345 0.0
O356 O 0.9885 0.49631 0.09614 0.0
O357 O 0.98334 0.55405 0.99416 0.0
O358 O 0.94396 0.48552 0.99812 0.0
Mg359 Mg 0.97011 0.4999 0.9485 0.0
O360 O 0.01317 0.49219 0.95577 0.0
O361 O 0.95793 0.54482 0.95134 0.0
O362 O 0.93852 0.46384 0.95275 0.0
O363 O 0.99096 0.49427 0.90967 0.0
C364 C 0.05748 0.50818 0.03554 0.0
C365 C 0.99394 0.43062 0.02488 0.0
C366 C 0.97495 0.51681 0.08283 0.0
C367 C 0.96801 0.56337 0.97227 0.0
C368 C 0.92872 0.46848 0.97879 0.0
C369 C 0.01372 0.48984 0.92619 0.0
O370 O 0.04554 0.48863 0.05245 0.0
O371 O 0.04183 0.52086 0.01616 0.0
H372 H 0.04877 0.1005 0.25965 0.0
H373 H 0.06642 0.05225 0.43166 0.0
H374 H 0.13446 0.10259 0.30309 0.0
H375 H -0.00346 0.01845 0.36889 0.0
H376 H 0.09027 0.07923 0.38957 0.0
H377 H 0.02742 0.07966 0.30498 0.0
C378 C 0.06311 0.09689 0.2789 0.0
C379 C 0.09346 0.10334 0.27755 0.0
C380 C 0.0697 0.06585 0.38529 0.0
C381 C 0.06905 0.07901 0.32969 0.0
C382 C 0.05609 0.05064 0.40922 0.0
C383 C 0.0296 0.03291 0.40371 0.0
C384 C 0.05621 0.06374 0.35614 0.0
C385 C 0.0171 0.03152 0.37422 0.0
C386 C 0.05091 0.08477 0.30474 0.0
C387 C 0.11096 0.09767 0.30313 0.0
N388 N 0.0304 0.04675 0.35175 0.0
N389 N 0.0985 0.08581 0.32826 0.0
H390 H 0.40168 0.98292 0.75895 0.0
H391 H 0.51618 0.94796 0.89102 0.0
H392 H 0.4558 0.90686 0.75729 0.0
H393 H 0.45141 0.01314 0.90425 0.0
H394 H 0.49739 0.93732 0.83942 0.0
H395 H 0.42184 -0.00194 0.80992 0.0
C396 C 0.41772 0.96936 0.7692 0.0
C397 C 0.42712 0.9436 0.75351 0.0
C398 C 0.48723 0.95402 0.85347 0.0
C399 C 0.45052 0.96112 0.81169 0.0
C400 C 0.49804 0.96022 0.88305 0.0
C401 C 0.48525 0.98136 0.90221 0.0
C402 C 0.46334 0.96901 0.84263 0.0
C403 C 0.4619 0.99661 0.89032 0.0
C404 C 0.42931 0.97814 0.79826 0.0
C405 C 0.44825 0.92723 0.76797 0.0
N406 N 0.45158 0.99004 0.86129 0.0
N407 N 0.45916 0.93627 0.79607 0.0
H408 H 0.58057 0.38704 0.70845 0.0
H409 H 0.58028 0.52415 0.59717 0.0
H410 H 0.61785 0.47838 0.72956 0.0
H411 H 0.52305 0.44257 0.58475 0.0
H412 H 0.6076 0.50025 0.63684 0.0
H413 H 0.57098 0.40102 0.65625 0.0
C414 C 0.58683 0.41001 0.70217 0.0
C415 C 0.59949 0.43176 0.72374 0.0
C416 C 0.58965 0.48716 0.62483 0.0
C417 C 0.58937 0.44751 0.66372 0.0
C418 C 0.57438 0.50063 0.60191 0.0
C419 C 0.54957 0.48516 0.58785 0.0
C420 C 0.57957 0.45829 0.63406 0.0
C421 C 0.54229 0.45502 0.59504 0.0
C422 C 0.58164 0.41782 0.67225 0.0
C423 C 0.60806 0.46081 0.71388 0.0
N424 N 0.55685 0.4427 0.61825 0.0
N425 N 0.60257 0.4679 0.68469 0.0
H426 H 0.94152 0.61979 0.24393 0.0
H427 H 0.91949 0.50407 0.09981 0.0
H428 H 0.88757 0.53522 0.24146 0.0
H429 H 0.99271 0.57077 0.11159 0.0
H430 H 0.89795 0.52539 0.1455 0.0
H431 H 0.95207 0.6106 0.19036 0.0
C432 C 0.93184 0.59932 0.23223 0.0
C433 C 0.9139 0.57807 0.24755 0.0
C434 C 0.91831 0.53597 0.13763 0.0
C435 C 0.92528 0.56796 0.18593 0.0
C436 C 0.93033 0.52411 0.11135 0.0
C437 C 0.9576 0.53606 0.10193 0.0
C438 C 0.93393 0.55969 0.15467 0.0
C439 C 0.97137 0.56136 0.11803 0.0
C440 C 0.93767 0.59429 0.20155 0.0
C441 C 0.90133 0.55243 0.23077 0.0
N442 N 0.95956 0.57216 0.14395 0.0
N443 N 0.9074 0.54803 0.20098 0.0
H444 H 0.28099 0.1327 0.04634 0.0
H445 H 0.40371 0.0122 0.03886 0.0
H446 H 0.26795 0.04431 0.08434 0.0
H447 H 0.41474 0.10539 0.01276 0.0
H448 H 0.35215 0.01989 0.05029 0.0
H449 H 0.32809 0.11938 0.02828 0.0
C450 C 0.28781 0.11025 0.05054 0.0
C451 C 0.27027 0.08961 0.06686 0.0
C452 C 0.36594 0.03848 0.04185 0.0
C453 C 0.32511 0.07429 0.04668 0.0
C454 C 0.39524 0.03405 0.03518 0.0
C455 C 0.41363 0.05828 0.02517 0.0
C456 C 0.35514 0.06719 0.03809 0.0
C457 C 0.40157 0.08615 0.02084 0.0
C458 C 0.31497 0.10271 0.04041 0.0
C459 C 0.28085 0.06109 0.07215 0.0
N460 N 0.37331 0.0898 0.0274 0.0
N461 N 0.30766 0.05428 0.06218 0.0
H462 H 0.20086 0.89325 0.58908 0.0
H463 H 0.12182 0.00113 0.48248 0.0
H464 H 0.24338 0.93134 0.5116 0.0
H465 H 0.07301 0.93253 0.53118 0.0
H466 H 0.16646 0.9752 0.49146 0.0
H467 H 0.1537 0.90744 0.56859 0.0
C468 C 0.20021 0.9045 0.5677 0.0
C469 C 0.22603 0.91131 0.55209 0.0
C470 C 0.14589 0.96533 0.49953 0.0
C471 C 0.17233 0.9276 0.52857 0.0
C472 C 0.12043 0.98 0.49421 0.0
C473 C 0.09381 0.96874 0.50591 0.0
C474 C 0.14485 0.93979 0.51755 0.0
C475 C 0.09312 0.94163 0.52146 0.0
C476 C 0.17331 0.91231 0.55588 0.0
C477 C 0.22397 0.9256 0.52431 0.0
N478 N 0.11845 0.92841 0.52747 0.0
N479 N 0.19765 0.93365 0.51365 0.0
H480 H 0.74668 0.48355 0.96795 0.0
H481 H 0.89809 0.4166 0.95763 0.0
H482 H 0.75417 0.38667 0.96354 0.0
H483 H 0.88963 0.49896 0.01159 0.0
H484 H 0.84506 0.40534 0.95903 0.0
H485 H 0.7987 0.49099 0.98361 0.0
C486 C 0.75914 0.46389 0.97081 0.0
C487 C 0.74619 0.43448 0.96441 0.0
C488 C 0.85487 0.42557 0.97109 0.0
C489 C 0.80537 0.44278 0.9817 0.0
C490 C 0.88505 0.43198 0.97026 0.0
C491 C 0.89805 0.45872 0.98444 0.0
C492 C 0.83756 0.44655 0.98539 0.0
C493 C 0.88031 0.47802 0.00048 0.0
C494 C 0.78868 0.46812 0.97986 0.0
C495 C 0.76323 0.40973 0.96848 0.0
N496 N 0.85075 0.47192 -5e-05 0.0
N497 N 0.79207 0.41445 0.97632 0.0
H498 H 0.74375 0.55937 0.49691 0.0
H499 H 0.589 0.5316 0.40768 0.0
H500 H 0.73132 0.55691 0.39942 0.0
H501 H 0.59721 0.52844 0.5053 0.0
H502 H 0.6412 0.54482 0.4056 0.0
H503 H 0.69037 0.55132 0.50181 0.0
C504 C 0.72981 0.55716 0.4766 0.0
C505 C 0.742 0.55838 0.4477 0.0
C506 C 0.63172 0.54134 0.42756 0.0
C507 C 0.68124 0.54943 0.4531 0.0
C508 C 0.6018 0.53378 0.42877 0.0
C509 C 0.58871 0.52859 0.45669 0.0
C510 C 0.64899 0.5436 0.45445 0.0
C511 C 0.60645 0.53218 0.48327 0.0
C512 C 0.69943 0.55254 0.4794 0.0
C513 C 0.72299 0.55542 0.42213 0.0
N514 N 0.63581 0.53924 0.4815 0.0
N515 N 0.69369 0.55108 0.42545 0.0
H516 H 0.11018 0.28848 0.04171 0.0
H517 H 0.96657 0.37928 0.04649 0.0
H518 H 0.02716 0.25104 0.07311 0.0
H519 H 0.04398 0.41104 -1e-05 0.0
H520 H 0.9873 0.33049 0.05259 0.0
H521 H 0.0858 0.33175 0.02276 0.0
C522 C 0.08677 0.28908 0.04426 0.0
C523 C 0.07082 0.26616 0.05944 0.0
C524 C -0.00036 0.3479 0.04063 0.0
C525 C 0.04281 0.31595 0.03809 0.0
C526 C 0.98773 0.37577 0.03705 0.0
C527 C 0.00362 0.39934 0.02288 0.0
C528 C 0.02792 0.34363 0.03042 0.0
C529 C 0.03094 0.39348 0.01104 0.0
C530 C 0.07287 0.3139 0.03352 0.0
C531 C 0.04055 0.26845 0.06225 0.0
N532 N 0.04245 0.36638 0.01552 0.0
N533 N 0.02764 0.29297 0.05198 0.0
H534 H 0.55995 0.2137 0.84351 0.0
H535 H 0.5848 0.08593 0.96018 0.0
H536 H 0.6271 0.2154 0.91453 0.0
H537 H 0.50075 0.10191 0.92057 0.0
H538 H 0.60847 0.11854 0.923 0.0
H539 H 0.5461 0.16069 0.85412 0.0
C540 C 0.57206 0.20305 0.86103 0.0
C541 C 0.59436 0.21963 0.8786 0.0
C542 C 0.58491 0.11381 0.92154 0.0
C543 C 0.57941 0.15854 0.88967 0.0
C544 C 0.57147 0.09486 0.94245 0.0
C545 C 0.54091 0.09167 0.94342 0.0
C546 C 0.56746 0.12976 0.90198 0.0
C547 C 0.52446 0.10406 0.92042 0.0
C548 C 0.56438 0.17263 0.86668 0.0
C549 C 0.6099 0.20396 0.90015 0.0
N550 N 0.5379 0.12337 0.90105 0.0
N551 N 0.60191 0.1745 0.90525 0.0
H552 H 0.96417 0.74676 0.41701 0.0
H553 H 0.98804 0.90155 0.51284 0.0
H554 H 0.95043 0.74325 0.51344 0.0
H555 H 0.93758 0.88868 0.42846 0.0
H556 H 0.98812 0.84559 0.51523 0.0
H557 H 0.97155 0.80171 0.42241 0.0
C558 C 0.9635 0.75742 0.43953 0.0
C559 C 0.95665 0.74027 0.46483 0.0
C560 C 0.977 0.85539 0.49644 0.0
C561 C 0.9646 0.8035 0.47093 0.0
C562 C 0.97693 0.88714 0.49502 0.0
C563 C 0.96299 0.8999 0.4703 0.0
C564 C 0.96367 0.8368 0.47262 0.0
C565 C 0.94883 0.88015 0.44788 0.0
C566 C 0.96742 0.78885 0.44249 0.0
C567 C 0.95541 0.75569 0.49332 0.0
N568 N 0.94986 0.84978 0.44943 0.0
N569 N 0.95916 0.78663 0.49565 0.0
H570 H 0.47482 0.76129 0.58048 0.0
H571 H 0.45664 0.60632 0.48414 0.0
H572 H 0.41503 0.74895 0.50274 0.0
H573 H 0.53005 0.63279 0.54505 0.0
H574 H 0.44304 0.6592 0.48619 0.0
H575 H 0.49698 0.71539 0.56461 0.0
C576 C 0.46659 0.74936 0.55972 0.0
C577 C 0.44282 0.75932 0.54306 0.0
C578 C 0.46256 0.65354 0.49845 0.0
C579 C 0.46784 0.70552 0.52514 0.0
C580 C 0.47048 0.62345 0.49701 0.0
C581 C 0.49434 0.61524 0.51466 0.0
C582 C 0.47859 0.67522 0.51781 0.0
C583 C 0.51129 0.63817 0.53137 0.0
C584 C 0.47924 0.72284 0.55074 0.0
C585 C 0.43286 0.74198 0.51677 0.0
N586 N 0.50283 0.66694 0.53291 0.0
N587 N 0.44516 0.71574 0.50884 0.0
H588 H 0.87603 0.92053 0.71184 0.0
H589 H 0.02342 0.96961 0.62697 0.0
H590 H 0.96308 0.91796 0.75106 0.0
H591 H 0.93819 0.96524 0.58221 0.0
H592 H 0.00103 0.94963 0.67213 0.0
H593 H 0.89756 0.93658 0.66412 0.0
C594 C 0.89964 0.9234 0.71046 0.0
C595 C 0.91776 0.91783 0.73555 0.0
C596 C 0.98713 0.95284 0.65245 0.0
C597 C 0.9425 0.93597 0.68097 0.0
C598 C -6e-05 0.96429 0.62656 0.0
C599 C 0.98266 0.9693 0.60074 0.0
C600 C 0.95666 0.94648 0.65285 0.0
C601 C 0.95235 0.96172 0.60159 0.0
C602 C 0.9119 0.93235 0.68315 0.0
C603 C 0.94821 0.92156 0.73229 0.0
N604 N 0.94026 0.95091 0.62735 0.0
N605 N 0.95955 0.93046 0.70562 0.0
H606 H 0.60321 0.11421 0.24017 0.0
H607 H 0.52236 0.0064 0.11058 0.0
H608 H 0.56976 0.02331 0.25881 0.0
H609 H 0.57802 0.08694 0.09463 0.0
H610 H 0.54 0.00938 0.16409 0.0
H611 H 0.59404 0.10292 0.18614 0.0
C612 C 0.59394 0.09177 0.23272 0.0
C613 C 0.58699 0.06974 0.25384 0.0
C614 C 0.54866 0.02603 0.14864 0.0
C615 C 0.57616 0.05649 0.19182 0.0
C616 C 0.53872 0.02424 0.11814 0.0
C617 C 0.54839 0.04676 0.09833 0.0
C618 C 0.56827 0.05049 0.15908 0.0
C619 C 0.56953 0.06943 0.10925 0.0
C620 C 0.58882 0.08522 0.20185 0.0
C621 C 0.57533 0.04088 0.24307 0.0
N622 N 0.57845 0.07089 0.13883 0.0
N623 N 0.56987 0.03515 0.21271 0.0
H624 H 0.34578 0.56554 0.30282 0.0
H625 H 0.46532 0.57722 0.43249 0.0
H626 H 0.40171 0.64701 0.32468 0.0
H627 H 0.40469 0.49941 0.4126 0.0
H628 H 0.43282 0.60875 0.40474 0.0
H629 H 0.35719 0.54713 0.35236 0.0
C630 C 0.35998 0.58 0.31818 0.0
C631 C 0.37328 0.60771 0.30901 0.0
C632 C 0.42599 0.58504 0.40743 0.0
C633 C 0.38739 0.58591 0.36592 0.0
C634 C 0.44435 0.56718 0.42366 0.0
C635 C 0.43756 0.53581 0.42449 0.0
C636 C 0.40113 0.57106 0.39169 0.0
C637 C 0.41058 0.52359 0.41224 0.0
C638 C 0.36665 0.56929 0.34662 0.0
C639 C 0.39174 0.62502 0.33019 0.0
N640 N 0.39362 0.5411 0.3957 0.0
N641 N 0.39876 0.61355 0.35738 0.0
H642 H 0.12385 0.47411 0.77359 0.0
H643 H 0.02783 0.43217 0.91652 0.0
H644 H 0.05553 0.40109 0.77412 0.0
H645 H 0.05434 0.52471 0.89694 0.0
H646 H 0.05553 0.41469 0.8731 0.0
H647 H 0.1133 0.48747 0.82641 0.0
C648 C 0.10675 0.46075 0.78458 0.0
C649 C 0.09039 0.43651 0.76883 0.0
C650 C 0.05616 0.43878 0.87901 0.0
C651 C 0.07943 0.45096 0.82984 0.0
C652 C 0.04078 0.44869 0.90399 0.0
C653 C 0.03919 0.47982 0.91029 0.0
C654 C 0.06997 0.46023 0.8604 0.0
C655 C 0.05548 0.50048 0.89288 0.0
C656 C 0.10109 0.46824 0.81489 0.0
C657 C 0.06918 0.41961 0.78502 0.0
N658 N 0.06996 0.49035 0.86836 0.0
N659 N 0.06432 0.42719 0.81451 0.0
H660 H 0.72071 0.9566 0.89476 0.0
H661 H 0.61403 0.96573 0.03326 0.0
H662 H 0.74534 0.93429 0.98597 0.0
H663 H 0.59829 0.00969 0.94941 0.0
H664 H 0.66311 0.95614 0.0169 0.0
H665 H 0.67675 0.97771 0.9143 0.0
C666 C 0.71716 0.95643 0.91894 0.0
C667 C 0.73686 0.94336 0.93866 0.0
C668 C 0.64918 0.96831 0.00221 0.0
C669 C 0.68608 0.96718 0.96112 0.0
C670 C 0.62116 0.97386 0.01159 0.0
C671 C 0.60204 0.9884 0.9926 0.0
C672 C 0.65806 0.97681 0.97331 0.0
C673 C 0.6124 -0.00151 0.96477 0.0
C674 C 0.69193 0.96845 0.93006 0.0
C675 C 0.7306 0.94346 0.96972 0.0
N676 N 0.63957 0.99203 0.95571 0.0
N677 N 0.70572 0.95492 0.9799 0.0
H678 H 0.75126 0.04871 0.48386 0.0
H679 H 0.91728 0.07376 0.44761 0.0
H680 H 0.78679 0.13235 0.44747 0.0
H681 H 0.88906 0.01786 0.52079 0.0
H682 H 0.86973 0.09573 0.44696 0.0
H683 H 0.80117 0.03608 0.49715 0.0
C684 C 0.76959 0.0645 0.47893 0.0
C685 C 0.76501 0.09153 0.46446 0.0
C686 C 0.87413 0.07921 0.46367 0.0
C687 C 0.82192 0.07718 0.47927 0.0
C688 C 0.90123 0.0668 0.4641 0.0
C689 C 0.90697 0.04435 0.48452 0.0
C690 C 0.85231 0.06828 0.4831 0.0
C691 C 0.88543 0.0355 0.50504 0.0
C692 C 0.79798 0.05741 0.48669 0.0
C693 C 0.78942 0.11133 0.45872 0.0
N694 N 0.85872 0.04708 0.50344 0.0
N695 N 0.81688 0.10355 0.4657 0.0
H696 H 0.22744 0.54088 0.11923 0.0
H697 H 0.09332 0.54665 0.0022 0.0
H698 H 0.23919 0.57698 0.03028 0.0
H699 H 0.09419 0.48806 0.07833 0.0
H700 H 0.1459 0.5604 0.01191 0.0
H701 H 0.17773 0.52316 0.1044 0.0
C702 C 0.21987 0.54458 0.0963 0.0
C703 C 0.23786 0.56032 0.07594 0.0
C704 C 0.13447 0.54437 0.02625 0.0
C705 C 0.18001 0.54082 0.05909 0.0
C706 C 0.10452 0.53663 0.02081 0.0
C707 C 0.08927 0.51633 0.03959 0.0
C708 C 0.14897 0.53192 0.05077 0.0
C709 C 0.10488 0.50389 0.06329 0.0
C710 C 0.19121 0.53467 0.08793 0.0
C711 C 0.2261 0.56526 0.04688 0.0
N712 N 0.13371 0.51203 0.06827 0.0
N713 N 0.19779 0.55574 0.03937 0.0
H714 H 0.2614 0.4715 0.60767 0.0
H715 H 0.39591 0.47414 0.49496 0.0
H716 H 0.2506 0.44104 0.51345 0.0
H717 H 0.39984 0.51147 0.5872 0.0
H718 H 0.34337 0.46002 0.5005 0.0
H719 H 0.31276 0.48496 0.59971 0.0
C720 C 0.26972 0.468 0.58512 0.0
C721 C 0.25142 0.45546 0.56111 0.0
C722 C 0.35586 0.47131 0.51944 0.0
C723 C 0.31097 0.47026 0.55192 0.0
C724 C 0.38582 0.47928 0.51633 0.0
C725 C 0.40236 0.49401 0.54064 0.0
C726 C 0.34254 0.47806 0.54706 0.0
C727 C 0.38811 0.50021 0.56777 0.0
C728 C 0.29926 0.47547 0.58063 0.0
C729 C 0.2639 0.45057 0.53265 0.0
N730 N 0.35918 0.49222 0.57019 0.0
N731 N 0.29295 0.45801 0.52881 0.0
H732 H 0.93528 0.73265 0.89442 0.0
H733 H 0.96566 0.60911 0.01725 0.0
H734 H 0.91135 0.74637 0.98779 0.0
H735 H 0.9581 0.59155 0.92023 0.0
H736 H 0.95339 0.66197 0.00956 0.0
H737 H 0.9521 0.68358 0.90632 0.0
C738 C 0.93387 0.72551 0.9176 0.0
C739 C 0.922 0.74385 0.94015 0.0
C740 C 0.95454 0.6464 0.99009 0.0
C741 C 0.9409 0.68689 0.95393 0.0
C742 C 0.96168 0.6164 0.99444 0.0
C743 C 0.96271 0.59585 0.96937 0.0
C744 C 0.94904 0.65579 0.96046 0.0
C745 C 0.95728 0.6064 0.94029 0.0
C746 C 0.94328 0.69727 0.92434 0.0
C747 C 0.92019 0.73287 0.96966 0.0
N748 N 0.95078 0.63547 0.93671 0.0
N749 N 0.92958 0.70505 0.97576 0.0
H750 H 0.41738 0.76609 0.04944 0.0
H751 H 0.47642 0.93538 0.07939 0.0
H752 H 0.41222 0.80722 0.13957 0.0
H753 H 0.43876 0.89988 0.99349 0.0
H754 H 0.45347 0.89087 0.10405 0.0
H755 H 0.42819 0.81603 0.02986 0.0
C756 C 0.41825 0.78565 0.06514 0.0
C757 C 0.41339 0.78238 0.09616 0.0
C758 C 0.44947 0.89343 0.07999 0.0
C759 C 0.42641 0.83994 0.07381 0.0
C760 C 0.46224 0.9189 0.06605 0.0
C761 C 0.45935 0.92098 0.03449 0.0
C762 C 0.43431 0.87014 0.06192 0.0
C763 C 0.44143 0.89888 0.01792 0.0
C764 C 0.42443 0.81424 0.05391 0.0
C765 C 0.41596 0.80864 0.11551 0.0
N766 N 0.43 0.87408 0.03173 0.0
N767 N 0.42245 0.83642 0.10402 0.0
H768 H 0.04804 0.26244 0.5042 0.0
H769 H 0.00241 0.10898 0.5839 0.0
H770 H 0.01869 0.25639 0.59628 0.0
H771 H 0.02727 0.11113 0.49038 0.0
H772 H -0.00092 0.16379 0.58496 0.0
H773 H 0.03276 0.20844 0.49511 0.0
C774 C 0.03809 0.24994 0.52239 0.0
C775 C 0.03507 0.26405 0.55121 0.0
C776 C 0.00474 0.1524 0.56393 0.0
C777 C 0.01731 0.20235 0.54082 0.0
C778 C 0.00648 0.1211 0.56334 0.0
C779 C 0.01515 0.10582 0.53706 0.0
C780 C 0.01262 0.16871 0.53829 0.0
C781 C 0.02037 0.12232 0.51101 0.0
C782 C 0.0292 0.21916 0.5171 0.0
C783 C 0.02139 0.2468 0.57364 0.0
N784 N 0.01961 0.15312 0.51243 0.0
N785 N 0.0134 0.21689 0.56806 0.0
H786 H 0.57782 0.2659 0.50186 0.0
H787 H 0.47055 0.38599 0.44042 0.0
H788 H 0.52757 0.25637 0.41724 0.0
H789 H 0.5337 0.40869 0.51353 0.0
H790 H 0.48376 0.33362 0.4399 0.0
H791 H 0.55612 0.31413 0.51298 0.0
C792 C 0.56221 0.27375 0.48565 0.0
C793 C 0.55465 0.25681 0.45847 0.0
C794 C 0.49452 0.34984 0.4564 0.0
C795 C 0.5293 0.31168 0.47152 0.0
C796 C 0.48681 0.37972 0.45685 0.0
C797 C 0.50126 0.40171 0.47685 0.0
C798 C 0.51718 0.3418 0.47582 0.0
C799 C 0.52204 0.39235 0.49778 0.0
C800 C 0.54969 0.30119 0.49218 0.0
C801 C 0.53383 0.26806 0.43872 0.0
N802 N 0.5298 0.36309 0.49639 0.0
N803 N 0.52205 0.29468 0.44561 0.0
loop_
_geom_bond_atom_site_label_1
_geom_bond_atom_site_label_2
_geom_bond_distance
_geom_bond_site_symmetry_2
_ccdc_geom_bond_type
C0 C1 1.384 . S
C0 H13 0.947 . S
C0 C35 1.382 . S
C1 C0 1.384 . S
C1 C2 1.378 . S
C2 C1 1.378 . S
C2 C3 1.378 . S
C2 H14 0.952 . S
C3 C2 1.378 . S
C3 H15 0.950 . S
C3 C34 1.383 . S
H4 C23 0.947 . S
H5 C24 0.946 . S
H6 C26 0.953 . S
H7 C27 0.945 . S
H8 C29 0.952 . S
H9 C30 0.949 . S
H10 C32 0.950 . S
H11 C33 0.948 . S
H12 C35 0.951 . S
H13 C0 0.947 . S
H14 C2 0.952 . S
H15 C3 0.950 . S
N16 C19 1.382 . S
N16 C21 1.363 . S
N17 C19 1.371 . S
N17 C20 1.372 . S
N18 C20 1.361 . S
N18 C21 1.377 . S
C19 N16 1.382 . S
C19 N17 1.371 . S
C19 C22 1.480 . S
C20 N17 1.372 . S
C20 N18 1.361 . S
C20 C28 1.457 . S
C21 N16 1.363 . S
C21 N18 1.377 . S
C21 C34 1.479 . S
C22 C19 1.480 . S
C22 C23 1.383 . S
C22 C27 1.385 . S
C23 H4 0.947 . S
C23 C22 1.383 . S
C23 C24 1.388 . S
C24 H5 0.946 . S
C24 C23 1.388 . S
C24 C25 1.384 . S
C25 C24 1.384 . S
C25 C26 1.377 . S
C26 H6 0.953 . S
C26 C25 1.377 . S
C26 C27 1.369 . S
C27 H7 0.945 . S
C27 C22 1.385 . S
C27 C26 1.369 . S
C28 C20 1.457 . S
C28 C29 1.372 . S
C28 C33 1.364 . S
C29 H8 0.952 . S
C29 C28 1.372 . S
C29 C30 1.389 . S
C30 H9 0.949 . S
C30 C29 1.389 . S
C30 C31 1.387 . S
C31 C30 1.387 . S
C31 C32 1.372 . S
C32 H10 0.950 . S
C32 C31 1.372 . S
C32 C33 1.379 . S
C33 H11 0.948 . S
C33 C28 1.364 . S
C33 C32 1.379 . S
C34 C3 1.383 . S
C34 C21 1.479 . S
C34 C35 1.398 . S
C35 C0 1.382 . S
C35 H12 0.951 . S
C35 C34 1.398 . S
C36 C37 1.384 . S
C36 H49 0.947 . S
C36 C71 1.382 . S
C37 C36 1.384 . S
C37 C38 1.378 . S
C38 C37 1.378 . S
C38 C39 1.378 . S
C38 H50 0.952 . S
C39 C38 1.378 . S
C39 H51 0.950 . S
C39 C70 1.383 . S
H40 C59 0.947 . S
H41 C60 0.946 . S
H42 C62 0.953 . S
H43 C63 0.945 . S
H44 C65 0.952 . S
H45 C66 0.949 . S
H46 C68 0.950 . S
H47 C69 0.948 . S
H48 C71 0.951 . S
H49 C36 0.947 . S
H50 C38 0.952 . S
H51 C39 0.950 . S
N52 C55 1.382 . S
N52 C57 1.363 . S
N53 C55 1.371 . S
N53 C56 1.372 . S
N54 C56 1.361 . S
N54 C57 1.377 . S
C55 N52 1.382 . S
C55 N53 1.371 . S
C55 C58 1.480 . S
C56 N53 1.372 . S
C56 N54 1.361 . S
C56 C64 1.457 . S
C57 N52 1.363 . S
C57 N54 1.377 . S
C57 C70 1.479 . S
C58 C55 1.480 . S
C58 C59 1.383 . S
C58 C63 1.385 . S
C59 H40 0.947 . S
C59 C58 1.383 . S
C59 C60 1.388 . S
C60 H41 0.946 . S
C60 C59 1.388 . S
C60 C61 1.384 . S
C61 C60 1.384 . S
C61 C62 1.377 . S
C62 H42 0.953 . S
C62 C61 1.377 . S
C62 C63 1.369 . S
C63 H43 0.945 . S
C63 C58 1.385 . S
C63 C62 1.369 . S
C64 C56 1.457 . S
C64 C65 1.372 . S
C64 C69 1.364 . S
C65 H44 0.952 . S
C65 C64 1.372 . S
C65 C66 1.389 . S
C66 H45 0.949 . S
C66 C65 1.389 . S
C66 C67 1.387 . S
C67 C66 1.387 . S
C67 C68 1.372 . S
C68 H46 0.950 . S
C68 C67 1.372 . S
C68 C69 1.379 . S
C69 H47 0.948 . S
C69 C64 1.364 . S
C69 C68 1.379 . S
C70 C39 1.383 . S
C70 C57 1.479 . S
C70 C71 1.398 . S
C71 C36 1.382 . S
C71 H48 0.951 . S
C71 C70 1.398 . S
C72 C73 1.384 . S
C72 H85 0.947 . S
C72 C107 1.382 . S
C73 C72 1.384 . S
C73 C74 1.378 . S
C74 C73 1.378 . S
C74 C75 1.378 . S
C74 H86 0.952 . S
C75 C74 1.378 . S
C75 H87 0.950 . S
C75 C106 1.383 . S
H76 C95 0.947 . S
H77 C96 0.946 . S
H78 C98 0.953 . S
H79 C99 0.945 . S
H80 C101 0.952 . S
H81 C102 0.949 . S
H82 C104 0.950 . S
H83 C105 0.948 . S
H84 C107 0.951 . S
H85 C72 0.947 . S
H86 C74 0.952 . S
H87 C75 0.950 . S
N88 C91 1.382 . S
N88 C93 1.363 . S
N89 C91 1.371 . S
N89 C92 1.372 . S
N90 C92 1.361 . S
N90 C93 1.377 . S
C91 N88 1.382 . S
C91 N89 1.371 . S
C91 C94 1.480 . S
C92 N89 1.372 . S
C92 N90 1.361 . S
C92 C100 1.457 . S
C93 N88 1.363 . S
C93 N90 1.377 . S
C93 C106 1.479 . S
C94 C91 1.480 . S
C94 C95 1.383 . S
C94 C99 1.385 . S
C95 H76 0.947 . S
C95 C94 1.383 . S
C95 C96 1.388 . S
C96 H77 0.946 . S
C96 C95 1.388 . S
C96 C97 1.384 . S
C97 C96 1.384 . S
C97 C98 1.377 . S
C98 H78 0.953 . S
C98 C97 1.377 . S
C98 C99 1.369 . S
C99 H79 0.945 . S
C99 C94 1.385 . S
C99 C98 1.369 . S
C100 C92 1.457 . S
C100 C101 1.372 . S
C100 C105 1.364 . S
C101 H80 0.952 . S
C101 C100 1.372 . S
C101 C102 1.389 . S
C102 H81 0.949 . S
C102 C101 1.389 . S
C102 C103 1.387 . S
C103 C102 1.387 . S
C103 C104 1.372 . S
C104 H82 0.950 . S
C104 C103 1.372 . S
C104 C105 1.379 . S
C105 H83 0.948 . S
C105 C100 1.364 . S
C105 C104 1.379 . S
C106 C75 1.383 . S
C106 C93 1.479 . S
C106 C107 1.398 . S
C107 C72 1.382 . S
C107 H84 0.951 . S
C107 C106 1.398 . S
C108 C109 1.384 . S
C108 H121 0.947 . S
C108 C143 1.382 . S
C109 C108 1.384 . S
C109 C110 1.378 . S
C110 C109 1.378 . S
C110 C111 1.378 . S
C110 H122 0.952 . S
C111 C110 1.378 . S
C111 H123 0.950 . S
C111 C142 1.383 . S
H112 C131 0.947 . S
H113 C132 0.946 . S
H114 C134 0.953 . S
H115 C135 0.945 . S
H116 C137 0.952 . S
H117 C138 0.949 . S
H118 C140 0.950 . S
H119 C141 0.948 . S
H120 C143 0.951 . S
H121 C108 0.947 . S
H122 C110 0.952 . S
H123 C111 0.950 . S
N124 C127 1.382 . S
N124 C129 1.363 . S
N125 C127 1.371 . S
N125 C128 1.372 . S
N126 C128 1.361 . S
N126 C129 1.377 . S
C127 N124 1.382 . S
C127 N125 1.371 . S
C127 C130 1.480 . S
C128 N125 1.372 . S
C128 N126 1.361 . S
C128 C136 1.457 . S
C129 N124 1.363 . S
C129 N126 1.377 . S
C129 C142 1.479 . S
C130 C127 1.480 . S
C130 C131 1.383 . S
C130 C135 1.385 . S
C131 H112 0.947 . S
C131 C130 1.383 . S
C131 C132 1.388 . S
C132 H113 0.946 . S
C132 C131 1.388 . S
C132 C133 1.384 . S
C133 C132 1.384 . S
C133 C134 1.377 . S
C134 H114 0.953 . S
C134 C133 1.377 . S
C134 C135 1.369 . S
C135 H115 0.945 . S
C135 C130 1.385 . S
C135 C134 1.369 . S
C136 C128 1.457 . S
C136 C137 1.372 . S
C136 C141 1.364 . S
C137 H116 0.952 . S
C137 C136 1.372 . S
C137 C138 1.389 . S
C138 H117 0.949 . S
C138 C137 1.389 . S
C138 C139 1.387 . S
C139 C138 1.387 . S
C139 C140 1.372 . S
C140 H118 0.950 . S
C140 C139 1.372 . S
C140 C141 1.379 . S
C141 H119 0.948 . S
C141 C136 1.364 . S
C141 C140 1.379 . S
C142 C111 1.383 . S
C142 C129 1.479 . S
C142 C143 1.398 . S
C143 C108 1.382 . S
C143 H120 0.951 . S
C143 C142 1.398 . S
C144 C145 1.384 . S
C144 H157 0.947 . S
C144 C179 1.382 . S
C145 C144 1.384 . S
C145 C146 1.378 . S
C146 C145 1.378 . S
C146 C147 1.378 . S
C146 H158 0.952 . S
C147 C146 1.378 . S
C147 H159 0.950 . S
C147 C178 1.383 . S
H148 C167 0.947 . S
H149 C168 0.946 . S
H150 C170 0.953 . S
H151 C171 0.945 . S
H152 C173 0.952 . S
H153 C174 0.949 . S
H154 C176 0.950 . S
H155 C177 0.948 . S
H156 C179 0.951 . S
H157 C144 0.947 . S
H158 C146 0.952 . S
H159 C147 0.950 . S
N160 C163 1.382 . S
N160 C165 1.363 . S
N161 C163 1.371 . S
N161 C164 1.372 . S
N162 C164 1.361 . S
N162 C165 1.377 . S
C163 N160 1.382 . S
C163 N161 1.371 . S
C163 C166 1.480 . S
C164 N161 1.372 . S
C164 N162 1.361 . S
C164 C172 1.457 . S
C165 N160 1.363 . S
C165 N162 1.377 . S
C165 C178 1.479 . S
C166 C163 1.480 . S
C166 C167 1.383 . S
C166 C171 1.385 . S
C167 H148 0.947 . S
C167 C166 1.383 . S
C167 C168 1.388 . S
C168 H149 0.946 . S
C168 C167 1.388 . S
C168 C169 1.384 . S
C169 C168 1.384 . S
C169 C170 1.377 . S
C170 H150 0.953 . S
C170 C169 1.377 . S
C170 C171 1.369 . S
C171 H151 0.945 . S
C171 C166 1.385 . S
C171 C170 1.369 . S
C172 C164 1.457 . S
C172 C173 1.372 . S
C172 C177 1.364 . S
C173 H152 0.952 . S
C173 C172 1.372 . S
C173 C174 1.389 . S
C174 H153 0.949 . S
C174 C173 1.389 . S
C174 C175 1.387 . S
C175 C174 1.387 . S
C175 C176 1.372 . S
C176 H154 0.950 . S
C176 C175 1.372 . S
C176 C177 1.379 . S
C177 H155 0.948 . S
C177 C172 1.364 . S
C177 C176 1.379 . S
C178 C147 1.383 . S
C178 C165 1.479 . S
C178 C179 1.398 . S
C179 C144 1.382 . S
C179 H156 0.951 . S
C179 C178 1.398 . S
C180 C181 1.384 . S
C180 H193 0.947 . S
C180 C215 1.382 . S
C181 C180 1.384 . S
C181 C182 1.378 . S
C182 C181 1.378 . S
C182 C183 1.378 . S
C182 H194 0.952 . S
C183 C182 1.378 . S
C183 H195 0.950 . S
C183 C214 1.383 . S
H184 C203 0.947 . S
H185 C204 0.946 . S
H186 C206 0.953 . S
H187 C207 0.945 . S
H188 C209 0.952 . S
H189 C210 0.949 . S
H190 C212 0.950 . S
H191 C213 0.948 . S
H192 C215 0.951 . S
H193 C180 0.947 . S
H194 C182 0.952 . S
H195 C183 0.950 . S
N196 C199 1.382 . S
N196 C201 1.363 . S
N197 C199 1.371 . S
N197 C200 1.372 . S
N198 C200 1.361 . S
N198 C201 1.377 . S
C199 N196 1.382 . S
C199 N197 1.371 . S
C199 C202 1.480 . S
C200 N197 1.372 . S
C200 N198 1.361 . S
C200 C208 1.457 . S
C201 N196 1.363 . S
C201 N198 1.377 . S
C201 C214 1.479 . S
C202 C199 1.480 . S
C202 C203 1.383 . S
C202 C207 1.385 . S
C203 H184 0.947 . S
C203 C202 1.383 . S
C203 C204 1.388 . S
C204 H185 0.946 . S
C204 C203 1.388 . S
C204 C205 1.384 . S
C205 C204 1.384 . S
C205 C206 1.377 . S
C206 H186 0.953 . S
C206 C205 1.377 . S
C206 C207 1.369 . S
C207 H187 0.945 . S
C207 C202 1.385 . S
C207 C206 1.369 . S
C208 C200 1.457 . S
C208 C209 1.372 . S
C208 C213 1.364 . S
C209 H188 0.952 . S
C209 C208 1.372 . S
C209 C210 1.389 . S
C210 H189 0.949 . S
C210 C209 1.389 . S
C210 C211 1.387 . S
C211 C210 1.387 . S
C211 C212 1.372 . S
C212 H190 0.950 . S
C212 C211 1.372 . S
C212 C213 1.379 . S
C213 H191 0.948 . S
C213 C208 1.364 . S
C213 C212 1.379 . S
C214 C183 1.383 . S
C214 C201 1.479 . S
C214 C215 1.398 . S
C215 C180 1.382 . S
C215 H192 0.951 . S
C215 C214 1.398 . S
C216 C217 1.384 . S
C216 H229 0.947 . S
C216 C251 1.382 . S
C217 C216 1.384 . S
C217 C218 1.378 . S
C218 C217 1.378 . S
C218 C219 1.378 . S
C218 H230 0.952 . S
C219 C218 1.378 . S
C219 H231 0.950 . S
C219 C250 1.383 . S
H220 C239 0.947 . S
H221 C240 0.946 . S
H222 C242 0.953 . S
H223 C243 0.945 . S
H224 C245 0.952 . S
H225 C246 0.949 . S
H226 C248 0.950 . S
H227 C249 0.948 . S
H228 C251 0.951 . S
H229 C216 0.947 . S
H230 C218 0.952 . S
H231 C219 0.950 . S
N232 C235 1.382 . S
N232 C237 1.363 . S
N233 C235 1.371 . S
N233 C236 1.372 . S
N234 C236 1.361 . S
N234 C237 1.377 . S
C235 N232 1.382 . S
C235 N233 1.371 . S
C235 C238 1.480 . S
C236 N233 1.372 . S
C236 N234 1.361 . S
C236 C244 1.457 . S
C237 N232 1.363 . S
C237 N234 1.377 . S
C237 C250 1.479 . S
C238 C235 1.480 . S
C238 C239 1.383 . S
C238 C243 1.385 . S
C239 H220 0.947 . S
C239 C238 1.383 . S
C239 C240 1.388 . S
C240 H221 0.946 . S
C240 C239 1.388 . S
C240 C241 1.384 . S
C241 C240 1.384 . S
C241 C242 1.377 . S
C242 H222 0.953 . S
C242 C241 1.377 . S
C242 C243 1.369 . S
C243 H223 0.945 . S
C243 C238 1.385 . S
C243 C242 1.369 . S
C244 C236 1.457 . S
C244 C245 1.372 . S
C244 C249 1.364 . S
C245 H224 0.952 . S
C245 C244 1.372 . S
C245 C246 1.389 . S
C246 H225 0.949 . S
C246 C245 1.389 . S
C246 C247 1.387 . S
C247 C246 1.387 . S
C247 C248 1.372 . S
C248 H226 0.950 . S
C248 C247 1.372 . S
C248 C249 1.379 . S
C249 H227 0.948 . S
C249 C244 1.364 . S
C249 C248 1.379 . S
C250 C219 1.383 . S
C250 C237 1.479 . S
C250 C251 1.398 . S
C251 C216 1.382 . S
C251 H228 0.951 . S
C251 C250 1.398 . S
C252 C253 1.384 . S
C252 H265 0.947 . S
C252 C287 1.382 . S
C253 C252 1.384 . S
C253 C254 1.378 . S
C254 C253 1.378 . S
C254 C255 1.378 . S
C254 H266 0.952 . S
C255 C254 1.378 . S
C255 H267 0.950 . S
C255 C286 1.383 . S
H256 C275 0.947 . S
H257 C276 0.946 . S
H258 C278 0.953 . S
H259 C279 0.945 . S
H260 C281 0.952 . S
H261 C282 0.949 . S
H262 C284 0.950 . S
H263 C285 0.948 . S
H264 C287 0.951 . S
H265 C252 0.947 . S
H266 C254 0.952 . S
H267 C255 0.950 . S
N268 C271 1.382 . S
N268 C273 1.363 . S
N269 C271 1.371 . S
N269 C272 1.372 . S
N270 C272 1.361 . S
N270 C273 1.377 . S
C271 N268 1.382 . S
C271 N269 1.371 . S
C271 C274 1.480 . S
C272 N269 1.372 . S
C272 N270 1.361 . S
C272 C280 1.457 . S
C273 N268 1.363 . S
C273 N270 1.377 . S
C273 C286 1.479 . S
C274 C271 1.480 . S
C274 C275 1.383 . S
C274 C279 1.385 . S
C275 H256 0.947 . S
C275 C274 1.383 . S
C275 C276 1.388 . S
C276 H257 0.946 . S
C276 C275 1.388 . S
C276 C277 1.384 . S
C277 C276 1.384 . S
C277 C278 1.377 . S
C278 H258 0.953 . S
C278 C277 1.377 . S
C278 C279 1.369 . S
C279 H259 0.945 . S
C279 C274 1.385 . S
C279 C278 1.369 . S
C280 C272 1.457 . S
C280 C281 1.372 . S
C280 C285 1.364 . S
C281 H260 0.952 . S
C281 C280 1.372 . S
C281 C282 1.389 . S
C282 H261 0.949 . S
C282 C281 1.389 . S
C282 C283 1.387 . S
C283 C282 1.387 . S
C283 C284 1.372 . S
C284 H262 0.950 . S
C284 C283 1.372 . S
C284 C285 1.379 . S
C285 H263 0.948 . S
C285 C280 1.364 . S
C285 C284 1.379 . S
C286 C255 1.383 . S
C286 C273 1.479 . S
C286 C287 1.398 . S
C287 C252 1.382 . S
C287 H264 0.951 . S
C287 C286 1.398 . S
O288 Mg289 1.990 . S
O288 C302 1.253 1_445 S
Mg289 O288 1.990 . S
Mg289 O292 2.180 . S
Mg289 O293 2.117 . S
Mg289 O307 2.030 1_545 S
O290 Mg291 2.072 1_665 S
O290 C302 1.260 . S
Mg291 O290 2.072 1_445 S
Mg291 O292 2.099 . S
Mg291 O294 2.079 . S
Mg291 O295 2.072 1_455 S
Mg291 O297 2.099 1_445 S
Mg291 O308 2.079 1_545 S
O292 Mg289 2.180 . S
O292 Mg291 2.099 . S
O292 C303 1.279 . S
O293 Mg289 2.117 . S
O293 C303 1.250 . S
O294 Mg291 2.079 . S
O294 C304 1.264 . S
O295 Mg291 2.072 1_655 S
O295 C305 1.260 . S
Mg296 O297 2.180 . S
Mg296 O298 2.030 1_565 S
Mg296 O299 1.990 1_565 S
Mg296 O300 2.117 . S
O297 Mg291 2.099 1_665 S
O297 Mg296 2.180 . S
O297 C306 1.279 . S
O298 Mg296 2.030 1_545 S
O298 C304 1.248 1_655 S
O299 Mg296 1.990 1_545 S
O299 C305 1.253 . S
O300 Mg296 2.117 . S
O300 C306 1.250 . S
C301 O307 1.248 . S
C301 O308 1.264 . S
C302 O288 1.253 1_665 S
C302 O290 1.260 . S
C303 O292 1.279 . S
C303 O293 1.250 . S
C304 O294 1.264 . S
C304 O298 1.248 1_455 S
C305 O295 1.260 . S
C305 O299 1.253 . S
C306 O297 1.279 . S
C306 O300 1.250 . S
O307 Mg289 2.030 1_565 S
O307 C301 1.248 . S
O308 Mg291 2.079 1_565 S
O308 C301 1.264 . S
O309 Mg310 1.990 . S
O309 C323 1.253 . S
Mg310 O309 1.990 . S
Mg310 O313 2.163 1_554 S
Mg310 O314 2.117 1_554 S
Mg310 O328 2.030 . S
O311 Mg312 2.072 . S
O311 C323 1.260 . S
Mg312 O311 2.072 . S
Mg312 O313 2.094 1_554 S
Mg312 O315 2.079 1_554 S
Mg312 O316 2.072 1_554 S
Mg312 O318 2.099 1_545 S
Mg312 O329 2.079 . S
O313 Mg310 2.163 1_556 S
O313 Mg312 2.094 1_556 S
O313 C324 1.296 . S
O314 Mg310 2.117 1_556 S
O314 C324 1.250 . S
O315 Mg312 2.079 1_556 S
O315 C325 1.264 1_545 S
O316 Mg312 2.072 1_556 S
O316 C326 1.260 1_545 S
Mg317 O318 2.180 1_556 S
Mg317 O319 2.030 . S
Mg317 O320 1.990 . S
Mg317 O321 2.117 1_556 S
O318 Mg312 2.099 1_565 S
O318 Mg317 2.180 1_554 S
O318 C327 1.279 . S
O319 Mg317 2.030 . S
O319 C325 1.248 . S
O320 Mg317 1.990 . S
O320 C326 1.253 . S
O321 Mg317 2.117 1_554 S
O321 C327 1.250 . S
C322 O328 1.248 . S
C322 O329 1.264 . S
C323 O309 1.253 . S
C323 O311 1.260 . S
C324 O313 1.296 . S
C324 O314 1.250 . S
C325 O315 1.264 1_565 S
C325 O319 1.248 . S
C326 O316 1.260 1_565 S
C326 O320 1.253 . S
C327 O318 1.279 . S
C327 O321 1.250 . S
O328 Mg310 2.030 . S
O328 C322 1.248 . S
O329 Mg312 2.079 . S
O329 C322 1.264 . S
O330 Mg331 1.990 . S
O330 C344 1.253 . S
Mg331 O330 1.990 . S
Mg331 O334 2.180 . S
Mg331 O335 2.117 . S
Mg331 O349 2.030 . S
O332 Mg333 2.072 . S
O332 C344 1.260 . S
Mg333 O332 2.072 . S
Mg333 O334 2.099 . S
Mg333 O336 2.079 . S
Mg333 O337 2.072 . S
Mg333 O339 2.099 . S
Mg333 O350 2.079 . S
O334 Mg331 2.180 . S
O334 Mg333 2.099 . S
O334 C345 1.279 . S
O335 Mg331 2.117 . S
O335 C345 1.250 . S
O336 Mg333 2.079 . S
O336 C346 1.264 . S
O337 Mg333 2.072 . S
O337 C347 1.260 . S
Mg338 O339 2.180 . S
Mg338 O340 2.030 . S
Mg338 O341 1.990 . S
Mg338 O342 2.117 . S
O339 Mg333 2.099 . S
O339 Mg338 2.180 . S
O339 C348 1.279 . S
O340 Mg338 2.030 . S
O340 C346 1.248 . S
O341 Mg338 1.990 . S
O341 C347 1.253 . S
O342 Mg338 2.117 . S
O342 C348 1.250 . S
C343 O349 1.248 . S
C343 O350 1.264 . S
C344 O330 1.253 . S
C344 O332 1.260 . S
C345 O334 1.279 . S
C345 O335 1.250 . S
C346 O336 1.264 . S
C346 O340 1.248 . S
C347 O337 1.260 . S
C347 O341 1.253 . S
C348 O339 1.279 . S
C348 O342 1.250 . S
O349 Mg331 2.030 . S
O349 C343 1.248 . S
O350 Mg333 2.079 . S
O350 C343 1.264 . S
O351 Mg352 1.990 . S
O351 C365 1.253 . S
Mg352 O351 1.990 . S
Mg352 O355 2.180 1_455 S
Mg352 O356 2.117 1_455 S
Mg352 O370 2.030 . S
O353 Mg354 2.072 . S
O353 C365 1.260 . S
Mg354 O353 2.072 . S
Mg354 O355 2.099 1_455 S
Mg354 O357 2.079 1_454 S
Mg354 O358 2.072 1_455 S
Mg354 O360 2.099 1_554 S
Mg354 O371 2.079 . S
O355 Mg352 2.180 1_655 S
O355 Mg354 2.099 1_655 S
O355 C366 1.279 . S
O356 Mg352 2.117 1_655 S
O356 C366 1.250 . S
O357 Mg354 2.079 1_656 S
O357 C367 1.264 . S
O358 Mg354 2.072 1_655 S
O358 C368 1.260 1_554 S
Mg359 O360 2.180 1_655 S
Mg359 O361 2.030 . S
Mg359 O362 1.990 . S
Mg359 O363 2.117 . S
O360 Mg354 2.099 1_556 S
O360 Mg359 2.180 1_455 S
O360 C369 1.279 . S
O361 Mg359 2.030 . S
O361 C367 1.248 . S
O362 Mg359 1.990 . S
O362 C368 1.253 . S
O363 Mg359 2.117 . S
O363 C369 1.250 1_655 S
C364 O370 1.248 . S
C364 O371 1.264 . S
C365 O351 1.253 . S
C365 O353 1.260 . S
C366 O355 1.279 . S
C366 O356 1.250 . S
C367 O357 1.264 . S
C367 O361 1.248 . S
C368 O358 1.260 1_556 S
C368 O362 1.253 . S
C369 O360 1.279 . S
C369 O363 1.250 1_455 S
O370 Mg352 2.030 . S
O370 C364 1.248 . S
O371 Mg354 2.079 . S
O371 C364 1.264 . S
H372 C378 0.930 . S
H373 C382 0.930 . S
H374 C387 0.929 . S
H375 C385 0.929 1_655 S
H376 C380 0.929 . S
H377 C386 0.929 . S
C378 H372 0.930 . S
C378 C379 1.367 . S
C378 C386 1.378 . S
C379 C378 1.367 . S
C379 C387 1.433 . S
C380 H376 0.929 . S
C380 C382 1.378 . S
C380 C384 1.350 . S
C381 C384 1.463 . S
C381 C386 1.350 . S
C381 N389 1.427 . S
C382 H373 0.930 . S
C382 C380 1.378 . S
C382 C383 1.367 . S
C383 C382 1.367 . S
C383 C385 1.433 . S
C384 C380 1.350 . S
C384 C381 1.463 . S
C384 N388 1.427 . S
C385 H375 0.929 1_455 S
C385 C383 1.433 . S
C385 N388 1.384 . S
C386 H377 0.929 . S
C386 C378 1.378 . S
C386 C381 1.350 . S
C387 H374 0.929 . S
C387 C379 1.433 . S
C387 N389 1.384 . S
N388 C384 1.427 . S
N388 C385 1.384 . S
N389 C381 1.427 . S
N389 C387 1.384 . S
H390 C396 0.930 . S
H391 C400 0.930 . S
H392 C405 0.929 . S
H393 C403 0.929 . S
H394 C398 0.929 . S
H395 C404 0.929 1_545 S
C396 H390 0.930 . S
C396 C397 1.367 . S
C396 C404 1.378 . S
C397 C396 1.367 . S
C397 C405 1.433 . S
C398 H394 0.929 . S
C398 C400 1.378 . S
C398 C402 1.350 . S
C399 C402 1.463 . S
C399 C404 1.350 . S
C399 N407 1.427 . S
C400 H391 0.930 . S
C400 C398 1.378 . S
C400 C401 1.367 . S
C401 C400 1.367 . S
C401 C403 1.433 1_565 S
C402 C398 1.350 . S
C402 C399 1.463 . S
C402 N406 1.425 . S
C403 H393 0.929 . S
C403 C401 1.433 1_545 S
C403 N406 1.384 1_545 S
C404 H395 0.929 1_565 S
C404 C396 1.378 . S
C404 C399 1.350 . S
C405 H392 0.929 . S
C405 C397 1.433 . S
C405 N407 1.384 . S
N406 C402 1.425 . S
N406 C403 1.384 1_565 S
N407 C399 1.427 . S
N407 C405 1.384 . S
H408 C414 0.930 . S
H409 C418 0.930 . S
H410 C423 0.929 . S
H411 C421 0.929 . S
H412 C416 0.929 . S
H413 C422 0.929 . S
C414 H408 0.930 . S
C414 C415 1.367 . S
C414 C422 1.378 . S
C415 C414 1.367 . S
C415 C423 1.433 . S
C416 H412 0.929 . S
C416 C418 1.378 . S
C416 C420 1.350 . S
C417 C420 1.463 . S
C417 C422 1.350 . S
C417 N425 1.427 . S
C418 H409 0.930 . S
C418 C416 1.378 . S
C418 C419 1.367 . S
C419 C418 1.367 . S
C419 C421 1.433 . S
C420 C416 1.350 . S
C420 C417 1.463 . S
C420 N424 1.427 . S
C421 H411 0.929 . S
C421 C419 1.433 . S
C421 N424 1.384 . S
C422 H413 0.929 . S
C422 C414 1.378 . S
C422 C417 1.350 . S
C423 H410 0.929 . S
C423 C415 1.433 . S
C423 N425 1.384 . S
N424 C420 1.427 . S
N424 C421 1.384 . S
N425 C417 1.427 . S
N425 C423 1.384 . S
H426 C432 0.930 . S
H427 C436 0.930 . S
H428 C441 0.929 . S
H429 C439 0.929 . S
H430 C434 0.929 . S
H431 C440 0.929 . S
C432 H426 0.930 . S
C432 C433 1.367 . S
C432 C440 1.378 . S
C433 C432 1.367 . S
C433 C441 1.433 . S
C434 H430 0.929 . S
C434 C436 1.378 . S
C434 C438 1.350 . S
C435 C438 1.463 . S
C435 C440 1.350 . S
C435 N443 1.427 . S
C436 H427 0.930 . S
C436 C434 1.378 . S
C436 C437 1.367 . S
C437 C436 1.367 . S
C437 C439 1.433 . S
C438 C434 1.350 . S
C438 C435 1.463 . S
C438 N442 1.427 . S
C439 H429 0.929 . S
C439 C437 1.433 . S
C439 N442 1.384 . S
C440 H431 0.929 . S
C440 C432 1.378 . S
C440 C435 1.350 . S
C441 H428 0.929 . S
C441 C433 1.433 . S
C441 N443 1.384 . S
N442 C438 1.427 . S
N442 C439 1.384 . S
N443 C435 1.427 . S
N443 C441 1.384 . S
H444 C450 0.930 . S
H445 C454 0.930 . S
H446 C459 0.929 . S
H447 C457 0.929 . S
H448 C452 0.929 . S
H449 C458 0.929 . S
C450 H444 0.930 . S
C450 C451 1.367 . S
C450 C458 1.378 . S
C451 C450 1.367 . S
C451 C459 1.433 . S
C452 H448 0.929 . S
C452 C454 1.378 . S
C452 C456 1.350 . S
C453 C456 1.463 . S
C453 C458 1.350 . S
C453 N461 1.427 . S
C454 H445 0.930 . S
C454 C452 1.378 . S
C454 C455 1.367 . S
C455 C454 1.367 . S
C455 C457 1.433 . S
C456 C452 1.350 . S
C456 C453 1.463 . S
C456 N460 1.427 . S
C457 H447 0.929 . S
C457 C455 1.433 . S
C457 N460 1.384 . S
C458 H449 0.929 . S
C458 C450 1.378 . S
C458 C453 1.350 . S
C459 H446 0.929 . S
C459 C451 1.433 . S
C459 N461 1.384 . S
N460 C456 1.427 . S
N460 C457 1.384 . S
N461 C453 1.427 . S
N461 C459 1.384 . S
H462 C468 0.930 . S
H463 C472 0.930 . S
H464 C477 0.929 . S
H465 C475 0.929 . S
H466 C470 0.929 . S
H467 C476 0.929 . S
C468 H462 0.930 . S
C468 C469 1.367 . S
C468 C476 1.378 . S
C469 C468 1.367 . S
C469 C477 1.433 . S
C470 H466 0.929 . S
C470 C472 1.378 . S
C470 C474 1.350 . S
C471 C474 1.463 . S
C471 C476 1.350 . S
C471 N479 1.427 . S
C472 H463 0.930 . S
C472 C470 1.378 . S
C472 C473 1.367 . S
C473 C472 1.367 . S
C473 C475 1.433 . S
C474 C470 1.350 . S
C474 C471 1.463 . S
C474 N478 1.427 . S
C475 H465 0.929 . S
C475 C473 1.433 . S
C475 N478 1.384 . S
C476 H467 0.929 . S
C476 C468 1.378 . S
C476 C471 1.350 . S
C477 H464 0.929 . S
C477 C469 1.433 . S
C477 N479 1.384 . S
N478 C474 1.427 . S
N478 C475 1.384 . S
N479 C471 1.427 . S
N479 C477 1.384 . S
H480 C486 0.930 . S
H481 C490 0.930 . S
H482 C495 0.929 . S
H483 C493 0.929 . S
H484 C488 0.929 . S
H485 C494 0.929 . S
C486 H480 0.930 . S
C486 C487 1.367 . S
C486 C494 1.378 . S
C487 C486 1.367 . S
C487 C495 1.433 . S
C488 H484 0.929 . S
C488 C490 1.378 . S
C488 C492 1.350 . S
C489 C492 1.463 . S
C489 C494 1.350 . S
C489 N497 1.427 . S
C490 H481 0.930 . S
C490 C488 1.378 . S
C490 C491 1.367 . S
C491 C490 1.367 . S
C491 C493 1.433 . S
C492 C488 1.350 . S
C492 C489 1.463 . S
C492 N496 1.427 . S
C493 H483 0.929 . S
C493 C491 1.433 . S
C493 N496 1.384 . S
C494 H485 0.929 . S
C494 C486 1.378 . S
C494 C489 1.350 . S
C495 H482 0.929 . S
C495 C487 1.433 . S
C495 N497 1.384 . S
N496 C492 1.427 . S
N496 C493 1.384 . S
N497 C489 1.427 . S
N497 C495 1.384 . S
H498 C504 0.930 . S
H499 C508 0.930 . S
H500 C513 0.929 . S
H501 C511 0.929 . S
H502 C506 0.929 . S
H503 C512 0.929 . S
C504 H498 0.930 . S
C504 C505 1.367 . S
C504 C512 1.378 . S
C505 C504 1.367 . S
C505 C513 1.433 . S
C506 H502 0.929 . S
C506 C508 1.378 . S
C506 C510 1.350 . S
C507 C510 1.463 . S
C507 C512 1.350 . S
C507 N515 1.427 . S
C508 H499 0.930 . S
C508 C506 1.378 . S
C508 C509 1.367 . S
C509 C508 1.367 . S
C509 C511 1.433 . S
C510 C506 1.350 . S
C510 C507 1.463 . S
C510 N514 1.427 . S
C511 H501 0.929 . S
C511 C509 1.433 . S
C511 N514 1.384 . S
C512 H503 0.929 . S
C512 C504 1.378 . S
C512 C507 1.350 . S
C513 H500 0.929 . S
C513 C505 1.433 . S
C513 N515 1.384 . S
N514 C510 1.427 . S
N514 C511 1.384 . S
N515 C507 1.427 . S
N515 C513 1.384 . S
H516 C522 0.930 . S
H517 C526 0.930 . S
H518 C531 0.929 . S
H519 C529 0.929 . S
H520 C524 0.929 . S
H521 C530 0.929 . S
C522 H516 0.930 . S
C522 C523 1.367 . S
C522 C530 1.378 . S
C523 C522 1.367 . S
C523 C531 1.433 . S
C524 H520 0.929 . S
C524 C526 1.378 . S
C524 C528 1.350 . S
C525 C528 1.463 . S
C525 C530 1.350 . S
C525 N533 1.427 . S
C526 H517 0.930 . S
C526 C524 1.378 . S
C526 C527 1.367 . S
C527 C526 1.367 . S
C527 C529 1.433 . S
C528 C524 1.350 . S
C528 C525 1.463 . S
C528 N532 1.427 . S
C529 H519 0.929 . S
C529 C527 1.433 . S
C529 N532 1.384 . S
C530 H521 0.929 . S
C530 C522 1.378 . S
C530 C525 1.350 . S
C531 H518 0.929 . S
C531 C523 1.433 . S
C531 N533 1.384 . S
N532 C528 1.427 . S
N532 C529 1.384 . S
N533 C525 1.427 . S
N533 C531 1.384 . S
H534 C540 0.930 . S
H535 C544 0.930 1_554 S
H536 C549 0.929 . S
H537 C547 0.929 . S
H538 C542 0.929 . S
H539 C548 0.929 . S
C540 H534 0.930 . S
C540 C541 1.367 . S
C540 C548 1.378 . S
C541 C540 1.367 . S
C541 C549 1.433 . S
C542 H538 0.929 . S
C542 C544 1.378 . S
C542 C546 1.350 . S
C543 C546 1.463 . S
C543 C548 1.350 . S
C543 N551 1.427 . S
C544 H535 0.930 1_556 S
C544 C542 1.378 . S
C544 C545 1.367 . S
C545 C544 1.367 . S
C545 C547 1.433 . S
C546 C542 1.350 . S
C546 C543 1.463 . S
C546 N550 1.427 . S
C547 H537 0.929 . S
C547 C545 1.433 . S
C547 N550 1.384 . S
C548 H539 0.929 . S
C548 C540 1.378 . S
C548 C543 1.350 . S
C549 H536 0.929 . S
C549 C541 1.433 . S
C549 N551 1.384 . S
N550 C546 1.427 . S
N550 C547 1.384 . S
N551 C543 1.427 . S
N551 C549 1.384 . S
H552 C558 0.930 . S
H553 C562 0.930 . S
H554 C567 0.929 . S
H555 C565 0.929 . S
H556 C560 0.929 . S
H557 C566 0.929 . S
C558 H552 0.930 . S
C558 C559 1.367 . S
C558 C566 1.378 . S
C559 C558 1.367 . S
C559 C567 1.433 . S
C560 H556 0.929 . S
C560 C562 1.378 . S
C560 C564 1.350 . S
C561 C564 1.463 . S
C561 C566 1.350 . S
C561 N569 1.427 . S
C562 H553 0.930 . S
C562 C560 1.378 . S
C562 C563 1.367 . S
C563 C562 1.367 . S
C563 C565 1.433 . S
C564 C560 1.350 . S
C564 C561 1.463 . S
C564 N568 1.427 . S
C565 H555 0.929 . S
C565 C563 1.433 . S
C565 N568 1.384 . S
C566 H557 0.929 . S
C566 C558 1.378 . S
C566 C561 1.350 . S
C567 H554 0.929 . S
C567 C559 1.433 . S
C567 N569 1.384 . S
N568 C564 1.427 . S
N568 C565 1.384 . S
N569 C561 1.427 . S
N569 C567 1.384 . S
H570 C576 0.930 . S
H571 C580 0.930 . S
H572 C585 0.929 . S
H573 C583 0.929 . S
H574 C578 0.929 . S
H575 C584 0.929 . S
C576 H570 0.930 . S
C576 C577 1.367 . S
C576 C584 1.378 . S
C577 C576 1.367 . S
C577 C585 1.433 . S
C578 H574 0.929 . S
C578 C580 1.378 . S
C578 C582 1.350 . S
C579 C582 1.463 . S
C579 C584 1.350 . S
C579 N587 1.427 . S
C580 H571 0.930 . S
C580 C578 1.378 . S
C580 C581 1.367 . S
C581 C580 1.367 . S
C581 C583 1.433 . S
C582 C578 1.350 . S
C582 C579 1.463 . S
C582 N586 1.427 . S
C583 H573 0.929 . S
C583 C581 1.433 . S
C583 N586 1.384 . S
C584 H575 0.929 . S
C584 C576 1.378 . S
C584 C579 1.350 . S
C585 H572 0.929 . S
C585 C577 1.433 . S
C585 N587 1.384 . S
N586 C582 1.427 . S
N586 C583 1.384 . S
N587 C579 1.427 . S
N587 C585 1.384 . S
H588 C594 0.930 . S
H589 C598 0.930 1_455 S
H590 C603 0.929 . S
H591 C601 0.929 . S
H592 C596 0.929 1_455 S
H593 C602 0.929 . S
C594 H588 0.930 . S
C594 C595 1.367 . S
C594 C602 1.378 . S
C595 C594 1.367 . S
C595 C603 1.433 . S
C596 H592 0.929 1_655 S
C596 C598 1.378 . S
C596 C600 1.350 . S
C597 C600 1.463 . S
C597 C602 1.350 . S
C597 N605 1.427 . S
C598 H589 0.930 1_655 S
C598 C596 1.378 . S
C598 C599 1.367 . S
C599 C598 1.367 . S
C599 C601 1.433 . S
C600 C596 1.350 . S
C600 C597 1.463 . S
C600 N604 1.427 . S
C601 H591 0.929 . S
C601 C599 1.433 . S
C601 N604 1.384 . S
C602 H593 0.929 . S
C602 C594 1.378 . S
C602 C597 1.350 . S
C603 H590 0.929 . S
C603 C595 1.433 . S
C603 N605 1.384 . S
N604 C600 1.427 . S
N604 C601 1.384 . S
N605 C597 1.427 . S
N605 C603 1.384 . S
H606 C612 0.930 . S
H607 C616 0.930 . S
H608 C621 0.929 . S
H609 C619 0.929 . S
H610 C614 0.929 . S
H611 C620 0.929 . S
C612 H606 0.930 . S
C612 C613 1.367 . S
C612 C620 1.378 . S
C613 C612 1.367 . S
C613 C621 1.433 . S
C614 H610 0.929 . S
C614 C616 1.378 . S
C614 C618 1.350 . S
C615 C618 1.463 . S
C615 C620 1.350 . S
C615 N623 1.427 . S
C616 H607 0.930 . S
C616 C614 1.378 . S
C616 C617 1.367 . S
C617 C616 1.367 . S
C617 C619 1.433 . S
C618 C614 1.350 . S
C618 C615 1.463 . S
C618 N622 1.427 . S
C619 H609 0.929 . S
C619 C617 1.433 . S
C619 N622 1.384 . S
C620 H611 0.929 . S
C620 C612 1.378 . S
C620 C615 1.350 . S
C621 H608 0.929 . S
C621 C613 1.433 . S
C621 N623 1.384 . S
N622 C618 1.427 . S
N622 C619 1.384 . S
N623 C615 1.427 . S
N623 C621 1.384 . S
H624 C630 0.930 . S
H625 C634 0.930 . S
H626 C639 0.929 . S
H627 C637 0.929 . S
H628 C632 0.929 . S
H629 C638 0.929 . S
C630 H624 0.930 . S
C630 C631 1.367 . S
C630 C638 1.378 . S
C631 C630 1.367 . S
C631 C639 1.433 . S
C632 H628 0.929 . S
C632 C634 1.378 . S
C632 C636 1.350 . S
C633 C636 1.463 . S
C633 C638 1.350 . S
C633 N641 1.427 . S
C634 H625 0.930 . S
C634 C632 1.378 . S
C634 C635 1.367 . S
C635 C634 1.367 . S
C635 C637 1.433 . S
C636 C632 1.350 . S
C636 C633 1.463 . S
C636 N640 1.427 . S
C637 H627 0.929 . S
C637 C635 1.433 . S
C637 N640 1.384 . S
C638 H629 0.929 . S
C638 C630 1.378 . S
C638 C633 1.350 . S
C639 H626 0.929 . S
C639 C631 1.433 . S
C639 N641 1.384 . S
N640 C636 1.427 . S
N640 C637 1.384 . S
N641 C633 1.427 . S
N641 C639 1.384 . S
H642 C648 0.930 . S
H643 C652 0.930 1_655 S
H644 C657 0.929 . S
H645 C655 0.929 . S
H646 C650 0.929 . S
H647 C656 0.929 . S
C648 H642 0.930 . S
C648 C649 1.367 . S
C648 C656 1.378 . S
C649 C648 1.367 . S
C649 C657 1.433 . S
C650 H646 0.929 . S
C650 C652 1.378 . S
C650 C654 1.350 . S
C651 C654 1.463 . S
C651 C656 1.350 . S
C651 N659 1.427 . S
C652 H643 0.930 1_455 S
C652 C650 1.378 . S
C652 C653 1.367 . S
C653 C652 1.367 . S
C653 C655 1.433 . S
C654 C650 1.350 . S
C654 C651 1.463 . S
C654 N658 1.427 . S
C655 H645 0.929 . S
C655 C653 1.433 . S
C655 N658 1.384 . S
C656 H647 0.929 . S
C656 C648 1.378 . S
C656 C651 1.350 . S
C657 H644 0.929 . S
C657 C649 1.433 . S
C657 N659 1.384 . S
N658 C654 1.427 . S
N658 C655 1.384 . S
N659 C651 1.427 . S
N659 C657 1.384 . S
H660 C666 0.930 . S
H661 C670 0.930 1_554 S
H662 C675 0.929 . S
H663 C673 0.929 . S
H664 C668 0.929 1_554 S
H665 C674 0.929 . S
C666 H660 0.930 . S
C666 C667 1.367 . S
C666 C674 1.378 . S
C667 C666 1.367 . S
C667 C675 1.433 . S
C668 H664 0.929 1_556 S
C668 C670 1.378 . S
C668 C672 1.350 . S
C669 C672 1.463 . S
C669 C674 1.350 . S
C669 N677 1.427 . S
C670 H661 0.930 1_556 S
C670 C668 1.378 . S
C670 C671 1.367 . S
C671 C670 1.367 . S
C671 C673 1.433 . S
C672 C668 1.350 . S
C672 C669 1.463 . S
C672 N676 1.427 . S
C673 H663 0.929 . S
C673 C671 1.433 . S
C673 N676 1.384 . S
C674 H665 0.929 . S
C674 C666 1.378 . S
C674 C669 1.350 . S
C675 H662 0.929 . S
C675 C667 1.433 . S
C675 N677 1.384 . S
N676 C672 1.427 . S
N676 C673 1.384 . S
N677 C669 1.427 . S
N677 C675 1.384 . S
H678 C684 0.930 . S
H679 C688 0.930 . S
H680 C693 0.929 . S
H681 C691 0.929 . S
H682 C686 0.929 . S
H683 C692 0.929 . S
C684 H678 0.930 . S
C684 C685 1.367 . S
C684 C692 1.378 . S
C685 C684 1.367 . S
C685 C693 1.433 . S
C686 H682 0.929 . S
C686 C688 1.378 . S
C686 C690 1.350 . S
C687 C690 1.463 . S
C687 C692 1.350 . S
C687 N695 1.427 . S
C688 H679 0.930 . S
C688 C686 1.378 . S
C688 C689 1.367 . S
C689 C688 1.367 . S
C689 C691 1.433 . S
C690 C686 1.350 . S
C690 C687 1.463 . S
C690 N694 1.427 . S
C691 H681 0.929 . S
C691 C689 1.433 . S
C691 N694 1.384 . S
C692 H683 0.929 . S
C692 C684 1.378 . S
C692 C687 1.350 . S
C693 H680 0.929 . S
C693 C685 1.433 . S
C693 N695 1.384 . S
N694 C690 1.427 . S
N694 C691 1.384 . S
N695 C687 1.427 . S
N695 C693 1.384 . S
H696 C702 0.930 . S
H697 C706 0.930 1_556 S
H698 C711 0.929 . S
H699 C709 0.929 . S
H700 C704 0.929 . S
H701 C710 0.929 . S
C702 H696 0.930 . S
C702 C703 1.367 . S
C702 C710 1.378 . S
C703 C702 1.367 . S
C703 C711 1.433 . S
C704 H700 0.929 . S
C704 C706 1.378 . S
C704 C708 1.350 . S
C705 C708 1.463 . S
C705 C710 1.350 . S
C705 N713 1.427 . S
C706 H697 0.930 1_554 S
C706 C704 1.378 . S
C706 C707 1.367 . S
C707 C706 1.367 . S
C707 C709 1.433 . S
C708 C704 1.350 . S
C708 C705 1.463 . S
C708 N712 1.427 . S
C709 H699 0.929 . S
C709 C707 1.433 . S
C709 N712 1.384 . S
C710 H701 0.929 . S
C710 C702 1.378 . S
C710 C705 1.350 . S
C711 H698 0.929 . S
C711 C703 1.433 . S
C711 N713 1.384 . S
N712 C708 1.427 . S
N712 C709 1.384 . S
N713 C705 1.427 . S
N713 C711 1.384 . S
H714 C720 0.930 . S
H715 C724 0.930 . S
H716 C729 0.929 . S
H717 C727 0.929 . S
H718 C722 0.929 . S
H719 C728 0.929 . S
C720 H714 0.930 . S
C720 C721 1.367 . S
C720 C728 1.378 . S
C721 C720 1.367 . S
C721 C729 1.433 . S
C722 H718 0.929 . S
C722 C724 1.378 . S
C722 C726 1.350 . S
C723 C726 1.463 . S
C723 C728 1.350 . S
C723 N731 1.427 . S
C724 H715 0.930 . S
C724 C722 1.378 . S
C724 C725 1.367 . S
C725 C724 1.367 . S
C725 C727 1.433 . S
C726 C722 1.350 . S
C726 C723 1.463 . S
C726 N730 1.427 . S
C727 H717 0.929 . S
C727 C725 1.433 . S
C727 N730 1.384 . S
C728 H719 0.929 . S
C728 C720 1.378 . S
C728 C723 1.350 . S
C729 H716 0.929 . S
C729 C721 1.433 . S
C729 N731 1.384 . S
N730 C726 1.427 . S
N730 C727 1.384 . S
N731 C723 1.427 . S
N731 C729 1.384 . S
H732 C738 0.930 . S
H733 C742 0.930 1_554 S
H734 C747 0.929 . S
H735 C745 0.929 . S
H736 C740 0.929 1_554 S
H737 C746 0.929 . S
C738 H732 0.930 . S
C738 C739 1.367 . S
C738 C746 1.378 . S
C739 C738 1.367 . S
C739 C747 1.433 . S
C740 H736 0.929 1_556 S
C740 C742 1.378 . S
C740 C744 1.350 . S
C741 C744 1.463 . S
C741 C746 1.350 . S
C741 N749 1.427 . S
C742 H733 0.930 1_556 S
C742 C740 1.378 . S
C742 C743 1.367 . S
C743 C742 1.367 . S
C743 C745 1.433 . S
C744 C740 1.350 . S
C744 C741 1.463 . S
C744 N748 1.427 . S
C745 H735 0.929 . S
C745 C743 1.433 . S
C745 N748 1.384 . S
C746 H737 0.929 . S
C746 C738 1.378 . S
C746 C741 1.350 . S
C747 H734 0.929 . S
C747 C739 1.433 . S
C747 N749 1.384 . S
N748 C744 1.427 . S
N748 C745 1.384 . S
N749 C741 1.427 . S
N749 C747 1.384 . S
H750 C756 0.930 . S
H751 C760 0.930 . S
H752 C765 0.929 . S
H753 C763 0.929 1_556 S
H754 C758 0.929 . S
H755 C764 0.929 . S
C756 H750 0.930 . S
C756 C757 1.367 . S
C756 C764 1.378 . S
C757 C756 1.367 . S
C757 C765 1.433 . S
C758 H754 0.929 . S
C758 C760 1.378 . S
C758 C762 1.350 . S
C759 C762 1.463 . S
C759 C764 1.350 . S
C759 N767 1.427 . S
C760 H751 0.930 . S
C760 C758 1.378 . S
C760 C761 1.367 . S
C761 C760 1.367 . S
C761 C763 1.433 . S
C762 C758 1.350 . S
C762 C759 1.463 . S
C762 N766 1.427 . S
C763 H753 0.929 1_554 S
C763 C761 1.433 . S
C763 N766 1.384 . S
C764 H755 0.929 . S
C764 C756 1.378 . S
C764 C759 1.350 . S
C765 H752 0.929 . S
C765 C757 1.433 . S
C765 N767 1.384 . S
N766 C762 1.427 . S
N766 C763 1.384 . S
N767 C759 1.427 . S
N767 C765 1.384 . S
H768 C774 0.930 . S
H769 C778 0.930 . S
H770 C783 0.929 . S
H771 C781 0.929 . S
H772 C776 0.929 . S
H773 C782 0.929 . S
C774 H768 0.930 . S
C774 C775 1.367 . S
C774 C782 1.378 . S
C775 C774 1.367 . S
C775 C783 1.433 . S
C776 H772 0.929 . S
C776 C778 1.378 . S
C776 C780 1.350 . S
C777 C780 1.463 . S
C777 C782 1.350 . S
C777 N785 1.427 . S
C778 H769 0.930 . S
C778 C776 1.378 . S
C778 C779 1.367 . S
C779 C778 1.367 . S
C779 C781 1.433 . S
C780 C776 1.350 . S
C780 C777 1.463 . S
C780 N784 1.427 . S
C781 H771 0.929 . S
C781 C779 1.433 . S
C781 N784 1.384 . S
C782 H773 0.929 . S
C782 C774 1.378 . S
C782 C777 1.350 . S
C783 H770 0.929 . S
C783 C775 1.433 . S
C783 N785 1.384 . S
N784 C780 1.427 . S
N784 C781 1.384 . S
N785 C777 1.427 . S
N785 C783 1.384 . S
H786 C792 0.930 . S
H787 C796 0.930 . S
H788 C801 0.929 . S
H789 C799 0.929 . S
H790 C794 0.929 . S
H791 C800 0.929 . S
C792 H786 0.930 . S
C792 C793 1.367 . S
C792 C800 1.378 . S
C793 C792 1.367 . S
C793 C801 1.433 . S
C794 H790 0.929 . S
C794 C796 1.378 . S
C794 C798 1.350 . S
C795 C798 1.463 . S
C795 C800 1.350 . S
C795 N803 1.427 . S
C796 H787 0.930 . S
C796 C794 1.378 . S
C796 C797 1.367 . S
C797 C796 1.367 . S
C797 C799 1.433 . S
C798 C794 1.350 . S
C798 C795 1.463 . S
C798 N802 1.427 . S
C799 H789 0.929 . S
C799 C797 1.433 . S
C799 N802 1.384 . S
C800 H791 0.929 . S
C800 C792 1.378 . S
C800 C795 1.350 . S
C801 H788 0.929 . S
C801 C793 1.433 . S
C801 N803 1.384 . S
N802 C798 1.427 . S
N802 C799 1.384 . S
N803 C795 1.427 . S
N803 C801 1.384 . S
C379 C1 1.603 . S
C383 C304 1.569 . S
C397 C67 1.490 . S
C401 C326 1.446 . S
C419 C345 1.187 . S
C415 C97 1.423 . S
C433 C133 1.856 . S
C437 C366 1.501 . S
C455 C323 1.774 . S
C451 C25 1.798 . S
C473 C301 1.676 . S
C469 C37 1.698 . S
C491 C368 1.303 . S
C487 C103 1.360 . S
C509 C347 1.449 . S
C505 C109 1.510 . S
C523 C31 1.737 . S
C527 C365 1.703 . S
C545 C324 1.292 . S
C541 C73 1.587 . S
C559 C139 1.705 . S
C563 C306 1.548 . S
C577 C61 1.491 . S
C581 C344 1.511 . S
C599 C302 1.569 . S
C595 C175 1.650 . S
C613 C181 1.302 . S
C617 C322 1.289 . S
C631 C247 1.528 . S
C635 C348 1.276 . S
C649 C277 1.767 . S
C653 C369 1.400 . S
C667 C145 1.752 . S
C671 C325 1.715 . S
C689 C305 1.738 . S
C685 C211 1.775 . S
C707 C364 1.204 . S
C703 C217 1.248 . S
C725 C343 1.553 . S
C721 C283 1.603 . S
C739 C169 1.567 . S
C743 C367 1.534 . S
C761 C327 1.272 . S
C757 C241 1.522 . S
C779 C303 1.343 . S
C775 C253 1.514 . S
C793 C205 1.451 . S
C797 C346 1.442 . S
