# Generated by pormake.
# Topology eea, (3,6)-cn, num edge types: 1
# Building blocks:
#     Node 0, Type 0, BuildingBlock: ESEHIV_clean_linker_0, # of connection points: 3
#     Node 1, Type 0, BuildingBlock: ESEHIV_clean_linker_0, # of connection points: 3
#     Node 2, Type 0, BuildingBlock: ESEHIV_clean_linker_0, # of connection points: 3
#     Node 3, Type 0, BuildingBlock: ESEHIV_clean_linker_0, # of connection points: 3
#     Node 4, Type 0, BuildingBlock: ESEHIV_clean_linker_0, # of connection points: 3
#     Node 5, Type 0, BuildingBlock: ESEHIV_clean_linker_0, # of connection points: 3
#     Node 6, Type 0, BuildingBlock: ESEHIV_clean_linker_0, # of connection points: 3
#     Node 7, Type 0, BuildingBlock: ESEHIV_clean_linker_0, # of connection points: 3
#     Node 8, Type 0, BuildingBlock: ESEHIV_clean_linker_0, # of connection points: 3
#     Node 9, Type 0, BuildingBlock: ESEHIV_clean_linker_0, # of connection points: 3
#     Node 10, Type 0, BuildingBlock: ESEHIV_clean_linker_0, # of connection points: 3
#     Node 11, Type 0, BuildingBlock: ESEHIV_clean_linker_0, # of connection points: 3
#     Node 12, Type 0, BuildingBlock: ESEHIV_clean_linker_0, # of connection points: 3
#     Node 13, Type 0, BuildingBlock: ESEHIV_clean_linker_0, # of connection points: 3
#     Node 14, Type 0, BuildingBlock: ESEHIV_clean_linker_0, # of connection points: 3
#     Node 15, Type 0, BuildingBlock: ESEHIV_clean_linker_0, # of connection points: 3
#     Node 16, Type 0, BuildingBlock: ESEHIV_clean_linker_0, # of connection points: 3
#     Node 17, Type 0, BuildingBlock: ESEHIV_clean_linker_0, # of connection points: 3
#     Node 18, Type 1, BuildingBlock: KUMJIN_clean_sbu_0, # of connection points: 6
#     Node 19, Type 1, BuildingBlock: KUMJIN_clean_sbu_0, # of connection points: 6
#     Node 20, Type 1, BuildingBlock: KUMJIN_clean_sbu_0, # of connection points: 6
#     Node 21, Type 1, BuildingBlock: KUMJIN_clean_sbu_0, # of connection points: 6
#     Node 22, Type 1, BuildingBlock: KUMJIN_clean_sbu_0, # of connection points: 6
#     Node 23, Type 1, BuildingBlock: KUMJIN_clean_sbu_0, # of connection points: 6
#     Node 24, Type 1, BuildingBlock: KUMJIN_clean_sbu_0, # of connection points: 6
#     Node 25, Type 1, BuildingBlock: KUMJIN_clean_sbu_0, # of connection points: 6
#     Node 26, Type 1, BuildingBlock: KUMJIN_clean_sbu_0, # of connection points: 6
#     Edge 27, Type (0, 1), BuildingBlock: MIFKUJ_clean_linker_0, # of connection points: 2
#     Edge 28, Type (0, 1), BuildingBlock: MIFKUJ_clean_linker_0, # of connection points: 2
#     Edge 29, Type (0, 1), BuildingBlock: MIFKUJ_clean_linker_0, # of connection points: 2
#     Edge 30, Type (0, 1), BuildingBlock: MIFKUJ_clean_linker_0, # of connection points: 2
#     Edge 31, Type (0, 1), BuildingBlock: MIFKUJ_clean_linker_0, # of connection points: 2
#     Edge 32, Type (0, 1), BuildingBlock: MIFKUJ_clean_linker_0, # of connection points: 2
#     Edge 33, Type (0, 1), BuildingBlock: MIFKUJ_clean_linker_0, # of connection points: 2
#     Edge 34, Type (0, 1), BuildingBlock: MIFKUJ_clean_linker_0, # of connection points: 2
#     Edge 35, Type (0, 1), BuildingBlock: MIFKUJ_clean_linker_0, # of connection points: 2
#     Edge 36, Type (0, 1), BuildingBlock: MIFKUJ_clean_linker_0, # of connection points: 2
#     Edge 37, Type (0, 1), BuildingBlock: MIFKUJ_clean_linker_0, # of connection points: 2
#     Edge 38, Type (0, 1), BuildingBlock: MIFKUJ_clean_linker_0, # of connection points: 2
#     Edge 39, Type (0, 1), BuildingBlock: MIFKUJ_clean_linker_0, # of connection points: 2
#     Edge 40, Type (0, 1), BuildingBlock: MIFKUJ_clean_linker_0, # of connection points: 2
#     Edge 41, Type (0, 1), BuildingBlock: MIFKUJ_clean_linker_0, # of connection points: 2
#     Edge 42, Type (0, 1), BuildingBlock: MIFKUJ_clean_linker_0, # of connection points: 2
#     Edge 43, Type (0, 1), BuildingBlock: MIFKUJ_clean_linker_0, # of connection points: 2
#     Edge 44, Type (0, 1), BuildingBlock: MIFKUJ_clean_linker_0, # of connection points: 2
#     Edge 45, Type (0, 1), BuildingBlock: MIFKUJ_clean_linker_0, # of connection points: 2
#     Edge 46, Type (0, 1), BuildingBlock: MIFKUJ_clean_linker_0, # of connection points: 2
#     Edge 47, Type (0, 1), BuildingBlock: MIFKUJ_clean_linker_0, # of connection points: 2
#     Edge 48, Type (0, 1), BuildingBlock: MIFKUJ_clean_linker_0, # of connection points: 2
#     Edge 49, Type (0, 1), BuildingBlock: MIFKUJ_clean_linker_0, # of connection points: 2
#     Edge 50, Type (0, 1), BuildingBlock: MIFKUJ_clean_linker_0, # of connection points: 2
#     Edge 51, Type (0, 1), BuildingBlock: MIFKUJ_clean_linker_0, # of connection points: 2
#     Edge 52, Type (0, 1), BuildingBlock: MIFKUJ_clean_linker_0, # of connection points: 2
#     Edge 53, Type (0, 1), BuildingBlock: MIFKUJ_clean_linker_0, # of connection points: 2
#     Edge 54, Type (0, 1), BuildingBlock: MIFKUJ_clean_linker_0, # of connection points: 2
#     Edge 55, Type (0, 1), BuildingBlock: MIFKUJ_clean_linker_0, # of connection points: 2
#     Edge 56, Type (0, 1), BuildingBlock: MIFKUJ_clean_linker_0, # of connection points: 2
#     Edge 57, Type (0, 1), BuildingBlock: MIFKUJ_clean_linker_0, # of connection points: 2
#     Edge 58, Type (0, 1), BuildingBlock: MIFKUJ_clean_linker_0, # of connection points: 2
#     Edge 59, Type (0, 1), BuildingBlock: MIFKUJ_clean_linker_0, # of connection points: 2
#     Edge 60, Type (0, 1), BuildingBlock: MIFKUJ_clean_linker_0, # of connection points: 2
#     Edge 61, Type (0, 1), BuildingBlock: MIFKUJ_clean_linker_0, # of connection points: 2
#     Edge 62, Type (0, 1), BuildingBlock: MIFKUJ_clean_linker_0, # of connection points: 2
#     Edge 63, Type (0, 1), BuildingBlock: MIFKUJ_clean_linker_0, # of connection points: 2
#     Edge 64, Type (0, 1), BuildingBlock: MIFKUJ_clean_linker_0, # of connection points: 2
#     Edge 65, Type (0, 1), BuildingBlock: MIFKUJ_clean_linker_0, # of connection points: 2
#     Edge 66, Type (0, 1), BuildingBlock: MIFKUJ_clean_linker_0, # of connection points: 2
#     Edge 67, Type (0, 1), BuildingBlock: MIFKUJ_clean_linker_0, # of connection points: 2
#     Edge 68, Type (0, 1), BuildingBlock: MIFKUJ_clean_linker_0, # of connection points: 2
#     Edge 69, Type (0, 1), BuildingBlock: MIFKUJ_clean_linker_0, # of connection points: 2
#     Edge 70, Type (0, 1), BuildingBlock: MIFKUJ_clean_linker_0, # of connection points: 2
#     Edge 71, Type (0, 1), BuildingBlock: MIFKUJ_clean_linker_0, # of connection points: 2
#     Edge 72, Type (0, 1), BuildingBlock: MIFKUJ_clean_linker_0, # of connection points: 2
#     Edge 73, Type (0, 1), BuildingBlock: MIFKUJ_clean_linker_0, # of connection points: 2
#     Edge 74, Type (0, 1), BuildingBlock: MIFKUJ_clean_linker_0, # of connection points: 2
#     Edge 75, Type (0, 1), BuildingBlock: MIFKUJ_clean_linker_0, # of connection points: 2
#     Edge 76, Type (0, 1), BuildingBlock: MIFKUJ_clean_linker_0, # of connection points: 2
#     Edge 77, Type (0, 1), BuildingBlock: MIFKUJ_clean_linker_0, # of connection points: 2
#     Edge 78, Type (0, 1), BuildingBlock: MIFKUJ_clean_linker_0, # of connection points: 2
#     Edge 79, Type (0, 1), BuildingBlock: MIFKUJ_clean_linker_0, # of connection points: 2
#     Edge 80, Type (0, 1), BuildingBlock: MIFKUJ_clean_linker_0, # of connection points: 2
# Relax obj value: 0.009
# Max RMSD: 0.095
# Mean RMSD: 0.062
data_MOF--net-eea--node1-KUMJIN_clean_sbu_0--node2-ESEHIV_clean_linker_0--edge1-MIFKUJ_clean_linker_0
_symmetry_space_group_name_H-M    P1
_symmetry_Int_Tables_number       1
_symmetry_cell_setting            triclinic
loop_
_symmetry_equiv_pos_as_xyz
'x, y, z'
_cell_length_a     63.378455
_cell_length_b     64.64314
_cell_length_c     89.90889
_cell_angle_alpha  90.151065
_cell_angle_beta   90.207116
_cell_angle_gamma 119.95189
loop_
_atom_site_label
_atom_site_type_symbol
_atom_site_fract_x
_atom_site_fract_y
_atom_site_fract_z
_atom_type_partial_charge
H0 H 0.25159 0.15911 0.44156 0.0
H1 H 0.24672 0.09055 0.44267 0.0
H2 H 0.21617 0.10882 0.40574 0.0
C3 C 0.24556 0.14187 0.43643 0.0
C4 C 0.23356 0.13632 0.42254 0.0
C5 C 0.24964 0.12514 0.44391 0.0
C6 C 0.24264 0.10305 0.43715 0.0
C7 C 0.23118 0.09734 0.42317 0.0
C8 C 0.22622 0.11382 0.41614 0.0
H9 H 0.864 0.08882 0.4428 0.0
H10 H 0.92749 0.15836 0.43983 0.0
H11 H 0.90754 0.10888 0.40322 0.0
C12 C 0.87985 0.1016 0.43667 0.0
C13 C 0.88362 0.09618 0.42211 0.0
C14 C 0.89575 0.12387 0.44319 0.0
C15 C 0.91555 0.14101 0.43492 0.0
C16 C 0.91991 0.1359 0.42038 0.0
C17 C 0.90397 0.1133 0.4142 0.0
H18 H 0.85455 0.77511 0.43967 0.0
H19 H 0.92243 0.77536 0.44026 0.0
H20 H 0.9012 0.79962 0.40143 0.0
C21 C 0.87128 0.7789 0.43419 0.0
C22 C 0.87589 0.78829 0.41969 0.0
C23 C 0.8879 0.77412 0.44171 0.0
C24 C 0.90956 0.77892 0.43449 0.0
C25 C 0.9146 0.78799 0.41988 0.0
C26 C 0.8976 0.79267 0.41264 0.0
H27 H 0.08695 0.23135 0.57289 0.0
H28 H 0.1527 0.22777 0.57118 0.0
H29 H 0.10903 0.20593 0.61075 0.0
C30 C 0.09952 0.2269 0.57819 0.0
C31 C 0.09499 0.21774 0.59279 0.0
C32 C 0.1202 0.23045 0.57028 0.0
C33 C 0.13679 0.22506 0.57725 0.0
C34 C 0.13322 0.21653 0.59197 0.0
C35 C 0.11209 0.21271 0.59952 0.0
H36 H 0.7544 0.91065 0.57085 0.0
H37 H 0.75362 0.84372 0.57084 0.0
H38 H 0.78658 0.893 0.60724 0.0
C39 C 0.75896 0.89834 0.57613 0.0
C40 C 0.77122 0.90445 0.58989 0.0
C41 C 0.75251 0.87647 0.56915 0.0
C42 C 0.75854 0.86064 0.57611 0.0
C43 C 0.77087 0.86647 0.58986 0.0
C44 C 0.77712 0.88841 0.59663 0.0
H45 H 0.07971 0.84406 0.57195 0.0
H46 H 0.14717 0.91069 0.57116 0.0
H47 H 0.1024 0.89051 0.61027 0.0
C48 C 0.09275 0.86054 0.57742 0.0
C49 C 0.0883 0.86541 0.59199 0.0
C50 C 0.11409 0.87668 0.56992 0.0
C51 C 0.13096 0.89799 0.57706 0.0
C52 C 0.12684 0.90331 0.59156 0.0
C53 C 0.1054 0.88691 0.59892 0.0
H54 H 0.89785 0.48248 0.77669 0.0
H55 H 0.90216 0.41812 0.77839 0.0
H56 H 0.87317 0.43386 0.7395 0.0
C57 C 0.89477 0.46597 0.7716 0.0
C58 C 0.88483 0.45996 0.75719 0.0
C59 C 0.90108 0.45098 0.77935 0.0
C60 C 0.89714 0.42972 0.77257 0.0
C61 C 0.88691 0.42337 0.75827 0.0
C62 C 0.88083 0.43857 0.75062 0.0
H63 H 0.52509 0.42674 0.77421 0.0
H64 H 0.59219 0.49326 0.77167 0.0
H65 H 0.5713 0.4424 0.7359 0.0
C66 C 0.54176 0.43827 0.76831 0.0
C67 C 0.54603 0.43136 0.75428 0.0
C68 C 0.55842 0.46032 0.77477 0.0
C69 C 0.57924 0.4762 0.76676 0.0
C70 C 0.58387 0.4699 0.75266 0.0
C71 C 0.56742 0.44733 0.74664 0.0
H72 H 0.52145 0.10062 0.76989 0.0
H73 H 0.58771 0.09797 0.76933 0.0
H74 H 0.5687 0.12709 0.73193 0.0
C75 C 0.53816 0.10458 0.7643 0.0
C76 C 0.54277 0.1142 0.74985 0.0
C77 C 0.55444 0.09898 0.77145 0.0
C78 C 0.57552 0.10284 0.76392 0.0
C79 C 0.58092 0.11288 0.74956 0.0
C80 C 0.56445 0.11868 0.74274 0.0
H81 H 0.7532 0.56217 0.905 0.0
H82 H 0.81966 0.55964 0.90404 0.0
H83 H 0.77446 0.53603 0.94291 0.0
C84 C 0.76565 0.55751 0.91027 0.0
C85 C 0.76085 0.54813 0.92481 0.0
C86 C 0.78695 0.56199 0.90272 0.0
C87 C 0.80353 0.5568 0.9099 0.0
C88 C 0.79934 0.54756 0.92443 0.0
C89 C 0.77785 0.54316 0.93173 0.0
H90 H 0.41929 0.24088 0.90766 0.0
H91 H 0.4214 0.17551 0.90523 0.0
H92 H 0.45036 0.2211 0.94367 0.0
C93 C 0.42411 0.2285 0.91257 0.0
C94 C 0.4355 0.23357 0.92659 0.0
C95 C 0.41901 0.20764 0.90478 0.0
C96 C 0.42527 0.19163 0.9112 0.0
C97 C 0.4365 0.19631 0.92527 0.0
C98 C 0.44159 0.21734 0.93285 0.0
H99 H 0.74732 0.17615 0.9065 0.0
H100 H 0.81296 0.24454 0.90499 0.0
H101 H 0.7701 0.22268 0.94478 0.0
C102 C 0.75997 0.193 0.91174 0.0
C103 C 0.75596 0.19749 0.92652 0.0
C104 C 0.78072 0.20971 0.90392 0.0
C105 C 0.79731 0.2312 0.91103 0.0
C106 C 0.79373 0.23598 0.92576 0.0
C107 C 0.77296 0.21907 0.93341 0.0
H108 H 0.56962 0.81491 0.10994 0.0
H109 H 0.56866 0.74825 0.114 0.0
H110 H 0.53753 0.76181 0.07529 0.0
C111 C 0.56452 0.79741 0.10552 0.0
C112 C 0.55267 0.79019 0.09165 0.0
C113 C 0.57009 0.78228 0.1137 0.0
C114 C 0.56403 0.75985 0.10783 0.0
C115 C 0.55246 0.75243 0.09394 0.0
C116 C 0.54654 0.76755 0.086 0.0
H117 H 0.19555 0.75226 0.10922 0.0
H118 H 0.26279 0.81916 0.10916 0.0
H119 H 0.24329 0.77159 0.07156 0.0
C120 C 0.21241 0.76463 0.10377 0.0
C121 C 0.21754 0.75909 0.08959 0.0
C122 C 0.22865 0.78618 0.11093 0.0
C123 C 0.25031 0.80242 0.10374 0.0
C124 C 0.2557 0.79738 0.08946 0.0
C125 C 0.23928 0.77557 0.08255 0.0
H126 H 0.19331 0.4426 0.10768 0.0
H127 H 0.26041 0.44152 0.10587 0.0
H128 H 0.23819 0.46861 0.06881 0.0
C129 C 0.20973 0.44641 0.10177 0.0
C130 C 0.21352 0.45587 0.08731 0.0
C131 C 0.22668 0.44142 0.10862 0.0
C132 C 0.24771 0.44595 0.10073 0.0
C133 C 0.25236 0.45594 0.08633 0.0
C134 C 0.23509 0.46098 0.07983 0.0
H135 H 0.4172 0.90076 0.2399 0.0
H136 H 0.48508 0.90063 0.24009 0.0
H137 H 0.43935 0.87756 0.27876 0.0
C138 C 0.43014 0.89705 0.24546 0.0
C139 C 0.42558 0.88851 0.26019 0.0
C140 C 0.45172 0.9018 0.2381 0.0
C141 C 0.46855 0.89729 0.24565 0.0
C142 C 0.46438 0.88867 0.26035 0.0
C143 C 0.44292 0.88454 0.26754 0.0
H144 H 0.09952 0.58369 0.23365 0.0
H145 H 0.09678 0.51603 0.23589 0.0
H146 H 0.12645 0.56552 0.2725 0.0
C147 C 0.10283 0.57113 0.23973 0.0
C148 C 0.1139 0.57739 0.25383 0.0
C149 C 0.09633 0.54893 0.23326 0.0
C150 C 0.1016 0.53311 0.24089 0.0
C151 C 0.11279 0.53907 0.25499 0.0
C152 C 0.11873 0.5612 0.2614 0.0
H153 H 0.41191 0.51456 0.23755 0.0
H154 H 0.47793 0.58274 0.23739 0.0
H155 H 0.43468 0.5585 0.27694 0.0
C156 C 0.42479 0.53089 0.2432 0.0
C157 C 0.42039 0.5347 0.25803 0.0
C158 C 0.44571 0.54795 0.23566 0.0
C159 C 0.46221 0.56906 0.2432 0.0
C160 C 0.45843 0.57302 0.25807 0.0
C161 C 0.43742 0.55579 0.26537 0.0
Eu162 Eu 0.49276 0.9796 0.98644 0.0
C163 C 0.54586 0.06979 0.02656 0.0
C164 C 0.58821 0.08017 0.02572 0.0
C165 C 0.57772 0.11137 0.02854 0.0
C166 C 0.56322 0.06294 0.02517 0.0
C167 C 0.55288 0.09402 0.02857 0.0
C168 C 0.59536 0.10446 0.0271 0.0
C169 C 0.51036 0.08195 0.03152 0.0
N170 N 0.52206 0.05259 0.02657 0.0
C171 C 0.50433 0.05814 0.02953 0.0
C172 C 0.53473 0.10001 0.03086 0.0
Eu173 Eu 0.51313 0.01293 0.02213 0.0
N174 N 0.55567 0.03934 0.02389 0.0
C175 C 0.57214 0.03159 0.02423 0.0
C176 C 0.60523 0.07241 0.0252 0.0
C177 C 0.59714 0.04799 0.02467 0.0
H178 H 0.48545 0.04422 0.0299 0.0
H179 H 0.61014 0.04177 0.02453 0.0
H180 H 0.61447 0.11798 0.02739 0.0
H181 H 0.49622 0.08635 0.0335 0.0
H182 H 0.56615 0.01277 0.02371 0.0
H183 H 0.39516 0.94981 0.98533 0.0
H184 H 0.6246 0.08508 0.02552 0.0
H185 H 0.52076 0.94896 0.97592 0.0
H186 H 0.43859 0.97909 0.98667 0.0
H187 H 0.50968 0.90754 0.96996 0.0
H188 H 0.58349 0.13012 0.02993 0.0
H189 H 0.38148 0.90686 0.98247 0.0
H190 H 0.39195 0.87473 0.97939 0.0
H191 H 0.53937 0.11843 0.03243 0.0
H192 H 0.423 0.86323 0.97522 0.0
N193 N 0.45011 0.95322 0.98538 0.0
C194 C 0.43325 0.96053 0.9856 0.0
C195 C 0.40073 0.91969 0.98333 0.0
C196 C 0.41801 0.91237 0.98228 0.0
C197 C 0.40838 0.94389 0.98484 0.0
C198 C 0.44296 0.92978 0.98311 0.0
H199 H 0.46671 0.87534 0.97132 0.0
N200 N 0.48441 0.9405 0.98052 0.0
C201 C 0.49569 0.91169 0.97297 0.0
C202 C 0.46054 0.92326 0.98067 0.0
C203 C 0.50185 0.93522 0.97618 0.0
C204 C 0.47144 0.89357 0.97384 0.0
C205 C 0.45347 0.89924 0.97747 0.0
O206 O 0.51118 0.00575 0.96864 0.0
O207 O 0.52284 0.00956 0.99876 0.0
O208 O 0.50932 0.03613 0.0048 0.0
O209 O 0.48004 0.00668 0.98943 0.0
O210 O 0.5327 0.99032 0.98479 0.0
O211 O 0.47968 0.97229 0.96334 0.0
O212 O 0.49459 0.00858 0.04337 0.0
O213 O 0.48329 0.98145 0.01019 0.0
O214 O 0.50181 0.95711 1.00166 0.0
O215 O 0.52272 0.98343 0.02139 0.0
O216 O 0.47283 0.00029 0.02391 0.0
O217 O 0.52511 0.00251 0.04217 0.0
C218 C 0.54091 0.00854 0.99372 0.0
C219 C 0.50947 0.99003 0.94463 0.0
C220 C 0.51875 0.99658 0.91796 0.0
C221 C 0.5074 0.99924 0.9308 0.0
C222 C 0.53193 0.98442 0.91931 0.0
C223 C 0.52318 0.97854 0.94557 0.0
C224 C 0.53406 0.97549 0.93298 0.0
C225 C 0.49244 0.02903 0.99429 0.0
C226 C 0.4972 0.9921 0.95804 0.0
C227 C 0.42871 0.88177 0.97749 0.0
C228 C 0.41103 0.88832 0.97987 0.0
C229 C 0.46499 0.98165 0.01551 0.0
C230 C 0.51752 0.01475 0.06543 0.0
C231 C 0.50944 0.00106 0.07856 0.0
C232 C 0.51779 0.0119 0.09266 0.0
C233 C 0.5341 0.0367 0.0933 0.0
C234 C 0.53384 0.03934 0.06644 0.0
C235 C 0.54201 0.05022 0.08031 0.0
C236 C 0.51475 0.96296 0.01415 0.0
C237 C 0.50893 0.00322 0.05076 0.0
H238 H 0.49685 0.00819 0.93005 0.0
H239 H 0.54133 0.98241 0.90987 0.0
H240 H 0.5256 0.97203 0.95607 0.0
H241 H 0.54458 0.96653 0.93386 0.0
H242 H 0.497 0.98199 0.07775 0.0
H243 H 0.54056 0.04576 0.10389 0.0
H244 H 0.54025 0.05011 0.0565 0.0
H245 H 0.55453 0.06925 0.081 0.0
Eu246 Eu 0.0235 0.50589 0.98925 0.0
C247 C 0.92705 0.46751 0.02446 0.0
C248 C 0.91569 0.49785 0.02113 0.0
C249 C 0.88429 0.45633 0.02412 0.0
C250 C 0.93366 0.49113 0.02221 0.0
C251 C 0.90232 0.4499 0.02577 0.0
C252 C 0.89097 0.48026 0.02177 0.0
C253 C 0.91517 0.42128 0.03138 0.0
N254 N 0.94491 0.46192 0.02604 0.0
C255 C 0.93944 0.43939 0.03002 0.0
C256 C 0.8965 0.42649 0.02906 0.0
Eu257 Eu 0.98545 0.49319 0.0227 0.0
N258 N 0.95771 0.50766 0.02165 0.0
C259 C 0.96507 0.53143 0.02111 0.0
C260 C 0.92312 0.52209 0.01974 0.0
C261 C 0.94793 0.53897 0.01994 0.0
H262 H 0.95385 0.4353 0.03169 0.0
H263 H 0.95387 0.5578 0.01912 0.0
H264 H 0.87689 0.48505 0.0208 0.0
H265 H 0.91087 0.40332 0.03418 0.0
H266 H 0.98417 0.54466 0.02115 0.0
H267 H 0.0562 0.44226 0.98937 0.0
H268 H 0.90989 0.52798 0.0188 0.0
H269 H 0.05364 0.56415 0.98089 0.0
H270 H 0.02575 0.45504 0.99054 0.0
H271 H 0.09597 0.59635 0.97673 0.0
H272 H 0.86517 0.44302 0.02493 0.0
H273 H 0.09995 0.47228 0.98675 0.0
H274 H 0.13232 0.51526 0.98426 0.0
H275 H 0.87771 0.41244 0.03015 0.0
H276 H 0.14316 0.55721 0.981 0.0
N277 N 0.05173 0.49209 0.98896 0.0
C278 C 0.04469 0.4684 0.9895 0.0
C279 C 0.0866 0.47804 0.98748 0.0
C280 C 0.09367 0.50223 0.98655 0.0
C281 C 0.06198 0.46105 0.98888 0.0
C282 C 0.07552 0.50877 0.98715 0.0
H283 H 0.12972 0.58757 0.97803 0.0
N284 N 0.06348 0.53767 0.98499 0.0
C285 C 0.0922 0.57844 0.97916 0.0
C286 C 0.08161 0.53231 0.98522 0.0
C287 C 0.06826 0.56017 0.9815 0.0
C288 C 0.1112 0.57342 0.97994 0.0
C289 C 0.10601 0.55006 0.98276 0.0
O290 O 0.01735 0.51703 0.96759 0.0
O291 O 0.99011 0.50344 0.99891 0.0
O292 O 0.9635 0.46499 0.00552 0.0
O293 O 0.99466 0.46626 0.99116 0.0
O294 O 0.01019 0.53227 0.9854 0.0
O295 O 0.01618 0.48307 0.96971 0.0
O296 O 0.98821 0.48121 0.04491 0.0
O297 O 0.0188 0.49537 0.01307 0.0
O298 O 0.04599 0.53383 0.00643 0.0
O299 O 0.01512 0.53261 0.02113 0.0
O300 O 0.99918 0.46721 0.02713 0.0
O301 O 0.99284 0.51654 0.04193 0.0
C302 C 0.99042 0.52124 0.993 0.0
C303 C 0.02802 0.50286 0.94658 0.0
C304 C 0.02691 0.50468 0.91957 0.0
C305 C 0.01496 0.49924 0.93332 0.0
C306 C 0.05224 0.51386 0.91925 0.0
C307 C 0.05323 0.51184 0.94613 0.0
C308 C 0.06526 0.51731 0.93249 0.0
C309 C 0.97159 0.45571 0.99546 0.0
C310 C 0.01506 0.49828 0.96069 0.0
C311 C 0.12429 0.54381 0.98277 0.0
C312 C 0.11812 0.51993 0.98463 0.0
C313 C 0.01864 0.47775 0.01919 0.0
C314 C 0.97653 0.49709 0.0647 0.0
C315 C 0.98736 0.50011 0.07873 0.0
C316 C 0.97369 0.49635 0.09175 0.0
C317 C 0.94893 0.48959 0.09046 0.0
C318 C 0.95187 0.49041 0.0636 0.0
C319 C 0.93815 0.48669 0.07645 0.0
C320 C 0.03811 0.54313 0.01663 0.0
C321 C 0.99124 0.50057 0.05141 0.0
H322 H 0.99551 0.4926 0.93375 0.0
H323 H 0.06187 0.51806 0.90878 0.0
H324 H 0.06357 0.51476 0.95628 0.0
H325 H 0.08473 0.52428 0.93217 0.0
H326 H 0.00655 0.50565 0.07945 0.0
H327 H 0.93782 0.48627 0.10026 0.0
H328 H 0.94324 0.48807 0.05286 0.0
H329 H 0.91909 0.48145 0.07555 0.0
Eu330 Eu 0.51673 0.49364 0.02401 0.0
C331 C 0.46548 0.53367 0.98416 0.0
C332 C 0.42264 0.50393 0.98534 0.0
C333 C 0.4349 0.54576 0.98206 0.0
C334 C 0.44736 0.51013 0.98579 0.0
C335 C 0.45946 0.55171 0.98201 0.0
C336 C 0.41653 0.52191 0.98373 0.0
C337 C 0.50235 0.57989 0.97893 0.0
N338 N 0.48901 0.53881 0.98412 0.0
C339 C 0.50739 0.56136 0.98102 0.0
C340 C 0.4783 0.57511 0.97958 0.0
Eu341 Eu 0.49613 0.50677 0.98869 0.0
N342 N 0.45389 0.49319 0.9873 0.0
C343 C 0.43661 0.46955 0.98748 0.0
C344 C 0.40482 0.47979 0.98626 0.0
C345 C 0.41185 0.46251 0.98715 0.0
H346 H 0.52601 0.56514 0.98062 0.0
H347 H 0.39822 0.44378 0.98766 0.0
H348 H 0.39764 0.51752 0.9835 0.0
H349 H 0.51701 0.59785 0.97684 0.0
H350 H 0.44179 0.45603 0.98827 0.0
H351 H 0.61443 0.55621 0.02774 0.0
H352 H 0.38563 0.47429 0.98602 0.0
H353 H 0.48549 0.43514 0.03165 0.0
H354 H 0.57144 0.54372 0.02311 0.0
H355 H 0.49348 0.40304 0.03921 0.0
H356 H 0.42991 0.55939 0.98055 0.0
H357 H 0.62603 0.52645 0.03512 0.0
H358 H 0.61292 0.48405 0.04196 0.0
H359 H 0.47444 0.58948 0.97791 0.0
H360 H 0.58039 0.4423 0.04425 0.0
N361 N 0.55875 0.5068 0.02666 0.0
C362 C 0.5762 0.53034 0.02588 0.0
C363 C 0.60714 0.52068 0.03267 0.0
C364 C 0.58909 0.49669 0.03396 0.0
C365 C 0.60065 0.53756 0.02858 0.0
C366 C 0.56475 0.49018 0.03072 0.0
H367 H 0.53585 0.41187 0.04311 0.0
N368 N 0.52298 0.46163 0.03045 0.0
C369 C 0.50852 0.4209 0.03739 0.0
C370 C 0.54631 0.46686 0.0326 0.0
C371 C 0.50407 0.43915 0.03309 0.0
C372 C 0.53245 0.42594 0.03952 0.0
C373 C 0.55168 0.44921 0.03738 0.0
O374 O 0.49841 0.48299 0.04549 0.0
O375 O 0.48691 0.49584 0.01229 0.0
O376 O 0.5001 0.53412 0.00574 0.0
O377 O 0.52923 0.53322 0.02105 0.0
O378 O 0.47626 0.46728 0.02621 0.0
O379 O 0.52928 0.51857 0.04273 0.0
O380 O 0.51426 0.51874 0.96726 0.0
O381 O 0.52573 0.50386 1.00026 0.0
O382 O 0.51247 0.46563 0.00738 0.0
O383 O 0.48474 0.46727 0.99095 0.0
O384 O 0.53686 0.53267 0.98643 0.0
O385 O 0.48175 0.48403 0.96896 0.0
C386 C 0.46846 0.47799 0.01765 0.0
C387 C 0.52189 0.50218 0.06686 0.0
C388 C 0.5201 0.50667 0.09372 0.0
C389 C 0.51163 0.507 0.07928 0.0
C390 C 0.53886 0.50123 0.09552 0.0
C391 C 0.54052 0.49674 0.06888 0.0
C392 C 0.54892 0.49624 0.08317 0.0
C393 C 0.51674 0.54338 0.01637 0.0
C394 C 0.51316 0.50331 0.05191 0.0
C395 C 0.57591 0.45551 0.04038 0.0
C396 C 0.5945 0.47927 0.03891 0.0
C397 C 0.54434 0.52162 0.99497 0.0
C398 C 0.48928 0.50418 0.94596 0.0
C399 C 0.49854 0.50112 0.93248 0.0
C400 C 0.49099 0.506 0.91882 0.0
C401 C 0.47397 0.51393 0.9189 0.0
C402 C 0.47224 0.51198 0.94579 0.0
C403 C 0.46464 0.51683 0.9323 0.0
C404 C 0.49597 0.45636 0.99662 0.0
C405 C 0.4981 0.49982 0.9601 0.0
H406 H 0.49739 0.51144 0.07766 0.0
H407 H 0.54559 0.50059 0.1065 0.0
H408 H 0.54861 0.493 0.05944 0.0
H409 H 0.5633 0.49201 0.08468 0.0
H410 H 0.5119 0.49531 0.93265 0.0
H411 H 0.46758 0.51755 0.90858 0.0
H412 H 0.46486 0.51437 0.95603 0.0
H413 H 0.45147 0.52283 0.93224 0.0
Eu414 Eu 0.15777 0.31833 0.32122 0.0
C415 C 0.21214 0.40889 0.36269 0.0
C416 C 0.25467 0.42037 0.36057 0.0
C417 C 0.2434 0.4506 0.36541 0.0
C418 C 0.2298 0.40274 0.36026 0.0
C419 C 0.21872 0.43283 0.36556 0.0
C420 C 0.26135 0.44438 0.36289 0.0
C421 C 0.17613 0.41962 0.36941 0.0
N422 N 0.18851 0.39129 0.36277 0.0
C423 C 0.17054 0.39615 0.36654 0.0
C424 C 0.20031 0.4381 0.36877 0.0
Eu425 Eu 0.1802 0.35222 0.35682 0.0
N426 N 0.22269 0.37938 0.35807 0.0
C427 C 0.2396 0.37223 0.35714 0.0
C428 C 0.27206 0.41326 0.35881 0.0
C429 C 0.26448 0.38904 0.35729 0.0
H430 H 0.1518 0.38197 0.36694 0.0
H431 H 0.27779 0.38331 0.35616 0.0
H432 H 0.28035 0.4582 0.36304 0.0
H433 H 0.16179 0.42346 0.37208 0.0
H434 H 0.23404 0.35361 0.35586 0.0
H435 H 0.06108 0.29071 0.3177 0.0
H436 H 0.29135 0.42626 0.35891 0.0
H437 H 0.18532 0.28682 0.31373 0.0
H438 H 0.10496 0.31908 0.32019 0.0
H439 H 0.17428 0.24498 0.30871 0.0
H440 H 0.24882 0.46912 0.36746 0.0
H441 H 0.04633 0.24763 0.31426 0.0
H442 H 0.0561 0.2147 0.31105 0.0
H443 H 0.2046 0.45627 0.37102 0.0
H444 H 0.08683 0.20223 0.30871 0.0
N445 N 0.11523 0.29244 0.31848 0.0
C446 C 0.09892 0.30041 0.31863 0.0
C447 C 0.06569 0.26004 0.31532 0.0
C448 C 0.08254 0.2521 0.31455 0.0
C449 C 0.07395 0.28434 0.31724 0.0
C450 C 0.10753 0.26899 0.31607 0.0
H451 H 0.13091 0.21339 0.30772 0.0
N452 N 0.14861 0.2788 0.31595 0.0
C453 C 0.16017 0.24948 0.31048 0.0
C454 C 0.12476 0.26193 0.31485 0.0
C455 C 0.16635 0.27314 0.31329 0.0
C456 C 0.13567 0.2317 0.30995 0.0
C457 C 0.11759 0.23786 0.31194 0.0
O458 O 0.17714 0.32463 0.30016 0.0
O459 O 0.18805 0.34937 0.33297 0.0
O460 O 0.17549 0.37605 0.34049 0.0
O461 O 0.14766 0.34759 0.32379 0.0
O462 O 0.19789 0.33035 0.319 0.0
O463 O 0.14613 0.32995 0.30153 0.0
O464 O 0.16156 0.34413 0.37824 0.0
O465 O 0.14967 0.3217 0.34486 0.0
O466 O 0.16139 0.29443 0.33833 0.0
O467 O 0.19109 0.32384 0.35356 0.0
O468 O 0.1401 0.3402 0.35947 0.0
O469 O 0.19388 0.34125 0.37586 0.0
C470 C 0.20611 0.34899 0.32743 0.0
C471 C 0.15478 0.31914 0.27807 0.0
C472 C 0.15808 0.32275 0.25094 0.0
C473 C 0.16452 0.33318 0.26525 0.0
C474 C 0.14142 0.29811 0.24975 0.0
C475 C 0.1382 0.29466 0.27657 0.0
C476 C 0.13153 0.28426 0.26247 0.0
C477 C 0.15933 0.36949 0.32955 0.0
C478 C 0.16271 0.33003 0.29292 0.0
C479 C 0.09271 0.22085 0.31082 0.0
C480 C 0.07522 0.22795 0.31214 0.0
C481 C 0.13173 0.32229 0.35043 0.0
C482 C 0.18522 0.35027 0.39984 0.0
C483 C 0.17631 0.33579 0.41259 0.0
C484 C 0.18305 0.34593 0.42696 0.0
C485 C 0.1991 0.37067 0.4283 0.0
C486 C 0.20121 0.37485 0.4015 0.0
C487 C 0.20814 0.38494 0.41567 0.0
C488 C 0.17834 0.30145 0.34884 0.0
C489 C 0.17714 0.3397 0.38493 0.0
H490 H 0.17743 0.35207 0.26643 0.0
H491 H 0.13579 0.28957 0.23895 0.0
H492 H 0.13053 0.28361 0.28628 0.0
H493 H 0.11869 0.26534 0.26138 0.0
H494 H 0.16377 0.31681 0.41131 0.0
H495 H 0.20488 0.37899 0.43916 0.0
H496 H 0.20824 0.38622 0.39184 0.0
H497 H 0.22051 0.40394 0.41687 0.0
Eu498 Eu 0.68718 0.84269 0.32373 0.0
C499 C 0.59002 0.80529 0.3579 0.0
C500 C 0.58024 0.83683 0.35509 0.0
C501 C 0.5477 0.79559 0.35715 0.0
C502 C 0.59754 0.82922 0.35611 0.0
C503 C 0.56503 0.78826 0.35883 0.0
C504 C 0.55529 0.81983 0.35526 0.0
C505 C 0.57626 0.75837 0.36423 0.0
N506 N 0.60722 0.79882 0.35954 0.0
C507 C 0.60082 0.77594 0.36325 0.0
C508 C 0.55827 0.76449 0.3618 0.0
Eu509 Eu 0.64829 0.82928 0.35697 0.0
N510 N 0.62178 0.84519 0.35604 0.0
C511 C 0.62996 0.86914 0.35613 0.0
C512 C 0.58855 0.86132 0.35429 0.0
C513 C 0.61351 0.87755 0.35505 0.0
H514 H 0.61473 0.77116 0.36499 0.0
H515 H 0.62011 0.89655 0.35472 0.0
H516 H 0.54173 0.82531 0.3543 0.0
H517 H 0.57122 0.74013 0.36679 0.0
H518 H 0.6492 0.88187 0.35656 0.0
H519 H 0.71658 0.77643 0.32423 0.0
H520 H 0.57585 0.86789 0.35342 0.0
H521 H 0.7191 0.89998 0.31384 0.0
H522 H 0.68729 0.79066 0.32495 0.0
H523 H 0.76199 0.93122 0.31 0.0
H524 H 0.5284 0.78274 0.35766 0.0
H525 H 0.76077 0.80533 0.32238 0.0
H526 H 0.79439 0.84788 0.32063 0.0
H527 H 0.53926 0.75086 0.36259 0.0
H528 H 0.80684 0.8902 0.31711 0.0
N529 N 0.71434 0.82748 0.324 0.0
C530 C 0.70643 0.80358 0.3243 0.0
C531 C 0.74793 0.81172 0.32301 0.0
C532 C 0.75592 0.83613 0.3223 0.0
C533 C 0.72305 0.79538 0.32394 0.0
C534 C 0.73842 0.84353 0.32261 0.0
H535 H 0.79486 0.92142 0.31292 0.0
N536 N 0.72782 0.87327 0.31964 0.0
C537 C 0.75762 0.91334 0.31306 0.0
C538 C 0.74541 0.86724 0.32054 0.0
C539 C 0.73338 0.89564 0.31525 0.0
C540 C 0.77612 0.90776 0.31477 0.0
C541 C 0.77009 0.88434 0.31821 0.0
O542 O 0.68315 0.85488 0.30183 0.0
O543 O 0.65395 0.84074 0.33336 0.0
O544 O 0.62633 0.80203 0.33931 0.0
O545 O 0.6575 0.80325 0.32503 0.0
O546 O 0.67452 0.8696 0.31996 0.0
O547 O 0.67879 0.81964 0.30422 0.0
O548 O 0.6491 0.81526 0.3789 0.0
O549 O 0.68191 0.83161 0.34753 0.0
O550 O 0.70927 0.87176 0.34047 0.0
O551 O 0.67901 0.86824 0.35694 0.0
O552 O 0.6612 0.80261 0.36086 0.0
O553 O 0.65546 0.85137 0.37681 0.0
C554 C 0.65481 0.85892 0.32763 0.0
C555 C 0.69383 0.83937 0.28138 0.0
C556 C 0.69512 0.83951 0.2543 0.0
C557 C 0.68208 0.8356 0.2676 0.0
C558 C 0.72018 0.8474 0.255 0.0
C559 C 0.71878 0.84701 0.28191 0.0
C560 C 0.73188 0.85106 0.26875 0.0
C561 C 0.63438 0.79282 0.32919 0.0
C562 C 0.6798 0.83566 0.29502 0.0
C563 C 0.78776 0.8773 0.31874 0.0
C564 C 0.78067 0.85321 0.32073 0.0
C565 C 0.68114 0.81353 0.3534 0.0
C566 C 0.63766 0.83081 0.39905 0.0
C567 C 0.64814 0.83372 0.4132 0.0
C568 C 0.6342 0.83009 0.42609 0.0
C569 C 0.60952 0.82352 0.42455 0.0
C570 C 0.61309 0.82434 0.39771 0.0
C571 C 0.5991 0.8207 0.41043 0.0
C572 C 0.70146 0.8797 0.35153 0.0
C573 C 0.65271 0.83448 0.38588 0.0
H574 H 0.66283 0.82991 0.26724 0.0
H575 H 0.73062 0.85037 0.24492 0.0
H576 H 0.7281 0.84987 0.29242 0.0
H577 H 0.75115 0.85698 0.26922 0.0
H578 H 0.66728 0.83912 0.41413 0.0
H579 H 0.5982 0.8203 0.43423 0.0
H580 H 0.60474 0.82212 0.3869 0.0
H581 H 0.58009 0.81562 0.40934 0.0
Eu582 Eu 0.17757 0.82753 0.35606 0.0
C583 C 0.12942 0.87179 0.31549 0.0
C584 C 0.08639 0.84312 0.31661 0.0
C585 C 0.09985 0.88498 0.31232 0.0
C586 C 0.11085 0.84865 0.31754 0.0
C587 C 0.12416 0.89014 0.31244 0.0
C588 C 0.08097 0.86148 0.31441 0.0
C589 C 0.16707 0.91659 0.30816 0.0
N590 N 0.15261 0.87602 0.3154 0.0
C591 C 0.17131 0.89775 0.31118 0.0
C592 C 0.14343 0.91288 0.30903 0.0
Eu593 Eu 0.15861 0.84359 0.32109 0.0
N594 N 0.11668 0.83129 0.31941 0.0
C595 C 0.09893 0.8078 0.31932 0.0
C596 C 0.06812 0.8192 0.31735 0.0
C597 C 0.07438 0.80141 0.31853 0.0
H598 H 0.18963 0.90075 0.31052 0.0
H599 H 0.06033 0.7828 0.3188 0.0
H600 H 0.06224 0.85757 0.31384 0.0
H601 H 0.18204 0.93395 0.30518 0.0
H602 H 0.10358 0.79391 0.3202 0.0
H603 H 0.27539 0.89048 0.35898 0.0
H604 H 0.04924 0.81433 0.31648 0.0
H605 H 0.14747 0.76873 0.36288 0.0
H606 H 0.23181 0.87822 0.35804 0.0
H607 H 0.15638 0.73588 0.366 0.0
H608 H 0.09543 0.89887 0.31016 0.0
H609 H 0.28797 0.8599 0.35966 0.0
H610 H 0.27592 0.81652 0.361 0.0
H611 H 0.14017 0.92746 0.30661 0.0
H612 H 0.24357 0.77447 0.36293 0.0
N613 N 0.21975 0.84104 0.3579 0.0
C614 C 0.237 0.86468 0.35843 0.0
C615 C 0.26879 0.8544 0.3593 0.0
C616 C 0.25095 0.83021 0.35956 0.0
C617 C 0.26176 0.87171 0.35894 0.0
C618 C 0.22625 0.82403 0.35897 0.0
H619 H 0.19894 0.74422 0.36496 0.0
N620 N 0.18458 0.79526 0.35995 0.0
C621 C 0.17109 0.75391 0.36424 0.0
C622 C 0.2081 0.8004 0.36002 0.0
C623 C 0.16611 0.77255 0.36254 0.0
C624 C 0.19514 0.7587 0.36363 0.0
C625 C 0.21405 0.78223 0.36172 0.0
O626 O 0.1583 0.81398 0.377 0.0
O627 O 0.1484 0.8315 0.3446 0.0
O628 O 0.16505 0.87253 0.33763 0.0
O629 O 0.18868 0.86697 0.3556 0.0
O630 O 0.13703 0.80127 0.3573 0.0
O631 O 0.191 0.84872 0.37645 0.0
O632 O 0.17832 0.85433 0.30006 0.0
O633 O 0.18767 0.84016 0.33283 0.0
O634 O 0.17414 0.80138 0.33834 0.0
O635 O 0.14615 0.80377 0.32269 0.0
O636 O 0.19926 0.8697 0.31963 0.0
O637 O 0.14434 0.82097 0.30129 0.0
C638 C 0.12972 0.81311 0.34938 0.0
C639 C 0.18152 0.82741 0.39906 0.0
C640 C 0.18041 0.8281 0.42624 0.0
C641 C 0.1741 0.83343 0.4123 0.0
C642 C 0.19438 0.81666 0.42662 0.0
C643 C 0.19556 0.81621 0.39971 0.0
C644 C 0.20194 0.81088 0.41345 0.0
C645 C 0.17938 0.87937 0.34953 0.0
C646 C 0.17393 0.83246 0.38473 0.0
C647 C 0.23862 0.78819 0.36177 0.0
C648 C 0.25703 0.81213 0.36068 0.0
C649 C 0.20648 0.8583 0.32803 0.0
C650 C 0.15478 0.84077 0.27817 0.0
C651 C 0.16238 0.83443 0.26513 0.0
C652 C 0.15622 0.83941 0.25103 0.0
C653 C 0.1424 0.85099 0.25029 0.0
C654 C 0.14083 0.85203 0.27716 0.0
C655 C 0.13473 0.85714 0.26327 0.0
C656 C 0.15804 0.79298 0.32738 0.0
C657 C 0.16189 0.83586 0.29272 0.0
H658 H 0.16356 0.84242 0.41167 0.0
H659 H 0.19922 0.81184 0.4371 0.0
H660 H 0.20144 0.81149 0.38963 0.0
H661 H 0.21264 0.80207 0.41389 0.0
H662 H 0.17285 0.82538 0.26602 0.0
H663 H 0.13773 0.85557 0.23968 0.0
H664 H 0.13474 0.85693 0.28707 0.0
H665 H 0.12411 0.86601 0.26255 0.0
Eu666 Eu 0.8246 0.65096 0.65453 0.0
C667 C 0.87938 0.74141 0.69562 0.0
C668 C 0.92187 0.75255 0.69392 0.0
C669 C 0.91082 0.78308 0.69813 0.0
C670 C 0.89696 0.73504 0.69351 0.0
C671 C 0.88608 0.76543 0.69825 0.0
C672 C 0.92869 0.77665 0.69595 0.0
C673 C 0.84352 0.75253 0.70193 0.0
N674 N 0.85571 0.72392 0.69571 0.0
C675 C 0.83781 0.72896 0.69932 0.0
C676 C 0.86774 0.7709 0.70123 0.0
Eu677 Eu 0.84723 0.68467 0.69019 0.0
N678 N 0.88973 0.7116 0.69161 0.0
C679 C 0.90652 0.70424 0.69113 0.0
C680 C 0.93917 0.74523 0.69259 0.0
C681 C 0.93144 0.72093 0.6914 0.0
H682 H 0.81904 0.71482 0.69975 0.0
H683 H 0.94466 0.71504 0.69062 0.0
H684 H 0.94772 0.79038 0.69616 0.0
H685 H 0.82923 0.75652 0.70445 0.0
H686 H 0.90083 0.68556 0.6901 0.0
H687 H 0.72698 0.61966 0.65396 0.0
H688 H 0.95848 0.75812 0.69279 0.0
H689 H 0.85339 0.62115 0.64533 0.0
H690 H 0.7707 0.64946 0.65455 0.0
H691 H 0.84362 0.57956 0.64085 0.0
H692 H 0.91633 0.80168 0.7 0.0
H693 H 0.7136 0.57668 0.65177 0.0
H694 H 0.72482 0.54472 0.64853 0.0
H695 H 0.87213 0.78915 0.70329 0.0
H696 H 0.75653 0.53379 0.64497 0.0
N697 N 0.78218 0.62372 0.65299 0.0
C698 C 0.76521 0.63083 0.65349 0.0
C699 C 0.73287 0.58972 0.65198 0.0
C700 C 0.75036 0.58264 0.6507 0.0
C701 C 0.74035 0.61395 0.65319 0.0
C702 C 0.7752 0.60033 0.65112 0.0
H703 H 0.80087 0.54666 0.64196 0.0
N704 N 0.81658 0.61181 0.6491 0.0
C705 C 0.82921 0.5834 0.64324 0.0
C706 C 0.79296 0.59417 0.64913 0.0
C707 C 0.83466 0.60693 0.64571 0.0
C708 C 0.80505 0.56488 0.64389 0.0
C709 C 0.78652 0.57017 0.64665 0.0
O710 O 0.84311 0.65808 0.63311 0.0
O711 O 0.85489 0.68187 0.66636 0.0
O712 O 0.84219 0.70824 0.67372 0.0
O713 O 0.8135 0.67933 0.65765 0.0
O714 O 0.86482 0.66348 0.65191 0.0
O715 O 0.81133 0.66197 0.63532 0.0
O716 O 0.82924 0.67818 0.71176 0.0
O717 O 0.81695 0.654 0.67831 0.0
O718 O 0.82874 0.62716 0.67119 0.0
O719 O 0.85787 0.6559 0.68712 0.0
O720 O 0.80693 0.67184 0.6931 0.0
O721 O 0.86031 0.67318 0.70925 0.0
C722 C 0.87294 0.68163 0.66074 0.0
C723 C 0.81957 0.65214 0.61147 0.0
C724 C 0.82 0.65658 0.58437 0.0
C725 C 0.8276 0.66664 0.59871 0.0
C726 C 0.80436 0.63172 0.58312 0.0
C727 C 0.80394 0.62749 0.6099 0.0
C728 C 0.79643 0.61737 0.59578 0.0
C729 C 0.8254 0.70137 0.66313 0.0
C730 C 0.82787 0.66287 0.62632 0.0
C731 C 0.76185 0.55236 0.64673 0.0
C732 C 0.7438 0.55858 0.64876 0.0
C733 C 0.79882 0.65392 0.68408 0.0
C734 C 0.85338 0.68408 0.73309 0.0
C735 C 0.84549 0.67002 0.74603 0.0
C736 C 0.85387 0.68047 0.76021 0.0
C737 C 0.87013 0.70525 0.76111 0.0
C738 C 0.86967 0.70865 0.73431 0.0
C739 C 0.87795 0.71915 0.74826 0.0
C740 C 0.84532 0.63375 0.68187 0.0
C741 C 0.8443 0.67299 0.71841 0.0
H742 H 0.83946 0.68574 0.59998 0.0
H743 H 0.79847 0.62326 0.57232 0.0
H744 H 0.79764 0.61609 0.61958 0.0
H745 H 0.78445 0.59829 0.59463 0.0
H746 H 0.83308 0.65097 0.74502 0.0
H747 H 0.87661 0.71403 0.77178 0.0
H748 H 0.8759 0.71971 0.72449 0.0
H749 H 0.89042 0.73817 0.74914 0.0
Eu750 Eu 0.35578 0.17446 0.65746 0.0
C751 C 0.258 0.13025 0.69291 0.0
C752 C 0.24521 0.15979 0.69241 0.0
C753 C 0.21491 0.11767 0.69405 0.0
C754 C 0.26375 0.15382 0.69194 0.0
C755 C 0.23355 0.11191 0.69423 0.0
C756 C 0.22074 0.14159 0.69318 0.0
C757 C 0.24789 0.08381 0.69703 0.0
N758 N 0.27645 0.12537 0.6933 0.0
C759 C 0.27185 0.10264 0.69582 0.0
C760 C 0.22862 0.08842 0.69608 0.0
Eu761 Eu 0.31643 0.15812 0.69061 0.0
N762 N 0.28754 0.17102 0.69125 0.0
C763 C 0.29416 0.19459 0.69188 0.0
C764 C 0.25186 0.1839 0.69252 0.0
C765 C 0.27643 0.2014 0.69236 0.0
H766 H 0.28664 0.09892 0.6965 0.0
H767 H 0.28175 0.22011 0.69266 0.0
H768 H 0.20624 0.14585 0.6934 0.0
H769 H 0.2443 0.06576 0.69869 0.0
H770 H 0.31312 0.20825 0.69177 0.0
H771 H 0.38694 0.10951 0.65414 0.0
H772 H 0.23816 0.18908 0.69315 0.0
H773 H 0.38763 0.23383 0.65312 0.0
H774 H 0.35682 0.1229 0.65543 0.0
H775 H 0.43058 0.266 0.65131 0.0
H776 H 0.196 0.10383 0.69494 0.0
H777 H 0.43094 0.13917 0.65368 0.0
H778 H 0.46403 0.18219 0.65338 0.0
H779 H 0.21008 0.07382 0.6971 0.0
H780 H 0.47592 0.22471 0.65285 0.0
N781 N 0.38339 0.15989 0.65593 0.0
C782 C 0.37591 0.1361 0.65517 0.0
C783 C 0.41778 0.14519 0.65419 0.0
C784 C 0.4253 0.16955 0.65443 0.0
C785 C 0.39296 0.1284 0.65445 0.0
C786 C 0.40743 0.17644 0.65519 0.0
H787 H 0.46359 0.25612 0.65199 0.0
N788 N 0.39639 0.20622 0.65526 0.0
C789 C 0.42622 0.24762 0.65241 0.0
C790 C 0.41415 0.20034 0.65501 0.0
C791 C 0.40195 0.22938 0.6534 0.0
C792 C 0.4448 0.24197 0.65283 0.0
C793 C 0.43888 0.21806 0.6539 0.0
O794 O 0.35317 0.18939 0.63629 0.0
O795 O 0.32209 0.1714 0.66732 0.0
O796 O 0.29478 0.13242 0.67219 0.0
O797 O 0.32624 0.13483 0.65757 0.0
O798 O 0.3428 0.20138 0.65482 0.0
O799 O 0.34813 0.15367 0.63694 0.0
O800 O 0.3194 0.14506 0.71242 0.0
O801 O 0.34971 0.16075 0.68061 0.0
O802 O 0.37742 0.19964 0.67627 0.0
O803 O 0.34554 0.19778 0.69009 0.0
O804 O 0.32976 0.13159 0.69385 0.0
O805 O 0.32451 0.18068 0.71033 0.0
C806 C 0.32285 0.18993 0.66221 0.0
C807 C 0.36427 0.17598 0.61497 0.0
C808 C 0.36585 0.17643 0.58783 0.0
C809 C 0.35243 0.17064 0.60113 0.0
C810 C 0.39141 0.18744 0.5887 0.0
C811 C 0.38969 0.18681 0.61559 0.0
C812 C 0.40317 0.19246 0.6025 0.0
C813 C 0.30307 0.12392 0.66174 0.0
C814 C 0.34979 0.17087 0.62856 0.0
C815 C 0.4568 0.21135 0.65357 0.0
C816 C 0.45003 0.18714 0.65384 0.0
C817 C 0.34919 0.14249 0.68597 0.0
C818 C 0.30867 0.16053 0.73293 0.0
C819 C 0.3207 0.16757 0.74669 0.0
C820 C 0.30745 0.16349 0.75995 0.0
C821 C 0.28189 0.15247 0.7591 0.0
C822 C 0.28324 0.1497 0.73231 0.0
C823 C 0.26994 0.14576 0.74536 0.0
C824 C 0.36895 0.20822 0.68657 0.0
C825 C 0.32295 0.16426 0.71939 0.0
H826 H 0.33272 0.1619 0.60078 0.0
H827 H 0.40238 0.19254 0.57874 0.0
H828 H 0.39912 0.19109 0.62614 0.0
H829 H 0.42283 0.20098 0.60306 0.0
H830 H 0.34041 0.1763 0.74701 0.0
H831 H 0.27103 0.14862 0.76906 0.0
H832 H 0.27369 0.14418 0.72181 0.0
H833 H 0.25029 0.13724 0.74483 0.0
Eu834 Eu 0.85106 0.16205 0.69041 0.0
C835 C 0.7942 0.19823 0.65115 0.0
C836 C 0.75244 0.16568 0.65064 0.0
C837 C 0.76103 0.20664 0.64839 0.0
C838 C 0.77763 0.17402 0.65181 0.0
C839 C 0.78612 0.21479 0.64915 0.0
C840 C 0.74423 0.18214 0.64915 0.0
C841 C 0.82827 0.24605 0.64782 0.0
N842 N 0.81829 0.20553 0.65191 0.0
C843 C 0.83537 0.22893 0.64973 0.0
C844 C 0.80353 0.23899 0.64768 0.0
Eu845 Eu 0.82887 0.17566 0.6556 0.0
N846 N 0.78615 0.1586 0.65334 0.0
C847 C 0.77054 0.13451 0.65291 0.0
C848 C 0.73628 0.14104 0.65085 0.0
C849 C 0.74539 0.12539 0.65184 0.0
H850 H 0.85451 0.23441 0.64988 0.0
H851 H 0.73307 0.10629 0.65184 0.0
H852 H 0.72494 0.17607 0.64835 0.0
H853 H 0.84186 0.26466 0.64643 0.0
H854 H 0.77729 0.1222 0.65374 0.0
H855 H 0.9482 0.22867 0.69029 0.0
H856 H 0.71679 0.13392 0.65004 0.0
H857 H 0.82454 0.10536 0.70154 0.0
H858 H 0.90428 0.21438 0.68993 0.0
H859 H 0.83567 0.0746 0.70712 0.0
H860 H 0.75446 0.2191 0.64698 0.0
H861 H 0.96298 0.19992 0.69276 0.0
H862 H 0.95323 0.15758 0.69675 0.0
H863 H 0.79806 0.25227 0.64614 0.0
H864 H 0.92258 0.11558 0.7014 0.0
N865 N 0.89386 0.17764 0.69169 0.0
C866 C 0.91028 0.20153 0.69104 0.0
C867 C 0.94358 0.1935 0.69259 0.0
C868 C 0.92671 0.1692 0.69419 0.0
C869 C 0.93531 0.20977 0.69123 0.0
C870 C 0.90166 0.16178 0.69379 0.0
H871 H 0.87871 0.08453 0.70554 0.0
N872 N 0.86077 0.13216 0.69653 0.0
C873 C 0.84961 0.09241 0.70401 0.0
C874 C 0.88453 0.13824 0.69629 0.0
C875 C 0.84337 0.10987 0.70087 0.0
C876 C 0.8739 0.09806 0.70307 0.0
C877 C 0.89179 0.12133 0.6994 0.0
O878 O 0.83233 0.15067 0.71174 0.0
O879 O 0.82026 0.16273 0.67887 0.0
O880 O 0.83117 0.20127 0.67364 0.0
O881 O 0.86159 0.20115 0.68805 0.0
O882 O 0.81105 0.13397 0.69247 0.0
O883 O 0.86326 0.1862 0.70956 0.0
O884 O 0.8476 0.19082 0.63472 0.0
O885 O 0.85919 0.17358 0.66673 0.0
O886 O 0.84547 0.1331 0.67407 0.0
O887 O 0.82076 0.13704 0.65604 0.0
O888 O 0.86901 0.20327 0.65379 0.0
O889 O 0.81734 0.15447 0.63513 0.0
C890 C 0.80241 0.14402 0.68396 0.0
C891 C 0.85563 0.16857 0.73329 0.0
C892 C 0.85409 0.17183 0.76029 0.0
C893 C 0.84609 0.17364 0.74598 0.0
C894 C 0.87172 0.16473 0.76165 0.0
C895 C 0.87319 0.16159 0.73487 0.0
C896 C 0.88116 0.15967 0.74902 0.0
C897 C 0.84804 0.21055 0.68416 0.0
C898 C 0.84701 0.17062 0.71851 0.0
C899 C 0.91664 0.12836 0.69919 0.0
C900 C 0.93408 0.15226 0.69655 0.0
C901 C 0.87725 0.19204 0.66155 0.0
C902 C 0.82518 0.17558 0.61249 0.0
C903 C 0.83306 0.16969 0.59939 0.0
C904 C 0.82613 0.17397 0.58532 0.0
C905 C 0.81103 0.18419 0.58469 0.0
C906 C 0.81004 0.18557 0.61159 0.0
C907 C 0.80301 0.18982 0.59773 0.0
C908 C 0.8311 0.12559 0.66217 0.0
C909 C 0.83349 0.17173 0.62694 0.0
H910 H 0.83269 0.17927 0.74465 0.0
H911 H 0.87801 0.16279 0.77249 0.0
H912 H 0.8807 0.15764 0.7252 0.0
H913 H 0.89466 0.15418 0.75021 0.0
H914 H 0.84448 0.16164 0.60022 0.0
H915 H 0.80567 0.18818 0.57412 0.0
H916 H 0.80383 0.19022 0.62156 0.0
H917 H 0.79146 0.1977 0.59709 0.0
H918 H 0.28751 0.7896 0.07302 0.0
H919 H 0.32227 0.81872 0.0585 0.0
H920 H 0.30882 0.87462 0.07323 0.0
H921 H 0.27371 0.84554 0.08747 0.0
H922 H 0.31591 0.87628 0.04349 0.0
H923 H 0.35728 0.87075 0.0874 0.0
H924 H 0.3681 0.84991 0.10627 0.0
H925 H 0.3937 0.82166 0.07197 0.0
H926 H 0.38269 0.84205 0.05289 0.0
H927 H 0.42422 0.98083 0.02482 0.0
H928 H 0.38775 0.94725 0.03503 0.0
H929 H 0.41565 0.90026 0.02421 0.0
H930 H 0.45323 0.93452 0.0151 0.0
H931 H 0.39997 0.89089 0.05011 0.0
H932 H 0.35986 0.89672 0.00609 0.0
H933 H 0.34834 0.9166 0.98683 0.0
H934 H 0.31963 0.94278 0.02049 0.0
H935 H 0.33085 0.92298 0.03987 0.0
C936 C 0.29196 0.8081 0.07316 0.0
C937 C 0.27783 0.81525 0.08142 0.0
C938 C 0.31195 0.82476 0.06495 0.0
C939 C 0.31826 0.8489 0.06484 0.0
C940 C 0.30432 0.8561 0.07316 0.0
C941 C 0.28438 0.83949 0.08141 0.0
C942 C 0.33892 0.86659 0.05571 0.0
C943 C 0.33436 0.87964 0.04501 0.0
C944 C 0.3628 0.87037 0.0573 0.0
C945 C 0.36902 0.85778 0.06873 0.0
C946 C 0.36502 0.85992 0.08388 0.0
C947 C 0.37121 0.84821 0.09462 0.0
C948 C 0.38153 0.83443 0.09032 0.0
C949 C 0.38564 0.83228 0.07528 0.0
C950 C 0.37941 0.84389 0.06451 0.0
C951 C 0.42234 0.96323 0.02436 0.0
C952 C 0.44136 0.96022 0.0189 0.0
C953 C 0.40129 0.9439 0.03006 0.0
C954 C 0.39843 0.92088 0.03015 0.0
C955 C 0.41719 0.91772 0.02423 0.0
C956 C 0.43858 0.93726 0.01884 0.0
C957 C 0.37715 0.90089 0.03782 0.0
C958 C 0.38153 0.88736 0.04834 0.0
C959 C 0.35302 0.8965 0.03596 0.0
C960 C 0.34646 0.90862 0.02439 0.0
C961 C 0.3513 0.90692 0.00934 0.0
C962 C 0.34475 0.91808 0.99843 0.0
C963 C 0.33344 0.93108 1.00245 0.0
C964 C 0.32846 0.93277 0.01739 0.0
C965 C 0.3348 0.92149 0.02833 0.0
H966 H 0.32844 0.93975 0.99399 0.0
H967 H 0.38638 0.82544 0.09865 0.0
H968 H 0.21967 0.49374 0.07012 0.0
H969 H 0.18824 0.49862 0.05729 0.0
H970 H 0.13282 0.43129 0.07488 0.0
H971 H 0.16409 0.42602 0.08738 0.0
H972 H 0.12565 0.43429 0.04583 0.0
H973 H 0.14155 0.48522 0.08873 0.0
H974 H 0.16711 0.51824 0.10593 0.0
H975 H 0.18931 0.5681 0.06988 0.0
H976 H 0.16408 0.53532 0.05243 0.0
H977 H 0.01888 0.4387 0.02966 0.0
H978 H 0.05309 0.4359 0.0397 0.0
H979 H 0.10198 0.50918 0.02748 0.0
H980 H 0.06725 0.51252 0.01869 0.0
H981 H 0.11467 0.50447 0.05261 0.0
H982 H 0.1038 0.45493 0.00938 0.0
H983 H 0.08138 0.42252 0.99103 0.0
H984 H 0.05226 0.37143 0.0264 0.0
H985 H 0.07485 0.40353 0.04484 0.0
C986 C 0.2008 0.47994 0.07123 0.0
C987 C 0.19447 0.4595 0.07985 0.0
C988 C 0.1828 0.48286 0.06399 0.0
C989 C 0.15805 0.46543 0.06521 0.0
C990 C 0.15173 0.44504 0.07379 0.0
C991 C 0.16966 0.44215 0.08105 0.0
C992 C 0.13873 0.46789 0.05717 0.0
C993 C 0.1231 0.44955 0.04744 0.0
C994 C 0.13582 0.48812 0.05881 0.0
C995 C 0.15111 0.5078 0.06926 0.0
C996 C 0.15204 0.5032 0.08445 0.0
C997 C 0.16643 0.52188 0.09425 0.0
C998 C 0.17987 0.54525 0.08899 0.0
C999 C 0.17893 0.54999 0.07393 0.0
C1000 C 0.16459 0.53137 0.06408 0.0
C1001 C 0.037 0.45411 0.0289 0.0
C1002 C 0.04036 0.47564 0.02299 0.0
C1003 C 0.05673 0.45242 0.0345 0.0
C1004 C 0.08056 0.47209 0.03407 0.0
C1005 C 0.08396 0.49358 0.02792 0.0
C1006 C 0.06407 0.49543 0.02266 0.0
C1007 C 0.10137 0.47079 0.04117 0.0
C1008 C 0.11729 0.48931 0.05082 0.0
C1009 C 0.10479 0.45084 0.03933 0.0
C1010 C 0.09059 0.43163 0.02841 0.0
C1011 C 0.09233 0.43681 0.01318 0.0
C1012 C 0.07975 0.4185 1.00279 0.0
C1013 C 0.06519 0.39497 0.00756 0.0
C1014 C 0.06343 0.38967 0.02272 0.0
C1015 C 0.07623 0.40789 0.03313 0.0
H1016 H 0.0554 0.38084 0.99951 0.0
H1017 H 0.19097 0.55969 0.0966 0.0
H1018 H 0.51067 0.71816 0.08049 0.0
H1019 H 0.504 0.68139 0.06829 0.0
H1020 H 0.57686 0.69827 0.08032 0.0
H1021 H 0.5837 0.7351 0.09237 0.0
H1022 H 0.5672 0.68699 0.05109 0.0
H1023 H 0.52998 0.65464 0.09758 0.0
H1024 H 0.50251 0.64542 0.11893 0.0
H1025 H 0.44044 0.6089 0.09 0.0
H1026 H 0.46754 0.61827 0.0684 0.0
H1027 H 0.55578 0.57411 0.03335 0.0
H1028 H 0.56117 0.60934 0.04688 0.0
H1029 H 0.49189 0.59704 0.03026 0.0
H1030 H 0.48646 0.56199 0.01651 0.0
H1031 H 0.49958 0.60543 0.06196 0.0
H1032 H 0.53846 0.63919 0.01533 0.0
H1033 H 0.567 0.64626 0.99484 0.0
H1034 H 0.62728 0.67865 0.02541 0.0
H1035 H 0.59903 0.67139 0.04615 0.0
C1036 C 0.52519 0.71393 0.08057 0.0
C1037 C 0.54769 0.72945 0.08737 0.0
C1038 C 0.52131 0.69288 0.07371 0.0
C1039 C 0.53991 0.68709 0.07349 0.0
C1040 C 0.56227 0.70241 0.08042 0.0
C1041 C 0.56609 0.72334 0.08737 0.0
C1042 C 0.53656 0.66577 0.06528 0.0
C1043 C 0.55259 0.66913 0.0536 0.0
C1044 C 0.51723 0.64253 0.06841 0.0
C1045 C 0.50083 0.63751 0.08132 0.0
C1046 C 0.51048 0.64499 0.09572 0.0
C1047 C 0.49496 0.63966 0.10788 0.0
C1048 C 0.46974 0.62668 0.10582 0.0
C1049 C 0.45998 0.61901 0.09158 0.0
C1050 C 0.47542 0.62434 0.07937 0.0
C1051 C 0.54178 0.57901 0.03249 0.0
C1052 C 0.52077 0.56539 0.02382 0.0
C1053 C 0.54488 0.59909 0.04022 0.0
C1054 C 0.52693 0.6057 0.03951 0.0
C1055 C 0.50591 0.59214 0.03091 0.0
C1056 C 0.50295 0.57226 0.02299 0.0
C1057 C 0.53012 0.62678 0.04782 0.0
C1058 C 0.51409 0.62335 0.05949 0.0
C1059 C 0.54957 0.64991 0.0448 0.0
C1060 C 0.56661 0.65453 0.03232 0.0
C1061 C 0.55778 0.64764 0.01771 0.0
C1062 C 0.57391 0.65171 0.00605 0.0
C1063 C 0.59893 0.66285 0.00883 0.0
C1064 C 0.60788 0.67 0.02328 0.0
C1065 C 0.59183 0.66592 0.03499 0.0
H1066 H 0.61139 0.66599 0.99979 0.0
H1067 H 0.45776 0.62249 0.11526 0.0
H1068 H 0.84324 0.25655 0.92524 0.0
H1069 H 0.87348 0.29402 0.93689 0.0
H1070 H 0.81599 0.30389 0.95468 0.0
H1071 H 0.78554 0.26648 0.94282 0.0
H1072 H 0.85341 0.34536 0.94226 0.0
H1073 H 0.84485 0.28516 0.97696 0.0
H1074 H 0.84399 0.24818 0.9847 0.0
H1075 H 0.91814 0.27699 0.97077 0.0
H1076 H 0.91934 0.31403 0.96275 0.0
H1077 H 0.922 0.43398 0.99623 0.0
H1078 H 0.89249 0.39688 0.98402 0.0
H1079 H 0.95096 0.38851 0.96632 0.0
H1080 H 0.98079 0.42572 0.97858 0.0
H1081 H 0.91357 0.34661 0.97829 0.0
H1082 H 0.92295 0.40646 0.94368 0.0
H1083 H 0.92468 0.44364 0.93547 0.0
H1084 H 0.85035 0.41607 0.94862 0.0
H1085 H 0.84824 0.37878 0.95707 0.0
C1086 C 0.83702 0.26676 0.93156 0.0
C1087 C 0.81199 0.25856 0.93312 0.0
C1088 C 0.85432 0.28809 0.93828 0.0
C1089 C 0.84698 0.30166 0.94673 0.0
C1090 C 0.82203 0.29366 0.94822 0.0
C1091 C 0.80467 0.27222 0.94155 0.0
C1092 C 0.86542 0.3241 0.95408 0.0
C1093 C 0.86635 0.3456 0.9503 0.0
C1094 C 0.88274 0.32449 0.96424 0.0
C1095 C 0.8821 0.30228 0.96912 0.0
C1096 C 0.86091 0.28353 0.97544 0.0
C1097 C 0.86038 0.26257 0.9799 0.0
C1098 C 0.88098 0.26021 0.97819 0.0
C1099 C 0.90219 0.27883 0.97207 0.0
C1100 C 0.90281 0.29982 0.96757 0.0
C1101 C 0.92866 0.4242 0.98985 0.0
C1102 C 0.95379 0.43278 0.98843 0.0
C1103 C 0.91173 0.40308 0.98279 0.0
C1104 C 0.91955 0.39008 0.97417 0.0
C1105 C 0.94458 0.39834 0.97291 0.0
C1106 C 0.96159 0.41961 0.97989 0.0
C1107 C 0.90149 0.36782 0.96653 0.0
C1108 C 0.90064 0.34637 0.97025 0.0
C1109 C 0.88437 0.36752 0.95625 0.0
C1110 C 0.88551 0.38989 0.95114 0.0
C1111 C 0.90702 0.40839 0.94494 0.0
C1112 C 0.90807 0.42948 0.94022 0.0
C1113 C 0.88766 0.43225 0.94157 0.0
C1114 C 0.86615 0.41391 0.9476 0.0
C1115 C 0.86501 0.39277 0.95233 0.0
H1116 H 0.88849 0.44857 0.9379 0.0
H1117 H 0.88053 0.24397 0.98165 0.0
H1118 H 0.71452 0.53108 0.91358 0.0
H1119 H 0.67831 0.52557 0.92668 0.0
H1120 H 0.71983 0.55029 0.9674 0.0
H1121 H 0.75619 0.55624 0.95437 0.0
H1122 H 0.67611 0.51138 0.97236 0.0
H1123 H 0.70563 0.58643 0.9471 0.0
H1124 H 0.71859 0.61296 0.92529 0.0
H1125 H 0.6482 0.57005 0.90514 0.0
H1126 H 0.63492 0.54306 0.92675 0.0
H1127 H 0.58748 0.56168 0.99028 0.0
H1128 H 0.62505 0.56477 0.98085 0.0
H1129 H 0.5918 0.48803 0.98214 0.0
H1130 H 0.55473 0.48514 0.99239 0.0
H1131 H 0.6313 0.55189 0.95581 0.0
H1132 H 0.62333 0.46883 0.97852 0.0
H1133 H 0.61739 0.44467 1.00101 0.0
H1134 H 0.65164 0.5085 0.02765 0.0
H1135 H 0.65661 0.53285 0.00542 0.0
C1136 C 0.71606 0.53556 0.9253 0.0
C1137 C 0.73845 0.54417 0.93286 0.0
C1138 C 0.69526 0.53233 0.93279 0.0
C1139 C 0.69629 0.53767 0.94803 0.0
C1140 C 0.71848 0.54594 0.95566 0.0
C1141 C 0.73929 0.54924 0.94818 0.0
C1142 C 0.67436 0.5348 0.95607 0.0
C1143 C 0.66632 0.52026 0.96872 0.0
C1144 C 0.66147 0.54632 0.95143 0.0
C1145 C 0.66937 0.56259 0.93847 0.0
C1146 C 0.69297 0.58255 0.93796 0.0
C1147 C 0.70037 0.59769 0.92565 0.0
C1148 C 0.68425 0.59316 0.91382 0.0
C1149 C 0.66067 0.57351 0.9143 0.0
C1150 C 0.6532 0.5583 0.92658 0.0
C1151 C 0.58851 0.54554 0.98899 0.0
C1152 C 0.56822 0.52322 0.99219 0.0
C1153 C 0.60997 0.54727 0.98349 0.0
C1154 C 0.6116 0.52667 0.98068 0.0
C1155 C 0.59157 0.50433 0.98448 0.0
C1156 C 0.57019 0.50264 0.9903 0.0
C1157 C 0.63313 0.52874 0.9724 0.0
C1158 C 0.64102 0.54299 0.95953 0.0
C1159 C 0.64602 0.51711 0.97688 0.0
C1160 C 0.63993 0.50251 0.99044 0.0
C1161 C 0.62905 0.47759 0.98926 0.0
C1162 C 0.62583 0.46389 1.00194 0.0
C1163 C 0.63403 0.47504 0.01576 0.0
C1164 C 0.64503 0.49987 0.01697 0.0
C1165 C 0.64774 0.5136 0.00438 0.0
H1166 H 0.63192 0.46444 0.02554 0.0
H1167 H 0.69 0.6049 0.9043 0.0
H1168 H 0.47835 0.20648 0.94017 0.0
H1169 H 0.48808 0.17847 0.95229 0.0
H1170 H 0.41918 0.11957 0.93771 0.0
H1171 H 0.40892 0.14758 0.92601 0.0
H1172 H 0.42778 0.11459 0.96625 0.0
H1173 H 0.47219 0.13207 0.9206 0.0
H1174 H 0.50082 0.15772 0.90132 0.0
H1175 H 0.55916 0.18643 0.93333 0.0
H1176 H 0.53079 0.16118 0.95286 0.0
H1177 H 0.4531 0.02048 0.97723 0.0
H1178 H 0.4443 0.04981 0.96617 0.0
H1179 H 0.51026 0.10692 0.98542 0.0
H1180 H 0.5193 0.07769 0.99655 0.0
H1181 H 0.50383 0.11343 0.95515 0.0
H1182 H 0.45898 0.09457 1.00064 0.0
H1183 H 0.43016 0.06775 0.01945 0.0
H1184 H 0.37227 0.04059 0.98715 0.0
H1185 H 0.40085 0.06699 0.96807 0.0
C1186 C 0.46519 0.18757 0.93962 0.0
C1187 C 0.44285 0.17924 0.93213 0.0
C1188 C 0.47088 0.17158 0.94644 0.0
C1189 C 0.45445 0.14692 0.94578 0.0
C1190 C 0.43214 0.13853 0.93832 0.0
C1191 C 0.4264 0.15453 0.93152 0.0
C1192 C 0.46041 0.1299 0.95305 0.0
C1193 C 0.44425 0.11413 0.96368 0.0
C1194 C 0.4822 0.12971 0.94995 0.0
C1195 C 0.49931 0.14492 0.93823 0.0
C1196 C 0.49108 0.144 0.92356 0.0
C1197 C 0.50727 0.15844 0.91258 0.0
C1198 C 0.53178 0.17375 0.91611 0.0
C1199 C 0.54016 0.1746 0.93062 0.0
C1200 C 0.52404 0.16021 0.94165 0.0
C1201 C 0.46572 0.03926 0.97917 0.0
C1202 C 0.48682 0.04674 0.98786 0.0
C1203 C 0.46062 0.05598 0.97287 0.0
C1204 C 0.47655 0.08048 0.97507 0.0
C1205 C 0.49773 0.08806 0.98363 0.0
C1206 C 0.50276 0.07133 0.99005 0.0
C1207 C 0.47116 0.09812 0.96825 0.0
C1208 C 0.48741 0.11398 0.95773 0.0
C1209 C 0.44941 0.09832 0.97139 0.0
C1210 C 0.43211 0.08261 0.98288 0.0
C1211 C 0.44014 0.08275 0.99751 0.0
C1212 C 0.42385 0.06764 0.00823 0.0
C1213 C 0.39941 0.05244 0.00449 0.0
C1214 C 0.39121 0.05236 0.99003 0.0
C1215 C 0.40745 0.06741 0.97926 0.0
H1216 H 0.38682 0.04075 0.0128 0.0
H1217 H 0.54428 0.1849 0.90759 0.0
H1218 H 0.70885 0.17175 0.91662 0.0
H1219 H 0.67329 0.14189 0.93016 0.0
H1220 H 0.71835 0.15242 0.96873 0.0
H1221 H 0.75394 0.1825 0.95526 0.0
H1222 H 0.66323 0.10092 0.94049 0.0
H1223 H 0.68353 0.13937 1.00059 0.0
H1224 H 0.7042 0.17852 0.01328 0.0
H1225 H 0.69307 0.21139 0.9749 0.0
H1226 H 0.67204 0.1724 0.96207 0.0
H1227 H 0.58312 0.00923 0.98771 0.0
H1228 H 0.62123 0.04302 0.97874 0.0
H1229 H 0.59045 0.08905 0.98313 0.0
H1230 H 0.55246 0.05537 0.99211 0.0
H1231 H 0.63806 0.11308 0.99045 0.0
H1232 H 0.58984 0.06517 0.94942 0.0
H1233 H 0.56631 0.02916 0.93407 0.0
H1234 H 0.6283 0.01912 0.93154 0.0
H1235 H 0.65225 0.05525 0.9469 0.0
C1236 C 0.71119 0.16769 0.92798 0.0
C1237 C 0.73424 0.17952 0.93485 0.0
C1238 C 0.69083 0.15066 0.93574 0.0
C1239 C 0.69301 0.14498 0.95055 0.0
C1240 C 0.71603 0.15677 0.95744 0.0
C1241 C 0.73639 0.17395 0.94971 0.0
C1242 C 0.67137 0.12596 0.95844 0.0
C1243 C 0.65787 0.10365 0.95144 0.0
C1244 C 0.664 0.12947 0.97266 0.0
C1245 C 0.67649 0.15299 0.98031 0.0
C1246 C 0.68545 0.15494 0.99487 0.0
C1247 C 0.69722 0.17711 1.00209 0.0
C1248 C 0.70003 0.19745 0.99488 0.0
C1249 C 0.69099 0.19565 0.98045 0.0
C1250 C 0.67917 0.17352 0.97319 0.0
C1251 C 0.58473 0.02669 0.98704 0.0
C1252 C 0.56496 0.02973 0.99079 0.0
C1253 C 0.60644 0.04596 0.98186 0.0
C1254 C 0.60863 0.06854 0.98007 0.0
C1255 C 0.58926 0.07184 0.98444 0.0
C1256 C 0.56754 0.05257 0.98963 0.0
C1257 C 0.63024 0.08811 0.9725 0.0
C1258 C 0.64369 0.11042 0.97956 0.0
C1259 C 0.63727 0.08491 0.95814 0.0
C1260 C 0.62272 0.06271 0.94942 0.0
C1261 C 0.59836 0.05513 0.94572 0.0
C1262 C 0.58497 0.03472 0.93697 0.0
C1263 C 0.59577 0.02176 0.93186 0.0
C1264 C 0.61996 0.02916 0.93552 0.0
C1265 C 0.63347 0.04962 0.94422 0.0
H1266 H 0.58549 0.00607 0.92498 0.0
H1267 H 0.70917 0.21459 1.00048 0.0
H1268 H 0.7913 0.50963 0.9422 0.0
H1269 H 0.82158 0.50251 0.95453 0.0
H1270 H 0.87927 0.56776 0.93609 0.0
H1271 H 0.84917 0.57508 0.92383 0.0
H1272 H 0.89045 0.53304 0.93383 0.0
H1273 H 0.86107 0.56386 0.97252 0.0
H1274 H 0.83015 0.56502 0.98851 0.0
H1275 H 0.80941 0.49523 0.00512 0.0
H1276 H 0.83999 0.49351 0.98905 0.0
H1277 H 0.98873 0.55997 0.98325 0.0
H1278 H 0.95383 0.56132 0.97249 0.0
H1279 H 0.90792 0.48611 0.98082 0.0
H1280 H 0.94297 0.48443 0.99096 0.0
H1281 H 0.88921 0.52216 0.98854 0.0
H1282 H 0.91788 0.49091 0.9496 0.0
H1283 H 0.95118 0.4911 0.93538 0.0
H1284 H 0.97429 0.56226 0.92041 0.0
H1285 H 0.94124 0.56257 0.93471 0.0
C1286 C 0.81042 0.52258 0.94085 0.0
C1287 C 0.8177 0.54296 0.932 0.0
C1288 C 0.82775 0.51844 0.94789 0.0
C1289 C 0.8528 0.53467 0.94635 0.0
C1290 C 0.86011 0.55489 0.93741 0.0
C1291 C 0.84282 0.55902 0.93037 0.0
C1292 C 0.87145 0.53087 0.95417 0.0
C1293 C 0.89014 0.53078 0.9458 0.0
C1294 C 0.87099 0.52743 0.96978 0.0
C1295 C 0.8526 0.52843 0.97944 0.0
C1296 C 0.84976 0.54867 0.97948 0.0
C1297 C 0.83233 0.54944 0.98858 0.0
C1298 C 0.81776 0.53017 0.99779 0.0
C1299 C 0.82066 0.51012 0.99795 0.0
C1300 C 0.83804 0.50923 0.98885 0.0
C1301 C 0.97113 0.54379 0.98296 0.0
C1302 C 0.96851 0.52222 0.98828 0.0
C1303 C 0.95123 0.54459 0.97684 0.0
C1304 C 0.9283 0.52385 0.97596 0.0
C1305 C 0.92542 0.50236 0.98156 0.0
C1306 C 0.94546 0.50147 0.98743 0.0
C1307 C 0.90794 0.5245 0.96819 0.0
C1308 C 0.88914 0.5241 0.97656 0.0
C1309 C 0.90819 0.52739 0.9526 0.0
C1310 C 0.92722 0.52684 0.94332 0.0
C1311 C 0.93012 0.50663 0.94332 0.0
C1312 C 0.94897 0.50666 0.93527 0.0
C1313 C 0.96498 0.52676 0.9271 0.0
C1314 C 0.96196 0.54676 0.92682 0.0
C1315 C 0.94312 0.54681 0.93485 0.0
H1316 H 0.97956 0.52674 0.92087 0.0
H1317 H 0.80428 0.53081 0.00483 0.0
H1318 H 0.45365 0.27836 0.91499 0.0
H1319 H 0.46376 0.3152 0.92824 0.0
H1320 H 0.44186 0.27659 0.9696 0.0
H1321 H 0.43058 0.23942 0.95632 0.0
H1322 H 0.42572 0.30705 0.96815 0.0
H1323 H 0.5023 0.31092 0.96042 0.0
H1324 H 0.5345 0.30956 0.94588 0.0
H1325 H 0.54369 0.36904 0.91981 0.0
H1326 H 0.51129 0.37055 0.93407 0.0
H1327 H 0.51938 0.43113 1.00178 0.0
H1328 H 0.5092 0.39216 0.99153 0.0
H1329 H 0.44885 0.38932 0.96741 0.0
H1330 H 0.45865 0.42811 0.97769 0.0
H1331 H 0.50771 0.37847 0.9627 0.0
H1332 H 0.40238 0.33142 0.96683 0.0
H1333 H 0.37139 0.33231 0.98293 0.0
H1334 H 0.42213 0.3578 0.01945 0.0
H1335 H 0.45327 0.35671 1.00365 0.0
C1336 C 0.45067 0.27763 0.92688 0.0
C1337 C 0.44138 0.25595 0.93461 0.0
C1338 C 0.45672 0.29876 0.93446 0.0
C1339 C 0.45393 0.29871 0.94994 0.0
C1340 C 0.44429 0.27706 0.95766 0.0
C1341 C 0.43807 0.25587 0.95007 0.0
C1342 C 0.46105 0.32125 0.95807 0.0
C1343 C 0.44365 0.32265 0.96697 0.0
C1344 C 0.48462 0.34147 0.95677 0.0
C1345 C 0.50423 0.34072 0.94825 0.0
C1346 C 0.51108 0.32361 0.95153 0.0
C1347 C 0.52938 0.32282 0.94334 0.0
C1348 C 0.5411 0.33917 0.93191 0.0
C1349 C 0.53458 0.35638 0.92866 0.0
C1350 C 0.51627 0.35722 0.9368 0.0
C1351 C 0.50381 0.42215 0.99439 0.0
C1352 C 0.48973 0.43268 0.99062 0.0
C1353 C 0.49813 0.39995 0.98849 0.0
C1354 C 0.47818 0.38782 0.97882 0.0
C1355 C 0.46414 0.39829 0.975 0.0
C1356 C 0.46985 0.42051 0.98085 0.0
C1357 C 0.47221 0.36436 0.97249 0.0
C1358 C 0.48982 0.36282 0.96391 0.0
C1359 C 0.449 0.3439 0.97432 0.0
C1360 C 0.43022 0.34419 0.984 0.0
C1361 C 0.40688 0.3371 0.97831 0.0
C1362 C 0.38929 0.33765 0.98739 0.0
C1363 C 0.39481 0.34517 1.00219 0.0
C1364 C 0.4179 0.35206 0.00797 0.0
C1365 C 0.43553 0.3515 0.99895 0.0
H1366 H 0.38118 0.34562 0.00918 0.0
H1367 H 0.55526 0.33853 0.92558 0.0
H1368 H 0.20399 0.75225 0.06016 0.0
H1369 H 0.17379 0.7154 0.04797 0.0
H1370 H 0.15962 0.67804 0.08969 0.0
H1371 H 0.19071 0.71456 0.10181 0.0
H1372 H 0.1598 0.65058 0.06834 0.0
H1373 H 0.12137 0.69721 0.07593 0.0
H1374 H 0.11689 0.73292 0.07454 0.0
H1375 H 0.11704 0.72983 0.02683 0.0
H1376 H 0.12186 0.69427 0.02794 0.0
H1377 H 0.02939 0.57081 0.03601 0.0
H1378 H 0.05945 0.60738 0.04865 0.0
H1379 H 0.11733 0.60403 0.02571 0.0
H1380 H 0.08761 0.56728 0.01332 0.0
H1381 H 0.09325 0.65088 0.03922 0.0
H1382 H 0.16503 0.62148 0.04909 0.0
H1383 H 0.16578 0.58395 0.0525 0.0
H1384 H 0.09305 0.55007 0.06974 0.0
H1385 H 0.09199 0.58742 0.06663 0.0
C1386 C 0.19478 0.73613 0.06671 0.0
C1387 C 0.19975 0.73645 0.08201 0.0
C1388 C 0.17727 0.7151 0.05975 0.0
C1389 C 0.16411 0.69401 0.06796 0.0
C1390 C 0.16944 0.69411 0.08313 0.0
C1391 C 0.18707 0.71508 0.09008 0.0
C1392 C 0.14451 0.67197 0.06078 0.0
C1393 C 0.14529 0.65069 0.06196 0.0
C1394 C 0.12518 0.67188 0.05274 0.0
C1395 C 0.1222 0.69321 0.05203 0.0
C1396 C 0.12062 0.70425 0.06515 0.0
C1397 C 0.118 0.72444 0.06441 0.0
C1398 C 0.11674 0.73367 0.05061 0.0
C1399 C 0.11805 0.72268 0.03751 0.0
C1400 C 0.12071 0.70249 0.03819 0.0
C1401 C 0.04851 0.57788 0.03361 0.0
C1402 C 0.05605 0.56606 0.02364 0.0
C1403 C 0.06565 0.59885 0.0408 0.0
C1404 C 0.09063 0.60829 0.03824 0.0
C1405 C 0.09816 0.59689 0.028 0.0
C1406 C 0.08108 0.57594 0.02084 0.0
C1407 C 0.1089 0.62974 0.04652 0.0
C1408 C 0.10783 0.65085 0.04557 0.0
C1409 C 0.12754 0.62951 0.05512 0.0
C1410 C 0.12837 0.6072 0.05749 0.0
C1411 C 0.14927 0.60606 0.0537 0.0
C1412 C 0.14973 0.58481 0.05556 0.0
C1413 C 0.12945 0.56463 0.06129 0.0
C1414 C 0.10872 0.56569 0.06526 0.0
C1415 C 0.10817 0.58688 0.06343 0.0
H1416 H 0.12976 0.54818 0.06268 0.0
H1417 H 0.11471 0.74931 0.05006 0.0
H1418 H 0.25833 0.45348 0.05599 0.0
H1419 H 0.29463 0.46056 0.0427 0.0
H1420 H 0.33357 0.47379 0.08427 0.0
H1421 H 0.29811 0.46918 0.09757 0.0
H1422 H 0.36385 0.5016 0.06585 0.0
H1423 H 0.30688 0.41779 0.06363 0.0
H1424 H 0.26772 0.38133 0.05838 0.0
H1425 H 0.27437 0.39933 0.01204 0.0
H1426 H 0.31346 0.43607 0.01705 0.0
H1427 H 0.42709 0.43917 0.02666 0.0
H1428 H 0.39052 0.43748 0.03665 0.0
H1429 H 0.41972 0.51201 0.02627 0.0
H1430 H 0.45717 0.5141 0.01747 0.0
H1431 H 0.3554 0.4415 0.02834 0.0
H1432 H 0.40008 0.53864 0.05012 0.0
H1433 H 0.44051 0.57089 0.05834 0.0
H1434 H 0.46028 0.51892 0.07134 0.0
H1435 H 0.41993 0.4864 0.06334 0.0
C1436 C 0.27469 0.45845 0.06239 0.0
C1437 C 0.27488 0.46053 0.07802 0.0
C1438 C 0.29548 0.46209 0.05471 0.0
C1439 C 0.3169 0.46714 0.06242 0.0
C1440 C 0.31735 0.46977 0.07796 0.0
C1441 C 0.29676 0.4667 0.08563 0.0
C1442 C 0.33856 0.46913 0.05439 0.0
C1443 C 0.36191 0.48843 0.05763 0.0
C1444 C 0.33643 0.45186 0.0438 0.0
C1445 C 0.31294 0.4298 0.04074 0.0
C1446 C 0.2999 0.41405 0.05234 0.0
C1447 C 0.27773 0.39333 0.0494 0.0
C1448 C 0.26853 0.38806 0.03489 0.0
C1449 C 0.2815 0.40347 0.02328 0.0
C1450 C 0.30367 0.42423 0.02616 0.0
C1451 C 0.42559 0.45514 0.02639 0.0
C1452 C 0.44492 0.47667 0.02107 0.0
C1453 C 0.4046 0.45417 0.03207 0.0
C1454 C 0.40229 0.4747 0.03251 0.0
C1455 C 0.42113 0.496 0.02646 0.0
C1456 C 0.44244 0.4971 0.02112 0.0
C1457 C 0.38067 0.47378 0.0399 0.0
C1458 C 0.35732 0.45474 0.03649 0.0
C1459 C 0.38295 0.49069 0.05082 0.0
C1460 C 0.40707 0.51012 0.05599 0.0
C1461 C 0.41303 0.53411 0.05479 0.0
C1462 C 0.43594 0.55243 0.05939 0.0
C1463 C 0.45298 0.54696 0.06531 0.0
C1464 C 0.44711 0.52315 0.0667 0.0
C1465 C 0.42423 0.50477 0.06213 0.0
H1466 H 0.4707 0.56115 0.06884 0.0
H1467 H 0.25136 0.372 0.03264 0.0
H1468 H 0.55684 0.79774 0.06153 0.0
H1469 H 0.54916 0.82541 0.0473 0.0
H1470 H 0.53033 0.84849 0.08769 0.0
H1471 H 0.53656 0.81983 0.1019 0.0
H1472 H 0.50041 0.84479 0.06653 0.0
H1473 H 0.58703 0.88129 0.07113 0.0
H1474 H 0.62718 0.88413 0.06912 0.0
H1475 H 0.61822 0.875 0.02176 0.0
H1476 H 0.57783 0.87177 0.02351 0.0
H1477 H 0.51865 0.95673 0.04363 0.0
H1478 H 0.52502 0.9264 0.05554 0.0
H1479 H 0.52871 0.89877 0.01252 0.0
H1480 H 0.5228 0.92947 1.00051 0.0
H1481 H 0.56523 0.90359 0.0336 0.0
H1482 H 0.47826 0.87062 0.03021 0.0
H1483 H 0.4411 0.87328 0.03371 0.0
H1484 H 0.45319 0.8797 0.08092 0.0
H1485 H 0.49075 0.87765 0.0777 0.0
C1486 C 0.55064 0.80838 0.06738 0.0
C1487 C 0.54741 0.8066 0.08289 0.0
C1488 C 0.54656 0.82442 0.05923 0.0
C1489 C 0.53958 0.83933 0.06646 0.0
C1490 C 0.53582 0.83725 0.08188 0.0
C1491 C 0.53965 0.82103 0.09002 0.0
C1492 C 0.53655 0.85737 0.058 0.0
C1493 C 0.51467 0.85773 0.05943 0.0
C1494 C 0.55502 0.87412 0.04856 0.0
C1495 C 0.57928 0.876 0.04747 0.0
C1496 C 0.59352 0.87968 0.0603 0.0
C1497 C 0.61634 0.88139 0.05921 0.0
C1498 C 0.62521 0.87967 0.04533 0.0
C1499 C 0.6113 0.87628 0.03251 0.0
C1500 C 0.58845 0.87452 0.03354 0.0
C1501 C 0.52106 0.94438 0.03667 0.0
C1502 C 0.51987 0.94526 0.02109 0.0
C1503 C 0.52457 0.92699 0.04351 0.0
C1504 C 0.52701 0.91021 0.03489 0.0
C1505 C 0.52667 0.9115 0.01933 0.0
C1506 C 0.52298 0.92883 0.01248 0.0
C1507 C 0.52925 0.89097 0.04223 0.0
C1508 C 0.55093 0.89042 0.04059 0.0
C1509 C 0.51079 0.87434 0.05167 0.0
C1510 C 0.48746 0.8742 0.05369 0.0
C1511 C 0.47305 0.87268 0.04134 0.0
C1512 C 0.45194 0.87411 0.04327 0.0
C1513 C 0.4449 0.87679 0.05752 0.0
C1514 C 0.45875 0.87771 0.06989 0.0
C1515 C 0.47994 0.87641 0.06802 0.0
H1516 H 0.42878 0.87824 0.05898 0.0
H1517 H 0.64289 0.88102 0.04451 0.0
H1518 H 0.96602 0.1684 0.43021 0.0
H1519 H 0.99978 0.19878 0.41577 0.0
H1520 H 0.95577 0.17413 0.37592 0.0
H1521 H 0.92145 0.14483 0.39041 0.0
H1522 H 0.0263 0.19746 0.3945 0.0
H1523 H 0.97157 0.21915 0.35167 0.0
H1524 H 0.9329 0.21955 0.35005 0.0
H1525 H 0.93395 0.22946 0.39735 0.0
H1526 H 0.97276 0.22943 0.39922 0.0
H1527 H 0.11616 0.2746 0.34654 0.0
H1528 H 0.07644 0.24094 0.35277 0.0
H1529 H 0.05397 0.28988 0.36899 0.0
H1530 H 0.0921 0.32342 0.36023 0.0
H1531 H 0.01592 0.25299 0.36128 0.0
H1532 H 0.08496 0.2645 0.39179 0.0
H1533 H 0.12645 0.27008 0.39178 0.0
H1534 H 0.09897 0.20023 0.37276 0.0
H1535 H 0.05736 0.19437 0.37244 0.0
C1536 C 0.96334 0.16966 0.41842 0.0
C1537 C 0.94085 0.15415 0.41155 0.0
C1538 C 0.98281 0.18689 0.41012 0.0
C1539 C 0.98033 0.18899 0.39475 0.0
C1540 C 0.95808 0.17321 0.3878 0.0
C1541 C 0.93852 0.15619 0.39611 0.0
C1542 C 1.00097 0.20773 0.38605 0.0
C1543 C 0.02396 0.2096 0.38728 0.0
C1544 C 0.99816 0.22375 0.37661 0.0
C1545 C 0.97492 0.224 0.37559 0.0
C1546 C 0.96358 0.22148 0.36172 0.0
C1547 C 0.94163 0.22164 0.36075 0.0
C1548 C 0.93093 0.22444 0.37359 0.0
C1549 C 0.9422 0.22719 0.38742 0.0
C1550 C 0.96416 0.22708 0.38844 0.0
C1551 C 0.10225 0.27815 0.35061 0.0
C1552 C 0.10703 0.30165 0.35248 0.0
C1553 C 0.07969 0.25886 0.35458 0.0
C1554 C 0.06243 0.26272 0.36201 0.0
C1555 C 0.06687 0.28622 0.36339 0.0
C1556 C 0.08882 0.30545 0.3585 0.0
C1557 C 0.04127 0.2429 0.36985 0.0
C1558 C 0.01819 0.24079 0.36847 0.0
C1559 C 0.04414 0.22718 0.37956 0.0
C1560 C 0.06816 0.22908 0.382 0.0
C1561 C 0.08775 0.25021 0.38781 0.0
C1562 C 0.11128 0.25352 0.3877 0.0
C1563 C 0.11531 0.23565 0.38204 0.0
C1564 C 0.09577 0.21411 0.37697 0.0
C1565 C 0.07221 0.21075 0.37698 0.0
H1566 H 0.13356 0.23842 0.38171 0.0
H1567 H 0.91393 0.22454 0.37283 0.0
H1568 H 0.8627 0.7817 0.39004 0.0
H1569 H 0.83248 0.78847 0.37755 0.0
H1570 H 0.81615 0.81062 0.41917 0.0
H1571 H 0.84748 0.80544 0.43155 0.0
H1572 H 0.78667 0.76795 0.37971 0.0
H1573 H 0.79236 0.84692 0.41388 0.0
H1574 H 0.82289 0.88319 0.42705 0.0
H1575 H 0.87952 0.88523 0.39994 0.0
H1576 H 0.84929 0.84916 0.38646 0.0
H1577 H 0.6806 0.77445 0.36463 0.0
H1578 H 0.71439 0.77122 0.37489 0.0
H1579 H 0.76425 0.84389 0.36185 0.0
H1580 H 0.72982 0.84791 0.35332 0.0
H1581 H 0.77889 0.84008 0.38573 0.0
H1582 H 0.76191 0.78554 0.34381 0.0
H1583 H 0.73606 0.75154 0.32715 0.0
H1584 H 0.70916 0.70495 0.36486 0.0
H1585 H 0.73508 0.73868 0.38159 0.0
C1586 C 0.85314 0.78854 0.39652 0.0
C1587 C 0.85774 0.79301 0.41187 0.0
C1588 C 0.83557 0.79217 0.38936 0.0
C1589 C 0.82199 0.80027 0.39732 0.0
C1590 C 0.82656 0.80479 0.41263 0.0
C1591 C 0.84432 0.80144 0.41978 0.0
C1592 C 0.80238 0.80289 0.38971 0.0
C1593 C 0.78511 0.78383 0.38099 0.0
C1594 C 0.80021 0.8236 0.39115 0.0
C1595 C 0.81858 0.84516 0.39929 0.0
C1596 C 0.81133 0.8551 0.41073 0.0
C1597 C 0.82858 0.87564 0.41824 0.0
C1598 C 0.85314 0.88646 0.41437 0.0
C1599 C 0.8605 0.87678 0.40296 0.0
C1600 C 0.84332 0.85626 0.3954 0.0
C1601 C 0.69883 0.78966 0.3638 0.0
C1602 C 0.70257 0.81119 0.35767 0.0
C1603 C 0.71835 0.78769 0.3695 0.0
C1604 C 0.74238 0.80697 0.36878 0.0
C1605 C 0.7461 0.82854 0.36253 0.0
C1606 C 0.7264 0.83076 0.35737 0.0
C1607 C 0.76325 0.80524 0.37549 0.0
C1608 C 0.78058 0.82432 0.38426 0.0
C1609 C 0.76594 0.78483 0.37376 0.0
C1610 C 0.74995 0.76466 0.36387 0.0
C1611 C 0.75017 0.76809 0.34847 0.0
C1612 C 0.73566 0.74887 0.33905 0.0
C1613 C 0.72076 0.72616 0.34496 0.0
C1614 C 0.72059 0.72257 0.36029 0.0
C1615 C 0.73528 0.7417 0.36973 0.0
H1616 H 0.70948 0.71131 0.33766 0.0
H1617 H 0.86647 0.90237 0.42019 0.0
H1618 H 0.23603 0.08978 0.39377 0.0
H1619 H 0.22612 0.0522 0.38154 0.0
H1620 H 0.20294 0.01553 0.42347 0.0
H1621 H 0.21226 0.053 0.43578 0.0
H1622 H 0.23386 0.00446 0.40754 0.0
H1623 H 0.16115 0.00888 0.39904 0.0
H1624 H 0.13796 0.02809 0.39073 0.0
H1625 H 0.16458 0.0328 0.3463 0.0
H1626 H 0.18822 0.01392 0.3544 0.0
H1627 H 0.17968 0.88683 0.37916 0.0
H1628 H 0.18751 0.92345 0.3919 0.0
H1629 H 0.19959 0.95895 0.34957 0.0
H1630 H 0.19096 0.92205 0.33685 0.0
H1631 H 0.17396 0.97066 0.36612 0.0
H1632 H 0.2473 0.96772 0.37387 0.0
H1633 H 0.27167 0.9494 0.3815 0.0
H1634 H 0.24612 0.94343 0.42632 0.0
H1635 H 0.22132 0.96142 0.41891 0.0
C1636 C 0.22848 0.07368 0.40037 0.0
C1637 C 0.22482 0.07438 0.41575 0.0
C1638 C 0.22294 0.05225 0.39337 0.0
C1639 C 0.21366 0.03112 0.40161 0.0
C1640 C 0.21014 0.03171 0.41696 0.0
C1641 C 0.21555 0.05313 0.42396 0.0
C1642 C 0.20788 0.00845 0.39417 0.0
C1643 C 0.22053 0.99684 0.39862 0.0
C1644 C 0.191 0.999 0.38227 0.0
C1645 C 0.17663 0.01018 0.37736 0.0
C1646 C 0.16221 0.01418 0.38752 0.0
C1647 C 0.14896 0.02498 0.38285 0.0
C1648 C 0.14984 0.03171 0.36801 0.0
C1649 C 0.16393 0.0276 0.3578 0.0
C1650 C 0.17724 0.01682 0.36242 0.0
C1651 C 0.18411 0.90252 0.37261 0.0
C1652 C 0.18467 0.90169 0.35702 0.0
C1653 C 0.18864 0.92344 0.37989 0.0
C1654 C 0.19454 0.94411 0.37172 0.0
C1655 C 0.19503 0.94323 0.35612 0.0
C1656 C 0.19002 0.92214 0.34883 0.0
C1657 C 0.20002 0.96658 0.37942 0.0
C1658 C 0.18731 0.9782 0.37504 0.0
C1659 C 0.21709 0.97621 0.39127 0.0
C1660 C 0.23229 0.96573 0.3958 0.0
C1661 C 0.24678 0.96238 0.38534 0.0
C1662 C 0.26068 0.95207 0.38962 0.0
C1663 C 0.2604 0.94521 0.40438 0.0
C1664 C 0.2463 0.94873 0.41489 0.0
C1665 C 0.23234 0.95901 0.41066 0.0
H1666 H 0.27116 0.93721 0.40767 0.0
H1667 H 0.13957 0.04008 0.36441 0.0
H1668 H 0.44992 0.60146 0.27694 0.0
H1669 H 0.47999 0.63813 0.2895 0.0
H1670 H 0.53807 0.63161 0.26934 0.0
H1671 H 0.50814 0.59454 0.25713 0.0
H1672 H 0.54808 0.64451 0.29809 0.0
H1673 H 0.52146 0.67046 0.25563 0.0
H1674 H 0.49149 0.67232 0.23895 0.0
H1675 H 0.46713 0.69905 0.27481 0.0
H1676 H 0.49674 0.69703 0.29177 0.0
H1677 H 0.64358 0.76378 0.31131 0.0
H1678 H 0.61385 0.72613 0.29955 0.0
H1679 H 0.55529 0.73215 0.31943 0.0
H1680 H 0.58473 0.77003 0.33084 0.0
H1681 H 0.54574 0.7194 0.29083 0.0
H1682 H 0.57278 0.69375 0.33327 0.0
H1683 H 0.6033 0.69249 0.34974 0.0
H1684 H 0.62731 0.66561 0.31378 0.0
H1685 H 0.59714 0.66703 0.29702 0.0
C1686 C 0.46909 0.60769 0.2753 0.0
C1687 C 0.47662 0.59514 0.26595 0.0
C1688 C 0.48626 0.62877 0.28239 0.0
C1689 C 0.5113 0.63781 0.2802 0.0
C1690 C 0.51886 0.62505 0.27114 0.0
C1691 C 0.50172 0.60397 0.26406 0.0
C1692 C 0.5296 0.6607 0.28722 0.0
C1693 C 0.54775 0.66095 0.29636 0.0
C1694 C 0.52892 0.68207 0.28519 0.0
C1695 C 0.51115 0.68336 0.27501 0.0
C1696 C 0.50958 0.67655 0.25999 0.0
C1697 C 0.49268 0.67767 0.25048 0.0
C1698 C 0.47737 0.68574 0.25583 0.0
C1699 C 0.47897 0.69277 0.27069 0.0
C1700 C 0.49582 0.69166 0.28025 0.0
C1701 C 0.62438 0.75709 0.31321 0.0
C1702 C 0.61658 0.7698 0.3222 0.0
C1703 C 0.6074 0.73549 0.30653 0.0
C1704 C 0.58233 0.72615 0.30877 0.0
C1705 C 0.57452 0.73895 0.3176 0.0
C1706 C 0.59144 0.76053 0.32423 0.0
C1707 C 0.56416 0.70321 0.30175 0.0
C1708 C 0.54606 0.70296 0.29258 0.0
C1709 C 0.56491 0.68187 0.30375 0.0
C1710 C 0.58285 0.68071 0.31385 0.0
C1711 C 0.58467 0.68772 0.32884 0.0
C1712 C 0.6019 0.68696 0.33824 0.0
C1713 C 0.61728 0.67903 0.3328 0.0
C1714 C 0.6154 0.67177 0.31797 0.0
C1715 C 0.59823 0.67253 0.30852 0.0
H1716 H 0.63061 0.67848 0.34009 0.0
H1717 H 0.4643 0.68659 0.24844 0.0
H1718 H 0.42076 0.90123 0.28857 0.0
H1719 H 0.38351 0.89368 0.30123 0.0
H1720 H 0.3414 0.85705 0.2622 0.0
H1721 H 0.37876 0.86523 0.24937 0.0
H1722 H 0.32442 0.88236 0.27208 0.0
H1723 H 0.34306 0.82743 0.29532 0.0
H1724 H 0.36809 0.81378 0.30844 0.0
H1725 H 0.3756 0.85854 0.34578 0.0
H1726 H 0.3509 0.87275 0.3328 0.0
H1727 H 0.21701 0.82174 0.32614 0.0
H1728 H 0.25443 0.82439 0.3165 0.0
H1729 H 0.28607 0.90051 0.31174 0.0
H1730 H 0.24897 0.898 0.32168 0.0
H1731 H 0.30533 0.85047 0.32345 0.0
H1732 H 0.30908 0.91354 0.27618 0.0
H1733 H 0.2804 0.92155 0.26215 0.0
H1734 H 0.2224 0.8504 0.27087 0.0
H1735 H 0.25082 0.84179 0.28463 0.0
C1736 C 0.40354 0.89144 0.28271 0.0
C1737 C 0.40277 0.88379 0.26795 0.0
C1738 C 0.38216 0.88703 0.29 0.0
C1739 C 0.35937 0.8744 0.28283 0.0
C1740 C 0.35863 0.86684 0.26805 0.0
C1741 C 0.38004 0.87154 0.26069 0.0
C1742 C 0.33645 0.86961 0.29058 0.0
C1743 C 0.32038 0.87537 0.2833 0.0
C1744 C 0.33051 0.85988 0.30513 0.0
C1745 C 0.34531 0.85133 0.31301 0.0
C1746 C 0.3502 0.8345 0.30628 0.0
C1747 C 0.36431 0.82665 0.3137 0.0
C1748 C 0.37349 0.83534 0.32792 0.0
C1749 C 0.36851 0.85185 0.33476 0.0
C1750 C 0.35444 0.8598 0.32738 0.0
C1751 C 0.23222 0.83912 0.32353 0.0
C1752 C 0.23015 0.85973 0.32487 0.0
C1753 C 0.25359 0.8406 0.31795 0.0
C1754 C 0.273 0.86263 0.31325 0.0
C1755 C 0.27131 0.88331 0.3152 0.0
C1756 C 0.25012 0.88186 0.3209 0.0
C1757 C 0.29405 0.86393 0.30506 0.0
C1758 C 0.3096 0.85748 0.31223 0.0
C1759 C 0.29912 0.87225 0.29022 0.0
C1760 C 0.28206 0.87713 0.28159 0.0
C1761 C 0.29025 0.89956 0.27503 0.0
C1762 C 0.27403 0.9042 0.26711 0.0
C1763 C 0.24958 0.88651 0.26564 0.0
C1764 C 0.24132 0.8641 0.27203 0.0
C1765 C 0.25748 0.85935 0.27989 0.0
H1766 H 0.23704 0.89015 0.25954 0.0
H1767 H 0.38441 0.82923 0.33364 0.0
H1768 H 0.15312 0.54915 0.27164 0.0
H1769 H 0.16107 0.52127 0.28546 0.0
H1770 H 0.0925 0.46259 0.27024 0.0
H1771 H 0.08384 0.49049 0.25701 0.0
H1772 H 0.0986 0.45749 0.29862 0.0
H1773 H 0.14757 0.47461 0.25491 0.0
H1774 H 0.17831 0.49984 0.23644 0.0
H1775 H 0.23332 0.52813 0.27056 0.0
H1776 H 0.20282 0.50328 0.28928 0.0
H1777 H 0.12154 0.36203 0.31132 0.0
H1778 H 0.11404 0.39208 0.30005 0.0
H1779 H 0.1779 0.4479 0.32195 0.0
H1780 H 0.18562 0.41795 0.33333 0.0
H1781 H 0.1751 0.45545 0.29129 0.0
H1782 H 0.12504 0.4356 0.33473 0.0
H1783 H 0.09379 0.4083 0.35229 0.0
H1784 H 0.04001 0.38308 0.31744 0.0
H1785 H 0.07105 0.40998 0.2996 0.0
C1786 C 0.13961 0.53034 0.27135 0.0
C1787 C 0.11787 0.52206 0.26317 0.0
C1788 C 0.1443 0.51439 0.27913 0.0
C1789 C 0.12753 0.48979 0.27872 0.0
C1790 C 0.10575 0.48148 0.27066 0.0
C1791 C 0.10095 0.49744 0.26297 0.0
C1792 C 0.13259 0.47271 0.28677 0.0
C1793 C 0.11521 0.45689 0.29688 0.0
C1794 C 0.15449 0.47223 0.28475 0.0
C1795 C 0.17285 0.48728 0.27353 0.0
C1796 C 0.16618 0.48637 0.2585 0.0
C1797 C 0.18357 0.50057 0.24798 0.0
C1798 C 0.20774 0.51563 0.25233 0.0
C1799 C 0.21458 0.51649 0.26721 0.0
C1800 C 0.19725 0.50234 0.27778 0.0
C1801 C 0.13394 0.38067 0.31384 0.0
C1802 C 0.15413 0.38758 0.32328 0.0
C1803 C 0.12957 0.3978 0.30741 0.0
C1804 C 0.14535 0.42215 0.31025 0.0
C1805 C 0.16551 0.42916 0.31967 0.0
C1806 C 0.16979 0.41201 0.32622 0.0
C1807 C 0.14108 0.44026 0.30301 0.0
C1808 C 0.15858 0.45622 0.29306 0.0
C1809 C 0.1192 0.44069 0.30506 0.0
C1810 C 0.10043 0.42468 0.3158 0.0
C1811 C 0.1066 0.42411 0.33078 0.0
C1812 C 0.08891 0.40872 0.34079 0.0
C1813 C 0.06494 0.39393 0.33598 0.0
C1814 C 0.05859 0.39454 0.32115 0.0
C1815 C 0.07622 0.40987 0.31109 0.0
H1816 H 0.05128 0.38202 0.34374 0.0
H1817 H 0.22118 0.5266 0.24416 0.0
H1818 H 0.39106 0.54245 0.27688 0.0
H1819 H 0.35504 0.51277 0.29018 0.0
H1820 H 0.36315 0.45632 0.27037 0.0
H1821 H 0.39937 0.48587 0.25718 0.0
H1822 H 0.31635 0.4464 0.26917 0.0
H1823 H 0.3797 0.47344 0.30629 0.0
H1824 H 0.41325 0.5032 0.32193 0.0
H1825 H 0.36505 0.52438 0.34129 0.0
H1826 H 0.33127 0.49496 0.3256 0.0
H1827 H 0.24653 0.34975 0.31735 0.0
H1828 H 0.28285 0.38369 0.3068 0.0
H1829 H 0.25501 0.43033 0.31827 0.0
H1830 H 0.21807 0.39624 0.3282 0.0
H1831 H 0.3102 0.4468 0.3242 0.0
H1832 H 0.24759 0.42148 0.28667 0.0
H1833 H 0.21392 0.3925 0.27079 0.0
H1834 H 0.26053 0.3685 0.25248 0.0
H1835 H 0.2945 0.39736 0.26833 0.0
C1836 C 0.38534 0.52373 0.27545 0.0
C1837 C 0.3982 0.51658 0.26597 0.0
C1838 C 0.3647 0.50678 0.28305 0.0
C1839 C 0.3565 0.48231 0.28138 0.0
C1840 C 0.3691 0.4751 0.27181 0.0
C1841 C 0.38977 0.49203 0.26422 0.0
C1842 C 0.33466 0.46418 0.28949 0.0
C1843 C 0.31517 0.44641 0.28121 0.0
C1844 C 0.33275 0.46452 0.30519 0.0
C1845 C 0.35303 0.4822 0.31464 0.0
C1846 C 0.3763 0.48459 0.31378 0.0
C1847 C 0.39535 0.50137 0.32268 0.0
C1848 C 0.3913 0.51573 0.33256 0.0
C1849 C 0.36817 0.51328 0.33361 0.0
C1850 C 0.34907 0.49655 0.32472 0.0
C1851 C 0.24834 0.36732 0.31785 0.0
C1852 C 0.22961 0.37038 0.3238 0.0
C1853 C 0.26904 0.38664 0.31181 0.0
C1854 C 0.2715 0.40942 0.31172 0.0
C1855 C 0.25342 0.41285 0.31829 0.0
C1856 C 0.23242 0.39338 0.32407 0.0
C1857 C 0.29224 0.42911 0.30385 0.0
C1858 C 0.31146 0.44703 0.31216 0.0
C1859 C 0.29392 0.42903 0.28818 0.0
C1860 C 0.27348 0.41135 0.27883 0.0
C1861 C 0.25057 0.40982 0.27939 0.0
C1862 C 0.23145 0.39347 0.27036 0.0
C1863 C 0.23502 0.37854 0.26069 0.0
C1864 C 0.25776 0.38001 0.26002 0.0
C1865 C 0.27697 0.39641 0.26899 0.0
H1866 H 0.22024 0.36596 0.25366 0.0
H1867 H 0.40607 0.5287 0.33945 0.0
H1868 H 0.48859 0.86681 0.2492 0.0
H1869 H 0.51875 0.8598 0.26171 0.0
H1870 H 0.51175 0.89321 0.30153 0.0
H1871 H 0.4813 0.89998 0.28911 0.0
H1872 H 0.56163 0.88792 0.27196 0.0
H1873 H 0.52463 0.8703 0.33245 0.0
H1874 H 0.48522 0.85309 0.34541 0.0
H1875 H 0.4487 0.81103 0.30676 0.0
H1876 H 0.4879 0.82769 0.29365 0.0
H1877 H 0.65425 0.8993 0.3205 0.0
H1878 H 0.62024 0.90289 0.31041 0.0
H1879 H 0.57327 0.82669 0.31394 0.0
H1880 H 0.60729 0.82306 0.32393 0.0
H1881 H 0.54919 0.85049 0.32167 0.0
H1882 H 0.59741 0.84967 0.28136 0.0
H1883 H 0.63529 0.86229 0.26738 0.0
H1884 H 0.64577 0.933 0.26337 0.0
H1885 H 0.60814 0.92089 0.27755 0.0
C1886 C 0.49349 0.87271 0.26062 0.0
C1887 C 0.48248 0.88398 0.26813 0.0
C1888 C 0.51075 0.86865 0.26779 0.0
C1889 C 0.51751 0.87575 0.28265 0.0
C1890 C 0.50658 0.88708 0.29017 0.0
C1891 C 0.48915 0.89098 0.28304 0.0
C1892 C 0.53646 0.87189 0.29007 0.0
C1893 C 0.55881 0.87975 0.28284 0.0
C1894 C 0.53285 0.86081 0.30417 0.0
C1895 C 0.50919 0.8505 0.31201 0.0
C1896 C 0.5082 0.85733 0.32673 0.0
C1897 C 0.48589 0.84767 0.3341 0.0
C1898 C 0.46446 0.83106 0.32689 0.0
C1899 C 0.4653 0.82398 0.31231 0.0
C1900 C 0.48755 0.83355 0.3049 0.0
C1901 C 0.63656 0.88337 0.31931 0.0
C1902 C 0.63335 0.86098 0.32325 0.0
C1903 C 0.61716 0.88542 0.31352 0.0
C1904 C 0.59419 0.86504 0.3113 0.0
C1905 C 0.59076 0.84268 0.31559 0.0
C1906 C 0.61022 0.84063 0.32136 0.0
C1907 C 0.57431 0.86697 0.30365 0.0
C1908 C 0.55189 0.85874 0.31082 0.0
C1909 C 0.57756 0.87713 0.28931 0.0
C1910 C 0.60007 0.88443 0.28064 0.0
C1911 C 0.60788 0.86796 0.27759 0.0
C1912 C 0.6293 0.87501 0.26962 0.0
C1913 C 0.64295 0.89845 0.26452 0.0
C1914 C 0.63519 0.91486 0.26734 0.0
C1915 C 0.61381 0.90791 0.27534 0.0
H1916 H 0.65953 0.90388 0.25835 0.0
H1917 H 0.44721 0.82362 0.33261 0.0
H1918 H 0.0869 0.59979 0.25318 0.0
H1919 H 0.09645 0.63764 0.26485 0.0
H1920 H 0.1633 0.64501 0.28238 0.0
H1921 H 0.15429 0.60746 0.27035 0.0
H1922 H 0.13624 0.65243 0.30357 0.0
H1923 H 0.16708 0.68019 0.25479 0.0
H1924 H 0.16647 0.68151 0.22739 0.0
H1925 H 0.10682 0.69519 0.22882 0.0
H1926 H 0.10696 0.69378 0.25624 0.0
H1927 H 0.18529 0.77118 0.32945 0.0
H1928 H 0.17878 0.73527 0.31656 0.0
H1929 H 0.11436 0.72858 0.29548 0.0
H1930 H 0.12103 0.76493 0.30814 0.0
H1931 H 0.14157 0.72123 0.27593 0.0
H1932 H 0.11081 0.69301 0.3251 0.0
H1933 H 0.1133 0.69358 0.3525 0.0
H1934 H 0.17396 0.68149 0.35031 0.0
H1935 H 0.17203 0.68115 0.32289 0.0
C1936 C 0.10386 0.60963 0.25928 0.0
C1937 C 0.11987 0.60059 0.26079 0.0
C1938 C 0.10923 0.63123 0.26599 0.0
C1939 C 0.13065 0.64416 0.27437 0.0
C1940 C 0.14666 0.63524 0.27595 0.0
C1941 C 0.14141 0.61372 0.26914 0.0
C1942 C 0.13579 0.66654 0.28196 0.0
C1943 C 0.13775 0.66762 0.29753 0.0
C1944 C 0.13725 0.6861 0.27406 0.0
C1945 C 0.13685 0.6866 0.25757 0.0
C1946 C 0.15367 0.68323 0.24926 0.0
C1947 C 0.15346 0.68407 0.23372 0.0
C1948 C 0.13656 0.68834 0.22637 0.0
C1949 C 0.11985 0.69181 0.23453 0.0
C1950 C 0.12003 0.69105 0.25007 0.0
C1951 C 0.16959 0.76199 0.32218 0.0
C1952 C 0.15352 0.77077 0.31993 0.0
C1953 C 0.1659 0.74144 0.31482 0.0
C1954 C 0.14589 0.72906 0.30523 0.0
C1955 C 0.12989 0.73785 0.30287 0.0
C1956 C 0.13368 0.75856 0.31014 0.0
C1957 C 0.14178 0.70705 0.29756 0.0
C1958 C 0.14003 0.70603 0.28198 0.0
C1959 C 0.14054 0.68755 0.30545 0.0
C1960 C 0.14138 0.68722 0.32194 0.0
C1961 C 0.12474 0.69057 0.33046 0.0
C1962 C 0.12604 0.69083 0.34599 0.0
C1963 C 0.14378 0.68758 0.35314 0.0
C1964 C 0.16022 0.68399 0.34476 0.0
C1965 C 0.15901 0.68372 0.32923 0.0
H1966 H 0.14479 0.68785 0.36516 0.0
H1967 H 0.13647 0.68905 0.21434 0.0
H1968 H 0.86771 0.08835 0.39316 0.0
H1969 H 0.83754 0.05101 0.38159 0.0
H1970 H 0.82765 0.01442 0.42326 0.0
H1971 H 0.85897 0.05155 0.43476 0.0
H1972 H 0.8267 0.98691 0.40108 0.0
H1973 H 0.78715 0.03194 0.41117 0.0
H1974 H 0.78163 0.06709 0.41078 0.0
H1975 H 0.77886 0.06473 0.36305 0.0
H1976 H 0.78471 0.02974 0.36314 0.0
H1977 H 0.7099 0.88741 0.38116 0.0
H1978 H 0.7413 0.92381 0.39357 0.0
H1979 H 0.76396 0.95861 0.35104 0.0
H1980 H 0.7327 0.92227 0.33866 0.0
H1981 H 0.75759 0.98606 0.37437 0.0
H1982 H 0.7969 0.94012 0.36485 0.0
H1983 H 0.80051 0.90391 0.36589 0.0
H1984 H 0.80189 0.90701 0.41362 0.0
H1985 H 0.79774 0.94299 0.41287 0.0
C1986 C 0.85952 0.07232 0.39984 0.0
C1987 C 0.86579 0.07308 0.41495 0.0
C1988 C 0.84199 0.05099 0.39323 0.0
C1989 C 0.82994 0.02996 0.40162 0.0
C1990 C 0.83657 0.03044 0.41658 0.0
C1991 C 0.85432 0.05177 0.42318 0.0
C1992 C 0.81005 0.00769 0.39481 0.0
C1993 C 0.81143 0.98667 0.39542 0.0
C1994 C 0.79021 0.00736 0.38726 0.0
C1995 C 0.78659 0.02835 0.38716 0.0
C1996 C 0.78554 0.03902 0.40059 0.0
C1997 C 0.78233 0.0589 0.40042 0.0
C1998 C 0.77996 0.06817 0.3869 0.0
C1999 C 0.78073 0.05754 0.37351 0.0
C2000 C 0.78397 0.03767 0.37361 0.0
C2001 C 0.72153 0.90292 0.37451 0.0
C2002 C 0.71921 0.90204 0.35895 0.0
C2003 C 0.73948 0.92358 0.38158 0.0
C2004 C 0.75505 0.94376 0.37319 0.0
C2005 C 0.75221 0.94314 0.35768 0.0
C2006 C 0.73455 0.92235 0.35061 0.0
C2007 C 0.77442 0.96552 0.38056 0.0
C2008 C 0.77287 0.98638 0.38007 0.0
C2009 C 0.7939 0.96559 0.38832 0.0
C2010 C 0.79672 0.94412 0.38881 0.0
C2011 C 0.79773 0.93296 0.37558 0.0
C2012 C 0.79991 0.91249 0.37611 0.0
C2013 C 0.80138 0.90314 0.38981 0.0
C2014 C 0.80072 0.91426 0.40301 0.0
C2015 C 0.79845 0.9347 0.40254 0.0
H2016 H 0.80309 0.88731 0.39019 0.0
H2017 H 0.77747 0.08356 0.38679 0.0
H2018 H 0.93766 0.76142 0.42163 0.0
H2019 H 0.97432 0.76792 0.40877 0.0
H2020 H 0.97946 0.82954 0.38699 0.0
H2021 H 0.94337 0.82387 0.40026 0.0
H2022 H 0.9837 0.79796 0.36745 0.0
H2023 H 0.01814 0.83705 0.4142 0.0
H2024 H 0.02289 0.84025 0.44148 0.0
H2025 H 0.03967 0.78359 0.44167 0.0
H2026 H 0.03458 0.77974 0.41441 0.0
H2027 H 0.1175 0.84861 0.35034 0.0
H2028 H 0.07922 0.84491 0.35952 0.0
H2029 H 0.0506 0.76969 0.36658 0.0
H2030 H 0.0882 0.77305 0.35684 0.0
H2031 H 0.05864 0.81003 0.39282 0.0
H2032 H 0.01742 0.76502 0.34862 0.0
H2033 H 0.00536 0.75484 0.32236 0.0
H2034 H 0.99759 0.81685 0.318 0.0
H2035 H 0.01005 0.82761 0.34421 0.0
C2036 C 0.94676 0.77668 0.41435 0.0
C2037 C 0.93733 0.79213 0.41209 0.0
C2038 C 0.96774 0.78029 0.40692 0.0
C2039 C 0.9798 0.79931 0.39695 0.0
C2040 C 0.97048 0.81471 0.3946 0.0
C2041 C 0.94966 0.81131 0.40216 0.0
C2042 C 1.00157 0.8026 0.38859 0.0
C2043 C 1.00027 0.80104 0.373 0.0
C2044 C 0.0229 0.8058 0.39583 0.0
C2045 C 0.02573 0.80795 0.41225 0.0
C2046 C 0.02258 0.82509 0.42007 0.0
C2047 C 0.02538 0.82705 0.43553 0.0
C2048 C 0.03152 0.81209 0.44331 0.0
C2049 C 0.03488 0.79514 0.43564 0.0
C2050 C 0.03204 0.79307 0.42018 0.0
C2051 C 0.10269 0.83115 0.35331 0.0
C2052 C 0.10572 0.81102 0.35261 0.0
C2053 C 0.08085 0.82906 0.3586 0.0
C2054 C 0.06186 0.80693 0.36352 0.0
C2055 C 0.06475 0.78682 0.36256 0.0
C2056 C 0.08631 0.78881 0.35706 0.0
C2057 C 0.04072 0.80536 0.3717 0.0
C2058 C 0.04219 0.80728 0.38728 0.0
C2059 C 0.01932 0.80193 0.36448 0.0
C2060 C 0.01524 0.79743 0.34828 0.0
C2061 C 0.01384 0.77687 0.34196 0.0
C2062 C 0.00659 0.7708 0.32713 0.0
C2063 C 1.00056 0.7851 0.31853 0.0
C2064 C 1.00216 0.80573 0.32468 0.0
C2065 C 0.00943 0.81188 0.3395 0.0
H2066 H 0.99484 0.78032 0.30708 0.0
H2067 H 0.03373 0.81367 0.45528 0.0
H2068 H 0.23201 0.14312 0.3924 0.0
H2069 H 0.22145 0.16996 0.37988 0.0
H2070 H 0.21551 0.19795 0.42232 0.0
H2071 H 0.22316 0.16919 0.43499 0.0
H2072 H 0.18217 0.19502 0.40688 0.0
H2073 H 0.26663 0.228 0.39717 0.0
H2074 H 0.30406 0.22881 0.38884 0.0
H2075 H 0.27531 0.2109 0.3444 0.0
H2076 H 0.23756 0.20969 0.35251 0.0
H2077 H 0.21952 0.31081 0.36383 0.0
H2078 H 0.22823 0.28264 0.37651 0.0
H2079 H 0.15854 0.22436 0.3626 0.0
H2080 H 0.14967 0.2526 0.34957 0.0
H2081 H 0.23014 0.24362 0.36401 0.0
H2082 H 0.13982 0.18796 0.39779 0.0
H2083 H 0.11043 0.19387 0.41248 0.0
H2084 H 0.1616 0.26895 0.41566 0.0
H2085 H 0.19152 0.26344 0.40136 0.0
C2086 C 0.22798 0.15458 0.39915 0.0
C2087 C 0.22844 0.15376 0.4148 0.0
C2088 C 0.2224 0.17035 0.39191 0.0
C2089 C 0.21811 0.1864 0.40009 0.0
C2090 C 0.21877 0.18581 0.4157 0.0
C2091 C 0.22359 0.16953 0.42296 0.0
C2092 C 0.21248 0.20349 0.39245 0.0
C2093 C 0.19262 0.20553 0.39746 0.0
C2094 C 0.2265 0.21781 0.38041 0.0
C2095 C 0.24917 0.21851 0.37548 0.0
C2096 C 0.26822 0.22407 0.38564 0.0
C2097 C 0.2895 0.22462 0.38096 0.0
C2098 C 0.29203 0.21984 0.36611 0.0
C2099 C 0.27331 0.21456 0.3559 0.0
C2100 C 0.25197 0.21395 0.36053 0.0
C2101 C 0.20601 0.29201 0.36338 0.0
C2102 C 0.18388 0.28393 0.35569 0.0
C2103 C 0.21106 0.27595 0.37065 0.0
C2104 C 0.19394 0.25152 0.37061 0.0
C2105 C 0.17188 0.24323 0.36284 0.0
C2106 C 0.16693 0.25933 0.35533 0.0
C2107 C 0.19972 0.23479 0.37836 0.0
C2108 C 0.21955 0.23281 0.37332 0.0
C2109 C 0.18648 0.22149 0.39087 0.0
C2110 C 0.16776 0.22532 0.39823 0.0
C2111 C 0.14475 0.20576 0.40155 0.0
C2112 C 0.12809 0.209 0.40995 0.0
C2113 C 0.13422 0.23175 0.41511 0.0
C2114 C 0.15693 0.25133 0.41174 0.0
C2115 C 0.1737 0.24817 0.4034 0.0
H2116 H 0.12129 0.23425 0.42158 0.0
H2117 H 0.30853 0.22029 0.3625 0.0
H2118 H 0.60042 0.51726 0.74806 0.0
H2119 H 0.63611 0.54557 0.73388 0.0
H2120 H 0.65245 0.48982 0.72384 0.0
H2121 H 0.61671 0.46134 0.73808 0.0
H2122 H 0.69344 0.53322 0.73324 0.0
H2123 H 0.62846 0.50605 0.69748 0.0
H2124 H 0.58807 0.49707 0.68823 0.0
H2125 H 0.60841 0.57084 0.69308 0.0
H2126 H 0.64881 0.58021 0.70258 0.0
H2127 H 0.78736 0.60697 0.68391 0.0
H2128 H 0.74953 0.57263 0.69239 0.0
H2129 H 0.7194 0.61851 0.70044 0.0
H2130 H 0.75695 0.65273 0.69136 0.0
H2131 H 0.68494 0.57664 0.69028 0.0
H2132 H 0.74687 0.60374 0.72836 0.0
H2133 H 0.78706 0.6143 0.73884 0.0
H2134 H 0.77257 0.54282 0.73099 0.0
H2135 H 0.73237 0.5319 0.72029 0.0
C2136 C 0.61168 0.51106 0.7429 0.0
C2137 C 0.60574 0.48707 0.74416 0.0
C2138 C 0.63197 0.5272 0.73472 0.0
C2139 C 0.64682 0.51975 0.7277 0.0
C2140 C 0.64118 0.49591 0.72912 0.0
C2141 C 0.62071 0.47966 0.73718 0.0
C2142 C 0.66825 0.53698 0.71894 0.0
C2143 C 0.6916 0.5424 0.72367 0.0
C2144 C 0.66583 0.54934 0.70667 0.0
C2145 C 0.6416 0.54379 0.70086 0.0
C2146 C 0.62426 0.52033 0.69669 0.0
C2147 C 0.60137 0.51517 0.69138 0.0
C2148 C 0.59566 0.53336 0.69009 0.0
C2149 C 0.61285 0.55676 0.69408 0.0
C2150 C 0.63576 0.56201 0.69942 0.0
C2151 C 0.77243 0.60961 0.68702 0.0
C2152 C 0.77496 0.63247 0.68677 0.0
C2153 C 0.75088 0.59 0.69206 0.0
C2154 C 0.73174 0.59303 0.69732 0.0
C2155 C 0.73389 0.61569 0.69645 0.0
C2156 C 0.75534 0.63524 0.6913 0.0
C2157 C 0.7102 0.57315 0.70468 0.0
C2158 C 0.68682 0.56725 0.69972 0.0
C2159 C 0.71261 0.56059 0.71687 0.0
C2160 C 0.73672 0.56707 0.72338 0.0
C2161 C 0.75232 0.59032 0.72877 0.0
C2162 C 0.77509 0.59636 0.73477 0.0
C2163 C 0.78239 0.57926 0.73555 0.0
C2164 C 0.7669 0.55605 0.73036 0.0
C2165 C 0.74412 0.54992 0.72434 0.0
H2166 H 0.80001 0.58396 0.74021 0.0
H2167 H 0.57793 0.52933 0.68598 0.0
H2168 H 0.51358 0.13043 0.76178 0.0
H2169 H 0.48214 0.13535 0.74929 0.0
H2170 H 0.50037 0.11539 0.70751 0.0
H2171 H 0.53062 0.10881 0.72007 0.0
H2172 H 0.48087 0.16275 0.72902 0.0
H2173 H 0.45145 0.08749 0.68505 0.0
H2174 H 0.44965 0.04867 0.68211 0.0
H2175 H 0.44535 0.03946 0.7295 0.0
H2176 H 0.4468 0.07806 0.7327 0.0
H2177 H 0.39789 0.17624 0.68485 0.0
H2178 H 0.43239 0.17109 0.69089 0.0
H2179 H 0.38289 0.09885 0.70488 0.0
H2180 H 0.34865 0.10263 0.69576 0.0
H2181 H 0.41915 0.09816 0.69691 0.0
H2182 H 0.41287 0.15574 0.72934 0.0
H2183 H 0.40882 0.19177 0.73025 0.0
H2184 H 0.47871 0.23261 0.70964 0.0
H2185 H 0.48298 0.19672 0.70835 0.0
C2186 C 0.51073 0.12674 0.74997 0.0
C2187 C 0.52464 0.11893 0.74204 0.0
C2188 C 0.49287 0.12986 0.74278 0.0
C2189 C 0.48848 0.12541 0.72745 0.0
C2190 C 0.50293 0.11849 0.71939 0.0
C2191 C 0.52057 0.11505 0.7266 0.0
C2192 C 0.46852 0.12759 0.71999 0.0
C2193 C 0.46733 0.14854 0.72207 0.0
C2194 C 0.45063 0.10912 0.71092 0.0
C2195 C 0.44951 0.08578 0.70911 0.0
C2196 C 0.45004 0.07714 0.69483 0.0
C2197 C 0.44909 0.05518 0.69312 0.0
C2198 C 0.44748 0.04165 0.70561 0.0
C2199 C 0.4467 0.05 0.71984 0.0
C2200 C 0.44761 0.07192 0.7216 0.0
C2201 C 0.39442 0.15888 0.6884 0.0
C2202 C 0.37055 0.13957 0.68916 0.0
C2203 C 0.41423 0.15613 0.69242 0.0
C2204 C 0.41055 0.13488 0.69906 0.0
C2205 C 0.38658 0.11553 0.69985 0.0
C2206 C 0.3669 0.11776 0.69476 0.0
C2207 C 0.43117 0.13316 0.7061 0.0
C2208 C 0.43259 0.11234 0.70392 0.0
C2209 C 0.44878 0.15138 0.7155 0.0
C2210 C 0.44814 0.17356 0.71865 0.0
C2211 C 0.42753 0.17251 0.72523 0.0
C2212 C 0.42509 0.19281 0.72565 0.0
C2213 C 0.44335 0.21432 0.7198 0.0
C2214 C 0.4645 0.21584 0.71402 0.0
C2215 C 0.46698 0.19555 0.71348 0.0
H2216 H 0.44115 0.22985 0.71979 0.0
H2217 H 0.44676 0.02467 0.70427 0.0
H2218 H 0.91983 0.40837 0.75477 0.0
H2219 H 0.91317 0.37134 0.74287 0.0
H2220 H 0.83817 0.35077 0.73442 0.0
H2221 H 0.84486 0.388 0.74608 0.0
H2222 H 0.84861 0.31394 0.74777 0.0
H2223 H 0.87116 0.37066 0.70705 0.0
H2224 H 0.8982 0.40901 0.69481 0.0
H2225 H 0.957 0.39404 0.69641 0.0
H2226 H 0.93038 0.35575 0.70889 0.0
H2227 H 0.81536 0.22572 0.68897 0.0
H2228 H 0.82203 0.26081 0.70344 0.0
H2229 H 0.89662 0.27945 0.71135 0.0
H2230 H 0.88998 0.2442 0.69733 0.0
H2231 H 0.88748 0.31695 0.6994 0.0
H2232 H 0.86772 0.26084 0.73778 0.0
H2233 H 0.84547 0.22432 0.75266 0.0
H2234 H 0.78693 0.2388 0.75873 0.0
H2235 H 0.80841 0.27501 0.74341 0.0
C2236 C 0.90193 0.39587 0.75041 0.0
C2237 C 0.88285 0.40095 0.75127 0.0
C2238 C 0.89817 0.37482 0.74363 0.0
C2239 C 0.87519 0.35843 0.73782 0.0
C2240 C 0.85599 0.36325 0.7389 0.0
C2241 C 0.85986 0.3845 0.74545 0.0
C2242 C 0.87137 0.33652 0.73024 0.0
C2243 C 0.85668 0.31441 0.73707 0.0
C2244 C 0.88293 0.33753 0.71664 0.0
C2245 C 0.89886 0.36047 0.70905 0.0
C2246 C 0.88992 0.37565 0.70492 0.0
C2247 C 0.90516 0.39735 0.69791 0.0
C2248 C 0.92932 0.40399 0.69487 0.0
C2249 C 0.93828 0.3889 0.69879 0.0
C2250 C 0.92313 0.36719 0.70582 0.0
C2251 C 0.83318 0.23736 0.69377 0.0
C2252 C 0.85219 0.23231 0.69202 0.0
C2253 C 0.83689 0.25721 0.70212 0.0
C2254 C 0.85972 0.27244 0.70858 0.0
C2255 C 0.87882 0.26771 0.70656 0.0
C2256 C 0.875 0.24763 0.69853 0.0
C2257 C 0.86414 0.29411 0.71672 0.0
C2258 C 0.87911 0.31628 0.71003 0.0
C2259 C 0.85324 0.2931 0.73062 0.0
C2260 C 0.83951 0.27047 0.7391 0.0
C2261 C 0.84983 0.25597 0.74193 0.0
C2262 C 0.8374 0.23535 0.75053 0.0
C2263 C 0.81475 0.22918 0.75659 0.0
C2264 C 0.80447 0.24359 0.75403 0.0
C2265 C 0.81672 0.26411 0.74531 0.0
H2266 H 0.80522 0.21327 0.7633 0.0
H2267 H 0.94109 0.4208 0.68944 0.0
H2268 H 0.17656 0.92427 0.59106 0.0
H2269 H 0.20657 0.96172 0.60275 0.0
H2270 H 0.14874 0.97062 0.62103 0.0
H2271 H 0.11855 0.93353 0.60888 0.0
H2272 H 0.18388 0.01183 0.6098 0.0
H2273 H 0.1806 0.95208 0.6427 0.0
H2274 H 0.18203 0.9159 0.64956 0.0
H2275 H 0.25563 0.94785 0.63395 0.0
H2276 H 0.25452 0.98412 0.62679 0.0
H2277 H 0.25342 0.10074 0.66329 0.0
H2278 H 0.22426 0.06328 0.65135 0.0
H2279 H 0.28322 0.05808 0.63136 0.0
H2280 H 0.31272 0.09554 0.64352 0.0
H2281 H 0.24806 0.01528 0.64323 0.0
H2282 H 0.25122 0.07541 0.61068 0.0
H2283 H 0.24979 0.11185 0.60457 0.0
H2284 H 0.17614 0.07921 0.62018 0.0
H2285 H 0.17725 0.04266 0.62658 0.0
C2286 C 0.17019 0.93427 0.59745 0.0
C2287 C 0.14511 0.92587 0.59901 0.0
C2288 C 0.18739 0.95559 0.60427 0.0
C2289 C 0.17993 0.96888 0.61292 0.0
C2290 C 0.15493 0.96063 0.61444 0.0
C2291 C 0.13769 0.93931 0.60761 0.0
C2292 C 0.19823 0.99146 0.62027 0.0
C2293 C 0.1977 0.01251 0.61726 0.0
C2294 C 0.21665 0.99249 0.62974 0.0
C2295 C 0.21739 0.97073 0.63407 0.0
C2296 C 0.19703 0.95132 0.64061 0.0
C2297 C 0.19779 0.93081 0.64458 0.0
C2298 C 0.21888 0.92955 0.64216 0.0
C2299 C 0.23929 0.94884 0.6358 0.0
C2300 C 0.23861 0.96938 0.63179 0.0
C2301 C 0.26029 0.09161 0.65646 0.0
C2302 C 0.28547 0.10113 0.65443 0.0
C2303 C 0.24353 0.07024 0.64955 0.0
C2304 C 0.25155 0.058 0.64036 0.0
C2305 C 0.27666 0.06727 0.63841 0.0
C2306 C 0.29348 0.08873 0.64531 0.0
C2307 C 0.23364 0.03555 0.63277 0.0
C2308 C 0.23425 0.01456 0.63573 0.0
C2309 C 0.21526 0.03456 0.6233 0.0
C2310 C 0.21439 0.05636 0.61923 0.0
C2311 C 0.23476 0.07605 0.61289 0.0
C2312 C 0.23401 0.09672 0.60937 0.0
C2313 C 0.2129 0.09787 0.61202 0.0
C2314 C 0.19248 0.0783 0.61815 0.0
C2315 C 0.19315 0.05759 0.62171 0.0
H2316 H 0.21236 0.1139 0.60929 0.0
H2317 H 0.21944 0.91365 0.64524 0.0
H2318 H 0.04918 0.20383 0.58145 0.0
H2319 H 0.01357 0.19919 0.59458 0.0
H2320 H 0.05293 0.21493 0.63614 0.0
H2321 H 0.08933 0.22201 0.62297 0.0
H2322 H 0.98387 0.17153 0.61332 0.0
H2323 H 0.03327 0.23942 0.66125 0.0
H2324 H 0.07175 0.27702 0.6658 0.0
H2325 H 0.07749 0.29313 0.61919 0.0
H2326 H 0.0389 0.25579 0.61439 0.0
H2327 H 0.89035 0.15728 0.66206 0.0
H2328 H 0.92838 0.16066 0.65316 0.0
H2329 H 0.95441 0.23423 0.64149 0.0
H2330 H 0.91736 0.23138 0.65157 0.0
H2331 H 0.99074 0.23213 0.64995 0.0
H2332 H 0.92599 0.18429 0.61572 0.0
H2333 H 0.88572 0.15051 0.60877 0.0
H2334 H 0.90848 0.10101 0.62242 0.0
H2335 H 0.9488 0.13453 0.62964 0.0
C2336 C 0.05058 0.20689 0.59334 0.0
C2337 C 0.07257 0.21366 0.601 0.0
C2338 C 0.02991 0.20381 0.60091 0.0
C2339 C 0.03042 0.20704 0.61641 0.0
C2340 C 0.05202 0.21288 0.62416 0.0
C2341 C 0.07287 0.21653 0.61657 0.0
C2342 C 0.00855 0.2047 0.62434 0.0
C2343 C 0.98546 0.18483 0.62133 0.0
C2344 C 0.01022 0.22211 0.63467 0.0
C2345 C 0.03336 0.24468 0.63745 0.0
C2346 C 0.04272 0.25103 0.65198 0.0
C2347 C 0.06455 0.27228 0.65461 0.0
C2348 C 0.0771 0.2874 0.64279 0.0
C2349 C 0.0678 0.28135 0.62832 0.0
C2350 C 0.04597 0.26014 0.62565 0.0
C2351 C 0.90452 0.17436 0.65803 0.0
C2352 C 0.90102 0.19419 0.65775 0.0
C2353 C 0.92614 0.17619 0.65269 0.0
C2354 C 0.94424 0.19758 0.64627 0.0
C2355 C 0.94091 0.21751 0.64635 0.0
C2356 C 0.91963 0.21585 0.65206 0.0
C2357 C 0.9661 0.19912 0.63884 0.0
C2358 C 0.98918 0.21879 0.64199 0.0
C2359 C 0.96425 0.18209 0.62815 0.0
C2360 C 0.94033 0.16191 0.62334 0.0
C2361 C 0.92238 0.1662 0.61727 0.0
C2362 C 0.89954 0.1471 0.6133 0.0
C2363 C 0.89452 0.12363 0.6152 0.0
C2364 C 0.91239 0.11921 0.62098 0.0
C2365 C 0.93525 0.13825 0.625 0.0
H2366 H 0.8768 0.10886 0.61218 0.0
H2367 H 0.09401 0.30384 0.64484 0.0
H2368 H 0.81319 0.87703 0.60433 0.0
H2369 H 0.82262 0.84967 0.61752 0.0
H2370 H 0.75255 0.79046 0.60494 0.0
H2371 H 0.74252 0.81791 0.59229 0.0
H2372 H 0.7616 0.78723 0.63328 0.0
H2373 H 0.80542 0.80042 0.58776 0.0
H2374 H 0.8339 0.82403 0.56785 0.0
H2375 H 0.89269 0.85522 0.5995 0.0
H2376 H 0.86449 0.83199 0.61964 0.0
H2377 H 0.7859 0.69281 0.64632 0.0
H2378 H 0.7773 0.72208 0.635 0.0
H2379 H 0.84314 0.77927 0.65429 0.0
H2380 H 0.85197 0.75005 0.66575 0.0
H2381 H 0.83712 0.7844 0.62343 0.0
H2382 H 0.79203 0.76839 0.66879 0.0
H2383 H 0.76283 0.74268 0.6878 0.0
H2384 H 0.7053 0.71464 0.65525 0.0
H2385 H 0.73426 0.73991 0.63597 0.0
C2386 C 0.7997 0.85821 0.60445 0.0
C2387 C 0.77707 0.84966 0.59726 0.0
C2388 C 0.80523 0.84255 0.61187 0.0
C2389 C 0.7884 0.81797 0.61209 0.0
C2390 C 0.76584 0.80936 0.60489 0.0
C2391 C 0.76023 0.82503 0.59753 0.0
C2392 C 0.79416 0.80133 0.62007 0.0
C2393 C 0.77797 0.78642 0.63099 0.0
C2394 C 0.81579 0.80063 0.61731 0.0
C2395 C 0.83279 0.81466 0.60523 0.0
C2396 C 0.82438 0.81246 0.5905 0.0
C2397 C 0.84048 0.82574 0.57916 0.0
C2398 C 0.86508 0.84117 0.58241 0.0
C2399 C 0.87363 0.84329 0.597 0.0
C2400 C 0.8576 0.83005 0.60838 0.0
C2401 C 0.79852 0.71159 0.64825 0.0
C2402 C 0.8196 0.7191 0.65696 0.0
C2403 C 0.79352 0.72829 0.6418 0.0
C2404 C 0.80953 0.75278 0.64388 0.0
C2405 C 0.83056 0.76041 0.6526 0.0
C2406 C 0.83548 0.74369 0.65919 0.0
C2407 C 0.80452 0.77034 0.63655 0.0
C2408 C 0.82084 0.78537 0.62575 0.0
C2409 C 0.78289 0.77095 0.63929 0.0
C2410 C 0.76537 0.75591 0.65091 0.0
C2411 C 0.7732 0.75661 0.66566 0.0
C2412 C 0.75668 0.74213 0.67649 0.0
C2413 C 0.73223 0.727 0.67273 0.0
C2414 C 0.72425 0.72636 0.65814 0.0
C2415 C 0.7407 0.74077 0.64726 0.0
H2416 H 0.71947 0.7158 0.68113 0.0
H2417 H 0.87751 0.85144 0.57362 0.0
H2418 H 0.05769 0.87381 0.6092 0.0
H2419 H 0.02167 0.84465 0.6228 0.0
H2420 H 0.03318 0.788 0.60698 0.0
H2421 H 0.06901 0.81701 0.59328 0.0
H2422 H 0.98692 0.77488 0.60465 0.0
H2423 H 0.04773 0.81084 0.64312 0.0
H2424 H 0.07908 0.84394 0.65818 0.0
H2425 H 0.02623 0.86276 0.67246 0.0
H2426 H 0.99463 0.82996 0.6573 0.0
H2427 H 0.91428 0.68211 0.65311 0.0
H2428 H 0.95186 0.71597 0.64371 0.0
H2429 H 0.92301 0.76279 0.65204 0.0
H2430 H 0.88506 0.72882 0.66103 0.0
H2431 H 0.97659 0.78226 0.65877 0.0
H2432 H 0.9159 0.74595 0.62015 0.0
H2433 H 0.88446 0.71147 0.60608 0.0
H2434 H 0.93772 0.69272 0.5926 0.0
H2435 H 0.96943 0.72689 0.60686 0.0
C2436 C 0.0526 0.85515 0.6087 0.0
C2437 C 0.06621 0.84773 0.60015 0.0
C2438 C 0.03203 0.83849 0.6165 0.0
C2439 C 0.02482 0.8141 0.61607 0.0
C2440 C 0.03831 0.80668 0.60747 0.0
C2441 C 0.05877 0.82329 0.5996 0.0
C2442 C 0.00303 0.79618 0.62437 0.0
C2443 C 0.98487 0.77646 0.61651 0.0
C2444 C 0.99992 0.79842 0.6398 0.0
C2445 C 0.01889 0.81812 0.64893 0.0
C2446 C 0.04284 0.82216 0.64937 0.0
C2447 C 0.06065 0.84085 0.65794 0.0
C2448 C 0.05467 0.85549 0.66623 0.0
C2449 C 0.03085 0.85143 0.666 0.0
C2450 C 0.01298 0.83279 0.65743 0.0
C2451 C 0.91619 0.69973 0.65323 0.0
C2452 C 0.8969 0.70289 0.65796 0.0
C2453 C 0.93763 0.71902 0.6479 0.0
C2454 C 0.94013 0.74181 0.64715 0.0
C2455 C 0.92146 0.74534 0.65262 0.0
C2456 C 0.89982 0.72594 0.6578 0.0
C2457 C 0.96096 0.76107 0.63904 0.0
C2458 C 0.97876 0.78092 0.6469 0.0
C2459 C 0.96384 0.759 0.62362 0.0
C2460 C 0.94499 0.73884 0.61469 0.0
C2461 C 0.92088 0.73437 0.61427 0.0
C2462 C 0.903 0.71489 0.60626 0.0
C2463 C 0.90906 0.69986 0.59848 0.0
C2464 C 0.93304 0.70436 0.59865 0.0
C2465 C 0.95098 0.72379 0.60669 0.0
H2466 H 0.89519 0.68474 0.59231 0.0
H2467 H 0.06848 0.86995 0.67286 0.0
H2468 H 0.18321 0.24171 0.58902 0.0
H2469 H 0.21345 0.23516 0.60172 0.0
H2470 H 0.15644 0.17615 0.6256 0.0
H2471 H 0.12582 0.18158 0.61236 0.0
H2472 H 0.19591 0.21114 0.64377 0.0
H2473 H 0.1826 0.16284 0.60021 0.0
H2474 H 0.17985 0.15454 0.57327 0.0
H2475 H 0.25465 0.20895 0.56808 0.0
H2476 H 0.25774 0.21784 0.59496 0.0
H2477 H 0.27438 0.15515 0.6602 0.0
H2478 H 0.24047 0.15983 0.65113 0.0
H2479 H 0.28971 0.2349 0.6445 0.0
H2480 H 0.32334 0.23062 0.65447 0.0
H2481 H 0.25267 0.19069 0.61864 0.0
H2482 H 0.26479 0.2427 0.66117 0.0
H2483 H 0.26598 0.25552 0.6871 0.0
H2484 H 0.19303 0.19789 0.69366 0.0
H2485 H 0.19182 0.18412 0.66789 0.0
C2486 C 0.17689 0.22695 0.59669 0.0
C2487 C 0.15182 0.21219 0.59956 0.0
C2488 C 0.19433 0.22336 0.60405 0.0
C2489 C 0.18723 0.20514 0.6146 0.0
C2490 C 0.16234 0.19038 0.61753 0.0
C2491 C 0.14484 0.19368 0.61 0.0
C2492 C 0.20585 0.2021 0.62294 0.0
C2493 C 0.20812 0.20633 0.63833 0.0
C2494 C 0.22216 0.19644 0.61575 0.0
C2495 C 0.22032 0.19118 0.59958 0.0
C2496 C 0.19839 0.17321 0.5933 0.0
C2497 C 0.19679 0.16836 0.57805 0.0
C2498 C 0.21704 0.18126 0.56896 0.0
C2499 C 0.23896 0.199 0.57512 0.0
C2500 C 0.24066 0.20394 0.59037 0.0
C2501 C 0.2778 0.17283 0.65746 0.0
C2502 C 0.30147 0.19266 0.65852 0.0
C2503 C 0.25839 0.17547 0.65219 0.0
C2504 C 0.26236 0.19788 0.64756 0.0
C2505 C 0.28598 0.21763 0.64853 0.0
C2506 C 0.30524 0.21511 0.65411 0.0
C2507 C 0.24287 0.19988 0.63952 0.0
C2508 C 0.24038 0.19533 0.62414 0.0
C2509 C 0.22656 0.2056 0.6467 0.0
C2510 C 0.22854 0.21191 0.6627 0.0
C2511 C 0.24936 0.2322 0.66827 0.0
C2512 C 0.24992 0.23983 0.68291 0.0
C2513 C 0.22962 0.22752 0.69204 0.0
C2514 C 0.20877 0.20741 0.68659 0.0
C2515 C 0.20823 0.19956 0.67201 0.0
H2516 H 0.23004 0.23355 0.70333 0.0
H2517 H 0.21577 0.17747 0.55716 0.0
H2518 H 0.7892 0.94847 0.57703 0.0
H2519 H 0.80006 0.9863 0.58927 0.0
H2520 H 0.78017 0.95073 0.63171 0.0
H2521 H 0.76808 0.91266 0.61946 0.0
H2522 H 0.76356 0.98033 0.62967 0.0
H2523 H 0.84035 0.98531 0.6207 0.0
H2524 H 0.87248 0.98421 0.60592 0.0
H2525 H 0.8794 0.0422 0.57919 0.0
H2526 H 0.84703 0.04341 0.59366 0.0
H2527 H 0.82338 0.0843 0.67521 0.0
H2528 H 0.81462 0.04709 0.66274 0.0
H2529 H 0.82014 0.07979 0.62008 0.0
H2530 H 0.82876 0.11698 0.63254 0.0
H2531 H 0.84465 0.05226 0.62238 0.0
H2532 H 0.76696 0.04627 0.63172 0.0
H2533 H 0.7361 0.0479 0.64751 0.0
H2534 H 0.73233 0.99166 0.67472 0.0
H2535 H 0.76352 0.99 0.65922 0.0
C2536 C 0.78687 0.94864 0.58895 0.0
C2537 C 0.77785 0.92753 0.59727 0.0
C2538 C 0.79337 0.97034 0.59596 0.0
C2539 C 0.79131 0.97143 0.61145 0.0
C2540 C 0.78205 0.95035 0.61976 0.0
C2541 C 0.77537 0.92863 0.61275 0.0
C2542 C 0.79848 0.99446 0.61901 0.0
C2543 C 0.78142 0.99593 0.62822 0.0
C2544 C 0.82163 0.01499 0.61692 0.0
C2545 C 0.84106 0.01426 0.60816 0.0
C2546 C 0.84856 0.99768 0.61158 0.0
C2547 C 0.86685 0.99707 0.60328 0.0
C2548 C 0.87792 0.01308 0.5916 0.0
C2549 C 0.87077 0.02978 0.58822 0.0
C2550 C 0.85246 0.03045 0.59648 0.0
C2551 C 0.82303 0.08362 0.66321 0.0
C2552 C 0.82665 0.1034 0.65484 0.0
C2553 C 0.8179 0.06237 0.6561 0.0
C2554 C 0.81663 0.06076 0.64052 0.0
C2555 C 0.82101 0.08074 0.63212 0.0
C2556 C 0.82573 0.10184 0.63924 0.0
C2557 C 0.80978 0.03792 0.63299 0.0
C2558 C 0.82685 0.03655 0.6238 0.0
C2559 C 0.78675 0.01743 0.63519 0.0
C2560 C 0.76776 0.01819 0.6444 0.0
C2561 C 0.7597 0.03439 0.64114 0.0
C2562 C 0.74213 0.0353 0.65003 0.0
C2563 C 0.7323 0.01993 0.66213 0.0
C2564 C 0.73999 0.00358 0.66535 0.0
C2565 C 0.7576 0.00264 0.65651 0.0
H2566 H 0.7187 0.02066 0.669 0.0
H2567 H 0.89208 0.01258 0.58519 0.0
H2568 H 0.53459 0.41922 0.72462 0.0
H2569 H 0.50478 0.38085 0.71416 0.0
H2570 H 0.48442 0.35191 0.75837 0.0
H2571 H 0.5162 0.38916 0.76882 0.0
H2572 H 0.48183 0.31961 0.74344 0.0
H2573 H 0.44989 0.37104 0.7349 0.0
H2574 H 0.44909 0.40684 0.72629 0.0
H2575 H 0.45829 0.39095 0.68118 0.0
H2576 H 0.45947 0.35521 0.68955 0.0
H2577 H 0.35878 0.23848 0.70225 0.0
H2578 H 0.38756 0.27534 0.71521 0.0
H2579 H 0.44704 0.2651 0.70197 0.0
H2580 H 0.41845 0.22836 0.68879 0.0
H2581 H 0.42655 0.31601 0.7031 0.0
H2582 H 0.48684 0.28495 0.73623 0.0
H2583 H 0.4815 0.25046 0.75082 0.0
H2584 H 0.40473 0.22452 0.75378 0.0
H2585 H 0.40969 0.25933 0.7398 0.0
C2586 C 0.52426 0.40462 0.73217 0.0
C2587 C 0.52791 0.4077 0.74768 0.0
C2588 C 0.50672 0.38267 0.72613 0.0
C2589 C 0.49169 0.36346 0.73543 0.0
C2590 C 0.49555 0.36636 0.75087 0.0
C2591 C 0.51359 0.388 0.75689 0.0
C2592 C 0.47215 0.3403 0.72913 0.0
C2593 C 0.46984 0.31889 0.73457 0.0
C2594 C 0.45571 0.33911 0.71797 0.0
C2595 C 0.455 0.36058 0.71287 0.0
C2596 C 0.45191 0.37527 0.72316 0.0
C2597 C 0.45137 0.39554 0.71832 0.0
C2598 C 0.4537 0.40119 0.70321 0.0
C2599 C 0.45652 0.38656 0.69289 0.0
C2600 C 0.45711 0.36629 0.69767 0.0
C2601 C 0.37798 0.24403 0.7021 0.0
C2602 C 0.38633 0.23054 0.69442 0.0
C2603 C 0.39439 0.26511 0.7095 0.0
C2604 C 0.41939 0.27283 0.70966 0.0
C2605 C 0.42778 0.25932 0.70211 0.0
C2606 C 0.41143 0.23843 0.6945 0.0
C2607 C 0.43684 0.29557 0.71714 0.0
C2608 C 0.43871 0.31684 0.7119 0.0
C2609 C 0.452 0.29651 0.72903 0.0
C2610 C 0.44861 0.27464 0.73664 0.0
C2611 C 0.4688 0.27191 0.73997 0.0
C2612 C 0.46588 0.25239 0.74827 0.0
C2613 C 0.44279 0.23531 0.75322 0.0
C2614 C 0.42258 0.2377 0.74987 0.0
C2615 C 0.42545 0.25735 0.74175 0.0
H2616 H 0.44055 0.22018 0.75961 0.0
H2617 H 0.45327 0.41689 0.69948 0.0
H2618 H 0.5873 0.1091 0.71953 0.0
H2619 H 0.62398 0.11596 0.70669 0.0
H2620 H 0.66236 0.13141 0.7486 0.0
H2621 H 0.6263 0.12644 0.76143 0.0
H2622 H 0.6922 0.16001 0.72948 0.0
H2623 H 0.63833 0.07551 0.72946 0.0
H2624 H 0.60004 0.03774 0.72501 0.0
H2625 H 0.60557 0.05216 0.67816 0.0
H2626 H 0.64376 0.09019 0.68236 0.0
H2627 H 0.76263 0.1033 0.69285 0.0
H2628 H 0.72417 0.09848 0.70198 0.0
H2629 H 0.7473 0.17121 0.68965 0.0
H2630 H 0.78691 0.17691 0.68255 0.0
H2631 H 0.6866 0.09876 0.69377 0.0
H2632 H 0.72668 0.1965 0.71066 0.0
H2633 H 0.7681 0.2309 0.7143 0.0
H2634 H 0.79231 0.18434 0.73153 0.0
H2635 H 0.75102 0.14971 0.72811 0.0
C2636 C 0.6036 0.11439 0.72606 0.0
C2637 C 0.60354 0.11707 0.74163 0.0
C2638 C 0.62459 0.11797 0.71867 0.0
C2639 C 0.64599 0.12375 0.72664 0.0
C2640 C 0.64615 0.12684 0.74213 0.0
C2641 C 0.62528 0.12364 0.74951 0.0
C2642 C 0.66803 0.12624 0.71889 0.0
C2643 C 0.69087 0.14654 0.72171 0.0
C2644 C 0.66669 0.10866 0.70882 0.0
C2645 C 0.64376 0.08581 0.70625 0.0
C2646 C 0.63129 0.07071 0.71822 0.0
C2647 C 0.60962 0.04924 0.71574 0.0
C2648 C 0.60035 0.04259 0.70131 0.0
C2649 C 0.61276 0.05736 0.68933 0.0
C2650 C 0.63442 0.07886 0.69175 0.0
C2651 C 0.75942 0.11823 0.69205 0.0
C2652 C 0.77773 0.14039 0.68674 0.0
C2653 C 0.73731 0.11542 0.69719 0.0
C2654 C 0.73281 0.13462 0.69692 0.0
C2655 C 0.75046 0.15628 0.69055 0.0
C2656 C 0.77301 0.15941 0.6861 0.0
C2657 C 0.71067 0.13244 0.70437 0.0
C2658 C 0.68785 0.11222 0.70153 0.0
C2659 C 0.71215 0.14959 0.71485 0.0
C2660 C 0.73585 0.17056 0.71903 0.0
C2661 C 0.74073 0.19369 0.7155 0.0
C2662 C 0.76421 0.21318 0.71741 0.0
C2663 C 0.78282 0.20971 0.72296 0.0
C2664 C 0.77788 0.18693 0.72712 0.0
C2665 C 0.75445 0.16739 0.72525 0.0
H2666 H 0.8011 0.22466 0.724 0.0
H2667 H 0.58357 0.02596 0.69941 0.0
H2668 H 0.89997 0.47754 0.7294 0.0
H2669 H 0.89306 0.50666 0.71612 0.0
H2670 H 0.84967 0.50778 0.7527 0.0
H2671 H 0.85748 0.47943 0.76623 0.0
H2672 H 0.85624 0.50775 0.70531 0.0
H2673 H 0.85464 0.56148 0.75659 0.0
H2674 H 0.87204 0.57202 0.78193 0.0
H2675 H 0.9321 0.56331 0.76847 0.0
H2676 H 0.91524 0.55305 0.74302 0.0
H2677 H 0.8142 0.5857 0.68255 0.0
H2678 H 0.8203 0.55564 0.6951 0.0
H2679 H 0.89255 0.61017 0.70842 0.0
H2680 H 0.88601 0.64047 0.69656 0.0
H2681 H 0.87269 0.58281 0.73045 0.0
H2682 H 0.88124 0.56868 0.67906 0.0
H2683 H 0.86871 0.56135 0.6527 0.0
H2684 H 0.80436 0.49598 0.66438 0.0
H2685 H 0.81646 0.50301 0.69085 0.0
C2686 C 0.88889 0.48398 0.73454 0.0
C2687 C 0.87938 0.47644 0.74885 0.0
C2688 C 0.88491 0.50057 0.72696 0.0
C2689 C 0.87115 0.50973 0.73349 0.0
C2690 C 0.86086 0.50146 0.74758 0.0
C2691 C 0.86523 0.48521 0.75528 0.0
C2692 C 0.868 0.52825 0.72567 0.0
C2693 C 0.85987 0.52417 0.71082 0.0
C2694 C 0.87311 0.54991 0.73271 0.0
C2695 C 0.88353 0.55627 0.74795 0.0
C2696 C 0.87161 0.56191 0.75904 0.0
C2697 C 0.88137 0.56782 0.77342 0.0
C2698 C 0.90312 0.56827 0.77682 0.0
C2699 C 0.91521 0.56288 0.76584 0.0
C2700 C 0.90555 0.55699 0.75144 0.0
C2701 C 0.83144 0.59124 0.68807 0.0
C2702 C 0.84968 0.61541 0.68854 0.0
C2703 C 0.83495 0.57402 0.6952 0.0
C2704 C 0.85703 0.58054 0.70254 0.0
C2705 C 0.87534 0.60468 0.70287 0.0
C2706 C 0.87163 0.62198 0.69603 0.0
C2707 C 0.86097 0.56234 0.71011 0.0
C2708 C 0.86912 0.56642 0.72494 0.0
C2709 C 0.85668 0.54108 0.70288 0.0
C2710 C 0.84967 0.53646 0.68694 0.0
C2711 C 0.86439 0.55277 0.67601 0.0
C2712 C 0.85736 0.54867 0.66105 0.0
C2713 C 0.83571 0.52825 0.65687 0.0
C2714 C 0.82112 0.5118 0.66763 0.0
C2715 C 0.82808 0.5158 0.68262 0.0
H2716 H 0.83026 0.52516 0.64528 0.0
H2717 H 0.91064 0.57283 0.78796 0.0
H2718 H 0.42018 0.8904 0.21428 0.0
H2719 H 0.42924 0.90738 0.18923 0.0
H2720 H 0.50447 0.95274 0.2018 0.0
H2721 H 0.49541 0.93651 0.22693 0.0
H2722 H 0.48911 0.97755 0.18657 0.0
H2723 H 0.48451 0.90144 0.17992 0.0
H2724 H 0.4652 0.8576 0.1811 0.0
H2725 H 0.40709 0.85023 0.15281 0.0
H2726 H 0.42588 0.89406 0.15163 0.0
H2727 H 0.54552 0.01597 0.11713 0.0
H2728 H 0.53217 0.99569 0.14097 0.0
H2729 H 0.45858 0.95538 0.12427 0.0
H2730 H 0.47188 0.97576 0.10025 0.0
H2731 H 0.47005 0.92744 0.14115 0.0
H2732 H 0.47523 0.00332 0.14701 0.0
H2733 H 0.4945 0.04714 0.14564 0.0
H2734 H 0.55111 0.05487 0.17544 0.0
H2735 H 0.53237 0.01107 0.17682 0.0
C2736 C 0.43863 0.90411 0.21176 0.0
C2737 C 0.45706 0.91194 0.22269 0.0
C2738 C 0.44385 0.91365 0.19734 0.0
C2739 C 0.46765 0.93119 0.19347 0.0
C2740 C 0.48599 0.93918 0.20441 0.0
C2741 C 0.4808 0.92968 0.21879 0.0
C2742 C 0.47354 0.94162 0.17817 0.0
C2743 C 0.48517 0.96655 0.17667 0.0
C2744 C 0.46778 0.92736 0.16513 0.0
C2745 C 0.45646 0.90102 0.16583 0.0
C2746 C 0.4675 0.89047 0.17406 0.0
C2747 C 0.45667 0.86562 0.1747 0.0
C2748 C 0.43489 0.85113 0.16707 0.0
C2749 C 0.42393 0.86147 0.15874 0.0
C2750 C 0.43467 0.88631 0.15807 0.0
C2751 C 0.52645 0.00285 0.11849 0.0
C2752 C 0.50974 0.99781 0.10677 0.0
C2753 C 0.51883 0.99122 0.13217 0.0
C2754 C 0.49424 0.9743 0.1346 0.0
C2755 C 0.47763 0.96843 0.12274 0.0
C2756 C 0.48528 0.98007 0.10898 0.0
C2757 C 0.48601 0.96335 0.14962 0.0
C2758 C 0.47389 0.93839 0.15106 0.0
C2759 C 0.49126 0.97755 0.16265 0.0
C2760 C 0.5025 0.00391 0.16192 0.0
C2761 C 0.49189 0.01436 0.15319 0.0
C2762 C 0.5027 0.0392 0.15242 0.0
C2763 C 0.52405 0.05378 0.16042 0.0
C2764 C 0.53459 0.04355 0.16924 0.0
C2765 C 0.52387 0.01872 0.17003 0.0
H2766 H 0.53239 0.073 0.15981 0.0
H2767 H 0.42654 0.8319 0.16758 0.0
H2768 H 0.10451 0.52692 0.20967 0.0
H2769 H 0.08311 0.51583 0.18571 0.0
H2770 H 0.03829 0.54502 0.19988 0.0
H2771 H 0.05903 0.55544 0.22398 0.0
H2772 H 0.01146 0.50271 0.18629 0.0
H2773 H 0.08586 0.57575 0.17651 0.0
H2774 H 0.13036 0.60256 0.17604 0.0
H2775 H 0.13803 0.55312 0.14774 0.0
H2776 H 0.09357 0.52584 0.14821 0.0
H2777 H 0.96718 0.51704 0.11662 0.0
H2778 H 0.98734 0.5234 0.14079 0.0
H2779 H 0.02726 0.49013 0.12455 0.0
H2780 H 0.00681 0.48322 0.10044 0.0
H2781 H 0.05665 0.53259 0.13899 0.0
H2782 H 0.9817 0.46036 0.14795 0.0
H2783 H 0.93711 0.43411 0.14824 0.0
H2784 H 0.9304 0.48259 0.17796 0.0
H2785 H 0.97494 0.50933 0.17767 0.0
C2786 C 0.08995 0.53078 0.20771 0.0
C2787 C 0.08354 0.54217 0.21868 0.0
C2788 C 0.07789 0.52462 0.19399 0.0
C2789 C 0.05929 0.52984 0.19097 0.0
C2790 C 0.05264 0.54089 0.20197 0.0
C2791 C 0.06466 0.54704 0.21568 0.0
C2792 C 0.04676 0.52391 0.17633 0.0
C2793 C 0.02131 0.50944 0.17595 0.0
C2794 C 0.05969 0.53225 0.16284 0.0
C2795 C 0.08642 0.54863 0.16254 0.0
C2796 C 0.09706 0.5705 0.17029 0.0
C2797 C 0.12227 0.58579 0.17001 0.0
C2798 C 0.13702 0.57951 0.16191 0.0
C2799 C 0.12658 0.55794 0.15404 0.0
C2800 C 0.10138 0.54256 0.1543 0.0
C2801 C 0.97996 0.51074 0.11825 0.0
C2802 C 0.98538 0.49963 0.10659 0.0
C2803 C 0.99152 0.51447 0.13205 0.0
C2804 C 0.00868 0.50712 0.13446 0.0
C2805 C 0.01412 0.49599 0.12288 0.0
C2806 C 0.00249 0.49216 0.1091 0.0
C2807 C 0.02136 0.51156 0.14897 0.0
C2808 C 0.04683 0.52575 0.14932 0.0
C2809 C 0.00844 0.50303 0.16243 0.0
C2810 C 0.98165 0.48696 0.16268 0.0
C2811 C 0.9707 0.46553 0.15445 0.0
C2812 C 0.94543 0.45054 0.15463 0.0
C2813 C 0.93092 0.45671 0.16309 0.0
C2814 C 0.94166 0.47785 0.17141 0.0
C2815 C 0.96692 0.49292 0.17125 0.0
H2816 H 0.91137 0.44508 0.16322 0.0
H2817 H 0.15654 0.59139 0.16169 0.0
H2818 H 0.41292 0.52608 0.21264 0.0
H2819 H 0.42153 0.51924 0.18713 0.0
H2820 H 0.49819 0.55432 0.19747 0.0
H2821 H 0.48982 0.56025 0.22308 0.0
H2822 H 0.48615 0.56961 0.17014 0.0
H2823 H 0.46907 0.49706 0.19633 0.0
H2824 H 0.44344 0.4614 0.2114 0.0
H2825 H 0.38722 0.43612 0.17805 0.0
H2826 H 0.41242 0.47184 0.16287 0.0
H2827 H 0.54453 0.53554 0.11731 0.0
H2828 H 0.5274 0.54328 0.13952 0.0
H2829 H 0.45486 0.49817 0.12219 0.0
H2830 H 0.47195 0.49016 0.09991 0.0
H2831 H 0.45893 0.48789 0.15116 0.0
H2832 H 0.47586 0.55623 0.12344 0.0
H2833 H 0.49924 0.5917 0.10778 0.0
H2834 H 0.55228 0.62505 0.14266 0.0
H2835 H 0.52939 0.58962 0.15848 0.0
C2836 C 0.43159 0.53209 0.20958 0.0
C2837 C 0.45065 0.54379 0.22001 0.0
C2838 C 0.43648 0.52833 0.19494 0.0
C2839 C 0.4605 0.53638 0.19042 0.0
C2840 C 0.47954 0.5482 0.20071 0.0
C2841 C 0.47468 0.55167 0.21536 0.0
C2842 C 0.46598 0.53207 0.17506 0.0
C2843 C 0.48035 0.55178 0.16599 0.0
C2844 C 0.45756 0.50875 0.16947 0.0
C2845 C 0.44249 0.48725 0.17856 0.0
C2846 C 0.45115 0.48401 0.19228 0.0
C2847 C 0.43672 0.46377 0.20083 0.0
C2848 C 0.41368 0.44655 0.19571 0.0
C2849 C 0.40505 0.4495 0.18201 0.0
C2850 C 0.4194 0.46973 0.17343 0.0
C2851 C 0.52493 0.52725 0.11822 0.0
C2852 C 0.50959 0.51215 0.10689 0.0
C2853 C 0.51516 0.53186 0.13086 0.0
C2854 C 0.48985 0.52145 0.13247 0.0
C2855 C 0.47445 0.50645 0.12115 0.0
C2856 C 0.48423 0.50199 0.10841 0.0
C2857 C 0.47972 0.52549 0.14634 0.0
C2858 C 0.46447 0.50575 0.15516 0.0
C2859 C 0.48701 0.54878 0.1516 0.0
C2860 C 0.50099 0.57014 0.14212 0.0
C2861 C 0.49263 0.57102 0.12774 0.0
C2862 C 0.50577 0.59115 0.11883 0.0
C2863 C 0.52727 0.61058 0.12421 0.0
C2864 C 0.53563 0.60996 0.13851 0.0
C2865 C 0.52256 0.58987 0.14746 0.0
H2866 H 0.53742 0.62615 0.11731 0.0
H2867 H 0.40254 0.43088 0.20234 0.0
H2868 H 0.9374 0.49469 0.78874 0.0
H2869 H 0.95732 0.50528 0.81314 0.0
H2870 H 0.91073 0.43309 0.82811 0.0
H2871 H 0.89035 0.4225 0.80382 0.0
H2872 H 0.91639 0.46633 0.8493 0.0
H2873 H 0.96722 0.45002 0.8174 0.0
H2874 H 0.99144 0.45451 0.79499 0.0
H2875 H 0.0386 0.52873 0.80524 0.0
H2876 H 0.01443 0.52475 0.82761 0.0
H2877 H 0.98433 0.46511 0.91161 0.0
H2878 H 0.96163 0.45782 0.88836 0.0
H2879 H 0.01468 0.52799 0.87295 0.0
H2880 H 0.03785 0.53507 0.8961 0.0
H2881 H 0.00537 0.49693 0.85199 0.0
H2882 H 0.95299 0.51462 0.88237 0.0
H2883 H 0.92814 0.511 0.90434 0.0
H2884 H 0.88553 0.43524 0.89753 0.0
H2885 H 0.9095 0.43855 0.87514 0.0
C2886 C 0.93117 0.48116 0.79729 0.0
C2887 C 0.91239 0.45773 0.79435 0.0
C2888 C 0.94268 0.48719 0.81118 0.0
C2889 C 0.93566 0.46989 0.82236 0.0
C2890 C 0.91645 0.44668 0.81961 0.0
C2891 C 0.90497 0.44061 0.80571 0.0
C2892 C 0.94886 0.4758 0.83676 0.0
C2893 C 0.93581 0.47284 0.84991 0.0
C2894 C 0.97427 0.48473 0.83752 0.0
C2895 C 0.98885 0.48714 0.82409 0.0
C2896 C 0.98263 0.46734 0.81481 0.0
C2897 C 0.99637 0.46979 0.80212 0.0
C2898 C 0.01651 0.49191 0.79867 0.0
C2899 C 0.02298 0.51162 0.80792 0.0
C2900 C 0.00927 0.50927 0.8206 0.0
C2901 C 0.99101 0.47906 0.90331 0.0
C2902 C 0.01286 0.50063 0.90562 0.0
C2903 C 0.97793 0.47495 0.89007 0.0
C2904 C 0.98619 0.49252 0.87898 0.0
C2905 C 0.00793 0.51419 0.88134 0.0
C2906 C 0.02118 0.51819 0.89453 0.0
C2907 C 0.97299 0.48769 0.86458 0.0
C2908 C 0.98601 0.49069 0.8514 0.0
C2909 C 0.9476 0.4789 0.8638 0.0
C2910 C 0.93312 0.47681 0.87719 0.0
C2911 C 0.93834 0.4972 0.88559 0.0
C2912 C 0.92439 0.49521 0.89808 0.0
C2913 C 0.90549 0.47289 0.90245 0.0
C2914 C 0.90022 0.45252 0.89416 0.0
C2915 C 0.91381 0.45447 0.88149 0.0
H2916 H 0.89486 0.4714 0.91219 0.0
H2917 H 0.02713 0.49376 0.78885 0.0
H2918 H 0.56268 0.50247 0.78463 0.0
H2919 H 0.55358 0.51147 0.8095 0.0
H2920 H 0.53535 0.44093 0.82408 0.0
H2921 H 0.54407 0.4318 0.79925 0.0
H2922 H 0.50205 0.45039 0.83303 0.0
H2923 H 0.58921 0.49209 0.83463 0.0
H2924 H 0.63081 0.52025 0.82613 0.0
H2925 H 0.61673 0.57843 0.83044 0.0
H2926 H 0.5749 0.55056 0.83877 0.0
H2927 H 0.49702 0.46855 0.91043 0.0
H2928 H 0.51092 0.46216 0.88638 0.0
H2929 H 0.52022 0.52919 0.87072 0.0
H2930 H 0.50664 0.53586 0.89482 0.0
H2931 H 0.55849 0.52203 0.86256 0.0
H2932 H 0.4708 0.47922 0.86076 0.0
H2933 H 0.42966 0.45056 0.86974 0.0
H2934 H 0.4458 0.39364 0.86625 0.0
H2935 H 0.48718 0.42204 0.85744 0.0
C2936 C 0.55697 0.489 0.7932 0.0
C2937 C 0.554 0.4664 0.78997 0.0
C2938 C 0.55181 0.49416 0.80741 0.0
C2939 C 0.54394 0.47694 0.81873 0.0
C2940 C 0.54128 0.45448 0.81554 0.0
C2941 C 0.54624 0.44927 0.80134 0.0
C2942 C 0.53761 0.4819 0.83375 0.0
C2943 C 0.51458 0.46588 0.83955 0.0
C2944 C 0.55369 0.50238 0.84219 0.0
C2945 C 0.57883 0.51919 0.83718 0.0
C2946 C 0.59491 0.51086 0.83365 0.0
C2947 C 0.61855 0.52678 0.82888 0.0
C2948 C 0.62639 0.5511 0.8277 0.0
C2949 C 0.61062 0.55958 0.83133 0.0
C2950 C 0.58695 0.54373 0.83609 0.0
C2951 C 0.50231 0.48206 0.90193 0.0
C2952 C 0.50059 0.50264 0.90449 0.0
C2953 C 0.51011 0.47833 0.88817 0.0
C2954 C 0.51637 0.4951 0.87671 0.0
C2955 C 0.51541 0.516 0.87939 0.0
C2956 C 0.50747 0.51968 0.89311 0.0
C2957 C 0.52309 0.49043 0.86177 0.0
C2958 C 0.54609 0.50652 0.856 0.0
C2959 C 0.50708 0.46993 0.85339 0.0
C2960 C 0.48216 0.4528 0.85858 0.0
C2961 C 0.46564 0.46062 0.86202 0.0
C2962 C 0.44227 0.44442 0.86706 0.0
C2963 C 0.43514 0.4203 0.8686 0.0
C2964 C 0.45136 0.41233 0.86507 0.0
C2965 C 0.47476 0.42847 0.86004 0.0
H2966 H 0.41704 0.40779 0.8725 0.0
H2967 H 0.6447 0.5634 0.82401 0.0
H2968 H 0.54178 0.1156 0.7959 0.0
H2969 H 0.5333 0.09901 0.82113 0.0
H2970 H 0.54634 0.04271 0.80678 0.0
H2971 H 0.55517 0.05941 0.78159 0.0
H2972 H 0.50238 0.02726 0.82408 0.0
H2973 H 0.58854 0.08538 0.82578 0.0
H2974 H 0.62424 0.1256 0.82293 0.0
H2975 H 0.59445 0.15349 0.85481 0.0
H2976 H 0.55838 0.11346 0.85768 0.0
H2977 H 0.51435 0.97676 0.89032 0.0
H2978 H 0.51796 0.99506 0.86621 0.0
H2979 H 0.52311 0.05728 0.88756 0.0
H2980 H 0.5211 0.03956 0.91197 0.0
H2981 H 0.55536 0.07157 0.86699 0.0
H2982 H 0.47091 0.01503 0.86702 0.0
H2983 H 0.43368 0.97594 0.86999 0.0
H2984 H 0.45711 0.94646 0.83523 0.0
H2985 H 0.49467 0.98529 0.83219 0.0
C2986 C 0.5428 0.09966 0.79813 0.0
C2987 C 0.5492 0.08883 0.78676 0.0
C2988 C 0.53803 0.09025 0.81255 0.0
C2989 C 0.53923 0.06964 0.81586 0.0
C2990 C 0.5453 0.05862 0.80449 0.0
C2991 C 0.55048 0.06825 0.79013 0.0
C2992 C 0.53425 0.05958 0.83117 0.0
C2993 C 0.51407 0.0368 0.83345 0.0
C2994 C 0.54893 0.07244 0.84351 0.0
C2995 C 0.57063 0.09648 0.84181 0.0
C2996 C 0.58949 0.10013 0.83208 0.0
C2997 C 0.60982 0.12289 0.83048 0.0
C2998 C 0.61158 0.14211 0.83865 0.0
C2999 C 0.59304 0.1386 0.84847 0.0
C3000 C 0.57266 0.11588 0.85009 0.0
C3001 C 0.51632 0.99439 0.88997 0.0
C3002 C 0.51765 0.00672 0.9032 0.0
C3003 C 0.51804 0.00474 0.87607 0.0
C3004 C 0.5205 0.02752 0.87491 0.0
C3005 C 0.52118 0.03967 0.88808 0.0
C3006 C 0.51974 0.02939 0.90207 0.0
C3007 C 0.52359 0.0389 0.85998 0.0
C3008 C 0.54343 0.06198 0.85772 0.0
C3009 C 0.50829 0.02647 0.84769 0.0
C3010 C 0.48571 0.00305 0.84946 0.0
C3011 C 0.46821 0.00017 0.86008 0.0
C3012 C 0.44703 0.97806 0.86177 0.0
C3013 C 0.44306 0.95872 0.85283 0.0
C3014 C 0.46023 0.96146 0.84216 0.0
C3015 C 0.48145 0.98352 0.84043 0.0
H3016 H 0.42665 0.94161 0.85415 0.0
H3017 H 0.62734 0.15971 0.83741 0.0
H3018 H 0.1153 0.26747 0.55941 0.0
H3019 H 0.12339 0.28378 0.53425 0.0
H3020 H 0.14347 0.23182 0.52087 0.0
H3021 H 0.13558 0.21556 0.54609 0.0
H3022 H 0.1749 0.2732 0.51006 0.0
H3023 H 0.08831 0.22768 0.51012 0.0
H3024 H 0.04662 0.21368 0.51906 0.0
H3025 H 0.05725 0.28433 0.51434 0.0
H3026 H 0.09916 0.29886 0.50558 0.0
H3027 H 0.1798 0.30281 0.43303 0.0
H3028 H 0.16641 0.27988 0.4562 0.0
H3029 H 0.15197 0.33295 0.47505 0.0
H3030 H 0.16484 0.35559 0.45188 0.0
H3031 H 0.11609 0.28775 0.48196 0.0
H3032 H 0.2042 0.33291 0.48331 0.0
H3033 H 0.24528 0.3456 0.47371 0.0
H3034 H 0.23035 0.27311 0.47503 0.0
H3035 H 0.18904 0.25995 0.48445 0.0
C3036 C 0.12116 0.25932 0.55108 0.0
C3037 C 0.1247 0.24013 0.5548 0.0
C3038 C 0.12578 0.26867 0.53665 0.0
C3039 C 0.13375 0.25888 0.5255 0.0
C3040 C 0.13735 0.23974 0.52921 0.0
C3041 C 0.13288 0.23048 0.54367 0.0
C3042 C 0.13898 0.26905 0.51014 0.0
C3043 C 0.16182 0.27597 0.50385 0.0
C3044 C 0.12214 0.27303 0.50198 0.0
C3045 C 0.09697 0.26441 0.50732 0.0
C3046 C 0.08184 0.24029 0.51111 0.0
C3047 C 0.05815 0.23224 0.51612 0.0
C3048 C 0.04931 0.24811 0.5173 0.0
C3049 C 0.06413 0.27206 0.51344 0.0
C3050 C 0.08785 0.28021 0.50844 0.0
C3051 C 0.17338 0.30934 0.44203 0.0
C3052 C 0.17347 0.33106 0.44062 0.0
C3053 C 0.16594 0.29635 0.45533 0.0
C3054 C 0.15841 0.3048 0.46748 0.0
C3055 C 0.15773 0.32606 0.46589 0.0
C3056 C 0.16527 0.33908 0.45266 0.0
C3057 C 0.15203 0.29209 0.48204 0.0
C3058 C 0.12901 0.28475 0.48817 0.0
C3059 C 0.16859 0.28749 0.48999 0.0
C3060 C 0.19346 0.29542 0.48443 0.0
C3061 C 0.20962 0.31966 0.48144 0.0
C3062 C 0.23295 0.32694 0.47605 0.0
C3063 C 0.24039 0.31016 0.47372 0.0
C3064 C 0.22454 0.28608 0.47681 0.0
C3065 C 0.20118 0.2787 0.48219 0.0
H3066 H 0.25846 0.31583 0.46955 0.0
H3067 H 0.03095 0.24184 0.52117 0.0
H3068 H 0.76027 0.85505 0.54508 0.0
H3069 H 0.73925 0.84536 0.52106 0.0
H3070 H 0.69516 0.87494 0.536 0.0
H3071 H 0.7153 0.88367 0.56027 0.0
H3072 H 0.66802 0.83462 0.52122 0.0
H3073 H 0.74437 0.90615 0.51288 0.0
H3074 H 0.78908 0.93165 0.51309 0.0
H3075 H 0.7955 0.88196 0.48433 0.0
H3076 H 0.75083 0.85598 0.48412 0.0
H3077 H 0.6274 0.85114 0.4507 0.0
H3078 H 0.64658 0.85704 0.47516 0.0
H3079 H 0.68604 0.82278 0.45981 0.0
H3080 H 0.66665 0.81645 0.43538 0.0
H3081 H 0.7154 0.86444 0.47465 0.0
H3082 H 0.63846 0.79352 0.48256 0.0
H3083 H 0.59368 0.76876 0.4822 0.0
H3084 H 0.58834 0.81832 0.51166 0.0
H3085 H 0.6331 0.84357 0.51202 0.0
C3086 C 0.74588 0.85922 0.54333 0.0
C3087 C 0.73956 0.87026 0.55459 0.0
C3088 C 0.73406 0.8539 0.52953 0.0
C3089 C 0.71588 0.85976 0.52665 0.0
C3090 C 0.70922 0.87037 0.53794 0.0
C3091 C 0.72093 0.87556 0.55177 0.0
C3092 C 0.70388 0.85498 0.51184 0.0
C3093 C 0.67837 0.84138 0.51106 0.0
C3094 C 0.71741 0.86337 0.49854 0.0
C3095 C 0.74427 0.879 0.49862 0.0
C3096 C 0.75533 0.90056 0.5067 0.0
C3097 C 0.78066 0.91512 0.5068 0.0
C3098 C 0.79512 0.9084 0.49876 0.0
C3099 C 0.78428 0.88713 0.49057 0.0
C3100 C 0.75895 0.87248 0.49045 0.0
C3101 C 0.6399 0.84455 0.45258 0.0
C3102 C 0.64547 0.8333 0.44107 0.0
C3103 C 0.65089 0.84801 0.46655 0.0
C3104 C 0.6676 0.8402 0.46932 0.0
C3105 C 0.67324 0.82899 0.45789 0.0
C3106 C 0.66221 0.82548 0.44392 0.0
C3107 C 0.67958 0.84417 0.48407 0.0
C3108 C 0.70508 0.85762 0.48483 0.0
C3109 C 0.66604 0.83576 0.49735 0.0
C3110 C 0.63913 0.82055 0.4972 0.0
C3111 C 0.62773 0.79924 0.48886 0.0
C3112 C 0.60236 0.7851 0.48868 0.0
C3113 C 0.58817 0.79199 0.49687 0.0
C3114 C 0.59935 0.81302 0.5053 0.0
C3115 C 0.62472 0.82724 0.50551 0.0
H3116 H 0.56853 0.78102 0.49672 0.0
H3117 H 0.81473 0.9197 0.49885 0.0
H3118 H 0.15604 0.87979 0.55982 0.0
H3119 H 0.16506 0.87217 0.53468 0.0
H3120 H 0.0928 0.85428 0.52038 0.0
H3121 H 0.08349 0.86127 0.54574 0.0
H3122 H 0.10409 0.82455 0.50819 0.0
H3123 H 0.14412 0.90917 0.51202 0.0
H3124 H 0.17061 0.94889 0.52313 0.0
H3125 H 0.23239 0.93886 0.51903 0.0
H3126 H 0.20621 0.89891 0.50808 0.0
H3127 H 0.13674 0.82596 0.43208 0.0
H3128 H 0.12371 0.83572 0.45531 0.0
H3129 H 0.1922 0.85277 0.47581 0.0
H3130 H 0.20591 0.84443 0.45243 0.0
H3131 H 0.17999 0.88467 0.48353 0.0
H3132 H 0.13705 0.79759 0.48132 0.0
H3133 H 0.10942 0.75869 0.46952 0.0
H3134 H 0.05168 0.77523 0.46946 0.0
H3135 H 0.07904 0.81431 0.48114 0.0
C3136 C 0.1421 0.87429 0.5513 0.0
C3137 C 0.11913 0.87131 0.5547 0.0
C3138 C 0.14729 0.87002 0.53691 0.0
C3139 C 0.12981 0.86316 0.5255 0.0
C3140 C 0.10664 0.85966 0.52895 0.0
C3141 C 0.10132 0.86364 0.54343 0.0
C3142 C 0.13582 0.85956 0.51004 0.0
C3143 C 0.1205 0.83787 0.50272 0.0
C3144 C 0.15727 0.87685 0.50285 0.0
C3145 C 0.17315 0.90095 0.50933 0.0
C3146 C 0.16332 0.91536 0.51357 0.0
C3147 C 0.17829 0.93793 0.51983 0.0
C3148 C 0.20316 0.94637 0.52181 0.0
C3149 C 0.21312 0.93228 0.5175 0.0
C3150 C 0.19823 0.90969 0.51125 0.0
C3151 C 0.1492 0.83212 0.44145 0.0
C3152 C 0.17237 0.83425 0.44034 0.0
C3153 C 0.14158 0.83741 0.45481 0.0
C3154 C 0.15679 0.84459 0.46743 0.0
C3155 C 0.18005 0.84713 0.46628 0.0
C3156 C 0.18778 0.84208 0.45291 0.0
C3157 C 0.14865 0.84942 0.48189 0.0
C3158 C 0.16353 0.87142 0.48899 0.0
C3159 C 0.12665 0.83256 0.48878 0.0
C3160 C 0.11013 0.80892 0.48199 0.0
C3161 C 0.11849 0.79295 0.47873 0.0
C3162 C 0.10288 0.77087 0.47208 0.0
C3163 C 0.07883 0.76451 0.46872 0.0
C3164 C 0.07031 0.78018 0.47206 0.0
C3165 C 0.08585 0.80228 0.47871 0.0
H3166 H 0.06678 0.74743 0.46355 0.0
H3167 H 0.21471 0.96384 0.52666 0.0
H3168 H 0.5586 0.75689 0.13948 0.0
H3169 H 0.58017 0.76924 0.16335 0.0
H3170 H 0.63157 0.83744 0.14466 0.0
H3171 H 0.61019 0.82508 0.12068 0.0
H3172 H 0.65366 0.81643 0.16032 0.0
H3173 H 0.59001 0.83481 0.16775 0.0
H3174 H 0.54766 0.82673 0.16788 0.0
H3175 H 0.52852 0.77096 0.19984 0.0
H3176 H 0.5707 0.77846 0.19973 0.0
H3177 H 0.7101 0.86791 0.22966 0.0
H3178 H 0.68906 0.86045 0.20568 0.0
H3179 H 0.63071 0.79372 0.22218 0.0
H3180 H 0.65152 0.80124 0.2462 0.0
H3181 H 0.6128 0.8167 0.20723 0.0
H3182 H 0.67492 0.79603 0.1988 0.0
H3183 H 0.71682 0.80283 0.19855 0.0
H3184 H 0.73832 0.86135 0.16843 0.0
H3185 H 0.6966 0.8551 0.16865 0.0
C3186 C 0.57451 0.7745 0.14047 0.0
C3187 C 0.58273 0.79005 0.12826 0.0
C3188 C 0.5867 0.78159 0.15411 0.0
C3189 C 0.60732 0.80431 0.15577 0.0
C3190 C 0.61562 0.81986 0.14359 0.0
C3191 C 0.60333 0.81285 0.12996 0.0
C3192 C 0.62055 0.81154 0.17014 0.0
C3193 C 0.64489 0.8169 0.17055 0.0
C3194 C 0.60885 0.81157 0.1835 0.0
C3195 C 0.58348 0.80707 0.18363 0.0
C3196 C 0.57673 0.82069 0.17471 0.0
C3197 C 0.55276 0.81624 0.1748 0.0
C3198 C 0.53539 0.79831 0.18384 0.0
C3199 C 0.54198 0.78482 0.19283 0.0
C3200 C 0.56593 0.78919 0.19277 0.0
C3201 C 0.69285 0.8516 0.22812 0.0
C3202 C 0.68247 0.83512 0.23976 0.0
C3203 C 0.68085 0.84736 0.21443 0.0
C3204 C 0.65844 0.8264 0.21208 0.0
C3205 C 0.64795 0.81004 0.22375 0.0
C3206 C 0.65984 0.81436 0.23746 0.0
C3207 C 0.64589 0.82136 0.19746 0.0
C3208 C 0.62166 0.8164 0.19699 0.0
C3209 C 0.65764 0.82152 0.18406 0.0
C3210 C 0.68271 0.82526 0.18387 0.0
C3211 C 0.68863 0.81047 0.19221 0.0
C3212 C 0.71234 0.8142 0.19206 0.0
C3213 C 0.73024 0.83255 0.18351 0.0
C3214 C 0.72445 0.84717 0.17506 0.0
C3215 C 0.70077 0.84353 0.17519 0.0
H3216 H 0.74859 0.83541 0.18341 0.0
H3217 H 0.51685 0.79489 0.18389 0.0
H3218 H 0.18554 0.78217 0.11951 0.0
H3219 H 0.17493 0.79108 0.1439 0.0
H3220 H 0.24695 0.812 0.16023 0.0
H3221 H 0.2577 0.80301 0.13576 0.0
H3222 H 0.20853 0.78178 0.18002 0.0
H3223 H 0.23564 0.85417 0.15241 0.0
H3224 H 0.23669 0.87831 0.13094 0.0
H3225 H 0.16098 0.85536 0.137 0.0
H3226 H 0.15938 0.83079 0.15839 0.0
H3227 H 0.19987 0.8414 0.24545 0.0
H3228 H 0.21293 0.83122 0.22233 0.0
H3229 H 0.14408 0.81279 0.20186 0.0
H3230 H 0.13054 0.82213 0.22501 0.0
H3231 H 0.18303 0.84268 0.18451 0.0
H3232 H 0.15477 0.77018 0.21142 0.0
H3233 H 0.1519 0.74466 0.2325 0.0
H3234 H 0.22732 0.76567 0.22749 0.0
H3235 H 0.23082 0.79185 0.20659 0.0
C3236 C 0.19908 0.78855 0.12832 0.0
C3237 C 0.22245 0.7919 0.12574 0.0
C3238 C 0.19303 0.79372 0.14222 0.0
C3239 C 0.21019 0.80228 0.15385 0.0
C3240 C 0.23346 0.8054 0.15139 0.0
C3241 C 0.23962 0.80045 0.13741 0.0
C3242 C 0.20376 0.80831 0.16846 0.0
C3243 C 0.20336 0.79538 0.18109 0.0
C3244 C 0.19641 0.82561 0.16974 0.0
C3245 C 0.19734 0.84047 0.15692 0.0
C3246 C 0.21916 0.85411 0.14909 0.0
C3247 C 0.21987 0.8679 0.13695 0.0
C3248 C 0.1989 0.86832 0.13259 0.0
C3249 C 0.1772 0.855 0.14039 0.0
C3250 C 0.17639 0.84115 0.15253 0.0
C3251 C 0.18732 0.83479 0.23613 0.0
C3252 C 0.16414 0.83268 0.23713 0.0
C3253 C 0.19487 0.82908 0.22289 0.0
C3254 C 0.17946 0.82123 0.21038 0.0
C3255 C 0.15631 0.81895 0.21136 0.0
C3256 C 0.14867 0.82445 0.2246 0.0
C3257 C 0.18765 0.81608 0.1961 0.0
C3258 C 0.18837 0.82919 0.18351 0.0
C3259 C 0.19509 0.79881 0.19488 0.0
C3260 C 0.19314 0.78325 0.20754 0.0
C3261 C 0.17084 0.76961 0.21492 0.0
C3262 C 0.16907 0.75496 0.22681 0.0
C3263 C 0.18941 0.75353 0.23134 0.0
C3264 C 0.21158 0.76681 0.22399 0.0
C3265 C 0.21347 0.78159 0.21212 0.0
H3266 H 0.18797 0.74211 0.24053 0.0
H3267 H 0.19949 0.87901 0.12318 0.0
H3268 H 0.23207 0.40425 0.11867 0.0
H3269 H 0.22306 0.38628 0.14345 0.0
H3270 H 0.20152 0.43665 0.1579 0.0
H3271 H 0.21075 0.4549 0.13317 0.0
H3272 H 0.2296 0.42962 0.17934 0.0
H3273 H 0.15883 0.38192 0.14888 0.0
H3274 H 0.13681 0.35782 0.12687 0.0
H3275 H 0.16096 0.30801 0.13685 0.0
H3276 H 0.18343 0.33202 0.15881 0.0
H3277 H 0.16405 0.36685 0.24434 0.0
H3278 H 0.17809 0.38879 0.22093 0.0
H3279 H 0.19008 0.33343 0.2032 0.0
H3280 H 0.17565 0.31131 0.22643 0.0
H3281 H 0.16727 0.34391 0.18346 0.0
H3282 H 0.23814 0.39066 0.21364 0.0
H3283 H 0.26075 0.41429 0.23565 0.0
H3284 H 0.23749 0.46502 0.22656 0.0
H3285 H 0.21467 0.44166 0.20449 0.0
C3286 C 0.22569 0.4117 0.12716 0.0
C3287 C 0.22205 0.43098 0.12389 0.0
C3288 C 0.22041 0.40132 0.14131 0.0
C3289 C 0.21143 0.40998 0.15255 0.0
C3290 C 0.2084 0.42963 0.14944 0.0
C3291 C 0.2135 0.43991 0.13525 0.0
C3292 C 0.20428 0.39792 0.1673 0.0
C3293 C 0.21579 0.41095 0.18028 0.0
C3294 C 0.18662 0.37343 0.16854 0.0
C3295 C 0.17301 0.35889 0.1554 0.0
C3296 C 0.1596 0.36593 0.14631 0.0
C3297 C 0.14702 0.35227 0.13386 0.0
C3298 C 0.14754 0.33143 0.13044 0.0
C3299 C 0.1606 0.32418 0.1395 0.0
C3300 C 0.17325 0.33779 0.15195 0.0
C3301 C 0.16998 0.35952 0.23551 0.0
C3302 C 0.16854 0.33723 0.23722 0.0
C3303 C 0.17806 0.37211 0.22211 0.0
C3304 C 0.18531 0.36289 0.21022 0.0
C3305 C 0.18446 0.34092 0.2121 0.0
C3306 C 0.17618 0.32825 0.22541 0.0
C3307 C 0.19274 0.37547 0.19559 0.0
C3308 C 0.18119 0.36256 0.1826 0.0
C3309 C 0.2105 0.39999 0.19436 0.0
C3310 C 0.22452 0.41429 0.20748 0.0
C3311 C 0.23775 0.40679 0.21637 0.0
C3312 C 0.25061 0.42013 0.22886 0.0
C3313 C 0.25044 0.44106 0.23255 0.0
C3314 C 0.23756 0.44878 0.2237 0.0
C3315 C 0.22472 0.43553 0.21117 0.0
H3316 H 0.26036 0.45132 0.24225 0.0
H3317 H 0.13778 0.32088 0.1208 0.0
H3318 H 0.83073 0.59684 0.89189 0.0
H3319 H 0.83976 0.6145 0.86714 0.0
H3320 H 0.76456 0.56984 0.85429 0.0
H3321 H 0.75546 0.55151 0.87902 0.0
H3322 H 0.7952 0.57253 0.83196 0.0
H3323 H 0.78562 0.62754 0.86274 0.0
H3324 H 0.79252 0.65323 0.88464 0.0
H3325 H 0.86844 0.69482 0.87395 0.0
H3326 H 0.86207 0.66915 0.85209 0.0
H3327 H 0.80818 0.64343 0.76713 0.0
H3328 H 0.79485 0.62138 0.79055 0.0
H3329 H 0.86778 0.66254 0.80816 0.0
H3330 H 0.88125 0.6844 0.78484 0.0
H3331 H 0.83496 0.66064 0.82775 0.0
H3332 H 0.8442 0.60446 0.79707 0.0
H3333 H 0.8364 0.57973 0.77458 0.0
H3334 H 0.76013 0.54064 0.78472 0.0
H3335 H 0.76739 0.56551 0.80712 0.0
C3336 C 0.81611 0.59052 0.88378 0.0
C3337 C 0.79233 0.57271 0.88751 0.0
C3338 C 0.82128 0.60081 0.86963 0.0
C3339 C 0.80281 0.59372 0.85884 0.0
C3340 C 0.77912 0.57567 0.86241 0.0
C3341 C 0.7739 0.56536 0.87661 0.0
C3342 C 0.80831 0.60561 0.84402 0.0
C3343 C 0.80358 0.59176 0.83103 0.0
C3344 C 0.81949 0.63074 0.84273 0.0
C3345 C 0.8234 0.64628 0.85584 0.0
C3346 C 0.80382 0.64205 0.86512 0.0
C3347 C 0.80763 0.65662 0.87752 0.0
C3348 C 0.83092 0.67561 0.8807 0.0
C3349 C 0.85043 0.68009 0.87147 0.0
C3350 C 0.84672 0.66555 0.85907 0.0
C3351 C 0.82146 0.64757 0.7759 0.0
C3352 C 0.84579 0.66587 0.77408 0.0
C3353 C 0.81379 0.63497 0.78933 0.0
C3354 C 0.8303 0.64026 0.80117 0.0
C3355 C 0.85463 0.65823 0.79927 0.0
C3356 C 0.8623 0.67079 0.7859 0.0
C3357 C 0.82233 0.62766 0.81571 0.0
C3358 C 0.82653 0.64139 0.82867 0.0
C3359 C 0.8106 0.60246 0.81691 0.0
C3360 C 0.80631 0.58701 0.8037 0.0
C3361 C 0.82574 0.59068 0.79446 0.0
C3362 C 0.82142 0.57662 0.78173 0.0
C3363 C 0.79779 0.55864 0.77821 0.0
C3364 C 0.77843 0.5546 0.78745 0.0
C3365 C 0.78263 0.56867 0.80017 0.0
H3366 H 0.79448 0.54782 0.76832 0.0
H3367 H 0.83383 0.68688 0.89031 0.0
H3368 H 0.37989 0.21175 0.89619 0.0
H3369 H 0.36146 0.20491 0.8714 0.0
H3370 H 0.41318 0.18555 0.85499 0.0
H3371 H 0.43198 0.19276 0.87972 0.0
H3372 H 0.40829 0.21689 0.83651 0.0
H3373 H 0.35602 0.14298 0.86132 0.0
H3374 H 0.32934 0.11769 0.88143 0.0
H3375 H 0.2804 0.14435 0.87344 0.0
H3376 H 0.30699 0.17008 0.85341 0.0
H3377 H 0.34736 0.16046 0.76874 0.0
H3378 H 0.36738 0.17028 0.79304 0.0
H3379 H 0.31601 0.19041 0.80894 0.0
H3380 H 0.29637 0.18154 0.78449 0.0
H3381 H 0.32076 0.15915 0.82769 0.0
H3382 H 0.37177 0.23259 0.80315 0.0
H3383 H 0.39916 0.26053 0.78423 0.0
H3384 H 0.45034 0.23655 0.79205 0.0
H3385 H 0.42308 0.20817 0.81088 0.0
C3386 C 0.38737 0.20611 0.88728 0.0
C3387 C 0.40735 0.20277 0.88988 0.0
C3388 C 0.37674 0.20205 0.87317 0.0
C3389 C 0.38586 0.19456 0.8614 0.0
C3390 C 0.40585 0.19128 0.86394 0.0
C3391 C 0.41643 0.19522 0.87808 0.0
C3392 C 0.3747 0.19044 0.8464 0.0
C3393 C 0.38925 0.20399 0.8345 0.0
C3394 C 0.34969 0.17415 0.84395 0.0
C3395 C 0.33363 0.15863 0.85596 0.0
C3396 C 0.33968 0.1436 0.86393 0.0
C3397 C 0.32455 0.12916 0.8753 0.0
C3398 C 0.30322 0.12946 0.87874 0.0
C3399 C 0.29694 0.14416 0.87078 0.0
C3400 C 0.31202 0.15866 0.85941 0.0
C3401 C 0.34057 0.16745 0.77728 0.0
C3402 C 0.32017 0.17016 0.77462 0.0
C3403 C 0.352 0.17295 0.79119 0.0
C3404 C 0.3432 0.18112 0.80275 0.0
C3405 C 0.32301 0.18404 0.80016 0.0
C3406 C 0.31172 0.17879 0.7862 0.0
C3407 C 0.35438 0.18553 0.81775 0.0
C3408 C 0.33982 0.17201 0.82966 0.0
C3409 C 0.37936 0.20194 0.82021 0.0
C3410 C 0.39525 0.21808 0.80835 0.0
C3411 C 0.38869 0.233 0.80069 0.0
C3412 C 0.40425 0.24901 0.79004 0.0
C3413 C 0.42652 0.25039 0.78701 0.0
C3414 C 0.43312 0.23552 0.79446 0.0
C3415 C 0.41762 0.21947 0.80513 0.0
H3416 H 0.43868 0.26304 0.77891 0.0
H3417 H 0.29153 0.11826 0.88754 0.0
H3418 H 0.74803 0.18854 0.88084 0.0
H3419 H 0.75675 0.18217 0.85521 0.0
H3420 H 0.83297 0.21393 0.86627 0.0
H3421 H 0.82442 0.21984 0.89186 0.0
H3422 H 0.82556 0.23198 0.84035 0.0
H3423 H 0.79808 0.15453 0.86267 0.0
H3424 H 0.76875 0.118 0.87585 0.0
H3425 H 0.71586 0.10198 0.84123 0.0
H3426 H 0.74479 0.13861 0.82794 0.0
H3427 H 0.87902 0.19644 0.78516 0.0
H3428 H 0.8626 0.20333 0.80794 0.0
H3429 H 0.79038 0.16693 0.78886 0.0
H3430 H 0.80665 0.15941 0.76606 0.0
H3431 H 0.7907 0.15181 0.81703 0.0
H3432 H 0.81883 0.22662 0.79331 0.0
H3433 H 0.84757 0.26322 0.77994 0.0
H3434 H 0.89801 0.28434 0.81648 0.0
H3435 H 0.86968 0.24784 0.83007 0.0
C3436 C 0.7666 0.19389 0.87786 0.0
C3437 C 0.78553 0.20486 0.88842 0.0
C3438 C 0.77157 0.19034 0.86318 0.0
C3439 C 0.79554 0.19764 0.85881 0.0
C3440 C 0.81438 0.20837 0.86935 0.0
C3441 C 0.80944 0.2118 0.88399 0.0
C3442 C 0.80128 0.19428 0.84328 0.0
C3443 C 0.81805 0.21444 0.83527 0.0
C3444 C 0.79083 0.17149 0.83645 0.0
C3445 C 0.77348 0.14945 0.84441 0.0
C3446 C 0.78012 0.14333 0.85794 0.0
C3447 C 0.76359 0.12258 0.86541 0.0
C3448 C 0.74043 0.10772 0.8594 0.0
C3449 C 0.73378 0.11353 0.84588 0.0
C3450 C 0.75024 0.13428 0.83837 0.0
C3451 C 0.85962 0.18982 0.7858 0.0
C3452 C 0.84415 0.17722 0.77381 0.0
C3453 C 0.85028 0.19399 0.79879 0.0
C3454 C 0.82527 0.18581 0.80009 0.0
C3455 C 0.80974 0.17345 0.7881 0.0
C3456 C 0.81911 0.16932 0.77504 0.0
C3457 C 0.81547 0.18946 0.81424 0.0
C3458 C 0.79794 0.1694 0.82199 0.0
C3459 C 0.82507 0.21237 0.8208 0.0
C3460 C 0.84218 0.2344 0.81268 0.0
C3461 C 0.83612 0.23898 0.79846 0.0
C3462 C 0.85232 0.25972 0.79084 0.0
C3463 C 0.87462 0.27602 0.79732 0.0
C3464 C 0.88074 0.27168 0.81147 0.0
C3465 C 0.86459 0.25101 0.81915 0.0
H3466 H 0.88714 0.29205 0.7914 0.0
H3467 H 0.72765 0.09167 0.86521 0.0
H3468 H 0.23372 0.09689 0.46841 0.0
H3469 H 0.25187 0.10562 0.49331 0.0
H3470 H 0.30937 0.17386 0.47804 0.0
H3471 H 0.29086 0.16539 0.4532 0.0
H3472 H 0.29246 0.11207 0.50362 0.0
H3473 H 0.32931 0.21451 0.50586 0.0
H3474 H 0.31842 0.24364 0.49616 0.0
H3475 H 0.24354 0.18844 0.49244 0.0
H3476 H 0.25392 0.15905 0.5023 0.0
H3477 H 0.37744 0.16136 0.56214 0.0
H3478 H 0.35692 0.15318 0.53808 0.0
H3479 H 0.30436 0.17003 0.5563 0.0
H3480 H 0.32575 0.17985 0.58013 0.0
H3481 H 0.31573 0.18793 0.53017 0.0
H3482 H 0.29112 0.11125 0.55037 0.0
H3483 H 0.29621 0.07937 0.5618 0.0
H3484 H 0.33622 0.07817 0.52367 0.0
H3485 H 0.33164 0.11029 0.5121 0.0
C3486 C 0.25026 0.11374 0.47039 0.0
C3487 C 0.26088 0.1305 0.45892 0.0
C3488 C 0.2606 0.11871 0.48461 0.0
C3489 C 0.28185 0.14049 0.48761 0.0
C3490 C 0.29269 0.15714 0.47609 0.0
C3491 C 0.28216 0.15229 0.4619 0.0
C3492 C 0.29284 0.14557 0.50274 0.0
C3493 C 0.29754 0.12866 0.50942 0.0
C3494 C 0.29892 0.16694 0.5105 0.0
C3495 C 0.29247 0.18454 0.50467 0.0
C3496 C 0.31051 0.20861 0.50302 0.0
C3497 C 0.30443 0.22516 0.49748 0.0
C3498 C 0.28032 0.21788 0.49363 0.0
C3499 C 0.26223 0.19404 0.49536 0.0
C3500 C 0.26821 0.17742 0.50091 0.0
C3501 C 0.36173 0.16368 0.56101 0.0
C3502 C 0.35323 0.17119 0.57315 0.0
C3503 C 0.3498 0.15867 0.54727 0.0
C3504 C 0.32882 0.16058 0.54543 0.0
C3505 C 0.32044 0.16831 0.55746 0.0
C3506 C 0.33254 0.17364 0.57115 0.0
C3507 C 0.31569 0.15459 0.53094 0.0
C3508 C 0.31064 0.17133 0.52437 0.0
C3509 C 0.30845 0.13268 0.52353 0.0
C3510 C 0.31122 0.11333 0.53043 0.0
C3511 C 0.30116 0.10431 0.54447 0.0
C3512 C 0.30393 0.08618 0.55097 0.0
C3513 C 0.31658 0.07679 0.54348 0.0
C3514 C 0.32644 0.08548 0.52947 0.0
C3515 C 0.32375 0.10363 0.52293 0.0
H3516 H 0.3187 0.06275 0.54853 0.0
H3517 H 0.27565 0.23072 0.48934 0.0
H3518 H 0.89561 0.16384 0.45319 0.0
H3519 H 0.88631 0.17175 0.47824 0.0
H3520 H 0.87676 0.10411 0.49297 0.0
H3521 H 0.88541 0.09591 0.46783 0.0
H3522 H 0.84218 0.10861 0.50358 0.0
H3523 H 0.92792 0.15921 0.50285 0.0
H3524 H 0.96787 0.19009 0.49351 0.0
H3525 H 0.94555 0.24265 0.49692 0.0
H3526 H 0.90532 0.212 0.50611 0.0
H3527 H 0.87087 0.1784 0.57969 0.0
H3528 H 0.8846 0.16844 0.55681 0.0
H3529 H 0.81522 0.1475 0.53613 0.0
H3530 H 0.80088 0.15606 0.55917 0.0
H3531 H 0.89224 0.18549 0.53014 0.0
H3532 H 0.8 0.10388 0.51118 0.0
H3533 H 0.76344 0.07063 0.52253 0.0
H3534 H 0.80468 0.07576 0.56175 0.0
H3535 H 0.84155 0.10881 0.55057 0.0
C3536 C 0.89177 0.15079 0.46182 0.0
C3537 C 0.89125 0.12927 0.45855 0.0
C3538 C 0.88652 0.15534 0.47616 0.0
C3539 C 0.88108 0.13866 0.48762 0.0
C3540 C 0.88081 0.11725 0.48437 0.0
C3541 C 0.88576 0.11258 0.46999 0.0
C3542 C 0.87476 0.1431 0.5028 0.0
C3543 C 0.85319 0.12542 0.50938 0.0
C3544 C 0.88939 0.16475 0.51064 0.0
C3545 C 0.91352 0.18325 0.50505 0.0
C3546 C 0.93145 0.17731 0.5015 0.0
C3547 C 0.95417 0.19478 0.49625 0.0
C3548 C 0.95923 0.2183 0.49459 0.0
C3549 C 0.94159 0.22441 0.4982 0.0
C3550 C 0.91884 0.207 0.50344 0.0
C3551 C 0.85835 0.17128 0.57037 0.0
C3552 C 0.83468 0.16797 0.57136 0.0
C3553 C 0.86635 0.16583 0.55721 0.0
C3554 C 0.8509 0.15697 0.54474 0.0
C3555 C 0.82738 0.15391 0.54565 0.0
C3556 C 0.8193 0.15914 0.55882 0.0
C3557 C 0.85938 0.15123 0.5307 0.0
C3558 C 0.88131 0.16866 0.52435 0.0
C3559 C 0.84555 0.12901 0.52331 0.0
C3560 C 0.82348 0.10898 0.53007 0.0
C3561 C 0.80129 0.09785 0.5222 0.0
C3562 C 0.7805 0.07905 0.52861 0.0
C3563 C 0.78172 0.07114 0.54287 0.0
C3564 C 0.80374 0.08196 0.55073 0.0
C3565 C 0.82457 0.10075 0.54437 0.0
H3566 H 0.7656 0.05659 0.54781 0.0
H3567 H 0.97683 0.23181 0.49054 0.0
H3568 H 0.91889 0.78587 0.46577 0.0
H3569 H 0.90944 0.76878 0.49078 0.0
H3570 H 0.83491 0.72185 0.47739 0.0
H3571 H 0.84422 0.73871 0.4524 0.0
H3572 H 0.83676 0.74133 0.50406 0.0
H3573 H 0.87636 0.70211 0.48105 0.0
H3574 H 0.9099 0.70075 0.46812 0.0
H3575 H 0.95839 0.73872 0.50436 0.0
H3576 H 0.9252 0.74058 0.51742 0.0
H3577 H 0.79309 0.65293 0.55956 0.0
H3578 H 0.80679 0.67574 0.53659 0.0
H3579 H 0.879 0.71773 0.55509 0.0
H3580 H 0.86551 0.6944 0.57807 0.0
H3581 H 0.8812 0.70441 0.5271 0.0
H3582 H 0.84187 0.74172 0.55093 0.0
H3583 H 0.80908 0.74409 0.56409 0.0
H3584 H 0.76109 0.71125 0.5268 0.0
H3585 H 0.79352 0.70841 0.51348 0.0
C3586 C 0.90053 0.77176 0.4681 0.0
C3587 C 0.88233 0.76371 0.45701 0.0
C3588 C 0.89513 0.76202 0.48244 0.0
C3589 C 0.87147 0.74386 0.486 0.0
C3590 C 0.85327 0.7359 0.47498 0.0
C3591 C 0.85863 0.74563 0.46067 0.0
C3592 C 0.86549 0.7331 0.50117 0.0
C3593 C 0.84633 0.73304 0.50902 0.0
C3594 C 0.87846 0.72298 0.50794 0.0
C3595 C 0.89837 0.72171 0.50014 0.0
C3596 C 0.89422 0.71032 0.48621 0.0
C3597 C 0.91316 0.70944 0.47887 0.0
C3598 C 0.93628 0.7197 0.48539 0.0
C3599 C 0.94049 0.73081 0.49931 0.0
C3600 C 0.92161 0.73177 0.50669 0.0
C3601 C 0.81193 0.66694 0.55877 0.0
C3602 C 0.82821 0.67168 0.5707 0.0
C3603 C 0.8197 0.68018 0.54564 0.0
C3604 C 0.84391 0.69867 0.54409 0.0
C3605 C 0.86022 0.70361 0.556 0.0
C3606 C 0.85242 0.69036 0.56919 0.0
C3607 C 0.85215 0.71225 0.52986 0.0
C3608 C 0.87174 0.71286 0.5222 0.0
C3609 C 0.83967 0.72302 0.52329 0.0
C3610 C 0.82009 0.72468 0.53126 0.0
C3611 C 0.82427 0.73483 0.54558 0.0
C3612 C 0.80576 0.7363 0.55306 0.0
C3613 C 0.783 0.72778 0.5463 0.0
C3614 C 0.77873 0.71783 0.53203 0.0
C3615 C 0.79718 0.71632 0.5245 0.0
H3616 H 0.76869 0.72892 0.55211 0.0
H3617 H 0.95092 0.71901 0.47969 0.0
loop_
_geom_bond_atom_site_label_1
_geom_bond_atom_site_label_2
_geom_bond_distance
_geom_bond_site_symmetry_2
_ccdc_geom_bond_type
H0 C3 0.931 . S
H1 C6 0.928 . S
H2 C8 0.930 . S
C3 H0 0.931 . S
C3 C4 1.413 . S
C3 C5 1.360 . S
C4 C3 1.413 . S
C4 C8 1.429 . S
C5 C3 1.360 . S
C5 C6 1.372 . S
C6 H1 0.928 . S
C6 C5 1.372 . S
C6 C7 1.404 . S
C7 C6 1.404 . S
C7 C8 1.391 . S
C8 H2 0.930 . S
C8 C4 1.429 . S
C8 C7 1.391 . S
H9 C12 0.931 . S
H10 C15 0.928 . S
H11 C17 0.930 . S
C12 H9 0.931 . S
C12 C13 1.413 . S
C12 C14 1.360 . S
C13 C12 1.413 . S
C13 C17 1.429 . S
C14 C12 1.360 . S
C14 C15 1.372 . S
C15 H10 0.928 . S
C15 C14 1.372 . S
C15 C16 1.404 . S
C16 C15 1.404 . S
C16 C17 1.391 . S
C17 H11 0.930 . S
C17 C13 1.429 . S
C17 C16 1.391 . S
H18 C21 0.931 . S
H19 C24 0.928 . S
H20 C26 0.930 . S
C21 H18 0.931 . S
C21 C22 1.413 . S
C21 C23 1.360 . S
C22 C21 1.413 . S
C22 C26 1.429 . S
C23 C21 1.360 . S
C23 C24 1.372 . S
C24 H19 0.928 . S
C24 C23 1.372 . S
C24 C25 1.404 . S
C25 C24 1.404 . S
C25 C26 1.391 . S
C26 H20 0.930 . S
C26 C22 1.429 . S
C26 C25 1.391 . S
H27 C30 0.931 . S
H28 C33 0.928 . S
H29 C35 0.930 . S
C30 H27 0.931 . S
C30 C31 1.413 . S
C30 C32 1.360 . S
C31 C30 1.413 . S
C31 C35 1.429 . S
C32 C30 1.360 . S
C32 C33 1.372 . S
C33 H28 0.928 . S
C33 C32 1.372 . S
C33 C34 1.404 . S
C34 C33 1.404 . S
C34 C35 1.391 . S
C35 H29 0.930 . S
C35 C31 1.429 . S
C35 C34 1.391 . S
H36 C39 0.931 . S
H37 C42 0.928 . S
H38 C44 0.930 . S
C39 H36 0.931 . S
C39 C40 1.413 . S
C39 C41 1.360 . S
C40 C39 1.413 . S
C40 C44 1.429 . S
C41 C39 1.360 . S
C41 C42 1.372 . S
C42 H37 0.928 . S
C42 C41 1.372 . S
C42 C43 1.404 . S
C43 C42 1.404 . S
C43 C44 1.391 . S
C44 H38 0.930 . S
C44 C40 1.429 . S
C44 C43 1.391 . S
H45 C48 0.931 . S
H46 C51 0.928 . S
H47 C53 0.930 . S
C48 H45 0.931 . S
C48 C49 1.413 . S
C48 C50 1.360 . S
C49 C48 1.413 . S
C49 C53 1.429 . S
C50 C48 1.360 . S
C50 C51 1.372 . S
C51 H46 0.928 . S
C51 C50 1.372 . S
C51 C52 1.404 . S
C52 C51 1.404 . S
C52 C53 1.391 . S
C53 H47 0.930 . S
C53 C49 1.429 . S
C53 C52 1.391 . S
H54 C57 0.931 . S
H55 C60 0.928 . S
H56 C62 0.930 . S
C57 H54 0.931 . S
C57 C58 1.413 . S
C57 C59 1.360 . S
C58 C57 1.413 . S
C58 C62 1.429 . S
C59 C57 1.360 . S
C59 C60 1.372 . S
C60 H55 0.928 . S
C60 C59 1.372 . S
C60 C61 1.404 . S
C61 C60 1.404 . S
C61 C62 1.391 . S
C62 H56 0.930 . S
C62 C58 1.429 . S
C62 C61 1.391 . S
H63 C66 0.931 . S
H64 C69 0.928 . S
H65 C71 0.930 . S
C66 H63 0.931 . S
C66 C67 1.413 . S
C66 C68 1.360 . S
C67 C66 1.413 . S
C67 C71 1.429 . S
C68 C66 1.360 . S
C68 C69 1.372 . S
C69 H64 0.928 . S
C69 C68 1.372 . S
C69 C70 1.404 . S
C70 C69 1.404 . S
C70 C71 1.391 . S
C71 H65 0.930 . S
C71 C67 1.429 . S
C71 C70 1.391 . S
H72 C75 0.931 . S
H73 C78 0.928 . S
H74 C80 0.930 . S
C75 H72 0.931 . S
C75 C76 1.413 . S
C75 C77 1.360 . S
C76 C75 1.413 . S
C76 C80 1.429 . S
C77 C75 1.360 . S
C77 C78 1.372 . S
C78 H73 0.928 . S
C78 C77 1.372 . S
C78 C79 1.404 . S
C79 C78 1.404 . S
C79 C80 1.391 . S
C80 H74 0.930 . S
C80 C76 1.429 . S
C80 C79 1.391 . S
H81 C84 0.931 . S
H82 C87 0.928 . S
H83 C89 0.930 . S
C84 H81 0.931 . S
C84 C85 1.413 . S
C84 C86 1.360 . S
C85 C84 1.413 . S
C85 C89 1.429 . S
C86 C84 1.360 . S
C86 C87 1.372 . S
C87 H82 0.928 . S
C87 C86 1.372 . S
C87 C88 1.404 . S
C88 C87 1.404 . S
C88 C89 1.391 . S
C89 H83 0.930 . S
C89 C85 1.429 . S
C89 C88 1.391 . S
H90 C93 0.931 . S
H91 C96 0.928 . S
H92 C98 0.930 . S
C93 H90 0.931 . S
C93 C94 1.413 . S
C93 C95 1.360 . S
C94 C93 1.413 . S
C94 C98 1.429 . S
C95 C93 1.360 . S
C95 C96 1.372 . S
C96 H91 0.928 . S
C96 C95 1.372 . S
C96 C97 1.404 . S
C97 C96 1.404 . S
C97 C98 1.391 . S
C98 H92 0.930 . S
C98 C94 1.429 . S
C98 C97 1.391 . S
H99 C102 0.931 . S
H100 C105 0.928 . S
H101 C107 0.930 . S
C102 H99 0.931 . S
C102 C103 1.413 . S
C102 C104 1.360 . S
C103 C102 1.413 . S
C103 C107 1.429 . S
C104 C102 1.360 . S
C104 C105 1.372 . S
C105 H100 0.928 . S
C105 C104 1.372 . S
C105 C106 1.404 . S
C106 C105 1.404 . S
C106 C107 1.391 . S
C107 H101 0.930 . S
C107 C103 1.429 . S
C107 C106 1.391 . S
H108 C111 0.931 . S
H109 C114 0.928 . S
H110 C116 0.930 . S
C111 H108 0.931 . S
C111 C112 1.413 . S
C111 C113 1.360 . S
C112 C111 1.413 . S
C112 C116 1.429 . S
C113 C111 1.360 . S
C113 C114 1.372 . S
C114 H109 0.928 . S
C114 C113 1.372 . S
C114 C115 1.404 . S
C115 C114 1.404 . S
C115 C116 1.391 . S
C116 H110 0.930 . S
C116 C112 1.429 . S
C116 C115 1.391 . S
H117 C120 0.931 . S
H118 C123 0.928 . S
H119 C125 0.930 . S
C120 H117 0.931 . S
C120 C121 1.413 . S
C120 C122 1.360 . S
C121 C120 1.413 . S
C121 C125 1.429 . S
C122 C120 1.360 . S
C122 C123 1.372 . S
C123 H118 0.928 . S
C123 C122 1.372 . S
C123 C124 1.404 . S
C124 C123 1.404 . S
C124 C125 1.391 . S
C125 H119 0.930 . S
C125 C121 1.429 . S
C125 C124 1.391 . S
H126 C129 0.931 . S
H127 C132 0.928 . S
H128 C134 0.930 . S
C129 H126 0.931 . S
C129 C130 1.413 . S
C129 C131 1.360 . S
C130 C129 1.413 . S
C130 C134 1.429 . S
C131 C129 1.360 . S
C131 C132 1.372 . S
C132 H127 0.928 . S
C132 C131 1.372 . S
C132 C133 1.404 . S
C133 C132 1.404 . S
C133 C134 1.391 . S
C134 H128 0.930 . S
C134 C130 1.429 . S
C134 C133 1.391 . S
H135 C138 0.931 . S
H136 C141 0.928 . S
H137 C143 0.930 . S
C138 H135 0.931 . S
C138 C139 1.413 . S
C138 C140 1.360 . S
C139 C138 1.413 . S
C139 C143 1.429 . S
C140 C138 1.360 . S
C140 C141 1.372 . S
C141 H136 0.928 . S
C141 C140 1.372 . S
C141 C142 1.404 . S
C142 C141 1.404 . S
C142 C143 1.391 . S
C143 H137 0.930 . S
C143 C139 1.429 . S
C143 C142 1.391 . S
H144 C147 0.931 . S
H145 C150 0.928 . S
H146 C152 0.930 . S
C147 H144 0.931 . S
C147 C148 1.413 . S
C147 C149 1.360 . S
C148 C147 1.413 . S
C148 C152 1.429 . S
C149 C147 1.360 . S
C149 C150 1.372 . S
C150 H145 0.928 . S
C150 C149 1.372 . S
C150 C151 1.404 . S
C151 C150 1.404 . S
C151 C152 1.391 . S
C152 H146 0.930 . S
C152 C148 1.429 . S
C152 C151 1.391 . S
H153 C156 0.931 . S
H154 C159 0.928 . S
H155 C161 0.930 . S
C156 H153 0.931 . S
C156 C157 1.413 . S
C156 C158 1.360 . S
C157 C156 1.413 . S
C157 C161 1.429 . S
C158 C156 1.360 . S
C158 C159 1.372 . S
C159 H154 0.928 . S
C159 C158 1.372 . S
C159 C160 1.404 . S
C160 C159 1.404 . S
C160 C161 1.391 . S
C161 H155 0.930 . S
C161 C157 1.429 . S
C161 C160 1.391 . S
Eu162 N193 2.657 . S
Eu162 N200 2.609 . S
Eu162 O206 2.558 . S
Eu162 O207 2.612 1_565 S
Eu162 O209 2.339 1_565 S
Eu162 O210 2.563 1_565 S
Eu162 O211 2.419 . S
Eu162 O213 2.380 1_556 S
Eu162 O214 2.432 . S
Eu162 C226 2.848 . S
C163 C166 1.429 . S
C163 C167 1.411 . S
C163 N170 1.377 . S
C164 C166 1.420 . S
C164 C168 1.423 . S
C164 C176 1.392 . S
C165 C167 1.420 . S
C165 C168 1.351 . S
C165 H188 0.931 . S
C166 C163 1.429 . S
C166 C164 1.420 . S
C166 N174 1.362 . S
C167 C163 1.411 . S
C167 C165 1.420 . S
C167 C172 1.395 . S
C168 C164 1.423 . S
C168 C165 1.351 . S
C168 H180 0.930 . S
C169 C171 1.400 . S
C169 C172 1.386 . S
C169 H181 0.930 . S
N170 C163 1.377 . S
N170 C171 1.321 . S
N170 Eu173 2.609 . S
C171 C169 1.400 . S
C171 N170 1.321 . S
C171 H178 0.930 . S
C172 C167 1.395 . S
C172 C169 1.386 . S
C172 H191 0.930 . S
Eu173 N170 2.609 . S
Eu173 N174 2.657 . S
Eu173 O207 2.380 1_554 S
Eu173 O208 2.432 . S
Eu173 O212 2.558 . S
Eu173 O213 2.612 1_545 S
Eu173 O215 2.339 1_545 S
Eu173 O216 2.563 1_545 S
Eu173 O217 2.419 . S
Eu173 C237 2.848 . S
N174 C166 1.362 . S
N174 Eu173 2.657 . S
N174 C175 1.334 . S
C175 N174 1.334 . S
C175 C177 1.413 . S
C175 H182 0.929 . S
C176 C164 1.392 . S
C176 C177 1.367 . S
C176 H184 0.930 . S
C177 C175 1.413 . S
C177 C176 1.367 . S
C177 H179 0.930 . S
H178 C171 0.930 . S
H179 C177 0.930 . S
H180 C168 0.930 . S
H181 C169 0.930 . S
H182 C175 0.929 . S
H183 C197 0.930 . S
H184 C176 0.930 . S
H185 C203 0.930 . S
H186 C194 0.929 . S
H187 C201 0.930 . S
H188 C165 0.931 . S
H189 C195 0.930 . S
H190 C228 0.930 . S
H191 C172 0.930 . S
H192 C227 0.931 . S
N193 Eu162 2.657 . S
N193 C194 1.334 . S
N193 C198 1.362 . S
C194 H186 0.929 . S
C194 N193 1.334 . S
C194 C197 1.413 . S
C195 H189 0.930 . S
C195 C196 1.392 . S
C195 C197 1.367 . S
C196 C195 1.392 . S
C196 C198 1.420 . S
C196 C228 1.423 . S
C197 H183 0.930 . S
C197 C194 1.413 . S
C197 C195 1.367 . S
C198 N193 1.362 . S
C198 C196 1.420 . S
C198 C202 1.429 . S
H199 C204 0.930 . S
N200 Eu162 2.609 . S
N200 C202 1.377 . S
N200 C203 1.321 . S
C201 H187 0.930 . S
C201 C203 1.400 . S
C201 C204 1.386 . S
C202 C198 1.429 . S
C202 N200 1.377 . S
C202 C205 1.411 . S
C203 H185 0.930 . S
C203 N200 1.321 . S
C203 C201 1.400 . S
C204 H199 0.930 . S
C204 C201 1.386 . S
C204 C205 1.395 . S
C205 C202 1.411 . S
C205 C204 1.395 . S
C205 C227 1.420 . S
O206 Eu162 2.558 . S
O206 C226 1.257 . S
O207 Eu162 2.612 1_545 S
O207 Eu173 2.380 1_556 S
O207 C218 1.276 . S
O208 Eu173 2.432 . S
O208 C225 1.264 1_554 S
O209 Eu162 2.339 1_545 S
O209 C225 1.254 . S
O210 Eu162 2.563 1_545 S
O210 C218 1.235 . S
O211 Eu162 2.419 . S
O211 C226 1.249 . S
O212 Eu173 2.558 . S
O212 C237 1.257 . S
O213 Eu162 2.380 1_554 S
O213 Eu173 2.612 1_565 S
O213 C229 1.276 . S
O214 Eu162 2.432 . S
O214 C236 1.264 1_556 S
O215 Eu173 2.339 1_565 S
O215 C236 1.254 . S
O216 Eu173 2.563 1_565 S
O216 C229 1.235 . S
O217 Eu173 2.419 . S
O217 C237 1.249 . S
C218 O207 1.276 . S
C218 O210 1.235 . S
C219 C221 1.393 1_565 S
C219 C223 1.395 . S
C219 C226 1.492 . S
C220 C221 1.392 . S
C220 C222 1.386 1_545 S
C221 C219 1.393 1_545 S
C221 C220 1.392 . S
C221 H238 0.930 . S
C222 C220 1.386 1_565 S
C222 C224 1.395 . S
C222 H239 0.930 . S
C223 C219 1.395 . S
C223 C224 1.379 . S
C223 H240 0.930 . S
C224 C222 1.395 . S
C224 C223 1.379 . S
C224 H241 0.930 . S
C225 O208 1.264 1_556 S
C225 O209 1.254 . S
C226 Eu162 2.848 . S
C226 O206 1.257 . S
C226 O211 1.249 . S
C226 C219 1.492 . S
C227 H192 0.931 . S
C227 C205 1.420 . S
C227 C228 1.351 . S
C228 H190 0.930 . S
C228 C196 1.423 . S
C228 C227 1.351 . S
C229 O213 1.276 . S
C229 O216 1.235 . S
C230 C231 1.393 1_545 S
C230 C234 1.395 . S
C230 C237 1.492 . S
C231 C230 1.393 1_565 S
C231 C232 1.392 . S
C231 H242 0.930 . S
C232 C231 1.392 . S
C232 C233 1.386 1_565 S
C233 C232 1.386 1_545 S
C233 C235 1.395 . S
C233 H243 0.930 . S
C234 C230 1.395 . S
C234 C235 1.379 . S
C234 H244 0.930 . S
C235 C233 1.395 . S
C235 C234 1.379 . S
C235 H245 0.930 . S
C236 O214 1.264 1_554 S
C236 O215 1.254 . S
C237 Eu173 2.848 . S
C237 O212 1.257 . S
C237 O217 1.249 . S
C237 C230 1.492 . S
H238 C221 0.930 . S
H239 C222 0.930 . S
H240 C223 0.930 . S
H241 C224 0.930 . S
H242 C231 0.930 . S
H243 C233 0.930 . S
H244 C234 0.930 . S
H245 C235 0.930 . S
Eu246 N277 2.657 . S
Eu246 N284 2.609 . S
Eu246 O290 2.558 . S
Eu246 O291 2.612 1_455 S
Eu246 O293 2.339 1_455 S
Eu246 O294 2.563 1_455 S
Eu246 O295 2.419 . S
Eu246 O297 2.380 1_556 S
Eu246 O298 2.432 . S
Eu246 C310 2.848 . S
C247 C250 1.429 . S
C247 C251 1.411 . S
C247 N254 1.377 . S
C248 C250 1.420 . S
C248 C252 1.423 . S
C248 C260 1.392 . S
C249 C251 1.420 . S
C249 C252 1.351 . S
C249 H272 0.931 . S
C250 C247 1.429 . S
C250 C248 1.420 . S
C250 N258 1.362 . S
C251 C247 1.411 . S
C251 C249 1.420 . S
C251 C256 1.395 . S
C252 C248 1.423 . S
C252 C249 1.351 . S
C252 H264 0.930 . S
C253 C255 1.400 . S
C253 C256 1.386 . S
C253 H265 0.930 . S
N254 C247 1.377 . S
N254 C255 1.321 . S
N254 Eu257 2.609 . S
C255 C253 1.400 . S
C255 N254 1.321 . S
C255 H262 0.930 . S
C256 C251 1.395 . S
C256 C253 1.386 . S
C256 H275 0.930 . S
Eu257 N254 2.609 . S
Eu257 N258 2.657 . S
Eu257 O291 2.380 1_554 S
Eu257 O292 2.432 . S
Eu257 O296 2.558 . S
Eu257 O297 2.612 1_655 S
Eu257 O299 2.339 1_655 S
Eu257 O300 2.563 1_655 S
Eu257 O301 2.419 . S
Eu257 C321 2.848 . S
N258 C250 1.362 . S
N258 Eu257 2.657 . S
N258 C259 1.334 . S
C259 N258 1.334 . S
C259 C261 1.413 . S
C259 H266 0.929 . S
C260 C248 1.392 . S
C260 C261 1.367 . S
C260 H268 0.930 . S
C261 C259 1.413 . S
C261 C260 1.367 . S
C261 H263 0.930 . S
H262 C255 0.930 . S
H263 C261 0.930 . S
H264 C252 0.930 . S
H265 C253 0.930 . S
H266 C259 0.929 . S
H267 C281 0.930 . S
H268 C260 0.930 . S
H269 C287 0.930 . S
H270 C278 0.929 . S
H271 C285 0.930 . S
H272 C249 0.931 . S
H273 C279 0.930 . S
H274 C312 0.930 . S
H275 C256 0.930 . S
H276 C311 0.931 . S
N277 Eu246 2.657 . S
N277 C278 1.334 . S
N277 C282 1.362 . S
C278 H270 0.929 . S
C278 N277 1.334 . S
C278 C281 1.413 . S
C279 H273 0.930 . S
C279 C280 1.392 . S
C279 C281 1.367 . S
C280 C279 1.392 . S
C280 C282 1.420 . S
C280 C312 1.423 . S
C281 H267 0.930 . S
C281 C278 1.413 . S
C281 C279 1.367 . S
C282 N277 1.362 . S
C282 C280 1.420 . S
C282 C286 1.429 . S
H283 C288 0.930 . S
N284 Eu246 2.609 . S
N284 C286 1.377 . S
N284 C287 1.321 . S
C285 H271 0.930 . S
C285 C287 1.400 . S
C285 C288 1.386 . S
C286 C282 1.429 . S
C286 N284 1.377 . S
C286 C289 1.411 . S
C287 H269 0.930 . S
C287 N284 1.321 . S
C287 C285 1.400 . S
C288 H283 0.930 . S
C288 C285 1.386 . S
C288 C289 1.395 . S
C289 C286 1.411 . S
C289 C288 1.395 . S
C289 C311 1.420 . S
O290 Eu246 2.558 . S
O290 C310 1.257 . S
O291 Eu246 2.612 1_655 S
O291 Eu257 2.380 1_556 S
O291 C302 1.276 . S
O292 Eu257 2.432 . S
O292 C309 1.264 1_554 S
O293 Eu246 2.339 1_655 S
O293 C309 1.254 . S
O294 Eu246 2.563 1_655 S
O294 C302 1.235 . S
O295 Eu246 2.419 . S
O295 C310 1.249 . S
O296 Eu257 2.558 . S
O296 C321 1.257 . S
O297 Eu246 2.380 1_554 S
O297 Eu257 2.612 1_455 S
O297 C313 1.276 . S
O298 Eu246 2.432 . S
O298 C320 1.264 1_556 S
O299 Eu257 2.339 1_455 S
O299 C320 1.254 . S
O300 Eu257 2.563 1_455 S
O300 C313 1.235 . S
O301 Eu257 2.419 . S
O301 C321 1.249 . S
C302 O291 1.276 . S
C302 O294 1.235 . S
C303 C305 1.393 1_455 S
C303 C307 1.395 . S
C303 C310 1.492 . S
C304 C305 1.392 . S
C304 C306 1.386 1_655 S
C305 C303 1.393 1_655 S
C305 C304 1.392 . S
C305 H322 0.930 . S
C306 C304 1.386 1_455 S
C306 C308 1.395 . S
C306 H323 0.930 . S
C307 C303 1.395 . S
C307 C308 1.379 . S
C307 H324 0.930 . S
C308 C306 1.395 . S
C308 C307 1.379 . S
C308 H325 0.930 . S
C309 O292 1.264 1_556 S
C309 O293 1.254 . S
C310 Eu246 2.848 . S
C310 O290 1.257 . S
C310 O295 1.249 . S
C310 C303 1.492 . S
C311 H276 0.931 . S
C311 C289 1.420 . S
C311 C312 1.351 . S
C312 H274 0.930 . S
C312 C280 1.423 . S
C312 C311 1.351 . S
C313 O297 1.276 . S
C313 O300 1.235 . S
C314 C315 1.393 1_655 S
C314 C318 1.395 . S
C314 C321 1.492 . S
C315 C314 1.393 1_455 S
C315 C316 1.392 . S
C315 H326 0.930 . S
C316 C315 1.392 . S
C316 C317 1.386 1_455 S
C317 C316 1.386 1_655 S
C317 C319 1.395 . S
C317 H327 0.930 . S
C318 C314 1.395 . S
C318 C319 1.379 . S
C318 H328 0.930 . S
C319 C317 1.395 . S
C319 C318 1.379 . S
C319 H329 0.930 . S
C320 O298 1.264 1_554 S
C320 O299 1.254 . S
C321 Eu257 2.848 . S
C321 O296 1.257 . S
C321 O301 1.249 . S
C321 C314 1.492 . S
H322 C305 0.930 . S
H323 C306 0.930 . S
H324 C307 0.930 . S
H325 C308 0.930 . S
H326 C315 0.930 . S
H327 C317 0.930 . S
H328 C318 0.930 . S
H329 C319 0.930 . S
Eu330 N361 2.657 . S
Eu330 N368 2.609 . S
Eu330 O374 2.558 . S
Eu330 O375 2.612 . S
Eu330 O377 2.339 . S
Eu330 O378 2.563 . S
Eu330 O379 2.419 . S
Eu330 O381 2.380 1_554 S
Eu330 O382 2.432 . S
Eu330 C394 2.848 . S
C331 C334 1.429 . S
C331 C335 1.411 . S
C331 N338 1.377 . S
C332 C334 1.420 . S
C332 C336 1.423 . S
C332 C344 1.392 . S
C333 C335 1.420 . S
C333 C336 1.351 . S
C333 H356 0.931 . S
C334 C331 1.429 . S
C334 C332 1.420 . S
C334 N342 1.362 . S
C335 C331 1.411 . S
C335 C333 1.420 . S
C335 C340 1.395 . S
C336 C332 1.423 . S
C336 C333 1.351 . S
C336 H348 0.930 . S
C337 C339 1.400 . S
C337 C340 1.386 . S
C337 H349 0.930 . S
N338 C331 1.377 . S
N338 C339 1.321 . S
N338 Eu341 2.609 . S
C339 C337 1.400 . S
C339 N338 1.321 . S
C339 H346 0.930 . S
C340 C335 1.395 . S
C340 C337 1.386 . S
C340 H359 0.930 . S
Eu341 N338 2.609 . S
Eu341 N342 2.657 . S
Eu341 O375 2.380 1_556 S
Eu341 O376 2.432 . S
Eu341 O380 2.558 . S
Eu341 O381 2.612 . S
Eu341 O383 2.339 . S
Eu341 O384 2.563 . S
Eu341 O385 2.419 . S
Eu341 C405 2.848 . S
N342 C334 1.362 . S
N342 Eu341 2.657 . S
N342 C343 1.334 . S
C343 N342 1.334 . S
C343 C345 1.413 . S
C343 H350 0.929 . S
C344 C332 1.392 . S
C344 C345 1.367 . S
C344 H352 0.930 . S
C345 C343 1.413 . S
C345 C344 1.367 . S
C345 H347 0.930 . S
H346 C339 0.930 . S
H347 C345 0.930 . S
H348 C336 0.930 . S
H349 C337 0.930 . S
H350 C343 0.929 . S
H351 C365 0.930 . S
H352 C344 0.930 . S
H353 C371 0.930 . S
H354 C362 0.929 . S
H355 C369 0.930 . S
H356 C333 0.931 . S
H357 C363 0.930 . S
H358 C396 0.930 . S
H359 C340 0.930 . S
H360 C395 0.931 . S
N361 Eu330 2.657 . S
N361 C362 1.334 . S
N361 C366 1.362 . S
C362 H354 0.929 . S
C362 N361 1.334 . S
C362 C365 1.413 . S
C363 H357 0.930 . S
C363 C364 1.392 . S
C363 C365 1.367 . S
C364 C363 1.392 . S
C364 C366 1.420 . S
C364 C396 1.423 . S
C365 H351 0.930 . S
C365 C362 1.413 . S
C365 C363 1.367 . S
C366 N361 1.362 . S
C366 C364 1.420 . S
C366 C370 1.429 . S
H367 C372 0.930 . S
N368 Eu330 2.609 . S
N368 C370 1.377 . S
N368 C371 1.321 . S
C369 H355 0.930 . S
C369 C371 1.400 . S
C369 C372 1.386 . S
C370 C366 1.429 . S
C370 N368 1.377 . S
C370 C373 1.411 . S
C371 H353 0.930 . S
C371 N368 1.321 . S
C371 C369 1.400 . S
C372 H367 0.930 . S
C372 C369 1.386 . S
C372 C373 1.395 . S
C373 C370 1.411 . S
C373 C372 1.395 . S
C373 C395 1.420 . S
O374 Eu330 2.558 . S
O374 C394 1.257 . S
O375 Eu330 2.612 . S
O375 Eu341 2.380 1_554 S
O375 C386 1.276 . S
O376 Eu341 2.432 . S
O376 C393 1.264 1_556 S
O377 Eu330 2.339 . S
O377 C393 1.254 . S
O378 Eu330 2.563 . S
O378 C386 1.235 . S
O379 Eu330 2.419 . S
O379 C394 1.249 . S
O380 Eu341 2.558 . S
O380 C405 1.257 . S
O381 Eu330 2.380 1_556 S
O381 Eu341 2.612 . S
O381 C397 1.276 . S
O382 Eu330 2.432 . S
O382 C404 1.264 1_554 S
O383 Eu341 2.339 . S
O383 C404 1.254 . S
O384 Eu341 2.563 . S
O384 C397 1.235 . S
O385 Eu341 2.419 . S
O385 C405 1.249 . S
C386 O375 1.276 . S
C386 O378 1.235 . S
C387 C389 1.393 . S
C387 C391 1.395 . S
C387 C394 1.492 . S
C388 C389 1.392 . S
C388 C390 1.386 . S
C389 C387 1.393 . S
C389 C388 1.392 . S
C389 H406 0.930 . S
C390 C388 1.386 . S
C390 C392 1.395 . S
C390 H407 0.930 . S
C391 C387 1.395 . S
C391 C392 1.379 . S
C391 H408 0.930 . S
C392 C390 1.395 . S
C392 C391 1.379 . S
C392 H409 0.930 . S
C393 O376 1.264 1_554 S
C393 O377 1.254 . S
C394 Eu330 2.848 . S
C394 O374 1.257 . S
C394 O379 1.249 . S
C394 C387 1.492 . S
C395 H360 0.931 . S
C395 C373 1.420 . S
C395 C396 1.351 . S
C396 H358 0.930 . S
C396 C364 1.423 . S
C396 C395 1.351 . S
C397 O381 1.276 . S
C397 O384 1.235 . S
C398 C399 1.393 . S
C398 C402 1.395 . S
C398 C405 1.492 . S
C399 C398 1.393 . S
C399 C400 1.392 . S
C399 H410 0.930 . S
C400 C399 1.392 . S
C400 C401 1.386 . S
C401 C400 1.386 . S
C401 C403 1.395 . S
C401 H411 0.930 . S
C402 C398 1.395 . S
C402 C403 1.379 . S
C402 H412 0.930 . S
C403 C401 1.395 . S
C403 C402 1.379 . S
C403 H413 0.930 . S
C404 O382 1.264 1_556 S
C404 O383 1.254 . S
C405 Eu341 2.848 . S
C405 O380 1.257 . S
C405 O385 1.249 . S
C405 C398 1.492 . S
H406 C389 0.930 . S
H407 C390 0.930 . S
H408 C391 0.930 . S
H409 C392 0.930 . S
H410 C399 0.930 . S
H411 C401 0.930 . S
H412 C402 0.930 . S
H413 C403 0.930 . S
Eu414 N445 2.657 . S
Eu414 N452 2.609 . S
Eu414 O458 2.558 . S
Eu414 O459 2.612 . S
Eu414 O461 2.339 . S
Eu414 O462 2.563 . S
Eu414 O463 2.419 . S
Eu414 O465 2.380 . S
Eu414 O466 2.432 . S
Eu414 C478 2.848 . S
C415 C418 1.429 . S
C415 C419 1.411 . S
C415 N422 1.377 . S
C416 C418 1.420 . S
C416 C420 1.423 . S
C416 C428 1.392 . S
C417 C419 1.420 . S
C417 C420 1.351 . S
C417 H440 0.931 . S
C418 C415 1.429 . S
C418 C416 1.420 . S
C418 N426 1.362 . S
C419 C415 1.411 . S
C419 C417 1.420 . S
C419 C424 1.395 . S
C420 C416 1.423 . S
C420 C417 1.351 . S
C420 H432 0.930 . S
C421 C423 1.400 . S
C421 C424 1.386 . S
C421 H433 0.930 . S
N422 C415 1.377 . S
N422 C423 1.321 . S
N422 Eu425 2.609 . S
C423 C421 1.400 . S
C423 N422 1.321 . S
C423 H430 0.930 . S
C424 C419 1.395 . S
C424 C421 1.386 . S
C424 H443 0.930 . S
Eu425 N422 2.609 . S
Eu425 N426 2.657 . S
Eu425 O459 2.380 . S
Eu425 O460 2.432 . S
Eu425 O464 2.558 . S
Eu425 O465 2.612 . S
Eu425 O467 2.339 . S
Eu425 O468 2.563 . S
Eu425 O469 2.419 . S
Eu425 C489 2.848 . S
N426 C418 1.362 . S
N426 Eu425 2.657 . S
N426 C427 1.334 . S
C427 N426 1.334 . S
C427 C429 1.413 . S
C427 H434 0.929 . S
C428 C416 1.392 . S
C428 C429 1.367 . S
C428 H436 0.930 . S
C429 C427 1.413 . S
C429 C428 1.367 . S
C429 H431 0.930 . S
H430 C423 0.930 . S
H431 C429 0.930 . S
H432 C420 0.930 . S
H433 C421 0.930 . S
H434 C427 0.929 . S
H435 C449 0.930 . S
H436 C428 0.930 . S
H437 C455 0.930 . S
H438 C446 0.929 . S
H439 C453 0.930 . S
H440 C417 0.931 . S
H441 C447 0.930 . S
H442 C480 0.930 . S
H443 C424 0.930 . S
H444 C479 0.931 . S
N445 Eu414 2.657 . S
N445 C446 1.334 . S
N445 C450 1.362 . S
C446 H438 0.929 . S
C446 N445 1.334 . S
C446 C449 1.413 . S
C447 H441 0.930 . S
C447 C448 1.392 . S
C447 C449 1.367 . S
C448 C447 1.392 . S
C448 C450 1.420 . S
C448 C480 1.423 . S
C449 H435 0.930 . S
C449 C446 1.413 . S
C449 C447 1.367 . S
C450 N445 1.362 . S
C450 C448 1.420 . S
C450 C454 1.429 . S
H451 C456 0.930 . S
N452 Eu414 2.609 . S
N452 C454 1.377 . S
N452 C455 1.321 . S
C453 H439 0.930 . S
C453 C455 1.400 . S
C453 C456 1.386 . S
C454 C450 1.429 . S
C454 N452 1.377 . S
C454 C457 1.411 . S
C455 H437 0.930 . S
C455 N452 1.321 . S
C455 C453 1.400 . S
C456 H451 0.930 . S
C456 C453 1.386 . S
C456 C457 1.395 . S
C457 C454 1.411 . S
C457 C456 1.395 . S
C457 C479 1.420 . S
O458 Eu414 2.558 . S
O458 C478 1.257 . S
O459 Eu414 2.612 . S
O459 Eu425 2.380 . S
O459 C470 1.276 . S
O460 Eu425 2.432 . S
O460 C477 1.264 . S
O461 Eu414 2.339 . S
O461 C477 1.254 . S
O462 Eu414 2.563 . S
O462 C470 1.235 . S
O463 Eu414 2.419 . S
O463 C478 1.249 . S
O464 Eu425 2.558 . S
O464 C489 1.257 . S
O465 Eu414 2.380 . S
O465 Eu425 2.612 . S
O465 C481 1.276 . S
O466 Eu414 2.432 . S
O466 C488 1.264 . S
O467 Eu425 2.339 . S
O467 C488 1.254 . S
O468 Eu425 2.563 . S
O468 C481 1.235 . S
O469 Eu425 2.419 . S
O469 C489 1.249 . S
C470 O459 1.276 . S
C470 O462 1.235 . S
C471 C473 1.393 . S
C471 C475 1.395 . S
C471 C478 1.492 . S
C472 C473 1.392 . S
C472 C474 1.386 . S
C473 C471 1.393 . S
C473 C472 1.392 . S
C473 H490 0.930 . S
C474 C472 1.386 . S
C474 C476 1.395 . S
C474 H491 0.930 . S
C475 C471 1.395 . S
C475 C476 1.379 . S
C475 H492 0.930 . S
C476 C474 1.395 . S
C476 C475 1.379 . S
C476 H493 0.930 . S
C477 O460 1.264 . S
C477 O461 1.254 . S
C478 Eu414 2.848 . S
C478 O458 1.257 . S
C478 O463 1.249 . S
C478 C471 1.492 . S
C479 H444 0.931 . S
C479 C457 1.420 . S
C479 C480 1.351 . S
C480 H442 0.930 . S
C480 C448 1.423 . S
C480 C479 1.351 . S
C481 O465 1.276 . S
C481 O468 1.235 . S
C482 C483 1.393 . S
C482 C486 1.395 . S
C482 C489 1.492 . S
C483 C482 1.393 . S
C483 C484 1.392 . S
C483 H494 0.930 . S
C484 C483 1.392 . S
C484 C485 1.386 . S
C485 C484 1.386 . S
C485 C487 1.395 . S
C485 H495 0.930 . S
C486 C482 1.395 . S
C486 C487 1.379 . S
C486 H496 0.930 . S
C487 C485 1.395 . S
C487 C486 1.379 . S
C487 H497 0.930 . S
C488 O466 1.264 . S
C488 O467 1.254 . S
C489 Eu425 2.848 . S
C489 O464 1.257 . S
C489 O469 1.249 . S
C489 C482 1.492 . S
H490 C473 0.930 . S
H491 C474 0.930 . S
H492 C475 0.930 . S
H493 C476 0.930 . S
H494 C483 0.930 . S
H495 C485 0.930 . S
H496 C486 0.930 . S
H497 C487 0.930 . S
Eu498 N529 2.657 . S
Eu498 N536 2.609 . S
Eu498 O542 2.558 . S
Eu498 O543 2.612 . S
Eu498 O545 2.339 . S
Eu498 O546 2.563 . S
Eu498 O547 2.419 . S
Eu498 O549 2.380 . S
Eu498 O550 2.432 . S
Eu498 C562 2.848 . S
C499 C502 1.429 . S
C499 C503 1.411 . S
C499 N506 1.377 . S
C500 C502 1.420 . S
C500 C504 1.423 . S
C500 C512 1.392 . S
C501 C503 1.420 . S
C501 C504 1.351 . S
C501 H524 0.931 . S
C502 C499 1.429 . S
C502 C500 1.420 . S
C502 N510 1.362 . S
C503 C499 1.411 . S
C503 C501 1.420 . S
C503 C508 1.395 . S
C504 C500 1.423 . S
C504 C501 1.351 . S
C504 H516 0.930 . S
C505 C507 1.400 . S
C505 C508 1.386 . S
C505 H517 0.930 . S
N506 C499 1.377 . S
N506 C507 1.321 . S
N506 Eu509 2.609 . S
C507 C505 1.400 . S
C507 N506 1.321 . S
C507 H514 0.930 . S
C508 C503 1.395 . S
C508 C505 1.386 . S
C508 H527 0.930 . S
Eu509 N506 2.609 . S
Eu509 N510 2.657 . S
Eu509 O543 2.380 . S
Eu509 O544 2.432 . S
Eu509 O548 2.558 . S
Eu509 O549 2.612 . S
Eu509 O551 2.339 . S
Eu509 O552 2.563 . S
Eu509 O553 2.419 . S
Eu509 C573 2.848 . S
N510 C502 1.362 . S
N510 Eu509 2.657 . S
N510 C511 1.334 . S
C511 N510 1.334 . S
C511 C513 1.413 . S
C511 H518 0.929 . S
C512 C500 1.392 . S
C512 C513 1.367 . S
C512 H520 0.930 . S
C513 C511 1.413 . S
C513 C512 1.367 . S
C513 H515 0.930 . S
H514 C507 0.930 . S
H515 C513 0.930 . S
H516 C504 0.930 . S
H517 C505 0.930 . S
H518 C511 0.929 . S
H519 C533 0.930 . S
H520 C512 0.930 . S
H521 C539 0.930 . S
H522 C530 0.929 . S
H523 C537 0.930 . S
H524 C501 0.931 . S
H525 C531 0.930 . S
H526 C564 0.930 . S
H527 C508 0.930 . S
H528 C563 0.931 . S
N529 Eu498 2.657 . S
N529 C530 1.334 . S
N529 C534 1.362 . S
C530 H522 0.929 . S
C530 N529 1.334 . S
C530 C533 1.413 . S
C531 H525 0.930 . S
C531 C532 1.392 . S
C531 C533 1.367 . S
C532 C531 1.392 . S
C532 C534 1.420 . S
C532 C564 1.423 . S
C533 H519 0.930 . S
C533 C530 1.413 . S
C533 C531 1.367 . S
C534 N529 1.362 . S
C534 C532 1.420 . S
C534 C538 1.429 . S
H535 C540 0.930 . S
N536 Eu498 2.609 . S
N536 C538 1.377 . S
N536 C539 1.321 . S
C537 H523 0.930 . S
C537 C539 1.400 . S
C537 C540 1.386 . S
C538 C534 1.429 . S
C538 N536 1.377 . S
C538 C541 1.411 . S
C539 H521 0.930 . S
C539 N536 1.321 . S
C539 C537 1.400 . S
C540 H535 0.930 . S
C540 C537 1.386 . S
C540 C541 1.395 . S
C541 C538 1.411 . S
C541 C540 1.395 . S
C541 C563 1.420 . S
O542 Eu498 2.558 . S
O542 C562 1.257 . S
O543 Eu498 2.612 . S
O543 Eu509 2.380 . S
O543 C554 1.276 . S
O544 Eu509 2.432 . S
O544 C561 1.264 . S
O545 Eu498 2.339 . S
O545 C561 1.254 . S
O546 Eu498 2.563 . S
O546 C554 1.235 . S
O547 Eu498 2.419 . S
O547 C562 1.249 . S
O548 Eu509 2.558 . S
O548 C573 1.257 . S
O549 Eu498 2.380 . S
O549 Eu509 2.612 . S
O549 C565 1.276 . S
O550 Eu498 2.432 . S
O550 C572 1.264 . S
O551 Eu509 2.339 . S
O551 C572 1.254 . S
O552 Eu509 2.563 . S
O552 C565 1.235 . S
O553 Eu509 2.419 . S
O553 C573 1.249 . S
C554 O543 1.276 . S
C554 O546 1.235 . S
C555 C557 1.393 . S
C555 C559 1.395 . S
C555 C562 1.492 . S
C556 C557 1.392 . S
C556 C558 1.386 . S
C557 C555 1.393 . S
C557 C556 1.392 . S
C557 H574 0.930 . S
C558 C556 1.386 . S
C558 C560 1.395 . S
C558 H575 0.930 . S
C559 C555 1.395 . S
C559 C560 1.379 . S
C559 H576 0.930 . S
C560 C558 1.395 . S
C560 C559 1.379 . S
C560 H577 0.930 . S
C561 O544 1.264 . S
C561 O545 1.254 . S
C562 Eu498 2.848 . S
C562 O542 1.257 . S
C562 O547 1.249 . S
C562 C555 1.492 . S
C563 H528 0.931 . S
C563 C541 1.420 . S
C563 C564 1.351 . S
C564 H526 0.930 . S
C564 C532 1.423 . S
C564 C563 1.351 . S
C565 O549 1.276 . S
C565 O552 1.235 . S
C566 C567 1.393 . S
C566 C570 1.395 . S
C566 C573 1.492 . S
C567 C566 1.393 . S
C567 C568 1.392 . S
C567 H578 0.930 . S
C568 C567 1.392 . S
C568 C569 1.386 . S
C569 C568 1.386 . S
C569 C571 1.395 . S
C569 H579 0.930 . S
C570 C566 1.395 . S
C570 C571 1.379 . S
C570 H580 0.930 . S
C571 C569 1.395 . S
C571 C570 1.379 . S
C571 H581 0.930 . S
C572 O550 1.264 . S
C572 O551 1.254 . S
C573 Eu509 2.848 . S
C573 O548 1.257 . S
C573 O553 1.249 . S
C573 C566 1.492 . S
H574 C557 0.930 . S
H575 C558 0.930 . S
H576 C559 0.930 . S
H577 C560 0.930 . S
H578 C567 0.930 . S
H579 C569 0.930 . S
H580 C570 0.930 . S
H581 C571 0.930 . S
Eu582 N613 2.657 . S
Eu582 N620 2.609 . S
Eu582 O626 2.558 . S
Eu582 O627 2.612 . S
Eu582 O629 2.339 . S
Eu582 O630 2.563 . S
Eu582 O631 2.419 . S
Eu582 O633 2.380 . S
Eu582 O634 2.432 . S
Eu582 C646 2.848 . S
C583 C586 1.429 . S
C583 C587 1.411 . S
C583 N590 1.377 . S
C584 C586 1.420 . S
C584 C588 1.423 . S
C584 C596 1.392 . S
C585 C587 1.420 . S
C585 C588 1.351 . S
C585 H608 0.931 . S
C586 C583 1.429 . S
C586 C584 1.420 . S
C586 N594 1.362 . S
C587 C583 1.411 . S
C587 C585 1.420 . S
C587 C592 1.395 . S
C588 C584 1.423 . S
C588 C585 1.351 . S
C588 H600 0.930 . S
C589 C591 1.400 . S
C589 C592 1.386 . S
C589 H601 0.930 . S
N590 C583 1.377 . S
N590 C591 1.321 . S
N590 Eu593 2.609 . S
C591 C589 1.400 . S
C591 N590 1.321 . S
C591 H598 0.930 . S
C592 C587 1.395 . S
C592 C589 1.386 . S
C592 H611 0.930 . S
Eu593 N590 2.609 . S
Eu593 N594 2.657 . S
Eu593 O627 2.380 . S
Eu593 O628 2.432 . S
Eu593 O632 2.558 . S
Eu593 O633 2.612 . S
Eu593 O635 2.339 . S
Eu593 O636 2.563 . S
Eu593 O637 2.419 . S
Eu593 C657 2.848 . S
N594 C586 1.362 . S
N594 Eu593 2.657 . S
N594 C595 1.334 . S
C595 N594 1.334 . S
C595 C597 1.413 . S
C595 H602 0.929 . S
C596 C584 1.392 . S
C596 C597 1.367 . S
C596 H604 0.930 . S
C597 C595 1.413 . S
C597 C596 1.367 . S
C597 H599 0.930 . S
H598 C591 0.930 . S
H599 C597 0.930 . S
H600 C588 0.930 . S
H601 C589 0.930 . S
H602 C595 0.929 . S
H603 C617 0.930 . S
H604 C596 0.930 . S
H605 C623 0.930 . S
H606 C614 0.929 . S
H607 C621 0.930 . S
H608 C585 0.931 . S
H609 C615 0.930 . S
H610 C648 0.930 . S
H611 C592 0.930 . S
H612 C647 0.931 . S
N613 Eu582 2.657 . S
N613 C614 1.334 . S
N613 C618 1.362 . S
C614 H606 0.929 . S
C614 N613 1.334 . S
C614 C617 1.413 . S
C615 H609 0.930 . S
C615 C616 1.392 . S
C615 C617 1.367 . S
C616 C615 1.392 . S
C616 C618 1.420 . S
C616 C648 1.423 . S
C617 H603 0.930 . S
C617 C614 1.413 . S
C617 C615 1.367 . S
C618 N613 1.362 . S
C618 C616 1.420 . S
C618 C622 1.429 . S
H619 C624 0.930 . S
N620 Eu582 2.609 . S
N620 C622 1.377 . S
N620 C623 1.321 . S
C621 H607 0.930 . S
C621 C623 1.400 . S
C621 C624 1.386 . S
C622 C618 1.429 . S
C622 N620 1.377 . S
C622 C625 1.411 . S
C623 H605 0.930 . S
C623 N620 1.321 . S
C623 C621 1.400 . S
C624 H619 0.930 . S
C624 C621 1.386 . S
C624 C625 1.395 . S
C625 C622 1.411 . S
C625 C624 1.395 . S
C625 C647 1.420 . S
O626 Eu582 2.558 . S
O626 C646 1.257 . S
O627 Eu582 2.612 . S
O627 Eu593 2.380 . S
O627 C638 1.276 . S
O628 Eu593 2.432 . S
O628 C645 1.264 . S
O629 Eu582 2.339 . S
O629 C645 1.254 . S
O630 Eu582 2.563 . S
O630 C638 1.235 . S
O631 Eu582 2.419 . S
O631 C646 1.249 . S
O632 Eu593 2.558 . S
O632 C657 1.257 . S
O633 Eu582 2.380 . S
O633 Eu593 2.612 . S
O633 C649 1.276 . S
O634 Eu582 2.432 . S
O634 C656 1.264 . S
O635 Eu593 2.339 . S
O635 C656 1.254 . S
O636 Eu593 2.563 . S
O636 C649 1.235 . S
O637 Eu593 2.419 . S
O637 C657 1.249 . S
C638 O627 1.276 . S
C638 O630 1.235 . S
C639 C641 1.393 . S
C639 C643 1.395 . S
C639 C646 1.492 . S
C640 C641 1.392 . S
C640 C642 1.386 . S
C641 C639 1.393 . S
C641 C640 1.392 . S
C641 H658 0.930 . S
C642 C640 1.386 . S
C642 C644 1.395 . S
C642 H659 0.930 . S
C643 C639 1.395 . S
C643 C644 1.379 . S
C643 H660 0.930 . S
C644 C642 1.395 . S
C644 C643 1.379 . S
C644 H661 0.930 . S
C645 O628 1.264 . S
C645 O629 1.254 . S
C646 Eu582 2.848 . S
C646 O626 1.257 . S
C646 O631 1.249 . S
C646 C639 1.492 . S
C647 H612 0.931 . S
C647 C625 1.420 . S
C647 C648 1.351 . S
C648 H610 0.930 . S
C648 C616 1.423 . S
C648 C647 1.351 . S
C649 O633 1.276 . S
C649 O636 1.235 . S
C650 C651 1.393 . S
C650 C654 1.395 . S
C650 C657 1.492 . S
C651 C650 1.393 . S
C651 C652 1.392 . S
C651 H662 0.930 . S
C652 C651 1.392 . S
C652 C653 1.386 . S
C653 C652 1.386 . S
C653 C655 1.395 . S
C653 H663 0.930 . S
C654 C650 1.395 . S
C654 C655 1.379 . S
C654 H664 0.930 . S
C655 C653 1.395 . S
C655 C654 1.379 . S
C655 H665 0.930 . S
C656 O634 1.264 . S
C656 O635 1.254 . S
C657 Eu593 2.848 . S
C657 O632 1.257 . S
C657 O637 1.249 . S
C657 C650 1.492 . S
H658 C641 0.930 . S
H659 C642 0.930 . S
H660 C643 0.930 . S
H661 C644 0.930 . S
H662 C651 0.930 . S
H663 C653 0.930 . S
H664 C654 0.930 . S
H665 C655 0.930 . S
Eu666 N697 2.657 . S
Eu666 N704 2.609 . S
Eu666 O710 2.558 . S
Eu666 O711 2.612 . S
Eu666 O713 2.339 . S
Eu666 O714 2.563 . S
Eu666 O715 2.419 . S
Eu666 O717 2.380 . S
Eu666 O718 2.432 . S
Eu666 C730 2.848 . S
C667 C670 1.429 . S
C667 C671 1.411 . S
C667 N674 1.377 . S
C668 C670 1.420 . S
C668 C672 1.423 . S
C668 C680 1.392 . S
C669 C671 1.420 . S
C669 C672 1.351 . S
C669 H692 0.931 . S
C670 C667 1.429 . S
C670 C668 1.420 . S
C670 N678 1.362 . S
C671 C667 1.411 . S
C671 C669 1.420 . S
C671 C676 1.395 . S
C672 C668 1.423 . S
C672 C669 1.351 . S
C672 H684 0.930 . S
C673 C675 1.400 . S
C673 C676 1.386 . S
C673 H685 0.930 . S
N674 C667 1.377 . S
N674 C675 1.321 . S
N674 Eu677 2.609 . S
C675 C673 1.400 . S
C675 N674 1.321 . S
C675 H682 0.930 . S
C676 C671 1.395 . S
C676 C673 1.386 . S
C676 H695 0.930 . S
Eu677 N674 2.609 . S
Eu677 N678 2.657 . S
Eu677 O711 2.380 . S
Eu677 O712 2.432 . S
Eu677 O716 2.558 . S
Eu677 O717 2.612 . S
Eu677 O719 2.339 . S
Eu677 O720 2.563 . S
Eu677 O721 2.419 . S
Eu677 C741 2.848 . S
N678 C670 1.362 . S
N678 Eu677 2.657 . S
N678 C679 1.334 . S
C679 N678 1.334 . S
C679 C681 1.413 . S
C679 H686 0.929 . S
C680 C668 1.392 . S
C680 C681 1.367 . S
C680 H688 0.930 . S
C681 C679 1.413 . S
C681 C680 1.367 . S
C681 H683 0.930 . S
H682 C675 0.930 . S
H683 C681 0.930 . S
H684 C672 0.930 . S
H685 C673 0.930 . S
H686 C679 0.929 . S
H687 C701 0.930 . S
H688 C680 0.930 . S
H689 C707 0.930 . S
H690 C698 0.929 . S
H691 C705 0.930 . S
H692 C669 0.931 . S
H693 C699 0.930 . S
H694 C732 0.930 . S
H695 C676 0.930 . S
H696 C731 0.931 . S
N697 Eu666 2.657 . S
N697 C698 1.334 . S
N697 C702 1.362 . S
C698 H690 0.929 . S
C698 N697 1.334 . S
C698 C701 1.413 . S
C699 H693 0.930 . S
C699 C700 1.392 . S
C699 C701 1.367 . S
C700 C699 1.392 . S
C700 C702 1.420 . S
C700 C732 1.423 . S
C701 H687 0.930 . S
C701 C698 1.413 . S
C701 C699 1.367 . S
C702 N697 1.362 . S
C702 C700 1.420 . S
C702 C706 1.429 . S
H703 C708 0.930 . S
N704 Eu666 2.609 . S
N704 C706 1.377 . S
N704 C707 1.321 . S
C705 H691 0.930 . S
C705 C707 1.400 . S
C705 C708 1.386 . S
C706 C702 1.429 . S
C706 N704 1.377 . S
C706 C709 1.411 . S
C707 H689 0.930 . S
C707 N704 1.321 . S
C707 C705 1.400 . S
C708 H703 0.930 . S
C708 C705 1.386 . S
C708 C709 1.395 . S
C709 C706 1.411 . S
C709 C708 1.395 . S
C709 C731 1.420 . S
O710 Eu666 2.558 . S
O710 C730 1.257 . S
O711 Eu666 2.612 . S
O711 Eu677 2.380 . S
O711 C722 1.276 . S
O712 Eu677 2.432 . S
O712 C729 1.264 . S
O713 Eu666 2.339 . S
O713 C729 1.254 . S
O714 Eu666 2.563 . S
O714 C722 1.235 . S
O715 Eu666 2.419 . S
O715 C730 1.249 . S
O716 Eu677 2.558 . S
O716 C741 1.257 . S
O717 Eu666 2.380 . S
O717 Eu677 2.612 . S
O717 C733 1.276 . S
O718 Eu666 2.432 . S
O718 C740 1.264 . S
O719 Eu677 2.339 . S
O719 C740 1.254 . S
O720 Eu677 2.563 . S
O720 C733 1.235 . S
O721 Eu677 2.419 . S
O721 C741 1.249 . S
C722 O711 1.276 . S
C722 O714 1.235 . S
C723 C725 1.393 . S
C723 C727 1.395 . S
C723 C730 1.492 . S
C724 C725 1.392 . S
C724 C726 1.386 . S
C725 C723 1.393 . S
C725 C724 1.392 . S
C725 H742 0.930 . S
C726 C724 1.386 . S
C726 C728 1.395 . S
C726 H743 0.930 . S
C727 C723 1.395 . S
C727 C728 1.379 . S
C727 H744 0.930 . S
C728 C726 1.395 . S
C728 C727 1.379 . S
C728 H745 0.930 . S
C729 O712 1.264 . S
C729 O713 1.254 . S
C730 Eu666 2.848 . S
C730 O710 1.257 . S
C730 O715 1.249 . S
C730 C723 1.492 . S
C731 H696 0.931 . S
C731 C709 1.420 . S
C731 C732 1.351 . S
C732 H694 0.930 . S
C732 C700 1.423 . S
C732 C731 1.351 . S
C733 O717 1.276 . S
C733 O720 1.235 . S
C734 C735 1.393 . S
C734 C738 1.395 . S
C734 C741 1.492 . S
C735 C734 1.393 . S
C735 C736 1.392 . S
C735 H746 0.930 . S
C736 C735 1.392 . S
C736 C737 1.386 . S
C737 C736 1.386 . S
C737 C739 1.395 . S
C737 H747 0.930 . S
C738 C734 1.395 . S
C738 C739 1.379 . S
C738 H748 0.930 . S
C739 C737 1.395 . S
C739 C738 1.379 . S
C739 H749 0.930 . S
C740 O718 1.264 . S
C740 O719 1.254 . S
C741 Eu677 2.848 . S
C741 O716 1.257 . S
C741 O721 1.249 . S
C741 C734 1.492 . S
H742 C725 0.930 . S
H743 C726 0.930 . S
H744 C727 0.930 . S
H745 C728 0.930 . S
H746 C735 0.930 . S
H747 C737 0.930 . S
H748 C738 0.930 . S
H749 C739 0.930 . S
Eu750 N781 2.657 . S
Eu750 N788 2.609 . S
Eu750 O794 2.558 . S
Eu750 O795 2.612 . S
Eu750 O797 2.339 . S
Eu750 O798 2.563 . S
Eu750 O799 2.419 . S
Eu750 O801 2.380 . S
Eu750 O802 2.432 . S
Eu750 C814 2.848 . S
C751 C754 1.429 . S
C751 C755 1.411 . S
C751 N758 1.377 . S
C752 C754 1.420 . S
C752 C756 1.423 . S
C752 C764 1.392 . S
C753 C755 1.420 . S
C753 C756 1.351 . S
C753 H776 0.931 . S
C754 C751 1.429 . S
C754 C752 1.420 . S
C754 N762 1.362 . S
C755 C751 1.411 . S
C755 C753 1.420 . S
C755 C760 1.395 . S
C756 C752 1.423 . S
C756 C753 1.351 . S
C756 H768 0.930 . S
C757 C759 1.400 . S
C757 C760 1.386 . S
C757 H769 0.930 . S
N758 C751 1.377 . S
N758 C759 1.321 . S
N758 Eu761 2.609 . S
C759 C757 1.400 . S
C759 N758 1.321 . S
C759 H766 0.930 . S
C760 C755 1.395 . S
C760 C757 1.386 . S
C760 H779 0.930 . S
Eu761 N758 2.609 . S
Eu761 N762 2.657 . S
Eu761 O795 2.380 . S
Eu761 O796 2.432 . S
Eu761 O800 2.558 . S
Eu761 O801 2.612 . S
Eu761 O803 2.339 . S
Eu761 O804 2.563 . S
Eu761 O805 2.419 . S
Eu761 C825 2.848 . S
N762 C754 1.362 . S
N762 Eu761 2.657 . S
N762 C763 1.334 . S
C763 N762 1.334 . S
C763 C765 1.413 . S
C763 H770 0.929 . S
C764 C752 1.392 . S
C764 C765 1.367 . S
C764 H772 0.930 . S
C765 C763 1.413 . S
C765 C764 1.367 . S
C765 H767 0.930 . S
H766 C759 0.930 . S
H767 C765 0.930 . S
H768 C756 0.930 . S
H769 C757 0.930 . S
H770 C763 0.929 . S
H771 C785 0.930 . S
H772 C764 0.930 . S
H773 C791 0.930 . S
H774 C782 0.929 . S
H775 C789 0.930 . S
H776 C753 0.931 . S
H777 C783 0.930 . S
H778 C816 0.930 . S
H779 C760 0.930 . S
H780 C815 0.931 . S
N781 Eu750 2.657 . S
N781 C782 1.334 . S
N781 C786 1.362 . S
C782 H774 0.929 . S
C782 N781 1.334 . S
C782 C785 1.413 . S
C783 H777 0.930 . S
C783 C784 1.392 . S
C783 C785 1.367 . S
C784 C783 1.392 . S
C784 C786 1.420 . S
C784 C816 1.423 . S
C785 H771 0.930 . S
C785 C782 1.413 . S
C785 C783 1.367 . S
C786 N781 1.362 . S
C786 C784 1.420 . S
C786 C790 1.429 . S
H787 C792 0.930 . S
N788 Eu750 2.609 . S
N788 C790 1.377 . S
N788 C791 1.321 . S
C789 H775 0.930 . S
C789 C791 1.400 . S
C789 C792 1.386 . S
C790 C786 1.429 . S
C790 N788 1.377 . S
C790 C793 1.411 . S
C791 H773 0.930 . S
C791 N788 1.321 . S
C791 C789 1.400 . S
C792 H787 0.930 . S
C792 C789 1.386 . S
C792 C793 1.395 . S
C793 C790 1.411 . S
C793 C792 1.395 . S
C793 C815 1.420 . S
O794 Eu750 2.558 . S
O794 C814 1.257 . S
O795 Eu750 2.612 . S
O795 Eu761 2.380 . S
O795 C806 1.276 . S
O796 Eu761 2.432 . S
O796 C813 1.264 . S
O797 Eu750 2.339 . S
O797 C813 1.254 . S
O798 Eu750 2.563 . S
O798 C806 1.235 . S
O799 Eu750 2.419 . S
O799 C814 1.249 . S
O800 Eu761 2.558 . S
O800 C825 1.257 . S
O801 Eu750 2.380 . S
O801 Eu761 2.612 . S
O801 C817 1.276 . S
O802 Eu750 2.432 . S
O802 C824 1.264 . S
O803 Eu761 2.339 . S
O803 C824 1.254 . S
O804 Eu761 2.563 . S
O804 C817 1.235 . S
O805 Eu761 2.419 . S
O805 C825 1.249 . S
C806 O795 1.276 . S
C806 O798 1.235 . S
C807 C809 1.393 . S
C807 C811 1.395 . S
C807 C814 1.492 . S
C808 C809 1.392 . S
C808 C810 1.386 . S
C809 C807 1.393 . S
C809 C808 1.392 . S
C809 H826 0.930 . S
C810 C808 1.386 . S
C810 C812 1.395 . S
C810 H827 0.930 . S
C811 C807 1.395 . S
C811 C812 1.379 . S
C811 H828 0.930 . S
C812 C810 1.395 . S
C812 C811 1.379 . S
C812 H829 0.930 . S
C813 O796 1.264 . S
C813 O797 1.254 . S
C814 Eu750 2.848 . S
C814 O794 1.257 . S
C814 O799 1.249 . S
C814 C807 1.492 . S
C815 H780 0.931 . S
C815 C793 1.420 . S
C815 C816 1.351 . S
C816 H778 0.930 . S
C816 C784 1.423 . S
C816 C815 1.351 . S
C817 O801 1.276 . S
C817 O804 1.235 . S
C818 C819 1.393 . S
C818 C822 1.395 . S
C818 C825 1.492 . S
C819 C818 1.393 . S
C819 C820 1.392 . S
C819 H830 0.930 . S
C820 C819 1.392 . S
C820 C821 1.386 . S
C821 C820 1.386 . S
C821 C823 1.395 . S
C821 H831 0.930 . S
C822 C818 1.395 . S
C822 C823 1.379 . S
C822 H832 0.930 . S
C823 C821 1.395 . S
C823 C822 1.379 . S
C823 H833 0.930 . S
C824 O802 1.264 . S
C824 O803 1.254 . S
C825 Eu761 2.848 . S
C825 O800 1.257 . S
C825 O805 1.249 . S
C825 C818 1.492 . S
H826 C809 0.930 . S
H827 C810 0.930 . S
H828 C811 0.930 . S
H829 C812 0.930 . S
H830 C819 0.930 . S
H831 C821 0.930 . S
H832 C822 0.930 . S
H833 C823 0.930 . S
Eu834 N865 2.657 . S
Eu834 N872 2.609 . S
Eu834 O878 2.558 . S
Eu834 O879 2.612 . S
Eu834 O881 2.339 . S
Eu834 O882 2.563 . S
Eu834 O883 2.419 . S
Eu834 O885 2.380 . S
Eu834 O886 2.432 . S
Eu834 C898 2.848 . S
C835 C838 1.429 . S
C835 C839 1.411 . S
C835 N842 1.377 . S
C836 C838 1.420 . S
C836 C840 1.423 . S
C836 C848 1.392 . S
C837 C839 1.420 . S
C837 C840 1.351 . S
C837 H860 0.931 . S
C838 C835 1.429 . S
C838 C836 1.420 . S
C838 N846 1.362 . S
C839 C835 1.411 . S
C839 C837 1.420 . S
C839 C844 1.395 . S
C840 C836 1.423 . S
C840 C837 1.351 . S
C840 H852 0.930 . S
C841 C843 1.400 . S
C841 C844 1.386 . S
C841 H853 0.930 . S
N842 C835 1.377 . S
N842 C843 1.321 . S
N842 Eu845 2.609 . S
C843 C841 1.400 . S
C843 N842 1.321 . S
C843 H850 0.930 . S
C844 C839 1.395 . S
C844 C841 1.386 . S
C844 H863 0.930 . S
Eu845 N842 2.609 . S
Eu845 N846 2.657 . S
Eu845 O879 2.380 . S
Eu845 O880 2.432 . S
Eu845 O884 2.558 . S
Eu845 O885 2.612 . S
Eu845 O887 2.339 . S
Eu845 O888 2.563 . S
Eu845 O889 2.419 . S
Eu845 C909 2.848 . S
N846 C838 1.362 . S
N846 Eu845 2.657 . S
N846 C847 1.334 . S
C847 N846 1.334 . S
C847 C849 1.413 . S
C847 H854 0.929 . S
C848 C836 1.392 . S
C848 C849 1.367 . S
C848 H856 0.930 . S
C849 C847 1.413 . S
C849 C848 1.367 . S
C849 H851 0.930 . S
H850 C843 0.930 . S
H851 C849 0.930 . S
H852 C840 0.930 . S
H853 C841 0.930 . S
H854 C847 0.929 . S
H855 C869 0.930 . S
H856 C848 0.930 . S
H857 C875 0.930 . S
H858 C866 0.929 . S
H859 C873 0.930 . S
H860 C837 0.931 . S
H861 C867 0.930 . S
H862 C900 0.930 . S
H863 C844 0.930 . S
H864 C899 0.931 . S
N865 Eu834 2.657 . S
N865 C866 1.334 . S
N865 C870 1.362 . S
C866 H858 0.929 . S
C866 N865 1.334 . S
C866 C869 1.413 . S
C867 H861 0.930 . S
C867 C868 1.392 . S
C867 C869 1.367 . S
C868 C867 1.392 . S
C868 C870 1.420 . S
C868 C900 1.423 . S
C869 H855 0.930 . S
C869 C866 1.413 . S
C869 C867 1.367 . S
C870 N865 1.362 . S
C870 C868 1.420 . S
C870 C874 1.429 . S
H871 C876 0.930 . S
N872 Eu834 2.609 . S
N872 C874 1.377 . S
N872 C875 1.321 . S
C873 H859 0.930 . S
C873 C875 1.400 . S
C873 C876 1.386 . S
C874 C870 1.429 . S
C874 N872 1.377 . S
C874 C877 1.411 . S
C875 H857 0.930 . S
C875 N872 1.321 . S
C875 C873 1.400 . S
C876 H871 0.930 . S
C876 C873 1.386 . S
C876 C877 1.395 . S
C877 C874 1.411 . S
C877 C876 1.395 . S
C877 C899 1.420 . S
O878 Eu834 2.558 . S
O878 C898 1.257 . S
O879 Eu834 2.612 . S
O879 Eu845 2.380 . S
O879 C890 1.276 . S
O880 Eu845 2.432 . S
O880 C897 1.264 . S
O881 Eu834 2.339 . S
O881 C897 1.254 . S
O882 Eu834 2.563 . S
O882 C890 1.235 . S
O883 Eu834 2.419 . S
O883 C898 1.249 . S
O884 Eu845 2.558 . S
O884 C909 1.257 . S
O885 Eu834 2.380 . S
O885 Eu845 2.612 . S
O885 C901 1.276 . S
O886 Eu834 2.432 . S
O886 C908 1.264 . S
O887 Eu845 2.339 . S
O887 C908 1.254 . S
O888 Eu845 2.563 . S
O888 C901 1.235 . S
O889 Eu845 2.419 . S
O889 C909 1.249 . S
C890 O879 1.276 . S
C890 O882 1.235 . S
C891 C893 1.393 . S
C891 C895 1.395 . S
C891 C898 1.492 . S
C892 C893 1.392 . S
C892 C894 1.386 . S
C893 C891 1.393 . S
C893 C892 1.392 . S
C893 H910 0.930 . S
C894 C892 1.386 . S
C894 C896 1.395 . S
C894 H911 0.930 . S
C895 C891 1.395 . S
C895 C896 1.379 . S
C895 H912 0.930 . S
C896 C894 1.395 . S
C896 C895 1.379 . S
C896 H913 0.930 . S
C897 O880 1.264 . S
C897 O881 1.254 . S
C898 Eu834 2.848 . S
C898 O878 1.257 . S
C898 O883 1.249 . S
C898 C891 1.492 . S
C899 H864 0.931 . S
C899 C877 1.420 . S
C899 C900 1.351 . S
C900 H862 0.930 . S
C900 C868 1.423 . S
C900 C899 1.351 . S
C901 O885 1.276 . S
C901 O888 1.235 . S
C902 C903 1.393 . S
C902 C906 1.395 . S
C902 C909 1.492 . S
C903 C902 1.393 . S
C903 C904 1.392 . S
C903 H914 0.930 . S
C904 C903 1.392 . S
C904 C905 1.386 . S
C905 C904 1.386 . S
C905 C907 1.395 . S
C905 H915 0.930 . S
C906 C902 1.395 . S
C906 C907 1.379 . S
C906 H916 0.930 . S
C907 C905 1.395 . S
C907 C906 1.379 . S
C907 H917 0.930 . S
C908 O886 1.264 . S
C908 O887 1.254 . S
C909 Eu845 2.848 . S
C909 O884 1.257 . S
C909 O889 1.249 . S
C909 C902 1.492 . S
H910 C893 0.930 . S
H911 C894 0.930 . S
H912 C895 0.930 . S
H913 C896 0.930 . S
H914 C903 0.930 . S
H915 C905 0.930 . S
H916 C906 0.930 . S
H917 C907 0.930 . S
H918 C936 0.951 . S
H919 C938 0.951 . S
H920 C940 0.950 . S
H921 C941 0.950 . S
H922 C943 0.950 . S
H923 C946 0.950 . S
H924 C947 0.950 . S
H925 C949 0.950 . S
H926 C950 0.950 . S
H927 C951 0.951 . S
H928 C953 0.951 . S
H929 C955 0.950 . S
H930 C956 0.950 . S
H931 C958 0.950 . S
H932 C961 0.950 . S
H933 C962 0.950 . S
H934 C964 0.950 . S
H935 C965 0.950 . S
C936 H918 0.951 . S
C936 C937 1.366 . S
C936 C938 1.388 . S
C937 C936 1.366 . S
C937 C941 1.385 . S
C938 H919 0.951 . S
C938 C936 1.388 . S
C938 C939 1.366 . S
C939 C938 1.366 . S
C939 C940 1.414 . S
C939 C942 1.499 . S
C940 H920 0.950 . S
C940 C939 1.414 . S
C940 C941 1.374 . S
C941 H921 0.950 . S
C941 C937 1.385 . S
C941 C940 1.374 . S
C942 C939 1.499 . S
C942 C943 1.373 . S
C942 C944 1.389 . S
C943 H922 0.950 . S
C943 C942 1.373 . S
C943 C959 1.377 . S
C944 C942 1.389 . S
C944 C945 1.524 . S
C944 C958 1.377 . S
C945 C944 1.524 . S
C945 C946 1.397 . S
C945 C950 1.363 . S
C946 H923 0.950 . S
C946 C945 1.397 . S
C946 C947 1.334 . S
C947 H924 0.950 . S
C947 C946 1.334 . S
C947 C948 1.287 . S
C948 C947 1.287 . S
C948 C949 1.524 . S
C948 H967 0.913 . S
C949 H925 0.950 . S
C949 C948 1.524 . S
C949 C950 1.415 . S
C950 H926 0.950 . S
C950 C945 1.363 . S
C950 C949 1.415 . S
C951 H927 0.951 . S
C951 C952 1.366 . S
C951 C953 1.388 . S
C952 C951 1.366 . S
C952 C956 1.385 . S
C953 H928 0.951 . S
C953 C951 1.388 . S
C953 C954 1.366 . S
C954 C953 1.366 . S
C954 C955 1.414 . S
C954 C957 1.499 . S
C955 H929 0.950 . S
C955 C954 1.414 . S
C955 C956 1.374 . S
C956 H930 0.950 . S
C956 C952 1.385 . S
C956 C955 1.374 . S
C957 C954 1.499 . S
C957 C958 1.373 . S
C957 C959 1.389 . S
C958 H931 0.950 . S
C958 C944 1.377 . S
C958 C957 1.373 . S
C959 C943 1.377 . S
C959 C957 1.389 . S
C959 C960 1.524 . S
C960 C959 1.524 . S
C960 C961 1.397 . S
C960 C965 1.363 . S
C961 H932 0.950 . S
C961 C960 1.397 . S
C961 C962 1.334 1_554 S
C962 H933 0.950 . S
C962 C961 1.334 1_556 S
C962 C963 1.287 . S
C963 C962 1.287 . S
C963 C964 1.524 1_556 S
C963 H966 0.999 . S
C964 H934 0.950 . S
C964 C963 1.524 1_554 S
C964 C965 1.415 . S
C965 H935 0.950 . S
C965 C960 1.363 . S
C965 C964 1.415 . S
H966 C963 0.999 . S
H967 C948 0.913 . S
H968 C986 0.951 . S
H969 C988 0.951 . S
H970 C990 0.950 . S
H971 C991 0.950 . S
H972 C993 0.950 . S
H973 C996 0.950 . S
H974 C997 0.950 . S
H975 C999 0.950 . S
H976 C1000 0.950 . S
H977 C1001 0.951 . S
H978 C1003 0.951 . S
H979 C1005 0.950 . S
H980 C1006 0.950 . S
H981 C1008 0.950 . S
H982 C1011 0.950 . S
H983 C1012 0.950 1_556 S
H984 C1014 0.950 . S
H985 C1015 0.950 . S
C986 H968 0.951 . S
C986 C987 1.366 . S
C986 C988 1.388 . S
C987 C986 1.366 . S
C987 C991 1.385 . S
C988 H969 0.951 . S
C988 C986 1.388 . S
C988 C989 1.366 . S
C989 C988 1.366 . S
C989 C990 1.414 . S
C989 C992 1.499 . S
C990 H970 0.950 . S
C990 C989 1.414 . S
C990 C991 1.374 . S
C991 H971 0.950 . S
C991 C987 1.385 . S
C991 C990 1.374 . S
C992 C989 1.499 . S
C992 C993 1.373 . S
C992 C994 1.389 . S
C993 H972 0.950 . S
C993 C992 1.373 . S
C993 C1009 1.377 . S
C994 C992 1.389 . S
C994 C995 1.524 . S
C994 C1008 1.377 . S
C995 C994 1.524 . S
C995 C996 1.397 . S
C995 C1000 1.363 . S
C996 H973 0.950 . S
C996 C995 1.397 . S
C996 C997 1.334 . S
C997 H974 0.950 . S
C997 C996 1.334 . S
C997 C998 1.287 . S
C998 C997 1.287 . S
C998 C999 1.524 . S
C998 H1017 0.913 . S
C999 H975 0.950 . S
C999 C998 1.524 . S
C999 C1000 1.415 . S
C1000 H976 0.950 . S
C1000 C995 1.363 . S
C1000 C999 1.415 . S
C1001 H977 0.951 . S
C1001 C1002 1.366 . S
C1001 C1003 1.388 . S
C1002 C1001 1.366 . S
C1002 C1006 1.385 . S
C1003 H978 0.951 . S
C1003 C1001 1.388 . S
C1003 C1004 1.366 . S
C1004 C1003 1.366 . S
C1004 C1005 1.414 . S
C1004 C1007 1.499 . S
C1005 H979 0.950 . S
C1005 C1004 1.414 . S
C1005 C1006 1.374 . S
C1006 H980 0.950 . S
C1006 C1002 1.385 . S
C1006 C1005 1.374 . S
C1007 C1004 1.499 . S
C1007 C1008 1.373 . S
C1007 C1009 1.389 . S
C1008 H981 0.950 . S
C1008 C994 1.377 . S
C1008 C1007 1.373 . S
C1009 C993 1.377 . S
C1009 C1007 1.389 . S
C1009 C1010 1.524 . S
C1010 C1009 1.524 . S
C1010 C1011 1.397 . S
C1010 C1015 1.363 . S
C1011 H982 0.950 . S
C1011 C1010 1.397 . S
C1011 C1012 1.334 . S
C1012 H983 0.950 1_554 S
C1012 C1011 1.334 . S
C1012 C1013 1.287 . S
C1013 C1012 1.287 . S
C1013 C1014 1.524 . S
C1013 H1016 0.999 1_554 S
C1014 H984 0.950 . S
C1014 C1013 1.524 . S
C1014 C1015 1.415 . S
C1015 H985 0.950 . S
C1015 C1010 1.363 . S
C1015 C1014 1.415 . S
H1016 C1013 0.999 1_556 S
H1017 C998 0.913 . S
H1018 C1036 0.951 . S
H1019 C1038 0.951 . S
H1020 C1040 0.950 . S
H1021 C1041 0.950 . S
H1022 C1043 0.950 . S
H1023 C1046 0.950 . S
H1024 C1047 0.950 . S
H1025 C1049 0.950 . S
H1026 C1050 0.950 . S
H1027 C1051 0.951 . S
H1028 C1053 0.951 . S
H1029 C1055 0.950 . S
H1030 C1056 0.950 . S
H1031 C1058 0.950 . S
H1032 C1061 0.950 . S
H1033 C1062 0.950 . S
H1034 C1064 0.950 . S
H1035 C1065 0.950 . S
C1036 H1018 0.951 . S
C1036 C1037 1.366 . S
C1036 C1038 1.388 . S
C1037 C1036 1.366 . S
C1037 C1041 1.385 . S
C1038 H1019 0.951 . S
C1038 C1036 1.388 . S
C1038 C1039 1.366 . S
C1039 C1038 1.366 . S
C1039 C1040 1.414 . S
C1039 C1042 1.499 . S
C1040 H1020 0.950 . S
C1040 C1039 1.414 . S
C1040 C1041 1.374 . S
C1041 H1021 0.950 . S
C1041 C1037 1.385 . S
C1041 C1040 1.374 . S
C1042 C1039 1.499 . S
C1042 C1043 1.373 . S
C1042 C1044 1.389 . S
C1043 H1022 0.950 . S
C1043 C1042 1.373 . S
C1043 C1059 1.377 . S
C1044 C1042 1.389 . S
C1044 C1045 1.524 . S
C1044 C1058 1.377 . S
C1045 C1044 1.524 . S
C1045 C1046 1.397 . S
C1045 C1050 1.363 . S
C1046 H1023 0.950 . S
C1046 C1045 1.397 . S
C1046 C1047 1.334 . S
C1047 H1024 0.950 . S
C1047 C1046 1.334 . S
C1047 C1048 1.287 . S
C1048 C1047 1.287 . S
C1048 C1049 1.524 . S
C1048 H1067 0.913 . S
C1049 H1025 0.950 . S
C1049 C1048 1.524 . S
C1049 C1050 1.415 . S
C1050 H1026 0.950 . S
C1050 C1045 1.363 . S
C1050 C1049 1.415 . S
C1051 H1027 0.951 . S
C1051 C1052 1.366 . S
C1051 C1053 1.388 . S
C1052 C1051 1.366 . S
C1052 C1056 1.385 . S
C1053 H1028 0.951 . S
C1053 C1051 1.388 . S
C1053 C1054 1.366 . S
C1054 C1053 1.366 . S
C1054 C1055 1.414 . S
C1054 C1057 1.499 . S
C1055 H1029 0.950 . S
C1055 C1054 1.414 . S
C1055 C1056 1.374 . S
C1056 H1030 0.950 . S
C1056 C1052 1.385 . S
C1056 C1055 1.374 . S
C1057 C1054 1.499 . S
C1057 C1058 1.373 . S
C1057 C1059 1.389 . S
C1058 H1031 0.950 . S
C1058 C1044 1.377 . S
C1058 C1057 1.373 . S
C1059 C1043 1.377 . S
C1059 C1057 1.389 . S
C1059 C1060 1.524 . S
C1060 C1059 1.524 . S
C1060 C1061 1.397 . S
C1060 C1065 1.363 . S
C1061 H1032 0.950 . S
C1061 C1060 1.397 . S
C1061 C1062 1.334 1_554 S
C1062 H1033 0.950 . S
C1062 C1061 1.334 1_556 S
C1062 C1063 1.289 . S
C1063 C1062 1.289 . S
C1063 C1064 1.516 1_556 S
C1063 H1066 1.005 . S
C1064 H1034 0.950 . S
C1064 C1063 1.516 1_554 S
C1064 C1065 1.415 . S
C1065 H1035 0.950 . S
C1065 C1060 1.363 . S
C1065 C1064 1.415 . S
H1066 C1063 1.005 . S
H1067 C1048 0.913 . S
H1068 C1086 0.951 . S
H1069 C1088 0.951 . S
H1070 C1090 0.950 . S
H1071 C1091 0.950 . S
H1072 C1093 0.950 . S
H1073 C1096 0.950 . S
H1074 C1097 0.950 . S
H1075 C1099 0.950 . S
H1076 C1100 0.950 . S
H1077 C1101 0.951 . S
H1078 C1103 0.951 . S
H1079 C1105 0.950 . S
H1080 C1106 0.950 . S
H1081 C1108 0.950 . S
H1082 C1111 0.950 . S
H1083 C1112 0.950 . S
H1084 C1114 0.950 . S
H1085 C1115 0.950 . S
C1086 H1068 0.951 . S
C1086 C1087 1.366 . S
C1086 C1088 1.388 . S
C1087 C1086 1.366 . S
C1087 C1091 1.385 . S
C1088 H1069 0.951 . S
C1088 C1086 1.388 . S
C1088 C1089 1.366 . S
C1089 C1088 1.366 . S
C1089 C1090 1.414 . S
C1089 C1092 1.499 . S
C1090 H1070 0.950 . S
C1090 C1089 1.414 . S
C1090 C1091 1.374 . S
C1091 H1071 0.950 . S
C1091 C1087 1.385 . S
C1091 C1090 1.374 . S
C1092 C1089 1.499 . S
C1092 C1093 1.373 . S
C1092 C1094 1.389 . S
C1093 H1072 0.950 . S
C1093 C1092 1.373 . S
C1093 C1109 1.377 . S
C1094 C1092 1.389 . S
C1094 C1095 1.524 . S
C1094 C1108 1.377 . S
C1095 C1094 1.524 . S
C1095 C1096 1.397 . S
C1095 C1100 1.363 . S
C1096 H1073 0.950 . S
C1096 C1095 1.397 . S
C1096 C1097 1.334 . S
C1097 H1074 0.950 . S
C1097 C1096 1.334 . S
C1097 C1098 1.287 . S
C1098 C1097 1.287 . S
C1098 C1099 1.524 . S
C1098 H1117 0.913 . S
C1099 H1075 0.950 . S
C1099 C1098 1.524 . S
C1099 C1100 1.415 . S
C1100 H1076 0.950 . S
C1100 C1095 1.363 . S
C1100 C1099 1.415 . S
C1101 H1077 0.951 . S
C1101 C1102 1.366 . S
C1101 C1103 1.388 . S
C1102 C1101 1.366 . S
C1102 C1106 1.385 . S
C1103 H1078 0.951 . S
C1103 C1101 1.388 . S
C1103 C1104 1.366 . S
C1104 C1103 1.366 . S
C1104 C1105 1.414 . S
C1104 C1107 1.499 . S
C1105 H1079 0.950 . S
C1105 C1104 1.414 . S
C1105 C1106 1.374 . S
C1106 H1080 0.950 . S
C1106 C1102 1.385 . S
C1106 C1105 1.374 . S
C1107 C1104 1.499 . S
C1107 C1108 1.373 . S
C1107 C1109 1.389 . S
C1108 H1081 0.950 . S
C1108 C1094 1.377 . S
C1108 C1107 1.373 . S
C1109 C1093 1.377 . S
C1109 C1107 1.389 . S
C1109 C1110 1.524 . S
C1110 C1109 1.524 . S
C1110 C1111 1.397 . S
C1110 C1115 1.363 . S
C1111 H1082 0.950 . S
C1111 C1110 1.397 . S
C1111 C1112 1.334 . S
C1112 H1083 0.950 . S
C1112 C1111 1.334 . S
C1112 C1113 1.287 . S
C1113 C1112 1.287 . S
C1113 C1114 1.524 . S
C1113 H1116 0.999 . S
C1114 H1084 0.950 . S
C1114 C1113 1.524 . S
C1114 C1115 1.415 . S
C1115 H1085 0.950 . S
C1115 C1110 1.363 . S
C1115 C1114 1.415 . S
H1116 C1113 0.999 . S
H1117 C1098 0.913 . S
H1118 C1136 0.951 . S
H1119 C1138 0.951 . S
H1120 C1140 0.950 . S
H1121 C1141 0.950 . S
H1122 C1143 0.950 . S
H1123 C1146 0.950 . S
H1124 C1147 0.950 . S
H1125 C1149 0.950 . S
H1126 C1150 0.950 . S
H1127 C1151 0.951 1_554 S
H1128 C1153 0.951 . S
H1129 C1155 0.950 . S
H1130 C1156 0.950 . S
H1131 C1158 0.950 . S
H1132 C1161 0.950 . S
H1133 C1162 0.950 . S
H1134 C1164 0.950 . S
H1135 C1165 0.950 . S
C1136 H1118 0.951 . S
C1136 C1137 1.366 . S
C1136 C1138 1.388 . S
C1137 C1136 1.366 . S
C1137 C1141 1.385 . S
C1138 H1119 0.951 . S
C1138 C1136 1.388 . S
C1138 C1139 1.366 . S
C1139 C1138 1.366 . S
C1139 C1140 1.414 . S
C1139 C1142 1.499 . S
C1140 H1120 0.950 . S
C1140 C1139 1.414 . S
C1140 C1141 1.374 . S
C1141 H1121 0.950 . S
C1141 C1137 1.385 . S
C1141 C1140 1.374 . S
C1142 C1139 1.499 . S
C1142 C1143 1.373 . S
C1142 C1144 1.389 . S
C1143 H1122 0.950 . S
C1143 C1142 1.373 . S
C1143 C1159 1.377 . S
C1144 C1142 1.389 . S
C1144 C1145 1.524 . S
C1144 C1158 1.377 . S
C1145 C1144 1.524 . S
C1145 C1146 1.397 . S
C1145 C1150 1.363 . S
C1146 H1123 0.950 . S
C1146 C1145 1.397 . S
C1146 C1147 1.334 . S
C1147 H1124 0.950 . S
C1147 C1146 1.334 . S
C1147 C1148 1.287 . S
C1148 C1147 1.287 . S
C1148 C1149 1.524 . S
C1148 H1167 0.913 . S
C1149 H1125 0.950 . S
C1149 C1148 1.524 . S
C1149 C1150 1.415 . S
C1150 H1126 0.950 . S
C1150 C1145 1.363 . S
C1150 C1149 1.415 . S
C1151 H1127 0.951 1_556 S
C1151 C1152 1.366 . S
C1151 C1153 1.388 . S
C1152 C1151 1.366 . S
C1152 C1156 1.385 . S
C1153 H1128 0.951 . S
C1153 C1151 1.388 . S
C1153 C1154 1.366 . S
C1154 C1153 1.366 . S
C1154 C1155 1.414 . S
C1154 C1157 1.499 . S
C1155 H1129 0.950 . S
C1155 C1154 1.414 . S
C1155 C1156 1.374 . S
C1156 H1130 0.950 . S
C1156 C1152 1.385 . S
C1156 C1155 1.374 . S
C1157 C1154 1.499 . S
C1157 C1158 1.373 . S
C1157 C1159 1.389 . S
C1158 H1131 0.950 . S
C1158 C1144 1.377 . S
C1158 C1157 1.373 . S
C1159 C1143 1.377 . S
C1159 C1157 1.389 . S
C1159 C1160 1.524 . S
C1160 C1159 1.524 . S
C1160 C1161 1.397 . S
C1160 C1165 1.363 . S
C1161 H1132 0.950 . S
C1161 C1160 1.397 . S
C1161 C1162 1.334 . S
C1162 H1133 0.950 . S
C1162 C1161 1.334 . S
C1162 C1163 1.287 . S
C1163 C1162 1.287 . S
C1163 C1164 1.524 1_556 S
C1163 H1166 0.999 1_556 S
C1164 H1134 0.950 . S
C1164 C1163 1.524 1_554 S
C1164 C1165 1.415 1_554 S
C1165 H1135 0.950 . S
C1165 C1160 1.363 . S
C1165 C1164 1.415 1_556 S
H1166 C1163 0.999 1_554 S
H1167 C1148 0.913 . S
H1168 C1186 0.951 . S
H1169 C1188 0.951 . S
H1170 C1190 0.950 . S
H1171 C1191 0.950 . S
H1172 C1193 0.950 . S
H1173 C1196 0.950 . S
H1174 C1197 0.950 . S
H1175 C1199 0.950 . S
H1176 C1200 0.950 . S
H1177 C1201 0.951 . S
H1178 C1203 0.951 . S
H1179 C1205 0.950 . S
H1180 C1206 0.950 . S
H1181 C1208 0.950 . S
H1182 C1211 0.950 1_556 S
H1183 C1212 0.950 . S
H1184 C1214 0.950 . S
H1185 C1215 0.950 . S
C1186 H1168 0.951 . S
C1186 C1187 1.366 . S
C1186 C1188 1.388 . S
C1187 C1186 1.366 . S
C1187 C1191 1.385 . S
C1188 H1169 0.951 . S
C1188 C1186 1.388 . S
C1188 C1189 1.366 . S
C1189 C1188 1.366 . S
C1189 C1190 1.414 . S
C1189 C1192 1.499 . S
C1190 H1170 0.950 . S
C1190 C1189 1.414 . S
C1190 C1191 1.374 . S
C1191 H1171 0.950 . S
C1191 C1187 1.385 . S
C1191 C1190 1.374 . S
C1192 C1189 1.499 . S
C1192 C1193 1.373 . S
C1192 C1194 1.389 . S
C1193 H1172 0.950 . S
C1193 C1192 1.373 . S
C1193 C1209 1.377 . S
C1194 C1192 1.389 . S
C1194 C1195 1.524 . S
C1194 C1208 1.377 . S
C1195 C1194 1.524 . S
C1195 C1196 1.397 . S
C1195 C1200 1.363 . S
C1196 H1173 0.950 . S
C1196 C1195 1.397 . S
C1196 C1197 1.334 . S
C1197 H1174 0.950 . S
C1197 C1196 1.334 . S
C1197 C1198 1.287 . S
C1198 C1197 1.287 . S
C1198 C1199 1.524 . S
C1198 H1217 0.913 . S
C1199 H1175 0.950 . S
C1199 C1198 1.524 . S
C1199 C1200 1.415 . S
C1200 H1176 0.950 . S
C1200 C1195 1.363 . S
C1200 C1199 1.415 . S
C1201 H1177 0.951 . S
C1201 C1202 1.366 . S
C1201 C1203 1.388 . S
C1202 C1201 1.366 . S
C1202 C1206 1.385 . S
C1203 H1178 0.951 . S
C1203 C1201 1.388 . S
C1203 C1204 1.366 . S
C1204 C1203 1.366 . S
C1204 C1205 1.414 . S
C1204 C1207 1.499 . S
C1205 H1179 0.950 . S
C1205 C1204 1.414 . S
C1205 C1206 1.374 . S
C1206 H1180 0.950 . S
C1206 C1202 1.385 . S
C1206 C1205 1.374 . S
C1207 C1204 1.499 . S
C1207 C1208 1.373 . S
C1207 C1209 1.389 . S
C1208 H1181 0.950 . S
C1208 C1194 1.377 . S
C1208 C1207 1.373 . S
C1209 C1193 1.377 . S
C1209 C1207 1.389 . S
C1209 C1210 1.524 . S
C1210 C1209 1.524 . S
C1210 C1211 1.397 1_556 S
C1210 C1215 1.363 . S
C1211 H1182 0.950 1_554 S
C1211 C1210 1.397 1_554 S
C1211 C1212 1.334 . S
C1212 H1183 0.950 . S
C1212 C1211 1.334 . S
C1212 C1213 1.287 . S
C1213 C1212 1.287 . S
C1213 C1214 1.524 . S
C1213 H1216 0.999 . S
C1214 H1184 0.950 . S
C1214 C1213 1.524 . S
C1214 C1215 1.415 1_554 S
C1215 H1185 0.950 . S
C1215 C1210 1.363 . S
C1215 C1214 1.415 1_556 S
H1216 C1213 0.999 . S
H1217 C1198 0.913 . S
H1218 C1236 0.951 . S
H1219 C1238 0.951 . S
H1220 C1240 0.950 . S
H1221 C1241 0.950 . S
H1222 C1243 0.950 . S
H1223 C1246 0.950 . S
H1224 C1247 0.950 . S
H1225 C1249 0.950 . S
H1226 C1250 0.950 . S
H1227 C1251 0.951 1_554 S
H1228 C1253 0.951 . S
H1229 C1255 0.950 . S
H1230 C1256 0.950 . S
H1231 C1258 0.950 . S
H1232 C1261 0.950 . S
H1233 C1262 0.950 . S
H1234 C1264 0.950 . S
H1235 C1265 0.950 . S
C1236 H1218 0.951 . S
C1236 C1237 1.366 . S
C1236 C1238 1.388 . S
C1237 C1236 1.366 . S
C1237 C1241 1.385 . S
C1238 H1219 0.951 . S
C1238 C1236 1.388 . S
C1238 C1239 1.366 . S
C1239 C1238 1.366 . S
C1239 C1240 1.414 . S
C1239 C1242 1.499 . S
C1240 H1220 0.950 . S
C1240 C1239 1.414 . S
C1240 C1241 1.374 . S
C1241 H1221 0.950 . S
C1241 C1237 1.385 . S
C1241 C1240 1.374 . S
C1242 C1239 1.499 . S
C1242 C1243 1.373 . S
C1242 C1244 1.389 . S
C1243 H1222 0.950 . S
C1243 C1242 1.373 . S
C1243 C1259 1.377 . S
C1244 C1242 1.389 . S
C1244 C1245 1.524 . S
C1244 C1258 1.377 . S
C1245 C1244 1.524 . S
C1245 C1246 1.397 . S
C1245 C1250 1.363 . S
C1246 H1223 0.950 . S
C1246 C1245 1.397 . S
C1246 C1247 1.334 . S
C1247 H1224 0.950 . S
C1247 C1246 1.334 . S
C1247 C1248 1.287 . S
C1248 C1247 1.287 . S
C1248 C1249 1.524 . S
C1248 H1267 0.913 . S
C1249 H1225 0.950 . S
C1249 C1248 1.524 . S
C1249 C1250 1.415 . S
C1250 H1226 0.950 . S
C1250 C1245 1.363 . S
C1250 C1249 1.415 . S
C1251 H1227 0.951 1_556 S
C1251 C1252 1.366 . S
C1251 C1253 1.388 . S
C1252 C1251 1.366 . S
C1252 C1256 1.385 . S
C1253 H1228 0.951 . S
C1253 C1251 1.388 . S
C1253 C1254 1.366 . S
C1254 C1253 1.366 . S
C1254 C1255 1.414 . S
C1254 C1257 1.499 . S
C1255 H1229 0.950 . S
C1255 C1254 1.414 . S
C1255 C1256 1.374 . S
C1256 H1230 0.950 . S
C1256 C1252 1.385 . S
C1256 C1255 1.374 . S
C1257 C1254 1.499 . S
C1257 C1258 1.373 . S
C1257 C1259 1.389 . S
C1258 H1231 0.950 . S
C1258 C1244 1.377 . S
C1258 C1257 1.373 . S
C1259 C1243 1.377 . S
C1259 C1257 1.389 . S
C1259 C1260 1.524 . S
C1260 C1259 1.524 . S
C1260 C1261 1.397 . S
C1260 C1265 1.363 . S
C1261 H1232 0.950 . S
C1261 C1260 1.397 . S
C1261 C1262 1.334 . S
C1262 H1233 0.950 . S
C1262 C1261 1.334 . S
C1262 C1263 1.287 . S
C1263 C1262 1.287 . S
C1263 C1264 1.524 . S
C1263 H1266 0.999 . S
C1264 H1234 0.950 . S
C1264 C1263 1.524 . S
C1264 C1265 1.415 . S
C1265 H1235 0.950 . S
C1265 C1260 1.363 . S
C1265 C1264 1.415 . S
H1266 C1263 0.999 . S
H1267 C1248 0.913 . S
H1268 C1286 0.951 . S
H1269 C1288 0.951 . S
H1270 C1290 0.950 . S
H1271 C1291 0.950 . S
H1272 C1293 0.950 . S
H1273 C1296 0.950 . S
H1274 C1297 0.950 . S
H1275 C1299 0.950 . S
H1276 C1300 0.950 . S
H1277 C1301 0.951 . S
H1278 C1303 0.951 . S
H1279 C1305 0.950 . S
H1280 C1306 0.950 . S
H1281 C1308 0.950 . S
H1282 C1311 0.950 . S
H1283 C1312 0.950 . S
H1284 C1314 0.950 . S
H1285 C1315 0.950 . S
C1286 H1268 0.951 . S
C1286 C1287 1.366 . S
C1286 C1288 1.388 . S
C1287 C1286 1.366 . S
C1287 C1291 1.385 . S
C1288 H1269 0.951 . S
C1288 C1286 1.388 . S
C1288 C1289 1.366 . S
C1289 C1288 1.366 . S
C1289 C1290 1.414 . S
C1289 C1292 1.499 . S
C1290 H1270 0.950 . S
C1290 C1289 1.414 . S
C1290 C1291 1.374 . S
C1291 H1271 0.950 . S
C1291 C1287 1.385 . S
C1291 C1290 1.374 . S
C1292 C1289 1.499 . S
C1292 C1293 1.373 . S
C1292 C1294 1.389 . S
C1293 H1272 0.950 . S
C1293 C1292 1.373 . S
C1293 C1309 1.377 . S
C1294 C1292 1.389 . S
C1294 C1295 1.524 . S
C1294 C1308 1.377 . S
C1295 C1294 1.524 . S
C1295 C1296 1.397 . S
C1295 C1300 1.363 . S
C1296 H1273 0.950 . S
C1296 C1295 1.397 . S
C1296 C1297 1.334 . S
C1297 H1274 0.950 . S
C1297 C1296 1.334 . S
C1297 C1298 1.287 . S
C1298 C1297 1.287 . S
C1298 C1299 1.524 . S
C1298 H1317 0.913 . S
C1299 H1275 0.950 . S
C1299 C1298 1.524 . S
C1299 C1300 1.415 . S
C1300 H1276 0.950 . S
C1300 C1295 1.363 . S
C1300 C1299 1.415 . S
C1301 H1277 0.951 . S
C1301 C1302 1.366 . S
C1301 C1303 1.388 . S
C1302 C1301 1.366 . S
C1302 C1306 1.385 . S
C1303 H1278 0.951 . S
C1303 C1301 1.388 . S
C1303 C1304 1.366 . S
C1304 C1303 1.366 . S
C1304 C1305 1.414 . S
C1304 C1307 1.499 . S
C1305 H1279 0.950 . S
C1305 C1304 1.414 . S
C1305 C1306 1.374 . S
C1306 H1280 0.950 . S
C1306 C1302 1.385 . S
C1306 C1305 1.374 . S
C1307 C1304 1.499 . S
C1307 C1308 1.373 . S
C1307 C1309 1.389 . S
C1308 H1281 0.950 . S
C1308 C1294 1.377 . S
C1308 C1307 1.373 . S
C1309 C1293 1.377 . S
C1309 C1307 1.389 . S
C1309 C1310 1.524 . S
C1310 C1309 1.524 . S
C1310 C1311 1.397 . S
C1310 C1315 1.363 . S
C1311 H1282 0.950 . S
C1311 C1310 1.397 . S
C1311 C1312 1.334 . S
C1312 H1283 0.950 . S
C1312 C1311 1.334 . S
C1312 C1313 1.287 . S
C1313 C1312 1.287 . S
C1313 C1314 1.524 . S
C1313 H1316 0.999 . S
C1314 H1284 0.950 . S
C1314 C1313 1.524 . S
C1314 C1315 1.415 . S
C1315 H1285 0.950 . S
C1315 C1310 1.363 . S
C1315 C1314 1.415 . S
H1316 C1313 0.999 . S
H1317 C1298 0.913 . S
H1318 C1336 0.951 . S
H1319 C1338 0.951 . S
H1320 C1340 0.950 . S
H1321 C1341 0.950 . S
H1322 C1343 0.950 . S
H1323 C1346 0.950 . S
H1324 C1347 0.950 . S
H1325 C1349 0.950 . S
H1326 C1350 0.950 . S
H1327 C1351 0.951 1_554 S
H1328 C1353 0.951 . S
H1329 C1355 0.950 . S
H1330 C1356 0.950 . S
H1331 C1358 0.950 . S
H1332 C1361 0.950 . S
H1333 C1362 0.950 . S
H1334 C1364 0.949 . S
H1335 C1365 0.950 . S
C1336 H1318 0.951 . S
C1336 C1337 1.366 . S
C1336 C1338 1.388 . S
C1337 C1336 1.366 . S
C1337 C1341 1.385 . S
C1338 H1319 0.951 . S
C1338 C1336 1.388 . S
C1338 C1339 1.366 . S
C1339 C1338 1.366 . S
C1339 C1340 1.414 . S
C1339 C1342 1.499 . S
C1340 H1320 0.950 . S
C1340 C1339 1.414 . S
C1340 C1341 1.374 . S
C1341 H1321 0.950 . S
C1341 C1337 1.385 . S
C1341 C1340 1.374 . S
C1342 C1339 1.499 . S
C1342 C1343 1.373 . S
C1342 C1344 1.389 . S
C1343 H1322 0.950 . S
C1343 C1342 1.373 . S
C1343 C1359 1.377 . S
C1344 C1342 1.389 . S
C1344 C1345 1.524 . S
C1344 C1358 1.377 . S
C1345 C1344 1.524 . S
C1345 C1346 1.397 . S
C1345 C1350 1.363 . S
C1346 H1323 0.950 . S
C1346 C1345 1.397 . S
C1346 C1347 1.334 . S
C1347 H1324 0.950 . S
C1347 C1346 1.334 . S
C1347 C1348 1.287 . S
C1348 C1347 1.287 . S
C1348 C1349 1.524 . S
C1348 H1367 0.913 . S
C1349 H1325 0.950 . S
C1349 C1348 1.524 . S
C1349 C1350 1.415 . S
C1350 H1326 0.950 . S
C1350 C1345 1.363 . S
C1350 C1349 1.415 . S
C1351 H1327 0.951 1_556 S
C1351 C1352 1.366 . S
C1351 C1353 1.388 . S
C1352 C1351 1.366 . S
C1352 C1356 1.385 . S
C1353 H1328 0.951 . S
C1353 C1351 1.388 . S
C1353 C1354 1.366 . S
C1354 C1353 1.366 . S
C1354 C1355 1.414 . S
C1354 C1357 1.499 . S
C1355 H1329 0.950 . S
C1355 C1354 1.414 . S
C1355 C1356 1.374 . S
C1356 H1330 0.950 . S
C1356 C1352 1.385 . S
C1356 C1355 1.374 . S
C1357 C1354 1.499 . S
C1357 C1358 1.373 . S
C1357 C1359 1.389 . S
C1358 H1331 0.950 . S
C1358 C1344 1.377 . S
C1358 C1357 1.373 . S
C1359 C1343 1.377 . S
C1359 C1357 1.389 . S
C1359 C1360 1.524 . S
C1360 C1359 1.524 . S
C1360 C1361 1.397 . S
C1360 C1365 1.363 . S
C1361 H1332 0.950 . S
C1361 C1360 1.397 . S
C1361 C1362 1.334 . S
C1362 H1333 0.950 . S
C1362 C1361 1.334 . S
C1362 C1363 1.287 . S
C1363 C1362 1.287 . S
C1363 C1364 1.524 . S
C1363 H1366 0.999 . S
C1364 H1334 0.949 . S
C1364 C1363 1.524 . S
C1364 C1365 1.415 . S
C1365 H1335 0.950 . S
C1365 C1360 1.363 . S
C1365 C1364 1.415 . S
H1366 C1363 0.999 . S
H1367 C1348 0.913 . S
H1368 C1386 0.951 . S
H1369 C1388 0.951 . S
H1370 C1390 0.950 . S
H1371 C1391 0.950 . S
H1372 C1393 0.950 . S
H1373 C1396 0.950 . S
H1374 C1397 0.950 . S
H1375 C1399 0.950 1_556 S
H1376 C1400 0.950 . S
H1377 C1401 0.951 . S
H1378 C1403 0.951 . S
H1379 C1405 0.950 . S
H1380 C1406 1.015 . S
H1381 C1408 0.950 . S
H1382 C1411 0.950 . S
H1383 C1412 0.950 . S
H1384 C1414 0.950 . S
H1385 C1415 0.950 . S
C1386 H1368 0.951 . S
C1386 C1387 1.366 . S
C1386 C1388 1.388 . S
C1387 C1386 1.366 . S
C1387 C1391 1.385 . S
C1388 H1369 0.951 . S
C1388 C1386 1.388 . S
C1388 C1389 1.366 . S
C1389 C1388 1.366 . S
C1389 C1390 1.414 . S
C1389 C1392 1.499 . S
C1390 H1370 0.950 . S
C1390 C1389 1.414 . S
C1390 C1391 1.374 . S
C1391 H1371 0.950 . S
C1391 C1387 1.385 . S
C1391 C1390 1.374 . S
C1392 C1389 1.499 . S
C1392 C1393 1.373 . S
C1392 C1394 1.389 . S
C1393 H1372 0.950 . S
C1393 C1392 1.373 . S
C1393 C1409 1.377 . S
C1394 C1392 1.389 . S
C1394 C1395 1.524 . S
C1394 C1408 1.377 . S
C1395 C1394 1.524 . S
C1395 C1396 1.397 . S
C1395 C1400 1.363 . S
C1396 H1373 0.950 . S
C1396 C1395 1.397 . S
C1396 C1397 1.334 . S
C1397 H1374 0.950 . S
C1397 C1396 1.334 . S
C1397 C1398 1.287 . S
C1398 C1397 1.287 . S
C1398 C1399 1.524 . S
C1398 H1417 0.913 . S
C1399 H1375 0.950 1_554 S
C1399 C1398 1.524 . S
C1399 C1400 1.415 . S
C1400 H1376 0.950 . S
C1400 C1395 1.363 . S
C1400 C1399 1.415 . S
C1401 H1377 0.951 . S
C1401 C1402 1.366 . S
C1401 C1403 1.388 . S
C1402 C1401 1.366 . S
C1402 C1406 1.385 . S
C1403 H1378 0.951 . S
C1403 C1401 1.388 . S
C1403 C1404 1.366 . S
C1404 C1403 1.366 . S
C1404 C1405 1.414 . S
C1404 C1407 1.499 . S
C1405 H1379 0.950 . S
C1405 C1404 1.414 . S
C1405 C1406 1.374 . S
C1406 H1380 1.015 . S
C1406 C1402 1.385 . S
C1406 C1405 1.374 . S
C1407 C1404 1.499 . S
C1407 C1408 1.373 . S
C1407 C1409 1.389 . S
C1408 H1381 0.950 . S
C1408 C1394 1.377 . S
C1408 C1407 1.373 . S
C1409 C1393 1.377 . S
C1409 C1407 1.389 . S
C1409 C1410 1.524 . S
C1410 C1409 1.524 . S
C1410 C1411 1.397 . S
C1410 C1415 1.363 . S
C1411 H1382 0.950 . S
C1411 C1410 1.397 . S
C1411 C1412 1.334 . S
C1412 H1383 0.950 . S
C1412 C1411 1.334 . S
C1412 C1413 1.287 . S
C1413 C1412 1.287 . S
C1413 C1414 1.524 . S
C1413 H1416 0.999 . S
C1414 H1384 0.950 . S
C1414 C1413 1.524 . S
C1414 C1415 1.415 . S
C1415 H1385 0.950 . S
C1415 C1410 1.363 . S
C1415 C1414 1.415 . S
H1416 C1413 0.999 . S
H1417 C1398 0.913 . S
H1418 C1436 0.951 . S
H1419 C1438 0.951 . S
H1420 C1440 0.950 . S
H1421 C1441 0.950 . S
H1422 C1443 0.950 . S
H1423 C1446 0.950 . S
H1424 C1447 0.950 . S
H1425 C1449 0.950 . S
H1426 C1450 0.950 . S
H1427 C1451 0.951 . S
H1428 C1453 0.951 . S
H1429 C1455 0.950 . S
H1430 C1456 0.928 1_556 S
H1431 C1458 0.950 . S
H1432 C1461 0.950 . S
H1433 C1462 0.950 . S
H1434 C1464 0.950 . S
H1435 C1465 0.950 . S
C1436 H1418 0.951 . S
C1436 C1437 1.366 . S
C1436 C1438 1.388 . S
C1437 C1436 1.366 . S
C1437 C1441 1.385 . S
C1438 H1419 0.951 . S
C1438 C1436 1.388 . S
C1438 C1439 1.366 . S
C1439 C1438 1.366 . S
C1439 C1440 1.414 . S
C1439 C1442 1.499 . S
C1440 H1420 0.950 . S
C1440 C1439 1.414 . S
C1440 C1441 1.374 . S
C1441 H1421 0.950 . S
C1441 C1437 1.385 . S
C1441 C1440 1.374 . S
C1442 C1439 1.499 . S
C1442 C1443 1.373 . S
C1442 C1444 1.389 . S
C1443 H1422 0.950 . S
C1443 C1442 1.373 . S
C1443 C1459 1.377 . S
C1444 C1442 1.389 . S
C1444 C1445 1.524 . S
C1444 C1458 1.377 . S
C1445 C1444 1.524 . S
C1445 C1446 1.397 . S
C1445 C1450 1.363 . S
C1446 H1423 0.950 . S
C1446 C1445 1.397 . S
C1446 C1447 1.334 . S
C1447 H1424 0.950 . S
C1447 C1446 1.334 . S
C1447 C1448 1.287 . S
C1448 C1447 1.287 . S
C1448 C1449 1.524 . S
C1448 H1467 0.913 . S
C1449 H1425 0.950 . S
C1449 C1448 1.524 . S
C1449 C1450 1.415 . S
C1450 H1426 0.950 . S
C1450 C1445 1.363 . S
C1450 C1449 1.415 . S
C1451 H1427 0.951 . S
C1451 C1452 1.366 . S
C1451 C1453 1.388 . S
C1452 C1451 1.366 . S
C1452 C1456 1.385 . S
C1453 H1428 0.951 . S
C1453 C1451 1.388 . S
C1453 C1454 1.366 . S
C1454 C1453 1.366 . S
C1454 C1455 1.414 . S
C1454 C1457 1.499 . S
C1455 H1429 0.950 . S
C1455 C1454 1.414 . S
C1455 C1456 1.374 . S
C1456 H1430 0.928 1_554 S
C1456 C1452 1.385 . S
C1456 C1455 1.374 . S
C1457 C1454 1.499 . S
C1457 C1458 1.373 . S
C1457 C1459 1.389 . S
C1458 H1431 0.950 . S
C1458 C1444 1.377 . S
C1458 C1457 1.373 . S
C1459 C1443 1.377 . S
C1459 C1457 1.389 . S
C1459 C1460 1.524 . S
C1460 C1459 1.524 . S
C1460 C1461 1.397 . S
C1460 C1465 1.363 . S
C1461 H1432 0.950 . S
C1461 C1460 1.397 . S
C1461 C1462 1.334 . S
C1462 H1433 0.950 . S
C1462 C1461 1.334 . S
C1462 C1463 1.287 . S
C1463 C1462 1.287 . S
C1463 C1464 1.524 . S
C1463 H1466 0.999 . S
C1464 H1434 0.950 . S
C1464 C1463 1.524 . S
C1464 C1465 1.415 . S
C1465 H1435 0.950 . S
C1465 C1460 1.363 . S
C1465 C1464 1.415 . S
H1466 C1463 0.999 . S
H1467 C1448 0.913 . S
H1468 C1486 0.951 . S
H1469 C1488 0.951 . S
H1470 C1490 0.950 . S
H1471 C1491 0.950 . S
H1472 C1493 0.950 . S
H1473 C1496 0.950 . S
H1474 C1497 0.950 . S
H1475 C1499 0.950 . S
H1476 C1500 0.950 . S
H1477 C1501 0.951 . S
H1478 C1503 0.951 . S
H1479 C1505 0.950 . S
H1480 C1506 0.950 . S
H1481 C1508 0.950 . S
H1482 C1511 0.950 . S
H1483 C1512 0.950 . S
H1484 C1514 0.950 . S
H1485 C1515 0.950 . S
C1486 H1468 0.951 . S
C1486 C1487 1.366 . S
C1486 C1488 1.388 . S
C1487 C1486 1.366 . S
C1487 C1491 1.385 . S
C1488 H1469 0.951 . S
C1488 C1486 1.388 . S
C1488 C1489 1.366 . S
C1489 C1488 1.366 . S
C1489 C1490 1.414 . S
C1489 C1492 1.499 . S
C1490 H1470 0.950 . S
C1490 C1489 1.414 . S
C1490 C1491 1.374 . S
C1491 H1471 0.950 . S
C1491 C1487 1.385 . S
C1491 C1490 1.374 . S
C1492 C1489 1.499 . S
C1492 C1493 1.373 . S
C1492 C1494 1.389 . S
C1493 H1472 0.950 . S
C1493 C1492 1.373 . S
C1493 C1509 1.377 . S
C1494 C1492 1.389 . S
C1494 C1495 1.524 . S
C1494 C1508 1.377 . S
C1495 C1494 1.524 . S
C1495 C1496 1.397 . S
C1495 C1500 1.363 . S
C1496 H1473 0.950 . S
C1496 C1495 1.397 . S
C1496 C1497 1.334 . S
C1497 H1474 0.950 . S
C1497 C1496 1.334 . S
C1497 C1498 1.287 . S
C1498 C1497 1.287 . S
C1498 C1499 1.524 . S
C1498 H1517 0.913 . S
C1499 H1475 0.950 . S
C1499 C1498 1.524 . S
C1499 C1500 1.415 . S
C1500 H1476 0.950 . S
C1500 C1495 1.363 . S
C1500 C1499 1.415 . S
C1501 H1477 0.951 . S
C1501 C1502 1.366 . S
C1501 C1503 1.388 . S
C1502 C1501 1.366 . S
C1502 C1506 1.385 . S
C1503 H1478 0.951 . S
C1503 C1501 1.388 . S
C1503 C1504 1.366 . S
C1504 C1503 1.366 . S
C1504 C1505 1.414 . S
C1504 C1507 1.499 . S
C1505 H1479 0.950 . S
C1505 C1504 1.414 . S
C1505 C1506 1.374 . S
C1506 H1480 0.950 . S
C1506 C1502 1.385 . S
C1506 C1505 1.374 . S
C1507 C1504 1.499 . S
C1507 C1508 1.373 . S
C1507 C1509 1.389 . S
C1508 H1481 0.950 . S
C1508 C1494 1.377 . S
C1508 C1507 1.373 . S
C1509 C1493 1.377 . S
C1509 C1507 1.389 . S
C1509 C1510 1.524 . S
C1510 C1509 1.524 . S
C1510 C1511 1.397 . S
C1510 C1515 1.363 . S
C1511 H1482 0.950 . S
C1511 C1510 1.397 . S
C1511 C1512 1.334 . S
C1512 H1483 0.950 . S
C1512 C1511 1.334 . S
C1512 C1513 1.287 . S
C1513 C1512 1.287 . S
C1513 C1514 1.524 . S
C1513 H1516 0.999 . S
C1514 H1484 0.950 . S
C1514 C1513 1.524 . S
C1514 C1515 1.415 . S
C1515 H1485 0.950 . S
C1515 C1510 1.363 . S
C1515 C1514 1.415 . S
H1516 C1513 0.999 . S
H1517 C1498 0.913 . S
H1518 C1536 0.951 . S
H1519 C1538 0.951 . S
H1520 C1540 0.950 . S
H1521 C1541 0.950 . S
H1522 C1543 0.950 1_655 S
H1523 C1546 0.950 . S
H1524 C1547 0.950 . S
H1525 C1549 0.950 1_455 S
H1526 C1550 0.950 . S
H1527 C1551 0.951 . S
H1528 C1553 0.951 . S
H1529 C1555 0.950 . S
H1530 C1556 0.950 . S
H1531 C1558 0.950 . S
H1532 C1561 0.950 . S
H1533 C1562 0.950 . S
H1534 C1564 0.950 . S
H1535 C1565 0.950 . S
C1536 H1518 0.951 . S
C1536 C1537 1.366 . S
C1536 C1538 1.388 . S
C1537 C1536 1.366 . S
C1537 C1541 1.385 . S
C1538 H1519 0.951 . S
C1538 C1536 1.388 . S
C1538 C1539 1.366 . S
C1539 C1538 1.366 . S
C1539 C1540 1.414 . S
C1539 C1542 1.499 . S
C1540 H1520 0.950 . S
C1540 C1539 1.414 . S
C1540 C1541 1.374 . S
C1541 H1521 0.950 . S
C1541 C1537 1.385 . S
C1541 C1540 1.374 . S
C1542 C1539 1.499 . S
C1542 C1543 1.373 1_655 S
C1542 C1544 1.389 1_655 S
C1543 H1522 0.950 1_455 S
C1543 C1542 1.373 1_455 S
C1543 C1559 1.377 . S
C1544 C1542 1.389 1_455 S
C1544 C1545 1.524 1_455 S
C1544 C1558 1.377 . S
C1545 C1544 1.524 1_655 S
C1545 C1546 1.397 . S
C1545 C1550 1.363 1_655 S
C1546 H1523 0.950 . S
C1546 C1545 1.397 . S
C1546 C1547 1.334 . S
C1547 H1524 0.950 . S
C1547 C1546 1.334 . S
C1547 C1548 1.287 . S
C1548 C1547 1.287 . S
C1548 C1549 1.524 . S
C1548 H1567 0.913 . S
C1549 H1525 0.950 1_655 S
C1549 C1548 1.524 . S
C1549 C1550 1.415 1_655 S
C1550 H1526 0.950 . S
C1550 C1545 1.363 1_455 S
C1550 C1549 1.415 1_455 S
C1551 H1527 0.951 . S
C1551 C1552 1.366 . S
C1551 C1553 1.388 . S
C1552 C1551 1.366 . S
C1552 C1556 1.385 . S
C1553 H1528 0.951 . S
C1553 C1551 1.388 . S
C1553 C1554 1.366 . S
C1554 C1553 1.366 . S
C1554 C1555 1.414 . S
C1554 C1557 1.499 . S
C1555 H1529 0.950 . S
C1555 C1554 1.414 . S
C1555 C1556 1.374 . S
C1556 H1530 0.950 . S
C1556 C1552 1.385 . S
C1556 C1555 1.374 . S
C1557 C1554 1.499 . S
C1557 C1558 1.373 . S
C1557 C1559 1.389 . S
C1558 H1531 0.950 . S
C1558 C1544 1.377 . S
C1558 C1557 1.373 . S
C1559 C1543 1.377 . S
C1559 C1557 1.389 . S
C1559 C1560 1.524 . S
C1560 C1559 1.524 . S
C1560 C1561 1.397 . S
C1560 C1565 1.363 . S
C1561 H1532 0.950 . S
C1561 C1560 1.397 . S
C1561 C1562 1.334 . S
C1562 H1533 0.950 . S
C1562 C1561 1.334 . S
C1562 C1563 1.287 . S
C1563 C1562 1.287 . S
C1563 C1564 1.524 . S
C1563 H1566 0.999 . S
C1564 H1534 0.950 . S
C1564 C1563 1.524 . S
C1564 C1565 1.415 . S
C1565 H1535 0.950 . S
C1565 C1560 1.363 . S
C1565 C1564 1.415 . S
H1566 C1563 0.999 . S
H1567 C1548 0.913 . S
H1568 C1586 0.951 . S
H1569 C1588 0.951 . S
H1570 C1590 0.950 . S
H1571 C1591 0.950 . S
H1572 C1593 0.950 . S
H1573 C1596 0.950 . S
H1574 C1597 0.950 . S
H1575 C1599 0.950 . S
H1576 C1600 0.950 . S
H1577 C1601 0.951 . S
H1578 C1603 0.951 . S
H1579 C1605 0.950 . S
H1580 C1606 0.950 . S
H1581 C1608 0.950 . S
H1582 C1611 0.950 . S
H1583 C1612 0.950 . S
H1584 C1614 0.950 . S
H1585 C1615 0.950 . S
C1586 H1568 0.951 . S
C1586 C1587 1.366 . S
C1586 C1588 1.388 . S
C1587 C1586 1.366 . S
C1587 C1591 1.385 . S
C1588 H1569 0.951 . S
C1588 C1586 1.388 . S
C1588 C1589 1.366 . S
C1589 C1588 1.366 . S
C1589 C1590 1.414 . S
C1589 C1592 1.499 . S
C1590 H1570 0.950 . S
C1590 C1589 1.414 . S
C1590 C1591 1.374 . S
C1591 H1571 0.950 . S
C1591 C1587 1.385 . S
C1591 C1590 1.374 . S
C1592 C1589 1.499 . S
C1592 C1593 1.373 . S
C1592 C1594 1.389 . S
C1593 H1572 0.950 . S
C1593 C1592 1.373 . S
C1593 C1609 1.377 . S
C1594 C1592 1.389 . S
C1594 C1595 1.524 . S
C1594 C1608 1.377 . S
C1595 C1594 1.524 . S
C1595 C1596 1.397 . S
C1595 C1600 1.363 . S
C1596 H1573 0.950 . S
C1596 C1595 1.397 . S
C1596 C1597 1.334 . S
C1597 H1574 0.950 . S
C1597 C1596 1.334 . S
C1597 C1598 1.287 . S
C1598 C1597 1.287 . S
C1598 C1599 1.524 . S
C1598 H1617 0.913 . S
C1599 H1575 0.950 . S
C1599 C1598 1.524 . S
C1599 C1600 1.415 . S
C1600 H1576 0.950 . S
C1600 C1595 1.363 . S
C1600 C1599 1.415 . S
C1601 H1577 0.951 . S
C1601 C1602 1.366 . S
C1601 C1603 1.388 . S
C1602 C1601 1.366 . S
C1602 C1606 1.385 . S
C1603 H1578 0.951 . S
C1603 C1601 1.388 . S
C1603 C1604 1.366 . S
C1604 C1603 1.366 . S
C1604 C1605 1.414 . S
C1604 C1607 1.499 . S
C1605 H1579 0.950 . S
C1605 C1604 1.414 . S
C1605 C1606 1.374 . S
C1606 H1580 0.950 . S
C1606 C1602 1.385 . S
C1606 C1605 1.374 . S
C1607 C1604 1.499 . S
C1607 C1608 1.373 . S
C1607 C1609 1.389 . S
C1608 H1581 0.950 . S
C1608 C1594 1.377 . S
C1608 C1607 1.373 . S
C1609 C1593 1.377 . S
C1609 C1607 1.389 . S
C1609 C1610 1.524 . S
C1610 C1609 1.524 . S
C1610 C1611 1.397 . S
C1610 C1615 1.363 . S
C1611 H1582 0.950 . S
C1611 C1610 1.397 . S
C1611 C1612 1.334 . S
C1612 H1583 0.950 . S
C1612 C1611 1.334 . S
C1612 C1613 1.287 . S
C1613 C1612 1.287 . S
C1613 C1614 1.524 . S
C1613 H1616 0.999 . S
C1614 H1584 0.950 . S
C1614 C1613 1.524 . S
C1614 C1615 1.415 . S
C1615 H1585 0.950 . S
C1615 C1610 1.363 . S
C1615 C1614 1.415 . S
H1616 C1613 0.999 . S
H1617 C1598 0.913 . S
H1618 C1636 0.951 . S
H1619 C1638 0.951 . S
H1620 C1640 0.950 . S
H1621 C1641 0.950 . S
H1622 C1643 0.950 . S
H1623 C1646 0.950 . S
H1624 C1647 0.950 . S
H1625 C1649 0.950 . S
H1626 C1650 0.950 . S
H1627 C1651 0.951 . S
H1628 C1653 0.951 . S
H1629 C1655 0.950 . S
H1630 C1656 0.950 . S
H1631 C1658 0.950 . S
H1632 C1661 0.950 . S
H1633 C1662 0.950 . S
H1634 C1664 0.950 . S
H1635 C1665 0.950 . S
C1636 H1618 0.951 . S
C1636 C1637 1.366 . S
C1636 C1638 1.388 . S
C1637 C1636 1.366 . S
C1637 C1641 1.385 . S
C1638 H1619 0.951 . S
C1638 C1636 1.388 . S
C1638 C1639 1.366 . S
C1639 C1638 1.366 . S
C1639 C1640 1.414 . S
C1639 C1642 1.499 . S
C1640 H1620 0.950 . S
C1640 C1639 1.414 . S
C1640 C1641 1.374 . S
C1641 H1621 0.950 . S
C1641 C1637 1.385 . S
C1641 C1640 1.374 . S
C1642 C1639 1.499 . S
C1642 C1643 1.373 1_545 S
C1642 C1644 1.389 . S
C1643 H1622 0.950 . S
C1643 C1642 1.373 1_565 S
C1643 C1659 1.377 . S
C1644 C1642 1.389 . S
C1644 C1645 1.524 . S
C1644 C1658 1.377 1_545 S
C1645 C1644 1.524 . S
C1645 C1646 1.397 . S
C1645 C1650 1.363 . S
C1646 H1623 0.950 . S
C1646 C1645 1.397 . S
C1646 C1647 1.334 . S
C1647 H1624 0.950 . S
C1647 C1646 1.334 . S
C1647 C1648 1.287 . S
C1648 C1647 1.287 . S
C1648 C1649 1.524 . S
C1648 H1667 0.913 . S
C1649 H1625 0.950 . S
C1649 C1648 1.524 . S
C1649 C1650 1.415 . S
C1650 H1626 0.950 . S
C1650 C1645 1.363 . S
C1650 C1649 1.415 . S
C1651 H1627 0.951 . S
C1651 C1652 1.366 . S
C1651 C1653 1.388 . S
C1652 C1651 1.366 . S
C1652 C1656 1.385 . S
C1653 H1628 0.951 . S
C1653 C1651 1.388 . S
C1653 C1654 1.366 . S
C1654 C1653 1.366 . S
C1654 C1655 1.414 . S
C1654 C1657 1.499 . S
C1655 H1629 0.950 . S
C1655 C1654 1.414 . S
C1655 C1656 1.374 . S
C1656 H1630 0.950 . S
C1656 C1652 1.385 . S
C1656 C1655 1.374 . S
C1657 C1654 1.499 . S
C1657 C1658 1.373 . S
C1657 C1659 1.389 . S
C1658 H1631 0.950 . S
C1658 C1644 1.377 1_565 S
C1658 C1657 1.373 . S
C1659 C1643 1.377 . S
C1659 C1657 1.389 . S
C1659 C1660 1.524 . S
C1660 C1659 1.524 . S
C1660 C1661 1.397 . S
C1660 C1665 1.363 . S
C1661 H1632 0.950 . S
C1661 C1660 1.397 . S
C1661 C1662 1.334 . S
C1662 H1633 0.950 . S
C1662 C1661 1.334 . S
C1662 C1663 1.287 . S
C1663 C1662 1.287 . S
C1663 C1664 1.524 . S
C1663 H1666 0.999 . S
C1664 H1634 0.950 . S
C1664 C1663 1.524 . S
C1664 C1665 1.415 . S
C1665 H1635 0.950 . S
C1665 C1660 1.363 . S
C1665 C1664 1.415 . S
H1666 C1663 0.999 . S
H1667 C1648 0.913 . S
H1668 C1686 0.951 . S
H1669 C1688 0.951 . S
H1670 C1690 0.950 . S
H1671 C1691 0.950 . S
H1672 C1693 0.950 . S
H1673 C1696 0.950 . S
H1674 C1697 0.950 . S
H1675 C1699 0.950 . S
H1676 C1700 0.950 . S
H1677 C1701 0.951 . S
H1678 C1703 0.951 . S
H1679 C1705 0.950 . S
H1680 C1706 0.950 . S
H1681 C1708 0.950 . S
H1682 C1711 0.950 . S
H1683 C1712 0.950 . S
H1684 C1714 0.950 . S
H1685 C1715 0.950 . S
C1686 H1668 0.951 . S
C1686 C1687 1.366 . S
C1686 C1688 1.388 . S
C1687 C1686 1.366 . S
C1687 C1691 1.385 . S
C1688 H1669 0.951 . S
C1688 C1686 1.388 . S
C1688 C1689 1.366 . S
C1689 C1688 1.366 . S
C1689 C1690 1.414 . S
C1689 C1692 1.499 . S
C1690 H1670 0.950 . S
C1690 C1689 1.414 . S
C1690 C1691 1.374 . S
C1691 H1671 0.950 . S
C1691 C1687 1.385 . S
C1691 C1690 1.374 . S
C1692 C1689 1.499 . S
C1692 C1693 1.373 . S
C1692 C1694 1.389 . S
C1693 H1672 0.950 . S
C1693 C1692 1.373 . S
C1693 C1709 1.377 . S
C1694 C1692 1.389 . S
C1694 C1695 1.524 . S
C1694 C1708 1.377 . S
C1695 C1694 1.524 . S
C1695 C1696 1.397 . S
C1695 C1700 1.363 . S
C1696 H1673 0.950 . S
C1696 C1695 1.397 . S
C1696 C1697 1.334 . S
C1697 H1674 0.950 . S
C1697 C1696 1.334 . S
C1697 C1698 1.287 . S
C1698 C1697 1.287 . S
C1698 C1699 1.524 . S
C1698 H1717 0.913 . S
C1699 H1675 0.950 . S
C1699 C1698 1.524 . S
C1699 C1700 1.415 . S
C1700 H1676 0.950 . S
C1700 C1695 1.363 . S
C1700 C1699 1.415 . S
C1701 H1677 0.951 . S
C1701 C1702 1.366 . S
C1701 C1703 1.388 . S
C1702 C1701 1.366 . S
C1702 C1706 1.385 . S
C1703 H1678 0.951 . S
C1703 C1701 1.388 . S
C1703 C1704 1.366 . S
C1704 C1703 1.366 . S
C1704 C1705 1.414 . S
C1704 C1707 1.499 . S
C1705 H1679 0.950 . S
C1705 C1704 1.414 . S
C1705 C1706 1.374 . S
C1706 H1680 0.950 . S
C1706 C1702 1.385 . S
C1706 C1705 1.374 . S
C1707 C1704 1.499 . S
C1707 C1708 1.373 . S
C1707 C1709 1.389 . S
C1708 H1681 0.950 . S
C1708 C1694 1.377 . S
C1708 C1707 1.373 . S
C1709 C1693 1.377 . S
C1709 C1707 1.389 . S
C1709 C1710 1.524 . S
C1710 C1709 1.524 . S
C1710 C1711 1.397 . S
C1710 C1715 1.363 . S
C1711 H1682 0.950 . S
C1711 C1710 1.397 . S
C1711 C1712 1.334 . S
C1712 H1683 0.950 . S
C1712 C1711 1.334 . S
C1712 C1713 1.287 . S
C1713 C1712 1.287 . S
C1713 C1714 1.524 . S
C1713 H1716 0.999 . S
C1714 H1684 0.950 . S
C1714 C1713 1.524 . S
C1714 C1715 1.415 . S
C1715 H1685 0.950 . S
C1715 C1710 1.363 . S
C1715 C1714 1.415 . S
H1716 C1713 0.999 . S
H1717 C1698 0.913 . S
H1718 C1736 0.951 . S
H1719 C1738 0.951 . S
H1720 C1740 0.950 . S
H1721 C1741 0.950 . S
H1722 C1743 0.950 . S
H1723 C1746 0.950 . S
H1724 C1747 0.950 . S
H1725 C1749 0.950 . S
H1726 C1750 0.950 . S
H1727 C1751 0.951 . S
H1728 C1753 0.951 . S
H1729 C1755 0.950 . S
H1730 C1756 0.950 . S
H1731 C1758 0.950 . S
H1732 C1761 0.950 . S
H1733 C1762 0.950 . S
H1734 C1764 0.950 . S
H1735 C1765 0.950 . S
C1736 H1718 0.951 . S
C1736 C1737 1.366 . S
C1736 C1738 1.388 . S
C1737 C1736 1.366 . S
C1737 C1741 1.385 . S
C1738 H1719 0.951 . S
C1738 C1736 1.388 . S
C1738 C1739 1.366 . S
C1739 C1738 1.366 . S
C1739 C1740 1.414 . S
C1739 C1742 1.499 . S
C1740 H1720 0.950 . S
C1740 C1739 1.414 . S
C1740 C1741 1.374 . S
C1741 H1721 0.950 . S
C1741 C1737 1.385 . S
C1741 C1740 1.374 . S
C1742 C1739 1.499 . S
C1742 C1743 1.373 . S
C1742 C1744 1.389 . S
C1743 H1722 0.950 . S
C1743 C1742 1.373 . S
C1743 C1759 1.377 . S
C1744 C1742 1.389 . S
C1744 C1745 1.524 . S
C1744 C1758 1.377 . S
C1745 C1744 1.524 . S
C1745 C1746 1.397 . S
C1745 C1750 1.363 . S
C1746 H1723 0.950 . S
C1746 C1745 1.397 . S
C1746 C1747 1.334 . S
C1747 H1724 0.950 . S
C1747 C1746 1.334 . S
C1747 C1748 1.287 . S
C1748 C1747 1.287 . S
C1748 C1749 1.524 . S
C1748 H1767 0.913 . S
C1749 H1725 0.950 . S
C1749 C1748 1.524 . S
C1749 C1750 1.415 . S
C1750 H1726 0.950 . S
C1750 C1745 1.363 . S
C1750 C1749 1.415 . S
C1751 H1727 0.951 . S
C1751 C1752 1.366 . S
C1751 C1753 1.388 . S
C1752 C1751 1.366 . S
C1752 C1756 1.385 . S
C1753 H1728 0.951 . S
C1753 C1751 1.388 . S
C1753 C1754 1.366 . S
C1754 C1753 1.366 . S
C1754 C1755 1.414 . S
C1754 C1757 1.499 . S
C1755 H1729 0.950 . S
C1755 C1754 1.414 . S
C1755 C1756 1.374 . S
C1756 H1730 0.950 . S
C1756 C1752 1.385 . S
C1756 C1755 1.374 . S
C1757 C1754 1.499 . S
C1757 C1758 1.373 . S
C1757 C1759 1.389 . S
C1758 H1731 0.950 . S
C1758 C1744 1.377 . S
C1758 C1757 1.373 . S
C1759 C1743 1.377 . S
C1759 C1757 1.389 . S
C1759 C1760 1.524 . S
C1760 C1759 1.524 . S
C1760 C1761 1.397 . S
C1760 C1765 1.363 . S
C1761 H1732 0.950 . S
C1761 C1760 1.397 . S
C1761 C1762 1.334 . S
C1762 H1733 0.950 . S
C1762 C1761 1.334 . S
C1762 C1763 1.287 . S
C1763 C1762 1.287 . S
C1763 C1764 1.524 . S
C1763 H1766 0.999 . S
C1764 H1734 0.950 . S
C1764 C1763 1.524 . S
C1764 C1765 1.415 . S
C1765 H1735 0.950 . S
C1765 C1760 1.363 . S
C1765 C1764 1.415 . S
H1766 C1763 0.999 . S
H1767 C1748 0.913 . S
H1768 C1786 0.951 . S
H1769 C1788 0.951 . S
H1770 C1790 0.950 . S
H1771 C1791 0.950 . S
H1772 C1793 0.950 . S
H1773 C1796 0.950 . S
H1774 C1797 0.950 . S
H1775 C1799 0.950 . S
H1776 C1800 0.950 . S
H1777 C1801 0.951 . S
H1778 C1803 0.951 . S
H1779 C1805 0.950 . S
H1780 C1806 0.950 . S
H1781 C1808 0.950 . S
H1782 C1811 0.950 . S
H1783 C1812 0.950 . S
H1784 C1814 0.950 . S
H1785 C1815 0.950 . S
C1786 H1768 0.951 . S
C1786 C1787 1.366 . S
C1786 C1788 1.388 . S
C1787 C1786 1.366 . S
C1787 C1791 1.385 . S
C1788 H1769 0.951 . S
C1788 C1786 1.388 . S
C1788 C1789 1.366 . S
C1789 C1788 1.366 . S
C1789 C1790 1.414 . S
C1789 C1792 1.499 . S
C1790 H1770 0.950 . S
C1790 C1789 1.414 . S
C1790 C1791 1.374 . S
C1791 H1771 0.950 . S
C1791 C1787 1.385 . S
C1791 C1790 1.374 . S
C1792 C1789 1.499 . S
C1792 C1793 1.373 . S
C1792 C1794 1.389 . S
C1793 H1772 0.950 . S
C1793 C1792 1.373 . S
C1793 C1809 1.377 . S
C1794 C1792 1.389 . S
C1794 C1795 1.524 . S
C1794 C1808 1.377 . S
C1795 C1794 1.524 . S
C1795 C1796 1.397 . S
C1795 C1800 1.363 . S
C1796 H1773 0.950 . S
C1796 C1795 1.397 . S
C1796 C1797 1.334 . S
C1797 H1774 0.950 . S
C1797 C1796 1.334 . S
C1797 C1798 1.287 . S
C1798 C1797 1.287 . S
C1798 C1799 1.524 . S
C1798 H1817 0.913 . S
C1799 H1775 0.950 . S
C1799 C1798 1.524 . S
C1799 C1800 1.415 . S
C1800 H1776 0.950 . S
C1800 C1795 1.363 . S
C1800 C1799 1.415 . S
C1801 H1777 0.951 . S
C1801 C1802 1.366 . S
C1801 C1803 1.388 . S
C1802 C1801 1.366 . S
C1802 C1806 1.385 . S
C1803 H1778 0.951 . S
C1803 C1801 1.388 . S
C1803 C1804 1.366 . S
C1804 C1803 1.366 . S
C1804 C1805 1.414 . S
C1804 C1807 1.499 . S
C1805 H1779 0.950 . S
C1805 C1804 1.414 . S
C1805 C1806 1.374 . S
C1806 H1780 0.950 . S
C1806 C1802 1.385 . S
C1806 C1805 1.374 . S
C1807 C1804 1.499 . S
C1807 C1808 1.373 . S
C1807 C1809 1.389 . S
C1808 H1781 0.950 . S
C1808 C1794 1.377 . S
C1808 C1807 1.373 . S
C1809 C1793 1.377 . S
C1809 C1807 1.389 . S
C1809 C1810 1.524 . S
C1810 C1809 1.524 . S
C1810 C1811 1.397 . S
C1810 C1815 1.363 . S
C1811 H1782 0.950 . S
C1811 C1810 1.397 . S
C1811 C1812 1.334 . S
C1812 H1783 0.950 . S
C1812 C1811 1.334 . S
C1812 C1813 1.287 . S
C1813 C1812 1.287 . S
C1813 C1814 1.524 . S
C1813 H1816 0.999 . S
C1814 H1784 0.950 . S
C1814 C1813 1.524 . S
C1814 C1815 1.415 . S
C1815 H1785 0.950 . S
C1815 C1810 1.363 . S
C1815 C1814 1.415 . S
H1816 C1813 0.999 . S
H1817 C1798 0.913 . S
H1818 C1836 0.951 . S
H1819 C1838 0.951 . S
H1820 C1840 0.950 . S
H1821 C1841 0.950 . S
H1822 C1843 0.950 . S
H1823 C1846 0.950 . S
H1824 C1847 0.950 . S
H1825 C1849 0.950 . S
H1826 C1850 0.950 . S
H1827 C1851 0.951 . S
H1828 C1853 0.951 . S
H1829 C1855 0.950 . S
H1830 C1856 0.950 . S
H1831 C1858 0.950 . S
H1832 C1861 0.950 . S
H1833 C1862 0.950 . S
H1834 C1864 0.950 . S
H1835 C1865 0.950 . S
C1836 H1818 0.951 . S
C1836 C1837 1.366 . S
C1836 C1838 1.388 . S
C1837 C1836 1.366 . S
C1837 C1841 1.385 . S
C1838 H1819 0.951 . S
C1838 C1836 1.388 . S
C1838 C1839 1.366 . S
C1839 C1838 1.366 . S
C1839 C1840 1.414 . S
C1839 C1842 1.499 . S
C1840 H1820 0.950 . S
C1840 C1839 1.414 . S
C1840 C1841 1.374 . S
C1841 H1821 0.950 . S
C1841 C1837 1.385 . S
C1841 C1840 1.374 . S
C1842 C1839 1.499 . S
C1842 C1843 1.373 . S
C1842 C1844 1.389 . S
C1843 H1822 0.950 . S
C1843 C1842 1.373 . S
C1843 C1859 1.377 . S
C1844 C1842 1.389 . S
C1844 C1845 1.524 . S
C1844 C1858 1.377 . S
C1845 C1844 1.524 . S
C1845 C1846 1.397 . S
C1845 C1850 1.363 . S
C1846 H1823 0.950 . S
C1846 C1845 1.397 . S
C1846 C1847 1.334 . S
C1847 H1824 0.950 . S
C1847 C1846 1.334 . S
C1847 C1848 1.287 . S
C1848 C1847 1.287 . S
C1848 C1849 1.524 . S
C1848 H1867 0.913 . S
C1849 H1825 0.950 . S
C1849 C1848 1.524 . S
C1849 C1850 1.415 . S
C1850 H1826 0.950 . S
C1850 C1845 1.363 . S
C1850 C1849 1.415 . S
C1851 H1827 0.951 . S
C1851 C1852 1.366 . S
C1851 C1853 1.388 . S
C1852 C1851 1.366 . S
C1852 C1856 1.385 . S
C1853 H1828 0.951 . S
C1853 C1851 1.388 . S
C1853 C1854 1.366 . S
C1854 C1853 1.366 . S
C1854 C1855 1.414 . S
C1854 C1857 1.499 . S
C1855 H1829 0.950 . S
C1855 C1854 1.414 . S
C1855 C1856 1.374 . S
C1856 H1830 0.950 . S
C1856 C1852 1.385 . S
C1856 C1855 1.374 . S
C1857 C1854 1.499 . S
C1857 C1858 1.373 . S
C1857 C1859 1.389 . S
C1858 H1831 0.950 . S
C1858 C1844 1.377 . S
C1858 C1857 1.373 . S
C1859 C1843 1.377 . S
C1859 C1857 1.389 . S
C1859 C1860 1.524 . S
C1860 C1859 1.524 . S
C1860 C1861 1.397 . S
C1860 C1865 1.363 . S
C1861 H1832 0.950 . S
C1861 C1860 1.397 . S
C1861 C1862 1.334 . S
C1862 H1833 0.950 . S
C1862 C1861 1.334 . S
C1862 C1863 1.287 . S
C1863 C1862 1.287 . S
C1863 C1864 1.524 . S
C1863 H1866 0.999 . S
C1864 H1834 0.950 . S
C1864 C1863 1.524 . S
C1864 C1865 1.415 . S
C1865 H1835 0.950 . S
C1865 C1860 1.363 . S
C1865 C1864 1.415 . S
H1866 C1863 0.999 . S
H1867 C1848 0.913 . S
H1868 C1886 0.951 . S
H1869 C1888 0.951 . S
H1870 C1890 0.950 . S
H1871 C1891 0.950 . S
H1872 C1893 0.950 . S
H1873 C1896 0.950 . S
H1874 C1897 0.950 . S
H1875 C1899 0.950 . S
H1876 C1900 0.950 . S
H1877 C1901 0.951 . S
H1878 C1903 0.951 . S
H1879 C1905 0.950 . S
H1880 C1906 0.950 . S
H1881 C1908 0.950 . S
H1882 C1911 0.950 . S
H1883 C1912 0.950 . S
H1884 C1914 0.950 . S
H1885 C1915 0.950 . S
C1886 H1868 0.951 . S
C1886 C1887 1.366 . S
C1886 C1888 1.388 . S
C1887 C1886 1.366 . S
C1887 C1891 1.385 . S
C1888 H1869 0.951 . S
C1888 C1886 1.388 . S
C1888 C1889 1.366 . S
C1889 C1888 1.366 . S
C1889 C1890 1.414 . S
C1889 C1892 1.499 . S
C1890 H1870 0.950 . S
C1890 C1889 1.414 . S
C1890 C1891 1.374 . S
C1891 H1871 0.950 . S
C1891 C1887 1.385 . S
C1891 C1890 1.374 . S
C1892 C1889 1.499 . S
C1892 C1893 1.373 . S
C1892 C1894 1.389 . S
C1893 H1872 0.950 . S
C1893 C1892 1.373 . S
C1893 C1909 1.377 . S
C1894 C1892 1.389 . S
C1894 C1895 1.524 . S
C1894 C1908 1.377 . S
C1895 C1894 1.524 . S
C1895 C1896 1.397 . S
C1895 C1900 1.363 . S
C1896 H1873 0.950 . S
C1896 C1895 1.397 . S
C1896 C1897 1.334 . S
C1897 H1874 0.950 . S
C1897 C1896 1.334 . S
C1897 C1898 1.287 . S
C1898 C1897 1.287 . S
C1898 C1899 1.524 . S
C1898 H1917 0.913 . S
C1899 H1875 0.950 . S
C1899 C1898 1.524 . S
C1899 C1900 1.415 . S
C1900 H1876 0.950 . S
C1900 C1895 1.363 . S
C1900 C1899 1.415 . S
C1901 H1877 0.951 . S
C1901 C1902 1.366 . S
C1901 C1903 1.388 . S
C1902 C1901 1.366 . S
C1902 C1906 1.385 . S
C1903 H1878 0.951 . S
C1903 C1901 1.388 . S
C1903 C1904 1.366 . S
C1904 C1903 1.366 . S
C1904 C1905 1.414 . S
C1904 C1907 1.499 . S
C1905 H1879 0.950 . S
C1905 C1904 1.414 . S
C1905 C1906 1.374 . S
C1906 H1880 0.950 . S
C1906 C1902 1.385 . S
C1906 C1905 1.374 . S
C1907 C1904 1.499 . S
C1907 C1908 1.373 . S
C1907 C1909 1.389 . S
C1908 H1881 0.950 . S
C1908 C1894 1.377 . S
C1908 C1907 1.373 . S
C1909 C1893 1.377 . S
C1909 C1907 1.389 . S
C1909 C1910 1.524 . S
C1910 C1909 1.524 . S
C1910 C1911 1.397 . S
C1910 C1915 1.363 . S
C1911 H1882 0.950 . S
C1911 C1910 1.397 . S
C1911 C1912 1.334 . S
C1912 H1883 0.950 . S
C1912 C1911 1.334 . S
C1912 C1913 1.287 . S
C1913 C1912 1.287 . S
C1913 C1914 1.524 . S
C1913 H1916 0.999 . S
C1914 H1884 0.950 . S
C1914 C1913 1.524 . S
C1914 C1915 1.415 . S
C1915 H1885 0.950 . S
C1915 C1910 1.363 . S
C1915 C1914 1.415 . S
H1916 C1913 0.999 . S
H1917 C1898 0.913 . S
H1918 C1936 0.951 . S
H1919 C1938 0.951 . S
H1920 C1940 0.950 . S
H1921 C1941 0.950 . S
H1922 C1943 0.950 . S
H1923 C1946 0.950 . S
H1924 C1947 0.950 . S
H1925 C1949 0.950 . S
H1926 C1950 0.950 . S
H1927 C1951 0.951 . S
H1928 C1953 0.951 . S
H1929 C1955 0.950 . S
H1930 C1956 0.950 . S
H1931 C1958 0.950 . S
H1932 C1961 0.950 . S
H1933 C1962 0.950 . S
H1934 C1964 0.950 . S
H1935 C1965 0.950 . S
C1936 H1918 0.951 . S
C1936 C1937 1.366 . S
C1936 C1938 1.388 . S
C1937 C1936 1.366 . S
C1937 C1941 1.385 . S
C1938 H1919 0.951 . S
C1938 C1936 1.388 . S
C1938 C1939 1.366 . S
C1939 C1938 1.366 . S
C1939 C1940 1.414 . S
C1939 C1942 1.499 . S
C1940 H1920 0.950 . S
C1940 C1939 1.414 . S
C1940 C1941 1.374 . S
C1941 H1921 0.950 . S
C1941 C1937 1.385 . S
C1941 C1940 1.374 . S
C1942 C1939 1.499 . S
C1942 C1943 1.373 . S
C1942 C1944 1.389 . S
C1943 H1922 0.950 . S
C1943 C1942 1.373 . S
C1943 C1959 1.377 . S
C1944 C1942 1.389 . S
C1944 C1945 1.524 . S
C1944 C1958 1.377 . S
C1945 C1944 1.524 . S
C1945 C1946 1.397 . S
C1945 C1950 1.363 . S
C1946 H1923 0.950 . S
C1946 C1945 1.397 . S
C1946 C1947 1.334 . S
C1947 H1924 0.950 . S
C1947 C1946 1.334 . S
C1947 C1948 1.287 . S
C1948 C1947 1.287 . S
C1948 C1949 1.524 . S
C1948 H1967 0.913 . S
C1949 H1925 0.950 . S
C1949 C1948 1.524 . S
C1949 C1950 1.415 . S
C1950 H1926 0.950 . S
C1950 C1945 1.363 . S
C1950 C1949 1.415 . S
C1951 H1927 0.951 . S
C1951 C1952 1.366 . S
C1951 C1953 1.388 . S
C1952 C1951 1.366 . S
C1952 C1956 1.385 . S
C1953 H1928 0.951 . S
C1953 C1951 1.388 . S
C1953 C1954 1.366 . S
C1954 C1953 1.366 . S
C1954 C1955 1.414 . S
C1954 C1957 1.499 . S
C1955 H1929 0.950 . S
C1955 C1954 1.414 . S
C1955 C1956 1.374 . S
C1956 H1930 0.950 . S
C1956 C1952 1.385 . S
C1956 C1955 1.374 . S
C1957 C1954 1.499 . S
C1957 C1958 1.373 . S
C1957 C1959 1.389 . S
C1958 H1931 0.950 . S
C1958 C1944 1.377 . S
C1958 C1957 1.373 . S
C1959 C1943 1.377 . S
C1959 C1957 1.389 . S
C1959 C1960 1.524 . S
C1960 C1959 1.524 . S
C1960 C1961 1.397 . S
C1960 C1965 1.363 . S
C1961 H1932 0.950 . S
C1961 C1960 1.397 . S
C1961 C1962 1.334 . S
C1962 H1933 0.950 . S
C1962 C1961 1.334 . S
C1962 C1963 1.287 . S
C1963 C1962 1.287 . S
C1963 C1964 1.524 . S
C1963 H1966 0.999 . S
C1964 H1934 0.950 . S
C1964 C1963 1.524 . S
C1964 C1965 1.415 . S
C1965 H1935 0.950 . S
C1965 C1960 1.363 . S
C1965 C1964 1.415 . S
H1966 C1963 0.999 . S
H1967 C1948 0.913 . S
H1968 C1986 0.951 . S
H1969 C1988 0.951 . S
H1970 C1990 0.950 . S
H1971 C1991 0.950 . S
H1972 C1993 0.950 . S
H1973 C1996 0.950 . S
H1974 C1997 0.950 . S
H1975 C1999 0.950 . S
H1976 C2000 0.950 . S
H1977 C2001 0.951 . S
H1978 C2003 0.951 . S
H1979 C2005 0.950 . S
H1980 C2006 0.950 . S
H1981 C2008 0.950 . S
H1982 C2011 0.950 . S
H1983 C2012 0.950 . S
H1984 C2014 0.950 . S
H1985 C2015 0.950 . S
C1986 H1968 0.951 . S
C1986 C1987 1.366 . S
C1986 C1988 1.388 . S
C1987 C1986 1.366 . S
C1987 C1991 1.385 . S
C1988 H1969 0.951 . S
C1988 C1986 1.388 . S
C1988 C1989 1.366 . S
C1989 C1988 1.366 . S
C1989 C1990 1.414 . S
C1989 C1992 1.499 . S
C1990 H1970 0.950 . S
C1990 C1989 1.414 . S
C1990 C1991 1.374 . S
C1991 H1971 0.950 . S
C1991 C1987 1.385 . S
C1991 C1990 1.374 . S
C1992 C1989 1.499 . S
C1992 C1993 1.373 1_545 S
C1992 C1994 1.389 . S
C1993 H1972 0.950 . S
C1993 C1992 1.373 1_565 S
C1993 C2009 1.377 . S
C1994 C1992 1.389 . S
C1994 C1995 1.524 . S
C1994 C2008 1.377 1_545 S
C1995 C1994 1.524 . S
C1995 C1996 1.397 . S
C1995 C2000 1.363 . S
C1996 H1973 0.950 . S
C1996 C1995 1.397 . S
C1996 C1997 1.334 . S
C1997 H1974 0.950 . S
C1997 C1996 1.334 . S
C1997 C1998 1.287 . S
C1998 C1997 1.287 . S
C1998 C1999 1.524 . S
C1998 H2017 0.913 . S
C1999 H1975 0.950 . S
C1999 C1998 1.524 . S
C1999 C2000 1.415 . S
C2000 H1976 0.950 . S
C2000 C1995 1.363 . S
C2000 C1999 1.415 . S
C2001 H1977 0.951 . S
C2001 C2002 1.366 . S
C2001 C2003 1.388 . S
C2002 C2001 1.366 . S
C2002 C2006 1.385 . S
C2003 H1978 0.951 . S
C2003 C2001 1.388 . S
C2003 C2004 1.366 . S
C2004 C2003 1.366 . S
C2004 C2005 1.414 . S
C2004 C2007 1.499 . S
C2005 H1979 0.950 . S
C2005 C2004 1.414 . S
C2005 C2006 1.374 . S
C2006 H1980 0.950 . S
C2006 C2002 1.385 . S
C2006 C2005 1.374 . S
C2007 C2004 1.499 . S
C2007 C2008 1.373 . S
C2007 C2009 1.389 . S
C2008 H1981 0.950 . S
C2008 C1994 1.377 1_565 S
C2008 C2007 1.373 . S
C2009 C1993 1.377 . S
C2009 C2007 1.389 . S
C2009 C2010 1.524 . S
C2010 C2009 1.524 . S
C2010 C2011 1.397 . S
C2010 C2015 1.363 . S
C2011 H1982 0.950 . S
C2011 C2010 1.397 . S
C2011 C2012 1.334 . S
C2012 H1983 0.950 . S
C2012 C2011 1.334 . S
C2012 C2013 1.287 . S
C2013 C2012 1.287 . S
C2013 C2014 1.524 . S
C2013 H2016 0.999 . S
C2014 H1984 0.950 . S
C2014 C2013 1.524 . S
C2014 C2015 1.415 . S
C2015 H1985 0.950 . S
C2015 C2010 1.363 . S
C2015 C2014 1.415 . S
H2016 C2013 0.999 . S
H2017 C1998 0.913 . S
H2018 C2036 0.951 . S
H2019 C2038 0.951 . S
H2020 C2040 0.950 . S
H2021 C2041 0.950 . S
H2022 C2043 0.950 . S
H2023 C2046 0.950 . S
H2024 C2047 0.950 . S
H2025 C2049 0.950 . S
H2026 C2050 0.950 . S
H2027 C2051 0.951 . S
H2028 C2053 0.951 . S
H2029 C2055 0.950 . S
H2030 C2056 0.950 . S
H2031 C2058 0.950 . S
H2032 C2061 0.950 . S
H2033 C2062 0.950 . S
H2034 C2064 0.950 . S
H2035 C2065 0.950 . S
C2036 H2018 0.951 . S
C2036 C2037 1.366 . S
C2036 C2038 1.388 . S
C2037 C2036 1.366 . S
C2037 C2041 1.385 . S
C2038 H2019 0.951 . S
C2038 C2036 1.388 . S
C2038 C2039 1.366 . S
C2039 C2038 1.366 . S
C2039 C2040 1.414 . S
C2039 C2042 1.499 . S
C2040 H2020 0.950 . S
C2040 C2039 1.414 . S
C2040 C2041 1.374 . S
C2041 H2021 0.950 . S
C2041 C2037 1.385 . S
C2041 C2040 1.374 . S
C2042 C2039 1.499 . S
C2042 C2043 1.373 . S
C2042 C2044 1.389 1_655 S
C2043 H2022 0.950 . S
C2043 C2042 1.373 . S
C2043 C2059 1.377 1_655 S
C2044 C2042 1.389 1_455 S
C2044 C2045 1.524 . S
C2044 C2058 1.377 . S
C2045 C2044 1.524 . S
C2045 C2046 1.397 . S
C2045 C2050 1.363 . S
C2046 H2023 0.950 . S
C2046 C2045 1.397 . S
C2046 C2047 1.334 . S
C2047 H2024 0.950 . S
C2047 C2046 1.334 . S
C2047 C2048 1.287 . S
C2048 C2047 1.287 . S
C2048 C2049 1.524 . S
C2048 H2067 0.913 . S
C2049 H2025 0.950 . S
C2049 C2048 1.524 . S
C2049 C2050 1.415 . S
C2050 H2026 0.950 . S
C2050 C2045 1.363 . S
C2050 C2049 1.415 . S
C2051 H2027 0.951 . S
C2051 C2052 1.366 . S
C2051 C2053 1.388 . S
C2052 C2051 1.366 . S
C2052 C2056 1.385 . S
C2053 H2028 0.951 . S
C2053 C2051 1.388 . S
C2053 C2054 1.366 . S
C2054 C2053 1.366 . S
C2054 C2055 1.414 . S
C2054 C2057 1.499 . S
C2055 H2029 0.950 . S
C2055 C2054 1.414 . S
C2055 C2056 1.374 . S
C2056 H2030 0.950 . S
C2056 C2052 1.385 . S
C2056 C2055 1.374 . S
C2057 C2054 1.499 . S
C2057 C2058 1.373 . S
C2057 C2059 1.389 . S
C2058 H2031 0.950 . S
C2058 C2044 1.377 . S
C2058 C2057 1.373 . S
C2059 C2043 1.377 1_455 S
C2059 C2057 1.389 . S
C2059 C2060 1.524 . S
C2060 C2059 1.524 . S
C2060 C2061 1.397 . S
C2060 C2065 1.363 . S
C2061 H2032 0.950 . S
C2061 C2060 1.397 . S
C2061 C2062 1.334 . S
C2062 H2033 0.950 . S
C2062 C2061 1.334 . S
C2062 C2063 1.287 . S
C2063 C2062 1.287 . S
C2063 C2064 1.524 . S
C2063 H2066 0.999 . S
C2064 H2034 0.950 . S
C2064 C2063 1.524 . S
C2064 C2065 1.415 . S
C2065 H2035 0.950 . S
C2065 C2060 1.363 . S
C2065 C2064 1.415 . S
H2066 C2063 0.999 . S
H2067 C2048 0.913 . S
H2068 C2086 0.951 . S
H2069 C2088 0.951 . S
H2070 C2090 0.950 . S
H2071 C2091 0.950 . S
H2072 C2093 0.950 . S
H2073 C2096 0.950 . S
H2074 C2097 0.950 . S
H2075 C2099 0.950 . S
H2076 C2100 0.950 . S
H2077 C2101 0.951 . S
H2078 C2103 0.951 . S
H2079 C2105 0.950 . S
H2080 C2106 0.950 . S
H2081 C2108 0.950 . S
H2082 C2111 0.950 . S
H2083 C2112 0.950 . S
H2084 C2114 0.950 . S
H2085 C2115 0.950 . S
C2086 H2068 0.951 . S
C2086 C2087 1.366 . S
C2086 C2088 1.388 . S
C2087 C2086 1.366 . S
C2087 C2091 1.385 . S
C2088 H2069 0.951 . S
C2088 C2086 1.388 . S
C2088 C2089 1.366 . S
C2089 C2088 1.366 . S
C2089 C2090 1.414 . S
C2089 C2092 1.499 . S
C2090 H2070 0.950 . S
C2090 C2089 1.414 . S
C2090 C2091 1.374 . S
C2091 H2071 0.950 . S
C2091 C2087 1.385 . S
C2091 C2090 1.374 . S
C2092 C2089 1.499 . S
C2092 C2093 1.373 . S
C2092 C2094 1.389 . S
C2093 H2072 0.950 . S
C2093 C2092 1.373 . S
C2093 C2109 1.377 . S
C2094 C2092 1.389 . S
C2094 C2095 1.524 . S
C2094 C2108 1.377 . S
C2095 C2094 1.524 . S
C2095 C2096 1.397 . S
C2095 C2100 1.363 . S
C2096 H2073 0.950 . S
C2096 C2095 1.397 . S
C2096 C2097 1.334 . S
C2097 H2074 0.950 . S
C2097 C2096 1.334 . S
C2097 C2098 1.287 . S
C2098 C2097 1.287 . S
C2098 C2099 1.524 . S
C2098 H2117 0.913 . S
C2099 H2075 0.950 . S
C2099 C2098 1.524 . S
C2099 C2100 1.415 . S
C2100 H2076 0.950 . S
C2100 C2095 1.363 . S
C2100 C2099 1.415 . S
C2101 H2077 0.951 . S
C2101 C2102 1.366 . S
C2101 C2103 1.388 . S
C2102 C2101 1.366 . S
C2102 C2106 1.385 . S
C2103 H2078 0.951 . S
C2103 C2101 1.388 . S
C2103 C2104 1.366 . S
C2104 C2103 1.366 . S
C2104 C2105 1.414 . S
C2104 C2107 1.499 . S
C2105 H2079 0.950 . S
C2105 C2104 1.414 . S
C2105 C2106 1.374 . S
C2106 H2080 0.950 . S
C2106 C2102 1.385 . S
C2106 C2105 1.374 . S
C2107 C2104 1.499 . S
C2107 C2108 1.373 . S
C2107 C2109 1.389 . S
C2108 H2081 0.950 . S
C2108 C2094 1.377 . S
C2108 C2107 1.373 . S
C2109 C2093 1.377 . S
C2109 C2107 1.389 . S
C2109 C2110 1.524 . S
C2110 C2109 1.524 . S
C2110 C2111 1.397 . S
C2110 C2115 1.363 . S
C2111 H2082 0.950 . S
C2111 C2110 1.397 . S
C2111 C2112 1.334 . S
C2112 H2083 0.950 . S
C2112 C2111 1.334 . S
C2112 C2113 1.287 . S
C2113 C2112 1.287 . S
C2113 C2114 1.524 . S
C2113 H2116 0.999 . S
C2114 H2084 0.950 . S
C2114 C2113 1.524 . S
C2114 C2115 1.415 . S
C2115 H2085 0.950 . S
C2115 C2110 1.363 . S
C2115 C2114 1.415 . S
H2116 C2113 0.999 . S
H2117 C2098 0.913 . S
H2118 C2136 0.951 . S
H2119 C2138 0.951 . S
H2120 C2140 0.950 . S
H2121 C2141 0.950 . S
H2122 C2143 0.950 . S
H2123 C2146 0.950 . S
H2124 C2147 0.950 . S
H2125 C2149 0.950 . S
H2126 C2150 0.950 . S
H2127 C2151 0.951 . S
H2128 C2153 0.951 . S
H2129 C2155 0.950 . S
H2130 C2156 0.950 . S
H2131 C2158 0.950 . S
H2132 C2161 0.950 . S
H2133 C2162 0.950 . S
H2134 C2164 0.950 . S
H2135 C2165 0.950 . S
C2136 H2118 0.951 . S
C2136 C2137 1.366 . S
C2136 C2138 1.388 . S
C2137 C2136 1.366 . S
C2137 C2141 1.385 . S
C2138 H2119 0.951 . S
C2138 C2136 1.388 . S
C2138 C2139 1.366 . S
C2139 C2138 1.366 . S
C2139 C2140 1.414 . S
C2139 C2142 1.499 . S
C2140 H2120 0.950 . S
C2140 C2139 1.414 . S
C2140 C2141 1.374 . S
C2141 H2121 0.950 . S
C2141 C2137 1.385 . S
C2141 C2140 1.374 . S
C2142 C2139 1.499 . S
C2142 C2143 1.373 . S
C2142 C2144 1.389 . S
C2143 H2122 0.950 . S
C2143 C2142 1.373 . S
C2143 C2159 1.377 . S
C2144 C2142 1.389 . S
C2144 C2145 1.524 . S
C2144 C2158 1.377 . S
C2145 C2144 1.524 . S
C2145 C2146 1.397 . S
C2145 C2150 1.363 . S
C2146 H2123 0.950 . S
C2146 C2145 1.397 . S
C2146 C2147 1.334 . S
C2147 H2124 0.950 . S
C2147 C2146 1.334 . S
C2147 C2148 1.287 . S
C2148 C2147 1.287 . S
C2148 C2149 1.524 . S
C2148 H2167 0.913 . S
C2149 H2125 0.950 . S
C2149 C2148 1.524 . S
C2149 C2150 1.415 . S
C2150 H2126 0.950 . S
C2150 C2145 1.363 . S
C2150 C2149 1.415 . S
C2151 H2127 0.951 . S
C2151 C2152 1.366 . S
C2151 C2153 1.388 . S
C2152 C2151 1.366 . S
C2152 C2156 1.385 . S
C2153 H2128 0.951 . S
C2153 C2151 1.388 . S
C2153 C2154 1.366 . S
C2154 C2153 1.366 . S
C2154 C2155 1.414 . S
C2154 C2157 1.499 . S
C2155 H2129 0.950 . S
C2155 C2154 1.414 . S
C2155 C2156 1.374 . S
C2156 H2130 0.950 . S
C2156 C2152 1.385 . S
C2156 C2155 1.374 . S
C2157 C2154 1.499 . S
C2157 C2158 1.373 . S
C2157 C2159 1.389 . S
C2158 H2131 0.950 . S
C2158 C2144 1.377 . S
C2158 C2157 1.373 . S
C2159 C2143 1.377 . S
C2159 C2157 1.389 . S
C2159 C2160 1.524 . S
C2160 C2159 1.524 . S
C2160 C2161 1.397 . S
C2160 C2165 1.363 . S
C2161 H2132 0.950 . S
C2161 C2160 1.397 . S
C2161 C2162 1.334 . S
C2162 H2133 0.950 . S
C2162 C2161 1.334 . S
C2162 C2163 1.287 . S
C2163 C2162 1.287 . S
C2163 C2164 1.524 . S
C2163 H2166 0.999 . S
C2164 H2134 0.950 . S
C2164 C2163 1.524 . S
C2164 C2165 1.415 . S
C2165 H2135 0.950 . S
C2165 C2160 1.363 . S
C2165 C2164 1.415 . S
H2166 C2163 0.999 . S
H2167 C2148 0.913 . S
H2168 C2186 0.951 . S
H2169 C2188 0.951 . S
H2170 C2190 0.950 . S
H2171 C2191 0.950 . S
H2172 C2193 0.950 . S
H2173 C2196 0.950 . S
H2174 C2197 0.950 . S
H2175 C2199 0.950 . S
H2176 C2200 0.950 . S
H2177 C2201 0.951 . S
H2178 C2203 0.951 . S
H2179 C2205 0.950 . S
H2180 C2206 0.950 . S
H2181 C2208 0.950 . S
H2182 C2211 0.950 . S
H2183 C2212 0.950 . S
H2184 C2214 0.950 . S
H2185 C2215 0.950 . S
C2186 H2168 0.951 . S
C2186 C2187 1.366 . S
C2186 C2188 1.388 . S
C2187 C2186 1.366 . S
C2187 C2191 1.385 . S
C2188 H2169 0.951 . S
C2188 C2186 1.388 . S
C2188 C2189 1.366 . S
C2189 C2188 1.366 . S
C2189 C2190 1.414 . S
C2189 C2192 1.499 . S
C2190 H2170 0.950 . S
C2190 C2189 1.414 . S
C2190 C2191 1.374 . S
C2191 H2171 0.950 . S
C2191 C2187 1.385 . S
C2191 C2190 1.374 . S
C2192 C2189 1.499 . S
C2192 C2193 1.373 . S
C2192 C2194 1.389 . S
C2193 H2172 0.950 . S
C2193 C2192 1.373 . S
C2193 C2209 1.377 . S
C2194 C2192 1.389 . S
C2194 C2195 1.524 . S
C2194 C2208 1.377 . S
C2195 C2194 1.524 . S
C2195 C2196 1.397 . S
C2195 C2200 1.363 . S
C2196 H2173 0.950 . S
C2196 C2195 1.397 . S
C2196 C2197 1.334 . S
C2197 H2174 0.950 . S
C2197 C2196 1.334 . S
C2197 C2198 1.287 . S
C2198 C2197 1.287 . S
C2198 C2199 1.524 . S
C2198 H2217 0.913 . S
C2199 H2175 0.950 . S
C2199 C2198 1.524 . S
C2199 C2200 1.415 . S
C2200 H2176 0.950 . S
C2200 C2195 1.363 . S
C2200 C2199 1.415 . S
C2201 H2177 0.951 . S
C2201 C2202 1.366 . S
C2201 C2203 1.388 . S
C2202 C2201 1.366 . S
C2202 C2206 1.385 . S
C2203 H2178 0.951 . S
C2203 C2201 1.388 . S
C2203 C2204 1.366 . S
C2204 C2203 1.366 . S
C2204 C2205 1.414 . S
C2204 C2207 1.499 . S
C2205 H2179 0.950 . S
C2205 C2204 1.414 . S
C2205 C2206 1.374 . S
C2206 H2180 0.950 . S
C2206 C2202 1.385 . S
C2206 C2205 1.374 . S
C2207 C2204 1.499 . S
C2207 C2208 1.373 . S
C2207 C2209 1.389 . S
C2208 H2181 0.950 . S
C2208 C2194 1.377 . S
C2208 C2207 1.373 . S
C2209 C2193 1.377 . S
C2209 C2207 1.389 . S
C2209 C2210 1.524 . S
C2210 C2209 1.524 . S
C2210 C2211 1.397 . S
C2210 C2215 1.363 . S
C2211 H2182 0.950 . S
C2211 C2210 1.397 . S
C2211 C2212 1.334 . S
C2212 H2183 0.950 . S
C2212 C2211 1.334 . S
C2212 C2213 1.287 . S
C2213 C2212 1.287 . S
C2213 C2214 1.524 . S
C2213 H2216 0.999 . S
C2214 H2184 0.950 . S
C2214 C2213 1.524 . S
C2214 C2215 1.415 . S
C2215 H2185 0.950 . S
C2215 C2210 1.363 . S
C2215 C2214 1.415 . S
H2216 C2213 0.999 . S
H2217 C2198 0.913 . S
H2218 C2236 0.951 . S
H2219 C2238 0.951 . S
H2220 C2240 0.950 . S
H2221 C2241 0.950 . S
H2222 C2243 0.950 . S
H2223 C2246 0.950 . S
H2224 C2247 0.950 . S
H2225 C2249 0.950 . S
H2226 C2250 0.950 . S
H2227 C2251 0.951 . S
H2228 C2253 0.951 . S
H2229 C2255 0.950 . S
H2230 C2256 0.950 . S
H2231 C2258 0.950 . S
H2232 C2261 0.950 . S
H2233 C2262 0.950 . S
H2234 C2264 0.950 . S
H2235 C2265 0.950 . S
C2236 H2218 0.951 . S
C2236 C2237 1.366 . S
C2236 C2238 1.388 . S
C2237 C2236 1.366 . S
C2237 C2241 1.385 . S
C2238 H2219 0.951 . S
C2238 C2236 1.388 . S
C2238 C2239 1.366 . S
C2239 C2238 1.366 . S
C2239 C2240 1.414 . S
C2239 C2242 1.499 . S
C2240 H2220 0.950 . S
C2240 C2239 1.414 . S
C2240 C2241 1.374 . S
C2241 H2221 0.950 . S
C2241 C2237 1.385 . S
C2241 C2240 1.374 . S
C2242 C2239 1.499 . S
C2242 C2243 1.373 . S
C2242 C2244 1.389 . S
C2243 H2222 0.950 . S
C2243 C2242 1.373 . S
C2243 C2259 1.377 . S
C2244 C2242 1.389 . S
C2244 C2245 1.524 . S
C2244 C2258 1.377 . S
C2245 C2244 1.524 . S
C2245 C2246 1.397 . S
C2245 C2250 1.363 . S
C2246 H2223 0.950 . S
C2246 C2245 1.397 . S
C2246 C2247 1.334 . S
C2247 H2224 0.950 . S
C2247 C2246 1.334 . S
C2247 C2248 1.287 . S
C2248 C2247 1.287 . S
C2248 C2249 1.524 . S
C2248 H2267 0.913 . S
C2249 H2225 0.950 . S
C2249 C2248 1.524 . S
C2249 C2250 1.415 . S
C2250 H2226 0.950 . S
C2250 C2245 1.363 . S
C2250 C2249 1.415 . S
C2251 H2227 0.951 . S
C2251 C2252 1.366 . S
C2251 C2253 1.388 . S
C2252 C2251 1.366 . S
C2252 C2256 1.385 . S
C2253 H2228 0.951 . S
C2253 C2251 1.388 . S
C2253 C2254 1.366 . S
C2254 C2253 1.366 . S
C2254 C2255 1.414 . S
C2254 C2257 1.499 . S
C2255 H2229 0.950 . S
C2255 C2254 1.414 . S
C2255 C2256 1.374 . S
C2256 H2230 0.950 . S
C2256 C2252 1.385 . S
C2256 C2255 1.374 . S
C2257 C2254 1.499 . S
C2257 C2258 1.373 . S
C2257 C2259 1.389 . S
C2258 H2231 0.950 . S
C2258 C2244 1.377 . S
C2258 C2257 1.373 . S
C2259 C2243 1.377 . S
C2259 C2257 1.389 . S
C2259 C2260 1.524 . S
C2260 C2259 1.524 . S
C2260 C2261 1.397 . S
C2260 C2265 1.363 . S
C2261 H2232 0.950 . S
C2261 C2260 1.397 . S
C2261 C2262 1.334 . S
C2262 H2233 0.950 . S
C2262 C2261 1.334 . S
C2262 C2263 1.287 . S
C2263 C2262 1.287 . S
C2263 C2264 1.524 . S
C2263 H2266 0.999 . S
C2264 H2234 0.950 . S
C2264 C2263 1.524 . S
C2264 C2265 1.415 . S
C2265 H2235 0.950 . S
C2265 C2260 1.363 . S
C2265 C2264 1.415 . S
H2266 C2263 0.999 . S
H2267 C2248 0.913 . S
H2268 C2286 0.951 . S
H2269 C2288 0.951 . S
H2270 C2290 0.950 . S
H2271 C2291 0.950 . S
H2272 C2293 0.950 . S
H2273 C2296 0.950 . S
H2274 C2297 0.950 . S
H2275 C2299 0.950 . S
H2276 C2300 0.950 . S
H2277 C2301 0.951 . S
H2278 C2303 0.951 . S
H2279 C2305 0.950 . S
H2280 C2306 0.950 . S
H2281 C2308 0.950 . S
H2282 C2311 0.950 . S
H2283 C2312 0.950 . S
H2284 C2314 0.950 . S
H2285 C2315 0.950 . S
C2286 H2268 0.951 . S
C2286 C2287 1.366 . S
C2286 C2288 1.388 . S
C2287 C2286 1.366 . S
C2287 C2291 1.385 . S
C2288 H2269 0.951 . S
C2288 C2286 1.388 . S
C2288 C2289 1.366 . S
C2289 C2288 1.366 . S
C2289 C2290 1.414 . S
C2289 C2292 1.499 . S
C2290 H2270 0.950 . S
C2290 C2289 1.414 . S
C2290 C2291 1.374 . S
C2291 H2271 0.950 . S
C2291 C2287 1.385 . S
C2291 C2290 1.374 . S
C2292 C2289 1.499 . S
C2292 C2293 1.373 1_565 S
C2292 C2294 1.389 . S
C2293 H2272 0.950 . S
C2293 C2292 1.373 1_545 S
C2293 C2309 1.377 . S
C2294 C2292 1.389 . S
C2294 C2295 1.524 . S
C2294 C2308 1.377 1_565 S
C2295 C2294 1.524 . S
C2295 C2296 1.397 . S
C2295 C2300 1.363 . S
C2296 H2273 0.950 . S
C2296 C2295 1.397 . S
C2296 C2297 1.334 . S
C2297 H2274 0.950 . S
C2297 C2296 1.334 . S
C2297 C2298 1.287 . S
C2298 C2297 1.287 . S
C2298 C2299 1.524 . S
C2298 H2317 0.913 . S
C2299 H2275 0.950 . S
C2299 C2298 1.524 . S
C2299 C2300 1.415 . S
C2300 H2276 0.950 . S
C2300 C2295 1.363 . S
C2300 C2299 1.415 . S
C2301 H2277 0.951 . S
C2301 C2302 1.366 . S
C2301 C2303 1.388 . S
C2302 C2301 1.366 . S
C2302 C2306 1.385 . S
C2303 H2278 0.951 . S
C2303 C2301 1.388 . S
C2303 C2304 1.366 . S
C2304 C2303 1.366 . S
C2304 C2305 1.414 . S
C2304 C2307 1.499 . S
C2305 H2279 0.950 . S
C2305 C2304 1.414 . S
C2305 C2306 1.374 . S
C2306 H2280 0.950 . S
C2306 C2302 1.385 . S
C2306 C2305 1.374 . S
C2307 C2304 1.499 . S
C2307 C2308 1.373 . S
C2307 C2309 1.389 . S
C2308 H2281 0.950 . S
C2308 C2294 1.377 1_545 S
C2308 C2307 1.373 . S
C2309 C2293 1.377 . S
C2309 C2307 1.389 . S
C2309 C2310 1.524 . S
C2310 C2309 1.524 . S
C2310 C2311 1.397 . S
C2310 C2315 1.363 . S
C2311 H2282 0.950 . S
C2311 C2310 1.397 . S
C2311 C2312 1.334 . S
C2312 H2283 0.950 . S
C2312 C2311 1.334 . S
C2312 C2313 1.287 . S
C2313 C2312 1.287 . S
C2313 C2314 1.524 . S
C2313 H2316 0.999 . S
C2314 H2284 0.950 . S
C2314 C2313 1.524 . S
C2314 C2315 1.415 . S
C2315 H2285 0.950 . S
C2315 C2310 1.363 . S
C2315 C2314 1.415 . S
H2316 C2313 0.999 . S
H2317 C2298 0.913 . S
H2318 C2336 0.951 . S
H2319 C2338 0.951 . S
H2320 C2340 0.950 . S
H2321 C2341 0.950 . S
H2322 C2343 0.950 1_455 S
H2323 C2346 0.950 . S
H2324 C2347 0.950 . S
H2325 C2349 0.976 . S
H2326 C2350 0.950 . S
H2327 C2351 0.951 . S
H2328 C2353 0.951 . S
H2329 C2355 0.950 . S
H2330 C2356 0.950 . S
H2331 C2358 0.950 . S
H2332 C2361 0.950 . S
H2333 C2362 0.950 . S
H2334 C2364 0.950 . S
H2335 C2365 0.950 . S
C2336 H2318 0.951 . S
C2336 C2337 1.366 . S
C2336 C2338 1.388 . S
C2337 C2336 1.366 . S
C2337 C2341 1.385 . S
C2338 H2319 0.951 . S
C2338 C2336 1.388 . S
C2338 C2339 1.366 . S
C2339 C2338 1.366 . S
C2339 C2340 1.414 . S
C2339 C2342 1.499 . S
C2340 H2320 0.950 . S
C2340 C2339 1.414 . S
C2340 C2341 1.374 . S
C2341 H2321 0.950 . S
C2341 C2337 1.385 . S
C2341 C2340 1.374 . S
C2342 C2339 1.499 . S
C2342 C2343 1.373 1_455 S
C2342 C2344 1.389 1_455 S
C2343 H2322 0.950 1_655 S
C2343 C2342 1.373 1_655 S
C2343 C2359 1.377 . S
C2344 C2342 1.389 1_655 S
C2344 C2345 1.524 1_655 S
C2344 C2358 1.377 . S
C2345 C2344 1.524 1_455 S
C2345 C2346 1.397 . S
C2345 C2350 1.363 1_455 S
C2346 H2323 0.950 . S
C2346 C2345 1.397 . S
C2346 C2347 1.334 . S
C2347 H2324 0.950 . S
C2347 C2346 1.334 . S
C2347 C2348 1.287 . S
C2348 C2347 1.287 . S
C2348 C2349 1.498 1_455 S
C2348 H2367 0.913 . S
C2349 H2325 0.976 . S
C2349 C2348 1.498 1_655 S
C2349 C2350 1.413 . S
C2350 H2326 0.950 . S
C2350 C2345 1.363 1_655 S
C2350 C2349 1.413 . S
C2351 H2327 0.951 . S
C2351 C2352 1.366 . S
C2351 C2353 1.388 . S
C2352 C2351 1.366 . S
C2352 C2356 1.385 . S
C2353 H2328 0.951 . S
C2353 C2351 1.388 . S
C2353 C2354 1.366 . S
C2354 C2353 1.366 . S
C2354 C2355 1.414 . S
C2354 C2357 1.499 . S
C2355 H2329 0.950 . S
C2355 C2354 1.414 . S
C2355 C2356 1.374 . S
C2356 H2330 0.950 . S
C2356 C2352 1.385 . S
C2356 C2355 1.374 . S
C2357 C2354 1.499 . S
C2357 C2358 1.373 . S
C2357 C2359 1.389 . S
C2358 H2331 0.950 . S
C2358 C2344 1.377 . S
C2358 C2357 1.373 . S
C2359 C2343 1.377 . S
C2359 C2357 1.389 . S
C2359 C2360 1.524 . S
C2360 C2359 1.524 . S
C2360 C2361 1.397 . S
C2360 C2365 1.363 . S
C2361 H2332 0.950 . S
C2361 C2360 1.397 . S
C2361 C2362 1.334 . S
C2362 H2333 0.950 . S
C2362 C2361 1.334 . S
C2362 C2363 1.287 . S
C2363 C2362 1.287 . S
C2363 C2364 1.524 . S
C2363 H2366 0.999 . S
C2364 H2334 0.950 . S
C2364 C2363 1.524 . S
C2364 C2365 1.415 . S
C2365 H2335 0.950 . S
C2365 C2360 1.363 . S
C2365 C2364 1.415 . S
H2366 C2363 0.999 . S
H2367 C2348 0.913 . S
H2368 C2386 0.951 . S
H2369 C2388 0.951 . S
H2370 C2390 0.950 . S
H2371 C2391 0.950 . S
H2372 C2393 0.950 . S
H2373 C2396 0.950 . S
H2374 C2397 0.950 . S
H2375 C2399 0.950 . S
H2376 C2400 0.950 . S
H2377 C2401 0.951 . S
H2378 C2403 0.951 . S
H2379 C2405 0.950 . S
H2380 C2406 0.950 . S
H2381 C2408 0.950 . S
H2382 C2411 0.950 . S
H2383 C2412 0.950 . S
H2384 C2414 0.950 . S
H2385 C2415 0.950 . S
C2386 H2368 0.951 . S
C2386 C2387 1.366 . S
C2386 C2388 1.388 . S
C2387 C2386 1.366 . S
C2387 C2391 1.385 . S
C2388 H2369 0.951 . S
C2388 C2386 1.388 . S
C2388 C2389 1.366 . S
C2389 C2388 1.366 . S
C2389 C2390 1.414 . S
C2389 C2392 1.499 . S
C2390 H2370 0.950 . S
C2390 C2389 1.414 . S
C2390 C2391 1.374 . S
C2391 H2371 0.950 . S
C2391 C2387 1.385 . S
C2391 C2390 1.374 . S
C2392 C2389 1.499 . S
C2392 C2393 1.373 . S
C2392 C2394 1.389 . S
C2393 H2372 0.950 . S
C2393 C2392 1.373 . S
C2393 C2409 1.377 . S
C2394 C2392 1.389 . S
C2394 C2395 1.524 . S
C2394 C2408 1.377 . S
C2395 C2394 1.524 . S
C2395 C2396 1.397 . S
C2395 C2400 1.363 . S
C2396 H2373 0.950 . S
C2396 C2395 1.397 . S
C2396 C2397 1.334 . S
C2397 H2374 0.950 . S
C2397 C2396 1.334 . S
C2397 C2398 1.287 . S
C2398 C2397 1.287 . S
C2398 C2399 1.524 . S
C2398 H2417 0.913 . S
C2399 H2375 0.950 . S
C2399 C2398 1.524 . S
C2399 C2400 1.415 . S
C2400 H2376 0.950 . S
C2400 C2395 1.363 . S
C2400 C2399 1.415 . S
C2401 H2377 0.951 . S
C2401 C2402 1.366 . S
C2401 C2403 1.388 . S
C2402 C2401 1.366 . S
C2402 C2406 1.385 . S
C2403 H2378 0.951 . S
C2403 C2401 1.388 . S
C2403 C2404 1.366 . S
C2404 C2403 1.366 . S
C2404 C2405 1.414 . S
C2404 C2407 1.499 . S
C2405 H2379 0.950 . S
C2405 C2404 1.414 . S
C2405 C2406 1.374 . S
C2406 H2380 0.950 . S
C2406 C2402 1.385 . S
C2406 C2405 1.374 . S
C2407 C2404 1.499 . S
C2407 C2408 1.373 . S
C2407 C2409 1.389 . S
C2408 H2381 0.950 . S
C2408 C2394 1.377 . S
C2408 C2407 1.373 . S
C2409 C2393 1.377 . S
C2409 C2407 1.389 . S
C2409 C2410 1.524 . S
C2410 C2409 1.524 . S
C2410 C2411 1.397 . S
C2410 C2415 1.363 . S
C2411 H2382 0.950 . S
C2411 C2410 1.397 . S
C2411 C2412 1.334 . S
C2412 H2383 0.950 . S
C2412 C2411 1.334 . S
C2412 C2413 1.287 . S
C2413 C2412 1.287 . S
C2413 C2414 1.524 . S
C2413 H2416 0.999 . S
C2414 H2384 0.950 . S
C2414 C2413 1.524 . S
C2414 C2415 1.415 . S
C2415 H2385 0.950 . S
C2415 C2410 1.363 . S
C2415 C2414 1.415 . S
H2416 C2413 0.999 . S
H2417 C2398 0.913 . S
H2418 C2436 0.951 . S
H2419 C2438 0.951 . S
H2420 C2440 0.950 . S
H2421 C2441 0.950 . S
H2422 C2443 0.918 1_455 S
H2423 C2446 0.950 . S
H2424 C2447 0.950 . S
H2425 C2449 0.950 . S
H2426 C2450 0.950 . S
H2427 C2451 0.951 . S
H2428 C2453 0.951 . S
H2429 C2455 0.950 . S
H2430 C2456 0.950 . S
H2431 C2458 0.950 . S
H2432 C2461 0.950 . S
H2433 C2462 0.950 . S
H2434 C2464 0.950 . S
H2435 C2465 0.950 . S
C2436 H2418 0.951 . S
C2436 C2437 1.366 . S
C2436 C2438 1.388 . S
C2437 C2436 1.366 . S
C2437 C2441 1.385 . S
C2438 H2419 0.951 . S
C2438 C2436 1.388 . S
C2438 C2439 1.366 . S
C2439 C2438 1.366 . S
C2439 C2440 1.414 . S
C2439 C2442 1.499 . S
C2440 H2420 0.950 . S
C2440 C2439 1.414 . S
C2440 C2441 1.374 . S
C2441 H2421 0.950 . S
C2441 C2437 1.385 . S
C2441 C2440 1.374 . S
C2442 C2439 1.499 . S
C2442 C2443 1.379 1_455 S
C2442 C2444 1.389 1_455 S
C2443 H2422 0.918 1_655 S
C2443 C2442 1.379 1_655 S
C2443 C2459 1.403 . S
C2444 C2442 1.389 1_655 S
C2444 C2445 1.524 1_655 S
C2444 C2458 1.377 . S
C2445 C2444 1.524 1_455 S
C2445 C2446 1.397 . S
C2445 C2450 1.363 1_455 S
C2446 H2423 0.950 . S
C2446 C2445 1.397 . S
C2446 C2447 1.334 . S
C2447 H2424 0.950 . S
C2447 C2446 1.334 . S
C2447 C2448 1.287 . S
C2448 C2447 1.287 . S
C2448 C2449 1.524 1_455 S
C2448 H2467 0.913 . S
C2449 H2425 0.950 . S
C2449 C2448 1.524 1_655 S
C2449 C2450 1.415 . S
C2450 H2426 0.950 . S
C2450 C2445 1.363 1_655 S
C2450 C2449 1.415 . S
C2451 H2427 0.951 . S
C2451 C2452 1.366 . S
C2451 C2453 1.388 . S
C2452 C2451 1.366 . S
C2452 C2456 1.385 . S
C2453 H2428 0.951 . S
C2453 C2451 1.388 . S
C2453 C2454 1.366 . S
C2454 C2453 1.366 . S
C2454 C2455 1.414 . S
C2454 C2457 1.499 . S
C2455 H2429 0.950 . S
C2455 C2454 1.414 . S
C2455 C2456 1.374 . S
C2456 H2430 0.950 . S
C2456 C2452 1.385 . S
C2456 C2455 1.374 . S
C2457 C2454 1.499 . S
C2457 C2458 1.373 . S
C2457 C2459 1.389 . S
C2458 H2431 0.950 . S
C2458 C2444 1.377 . S
C2458 C2457 1.373 . S
C2459 C2443 1.403 . S
C2459 C2457 1.389 . S
C2459 C2460 1.524 . S
C2460 C2459 1.524 . S
C2460 C2461 1.397 . S
C2460 C2465 1.363 . S
C2461 H2432 0.950 . S
C2461 C2460 1.397 . S
C2461 C2462 1.334 . S
C2462 H2433 0.950 . S
C2462 C2461 1.334 . S
C2462 C2463 1.287 . S
C2463 C2462 1.287 . S
C2463 C2464 1.524 . S
C2463 H2466 0.999 . S
C2464 H2434 0.950 . S
C2464 C2463 1.524 . S
C2464 C2465 1.415 . S
C2465 H2435 0.950 . S
C2465 C2460 1.363 . S
C2465 C2464 1.415 . S
H2466 C2463 0.999 . S
H2467 C2448 0.913 . S
H2468 C2486 0.951 . S
H2469 C2488 0.951 . S
H2470 C2490 0.950 . S
H2471 C2491 0.950 . S
H2472 C2493 0.950 . S
H2473 C2496 0.950 . S
H2474 C2497 0.950 . S
H2475 C2499 0.950 . S
H2476 C2500 0.950 . S
H2477 C2501 0.951 . S
H2478 C2503 0.951 . S
H2479 C2505 0.950 . S
H2480 C2506 0.950 . S
H2481 C2508 0.950 . S
H2482 C2511 0.950 . S
H2483 C2512 0.950 . S
H2484 C2514 0.950 . S
H2485 C2515 0.950 . S
C2486 H2468 0.951 . S
C2486 C2487 1.366 . S
C2486 C2488 1.388 . S
C2487 C2486 1.366 . S
C2487 C2491 1.385 . S
C2488 H2469 0.951 . S
C2488 C2486 1.388 . S
C2488 C2489 1.366 . S
C2489 C2488 1.366 . S
C2489 C2490 1.414 . S
C2489 C2492 1.499 . S
C2490 H2470 0.950 . S
C2490 C2489 1.414 . S
C2490 C2491 1.374 . S
C2491 H2471 0.950 . S
C2491 C2487 1.385 . S
C2491 C2490 1.374 . S
C2492 C2489 1.499 . S
C2492 C2493 1.373 . S
C2492 C2494 1.389 . S
C2493 H2472 0.950 . S
C2493 C2492 1.373 . S
C2493 C2509 1.377 . S
C2494 C2492 1.389 . S
C2494 C2495 1.524 . S
C2494 C2508 1.377 . S
C2495 C2494 1.524 . S
C2495 C2496 1.397 . S
C2495 C2500 1.363 . S
C2496 H2473 0.950 . S
C2496 C2495 1.397 . S
C2496 C2497 1.334 . S
C2497 H2474 0.950 . S
C2497 C2496 1.334 . S
C2497 C2498 1.287 . S
C2498 C2497 1.287 . S
C2498 C2499 1.524 . S
C2498 H2517 0.913 . S
C2499 H2475 0.950 . S
C2499 C2498 1.524 . S
C2499 C2500 1.415 . S
C2500 H2476 0.950 . S
C2500 C2495 1.363 . S
C2500 C2499 1.415 . S
C2501 H2477 0.951 . S
C2501 C2502 1.366 . S
C2501 C2503 1.388 . S
C2502 C2501 1.366 . S
C2502 C2506 1.385 . S
C2503 H2478 0.951 . S
C2503 C2501 1.388 . S
C2503 C2504 1.366 . S
C2504 C2503 1.366 . S
C2504 C2505 1.414 . S
C2504 C2507 1.499 . S
C2505 H2479 0.950 . S
C2505 C2504 1.414 . S
C2505 C2506 1.374 . S
C2506 H2480 0.950 . S
C2506 C2502 1.385 . S
C2506 C2505 1.374 . S
C2507 C2504 1.499 . S
C2507 C2508 1.373 . S
C2507 C2509 1.389 . S
C2508 H2481 0.950 . S
C2508 C2494 1.377 . S
C2508 C2507 1.373 . S
C2509 C2493 1.377 . S
C2509 C2507 1.389 . S
C2509 C2510 1.524 . S
C2510 C2509 1.524 . S
C2510 C2511 1.397 . S
C2510 C2515 1.363 . S
C2511 H2482 0.950 . S
C2511 C2510 1.397 . S
C2511 C2512 1.334 . S
C2512 H2483 0.950 . S
C2512 C2511 1.334 . S
C2512 C2513 1.287 . S
C2513 C2512 1.287 . S
C2513 C2514 1.524 . S
C2513 H2516 0.999 . S
C2514 H2484 0.950 . S
C2514 C2513 1.524 . S
C2514 C2515 1.415 . S
C2515 H2485 0.950 . S
C2515 C2510 1.363 . S
C2515 C2514 1.415 . S
H2516 C2513 0.999 . S
H2517 C2498 0.913 . S
H2518 C2536 0.951 . S
H2519 C2538 0.951 . S
H2520 C2540 0.950 . S
H2521 C2541 0.950 . S
H2522 C2543 0.950 . S
H2523 C2546 0.950 . S
H2524 C2547 0.950 . S
H2525 C2549 0.950 . S
H2526 C2550 0.950 . S
H2527 C2551 0.951 . S
H2528 C2553 0.951 . S
H2529 C2555 0.950 . S
H2530 C2556 0.950 . S
H2531 C2558 0.950 . S
H2532 C2561 0.950 . S
H2533 C2562 0.950 . S
H2534 C2564 0.950 . S
H2535 C2565 0.950 1_565 S
C2536 H2518 0.951 . S
C2536 C2537 1.366 . S
C2536 C2538 1.388 . S
C2537 C2536 1.366 . S
C2537 C2541 1.385 . S
C2538 H2519 0.951 . S
C2538 C2536 1.388 . S
C2538 C2539 1.366 . S
C2539 C2538 1.366 . S
C2539 C2540 1.414 . S
C2539 C2542 1.499 . S
C2540 H2520 0.950 . S
C2540 C2539 1.414 . S
C2540 C2541 1.374 . S
C2541 H2521 0.950 . S
C2541 C2537 1.385 . S
C2541 C2540 1.374 . S
C2542 C2539 1.499 . S
C2542 C2543 1.373 . S
C2542 C2544 1.389 1_565 S
C2543 H2522 0.950 . S
C2543 C2542 1.373 . S
C2543 C2559 1.377 1_565 S
C2544 C2542 1.389 1_545 S
C2544 C2545 1.493 1_545 S
C2544 C2558 1.377 . S
C2545 C2544 1.493 1_565 S
C2545 C2546 1.438 . S
C2545 C2550 1.352 1_565 S
C2546 H2523 0.950 . S
C2546 C2545 1.438 . S
C2546 C2547 1.334 . S
C2547 H2524 0.950 . S
C2547 C2546 1.334 . S
C2547 C2548 1.287 . S
C2548 C2547 1.287 . S
C2548 C2549 1.524 1_565 S
C2548 H2567 0.913 . S
C2549 H2525 0.950 . S
C2549 C2548 1.524 1_545 S
C2549 C2550 1.415 . S
C2550 H2526 0.950 . S
C2550 C2545 1.352 1_545 S
C2550 C2549 1.415 . S
C2551 H2527 0.951 . S
C2551 C2552 1.366 . S
C2551 C2553 1.388 . S
C2552 C2551 1.366 . S
C2552 C2556 1.385 . S
C2553 H2528 0.951 . S
C2553 C2551 1.388 . S
C2553 C2554 1.366 . S
C2554 C2553 1.366 . S
C2554 C2555 1.414 . S
C2554 C2557 1.499 . S
C2555 H2529 0.950 . S
C2555 C2554 1.414 . S
C2555 C2556 1.374 . S
C2556 H2530 0.950 . S
C2556 C2552 1.385 . S
C2556 C2555 1.374 . S
C2557 C2554 1.499 . S
C2557 C2558 1.373 . S
C2557 C2559 1.389 . S
C2558 H2531 0.950 . S
C2558 C2544 1.377 . S
C2558 C2557 1.373 . S
C2559 C2543 1.377 1_545 S
C2559 C2557 1.389 . S
C2559 C2560 1.524 . S
C2560 C2559 1.524 . S
C2560 C2561 1.397 . S
C2560 C2565 1.363 . S
C2561 H2532 0.950 . S
C2561 C2560 1.397 . S
C2561 C2562 1.334 . S
C2562 H2533 0.950 . S
C2562 C2561 1.334 . S
C2562 C2563 1.287 . S
C2563 C2562 1.287 . S
C2563 C2564 1.524 . S
C2563 H2566 0.999 . S
C2564 H2534 0.950 . S
C2564 C2563 1.524 . S
C2564 C2565 1.415 . S
C2565 H2535 0.950 1_545 S
C2565 C2560 1.363 . S
C2565 C2564 1.415 . S
H2566 C2563 0.999 . S
H2567 C2548 0.913 . S
H2568 C2586 0.951 . S
H2569 C2588 0.951 . S
H2570 C2590 0.950 . S
H2571 C2591 0.950 . S
H2572 C2593 0.950 . S
H2573 C2596 0.950 . S
H2574 C2597 0.950 . S
H2575 C2599 0.950 . S
H2576 C2600 0.950 . S
H2577 C2601 0.951 . S
H2578 C2603 0.951 . S
H2579 C2605 0.950 . S
H2580 C2606 0.950 . S
H2581 C2608 0.950 . S
H2582 C2611 0.950 . S
H2583 C2612 0.950 . S
H2584 C2614 0.950 . S
H2585 C2615 0.950 . S
C2586 H2568 0.951 . S
C2586 C2587 1.366 . S
C2586 C2588 1.388 . S
C2587 C2586 1.366 . S
C2587 C2591 1.385 . S
C2588 H2569 0.951 . S
C2588 C2586 1.388 . S
C2588 C2589 1.366 . S
C2589 C2588 1.366 . S
C2589 C2590 1.414 . S
C2589 C2592 1.499 . S
C2590 H2570 0.950 . S
C2590 C2589 1.414 . S
C2590 C2591 1.374 . S
C2591 H2571 0.950 . S
C2591 C2587 1.385 . S
C2591 C2590 1.374 . S
C2592 C2589 1.499 . S
C2592 C2593 1.373 . S
C2592 C2594 1.389 . S
C2593 H2572 0.950 . S
C2593 C2592 1.373 . S
C2593 C2609 1.377 . S
C2594 C2592 1.389 . S
C2594 C2595 1.524 . S
C2594 C2608 1.377 . S
C2595 C2594 1.524 . S
C2595 C2596 1.397 . S
C2595 C2600 1.363 . S
C2596 H2573 0.950 . S
C2596 C2595 1.397 . S
C2596 C2597 1.334 . S
C2597 H2574 0.950 . S
C2597 C2596 1.334 . S
C2597 C2598 1.287 . S
C2598 C2597 1.287 . S
C2598 C2599 1.524 . S
C2598 H2617 0.913 . S
C2599 H2575 0.950 . S
C2599 C2598 1.524 . S
C2599 C2600 1.415 . S
C2600 H2576 0.950 . S
C2600 C2595 1.363 . S
C2600 C2599 1.415 . S
C2601 H2577 0.951 . S
C2601 C2602 1.366 . S
C2601 C2603 1.388 . S
C2602 C2601 1.366 . S
C2602 C2606 1.385 . S
C2603 H2578 0.951 . S
C2603 C2601 1.388 . S
C2603 C2604 1.366 . S
C2604 C2603 1.366 . S
C2604 C2605 1.414 . S
C2604 C2607 1.499 . S
C2605 H2579 0.950 . S
C2605 C2604 1.414 . S
C2605 C2606 1.374 . S
C2606 H2580 0.950 . S
C2606 C2602 1.385 . S
C2606 C2605 1.374 . S
C2607 C2604 1.499 . S
C2607 C2608 1.373 . S
C2607 C2609 1.389 . S
C2608 H2581 0.950 . S
C2608 C2594 1.377 . S
C2608 C2607 1.373 . S
C2609 C2593 1.377 . S
C2609 C2607 1.389 . S
C2609 C2610 1.524 . S
C2610 C2609 1.524 . S
C2610 C2611 1.397 . S
C2610 C2615 1.363 . S
C2611 H2582 0.950 . S
C2611 C2610 1.397 . S
C2611 C2612 1.334 . S
C2612 H2583 0.950 . S
C2612 C2611 1.334 . S
C2612 C2613 1.287 . S
C2613 C2612 1.287 . S
C2613 C2614 1.524 . S
C2613 H2616 0.999 . S
C2614 H2584 0.950 . S
C2614 C2613 1.524 . S
C2614 C2615 1.415 . S
C2615 H2585 0.950 . S
C2615 C2610 1.363 . S
C2615 C2614 1.415 . S
H2616 C2613 0.999 . S
H2617 C2598 0.913 . S
H2618 C2636 0.951 . S
H2619 C2638 0.951 . S
H2620 C2640 0.950 . S
H2621 C2641 0.950 . S
H2622 C2643 0.950 . S
H2623 C2646 0.950 . S
H2624 C2647 0.950 . S
H2625 C2649 0.950 . S
H2626 C2650 0.950 . S
H2627 C2651 0.951 . S
H2628 C2653 0.951 . S
H2629 C2655 0.950 . S
H2630 C2656 0.950 . S
H2631 C2658 0.950 . S
H2632 C2661 0.950 . S
H2633 C2662 0.950 . S
H2634 C2664 0.950 . S
H2635 C2665 0.950 . S
C2636 H2618 0.951 . S
C2636 C2637 1.366 . S
C2636 C2638 1.388 . S
C2637 C2636 1.366 . S
C2637 C2641 1.385 . S
C2638 H2619 0.951 . S
C2638 C2636 1.388 . S
C2638 C2639 1.366 . S
C2639 C2638 1.366 . S
C2639 C2640 1.414 . S
C2639 C2642 1.499 . S
C2640 H2620 0.950 . S
C2640 C2639 1.414 . S
C2640 C2641 1.374 . S
C2641 H2621 0.950 . S
C2641 C2637 1.385 . S
C2641 C2640 1.374 . S
C2642 C2639 1.499 . S
C2642 C2643 1.373 . S
C2642 C2644 1.389 . S
C2643 H2622 0.950 . S
C2643 C2642 1.373 . S
C2643 C2659 1.377 . S
C2644 C2642 1.389 . S
C2644 C2645 1.524 . S
C2644 C2658 1.377 . S
C2645 C2644 1.524 . S
C2645 C2646 1.397 . S
C2645 C2650 1.363 . S
C2646 H2623 0.950 . S
C2646 C2645 1.397 . S
C2646 C2647 1.334 . S
C2647 H2624 0.950 . S
C2647 C2646 1.334 . S
C2647 C2648 1.287 . S
C2648 C2647 1.287 . S
C2648 C2649 1.524 . S
C2648 H2667 0.913 . S
C2649 H2625 0.950 . S
C2649 C2648 1.524 . S
C2649 C2650 1.415 . S
C2650 H2626 0.950 . S
C2650 C2645 1.363 . S
C2650 C2649 1.415 . S
C2651 H2627 0.951 . S
C2651 C2652 1.366 . S
C2651 C2653 1.388 . S
C2652 C2651 1.366 . S
C2652 C2656 1.385 . S
C2653 H2628 0.951 . S
C2653 C2651 1.388 . S
C2653 C2654 1.366 . S
C2654 C2653 1.366 . S
C2654 C2655 1.414 . S
C2654 C2657 1.499 . S
C2655 H2629 0.950 . S
C2655 C2654 1.414 . S
C2655 C2656 1.374 . S
C2656 H2630 0.950 . S
C2656 C2652 1.385 . S
C2656 C2655 1.374 . S
C2657 C2654 1.499 . S
C2657 C2658 1.373 . S
C2657 C2659 1.389 . S
C2658 H2631 0.950 . S
C2658 C2644 1.377 . S
C2658 C2657 1.373 . S
C2659 C2643 1.377 . S
C2659 C2657 1.389 . S
C2659 C2660 1.524 . S
C2660 C2659 1.524 . S
C2660 C2661 1.397 . S
C2660 C2665 1.363 . S
C2661 H2632 0.950 . S
C2661 C2660 1.397 . S
C2661 C2662 1.334 . S
C2662 H2633 0.950 . S
C2662 C2661 1.334 . S
C2662 C2663 1.287 . S
C2663 C2662 1.287 . S
C2663 C2664 1.524 . S
C2663 H2666 0.999 . S
C2664 H2634 0.950 . S
C2664 C2663 1.524 . S
C2664 C2665 1.415 . S
C2665 H2635 0.950 . S
C2665 C2660 1.363 . S
C2665 C2664 1.415 . S
H2666 C2663 0.999 . S
H2667 C2648 0.913 . S
H2668 C2686 0.951 . S
H2669 C2688 0.951 . S
H2670 C2690 0.950 . S
H2671 C2691 0.950 . S
H2672 C2693 0.950 . S
H2673 C2696 0.950 . S
H2674 C2697 0.950 . S
H2675 C2699 0.950 . S
H2676 C2700 0.950 . S
H2677 C2701 0.951 . S
H2678 C2703 0.951 . S
H2679 C2705 0.950 . S
H2680 C2706 0.950 . S
H2681 C2708 0.950 . S
H2682 C2711 0.950 . S
H2683 C2712 0.950 . S
H2684 C2714 0.950 . S
H2685 C2715 0.950 . S
C2686 H2668 0.951 . S
C2686 C2687 1.366 . S
C2686 C2688 1.388 . S
C2687 C2686 1.366 . S
C2687 C2691 1.385 . S
C2688 H2669 0.951 . S
C2688 C2686 1.388 . S
C2688 C2689 1.366 . S
C2689 C2688 1.366 . S
C2689 C2690 1.414 . S
C2689 C2692 1.499 . S
C2690 H2670 0.950 . S
C2690 C2689 1.414 . S
C2690 C2691 1.374 . S
C2691 H2671 0.950 . S
C2691 C2687 1.385 . S
C2691 C2690 1.374 . S
C2692 C2689 1.499 . S
C2692 C2693 1.373 . S
C2692 C2694 1.389 . S
C2693 H2672 0.950 . S
C2693 C2692 1.373 . S
C2693 C2709 1.377 . S
C2694 C2692 1.389 . S
C2694 C2695 1.524 . S
C2694 C2708 1.377 . S
C2695 C2694 1.524 . S
C2695 C2696 1.397 . S
C2695 C2700 1.363 . S
C2696 H2673 0.950 . S
C2696 C2695 1.397 . S
C2696 C2697 1.334 . S
C2697 H2674 0.950 . S
C2697 C2696 1.334 . S
C2697 C2698 1.287 . S
C2698 C2697 1.287 . S
C2698 C2699 1.524 . S
C2698 H2717 0.913 . S
C2699 H2675 0.950 . S
C2699 C2698 1.524 . S
C2699 C2700 1.415 . S
C2700 H2676 0.950 . S
C2700 C2695 1.363 . S
C2700 C2699 1.415 . S
C2701 H2677 0.951 . S
C2701 C2702 1.366 . S
C2701 C2703 1.388 . S
C2702 C2701 1.366 . S
C2702 C2706 1.385 . S
C2703 H2678 0.951 . S
C2703 C2701 1.388 . S
C2703 C2704 1.366 . S
C2704 C2703 1.366 . S
C2704 C2705 1.414 . S
C2704 C2707 1.499 . S
C2705 H2679 0.950 . S
C2705 C2704 1.414 . S
C2705 C2706 1.374 . S
C2706 H2680 0.950 . S
C2706 C2702 1.385 . S
C2706 C2705 1.374 . S
C2707 C2704 1.499 . S
C2707 C2708 1.373 . S
C2707 C2709 1.389 . S
C2708 H2681 0.950 . S
C2708 C2694 1.377 . S
C2708 C2707 1.373 . S
C2709 C2693 1.377 . S
C2709 C2707 1.389 . S
C2709 C2710 1.524 . S
C2710 C2709 1.524 . S
C2710 C2711 1.397 . S
C2710 C2715 1.363 . S
C2711 H2682 0.950 . S
C2711 C2710 1.397 . S
C2711 C2712 1.334 . S
C2712 H2683 0.950 . S
C2712 C2711 1.334 . S
C2712 C2713 1.287 . S
C2713 C2712 1.287 . S
C2713 C2714 1.524 . S
C2713 H2716 0.999 . S
C2714 H2684 0.950 . S
C2714 C2713 1.524 . S
C2714 C2715 1.415 . S
C2715 H2685 0.950 . S
C2715 C2710 1.363 . S
C2715 C2714 1.415 . S
H2716 C2713 0.999 . S
H2717 C2698 0.913 . S
H2718 C2736 0.951 . S
H2719 C2738 0.951 . S
H2720 C2740 0.950 . S
H2721 C2741 0.950 . S
H2722 C2743 0.950 . S
H2723 C2746 0.950 . S
H2724 C2747 0.950 . S
H2725 C2749 0.950 . S
H2726 C2750 0.950 . S
H2727 C2751 0.951 . S
H2728 C2753 0.951 . S
H2729 C2755 0.950 . S
H2730 C2756 0.950 . S
H2731 C2758 0.950 . S
H2732 C2761 0.950 1_565 S
H2733 C2762 0.950 . S
H2734 C2764 0.950 . S
H2735 C2765 0.963 . S
C2736 H2718 0.951 . S
C2736 C2737 1.366 . S
C2736 C2738 1.388 . S
C2737 C2736 1.366 . S
C2737 C2741 1.385 . S
C2738 H2719 0.951 . S
C2738 C2736 1.388 . S
C2738 C2739 1.366 . S
C2739 C2738 1.366 . S
C2739 C2740 1.414 . S
C2739 C2742 1.499 . S
C2740 H2720 0.950 . S
C2740 C2739 1.414 . S
C2740 C2741 1.374 . S
C2741 H2721 0.950 . S
C2741 C2737 1.385 . S
C2741 C2740 1.374 . S
C2742 C2739 1.499 . S
C2742 C2743 1.373 . S
C2742 C2744 1.389 . S
C2743 H2722 0.950 . S
C2743 C2742 1.373 . S
C2743 C2759 1.377 . S
C2744 C2742 1.389 . S
C2744 C2745 1.524 . S
C2744 C2758 1.377 . S
C2745 C2744 1.524 . S
C2745 C2746 1.397 . S
C2745 C2750 1.363 . S
C2746 H2723 0.950 . S
C2746 C2745 1.397 . S
C2746 C2747 1.334 . S
C2747 H2724 0.950 . S
C2747 C2746 1.334 . S
C2747 C2748 1.287 . S
C2748 C2747 1.287 . S
C2748 C2749 1.524 . S
C2748 H2767 0.913 . S
C2749 H2725 0.950 . S
C2749 C2748 1.524 . S
C2749 C2750 1.415 . S
C2750 H2726 0.950 . S
C2750 C2745 1.363 . S
C2750 C2749 1.415 . S
C2751 H2727 0.951 . S
C2751 C2752 1.366 . S
C2751 C2753 1.388 . S
C2752 C2751 1.366 . S
C2752 C2756 1.385 . S
C2753 H2728 0.951 . S
C2753 C2751 1.388 . S
C2753 C2754 1.366 . S
C2754 C2753 1.366 . S
C2754 C2755 1.414 . S
C2754 C2757 1.499 . S
C2755 H2729 0.950 . S
C2755 C2754 1.414 . S
C2755 C2756 1.374 . S
C2756 H2730 0.950 . S
C2756 C2752 1.385 . S
C2756 C2755 1.374 . S
C2757 C2754 1.499 . S
C2757 C2758 1.373 . S
C2757 C2759 1.389 . S
C2758 H2731 0.950 . S
C2758 C2744 1.377 . S
C2758 C2757 1.373 . S
C2759 C2743 1.377 . S
C2759 C2757 1.389 . S
C2759 C2760 1.524 . S
C2760 C2759 1.524 . S
C2760 C2761 1.397 1_565 S
C2760 C2765 1.363 1_565 S
C2761 H2732 0.950 1_545 S
C2761 C2760 1.397 1_545 S
C2761 C2762 1.334 . S
C2762 H2733 0.950 . S
C2762 C2761 1.334 . S
C2762 C2763 1.287 . S
C2763 C2762 1.287 . S
C2763 C2764 1.524 . S
C2763 H2766 0.999 . S
C2764 H2734 0.950 . S
C2764 C2763 1.524 . S
C2764 C2765 1.415 . S
C2765 H2735 0.963 . S
C2765 C2760 1.363 1_545 S
C2765 C2764 1.415 . S
H2766 C2763 0.999 . S
H2767 C2748 0.913 . S
H2768 C2786 0.951 . S
H2769 C2788 0.951 . S
H2770 C2790 0.950 . S
H2771 C2791 0.950 . S
H2772 C2793 0.950 . S
H2773 C2796 0.950 . S
H2774 C2797 0.950 . S
H2775 C2799 0.950 . S
H2776 C2800 0.950 . S
H2777 C2801 0.951 1_655 S
H2778 C2803 0.937 1_655 S
H2779 C2805 0.950 . S
H2780 C2806 0.950 . S
H2781 C2808 0.950 . S
H2782 C2811 0.950 . S
H2783 C2812 0.950 . S
H2784 C2814 0.950 . S
H2785 C2815 0.950 . S
C2786 H2768 0.951 . S
C2786 C2787 1.366 . S
C2786 C2788 1.388 . S
C2787 C2786 1.366 . S
C2787 C2791 1.385 . S
C2788 H2769 0.951 . S
C2788 C2786 1.388 . S
C2788 C2789 1.366 . S
C2789 C2788 1.366 . S
C2789 C2790 1.414 . S
C2789 C2792 1.499 . S
C2790 H2770 0.950 . S
C2790 C2789 1.414 . S
C2790 C2791 1.374 . S
C2791 H2771 0.950 . S
C2791 C2787 1.385 . S
C2791 C2790 1.374 . S
C2792 C2789 1.499 . S
C2792 C2793 1.373 . S
C2792 C2794 1.389 . S
C2793 H2772 0.950 . S
C2793 C2792 1.373 . S
C2793 C2809 1.377 . S
C2794 C2792 1.389 . S
C2794 C2795 1.524 . S
C2794 C2808 1.377 . S
C2795 C2794 1.524 . S
C2795 C2796 1.397 . S
C2795 C2800 1.363 . S
C2796 H2773 0.950 . S
C2796 C2795 1.397 . S
C2796 C2797 1.334 . S
C2797 H2774 0.950 . S
C2797 C2796 1.334 . S
C2797 C2798 1.287 . S
C2798 C2797 1.287 . S
C2798 C2799 1.524 . S
C2798 H2817 0.913 . S
C2799 H2775 0.950 . S
C2799 C2798 1.524 . S
C2799 C2800 1.415 . S
C2800 H2776 0.950 . S
C2800 C2795 1.363 . S
C2800 C2799 1.415 . S
C2801 H2777 0.951 1_455 S
C2801 C2802 1.366 . S
C2801 C2803 1.388 . S
C2802 C2801 1.366 . S
C2802 C2806 1.385 . S
C2803 H2778 0.937 1_455 S
C2803 C2801 1.388 . S
C2803 C2804 1.366 . S
C2804 C2803 1.366 . S
C2804 C2805 1.414 . S
C2804 C2807 1.499 . S
C2805 H2779 0.950 . S
C2805 C2804 1.414 . S
C2805 C2806 1.374 . S
C2806 H2780 0.950 . S
C2806 C2802 1.385 . S
C2806 C2805 1.374 . S
C2807 C2804 1.499 . S
C2807 C2808 1.373 . S
C2807 C2809 1.389 . S
C2808 H2781 0.950 . S
C2808 C2794 1.377 . S
C2808 C2807 1.373 . S
C2809 C2793 1.377 . S
C2809 C2807 1.389 . S
C2809 C2810 1.524 . S
C2810 C2809 1.524 . S
C2810 C2811 1.397 . S
C2810 C2815 1.363 1_455 S
C2811 H2782 0.950 . S
C2811 C2810 1.397 . S
C2811 C2812 1.334 . S
C2812 H2783 0.950 . S
C2812 C2811 1.334 . S
C2812 C2813 1.287 1_455 S
C2813 C2812 1.287 1_655 S
C2813 C2814 1.524 . S
C2813 H2816 0.999 . S
C2814 H2784 0.950 . S
C2814 C2813 1.524 . S
C2814 C2815 1.415 . S
C2815 H2785 0.950 . S
C2815 C2810 1.363 1_655 S
C2815 C2814 1.415 . S
H2816 C2813 0.999 . S
H2817 C2798 0.913 . S
H2818 C2836 0.951 . S
H2819 C2838 0.951 . S
H2820 C2840 0.950 . S
H2821 C2841 0.950 . S
H2822 C2843 0.950 . S
H2823 C2846 0.950 . S
H2824 C2847 0.950 . S
H2825 C2849 0.950 . S
H2826 C2850 0.950 . S
H2827 C2851 0.951 . S
H2828 C2853 0.951 . S
H2829 C2855 0.950 . S
H2830 C2856 0.950 . S
H2831 C2858 0.950 . S
H2832 C2861 0.950 . S
H2833 C2862 0.950 . S
H2834 C2864 0.950 . S
H2835 C2865 0.950 . S
C2836 H2818 0.951 . S
C2836 C2837 1.366 . S
C2836 C2838 1.388 . S
C2837 C2836 1.366 . S
C2837 C2841 1.385 . S
C2838 H2819 0.951 . S
C2838 C2836 1.388 . S
C2838 C2839 1.366 . S
C2839 C2838 1.366 . S
C2839 C2840 1.414 . S
C2839 C2842 1.499 . S
C2840 H2820 0.950 . S
C2840 C2839 1.414 . S
C2840 C2841 1.374 . S
C2841 H2821 0.950 . S
C2841 C2837 1.385 . S
C2841 C2840 1.374 . S
C2842 C2839 1.499 . S
C2842 C2843 1.373 . S
C2842 C2844 1.389 . S
C2843 H2822 0.950 . S
C2843 C2842 1.373 . S
C2843 C2859 1.377 . S
C2844 C2842 1.389 . S
C2844 C2845 1.524 . S
C2844 C2858 1.377 . S
C2845 C2844 1.524 . S
C2845 C2846 1.397 . S
C2845 C2850 1.363 . S
C2846 H2823 0.950 . S
C2846 C2845 1.397 . S
C2846 C2847 1.334 . S
C2847 H2824 0.950 . S
C2847 C2846 1.334 . S
C2847 C2848 1.287 . S
C2848 C2847 1.287 . S
C2848 C2849 1.524 . S
C2848 H2867 0.913 . S
C2849 H2825 0.950 . S
C2849 C2848 1.524 . S
C2849 C2850 1.415 . S
C2850 H2826 0.950 . S
C2850 C2845 1.363 . S
C2850 C2849 1.415 . S
C2851 H2827 0.951 . S
C2851 C2852 1.366 . S
C2851 C2853 1.388 . S
C2852 C2851 1.366 . S
C2852 C2856 1.385 . S
C2853 H2828 0.951 . S
C2853 C2851 1.388 . S
C2853 C2854 1.366 . S
C2854 C2853 1.366 . S
C2854 C2855 1.414 . S
C2854 C2857 1.499 . S
C2855 H2829 0.950 . S
C2855 C2854 1.414 . S
C2855 C2856 1.374 . S
C2856 H2830 0.950 . S
C2856 C2852 1.385 . S
C2856 C2855 1.374 . S
C2857 C2854 1.499 . S
C2857 C2858 1.373 . S
C2857 C2859 1.389 . S
C2858 H2831 0.950 . S
C2858 C2844 1.377 . S
C2858 C2857 1.373 . S
C2859 C2843 1.377 . S
C2859 C2857 1.389 . S
C2859 C2860 1.524 . S
C2860 C2859 1.524 . S
C2860 C2861 1.397 . S
C2860 C2865 1.363 . S
C2861 H2832 0.950 . S
C2861 C2860 1.397 . S
C2861 C2862 1.334 . S
C2862 H2833 0.950 . S
C2862 C2861 1.334 . S
C2862 C2863 1.287 . S
C2863 C2862 1.287 . S
C2863 C2864 1.524 . S
C2863 H2866 0.999 . S
C2864 H2834 0.950 . S
C2864 C2863 1.524 . S
C2864 C2865 1.415 . S
C2865 H2835 0.950 . S
C2865 C2860 1.363 . S
C2865 C2864 1.415 . S
H2866 C2863 0.999 . S
H2867 C2848 0.913 . S
H2868 C2886 0.951 . S
H2869 C2888 0.951 . S
H2870 C2890 0.950 . S
H2871 C2891 0.950 . S
H2872 C2893 0.950 . S
H2873 C2896 0.950 . S
H2874 C2897 0.950 . S
H2875 C2899 0.950 . S
H2876 C2900 0.950 . S
H2877 C2901 0.951 . S
H2878 C2903 0.951 . S
H2879 C2905 0.950 . S
H2880 C2906 0.950 . S
H2881 C2908 0.950 . S
H2882 C2911 0.950 . S
H2883 C2912 0.950 . S
H2884 C2914 0.950 . S
H2885 C2915 0.950 . S
C2886 H2868 0.951 . S
C2886 C2887 1.366 . S
C2886 C2888 1.388 . S
C2887 C2886 1.366 . S
C2887 C2891 1.385 . S
C2888 H2869 0.951 . S
C2888 C2886 1.388 . S
C2888 C2889 1.366 . S
C2889 C2888 1.366 . S
C2889 C2890 1.414 . S
C2889 C2892 1.499 . S
C2890 H2870 0.950 . S
C2890 C2889 1.414 . S
C2890 C2891 1.374 . S
C2891 H2871 0.950 . S
C2891 C2887 1.385 . S
C2891 C2890 1.374 . S
C2892 C2889 1.499 . S
C2892 C2893 1.373 . S
C2892 C2894 1.389 . S
C2893 H2872 0.950 . S
C2893 C2892 1.373 . S
C2893 C2909 1.377 . S
C2894 C2892 1.389 . S
C2894 C2895 1.524 . S
C2894 C2908 1.377 . S
C2895 C2894 1.524 . S
C2895 C2896 1.397 . S
C2895 C2900 1.363 1_655 S
C2896 H2873 0.950 . S
C2896 C2895 1.397 . S
C2896 C2897 1.334 1_655 S
C2897 H2874 0.950 . S
C2897 C2896 1.334 1_455 S
C2897 C2898 1.287 . S
C2898 C2897 1.287 . S
C2898 C2899 1.524 . S
C2898 H2917 0.913 . S
C2899 H2875 0.950 . S
C2899 C2898 1.524 . S
C2899 C2900 1.415 . S
C2900 H2876 0.950 . S
C2900 C2895 1.363 1_455 S
C2900 C2899 1.415 . S
C2901 H2877 0.951 . S
C2901 C2902 1.366 . S
C2901 C2903 1.388 . S
C2902 C2901 1.366 . S
C2902 C2906 1.385 . S
C2903 H2878 0.951 . S
C2903 C2901 1.388 . S
C2903 C2904 1.366 . S
C2904 C2903 1.366 . S
C2904 C2905 1.414 . S
C2904 C2907 1.499 . S
C2905 H2879 0.950 . S
C2905 C2904 1.414 . S
C2905 C2906 1.374 . S
C2906 H2880 0.950 . S
C2906 C2902 1.385 . S
C2906 C2905 1.374 . S
C2907 C2904 1.499 . S
C2907 C2908 1.373 . S
C2907 C2909 1.389 . S
C2908 H2881 0.950 . S
C2908 C2894 1.377 . S
C2908 C2907 1.373 . S
C2909 C2893 1.377 . S
C2909 C2907 1.389 . S
C2909 C2910 1.524 . S
C2910 C2909 1.524 . S
C2910 C2911 1.397 . S
C2910 C2915 1.363 . S
C2911 H2882 0.950 . S
C2911 C2910 1.397 . S
C2911 C2912 1.334 . S
C2912 H2883 0.950 . S
C2912 C2911 1.334 . S
C2912 C2913 1.287 . S
C2913 C2912 1.287 . S
C2913 C2914 1.524 . S
C2913 H2916 0.999 . S
C2914 H2884 0.950 . S
C2914 C2913 1.524 . S
C2914 C2915 1.415 . S
C2915 H2885 0.950 . S
C2915 C2910 1.363 . S
C2915 C2914 1.415 . S
H2916 C2913 0.999 . S
H2917 C2898 0.913 . S
H2918 C2936 0.951 . S
H2919 C2938 0.951 . S
H2920 C2940 0.950 . S
H2921 C2941 0.950 . S
H2922 C2943 0.950 . S
H2923 C2946 0.950 . S
H2924 C2947 0.950 . S
H2925 C2949 0.950 . S
H2926 C2950 0.950 . S
H2927 C2951 0.951 . S
H2928 C2953 0.951 . S
H2929 C2955 0.950 . S
H2930 C2956 0.950 . S
H2931 C2958 0.950 . S
H2932 C2961 0.950 . S
H2933 C2962 0.950 . S
H2934 C2964 0.950 . S
H2935 C2965 0.950 . S
C2936 H2918 0.951 . S
C2936 C2937 1.366 . S
C2936 C2938 1.388 . S
C2937 C2936 1.366 . S
C2937 C2941 1.385 . S
C2938 H2919 0.951 . S
C2938 C2936 1.388 . S
C2938 C2939 1.366 . S
C2939 C2938 1.366 . S
C2939 C2940 1.414 . S
C2939 C2942 1.499 . S
C2940 H2920 0.950 . S
C2940 C2939 1.414 . S
C2940 C2941 1.374 . S
C2941 H2921 0.950 . S
C2941 C2937 1.385 . S
C2941 C2940 1.374 . S
C2942 C2939 1.499 . S
C2942 C2943 1.373 . S
C2942 C2944 1.389 . S
C2943 H2922 0.950 . S
C2943 C2942 1.373 . S
C2943 C2959 1.377 . S
C2944 C2942 1.389 . S
C2944 C2945 1.524 . S
C2944 C2958 1.377 . S
C2945 C2944 1.524 . S
C2945 C2946 1.397 . S
C2945 C2950 1.363 . S
C2946 H2923 0.950 . S
C2946 C2945 1.397 . S
C2946 C2947 1.334 . S
C2947 H2924 0.950 . S
C2947 C2946 1.334 . S
C2947 C2948 1.287 . S
C2948 C2947 1.287 . S
C2948 C2949 1.524 . S
C2948 H2967 0.913 . S
C2949 H2925 0.950 . S
C2949 C2948 1.524 . S
C2949 C2950 1.415 . S
C2950 H2926 0.950 . S
C2950 C2945 1.363 . S
C2950 C2949 1.415 . S
C2951 H2927 0.951 . S
C2951 C2952 1.366 . S
C2951 C2953 1.388 . S
C2952 C2951 1.366 . S
C2952 C2956 1.385 . S
C2953 H2928 0.951 . S
C2953 C2951 1.388 . S
C2953 C2954 1.366 . S
C2954 C2953 1.366 . S
C2954 C2955 1.414 . S
C2954 C2957 1.499 . S
C2955 H2929 0.950 . S
C2955 C2954 1.414 . S
C2955 C2956 1.374 . S
C2956 H2930 0.950 . S
C2956 C2952 1.385 . S
C2956 C2955 1.374 . S
C2957 C2954 1.499 . S
C2957 C2958 1.373 . S
C2957 C2959 1.389 . S
C2958 H2931 0.950 . S
C2958 C2944 1.377 . S
C2958 C2957 1.373 . S
C2959 C2943 1.377 . S
C2959 C2957 1.389 . S
C2959 C2960 1.524 . S
C2960 C2959 1.524 . S
C2960 C2961 1.397 . S
C2960 C2965 1.363 . S
C2961 H2932 0.950 . S
C2961 C2960 1.397 . S
C2961 C2962 1.334 . S
C2962 H2933 0.950 . S
C2962 C2961 1.334 . S
C2962 C2963 1.287 . S
C2963 C2962 1.287 . S
C2963 C2964 1.524 . S
C2963 H2966 0.999 . S
C2964 H2934 0.950 . S
C2964 C2963 1.524 . S
C2964 C2965 1.415 . S
C2965 H2935 0.950 . S
C2965 C2960 1.363 . S
C2965 C2964 1.415 . S
H2966 C2963 0.999 . S
H2967 C2948 0.913 . S
H2968 C2986 0.951 . S
H2969 C2988 0.951 . S
H2970 C2990 0.950 . S
H2971 C2991 0.950 . S
H2972 C2993 0.950 . S
H2973 C2996 0.950 . S
H2974 C2997 0.950 . S
H2975 C2999 0.950 . S
H2976 C3000 0.950 . S
H2977 C3001 0.951 1_565 S
H2978 C3003 0.951 . S
H2979 C3005 0.950 . S
H2980 C3006 0.950 . S
H2981 C3008 0.950 . S
H2982 C3011 0.950 . S
H2983 C3012 0.950 . S
H2984 C3014 0.950 . S
H2985 C3015 0.950 . S
C2986 H2968 0.951 . S
C2986 C2987 1.366 . S
C2986 C2988 1.388 . S
C2987 C2986 1.366 . S
C2987 C2991 1.385 . S
C2988 H2969 0.951 . S
C2988 C2986 1.388 . S
C2988 C2989 1.366 . S
C2989 C2988 1.366 . S
C2989 C2990 1.414 . S
C2989 C2992 1.499 . S
C2990 H2970 0.950 . S
C2990 C2989 1.414 . S
C2990 C2991 1.374 . S
C2991 H2971 0.950 . S
C2991 C2987 1.385 . S
C2991 C2990 1.374 . S
C2992 C2989 1.499 . S
C2992 C2993 1.373 . S
C2992 C2994 1.389 . S
C2993 H2972 0.950 . S
C2993 C2992 1.373 . S
C2993 C3009 1.377 . S
C2994 C2992 1.389 . S
C2994 C2995 1.524 . S
C2994 C3008 1.377 . S
C2995 C2994 1.524 . S
C2995 C2996 1.397 . S
C2995 C3000 1.363 . S
C2996 H2973 0.950 . S
C2996 C2995 1.397 . S
C2996 C2997 1.334 . S
C2997 H2974 0.950 . S
C2997 C2996 1.334 . S
C2997 C2998 1.287 . S
C2998 C2997 1.287 . S
C2998 C2999 1.524 . S
C2998 H3017 0.913 . S
C2999 H2975 0.950 . S
C2999 C2998 1.524 . S
C2999 C3000 1.415 . S
C3000 H2976 0.950 . S
C3000 C2995 1.363 . S
C3000 C2999 1.415 . S
C3001 H2977 0.951 1_545 S
C3001 C3002 1.366 . S
C3001 C3003 1.388 . S
C3002 C3001 1.366 . S
C3002 C3006 1.385 . S
C3003 H2978 0.951 . S
C3003 C3001 1.388 . S
C3003 C3004 1.366 . S
C3004 C3003 1.366 . S
C3004 C3005 1.414 . S
C3004 C3007 1.499 . S
C3005 H2979 0.950 . S
C3005 C3004 1.414 . S
C3005 C3006 1.374 . S
C3006 H2980 0.950 . S
C3006 C3002 1.385 . S
C3006 C3005 1.374 . S
C3007 C3004 1.499 . S
C3007 C3008 1.373 . S
C3007 C3009 1.389 . S
C3008 H2981 0.950 . S
C3008 C2994 1.377 . S
C3008 C3007 1.373 . S
C3009 C2993 1.377 . S
C3009 C3007 1.389 . S
C3009 C3010 1.524 . S
C3010 C3009 1.524 . S
C3010 C3011 1.397 . S
C3010 C3015 1.363 1_545 S
C3011 H2982 0.950 . S
C3011 C3010 1.397 . S
C3011 C3012 1.334 1_545 S
C3012 H2983 0.950 . S
C3012 C3011 1.334 1_565 S
C3012 C3013 1.287 . S
C3013 C3012 1.287 . S
C3013 C3014 1.524 . S
C3013 H3016 0.999 . S
C3014 H2984 0.950 . S
C3014 C3013 1.524 . S
C3014 C3015 1.415 . S
C3015 H2985 0.950 . S
C3015 C3010 1.363 1_565 S
C3015 C3014 1.415 . S
H3016 C3013 0.999 . S
H3017 C2998 0.913 . S
H3018 C3036 0.951 . S
H3019 C3038 0.951 . S
H3020 C3040 0.950 . S
H3021 C3041 0.950 . S
H3022 C3043 0.950 . S
H3023 C3046 0.950 . S
H3024 C3047 0.950 . S
H3025 C3049 0.950 . S
H3026 C3050 0.950 . S
H3027 C3051 0.951 . S
H3028 C3053 0.951 . S
H3029 C3055 0.950 . S
H3030 C3056 0.950 . S
H3031 C3058 0.950 . S
H3032 C3061 0.950 . S
H3033 C3062 0.950 . S
H3034 C3064 0.950 . S
H3035 C3065 0.950 . S
C3036 H3018 0.951 . S
C3036 C3037 1.366 . S
C3036 C3038 1.388 . S
C3037 C3036 1.366 . S
C3037 C3041 1.385 . S
C3038 H3019 0.951 . S
C3038 C3036 1.388 . S
C3038 C3039 1.366 . S
C3039 C3038 1.366 . S
C3039 C3040 1.414 . S
C3039 C3042 1.499 . S
C3040 H3020 0.950 . S
C3040 C3039 1.414 . S
C3040 C3041 1.374 . S
C3041 H3021 0.950 . S
C3041 C3037 1.385 . S
C3041 C3040 1.374 . S
C3042 C3039 1.499 . S
C3042 C3043 1.373 . S
C3042 C3044 1.389 . S
C3043 H3022 0.950 . S
C3043 C3042 1.373 . S
C3043 C3059 1.377 . S
C3044 C3042 1.389 . S
C3044 C3045 1.524 . S
C3044 C3058 1.377 . S
C3045 C3044 1.524 . S
C3045 C3046 1.397 . S
C3045 C3050 1.363 . S
C3046 H3023 0.950 . S
C3046 C3045 1.397 . S
C3046 C3047 1.334 . S
C3047 H3024 0.950 . S
C3047 C3046 1.334 . S
C3047 C3048 1.287 . S
C3048 C3047 1.287 . S
C3048 C3049 1.524 . S
C3048 H3067 0.913 . S
C3049 H3025 0.950 . S
C3049 C3048 1.524 . S
C3049 C3050 1.415 . S
C3050 H3026 0.950 . S
C3050 C3045 1.363 . S
C3050 C3049 1.415 . S
C3051 H3027 0.951 . S
C3051 C3052 1.366 . S
C3051 C3053 1.388 . S
C3052 C3051 1.366 . S
C3052 C3056 1.385 . S
C3053 H3028 0.951 . S
C3053 C3051 1.388 . S
C3053 C3054 1.366 . S
C3054 C3053 1.366 . S
C3054 C3055 1.414 . S
C3054 C3057 1.499 . S
C3055 H3029 0.950 . S
C3055 C3054 1.414 . S
C3055 C3056 1.374 . S
C3056 H3030 0.950 . S
C3056 C3052 1.385 . S
C3056 C3055 1.374 . S
C3057 C3054 1.499 . S
C3057 C3058 1.373 . S
C3057 C3059 1.389 . S
C3058 H3031 0.950 . S
C3058 C3044 1.377 . S
C3058 C3057 1.373 . S
C3059 C3043 1.377 . S
C3059 C3057 1.389 . S
C3059 C3060 1.524 . S
C3060 C3059 1.524 . S
C3060 C3061 1.397 . S
C3060 C3065 1.363 . S
C3061 H3032 0.950 . S
C3061 C3060 1.397 . S
C3061 C3062 1.334 . S
C3062 H3033 0.950 . S
C3062 C3061 1.334 . S
C3062 C3063 1.287 . S
C3063 C3062 1.287 . S
C3063 C3064 1.524 . S
C3063 H3066 0.999 . S
C3064 H3034 0.950 . S
C3064 C3063 1.524 . S
C3064 C3065 1.415 . S
C3065 H3035 0.950 . S
C3065 C3060 1.363 . S
C3065 C3064 1.415 . S
H3066 C3063 0.999 . S
H3067 C3048 0.913 . S
H3068 C3086 0.951 . S
H3069 C3088 0.951 . S
H3070 C3090 0.950 . S
H3071 C3091 0.950 . S
H3072 C3093 0.950 . S
H3073 C3096 0.950 . S
H3074 C3097 0.950 . S
H3075 C3099 0.950 . S
H3076 C3100 0.950 . S
H3077 C3101 0.951 . S
H3078 C3103 0.951 . S
H3079 C3105 0.950 . S
H3080 C3106 0.950 . S
H3081 C3108 0.950 . S
H3082 C3111 0.950 . S
H3083 C3112 0.950 . S
H3084 C3114 0.950 . S
H3085 C3115 0.950 . S
C3086 H3068 0.951 . S
C3086 C3087 1.366 . S
C3086 C3088 1.388 . S
C3087 C3086 1.366 . S
C3087 C3091 1.385 . S
C3088 H3069 0.951 . S
C3088 C3086 1.388 . S
C3088 C3089 1.366 . S
C3089 C3088 1.366 . S
C3089 C3090 1.414 . S
C3089 C3092 1.499 . S
C3090 H3070 0.950 . S
C3090 C3089 1.414 . S
C3090 C3091 1.374 . S
C3091 H3071 0.950 . S
C3091 C3087 1.385 . S
C3091 C3090 1.374 . S
C3092 C3089 1.499 . S
C3092 C3093 1.373 . S
C3092 C3094 1.389 . S
C3093 H3072 0.950 . S
C3093 C3092 1.373 . S
C3093 C3109 1.377 . S
C3094 C3092 1.389 . S
C3094 C3095 1.524 . S
C3094 C3108 1.377 . S
C3095 C3094 1.524 . S
C3095 C3096 1.397 . S
C3095 C3100 1.363 . S
C3096 H3073 0.950 . S
C3096 C3095 1.397 . S
C3096 C3097 1.334 . S
C3097 H3074 0.950 . S
C3097 C3096 1.334 . S
C3097 C3098 1.287 . S
C3098 C3097 1.287 . S
C3098 C3099 1.524 . S
C3098 H3117 0.913 . S
C3099 H3075 0.950 . S
C3099 C3098 1.524 . S
C3099 C3100 1.415 . S
C3100 H3076 0.950 . S
C3100 C3095 1.363 . S
C3100 C3099 1.415 . S
C3101 H3077 0.951 . S
C3101 C3102 1.366 . S
C3101 C3103 1.388 . S
C3102 C3101 1.366 . S
C3102 C3106 1.385 . S
C3103 H3078 0.951 . S
C3103 C3101 1.388 . S
C3103 C3104 1.366 . S
C3104 C3103 1.366 . S
C3104 C3105 1.414 . S
C3104 C3107 1.499 . S
C3105 H3079 0.950 . S
C3105 C3104 1.414 . S
C3105 C3106 1.374 . S
C3106 H3080 0.950 . S
C3106 C3102 1.385 . S
C3106 C3105 1.374 . S
C3107 C3104 1.499 . S
C3107 C3108 1.373 . S
C3107 C3109 1.389 . S
C3108 H3081 0.950 . S
C3108 C3094 1.377 . S
C3108 C3107 1.373 . S
C3109 C3093 1.377 . S
C3109 C3107 1.389 . S
C3109 C3110 1.524 . S
C3110 C3109 1.524 . S
C3110 C3111 1.397 . S
C3110 C3115 1.363 . S
C3111 H3082 0.950 . S
C3111 C3110 1.397 . S
C3111 C3112 1.334 . S
C3112 H3083 0.950 . S
C3112 C3111 1.334 . S
C3112 C3113 1.287 . S
C3113 C3112 1.287 . S
C3113 C3114 1.524 . S
C3113 H3116 0.999 . S
C3114 H3084 0.950 . S
C3114 C3113 1.524 . S
C3114 C3115 1.415 . S
C3115 H3085 0.950 . S
C3115 C3110 1.363 . S
C3115 C3114 1.415 . S
H3116 C3113 0.999 . S
H3117 C3098 0.913 . S
H3118 C3136 0.951 . S
H3119 C3138 0.951 . S
H3120 C3140 0.950 . S
H3121 C3141 0.950 . S
H3122 C3143 0.950 . S
H3123 C3146 0.950 . S
H3124 C3147 0.950 . S
H3125 C3149 0.950 . S
H3126 C3150 0.950 . S
H3127 C3151 0.951 . S
H3128 C3153 0.951 . S
H3129 C3155 0.950 . S
H3130 C3156 0.950 . S
H3131 C3158 0.950 . S
H3132 C3161 0.950 . S
H3133 C3162 0.950 . S
H3134 C3164 0.950 . S
H3135 C3165 0.950 . S
C3136 H3118 0.951 . S
C3136 C3137 1.366 . S
C3136 C3138 1.388 . S
C3137 C3136 1.366 . S
C3137 C3141 1.385 . S
C3138 H3119 0.951 . S
C3138 C3136 1.388 . S
C3138 C3139 1.366 . S
C3139 C3138 1.366 . S
C3139 C3140 1.414 . S
C3139 C3142 1.499 . S
C3140 H3120 0.950 . S
C3140 C3139 1.414 . S
C3140 C3141 1.374 . S
C3141 H3121 0.950 . S
C3141 C3137 1.385 . S
C3141 C3140 1.374 . S
C3142 C3139 1.499 . S
C3142 C3143 1.373 . S
C3142 C3144 1.389 . S
C3143 H3122 0.950 . S
C3143 C3142 1.373 . S
C3143 C3159 1.377 . S
C3144 C3142 1.389 . S
C3144 C3145 1.524 . S
C3144 C3158 1.377 . S
C3145 C3144 1.524 . S
C3145 C3146 1.397 . S
C3145 C3150 1.363 . S
C3146 H3123 0.950 . S
C3146 C3145 1.397 . S
C3146 C3147 1.334 . S
C3147 H3124 0.950 . S
C3147 C3146 1.334 . S
C3147 C3148 1.287 . S
C3148 C3147 1.287 . S
C3148 C3149 1.524 . S
C3148 H3167 0.913 . S
C3149 H3125 0.950 . S
C3149 C3148 1.524 . S
C3149 C3150 1.415 . S
C3150 H3126 0.950 . S
C3150 C3145 1.363 . S
C3150 C3149 1.415 . S
C3151 H3127 0.951 . S
C3151 C3152 1.366 . S
C3151 C3153 1.388 . S
C3152 C3151 1.366 . S
C3152 C3156 1.385 . S
C3153 H3128 0.951 . S
C3153 C3151 1.388 . S
C3153 C3154 1.366 . S
C3154 C3153 1.366 . S
C3154 C3155 1.414 . S
C3154 C3157 1.499 . S
C3155 H3129 0.950 . S
C3155 C3154 1.414 . S
C3155 C3156 1.374 . S
C3156 H3130 0.950 . S
C3156 C3152 1.385 . S
C3156 C3155 1.374 . S
C3157 C3154 1.499 . S
C3157 C3158 1.373 . S
C3157 C3159 1.389 . S
C3158 H3131 0.950 . S
C3158 C3144 1.377 . S
C3158 C3157 1.373 . S
C3159 C3143 1.377 . S
C3159 C3157 1.389 . S
C3159 C3160 1.524 . S
C3160 C3159 1.524 . S
C3160 C3161 1.397 . S
C3160 C3165 1.363 . S
C3161 H3132 0.950 . S
C3161 C3160 1.397 . S
C3161 C3162 1.334 . S
C3162 H3133 0.950 . S
C3162 C3161 1.334 . S
C3162 C3163 1.287 . S
C3163 C3162 1.287 . S
C3163 C3164 1.524 . S
C3163 H3166 0.999 . S
C3164 H3134 0.950 . S
C3164 C3163 1.524 . S
C3164 C3165 1.415 . S
C3165 H3135 0.950 . S
C3165 C3160 1.363 . S
C3165 C3164 1.415 . S
H3166 C3163 0.999 . S
H3167 C3148 0.913 . S
H3168 C3186 0.951 . S
H3169 C3188 0.951 . S
H3170 C3190 0.950 . S
H3171 C3191 0.950 . S
H3172 C3193 0.950 . S
H3173 C3196 0.950 . S
H3174 C3197 0.950 . S
H3175 C3199 0.950 . S
H3176 C3200 0.950 . S
H3177 C3201 0.951 . S
H3178 C3203 0.951 . S
H3179 C3205 0.950 . S
H3180 C3206 0.950 . S
H3181 C3208 0.950 . S
H3182 C3211 0.950 . S
H3183 C3212 0.950 . S
H3184 C3214 0.950 . S
H3185 C3215 0.950 . S
C3186 H3168 0.951 . S
C3186 C3187 1.366 . S
C3186 C3188 1.388 . S
C3187 C3186 1.366 . S
C3187 C3191 1.385 . S
C3188 H3169 0.951 . S
C3188 C3186 1.388 . S
C3188 C3189 1.366 . S
C3189 C3188 1.366 . S
C3189 C3190 1.414 . S
C3189 C3192 1.499 . S
C3190 H3170 0.950 . S
C3190 C3189 1.414 . S
C3190 C3191 1.374 . S
C3191 H3171 0.950 . S
C3191 C3187 1.385 . S
C3191 C3190 1.374 . S
C3192 C3189 1.499 . S
C3192 C3193 1.373 . S
C3192 C3194 1.389 . S
C3193 H3172 0.950 . S
C3193 C3192 1.373 . S
C3193 C3209 1.377 . S
C3194 C3192 1.389 . S
C3194 C3195 1.524 . S
C3194 C3208 1.377 . S
C3195 C3194 1.524 . S
C3195 C3196 1.397 . S
C3195 C3200 1.363 . S
C3196 H3173 0.950 . S
C3196 C3195 1.397 . S
C3196 C3197 1.334 . S
C3197 H3174 0.950 . S
C3197 C3196 1.334 . S
C3197 C3198 1.287 . S
C3198 C3197 1.287 . S
C3198 C3199 1.524 . S
C3198 H3217 0.913 . S
C3199 H3175 0.950 . S
C3199 C3198 1.524 . S
C3199 C3200 1.415 . S
C3200 H3176 0.950 . S
C3200 C3195 1.363 . S
C3200 C3199 1.415 . S
C3201 H3177 0.951 . S
C3201 C3202 1.366 . S
C3201 C3203 1.388 . S
C3202 C3201 1.366 . S
C3202 C3206 1.385 . S
C3203 H3178 0.951 . S
C3203 C3201 1.388 . S
C3203 C3204 1.366 . S
C3204 C3203 1.366 . S
C3204 C3205 1.414 . S
C3204 C3207 1.499 . S
C3205 H3179 0.950 . S
C3205 C3204 1.414 . S
C3205 C3206 1.374 . S
C3206 H3180 0.950 . S
C3206 C3202 1.385 . S
C3206 C3205 1.374 . S
C3207 C3204 1.499 . S
C3207 C3208 1.373 . S
C3207 C3209 1.389 . S
C3208 H3181 0.950 . S
C3208 C3194 1.377 . S
C3208 C3207 1.373 . S
C3209 C3193 1.377 . S
C3209 C3207 1.389 . S
C3209 C3210 1.524 . S
C3210 C3209 1.524 . S
C3210 C3211 1.397 . S
C3210 C3215 1.363 . S
C3211 H3182 0.950 . S
C3211 C3210 1.397 . S
C3211 C3212 1.334 . S
C3212 H3183 0.950 . S
C3212 C3211 1.334 . S
C3212 C3213 1.287 . S
C3213 C3212 1.287 . S
C3213 C3214 1.524 . S
C3213 H3216 0.999 . S
C3214 H3184 0.950 . S
C3214 C3213 1.524 . S
C3214 C3215 1.415 . S
C3215 H3185 0.950 . S
C3215 C3210 1.363 . S
C3215 C3214 1.415 . S
H3216 C3213 0.999 . S
H3217 C3198 0.913 . S
H3218 C3236 0.951 . S
H3219 C3238 0.951 . S
H3220 C3240 0.950 . S
H3221 C3241 0.950 . S
H3222 C3243 0.950 . S
H3223 C3246 0.950 . S
H3224 C3247 0.950 . S
H3225 C3249 0.950 . S
H3226 C3250 0.950 . S
H3227 C3251 0.951 . S
H3228 C3253 0.951 . S
H3229 C3255 0.950 . S
H3230 C3256 0.950 . S
H3231 C3258 0.950 . S
H3232 C3261 0.950 . S
H3233 C3262 0.950 . S
H3234 C3264 0.950 . S
H3235 C3265 0.950 . S
C3236 H3218 0.951 . S
C3236 C3237 1.366 . S
C3236 C3238 1.388 . S
C3237 C3236 1.366 . S
C3237 C3241 1.385 . S
C3238 H3219 0.951 . S
C3238 C3236 1.388 . S
C3238 C3239 1.366 . S
C3239 C3238 1.366 . S
C3239 C3240 1.414 . S
C3239 C3242 1.499 . S
C3240 H3220 0.950 . S
C3240 C3239 1.414 . S
C3240 C3241 1.374 . S
C3241 H3221 0.950 . S
C3241 C3237 1.385 . S
C3241 C3240 1.374 . S
C3242 C3239 1.499 . S
C3242 C3243 1.373 . S
C3242 C3244 1.389 . S
C3243 H3222 0.950 . S
C3243 C3242 1.373 . S
C3243 C3259 1.377 . S
C3244 C3242 1.389 . S
C3244 C3245 1.524 . S
C3244 C3258 1.377 . S
C3245 C3244 1.524 . S
C3245 C3246 1.397 . S
C3245 C3250 1.363 . S
C3246 H3223 0.950 . S
C3246 C3245 1.397 . S
C3246 C3247 1.334 . S
C3247 H3224 0.950 . S
C3247 C3246 1.334 . S
C3247 C3248 1.287 . S
C3248 C3247 1.287 . S
C3248 C3249 1.524 . S
C3248 H3267 0.913 . S
C3249 H3225 0.950 . S
C3249 C3248 1.524 . S
C3249 C3250 1.415 . S
C3250 H3226 0.950 . S
C3250 C3245 1.363 . S
C3250 C3249 1.415 . S
C3251 H3227 0.951 . S
C3251 C3252 1.366 . S
C3251 C3253 1.388 . S
C3252 C3251 1.366 . S
C3252 C3256 1.385 . S
C3253 H3228 0.951 . S
C3253 C3251 1.388 . S
C3253 C3254 1.366 . S
C3254 C3253 1.366 . S
C3254 C3255 1.414 . S
C3254 C3257 1.499 . S
C3255 H3229 0.950 . S
C3255 C3254 1.414 . S
C3255 C3256 1.374 . S
C3256 H3230 0.950 . S
C3256 C3252 1.385 . S
C3256 C3255 1.374 . S
C3257 C3254 1.499 . S
C3257 C3258 1.373 . S
C3257 C3259 1.389 . S
C3258 H3231 0.950 . S
C3258 C3244 1.377 . S
C3258 C3257 1.373 . S
C3259 C3243 1.377 . S
C3259 C3257 1.389 . S
C3259 C3260 1.524 . S
C3260 C3259 1.524 . S
C3260 C3261 1.397 . S
C3260 C3265 1.363 . S
C3261 H3232 0.950 . S
C3261 C3260 1.397 . S
C3261 C3262 1.334 . S
C3262 H3233 0.950 . S
C3262 C3261 1.334 . S
C3262 C3263 1.287 . S
C3263 C3262 1.287 . S
C3263 C3264 1.524 . S
C3263 H3266 0.999 . S
C3264 H3234 0.950 . S
C3264 C3263 1.524 . S
C3264 C3265 1.415 . S
C3265 H3235 0.950 . S
C3265 C3260 1.363 . S
C3265 C3264 1.415 . S
H3266 C3263 0.999 . S
H3267 C3248 0.913 . S
H3268 C3286 0.951 . S
H3269 C3288 0.951 . S
H3270 C3290 0.950 . S
H3271 C3291 0.950 . S
H3272 C3293 0.950 . S
H3273 C3296 0.950 . S
H3274 C3297 0.950 . S
H3275 C3299 0.950 . S
H3276 C3300 0.950 . S
H3277 C3301 0.951 . S
H3278 C3303 0.951 . S
H3279 C3305 0.950 . S
H3280 C3306 0.950 . S
H3281 C3308 0.950 . S
H3282 C3311 0.950 . S
H3283 C3312 0.950 . S
H3284 C3314 0.950 . S
H3285 C3315 0.950 . S
C3286 H3268 0.951 . S
C3286 C3287 1.366 . S
C3286 C3288 1.388 . S
C3287 C3286 1.366 . S
C3287 C3291 1.385 . S
C3288 H3269 0.951 . S
C3288 C3286 1.388 . S
C3288 C3289 1.366 . S
C3289 C3288 1.366 . S
C3289 C3290 1.414 . S
C3289 C3292 1.499 . S
C3290 H3270 0.950 . S
C3290 C3289 1.414 . S
C3290 C3291 1.374 . S
C3291 H3271 0.950 . S
C3291 C3287 1.385 . S
C3291 C3290 1.374 . S
C3292 C3289 1.499 . S
C3292 C3293 1.373 . S
C3292 C3294 1.389 . S
C3293 H3272 0.950 . S
C3293 C3292 1.373 . S
C3293 C3309 1.377 . S
C3294 C3292 1.389 . S
C3294 C3295 1.524 . S
C3294 C3308 1.377 . S
C3295 C3294 1.524 . S
C3295 C3296 1.397 . S
C3295 C3300 1.363 . S
C3296 H3273 0.950 . S
C3296 C3295 1.397 . S
C3296 C3297 1.334 . S
C3297 H3274 0.950 . S
C3297 C3296 1.334 . S
C3297 C3298 1.287 . S
C3298 C3297 1.287 . S
C3298 C3299 1.524 . S
C3298 H3317 0.913 . S
C3299 H3275 0.950 . S
C3299 C3298 1.524 . S
C3299 C3300 1.415 . S
C3300 H3276 0.950 . S
C3300 C3295 1.363 . S
C3300 C3299 1.415 . S
C3301 H3277 0.951 . S
C3301 C3302 1.366 . S
C3301 C3303 1.388 . S
C3302 C3301 1.366 . S
C3302 C3306 1.385 . S
C3303 H3278 0.951 . S
C3303 C3301 1.388 . S
C3303 C3304 1.366 . S
C3304 C3303 1.366 . S
C3304 C3305 1.414 . S
C3304 C3307 1.499 . S
C3305 H3279 0.950 . S
C3305 C3304 1.414 . S
C3305 C3306 1.374 . S
C3306 H3280 0.950 . S
C3306 C3302 1.385 . S
C3306 C3305 1.374 . S
C3307 C3304 1.499 . S
C3307 C3308 1.373 . S
C3307 C3309 1.389 . S
C3308 H3281 0.950 . S
C3308 C3294 1.377 . S
C3308 C3307 1.373 . S
C3309 C3293 1.377 . S
C3309 C3307 1.389 . S
C3309 C3310 1.524 . S
C3310 C3309 1.524 . S
C3310 C3311 1.397 . S
C3310 C3315 1.363 . S
C3311 H3282 0.950 . S
C3311 C3310 1.397 . S
C3311 C3312 1.334 . S
C3312 H3283 0.950 . S
C3312 C3311 1.334 . S
C3312 C3313 1.287 . S
C3313 C3312 1.287 . S
C3313 C3314 1.524 . S
C3313 H3316 0.999 . S
C3314 H3284 0.950 . S
C3314 C3313 1.524 . S
C3314 C3315 1.415 . S
C3315 H3285 0.950 . S
C3315 C3310 1.363 . S
C3315 C3314 1.415 . S
H3316 C3313 0.999 . S
H3317 C3298 0.913 . S
H3318 C3336 0.951 . S
H3319 C3338 0.951 . S
H3320 C3340 0.950 . S
H3321 C3341 0.950 . S
H3322 C3343 0.950 . S
H3323 C3346 0.950 . S
H3324 C3347 0.950 . S
H3325 C3349 0.950 . S
H3326 C3350 0.950 . S
H3327 C3351 0.951 . S
H3328 C3353 0.951 . S
H3329 C3355 0.950 . S
H3330 C3356 0.950 . S
H3331 C3358 0.950 . S
H3332 C3361 0.950 . S
H3333 C3362 0.950 . S
H3334 C3364 0.950 . S
H3335 C3365 0.950 . S
C3336 H3318 0.951 . S
C3336 C3337 1.366 . S
C3336 C3338 1.388 . S
C3337 C3336 1.366 . S
C3337 C3341 1.385 . S
C3338 H3319 0.951 . S
C3338 C3336 1.388 . S
C3338 C3339 1.366 . S
C3339 C3338 1.366 . S
C3339 C3340 1.414 . S
C3339 C3342 1.499 . S
C3340 H3320 0.950 . S
C3340 C3339 1.414 . S
C3340 C3341 1.374 . S
C3341 H3321 0.950 . S
C3341 C3337 1.385 . S
C3341 C3340 1.374 . S
C3342 C3339 1.499 . S
C3342 C3343 1.373 . S
C3342 C3344 1.389 . S
C3343 H3322 0.950 . S
C3343 C3342 1.373 . S
C3343 C3359 1.377 . S
C3344 C3342 1.389 . S
C3344 C3345 1.524 . S
C3344 C3358 1.377 . S
C3345 C3344 1.524 . S
C3345 C3346 1.397 . S
C3345 C3350 1.363 . S
C3346 H3323 0.950 . S
C3346 C3345 1.397 . S
C3346 C3347 1.334 . S
C3347 H3324 0.950 . S
C3347 C3346 1.334 . S
C3347 C3348 1.287 . S
C3348 C3347 1.287 . S
C3348 C3349 1.524 . S
C3348 H3367 0.913 . S
C3349 H3325 0.950 . S
C3349 C3348 1.524 . S
C3349 C3350 1.415 . S
C3350 H3326 0.950 . S
C3350 C3345 1.363 . S
C3350 C3349 1.415 . S
C3351 H3327 0.951 . S
C3351 C3352 1.366 . S
C3351 C3353 1.388 . S
C3352 C3351 1.366 . S
C3352 C3356 1.385 . S
C3353 H3328 0.951 . S
C3353 C3351 1.388 . S
C3353 C3354 1.366 . S
C3354 C3353 1.366 . S
C3354 C3355 1.414 . S
C3354 C3357 1.499 . S
C3355 H3329 0.950 . S
C3355 C3354 1.414 . S
C3355 C3356 1.374 . S
C3356 H3330 0.950 . S
C3356 C3352 1.385 . S
C3356 C3355 1.374 . S
C3357 C3354 1.499 . S
C3357 C3358 1.373 . S
C3357 C3359 1.389 . S
C3358 H3331 0.950 . S
C3358 C3344 1.377 . S
C3358 C3357 1.373 . S
C3359 C3343 1.377 . S
C3359 C3357 1.389 . S
C3359 C3360 1.524 . S
C3360 C3359 1.524 . S
C3360 C3361 1.397 . S
C3360 C3365 1.363 . S
C3361 H3332 0.950 . S
C3361 C3360 1.397 . S
C3361 C3362 1.334 . S
C3362 H3333 0.950 . S
C3362 C3361 1.334 . S
C3362 C3363 1.287 . S
C3363 C3362 1.287 . S
C3363 C3364 1.524 . S
C3363 H3366 0.999 . S
C3364 H3334 0.950 . S
C3364 C3363 1.524 . S
C3364 C3365 1.415 . S
C3365 H3335 0.950 . S
C3365 C3360 1.363 . S
C3365 C3364 1.415 . S
H3366 C3363 0.999 . S
H3367 C3348 0.913 . S
H3368 C3386 0.951 . S
H3369 C3388 0.951 . S
H3370 C3390 0.950 . S
H3371 C3391 0.950 . S
H3372 C3393 0.950 . S
H3373 C3396 0.950 . S
H3374 C3397 0.950 . S
H3375 C3399 0.950 . S
H3376 C3400 0.950 . S
H3377 C3401 0.951 . S
H3378 C3403 0.951 . S
H3379 C3405 0.950 . S
H3380 C3406 0.950 . S
H3381 C3408 0.950 . S
H3382 C3411 0.950 . S
H3383 C3412 0.950 . S
H3384 C3414 0.950 . S
H3385 C3415 0.950 . S
C3386 H3368 0.951 . S
C3386 C3387 1.366 . S
C3386 C3388 1.388 . S
C3387 C3386 1.366 . S
C3387 C3391 1.385 . S
C3388 H3369 0.951 . S
C3388 C3386 1.388 . S
C3388 C3389 1.366 . S
C3389 C3388 1.366 . S
C3389 C3390 1.414 . S
C3389 C3392 1.499 . S
C3390 H3370 0.950 . S
C3390 C3389 1.414 . S
C3390 C3391 1.374 . S
C3391 H3371 0.950 . S
C3391 C3387 1.385 . S
C3391 C3390 1.374 . S
C3392 C3389 1.499 . S
C3392 C3393 1.373 . S
C3392 C3394 1.389 . S
C3393 H3372 0.950 . S
C3393 C3392 1.373 . S
C3393 C3409 1.377 . S
C3394 C3392 1.389 . S
C3394 C3395 1.524 . S
C3394 C3408 1.377 . S
C3395 C3394 1.524 . S
C3395 C3396 1.397 . S
C3395 C3400 1.363 . S
C3396 H3373 0.950 . S
C3396 C3395 1.397 . S
C3396 C3397 1.334 . S
C3397 H3374 0.950 . S
C3397 C3396 1.334 . S
C3397 C3398 1.287 . S
C3398 C3397 1.287 . S
C3398 C3399 1.524 . S
C3398 H3417 0.913 . S
C3399 H3375 0.950 . S
C3399 C3398 1.524 . S
C3399 C3400 1.415 . S
C3400 H3376 0.950 . S
C3400 C3395 1.363 . S
C3400 C3399 1.415 . S
C3401 H3377 0.951 . S
C3401 C3402 1.366 . S
C3401 C3403 1.388 . S
C3402 C3401 1.366 . S
C3402 C3406 1.385 . S
C3403 H3378 0.951 . S
C3403 C3401 1.388 . S
C3403 C3404 1.366 . S
C3404 C3403 1.366 . S
C3404 C3405 1.414 . S
C3404 C3407 1.499 . S
C3405 H3379 0.950 . S
C3405 C3404 1.414 . S
C3405 C3406 1.374 . S
C3406 H3380 0.950 . S
C3406 C3402 1.385 . S
C3406 C3405 1.374 . S
C3407 C3404 1.499 . S
C3407 C3408 1.373 . S
C3407 C3409 1.389 . S
C3408 H3381 0.950 . S
C3408 C3394 1.377 . S
C3408 C3407 1.373 . S
C3409 C3393 1.377 . S
C3409 C3407 1.389 . S
C3409 C3410 1.524 . S
C3410 C3409 1.524 . S
C3410 C3411 1.397 . S
C3410 C3415 1.363 . S
C3411 H3382 0.950 . S
C3411 C3410 1.397 . S
C3411 C3412 1.334 . S
C3412 H3383 0.950 . S
C3412 C3411 1.334 . S
C3412 C3413 1.287 . S
C3413 C3412 1.287 . S
C3413 C3414 1.524 . S
C3413 H3416 0.999 . S
C3414 H3384 0.950 . S
C3414 C3413 1.524 . S
C3414 C3415 1.415 . S
C3415 H3385 0.950 . S
C3415 C3410 1.363 . S
C3415 C3414 1.415 . S
H3416 C3413 0.999 . S
H3417 C3398 0.913 . S
H3418 C3436 0.951 . S
H3419 C3438 0.951 . S
H3420 C3440 0.950 . S
H3421 C3441 0.950 . S
H3422 C3443 0.950 . S
H3423 C3446 0.950 . S
H3424 C3447 0.950 . S
H3425 C3449 0.950 . S
H3426 C3450 0.950 . S
H3427 C3451 0.951 . S
H3428 C3453 0.951 . S
H3429 C3455 0.950 . S
H3430 C3456 0.950 . S
H3431 C3458 0.950 . S
H3432 C3461 0.950 . S
H3433 C3462 0.950 . S
H3434 C3464 0.950 . S
H3435 C3465 0.950 . S
C3436 H3418 0.951 . S
C3436 C3437 1.366 . S
C3436 C3438 1.388 . S
C3437 C3436 1.366 . S
C3437 C3441 1.385 . S
C3438 H3419 0.951 . S
C3438 C3436 1.388 . S
C3438 C3439 1.366 . S
C3439 C3438 1.366 . S
C3439 C3440 1.414 . S
C3439 C3442 1.499 . S
C3440 H3420 0.950 . S
C3440 C3439 1.414 . S
C3440 C3441 1.374 . S
C3441 H3421 0.950 . S
C3441 C3437 1.385 . S
C3441 C3440 1.374 . S
C3442 C3439 1.499 . S
C3442 C3443 1.373 . S
C3442 C3444 1.389 . S
C3443 H3422 0.950 . S
C3443 C3442 1.373 . S
C3443 C3459 1.377 . S
C3444 C3442 1.389 . S
C3444 C3445 1.524 . S
C3444 C3458 1.377 . S
C3445 C3444 1.524 . S
C3445 C3446 1.397 . S
C3445 C3450 1.363 . S
C3446 H3423 0.950 . S
C3446 C3445 1.397 . S
C3446 C3447 1.334 . S
C3447 H3424 0.950 . S
C3447 C3446 1.334 . S
C3447 C3448 1.287 . S
C3448 C3447 1.287 . S
C3448 C3449 1.524 . S
C3448 H3467 0.913 . S
C3449 H3425 0.950 . S
C3449 C3448 1.524 . S
C3449 C3450 1.415 . S
C3450 H3426 0.950 . S
C3450 C3445 1.363 . S
C3450 C3449 1.415 . S
C3451 H3427 0.951 . S
C3451 C3452 1.366 . S
C3451 C3453 1.388 . S
C3452 C3451 1.366 . S
C3452 C3456 1.385 . S
C3453 H3428 0.951 . S
C3453 C3451 1.388 . S
C3453 C3454 1.366 . S
C3454 C3453 1.366 . S
C3454 C3455 1.414 . S
C3454 C3457 1.499 . S
C3455 H3429 0.950 . S
C3455 C3454 1.414 . S
C3455 C3456 1.374 . S
C3456 H3430 0.950 . S
C3456 C3452 1.385 . S
C3456 C3455 1.374 . S
C3457 C3454 1.499 . S
C3457 C3458 1.373 . S
C3457 C3459 1.389 . S
C3458 H3431 0.950 . S
C3458 C3444 1.377 . S
C3458 C3457 1.373 . S
C3459 C3443 1.377 . S
C3459 C3457 1.389 . S
C3459 C3460 1.524 . S
C3460 C3459 1.524 . S
C3460 C3461 1.397 . S
C3460 C3465 1.363 . S
C3461 H3432 0.950 . S
C3461 C3460 1.397 . S
C3461 C3462 1.334 . S
C3462 H3433 0.950 . S
C3462 C3461 1.334 . S
C3462 C3463 1.287 . S
C3463 C3462 1.287 . S
C3463 C3464 1.524 . S
C3463 H3466 0.999 . S
C3464 H3434 0.950 . S
C3464 C3463 1.524 . S
C3464 C3465 1.415 . S
C3465 H3435 0.950 . S
C3465 C3460 1.363 . S
C3465 C3464 1.415 . S
H3466 C3463 0.999 . S
H3467 C3448 0.913 . S
H3468 C3486 0.951 . S
H3469 C3488 0.951 . S
H3470 C3490 0.950 . S
H3471 C3491 0.950 . S
H3472 C3493 0.950 . S
H3473 C3496 0.950 . S
H3474 C3497 0.950 . S
H3475 C3499 0.950 . S
H3476 C3500 0.950 . S
H3477 C3501 0.951 . S
H3478 C3503 0.951 . S
H3479 C3505 0.950 . S
H3480 C3506 0.950 . S
H3481 C3508 0.950 . S
H3482 C3511 0.950 . S
H3483 C3512 0.950 . S
H3484 C3514 0.950 . S
H3485 C3515 0.950 . S
C3486 H3468 0.951 . S
C3486 C3487 1.366 . S
C3486 C3488 1.388 . S
C3487 C3486 1.366 . S
C3487 C3491 1.385 . S
C3488 H3469 0.951 . S
C3488 C3486 1.388 . S
C3488 C3489 1.366 . S
C3489 C3488 1.366 . S
C3489 C3490 1.414 . S
C3489 C3492 1.499 . S
C3490 H3470 0.950 . S
C3490 C3489 1.414 . S
C3490 C3491 1.374 . S
C3491 H3471 0.950 . S
C3491 C3487 1.385 . S
C3491 C3490 1.374 . S
C3492 C3489 1.499 . S
C3492 C3493 1.373 . S
C3492 C3494 1.389 . S
C3493 H3472 0.950 . S
C3493 C3492 1.373 . S
C3493 C3509 1.377 . S
C3494 C3492 1.389 . S
C3494 C3495 1.524 . S
C3494 C3508 1.377 . S
C3495 C3494 1.524 . S
C3495 C3496 1.397 . S
C3495 C3500 1.363 . S
C3496 H3473 0.950 . S
C3496 C3495 1.397 . S
C3496 C3497 1.334 . S
C3497 H3474 0.950 . S
C3497 C3496 1.334 . S
C3497 C3498 1.287 . S
C3498 C3497 1.287 . S
C3498 C3499 1.524 . S
C3498 H3517 0.913 . S
C3499 H3475 0.950 . S
C3499 C3498 1.524 . S
C3499 C3500 1.415 . S
C3500 H3476 0.950 . S
C3500 C3495 1.363 . S
C3500 C3499 1.415 . S
C3501 H3477 0.951 . S
C3501 C3502 1.366 . S
C3501 C3503 1.388 . S
C3502 C3501 1.366 . S
C3502 C3506 1.385 . S
C3503 H3478 0.951 . S
C3503 C3501 1.388 . S
C3503 C3504 1.366 . S
C3504 C3503 1.366 . S
C3504 C3505 1.414 . S
C3504 C3507 1.499 . S
C3505 H3479 0.950 . S
C3505 C3504 1.414 . S
C3505 C3506 1.374 . S
C3506 H3480 0.950 . S
C3506 C3502 1.385 . S
C3506 C3505 1.374 . S
C3507 C3504 1.499 . S
C3507 C3508 1.373 . S
C3507 C3509 1.389 . S
C3508 H3481 0.950 . S
C3508 C3494 1.377 . S
C3508 C3507 1.373 . S
C3509 C3493 1.377 . S
C3509 C3507 1.389 . S
C3509 C3510 1.524 . S
C3510 C3509 1.524 . S
C3510 C3511 1.397 . S
C3510 C3515 1.363 . S
C3511 H3482 0.950 . S
C3511 C3510 1.397 . S
C3511 C3512 1.334 . S
C3512 H3483 0.950 . S
C3512 C3511 1.334 . S
C3512 C3513 1.287 . S
C3513 C3512 1.287 . S
C3513 C3514 1.524 . S
C3513 H3516 0.999 . S
C3514 H3484 0.950 . S
C3514 C3513 1.524 . S
C3514 C3515 1.415 . S
C3515 H3485 0.950 . S
C3515 C3510 1.363 . S
C3515 C3514 1.415 . S
H3516 C3513 0.999 . S
H3517 C3498 0.913 . S
H3518 C3536 0.951 . S
H3519 C3538 0.951 . S
H3520 C3540 0.950 . S
H3521 C3541 0.950 . S
H3522 C3543 0.950 . S
H3523 C3546 0.950 . S
H3524 C3547 0.950 . S
H3525 C3549 0.950 . S
H3526 C3550 0.950 . S
H3527 C3551 0.951 . S
H3528 C3553 0.951 . S
H3529 C3555 0.950 . S
H3530 C3556 0.950 . S
H3531 C3558 0.950 . S
H3532 C3561 0.950 . S
H3533 C3562 0.950 . S
H3534 C3564 0.950 . S
H3535 C3565 0.950 . S
C3536 H3518 0.951 . S
C3536 C3537 1.366 . S
C3536 C3538 1.388 . S
C3537 C3536 1.366 . S
C3537 C3541 1.385 . S
C3538 H3519 0.951 . S
C3538 C3536 1.388 . S
C3538 C3539 1.366 . S
C3539 C3538 1.366 . S
C3539 C3540 1.414 . S
C3539 C3542 1.499 . S
C3540 H3520 0.950 . S
C3540 C3539 1.414 . S
C3540 C3541 1.374 . S
C3541 H3521 0.950 . S
C3541 C3537 1.385 . S
C3541 C3540 1.374 . S
C3542 C3539 1.499 . S
C3542 C3543 1.373 . S
C3542 C3544 1.389 . S
C3543 H3522 0.950 . S
C3543 C3542 1.373 . S
C3543 C3559 1.377 . S
C3544 C3542 1.389 . S
C3544 C3545 1.524 . S
C3544 C3558 1.377 . S
C3545 C3544 1.524 . S
C3545 C3546 1.397 . S
C3545 C3550 1.363 . S
C3546 H3523 0.950 . S
C3546 C3545 1.397 . S
C3546 C3547 1.334 . S
C3547 H3524 0.950 . S
C3547 C3546 1.334 . S
C3547 C3548 1.287 . S
C3548 C3547 1.287 . S
C3548 C3549 1.524 . S
C3548 H3567 0.913 . S
C3549 H3525 0.950 . S
C3549 C3548 1.524 . S
C3549 C3550 1.415 . S
C3550 H3526 0.950 . S
C3550 C3545 1.363 . S
C3550 C3549 1.415 . S
C3551 H3527 0.951 . S
C3551 C3552 1.366 . S
C3551 C3553 1.388 . S
C3552 C3551 1.366 . S
C3552 C3556 1.385 . S
C3553 H3528 0.951 . S
C3553 C3551 1.388 . S
C3553 C3554 1.366 . S
C3554 C3553 1.366 . S
C3554 C3555 1.414 . S
C3554 C3557 1.499 . S
C3555 H3529 0.950 . S
C3555 C3554 1.414 . S
C3555 C3556 1.374 . S
C3556 H3530 0.950 . S
C3556 C3552 1.385 . S
C3556 C3555 1.374 . S
C3557 C3554 1.499 . S
C3557 C3558 1.373 . S
C3557 C3559 1.389 . S
C3558 H3531 0.950 . S
C3558 C3544 1.377 . S
C3558 C3557 1.373 . S
C3559 C3543 1.377 . S
C3559 C3557 1.389 . S
C3559 C3560 1.524 . S
C3560 C3559 1.524 . S
C3560 C3561 1.397 . S
C3560 C3565 1.363 . S
C3561 H3532 0.950 . S
C3561 C3560 1.397 . S
C3561 C3562 1.334 . S
C3562 H3533 0.950 . S
C3562 C3561 1.334 . S
C3562 C3563 1.287 . S
C3563 C3562 1.287 . S
C3563 C3564 1.524 . S
C3563 H3566 0.999 . S
C3564 H3534 0.950 . S
C3564 C3563 1.524 . S
C3564 C3565 1.415 . S
C3565 H3535 0.950 . S
C3565 C3560 1.363 . S
C3565 C3564 1.415 . S
H3566 C3563 0.999 . S
H3567 C3548 0.913 . S
H3568 C3586 0.951 . S
H3569 C3588 0.951 . S
H3570 C3590 0.950 . S
H3571 C3591 0.950 . S
H3572 C3593 0.950 . S
H3573 C3596 0.950 . S
H3574 C3597 0.950 . S
H3575 C3599 0.950 . S
H3576 C3600 0.950 . S
H3577 C3601 0.951 . S
H3578 C3603 0.951 . S
H3579 C3605 0.950 . S
H3580 C3606 0.950 . S
H3581 C3608 0.950 . S
H3582 C3611 0.950 . S
H3583 C3612 0.950 . S
H3584 C3614 0.950 . S
H3585 C3615 0.950 . S
C3586 H3568 0.951 . S
C3586 C3587 1.366 . S
C3586 C3588 1.388 . S
C3587 C3586 1.366 . S
C3587 C3591 1.385 . S
C3588 H3569 0.951 . S
C3588 C3586 1.388 . S
C3588 C3589 1.366 . S
C3589 C3588 1.366 . S
C3589 C3590 1.414 . S
C3589 C3592 1.499 . S
C3590 H3570 0.950 . S
C3590 C3589 1.414 . S
C3590 C3591 1.374 . S
C3591 H3571 0.950 . S
C3591 C3587 1.385 . S
C3591 C3590 1.374 . S
C3592 C3589 1.499 . S
C3592 C3593 1.373 . S
C3592 C3594 1.389 . S
C3593 H3572 0.950 . S
C3593 C3592 1.373 . S
C3593 C3609 1.377 . S
C3594 C3592 1.389 . S
C3594 C3595 1.524 . S
C3594 C3608 1.377 . S
C3595 C3594 1.524 . S
C3595 C3596 1.397 . S
C3595 C3600 1.363 . S
C3596 H3573 0.950 . S
C3596 C3595 1.397 . S
C3596 C3597 1.334 . S
C3597 H3574 0.950 . S
C3597 C3596 1.334 . S
C3597 C3598 1.287 . S
C3598 C3597 1.287 . S
C3598 C3599 1.524 . S
C3598 H3617 0.913 . S
C3599 H3575 0.950 . S
C3599 C3598 1.524 . S
C3599 C3600 1.415 . S
C3600 H3576 0.950 . S
C3600 C3595 1.363 . S
C3600 C3599 1.415 . S
C3601 H3577 0.951 . S
C3601 C3602 1.366 . S
C3601 C3603 1.388 . S
C3602 C3601 1.366 . S
C3602 C3606 1.385 . S
C3603 H3578 0.951 . S
C3603 C3601 1.388 . S
C3603 C3604 1.366 . S
C3604 C3603 1.366 . S
C3604 C3605 1.414 . S
C3604 C3607 1.499 . S
C3605 H3579 0.950 . S
C3605 C3604 1.414 . S
C3605 C3606 1.374 . S
C3606 H3580 0.950 . S
C3606 C3602 1.385 . S
C3606 C3605 1.374 . S
C3607 C3604 1.499 . S
C3607 C3608 1.373 . S
C3607 C3609 1.389 . S
C3608 H3581 0.950 . S
C3608 C3594 1.377 . S
C3608 C3607 1.373 . S
C3609 C3593 1.377 . S
C3609 C3607 1.389 . S
C3609 C3610 1.524 . S
C3610 C3609 1.524 . S
C3610 C3611 1.397 . S
C3610 C3615 1.363 . S
C3611 H3582 0.950 . S
C3611 C3610 1.397 . S
C3611 C3612 1.334 . S
C3612 H3583 0.950 . S
C3612 C3611 1.334 . S
C3612 C3613 1.287 . S
C3613 C3612 1.287 . S
C3613 C3614 1.524 . S
C3613 H3616 0.999 . S
C3614 H3584 0.950 . S
C3614 C3613 1.524 . S
C3614 C3615 1.415 . S
C3615 H3585 0.950 . S
C3615 C3610 1.363 . S
C3615 C3614 1.415 . S
H3616 C3613 0.999 . S
H3617 C3598 0.913 . S
C937 C124 1.406 . S
C952 C229 1.331 . S
C987 C130 1.466 . S
C1002 C313 1.395 . S
C1037 C115 1.441 . S
C1052 C393 1.407 . S
C1087 C106 1.410 . S
C1102 C309 1.378 . S
C1152 C397 1.330 . S
C1137 C85 1.403 . S
C1187 C97 1.366 . S
C1202 C225 1.333 . S
C1252 C218 1.359 . S
C1237 C103 1.435 . S
C1302 C302 1.368 . S
C1287 C88 1.437 . S
C1337 C94 1.440 . S
C1352 C404 1.406 . S
C1387 C121 1.409 . S
C1402 C320 1.377 . S
C1437 C133 1.374 . S
C1452 C386 1.303 . S
C1502 C236 1.360 . S
C1487 C112 1.393 . S
C1552 C481 1.331 . S
C1537 C16 1.406 . S
C1587 C22 1.466 . S
C1602 C565 1.396 . S
C1637 C7 1.441 . S
C1652 C645 1.407 . S
C1687 C160 1.411 . S
C1702 C561 1.379 . S
C1737 C139 1.404 . S
C1752 C649 1.331 . S
C1787 C151 1.366 . S
C1802 C477 1.333 . S
C1837 C157 1.434 . S
C1852 C470 1.359 . S
C1887 C142 1.437 . S
C1902 C554 1.368 . S
C1952 C656 1.406 . S
C1937 C148 1.440 . S
C1987 C13 1.409 . S
C2002 C572 1.377 . S
C2052 C638 1.302 . S
C2037 C25 1.374 . S
C2087 C4 1.394 . S
C2102 C488 1.360 . S
C2152 C733 1.331 . S
C2137 C70 1.405 . S
C2187 C76 1.466 . S
C2202 C817 1.395 . S
C2252 C897 1.407 . S
C2237 C61 1.441 . S
C2302 C813 1.378 . S
C2287 C52 1.410 . S
C2352 C901 1.330 . S
C2337 C31 1.403 . S
C2387 C43 1.366 . S
C2402 C729 1.333 . S
C2437 C49 1.434 . S
C2452 C722 1.359 . S
C2487 C34 1.437 . S
C2502 C806 1.367 . S
C2552 C908 1.407 . S
C2537 C40 1.440 . S
C2587 C67 1.409 . S
C2602 C824 1.376 . S
C2637 C79 1.374 . S
C2652 C890 1.303 . S
C2687 C58 1.394 . S
C2702 C740 1.360 . S
C2737 C140 1.450 . S
C2752 C232 1.334 . S
C2802 C316 1.358 . S
C2787 C149 1.495 . S
C2837 C158 1.487 . S
C2852 C388 1.356 . S
C2887 C59 1.518 . S
C2902 C304 1.377 . S
C2937 C68 1.465 . S
C2952 C400 1.337 . S
C3002 C220 1.334 . S
C2987 C77 1.450 . S
C3037 C32 1.450 . S
C3052 C484 1.333 . S
C3087 C41 1.495 . S
C3102 C568 1.358 . S
C3137 C50 1.487 . S
C3152 C640 1.357 . S
C3187 C113 1.518 . S
C3202 C556 1.379 . S
C3252 C652 1.336 . S
C3237 C122 1.465 . S
C3287 C131 1.450 . S
C3302 C472 1.332 . S
C3337 C86 1.450 . S
C3352 C736 1.332 . S
C3387 C95 1.495 . S
C3402 C820 1.357 . S
C3452 C892 1.356 . S
C3437 C104 1.487 . S
C3487 C5 1.518 . S
C3502 C808 1.378 . S
C3537 C14 1.465 . S
C3552 C904 1.336 . S
C3587 C23 1.450 . S
C3602 C724 1.333 . S
