# Generated by pormake.
# Topology eea, (3,6)-cn, num edge types: 1
# Building blocks:
#     Node 0, Type 0, BuildingBlock: QEWDON_clean_linker_0, # of connection points: 3
#     Node 1, Type 0, BuildingBlock: QEWDON_clean_linker_0, # of connection points: 3
#     Node 2, Type 0, BuildingBlock: QEWDON_clean_linker_0, # of connection points: 3
#     Node 3, Type 0, BuildingBlock: QEWDON_clean_linker_0, # of connection points: 3
#     Node 4, Type 0, BuildingBlock: QEWDON_clean_linker_0, # of connection points: 3
#     Node 5, Type 0, BuildingBlock: QEWDON_clean_linker_0, # of connection points: 3
#     Node 6, Type 0, BuildingBlock: QEWDON_clean_linker_0, # of connection points: 3
#     Node 7, Type 0, BuildingBlock: QEWDON_clean_linker_0, # of connection points: 3
#     Node 8, Type 0, BuildingBlock: QEWDON_clean_linker_0, # of connection points: 3
#     Node 9, Type 0, BuildingBlock: QEWDON_clean_linker_0, # of connection points: 3
#     Node 10, Type 0, BuildingBlock: QEWDON_clean_linker_0, # of connection points: 3
#     Node 11, Type 0, BuildingBlock: QEWDON_clean_linker_0, # of connection points: 3
#     Node 12, Type 0, BuildingBlock: QEWDON_clean_linker_0, # of connection points: 3
#     Node 13, Type 0, BuildingBlock: QEWDON_clean_linker_0, # of connection points: 3
#     Node 14, Type 0, BuildingBlock: QEWDON_clean_linker_0, # of connection points: 3
#     Node 15, Type 0, BuildingBlock: QEWDON_clean_linker_0, # of connection points: 3
#     Node 16, Type 0, BuildingBlock: QEWDON_clean_linker_0, # of connection points: 3
#     Node 17, Type 0, BuildingBlock: QEWDON_clean_linker_0, # of connection points: 3
#     Node 18, Type 1, BuildingBlock: HISSIN_clean_sbu_0, # of connection points: 6
#     Node 19, Type 1, BuildingBlock: HISSIN_clean_sbu_0, # of connection points: 6
#     Node 20, Type 1, BuildingBlock: HISSIN_clean_sbu_0, # of connection points: 6
#     Node 21, Type 1, BuildingBlock: HISSIN_clean_sbu_0, # of connection points: 6
#     Node 22, Type 1, BuildingBlock: HISSIN_clean_sbu_0, # of connection points: 6
#     Node 23, Type 1, BuildingBlock: HISSIN_clean_sbu_0, # of connection points: 6
#     Node 24, Type 1, BuildingBlock: HISSIN_clean_sbu_0, # of connection points: 6
#     Node 25, Type 1, BuildingBlock: HISSIN_clean_sbu_0, # of connection points: 6
#     Node 26, Type 1, BuildingBlock: HISSIN_clean_sbu_0, # of connection points: 6
#     Edge 27, Type (0, 1), BuildingBlock: UVAHIK_clean_linker_0, # of connection points: 2
#     Edge 28, Type (0, 1), BuildingBlock: UVAHIK_clean_linker_0, # of connection points: 2
#     Edge 29, Type (0, 1), BuildingBlock: UVAHIK_clean_linker_0, # of connection points: 2
#     Edge 30, Type (0, 1), BuildingBlock: UVAHIK_clean_linker_0, # of connection points: 2
#     Edge 31, Type (0, 1), BuildingBlock: UVAHIK_clean_linker_0, # of connection points: 2
#     Edge 32, Type (0, 1), BuildingBlock: UVAHIK_clean_linker_0, # of connection points: 2
#     Edge 33, Type (0, 1), BuildingBlock: UVAHIK_clean_linker_0, # of connection points: 2
#     Edge 34, Type (0, 1), BuildingBlock: UVAHIK_clean_linker_0, # of connection points: 2
#     Edge 35, Type (0, 1), BuildingBlock: UVAHIK_clean_linker_0, # of connection points: 2
#     Edge 36, Type (0, 1), BuildingBlock: UVAHIK_clean_linker_0, # of connection points: 2
#     Edge 37, Type (0, 1), BuildingBlock: UVAHIK_clean_linker_0, # of connection points: 2
#     Edge 38, Type (0, 1), BuildingBlock: UVAHIK_clean_linker_0, # of connection points: 2
#     Edge 39, Type (0, 1), BuildingBlock: UVAHIK_clean_linker_0, # of connection points: 2
#     Edge 40, Type (0, 1), BuildingBlock: UVAHIK_clean_linker_0, # of connection points: 2
#     Edge 41, Type (0, 1), BuildingBlock: UVAHIK_clean_linker_0, # of connection points: 2
#     Edge 42, Type (0, 1), BuildingBlock: UVAHIK_clean_linker_0, # of connection points: 2
#     Edge 43, Type (0, 1), BuildingBlock: UVAHIK_clean_linker_0, # of connection points: 2
#     Edge 44, Type (0, 1), BuildingBlock: UVAHIK_clean_linker_0, # of connection points: 2
#     Edge 45, Type (0, 1), BuildingBlock: UVAHIK_clean_linker_0, # of connection points: 2
#     Edge 46, Type (0, 1), BuildingBlock: UVAHIK_clean_linker_0, # of connection points: 2
#     Edge 47, Type (0, 1), BuildingBlock: UVAHIK_clean_linker_0, # of connection points: 2
#     Edge 48, Type (0, 1), BuildingBlock: UVAHIK_clean_linker_0, # of connection points: 2
#     Edge 49, Type (0, 1), BuildingBlock: UVAHIK_clean_linker_0, # of connection points: 2
#     Edge 50, Type (0, 1), BuildingBlock: UVAHIK_clean_linker_0, # of connection points: 2
#     Edge 51, Type (0, 1), BuildingBlock: UVAHIK_clean_linker_0, # of connection points: 2
#     Edge 52, Type (0, 1), BuildingBlock: UVAHIK_clean_linker_0, # of connection points: 2
#     Edge 53, Type (0, 1), BuildingBlock: UVAHIK_clean_linker_0, # of connection points: 2
#     Edge 54, Type (0, 1), BuildingBlock: UVAHIK_clean_linker_0, # of connection points: 2
#     Edge 55, Type (0, 1), BuildingBlock: UVAHIK_clean_linker_0, # of connection points: 2
#     Edge 56, Type (0, 1), BuildingBlock: UVAHIK_clean_linker_0, # of connection points: 2
#     Edge 57, Type (0, 1), BuildingBlock: UVAHIK_clean_linker_0, # of connection points: 2
#     Edge 58, Type (0, 1), BuildingBlock: UVAHIK_clean_linker_0, # of connection points: 2
#     Edge 59, Type (0, 1), BuildingBlock: UVAHIK_clean_linker_0, # of connection points: 2
#     Edge 60, Type (0, 1), BuildingBlock: UVAHIK_clean_linker_0, # of connection points: 2
#     Edge 61, Type (0, 1), BuildingBlock: UVAHIK_clean_linker_0, # of connection points: 2
#     Edge 62, Type (0, 1), BuildingBlock: UVAHIK_clean_linker_0, # of connection points: 2
#     Edge 63, Type (0, 1), BuildingBlock: UVAHIK_clean_linker_0, # of connection points: 2
#     Edge 64, Type (0, 1), BuildingBlock: UVAHIK_clean_linker_0, # of connection points: 2
#     Edge 65, Type (0, 1), BuildingBlock: UVAHIK_clean_linker_0, # of connection points: 2
#     Edge 66, Type (0, 1), BuildingBlock: UVAHIK_clean_linker_0, # of connection points: 2
#     Edge 67, Type (0, 1), BuildingBlock: UVAHIK_clean_linker_0, # of connection points: 2
#     Edge 68, Type (0, 1), BuildingBlock: UVAHIK_clean_linker_0, # of connection points: 2
#     Edge 69, Type (0, 1), BuildingBlock: UVAHIK_clean_linker_0, # of connection points: 2
#     Edge 70, Type (0, 1), BuildingBlock: UVAHIK_clean_linker_0, # of connection points: 2
#     Edge 71, Type (0, 1), BuildingBlock: UVAHIK_clean_linker_0, # of connection points: 2
#     Edge 72, Type (0, 1), BuildingBlock: UVAHIK_clean_linker_0, # of connection points: 2
#     Edge 73, Type (0, 1), BuildingBlock: UVAHIK_clean_linker_0, # of connection points: 2
#     Edge 74, Type (0, 1), BuildingBlock: UVAHIK_clean_linker_0, # of connection points: 2
#     Edge 75, Type (0, 1), BuildingBlock: UVAHIK_clean_linker_0, # of connection points: 2
#     Edge 76, Type (0, 1), BuildingBlock: UVAHIK_clean_linker_0, # of connection points: 2
#     Edge 77, Type (0, 1), BuildingBlock: UVAHIK_clean_linker_0, # of connection points: 2
#     Edge 78, Type (0, 1), BuildingBlock: UVAHIK_clean_linker_0, # of connection points: 2
#     Edge 79, Type (0, 1), BuildingBlock: UVAHIK_clean_linker_0, # of connection points: 2
#     Edge 80, Type (0, 1), BuildingBlock: UVAHIK_clean_linker_0, # of connection points: 2
# Relax obj value: 0.085
# Max RMSD: 0.254
# Mean RMSD: 0.174
data_MOF--net-eea--node1-HISSIN_clean_sbu_0--node2-QEWDON_clean_linker_0--edge1-UVAHIK_clean_linker_0
_symmetry_space_group_name_H-M    P1
_symmetry_Int_Tables_number       1
_symmetry_cell_setting            triclinic
loop_
_symmetry_equiv_pos_as_xyz
'x, y, z'
_cell_length_a     75.555445
_cell_length_b     76.229334
_cell_length_c     81.854293
_cell_angle_alpha  93.339147
_cell_angle_beta   93.837334
_cell_angle_gamma 119.83316
loop_
_atom_site_label
_atom_site_type_symbol
_atom_site_fract_x
_atom_site_fract_y
_atom_site_fract_z
_atom_type_partial_charge
H0 H 0.21342 0.12602 0.42345 0.0
C1 C 0.21441 0.11323 0.41809 0.0
C2 C 0.22964 0.10936 0.42473 0.0
C3 C 0.19989 0.10013 0.40503 0.0
H4 H 0.24137 0.0887 0.42363 0.0
C5 C 0.23035 0.09233 0.41802 0.0
C6 C 0.21585 0.07906 0.40502 0.0
C7 C 0.20099 0.08337 0.3984 0.0
C8 C 0.18259 0.10288 0.399 0.0
H9 H 0.18993 0.07337 0.3882 0.0
C10 C 0.18593 0.12199 0.39522 0.0
C11 C 0.16943 0.12415 0.38885 0.0
C12 C 0.1625 0.08608 0.39675 0.0
H13 H 0.15946 0.07126 0.3998 0.0
C14 C 0.1461 0.08824 0.39067 0.0
H15 H 0.20139 0.13497 0.39671 0.0
C16 C 0.1495 0.10711 0.38667 0.0
H17 H 0.13649 0.10843 0.38202 0.0
H18 H 0.13069 0.07523 0.38903 0.0
H19 H 0.88784 0.09892 0.42237 0.0
C20 C 0.89945 0.11264 0.41789 0.0
C21 C 0.90586 0.13173 0.42654 0.0
C22 C 0.90835 0.11117 0.40371 0.0
H23 H 0.92669 0.16412 0.42754 0.0
C24 C 0.92129 0.14941 0.42076 0.0
C25 C 0.93021 0.1482 0.40653 0.0
C26 C 0.92344 0.12906 0.39801 0.0
C27 C 0.90292 0.09105 0.39521 0.0
H28 H 0.93043 0.12805 0.38713 0.0
C29 C 0.88236 0.07506 0.3921 0.0
C30 C 0.87757 0.05657 0.38321 0.0
C31 C 0.91856 0.08793 0.38984 0.0
H32 H 0.93455 0.09969 0.39239 0.0
C33 C 0.91383 0.06957 0.38119 0.0
H34 H 0.8701 0.07719 0.39607 0.0
C35 C 0.89347 0.05403 0.37777 0.0
H36 H 0.89013 0.03986 0.37104 0.0
H37 H 0.92599 0.06739 0.37709 0.0
H38 H 0.91839 0.79214 0.44395 0.0
C39 C 0.90505 0.79195 0.43795 0.0
C40 C 0.88552 0.77961 0.4431 0.0
C41 C 0.90758 0.80484 0.42562 0.0
H42 H 0.85358 0.77125 0.43979 0.0
C43 C 0.86848 0.78 0.43543 0.0
C44 C 0.87071 0.7927 0.42303 0.0
C45 C 0.89032 0.80497 0.41816 0.0
C46 C 0.92835 0.81999 0.42171 0.0
H47 H 0.89228 0.81494 0.40867 0.0
C48 C 0.94233 0.81428 0.41634 0.0
C49 C 0.96129 0.82909 0.41159 0.0
C50 C 0.93391 0.84061 0.42291 0.0
H51 H 0.92353 0.84539 0.42716 0.0
C52 C 0.95283 0.85527 0.41864 0.0
H53 H 0.93815 0.79841 0.41522 0.0
C54 C 0.96637 0.84957 0.41291 0.0
H55 H 0.98092 0.86123 0.40949 0.0
H56 H 0.95694 0.8711 0.41962 0.0
H57 H 0.1095 0.20367 0.59041 0.0
C58 C 0.09694 0.20403 0.59576 0.0
C59 C 0.08759 0.21402 0.58828 0.0
C60 C 0.08933 0.1935 0.60952 0.0
H61 H 0.06295 0.22058 0.58876 0.0
C62 C 0.07047 0.21335 0.59476 0.0
C63 C 0.06283 0.2032 0.6087 0.0
C64 C 0.07278 0.19381 0.61616 0.0
C65 C 0.09739 0.18083 0.61639 0.0
H66 H 0.06755 0.18648 0.62721 0.0
C67 C 0.11863 0.18773 0.61882 0.0
C68 C 0.12562 0.17566 0.62615 0.0
C69 C 0.08343 0.16145 0.62077 0.0
H70 H 0.06702 0.15545 0.61867 0.0
C71 C 0.09038 0.14949 0.62784 0.0
H72 H 0.12966 0.20259 0.61556 0.0
C73 C 0.11133 0.15659 0.63064 0.0
H74 H 0.11643 0.14708 0.63622 0.0
H75 H 0.07947 0.13466 0.63119 0.0
H76 H 0.78987 0.9053 0.62034 0.0
C77 C 0.78561 0.89109 0.62544 0.0
C78 C 0.77052 0.87264 0.61661 0.0
C79 C 0.79554 0.89123 0.64063 0.0
H80 H 0.75378 0.84001 0.61635 0.0
C81 C 0.76524 0.85426 0.62322 0.0
C82 C 0.77519 0.85412 0.63829 0.0
C83 C 0.79021 0.87272 0.64693 0.0
C84 C 0.8118 0.91062 0.64985 0.0
H85 H 0.79815 0.8728 0.65848 0.0
C86 C 0.80909 0.92757 0.65165 0.0
C87 C 0.82401 0.9456 0.66109 0.0
C88 C 0.82988 0.9121 0.65732 0.0
H89 H 0.83256 0.89943 0.65592 0.0
C90 C 0.84477 0.93002 0.66663 0.0
H91 H 0.7951 0.92654 0.64617 0.0
C92 C 0.84184 0.94666 0.66861 0.0
H93 H 0.85361 0.96046 0.67583 0.0
H94 H 0.85862 0.93101 0.67234 0.0
H95 H 0.08405 0.87243 0.59713 0.0
C96 C 0.09729 0.88531 0.60415 0.0
C97 C 0.11708 0.89174 0.59961 0.0
C98 C 0.09444 0.89611 0.6172 0.0
H99 H 0.14907 0.91462 0.60441 0.0
C100 C 0.134 0.90896 0.60849 0.0
C101 C 0.13145 0.9198 0.62173 0.0
C102 C 0.11156 0.91302 0.6261 0.0
C103 C 0.07353 0.89136 0.62039 0.0
H104 H 0.1092 0.92113 0.63626 0.0
C105 C 0.05856 0.87174 0.62354 0.0
C106 C 0.03868 0.86761 0.62621 0.0
C107 C 0.06845 0.90675 0.61998 0.0
H108 H 0.07969 0.92192 0.61748 0.0
C109 C 0.04875 0.90265 0.62251 0.0
H110 H 0.06237 0.8598 0.62393 0.0
C111 C 0.03393 0.88322 0.62557 0.0
H112 H 0.01879 0.88045 0.62772 0.0
H113 H 0.04497 0.91459 0.62212 0.0
H114 H 0.87698 0.4532 0.74351 0.0
C115 C 0.88032 0.44212 0.73785 0.0
C116 C 0.89027 0.43425 0.74752 0.0
C117 C 0.87353 0.43466 0.72115 0.0
H118 H 0.90076 0.41267 0.74798 0.0
C119 C 0.89366 0.41914 0.74035 0.0
C120 C 0.88738 0.41188 0.72364 0.0
C121 C 0.87774 0.42008 0.7141 0.0
C122 C 0.86077 0.44077 0.71114 0.0
H123 H 0.87315 0.41482 0.70111 0.0
C124 C 0.86582 0.46123 0.71153 0.0
C125 C 0.85418 0.46672 0.70115 0.0
C126 C 0.84348 0.42586 0.70072 0.0
H127 H 0.83891 0.40993 0.70044 0.0
C128 C 0.83184 0.43129 0.69058 0.0
H129 H 0.8791 0.47291 0.71943 0.0
C130 C 0.83722 0.45162 0.69067 0.0
H131 H 0.82797 0.45555 0.6827 0.0
H132 H 0.81863 0.41971 0.6826 0.0
H133 H 0.55729 0.43064 0.75958 0.0
C134 C 0.56897 0.44424 0.75498 0.0
C135 C 0.57447 0.4635 0.76276 0.0
C136 C 0.57881 0.44245 0.74155 0.0
H137 H 0.59426 0.49591 0.76281 0.0
C138 C 0.58981 0.48105 0.75677 0.0
C139 C 0.59982 0.47953 0.74334 0.0
C140 C 0.59408 0.46015 0.7358 0.0
C141 C 0.57388 0.4222 0.73377 0.0
H142 H 0.60188 0.45878 0.72559 0.0
C143 C 0.55338 0.40641 0.72976 0.0
C144 C 0.549 0.38782 0.72135 0.0
C145 C 0.58986 0.41884 0.72979 0.0
H146 H 0.60577 0.43054 0.73301 0.0
C147 C 0.58552 0.40034 0.72165 0.0
H148 H 0.54089 0.40881 0.73261 0.0
C149 C 0.56523 0.38496 0.71732 0.0
H150 H 0.5622 0.3707 0.71098 0.0
H151 H 0.59794 0.39794 0.71862 0.0
H152 H 0.58278 0.12516 0.77768 0.0
C153 C 0.56954 0.12508 0.77162 0.0
C154 C 0.54992 0.11265 0.77656 0.0
C155 C 0.57231 0.13823 0.75945 0.0
H156 H 0.518 0.10431 0.77298 0.0
C157 C 0.533 0.11315 0.76879 0.0
C158 C 0.53546 0.12608 0.75652 0.0
C159 C 0.55519 0.13849 0.7519 0.0
C160 C 0.59326 0.15352 0.75601 0.0
H161 H 0.55733 0.14867 0.74254 0.0
C162 C 0.60775 0.14796 0.75174 0.0
C163 C 0.62768 0.16302 0.74897 0.0
C164 C 0.59891 0.17417 0.75737 0.0
H165 H 0.58814 0.17884 0.76075 0.0
C166 C 0.6186 0.18903 0.75469 0.0
H167 H 0.60356 0.13209 0.75061 0.0
C168 C 0.63291 0.18355 0.75056 0.0
H169 H 0.64805 0.19538 0.74837 0.0
H170 H 0.62279 0.20489 0.75582 0.0
H171 H 0.7752 0.53558 0.92367 0.0
C172 C 0.7634 0.53701 0.92942 0.0
C173 C 0.75756 0.55085 0.92416 0.0
C174 C 0.7535 0.52443 0.9416 0.0
H175 H 0.73727 0.56277 0.92743 0.0
C176 C 0.74196 0.55229 0.93155 0.0
C177 C 0.73192 0.53985 0.94381 0.0
C178 C 0.73791 0.52605 0.94877 0.0
C179 C 0.75807 0.50834 0.94595 0.0
H180 H 0.72998 0.51602 0.95791 0.0
C181 C 0.77836 0.5127 0.95027 0.0
C182 C 0.7821 0.49729 0.95516 0.0
C183 C 0.74174 0.48835 0.94601 0.0
H184 H 0.72605 0.48453 0.9425 0.0
C185 C 0.74545 0.47302 0.95048 0.0
H186 H 0.79104 0.52811 0.95042 0.0
C187 C 0.76543 0.47743 0.9551 0.0
H188 H 0.76789 0.46524 0.95856 0.0
H189 H 0.73276 0.45766 0.95044 0.0
H190 H 0.4539 0.23947 0.95547 0.0
C191 C 0.45027 0.22503 0.95985 0.0
C192 C 0.43655 0.20685 0.94996 0.0
C193 C 0.45962 0.22462 0.97516 0.0
H194 H 0.42213 0.17414 0.94775 0.0
C195 C 0.43231 0.18818 0.95549 0.0
C196 C 0.44166 0.18751 0.97065 0.0
C197 C 0.45501 0.20576 0.9805 0.0
C198 C 0.47474 0.24378 0.98541 0.0
H199 H 0.46229 0.2053 0.9922 0.0
C200 C 0.47138 0.26033 0.98724 0.0
C201 C 0.4854 0.27815 0.9974 0.0
C202 C 0.49259 0.2455 0.99364 0.0
H203 H 0.49591 0.23324 0.9922 0.0
C204 C 0.50652 0.26315 1.00372 0.0
H205 H 0.4576 0.25919 0.98114 0.0
C206 C 0.50294 0.27936 1.00567 0.0
H207 H 0.51406 0.29301 0.01344 0.0
H208 H 0.52019 0.2643 0.00999 0.0
H209 H 0.74479 0.20038 0.9277 0.0
C210 C 0.75844 0.21381 0.93368 0.0
C211 C 0.77767 0.21992 0.92797 0.0
C212 C 0.75661 0.22561 0.94657 0.0
H213 H 0.80973 0.24317 0.93083 0.0
C214 C 0.79508 0.23776 0.93566 0.0
C215 C 0.79353 0.24957 0.94868 0.0
C216 C 0.77423 0.24323 0.95412 0.0
C217 C 0.73621 0.22121 0.95102 0.0
H218 H 0.77275 0.25227 0.96409 0.0
C219 C 0.72229 0.2025 0.95654 0.0
C220 C 0.70373 0.19957 0.96191 0.0
C221 C 0.73101 0.2365 0.9503 0.0
H222 H 0.7414 0.25092 0.94597 0.0
C223 C 0.71245 0.2334 0.95517 0.0
H224 H 0.72625 0.1907 0.9573 0.0
C225 C 0.69895 0.21515 0.96104 0.0
H226 H 0.68468 0.21316 0.9649 0.0
H227 H 0.7086 0.24527 0.95455 0.0
H228 H 0.54377 0.78727 0.08693 0.0
C229 C 0.54657 0.776 0.08085 0.0
C230 C 0.5611 0.77169 0.08832 0.0
C231 C 0.53502 0.76522 0.06586 0.0
H232 H 0.57431 0.75234 0.08674 0.0
C233 C 0.56401 0.75649 0.08055 0.0
C234 C 0.55266 0.74568 0.06546 0.0
C235 C 0.53861 0.7506 0.05807 0.0
C236 C 0.51798 0.76781 0.05887 0.0
H237 H 0.53002 0.74274 0.04627 0.0
C238 C 0.52082 0.78722 0.05695 0.0
C239 C 0.5046 0.7893 0.04972 0.0
C240 C 0.49864 0.75053 0.0539 0.0
H241 H 0.49599 0.73542 0.05546 0.0
C242 C 0.48248 0.75255 0.047 0.0
H243 H 0.53575 0.80059 0.06055 0.0
C244 C 0.48541 0.77178 0.04487 0.0
H245 H 0.47258 0.77296 0.03953 0.0
H246 H 0.46763 0.73917 0.04327 0.0
H247 H 0.22401 0.76436 0.09568 0.0
C248 C 0.2348 0.77773 0.09025 0.0
C249 C 0.24002 0.79717 0.09735 0.0
C250 C 0.24396 0.77545 0.07653 0.0
H251 H 0.25876 0.82948 0.09602 0.0
C252 C 0.2544 0.81444 0.09043 0.0
C253 C 0.26367 0.81244 0.07666 0.0
C254 C 0.25818 0.79288 0.06972 0.0
C255 C 0.23992 0.75505 0.06999 0.0
H256 H 0.26551 0.79121 0.05927 0.0
C257 C 0.21979 0.7382 0.06722 0.0
C258 C 0.21628 0.71907 0.0607 0.0
C259 C 0.25647 0.75239 0.06654 0.0
H260 H 0.27213 0.76496 0.06884 0.0
C261 C 0.25308 0.73345 0.06032 0.0
H262 H 0.20689 0.74012 0.06966 0.0
C263 C 0.23316 0.71691 0.05738 0.0
H264 H 0.23099 0.70232 0.05263 0.0
H265 H 0.26595 0.73156 0.05778 0.0
H266 H 0.24552 0.4595 0.10902 0.0
C267 C 0.23265 0.45814 0.10119 0.0
C268 C 0.21255 0.44628 0.10539 0.0
C269 C 0.23634 0.4698 0.08779 0.0
H270 H 0.18068 0.43665 0.09896 0.0
C271 C 0.19611 0.44553 0.09558 0.0
C272 C 0.19948 0.45687 0.08202 0.0
C273 C 0.2197 0.46892 0.07822 0.0
C274 C 0.25756 0.48544 0.0854 0.0
H275 H 0.22266 0.47809 0.068 0.0
C276 C 0.27266 0.4804 0.08203 0.0
C277 C 0.29279 0.49591 0.08023 0.0
C278 C 0.26274 0.50595 0.08684 0.0
H279 H 0.25139 0.51015 0.08949 0.0
C280 C 0.28262 0.52124 0.08516 0.0
H281 H 0.2688 0.46463 0.08082 0.0
C282 C 0.29757 0.5163 0.08192 0.0
H283 H 0.31288 0.52845 0.08049 0.0
H284 H 0.28646 0.53699 0.08636 0.0
H285 H 0.44432 0.87119 0.25946 0.0
C286 C 0.43273 0.87232 0.26582 0.0
C287 C 0.42564 0.88528 0.26076 0.0
C288 C 0.42437 0.86016 0.27859 0.0
H289 H 0.40419 0.89559 0.26457 0.0
C290 C 0.41023 0.88623 0.26887 0.0
C291 C 0.40167 0.87419 0.28175 0.0
C292 C 0.40909 0.8614 0.2866 0.0
C293 C 0.43004 0.84468 0.28251 0.0
H294 H 0.40284 0.85217 0.29659 0.0
C295 C 0.45073 0.8496 0.28503 0.0
C296 C 0.45563 0.8344 0.28807 0.0
C297 C 0.41441 0.82449 0.2832 0.0
H298 H 0.3984 0.82024 0.28113 0.0
C299 C 0.41924 0.80946 0.28619 0.0
H300 H 0.46292 0.86511 0.28457 0.0
C301 C 0.43968 0.81433 0.28856 0.0
H302 H 0.44304 0.80241 0.29101 0.0
H303 H 0.40708 0.79395 0.28664 0.0
H304 H 0.12055 0.56829 0.27911 0.0
C305 C 0.11676 0.55448 0.28473 0.0
C306 C 0.1008 0.53572 0.27704 0.0
C307 C 0.12834 0.55545 0.29926 0.0
H308 H 0.08435 0.50324 0.27806 0.0
C309 C 0.09632 0.51781 0.28415 0.0
C310 C 0.1078 0.51851 0.29865 0.0
C311 C 0.1236 0.53741 0.30622 0.0
C312 C 0.14623 0.5751 0.30658 0.0
H313 H 0.13273 0.53804 0.31726 0.0
C314 C 0.14494 0.5929 0.30803 0.0
C315 C 0.16203 0.61157 0.31476 0.0
C316 C 0.16487 0.57617 0.3119 0.0
H317 H 0.16644 0.5628 0.31066 0.0
C318 C 0.18185 0.59463 0.31854 0.0
H319 H 0.13053 0.59213 0.30425 0.0
C320 C 0.18049 0.61223 0.31996 0.0
H321 H 0.19401 0.62642 0.32494 0.0
H322 H 0.19616 0.59533 0.32249 0.0
H323 H 0.41674 0.5373 0.26246 0.0
C324 C 0.43019 0.55004 0.26939 0.0
C325 C 0.44984 0.55605 0.26468 0.0
C326 C 0.42776 0.5611 0.28252 0.0
H327 H 0.482 0.57859 0.26918 0.0
C328 C 0.46704 0.57318 0.27341 0.0
C329 C 0.46494 0.58425 0.28672 0.0
C330 C 0.44521 0.57777 0.29135 0.0
C331 C 0.40708 0.55703 0.28591 0.0
H332 H 0.44325 0.58601 0.30164 0.0
C333 C 0.39129 0.53741 0.28833 0.0
C334 C 0.37184 0.53417 0.29164 0.0
C335 C 0.40315 0.57323 0.28666 0.0
H336 H 0.41494 0.5884 0.28465 0.0
C337 C 0.38397 0.57007 0.28984 0.0
H338 H 0.39419 0.52483 0.28774 0.0
C339 C 0.36845 0.55075 0.29236 0.0
H340 H 0.35383 0.54886 0.29518 0.0
H341 H 0.38116 0.58269 0.29044 0.0
Eu342 Eu 0.48206 0.99201 0.99875 0.0
Eu343 Eu 0.49394 0.00819 0.03881 0.0
C344 C 0.47731 0.02877 0.01344 0.0
C345 C 0.48139 0.99134 0.95208 0.0
C346 C 0.49255 0.01263 0.95281 0.0
C347 C 0.4841 0.98913 0.92272 0.0
C348 C 0.49936 0.02212 0.93855 0.0
C349 C 0.47725 0.97967 0.93698 0.0
C350 C 0.49521 0.01049 0.9233 0.0
C351 C 0.47422 0.98116 0.96699 0.0
O352 O 0.46467 0.97815 0.03679 0.0
O353 O 0.45205 0.97667 0.0101 0.0
C354 C 0.44938 0.97085 0.02502 0.0
O355 O 0.48396 0.96735 0.01091 0.0
O356 O 0.4856 0.01714 0.06155 0.0
O357 O 0.51468 0.01796 0.06161 0.0
O358 O 0.50535 0.98621 0.03421 0.0
C359 C 0.49672 0.96975 0.02367 0.0
O360 O 0.51645 0.01265 1.00296 0.0
O361 O 0.51903 0.03248 0.02619 0.0
O362 O 0.47613 0.02214 0.028 0.0
O363 O 0.48774 0.97936 0.9764 0.0
O364 O 0.46346 0.98671 0.97546 0.0
O365 O 0.48413 0.0224 1.00152 0.0
C366 C 0.49759 0.0094 0.0859 0.0
C367 C 0.50227 0.99407 0.08872 0.0
C368 C 0.4837 0.00546 0.11227 0.0
C369 C 0.49777 0.98459 0.10326 0.0
C370 C 0.48834 0.01502 0.09782 0.0
C371 C 0.48835 0.99011 0.11522 0.0
C372 C 0.50165 0.01937 0.07052 0.0
C373 C 0.52667 0.02943 0.01308 0.0
H374 H 0.49594 0.0219 0.96441 0.0
H375 H 0.48089 0.97967 0.91128 0.0
H376 H 0.50764 0.03858 0.93944 0.0
H377 H 0.46878 0.96321 0.93622 0.0
H378 H 0.50933 0.98934 0.0797 0.0
H379 H 0.4761 0.00989 0.12099 0.0
H380 H 0.50183 0.97304 0.10515 0.0
H381 H 0.48446 0.02671 0.09587 0.0
Eu382 Eu 0.00512 0.49018 0.99276 0.0
Eu383 Eu 0.99228 0.48507 0.03079 0.0
C384 C 0.96852 0.44812 1.00189 0.0
C385 C 0.00267 0.4911 0.94634 0.0
C386 C 0.98114 0.48077 0.94453 0.0
C387 C 0.0025 0.49562 0.91726 0.0
C388 C 0.97033 0.47768 0.9291 0.0
C389 C 0.01329 0.49862 0.93268 0.0
C390 C 0.9809 0.48499 0.91528 0.0
C391 C 0.01414 0.49419 0.96244 0.0
O392 O 0.02259 0.48612 0.03218 0.0
O393 O 0.02206 0.47605 1.00506 0.0
C394 C 0.02941 0.47909 0.02065 0.0
O395 O 0.03109 0.5168 0.00848 0.0
O396 O 0.98652 0.46871 0.05263 0.0
O397 O 0.9811 0.49407 0.05171 0.0
O398 O 0.01445 0.51872 0.03035 0.0
C399 C 0.03004 0.52689 0.02156 0.0
O400 O 0.98391 0.50294 0.99489 0.0
O401 O 0.96642 0.48504 0.01553 0.0
O402 O 0.97658 0.45342 0.01734 0.0
O403 O 0.0162 0.50908 0.97261 0.0
O404 O 0.00941 0.47782 0.96965 0.0
O405 O 0.97466 0.46127 0.99096 0.0
C406 C 0.99071 0.48764 0.07787 0.0
C407 C 0.00709 0.50746 0.08261 0.0
C408 C 0.99095 0.48014 0.10625 0.0
C409 C 0.01524 0.51362 0.09915 0.0
C410 C 0.98276 0.47406 0.08977 0.0
C411 C 0.00722 0.50002 0.11117 0.0
C412 C 0.98161 0.48068 0.06066 0.0
C413 C 0.96791 0.49584 1.00325 0.0
H414 H 0.97272 0.47503 0.95503 0.0
H415 H 0.01106 0.50122 0.90681 0.0
H416 H 0.95371 0.46964 0.928 0.0
H417 H 0.02992 0.50667 0.93391 0.0
H418 H 0.01352 0.51816 0.07357 0.0
H419 H 0.98468 0.46914 0.11509 0.0
H420 H 0.02765 0.52908 0.10252 0.0
H421 H 0.97021 0.45867 0.08631 0.0
Eu422 Eu 0.51892 0.51353 0.03263 0.0
Eu423 Eu 0.50045 0.50919 0.99386 0.0
C424 C 0.52425 0.5516 0.01556 0.0
C425 C 0.52204 0.5153 0.07943 0.0
C426 C 0.5083 0.52236 0.08173 0.0
C427 C 0.51918 0.50565 0.10733 0.0
C428 C 0.50041 0.52147 0.09682 0.0
C429 C 0.52723 0.50673 0.09227 0.0
C430 C 0.50589 0.51328 0.1099 0.0
C431 C 0.53136 0.51718 0.06389 0.0
O432 O 0.53418 0.51995 0.99333 0.0
O433 O 0.5422 0.51133 0.01814 0.0
C434 C 0.54657 0.51694 1.00335 0.0
O435 O 0.49689 0.48035 0.02467 0.0
O436 O 0.50155 0.52357 0.97139 0.0
O437 O 0.47914 0.49173 0.97199 0.0
O438 O 0.50171 0.48083 0.99744 0.0
C439 C 0.49636 0.47102 0.01051 0.0
O440 O 0.48984 0.51472 0.03376 0.0
O441 O 0.47295 0.49871 0.00823 0.0
O442 O 0.50704 0.53924 0.00632 0.0
O443 O 0.52467 0.50049 0.05414 0.0
O444 O 0.53381 0.53238 0.05586 0.0
O445 O 0.53449 0.54444 0.0235 0.0
C446 C 0.49315 0.50202 0.9466 0.0
C447 C 0.48788 0.48213 0.94072 0.0
C448 C 0.50885 0.5139 0.92148 0.0
C449 C 0.4931 0.4782 0.92539 0.0
C450 C 0.50355 0.51781 0.93675 0.0
C451 C 0.5037 0.49404 0.91558 0.0
C452 C 0.48785 0.5066 0.96281 0.0
C453 C 0.47293 0.5052 0.02349 0.0
H454 H 0.50394 0.52892 0.07196 0.0
H455 H 0.52345 0.49888 0.11698 0.0
H456 H 0.49046 0.52774 0.09834 0.0
H457 H 0.53766 0.50104 0.09069 0.0
H458 H 0.47972 0.46956 0.94793 0.0
H459 H 0.51726 0.52654 0.9144 0.0
H460 H 0.4886 0.46267 0.92115 0.0
H461 H 0.50772 0.53327 0.9409 0.0
Eu462 Eu 0.15071 0.32687 0.32976 0.0
Eu463 Eu 0.16374 0.34288 0.3698 0.0
C464 C 0.14601 0.3634 0.3453 0.0
C465 C 0.14934 0.32727 0.28312 0.0
C466 C 0.15657 0.34821 0.28347 0.0
C467 C 0.15528 0.32632 0.25434 0.0
C468 C 0.16289 0.35809 0.2693 0.0
C469 C 0.14883 0.31644 0.2685 0.0
C470 C 0.16229 0.34724 0.25454 0.0
C471 C 0.14258 0.31665 0.29793 0.0
O472 O 0.13447 0.31294 0.36802 0.0
O473 O 0.12103 0.31127 0.34156 0.0
C474 C 0.11886 0.30558 0.35654 0.0
O475 O 0.15256 0.30193 0.34147 0.0
O476 O 0.15676 0.35223 0.39302 0.0
O477 O 0.18478 0.35119 0.39231 0.0
O478 O 0.17513 0.32108 0.36411 0.0
C479 C 0.16585 0.3044 0.35383 0.0
O480 O 0.18517 0.34727 0.33378 0.0
O481 O 0.1882 0.36739 0.35695 0.0
O482 O 0.1456 0.35695 0.35988 0.0
O483 O 0.1564 0.31495 0.307 0.0
O484 O 0.1316 0.32151 0.30677 0.0
O485 O 0.15247 0.35709 0.33306 0.0
C486 C 0.16759 0.34174 0.41614 0.0
C487 C 0.15373 0.32071 0.41435 0.0
C488 C 0.17073 0.34122 0.44582 0.0
C489 C 0.14819 0.31005 0.42822 0.0
C490 C 0.17617 0.3519 0.43193 0.0
C491 C 0.1565 0.3202 0.44415 0.0
C492 C 0.17242 0.3532 0.40163 0.0
C493 C 0.19555 0.36421 0.34371 0.0
H494 H 0.15731 0.35693 0.2947 0.0
H495 H 0.15443 0.31749 0.24315 0.0
H496 H 0.16845 0.37426 0.26992 0.0
H497 H 0.14337 0.30029 0.26801 0.0
H498 H 0.147 0.31259 0.40223 0.0
H499 H 0.17725 0.34953 0.4579 0.0
H500 H 0.13741 0.29384 0.42647 0.0
H501 H 0.18684 0.36814 0.43354 0.0
Eu502 Eu 0.67295 0.8187 0.33122 0.0
Eu503 Eu 0.66171 0.82227 0.36907 0.0
C504 C 0.63839 0.78096 0.3459 0.0
C505 C 0.67402 0.8183 0.28452 0.0
C506 C 0.66259 0.82814 0.28281 0.0
C507 C 0.67103 0.81196 0.25482 0.0
C508 C 0.6553 0.82976 0.26713 0.0
C509 C 0.67836 0.81042 0.27047 0.0
C510 C 0.65922 0.82146 0.25294 0.0
C511 C 0.68035 0.81494 0.30081 0.0
O512 O 0.6841 0.81068 0.37124 0.0
O513 O 0.69868 0.81917 0.347 0.0
C514 C 0.69852 0.81334 0.36181 0.0
O515 O 0.68695 0.85212 0.33968 0.0
O516 O 0.65052 0.80772 0.39132 0.0
O517 O 0.65767 0.83885 0.38967 0.0
O518 O 0.69185 0.85045 0.3673 0.0
C519 C 0.6963 0.86081 0.35446 0.0
O520 O 0.64391 0.82024 0.32815 0.0
O521 O 0.64574 0.83521 0.35387 0.0
O522 O 0.63561 0.79383 0.35508 0.0
O523 O 0.69187 0.83103 0.31118 0.0
O524 O 0.66594 0.80035 0.30774 0.0
O525 O 0.65564 0.78723 0.33937 0.0
C526 C 0.66297 0.8298 0.41614 0.0
C527 C 0.6796 0.84938 0.42134 0.0
C528 C 0.66474 0.82033 0.44379 0.0
C529 C 0.6886 0.85442 0.43767 0.0
C530 C 0.65567 0.81535 0.4275 0.0
C531 C 0.68125 0.83997 0.44911 0.0
C532 C 0.65271 0.82424 0.39913 0.0
C533 C 0.63804 0.82983 0.33832 0.0
H534 H 0.65903 0.83423 0.29358 0.0
H535 H 0.67404 0.80507 0.24422 0.0
H536 H 0.64644 0.83736 0.26613 0.0
H537 H 0.68701 0.80262 0.27161 0.0
H538 H 0.68558 0.86088 0.41286 0.0
H539 H 0.65891 0.8087 0.45217 0.0
H540 H 0.70111 0.86975 0.44137 0.0
H541 H 0.64287 0.80016 0.42378 0.0
Eu542 Eu 0.18557 0.84104 0.36906 0.0
Eu543 Eu 0.17197 0.84387 0.33026 0.0
C544 C 0.18863 0.88177 0.35821 0.0
C545 C 0.18787 0.84112 0.41569 0.0
C546 C 0.17738 0.85189 0.41737 0.0
C547 C 0.18449 0.83433 0.44425 0.0
C548 C 0.17062 0.85399 0.43246 0.0
C549 C 0.19132 0.83232 0.42918 0.0
C550 C 0.1741 0.84524 0.44611 0.0
C551 C 0.1948 0.83852 0.39985 0.0
O552 O 0.2018 0.84416 0.32988 0.0
O553 O 0.21509 0.85566 0.35695 0.0
C554 C 0.21737 0.85229 0.34146 0.0
O555 O 0.18416 0.81471 0.35427 0.0
O556 O 0.17881 0.8606 0.30863 0.0
O557 O 0.15027 0.83201 0.30794 0.0
O558 O 0.1617 0.81072 0.33216 0.0
C559 C 0.17112 0.80366 0.34144 0.0
O560 O 0.15105 0.82716 0.36643 0.0
O561 O 0.14721 0.84303 0.34464 0.0
O562 O 0.18921 0.87595 0.34293 0.0
O563 O 0.18138 0.82296 0.3897 0.0
O564 O 0.20475 0.8549 0.39246 0.0
O565 O 0.18308 0.86909 0.36948 0.0
C566 C 0.16588 0.84054 0.28304 0.0
C567 C 0.16283 0.82106 0.27864 0.0
C568 C 0.17708 0.85017 0.25619 0.0
C569 C 0.1668 0.81617 0.26307 0.0
C570 C 0.17295 0.85498 0.27167 0.0
C571 C 0.17408 0.8307 0.25165 0.0
C572 C 0.16251 0.84646 0.29951 0.0
C573 C 0.14025 0.83306 0.35747 0.0
H574 H 0.17447 0.85869 0.40702 0.0
H575 H 0.18714 0.82711 0.4544 0.0
H576 H 0.1629 0.8627 0.43348 0.0
H577 H 0.19921 0.82378 0.42803 0.0
H578 H 0.15749 0.80965 0.28723 0.0
H579 H 0.18304 0.8619 0.2479 0.0
H580 H 0.16407 0.80096 0.25996 0.0
H581 H 0.17556 0.87014 0.27487 0.0
Eu582 Eu 0.81725 0.66145 0.66586 0.0
Eu583 Eu 0.83133 0.67871 0.70562 0.0
C584 C 0.81007 0.69662 0.68205 0.0
C585 C 0.81489 0.65998 0.61913 0.0
C586 C 0.82545 0.68128 0.61986 0.0
C587 C 0.8175 0.65798 0.58974 0.0
C588 C 0.83203 0.69088 0.6056 0.0
C589 C 0.81088 0.64841 0.60399 0.0
C590 C 0.82828 0.67934 0.59038 0.0
C591 C 0.80906 0.64975 0.63418 0.0
O592 O 0.79745 0.65605 0.7032 0.0
O593 O 0.79308 0.63682 0.67891 0.0
C594 C 0.78666 0.63951 0.69288 0.0
O595 O 0.83795 0.65041 0.67609 0.0
O596 O 0.82637 0.69052 0.72878 0.0
O597 O 0.85257 0.68624 0.72774 0.0
O598 O 0.8303 0.64878 0.70263 0.0
C599 C 0.83715 0.64312 0.6903 0.0
O600 O 0.8443 0.693 0.66695 0.0
O601 O 0.85983 0.6948 0.69251 0.0
O602 O 0.82444 0.70107 0.69416 0.0
O603 O 0.82396 0.6501 0.64343 0.0
O604 O 0.79722 0.65351 0.64283 0.0
O605 O 0.80253 0.68009 0.67173 0.0
C606 C 0.83628 0.6796 0.7524 0.0
C607 C 0.84061 0.66406 0.75532 0.0
C608 C 0.82112 0.67506 0.77826 0.0
C609 C 0.83529 0.65416 0.76958 0.0
C610 C 0.82659 0.68506 0.76406 0.0
C611 C 0.82537 0.65944 0.78121 0.0
C612 C 0.84133 0.68997 0.73722 0.0
C613 C 0.86064 0.70093 0.67775 0.0
H614 H 0.82887 0.69047 0.63149 0.0
H615 H 0.81413 0.64864 0.5782 0.0
H616 H 0.84049 0.70734 0.60657 0.0
H617 H 0.80282 0.63195 0.60322 0.0
H618 H 0.84806 0.65944 0.74657 0.0
H619 H 0.81323 0.67936 0.78678 0.0
H620 H 0.83912 0.64245 0.77152 0.0
H621 H 0.82303 0.69695 0.76209 0.0
Eu622 Eu 0.3397 0.15463 0.6642 0.0
Eu623 Eu 0.3285 0.15819 0.70223 0.0
C624 C 0.30457 0.11714 0.67886 0.0
C625 C 0.34319 0.15567 0.61766 0.0
C626 C 0.34898 0.14884 0.60389 0.0
C627 C 0.32722 0.16941 0.59977 0.0
C628 C 0.34372 0.15202 0.58811 0.0
C629 C 0.33248 0.16617 0.61558 0.0
C630 C 0.33256 0.16213 0.58582 0.0
C631 C 0.34735 0.15058 0.63393 0.0
O632 O 0.35012 0.14569 0.70415 0.0
O633 O 0.36501 0.15447 0.68009 0.0
C634 C 0.36456 0.14829 0.69477 0.0
O635 O 0.35414 0.18806 0.67262 0.0
O636 O 0.31745 0.14377 0.72456 0.0
O637 O 0.32505 0.17504 0.72297 0.0
O638 O 0.35873 0.18619 0.70027 0.0
C639 C 0.36338 0.19659 0.68745 0.0
O640 O 0.31189 0.15828 0.66095 0.0
O641 O 0.3121 0.17085 0.68729 0.0
O642 O 0.30208 0.13014 0.68816 0.0
O643 O 0.35995 0.1657 0.64479 0.0
O644 O 0.33136 0.13699 0.64023 0.0
O645 O 0.32172 0.12316 0.67224 0.0
C646 C 0.33054 0.16594 0.7494 0.0
C647 C 0.34596 0.18599 0.75498 0.0
C648 C 0.3337 0.15599 0.77665 0.0
C649 C 0.35506 0.19099 0.77128 0.0
C650 C 0.32453 0.15102 0.76039 0.0
C651 C 0.34897 0.17608 0.78234 0.0
C652 C 0.32005 0.16043 0.73244 0.0
C653 C 0.30544 0.16694 0.6715 0.0
H654 H 0.35713 0.14058 0.60531 0.0
H655 H 0.31881 0.17741 0.59846 0.0
H656 H 0.34777 0.14589 0.57768 0.0
H657 H 0.32786 0.1715 0.62614 0.0
H658 H 0.35089 0.19789 0.74684 0.0
H659 H 0.32887 0.14404 0.78473 0.0
H660 H 0.36657 0.20666 0.77529 0.0
H661 H 0.31264 0.13547 0.75641 0.0
Eu662 Eu 0.84967 0.17695 0.69774 0.0
Eu663 Eu 0.83178 0.17331 0.65893 0.0
C664 C 0.85552 0.21544 0.68086 0.0
C665 C 0.85213 0.17851 0.74441 0.0
C666 C 0.83712 0.18411 0.74567 0.0
C667 C 0.84956 0.17066 0.77281 0.0
C668 C 0.82862 0.18329 0.76046 0.0
C669 C 0.85815 0.17162 0.75802 0.0
C670 C 0.83481 0.17668 0.77428 0.0
C671 C 0.86172 0.18006 0.72905 0.0
O672 O 0.86576 0.18492 0.65898 0.0
O673 O 0.87252 0.17409 0.68306 0.0
C674 C 0.87755 0.18081 0.66867 0.0
O675 O 0.82741 0.14397 0.68941 0.0
O676 O 0.83301 0.18773 0.63646 0.0
O677 O 0.81089 0.1558 0.63688 0.0
O678 O 0.8332 0.14502 0.66241 0.0
C679 C 0.82742 0.13492 0.67529 0.0
O680 O 0.82077 0.17849 0.69878 0.0
O681 O 0.80412 0.16283 0.67312 0.0
O682 O 0.83838 0.20329 0.67146 0.0
O683 O 0.85446 0.16333 0.71923 0.0
O684 O 0.86497 0.19551 0.72105 0.0
O685 O 0.86546 0.20805 0.68896 0.0
C686 C 0.82514 0.16628 0.61202 0.0
C687 C 0.84059 0.1612 0.61155 0.0
C688 C 0.82143 0.16395 0.58215 0.0
C689 C 0.84646 0.15753 0.59644 0.0
C690 C 0.81557 0.16757 0.59725 0.0
C691 C 0.83701 0.15896 0.58155 0.0
C692 C 0.81933 0.17082 0.62782 0.0
C693 C 0.80396 0.16916 0.6884 0.0
H694 H 0.83216 0.1894 0.73528 0.0
H695 H 0.85445 0.16516 0.78307 0.0
H696 H 0.81755 0.18832 0.76113 0.0
H697 H 0.8696 0.16709 0.75725 0.0
H698 H 0.84824 0.16026 0.62287 0.0
H699 H 0.81366 0.16491 0.57093 0.0
H700 H 0.85866 0.15397 0.59644 0.0
H701 H 0.80362 0.17149 0.59741 0.0
C702 C 0.28099 0.83178 0.05316 0.0
C703 C 0.28022 0.83064 0.07021 0.0
C704 C 0.29755 0.84806 0.04712 0.0
C705 C 0.34236 0.9 0.05971 0.0
H706 H 0.36491 0.88738 0.02258 0.0
C707 C 0.42504 0.95233 0.04539 0.0
C708 C 0.42865 0.95561 0.0289 0.0
C709 C 0.4057 0.93802 0.04932 0.0
C710 C 0.35863 0.89121 0.0328 0.0
H711 H 0.29617 0.8458 0.09426 0.0
H712 H 0.32509 0.87401 0.0838 0.0
H713 H 0.33324 0.86084 0.03156 0.0
H714 H 0.41463 0.94634 1.0036 0.0
H715 H 0.38072 0.92103 0.01051 0.0
H716 H 0.36816 0.93021 0.06125 0.0
C717 C 0.31273 0.8626 0.07504 0.0
C718 C 0.34044 0.87601 0.03796 0.0
C719 C 0.29613 0.84639 0.08107 0.0
C720 C 0.41237 0.9442 0.01641 0.0
C721 C 0.39299 0.92966 0.02036 0.0
C722 C 0.36061 0.91513 0.05463 0.0
C723 C 0.3138 0.86354 0.05798 0.0
C724 C 0.33223 0.88012 0.05165 0.0
C725 C 0.38945 0.92646 0.03688 0.0
C726 C 0.36912 0.91084 0.04128 0.0
H727 H 0.26884 0.81999 0.04448 0.0
H728 H 0.29765 0.84844 0.03392 0.0
H729 H 0.33629 0.90386 0.07006 0.0
H730 H 0.43718 0.96086 0.05535 0.0
H731 H 0.40356 0.93573 0.06214 0.0
C732 C 0.18439 0.47588 0.06815 0.0
C733 C 0.18204 0.45743 0.07284 0.0
C734 C 0.16764 0.47675 0.06075 0.0
C735 C 0.11139 0.45055 0.05836 0.0
H736 H 0.11617 0.48391 0.02303 0.0
C737 C 0.05221 0.47539 0.04218 0.0
C738 C 0.04617 0.47492 0.02545 0.0
C739 C 0.06823 0.47191 0.04687 0.0
C740 C 0.11453 0.47438 0.0328 0.0
H741 H 0.16027 0.42524 0.07273 0.0
H742 H 0.13101 0.42684 0.06001 0.0
H743 H 0.14532 0.4801 0.0326 0.0
H744 H 0.05232 0.47034 1.00052 0.0
H745 H 0.08043 0.46434 0.00876 0.0
H746 H 0.0807 0.44496 0.05867 0.0
C747 C 0.14581 0.44068 0.06223 0.0
C748 C 0.13128 0.47235 0.03838 0.0
C749 C 0.16259 0.43977 0.06954 0.0
C750 C 0.05654 0.4708 0.01352 0.0
C751 C 0.07273 0.46747 0.01823 0.0
C752 C 0.09472 0.45271 0.05287 0.0
C753 C 0.14808 0.45923 0.05794 0.0
C754 C 0.12996 0.46053 0.05132 0.0
C755 C 0.07875 0.46799 0.03497 0.0
C756 C 0.09614 0.4648 0.04013 0.0
H757 H 0.19902 0.48986 0.07074 0.0
H758 H 0.16987 0.49134 0.0578 0.0
H759 H 0.10991 0.44149 0.06845 0.0
H760 H 0.0446 0.47851 0.05173 0.0
H761 H 0.07265 0.47266 0.05987 0.0
C762 C 0.53633 0.71082 0.05017 0.0
C763 C 0.55408 0.72815 0.05805 0.0
C764 C 0.53725 0.69411 0.04347 0.0
C765 C 0.54682 0.66612 0.02262 0.0
H766 H 0.56506 0.6395 0.05279 0.0
C767 C 0.51876 0.58099 0.01224 0.0
C768 C 0.53155 0.57362 0.01783 0.0
C769 C 0.52502 0.60156 0.01535 0.0
C770 C 0.56034 0.64691 0.04404 0.0
H771 H 0.58679 0.74131 0.065 0.0
H772 H 0.5881 0.71148 0.05384 0.0
H773 H 0.57035 0.67311 0.06139 0.0
H774 H 0.56132 0.58219 0.03049 0.0
H775 H 0.57246 0.61822 0.0356 0.0
H776 H 0.5366 0.63999 1.00531 0.0
C777 C 0.5736 0.71121 0.0527 0.0
C778 C 0.56336 0.66615 0.04901 0.0
C779 C 0.57278 0.72818 0.05917 0.0
C780 C 0.55103 0.58738 0.02614 0.0
C781 C 0.55738 0.60802 0.02914 0.0
C782 C 0.54404 0.64702 0.01757 0.0
C783 C 0.55582 0.69408 0.04476 0.0
C784 C 0.55602 0.6756 0.03852 0.0
C785 C 0.54432 0.61532 0.02399 0.0
C786 C 0.55012 0.63686 0.02842 0.0
H787 H 0.5215 0.70984 0.04949 0.0
H788 H 0.52323 0.6809 0.03772 0.0
H789 H 0.54124 0.67325 0.01426 0.0
H790 H 0.50362 0.57078 1.00586 0.0
H791 H 0.51437 0.60651 0.01146 0.0
C792 C 0.80975 0.28657 0.95902 0.0
C793 C 0.81172 0.26936 0.95564 0.0
C794 C 0.82693 0.30544 0.96468 0.0
C795 C 0.88088 0.33028 0.9837 0.0
H796 H 0.88455 0.37759 0.96533 0.0
C797 C 0.94327 0.41293 0.00836 0.0
C798 C 0.95159 0.42702 0.99676 0.0
C799 C 0.92669 0.39333 1.00355 0.0
C800 C 0.88389 0.36454 0.97049 0.0
H801 H 0.83333 0.25846 0.95597 0.0
H802 H 0.86342 0.29152 0.96554 0.0
H803 H 0.85489 0.34417 0.95668 0.0
H804 H 0.94927 0.43131 0.97088 0.0
H805 H 0.92063 0.39717 0.96249 0.0
H806 H 0.91017 0.3507 0.99725 0.0
C807 C 0.84851 0.29035 0.96397 0.0
C808 C 0.86671 0.34538 0.96569 0.0
C809 C 0.83129 0.27144 0.95832 0.0
C810 C 0.94318 0.42093 0.98019 0.0
C811 C 0.92666 0.40136 0.97538 0.0
C812 C 0.8981 0.34949 0.98851 0.0
C813 C 0.84657 0.30763 0.96704 0.0
C814 C 0.86495 0.328 0.97225 0.0
C815 C 0.91805 0.38737 0.98701 0.0
C816 C 0.89982 0.36686 0.98194 0.0
H817 H 0.79499 0.28563 0.9569 0.0
H818 H 0.82481 0.31835 0.96714 0.0
H819 H 0.87995 0.31725 0.9891 0.0
H820 H 0.94933 0.41711 0.02124 0.0
H821 H 0.92032 0.38303 0.01286 0.0
C822 C 0.71171 0.53824 0.96751 0.0
C823 C 0.7143 0.54019 0.95072 0.0
C824 C 0.69437 0.537 0.97375 0.0
C825 C 0.65188 0.54736 0.9649 0.0
H826 H 0.62418 0.50626 0.99435 0.0
C827 C 0.57056 0.52453 0.98155 0.0
C828 C 0.56621 0.52021 0.99777 0.0
C829 C 0.58904 0.52767 0.97625 0.0
C830 C 0.63185 0.51802 0.98633 0.0
H831 H 0.70064 0.54254 0.92739 0.0
H832 H 0.67055 0.54059 0.9383 0.0
H833 H 0.65587 0.51104 0.98452 0.0
H834 H 0.57811 0.51595 0.02114 0.0
H835 H 0.61043 0.52171 0.01197 0.0
H836 H 0.62788 0.55435 0.96669 0.0
C837 C 0.68204 0.54022 0.94668 0.0
C838 C 0.65005 0.52075 0.98068 0.0
C839 C 0.69935 0.54138 0.94042 0.0
C840 C 0.58086 0.51914 0.00855 0.0
C841 C 0.59939 0.52235 1.00326 0.0
C842 C 0.63372 0.54468 0.97059 0.0
C843 C 0.67921 0.53776 0.96338 0.0
C844 C 0.66023 0.53538 0.96982 0.0
C845 C 0.60373 0.52665 0.98703 0.0
C846 C 0.62339 0.52988 0.98131 0.0
H847 H 0.72307 0.5376 0.97585 0.0
H848 H 0.69285 0.53546 0.98673 0.0
H849 H 0.65949 0.55896 0.95674 0.0
H850 H 0.55962 0.52537 0.97285 0.0
H851 H 0.59167 0.5306 0.9636 0.0
C852 C 0.43675 0.16362 0.99206 0.0
C853 C 0.43901 0.16801 0.97563 0.0
C854 C 0.43677 0.14642 0.99709 0.0
C855 C 0.43287 0.09769 0.98147 0.0
H856 H 0.46866 0.10732 0.0213 0.0
C857 C 0.46939 0.04879 0.99414 0.0
C858 C 0.47043 0.04345 0.01018 0.0
C859 C 0.46265 0.06238 0.99087 0.0
C860 C 0.45835 0.10427 0.0103 0.0
H861 H 0.44251 0.15753 0.95152 0.0
H862 H 0.4426 0.12764 0.96025 0.0
H863 H 0.46115 0.1336 0.0138 0.0
H864 H 0.46517 0.04821 0.03538 0.0
H865 H 0.4535 0.07216 0.02963 0.0
H866 H 0.43067 0.06862 0.97771 0.0
C867 C 0.44048 0.13726 0.96923 0.0
C868 C 0.45399 0.1193 1.00601 0.0
C869 C 0.44043 0.15441 0.96421 0.0
C870 C 0.46458 0.05204 0.02289 0.0
C871 C 0.45795 0.06578 0.01962 0.0
C872 C 0.43729 0.0827 0.98573 0.0
C873 C 0.43907 0.13328 0.98579 0.0
C874 C 0.44156 0.11636 0.99136 0.0
C875 C 0.45687 0.07104 1.00356 0.0
C876 C 0.45043 0.08601 1.0 0.0
H877 H 0.43534 0.1737 1.0011 0.0
H878 H 0.43533 0.1436 0.00989 0.0
H879 H 0.42294 0.09481 0.97027 0.0
H880 H 0.47375 0.04245 0.98404 0.0
H881 H 0.46231 0.0664 0.97842 0.0
C882 C 0.68211 0.18218 0.98401 0.0
C883 C 0.68929 0.18073 0.96889 0.0
C884 C 0.66637 0.165 0.98973 0.0
C885 C 0.63578 0.10847 0.98375 0.0
H886 H 0.59468 0.11754 1.00219 0.0
C887 C 0.55506 0.04325 0.99476 0.0
C888 C 0.54691 0.04569 0.00912 0.0
C889 C 0.57354 0.05904 0.99053 0.0
C890 C 0.60612 0.11475 0.99729 0.0
H891 H 0.68637 0.16005 0.94826 0.0
H892 H 0.65845 0.12982 0.95813 0.0
H893 H 0.62503 0.14599 0.99366 0.0
H894 H 0.55223 0.06656 0.03054 0.0
H895 H 0.58445 0.09398 0.02321 0.0
H896 H 0.61647 0.07703 0.98718 0.0
C897 C 0.66517 0.14426 0.96566 0.0
C898 C 0.62359 0.13111 0.9924 0.0
C899 C 0.68113 0.16153 0.95998 0.0
C900 C 0.55795 0.06414 0.01934 0.0
C901 C 0.5764 0.07993 0.0151 0.0
C902 C 0.6182 0.09203 0.98862 0.0
C903 C 0.65722 0.14591 0.9804 0.0
C904 C 0.63872 0.12824 0.98564 0.0
C905 C 0.5843 0.07767 1.00054 0.0
C906 C 0.60319 0.09501 0.9955 0.0
H907 H 0.68836 0.19678 0.99123 0.0
H908 H 0.66107 0.16678 1.00135 0.0
H909 H 0.64718 0.10572 0.97871 0.0
H910 H 0.54697 0.02926 0.98657 0.0
H911 H 0.57908 0.05685 0.97916 0.0
C912 C 0.80647 0.49398 0.97513 0.0
C913 C 0.80311 0.50154 0.96073 0.0
C914 C 0.82541 0.4956 0.97957 0.0
C915 C 0.88021 0.52116 0.97224 0.0
H916 H 0.87628 0.47232 0.98766 0.0
C917 C 0.95009 0.50845 0.98412 0.0
C918 C 0.95054 0.49905 0.99832 0.0
C919 C 0.93298 0.51027 0.97916 0.0
C920 C 0.8777 0.48616 0.98354 0.0
H921 H 0.81729 0.51765 0.94008 0.0
H922 H 0.8506 0.52036 0.94776 0.0
H923 H 0.84517 0.47317 0.97988 0.0
H924 H 0.93358 0.48483 0.0187 0.0
H925 H 0.90408 0.48811 0.01014 0.0
H926 H 0.91293 0.53402 0.9759 0.0
C927 C 0.83853 0.51325 0.95567 0.0
C928 C 0.85983 0.48667 0.97909 0.0
C929 C 0.81948 0.51171 0.95126 0.0
C930 C 0.93375 0.49199 0.00762 0.0
C931 C 0.91673 0.49378 1.00267 0.0
C932 C 0.89819 0.52063 0.97669 0.0
C933 C 0.84151 0.50471 0.96966 0.0
C934 C 0.86081 0.50426 0.97364 0.0
C935 C 0.91597 0.50265 0.98825 0.0
C936 C 0.89711 0.5032 0.98263 0.0
H937 H 0.79426 0.48642 0.98285 0.0
H938 H 0.82733 0.48937 0.99067 0.0
H939 H 0.88151 0.53495 0.96812 0.0
H940 H 0.96275 0.51405 0.97665 0.0
H941 H 0.93282 0.51711 0.96795 0.0
C942 C 0.47745 0.30322 0.98537 0.0
C943 C 0.48201 0.29564 0.99927 0.0
C944 C 0.47597 0.32078 0.98709 0.0
C945 C 0.49313 0.36644 0.0164 0.0
H946 H 0.45639 0.37515 0.98705 0.0
C947 C 0.48894 0.43972 0.0239 0.0
C948 C 0.49072 0.4494 0.00949 0.0
C949 C 0.48527 0.41982 0.02306 0.0
C950 C 0.46674 0.3729 0.9953 0.0
H951 H 0.48746 0.29969 0.0259 0.0
H952 H 0.48432 0.33 0.029 0.0
H953 H 0.45435 0.34206 0.98505 0.0
H954 H 0.4892 0.44549 0.98286 0.0
H955 H 0.4827 0.41068 0.98143 0.0
H956 H 0.50549 0.39725 0.02663 0.0
C957 C 0.48253 0.32283 0.01671 0.0
C958 C 0.46564 0.354 0.99414 0.0
C959 C 0.48425 0.30544 0.01497 0.0
C960 C 0.488 0.43849 0.99419 0.0
C961 C 0.48414 0.41852 0.99335 0.0
C962 C 0.49408 0.38522 0.01766 0.0
C963 C 0.4788 0.33099 1.00278 0.0
C964 C 0.47897 0.35061 1.00457 0.0
C965 C 0.48312 0.40912 0.0078 0.0
C966 C 0.48105 0.38872 0.00703 0.0
H967 H 0.4758 0.29601 0.97312 0.0
H968 H 0.47334 0.32674 0.97607 0.0
H969 H 0.50394 0.36457 0.02441 0.0
H970 H 0.49091 0.44767 0.03588 0.0
H971 H 0.48434 0.41286 0.03437 0.0
C972 C 0.1808 0.69616 0.06864 0.0
C973 C 0.19518 0.70123 0.05713 0.0
C974 C 0.16177 0.67806 0.06581 0.0
C975 C 0.13841 0.62741 0.04262 0.0
H976 H 0.08602 0.62204 0.05071 0.0
C977 C 0.06331 0.55674 0.01645 0.0
C978 C 0.0475 0.54775 0.02663 0.0
C979 C 0.08042 0.57584 0.02128 0.0
C980 C 0.10058 0.62329 0.0486 0.0
H981 H 0.20029 0.69215 0.03312 0.0
H982 H 0.16728 0.66083 0.02817 0.0
H983 H 0.11758 0.65521 0.05696 0.0
H984 H 0.0371 0.55218 0.04977 0.0
H985 H 0.0673 0.58582 0.05827 0.0
H986 H 0.12167 0.59573 0.0342 0.0
C987 C 0.17084 0.67045 0.03958 0.0
C988 C 0.11862 0.64226 0.05215 0.0
C989 C 0.18975 0.68842 0.04241 0.0
C990 C 0.04901 0.55866 0.04164 0.0
C991 C 0.06626 0.57793 0.04649 0.0
C992 C 0.1205 0.60858 0.0391 0.0
C993 C 0.15683 0.66477 0.05141 0.0
C994 C 0.13768 0.64458 0.04885 0.0
C995 C 0.08231 0.58655 0.03645 0.0
C996 C 0.10132 0.60635 0.0417 0.0
H997 H 0.18459 0.70573 0.08012 0.0
H998 H 0.1513 0.67409 0.07515 0.0
H999 H 0.15289 0.62855 0.04036 0.0
H1000 H 0.06263 0.54896 1.00472 0.0
H1001 H 0.09228 0.58223 0.01309 0.0
C1002 C 0.3068 0.47951 0.06163 0.0
C1003 C 0.30909 0.49142 0.07623 0.0
C1004 C 0.32368 0.47869 0.05631 0.0
C1005 C 0.38054 0.50968 0.06154 0.0
H1006 H 0.37789 0.46291 0.03757 0.0
C1007 C 0.45354 0.5099 0.0454 0.0
C1008 C 0.45345 0.50201 0.0294 0.0
C1009 C 0.43541 0.50727 0.05105 0.0
C1010 C 0.37881 0.47614 0.04413 0.0
H1011 H 0.33027 0.51059 0.0973 0.0
H1012 H 0.35944 0.5086 0.08845 0.0
H1013 H 0.34701 0.45986 0.04812 0.0
H1014 H 0.43398 0.48478 0.00693 0.0
H1015 H 0.40227 0.48024 0.01685 0.0
H1016 H 0.41225 0.52596 0.05764 0.0
C1017 C 0.3449 0.50043 0.08074 0.0
C1018 C 0.36112 0.4744 0.05019 0.0
C1019 C 0.32815 0.50141 0.08593 0.0
C1020 C 0.43465 0.49113 0.01929 0.0
C1021 C 0.41644 0.48841 0.02501 0.0
C1022 C 0.39817 0.51138 0.0556 0.0
C1023 C 0.34313 0.48968 0.06557 0.0
C1024 C 0.36179 0.49114 0.05908 0.0
C1025 C 0.41665 0.49662 0.04091 0.0
C1026 C 0.39759 0.49463 0.04689 0.0
H1027 H 0.29229 0.47182 0.05386 0.0
H1028 H 0.32171 0.47031 0.04454 0.0
H1029 H 0.3816 0.52309 0.0679 0.0
H1030 H 0.46765 0.51825 0.05361 0.0
H1031 H 0.43609 0.51354 0.06346 0.0
C1032 C 0.49957 0.81238 0.032 0.0
C1033 C 0.50751 0.80957 0.04699 0.0
C1034 C 0.5006 0.83083 0.02976 0.0
C1035 C 0.52576 0.88504 0.04559 0.0
H1036 H 0.4753 0.87998 0.02536 0.0
C1037 C 0.51115 0.95294 0.04136 0.0
C1038 C 0.50069 0.95297 0.02649 0.0
C1039 C 0.5136 0.9363 0.04423 0.0
C1040 C 0.48959 0.88168 0.03086 0.0
H1041 H 0.52353 0.82413 0.07116 0.0
H1042 H 0.52525 0.85654 0.06726 0.0
H1043 H 0.47697 0.84955 0.02958 0.0
H1044 H 0.48543 0.93596 1.00271 0.0
H1045 H 0.4899 0.90725 0.00765 0.0
H1046 H 0.53829 0.91733 0.04683 0.0
C1047 C 0.51832 0.84444 0.05723 0.0
C1048 C 0.49055 0.86423 0.03327 0.0
C1049 C 0.51733 0.82591 0.05947 0.0
C1050 C 0.49333 0.93636 0.01439 0.0
C1051 C 0.49582 0.91983 0.01723 0.0
C1052 C 0.5248 0.90259 0.04315 0.0
C1053 C 0.50954 0.8469 0.04247 0.0
C1054 C 0.50869 0.86569 0.04047 0.0
C1055 C 0.50564 0.91943 0.03228 0.0
C1056 C 0.50675 0.90106 0.03556 0.0
H1057 H 0.49234 0.8002 0.02203 0.0
H1058 H 0.49414 0.83243 0.0181 0.0
H1059 H 0.53997 0.88661 0.05112 0.0
H1060 H 0.51699 0.96551 0.05093 0.0
H1061 H 0.52115 0.93638 0.05597 0.0
C1062 C 0.9642 0.18045 0.41266 0.0
C1063 C 0.9477 0.16659 0.40115 0.0
C1064 C 0.9818 0.19637 0.40745 0.0
C1065 C 0.00277 0.22653 0.37256 0.0
H1066 H 0.05426 0.2336 0.39239 0.0
C1067 C 0.08153 0.27913 0.34881 0.0
C1068 C 0.09842 0.29023 0.36086 0.0
C1069 C 0.06252 0.26435 0.35321 0.0
C1070 C 0.04006 0.23205 0.38686 0.0
H1071 H 0.93631 0.1592 0.37521 0.0
H1072 H 0.96712 0.187 0.36609 0.0
H1073 H 0.02217 0.20815 0.40135 0.0
H1074 H 0.1083 0.29491 0.38708 0.0
H1075 H 0.0754 0.26965 0.39468 0.0
H1076 H 0.02079 0.25058 0.35811 0.0
C1077 C 0.96643 0.18554 0.37915 0.0
C1078 C 0.02164 0.21744 0.39201 0.0
C1079 C 0.94885 0.16954 0.38436 0.0
C1080 C 0.09576 0.2865 0.3774 0.0
C1081 C 0.07684 0.27188 0.38178 0.0
C1082 C 0.02127 0.24128 0.36745 0.0
C1083 C 0.98329 0.19885 0.39061 0.0
C1084 C 0.00278 0.21457 0.38502 0.0
C1085 C 0.06002 0.26043 0.36976 0.0
C1086 C 0.04017 0.24432 0.37463 0.0
H1087 H 0.96387 0.17851 0.42567 0.0
H1088 H 0.99442 0.20655 0.4166 0.0
H1089 H 0.98847 0.22472 0.36698 0.0
H1090 H 0.08306 0.28164 0.33597 0.0
H1091 H 0.04992 0.25571 0.34362 0.0
C1092 C 0.83337 0.77667 0.41214 0.0
C1093 C 0.85282 0.79418 0.41604 0.0
C1094 C 0.81645 0.77821 0.40613 0.0
C1095 C 0.80269 0.81324 0.3866 0.0
H1096 H 0.74942 0.77872 0.40126 0.0
C1097 C 0.72981 0.81085 0.35755 0.0
C1098 C 0.71541 0.80995 0.36802 0.0
C1099 C 0.74611 0.80829 0.36336 0.0
C1100 C 0.76421 0.78859 0.39713 0.0
H1101 H 0.86958 0.82707 0.41692 0.0
H1102 H 0.84017 0.82976 0.40653 0.0
H1103 H 0.77881 0.77579 0.41154 0.0
H1104 H 0.70688 0.80544 0.39287 0.0
H1105 H 0.73554 0.80125 0.40308 0.0
H1106 H 0.7883 0.82642 0.37255 0.0
C1107 C 0.83802 0.81478 0.40778 0.0
C1108 C 0.78103 0.78672 0.40287 0.0
C1109 C 0.85493 0.81324 0.41374 0.0
C1110 C 0.71763 0.80617 0.38444 0.0
C1111 C 0.73403 0.80367 0.39027 0.0
C1112 C 0.78591 0.81512 0.3809 0.0
C1113 C 0.81853 0.7973 0.40392 0.0
C1114 C 0.80051 0.79905 0.39769 0.0
C1115 C 0.74857 0.80485 0.37983 0.0
C1116 C 0.76643 0.80281 0.38606 0.0
H1117 H 0.83126 0.76174 0.41362 0.0
H1118 H 0.80176 0.76439 0.40306 0.0
H1119 H 0.81736 0.82283 0.38219 0.0
H1120 H 0.72855 0.81356 0.3448 0.0
H1121 H 0.75674 0.8089 0.35486 0.0
C1122 C 0.23275 0.05881 0.39736 0.0
C1123 C 0.21485 0.05967 0.39939 0.0
C1124 C 0.23149 0.04023 0.39267 0.0
C1125 C 0.19699 0.98513 0.39322 0.0
H1126 H 0.22926 0.97937 0.36067 0.0
C1127 C 0.19574 0.90994 0.37956 0.0
C1128 C 0.19411 0.90305 0.36292 0.0
C1129 C 0.20018 0.92974 0.38412 0.0
C1130 C 0.22009 0.98075 0.36972 0.0
H1131 H 0.18164 0.04165 0.39822 0.0
H1132 H 0.17946 0.00956 0.3897 0.0
H1133 H 0.23309 0.01275 0.36813 0.0
H1134 H 0.19635 0.91175 0.33805 0.0
H1135 H 0.20373 0.94631 0.34601 0.0
H1136 H 0.18355 0.9532 0.39456 0.0
C1137 C 0.19448 0.02315 0.39185 0.0
C1138 C 0.22244 -0.00012 0.37412 0.0
C1139 C 0.19572 0.04162 0.39652 0.0
C1140 C 0.19748 0.91658 0.35097 0.0
C1141 C 0.20184 0.93642 0.35554 0.0
C1142 C 0.19465 0.96609 0.38885 0.0
C1143 C 0.21233 0.02217 0.39004 0.0
C1144 C 0.21074 0.00221 0.3858 0.0
C1145 C 0.20297 0.94312 0.37216 0.0
C1146 C 0.20608 0.96363 0.377 0.0
H1147 H 0.24769 0.07249 0.3994 0.0
H1148 H 0.24553 0.03993 0.39146 0.0
H1149 H 0.18797 0.98646 0.40244 0.0
H1150 H 0.19348 0.90001 0.38913 0.0
H1151 H 0.20133 0.93453 0.39705 0.0
C1152 C 0.50273 0.60573 0.29681 0.0
C1153 C 0.48304 0.60352 0.2948 0.0
C1154 C 0.51987 0.62434 0.30323 0.0
C1155 C 0.53667 0.67943 0.31015 0.0
H1156 H 0.58286 0.68275 0.33682 0.0
C1157 C 0.60126 0.75459 0.34461 0.0
C1158 C 0.62134 0.75977 0.34173 0.0
C1159 C 0.5848 0.73506 0.33959 0.0
C1160 C 0.57008 0.68199 0.32931 0.0
H1161 H 0.46616 0.61941 0.29831 0.0
H1162 H 0.49558 0.65116 0.31036 0.0
H1163 H 0.55306 0.64945 0.32714 0.0
H1164 H 0.63999 0.74828 0.33185 0.0
H1165 H 0.61112 0.71388 0.32337 0.0
H1166 H 0.55352 0.71198 0.31274 0.0
C1167 C 0.49797 0.63874 0.3065 0.0
C1168 C 0.55303 0.66293 0.32369 0.0
C1169 C 0.48093 0.62028 0.29986 0.0
C1170 C 0.62469 0.74477 0.3342 0.0
C1171 C 0.60821 0.72508 0.32941 0.0
C1172 C 0.55353 0.69841 0.31598 0.0
C1173 C 0.51775 0.64119 0.308 0.0
C1174 C 0.53605 0.66139 0.31406 0.0
C1175 C 0.58809 0.72018 0.33181 0.0
C1176 C 0.57037 0.69989 0.32563 0.0
H1177 H 0.50497 0.59311 0.29329 0.0
H1178 H 0.53483 0.62561 0.30405 0.0
H1179 H 0.52423 0.67896 0.3024 0.0
H1180 H 0.59812 0.76578 0.35035 0.0
H1181 H 0.56945 0.73161 0.3417 0.0
C1182 C 0.368 0.85566 0.29373 0.0
C1183 C 0.38421 0.87398 0.28948 0.0
C1184 C 0.35145 0.85524 0.30074 0.0
C1185 C 0.32297 0.88252 0.30361 0.0
H1186 H 0.29965 0.84942 0.33915 0.0
C1187 C 0.24116 0.85707 0.32006 0.0
C1188 C 0.2379 0.85726 0.33678 0.0
C1189 C 0.26017 0.86109 0.31539 0.0
C1190 C 0.30609 0.8589 0.32935 0.0
H1191 H 0.39559 0.90633 0.2895 0.0
H1192 H 0.36643 0.90549 0.30148 0.0
H1193 H 0.3309 0.85282 0.32923 0.0
H1194 H 0.25227 0.86204 0.36172 0.0
H1195 H 0.28554 0.86891 0.35352 0.0
H1196 H 0.29801 0.88838 0.30357 0.0
C1197 C 0.36662 0.89144 0.29933 0.0
C1198 C 0.32388 0.86069 0.32355 0.0
C1199 C 0.38331 0.8919 0.29242 0.0
C1200 C 0.25424 0.86177 0.34874 0.0
C1201 C 0.27327 0.86561 0.34404 0.0
C1202 C 0.30508 0.88058 0.3093 0.0
C1203 C 0.3505 0.8731 0.30358 0.0
C1204 C 0.3324 0.87233 0.31049 0.0
C1205 C 0.27642 0.86526 0.3273 0.0
C1206 C 0.29629 0.86856 0.32211 0.0
H1207 H 0.36783 0.84145 0.29131 0.0
H1208 H 0.33911 0.84079 0.30357 0.0
H1209 H 0.32905 0.89149 0.29346 0.0
H1210 H 0.22897 0.85371 0.31048 0.0
H1211 H 0.26198 0.86044 0.30239 0.0
C1212 C 0.1056 0.49776 0.32199 0.0
C1213 C 0.10492 0.49952 0.30499 0.0
C1214 C 0.10565 0.48099 0.32803 0.0
C1215 C 0.09733 0.42947 0.31519 0.0
H1216 H 0.1389 0.44282 0.35171 0.0
C1217 C 0.13528 0.38157 0.32615 0.0
C1218 C 0.13864 0.37776 0.34233 0.0
C1219 C 0.12804 0.39483 0.32312 0.0
C1220 C 0.12698 0.43877 0.34169 0.0
H1221 H 0.10315 0.4848 0.28097 0.0
H1222 H 0.10337 0.45573 0.29143 0.0
H1223 H 0.13094 0.46863 0.34364 0.0
H1224 H 0.137 0.3849 0.36804 0.0
H1225 H 0.12459 0.40843 0.36269 0.0
H1226 H 0.09408 0.39985 0.31282 0.0
C1227 C 0.10349 0.46705 0.30014 0.0
C1228 C 0.12236 0.45353 0.33708 0.0
C1229 C 0.10337 0.48375 0.29412 0.0
C1230 C 0.13459 0.38754 0.35544 0.0
C1231 C 0.12753 0.40102 0.3524 0.0
C1232 C 0.10205 0.41477 0.31973 0.0
C1233 C 0.10508 0.46568 0.31718 0.0
C1234 C 0.10784 0.4492 0.32351 0.0
C1235 C 0.12413 0.40473 0.33619 0.0
C1236 C 0.11728 0.41943 0.33277 0.0
H1237 H 0.10655 0.50958 0.33065 0.0
H1238 H 0.10654 0.48023 0.3412 0.0
H1239 H 0.08576 0.4255 0.3049 0.0
H1240 H 0.13816 0.37425 0.31575 0.0
H1241 H 0.12586 0.39763 0.31052 0.0
C1242 C 0.35883 0.50207 0.30565 0.0
C1243 C 0.35506 0.51389 0.29492 0.0
C1244 C 0.34247 0.4845 0.31057 0.0
C1245 C 0.28826 0.46379 0.31636 0.0
H1246 H 0.28657 0.41251 0.31999 0.0
C1247 C 0.22549 0.39989 0.34814 0.0
C1248 C 0.21557 0.3804 0.3394 0.0
C1249 C 0.24359 0.41556 0.34331 0.0
C1250 C 0.28685 0.42675 0.31902 0.0
H1251 H 0.33132 0.51562 0.2799 0.0
H1252 H 0.30292 0.48517 0.28854 0.0
H1253 H 0.31605 0.44054 0.30938 0.0
H1254 H 0.21733 0.36198 0.31902 0.0
H1255 H 0.24894 0.38936 0.31066 0.0
H1256 H 0.25914 0.45015 0.32586 0.0
C1257 C 0.31844 0.48968 0.29343 0.0
C1258 C 0.30375 0.4428 0.31305 0.0
C1259 C 0.33471 0.50711 0.28848 0.0
C1260 C 0.22453 0.37681 0.32602 0.0
C1261 C 0.24272 0.39246 0.32127 0.0
C1262 C 0.27153 0.44788 0.32246 0.0
C1263 C 0.32207 0.4785 0.30488 0.0
C1264 C 0.30451 0.46143 0.3115 0.0
C1265 C 0.25226 0.41209 0.32969 0.0
C1266 C 0.27056 0.42914 0.32378 0.0
H1267 H 0.37432 0.50695 0.31089 0.0
H1268 H 0.34572 0.47618 0.31943 0.0
H1269 H 0.28852 0.47805 0.31551 0.0
H1270 H 0.21906 0.4032 0.35852 0.0
H1271 H 0.25072 0.43048 0.35015 0.0
C1272 C 0.48366 0.82712 0.2826 0.0
C1273 C 0.47723 0.83915 0.29108 0.0
C1274 C 0.50314 0.82977 0.28677 0.0
C1275 C 0.54169 0.8457 0.32204 0.0
H1276 H 0.57596 0.84335 0.28978 0.0
C1277 C 0.61721 0.84692 0.34189 0.0
C1278 C 0.62177 0.83412 0.33222 0.0
C1279 C 0.60132 0.8503 0.3364 0.0
C1280 C 0.56649 0.84381 0.29896 0.0
H1281 H 0.48631 0.86379 0.31024 0.0
H1282 H 0.52045 0.86832 0.3177 0.0
H1283 H 0.54523 0.84465 0.28076 0.0
H1284 H 0.61326 0.81501 0.30909 0.0
H1285 H 0.58525 0.82037 0.29977 0.0
H1286 H 0.5623 0.84398 0.3402 0.0
C1287 C 0.51037 0.85686 0.30779 0.0
C1288 C 0.54894 0.84469 0.29378 0.0
C1289 C 0.49094 0.8544 0.30345 0.0
C1290 C 0.61024 0.82503 0.31684 0.0
C1291 C 0.59422 0.82824 0.31143 0.0
C1292 C 0.55911 0.8446 0.32722 0.0
C1293 C 0.51654 0.84435 0.29966 0.0
C1294 C 0.53622 0.8454 0.30524 0.0
C1295 C 0.58942 0.84081 0.32118 0.0
C1296 C 0.57163 0.84338 0.31574 0.0
H1297 H 0.47338 0.8153 0.27298 0.0
H1298 H 0.50736 0.81979 0.28035 0.0
H1299 H 0.53204 0.84595 0.33115 0.0
H1300 H 0.62589 0.85433 0.35374 0.0
H1301 H 0.59838 0.86039 0.34413 0.0
C1302 C 0.15056 0.63487 0.30369 0.0
C1303 C 0.16072 0.63039 0.31638 0.0
C1304 C 0.15034 0.65314 0.30499 0.0
C1305 C 0.17993 0.70494 0.32601 0.0
H1306 H 0.13088 0.70827 0.31567 0.0
C1307 C 0.17638 0.77505 0.34822 0.0
C1308 C 0.1678 0.78302 0.33724 0.0
C1309 C 0.17449 0.75616 0.34424 0.0
C1310 C 0.14475 0.70758 0.31837 0.0
H1311 H 0.17768 0.6411 0.34072 0.0
H1312 H 0.17743 0.67294 0.34292 0.0
H1313 H 0.12931 0.67538 0.31145 0.0
H1314 H 0.14995 0.77706 0.3136 0.0
H1315 H 0.14668 0.74375 0.3066 0.0
H1316 H 0.19538 0.73694 0.33305 0.0
C1317 C 0.16998 0.66252 0.33183 0.0
C1318 C 0.14384 0.68879 0.31598 0.0
C1319 C 0.17014 0.6443 0.33056 0.0
C1320 C 0.15676 0.77134 0.32231 0.0
C1321 C 0.15484 0.75228 0.31832 0.0
C1322 C 0.18084 0.72362 0.32835 0.0
C1323 C 0.16035 0.66729 0.31897 0.0
C1324 C 0.16135 0.68725 0.32015 0.0
C1325 C 0.16401 0.74469 0.32916 0.0
C1326 C 0.16317 0.72509 0.32493 0.0
H1327 H 0.14328 0.62452 0.29255 0.0
H1328 H 0.14288 0.65647 0.29487 0.0
H1329 H 0.19378 0.70431 0.32894 0.0
H1330 H 0.18477 0.78345 0.35992 0.0
H1331 H 0.1813 0.75052 0.35303 0.0
C1332 C 0.8438 0.03135 0.39219 0.0
C1333 C 0.85612 0.03968 0.37949 0.0
C1334 C 0.82469 0.01349 0.38883 0.0
C1335 C 0.79723 0.96868 0.35753 0.0
H1336 H 0.75092 0.95581 0.38215 0.0
C1337 C 0.72052 0.89311 0.34305 0.0
C1338 C 0.71249 0.88255 0.35671 0.0
C1339 C 0.7366 0.91331 0.34527 0.0
C1340 C 0.76377 0.95921 0.37521 0.0
H1341 H 0.85769 0.03687 0.35324 0.0
H1342 H 0.82409 0.00626 0.3472 0.0
H1343 H 0.78136 0.98974 0.38687 0.0
H1344 H 0.71462 0.88517 0.38342 0.0
H1345 H 0.74261 0.9204 0.38724 0.0
H1346 H 0.77966 0.93819 0.34589 0.0
C1347 C 0.82936 0.01294 0.35986 0.0
C1348 C 0.78124 0.97862 0.37794 0.0
C1349 C 0.84854 0.03057 0.36326 0.0
C1350 C 0.7205 0.89282 0.37262 0.0
C1351 C 0.73644 0.91306 0.37483 0.0
C1352 C 0.77973 0.9494 0.3547 0.0
C1353 C 0.81745 0.00378 0.37265 0.0
C1354 C 0.79829 0.98356 0.36922 0.0
C1355 C 0.74486 0.92343 0.36119 0.0
C1356 C 0.76288 0.94437 0.3636 0.0
H1357 H 0.84941 0.03806 0.40482 0.0
H1358 H 0.81606 0.00683 0.39902 0.0
H1359 H 0.81018 0.97168 0.35084 0.0
H1360 H 0.71468 0.88567 0.33064 0.0
H1361 H 0.74267 0.92098 0.33453 0.0
C1362 C 0.98458 0.8143 0.41374 0.0
C1363 C 0.97587 0.82374 0.40465 0.0
C1364 C 0.001 0.81271 0.40823 0.0
C1365 C 0.04257 0.83846 0.38165 0.0
H1366 H 0.05186 0.79333 0.38664 0.0
C1367 C 0.10823 0.83519 0.35278 0.0
C1368 C 0.12011 0.82925 0.36236 0.0
C1369 C 0.08989 0.83281 0.35777 0.0
C1370 C 0.04956 0.80613 0.38529 0.0
H1371 H 0.97636 0.83753 0.38218 0.0
H1372 H 0.00438 0.83424 0.37233 0.0
H1373 H 0.02071 0.79159 0.39544 0.0
H1374 H 0.12163 0.81567 0.3846 0.0
H1375 H 0.08961 0.81163 0.39335 0.0
H1376 H 0.07129 0.85307 0.37161 0.0
C1377 C -0.00085 0.82865 0.38396 0.0
C1378 C 0.0317 0.80513 0.39033 0.0
C1379 C 0.98297 0.83038 0.38951 0.0
C1380 C 0.11288 0.8204 0.37689 0.0
C1381 C 0.09446 0.81799 0.38189 0.0
C1382 C 0.0603 0.83943 0.37661 0.0
C1383 C 0.00889 0.82045 0.39349 0.0
C1384 C 0.02789 0.82123 0.38843 0.0
C1385 C 0.08289 0.82445 0.3725 0.0
C1386 C 0.06399 0.82324 0.37822 0.0
H1387 H 0.97945 0.80917 0.42551 0.0
H1388 H 0.00813 0.80632 0.4159 0.0
H1389 H 0.04051 0.85142 0.3804 0.0
H1390 H 0.11319 0.84194 0.34146 0.0
H1391 H 0.0812 0.83761 0.35007 0.0
C1392 C 0.18475 0.16188 0.39504 0.0
C1393 C 0.17277 0.14402 0.3843 0.0
C1394 C 0.18628 0.18022 0.39126 0.0
C1395 C 0.15744 0.19862 0.36673 0.0
H1396 H 0.20719 0.25124 0.37561 0.0
C1397 C 0.16073 0.27007 0.34515 0.0
C1398 C 0.16963 0.28748 0.3566 0.0
C1399 C 0.16295 0.25343 0.34819 0.0
C1400 C 0.19316 0.23665 0.37319 0.0
H1401 H 0.15416 0.13156 0.36072 0.0
H1402 H 0.15698 0.1635 0.35404 0.0
H1403 H 0.20799 0.22048 0.38143 0.0
H1404 H 0.18844 0.3013 0.38001 0.0
H1405 H 0.19217 0.27204 0.38537 0.0
H1406 H 0.14255 0.21462 0.35859 0.0
C1407 C 0.16473 0.16329 0.36559 0.0
C1408 C 0.19362 0.21906 0.37652 0.0
C1409 C 0.16314 0.14501 0.36939 0.0
C1410 C 0.18138 0.28812 0.37093 0.0
C1411 C 0.1836 0.2714 0.37398 0.0
C1412 C 0.157 0.21612 0.36339 0.0
C1413 C 0.17591 0.181 0.37664 0.0
C1414 C 0.17576 0.19984 0.37322 0.0
C1415 C 0.17409 0.25375 0.36276 0.0
C1416 C 0.17485 0.23531 0.36648 0.0
H1417 H 0.19228 0.1615 0.40664 0.0
H1418 H 0.19491 0.19358 0.40007 0.0
H1419 H 0.1433 0.18412 0.36442 0.0
H1420 H 0.15175 0.26912 0.3339 0.0
H1421 H 0.15577 0.24019 0.33916 0.0
C1422 C 0.63209 0.51364 0.74925 0.0
C1423 C 0.61718 0.49791 0.73775 0.0
C1424 C 0.64955 0.52982 0.7441 0.0
C1425 C 0.67224 0.55521 0.70712 0.0
H1426 H 0.72353 0.57339 0.73431 0.0
C1427 C 0.75261 0.60723 0.68592 0.0
C1428 C 0.76676 0.62345 0.69747 0.0
C1429 C 0.73384 0.59223 0.69047 0.0
C1430 C 0.70931 0.56859 0.72665 0.0
H1431 H 0.60847 0.48753 0.71168 0.0
H1432 H 0.63919 0.51528 0.70277 0.0
H1433 H 0.69156 0.54724 0.74299 0.0
H1434 H 0.77228 0.63652 0.72287 0.0
H1435 H 0.73977 0.61037 0.73074 0.0
H1436 H 0.69029 0.57639 0.6906 0.0
C1437 C 0.63734 0.51528 0.71578 0.0
C1438 C 0.69094 0.55367 0.73166 0.0
C1439 C 0.6198 0.4992 0.72091 0.0
C1440 C 0.76176 0.62429 0.71363 0.0
C1441 C 0.74316 0.60923 0.7182 0.0
C1442 C 0.6907 0.57005 0.70203 0.0
C1443 C 0.65264 0.53061 0.72733 0.0
C1444 C 0.67213 0.54682 0.72201 0.0
C1445 C 0.72901 0.59302 0.7067 0.0
C1446 C 0.70941 0.57695 0.71179 0.0
H1447 H 0.63069 0.51311 0.76232 0.0
H1448 H 0.66079 0.54156 0.75334 0.0
H1449 H 0.65805 0.55051 0.69946 0.0
H1450 H 0.75596 0.60616 0.67337 0.0
H1451 H 0.72327 0.57982 0.68138 0.0
C1452 C 0.51981 0.14675 0.74728 0.0
C1453 C 0.51766 0.12764 0.74942 0.0
C1454 C 0.50298 0.14835 0.74123 0.0
C1455 C 0.44604 0.12032 0.73577 0.0
H1456 H 0.4538 0.16046 0.70575 0.0
C1457 C 0.38318 0.14048 0.71732 0.0
C1458 C 0.38118 0.14451 0.70095 0.0
C1459 C 0.39941 0.13772 0.72315 0.0
C1460 C 0.45128 0.14903 0.71401 0.0
H1461 H 0.49612 0.09518 0.74661 0.0
H1462 H 0.46676 0.09795 0.73588 0.0
H1463 H 0.48273 0.15669 0.71551 0.0
H1464 H 0.39446 0.14823 0.67779 0.0
H1465 H 0.42237 0.14312 0.68785 0.0
H1466 H 0.41444 0.11239 0.73396 0.0
C1467 C 0.48141 0.11175 0.73915 0.0
C1468 C 0.46797 0.14705 0.71978 0.0
C1469 C 0.49826 0.11015 0.74526 0.0
C1470 C 0.39557 0.14534 0.69051 0.0
C1471 C 0.4117 0.14252 0.69632 0.0
C1472 C 0.42931 0.12229 0.72997 0.0
C1473 C 0.48354 0.13088 0.7371 0.0
C1474 C 0.4656 0.1327 0.73077 0.0
C1475 C 0.41398 0.13888 0.71275 0.0
C1476 C 0.43171 0.13668 0.719 0.0
H1477 H 0.53443 0.16056 0.75067 0.0
H1478 H 0.50515 0.16336 0.7401 0.0
H1479 H 0.44368 0.10926 0.74435 0.0
H1480 H 0.37242 0.13978 0.72572 0.0
H1481 H 0.40078 0.13513 0.73593 0.0
C1482 C 0.90652 0.39279 0.72111 0.0
C1483 C 0.88926 0.39459 0.71649 0.0
C1484 C 0.90732 0.3756 0.71532 0.0
C1485 C 0.89509 0.33064 0.71162 0.0
H1486 H 0.87473 0.30514 0.66679 0.0
C1487 C 0.88225 0.25091 0.69218 0.0
C1488 C 0.86342 0.23757 0.68275 0.0
C1489 C 0.88919 0.27171 0.69463 0.0
C1490 C 0.88041 0.31205 0.67936 0.0
H1491 H 0.85941 0.37971 0.702 0.0
H1492 H 0.86104 0.35013 0.69171 0.0
H1493 H 0.88044 0.33922 0.67401 0.0
H1494 H 0.83736 0.23567 0.66815 0.0
H1495 H 0.84922 0.27179 0.67268 0.0
H1496 H 0.89417 0.30318 0.71721 0.0
C1497 C 0.87404 0.36209 0.69966 0.0
C1498 C 0.88374 0.33157 0.68346 0.0
C1499 C 0.87314 0.37911 0.70556 0.0
C1500 C 0.85194 0.24553 0.67547 0.0
C1501 C 0.85883 0.26629 0.67797 0.0
C1502 C 0.89165 0.31107 0.70754 0.0
C1503 C 0.89097 0.36 0.70467 0.0
C1504 C 0.89059 0.34082 0.69972 0.0
C1505 C 0.87743 0.2796 0.68772 0.0
C1506 C 0.88373 0.30134 0.69147 0.0
H1507 H 0.91932 0.40457 0.72933 0.0
H1508 H 0.92061 0.37439 0.71929 0.0
H1509 H 0.90018 0.33733 0.72429 0.0
H1510 H 0.89155 0.24527 0.69785 0.0
H1511 H 0.9037 0.2816 0.70203 0.0
C1512 C 0.14695 0.95573 0.63494 0.0
C1513 C 0.14931 0.93909 0.62998 0.0
C1514 C 0.16385 0.97428 0.64161 0.0
C1515 C 0.21897 -0.00098 0.65881 0.0
H1516 H 0.21915 0.04764 0.64699 0.0
C1517 C 0.29059 0.08077 0.66763 0.0
C1518 C 0.28741 0.09598 0.67497 0.0
C1519 C 0.27404 0.06104 0.66323 0.0
C1520 C 0.21924 0.03419 0.65048 0.0
H1521 H 0.17146 0.92893 0.6288 0.0
H1522 H 0.20106 0.96156 0.63957 0.0
H1523 H 0.18984 0.01442 0.63718 0.0
H1524 H 0.26446 0.10235 0.68366 0.0
H1525 H 0.23563 0.06807 0.67567 0.0
H1526 H 0.24892 0.01914 0.67162 0.0
C1527 C 0.18604 0.96015 0.63864 0.0
C1528 C 0.20237 0.0151 0.64495 0.0
C1529 C 0.16905 0.94146 0.63221 0.0
C1530 C 0.26744 0.09099 0.67804 0.0
C1531 C 0.25091 0.0714 0.67341 0.0
C1532 C 0.23603 0.01818 0.66412 0.0
C1533 C 0.18371 0.97691 0.64323 0.0
C1534 C 0.20189 -0.00277 0.64915 0.0
C1535 C 0.25401 0.05629 0.66584 0.0
C1536 C 0.23622 0.03592 0.6601 0.0
H1537 H 0.13212 0.9547 0.63325 0.0
H1538 H 0.16131 0.98663 0.64534 0.0
H1539 H 0.2191 0.98566 0.66248 0.0
H1540 H 0.30581 0.08414 0.66515 0.0
H1541 H 0.2768 0.04966 0.65733 0.0
C1542 C 0.03012 0.18392 0.62192 0.0
C1543 C 0.04401 0.20158 0.61512 0.0
C1544 C 0.01255 0.18224 0.628 0.0
C1545 C 0.9883 0.21287 0.64034 0.0
H1546 H 0.93963 0.15946 0.63777 0.0
C1547 C 0.90671 0.19765 0.6515 0.0
C1548 C 0.89707 0.1839 0.6631 0.0
C1549 C 0.92501 0.20042 0.64605 0.0
C1550 C 0.95316 0.17444 0.63864 0.0
H1551 H 0.04991 0.23137 0.60945 0.0
H1552 H 0.01868 0.22791 0.61902 0.0
H1553 H 0.97032 0.16309 0.62682 0.0
H1554 H 0.899 0.16215 0.67796 0.0
H1555 H 0.93069 0.16654 0.66798 0.0
H1556 H 0.97048 0.22413 0.65153 0.0
C1557 C 0.02172 0.21555 0.62019 0.0
C1558 C 0.97087 0.17658 0.63247 0.0
C1559 C 0.03956 0.21741 0.6144 0.0
C1560 C 0.9061 0.17292 0.66908 0.0
C1561 C 0.92416 0.17536 0.66333 0.0
C1562 C 0.9704 0.21075 0.64619 0.0
C1563 C 0.00793 0.19793 0.62712 0.0
C1564 C 0.98882 0.1958 0.63335 0.0
C1565 C 0.93379 0.18916 0.65179 0.0
C1566 C 0.95273 0.1915 0.64551 0.0
H1567 H 0.03262 0.17115 0.62244 0.0
H1568 H 0.00267 0.16856 0.63349 0.0
H1569 H 0.0018 0.22788 0.64156 0.0
H1570 H 0.90016 0.20638 0.6467 0.0
H1571 H 0.93209 0.21107 0.63709 0.0
C1572 C 0.77183 0.83274 0.66144 0.0
C1573 C 0.77134 0.83469 0.64445 0.0
C1574 C 0.77151 0.81579 0.66738 0.0
C1575 C 0.76032 0.76362 0.6561 0.0
H1576 H 0.80844 0.77866 0.68652 0.0
C1577 C 0.79223 0.70997 0.66435 0.0
C1578 C 0.80236 0.71078 0.67964 0.0
C1579 C 0.78543 0.72368 0.66179 0.0
C1580 C 0.79464 0.77404 0.67834 0.0
H1581 H 0.76895 0.81969 0.62034 0.0
H1582 H 0.76777 0.78989 0.63071 0.0
H1583 H 0.80044 0.80457 0.67913 0.0
H1584 H 0.81272 0.72613 0.70443 0.0
H1585 H 0.80029 0.74972 0.70015 0.0
H1586 H 0.75448 0.7331 0.65523 0.0
C1587 C 0.76848 0.80156 0.63941 0.0
C1588 C 0.79011 0.78894 0.67408 0.0
C1589 C 0.7691 0.81863 0.63348 0.0
C1590 C 0.80515 0.7253 0.69245 0.0
C1591 C 0.79808 0.73885 0.68997 0.0
C1592 C 0.76467 0.74863 0.66054 0.0
C1593 C 0.77033 0.80029 0.65642 0.0
C1594 C 0.77321 0.78395 0.66263 0.0
C1595 C 0.78833 0.73837 0.67453 0.0
C1596 C 0.78221 0.75375 0.67138 0.0
H1597 H 0.77308 0.84461 0.67022 0.0
H1598 H 0.77273 0.81502 0.68055 0.0
H1599 H 0.7471 0.7594 0.64734 0.0
H1600 H 0.78997 0.69904 0.65419 0.0
H1601 H 0.77842 0.72309 0.64964 0.0
C1602 C 0.00298 0.83785 0.62159 0.0
C1603 C 0.02279 0.84731 0.63007 0.0
C1604 C 0.9872 0.81996 0.62643 0.0
C1605 C 0.95861 0.77719 0.63496 0.0
H1606 H 0.9509 0.77878 0.68128 0.0
C1607 C 0.88089 0.72479 0.6577 0.0
C1608 C 0.8804 0.71687 0.67286 0.0
C1609 C 0.89944 0.73936 0.65269 0.0
C1610 C 0.95298 0.77787 0.66836 0.0
H1611 H 0.04185 0.84524 0.64995 0.0
H1612 H 0.01408 0.81386 0.65858 0.0
H1613 H 0.98173 0.80591 0.67171 0.0
H1614 H 0.89913 0.71813 0.69466 0.0
H1615 H 0.93165 0.74345 0.6858 0.0
H1616 H 0.92987 0.7493 0.63151 0.0
C1617 C 0.01083 0.82034 0.64816 0.0
C1618 C 0.97066 0.79344 0.66288 0.0
C1619 C 0.02672 0.83816 0.64315 0.0
C1620 C 0.89895 0.72398 0.68294 0.0
C1621 C 0.91759 0.73854 0.67788 0.0
C1622 C 0.94103 0.76157 0.64044 0.0
C1623 C 0.99083 0.81123 0.63998 0.0
C1624 C 0.97343 0.79348 0.64607 0.0
C1625 C 0.91806 0.74634 0.66264 0.0
C1626 C 0.93774 0.76195 0.65715 0.0
H1627 H -0.00041 0.84459 0.61142 0.0
H1628 H 0.97194 0.81341 0.61997 0.0
H1629 H 0.96048 0.77667 0.62197 0.0
H1630 H 0.86691 0.71978 0.64963 0.0
H1631 H 0.89912 0.74533 0.64106 0.0
C1632 C 0.15941 0.18403 0.61643 0.0
C1633 C 0.14771 0.18253 0.62944 0.0
C1634 C 0.17904 0.1865 0.6196 0.0
C1635 C 0.2214 0.20043 0.65249 0.0
H1636 H 0.22892 0.15993 0.62806 0.0
C1637 C 0.27982 0.17786 0.67673 0.0
C1638 C 0.28973 0.17206 0.6655 0.0
C1639 C 0.26445 0.18192 0.67117 0.0
C1640 C 0.22735 0.17164 0.63481 0.0
H1641 H 0.14744 0.18337 0.65588 0.0
H1642 H 0.18182 0.18817 0.66148 0.0
H1643 H 0.19923 0.16339 0.62016 0.0
H1644 H 0.29157 0.16651 0.63954 0.0
H1645 H 0.26506 0.174 0.62984 0.0
H1646 H 0.24938 0.2086 0.66725 0.0
C1647 C 0.17597 0.18744 0.64886 0.0
C1648 C 0.21028 0.1736 0.63026 0.0
C1649 C 0.15631 0.18467 0.64568 0.0
C1650 C 0.28415 0.17079 0.64855 0.0
C1651 C 0.26886 0.175 0.64298 0.0
C1652 C 0.23856 0.1986 0.65695 0.0
C1653 C 0.18734 0.1878 0.63584 0.0
C1654 C 0.20688 0.18771 0.63928 0.0
C1655 C 0.25866 0.18046 0.65422 0.0
C1656 C 0.24153 0.18385 0.64842 0.0
H1657 H 0.15295 0.18218 0.6038 0.0
H1658 H 0.1875 0.18685 0.60933 0.0
H1659 H 0.21931 0.2116 0.65955 0.0
H1660 H 0.28361 0.17889 0.68988 0.0
H1661 H 0.25673 0.18568 0.68024 0.0
C1662 C 0.82407 0.97342 0.67888 0.0
C1663 C 0.82098 0.96329 0.66317 0.0
C1664 C 0.82186 0.99052 0.68081 0.0
C1665 C 0.80144 0.01943 0.65902 0.0
H1666 H 0.8412 0.06402 0.6906 0.0
C1667 C 0.81986 0.10274 0.65892 0.0
C1668 C 0.82237 0.1135 0.67425 0.0
C1669 C 0.81689 0.08309 0.65806 0.0
C1670 C 0.82982 0.0516 0.68189 0.0
H1671 H 0.81304 0.96288 0.63718 0.0
H1672 H 0.80982 0.99314 0.64043 0.0
H1673 H 0.84162 0.0323 0.68813 0.0
H1674 H 0.82308 0.11184 0.70065 0.0
H1675 H 0.81812 0.07759 0.6991 0.0
H1676 H 0.79027 0.03927 0.65238 0.0
C1677 C 0.81341 0.98763 0.65134 0.0
C1678 C 0.83 0.03337 0.68049 0.0
C1679 C 0.81536 0.97036 0.64944 0.0
C1680 C 0.82122 0.10397 0.68865 0.0
C1681 C 0.81847 0.08441 0.68779 0.0
C1682 C 0.80143 0.03779 0.66029 0.0
C1683 C 0.8168 -0.00197 0.66704 0.0
C1684 C 0.81589 0.01707 0.66898 0.0
C1685 C 0.81659 0.07392 0.67251 0.0
C1686 C 0.81569 0.05406 0.67169 0.0
H1687 H 0.82811 0.96805 0.68969 0.0
H1688 H 0.82415 -0.00215 0.69312 0.0
H1689 H 0.79013 0.0071 0.65022 0.0
H1690 H 0.82061 0.10965 0.6476 0.0
H1691 H 0.81562 0.07537 0.64612 0.0
C1692 C 0.51378 0.36359 0.72847 0.0
C1693 C 0.52759 0.37124 0.71661 0.0
C1694 C 0.49437 0.34634 0.72429 0.0
C1695 C 0.46746 0.30159 0.69286 0.0
H1696 H 0.41956 0.29184 0.71422 0.0
C1697 C 0.38904 0.22835 0.67624 0.0
C1698 C 0.37993 0.21816 0.68977 0.0
C1699 C 0.40565 0.24827 0.67862 0.0
C1700 C 0.43284 0.29439 0.70818 0.0
H1701 H 0.53165 0.36786 0.69092 0.0
H1702 H 0.49757 0.3383 0.6834 0.0
H1703 H 0.45106 0.32487 0.71978 0.0
H1704 H 0.38055 0.22118 0.71637 0.0
H1705 H 0.40942 0.25598 0.72048 0.0
H1706 H 0.4492 0.27113 0.68125 0.0
C1707 C 0.50186 0.34502 0.69608 0.0
C1708 C 0.45092 0.31327 0.7114 0.0
C1709 C 0.52133 0.36204 0.70033 0.0
C1710 C 0.3873 0.22856 0.70568 0.0
C1711 C 0.40374 0.24854 0.70804 0.0
C1712 C 0.44935 0.28285 0.6895 0.0
C1713 C 0.48831 0.33658 0.70809 0.0
C1714 C 0.46856 0.31704 0.70393 0.0
C1715 C 0.4133 0.25848 0.69457 0.0
C1716 C 0.43193 0.27896 0.69726 0.0
H1717 H 0.51834 0.3704 0.74114 0.0
H1718 H 0.48449 0.34019 0.73392 0.0
H1719 H 0.4808 0.30368 0.68714 0.0
H1720 H 0.38371 0.22078 0.66383 0.0
H1721 H 0.41265 0.25565 0.66801 0.0
C1722 C 0.63911 0.14431 0.73007 0.0
C1723 C 0.64324 0.15783 0.74411 0.0
C1724 C 0.6549 0.14201 0.72408 0.0
C1725 C 0.70748 0.15135 0.73541 0.0
H1726 H 0.7139 0.15768 0.68915 0.0
C1727 C 0.78439 0.17392 0.71012 0.0
C1728 C 0.78438 0.16569 0.69429 0.0
C1729 C 0.76608 0.17054 0.71592 0.0
C1730 C 0.7122 0.15553 0.70203 0.0
H1731 H 0.66673 0.17871 0.76335 0.0
H1732 H 0.69412 0.1745 0.75311 0.0
H1733 H 0.68343 0.15488 0.70008 0.0
H1734 H 0.76492 0.14733 0.67216 0.0
H1735 H 0.73288 0.14119 0.68238 0.0
H1736 H 0.73624 0.15213 0.73746 0.0
C1737 C 0.6788 0.16571 0.74666 0.0
C1738 C 0.6947 0.15392 0.7083 0.0
C1739 C 0.66314 0.16819 0.7525 0.0
C1740 C 0.76553 0.15398 0.68438 0.0
C1741 C 0.74714 0.15053 0.69023 0.0
C1742 C 0.72489 0.15282 0.72914 0.0
C1743 C 0.67501 0.15296 0.73217 0.0
C1744 C 0.69234 0.15222 0.72513 0.0
C1745 C 0.74717 0.15873 0.70611 0.0
C1746 C 0.72773 0.15538 0.71243 0.0
H1747 H 0.62393 0.13626 0.72331 0.0
H1748 H 0.65146 0.13195 0.71296 0.0
H1749 H 0.70598 0.14975 0.74839 0.0
H1750 H 0.79859 0.18312 0.71809 0.0
H1751 H 0.76684 0.17749 0.72807 0.0
C1752 C 0.85996 0.49929 0.71552 0.0
C1753 C 0.85938 0.4881 0.70106 0.0
C1754 C 0.86159 0.51832 0.71483 0.0
C1755 C 0.84969 0.54624 0.68488 0.0
H1756 H 0.87628 0.59108 0.71951 0.0
C1757 C 0.84951 0.62058 0.67873 0.0
C1758 C 0.84361 0.6279 0.69224 0.0
C1759 C 0.85441 0.60532 0.6802 0.0
C1760 C 0.86875 0.57863 0.70979 0.0
H1761 H 0.86168 0.48843 0.67486 0.0
H1762 H 0.86527 0.52192 0.67368 0.0
H1763 H 0.88047 0.56138 0.72132 0.0
H1764 H 0.839 0.62547 0.71809 0.0
H1765 H 0.84747 0.59865 0.7206 0.0
H1766 H 0.83786 0.5633 0.6734 0.0
C1767 C 0.86374 0.51582 0.68546 0.0
C1768 C 0.87112 0.56163 0.71082 0.0
C1769 C 0.86183 0.49673 0.68612 0.0
C1770 C 0.84339 0.62009 0.70742 0.0
C1771 C 0.84838 0.60484 0.7089 0.0
C1772 C 0.84746 0.56321 0.6838 0.0
C1773 C 0.86287 0.52652 0.69968 0.0
C1774 C 0.86152 0.54519 0.69839 0.0
C1775 C 0.85358 0.59707 0.69522 0.0
C1776 C 0.85686 0.57954 0.69626 0.0
H1777 H 0.85801 0.49283 0.72716 0.0
H1778 H 0.86074 0.52608 0.726 0.0
H1779 H 0.84162 0.53367 0.67529 0.0
H1780 H 0.84998 0.62635 0.66688 0.0
H1781 H 0.85863 0.59979 0.66951 0.0
C1782 C 0.43846 0.91723 0.24663 0.0
C1783 C 0.43334 0.89678 0.24629 0.0
C1784 C 0.4453 0.92783 0.23285 0.0
C1785 C 0.46619 0.92564 0.1932 0.0
H1786 H 0.44887 0.96399 0.18213 0.0
C1787 C 0.4761 0.95885 0.13035 0.0
C1788 C 0.48314 0.9798 0.1306 0.0
C1789 C 0.47079 0.94913 0.1447 0.0
C1790 C 0.454 0.95347 0.18515 0.0
H1791 H 0.43099 0.8713 0.23108 0.0
H1792 H 0.44253 0.88958 0.20701 0.0
H1793 H 0.43812 0.94633 0.20664 0.0
H1794 H 0.49055 0.00695 0.14644 0.0
H1795 H 0.48088 0.98988 0.17133 0.0
H1796 H 0.48169 0.93253 0.17145 0.0
C1797 C 0.44184 0.89769 0.21804 0.0
C1798 C 0.44789 0.94337 0.19925 0.0
C1799 C 0.43517 0.88716 0.23185 0.0
C1800 C 0.48482 0.99074 0.14565 0.0
C1801 C 0.47933 0.98098 0.15996 0.0
C1802 C 0.47213 0.93561 0.17902 0.0
C1803 C 0.44701 0.91818 0.21833 0.0
C1804 C 0.45387 0.92928 0.20346 0.0
C1805 C 0.47221 0.96006 0.15965 0.0
C1806 C 0.46609 0.94962 0.17482 0.0
H1807 H 0.43737 0.9251 0.25763 0.0
H1808 H 0.44944 0.94367 0.23366 0.0
H1809 H 0.47144 0.91521 0.19618 0.0
H1810 H 0.47426 0.94982 0.11898 0.0
H1811 H 0.46512 0.93294 0.14402 0.0
C1812 C 0.06849 0.52232 0.25782 0.0
C1813 C 0.08992 0.53459 0.26091 0.0
C1814 C 0.05846 0.52032 0.24225 0.0
C1815 C 0.0659 0.54314 0.20242 0.0
H1816 H 0.02229 0.4891 0.18506 0.0
C1817 C 0.03719 0.5186 0.13313 0.0
C1818 C 0.01589 0.50631 0.12876 0.0
C1819 C 0.04537 0.52354 0.14967 0.0
C1820 C 0.03426 0.50434 0.18981 0.0
H1821 H 0.11767 0.55442 0.25019 0.0
H1822 H 0.10031 0.55069 0.223 0.0
H1823 H 0.03799 0.49497 0.21327 0.0
H1824 H 0.98646 0.49039 0.13846 0.0
H1825 H 0.0008 0.49871 0.16729 0.0
H1826 H 0.0625 0.55226 0.17868 0.0
C1827 C 0.09111 0.54298 0.23264 0.0
C1828 C 0.04324 0.50774 0.20601 0.0
C1829 C 0.10109 0.54509 0.24823 0.0
C1830 C 0.00296 0.49951 0.14136 0.0
C1831 C 0.01115 0.50432 0.15787 0.0
C1832 C 0.05702 0.53969 0.18617 0.0
C1833 C 0.06969 0.53041 0.2294 0.0
C1834 C 0.05929 0.52715 0.21249 0.0
C1835 C 0.03244 0.5162 0.16219 0.0
C1836 C 0.04122 0.52021 0.17966 0.0
H1837 H 0.05949 0.51422 0.26743 0.0
H1838 H 0.04191 0.5108 0.24027 0.0
H1839 H 0.07797 0.55836 0.20709 0.0
H1840 H 0.04763 0.52389 0.12376 0.0
H1841 H 0.06187 0.53254 0.15264 0.0
C1842 C 0.43943 0.54074 0.23512 0.0
C1843 C 0.45259 0.54586 0.24978 0.0
C1844 C 0.44375 0.53383 0.22052 0.0
C1845 C 0.48789 0.53875 0.20099 0.0
H1846 H 0.44727 0.4961 0.16853 0.0
C1847 C 0.51139 0.51753 0.14089 0.0
C1848 C 0.49843 0.51349 0.1263 0.0
C1849 C 0.50493 0.519 0.15626 0.0
C1850 C 0.45877 0.50819 0.17739 0.0
H1851 H 0.47976 0.54637 0.26082 0.0
H1852 H 0.48737 0.53451 0.23535 0.0
H1853 H 0.43711 0.50271 0.19489 0.0
H1854 H 0.46809 0.50701 0.11663 0.0
H1855 H 0.45717 0.51041 0.14335 0.0
H1856 H 0.50942 0.54481 0.18349 0.0
C1857 C 0.4739 0.53613 0.23509 0.0
C1858 C 0.45295 0.51191 0.19251 0.0
C1859 C 0.46954 0.54292 0.24967 0.0
C1860 C 0.47864 0.51048 0.12755 0.0
C1861 C 0.47225 0.51214 0.14293 0.0
C1862 C 0.49367 0.53517 0.18587 0.0
C1863 C 0.46135 0.532 0.22027 0.0
C1864 C 0.46745 0.52726 0.20446 0.0
C1865 C 0.48541 0.51668 0.15749 0.0
C1866 C 0.4792 0.51988 0.17382 0.0
H1867 H 0.42638 0.54304 0.2347 0.0
H1868 H 0.43387 0.5309 0.20928 0.0
H1869 H 0.49935 0.55096 0.20982 0.0
H1870 H 0.52681 0.52015 0.14048 0.0
H1871 H 0.51538 0.52215 0.16718 0.0
C1872 C 0.88983 0.42608 0.77656 0.0
C1873 C 0.89623 0.44076 0.76536 0.0
C1874 C 0.89717 0.43167 0.79321 0.0
C1875 C 0.92497 0.47563 0.82545 0.0
H1876 H 0.93936 0.43902 0.84575 0.0
C1877 C 0.9757 0.49616 0.88795 0.0
C1878 C 0.96947 0.48094 0.89874 0.0
C1879 C 0.96553 0.49194 0.87206 0.0
C1880 C 0.9352 0.44928 0.84033 0.0
H1881 H 0.91459 0.47286 0.76273 0.0
H1882 H 0.92794 0.48273 0.79193 0.0
H1883 H 0.92378 0.4306 0.81738 0.0
H1884 H 0.94755 0.44946 0.90138 0.0
H1885 H 0.92978 0.44214 0.87371 0.0
H1886 H 0.93698 0.49453 0.84848 0.0
C1887 C 0.917 0.46691 0.78789 0.0
C1888 C 0.92621 0.44445 0.82406 0.0
C1889 C 0.90943 0.4613 0.77119 0.0
C1890 C 0.95262 0.46155 0.89341 0.0
C1891 C 0.94257 0.4573 0.87752 0.0
C1892 C 0.93414 0.48054 0.84175 0.0
C1893 C 0.91132 0.45206 0.79903 0.0
C1894 C 0.92085 0.45747 0.81642 0.0
C1895 C 0.94906 0.47237 0.86661 0.0
C1896 C 0.93924 0.46735 0.84937 0.0
H1897 H 0.8794 0.41017 0.77236 0.0
H1898 H 0.89201 0.41992 0.80149 0.0
H1899 H 0.9209 0.48592 0.81999 0.0
H1900 H 0.9885 0.51131 0.89178 0.0
H1901 H 0.97095 0.50382 0.8639 0.0
C1902 C 0.5589 0.47994 0.77953 0.0
C1903 C 0.56501 0.46535 0.77764 0.0
C1904 C 0.55096 0.48233 0.79391 0.0
C1905 C 0.52883 0.45682 0.8309 0.0
H1906 H 0.54548 0.51159 0.84914 0.0
C1907 C 0.51622 0.47586 0.89711 0.0
C1908 C 0.50948 0.48996 0.89932 0.0
C1909 C 0.52202 0.47235 0.88194 0.0
C1910 C 0.54051 0.49618 0.84412 0.0
H1911 H 0.56761 0.44185 0.78939 0.0
H1912 H 0.55401 0.44615 0.81453 0.0
H1913 H 0.55721 0.50633 0.82328 0.0
H1914 H 0.5031 0.51101 0.88703 0.0
H1915 H 0.51351 0.50507 0.86068 0.0
H1916 H 0.51243 0.44677 0.85197 0.0
C1917 C 0.55493 0.45549 0.80479 0.0
C1918 C 0.54719 0.49315 0.82925 0.0
C1919 C 0.56276 0.45302 0.79037 0.0
C1920 C 0.50857 0.50034 0.8859 0.0
C1921 C 0.51449 0.49691 0.87077 0.0
C1922 C 0.52225 0.45988 0.84583 0.0
C1923 C 0.54906 0.47028 0.80681 0.0
C1924 C 0.54148 0.47343 0.82245 0.0
C1925 C 0.52134 0.48292 0.86862 0.0
C1926 C 0.52805 0.4796 0.85263 0.0
H1927 H 0.56022 0.4895 0.76986 0.0
H1928 H 0.54625 0.49361 0.79489 0.0
H1929 H 0.52383 0.44141 0.82592 0.0
H1930 H 0.51744 0.46783 0.90722 0.0
H1931 H 0.52749 0.46167 0.88075 0.0
C1932 C 0.56108 0.10894 0.8052 0.0
C1933 C 0.54714 0.10056 0.79083 0.0
C1934 C 0.55721 0.09859 0.81929 0.0
C1935 C 0.52476 0.0481 0.8343 0.0
H1936 H 0.53504 0.08047 0.87589 0.0
C1937 C 0.48982 0.01255 0.89292 0.0
C1938 C 0.50233 0.02054 0.90805 0.0
C1939 C 0.49645 0.02197 0.87862 0.0
C1940 C 0.53231 0.07122 0.86442 0.0
H1941 H 0.51869 0.07422 0.7798 0.0
H1942 H 0.51171 0.05639 0.80441 0.0
H1943 H 0.5449 0.09719 0.85089 0.0
H1944 H 0.53187 0.04462 0.91982 0.0
H1945 H 0.54332 0.06116 0.8949 0.0
H1946 H 0.51179 0.02209 0.84785 0.0
C1947 C 0.52574 0.0709 0.8048 0.0
C1948 C 0.53802 0.08082 0.85006 0.0
C1949 C 0.52964 0.08122 0.79071 0.0
C1950 C 0.52167 0.03822 0.90847 0.0
C1951 C 0.52827 0.04769 0.89416 0.0
C1952 C 0.51899 0.0385 0.84866 0.0
C1953 C 0.53928 0.07961 0.81938 0.0
C1954 C 0.5342 0.06939 0.83478 0.0
C1955 C 0.51574 0.03968 0.87906 0.0
C1956 C 0.52256 0.04993 0.86388 0.0
H1957 H 0.57461 0.12388 0.80581 0.0
H1958 H 0.56814 0.10562 0.8302 0.0
H1959 H 0.52186 0.03883 0.82281 0.0
H1960 H 0.4747 -0.00082 0.89216 0.0
H1961 H 0.48627 0.0156 0.86725 0.0
C1962 C 0.11631 0.23724 0.57246 0.0
C1963 C 0.09518 0.22455 0.57334 0.0
C1964 C 0.12334 0.24755 0.55856 0.0
C1965 C 0.10573 0.26462 0.5225 0.0
H1966 H 0.15519 0.27116 0.50563 0.0
C1967 C 0.12913 0.29474 0.45974 0.0
C1968 C 0.14992 0.30901 0.45894 0.0
C1969 C 0.1228 0.28451 0.47373 0.0
C1970 C 0.14146 0.26963 0.51029 0.0
H1971 H 0.06493 0.21217 0.56006 0.0
H1972 H 0.07713 0.22989 0.53582 0.0
H1973 H 0.14352 0.25306 0.52987 0.0
H1974 H 0.18042 0.32344 0.47219 0.0
H1975 H 0.16936 0.30564 0.49669 0.0
H1976 H 0.10357 0.28102 0.50283 0.0
C1977 C 0.0883 0.23235 0.54601 0.0
C1978 C 0.13477 0.25928 0.52421 0.0
C1979 C 0.08128 0.22214 0.55991 0.0
C1980 C 0.16427 0.31267 0.47245 0.0
C1981 C 0.15795 0.30233 0.48643 0.0
C1982 C 0.11236 0.27487 0.50855 0.0
C1983 C 0.10941 0.24533 0.54518 0.0
C1984 C 0.11677 0.25657 0.53047 0.0
C1985 C 0.13712 0.2882 0.48727 0.0
C1986 C 0.13027 0.27746 0.50224 0.0
H1987 H 0.1274 0.23954 0.58266 0.0
H1988 H 0.13969 0.25758 0.55847 0.0
H1989 H 0.09204 0.26322 0.52714 0.0
H1990 H 0.11764 0.2917 0.44962 0.0
H1991 H 0.10667 0.27358 0.4739 0.0
C1992 C 0.7737 0.88376 0.58823 0.0
C1993 C 0.76121 0.87236 0.59999 0.0
C1994 C 0.76524 0.88216 0.57213 0.0
C1995 C 0.71679 0.86609 0.5463 0.0
H1996 H 0.74449 0.85705 0.51136 0.0
C1997 C 0.67837 0.83784 0.47944 0.0
C1998 C 0.69066 0.84533 0.46654 0.0
C1999 C 0.68722 0.84251 0.49578 0.0
C2000 C 0.73672 0.8599 0.52092 0.0
H2001 H 0.73001 0.85096 0.6043 0.0
H2002 H 0.7152 0.84818 0.57613 0.0
H2003 H 0.7595 0.86333 0.53985 0.0
H2004 H 0.72198 0.86373 0.4608 0.0
H2005 H 0.73732 0.87243 0.48931 0.0
H2006 H 0.69403 0.86274 0.52739 0.0
C2007 C 0.73152 0.85835 0.57938 0.0
C2008 C 0.74532 0.86346 0.53725 0.0
C2009 C 0.74 0.85982 0.59546 0.0
C2010 C 0.71201 0.85785 0.47042 0.0
C2011 C 0.72084 0.86263 0.48678 0.0
C2012 C 0.70826 0.86268 0.52993 0.0
C2013 C 0.74411 0.86925 0.56748 0.0
C2014 C 0.73537 0.86644 0.55012 0.0
C2015 C 0.70858 0.85491 0.49966 0.0
C2016 C 0.71803 0.85937 0.51704 0.0
H2017 H 0.79012 0.89341 0.59133 0.0
H2018 H 0.77528 0.89088 0.56325 0.0
H2019 H 0.70891 0.86857 0.55596 0.0
H2020 H 0.66185 0.82841 0.47694 0.0
H2021 H 0.6773 0.8361 0.50535 0.0
C2022 C 0.10734 0.87711 0.56992 0.0
C2023 C 0.12019 0.88192 0.5847 0.0
C2024 C 0.11194 0.87048 0.55535 0.0
C2025 C 0.1564 0.8748 0.53639 0.0
H2026 H 0.1156 0.83357 0.50314 0.0
C2027 C 0.17939 0.8509 0.47705 0.0
C2028 C 0.16709 0.84763 0.46225 0.0
C2029 C 0.173 0.85342 0.49219 0.0
C2030 C 0.12716 0.84526 0.51224 0.0
H2031 H 0.14718 0.88228 0.59598 0.0
H2032 H 0.1552 0.87072 0.57058 0.0
H2033 H 0.10521 0.84019 0.52936 0.0
H2034 H 0.13816 0.84405 0.45187 0.0
H2035 H 0.1273 0.84909 0.47825 0.0
H2036 H 0.17827 0.88025 0.51927 0.0
C2037 C 0.14178 0.87244 0.57019 0.0
C2038 C 0.1212 0.849 0.52727 0.0
C2039 C 0.13717 0.87901 0.58474 0.0
C2040 C 0.14815 0.84681 0.463 0.0
C2041 C 0.14179 0.84941 0.47816 0.0
C2042 C 0.16233 0.87113 0.52137 0.0
C2043 C 0.12951 0.86857 0.55526 0.0
C2044 C 0.13576 0.86385 0.53951 0.0
C2045 C 0.15418 0.85286 0.49295 0.0
C2046 C 0.1478 0.85636 0.50907 0.0
H2047 H 0.09429 0.87941 0.56942 0.0
H2048 H 0.10227 0.86778 0.54403 0.0
H2049 H 0.16793 0.88662 0.54543 0.0
H2050 H 0.19417 0.85184 0.47695 0.0
H2051 H 0.18283 0.85579 0.50333 0.0
C2052 C 0.56125 0.78388 0.1175 0.0
C2053 C 0.572 0.78173 0.10489 0.0
C2054 C 0.57101 0.79157 0.13349 0.0
C2055 C 0.62176 0.81992 0.1583 0.0
H2056 H 0.59212 0.78832 0.19274 0.0
C2057 C 0.66117 0.82429 0.22257 0.0
C2058 C 0.65014 0.82162 0.23628 0.0
C2059 C 0.65189 0.82234 0.2067 0.0
C2060 C 0.60051 0.79759 0.18336 0.0
H2061 H 0.60163 0.7868 0.09901 0.0
H2062 H 0.61865 0.80009 0.12699 0.0
H2063 H 0.5755 0.77985 0.16467 0.0
H2064 H 0.62087 0.81551 0.24403 0.0
H2065 H 0.60493 0.81278 0.21645 0.0
H2066 H 0.64689 0.83753 0.17701 0.0
C2067 C 0.6027 0.79591 0.12449 0.0
C2068 C 0.59096 0.7927 0.16724 0.0
C2069 C 0.59291 0.78812 0.1085 0.0
C2070 C 0.62989 0.81782 0.23379 0.0
C2071 C 0.62065 0.81597 0.21793 0.0
C2072 C 0.6313 0.8249 0.17447 0.0
C2073 C 0.59174 0.79736 0.13722 0.0
C2074 C 0.60155 0.80364 0.15449 0.0
C2075 C 0.63138 0.81777 0.20415 0.0
C2076 C 0.62087 0.81363 0.18717 0.0
H2077 H 0.54508 0.77892 0.11516 0.0
H2078 H 0.56222 0.7927 0.143 0.0
H2079 H 0.63023 0.82878 0.14876 0.0
H2080 H 0.6769 0.82755 0.22406 0.0
H2081 H 0.66059 0.82369 0.19639 0.0
C2082 C 0.23099 0.78848 0.12584 0.0
C2083 C 0.23139 0.79951 0.11257 0.0
C2084 C 0.22361 0.79119 0.14043 0.0
C2085 C 0.21301 0.82759 0.16379 0.0
H2086 H 0.18344 0.78213 0.18909 0.0
C2087 C 0.17507 0.83378 0.2212 0.0
C2088 C 0.17892 0.82581 0.23522 0.0
C2089 C 0.18047 0.83 0.20594 0.0
C2090 C 0.19179 0.79499 0.1822 0.0
H2091 H 0.22397 0.82169 0.10402 0.0
H2092 H 0.21063 0.82611 0.12934 0.0
H2093 H 0.19429 0.77652 0.16284 0.0
H2094 H 0.19145 0.80746 0.24399 0.0
H2095 H 0.20043 0.80051 0.21727 0.0
H2096 H 0.21023 0.84597 0.18312 0.0
C2097 C 0.21646 0.81571 0.12866 0.0
C2098 C 0.19808 0.79181 0.16717 0.0
C2099 C 0.22402 0.81313 0.11412 0.0
C2100 C 0.18793 0.81359 0.23346 0.0
C2101 C 0.19316 0.80965 0.21815 0.0
C2102 C 0.20654 0.83072 0.17874 0.0
C2103 C 0.21629 0.80488 0.14207 0.0
C2104 C 0.20891 0.8081 0.15781 0.0
C2105 C 0.18967 0.81798 0.20426 0.0
C2106 C 0.19598 0.81448 0.18816 0.0
H2107 H 0.23687 0.77811 0.12511 0.0
H2108 H 0.22412 0.78287 0.15056 0.0
H2109 H 0.22163 0.84058 0.15711 0.0
H2110 H 0.16777 0.84291 0.22198 0.0
H2111 H 0.17732 0.83638 0.19541 0.0
C2112 C 0.21771 0.42457 0.12516 0.0
C2113 C 0.2087 0.43618 0.12084 0.0
C2114 C 0.21337 0.41469 0.13954 0.0
C2115 C 0.1748 0.39698 0.16973 0.0
H2116 H 0.21665 0.39375 0.19727 0.0
C2117 C 0.16234 0.37142 0.23492 0.0
C2118 C 0.16859 0.35763 0.23935 0.0
C2119 C 0.16773 0.38077 0.22042 0.0
C2120 C 0.20475 0.39437 0.18962 0.0
H2121 H 0.18896 0.44741 0.12866 0.0
H2122 H 0.18166 0.43057 0.15368 0.0
H2123 H 0.22529 0.41049 0.17204 0.0
H2124 H 0.18583 0.34321 0.23218 0.0
H2125 H 0.19521 0.35952 0.20681 0.0
H2126 H 0.15435 0.38114 0.18739 0.0
C2127 C 0.19152 0.42844 0.14577 0.0
C2128 C 0.20969 0.40393 0.17513 0.0
C2129 C 0.19574 0.43816 0.13142 0.0
C2130 C 0.18061 0.35362 0.22903 0.0
C2131 C 0.18615 0.3631 0.21458 0.0
C2132 C 0.16992 0.38758 0.18423 0.0
C2133 C 0.20004 0.41636 0.14995 0.0
C2134 C 0.1948 0.40552 0.16507 0.0
C2135 C 0.17962 0.37666 0.21004 0.0
C2136 C 0.18486 0.38628 0.19442 0.0
H2137 H 0.22774 0.42277 0.11723 0.0
H2138 H 0.22011 0.40542 0.1423 0.0
H2139 H 0.16278 0.39746 0.16213 0.0
H2140 H 0.15294 0.37473 0.24251 0.0
H2141 H 0.16264 0.39131 0.21737 0.0
C2142 C 0.76861 0.55318 0.89576 0.0
C2143 C 0.76663 0.56274 0.91017 0.0
C2144 C 0.77578 0.5639 0.88212 0.0
C2145 C 0.805 0.61545 0.86926 0.0
H2146 H 0.77481 0.5894 0.82646 0.0
C2147 C 0.82057 0.65903 0.81142 0.0
C2148 C 0.81927 0.64855 0.79624 0.0
C2149 C 0.81459 0.64874 0.82544 0.0
C2150 C 0.78364 0.59683 0.83825 0.0
H2151 H 0.77117 0.5912 0.92172 0.0
H2152 H 0.78379 0.60999 0.89787 0.0
H2153 H 0.76415 0.57124 0.8507 0.0
H2154 H 0.81045 0.61887 0.78403 0.0
H2155 H 0.8008 0.60115 0.80852 0.0
H2156 H 0.82466 0.64095 0.85682 0.0
C2157 C 0.77978 0.59418 0.89715 0.0
C2158 C 0.77747 0.5864 0.85217 0.0
C2159 C 0.77242 0.5834 0.91075 0.0
C2160 C 0.81195 0.62753 0.79551 0.0
C2161 C 0.8061 0.61728 0.80955 0.0
C2162 C 0.81129 0.62583 0.85531 0.0
C2163 C 0.78129 0.58448 0.88261 0.0
C2164 C 0.78807 0.59559 0.86783 0.0
C2165 C 0.80725 0.62772 0.8247 0.0
C2166 C 0.80067 0.61667 0.83961 0.0
H2167 H 0.76407 0.53722 0.89485 0.0
H2168 H 0.77697 0.55606 0.87115 0.0
H2169 H 0.81361 0.62285 0.88114 0.0
H2170 H 0.82637 0.67525 0.81254 0.0
H2171 H 0.81548 0.65727 0.83682 0.0
C2172 C 0.4399 0.22008 0.92232 0.0
C2173 C 0.42747 0.2072 0.93343 0.0
C2174 C 0.43172 0.21902 0.90622 0.0
C2175 C 0.3832 0.20099 0.87968 0.0
H2176 H 0.4135 0.19672 0.84474 0.0
C2177 C 0.34624 0.17262 0.81256 0.0
C2178 C 0.35833 0.18144 0.79979 0.0
C2179 C 0.35501 0.17744 0.82893 0.0
C2180 C 0.40497 0.19823 0.85431 0.0
H2181 H 0.3966 0.18372 0.93665 0.0
H2182 H 0.38229 0.18188 0.90853 0.0
H2183 H 0.4282 0.20284 0.87332 0.0
H2184 H 0.38922 0.20233 0.79432 0.0
H2185 H 0.4044 0.2112 0.8229 0.0
H2186 H 0.35995 0.19637 0.86072 0.0
C2187 C 0.39834 0.1928 0.91226 0.0
C2188 C 0.41341 0.20172 0.8707 0.0
C2189 C 0.40656 0.19374 0.9283 0.0
C2190 C 0.3794 0.19539 0.80384 0.0
C2191 C 0.38816 0.20029 0.82023 0.0
C2192 C 0.37481 0.19764 0.86328 0.0
C2193 C 0.41091 0.20518 0.90096 0.0
C2194 C 0.40251 0.2029 0.88356 0.0
C2195 C 0.3761 0.1913 0.83298 0.0
C2196 C 0.38548 0.19597 0.85039 0.0
H2197 H 0.45611 0.2305 0.92591 0.0
H2198 H 0.44172 0.22887 0.89782 0.0
H2199 H 0.37456 0.20208 0.88934 0.0
H2200 H 0.32991 0.16205 0.80994 0.0
H2201 H 0.34529 0.17001 0.83838 0.0
C2202 C 0.76496 0.20236 0.89911 0.0
C2203 C 0.77958 0.20911 0.91301 0.0
C2204 C 0.76828 0.19489 0.8843 0.0
C2205 C 0.8019 0.17791 0.86562 0.0
H2206 H 0.78855 0.19716 0.82646 0.0
C2207 C 0.83901 0.18236 0.80528 0.0
C2208 C 0.82636 0.17667 0.79025 0.0
C2209 C 0.83139 0.18335 0.8202 0.0
C2210 C 0.79213 0.19142 0.83723 0.0
H2211 H 0.80851 0.21197 0.92248 0.0
H2212 H 0.81463 0.19966 0.89663 0.0
H2213 H 0.77833 0.20369 0.85264 0.0
H2214 H 0.79544 0.16681 0.77936 0.0
H2215 H 0.78233 0.16899 0.80538 0.0
H2216 H 0.81641 0.16633 0.85017 0.0
C2217 C 0.80046 0.1999 0.89713 0.0
C2218 C 0.78619 0.19509 0.85227 0.0
C2219 C 0.79707 0.20721 0.91195 0.0
C2220 C 0.80577 0.17165 0.79062 0.0
C2221 C 0.79821 0.17281 0.80554 0.0
C2222 C 0.808 0.17441 0.85058 0.0
C2223 C 0.78635 0.19409 0.88297 0.0
C2224 C 0.79119 0.18859 0.86673 0.0
C2225 C 0.81098 0.17884 0.82049 0.0
C2226 C 0.80337 0.18131 0.83626 0.0
H2227 H 0.75138 0.2037 0.89941 0.0
H2228 H 0.75686 0.19018 0.87377 0.0
H2229 H 0.80571 0.17235 0.8764 0.0
H2230 H 0.85502 0.18666 0.80551 0.0
H2231 H 0.84169 0.1883 0.83149 0.0
C2232 C 0.26439 0.12774 0.44107 0.0
C2233 C 0.24345 0.12169 0.43974 0.0
C2234 C 0.27684 0.1372 0.45593 0.0
C2235 C 0.27841 0.16106 0.49763 0.0
H2236 H 0.31419 0.14022 0.51053 0.0
C2237 C 0.30548 0.16034 0.5651 0.0
C2238 C 0.32548 0.16382 0.56889 0.0
C2239 C 0.29797 0.15958 0.54885 0.0
C2240 C 0.30457 0.14649 0.50704 0.0
H2241 H 0.21924 0.12128 0.4528 0.0
H2242 H 0.24076 0.13742 0.47876 0.0
H2243 H 0.29659 0.131 0.48279 0.0
H2244 H 0.35369 0.17055 0.55866 0.0
H2245 H 0.34043 0.16893 0.53025 0.0
H2246 H 0.28582 0.17581 0.52225 0.0
C2247 C 0.24778 0.13532 0.46827 0.0
C2248 C 0.29448 0.14124 0.49108 0.0
C2249 C 0.23539 0.12601 0.45338 0.0
C2250 C 0.33808 0.16743 0.55613 0.0
C2251 C 0.33052 0.16655 0.53986 0.0
C2252 C 0.28841 0.16619 0.51366 0.0
C2253 C 0.26856 0.14064 0.46985 0.0
C2254 C 0.28099 0.14816 0.48624 0.0
C2255 C 0.31024 0.16219 0.53601 0.0
C2256 C 0.30133 0.15868 0.5186 0.0
H2257 H 0.27105 0.12479 0.43068 0.0
H2258 H 0.29286 0.14146 0.4566 0.0
H2259 H 0.26842 0.16695 0.49425 0.0
H2260 H 0.29526 0.15725 0.57457 0.0
H2261 H 0.2822 0.15596 0.54624 0.0
C2262 C 0.89421 0.11971 0.45391 0.0
C2263 C 0.89718 0.13325 0.44202 0.0
C2264 C 0.88695 0.12174 0.46878 0.0
C2265 C 0.85975 0.14484 0.48881 0.0
H2266 H 0.88541 0.13914 0.52923 0.0
C2267 C 0.8455 0.168 0.55292 0.0
C2268 C 0.8435 0.15549 0.56546 0.0
C2269 C 0.8516 0.16479 0.53781 0.0
C2270 C 0.87788 0.14053 0.51805 0.0
H2271 H 0.89437 0.15924 0.43632 0.0
H2272 H 0.88198 0.16294 0.46233 0.0
H2273 H 0.8965 0.1342 0.50292 0.0
H2274 H 0.84613 0.12959 0.57182 0.0
H2275 H 0.85672 0.12395 0.54544 0.0
H2276 H 0.84116 0.15122 0.50393 0.0
C2277 C 0.88512 0.15066 0.46012 0.0
C2278 C 0.88425 0.13769 0.50295 0.0
C2279 C 0.89243 0.14867 0.44527 0.0
C2280 C 0.84779 0.13969 0.56251 0.0
C2281 C 0.85387 0.13646 0.54738 0.0
C2282 C 0.85336 0.14765 0.50391 0.0
C2283 C 0.88244 0.13732 0.47211 0.0
C2284 C 0.87531 0.13988 0.48815 0.0
C2285 C 0.85585 0.14897 0.53483 0.0
C2286 C 0.8624 0.14561 0.51873 0.0
H2287 H 0.89791 0.10779 0.45188 0.0
H2288 H 0.88485 0.11106 0.47767 0.0
H2289 H 0.85232 0.14633 0.47763 0.0
H2290 H 0.84267 0.18052 0.55487 0.0
H2291 H 0.85331 0.17494 0.52855 0.0
C2292 C 0.86542 0.74835 0.45745 0.0
C2293 C 0.88288 0.7677 0.45747 0.0
C2294 C 0.86143 0.7383 0.47167 0.0
C2295 C 0.87302 0.74918 0.5169 0.0
H2296 H 0.84623 0.69048 0.51547 0.0
C2297 C 0.83421 0.70657 0.57187 0.0
C2298 C 0.83578 0.6895 0.57527 0.0
C2299 C 0.84116 0.71602 0.55762 0.0
C2300 C 0.8539 0.70691 0.51615 0.0
H2301 H 0.91025 0.79127 0.47237 0.0
H2302 H 0.9036 0.77348 0.49705 0.0
H2303 H 0.85725 0.70668 0.49038 0.0
H2304 H 0.84635 0.66928 0.56649 0.0
H2305 H 0.85859 0.68581 0.54172 0.0
H2306 H 0.86993 0.74945 0.5427 0.0
C2307 C 0.89277 0.76624 0.4861 0.0
C2308 C 0.86003 0.71619 0.5017 0.0
C2309 C 0.89674 0.77633 0.47186 0.0
C2310 C 0.84459 0.68219 0.56412 0.0
C2311 C 0.85161 0.69168 0.5499 0.0
C2312 C 0.86694 0.7399 0.53135 0.0
C2313 C 0.87483 0.7473 0.48629 0.0
C2314 C 0.8695 0.73744 0.50185 0.0
C2315 C 0.84995 0.70869 0.54643 0.0
C2316 C 0.85712 0.71863 0.53114 0.0
H2317 H 0.85454 0.74117 0.44652 0.0
H2318 H 0.8474 0.72381 0.47135 0.0
H2319 H 0.88004 0.76555 0.51748 0.0
H2320 H 0.82726 0.71243 0.58009 0.0
H2321 H 0.8393 0.72887 0.55524 0.0
loop_
_geom_bond_atom_site_label_1
_geom_bond_atom_site_label_2
_geom_bond_distance
_geom_bond_site_symmetry_2
_ccdc_geom_bond_type
H0 C1 0.949 . S
C1 H0 0.949 . S
C1 C2 1.395 . S
C1 C3 1.391 . S
C2 C1 1.395 . S
C2 C5 1.390 . S
C3 C1 1.391 . S
C3 C7 1.387 . S
C3 C8 1.491 . S
H4 C5 0.950 . S
C5 C2 1.390 . S
C5 H4 0.950 . S
C5 C6 1.378 . S
C6 C5 1.378 . S
C6 C7 1.409 . S
C7 C3 1.387 . S
C7 C6 1.409 . S
C7 H9 0.951 . S
C8 C3 1.491 . S
C8 C10 1.382 . S
C8 C12 1.404 . S
H9 C7 0.951 . S
C10 C8 1.382 . S
C10 C11 1.390 . S
C10 H15 0.949 . S
C11 C10 1.390 . S
C11 C16 1.399 . S
C12 C8 1.404 . S
C12 H13 0.950 . S
C12 C14 1.375 . S
H13 C12 0.950 . S
C14 C12 1.375 . S
C14 C16 1.382 . S
C14 H18 0.950 . S
H15 C10 0.949 . S
C16 C11 1.399 . S
C16 C14 1.382 . S
C16 H17 0.952 . S
H17 C16 0.952 . S
H18 C14 0.950 . S
H19 C20 0.949 . S
C20 H19 0.949 . S
C20 C21 1.395 . S
C20 C22 1.391 . S
C21 C20 1.395 . S
C21 C24 1.390 . S
C22 C20 1.391 . S
C22 C26 1.387 . S
C22 C27 1.491 . S
H23 C24 0.950 . S
C24 C21 1.390 . S
C24 H23 0.950 . S
C24 C25 1.378 . S
C25 C24 1.378 . S
C25 C26 1.409 . S
C26 C22 1.387 . S
C26 C25 1.409 . S
C26 H28 0.951 . S
C27 C22 1.491 . S
C27 C29 1.382 . S
C27 C31 1.404 . S
H28 C26 0.951 . S
C29 C27 1.382 . S
C29 C30 1.390 . S
C29 H34 0.949 . S
C30 C29 1.390 . S
C30 C35 1.399 . S
C31 C27 1.404 . S
C31 H32 0.950 . S
C31 C33 1.375 . S
H32 C31 0.950 . S
C33 C31 1.375 . S
C33 C35 1.382 . S
C33 H37 0.950 . S
H34 C29 0.949 . S
C35 C30 1.399 . S
C35 C33 1.382 . S
C35 H36 0.952 . S
H36 C35 0.952 . S
H37 C33 0.950 . S
H38 C39 0.949 . S
C39 H38 0.949 . S
C39 C40 1.395 . S
C39 C41 1.391 . S
C40 C39 1.395 . S
C40 C43 1.390 . S
C41 C39 1.391 . S
C41 C45 1.387 . S
C41 C46 1.491 . S
H42 C43 0.950 . S
C43 C40 1.390 . S
C43 H42 0.950 . S
C43 C44 1.378 . S
C44 C43 1.378 . S
C44 C45 1.409 . S
C45 C41 1.387 . S
C45 C44 1.409 . S
C45 H47 0.951 . S
C46 C41 1.491 . S
C46 C48 1.382 . S
C46 C50 1.404 . S
H47 C45 0.951 . S
C48 C46 1.382 . S
C48 C49 1.390 . S
C48 H53 0.949 . S
C49 C48 1.390 . S
C49 C54 1.399 . S
C50 C46 1.404 . S
C50 H51 0.950 . S
C50 C52 1.375 . S
H51 C50 0.950 . S
C52 C50 1.375 . S
C52 C54 1.382 . S
C52 H56 0.950 . S
H53 C48 0.949 . S
C54 C49 1.399 . S
C54 C52 1.382 . S
C54 H55 0.952 . S
H55 C54 0.952 . S
H56 C52 0.950 . S
H57 C58 0.949 . S
C58 H57 0.949 . S
C58 C59 1.395 . S
C58 C60 1.391 . S
C59 C58 1.395 . S
C59 C62 1.390 . S
C60 C58 1.391 . S
C60 C64 1.387 . S
C60 C65 1.491 . S
H61 C62 0.950 . S
C62 C59 1.390 . S
C62 H61 0.950 . S
C62 C63 1.378 . S
C63 C62 1.378 . S
C63 C64 1.409 . S
C64 C60 1.387 . S
C64 C63 1.409 . S
C64 H66 0.951 . S
C65 C60 1.491 . S
C65 C67 1.382 . S
C65 C69 1.404 . S
H66 C64 0.951 . S
C67 C65 1.382 . S
C67 C68 1.390 . S
C67 H72 0.949 . S
C68 C67 1.390 . S
C68 C73 1.399 . S
C69 C65 1.404 . S
C69 H70 0.950 . S
C69 C71 1.375 . S
H70 C69 0.950 . S
C71 C69 1.375 . S
C71 C73 1.382 . S
C71 H75 0.950 . S
H72 C67 0.949 . S
C73 C68 1.399 . S
C73 C71 1.382 . S
C73 H74 0.952 . S
H74 C73 0.952 . S
H75 C71 0.950 . S
H76 C77 0.949 . S
C77 H76 0.949 . S
C77 C78 1.395 . S
C77 C79 1.391 . S
C78 C77 1.395 . S
C78 C81 1.390 . S
C79 C77 1.391 . S
C79 C83 1.387 . S
C79 C84 1.491 . S
H80 C81 0.950 . S
C81 C78 1.390 . S
C81 H80 0.950 . S
C81 C82 1.378 . S
C82 C81 1.378 . S
C82 C83 1.409 . S
C83 C79 1.387 . S
C83 C82 1.409 . S
C83 H85 0.951 . S
C84 C79 1.491 . S
C84 C86 1.382 . S
C84 C88 1.404 . S
H85 C83 0.951 . S
C86 C84 1.382 . S
C86 C87 1.390 . S
C86 H91 0.949 . S
C87 C86 1.390 . S
C87 C92 1.399 . S
C88 C84 1.404 . S
C88 H89 0.950 . S
C88 C90 1.375 . S
H89 C88 0.950 . S
C90 C88 1.375 . S
C90 C92 1.382 . S
C90 H94 0.950 . S
H91 C86 0.949 . S
C92 C87 1.399 . S
C92 C90 1.382 . S
C92 H93 0.952 . S
H93 C92 0.952 . S
H94 C90 0.950 . S
H95 C96 0.949 . S
C96 H95 0.949 . S
C96 C97 1.395 . S
C96 C98 1.391 . S
C97 C96 1.395 . S
C97 C100 1.390 . S
C98 C96 1.391 . S
C98 C102 1.387 . S
C98 C103 1.491 . S
H99 C100 0.950 . S
C100 C97 1.390 . S
C100 H99 0.950 . S
C100 C101 1.378 . S
C101 C100 1.378 . S
C101 C102 1.409 . S
C102 C98 1.387 . S
C102 C101 1.409 . S
C102 H104 0.951 . S
C103 C98 1.491 . S
C103 C105 1.382 . S
C103 C107 1.404 . S
H104 C102 0.951 . S
C105 C103 1.382 . S
C105 C106 1.390 . S
C105 H110 0.949 . S
C106 C105 1.390 . S
C106 C111 1.399 . S
C107 C103 1.404 . S
C107 H108 0.950 . S
C107 C109 1.375 . S
H108 C107 0.950 . S
C109 C107 1.375 . S
C109 C111 1.382 . S
C109 H113 0.950 . S
H110 C105 0.949 . S
C111 C106 1.399 . S
C111 C109 1.382 . S
C111 H112 0.952 . S
H112 C111 0.952 . S
H113 C109 0.950 . S
H114 C115 0.949 . S
C115 H114 0.949 . S
C115 C116 1.395 . S
C115 C117 1.391 . S
C116 C115 1.395 . S
C116 C119 1.390 . S
C117 C115 1.391 . S
C117 C121 1.387 . S
C117 C122 1.491 . S
H118 C119 0.950 . S
C119 C116 1.390 . S
C119 H118 0.950 . S
C119 C120 1.378 . S
C120 C119 1.378 . S
C120 C121 1.409 . S
C121 C117 1.387 . S
C121 C120 1.409 . S
C121 H123 0.951 . S
C122 C117 1.491 . S
C122 C124 1.382 . S
C122 C126 1.404 . S
H123 C121 0.951 . S
C124 C122 1.382 . S
C124 C125 1.390 . S
C124 H129 0.949 . S
C125 C124 1.390 . S
C125 C130 1.399 . S
C126 C122 1.404 . S
C126 H127 0.950 . S
C126 C128 1.375 . S
H127 C126 0.950 . S
C128 C126 1.375 . S
C128 C130 1.382 . S
C128 H132 0.950 . S
H129 C124 0.949 . S
C130 C125 1.399 . S
C130 C128 1.382 . S
C130 H131 0.952 . S
H131 C130 0.952 . S
H132 C128 0.950 . S
H133 C134 0.949 . S
C134 H133 0.949 . S
C134 C135 1.395 . S
C134 C136 1.391 . S
C135 C134 1.395 . S
C135 C138 1.390 . S
C136 C134 1.391 . S
C136 C140 1.387 . S
C136 C141 1.491 . S
H137 C138 0.950 . S
C138 C135 1.390 . S
C138 H137 0.950 . S
C138 C139 1.378 . S
C139 C138 1.378 . S
C139 C140 1.409 . S
C140 C136 1.387 . S
C140 C139 1.409 . S
C140 H142 0.951 . S
C141 C136 1.491 . S
C141 C143 1.382 . S
C141 C145 1.404 . S
H142 C140 0.951 . S
C143 C141 1.382 . S
C143 C144 1.390 . S
C143 H148 0.949 . S
C144 C143 1.390 . S
C144 C149 1.399 . S
C145 C141 1.404 . S
C145 H146 0.950 . S
C145 C147 1.375 . S
H146 C145 0.950 . S
C147 C145 1.375 . S
C147 C149 1.382 . S
C147 H151 0.950 . S
H148 C143 0.949 . S
C149 C144 1.399 . S
C149 C147 1.382 . S
C149 H150 0.952 . S
H150 C149 0.952 . S
H151 C147 0.950 . S
H152 C153 0.949 . S
C153 H152 0.949 . S
C153 C154 1.395 . S
C153 C155 1.391 . S
C154 C153 1.395 . S
C154 C157 1.390 . S
C155 C153 1.391 . S
C155 C159 1.387 . S
C155 C160 1.491 . S
H156 C157 0.950 . S
C157 C154 1.390 . S
C157 H156 0.950 . S
C157 C158 1.378 . S
C158 C157 1.378 . S
C158 C159 1.409 . S
C159 C155 1.387 . S
C159 C158 1.409 . S
C159 H161 0.951 . S
C160 C155 1.491 . S
C160 C162 1.382 . S
C160 C164 1.404 . S
H161 C159 0.951 . S
C162 C160 1.382 . S
C162 C163 1.390 . S
C162 H167 0.949 . S
C163 C162 1.390 . S
C163 C168 1.399 . S
C164 C160 1.404 . S
C164 H165 0.950 . S
C164 C166 1.375 . S
H165 C164 0.950 . S
C166 C164 1.375 . S
C166 C168 1.382 . S
C166 H170 0.950 . S
H167 C162 0.949 . S
C168 C163 1.399 . S
C168 C166 1.382 . S
C168 H169 0.952 . S
H169 C168 0.952 . S
H170 C166 0.950 . S
H171 C172 0.949 . S
C172 H171 0.949 . S
C172 C173 1.395 . S
C172 C174 1.391 . S
C173 C172 1.395 . S
C173 C176 1.390 . S
C174 C172 1.391 . S
C174 C178 1.387 . S
C174 C179 1.491 . S
H175 C176 0.950 . S
C176 C173 1.390 . S
C176 H175 0.950 . S
C176 C177 1.378 . S
C177 C176 1.378 . S
C177 C178 1.409 . S
C178 C174 1.387 . S
C178 C177 1.409 . S
C178 H180 0.951 . S
C179 C174 1.491 . S
C179 C181 1.382 . S
C179 C183 1.404 . S
H180 C178 0.951 . S
C181 C179 1.382 . S
C181 C182 1.390 . S
C181 H186 0.949 . S
C182 C181 1.390 . S
C182 C187 1.399 . S
C183 C179 1.404 . S
C183 H184 0.950 . S
C183 C185 1.375 . S
H184 C183 0.950 . S
C185 C183 1.375 . S
C185 C187 1.382 . S
C185 H189 0.950 . S
H186 C181 0.949 . S
C187 C182 1.399 . S
C187 C185 1.382 . S
C187 H188 0.952 . S
H188 C187 0.952 . S
H189 C185 0.950 . S
H190 C191 0.949 . S
C191 H190 0.949 . S
C191 C192 1.395 . S
C191 C193 1.391 . S
C192 C191 1.395 . S
C192 C195 1.390 . S
C193 C191 1.391 . S
C193 C197 1.387 . S
C193 C198 1.491 . S
H194 C195 0.950 . S
C195 C192 1.390 . S
C195 H194 0.950 . S
C195 C196 1.378 . S
C196 C195 1.378 . S
C196 C197 1.409 . S
C197 C193 1.387 . S
C197 C196 1.409 . S
C197 H199 0.951 1_556 S
C198 C193 1.491 . S
C198 C200 1.382 . S
C198 C202 1.404 1_556 S
H199 C197 0.951 1_554 S
C200 C198 1.382 . S
C200 C201 1.390 1_556 S
C200 H205 0.949 . S
C201 C200 1.390 1_554 S
C201 C206 1.399 . S
C202 C198 1.404 1_554 S
C202 H203 0.950 . S
C202 C204 1.375 . S
H203 C202 0.950 . S
C204 C202 1.375 . S
C204 C206 1.382 . S
C204 H208 0.950 . S
H205 C200 0.949 . S
C206 C201 1.399 . S
C206 C204 1.382 . S
C206 H207 0.952 . S
H207 C206 0.952 . S
H208 C204 0.950 . S
H209 C210 0.949 . S
C210 H209 0.949 . S
C210 C211 1.395 . S
C210 C212 1.391 . S
C211 C210 1.395 . S
C211 C214 1.390 . S
C212 C210 1.391 . S
C212 C216 1.387 . S
C212 C217 1.491 . S
H213 C214 0.950 . S
C214 C211 1.390 . S
C214 H213 0.950 . S
C214 C215 1.378 . S
C215 C214 1.378 . S
C215 C216 1.409 . S
C216 C212 1.387 . S
C216 C215 1.409 . S
C216 H218 0.951 . S
C217 C212 1.491 . S
C217 C219 1.382 . S
C217 C221 1.404 . S
H218 C216 0.951 . S
C219 C217 1.382 . S
C219 C220 1.390 . S
C219 H224 0.949 . S
C220 C219 1.390 . S
C220 C225 1.399 . S
C221 C217 1.404 . S
C221 H222 0.950 . S
C221 C223 1.375 . S
H222 C221 0.950 . S
C223 C221 1.375 . S
C223 C225 1.382 . S
C223 H227 0.950 . S
H224 C219 0.949 . S
C225 C220 1.399 . S
C225 C223 1.382 . S
C225 H226 0.952 . S
H226 C225 0.952 . S
H227 C223 0.950 . S
H228 C229 0.949 . S
C229 H228 0.949 . S
C229 C230 1.395 . S
C229 C231 1.391 . S
C230 C229 1.395 . S
C230 C233 1.390 . S
C231 C229 1.391 . S
C231 C235 1.387 . S
C231 C236 1.491 . S
H232 C233 0.950 . S
C233 C230 1.390 . S
C233 H232 0.950 . S
C233 C234 1.378 . S
C234 C233 1.378 . S
C234 C235 1.409 . S
C235 C231 1.387 . S
C235 C234 1.409 . S
C235 H237 0.951 . S
C236 C231 1.491 . S
C236 C238 1.382 . S
C236 C240 1.404 . S
H237 C235 0.951 . S
C238 C236 1.382 . S
C238 C239 1.390 . S
C238 H243 0.949 . S
C239 C238 1.390 . S
C239 C244 1.399 . S
C240 C236 1.404 . S
C240 H241 0.950 . S
C240 C242 1.375 . S
H241 C240 0.950 . S
C242 C240 1.375 . S
C242 C244 1.382 . S
C242 H246 0.950 . S
H243 C238 0.949 . S
C244 C239 1.399 . S
C244 C242 1.382 . S
C244 H245 0.952 . S
H245 C244 0.952 . S
H246 C242 0.950 . S
H247 C248 0.949 . S
C248 H247 0.949 . S
C248 C249 1.395 . S
C248 C250 1.391 . S
C249 C248 1.395 . S
C249 C252 1.390 . S
C250 C248 1.391 . S
C250 C254 1.387 . S
C250 C255 1.491 . S
H251 C252 0.950 . S
C252 C249 1.390 . S
C252 H251 0.950 . S
C252 C253 1.378 . S
C253 C252 1.378 . S
C253 C254 1.409 . S
C254 C250 1.387 . S
C254 C253 1.409 . S
C254 H256 0.951 . S
C255 C250 1.491 . S
C255 C257 1.382 . S
C255 C259 1.404 . S
H256 C254 0.951 . S
C257 C255 1.382 . S
C257 C258 1.390 . S
C257 H262 0.949 . S
C258 C257 1.390 . S
C258 C263 1.399 . S
C259 C255 1.404 . S
C259 H260 0.950 . S
C259 C261 1.375 . S
H260 C259 0.950 . S
C261 C259 1.375 . S
C261 C263 1.382 . S
C261 H265 0.950 . S
H262 C257 0.949 . S
C263 C258 1.399 . S
C263 C261 1.382 . S
C263 H264 0.952 . S
H264 C263 0.952 . S
H265 C261 0.950 . S
H266 C267 0.949 . S
C267 H266 0.949 . S
C267 C268 1.395 . S
C267 C269 1.391 . S
C268 C267 1.395 . S
C268 C271 1.390 . S
C269 C267 1.391 . S
C269 C273 1.387 . S
C269 C274 1.491 . S
H270 C271 0.950 . S
C271 C268 1.390 . S
C271 H270 0.950 . S
C271 C272 1.378 . S
C272 C271 1.378 . S
C272 C273 1.409 . S
C273 C269 1.387 . S
C273 C272 1.409 . S
C273 H275 0.951 . S
C274 C269 1.491 . S
C274 C276 1.382 . S
C274 C278 1.404 . S
H275 C273 0.951 . S
C276 C274 1.382 . S
C276 C277 1.390 . S
C276 H281 0.949 . S
C277 C276 1.390 . S
C277 C282 1.399 . S
C278 C274 1.404 . S
C278 H279 0.950 . S
C278 C280 1.375 . S
H279 C278 0.950 . S
C280 C278 1.375 . S
C280 C282 1.382 . S
C280 H284 0.950 . S
H281 C276 0.949 . S
C282 C277 1.399 . S
C282 C280 1.382 . S
C282 H283 0.952 . S
H283 C282 0.952 . S
H284 C280 0.950 . S
H285 C286 0.949 . S
C286 H285 0.949 . S
C286 C287 1.395 . S
C286 C288 1.391 . S
C287 C286 1.395 . S
C287 C290 1.390 . S
C288 C286 1.391 . S
C288 C292 1.387 . S
C288 C293 1.491 . S
H289 C290 0.950 . S
C290 C287 1.390 . S
C290 H289 0.950 . S
C290 C291 1.378 . S
C291 C290 1.378 . S
C291 C292 1.409 . S
C292 C288 1.387 . S
C292 C291 1.409 . S
C292 H294 0.951 . S
C293 C288 1.491 . S
C293 C295 1.382 . S
C293 C297 1.404 . S
H294 C292 0.951 . S
C295 C293 1.382 . S
C295 C296 1.390 . S
C295 H300 0.949 . S
C296 C295 1.390 . S
C296 C301 1.399 . S
C297 C293 1.404 . S
C297 H298 0.950 . S
C297 C299 1.375 . S
H298 C297 0.950 . S
C299 C297 1.375 . S
C299 C301 1.382 . S
C299 H303 0.950 . S
H300 C295 0.949 . S
C301 C296 1.399 . S
C301 C299 1.382 . S
C301 H302 0.952 . S
H302 C301 0.952 . S
H303 C299 0.950 . S
H304 C305 0.949 . S
C305 H304 0.949 . S
C305 C306 1.395 . S
C305 C307 1.391 . S
C306 C305 1.395 . S
C306 C309 1.390 . S
C307 C305 1.391 . S
C307 C311 1.387 . S
C307 C312 1.491 . S
H308 C309 0.950 . S
C309 C306 1.390 . S
C309 H308 0.950 . S
C309 C310 1.378 . S
C310 C309 1.378 . S
C310 C311 1.409 . S
C311 C307 1.387 . S
C311 C310 1.409 . S
C311 H313 0.951 . S
C312 C307 1.491 . S
C312 C314 1.382 . S
C312 C316 1.404 . S
H313 C311 0.951 . S
C314 C312 1.382 . S
C314 C315 1.390 . S
C314 H319 0.949 . S
C315 C314 1.390 . S
C315 C320 1.399 . S
C316 C312 1.404 . S
C316 H317 0.950 . S
C316 C318 1.375 . S
H317 C316 0.950 . S
C318 C316 1.375 . S
C318 C320 1.382 . S
C318 H322 0.950 . S
H319 C314 0.949 . S
C320 C315 1.399 . S
C320 C318 1.382 . S
C320 H321 0.952 . S
H321 C320 0.952 . S
H322 C318 0.950 . S
H323 C324 0.949 . S
C324 H323 0.949 . S
C324 C325 1.395 . S
C324 C326 1.391 . S
C325 C324 1.395 . S
C325 C328 1.390 . S
C326 C324 1.391 . S
C326 C330 1.387 . S
C326 C331 1.491 . S
H327 C328 0.950 . S
C328 C325 1.390 . S
C328 H327 0.950 . S
C328 C329 1.378 . S
C329 C328 1.378 . S
C329 C330 1.409 . S
C330 C326 1.387 . S
C330 C329 1.409 . S
C330 H332 0.951 . S
C331 C326 1.491 . S
C331 C333 1.382 . S
C331 C335 1.404 . S
H332 C330 0.951 . S
C333 C331 1.382 . S
C333 C334 1.390 . S
C333 H338 0.949 . S
C334 C333 1.390 . S
C334 C339 1.399 . S
C335 C331 1.404 . S
C335 H336 0.950 . S
C335 C337 1.375 . S
H336 C335 0.950 . S
C337 C335 1.375 . S
C337 C339 1.382 . S
C337 H341 0.950 . S
H338 C333 0.949 . S
C339 C334 1.399 . S
C339 C337 1.382 . S
C339 H340 0.952 . S
H340 C339 0.952 . S
H341 C337 0.950 . S
Eu342 C351 2.828 1_565 S
Eu342 O353 2.429 . S
Eu342 O355 2.418 . S
Eu342 O360 2.373 1_565 S
Eu342 O363 2.488 . S
Eu342 O364 2.471 1_565 S
Eu342 O365 2.335 1_566 S
Eu343 O352 2.373 1_545 S
Eu343 O356 2.488 . S
Eu343 O357 2.471 1_545 S
Eu343 O358 2.349 1_545 S
Eu343 O361 2.392 . S
Eu343 O362 2.418 . S
Eu343 C372 2.830 1_545 S
C344 O362 1.244 . S
C344 O365 1.278 . S
C345 C346 1.379 . S
C345 C349 1.373 . S
C345 C351 1.505 . S
C346 C345 1.379 . S
C346 C348 1.369 . S
C346 H374 0.930 . S
C347 C349 1.383 . S
C347 C350 1.382 . S
C347 H375 0.930 . S
C348 C346 1.369 . S
C348 C350 1.392 . S
C348 H376 0.930 . S
C349 C345 1.373 . S
C349 C347 1.383 . S
C349 H377 0.931 1_545 S
C350 C347 1.382 . S
C350 C348 1.392 . S
C351 Eu342 2.828 1_545 S
C351 C345 1.505 . S
C351 O363 1.249 1_545 S
C351 O364 1.244 . S
O352 Eu343 2.373 1_565 S
O352 C354 1.258 . S
O353 Eu342 2.429 . S
O353 C354 1.190 1_556 S
C354 O352 1.258 . S
C354 O353 1.190 1_554 S
O355 Eu342 2.418 . S
O355 C359 1.244 1_556 S
O356 Eu343 2.488 . S
O356 C372 1.256 1_545 S
O357 Eu343 2.471 1_565 S
O357 C372 1.240 . S
O358 Eu343 2.349 1_565 S
O358 C359 1.265 . S
C359 O355 1.244 1_554 S
C359 O358 1.265 . S
O360 Eu342 2.373 1_545 S
O360 C373 1.272 . S
O361 Eu343 2.392 . S
O361 C373 1.221 1_554 S
O362 Eu343 2.418 . S
O362 C344 1.244 . S
O363 Eu342 2.488 . S
O363 C351 1.249 1_565 S
O364 Eu342 2.471 1_545 S
O364 C351 1.244 . S
O365 Eu342 2.335 1_544 S
O365 C344 1.278 . S
C366 C367 1.379 . S
C366 C370 1.373 1_565 S
C366 C372 1.503 . S
C367 C366 1.379 . S
C367 C369 1.369 . S
C367 H378 0.930 . S
C368 C370 1.383 1_565 S
C368 C371 1.382 . S
C368 H379 0.930 1_565 S
C369 C367 1.369 . S
C369 C371 1.392 . S
C369 H380 0.930 . S
C370 C366 1.373 1_545 S
C370 C368 1.383 1_545 S
C370 H381 0.931 . S
C371 C368 1.382 . S
C371 C369 1.392 . S
C372 Eu343 2.830 1_565 S
C372 O356 1.256 1_565 S
C372 O357 1.240 . S
C372 C366 1.503 . S
C373 O360 1.272 . S
C373 O361 1.221 1_556 S
H374 C346 0.930 . S
H375 C347 0.930 . S
H376 C348 0.930 . S
H377 C349 0.931 1_565 S
H378 C367 0.930 . S
H379 C368 0.930 1_545 S
H380 C369 0.930 . S
H381 C370 0.931 . S
Eu382 C391 2.828 1_455 S
Eu382 O393 2.392 1_556 S
Eu382 O395 2.418 . S
Eu382 O400 2.373 1_455 S
Eu382 O403 2.488 . S
Eu382 O404 2.471 1_455 S
Eu382 O405 2.349 1_455 S
Eu383 O392 2.373 1_655 S
Eu383 O396 2.488 . S
Eu383 O397 2.471 1_655 S
Eu383 O398 2.349 1_655 S
Eu383 O401 2.392 . S
Eu383 O402 2.418 . S
Eu383 C412 2.828 1_655 S
C384 O402 1.244 . S
C384 O405 1.265 1_554 S
C385 C386 1.379 . S
C385 C389 1.373 . S
C385 C391 1.505 . S
C386 C385 1.379 . S
C386 C388 1.369 . S
C386 H414 0.930 . S
C387 C389 1.383 . S
C387 C390 1.382 . S
C387 H415 0.930 . S
C388 C386 1.369 . S
C388 C390 1.392 . S
C388 H416 0.930 . S
C389 C385 1.373 . S
C389 C387 1.383 . S
C389 H417 0.931 1_655 S
C390 C387 1.382 . S
C390 C388 1.392 . S
C391 Eu382 2.828 1_655 S
C391 C385 1.505 . S
C391 O403 1.249 1_655 S
C391 O404 1.244 . S
O392 Eu383 2.373 1_455 S
O392 C394 1.258 . S
O393 Eu382 2.392 1_554 S
O393 C394 1.242 . S
C394 O392 1.258 . S
C394 O393 1.242 . S
O395 Eu382 2.418 . S
O395 C399 1.244 1_556 S
O396 Eu383 2.488 . S
O396 C412 1.249 1_655 S
O397 Eu383 2.471 1_455 S
O397 C412 1.244 . S
O398 Eu383 2.349 1_455 S
O398 C399 1.265 . S
C399 O395 1.244 1_554 S
C399 O398 1.265 . S
O400 Eu382 2.373 1_655 S
O400 C413 1.258 . S
O401 Eu383 2.392 . S
O401 C413 1.242 1_554 S
O402 Eu383 2.418 . S
O402 C384 1.244 . S
O403 Eu382 2.488 . S
O403 C391 1.249 1_455 S
O404 Eu382 2.471 1_655 S
O404 C391 1.244 . S
O405 Eu382 2.349 1_655 S
O405 C384 1.265 1_556 S
C406 C407 1.379 . S
C406 C410 1.373 . S
C406 C412 1.505 . S
C407 C406 1.379 . S
C407 C409 1.369 . S
C407 H418 0.930 . S
C408 C410 1.383 . S
C408 C411 1.382 . S
C408 H419 0.930 . S
C409 C407 1.369 . S
C409 C411 1.392 . S
C409 H420 0.930 . S
C410 C406 1.373 . S
C410 C408 1.383 . S
C410 H421 0.931 1_455 S
C411 C408 1.382 . S
C411 C409 1.392 . S
C412 Eu383 2.828 1_455 S
C412 O396 1.249 1_455 S
C412 O397 1.244 . S
C412 C406 1.505 . S
C413 O400 1.258 . S
C413 O401 1.242 1_556 S
H414 C386 0.930 . S
H415 C387 0.930 . S
H416 C388 0.930 . S
H417 C389 0.931 1_455 S
H418 C407 0.930 . S
H419 C408 0.930 . S
H420 C409 0.930 . S
H421 C410 0.931 1_655 S
Eu422 C431 2.828 . S
Eu422 O433 2.392 . S
Eu422 O435 2.418 . S
Eu422 O440 2.373 . S
Eu422 O443 2.488 . S
Eu422 O444 2.471 . S
Eu422 O445 2.349 . S
Eu423 O432 2.373 . S
Eu423 O436 2.488 . S
Eu423 O437 2.471 . S
Eu423 O438 2.349 1_556 S
Eu423 O441 2.392 1_556 S
Eu423 O442 2.429 . S
Eu423 C452 2.828 . S
C424 O442 1.178 1_554 S
C424 O445 1.265 . S
C425 C426 1.379 . S
C425 C429 1.373 . S
C425 C431 1.505 . S
C426 C425 1.379 . S
C426 C428 1.369 . S
C426 H454 0.930 . S
C427 C429 1.383 . S
C427 C430 1.382 . S
C427 H455 0.930 . S
C428 C426 1.369 . S
C428 C430 1.392 . S
C428 H456 0.930 . S
C429 C425 1.373 . S
C429 C427 1.383 . S
C429 H457 0.931 . S
C430 C427 1.382 . S
C430 C428 1.392 . S
C431 Eu422 2.828 . S
C431 C425 1.505 . S
C431 O443 1.249 . S
C431 O444 1.244 . S
O432 Eu423 2.373 . S
O432 C434 1.258 1_556 S
O433 Eu422 2.392 . S
O433 C434 1.242 . S
C434 O432 1.258 1_554 S
C434 O433 1.242 . S
O435 Eu422 2.418 . S
O435 C439 1.244 . S
O436 Eu423 2.488 . S
O436 C452 1.249 . S
O437 Eu423 2.471 . S
O437 C452 1.244 . S
O438 Eu423 2.349 1_554 S
O438 C439 1.265 . S
C439 O435 1.244 . S
C439 O438 1.265 . S
O440 Eu422 2.373 . S
O440 C453 1.258 . S
O441 Eu423 2.392 1_554 S
O441 C453 1.242 . S
O442 Eu423 2.429 . S
O442 C424 1.178 1_556 S
O443 Eu422 2.488 . S
O443 C431 1.249 . S
O444 Eu422 2.471 . S
O444 C431 1.244 . S
O445 Eu422 2.349 . S
O445 C424 1.265 . S
C446 C447 1.379 . S
C446 C450 1.373 . S
C446 C452 1.505 . S
C447 C446 1.379 . S
C447 C449 1.369 . S
C447 H458 0.930 . S
C448 C450 1.383 . S
C448 C451 1.382 . S
C448 H459 0.930 . S
C449 C447 1.369 . S
C449 C451 1.392 . S
C449 H460 0.930 . S
C450 C446 1.373 . S
C450 C448 1.383 . S
C450 H461 0.931 . S
C451 C448 1.382 . S
C451 C449 1.392 . S
C452 Eu423 2.828 . S
C452 O436 1.249 . S
C452 O437 1.244 . S
C452 C446 1.505 . S
C453 O440 1.258 . S
C453 O441 1.242 . S
H454 C426 0.930 . S
H455 C427 0.930 . S
H456 C428 0.930 . S
H457 C429 0.931 . S
H458 C447 0.930 . S
H459 C448 0.930 . S
H460 C449 0.930 . S
H461 C450 0.931 . S
Eu462 C471 2.828 . S
Eu462 O473 2.392 . S
Eu462 O475 2.418 . S
Eu462 O480 2.373 . S
Eu462 O483 2.488 . S
Eu462 O484 2.471 . S
Eu462 O485 2.349 . S
Eu463 O472 2.373 . S
Eu463 O476 2.488 . S
Eu463 O477 2.471 . S
Eu463 O478 2.349 . S
Eu463 O481 2.392 . S
Eu463 O482 2.418 . S
Eu463 C492 2.828 . S
C464 O482 1.244 . S
C464 O485 1.265 . S
C465 C466 1.379 . S
C465 C469 1.373 . S
C465 C471 1.505 . S
C466 C465 1.379 . S
C466 C468 1.369 . S
C466 H494 0.930 . S
C467 C469 1.383 . S
C467 C470 1.382 . S
C467 H495 0.930 . S
C468 C466 1.369 . S
C468 C470 1.392 . S
C468 H496 0.930 . S
C469 C465 1.373 . S
C469 C467 1.383 . S
C469 H497 0.931 . S
C470 C467 1.382 . S
C470 C468 1.392 . S
C471 Eu462 2.828 . S
C471 C465 1.505 . S
C471 O483 1.249 . S
C471 O484 1.244 . S
O472 Eu463 2.373 . S
O472 C474 1.258 . S
O473 Eu462 2.392 . S
O473 C474 1.242 . S
C474 O472 1.258 . S
C474 O473 1.242 . S
O475 Eu462 2.418 . S
O475 C479 1.244 . S
O476 Eu463 2.488 . S
O476 C492 1.249 . S
O477 Eu463 2.471 . S
O477 C492 1.244 . S
O478 Eu463 2.349 . S
O478 C479 1.265 . S
C479 O475 1.244 . S
C479 O478 1.265 . S
O480 Eu462 2.373 . S
O480 C493 1.258 . S
O481 Eu463 2.392 . S
O481 C493 1.242 . S
O482 Eu463 2.418 . S
O482 C464 1.244 . S
O483 Eu462 2.488 . S
O483 C471 1.249 . S
O484 Eu462 2.471 . S
O484 C471 1.244 . S
O485 Eu462 2.349 . S
O485 C464 1.265 . S
C486 C487 1.379 . S
C486 C490 1.373 . S
C486 C492 1.505 . S
C487 C486 1.379 . S
C487 C489 1.369 . S
C487 H498 0.930 . S
C488 C490 1.383 . S
C488 C491 1.382 . S
C488 H499 0.930 . S
C489 C487 1.369 . S
C489 C491 1.392 . S
C489 H500 0.930 . S
C490 C486 1.373 . S
C490 C488 1.383 . S
C490 H501 0.931 . S
C491 C488 1.382 . S
C491 C489 1.392 . S
C492 Eu463 2.828 . S
C492 O476 1.249 . S
C492 O477 1.244 . S
C492 C486 1.505 . S
C493 O480 1.258 . S
C493 O481 1.242 . S
H494 C466 0.930 . S
H495 C467 0.930 . S
H496 C468 0.930 . S
H497 C469 0.931 . S
H498 C487 0.930 . S
H499 C488 0.930 . S
H500 C489 0.930 . S
H501 C490 0.931 . S
Eu502 C511 2.828 . S
Eu502 O513 2.392 . S
Eu502 O515 2.418 . S
Eu502 O520 2.373 . S
Eu502 O523 2.488 . S
Eu502 O524 2.471 . S
Eu502 O525 2.349 . S
Eu503 O512 2.373 . S
Eu503 O516 2.488 . S
Eu503 O517 2.471 . S
Eu503 O518 2.349 . S
Eu503 O521 2.392 . S
Eu503 O522 2.418 . S
Eu503 C532 2.828 . S
C504 O522 1.244 . S
C504 O525 1.265 . S
C505 C506 1.379 . S
C505 C509 1.373 . S
C505 C511 1.505 . S
C506 C505 1.379 . S
C506 C508 1.369 . S
C506 H534 0.930 . S
C507 C509 1.383 . S
C507 C510 1.382 . S
C507 H535 0.930 . S
C508 C506 1.369 . S
C508 C510 1.392 . S
C508 H536 0.930 . S
C509 C505 1.373 . S
C509 C507 1.383 . S
C509 H537 0.931 . S
C510 C507 1.382 . S
C510 C508 1.392 . S
C511 Eu502 2.828 . S
C511 C505 1.505 . S
C511 O523 1.249 . S
C511 O524 1.244 . S
O512 Eu503 2.373 . S
O512 C514 1.258 . S
O513 Eu502 2.392 . S
O513 C514 1.242 . S
C514 O512 1.258 . S
C514 O513 1.242 . S
O515 Eu502 2.418 . S
O515 C519 1.244 . S
O516 Eu503 2.488 . S
O516 C532 1.249 . S
O517 Eu503 2.471 . S
O517 C532 1.244 . S
O518 Eu503 2.349 . S
O518 C519 1.265 . S
C519 O515 1.244 . S
C519 O518 1.265 . S
O520 Eu502 2.373 . S
O520 C533 1.258 . S
O521 Eu503 2.392 . S
O521 C533 1.242 . S
O522 Eu503 2.418 . S
O522 C504 1.244 . S
O523 Eu502 2.488 . S
O523 C511 1.249 . S
O524 Eu502 2.471 . S
O524 C511 1.244 . S
O525 Eu502 2.349 . S
O525 C504 1.265 . S
C526 C527 1.379 . S
C526 C530 1.373 . S
C526 C532 1.505 . S
C527 C526 1.379 . S
C527 C529 1.369 . S
C527 H538 0.930 . S
C528 C530 1.383 . S
C528 C531 1.382 . S
C528 H539 0.930 . S
C529 C527 1.369 . S
C529 C531 1.392 . S
C529 H540 0.930 . S
C530 C526 1.373 . S
C530 C528 1.383 . S
C530 H541 0.931 . S
C531 C528 1.382 . S
C531 C529 1.392 . S
C532 Eu503 2.828 . S
C532 O516 1.249 . S
C532 O517 1.244 . S
C532 C526 1.505 . S
C533 O520 1.258 . S
C533 O521 1.242 . S
H534 C506 0.930 . S
H535 C507 0.930 . S
H536 C508 0.930 . S
H537 C509 0.931 . S
H538 C527 0.930 . S
H539 C528 0.930 . S
H540 C529 0.930 . S
H541 C530 0.931 . S
Eu542 C551 2.828 . S
Eu542 O553 2.392 . S
Eu542 O555 2.418 . S
Eu542 O560 2.373 . S
Eu542 O563 2.488 . S
Eu542 O564 2.471 . S
Eu542 O565 2.349 . S
Eu543 O552 2.373 . S
Eu543 O556 2.488 . S
Eu543 O557 2.471 . S
Eu543 O558 2.349 . S
Eu543 O561 2.392 . S
Eu543 O562 2.418 . S
Eu543 C572 2.828 . S
C544 O562 1.244 . S
C544 O565 1.265 . S
C545 C546 1.379 . S
C545 C549 1.373 . S
C545 C551 1.505 . S
C546 C545 1.379 . S
C546 C548 1.369 . S
C546 H574 0.930 . S
C547 C549 1.383 . S
C547 C550 1.382 . S
C547 H575 0.930 . S
C548 C546 1.369 . S
C548 C550 1.392 . S
C548 H576 0.930 . S
C549 C545 1.373 . S
C549 C547 1.383 . S
C549 H577 0.931 . S
C550 C547 1.382 . S
C550 C548 1.392 . S
C551 Eu542 2.828 . S
C551 C545 1.505 . S
C551 O563 1.249 . S
C551 O564 1.244 . S
O552 Eu543 2.373 . S
O552 C554 1.258 . S
O553 Eu542 2.392 . S
O553 C554 1.242 . S
C554 O552 1.258 . S
C554 O553 1.242 . S
O555 Eu542 2.418 . S
O555 C559 1.244 . S
O556 Eu543 2.488 . S
O556 C572 1.249 . S
O557 Eu543 2.471 . S
O557 C572 1.244 . S
O558 Eu543 2.349 . S
O558 C559 1.265 . S
C559 O555 1.244 . S
C559 O558 1.265 . S
O560 Eu542 2.373 . S
O560 C573 1.258 . S
O561 Eu543 2.392 . S
O561 C573 1.242 . S
O562 Eu543 2.418 . S
O562 C544 1.244 . S
O563 Eu542 2.488 . S
O563 C551 1.249 . S
O564 Eu542 2.471 . S
O564 C551 1.244 . S
O565 Eu542 2.349 . S
O565 C544 1.265 . S
C566 C567 1.379 . S
C566 C570 1.373 . S
C566 C572 1.505 . S
C567 C566 1.379 . S
C567 C569 1.369 . S
C567 H578 0.930 . S
C568 C570 1.383 . S
C568 C571 1.382 . S
C568 H579 0.930 . S
C569 C567 1.369 . S
C569 C571 1.392 . S
C569 H580 0.930 . S
C570 C566 1.373 . S
C570 C568 1.383 . S
C570 H581 0.931 . S
C571 C568 1.382 . S
C571 C569 1.392 . S
C572 Eu543 2.828 . S
C572 O556 1.249 . S
C572 O557 1.244 . S
C572 C566 1.505 . S
C573 O560 1.258 . S
C573 O561 1.242 . S
H574 C546 0.930 . S
H575 C547 0.930 . S
H576 C548 0.930 . S
H577 C549 0.931 . S
H578 C567 0.930 . S
H579 C568 0.930 . S
H580 C569 0.930 . S
H581 C570 0.931 . S
Eu582 C591 2.828 . S
Eu582 O593 2.392 . S
Eu582 O595 2.418 . S
Eu582 O600 2.373 . S
Eu582 O603 2.488 . S
Eu582 O604 2.471 . S
Eu582 O605 2.349 . S
Eu583 O592 2.373 . S
Eu583 O596 2.488 . S
Eu583 O597 2.471 . S
Eu583 O598 2.349 . S
Eu583 O601 2.392 . S
Eu583 O602 2.418 . S
Eu583 C612 2.828 . S
C584 O602 1.244 . S
C584 O605 1.265 . S
C585 C586 1.379 . S
C585 C589 1.373 . S
C585 C591 1.505 . S
C586 C585 1.379 . S
C586 C588 1.369 . S
C586 H614 0.930 . S
C587 C589 1.383 . S
C587 C590 1.382 . S
C587 H615 0.930 . S
C588 C586 1.369 . S
C588 C590 1.392 . S
C588 H616 0.930 . S
C589 C585 1.373 . S
C589 C587 1.383 . S
C589 H617 0.931 . S
C590 C587 1.382 . S
C590 C588 1.392 . S
C591 Eu582 2.828 . S
C591 C585 1.505 . S
C591 O603 1.249 . S
C591 O604 1.244 . S
O592 Eu583 2.373 . S
O592 C594 1.258 . S
O593 Eu582 2.392 . S
O593 C594 1.242 . S
C594 O592 1.258 . S
C594 O593 1.242 . S
O595 Eu582 2.418 . S
O595 C599 1.244 . S
O596 Eu583 2.488 . S
O596 C612 1.249 . S
O597 Eu583 2.471 . S
O597 C612 1.244 . S
O598 Eu583 2.349 . S
O598 C599 1.265 . S
C599 O595 1.244 . S
C599 O598 1.265 . S
O600 Eu582 2.373 . S
O600 C613 1.258 . S
O601 Eu583 2.392 . S
O601 C613 1.242 . S
O602 Eu583 2.418 . S
O602 C584 1.244 . S
O603 Eu582 2.488 . S
O603 C591 1.249 . S
O604 Eu582 2.471 . S
O604 C591 1.244 . S
O605 Eu582 2.349 . S
O605 C584 1.265 . S
C606 C607 1.379 . S
C606 C610 1.373 . S
C606 C612 1.505 . S
C607 C606 1.379 . S
C607 C609 1.369 . S
C607 H618 0.930 . S
C608 C610 1.383 . S
C608 C611 1.382 . S
C608 H619 0.930 . S
C609 C607 1.369 . S
C609 C611 1.392 . S
C609 H620 0.930 . S
C610 C606 1.373 . S
C610 C608 1.383 . S
C610 H621 0.931 . S
C611 C608 1.382 . S
C611 C609 1.392 . S
C612 Eu583 2.828 . S
C612 O596 1.249 . S
C612 O597 1.244 . S
C612 C606 1.505 . S
C613 O600 1.258 . S
C613 O601 1.242 . S
H614 C586 0.930 . S
H615 C587 0.930 . S
H616 C588 0.930 . S
H617 C589 0.931 . S
H618 C607 0.930 . S
H619 C608 0.930 . S
H620 C609 0.930 . S
H621 C610 0.931 . S
Eu622 C631 2.828 . S
Eu622 O633 2.392 . S
Eu622 O635 2.418 . S
Eu622 O640 2.373 . S
Eu622 O643 2.488 . S
Eu622 O644 2.471 . S
Eu622 O645 2.349 . S
Eu623 O632 2.373 . S
Eu623 O636 2.488 . S
Eu623 O637 2.471 . S
Eu623 O638 2.349 . S
Eu623 O641 2.392 . S
Eu623 O642 2.418 . S
Eu623 C652 2.828 . S
C624 O642 1.244 . S
C624 O645 1.265 . S
C625 C626 1.379 . S
C625 C629 1.373 . S
C625 C631 1.505 . S
C626 C625 1.379 . S
C626 C628 1.369 . S
C626 H654 0.930 . S
C627 C629 1.383 . S
C627 C630 1.382 . S
C627 H655 0.930 . S
C628 C626 1.369 . S
C628 C630 1.392 . S
C628 H656 0.930 . S
C629 C625 1.373 . S
C629 C627 1.383 . S
C629 H657 0.931 . S
C630 C627 1.382 . S
C630 C628 1.392 . S
C631 Eu622 2.828 . S
C631 C625 1.505 . S
C631 O643 1.249 . S
C631 O644 1.244 . S
O632 Eu623 2.373 . S
O632 C634 1.258 . S
O633 Eu622 2.392 . S
O633 C634 1.242 . S
C634 O632 1.258 . S
C634 O633 1.242 . S
O635 Eu622 2.418 . S
O635 C639 1.244 . S
O636 Eu623 2.488 . S
O636 C652 1.249 . S
O637 Eu623 2.471 . S
O637 C652 1.244 . S
O638 Eu623 2.349 . S
O638 C639 1.265 . S
C639 O635 1.244 . S
C639 O638 1.265 . S
O640 Eu622 2.373 . S
O640 C653 1.258 . S
O641 Eu623 2.392 . S
O641 C653 1.242 . S
O642 Eu623 2.418 . S
O642 C624 1.244 . S
O643 Eu622 2.488 . S
O643 C631 1.249 . S
O644 Eu622 2.471 . S
O644 C631 1.244 . S
O645 Eu622 2.349 . S
O645 C624 1.265 . S
C646 C647 1.379 . S
C646 C650 1.373 . S
C646 C652 1.505 . S
C647 C646 1.379 . S
C647 C649 1.369 . S
C647 H658 0.930 . S
C648 C650 1.383 . S
C648 C651 1.382 . S
C648 H659 0.930 . S
C649 C647 1.369 . S
C649 C651 1.392 . S
C649 H660 0.930 . S
C650 C646 1.373 . S
C650 C648 1.383 . S
C650 H661 0.931 . S
C651 C648 1.382 . S
C651 C649 1.392 . S
C652 Eu623 2.828 . S
C652 O636 1.249 . S
C652 O637 1.244 . S
C652 C646 1.505 . S
C653 O640 1.258 . S
C653 O641 1.242 . S
H654 C626 0.930 . S
H655 C627 0.930 . S
H656 C628 0.930 . S
H657 C629 0.931 . S
H658 C647 0.930 . S
H659 C648 0.930 . S
H660 C649 0.930 . S
H661 C650 0.931 . S
Eu662 C671 2.828 . S
Eu662 O673 2.392 . S
Eu662 O675 2.418 . S
Eu662 O680 2.373 . S
Eu662 O683 2.488 . S
Eu662 O684 2.471 . S
Eu662 O685 2.349 . S
Eu663 O672 2.373 . S
Eu663 O676 2.488 . S
Eu663 O677 2.471 . S
Eu663 O678 2.349 . S
Eu663 O681 2.392 . S
Eu663 O682 2.418 . S
Eu663 C692 2.828 . S
C664 O682 1.244 . S
C664 O685 1.265 . S
C665 C666 1.379 . S
C665 C669 1.373 . S
C665 C671 1.505 . S
C666 C665 1.379 . S
C666 C668 1.369 . S
C666 H694 0.930 . S
C667 C669 1.383 . S
C667 C670 1.382 . S
C667 H695 0.930 . S
C668 C666 1.369 . S
C668 C670 1.392 . S
C668 H696 0.930 . S
C669 C665 1.373 . S
C669 C667 1.383 . S
C669 H697 0.931 . S
C670 C667 1.382 . S
C670 C668 1.392 . S
C671 Eu662 2.828 . S
C671 C665 1.505 . S
C671 O683 1.249 . S
C671 O684 1.244 . S
O672 Eu663 2.373 . S
O672 C674 1.258 . S
O673 Eu662 2.392 . S
O673 C674 1.242 . S
C674 O672 1.258 . S
C674 O673 1.242 . S
O675 Eu662 2.418 . S
O675 C679 1.244 . S
O676 Eu663 2.488 . S
O676 C692 1.249 . S
O677 Eu663 2.471 . S
O677 C692 1.244 . S
O678 Eu663 2.349 . S
O678 C679 1.265 . S
C679 O675 1.244 . S
C679 O678 1.265 . S
O680 Eu662 2.373 . S
O680 C693 1.258 . S
O681 Eu663 2.392 . S
O681 C693 1.242 . S
O682 Eu663 2.418 . S
O682 C664 1.244 . S
O683 Eu662 2.488 . S
O683 C671 1.249 . S
O684 Eu662 2.471 . S
O684 C671 1.244 . S
O685 Eu662 2.349 . S
O685 C664 1.265 . S
C686 C687 1.379 . S
C686 C690 1.373 . S
C686 C692 1.505 . S
C687 C686 1.379 . S
C687 C689 1.369 . S
C687 H698 0.930 . S
C688 C690 1.383 . S
C688 C691 1.382 . S
C688 H699 0.930 . S
C689 C687 1.369 . S
C689 C691 1.392 . S
C689 H700 0.930 . S
C690 C686 1.373 . S
C690 C688 1.383 . S
C690 H701 0.931 . S
C691 C688 1.382 . S
C691 C689 1.392 . S
C692 Eu663 2.828 . S
C692 O676 1.249 . S
C692 O677 1.244 . S
C692 C686 1.505 . S
C693 O680 1.258 . S
C693 O681 1.242 . S
H694 C666 0.930 . S
H695 C667 0.930 . S
H696 C668 0.930 . S
H697 C669 0.931 . S
H698 C687 0.930 . S
H699 C688 0.930 . S
H700 C689 0.930 . S
H701 C690 0.931 . S
C702 C703 1.349 . S
C702 C704 1.327 . S
C702 H727 0.950 . S
C703 C702 1.349 . S
C703 C719 1.349 . S
C704 C702 1.327 . S
C704 C723 1.429 . S
C704 H728 0.950 . S
C705 C722 1.574 . S
C705 C724 1.368 . S
C705 H729 0.949 . S
H706 C710 0.949 . S
C707 C708 1.349 . S
C707 C709 1.327 . S
C707 H730 0.950 . S
C708 C707 1.349 . S
C708 C720 1.349 . S
C709 C707 1.327 . S
C709 C725 1.429 . S
C709 H731 0.950 . S
C710 H706 0.949 . S
C710 C718 1.574 . S
C710 C726 1.368 . S
H711 C719 0.950 . S
H712 C717 0.950 . S
H713 C718 0.949 . S
H714 C720 0.950 1_556 S
H715 C721 0.918 1_556 S
H716 C722 0.949 . S
C717 H712 0.950 . S
C717 C719 1.327 . S
C717 C723 1.429 . S
C718 C710 1.574 . S
C718 H713 0.949 . S
C718 C724 1.368 . S
C719 C703 1.349 . S
C719 H711 0.950 . S
C719 C717 1.327 . S
C720 C708 1.349 . S
C720 H714 0.950 1_554 S
C720 C721 1.327 . S
C721 H715 0.918 1_554 S
C721 C720 1.327 . S
C721 C725 1.429 . S
C722 C705 1.574 . S
C722 H716 0.949 . S
C722 C726 1.368 . S
C723 C704 1.429 . S
C723 C717 1.429 . S
C723 C724 1.523 . S
C724 C705 1.368 . S
C724 C718 1.368 . S
C724 C723 1.523 . S
C725 C709 1.429 . S
C725 C721 1.429 . S
C725 C726 1.523 . S
C726 C710 1.368 . S
C726 C722 1.368 . S
C726 C725 1.523 . S
H727 C702 0.950 . S
H728 C704 0.950 . S
H729 C705 0.949 . S
H730 C707 0.950 . S
H731 C709 0.950 . S
C732 C733 1.349 . S
C732 C734 1.327 . S
C732 H757 0.950 . S
C733 C732 1.349 . S
C733 C749 1.349 . S
C734 C732 1.327 . S
C734 C753 1.429 . S
C734 H758 0.950 . S
C735 C752 1.574 . S
C735 C754 1.368 . S
C735 H759 0.949 . S
H736 C740 0.949 . S
C737 C738 1.349 . S
C737 C739 1.327 . S
C737 H760 0.950 . S
C738 C737 1.349 . S
C738 C750 1.349 . S
C739 C737 1.327 . S
C739 C755 1.429 . S
C739 H761 0.950 . S
C740 H736 0.949 . S
C740 C748 1.574 . S
C740 C756 1.368 . S
H741 C749 0.950 . S
H742 C747 0.950 . S
H743 C748 0.949 . S
H744 C750 0.950 . S
H745 C751 0.950 . S
H746 C752 0.949 . S
C747 H742 0.950 . S
C747 C749 1.327 . S
C747 C753 1.429 . S
C748 C740 1.574 . S
C748 H743 0.949 . S
C748 C754 1.368 . S
C749 C733 1.349 . S
C749 H741 0.950 . S
C749 C747 1.327 . S
C750 C738 1.349 . S
C750 H744 0.950 . S
C750 C751 1.327 . S
C751 H745 0.950 . S
C751 C750 1.327 . S
C751 C755 1.429 . S
C752 C735 1.574 . S
C752 H746 0.949 . S
C752 C756 1.368 . S
C753 C734 1.429 . S
C753 C747 1.429 . S
C753 C754 1.523 . S
C754 C735 1.368 . S
C754 C748 1.368 . S
C754 C753 1.523 . S
C755 C739 1.429 . S
C755 C751 1.429 . S
C755 C756 1.523 . S
C756 C740 1.368 . S
C756 C752 1.368 . S
C756 C755 1.523 . S
H757 C732 0.950 . S
H758 C734 0.950 . S
H759 C735 0.949 . S
H760 C737 0.950 . S
H761 C739 0.950 . S
C762 C763 1.349 . S
C762 C764 1.327 . S
C762 H787 0.950 . S
C763 C762 1.349 . S
C763 C779 1.349 . S
C764 C762 1.327 . S
C764 C783 1.429 . S
C764 H788 0.950 . S
C765 C782 1.574 . S
C765 C784 1.368 . S
C765 H789 0.949 . S
H766 C770 0.949 . S
C767 C768 1.349 . S
C767 C769 1.327 . S
C767 H790 0.950 . S
C768 C767 1.349 . S
C768 C780 1.349 . S
C769 C767 1.327 . S
C769 C785 1.429 . S
C769 H791 0.950 . S
C770 H766 0.949 . S
C770 C778 1.574 . S
C770 C786 1.368 . S
H771 C779 0.950 . S
H772 C777 0.950 . S
H773 C778 0.949 . S
H774 C780 0.950 . S
H775 C781 0.950 . S
H776 C782 0.949 . S
C777 H772 0.950 . S
C777 C779 1.327 . S
C777 C783 1.429 . S
C778 C770 1.574 . S
C778 H773 0.949 . S
C778 C784 1.368 . S
C779 C763 1.349 . S
C779 H771 0.950 . S
C779 C777 1.327 . S
C780 C768 1.349 . S
C780 H774 0.950 . S
C780 C781 1.327 . S
C781 H775 0.950 . S
C781 C780 1.327 . S
C781 C785 1.429 . S
C782 C765 1.574 . S
C782 H776 0.949 . S
C782 C786 1.368 . S
C783 C764 1.429 . S
C783 C777 1.429 . S
C783 C784 1.523 . S
C784 C765 1.368 . S
C784 C778 1.368 . S
C784 C783 1.523 . S
C785 C769 1.429 . S
C785 C781 1.429 . S
C785 C786 1.523 . S
C786 C770 1.368 . S
C786 C782 1.368 . S
C786 C785 1.523 . S
H787 C762 0.950 . S
H788 C764 0.950 . S
H789 C765 0.949 . S
H790 C767 0.950 . S
H791 C769 0.950 . S
C792 C793 1.349 . S
C792 C794 1.327 . S
C792 H817 0.950 . S
C793 C792 1.349 . S
C793 C809 1.349 . S
C794 C792 1.327 . S
C794 C813 1.429 . S
C794 H818 0.950 . S
C795 C812 1.574 . S
C795 C814 1.368 . S
C795 H819 0.949 . S
H796 C800 0.949 . S
C797 C798 1.349 1_554 S
C797 C799 1.327 . S
C797 H820 0.950 . S
C798 C797 1.349 1_556 S
C798 C810 1.349 . S
C799 C797 1.327 . S
C799 C815 1.429 1_554 S
C799 H821 0.950 . S
C800 H796 0.949 . S
C800 C808 1.574 . S
C800 C816 1.368 . S
H801 C809 0.950 . S
H802 C807 0.950 . S
H803 C808 0.949 . S
H804 C810 0.950 . S
H805 C811 0.950 . S
H806 C812 0.949 1_554 S
C807 H802 0.950 . S
C807 C809 1.327 . S
C807 C813 1.429 . S
C808 C800 1.574 . S
C808 H803 0.949 . S
C808 C814 1.368 . S
C809 C793 1.349 . S
C809 H801 0.950 . S
C809 C807 1.327 . S
C810 C798 1.349 . S
C810 H804 0.950 . S
C810 C811 1.327 . S
C811 H805 0.950 . S
C811 C810 1.327 . S
C811 C815 1.429 . S
C812 C795 1.574 . S
C812 H806 0.949 1_556 S
C812 C816 1.368 . S
C813 C794 1.429 . S
C813 C807 1.429 . S
C813 C814 1.523 . S
C814 C795 1.368 . S
C814 C808 1.368 . S
C814 C813 1.523 . S
C815 C799 1.429 1_556 S
C815 C811 1.429 . S
C815 C816 1.523 . S
C816 C800 1.368 . S
C816 C812 1.368 . S
C816 C815 1.523 . S
H817 C792 0.950 . S
H818 C794 0.950 . S
H819 C795 0.949 . S
H820 C797 0.950 . S
H821 C799 0.950 . S
C822 C823 1.349 . S
C822 C824 1.327 . S
C822 H847 0.950 . S
C823 C822 1.349 . S
C823 C839 1.349 . S
C824 C822 1.327 . S
C824 C843 1.429 . S
C824 H848 0.950 . S
C825 C842 1.574 . S
C825 C844 1.368 . S
C825 H849 0.949 . S
H826 C830 0.949 1_554 S
C827 C828 1.349 . S
C827 C829 1.327 . S
C827 H850 0.950 . S
C828 C827 1.349 . S
C828 C840 1.349 1_556 S
C829 C827 1.327 . S
C829 C845 1.429 . S
C829 H851 0.950 . S
C830 H826 0.949 1_556 S
C830 C838 1.574 . S
C830 C846 1.368 . S
H831 C839 0.950 . S
H832 C837 0.950 . S
H833 C838 0.949 . S
H834 C840 0.950 . S
H835 C841 0.950 . S
H836 C842 0.949 . S
C837 H832 0.950 . S
C837 C839 1.327 . S
C837 C843 1.429 . S
C838 C830 1.574 . S
C838 H833 0.949 . S
C838 C844 1.368 . S
C839 C823 1.349 . S
C839 H831 0.950 . S
C839 C837 1.327 . S
C840 C828 1.349 1_554 S
C840 H834 0.950 . S
C840 C841 1.327 . S
C841 H835 0.950 . S
C841 C840 1.327 . S
C841 C845 1.429 1_554 S
C842 C825 1.574 . S
C842 H836 0.949 . S
C842 C846 1.368 . S
C843 C824 1.429 . S
C843 C837 1.429 . S
C843 C844 1.523 . S
C844 C825 1.368 . S
C844 C838 1.368 . S
C844 C843 1.523 . S
C845 C829 1.429 . S
C845 C841 1.429 1_556 S
C845 C846 1.523 . S
C846 C830 1.368 . S
C846 C842 1.368 . S
C846 C845 1.523 . S
H847 C822 0.950 . S
H848 C824 0.950 . S
H849 C825 0.949 . S
H850 C827 0.950 . S
H851 C829 0.950 . S
C852 C853 1.349 1_554 S
C852 C854 1.327 . S
C852 H877 0.950 . S
C853 C852 1.349 1_556 S
C853 C869 1.349 . S
C854 C852 1.327 . S
C854 C873 1.429 1_554 S
C854 H878 0.950 . S
C855 C872 1.574 . S
C855 C874 1.368 . S
C855 H879 0.949 . S
H856 C860 0.949 . S
C857 C858 1.349 1_556 S
C857 C859 1.327 . S
C857 H880 0.950 . S
C858 C857 1.349 1_554 S
C858 C870 1.349 . S
C859 C857 1.327 . S
C859 C875 1.437 . S
C859 H881 0.950 . S
C860 H856 0.949 . S
C860 C868 1.574 . S
C860 C876 1.368 1_554 S
H861 C869 0.950 . S
H862 C867 0.950 . S
H863 C868 0.949 . S
H864 C870 0.950 . S
H865 C871 0.950 . S
H866 C872 0.949 . S
C867 H862 0.950 . S
C867 C869 1.327 . S
C867 C873 1.429 . S
C868 C860 1.574 . S
C868 H863 0.949 . S
C868 C874 1.368 1_554 S
C869 C853 1.349 . S
C869 H861 0.950 . S
C869 C867 1.327 . S
C870 C858 1.349 . S
C870 H864 0.950 . S
C870 C871 1.327 . S
C871 H865 0.950 . S
C871 C870 1.327 . S
C871 C875 1.418 1_554 S
C872 C855 1.574 . S
C872 H866 0.949 . S
C872 C876 1.368 . S
C873 C854 1.429 1_556 S
C873 C867 1.429 . S
C873 C874 1.523 . S
C874 C855 1.368 . S
C874 C868 1.368 1_556 S
C874 C873 1.523 . S
C875 C859 1.437 . S
C875 C871 1.418 1_556 S
C875 C876 1.525 . S
C876 C860 1.368 1_556 S
C876 C872 1.368 . S
C876 C875 1.525 . S
H877 C852 0.950 . S
H878 C854 0.950 . S
H879 C855 0.949 . S
H880 C857 0.950 . S
H881 C859 0.950 . S
C882 C883 1.349 . S
C882 C884 1.327 . S
C882 H907 0.950 . S
C883 C882 1.349 . S
C883 C899 1.349 . S
C884 C882 1.327 . S
C884 C903 1.429 . S
C884 H908 0.950 1_556 S
C885 C902 1.574 . S
C885 C904 1.368 . S
C885 H909 0.949 . S
H886 C890 0.983 . S
C887 C888 1.349 . S
C887 C889 1.327 . S
C887 H910 0.950 . S
C888 C887 1.349 . S
C888 C900 1.349 1_556 S
C889 C887 1.327 . S
C889 C905 1.429 . S
C889 H911 0.950 . S
C890 H886 0.983 . S
C890 C898 1.564 1_554 S
C890 C906 1.342 1_554 S
H891 C899 0.950 . S
H892 C897 0.950 . S
H893 C898 0.949 1_554 S
H894 C900 0.950 . S
H895 C901 0.950 . S
H896 C902 0.949 . S
C897 H892 0.950 . S
C897 C899 1.327 . S
C897 C903 1.429 . S
C898 C890 1.564 1_556 S
C898 H893 0.949 1_556 S
C898 C904 1.368 . S
C899 C883 1.349 . S
C899 H891 0.950 . S
C899 C897 1.327 . S
C900 C888 1.349 1_554 S
C900 H894 0.950 . S
C900 C901 1.327 . S
C901 H895 0.950 . S
C901 C900 1.327 . S
C901 C905 1.429 1_554 S
C902 C885 1.574 . S
C902 H896 0.949 . S
C902 C906 1.368 . S
C903 C884 1.429 . S
C903 C897 1.429 . S
C903 C904 1.523 . S
C904 C885 1.368 . S
C904 C898 1.368 . S
C904 C903 1.523 . S
C905 C889 1.429 . S
C905 C901 1.429 1_556 S
C905 C906 1.523 . S
C906 C890 1.342 1_556 S
C906 C902 1.368 . S
C906 C905 1.523 . S
H907 C882 0.950 . S
H908 C884 0.950 1_554 S
H909 C885 0.949 . S
H910 C887 0.950 . S
H911 C889 0.950 . S
C912 C913 1.349 . S
C912 C914 1.327 . S
C912 H937 0.950 . S
C913 C912 1.349 . S
C913 C929 1.349 . S
C914 C912 1.327 . S
C914 C933 1.429 . S
C914 H938 0.950 . S
C915 C932 1.574 . S
C915 C934 1.368 . S
C915 H939 0.949 . S
H916 C920 0.949 1_554 S
C917 C918 1.349 . S
C917 C919 1.327 . S
C917 H940 0.950 . S
C918 C917 1.349 . S
C918 C930 1.342 1_556 S
C919 C917 1.327 . S
C919 C935 1.429 . S
C919 H941 0.950 . S
C920 H916 0.949 1_556 S
C920 C928 1.574 . S
C920 C936 1.368 . S
H921 C929 0.950 . S
H922 C927 0.950 . S
H923 C928 0.949 . S
H924 C930 0.958 . S
H925 C931 0.950 1_554 S
H926 C932 0.949 . S
C927 H922 0.950 . S
C927 C929 1.327 . S
C927 C933 1.429 . S
C928 C920 1.574 . S
C928 H923 0.949 . S
C928 C934 1.368 . S
C929 C913 1.349 . S
C929 H921 0.950 . S
C929 C927 1.327 . S
C930 C918 1.342 1_554 S
C930 H924 0.958 . S
C930 C931 1.326 1_554 S
C931 H925 0.950 1_556 S
C931 C930 1.326 1_556 S
C931 C935 1.429 . S
C932 C915 1.574 . S
C932 H926 0.949 . S
C932 C936 1.368 . S
C933 C914 1.429 . S
C933 C927 1.429 . S
C933 C934 1.523 . S
C934 C915 1.368 . S
C934 C928 1.368 . S
C934 C933 1.523 . S
C935 C919 1.429 . S
C935 C931 1.429 . S
C935 C936 1.523 . S
C936 C920 1.368 . S
C936 C932 1.368 . S
C936 C935 1.523 . S
H937 C912 0.950 . S
H938 C914 0.950 . S
H939 C915 0.949 . S
H940 C917 0.950 . S
H941 C919 0.950 . S
C942 C943 1.349 1_556 S
C942 C944 1.327 . S
C942 H967 0.950 . S
C943 C942 1.349 1_554 S
C943 C959 1.349 . S
C944 C942 1.327 . S
C944 C963 1.429 1_556 S
C944 H968 0.950 . S
C945 C962 1.574 . S
C945 C964 1.368 . S
C945 H969 0.949 . S
H946 C950 0.949 . S
C947 C948 1.349 . S
C947 C949 1.327 . S
C947 H970 0.950 . S
C948 C947 1.349 . S
C948 C960 1.349 1_554 S
C949 C947 1.327 . S
C949 C965 1.429 . S
C949 H971 0.950 . S
C950 H946 0.949 . S
C950 C958 1.574 . S
C950 C966 1.368 1_556 S
H951 C959 0.950 . S
H952 C957 0.950 . S
H953 C958 0.949 . S
H954 C960 0.950 . S
H955 C961 0.950 . S
H956 C962 0.949 . S
C957 H952 0.950 . S
C957 C959 1.327 . S
C957 C963 1.429 . S
C958 C950 1.574 . S
C958 H953 0.949 . S
C958 C964 1.368 1_556 S
C959 C943 1.349 . S
C959 H951 0.950 . S
C959 C957 1.327 . S
C960 C948 1.349 1_556 S
C960 H954 0.950 . S
C960 C961 1.327 . S
C961 H955 0.950 . S
C961 C960 1.327 . S
C961 C965 1.429 1_556 S
C962 C945 1.574 . S
C962 H956 0.949 . S
C962 C966 1.368 . S
C963 C944 1.429 1_554 S
C963 C957 1.429 . S
C963 C964 1.523 . S
C964 C945 1.368 . S
C964 C958 1.368 1_554 S
C964 C963 1.523 . S
C965 C949 1.429 . S
C965 C961 1.429 1_554 S
C965 C966 1.523 . S
C966 C950 1.368 1_554 S
C966 C962 1.368 . S
C966 C965 1.523 . S
H967 C942 0.950 . S
H968 C944 0.950 . S
H969 C945 0.949 . S
H970 C947 0.950 . S
H971 C949 0.950 . S
C972 C973 1.349 . S
C972 C974 1.327 . S
C972 H997 0.950 . S
C973 C972 1.349 . S
C973 C989 1.349 . S
C974 C972 1.327 . S
C974 C993 1.429 . S
C974 H998 0.950 . S
C975 C992 1.574 . S
C975 C994 1.368 . S
C975 H999 0.949 . S
H976 C980 0.949 . S
C977 C978 1.349 . S
C977 C979 1.327 . S
C977 H1000 0.950 1_554 S
C978 C977 1.349 . S
C978 C990 1.349 . S
C979 C977 1.327 . S
C979 C995 1.429 . S
C979 H1001 0.950 1_554 S
C980 H976 0.949 . S
C980 C988 1.574 . S
C980 C996 1.368 . S
H981 C989 0.950 . S
H982 C987 0.950 . S
H983 C988 0.949 . S
H984 C990 0.950 . S
H985 C991 0.950 . S
H986 C992 0.949 1_556 S
C987 H982 0.950 . S
C987 C989 1.327 . S
C987 C993 1.429 . S
C988 C980 1.574 . S
C988 H983 0.949 . S
C988 C994 1.368 . S
C989 C973 1.349 . S
C989 H981 0.950 . S
C989 C987 1.327 . S
C990 C978 1.349 . S
C990 H984 0.950 . S
C990 C991 1.327 . S
C991 H985 0.950 . S
C991 C990 1.327 . S
C991 C995 1.429 . S
C992 C975 1.574 . S
C992 H986 0.949 1_554 S
C992 C996 1.368 . S
C993 C974 1.429 . S
C993 C987 1.429 . S
C993 C994 1.523 . S
C994 C975 1.368 . S
C994 C988 1.368 . S
C994 C993 1.523 . S
C995 C979 1.429 . S
C995 C991 1.429 . S
C995 C996 1.523 . S
C996 C980 1.368 . S
C996 C992 1.368 . S
C996 C995 1.523 . S
H997 C972 0.950 . S
H998 C974 0.950 . S
H999 C975 0.949 . S
H1000 C977 0.950 1_556 S
H1001 C979 0.950 1_556 S
C1002 C1003 1.349 . S
C1002 C1004 1.327 . S
C1002 H1027 0.950 . S
C1003 C1002 1.349 . S
C1003 C1019 1.349 . S
C1004 C1002 1.327 . S
C1004 C1023 1.429 . S
C1004 H1028 0.950 . S
C1005 C1022 1.574 . S
C1005 C1024 1.368 . S
C1005 H1029 0.949 . S
H1006 C1010 0.949 . S
C1007 C1008 1.349 . S
C1007 C1009 1.327 . S
C1007 H1030 0.950 . S
C1008 C1007 1.349 . S
C1008 C1020 1.349 . S
C1009 C1007 1.327 . S
C1009 C1025 1.429 . S
C1009 H1031 0.950 . S
C1010 H1006 0.949 . S
C1010 C1018 1.574 . S
C1010 C1026 1.368 . S
H1011 C1019 0.950 . S
H1012 C1017 0.950 . S
H1013 C1018 0.949 . S
H1014 C1020 0.950 . S
H1015 C1021 0.950 . S
H1016 C1022 0.949 . S
C1017 H1012 0.950 . S
C1017 C1019 1.327 . S
C1017 C1023 1.429 . S
C1018 C1010 1.574 . S
C1018 H1013 0.949 . S
C1018 C1024 1.368 . S
C1019 C1003 1.349 . S
C1019 H1011 0.950 . S
C1019 C1017 1.327 . S
C1020 C1008 1.349 . S
C1020 H1014 0.950 . S
C1020 C1021 1.327 . S
C1021 H1015 0.950 . S
C1021 C1020 1.327 . S
C1021 C1025 1.429 . S
C1022 C1005 1.574 . S
C1022 H1016 0.949 . S
C1022 C1026 1.368 . S
C1023 C1004 1.429 . S
C1023 C1017 1.429 . S
C1023 C1024 1.523 . S
C1024 C1005 1.368 . S
C1024 C1018 1.368 . S
C1024 C1023 1.523 . S
C1025 C1009 1.429 . S
C1025 C1021 1.429 . S
C1025 C1026 1.523 . S
C1026 C1010 1.368 . S
C1026 C1022 1.368 . S
C1026 C1025 1.523 . S
H1027 C1002 0.950 . S
H1028 C1004 0.950 . S
H1029 C1005 0.949 . S
H1030 C1007 0.950 . S
H1031 C1009 0.950 . S
C1032 C1033 1.349 . S
C1032 C1034 1.327 . S
C1032 H1057 0.951 . S
C1033 C1032 1.349 . S
C1033 C1049 1.349 . S
C1034 C1032 1.327 . S
C1034 C1053 1.429 . S
C1034 H1058 0.950 1_554 S
C1035 C1052 1.574 . S
C1035 C1054 1.368 . S
C1035 H1059 0.949 . S
H1036 C1040 0.905 1_556 S
C1037 C1038 1.349 . S
C1037 C1039 1.327 . S
C1037 H1060 0.950 . S
C1038 C1037 1.349 . S
C1038 C1050 1.349 1_554 S
C1039 C1037 1.327 . S
C1039 C1055 1.429 . S
C1039 H1061 0.950 . S
C1040 H1036 0.905 1_554 S
C1040 C1048 1.580 . S
C1040 C1056 1.412 . S
H1041 C1049 0.950 . S
H1042 C1047 0.950 . S
H1043 C1048 0.949 1_556 S
H1044 C1050 0.950 . S
H1045 C1051 0.950 . S
H1046 C1052 0.949 . S
C1047 H1042 0.950 . S
C1047 C1049 1.327 . S
C1047 C1053 1.429 . S
C1048 C1040 1.580 . S
C1048 H1043 0.949 1_554 S
C1048 C1054 1.368 . S
C1049 C1033 1.349 . S
C1049 H1041 0.950 . S
C1049 C1047 1.327 . S
C1050 C1038 1.349 1_556 S
C1050 H1044 0.950 . S
C1050 C1051 1.327 . S
C1051 H1045 0.950 . S
C1051 C1050 1.327 . S
C1051 C1055 1.429 1_556 S
C1052 C1035 1.574 . S
C1052 H1046 0.949 . S
C1052 C1056 1.368 . S
C1053 C1034 1.429 . S
C1053 C1047 1.429 . S
C1053 C1054 1.523 . S
C1054 C1035 1.368 . S
C1054 C1048 1.368 . S
C1054 C1053 1.523 . S
C1055 C1039 1.429 . S
C1055 C1051 1.429 1_554 S
C1055 C1056 1.523 . S
C1056 C1040 1.412 . S
C1056 C1052 1.368 . S
C1056 C1055 1.523 . S
H1057 C1032 0.951 . S
H1058 C1034 0.950 1_556 S
H1059 C1035 0.949 . S
H1060 C1037 0.950 . S
H1061 C1039 0.950 . S
C1062 C1063 1.349 . S
C1062 C1064 1.327 . S
C1062 H1087 0.950 . S
C1063 C1062 1.349 . S
C1063 C1079 1.349 . S
C1064 C1062 1.327 . S
C1064 C1083 1.429 . S
C1064 H1088 0.950 . S
C1065 C1082 1.574 . S
C1065 C1084 1.368 . S
C1065 H1089 0.949 . S
H1066 C1070 0.949 . S
C1067 C1068 1.349 . S
C1067 C1069 1.327 . S
C1067 H1090 0.950 . S
C1068 C1067 1.349 . S
C1068 C1080 1.349 . S
C1069 C1067 1.327 . S
C1069 C1085 1.429 . S
C1069 H1091 0.950 . S
C1070 H1066 0.949 . S
C1070 C1078 1.574 1_455 S
C1070 C1086 1.368 . S
H1071 C1079 0.950 . S
H1072 C1077 0.950 . S
H1073 C1078 0.949 . S
H1074 C1080 0.950 . S
H1075 C1081 0.950 . S
H1076 C1082 0.949 . S
C1077 H1072 0.950 . S
C1077 C1079 1.327 . S
C1077 C1083 1.429 . S
C1078 C1070 1.574 1_655 S
C1078 H1073 0.949 . S
C1078 C1084 1.368 . S
C1079 C1063 1.349 . S
C1079 H1071 0.950 . S
C1079 C1077 1.327 . S
C1080 C1068 1.349 . S
C1080 H1074 0.950 . S
C1080 C1081 1.327 . S
C1081 H1075 0.950 . S
C1081 C1080 1.327 . S
C1081 C1085 1.429 . S
C1082 C1065 1.574 . S
C1082 H1076 0.949 . S
C1082 C1086 1.368 1_655 S
C1083 C1064 1.429 . S
C1083 C1077 1.429 . S
C1083 C1084 1.523 . S
C1084 C1065 1.368 . S
C1084 C1078 1.368 . S
C1084 C1083 1.523 . S
C1085 C1069 1.429 . S
C1085 C1081 1.429 . S
C1085 C1086 1.523 . S
C1086 C1070 1.368 . S
C1086 C1082 1.368 1_455 S
C1086 C1085 1.523 . S
H1087 C1062 0.950 . S
H1088 C1064 0.950 . S
H1089 C1065 0.949 . S
H1090 C1067 0.950 . S
H1091 C1069 0.950 . S
C1092 C1093 1.349 . S
C1092 C1094 1.327 . S
C1092 H1117 0.950 . S
C1093 C1092 1.349 . S
C1093 C1109 1.349 . S
C1094 C1092 1.327 . S
C1094 C1113 1.429 . S
C1094 H1118 0.950 . S
C1095 C1112 1.574 . S
C1095 C1114 1.368 . S
C1095 H1119 0.949 . S
H1096 C1100 0.949 . S
C1097 C1098 1.349 . S
C1097 C1099 1.327 . S
C1097 H1120 0.950 . S
C1098 C1097 1.349 . S
C1098 C1110 1.349 . S
C1099 C1097 1.327 . S
C1099 C1115 1.429 . S
C1099 H1121 0.950 . S
C1100 H1096 0.949 . S
C1100 C1108 1.574 . S
C1100 C1116 1.368 . S
H1101 C1109 0.950 . S
H1102 C1107 0.950 . S
H1103 C1108 0.949 . S
H1104 C1110 0.950 . S
H1105 C1111 0.950 . S
H1106 C1112 0.949 . S
C1107 H1102 0.950 . S
C1107 C1109 1.327 . S
C1107 C1113 1.429 . S
C1108 C1100 1.574 . S
C1108 H1103 0.949 . S
C1108 C1114 1.368 . S
C1109 C1093 1.349 . S
C1109 H1101 0.950 . S
C1109 C1107 1.327 . S
C1110 C1098 1.349 . S
C1110 H1104 0.950 . S
C1110 C1111 1.327 . S
C1111 H1105 0.950 . S
C1111 C1110 1.327 . S
C1111 C1115 1.429 . S
C1112 C1095 1.574 . S
C1112 H1106 0.949 . S
C1112 C1116 1.368 . S
C1113 C1094 1.429 . S
C1113 C1107 1.429 . S
C1113 C1114 1.523 . S
C1114 C1095 1.368 . S
C1114 C1108 1.368 . S
C1114 C1113 1.523 . S
C1115 C1099 1.429 . S
C1115 C1111 1.429 . S
C1115 C1116 1.523 . S
C1116 C1100 1.368 . S
C1116 C1112 1.368 . S
C1116 C1115 1.523 . S
H1117 C1092 0.950 . S
H1118 C1094 0.950 . S
H1119 C1095 0.949 . S
H1120 C1097 0.950 . S
H1121 C1099 0.950 . S
C1122 C1123 1.349 . S
C1122 C1124 1.327 . S
C1122 H1147 0.950 . S
C1123 C1122 1.349 . S
C1123 C1139 1.349 . S
C1124 C1122 1.327 . S
C1124 C1143 1.429 . S
C1124 H1148 0.950 . S
C1125 C1142 1.574 . S
C1125 C1144 1.368 . S
C1125 H1149 0.949 . S
H1126 C1130 0.949 . S
C1127 C1128 1.349 . S
C1127 C1129 1.327 . S
C1127 H1150 0.950 . S
C1128 C1127 1.349 . S
C1128 C1140 1.349 . S
C1129 C1127 1.327 . S
C1129 C1145 1.429 . S
C1129 H1151 0.950 . S
C1130 H1126 0.949 . S
C1130 C1138 1.574 . S
C1130 C1146 1.368 . S
H1131 C1139 0.950 . S
H1132 C1137 0.950 . S
H1133 C1138 0.949 . S
H1134 C1140 0.950 . S
H1135 C1141 0.950 . S
H1136 C1142 0.949 1_565 S
C1137 H1132 0.950 . S
C1137 C1139 1.327 . S
C1137 C1143 1.429 . S
C1138 C1130 1.574 . S
C1138 H1133 0.949 . S
C1138 C1144 1.368 . S
C1139 C1123 1.349 . S
C1139 H1131 0.950 . S
C1139 C1137 1.327 . S
C1140 C1128 1.349 . S
C1140 H1134 0.950 . S
C1140 C1141 1.327 . S
C1141 H1135 0.950 . S
C1141 C1140 1.327 . S
C1141 C1145 1.429 . S
C1142 C1125 1.574 . S
C1142 H1136 0.949 1_545 S
C1142 C1146 1.368 . S
C1143 C1124 1.429 . S
C1143 C1137 1.429 . S
C1143 C1144 1.523 . S
C1144 C1125 1.368 . S
C1144 C1138 1.368 . S
C1144 C1143 1.523 . S
C1145 C1129 1.429 . S
C1145 C1141 1.429 . S
C1145 C1146 1.523 1_565 S
C1146 C1130 1.368 . S
C1146 C1142 1.368 . S
C1146 C1145 1.523 1_545 S
H1147 C1122 0.950 . S
H1148 C1124 0.950 . S
H1149 C1125 0.949 . S
H1150 C1127 0.950 . S
H1151 C1129 0.950 . S
C1152 C1153 1.349 . S
C1152 C1154 1.327 . S
C1152 H1177 0.950 . S
C1153 C1152 1.349 . S
C1153 C1169 1.349 . S
C1154 C1152 1.327 . S
C1154 C1173 1.429 . S
C1154 H1178 0.950 . S
C1155 C1172 1.574 . S
C1155 C1174 1.368 . S
C1155 H1179 0.949 . S
H1156 C1160 0.949 . S
C1157 C1158 1.349 . S
C1157 C1159 1.327 . S
C1157 H1180 0.950 . S
C1158 C1157 1.349 . S
C1158 C1170 1.349 . S
C1159 C1157 1.327 . S
C1159 C1175 1.429 . S
C1159 H1181 0.950 . S
C1160 H1156 0.949 . S
C1160 C1168 1.574 . S
C1160 C1176 1.368 . S
H1161 C1169 0.950 . S
H1162 C1167 0.950 . S
H1163 C1168 0.949 . S
H1164 C1170 0.950 . S
H1165 C1171 0.950 . S
H1166 C1172 0.949 . S
C1167 H1162 0.950 . S
C1167 C1169 1.327 . S
C1167 C1173 1.429 . S
C1168 C1160 1.574 . S
C1168 H1163 0.949 . S
C1168 C1174 1.368 . S
C1169 C1153 1.349 . S
C1169 H1161 0.950 . S
C1169 C1167 1.327 . S
C1170 C1158 1.349 . S
C1170 H1164 0.950 . S
C1170 C1171 1.327 . S
C1171 H1165 0.950 . S
C1171 C1170 1.327 . S
C1171 C1175 1.429 . S
C1172 C1155 1.574 . S
C1172 H1166 0.949 . S
C1172 C1176 1.368 . S
C1173 C1154 1.429 . S
C1173 C1167 1.429 . S
C1173 C1174 1.523 . S
C1174 C1155 1.368 . S
C1174 C1168 1.368 . S
C1174 C1173 1.523 . S
C1175 C1159 1.429 . S
C1175 C1171 1.429 . S
C1175 C1176 1.523 . S
C1176 C1160 1.368 . S
C1176 C1172 1.368 . S
C1176 C1175 1.523 . S
H1177 C1152 0.950 . S
H1178 C1154 0.950 . S
H1179 C1155 0.949 . S
H1180 C1157 0.950 . S
H1181 C1159 0.950 . S
C1182 C1183 1.349 . S
C1182 C1184 1.327 . S
C1182 H1207 0.950 . S
C1183 C1182 1.349 . S
C1183 C1199 1.349 . S
C1184 C1182 1.327 . S
C1184 C1203 1.429 . S
C1184 H1208 0.950 . S
C1185 C1202 1.574 . S
C1185 C1204 1.368 . S
C1185 H1209 0.949 . S
H1186 C1190 0.949 . S
C1187 C1188 1.349 . S
C1187 C1189 1.327 . S
C1187 H1210 0.950 . S
C1188 C1187 1.349 . S
C1188 C1200 1.349 . S
C1189 C1187 1.327 . S
C1189 C1205 1.429 . S
C1189 H1211 0.950 . S
C1190 H1186 0.949 . S
C1190 C1198 1.574 . S
C1190 C1206 1.368 . S
H1191 C1199 0.950 . S
H1192 C1197 0.950 . S
H1193 C1198 0.949 . S
H1194 C1200 0.950 . S
H1195 C1201 0.950 . S
H1196 C1202 0.949 . S
C1197 H1192 0.950 . S
C1197 C1199 1.327 . S
C1197 C1203 1.429 . S
C1198 C1190 1.574 . S
C1198 H1193 0.949 . S
C1198 C1204 1.368 . S
C1199 C1183 1.349 . S
C1199 H1191 0.950 . S
C1199 C1197 1.327 . S
C1200 C1188 1.349 . S
C1200 H1194 0.950 . S
C1200 C1201 1.327 . S
C1201 H1195 0.950 . S
C1201 C1200 1.327 . S
C1201 C1205 1.429 . S
C1202 C1185 1.574 . S
C1202 H1196 0.949 . S
C1202 C1206 1.368 . S
C1203 C1184 1.429 . S
C1203 C1197 1.429 . S
C1203 C1204 1.523 . S
C1204 C1185 1.368 . S
C1204 C1198 1.368 . S
C1204 C1203 1.523 . S
C1205 C1189 1.429 . S
C1205 C1201 1.429 . S
C1205 C1206 1.523 . S
C1206 C1190 1.368 . S
C1206 C1202 1.368 . S
C1206 C1205 1.523 . S
H1207 C1182 0.950 . S
H1208 C1184 0.950 . S
H1209 C1185 0.949 . S
H1210 C1187 0.950 . S
H1211 C1189 0.950 . S
C1212 C1213 1.349 . S
C1212 C1214 1.327 . S
C1212 H1237 0.950 . S
C1213 C1212 1.349 . S
C1213 C1229 1.349 . S
C1214 C1212 1.327 . S
C1214 C1233 1.429 . S
C1214 H1238 0.950 . S
C1215 C1232 1.574 . S
C1215 C1234 1.368 . S
C1215 H1239 0.949 . S
H1216 C1220 0.949 . S
C1217 C1218 1.349 . S
C1217 C1219 1.327 . S
C1217 H1240 0.950 . S
C1218 C1217 1.349 . S
C1218 C1230 1.349 . S
C1219 C1217 1.327 . S
C1219 C1235 1.429 . S
C1219 H1241 0.950 . S
C1220 H1216 0.949 . S
C1220 C1228 1.574 . S
C1220 C1236 1.368 . S
H1221 C1229 0.950 . S
H1222 C1227 0.950 . S
H1223 C1228 0.949 . S
H1224 C1230 0.950 . S
H1225 C1231 0.950 . S
H1226 C1232 0.949 . S
C1227 H1222 0.950 . S
C1227 C1229 1.327 . S
C1227 C1233 1.429 . S
C1228 C1220 1.574 . S
C1228 H1223 0.949 . S
C1228 C1234 1.368 . S
C1229 C1213 1.349 . S
C1229 H1221 0.950 . S
C1229 C1227 1.327 . S
C1230 C1218 1.349 . S
C1230 H1224 0.950 . S
C1230 C1231 1.327 . S
C1231 H1225 0.950 . S
C1231 C1230 1.327 . S
C1231 C1235 1.429 . S
C1232 C1215 1.574 . S
C1232 H1226 0.949 . S
C1232 C1236 1.368 . S
C1233 C1214 1.429 . S
C1233 C1227 1.429 . S
C1233 C1234 1.523 . S
C1234 C1215 1.368 . S
C1234 C1228 1.368 . S
C1234 C1233 1.523 . S
C1235 C1219 1.429 . S
C1235 C1231 1.429 . S
C1235 C1236 1.523 . S
C1236 C1220 1.368 . S
C1236 C1232 1.368 . S
C1236 C1235 1.523 . S
H1237 C1212 0.950 . S
H1238 C1214 0.950 . S
H1239 C1215 0.949 . S
H1240 C1217 0.950 . S
H1241 C1219 0.950 . S
C1242 C1243 1.349 . S
C1242 C1244 1.327 . S
C1242 H1267 0.950 . S
C1243 C1242 1.349 . S
C1243 C1259 1.349 . S
C1244 C1242 1.327 . S
C1244 C1263 1.429 . S
C1244 H1268 0.950 . S
C1245 C1262 1.574 . S
C1245 C1264 1.368 . S
C1245 H1269 0.949 . S
H1246 C1250 0.949 . S
C1247 C1248 1.349 . S
C1247 C1249 1.327 . S
C1247 H1270 0.950 . S
C1248 C1247 1.349 . S
C1248 C1260 1.349 . S
C1249 C1247 1.327 . S
C1249 C1265 1.429 . S
C1249 H1271 0.950 . S
C1250 H1246 0.949 . S
C1250 C1258 1.574 . S
C1250 C1266 1.368 . S
H1251 C1259 0.950 . S
H1252 C1257 0.950 . S
H1253 C1258 0.949 . S
H1254 C1260 0.950 . S
H1255 C1261 0.950 . S
H1256 C1262 0.949 . S
C1257 H1252 0.950 . S
C1257 C1259 1.327 . S
C1257 C1263 1.429 . S
C1258 C1250 1.574 . S
C1258 H1253 0.949 . S
C1258 C1264 1.368 . S
C1259 C1243 1.349 . S
C1259 H1251 0.950 . S
C1259 C1257 1.327 . S
C1260 C1248 1.349 . S
C1260 H1254 0.950 . S
C1260 C1261 1.327 . S
C1261 H1255 0.950 . S
C1261 C1260 1.327 . S
C1261 C1265 1.429 . S
C1262 C1245 1.574 . S
C1262 H1256 0.949 . S
C1262 C1266 1.368 . S
C1263 C1244 1.429 . S
C1263 C1257 1.429 . S
C1263 C1264 1.523 . S
C1264 C1245 1.368 . S
C1264 C1258 1.368 . S
C1264 C1263 1.523 . S
C1265 C1249 1.429 . S
C1265 C1261 1.429 . S
C1265 C1266 1.523 . S
C1266 C1250 1.368 . S
C1266 C1262 1.368 . S
C1266 C1265 1.523 . S
H1267 C1242 0.950 . S
H1268 C1244 0.950 . S
H1269 C1245 0.949 . S
H1270 C1247 0.950 . S
H1271 C1249 0.950 . S
C1272 C1273 1.349 . S
C1272 C1274 1.327 . S
C1272 H1297 0.950 . S
C1273 C1272 1.349 . S
C1273 C1289 1.349 . S
C1274 C1272 1.327 . S
C1274 C1293 1.429 . S
C1274 H1298 0.950 . S
C1275 C1292 1.574 . S
C1275 C1294 1.368 . S
C1275 H1299 0.949 . S
H1276 C1280 0.949 . S
C1277 C1278 1.349 . S
C1277 C1279 1.327 . S
C1277 H1300 0.950 . S
C1278 C1277 1.349 . S
C1278 C1290 1.349 . S
C1279 C1277 1.327 . S
C1279 C1295 1.429 . S
C1279 H1301 0.950 . S
C1280 H1276 0.949 . S
C1280 C1288 1.574 . S
C1280 C1296 1.368 . S
H1281 C1289 0.950 . S
H1282 C1287 0.950 . S
H1283 C1288 0.949 . S
H1284 C1290 0.950 . S
H1285 C1291 0.950 . S
H1286 C1292 0.949 . S
C1287 H1282 0.950 . S
C1287 C1289 1.327 . S
C1287 C1293 1.429 . S
C1288 C1280 1.574 . S
C1288 H1283 0.949 . S
C1288 C1294 1.368 . S
C1289 C1273 1.349 . S
C1289 H1281 0.950 . S
C1289 C1287 1.327 . S
C1290 C1278 1.349 . S
C1290 H1284 0.950 . S
C1290 C1291 1.327 . S
C1291 H1285 0.950 . S
C1291 C1290 1.327 . S
C1291 C1295 1.429 . S
C1292 C1275 1.574 . S
C1292 H1286 0.949 . S
C1292 C1296 1.368 . S
C1293 C1274 1.429 . S
C1293 C1287 1.429 . S
C1293 C1294 1.523 . S
C1294 C1275 1.368 . S
C1294 C1288 1.368 . S
C1294 C1293 1.523 . S
C1295 C1279 1.429 . S
C1295 C1291 1.429 . S
C1295 C1296 1.523 . S
C1296 C1280 1.368 . S
C1296 C1292 1.368 . S
C1296 C1295 1.523 . S
H1297 C1272 0.950 . S
H1298 C1274 0.950 . S
H1299 C1275 0.949 . S
H1300 C1277 0.950 . S
H1301 C1279 0.950 . S
C1302 C1303 1.349 . S
C1302 C1304 1.327 . S
C1302 H1327 0.950 . S
C1303 C1302 1.349 . S
C1303 C1319 1.349 . S
C1304 C1302 1.327 . S
C1304 C1323 1.429 . S
C1304 H1328 0.950 . S
C1305 C1322 1.574 . S
C1305 C1324 1.368 . S
C1305 H1329 0.949 . S
H1306 C1310 0.949 . S
C1307 C1308 1.349 . S
C1307 C1309 1.327 . S
C1307 H1330 0.950 . S
C1308 C1307 1.349 . S
C1308 C1320 1.349 . S
C1309 C1307 1.327 . S
C1309 C1325 1.429 . S
C1309 H1331 0.950 . S
C1310 H1306 0.949 . S
C1310 C1318 1.574 . S
C1310 C1326 1.368 . S
H1311 C1319 0.950 . S
H1312 C1317 0.950 . S
H1313 C1318 0.949 . S
H1314 C1320 0.950 . S
H1315 C1321 0.950 . S
H1316 C1322 0.949 . S
C1317 H1312 0.950 . S
C1317 C1319 1.327 . S
C1317 C1323 1.429 . S
C1318 C1310 1.574 . S
C1318 H1313 0.949 . S
C1318 C1324 1.368 . S
C1319 C1303 1.349 . S
C1319 H1311 0.950 . S
C1319 C1317 1.327 . S
C1320 C1308 1.349 . S
C1320 H1314 0.950 . S
C1320 C1321 1.327 . S
C1321 H1315 0.950 . S
C1321 C1320 1.327 . S
C1321 C1325 1.429 . S
C1322 C1305 1.574 . S
C1322 H1316 0.949 . S
C1322 C1326 1.368 . S
C1323 C1304 1.429 . S
C1323 C1317 1.429 . S
C1323 C1324 1.523 . S
C1324 C1305 1.368 . S
C1324 C1318 1.368 . S
C1324 C1323 1.523 . S
C1325 C1309 1.429 . S
C1325 C1321 1.429 . S
C1325 C1326 1.523 . S
C1326 C1310 1.368 . S
C1326 C1322 1.368 . S
C1326 C1325 1.523 . S
H1327 C1302 0.950 . S
H1328 C1304 0.950 . S
H1329 C1305 0.949 . S
H1330 C1307 0.950 . S
H1331 C1309 0.950 . S
C1332 C1333 1.349 . S
C1332 C1334 1.327 . S
C1332 H1357 0.950 . S
C1333 C1332 1.349 . S
C1333 C1349 1.349 . S
C1334 C1332 1.327 . S
C1334 C1353 1.429 1_545 S
C1334 H1358 0.950 1_545 S
C1335 C1352 1.574 . S
C1335 C1354 1.368 . S
C1335 H1359 0.949 . S
H1336 C1340 0.949 . S
C1337 C1338 1.349 . S
C1337 C1339 1.327 . S
C1337 H1360 0.950 . S
C1338 C1337 1.349 . S
C1338 C1350 1.349 . S
C1339 C1337 1.327 . S
C1339 C1355 1.429 . S
C1339 H1361 0.950 . S
C1340 H1336 0.949 . S
C1340 C1348 1.574 . S
C1340 C1356 1.368 . S
H1341 C1349 0.950 . S
H1342 C1347 0.950 1_565 S
H1343 C1348 0.949 . S
H1344 C1350 0.950 . S
H1345 C1351 0.950 . S
H1346 C1352 0.949 . S
C1347 H1342 0.950 1_545 S
C1347 C1349 1.327 . S
C1347 C1353 1.429 1_545 S
C1348 C1340 1.574 . S
C1348 H1343 0.949 . S
C1348 C1354 1.368 . S
C1349 C1333 1.349 . S
C1349 H1341 0.950 . S
C1349 C1347 1.327 . S
C1350 C1338 1.349 . S
C1350 H1344 0.950 . S
C1350 C1351 1.327 . S
C1351 H1345 0.950 . S
C1351 C1350 1.327 . S
C1351 C1355 1.429 . S
C1352 C1335 1.574 . S
C1352 H1346 0.949 . S
C1352 C1356 1.368 . S
C1353 C1334 1.429 1_565 S
C1353 C1347 1.429 1_565 S
C1353 C1354 1.523 . S
C1354 C1335 1.368 . S
C1354 C1348 1.368 . S
C1354 C1353 1.523 . S
C1355 C1339 1.429 . S
C1355 C1351 1.429 . S
C1355 C1356 1.523 . S
C1356 C1340 1.368 . S
C1356 C1352 1.368 . S
C1356 C1355 1.523 . S
H1357 C1332 0.950 . S
H1358 C1334 0.950 1_565 S
H1359 C1335 0.949 . S
H1360 C1337 0.950 . S
H1361 C1339 0.950 . S
C1362 C1363 1.349 1_455 S
C1362 C1364 1.327 . S
C1362 H1387 0.950 . S
C1363 C1362 1.349 1_655 S
C1363 C1379 1.349 . S
C1364 C1362 1.327 . S
C1364 C1383 1.429 . S
C1364 H1388 0.950 . S
C1365 C1382 1.574 . S
C1365 C1384 1.368 . S
C1365 H1389 0.949 . S
H1366 C1370 0.949 . S
C1367 C1368 1.349 . S
C1367 C1369 1.327 . S
C1367 H1390 0.950 . S
C1368 C1367 1.349 . S
C1368 C1380 1.349 . S
C1369 C1367 1.327 . S
C1369 C1385 1.429 . S
C1369 H1391 0.950 . S
C1370 H1366 0.949 . S
C1370 C1378 1.574 . S
C1370 C1386 1.368 . S
H1371 C1379 0.950 . S
H1372 C1377 0.950 . S
H1373 C1378 0.949 . S
H1374 C1380 0.950 . S
H1375 C1381 0.950 . S
H1376 C1382 0.949 . S
C1377 H1372 0.950 . S
C1377 C1379 1.327 1_455 S
C1377 C1383 1.429 . S
C1378 C1370 1.574 . S
C1378 H1373 0.949 . S
C1378 C1384 1.368 . S
C1379 C1363 1.349 . S
C1379 H1371 0.950 . S
C1379 C1377 1.327 1_655 S
C1380 C1368 1.349 . S
C1380 H1374 0.950 . S
C1380 C1381 1.327 . S
C1381 H1375 0.950 . S
C1381 C1380 1.327 . S
C1381 C1385 1.429 . S
C1382 C1365 1.574 . S
C1382 H1376 0.949 . S
C1382 C1386 1.368 . S
C1383 C1364 1.429 . S
C1383 C1377 1.429 . S
C1383 C1384 1.523 . S
C1384 C1365 1.368 . S
C1384 C1378 1.368 . S
C1384 C1383 1.523 . S
C1385 C1369 1.429 . S
C1385 C1381 1.429 . S
C1385 C1386 1.523 . S
C1386 C1370 1.368 . S
C1386 C1382 1.368 . S
C1386 C1385 1.523 . S
H1387 C1362 0.950 . S
H1388 C1364 0.950 . S
H1389 C1365 0.949 . S
H1390 C1367 0.950 . S
H1391 C1369 0.950 . S
C1392 C1393 1.349 . S
C1392 C1394 1.327 . S
C1392 H1417 0.950 . S
C1393 C1392 1.349 . S
C1393 C1409 1.349 . S
C1394 C1392 1.327 . S
C1394 C1413 1.429 . S
C1394 H1418 0.950 . S
C1395 C1412 1.574 . S
C1395 C1414 1.368 . S
C1395 H1419 0.949 . S
H1396 C1400 0.949 . S
C1397 C1398 1.349 . S
C1397 C1399 1.327 . S
C1397 H1420 0.950 . S
C1398 C1397 1.349 . S
C1398 C1410 1.349 . S
C1399 C1397 1.327 . S
C1399 C1415 1.429 . S
C1399 H1421 0.950 . S
C1400 H1396 0.949 . S
C1400 C1408 1.574 . S
C1400 C1416 1.368 . S
H1401 C1409 0.950 . S
H1402 C1407 0.950 . S
H1403 C1408 0.949 . S
H1404 C1410 0.950 . S
H1405 C1411 0.950 . S
H1406 C1412 0.949 . S
C1407 H1402 0.950 . S
C1407 C1409 1.327 . S
C1407 C1413 1.429 . S
C1408 C1400 1.574 . S
C1408 H1403 0.949 . S
C1408 C1414 1.368 . S
C1409 C1393 1.349 . S
C1409 H1401 0.950 . S
C1409 C1407 1.327 . S
C1410 C1398 1.349 . S
C1410 H1404 0.950 . S
C1410 C1411 1.327 . S
C1411 H1405 0.950 . S
C1411 C1410 1.327 . S
C1411 C1415 1.429 . S
C1412 C1395 1.574 . S
C1412 H1406 0.949 . S
C1412 C1416 1.368 . S
C1413 C1394 1.429 . S
C1413 C1407 1.429 . S
C1413 C1414 1.523 . S
C1414 C1395 1.368 . S
C1414 C1408 1.368 . S
C1414 C1413 1.523 . S
C1415 C1399 1.429 . S
C1415 C1411 1.429 . S
C1415 C1416 1.523 . S
C1416 C1400 1.368 . S
C1416 C1412 1.368 . S
C1416 C1415 1.523 . S
H1417 C1392 0.950 . S
H1418 C1394 0.950 . S
H1419 C1395 0.949 . S
H1420 C1397 0.950 . S
H1421 C1399 0.950 . S
C1422 C1423 1.349 . S
C1422 C1424 1.327 . S
C1422 H1447 0.950 . S
C1423 C1422 1.349 . S
C1423 C1439 1.349 . S
C1424 C1422 1.327 . S
C1424 C1443 1.429 . S
C1424 H1448 0.950 . S
C1425 C1442 1.574 . S
C1425 C1444 1.368 . S
C1425 H1449 0.949 . S
H1426 C1430 0.949 . S
C1427 C1428 1.349 . S
C1427 C1429 1.327 . S
C1427 H1450 0.950 . S
C1428 C1427 1.349 . S
C1428 C1440 1.349 . S
C1429 C1427 1.327 . S
C1429 C1445 1.429 . S
C1429 H1451 0.950 . S
C1430 H1426 0.949 . S
C1430 C1438 1.574 . S
C1430 C1446 1.368 . S
H1431 C1439 0.950 . S
H1432 C1437 0.950 . S
H1433 C1438 0.949 . S
H1434 C1440 0.950 . S
H1435 C1441 0.950 . S
H1436 C1442 0.949 . S
C1437 H1432 0.950 . S
C1437 C1439 1.327 . S
C1437 C1443 1.429 . S
C1438 C1430 1.574 . S
C1438 H1433 0.949 . S
C1438 C1444 1.368 . S
C1439 C1423 1.349 . S
C1439 H1431 0.950 . S
C1439 C1437 1.327 . S
C1440 C1428 1.349 . S
C1440 H1434 0.950 . S
C1440 C1441 1.327 . S
C1441 H1435 0.950 . S
C1441 C1440 1.327 . S
C1441 C1445 1.429 . S
C1442 C1425 1.574 . S
C1442 H1436 0.949 . S
C1442 C1446 1.368 . S
C1443 C1424 1.429 . S
C1443 C1437 1.429 . S
C1443 C1444 1.523 . S
C1444 C1425 1.368 . S
C1444 C1438 1.368 . S
C1444 C1443 1.523 . S
C1445 C1429 1.429 . S
C1445 C1441 1.429 . S
C1445 C1446 1.523 . S
C1446 C1430 1.368 . S
C1446 C1442 1.368 . S
C1446 C1445 1.523 . S
H1447 C1422 0.950 . S
H1448 C1424 0.950 . S
H1449 C1425 0.949 . S
H1450 C1427 0.950 . S
H1451 C1429 0.950 . S
C1452 C1453 1.349 . S
C1452 C1454 1.327 . S
C1452 H1477 0.950 . S
C1453 C1452 1.349 . S
C1453 C1469 1.349 . S
C1454 C1452 1.327 . S
C1454 C1473 1.429 . S
C1454 H1478 0.950 . S
C1455 C1472 1.574 . S
C1455 C1474 1.368 . S
C1455 H1479 0.949 . S
H1456 C1460 0.949 . S
C1457 C1458 1.349 . S
C1457 C1459 1.327 . S
C1457 H1480 0.950 . S
C1458 C1457 1.349 . S
C1458 C1470 1.349 . S
C1459 C1457 1.327 . S
C1459 C1475 1.429 . S
C1459 H1481 0.950 . S
C1460 H1456 0.949 . S
C1460 C1468 1.574 . S
C1460 C1476 1.368 . S
H1461 C1469 0.950 . S
H1462 C1467 0.950 . S
H1463 C1468 0.949 . S
H1464 C1470 0.950 . S
H1465 C1471 0.950 . S
H1466 C1472 0.949 . S
C1467 H1462 0.950 . S
C1467 C1469 1.327 . S
C1467 C1473 1.429 . S
C1468 C1460 1.574 . S
C1468 H1463 0.949 . S
C1468 C1474 1.368 . S
C1469 C1453 1.349 . S
C1469 H1461 0.950 . S
C1469 C1467 1.327 . S
C1470 C1458 1.349 . S
C1470 H1464 0.950 . S
C1470 C1471 1.327 . S
C1471 H1465 0.950 . S
C1471 C1470 1.327 . S
C1471 C1475 1.429 . S
C1472 C1455 1.574 . S
C1472 H1466 0.949 . S
C1472 C1476 1.368 . S
C1473 C1454 1.429 . S
C1473 C1467 1.429 . S
C1473 C1474 1.523 . S
C1474 C1455 1.368 . S
C1474 C1468 1.368 . S
C1474 C1473 1.523 . S
C1475 C1459 1.429 . S
C1475 C1471 1.429 . S
C1475 C1476 1.523 . S
C1476 C1460 1.368 . S
C1476 C1472 1.368 . S
C1476 C1475 1.523 . S
H1477 C1452 0.950 . S
H1478 C1454 0.950 . S
H1479 C1455 0.949 . S
H1480 C1457 0.950 . S
H1481 C1459 0.950 . S
C1482 C1483 1.349 . S
C1482 C1484 1.327 . S
C1482 H1507 0.950 . S
C1483 C1482 1.349 . S
C1483 C1499 1.349 . S
C1484 C1482 1.327 . S
C1484 C1503 1.429 . S
C1484 H1508 0.950 . S
C1485 C1502 1.574 . S
C1485 C1504 1.368 . S
C1485 H1509 0.949 . S
H1486 C1490 0.949 . S
C1487 C1488 1.349 . S
C1487 C1489 1.327 . S
C1487 H1510 0.950 . S
C1488 C1487 1.349 . S
C1488 C1500 1.349 . S
C1489 C1487 1.327 . S
C1489 C1505 1.429 . S
C1489 H1511 0.950 . S
C1490 H1486 0.949 . S
C1490 C1498 1.574 . S
C1490 C1506 1.368 . S
H1491 C1499 0.950 . S
H1492 C1497 0.950 . S
H1493 C1498 0.949 . S
H1494 C1500 0.950 . S
H1495 C1501 0.950 . S
H1496 C1502 0.949 . S
C1497 H1492 0.950 . S
C1497 C1499 1.327 . S
C1497 C1503 1.429 . S
C1498 C1490 1.574 . S
C1498 H1493 0.949 . S
C1498 C1504 1.368 . S
C1499 C1483 1.349 . S
C1499 H1491 0.950 . S
C1499 C1497 1.327 . S
C1500 C1488 1.349 . S
C1500 H1494 0.950 . S
C1500 C1501 1.327 . S
C1501 H1495 0.950 . S
C1501 C1500 1.327 . S
C1501 C1505 1.429 . S
C1502 C1485 1.574 . S
C1502 H1496 0.949 . S
C1502 C1506 1.368 . S
C1503 C1484 1.429 . S
C1503 C1497 1.429 . S
C1503 C1504 1.523 . S
C1504 C1485 1.368 . S
C1504 C1498 1.368 . S
C1504 C1503 1.523 . S
C1505 C1489 1.429 . S
C1505 C1501 1.429 . S
C1505 C1506 1.523 . S
C1506 C1490 1.368 . S
C1506 C1502 1.368 . S
C1506 C1505 1.523 . S
H1507 C1482 0.950 . S
H1508 C1484 0.950 . S
H1509 C1485 0.949 . S
H1510 C1487 0.950 . S
H1511 C1489 0.950 . S
C1512 C1513 1.349 . S
C1512 C1514 1.327 . S
C1512 H1537 0.950 . S
C1513 C1512 1.349 . S
C1513 C1529 1.349 . S
C1514 C1512 1.327 . S
C1514 C1533 1.429 . S
C1514 H1538 0.950 . S
C1515 C1532 1.574 . S
C1515 C1534 1.368 . S
C1515 H1539 0.949 . S
H1516 C1520 0.949 . S
C1517 C1518 1.349 . S
C1517 C1519 1.327 . S
C1517 H1540 0.950 . S
C1518 C1517 1.349 . S
C1518 C1530 1.349 . S
C1519 C1517 1.327 . S
C1519 C1535 1.429 . S
C1519 H1541 0.950 . S
C1520 H1516 0.949 . S
C1520 C1528 1.574 1_545 S
C1520 C1536 1.368 . S
H1521 C1529 0.950 . S
H1522 C1527 0.950 . S
H1523 C1528 0.949 . S
H1524 C1530 0.950 . S
H1525 C1531 0.950 . S
H1526 C1532 0.949 1_545 S
C1527 H1522 0.950 . S
C1527 C1529 1.327 . S
C1527 C1533 1.429 . S
C1528 C1520 1.574 1_565 S
C1528 H1523 0.949 . S
C1528 C1534 1.368 . S
C1529 C1513 1.349 . S
C1529 H1521 0.950 . S
C1529 C1527 1.327 . S
C1530 C1518 1.349 . S
C1530 H1524 0.950 . S
C1530 C1531 1.327 . S
C1531 H1525 0.950 . S
C1531 C1530 1.327 . S
C1531 C1535 1.429 . S
C1532 C1515 1.574 . S
C1532 H1526 0.949 1_565 S
C1532 C1536 1.368 1_565 S
C1533 C1514 1.429 . S
C1533 C1527 1.429 . S
C1533 C1534 1.523 . S
C1534 C1515 1.368 . S
C1534 C1528 1.368 . S
C1534 C1533 1.523 . S
C1535 C1519 1.429 . S
C1535 C1531 1.429 . S
C1535 C1536 1.523 . S
C1536 C1520 1.368 . S
C1536 C1532 1.368 1_545 S
C1536 C1535 1.523 . S
H1537 C1512 0.950 . S
H1538 C1514 0.950 . S
H1539 C1515 0.949 . S
H1540 C1517 0.950 . S
H1541 C1519 0.950 . S
C1542 C1543 1.349 . S
C1542 C1544 1.327 . S
C1542 H1567 0.950 . S
C1543 C1542 1.349 . S
C1543 C1559 1.349 . S
C1544 C1542 1.327 . S
C1544 C1563 1.429 . S
C1544 H1568 0.950 . S
C1545 C1562 1.625 . S
C1545 C1564 1.368 . S
C1545 H1569 0.949 . S
H1546 C1550 0.949 . S
C1547 C1548 1.349 . S
C1547 C1549 1.327 . S
C1547 H1570 0.950 . S
C1548 C1547 1.349 . S
C1548 C1560 1.349 . S
C1549 C1547 1.327 . S
C1549 C1565 1.429 . S
C1549 H1571 0.950 . S
C1550 H1546 0.949 . S
C1550 C1558 1.574 1_655 S
C1550 C1566 1.368 . S
H1551 C1559 0.950 . S
H1552 C1557 0.950 . S
H1553 C1558 0.949 . S
H1554 C1560 0.950 . S
H1555 C1561 0.950 . S
H1556 C1562 0.916 1_655 S
C1557 H1552 0.950 . S
C1557 C1559 1.327 . S
C1557 C1563 1.429 . S
C1558 C1550 1.574 1_455 S
C1558 H1553 0.949 . S
C1558 C1564 1.368 . S
C1559 C1543 1.349 . S
C1559 H1551 0.950 . S
C1559 C1557 1.327 . S
C1560 C1548 1.349 . S
C1560 H1554 0.950 . S
C1560 C1561 1.327 . S
C1561 H1555 0.950 . S
C1561 C1560 1.327 . S
C1561 C1565 1.429 . S
C1562 C1545 1.625 . S
C1562 H1556 0.916 1_455 S
C1562 C1566 1.356 1_455 S
C1563 C1544 1.429 . S
C1563 C1557 1.429 . S
C1563 C1564 1.523 . S
C1564 C1545 1.368 . S
C1564 C1558 1.368 . S
C1564 C1563 1.523 . S
C1565 C1549 1.429 . S
C1565 C1561 1.429 . S
C1565 C1566 1.523 . S
C1566 C1550 1.368 . S
C1566 C1562 1.356 1_655 S
C1566 C1565 1.523 . S
H1567 C1542 0.950 . S
H1568 C1544 0.950 . S
H1569 C1545 0.949 . S
H1570 C1547 0.950 . S
H1571 C1549 0.950 . S
C1572 C1573 1.349 . S
C1572 C1574 1.327 . S
C1572 H1597 0.950 . S
C1573 C1572 1.349 . S
C1573 C1589 1.349 . S
C1574 C1572 1.327 . S
C1574 C1593 1.429 . S
C1574 H1598 0.950 . S
C1575 C1592 1.574 . S
C1575 C1594 1.368 . S
C1575 H1599 0.949 . S
H1576 C1580 0.949 . S
C1577 C1578 1.349 . S
C1577 C1579 1.327 . S
C1577 H1600 0.950 . S
C1578 C1577 1.349 . S
C1578 C1590 1.349 . S
C1579 C1577 1.327 . S
C1579 C1595 1.429 . S
C1579 H1601 0.950 . S
C1580 H1576 0.949 . S
C1580 C1588 1.574 . S
C1580 C1596 1.368 . S
H1581 C1589 0.950 . S
H1582 C1587 0.950 . S
H1583 C1588 0.949 . S
H1584 C1590 0.950 . S
H1585 C1591 0.950 . S
H1586 C1592 0.949 . S
C1587 H1582 0.950 . S
C1587 C1589 1.327 . S
C1587 C1593 1.429 . S
C1588 C1580 1.574 . S
C1588 H1583 0.949 . S
C1588 C1594 1.368 . S
C1589 C1573 1.349 . S
C1589 H1581 0.950 . S
C1589 C1587 1.327 . S
C1590 C1578 1.349 . S
C1590 H1584 0.950 . S
C1590 C1591 1.327 . S
C1591 H1585 0.950 . S
C1591 C1590 1.327 . S
C1591 C1595 1.429 . S
C1592 C1575 1.574 . S
C1592 H1586 0.949 . S
C1592 C1596 1.368 . S
C1593 C1574 1.429 . S
C1593 C1587 1.429 . S
C1593 C1594 1.523 . S
C1594 C1575 1.368 . S
C1594 C1588 1.368 . S
C1594 C1593 1.523 . S
C1595 C1579 1.429 . S
C1595 C1591 1.429 . S
C1595 C1596 1.523 . S
C1596 C1580 1.368 . S
C1596 C1592 1.368 . S
C1596 C1595 1.523 . S
H1597 C1572 0.950 . S
H1598 C1574 0.950 . S
H1599 C1575 0.949 . S
H1600 C1577 0.950 . S
H1601 C1579 0.950 . S
C1602 C1603 1.349 . S
C1602 C1604 1.327 . S
C1602 H1627 0.950 . S
C1603 C1602 1.349 . S
C1603 C1619 1.349 . S
C1604 C1602 1.327 . S
C1604 C1623 1.429 1_455 S
C1604 H1628 0.950 1_455 S
C1605 C1622 1.574 . S
C1605 C1624 1.368 . S
C1605 H1629 0.949 . S
H1606 C1610 0.949 . S
C1607 C1608 1.349 . S
C1607 C1609 1.327 . S
C1607 H1630 0.950 . S
C1608 C1607 1.349 . S
C1608 C1620 1.349 . S
C1609 C1607 1.327 . S
C1609 C1625 1.429 . S
C1609 H1631 0.950 . S
C1610 H1606 0.949 . S
C1610 C1618 1.574 . S
C1610 C1626 1.368 . S
H1611 C1619 0.950 . S
H1612 C1617 0.951 . S
H1613 C1618 0.949 . S
H1614 C1620 0.950 . S
H1615 C1621 0.950 . S
H1616 C1622 0.949 . S
C1617 H1612 0.951 . S
C1617 C1619 1.288 1_655 S
C1617 C1623 1.469 . S
C1618 C1610 1.574 . S
C1618 H1613 0.949 . S
C1618 C1624 1.368 . S
C1619 C1603 1.349 . S
C1619 H1611 0.950 . S
C1619 C1617 1.288 1_455 S
C1620 C1608 1.349 . S
C1620 H1614 0.950 . S
C1620 C1621 1.327 . S
C1621 H1615 0.950 . S
C1621 C1620 1.327 . S
C1621 C1625 1.429 . S
C1622 C1605 1.574 . S
C1622 H1616 0.949 . S
C1622 C1626 1.368 . S
C1623 C1604 1.429 1_655 S
C1623 C1617 1.469 . S
C1623 C1624 1.523 . S
C1624 C1605 1.368 . S
C1624 C1618 1.368 . S
C1624 C1623 1.523 . S
C1625 C1609 1.429 . S
C1625 C1621 1.429 . S
C1625 C1626 1.523 . S
C1626 C1610 1.368 . S
C1626 C1622 1.368 . S
C1626 C1625 1.523 . S
H1627 C1602 0.950 . S
H1628 C1604 0.950 1_655 S
H1629 C1605 0.949 . S
H1630 C1607 0.950 . S
H1631 C1609 0.950 . S
C1632 C1633 1.349 . S
C1632 C1634 1.327 . S
C1632 H1657 0.950 . S
C1633 C1632 1.349 . S
C1633 C1649 1.349 . S
C1634 C1632 1.327 . S
C1634 C1653 1.429 . S
C1634 H1658 0.950 . S
C1635 C1652 1.574 . S
C1635 C1654 1.368 . S
C1635 H1659 0.949 . S
H1636 C1640 0.949 . S
C1637 C1638 1.349 . S
C1637 C1639 1.327 . S
C1637 H1660 0.950 . S
C1638 C1637 1.349 . S
C1638 C1650 1.349 . S
C1639 C1637 1.327 . S
C1639 C1655 1.429 . S
C1639 H1661 0.950 . S
C1640 H1636 0.949 . S
C1640 C1648 1.574 . S
C1640 C1656 1.368 . S
H1641 C1649 0.950 . S
H1642 C1647 0.950 . S
H1643 C1648 0.949 . S
H1644 C1650 0.950 . S
H1645 C1651 0.950 . S
H1646 C1652 0.949 . S
C1647 H1642 0.950 . S
C1647 C1649 1.327 . S
C1647 C1653 1.429 . S
C1648 C1640 1.574 . S
C1648 H1643 0.949 . S
C1648 C1654 1.368 . S
C1649 C1633 1.349 . S
C1649 H1641 0.950 . S
C1649 C1647 1.327 . S
C1650 C1638 1.349 . S
C1650 H1644 0.950 . S
C1650 C1651 1.327 . S
C1651 H1645 0.950 . S
C1651 C1650 1.327 . S
C1651 C1655 1.429 . S
C1652 C1635 1.574 . S
C1652 H1646 0.949 . S
C1652 C1656 1.368 . S
C1653 C1634 1.429 . S
C1653 C1647 1.429 . S
C1653 C1654 1.523 . S
C1654 C1635 1.368 . S
C1654 C1648 1.368 . S
C1654 C1653 1.523 . S
C1655 C1639 1.429 . S
C1655 C1651 1.429 . S
C1655 C1656 1.523 . S
C1656 C1640 1.368 . S
C1656 C1652 1.368 . S
C1656 C1655 1.523 . S
H1657 C1632 0.950 . S
H1658 C1634 0.950 . S
H1659 C1635 0.949 . S
H1660 C1637 0.950 . S
H1661 C1639 0.950 . S
C1662 C1663 1.349 . S
C1662 C1664 1.327 1_565 S
C1662 H1687 0.950 . S
C1663 C1662 1.349 . S
C1663 C1679 1.349 . S
C1664 C1662 1.327 1_545 S
C1664 C1683 1.429 . S
C1664 H1688 0.950 . S
C1665 C1682 1.574 . S
C1665 C1684 1.368 . S
C1665 H1689 0.949 . S
H1666 C1670 0.949 . S
C1667 C1668 1.349 . S
C1667 C1669 1.327 . S
C1667 H1690 0.950 . S
C1668 C1667 1.349 . S
C1668 C1680 1.349 . S
C1669 C1667 1.327 . S
C1669 C1685 1.429 . S
C1669 H1691 0.950 . S
C1670 H1666 0.949 . S
C1670 C1678 1.574 . S
C1670 C1686 1.368 . S
H1671 C1679 0.950 . S
H1672 C1677 0.950 . S
H1673 C1678 0.949 . S
H1674 C1680 0.950 . S
H1675 C1681 0.950 . S
H1676 C1682 0.949 . S
C1677 H1672 0.950 . S
C1677 C1679 1.327 1_545 S
C1677 C1683 1.429 . S
C1678 C1670 1.574 . S
C1678 H1673 0.949 . S
C1678 C1684 1.368 . S
C1679 C1663 1.349 . S
C1679 H1671 0.950 . S
C1679 C1677 1.327 1_565 S
C1680 C1668 1.349 . S
C1680 H1674 0.950 . S
C1680 C1681 1.327 . S
C1681 H1675 0.950 . S
C1681 C1680 1.327 . S
C1681 C1685 1.429 . S
C1682 C1665 1.574 . S
C1682 H1676 0.949 . S
C1682 C1686 1.368 . S
C1683 C1664 1.429 . S
C1683 C1677 1.429 . S
C1683 C1684 1.523 . S
C1684 C1665 1.368 . S
C1684 C1678 1.368 . S
C1684 C1683 1.523 . S
C1685 C1669 1.429 . S
C1685 C1681 1.429 . S
C1685 C1686 1.523 . S
C1686 C1670 1.368 . S
C1686 C1682 1.368 . S
C1686 C1685 1.523 . S
H1687 C1662 0.950 . S
H1688 C1664 0.950 . S
H1689 C1665 0.949 . S
H1690 C1667 0.950 . S
H1691 C1669 0.950 . S
C1692 C1693 1.349 . S
C1692 C1694 1.327 . S
C1692 H1717 0.950 . S
C1693 C1692 1.349 . S
C1693 C1709 1.349 . S
C1694 C1692 1.327 . S
C1694 C1713 1.429 . S
C1694 H1718 0.950 . S
C1695 C1712 1.574 . S
C1695 C1714 1.368 . S
C1695 H1719 0.949 . S
H1696 C1700 0.949 . S
C1697 C1698 1.349 . S
C1697 C1699 1.327 . S
C1697 H1720 0.950 . S
C1698 C1697 1.349 . S
C1698 C1710 1.349 . S
C1699 C1697 1.327 . S
C1699 C1715 1.429 . S
C1699 H1721 0.950 . S
C1700 H1696 0.949 . S
C1700 C1708 1.574 . S
C1700 C1716 1.368 . S
H1701 C1709 0.950 . S
H1702 C1707 0.950 . S
H1703 C1708 0.949 . S
H1704 C1710 0.950 . S
H1705 C1711 0.950 . S
H1706 C1712 0.949 . S
C1707 H1702 0.950 . S
C1707 C1709 1.327 . S
C1707 C1713 1.429 . S
C1708 C1700 1.574 . S
C1708 H1703 0.949 . S
C1708 C1714 1.368 . S
C1709 C1693 1.349 . S
C1709 H1701 0.950 . S
C1709 C1707 1.327 . S
C1710 C1698 1.349 . S
C1710 H1704 0.950 . S
C1710 C1711 1.327 . S
C1711 H1705 0.950 . S
C1711 C1710 1.327 . S
C1711 C1715 1.429 . S
C1712 C1695 1.574 . S
C1712 H1706 0.949 . S
C1712 C1716 1.368 . S
C1713 C1694 1.429 . S
C1713 C1707 1.429 . S
C1713 C1714 1.523 . S
C1714 C1695 1.368 . S
C1714 C1708 1.368 . S
C1714 C1713 1.523 . S
C1715 C1699 1.429 . S
C1715 C1711 1.429 . S
C1715 C1716 1.523 . S
C1716 C1700 1.368 . S
C1716 C1712 1.368 . S
C1716 C1715 1.523 . S
H1717 C1692 0.950 . S
H1718 C1694 0.950 . S
H1719 C1695 0.949 . S
H1720 C1697 0.950 . S
H1721 C1699 0.950 . S
C1722 C1723 1.349 . S
C1722 C1724 1.327 . S
C1722 H1747 0.950 . S
C1723 C1722 1.349 . S
C1723 C1739 1.349 . S
C1724 C1722 1.327 . S
C1724 C1743 1.429 . S
C1724 H1748 0.950 . S
C1725 C1742 1.574 . S
C1725 C1744 1.368 . S
C1725 H1749 0.949 . S
H1726 C1730 0.949 . S
C1727 C1728 1.349 . S
C1727 C1729 1.327 . S
C1727 H1750 0.950 . S
C1728 C1727 1.349 . S
C1728 C1740 1.349 . S
C1729 C1727 1.327 . S
C1729 C1745 1.429 . S
C1729 H1751 0.950 . S
C1730 H1726 0.949 . S
C1730 C1738 1.574 . S
C1730 C1746 1.368 . S
H1731 C1739 0.950 . S
H1732 C1737 0.950 . S
H1733 C1738 0.949 . S
H1734 C1740 0.950 . S
H1735 C1741 0.950 . S
H1736 C1742 0.949 . S
C1737 H1732 0.950 . S
C1737 C1739 1.327 . S
C1737 C1743 1.429 . S
C1738 C1730 1.574 . S
C1738 H1733 0.949 . S
C1738 C1744 1.368 . S
C1739 C1723 1.349 . S
C1739 H1731 0.950 . S
C1739 C1737 1.327 . S
C1740 C1728 1.349 . S
C1740 H1734 0.950 . S
C1740 C1741 1.327 . S
C1741 H1735 0.950 . S
C1741 C1740 1.327 . S
C1741 C1745 1.429 . S
C1742 C1725 1.574 . S
C1742 H1736 0.949 . S
C1742 C1746 1.368 . S
C1743 C1724 1.429 . S
C1743 C1737 1.429 . S
C1743 C1744 1.523 . S
C1744 C1725 1.368 . S
C1744 C1738 1.368 . S
C1744 C1743 1.523 . S
C1745 C1729 1.429 . S
C1745 C1741 1.429 . S
C1745 C1746 1.523 . S
C1746 C1730 1.368 . S
C1746 C1742 1.368 . S
C1746 C1745 1.523 . S
H1747 C1722 0.950 . S
H1748 C1724 0.950 . S
H1749 C1725 0.949 . S
H1750 C1727 0.950 . S
H1751 C1729 0.950 . S
C1752 C1753 1.349 . S
C1752 C1754 1.327 . S
C1752 H1777 0.950 . S
C1753 C1752 1.349 . S
C1753 C1769 1.349 . S
C1754 C1752 1.327 . S
C1754 C1773 1.429 . S
C1754 H1778 0.950 . S
C1755 C1772 1.574 . S
C1755 C1774 1.368 . S
C1755 H1779 0.949 . S
H1756 C1760 0.949 . S
C1757 C1758 1.349 . S
C1757 C1759 1.327 . S
C1757 H1780 0.950 . S
C1758 C1757 1.349 . S
C1758 C1770 1.349 . S
C1759 C1757 1.327 . S
C1759 C1775 1.429 . S
C1759 H1781 0.950 . S
C1760 H1756 0.949 . S
C1760 C1768 1.574 . S
C1760 C1776 1.368 . S
H1761 C1769 0.950 . S
H1762 C1767 0.950 . S
H1763 C1768 0.949 . S
H1764 C1770 0.950 . S
H1765 C1771 0.950 . S
H1766 C1772 0.949 . S
C1767 H1762 0.950 . S
C1767 C1769 1.327 . S
C1767 C1773 1.429 . S
C1768 C1760 1.574 . S
C1768 H1763 0.949 . S
C1768 C1774 1.368 . S
C1769 C1753 1.349 . S
C1769 H1761 0.950 . S
C1769 C1767 1.327 . S
C1770 C1758 1.349 . S
C1770 H1764 0.950 . S
C1770 C1771 1.327 . S
C1771 H1765 0.950 . S
C1771 C1770 1.327 . S
C1771 C1775 1.429 . S
C1772 C1755 1.574 . S
C1772 H1766 0.949 . S
C1772 C1776 1.368 . S
C1773 C1754 1.429 . S
C1773 C1767 1.429 . S
C1773 C1774 1.523 . S
C1774 C1755 1.368 . S
C1774 C1768 1.368 . S
C1774 C1773 1.523 . S
C1775 C1759 1.429 . S
C1775 C1771 1.429 . S
C1775 C1776 1.523 . S
C1776 C1760 1.368 . S
C1776 C1772 1.368 . S
C1776 C1775 1.523 . S
H1777 C1752 0.950 . S
H1778 C1754 0.950 . S
H1779 C1755 0.949 . S
H1780 C1757 0.950 . S
H1781 C1759 0.950 . S
C1782 C1783 1.349 . S
C1782 C1784 1.327 . S
C1782 H1807 0.950 . S
C1783 C1782 1.349 . S
C1783 C1799 1.349 . S
C1784 C1782 1.327 . S
C1784 C1803 1.429 . S
C1784 H1808 0.950 . S
C1785 C1802 1.574 . S
C1785 C1804 1.368 . S
C1785 H1809 0.949 . S
H1786 C1790 0.949 . S
C1787 C1788 1.349 . S
C1787 C1789 1.327 . S
C1787 H1810 0.950 . S
C1788 C1787 1.349 . S
C1788 C1800 1.349 . S
C1789 C1787 1.327 . S
C1789 C1805 1.429 . S
C1789 H1811 0.950 . S
C1790 H1786 0.949 . S
C1790 C1798 1.574 . S
C1790 C1806 1.368 . S
H1791 C1799 0.950 . S
H1792 C1797 0.950 . S
H1793 C1798 0.949 . S
H1794 C1800 0.950 . S
H1795 C1801 0.950 . S
H1796 C1802 0.949 . S
C1797 H1792 0.950 . S
C1797 C1799 1.327 . S
C1797 C1803 1.429 . S
C1798 C1790 1.574 . S
C1798 H1793 0.949 . S
C1798 C1804 1.368 . S
C1799 C1783 1.349 . S
C1799 H1791 0.950 . S
C1799 C1797 1.327 . S
C1800 C1788 1.349 . S
C1800 H1794 0.950 . S
C1800 C1801 1.327 . S
C1801 H1795 0.950 . S
C1801 C1800 1.327 . S
C1801 C1805 1.429 . S
C1802 C1785 1.574 . S
C1802 H1796 0.949 . S
C1802 C1806 1.368 . S
C1803 C1784 1.429 . S
C1803 C1797 1.429 . S
C1803 C1804 1.523 . S
C1804 C1785 1.368 . S
C1804 C1798 1.368 . S
C1804 C1803 1.523 . S
C1805 C1789 1.429 . S
C1805 C1801 1.429 . S
C1805 C1806 1.523 . S
C1806 C1790 1.368 . S
C1806 C1802 1.368 . S
C1806 C1805 1.523 . S
H1807 C1782 0.950 . S
H1808 C1784 0.950 . S
H1809 C1785 0.949 . S
H1810 C1787 0.950 . S
H1811 C1789 0.950 . S
C1812 C1813 1.349 . S
C1812 C1814 1.327 . S
C1812 H1837 0.950 . S
C1813 C1812 1.349 . S
C1813 C1829 1.349 . S
C1814 C1812 1.327 . S
C1814 C1833 1.429 . S
C1814 H1838 0.950 . S
C1815 C1832 1.574 . S
C1815 C1834 1.368 . S
C1815 H1839 0.949 . S
H1816 C1820 0.949 . S
C1817 C1818 1.349 . S
C1817 C1819 1.327 . S
C1817 H1840 0.950 . S
C1818 C1817 1.349 . S
C1818 C1830 1.349 . S
C1819 C1817 1.327 . S
C1819 C1835 1.429 . S
C1819 H1841 0.950 . S
C1820 H1816 0.949 . S
C1820 C1828 1.574 . S
C1820 C1836 1.368 . S
H1821 C1829 0.950 . S
H1822 C1827 0.950 . S
H1823 C1828 0.949 . S
H1824 C1830 0.950 . S
H1825 C1831 0.950 . S
H1826 C1832 0.949 . S
C1827 H1822 0.950 . S
C1827 C1829 1.327 . S
C1827 C1833 1.429 . S
C1828 C1820 1.574 . S
C1828 H1823 0.949 . S
C1828 C1834 1.368 . S
C1829 C1813 1.349 . S
C1829 H1821 0.950 . S
C1829 C1827 1.327 . S
C1830 C1818 1.349 . S
C1830 H1824 0.950 . S
C1830 C1831 1.327 . S
C1831 H1825 0.950 . S
C1831 C1830 1.327 . S
C1831 C1835 1.429 . S
C1832 C1815 1.574 . S
C1832 H1826 0.949 . S
C1832 C1836 1.368 . S
C1833 C1814 1.429 . S
C1833 C1827 1.429 . S
C1833 C1834 1.523 . S
C1834 C1815 1.368 . S
C1834 C1828 1.368 . S
C1834 C1833 1.523 . S
C1835 C1819 1.429 . S
C1835 C1831 1.429 . S
C1835 C1836 1.523 . S
C1836 C1820 1.368 . S
C1836 C1832 1.368 . S
C1836 C1835 1.523 . S
H1837 C1812 0.950 . S
H1838 C1814 0.950 . S
H1839 C1815 0.949 . S
H1840 C1817 0.950 . S
H1841 C1819 0.950 . S
C1842 C1843 1.349 . S
C1842 C1844 1.327 . S
C1842 H1867 0.950 . S
C1843 C1842 1.349 . S
C1843 C1859 1.349 . S
C1844 C1842 1.327 . S
C1844 C1863 1.429 . S
C1844 H1868 0.950 . S
C1845 C1862 1.574 . S
C1845 C1864 1.368 . S
C1845 H1869 0.949 . S
H1846 C1850 0.949 . S
C1847 C1848 1.349 . S
C1847 C1849 1.327 . S
C1847 H1870 0.950 . S
C1848 C1847 1.349 . S
C1848 C1860 1.349 . S
C1849 C1847 1.327 . S
C1849 C1865 1.429 . S
C1849 H1871 0.950 . S
C1850 H1846 0.949 . S
C1850 C1858 1.574 . S
C1850 C1866 1.368 . S
H1851 C1859 0.950 . S
H1852 C1857 0.950 . S
H1853 C1858 0.949 . S
H1854 C1860 0.950 . S
H1855 C1861 0.950 . S
H1856 C1862 0.949 . S
C1857 H1852 0.950 . S
C1857 C1859 1.327 . S
C1857 C1863 1.429 . S
C1858 C1850 1.574 . S
C1858 H1853 0.949 . S
C1858 C1864 1.368 . S
C1859 C1843 1.349 . S
C1859 H1851 0.950 . S
C1859 C1857 1.327 . S
C1860 C1848 1.349 . S
C1860 H1854 0.950 . S
C1860 C1861 1.327 . S
C1861 H1855 0.950 . S
C1861 C1860 1.327 . S
C1861 C1865 1.429 . S
C1862 C1845 1.574 . S
C1862 H1856 0.949 . S
C1862 C1866 1.368 . S
C1863 C1844 1.429 . S
C1863 C1857 1.429 . S
C1863 C1864 1.523 . S
C1864 C1845 1.368 . S
C1864 C1858 1.368 . S
C1864 C1863 1.523 . S
C1865 C1849 1.429 . S
C1865 C1861 1.429 . S
C1865 C1866 1.523 . S
C1866 C1850 1.368 . S
C1866 C1862 1.368 . S
C1866 C1865 1.523 . S
H1867 C1842 0.950 . S
H1868 C1844 0.950 . S
H1869 C1845 0.949 . S
H1870 C1847 0.950 . S
H1871 C1849 0.950 . S
C1872 C1873 1.349 . S
C1872 C1874 1.327 . S
C1872 H1897 0.950 . S
C1873 C1872 1.349 . S
C1873 C1889 1.349 . S
C1874 C1872 1.327 . S
C1874 C1893 1.429 . S
C1874 H1898 0.950 . S
C1875 C1892 1.574 . S
C1875 C1894 1.368 . S
C1875 H1899 0.949 . S
H1876 C1880 0.949 . S
C1877 C1878 1.349 . S
C1877 C1879 1.327 . S
C1877 H1900 0.950 . S
C1878 C1877 1.349 . S
C1878 C1890 1.349 . S
C1879 C1877 1.327 . S
C1879 C1895 1.429 . S
C1879 H1901 0.950 . S
C1880 H1876 0.949 . S
C1880 C1888 1.574 . S
C1880 C1896 1.368 . S
H1881 C1889 0.950 . S
H1882 C1887 0.950 . S
H1883 C1888 0.949 . S
H1884 C1890 0.950 . S
H1885 C1891 0.950 . S
H1886 C1892 0.949 . S
C1887 H1882 0.950 . S
C1887 C1889 1.327 . S
C1887 C1893 1.429 . S
C1888 C1880 1.574 . S
C1888 H1883 0.949 . S
C1888 C1894 1.368 . S
C1889 C1873 1.349 . S
C1889 H1881 0.950 . S
C1889 C1887 1.327 . S
C1890 C1878 1.349 . S
C1890 H1884 0.950 . S
C1890 C1891 1.327 . S
C1891 H1885 0.950 . S
C1891 C1890 1.327 . S
C1891 C1895 1.429 . S
C1892 C1875 1.574 . S
C1892 H1886 0.949 . S
C1892 C1896 1.368 . S
C1893 C1874 1.429 . S
C1893 C1887 1.429 . S
C1893 C1894 1.523 . S
C1894 C1875 1.368 . S
C1894 C1888 1.368 . S
C1894 C1893 1.523 . S
C1895 C1879 1.429 . S
C1895 C1891 1.429 . S
C1895 C1896 1.523 . S
C1896 C1880 1.368 . S
C1896 C1892 1.368 . S
C1896 C1895 1.523 . S
H1897 C1872 0.950 . S
H1898 C1874 0.950 . S
H1899 C1875 0.949 . S
H1900 C1877 0.950 . S
H1901 C1879 0.950 . S
C1902 C1903 1.349 . S
C1902 C1904 1.327 . S
C1902 H1927 0.950 . S
C1903 C1902 1.349 . S
C1903 C1919 1.349 . S
C1904 C1902 1.327 . S
C1904 C1923 1.429 . S
C1904 H1928 0.950 . S
C1905 C1922 1.574 . S
C1905 C1924 1.368 . S
C1905 H1929 0.949 . S
H1906 C1910 0.949 . S
C1907 C1908 1.349 . S
C1907 C1909 1.327 . S
C1907 H1930 0.950 . S
C1908 C1907 1.349 . S
C1908 C1920 1.349 . S
C1909 C1907 1.327 . S
C1909 C1925 1.429 . S
C1909 H1931 0.950 . S
C1910 H1906 0.949 . S
C1910 C1918 1.574 . S
C1910 C1926 1.368 . S
H1911 C1919 0.950 . S
H1912 C1917 0.950 . S
H1913 C1918 0.949 . S
H1914 C1920 0.950 . S
H1915 C1921 0.950 . S
H1916 C1922 0.949 . S
C1917 H1912 0.950 . S
C1917 C1919 1.327 . S
C1917 C1923 1.429 . S
C1918 C1910 1.574 . S
C1918 H1913 0.949 . S
C1918 C1924 1.368 . S
C1919 C1903 1.349 . S
C1919 H1911 0.950 . S
C1919 C1917 1.327 . S
C1920 C1908 1.349 . S
C1920 H1914 0.950 . S
C1920 C1921 1.327 . S
C1921 H1915 0.950 . S
C1921 C1920 1.327 . S
C1921 C1925 1.429 . S
C1922 C1905 1.574 . S
C1922 H1916 0.949 . S
C1922 C1926 1.368 . S
C1923 C1904 1.429 . S
C1923 C1917 1.429 . S
C1923 C1924 1.523 . S
C1924 C1905 1.368 . S
C1924 C1918 1.368 . S
C1924 C1923 1.523 . S
C1925 C1909 1.429 . S
C1925 C1921 1.429 . S
C1925 C1926 1.523 . S
C1926 C1910 1.368 . S
C1926 C1922 1.368 . S
C1926 C1925 1.523 . S
H1927 C1902 0.950 . S
H1928 C1904 0.950 . S
H1929 C1905 0.949 . S
H1930 C1907 0.950 . S
H1931 C1909 0.950 . S
C1932 C1933 1.349 . S
C1932 C1934 1.327 . S
C1932 H1957 0.950 . S
C1933 C1932 1.349 . S
C1933 C1949 1.349 . S
C1934 C1932 1.327 . S
C1934 C1953 1.429 . S
C1934 H1958 0.950 . S
C1935 C1952 1.574 . S
C1935 C1954 1.368 . S
C1935 H1959 0.949 . S
H1936 C1940 0.949 . S
C1937 C1938 1.349 . S
C1937 C1939 1.327 . S
C1937 H1960 0.950 . S
C1938 C1937 1.349 . S
C1938 C1950 1.349 . S
C1939 C1937 1.327 . S
C1939 C1955 1.429 . S
C1939 H1961 0.950 . S
C1940 H1936 0.949 . S
C1940 C1948 1.574 . S
C1940 C1956 1.368 . S
H1941 C1949 0.950 . S
H1942 C1947 0.950 . S
H1943 C1948 0.949 . S
H1944 C1950 0.950 . S
H1945 C1951 0.950 . S
H1946 C1952 0.949 . S
C1947 H1942 0.950 . S
C1947 C1949 1.327 . S
C1947 C1953 1.429 . S
C1948 C1940 1.574 . S
C1948 H1943 0.949 . S
C1948 C1954 1.368 . S
C1949 C1933 1.349 . S
C1949 H1941 0.950 . S
C1949 C1947 1.327 . S
C1950 C1938 1.349 . S
C1950 H1944 0.950 . S
C1950 C1951 1.327 . S
C1951 H1945 0.950 . S
C1951 C1950 1.327 . S
C1951 C1955 1.429 . S
C1952 C1935 1.574 . S
C1952 H1946 0.949 . S
C1952 C1956 1.368 . S
C1953 C1934 1.429 . S
C1953 C1947 1.429 . S
C1953 C1954 1.523 . S
C1954 C1935 1.368 . S
C1954 C1948 1.368 . S
C1954 C1953 1.523 . S
C1955 C1939 1.429 . S
C1955 C1951 1.429 . S
C1955 C1956 1.523 . S
C1956 C1940 1.368 . S
C1956 C1952 1.368 . S
C1956 C1955 1.523 . S
H1957 C1932 0.950 . S
H1958 C1934 0.950 . S
H1959 C1935 0.949 . S
H1960 C1937 0.950 . S
H1961 C1939 0.950 . S
C1962 C1963 1.349 . S
C1962 C1964 1.327 . S
C1962 H1987 0.950 . S
C1963 C1962 1.349 . S
C1963 C1979 1.349 . S
C1964 C1962 1.327 . S
C1964 C1983 1.429 . S
C1964 H1988 0.950 . S
C1965 C1982 1.574 . S
C1965 C1984 1.368 . S
C1965 H1989 0.949 . S
H1966 C1970 0.949 . S
C1967 C1968 1.349 . S
C1967 C1969 1.327 . S
C1967 H1990 0.950 . S
C1968 C1967 1.349 . S
C1968 C1980 1.349 . S
C1969 C1967 1.327 . S
C1969 C1985 1.429 . S
C1969 H1991 0.950 . S
C1970 H1966 0.949 . S
C1970 C1978 1.574 . S
C1970 C1986 1.368 . S
H1971 C1979 0.950 . S
H1972 C1977 0.950 . S
H1973 C1978 0.949 . S
H1974 C1980 0.950 . S
H1975 C1981 0.950 . S
H1976 C1982 0.949 . S
C1977 H1972 0.950 . S
C1977 C1979 1.327 . S
C1977 C1983 1.429 . S
C1978 C1970 1.574 . S
C1978 H1973 0.949 . S
C1978 C1984 1.368 . S
C1979 C1963 1.349 . S
C1979 H1971 0.950 . S
C1979 C1977 1.327 . S
C1980 C1968 1.349 . S
C1980 H1974 0.950 . S
C1980 C1981 1.327 . S
C1981 H1975 0.950 . S
C1981 C1980 1.327 . S
C1981 C1985 1.429 . S
C1982 C1965 1.574 . S
C1982 H1976 0.949 . S
C1982 C1986 1.368 . S
C1983 C1964 1.429 . S
C1983 C1977 1.429 . S
C1983 C1984 1.523 . S
C1984 C1965 1.368 . S
C1984 C1978 1.368 . S
C1984 C1983 1.523 . S
C1985 C1969 1.429 . S
C1985 C1981 1.429 . S
C1985 C1986 1.523 . S
C1986 C1970 1.368 . S
C1986 C1982 1.368 . S
C1986 C1985 1.523 . S
H1987 C1962 0.950 . S
H1988 C1964 0.950 . S
H1989 C1965 0.949 . S
H1990 C1967 0.950 . S
H1991 C1969 0.950 . S
C1992 C1993 1.349 . S
C1992 C1994 1.327 . S
C1992 H2017 0.950 . S
C1993 C1992 1.349 . S
C1993 C2009 1.349 . S
C1994 C1992 1.327 . S
C1994 C2013 1.429 . S
C1994 H2018 0.950 . S
C1995 C2012 1.574 . S
C1995 C2014 1.368 . S
C1995 H2019 0.949 . S
H1996 C2000 0.949 . S
C1997 C1998 1.349 . S
C1997 C1999 1.327 . S
C1997 H2020 0.950 . S
C1998 C1997 1.349 . S
C1998 C2010 1.349 . S
C1999 C1997 1.327 . S
C1999 C2015 1.429 . S
C1999 H2021 0.950 . S
C2000 H1996 0.949 . S
C2000 C2008 1.574 . S
C2000 C2016 1.368 . S
H2001 C2009 0.950 . S
H2002 C2007 0.950 . S
H2003 C2008 0.949 . S
H2004 C2010 0.950 . S
H2005 C2011 0.950 . S
H2006 C2012 0.949 . S
C2007 H2002 0.950 . S
C2007 C2009 1.327 . S
C2007 C2013 1.429 . S
C2008 C2000 1.574 . S
C2008 H2003 0.949 . S
C2008 C2014 1.368 . S
C2009 C1993 1.349 . S
C2009 H2001 0.950 . S
C2009 C2007 1.327 . S
C2010 C1998 1.349 . S
C2010 H2004 0.950 . S
C2010 C2011 1.327 . S
C2011 H2005 0.950 . S
C2011 C2010 1.327 . S
C2011 C2015 1.429 . S
C2012 C1995 1.574 . S
C2012 H2006 0.949 . S
C2012 C2016 1.368 . S
C2013 C1994 1.429 . S
C2013 C2007 1.429 . S
C2013 C2014 1.523 . S
C2014 C1995 1.368 . S
C2014 C2008 1.368 . S
C2014 C2013 1.523 . S
C2015 C1999 1.429 . S
C2015 C2011 1.429 . S
C2015 C2016 1.523 . S
C2016 C2000 1.368 . S
C2016 C2012 1.368 . S
C2016 C2015 1.523 . S
H2017 C1992 0.950 . S
H2018 C1994 0.950 . S
H2019 C1995 0.949 . S
H2020 C1997 0.950 . S
H2021 C1999 0.950 . S
C2022 C2023 1.349 . S
C2022 C2024 1.327 . S
C2022 H2047 0.950 . S
C2023 C2022 1.349 . S
C2023 C2039 1.349 . S
C2024 C2022 1.327 . S
C2024 C2043 1.429 . S
C2024 H2048 0.950 . S
C2025 C2042 1.574 . S
C2025 C2044 1.368 . S
C2025 H2049 0.949 . S
H2026 C2030 0.949 . S
C2027 C2028 1.349 . S
C2027 C2029 1.327 . S
C2027 H2050 0.950 . S
C2028 C2027 1.349 . S
C2028 C2040 1.349 . S
C2029 C2027 1.327 . S
C2029 C2045 1.429 . S
C2029 H2051 0.950 . S
C2030 H2026 0.949 . S
C2030 C2038 1.574 . S
C2030 C2046 1.368 . S
H2031 C2039 0.950 . S
H2032 C2037 0.950 . S
H2033 C2038 0.949 . S
H2034 C2040 0.950 . S
H2035 C2041 0.950 . S
H2036 C2042 0.949 . S
C2037 H2032 0.950 . S
C2037 C2039 1.327 . S
C2037 C2043 1.429 . S
C2038 C2030 1.574 . S
C2038 H2033 0.949 . S
C2038 C2044 1.368 . S
C2039 C2023 1.349 . S
C2039 H2031 0.950 . S
C2039 C2037 1.327 . S
C2040 C2028 1.349 . S
C2040 H2034 0.950 . S
C2040 C2041 1.327 . S
C2041 H2035 0.950 . S
C2041 C2040 1.327 . S
C2041 C2045 1.429 . S
C2042 C2025 1.574 . S
C2042 H2036 0.949 . S
C2042 C2046 1.368 . S
C2043 C2024 1.429 . S
C2043 C2037 1.429 . S
C2043 C2044 1.523 . S
C2044 C2025 1.368 . S
C2044 C2038 1.368 . S
C2044 C2043 1.523 . S
C2045 C2029 1.429 . S
C2045 C2041 1.429 . S
C2045 C2046 1.523 . S
C2046 C2030 1.368 . S
C2046 C2042 1.368 . S
C2046 C2045 1.523 . S
H2047 C2022 0.950 . S
H2048 C2024 0.950 . S
H2049 C2025 0.949 . S
H2050 C2027 0.950 . S
H2051 C2029 0.950 . S
C2052 C2053 1.349 . S
C2052 C2054 1.327 . S
C2052 H2077 0.950 . S
C2053 C2052 1.349 . S
C2053 C2069 1.349 . S
C2054 C2052 1.327 . S
C2054 C2073 1.429 . S
C2054 H2078 0.950 . S
C2055 C2072 1.574 . S
C2055 C2074 1.368 . S
C2055 H2079 0.949 . S
H2056 C2060 0.949 . S
C2057 C2058 1.349 . S
C2057 C2059 1.327 . S
C2057 H2080 0.950 . S
C2058 C2057 1.349 . S
C2058 C2070 1.349 . S
C2059 C2057 1.327 . S
C2059 C2075 1.429 . S
C2059 H2081 0.950 . S
C2060 H2056 0.949 . S
C2060 C2068 1.574 . S
C2060 C2076 1.368 . S
H2061 C2069 0.950 . S
H2062 C2067 0.950 . S
H2063 C2068 0.949 . S
H2064 C2070 0.950 . S
H2065 C2071 0.950 . S
H2066 C2072 0.949 . S
C2067 H2062 0.950 . S
C2067 C2069 1.327 . S
C2067 C2073 1.429 . S
C2068 C2060 1.574 . S
C2068 H2063 0.949 . S
C2068 C2074 1.368 . S
C2069 C2053 1.349 . S
C2069 H2061 0.950 . S
C2069 C2067 1.327 . S
C2070 C2058 1.349 . S
C2070 H2064 0.950 . S
C2070 C2071 1.327 . S
C2071 H2065 0.950 . S
C2071 C2070 1.327 . S
C2071 C2075 1.429 . S
C2072 C2055 1.574 . S
C2072 H2066 0.949 . S
C2072 C2076 1.368 . S
C2073 C2054 1.429 . S
C2073 C2067 1.429 . S
C2073 C2074 1.523 . S
C2074 C2055 1.368 . S
C2074 C2068 1.368 . S
C2074 C2073 1.523 . S
C2075 C2059 1.429 . S
C2075 C2071 1.429 . S
C2075 C2076 1.523 . S
C2076 C2060 1.368 . S
C2076 C2072 1.368 . S
C2076 C2075 1.523 . S
H2077 C2052 0.950 . S
H2078 C2054 0.950 . S
H2079 C2055 0.949 . S
H2080 C2057 0.950 . S
H2081 C2059 0.950 . S
C2082 C2083 1.349 . S
C2082 C2084 1.327 . S
C2082 H2107 0.950 . S
C2083 C2082 1.349 . S
C2083 C2099 1.349 . S
C2084 C2082 1.327 . S
C2084 C2103 1.429 . S
C2084 H2108 0.950 . S
C2085 C2102 1.574 . S
C2085 C2104 1.368 . S
C2085 H2109 0.949 . S
H2086 C2090 0.949 . S
C2087 C2088 1.349 . S
C2087 C2089 1.327 . S
C2087 H2110 0.950 . S
C2088 C2087 1.349 . S
C2088 C2100 1.349 . S
C2089 C2087 1.327 . S
C2089 C2105 1.429 . S
C2089 H2111 0.950 . S
C2090 H2086 0.949 . S
C2090 C2098 1.574 . S
C2090 C2106 1.368 . S
H2091 C2099 0.950 . S
H2092 C2097 0.950 . S
H2093 C2098 0.949 . S
H2094 C2100 0.950 . S
H2095 C2101 0.950 . S
H2096 C2102 0.949 . S
C2097 H2092 0.950 . S
C2097 C2099 1.327 . S
C2097 C2103 1.429 . S
C2098 C2090 1.574 . S
C2098 H2093 0.949 . S
C2098 C2104 1.368 . S
C2099 C2083 1.349 . S
C2099 H2091 0.950 . S
C2099 C2097 1.327 . S
C2100 C2088 1.349 . S
C2100 H2094 0.950 . S
C2100 C2101 1.327 . S
C2101 H2095 0.950 . S
C2101 C2100 1.327 . S
C2101 C2105 1.429 . S
C2102 C2085 1.574 . S
C2102 H2096 0.949 . S
C2102 C2106 1.368 . S
C2103 C2084 1.429 . S
C2103 C2097 1.429 . S
C2103 C2104 1.523 . S
C2104 C2085 1.368 . S
C2104 C2098 1.368 . S
C2104 C2103 1.523 . S
C2105 C2089 1.429 . S
C2105 C2101 1.429 . S
C2105 C2106 1.523 . S
C2106 C2090 1.368 . S
C2106 C2102 1.368 . S
C2106 C2105 1.523 . S
H2107 C2082 0.950 . S
H2108 C2084 0.950 . S
H2109 C2085 0.949 . S
H2110 C2087 0.950 . S
H2111 C2089 0.950 . S
C2112 C2113 1.349 . S
C2112 C2114 1.327 . S
C2112 H2137 0.950 . S
C2113 C2112 1.349 . S
C2113 C2129 1.349 . S
C2114 C2112 1.327 . S
C2114 C2133 1.429 . S
C2114 H2138 0.950 . S
C2115 C2132 1.574 . S
C2115 C2134 1.368 . S
C2115 H2139 0.949 . S
H2116 C2120 0.949 . S
C2117 C2118 1.349 . S
C2117 C2119 1.327 . S
C2117 H2140 0.950 . S
C2118 C2117 1.349 . S
C2118 C2130 1.349 . S
C2119 C2117 1.327 . S
C2119 C2135 1.429 . S
C2119 H2141 0.950 . S
C2120 H2116 0.949 . S
C2120 C2128 1.574 . S
C2120 C2136 1.368 . S
H2121 C2129 0.950 . S
H2122 C2127 0.950 . S
H2123 C2128 0.949 . S
H2124 C2130 0.950 . S
H2125 C2131 0.950 . S
H2126 C2132 0.949 . S
C2127 H2122 0.950 . S
C2127 C2129 1.327 . S
C2127 C2133 1.429 . S
C2128 C2120 1.574 . S
C2128 H2123 0.949 . S
C2128 C2134 1.368 . S
C2129 C2113 1.349 . S
C2129 H2121 0.950 . S
C2129 C2127 1.327 . S
C2130 C2118 1.349 . S
C2130 H2124 0.950 . S
C2130 C2131 1.327 . S
C2131 H2125 0.950 . S
C2131 C2130 1.327 . S
C2131 C2135 1.429 . S
C2132 C2115 1.574 . S
C2132 H2126 0.949 . S
C2132 C2136 1.368 . S
C2133 C2114 1.429 . S
C2133 C2127 1.429 . S
C2133 C2134 1.523 . S
C2134 C2115 1.368 . S
C2134 C2128 1.368 . S
C2134 C2133 1.523 . S
C2135 C2119 1.429 . S
C2135 C2131 1.429 . S
C2135 C2136 1.523 . S
C2136 C2120 1.368 . S
C2136 C2132 1.368 . S
C2136 C2135 1.523 . S
H2137 C2112 0.950 . S
H2138 C2114 0.950 . S
H2139 C2115 0.949 . S
H2140 C2117 0.950 . S
H2141 C2119 0.950 . S
C2142 C2143 1.349 . S
C2142 C2144 1.327 . S
C2142 H2167 0.950 . S
C2143 C2142 1.349 . S
C2143 C2159 1.349 . S
C2144 C2142 1.327 . S
C2144 C2163 1.429 . S
C2144 H2168 0.950 . S
C2145 C2162 1.574 . S
C2145 C2164 1.368 . S
C2145 H2169 0.949 . S
H2146 C2150 0.949 . S
C2147 C2148 1.349 . S
C2147 C2149 1.327 . S
C2147 H2170 0.950 . S
C2148 C2147 1.349 . S
C2148 C2160 1.349 . S
C2149 C2147 1.327 . S
C2149 C2165 1.429 . S
C2149 H2171 0.950 . S
C2150 H2146 0.949 . S
C2150 C2158 1.574 . S
C2150 C2166 1.368 . S
H2151 C2159 0.950 . S
H2152 C2157 0.950 . S
H2153 C2158 0.949 . S
H2154 C2160 0.950 . S
H2155 C2161 0.950 . S
H2156 C2162 0.949 . S
C2157 H2152 0.950 . S
C2157 C2159 1.327 . S
C2157 C2163 1.429 . S
C2158 C2150 1.574 . S
C2158 H2153 0.949 . S
C2158 C2164 1.368 . S
C2159 C2143 1.349 . S
C2159 H2151 0.950 . S
C2159 C2157 1.327 . S
C2160 C2148 1.349 . S
C2160 H2154 0.950 . S
C2160 C2161 1.327 . S
C2161 H2155 0.950 . S
C2161 C2160 1.327 . S
C2161 C2165 1.429 . S
C2162 C2145 1.574 . S
C2162 H2156 0.949 . S
C2162 C2166 1.368 . S
C2163 C2144 1.429 . S
C2163 C2157 1.429 . S
C2163 C2164 1.523 . S
C2164 C2145 1.368 . S
C2164 C2158 1.368 . S
C2164 C2163 1.523 . S
C2165 C2149 1.429 . S
C2165 C2161 1.429 . S
C2165 C2166 1.523 . S
C2166 C2150 1.368 . S
C2166 C2162 1.368 . S
C2166 C2165 1.523 . S
H2167 C2142 0.950 . S
H2168 C2144 0.950 . S
H2169 C2145 0.949 . S
H2170 C2147 0.950 . S
H2171 C2149 0.950 . S
C2172 C2173 1.349 . S
C2172 C2174 1.327 . S
C2172 H2197 0.950 . S
C2173 C2172 1.349 . S
C2173 C2189 1.349 . S
C2174 C2172 1.327 . S
C2174 C2193 1.429 . S
C2174 H2198 0.950 . S
C2175 C2192 1.574 . S
C2175 C2194 1.368 . S
C2175 H2199 0.949 . S
H2176 C2180 0.949 . S
C2177 C2178 1.349 . S
C2177 C2179 1.327 . S
C2177 H2200 0.950 . S
C2178 C2177 1.349 . S
C2178 C2190 1.349 . S
C2179 C2177 1.327 . S
C2179 C2195 1.429 . S
C2179 H2201 0.950 . S
C2180 H2176 0.949 . S
C2180 C2188 1.574 . S
C2180 C2196 1.368 . S
H2181 C2189 0.950 . S
H2182 C2187 0.950 . S
H2183 C2188 0.949 . S
H2184 C2190 0.950 . S
H2185 C2191 0.950 . S
H2186 C2192 0.949 . S
C2187 H2182 0.950 . S
C2187 C2189 1.327 . S
C2187 C2193 1.429 . S
C2188 C2180 1.574 . S
C2188 H2183 0.949 . S
C2188 C2194 1.368 . S
C2189 C2173 1.349 . S
C2189 H2181 0.950 . S
C2189 C2187 1.327 . S
C2190 C2178 1.349 . S
C2190 H2184 0.950 . S
C2190 C2191 1.327 . S
C2191 H2185 0.950 . S
C2191 C2190 1.327 . S
C2191 C2195 1.429 . S
C2192 C2175 1.574 . S
C2192 H2186 0.949 . S
C2192 C2196 1.368 . S
C2193 C2174 1.429 . S
C2193 C2187 1.429 . S
C2193 C2194 1.523 . S
C2194 C2175 1.368 . S
C2194 C2188 1.368 . S
C2194 C2193 1.523 . S
C2195 C2179 1.429 . S
C2195 C2191 1.429 . S
C2195 C2196 1.523 . S
C2196 C2180 1.368 . S
C2196 C2192 1.368 . S
C2196 C2195 1.523 . S
H2197 C2172 0.950 . S
H2198 C2174 0.950 . S
H2199 C2175 0.949 . S
H2200 C2177 0.950 . S
H2201 C2179 0.950 . S
C2202 C2203 1.349 . S
C2202 C2204 1.327 . S
C2202 H2227 0.950 . S
C2203 C2202 1.349 . S
C2203 C2219 1.349 . S
C2204 C2202 1.327 . S
C2204 C2223 1.429 . S
C2204 H2228 0.950 . S
C2205 C2222 1.574 . S
C2205 C2224 1.368 . S
C2205 H2229 0.949 . S
H2206 C2210 0.949 . S
C2207 C2208 1.349 . S
C2207 C2209 1.327 . S
C2207 H2230 0.950 . S
C2208 C2207 1.349 . S
C2208 C2220 1.349 . S
C2209 C2207 1.327 . S
C2209 C2225 1.429 . S
C2209 H2231 0.950 . S
C2210 H2206 0.949 . S
C2210 C2218 1.574 . S
C2210 C2226 1.368 . S
H2211 C2219 0.950 . S
H2212 C2217 0.950 . S
H2213 C2218 0.949 . S
H2214 C2220 0.950 . S
H2215 C2221 0.950 . S
H2216 C2222 0.949 . S
C2217 H2212 0.950 . S
C2217 C2219 1.327 . S
C2217 C2223 1.429 . S
C2218 C2210 1.574 . S
C2218 H2213 0.949 . S
C2218 C2224 1.368 . S
C2219 C2203 1.349 . S
C2219 H2211 0.950 . S
C2219 C2217 1.327 . S
C2220 C2208 1.349 . S
C2220 H2214 0.950 . S
C2220 C2221 1.327 . S
C2221 H2215 0.950 . S
C2221 C2220 1.327 . S
C2221 C2225 1.429 . S
C2222 C2205 1.574 . S
C2222 H2216 0.949 . S
C2222 C2226 1.368 . S
C2223 C2204 1.429 . S
C2223 C2217 1.429 . S
C2223 C2224 1.523 . S
C2224 C2205 1.368 . S
C2224 C2218 1.368 . S
C2224 C2223 1.523 . S
C2225 C2209 1.429 . S
C2225 C2221 1.429 . S
C2225 C2226 1.523 . S
C2226 C2210 1.368 . S
C2226 C2222 1.368 . S
C2226 C2225 1.523 . S
H2227 C2202 0.950 . S
H2228 C2204 0.950 . S
H2229 C2205 0.949 . S
H2230 C2207 0.950 . S
H2231 C2209 0.950 . S
C2232 C2233 1.349 . S
C2232 C2234 1.327 . S
C2232 H2257 0.950 . S
C2233 C2232 1.349 . S
C2233 C2249 1.349 . S
C2234 C2232 1.327 . S
C2234 C2253 1.429 . S
C2234 H2258 0.950 . S
C2235 C2252 1.574 . S
C2235 C2254 1.368 . S
C2235 H2259 0.949 . S
H2236 C2240 0.949 . S
C2237 C2238 1.349 . S
C2237 C2239 1.327 . S
C2237 H2260 0.950 . S
C2238 C2237 1.349 . S
C2238 C2250 1.349 . S
C2239 C2237 1.327 . S
C2239 C2255 1.429 . S
C2239 H2261 0.950 . S
C2240 H2236 0.949 . S
C2240 C2248 1.574 . S
C2240 C2256 1.368 . S
H2241 C2249 0.950 . S
H2242 C2247 0.950 . S
H2243 C2248 0.949 . S
H2244 C2250 0.950 . S
H2245 C2251 0.950 . S
H2246 C2252 0.949 . S
C2247 H2242 0.950 . S
C2247 C2249 1.327 . S
C2247 C2253 1.429 . S
C2248 C2240 1.574 . S
C2248 H2243 0.949 . S
C2248 C2254 1.368 . S
C2249 C2233 1.349 . S
C2249 H2241 0.950 . S
C2249 C2247 1.327 . S
C2250 C2238 1.349 . S
C2250 H2244 0.950 . S
C2250 C2251 1.327 . S
C2251 H2245 0.950 . S
C2251 C2250 1.327 . S
C2251 C2255 1.429 . S
C2252 C2235 1.574 . S
C2252 H2246 0.949 . S
C2252 C2256 1.368 . S
C2253 C2234 1.429 . S
C2253 C2247 1.429 . S
C2253 C2254 1.523 . S
C2254 C2235 1.368 . S
C2254 C2248 1.368 . S
C2254 C2253 1.523 . S
C2255 C2239 1.429 . S
C2255 C2251 1.429 . S
C2255 C2256 1.523 . S
C2256 C2240 1.368 . S
C2256 C2252 1.368 . S
C2256 C2255 1.523 . S
H2257 C2232 0.950 . S
H2258 C2234 0.950 . S
H2259 C2235 0.949 . S
H2260 C2237 0.950 . S
H2261 C2239 0.950 . S
C2262 C2263 1.349 . S
C2262 C2264 1.327 . S
C2262 H2287 0.950 . S
C2263 C2262 1.349 . S
C2263 C2279 1.349 . S
C2264 C2262 1.327 . S
C2264 C2283 1.429 . S
C2264 H2288 0.950 . S
C2265 C2282 1.574 . S
C2265 C2284 1.368 . S
C2265 H2289 0.949 . S
H2266 C2270 0.949 . S
C2267 C2268 1.349 . S
C2267 C2269 1.327 . S
C2267 H2290 0.950 . S
C2268 C2267 1.349 . S
C2268 C2280 1.349 . S
C2269 C2267 1.327 . S
C2269 C2285 1.429 . S
C2269 H2291 0.950 . S
C2270 H2266 0.949 . S
C2270 C2278 1.574 . S
C2270 C2286 1.368 . S
H2271 C2279 0.950 . S
H2272 C2277 0.950 . S
H2273 C2278 0.949 . S
H2274 C2280 0.950 . S
H2275 C2281 0.950 . S
H2276 C2282 0.949 . S
C2277 H2272 0.950 . S
C2277 C2279 1.327 . S
C2277 C2283 1.429 . S
C2278 C2270 1.574 . S
C2278 H2273 0.949 . S
C2278 C2284 1.368 . S
C2279 C2263 1.349 . S
C2279 H2271 0.950 . S
C2279 C2277 1.327 . S
C2280 C2268 1.349 . S
C2280 H2274 0.950 . S
C2280 C2281 1.327 . S
C2281 H2275 0.950 . S
C2281 C2280 1.327 . S
C2281 C2285 1.429 . S
C2282 C2265 1.574 . S
C2282 H2276 0.949 . S
C2282 C2286 1.368 . S
C2283 C2264 1.429 . S
C2283 C2277 1.429 . S
C2283 C2284 1.523 . S
C2284 C2265 1.368 . S
C2284 C2278 1.368 . S
C2284 C2283 1.523 . S
C2285 C2269 1.429 . S
C2285 C2281 1.429 . S
C2285 C2286 1.523 . S
C2286 C2270 1.368 . S
C2286 C2282 1.368 . S
C2286 C2285 1.523 . S
H2287 C2262 0.950 . S
H2288 C2264 0.950 . S
H2289 C2265 0.949 . S
H2290 C2267 0.950 . S
H2291 C2269 0.950 . S
C2292 C2293 1.349 . S
C2292 C2294 1.327 . S
C2292 H2317 0.950 . S
C2293 C2292 1.349 . S
C2293 C2309 1.349 . S
C2294 C2292 1.327 . S
C2294 C2313 1.429 . S
C2294 H2318 0.950 . S
C2295 C2312 1.574 . S
C2295 C2314 1.368 . S
C2295 H2319 0.949 . S
H2296 C2300 0.949 . S
C2297 C2298 1.349 . S
C2297 C2299 1.327 . S
C2297 H2320 0.950 . S
C2298 C2297 1.349 . S
C2298 C2310 1.349 . S
C2299 C2297 1.327 . S
C2299 C2315 1.429 . S
C2299 H2321 0.950 . S
C2300 H2296 0.949 . S
C2300 C2308 1.574 . S
C2300 C2316 1.368 . S
H2301 C2309 0.950 . S
H2302 C2307 0.950 . S
H2303 C2308 0.949 . S
H2304 C2310 0.950 . S
H2305 C2311 0.950 . S
H2306 C2312 0.949 . S
C2307 H2302 0.950 . S
C2307 C2309 1.327 . S
C2307 C2313 1.429 . S
C2308 C2300 1.574 . S
C2308 H2303 0.949 . S
C2308 C2314 1.368 . S
C2309 C2293 1.349 . S
C2309 H2301 0.950 . S
C2309 C2307 1.327 . S
C2310 C2298 1.349 . S
C2310 H2304 0.950 . S
C2310 C2311 1.327 . S
C2311 H2305 0.950 . S
C2311 C2310 1.327 . S
C2311 C2315 1.429 . S
C2312 C2295 1.574 . S
C2312 H2306 0.949 . S
C2312 C2316 1.368 . S
C2313 C2294 1.429 . S
C2313 C2307 1.429 . S
C2313 C2314 1.523 . S
C2314 C2295 1.368 . S
C2314 C2308 1.368 . S
C2314 C2313 1.523 . S
C2315 C2299 1.429 . S
C2315 C2311 1.429 . S
C2315 C2316 1.523 . S
C2316 C2300 1.368 . S
C2316 C2312 1.368 . S
C2316 C2315 1.523 . S
H2317 C2292 0.950 . S
H2318 C2294 0.950 . S
H2319 C2295 0.949 . S
H2320 C2297 0.950 . S
H2321 C2299 0.950 . S
C703 C253 1.756 . S
C708 C354 1.769 . S
C733 C272 1.902 . S
C738 C394 1.898 . S
C763 C234 1.628 . S
C768 C424 1.612 . S
C793 C215 1.467 . S
C798 C384 1.441 1_556 S
C828 C434 1.547 1_556 S
C823 C177 1.552 . S
C853 C196 1.356 . S
C858 C344 1.350 . S
C888 C373 1.735 . S
C883 C220 1.569 . S
C918 C413 1.693 . S
C913 C182 1.583 . S
C943 C201 1.653 . S
C948 C439 1.763 . S
C973 C258 1.434 . S
C978 C399 1.531 . S
C1003 C277 1.317 . S
C1008 C453 1.444 . S
C1038 C359 1.511 . S
C1033 C239 1.385 . S
C1068 C474 1.769 . S
C1063 C25 1.757 . S
C1093 C44 1.902 . S
C1098 C514 1.898 . S
C1123 C6 1.627 . S
C1128 C544 1.612 . S
C1153 C329 1.467 . S
C1158 C504 1.441 . S
C1183 C291 1.552 . S
C1188 C554 1.547 . S
C1213 C310 1.355 . S
C1218 C464 1.350 . S
C1243 C334 1.568 . S
C1248 C493 1.728 . S
C1273 C296 1.583 . S
C1278 C533 1.693 . S
C1308 C559 1.763 . S
C1303 C315 1.653 . S
C1333 C30 1.433 . S
C1338 C519 1.531 . S
C1368 C573 1.445 . S
C1363 C49 1.318 . S
C1393 C11 1.385 . S
C1398 C479 1.511 . S
C1428 C594 1.769 . S
C1423 C139 1.756 . S
C1453 C158 1.902 . S
C1458 C634 1.898 . S
C1488 C664 1.612 . S
C1483 C120 1.628 . S
C1518 C624 1.441 . S
C1513 C101 1.466 . S
C1548 C674 1.547 . S
C1543 C63 1.552 . S
C1573 C82 1.356 . S
C1578 C584 1.350 . S
C1603 C106 1.568 . S
C1608 C613 1.728 . S
C1633 C68 1.583 . S
C1638 C653 1.693 . S
C1668 C679 1.763 . S
C1663 C87 1.653 . S
C1693 C144 1.434 . S
C1698 C639 1.531 . S
C1723 C163 1.318 . S
C1728 C693 1.445 . S
C1753 C125 1.385 . S
C1758 C599 1.511 . S
C1783 C287 1.513 . S
C1788 C371 1.490 . S
C1818 C411 2.117 . S
C1813 C306 2.147 . S
C1843 C325 1.640 . S
C1848 C430 1.670 . S
C1873 C116 1.918 . S
C1878 C390 1.936 . S
C1903 C135 1.831 . S
C1908 C451 1.814 . S
C1938 C350 1.282 . S
C1933 C154 1.261 . S
C1963 C59 1.513 . S
C1968 C491 1.490 . S
C1993 C78 2.147 . S
C1998 C531 2.117 . S
C2023 C97 1.640 . S
C2028 C550 1.670 . S
C2053 C230 1.918 . S
C2058 C510 1.936 . S
C2088 C571 1.814 . S
C2083 C249 1.831 . S
C2113 C268 1.261 . S
C2118 C470 1.282 . S
C2143 C173 1.513 . S
C2148 C611 1.490 . S
C2173 C192 2.147 . S
C2178 C651 2.117 . S
C2208 C670 1.670 . S
C2203 C211 1.640 . S
C2233 C2 1.918 . S
C2238 C630 1.936 . S
C2263 C21 1.831 . S
C2268 C691 1.814 . S
C2293 C40 1.261 . S
C2298 C590 1.282 . S
