# Generated by pormake.
# Topology rtl, (3,6)-cn, num edge types: 1
# Building blocks:
#     Node 0, Type 0, BuildingBlock: INOVEN_clean_linker_0, # of connection points: 3
#     Node 1, Type 0, BuildingBlock: INOVEN_clean_linker_0, # of connection points: 3
#     Node 2, Type 0, BuildingBlock: INOVEN_clean_linker_0, # of connection points: 3
#     Node 3, Type 0, BuildingBlock: INOVEN_clean_linker_0, # of connection points: 3
#     Node 4, Type 1, BuildingBlock: VOLQOD_clean_sbu_1, # of connection points: 6
#     Node 5, Type 1, BuildingBlock: VOLQOD_clean_sbu_1, # of connection points: 6
#     Edge 6, Type (0, 1), BuildingBlock: MIFKUJ_clean_linker_0, # of connection points: 2
#     Edge 7, Type (0, 1), BuildingBlock: MIFKUJ_clean_linker_0, # of connection points: 2
#     Edge 8, Type (0, 1), BuildingBlock: MIFKUJ_clean_linker_0, # of connection points: 2
#     Edge 9, Type (0, 1), BuildingBlock: MIFKUJ_clean_linker_0, # of connection points: 2
#     Edge 10, Type (0, 1), BuildingBlock: MIFKUJ_clean_linker_0, # of connection points: 2
#     Edge 11, Type (0, 1), BuildingBlock: MIFKUJ_clean_linker_0, # of connection points: 2
#     Edge 12, Type (0, 1), BuildingBlock: MIFKUJ_clean_linker_0, # of connection points: 2
#     Edge 13, Type (0, 1), BuildingBlock: MIFKUJ_clean_linker_0, # of connection points: 2
#     Edge 14, Type (0, 1), BuildingBlock: MIFKUJ_clean_linker_0, # of connection points: 2
#     Edge 15, Type (0, 1), BuildingBlock: MIFKUJ_clean_linker_0, # of connection points: 2
#     Edge 16, Type (0, 1), BuildingBlock: MIFKUJ_clean_linker_0, # of connection points: 2
#     Edge 17, Type (0, 1), BuildingBlock: MIFKUJ_clean_linker_0, # of connection points: 2
# Relax obj value: 0.042
# Max RMSD: 0.144
# Mean RMSD: 0.095
data_MOF--net-rtl--node1-VOLQOD_clean_sbu_1--node2-INOVEN_clean_linker_0--edge1-MIFKUJ_clean_linker_0
_symmetry_space_group_name_H-M    P1
_symmetry_Int_Tables_number       1
_symmetry_cell_setting            triclinic
loop_
_symmetry_equiv_pos_as_xyz
'x, y, z'
_cell_length_a     48.859944
_cell_length_b     48.195296
_cell_length_c     28.338747
_cell_angle_alpha  91.293745
_cell_angle_beta   91.561347
_cell_angle_gamma 90.162411
loop_
_atom_site_label
_atom_site_type_symbol
_atom_site_fract_x
_atom_site_fract_y
_atom_site_fract_z
_atom_type_partial_charge
H0 H 0.18469 0.77169 0.92217 0.0
H1 H 0.12651 0.82021 -0.00113 0.0
H2 H 0.18359 0.76812 0.07371 0.0
N3 N 0.20856 0.74854 0.99556 0.0
N4 N 0.22169 0.74142 0.03161 0.0
C5 C 0.1759 0.77808 0.95539 0.0
C6 C 0.15404 0.79677 0.95583 0.0
C7 C 0.18662 0.76766 -0.00233 0.0
C8 C 0.17544 0.77624 0.04089 0.0
C9 C 0.15349 0.79502 0.04171 0.0
C10 C 0.14285 0.80503 -0.00116 0.0
H11 H 0.65976 0.75552 0.61008 0.0
H12 H 0.60936 0.69586 0.53303 0.0
H13 H 0.66689 0.74558 0.45971 0.0
N14 N 0.68736 0.77257 0.53745 0.0
N15 N 0.70345 0.77482 0.50434 0.0
C16 C 0.65303 0.74571 0.57695 0.0
C17 C 0.63248 0.72529 0.57632 0.0
C18 C 0.66566 0.75293 0.53517 0.0
C19 C 0.65732 0.7399 0.49217 0.0
C20 C 0.63663 0.71961 0.49094 0.0
C21 C 0.62435 0.7125 0.53323 0.0
H22 H 0.83022 0.24146 0.92237 0.0
H23 H 0.87557 0.18036 3e-05 0.0
H24 H 0.81977 0.23422 0.07194 0.0
N25 N 0.80327 0.262 0.99448 0.0
N26 N 0.78672 0.26572 0.02673 0.0
C27 C 0.83588 0.23191 0.95549 0.0
C28 C 0.85413 0.20948 0.95615 0.0
C29 C 0.82338 0.24089 -0.00295 0.0
C30 C 0.82976 0.22775 0.03986 0.0
C31 C 0.8484 0.20569 0.04105 0.0
C32 C 0.86079 0.1971 -0.00078 0.0
H33 H 0.31277 0.27826 0.42559 0.0
H34 H 0.37167 0.32281 0.51401 0.0
H35 H 0.31909 0.26227 0.57434 0.0
N36 N 0.29245 0.24788 0.49177 0.0
N37 N 0.28542 0.23199 0.52339 0.0
C38 C 0.32254 0.28228 0.45988 0.0
C39 C 0.34334 0.30233 0.46505 0.0
C40 C 0.31382 0.26763 0.49886 0.0
C41 C 0.32594 0.27318 0.54378 0.0
C42 C 0.34696 0.29298 0.54921 0.0
C43 C 0.35556 0.30735 0.50974 0.0
O44 O 0.93384 0.98108 0.50769 0.0
Zn45 Zn 0.96062 0.01242 0.50054 0.0
O46 O -0.00182 -0.00048 0.49699 0.0
Zn47 Zn 0.01961 0.01438 0.5512 0.0
Zn48 Zn -0.0021 0.95914 0.49848 0.0
Zn49 Zn 0.01401 0.01183 0.4381 0.0
O50 O 0.05199 0.03582 0.52964 0.0
O51 O 0.04654 0.03702 0.45163 0.0
O52 O 0.95661 0.03972 0.55374 0.0
O53 O -0.00276 0.04087 0.59081 0.0
O54 O 0.03386 0.98384 0.59231 0.0
O55 O 0.01681 0.94562 0.55729 0.0
O56 O 0.01794 0.9429 0.44374 0.0
O57 O 0.94949 0.03266 0.44252 0.0
O58 O 0.02771 0.97907 0.3999 0.0
O59 O 0.98644 0.03305 0.39872 0.0
C60 C 0.93636 0.95488 0.5032 0.0
C61 C 0.05969 0.04383 0.4896 0.0
C62 C 0.03065 0.95761 0.59056 0.0
C63 C 0.97258 0.04913 0.58652 0.0
C64 C 0.02836 0.95308 0.40725 0.0
C65 C 0.96158 0.03964 0.40542 0.0
O66 O 0.9596 0.94371 0.49698 0.0
O67 O 0.56668 0.48207 0.01118 0.0
Zn68 Zn 0.54045 0.51425 0.01457 0.0
O69 O 0.5024 0.50136 0.01533 0.0
Zn70 Zn 0.48223 0.51402 0.95923 0.0
Zn71 Zn 0.50165 0.46094 0.01626 0.0
Zn72 Zn 0.48511 0.51605 0.07178 0.0
O73 O 0.44992 0.53749 0.97699 0.0
O74 O 0.45419 0.54155 0.05501 0.0
O75 O 0.54637 0.53868 0.95915 0.0
O76 O 0.50616 0.53837 0.92064 0.0
O77 O 0.46843 0.48175 0.91848 0.0
O78 O 0.48299 0.44502 0.95772 0.0
O79 O 0.48096 0.44708 0.07137 0.0
O80 O 0.55045 0.53687 0.07352 0.0
O81 O 0.46956 0.48558 0.11034 0.0
O82 O 0.51181 0.53773 0.11286 0.0
C83 C 0.56337 0.45604 0.01547 0.0
C84 C 0.442 0.54745 0.01629 0.0
C85 C 0.47051 0.45554 0.92244 0.0
C86 C 0.53095 0.54649 0.92504 0.0
C87 C 0.46937 0.45925 0.10575 0.0
C88 C 0.53686 0.54444 0.10928 0.0
O89 O 0.53969 0.44542 0.01957 0.0
H90 H 0.25058 0.22734 0.44691 0.0
H91 H 0.21296 0.19398 0.43638 0.0
H92 H 0.2334 0.15948 0.57196 0.0
H93 H 0.27119 0.19307 0.58266 0.0
H94 H 0.22326 0.11908 0.50123 0.0
H95 H 0.18111 0.20164 0.56376 0.0
H96 H 0.16962 0.25142 0.56667 0.0
H97 H 0.13062 0.24395 0.42932 0.0
H98 H 0.14224 0.19416 0.42531 0.0
H99 H 0.10014 0.05076 0.55698 0.0
H100 H 0.13993 0.08145 0.55523 0.0
H101 H 0.11458 0.10833 0.41671 0.0
H102 H 0.07469 0.07735 0.41786 0.0
H103 H 0.12754 0.1521 0.48225 0.0
H104 H 0.16691 0.0688 0.4218 0.0
H105 H 0.17786 0.0189 0.41931 0.0
H106 H 0.22172 0.02748 0.55223 0.0
H107 H 0.21065 0.07739 0.55591 0.0
C108 C 0.24711 0.2126 0.47441 0.0
C109 C 0.26372 0.21263 0.51581 0.0
C110 C 0.2256 0.19362 0.46838 0.0
C111 C 0.22036 0.1744 0.5035 0.0
C112 C 0.23717 0.17414 0.54445 0.0
C113 C 0.25859 0.19328 0.55063 0.0
C114 C 0.19703 0.15485 0.49785 0.0
C115 C 0.2023 0.12625 0.49755 0.0
C116 C 0.1698 0.16432 0.49172 0.0
C117 C 0.16283 0.19426 0.494 0.0
C118 C 0.17032 0.21067 0.53398 0.0
C119 C 0.16373 0.23887 0.53587 0.0
C120 C 0.14947 0.25086 0.49814 0.0
C121 C 0.14171 0.23465 0.45848 0.0
C122 C 0.14828 0.20643 0.45639 0.0
C123 C 0.10305 0.06309 0.52601 0.0
C124 C 0.08426 0.06167 0.48756 0.0
C125 C 0.12587 0.0805 0.52501 0.0
C126 C 0.1302 0.09699 0.48576 0.0
C127 C 0.11155 0.09566 0.44725 0.0
C128 C 0.08887 0.07791 0.44792 0.0
C129 C 0.15374 0.11633 0.48608 0.0
C130 C 0.14852 0.1449 0.48547 0.0
C131 C 0.18099 0.10683 0.49134 0.0
C132 C 0.18772 0.07681 0.48934 0.0
C133 C 0.17867 0.06001 0.45074 0.0
C134 C 0.18494 0.03173 0.44906 0.0
C135 C 0.20042 0.02002 0.48565 0.0
C136 C 0.2097 0.03658 0.52394 0.0
C137 C 0.20346 0.06488 0.52582 0.0
H138 H 0.20527 -0.00188 0.48428 0.0
H139 H 0.14438 0.2727 0.49968 0.0
H140 H 0.23522 0.70886 0.95613 0.0
H141 H 0.27269 0.67532 0.95394 0.0
H142 H 0.29463 0.69632 0.09889 0.0
H143 H 0.25677 0.72987 0.10129 0.0
H144 H 0.3396 0.6944 0.03727 0.0
H145 H 0.26262 0.63864 0.07895 0.0
H146 H 0.2157 0.61993 0.07009 0.0
H147 H 0.23439 0.58516 0.93394 0.0
H148 H 0.28134 0.60402 0.9417 0.0
H149 H 0.42638 0.58113 0.08941 0.0
H150 H 0.38864 0.61422 0.08999 0.0
H151 H 0.36695 0.59093 0.94595 0.0
H152 H 0.40484 0.55778 0.94481 0.0
H153 H 0.32194 0.59411 0.0057 0.0
H154 H 0.39841 0.64908 0.96294 0.0
H155 H 0.4454 0.66774 0.96999 0.0
H156 H 0.42789 0.70421 0.10545 0.0
H157 H 0.38086 0.68538 0.09951 0.0
C158 C 0.24805 0.70636 0.9875 0.0
C159 C 0.24332 0.72193 0.02908 0.0
C160 C 0.26936 0.68716 0.98623 0.0
C161 C 0.28629 0.68334 0.02631 0.0
C162 C 0.28175 0.69905 0.06763 0.0
C163 C 0.26022 0.71805 0.06905 0.0
C164 C 0.30873 0.66288 0.02497 0.0
C165 C 0.33577 0.67242 0.03104 0.0
C166 C 0.30363 0.63437 0.01547 0.0
C167 C 0.27541 0.62301 0.01069 0.0
C168 C 0.25665 0.62723 0.04692 0.0
C169 C 0.23007 0.61655 0.04214 0.0
C170 C 0.22204 0.60144 0.00142 0.0
C171 C 0.24062 0.59691 0.96543 0.0
C172 C 0.26723 0.60758 0.97002 0.0
C173 C 0.41355 0.58293 0.05786 0.0
C174 C 0.41864 0.56687 0.017 0.0
C175 C 0.39208 0.60193 0.05823 0.0
C176 C 0.37522 0.6051 0.0179 0.0
C177 C 0.37983 0.58875 0.97736 0.0
C178 C 0.40151 0.56992 0.97676 0.0
C179 C 0.3528 0.62561 0.01824 0.0
C180 C 0.32578 0.6161 0.01192 0.0
C181 C 0.35793 0.65416 0.02724 0.0
C182 C 0.38619 0.66556 0.031 0.0
C183 C 0.40465 0.66085 0.99444 0.0
C184 C 0.43128 0.67151 -0.00181 0.0
C185 C 0.43965 0.68709 0.0382 0.0
C186 C 0.42138 0.6921 0.0745 0.0
C187 C 0.39472 0.68146 0.07095 0.0
H188 H 0.46027 0.69533 0.04103 0.0
H189 H 0.20146 0.59317 -0.00221 0.0
H190 H 0.74514 0.77459 0.44701 0.0
H191 H 0.78452 0.80651 0.44953 0.0
H192 H 0.74991 0.85116 0.56713 0.0
H193 H 0.71087 0.81891 0.56534 0.0
H194 H 0.77065 0.88454 0.48713 0.0
H195 H 0.79716 0.81308 0.59625 0.0
H196 H 0.80438 0.76463 0.61971 0.0
H197 H 0.86147 0.75287 0.50852 0.0
H198 H 0.85427 0.80115 0.48395 0.0
H199 H 0.8879 0.96669 0.54493 0.0
H200 H 0.84746 0.93691 0.54804 0.0
H201 H 0.88854 0.8736 0.46651 0.0
H202 H 0.92946 0.90274 0.46541 0.0
H203 H 0.86318 0.84998 0.53157 0.0
H204 H 0.83721 0.91837 0.4188 0.0
H205 H 0.82984 0.96551 0.38896 0.0
H206 H 0.772 0.98191 0.49743 0.0
H207 H 0.77929 0.93496 0.52831 0.0
C208 C 0.74608 0.79128 0.47326 0.0
C209 C 0.72532 0.79422 0.50605 0.0
C210 C 0.76843 0.80939 0.47473 0.0
C211 C 0.77006 0.83101 0.50866 0.0
C212 C 0.74894 0.83452 0.54078 0.0
C213 C 0.72678 0.81608 0.53984 0.0
C214 C 0.79414 0.84961 0.5109 0.0
C215 C 0.79087 0.87723 0.4975 0.0
C216 C 0.82049 0.83962 0.52306 0.0
C217 C 0.82496 0.81064 0.53798 0.0
C218 C 0.81106 0.80008 0.57653 0.0
C219 C 0.81519 0.77267 0.59009 0.0
C220 C 0.83332 0.75566 0.56554 0.0
C221 C 0.84741 0.76606 0.52747 0.0
C222 C 0.84333 0.79345 0.51374 0.0
C223 C 0.88827 0.94642 0.52766 0.0
C224 C 0.91179 0.93705 0.50481 0.0
C225 C 0.86509 0.92946 0.52922 0.0
C226 C 0.86472 0.90315 0.50678 0.0
C227 C 0.88829 0.89378 0.48412 0.0
C228 C 0.91166 0.91048 0.48342 0.0
C229 C 0.83997 0.88518 0.50734 0.0
C230 C 0.84305 0.85755 0.52129 0.0
C231 C 0.81351 0.89505 0.49474 0.0
C232 C 0.80901 0.92325 0.47615 0.0
C233 C 0.82307 0.9321 0.43649 0.0
C234 C 0.81888 0.95877 0.41936 0.0
C235 C 0.80052 0.97672 0.44136 0.0
C236 C 0.78624 0.968 0.48047 0.0
C237 C 0.79038 0.94135 0.49778 0.0
H238 H 0.79731 0.99736 0.42805 0.0
H239 H 0.83649 0.73444 0.5761 0.0
H240 H 0.78362 0.30959 0.9678 0.0
H241 H 0.74663 0.34398 0.96489 0.0
H242 H 0.7064 0.30251 0.07724 0.0
H243 H 0.74375 0.26849 0.081 0.0
H244 H 0.67317 0.31451 0.99 0.0
H245 H 0.7347 0.35711 0.10831 0.0
H246 H 0.77936 0.37552 0.13723 0.0
H247 H 0.77888 0.43433 0.02562 0.0
H248 H 0.73436 0.41596 0.99562 0.0
H249 H 0.56755 0.40465 0.05289 0.0
H250 H 0.60705 0.37387 0.05283 0.0
H251 H 0.6528 0.43441 0.97695 0.0
H252 H 0.61361 0.46592 0.97891 0.0
H253 H 0.68471 0.41331 0.03988 0.0
H254 H 0.62403 0.3743 0.92194 0.0
H255 H 0.58043 0.35632 0.88749 0.0
H256 H 0.58038 0.29131 0.98864 0.0
H257 H 0.6238 0.30914 0.02414 0.0
C258 C 0.76693 0.30793 0.99194 0.0
C259 C 0.76622 0.28641 0.02464 0.0
C260 C 0.74592 0.32755 0.9903 0.0
C261 C 0.72389 0.32563 0.0208 0.0
C262 C 0.72326 0.30421 0.05341 0.0
C263 C 0.74449 0.28494 0.05564 0.0
C264 C 0.70112 0.34561 0.0182 0.0
C265 C 0.6755 0.33607 0.0013 0.0
C266 C 0.70467 0.37386 0.0313 0.0
C267 C 0.73137 0.38494 0.0494 0.0
C268 C 0.74425 0.37377 0.08965 0.0
C269 C 0.76951 0.38424 0.10631 0.0
C270 C 0.782 0.40602 0.08318 0.0
C271 C 0.76921 0.41743 0.04344 0.0
C272 C 0.74396 0.40701 0.02662 0.0
C273 C 0.58602 0.41141 0.03616 0.0
C274 C 0.58745 0.43761 0.01563 0.0
C275 C 0.60855 0.39372 0.03591 0.0
C276 C 0.63273 0.40153 0.01391 0.0
C277 C 0.63434 0.42788 0.99396 0.0
C278 C 0.61194 0.44584 0.99503 0.0
C279 C 0.65632 0.38222 0.01227 0.0
C280 C 0.6822 0.39184 0.02822 0.0
C281 C 0.65314 0.3541 -0.00267 0.0
C282 C 0.62707 0.34321 0.97595 0.0
C283 C 0.61463 0.35628 0.93705 0.0
C284 C 0.58996 0.3461 0.9173 0.0
C285 C 0.57761 0.32273 0.93593 0.0
C286 C 0.58996 0.30944 0.97427 0.0
C287 C 0.61462 0.31955 0.99419 0.0
H288 H 0.55851 0.31488 0.9206 0.0
H289 H 0.80155 0.41411 0.09614 0.0
H290 H 0.18178 0.81016 0.12314 0.0
H291 H 0.16338 0.83147 0.1947 0.0
H292 H 0.08182 0.82621 0.13267 0.0
H293 H 0.09984 0.80369 0.06233 0.0
H294 H 0.13967 0.879 0.20439 0.0
H295 H 0.03421 0.822 0.21367 0.0
H296 H 0.01541 0.77487 0.19993 0.0
H297 H 0.09532 0.74011 0.22325 0.0
H298 H 0.11455 0.78697 0.23781 0.0
H299 H 0.04445 0.96426 0.31787 0.0
H300 H 0.06846 0.93339 0.26354 0.0
H301 H 0.06895 0.86911 0.36717 0.0
H302 H 0.04414 0.8995 0.42102 0.0
H303 H 0.05716 0.84703 0.28602 0.0
H304 H 0.12734 0.90754 0.3449 0.0
H305 H 0.14969 0.9522 0.36617 0.0
H306 H 0.14713 0.97506 0.22056 0.0
H307 H 0.1244 0.9307 0.19847 0.0
C308 C 0.15985 0.81286 0.12529 0.0
C309 C 0.14227 0.80533 0.08697 0.0
C310 C 0.1494 0.82529 0.16603 0.0
C311 C 0.12121 0.83033 0.1692 0.0
C312 C 0.10358 0.82215 0.13145 0.0
C313 C 0.11396 0.80957 0.09097 0.0
C314 C 0.11028 0.8459 0.21028 0.0
C315 C 0.12175 0.87191 0.22249 0.0
C316 C 0.08733 0.83637 0.23477 0.0
C317 C 0.07585 0.80806 0.22649 0.0
C318 C 0.04776 0.8043 0.21612 0.0
C319 C 0.03703 0.77763 0.20813 0.0
C320 C 0.05417 0.75452 0.2106 0.0
C321 C 0.08208 0.75803 0.22119 0.0
C322 C 0.09291 0.78465 0.22924 0.0
C323 C 0.04964 0.94355 0.32907 0.0
C324 C 0.04241 0.93436 0.37377 0.0
C325 C 0.06352 0.92597 0.2981 0.0
C326 C 0.07093 0.89907 0.31159 0.0
C327 C 0.06349 0.88977 0.35601 0.0
C328 C 0.04931 0.9072 0.38675 0.0
C329 C 0.08599 0.8805 0.27896 0.0
C330 C 0.07527 0.85397 0.26832 0.0
C331 C 0.11017 0.88916 0.25705 0.0
C332 C 0.12398 0.91585 0.27008 0.0
C333 C 0.13137 0.92217 0.31745 0.0
C334 C 0.14414 0.94742 0.32965 0.0
C335 C 0.14978 0.96648 0.29475 0.0
C336 C 0.14273 0.96029 0.24756 0.0
C337 C 0.12994 0.93507 0.23517 0.0
H338 H 0.15966 0.98602 0.30427 0.0
H339 H 0.04583 0.73389 0.20438 0.0
H340 H 0.66086 0.71034 0.65579 0.0
H341 H 0.64322 0.68472 0.72215 0.0
H342 H 0.56134 0.69031 0.66241 0.0
H343 H 0.57885 0.71612 0.59603 0.0
H344 H 0.56381 0.69451 0.76311 0.0
H345 H 0.59429 0.63589 0.63571 0.0
H346 H 0.6272 0.61965 0.57689 0.0
H347 H 0.68469 0.5993 0.68801 0.0
H348 H 0.65224 0.61594 0.74757 0.0
H349 H 0.5023 0.57456 0.857 0.0
H350 H 0.51985 0.60902 0.80347 0.0
H351 H 0.60126 0.59831 0.86278 0.0
H352 H 0.58395 0.56378 0.9165 0.0
H353 H 0.59975 0.59825 0.76521 0.0
H354 H 0.56619 0.65419 0.89336 0.0
H355 H 0.53187 0.66998 0.95013 0.0
H356 H 0.47839 0.69438 0.83581 0.0
H357 H 0.51224 0.67836 0.77828 0.0
C358 C 0.639 0.70688 0.65758 0.0
C359 C 0.62122 0.71499 0.62066 0.0
C360 C 0.62898 0.69213 0.69533 0.0
C361 C 0.60105 0.68538 0.69674 0.0
C362 C 0.58296 0.69532 0.66186 0.0
C363 C 0.59299 0.70989 0.62391 0.0
C364 C 0.59132 0.66523 0.73118 0.0
C365 C 0.57149 0.67341 0.76349 0.0
C366 C 0.60155 0.6378 0.73169 0.0
C367 C 0.62098 0.62745 0.69606 0.0
C368 C 0.61404 0.62817 0.6476 0.0
C369 C 0.63259 0.61886 0.61412 0.0
C370 C 0.65805 0.6085 0.62868 0.0
C371 C 0.66497 0.60737 0.67678 0.0
C372 C 0.64651 0.61674 0.71042 0.0
C373 C 0.52396 0.57942 0.85858 0.0
C374 C 0.54172 0.56642 0.8911 0.0
C375 C 0.53391 0.59925 0.82816 0.0
C376 C 0.56177 0.60642 0.82963 0.0
C377 C 0.57965 0.59312 0.86131 0.0
C378 C 0.56971 0.57342 0.89198 0.0
C379 C 0.57233 0.6275 0.79754 0.0
C380 C 0.59224 0.61941 0.76533 0.0
C381 C 0.56196 0.6549 0.79696 0.0
C382 C 0.54166 0.66483 0.83148 0.0
C383 C 0.54703 0.66273 0.8803 0.0
C384 C 0.52767 0.67175 0.91263 0.0
C385 C 0.50293 0.68311 0.89659 0.0
C386 C 0.49754 0.68555 0.84818 0.0
C387 C 0.51683 0.67653 0.81569 0.0
H388 H 0.48796 0.69008 0.92168 0.0
H389 H 0.67239 0.60129 0.6027 0.0
H390 H 0.8519 0.14979 0.05126 0.0
H391 H 0.86598 0.12479 0.1214 0.0
H392 H 0.87119 0.20197 0.20145 0.0
H393 H 0.85822 0.22742 0.13027 0.0
H394 H 0.91515 0.17257 0.21736 0.0
H395 H 0.82016 0.15418 0.22104 0.0
H396 H 0.77424 0.14067 0.19031 0.0
H397 H 0.80331 0.05868 0.15751 0.0
H398 H 0.84953 0.0718 0.18741 0.0
H399 H 0.90975 0.06028 0.41165 0.0
H400 H 0.88627 0.09151 0.35764 0.0
H401 H 0.95576 0.08945 0.26692 0.0
H402 H 0.97972 0.05859 0.32128 0.0
H403 H 0.86948 0.08678 0.26911 0.0
H404 H 0.96461 0.15192 0.21901 0.0
H405 H 0.00832 0.16798 0.25589 0.0
H406 H 0.97431 0.16177 0.39339 0.0
H407 H 0.9303 0.14607 0.35734 0.0
C408 C 0.85607 0.1615 0.08376 0.0
C409 C 0.8543 0.19061 0.08515 0.0
C410 C 0.86375 0.14712 0.12403 0.0
C411 C 0.86935 0.16147 0.16682 0.0
C412 C 0.86687 0.1905 0.16877 0.0
C413 C 0.8593 0.20498 0.12824 0.0
C414 C 0.87971 0.14607 0.20825 0.0
C415 C 0.90504 0.15396 0.22896 0.0
C416 C 0.86621 0.12214 0.22416 0.0
C417 C 0.83838 0.11405 0.20628 0.0
C418 C 0.81682 0.13332 0.207 0.0
C419 C 0.79072 0.12572 0.18976 0.0
C420 C 0.78587 0.09884 0.17191 0.0
C421 C 0.8071 0.07949 0.17136 0.0
C422 C 0.83325 0.08699 0.18852 0.0
C423 C 0.92007 0.06636 0.38014 0.0
C424 C 0.94673 0.05705 0.37093 0.0
C425 C 0.90656 0.08422 0.3493 0.0
C426 C 0.91942 0.09313 0.3087 0.0
C427 C 0.94569 0.08325 0.29862 0.0
C428 C 0.95929 0.06547 0.32956 0.0
C429 C 0.90537 0.11272 0.27674 0.0
C430 C 0.87938 0.1056 0.25789 0.0
C431 C 0.9179 0.13777 0.26348 0.0
C432 C 0.94422 0.14759 0.28543 0.0
C433 C 0.96642 0.15412 0.25709 0.0
C434 C 0.99126 0.16313 0.27787 0.0
C435 C 0.99412 0.16582 0.32695 0.0
C436 C 0.97211 0.15959 0.35538 0.0
C437 C 0.94722 0.1506 0.33479 0.0
H438 H 0.01338 0.17277 0.34296 0.0
H439 H 0.76565 0.093 0.15858 0.0
H440 H 0.32052 0.30815 0.62924 0.0
H441 H 0.34112 0.33113 0.6998 0.0
H442 H 0.42155 0.31779 0.64458 0.0
H443 H 0.40106 0.2952 0.57393 0.0
H444 H 0.38082 0.32189 0.77085 0.0
H445 H 0.45476 0.37952 0.65102 0.0
H446 H 0.45786 0.39109 0.56692 0.0
H447 H 0.37016 0.39041 0.55224 0.0
H448 H 0.36653 0.37946 0.63643 0.0
H449 H 0.47702 0.39942 0.91192 0.0
H450 H 0.45512 0.36843 0.8529 0.0
H451 H 0.4125 0.43796 0.7923 0.0
H452 H 0.43489 0.46925 0.85049 0.0
H453 H 0.43138 0.40623 0.72508 0.0
H454 H 0.38009 0.3911 0.86382 0.0
H455 H 0.37346 0.38022 0.94736 0.0
H456 H 0.40895 0.29975 0.92505 0.0
H457 H 0.41613 0.31028 0.84148 0.0
C458 C 0.34262 0.30935 0.633 0.0
C459 C 0.35925 0.30033 0.59607 0.0
C460 C 0.35435 0.32246 0.67323 0.0
C461 C 0.38279 0.3266 0.67684 0.0
C462 C 0.39953 0.31514 0.64205 0.0
C463 C 0.38784 0.30227 0.6018 0.0
C464 C 0.39463 0.34604 0.71311 0.0
C465 C 0.39197 0.34028 0.76102 0.0
C466 C 0.40848 0.37042 0.70005 0.0
C467 C 0.41041 0.37839 0.64993 0.0
C468 C 0.43614 0.38208 0.62993 0.0
C469 C 0.43799 0.3885 0.58224 0.0
C470 C 0.41422 0.39139 0.55422 0.0
C471 C 0.38855 0.38811 0.57394 0.0
C472 C 0.3866 0.38182 0.62165 0.0
C473 C 0.463 0.40816 0.88604 0.0
C474 C 0.45765 0.43683 0.88601 0.0
C475 C 0.45038 0.39037 0.85246 0.0
C476 C 0.43183 0.40079 0.81862 0.0
C477 C 0.4267 0.42944 0.81814 0.0
C478 C 0.43951 0.44731 0.85146 0.0
C479 C 0.41811 0.38192 0.78322 0.0
C480 C 0.42034 0.38783 0.73522 0.0
C481 C 0.40334 0.35806 0.79634 0.0
C482 C 0.39886 0.35158 0.84649 0.0
C483 C 0.38665 0.37115 0.8768 0.0
C484 C 0.38277 0.36504 0.92415 0.0
C485 C 0.39084 0.33934 0.94153 0.0
C486 C 0.40273 0.31966 0.91155 0.0
C487 C 0.40668 0.32568 0.86418 0.0
H488 H 0.38783 0.33465 0.9782 0.0
H489 H 0.4157 0.39622 0.51726 0.0
H490 H 0.58521 0.70463 0.45967 0.0
H491 H 0.57269 0.67492 0.39152 0.0
H492 H 0.65729 0.6711 0.35246 0.0
H493 H 0.6702 0.70028 0.42147 0.0
H494 H 0.61825 0.67772 0.27447 0.0
H495 H 0.6363 0.619 0.40561 0.0
H496 H 0.6326 0.6045 0.48805 0.0
H497 H 0.54582 0.59349 0.4675 0.0
H498 H 0.54896 0.60831 0.38502 0.0
H499 H 0.59028 0.56235 0.11628 0.0
H500 H 0.61137 0.59196 0.17858 0.0
H501 H 0.53442 0.59586 0.24954 0.0
H502 H 0.51336 0.56603 0.18823 0.0
H503 H 0.57557 0.58737 0.31096 0.0
H504 H 0.55693 0.64933 0.1821 0.0
H505 H 0.56008 0.66529 0.10034 0.0
H506 H 0.64756 0.67087 0.11673 0.0
H507 H 0.64495 0.65457 0.19844 0.0
C508 C 0.60118 0.69753 0.43659 0.0
C509 C 0.62874 0.70454 0.44633 0.0
C510 C 0.59397 0.68069 0.39757 0.0
C511 C 0.61413 0.67062 0.36743 0.0
C512 C 0.64147 0.67872 0.37543 0.0
C513 C 0.64877 0.69546 0.41475 0.0
C514 C 0.60661 0.6503 0.32943 0.0
C515 C 0.60935 0.65775 0.28227 0.0
C516 C 0.59478 0.62444 0.33992 0.0
C517 C 0.59284 0.61498 0.38923 0.0
C518 C 0.6164 0.61366 0.41875 0.0
C519 C 0.61441 0.60537 0.46549 0.0
C520 C 0.58898 0.59816 0.48307 0.0
C521 C 0.5655 0.59911 0.45385 0.0
C522 C 0.56738 0.60741 0.40707 0.0
C523 C 0.57787 0.56945 0.14522 0.0
C524 C 0.5501 0.56186 0.14716 0.0
C525 C 0.58994 0.58645 0.18069 0.0
C526 C 0.57438 0.59631 0.21845 0.0
C527 C 0.54681 0.58845 0.22075 0.0
C528 C 0.53478 0.57143 0.18552 0.0
C529 C 0.58653 0.61499 0.25569 0.0
C530 C 0.58474 0.60719 0.30293 0.0
C531 C 0.59919 0.64051 0.24517 0.0
C532 C 0.60076 0.65043 0.19616 0.0
C533 C 0.57685 0.65375 0.16813 0.0
C534 C 0.57853 0.66289 0.12183 0.0
C535 C 0.60401 0.66901 0.1033 0.0
C536 C 0.62785 0.66607 0.13109 0.0
C537 C 0.62628 0.6569 0.17741 0.0
H538 H 0.60527 0.67608 0.06744 0.0
H539 H 0.58747 0.59178 0.51929 0.0
H540 H 0.85595 0.15488 0.93169 0.0
H541 H 0.87623 0.13344 0.86259 0.0
H542 H 0.89554 0.21436 0.81008 0.0
H543 H 0.8759 0.23614 0.8808 0.0
H544 H 0.86422 0.135 0.77243 0.0
H545 H 0.95638 0.20721 0.74893 0.0
H546 H 0.98558 0.24011 0.7957 0.0
H547 H 0.96989 0.19536 0.92153 0.0
H548 H 0.9409 0.16204 0.87541 0.0
H549 H 0.92971 0.08396 0.5714 0.0
H550 H 0.91052 0.11756 0.62685 0.0
H551 H 0.97195 0.0958 0.73179 0.0
H552 H 0.99198 0.06277 0.67563 0.0
H553 H 0.96202 0.14989 0.73716 0.0
H554 H 0.90738 0.06624 0.72933 0.0
H555 H 0.87976 0.02931 0.68932 0.0
H556 H 0.82264 0.09009 0.63877 0.0
H557 H 0.85014 0.12742 0.67802 0.0
C558 C 0.86467 0.16817 0.90563 0.0
C559 C 0.86478 0.19717 0.91198 0.0
C560 C 0.87601 0.15589 0.8659 0.0
C561 C 0.8876 0.17227 0.83139 0.0
C562 C 0.88697 0.20134 0.83664 0.0
C563 C 0.87561 0.21374 0.87676 0.0
C564 C 0.90078 0.15836 0.79085 0.0
C565 C 0.88552 0.1385 0.76438 0.0
C566 C 0.92866 0.16266 0.78076 0.0
C567 C 0.94621 0.1824 0.80881 0.0
C568 C 0.95922 0.2044 0.78656 0.0
C569 C 0.97573 0.2231 0.81295 0.0
C570 C 0.9795 0.2199 0.86159 0.0
C571 C 0.96686 0.1979 0.8839 0.0
C572 C 0.95036 0.17912 0.85766 0.0
C573 C 0.93925 0.08643 0.60621 0.0
C574 C 0.96208 0.07042 0.61952 0.0
C575 C 0.92828 0.10568 0.63781 0.0
C576 C 0.93947 0.1088 0.68373 0.0
C577 C 0.96297 0.09368 0.69652 0.0
C578 C 0.97429 0.07472 0.66455 0.0
C579 C 0.92554 0.12624 0.71939 0.0
C580 C 0.94059 0.14679 0.74469 0.0
C581 C 0.89762 0.12205 0.72945 0.0
C582 C 0.88096 0.09962 0.70616 0.0
C583 C 0.88902 0.07173 0.70943 0.0
C584 C 0.87338 0.05073 0.68692 0.0
C585 C 0.84951 0.05736 0.6614 0.0
C586 C 0.84117 0.08499 0.65847 0.0
C587 C 0.85676 0.10608 0.68086 0.0
H588 H 0.83743 0.04107 0.64399 0.0
H589 H 0.99227 0.23441 0.88195 0.0
H590 H 0.35444 0.28254 0.37644 0.0
H591 H 0.37269 0.30857 0.31093 0.0
H592 H 0.37147 0.38379 0.39632 0.0
H593 H 0.35276 0.35805 0.46151 0.0
H594 H 0.35363 0.39205 0.30448 0.0
H595 H 0.42956 0.34915 0.38688 0.0
H596 H 0.45499 0.30981 0.42054 0.0
H597 H 0.45804 0.2707 0.28313 0.0
H598 H 0.43226 0.30967 0.24875 0.0
H599 H 0.44755 0.47708 0.18893 0.0
H600 H 0.42347 0.44945 0.24589 0.0
H601 H 0.43389 0.37615 0.15807 0.0
H602 H 0.45858 0.40349 0.10136 0.0
H603 H 0.44516 0.3652 0.24735 0.0
H604 H 0.37168 0.40965 0.16368 0.0
H605 H 0.34615 0.44899 0.13018 0.0
H606 H 0.33809 0.4851 0.26898 0.0
H607 H 0.36391 0.44616 0.30328 0.0
C608 C 0.35767 0.3047 0.38092 0.0
C609 C 0.35242 0.31824 0.42415 0.0
C610 C 0.36823 0.31948 0.34365 0.0
C611 C 0.37369 0.34801 0.34907 0.0
C612 C 0.36745 0.36177 0.39152 0.0
C613 C 0.357 0.34701 0.42881 0.0
C614 C 0.38711 0.36336 0.31141 0.0
C615 C 0.37372 0.38636 0.29215 0.0
C616 C 0.41306 0.35549 0.29479 0.0
C617 C 0.42873 0.33217 0.31534 0.0
C618 C 0.43547 0.33206 0.36391 0.0
C619 C 0.44997 0.30985 0.38311 0.0
C620 C 0.45806 0.28773 0.35401 0.0
C621 C 0.45172 0.28782 0.30563 0.0
C622 C 0.43718 0.30997 0.28626 0.0
C623 C 0.44471 0.45509 0.18165 0.0
C624 C 0.45496 0.44251 0.14053 0.0
C625 C 0.4308 0.43935 0.21414 0.0
C626 C 0.42651 0.41082 0.20585 0.0
C627 C 0.43691 0.39815 0.16507 0.0
C628 C 0.45101 0.41383 0.1327 0.0
C629 C 0.41177 0.39408 0.24035 0.0
C630 C 0.42494 0.37081 0.25918 0.0
C631 C 0.3856 0.40171 0.25649 0.0
C632 C 0.36993 0.42509 0.236 0.0
C633 C 0.36463 0.42608 0.18703 0.0
C634 C 0.35008 0.44829 0.1679 0.0
C635 C 0.34056 0.46956 0.19742 0.0
C636 C 0.3455 0.46862 0.24616 0.0
C637 C 0.36007 0.44647 0.26546 0.0
H638 H 0.3293 0.48674 0.18254 0.0
H639 H 0.46929 0.27055 0.36894 0.0
H640 H 0.10235 0.79346 0.91844 0.0
H641 H 0.08368 0.81866 0.8504 0.0
H642 H 0.16322 0.85445 0.82872 0.0
H643 H 0.18216 0.82858 0.89585 0.0
H644 H 0.11057 0.89167 0.84433 0.0
H645 H 0.15084 0.81744 0.75086 0.0
H646 H 0.15846 0.7683 0.72915 0.0
H647 H 0.07223 0.75704 0.70174 0.0
H648 H 0.06405 0.80605 0.72404 0.0
H649 H 0.07653 0.97001 0.6438 0.0
H650 H 0.09946 0.94091 0.70208 0.0
H651 H 0.03699 0.87809 0.67936 0.0
H652 H 0.01485 0.90653 0.61917 0.0
H653 H 0.08286 0.85373 0.6859 0.0
H654 H 0.04011 0.92408 0.77949 0.0
H655 H 0.02838 0.9716 0.80576 0.0
H656 H 0.1131 0.98866 0.83908 0.0
H657 H 0.12539 0.94134 0.81242 0.0
C658 C 0.11588 0.80627 0.89841 0.0
C659 C 0.14362 0.80911 0.91185 0.0
C660 C 0.10526 0.82058 0.85978 0.0
C661 C 0.12217 0.83826 0.83481 0.0
C662 C 0.15001 0.84072 0.84762 0.0
C663 C 0.16077 0.82594 0.88562 0.0
C664 C 0.11019 0.8558 0.79778 0.0
C665 C 0.10489 0.88363 0.80932 0.0
C666 C 0.1019 0.84476 0.75313 0.0
C667 C 0.10681 0.81532 0.73966 0.0
C668 C 0.13347 0.80441 0.74073 0.0
C669 C 0.1379 0.7766 0.72818 0.0
C670 C 0.11584 0.75953 0.71422 0.0
C671 C 0.0893 0.77027 0.71264 0.0
C672 C 0.08476 0.79807 0.72519 0.0
C673 C 0.06765 0.95004 0.65143 0.0
C674 C 0.04385 0.94056 0.62719 0.0
C675 C 0.08071 0.93345 0.68488 0.0
C676 C 0.06972 0.90746 0.69578 0.0
C677 C 0.0459 0.89802 0.67156 0.0
C678 C 0.03319 0.91433 0.63733 0.0
C679 C 0.08317 0.88999 0.73208 0.0
C680 C 0.08863 0.86205 0.72066 0.0
C681 C 0.09101 0.90078 0.77741 0.0
C682 C 0.0837 0.92926 0.79349 0.0
C683 C 0.05626 0.93804 0.79208 0.0
C684 C 0.04951 0.96492 0.8071 0.0
C685 C 0.06999 0.98316 0.82395 0.0
C686 C 0.09726 0.97453 0.82594 0.0
C687 C 0.10414 0.94767 0.81092 0.0
H688 H 0.06472 0.00397 0.83557 0.0
H689 H 0.11931 0.73801 0.70449 0.0
loop_
_geom_bond_atom_site_label_1
_geom_bond_atom_site_label_2
_geom_bond_distance
_geom_bond_site_symmetry_2
_ccdc_geom_bond_type
H0 C5 0.929 . S
H1 C10 0.931 . S
H2 C8 0.930 . S
N3 N4 1.234 1_556 S
N3 C7 1.453 . S
N4 N3 1.234 1_554 S
C5 H0 0.929 . S
C5 C6 1.373 . S
C5 C7 1.368 . S
C6 C5 1.373 . S
C6 C10 1.397 1_556 S
C7 N3 1.453 . S
C7 C5 1.368 . S
C7 C8 1.373 1_556 S
C8 H2 0.930 . S
C8 C7 1.373 1_554 S
C8 C9 1.371 . S
C9 C8 1.371 . S
C9 C10 1.383 . S
C10 H1 0.931 . S
C10 C6 1.397 1_554 S
C10 C9 1.383 . S
H11 C16 0.929 . S
H12 C21 0.931 . S
H13 C19 0.930 . S
N14 N15 1.234 . S
N14 C18 1.453 . S
N15 N14 1.234 . S
C16 H11 0.929 . S
C16 C17 1.373 . S
C16 C18 1.368 . S
C17 C16 1.373 . S
C17 C21 1.397 . S
C18 N14 1.453 . S
C18 C16 1.368 . S
C18 C19 1.373 . S
C19 H13 0.930 . S
C19 C18 1.373 . S
C19 C20 1.371 . S
C20 C19 1.371 . S
C20 C21 1.383 . S
C21 H12 0.931 . S
C21 C17 1.397 . S
C21 C20 1.383 . S
H22 C27 0.929 . S
H23 C32 0.931 . S
H24 C30 0.930 . S
N25 N26 1.234 1_556 S
N25 C29 1.453 . S
N26 N25 1.234 1_554 S
C27 H22 0.929 . S
C27 C28 1.373 . S
C27 C29 1.368 . S
C28 C27 1.373 . S
C28 C32 1.397 1_556 S
C29 N25 1.453 . S
C29 C27 1.368 . S
C29 C30 1.373 1_556 S
C30 H24 0.930 . S
C30 C29 1.373 1_554 S
C30 C31 1.371 . S
C31 C30 1.371 . S
C31 C32 1.383 . S
C32 H23 0.931 . S
C32 C28 1.397 1_554 S
C32 C31 1.383 . S
H33 C38 0.929 . S
H34 C43 0.931 . S
H35 C41 0.930 . S
N36 N37 1.234 . S
N36 C40 1.453 . S
N37 N36 1.234 . S
C38 H33 0.929 . S
C38 C39 1.373 . S
C38 C40 1.368 . S
C39 C38 1.373 . S
C39 C43 1.397 . S
C40 N36 1.453 . S
C40 C38 1.368 . S
C40 C41 1.373 . S
C41 H35 0.930 . S
C41 C40 1.373 . S
C41 C42 1.371 . S
C42 C41 1.371 . S
C42 C43 1.383 . S
C43 H34 0.931 . S
C43 C39 1.397 . S
C43 C42 1.383 . S
O44 Zn45 1.953 1_565 S
O44 C60 1.225 . S
Zn45 O44 1.953 1_545 S
Zn45 O46 1.949 1_655 S
Zn45 O52 1.919 . S
Zn45 O57 1.924 . S
O46 Zn45 1.949 1_455 S
O46 Zn47 1.923 . S
O46 Zn48 1.950 1_545 S
O46 Zn49 1.945 . S
Zn47 O46 1.923 . S
Zn47 O50 1.933 . S
Zn47 O53 1.964 . S
Zn47 O54 1.965 1_545 S
Zn48 O46 1.950 1_565 S
Zn48 O55 1.938 . S
Zn48 O56 1.906 . S
Zn48 O66 1.953 1_455 S
Zn49 O46 1.945 . S
Zn49 O51 1.932 . S
Zn49 O58 1.977 1_545 S
Zn49 O59 1.910 1_455 S
O50 Zn47 1.933 . S
O50 C61 1.226 . S
O51 Zn49 1.932 . S
O51 C61 1.307 . S
O52 Zn45 1.919 . S
O52 C63 1.253 . S
O53 Zn47 1.964 . S
O53 C63 1.251 1_455 S
O54 Zn47 1.965 1_565 S
O54 C62 1.303 . S
O55 Zn48 1.938 . S
O55 C62 1.247 . S
O56 Zn48 1.906 . S
O56 C64 1.304 . S
O57 Zn45 1.924 . S
O57 C65 1.311 . S
O58 Zn49 1.977 1_565 S
O58 C64 1.272 . S
O59 Zn49 1.910 1_655 S
O59 C65 1.231 . S
C60 O44 1.225 . S
C60 O66 1.298 . S
C61 O50 1.226 . S
C61 O51 1.307 . S
C62 O54 1.303 . S
C62 O55 1.247 . S
C63 O52 1.253 . S
C63 O53 1.251 1_655 S
C64 O56 1.304 . S
C64 O58 1.272 . S
C65 O57 1.311 . S
C65 O59 1.231 . S
O66 Zn48 1.953 1_655 S
O66 C60 1.298 . S
O67 Zn68 1.953 . S
O67 C83 1.225 . S
Zn68 O67 1.953 . S
Zn68 O69 1.949 . S
Zn68 O75 1.919 1_554 S
Zn68 O80 1.924 . S
O69 Zn68 1.949 . S
O69 Zn70 1.923 1_554 S
O69 Zn71 1.950 . S
O69 Zn72 1.945 . S
Zn70 O69 1.923 1_556 S
Zn70 O73 1.933 . S
Zn70 O76 1.941 . S
Zn70 O77 1.965 . S
Zn71 O69 1.950 . S
Zn71 O78 1.938 1_554 S
Zn71 O79 1.906 . S
Zn71 O89 1.953 . S
Zn72 O69 1.945 . S
Zn72 O74 1.932 . S
Zn72 O81 1.977 . S
Zn72 O82 1.910 . S
O73 Zn70 1.933 . S
O73 C84 1.226 1_556 S
O74 Zn72 1.932 . S
O74 C84 1.307 . S
O75 Zn68 1.919 1_556 S
O75 C86 1.253 . S
O76 Zn70 1.941 . S
O76 C86 1.283 . S
O77 Zn70 1.965 . S
O77 C85 1.303 . S
O78 Zn71 1.938 1_556 S
O78 C85 1.247 . S
O79 Zn71 1.906 . S
O79 C87 1.304 . S
O80 Zn68 1.924 . S
O80 C88 1.311 . S
O81 Zn72 1.977 . S
O81 C87 1.272 . S
O82 Zn72 1.910 . S
O82 C88 1.231 . S
C83 O67 1.225 . S
C83 O89 1.298 . S
C84 O73 1.226 1_554 S
C84 O74 1.307 . S
C85 O77 1.303 . S
C85 O78 1.247 . S
C86 O75 1.253 . S
C86 O76 1.283 . S
C87 O79 1.304 . S
C87 O81 1.272 . S
C88 O80 1.311 . S
C88 O82 1.231 . S
O89 Zn71 1.953 . S
O89 C83 1.298 . S
H90 C108 0.951 . S
H91 C110 0.951 . S
H92 C112 0.950 . S
H93 C113 0.950 . S
H94 C115 0.950 . S
H95 C118 0.950 . S
H96 C119 0.950 . S
H97 C121 0.950 . S
H98 C122 0.950 . S
H99 C123 0.951 . S
H100 C125 0.951 . S
H101 C127 0.950 . S
H102 C128 0.950 . S
H103 C130 0.950 . S
H104 C133 0.950 . S
H105 C134 0.950 . S
H106 C136 0.950 . S
H107 C137 0.950 . S
C108 H90 0.951 . S
C108 C109 1.366 . S
C108 C110 1.388 . S
C109 C108 1.366 . S
C109 C113 1.385 . S
C110 H91 0.951 . S
C110 C108 1.388 . S
C110 C111 1.366 . S
C111 C110 1.366 . S
C111 C112 1.414 . S
C111 C114 1.499 . S
C112 H92 0.950 . S
C112 C111 1.414 . S
C112 C113 1.374 . S
C113 H93 0.950 . S
C113 C109 1.385 . S
C113 C112 1.374 . S
C114 C111 1.499 . S
C114 C115 1.373 . S
C114 C116 1.389 . S
C115 H94 0.950 . S
C115 C114 1.373 . S
C115 C131 1.377 . S
C116 C114 1.389 . S
C116 C117 1.524 . S
C116 C130 1.377 . S
C117 C116 1.524 . S
C117 C118 1.397 . S
C117 C122 1.363 . S
C118 H95 0.950 . S
C118 C117 1.397 . S
C118 C119 1.334 . S
C119 H96 0.950 . S
C119 C118 1.334 . S
C119 C120 1.287 . S
C120 C119 1.287 . S
C120 C121 1.524 . S
C120 H139 0.913 . S
C121 H97 0.950 . S
C121 C120 1.524 . S
C121 C122 1.415 . S
C122 H98 0.950 . S
C122 C117 1.363 . S
C122 C121 1.415 . S
C123 H99 0.951 . S
C123 C124 1.366 . S
C123 C125 1.388 . S
C124 C123 1.366 . S
C124 C128 1.385 . S
C125 H100 0.951 . S
C125 C123 1.388 . S
C125 C126 1.366 . S
C126 C125 1.366 . S
C126 C127 1.414 . S
C126 C129 1.499 . S
C127 H101 0.950 . S
C127 C126 1.414 . S
C127 C128 1.374 . S
C128 H102 0.950 . S
C128 C124 1.385 . S
C128 C127 1.374 . S
C129 C126 1.499 . S
C129 C130 1.373 . S
C129 C131 1.389 . S
C130 H103 0.950 . S
C130 C116 1.377 . S
C130 C129 1.373 . S
C131 C115 1.377 . S
C131 C129 1.389 . S
C131 C132 1.524 . S
C132 C131 1.524 . S
C132 C133 1.397 . S
C132 C137 1.363 . S
C133 H104 0.950 . S
C133 C132 1.397 . S
C133 C134 1.334 . S
C134 H105 0.950 . S
C134 C133 1.334 . S
C134 C135 1.287 . S
C135 C134 1.287 . S
C135 C136 1.524 . S
C135 H138 0.999 . S
C136 H106 0.950 . S
C136 C135 1.524 . S
C136 C137 1.415 . S
C137 H107 0.950 . S
C137 C132 1.363 . S
C137 C136 1.415 . S
H138 C135 0.999 . S
H139 C120 0.913 . S
H140 C158 0.951 . S
H141 C160 0.951 . S
H142 C162 0.950 . S
H143 C163 0.950 . S
H144 C165 0.950 . S
H145 C168 0.950 . S
H146 C169 0.950 . S
H147 C171 0.950 . S
H148 C172 0.950 . S
H149 C173 0.951 . S
H150 C175 0.951 . S
H151 C177 0.950 . S
H152 C178 0.950 . S
H153 C180 0.950 . S
H154 C183 0.950 . S
H155 C184 0.950 . S
H156 C186 0.950 . S
H157 C187 0.950 . S
C158 H140 0.951 . S
C158 C159 1.366 . S
C158 C160 1.388 . S
C159 C158 1.366 . S
C159 C163 1.385 . S
C160 H141 0.951 . S
C160 C158 1.388 . S
C160 C161 1.366 . S
C161 C160 1.366 . S
C161 C162 1.414 . S
C161 C164 1.499 . S
C162 H142 0.950 . S
C162 C161 1.414 . S
C162 C163 1.374 . S
C163 H143 0.950 . S
C163 C159 1.385 . S
C163 C162 1.374 . S
C164 C161 1.499 . S
C164 C165 1.373 1_554 S
C164 C166 1.389 . S
C165 H144 0.950 . S
C165 C164 1.373 1_556 S
C165 C181 1.377 . S
C166 C164 1.389 . S
C166 C167 1.524 . S
C166 C180 1.377 . S
C167 C166 1.524 . S
C167 C168 1.397 . S
C167 C172 1.363 . S
C168 H145 0.950 . S
C168 C167 1.397 . S
C168 C169 1.334 . S
C169 H146 0.950 . S
C169 C168 1.334 . S
C169 C170 1.287 . S
C170 C169 1.287 . S
C170 C171 1.524 . S
C170 H189 0.913 . S
C171 H147 0.950 . S
C171 C170 1.524 . S
C171 C172 1.415 . S
C172 H148 0.950 . S
C172 C167 1.363 . S
C172 C171 1.415 . S
C173 H149 0.951 . S
C173 C174 1.366 . S
C173 C175 1.388 . S
C174 C173 1.366 . S
C174 C178 1.385 . S
C175 H150 0.951 . S
C175 C173 1.388 . S
C175 C176 1.366 . S
C176 C175 1.366 . S
C176 C177 1.414 . S
C176 C179 1.499 . S
C177 H151 0.950 . S
C177 C176 1.414 . S
C177 C178 1.374 . S
C178 H152 0.950 . S
C178 C174 1.385 . S
C178 C177 1.374 . S
C179 C176 1.499 . S
C179 C180 1.373 . S
C179 C181 1.389 1_554 S
C180 H153 0.950 . S
C180 C166 1.377 . S
C180 C179 1.373 . S
C181 C165 1.377 . S
C181 C179 1.389 1_556 S
C181 C182 1.524 . S
C182 C181 1.524 . S
C182 C183 1.397 . S
C182 C187 1.363 . S
C183 H154 0.950 . S
C183 C182 1.397 . S
C183 C184 1.334 . S
C184 H155 0.950 . S
C184 C183 1.334 . S
C184 C185 1.287 . S
C185 C184 1.287 . S
C185 C186 1.524 . S
C185 H188 0.999 . S
C186 H156 0.950 . S
C186 C185 1.524 . S
C186 C187 1.415 . S
C187 H157 0.950 . S
C187 C182 1.363 . S
C187 C186 1.415 . S
H188 C185 0.999 . S
H189 C170 0.913 . S
H190 C208 0.951 . S
H191 C210 0.951 . S
H192 C212 0.950 . S
H193 C213 0.950 . S
H194 C215 0.950 . S
H195 C218 0.950 . S
H196 C219 0.950 . S
H197 C221 0.950 . S
H198 C222 0.950 . S
H199 C223 0.951 . S
H200 C225 0.951 . S
H201 C227 0.950 . S
H202 C228 0.950 . S
H203 C230 0.950 . S
H204 C233 0.950 . S
H205 C234 0.950 . S
H206 C236 0.950 . S
H207 C237 0.950 . S
C208 H190 0.951 . S
C208 C209 1.366 . S
C208 C210 1.388 . S
C209 C208 1.366 . S
C209 C213 1.385 . S
C210 H191 0.951 . S
C210 C208 1.388 . S
C210 C211 1.366 . S
C211 C210 1.366 . S
C211 C212 1.414 . S
C211 C214 1.499 . S
C212 H192 0.950 . S
C212 C211 1.414 . S
C212 C213 1.374 . S
C213 H193 0.950 . S
C213 C209 1.385 . S
C213 C212 1.374 . S
C214 C211 1.499 . S
C214 C215 1.373 . S
C214 C216 1.389 . S
C215 H194 0.950 . S
C215 C214 1.373 . S
C215 C231 1.377 . S
C216 C214 1.389 . S
C216 C217 1.524 . S
C216 C230 1.377 . S
C217 C216 1.524 . S
C217 C218 1.397 . S
C217 C222 1.363 . S
C218 H195 0.950 . S
C218 C217 1.397 . S
C218 C219 1.334 . S
C219 H196 0.950 . S
C219 C218 1.334 . S
C219 C220 1.287 . S
C220 C219 1.287 . S
C220 C221 1.524 . S
C220 H239 0.913 . S
C221 H197 0.950 . S
C221 C220 1.524 . S
C221 C222 1.415 . S
C222 H198 0.950 . S
C222 C217 1.363 . S
C222 C221 1.415 . S
C223 H199 0.951 . S
C223 C224 1.366 . S
C223 C225 1.388 . S
C224 C223 1.366 . S
C224 C228 1.385 . S
C225 H200 0.951 . S
C225 C223 1.388 . S
C225 C226 1.366 . S
C226 C225 1.366 . S
C226 C227 1.414 . S
C226 C229 1.499 . S
C227 H201 0.950 . S
C227 C226 1.414 . S
C227 C228 1.374 . S
C228 H202 0.950 . S
C228 C224 1.385 . S
C228 C227 1.374 . S
C229 C226 1.499 . S
C229 C230 1.373 . S
C229 C231 1.389 . S
C230 H203 0.950 . S
C230 C216 1.377 . S
C230 C229 1.373 . S
C231 C215 1.377 . S
C231 C229 1.389 . S
C231 C232 1.524 . S
C232 C231 1.524 . S
C232 C233 1.397 . S
C232 C237 1.363 . S
C233 H204 0.950 . S
C233 C232 1.397 . S
C233 C234 1.334 . S
C234 H205 0.950 . S
C234 C233 1.334 . S
C234 C235 1.287 . S
C235 C234 1.287 . S
C235 C236 1.524 . S
C235 H238 0.999 . S
C236 H206 0.950 . S
C236 C235 1.524 . S
C236 C237 1.415 . S
C237 H207 0.950 . S
C237 C232 1.363 . S
C237 C236 1.415 . S
H238 C235 0.999 . S
H239 C220 0.913 . S
H240 C258 0.951 . S
H241 C260 0.951 . S
H242 C262 0.950 . S
H243 C263 0.950 . S
H244 C265 0.950 . S
H245 C268 0.950 . S
H246 C269 0.950 . S
H247 C271 0.950 . S
H248 C272 0.950 . S
H249 C273 0.951 . S
H250 C275 0.951 . S
H251 C277 0.950 . S
H252 C278 0.950 . S
H253 C280 0.950 . S
H254 C283 0.950 . S
H255 C284 0.950 . S
H256 C286 0.950 . S
H257 C287 0.950 . S
C258 H240 0.951 . S
C258 C259 1.366 1_556 S
C258 C260 1.388 . S
C259 C258 1.366 1_554 S
C259 C263 1.385 . S
C260 H241 0.951 . S
C260 C258 1.388 . S
C260 C261 1.366 1_556 S
C261 C260 1.366 1_554 S
C261 C262 1.414 . S
C261 C264 1.499 . S
C262 H242 0.950 . S
C262 C261 1.414 . S
C262 C263 1.374 . S
C263 H243 0.950 . S
C263 C259 1.385 . S
C263 C262 1.374 . S
C264 C261 1.499 . S
C264 C265 1.373 . S
C264 C266 1.389 . S
C265 H244 0.950 . S
C265 C264 1.373 . S
C265 C281 1.377 . S
C266 C264 1.389 . S
C266 C267 1.524 . S
C266 C280 1.377 . S
C267 C266 1.524 . S
C267 C268 1.397 . S
C267 C272 1.363 . S
C268 H245 0.950 . S
C268 C267 1.397 . S
C268 C269 1.334 . S
C269 H246 0.950 . S
C269 C268 1.334 . S
C269 C270 1.287 . S
C270 C269 1.287 . S
C270 C271 1.524 . S
C270 H289 0.913 . S
C271 H247 0.950 . S
C271 C270 1.524 . S
C271 C272 1.415 . S
C272 H248 0.950 . S
C272 C267 1.363 . S
C272 C271 1.415 . S
C273 H249 0.951 . S
C273 C274 1.366 . S
C273 C275 1.388 . S
C274 C273 1.366 . S
C274 C278 1.385 1_554 S
C275 H250 0.951 . S
C275 C273 1.388 . S
C275 C276 1.366 . S
C276 C275 1.366 . S
C276 C277 1.414 1_554 S
C276 C279 1.499 . S
C277 H251 0.950 . S
C277 C276 1.414 1_556 S
C277 C278 1.374 . S
C278 H252 0.950 . S
C278 C274 1.385 1_556 S
C278 C277 1.374 . S
C279 C276 1.499 . S
C279 C280 1.373 . S
C279 C281 1.389 . S
C280 H253 0.950 . S
C280 C266 1.377 . S
C280 C279 1.373 . S
C281 C265 1.377 . S
C281 C279 1.389 . S
C281 C282 1.524 1_554 S
C282 C281 1.524 1_556 S
C282 C283 1.397 . S
C282 C287 1.363 1_556 S
C283 H254 0.950 . S
C283 C282 1.397 . S
C283 C284 1.334 . S
C284 H255 0.950 . S
C284 C283 1.334 . S
C284 C285 1.287 . S
C285 C284 1.287 . S
C285 C286 1.524 . S
C285 H288 0.999 . S
C286 H256 0.950 . S
C286 C285 1.524 . S
C286 C287 1.415 1_556 S
C287 H257 0.950 . S
C287 C282 1.363 1_554 S
C287 C286 1.415 1_554 S
H288 C285 0.999 . S
H289 C270 0.913 . S
H290 C308 0.951 . S
H291 C310 0.951 . S
H292 C312 0.950 . S
H293 C313 0.950 . S
H294 C315 0.950 . S
H295 C318 0.950 . S
H296 C319 0.950 . S
H297 C321 0.950 . S
H298 C322 0.950 . S
H299 C323 0.951 . S
H300 C325 0.951 . S
H301 C327 0.950 . S
H302 C328 0.950 . S
H303 C330 0.950 . S
H304 C333 0.950 . S
H305 C334 0.950 1_545 S
H306 C336 0.950 1_545 S
H307 C337 0.950 . S
C308 H290 0.951 . S
C308 C309 1.366 . S
C308 C310 1.388 . S
C309 C308 1.366 . S
C309 C313 1.385 . S
C310 H291 0.951 . S
C310 C308 1.388 . S
C310 C311 1.366 . S
C311 C310 1.366 . S
C311 C312 1.414 . S
C311 C314 1.499 . S
C312 H292 0.950 . S
C312 C311 1.414 . S
C312 C313 1.374 . S
C313 H293 0.950 . S
C313 C309 1.385 . S
C313 C312 1.374 . S
C314 C311 1.499 . S
C314 C315 1.373 . S
C314 C316 1.389 . S
C315 H294 0.950 . S
C315 C314 1.373 . S
C315 C331 1.377 . S
C316 C314 1.389 . S
C316 C317 1.524 . S
C316 C330 1.377 . S
C317 C316 1.524 . S
C317 C318 1.397 . S
C317 C322 1.363 . S
C318 H295 0.950 . S
C318 C317 1.397 . S
C318 C319 1.334 . S
C319 H296 0.950 . S
C319 C318 1.334 . S
C319 C320 1.287 . S
C320 C319 1.287 . S
C320 C321 1.524 . S
C320 H339 0.913 . S
C321 H297 0.950 . S
C321 C320 1.524 . S
C321 C322 1.415 . S
C322 H298 0.950 . S
C322 C317 1.363 . S
C322 C321 1.415 . S
C323 H299 0.951 . S
C323 C324 1.366 . S
C323 C325 1.388 . S
C324 C323 1.366 . S
C324 C328 1.385 . S
C325 H300 0.951 . S
C325 C323 1.388 . S
C325 C326 1.366 . S
C326 C325 1.366 . S
C326 C327 1.414 . S
C326 C329 1.499 . S
C327 H301 0.950 . S
C327 C326 1.414 . S
C327 C328 1.374 . S
C328 H302 0.950 . S
C328 C324 1.385 . S
C328 C327 1.374 . S
C329 C326 1.499 . S
C329 C330 1.373 . S
C329 C331 1.389 . S
C330 H303 0.950 . S
C330 C316 1.377 . S
C330 C329 1.373 . S
C331 C315 1.377 . S
C331 C329 1.389 . S
C331 C332 1.524 . S
C332 C331 1.524 . S
C332 C333 1.397 . S
C332 C337 1.363 . S
C333 H304 0.950 . S
C333 C332 1.397 . S
C333 C334 1.334 . S
C334 H305 0.950 1_565 S
C334 C333 1.334 . S
C334 C335 1.287 1_565 S
C335 C334 1.287 1_545 S
C335 C336 1.524 1_545 S
C335 H338 0.999 . S
C336 H306 0.950 1_565 S
C336 C335 1.524 1_565 S
C336 C337 1.415 . S
C337 H307 0.950 . S
C337 C332 1.363 . S
C337 C336 1.415 . S
H338 C335 0.999 . S
H339 C320 0.913 . S
H340 C358 0.951 . S
H341 C360 0.951 . S
H342 C362 0.950 . S
H343 C363 0.950 . S
H344 C365 0.950 . S
H345 C368 0.950 . S
H346 C369 0.950 . S
H347 C371 0.950 . S
H348 C372 0.950 . S
H349 C373 0.951 . S
H350 C375 0.951 . S
H351 C377 0.950 . S
H352 C378 0.950 . S
H353 C380 0.950 . S
H354 C383 0.950 . S
H355 C384 0.950 . S
H356 C386 0.950 . S
H357 C387 0.950 . S
C358 H340 0.951 . S
C358 C359 1.366 . S
C358 C360 1.388 . S
C359 C358 1.366 . S
C359 C363 1.385 . S
C360 H341 0.951 . S
C360 C358 1.388 . S
C360 C361 1.366 . S
C361 C360 1.366 . S
C361 C362 1.414 . S
C361 C364 1.499 . S
C362 H342 0.950 . S
C362 C361 1.414 . S
C362 C363 1.374 . S
C363 H343 0.950 . S
C363 C359 1.385 . S
C363 C362 1.374 . S
C364 C361 1.499 . S
C364 C365 1.373 . S
C364 C366 1.389 . S
C365 H344 0.950 . S
C365 C364 1.373 . S
C365 C381 1.377 . S
C366 C364 1.389 . S
C366 C367 1.524 . S
C366 C380 1.377 . S
C367 C366 1.524 . S
C367 C368 1.397 . S
C367 C372 1.363 . S
C368 H345 0.950 . S
C368 C367 1.397 . S
C368 C369 1.334 . S
C369 H346 0.950 . S
C369 C368 1.334 . S
C369 C370 1.287 . S
C370 C369 1.287 . S
C370 C371 1.524 . S
C370 H389 0.913 . S
C371 H347 0.950 . S
C371 C370 1.524 . S
C371 C372 1.415 . S
C372 H348 0.950 . S
C372 C367 1.363 . S
C372 C371 1.415 . S
C373 H349 0.951 . S
C373 C374 1.366 . S
C373 C375 1.388 . S
C374 C373 1.366 . S
C374 C378 1.385 . S
C375 H350 0.951 . S
C375 C373 1.388 . S
C375 C376 1.366 . S
C376 C375 1.366 . S
C376 C377 1.414 . S
C376 C379 1.499 . S
C377 H351 0.950 . S
C377 C376 1.414 . S
C377 C378 1.374 . S
C378 H352 0.950 . S
C378 C374 1.385 . S
C378 C377 1.374 . S
C379 C376 1.499 . S
C379 C380 1.373 . S
C379 C381 1.389 . S
C380 H353 0.950 . S
C380 C366 1.377 . S
C380 C379 1.373 . S
C381 C365 1.377 . S
C381 C379 1.389 . S
C381 C382 1.524 . S
C382 C381 1.524 . S
C382 C383 1.397 . S
C382 C387 1.363 . S
C383 H354 0.950 . S
C383 C382 1.397 . S
C383 C384 1.334 . S
C384 H355 0.950 . S
C384 C383 1.334 . S
C384 C385 1.287 . S
C385 C384 1.287 . S
C385 C386 1.524 . S
C385 H388 0.999 . S
C386 H356 0.950 . S
C386 C385 1.524 . S
C386 C387 1.415 . S
C387 H357 0.950 . S
C387 C382 1.363 . S
C387 C386 1.415 . S
H388 C385 0.999 . S
H389 C370 0.913 . S
H390 C408 0.951 . S
H391 C410 0.951 . S
H392 C412 0.950 . S
H393 C413 0.950 . S
H394 C415 0.950 . S
H395 C418 0.950 . S
H396 C419 0.950 . S
H397 C421 0.950 . S
H398 C422 0.950 . S
H399 C423 0.951 . S
H400 C425 0.951 . S
H401 C427 0.950 . S
H402 C428 0.950 . S
H403 C430 0.950 . S
H404 C433 0.950 . S
H405 C434 0.950 1_455 S
H406 C436 0.950 . S
H407 C437 0.950 . S
C408 H390 0.951 . S
C408 C409 1.366 . S
C408 C410 1.388 . S
C409 C408 1.366 . S
C409 C413 1.385 . S
C410 H391 0.951 . S
C410 C408 1.388 . S
C410 C411 1.366 . S
C411 C410 1.366 . S
C411 C412 1.414 . S
C411 C414 1.499 . S
C412 H392 0.950 . S
C412 C411 1.414 . S
C412 C413 1.374 . S
C413 H393 0.950 . S
C413 C409 1.385 . S
C413 C412 1.374 . S
C414 C411 1.499 . S
C414 C415 1.373 . S
C414 C416 1.389 . S
C415 H394 0.950 . S
C415 C414 1.373 . S
C415 C431 1.377 . S
C416 C414 1.389 . S
C416 C417 1.524 . S
C416 C430 1.377 . S
C417 C416 1.524 . S
C417 C418 1.397 . S
C417 C422 1.363 . S
C418 H395 0.950 . S
C418 C417 1.397 . S
C418 C419 1.334 . S
C419 H396 0.950 . S
C419 C418 1.334 . S
C419 C420 1.287 . S
C420 C419 1.287 . S
C420 C421 1.524 . S
C420 H439 0.913 . S
C421 H397 0.950 . S
C421 C420 1.524 . S
C421 C422 1.415 . S
C422 H398 0.950 . S
C422 C417 1.363 . S
C422 C421 1.415 . S
C423 H399 0.951 . S
C423 C424 1.366 . S
C423 C425 1.388 . S
C424 C423 1.366 . S
C424 C428 1.385 . S
C425 H400 0.951 . S
C425 C423 1.388 . S
C425 C426 1.366 . S
C426 C425 1.366 . S
C426 C427 1.414 . S
C426 C429 1.499 . S
C427 H401 0.950 . S
C427 C426 1.414 . S
C427 C428 1.374 . S
C428 H402 0.950 . S
C428 C424 1.385 . S
C428 C427 1.374 . S
C429 C426 1.499 . S
C429 C430 1.373 . S
C429 C431 1.389 . S
C430 H403 0.950 . S
C430 C416 1.377 . S
C430 C429 1.373 . S
C431 C415 1.377 . S
C431 C429 1.389 . S
C431 C432 1.524 . S
C432 C431 1.524 . S
C432 C433 1.397 . S
C432 C437 1.363 . S
C433 H404 0.950 . S
C433 C432 1.397 . S
C433 C434 1.334 . S
C434 H405 0.950 1_655 S
C434 C433 1.334 . S
C434 C435 1.287 . S
C435 C434 1.287 . S
C435 C436 1.524 . S
C435 H438 0.999 1_655 S
C436 H406 0.950 . S
C436 C435 1.524 . S
C436 C437 1.415 . S
C437 H407 0.950 . S
C437 C432 1.363 . S
C437 C436 1.415 . S
H438 C435 0.999 1_455 S
H439 C420 0.913 . S
H440 C458 0.951 . S
H441 C460 0.951 . S
H442 C462 0.950 . S
H443 C463 0.950 . S
H444 C465 0.950 . S
H445 C468 0.950 . S
H446 C469 0.950 . S
H447 C471 0.950 . S
H448 C472 0.950 . S
H449 C473 0.951 . S
H450 C475 0.951 . S
H451 C477 0.950 . S
H452 C478 0.950 . S
H453 C480 0.950 . S
H454 C483 0.950 . S
H455 C484 0.950 . S
H456 C486 0.950 . S
H457 C487 0.950 . S
C458 H440 0.951 . S
C458 C459 1.366 . S
C458 C460 1.388 . S
C459 C458 1.366 . S
C459 C463 1.385 . S
C460 H441 0.951 . S
C460 C458 1.388 . S
C460 C461 1.366 . S
C461 C460 1.366 . S
C461 C462 1.414 . S
C461 C464 1.499 . S
C462 H442 0.950 . S
C462 C461 1.414 . S
C462 C463 1.374 . S
C463 H443 0.950 . S
C463 C459 1.385 . S
C463 C462 1.374 . S
C464 C461 1.499 . S
C464 C465 1.373 . S
C464 C466 1.389 . S
C465 H444 0.950 . S
C465 C464 1.373 . S
C465 C481 1.377 . S
C466 C464 1.389 . S
C466 C467 1.524 . S
C466 C480 1.377 . S
C467 C466 1.524 . S
C467 C468 1.397 . S
C467 C472 1.363 . S
C468 H445 0.950 . S
C468 C467 1.397 . S
C468 C469 1.334 . S
C469 H446 0.950 . S
C469 C468 1.334 . S
C469 C470 1.287 . S
C470 C469 1.287 . S
C470 C471 1.524 . S
C470 H489 0.913 . S
C471 H447 0.950 . S
C471 C470 1.524 . S
C471 C472 1.415 . S
C472 H448 0.950 . S
C472 C467 1.363 . S
C472 C471 1.415 . S
C473 H449 0.951 . S
C473 C474 1.366 . S
C473 C475 1.388 . S
C474 C473 1.366 . S
C474 C478 1.385 . S
C475 H450 0.951 . S
C475 C473 1.388 . S
C475 C476 1.366 . S
C476 C475 1.366 . S
C476 C477 1.414 . S
C476 C479 1.499 . S
C477 H451 0.950 . S
C477 C476 1.414 . S
C477 C478 1.374 . S
C478 H452 0.950 . S
C478 C474 1.385 . S
C478 C477 1.374 . S
C479 C476 1.499 . S
C479 C480 1.373 . S
C479 C481 1.389 . S
C480 H453 0.950 . S
C480 C466 1.377 . S
C480 C479 1.373 . S
C481 C465 1.377 . S
C481 C479 1.389 . S
C481 C482 1.524 . S
C482 C481 1.524 . S
C482 C483 1.397 . S
C482 C487 1.363 . S
C483 H454 0.950 . S
C483 C482 1.397 . S
C483 C484 1.334 . S
C484 H455 0.950 . S
C484 C483 1.334 . S
C484 C485 1.287 . S
C485 C484 1.287 . S
C485 C486 1.524 . S
C485 H488 0.999 . S
C486 H456 0.950 . S
C486 C485 1.524 . S
C486 C487 1.415 . S
C487 H457 0.950 . S
C487 C482 1.363 . S
C487 C486 1.415 . S
H488 C485 0.999 . S
H489 C470 0.913 . S
H490 C508 0.951 . S
H491 C510 0.951 . S
H492 C512 0.950 . S
H493 C513 0.950 . S
H494 C515 0.950 . S
H495 C518 0.950 . S
H496 C519 0.950 . S
H497 C521 0.950 . S
H498 C522 0.950 . S
H499 C523 0.951 . S
H500 C525 0.951 . S
H501 C527 0.950 . S
H502 C528 0.950 . S
H503 C530 0.950 . S
H504 C533 0.950 . S
H505 C534 0.950 . S
H506 C536 0.950 . S
H507 C537 0.950 . S
C508 H490 0.951 . S
C508 C509 1.366 . S
C508 C510 1.388 . S
C509 C508 1.366 . S
C509 C513 1.385 . S
C510 H491 0.951 . S
C510 C508 1.388 . S
C510 C511 1.366 . S
C511 C510 1.366 . S
C511 C512 1.414 . S
C511 C514 1.499 . S
C512 H492 0.950 . S
C512 C511 1.414 . S
C512 C513 1.374 . S
C513 H493 0.950 . S
C513 C509 1.385 . S
C513 C512 1.374 . S
C514 C511 1.499 . S
C514 C515 1.373 . S
C514 C516 1.389 . S
C515 H494 0.950 . S
C515 C514 1.373 . S
C515 C531 1.377 . S
C516 C514 1.389 . S
C516 C517 1.524 . S
C516 C530 1.377 . S
C517 C516 1.524 . S
C517 C518 1.397 . S
C517 C522 1.363 . S
C518 H495 0.950 . S
C518 C517 1.397 . S
C518 C519 1.334 . S
C519 H496 0.950 . S
C519 C518 1.334 . S
C519 C520 1.287 . S
C520 C519 1.287 . S
C520 C521 1.524 . S
C520 H539 0.913 . S
C521 H497 0.950 . S
C521 C520 1.524 . S
C521 C522 1.415 . S
C522 H498 0.950 . S
C522 C517 1.363 . S
C522 C521 1.415 . S
C523 H499 0.951 . S
C523 C524 1.366 . S
C523 C525 1.388 . S
C524 C523 1.366 . S
C524 C528 1.385 . S
C525 H500 0.951 . S
C525 C523 1.388 . S
C525 C526 1.366 . S
C526 C525 1.366 . S
C526 C527 1.414 . S
C526 C529 1.499 . S
C527 H501 0.950 . S
C527 C526 1.414 . S
C527 C528 1.374 . S
C528 H502 0.950 . S
C528 C524 1.385 . S
C528 C527 1.374 . S
C529 C526 1.499 . S
C529 C530 1.373 . S
C529 C531 1.389 . S
C530 H503 0.950 . S
C530 C516 1.377 . S
C530 C529 1.373 . S
C531 C515 1.377 . S
C531 C529 1.389 . S
C531 C532 1.524 . S
C532 C531 1.524 . S
C532 C533 1.397 . S
C532 C537 1.363 . S
C533 H504 0.950 . S
C533 C532 1.397 . S
C533 C534 1.334 . S
C534 H505 0.950 . S
C534 C533 1.334 . S
C534 C535 1.287 . S
C535 C534 1.287 . S
C535 C536 1.524 . S
C535 H538 0.999 . S
C536 H506 0.950 . S
C536 C535 1.524 . S
C536 C537 1.415 . S
C537 H507 0.950 . S
C537 C532 1.363 . S
C537 C536 1.415 . S
H538 C535 0.999 . S
H539 C520 0.913 . S
H540 C558 0.951 . S
H541 C560 0.951 . S
H542 C562 0.950 . S
H543 C563 0.950 . S
H544 C565 0.950 . S
H545 C568 0.950 . S
H546 C569 0.950 . S
H547 C571 0.950 . S
H548 C572 0.950 . S
H549 C573 0.951 . S
H550 C575 0.951 . S
H551 C577 0.950 . S
H552 C578 0.950 . S
H553 C580 0.950 . S
H554 C583 0.950 . S
H555 C584 0.950 . S
H556 C586 0.950 . S
H557 C587 0.950 . S
C558 H540 0.951 . S
C558 C559 1.366 . S
C558 C560 1.388 . S
C559 C558 1.366 . S
C559 C563 1.385 . S
C560 H541 0.951 . S
C560 C558 1.388 . S
C560 C561 1.366 . S
C561 C560 1.366 . S
C561 C562 1.414 . S
C561 C564 1.499 . S
C562 H542 0.950 . S
C562 C561 1.414 . S
C562 C563 1.374 . S
C563 H543 0.950 . S
C563 C559 1.385 . S
C563 C562 1.374 . S
C564 C561 1.499 . S
C564 C565 1.373 . S
C564 C566 1.389 . S
C565 H544 0.950 . S
C565 C564 1.373 . S
C565 C581 1.377 . S
C566 C564 1.389 . S
C566 C567 1.524 . S
C566 C580 1.377 . S
C567 C566 1.524 . S
C567 C568 1.397 . S
C567 C572 1.363 . S
C568 H545 0.950 . S
C568 C567 1.397 . S
C568 C569 1.334 . S
C569 H546 0.950 . S
C569 C568 1.334 . S
C569 C570 1.287 . S
C570 C569 1.287 . S
C570 C571 1.524 . S
C570 H589 0.913 . S
C571 H547 0.950 . S
C571 C570 1.524 . S
C571 C572 1.415 . S
C572 H548 0.950 . S
C572 C567 1.363 . S
C572 C571 1.415 . S
C573 H549 0.951 . S
C573 C574 1.366 . S
C573 C575 1.388 . S
C574 C573 1.366 . S
C574 C578 1.385 . S
C575 H550 0.951 . S
C575 C573 1.388 . S
C575 C576 1.366 . S
C576 C575 1.366 . S
C576 C577 1.414 . S
C576 C579 1.499 . S
C577 H551 0.950 . S
C577 C576 1.414 . S
C577 C578 1.374 . S
C578 H552 0.950 . S
C578 C574 1.385 . S
C578 C577 1.374 . S
C579 C576 1.499 . S
C579 C580 1.373 . S
C579 C581 1.389 . S
C580 H553 0.950 . S
C580 C566 1.377 . S
C580 C579 1.373 . S
C581 C565 1.377 . S
C581 C579 1.389 . S
C581 C582 1.524 . S
C582 C581 1.524 . S
C582 C583 1.397 . S
C582 C587 1.363 . S
C583 H554 0.950 . S
C583 C582 1.397 . S
C583 C584 1.334 . S
C584 H555 0.950 . S
C584 C583 1.334 . S
C584 C585 1.287 . S
C585 C584 1.287 . S
C585 C586 1.524 . S
C585 H588 0.999 . S
C586 H556 0.950 . S
C586 C585 1.524 . S
C586 C587 1.415 . S
C587 H557 0.950 . S
C587 C582 1.363 . S
C587 C586 1.415 . S
H588 C585 0.999 . S
H589 C570 0.913 . S
H590 C608 0.951 . S
H591 C610 0.951 . S
H592 C612 0.950 . S
H593 C613 0.950 . S
H594 C615 0.950 . S
H595 C618 0.950 . S
H596 C619 0.950 . S
H597 C621 0.950 . S
H598 C622 0.950 . S
H599 C623 0.951 . S
H600 C625 0.951 . S
H601 C627 0.950 . S
H602 C628 0.950 . S
H603 C630 0.950 . S
H604 C633 0.950 . S
H605 C634 0.950 . S
H606 C636 0.950 . S
H607 C637 0.950 . S
C608 H590 0.951 . S
C608 C609 1.366 . S
C608 C610 1.388 . S
C609 C608 1.366 . S
C609 C613 1.385 . S
C610 H591 0.951 . S
C610 C608 1.388 . S
C610 C611 1.366 . S
C611 C610 1.366 . S
C611 C612 1.414 . S
C611 C614 1.499 . S
C612 H592 0.950 . S
C612 C611 1.414 . S
C612 C613 1.374 . S
C613 H593 0.950 . S
C613 C609 1.385 . S
C613 C612 1.374 . S
C614 C611 1.499 . S
C614 C615 1.373 . S
C614 C616 1.389 . S
C615 H594 0.950 . S
C615 C614 1.373 . S
C615 C631 1.377 . S
C616 C614 1.389 . S
C616 C617 1.524 . S
C616 C630 1.377 . S
C617 C616 1.524 . S
C617 C618 1.397 . S
C617 C622 1.363 . S
C618 H595 0.950 . S
C618 C617 1.397 . S
C618 C619 1.334 . S
C619 H596 0.950 . S
C619 C618 1.334 . S
C619 C620 1.287 . S
C620 C619 1.287 . S
C620 C621 1.524 . S
C620 H639 0.913 . S
C621 H597 0.950 . S
C621 C620 1.524 . S
C621 C622 1.415 . S
C622 H598 0.950 . S
C622 C617 1.363 . S
C622 C621 1.415 . S
C623 H599 0.951 . S
C623 C624 1.366 . S
C623 C625 1.388 . S
C624 C623 1.366 . S
C624 C628 1.385 . S
C625 H600 0.951 . S
C625 C623 1.388 . S
C625 C626 1.366 . S
C626 C625 1.366 . S
C626 C627 1.414 . S
C626 C629 1.499 . S
C627 H601 0.950 . S
C627 C626 1.414 . S
C627 C628 1.374 . S
C628 H602 0.950 . S
C628 C624 1.385 . S
C628 C627 1.374 . S
C629 C626 1.499 . S
C629 C630 1.373 . S
C629 C631 1.389 . S
C630 H603 0.950 . S
C630 C616 1.377 . S
C630 C629 1.373 . S
C631 C615 1.377 . S
C631 C629 1.389 . S
C631 C632 1.524 . S
C632 C631 1.524 . S
C632 C633 1.397 . S
C632 C637 1.363 . S
C633 H604 0.950 . S
C633 C632 1.397 . S
C633 C634 1.334 . S
C634 H605 0.950 . S
C634 C633 1.334 . S
C634 C635 1.287 . S
C635 C634 1.287 . S
C635 C636 1.524 . S
C635 H638 0.999 . S
C636 H606 0.950 . S
C636 C635 1.524 . S
C636 C637 1.415 . S
C637 H607 0.950 . S
C637 C632 1.363 . S
C637 C636 1.415 . S
H638 C635 0.999 . S
H639 C620 0.913 . S
H640 C658 0.951 . S
H641 C660 0.951 . S
H642 C662 0.950 . S
H643 C663 0.950 . S
H644 C665 0.950 . S
H645 C668 0.950 . S
H646 C669 0.950 . S
H647 C671 0.950 . S
H648 C672 0.950 . S
H649 C673 0.951 . S
H650 C675 0.951 . S
H651 C677 0.950 . S
H652 C678 0.950 . S
H653 C680 0.950 . S
H654 C683 0.950 . S
H655 C684 0.950 . S
H656 C686 0.950 1_545 S
H657 C687 0.950 . S
C658 H640 0.951 . S
C658 C659 1.366 . S
C658 C660 1.388 . S
C659 C658 1.366 . S
C659 C663 1.385 . S
C660 H641 0.951 . S
C660 C658 1.388 . S
C660 C661 1.366 . S
C661 C660 1.366 . S
C661 C662 1.414 . S
C661 C664 1.499 . S
C662 H642 0.950 . S
C662 C661 1.414 . S
C662 C663 1.374 . S
C663 H643 0.950 . S
C663 C659 1.385 . S
C663 C662 1.374 . S
C664 C661 1.499 . S
C664 C665 1.373 . S
C664 C666 1.389 . S
C665 H644 0.950 . S
C665 C664 1.373 . S
C665 C681 1.377 . S
C666 C664 1.389 . S
C666 C667 1.524 . S
C666 C680 1.377 . S
C667 C666 1.524 . S
C667 C668 1.397 . S
C667 C672 1.363 . S
C668 H645 0.950 . S
C668 C667 1.397 . S
C668 C669 1.334 . S
C669 H646 0.950 . S
C669 C668 1.334 . S
C669 C670 1.287 . S
C670 C669 1.287 . S
C670 C671 1.524 . S
C670 H689 0.913 . S
C671 H647 0.950 . S
C671 C670 1.524 . S
C671 C672 1.415 . S
C672 H648 0.950 . S
C672 C667 1.363 . S
C672 C671 1.415 . S
C673 H649 0.951 . S
C673 C674 1.366 . S
C673 C675 1.388 . S
C674 C673 1.366 . S
C674 C678 1.385 . S
C675 H650 0.951 . S
C675 C673 1.388 . S
C675 C676 1.366 . S
C676 C675 1.366 . S
C676 C677 1.414 . S
C676 C679 1.499 . S
C677 H651 0.950 . S
C677 C676 1.414 . S
C677 C678 1.374 . S
C678 H652 0.950 . S
C678 C674 1.385 . S
C678 C677 1.374 . S
C679 C676 1.499 . S
C679 C680 1.373 . S
C679 C681 1.389 . S
C680 H653 0.950 . S
C680 C666 1.377 . S
C680 C679 1.373 . S
C681 C665 1.377 . S
C681 C679 1.389 . S
C681 C682 1.524 . S
C682 C681 1.524 . S
C682 C683 1.397 . S
C682 C687 1.363 . S
C683 H654 0.950 . S
C683 C682 1.397 . S
C683 C684 1.334 . S
C684 H655 0.950 . S
C684 C683 1.334 . S
C684 C685 1.287 . S
C685 C684 1.287 . S
C685 C686 1.524 . S
C685 H688 0.999 1_565 S
C686 H656 0.950 1_565 S
C686 C685 1.524 . S
C686 C687 1.415 . S
C687 H657 0.950 . S
C687 C682 1.363 . S
C687 C686 1.415 . S
H688 C685 0.999 1_545 S
H689 C670 0.913 . S
C124 C61 1.483 . S
C109 N37 1.480 . S
C159 N4 1.482 . S
C174 C84 1.486 . S
C209 N15 1.517 . S
C224 C60 1.524 . S
C259 N26 1.516 . S
C274 C83 1.522 . S
C324 C64 1.472 . S
C309 C9 1.488 . S
C374 C86 1.497 . S
C359 C17 1.545 . S
C409 C31 1.510 . S
C424 C65 1.481 . S
C459 C42 1.516 . S
C474 C85 1.488 . S
C524 C88 1.383 . S
C509 C20 1.409 . S
C574 C63 1.405 . S
C559 C28 1.453 . S
C624 C87 1.377 . S
C609 C39 1.409 . S
C659 C6 1.431 . S
C674 C62 1.390 . S
