# Generated by pormake.
# Topology ftw, (4,12)-cn, num edge types: 1
# Building blocks:
#     Node 0, Type 0, BuildingBlock: NAHDIM_clean_linker_0, # of connection points: 4
#     Node 1, Type 0, BuildingBlock: NAHDIM_clean_linker_0, # of connection points: 4
#     Node 2, Type 0, BuildingBlock: NAHDIM_clean_linker_0, # of connection points: 4
#     Node 3, Type 1, BuildingBlock: QEWDON_clean_sbu_0, # of connection points: 12
#     Edge 4, Type (0, 1), BuildingBlock: OJICUG_clean_linker_0, # of connection points: 2
#     Edge 5, Type (0, 1), BuildingBlock: OJICUG_clean_linker_0, # of connection points: 2
#     Edge 6, Type (0, 1), BuildingBlock: OJICUG_clean_linker_0, # of connection points: 2
#     Edge 7, Type (0, 1), BuildingBlock: OJICUG_clean_linker_0, # of connection points: 2
#     Edge 8, Type (0, 1), BuildingBlock: OJICUG_clean_linker_0, # of connection points: 2
#     Edge 9, Type (0, 1), BuildingBlock: OJICUG_clean_linker_0, # of connection points: 2
#     Edge 10, Type (0, 1), BuildingBlock: OJICUG_clean_linker_0, # of connection points: 2
#     Edge 11, Type (0, 1), BuildingBlock: OJICUG_clean_linker_0, # of connection points: 2
#     Edge 12, Type (0, 1), BuildingBlock: OJICUG_clean_linker_0, # of connection points: 2
#     Edge 13, Type (0, 1), BuildingBlock: OJICUG_clean_linker_0, # of connection points: 2
#     Edge 14, Type (0, 1), BuildingBlock: OJICUG_clean_linker_0, # of connection points: 2
#     Edge 15, Type (0, 1), BuildingBlock: OJICUG_clean_linker_0, # of connection points: 2
# Relax obj value: 0.037
# Max RMSD: 0.109
# Mean RMSD: 0.083
data_MOF--net-ftw--node1-QEWDON_clean_sbu_0--node2-NAHDIM_clean_linker_0--edge1-OJICUG_clean_linker_0
_symmetry_space_group_name_H-M    P1
_symmetry_Int_Tables_number       1
_symmetry_cell_setting            triclinic
loop_
_symmetry_equiv_pos_as_xyz
'x, y, z'
_cell_length_a     26.719418
_cell_length_b     26.315078
_cell_length_c     27.266989
_cell_angle_alpha  90.658832
_cell_angle_beta   89.40691
_cell_angle_gamma 89.594751
loop_
_atom_site_label
_atom_site_type_symbol
_atom_site_fract_x
_atom_site_fract_y
_atom_site_fract_z
_atom_type_partial_charge
C0 C 0.91298 0.68489 0.19806 0.0
C1 C 0.93531 0.72952 0.22723 0.0
C2 C 0.97261 0.68376 0.29707 0.0
C3 C 0.92791 0.66655 0.3186 0.0
C4 C 0.9291 0.63037 0.35612 0.0
C5 C 0.97576 0.61222 0.37296 0.0
C6 C 0.02061 0.6332 0.35441 0.0
C7 C 0.01834 0.66857 0.31654 0.0
C8 C 0.88065 0.60949 0.37598 0.0
C9 C 0.07109 0.61586 0.3724 0.0
C10 C 0.97495 0.35767 0.19211 0.0
C11 C 0.00625 0.31545 0.21578 0.0
C12 C 0.99446 0.34585 0.29977 0.0
C13 C 0.03593 0.37794 0.30363 0.0
C14 C 0.03592 0.41825 0.33765 0.0
C15 C 0.99315 0.42706 0.36771 0.0
C16 C 0.952 0.39356 0.36506 0.0
C17 C 0.95372 0.35264 0.33165 0.0
C18 C 0.08102 0.45235 0.34017 0.0
C19 C 0.90547 0.40211 0.39601 0.0
C20 C 0.04998 0.33031 0.67602 0.0
C21 C 0.08851 0.36511 0.66697 0.0
C22 C 0.07833 0.41162 0.64425 0.0
C23 C 0.0286 0.42366 0.63092 0.0
C24 C 0.98962 0.38913 0.64111 0.0
C25 C 0.00106 0.34249 0.66278 0.0
C26 C 0.1208 0.44747 0.63355 0.0
C27 C 0.93597 0.40112 0.62849 0.0
C28 C 0.9206 0.77549 0.76835 0.0
C29 C 0.9585 0.73417 0.78164 0.0
C30 C 0.99213 0.68905 0.70879 0.0
C31 C 0.03698 0.67809 0.68402 0.0
C32 C 0.04045 0.63783 0.64999 0.0
C33 C 0.99758 0.6084 0.64006 0.0
C34 C 0.95141 0.62078 0.66325 0.0
C35 C 0.94907 0.66112 0.69736 0.0
C36 C 0.09017 0.62585 0.62564 0.0
C37 C 0.90481 0.5907 0.65264 0.0
C38 C 0.97846 0.56519 0.40224 0.0
C39 C 0.98037 0.51941 0.37588 0.0
C40 C 0.99003 0.47344 0.39899 0.0
C41 C 0.99783 0.47271 0.45008 0.0
C42 C 0.01025 0.42745 0.47406 0.0
C43 C 0.01726 0.42697 0.52446 0.0
C44 C 0.01178 0.47168 0.55284 0.0
C45 C 0.01766 0.47124 0.60427 0.0
C46 C 0.01254 0.51634 0.63134 0.0
C47 C 0.00194 0.56238 0.60841 0.0
C48 C 0.99592 0.56372 0.55696 0.0
C49 C 0.98569 0.60942 0.53256 0.0
C50 C 0.98016 0.61016 0.48177 0.0
C51 C 0.98388 0.56512 0.45374 0.0
C52 C 0.99377 0.51859 0.47769 0.0
C53 C 0.00043 0.51801 0.52921 0.0
C54 C 0.13796 0.24188 0.69684 0.0
C55 C 0.09723 0.27015 0.72641 0.0
O56 O 0.9741 0.71351 0.25674 0.0
O57 O 0.99222 0.7268 0.74316 0.0
O58 O 0.05838 0.2841 0.69602 0.0
O59 O 0.99169 0.30943 0.26435 0.0
H60 H 0.90535 0.74748 0.25035 0.0
H61 H 0.89364 0.65802 0.22269 0.0
H62 H 0.94255 0.66346 0.17751 0.0
H63 H 0.88493 0.69923 0.17168 0.0
H64 H 0.89216 0.67981 0.30537 0.0
H65 H 0.05258 0.68303 0.30042 0.0
H66 H 0.87613 0.56978 0.36264 0.0
H67 H 0.84772 0.63216 0.36429 0.0
H68 H 0.88145 0.6087 0.41668 0.0
H69 H 0.10207 0.63936 0.35769 0.0
H70 H 0.07777 0.57575 0.36099 0.0
H71 H 0.07192 0.61753 0.41309 0.0
H72 H 0.04652 0.32568 0.21382 0.0
H73 H 0.98594 0.36254 0.15305 0.0
H74 H 0.98107 0.39456 0.21121 0.0
H75 H 0.93446 0.34845 0.1942 0.0
H76 H 0.06821 0.3719 0.27993 0.0
H77 H 0.92209 0.32728 0.32847 0.0
H78 H 0.08992 0.46211 0.37883 0.0
H79 H 0.07265 0.48824 0.3208 0.0
H80 H 0.11454 0.43449 0.32252 0.0
H81 H 0.87522 0.37507 0.38653 0.0
H82 H 0.89125 0.44149 0.39125 0.0
H83 H 0.91459 0.39753 0.43532 0.0
H84 H 0.11413 0.30439 0.74378 0.0
H85 H 0.12667 0.35569 0.67638 0.0
H86 H 0.97166 0.31528 0.66985 0.0
H87 H 0.12162 0.45667 0.59389 0.0
H88 H 0.15774 0.43136 0.64377 0.0
H89 H 0.11474 0.48362 0.65423 0.0
H90 H 0.90943 0.37365 0.64491 0.0
H91 H 0.9316 0.39996 0.58807 0.0
H92 H 0.92573 0.44004 0.64144 0.0
H93 H 0.93811 0.69838 0.7895 0.0
H94 H 0.89318 0.78148 0.79883 0.0
H95 H 0.89979 0.76392 0.73505 0.0
H96 H 0.93989 0.81192 0.76089 0.0
H97 H 0.06978 0.7004 0.69255 0.0
H98 H 0.91363 0.67049 0.71489 0.0
H99 H 0.08612 0.62615 0.58516 0.0
H100 H 0.10263 0.5871 0.63594 0.0
H101 H 0.11962 0.65337 0.63618 0.0
H102 H 0.87107 0.60718 0.67112 0.0
H103 H 0.90995 0.55104 0.66523 0.0
H104 H 0.89833 0.58914 0.61249 0.0
H105 H 0.97587 0.51977 0.33635 0.0
H106 H 0.01472 0.39187 0.45412 0.0
H107 H 0.02683 0.39098 0.54087 0.0
H108 H 0.01693 0.51562 0.67085 0.0
H109 H 0.98208 0.64512 0.55247 0.0
H110 H 0.97249 0.64631 0.4647 0.0
H111 H 0.16853 0.22954 0.72143 0.0
H112 H 0.15416 0.26726 0.66868 0.0
H113 H 0.12241 0.20798 0.6779 0.0
C114 C 0.78775 0.11329 0.70031 0.0
C115 C 0.75429 0.06931 0.71627 0.0
C116 C 0.70361 0.03967 0.64677 0.0
C117 C 0.69245 0.99624 0.61923 0.0
C118 C 0.64977 0.99419 0.58974 0.0
C119 C 0.61831 0.03755 0.58643 0.0
C120 C 0.63064 0.08252 0.61252 0.0
C121 C 0.67292 0.08302 0.64276 0.0
C122 C 0.63754 0.94509 0.56344 0.0
C123 C 0.59868 0.12984 0.60913 0.0
C124 C 0.25523 0.95068 0.69112 0.0
C125 C 0.28815 0.98957 0.71754 0.0
C126 C 0.34807 0.02217 0.65635 0.0
C127 C 0.36253 0.06581 0.63146 0.0
C128 C 0.40569 0.06615 0.60179 0.0
C129 C 0.43469 0.02121 0.59625 0.0
C130 C 0.42014 0.97663 0.62094 0.0
C131 C 0.37703 0.97753 0.6509 0.0
C132 C 0.42037 0.11464 0.5765 0.0
C133 C 0.45003 0.928 0.61537 0.0
C134 C 0.32895 0.95994 0.30183 0.0
C135 C 0.33989 0.01182 0.30717 0.0
C136 C 0.3874 0.02761 0.32249 0.0
C137 C 0.42465 0.99074 0.33243 0.0
C138 C 0.41473 0.93867 0.32364 0.0
C139 C 0.36696 0.924 0.30811 0.0
C140 C 0.39717 0.08351 0.33015 0.0
C141 C 0.45389 0.89843 0.33287 0.0
C142 C 0.80523 0.13411 0.27023 0.0
C143 C 0.77753 0.08514 0.25717 0.0
C144 C 0.68703 0.07883 0.26764 0.0
C145 C 0.64641 0.1117 0.27533 0.0
C146 C 0.60397 0.09617 0.30181 0.0
C147 C 0.6017 0.04595 0.31978 0.0
C148 C 0.64139 0.01145 0.30923 0.0
C149 C 0.68388 0.02838 0.28354 0.0
C150 C 0.56212 0.13386 0.31164 0.0
C151 C 0.63933 0.95706 0.32598 0.0
C152 C 0.57035 0.03417 0.55943 0.0
C153 C 0.52645 0.02871 0.5872 0.0
C154 C 0.48032 0.02133 0.56471 0.0
C155 C 0.47793 0.01669 0.51312 0.0
C156 C 0.43286 0.00495 0.48962 0.0
C157 C 0.43081 0.00065 0.43882 0.0
C158 C 0.47347 0.00928 0.40942 0.0
C159 C 0.47143 0.00589 0.35763 0.0
C160 C 0.51396 0.01689 0.32944 0.0
C161 C 0.559 0.03067 0.35168 0.0
C162 C 0.56226 0.03207 0.40355 0.0
C163 C 0.60727 0.0441 0.42735 0.0
C164 C 0.61021 0.04441 0.47836 0.0
C165 C 0.56791 0.03422 0.50757 0.0
C166 C 0.52171 0.02412 0.48439 0.0
C167 C 0.5192 0.02169 0.43239 0.0
C168 C 0.21019 0.92526 0.3402 0.0
C169 C 0.23788 0.96455 0.30926 0.0
O170 O 0.7442 0.03792 0.67643 0.0
O171 O 0.72861 0.09699 0.24494 0.0
O172 O 0.28219 0.94331 0.29135 0.0
O173 O 0.30589 0.02506 0.68464 0.0
H174 H 0.7188 0.08531 0.73191 0.0
H175 H 0.76853 0.13665 0.6725 0.0
H176 H 0.82342 0.09878 0.68397 0.0
H177 H 0.79631 0.13815 0.73232 0.0
H178 H 0.7166 0.96317 0.6222 0.0
H179 H 0.68166 0.11736 0.66298 0.0
H180 H 0.59832 0.93398 0.57153 0.0
H181 H 0.66284 0.91346 0.574 0.0
H182 H 0.64102 0.95043 0.52325 0.0
H183 H 0.61787 0.16386 0.62414 0.0
H184 H 0.56342 0.12441 0.63025 0.0
H185 H 0.58855 0.13703 0.5704 0.0
H186 H 0.32005 0.9693 0.73474 0.0
H187 H 0.24044 0.92265 0.71767 0.0
H188 H 0.27732 0.92972 0.66266 0.0
H189 H 0.22331 0.96981 0.67296 0.0
H190 H 0.33994 0.09998 0.63575 0.0
H191 H 0.36617 0.94315 0.66941 0.0
H192 H 0.41771 0.10926 0.53618 0.0
H193 H 0.45984 0.12407 0.58491 0.0
H194 H 0.39609 0.14729 0.58769 0.0
H195 H 0.43208 0.89568 0.63441 0.0
H196 H 0.48798 0.93356 0.63066 0.0
H197 H 0.45469 0.91804 0.57588 0.0
H198 H 0.24538 0.99685 0.33485 0.0
H199 H 0.31119 0.03997 0.30008 0.0
H200 H 0.35836 0.88412 0.30298 0.0
H201 H 0.40197 0.09154 0.36989 0.0
H202 H 0.36612 0.10762 0.31649 0.0
H203 H 0.43241 0.09427 0.31115 0.0
H204 H 0.44109 0.8598 0.32226 0.0
H205 H 0.46345 0.89848 0.3724 0.0
H206 H 0.48859 0.90715 0.31194 0.0
H207 H 0.77849 0.06155 0.29085 0.0
H208 H 0.84492 0.12556 0.279 0.0
H209 H 0.78732 0.15239 0.30295 0.0
H210 H 0.80406 0.1615 0.23956 0.0
H211 H 0.64889 0.15028 0.26208 0.0
H212 H 0.71455 0.00224 0.27589 0.0
H213 H 0.55471 0.13715 0.35171 0.0
H214 H 0.52732 0.12013 0.29417 0.0
H215 H 0.57076 0.17219 0.29726 0.0
H216 H 0.66986 0.93343 0.30944 0.0
H217 H 0.60275 0.94004 0.31634 0.0
H218 H 0.64272 0.956 0.36649 0.0
H219 H 0.52818 0.03035 0.62693 0.0
H220 H 0.39876 -0.00166 0.5103 0.0
H221 H 0.3951 0.99102 0.42294 0.0
H222 H 0.51183 0.01527 0.28974 0.0
H223 H 0.64096 0.05283 0.40684 0.0
H224 H 0.6459 0.05333 0.49471 0.0
H225 H 0.1733 0.94061 0.35269 0.0
H226 H 0.23259 0.91619 0.3731 0.0
H227 H 0.20442 0.88939 0.31924 0.0
C228 C 0.91271 0.56145 0.01827 0.0
C229 C 0.8624 0.58915 0.01416 0.0
C230 C 0.78131 0.57547 0.05559 0.0
C231 C 0.75847 0.55801 0.09845 0.0
C232 C 0.70617 0.55557 0.10306 0.0
C233 C 0.6759 0.57038 0.06333 0.0
C234 C 0.69867 0.58847 0.01987 0.0
C235 C 0.75108 0.59131 0.01657 0.0
C236 C 0.68329 0.53736 0.15049 0.0
C237 C 0.66758 0.60501 0.97692 0.0
C238 C 0.4353 0.84917 0.19763 0.0
C239 C 0.40955 0.8118 0.16268 0.0
C240 C 0.46735 0.756 0.11636 0.0
C241 C 0.47963 0.7421 0.06814 0.0
C242 C 0.50429 0.69601 0.05741 0.0
C243 C 0.51775 0.66352 0.09616 0.0
C244 C 0.50706 0.67819 0.14527 0.0
C245 C 0.48193 0.72435 0.15492 0.0
C246 C 0.51545 0.68173 0.00465 0.0
C247 C 0.52196 0.64491 0.18746 0.0
C248 C 0.2763 0.42185 0.0991 0.0
C249 C 0.29416 0.41857 0.05043 0.0
C250 C 0.3456 0.42182 0.03979 0.0
C251 C 0.38007 0.42691 0.07861 0.0
C252 C 0.36231 0.42811 0.12772 0.0
C253 C 0.31063 0.42625 0.13717 0.0
C254 C 0.36305 0.41977 0.98697 0.0
C255 C 0.39783 0.43131 0.17033 0.0
C256 C 0.58362 0.13996 0.93337 0.0
C257 C 0.62186 0.17942 0.94977 0.0
C258 C 0.58384 0.24352 0.00597 0.0
C259 C 0.55911 0.27239 0.9704 0.0
C260 C 0.5358 0.31878 0.9831 0.0
C261 C 0.53626 0.33604 0.03244 0.0
C262 C 0.55963 0.30621 0.06856 0.0
C263 C 0.58327 0.26041 0.05472 0.0
C264 C 0.51066 0.34941 0.94378 0.0
C265 C 0.55982 0.32282 0.12171 0.0
C266 C 0.62043 0.56823 0.06776 0.0
C267 C 0.59468 0.61323 0.07953 0.0
C268 C 0.54263 0.61402 0.08515 0.0
C269 C 0.51523 0.56852 0.07986 0.0
C270 C 0.46289 0.56784 0.0859 0.0
C271 C 0.43637 0.5227 0.08164 0.0
C272 C 0.46113 0.47647 0.07104 0.0
C273 C 0.43468 0.43011 0.06797 0.0
C274 C 0.46034 0.38522 0.05556 0.0
C275 C 0.5119 0.38509 0.04629 0.0
C276 C 0.53919 0.43079 0.0505 0.0
C277 C 0.59125 0.43189 0.04232 0.0
C278 C 0.61794 0.47683 0.04779 0.0
C279 C 0.59355 0.52251 0.06119 0.0
C280 C 0.54084 0.52257 0.06804 0.0
C281 C 0.5137 0.47658 0.06315 0.0
C282 C 0.14133 0.44522 0.10396 0.0
C283 C 0.18636 0.41825 0.07987 0.0
O284 O 0.83224 0.57645 0.05376 0.0
O285 O 0.60814 0.1991 0.99542 0.0
O286 O 0.22675 0.42095 0.11126 0.0
O287 O 0.442 0.80037 0.12403 0.0
H288 H 0.84572 0.57496 0.97941 0.0
H289 H 0.90676 0.51972 0.01671 0.0
H290 H 0.93126 0.5709 0.05346 0.0
H291 H 0.93788 0.5719 0.98734 0.0
H292 H 0.78196 0.5463 0.12853 0.0
H293 H 0.76785 0.60603 0.98347 0.0
H294 H 0.65491 0.56523 0.16425 0.0
H295 H 0.71176 0.53159 0.17934 0.0
H296 H 0.66387 0.50081 0.14391 0.0
H297 H 0.69084 0.61262 0.94384 0.0
H298 H 0.64666 0.64024 0.98702 0.0
H299 H 0.63971 0.57538 0.96766 0.0
H300 H 0.40026 0.77716 0.18386 0.0
H301 H 0.41182 0.85586 0.23088 0.0
H302 H 0.44272 0.88581 0.17915 0.0
H303 H 0.47159 0.83297 0.20965 0.0
H304 H 0.46879 0.76712 0.03873 0.0
H305 H 0.47429 0.7357 0.19254 0.0
H306 H 0.49846 0.64438 0.99583 0.0
H307 H 0.55651 0.67778 -0.00087 0.0
H308 H 0.50103 0.71041 0.97865 0.0
H309 H 0.51314 0.66279 0.22366 0.0
H310 H 0.56273 0.63653 0.18538 0.0
H311 H 0.50205 0.6081 0.18485 0.0
H312 H 0.19417 0.43958 0.04569 0.0
H313 H 0.26848 0.4136 0.02042 0.0
H314 H 0.29667 0.42809 0.17463 0.0
H315 H 0.3903 0.45052 0.9797 0.0
H316 H 0.3315 0.42339 0.96099 0.0
H317 H 0.3823 0.38292 0.97967 0.0
H318 H 0.37875 0.42395 0.20592 0.0
H319 H 0.41433 0.46986 0.17205 0.0
H320 H 0.42902 0.40355 0.16534 0.0
H321 H 0.62365 0.2101 0.92212 0.0
H322 H 0.59412 0.12413 0.8967 0.0
H323 H 0.54606 0.15799 0.93074 0.0
H324 H 0.58149 0.10846 0.9601 0.0
H325 H 0.5574 0.259 0.93282 0.0
H326 H 0.60183 0.23756 0.08202 0.0
H327 H 0.52519 0.38885 0.94408 0.0
H328 H 0.46983 0.35161 0.95147 0.0
H329 H 0.51657 0.33263 0.90658 0.0
H330 H 0.57661 0.29364 0.14579 0.0
H331 H 0.52099 0.33099 0.13456 0.0
H332 H 0.58147 0.35846 0.12559 0.0
H333 H 0.61543 0.64822 0.08427 0.0
H334 H 0.44182 0.60218 0.09437 0.0
H335 H 0.39618 0.52448 0.08688 0.0
H336 H 0.4399 0.3498 0.05317 0.0
H337 H 0.61205 0.3979 0.03201 0.0
H338 H 0.65798 0.4753 0.04139 0.0
H339 H 0.10813 0.44258 0.07988 0.0
H340 H 0.14999 0.48605 0.1099 0.0
H341 H 0.13204 0.42839 0.14009 0.0
Zn342 Zn 0.13442 0.11416 0.97119 0.0
Zn343 Zn 0.08326 0.11177 0.07854 0.0
O344 O 0.10783 0.06697 0.02387 0.0
H345 H 0.12133 0.08559 0.99652 0.0
C346 C 0.00222 0.15041 0.87812 0.0
O347 O 0.0099 0.16023 0.92479 0.0
Zn348 Zn 0.94233 0.90227 0.05191 0.0
Zn349 Zn 0.87656 0.91099 0.96328 0.0
O350 O 0.93979 0.94205 0.98994 0.0
H351 H 0.96843 0.95359 0.97134 0.0
Zn352 Zn 0.92868 0.08206 0.9204 0.0
O353 O 0.96288 0.07183 0.98558 0.0
Zn354 Zn 0.90899 0.07395 0.03665 0.0
H355 H 0.99588 0.05723 0.98945 0.0
Zn356 Zn 0.12995 0.8613 0.01466 0.0
O357 O 0.10986 0.93581 0.0145 0.0
H358 H 0.08071 0.94926 0.99829 0.0
Zn359 Zn 0.12419 0.93712 0.08569 0.0
C360 C 0.06074 0.80023 0.95807 0.0
O361 O 0.03591 0.8023 -0.0001 0.0
O362 O 0.14595 0.18817 0.99513 0.0
O363 O 0.11282 0.18245 0.07017 0.0
O364 O 0.87078 0.83384 0.9754 0.0
O365 O 0.92196 0.82881 0.03917 0.0
O366 O 0.85304 0.09827 0.92564 0.0
O367 O 0.84216 0.09286 0.0064 0.0
C368 C 0.12065 0.03735 0.14497 0.0
O369 O 0.19693 0.84557 0.04956 0.0
O370 O 0.19565 0.91432 0.09734 0.0
O371 O 0.8367 0.94931 0.90972 0.0
C372 C 0.13528 0.20782 0.03697 0.0
O373 O 0.17933 0.08249 0.91586 0.0
C374 C 0.88681 0.98061 0.09978 0.0
O375 O 0.96949 0.11781 0.86626 0.0
C376 C 0.89292 0.80783 0.00804 0.0
O377 O 0.10392 0.82 0.95542 0.0
C378 C 0.97269 0.13544 0.09723 0.0
O379 O 0.10895 0.08416 0.14277 0.0
O380 O 0.11107 0.00936 0.10796 0.0
C381 C 0.82498 0.101 0.96367 0.0
O382 O 0.8957 0.93338 0.10289 0.0
O383 O 0.90582 0.00371 0.06353 0.0
C384 C 0.03308 0.88103 0.10904 0.0
O385 O 0.92715 0.12557 0.08845 0.0
O386 O 0.00701 0.1099 0.07533 0.0
C387 C 0.2177 0.87417 0.08141 0.0
O388 O 0.07884 0.88717 0.11946 0.0
O389 O 0.01329 0.90776 0.07589 0.0
C390 C 0.85455 0.95155 0.86642 0.0
O391 O 0.89694 0.92793 0.85617 0.0
C392 C 0.17086 0.09139 0.87101 0.0
O393 O 0.13388 0.12211 0.85977 0.0
C394 C 0.96893 0.22693 0.20449 0.0
C395 C -0.00014 0.26624 0.18731 0.0
H396 H 0.93714 0.15373 0.18942 0.0
C397 C 0.02229 0.26117 0.14067 0.0
H398 H 0.94986 0.23002 0.23963 0.0
C399 C 0.01384 0.21811 0.11177 0.0
C400 C 0.98445 0.17847 0.12956 0.0
H401 H 0.04478 0.29156 0.12586 0.0
H402 H 0.02798 0.21697 0.07449 0.0
C403 C 0.96149 0.1833 0.17584 0.0
C404 C 0.82446 0.00888 0.22243 0.0
C405 C 0.80342 0.05719 0.21508 0.0
H406 H 0.86697 0.94696 0.19177 0.0
C407 C 0.80837 0.0796 0.16871 0.0
H408 H 0.82108 0.99057 0.25767 0.0
C409 C 0.83529 0.05488 0.13105 0.0
C410 C 0.85712 0.00698 0.13869 0.0
H411 H 0.792 0.11656 0.16183 0.0
H412 H 0.83875 0.07324 0.09608 0.0
C413 C 0.85075 0.98395 0.18461 0.0
C414 C 0.93864 0.81842 0.19207 0.0
C415 C 0.95679 0.76816 0.19233 0.0
H416 H 0.95006 0.89422 0.16636 0.0
C417 C -0.00161 0.75511 0.16255 0.0
H418 H 0.90722 0.82973 0.21522 0.0
C419 C 0.02203 0.79172 0.13413 0.0
C420 C 0.00444 0.84196 0.13471 0.0
H421 H 0.01366 0.71689 0.16254 0.0
H422 H 0.05477 0.78106 0.11248 0.0
C423 C 0.96255 0.85513 0.16364 0.0
C424 C 0.19753 0.03513 0.26102 0.0
C425 C 0.20632 0.98291 0.26708 0.0
H426 H 0.16367 0.09311 0.21795 0.0
C427 C 0.18594 0.94848 0.23305 0.0
H428 H 0.21303 0.06262 0.28642 0.0
C429 C 0.15656 0.96589 0.19452 0.0
C430 C 0.1485 0.0181 0.18784 0.0
H431 H 0.19251 0.90803 0.23627 0.0
H432 H 0.14019 0.93833 0.17018 0.0
C433 C 0.16902 0.05253 0.22186 0.0
C434 C 0.96807 0.73595 0.87393 0.0
C435 C 0.98652 0.74944 0.82742 0.0
H436 H 0.9777 0.74064 0.95178 0.0
C437 C 0.02995 0.77915 0.82438 0.0
H438 H 0.93431 0.71367 0.87732 0.0
C439 C 0.05494 0.79412 0.8668 0.0
C440 C 0.03641 0.78077 0.91328 0.0
H441 H 0.0445 0.79113 0.78917 0.0
H442 H 0.08806 0.81733 0.86315 0.0
C443 C 0.9928 0.75145 0.91645 0.0
C444 C 0.26591 0.00528 0.807 0.0
C445 C 0.25826 0.01681 0.75746 0.0
H446 H 0.2447 0.02004 0.8817 0.0
C447 C 0.22161 0.05312 0.74553 0.0
H448 H 0.29356 0.97715 0.81723 0.0
C449 C 0.19345 0.07761 0.78238 0.0
C450 C 0.20129 0.06623 0.83197 0.0
H451 H 0.21469 0.06244 0.70759 0.0
H452 H 0.16547 0.10534 0.77195 0.0
C453 C 0.2379 0.02987 0.84387 0.0
C454 C 0.08443 0.24764 0.81584 0.0
C455 C 0.07603 0.23663 0.76608 0.0
H456 H 0.06766 0.229 0.89043 0.0
C457 C 0.04552 0.19527 0.75356 0.0
H458 H 0.10804 0.27909 0.8265 0.0
C459 C 0.02236 0.1667 0.78998 0.0
C460 C 0.02932 0.17876 0.83976 0.0
H461 H 0.03859 0.18586 0.71546 0.0
H462 H -0.00167 0.13569 0.77902 0.0
C463 C 0.06124 0.21901 0.85237 0.0
C464 C 0.76405 0.04173 0.80463 0.0
C465 C 0.77998 0.03838 0.75539 0.0
H466 H 0.77479 0.01672 0.87828 0.0
C467 C 0.82086 0.00661 0.74312 0.0
H468 H 0.73303 0.06634 0.81525 0.0
C469 C 0.84494 0.97841 0.77916 0.0
C470 C 0.82865 0.98125 0.82831 0.0
H471 H 0.83419 0.00363 0.70554 0.0
H472 H 0.87625 0.95425 0.7684 0.0
C473 C 0.78795 0.01327 0.84068 0.0
C474 C 0.17254 0.34544 0.01986 0.0
C475 C 0.17432 0.36319 0.06859 0.0
H476 H 0.15904 0.28232 0.97153 0.0
C477 C 0.16411 0.32923 0.10677 0.0
H478 H 0.18035 0.37078 0.98976 0.0
C479 C 0.15141 0.27888 0.09641 0.0
C480 C 0.14925 0.26113 0.04765 0.0
H481 H 0.16563 0.34178 0.14469 0.0
H482 H 0.14345 0.25381 0.1267 0.0
C483 C 0.16041 0.29483 0.00947 0.0
C484 C 0.33699 0.80036 0.1058 0.0
C485 C 0.36026 0.83061 0.14169 0.0
H486 H 0.27466 0.79041 0.05823 0.0
C487 C 0.33576 0.87557 0.15775 0.0
H488 H 0.35427 0.7651 0.09327 0.0
C489 C 0.28987 0.88997 0.13775 0.0
C490 C 0.26711 0.85979 0.10147 0.0
H491 H 0.35141 0.89989 0.1858 0.0
H492 H 0.27205 0.92463 0.15109 0.0
C493 C 0.29126 0.81484 0.08575 0.0
C494 C 0.70563 0.15588 0.91145 0.0
C495 C 0.67352 0.15563 0.95259 0.0
H496 H 0.77862 0.13867 0.88249 0.0
C497 C 0.69013 0.13284 0.99595 0.0
H498 H 0.69333 0.17205 0.87723 0.0
C499 C 0.73897 0.11404 -0.00085 0.0
C500 C 0.77196 0.11664 0.95875 0.0
H501 H 0.66577 0.13065 0.02784 0.0
H502 H 0.75105 0.09815 0.03358 0.0
C503 C 0.75436 0.13659 0.91447 0.0
C504 C 0.85717 0.67373 0.97097 0.0
C505 C 0.86981 0.64617 0.01292 0.0
H506 H 0.85415 0.74639 0.93665 0.0
C507 C 0.88976 0.67224 0.05347 0.0
H508 H 0.84184 0.65461 0.93917 0.0
C509 C 0.89759 0.72467 0.05182 0.0
C510 C 0.88475 0.75229 0.00989 0.0
H511 H 0.89954 0.65193 0.08636 0.0
H512 H 0.91327 0.74359 0.08357 0.0
C513 C 0.86416 0.72628 0.96961 0.0
loop_
_geom_bond_atom_site_label_1
_geom_bond_atom_site_label_2
_geom_bond_distance
_geom_bond_site_symmetry_2
_ccdc_geom_bond_type
C0 C1 1.560 . S
C0 H61 0.959 . S
C0 H62 0.959 . S
C0 H63 0.960 . S
C1 C0 1.560 . S
C1 O56 1.426 . S
C1 H60 0.980 . S
C2 C3 1.404 1_455 S
C2 C7 1.418 . S
C2 O56 1.334 . S
C3 C2 1.404 1_655 S
C3 C4 1.360 . S
C3 H64 0.930 . S
C4 C3 1.360 . S
C4 C5 1.401 1_655 S
C4 C8 1.527 . S
C5 C4 1.401 1_455 S
C5 C6 1.405 . S
C5 C38 1.587 1_455 S
C6 C5 1.405 . S
C6 C7 1.332 . S
C6 C9 1.496 . S
C7 C2 1.418 . S
C7 C6 1.332 . S
C7 H65 0.929 . S
C8 C4 1.527 . S
C8 H66 0.959 . S
C8 H67 0.961 . S
C8 H68 0.961 . S
C9 C6 1.496 . S
C9 H69 0.960 . S
C9 H70 0.960 . S
C9 H71 0.961 . S
C10 C11 1.517 . S
C10 H73 0.961 1_655 S
C10 H74 0.960 . S
C10 H75 0.959 . S
C11 C10 1.517 . S
C11 O59 1.468 . S
C11 H72 0.980 1_655 S
C12 C13 1.349 1_655 S
C12 C17 1.367 . S
C12 O59 1.408 . S
C13 C12 1.349 1_455 S
C13 C14 1.407 . S
C13 H76 0.930 . S
C14 C13 1.407 . S
C14 C15 1.449 1_455 S
C14 C18 1.535 . S
C15 C14 1.449 1_655 S
C15 C16 1.384 . S
C15 C40 1.553 . S
C16 C15 1.384 . S
C16 C17 1.364 . S
C16 C19 1.450 . S
C17 C12 1.367 . S
C17 C16 1.364 . S
C17 H77 0.931 . S
C18 C14 1.535 . S
C18 H78 0.959 . S
C18 H79 0.961 . S
C18 H80 0.959 . S
C19 C16 1.450 . S
C19 H81 0.960 . S
C19 H82 0.960 . S
C19 H83 0.960 . S
C20 C21 1.309 1_655 S
C20 C25 1.304 . S
C20 O58 1.435 . S
C21 C20 1.309 1_455 S
C21 C22 1.476 . S
C21 H85 0.930 . S
C22 C21 1.476 . S
C22 C23 1.400 1_455 S
C22 C26 1.567 . S
C23 C22 1.400 1_655 S
C23 C24 1.373 . S
C23 C45 1.432 . S
C24 C23 1.373 . S
C24 C25 1.339 . S
C24 C27 1.530 . S
C25 C20 1.304 . S
C25 C24 1.339 . S
C25 H86 0.930 . S
C26 C22 1.567 . S
C26 H87 0.961 . S
C26 H88 0.960 . S
C26 H89 0.958 . S
C27 C24 1.530 . S
C27 H90 0.961 . S
C27 H91 0.960 . S
C27 H92 0.960 . S
C28 C29 1.530 . S
C28 H94 0.961 . S
C28 H95 0.961 . S
C28 H96 0.959 . S
C29 C28 1.530 . S
C29 O57 1.412 . S
C29 H93 0.980 . S
C30 C31 1.288 . S
C30 C35 1.380 . S
C30 O57 1.393 . S
C31 C30 1.288 . S
C31 C32 1.369 . S
C31 H97 0.932 . S
C32 C31 1.369 . S
C32 C33 1.398 . S
C32 C36 1.527 . S
C33 C32 1.398 . S
C33 C34 1.380 1_455 S
C33 C47 1.497 . S
C34 C33 1.380 1_655 S
C34 C35 1.382 1_655 S
C34 C37 1.603 . S
C35 C30 1.380 . S
C35 C34 1.382 1_455 S
C35 H98 0.927 1_455 S
C36 C32 1.527 . S
C36 H99 0.961 . S
C36 H100 0.959 . S
C36 H101 0.959 . S
C37 C34 1.603 . S
C37 H102 0.960 . S
C37 H103 0.962 . S
C37 H104 0.961 . S
C38 C5 1.587 1_655 S
C38 C39 1.360 . S
C38 C51 1.412 . S
C39 C38 1.360 . S
C39 C40 1.365 . S
C39 H105 0.929 . S
C40 C15 1.553 . S
C40 C39 1.365 . S
C40 C41 1.404 . S
C41 C40 1.404 . S
C41 C42 1.395 . S
C41 C52 1.451 . S
C42 C41 1.395 . S
C42 C43 1.322 . S
C42 H106 0.930 . S
C43 C42 1.322 . S
C43 C44 1.459 . S
C43 H107 0.929 . S
C44 C43 1.459 . S
C44 C45 1.445 . S
C44 C53 1.395 . S
C45 C23 1.432 . S
C45 C44 1.445 . S
C45 C46 1.370 1_655 S
C46 C45 1.370 1_455 S
C46 C47 1.438 . S
C46 H108 0.930 . S
C47 C33 1.497 . S
C47 C46 1.438 . S
C47 C48 1.360 . S
C48 C47 1.360 . S
C48 C49 1.401 . S
C48 C53 1.446 1_455 S
C49 C48 1.401 . S
C49 C50 1.347 . S
C49 H109 0.929 . S
C50 C49 1.347 . S
C50 C51 1.454 1_455 S
C50 H110 0.930 . S
C51 C38 1.412 . S
C51 C50 1.454 1_655 S
C51 C52 1.333 . S
C52 C41 1.451 . S
C52 C51 1.333 . S
C52 C53 1.497 . S
C53 C44 1.395 . S
C53 C48 1.446 1_655 S
C53 C52 1.497 . S
C54 C55 1.582 1_655 S
C54 H111 0.962 1_655 S
C54 H112 0.959 . S
C54 H113 0.958 . S
C55 C54 1.582 1_455 S
C55 O58 1.458 1_455 S
C55 H84 0.980 . S
O56 C1 1.426 . S
O56 C2 1.334 . S
O57 C29 1.412 . S
O57 C30 1.393 . S
O58 C20 1.435 . S
O58 C55 1.458 1_655 S
O59 C11 1.468 . S
O59 C12 1.408 . S
H60 C1 0.980 . S
H61 C0 0.959 . S
H62 C0 0.959 . S
H63 C0 0.960 . S
H64 C3 0.930 . S
H65 C7 0.929 . S
H66 C8 0.959 . S
H67 C8 0.961 . S
H68 C8 0.961 . S
H69 C9 0.960 . S
H70 C9 0.960 . S
H71 C9 0.961 . S
H72 C11 0.980 1_455 S
H73 C10 0.961 1_455 S
H74 C10 0.960 . S
H75 C10 0.959 . S
H76 C13 0.930 . S
H77 C17 0.931 . S
H78 C18 0.959 . S
H79 C18 0.961 . S
H80 C18 0.959 . S
H81 C19 0.960 . S
H82 C19 0.960 . S
H83 C19 0.960 . S
H84 C55 0.980 . S
H85 C21 0.930 . S
H86 C25 0.930 . S
H87 C26 0.961 . S
H88 C26 0.960 . S
H89 C26 0.958 . S
H90 C27 0.961 . S
H91 C27 0.960 . S
H92 C27 0.960 . S
H93 C29 0.980 . S
H94 C28 0.961 . S
H95 C28 0.961 . S
H96 C28 0.959 . S
H97 C31 0.932 . S
H98 C35 0.927 1_655 S
H99 C36 0.961 . S
H100 C36 0.959 . S
H101 C36 0.959 . S
H102 C37 0.960 . S
H103 C37 0.962 . S
H104 C37 0.961 . S
H105 C39 0.929 . S
H106 C42 0.930 . S
H107 C43 0.929 . S
H108 C46 0.930 . S
H109 C49 0.929 . S
H110 C50 0.930 . S
H111 C54 0.962 1_455 S
H112 C54 0.959 . S
H113 C54 0.958 . S
C114 C115 1.560 . S
C114 H175 0.959 . S
C114 H176 0.959 . S
C114 H177 0.960 . S
C115 C114 1.560 . S
C115 O170 1.426 . S
C115 H174 0.980 . S
C116 C117 1.407 1_545 S
C116 C121 1.418 . S
C116 O170 1.334 . S
C117 C116 1.407 1_565 S
C117 C118 1.360 . S
C117 H178 0.929 . S
C118 C117 1.360 . S
C118 C119 1.401 1_565 S
C118 C122 1.527 . S
C119 C118 1.401 1_545 S
C119 C120 1.405 . S
C119 C152 1.587 1_545 S
C120 C119 1.405 . S
C120 C121 1.332 . S
C120 C123 1.496 . S
C121 C116 1.418 . S
C121 C120 1.332 . S
C121 H179 0.929 . S
C122 C118 1.527 . S
C122 H180 0.959 . S
C122 H181 0.961 . S
C122 H182 0.961 . S
C123 C120 1.496 . S
C123 H183 0.960 . S
C123 H184 0.960 . S
C123 H185 0.961 . S
C124 C125 1.517 . S
C124 H187 0.953 1_565 S
C124 H188 0.960 . S
C124 H189 0.959 . S
C125 C124 1.517 . S
C125 O173 1.468 . S
C125 H186 0.980 1_565 S
C126 C127 1.337 1_565 S
C126 C131 1.367 . S
C126 O173 1.408 . S
C127 C126 1.337 1_545 S
C127 C128 1.410 . S
C127 H190 0.940 . S
C128 C127 1.410 . S
C128 C129 1.449 1_545 S
C128 C132 1.535 . S
C129 C128 1.449 1_565 S
C129 C130 1.384 . S
C129 C154 1.553 . S
C130 C129 1.384 . S
C130 C131 1.364 . S
C130 C133 1.450 . S
C131 C126 1.367 . S
C131 C130 1.364 . S
C131 H191 0.931 . S
C132 C128 1.535 . S
C132 H192 0.959 . S
C132 H193 0.961 . S
C132 H194 0.959 . S
C133 C130 1.450 . S
C133 H195 0.960 . S
C133 H196 0.960 . S
C133 H197 0.960 . S
C134 C135 1.309 1_565 S
C134 C139 1.304 . S
C134 O172 1.435 . S
C135 C134 1.309 1_545 S
C135 C136 1.476 . S
C135 H199 0.930 . S
C136 C135 1.476 . S
C136 C137 1.400 1_545 S
C136 C140 1.567 . S
C137 C136 1.400 1_565 S
C137 C138 1.373 . S
C137 C159 1.432 . S
C138 C137 1.373 . S
C138 C139 1.339 . S
C138 C141 1.530 . S
C139 C134 1.304 . S
C139 C138 1.339 . S
C139 H200 0.930 . S
C140 C136 1.567 . S
C140 H201 0.961 . S
C140 H202 0.960 . S
C140 H203 0.958 . S
C141 C138 1.530 . S
C141 H204 0.961 . S
C141 H205 0.960 . S
C141 H206 0.960 . S
C142 C143 1.530 . S
C142 H208 0.961 . S
C142 H209 0.961 . S
C142 H210 0.959 . S
C143 C142 1.530 . S
C143 O171 1.412 . S
C143 H207 0.980 . S
C144 C145 1.288 . S
C144 C149 1.377 1_545 S
C144 O171 1.393 . S
C145 C144 1.288 . S
C145 C146 1.369 . S
C145 H211 0.932 . S
C146 C145 1.369 . S
C146 C147 1.398 . S
C146 C150 1.527 . S
C147 C146 1.398 . S
C147 C148 1.380 1_545 S
C147 C161 1.497 . S
C148 C147 1.380 1_565 S
C148 C149 1.383 . S
C148 C151 1.603 . S
C149 C144 1.377 1_565 S
C149 C148 1.383 . S
C149 H212 0.929 . S
C150 C146 1.527 . S
C150 H213 0.961 . S
C150 H214 0.959 . S
C150 H215 0.959 . S
C151 C148 1.603 . S
C151 H216 0.960 . S
C151 H217 0.962 . S
C151 H218 0.961 . S
C152 C119 1.587 1_565 S
C152 C153 1.360 . S
C152 C165 1.412 . S
C153 C152 1.360 . S
C153 C154 1.365 . S
C153 H219 0.929 . S
C154 C129 1.553 . S
C154 C153 1.365 . S
C154 C155 1.404 . S
C155 C154 1.404 . S
C155 C156 1.395 . S
C155 C166 1.451 . S
C156 C155 1.395 . S
C156 C157 1.322 . S
C156 H220 0.930 . S
C157 C156 1.322 . S
C157 C158 1.459 . S
C157 H221 0.929 . S
C158 C157 1.459 . S
C158 C159 1.445 . S
C158 C167 1.395 . S
C159 C137 1.432 . S
C159 C158 1.445 . S
C159 C160 1.370 . S
C160 C159 1.370 . S
C160 C161 1.438 1_565 S
C160 H222 0.932 . S
C161 C147 1.497 . S
C161 C160 1.438 1_545 S
C161 C162 1.360 1_545 S
C162 C161 1.360 1_565 S
C162 C163 1.401 1_565 S
C162 C167 1.446 . S
C163 C162 1.401 1_545 S
C163 C164 1.347 . S
C163 H223 0.929 . S
C164 C163 1.347 . S
C164 C165 1.455 1_545 S
C164 H224 0.930 . S
C165 C152 1.412 . S
C165 C164 1.455 1_565 S
C165 C166 1.331 . S
C166 C155 1.451 . S
C166 C165 1.331 . S
C166 C167 1.497 . S
C167 C158 1.395 . S
C167 C162 1.446 . S
C167 C166 1.497 . S
C168 C169 1.582 1_565 S
C168 H225 0.962 . S
C168 H226 0.959 . S
C168 H227 0.958 . S
C169 C168 1.582 1_545 S
C169 O172 1.458 1_545 S
C169 H198 0.980 . S
O170 C115 1.426 . S
O170 C116 1.334 . S
O171 C143 1.412 . S
O171 C144 1.393 . S
O172 C134 1.435 . S
O172 C169 1.458 1_565 S
O173 C125 1.468 . S
O173 C126 1.408 . S
H174 C115 0.980 . S
H175 C114 0.959 . S
H176 C114 0.959 . S
H177 C114 0.960 . S
H178 C117 0.929 . S
H179 C121 0.929 . S
H180 C122 0.959 . S
H181 C122 0.961 . S
H182 C122 0.961 . S
H183 C123 0.960 . S
H184 C123 0.960 . S
H185 C123 0.961 . S
H186 C125 0.980 1_545 S
H187 C124 0.953 1_545 S
H188 C124 0.960 . S
H189 C124 0.959 . S
H190 C127 0.940 . S
H191 C131 0.931 . S
H192 C132 0.959 . S
H193 C132 0.961 . S
H194 C132 0.959 . S
H195 C133 0.960 . S
H196 C133 0.960 . S
H197 C133 0.960 . S
H198 C169 0.980 . S
H199 C135 0.930 . S
H200 C139 0.930 . S
H201 C140 0.961 . S
H202 C140 0.960 . S
H203 C140 0.958 . S
H204 C141 0.961 . S
H205 C141 0.960 . S
H206 C141 0.960 . S
H207 C143 0.980 . S
H208 C142 0.961 . S
H209 C142 0.961 . S
H210 C142 0.959 . S
H211 C145 0.932 . S
H212 C149 0.929 . S
H213 C150 0.961 . S
H214 C150 0.959 . S
H215 C150 0.959 . S
H216 C151 0.960 . S
H217 C151 0.962 . S
H218 C151 0.961 . S
H219 C153 0.929 . S
H220 C156 0.930 . S
H221 C157 0.929 . S
H222 C160 0.932 . S
H223 C163 0.929 . S
H224 C164 0.930 . S
H225 C168 0.962 . S
H226 C168 0.959 . S
H227 C168 0.958 . S
C228 C229 1.560 . S
C228 H289 0.959 . S
C228 H290 0.959 . S
C228 H291 0.960 . S
C229 C228 1.560 . S
C229 O284 1.426 . S
C229 H288 0.980 1_556 S
C230 C231 1.407 1_556 S
C230 C235 1.418 . S
C230 O284 1.334 . S
C231 C230 1.407 1_554 S
C231 C232 1.360 . S
C231 H292 0.929 . S
C232 C231 1.360 . S
C232 C233 1.401 . S
C232 C236 1.527 . S
C233 C232 1.401 . S
C233 C234 1.405 1_554 S
C233 C266 1.587 . S
C234 C233 1.405 1_556 S
C234 C235 1.332 . S
C234 C237 1.496 . S
C235 C230 1.418 . S
C235 C234 1.332 . S
C235 H293 0.929 . S
C236 C232 1.527 . S
C236 H294 0.959 . S
C236 H295 0.961 . S
C236 H296 0.961 . S
C237 C234 1.496 . S
C237 H297 0.960 . S
C237 H298 0.960 . S
C237 H299 0.961 . S
C238 C239 1.517 . S
C238 H301 0.961 . S
C238 H302 0.960 . S
C238 H303 0.959 . S
C239 C238 1.517 . S
C239 O287 1.468 . S
C239 H300 0.980 . S
C240 C241 1.349 . S
C240 C245 1.367 . S
C240 O287 1.408 . S
C241 C240 1.349 . S
C241 C242 1.407 . S
C241 H304 0.927 1_554 S
C242 C241 1.407 . S
C242 C243 1.449 . S
C242 C246 1.535 1_554 S
C243 C242 1.449 . S
C243 C244 1.384 . S
C243 C268 1.553 . S
C244 C243 1.384 . S
C244 C245 1.364 . S
C244 C247 1.450 . S
C245 C240 1.367 . S
C245 C244 1.364 . S
C245 H305 0.931 . S
C246 C242 1.535 1_556 S
C246 H306 0.959 . S
C246 H307 0.961 . S
C246 H308 0.959 . S
C247 C244 1.450 . S
C247 H309 0.960 . S
C247 H310 0.960 . S
C247 H311 0.960 . S
C248 C249 1.309 . S
C248 C253 1.304 . S
C248 O286 1.435 . S
C249 C248 1.309 . S
C249 C250 1.476 . S
C249 H313 0.930 1_554 S
C250 C249 1.476 . S
C250 C251 1.400 . S
C250 C254 1.567 1_554 S
C251 C250 1.400 . S
C251 C252 1.373 . S
C251 C273 1.432 . S
C252 C251 1.373 . S
C252 C253 1.339 . S
C252 C255 1.530 . S
C253 C248 1.304 . S
C253 C252 1.339 . S
C253 H314 0.930 . S
C254 C250 1.567 1_556 S
C254 H315 0.961 . S
C254 H316 0.960 . S
C254 H317 0.958 . S
C255 C252 1.530 . S
C255 H318 0.961 . S
C255 H319 0.960 . S
C255 H320 0.960 . S
C256 C257 1.530 1_556 S
C256 H322 0.961 . S
C256 H323 0.961 . S
C256 H324 0.959 . S
C257 C256 1.530 1_554 S
C257 O285 1.412 1_554 S
C257 H321 0.980 . S
C258 C259 1.288 . S
C258 C263 1.377 1_556 S
C258 O285 1.393 . S
C259 C258 1.288 . S
C259 C260 1.369 . S
C259 H325 0.932 . S
C260 C259 1.369 . S
C260 C261 1.398 1_556 S
C260 C264 1.527 . S
C261 C260 1.398 1_554 S
C261 C262 1.380 . S
C261 C275 1.497 . S
C262 C261 1.380 . S
C262 C263 1.383 . S
C262 C265 1.603 . S
C263 C258 1.377 1_554 S
C263 C262 1.383 . S
C263 H326 0.929 . S
C264 C260 1.527 . S
C264 H327 0.961 . S
C264 H328 0.959 . S
C264 H329 0.959 . S
C265 C262 1.603 . S
C265 H330 0.960 . S
C265 H331 0.962 . S
C265 H332 0.961 . S
C266 C233 1.587 . S
C266 C267 1.360 . S
C266 C279 1.412 . S
C267 C266 1.360 . S
C267 C268 1.365 . S
C267 H333 0.929 . S
C268 C243 1.553 . S
C268 C267 1.365 . S
C268 C269 1.404 . S
C269 C268 1.404 . S
C269 C270 1.395 . S
C269 C280 1.451 . S
C270 C269 1.395 . S
C270 C271 1.322 . S
C270 H334 0.930 . S
C271 C270 1.322 . S
C271 C272 1.459 . S
C271 H335 0.929 . S
C272 C271 1.459 . S
C272 C273 1.445 . S
C272 C281 1.395 . S
C273 C251 1.432 . S
C273 C272 1.445 . S
C273 C274 1.370 . S
C274 C273 1.370 . S
C274 C275 1.438 . S
C274 H336 0.930 . S
C275 C261 1.497 . S
C275 C274 1.438 . S
C275 C276 1.360 . S
C276 C275 1.360 . S
C276 C277 1.401 . S
C276 C281 1.446 . S
C277 C276 1.401 . S
C277 C278 1.347 . S
C277 H337 0.929 . S
C278 C277 1.347 . S
C278 C279 1.455 . S
C278 H338 0.930 . S
C279 C266 1.412 . S
C279 C278 1.455 . S
C279 C280 1.331 . S
C280 C269 1.451 . S
C280 C279 1.331 . S
C280 C281 1.497 . S
C281 C272 1.395 . S
C281 C276 1.446 . S
C281 C280 1.497 . S
C282 C283 1.582 . S
C282 H339 0.962 . S
C282 H340 0.959 . S
C282 H341 0.958 . S
C283 C282 1.582 . S
C283 O286 1.458 . S
C283 H312 0.980 . S
O284 C229 1.426 . S
O284 C230 1.334 . S
O285 C257 1.412 1_556 S
O285 C258 1.393 . S
O286 C248 1.435 . S
O286 C283 1.458 . S
O287 C239 1.468 . S
O287 C240 1.408 . S
H288 C229 0.980 1_554 S
H289 C228 0.959 . S
H290 C228 0.959 . S
H291 C228 0.960 . S
H292 C231 0.929 . S
H293 C235 0.929 . S
H294 C236 0.959 . S
H295 C236 0.961 . S
H296 C236 0.961 . S
H297 C237 0.960 . S
H298 C237 0.960 . S
H299 C237 0.961 . S
H300 C239 0.980 . S
H301 C238 0.961 . S
H302 C238 0.960 . S
H303 C238 0.959 . S
H304 C241 0.927 1_556 S
H305 C245 0.931 . S
H306 C246 0.959 . S
H307 C246 0.961 . S
H308 C246 0.959 . S
H309 C247 0.960 . S
H310 C247 0.960 . S
H311 C247 0.960 . S
H312 C283 0.980 . S
H313 C249 0.930 1_556 S
H314 C253 0.930 . S
H315 C254 0.961 . S
H316 C254 0.960 . S
H317 C254 0.958 . S
H318 C255 0.961 . S
H319 C255 0.960 . S
H320 C255 0.960 . S
H321 C257 0.980 . S
H322 C256 0.961 . S
H323 C256 0.961 . S
H324 C256 0.959 . S
H325 C259 0.932 . S
H326 C263 0.929 . S
H327 C264 0.961 . S
H328 C264 0.959 . S
H329 C264 0.959 . S
H330 C265 0.960 . S
H331 C265 0.962 . S
H332 C265 0.961 . S
H333 C267 0.929 . S
H334 C270 0.930 . S
H335 C271 0.929 . S
H336 C274 0.930 . S
H337 C277 0.929 . S
H338 C278 0.930 . S
H339 C282 0.962 . S
H340 C282 0.959 . S
H341 C282 0.958 . S
Zn342 O344 1.933 1_556 S
Zn342 O362 1.985 . S
Zn342 O373 1.955 . S
Zn343 O344 1.911 . S
Zn343 O363 1.970 . S
Zn343 O379 1.945 . S
Zn343 O386 1.981 . S
O344 Zn342 1.933 1_554 S
O344 Zn343 1.911 . S
O344 H345 0.841 . S
H345 O344 0.841 . S
C346 O347 1.246 . S
C346 O375 1.276 1_455 S
O347 C346 1.246 . S
Zn348 O350 1.911 . S
Zn348 O365 1.970 . S
Zn348 O382 1.945 . S
Zn348 O389 1.981 . S
Zn349 O350 1.933 1_556 S
Zn349 O364 1.985 . S
Zn349 O371 1.955 . S
O350 Zn348 1.911 . S
O350 Zn349 1.933 1_554 S
O350 H351 0.841 1_565 S
H351 O350 0.841 1_545 S
Zn352 O353 1.933 1_556 S
Zn352 O366 1.985 . S
Zn352 O375 1.955 . S
O353 Zn352 1.933 1_554 S
O353 Zn354 1.911 . S
O353 H355 0.841 1_655 S
Zn354 O353 1.911 . S
Zn354 O367 1.970 . S
Zn354 O383 1.981 . S
Zn354 O385 1.945 . S
H355 O353 0.841 1_455 S
Zn356 O357 1.933 1_556 S
Zn356 O369 1.985 . S
Zn356 O377 1.955 . S
O357 Zn356 1.933 1_554 S
O357 H358 0.841 . S
O357 Zn359 1.911 . S
H358 O357 0.841 . S
Zn359 O357 1.911 . S
Zn359 O370 1.970 . S
Zn359 O380 1.981 . S
Zn359 O388 1.945 . S
C360 O361 1.246 1_455 S
C360 O377 1.276 . S
O361 C360 1.246 1_655 S
O362 Zn342 1.985 . S
O362 C372 1.245 1_556 S
O363 Zn343 1.970 . S
O363 C372 1.263 . S
O364 Zn349 1.985 . S
O364 C376 1.245 1_556 S
O365 Zn348 1.970 . S
O365 C376 1.263 . S
O366 Zn352 1.985 . S
O366 C381 1.245 1_556 S
O367 Zn354 1.970 . S
O367 C381 1.263 . S
C368 O379 1.262 . S
C368 O380 1.245 1_545 S
O369 Zn356 1.985 . S
O369 C387 1.245 1_556 S
O370 Zn359 1.970 . S
O370 C387 1.263 . S
O371 Zn349 1.955 . S
O371 C390 1.276 1_565 S
C372 O362 1.245 1_554 S
C372 O363 1.263 . S
O373 Zn342 1.955 . S
O373 C392 1.276 . S
C374 O382 1.262 1_545 S
C374 O383 1.245 . S
O375 C346 1.276 1_655 S
O375 Zn352 1.955 . S
C376 O364 1.245 1_554 S
C376 O365 1.263 . S
O377 Zn356 1.955 . S
O377 C360 1.276 . S
C378 O385 1.262 1_455 S
C378 O386 1.245 . S
O379 Zn343 1.945 . S
O379 C368 1.262 . S
O380 Zn359 1.981 . S
O380 C368 1.245 1_565 S
C381 O366 1.245 1_554 S
C381 O367 1.263 . S
O382 Zn348 1.945 . S
O382 C374 1.262 1_565 S
O383 Zn354 1.981 . S
O383 C374 1.245 . S
C384 O388 1.262 . S
C384 O389 1.245 1_455 S
O385 Zn354 1.945 . S
O385 C378 1.262 1_655 S
O386 Zn343 1.981 . S
O386 C378 1.245 . S
C387 O369 1.245 1_554 S
C387 O370 1.263 . S
O388 Zn359 1.945 . S
O388 C384 1.262 . S
O389 Zn348 1.981 . S
O389 C384 1.245 1_655 S
C390 O371 1.276 1_545 S
C390 O391 1.246 . S
O391 C390 1.246 . S
C392 O373 1.276 . S
C392 O393 1.246 1_545 S
O393 C392 1.246 1_565 S
C394 C395 1.387 . S
C394 H398 0.950 . S
C394 C403 1.390 . S
C395 C394 1.387 . S
C395 C397 1.387 . S
H396 C403 0.950 . S
C397 C395 1.387 . S
C397 C399 1.390 . S
C397 H401 0.950 . S
H398 C394 0.950 . S
C399 C397 1.390 . S
C399 C400 1.387 . S
C399 H402 0.950 . S
C400 C399 1.387 . S
C400 C403 1.387 . S
H401 C397 0.950 . S
H402 C399 0.950 . S
C403 C394 1.390 . S
C403 H396 0.950 . S
C403 C400 1.387 . S
C404 C405 1.387 1_565 S
C404 H408 0.950 . S
C404 C413 1.390 . S
C405 C404 1.387 1_545 S
C405 C407 1.387 . S
H406 C413 0.950 . S
C407 C405 1.387 . S
C407 C409 1.390 . S
C407 H411 0.950 . S
H408 C404 0.950 . S
C409 C407 1.390 . S
C409 C410 1.387 . S
C409 H412 0.950 . S
C410 C409 1.387 . S
C410 C413 1.387 1_545 S
H411 C407 0.950 . S
H412 C409 0.950 . S
C413 C404 1.390 . S
C413 H406 0.950 . S
C413 C410 1.387 1_565 S
C414 C415 1.387 1_655 S
C414 H418 0.950 . S
C414 C423 1.390 . S
C415 C414 1.387 1_455 S
C415 C417 1.387 . S
H416 C423 0.950 . S
C417 C415 1.387 . S
C417 C419 1.390 . S
C417 H421 0.950 . S
H418 C414 0.950 . S
C419 C417 1.390 . S
C419 C420 1.387 . S
C419 H422 0.950 . S
C420 C419 1.387 . S
C420 C423 1.387 1_455 S
H421 C417 0.950 . S
H422 C419 0.950 . S
C423 C414 1.390 . S
C423 H416 0.950 . S
C423 C420 1.387 1_655 S
C424 C425 1.387 . S
C424 H428 0.950 . S
C424 C433 1.390 . S
C425 C424 1.387 . S
C425 C427 1.387 1_545 S
H426 C433 0.950 . S
C427 C425 1.387 1_565 S
C427 C429 1.390 . S
C427 H431 0.950 . S
H428 C424 0.950 . S
C429 C427 1.390 . S
C429 C430 1.387 1_565 S
C429 H432 0.950 . S
C430 C429 1.387 1_545 S
C430 C433 1.387 . S
H431 C427 0.950 . S
H432 C429 0.950 . S
C433 C424 1.390 . S
C433 H426 0.950 . S
C433 C430 1.387 . S
C434 C435 1.387 1_655 S
C434 H438 0.950 . S
C434 C443 1.390 . S
C435 C434 1.387 1_455 S
C435 C437 1.387 . S
H436 C443 0.950 . S
C437 C435 1.387 . S
C437 C439 1.390 . S
C437 H441 0.950 . S
H438 C434 0.950 . S
C439 C437 1.390 . S
C439 C440 1.387 . S
C439 H442 0.950 . S
C440 C439 1.387 . S
C440 C443 1.387 1_455 S
H441 C437 0.950 . S
H442 C439 0.950 . S
C443 C434 1.390 . S
C443 H436 0.950 . S
C443 C440 1.387 1_655 S
C444 C445 1.387 . S
C444 H448 0.950 . S
C444 C453 1.390 . S
C445 C444 1.387 . S
C445 C447 1.387 1_545 S
H446 C453 0.950 . S
C447 C445 1.387 1_565 S
C447 C449 1.390 . S
C447 H451 0.950 . S
H448 C444 0.950 . S
C449 C447 1.390 . S
C449 C450 1.387 . S
C449 H452 0.950 . S
C450 C449 1.387 . S
C450 C453 1.387 1_565 S
H451 C447 0.950 . S
H452 C449 0.950 . S
C453 C444 1.390 . S
C453 H446 0.950 . S
C453 C450 1.387 1_545 S
C454 C455 1.387 . S
C454 H458 0.950 . S
C454 C463 1.390 . S
C455 C454 1.387 . S
C455 C457 1.387 1_455 S
H456 C463 0.950 . S
C457 C455 1.387 1_655 S
C457 C459 1.390 . S
C457 H461 0.950 . S
H458 C454 0.950 . S
C459 C457 1.390 . S
C459 C460 1.387 1_655 S
C459 H462 0.950 . S
C460 C459 1.387 1_455 S
C460 C463 1.387 . S
H461 C457 0.950 . S
H462 C459 0.950 . S
C463 C454 1.390 . S
C463 H456 0.950 . S
C463 C460 1.387 . S
C464 C465 1.387 1_565 S
C464 H468 0.950 . S
C464 C473 1.390 . S
C465 C464 1.387 1_545 S
C465 C467 1.387 . S
H466 C473 0.950 . S
C467 C465 1.387 . S
C467 C469 1.390 . S
C467 H471 0.950 . S
H468 C464 0.950 . S
C469 C467 1.390 . S
C469 C470 1.387 . S
C469 H472 0.950 . S
C470 C469 1.387 . S
C470 C473 1.387 1_545 S
H471 C467 0.950 . S
H472 C469 0.950 . S
C473 C464 1.390 . S
C473 H466 0.950 . S
C473 C470 1.387 1_565 S
C474 C475 1.387 1_556 S
C474 H478 0.950 . S
C474 C483 1.390 . S
C475 C474 1.387 1_554 S
C475 C477 1.387 . S
H476 C483 0.950 . S
C477 C475 1.387 . S
C477 C479 1.390 . S
C477 H481 0.950 . S
H478 C474 0.950 . S
C479 C477 1.390 . S
C479 C480 1.387 . S
C479 H482 0.950 . S
C480 C479 1.387 . S
C480 C483 1.387 1_554 S
H481 C477 0.950 . S
H482 C479 0.950 . S
C483 C474 1.390 . S
C483 H476 0.950 . S
C483 C480 1.387 1_556 S
C484 C485 1.387 1_556 S
C484 H488 0.950 . S
C484 C493 1.390 . S
C485 C484 1.387 1_554 S
C485 C487 1.387 . S
H486 C493 0.950 . S
C487 C485 1.387 . S
C487 C489 1.390 . S
C487 H491 0.950 . S
H488 C484 0.950 . S
C489 C487 1.390 . S
C489 C490 1.387 . S
C489 H492 0.950 . S
C490 C489 1.387 . S
C490 C493 1.387 1_554 S
H491 C487 0.950 . S
H492 C489 0.950 . S
C493 C484 1.390 . S
C493 H486 0.950 . S
C493 C490 1.387 1_556 S
C494 C495 1.387 1_556 S
C494 H498 0.950 . S
C494 C503 1.390 . S
C495 C494 1.387 1_554 S
C495 C497 1.387 . S
H496 C503 0.950 . S
C497 C495 1.387 . S
C497 C499 1.390 . S
C497 H501 0.950 . S
H498 C494 0.950 . S
C499 C497 1.390 . S
C499 C500 1.387 . S
C499 H502 0.950 . S
C500 C499 1.387 . S
C500 C503 1.387 1_554 S
H501 C497 0.950 . S
H502 C499 0.950 . S
C503 C494 1.390 . S
C503 H496 0.950 . S
C503 C500 1.387 1_556 S
C504 C505 1.387 1_556 S
C504 H508 0.950 . S
C504 C513 1.390 . S
C505 C504 1.387 1_554 S
C505 C507 1.387 . S
H506 C513 0.950 . S
C507 C505 1.387 . S
C507 C509 1.390 . S
C507 H511 0.950 . S
H508 C504 0.950 . S
C509 C507 1.390 . S
C509 C510 1.387 . S
C509 H512 0.950 . S
C510 C509 1.387 . S
C510 C513 1.387 1_554 S
H511 C507 0.950 . S
H512 C509 0.950 . S
C513 C504 1.390 . S
C513 H506 0.950 . S
C513 C510 1.387 1_556 S
C400 C378 1.663 . S
C395 C11 1.007 1_455 S
C410 C374 1.566 . S
C405 C143 1.340 . S
C420 C384 1.411 . S
C415 C1 1.143 . S
C430 C368 1.713 . S
C425 C169 1.351 . S
C435 C29 1.406 . S
C440 C360 1.587 . S
C450 C392 1.818 1_565 S
C445 C125 1.086 1_545 S
C455 C55 1.448 . S
C460 C346 1.741 . S
C465 C115 1.259 . S
C470 C390 1.569 . S
C475 C283 0.884 . S
C480 C372 1.151 . S
C485 C239 0.673 . S
C490 C387 1.211 . S
C500 C381 1.042 . S
C495 C257 0.934 . S
C510 C376 0.943 . S
C505 C229 0.845 1_554 S
