# Generated by pormake.
# Topology ctn, (3,4)-cn, num edge types: 1
# Building blocks:
#     Node 0, Type 0, BuildingBlock: VETTIZ_charged_linker_0, # of connection points: 3
#     Node 1, Type 0, BuildingBlock: VETTIZ_charged_linker_0, # of connection points: 3
#     Node 2, Type 0, BuildingBlock: VETTIZ_charged_linker_0, # of connection points: 3
#     Node 3, Type 0, BuildingBlock: VETTIZ_charged_linker_0, # of connection points: 3
#     Node 4, Type 0, BuildingBlock: VETTIZ_charged_linker_0, # of connection points: 3
#     Node 5, Type 0, BuildingBlock: VETTIZ_charged_linker_0, # of connection points: 3
#     Node 6, Type 0, BuildingBlock: VETTIZ_charged_linker_0, # of connection points: 3
#     Node 7, Type 0, BuildingBlock: VETTIZ_charged_linker_0, # of connection points: 3
#     Node 8, Type 0, BuildingBlock: VETTIZ_charged_linker_0, # of connection points: 3
#     Node 9, Type 0, BuildingBlock: VETTIZ_charged_linker_0, # of connection points: 3
#     Node 10, Type 0, BuildingBlock: VETTIZ_charged_linker_0, # of connection points: 3
#     Node 11, Type 0, BuildingBlock: VETTIZ_charged_linker_0, # of connection points: 3
#     Node 12, Type 0, BuildingBlock: VETTIZ_charged_linker_0, # of connection points: 3
#     Node 13, Type 0, BuildingBlock: VETTIZ_charged_linker_0, # of connection points: 3
#     Node 14, Type 0, BuildingBlock: VETTIZ_charged_linker_0, # of connection points: 3
#     Node 15, Type 0, BuildingBlock: VETTIZ_charged_linker_0, # of connection points: 3
#     Node 16, Type 1, BuildingBlock: NAHDIM_clean_sbu_0, # of connection points: 4
#     Node 17, Type 1, BuildingBlock: NAHDIM_clean_sbu_0, # of connection points: 4
#     Node 18, Type 1, BuildingBlock: NAHDIM_clean_sbu_0, # of connection points: 4
#     Node 19, Type 1, BuildingBlock: NAHDIM_clean_sbu_0, # of connection points: 4
#     Node 20, Type 1, BuildingBlock: NAHDIM_clean_sbu_0, # of connection points: 4
#     Node 21, Type 1, BuildingBlock: NAHDIM_clean_sbu_0, # of connection points: 4
#     Node 22, Type 1, BuildingBlock: NAHDIM_clean_sbu_0, # of connection points: 4
#     Node 23, Type 1, BuildingBlock: NAHDIM_clean_sbu_0, # of connection points: 4
#     Node 24, Type 1, BuildingBlock: NAHDIM_clean_sbu_0, # of connection points: 4
#     Node 25, Type 1, BuildingBlock: NAHDIM_clean_sbu_0, # of connection points: 4
#     Node 26, Type 1, BuildingBlock: NAHDIM_clean_sbu_0, # of connection points: 4
#     Node 27, Type 1, BuildingBlock: NAHDIM_clean_sbu_0, # of connection points: 4
#     Edge 28, Type (0, 1), BuildingBlock: OJICUG_clean_linker_0, # of connection points: 2
#     Edge 29, Type (0, 1), BuildingBlock: OJICUG_clean_linker_0, # of connection points: 2
#     Edge 30, Type (0, 1), BuildingBlock: OJICUG_clean_linker_0, # of connection points: 2
#     Edge 31, Type (0, 1), BuildingBlock: OJICUG_clean_linker_0, # of connection points: 2
#     Edge 32, Type (0, 1), BuildingBlock: OJICUG_clean_linker_0, # of connection points: 2
#     Edge 33, Type (0, 1), BuildingBlock: OJICUG_clean_linker_0, # of connection points: 2
#     Edge 34, Type (0, 1), BuildingBlock: OJICUG_clean_linker_0, # of connection points: 2
#     Edge 35, Type (0, 1), BuildingBlock: OJICUG_clean_linker_0, # of connection points: 2
#     Edge 36, Type (0, 1), BuildingBlock: OJICUG_clean_linker_0, # of connection points: 2
#     Edge 37, Type (0, 1), BuildingBlock: OJICUG_clean_linker_0, # of connection points: 2
#     Edge 38, Type (0, 1), BuildingBlock: OJICUG_clean_linker_0, # of connection points: 2
#     Edge 39, Type (0, 1), BuildingBlock: OJICUG_clean_linker_0, # of connection points: 2
#     Edge 40, Type (0, 1), BuildingBlock: OJICUG_clean_linker_0, # of connection points: 2
#     Edge 41, Type (0, 1), BuildingBlock: OJICUG_clean_linker_0, # of connection points: 2
#     Edge 42, Type (0, 1), BuildingBlock: OJICUG_clean_linker_0, # of connection points: 2
#     Edge 43, Type (0, 1), BuildingBlock: OJICUG_clean_linker_0, # of connection points: 2
#     Edge 44, Type (0, 1), BuildingBlock: OJICUG_clean_linker_0, # of connection points: 2
#     Edge 45, Type (0, 1), BuildingBlock: OJICUG_clean_linker_0, # of connection points: 2
#     Edge 46, Type (0, 1), BuildingBlock: OJICUG_clean_linker_0, # of connection points: 2
#     Edge 47, Type (0, 1), BuildingBlock: OJICUG_clean_linker_0, # of connection points: 2
#     Edge 48, Type (0, 1), BuildingBlock: OJICUG_clean_linker_0, # of connection points: 2
#     Edge 49, Type (0, 1), BuildingBlock: OJICUG_clean_linker_0, # of connection points: 2
#     Edge 50, Type (0, 1), BuildingBlock: OJICUG_clean_linker_0, # of connection points: 2
#     Edge 51, Type (0, 1), BuildingBlock: OJICUG_clean_linker_0, # of connection points: 2
#     Edge 52, Type (0, 1), BuildingBlock: OJICUG_clean_linker_0, # of connection points: 2
#     Edge 53, Type (0, 1), BuildingBlock: OJICUG_clean_linker_0, # of connection points: 2
#     Edge 54, Type (0, 1), BuildingBlock: OJICUG_clean_linker_0, # of connection points: 2
#     Edge 55, Type (0, 1), BuildingBlock: OJICUG_clean_linker_0, # of connection points: 2
#     Edge 56, Type (0, 1), BuildingBlock: OJICUG_clean_linker_0, # of connection points: 2
#     Edge 57, Type (0, 1), BuildingBlock: OJICUG_clean_linker_0, # of connection points: 2
#     Edge 58, Type (0, 1), BuildingBlock: OJICUG_clean_linker_0, # of connection points: 2
#     Edge 59, Type (0, 1), BuildingBlock: OJICUG_clean_linker_0, # of connection points: 2
#     Edge 60, Type (0, 1), BuildingBlock: OJICUG_clean_linker_0, # of connection points: 2
#     Edge 61, Type (0, 1), BuildingBlock: OJICUG_clean_linker_0, # of connection points: 2
#     Edge 62, Type (0, 1), BuildingBlock: OJICUG_clean_linker_0, # of connection points: 2
#     Edge 63, Type (0, 1), BuildingBlock: OJICUG_clean_linker_0, # of connection points: 2
#     Edge 64, Type (0, 1), BuildingBlock: OJICUG_clean_linker_0, # of connection points: 2
#     Edge 65, Type (0, 1), BuildingBlock: OJICUG_clean_linker_0, # of connection points: 2
#     Edge 66, Type (0, 1), BuildingBlock: OJICUG_clean_linker_0, # of connection points: 2
#     Edge 67, Type (0, 1), BuildingBlock: OJICUG_clean_linker_0, # of connection points: 2
#     Edge 68, Type (0, 1), BuildingBlock: OJICUG_clean_linker_0, # of connection points: 2
#     Edge 69, Type (0, 1), BuildingBlock: OJICUG_clean_linker_0, # of connection points: 2
#     Edge 70, Type (0, 1), BuildingBlock: OJICUG_clean_linker_0, # of connection points: 2
#     Edge 71, Type (0, 1), BuildingBlock: OJICUG_clean_linker_0, # of connection points: 2
#     Edge 72, Type (0, 1), BuildingBlock: OJICUG_clean_linker_0, # of connection points: 2
#     Edge 73, Type (0, 1), BuildingBlock: OJICUG_clean_linker_0, # of connection points: 2
#     Edge 74, Type (0, 1), BuildingBlock: OJICUG_clean_linker_0, # of connection points: 2
#     Edge 75, Type (0, 1), BuildingBlock: OJICUG_clean_linker_0, # of connection points: 2
# Relax obj value: 0.002
# Max RMSD: 0.033
# Mean RMSD: 0.017
data_MOF--net-ctn--node1-NAHDIM_clean_sbu_0--node2-VETTIZ_charged_linker_0--edge1-OJICUG_clean_linker_0
_symmetry_space_group_name_H-M    P1
_symmetry_Int_Tables_number       1
_symmetry_cell_setting            triclinic
loop_
_symmetry_equiv_pos_as_xyz
'x, y, z'
_cell_length_a     51.968011
_cell_length_b     52.306088
_cell_length_c     51.793504
_cell_angle_alpha  91.269739
_cell_angle_beta   89.968007
_cell_angle_gamma 92.292731
loop_
_atom_site_label
_atom_site_type_symbol
_atom_site_fract_x
_atom_site_fract_y
_atom_site_fract_z
_atom_type_partial_charge
C0 C 0.03356 0.11036 0.9777 0.0
C1 C 0.01242 0.12622 0.98053 0.0
C2 C 0.99533 0.1222 0.00135 0.0
C3 C 0.0199 0.08668 0.01546 0.0
C4 C 0.03692 0.09083 0.99534 0.0
C5 C 0.05827 0.0722 0.99512 0.0
H6 H 0.11163 0.96868 0.04635 0.0
C7 C 0.02854 0.06462 0.03 0.0
C8 C 0.05108 0.05608 0.01828 0.0
H9 H 0.13916 0.01353 0.98201 0.0
H10 H 0.10369 0.04144 0.9873 0.0
H11 H 0.0988 0.01708 0.08273 0.0
H12 H 0.05169 0.96868 0.03193 0.0
H13 H 0.03407 0.97386 0.06041 0.0
H14 H 0.06409 0.95785 0.06195 0.0
H15 H 0.08878 0.98505 0.09092 0.0
H16 H 0.06902 0.0119 0.09815 0.0
C17 C 0.08415 0.08751 0.99924 0.0
C18 C 0.05654 0.05638 0.96949 0.0
C19 C 0.97593 0.03294 0.10632 0.0
C20 C 0.97884 0.01294 0.12366 0.0
C21 C 1.00008 0.99715 0.1207 0.0
C22 C 0.01809 0.00125 0.1009 0.0
C23 C 0.01491 0.02139 0.0838 0.0
C24 C 0.99411 0.03683 0.08673 0.0
C25 C 0.99388 0.05744 0.06698 0.0
C26 C 0.018 0.05184 0.0517 0.0
C27 C 0.0302 0.03067 0.06156 0.0
C28 C 0.9962 0.08376 0.08136 0.0
C29 C 0.96917 0.05314 0.05045 0.0
C30 C 0.11022 0.98466 0.03356 0.0
C31 C 0.12824 0.98872 0.01362 0.0
C32 C 0.12536 0.00963 0.99724 0.0
C33 C 0.10481 0.02595 0.00044 0.0
C34 C 0.08684 0.02145 0.02026 0.0
C35 C 0.08984 0.0012 0.03654 0.0
C36 C 0.06907 0.99953 0.05674 0.0
C37 C 0.05304 0.02201 0.04979 0.0
C38 C 0.06347 0.03471 0.02834 0.0
C39 C 0.08189 0.00339 0.08363 0.0
C40 C 0.05392 0.97361 0.05284 0.0
H41 H 0.98519 0.10051 0.03409 0.0
H42 H 0.04698 0.11276 0.96186 0.0
H43 H 0.03609 0.05172 0.96427 0.0
H44 H 0.06556 0.0377 0.97062 0.0
H45 H 0.06544 0.06721 0.95335 0.0
H46 H 0.08159 0.10461 0.01202 0.0
H47 H 0.09217 0.09433 0.98062 0.0
H48 H 0.09873 0.07645 0.00915 0.0
H49 H 0.9597 0.04525 0.10778 0.0
H50 H 0.00303 0.98183 0.13398 0.0
H51 H 0.03384 0.98863 0.09974 0.0
H52 H 0.00798 0.08264 0.09921 0.0
H53 H 0.97698 0.09046 0.08715 0.0
H54 H 0.00626 0.09867 0.0699 0.0
H55 H 0.96465 0.03235 0.04713 0.0
H56 H 0.97104 0.06105 0.03093 0.0
H57 H 0.9523 0.06146 0.06022 0.0
H58 H 0.9792 0.1344 0.00434 0.0
C59 C 0.99894 0.10256 0.01875 0.0
C60 C 0.24364 0.63659 0.22947 0.0
C61 C 0.22395 0.62929 0.21188 0.0
C62 C 0.21953 0.64494 0.19064 0.0
C63 C 0.25426 0.67437 0.20456 0.0
C64 C 0.25857 0.65903 0.22538 0.0
C65 C 0.2808 0.66909 0.24177 0.0
H66 H 0.3754 0.75979 0.26384 0.0
C67 C 0.27343 0.69603 0.20562 0.0
C68 C 0.28911 0.69297 0.22734 0.0
H69 H 0.35717 0.69271 0.30864 0.0
H70 H 0.32256 0.68038 0.27917 0.0
H71 H 0.31592 0.77485 0.25352 0.0
H72 H 0.37135 0.73255 0.21036 0.0
H73 H 0.35331 0.74825 0.18739 0.0
H74 H 0.37207 0.76686 0.21098 0.0
H75 H 0.34427 0.78932 0.23926 0.0
H76 H 0.31473 0.78466 0.2213 0.0
C77 C 0.27035 0.67558 0.26905 0.0
C78 C 0.30185 0.64891 0.24126 0.0
C79 C 0.2732 0.76426 0.13704 0.0
C80 C 0.2896 0.78569 0.13235 0.0
C81 C 0.31033 0.79152 0.14924 0.0
C82 C 0.31465 0.77631 0.17059 0.0
C83 C 0.2982 0.75488 0.17503 0.0
C84 C 0.278 0.74902 0.1583 0.0
C85 C 0.26333 0.72479 0.16543 0.0
C86 C 0.27787 0.71731 0.18939 0.0
C87 C 0.29811 0.73513 0.19497 0.0
C88 C 0.23527 0.73158 0.17175 0.0
C89 C 0.26595 0.70496 0.14296 0.0
C90 C 0.36375 0.7426 0.26747 0.0
C91 C 0.36887 0.72729 0.28867 0.0
C92 C 0.35365 0.70475 0.29236 0.0
C93 C 0.33351 0.69769 0.27528 0.0
C94 C 0.32861 0.71326 0.25419 0.0
C95 C 0.34371 0.73523 0.25055 0.0
C96 C 0.33623 0.74917 0.22682 0.0
C97 C 0.3139 0.73213 0.21694 0.0
C98 C 0.30946 0.71116 0.23304 0.0
C99 C 0.32744 0.77601 0.23544 0.0
C100 C 0.35937 0.74949 0.20786 0.0
H101 H 0.23016 0.67853 0.17043 0.0
H102 H 0.24773 0.62479 0.24578 0.0
H103 H 0.30243 0.63881 0.22214 0.0
H104 H 0.32147 0.65744 0.24397 0.0
H105 H 0.29812 0.63424 0.25614 0.0
H106 H 0.25113 0.68412 0.26779 0.0
H107 H 0.26815 0.65812 0.2808 0.0
H108 H 0.28255 0.69 0.27967 0.0
H109 H 0.25736 0.75914 0.12409 0.0
H110 H 0.32311 0.80801 0.146 0.0
H111 H 0.3307 0.78183 0.18275 0.0
H112 H 0.23486 0.74994 0.18299 0.0
H113 H 0.22396 0.7338 0.1538 0.0
H114 H 0.22518 0.71733 0.18393 0.0
H115 H 0.28472 0.70773 0.13285 0.0
H116 H 0.26586 0.68503 0.14961 0.0
H117 H 0.25046 0.70672 0.12842 0.0
H118 H 0.20432 0.63984 0.17696 0.0
C119 C 0.23451 0.66744 0.18693 0.0
C120 C 0.00179 0.39248 0.98222 0.0
C121 C 0.98818 0.38514 0.95962 0.0
C122 C 0.96757 0.39996 0.95182 0.0
C123 C 0.97436 0.42856 0.98893 0.0
C124 C 0.99463 0.41411 0.99644 0.0
C125 C 0.00718 0.42433 0.02089 0.0
H126 H 0.01159 0.51133 0.11943 0.0
C127 C 0.97183 0.44967 0.00814 0.0
C128 C 0.99109 0.44729 0.02686 0.0
H129 H 0.06183 0.44852 0.10524 0.0
H130 H 0.03822 0.43656 0.06661 0.0
H131 H 0.95886 0.48061 0.10369 0.0
H132 H 0.01112 0.52985 0.06136 0.0
H133 H 0.97996 0.5367 0.05131 0.0
H134 H 0.989 0.54214 0.08469 0.0
H135 H 0.96158 0.51459 0.10937 0.0
H136 H 0.94014 0.50056 0.08514 0.0
C137 C 0.00394 0.40359 0.04169 0.0
C138 C 0.03553 0.43234 0.01466 0.0
C139 C 0.90075 0.51315 0.99916 0.0
C140 C 0.8936 0.53443 0.01427 0.0
C141 C 0.90822 0.54138 0.03646 0.0
C142 C 0.92929 0.52727 0.04368 0.0
C143 C 0.93598 0.50592 0.02859 0.0
C144 C 0.92191 0.49923 0.00666 0.0
C145 C 0.93202 0.476 0.99296 0.0
C146 C 0.95437 0.46984 0.01036 0.0
C147 C 0.95652 0.48742 0.03122 0.0
C148 C 0.91054 0.4546 0.99292 0.0
C149 C 0.94124 0.48395 0.96574 0.0
C150 C 0.01765 0.49512 0.10791 0.0
C151 C 0.03858 0.4808 0.11558 0.0
C152 C 0.04554 0.45965 0.10009 0.0
C153 C 0.0319 0.45282 0.0775 0.0
C154 C 0.01101 0.46727 0.07016 0.0
C155 C 0.00425 0.48807 0.08522 0.0
C156 C 0.98165 0.50131 0.07427 0.0
C157 C 0.97598 0.48499 0.05016 0.0
C158 C 0.99318 0.46507 0.04793 0.0
C159 C 0.95932 0.49944 0.09407 0.0
C160 C 0.99064 0.52902 0.06766 0.0
H161 H 0.94476 0.43203 0.95936 0.0
H162 H 0.01749 0.38139 0.98902 0.0
H163 H 0.03737 0.43955 0.99467 0.0
H164 H 0.04312 0.44833 0.0271 0.0
H165 H 0.04828 0.4159 0.01624 0.0
H166 H 0.98488 0.39324 0.03983 0.0
H167 H 0.01901 0.38921 0.03974 0.0
H168 H 0.00427 0.41159 0.0616 0.0
H169 H 0.88985 0.50714 0.98212 0.0
H170 H 0.9035 0.55793 0.0482 0.0
H171 H 0.93952 0.53357 0.06079 0.0
H172 H 0.89979 0.45476 0.0115 0.0
H173 H 0.89646 0.45723 0.97716 0.0
H174 H 0.91804 0.43521 0.99111 0.0
H175 H 0.94993 0.50375 0.96625 0.0
H176 H 0.95657 0.47193 0.95801 0.0
H177 H 0.92495 0.48348 0.95184 0.0
H178 H 0.95694 0.39498 0.93432 0.0
C179 C 0.9606 0.42159 0.96632 0.0
C180 C 0.63721 0.79667 0.26719 0.0
C181 C 0.6204 0.77498 0.26695 0.0
C182 C 0.62453 0.75475 0.24929 0.0
C183 C 0.66147 0.77821 0.2318 0.0
C184 C 0.65779 0.79773 0.2497 0.0
C185 C 0.67836 0.81872 0.24816 0.0
H186 H 0.78456 0.86853 0.18882 0.0
C187 C 0.68436 0.78533 0.21624 0.0
C188 C 0.69457 0.80887 0.22593 0.0
H189 H 0.74542 0.8986 0.2559 0.0
H190 H 0.71487 0.86257 0.25431 0.0
H191 H 0.73264 0.85043 0.15693 0.0
H192 H 0.78362 0.81135 0.20673 0.0
H193 H 0.77469 0.78968 0.18166 0.0
H194 H 0.79224 0.81907 0.17419 0.0
H195 H 0.76487 0.84301 0.14781 0.0
H196 H 0.73819 0.82043 0.14251 0.0
C197 C 0.66527 0.84379 0.24142 0.0
C198 C 0.69345 0.82 0.27402 0.0
C199 C 0.70861 0.72927 0.13938 0.0
C200 C 0.72856 0.73107 0.1211 0.0
C201 C 0.74682 0.75168 0.12303 0.0
C202 C 0.74505 0.77041 0.14265 0.0
C203 C 0.72484 0.7685 0.16063 0.0
C204 C 0.70719 0.74805 0.15895 0.0
C205 C 0.68739 0.74881 0.1801 0.0
C206 C 0.6958 0.77334 0.19448 0.0
C207 C 0.71766 0.78484 0.18292 0.0
C208 C 0.6606 0.75081 0.16739 0.0
C209 C 0.69013 0.7249 0.19694 0.0
C210 C 0.76927 0.86742 0.20303 0.0
C211 C 0.76732 0.88642 0.22246 0.0
C212 C 0.74743 0.88407 0.24087 0.0
C213 C 0.72966 0.86319 0.23986 0.0
C214 C 0.73185 0.84434 0.2203 0.0
C215 C 0.75151 0.84657 0.20241 0.0
C216 C 0.75126 0.8244 0.18342 0.0
C217 C 0.72824 0.80848 0.19289 0.0
C218 C 0.71682 0.82036 0.21435 0.0
C219 C 0.74668 0.83492 0.15614 0.0
C220 C 0.77678 0.81037 0.18636 0.0
H221 H 0.64693 0.74039 0.21845 0.0
H222 H 0.63461 0.81225 0.28096 0.0
H223 H 0.69319 0.80102 0.28333 0.0
H224 H 0.71412 0.82512 0.27141 0.0
H225 H 0.685 0.83379 0.28793 0.0
H226 H 0.65037 0.8401 0.22622 0.0
H227 H 0.65562 0.8521 0.25863 0.0
H228 H 0.67876 0.85842 0.23348 0.0
H229 H 0.69454 0.71342 0.13863 0.0
H230 H 0.76226 0.75356 0.10906 0.0
H231 H 0.75943 0.78571 0.14296 0.0
H232 H 0.66155 0.7647 0.15142 0.0
H233 H 0.65367 0.732 0.15911 0.0
H234 H 0.64586 0.75787 0.18078 0.0
H235 H 0.71011 0.71801 0.19634 0.0
H236 H 0.68649 0.72894 0.21766 0.0
H237 H 0.67703 0.70883 0.19018 0.0
H238 H 0.61173 0.73788 0.24896 0.0
C239 C 0.64491 0.75629 0.23161 0.0
C240 C 0.02245 0.90148 0.52619 0.0
C241 C 0.00239 0.88298 0.52211 0.0
C242 C 0.9863 0.88493 0.50037 0.0
C243 C 0.01027 0.92324 0.48742 0.0
C244 C 0.02606 0.92126 0.50866 0.0
C245 C 0.0467 0.94221 0.51006 0.0
H246 H 0.10405 0.04789 0.45921 0.0
C247 C 0.01924 0.94604 0.4731 0.0
C248 C 0.04058 0.9572 0.48623 0.0
H249 H 0.12516 0.00781 0.52776 0.0
H250 H 0.08955 0.97767 0.52116 0.0
H251 H 0.04298 0.04499 0.46978 0.0
H252 H 0.0909 0.99637 0.42364 0.0
H253 H 0.06305 0.00248 0.40584 0.0
H254 H 0.08483 0.0287 0.41521 0.0
H255 H 0.05637 0.05501 0.43951 0.0
H256 H 0.02625 0.03672 0.44114 0.0
C257 C 0.04273 0.95809 0.53528 0.0
C258 C 0.0732 0.92968 0.5079 0.0
C259 C 0.97248 0.96953 0.39169 0.0
C260 C 0.97583 0.98955 0.37422 0.0
C261 C 0.99574 0.00826 0.37866 0.0
C262 C 0.01226 0.00678 0.39998 0.0
C263 C 0.00879 0.98644 0.41712 0.0
C264 C 0.98902 0.96838 0.41286 0.0
C265 C 0.98781 0.9483 0.43314 0.0
C266 C 0.01018 0.95717 0.45028 0.0
C267 C 0.02252 0.97945 0.44081 0.0
C268 C 0.96162 0.94993 0.44732 0.0
C269 C 0.99241 0.92203 0.41983 0.0
C270 C 0.10105 0.03249 0.47266 0.0
C271 C 0.11742 0.0303 0.4941 0.0
C272 C 0.11265 0.01017 0.51133 0.0
C273 C 0.09203 0.99254 0.50736 0.0
C274 C 0.07588 0.99492 0.48589 0.0
C275 C 0.08043 0.01466 0.46898 0.0
C276 C 0.06101 0.01414 0.44735 0.0
C277 C 0.0443 0.99068 0.454 0.0
C278 C 0.05319 0.97957 0.47659 0.0
C279 C 0.04587 0.03902 0.44926 0.0
C280 C 0.07554 0.01039 0.42153 0.0
H281 H 0.97725 0.9053 0.46689 0.0
H282 H 0.035 0.90078 0.54282 0.0
H283 H 0.07197 0.91219 0.49526 0.0
H284 H 0.0881 0.94215 0.4988 0.0
H285 H 0.08015 0.92395 0.52712 0.0
H286 H 0.02188 0.95945 0.53978 0.0
H287 H 0.05198 0.94917 0.55199 0.0
H288 H 0.05 0.97815 0.53395 0.0
H289 H 0.95711 0.95509 0.3891 0.0
H290 H 0.99879 0.0238 0.36538 0.0
H291 H 0.02717 0.02146 0.40222 0.0
H292 H 0.95566 0.9701 0.44902 0.0
H293 H 0.94617 0.9388 0.43672 0.0
H294 H 0.96229 0.94336 0.46741 0.0
H295 H 0.00632 0.92411 0.40359 0.0
H296 H 0.00116 0.90834 0.43282 0.0
H297 H 0.97422 0.91329 0.4118 0.0
H298 H 0.97094 0.87076 0.49652 0.0
C299 C 0.99011 0.90494 0.48306 0.0
C300 C 0.26747 0.64846 0.80064 0.0
C301 C 0.2671 0.63052 0.78007 0.0
C302 C 0.24851 0.63224 0.76043 0.0
C303 C 0.23121 0.66943 0.78202 0.0
C304 C 0.24959 0.66774 0.80113 0.0
C305 C 0.24825 0.68891 0.82108 0.0
H306 H 0.19722 0.79959 0.86155 0.0
C307 C 0.21599 0.69209 0.78805 0.0
C308 C 0.22607 0.70367 0.8108 0.0
H309 H 0.25713 0.75799 0.89774 0.0
H310 H 0.25284 0.72468 0.86483 0.0
H311 H 0.16038 0.7511 0.85211 0.0
H312 H 0.21448 0.78985 0.80219 0.0
H313 H 0.18628 0.78274 0.78422 0.0
H314 H 0.18481 0.80318 0.81261 0.0
H315 H 0.15266 0.77984 0.83606 0.0
H316 H 0.1469 0.74862 0.82109 0.0
C317 C 0.24176 0.67683 0.84749 0.0
C318 C 0.27407 0.7048 0.82047 0.0
C319 C 0.14035 0.71375 0.73118 0.0
C320 C 0.12314 0.73385 0.73206 0.0
C321 C 0.12623 0.75308 0.75143 0.0
C322 C 0.14592 0.75224 0.76976 0.0
C323 C 0.16282 0.73196 0.76878 0.0
C324 C 0.16003 0.71322 0.74964 0.0
C325 C 0.18017 0.6934 0.75148 0.0
C326 C 0.19489 0.70293 0.77539 0.0
C327 C 0.18463 0.72554 0.78534 0.0
C328 C 0.16633 0.66707 0.75568 0.0
C329 C 0.19707 0.69464 0.72684 0.0
C330 C 0.20948 0.78334 0.86219 0.0
C331 C 0.2277 0.7814 0.88198 0.0
C332 C 0.24295 0.75977 0.88262 0.0
C333 C 0.24049 0.74054 0.86344 0.0
C334 C 0.22249 0.7429 0.84348 0.0
C335 C 0.20703 0.76379 0.84335 0.0
C336 C 0.18803 0.76234 0.82144 0.0
C337 C 0.1952 0.73754 0.808 0.0
C338 C 0.21554 0.72642 0.82085 0.0
C339 C 0.1605 0.76056 0.83306 0.0
C340 C 0.1934 0.78577 0.80417 0.0
H341 H 0.21675 0.6518 0.74592 0.0
H342 H 0.28178 0.64787 0.8158 0.0
H343 H 0.28119 0.70668 0.8003 0.0
H344 H 0.27242 0.72465 0.82773 0.0
H345 H 0.28916 0.69551 0.83172 0.0
H346 H 0.22957 0.65897 0.84497 0.0
H347 H 0.25952 0.67183 0.85785 0.0
H348 H 0.23031 0.68933 0.86012 0.0
H349 H 0.13867 0.69887 0.71632 0.0
H350 H 0.11307 0.76861 0.75271 0.0
H351 H 0.14712 0.76738 0.78405 0.0
H352 H 0.15045 0.66886 0.76995 0.0
H353 H 0.15781 0.65922 0.73736 0.0
H354 H 0.17908 0.65284 0.76363 0.0
H355 H 0.19841 0.71438 0.71924 0.0
H356 H 0.21725 0.68984 0.73048 0.0
H357 H 0.18896 0.6818 0.71126 0.0
H358 H 0.2478 0.6185 0.74446 0.0
C359 C 0.23049 0.65153 0.76135 0.0
C360 C 0.90373 0.49056 0.50117 0.0
C361 C 0.89557 0.46898 0.48627 0.0
C362 C 0.90943 0.46277 0.46369 0.0
C363 C 0.9386 0.49963 0.47107 0.0
C364 C 0.92509 0.50548 0.49328 0.0
C365 C 0.9356 0.52931 0.50682 0.0
H366 H 0.01847 0.63194 0.50923 0.0
C367 C 0.95937 0.51959 0.46809 0.0
C368 C 0.95762 0.53697 0.48905 0.0
H369 H 0.9598 0.61128 0.56517 0.0
H370 H 0.94874 0.57286 0.5406 0.0
H371 H 0.98599 0.61641 0.45934 0.0
H372 H 0.04028 0.5756 0.50352 0.0
H373 H 0.04566 0.5672 0.47104 0.0
H374 H 0.05019 0.6002 0.48162 0.0
H375 H 0.02003 0.6236 0.45841 0.0
H376 H 0.00493 0.59977 0.43707 0.0
C377 C 0.91425 0.54921 0.50722 0.0
C378 C 0.94529 0.52193 0.53387 0.0
C379 C 0.01966 0.51795 0.39031 0.0
C380 C 0.03969 0.53488 0.38223 0.0
C381 C 0.04642 0.55653 0.39783 0.0
C382 C 0.03332 0.56151 0.42086 0.0
C383 C 0.01309 0.54475 0.42848 0.0
C384 C 0.00656 0.52333 0.4134 0.0
C385 C 0.98415 0.50803 0.42456 0.0
C386 C 0.97856 0.52373 0.44885 0.0
C387 C 0.9956 0.54522 0.45093 0.0
C388 C 0.9616 0.5079 0.40502 0.0
C389 C 0.99338 0.48113 0.43094 0.0
C390 C 0.00344 0.61901 0.51636 0.0
C391 C 0.98984 0.62486 0.53909 0.0
C392 C 0.97025 0.60754 0.54748 0.0
C393 C 0.96394 0.58511 0.53324 0.0
C394 C 0.97734 0.5798 0.51031 0.0
C395 C 0.99692 0.59645 0.50239 0.0
C396 C 0.00928 0.58748 0.47772 0.0
C397 C 0.99369 0.56282 0.47204 0.0
C398 C 0.97494 0.55855 0.49109 0.0
C399 C 0.00511 0.60782 0.45696 0.0
C400 C 0.0379 0.58247 0.48351 0.0
H401 H 0.94066 0.47224 0.43871 0.0
H402 H 0.89333 0.49617 0.51838 0.0
H403 H 0.95255 0.50219 0.53354 0.0
H404 H 0.96184 0.53418 0.54071 0.0
H405 H 0.92961 0.52258 0.54842 0.0
H406 H 0.90287 0.54799 0.489 0.0
H407 H 0.90067 0.54588 0.52348 0.0
H408 H 0.9219 0.56919 0.5084 0.0
H409 H 0.01393 0.50126 0.37862 0.0
H410 H 0.062 0.56963 0.39223 0.0
H411 H 0.03938 0.57835 0.43173 0.0
H412 H 0.96083 0.52667 0.39541 0.0
H413 H 0.96383 0.49294 0.38971 0.0
H414 H 0.94257 0.50506 0.4142 0.0
H415 H 0.01317 0.48244 0.43919 0.0
H416 H 0.9814 0.4715 0.4457 0.0
H417 H 0.99383 0.46867 0.41331 0.0
H418 H 0.90372 0.44609 0.45198 0.0
C419 C 0.93093 0.47792 0.45606 0.0
C420 C 0.79139 0.73573 0.86592 0.0
C421 C 0.77462 0.73997 0.8867 0.0
C422 C 0.75888 0.76131 0.88643 0.0
C423 C 0.77675 0.77365 0.84505 0.0
C424 C 0.79224 0.75279 0.84551 0.0
C425 C 0.80973 0.75147 0.82249 0.0
H426 H 0.8548 0.80232 0.71178 0.0
C427 C 0.78266 0.7877 0.82115 0.0
C428 C 0.80205 0.77484 0.80796 0.0
H429 H 0.87893 0.73465 0.75015 0.0
H430 H 0.84704 0.74055 0.78305 0.0
H431 H 0.84811 0.83747 0.76417 0.0
H432 H 0.79417 0.79036 0.71911 0.0
H433 H 0.77818 0.81773 0.72935 0.0
H434 H 0.80587 0.8211 0.70845 0.0
H435 H 0.83843 0.8453 0.73211 0.0
H436 H 0.81992 0.85449 0.75997 0.0
C437 C 0.83796 0.75404 0.83227 0.0
C438 C 0.80286 0.72629 0.8072 0.0
C439 C 0.7336 0.86673 0.80019 0.0
C440 C 0.7343 0.88335 0.7792 0.0
C441 C 0.75201 0.87914 0.75905 0.0
C442 C 0.76872 0.85875 0.75978 0.0
C443 C 0.76771 0.84227 0.78086 0.0
C444 C 0.75029 0.84638 0.80056 0.0
C445 C 0.7516 0.82672 0.82122 0.0
C446 C 0.77254 0.81004 0.81061 0.0
C447 C 0.78203 0.8193 0.78702 0.0
C448 C 0.75982 0.84061 0.84682 0.0
C449 C 0.72517 0.81199 0.82237 0.0
C450 C 0.85323 0.78889 0.72738 0.0
C451 C 0.86939 0.76795 0.72833 0.0
C452 C 0.86651 0.75072 0.74876 0.0
C453 C 0.84807 0.75429 0.768 0.0
C454 C 0.83222 0.77535 0.76696 0.0
C455 C 0.83475 0.79215 0.74682 0.0
C456 C 0.8158 0.81318 0.74887 0.0
C457 C 0.80196 0.80646 0.77385 0.0
C458 C 0.81176 0.78432 0.78428 0.0
C459 C 0.83118 0.83909 0.75125 0.0
C460 C 0.79757 0.81075 0.7252 0.0
H461 H 0.74731 0.79396 0.86656 0.0
H462 H 0.80403 0.71976 0.8658 0.0
H463 H 0.7818 0.7216 0.808 0.0
H464 H 0.80728 0.7275 0.78639 0.0
H465 H 0.8129 0.70991 0.81531 0.0
H466 H 0.8395 0.76632 0.85007 0.0
H467 H 0.84541 0.73508 0.83696 0.0
H468 H 0.85114 0.76356 0.81841 0.0
H469 H 0.72 0.86921 0.81582 0.0
H470 H 0.75313 0.89181 0.74279 0.0
H471 H 0.78179 0.85663 0.74391 0.0
H472 H 0.77333 0.85717 0.84313 0.0
H473 H 0.74289 0.84803 0.85726 0.0
H474 H 0.77049 0.82834 0.85982 0.0
H475 H 0.71709 0.80868 0.80263 0.0
H476 H 0.72635 0.79273 0.83046 0.0
H477 H 0.71106 0.82294 0.83378 0.0
H478 H 0.74571 0.76486 0.9022 0.0
C479 C 0.7598 0.77812 0.86568 0.0
C480 C 0.27878 0.22488 0.35506 0.0
C481 C 0.25949 0.22823 0.37376 0.0
C482 C 0.24484 0.25033 0.37316 0.0
C483 C 0.26855 0.2651 0.33569 0.0
C484 C 0.28294 0.24347 0.33629 0.0
C485 C 0.30258 0.24284 0.31497 0.0
H486 H 0.35884 0.29884 0.21154 0.0
C487 C 0.27764 0.28056 0.31372 0.0
C488 C 0.29755 0.26763 0.30147 0.0
H489 H 0.37636 0.22706 0.24613 0.0
H490 H 0.34282 0.23267 0.27756 0.0
H491 H 0.35057 0.33069 0.26608 0.0
H492 H 0.29784 0.29015 0.21396 0.0
H493 H 0.28281 0.3178 0.22498 0.0
H494 H 0.31217 0.32089 0.20648 0.0
H495 H 0.34391 0.34148 0.23419 0.0
H496 H 0.32385 0.34969 0.26125 0.0
C497 C 0.32969 0.24335 0.3275 0.0
C498 C 0.29624 0.21903 0.29741 0.0
C499 C 0.23535 0.364 0.29542 0.0
C500 C 0.23866 0.3821 0.27594 0.0
C501 C 0.25775 0.37848 0.25699 0.0
C502 C 0.2733 0.35716 0.25747 0.0
C503 C 0.26961 0.33912 0.277 0.0
C504 C 0.25084 0.34274 0.2955 0.0
C505 C 0.24902 0.32133 0.31435 0.0
C506 C 0.26981 0.30425 0.30418 0.0
C507 C 0.28194 0.31478 0.2824 0.0
C508 C 0.25564 0.33263 0.34157 0.0
C509 C 0.22179 0.3082 0.31198 0.0
C510 C 0.35553 0.28445 0.22602 0.0
C511 C 0.37027 0.26246 0.22633 0.0
C512 C 0.36509 0.244 0.24527 0.0
C513 C 0.34569 0.24738 0.26363 0.0
C514 C 0.33117 0.26944 0.26314 0.0
C515 C 0.33609 0.28749 0.2445 0.0
C516 C 0.31831 0.30948 0.24675 0.0
C517 C 0.3022 0.30177 0.27001 0.0
C518 C 0.3099 0.27832 0.27951 0.0
C519 C 0.33486 0.33428 0.2522 0.0
C520 C 0.30196 0.30989 0.22176 0.0
H521 H 0.2375 0.28512 0.35494 0.0
H522 H 0.29022 0.20801 0.35481 0.0
H523 H 0.27508 0.21495 0.29628 0.0
H524 H 0.30231 0.22168 0.27717 0.0
H525 H 0.30514 0.20174 0.30494 0.0
H526 H 0.33029 0.25564 0.34532 0.0
H527 H 0.33503 0.22385 0.33299 0.0
H528 H 0.34488 0.2517 0.31499 0.0
H529 H 0.22055 0.36598 0.30999 0.0
H530 H 0.26075 0.39226 0.24186 0.0
H531 H 0.28751 0.35549 0.24255 0.0
H532 H 0.27105 0.34797 0.34045 0.0
H533 H 0.23855 0.34116 0.35072 0.0
H534 H 0.2634 0.31845 0.35465 0.0
H535 H 0.21451 0.30873 0.29181 0.0
H536 H 0.22151 0.28765 0.31647 0.0
H537 H 0.20775 0.31792 0.32462 0.0
H538 H 0.23015 0.2536 0.38756 0.0
C539 C 0.24927 0.26873 0.35427 0.0
C540 C 0.49106 0.89762 0.48401 0.0
C541 C 0.47777 0.89202 0.46081 0.0
C542 C 0.45777 0.90776 0.45346 0.0
C543 C 0.46442 0.93405 0.49219 0.0
C544 C 0.48422 0.91875 0.49924 0.0
C545 C 0.49699 0.92796 0.52398 0.0
H546 H 0.50364 0.01297 0.62446 0.0
C547 C 0.46222 0.95444 0.51219 0.0
C548 C 0.48136 0.95108 0.53079 0.0
H549 H 0.55315 0.95002 0.60812 0.0
H550 H 0.52859 0.93879 0.56986 0.0
H551 H 0.45038 0.9829 0.60919 0.0
H552 H 0.50204 0.03243 0.56633 0.0
H553 H 0.47053 0.04029 0.55837 0.0
H554 H 0.48145 0.0443 0.59132 0.0
H555 H 0.45306 0.01683 0.6152 0.0
H556 H 0.43143 0.00298 0.59102 0.0
C557 C 0.49334 0.90661 0.54407 0.0
C558 C 0.52548 0.93558 0.51799 0.0
C559 C 0.39192 0.01875 0.50523 0.0
C560 C 0.38483 0.03966 0.52086 0.0
C561 C 0.39914 0.04567 0.54349 0.0
C562 C 0.42003 0.03112 0.55044 0.0
C563 C 0.4268 0.01027 0.53463 0.0
C564 C 0.41285 0.00442 0.51243 0.0
C565 C 0.42284 0.98166 0.49791 0.0
C566 C 0.44501 0.97472 0.51513 0.0
C567 C 0.44724 0.99153 0.53661 0.0
C568 C 0.4012 0.96041 0.49703 0.0
C569 C 0.43228 0.99057 0.47104 0.0
C570 C 0.50934 0.99688 0.61256 0.0
C571 C 0.53039 0.98235 0.61949 0.0
C572 C 0.53682 0.96133 0.60354 0.0
C573 C 0.52263 0.95493 0.58116 0.0
C574 C 0.50176 0.9697 0.57447 0.0
C575 C 0.49543 0.99029 0.59006 0.0
C576 C 0.47281 0.00398 0.57975 0.0
C577 C 0.46673 0.9883 0.55534 0.0
C578 C 0.4837 0.9682 0.55241 0.0
C579 C 0.4507 0.00183 0.59977 0.0
C580 C 0.48192 0.03178 0.57373 0.0
H581 H 0.43551 0.93983 0.46243 0.0
H582 H 0.50677 0.88607 0.48994 0.0
H583 H 0.52761 0.94288 0.49805 0.0
H584 H 0.53319 0.95143 0.53055 0.0
H585 H 0.53798 0.91895 0.51959 0.0
H586 H 0.47373 0.89736 0.54251 0.0
H587 H 0.50751 0.89149 0.54096 0.0
H588 H 0.49485 0.91384 0.56421 0.0
H589 H 0.38121 0.01337 0.48788 0.0
H590 H 0.39438 0.06187 0.55572 0.0
H591 H 0.43012 0.03672 0.56785 0.0
H592 H 0.39058 0.95979 0.51568 0.0
H593 H 0.38704 0.96389 0.48156 0.0
H594 H 0.4085 0.94103 0.49421 0.0
H595 H 0.43988 0.01077 0.47197 0.0
H596 H 0.44853 0.97959 0.46357 0.0
H597 H 0.41638 0.98942 0.45669 0.0
H598 H 0.44717 0.9037 0.43574 0.0
C599 C 0.45098 0.92867 0.46904 0.0
C600 C 0.1442 0.30116 0.76793 0.0
C601 C 0.12539 0.28124 0.76496 0.0
C602 C 0.12753 0.26352 0.74423 0.0
C603 C 0.16654 0.28582 0.72976 0.0
C604 C 0.16456 0.30301 0.75026 0.0
C605 C 0.18647 0.3227 0.75101 0.0
H606 H 0.29503 0.37243 0.69621 0.0
C607 C 0.18987 0.2932 0.7149 0.0
C608 C 0.20167 0.31477 0.72734 0.0
H609 H 0.25901 0.39698 0.76741 0.0
H610 H 0.22566 0.36388 0.76172 0.0
H611 H 0.24336 0.36222 0.66369 0.0
H612 H 0.29085 0.31407 0.7079 0.0
H613 H 0.28015 0.29527 0.68129 0.0
H614 H 0.29963 0.32406 0.67607 0.0
H615 H 0.27436 0.35246 0.65289 0.0
H616 H 0.24541 0.33336 0.64599 0.0
C617 C 0.17514 0.34942 0.74809 0.0
C618 C 0.20183 0.31952 0.77632 0.0
C619 C 0.21334 0.24301 0.6333 0.0
C620 C 0.23369 0.24595 0.61548 0.0
C621 C 0.25222 0.26608 0.61943 0.0
C622 C 0.25052 0.28305 0.64052 0.0
C623 C 0.23011 0.27996 0.65807 0.0
C624 C 0.21193 0.26023 0.65437 0.0
C625 C 0.19164 0.26007 0.67517 0.0
C626 C 0.20078 0.2829 0.69193 0.0
C627 C 0.2233 0.29439 0.68173 0.0
C628 C 0.16533 0.26445 0.66231 0.0
C629 C 0.19285 0.23458 0.68971 0.0
C630 C 0.28018 0.3706 0.7108 0.0
C631 C 0.27981 0.38744 0.73232 0.0
C632 C 0.25967 0.38452 0.75047 0.0
C633 C 0.24039 0.36514 0.74723 0.0
C634 C 0.24122 0.34839 0.72566 0.0
C635 C 0.26097 0.35127 0.70799 0.0
C636 C 0.2593 0.33145 0.68659 0.0
C637 C 0.23525 0.31612 0.69429 0.0
C638 C 0.2246 0.32619 0.71705 0.0
C639 C 0.25559 0.3454 0.66083 0.0
C640 C 0.28374 0.31539 0.68772 0.0
H641 H 0.14842 0.25174 0.71118 0.0
H642 H 0.1433 0.31482 0.7839 0.0
H643 H 0.20132 0.29917 0.78221 0.0
H644 H 0.22252 0.32475 0.77426 0.0
H645 H 0.19371 0.33098 0.79245 0.0
H646 H 0.15951 0.34867 0.73339 0.0
H647 H 0.16683 0.35631 0.76662 0.0
H648 H 0.18937 0.36396 0.74126 0.0
H649 H 0.19869 0.22786 0.63075 0.0
H650 H 0.26835 0.26853 0.60633 0.0
H651 H 0.26529 0.29789 0.64233 0.0
H652 H 0.16751 0.27858 0.64663 0.0
H653 H 0.15697 0.24637 0.65363 0.0
H654 H 0.15119 0.2726 0.67575 0.0
H655 H 0.21306 0.22847 0.69119 0.0
H656 H 0.18611 0.23613 0.70988 0.0
H657 H 0.18152 0.21899 0.67951 0.0
H658 H 0.11318 0.24811 0.74146 0.0
C659 C 0.14794 0.26574 0.7266 0.0
C660 C 0.74001 0.13632 0.7265 0.0
C661 C 0.71966 0.12948 0.70951 0.0
C662 C 0.71507 0.14521 0.68837 0.0
C663 C 0.75094 0.17378 0.70119 0.0
C664 C 0.75539 0.15836 0.72193 0.0
C665 C 0.77828 0.16784 0.73768 0.0
H666 H 0.87672 0.2551 0.75588 0.0
C667 C 0.77072 0.19492 0.70164 0.0
C668 C 0.78686 0.19146 0.72296 0.0
H669 H 0.85708 0.18958 0.80247 0.0
H670 H 0.82115 0.17824 0.77424 0.0
H671 H 0.81854 0.27271 0.74863 0.0
H672 H 0.86928 0.22754 0.70271 0.0
H673 H 0.85151 0.24465 0.68064 0.0
H674 H 0.87203 0.26183 0.70381 0.0
H675 H 0.84582 0.28616 0.73169 0.0
H676 H 0.81469 0.28185 0.7165 0.0
C677 C 0.7688 0.17472 0.76523 0.0
C678 C 0.79871 0.14705 0.73664 0.0
C679 C 0.7714 0.26303 0.63264 0.0
C680 C 0.78838 0.284 0.62771 0.0
C681 C 0.80936 0.28929 0.64443 0.0
C682 C 0.8135 0.27397 0.66568 0.0
C683 C 0.7966 0.25294 0.67028 0.0
C684 C 0.776 0.24766 0.65389 0.0
C685 C 0.76072 0.22387 0.66144 0.0
C686 C 0.77542 0.21602 0.68519 0.0
C687 C 0.7963 0.23323 0.69025 0.0
C688 C 0.73303 0.23156 0.66822 0.0
C689 C 0.76231 0.20386 0.63903 0.0
C690 C 0.86452 0.23847 0.76023 0.0
C691 C 0.86967 0.22332 0.78153 0.0
C692 C 0.85363 0.20148 0.78607 0.0
C693 C 0.83271 0.19501 0.76973 0.0
C694 C 0.8278 0.21047 0.74854 0.0
C695 C 0.84365 0.23176 0.74414 0.0
C696 C 0.83586 0.24593 0.7207 0.0
C697 C 0.81259 0.22974 0.71173 0.0
C698 C 0.80791 0.209 0.72805 0.0
C699 C 0.82847 0.27318 0.72959 0.0
C700 C 0.85826 0.24522 0.70088 0.0
H701 H 0.72602 0.1785 0.66777 0.0
H702 H 0.74426 0.12446 0.74272 0.0
H703 H 0.79878 0.1372 0.71737 0.0
H704 H 0.81856 0.15496 0.73927 0.0
H705 H 0.7947 0.13227 0.75134 0.0
H706 H 0.74969 0.18355 0.76452 0.0
H707 H 0.76671 0.15739 0.77718 0.0
H708 H 0.78153 0.18905 0.77534 0.0
H709 H 0.75529 0.25836 0.61989 0.0
H710 H 0.82253 0.30547 0.64112 0.0
H711 H 0.82983 0.27908 0.67763 0.0
H712 H 0.73337 0.25001 0.67936 0.0
H713 H 0.72149 0.23402 0.65046 0.0
H714 H 0.72275 0.21767 0.68066 0.0
H715 H 0.78124 0.20557 0.62904 0.0
H716 H 0.76099 0.18394 0.6457 0.0
H717 H 0.74708 0.2065 0.62441 0.0
H718 H 0.69936 0.14047 0.67515 0.0
C719 C 0.73052 0.16733 0.68417 0.0
C720 C 0.53108 0.60808 0.47649 0.0
C721 C 0.50998 0.62387 0.47993 0.0
C722 C 0.49334 0.61967 0.50106 0.0
C723 C 0.51902 0.58491 0.51505 0.0
C724 C 0.53522 0.58881 0.49423 0.0
C725 C 0.55684 0.57049 0.49362 0.0
H726 H 0.6161 0.47181 0.54776 0.0
C727 C 0.52902 0.56389 0.53021 0.0
C728 C 0.55122 0.55536 0.51782 0.0
H729 H 0.63692 0.51123 0.47774 0.0
H730 H 0.60146 0.53904 0.48382 0.0
H731 H 0.60652 0.52134 0.58092 0.0
H732 H 0.55372 0.47051 0.53881 0.0
H733 H 0.54098 0.47649 0.56982 0.0
H734 H 0.57135 0.46142 0.56676 0.0
H735 H 0.59491 0.49162 0.59407 0.0
H736 H 0.57762 0.5207 0.59847 0.0
C737 C 0.58265 0.58628 0.49571 0.0
C738 C 0.55396 0.55357 0.46877 0.0
C739 C 0.48274 0.53667 0.61208 0.0
C740 C 0.48852 0.51954 0.63166 0.0
C741 C 0.51103 0.50537 0.62915 0.0
C742 C 0.52717 0.50804 0.6076 0.0
C743 C 0.52108 0.52529 0.58836 0.0
C744 C 0.49936 0.5395 0.59099 0.0
C745 C 0.49684 0.5582 0.5696 0.0
C746 C 0.52041 0.55256 0.55347 0.0
C747 C 0.53434 0.53303 0.56435 0.0
C748 C 0.49835 0.58566 0.58164 0.0
C749 C 0.47154 0.55125 0.55478 0.0
C750 C 0.61321 0.48657 0.53384 0.0
C751 C 0.62934 0.48913 0.51214 0.0
C752 C 0.62458 0.50848 0.49439 0.0
C753 C 0.60403 0.52474 0.49802 0.0
C754 C 0.58798 0.52175 0.51967 0.0
C755 C 0.59278 0.50299 0.53721 0.0
C756 C 0.57389 0.50277 0.55923 0.0
C757 C 0.55663 0.52414 0.55171 0.0
C758 C 0.56499 0.53521 0.52855 0.0
C759 C 0.58885 0.50925 0.5846 0.0
C760 C 0.5592 0.47642 0.5589 0.0
H761 H 0.48439 0.59821 0.53426 0.0
H762 H 0.54406 0.61054 0.46029 0.0
H763 H 0.5333 0.54957 0.46398 0.0
H764 H 0.56204 0.53451 0.47077 0.0
H765 H 0.5631 0.56317 0.45198 0.0
H766 H 0.58081 0.60301 0.50914 0.0
H767 H 0.5887 0.59369 0.47662 0.0
H768 H 0.59841 0.57538 0.50378 0.0
H769 H 0.46563 0.54778 0.61298 0.0
H770 H 0.51653 0.49249 0.64407 0.0
H771 H 0.54392 0.49671 0.60689 0.0
H772 H 0.51004 0.58653 0.59966 0.0
H773 H 0.4789 0.59231 0.58665 0.0
H774 H 0.50811 0.59973 0.56895 0.0
H775 H 0.46862 0.53012 0.55259 0.0
H776 H 0.47156 0.55844 0.5349 0.0
H777 H 0.45462 0.55861 0.56526 0.0
H778 H 0.47714 0.63172 0.5044 0.0
C779 C 0.49771 0.6003 0.51856 0.0
C780 C 0.52735 0.40182 0.03278 0.0
C781 C 0.50613 0.38446 0.02973 0.0
C782 C 0.48894 0.38761 0.00908 0.0
C783 C 0.5142 0.42471 0.99506 0.0
C784 C 0.53103 0.42162 0.01527 0.0
C785 C 0.55287 0.44135 0.01554 0.0
H786 H 0.61211 0.54525 0.96306 0.0
C787 C 0.52366 0.44706 0.98032 0.0
C788 C 0.54632 0.45686 0.99218 0.0
H789 H 0.63553 0.50242 0.02904 0.0
H790 H 0.59847 0.47394 0.02389 0.0
H791 H 0.55095 0.54395 0.97628 0.0
H792 H 0.59613 0.49501 0.92757 0.0
H793 H 0.56732 0.50073 0.91132 0.0
H794 H 0.5895 0.52717 0.91905 0.0
H795 H 0.56495 0.55454 0.94646 0.0
H796 H 0.53404 0.53768 0.94726 0.0
C797 C 0.55124 0.45733 0.04102 0.0
C798 C 0.57838 0.4273 0.0118 0.0
C799 C 0.47419 0.47337 0.90162 0.0
C800 C 0.47815 0.49272 0.88348 0.0
C801 C 0.49943 0.51013 0.88667 0.0
C802 C 0.51666 0.50798 0.90733 0.0
C803 C 0.51262 0.48819 0.92501 0.0
C804 C 0.49156 0.47141 0.92199 0.0
C805 C 0.49024 0.45141 0.94234 0.0
C806 C 0.51403 0.45884 0.95811 0.0
C807 C 0.52712 0.4804 0.94795 0.0
C808 C 0.46516 0.45477 0.95806 0.0
C809 C 0.49234 0.42481 0.92883 0.0
C810 C 0.60933 0.52963 0.97628 0.0
C811 C 0.62675 0.52632 0.99668 0.0
C812 C 0.62222 0.5058 0.01352 0.0
C813 C 0.60072 0.4891 0.01038 0.0
C814 C 0.58345 0.49272 0.99008 0.0
C815 C 0.5879 0.51263 0.97335 0.0
C816 C 0.56751 0.51314 0.95269 0.0
C817 C 0.55013 0.49035 0.95994 0.0
C818 C 0.55963 0.47856 0.98189 0.0
C819 C 0.55362 0.53868 0.95554 0.0
C820 C 0.58063 0.50898 0.92616 0.0
H821 H 0.4791 0.4089 0.97647 0.0
H822 H 0.5408 0.4002 0.04857 0.0
H823 H 0.57536 0.4096 -0.00033 0.0
H824 H 0.59319 0.43877 0.00135 0.0
H825 H 0.58638 0.4216 0.0306 0.0
H826 H 0.53083 0.46036 0.04638 0.0
H827 H 0.56032 0.44747 0.05724 0.0
H828 H 0.56011 0.47678 0.03957 0.0
H829 H 0.45784 0.45992 0.90007 0.0
H830 H 0.50307 0.52511 0.87287 0.0
H831 H 0.53258 0.52165 0.9086 0.0
H832 H 0.46087 0.47537 0.96038 0.0
H833 H 0.44841 0.44495 0.94823 0.0
H834 H 0.46644 0.44781 0.97797 0.0
H835 H 0.50496 0.42603 0.9115 0.0
H836 H 0.50136 0.41069 0.94113 0.0
H837 H 0.47316 0.41702 0.92237 0.0
H838 H 0.47265 0.37433 0.006 0.0
C839 C 0.49282 0.40763 0.9918 0.0
C840 C 0.76646 0.14361 0.29923 0.0
C841 C 0.76292 0.125 0.27947 0.0
C842 C 0.74264 0.12726 0.26169 0.0
C843 C 0.73 0.16634 0.28347 0.0
C844 C 0.75 0.16408 0.30075 0.0
C845 C 0.75197 0.186 0.31995 0.0
H846 H 0.70818 0.29828 0.36533 0.0
C847 C 0.71697 0.19024 0.2901 0.0
C848 C 0.72994 0.20192 0.3113 0.0
H849 H 0.77186 0.25608 0.39363 0.0
H850 H 0.76412 0.22354 0.36065 0.0
H851 H 0.66919 0.24761 0.35543 0.0
H852 H 0.72056 0.29186 0.30713 0.0
H853 H 0.69439 0.28188 0.2875 0.0
H854 H 0.68913 0.30243 0.31535 0.0
H855 H 0.66387 0.28003 0.34676 0.0
H856 H 0.65302 0.25341 0.32643 0.0
C857 C 0.74728 0.17515 0.34724 0.0
C858 C 0.7785 0.20015 0.31638 0.0
C859 C 0.63784 0.21486 0.24 0.0
C860 C 0.62283 0.23661 0.24104 0.0
C861 C 0.62927 0.25666 0.25871 0.0
C862 C 0.65012 0.25488 0.27558 0.0
C863 C 0.66484 0.23292 0.2746 0.0
C864 C 0.65891 0.21356 0.25672 0.0
C865 C 0.67778 0.19247 0.25739 0.0
C866 C 0.69542 0.20198 0.27923 0.0
C867 C 0.68755 0.22554 0.28936 0.0
C868 C 0.66286 0.16732 0.26418 0.0
C869 C 0.69203 0.19149 0.2311 0.0
C870 C 0.72029 0.28189 0.36453 0.0
C871 C 0.74069 0.27976 0.38206 0.0
C872 C 0.75624 0.25833 0.38014 0.0
C873 C 0.75161 0.23936 0.36104 0.0
C874 C 0.73123 0.2418 0.34358 0.0
C875 C 0.71595 0.26277 0.3455 0.0
C876 C 0.69531 0.2622 0.32514 0.0
C877 C 0.7007 0.23736 0.31077 0.0
C878 C 0.72171 0.22553 0.32169 0.0
C879 C 0.66886 0.2609 0.33896 0.0
C880 C 0.6998 0.28584 0.30789 0.0
H881 H 0.71094 0.14843 0.24966 0.0
H882 H 0.78214 0.14261 0.3129 0.0
H883 H 0.7847 0.19939 0.29582 0.0
H884 H 0.77819 0.22079 0.32132 0.0
H885 H 0.79363 0.19135 0.328 0.0
H886 H 0.73258 0.15908 0.3466 0.0
H887 H 0.76524 0.16773 0.35533 0.0
H888 H 0.73949 0.18928 0.36101 0.0
H889 H 0.63347 0.19942 0.22622 0.0
H890 H 0.61787 0.27355 0.2597 0.0
H891 H 0.65392 0.27067 0.28876 0.0
H892 H 0.64896 0.17075 0.28012 0.0
H893 H 0.65178 0.15946 0.24726 0.0
H894 H 0.67547 0.15245 0.27112 0.0
H895 H 0.6933 0.21065 0.22216 0.0
H896 H 0.71227 0.18604 0.23299 0.0
H897 H 0.68191 0.17809 0.21721 0.0
H898 H 0.73951 0.11305 0.24637 0.0
C899 C 0.72608 0.14777 0.26366 0.0
C900 C 0.39965 0.98749 0.00068 0.0
C901 C 0.39145 0.96659 0.98486 0.0
C902 C 0.40482 0.96181 0.96162 0.0
C903 C 0.43386 0.99852 0.97047 0.0
C904 C 0.42068 0.00304 0.99319 0.0
C905 C 0.43128 0.02608 0.00795 0.0
H906 H 0.51421 0.12844 0.01654 0.0
C907 C 0.45448 0.01878 0.96835 0.0
C908 C 0.45292 0.03493 0.99028 0.0
H909 H 0.45667 0.10324 0.07171 0.0
H910 H 0.44486 0.06696 0.04424 0.0
H911 H 0.48011 0.11573 0.96482 0.0
H912 H 0.53564 0.07331 0.00588 0.0
H913 H 0.54052 0.06674 0.97293 0.0
H914 H 0.54505 0.09916 0.98526 0.0
H915 H 0.51394 0.12414 0.96495 0.0
H916 H 0.50007 0.10137 0.94175 0.0
C917 C 0.40982 0.04581 0.00996 0.0
C918 C 0.44148 0.01712 0.03429 0.0
C919 C 0.5151 0.02057 0.89091 0.0
C920 C 0.53531 0.03767 0.88367 0.0
C921 C 0.54163 0.059 0.8999 0.0
C922 C 0.5281 0.06332 0.92284 0.0
C923 C 0.50791 0.04618 0.92978 0.0
C924 C 0.50163 0.02525 0.91393 0.0
C925 C 0.47923 0.00942 0.92433 0.0
C926 C 0.4735 0.02407 0.94922 0.0
C927 C 0.4904 0.0456 0.95223 0.0
C928 C 0.45675 0.01004 0.90478 0.0
C929 C 0.4885 0.98227 0.92957 0.0
C930 C 0.49896 0.11512 0.02251 0.0
C931 C 0.48625 0.11864 0.04622 0.0
C932 C 0.46682 0.10076 0.0536 0.0
C933 C 0.45994 0.07975 0.03756 0.0
C934 C 0.47272 0.07642 0.01388 0.0
C935 C 0.49205 0.09377 0.00679 0.0
C936 C 0.50414 0.08642 0.98141 0.0
C937 C 0.4886 0.06203 0.97433 0.0
C938 C 0.47012 0.05649 0.99333 0.0
C939 C 0.4996 0.108 0.96211 0.0
C940 C 0.53288 0.08127 0.98637 0.0
H941 H 0.43545 0.97299 0.93654 0.0
H942 H 0.38958 0.99205 0.0184 0.0
H943 H 0.44793 0.9971 0.03291 0.0
H944 H 0.45872 0.02844 0.04103 0.0
H945 H 0.42634 0.01778 0.04941 0.0
H946 H 0.39835 0.04581 0.99182 0.0
H947 H 0.39634 0.04123 0.02601 0.0
H948 H 0.41735 0.06572 0.01256 0.0
H949 H 0.50959 0.00417 0.87872 0.0
H950 H 0.5573 0.07228 0.89495 0.0
H951 H 0.53391 0.07988 0.93429 0.0
H952 H 0.45612 0.02912 0.89576 0.0
H953 H 0.4589 0.99552 0.88903 0.0
H954 H 0.43768 0.00707 0.91387 0.0
H955 H 0.5081 0.98331 0.93825 0.0
H956 H 0.47625 0.97182 0.94356 0.0
H957 H 0.4894 0.97068 0.91138 0.0
H958 H 0.39902 0.94571 0.94915 0.0
C959 C 0.42602 0.97762 0.95438 0.0
C960 C 0.21107 0.91905 0.99766 0.0
O961 O 0.21939 0.91421 0.97419 0.0
O962 O 0.23992 0.85768 0.9825 0.0
Zn963 Zn 0.24957 0.88322 0.01072 0.0
O964 O 0.28244 0.90225 0.00049 0.0
C965 C 0.27409 0.84878 0.04398 0.0
O966 O 0.29032 0.84817 0.02453 0.0
O967 O 0.22116 0.90801 0.01656 0.0
C968 C 0.29905 0.91051 0.01695 0.0
O969 O 0.29454 0.90718 0.04163 0.0
C970 C 0.2458 0.86129 0.95901 0.0
O971 O 0.25797 0.88271 0.95258 0.0
O972 O 0.25492 0.86306 0.04284 0.0
C973 C 0.16902 0.46564 0.2735 0.0
O974 O 0.16609 0.48073 0.29382 0.0
O975 O 0.10943 0.49995 0.28337 0.0
Zn976 Zn 0.13119 0.49772 0.2511 0.0
O977 O 0.15191 0.53079 0.24662 0.0
C978 C 0.09797 0.50788 0.20748 0.0
O979 O 0.10228 0.53196 0.21449 0.0
O980 O 0.15586 0.46917 0.25331 0.0
C981 C 0.16376 0.53501 0.22558 0.0
O982 O 0.1622 0.51764 0.20686 0.0
C983 C 0.0982 0.52067 0.28824 0.0
O984 O 0.10132 0.5397 0.27225 0.0
O985 O 0.10814 0.49046 0.2203 0.0
C986 C 0.80615 0.59422 0.98793 0.0
O987 O 0.80069 0.59896 0.96378 0.0
O988 O 0.76687 0.64793 0.96962 0.0
Zn989 Zn 0.76158 0.62482 9e-05 0.0
O990 O 0.73001 0.60192 0.99374 0.0
C991 C 0.7357 0.65802 0.03625 0.0
O992 O 0.71661 0.65474 0.01973 0.0
O993 O 0.79227 0.60331 0.00586 0.0
C994 C 0.71826 0.59167 0.01263 0.0
O995 O 0.72726 0.59587 0.0361 0.0
C996 C 0.7727 0.67163 0.97296 0.0
O997 O 0.77664 0.68081 0.99649 0.0
O998 O 0.75652 0.64669 0.03207 0.0
C999 C 0.83562 0.04437 0.27179 0.0
O1000 O 0.8384 0.02868 0.29097 0.0
O1001 O 0.89587 0.01261 0.28093 0.0
Zn1002 Zn 0.87313 0.01245 0.24941 0.0
O1003 O 0.85121 0.97988 0.24718 0.0
C1004 C 0.90597 0.99716 0.207 0.0
O1005 O 0.90067 0.97404 0.21544 0.0
O1006 O 0.84914 0.04158 0.25157 0.0
C1007 C 0.83838 0.97437 0.22679 0.0
O1008 O 0.84035 0.98974 0.2071 0.0
C1009 C 0.90666 0.99216 0.28683 0.0
O1010 O 0.90204 0.97136 0.27265 0.0
O1011 O 0.89595 0.01622 0.21819 0.0
C1012 C 0.29766 0.09897 0.49267 0.0
O1013 O 0.29287 0.10336 0.4683 0.0
O1014 O 0.25956 0.14817 0.46854 0.0
Zn1015 Zn 0.25226 0.12828 0.50077 0.0
O1016 O 0.22135 0.10459 0.49435 0.0
C1017 C 0.24955 0.17677 0.52872 0.0
O1018 O 0.2599 0.18576 0.50747 0.0
O1019 O 0.28283 0.10775 0.50996 0.0
C1020 C 0.20627 0.09845 0.5127 0.0
O1021 O 0.2114 0.10732 0.53615 0.0
C1022 C 0.24087 0.15716 0.45634 0.0
O1023 O 0.2173 0.15262 0.46474 0.0
O1024 O 0.24477 0.15283 0.53034 0.0
C1025 C 0.34286 0.5525 0.7768 0.0
O1026 O 0.34368 0.53584 0.79537 0.0
O1027 O 0.40206 0.5185 0.78765 0.0
Zn1028 Zn 0.37999 0.51965 0.75557 0.0
O1029 O 0.35523 0.48881 0.75281 0.0
C1030 C 0.42276 0.50893 0.72151 0.0
O1031 O 0.42813 0.49231 0.73915 0.0
O1032 O 0.35774 0.55014 0.7575 0.0
C1033 C 0.35921 0.46809 0.74044 0.0
O1034 O 0.38117 0.46542 0.72834 0.0
C1035 C 0.40782 0.49724 0.79708 0.0
O1036 O 0.39855 0.47591 0.7862 0.0
O1037 O 0.40316 0.52252 0.72432 0.0
C1038 C 0.71231 0.41973 0.49546 0.0
O1039 O 0.71898 0.41294 0.4719 0.0
O1040 O 0.74391 0.36287 0.47788 0.0
Zn1041 Zn 0.75263 0.38625 0.50832 0.0
O1042 O 0.78561 0.40627 0.50039 0.0
C1043 C 0.77612 0.3502 0.54103 0.0
O1044 O 0.79377 0.35128 0.52288 0.0
O1045 O 0.7241 0.41064 0.51448 0.0
C1046 C 0.80201 0.41402 0.51729 0.0
O1047 O 0.79735 0.40969 0.54177 0.0
C1048 C 0.76185 0.3551 0.46335 0.0
O1049 O 0.78572 0.36293 0.46821 0.0
O1050 O 0.75666 0.36405 0.53935 0.0
C1051 C 0.66391 0.96643 0.77568 0.0
O1052 O 0.6613 0.98196 0.79572 0.0
O1053 O 0.60526 0.00231 0.78498 0.0
Zn1054 Zn 0.62677 0.999 0.75258 0.0
O1055 O 0.64792 0.03172 0.74708 0.0
C1056 C 0.59234 0.00883 0.70993 0.0
O1057 O 0.59626 0.03285 0.71733 0.0
O1058 O 0.65092 0.96995 0.75538 0.0
C1059 C 0.6586 0.03603 0.72542 0.0
O1060 O 0.65574 0.01889 0.70661 0.0
C1061 C 0.59534 0.02359 0.79047 0.0
O1062 O 0.59959 0.0429 0.77504 0.0
O1063 O 0.60324 0.99143 0.72214 0.0
C1064 C 0.99428 0.20658 0.90829 0.0
O1065 O 0.9706 0.21243 0.90269 0.0
O1066 O 0.9741 0.2356 0.85162 0.0
Zn1067 Zn 0.00551 0.24641 0.8726 0.0
O1068 O 0.9983 0.27894 0.8925 0.0
C1069 C 0.04008 0.27205 0.83655 0.0
O1070 O 0.02467 0.29111 0.84016 0.0
O1071 O 0.01293 0.21879 0.89769 0.0
C1072 C 0.01574 0.29341 0.90294 0.0
O1073 O 0.0399 0.28714 0.90098 0.0
C1074 C 0.95882 0.25227 0.84406 0.0
O1075 O 0.96403 0.27652 0.84976 0.0
O1076 O 0.03573 0.25137 0.84853 0.0
C1077 C 0.49192 0.70813 0.41244 0.0
O1078 O 0.46827 0.71389 0.4066 0.0
O1079 O 0.47236 0.74234 0.35923 0.0
Zn1080 Zn 0.50414 0.75126 0.38063 0.0
O1081 O 0.49927 0.78288 0.40323 0.0
C1082 C 0.53301 0.76676 0.33523 0.0
O1083 O 0.51085 0.77549 0.32799 0.0
O1084 O 0.51064 0.72165 0.4036 0.0
C1085 C 0.50264 0.80558 0.39521 0.0
O1086 O 0.50989 0.80914 0.37124 0.0
C1087 C 0.45459 0.75777 0.35518 0.0
O1088 O 0.45656 0.78106 0.36516 0.0
O1089 O 0.53468 0.75596 0.35688 0.0
C1090 C 0.98685 0.80053 0.59384 0.0
O1091 O 0.96362 0.79073 0.59826 0.0
O1092 O 0.96919 0.76916 0.6519 0.0
Zn1093 Zn 1.00013 0.76254 0.62959 0.0
O1094 O 0.99385 0.73027 0.60845 0.0
C1095 C 0.03614 0.73871 0.66298 0.0
O1096 O 0.02031 0.71872 0.65946 0.0
O1097 O 0.00593 0.79156 0.60541 0.0
C1098 C 0.01193 0.71931 0.59662 0.0
O1099 O 0.03548 0.72935 0.59813 0.0
C1100 C 0.95345 0.75096 0.65767 0.0
O1101 O 0.9577 0.72769 0.64909 0.0
O1102 O 0.03135 0.75955 0.65211 0.0
C1103 C 0.49059 0.30003 0.09919 0.0
O1104 O 0.46724 0.29085 0.10412 0.0
O1105 O 0.47248 0.2637 0.15331 0.0
Zn1106 Zn 0.50441 0.25909 0.13163 0.0
O1107 O 0.50083 0.22776 0.10807 0.0
C1108 C 0.53358 0.24494 0.1762 0.0
O1109 O 0.51147 0.23402 0.18298 0.0
O1110 O 0.50977 0.2896 0.10916 0.0
C1111 C 0.50653 0.20549 0.11491 0.0
O1112 O 0.51497 0.20217 0.13842 0.0
C1113 C 0.45496 0.24631 0.15601 0.0
O1114 O 0.45729 0.22405 0.14419 0.0
O1115 O 0.53516 0.25684 0.15508 0.0
C1116 C 0.2354 0.82749 0.89434 0.0
C1117 C 0.23117 0.80201 0.90174 0.0
H1118 H 0.24364 0.86629 0.90674 0.0
C1119 C 0.231 0.79624 0.92807 0.0
H1120 H 0.23574 0.83233 0.8741 0.0
C1121 C 0.23515 0.81563 0.94672 0.0
C1122 C 0.24003 0.84106 0.93933 0.0
H1123 H 0.22763 0.77672 0.93419 0.0
H1124 H 0.2351 0.81061 0.9669 0.0
C1125 C 0.24003 0.84684 0.91298 0.0
C1126 C 0.05832 0.55105 0.34088 0.0
C1127 C 0.05346 0.53056 0.35751 0.0
H1128 H 0.07606 0.56396 0.30605 0.0
C1129 C 0.06266 0.50641 0.35078 0.0
H1130 H 0.05117 0.5698 0.34539 0.0
C1131 C 0.07709 0.50304 0.32818 0.0
C1132 C 0.08234 0.52371 0.3118 0.0
H1133 H 0.05929 0.49032 0.36331 0.0
H1134 H 0.08431 0.48432 0.32368 0.0
C1135 C 0.07252 0.54766 0.31827 0.0
C1136 C 0.77466 0.7322 0.93423 0.0
C1137 C 0.77396 0.72242 0.90877 0.0
H1138 H 0.77517 0.72384 0.97444 0.0
C1139 C 0.77313 0.69576 0.90451 0.0
H1140 H 0.77561 0.75267 0.93805 0.0
C1141 C 0.77281 0.67921 0.92534 0.0
C1142 C 0.7736 0.689 0.95082 0.0
H1143 H 0.77242 0.68771 0.88506 0.0
H1144 H 0.77197 0.65876 0.92146 0.0
C1145 C 0.77463 0.71567 0.95504 0.0
C1146 C 0.95214 0.96815 0.33706 0.0
C1147 C 0.95864 0.99059 0.35143 0.0
H1148 H 0.93074 0.95106 0.30551 0.0
C1149 C 0.94813 0.01372 0.34422 0.0
H1150 H 0.9602 0.95009 0.34194 0.0
C1151 C 0.93116 0.01429 0.32328 0.0
C1152 C 0.92452 0.99177 0.30906 0.0
H1153 H 0.95262 0.03127 0.35507 0.0
H1154 H 0.92321 0.03237 0.3183 0.0
C1155 C 0.93532 0.96874 0.31611 0.0
C1156 C 0.23157 0.20165 0.59545 0.0
C1157 C 0.23601 0.22817 0.59292 0.0
H1158 H 0.23242 0.16453 0.57718 0.0
C1159 C 0.24381 0.2376 0.56881 0.0
H1160 H 0.22574 0.19377 0.61381 0.0
C1161 C 0.24786 0.2209 0.54796 0.0
C1162 C 0.2441 0.19435 0.55065 0.0
H1163 H 0.24691 0.25796 0.56607 0.0
H1164 H 0.25416 0.22886 0.52978 0.0
C1165 C 0.23555 0.1849 0.57451 0.0
C1166 C 0.45788 0.53768 0.66447 0.0
C1167 C 0.47145 0.51675 0.65471 0.0
H1168 H 0.43157 0.55146 0.69295 0.0
C1169 C 0.46857 0.49319 0.66725 0.0
H1170 H 0.45996 0.55632 0.65589 0.0
C1171 C 0.45293 0.49074 0.68908 0.0
C1172 C 0.43927 0.51159 0.69849 0.0
H1173 H 0.47814 0.47645 0.66011 0.0
H1174 H 0.45118 0.47238 0.69834 0.0
C1175 C 0.44171 0.53501 0.68589 0.0
C1176 C 0.76079 0.31055 0.59998 0.0
C1177 C 0.78477 0.30024 0.60504 0.0
H1178 H 0.7393 0.33483 0.57593 0.0
C1179 C 0.80568 0.30621 0.58877 0.0
H1180 H 0.74442 0.30635 0.61235 0.0
C1181 C 0.80277 0.32227 0.5679 0.0
C1182 C 0.77894 0.333 0.56305 0.0
H1183 H 0.82433 0.29834 0.59216 0.0
H1184 H 0.81929 0.32651 0.55576 0.0
C1185 C 0.75795 0.32696 0.57928 0.0
C1186 C 0.55509 0.96997 0.65871 0.0
C1187 C 0.54578 0.98918 0.64304 0.0
H1188 H 0.57699 0.96106 0.69206 0.0
C1189 C 0.55158 0.01495 0.64986 0.0
H1190 H 0.55065 0.94995 0.65428 0.0
C1191 C 0.56647 0.02133 0.67172 0.0
C1192 C 0.576 0.0021 0.68718 0.0
H1193 H 0.54503 0.03023 0.63805 0.0
H1194 H 0.57076 0.04136 0.67627 0.0
C1195 C 0.57008 0.97635 0.68048 0.0
C1196 C 0.89719 0.25616 0.80574 0.0
C1197 C 0.89182 0.23039 0.79869 0.0
H1198 H 0.92244 0.28323 0.82553 0.0
C1199 C 0.90826 0.2117 0.80737 0.0
H1200 H 0.88466 0.27097 0.7997 0.0
C1201 C 0.92995 0.21872 0.82229 0.0
C1202 C 0.93556 0.24458 0.82888 0.0
H1203 H 0.90476 0.19171 0.80207 0.0
H1204 H 0.94245 0.20392 0.8284 0.0
C1205 C 0.9188 0.26317 0.82064 0.0
C1206 C 0.48813 0.87291 0.4175 0.0
C1207 C 0.48477 0.86996 0.44418 0.0
H1208 H 0.49672 0.85496 0.38117 0.0
C1209 C 0.48786 0.84579 0.4548 0.0
H1210 H 0.48609 0.89139 0.40886 0.0
C1211 C 0.49373 0.82484 0.43894 0.0
C1212 C 0.49701 0.82777 0.4122 0.0
H1213 H 0.48523 0.84299 0.47531 0.0
H1214 H 0.4957 0.80637 0.44761 0.0
C1215 C 0.49436 0.85207 0.40169 0.0
C1216 C 0.09627 0.25505 0.79361 0.0
C1217 C 0.10363 0.27891 0.78343 0.0
H1218 H 0.07062 0.23419 0.81855 0.0
C1219 C 0.09006 0.30055 0.79099 0.0
H1220 H 0.10654 0.23809 0.78832 0.0
C1221 C 0.0694 0.29832 0.80821 0.0
C1222 C 0.06206 0.27446 0.81844 0.0
H1223 H 0.09519 0.31915 0.78329 0.0
H1224 H 0.05924 0.31534 0.81353 0.0
C1225 C 0.07579 0.25286 0.81104 0.0
C1226 C 0.52618 0.66037 0.45283 0.0
C1227 C 0.50547 0.64495 0.46191 0.0
H1228 H 0.53818 0.69243 0.43018 0.0
C1229 C 0.48034 0.65023 0.45418 0.0
H1230 H 0.54575 0.65702 0.45867 0.0
C1231 C 0.47598 0.67066 0.43804 0.0
C1232 C 0.49665 0.68624 0.4292 0.0
H1233 H 0.464 0.63849 0.46051 0.0
H1234 H 0.45636 0.67423 0.43253 0.0
C1235 C 0.52182 0.68078 0.43663 0.0
C1236 C 0.90573 0.78469 0.70068 0.0
C1237 C 0.88966 0.76409 0.70861 0.0
H1238 H 0.93863 0.79672 0.67846 0.0
C1239 C 0.894 0.73942 0.69866 0.0
H1240 H 0.90297 0.80388 0.70818 0.0
C1241 C 0.91443 0.73528 0.68177 0.0
C1242 C 0.93102 0.75572 0.67447 0.0
H1243 H 0.8817 0.72322 0.70412 0.0
H1244 H 0.91741 0.71596 0.67477 0.0
C1245 C 0.92625 0.78054 0.68381 0.0
C1246 C 0.97334 0.85328 0.54741 0.0
C1247 C 0.99835 0.86172 0.54038 0.0
H1248 H 0.95008 0.82738 0.56981 0.0
C1249 C 0.01951 0.84978 0.55107 0.0
H1250 H 0.95663 0.86229 0.53982 0.0
C1251 C 0.01577 0.82999 0.56849 0.0
C1252 C 0.99077 0.82156 0.57549 0.0
H1253 H 0.03902 0.85553 0.54576 0.0
H1254 H 0.0325 0.82117 0.57631 0.0
C1255 C 0.96959 0.83336 0.56472 0.0
C1256 C 0.08647 0.71261 0.70718 0.0
C1257 C 0.10168 0.73473 0.71327 0.0
H1258 H 0.05372 0.69653 0.68665 0.0
C1259 C 0.09566 0.75796 0.70204 0.0
H1260 H 0.09052 0.69449 0.71572 0.0
C1261 C 0.0746 0.75917 0.68544 0.0
C1262 C 0.05901 0.73718 0.67979 0.0
H1263 H 0.10724 0.77526 0.70612 0.0
H1264 H 0.07039 0.77742 0.67729 0.0
C1265 C 0.06529 0.71384 0.69067 0.0
C1266 C 0.0212 0.65856 0.55705 0.0
C1267 C 0.99566 0.6491 0.5538 0.0
H1268 H 0.0464 0.68815 0.57313 0.0
C1269 C 0.9756 0.66308 0.56458 0.0
H1270 H 0.03712 0.64811 0.54924 0.0
C1271 C 0.98092 0.68584 0.57845 0.0
C1272 C 0.00643 0.69528 0.58173 0.0
H1273 H 0.95569 0.6566 0.56205 0.0
H1274 H 0.96497 0.69611 0.58648 0.0
C1275 C 0.02652 0.68144 0.57084 0.0
C1276 C 0.79228 0.922 0.20098 0.0
C1277 C 0.7859 0.90867 0.22351 0.0
H1278 H 0.81376 0.9533 0.18438 0.0
C1279 C 0.79728 0.91679 0.24703 0.0
H1280 H 0.78365 0.91624 0.18262 0.0
C1281 C 0.81465 0.93789 0.24804 0.0
C1282 C 0.82077 0.95146 0.22557 0.0
H1283 H 0.7929 0.9067 0.26464 0.0
H1284 H 0.82304 0.94373 0.26649 0.0
C1285 C 0.80943 0.94326 0.20203 0.0
C1286 C 0.79199 0.0974 0.25336 0.0
C1287 C 0.78076 0.10369 0.27722 0.0
H1288 H 0.81841 0.07393 0.23297 0.0
C1289 C 0.78745 0.09012 0.29918 0.0
H1290 H 0.78734 0.10773 0.23618 0.0
C1291 C 0.80512 0.07073 0.29737 0.0
C1292 C 0.8167 0.06472 0.2736 0.0
H1293 H 0.77894 0.09449 0.31779 0.0
H1294 H 0.80989 0.06066 0.31466 0.0
C1295 C 0.80991 0.07821 0.25159 0.0
C1296 C 0.34975 0.94253 0.9744 0.0
C1297 C 0.36865 0.95046 0.99258 0.0
H1298 H 0.31286 0.92379 0.96782 0.0
C1299 C 0.3649 0.94417 0.01861 0.0
H1300 H 0.35193 0.94727 0.95424 0.0
C1301 C 0.34243 0.93102 0.02644 0.0
C1302 C 0.32321 0.92369 0.00841 0.0
H1303 H 0.37929 0.9496 0.03305 0.0
H1304 H 0.34008 0.92677 0.0467 0.0
C1305 C 0.32727 0.92926 0.98223 0.0
C1306 C 0.21026 0.41097 0.2518 0.0
C1307 C 0.22171 0.40422 0.2751 0.0
H1308 H 0.18447 0.43549 0.23303 0.0
C1309 C 0.21611 0.41816 0.2978 0.0
H1310 H 0.21402 0.40041 0.23406 0.0
C1311 C 0.19922 0.43829 0.29724 0.0
C1312 C 0.18739 0.44474 0.27402 0.0
H1313 H 0.22483 0.41351 0.31601 0.0
H1314 H 0.19523 0.44857 0.31508 0.0
C1315 C 0.19319 0.43094 0.25127 0.0
C1316 C 0.14538 0.05798 0.52365 0.0
C1317 C 0.13959 0.04863 0.49858 0.0
H1318 H 0.17086 0.08099 0.54776 0.0
C1319 C 0.1556 0.05628 0.47805 0.0
H1320 H 0.13319 0.05273 0.53982 0.0
C1321 C 0.17721 0.07254 0.48258 0.0
C1322 C 0.18319 0.08157 0.50774 0.0
H1323 H 0.15178 0.04921 0.45855 0.0
H1324 H 0.18933 0.07787 0.46639 0.0
C1325 C 0.16692 0.07426 0.52818 0.0
C1326 C 0.6974 0.08902 0.6927 0.0
C1327 C 0.7036 0.10577 0.71356 0.0
H1328 H 0.67853 0.05383 0.6801 0.0
C1329 C 0.69469 0.09951 0.73836 0.0
H1330 H 0.70422 0.09319 0.67342 0.0
C1331 C 0.67991 0.07698 0.7422 0.0
C1332 C 0.67393 0.0601 0.72137 0.0
H1333 H 0.69898 0.11216 0.75477 0.0
H1334 H 0.67333 0.07273 0.76155 0.0
C1335 C 0.68282 0.06639 0.69658 0.0
C1336 C 0.35824 0.06109 0.48775 0.0
C1337 C 0.36259 0.05506 0.51367 0.0
H1338 H 0.33444 0.07966 0.4608 0.0
C1339 C 0.34542 0.06371 0.53263 0.0
H1340 H 0.37128 0.05504 0.47269 0.0
C1341 C 0.3244 0.07801 0.52584 0.0
C1342 C 0.32001 0.08394 0.49991 0.0
H1343 H 0.34798 0.05912 0.55273 0.0
H1344 H 0.31149 0.08427 0.54093 0.0
C1345 C 0.33718 0.07534 0.48094 0.0
C1346 C 0.66568 0.46367 0.52874 0.0
C1347 C 0.65085 0.47157 0.50787 0.0
H1348 H 0.69666 0.44116 0.54124 0.0
C1349 C 0.65656 0.46233 0.48289 0.0
H1350 H 0.66208 0.47068 0.54818 0.0
C1351 C 0.67656 0.44562 0.47888 0.0
C1352 C 0.69127 0.43762 0.49976 0.0
H1353 H 0.64529 0.46768 0.46643 0.0
H1354 H 0.68033 0.43879 0.4594 0.0
C1355 C 0.68561 0.44684 0.52474 0.0
C1356 C 0.72563 0.31002 0.41663 0.0
C1357 C 0.7459 0.29976 0.4023 0.0
H1358 H 0.71474 0.33554 0.44725 0.0
C1359 C 0.7713 0.30841 0.4077 0.0
H1360 H 0.70587 0.30356 0.41301 0.0
C1361 C 0.77639 0.32666 0.42727 0.0
C1362 C 0.75619 0.3366 0.44193 0.0
H1363 H 0.78728 0.30113 0.39672 0.0
H1364 H 0.79622 0.33277 0.43104 0.0
C1365 C 0.73073 0.32823 0.4363 0.0
C1366 C 0.55837 0.0093 0.85217 0.0
C1367 C 0.54984 0.03363 0.8593 0.0
H1368 H 0.57966 0.98702 0.82497 0.0
C1369 C 0.55589 0.05438 0.84331 0.0
H1370 H 0.55416 0.99298 0.86421 0.0
C1371 C 0.57045 0.051 0.82091 0.0
C1372 C 0.57942 0.0268 0.81399 0.0
H1373 H 0.5493 0.07329 0.8481 0.0
H1374 H 0.57482 0.06747 0.80914 0.0
C1375 C 0.57311 0.00593 0.82979 0.0
C1376 C 0.27544 0.1979 0.40651 0.0
C1377 C 0.25475 0.20898 0.39404 0.0
H1378 H 0.28731 0.17283 0.43595 0.0
C1379 C 0.22947 0.20201 0.40151 0.0
H1380 H 0.29514 0.20306 0.40137 0.0
C1381 C 0.22498 0.18478 0.42138 0.0
C1382 C 0.24567 0.17414 0.43425 0.0
H1383 H 0.21312 0.20988 0.39199 0.0
H1384 H 0.20527 0.18006 0.42685 0.0
C1385 C 0.27095 0.18067 0.42641 0.0
C1386 C 0.45103 0.47166 0.84844 0.0
C1387 C 0.46038 0.49419 0.86113 0.0
H1388 H 0.42714 0.45495 0.81851 0.0
C1389 C 0.45234 0.51789 0.85248 0.0
H1390 H 0.45717 0.4531 0.85427 0.0
C1391 C 0.43519 0.51897 0.83174 0.0
C1392 C 0.42571 0.49636 0.81925 0.0
H1393 H 0.45899 0.53558 0.86199 0.0
H1394 H 0.42928 0.5375 0.82557 0.0
C1395 C 0.43386 0.47273 0.82783 0.0
C1396 C 0.75393 0.70127 0.09348 0.0
C1397 C 0.73021 0.71169 0.09992 0.0
H1398 H 0.77421 0.67592 0.06852 0.0
C1399 C 0.70815 0.70379 0.08573 0.0
H1400 H 0.77118 0.70683 0.10427 0.0
C1401 C 0.70986 0.68616 0.06519 0.0
C1402 C 0.73363 0.67589 0.0586 0.0
H1403 H 0.68966 0.71167 0.09017 0.0
H1404 H 0.69259 0.68071 0.05439 0.0
C1405 C 0.7556 0.68346 0.07312 0.0
C1406 C 0.95191 0.98392 0.15187 0.0
C1407 C 0.95996 0.0088 0.14487 0.0
H1408 H 0.92846 0.96071 0.17686 0.0
C1409 C 0.94983 0.02978 0.15831 0.0
H1410 H 0.95904 0.96735 0.14168 0.0
C1411 C 0.9321 0.02598 0.17826 0.0
C1412 C 0.92417 0.00112 0.18535 0.0
H1413 H 0.95591 0.04919 0.1537 0.0
H1414 H 0.92485 0.04259 0.18831 0.0
C1415 C 0.93424 0.98012 0.17192 0.0
C1416 C 0.30597 0.80766 0.09288 0.0
C1417 C 0.28548 0.80177 0.10969 0.0
H1418 H 0.31834 0.82697 0.05876 0.0
C1419 C 0.2612 0.8115 0.10486 0.0
H1420 H 0.32484 0.80025 0.09614 0.0
C1421 C 0.25755 0.8271 0.0837 0.0
C1422 C 0.278 0.83283 0.06673 0.0
H1423 H 0.24516 0.80731 0.11766 0.0
H1424 H 0.23864 0.83442 0.08045 0.0
C1425 C 0.30221 0.82286 0.07147 0.0
C1426 C 0.05894 0.51365 0.14621 0.0
C1427 C 0.05321 0.48784 0.13952 0.0
H1428 H 0.07754 0.54023 0.17287 0.0
C1429 C 0.06186 0.46875 0.15573 0.0
H1430 H 0.05285 0.52882 0.134 0.0
C1431 C 0.0762 0.47528 0.17787 0.0
C1432 C 0.08216 0.50106 0.1844 0.0
H1433 H 0.05741 0.44871 0.15141 0.0
H1434 H 0.08265 0.46007 0.18984 0.0
C1435 C 0.07322 0.52019 0.16843 0.0
C1436 C 0.39376 0.76035 0.31527 0.0
C1437 C 0.39023 0.7348 0.3066 0.0
H1438 H 0.41671 0.7876 0.33752 0.0
C1439 C 0.40766 0.7167 0.31457 0.0
H1440 H 0.38046 0.77466 0.30966 0.0
C1441 C 0.4285 0.72411 0.33046 0.0
C1442 C 0.4322 0.74974 0.33889 0.0
H1443 H 0.40553 0.69692 0.30801 0.0
H1444 H 0.44178 0.70977 0.33602 0.0
C1445 C 0.41446 0.76772 0.33132 0.0
C1446 C 0.02128 0.35614 0.94104 0.0
C1447 C 0.99529 0.36196 0.94449 0.0
H1448 H 0.04814 0.33002 0.92525 0.0
C1449 C 0.97613 0.34517 0.93385 0.0
H1450 H 0.03655 0.36884 0.94865 0.0
C1451 C 0.98278 0.32301 0.92026 0.0
C1452 C 0.00876 0.31708 0.91705 0.0
H1453 H 0.95592 0.34886 0.93643 0.0
H1454 H 0.96751 0.31042 0.91248 0.0
C1455 C 0.02794 0.33394 0.92751 0.0
C1456 C 0.57894 0.79104 0.28377 0.0
C1457 C 0.59848 0.77337 0.28499 0.0
H1458 H 0.54254 0.8025 0.29856 0.0
C1459 C 0.59668 0.7538 0.30305 0.0
H1460 H 0.57999 0.80622 0.26987 0.0
C1461 C 0.57562 0.75195 0.31978 0.0
C1462 C 0.55572 0.76928 0.31823 0.0
H1463 H 0.61163 0.74001 0.30425 0.0
H1464 H 0.57464 0.73665 0.33355 0.0
C1465 C 0.55755 0.78882 0.30006 0.0
C1466 C 0.98281 0.15154 0.9537 0.0
C1467 C 0.00794 0.14672 0.96181 0.0
H1468 H 0.95881 0.17413 0.93055 0.0
C1469 C 0.02863 0.16169 0.95197 0.0
H1470 H 0.96646 0.1401 0.96052 0.0
C1471 C 0.02425 0.18108 0.93453 0.0
C1472 C 0.99908 0.18598 0.92662 0.0
H1473 H 0.0482 0.15869 0.95804 0.0
H1474 H 0.04058 0.19235 0.92741 0.0
C1475 C 0.97842 0.17098 0.93638 0.0
C1476 C 0.40868 0.27898 0.20144 0.0
C1477 C 0.39121 0.25873 0.20729 0.0
H1478 H 0.44259 0.29094 0.18078 0.0
C1479 C 0.39438 0.23462 0.19545 0.0
H1480 H 0.40684 0.29772 0.21043 0.0
C1481 C 0.41483 0.23071 0.17848 0.0
C1482 C 0.43265 0.25079 0.17308 0.0
H1483 H 0.38103 0.21873 0.19932 0.0
H1484 H 0.41684 0.21183 0.16988 0.0
C1485 C 0.42923 0.27504 0.18458 0.0
C1486 C 0.5232 0.34973 0.05686 0.0
C1487 C 0.50212 0.36299 0.04779 0.0
H1488 H 0.53613 0.31956 0.0802 0.0
C1489 C 0.47721 0.35547 0.05601 0.0
H1490 H 0.54261 0.35474 0.05061 0.0
C1491 C 0.47346 0.33508 0.07275 0.0
C1492 C 0.49455 0.32185 0.08177 0.0
H1493 H 0.46058 0.36551 0.04971 0.0
H1494 H 0.45403 0.32976 0.07869 0.0
C1495 C 0.51947 0.32946 0.07372 0.0
C1496 C 0.59862 0.25905 0.20727 0.0
C1497 C 0.60032 0.23841 0.22395 0.0
H1498 H 0.5762 0.27707 0.17866 0.0
C1499 C 0.58011 0.21985 0.22475 0.0
H1500 H 0.61405 0.27355 0.20638 0.0
C1501 C 0.55827 0.22212 0.20939 0.0
C1502 C 0.55657 0.24269 0.19255 0.0
H1503 H 0.58104 0.20385 0.23761 0.0
H1504 H 0.54282 0.20765 0.2105 0.0
C1505 C 0.57705 0.26101 0.19144 0.0
C1506 C 0.49389 0.16578 0.0538 0.0
C1507 C 0.49298 0.14086 0.06339 0.0
H1508 H 0.49861 0.2059 0.06269 0.0
C1509 C 0.49742 0.13731 0.08978 0.0
H1510 H 0.49038 0.16899 0.03354 0.0
C1511 C 0.50234 0.15831 0.10639 0.0
C1512 C 0.50255 0.18331 0.097 0.0
H1513 H 0.49699 0.11825 0.09759 0.0
H1514 H 0.50545 0.15494 0.12669 0.0
C1515 C 0.49844 0.18685 0.0705 0.0
C1516 C 0.32591 0.40328 0.72845 0.0
C1517 C 0.30035 0.40789 0.73562 0.0
H1518 H 0.36442 0.41862 0.72425 0.0
C1519 C 0.29455 0.43235 0.74523 0.0
H1520 H 0.33124 0.38454 0.72152 0.0
C1521 C 0.31374 0.4518 0.74721 0.0
C1522 C 0.3391 0.44729 0.73939 0.0
H1523 H 0.27505 0.43669 0.75065 0.0
H1524 H 0.30857 0.47052 0.75436 0.0
C1525 C 0.34501 0.42279 0.73015 0.0
C1526 C 0.29155 0.59639 0.80119 0.0
C1527 C 0.28632 0.61036 0.77907 0.0
H1528 H 0.31345 0.56712 0.81779 0.0
C1529 C 0.30001 0.60539 0.75624 0.0
H1530 H 0.28116 0.59975 0.819 0.0
C1531 C 0.3187 0.58688 0.75559 0.0
C1532 C 0.32382 0.57278 0.77769 0.0
H1533 H 0.29654 0.61608 0.73899 0.0
H1534 H 0.32894 0.58347 0.7377 0.0
C1535 C 0.31 0.57769 0.80047 0.0
C1536 C 0.86753 0.44851 0.5202 0.0
C1537 C 0.87225 0.45365 0.49403 0.0
H1538 H 0.84175 0.43206 0.54807 0.0
C1539 C 0.85392 0.44507 0.47552 0.0
H1540 H 0.88142 0.45454 0.53491 0.0
C1541 C 0.83119 0.4321 0.48306 0.0
C1542 C 0.82628 0.4274 0.50929 0.0
H1543 H 0.85681 0.44897 0.45526 0.0
H1544 H 0.81735 0.42601 0.46832 0.0
C1545 C 0.84481 0.43556 0.52774 0.0
C1546 C 0.70369 0.91019 0.7552 0.0
C1547 C 0.71647 0.90482 0.77824 0.0
H1548 H 0.67698 0.93367 0.73634 0.0
C1549 C 0.71185 0.91992 0.80044 0.0
H1550 H 0.7066 0.89872 0.73785 0.0
C1551 C 0.69485 0.93995 0.7996 0.0
C1552 C 0.68197 0.94524 0.77659 0.0
H1553 H 0.7216 0.91642 0.81842 0.0
H1554 H 0.69179 0.95124 0.81703 0.0
C1555 C 0.68658 0.93012 0.7544 0.0
C1556 C 0.6577 0.5514 0.02561 0.0
C1557 C 0.64968 0.54392 0.00053 0.0
H1558 H 0.68555 0.57219 0.04906 0.0
C1559 C 0.66415 0.5528 0.97936 0.0
H1560 H 0.64675 0.54534 0.04234 0.0
C1561 C 0.68633 0.56847 0.98322 0.0
C1562 C 0.69456 0.5755 0.00835 0.0
H1563 H 0.65869 0.54719 0.9598 0.0
H1564 H 0.6972 0.57478 0.96653 0.0
C1565 C 0.67991 0.56691 0.02947 0.0
C1566 C 0.19853 0.5989 0.23984 0.0
C1567 C 0.20831 0.60526 0.2154 0.0
H1568 H 0.17657 0.57185 0.26219 0.0
C1569 C 0.20325 0.58839 0.19436 0.0
H1570 H 0.20195 0.61164 0.25636 0.0
C1571 C 0.18885 0.56557 0.1977 0.0
C1572 C 0.17899 0.55922 0.22211 0.0
H1573 H 0.21077 0.59266 0.17536 0.0
H1574 H 0.1854 0.55294 0.1811 0.0
C1575 C 0.1839 0.57618 0.24313 0.0
C1576 C 0.86585 0.555 0.98137 0.0
C1577 C 0.87091 0.54929 0.00725 0.0
H1578 H 0.84153 0.57372 0.95494 0.0
C1579 C 0.85423 0.55814 0.02656 0.0
H1580 H 0.87846 0.54868 0.96606 0.0
C1581 C 0.83323 0.57262 0.02023 0.0
C1582 C 0.8283 0.57855 0.99441 0.0
H1583 H 0.85726 0.55372 0.04663 0.0
H1584 H 0.82084 0.57913 0.03565 0.0
C1585 C 0.84477 0.56947 0.97502 0.0
C1586 C 0.15731 0.96384 0.98456 0.0
C1587 C 0.1497 0.97105 0.00965 0.0
H1588 H 0.18254 0.94186 0.96113 0.0
C1589 C 0.16257 0.96104 0.03083 0.0
H1590 H 0.14756 0.97082 0.9678 0.0
C1591 C 0.18249 0.94415 0.027 0.0
C1592 C 0.19006 0.93699 0.00189 0.0
H1593 H 0.15745 0.96645 0.05041 0.0
H1594 H 0.19202 0.93682 0.04372 0.0
C1595 C 0.17729 0.94708 0.98073 0.0
loop_
_geom_bond_atom_site_label_1
_geom_bond_atom_site_label_2
_geom_bond_distance
_geom_bond_site_symmetry_2
_ccdc_geom_bond_type
C0 C1 1.391 . S
C0 C4 1.391 . S
C0 H42 0.948 . S
C1 C0 1.391 . S
C1 C2 1.391 . S
C2 C1 1.391 . S
C2 H58 0.947 1_455 S
C2 C59 1.392 1_556 S
C3 C4 1.391 1_554 S
C3 C7 1.397 . S
C3 C59 1.419 . S
C4 C0 1.391 . S
C4 C3 1.391 1_556 S
C4 C5 1.399 . S
C5 C4 1.399 . S
C5 C8 1.396 1_556 S
C5 C17 1.453 . S
C5 C18 1.684 . S
H6 C30 0.948 . S
C7 C3 1.397 . S
C7 C8 1.394 . S
C7 C26 1.723 . S
C8 C5 1.396 1_554 S
C8 C7 1.394 . S
C8 C38 1.723 . S
H9 C32 0.947 1_556 S
H10 C33 0.948 1_556 S
H11 C39 1.018 . S
H12 C40 0.979 . S
H13 C40 0.980 . S
H14 C40 0.983 . S
H15 C39 0.942 1_565 S
H16 C39 0.983 . S
C17 C5 1.453 . S
C17 H46 0.982 1_556 S
C17 H47 0.979 . S
C17 H48 0.977 . S
C18 C5 1.684 . S
C18 H43 0.979 . S
C18 H44 0.980 . S
C18 H45 0.983 . S
C19 C20 1.391 . S
C19 C24 1.391 . S
C19 H49 0.948 . S
C20 C19 1.391 . S
C20 C21 1.391 . S
C21 C20 1.391 . S
C21 C22 1.392 1_655 S
C21 H50 0.947 1_545 S
C22 C21 1.392 1_455 S
C22 C23 1.419 . S
C22 H51 0.948 1_545 S
C23 C22 1.419 . S
C23 C24 1.391 1_455 S
C23 C27 1.397 . S
C24 C19 1.391 . S
C24 C23 1.391 1_655 S
C24 C25 1.399 . S
C25 C24 1.399 . S
C25 C26 1.396 1_655 S
C25 C28 1.453 . S
C25 C29 1.684 . S
C26 C7 1.723 . S
C26 C25 1.396 1_455 S
C26 C27 1.394 . S
C27 C23 1.397 . S
C27 C26 1.394 . S
C27 C37 1.723 . S
C28 C25 1.453 . S
C28 H52 0.982 1_655 S
C28 H53 0.979 . S
C28 H54 0.977 . S
C29 C25 1.684 . S
C29 H55 0.979 . S
C29 H56 0.980 . S
C29 H57 0.983 . S
C30 H6 0.948 . S
C30 C31 1.391 . S
C30 C35 1.391 . S
C31 C30 1.391 . S
C31 C32 1.395 1_565 S
C32 H9 0.947 1_554 S
C32 C31 1.395 1_545 S
C32 C33 1.388 . S
C33 H10 0.948 1_554 S
C33 C32 1.388 . S
C33 C34 1.419 . S
C34 C33 1.419 . S
C34 C35 1.391 1_545 S
C34 C38 1.397 . S
C35 C30 1.391 . S
C35 C34 1.391 1_565 S
C35 C36 1.399 . S
C36 C35 1.399 . S
C36 C37 1.396 1_565 S
C36 C39 1.451 1_565 S
C36 C40 1.684 . S
C37 C27 1.723 . S
C37 C36 1.396 1_545 S
C37 C38 1.394 . S
C38 C8 1.723 . S
C38 C34 1.397 . S
C38 C37 1.394 . S
C39 H11 1.018 . S
C39 H15 0.942 1_545 S
C39 H16 0.983 . S
C39 C36 1.451 1_545 S
C40 H12 0.979 . S
C40 H13 0.980 . S
C40 H14 0.983 . S
C40 C36 1.684 . S
H41 C59 0.948 1_655 S
H42 C0 0.948 . S
H43 C18 0.979 . S
H44 C18 0.980 . S
H45 C18 0.983 . S
H46 C17 0.982 1_554 S
H47 C17 0.979 . S
H48 C17 0.977 . S
H49 C19 0.948 . S
H50 C21 0.947 1_565 S
H51 C22 0.948 1_565 S
H52 C28 0.982 1_455 S
H53 C28 0.979 . S
H54 C28 0.977 . S
H55 C29 0.979 . S
H56 C29 0.980 . S
H57 C29 0.983 . S
H58 C2 0.947 1_655 S
C59 C2 1.392 1_554 S
C59 C3 1.419 . S
C59 H41 0.948 1_455 S
C60 C61 1.391 . S
C60 C64 1.391 . S
C60 H102 0.948 . S
C61 C60 1.391 . S
C61 C62 1.391 . S
C62 C61 1.391 . S
C62 H118 0.947 . S
C62 C119 1.392 . S
C63 C64 1.391 . S
C63 C67 1.397 . S
C63 C119 1.419 . S
C64 C60 1.391 . S
C64 C63 1.391 . S
C64 C65 1.399 . S
C65 C64 1.399 . S
C65 C68 1.396 . S
C65 C77 1.453 . S
C65 C78 1.684 . S
H66 C90 0.948 . S
C67 C63 1.397 . S
C67 C68 1.394 . S
C67 C86 1.723 . S
C68 C65 1.396 . S
C68 C67 1.394 . S
C68 C98 1.723 . S
H69 C92 0.947 . S
H70 C93 0.948 . S
H71 C99 0.982 . S
H72 C100 0.979 . S
H73 C100 0.980 . S
H74 C100 0.983 . S
H75 C99 0.979 . S
H76 C99 0.977 . S
C77 C65 1.453 . S
C77 H106 0.982 . S
C77 H107 0.979 . S
C77 H108 0.977 . S
C78 C65 1.684 . S
C78 H103 0.979 . S
C78 H104 0.980 . S
C78 H105 0.983 . S
C79 C80 1.391 . S
C79 C84 1.391 . S
C79 H109 0.948 . S
C80 C79 1.391 . S
C80 C81 1.391 . S
C81 C80 1.391 . S
C81 C82 1.392 . S
C81 H110 0.947 . S
C82 C81 1.392 . S
C82 C83 1.419 . S
C82 H111 0.948 . S
C83 C82 1.419 . S
C83 C84 1.391 . S
C83 C87 1.397 . S
C84 C79 1.391 . S
C84 C83 1.391 . S
C84 C85 1.399 . S
C85 C84 1.399 . S
C85 C86 1.396 . S
C85 C88 1.453 . S
C85 C89 1.684 . S
C86 C67 1.723 . S
C86 C85 1.396 . S
C86 C87 1.394 . S
C87 C83 1.397 . S
C87 C86 1.394 . S
C87 C97 1.723 . S
C88 C85 1.453 . S
C88 H112 0.982 . S
C88 H113 0.979 . S
C88 H114 0.977 . S
C89 C85 1.684 . S
C89 H115 0.979 . S
C89 H116 0.980 . S
C89 H117 0.983 . S
C90 H66 0.948 . S
C90 C91 1.391 . S
C90 C95 1.391 . S
C91 C90 1.391 . S
C91 C92 1.391 . S
C92 H69 0.947 . S
C92 C91 1.391 . S
C92 C93 1.392 . S
C93 H70 0.948 . S
C93 C92 1.392 . S
C93 C94 1.419 . S
C94 C93 1.419 . S
C94 C95 1.391 . S
C94 C98 1.397 . S
C95 C90 1.391 . S
C95 C94 1.391 . S
C95 C96 1.399 . S
C96 C95 1.399 . S
C96 C97 1.396 . S
C96 C99 1.453 . S
C96 C100 1.684 . S
C97 C87 1.723 . S
C97 C96 1.396 . S
C97 C98 1.394 . S
C98 C68 1.723 . S
C98 C94 1.397 . S
C98 C97 1.394 . S
C99 H71 0.982 . S
C99 H75 0.979 . S
C99 H76 0.977 . S
C99 C96 1.453 . S
C100 H72 0.979 . S
C100 H73 0.980 . S
C100 H74 0.983 . S
C100 C96 1.684 . S
H101 C119 0.948 . S
H102 C60 0.948 . S
H103 C78 0.979 . S
H104 C78 0.980 . S
H105 C78 0.983 . S
H106 C77 0.982 . S
H107 C77 0.979 . S
H108 C77 0.977 . S
H109 C79 0.948 . S
H110 C81 0.947 . S
H111 C82 0.948 . S
H112 C88 0.982 . S
H113 C88 0.979 . S
H114 C88 0.977 . S
H115 C89 0.979 . S
H116 C89 0.980 . S
H117 C89 0.983 . S
H118 C62 0.947 . S
C119 C62 1.392 . S
C119 C63 1.419 . S
C119 H101 0.948 . S
C120 C121 1.391 . S
C120 C124 1.375 1_556 S
C120 H162 0.948 1_655 S
C121 C120 1.391 . S
C121 C122 1.391 . S
C122 C121 1.391 . S
C122 H178 0.947 . S
C122 C179 1.392 . S
C123 C124 1.387 1_556 S
C123 C127 1.397 1_556 S
C123 C179 1.419 . S
C124 C120 1.375 1_554 S
C124 C123 1.387 1_554 S
C124 C125 1.425 1_655 S
C125 C124 1.425 1_455 S
C125 C128 1.396 1_455 S
C125 C137 1.453 . S
C125 C138 1.684 . S
H126 C150 0.948 . S
C127 C123 1.397 1_554 S
C127 C128 1.394 . S
C127 C146 1.723 . S
C128 C125 1.396 1_655 S
C128 C127 1.394 . S
C128 C158 1.723 . S
H129 C152 0.947 . S
H130 C153 0.948 . S
H131 C159 0.982 . S
H132 C160 0.979 . S
H133 C160 0.980 . S
H134 C160 0.983 . S
H135 C159 0.979 . S
H136 C159 0.977 . S
C137 C125 1.453 . S
C137 H166 0.982 1_455 S
C137 H167 0.979 . S
C137 H168 0.977 . S
C138 C125 1.684 . S
C138 H163 0.979 . S
C138 H164 0.980 . S
C138 H165 0.983 . S
C139 C140 1.391 . S
C139 C144 1.391 . S
C139 H169 0.948 1_554 S
C140 C139 1.391 . S
C140 C141 1.391 . S
C141 C140 1.391 . S
C141 C142 1.392 . S
C141 H170 0.947 . S
C142 C141 1.392 . S
C142 C143 1.419 . S
C142 H171 0.948 . S
C143 C142 1.419 . S
C143 C144 1.391 . S
C143 C147 1.397 . S
C144 C139 1.391 . S
C144 C143 1.391 . S
C144 C145 1.383 1_554 S
C145 C144 1.383 1_556 S
C145 C146 1.372 1_556 S
C145 C148 1.458 . S
C145 C149 1.723 . S
C146 C127 1.723 . S
C146 C145 1.372 1_554 S
C146 C147 1.394 . S
C147 C143 1.397 . S
C147 C146 1.394 . S
C147 C157 1.723 . S
C148 C145 1.458 . S
C148 H172 0.982 1_556 S
C148 H173 0.979 . S
C148 H174 0.977 . S
C149 C145 1.723 . S
C149 H175 0.979 . S
C149 H176 0.980 . S
C149 H177 0.983 . S
C150 H126 0.948 . S
C150 C151 1.391 . S
C150 C155 1.391 . S
C151 C150 1.391 . S
C151 C152 1.391 . S
C152 H129 0.947 . S
C152 C151 1.391 . S
C152 C153 1.392 . S
C153 H130 0.948 . S
C153 C152 1.392 . S
C153 C154 1.419 . S
C154 C153 1.419 . S
C154 C155 1.391 . S
C154 C158 1.397 1_455 S
C155 C150 1.391 . S
C155 C154 1.391 . S
C155 C156 1.399 1_455 S
C156 C155 1.399 1_655 S
C156 C157 1.396 . S
C156 C159 1.453 . S
C156 C160 1.684 . S
C157 C147 1.723 . S
C157 C156 1.396 . S
C157 C158 1.394 . S
C158 C128 1.723 . S
C158 C154 1.397 1_655 S
C158 C157 1.394 . S
C159 H131 0.982 . S
C159 H135 0.979 . S
C159 H136 0.977 . S
C159 C156 1.453 . S
C160 H132 0.979 . S
C160 H133 0.980 . S
C160 H134 0.983 . S
C160 C156 1.684 . S
H161 C179 0.948 . S
H162 C120 0.948 1_455 S
H163 C138 0.979 . S
H164 C138 0.980 . S
H165 C138 0.983 . S
H166 C137 0.982 1_655 S
H167 C137 0.979 . S
H168 C137 0.977 . S
H169 C139 0.948 1_556 S
H170 C141 0.947 . S
H171 C142 0.948 . S
H172 C148 0.982 1_554 S
H173 C148 0.979 . S
H174 C148 0.977 . S
H175 C149 0.979 . S
H176 C149 0.980 . S
H177 C149 0.983 . S
H178 C122 0.947 . S
C179 C122 1.392 . S
C179 C123 1.419 . S
C179 H161 0.948 . S
C180 C181 1.391 . S
C180 C184 1.391 . S
C180 H222 0.948 . S
C181 C180 1.391 . S
C181 C182 1.391 . S
C182 C181 1.391 . S
C182 H238 0.947 . S
C182 C239 1.392 . S
C183 C184 1.391 . S
C183 C187 1.397 . S
C183 C239 1.419 . S
C184 C180 1.391 . S
C184 C183 1.391 . S
C184 C185 1.399 . S
C185 C184 1.399 . S
C185 C188 1.396 . S
C185 C197 1.453 . S
C185 C198 1.684 . S
H186 C210 0.948 . S
C187 C183 1.397 . S
C187 C188 1.394 . S
C187 C206 1.723 . S
C188 C185 1.396 . S
C188 C187 1.394 . S
C188 C218 1.723 . S
H189 C212 0.947 . S
H190 C213 0.948 . S
H191 C219 0.982 . S
H192 C220 0.979 . S
H193 C220 0.980 . S
H194 C220 0.983 . S
H195 C219 0.979 . S
H196 C219 0.977 . S
C197 C185 1.453 . S
C197 H226 0.982 . S
C197 H227 0.979 . S
C197 H228 0.977 . S
C198 C185 1.684 . S
C198 H223 0.979 . S
C198 H224 0.980 . S
C198 H225 0.983 . S
C199 C200 1.391 . S
C199 C204 1.391 . S
C199 H229 0.948 . S
C200 C199 1.391 . S
C200 C201 1.391 . S
C201 C200 1.391 . S
C201 C202 1.392 . S
C201 H230 0.947 . S
C202 C201 1.392 . S
C202 C203 1.419 . S
C202 H231 0.948 . S
C203 C202 1.419 . S
C203 C204 1.391 . S
C203 C207 1.397 . S
C204 C199 1.391 . S
C204 C203 1.391 . S
C204 C205 1.399 . S
C205 C204 1.399 . S
C205 C206 1.396 . S
C205 C208 1.453 . S
C205 C209 1.684 . S
C206 C187 1.723 . S
C206 C205 1.396 . S
C206 C207 1.394 . S
C207 C203 1.397 . S
C207 C206 1.394 . S
C207 C217 1.723 . S
C208 C205 1.453 . S
C208 H232 0.982 . S
C208 H233 0.979 . S
C208 H234 0.977 . S
C209 C205 1.684 . S
C209 H235 0.979 . S
C209 H236 0.980 . S
C209 H237 0.983 . S
C210 H186 0.948 . S
C210 C211 1.391 . S
C210 C215 1.391 . S
C211 C210 1.391 . S
C211 C212 1.391 . S
C212 H189 0.947 . S
C212 C211 1.391 . S
C212 C213 1.392 . S
C213 H190 0.948 . S
C213 C212 1.392 . S
C213 C214 1.419 . S
C214 C213 1.419 . S
C214 C215 1.391 . S
C214 C218 1.397 . S
C215 C210 1.391 . S
C215 C214 1.391 . S
C215 C216 1.399 . S
C216 C215 1.399 . S
C216 C217 1.396 . S
C216 C219 1.453 . S
C216 C220 1.684 . S
C217 C207 1.723 . S
C217 C216 1.396 . S
C217 C218 1.394 . S
C218 C188 1.723 . S
C218 C214 1.397 . S
C218 C217 1.394 . S
C219 H191 0.982 . S
C219 H195 0.979 . S
C219 H196 0.977 . S
C219 C216 1.453 . S
C220 H192 0.979 . S
C220 H193 0.980 . S
C220 H194 0.983 . S
C220 C216 1.684 . S
H221 C239 0.948 . S
H222 C180 0.948 . S
H223 C198 0.979 . S
H224 C198 0.980 . S
H225 C198 0.983 . S
H226 C197 0.982 . S
H227 C197 0.979 . S
H228 C197 0.977 . S
H229 C199 0.948 . S
H230 C201 0.947 . S
H231 C202 0.948 . S
H232 C208 0.982 . S
H233 C208 0.979 . S
H234 C208 0.977 . S
H235 C209 0.979 . S
H236 C209 0.980 . S
H237 C209 0.983 . S
H238 C182 0.947 . S
C239 C182 1.392 . S
C239 C183 1.419 . S
C239 H221 0.948 . S
C240 C241 1.391 . S
C240 C244 1.391 . S
C240 H282 0.948 . S
C241 C240 1.391 . S
C241 C242 1.391 . S
C242 C241 1.391 . S
C242 H298 0.947 1_455 S
C242 C299 1.392 . S
C243 C244 1.391 . S
C243 C247 1.397 . S
C243 C299 1.419 . S
C244 C240 1.391 . S
C244 C243 1.391 . S
C244 C245 1.399 . S
C245 C244 1.399 . S
C245 C248 1.396 . S
C245 C257 1.453 . S
C245 C258 1.684 . S
H246 C270 0.948 . S
C247 C243 1.397 . S
C247 C248 1.394 . S
C247 C266 1.723 . S
C248 C245 1.396 . S
C248 C247 1.394 . S
C248 C278 1.723 . S
H249 C272 0.947 . S
H250 C273 0.948 . S
H251 C279 0.982 . S
H252 C280 0.979 . S
H253 C280 0.980 . S
H254 C280 0.983 . S
H255 C279 0.979 . S
H256 C279 0.977 . S
C257 C245 1.453 . S
C257 H286 0.982 . S
C257 H287 0.979 . S
C257 H288 0.977 . S
C258 C245 1.684 . S
C258 H283 0.979 . S
C258 H284 0.980 . S
C258 H285 0.983 . S
C259 C260 1.391 . S
C259 C264 1.391 . S
C259 H289 0.948 . S
C260 C259 1.391 . S
C260 C261 1.391 1_565 S
C261 C260 1.391 1_545 S
C261 C262 1.392 1_655 S
C261 H290 0.947 . S
C262 C261 1.392 1_455 S
C262 C263 1.419 1_545 S
C262 H291 0.948 . S
C263 C262 1.419 1_565 S
C263 C264 1.391 1_455 S
C263 C267 1.397 . S
C264 C259 1.391 . S
C264 C263 1.391 1_655 S
C264 C265 1.399 . S
C265 C264 1.399 . S
C265 C266 1.396 1_655 S
C265 C268 1.453 . S
C265 C269 1.684 . S
C266 C247 1.723 . S
C266 C265 1.396 1_455 S
C266 C267 1.394 . S
C267 C263 1.397 . S
C267 C266 1.394 . S
C267 C277 1.723 . S
C268 C265 1.453 . S
C268 H292 0.982 . S
C268 H293 0.979 . S
C268 H294 0.977 . S
C269 C265 1.684 . S
C269 H295 0.969 1_655 S
C269 H296 0.980 . S
C269 H297 0.983 . S
C270 H246 0.948 . S
C270 C271 1.391 . S
C270 C275 1.391 . S
C271 C270 1.391 . S
C271 C272 1.391 . S
C272 H249 0.947 . S
C272 C271 1.391 . S
C272 C273 1.392 1_545 S
C273 H250 0.948 . S
C273 C272 1.392 1_565 S
C273 C274 1.413 1_565 S
C274 C273 1.413 1_545 S
C274 C275 1.414 . S
C274 C278 1.382 1_545 S
C275 C270 1.391 . S
C275 C274 1.414 . S
C275 C276 1.399 . S
C276 C275 1.399 . S
C276 C277 1.396 1_545 S
C276 C279 1.453 . S
C276 C280 1.684 . S
C277 C267 1.723 . S
C277 C276 1.396 1_565 S
C277 C278 1.394 . S
C278 C248 1.723 . S
C278 C274 1.382 1_565 S
C278 C277 1.394 . S
C279 H251 0.982 . S
C279 H255 0.979 . S
C279 H256 0.977 . S
C279 C276 1.453 . S
C280 H252 0.979 . S
C280 H253 0.980 . S
C280 H254 0.983 . S
C280 C276 1.684 . S
H281 C299 0.948 1_655 S
H282 C240 0.948 . S
H283 C258 0.979 . S
H284 C258 0.980 . S
H285 C258 0.983 . S
H286 C257 0.982 . S
H287 C257 0.979 . S
H288 C257 0.977 . S
H289 C259 0.948 . S
H290 C261 0.947 . S
H291 C262 0.948 . S
H292 C268 0.982 . S
H293 C268 0.979 . S
H294 C268 0.977 . S
H295 C269 0.969 1_455 S
H296 C269 0.980 . S
H297 C269 0.983 . S
H298 C242 0.947 1_655 S
C299 C242 1.392 . S
C299 C243 1.419 . S
C299 H281 0.948 1_455 S
C300 C301 1.391 . S
C300 C304 1.391 . S
C300 H342 0.948 . S
C301 C300 1.391 . S
C301 C302 1.391 . S
C302 C301 1.391 . S
C302 H358 0.947 . S
C302 C359 1.392 . S
C303 C304 1.391 . S
C303 C307 1.397 . S
C303 C359 1.419 . S
C304 C300 1.391 . S
C304 C303 1.391 . S
C304 C305 1.399 . S
C305 C304 1.399 . S
C305 C308 1.396 . S
C305 C317 1.453 . S
C305 C318 1.684 . S
H306 C330 0.948 . S
C307 C303 1.397 . S
C307 C308 1.394 . S
C307 C326 1.723 . S
C308 C305 1.396 . S
C308 C307 1.394 . S
C308 C338 1.723 . S
H309 C332 0.947 . S
H310 C333 0.948 . S
H311 C339 0.982 . S
H312 C340 0.979 . S
H313 C340 0.980 . S
H314 C340 0.983 . S
H315 C339 0.979 . S
H316 C339 0.977 . S
C317 C305 1.453 . S
C317 H346 0.982 . S
C317 H347 0.979 . S
C317 H348 0.977 . S
C318 C305 1.684 . S
C318 H343 0.979 . S
C318 H344 0.980 . S
C318 H345 0.983 . S
C319 C320 1.391 . S
C319 C324 1.391 . S
C319 H349 0.948 . S
C320 C319 1.391 . S
C320 C321 1.391 . S
C321 C320 1.391 . S
C321 C322 1.392 . S
C321 H350 0.947 . S
C322 C321 1.392 . S
C322 C323 1.419 . S
C322 H351 0.948 . S
C323 C322 1.419 . S
C323 C324 1.391 . S
C323 C327 1.397 . S
C324 C319 1.391 . S
C324 C323 1.391 . S
C324 C325 1.399 . S
C325 C324 1.399 . S
C325 C326 1.396 . S
C325 C328 1.453 . S
C325 C329 1.684 . S
C326 C307 1.723 . S
C326 C325 1.396 . S
C326 C327 1.394 . S
C327 C323 1.397 . S
C327 C326 1.394 . S
C327 C337 1.723 . S
C328 C325 1.453 . S
C328 H352 0.982 . S
C328 H353 0.979 . S
C328 H354 0.977 . S
C329 C325 1.684 . S
C329 H355 0.979 . S
C329 H356 0.980 . S
C329 H357 0.983 . S
C330 H306 0.948 . S
C330 C331 1.391 . S
C330 C335 1.391 . S
C331 C330 1.391 . S
C331 C332 1.391 . S
C332 H309 0.947 . S
C332 C331 1.391 . S
C332 C333 1.392 . S
C333 H310 0.948 . S
C333 C332 1.392 . S
C333 C334 1.419 . S
C334 C333 1.419 . S
C334 C335 1.391 . S
C334 C338 1.397 . S
C335 C330 1.391 . S
C335 C334 1.391 . S
C335 C336 1.399 . S
C336 C335 1.399 . S
C336 C337 1.396 . S
C336 C339 1.453 . S
C336 C340 1.684 . S
C337 C327 1.723 . S
C337 C336 1.396 . S
C337 C338 1.394 . S
C338 C308 1.723 . S
C338 C334 1.397 . S
C338 C337 1.394 . S
C339 H311 0.982 . S
C339 H315 0.979 . S
C339 H316 0.977 . S
C339 C336 1.453 . S
C340 H312 0.979 . S
C340 H313 0.980 . S
C340 H314 0.983 . S
C340 C336 1.684 . S
H341 C359 0.948 . S
H342 C300 0.948 . S
H343 C318 0.979 . S
H344 C318 0.980 . S
H345 C318 0.983 . S
H346 C317 0.982 . S
H347 C317 0.979 . S
H348 C317 0.977 . S
H349 C319 0.948 . S
H350 C321 0.947 . S
H351 C322 0.948 . S
H352 C328 0.982 . S
H353 C328 0.979 . S
H354 C328 0.977 . S
H355 C329 0.979 . S
H356 C329 0.980 . S
H357 C329 0.983 . S
H358 C302 0.947 . S
C359 C302 1.392 . S
C359 C303 1.419 . S
C359 H341 0.948 . S
C360 C361 1.391 . S
C360 C364 1.391 . S
C360 H402 0.948 . S
C361 C360 1.391 . S
C361 C362 1.391 . S
C362 C361 1.391 . S
C362 H418 0.947 . S
C362 C419 1.392 . S
C363 C364 1.391 . S
C363 C367 1.397 . S
C363 C419 1.419 . S
C364 C360 1.391 . S
C364 C363 1.391 . S
C364 C365 1.399 . S
C365 C364 1.399 . S
C365 C368 1.396 . S
C365 C377 1.453 . S
C365 C378 1.684 . S
H366 C390 0.948 1_455 S
C367 C363 1.397 . S
C367 C368 1.394 . S
C367 C386 1.723 . S
C368 C365 1.396 . S
C368 C367 1.394 . S
C368 C398 1.723 . S
H369 C392 0.947 . S
H370 C393 0.948 . S
H371 C399 0.982 1_655 S
H372 C400 0.979 . S
H373 C400 0.980 . S
H374 C400 0.983 . S
H375 C399 0.979 . S
H376 C399 0.977 . S
C377 C365 1.453 . S
C377 H406 0.982 . S
C377 H407 0.979 . S
C377 H408 0.977 . S
C378 C365 1.684 . S
C378 H403 0.979 . S
C378 H404 0.980 . S
C378 H405 0.983 . S
C379 C380 1.391 . S
C379 C384 1.384 1_455 S
C379 H409 0.948 . S
C380 C379 1.391 . S
C380 C381 1.391 . S
C381 C380 1.391 . S
C381 C382 1.392 . S
C381 H410 0.947 . S
C382 C381 1.392 . S
C382 C383 1.419 . S
C382 H411 0.948 . S
C383 C382 1.419 . S
C383 C384 1.390 1_455 S
C383 C387 1.397 1_455 S
C384 C379 1.384 1_655 S
C384 C383 1.390 1_655 S
C384 C385 1.409 . S
C385 C384 1.409 . S
C385 C386 1.396 . S
C385 C388 1.453 . S
C385 C389 1.684 . S
C386 C367 1.723 . S
C386 C385 1.396 . S
C386 C387 1.394 . S
C387 C383 1.397 1_655 S
C387 C386 1.394 . S
C387 C397 1.723 . S
C388 C385 1.453 . S
C388 H412 0.982 . S
C388 H413 0.979 . S
C388 H414 0.977 . S
C389 C385 1.684 . S
C389 H415 0.979 . S
C389 H416 0.980 . S
C389 H417 0.983 . S
C390 H366 0.948 1_655 S
C390 C391 1.391 . S
C390 C395 1.391 . S
C391 C390 1.391 . S
C391 C392 1.391 . S
C392 H369 0.947 . S
C392 C391 1.391 . S
C392 C393 1.392 . S
C393 H370 0.948 . S
C393 C392 1.392 . S
C393 C394 1.419 . S
C394 C393 1.419 . S
C394 C395 1.391 . S
C394 C398 1.397 . S
C395 C390 1.391 . S
C395 C394 1.391 . S
C395 C396 1.399 1_655 S
C396 C395 1.399 1_455 S
C396 C397 1.396 1_455 S
C396 C399 1.453 . S
C396 C400 1.684 . S
C397 C387 1.723 . S
C397 C396 1.396 1_655 S
C397 C398 1.394 . S
C398 C368 1.723 . S
C398 C394 1.397 . S
C398 C397 1.394 . S
C399 H371 0.982 1_455 S
C399 H375 0.979 . S
C399 H376 0.977 . S
C399 C396 1.453 . S
C400 H372 0.979 . S
C400 H373 0.980 . S
C400 H374 0.983 . S
C400 C396 1.684 . S
H401 C419 0.948 . S
H402 C360 0.948 . S
H403 C378 0.979 . S
H404 C378 0.980 . S
H405 C378 0.983 . S
H406 C377 0.982 . S
H407 C377 0.979 . S
H408 C377 0.977 . S
H409 C379 0.948 . S
H410 C381 0.947 . S
H411 C382 0.948 . S
H412 C388 0.982 . S
H413 C388 0.979 . S
H414 C388 0.977 . S
H415 C389 0.979 . S
H416 C389 0.980 . S
H417 C389 0.983 . S
H418 C362 0.947 . S
C419 C362 1.392 . S
C419 C363 1.419 . S
C419 H401 0.948 . S
C420 C421 1.391 . S
C420 C424 1.391 . S
C420 H462 0.948 . S
C421 C420 1.391 . S
C421 C422 1.391 . S
C422 C421 1.391 . S
C422 H478 0.947 . S
C422 C479 1.392 . S
C423 C424 1.391 . S
C423 C427 1.397 . S
C423 C479 1.419 . S
C424 C420 1.391 . S
C424 C423 1.391 . S
C424 C425 1.399 . S
C425 C424 1.399 . S
C425 C428 1.396 . S
C425 C437 1.453 . S
C425 C438 1.684 . S
H426 C450 0.948 . S
C427 C423 1.397 . S
C427 C428 1.394 . S
C427 C446 1.723 . S
C428 C425 1.396 . S
C428 C427 1.394 . S
C428 C458 1.723 . S
H429 C452 0.947 . S
H430 C453 0.948 . S
H431 C459 0.982 . S
H432 C460 0.979 . S
H433 C460 0.980 . S
H434 C460 0.983 . S
H435 C459 0.979 . S
H436 C459 0.977 . S
C437 C425 1.453 . S
C437 H466 0.982 . S
C437 H467 0.979 . S
C437 H468 0.977 . S
C438 C425 1.684 . S
C438 H463 0.979 . S
C438 H464 0.980 . S
C438 H465 0.983 . S
C439 C440 1.391 . S
C439 C444 1.391 . S
C439 H469 0.948 . S
C440 C439 1.391 . S
C440 C441 1.391 . S
C441 C440 1.391 . S
C441 C442 1.392 . S
C441 H470 0.947 . S
C442 C441 1.392 . S
C442 C443 1.419 . S
C442 H471 0.948 . S
C443 C442 1.419 . S
C443 C444 1.391 . S
C443 C447 1.397 . S
C444 C439 1.391 . S
C444 C443 1.391 . S
C444 C445 1.399 . S
C445 C444 1.399 . S
C445 C446 1.396 . S
C445 C448 1.453 . S
C445 C449 1.684 . S
C446 C427 1.723 . S
C446 C445 1.396 . S
C446 C447 1.394 . S
C447 C443 1.397 . S
C447 C446 1.394 . S
C447 C457 1.723 . S
C448 C445 1.453 . S
C448 H472 0.982 . S
C448 H473 0.979 . S
C448 H474 0.977 . S
C449 C445 1.684 . S
C449 H475 0.979 . S
C449 H476 0.980 . S
C449 H477 0.983 . S
C450 H426 0.948 . S
C450 C451 1.391 . S
C450 C455 1.391 . S
C451 C450 1.391 . S
C451 C452 1.391 . S
C452 H429 0.947 . S
C452 C451 1.391 . S
C452 C453 1.392 . S
C453 H430 0.948 . S
C453 C452 1.392 . S
C453 C454 1.419 . S
C454 C453 1.419 . S
C454 C455 1.391 . S
C454 C458 1.397 . S
C455 C450 1.391 . S
C455 C454 1.391 . S
C455 C456 1.399 . S
C456 C455 1.399 . S
C456 C457 1.396 . S
C456 C459 1.453 . S
C456 C460 1.684 . S
C457 C447 1.723 . S
C457 C456 1.396 . S
C457 C458 1.394 . S
C458 C428 1.723 . S
C458 C454 1.397 . S
C458 C457 1.394 . S
C459 H431 0.982 . S
C459 H435 0.979 . S
C459 H436 0.977 . S
C459 C456 1.453 . S
C460 H432 0.979 . S
C460 H433 0.980 . S
C460 H434 0.983 . S
C460 C456 1.684 . S
H461 C479 0.948 . S
H462 C420 0.948 . S
H463 C438 0.979 . S
H464 C438 0.980 . S
H465 C438 0.983 . S
H466 C437 0.982 . S
H467 C437 0.979 . S
H468 C437 0.977 . S
H469 C439 0.948 . S
H470 C441 0.947 . S
H471 C442 0.948 . S
H472 C448 0.982 . S
H473 C448 0.979 . S
H474 C448 0.977 . S
H475 C449 0.979 . S
H476 C449 0.980 . S
H477 C449 0.983 . S
H478 C422 0.947 . S
C479 C422 1.392 . S
C479 C423 1.419 . S
C479 H461 0.948 . S
C480 C481 1.391 . S
C480 C484 1.391 . S
C480 H522 0.948 . S
C481 C480 1.391 . S
C481 C482 1.391 . S
C482 C481 1.391 . S
C482 H538 0.947 . S
C482 C539 1.392 . S
C483 C484 1.391 . S
C483 C487 1.397 . S
C483 C539 1.419 . S
C484 C480 1.391 . S
C484 C483 1.391 . S
C484 C485 1.399 . S
C485 C484 1.399 . S
C485 C488 1.396 . S
C485 C497 1.453 . S
C485 C498 1.684 . S
H486 C510 0.948 . S
C487 C483 1.397 . S
C487 C488 1.394 . S
C487 C506 1.723 . S
C488 C485 1.396 . S
C488 C487 1.394 . S
C488 C518 1.723 . S
H489 C512 0.947 . S
H490 C513 0.948 . S
H491 C519 0.982 . S
H492 C520 0.979 . S
H493 C520 0.980 . S
H494 C520 0.983 . S
H495 C519 0.979 . S
H496 C519 0.977 . S
C497 C485 1.453 . S
C497 H526 0.982 . S
C497 H527 0.979 . S
C497 H528 0.977 . S
C498 C485 1.684 . S
C498 H523 0.979 . S
C498 H524 0.980 . S
C498 H525 0.983 . S
C499 C500 1.391 . S
C499 C504 1.391 . S
C499 H529 0.948 . S
C500 C499 1.391 . S
C500 C501 1.391 . S
C501 C500 1.391 . S
C501 C502 1.392 . S
C501 H530 0.947 . S
C502 C501 1.392 . S
C502 C503 1.419 . S
C502 H531 0.948 . S
C503 C502 1.419 . S
C503 C504 1.391 . S
C503 C507 1.397 . S
C504 C499 1.391 . S
C504 C503 1.391 . S
C504 C505 1.399 . S
C505 C504 1.399 . S
C505 C506 1.396 . S
C505 C508 1.453 . S
C505 C509 1.684 . S
C506 C487 1.723 . S
C506 C505 1.396 . S
C506 C507 1.394 . S
C507 C503 1.397 . S
C507 C506 1.394 . S
C507 C517 1.723 . S
C508 C505 1.453 . S
C508 H532 0.982 . S
C508 H533 0.979 . S
C508 H534 0.977 . S
C509 C505 1.684 . S
C509 H535 0.979 . S
C509 H536 0.980 . S
C509 H537 0.983 . S
C510 H486 0.948 . S
C510 C511 1.391 . S
C510 C515 1.391 . S
C511 C510 1.391 . S
C511 C512 1.391 . S
C512 H489 0.947 . S
C512 C511 1.391 . S
C512 C513 1.392 . S
C513 H490 0.948 . S
C513 C512 1.392 . S
C513 C514 1.419 . S
C514 C513 1.419 . S
C514 C515 1.391 . S
C514 C518 1.397 . S
C515 C510 1.391 . S
C515 C514 1.391 . S
C515 C516 1.399 . S
C516 C515 1.399 . S
C516 C517 1.396 . S
C516 C519 1.453 . S
C516 C520 1.684 . S
C517 C507 1.723 . S
C517 C516 1.396 . S
C517 C518 1.394 . S
C518 C488 1.723 . S
C518 C514 1.397 . S
C518 C517 1.394 . S
C519 H491 0.982 . S
C519 H495 0.979 . S
C519 H496 0.977 . S
C519 C516 1.453 . S
C520 H492 0.979 . S
C520 H493 0.980 . S
C520 H494 0.983 . S
C520 C516 1.684 . S
H521 C539 0.948 . S
H522 C480 0.948 . S
H523 C498 0.979 . S
H524 C498 0.980 . S
H525 C498 0.983 . S
H526 C497 0.982 . S
H527 C497 0.979 . S
H528 C497 0.977 . S
H529 C499 0.948 . S
H530 C501 0.947 . S
H531 C502 0.948 . S
H532 C508 0.982 . S
H533 C508 0.979 . S
H534 C508 0.977 . S
H535 C509 0.979 . S
H536 C509 0.980 . S
H537 C509 0.983 . S
H538 C482 0.947 . S
C539 C482 1.392 . S
C539 C483 1.419 . S
C539 H521 0.948 . S
C540 C541 1.391 . S
C540 C544 1.391 . S
C540 H582 0.948 . S
C541 C540 1.391 . S
C541 C542 1.391 . S
C542 C541 1.391 . S
C542 H598 0.947 . S
C542 C599 1.392 . S
C543 C544 1.391 . S
C543 C547 1.397 . S
C543 C599 1.419 . S
C544 C540 1.391 . S
C544 C543 1.391 . S
C544 C545 1.399 . S
C545 C544 1.399 . S
C545 C548 1.396 . S
C545 C557 1.453 . S
C545 C558 1.684 . S
H546 C570 0.948 1_545 S
C547 C543 1.397 . S
C547 C548 1.394 . S
C547 C566 1.723 . S
C548 C545 1.396 . S
C548 C547 1.394 . S
C548 C578 1.723 . S
H549 C572 0.947 . S
H550 C573 0.948 . S
H551 C579 0.982 1_565 S
H552 C580 0.979 . S
H553 C580 0.980 . S
H554 C580 0.983 . S
H555 C579 0.979 . S
H556 C579 0.977 . S
C557 C545 1.453 . S
C557 H586 0.982 . S
C557 H587 0.979 . S
C557 H588 0.977 . S
C558 C545 1.684 . S
C558 H583 0.979 . S
C558 H584 0.980 . S
C558 H585 0.983 . S
C559 C560 1.391 . S
C559 C564 1.391 . S
C559 H589 0.948 . S
C560 C559 1.391 . S
C560 C561 1.391 . S
C561 C560 1.391 . S
C561 C562 1.392 . S
C561 H590 0.947 . S
C562 C561 1.392 . S
C562 C563 1.419 . S
C562 H591 0.948 . S
C563 C562 1.419 . S
C563 C564 1.391 . S
C563 C567 1.397 1_545 S
C564 C559 1.391 . S
C564 C563 1.391 . S
C564 C565 1.399 1_545 S
C565 C564 1.399 1_565 S
C565 C566 1.396 . S
C565 C568 1.453 . S
C565 C569 1.684 . S
C566 C547 1.723 . S
C566 C565 1.396 . S
C566 C567 1.394 . S
C567 C563 1.397 1_565 S
C567 C566 1.394 . S
C567 C577 1.723 . S
C568 C565 1.453 . S
C568 H592 0.982 . S
C568 H593 0.979 . S
C568 H594 0.977 . S
C569 C565 1.684 . S
C569 H595 0.979 . S
C569 H596 0.980 . S
C569 H597 0.983 . S
C570 H546 0.948 1_565 S
C570 C571 1.391 . S
C570 C575 1.391 . S
C571 C570 1.391 . S
C571 C572 1.391 . S
C572 H549 0.947 . S
C572 C571 1.391 . S
C572 C573 1.392 . S
C573 H550 0.948 . S
C573 C572 1.392 . S
C573 C574 1.419 . S
C574 C573 1.419 . S
C574 C575 1.391 . S
C574 C578 1.397 . S
C575 C570 1.391 . S
C575 C574 1.391 . S
C575 C576 1.399 1_565 S
C576 C575 1.399 1_545 S
C576 C577 1.396 1_545 S
C576 C579 1.453 . S
C576 C580 1.684 . S
C577 C567 1.723 . S
C577 C576 1.396 1_565 S
C577 C578 1.394 . S
C578 C548 1.723 . S
C578 C574 1.397 . S
C578 C577 1.394 . S
C579 H551 0.982 1_545 S
C579 H555 0.979 . S
C579 H556 0.977 . S
C579 C576 1.453 . S
C580 H552 0.979 . S
C580 H553 0.980 . S
C580 H554 0.983 . S
C580 C576 1.684 . S
H581 C599 0.948 . S
H582 C540 0.948 . S
H583 C558 0.979 . S
H584 C558 0.980 . S
H585 C558 0.983 . S
H586 C557 0.982 . S
H587 C557 0.979 . S
H588 C557 0.977 . S
H589 C559 0.948 . S
H590 C561 0.947 . S
H591 C562 0.948 . S
H592 C568 0.982 . S
H593 C568 0.979 . S
H594 C568 0.977 . S
H595 C569 0.979 . S
H596 C569 0.980 . S
H597 C569 0.983 . S
H598 C542 0.947 . S
C599 C542 1.392 . S
C599 C543 1.419 . S
C599 H581 0.948 . S
C600 C601 1.391 . S
C600 C604 1.391 . S
C600 H642 0.948 . S
C601 C600 1.391 . S
C601 C602 1.391 . S
C602 C601 1.391 . S
C602 H658 0.947 . S
C602 C659 1.392 . S
C603 C604 1.391 . S
C603 C607 1.397 . S
C603 C659 1.419 . S
C604 C600 1.391 . S
C604 C603 1.391 . S
C604 C605 1.399 . S
C605 C604 1.399 . S
C605 C608 1.396 . S
C605 C617 1.453 . S
C605 C618 1.684 . S
H606 C630 0.948 . S
C607 C603 1.397 . S
C607 C608 1.394 . S
C607 C626 1.723 . S
C608 C605 1.396 . S
C608 C607 1.394 . S
C608 C638 1.723 . S
H609 C632 0.947 . S
H610 C633 0.948 . S
H611 C639 0.982 . S
H612 C640 0.979 . S
H613 C640 0.980 . S
H614 C640 0.983 . S
H615 C639 0.979 . S
H616 C639 0.977 . S
C617 C605 1.453 . S
C617 H646 0.982 . S
C617 H647 0.979 . S
C617 H648 0.977 . S
C618 C605 1.684 . S
C618 H643 0.979 . S
C618 H644 0.980 . S
C618 H645 0.983 . S
C619 C620 1.391 . S
C619 C624 1.391 . S
C619 H649 0.948 . S
C620 C619 1.391 . S
C620 C621 1.391 . S
C621 C620 1.391 . S
C621 C622 1.392 . S
C621 H650 0.947 . S
C622 C621 1.392 . S
C622 C623 1.419 . S
C622 H651 0.948 . S
C623 C622 1.419 . S
C623 C624 1.391 . S
C623 C627 1.397 . S
C624 C619 1.391 . S
C624 C623 1.391 . S
C624 C625 1.399 . S
C625 C624 1.399 . S
C625 C626 1.396 . S
C625 C628 1.453 . S
C625 C629 1.684 . S
C626 C607 1.723 . S
C626 C625 1.396 . S
C626 C627 1.394 . S
C627 C623 1.397 . S
C627 C626 1.394 . S
C627 C637 1.723 . S
C628 C625 1.453 . S
C628 H652 0.982 . S
C628 H653 0.979 . S
C628 H654 0.977 . S
C629 C625 1.684 . S
C629 H655 0.979 . S
C629 H656 0.980 . S
C629 H657 0.983 . S
C630 H606 0.948 . S
C630 C631 1.391 . S
C630 C635 1.391 . S
C631 C630 1.391 . S
C631 C632 1.391 . S
C632 H609 0.947 . S
C632 C631 1.391 . S
C632 C633 1.392 . S
C633 H610 0.948 . S
C633 C632 1.392 . S
C633 C634 1.419 . S
C634 C633 1.419 . S
C634 C635 1.391 . S
C634 C638 1.397 . S
C635 C630 1.391 . S
C635 C634 1.391 . S
C635 C636 1.399 . S
C636 C635 1.399 . S
C636 C637 1.396 . S
C636 C639 1.453 . S
C636 C640 1.684 . S
C637 C627 1.723 . S
C637 C636 1.396 . S
C637 C638 1.394 . S
C638 C608 1.723 . S
C638 C634 1.397 . S
C638 C637 1.394 . S
C639 H611 0.982 . S
C639 H615 0.979 . S
C639 H616 0.977 . S
C639 C636 1.453 . S
C640 H612 0.979 . S
C640 H613 0.980 . S
C640 H614 0.983 . S
C640 C636 1.684 . S
H641 C659 0.948 . S
H642 C600 0.948 . S
H643 C618 0.979 . S
H644 C618 0.980 . S
H645 C618 0.983 . S
H646 C617 0.982 . S
H647 C617 0.979 . S
H648 C617 0.977 . S
H649 C619 0.948 . S
H650 C621 0.947 . S
H651 C622 0.948 . S
H652 C628 0.982 . S
H653 C628 0.979 . S
H654 C628 0.977 . S
H655 C629 0.979 . S
H656 C629 0.980 . S
H657 C629 0.983 . S
H658 C602 0.947 . S
C659 C602 1.392 . S
C659 C603 1.419 . S
C659 H641 0.948 . S
C660 C661 1.391 . S
C660 C664 1.391 . S
C660 H702 0.948 . S
C661 C660 1.391 . S
C661 C662 1.391 . S
C662 C661 1.391 . S
C662 H718 0.947 . S
C662 C719 1.392 . S
C663 C664 1.391 . S
C663 C667 1.397 . S
C663 C719 1.419 . S
C664 C660 1.391 . S
C664 C663 1.391 . S
C664 C665 1.399 . S
C665 C664 1.399 . S
C665 C668 1.396 . S
C665 C677 1.453 . S
C665 C678 1.684 . S
H666 C690 0.948 . S
C667 C663 1.397 . S
C667 C668 1.394 . S
C667 C686 1.723 . S
C668 C665 1.396 . S
C668 C667 1.394 . S
C668 C698 1.723 . S
H669 C692 0.947 . S
H670 C693 0.948 . S
H671 C699 0.982 . S
H672 C700 0.979 . S
H673 C700 0.980 . S
H674 C700 0.983 . S
H675 C699 0.979 . S
H676 C699 0.977 . S
C677 C665 1.453 . S
C677 H706 0.982 . S
C677 H707 0.979 . S
C677 H708 0.977 . S
C678 C665 1.684 . S
C678 H703 0.979 . S
C678 H704 0.980 . S
C678 H705 0.983 . S
C679 C680 1.391 . S
C679 C684 1.391 . S
C679 H709 0.948 . S
C680 C679 1.391 . S
C680 C681 1.391 . S
C681 C680 1.391 . S
C681 C682 1.392 . S
C681 H710 0.947 . S
C682 C681 1.392 . S
C682 C683 1.419 . S
C682 H711 0.948 . S
C683 C682 1.419 . S
C683 C684 1.391 . S
C683 C687 1.397 . S
C684 C679 1.391 . S
C684 C683 1.391 . S
C684 C685 1.399 . S
C685 C684 1.399 . S
C685 C686 1.396 . S
C685 C688 1.453 . S
C685 C689 1.684 . S
C686 C667 1.723 . S
C686 C685 1.396 . S
C686 C687 1.394 . S
C687 C683 1.397 . S
C687 C686 1.394 . S
C687 C697 1.723 . S
C688 C685 1.453 . S
C688 H712 0.982 . S
C688 H713 0.979 . S
C688 H714 0.977 . S
C689 C685 1.684 . S
C689 H715 0.979 . S
C689 H716 0.980 . S
C689 H717 0.983 . S
C690 H666 0.948 . S
C690 C691 1.391 . S
C690 C695 1.391 . S
C691 C690 1.391 . S
C691 C692 1.391 . S
C692 H669 0.947 . S
C692 C691 1.391 . S
C692 C693 1.392 . S
C693 H670 0.948 . S
C693 C692 1.392 . S
C693 C694 1.419 . S
C694 C693 1.419 . S
C694 C695 1.391 . S
C694 C698 1.397 . S
C695 C690 1.391 . S
C695 C694 1.391 . S
C695 C696 1.399 . S
C696 C695 1.399 . S
C696 C697 1.396 . S
C696 C699 1.453 . S
C696 C700 1.684 . S
C697 C687 1.723 . S
C697 C696 1.396 . S
C697 C698 1.394 . S
C698 C668 1.723 . S
C698 C694 1.397 . S
C698 C697 1.394 . S
C699 H671 0.982 . S
C699 H675 0.979 . S
C699 H676 0.977 . S
C699 C696 1.453 . S
C700 H672 0.979 . S
C700 H673 0.980 . S
C700 H674 0.983 . S
C700 C696 1.684 . S
H701 C719 0.948 . S
H702 C660 0.948 . S
H703 C678 0.979 . S
H704 C678 0.980 . S
H705 C678 0.983 . S
H706 C677 0.982 . S
H707 C677 0.979 . S
H708 C677 0.977 . S
H709 C679 0.948 . S
H710 C681 0.947 . S
H711 C682 0.948 . S
H712 C688 0.982 . S
H713 C688 0.979 . S
H714 C688 0.977 . S
H715 C689 0.979 . S
H716 C689 0.980 . S
H717 C689 0.983 . S
H718 C662 0.947 . S
C719 C662 1.392 . S
C719 C663 1.419 . S
C719 H701 0.948 . S
C720 C721 1.391 . S
C720 C724 1.391 . S
C720 H762 0.948 . S
C721 C720 1.391 . S
C721 C722 1.391 . S
C722 C721 1.391 . S
C722 H778 0.947 . S
C722 C779 1.392 . S
C723 C724 1.391 . S
C723 C727 1.397 . S
C723 C779 1.419 . S
C724 C720 1.391 . S
C724 C723 1.391 . S
C724 C725 1.399 . S
C725 C724 1.399 . S
C725 C728 1.396 . S
C725 C737 1.453 . S
C725 C738 1.684 . S
H726 C750 0.948 . S
C727 C723 1.397 . S
C727 C728 1.394 . S
C727 C746 1.723 . S
C728 C725 1.396 . S
C728 C727 1.394 . S
C728 C758 1.723 . S
H729 C752 0.947 . S
H730 C753 0.948 . S
H731 C759 0.982 . S
H732 C760 0.979 . S
H733 C760 0.980 . S
H734 C760 0.983 . S
H735 C759 0.979 . S
H736 C759 0.977 . S
C737 C725 1.453 . S
C737 H766 0.982 . S
C737 H767 0.979 . S
C737 H768 0.977 . S
C738 C725 1.684 . S
C738 H763 0.979 . S
C738 H764 0.980 . S
C738 H765 0.983 . S
C739 C740 1.391 . S
C739 C744 1.391 . S
C739 H769 0.948 . S
C740 C739 1.391 . S
C740 C741 1.391 . S
C741 C740 1.391 . S
C741 C742 1.392 . S
C741 H770 0.947 . S
C742 C741 1.392 . S
C742 C743 1.419 . S
C742 H771 0.948 . S
C743 C742 1.419 . S
C743 C744 1.391 . S
C743 C747 1.397 . S
C744 C739 1.391 . S
C744 C743 1.391 . S
C744 C745 1.399 . S
C745 C744 1.399 . S
C745 C746 1.396 . S
C745 C748 1.453 . S
C745 C749 1.684 . S
C746 C727 1.723 . S
C746 C745 1.396 . S
C746 C747 1.394 . S
C747 C743 1.397 . S
C747 C746 1.394 . S
C747 C757 1.723 . S
C748 C745 1.453 . S
C748 H772 0.982 . S
C748 H773 0.979 . S
C748 H774 0.977 . S
C749 C745 1.684 . S
C749 H775 0.979 . S
C749 H776 0.980 . S
C749 H777 0.983 . S
C750 H726 0.948 . S
C750 C751 1.391 . S
C750 C755 1.391 . S
C751 C750 1.391 . S
C751 C752 1.391 . S
C752 H729 0.947 . S
C752 C751 1.391 . S
C752 C753 1.392 . S
C753 H730 0.948 . S
C753 C752 1.392 . S
C753 C754 1.419 . S
C754 C753 1.419 . S
C754 C755 1.391 . S
C754 C758 1.397 . S
C755 C750 1.391 . S
C755 C754 1.391 . S
C755 C756 1.399 . S
C756 C755 1.399 . S
C756 C757 1.396 . S
C756 C759 1.453 . S
C756 C760 1.684 . S
C757 C747 1.723 . S
C757 C756 1.396 . S
C757 C758 1.394 . S
C758 C728 1.723 . S
C758 C754 1.397 . S
C758 C757 1.394 . S
C759 H731 0.982 . S
C759 H735 0.979 . S
C759 H736 0.977 . S
C759 C756 1.453 . S
C760 H732 0.979 . S
C760 H733 0.980 . S
C760 H734 0.983 . S
C760 C756 1.684 . S
H761 C779 0.948 . S
H762 C720 0.948 . S
H763 C738 0.979 . S
H764 C738 0.980 . S
H765 C738 0.983 . S
H766 C737 0.982 . S
H767 C737 0.979 . S
H768 C737 0.977 . S
H769 C739 0.948 . S
H770 C741 0.947 . S
H771 C742 0.948 . S
H772 C748 0.982 . S
H773 C748 0.979 . S
H774 C748 0.977 . S
H775 C749 0.979 . S
H776 C749 0.980 . S
H777 C749 0.983 . S
H778 C722 0.947 . S
C779 C722 1.392 . S
C779 C723 1.419 . S
C779 H761 0.948 . S
C780 C781 1.391 . S
C780 C784 1.391 . S
C780 H822 0.948 . S
C781 C780 1.391 . S
C781 C782 1.391 . S
C782 C781 1.391 . S
C782 H838 0.949 . S
C782 C839 1.392 1_554 S
C783 C784 1.391 1_556 S
C783 C787 1.397 . S
C783 C839 1.419 . S
C784 C780 1.391 . S
C784 C783 1.391 1_554 S
C784 C785 1.399 . S
C785 C784 1.399 . S
C785 C788 1.396 1_554 S
C785 C797 1.453 . S
C785 C798 1.684 . S
H786 C810 0.948 . S
C787 C783 1.397 . S
C787 C788 1.394 . S
C787 C806 1.723 . S
C788 C785 1.396 1_556 S
C788 C787 1.394 . S
C788 C818 1.723 . S
H789 C812 0.947 1_554 S
H790 C813 0.948 1_554 S
H791 C819 0.982 . S
H792 C820 0.979 . S
H793 C820 0.980 . S
H794 C820 0.983 . S
H795 C819 0.979 . S
H796 C819 0.977 . S
C797 C785 1.453 . S
C797 H826 0.982 . S
C797 H827 0.979 . S
C797 H828 0.977 . S
C798 C785 1.684 . S
C798 H823 0.979 1_554 S
C798 H824 0.980 . S
C798 H825 0.983 . S
C799 C800 1.391 . S
C799 C804 1.391 . S
C799 H829 0.948 . S
C800 C799 1.391 . S
C800 C801 1.391 . S
C801 C800 1.391 . S
C801 C802 1.392 . S
C801 H830 0.947 . S
C802 C801 1.392 . S
C802 C803 1.419 . S
C802 H831 0.948 . S
C803 C802 1.419 . S
C803 C804 1.391 . S
C803 C807 1.397 . S
C804 C799 1.391 . S
C804 C803 1.391 . S
C804 C805 1.399 . S
C805 C804 1.399 . S
C805 C806 1.396 . S
C805 C808 1.453 . S
C805 C809 1.684 . S
C806 C787 1.723 . S
C806 C805 1.396 . S
C806 C807 1.394 . S
C807 C803 1.397 . S
C807 C806 1.394 . S
C807 C817 1.723 . S
C808 C805 1.453 . S
C808 H832 0.982 . S
C808 H833 0.979 . S
C808 H834 0.977 . S
C809 C805 1.684 . S
C809 H835 0.979 . S
C809 H836 0.980 . S
C809 H837 0.983 . S
C810 H786 0.948 . S
C810 C811 1.391 . S
C810 C815 1.391 . S
C811 C810 1.391 . S
C811 C812 1.391 . S
C812 H789 0.947 1_556 S
C812 C811 1.391 . S
C812 C813 1.392 . S
C813 H790 0.948 1_556 S
C813 C812 1.392 . S
C813 C814 1.419 . S
C814 C813 1.419 . S
C814 C815 1.391 . S
C814 C818 1.397 . S
C815 C810 1.391 . S
C815 C814 1.391 . S
C815 C816 1.399 . S
C816 C815 1.399 . S
C816 C817 1.396 . S
C816 C819 1.453 . S
C816 C820 1.684 . S
C817 C807 1.723 . S
C817 C816 1.396 . S
C817 C818 1.394 . S
C818 C788 1.723 . S
C818 C814 1.397 . S
C818 C817 1.394 . S
C819 H791 0.982 . S
C819 H795 0.979 . S
C819 H796 0.977 . S
C819 C816 1.453 . S
C820 H792 0.979 . S
C820 H793 0.980 . S
C820 H794 0.983 . S
C820 C816 1.684 . S
H821 C839 0.948 . S
H822 C780 0.948 . S
H823 C798 0.979 1_556 S
H824 C798 0.980 . S
H825 C798 0.983 . S
H826 C797 0.982 . S
H827 C797 0.979 . S
H828 C797 0.977 . S
H829 C799 0.948 . S
H830 C801 0.947 . S
H831 C802 0.948 . S
H832 C808 0.982 . S
H833 C808 0.979 . S
H834 C808 0.977 . S
H835 C809 0.979 . S
H836 C809 0.980 . S
H837 C809 0.983 . S
H838 C782 0.949 . S
C839 C782 1.392 1_556 S
C839 C783 1.419 . S
C839 H821 0.948 . S
C840 C841 1.391 . S
C840 C844 1.391 . S
C840 H882 0.948 . S
C841 C840 1.391 . S
C841 C842 1.391 . S
C842 C841 1.391 . S
C842 H898 0.947 . S
C842 C899 1.392 . S
C843 C844 1.391 . S
C843 C847 1.397 . S
C843 C899 1.419 . S
C844 C840 1.391 . S
C844 C843 1.391 . S
C844 C845 1.399 . S
C845 C844 1.399 . S
C845 C848 1.396 . S
C845 C857 1.453 . S
C845 C858 1.684 . S
H846 C870 0.948 . S
C847 C843 1.397 . S
C847 C848 1.394 . S
C847 C866 1.723 . S
C848 C845 1.396 . S
C848 C847 1.394 . S
C848 C878 1.723 . S
H849 C872 0.947 . S
H850 C873 0.948 . S
H851 C879 0.982 . S
H852 C880 0.979 . S
H853 C880 0.980 . S
H854 C880 0.983 . S
H855 C879 0.979 . S
H856 C879 0.977 . S
C857 C845 1.453 . S
C857 H886 0.982 . S
C857 H887 0.979 . S
C857 H888 0.977 . S
C858 C845 1.684 . S
C858 H883 0.979 . S
C858 H884 0.980 . S
C858 H885 0.983 . S
C859 C860 1.391 . S
C859 C864 1.391 . S
C859 H889 0.948 . S
C860 C859 1.391 . S
C860 C861 1.391 . S
C861 C860 1.391 . S
C861 C862 1.392 . S
C861 H890 0.947 . S
C862 C861 1.392 . S
C862 C863 1.419 . S
C862 H891 0.948 . S
C863 C862 1.419 . S
C863 C864 1.391 . S
C863 C867 1.397 . S
C864 C859 1.391 . S
C864 C863 1.391 . S
C864 C865 1.399 . S
C865 C864 1.399 . S
C865 C866 1.396 . S
C865 C868 1.453 . S
C865 C869 1.684 . S
C866 C847 1.723 . S
C866 C865 1.396 . S
C866 C867 1.394 . S
C867 C863 1.397 . S
C867 C866 1.394 . S
C867 C877 1.723 . S
C868 C865 1.453 . S
C868 H892 0.982 . S
C868 H893 0.979 . S
C868 H894 0.977 . S
C869 C865 1.684 . S
C869 H895 0.979 . S
C869 H896 0.980 . S
C869 H897 0.983 . S
C870 H846 0.948 . S
C870 C871 1.391 . S
C870 C875 1.391 . S
C871 C870 1.391 . S
C871 C872 1.391 . S
C872 H849 0.947 . S
C872 C871 1.391 . S
C872 C873 1.392 . S
C873 H850 0.948 . S
C873 C872 1.392 . S
C873 C874 1.419 . S
C874 C873 1.419 . S
C874 C875 1.391 . S
C874 C878 1.397 . S
C875 C870 1.391 . S
C875 C874 1.391 . S
C875 C876 1.399 . S
C876 C875 1.399 . S
C876 C877 1.396 . S
C876 C879 1.453 . S
C876 C880 1.684 . S
C877 C867 1.723 . S
C877 C876 1.396 . S
C877 C878 1.394 . S
C878 C848 1.723 . S
C878 C874 1.397 . S
C878 C877 1.394 . S
C879 H851 0.982 . S
C879 H855 0.979 . S
C879 H856 0.977 . S
C879 C876 1.453 . S
C880 H852 0.979 . S
C880 H853 0.980 . S
C880 H854 0.983 . S
C880 C876 1.684 . S
H881 C899 0.948 . S
H882 C840 0.948 . S
H883 C858 0.979 . S
H884 C858 0.980 . S
H885 C858 0.983 . S
H886 C857 0.982 . S
H887 C857 0.979 . S
H888 C857 0.977 . S
H889 C859 0.948 . S
H890 C861 0.947 . S
H891 C862 0.948 . S
H892 C868 0.982 . S
H893 C868 0.979 . S
H894 C868 0.977 . S
H895 C869 0.979 . S
H896 C869 0.980 . S
H897 C869 0.983 . S
H898 C842 0.947 . S
C899 C842 1.392 . S
C899 C843 1.419 . S
C899 H881 0.948 . S
C900 C901 1.391 . S
C900 C904 1.391 1_565 S
C900 H942 0.948 1_556 S
C901 C900 1.391 . S
C901 C902 1.391 . S
C902 C901 1.391 . S
C902 H958 0.947 . S
C902 C959 1.392 . S
C903 C904 1.391 . S
C903 C907 1.397 . S
C903 C959 1.419 1_545 S
C904 C900 1.391 1_545 S
C904 C903 1.391 . S
C904 C905 1.399 1_556 S
C905 C904 1.399 1_554 S
C905 C908 1.396 1_554 S
C905 C917 1.453 . S
C905 C918 1.684 . S
H906 C930 0.948 . S
C907 C903 1.397 . S
C907 C908 1.394 . S
C907 C926 1.723 . S
C908 C905 1.396 1_556 S
C908 C907 1.394 . S
C908 C938 1.723 . S
H909 C932 0.947 . S
H910 C933 0.948 . S
H911 C939 0.982 . S
H912 C940 0.979 . S
H913 C940 0.980 . S
H914 C940 0.983 . S
H915 C939 0.979 . S
H916 C939 0.977 . S
C917 C905 1.453 . S
C917 H946 0.982 1_554 S
C917 H947 0.979 . S
C917 H948 0.977 . S
C918 C905 1.684 . S
C918 H943 0.979 . S
C918 H944 0.980 . S
C918 H945 0.983 . S
C919 C920 1.391 . S
C919 C924 1.391 . S
C919 H949 0.948 1_545 S
C920 C919 1.391 . S
C920 C921 1.391 . S
C921 C920 1.391 . S
C921 C922 1.392 . S
C921 H950 0.947 . S
C922 C921 1.392 . S
C922 C923 1.419 . S
C922 H951 0.948 . S
C923 C922 1.419 . S
C923 C924 1.391 . S
C923 C927 1.397 . S
C924 C919 1.391 . S
C924 C923 1.391 . S
C924 C925 1.399 . S
C925 C924 1.399 . S
C925 C926 1.396 . S
C925 C928 1.450 1_545 S
C925 C929 1.684 1_545 S
C926 C907 1.723 . S
C926 C925 1.396 . S
C926 C927 1.394 . S
C927 C923 1.397 . S
C927 C926 1.394 . S
C927 C937 1.723 . S
C928 C925 1.450 1_565 S
C928 H952 0.958 1_565 S
C928 H953 0.995 . S
C928 H954 0.988 . S
C929 C925 1.684 1_565 S
C929 H955 0.979 . S
C929 H956 0.980 . S
C929 H957 0.983 . S
C930 H906 0.948 . S
C930 C931 1.391 . S
C930 C935 1.391 . S
C931 C930 1.391 . S
C931 C932 1.391 . S
C932 H909 0.947 . S
C932 C931 1.391 . S
C932 C933 1.392 . S
C933 H910 0.948 . S
C933 C932 1.392 . S
C933 C934 1.419 . S
C934 C933 1.419 . S
C934 C935 1.391 . S
C934 C938 1.397 1_554 S
C935 C930 1.391 . S
C935 C934 1.391 . S
C935 C936 1.399 1_554 S
C936 C935 1.399 1_556 S
C936 C937 1.396 . S
C936 C939 1.453 . S
C936 C940 1.684 . S
C937 C927 1.723 . S
C937 C936 1.396 . S
C937 C938 1.394 . S
C938 C908 1.723 . S
C938 C934 1.397 1_556 S
C938 C937 1.394 . S
C939 H911 0.982 . S
C939 H915 0.979 . S
C939 H916 0.977 . S
C939 C936 1.453 . S
C940 H912 0.979 . S
C940 H913 0.980 . S
C940 H914 0.983 . S
C940 C936 1.684 . S
H941 C959 0.948 . S
H942 C900 0.948 1_554 S
H943 C918 0.979 . S
H944 C918 0.980 . S
H945 C918 0.983 . S
H946 C917 0.982 1_556 S
H947 C917 0.979 . S
H948 C917 0.977 . S
H949 C919 0.948 1_565 S
H950 C921 0.947 . S
H951 C922 0.948 . S
H952 C928 0.958 1_545 S
H953 C928 0.995 . S
H954 C928 0.988 . S
H955 C929 0.979 . S
H956 C929 0.980 . S
H957 C929 0.983 . S
H958 C902 0.947 . S
C959 C902 1.392 . S
C959 C903 1.419 1_565 S
C959 H941 0.948 . S
C960 O961 1.160 1_554 S
C960 O967 1.185 . S
O961 C960 1.160 1_556 S
O962 Zn963 1.899 1_556 S
O962 C970 1.284 . S
Zn963 O962 1.899 1_554 S
Zn963 O964 2.032 . S
Zn963 O967 2.086 . S
Zn963 O972 1.977 . S
O964 Zn963 2.032 . S
O964 C968 1.278 . S
C965 O966 1.203 . S
C965 O972 1.267 . S
O966 C965 1.203 . S
O967 C960 1.185 . S
O967 Zn963 2.086 . S
C968 O964 1.278 . S
C968 O969 1.211 . S
O969 C968 1.211 . S
C970 O962 1.284 . S
C970 O971 1.273 . S
O971 C970 1.273 . S
O972 Zn963 1.977 . S
O972 C965 1.267 . S
C973 O974 1.160 . S
C973 O980 1.185 . S
O974 C973 1.160 . S
O975 Zn976 1.899 . S
O975 C983 1.284 . S
Zn976 O975 1.899 . S
Zn976 O977 2.032 . S
Zn976 O980 2.086 . S
Zn976 O985 1.977 . S
O977 Zn976 2.032 . S
O977 C981 1.278 . S
C978 O979 1.203 . S
C978 O985 1.267 . S
O979 C978 1.203 . S
O980 C973 1.185 . S
O980 Zn976 2.086 . S
C981 O977 1.278 . S
C981 O982 1.211 . S
O982 C981 1.211 . S
C983 O975 1.284 . S
C983 O984 1.273 . S
O984 C983 1.273 . S
O985 Zn976 1.977 . S
O985 C978 1.267 . S
C986 O987 1.160 1_554 S
C986 O993 1.185 . S
O987 C986 1.160 1_556 S
O988 Zn989 1.899 1_556 S
O988 C996 1.284 . S
Zn989 O988 1.899 1_554 S
Zn989 O990 2.032 1_554 S
Zn989 O993 2.086 . S
Zn989 O998 1.977 . S
O990 Zn989 2.032 1_556 S
O990 C994 1.278 . S
C991 O992 1.203 . S
C991 O998 1.267 . S
O992 C991 1.203 . S
O993 C986 1.185 . S
O993 Zn989 2.086 . S
C994 O990 1.278 . S
C994 O995 1.211 1_556 S
O995 C994 1.211 1_554 S
C996 O988 1.284 . S
C996 O997 1.273 . S
O997 C996 1.273 . S
O998 Zn989 1.977 . S
O998 C991 1.267 . S
C999 O1000 1.160 . S
C999 O1006 1.185 . S
O1000 C999 1.160 . S
O1001 Zn1002 1.899 . S
O1001 C1009 1.284 . S
Zn1002 O1001 1.899 . S
Zn1002 O1003 2.032 1_545 S
Zn1002 O1006 2.086 . S
Zn1002 O1011 1.977 . S
O1003 Zn1002 2.032 1_565 S
O1003 C1007 1.278 . S
C1004 O1005 1.203 . S
C1004 O1011 1.267 . S
O1005 C1004 1.203 . S
O1006 C999 1.185 . S
O1006 Zn1002 2.086 . S
C1007 O1003 1.278 . S
C1007 O1008 1.211 . S
O1008 C1007 1.211 . S
C1009 O1001 1.284 . S
C1009 O1010 1.273 1_545 S
O1010 C1009 1.273 1_565 S
O1011 Zn1002 1.977 . S
O1011 C1004 1.267 . S
C1012 O1013 1.160 . S
C1012 O1019 1.185 . S
O1013 C1012 1.160 . S
O1014 Zn1015 1.899 . S
O1014 C1022 1.284 . S
Zn1015 O1014 1.899 . S
Zn1015 O1016 2.032 . S
Zn1015 O1019 2.086 . S
Zn1015 O1024 1.977 . S
O1016 Zn1015 2.032 . S
O1016 C1020 1.278 . S
C1017 O1018 1.203 . S
C1017 O1024 1.267 . S
O1018 C1017 1.203 . S
O1019 C1012 1.185 . S
O1019 Zn1015 2.086 . S
C1020 O1016 1.278 . S
C1020 O1021 1.211 . S
O1021 C1020 1.211 . S
C1022 O1014 1.284 . S
C1022 O1023 1.273 . S
O1023 C1022 1.273 . S
O1024 Zn1015 1.977 . S
O1024 C1017 1.267 . S
C1025 O1026 1.160 . S
C1025 O1032 1.185 . S
O1026 C1025 1.160 . S
O1027 Zn1028 1.899 . S
O1027 C1035 1.284 . S
Zn1028 O1027 1.899 . S
Zn1028 O1029 2.032 . S
Zn1028 O1032 2.086 . S
Zn1028 O1037 1.977 . S
O1029 Zn1028 2.032 . S
O1029 C1033 1.278 . S
C1030 O1031 1.203 . S
C1030 O1037 1.267 . S
O1031 C1030 1.203 . S
O1032 C1025 1.185 . S
O1032 Zn1028 2.086 . S
C1033 O1029 1.278 . S
C1033 O1034 1.211 . S
O1034 C1033 1.211 . S
C1035 O1027 1.284 . S
C1035 O1036 1.273 . S
O1036 C1035 1.273 . S
O1037 Zn1028 1.977 . S
O1037 C1030 1.267 . S
C1038 O1039 1.160 . S
C1038 O1045 1.185 . S
O1039 C1038 1.160 . S
O1040 Zn1041 1.899 . S
O1040 C1048 1.284 . S
Zn1041 O1040 1.899 . S
Zn1041 O1042 2.032 . S
Zn1041 O1045 2.086 . S
Zn1041 O1050 1.977 . S
O1042 Zn1041 2.032 . S
O1042 C1046 1.278 . S
C1043 O1044 1.203 . S
C1043 O1050 1.267 . S
O1044 C1043 1.203 . S
O1045 C1038 1.185 . S
O1045 Zn1041 2.086 . S
C1046 O1042 1.278 . S
C1046 O1047 1.211 . S
O1047 C1046 1.211 . S
C1048 O1040 1.284 . S
C1048 O1049 1.273 . S
O1049 C1048 1.273 . S
O1050 Zn1041 1.977 . S
O1050 C1043 1.267 . S
C1051 O1052 1.160 . S
C1051 O1058 1.185 . S
O1052 C1051 1.160 . S
O1053 Zn1054 1.899 . S
O1053 C1061 1.284 1_565 S
Zn1054 O1053 1.899 . S
Zn1054 O1055 2.032 1_565 S
Zn1054 O1058 2.086 . S
Zn1054 O1063 1.977 . S
O1055 Zn1054 2.032 1_545 S
O1055 C1059 1.278 . S
C1056 O1057 1.203 1_565 S
C1056 O1063 1.267 . S
O1057 C1056 1.203 1_545 S
O1058 C1051 1.185 . S
O1058 Zn1054 2.086 . S
C1059 O1055 1.278 . S
C1059 O1060 1.211 . S
O1060 C1059 1.211 . S
C1061 O1053 1.284 1_545 S
C1061 O1062 1.273 . S
O1062 C1061 1.273 . S
O1063 Zn1054 1.977 . S
O1063 C1056 1.267 . S
C1064 O1065 1.160 1_455 S
C1064 O1071 1.185 . S
O1065 C1064 1.160 1_655 S
O1066 Zn1067 1.899 1_655 S
O1066 C1074 1.284 . S
Zn1067 O1066 1.899 1_455 S
Zn1067 O1068 2.032 1_455 S
Zn1067 O1071 2.086 . S
Zn1067 O1076 1.977 . S
O1068 Zn1067 2.032 1_655 S
O1068 C1072 1.276 1_655 S
C1069 O1070 1.203 . S
C1069 O1076 1.267 . S
O1070 C1069 1.203 . S
O1071 C1064 1.185 . S
O1071 Zn1067 2.086 . S
C1072 O1068 1.276 1_455 S
C1072 O1073 1.218 . S
O1073 C1072 1.218 . S
C1074 O1066 1.284 . S
C1074 O1075 1.273 . S
O1075 C1074 1.273 . S
O1076 Zn1067 1.977 . S
O1076 C1069 1.267 . S
C1077 O1078 1.160 . S
C1077 O1084 1.185 . S
O1078 C1077 1.160 . S
O1079 Zn1080 1.899 . S
O1079 C1087 1.284 . S
Zn1080 O1079 1.899 . S
Zn1080 O1081 2.032 . S
Zn1080 O1084 2.086 . S
Zn1080 O1089 1.977 . S
O1081 Zn1080 2.032 . S
O1081 C1085 1.278 . S
C1082 O1083 1.203 . S
C1082 O1089 1.267 . S
O1083 C1082 1.203 . S
O1084 C1077 1.185 . S
O1084 Zn1080 2.086 . S
C1085 O1081 1.278 . S
C1085 O1086 1.211 . S
O1086 C1085 1.211 . S
C1087 O1079 1.284 . S
C1087 O1088 1.273 . S
O1088 C1087 1.273 . S
O1089 Zn1080 1.977 . S
O1089 C1082 1.267 . S
C1090 O1091 1.160 1_455 S
C1090 O1097 1.185 . S
O1091 C1090 1.160 1_655 S
O1092 Zn1093 1.899 1_655 S
O1092 C1100 1.284 . S
Zn1093 O1092 1.899 1_455 S
Zn1093 O1094 2.032 1_455 S
Zn1093 O1097 2.086 . S
Zn1093 O1102 1.977 . S
O1094 Zn1093 2.032 1_655 S
O1094 C1098 1.280 . S
C1095 O1096 1.203 . S
C1095 O1102 1.267 . S
O1096 C1095 1.203 . S
O1097 C1090 1.185 . S
O1097 Zn1093 2.086 . S
C1098 O1094 1.280 . S
C1098 O1099 1.205 1_655 S
O1099 C1098 1.205 1_455 S
C1100 O1092 1.284 . S
C1100 O1101 1.273 . S
O1101 C1100 1.273 . S
O1102 Zn1093 1.977 . S
O1102 C1095 1.267 . S
C1103 O1104 1.160 . S
C1103 O1110 1.185 . S
O1104 C1103 1.160 . S
O1105 Zn1106 1.899 . S
O1105 C1113 1.284 . S
Zn1106 O1105 1.899 . S
Zn1106 O1107 2.032 . S
Zn1106 O1110 2.086 . S
Zn1106 O1115 1.977 . S
O1107 Zn1106 2.032 . S
O1107 C1111 1.278 . S
C1108 O1109 1.203 . S
C1108 O1115 1.267 . S
O1109 C1108 1.203 . S
O1110 C1103 1.185 . S
O1110 Zn1106 2.086 . S
C1111 O1107 1.278 . S
C1111 O1112 1.211 . S
O1112 C1111 1.211 . S
C1113 O1105 1.284 . S
C1113 O1114 1.273 . S
O1114 C1113 1.273 . S
O1115 Zn1106 1.977 . S
O1115 C1108 1.267 . S
C1116 C1117 1.387 . S
C1116 H1120 0.950 . S
C1116 C1125 1.390 . S
C1117 C1116 1.387 . S
C1117 C1119 1.387 . S
H1118 C1125 0.950 . S
C1119 C1117 1.387 . S
C1119 C1121 1.390 . S
C1119 H1123 0.950 . S
H1120 C1116 0.950 . S
C1121 C1119 1.390 . S
C1121 C1122 1.387 . S
C1121 H1124 0.950 . S
C1122 C1121 1.387 . S
C1122 C1125 1.387 . S
H1123 C1119 0.950 . S
H1124 C1121 0.950 . S
C1125 C1116 1.390 . S
C1125 H1118 0.950 . S
C1125 C1122 1.387 . S
C1126 C1127 1.387 . S
C1126 H1130 0.950 . S
C1126 C1135 1.390 . S
C1127 C1126 1.387 . S
C1127 C1129 1.387 . S
H1128 C1135 0.950 . S
C1129 C1127 1.387 . S
C1129 C1131 1.390 . S
C1129 H1133 0.950 . S
H1130 C1126 0.950 . S
C1131 C1129 1.390 . S
C1131 C1132 1.387 . S
C1131 H1134 0.950 . S
C1132 C1131 1.387 . S
C1132 C1135 1.387 . S
H1133 C1129 0.950 . S
H1134 C1131 0.950 . S
C1135 C1126 1.390 . S
C1135 H1128 0.950 . S
C1135 C1132 1.387 . S
C1136 C1137 1.387 . S
C1136 H1140 0.950 . S
C1136 C1145 1.390 . S
C1137 C1136 1.387 . S
C1137 C1139 1.387 . S
H1138 C1145 0.950 . S
C1139 C1137 1.387 . S
C1139 C1141 1.390 . S
C1139 H1143 0.950 . S
H1140 C1136 0.950 . S
C1141 C1139 1.390 . S
C1141 C1142 1.387 . S
C1141 H1144 0.950 . S
C1142 C1141 1.387 . S
C1142 C1145 1.387 . S
H1143 C1139 0.950 . S
H1144 C1141 0.950 . S
C1145 C1136 1.390 . S
C1145 H1138 0.950 . S
C1145 C1142 1.387 . S
C1146 C1147 1.387 . S
C1146 H1150 0.950 . S
C1146 C1155 1.390 . S
C1147 C1146 1.387 . S
C1147 C1149 1.387 1_565 S
H1148 C1155 0.950 . S
C1149 C1147 1.387 1_545 S
C1149 C1151 1.390 . S
C1149 H1153 0.950 . S
H1150 C1146 0.950 . S
C1151 C1149 1.390 . S
C1151 C1152 1.387 . S
C1151 H1154 0.950 . S
C1152 C1151 1.387 . S
C1152 C1155 1.387 1_545 S
H1153 C1149 0.950 . S
H1154 C1151 0.950 . S
C1155 C1146 1.390 . S
C1155 H1148 0.950 . S
C1155 C1152 1.387 1_565 S
C1156 C1157 1.387 . S
C1156 H1160 0.950 . S
C1156 C1165 1.390 . S
C1157 C1156 1.387 . S
C1157 C1159 1.387 . S
H1158 C1165 0.950 . S
C1159 C1157 1.387 . S
C1159 C1161 1.390 . S
C1159 H1163 0.950 . S
H1160 C1156 0.950 . S
C1161 C1159 1.390 . S
C1161 C1162 1.387 . S
C1161 H1164 0.950 . S
C1162 C1161 1.387 . S
C1162 C1165 1.387 . S
H1163 C1159 0.950 . S
H1164 C1161 0.950 . S
C1165 C1156 1.390 . S
C1165 H1158 0.950 . S
C1165 C1162 1.387 . S
C1166 C1167 1.387 . S
C1166 H1170 0.950 . S
C1166 C1175 1.390 . S
C1167 C1166 1.387 . S
C1167 C1169 1.387 . S
H1168 C1175 0.950 . S
C1169 C1167 1.387 . S
C1169 C1171 1.390 . S
C1169 H1173 0.950 . S
H1170 C1166 0.950 . S
C1171 C1169 1.390 . S
C1171 C1172 1.387 . S
C1171 H1174 0.950 . S
C1172 C1171 1.387 . S
C1172 C1175 1.387 . S
H1173 C1169 0.950 . S
H1174 C1171 0.950 . S
C1175 C1166 1.390 . S
C1175 H1168 0.950 . S
C1175 C1172 1.387 . S
C1176 C1177 1.387 . S
C1176 H1180 0.950 . S
C1176 C1185 1.390 . S
C1177 C1176 1.387 . S
C1177 C1179 1.387 . S
H1178 C1185 0.950 . S
C1179 C1177 1.387 . S
C1179 C1181 1.390 . S
C1179 H1183 0.950 . S
H1180 C1176 0.950 . S
C1181 C1179 1.390 . S
C1181 C1182 1.387 . S
C1181 H1184 0.950 . S
C1182 C1181 1.387 . S
C1182 C1185 1.387 . S
H1183 C1179 0.950 . S
H1184 C1181 0.950 . S
C1185 C1176 1.390 . S
C1185 H1178 0.950 . S
C1185 C1182 1.387 . S
C1186 C1187 1.387 . S
C1186 H1190 0.950 . S
C1186 C1195 1.390 . S
C1187 C1186 1.387 . S
C1187 C1189 1.387 1_565 S
H1188 C1195 0.950 . S
C1189 C1187 1.387 1_545 S
C1189 C1191 1.390 . S
C1189 H1193 0.950 . S
H1190 C1186 0.950 . S
C1191 C1189 1.390 . S
C1191 C1192 1.387 1_545 S
C1191 H1194 0.950 . S
C1192 C1191 1.387 1_565 S
C1192 C1195 1.387 . S
H1193 C1189 0.950 . S
H1194 C1191 0.950 . S
C1195 C1186 1.390 . S
C1195 H1188 0.950 . S
C1195 C1192 1.387 . S
C1196 C1197 1.387 . S
C1196 H1200 0.950 . S
C1196 C1205 1.390 . S
C1197 C1196 1.387 . S
C1197 C1199 1.387 . S
H1198 C1205 0.950 . S
C1199 C1197 1.387 . S
C1199 C1201 1.390 . S
C1199 H1203 0.950 . S
H1200 C1196 0.950 . S
C1201 C1199 1.390 . S
C1201 C1202 1.387 . S
C1201 H1204 0.950 . S
C1202 C1201 1.387 . S
C1202 C1205 1.387 . S
H1203 C1199 0.950 . S
H1204 C1201 0.950 . S
C1205 C1196 1.390 . S
C1205 H1198 0.950 . S
C1205 C1202 1.387 . S
C1206 C1207 1.387 . S
C1206 H1210 0.950 . S
C1206 C1215 1.390 . S
C1207 C1206 1.387 . S
C1207 C1209 1.387 . S
H1208 C1215 0.950 . S
C1209 C1207 1.387 . S
C1209 C1211 1.390 . S
C1209 H1213 0.950 . S
H1210 C1206 0.950 . S
C1211 C1209 1.390 . S
C1211 C1212 1.387 . S
C1211 H1214 0.950 . S
C1212 C1211 1.387 . S
C1212 C1215 1.387 . S
H1213 C1209 0.950 . S
H1214 C1211 0.950 . S
C1215 C1206 1.390 . S
C1215 H1208 0.950 . S
C1215 C1212 1.387 . S
C1216 C1217 1.387 . S
C1216 H1220 0.950 . S
C1216 C1225 1.390 . S
C1217 C1216 1.387 . S
C1217 C1219 1.387 . S
H1218 C1225 0.950 . S
C1219 C1217 1.387 . S
C1219 C1221 1.390 . S
C1219 H1223 0.950 . S
H1220 C1216 0.950 . S
C1221 C1219 1.390 . S
C1221 C1222 1.387 . S
C1221 H1224 0.950 . S
C1222 C1221 1.387 . S
C1222 C1225 1.387 . S
H1223 C1219 0.950 . S
H1224 C1221 0.950 . S
C1225 C1216 1.390 . S
C1225 H1218 0.950 . S
C1225 C1222 1.387 . S
C1226 C1227 1.387 . S
C1226 H1230 0.950 . S
C1226 C1235 1.390 . S
C1227 C1226 1.387 . S
C1227 C1229 1.387 . S
H1228 C1235 0.950 . S
C1229 C1227 1.387 . S
C1229 C1231 1.390 . S
C1229 H1233 0.950 . S
H1230 C1226 0.950 . S
C1231 C1229 1.390 . S
C1231 C1232 1.387 . S
C1231 H1234 0.950 . S
C1232 C1231 1.387 . S
C1232 C1235 1.387 . S
H1233 C1229 0.950 . S
H1234 C1231 0.950 . S
C1235 C1226 1.390 . S
C1235 H1228 0.950 . S
C1235 C1232 1.387 . S
C1236 C1237 1.387 . S
C1236 H1240 0.950 . S
C1236 C1245 1.390 . S
C1237 C1236 1.387 . S
C1237 C1239 1.387 . S
H1238 C1245 0.950 . S
C1239 C1237 1.387 . S
C1239 C1241 1.390 . S
C1239 H1243 0.950 . S
H1240 C1236 0.950 . S
C1241 C1239 1.390 . S
C1241 C1242 1.387 . S
C1241 H1244 0.950 . S
C1242 C1241 1.387 . S
C1242 C1245 1.387 . S
H1243 C1239 0.950 . S
H1244 C1241 0.950 . S
C1245 C1236 1.390 . S
C1245 H1238 0.950 . S
C1245 C1242 1.387 . S
C1246 C1247 1.387 1_655 S
C1246 H1250 0.950 . S
C1246 C1255 1.390 . S
C1247 C1246 1.387 1_455 S
C1247 C1249 1.387 . S
H1248 C1255 0.950 . S
C1249 C1247 1.387 . S
C1249 C1251 1.390 . S
C1249 H1253 0.950 . S
H1250 C1246 0.950 . S
C1251 C1249 1.390 . S
C1251 C1252 1.387 . S
C1251 H1254 0.950 . S
C1252 C1251 1.387 . S
C1252 C1255 1.387 1_455 S
H1253 C1249 0.950 . S
H1254 C1251 0.950 . S
C1255 C1246 1.390 . S
C1255 H1248 0.950 . S
C1255 C1252 1.387 1_655 S
C1256 C1257 1.387 . S
C1256 H1260 0.950 . S
C1256 C1265 1.390 . S
C1257 C1256 1.387 . S
C1257 C1259 1.387 . S
H1258 C1265 0.950 . S
C1259 C1257 1.387 . S
C1259 C1261 1.390 . S
C1259 H1263 0.950 . S
H1260 C1256 0.950 . S
C1261 C1259 1.390 . S
C1261 C1262 1.387 . S
C1261 H1264 0.950 . S
C1262 C1261 1.387 . S
C1262 C1265 1.387 . S
H1263 C1259 0.950 . S
H1264 C1261 0.950 . S
C1265 C1256 1.390 . S
C1265 H1258 0.950 . S
C1265 C1262 1.387 . S
C1266 C1267 1.387 1_455 S
C1266 H1270 0.950 . S
C1266 C1275 1.390 . S
C1267 C1266 1.387 1_655 S
C1267 C1269 1.387 . S
H1268 C1275 0.950 . S
C1269 C1267 1.387 . S
C1269 C1271 1.390 . S
C1269 H1273 0.950 . S
H1270 C1266 0.950 . S
C1271 C1269 1.390 . S
C1271 C1272 1.387 . S
C1271 H1274 0.950 . S
C1272 C1271 1.387 . S
C1272 C1275 1.387 1_655 S
H1273 C1269 0.950 . S
H1274 C1271 0.950 . S
C1275 C1266 1.390 . S
C1275 H1268 0.950 . S
C1275 C1272 1.387 1_455 S
C1276 C1277 1.387 . S
C1276 H1280 0.950 . S
C1276 C1285 1.390 . S
C1277 C1276 1.387 . S
C1277 C1279 1.387 . S
H1278 C1285 0.950 . S
C1279 C1277 1.387 . S
C1279 C1281 1.390 . S
C1279 H1283 0.950 . S
H1280 C1276 0.950 . S
C1281 C1279 1.390 . S
C1281 C1282 1.387 . S
C1281 H1284 0.950 . S
C1282 C1281 1.387 . S
C1282 C1285 1.387 . S
H1283 C1279 0.950 . S
H1284 C1281 0.950 . S
C1285 C1276 1.390 . S
C1285 H1278 0.950 . S
C1285 C1282 1.387 . S
C1286 C1287 1.387 . S
C1286 H1290 0.950 . S
C1286 C1295 1.390 . S
C1287 C1286 1.387 . S
C1287 C1289 1.387 . S
H1288 C1295 0.950 . S
C1289 C1287 1.387 . S
C1289 C1291 1.390 . S
C1289 H1293 0.950 . S
H1290 C1286 0.950 . S
C1291 C1289 1.390 . S
C1291 C1292 1.387 . S
C1291 H1294 0.950 . S
C1292 C1291 1.387 . S
C1292 C1295 1.387 . S
H1293 C1289 0.950 . S
H1294 C1291 0.950 . S
C1295 C1286 1.390 . S
C1295 H1288 0.950 . S
C1295 C1292 1.387 . S
C1296 C1297 1.387 . S
C1296 H1300 0.950 . S
C1296 C1305 1.390 . S
C1297 C1296 1.387 . S
C1297 C1299 1.387 1_556 S
H1298 C1305 0.950 . S
C1299 C1297 1.387 1_554 S
C1299 C1301 1.390 . S
C1299 H1303 0.950 . S
H1300 C1296 0.950 . S
C1301 C1299 1.390 . S
C1301 C1302 1.387 1_554 S
C1301 H1304 0.950 . S
C1302 C1301 1.387 1_556 S
C1302 C1305 1.387 . S
H1303 C1299 0.950 . S
H1304 C1301 0.950 . S
C1305 C1296 1.390 . S
C1305 H1298 0.950 . S
C1305 C1302 1.387 . S
C1306 C1307 1.387 . S
C1306 H1310 0.950 . S
C1306 C1315 1.390 . S
C1307 C1306 1.387 . S
C1307 C1309 1.387 . S
H1308 C1315 0.950 . S
C1309 C1307 1.387 . S
C1309 C1311 1.390 . S
C1309 H1313 0.950 . S
H1310 C1306 0.950 . S
C1311 C1309 1.390 . S
C1311 C1312 1.387 . S
C1311 H1314 0.950 . S
C1312 C1311 1.387 . S
C1312 C1315 1.387 . S
H1313 C1309 0.950 . S
H1314 C1311 0.950 . S
C1315 C1306 1.390 . S
C1315 H1308 0.950 . S
C1315 C1312 1.387 . S
C1316 C1317 1.387 . S
C1316 H1320 0.950 . S
C1316 C1325 1.390 . S
C1317 C1316 1.387 . S
C1317 C1319 1.387 . S
H1318 C1325 0.950 . S
C1319 C1317 1.387 . S
C1319 C1321 1.390 . S
C1319 H1323 0.950 . S
H1320 C1316 0.950 . S
C1321 C1319 1.390 . S
C1321 C1322 1.387 . S
C1321 H1324 0.950 . S
C1322 C1321 1.387 . S
C1322 C1325 1.387 . S
H1323 C1319 0.950 . S
H1324 C1321 0.950 . S
C1325 C1316 1.390 . S
C1325 H1318 0.950 . S
C1325 C1322 1.387 . S
C1326 C1327 1.387 . S
C1326 H1330 0.950 . S
C1326 C1335 1.390 . S
C1327 C1326 1.387 . S
C1327 C1329 1.387 . S
H1328 C1335 0.950 . S
C1329 C1327 1.387 . S
C1329 C1331 1.390 . S
C1329 H1333 0.950 . S
H1330 C1326 0.950 . S
C1331 C1329 1.390 . S
C1331 C1332 1.387 . S
C1331 H1334 0.950 . S
C1332 C1331 1.387 . S
C1332 C1335 1.387 . S
H1333 C1329 0.950 . S
H1334 C1331 0.950 . S
C1335 C1326 1.390 . S
C1335 H1328 0.950 . S
C1335 C1332 1.387 . S
C1336 C1337 1.387 . S
C1336 H1340 0.950 . S
C1336 C1345 1.390 . S
C1337 C1336 1.387 . S
C1337 C1339 1.387 . S
H1338 C1345 0.950 . S
C1339 C1337 1.387 . S
C1339 C1341 1.390 . S
C1339 H1343 0.950 . S
H1340 C1336 0.950 . S
C1341 C1339 1.390 . S
C1341 C1342 1.387 . S
C1341 H1344 0.950 . S
C1342 C1341 1.387 . S
C1342 C1345 1.387 . S
H1343 C1339 0.950 . S
H1344 C1341 0.950 . S
C1345 C1336 1.390 . S
C1345 H1338 0.950 . S
C1345 C1342 1.387 . S
C1346 C1347 1.387 . S
C1346 H1350 0.950 . S
C1346 C1355 1.390 . S
C1347 C1346 1.387 . S
C1347 C1349 1.387 . S
H1348 C1355 0.950 . S
C1349 C1347 1.387 . S
C1349 C1351 1.390 . S
C1349 H1353 0.950 . S
H1350 C1346 0.950 . S
C1351 C1349 1.390 . S
C1351 C1352 1.387 . S
C1351 H1354 0.950 . S
C1352 C1351 1.387 . S
C1352 C1355 1.387 . S
H1353 C1349 0.950 . S
H1354 C1351 0.950 . S
C1355 C1346 1.390 . S
C1355 H1348 0.950 . S
C1355 C1352 1.387 . S
C1356 C1357 1.387 . S
C1356 H1360 0.950 . S
C1356 C1365 1.390 . S
C1357 C1356 1.387 . S
C1357 C1359 1.387 . S
H1358 C1365 0.950 . S
C1359 C1357 1.387 . S
C1359 C1361 1.390 . S
C1359 H1363 0.950 . S
H1360 C1356 0.950 . S
C1361 C1359 1.390 . S
C1361 C1362 1.387 . S
C1361 H1364 0.950 . S
C1362 C1361 1.387 . S
C1362 C1365 1.387 . S
H1363 C1359 0.950 . S
H1364 C1361 0.950 . S
C1365 C1356 1.390 . S
C1365 H1358 0.950 . S
C1365 C1362 1.387 . S
C1366 C1367 1.387 1_565 S
C1366 H1370 0.950 . S
C1366 C1375 1.390 . S
C1367 C1366 1.387 1_545 S
C1367 C1369 1.387 . S
H1368 C1375 0.950 . S
C1369 C1367 1.387 . S
C1369 C1371 1.390 . S
C1369 H1373 0.950 . S
H1370 C1366 0.950 . S
C1371 C1369 1.390 . S
C1371 C1372 1.387 . S
C1371 H1374 0.950 . S
C1372 C1371 1.387 . S
C1372 C1375 1.387 1_545 S
H1373 C1369 0.950 . S
H1374 C1371 0.950 . S
C1375 C1366 1.390 . S
C1375 H1368 0.950 . S
C1375 C1372 1.387 1_565 S
C1376 C1377 1.387 . S
C1376 H1380 0.950 . S
C1376 C1385 1.390 . S
C1377 C1376 1.387 . S
C1377 C1379 1.387 . S
H1378 C1385 0.950 . S
C1379 C1377 1.387 . S
C1379 C1381 1.390 . S
C1379 H1383 0.950 . S
H1380 C1376 0.950 . S
C1381 C1379 1.390 . S
C1381 C1382 1.387 . S
C1381 H1384 0.950 . S
C1382 C1381 1.387 . S
C1382 C1385 1.387 . S
H1383 C1379 0.950 . S
H1384 C1381 0.950 . S
C1385 C1376 1.390 . S
C1385 H1378 0.950 . S
C1385 C1382 1.387 . S
C1386 C1387 1.387 . S
C1386 H1390 0.950 . S
C1386 C1395 1.390 . S
C1387 C1386 1.387 . S
C1387 C1389 1.387 . S
H1388 C1395 0.950 . S
C1389 C1387 1.387 . S
C1389 C1391 1.390 . S
C1389 H1393 0.950 . S
H1390 C1386 0.950 . S
C1391 C1389 1.390 . S
C1391 C1392 1.387 . S
C1391 H1394 0.950 . S
C1392 C1391 1.387 . S
C1392 C1395 1.387 . S
H1393 C1389 0.950 . S
H1394 C1391 0.950 . S
C1395 C1386 1.390 . S
C1395 H1388 0.950 . S
C1395 C1392 1.387 . S
C1396 C1397 1.387 . S
C1396 H1400 0.950 . S
C1396 C1405 1.390 . S
C1397 C1396 1.387 . S
C1397 C1399 1.387 . S
H1398 C1405 0.950 . S
C1399 C1397 1.387 . S
C1399 C1401 1.390 . S
C1399 H1403 0.950 . S
H1400 C1396 0.950 . S
C1401 C1399 1.390 . S
C1401 C1402 1.387 . S
C1401 H1404 0.950 . S
C1402 C1401 1.387 . S
C1402 C1405 1.387 . S
H1403 C1399 0.950 . S
H1404 C1401 0.950 . S
C1405 C1396 1.390 . S
C1405 H1398 0.950 . S
C1405 C1402 1.387 . S
C1406 C1407 1.387 . S
C1406 H1410 0.950 1_545 S
C1406 C1415 1.390 . S
C1407 C1406 1.387 . S
C1407 C1409 1.387 . S
H1408 C1415 0.948 1_565 S
C1409 C1407 1.387 . S
C1409 C1411 1.390 . S
C1409 H1413 0.950 . S
H1410 C1406 0.950 1_565 S
C1411 C1409 1.390 . S
C1411 C1412 1.387 . S
C1411 H1414 0.950 . S
C1412 C1411 1.387 . S
C1412 C1415 1.389 . S
H1413 C1409 0.950 . S
H1414 C1411 0.950 . S
C1415 C1406 1.390 . S
C1415 H1408 0.948 1_545 S
C1415 C1412 1.389 . S
C1416 C1417 1.387 . S
C1416 H1420 0.950 . S
C1416 C1425 1.390 . S
C1417 C1416 1.387 . S
C1417 C1419 1.387 . S
H1418 C1425 0.950 . S
C1419 C1417 1.387 . S
C1419 C1421 1.390 . S
C1419 H1423 0.950 . S
H1420 C1416 0.950 . S
C1421 C1419 1.390 . S
C1421 C1422 1.387 . S
C1421 H1424 0.950 . S
C1422 C1421 1.387 . S
C1422 C1425 1.387 . S
H1423 C1419 0.950 . S
H1424 C1421 0.950 . S
C1425 C1416 1.390 . S
C1425 H1418 0.950 . S
C1425 C1422 1.387 . S
C1426 C1427 1.387 . S
C1426 H1430 0.950 . S
C1426 C1435 1.390 . S
C1427 C1426 1.387 . S
C1427 C1429 1.387 . S
H1428 C1435 0.950 . S
C1429 C1427 1.387 . S
C1429 C1431 1.390 . S
C1429 H1433 0.950 . S
H1430 C1426 0.950 . S
C1431 C1429 1.390 . S
C1431 C1432 1.387 . S
C1431 H1434 0.950 . S
C1432 C1431 1.387 . S
C1432 C1435 1.387 . S
H1433 C1429 0.950 . S
H1434 C1431 0.950 . S
C1435 C1426 1.390 . S
C1435 H1428 0.950 . S
C1435 C1432 1.387 . S
C1436 C1437 1.387 . S
C1436 H1440 0.950 . S
C1436 C1445 1.390 . S
C1437 C1436 1.387 . S
C1437 C1439 1.387 . S
H1438 C1445 0.950 . S
C1439 C1437 1.387 . S
C1439 C1441 1.390 . S
C1439 H1443 0.950 . S
H1440 C1436 0.950 . S
C1441 C1439 1.390 . S
C1441 C1442 1.387 . S
C1441 H1444 0.950 . S
C1442 C1441 1.387 . S
C1442 C1445 1.387 . S
H1443 C1439 0.950 . S
H1444 C1441 0.950 . S
C1445 C1436 1.390 . S
C1445 H1438 0.950 . S
C1445 C1442 1.387 . S
C1446 C1447 1.387 1_455 S
C1446 H1450 0.950 . S
C1446 C1455 1.390 . S
C1447 C1446 1.387 1_655 S
C1447 C1449 1.387 . S
H1448 C1455 0.950 . S
C1449 C1447 1.387 . S
C1449 C1451 1.390 . S
C1449 H1453 0.950 . S
H1450 C1446 0.950 . S
C1451 C1449 1.390 . S
C1451 C1452 1.387 . S
C1451 H1454 0.950 . S
C1452 C1451 1.387 . S
C1452 C1455 1.387 1_655 S
H1453 C1449 0.950 . S
H1454 C1451 0.950 . S
C1455 C1446 1.390 . S
C1455 H1448 0.950 . S
C1455 C1452 1.387 1_455 S
C1456 C1457 1.387 . S
C1456 H1460 0.950 . S
C1456 C1465 1.390 . S
C1457 C1456 1.387 . S
C1457 C1459 1.387 . S
H1458 C1465 0.950 . S
C1459 C1457 1.387 . S
C1459 C1461 1.390 . S
C1459 H1463 0.950 . S
H1460 C1456 0.950 . S
C1461 C1459 1.390 . S
C1461 C1462 1.387 . S
C1461 H1464 0.950 . S
C1462 C1461 1.387 . S
C1462 C1465 1.387 . S
H1463 C1459 0.950 . S
H1464 C1461 0.950 . S
C1465 C1456 1.390 . S
C1465 H1458 0.950 . S
C1465 C1462 1.387 . S
C1466 C1467 1.387 . S
C1466 H1470 0.950 1_455 S
C1466 C1475 1.390 1_455 S
C1467 C1466 1.387 . S
C1467 C1469 1.387 . S
H1468 C1475 0.950 . S
C1469 C1467 1.387 . S
C1469 C1471 1.390 . S
C1469 H1473 0.950 . S
H1470 C1466 0.950 1_655 S
C1471 C1469 1.390 . S
C1471 C1472 1.387 . S
C1471 H1474 0.950 . S
C1472 C1471 1.387 . S
C1472 C1475 1.387 1_455 S
H1473 C1469 0.950 . S
H1474 C1471 0.950 . S
C1475 C1466 1.390 1_655 S
C1475 H1468 0.950 . S
C1475 C1472 1.387 1_655 S
C1476 C1477 1.387 . S
C1476 H1480 0.950 . S
C1476 C1485 1.390 . S
C1477 C1476 1.387 . S
C1477 C1479 1.387 . S
H1478 C1485 0.950 . S
C1479 C1477 1.387 . S
C1479 C1481 1.390 . S
C1479 H1483 0.950 . S
H1480 C1476 0.950 . S
C1481 C1479 1.390 . S
C1481 C1482 1.387 . S
C1481 H1484 0.950 . S
C1482 C1481 1.387 . S
C1482 C1485 1.387 . S
H1483 C1479 0.950 . S
H1484 C1481 0.950 . S
C1485 C1476 1.390 . S
C1485 H1478 0.950 . S
C1485 C1482 1.387 . S
C1486 C1487 1.387 . S
C1486 H1490 0.950 . S
C1486 C1495 1.390 . S
C1487 C1486 1.387 . S
C1487 C1489 1.387 . S
H1488 C1495 0.950 . S
C1489 C1487 1.387 . S
C1489 C1491 1.390 . S
C1489 H1493 0.950 . S
H1490 C1486 0.950 . S
C1491 C1489 1.390 . S
C1491 C1492 1.387 . S
C1491 H1494 0.950 . S
C1492 C1491 1.387 . S
C1492 C1495 1.387 . S
H1493 C1489 0.950 . S
H1494 C1491 0.950 . S
C1495 C1486 1.390 . S
C1495 H1488 0.950 . S
C1495 C1492 1.387 . S
C1496 C1497 1.387 . S
C1496 H1500 0.950 . S
C1496 C1505 1.390 . S
C1497 C1496 1.387 . S
C1497 C1499 1.387 . S
H1498 C1505 0.950 . S
C1499 C1497 1.387 . S
C1499 C1501 1.390 . S
C1499 H1503 0.950 . S
H1500 C1496 0.950 . S
C1501 C1499 1.390 . S
C1501 C1502 1.387 . S
C1501 H1504 0.950 . S
C1502 C1501 1.387 . S
C1502 C1505 1.387 . S
H1503 C1499 0.950 . S
H1504 C1501 0.950 . S
C1505 C1496 1.390 . S
C1505 H1498 0.950 . S
C1505 C1502 1.387 . S
C1506 C1507 1.387 . S
C1506 H1510 0.950 . S
C1506 C1515 1.390 . S
C1507 C1506 1.387 . S
C1507 C1509 1.387 . S
H1508 C1515 0.950 . S
C1509 C1507 1.387 . S
C1509 C1511 1.390 . S
C1509 H1513 0.950 . S
H1510 C1506 0.950 . S
C1511 C1509 1.390 . S
C1511 C1512 1.387 . S
C1511 H1514 0.950 . S
C1512 C1511 1.387 . S
C1512 C1515 1.387 . S
H1513 C1509 0.950 . S
H1514 C1511 0.950 . S
C1515 C1506 1.390 . S
C1515 H1508 0.950 . S
C1515 C1512 1.387 . S
C1516 C1517 1.387 . S
C1516 H1520 0.950 . S
C1516 C1525 1.390 . S
C1517 C1516 1.387 . S
C1517 C1519 1.387 . S
H1518 C1525 0.950 . S
C1519 C1517 1.387 . S
C1519 C1521 1.390 . S
C1519 H1523 0.950 . S
H1520 C1516 0.950 . S
C1521 C1519 1.390 . S
C1521 C1522 1.387 . S
C1521 H1524 0.950 . S
C1522 C1521 1.387 . S
C1522 C1525 1.387 . S
H1523 C1519 0.950 . S
H1524 C1521 0.950 . S
C1525 C1516 1.390 . S
C1525 H1518 0.950 . S
C1525 C1522 1.387 . S
C1526 C1527 1.387 . S
C1526 H1530 0.950 . S
C1526 C1535 1.390 . S
C1527 C1526 1.387 . S
C1527 C1529 1.387 . S
H1528 C1535 0.950 . S
C1529 C1527 1.387 . S
C1529 C1531 1.390 . S
C1529 H1533 0.950 . S
H1530 C1526 0.950 . S
C1531 C1529 1.390 . S
C1531 C1532 1.387 . S
C1531 H1534 0.950 . S
C1532 C1531 1.387 . S
C1532 C1535 1.387 . S
H1533 C1529 0.950 . S
H1534 C1531 0.950 . S
C1535 C1526 1.390 . S
C1535 H1528 0.950 . S
C1535 C1532 1.387 . S
C1536 C1537 1.387 . S
C1536 H1540 0.950 . S
C1536 C1545 1.390 . S
C1537 C1536 1.387 . S
C1537 C1539 1.387 . S
H1538 C1545 0.950 . S
C1539 C1537 1.387 . S
C1539 C1541 1.390 . S
C1539 H1543 0.950 . S
H1540 C1536 0.950 . S
C1541 C1539 1.390 . S
C1541 C1542 1.387 . S
C1541 H1544 0.950 . S
C1542 C1541 1.387 . S
C1542 C1545 1.387 . S
H1543 C1539 0.950 . S
H1544 C1541 0.950 . S
C1545 C1536 1.390 . S
C1545 H1538 0.950 . S
C1545 C1542 1.387 . S
C1546 C1547 1.387 . S
C1546 H1550 0.950 . S
C1546 C1555 1.390 . S
C1547 C1546 1.387 . S
C1547 C1549 1.387 . S
H1548 C1555 0.950 . S
C1549 C1547 1.387 . S
C1549 C1551 1.390 . S
C1549 H1553 0.950 . S
H1550 C1546 0.950 . S
C1551 C1549 1.390 . S
C1551 C1552 1.387 . S
C1551 H1554 0.950 . S
C1552 C1551 1.387 . S
C1552 C1555 1.387 . S
H1553 C1549 0.950 . S
H1554 C1551 0.950 . S
C1555 C1546 1.390 . S
C1555 H1548 0.950 . S
C1555 C1552 1.387 . S
C1556 C1557 1.387 1_554 S
C1556 H1560 0.950 . S
C1556 C1565 1.390 . S
C1557 C1556 1.387 1_556 S
C1557 C1559 1.387 . S
H1558 C1565 0.950 . S
C1559 C1557 1.387 . S
C1559 C1561 1.390 . S
C1559 H1563 0.950 . S
H1560 C1556 0.950 . S
C1561 C1559 1.390 . S
C1561 C1562 1.387 . S
C1561 H1564 0.950 . S
C1562 C1561 1.387 . S
C1562 C1565 1.387 1_556 S
H1563 C1559 0.950 . S
H1564 C1561 0.950 . S
C1565 C1556 1.390 . S
C1565 H1558 0.950 . S
C1565 C1562 1.387 1_554 S
C1566 C1567 1.387 . S
C1566 H1570 0.950 . S
C1566 C1575 1.390 . S
C1567 C1566 1.387 . S
C1567 C1569 1.387 . S
H1568 C1575 0.950 . S
C1569 C1567 1.387 . S
C1569 C1571 1.390 . S
C1569 H1573 0.950 . S
H1570 C1566 0.950 . S
C1571 C1569 1.390 . S
C1571 C1572 1.387 . S
C1571 H1574 0.950 . S
C1572 C1571 1.387 . S
C1572 C1575 1.387 . S
H1573 C1569 0.950 . S
H1574 C1571 0.950 . S
C1575 C1566 1.390 . S
C1575 H1568 0.950 . S
C1575 C1572 1.387 . S
C1576 C1577 1.387 1_556 S
C1576 H1580 0.950 . S
C1576 C1585 1.390 . S
C1577 C1576 1.387 1_554 S
C1577 C1579 1.387 . S
H1578 C1585 0.950 . S
C1579 C1577 1.387 . S
C1579 C1581 1.390 . S
C1579 H1583 0.950 . S
H1580 C1576 0.950 . S
C1581 C1579 1.390 . S
C1581 C1582 1.387 . S
C1581 H1584 0.950 . S
C1582 C1581 1.387 . S
C1582 C1585 1.387 1_554 S
H1583 C1579 0.950 . S
H1584 C1581 0.950 . S
C1585 C1576 1.390 . S
C1585 H1578 0.950 . S
C1585 C1582 1.387 1_556 S
C1586 C1587 1.387 . S
C1586 H1590 0.950 1_554 S
C1586 C1595 1.390 . S
C1587 C1586 1.387 . S
C1587 C1589 1.387 . S
H1588 C1595 0.950 1_556 S
C1589 C1587 1.387 . S
C1589 C1591 1.390 . S
C1589 H1593 0.950 . S
H1590 C1586 0.950 1_556 S
C1591 C1589 1.390 . S
C1591 C1592 1.387 . S
C1591 H1594 0.950 . S
C1592 C1591 1.387 . S
C1592 C1595 1.387 . S
H1593 C1589 0.950 . S
H1594 C1591 0.950 . S
C1595 C1586 1.390 . S
C1595 H1588 0.950 1_554 S
C1595 C1592 1.387 . S
C1122 C970 1.435 . S
C1117 C331 1.407 . S
C1132 C983 1.588 . S
C1127 C380 1.579 . S
C1137 C421 1.445 . S
C1142 C996 1.456 . S
C1152 C1009 1.515 . S
C1147 C260 1.498 . S
C1162 C1017 1.463 . S
C1157 C620 1.467 . S
C1172 C1030 1.425 . S
C1167 C740 1.419 . S
C1177 C680 1.496 . S
C1182 C1043 1.498 . S
C1192 C1056 1.501 . S
C1187 C571 1.499 . S
C1197 C691 1.430 . S
C1202 C1074 1.442 . S
C1212 C1085 1.503 . S
C1207 C541 1.524 . S
C1217 C601 1.441 . S
C1222 C1069 1.439 . S
C1232 C1077 1.458 . S
C1227 C721 1.461 . S
C1237 C451 1.480 . S
C1242 C1100 1.494 . S
C1247 C241 1.493 . S
C1252 C1090 1.483 . S
C1257 C320 1.484 . S
C1262 C1095 1.478 . S
C1267 C391 1.541 . S
C1272 C1098 1.533 . S
C1277 C211 1.428 . S
C1282 C1007 1.437 . S
C1287 C841 1.416 . S
C1292 C999 1.422 . S
C1302 C968 1.533 1_556 S
C1297 C901 1.550 . S
C1312 C973 1.497 . S
C1307 C500 1.498 . S
C1317 C271 1.504 . S
C1322 C1020 1.505 . S
C1332 C1059 1.504 . S
C1327 C661 1.511 . S
C1342 C1012 1.479 . S
C1337 C560 1.490 . S
C1352 C1038 1.446 . S
C1347 C751 1.463 . S
C1362 C1048 1.435 . S
C1357 C871 1.408 . S
C1367 C920 1.577 . S
C1372 C1061 1.588 . S
C1377 C481 1.444 . S
C1382 C1022 1.454 . S
C1392 C1035 1.515 . S
C1387 C800 1.498 . S
C1397 C200 1.469 . S
C1402 C991 1.462 . S
C1412 C1004 1.424 . S
C1407 C20 1.420 . S
C1422 C965 1.496 . S
C1417 C80 1.495 . S
C1432 C978 1.500 . S
C1427 C151 1.497 . S
C1437 C91 1.430 . S
C1442 C1087 1.442 . S
C1447 C121 1.524 . S
C1452 C1072 1.499 1_655 S
C1457 C181 1.440 . S
C1462 C1082 1.437 . S
C1467 C1 1.462 . S
C1472 C1064 1.459 . S
C1482 C1113 1.494 . S
C1477 C511 1.480 . S
C1492 C1103 1.482 . S
C1487 C781 1.491 . S
C1502 C1108 1.480 . S
C1497 C860 1.485 . S
C1507 C931 1.541 . S
C1512 C1111 1.529 . S
C1517 C631 1.427 . S
C1522 C1033 1.435 . S
C1532 C1025 1.423 . S
C1527 C301 1.416 . S
C1542 C1046 1.535 . S
C1537 C361 1.548 . S
C1552 C1051 1.497 . S
C1547 C440 1.501 . S
C1557 C811 1.504 . S
C1562 C994 1.506 . S
C1572 C981 1.502 . S
C1567 C61 1.514 . S
C1577 C140 1.490 . S
C1582 C986 1.478 . S
C1592 C960 1.447 . S
C1587 C31 1.464 . S
