# Generated by pormake.
# Topology eea, (3,6)-cn, num edge types: 1
# Building blocks:
#     Node 0, Type 0, BuildingBlock: KAKCAD_clean_linker_0, # of connection points: 3
#     Node 1, Type 0, BuildingBlock: KAKCAD_clean_linker_0, # of connection points: 3
#     Node 2, Type 0, BuildingBlock: KAKCAD_clean_linker_0, # of connection points: 3
#     Node 3, Type 0, BuildingBlock: KAKCAD_clean_linker_0, # of connection points: 3
#     Node 4, Type 0, BuildingBlock: KAKCAD_clean_linker_0, # of connection points: 3
#     Node 5, Type 0, BuildingBlock: KAKCAD_clean_linker_0, # of connection points: 3
#     Node 6, Type 0, BuildingBlock: KAKCAD_clean_linker_0, # of connection points: 3
#     Node 7, Type 0, BuildingBlock: KAKCAD_clean_linker_0, # of connection points: 3
#     Node 8, Type 0, BuildingBlock: KAKCAD_clean_linker_0, # of connection points: 3
#     Node 9, Type 0, BuildingBlock: KAKCAD_clean_linker_0, # of connection points: 3
#     Node 10, Type 0, BuildingBlock: KAKCAD_clean_linker_0, # of connection points: 3
#     Node 11, Type 0, BuildingBlock: KAKCAD_clean_linker_0, # of connection points: 3
#     Node 12, Type 0, BuildingBlock: KAKCAD_clean_linker_0, # of connection points: 3
#     Node 13, Type 0, BuildingBlock: KAKCAD_clean_linker_0, # of connection points: 3
#     Node 14, Type 0, BuildingBlock: KAKCAD_clean_linker_0, # of connection points: 3
#     Node 15, Type 0, BuildingBlock: KAKCAD_clean_linker_0, # of connection points: 3
#     Node 16, Type 0, BuildingBlock: KAKCAD_clean_linker_0, # of connection points: 3
#     Node 17, Type 0, BuildingBlock: KAKCAD_clean_linker_0, # of connection points: 3
#     Node 18, Type 1, BuildingBlock: CUWYAW_clean_sbu_0, # of connection points: 6
#     Node 19, Type 1, BuildingBlock: CUWYAW_clean_sbu_0, # of connection points: 6
#     Node 20, Type 1, BuildingBlock: CUWYAW_clean_sbu_0, # of connection points: 6
#     Node 21, Type 1, BuildingBlock: CUWYAW_clean_sbu_0, # of connection points: 6
#     Node 22, Type 1, BuildingBlock: CUWYAW_clean_sbu_0, # of connection points: 6
#     Node 23, Type 1, BuildingBlock: CUWYAW_clean_sbu_0, # of connection points: 6
#     Node 24, Type 1, BuildingBlock: CUWYAW_clean_sbu_0, # of connection points: 6
#     Node 25, Type 1, BuildingBlock: CUWYAW_clean_sbu_0, # of connection points: 6
#     Node 26, Type 1, BuildingBlock: CUWYAW_clean_sbu_0, # of connection points: 6
#     Edge 27, Type (0, 1), None
#     Edge 28, Type (0, 1), None
#     Edge 29, Type (0, 1), None
#     Edge 30, Type (0, 1), None
#     Edge 31, Type (0, 1), None
#     Edge 32, Type (0, 1), None
#     Edge 33, Type (0, 1), None
#     Edge 34, Type (0, 1), None
#     Edge 35, Type (0, 1), None
#     Edge 36, Type (0, 1), None
#     Edge 37, Type (0, 1), None
#     Edge 38, Type (0, 1), None
#     Edge 39, Type (0, 1), None
#     Edge 40, Type (0, 1), None
#     Edge 41, Type (0, 1), None
#     Edge 42, Type (0, 1), None
#     Edge 43, Type (0, 1), None
#     Edge 44, Type (0, 1), None
#     Edge 45, Type (0, 1), None
#     Edge 46, Type (0, 1), None
#     Edge 47, Type (0, 1), None
#     Edge 48, Type (0, 1), None
#     Edge 49, Type (0, 1), None
#     Edge 50, Type (0, 1), None
#     Edge 51, Type (0, 1), None
#     Edge 52, Type (0, 1), None
#     Edge 53, Type (0, 1), None
#     Edge 54, Type (0, 1), None
#     Edge 55, Type (0, 1), None
#     Edge 56, Type (0, 1), None
#     Edge 57, Type (0, 1), None
#     Edge 58, Type (0, 1), None
#     Edge 59, Type (0, 1), None
#     Edge 60, Type (0, 1), None
#     Edge 61, Type (0, 1), None
#     Edge 62, Type (0, 1), None
#     Edge 63, Type (0, 1), None
#     Edge 64, Type (0, 1), None
#     Edge 65, Type (0, 1), None
#     Edge 66, Type (0, 1), None
#     Edge 67, Type (0, 1), None
#     Edge 68, Type (0, 1), None
#     Edge 69, Type (0, 1), None
#     Edge 70, Type (0, 1), None
#     Edge 71, Type (0, 1), None
#     Edge 72, Type (0, 1), None
#     Edge 73, Type (0, 1), None
#     Edge 74, Type (0, 1), None
#     Edge 75, Type (0, 1), None
#     Edge 76, Type (0, 1), None
#     Edge 77, Type (0, 1), None
#     Edge 78, Type (0, 1), None
#     Edge 79, Type (0, 1), None
#     Edge 80, Type (0, 1), None
# Relax obj value: 0.033
# Max RMSD: 0.130
# Mean RMSD: 0.112
data_MOF--net-eea--node1-CUWYAW_clean_sbu_0--node2-KAKCAD_clean_linker_0--edge1-none
_symmetry_space_group_name_H-M    P1
_symmetry_Int_Tables_number       1
_symmetry_cell_setting            triclinic
loop_
_symmetry_equiv_pos_as_xyz
'x, y, z'
_cell_length_a     33.929451
_cell_length_b     33.344585
_cell_length_c     56.435468
_cell_angle_alpha  93.508661
_cell_angle_beta   92.956088
_cell_angle_gamma 119.93546
loop_
_atom_site_label
_atom_site_type_symbol
_atom_site_fract_x
_atom_site_fract_y
_atom_site_fract_z
_atom_type_partial_charge
C0 C 0.28801 0.18039 0.50325 0.0
C1 C 0.31566 0.16203 0.51047 0.0
C2 C 0.27261 0.17579 0.47917 0.0
C3 C 0.28452 0.15273 0.46179 0.0
C4 C 0.31418 0.13673 0.46886 0.0
C5 C 0.32938 0.14113 0.49285 0.0
C6 C 0.26296 0.14136 0.43681 0.0
C7 C 0.25719 0.17401 0.42453 0.0
C8 C 0.23567 0.16193 0.40106 0.0
C9 C 0.2189 0.11649 0.3904 0.0
C10 C 0.22464 0.0839 0.40227 0.0
C11 C 0.2468 0.09652 0.42536 0.0
C12 C 0.20779 0.03684 0.39015 0.0
C13 C 0.16343 0.01154 0.3785 0.0
C14 C 0.23682 0.01823 0.38887 0.0
C15 C 0.22225 0.97579 0.37542 0.0
C16 C 0.1782 0.95103 0.36337 0.0
C17 C 0.22949 0.19551 0.38732 0.0
C18 C 0.21628 0.22556 0.39816 0.0
C19 C 0.23283 0.19462 0.36252 0.0
C20 C 0.2199 0.22015 0.3487 0.0
C21 C 0.20475 0.24835 0.35939 0.0
C22 C 0.20425 0.25197 0.38427 0.0
C23 C 0.14873 0.96896 0.36528 0.0
H24 H 0.27738 0.19741 0.51626 0.0
H25 H 0.24974 0.18844 0.47433 0.0
H26 H 0.32462 0.11945 0.45587 0.0
H27 H 0.35025 0.12617 0.49762 0.0
H28 H 0.27027 0.20888 0.43303 0.0
H29 H 0.25012 0.07071 0.43467 0.0
H30 H 0.20124 0.1062 0.37262 0.0
H31 H 0.14029 0.02501 0.37939 0.0
H32 H 0.27133 0.03732 0.39752 0.0
H33 H 0.24582 0.96296 0.37398 0.0
H34 H 0.21301 0.22695 0.41714 0.0
H35 H 0.24418 0.17301 0.35362 0.0
H36 H 0.11455 0.95048 0.35622 0.0
H37 H 0.19213 0.27314 0.3928 0.0
H38 H 0.22104 0.21723 0.32954 0.0
C39 C 0.86962 0.18326 0.50308 0.0
C40 C 0.84996 0.14399 0.51598 0.0
C41 C 0.88135 0.17988 0.47987 0.0
C42 C 0.87319 0.13705 0.46898 0.0
C43 C 0.85513 0.09827 0.48221 0.0
C44 C 0.84377 0.10171 0.50541 0.0
C45 C 0.87983 0.13151 0.44335 0.0
C46 C 0.92017 0.16317 0.43369 0.0
C47 C 0.92585 0.15697 0.40935 0.0
C48 C 0.89008 0.11886 0.39494 0.0
C49 C 0.84997 0.08662 0.40429 0.0
C50 C 0.84503 0.09366 0.42845 0.0
C51 C 0.81471 0.04429 0.38901 0.0
C52 C 0.80634 0.04583 0.36445 0.0
C53 C 0.79164 1.00111 0.3985 0.0
C54 C 0.76236 0.96053 0.38369 0.0
C55 C 0.75621 0.96214 0.3591 0.0
C56 C 0.96879 0.18924 0.39864 0.0
C57 C 0.99456 0.23694 0.40675 0.0
C58 C 0.9837 0.17262 0.37947 0.0
C59 C 0.02151 0.20285 0.36807 0.0
C60 C 0.04673 0.25023 0.37612 0.0
C61 C 0.03352 0.26694 0.39583 0.0
C62 C 0.77799 0.00502 0.34959 0.0
H63 H 0.87536 0.21649 0.51082 0.0
H64 H 0.8951 0.21032 0.4701 0.0
H65 H 0.84886 0.06487 0.47439 0.0
H66 H 0.82847 0.07072 0.51473 0.0
H67 H 0.94744 0.19161 0.44534 0.0
H68 H 0.81362 0.06985 0.43571 0.0
H69 H 0.89367 0.11373 0.37626 0.0
H70 H 0.82237 0.07844 0.35654 0.0
H71 H 0.79768 0.99816 0.41717 0.0
H72 H 0.74654 0.92756 0.39127 0.0
H73 H 0.98433 0.25144 0.42124 0.0
H74 H 0.96648 0.13601 0.3732 0.0
H75 H 0.77337 0.00692 0.33063 0.0
H76 H 0.05281 0.30343 0.40249 0.0
H77 H 0.0318 0.18889 0.35334 0.0
C78 C 0.88389 0.70767 0.50983 0.0
C79 C 0.83826 0.67841 0.51457 0.0
C80 C 0.89437 0.72209 0.48698 0.0
C81 C 0.85944 0.70779 0.46839 0.0
C82 C 0.81407 0.67754 0.47301 0.0
C83 C 0.80363 0.66318 0.49574 0.0
C84 C 0.86934 0.72579 0.44452 0.0
C85 C 0.90677 0.72956 0.43303 0.0
C86 C 0.91464 0.74542 0.41017 0.0
C87 C 0.88417 0.75686 0.39886 0.0
C88 C 0.84735 0.75468 0.41025 0.0
C89 C 0.84071 0.73953 0.43319 0.0
C90 C 0.81625 0.76875 0.39837 0.0
C91 C 0.83239 0.80321 0.38231 0.0
C92 C 0.77001 0.74791 0.403 0.0
C93 C 0.74122 0.76171 0.3923 0.0
C94 C 0.75745 0.79534 0.37607 0.0
C95 C 0.95604 0.75313 0.39847 0.0
C96 C 0.99872 0.77385 0.41186 0.0
C97 C 0.95408 0.74391 0.37358 0.0
C98 C 0.99403 0.75715 0.36227 0.0
C99 C 0.03688 0.77965 0.37562 0.0
C100 C 0.03853 0.78683 0.40061 0.0
C101 C 0.80305 0.81569 0.37096 0.0
H102 H 0.91154 0.7197 0.5238 0.0
H103 H 0.92965 0.74551 0.48407 0.0
H104 H 0.78634 0.66529 0.45905 0.0
H105 H 0.76809 0.64116 0.49865 0.0
H106 H 0.92929 0.71947 0.44167 0.0
H107 H 0.81372 0.73937 0.44268 0.0
H108 H 0.88983 0.76841 0.38122 0.0
H109 H 0.86784 0.82125 0.37865 0.0
H110 H 0.75562 0.72048 0.41467 0.0
H111 H 0.70592 0.74531 0.39631 0.0
H112 H 1.00173 0.78194 0.43098 0.0
H113 H 0.92166 0.72721 0.36272 0.0
H114 H 0.81629 0.84213 0.35864 0.0
H115 H 0.07079 0.80376 0.41161 0.0
H116 H 0.99133 0.75055 0.34306 0.0
C117 C 0.15366 0.27466 0.51229 0.0
C118 C 0.15215 0.31403 0.50598 0.0
C119 C 0.14276 0.25915 0.53479 0.0
C120 C 0.12959 0.28228 0.55146 0.0
C121 C 0.12596 0.32031 0.54482 0.0
C122 C 0.13747 0.33626 0.52236 0.0
C123 C 0.12401 0.26926 0.57633 0.0
C124 C 0.15835 0.26468 0.5886 0.0
C125 C 0.15444 0.25196 0.61196 0.0
C126 C 0.11606 0.24505 0.62332 0.0
C127 C 0.08025 0.24799 0.61132 0.0
C128 C 0.08494 0.26078 0.58772 0.0
C129 C 0.0378 0.23595 0.62337 0.0
C130 C 0.02352 0.20361 0.6406 0.0
C131 C 0.01111 0.25637 0.618 0.0
C132 C 0.97156 0.24466 0.62941 0.0
C133 C 0.95871 0.21358 0.64701 0.0
C134 C 0.18856 0.24224 0.62381 0.0
C135 C 0.20559 0.21804 0.61066 0.0
C136 C 0.20225 0.25431 0.6484 0.0
C137 C 0.23147 0.24146 0.65964 0.0
C138 C 0.2478 0.21657 0.64647 0.0
C139 C 0.23493 0.20556 0.6218 0.0
C140 C 0.9851 0.19339 0.6526 0.0
H141 H 0.16507 0.25692 0.50018 0.0
H142 H 0.14564 0.22959 0.5394 0.0
H143 H 0.11611 0.3389 0.55735 0.0
H144 H 0.13552 0.36641 0.51792 0.0
H145 H 0.18851 0.27135 0.57991 0.0
H146 H 0.05778 0.26258 0.57781 0.0
H147 H 0.11374 0.23608 0.64149 0.0
H148 H 0.04141 0.18527 0.64471 0.0
H149 H 0.02082 0.28176 0.60517 0.0
H150 H 0.95135 0.26043 0.62475 0.0
H151 H 0.19516 0.20736 0.59181 0.0
H152 H 0.19021 0.27348 0.65901 0.0
H153 H 0.97512 0.16842 0.6657 0.0
H154 H 0.24666 0.18629 0.61104 0.0
H155 H 0.24102 0.25083 0.67863 0.0
C156 C 0.69457 0.8196 0.52295 0.0
C157 C 0.71251 0.85815 0.50953 0.0
C158 C 0.71071 0.82443 0.54689 0.0
C159 C 0.74473 0.868 0.55793 0.0
C160 C 0.76345 0.90619 0.54432 0.0
C161 C 0.74761 0.90131 0.52041 0.0
C162 C 0.75983 0.87454 0.58375 0.0
C163 C 0.77062 0.84347 0.59417 0.0
C164 C 0.78826 0.85245 0.61818 0.0
C165 C 0.79413 0.89194 0.63183 0.0
C166 C 0.78194 0.92237 0.62205 0.0
C167 C 0.7647 0.91322 0.59795 0.0
C168 C 0.78881 0.96434 0.63686 0.0
C169 C 0.78329 0.96313 0.66144 0.0
C170 C 0.80295 0.00657 0.62684 0.0
C171 C 0.81213 0.04655 0.64111 0.0
C172 C 0.80808 0.04534 0.66566 0.0
C173 C 0.80229 0.82206 0.62942 0.0
C174 C 0.77025 0.77549 0.63196 0.0
C175 C 0.84693 0.84151 0.64033 0.0
C176 C 0.85893 0.81558 0.65436 0.0
C177 C 0.82648 0.76973 0.6579 0.0
C178 C 0.78219 0.74955 0.64628 0.0
C179 C 0.79352 0.00343 0.67575 0.0
H180 H 0.66779 0.78578 0.51497 0.0
H181 H 0.69565 0.79442 0.55695 0.0
H182 H 0.79016 0.9401 0.55227 0.0
H183 H 0.7619 0.93175 0.51064 0.0
H184 H 0.76714 0.81358 0.58345 0.0
H185 H 0.75459 0.93601 0.59017 0.0
H186 H 0.80884 0.89909 0.65016 0.0
H187 H 0.77145 0.93114 0.66975 0.0
H188 H 0.80858 0.00933 0.60816 0.0
H189 H 0.82459 0.07897 0.63319 0.0
H190 H 0.73546 0.76004 0.62393 0.0
H191 H 0.87218 0.87738 0.63859 0.0
H192 H 0.79014 0.00186 0.6947 0.0
H193 H 0.75636 0.71447 0.64901 0.0
H194 H 0.89339 0.83194 0.663 0.0
C195 C 0.12235 0.82539 0.51608 0.0
C196 C 0.16812 0.84522 0.51074 0.0
C197 C 0.11181 0.82789 0.53963 0.0
C198 C 0.14679 0.85025 0.55839 0.0
C199 C 0.1923 0.8678 0.55319 0.0
C200 C 0.20283 0.86549 0.52972 0.0
C201 C 0.13663 0.85935 0.58288 0.0
C202 C 0.09876 0.8255 0.59343 0.0
C203 C 0.08894 0.83566 0.61631 0.0
C204 C 0.11714 0.88019 0.62828 0.0
C205 C 0.15457 0.91428 0.61796 0.0
C206 C 0.16429 0.90357 0.59542 0.0
C207 C 0.18268 0.9615 0.63061 0.0
C208 C 0.16153 0.98396 0.64141 0.0
C209 C 0.23062 0.98384 0.63258 0.0
C210 C 0.25685 0.0272 0.6458 0.0
C211 C 0.23551 0.04898 0.65706 0.0
C212 C 0.04785 0.80157 0.6274 0.0
C213 C 0.00567 0.77522 0.61367 0.0
C214 C 0.04949 0.7984 0.65221 0.0
C215 C 0.00958 0.7714 0.66314 0.0
C216 C 0.96712 0.74667 0.6495 0.0
C217 C 0.96589 0.74809 0.62455 0.0
C218 C 0.1877 0.02729 0.65451 0.0
H219 H 0.09462 0.80876 0.502 0.0
H220 H 0.07641 0.81414 0.54297 0.0
H221 H 0.22007 0.88463 0.56726 0.0
H222 H 0.23846 0.88151 0.52643 0.0
H223 H 0.0773 0.79128 0.58397 0.0
H224 H 0.19248 0.93052 0.58722 0.0
H225 H 0.10946 0.88883 0.64561 0.0
H226 H 0.12465 0.96787 0.63984 0.0
H227 H 0.24775 0.96716 0.62451 0.0
H228 H 0.2937 0.0431 0.64767 0.0
H229 H 1.00295 0.7771 0.59461 0.0
H230 H 0.0816 0.81764 0.66329 0.0
H231 H 0.17044 0.04349 0.66292 0.0
H232 H 0.93393 0.72929 0.61333 0.0
H233 H 0.01195 0.77073 0.68231 0.0
C234 C 0.95467 0.51372 0.83658 0.0
C235 C 0.98232 0.49536 0.8438 0.0
C236 C 0.93927 0.50912 0.8125 0.0
C237 C 0.95117 0.48606 0.79512 0.0
C238 C 0.98084 0.47006 0.80219 0.0
C239 C 0.99604 0.47446 0.82618 0.0
C240 C 0.92962 0.47469 0.77014 0.0
C241 C 0.92384 0.50734 0.75787 0.0
C242 C 0.90233 0.49526 0.7344 0.0
C243 C 0.88556 0.44982 0.72374 0.0
C244 C 0.8913 0.41723 0.7356 0.0
C245 C 0.91346 0.42985 0.75869 0.0
C246 C 0.87445 0.37017 0.72349 0.0
C247 C 0.83009 0.34487 0.71183 0.0
C248 C 0.90348 0.35156 0.7222 0.0
C249 C 0.88891 0.30913 0.70875 0.0
C250 C 0.84486 0.28436 0.6967 0.0
C251 C 0.89615 0.52884 0.72066 0.0
C252 C 0.88294 0.55889 0.7315 0.0
C253 C 0.89949 0.52795 0.69586 0.0
C254 C 0.88656 0.55348 0.68203 0.0
C255 C 0.87141 0.58168 0.69272 0.0
C256 C 0.87091 0.5853 0.71761 0.0
C257 C 0.8154 0.30229 0.69861 0.0
H258 H 0.94404 0.53074 0.8496 0.0
H259 H 0.9164 0.52177 0.80767 0.0
H260 H 0.99128 0.45278 0.7892 0.0
H261 H 0.01691 0.4595 0.83095 0.0
H262 H 0.93693 0.54221 0.76636 0.0
H263 H 0.91678 0.40404 0.76801 0.0
H264 H 0.8679 0.43953 0.70595 0.0
H265 H 0.80695 0.35834 0.71273 0.0
H266 H 0.93799 0.37065 0.73085 0.0
H267 H 0.91248 0.29629 0.70732 0.0
H268 H 0.87967 0.56028 0.75047 0.0
H269 H 0.91084 0.50634 0.68695 0.0
H270 H 0.78121 0.28381 0.68955 0.0
H271 H 0.85879 0.60647 0.72613 0.0
H272 H 0.8877 0.55056 0.66288 0.0
C273 C 0.53629 0.5166 0.83641 0.0
C274 C 0.51662 0.47732 0.84931 0.0
C275 C 0.54802 0.51322 0.8132 0.0
C276 C 0.53985 0.47039 0.80231 0.0
C277 C 0.52179 0.43161 0.81554 0.0
C278 C 0.51043 0.43505 0.83875 0.0
C279 C 0.54649 0.46484 0.77668 0.0
C280 C 0.58683 0.4965 0.76703 0.0
C281 C 0.59251 0.4903 0.74269 0.0
C282 C 0.55674 0.45219 0.72827 0.0
C283 C 0.51664 0.41995 0.73762 0.0
C284 C 0.51169 0.42699 0.76179 0.0
C285 C 0.48138 0.37762 0.72235 0.0
C286 C 0.47301 0.37916 0.69778 0.0
C287 C 0.4583 0.33444 0.73183 0.0
C288 C 0.42902 0.29386 0.71703 0.0
C289 C 0.42287 0.29547 0.69244 0.0
C290 C 0.63546 0.52257 0.73197 0.0
C291 C 0.66122 0.57028 0.74008 0.0
C292 C 0.65037 0.50595 0.7128 0.0
C293 C 0.68818 0.53618 0.7014 0.0
C294 C 0.71339 0.58356 0.70945 0.0
C295 C 0.70018 0.60028 0.72916 0.0
C296 C 0.44465 0.33835 0.68292 0.0
H297 H 0.54203 0.54982 0.84415 0.0
H298 H 0.56176 0.54365 0.80344 0.0
H299 H 0.51552 0.39821 0.80773 0.0
H300 H 0.49514 0.40405 0.84806 0.0
H301 H 0.6141 0.52494 0.77867 0.0
H302 H 0.48029 0.40318 0.76904 0.0
H303 H 0.56034 0.44706 0.70959 0.0
H304 H 0.48903 0.41177 0.68988 0.0
H305 H 0.46434 0.33149 0.7505 0.0
H306 H 0.41321 0.26089 0.7246 0.0
H307 H 0.65099 0.58477 0.75457 0.0
H308 H 0.63314 0.46935 0.70654 0.0
H309 H 0.44004 0.34025 0.66397 0.0
H310 H 0.71947 0.63676 0.73583 0.0
H311 H 0.69847 0.52223 0.68667 0.0
C312 C 0.55056 0.041 0.84316 0.0
C313 C 0.50493 0.01174 0.84791 0.0
C314 C 0.56104 0.05542 0.82031 0.0
C315 C 0.52611 0.04112 0.80172 0.0
C316 C 0.48074 0.01087 0.80635 0.0
C317 C 0.4703 0.99651 0.82907 0.0
C318 C 0.536 0.05912 0.77786 0.0
C319 C 0.57343 0.06289 0.76636 0.0
C320 C 0.58131 0.07875 0.7435 0.0
C321 C 0.55084 0.09018 0.73219 0.0
C322 C 0.51402 0.08801 0.74358 0.0
C323 C 0.50738 0.07285 0.76652 0.0
C324 C 0.48292 0.10208 0.7317 0.0
C325 C 0.49905 0.13654 0.71564 0.0
C326 C 0.43668 0.08124 0.73633 0.0
C327 C 0.40789 0.09504 0.72564 0.0
C328 C 0.42412 0.12867 0.7094 0.0
C329 C 0.6227 0.08646 0.7318 0.0
C330 C 0.66539 0.10718 0.74519 0.0
C331 C 0.62075 0.07725 0.70691 0.0
C332 C 0.6607 0.09048 0.69561 0.0
C333 C 0.70355 0.11298 0.70895 0.0
C334 C 0.7052 0.12016 0.73395 0.0
C335 C 0.46972 0.14902 0.70429 0.0
H336 H 0.5782 0.05303 0.85714 0.0
H337 H 0.59632 0.07884 0.8174 0.0
H338 H 0.45301 0.99862 0.79238 0.0
H339 H 0.43476 0.97449 0.83199 0.0
H340 H 0.59596 0.0528 0.77501 0.0
H341 H 0.48038 0.0727 0.77601 0.0
H342 H 0.5565 0.10174 0.71455 0.0
H343 H 0.53451 0.15458 0.71199 0.0
H344 H 0.42229 0.05381 0.74801 0.0
H345 H 0.37258 0.07864 0.72965 0.0
H346 H 0.6684 0.11527 0.76431 0.0
H347 H 0.58833 0.06054 0.69605 0.0
H348 H 0.48296 0.17546 0.69197 0.0
H349 H 0.73746 0.13709 0.74494 0.0
H350 H 0.658 0.08388 0.67639 0.0
C351 C 0.82033 0.608 0.84562 0.0
C352 C 0.81882 0.64737 0.83931 0.0
C353 C 0.80943 0.59249 0.86813 0.0
C354 C 0.79626 0.61562 0.8848 0.0
C355 C 0.79263 0.65366 0.87815 0.0
C356 C 0.80414 0.6696 0.85569 0.0
C357 C 0.79068 0.6026 0.90966 0.0
C358 C 0.82502 0.59802 0.92194 0.0
C359 C 0.82111 0.5853 0.94529 0.0
C360 C 0.78273 0.57839 0.95666 0.0
C361 C 0.74692 0.58133 0.94465 0.0
C362 C 0.75161 0.59412 0.92105 0.0
C363 C 0.70447 0.56929 0.9567 0.0
C364 C 0.69019 0.53695 0.97393 0.0
C365 C 0.67779 0.58971 0.95133 0.0
C366 C 0.63823 0.578 0.96274 0.0
C367 C 0.62538 0.54692 0.98034 0.0
C368 C 0.85523 0.57558 0.95714 0.0
C369 C 0.87226 0.55138 0.944 0.0
C370 C 0.86892 0.58765 0.98174 0.0
C371 C 0.89813 0.5748 0.99298 0.0
C372 C 0.91447 0.54991 0.97981 0.0
C373 C 0.9016 0.5389 0.95514 0.0
C374 C 0.65177 0.52673 0.98593 0.0
H375 H 0.83174 0.59025 0.83351 0.0
H376 H 0.81231 0.56293 0.87273 0.0
H377 H 0.78278 0.67224 0.89068 0.0
H378 H 0.80219 0.69975 0.85125 0.0
H379 H 0.85518 0.60469 0.91325 0.0
H380 H 0.72445 0.59592 0.91114 0.0
H381 H 0.78042 0.56942 0.97482 0.0
H382 H 0.70808 0.51861 0.97804 0.0
H383 H 0.68749 0.6151 0.9385 0.0
H384 H 0.61802 0.59377 0.95808 0.0
H385 H 0.86183 0.5407 0.92514 0.0
H386 H 0.85688 0.60682 0.99234 0.0
H387 H 0.64179 0.50176 0.99903 0.0
H388 H 0.91332 0.51962 0.94437 0.0
H389 H 0.90769 0.58417 0.01196 0.0
C390 C 0.36124 0.15293 0.85628 0.0
C391 C 0.37917 0.19148 0.84286 0.0
C392 C 0.37737 0.15776 0.88023 0.0
C393 C 0.41139 0.20133 0.89127 0.0
C394 C 0.43011 0.23953 0.87766 0.0
C395 C 0.41427 0.23465 0.85374 0.0
C396 C 0.42648 0.20787 0.91709 0.0
C397 C 0.43727 0.17681 0.92751 0.0
C398 C 0.45491 0.18579 0.95152 0.0
C399 C 0.46078 0.22528 0.96517 0.0
C400 C 0.44859 0.2557 0.95538 0.0
C401 C 0.43136 0.24656 0.93129 0.0
C402 C 0.45546 0.29767 0.9702 0.0
C403 C 0.44994 0.29647 0.99478 0.0
C404 C 0.46961 0.3399 0.96018 0.0
C405 C 0.4788 0.37989 0.97444 0.0
C406 C 0.47474 0.37868 0.99899 0.0
C407 C 0.46894 0.1554 0.96276 0.0
C408 C 0.4369 0.10882 0.9653 0.0
C409 C 0.51359 0.17485 0.97367 0.0
C410 C 0.52559 0.14892 0.9877 0.0
C411 C 0.49314 0.10307 0.99124 0.0
C412 C 0.44885 0.08288 0.97962 0.0
C413 C 0.46018 0.33677 1.00908 0.0
H414 H 0.33445 0.11911 0.8483 0.0
H415 H 0.36231 0.12776 0.89028 0.0
H416 H 0.45682 0.27343 0.8856 0.0
H417 H 0.42856 0.26508 0.84398 0.0
H418 H 0.4338 0.14691 0.91679 0.0
H419 H 0.42125 0.26935 0.9235 0.0
H420 H 0.47549 0.23243 0.9835 0.0
H421 H 0.43809 0.26448 1.00309 0.0
H422 H 0.47524 0.34266 0.94149 0.0
H423 H 0.49126 0.41231 0.96652 0.0
H424 H 0.40211 0.09337 0.95727 0.0
H425 H 0.53883 0.21072 0.97193 0.0
H426 H 0.45679 0.3352 0.02804 0.0
H427 H 0.42302 0.0478 0.98234 0.0
H428 H 0.56004 0.16528 0.99633 0.0
C429 C 0.78902 0.15872 0.84941 0.0
C430 C 0.83478 0.17855 0.84408 0.0
C431 C 0.77848 0.16123 0.87296 0.0
C432 C 0.81346 0.18359 0.89173 0.0
C433 C 0.85897 0.20113 0.88653 0.0
C434 C 0.8695 0.19883 0.86306 0.0
C435 C 0.8033 0.19268 0.91622 0.0
C436 C 0.76542 0.15884 0.92677 0.0
C437 C 0.75561 0.16899 0.94964 0.0
C438 C 0.78381 0.21352 0.96162 0.0
C439 C 0.82123 0.24761 0.9513 0.0
C440 C 0.83096 0.23691 0.92876 0.0
C441 C 0.84935 0.29483 0.96395 0.0
C442 C 0.82819 0.3173 0.97474 0.0
C443 C 0.89729 0.31718 0.96591 0.0
C444 C 0.92351 0.36053 0.97913 0.0
C445 C 0.90217 0.38231 0.9904 0.0
C446 C 0.71451 0.1349 0.96073 0.0
C447 C 0.67233 0.10855 0.94701 0.0
C448 C 0.71615 0.13173 0.98554 0.0
C449 C 0.67624 0.10474 0.99648 0.0
C450 C 0.63379 0.08001 0.98284 0.0
C451 C 0.63256 0.08143 0.95789 0.0
C452 C 0.85437 0.36063 0.98784 0.0
H453 H 0.76129 0.1421 0.83533 0.0
H454 H 0.74308 0.14747 0.8763 0.0
H455 H 0.88673 0.21796 0.90059 0.0
H456 H 0.90513 0.21485 0.85977 0.0
H457 H 0.74396 0.12462 0.9173 0.0
H458 H 0.85914 0.26386 0.92056 0.0
H459 H 0.77612 0.22217 0.97895 0.0
H460 H 0.79132 0.3012 0.97317 0.0
H461 H 0.91441 0.30049 0.95785 0.0
H462 H 0.96036 0.37643 0.98101 0.0
H463 H 0.66961 0.11044 0.92795 0.0
H464 H 0.74827 0.15097 0.99662 0.0
H465 H 0.8371 0.37683 0.99626 0.0
H466 H 0.60059 0.06263 0.94666 0.0
H467 H 0.67861 0.10407 0.01565 0.0
C468 C 0.62135 0.84707 0.16992 0.0
C469 C 0.649 0.8287 0.17714 0.0
C470 C 0.60595 0.84247 0.14584 0.0
C471 C 0.61786 0.81941 0.12845 0.0
C472 C 0.64752 0.80341 0.13552 0.0
C473 C 0.66272 0.80781 0.15951 0.0
C474 C 0.5963 0.80804 0.10347 0.0
C475 C 0.59052 0.84069 0.0912 0.0
C476 C 0.56901 0.8286 0.06773 0.0
C477 C 0.55224 0.78317 0.05707 0.0
C478 C 0.55798 0.75058 0.06894 0.0
C479 C 0.58014 0.7632 0.09202 0.0
C480 C 0.54113 0.70352 0.05682 0.0
C481 C 0.49677 0.67822 0.04517 0.0
C482 C 0.57016 0.68491 0.05554 0.0
C483 C 0.55559 0.64247 0.04208 0.0
C484 C 0.51154 0.61771 0.03004 0.0
C485 C 0.56282 0.86219 0.05399 0.0
C486 C 0.54961 0.89223 0.06483 0.0
C487 C 0.56616 0.8613 0.02919 0.0
C488 C 0.55323 0.88683 0.01536 0.0
C489 C 0.53808 0.91502 0.02606 0.0
C490 C 0.53758 0.91864 0.05094 0.0
C491 C 0.48207 0.63564 0.03195 0.0
H492 H 0.61072 0.86409 0.18293 0.0
H493 H 0.58308 0.85511 0.141 0.0
H494 H 0.65796 0.78613 0.12253 0.0
H495 H 0.68359 0.79285 0.16428 0.0
H496 H 0.6036 0.87556 0.09969 0.0
H497 H 0.58346 0.73739 0.10134 0.0
H498 H 0.53458 0.77288 0.03928 0.0
H499 H 0.47363 0.69169 0.04606 0.0
H500 H 0.60467 0.704 0.06419 0.0
H501 H 0.57916 0.62964 0.04065 0.0
H502 H 0.54635 0.89362 0.08381 0.0
H503 H 0.57751 0.83969 0.02028 0.0
H504 H 0.44789 0.61716 0.02288 0.0
H505 H 0.52546 0.93982 0.05946 0.0
H506 H 0.55437 0.88391 0.99621 0.0
C507 C 0.20295 0.84992 0.16974 0.0
C508 C 0.18329 0.81065 0.18264 0.0
C509 C 0.21468 0.84655 0.14653 0.0
C510 C 0.20652 0.80372 0.13564 0.0
C511 C 0.18846 0.76494 0.14888 0.0
C512 C 0.1771 0.76838 0.17208 0.0
C513 C 0.21316 0.79818 0.11002 0.0
C514 C 0.2535 0.82983 0.10036 0.0
C515 C 0.25918 0.82363 0.07602 0.0
C516 C 0.22341 0.78553 0.0616 0.0
C517 C 0.1833 0.75329 0.07095 0.0
C518 C 0.17836 0.76032 0.09512 0.0
C519 C 0.14804 0.71095 0.05568 0.0
C520 C 0.13967 0.71249 0.03112 0.0
C521 C 0.12497 0.66778 0.06517 0.0
C522 C 0.09569 0.6272 0.05036 0.0
C523 C 0.08954 0.6288 0.02577 0.0
C524 C 0.30212 0.85591 0.0653 0.0
C525 C 0.32788 0.90361 0.07342 0.0
C526 C 0.31703 0.83929 0.04614 0.0
C527 C 0.35484 0.86952 0.03474 0.0
C528 C 0.38005 0.91689 0.04278 0.0
C529 C 0.36684 0.93361 0.0625 0.0
C530 C 0.11132 0.67168 0.01626 0.0
H531 H 0.20869 0.88315 0.17748 0.0
H532 H 0.22842 0.87698 0.13677 0.0
H533 H 0.18219 0.73154 0.14106 0.0
H534 H 0.16181 0.73738 0.1814 0.0
H535 H 0.28077 0.85827 0.112 0.0
H536 H 0.14695 0.73651 0.10238 0.0
H537 H 0.227 0.7804 0.04292 0.0
H538 H 0.1557 0.7451 0.02321 0.0
H539 H 0.13101 0.66482 0.08383 0.0
H540 H 0.07987 0.59423 0.05793 0.0
H541 H 0.31765 0.9181 0.08791 0.0
H542 H 0.29981 0.80268 0.03987 0.0
H543 H 0.1067 0.67358 0.9973 0.0
H544 H 0.38614 0.9701 0.06916 0.0
H545 H 0.36513 0.85556 0.02001 0.0
C546 C 0.21723 0.37435 0.17649 0.0
C547 C 0.17161 0.34508 0.18124 0.0
C548 C 0.22771 0.38876 0.15365 0.0
C549 C 0.19278 0.37446 0.13506 0.0
C550 C 0.14742 0.34421 0.13968 0.0
C551 C 0.13698 0.32985 0.1624 0.0
C552 C 0.20268 0.39247 0.11119 0.0
C553 C 0.24011 0.39624 0.09969 0.0
C554 C 0.24798 0.4121 0.07684 0.0
C555 C 0.21751 0.42353 0.06553 0.0
C556 C 0.18069 0.42136 0.07692 0.0
C557 C 0.17405 0.4062 0.09986 0.0
C558 C 0.14959 0.43542 0.06504 0.0
C559 C 0.16572 0.46989 0.04898 0.0
C560 C 0.10335 0.41458 0.06967 0.0
C561 C 0.07456 0.42838 0.05897 0.0
C562 C 0.09079 0.46201 0.04274 0.0
C563 C 0.28938 0.41981 0.06514 0.0
C564 C 0.33207 0.44052 0.07853 0.0
C565 C 0.28742 0.4106 0.04024 0.0
C566 C 0.32737 0.42383 0.02894 0.0
C567 C 0.37022 0.44633 0.04228 0.0
C568 C 0.37187 0.45351 0.06728 0.0
C569 C 0.13639 0.48236 0.03763 0.0
H570 H 0.24488 0.38637 0.19047 0.0
H571 H 0.26299 0.41219 0.15074 0.0
H572 H 0.11969 0.33197 0.12572 0.0
H573 H 0.10143 0.30783 0.16532 0.0
H574 H 0.26263 0.38615 0.10834 0.0
H575 H 0.14706 0.40605 0.10935 0.0
H576 H 0.22317 0.43509 0.04789 0.0
H577 H 0.20118 0.48793 0.04533 0.0
H578 H 0.08896 0.38715 0.08134 0.0
H579 H 0.03925 0.41198 0.06298 0.0
H580 H 0.33507 0.44862 0.09765 0.0
H581 H 0.255 0.39389 0.02939 0.0
H582 H 0.14963 0.5088 0.02531 0.0
H583 H 0.40413 0.47044 0.07828 0.0
H584 H 0.32467 0.41723 0.00973 0.0
C585 C 0.48699 0.94133 0.17896 0.0
C586 C 0.48548 0.98069 0.17265 0.0
C587 C 0.47609 0.92582 0.20146 0.0
C588 C 0.46292 0.94895 0.21813 0.0
C589 C 0.45929 0.98698 0.21149 0.0
C590 C 0.4708 0.00293 0.18902 0.0
C591 C 0.45734 0.93593 0.24299 0.0
C592 C 0.49168 0.93135 0.25527 0.0
C593 C 0.48777 0.91863 0.27862 0.0
C594 C 0.44939 0.91171 0.28999 0.0
C595 C 0.41358 0.91466 0.27798 0.0
C596 C 0.41827 0.92744 0.25439 0.0
C597 C 0.37113 0.90261 0.29003 0.0
C598 C 0.35685 0.87027 0.30726 0.0
C599 C 0.34444 0.92304 0.28466 0.0
C600 C 0.30489 0.91132 0.29608 0.0
C601 C 0.29204 0.88024 0.31368 0.0
C602 C 0.52189 0.90891 0.29047 0.0
C603 C 0.53893 0.88471 0.27733 0.0
C604 C 0.53558 0.92098 0.31507 0.0
C605 C 0.5648 0.90813 0.32631 0.0
C606 C 0.58113 0.88324 0.31314 0.0
C607 C 0.56827 0.87223 0.28847 0.0
C608 C 0.31843 0.86005 0.31926 0.0
H609 H 0.4984 0.92358 0.16685 0.0
H610 H 0.47898 0.89625 0.20606 0.0
H611 H 0.44944 0.00556 0.22402 0.0
H612 H 0.46885 0.03307 0.18458 0.0
H613 H 0.52184 0.93802 0.24658 0.0
H614 H 0.39111 0.92924 0.24447 0.0
H615 H 0.44707 0.90275 0.30816 0.0
H616 H 0.37474 0.85193 0.31138 0.0
H617 H 0.35415 0.94842 0.27183 0.0
H618 H 0.28468 0.9271 0.29142 0.0
H619 H 0.5285 0.87403 0.25847 0.0
H620 H 0.52354 0.94015 0.32567 0.0
H621 H 0.30845 0.83508 0.33237 0.0
H622 H 0.57999 0.85296 0.2777 0.0
H623 H 0.57435 0.9175 0.3453 0.0
C624 C 0.0279 0.48626 0.18961 0.0
C625 C 0.04584 0.52481 0.1762 0.0
C626 C 0.04404 0.49109 0.21356 0.0
C627 C 0.07806 0.53466 0.2246 0.0
C628 C 0.09678 0.57285 0.21099 0.0
C629 C 0.08094 0.56798 0.18707 0.0
C630 C 0.09315 0.5412 0.25042 0.0
C631 C 0.10394 0.51013 0.26084 0.0
C632 C 0.12158 0.51911 0.28485 0.0
C633 C 0.12745 0.5586 0.2985 0.0
C634 C 0.11526 0.58903 0.28872 0.0
C635 C 0.09802 0.57988 0.26462 0.0
C636 C 0.12213 0.631 0.30353 0.0
C637 C 0.1166 0.62979 0.32811 0.0
C638 C 0.13627 0.67323 0.29351 0.0
C639 C 0.14546 0.71321 0.30778 0.0
C640 C 0.1414 0.712 0.33233 0.0
C641 C 0.13561 0.48872 0.29609 0.0
C642 C 0.10357 0.44215 0.29863 0.0
C643 C 0.18026 0.50818 0.307 0.0
C644 C 0.19226 0.48225 0.32103 0.0
C645 C 0.15981 0.4364 0.32457 0.0
C646 C 0.11552 0.41621 0.31295 0.0
C647 C 0.12684 0.67009 0.34241 0.0
H648 H 1.00112 0.45244 0.18164 0.0
H649 H 0.02898 0.46108 0.22362 0.0
H650 H 0.12349 0.60676 0.21894 0.0
H651 H 0.09523 0.59841 0.17731 0.0
H652 H 0.10047 0.48024 0.25012 0.0
H653 H 0.08791 0.60267 0.25683 0.0
H654 H 0.14216 0.56575 0.31684 0.0
H655 H 0.10476 0.5978 0.33642 0.0
H656 H 0.14191 0.67599 0.27482 0.0
H657 H 0.15792 0.74563 0.29985 0.0
H658 H 0.06878 0.4267 0.2906 0.0
H659 H 0.2055 0.54405 0.30527 0.0
H660 H 0.12346 0.66852 0.36137 0.0
H661 H 0.08969 0.38113 0.31568 0.0
H662 H 0.22672 0.49861 0.32967 0.0
C663 C 0.45569 0.49206 0.18274 0.0
C664 C 0.50145 0.51189 0.17741 0.0
C665 C 0.44515 0.49456 0.20629 0.0
C666 C 0.48013 0.51692 0.22506 0.0
C667 C 0.52564 0.53447 0.21986 0.0
C668 C 0.53617 0.53216 0.19639 0.0
C669 C 0.46997 0.52602 0.24955 0.0
C670 C 0.4321 0.49217 0.2601 0.0
C671 C 0.42228 0.50233 0.28297 0.0
C672 C 0.45048 0.54686 0.29495 0.0
C673 C 0.4879 0.58095 0.28463 0.0
C674 C 0.49763 0.57024 0.26209 0.0
C675 C 0.51602 0.62817 0.29728 0.0
C676 C 0.49486 0.65063 0.30808 0.0
C677 C 0.56396 0.65051 0.29924 0.0
C678 C 0.59018 0.69387 0.31246 0.0
C679 C 0.56884 0.71565 0.32373 0.0
C680 C 0.38118 0.46824 0.29407 0.0
C681 C 0.339 0.44189 0.28034 0.0
C682 C 0.38282 0.46507 0.31887 0.0
C683 C 0.34292 0.43807 0.32981 0.0
C684 C 0.30046 0.41334 0.31617 0.0
C685 C 0.29923 0.41476 0.29122 0.0
C686 C 0.52104 0.69396 0.32117 0.0
H687 H 0.42796 0.47543 0.16866 0.0
H688 H 0.40975 0.48081 0.20964 0.0
H689 H 0.5534 0.5513 0.23393 0.0
H690 H 0.5718 0.54818 0.1931 0.0
H691 H 0.41063 0.45795 0.25063 0.0
H692 H 0.52581 0.59719 0.25389 0.0
H693 H 0.44279 0.5555 0.31228 0.0
H694 H 0.45799 0.63454 0.30651 0.0
H695 H 0.58108 0.63383 0.29118 0.0
H696 H 0.62703 0.70977 0.31434 0.0
H697 H 0.33629 0.44377 0.26128 0.0
H698 H 0.41494 0.48431 0.32996 0.0
H699 H 0.50377 0.71016 0.32959 0.0
H700 H 0.26726 0.39596 0.28 0.0
H701 H 0.34528 0.4374 0.34898 0.0
C702 C 0.55538 0.0552 0.08418 0.0
Eu703 Eu 0.52955 0.03362 0.03875 0.0
C704 C 0.53681 0.03563 0.1065 0.0
C705 C 0.54914 0.06537 0.1276 0.0
C706 C 0.53162 0.04767 0.14893 0.0
C707 C 0.50159 0.99975 0.14961 0.0
C708 C 0.48886 0.97007 0.12833 0.0
C709 C 0.50601 0.98789 0.10695 0.0
C710 C 0.50553 0.07835 1.00823 0.0
C711 C 0.42144 0.94801 0.03145 0.0
C712 C 0.44638 0.96492 0.94213 0.0
Eu713 Eu 0.48054 0.97885 0.98629 0.0
C714 C 0.46418 0.97605 0.91855 0.0
C715 C 0.44254 0.94301 0.89869 0.0
C716 C 0.45675 0.95403 0.87594 0.0
C717 C 0.49286 0.99853 0.87248 0.0
C718 C 0.51547 0.03109 0.89259 0.0
C719 C 0.50132 0.01997 0.91536 0.0
C720 C 0.51961 0.93744 0.01098 0.0
C721 C 0.59053 0.0541 0.99418 0.0
O722 O 0.56832 0.03171 0.07026 0.0
O723 O 0.53323 0.07167 0.07235 0.0
O724 O 0.54104 0.0993 0.02385 0.0
O725 O 0.48269 0.03529 0.01049 0.0
O726 O 0.45825 0.9779 0.04576 0.0
O727 O 0.42037 0.94333 1.00785 0.0
O728 O 0.45366 1.00018 0.95697 0.0
O729 O 0.45184 0.93383 0.95266 0.0
O730 O 0.49925 0.9215 0.98953 0.0
O731 O 0.51799 0.97324 0.01679 0.0
O732 O 0.55226 0.03245 0.9797 0.0
O733 O 0.59127 0.05487 0.01784 0.0
H734 H 0.57254 0.10235 0.1276 0.0
H735 H 0.54246 0.07139 0.16503 0.0
H736 H 0.46543 0.93308 0.12821 0.0
H737 H 0.4952 0.96438 0.0908 0.0
H738 H 0.41403 0.90885 0.90072 0.0
H739 H 0.43906 0.92773 0.861 0.0
H740 H 0.54308 0.0658 0.89067 0.0
H741 H 0.51879 0.04616 0.93038 0.0
C742 C 0.9686 0.51637 0.08106 0.0
Eu743 Eu 0.97925 0.50266 0.03658 0.0
C744 C 0.9893 0.51796 0.10496 0.0
C745 C 0.96061 0.49548 0.12262 0.0
C746 C 0.97902 0.49677 0.14557 0.0
C747 C 0.02658 0.52084 0.15134 0.0
C748 C 0.05534 0.54285 0.1335 0.0
C749 C 0.03687 0.54125 0.11047 0.0
C750 C 0.92912 0.42619 1.00584 0.0
C751 C 0.06016 0.47588 0.03133 0.0
C752 C 0.0201 0.47166 0.94157 0.0
Eu753 Eu 0.01798 0.49934 0.98527 0.0
C754 C 0.01194 0.48226 0.91733 0.0
C755 C 0.04506 0.49305 0.90117 0.0
C756 C 0.03634 0.49936 0.87758 0.0
C757 C 0.99404 0.49458 0.86957 0.0
C758 C 0.96155 0.4854 0.88608 0.0
C759 C 0.97043 0.47944 0.90968 0.0
C760 C 0.06329 0.58551 0.00995 0.0
C761 C 0.94407 0.53448 0.99142 0.0
O762 O 0.99258 0.55033 0.06807 0.0
O763 O 0.9467 0.47548 0.06871 0.0
O764 O 0.91136 0.44323 0.02035 0.0
O765 O 0.97219 0.44877 1.00904 0.0
O766 O 0.03575 0.48664 0.04528 0.0
O767 O 0.05759 0.47558 1.00779 0.0
O768 O 0.98428 0.45101 0.95362 0.0
O769 O 0.0568 0.50354 0.9548 0.0
O770 O 0.0731 0.57735 0.98887 0.0
O771 O 0.03067 0.54856 0.01527 0.0
O772 O 0.96188 0.51566 0.97731 0.0
O773 O 0.95067 0.53884 0.01506 0.0
H774 H 0.92382 0.47722 0.1187 0.0
H775 H 0.95595 0.47997 0.15896 0.0
H776 H 0.09213 0.56127 0.13735 0.0
H777 H 0.05977 0.55841 0.09707 0.0
H778 H 0.0774 0.49565 0.90666 0.0
H779 H 0.06251 0.50722 0.86552 0.0
H780 H 0.92841 0.48086 0.88059 0.0
H781 H 0.94417 0.47132 0.92173 0.0
C782 C 0.4446 0.47954 0.94014 0.0
Eu783 Eu 0.47241 0.49737 0.9854 0.0
C784 C 0.46417 0.47926 0.91731 0.0
C785 C 0.45804 0.50267 0.89891 0.0
C786 C 0.47597 0.50295 0.8771 0.0
C787 C 0.50027 0.47954 0.87312 0.0
C788 C 0.50681 0.45649 0.89168 0.0
C789 C 0.48912 0.4565 0.91358 0.0
C790 C 0.49682 0.57448 0.01462 0.0
C791 C 0.58312 0.53333 0.99186 0.0
C792 C 0.55809 0.53969 0.08164 0.0
Eu793 Eu 0.52499 0.50842 0.0376 0.0
C794 C 0.54126 0.52892 0.10548 0.0
C795 C 0.56517 0.5185 0.12273 0.0
C796 C 0.55132 0.5112 0.1458 0.0
C797 C 0.51338 0.51455 0.15221 0.0
C798 C 0.48874 0.5237 0.13464 0.0
C799 C 0.50242 0.53068 0.11157 0.0
C800 C 0.48884 0.42171 0.01424 0.0
C801 C 0.41336 0.46398 0.03056 0.0
O802 O 0.43858 0.44716 0.95407 0.0
O803 O 0.46013 0.52045 0.95194 0.0
O804 O 0.46011 0.55441 0.99974 0.0
O805 O 0.52002 0.55462 0.0124 0.0
O806 O 0.54506 0.51876 0.97771 0.0
O807 O 0.585 0.53527 0.01549 0.0
O808 O 0.53964 0.55787 0.06821 0.0
O809 O 0.56476 0.50899 0.06958 0.0
O810 O 0.51085 0.43292 0.03535 0.0
O811 O 0.48712 0.4562 1.00822 0.0
O812 O 0.45209 0.48549 0.04471 0.0
O813 O 0.41191 0.45921 1.00688 0.0
H814 H 0.43902 0.52055 0.90137 0.0
H815 H 0.46975 0.52052 0.86311 0.0
H816 H 0.52573 0.4385 0.8893 0.0
H817 H 0.49489 0.43857 0.92749 0.0
H818 H 0.59507 0.51672 0.11847 0.0
H819 H 0.57072 0.50346 0.15869 0.0
H820 H 0.45978 0.52721 0.13889 0.0
H821 H 0.48307 0.53853 0.0987 0.0
C822 C 0.22206 0.38853 0.41751 0.0
Eu823 Eu 0.19622 0.36695 0.37208 0.0
C824 C 0.20349 0.36896 0.43984 0.0
C825 C 0.21581 0.3987 0.46093 0.0
C826 C 0.19829 0.38101 0.48226 0.0
C827 C 0.16826 0.33308 0.48294 0.0
C828 C 0.15553 0.3034 0.46166 0.0
C829 C 0.17268 0.32122 0.44028 0.0
C830 C 0.1722 0.41168 0.34156 0.0
C831 C 0.08811 0.28134 0.36478 0.0
C832 C 0.11306 0.29825 0.27546 0.0
Eu833 Eu 0.14722 0.31218 0.31962 0.0
C834 C 0.13085 0.30938 0.25188 0.0
C835 C 0.10921 0.27635 0.23203 0.0
C836 C 0.12343 0.28736 0.20927 0.0
C837 C 0.15953 0.33187 0.20581 0.0
C838 C 0.18214 0.36443 0.22592 0.0
C839 C 0.168 0.35331 0.2487 0.0
C840 C 0.18628 0.27077 0.34432 0.0
C841 C 0.2572 0.38744 0.32752 0.0
O842 O 0.23499 0.36504 0.40359 0.0
O843 O 0.19991 0.405 0.40569 0.0
O844 O 0.20772 0.43263 0.35719 0.0
O845 O 0.14936 0.36862 0.34383 0.0
O846 O 0.12493 0.31123 0.37909 0.0
O847 O 0.08705 0.27666 0.34118 0.0
O848 O 0.12033 0.33351 0.2903 0.0
O849 O 0.11852 0.26716 0.28599 0.0
O850 O 0.16592 0.25483 0.32287 0.0
O851 O 0.18466 0.30657 0.35013 0.0
O852 O 0.21893 0.36578 0.31304 0.0
O853 O 0.25794 0.38821 0.35118 0.0
H854 H 0.23921 0.43569 0.46094 0.0
H855 H 0.20913 0.40472 0.49836 0.0
H856 H 0.1321 0.26641 0.46154 0.0
H857 H 0.16187 0.29771 0.42414 0.0
H858 H 0.0807 0.24218 0.23405 0.0
H859 H 0.10573 0.26107 0.19433 0.0
H860 H 0.20975 0.39914 0.22401 0.0
H861 H 0.18546 0.37949 0.26372 0.0
C862 C 0.63527 0.84971 0.41439 0.0
Eu863 Eu 0.64592 0.836 0.36991 0.0
C864 C 0.65597 0.8513 0.43829 0.0
C865 C 0.62728 0.82882 0.45595 0.0
C866 C 0.64569 0.83011 0.4789 0.0
C867 C 0.69325 0.85418 0.48467 0.0
C868 C 0.72201 0.87619 0.46683 0.0
C869 C 0.70354 0.87459 0.4438 0.0
C870 C 0.59579 0.75953 0.33917 0.0
C871 C 0.72682 0.80921 0.36466 0.0
C872 C 0.68677 0.805 0.2749 0.0
Eu873 Eu 0.68465 0.83267 0.3186 0.0
C874 C 0.67861 0.81561 0.25066 0.0
C875 C 0.71173 0.8264 0.2345 0.0
C876 C 0.70301 0.83271 0.21092 0.0
C877 C 0.66072 0.82793 0.2029 0.0
C878 C 0.62823 0.81874 0.21941 0.0
C879 C 0.6371 0.81278 0.24301 0.0
C880 C 0.72996 0.91885 0.34329 0.0
C881 C 0.61074 0.86781 0.32475 0.0
O882 O 0.65925 0.88366 0.4014 0.0
O883 O 0.61337 0.80882 0.40204 0.0
O884 O 0.57803 0.77656 0.35369 0.0
O885 O 0.63886 0.78211 0.34237 0.0
O886 O 0.70242 0.81998 0.37861 0.0
O887 O 0.72426 0.80891 0.34112 0.0
O888 O 0.65095 0.78435 0.28695 0.0
O889 O 0.72347 0.83688 0.28814 0.0
O890 O 0.73976 0.91069 0.3222 0.0
O891 O 0.69734 0.8819 0.3486 0.0
O892 O 0.62854 0.84899 0.31064 0.0
O893 O 0.61733 0.87217 0.34839 0.0
H894 H 0.59049 0.81056 0.45204 0.0
H895 H 0.62262 0.81331 0.4923 0.0
H896 H 0.7588 0.89461 0.47069 0.0
H897 H 0.72644 0.89175 0.4304 0.0
H898 H 0.74407 0.829 0.24 0.0
H899 H 0.72919 0.84057 0.19886 0.0
H900 H 0.59508 0.81421 0.21392 0.0
H901 H 0.61085 0.80466 0.25506 0.0
C902 C 0.11126 0.81286 0.27348 0.0
Eu903 Eu 0.13907 0.83069 0.31873 0.0
C904 C 0.13083 0.81258 0.25064 0.0
C905 C 0.1247 0.83599 0.23225 0.0
C906 C 0.14263 0.83627 0.21043 0.0
C907 C 0.16693 0.81287 0.20645 0.0
C908 C 0.17347 0.78982 0.22502 0.0
C909 C 0.15578 0.78982 0.24691 0.0
C910 C 0.16347 0.90781 0.34795 0.0
C911 C 0.24978 0.86665 0.3252 0.0
C912 C 0.22475 0.87302 0.41497 0.0
Eu913 Eu 0.19165 0.84174 0.37094 0.0
C914 C 0.20792 0.86224 0.43881 0.0
C915 C 0.23183 0.85182 0.45606 0.0
C916 C 0.21798 0.84453 0.47913 0.0
C917 C 0.18005 0.84787 0.48554 0.0
C918 C 0.1554 0.85702 0.46797 0.0
C919 C 0.16908 0.86401 0.44491 0.0
C920 C 0.1555 0.75504 0.34758 0.0
C921 C 0.08002 0.7973 0.36389 0.0
O922 O 0.10524 0.78048 0.28741 0.0
O923 O 0.12679 0.85377 0.28527 0.0
O924 O 0.12677 0.88773 0.33307 0.0
O925 O 0.18668 0.88794 0.34573 0.0
O926 O 0.21171 0.85209 0.31104 0.0
O927 O 0.25166 0.86859 0.34882 0.0
O928 O 0.2063 0.89119 0.40155 0.0
O929 O 0.23142 0.84231 0.40291 0.0
O930 O 0.17751 0.76624 0.36869 0.0
O931 O 0.15378 0.78953 0.34155 0.0
O932 O 0.11875 0.81881 0.37804 0.0
O933 O 0.07857 0.79253 0.34021 0.0
H934 H 0.10568 0.85387 0.2347 0.0
H935 H 0.13641 0.85384 0.19645 0.0
H936 H 0.1924 0.77183 0.22264 0.0
H937 H 0.16155 0.7719 0.26082 0.0
H938 H 0.26173 0.85004 0.4518 0.0
H939 H 0.23738 0.83679 0.49202 0.0
H940 H 0.12645 0.86054 0.47222 0.0
H941 H 0.14973 0.87186 0.43203 0.0
C942 C 0.88872 0.72186 0.75085 0.0
Eu943 Eu 0.86289 0.70028 0.70541 0.0
C944 C 0.87015 0.70229 0.77317 0.0
C945 C 0.88248 0.73203 0.79427 0.0
C946 C 0.86496 0.71434 0.8156 0.0
C947 C 0.83493 0.66642 0.81627 0.0
C948 C 0.8222 0.63674 0.795 0.0
C949 C 0.83935 0.65456 0.77361 0.0
C950 C 0.83887 0.74501 0.67489 0.0
C951 C 0.75478 0.61468 0.69811 0.0
C952 C 0.77972 0.63158 0.6088 0.0
Eu953 Eu 0.81388 0.64551 0.65295 0.0
C954 C 0.79751 0.64271 0.58521 0.0
C955 C 0.77587 0.60967 0.56536 0.0
C956 C 0.79008 0.62069 0.5426 0.0
C957 C 0.82619 0.66519 0.53914 0.0
C958 C 0.8488 0.69776 0.55925 0.0
C959 C 0.83466 0.68663 0.58203 0.0
C960 C 0.85294 0.6041 0.67765 0.0
C961 C 0.92386 0.72076 0.66085 0.0
O962 O 0.90166 0.69837 0.73692 0.0
O963 O 0.86657 0.73833 0.73902 0.0
O964 O 0.87438 0.76596 0.69052 0.0
O965 O 0.81603 0.70195 0.67716 0.0
O966 O 0.79159 0.64457 0.71243 0.0
O967 O 0.75371 0.60999 0.67452 0.0
O968 O 0.78699 0.66684 0.62364 0.0
O969 O 0.78518 0.60049 0.61932 0.0
O970 O 0.83258 0.58816 0.6562 0.0
O971 O 0.85133 0.6399 0.68346 0.0
O972 O 0.88559 0.69911 0.64637 0.0
O973 O 0.92461 0.72153 0.68451 0.0
H974 H 0.90588 0.76902 0.79427 0.0
H975 H 0.8758 0.73806 0.83169 0.0
H976 H 0.79877 0.59975 0.79488 0.0
H977 H 0.82853 0.63104 0.75747 0.0
H978 H 0.74736 0.57551 0.56739 0.0
H979 H 0.77239 0.5944 0.52766 0.0
H980 H 0.87641 0.73247 0.55734 0.0
H981 H 0.85212 0.71282 0.59705 0.0
C982 C 0.30193 0.18304 0.74772 0.0
Eu983 Eu 0.31259 0.16933 0.70325 0.0
C984 C 0.32263 0.18463 0.77163 0.0
C985 C 0.29394 0.16215 0.78928 0.0
C986 C 0.31235 0.16344 0.81223 0.0
C987 C 0.35991 0.18751 0.81801 0.0
C988 C 0.38868 0.20952 0.80017 0.0
C989 C 0.37021 0.20792 0.77713 0.0
C990 C 0.26246 0.09286 0.67251 0.0
C991 C 0.39349 0.14254 0.69799 0.0
C992 C 0.35344 0.13833 0.60823 0.0
Eu993 Eu 0.35132 0.166 0.65193 0.0
C994 C 0.34527 0.14893 0.584 0.0
C995 C 0.3784 0.15972 0.56784 0.0
C996 C 0.36967 0.16603 0.54425 0.0
C997 C 0.32738 0.16125 0.53624 0.0
C998 C 0.29489 0.15207 0.55274 0.0
C999 C 0.30376 0.1461 0.57635 0.0
C1000 C 0.39662 0.25217 0.67662 0.0
C1001 C 0.27741 0.20114 0.65809 0.0
O1002 O 0.32591 0.21699 0.73473 0.0
O1003 O 0.28004 0.14215 0.73538 0.0
O1004 O 0.2447 0.10989 0.68702 0.0
O1005 O 0.30553 0.11544 0.67571 0.0
O1006 O 0.36908 0.15331 0.71195 0.0
O1007 O 0.39093 0.14224 0.67445 0.0
O1008 O 0.31762 0.11767 0.62028 0.0
O1009 O 0.39014 0.17021 0.62147 0.0
O1010 O 0.40643 0.24402 0.65554 0.0
O1011 O 0.36401 0.21522 0.68194 0.0
O1012 O 0.29521 0.18232 0.64398 0.0
O1013 O 0.284 0.2055 0.68172 0.0
H1014 H 0.25715 0.14389 0.78537 0.0
H1015 H 0.28929 0.14664 0.82563 0.0
H1016 H 0.42547 0.22795 0.80402 0.0
H1017 H 0.3931 0.22508 0.76374 0.0
H1018 H 0.41073 0.16232 0.57333 0.0
H1019 H 0.39585 0.17389 0.53219 0.0
H1020 H 0.26175 0.14753 0.54725 0.0
H1021 H 0.27751 0.13799 0.58839 0.0
C1022 C 0.77793 0.1462 0.60681 0.0
Eu1023 Eu 0.80574 0.16402 0.65207 0.0
C1024 C 0.7975 0.14591 0.58398 0.0
C1025 C 0.79137 0.16933 0.56558 0.0
C1026 C 0.8093 0.16961 0.54376 0.0
C1027 C 0.8336 0.14621 0.53979 0.0
C1028 C 0.84014 0.12315 0.55835 0.0
C1029 C 0.82245 0.12316 0.58024 0.0
C1030 C 0.83014 0.24114 0.68128 0.0
C1031 C 0.91645 0.19999 0.65853 0.0
C1032 C 0.89142 0.20635 0.74831 0.0
Eu1033 Eu 0.85832 0.17507 0.70427 0.0
C1034 C 0.87459 0.19558 0.77214 0.0
C1035 C 0.8985 0.18516 0.78939 0.0
C1036 C 0.88465 0.17787 0.81246 0.0
C1037 C 0.84671 0.18121 0.81887 0.0
C1038 C 0.82207 0.19036 0.80131 0.0
C1039 C 0.83574 0.19734 0.77824 0.0
C1040 C 0.82218 0.08837 0.68091 0.0
C1041 C 0.74669 0.13063 0.69722 0.0
O1042 O 0.77191 0.11382 0.62074 0.0
O1043 O 0.79346 0.1871 0.61861 0.0
O1044 O 0.79344 0.22106 0.6664 0.0
O1045 O 0.85334 0.22128 0.67906 0.0
O1046 O 0.87838 0.18542 0.64438 0.0
O1047 O 0.91833 0.20193 0.68216 0.0
O1048 O 0.87297 0.22453 0.73488 0.0
O1049 O 0.89809 0.17565 0.73625 0.0
O1050 O 0.84418 0.09958 0.70202 0.0
O1051 O 0.82045 0.12286 0.67488 0.0
O1052 O 0.78542 0.15215 0.71138 0.0
O1053 O 0.74524 0.12587 0.67354 0.0
H1054 H 0.77235 0.18721 0.56804 0.0
H1055 H 0.80309 0.18718 0.52978 0.0
H1056 H 0.85907 0.10517 0.55597 0.0
H1057 H 0.82822 0.10523 0.59415 0.0
H1058 H 0.9284 0.18338 0.78514 0.0
H1059 H 0.90404 0.17012 0.82535 0.0
H1060 H 0.79311 0.19388 0.80555 0.0
H1061 H 0.81639 0.2052 0.76537 0.0
loop_
_geom_bond_atom_site_label_1
_geom_bond_atom_site_label_2
_geom_bond_distance
_geom_bond_site_symmetry_2
_ccdc_geom_bond_type
C0 C1 1.386 . S
C0 C2 1.397 . S
C0 H24 0.931 . S
C1 C0 1.386 . S
C1 C5 1.397 . S
C2 C0 1.397 . S
C2 C3 1.384 . S
C2 H25 0.930 . S
C3 C2 1.384 . S
C3 C4 1.377 . S
C3 C6 1.481 . S
C4 C3 1.377 . S
C4 C5 1.389 . S
C4 H26 0.929 . S
C5 C1 1.397 . S
C5 C4 1.389 . S
C5 H27 0.931 . S
C6 C3 1.481 . S
C6 C7 1.387 . S
C6 C11 1.390 . S
C7 C6 1.387 . S
C7 C8 1.401 . S
C7 H28 0.930 . S
C8 C7 1.401 . S
C8 C9 1.376 . S
C8 C17 1.511 . S
C9 C8 1.376 . S
C9 C10 1.392 . S
C9 H30 0.931 . S
C10 C9 1.392 . S
C10 C11 1.361 . S
C10 C12 1.500 . S
C11 C6 1.390 . S
C11 C10 1.361 . S
C11 H29 0.931 . S
C12 C10 1.500 . S
C12 C13 1.371 . S
C12 C14 1.365 . S
C13 C12 1.371 . S
C13 C23 1.386 . S
C13 H31 0.931 . S
C14 C12 1.365 . S
C14 C15 1.409 . S
C14 H32 0.929 . S
C15 C14 1.409 . S
C15 C16 1.380 1_545 S
C15 H33 0.930 . S
C16 C15 1.380 1_565 S
C16 C23 1.357 1_565 S
C17 C8 1.511 . S
C17 C18 1.341 . S
C17 C19 1.371 . S
C18 C17 1.341 . S
C18 C22 1.394 . S
C18 H34 0.930 . S
C19 C17 1.371 . S
C19 C20 1.392 . S
C19 H35 0.931 . S
C20 C19 1.392 . S
C20 C21 1.331 . S
C20 H38 0.932 . S
C21 C20 1.331 . S
C21 C22 1.336 . S
C22 C18 1.394 . S
C22 C21 1.336 . S
C22 H37 0.929 . S
C23 C13 1.386 . S
C23 C16 1.357 1_545 S
C23 H36 0.928 . S
H24 C0 0.931 . S
H25 C2 0.930 . S
H26 C4 0.929 . S
H27 C5 0.931 . S
H28 C7 0.930 . S
H29 C11 0.931 . S
H30 C9 0.931 . S
H31 C13 0.931 . S
H32 C14 0.929 . S
H33 C15 0.930 . S
H34 C18 0.930 . S
H35 C19 0.931 . S
H36 C23 0.928 . S
H37 C22 0.929 . S
H38 C20 0.932 . S
C39 C40 1.386 . S
C39 C41 1.397 . S
C39 H63 0.931 . S
C40 C39 1.386 . S
C40 C44 1.397 . S
C41 C39 1.397 . S
C41 C42 1.384 . S
C41 H64 0.930 . S
C42 C41 1.384 . S
C42 C43 1.377 . S
C42 C45 1.481 . S
C43 C42 1.377 . S
C43 C44 1.389 . S
C43 H65 0.929 . S
C44 C40 1.397 . S
C44 C43 1.389 . S
C44 H66 0.931 . S
C45 C42 1.481 . S
C45 C46 1.387 . S
C45 C50 1.390 . S
C46 C45 1.387 . S
C46 C47 1.401 . S
C46 H67 0.930 . S
C47 C46 1.401 . S
C47 C48 1.376 . S
C47 C56 1.511 . S
C48 C47 1.376 . S
C48 C49 1.392 . S
C48 H69 0.931 . S
C49 C48 1.392 . S
C49 C50 1.361 . S
C49 C51 1.500 . S
C50 C45 1.390 . S
C50 C49 1.361 . S
C50 H68 0.931 . S
C51 C49 1.500 . S
C51 C52 1.371 . S
C51 C53 1.365 . S
C52 C51 1.371 . S
C52 C62 1.386 . S
C52 H70 0.931 . S
C53 C51 1.365 . S
C53 C54 1.409 1_545 S
C53 H71 0.929 . S
C54 C53 1.409 1_565 S
C54 C55 1.380 . S
C54 H72 0.930 . S
C55 C54 1.380 . S
C55 C62 1.357 1_565 S
C56 C47 1.511 . S
C56 C57 1.341 . S
C56 C58 1.371 . S
C57 C56 1.341 . S
C57 C61 1.394 1_655 S
C57 H73 0.930 . S
C58 C56 1.371 . S
C58 C59 1.392 . S
C58 H74 0.931 . S
C59 C58 1.392 . S
C59 C60 1.331 1_655 S
C59 H77 0.932 1_655 S
C60 C59 1.331 1_455 S
C60 C61 1.336 . S
C61 C57 1.394 1_455 S
C61 C60 1.336 . S
C61 H76 0.929 . S
C62 C52 1.386 . S
C62 C55 1.357 1_545 S
C62 H75 0.928 . S
H63 C39 0.931 . S
H64 C41 0.930 . S
H65 C43 0.929 . S
H66 C44 0.931 . S
H67 C46 0.930 . S
H68 C50 0.931 . S
H69 C48 0.931 . S
H70 C52 0.931 . S
H71 C53 0.929 . S
H72 C54 0.930 . S
H73 C57 0.930 . S
H74 C58 0.931 . S
H75 C62 0.928 . S
H76 C61 0.929 . S
H77 C59 0.932 1_455 S
C78 C79 1.386 . S
C78 C80 1.397 . S
C78 H102 0.931 . S
C79 C78 1.386 . S
C79 C83 1.397 . S
C80 C78 1.397 . S
C80 C81 1.384 . S
C80 H103 0.930 . S
C81 C80 1.384 . S
C81 C82 1.377 . S
C81 C84 1.481 . S
C82 C81 1.377 . S
C82 C83 1.389 . S
C82 H104 0.929 . S
C83 C79 1.397 . S
C83 C82 1.389 . S
C83 H105 0.931 . S
C84 C81 1.481 . S
C84 C85 1.387 . S
C84 C89 1.390 . S
C85 C84 1.387 . S
C85 C86 1.401 . S
C85 H106 0.930 . S
C86 C85 1.401 . S
C86 C87 1.376 . S
C86 C95 1.511 . S
C87 C86 1.376 . S
C87 C88 1.392 . S
C87 H108 0.931 . S
C88 C87 1.392 . S
C88 C89 1.361 . S
C88 C90 1.500 . S
C89 C84 1.390 . S
C89 C88 1.361 . S
C89 H107 0.931 . S
C90 C88 1.500 . S
C90 C91 1.371 . S
C90 C92 1.365 . S
C91 C90 1.371 . S
C91 C101 1.386 . S
C91 H109 0.931 . S
C92 C90 1.365 . S
C92 C93 1.409 . S
C92 H110 0.929 . S
C93 C92 1.409 . S
C93 C94 1.380 . S
C93 H111 0.930 . S
C94 C93 1.380 . S
C94 C101 1.357 . S
C95 C86 1.511 . S
C95 C96 1.341 1_655 S
C95 C97 1.371 . S
C96 C95 1.341 1_455 S
C96 C100 1.394 . S
C96 H112 0.930 . S
C97 C95 1.371 . S
C97 C98 1.392 1_655 S
C97 H113 0.931 . S
C98 C97 1.392 1_455 S
C98 C99 1.331 . S
C98 H116 0.932 1_455 S
C99 C98 1.331 . S
C99 C100 1.336 . S
C100 C96 1.394 . S
C100 C99 1.336 . S
C100 H115 0.929 . S
C101 C91 1.386 . S
C101 C94 1.357 . S
C101 H114 0.928 . S
H102 C78 0.931 . S
H103 C80 0.930 . S
H104 C82 0.929 . S
H105 C83 0.931 . S
H106 C85 0.930 . S
H107 C89 0.931 . S
H108 C87 0.931 . S
H109 C91 0.931 . S
H110 C92 0.929 . S
H111 C93 0.930 . S
H112 C96 0.930 . S
H113 C97 0.931 . S
H114 C101 0.928 . S
H115 C100 0.929 . S
H116 C98 0.932 1_655 S
C117 C118 1.386 . S
C117 C119 1.397 . S
C117 H141 0.931 . S
C118 C117 1.386 . S
C118 C122 1.397 . S
C119 C117 1.397 . S
C119 C120 1.384 . S
C119 H142 0.930 . S
C120 C119 1.384 . S
C120 C121 1.377 . S
C120 C123 1.481 . S
C121 C120 1.377 . S
C121 C122 1.389 . S
C121 H143 0.929 . S
C122 C118 1.397 . S
C122 C121 1.389 . S
C122 H144 0.931 . S
C123 C120 1.481 . S
C123 C124 1.387 . S
C123 C128 1.390 . S
C124 C123 1.387 . S
C124 C125 1.401 . S
C124 H145 0.930 . S
C125 C124 1.401 . S
C125 C126 1.376 . S
C125 C134 1.511 . S
C126 C125 1.376 . S
C126 C127 1.392 . S
C126 H147 0.931 . S
C127 C126 1.392 . S
C127 C128 1.361 . S
C127 C129 1.500 . S
C128 C123 1.390 . S
C128 C127 1.361 . S
C128 H146 0.931 . S
C129 C127 1.500 . S
C129 C130 1.371 . S
C129 C131 1.365 . S
C130 C129 1.371 . S
C130 C140 1.386 1_455 S
C130 H148 0.931 . S
C131 C129 1.365 . S
C131 C132 1.409 1_455 S
C131 H149 0.929 . S
C132 C131 1.409 1_655 S
C132 C133 1.380 . S
C132 H150 0.930 . S
C133 C132 1.380 . S
C133 C140 1.357 . S
C134 C125 1.511 . S
C134 C135 1.341 . S
C134 C136 1.371 . S
C135 C134 1.341 . S
C135 C139 1.394 . S
C135 H151 0.930 . S
C136 C134 1.371 . S
C136 C137 1.392 . S
C136 H152 0.931 . S
C137 C136 1.392 . S
C137 C138 1.331 . S
C137 H155 0.932 . S
C138 C137 1.331 . S
C138 C139 1.336 . S
C139 C135 1.394 . S
C139 C138 1.336 . S
C139 H154 0.929 . S
C140 C130 1.386 1_655 S
C140 C133 1.357 . S
C140 H153 0.928 . S
H141 C117 0.931 . S
H142 C119 0.930 . S
H143 C121 0.929 . S
H144 C122 0.931 . S
H145 C124 0.930 . S
H146 C128 0.931 . S
H147 C126 0.931 . S
H148 C130 0.931 . S
H149 C131 0.929 . S
H150 C132 0.930 . S
H151 C135 0.930 . S
H152 C136 0.931 . S
H153 C140 0.928 . S
H154 C139 0.929 . S
H155 C137 0.932 . S
C156 C157 1.386 . S
C156 C158 1.397 . S
C156 H180 0.931 . S
C157 C156 1.386 . S
C157 C161 1.397 . S
C158 C156 1.397 . S
C158 C159 1.384 . S
C158 H181 0.930 . S
C159 C158 1.384 . S
C159 C160 1.377 . S
C159 C162 1.481 . S
C160 C159 1.377 . S
C160 C161 1.389 . S
C160 H182 0.929 . S
C161 C157 1.397 . S
C161 C160 1.389 . S
C161 H183 0.931 . S
C162 C159 1.481 . S
C162 C163 1.387 . S
C162 C167 1.390 . S
C163 C162 1.387 . S
C163 C164 1.401 . S
C163 H184 0.930 . S
C164 C163 1.401 . S
C164 C165 1.376 . S
C164 C173 1.511 . S
C165 C164 1.376 . S
C165 C166 1.392 . S
C165 H186 0.931 . S
C166 C165 1.392 . S
C166 C167 1.361 . S
C166 C168 1.500 . S
C167 C162 1.390 . S
C167 C166 1.361 . S
C167 H185 0.931 . S
C168 C166 1.500 . S
C168 C169 1.371 . S
C168 C170 1.365 . S
C169 C168 1.371 . S
C169 C179 1.386 . S
C169 H187 0.931 . S
C170 C168 1.365 . S
C170 C171 1.409 1_565 S
C170 H188 0.929 . S
C171 C170 1.409 1_545 S
C171 C172 1.380 . S
C171 H189 0.930 . S
C172 C171 1.380 . S
C172 C179 1.357 1_545 S
C173 C164 1.511 . S
C173 C174 1.341 . S
C173 C175 1.371 . S
C174 C173 1.341 . S
C174 C178 1.394 . S
C174 H190 0.930 . S
C175 C173 1.371 . S
C175 C176 1.392 . S
C175 H191 0.931 . S
C176 C175 1.392 . S
C176 C177 1.331 . S
C176 H194 0.932 . S
C177 C176 1.331 . S
C177 C178 1.336 . S
C178 C174 1.394 . S
C178 C177 1.336 . S
C178 H193 0.929 . S
C179 C169 1.386 . S
C179 C172 1.357 1_565 S
C179 H192 0.928 . S
H180 C156 0.931 . S
H181 C158 0.930 . S
H182 C160 0.929 . S
H183 C161 0.931 . S
H184 C163 0.930 . S
H185 C167 0.931 . S
H186 C165 0.931 . S
H187 C169 0.931 . S
H188 C170 0.929 . S
H189 C171 0.930 . S
H190 C174 0.930 . S
H191 C175 0.931 . S
H192 C179 0.928 . S
H193 C178 0.929 . S
H194 C176 0.932 . S
C195 C196 1.386 . S
C195 C197 1.397 . S
C195 H219 0.931 . S
C196 C195 1.386 . S
C196 C200 1.397 . S
C197 C195 1.397 . S
C197 C198 1.384 . S
C197 H220 0.930 . S
C198 C197 1.384 . S
C198 C199 1.377 . S
C198 C201 1.481 . S
C199 C198 1.377 . S
C199 C200 1.389 . S
C199 H221 0.929 . S
C200 C196 1.397 . S
C200 C199 1.389 . S
C200 H222 0.931 . S
C201 C198 1.481 . S
C201 C202 1.387 . S
C201 C206 1.390 . S
C202 C201 1.387 . S
C202 C203 1.401 . S
C202 H223 0.930 . S
C203 C202 1.401 . S
C203 C204 1.376 . S
C203 C212 1.511 . S
C204 C203 1.376 . S
C204 C205 1.392 . S
C204 H225 0.931 . S
C205 C204 1.392 . S
C205 C206 1.361 . S
C205 C207 1.500 . S
C206 C201 1.390 . S
C206 C205 1.361 . S
C206 H224 0.931 . S
C207 C205 1.500 . S
C207 C208 1.371 . S
C207 C209 1.365 . S
C208 C207 1.371 . S
C208 C218 1.386 . S
C208 H226 0.931 . S
C209 C207 1.365 . S
C209 C210 1.409 . S
C209 H227 0.929 . S
C210 C209 1.409 . S
C210 C211 1.380 1_565 S
C210 H228 0.930 1_565 S
C211 C210 1.380 1_545 S
C211 C218 1.357 1_545 S
C212 C203 1.511 . S
C212 C213 1.341 . S
C212 C214 1.371 . S
C213 C212 1.341 . S
C213 C217 1.394 1_455 S
C213 H229 0.930 . S
C214 C212 1.371 . S
C214 C215 1.392 . S
C214 H230 0.931 . S
C215 C214 1.392 . S
C215 C216 1.331 1_455 S
C215 H233 0.932 . S
C216 C215 1.331 1_655 S
C216 C217 1.336 . S
C217 C213 1.394 1_655 S
C217 C216 1.336 . S
C217 H232 0.929 . S
C218 C208 1.386 . S
C218 C211 1.357 1_565 S
C218 H231 0.928 1_565 S
H219 C195 0.931 . S
H220 C197 0.930 . S
H221 C199 0.929 . S
H222 C200 0.931 . S
H223 C202 0.930 . S
H224 C206 0.931 . S
H225 C204 0.931 . S
H226 C208 0.931 . S
H227 C209 0.929 . S
H228 C210 0.930 1_545 S
H229 C213 0.930 . S
H230 C214 0.931 . S
H231 C218 0.928 1_545 S
H232 C217 0.929 . S
H233 C215 0.932 . S
C234 C235 1.386 1_655 S
C234 C236 1.397 . S
C234 H258 0.931 . S
C235 C234 1.386 1_455 S
C235 C239 1.397 . S
C236 C234 1.397 . S
C236 C237 1.384 . S
C236 H259 0.930 . S
C237 C236 1.384 . S
C237 C238 1.377 1_655 S
C237 C240 1.481 . S
C238 C237 1.377 1_455 S
C238 C239 1.389 . S
C238 H260 0.929 . S
C239 C235 1.397 . S
C239 C238 1.389 . S
C239 H261 0.931 . S
C240 C237 1.481 . S
C240 C241 1.387 . S
C240 C245 1.390 . S
C241 C240 1.387 . S
C241 C242 1.401 . S
C241 H262 0.930 . S
C242 C241 1.401 . S
C242 C243 1.376 . S
C242 C251 1.511 . S
C243 C242 1.376 . S
C243 C244 1.392 . S
C243 H264 0.931 . S
C244 C243 1.392 . S
C244 C245 1.361 . S
C244 C246 1.500 . S
C245 C240 1.390 . S
C245 C244 1.361 . S
C245 H263 0.931 . S
C246 C244 1.500 . S
C246 C247 1.371 . S
C246 C248 1.365 . S
C247 C246 1.371 . S
C247 C257 1.386 . S
C247 H265 0.931 . S
C248 C246 1.365 . S
C248 C249 1.409 . S
C248 H266 0.929 . S
C249 C248 1.409 . S
C249 C250 1.380 . S
C249 H267 0.930 . S
C250 C249 1.380 . S
C250 C257 1.357 . S
C251 C242 1.511 . S
C251 C252 1.341 . S
C251 C253 1.371 . S
C252 C251 1.341 . S
C252 C256 1.394 . S
C252 H268 0.930 . S
C253 C251 1.371 . S
C253 C254 1.392 . S
C253 H269 0.931 . S
C254 C253 1.392 . S
C254 C255 1.331 . S
C254 H272 0.932 . S
C255 C254 1.331 . S
C255 C256 1.336 . S
C256 C252 1.394 . S
C256 C255 1.336 . S
C256 H271 0.929 . S
C257 C247 1.386 . S
C257 C250 1.357 . S
C257 H270 0.928 . S
H258 C234 0.931 . S
H259 C236 0.930 . S
H260 C238 0.929 . S
H261 C239 0.931 . S
H262 C241 0.930 . S
H263 C245 0.931 . S
H264 C243 0.931 . S
H265 C247 0.931 . S
H266 C248 0.929 . S
H267 C249 0.930 . S
H268 C252 0.930 . S
H269 C253 0.931 . S
H270 C257 0.928 . S
H271 C256 0.929 . S
H272 C254 0.932 . S
C273 C274 1.386 . S
C273 C275 1.397 . S
C273 H297 0.931 . S
C274 C273 1.386 . S
C274 C278 1.397 . S
C275 C273 1.397 . S
C275 C276 1.384 . S
C275 H298 0.930 . S
C276 C275 1.384 . S
C276 C277 1.377 . S
C276 C279 1.481 . S
C277 C276 1.377 . S
C277 C278 1.389 . S
C277 H299 0.929 . S
C278 C274 1.397 . S
C278 C277 1.389 . S
C278 H300 0.931 . S
C279 C276 1.481 . S
C279 C280 1.387 . S
C279 C284 1.390 . S
C280 C279 1.387 . S
C280 C281 1.401 . S
C280 H301 0.930 . S
C281 C280 1.401 . S
C281 C282 1.376 . S
C281 C290 1.511 . S
C282 C281 1.376 . S
C282 C283 1.392 . S
C282 H303 0.931 . S
C283 C282 1.392 . S
C283 C284 1.361 . S
C283 C285 1.500 . S
C284 C279 1.390 . S
C284 C283 1.361 . S
C284 H302 0.931 . S
C285 C283 1.500 . S
C285 C286 1.371 . S
C285 C287 1.365 . S
C286 C285 1.371 . S
C286 C296 1.386 . S
C286 H304 0.931 . S
C287 C285 1.365 . S
C287 C288 1.409 . S
C287 H305 0.929 . S
C288 C287 1.409 . S
C288 C289 1.380 . S
C288 H306 0.930 . S
C289 C288 1.380 . S
C289 C296 1.357 . S
C290 C281 1.511 . S
C290 C291 1.341 . S
C290 C292 1.371 . S
C291 C290 1.341 . S
C291 C295 1.394 . S
C291 H307 0.930 . S
C292 C290 1.371 . S
C292 C293 1.392 . S
C292 H308 0.931 . S
C293 C292 1.392 . S
C293 C294 1.331 . S
C293 H311 0.932 . S
C294 C293 1.331 . S
C294 C295 1.336 . S
C295 C291 1.394 . S
C295 C294 1.336 . S
C295 H310 0.929 . S
C296 C286 1.386 . S
C296 C289 1.357 . S
C296 H309 0.928 . S
H297 C273 0.931 . S
H298 C275 0.930 . S
H299 C277 0.929 . S
H300 C278 0.931 . S
H301 C280 0.930 . S
H302 C284 0.931 . S
H303 C282 0.931 . S
H304 C286 0.931 . S
H305 C287 0.929 . S
H306 C288 0.930 . S
H307 C291 0.930 . S
H308 C292 0.931 . S
H309 C296 0.928 . S
H310 C295 0.929 . S
H311 C293 0.932 . S
C312 C313 1.386 . S
C312 C314 1.397 . S
C312 H336 0.931 . S
C313 C312 1.386 . S
C313 C317 1.397 1_545 S
C314 C312 1.397 . S
C314 C315 1.384 . S
C314 H337 0.930 . S
C315 C314 1.384 . S
C315 C316 1.377 . S
C315 C318 1.481 . S
C316 C315 1.377 . S
C316 C317 1.389 1_545 S
C316 H338 0.929 1_545 S
C317 C313 1.397 1_565 S
C317 C316 1.389 1_565 S
C317 H339 0.931 . S
C318 C315 1.481 . S
C318 C319 1.387 . S
C318 C323 1.390 . S
C319 C318 1.387 . S
C319 C320 1.401 . S
C319 H340 0.930 . S
C320 C319 1.401 . S
C320 C321 1.376 . S
C320 C329 1.511 . S
C321 C320 1.376 . S
C321 C322 1.392 . S
C321 H342 0.931 . S
C322 C321 1.392 . S
C322 C323 1.361 . S
C322 C324 1.500 . S
C323 C318 1.390 . S
C323 C322 1.361 . S
C323 H341 0.931 . S
C324 C322 1.500 . S
C324 C325 1.371 . S
C324 C326 1.365 . S
C325 C324 1.371 . S
C325 C335 1.386 . S
C325 H343 0.931 . S
C326 C324 1.365 . S
C326 C327 1.409 . S
C326 H344 0.929 . S
C327 C326 1.409 . S
C327 C328 1.380 . S
C327 H345 0.930 . S
C328 C327 1.380 . S
C328 C335 1.357 . S
C329 C320 1.511 . S
C329 C330 1.341 . S
C329 C331 1.371 . S
C330 C329 1.341 . S
C330 C334 1.394 . S
C330 H346 0.930 . S
C331 C329 1.371 . S
C331 C332 1.392 . S
C331 H347 0.931 . S
C332 C331 1.392 . S
C332 C333 1.331 . S
C332 H350 0.932 . S
C333 C332 1.331 . S
C333 C334 1.336 . S
C334 C330 1.394 . S
C334 C333 1.336 . S
C334 H349 0.929 . S
C335 C325 1.386 . S
C335 C328 1.357 . S
C335 H348 0.928 . S
H336 C312 0.931 . S
H337 C314 0.930 . S
H338 C316 0.929 1_565 S
H339 C317 0.931 . S
H340 C319 0.930 . S
H341 C323 0.931 . S
H342 C321 0.931 . S
H343 C325 0.931 . S
H344 C326 0.929 . S
H345 C327 0.930 . S
H346 C330 0.930 . S
H347 C331 0.931 . S
H348 C335 0.928 . S
H349 C334 0.929 . S
H350 C332 0.932 . S
C351 C352 1.386 . S
C351 C353 1.397 . S
C351 H375 0.931 . S
C352 C351 1.386 . S
C352 C356 1.397 . S
C353 C351 1.397 . S
C353 C354 1.384 . S
C353 H376 0.930 . S
C354 C353 1.384 . S
C354 C355 1.377 . S
C354 C357 1.481 . S
C355 C354 1.377 . S
C355 C356 1.389 . S
C355 H377 0.929 . S
C356 C352 1.397 . S
C356 C355 1.389 . S
C356 H378 0.931 . S
C357 C354 1.481 . S
C357 C358 1.387 . S
C357 C362 1.390 . S
C358 C357 1.387 . S
C358 C359 1.401 . S
C358 H379 0.930 . S
C359 C358 1.401 . S
C359 C360 1.376 . S
C359 C368 1.511 . S
C360 C359 1.376 . S
C360 C361 1.392 . S
C360 H381 0.931 . S
C361 C360 1.392 . S
C361 C362 1.361 . S
C361 C363 1.500 . S
C362 C357 1.390 . S
C362 C361 1.361 . S
C362 H380 0.931 . S
C363 C361 1.500 . S
C363 C364 1.371 . S
C363 C365 1.365 . S
C364 C363 1.371 . S
C364 C374 1.386 . S
C364 H382 0.931 . S
C365 C363 1.365 . S
C365 C366 1.409 . S
C365 H383 0.929 . S
C366 C365 1.409 . S
C366 C367 1.380 . S
C366 H384 0.930 . S
C367 C366 1.380 . S
C367 C374 1.357 . S
C368 C359 1.511 . S
C368 C369 1.341 . S
C368 C370 1.371 . S
C369 C368 1.341 . S
C369 C373 1.394 . S
C369 H385 0.930 . S
C370 C368 1.371 . S
C370 C371 1.392 . S
C370 H386 0.931 . S
C371 C370 1.392 . S
C371 C372 1.331 . S
C371 H389 0.932 1_556 S
C372 C371 1.331 . S
C372 C373 1.336 . S
C373 C369 1.394 . S
C373 C372 1.336 . S
C373 H388 0.929 . S
C374 C364 1.386 . S
C374 C367 1.357 . S
C374 H387 0.928 . S
H375 C351 0.931 . S
H376 C353 0.930 . S
H377 C355 0.929 . S
H378 C356 0.931 . S
H379 C358 0.930 . S
H380 C362 0.931 . S
H381 C360 0.931 . S
H382 C364 0.931 . S
H383 C365 0.929 . S
H384 C366 0.930 . S
H385 C369 0.930 . S
H386 C370 0.931 . S
H387 C374 0.928 . S
H388 C373 0.929 . S
H389 C371 0.932 1_554 S
C390 C391 1.386 . S
C390 C392 1.397 . S
C390 H414 0.931 . S
C391 C390 1.386 . S
C391 C395 1.397 . S
C392 C390 1.397 . S
C392 C393 1.384 . S
C392 H415 0.930 . S
C393 C392 1.384 . S
C393 C394 1.377 . S
C393 C396 1.481 . S
C394 C393 1.377 . S
C394 C395 1.389 . S
C394 H416 0.929 . S
C395 C391 1.397 . S
C395 C394 1.389 . S
C395 H417 0.931 . S
C396 C393 1.481 . S
C396 C397 1.387 . S
C396 C401 1.390 . S
C397 C396 1.387 . S
C397 C398 1.401 . S
C397 H418 0.930 . S
C398 C397 1.401 . S
C398 C399 1.376 . S
C398 C407 1.511 . S
C399 C398 1.376 . S
C399 C400 1.392 . S
C399 H420 0.931 . S
C400 C399 1.392 . S
C400 C401 1.361 . S
C400 C402 1.500 . S
C401 C396 1.390 . S
C401 C400 1.361 . S
C401 H419 0.931 . S
C402 C400 1.500 . S
C402 C403 1.371 . S
C402 C404 1.365 . S
C403 C402 1.371 . S
C403 C413 1.386 1_556 S
C403 H421 0.931 1_556 S
C404 C402 1.365 . S
C404 C405 1.409 . S
C404 H422 0.929 . S
C405 C404 1.409 . S
C405 C406 1.406 . S
C405 H423 0.930 . S
C406 C405 1.406 . S
C406 C413 1.344 1_556 S
C407 C398 1.511 . S
C407 C408 1.341 . S
C407 C409 1.371 . S
C408 C407 1.341 . S
C408 C412 1.394 . S
C408 H424 0.930 . S
C409 C407 1.371 . S
C409 C410 1.392 1_556 S
C409 H425 0.931 1_556 S
C410 C409 1.392 1_554 S
C410 C411 1.331 1_554 S
C410 H428 0.932 . S
C411 C410 1.331 1_556 S
C411 C412 1.336 . S
C412 C408 1.394 . S
C412 C411 1.336 . S
C412 H427 0.929 1_545 S
C413 C403 1.386 1_554 S
C413 C406 1.344 1_554 S
C413 H426 0.928 . S
H414 C390 0.931 . S
H415 C392 0.930 . S
H416 C394 0.929 . S
H417 C395 0.931 . S
H418 C397 0.930 . S
H419 C401 0.931 . S
H420 C399 0.931 . S
H421 C403 0.931 1_554 S
H422 C404 0.929 . S
H423 C405 0.930 . S
H424 C408 0.930 . S
H425 C409 0.931 1_554 S
H426 C413 0.928 . S
H427 C412 0.929 1_565 S
H428 C410 0.932 . S
C429 C430 1.386 . S
C429 C431 1.397 . S
C429 H453 0.931 . S
C430 C429 1.386 . S
C430 C434 1.397 . S
C431 C429 1.397 . S
C431 C432 1.384 . S
C431 H454 0.930 . S
C432 C431 1.384 . S
C432 C433 1.377 . S
C432 C435 1.481 . S
C433 C432 1.377 . S
C433 C434 1.389 . S
C433 H455 0.929 . S
C434 C430 1.397 . S
C434 C433 1.389 . S
C434 H456 0.931 . S
C435 C432 1.481 . S
C435 C436 1.387 . S
C435 C440 1.390 . S
C436 C435 1.387 . S
C436 C437 1.401 . S
C436 H457 0.930 . S
C437 C436 1.401 . S
C437 C438 1.376 . S
C437 C446 1.511 . S
C438 C437 1.376 . S
C438 C439 1.392 . S
C438 H459 0.931 . S
C439 C438 1.392 . S
C439 C440 1.361 . S
C439 C441 1.500 . S
C440 C435 1.390 . S
C440 C439 1.361 . S
C440 H458 0.931 . S
C441 C439 1.500 . S
C441 C442 1.371 . S
C441 C443 1.365 . S
C442 C441 1.371 . S
C442 C452 1.391 . S
C442 H460 0.931 . S
C443 C441 1.365 . S
C443 C444 1.409 . S
C443 H461 0.929 . S
C444 C443 1.409 . S
C444 C445 1.380 . S
C444 H462 0.930 . S
C445 C444 1.380 . S
C445 C452 1.360 . S
C446 C437 1.511 . S
C446 C447 1.341 . S
C446 C448 1.371 . S
C447 C446 1.341 . S
C447 C451 1.394 . S
C447 H463 0.930 . S
C448 C446 1.371 . S
C448 C449 1.392 . S
C448 H464 0.931 . S
C449 C448 1.392 . S
C449 C450 1.331 . S
C449 H467 0.932 1_556 S
C450 C449 1.331 . S
C450 C451 1.336 . S
C451 C447 1.394 . S
C451 C450 1.336 . S
C451 H466 0.929 . S
C452 C442 1.391 . S
C452 C445 1.360 . S
C452 H465 0.920 1_556 S
H453 C429 0.931 . S
H454 C431 0.930 . S
H455 C433 0.929 . S
H456 C434 0.931 . S
H457 C436 0.930 . S
H458 C440 0.931 . S
H459 C438 0.931 . S
H460 C442 0.931 . S
H461 C443 0.929 . S
H462 C444 0.930 . S
H463 C447 0.930 . S
H464 C448 0.931 . S
H465 C452 0.920 1_554 S
H466 C451 0.929 . S
H467 C449 0.932 1_554 S
C468 C469 1.386 . S
C468 C470 1.397 . S
C468 H492 0.931 . S
C469 C468 1.386 . S
C469 C473 1.397 . S
C470 C468 1.397 . S
C470 C471 1.384 . S
C470 H493 0.930 . S
C471 C470 1.384 . S
C471 C472 1.377 . S
C471 C474 1.481 . S
C472 C471 1.377 . S
C472 C473 1.389 . S
C472 H494 0.929 . S
C473 C469 1.397 . S
C473 C472 1.389 . S
C473 H495 0.931 . S
C474 C471 1.481 . S
C474 C475 1.387 . S
C474 C479 1.390 . S
C475 C474 1.387 . S
C475 C476 1.401 . S
C475 H496 0.930 . S
C476 C475 1.401 . S
C476 C477 1.376 . S
C476 C485 1.511 . S
C477 C476 1.376 . S
C477 C478 1.392 . S
C477 H498 0.931 . S
C478 C477 1.392 . S
C478 C479 1.361 . S
C478 C480 1.500 . S
C479 C474 1.390 . S
C479 C478 1.361 . S
C479 H497 0.931 . S
C480 C478 1.500 . S
C480 C481 1.371 . S
C480 C482 1.365 . S
C481 C480 1.371 . S
C481 C491 1.386 1_554 S
C481 H499 0.931 . S
C482 C480 1.365 . S
C482 C483 1.409 . S
C482 H500 0.929 . S
C483 C482 1.409 . S
C483 C484 1.380 . S
C483 H501 0.930 . S
C484 C483 1.380 . S
C484 C491 1.357 1_554 S
C485 C476 1.511 . S
C485 C486 1.341 . S
C485 C487 1.371 . S
C486 C485 1.341 . S
C486 C490 1.394 . S
C486 H502 0.930 . S
C487 C485 1.371 . S
C487 C488 1.392 1_554 S
C487 H503 0.913 1_554 S
C488 C487 1.392 1_556 S
C488 C489 1.331 1_556 S
C488 H506 0.932 . S
C489 C488 1.331 1_554 S
C489 C490 1.336 . S
C490 C486 1.394 . S
C490 C489 1.336 . S
C490 H505 0.929 . S
C491 C481 1.386 1_556 S
C491 C484 1.357 1_556 S
C491 H504 0.928 . S
H492 C468 0.931 . S
H493 C470 0.930 . S
H494 C472 0.929 . S
H495 C473 0.931 . S
H496 C475 0.930 . S
H497 C479 0.931 . S
H498 C477 0.931 . S
H499 C481 0.931 . S
H500 C482 0.929 . S
H501 C483 0.930 . S
H502 C486 0.930 . S
H503 C487 0.913 1_556 S
H504 C491 0.928 . S
H505 C490 0.929 . S
H506 C488 0.932 . S
C507 C508 1.386 . S
C507 C509 1.397 . S
C507 H531 0.931 . S
C508 C507 1.386 . S
C508 C512 1.397 . S
C509 C507 1.397 . S
C509 C510 1.384 . S
C509 H532 0.930 . S
C510 C509 1.384 . S
C510 C511 1.377 . S
C510 C513 1.481 . S
C511 C510 1.377 . S
C511 C512 1.389 . S
C511 H533 0.929 . S
C512 C508 1.397 . S
C512 C511 1.389 . S
C512 H534 0.931 . S
C513 C510 1.481 . S
C513 C514 1.387 . S
C513 C518 1.390 . S
C514 C513 1.387 . S
C514 C515 1.401 . S
C514 H535 0.930 . S
C515 C514 1.401 . S
C515 C516 1.376 . S
C515 C524 1.511 . S
C516 C515 1.376 . S
C516 C517 1.392 . S
C516 H537 0.931 . S
C517 C516 1.392 . S
C517 C518 1.361 . S
C517 C519 1.500 . S
C518 C513 1.390 . S
C518 C517 1.361 . S
C518 H536 0.931 . S
C519 C517 1.500 . S
C519 C520 1.371 . S
C519 C521 1.365 . S
C520 C519 1.371 . S
C520 C530 1.386 1_554 S
C520 H538 0.931 . S
C521 C519 1.365 . S
C521 C522 1.409 . S
C521 H539 0.929 . S
C522 C521 1.409 . S
C522 C523 1.380 . S
C522 H540 0.930 . S
C523 C522 1.380 . S
C523 C530 1.357 1_554 S
C524 C515 1.511 . S
C524 C525 1.341 . S
C524 C526 1.371 . S
C525 C524 1.341 . S
C525 C529 1.394 . S
C525 H541 0.930 . S
C526 C524 1.371 . S
C526 C527 1.392 . S
C526 H542 0.931 . S
C527 C526 1.392 . S
C527 C528 1.331 . S
C527 H545 0.932 1_554 S
C528 C527 1.331 . S
C528 C529 1.336 . S
C529 C525 1.394 . S
C529 C528 1.336 . S
C529 H544 0.929 . S
C530 C520 1.386 1_556 S
C530 C523 1.357 1_556 S
C530 H543 0.928 . S
H531 C507 0.931 . S
H532 C509 0.930 . S
H533 C511 0.929 . S
H534 C512 0.931 . S
H535 C514 0.930 . S
H536 C518 0.931 . S
H537 C516 0.931 . S
H538 C520 0.931 . S
H539 C521 0.929 . S
H540 C522 0.930 . S
H541 C525 0.930 . S
H542 C526 0.931 . S
H543 C530 0.928 . S
H544 C529 0.929 . S
H545 C527 0.932 1_556 S
C546 C547 1.386 . S
C546 C548 1.397 . S
C546 H570 0.931 . S
C547 C546 1.386 . S
C547 C551 1.397 . S
C548 C546 1.397 . S
C548 C549 1.384 . S
C548 H571 0.930 . S
C549 C548 1.384 . S
C549 C550 1.377 . S
C549 C552 1.481 . S
C550 C549 1.377 . S
C550 C551 1.389 . S
C550 H572 0.929 . S
C551 C547 1.397 . S
C551 C550 1.389 . S
C551 H573 0.931 . S
C552 C549 1.481 . S
C552 C553 1.387 . S
C552 C557 1.390 . S
C553 C552 1.387 . S
C553 C554 1.401 . S
C553 H574 0.930 . S
C554 C553 1.401 . S
C554 C555 1.376 . S
C554 C563 1.511 . S
C555 C554 1.376 . S
C555 C556 1.392 . S
C555 H576 0.931 . S
C556 C555 1.392 . S
C556 C557 1.361 . S
C556 C558 1.500 . S
C557 C552 1.390 . S
C557 C556 1.361 . S
C557 H575 0.931 . S
C558 C556 1.500 . S
C558 C559 1.371 . S
C558 C560 1.365 . S
C559 C558 1.371 . S
C559 C569 1.386 . S
C559 H577 0.931 . S
C560 C558 1.365 . S
C560 C561 1.409 . S
C560 H578 0.929 . S
C561 C560 1.409 . S
C561 C562 1.380 . S
C561 H579 0.930 . S
C562 C561 1.380 . S
C562 C569 1.357 . S
C563 C554 1.511 . S
C563 C564 1.341 . S
C563 C565 1.371 . S
C564 C563 1.341 . S
C564 C568 1.394 . S
C564 H580 0.930 . S
C565 C563 1.371 . S
C565 C566 1.392 . S
C565 H581 0.931 . S
C566 C565 1.392 . S
C566 C567 1.331 . S
C566 H584 0.915 1_554 S
C567 C566 1.331 . S
C567 C568 1.336 . S
C568 C564 1.394 . S
C568 C567 1.336 . S
C568 H583 0.929 . S
C569 C559 1.386 . S
C569 C562 1.357 . S
C569 H582 0.928 . S
H570 C546 0.931 . S
H571 C548 0.930 . S
H572 C550 0.929 . S
H573 C551 0.931 . S
H574 C553 0.930 . S
H575 C557 0.931 . S
H576 C555 0.931 . S
H577 C559 0.931 . S
H578 C560 0.929 . S
H579 C561 0.930 . S
H580 C564 0.930 . S
H581 C565 0.931 . S
H582 C569 0.928 . S
H583 C568 0.929 . S
H584 C566 0.915 1_556 S
C585 C586 1.386 . S
C585 C587 1.397 . S
C585 H609 0.931 . S
C586 C585 1.386 . S
C586 C590 1.397 1_565 S
C587 C585 1.397 . S
C587 C588 1.384 . S
C587 H610 0.930 . S
C588 C587 1.384 . S
C588 C589 1.377 . S
C588 C591 1.481 . S
C589 C588 1.377 . S
C589 C590 1.389 1_565 S
C589 H611 0.929 1_565 S
C590 C586 1.397 1_545 S
C590 C589 1.389 1_545 S
C590 H612 0.931 . S
C591 C588 1.481 . S
C591 C592 1.387 . S
C591 C596 1.390 . S
C592 C591 1.387 . S
C592 C593 1.401 . S
C592 H613 0.930 . S
C593 C592 1.401 . S
C593 C594 1.376 . S
C593 C602 1.511 . S
C594 C593 1.376 . S
C594 C595 1.392 . S
C594 H615 0.931 . S
C595 C594 1.392 . S
C595 C596 1.361 . S
C595 C597 1.500 . S
C596 C591 1.390 . S
C596 C595 1.361 . S
C596 H614 0.931 . S
C597 C595 1.500 . S
C597 C598 1.371 . S
C597 C599 1.365 . S
C598 C597 1.371 . S
C598 C608 1.386 . S
C598 H616 0.931 . S
C599 C597 1.365 . S
C599 C600 1.409 . S
C599 H617 0.929 . S
C600 C599 1.409 . S
C600 C601 1.380 . S
C600 H618 0.930 . S
C601 C600 1.380 . S
C601 C608 1.357 . S
C602 C593 1.511 . S
C602 C603 1.341 . S
C602 C604 1.371 . S
C603 C602 1.341 . S
C603 C607 1.394 . S
C603 H619 0.930 . S
C604 C602 1.371 . S
C604 C605 1.392 . S
C604 H620 0.931 . S
C605 C604 1.392 . S
C605 C606 1.331 . S
C605 H623 0.932 . S
C606 C605 1.331 . S
C606 C607 1.336 . S
C607 C603 1.394 . S
C607 C606 1.336 . S
C607 H622 0.929 . S
C608 C598 1.386 . S
C608 C601 1.357 . S
C608 H621 0.928 . S
H609 C585 0.931 . S
H610 C587 0.930 . S
H611 C589 0.929 1_545 S
H612 C590 0.931 . S
H613 C592 0.930 . S
H614 C596 0.931 . S
H615 C594 0.931 . S
H616 C598 0.931 . S
H617 C599 0.929 . S
H618 C600 0.930 . S
H619 C603 0.930 . S
H620 C604 0.931 . S
H621 C608 0.928 . S
H622 C607 0.929 . S
H623 C605 0.932 . S
C624 C625 1.386 . S
C624 C626 1.397 . S
C624 H648 0.931 . S
C625 C624 1.386 . S
C625 C629 1.397 1_655 S
C626 C624 1.397 . S
C626 C627 1.384 1_655 S
C626 H649 0.930 . S
C627 C626 1.384 1_455 S
C627 C628 1.377 . S
C627 C630 1.481 . S
C628 C627 1.377 . S
C628 C629 1.389 . S
C628 H650 0.929 . S
C629 C625 1.397 1_455 S
C629 C628 1.389 . S
C629 H651 0.931 . S
C630 C627 1.481 . S
C630 C631 1.387 . S
C630 C635 1.390 . S
C631 C630 1.387 . S
C631 C632 1.401 . S
C631 H652 0.930 . S
C632 C631 1.401 . S
C632 C633 1.376 . S
C632 C641 1.511 . S
C633 C632 1.376 . S
C633 C634 1.392 . S
C633 H654 0.931 . S
C634 C633 1.392 . S
C634 C635 1.361 . S
C634 C636 1.500 . S
C635 C630 1.390 . S
C635 C634 1.361 . S
C635 H653 0.931 . S
C636 C634 1.500 . S
C636 C637 1.371 . S
C636 C638 1.365 . S
C637 C636 1.371 . S
C637 C647 1.386 . S
C637 H655 0.931 . S
C638 C636 1.365 . S
C638 C639 1.409 . S
C638 H656 0.929 . S
C639 C638 1.409 . S
C639 C640 1.380 . S
C639 H657 0.930 . S
C640 C639 1.380 . S
C640 C647 1.357 . S
C641 C632 1.511 . S
C641 C642 1.341 . S
C641 C643 1.371 . S
C642 C641 1.341 . S
C642 C646 1.394 . S
C642 H658 0.930 . S
C643 C641 1.371 . S
C643 C644 1.392 . S
C643 H659 0.931 . S
C644 C643 1.392 . S
C644 C645 1.331 . S
C644 H662 0.932 . S
C645 C644 1.331 . S
C645 C646 1.336 . S
C646 C642 1.394 . S
C646 C645 1.336 . S
C646 H661 0.929 . S
C647 C637 1.386 . S
C647 C640 1.357 . S
C647 H660 0.928 . S
H648 C624 0.931 . S
H649 C626 0.930 . S
H650 C628 0.929 . S
H651 C629 0.931 . S
H652 C631 0.930 . S
H653 C635 0.931 . S
H654 C633 0.931 . S
H655 C637 0.931 . S
H656 C638 0.929 . S
H657 C639 0.930 . S
H658 C642 0.930 . S
H659 C643 0.931 . S
H660 C647 0.928 . S
H661 C646 0.929 . S
H662 C644 0.932 . S
C663 C664 1.386 . S
C663 C665 1.397 . S
C663 H687 0.931 . S
C664 C663 1.386 . S
C664 C668 1.397 . S
C665 C663 1.397 . S
C665 C666 1.384 . S
C665 H688 0.930 . S
C666 C665 1.384 . S
C666 C667 1.377 . S
C666 C669 1.481 . S
C667 C666 1.377 . S
C667 C668 1.389 . S
C667 H689 0.929 . S
C668 C664 1.397 . S
C668 C667 1.389 . S
C668 H690 0.931 . S
C669 C666 1.481 . S
C669 C670 1.387 . S
C669 C674 1.390 . S
C670 C669 1.387 . S
C670 C671 1.401 . S
C670 H691 0.930 . S
C671 C670 1.401 . S
C671 C672 1.376 . S
C671 C680 1.511 . S
C672 C671 1.376 . S
C672 C673 1.392 . S
C672 H693 0.931 . S
C673 C672 1.392 . S
C673 C674 1.361 . S
C673 C675 1.500 . S
C674 C669 1.390 . S
C674 C673 1.361 . S
C674 H692 0.931 . S
C675 C673 1.500 . S
C675 C676 1.371 . S
C675 C677 1.365 . S
C676 C675 1.371 . S
C676 C686 1.386 . S
C676 H694 0.931 . S
C677 C675 1.365 . S
C677 C678 1.409 . S
C677 H695 0.929 . S
C678 C677 1.409 . S
C678 C679 1.380 . S
C678 H696 0.930 . S
C679 C678 1.380 . S
C679 C686 1.357 . S
C680 C671 1.511 . S
C680 C681 1.341 . S
C680 C682 1.371 . S
C681 C680 1.341 . S
C681 C685 1.394 . S
C681 H697 0.930 . S
C682 C680 1.371 . S
C682 C683 1.392 . S
C682 H698 0.931 . S
C683 C682 1.392 . S
C683 C684 1.331 . S
C683 H701 0.932 . S
C684 C683 1.331 . S
C684 C685 1.336 . S
C685 C681 1.394 . S
C685 C684 1.336 . S
C685 H700 0.929 . S
C686 C676 1.386 . S
C686 C679 1.357 . S
C686 H699 0.928 . S
H687 C663 0.931 . S
H688 C665 0.930 . S
H689 C667 0.929 . S
H690 C668 0.931 . S
H691 C670 0.930 . S
H692 C674 0.931 . S
H693 C672 0.931 . S
H694 C676 0.931 . S
H695 C677 0.929 . S
H696 C678 0.930 . S
H697 C681 0.930 . S
H698 C682 0.931 . S
H699 C686 0.928 . S
H700 C685 0.929 . S
H701 C683 0.932 . S
C702 Eu703 2.835 . S
C702 C704 1.500 . S
C702 O722 1.257 1_545 S
C702 O723 1.260 . S
Eu703 C702 2.835 . S
Eu703 O722 2.473 1_545 S
Eu703 O723 2.480 . S
Eu703 O724 2.430 . S
Eu703 O725 2.670 1_554 S
Eu703 O726 2.394 1_545 S
Eu703 O731 2.355 1_545 S
Eu703 O733 2.374 . S
C704 C702 1.500 . S
C704 C705 1.377 . S
C704 C709 1.377 1_545 S
C705 C704 1.377 . S
C705 C706 1.395 . S
C705 H734 0.931 . S
C706 C705 1.395 . S
C706 C707 1.375 1_545 S
C706 H735 0.931 . S
C707 C706 1.375 1_565 S
C707 C708 1.401 . S
C708 C707 1.401 . S
C708 C709 1.378 . S
C708 H736 0.931 . S
C709 C704 1.377 1_565 S
C709 C708 1.378 . S
C709 H737 0.931 . S
C710 O724 1.259 1_556 S
C710 O725 1.270 . S
C711 O726 1.251 . S
C711 O727 1.251 1_554 S
C712 Eu713 2.835 . S
C712 C714 1.500 . S
C712 O728 1.257 1_565 S
C712 O729 1.260 . S
Eu713 C712 2.835 . S
Eu713 O725 2.355 1_565 S
Eu713 O727 2.374 . S
Eu713 O728 2.473 1_565 S
Eu713 O729 2.480 . S
Eu713 O730 2.430 . S
Eu713 O731 2.670 1_556 S
Eu713 O732 2.394 1_565 S
C714 C712 1.500 . S
C714 C715 1.377 . S
C714 C719 1.377 1_565 S
C715 C714 1.377 . S
C715 C716 1.395 . S
C715 H738 0.931 . S
C716 C715 1.395 . S
C716 C717 1.360 1_565 S
C716 H739 0.931 . S
C717 C716 1.360 1_545 S
C717 C718 1.415 . S
C718 C717 1.415 . S
C718 C719 1.378 . S
C718 H740 0.931 . S
C719 C714 1.377 1_545 S
C719 C718 1.378 . S
C719 H741 0.931 . S
C720 O730 1.259 1_554 S
C720 O731 1.270 . S
C721 O732 1.251 . S
C721 O733 1.251 1_556 S
O722 C702 1.257 1_565 S
O722 Eu703 2.473 1_565 S
O723 C702 1.260 . S
O723 Eu703 2.480 . S
O724 Eu703 2.430 . S
O724 C710 1.259 1_554 S
O725 Eu703 2.670 1_556 S
O725 C710 1.270 . S
O725 Eu713 2.355 1_545 S
O726 Eu703 2.394 1_565 S
O726 C711 1.251 . S
O727 C711 1.251 1_556 S
O727 Eu713 2.374 . S
O728 C712 1.257 1_545 S
O728 Eu713 2.473 1_545 S
O729 C712 1.260 . S
O729 Eu713 2.480 . S
O730 Eu713 2.430 . S
O730 C720 1.259 1_556 S
O731 Eu703 2.355 1_565 S
O731 Eu713 2.670 1_554 S
O731 C720 1.270 . S
O732 Eu713 2.394 1_545 S
O732 C721 1.251 . S
O733 Eu703 2.374 . S
O733 C721 1.251 1_554 S
H734 C705 0.931 . S
H735 C706 0.931 . S
H736 C708 0.931 . S
H737 C709 0.931 . S
H738 C715 0.931 . S
H739 C716 0.931 . S
H740 C718 0.931 . S
H741 C719 0.931 . S
C742 Eu743 2.835 . S
C742 C744 1.500 1_655 S
C742 O762 1.257 1_655 S
C742 O763 1.260 . S
Eu743 C742 2.835 . S
Eu743 O762 2.473 1_655 S
Eu743 O763 2.480 . S
Eu743 O764 2.430 . S
Eu743 O765 2.670 1_554 S
Eu743 O766 2.394 1_655 S
Eu743 O771 2.355 1_655 S
Eu743 O773 2.374 . S
C744 C742 1.500 1_455 S
C744 C745 1.377 1_455 S
C744 C749 1.377 . S
C745 C744 1.377 1_655 S
C745 C746 1.395 . S
C745 H774 0.931 . S
C746 C745 1.395 . S
C746 C747 1.383 1_655 S
C746 H775 0.931 . S
C747 C746 1.383 1_455 S
C747 C748 1.394 . S
C748 C747 1.394 . S
C748 C749 1.378 . S
C748 H776 0.931 . S
C749 C744 1.377 . S
C749 C748 1.378 . S
C749 H777 0.931 . S
C750 O764 1.259 1_556 S
C750 O765 1.270 . S
C751 O766 1.251 . S
C751 O767 1.251 . S
C752 Eu753 2.835 . S
C752 C754 1.500 1_455 S
C752 O768 1.257 1_455 S
C752 O769 1.260 . S
Eu753 C752 2.835 . S
Eu753 O765 2.355 1_455 S
Eu753 O767 2.374 1_556 S
Eu753 O768 2.473 1_455 S
Eu753 O769 2.480 . S
Eu753 O770 2.430 . S
Eu753 O771 2.670 1_556 S
Eu753 O772 2.394 1_455 S
C754 C752 1.500 1_655 S
C754 C755 1.377 1_655 S
C754 C759 1.377 . S
C755 C754 1.377 1_455 S
C755 C756 1.395 . S
C755 H778 0.931 . S
C756 C755 1.395 . S
C756 C757 1.383 1_455 S
C756 H779 0.931 . S
C757 C756 1.383 1_655 S
C757 C758 1.394 . S
C758 C757 1.394 . S
C758 C759 1.378 . S
C758 H780 0.931 . S
C759 C754 1.377 . S
C759 C758 1.378 . S
C759 H781 0.931 . S
C760 O770 1.259 1_554 S
C760 O771 1.270 . S
C761 O772 1.251 . S
C761 O773 1.251 1_556 S
O762 C742 1.257 1_455 S
O762 Eu743 2.473 1_455 S
O763 C742 1.260 . S
O763 Eu743 2.480 . S
O764 Eu743 2.430 . S
O764 C750 1.259 1_554 S
O765 Eu743 2.670 1_556 S
O765 C750 1.270 . S
O765 Eu753 2.355 1_655 S
O766 Eu743 2.394 1_455 S
O766 C751 1.251 . S
O767 C751 1.251 . S
O767 Eu753 2.374 1_554 S
O768 C752 1.257 1_655 S
O768 Eu753 2.473 1_655 S
O769 C752 1.260 . S
O769 Eu753 2.480 . S
O770 Eu753 2.430 . S
O770 C760 1.259 1_556 S
O771 Eu743 2.355 1_455 S
O771 Eu753 2.670 1_554 S
O771 C760 1.270 . S
O772 Eu753 2.394 1_655 S
O772 C761 1.251 . S
O773 Eu743 2.374 . S
O773 C761 1.251 1_554 S
H774 C745 0.931 . S
H775 C746 0.931 . S
H776 C748 0.931 . S
H777 C749 0.931 . S
H778 C755 0.931 . S
H779 C756 0.931 . S
H780 C758 0.931 . S
H781 C759 0.931 . S
C782 Eu783 2.835 . S
C782 C784 1.500 . S
C782 O802 1.257 . S
C782 O803 1.260 . S
Eu783 C782 2.835 . S
Eu783 O802 2.473 . S
Eu783 O803 2.480 . S
Eu783 O804 2.430 . S
Eu783 O805 2.670 1_556 S
Eu783 O806 2.394 . S
Eu783 O811 2.355 . S
Eu783 O813 2.401 . S
C784 C782 1.500 . S
C784 C785 1.377 . S
C784 C789 1.377 . S
C785 C784 1.377 . S
C785 C786 1.395 . S
C785 H814 0.931 . S
C786 C785 1.395 . S
C786 C787 1.383 . S
C786 H815 0.931 . S
C787 C786 1.383 . S
C787 C788 1.394 . S
C788 C787 1.394 . S
C788 C789 1.378 . S
C788 H816 0.931 . S
C789 C784 1.377 . S
C789 C788 1.378 . S
C789 H817 0.931 . S
C790 O804 1.259 1_554 S
C790 O805 1.270 . S
C791 O806 1.251 . S
C791 O807 1.251 1_556 S
C792 Eu793 2.835 . S
C792 C794 1.500 . S
C792 O808 1.257 . S
C792 O809 1.260 . S
Eu793 C792 2.835 . S
Eu793 O805 2.355 . S
Eu793 O807 2.374 . S
Eu793 O808 2.473 . S
Eu793 O809 2.480 . S
Eu793 O810 2.430 . S
Eu793 O811 2.670 1_554 S
Eu793 O812 2.394 . S
C794 C792 1.500 . S
C794 C795 1.377 . S
C794 C799 1.377 . S
C795 C794 1.377 . S
C795 C796 1.395 . S
C795 H818 0.931 . S
C796 C795 1.395 . S
C796 C797 1.383 . S
C796 H819 0.931 . S
C797 C796 1.383 . S
C797 C798 1.394 . S
C798 C797 1.394 . S
C798 C799 1.378 . S
C798 H820 0.931 . S
C799 C794 1.377 . S
C799 C798 1.378 . S
C799 H821 0.931 . S
C800 O810 1.259 1_556 S
C800 O811 1.270 . S
C801 O812 1.251 . S
C801 O813 1.217 1_554 S
O802 C782 1.257 . S
O802 Eu783 2.473 . S
O803 C782 1.260 . S
O803 Eu783 2.480 . S
O804 Eu783 2.430 . S
O804 C790 1.259 1_556 S
O805 Eu783 2.670 1_554 S
O805 C790 1.270 . S
O805 Eu793 2.355 . S
O806 Eu783 2.394 . S
O806 C791 1.251 . S
O807 C791 1.251 1_554 S
O807 Eu793 2.374 . S
O808 C792 1.257 . S
O808 Eu793 2.473 . S
O809 C792 1.260 . S
O809 Eu793 2.480 . S
O810 Eu793 2.430 . S
O810 C800 1.259 1_554 S
O811 Eu783 2.355 . S
O811 Eu793 2.670 1_556 S
O811 C800 1.270 . S
O812 Eu793 2.394 . S
O812 C801 1.251 . S
O813 Eu783 2.401 . S
O813 C801 1.217 1_556 S
H814 C785 0.931 . S
H815 C786 0.931 . S
H816 C788 0.931 . S
H817 C789 0.931 . S
H818 C795 0.931 . S
H819 C796 0.931 . S
H820 C798 0.931 . S
H821 C799 0.931 . S
C822 Eu823 2.835 . S
C822 C824 1.500 . S
C822 O842 1.257 . S
C822 O843 1.260 . S
Eu823 C822 2.835 . S
Eu823 O842 2.473 . S
Eu823 O843 2.480 . S
Eu823 O844 2.430 . S
Eu823 O845 2.670 . S
Eu823 O846 2.394 . S
Eu823 O851 2.355 . S
Eu823 O853 2.374 . S
C824 C822 1.500 . S
C824 C825 1.377 . S
C824 C829 1.377 . S
C825 C824 1.377 . S
C825 C826 1.395 . S
C825 H854 0.931 . S
C826 C825 1.395 . S
C826 C827 1.383 . S
C826 H855 0.931 . S
C827 C826 1.383 . S
C827 C828 1.394 . S
C828 C827 1.394 . S
C828 C829 1.378 . S
C828 H856 0.931 . S
C829 C824 1.377 . S
C829 C828 1.378 . S
C829 H857 0.931 . S
C830 O844 1.259 . S
C830 O845 1.270 . S
C831 O846 1.251 . S
C831 O847 1.251 . S
C832 Eu833 2.835 . S
C832 C834 1.500 . S
C832 O848 1.257 . S
C832 O849 1.260 . S
Eu833 C832 2.835 . S
Eu833 O845 2.355 . S
Eu833 O847 2.374 . S
Eu833 O848 2.473 . S
Eu833 O849 2.480 . S
Eu833 O850 2.430 . S
Eu833 O851 2.670 . S
Eu833 O852 2.394 . S
C834 C832 1.500 . S
C834 C835 1.377 . S
C834 C839 1.377 . S
C835 C834 1.377 . S
C835 C836 1.395 . S
C835 H858 0.931 . S
C836 C835 1.395 . S
C836 C837 1.383 . S
C836 H859 0.931 . S
C837 C836 1.383 . S
C837 C838 1.394 . S
C838 C837 1.394 . S
C838 C839 1.378 . S
C838 H860 0.931 . S
C839 C834 1.377 . S
C839 C838 1.378 . S
C839 H861 0.931 . S
C840 O850 1.259 . S
C840 O851 1.270 . S
C841 O852 1.251 . S
C841 O853 1.251 . S
O842 C822 1.257 . S
O842 Eu823 2.473 . S
O843 C822 1.260 . S
O843 Eu823 2.480 . S
O844 Eu823 2.430 . S
O844 C830 1.259 . S
O845 Eu823 2.670 . S
O845 C830 1.270 . S
O845 Eu833 2.355 . S
O846 Eu823 2.394 . S
O846 C831 1.251 . S
O847 C831 1.251 . S
O847 Eu833 2.374 . S
O848 C832 1.257 . S
O848 Eu833 2.473 . S
O849 C832 1.260 . S
O849 Eu833 2.480 . S
O850 Eu833 2.430 . S
O850 C840 1.259 . S
O851 Eu823 2.355 . S
O851 Eu833 2.670 . S
O851 C840 1.270 . S
O852 Eu833 2.394 . S
O852 C841 1.251 . S
O853 Eu823 2.374 . S
O853 C841 1.251 . S
H854 C825 0.931 . S
H855 C826 0.931 . S
H856 C828 0.931 . S
H857 C829 0.931 . S
H858 C835 0.931 . S
H859 C836 0.931 . S
H860 C838 0.931 . S
H861 C839 0.931 . S
C862 Eu863 2.835 . S
C862 C864 1.500 . S
C862 O882 1.257 . S
C862 O883 1.260 . S
Eu863 C862 2.835 . S
Eu863 O882 2.473 . S
Eu863 O883 2.480 . S
Eu863 O884 2.430 . S
Eu863 O885 2.670 . S
Eu863 O886 2.394 . S
Eu863 O891 2.355 . S
Eu863 O893 2.374 . S
C864 C862 1.500 . S
C864 C865 1.377 . S
C864 C869 1.377 . S
C865 C864 1.377 . S
C865 C866 1.395 . S
C865 H894 0.931 . S
C866 C865 1.395 . S
C866 C867 1.383 . S
C866 H895 0.931 . S
C867 C866 1.383 . S
C867 C868 1.394 . S
C868 C867 1.394 . S
C868 C869 1.378 . S
C868 H896 0.931 . S
C869 C864 1.377 . S
C869 C868 1.378 . S
C869 H897 0.931 . S
C870 O884 1.259 . S
C870 O885 1.270 . S
C871 O886 1.251 . S
C871 O887 1.251 . S
C872 Eu873 2.835 . S
C872 C874 1.500 . S
C872 O888 1.257 . S
C872 O889 1.260 . S
Eu873 C872 2.835 . S
Eu873 O885 2.355 . S
Eu873 O887 2.374 . S
Eu873 O888 2.473 . S
Eu873 O889 2.480 . S
Eu873 O890 2.430 . S
Eu873 O891 2.670 . S
Eu873 O892 2.394 . S
C874 C872 1.500 . S
C874 C875 1.377 . S
C874 C879 1.377 . S
C875 C874 1.377 . S
C875 C876 1.395 . S
C875 H898 0.931 . S
C876 C875 1.395 . S
C876 C877 1.383 . S
C876 H899 0.931 . S
C877 C876 1.383 . S
C877 C878 1.394 . S
C878 C877 1.394 . S
C878 C879 1.378 . S
C878 H900 0.931 . S
C879 C874 1.377 . S
C879 C878 1.378 . S
C879 H901 0.931 . S
C880 O890 1.259 . S
C880 O891 1.270 . S
C881 O892 1.251 . S
C881 O893 1.251 . S
O882 C862 1.257 . S
O882 Eu863 2.473 . S
O883 C862 1.260 . S
O883 Eu863 2.480 . S
O884 Eu863 2.430 . S
O884 C870 1.259 . S
O885 Eu863 2.670 . S
O885 C870 1.270 . S
O885 Eu873 2.355 . S
O886 Eu863 2.394 . S
O886 C871 1.251 . S
O887 C871 1.251 . S
O887 Eu873 2.374 . S
O888 C872 1.257 . S
O888 Eu873 2.473 . S
O889 C872 1.260 . S
O889 Eu873 2.480 . S
O890 Eu873 2.430 . S
O890 C880 1.259 . S
O891 Eu863 2.355 . S
O891 Eu873 2.670 . S
O891 C880 1.270 . S
O892 Eu873 2.394 . S
O892 C881 1.251 . S
O893 Eu863 2.374 . S
O893 C881 1.251 . S
H894 C865 0.931 . S
H895 C866 0.931 . S
H896 C868 0.931 . S
H897 C869 0.931 . S
H898 C875 0.931 . S
H899 C876 0.931 . S
H900 C878 0.931 . S
H901 C879 0.931 . S
C902 Eu903 2.835 . S
C902 C904 1.500 . S
C902 O922 1.257 . S
C902 O923 1.260 . S
Eu903 C902 2.835 . S
Eu903 O922 2.473 . S
Eu903 O923 2.480 . S
Eu903 O924 2.430 . S
Eu903 O925 2.670 . S
Eu903 O926 2.394 . S
Eu903 O931 2.355 . S
Eu903 O933 2.374 . S
C904 C902 1.500 . S
C904 C905 1.377 . S
C904 C909 1.377 . S
C905 C904 1.377 . S
C905 C906 1.395 . S
C905 H934 0.931 . S
C906 C905 1.395 . S
C906 C907 1.383 . S
C906 H935 0.931 . S
C907 C906 1.383 . S
C907 C908 1.394 . S
C908 C907 1.394 . S
C908 C909 1.378 . S
C908 H936 0.931 . S
C909 C904 1.377 . S
C909 C908 1.378 . S
C909 H937 0.931 . S
C910 O924 1.259 . S
C910 O925 1.270 . S
C911 O926 1.251 . S
C911 O927 1.251 . S
C912 Eu913 2.835 . S
C912 C914 1.500 . S
C912 O928 1.257 . S
C912 O929 1.260 . S
Eu913 C912 2.835 . S
Eu913 O925 2.355 . S
Eu913 O927 2.374 . S
Eu913 O928 2.473 . S
Eu913 O929 2.480 . S
Eu913 O930 2.430 . S
Eu913 O931 2.670 . S
Eu913 O932 2.394 . S
C914 C912 1.500 . S
C914 C915 1.377 . S
C914 C919 1.377 . S
C915 C914 1.377 . S
C915 C916 1.395 . S
C915 H938 0.931 . S
C916 C915 1.395 . S
C916 C917 1.383 . S
C916 H939 0.931 . S
C917 C916 1.383 . S
C917 C918 1.394 . S
C918 C917 1.394 . S
C918 C919 1.378 . S
C918 H940 0.931 . S
C919 C914 1.377 . S
C919 C918 1.378 . S
C919 H941 0.931 . S
C920 O930 1.259 . S
C920 O931 1.270 . S
C921 O932 1.251 . S
C921 O933 1.251 . S
O922 C902 1.257 . S
O922 Eu903 2.473 . S
O923 C902 1.260 . S
O923 Eu903 2.480 . S
O924 Eu903 2.430 . S
O924 C910 1.259 . S
O925 Eu903 2.670 . S
O925 C910 1.270 . S
O925 Eu913 2.355 . S
O926 Eu903 2.394 . S
O926 C911 1.251 . S
O927 C911 1.251 . S
O927 Eu913 2.374 . S
O928 C912 1.257 . S
O928 Eu913 2.473 . S
O929 C912 1.260 . S
O929 Eu913 2.480 . S
O930 Eu913 2.430 . S
O930 C920 1.259 . S
O931 Eu903 2.355 . S
O931 Eu913 2.670 . S
O931 C920 1.270 . S
O932 Eu913 2.394 . S
O932 C921 1.251 . S
O933 Eu903 2.374 . S
O933 C921 1.251 . S
H934 C905 0.931 . S
H935 C906 0.931 . S
H936 C908 0.931 . S
H937 C909 0.931 . S
H938 C915 0.931 . S
H939 C916 0.931 . S
H940 C918 0.931 . S
H941 C919 0.931 . S
C942 Eu943 2.835 . S
C942 C944 1.500 . S
C942 O962 1.257 . S
C942 O963 1.260 . S
Eu943 C942 2.835 . S
Eu943 O962 2.473 . S
Eu943 O963 2.480 . S
Eu943 O964 2.430 . S
Eu943 O965 2.670 . S
Eu943 O966 2.394 . S
Eu943 O971 2.355 . S
Eu943 O973 2.374 . S
C944 C942 1.500 . S
C944 C945 1.377 . S
C944 C949 1.377 . S
C945 C944 1.377 . S
C945 C946 1.395 . S
C945 H974 0.931 . S
C946 C945 1.395 . S
C946 C947 1.383 . S
C946 H975 0.931 . S
C947 C946 1.383 . S
C947 C948 1.394 . S
C948 C947 1.394 . S
C948 C949 1.378 . S
C948 H976 0.931 . S
C949 C944 1.377 . S
C949 C948 1.378 . S
C949 H977 0.931 . S
C950 O964 1.259 . S
C950 O965 1.270 . S
C951 O966 1.251 . S
C951 O967 1.251 . S
C952 Eu953 2.835 . S
C952 C954 1.500 . S
C952 O968 1.257 . S
C952 O969 1.260 . S
Eu953 C952 2.835 . S
Eu953 O965 2.355 . S
Eu953 O967 2.374 . S
Eu953 O968 2.473 . S
Eu953 O969 2.480 . S
Eu953 O970 2.430 . S
Eu953 O971 2.670 . S
Eu953 O972 2.394 . S
C954 C952 1.500 . S
C954 C955 1.377 . S
C954 C959 1.377 . S
C955 C954 1.377 . S
C955 C956 1.395 . S
C955 H978 0.931 . S
C956 C955 1.395 . S
C956 C957 1.383 . S
C956 H979 0.931 . S
C957 C956 1.383 . S
C957 C958 1.394 . S
C958 C957 1.394 . S
C958 C959 1.378 . S
C958 H980 0.931 . S
C959 C954 1.377 . S
C959 C958 1.378 . S
C959 H981 0.931 . S
C960 O970 1.259 . S
C960 O971 1.270 . S
C961 O972 1.251 . S
C961 O973 1.251 . S
O962 C942 1.257 . S
O962 Eu943 2.473 . S
O963 C942 1.260 . S
O963 Eu943 2.480 . S
O964 Eu943 2.430 . S
O964 C950 1.259 . S
O965 Eu943 2.670 . S
O965 C950 1.270 . S
O965 Eu953 2.355 . S
O966 Eu943 2.394 . S
O966 C951 1.251 . S
O967 C951 1.251 . S
O967 Eu953 2.374 . S
O968 C952 1.257 . S
O968 Eu953 2.473 . S
O969 C952 1.260 . S
O969 Eu953 2.480 . S
O970 Eu953 2.430 . S
O970 C960 1.259 . S
O971 Eu943 2.355 . S
O971 Eu953 2.670 . S
O971 C960 1.270 . S
O972 Eu953 2.394 . S
O972 C961 1.251 . S
O973 Eu943 2.374 . S
O973 C961 1.251 . S
H974 C945 0.931 . S
H975 C946 0.931 . S
H976 C948 0.931 . S
H977 C949 0.931 . S
H978 C955 0.931 . S
H979 C956 0.931 . S
H980 C958 0.931 . S
H981 C959 0.931 . S
C982 Eu983 2.835 . S
C982 C984 1.500 . S
C982 O1002 1.257 . S
C982 O1003 1.260 . S
Eu983 C982 2.835 . S
Eu983 O1002 2.473 . S
Eu983 O1003 2.480 . S
Eu983 O1004 2.430 . S
Eu983 O1005 2.670 . S
Eu983 O1006 2.394 . S
Eu983 O1011 2.355 . S
Eu983 O1013 2.374 . S
C984 C982 1.500 . S
C984 C985 1.377 . S
C984 C989 1.377 . S
C985 C984 1.377 . S
C985 C986 1.395 . S
C985 H1014 0.931 . S
C986 C985 1.395 . S
C986 C987 1.383 . S
C986 H1015 0.931 . S
C987 C986 1.383 . S
C987 C988 1.394 . S
C988 C987 1.394 . S
C988 C989 1.378 . S
C988 H1016 0.931 . S
C989 C984 1.377 . S
C989 C988 1.378 . S
C989 H1017 0.931 . S
C990 O1004 1.259 . S
C990 O1005 1.270 . S
C991 O1006 1.251 . S
C991 O1007 1.251 . S
C992 Eu993 2.835 . S
C992 C994 1.500 . S
C992 O1008 1.257 . S
C992 O1009 1.260 . S
Eu993 C992 2.835 . S
Eu993 O1005 2.355 . S
Eu993 O1007 2.374 . S
Eu993 O1008 2.473 . S
Eu993 O1009 2.480 . S
Eu993 O1010 2.430 . S
Eu993 O1011 2.670 . S
Eu993 O1012 2.394 . S
C994 C992 1.500 . S
C994 C995 1.377 . S
C994 C999 1.377 . S
C995 C994 1.377 . S
C995 C996 1.395 . S
C995 H1018 0.931 . S
C996 C995 1.395 . S
C996 C997 1.383 . S
C996 H1019 0.931 . S
C997 C996 1.383 . S
C997 C998 1.394 . S
C998 C997 1.394 . S
C998 C999 1.378 . S
C998 H1020 0.931 . S
C999 C994 1.377 . S
C999 C998 1.378 . S
C999 H1021 0.931 . S
C1000 O1010 1.259 . S
C1000 O1011 1.270 . S
C1001 O1012 1.251 . S
C1001 O1013 1.251 . S
O1002 C982 1.257 . S
O1002 Eu983 2.473 . S
O1003 C982 1.260 . S
O1003 Eu983 2.480 . S
O1004 Eu983 2.430 . S
O1004 C990 1.259 . S
O1005 Eu983 2.670 . S
O1005 C990 1.270 . S
O1005 Eu993 2.355 . S
O1006 Eu983 2.394 . S
O1006 C991 1.251 . S
O1007 C991 1.251 . S
O1007 Eu993 2.374 . S
O1008 C992 1.257 . S
O1008 Eu993 2.473 . S
O1009 C992 1.260 . S
O1009 Eu993 2.480 . S
O1010 Eu993 2.430 . S
O1010 C1000 1.259 . S
O1011 Eu983 2.355 . S
O1011 Eu993 2.670 . S
O1011 C1000 1.270 . S
O1012 Eu993 2.394 . S
O1012 C1001 1.251 . S
O1013 Eu983 2.374 . S
O1013 C1001 1.251 . S
H1014 C985 0.931 . S
H1015 C986 0.931 . S
H1016 C988 0.931 . S
H1017 C989 0.931 . S
H1018 C995 0.931 . S
H1019 C996 0.931 . S
H1020 C998 0.931 . S
H1021 C999 0.931 . S
C1022 Eu1023 2.835 . S
C1022 C1024 1.500 . S
C1022 O1042 1.257 . S
C1022 O1043 1.260 . S
Eu1023 C1022 2.835 . S
Eu1023 O1042 2.473 . S
Eu1023 O1043 2.480 . S
Eu1023 O1044 2.430 . S
Eu1023 O1045 2.670 . S
Eu1023 O1046 2.394 . S
Eu1023 O1051 2.355 . S
Eu1023 O1053 2.374 . S
C1024 C1022 1.500 . S
C1024 C1025 1.377 . S
C1024 C1029 1.377 . S
C1025 C1024 1.377 . S
C1025 C1026 1.395 . S
C1025 H1054 0.931 . S
C1026 C1025 1.395 . S
C1026 C1027 1.383 . S
C1026 H1055 0.931 . S
C1027 C1026 1.383 . S
C1027 C1028 1.394 . S
C1028 C1027 1.394 . S
C1028 C1029 1.378 . S
C1028 H1056 0.931 . S
C1029 C1024 1.377 . S
C1029 C1028 1.378 . S
C1029 H1057 0.931 . S
C1030 O1044 1.259 . S
C1030 O1045 1.270 . S
C1031 O1046 1.251 . S
C1031 O1047 1.251 . S
C1032 Eu1033 2.835 . S
C1032 C1034 1.500 . S
C1032 O1048 1.257 . S
C1032 O1049 1.260 . S
Eu1033 C1032 2.835 . S
Eu1033 O1045 2.355 . S
Eu1033 O1047 2.374 . S
Eu1033 O1048 2.473 . S
Eu1033 O1049 2.480 . S
Eu1033 O1050 2.430 . S
Eu1033 O1051 2.670 . S
Eu1033 O1052 2.394 . S
C1034 C1032 1.500 . S
C1034 C1035 1.377 . S
C1034 C1039 1.377 . S
C1035 C1034 1.377 . S
C1035 C1036 1.395 . S
C1035 H1058 0.931 . S
C1036 C1035 1.395 . S
C1036 C1037 1.383 . S
C1036 H1059 0.931 . S
C1037 C1036 1.383 . S
C1037 C1038 1.394 . S
C1038 C1037 1.394 . S
C1038 C1039 1.378 . S
C1038 H1060 0.931 . S
C1039 C1034 1.377 . S
C1039 C1038 1.378 . S
C1039 H1061 0.931 . S
C1040 O1050 1.259 . S
C1040 O1051 1.270 . S
C1041 O1052 1.251 . S
C1041 O1053 1.251 . S
O1042 C1022 1.257 . S
O1042 Eu1023 2.473 . S
O1043 C1022 1.260 . S
O1043 Eu1023 2.480 . S
O1044 Eu1023 2.430 . S
O1044 C1030 1.259 . S
O1045 Eu1023 2.670 . S
O1045 C1030 1.270 . S
O1045 Eu1033 2.355 . S
O1046 Eu1023 2.394 . S
O1046 C1031 1.251 . S
O1047 C1031 1.251 . S
O1047 Eu1033 2.374 . S
O1048 C1032 1.257 . S
O1048 Eu1033 2.473 . S
O1049 C1032 1.260 . S
O1049 Eu1033 2.480 . S
O1050 Eu1033 2.430 . S
O1050 C1040 1.259 . S
O1051 Eu1023 2.355 . S
O1051 Eu1033 2.670 . S
O1051 C1040 1.270 . S
O1052 Eu1033 2.394 . S
O1052 C1041 1.251 . S
O1053 Eu1023 2.374 . S
O1053 C1041 1.251 . S
H1054 C1025 0.931 . S
H1055 C1026 0.931 . S
H1056 C1028 0.931 . S
H1057 C1029 0.931 . S
H1058 C1035 0.931 . S
H1059 C1036 0.931 . S
H1060 C1038 0.931 . S
H1061 C1039 0.931 . S
C528 C711 2.273 . S
C562 C751 2.112 . S
C484 C790 2.613 . S
C445 C750 2.235 . S
C791 C367 1.829 . S
C411 C710 2.399 . S
C721 C450 2.253 . S
C761 C372 2.073 . S
C406 C800 2.611 . S
C523 C760 2.226 . S
C567 C801 1.773 . S
C720 C489 2.371 . S
C831 C60 2.274 . S
C94 C871 2.111 . S
C16 C910 2.612 . S
C679 C870 2.236 . S
C601 C911 1.829 . S
C645 C830 2.400 . S
C684 C841 2.254 . S
C606 C881 2.073 . S
C920 C640 2.605 . S
C55 C880 2.226 . S
C921 C99 1.772 . S
C21 C840 2.371 . S
C951 C294 2.274 . S
C328 C991 2.112 . S
C1030 C250 2.613 . S
C990 C211 2.235 . S
C1031 C133 1.828 . S
C177 C950 2.399 . S
C216 C961 2.253 . S
C138 C1001 2.072 . S
C1040 C172 2.604 . S
C289 C1000 2.227 . S
C333 C1041 1.773 . S
C255 C960 2.372 . S
C586 C707 1.562 . S
C747 C625 2.200 1_455 S
C664 C797 1.653 . S
C235 C757 2.190 1_455 S
C274 C787 1.647 . S
C717 C313 1.576 . S
C118 C827 1.557 . S
C157 C867 2.200 . S
C196 C917 1.653 . S
C469 C877 2.190 . S
C907 C508 1.647 . S
C547 C837 1.561 . S
C352 C947 1.558 . S
C391 C987 2.200 . S
C1037 C430 1.653 . S
C1 C997 2.190 . S
C40 C1027 1.647 . S
C79 C957 1.561 . S
