# Generated by pormake.
# Topology tsx, (6,3)-cn, num edge types: 1
# Building blocks:
#     Node 0, Type 0, BuildingBlock: CIFDUS_clean_sbu_1, # of connection points: 6
#     Node 1, Type 0, BuildingBlock: CIFDUS_clean_sbu_1, # of connection points: 6
#     Node 2, Type 1, BuildingBlock: QEWDON_clean_linker_0, # of connection points: 3
#     Node 3, Type 1, BuildingBlock: QEWDON_clean_linker_0, # of connection points: 3
#     Node 4, Type 1, BuildingBlock: QEWDON_clean_linker_0, # of connection points: 3
#     Node 5, Type 1, BuildingBlock: QEWDON_clean_linker_0, # of connection points: 3
#     Edge 6, Type (0, 1), BuildingBlock: KIFKEQ_clean_linker_1, # of connection points: 2
#     Edge 7, Type (0, 1), BuildingBlock: KIFKEQ_clean_linker_1, # of connection points: 2
#     Edge 8, Type (0, 1), BuildingBlock: KIFKEQ_clean_linker_1, # of connection points: 2
#     Edge 9, Type (0, 1), BuildingBlock: KIFKEQ_clean_linker_1, # of connection points: 2
#     Edge 10, Type (0, 1), BuildingBlock: KIFKEQ_clean_linker_1, # of connection points: 2
#     Edge 11, Type (0, 1), BuildingBlock: KIFKEQ_clean_linker_1, # of connection points: 2
#     Edge 12, Type (0, 1), BuildingBlock: KIFKEQ_clean_linker_1, # of connection points: 2
#     Edge 13, Type (0, 1), BuildingBlock: KIFKEQ_clean_linker_1, # of connection points: 2
#     Edge 14, Type (0, 1), BuildingBlock: KIFKEQ_clean_linker_1, # of connection points: 2
#     Edge 15, Type (0, 1), BuildingBlock: KIFKEQ_clean_linker_1, # of connection points: 2
#     Edge 16, Type (0, 1), BuildingBlock: KIFKEQ_clean_linker_1, # of connection points: 2
#     Edge 17, Type (0, 1), BuildingBlock: KIFKEQ_clean_linker_1, # of connection points: 2
# Relax obj value: 0.104
# Max RMSD: 0.201
# Mean RMSD: 0.146
data_MOF--net-tsx--node1-CIFDUS_clean_sbu_1--node2-QEWDON_clean_linker_0--edge1-KIFKEQ_clean_linker_1
_symmetry_space_group_name_H-M    P1
_symmetry_Int_Tables_number       1
_symmetry_cell_setting            triclinic
loop_
_symmetry_equiv_pos_as_xyz
'x, y, z'
_cell_length_a     20.282572
_cell_length_b     24.50728
_cell_length_c     33.775144
_cell_angle_alpha  98.385628
_cell_angle_beta   107.84118
_cell_angle_gamma 90.534968
loop_
_atom_site_label
_atom_site_type_symbol
_atom_site_fract_x
_atom_site_fract_y
_atom_site_fract_z
_atom_type_partial_charge
O0 O 1.0009 0.07941 1.01196 0.0
Mn1 Mn 0.07956 0.02439 0.02633 0.0
O2 O 0.91841 0.03782 0.95403 0.0
Mn3 Mn 0.96451 0.97397 0.94693 0.0
O4 O 0.16013 0.97059 0.04208 0.0
O5 O 0.14658 0.08919 0.05477 0.0
Mn6 Mn 0.19475 0.08057 0.1061 0.0
O7 O 0.05632 0.01705 0.08228 0.0
O8 O 0.24238 0.01751 0.09846 0.0
O9 O 0.10446 0.03157 0.97051 0.0
O10 O 0.02694 0.97575 0.91803 0.0
O11 O 0.22634 0.14759 0.09775 0.0
O12 O 0.13074 0.07599 0.13442 0.0
C13 C 0.96912 0.91519 0.98719 0.0
C14 C 0.94183 0.07864 0.98345 0.0
C15 C 0.22042 0.97492 0.07027 0.0
C16 C 0.18229 0.135 0.06045 0.0
C17 C 0.07751 0.04254 0.12051 0.0
C18 C 0.08231 0.00636 0.93222 0.0
O19 O 1.00996 0.95961 0.99762 0.0
O20 O 0.9263 0.90765 0.94923 0.0
O21 O 0.49137 0.58199 0.51115 0.0
Mn22 Mn 0.57063 0.52687 0.52429 0.0
O23 O 0.40194 0.53799 0.45846 0.0
Mn24 Mn 0.45052 0.47768 0.44637 0.0
O25 O 0.65184 0.47346 0.53923 0.0
O26 O 0.63748 0.59183 0.55302 0.0
Mn27 Mn 0.68513 0.58248 0.60434 0.0
O28 O 0.54804 0.51825 0.58024 0.0
O29 O 0.73309 0.51961 0.59649 0.0
O30 O 0.59364 0.53452 0.46809 0.0
O31 O 0.50817 0.48595 0.41505 0.0
O32 O 0.71735 0.64962 0.5968 0.0
O33 O 0.62105 0.57768 0.63256 0.0
C34 C 0.46377 0.41612 0.48536 0.0
C35 C 0.42854 0.57946 0.48661 0.0
C36 C 0.71185 0.47758 0.56767 0.0
C37 C 0.6738 0.63752 0.5593 0.0
C38 C 0.56835 0.54374 0.61846 0.0
C39 C 0.56604 0.51351 0.42903 0.0
O40 O 0.50229 0.46166 0.49524 0.0
O41 O 0.41828 0.40886 0.44825 0.0
H42 H 0.06969 0.0447 0.4236 0.0
C43 C 0.08295 0.00483 0.43255 0.0
C44 C 0.09051 0.96273 0.40135 0.0
C45 C 0.09552 0.99622 0.47471 0.0
H46 H 0.12324 0.8802 0.38997 0.0
C47 C 0.11522 0.91244 0.4133 0.0
C48 C 0.13187 0.90374 0.45531 0.0
C49 C 0.11931 0.94482 0.48534 0.0
C50 C 0.08587 0.04111 0.50747 0.0
H51 H 0.12841 0.93579 0.51682 0.0
C52 C 0.04029 0.09653 0.49163 0.0
C53 C 0.03578 0.16783 0.55644 0.0
C54 C 0.1224 0.03775 0.55973 0.0
H55 H 0.1528 0.00296 0.5682 0.0
C56 C 0.12061 0.08441 0.60211 0.0
H57 H 0.01522 0.09525 0.45789 0.0
C58 C 0.08032 0.14477 0.60215 0.0
H59 H 0.08226 0.16894 0.63201 0.0
H60 H 0.14841 0.07415 0.63271 0.0
H61 H 0.01726 0.07692 0.63165 0.0
C62 C 1.00292 0.03661 0.61273 0.0
C63 C 0.99816 0.99165 0.63298 0.0
C64 C 0.99512 0.02869 0.56928 0.0
H65 H 0.96343 0.90632 0.62416 0.0
C66 C 0.97129 0.94041 0.60863 0.0
C67 C 0.94939 0.93456 0.56435 0.0
C68 C 0.96391 0.97825 0.54492 0.0
C69 C 1.01048 0.07916 0.54541 0.0
H70 H 0.94992 0.97349 0.5109 0.0
C71 C 0.12637 0.13021 0.54585 0.0
C72 C 0.11024 0.18038 0.51532 0.0
C73 C 0.9384 0.10929 0.51135 0.0
H74 H 0.97135 0.08976 0.53012 0.0
C75 C 0.95178 0.16166 0.48637 0.0
H76 H 0.18097 0.12532 0.56266 0.0
C77 C 0.02816 0.19338 0.48832 0.0
H78 H 0.02312 0.22609 0.46947 0.0
H79 H 0.90542 0.17715 0.46662 0.0
H80 H 0.55818 0.53845 0.9205 0.0
C81 C 0.57877 0.50058 0.93001 0.0
C82 C 0.58785 0.46005 0.89827 0.0
C83 C 0.59972 0.49325 0.97299 0.0
H84 H 0.62618 0.37978 0.88602 0.0
C85 C 0.62004 0.41209 0.90998 0.0
C86 C 0.64729 0.4058 0.95234 0.0
C87 C 0.63451 0.44508 0.98341 0.0
C88 C 0.58928 0.537 1.00666 0.0
H89 H 0.65455 0.43809 0.0155 0.0
C90 C 0.54342 0.59288 0.99192 0.0
C91 C 0.54051 0.66303 0.05823 0.0
C92 C 0.626 0.5324 0.05885 0.0
H93 H 0.65516 0.49706 0.06712 0.0
C94 C 0.62515 0.5781 0.1019 0.0
H95 H 0.51792 0.59304 0.95847 0.0
C96 C 0.58597 0.6389 0.10321 0.0
H97 H 0.5888 0.66244 0.13344 0.0
H98 H 0.65263 0.56672 0.13216 0.0
H99 H 0.51472 0.57634 0.12861 0.0
C100 C 0.49973 0.53645 0.10921 0.0
C101 C 0.4916 0.49172 0.12889 0.0
C102 C 0.49429 0.52868 0.06607 0.0
H103 H 0.45471 0.40682 0.1191 0.0
C104 C 0.46465 0.44085 0.10409 0.0
C105 C 0.44572 0.43511 0.0599 0.0
C106 C 0.46279 0.47858 0.04106 0.0
C107 C 0.5153 0.57473 0.04571 0.0
H108 H 0.45123 0.47354 1.00716 0.0
C109 C 0.63019 0.62565 0.04606 0.0
C110 C 0.61279 0.67682 0.0162 0.0
C111 C 0.44496 0.60342 0.01443 0.0
H112 H 0.39321 0.58737 1.01077 0.0
C113 C 0.45434 0.6568 0.98917 0.0
H114 H 0.6848 0.62054 0.06261 0.0
C115 C 0.52976 0.68975 0.99022 0.0
H116 H 0.52337 0.72296 0.97176 0.0
H117 H 0.40686 0.67192 0.97035 0.0
H118 H 0.24551 0.11111 1.00094 0.0
H119 H 0.13085 0.23494 0.05114 0.0
H120 H 0.30437 0.18258 0.97835 0.0
H121 H 0.18832 0.30625 0.02825 0.0
H122 H 0.31688 0.43243 1.0034 0.0
H123 H 0.23252 0.35293 0.9784 0.0
H124 H 0.39197 0.24776 0.03604 0.0
H125 H 0.47537 0.32712 0.06122 0.0
C126 C 0.22939 0.15311 1.00448 0.0
C127 C 0.18381 0.16776 0.02772 0.0
C128 C 0.26375 0.19414 0.99206 0.0
C129 C 0.25218 0.25018 1.00239 0.0
C130 C 0.19844 0.26353 0.01972 0.0
C131 C 0.16495 0.22261 0.03262 0.0
C132 C 0.33432 0.39181 1.0091 0.0
C133 C 0.40235 0.38574 0.0344 0.0
C134 C 0.28602 0.34642 0.99497 0.0
C135 C 0.30539 0.29411 1.00539 0.0
C136 C 0.37541 0.28727 0.02699 0.0
C137 C 0.42325 0.33273 0.04166 0.0
H138 H 0.35958 0.98012 0.11085 0.0
H139 H 0.19106 0.86738 0.02977 0.0
H140 H 0.43989 0.90694 0.11226 0.0
H141 H 0.27235 0.7938 0.03126 0.0
H142 H 0.42334 0.66396 0.08208 0.0
H143 H 0.34608 0.73901 0.08533 0.0
H144 H 0.49275 0.85063 0.06363 0.0
H145 H 0.57008 0.77502 0.06059 0.0
C146 C 0.33947 0.93965 0.09334 0.0
C147 C 0.26855 0.92962 0.07028 0.0
C148 C 0.38583 0.89782 0.094 0.0
C149 C 0.36251 0.84465 0.07199 0.0
C150 C 0.29168 0.83435 0.04891 0.0
C151 C 0.24521 0.87651 0.04783 0.0
C152 C 0.43856 0.70435 0.07732 0.0
C153 C 0.49977 0.71265 0.06712 0.0
C154 C 0.39435 0.74727 0.07924 0.0
C155 C 0.41194 0.80013 0.07295 0.0
C156 C 0.47689 0.80993 0.06749 0.0
C157 C 0.52084 0.76664 0.0652 0.0
H158 H 0.91899 0.94453 0.05242 0.0
H159 H 0.98489 0.80635 0.98236 0.0
H160 H 0.83518 0.88325 0.06587 0.0
H161 H 0.90071 0.74545 0.99418 0.0
H162 H 0.74163 0.64242 0.01941 0.0
H163 H 0.84619 0.69864 0.03106 0.0
H164 H 0.72623 0.84349 0.01757 0.0
H165 H 0.62161 0.78736 1.00928 0.0
C166 C 0.91858 0.90047 0.04218 0.0
C167 C 0.95798 0.88 0.01623 0.0
C168 C 0.8691 0.86557 0.04873 0.0
C169 C 0.85903 0.80976 0.02964 0.0
C170 C 0.90627 0.78809 1.00927 0.0
C171 C 0.95564 0.82291 1.00296 0.0
C172 C 0.73739 0.68649 0.02006 0.0
C173 C 0.67326 0.71057 0.01522 0.0
C174 C 0.79767 0.71877 0.02619 0.0
C175 C 0.7954 0.77601 0.02628 0.0
C176 C 0.73058 0.79985 0.01929 0.0
C177 C 0.67014 0.76745 0.01374 0.0
H178 H 0.83486 0.10385 0.91868 0.0
H179 H 0.95163 0.16318 0.04872 0.0
H180 H 0.76595 0.18465 0.91731 0.0
H181 H 0.88085 0.24432 0.0471 0.0
H182 H 0.65365 0.33689 1.01127 0.0
H183 H 0.72832 0.25858 0.02471 0.0
H184 H 0.8211 0.2949 0.93176 0.0
H185 H 0.74937 0.37342 0.9193 0.0
C186 C 0.84545 0.1338 0.94713 0.0
C187 C 0.89905 0.12719 0.98376 0.0
C188 C 0.8059 0.17997 0.94626 0.0
C189 C 0.81825 0.22023 0.98211 0.0
C190 C 0.87035 0.21337 0.01922 0.0
C191 C 0.91097 0.16731 0.01996 0.0
C192 C 0.69083 0.3286 0.99429 0.0
C193 C 0.69446 0.36052 0.96351 0.0
C194 C 0.73339 0.28401 1.00201 0.0
C195 C 0.77962 0.27087 0.9789 0.0
C196 C 0.78521 0.30408 0.94958 0.0
C197 C 0.74363 0.34863 0.94223 0.0
H198 H 0.62419 0.73787 0.54913 0.0
H199 H 0.74018 0.6127 0.50155 0.0
H200 H 0.68615 0.80868 0.52855 0.0
H201 H 0.80357 0.68364 0.48138 0.0
H202 H 0.82183 0.93295 0.50649 0.0
H203 H 0.73587 0.85467 0.48032 0.0
H204 H 0.8898 0.74773 0.54135 0.0
H205 H 0.97501 0.8259 0.56766 0.0
C206 C 0.65962 0.72518 0.5316 0.0
C207 C 0.6775 0.67005 0.52687 0.0
C208 C 0.69572 0.76581 0.52007 0.0
C209 C 0.75101 0.75184 0.50429 0.0
C210 C 0.76177 0.69565 0.49393 0.0
C211 C 0.72479 0.65492 0.50491 0.0
C212 C 0.83784 0.89222 0.51287 0.0
C213 C 0.90481 0.88539 0.53937 0.0
C214 C 0.78859 0.84752 0.49802 0.0
C215 C 0.80588 0.79509 0.50887 0.0
C216 C 0.87491 0.7874 0.53196 0.0
C217 C 0.92371 0.8322 0.54734 0.0
H218 H 0.68337 0.37004 0.52709 0.0
H219 H 0.85133 0.4839 0.60728 0.0
H220 H 0.76546 0.2971 0.52816 0.0
H221 H 0.9325 0.41137 0.60824 0.0
H222 H 0.06343 0.27976 0.55692 0.0
H223 H 0.98519 0.35488 0.55929 0.0
H224 H 0.8404 0.24322 0.58266 0.0
H225 H 0.91854 0.16867 0.5801 0.0
C226 C 0.73758 0.37956 0.54484 0.0
C227 C 0.76053 0.43276 0.56723 0.0
C228 C 0.78452 0.33778 0.54567 0.0
C229 C 0.85543 0.34856 0.5684 0.0
C230 C 0.87839 0.40187 0.59025 0.0
C231 C 0.83155 0.44332 0.58987 0.0
C232 C 0.01436 0.27122 0.56168 0.0
C233 C 0.99414 0.2173 0.56437 0.0
C234 C 0.9699 0.31425 0.56361 0.0
C235 C 0.90524 0.3043 0.56941 0.0
C236 C 0.88841 0.25158 0.5763 0.0
C237 C 0.93314 0.20893 0.57477 0.0
H238 H 0.48065 0.30715 0.47865 0.0
H239 H 0.42129 0.4436 0.55376 0.0
H240 H 0.39774 0.24579 0.49138 0.0
H241 H 0.33874 0.38193 0.56786 0.0
H242 H 0.12195 0.29083 0.50925 0.0
H243 H 0.22801 0.34537 0.518 0.0
H244 H 0.34377 0.19821 0.52922 0.0
H245 H 0.23769 0.14359 0.51776 0.0
C246 C 0.45335 0.32312 0.50051 0.0
C247 C 0.45663 0.38003 0.5148 0.0
C248 C 0.4047 0.28807 0.50732 0.0
C249 C 0.35933 0.30943 0.5292 0.0
C250 C 0.37119 0.36464 0.54956 0.0
C251 C 0.42001 0.39971 0.54259 0.0
C252 C 0.16987 0.27009 0.51342 0.0
C253 C 0.17145 0.21307 0.51433 0.0
C254 C 0.23109 0.30152 0.51919 0.0
C255 C 0.29511 0.27652 0.52571 0.0
C256 C 0.29586 0.21912 0.52488 0.0
C257 C 0.23479 0.18782 0.51873 0.0
H258 H 0.46821 0.68929 0.51355 0.0
H259 H 0.28871 0.57457 0.46895 0.0
H260 H 0.39236 0.76636 0.51227 0.0
H261 H 0.2132 0.65084 0.46961 0.0
H262 H 0.1029 0.79733 0.41407 0.0
H263 H 0.17416 0.71903 0.42752 0.0
H264 H 0.31225 0.81695 0.53982 0.0
H265 H 0.24281 0.89655 0.52475 0.0
C266 C 0.41263 0.68059 0.50427 0.0
C267 C 0.38425 0.62611 0.4906 0.0
C268 C 0.36907 0.72467 0.50378 0.0
C269 C 0.29638 0.71496 0.49027 0.0
C270 C 0.26866 0.66007 0.47905 0.0
C271 C 0.31198 0.61628 0.47882 0.0
C272 C 0.14828 0.80211 0.44175 0.0
C273 C 0.16761 0.8534 0.46798 0.0
C274 C 0.18888 0.75693 0.44982 0.0
C275 C 0.24952 0.76161 0.48467 0.0
C276 C 0.26667 0.81209 0.51229 0.0
C277 C 0.22622 0.85751 0.504 0.0
H278 H 0.04637 0.11242 0.18128 0.0
H279 H 0.04664 0.93938 0.13342 0.0
H280 H 0.03435 0.089 0.24666 0.0
H281 H 0.03609 0.91577 0.19946 0.0
H282 H 0.15932 0.92486 0.34488 0.0
H283 H 0.13309 0.93817 0.27191 0.0
H284 H 0.96262 0.03674 0.28277 0.0
H285 H 0.98634 0.02123 0.35569 0.0
C286 C 0.04114 0.06926 0.1842 0.0
C287 C 0.04733 0.02769 0.15236 0.0
C288 C 0.03445 0.05585 0.22166 0.0
C289 C 0.0353 0.00063 0.22837 0.0
C290 C 0.03588 0.95873 0.19519 0.0
C291 C 0.04109 0.97215 0.15725 0.0
C292 C 0.115 0.94817 0.3317 0.0
C293 C 0.07477 0.97163 0.35651 0.0
C294 C 0.10003 0.95579 0.28971 0.0
C295 C 0.04526 0.9879 0.27147 0.0
C296 C 1.00501 0.01161 0.29602 0.0
C297 C 0.01919 0.00317 0.33793 0.0
H298 H 0.1347 0.92961 0.88715 0.0
H299 H 0.0944 0.10234 0.90259 0.0
H300 H 0.1271 0.93092 0.8145 0.0
H301 H 0.08987 0.10515 0.8297 0.0
H302 H 0.95626 0.06195 0.68995 0.0
H303 H 1.00252 0.07408 0.76661 0.0
H304 H 0.15251 0.95249 0.75689 0.0
H305 H 0.10259 0.93834 0.68038 0.0
C306 C 0.12869 0.96885 0.87558 0.0
C307 C 0.11505 0.01578 0.90038 0.0
C308 C 0.12363 0.96967 0.83354 0.0
C309 C 0.10548 0.01777 0.81539 0.0
C310 C 0.1015 0.0668 0.84208 0.0
C311 C 0.10598 0.06574 0.88426 0.0
C312 C 0.99876 0.03766 0.70448 0.0
C313 C 0.02483 -0.00172 0.67953 0.0
C314 C 0.02631 0.0452 0.74844 0.0
C315 C 0.08172 0.01436 0.76846 0.0
C316 C 0.10908 0.97625 0.743 0.0
C317 C 0.08046 0.96792 0.69912 0.0
H318 H 0.53663 0.61265 0.67961 0.0
H319 H 0.53707 0.44013 0.63028 0.0
H320 H 0.52344 0.58789 0.74441 0.0
H321 H 0.52549 0.41529 0.69571 0.0
H322 H 0.65645 0.42753 0.8409 0.0
H323 H 0.62684 0.44127 0.76809 0.0
H324 H 0.45017 0.53072 0.78006 0.0
H325 H 0.4769 0.51401 0.85303 0.0
C326 C 0.53114 0.56935 0.68204 0.0
C327 C 0.53782 0.52828 0.65001 0.0
C328 C 0.52365 0.5552 0.71913 0.0
C329 C 0.52424 0.49975 0.72523 0.0
C330 C 0.52515 0.45839 0.69179 0.0
C331 C 0.53112 0.47254 0.65424 0.0
C332 C 0.60981 0.44856 0.82803 0.0
C333 C 0.56865 0.46893 0.85321 0.0
C334 C 0.59304 0.45653 0.7861 0.0
C335 C 0.53562 0.48628 0.76821 0.0
C336 C 0.49446 0.50722 0.79306 0.0
C337 C 0.51033 0.49813 0.83498 0.0
H338 H 0.5792 0.60755 0.39727 0.0
H339 H 0.61666 0.43419 0.38514 0.0
H340 H 0.57627 0.60758 0.32432 0.0
H341 H 0.61025 0.43271 0.31234 0.0
H342 H 0.59168 0.43663 0.17815 0.0
H343 H 0.63816 0.45142 0.25483 0.0
H344 H 0.49049 0.57628 0.26089 0.0
H345 H 0.44779 0.56343 0.18414 0.0
C346 C 0.59039 0.57016 0.37961 0.0
C347 C 0.59865 0.52096 0.39676 0.0
C348 C 0.58681 0.56963 0.3374 0.0
C349 C 0.5905 0.51968 0.3116 0.0
C350 C 0.60719 0.47211 0.33068 0.0
C351 C 0.61155 0.47292 0.3728 0.0
C352 C 0.56923 0.46701 0.19613 0.0
C353 C 0.5154 0.49818 0.17547 0.0
C354 C 0.59589 0.47572 0.24012 0.0
C355 C 0.56831 0.51508 0.2646 0.0
C356 C 0.51448 0.54647 0.24351 0.0
C357 C 0.48892 0.53852 0.19949 0.0
loop_
_geom_bond_atom_site_label_1
_geom_bond_atom_site_label_2
_geom_bond_distance
_geom_bond_site_symmetry_2
_ccdc_geom_bond_type
O0 Mn1 2.163 . S
O0 C14 1.244 1_454 S
Mn1 O0 2.163 . S
Mn1 O4 2.160 1_545 S
Mn1 O5 2.221 . S
Mn1 O7 2.163 1_545 S
Mn1 O9 2.160 1_554 S
Mn1 O19 2.221 1_444 S
O2 Mn3 2.087 1_545 S
O2 C14 1.256 . S
Mn3 O2 2.087 1_565 S
Mn3 O10 2.089 1_565 S
Mn3 O19 2.290 . S
Mn3 O20 2.251 . S
O4 Mn1 2.160 1_565 S
O4 C15 1.239 . S
O5 Mn1 2.221 . S
O5 Mn6 2.290 . S
O5 C16 1.278 . S
Mn6 O5 2.290 . S
Mn6 O8 2.089 1_545 S
Mn6 O11 2.251 . S
Mn6 O12 2.087 . S
O7 Mn1 2.163 1_565 S
O7 C17 1.244 1_565 S
O8 Mn6 2.089 1_565 S
O8 C15 1.256 . S
O9 Mn1 2.160 1_556 S
O9 C18 1.239 . S
O10 Mn3 2.089 1_545 S
O10 C18 1.256 1_655 S
O11 Mn6 2.251 . S
O11 C16 1.241 . S
O12 Mn6 2.087 . S
O12 C17 1.256 . S
C13 O19 1.278 . S
C13 O20 1.241 . S
C14 O0 1.244 1_656 S
C14 O2 1.256 . S
C15 O4 1.239 . S
C15 O8 1.256 . S
C16 O5 1.278 . S
C16 O11 1.241 . S
C17 O7 1.244 1_545 S
C17 O12 1.256 . S
C18 O9 1.239 . S
C18 O10 1.256 1_455 S
O19 Mn1 2.221 1_666 S
O19 Mn3 2.290 . S
O19 C13 1.278 . S
O20 Mn3 2.251 . S
O20 C13 1.241 . S
O21 Mn22 2.163 . S
O21 C35 1.244 . S
Mn22 O21 2.163 . S
Mn22 O25 2.160 . S
Mn22 O26 2.221 . S
Mn22 O28 2.163 . S
Mn22 O30 2.160 . S
Mn22 O40 2.221 . S
O23 Mn24 2.087 . S
O23 C35 1.256 . S
Mn24 O23 2.087 . S
Mn24 O31 2.089 . S
Mn24 O40 2.290 . S
Mn24 O41 2.251 . S
O25 Mn22 2.160 . S
O25 C36 1.239 . S
O26 Mn22 2.221 . S
O26 Mn27 2.290 . S
O26 C37 1.278 . S
Mn27 O26 2.290 . S
Mn27 O29 2.089 . S
Mn27 O32 2.251 . S
Mn27 O33 2.087 . S
O28 Mn22 2.163 . S
O28 C38 1.244 . S
O29 Mn27 2.089 . S
O29 C36 1.256 . S
O30 Mn22 2.160 . S
O30 C39 1.239 . S
O31 Mn24 2.089 . S
O31 C39 1.256 . S
O32 Mn27 2.251 . S
O32 C37 1.241 . S
O33 Mn27 2.087 . S
O33 C38 1.256 . S
C34 O40 1.278 . S
C34 O41 1.241 . S
C35 O21 1.244 . S
C35 O23 1.256 . S
C36 O25 1.239 . S
C36 O29 1.256 . S
C37 O26 1.278 . S
C37 O32 1.241 . S
C38 O28 1.244 . S
C38 O33 1.256 . S
C39 O30 1.239 . S
C39 O31 1.256 . S
O40 Mn22 2.221 . S
O40 Mn24 2.290 . S
O40 C34 1.278 . S
O41 Mn24 2.251 . S
O41 C34 1.241 . S
H42 C43 0.949 . S
C43 H42 0.949 . S
C43 C44 1.395 1_545 S
C43 C45 1.391 . S
C44 C43 1.395 1_565 S
C44 C47 1.390 . S
C45 C43 1.391 . S
C45 C49 1.387 1_545 S
C45 C50 1.491 . S
H46 C47 0.950 . S
C47 C44 1.390 . S
C47 H46 0.950 . S
C47 C48 1.378 . S
C48 C47 1.378 . S
C48 C49 1.409 . S
C49 C45 1.387 1_565 S
C49 C48 1.409 . S
C49 H51 0.951 . S
C50 C45 1.491 . S
C50 C52 1.382 . S
C50 C54 1.404 . S
H51 C49 0.951 . S
C52 C50 1.382 . S
C52 C53 1.390 1_455 S
C52 H57 0.949 1_455 S
C53 C52 1.390 1_655 S
C53 C58 1.399 1_655 S
C54 C50 1.404 . S
C54 H55 0.950 . S
C54 C56 1.375 . S
H55 C54 0.950 . S
C56 C54 1.375 . S
C56 C58 1.382 . S
C56 H60 0.950 . S
H57 C52 0.949 1_655 S
C58 C53 1.399 1_455 S
C58 C56 1.382 . S
C58 H59 0.952 . S
H59 C58 0.952 . S
H60 C56 0.950 . S
H61 C62 0.951 . S
C62 H61 0.951 . S
C62 C63 1.393 1_455 S
C62 C64 1.391 1_455 S
C63 C62 1.393 1_655 S
C63 C66 1.390 1_545 S
C64 C62 1.391 1_655 S
C64 C68 1.387 . S
C64 C69 1.491 1_655 S
H65 C66 0.950 . S
C66 C63 1.390 1_565 S
C66 H65 0.950 . S
C66 C67 1.378 . S
C67 C66 1.378 . S
C67 C68 1.409 1_565 S
C68 C64 1.387 . S
C68 C67 1.409 1_545 S
C68 H70 0.951 . S
C69 C64 1.491 1_455 S
C69 C71 1.382 . S
C69 C73 1.404 1_455 S
H70 C68 0.951 . S
C71 C69 1.382 . S
C71 C72 1.390 . S
C71 H76 0.949 . S
C72 C71 1.390 . S
C72 C77 1.399 . S
C73 C69 1.404 1_655 S
C73 H74 0.950 . S
C73 C75 1.375 . S
H74 C73 0.950 . S
C75 C73 1.375 . S
C75 C77 1.382 1_655 S
C75 H79 0.950 . S
H76 C71 0.949 . S
C77 C72 1.399 . S
C77 C75 1.382 1_455 S
C77 H78 0.952 . S
H78 C77 0.952 . S
H79 C75 0.950 . S
H80 C81 0.949 . S
C81 H80 0.949 . S
C81 C82 1.395 . S
C81 C83 1.391 . S
C82 C81 1.395 . S
C82 C85 1.390 . S
C83 C81 1.391 . S
C83 C87 1.387 . S
C83 C88 1.491 1_556 S
H84 C85 0.950 . S
C85 C82 1.390 . S
C85 H84 0.950 . S
C85 C86 1.378 . S
C86 C85 1.378 . S
C86 C87 1.409 . S
C87 C83 1.387 . S
C87 C86 1.409 . S
C87 H89 0.951 1_556 S
C88 C83 1.491 1_554 S
C88 C90 1.382 1_554 S
C88 C92 1.404 . S
H89 C87 0.951 1_554 S
C90 C88 1.382 1_556 S
C90 C91 1.390 1_556 S
C90 H95 0.949 . S
C91 C90 1.390 1_554 S
C91 C96 1.399 . S
C92 C88 1.404 . S
C92 H93 0.950 . S
C92 C94 1.375 . S
H93 C92 0.950 . S
C94 C92 1.375 . S
C94 C96 1.382 . S
C94 H98 0.950 . S
H95 C90 0.949 . S
C96 C91 1.399 . S
C96 C94 1.382 . S
C96 H97 0.952 . S
H97 C96 0.952 . S
H98 C94 0.950 . S
H99 C100 0.949 . S
C100 H99 0.949 . S
C100 C101 1.395 . S
C100 C102 1.391 . S
C101 C100 1.395 . S
C101 C104 1.390 . S
C102 C100 1.391 . S
C102 C106 1.387 . S
C102 C107 1.491 . S
H103 C104 0.950 . S
C104 C101 1.390 . S
C104 H103 0.950 . S
C104 C105 1.378 . S
C105 C104 1.378 . S
C105 C106 1.409 . S
C106 C102 1.387 . S
C106 C105 1.409 . S
C106 H108 0.951 . S
C107 C102 1.491 . S
C107 C109 1.382 . S
C107 C111 1.404 1_554 S
H108 C106 0.951 . S
C109 C107 1.382 . S
C109 C110 1.390 . S
C109 H114 0.949 . S
C110 C109 1.390 . S
C110 C115 1.399 1_554 S
C111 C107 1.404 1_556 S
C111 H112 0.950 . S
C111 C113 1.375 . S
H112 C111 0.950 . S
C113 C111 1.375 . S
C113 C115 1.382 . S
C113 H117 0.950 . S
H114 C109 0.949 . S
C115 C110 1.399 1_556 S
C115 C113 1.382 . S
C115 H116 0.952 . S
H116 C115 0.952 . S
H117 C113 0.950 . S
H118 C126 0.950 . S
H119 C131 0.950 . S
H120 C128 0.950 . S
H121 C130 0.950 . S
H122 C132 0.950 . S
H123 C134 0.950 . S
H124 C136 0.950 . S
H125 C137 0.950 . S
C126 H118 0.950 . S
C126 C127 1.386 . S
C126 C128 1.391 . S
C127 C126 1.386 . S
C127 C131 1.393 . S
C128 H120 0.950 . S
C128 C126 1.391 . S
C128 C129 1.400 . S
C129 C128 1.400 . S
C129 C130 1.398 . S
C129 C135 1.491 . S
C130 H121 0.950 . S
C130 C129 1.398 . S
C130 C131 1.391 . S
C131 H119 0.950 . S
C131 C127 1.393 . S
C131 C130 1.391 . S
C132 H122 0.950 . S
C132 C133 1.386 . S
C132 C134 1.391 . S
C133 C132 1.386 . S
C133 C137 1.393 . S
C134 H123 0.950 . S
C134 C132 1.391 . S
C134 C135 1.400 . S
C135 C129 1.491 . S
C135 C134 1.400 . S
C135 C136 1.398 . S
C136 H124 0.950 . S
C136 C135 1.398 . S
C136 C137 1.391 . S
C137 H125 0.950 . S
C137 C133 1.393 . S
C137 C136 1.391 . S
H138 C146 0.950 . S
H139 C151 0.950 . S
H140 C148 0.950 . S
H141 C150 0.950 . S
H142 C152 0.950 . S
H143 C154 0.950 . S
H144 C156 0.950 . S
H145 C157 0.950 . S
C146 H138 0.950 . S
C146 C147 1.386 . S
C146 C148 1.391 . S
C147 C146 1.386 . S
C147 C151 1.393 . S
C148 H140 0.950 . S
C148 C146 1.391 . S
C148 C149 1.400 . S
C149 C148 1.400 . S
C149 C150 1.398 . S
C149 C155 1.491 . S
C150 H141 0.950 . S
C150 C149 1.398 . S
C150 C151 1.391 . S
C151 H139 0.950 . S
C151 C147 1.393 . S
C151 C150 1.391 . S
C152 H142 0.950 . S
C152 C153 1.386 . S
C152 C154 1.391 . S
C153 C152 1.386 . S
C153 C157 1.393 . S
C154 H143 0.950 . S
C154 C152 1.391 . S
C154 C155 1.400 . S
C155 C149 1.491 . S
C155 C154 1.400 . S
C155 C156 1.398 . S
C156 H144 0.950 . S
C156 C155 1.398 . S
C156 C157 1.391 . S
C157 H145 0.950 . S
C157 C153 1.393 . S
C157 C156 1.391 . S
H158 C166 0.950 . S
H159 C171 0.950 . S
H160 C168 0.950 . S
H161 C170 0.950 . S
H162 C172 0.950 1_556 S
H163 C174 0.950 1_556 S
H164 C176 0.950 . S
H165 C177 0.950 . S
C166 H158 0.950 . S
C166 C167 1.386 . S
C166 C168 1.391 . S
C167 C166 1.386 . S
C167 C171 1.393 1_554 S
C168 H160 0.950 . S
C168 C166 1.391 . S
C168 C169 1.400 . S
C169 C168 1.400 . S
C169 C170 1.398 1_554 S
C169 C175 1.491 . S
C170 H161 0.950 . S
C170 C169 1.398 1_556 S
C170 C171 1.391 . S
C171 H159 0.950 . S
C171 C167 1.393 1_556 S
C171 C170 1.391 . S
C172 H162 0.950 1_554 S
C172 C173 1.386 . S
C172 C174 1.391 . S
C173 C172 1.386 . S
C173 C177 1.393 . S
C174 H163 0.950 1_554 S
C174 C172 1.391 . S
C174 C175 1.400 . S
C175 C169 1.491 . S
C175 C174 1.400 . S
C175 C176 1.398 . S
C176 H164 0.950 . S
C176 C175 1.398 . S
C176 C177 1.391 . S
C177 H165 0.950 . S
C177 C173 1.393 . S
C177 C176 1.391 . S
H178 C186 0.950 . S
H179 C191 0.950 . S
H180 C188 0.950 . S
H181 C190 0.950 . S
H182 C192 0.950 . S
H183 C194 0.950 . S
H184 C196 0.950 . S
H185 C197 0.950 . S
C186 H178 0.950 . S
C186 C187 1.386 . S
C186 C188 1.391 . S
C187 C186 1.386 . S
C187 C191 1.393 1_556 S
C188 H180 0.950 . S
C188 C186 1.391 . S
C188 C189 1.400 . S
C189 C188 1.400 . S
C189 C190 1.398 1_556 S
C189 C195 1.491 . S
C190 H181 0.950 . S
C190 C189 1.398 1_554 S
C190 C191 1.391 . S
C191 H179 0.950 . S
C191 C187 1.393 1_554 S
C191 C190 1.391 . S
C192 H182 0.950 . S
C192 C193 1.386 1_554 S
C192 C194 1.391 . S
C193 C192 1.386 1_556 S
C193 C197 1.393 . S
C194 H183 0.950 . S
C194 C192 1.391 . S
C194 C195 1.400 1_554 S
C195 C189 1.491 . S
C195 C194 1.400 1_556 S
C195 C196 1.398 . S
C196 H184 0.950 . S
C196 C195 1.398 . S
C196 C197 1.391 . S
C197 H185 0.950 . S
C197 C193 1.393 . S
C197 C196 1.391 . S
H198 C206 0.950 . S
H199 C211 0.950 . S
H200 C208 0.950 . S
H201 C210 0.950 . S
H202 C212 0.950 . S
H203 C214 0.950 . S
H204 C216 0.950 . S
H205 C217 0.950 . S
C206 H198 0.950 . S
C206 C207 1.386 . S
C206 C208 1.391 . S
C207 C206 1.386 . S
C207 C211 1.393 . S
C208 H200 0.950 . S
C208 C206 1.391 . S
C208 C209 1.400 . S
C209 C208 1.400 . S
C209 C210 1.398 . S
C209 C215 1.491 . S
C210 H201 0.950 . S
C210 C209 1.398 . S
C210 C211 1.391 . S
C211 H199 0.950 . S
C211 C207 1.393 . S
C211 C210 1.391 . S
C212 H202 0.950 . S
C212 C213 1.386 . S
C212 C214 1.391 . S
C213 C212 1.386 . S
C213 C217 1.393 . S
C214 H203 0.950 . S
C214 C212 1.391 . S
C214 C215 1.400 . S
C215 C209 1.491 . S
C215 C214 1.400 . S
C215 C216 1.398 . S
C216 H204 0.950 . S
C216 C215 1.398 . S
C216 C217 1.391 . S
C217 H205 0.950 . S
C217 C213 1.393 . S
C217 C216 1.391 . S
H218 C226 0.950 . S
H219 C231 0.950 . S
H220 C228 0.950 . S
H221 C230 0.950 . S
H222 C232 0.950 1_455 S
H223 C234 0.950 . S
H224 C236 0.950 . S
H225 C237 0.950 . S
C226 H218 0.950 . S
C226 C227 1.386 . S
C226 C228 1.391 . S
C227 C226 1.386 . S
C227 C231 1.393 . S
C228 H220 0.950 . S
C228 C226 1.391 . S
C228 C229 1.400 . S
C229 C228 1.400 . S
C229 C230 1.398 . S
C229 C235 1.491 . S
C230 H221 0.950 . S
C230 C229 1.398 . S
C230 C231 1.391 . S
C231 H219 0.950 . S
C231 C227 1.393 . S
C231 C230 1.391 . S
C232 H222 0.950 1_655 S
C232 C233 1.386 . S
C232 C234 1.391 . S
C233 C232 1.386 . S
C233 C237 1.393 . S
C234 H223 0.950 . S
C234 C232 1.391 . S
C234 C235 1.400 . S
C235 C229 1.491 . S
C235 C234 1.400 . S
C235 C236 1.398 . S
C236 H224 0.950 . S
C236 C235 1.398 . S
C236 C237 1.391 . S
C237 H225 0.950 . S
C237 C233 1.393 . S
C237 C236 1.391 . S
H238 C246 0.950 . S
H239 C251 0.950 . S
H240 C248 0.950 . S
H241 C250 0.950 . S
H242 C252 0.950 . S
H243 C254 0.950 . S
H244 C256 0.950 . S
H245 C257 0.950 . S
C246 H238 0.950 . S
C246 C247 1.386 . S
C246 C248 1.391 . S
C247 C246 1.386 . S
C247 C251 1.393 . S
C248 H240 0.950 . S
C248 C246 1.391 . S
C248 C249 1.400 . S
C249 C248 1.400 . S
C249 C250 1.398 . S
C249 C255 1.491 . S
C250 H241 0.950 . S
C250 C249 1.398 . S
C250 C251 1.391 . S
C251 H239 0.950 . S
C251 C247 1.393 . S
C251 C250 1.391 . S
C252 H242 0.950 . S
C252 C253 1.386 . S
C252 C254 1.391 . S
C253 C252 1.386 . S
C253 C257 1.393 . S
C254 H243 0.950 . S
C254 C252 1.391 . S
C254 C255 1.400 . S
C255 C249 1.491 . S
C255 C254 1.400 . S
C255 C256 1.398 . S
C256 H244 0.950 . S
C256 C255 1.398 . S
C256 C257 1.391 . S
C257 H245 0.950 . S
C257 C253 1.393 . S
C257 C256 1.391 . S
H258 C266 0.950 . S
H259 C271 0.950 . S
H260 C268 0.950 . S
H261 C270 0.950 . S
H262 C272 0.950 . S
H263 C274 0.950 . S
H264 C276 0.950 . S
H265 C277 0.950 . S
C266 H258 0.950 . S
C266 C267 1.386 . S
C266 C268 1.391 . S
C267 C266 1.386 . S
C267 C271 1.393 . S
C268 H260 0.950 . S
C268 C266 1.391 . S
C268 C269 1.400 . S
C269 C268 1.400 . S
C269 C270 1.398 . S
C269 C275 1.491 . S
C270 H261 0.950 . S
C270 C269 1.398 . S
C270 C271 1.391 . S
C271 H259 0.950 . S
C271 C267 1.393 . S
C271 C270 1.391 . S
C272 H262 0.950 . S
C272 C273 1.386 . S
C272 C274 1.391 . S
C273 C272 1.386 . S
C273 C277 1.393 . S
C274 H263 0.950 . S
C274 C272 1.391 . S
C274 C275 1.400 . S
C275 C269 1.491 . S
C275 C274 1.400 . S
C275 C276 1.398 . S
C276 H264 0.950 . S
C276 C275 1.398 . S
C276 C277 1.391 . S
C277 H265 0.950 . S
C277 C273 1.393 . S
C277 C276 1.391 . S
H278 C286 0.950 . S
H279 C291 0.950 . S
H280 C288 0.950 . S
H281 C290 0.950 . S
H282 C292 0.950 . S
H283 C294 0.950 . S
H284 C296 0.950 . S
H285 C297 0.950 . S
C286 H278 0.950 . S
C286 C287 1.386 1_545 S
C286 C288 1.391 . S
C287 C286 1.386 1_565 S
C287 C291 1.393 . S
C288 H280 0.950 . S
C288 C286 1.391 . S
C288 C289 1.400 1_545 S
C289 C288 1.400 1_565 S
C289 C290 1.398 . S
C289 C295 1.491 . S
C290 H281 0.950 . S
C290 C289 1.398 . S
C290 C291 1.391 . S
C291 H279 0.950 . S
C291 C287 1.393 . S
C291 C290 1.391 . S
C292 H282 0.950 . S
C292 C293 1.386 . S
C292 C294 1.391 . S
C293 C292 1.386 . S
C293 C297 1.393 1_565 S
C294 H283 0.950 . S
C294 C292 1.391 . S
C294 C295 1.400 . S
C295 C289 1.491 . S
C295 C294 1.400 . S
C295 C296 1.398 1_565 S
C296 H284 0.950 . S
C296 C295 1.398 1_545 S
C296 C297 1.391 . S
C297 H285 0.950 . S
C297 C293 1.393 1_545 S
C297 C296 1.391 . S
H298 C306 0.950 . S
H299 C311 0.950 . S
H300 C308 0.950 . S
H301 C310 0.950 . S
H302 C312 0.950 . S
H303 C314 0.950 . S
H304 C316 0.950 1_565 S
H305 C317 0.950 1_565 S
C306 H298 0.950 . S
C306 C307 1.386 1_565 S
C306 C308 1.391 . S
C307 C306 1.386 1_545 S
C307 C311 1.393 1_455 S
C308 H300 0.950 . S
C308 C306 1.391 . S
C308 C309 1.400 1_565 S
C309 C308 1.400 1_545 S
C309 C310 1.398 1_455 S
C309 C315 1.491 . S
C310 H301 0.950 . S
C310 C309 1.398 1_655 S
C310 C311 1.391 . S
C311 H299 0.950 . S
C311 C307 1.393 1_655 S
C311 C310 1.391 . S
C312 H302 0.950 . S
C312 C313 1.386 . S
C312 C314 1.391 . S
C313 C312 1.386 . S
C313 C317 1.393 1_655 S
C314 H303 0.950 . S
C314 C312 1.391 . S
C314 C315 1.400 1_655 S
C315 C309 1.491 . S
C315 C314 1.400 1_455 S
C315 C316 1.398 . S
C316 H304 0.950 1_545 S
C316 C315 1.398 . S
C316 C317 1.391 . S
C317 H305 0.950 1_545 S
C317 C313 1.393 1_455 S
C317 C316 1.391 . S
H318 C326 0.950 . S
H319 C331 0.950 . S
H320 C328 0.950 . S
H321 C330 0.950 . S
H322 C332 0.950 . S
H323 C334 0.950 . S
H324 C336 0.950 . S
H325 C337 0.950 . S
C326 H318 0.950 . S
C326 C327 1.386 . S
C326 C328 1.391 . S
C327 C326 1.386 . S
C327 C331 1.393 . S
C328 H320 0.950 . S
C328 C326 1.391 . S
C328 C329 1.400 . S
C329 C328 1.400 . S
C329 C330 1.398 . S
C329 C335 1.491 . S
C330 H321 0.950 . S
C330 C329 1.398 . S
C330 C331 1.391 . S
C331 H319 0.950 . S
C331 C327 1.393 . S
C331 C330 1.391 . S
C332 H322 0.950 . S
C332 C333 1.386 . S
C332 C334 1.391 . S
C333 C332 1.386 . S
C333 C337 1.393 . S
C334 H323 0.950 . S
C334 C332 1.391 . S
C334 C335 1.400 . S
C335 C329 1.491 . S
C335 C334 1.400 . S
C335 C336 1.398 . S
C336 H324 0.950 . S
C336 C335 1.398 . S
C336 C337 1.391 . S
C337 H325 0.950 . S
C337 C333 1.393 . S
C337 C336 1.391 . S
H338 C346 0.950 . S
H339 C351 0.950 . S
H340 C348 0.950 . S
H341 C350 0.950 . S
H342 C352 0.950 . S
H343 C354 0.950 . S
H344 C356 0.950 . S
H345 C357 0.950 . S
C346 H338 0.950 . S
C346 C347 1.386 . S
C346 C348 1.391 . S
C347 C346 1.386 . S
C347 C351 1.393 . S
C348 H340 0.950 . S
C348 C346 1.391 . S
C348 C349 1.400 . S
C349 C348 1.400 . S
C349 C350 1.398 . S
C349 C355 1.491 . S
C350 H341 0.950 . S
C350 C349 1.398 . S
C350 C351 1.391 . S
C351 H339 0.950 . S
C351 C347 1.393 . S
C351 C350 1.391 . S
C352 H342 0.950 . S
C352 C353 1.386 . S
C352 C354 1.391 . S
C353 C352 1.386 . S
C353 C357 1.393 . S
C354 H343 0.950 . S
C354 C352 1.391 . S
C354 C355 1.400 . S
C355 C349 1.491 . S
C355 C354 1.400 . S
C355 C356 1.398 . S
C356 H344 0.950 . S
C356 C355 1.398 . S
C356 C357 1.391 . S
C357 H345 0.950 . S
C357 C353 1.393 . S
C357 C356 1.391 . S
C133 C105 1.517 . S
C127 C16 1.425 . S
C147 C15 1.429 . S
C153 C91 1.427 . S
C167 C13 1.250 1_554 S
C173 C110 1.450 . S
C187 C14 1.488 . S
C193 C86 1.524 . S
C207 C37 1.397 . S
C213 C67 1.528 . S
C227 C36 1.432 . S
C233 C53 1.417 . S
C253 C72 1.434 . S
C247 C34 1.282 . S
C273 C48 1.528 . S
C267 C35 1.491 . S
C287 C17 1.642 1_565 S
C293 C44 1.665 . S
C307 C18 1.402 . S
C313 C63 1.436 . S
C333 C82 1.665 . S
C327 C38 1.642 . S
C347 C39 1.423 . S
C353 C101 1.424 . S
