# Generated by pormake.
# Topology pth, (4,4)-cn, num edge types: 1
# Building blocks:
#     Node 0, Type 0, BuildingBlock: GALJAG_clean_sbu_0, # of connection points: 4
#     Node 1, Type 0, BuildingBlock: GALJAG_clean_sbu_0, # of connection points: 4
#     Node 2, Type 0, BuildingBlock: GALJAG_clean_sbu_0, # of connection points: 4
#     Node 3, Type 1, BuildingBlock: MIFKUJ_clean_linker_1, # of connection points: 4
#     Node 4, Type 1, BuildingBlock: MIFKUJ_clean_linker_1, # of connection points: 4
#     Node 5, Type 1, BuildingBlock: MIFKUJ_clean_linker_1, # of connection points: 4
#     Edge 6, Type (0, 1), BuildingBlock: TEMPAE_clean_linker_10, # of connection points: 2
#     Edge 7, Type (0, 1), BuildingBlock: TEMPAE_clean_linker_10, # of connection points: 2
#     Edge 8, Type (0, 1), BuildingBlock: TEMPAE_clean_linker_10, # of connection points: 2
#     Edge 9, Type (0, 1), BuildingBlock: TEMPAE_clean_linker_10, # of connection points: 2
#     Edge 10, Type (0, 1), BuildingBlock: TEMPAE_clean_linker_10, # of connection points: 2
#     Edge 11, Type (0, 1), BuildingBlock: TEMPAE_clean_linker_10, # of connection points: 2
#     Edge 12, Type (0, 1), BuildingBlock: TEMPAE_clean_linker_10, # of connection points: 2
#     Edge 13, Type (0, 1), BuildingBlock: TEMPAE_clean_linker_10, # of connection points: 2
#     Edge 14, Type (0, 1), BuildingBlock: TEMPAE_clean_linker_10, # of connection points: 2
#     Edge 15, Type (0, 1), BuildingBlock: TEMPAE_clean_linker_10, # of connection points: 2
#     Edge 16, Type (0, 1), BuildingBlock: TEMPAE_clean_linker_10, # of connection points: 2
#     Edge 17, Type (0, 1), BuildingBlock: TEMPAE_clean_linker_10, # of connection points: 2
# Relax obj value: 0.002
# Max RMSD: 0.043
# Mean RMSD: 0.028
data_MOF--net-pth--node1-GALJAG_clean_sbu_0--node2-MIFKUJ_clean_linker_1--edge1-TEMPAE_clean_linker_10
_symmetry_space_group_name_H-M    P1
_symmetry_Int_Tables_number       1
_symmetry_cell_setting            triclinic
loop_
_symmetry_equiv_pos_as_xyz
'x, y, z'
_cell_length_a     30.41427
_cell_length_b     30.41388
_cell_length_c     62.71743
_cell_angle_alpha  90.185404
_cell_angle_beta   90.064425
_cell_angle_gamma 120.00773
loop_
_atom_site_label
_atom_site_type_symbol
_atom_site_fract_x
_atom_site_fract_y
_atom_site_fract_z
_atom_type_partial_charge
In0 In 0.00798 0.0044 0.04042 0.0
O1 O 0.96182 0.0397 0.05331 0.0
O2 O 0.03783 0.07012 0.06392 0.0
C3 C 0.93927 0.93591 0.01322 0.0
C4 C 0.08317 0.06556 0.0136 0.0
C5 C 0.00952 0.93923 0.06905 0.0
O6 O 0.93429 0.97132 0.02132 0.0
O7 O 0.97908 0.93557 0.01871 0.0
O8 O 0.04682 0.96613 0.05711 0.0
O9 O 0.97199 0.94574 0.0667 0.0
C10 C 0.9975 0.07209 0.06481 0.0
O11 O 0.09175 0.05112 0.03117 0.0
O12 O 0.03691 0.04878 0.00949 0.0
In13 In 0.00089 0.00489 0.37313 0.0
O14 O 0.01968 0.08767 0.36999 0.0
O15 O 0.01708 0.04786 0.3418 0.0
C16 C 0.07369 0.01284 0.40003 0.0
C17 C 0.91715 0.98345 0.39601 0.0
C18 C 0.99181 0.93073 0.34672 0.0
O19 O 0.0769 0.05108 0.39065 0.0
O20 O 0.03394 0.97142 0.39591 0.0
O21 O 0.95373 0.92895 0.35568 0.0
O22 O 0.03369 0.9698 0.35099 0.0
C23 C 0.02335 0.08849 0.34995 0.0
O24 O 0.91776 0.98517 0.37591 0.0
O25 O 0.95811 0.99134 0.40438 0.0
In26 In 0.00195 0.00612 0.70647 0.0
O27 O 0.97188 0.93116 0.72449 0.0
O28 O 0.93498 0.97406 0.72923 0.0
C29 C 0.06904 0.0015 0.67974 0.0
C30 C 0.93812 0.01153 0.6781 0.0
C31 C 0.06435 0.078 0.73443 0.0
O32 O 0.03437 0.96262 0.68885 0.0
O33 O 0.06943 0.04223 0.684 0.0
O34 O 0.03461 0.08412 0.72233 0.0
O35 O 0.06202 0.03558 0.73254 0.0
C36 C 0.93679 0.93461 0.73368 0.0
O37 O 0.9665 0.04819 0.69021 0.0
O38 O 0.94251 0.97266 0.68018 0.0
H39 H 0.06069 0.46632 0.16517 0.0
H40 H 0.05671 0.39803 0.14313 0.0
H41 H 0.91982 0.28983 0.17566 0.0
H42 H 0.92448 0.35833 0.19787 0.0
H43 H 0.99498 0.49969 0.16777 0.0
H44 H 0.06621 0.43077 0.21533 0.0
H45 H 0.07445 0.36859 0.23698 0.0
H46 H 0.94127 0.33991 0.27269 0.0
H47 H 0.93202 0.40048 0.25041 0.0
H48 H 0.92239 0.52595 0.24875 0.0
H49 H 0.91849 0.59163 0.26991 0.0
H50 H 0.05309 0.70677 0.23843 0.0
H51 H 0.05773 0.64085 0.21765 0.0
H52 H 0.99196 0.49812 0.2468 0.0
H53 H 0.92703 0.5755 0.19809 0.0
H54 H 0.93066 0.64609 0.17785 0.0
H55 H 0.06263 0.66457 0.14432 0.0
H56 H 0.06054 0.59572 0.16519 0.0
C57 C 0.99309 0.41738 0.18324 0.0
C58 C 0.0299 0.42786 0.16757 0.0
C59 C 0.0274 0.38882 0.15492 0.0
C60 C 0.98777 0.33851 0.15756 0.0
C61 C 0.95114 0.32806 0.17339 0.0
C62 C 0.95374 0.36716 0.18609 0.0
C63 C 0.99469 0.45935 0.19595 0.0
C64 C 0.99496 0.49972 0.18507 0.0
C65 C 0.99408 0.45897 0.21849 0.0
C66 C -0.00189 0.41986 0.23106 0.0
C67 C 0.03827 0.41043 0.22757 0.0
C68 C 0.04333 0.37535 0.24015 0.0
C69 C 0.00857 0.34932 0.25659 0.0
C70 C 0.96831 0.35877 0.25999 0.0
C71 C 0.96317 0.39367 0.24736 0.0
C72 C 0.99 0.57849 0.23144 0.0
C73 C 0.95126 0.5653 0.24648 0.0
C74 C 0.949 0.60277 0.25853 0.0
C75 C 0.98531 0.65418 0.25568 0.0
C76 C 0.02424 0.66742 0.2407 0.0
C77 C 0.0269 0.62984 0.22884 0.0
C78 C 0.9916 0.5382 0.21864 0.0
C79 C 0.99188 0.49807 0.2295 0.0
C80 C 0.99358 0.53929 0.19606 0.0
C81 C 0.99404 0.58077 0.18344 0.0
C82 C 0.95722 0.59519 0.18662 0.0
C83 C 0.95916 0.63532 0.17504 0.0
C84 C 0.99702 0.66063 0.15965 0.0
C85 C 0.03302 0.64544 0.15608 0.0
C86 C 0.03172 0.60608 0.16795 0.0
H87 H 0.59533 0.06321 0.4954 0.0
H88 H 0.65644 0.0562 0.47255 0.0
H89 H 0.63182 0.92341 0.50742 0.0
H90 H 0.56874 0.92909 0.52948 0.0
H91 H 0.49887 0.00353 0.49973 0.0
H92 H 0.63973 0.07004 0.54767 0.0
H93 H 0.70976 0.07409 0.56842 0.0
H94 H 0.60436 0.93487 0.60028 0.0
H95 H 0.53444 0.9316 0.57972 0.0
H96 H 0.40251 0.93285 0.58144 0.0
H97 H 0.335 0.93185 0.60302 0.0
H98 H 0.35793 0.06774 0.57156 0.0
H99 H 0.42676 0.06981 0.55052 0.0
H100 H 0.49998 0.99761 0.5787 0.0
H101 H 0.35692 0.9399 0.53001 0.0
H102 H 0.29176 0.94659 0.50959 0.0
H103 H 0.40856 0.07983 0.47798 0.0
H104 H 0.47349 0.07408 0.49885 0.0
C105 C 0.57775 0.99701 0.51431 0.0
C106 C 0.60301 0.03251 0.49809 0.0
C107 C 0.63829 0.0287 0.48515 0.0
C108 C 0.64921 0.98933 0.48818 0.0
C109 C 0.62395 0.95387 0.50449 0.0
C110 C 0.58836 0.9575 0.51733 0.0
C111 C 0.53882 0.00016 0.52745 0.0
C112 C 0.49951 0.00298 0.51702 0.0
C113 C 0.53925 -0.00122 0.54999 0.0
C114 C 0.58193 0.00036 0.56208 0.0
C115 C 0.63182 0.04019 0.55901 0.0
C116 C 0.67183 0.04238 0.57085 0.0
C117 C 0.66267 0.00482 0.58603 0.0
C118 C 0.61263 0.96482 0.58895 0.0
C119 C 0.57265 0.96275 0.57716 0.0
C120 C 0.4193 0.00099 0.56413 0.0
C121 C 0.39334 0.96269 0.57929 0.0
C122 C 0.35477 0.96207 0.59157 0.0
C123 C 0.34115 -0.00049 0.5888 0.0
C124 C 0.36732 0.03806 0.57377 0.0
C125 C 0.40652 0.03918 0.56173 0.0
C126 C 0.45976 0.00072 0.55097 0.0
C127 C 0.49935 0.99827 0.56141 0.0
C128 C 0.46013 0.00358 0.52842 0.0
C129 C 0.4201 0.00685 0.51615 0.0
C130 C 0.36848 0.97098 0.51892 0.0
C131 C 0.33133 0.97477 0.50726 0.0
C132 C 0.34529 0.01379 0.49228 0.0
C133 C 0.3969 0.04926 0.48936 0.0
C134 C 0.43393 0.04593 0.50124 0.0
H135 H 0.46767 0.40427 0.82936 0.0
H136 H 0.39598 0.34123 0.80833 0.0
H137 H 0.29459 0.37454 0.84406 0.0
H138 H 0.36657 0.43731 0.86521 0.0
H139 H 0.50633 0.50404 0.83366 0.0
H140 H 0.42714 0.35905 0.87781 0.0
H141 H 0.36008 0.28959 0.89784 0.0
H142 H 0.35401 0.39821 0.94071 0.0
H143 H 0.41733 0.46733 0.91928 0.0
H144 H 0.53985 0.59718 0.91615 0.0
H145 H 0.60748 0.66469 0.9374 0.0
H146 H 0.71891 0.64359 0.90331 0.0
H147 H 0.65093 0.57515 0.88234 0.0
H148 H 0.50938 0.49932 0.91263 0.0
H149 H 0.58625 0.64442 0.86512 0.0
H150 H 0.65563 0.71143 0.84449 0.0
H151 H 0.67193 0.59793 0.80949 0.0
H152 H 0.60349 0.53112 0.83046 0.0
C153 C 0.42242 0.42519 0.84895 0.0
C154 C 0.43002 0.39812 0.8326 0.0
C155 C 0.38902 0.36224 0.82055 0.0
C156 C 0.33957 0.35293 0.8245 0.0
C157 C 0.33209 0.38036 0.84081 0.0
C158 C 0.37318 0.41629 0.85287 0.0
C159 C 0.46619 0.4631 0.86172 0.0
C160 C 0.50722 0.50271 0.85094 0.0
C161 C 0.46712 0.46137 0.88427 0.0
C162 C 0.42672 0.41866 0.89669 0.0
C163 C 0.41046 0.36797 0.89119 0.0
C164 C 0.37263 0.32811 0.90297 0.0
C165 C 0.35125 0.33795 0.92099 0.0
C166 C 0.36847 0.38884 0.9267 0.0
C167 C 0.40536 0.42862 0.91459 0.0
C168 C 0.59031 0.58141 0.8975 0.0
C169 C 0.57879 0.6068 0.91334 0.0
C170 C 0.61741 0.64534 0.92546 0.0
C171 C 0.66838 0.65941 0.92194 0.0
C172 C 0.67995 0.63387 0.90616 0.0
C173 C 0.64119 0.59484 0.89418 0.0
C174 C 0.5487 0.54093 0.88461 0.0
C175 C 0.50823 0.50064 0.89537 0.0
C176 C 0.54848 0.54168 0.86204 0.0
C177 C 0.59008 0.58273 0.84953 0.0
C178 C 0.60518 0.63398 0.8532 0.0
C179 C 0.64475 0.67221 0.84142 0.0
C180 C 0.66915 0.65978 0.82546 0.0
C181 C 0.65353 0.6085 0.82161 0.0
C182 C 0.61446 0.57037 0.83357 0.0
C183 C 0.03538 0.14589 0.08979 0.0
C184 C 0.99303 0.10956 0.07833 0.0
C185 C 0.03238 0.18202 0.10267 0.0
C186 C 0.98582 0.18174 0.1042 0.0
C187 C 0.94279 0.145 0.09276 0.0
C188 C 0.94694 0.10933 0.07989 0.0
C189 C 0.07918 0.22073 0.11455 0.0
C190 C 0.8925 0.14348 0.09408 0.0
C191 C 0.97202 0.2499 0.15235 0.0
C192 C 0.98468 0.29728 0.14372 0.0
C193 C 0.97078 0.21135 0.13954 0.0
C194 C 0.98271 0.22051 0.1176 0.0
C195 C 0.99447 0.26784 0.1087 0.0
C196 C 0.99518 0.30558 0.12185 0.0
C197 C 0.95802 0.16132 0.14959 0.0
C198 C 0.00742 0.27904 0.08538 0.0
H199 H 0.07113 0.14628 0.08864 0.0
H200 H 0.9141 0.08125 0.07108 0.0
H201 H 0.08928 0.2596 0.10953 0.0
H202 H 0.07149 0.21804 0.13193 0.0
H203 H 0.11238 0.21555 0.11175 0.0
H204 H 0.86251 0.11208 0.08442 0.0
H205 H 0.87974 0.13877 0.1109 0.0
H206 H 0.89679 0.17994 0.08841 0.0
H207 H 0.96431 0.24335 0.16926 0.0
H208 H 0.00405 0.34175 0.11498 0.0
H209 H 0.9915 0.15598 0.14882 0.0
H210 H 0.92681 0.12945 0.14064 0.0
H211 H 0.94646 0.15906 0.16653 0.0
H212 H 0.0424 0.27763 0.08176 0.0
H213 H 0.0136 0.31696 0.08076 0.0
H214 H 0.97652 0.24975 0.07535 0.0
C215 C 0.8746 0.97231 0.43113 0.0
C216 C 0.87361 0.97672 0.40891 0.0
C217 C 0.83609 0.9708 0.44391 0.0
C218 C 0.79581 0.97415 0.43424 0.0
C219 C 0.79371 0.97694 0.41176 0.0
C220 C 0.83262 0.97801 0.39933 0.0
C221 C 0.83941 0.96731 0.46782 0.0
C222 C 0.75143 0.98074 0.40089 0.0
C223 C 0.67744 0.93767 0.46698 0.0
C224 C 0.68662 0.98522 0.47429 0.0
C225 C 0.71251 0.93341 0.45386 0.0
C226 C 0.75763 0.97778 0.44777 0.0
C227 C 0.76698 0.02588 0.45497 0.0
C228 C 0.73152 0.02899 0.46822 0.0
C229 C 0.7014 0.88147 0.44657 0.0
C230 C 0.81468 0.07411 0.4488 0.0
H231 H 0.90612 0.97107 0.43861 0.0
H232 H 0.83175 0.9815 0.38216 0.0
H233 H 0.84496 0.00275 0.4754 0.0
H234 H 0.80344 0.93557 0.4741 0.0
H235 H 0.87121 0.96144 0.47272 0.0
H236 H 0.75354 0.97938 0.38323 0.0
H237 H 0.71398 0.94942 0.40613 0.0
H238 H 0.75336 0.01692 0.4055 0.0
H239 H 0.64251 0.90372 0.47133 0.0
H240 H 0.73932 0.06579 0.47405 0.0
H241 H 0.732 0.87438 0.45205 0.0
H242 H 0.70069 0.87957 0.4289 0.0
H243 H 0.66453 0.85071 0.4527 0.0
H244 H 0.84852 0.07318 0.45482 0.0
H245 H 0.81552 0.1086 0.45523 0.0
H246 H 0.81785 0.07719 0.43118 0.0
C247 C 0.9065 0.85498 0.75482 0.0
C248 C 0.89978 0.89514 0.7481 0.0
C249 C 0.87079 0.81679 0.76814 0.0
C250 C 0.82712 0.81858 0.77462 0.0
C251 C 0.82038 0.85926 0.76798 0.0
C252 C 0.85695 0.89721 0.7549 0.0
C253 C 0.87952 0.77428 0.77512 0.0
C254 C 0.77405 0.86223 0.77437 0.0
C255 C 0.7092 0.69584 0.79027 0.0
C256 C 0.71019 0.7001 0.81255 0.0
C257 C 0.74724 0.73399 0.77776 0.0
C258 C 0.78755 0.77714 0.78779 0.0
C259 C 0.78914 0.78129 0.81031 0.0
C260 C 0.75018 0.74283 0.82243 0.0
C261 C 0.74383 0.72852 0.75378 0.0
C262 C 0.83185 0.82643 0.82158 0.0
H263 H 0.93968 0.85338 0.74966 0.0
H264 H 0.85152 0.92813 0.7497 0.0
H265 H 0.87847 0.77164 0.79277 0.0
H266 H 0.84869 0.73752 0.76886 0.0
H267 H 0.91648 0.77962 0.76947 0.0
H268 H 0.77488 0.89675 0.76809 0.0
H269 H 0.73928 0.82831 0.76833 0.0
H270 H 0.77109 0.86224 0.79199 0.0
H271 H 0.67802 0.66303 0.78261 0.0
H272 H 0.75123 0.74587 0.83968 0.0
H273 H 0.77863 0.73015 0.74741 0.0
H274 H 0.74132 0.76053 0.74664 0.0
H275 H 0.71036 0.69232 0.74849 0.0
H276 H 0.86889 0.83064 0.81683 0.0
H277 H 0.82847 0.823 0.83921 0.0
H278 H 0.8322 0.86168 0.8168 0.0
C279 C 0.05367 0.90229 0.08962 0.0
C280 C 0.0086 0.90112 0.08383 0.0
C281 C 0.05281 0.86493 0.10299 0.0
C282 C 0.00565 0.82496 0.11031 0.0
C283 C 0.96008 0.82394 0.10465 0.0
C284 C 0.96217 0.86237 0.09165 0.0
C285 C 0.10225 0.86782 0.10905 0.0
C286 C 0.90901 0.78146 0.1118 0.0
C287 C -0.0008 0.70087 0.12482 0.0
C288 C -0.00116 0.70257 0.14713 0.0
C289 C 0.00105 0.74035 0.11265 0.0
C290 C 0.00371 0.78298 0.12309 0.0
C291 C 0.00389 0.78508 0.14566 0.0
C292 C 0.00087 0.74447 0.15743 0.0
C293 C -0.00031 0.73622 0.08863 0.0
C294 C 0.00769 0.83034 0.15734 0.0
H295 H 0.08964 0.93241 0.08368 0.0
H296 H 0.92721 0.86124 0.08711 0.0
H297 H 0.10506 0.86615 0.12664 0.0
H298 H 0.10355 0.83474 0.10229 0.0
H299 H 0.13578 0.90311 0.10322 0.0
H300 H 0.87723 0.78683 0.10637 0.0
H301 H 0.90288 0.74472 0.10543 0.0
H302 H 0.90785 0.7787 0.12944 0.0
H303 H 0.99728 0.6682 0.11691 0.0
H304 H 0.00103 0.74582 0.17472 0.0
H305 H 0.03457 0.76832 0.08179 0.0
H306 H 0.96691 0.73864 0.08227 0.0
H307 H 0.99663 0.7001 0.08302 0.0
H308 H 0.04256 0.86543 0.15237 0.0
H309 H 0.00861 0.82659 0.17493 0.0
H310 H 0.9749 0.83513 0.15314 0.0
C311 C 0.15386 0.0623 0.42114 0.0
C312 C 0.11351 0.01546 0.41435 0.0
C313 C 0.19202 0.06461 0.43455 0.0
C314 C 0.18996 0.01902 0.441 0.0
C315 C 0.14916 0.97168 0.43422 0.0
C316 C 0.11128 0.97048 0.42109 0.0
C317 C 0.23468 0.11574 0.4417 0.0
C318 C 0.14594 0.92225 0.44053 0.0
C319 C 0.31127 0.02123 0.4571 0.0
C320 C 0.30624 0.01683 0.47931 0.0
C321 C 0.274 0.02273 0.44446 0.0
C322 C 0.23111 0.02052 0.45433 0.0
C323 C 0.2264 0.01719 0.47681 0.0
C324 C 0.26389 0.01492 0.48905 0.0
C325 C 0.27992 0.02537 0.42051 0.0
C326 C 0.18154 0.01545 0.48791 0.0
H327 H 0.15556 0.09713 0.41603 0.0
H328 H 0.08022 0.93415 0.41583 0.0
H329 H 0.23714 0.11734 0.45937 0.0
H330 H 0.27141 0.12143 0.43564 0.0
H331 H 0.22963 0.14749 0.43601 0.0
H332 H 0.1115 0.88865 0.43401 0.0
H333 H 0.17992 0.92135 0.4347 0.0
H334 H 0.14553 0.91907 0.45815 0.0
H335 H 0.34384 0.02225 0.44958 0.0
H336 H 0.26033 0.01201 0.50626 0.0
H337 H 0.27841 0.05867 0.41427 0.0
H338 H 0.24802 0.991 0.41311 0.0
H339 H 0.31618 0.02817 0.41539 0.0
H340 H 0.17762 0.04837 0.48304 0.0
H341 H 0.18504 0.01581 0.50555 0.0
H342 H 0.14611 0.98059 0.4831 0.0
C343 C 0.13713 0.1111 0.75989 0.0
C344 C 0.10083 0.11804 0.74897 0.0
C345 C 0.17403 0.14969 0.77279 0.0
C346 C 0.17439 0.19621 0.77494 0.0
C347 C 0.13701 0.20298 0.76439 0.0
C348 C 0.10074 0.16382 0.75143 0.0
C349 C 0.21343 0.14112 0.78368 0.0
C350 C 0.13595 0.25191 0.76647 0.0
C351 C 0.25004 0.28049 0.82152 0.0
C352 C 0.29608 0.31448 0.81168 0.0
C353 C 0.20953 0.24254 0.80967 0.0
C354 C 0.21533 0.23842 0.78749 0.0
C355 C 0.2613 0.27328 0.7774 0.0
C356 C 0.30104 0.31093 0.7896 0.0
C357 C 0.16101 0.20611 0.82098 0.0
C358 C 0.26893 0.27014 0.75377 0.0
H359 H 0.1374 0.07579 0.75803 0.0
H360 H 0.07262 0.16927 0.74307 0.0
H361 H 0.25176 0.16878 0.77766 0.0
H362 H 0.21343 0.14756 0.8011 0.0
H363 H 0.20682 0.10216 0.78096 0.0
H364 H 0.10277 0.2501 0.7582 0.0
H365 H 0.13482 0.26098 0.78354 0.0
H366 H 0.17114 0.28363 0.75964 0.0
H367 H 0.2461 0.28269 0.83861 0.0
H368 H 0.33619 0.33764 0.78183 0.0
H369 H 0.15526 0.16713 0.82012 0.0
H370 H 0.12801 0.20522 0.81299 0.0
H371 H 0.16139 0.21641 0.83801 0.0
H372 H 0.26627 0.23324 0.74992 0.0
H373 H 0.30633 0.30119 0.74824 0.0
H374 H 0.23857 0.27189 0.74465 0.0
C375 C 0.86753 0.96935 0.65167 0.0
C376 C 0.90099 0.01292 0.66329 0.0
C377 C 0.83014 0.96896 0.63844 0.0
C378 C 0.82628 0.01331 0.63672 0.0
C379 C 0.86073 0.0578 0.64803 0.0
C380 C 0.89764 0.05703 0.66124 0.0
C381 C 0.79399 0.92073 0.62669 0.0
C382 C 0.85796 0.10588 0.64647 0.0
C383 C 0.7522 0.02214 0.58969 0.0
C384 C 0.70497 0.0077 0.59901 0.0
C385 C 0.79228 0.02476 0.60182 0.0
C386 C 0.78487 0.01238 0.62375 0.0
C387 C 0.73743 0.99803 0.63327 0.0
C388 C 0.69814 0.99603 0.62081 0.0
C389 C 0.84239 0.04027 0.59112 0.0
C390 C 0.72804 0.98449 0.65662 0.0
H391 H 0.86996 0.93513 0.65319 0.0
H392 H 0.92351 0.09084 0.67016 0.0
H393 H 0.7546 0.90698 0.63224 0.0
H394 H 0.79483 0.9282 0.60936 0.0
H395 H 0.80324 0.89009 0.62913 0.0
H396 H 0.88903 0.13789 0.65547 0.0
H397 H 0.85997 0.11719 0.62954 0.0
H398 H 0.82106 0.09915 0.65282 0.0
H399 H 0.7576 0.03065 0.57281 0.0
H400 H 0.66209 0.98571 0.62822 0.0
H401 H 0.85088 0.00885 0.59207 0.0
H402 H 0.87351 0.07342 0.59953 0.0
H403 H 0.84251 0.05027 0.57409 0.0
H404 H 0.73368 0.95186 0.66001 0.0
H405 H 0.68908 0.97441 0.66161 0.0
H406 H 0.75575 0.01686 0.66652 0.0
C407 C 0.90431 0.85405 0.99327 0.0
C408 C 0.90102 0.89701 0.99882 0.0
C409 C 0.86735 0.81574 0.98028 0.0
C410 C 0.82644 0.82081 0.97246 0.0
C411 C 0.82345 0.86459 0.97767 0.0
C412 C 0.86066 0.90207 0.99092 0.0
C413 C 0.87155 0.76938 0.97525 0.0
C414 C 0.78065 0.87154 0.96945 0.0
C415 C 0.75242 0.73948 0.92492 0.0
C416 C 0.7092 0.70054 0.93481 0.0
C417 C 0.79076 0.77919 0.93695 0.0
C418 C 0.78593 0.77951 0.9594 0.0
C419 C 0.74252 0.74002 0.96946 0.0
C420 C 0.70456 0.70114 0.95703 0.0
C421 C 0.83624 0.82095 0.92565 0.0
C422 C 0.73632 0.73868 0.99338 0.0
H423 H 0.93538 0.84991 0.99939 0.0
H424 H 0.8581 0.93532 0.99511 0.0
H425 H 0.83782 0.73493 0.98149 0.0
H426 H 0.8722 0.76451 0.95774 0.0
H427 H 0.9062 0.77169 0.98227 0.0
H428 H 0.78503 0.90875 0.9742 0.0
H429 H 0.77878 0.86864 0.95179 0.0
H430 H 0.74389 0.84091 0.97565 0.0
H431 H 0.75578 0.73932 0.90771 0.0
H432 H 0.67139 0.67075 0.96471 0.0
H433 H 0.8715 0.82263 0.93148 0.0
H434 H 0.8395 0.85821 0.92927 0.0
H435 H 0.83392 0.81543 0.90808 0.0
H436 H 0.76863 0.73789 0.00123 0.0
H437 H 0.70041 0.70512 0.99872 0.0
H438 H 0.7367 0.77353 0.99894 0.0
C439 C 0.03291 0.89039 0.32656 0.0
C440 C 0.98843 0.89004 0.3327 0.0
C441 C 0.03091 0.85169 0.31369 0.0
C442 C 0.98328 0.81198 0.30657 0.0
C443 C 0.93821 0.81176 0.31246 0.0
C444 C 0.9413 0.8507 0.32561 0.0
C445 C 0.07977 0.85295 0.30797 0.0
C446 C 0.88682 0.77031 0.30493 0.0
C447 C 0.98691 0.73698 0.25877 0.0
C448 C 0.983 0.69382 0.26857 0.0
C449 C 0.98551 0.77512 0.27089 0.0
C450 C 0.98089 0.77022 0.29334 0.0
C451 C 0.97653 0.72649 0.30328 0.0
C452 C 0.97731 0.68864 0.29074 0.0
C453 C 0.98961 0.82092 0.25971 0.0
C454 C 0.97234 0.72028 0.3272 0.0
H455 H 0.06944 0.92065 0.33207 0.0
H456 H 0.90687 0.85044 0.33028 0.0
H457 H 0.07883 0.81815 0.3139 0.0
H458 H 0.08398 0.85346 0.2904 0.0
H459 H 0.11368 0.88658 0.3148 0.0
H460 H 0.8556 0.77658 0.31033 0.0
H461 H 0.88602 0.76807 0.28726 0.0
H462 H 0.87957 0.73305 0.31099 0.0
H463 H 0.99074 0.74069 0.24158 0.0
H464 H 0.97472 0.65545 0.29833 0.0
H465 H 0.02491 0.85559 0.2648 0.0
H466 H 0.95727 0.82618 0.26423 0.0
H467 H 0.99009 0.81757 0.24208 0.0
H468 H 0.00692 0.75126 0.33489 0.0
H469 H 0.96773 0.6833 0.33237 0.0
H470 H 0.93953 0.72321 0.33309 0.0
C471 C 0.15012 0.04538 0.6594 0.0
C472 C 0.10714 1e-05 0.66562 0.0
C473 C 0.1876 0.0449 0.64656 0.0
C474 C 0.18159 0.99792 0.63953 0.0
C475 C 0.13781 0.95199 0.64545 0.0
C476 C 0.10123 0.95357 0.65858 0.0
C477 C 0.23405 0.09465 0.64081 0.0
C478 C 0.12978 0.90122 0.63802 0.0
C479 C 0.2604 0.00186 0.59184 0.0
C480 C 0.29994 0.99848 0.60171 0.0
C481 C 0.22099 0.00069 0.60392 0.0
C482 C 0.22179 0.99697 0.6264 0.0
C483 C 0.26178 0.99367 0.63643 0.0
C484 C 0.30017 0.99403 0.62393 0.0
C485 C 0.17857 0.00346 0.59264 0.0
C486 C 0.26443 0.99055 0.66039 0.0
H487 H 0.15494 0.08138 0.66486 0.0
H488 H 0.06793 0.91843 0.66329 0.0
H489 H 0.26867 0.09531 0.64688 0.0
H490 H 0.23766 0.09864 0.62323 0.0
H491 H 0.23283 0.12789 0.64749 0.0
H492 H 0.09277 0.86915 0.64333 0.0
H493 H 0.13142 0.90039 0.62036 0.0
H494 H 0.1606 0.89535 0.64424 0.0
H495 H 0.26 0.00478 0.57462 0.0
H496 H 0.33101 0.99182 0.63156 0.0
H497 H 0.17783 0.038 0.5978 0.0
H498 H 0.14144 0.97025 0.59698 0.0
H499 H 0.18261 0.00436 0.57501 0.0
H500 H 0.26627 0.02454 0.66787 0.0
H501 H 0.29797 0.98802 0.66567 0.0
H502 H 0.22962 0.95686 0.66638 0.0
C503 C 0.11427 0.10298 0.97769 0.0
C504 C 0.12393 0.10144 -0.00056 0.0
C505 C 0.15175 0.1389 0.96423 0.0
C506 C 0.19938 0.17505 0.9729 0.0
C507 C 0.20946 0.17324 0.99484 0.0
C508 C 0.17178 0.13591 0.0078 0.0
C509 C 0.14011 0.13867 0.9408 0.0
C510 C 0.25932 0.2119 0.00479 0.0
C511 C 0.31288 0.25032 0.93677 0.0
C512 C 0.31165 0.29552 0.93393 0.0
C513 C 0.276 0.21036 0.94903 0.0
C514 C 0.23779 0.21621 0.95925 0.0
C515 C 0.23635 0.26165 0.95659 0.0
C516 C 0.27273 0.30034 0.94371 0.0
C517 C 0.27804 0.16196 0.95112 0.0
C518 C 0.19662 0.26964 0.96751 0.0
H519 H 0.07732 0.07605 0.9712 0.0
H520 H 0.17909 0.13493 0.02467 0.0
H521 H 0.13959 0.17387 0.93673 0.0
H522 H 0.1702 0.13805 0.93103 0.0
H523 H 0.10287 0.10553 0.93628 0.0
H524 H 0.26157 0.20456 0.02198 0.0
H525 H 0.29139 0.21192 0.99639 0.0
H526 H 0.26433 0.25046 0.00309 0.0
H527 H 0.34309 0.24625 0.92966 0.0
H528 H 0.27044 0.33438 0.94129 0.0
H529 H 0.24109 0.12891 0.9463 0.0
H530 H 0.28478 0.15619 0.96799 0.0
H531 H 0.30847 0.16234 0.9412 0.0
H532 H 0.1582 0.24071 0.96196 0.0
H533 H 0.20184 0.30791 0.9644 0.0
H534 H 0.19804 0.26488 0.98498 0.0
C535 C 0.02657 0.17185 0.34605 0.0
C536 C 0.02985 0.13157 0.33681 0.0
C537 C 0.02673 0.20985 0.33333 0.0
C538 C 0.03057 0.20755 0.3109 0.0
C539 C 0.03617 0.16818 0.30159 0.0
C540 C 0.03557 0.13056 0.31466 0.0
C541 C 0.02062 0.25123 0.34382 0.0
C542 C 0.04084 0.16469 0.27775 0.0
C543 C 0.97183 0.26698 0.27636 0.0
C544 C 0.01449 0.31289 0.27035 0.0
C545 C 0.9766 0.23261 0.28965 0.0
C546 C 0.02526 0.24422 0.29704 0.0
C547 C 0.06855 0.29033 0.29097 0.0
C548 C 0.06264 0.32418 0.27773 0.0
C549 C 0.92951 0.18375 0.29575 0.0
C550 C 0.12105 0.3039 0.29849 0.0
H551 H 0.0221 0.17275 0.36316 0.0
H552 H 0.03836 0.09961 0.30745 0.0
H553 H 0.05094 0.28909 0.33847 0.0
H554 H 0.98375 0.24741 0.33901 0.0
H555 H 0.02184 0.24977 0.3615 0.0
H556 H 0.04887 0.13408 0.2732 0.0
H557 H 0.00501 0.15709 0.26988 0.0
H558 H 0.0716 0.20127 0.27147 0.0
H559 H 0.93462 0.25764 0.27047 0.0
H560 H 0.09571 0.35989 0.27341 0.0
H561 H 0.92583 0.18094 0.31336 0.0
H562 H 0.93258 0.1508 0.29008 0.0
H563 H 0.8944 0.18084 0.28895 0.0
H564 H 0.12267 0.30538 0.31617 0.0
H565 H 0.15085 0.34109 0.29221 0.0
H566 H 0.12985 0.2742 0.29337 0.0
loop_
_geom_bond_atom_site_label_1
_geom_bond_atom_site_label_2
_geom_bond_distance
_geom_bond_site_symmetry_2
_ccdc_geom_bond_type
In0 O1 2.294 1_455 S
In0 O2 2.326 . S
In0 O6 2.266 1_445 S
In0 O7 2.326 1_445 S
In0 O8 2.266 1_545 S
In0 O9 2.326 1_445 S
In0 O11 2.294 . S
In0 O12 2.326 . S
O1 In0 2.294 1_655 S
O1 C10 1.240 1_655 S
O2 In0 2.326 . S
O2 C10 1.252 . S
C3 O6 1.252 . S
C3 O7 1.260 . S
C4 O11 1.240 . S
C4 O12 1.252 . S
C5 O8 1.239 1_655 S
C5 O9 1.282 . S
O6 In0 2.266 1_665 S
O6 C3 1.252 . S
O7 In0 2.326 1_665 S
O7 C3 1.260 . S
O8 In0 2.266 1_565 S
O8 C5 1.239 1_455 S
O9 In0 2.326 1_665 S
O9 C5 1.282 . S
C10 O1 1.240 1_455 S
C10 O2 1.252 . S
O11 In0 2.294 . S
O11 C4 1.240 . S
O12 In0 2.326 . S
O12 C4 1.252 . S
In13 O14 2.294 . S
In13 O15 2.326 1_455 S
In13 O19 2.266 . S
In13 O20 2.326 1_545 S
In13 O21 2.266 1_445 S
In13 O22 2.326 1_545 S
In13 O24 2.294 1_445 S
In13 O25 2.326 1_455 S
O14 In13 2.294 . S
O14 C23 1.240 1_455 S
O15 In13 2.326 1_655 S
O15 C23 1.252 . S
C16 O19 1.252 1_565 S
C16 O20 1.260 . S
C17 O24 1.240 1_545 S
C17 O25 1.252 . S
C18 O21 1.252 1_455 S
C18 O22 1.260 . S
O19 In13 2.266 . S
O19 C16 1.252 1_545 S
O20 In13 2.326 1_565 S
O20 C16 1.260 . S
O21 In13 2.266 1_665 S
O21 C18 1.252 1_655 S
O22 In13 2.326 1_565 S
O22 C18 1.260 . S
C23 O14 1.240 1_655 S
C23 O15 1.252 . S
O24 In13 2.294 1_665 S
O24 C17 1.240 1_565 S
O25 In13 2.326 1_655 S
O25 C17 1.252 . S
In26 O27 2.286 1_445 S
In26 O28 2.327 1_445 S
In26 O32 2.258 1_545 S
In26 O33 2.327 . S
In26 O34 2.274 . S
In26 O35 2.324 . S
In26 O37 2.302 1_455 S
In26 O38 2.325 1_445 S
O27 In26 2.286 1_665 S
O27 C36 1.240 . S
O28 In26 2.327 1_665 S
O28 C36 1.252 . S
C29 O32 1.252 1_545 S
C29 O33 1.260 . S
C30 O37 1.240 1_565 S
C30 O38 1.252 . S
C31 O34 1.252 . S
C31 O35 1.260 . S
O32 In26 2.258 1_565 S
O32 C29 1.252 1_565 S
O33 In26 2.327 . S
O33 C29 1.260 . S
O34 In26 2.274 . S
O34 C31 1.252 . S
O35 In26 2.324 . S
O35 C31 1.260 . S
C36 O27 1.240 . S
C36 O28 1.252 . S
O37 In26 2.302 1_655 S
O37 C30 1.240 1_545 S
O38 In26 2.325 1_665 S
O38 C30 1.252 . S
H39 C58 0.949 . S
H40 C59 0.950 . S
H41 C61 0.950 . S
H42 C62 0.950 . S
H43 C64 0.950 . S
H44 C67 0.950 . S
H45 C68 0.950 . S
H46 C70 0.951 . S
H47 C71 0.949 . S
H48 C73 0.949 . S
H49 C74 0.950 . S
H50 C76 0.950 . S
H51 C77 0.950 . S
H52 C79 0.950 . S
H53 C82 0.950 . S
H54 C83 0.950 . S
H55 C85 0.951 . S
H56 C86 0.949 . S
C57 C58 1.376 . S
C57 C62 1.386 1_455 S
C57 C63 1.483 . S
C58 H39 0.949 . S
C58 C57 1.376 . S
C58 C59 1.397 . S
C59 H40 0.950 . S
C59 C58 1.397 . S
C59 C60 1.391 . S
C60 C59 1.391 . S
C60 C61 1.405 1_455 S
C61 H41 0.950 . S
C61 C60 1.405 1_655 S
C61 C62 1.367 . S
C62 H42 0.950 . S
C62 C57 1.386 1_655 S
C62 C61 1.367 . S
C63 C57 1.483 . S
C63 C64 1.382 . S
C63 C65 1.403 1_455 S
C64 H43 0.950 . S
C64 C63 1.382 . S
C64 C80 1.411 . S
C65 C63 1.403 1_655 S
C65 C66 1.489 . S
C65 C79 1.411 . S
C66 C65 1.489 . S
C66 C67 1.383 1_655 S
C66 C71 1.382 . S
C67 H44 0.950 . S
C67 C66 1.383 1_455 S
C67 C68 1.395 . S
C68 H45 0.950 . S
C68 C67 1.395 . S
C68 C69 1.288 1_455 S
C69 C68 1.288 1_655 S
C69 C70 1.392 . S
C70 H46 0.951 . S
C70 C69 1.392 . S
C70 C71 1.392 . S
C71 H47 0.949 . S
C71 C66 1.382 . S
C71 C70 1.392 . S
C72 C73 1.376 . S
C72 C77 1.386 1_655 S
C72 C78 1.492 . S
C73 H48 0.949 . S
C73 C72 1.376 . S
C73 C74 1.397 . S
C74 H49 0.950 . S
C74 C73 1.397 . S
C74 C75 1.381 1_655 S
C75 C74 1.381 1_455 S
C75 C76 1.424 . S
C76 H50 0.950 . S
C76 C75 1.424 . S
C76 C77 1.367 . S
C77 H51 0.950 . S
C77 C72 1.386 1_455 S
C77 C76 1.367 . S
C78 C72 1.492 . S
C78 C79 1.374 . S
C78 C80 1.400 1_655 S
C79 H52 0.950 . S
C79 C65 1.411 . S
C79 C78 1.374 . S
C80 C64 1.411 . S
C80 C78 1.400 1_455 S
C80 C81 1.489 . S
C81 C80 1.489 . S
C81 C82 1.383 1_455 S
C81 C86 1.382 . S
C82 H53 0.950 . S
C82 C81 1.383 1_655 S
C82 C83 1.395 . S
C83 H54 0.950 . S
C83 C82 1.395 . S
C83 C84 1.288 1_655 S
C84 C83 1.288 1_455 S
C84 C85 1.392 . S
C85 H55 0.951 . S
C85 C84 1.392 . S
C85 C86 1.392 . S
C86 H56 0.949 . S
C86 C81 1.382 . S
C86 C85 1.392 . S
H87 C106 0.949 . S
H88 C107 0.950 . S
H89 C109 0.950 . S
H90 C110 0.950 . S
H91 C112 0.950 . S
H92 C115 0.950 . S
H93 C116 0.950 . S
H94 C118 0.951 . S
H95 C119 0.949 . S
H96 C121 0.949 . S
H97 C122 0.950 . S
H98 C124 0.950 . S
H99 C125 0.950 . S
H100 C127 0.950 . S
H101 C130 0.950 . S
H102 C131 0.950 . S
H103 C133 0.951 . S
H104 C134 0.949 . S
C105 C106 1.376 . S
C105 C110 1.386 1_545 S
C105 C111 1.483 . S
C106 H87 0.949 . S
C106 C105 1.376 . S
C106 C107 1.397 . S
C107 H88 0.950 . S
C107 C106 1.397 . S
C107 C108 1.391 . S
C108 C107 1.391 . S
C108 C109 1.405 1_545 S
C109 H89 0.950 . S
C109 C108 1.405 1_565 S
C109 C110 1.367 . S
C110 H90 0.950 . S
C110 C105 1.386 1_565 S
C110 C109 1.367 . S
C111 C105 1.483 . S
C111 C112 1.382 . S
C111 C113 1.403 1_545 S
C112 H91 0.950 . S
C112 C111 1.382 . S
C112 C128 1.411 . S
C113 C111 1.403 1_565 S
C113 C114 1.489 . S
C113 C127 1.411 . S
C114 C113 1.489 . S
C114 C115 1.383 1_565 S
C114 C119 1.382 . S
C115 H92 0.950 . S
C115 C114 1.383 1_545 S
C115 C116 1.395 . S
C116 H93 0.950 . S
C116 C115 1.395 . S
C116 C117 1.288 1_545 S
C117 C116 1.288 1_565 S
C117 C118 1.392 . S
C118 H94 0.951 . S
C118 C117 1.392 . S
C118 C119 1.392 . S
C119 H95 0.949 . S
C119 C114 1.382 . S
C119 C118 1.392 . S
C120 C121 1.376 . S
C120 C125 1.386 1_565 S
C120 C126 1.483 . S
C121 H96 0.949 . S
C121 C120 1.376 . S
C121 C122 1.397 . S
C122 H97 0.950 . S
C122 C121 1.397 . S
C122 C123 1.391 . S
C123 C122 1.391 . S
C123 C124 1.405 1_565 S
C124 H98 0.950 . S
C124 C123 1.405 1_545 S
C124 C125 1.367 . S
C125 H99 0.950 . S
C125 C120 1.386 1_545 S
C125 C124 1.367 . S
C126 C120 1.483 . S
C126 C127 1.382 . S
C126 C128 1.403 1_565 S
C127 H100 0.950 . S
C127 C113 1.411 . S
C127 C126 1.382 . S
C128 C112 1.411 . S
C128 C126 1.403 1_545 S
C128 C129 1.489 . S
C129 C128 1.489 . S
C129 C130 1.383 1_545 S
C129 C134 1.382 . S
C130 H101 0.950 . S
C130 C129 1.383 1_565 S
C130 C131 1.395 . S
C131 H102 0.950 . S
C131 C130 1.395 . S
C131 C132 1.288 1_565 S
C132 C131 1.288 1_545 S
C132 C133 1.392 . S
C133 H103 0.951 . S
C133 C132 1.392 . S
C133 C134 1.392 . S
C134 H104 0.949 . S
C134 C129 1.382 . S
C134 C133 1.392 . S
H135 C154 0.949 . S
H136 C155 0.950 . S
H137 C157 0.950 . S
H138 C158 0.950 . S
H139 C160 0.950 . S
H140 C163 0.950 . S
H141 C164 0.950 . S
H142 C166 0.951 . S
H143 C167 0.949 . S
H144 C169 0.949 . S
H145 C170 0.950 . S
H146 C172 0.950 . S
H147 C173 0.950 . S
H148 C175 0.950 . S
H149 C178 0.950 . S
H150 C179 0.950 . S
H151 C181 0.951 . S
H152 C182 0.949 . S
C153 C154 1.376 . S
C153 C158 1.386 . S
C153 C159 1.483 . S
C154 H135 0.949 . S
C154 C153 1.376 . S
C154 C155 1.397 . S
C155 H136 0.950 . S
C155 C154 1.397 . S
C155 C156 1.391 . S
C156 C155 1.391 . S
C156 C157 1.405 . S
C157 H137 0.950 . S
C157 C156 1.405 . S
C157 C158 1.367 . S
C158 H138 0.950 . S
C158 C153 1.386 . S
C158 C157 1.367 . S
C159 C153 1.483 . S
C159 C160 1.382 . S
C159 C161 1.403 . S
C160 H139 0.950 . S
C160 C159 1.382 . S
C160 C176 1.411 . S
C161 C159 1.403 . S
C161 C162 1.489 . S
C161 C175 1.411 . S
C162 C161 1.489 . S
C162 C163 1.383 . S
C162 C167 1.382 . S
C163 H140 0.950 . S
C163 C162 1.383 . S
C163 C164 1.395 . S
C164 H141 0.950 . S
C164 C163 1.395 . S
C164 C165 1.288 . S
C165 C164 1.288 . S
C165 C166 1.392 . S
C166 H142 0.951 . S
C166 C165 1.392 . S
C166 C167 1.392 . S
C167 H143 0.949 . S
C167 C162 1.382 . S
C167 C166 1.392 . S
C168 C169 1.376 . S
C168 C173 1.386 . S
C168 C174 1.483 . S
C169 H144 0.949 . S
C169 C168 1.376 . S
C169 C170 1.397 . S
C170 H145 0.950 . S
C170 C169 1.397 . S
C170 C171 1.391 . S
C171 C170 1.391 . S
C171 C172 1.405 . S
C172 H146 0.950 . S
C172 C171 1.405 . S
C172 C173 1.367 . S
C173 H147 0.950 . S
C173 C168 1.386 . S
C173 C172 1.367 . S
C174 C168 1.483 . S
C174 C175 1.382 . S
C174 C176 1.403 . S
C175 H148 0.950 . S
C175 C161 1.411 . S
C175 C174 1.382 . S
C176 C160 1.411 . S
C176 C174 1.403 . S
C176 C177 1.489 . S
C177 C176 1.489 . S
C177 C178 1.383 . S
C177 C182 1.382 . S
C178 H149 0.950 . S
C178 C177 1.383 . S
C178 C179 1.395 . S
C179 H150 0.950 . S
C179 C178 1.395 . S
C179 C180 1.288 . S
C180 C179 1.288 . S
C180 C181 1.392 . S
C181 H151 0.951 . S
C181 C180 1.392 . S
C181 C182 1.392 . S
C182 H152 0.949 . S
C182 C177 1.382 . S
C182 C181 1.392 . S
C183 C184 1.391 . S
C183 C185 1.394 . S
C183 H199 0.931 . S
C184 C183 1.391 . S
C184 C188 1.376 1_455 S
C185 C183 1.394 . S
C185 C186 1.369 . S
C185 C189 1.531 . S
C186 C185 1.369 . S
C186 C187 1.410 1_455 S
C186 C194 1.503 . S
C187 C186 1.410 1_655 S
C187 C188 1.392 . S
C187 C190 1.511 . S
C188 C184 1.376 1_655 S
C188 C187 1.392 . S
C188 H200 0.929 . S
C189 C185 1.531 . S
C189 H201 0.960 . S
C189 H202 0.962 . S
C189 H203 0.960 . S
C190 C187 1.511 . S
C190 H204 0.961 . S
C190 H205 0.961 . S
C190 H206 0.961 . S
C191 C192 1.370 1_655 S
C191 C193 1.363 . S
C191 H207 0.931 . S
C192 C191 1.370 1_455 S
C192 C196 1.408 . S
C193 C191 1.363 . S
C193 C194 1.370 1_655 S
C193 C197 1.524 . S
C194 C186 1.503 . S
C194 C193 1.370 1_455 S
C194 C195 1.403 . S
C195 C194 1.403 . S
C195 C196 1.404 . S
C195 C198 1.539 . S
C196 C192 1.408 . S
C196 C195 1.404 . S
C196 H208 0.930 . S
C197 C193 1.524 . S
C197 H209 0.956 . S
C197 H210 0.961 . S
C197 H211 0.961 . S
C198 C195 1.539 . S
C198 H212 0.958 . S
C198 H213 0.961 . S
C198 H214 0.960 . S
H199 C183 0.931 . S
H200 C188 0.929 . S
H201 C189 0.960 . S
H202 C189 0.962 . S
H203 C189 0.960 . S
H204 C190 0.961 . S
H205 C190 0.961 . S
H206 C190 0.961 . S
H207 C191 0.931 . S
H208 C196 0.930 . S
H209 C197 0.956 . S
H210 C197 0.961 . S
H211 C197 0.961 . S
H212 C198 0.958 . S
H213 C198 0.961 . S
H214 C198 0.960 . S
C215 C216 1.391 . S
C215 C217 1.394 . S
C215 H231 0.931 . S
C216 C215 1.391 . S
C216 C220 1.376 1_545 S
C217 C215 1.394 . S
C217 C218 1.369 . S
C217 C221 1.531 . S
C218 C217 1.369 . S
C218 C219 1.410 1_545 S
C218 C226 1.503 . S
C219 C218 1.410 1_565 S
C219 C220 1.392 . S
C219 C222 1.511 . S
C220 C216 1.376 1_565 S
C220 C219 1.392 . S
C220 H232 0.929 . S
C221 C217 1.531 . S
C221 H233 0.960 . S
C221 H234 0.962 . S
C221 H235 0.960 . S
C222 C219 1.511 . S
C222 H236 0.961 . S
C222 H237 0.961 . S
C222 H238 0.961 1_565 S
C223 C224 1.370 1_565 S
C223 C225 1.363 . S
C223 H239 0.931 . S
C224 C223 1.370 1_545 S
C224 C228 1.408 . S
C225 C223 1.363 . S
C225 C226 1.370 1_565 S
C225 C229 1.524 . S
C226 C218 1.503 . S
C226 C225 1.370 1_545 S
C226 C227 1.403 . S
C227 C226 1.403 . S
C227 C228 1.404 . S
C227 C230 1.539 . S
C228 C224 1.408 . S
C228 C227 1.404 . S
C228 H240 0.930 . S
C229 C225 1.524 . S
C229 H241 0.956 . S
C229 H242 0.961 . S
C229 H243 0.961 . S
C230 C227 1.539 . S
C230 H244 0.958 . S
C230 H245 0.961 . S
C230 H246 0.960 . S
H231 C215 0.931 . S
H232 C220 0.929 . S
H233 C221 0.960 . S
H234 C221 0.962 . S
H235 C221 0.960 . S
H236 C222 0.961 . S
H237 C222 0.961 . S
H238 C222 0.961 1_545 S
H239 C223 0.931 . S
H240 C228 0.930 . S
H241 C229 0.956 . S
H242 C229 0.961 . S
H243 C229 0.961 . S
H244 C230 0.958 . S
H245 C230 0.961 . S
H246 C230 0.960 . S
C247 C248 1.391 . S
C247 C249 1.394 . S
C247 H263 0.931 . S
C248 C247 1.391 . S
C248 C252 1.376 . S
C249 C247 1.394 . S
C249 C250 1.369 . S
C249 C253 1.531 . S
C250 C249 1.369 . S
C250 C251 1.410 . S
C250 C258 1.503 . S
C251 C250 1.410 . S
C251 C252 1.392 . S
C251 C254 1.511 . S
C252 C248 1.376 . S
C252 C251 1.392 . S
C252 H264 0.929 . S
C253 C249 1.531 . S
C253 H265 0.960 . S
C253 H266 0.962 . S
C253 H267 0.960 . S
C254 C251 1.511 . S
C254 H268 0.961 . S
C254 H269 0.961 . S
C254 H270 0.961 . S
C255 C256 1.370 . S
C255 C257 1.363 . S
C255 H271 0.931 . S
C256 C255 1.370 . S
C256 C260 1.408 . S
C257 C255 1.363 . S
C257 C258 1.370 . S
C257 C261 1.524 . S
C258 C250 1.503 . S
C258 C257 1.370 . S
C258 C259 1.403 . S
C259 C258 1.403 . S
C259 C260 1.404 . S
C259 C262 1.539 . S
C260 C256 1.408 . S
C260 C259 1.404 . S
C260 H272 0.930 . S
C261 C257 1.524 . S
C261 H273 0.956 . S
C261 H274 0.961 . S
C261 H275 0.961 . S
C262 C259 1.539 . S
C262 H276 0.958 . S
C262 H277 0.961 . S
C262 H278 0.960 . S
H263 C247 0.931 . S
H264 C252 0.929 . S
H265 C253 0.960 . S
H266 C253 0.962 . S
H267 C253 0.960 . S
H268 C254 0.961 . S
H269 C254 0.961 . S
H270 C254 0.961 . S
H271 C255 0.931 . S
H272 C260 0.930 . S
H273 C261 0.956 . S
H274 C261 0.961 . S
H275 C261 0.961 . S
H276 C262 0.958 . S
H277 C262 0.961 . S
H278 C262 0.960 . S
C279 C280 1.395 . S
C279 C281 1.394 . S
C279 H295 0.931 . S
C280 C279 1.395 . S
C280 C284 1.373 1_455 S
C281 C279 1.394 . S
C281 C282 1.369 . S
C281 C285 1.531 . S
C282 C281 1.369 . S
C282 C283 1.410 1_455 S
C282 C290 1.503 . S
C283 C282 1.410 1_655 S
C283 C284 1.392 . S
C283 C286 1.511 . S
C284 C280 1.373 1_655 S
C284 C283 1.392 . S
C284 H296 0.929 . S
C285 C281 1.531 . S
C285 H297 0.960 . S
C285 H298 0.962 . S
C285 H299 0.960 . S
C286 C283 1.511 . S
C286 H300 0.961 . S
C286 H301 0.961 . S
C286 H302 0.961 . S
C287 C288 1.370 1_655 S
C287 C289 1.363 . S
C287 H303 0.931 . S
C288 C287 1.370 1_455 S
C288 C292 1.408 . S
C289 C287 1.363 . S
C289 C290 1.370 1_655 S
C289 C293 1.524 . S
C290 C282 1.503 . S
C290 C289 1.370 1_455 S
C290 C291 1.403 . S
C291 C290 1.403 . S
C291 C292 1.404 . S
C291 C294 1.539 . S
C292 C288 1.408 . S
C292 C291 1.404 . S
C292 H304 0.930 . S
C293 C289 1.524 . S
C293 H305 0.956 1_655 S
C293 H306 0.961 . S
C293 H307 0.961 . S
C294 C291 1.539 . S
C294 H308 0.958 . S
C294 H309 0.961 1_455 S
C294 H310 0.960 1_455 S
H295 C279 0.931 . S
H296 C284 0.929 . S
H297 C285 0.960 . S
H298 C285 0.962 . S
H299 C285 0.960 . S
H300 C286 0.961 . S
H301 C286 0.961 . S
H302 C286 0.961 . S
H303 C287 0.931 . S
H304 C292 0.930 . S
H305 C293 0.956 1_455 S
H306 C293 0.961 . S
H307 C293 0.961 . S
H308 C294 0.958 . S
H309 C294 0.961 1_655 S
H310 C294 0.960 1_655 S
C311 C312 1.391 1_545 S
C311 C313 1.394 . S
C311 H327 0.931 . S
C312 C311 1.391 1_565 S
C312 C316 1.376 . S
C313 C311 1.394 . S
C313 C314 1.369 . S
C313 C317 1.531 . S
C314 C313 1.369 . S
C314 C315 1.410 1_545 S
C314 C322 1.503 . S
C315 C314 1.410 1_565 S
C315 C316 1.392 . S
C315 C318 1.511 . S
C316 C312 1.376 . S
C316 C315 1.392 . S
C316 H328 0.929 . S
C317 C313 1.531 . S
C317 H329 0.960 . S
C317 H330 0.962 . S
C317 H331 0.960 . S
C318 C315 1.511 . S
C318 H332 0.961 . S
C318 H333 0.961 . S
C318 H334 0.961 . S
C319 C320 1.370 1_565 S
C319 C321 1.363 . S
C319 H335 0.931 . S
C320 C319 1.370 1_545 S
C320 C324 1.408 . S
C321 C319 1.363 . S
C321 C322 1.370 1_565 S
C321 C325 1.524 . S
C322 C314 1.503 . S
C322 C321 1.370 1_545 S
C322 C323 1.403 . S
C323 C322 1.403 . S
C323 C324 1.404 . S
C323 C326 1.539 . S
C324 C320 1.408 . S
C324 C323 1.404 . S
C324 H336 0.930 . S
C325 C321 1.524 . S
C325 H337 0.956 1_565 S
C325 H338 0.961 . S
C325 H339 0.961 . S
C326 C323 1.539 . S
C326 H340 0.958 . S
C326 H341 0.961 . S
C326 H342 0.960 . S
H327 C311 0.931 . S
H328 C316 0.929 . S
H329 C317 0.960 . S
H330 C317 0.962 . S
H331 C317 0.960 . S
H332 C318 0.961 . S
H333 C318 0.961 . S
H334 C318 0.961 . S
H335 C319 0.931 . S
H336 C324 0.930 . S
H337 C325 0.956 1_545 S
H338 C325 0.961 . S
H339 C325 0.961 . S
H340 C326 0.958 . S
H341 C326 0.961 . S
H342 C326 0.960 . S
C343 C344 1.391 . S
C343 C345 1.394 . S
C343 H359 0.931 . S
C344 C343 1.391 . S
C344 C348 1.376 . S
C345 C343 1.394 . S
C345 C346 1.369 . S
C345 C349 1.531 . S
C346 C345 1.369 . S
C346 C347 1.410 . S
C346 C354 1.503 . S
C347 C346 1.410 . S
C347 C348 1.392 . S
C347 C350 1.511 . S
C348 C344 1.376 . S
C348 C347 1.392 . S
C348 H360 0.929 . S
C349 C345 1.531 . S
C349 H361 0.960 . S
C349 H362 0.962 . S
C349 H363 0.960 . S
C350 C347 1.511 . S
C350 H364 0.961 . S
C350 H365 0.961 . S
C350 H366 0.961 . S
C351 C352 1.370 . S
C351 C353 1.363 . S
C351 H367 0.931 . S
C352 C351 1.370 . S
C352 C356 1.408 . S
C353 C351 1.363 . S
C353 C354 1.370 . S
C353 C357 1.524 . S
C354 C346 1.503 . S
C354 C353 1.370 . S
C354 C355 1.403 . S
C355 C354 1.403 . S
C355 C356 1.404 . S
C355 C358 1.539 . S
C356 C352 1.408 . S
C356 C355 1.404 . S
C356 H368 0.930 . S
C357 C353 1.524 . S
C357 H369 0.956 . S
C357 H370 0.961 . S
C357 H371 0.961 . S
C358 C355 1.539 . S
C358 H372 0.958 . S
C358 H373 0.961 . S
C358 H374 0.960 . S
H359 C343 0.931 . S
H360 C348 0.929 . S
H361 C349 0.960 . S
H362 C349 0.962 . S
H363 C349 0.960 . S
H364 C350 0.961 . S
H365 C350 0.961 . S
H366 C350 0.961 . S
H367 C351 0.931 . S
H368 C356 0.930 . S
H369 C357 0.956 . S
H370 C357 0.961 . S
H371 C357 0.961 . S
H372 C358 0.958 . S
H373 C358 0.961 . S
H374 C358 0.960 . S
C375 C376 1.391 . S
C375 C377 1.394 . S
C375 H391 0.931 . S
C376 C375 1.391 . S
C376 C380 1.376 1_565 S
C377 C375 1.394 . S
C377 C378 1.369 . S
C377 C381 1.531 . S
C378 C377 1.369 . S
C378 C379 1.410 1_565 S
C378 C386 1.503 . S
C379 C378 1.410 1_545 S
C379 C380 1.392 . S
C379 C382 1.511 . S
C380 C376 1.376 1_545 S
C380 C379 1.392 . S
C380 H392 0.929 . S
C381 C377 1.531 . S
C381 H393 0.960 . S
C381 H394 0.962 . S
C381 H395 0.960 . S
C382 C379 1.511 . S
C382 H396 0.961 . S
C382 H397 0.961 . S
C382 H398 0.961 . S
C383 C384 1.370 . S
C383 C385 1.363 . S
C383 H399 0.931 . S
C384 C383 1.370 . S
C384 C388 1.409 1_545 S
C385 C383 1.363 . S
C385 C386 1.370 1_545 S
C385 C389 1.524 . S
C386 C378 1.503 . S
C386 C385 1.370 1_565 S
C386 C387 1.403 . S
C387 C386 1.403 . S
C387 C388 1.404 . S
C387 C390 1.539 . S
C388 C384 1.409 1_565 S
C388 C387 1.404 . S
C388 H400 0.930 . S
C389 C385 1.524 . S
C389 H401 0.956 . S
C389 H402 0.961 . S
C389 H403 0.961 . S
C390 C387 1.539 . S
C390 H404 0.958 . S
C390 H405 0.961 . S
C390 H406 0.960 . S
H391 C375 0.931 . S
H392 C380 0.929 . S
H393 C381 0.960 . S
H394 C381 0.962 . S
H395 C381 0.960 . S
H396 C382 0.961 . S
H397 C382 0.961 . S
H398 C382 0.961 . S
H399 C383 0.931 . S
H400 C388 0.930 . S
H401 C389 0.956 . S
H402 C389 0.961 . S
H403 C389 0.961 . S
H404 C390 0.958 . S
H405 C390 0.961 . S
H406 C390 0.960 . S
C407 C408 1.391 . S
C407 C409 1.394 1_554 S
C407 H423 0.931 . S
C408 C407 1.391 . S
C408 C412 1.376 1_554 S
C409 C407 1.394 1_556 S
C409 C410 1.369 . S
C409 C413 1.531 . S
C410 C409 1.369 . S
C410 C411 1.410 . S
C410 C418 1.503 . S
C411 C410 1.410 . S
C411 C412 1.392 . S
C411 C414 1.511 . S
C412 C408 1.376 1_556 S
C412 C411 1.392 . S
C412 H424 0.929 . S
C413 C409 1.531 . S
C413 H425 0.960 . S
C413 H426 0.962 . S
C413 H427 0.915 1_556 S
C414 C411 1.511 . S
C414 H428 0.961 . S
C414 H429 0.961 . S
C414 H430 0.961 . S
C415 C416 1.370 . S
C415 C417 1.363 . S
C415 H431 0.931 . S
C416 C415 1.370 . S
C416 C420 1.408 . S
C417 C415 1.363 . S
C417 C418 1.370 . S
C417 C421 1.524 . S
C418 C410 1.503 . S
C418 C417 1.370 . S
C418 C419 1.403 . S
C419 C418 1.403 . S
C419 C420 1.404 . S
C419 C422 1.539 . S
C420 C416 1.408 . S
C420 C419 1.404 . S
C420 H432 0.930 . S
C421 C417 1.524 . S
C421 H433 0.956 . S
C421 H434 0.961 . S
C421 H435 0.961 . S
C422 C419 1.539 . S
C422 H436 0.958 1_556 S
C422 H437 0.961 . S
C422 H438 0.960 1_556 S
H423 C407 0.931 . S
H424 C412 0.929 . S
H425 C413 0.960 . S
H426 C413 0.962 . S
H427 C413 0.915 1_554 S
H428 C414 0.961 . S
H429 C414 0.961 . S
H430 C414 0.961 . S
H431 C415 0.931 . S
H432 C420 0.930 . S
H433 C421 0.956 . S
H434 C421 0.961 . S
H435 C421 0.961 . S
H436 C422 0.958 1_554 S
H437 C422 0.961 . S
H438 C422 0.960 1_554 S
C439 C440 1.391 . S
C439 C441 1.394 . S
C439 H455 0.931 . S
C440 C439 1.391 . S
C440 C444 1.376 1_455 S
C441 C439 1.394 . S
C441 C442 1.369 . S
C441 C445 1.531 . S
C442 C441 1.369 . S
C442 C443 1.410 1_455 S
C442 C450 1.503 . S
C443 C442 1.410 1_655 S
C443 C444 1.392 . S
C443 C446 1.511 . S
C444 C440 1.376 1_655 S
C444 C443 1.392 . S
C444 H456 0.929 . S
C445 C441 1.531 . S
C445 H457 0.960 . S
C445 H458 0.962 . S
C445 H459 0.960 . S
C446 C443 1.511 . S
C446 H460 0.961 . S
C446 H461 0.961 . S
C446 H462 0.961 . S
C447 C448 1.379 . S
C447 C449 1.367 . S
C447 H463 0.929 1_455 S
C448 C447 1.379 . S
C448 C452 1.408 . S
C449 C447 1.367 . S
C449 C450 1.374 . S
C449 C453 1.511 1_455 S
C450 C442 1.503 . S
C450 C449 1.374 . S
C450 C451 1.403 . S
C451 C450 1.403 . S
C451 C452 1.404 . S
C451 C454 1.539 . S
C452 C448 1.408 . S
C452 C451 1.404 . S
C452 H464 0.930 . S
C453 C449 1.511 1_655 S
C453 H465 0.956 1_655 S
C453 H466 0.961 . S
C453 H467 0.961 . S
C454 C451 1.539 . S
C454 H468 0.958 . S
C454 H469 0.961 1_455 S
C454 H470 0.960 1_455 S
H455 C439 0.931 . S
H456 C444 0.929 . S
H457 C445 0.960 . S
H458 C445 0.962 . S
H459 C445 0.960 . S
H460 C446 0.961 . S
H461 C446 0.961 . S
H462 C446 0.961 . S
H463 C447 0.929 1_655 S
H464 C452 0.930 . S
H465 C453 0.956 1_455 S
H466 C453 0.961 . S
H467 C453 0.961 . S
H468 C454 0.958 . S
H469 C454 0.961 1_655 S
H470 C454 0.960 1_655 S
C471 C472 1.391 . S
C471 C473 1.394 . S
C471 H487 0.931 . S
C472 C471 1.391 . S
C472 C476 1.376 1_545 S
C473 C471 1.394 . S
C473 C474 1.369 . S
C473 C477 1.531 . S
C474 C473 1.369 . S
C474 C475 1.410 1_545 S
C474 C482 1.503 . S
C475 C474 1.410 1_565 S
C475 C476 1.392 . S
C475 C478 1.511 . S
C476 C472 1.376 1_565 S
C476 C475 1.392 . S
C476 H488 0.929 . S
C477 C473 1.531 . S
C477 H489 0.960 . S
C477 H490 0.962 . S
C477 H491 0.960 . S
C478 C475 1.511 . S
C478 H492 0.961 . S
C478 H493 0.961 . S
C478 H494 0.961 . S
C479 C480 1.370 1_565 S
C479 C481 1.363 . S
C479 H495 0.931 . S
C480 C479 1.370 1_545 S
C480 C484 1.408 . S
C481 C479 1.363 . S
C481 C482 1.370 1_565 S
C481 C485 1.524 . S
C482 C474 1.503 . S
C482 C481 1.370 1_545 S
C482 C483 1.403 . S
C483 C482 1.403 . S
C483 C484 1.404 . S
C483 C486 1.539 . S
C484 C480 1.408 . S
C484 C483 1.404 . S
C484 H496 0.930 . S
C485 C481 1.524 . S
C485 H497 0.956 1_565 S
C485 H498 0.961 . S
C485 H499 0.961 . S
C486 C483 1.539 . S
C486 H500 0.958 . S
C486 H501 0.961 . S
C486 H502 0.960 . S
H487 C471 0.931 . S
H488 C476 0.929 . S
H489 C477 0.960 . S
H490 C477 0.962 . S
H491 C477 0.960 . S
H492 C478 0.961 . S
H493 C478 0.961 . S
H494 C478 0.961 . S
H495 C479 0.931 . S
H496 C484 0.930 . S
H497 C485 0.956 1_545 S
H498 C485 0.961 . S
H499 C485 0.961 . S
H500 C486 0.958 . S
H501 C486 0.961 . S
H502 C486 0.960 . S
C503 C504 1.391 1_556 S
C503 C505 1.394 . S
C503 H519 0.931 . S
C504 C503 1.391 1_554 S
C504 C508 1.376 . S
C505 C503 1.394 . S
C505 C506 1.369 . S
C505 C509 1.531 . S
C506 C505 1.369 . S
C506 C507 1.410 . S
C506 C514 1.503 . S
C507 C506 1.410 . S
C507 C508 1.392 1_556 S
C507 C510 1.511 1_556 S
C508 C504 1.376 . S
C508 C507 1.392 1_554 S
C508 H520 0.929 . S
C509 C505 1.531 . S
C509 H521 0.960 . S
C509 H522 0.962 . S
C509 H523 0.960 . S
C510 C507 1.511 1_554 S
C510 H524 0.961 . S
C510 H525 0.961 1_554 S
C510 H526 0.961 . S
C511 C512 1.370 . S
C511 C513 1.363 . S
C511 H527 0.931 . S
C512 C511 1.370 . S
C512 C516 1.408 . S
C513 C511 1.363 . S
C513 C514 1.370 . S
C513 C517 1.524 . S
C514 C506 1.503 . S
C514 C513 1.370 . S
C514 C515 1.403 . S
C515 C514 1.403 . S
C515 C516 1.404 . S
C515 C518 1.539 . S
C516 C512 1.408 . S
C516 C515 1.404 . S
C516 H528 0.930 . S
C517 C513 1.524 . S
C517 H529 0.956 . S
C517 H530 0.961 . S
C517 H531 0.961 . S
C518 C515 1.539 . S
C518 H532 0.958 . S
C518 H533 0.961 . S
C518 H534 0.960 . S
H519 C503 0.931 . S
H520 C508 0.929 . S
H521 C509 0.960 . S
H522 C509 0.962 . S
H523 C509 0.960 . S
H524 C510 0.961 . S
H525 C510 0.961 1_556 S
H526 C510 0.961 . S
H527 C511 0.931 . S
H528 C516 0.930 . S
H529 C517 0.956 . S
H530 C517 0.961 . S
H531 C517 0.961 . S
H532 C518 0.958 . S
H533 C518 0.961 . S
H534 C518 0.960 . S
C535 C536 1.391 1_655 S
C535 C537 1.394 . S
C535 H551 0.931 . S
C536 C535 1.391 1_455 S
C536 C540 1.376 . S
C537 C535 1.394 . S
C537 C538 1.369 1_655 S
C537 C541 1.531 . S
C538 C537 1.369 1_455 S
C538 C539 1.410 . S
C538 C546 1.503 . S
C539 C538 1.410 . S
C539 C540 1.392 . S
C539 C542 1.511 . S
C540 C536 1.376 . S
C540 C539 1.392 . S
C540 H552 0.929 . S
C541 C537 1.531 . S
C541 H553 0.960 . S
C541 H554 0.962 . S
C541 H555 0.960 . S
C542 C539 1.511 . S
C542 H556 0.961 . S
C542 H557 0.961 . S
C542 H558 0.961 . S
C543 C544 1.370 1_655 S
C543 C545 1.363 . S
C543 H559 0.931 . S
C544 C543 1.370 1_455 S
C544 C548 1.408 . S
C545 C543 1.363 . S
C545 C546 1.370 1_655 S
C545 C549 1.524 . S
C546 C538 1.503 . S
C546 C545 1.370 1_455 S
C546 C547 1.403 . S
C547 C546 1.403 . S
C547 C548 1.404 . S
C547 C550 1.539 . S
C548 C544 1.408 . S
C548 C547 1.404 . S
C548 H560 0.930 . S
C549 C545 1.524 . S
C549 H561 0.956 . S
C549 H562 0.961 . S
C549 H563 0.961 . S
C550 C547 1.539 . S
C550 H564 0.958 . S
C550 H565 0.961 . S
C550 H566 0.960 . S
H551 C535 0.931 . S
H552 C540 0.929 . S
H553 C541 0.960 . S
H554 C541 0.962 . S
H555 C541 0.960 . S
H556 C542 0.961 . S
H557 C542 0.961 . S
H558 C542 0.961 . S
H559 C543 0.931 . S
H560 C548 0.930 . S
H561 C549 0.956 . S
H562 C549 0.961 . S
H563 C549 0.961 . S
H564 C550 0.958 . S
H565 C550 0.961 . S
H566 C550 0.960 . S
C192 C60 1.534 . S
C184 C10 1.526 . S
C216 C17 1.529 . S
C224 C108 1.532 . S
C248 C36 1.535 . S
C256 C180 1.533 . S
C280 C5 1.523 1_455 S
C288 C84 1.532 . S
C320 C132 1.531 . S
C312 C16 1.532 . S
C344 C31 1.529 . S
C352 C156 1.535 . S
C384 C117 1.524 1_545 S
C376 C30 1.527 . S
C408 C3 1.529 . S
C416 C171 1.534 . S
C448 C75 1.527 . S
C440 C18 1.530 . S
C480 C123 1.536 1_545 S
C472 C29 1.530 . S
C512 C165 1.524 . S
C504 C4 1.530 . S
C536 C23 1.527 1_455 S
C544 C69 1.532 1_455 S
