# Generated by pormake.
# Topology zzz, (3,6)-cn, num edge types: 1
# Building blocks:
#     Node 0, Type 0, BuildingBlock: BETDAH_clean_linker_0, # of connection points: 3
#     Node 1, Type 0, BuildingBlock: BETDAH_clean_linker_0, # of connection points: 3
#     Node 2, Type 0, BuildingBlock: BETDAH_clean_linker_0, # of connection points: 3
#     Node 3, Type 0, BuildingBlock: BETDAH_clean_linker_0, # of connection points: 3
#     Node 4, Type 0, BuildingBlock: BETDAH_clean_linker_0, # of connection points: 3
#     Node 5, Type 0, BuildingBlock: BETDAH_clean_linker_0, # of connection points: 3
#     Node 6, Type 0, BuildingBlock: BETDAH_clean_linker_0, # of connection points: 3
#     Node 7, Type 0, BuildingBlock: BETDAH_clean_linker_0, # of connection points: 3
#     Node 8, Type 1, BuildingBlock: KUMBOL_clean_sbu_1, # of connection points: 6
#     Node 9, Type 1, BuildingBlock: KUMBOL_clean_sbu_1, # of connection points: 6
#     Node 10, Type 1, BuildingBlock: KUMBOL_clean_sbu_1, # of connection points: 6
#     Node 11, Type 1, BuildingBlock: KUMBOL_clean_sbu_1, # of connection points: 6
#     Edge 12, Type (0, 1), BuildingBlock: XUDNAN_clean_linker_2, # of connection points: 2
#     Edge 13, Type (0, 1), BuildingBlock: XUDNAN_clean_linker_2, # of connection points: 2
#     Edge 14, Type (0, 1), BuildingBlock: XUDNAN_clean_linker_2, # of connection points: 2
#     Edge 15, Type (0, 1), BuildingBlock: XUDNAN_clean_linker_2, # of connection points: 2
#     Edge 16, Type (0, 1), BuildingBlock: XUDNAN_clean_linker_2, # of connection points: 2
#     Edge 17, Type (0, 1), BuildingBlock: XUDNAN_clean_linker_2, # of connection points: 2
#     Edge 18, Type (0, 1), BuildingBlock: XUDNAN_clean_linker_2, # of connection points: 2
#     Edge 19, Type (0, 1), BuildingBlock: XUDNAN_clean_linker_2, # of connection points: 2
#     Edge 20, Type (0, 1), BuildingBlock: XUDNAN_clean_linker_2, # of connection points: 2
#     Edge 21, Type (0, 1), BuildingBlock: XUDNAN_clean_linker_2, # of connection points: 2
#     Edge 22, Type (0, 1), BuildingBlock: XUDNAN_clean_linker_2, # of connection points: 2
#     Edge 23, Type (0, 1), BuildingBlock: XUDNAN_clean_linker_2, # of connection points: 2
#     Edge 24, Type (0, 1), BuildingBlock: XUDNAN_clean_linker_2, # of connection points: 2
#     Edge 25, Type (0, 1), BuildingBlock: XUDNAN_clean_linker_2, # of connection points: 2
#     Edge 26, Type (0, 1), BuildingBlock: XUDNAN_clean_linker_2, # of connection points: 2
#     Edge 27, Type (0, 1), BuildingBlock: XUDNAN_clean_linker_2, # of connection points: 2
#     Edge 28, Type (0, 1), BuildingBlock: XUDNAN_clean_linker_2, # of connection points: 2
#     Edge 29, Type (0, 1), BuildingBlock: XUDNAN_clean_linker_2, # of connection points: 2
#     Edge 30, Type (0, 1), BuildingBlock: XUDNAN_clean_linker_2, # of connection points: 2
#     Edge 31, Type (0, 1), BuildingBlock: XUDNAN_clean_linker_2, # of connection points: 2
#     Edge 32, Type (0, 1), BuildingBlock: XUDNAN_clean_linker_2, # of connection points: 2
#     Edge 33, Type (0, 1), BuildingBlock: XUDNAN_clean_linker_2, # of connection points: 2
#     Edge 34, Type (0, 1), BuildingBlock: XUDNAN_clean_linker_2, # of connection points: 2
#     Edge 35, Type (0, 1), BuildingBlock: XUDNAN_clean_linker_2, # of connection points: 2
# Relax obj value: 0.181
# Max RMSD: 0.106
# Mean RMSD: 0.082
data_MOF--net-zzz--node1-KUMBOL_clean_sbu_1--node2-BETDAH_clean_linker_0--edge1-XUDNAN_clean_linker_2
_symmetry_space_group_name_H-M    P1
_symmetry_Int_Tables_number       1
_symmetry_cell_setting            triclinic
loop_
_symmetry_equiv_pos_as_xyz
'x, y, z'
_cell_length_a     50.030772
_cell_length_b     50.185876
_cell_length_c     15.804985
_cell_angle_alpha  89.590781
_cell_angle_beta   90.287481
_cell_angle_gamma 90.338371
loop_
_atom_site_label
_atom_site_type_symbol
_atom_site_fract_x
_atom_site_fract_y
_atom_site_fract_z
_atom_type_partial_charge
H0 H 0.83334 0.56739 0.24386 0.0
H1 H 0.75185 0.56468 0.15824 0.0
H2 H 0.77286 0.53161 0.40182 0.0
C3 C 0.8125 0.56306 0.25692 0.0
C4 C 0.80574 0.55014 0.3332 0.0
C5 C 0.79326 0.5677 0.19328 0.0
C6 C 0.76644 0.56099 0.20778 0.0
C7 C 0.75869 0.54787 0.28218 0.0
C8 C 0.77855 0.54227 0.34482 0.0
N9 N 0.73153 0.53902 0.29282 0.0
C10 C 0.71061 0.54261 0.23345 0.0
H11 H 0.97032 0.82978 0.25048 0.0
H12 H 0.97469 0.74869 0.16708 0.0
H13 H 0.02061 0.77404 0.38343 0.0
C14 C 0.9771 0.80954 0.26075 0.0
C15 C 0.9951 0.80437 0.32738 0.0
C16 C 0.97024 0.78976 0.20161 0.0
C17 C 0.98027 0.76392 0.21221 0.0
C18 C 0.99873 0.758 0.27642 0.0
C19 C 1.00603 0.77833 0.33439 0.0
N20 N 1.011 0.73226 0.28069 0.0
C21 C 1.01054 0.71359 0.21452 0.0
H22 H 0.71182 0.992 0.25909 0.0
H23 H 0.78627 0.99644 0.12855 0.0
H24 H 0.77812 0.03347 0.37367 0.0
C25 C 0.73268 0.99802 0.25969 0.0
C26 C 0.74281 1.01264 0.32783 0.0
C27 C 0.74823 0.99185 0.18935 0.0
C28 C 0.77467 1.00096 0.18418 0.0
C29 C 0.7858 1.01607 0.25071 0.0
C30 C 0.76967 0.02188 0.32246 0.0
N31 N 0.81283 0.02574 0.24714 0.0
C32 C 0.83061 0.02241 0.1793 0.0
H33 H 0.53902 0.70943 0.17293 0.0
H34 H 0.55167 0.79128 0.10417 0.0
H35 H 0.54624 0.76876 0.3676 0.0
C36 C 0.54303 0.72981 0.19181 0.0
C37 C 0.5434 0.73612 0.27842 0.0
C38 C 0.54568 0.74971 0.12932 0.0
C39 C 0.54968 0.7762 0.15314 0.0
C40 C 0.54994 0.78354 0.23846 0.0
C41 C 0.54688 0.76328 0.30149 0.0
N42 N 0.5519 0.81114 0.2609 0.0
C43 C 0.55391 0.83231 0.20196 0.0
H44 H 0.22736 0.52822 0.16189 0.0
H45 H 0.30797 0.51448 0.23766 0.0
H46 H 0.28347 0.49635 0.98226 0.0
C47 C 0.24683 0.52073 0.14508 0.0
C48 C 0.25165 0.51122 0.06304 0.0
C49 C 0.26676 0.52113 0.20772 0.0
C50 C 0.29285 0.51389 0.18837 0.0
C51 C 0.29931 0.50531 0.10697 0.0
C52 C 0.27856 0.50373 0.04437 0.0
N53 N 0.32628 0.49783 0.08781 0.0
C54 C 0.3478 0.49728 0.14615 0.0
H55 H 0.99774 0.22092 0.10541 0.0
H56 H 1.00973 0.29462 0.23569 0.0
H57 H 0.06325 0.27232 0.03519 0.0
C58 C 1.00842 0.23969 0.11114 0.0
C59 C 0.03082 0.24443 0.06015 0.0
C60 C 1.00099 0.25752 0.17465 0.0
C61 C 1.01553 0.2812 0.1859 0.0
C62 C 0.03781 0.28714 0.13525 0.0
C63 C 0.04568 0.26833 0.07308 0.0
N64 N 0.05283 0.31132 0.14735 0.0
C65 C 0.04653 0.33145 0.20569 0.0
H66 H 0.32967 0.08137 0.11928 0.0
H67 H 0.24963 0.08103 0.21542 0.0
H68 H 0.26974 0.03261 1.00055 0.0
C69 C 0.30896 0.07533 0.11257 0.0
C70 C 0.30226 0.05692 0.04962 0.0
C71 C 0.29022 0.08444 0.17163 0.0
C72 C 0.26399 0.07441 0.16914 0.0
C73 C 0.25638 0.05561 0.10795 0.0
C74 C 0.27557 0.04709 0.04775 0.0
N75 N 0.22974 0.045 0.10576 0.0
C76 C 0.21128 0.04543 0.17271 0.0
H77 H 0.54689 0.33168 0.16946 0.0
H78 H 0.5365 0.2529 0.26615 0.0
H79 H 0.51052 0.27132 0.01162 0.0
C80 C 0.53936 0.3117 0.1592 0.0
C81 C 0.52769 0.30474 0.08112 0.0
C82 C 0.54204 0.29319 0.22534 0.0
C83 C 0.53418 0.2668 0.21394 0.0
C84 C 0.52287 0.25848 0.13719 0.0
C85 C 0.51966 0.27758 0.07048 0.0
N86 N 0.51434 0.23129 0.12737 0.0
C87 C 0.51455 0.21222 0.19342 0.0
C88 C 0.1055 1.01509 0.8617 0.0
C89 C 0.10142 0.04044 0.99063 0.0
C90 C 0.08978 0.02795 0.91965 0.0
C91 C 0.12935 0.04035 1.00069 0.0
C92 C 0.13345 1.01403 0.87285 0.0
C93 C 0.14535 0.02714 0.94188 0.0
N94 N 0.09324 1.00229 0.79694 0.0
C95 C 0.10761 0.98677 0.7434 0.0
C96 C 0.14847 0.99921 0.81559 0.0
C97 C 0.13543 0.98527 0.7511 0.0
Gd98 Gd 1.00046 0.03988 0.6021 0.0
Gd99 Gd 0.04667 1.00707 0.78383 0.0
N100 N 0.06292 0.02709 0.90865 0.0
C101 C 0.0846 0.05208 0.05024 0.0
C102 C 0.04636 0.03729 0.96869 0.0
C103 C 0.05693 0.05031 0.03945 0.0
H104 H 0.02496 0.03587 0.96154 0.0
H105 H 0.04371 0.05896 0.08562 0.0
H106 H 0.03235 0.09064 0.50635 0.0
H107 H 0.09759 0.9755 0.69462 0.0
H108 H 0.0515 0.10125 0.36596 0.0
H109 H 0.09273 0.06198 0.10544 0.0
H110 H 0.1387 0.04992 0.05461 0.0
H111 H 0.95011 0.99793 0.56275 0.0
H112 H 0.17 0.99787 0.82187 0.0
H113 H 0.14676 0.97323 0.70766 0.0
H114 H 0.02536 0.02692 0.19343 0.0
H115 H 0.16681 0.0267 0.95133 0.0
H116 H 0.95775 0.96945 0.30876 0.0
H117 H 0.93403 0.96915 0.44601 0.0
N118 N 0.98275 1.01358 0.49245 0.0
C119 C 0.99466 1.01559 0.41596 0.0
C120 C 0.96037 0.99819 0.50266 0.0
C121 C 0.96486 0.982 0.35974 0.0
C122 C 0.95137 0.98182 0.43701 0.0
C123 C 0.98633 0.99962 0.34761 0.0
H124 H 0.99288 0.99052 0.21548 0.0
N125 N 0.01777 0.05259 0.46917 0.0
C126 C 1.01292 0.03589 0.40383 0.0
C127 C 0.03847 0.0643 0.31005 0.0
C128 C 0.02344 0.041 0.32268 0.0
C129 C 0.03027 0.07649 0.45533 0.0
C130 C 0.04117 0.08251 0.37607 0.0
O131 O 0.0453 0.05193 0.79633 0.0
O132 O 0.01915 0.07124 0.68914 0.0
O133 O 0.97356 0.06849 0.54018 0.0
O134 O 0.96503 0.05379 0.66473 0.0
O135 O 1.00698 0.02538 0.82185 0.0
O136 O 0.98496 1.01238 0.70473 0.0
O137 O 1.00238 0.99415 0.6074 0.0
O138 O 0.04493 0.98654 0.65578 0.0
O139 O 1.01629 0.97715 0.80935 0.0
O140 O 0.05625 0.97218 0.86025 0.0
O141 O 0.04561 0.04943 0.59446 0.0
O142 O 0.06558 1.01277 0.65493 0.0
C143 C 0.03446 0.07268 0.75774 0.0
C144 C 0.98429 0.01978 0.78414 0.0
C145 C 0.95007 0.09717 0.63489 0.0
C146 C 0.93833 0.14327 0.60366 0.0
C147 C 0.93504 0.12646 0.74717 0.0
C148 C 0.94376 0.10152 0.72053 0.0
C149 C 0.93265 0.1474 0.68926 0.0
C150 C 0.94688 0.11813 0.57659 0.0
C151 C 0.95821 0.07044 0.606 0.0
C152 C 0.01711 0.02368 0.25589 0.0
C153 C 0.99857 1.00296 0.2684 0.0
H154 H 0.04682 0.06907 0.24863 0.0
C155 C 0.02345 0.97862 0.61417 0.0
C156 C 0.06554 0.03233 0.59872 0.0
C157 C 0.03331 0.9341 0.80804 0.0
C158 C 1.00876 0.89309 0.77591 0.0
C159 C 0.05252 0.90146 0.71417 0.0
C160 C 0.05435 0.92569 0.75655 0.0
C161 C 0.02965 0.88559 0.72176 0.0
C162 C 1.01086 0.91765 0.81834 0.0
C163 C 0.03315 0.96092 0.84497 0.0
H164 H 0.93009 0.12953 0.81294 0.0
H165 H 0.94537 0.08565 0.76707 0.0
H166 H 0.92618 0.16674 0.71097 0.0
H167 H 0.9513 0.11504 0.51028 0.0
H168 H 0.06876 0.89513 0.67419 0.0
H169 H 0.07189 0.93805 0.74744 0.0
H170 H 0.02866 0.86722 0.68643 0.0
H171 H 0.99539 0.92399 0.8613 0.0
C172 C 0.54117 0.96009 0.51355 0.0
C173 C 0.52613 0.91698 0.56443 0.0
C174 C 0.52628 0.94502 0.5695 0.0
C175 C 0.54215 0.90441 0.50398 0.0
C176 C 0.5563 0.94772 0.45014 0.0
C177 C 0.55721 0.91977 0.44684 0.0
N178 N 0.53948 0.98696 0.51791 0.0
C179 C 0.55085 1.00276 0.45709 0.0
C180 C 0.56937 0.96383 0.39053 0.0
C181 C 0.56631 0.99148 0.39324 0.0
Gd182 Gd 0.53669 0.04899 0.82037 0.0
Gd183 Gd 0.51497 1.00457 0.63063 0.0
N184 N 0.51062 0.9579 0.62546 0.0
C185 C 0.50928 0.90253 0.61857 0.0
C186 C 0.49308 0.94401 0.67517 0.0
C187 C 0.49246 0.91614 0.67354 0.0
H188 H 0.47984 0.95441 0.71727 0.0
H189 H 0.47894 0.90519 0.71443 0.0
H190 H 0.60092 0.03537 0.86483 0.0
H191 H 0.54849 0.02414 0.45925 0.0
H192 H 0.64334 0.06017 0.88725 0.0
H193 H 0.50861 0.88096 0.61688 0.0
H194 H 0.54249 0.88288 0.49946 0.0
H195 H 0.48811 0.09326 0.84699 0.0
H196 H 0.58147 0.95508 0.34148 0.0
H197 H 0.57588 1.00408 0.34635 0.0
H198 H 0.61731 0.15196 0.88553 0.0
H199 H 0.56892 0.90986 0.39902 0.0
H200 H 0.52346 0.1707 0.87216 0.0
H201 H 0.48322 0.14188 0.86368 0.0
N202 N 0.53051 0.09469 0.84304 0.0
C203 C 0.55276 0.10996 0.85124 0.0
C204 C 0.50574 0.10567 0.85005 0.0
C205 C 0.52567 0.1494 0.86424 0.0
C206 C 0.50292 0.1332 0.8597 0.0
C207 C 0.55102 0.13778 0.86154 0.0
H208 H 0.57365 0.17433 0.8789 0.0
N209 N 0.57762 0.07045 0.85085 0.0
C210 C 0.57718 0.09741 0.85521 0.0
C211 C 0.62486 0.09861 0.87935 0.0
C212 C 0.60075 0.11228 0.86931 0.0
C213 C 0.60082 0.05691 0.8659 0.0
C214 C 0.62483 0.0708 0.8785 0.0
O215 O 0.51976 0.98464 0.75899 0.0
O216 O 0.55561 1.00787 0.80825 0.0
O217 O 0.53855 0.05566 0.95607 0.0
O218 O 0.5161 0.0222 0.90716 0.0
O219 O 0.48926 1.00444 0.74918 0.0
O220 O 0.49271 0.04818 0.78206 0.0
O221 O 0.51576 0.07018 0.71134 0.0
O222 O 0.53057 0.04628 0.5983 0.0
O223 O 0.48159 0.03071 0.60714 0.0
O224 O 0.48683 0.99568 0.52925 0.0
O225 O 0.57147 0.04326 0.7291 0.0
O226 O 0.56001 1.01208 0.62626 0.0
C227 C 0.54178 0.98552 0.80417 0.0
C228 C 0.47838 0.02613 0.77984 0.0
C229 C 0.5375 1.01607 0.03729 0.0
C230 C 0.57458 0.98771 0.08228 0.0
C231 C 0.53442 0.99098 0.1683 0.0
C232 C 0.52325 1.00873 0.10986 0.0
C233 C 0.55986 0.9805 0.15472 0.0
C234 C 0.56293 1.00542 0.02347 0.0
C235 C 0.52533 0.03391 0.97431 0.0
C236 C 0.59938 0.14016 0.87547 0.0
C237 C 0.57453 0.1529 0.87166 0.0
H238 H 0.64345 0.10929 0.88984 0.0
C239 C 0.52257 0.06895 0.63095 0.0
C240 C 0.57745 0.0281 0.66369 0.0
C241 C 0.46701 0.03434 0.467 0.0
C242 C 0.43804 0.06886 0.40793 0.0
C243 C 0.46944 0.04524 0.31785 0.0
C244 C 0.47815 0.03012 0.38702 0.0
C245 C 0.44924 0.06413 0.32763 0.0
C246 C 0.44801 0.0544 0.47751 0.0
C247 C 0.47363 0.0177 0.54083 0.0
H248 H 0.5234 0.98538 0.22453 0.0
H249 H 0.50348 0.01662 0.12104 0.0
H250 H 0.56812 0.96722 0.20194 0.0
H251 H 0.57343 1.01081 0.96621 0.0
H252 H 0.47779 0.04177 0.25587 0.0
H253 H 0.49319 1.01501 0.3777 0.0
H254 H 0.44188 0.07416 0.27146 0.0
H255 H 0.44036 0.05797 0.54039 0.0
C256 C 0.46013 0.49041 0.84141 0.0
C257 C 0.47306 0.48512 0.98893 0.0
C258 C 0.47703 0.49672 0.90837 0.0
C259 C 0.45208 0.46681 1.00098 0.0
C260 C 0.43887 0.47218 0.85372 0.0
C261 C 0.43519 0.46017 0.93339 0.0
N262 N 0.46366 0.50304 0.76567 0.0
C263 C 0.44535 0.49964 0.70212 0.0
C264 C 0.42133 0.46724 0.78642 0.0
C265 C 0.42439 0.4813 0.71068 0.0
Gd266 Gd 0.56072 0.51098 0.6204 0.0
Gd267 Gd 0.4997 0.53364 0.75961 0.0
N268 N 0.49709 0.51461 0.89509 0.0
C269 C 0.49014 0.4925 0.05532 0.0
C270 C 0.51318 0.52259 0.96016 0.0
C271 C 0.51023 0.51139 0.04088 0.0
H272 H 0.52808 0.53784 0.95033 0.0
H273 H 0.52322 0.51759 0.09214 0.0
H274 H 0.54082 0.47572 0.45023 0.0
H275 H 0.44596 0.51166 0.64572 0.0
H276 H 0.53894 0.48125 0.29516 0.0
H277 H 0.48775 0.48401 0.11808 0.0
H278 H 0.44868 0.45773 0.06246 0.0
H279 H 0.60609 0.55431 0.68994 0.0
H280 H 0.40479 0.45336 0.79334 0.0
H281 H 0.41022 0.47852 0.65949 0.0
H282 H 0.58929 0.56123 0.24269 0.0
H283 H 0.41896 0.44616 0.94389 0.0
H284 H 0.6348 0.60023 0.47916 0.0
H285 H 0.63575 0.5897 0.6323 0.0
N286 N 0.58772 0.54622 0.57125 0.0
C287 C 0.58791 0.55073 0.48649 0.0
C288 C 0.6054 0.55917 0.6232 0.0
C289 C 0.62149 0.58505 0.50432 0.0
C290 C 0.62217 0.5791 0.59078 0.0
C291 C 0.60436 0.57072 0.45083 0.0
H292 H 0.61635 0.59038 0.33433 0.0
N293 N 0.56003 0.51305 0.47125 0.0
C294 C 0.57314 0.53394 0.43502 0.0
C295 C 0.56045 0.51856 0.29578 0.0
C296 C 0.57378 0.53724 0.34626 0.0
C297 C 0.54891 0.49364 0.42188 0.0
C298 C 0.54831 0.49643 0.33377 0.0
O299 O 0.5202 0.49449 0.796 0.0
O300 O 0.53216 0.47861 0.6666 0.0
O301 O 0.58645 0.48051 0.56711 0.0
O302 O 0.59676 0.49895 0.68562 0.0
O303 O 0.54073 0.54966 0.80084 0.0
O304 O 0.56731 0.51515 0.76141 0.0
O305 O 0.5521 0.55597 0.62769 0.0
O306 O 0.50685 0.55551 0.63599 0.0
O307 O 0.49839 0.57211 0.82071 0.0
O308 O 0.46154 0.55229 0.78519 0.0
O309 O 0.51985 0.49591 0.5715 0.0
O310 O 0.48973 0.52686 0.62023 0.0
C311 C 0.52554 0.47432 0.74612 0.0
C312 C 0.56303 0.53593 0.80909 0.0
C313 C 0.6077 0.45381 0.67361 0.0
C314 C 0.60353 0.40532 0.67548 0.0
C315 C 0.62544 0.42803 0.79201 0.0
C316 C 0.62114 0.45255 0.75193 0.0
C317 C 0.6166 0.40448 0.75426 0.0
C318 C 0.5994 0.43009 0.63535 0.0
C319 C 0.60206 0.4799 0.63343 0.0
C320 C 0.58869 0.5583 0.31067 0.0
C321 C 0.60409 0.5749 0.36284 0.0
H322 H 0.5604 0.52042 0.22742 0.0
C323 C 0.52903 0.56755 0.61311 0.0
C324 C 0.49662 0.50837 0.56556 0.0
C325 C 0.46564 0.5983 0.75336 0.0
C326 C 0.47683 0.64382 0.71009 0.0
C327 C 0.44427 0.61822 0.62977 0.0
C328 C 0.44781 0.59647 0.68444 0.0
C329 C 0.45883 0.64176 0.642 0.0
C330 C 0.47941 0.62222 0.76666 0.0
C331 C 0.47289 0.57478 0.80531 0.0
H332 H 0.63558 0.42731 0.85262 0.0
H333 H 0.62825 0.47051 0.78238 0.0
H334 H 0.61988 0.38569 0.7867 0.0
H335 H 0.5899 0.43089 0.57364 0.0
H336 H 0.43067 0.6166 0.57655 0.0
H337 H 0.43708 0.57813 0.67148 0.0
H338 H 0.45628 0.65814 0.59774 0.0
H339 H 0.49255 0.62376 0.82119 0.0
C340 C 0.04605 0.45646 0.89632 0.0
C341 C 0.06155 0.47535 0.02899 0.0
C342 C 0.04776 0.47781 0.95126 0.0
C343 C 0.07407 0.4512 0.0499 0.0
C344 C 0.0583 0.43203 0.91784 0.0
C345 C 0.07261 0.42967 0.99421 0.0
N346 N 0.03128 0.4591 0.82423 0.0
C347 C 0.02659 0.43744 0.77416 0.0
C348 C 0.05503 0.4104 0.8634 0.0
C349 C 0.03885 0.41305 0.79179 0.0
Gd350 Gd 0.04211 0.5459 0.61839 0.0
Gd351 Gd 1.01135 0.50114 0.80183 0.0
N352 N 0.0354 0.50089 0.92951 0.0
C353 C 0.06209 0.49716 0.0838 0.0
C354 C 0.03505 0.52188 0.98388 0.0
C355 C 0.04872 0.52051 0.06114 0.0
H356 H 0.02438 0.5397 0.96722 0.0
H357 H 0.04875 0.5374 0.10339 0.0
H358 H 0.07141 0.50906 0.46687 0.0
H359 H 1.0127 0.43838 0.72201 0.0
H360 H 0.06281 0.49665 0.31837 0.0
H361 H 0.07251 0.49607 0.14398 0.0
H362 H 0.08478 0.44893 0.10926 0.0
H363 H 1.00902 0.60217 0.65046 0.0
H364 H 0.06413 0.39134 0.87764 0.0
H365 H 0.03529 0.39612 0.75112 0.0
H366 H 0.99046 0.5532 0.2325 0.0
H367 H 0.08213 0.41107 0.01166 0.0
H368 H 0.96582 0.62239 0.42454 0.0
H369 H 0.97896 0.6327 0.57187 0.0
N370 N 1.01234 0.5749 0.549 0.0
C371 C 1.00638 0.56959 0.46711 0.0
C372 C 1.00338 0.59768 0.58609 0.0
C373 C 0.97888 0.60893 0.45884 0.0
C374 C 0.98633 0.61489 0.5419 0.0
C375 C 0.98885 0.586 0.4204 0.0
H376 H 0.96865 0.59142 0.29988 0.0
N377 N 0.03834 0.53548 0.47333 0.0
C378 C 0.01932 0.54874 0.42864 0.0
C379 C 0.02945 0.52324 0.3039 0.0
C380 C 1.01427 0.54296 0.34282 0.0
C381 C 0.05474 0.51791 0.43352 0.0
C382 C 0.05017 0.51107 0.34897 0.0
O383 O 0.05466 0.51586 0.81917 0.0
O384 O 0.0687 0.51525 0.68264 0.0
O385 O 0.07895 0.55895 0.55613 0.0
O386 O 0.0606 0.58341 0.65039 0.0
O387 O 1.00358 0.54564 0.81656 0.0
O388 O 0.04071 0.56241 0.75143 0.0
O389 O 0.99613 0.54633 0.63225 0.0
O390 O 0.98768 0.50409 0.67923 0.0
O391 O 0.9765 0.51377 0.87122 0.0
O392 O 0.98446 0.47175 0.85748 0.0
O393 O 0.04812 0.50104 0.59895 0.0
O394 O 1.01255 0.48247 0.67048 0.0
C395 C 0.07427 0.51482 0.76395 0.0
C396 C 0.02028 0.56547 0.80214 0.0
C397 C 0.10741 0.58078 0.6556 0.0
C398 C 0.15559 0.57408 0.66243 0.0
C399 C 0.13182 0.58804 0.78747 0.0
C400 C 0.10781 0.58777 0.74191 0.0
C401 C 0.15568 0.58123 0.74802 0.0
C402 C 0.13147 0.57433 0.61637 0.0
C403 C 0.08204 0.579 0.60729 0.0
C404 C 0.99504 0.55774 0.2979 0.0
C405 C 0.98257 0.57945 0.33633 0.0
H406 H 0.02606 0.51806 0.23831 0.0
C407 C 0.97978 0.52575 0.63929 0.0
C408 C 0.0306 0.48159 0.60979 0.0
C409 C 0.93989 0.4863 0.83607 0.0
C410 C 0.89746 0.50655 0.79353 0.0
C411 C 0.90887 0.46213 0.74548 0.0
C412 C 0.93314 0.46344 0.78944 0.0
C413 C 0.8912 0.48359 0.74679 0.0
C414 C 0.92171 0.50741 0.83895 0.0
C415 C 0.96666 0.48968 0.87496 0.0
H416 H 0.13186 0.5932 0.85384 0.0
H417 H 0.08961 0.59279 0.77476 0.0
H418 H 0.17404 0.5809 0.78466 0.0
H419 H 0.13136 0.5691 0.54989 0.0
H420 H 0.90393 0.44459 0.70904 0.0
H421 H 0.94677 0.44683 0.78535 0.0
H422 H 0.87273 0.4822 0.7111 0.0
H423 H 0.92654 0.52452 0.87767 0.0
H424 H 0.17493 0.08063 0.24419 0.0
H425 H 0.20167 0.99862 0.24795 0.0
H426 H 0.16695 0.98732 0.35284 0.0
H427 H 0.15954 0.08422 0.47055 0.0
H428 H 0.13019 0.10446 0.45656 0.0
H429 H 0.15708 0.10667 0.38131 0.0
H430 H 0.12435 0.09511 0.25772 0.0
H431 H 0.09783 0.0946 0.33407 0.0
H432 H 0.10315 0.06608 0.26764 0.0
H433 H 0.12979 0.98409 0.45355 0.0
H434 H 0.0929 0.98873 0.5519 0.0
H435 H 0.08805 0.07325 0.49371 0.0
C436 C 0.17348 0.06037 0.26782 0.0
C437 C 0.19115 0.0404 0.23821 0.0
C438 C 0.18853 1.01416 0.26998 0.0
C439 C 0.16877 1.00756 0.32946 0.0
C440 C 0.15158 0.02744 0.3572 0.0
C441 C 0.15369 0.05338 0.32825 0.0
C442 C 0.13243 0.07065 0.3702 0.0
C443 C 0.1456 0.09282 0.42278 0.0
C444 C 0.1133 0.08228 0.30338 0.0
C445 C 0.11813 0.05032 0.42711 0.0
C446 C 0.12973 0.02558 0.41747 0.0
C447 C 0.12068 1.00339 0.46191 0.0
C448 C 0.09954 1.00635 0.51853 0.0
C449 C 0.08717 0.03134 0.53232 0.0
C450 C 0.09662 0.05374 0.48476 0.0
H451 H 0.52872 0.159 0.20167 0.0
H452 H 0.4991 0.22442 0.35133 0.0
H453 H 0.49774 0.19501 0.4777 0.0
H454 H 0.48911 0.10695 0.30318 0.0
H455 H 0.51514 0.08223 0.29984 0.0
H456 H 0.51384 0.10821 0.22072 0.0
H457 H 0.5624 0.1219 0.25767 0.0
H458 H 0.56379 0.09591 0.33681 0.0
H459 H 0.57096 0.12992 0.36551 0.0
H460 H 0.49974 0.15868 0.58867 0.0
H461 H 0.50482 0.11837 0.67639 0.0
H462 H 0.53312 0.07509 0.45796 0.0
C463 C 0.52194 0.16704 0.26119 0.0
C464 C 0.51397 0.19409 0.2668 0.0
C465 C 0.50526 0.20385 0.34562 0.0
C466 C 0.50443 0.18724 0.41777 0.0
C467 C 0.51237 0.16072 0.4106 0.0
C468 C 0.52098 0.15059 0.33436 0.0
C469 C 0.52844 0.12127 0.34466 0.0
C470 C 0.51055 0.10361 0.28877 0.0
C471 C 0.55817 0.11701 0.32499 0.0
C472 C 0.52273 0.11655 0.43839 0.0
C473 C 0.51348 0.13965 0.4749 0.0
C474 C 0.50698 0.14052 0.56054 0.0
C475 C 0.51001 0.11736 0.61025 0.0
C476 C 0.51954 0.09327 0.57525 0.0
C477 C 0.52588 0.09304 0.48747 0.0
H478 H 0.36577 0.53163 0.27061 0.0
H479 H 0.38385 0.45735 0.14609 0.0
H480 H 0.42414 0.45213 0.2365 0.0
H481 H 0.43479 0.55429 0.29332 0.0
H482 H 0.42973 0.56898 0.39569 0.0
H483 H 0.40238 0.56691 0.32137 0.0
H484 H 0.37398 0.54156 0.43284 0.0
H485 H 0.40128 0.54368 0.50734 0.0
H486 H 0.38706 0.51168 0.48122 0.0
H487 H 0.46243 0.45437 0.34599 0.0
H488 H 0.49491 0.46438 0.46024 0.0
H489 H 0.4535 0.5383 0.50985 0.0
C490 C 0.37823 0.51427 0.26262 0.0
C491 C 0.37152 0.49476 0.20137 0.0
C492 C 0.38845 0.47244 0.19272 0.0
C493 C 0.41145 0.46934 0.24391 0.0
C494 C 0.41755 0.48879 0.30399 0.0
C495 C 0.40144 0.51092 0.31334 0.0
C496 C 0.41259 0.52896 0.38245 0.0
C497 C 0.42033 0.55641 0.34601 0.0
C498 C 0.39253 0.53162 0.45526 0.0
C499 C 0.43727 0.51354 0.41076 0.0
C500 C 0.43978 0.49038 0.36493 0.0
C501 C 0.46068 0.47263 0.38151 0.0
C502 C 0.47929 0.4786 0.44642 0.0
C503 C 0.47729 0.50229 0.49434 0.0
C504 C 0.45588 0.51996 0.47504 0.0
H505 H 0.07869 0.37234 0.26454 0.0
H506 H 0.99884 0.33884 0.2815 0.0
H507 H 0.98647 0.37385 0.38302 0.0
H508 H 0.08526 0.39094 0.48437 0.0
H509 H 0.10285 0.42173 0.46356 0.0
H510 H 0.1056 0.39437 0.391 0.0
H511 H 0.08951 0.4248 0.26785 0.0
H512 H 0.08711 0.45217 0.34048 0.0
H513 H 0.05846 0.44252 0.27794 0.0
H514 H 0.98263 0.41184 0.48432 0.0
H515 H 0.98718 0.45016 0.5791 0.0
H516 H 0.06963 0.4608 0.50065 0.0
C517 C 0.05861 0.37248 0.28974 0.0
C518 C 0.03971 0.35266 0.26537 0.0
C519 C 1.01366 0.35357 0.29946 0.0
C520 C 1.00644 0.3735 0.35712 0.0
C521 C 0.02542 0.39268 0.38021 0.0
C522 C 0.05099 0.39247 0.34758 0.0
C523 C 0.06746 0.4155 0.38391 0.0
C524 C 0.09173 0.405 0.43366 0.0
C525 C 0.07614 0.4349 0.31333 0.0
C526 C 0.04726 0.42845 0.44272 0.0
C527 C 0.02315 0.41489 0.43895 0.0
C528 C 1.00143 0.42257 0.48763 0.0
C529 C 1.0043 0.44447 0.54184 0.0
C530 C 0.02877 0.45882 0.54828 0.0
C531 C 0.05054 0.45062 0.49712 0.0
H532 H 0.88459 0.03283 0.18494 0.0
H533 H 0.82063 1.00722 0.01797 0.0
H534 H 0.85287 1.00381 0.90013 0.0
H535 H 0.92018 0.07293 0.02944 0.0
H536 H 0.95296 0.06401 0.06767 0.0
H537 H 0.92505 0.06422 0.1393 0.0
H538 H 0.93479 1.01527 0.1807 0.0
H539 H 0.96256 1.01489 0.10861 0.0
H540 H 0.9363 0.99034 0.09931 0.0
H541 H 0.89205 1.00334 0.79967 0.0
H542 H 0.93492 1.00554 0.72393 0.0
H543 H 0.97458 0.03179 0.95384 0.0
C544 C 0.87747 0.02643 0.1235 0.0
C545 C 0.85005 0.02015 0.11055 0.0
C546 C 0.84147 1.01199 0.02938 0.0
C547 C 0.85969 1.01004 0.96203 0.0
C548 C 0.88657 1.01636 0.97649 0.0
C549 C 0.8955 0.0244 0.05525 0.0
C550 C 0.92549 0.03019 0.05325 0.0
C551 C 0.93125 0.05959 0.07362 0.0
C552 C 0.94066 1.01155 0.11411 0.0
C553 C 0.93201 0.02406 0.9613 0.0
C554 C 0.9092 1.01616 0.91834 0.0
C555 C 0.91 1.00949 0.83289 0.0
C556 C 0.93459 1.01081 0.79022 0.0
C557 C 0.95842 0.01879 0.83228 0.0
C558 C 0.95691 0.02555 0.91937 0.0
H559 H 0.5148 0.86336 0.12868 0.0
H560 H 0.60039 0.85126 0.13777 0.0
H561 H 0.60681 0.88852 0.03577 0.0
H562 H 0.51029 0.88018 0.90481 0.0
H563 H 0.48507 0.90523 0.91885 0.0
H564 H 0.4872 0.87754 0.99175 0.0
H565 H 0.49124 0.91042 0.11654 0.0
H566 H 0.48953 0.93834 0.0444 0.0
H567 H 0.51746 0.93519 0.11612 0.0
H568 H 0.60382 0.92798 0.93221 0.0
H569 H 0.59176 0.96655 0.84122 0.0
H570 H 0.50798 0.9523 0.89409 0.0
C571 C 0.53486 0.86856 0.10886 0.0
C572 C 0.55717 0.85435 0.14106 0.0
C573 C 0.58307 0.86181 0.11386 0.0
C574 C 0.58688 0.88296 0.0558 0.0
C575 C 0.56454 0.89662 0.02499 0.0
C576 C 0.53901 0.88971 0.05065 0.0
C577 C 0.51844 0.90784 1.00868 0.0
C578 C 0.49911 0.89173 0.95271 0.0
C579 C 0.50327 0.9239 0.0754 0.0
C580 C 0.53629 0.92592 0.95538 0.0
C581 C 0.56285 0.91917 0.96578 0.0
C582 C 0.58306 0.93338 0.92408 0.0
C583 C 0.57605 0.95529 0.87234 0.0
C584 C 0.54897 0.96241 0.85995 0.0
C585 C 0.52888 0.94725 0.90169 0.0
H586 H 0.69529 0.51223 0.09657 0.0
H587 H 0.6729 0.58103 0.2434 0.0
H588 H 0.63294 0.58732 0.15202 0.0
H589 H 0.67423 0.53789 0.89153 0.0
H590 H 0.6618 0.50625 0.85453 0.0
H591 H 0.68862 0.50735 0.93094 0.0
H592 H 0.66114 0.47724 0.03236 0.0
H593 H 0.63428 0.47608 0.95613 0.0
H594 H 0.62795 0.48719 0.06232 0.0
H595 H 0.59481 0.5862 0.04099 0.0
H596 H 0.56246 0.57714 0.92529 0.0
H597 H 0.60907 0.50853 0.85243 0.0
C598 C 0.68202 0.52869 0.10905 0.0
C599 C 0.68738 0.54633 0.17692 0.0
C600 C 0.66937 0.56744 0.19154 0.0
C601 C 0.64654 0.57113 0.13985 0.0
C602 C 0.64177 0.5535 0.07323 0.0
C603 C 0.65902 0.53262 0.05789 0.0
C604 C 0.64917 0.51631 0.98285 0.0
C605 C 0.66968 0.517 0.9107 0.0
C606 C 0.64275 0.4875 1.01007 0.0
C607 C 0.62383 0.53123 0.95818 0.0
C608 C 0.61988 0.55266 1.01088 0.0
C609 C 0.59781 0.56939 0.99969 0.0
C610 C 0.57943 0.56407 0.9335 0.0
C611 C 0.58287 0.54204 0.87888 0.0
C612 C 0.60559 0.52557 0.89219 0.0
H613 H 0.99254 0.66145 0.2041 0.0
H614 H 0.03283 0.72413 0.06333 0.0
H615 H 0.03824 0.69361 0.94227 0.0
H616 H 0.0337 0.60746 0.12679 0.0
H617 H 1.00674 0.58361 0.12174 0.0
H618 H 1.00577 0.61038 0.1974 0.0
H619 H 0.95971 0.62485 0.13774 0.0
H620 H 0.96068 0.59825 0.06187 0.0
H621 H 0.95634 0.63217 0.02631 0.0
H622 H 0.04208 0.65557 0.84028 0.0
H623 H 0.04174 0.61398 0.76012 0.0
H624 H 0.99549 0.5755 0.95848 0.0
C625 C 1.00228 0.66873 0.14735 0.0
C626 C 1.01229 0.69525 0.14289 0.0
C627 C 0.02505 0.70398 0.068 0.0
C628 C 0.0282 0.68674 0.99892 0.0
C629 C 0.01833 0.6607 1.0051 0.0
C630 C 1.00544 0.6517 0.07706 0.0
C631 C 0.99712 0.62256 0.06692 0.0
C632 C 1.01167 0.60495 0.13216 0.0
C633 C 0.96664 0.61927 0.07359 0.0
C634 C 1.00688 0.61675 0.97767 0.0
C635 C 0.01952 0.63897 0.9442 0.0
C636 C 0.03193 0.6382 0.86561 0.0
C637 C 0.03164 0.61421 0.82028 0.0
C638 C 0.01864 0.59099 0.85185 0.0
C639 C 1.00565 0.59263 0.93161 0.0
H640 H 1.00499 0.25778 0.34604 0.0
H641 H 0.95149 0.23666 0.14056 0.0
H642 H 0.92294 0.2117 0.24065 0.0
H643 H 1.0076 0.19903 0.43512 0.0
H644 H 1.00824 0.20879 0.54467 0.0
H645 H 0.01982 0.23155 0.46478 0.0
H646 H 0.98622 0.26716 0.51458 0.0
H647 H 0.97476 0.24457 0.59612 0.0
H648 H 0.95122 0.25883 0.52219 0.0
H649 H 0.90813 0.17985 0.35014 0.0
H650 H 0.90608 0.14614 0.46493 0.0
H651 H 0.96775 0.18869 0.60243 0.0
C652 C 0.98644 0.24917 0.32318 0.0
C653 C 0.98026 0.24924 0.236 0.0
C654 C 0.95644 0.23686 0.20737 0.0
C655 C 0.94006 0.22277 0.26383 0.0
C656 C 0.94761 0.2216 0.34879 0.0
C657 C 0.96996 0.23498 0.37887 0.0
C658 C 0.9761 0.2272 0.46966 0.0
C659 C 1.00461 0.21597 0.47897 0.0
C660 C 0.97181 0.25085 0.52916 0.0
C661 C 0.95511 0.20583 0.48351 0.0
C662 C 0.93848 0.2033 0.41372 0.0
C663 C 0.92028 0.18227 0.40644 0.0
C664 C 0.91934 0.16316 0.47137 0.0
C665 C 0.93642 0.16535 0.54242 0.0
C666 C 0.95394 0.18726 0.54967 0.0
H667 H 0.32505 0.12618 0.16457 0.0
H668 H 0.27874 0.07851 0.33984 0.0
H669 H 0.31055 0.08873 0.45265 0.0
H670 H 0.37646 0.09735 0.18886 0.0
H671 H 0.40172 0.12311 0.18581 0.0
H672 H 0.36996 0.12899 0.13796 0.0
H673 H 0.36333 0.1708 0.22996 0.0
H674 H 0.39571 0.16529 0.27758 0.0
H675 H 0.3666 0.16846 0.34338 0.0
H676 H 0.35297 0.08204 0.51532 0.0
H677 H 0.397 0.06258 0.52259 0.0
H678 H 0.42277 0.11261 0.31269 0.0
C679 C 0.32108 0.1193 0.22836 0.0
C680 C 0.30006 0.10096 0.24305 0.0
C681 C 0.29476 0.09251 0.32666 0.0
C682 C 0.31301 0.09821 0.39146 0.0
C683 C 0.33646 0.11211 0.37133 0.0
C684 C 0.34022 0.12344 0.29187 0.0
C685 C 0.3695 0.13025 0.27742 0.0
C686 C 0.37997 0.11921 0.1927 0.0
C687 C 0.37405 0.1605 0.28245 0.0
C688 C 0.38197 0.11634 0.35311 0.0
C689 C 0.36253 0.10771 0.40929 0.0
C690 C 0.36843 0.08965 0.4739 0.0
C691 C 0.39394 0.07859 0.47752 0.0
C692 C 0.41375 0.08578 0.41744 0.0
C693 C 0.40804 0.10635 0.35865 0.0
H694 H 0.52268 0.3336 0.31833 0.0
H695 H 0.58371 0.27274 0.31762 0.0
H696 H 0.60235 0.29068 0.45149 0.0
H697 H 0.56222 0.38509 0.3796 0.0
H698 H 0.53792 0.40109 0.44571 0.0
H699 H 0.52697 0.38054 0.35961 0.0
H700 H 0.49887 0.35166 0.46381 0.0
H701 H 0.50987 0.37235 0.5502 0.0
H702 H 0.51485 0.33683 0.55503 0.0
H703 H 0.61833 0.31992 0.57079 0.0
H704 H 0.63022 0.35772 0.66347 0.0
H705 H 0.55727 0.39775 0.58767 0.0
C706 C 0.53966 0.32379 0.34751 0.0
C707 C 0.55196 0.30201 0.3084 0.0
C708 C 0.57408 0.28948 0.34754 0.0
C709 C 0.58466 0.29943 0.42346 0.0
C710 C 0.57241 0.32146 0.45969 0.0
C711 C 0.55015 0.33325 0.42336 0.0
C712 C 0.54216 0.35814 0.46954 0.0
C713 C 0.54236 0.38264 0.41009 0.0
C714 C 0.51482 0.35451 0.51219 0.0
C715 C 0.56433 0.35947 0.53435 0.0
C716 C 0.58132 0.33793 0.52919 0.0
C717 C 0.60479 0.33652 0.577 0.0
C718 C 0.61135 0.35804 0.62961 0.0
C719 C 0.59459 0.38065 0.63292 0.0
C720 C 0.57042 0.38075 0.58685 0.0
H721 H 0.22678 0.49921 0.29835 0.0
H722 H 0.28987 0.5585 0.31151 0.0
H723 H 0.27255 0.57357 0.44989 0.0
H724 H 0.1773 0.5385 0.3615 0.0
H725 H 0.15913 0.51379 0.42173 0.0
H726 H 0.18019 0.50364 0.33647 0.0
H727 H 0.20635 0.47249 0.43872 0.0
H728 H 0.18521 0.48257 0.52472 0.0
H729 H 0.221 0.4859 0.53392 0.0
H730 H 0.24329 0.58726 0.57164 0.0
H731 H 0.20478 0.59864 0.66242 0.0
H732 H 0.16127 0.53037 0.56564 0.0
C733 C 0.23734 0.51488 0.33173 0.0
C734 C 0.25946 0.52784 0.29508 0.0
C735 C 0.27291 0.54831 0.33954 0.0
C736 C 0.26327 0.55687 0.41801 0.0
C737 C 0.24058 0.54434 0.45105 0.0
C738 C 0.22802 0.52353 0.40947 0.0
C739 C 0.20207 0.51567 0.45114 0.0
C740 C 0.1783 0.51807 0.38904 0.0
C741 C 0.20378 0.48749 0.48941 0.0
C742 C 0.20102 0.53644 0.51934 0.0
C743 C 0.22367 0.55237 0.5203 0.0
C744 C 0.22577 0.57453 0.57286 0.0
C745 C 0.20387 0.58086 0.62403 0.0
C746 C 0.18022 0.56533 0.62049 0.0
C747 C 0.17922 0.54249 0.56951 0.0
H748 H 0.98602 0.77442 0.04673 0.0
H749 H 0.92843 0.82438 0.17186 0.0
H750 H 0.91985 0.8479 0.03721 0.0
H751 H 0.01893 0.81818 0.96317 0.0
H752 H 0.02673 0.80367 0.86214 0.0
H753 H 0.01834 0.78251 0.94885 0.0
H754 H 0.98012 0.76119 0.86145 0.0
H755 H 0.98859 0.78251 0.77302 0.0
H756 H 0.95493 0.78193 0.81314 0.0
H757 H 0.92872 0.87494 0.91105 0.0
H758 H 0.9565 0.90397 0.82151 0.0
H759 H 1.01155 0.83883 0.78371 0.0
C760 C 0.97027 0.78909 0.04448 0.0
C761 C 0.9579 0.79756 0.11952 0.0
C762 C 0.93817 0.81757 0.11498 0.0
C763 C 0.93299 0.83085 0.0383 0.0
C764 C 0.94756 0.82378 0.96671 0.0
C765 C 0.96555 0.80287 0.96897 0.0
C766 C 0.9838 0.80344 0.89285 0.0
C767 C 1.01365 0.80195 0.91845 0.0
C768 C 0.9764 0.78094 0.83147 0.0
C769 C 0.97641 0.83025 0.85557 0.0
C770 C 0.95408 0.84064 0.89457 0.0
C771 C 0.94594 0.86678 0.8794 0.0
C772 C 0.96217 0.88332 0.82939 0.0
C773 C 0.98692 0.874 0.79836 0.0
C774 C 0.9928 0.84662 0.80597 0.0
H775 H 0.72616 1.0142 0.05184 0.0
H776 H 0.73617 0.93926 0.18297 0.0
H777 H 0.69212 0.92426 0.13237 0.0
H778 H 0.67162 0.02787 0.11598 0.0
H779 H 0.65418 0.04189 0.02648 0.0
H780 H 0.68988 0.04226 0.02847 0.0
H781 H 0.69229 0.01757 0.88835 0.0
H782 H 0.65633 1.01562 0.87972 0.0
H783 H 0.67586 0.98579 0.87556 0.0
H784 H 0.64309 0.92545 0.12254 0.0
H785 H 0.59607 0.93916 0.13028 0.0
H786 H 0.61667 1.01437 1.00952 0.0
C787 C 0.71997 0.99375 0.06278 0.0
C788 C 0.73441 0.97777 0.12026 0.0
C789 C 0.72554 0.9515 0.13732 0.0
C790 C 0.70028 0.94298 0.10959 0.0
C791 C 0.6846 0.96075 0.06299 0.0
C792 C 0.69456 0.98526 0.03625 0.0
C793 C 0.6723 1.00281 1.00253 0.0
C794 C 0.67199 0.03028 0.046 0.0
C795 C 0.67434 1.00566 0.90587 0.0
C796 C 0.6482 0.9861 0.02624 0.0
C797 C 0.65562 0.96146 0.0576 0.0
C798 C 0.63702 0.94429 0.09509 0.0
C799 C 0.61034 0.95252 0.10078 0.0
C800 C 0.60237 0.97787 0.06982 0.0
C801 C 0.62167 0.99449 0.03082 0.0
H802 H 0.56663 0.70913 0.03571 0.0
H803 H 0.51206 0.77575 0.02203 0.0
H804 H 0.49743 0.76168 0.88057 0.0
H805 H 0.57969 0.70623 0.79089 0.0
H806 H 0.5809 0.67039 0.7965 0.0
H807 H 0.59339 0.69005 0.88348 0.0
H808 H 0.56192 0.6645 0.98623 0.0
H809 H 0.54968 0.64486 0.90012 0.0
H810 H 0.52655 0.66339 0.96369 0.0
H811 H 0.47904 0.73403 0.76824 0.0
H812 H 0.45921 0.69532 0.69656 0.0
H813 H 0.52831 0.64812 0.76585 0.0
C814 C 0.55237 0.72121 1.0011 0.0
C815 C 0.5406 0.74354 0.03922 0.0
C816 C 0.52168 0.75881 0.99328 0.0
C817 C 0.51332 0.75104 0.91259 0.0
C818 C 0.52448 0.72828 0.87774 0.0
C819 C 0.54409 0.71387 0.9197 0.0
C820 C 0.54977 0.68801 0.87463 0.0
C821 C 0.57759 0.68873 0.83396 0.0
C822 C 0.54675 0.6638 0.93472 0.0
C823 C 0.52807 0.68869 0.80751 0.0
C824 C 0.51429 0.7125 0.80833 0.0
C825 C 0.49023 0.7157 0.76436 0.0
C826 C 0.47907 0.69356 0.72344 0.0
C827 C 0.49207 0.66865 0.72691 0.0
C828 C 0.51784 0.66693 0.76327 0.0
H829 H 0.77897 0.54129 0.05283 0.0
H830 H 0.82905 0.60616 0.13965 0.0
H831 H 0.85234 0.6067 1.00238 0.0
H832 H 0.8244 0.50494 0.99042 0.0
H833 H 0.80923 0.49052 0.89741 0.0
H834 H 0.78851 0.50332 0.97871 0.0
H835 H 0.76523 0.53445 0.87029 0.0
H836 H 0.78616 0.52154 0.78764 0.0
H837 H 0.78489 0.5569 0.80607 0.0
H838 H 0.87824 0.59191 0.8808 0.0
H839 H 0.90726 0.5605 0.80671 0.0
H840 H 0.84338 0.50189 0.80696 0.0
C841 C 0.79369 0.55671 0.04066 0.0
C842 C 0.80201 0.5739 0.10594 0.0
C843 C 0.82222 0.59302 0.08986 0.0
C844 C 0.83534 0.59359 0.01163 0.0
C845 C 0.82807 0.57487 0.95041 0.0
C846 C 0.80741 0.55685 0.96406 0.0
C847 C 0.80794 0.53436 0.90071 0.0
C848 C 0.80757 0.50672 0.94453 0.0
C849 C 0.78468 0.53699 0.83741 0.0
C850 C 0.83431 0.54028 0.85798 0.0
C851 C 0.8445 0.5648 0.88247 0.0
C852 C 0.87025 0.57291 0.86045 0.0
C853 C 0.88675 0.55475 0.81924 0.0
C854 C 0.87781 0.52837 0.80405 0.0
C855 C 0.85069 0.52192 0.81738 0.0
H856 H 0.99925 0.21684 0.94612 0.0
H857 H 0.08021 0.22107 0.04392 0.0
H858 H 0.09083 0.17898 0.97034 0.0
H859 H 0.99097 0.14901 0.97352 0.0
H860 H 0.97199 0.14243 0.87906 0.0
H861 H 0.97056 0.17481 0.92707 0.0
H862 H 0.98546 0.19795 0.78985 0.0
H863 H 0.98633 0.16622 0.73727 0.0
H864 H 1.01552 0.18737 0.7377 0.0
H865 H 0.09037 0.13255 0.90279 0.0
H866 H 0.08078 0.08946 0.83362 0.0
H867 H 1.00082 0.11629 0.77179 0.0
C868 C 0.01949 0.20936 0.95 0.0
C869 C 0.03901 0.22263 1.00049 0.0
C870 C 0.06506 0.21176 1.00467 0.0
C871 C 0.07118 0.18765 0.96355 0.0
C872 C 0.05118 0.17463 0.91699 0.0
C873 C 0.02599 0.18549 0.90847 0.0
C874 C 1.00766 0.16701 0.85833 0.0
C875 C 0.98388 0.1578 0.91272 0.0
C876 C 0.99818 0.18046 0.77592 0.0
C877 C 0.0263 0.14392 0.84016 0.0
C878 C 0.05125 0.14857 0.87546 0.0
C879 C 0.07109 0.12912 0.87331 0.0
C880 C 0.06543 0.10459 0.83391 0.0
C881 C 0.04024 0.09953 0.79537 0.0
C882 C 0.02051 0.11971 0.79837 0.0
H883 H 0.34419 0.08611 0.9808 0.0
H884 H 0.31165 1.00582 0.99059 0.0
H885 H 0.35198 0.98941 0.91732 0.0
H886 H 0.37836 0.08127 0.77704 0.0
H887 H 0.40648 0.10093 0.81238 0.0
H888 H 0.37384 0.10643 0.85647 0.0
H889 H 0.39318 0.09896 1.00685 0.0
H890 H 0.42579 0.09306 0.96345 0.0
H891 H 0.41041 0.06839 0.03119 0.0
H892 H 0.39854 0.9814 0.85142 0.0
H893 H 0.44478 0.98279 0.79702 0.0
H894 H 0.44742 0.06818 0.83641 0.0
C895 C 0.34527 0.06504 0.96712 0.0
C896 C 0.32436 0.04731 0.99228 0.0
C897 C 0.3269 0.02 0.97149 0.0
C898 C 0.34998 1.01044 0.93041 0.0
C899 C 0.37056 0.02836 0.90993 0.0
C900 C 0.36823 0.05517 0.9272 0.0
C901 C 0.39356 0.07027 0.90283 0.0
C902 C 0.3877 0.09095 0.83302 0.0
C903 C 0.4065 0.08344 0.98071 0.0
C904 C 0.41077 0.04781 0.86972 0.0
C905 C 0.39713 0.02378 0.87382 0.0
C906 C 0.40919 1.00019 0.84773 0.0
C907 C 0.43561 1.00119 0.81679 0.0
C908 C 0.4501 0.02557 0.81215 0.0
C909 C 0.43721 0.04915 0.83908 0.0
H910 H 0.51956 0.35922 0.10273 0.0
H911 H 0.52867 0.30041 0.90481 0.0
H912 H 0.5275 0.33675 0.79778 0.0
H913 H 0.47773 0.40681 0.9933 0.0
H914 H 0.49549 0.43412 0.04208 0.0
H915 H 0.49358 0.40249 0.09527 0.0
H916 H 0.54577 0.40442 0.10452 0.0
H917 H 0.54641 0.43519 0.04515 0.0
H918 H 0.56481 0.40683 1.00816 0.0
H919 H 0.5266 0.38113 0.71164 0.0
H920 H 0.52704 0.42752 0.65691 0.0
H921 H 0.52212 0.45692 0.91352 0.0
C922 C 0.5217 0.35359 0.03722 0.0
C923 C 0.52454 0.32636 0.01365 0.0
C924 C 0.52621 0.32071 0.92587 0.0
C925 C 0.52579 0.34139 0.8643 0.0
C926 C 0.52385 0.36791 0.89071 0.0
C927 C 0.52198 0.37393 0.97544 0.0
C928 C 0.52144 0.40392 0.98876 0.0
C929 C 0.49546 0.41229 0.0323 0.0
C930 C 0.54607 0.41312 0.03966 0.0
C931 C 0.52265 0.41413 0.89804 0.0
C932 C 0.52411 0.39306 0.84224 0.0
C933 C 0.52567 0.39765 0.75513 0.0
C934 C 0.52595 0.42417 0.72453 0.0
C935 C 0.52468 0.44618 0.78034 0.0
C936 C 0.5229 0.44079 0.86852 0.0
H937 H 0.19666 0.50616 0.09643 0.0
H938 H 0.25183 0.51211 0.8853 0.0
H939 H 0.21317 0.51187 0.78689 0.0
H940 H 0.14544 0.46642 1.00178 0.0
H941 H 0.11922 0.48493 0.05185 0.0
H942 H 0.15149 0.48271 0.10153 0.0
H943 H 0.15296 0.53454 0.10592 0.0
H944 H 0.12092 0.53606 0.05363 0.0
H945 H 0.1493 0.55321 1.00867 0.0
H946 H 0.16684 0.51022 0.71086 0.0
H947 H 0.11952 0.51255 0.66553 0.0
H948 H 0.09519 0.51315 0.92843 0.0
C949 C 0.2012 0.50807 0.02993 0.0
C950 C 0.22818 0.50955 1.00046 0.0
C951 C 0.23192 0.51067 0.91134 0.0
C952 C 0.20987 0.51075 0.85445 0.0
C953 C 0.18381 0.51003 0.88668 0.0
C954 C 0.17953 0.50909 0.97269 0.0
C955 C 0.14975 0.50986 0.99241 0.0
C956 C 0.14099 0.48443 0.03963 0.0
C957 C 0.14284 0.53491 0.04317 0.0
C958 C 0.13764 0.51111 0.90397 0.0
C959 C 0.1576 0.51086 0.84372 0.0
C960 C 0.15121 0.51105 0.75766 0.0
C961 C 0.12408 0.51221 0.73256 0.0
C962 C 0.10313 0.51309 0.79293 0.0
C963 C 0.11035 0.51246 0.88006 0.0
H964 H 0.96469 0.84335 0.40464 0.0
H965 H 0.0467 0.81864 0.36841 0.0
H966 H 0.06251 0.86021 0.43623 0.0
H967 H 0.97358 0.91273 0.36378 0.0
H968 H 0.95067 0.92294 0.44485 0.0
H969 H 0.94657 0.89098 0.39565 0.0
H970 H 0.94782 0.86925 0.54505 0.0
H971 H 0.95325 0.90121 0.59377 0.0
H972 H 0.97653 0.8745 0.61221 0.0
H973 H 0.06945 0.90659 0.49704 0.0
H974 H 0.06731 0.95064 0.56405 0.0
H975 H 0.98078 0.94577 0.56548 0.0
C976 C 0.986 0.84649 0.41213 0.0
C977 C 1.00445 0.82743 0.38106 0.0
C978 C 0.03213 0.83251 0.39242 0.0
C979 C 0.0413 0.85628 0.43026 0.0
C980 C 0.02261 0.87489 0.45785 0.0
C981 C 0.99551 0.87 0.45098 0.0
C982 C 0.97964 0.89317 0.48684 0.0
C983 C 0.96157 0.90569 0.41864 0.0
C984 C 0.96334 0.884 0.56405 0.0
C985 C 1.00199 0.91224 0.51281 0.0
C986 C 0.02661 0.90127 0.49507 0.0
C987 C 0.05024 0.91519 0.51159 0.0
C988 C 0.0488 0.94043 0.54953 0.0
C989 C 0.02393 0.9521 0.57019 0.0
C990 C 1.00017 0.9377 0.55038 0.0
H991 H 0.70367 0.97986 0.39559 0.0
H992 H 0.73789 0.05901 0.42227 0.0
H993 H 0.70122 0.0706 0.52038 0.0
H994 H 0.63688 1.00125 0.37756 0.0
H995 H 0.62371 0.97231 0.43167 0.0
H996 H 0.65465 0.9701 0.3751 0.0
H997 H 0.67712 0.95247 0.51335 0.0
H998 H 0.64597 0.95563 0.56908 0.0
H999 H 0.67558 0.97219 0.6081 0.0
H1000 H 0.65782 0.07411 0.60969 0.0
H1001 H 0.61293 0.07004 0.67376 0.0
H1002 H 0.60503 0.99027 0.57264 0.0
C1003 C 0.70375 0.99969 0.42208 0.0
C1004 C 0.72393 0.01856 0.39985 0.0
C1005 C 0.72312 0.04399 0.43836 0.0
C1006 C 0.70212 0.05081 0.4938 0.0
C1007 C 0.68186 0.03209 0.51024 0.0
C1008 C 0.68264 1.00701 0.47519 0.0
C1009 C 0.65757 0.99109 0.49618 0.0
C1010 C 0.64231 0.98327 0.41524 0.0
C1011 C 0.66448 0.96638 0.54988 0.0
C1012 C 0.64208 1.01121 0.54739 0.0
C1013 C 0.65663 0.03457 0.5566 0.0
C1014 C 0.64641 0.05588 0.60247 0.0
C1015 C 0.62081 0.05335 0.63894 0.0
C1016 C 0.6052 0.02988 0.62831 0.0
C1017 C 0.61623 1.00857 0.58179 0.0
H1018 H 0.57543 0.70829 0.3955 0.0
H1019 H 0.4948 0.71308 0.29569 0.0
H1020 H 0.48259 0.67202 0.37361 0.0
H1021 H 0.58267 0.6381 0.38526 0.0
H1022 H 0.60087 0.63548 0.4837 0.0
H1023 H 0.60191 0.66603 0.42407 0.0
H1024 H 0.58596 0.69018 0.56034 0.0
H1025 H 0.58381 0.65882 0.61641 0.0
H1026 H 0.55495 0.68002 0.60878 0.0
H1027 H 0.47983 0.62831 0.45008 0.0
H1028 H 0.48548 0.58632 0.52872 0.0
H1029 H 0.56786 0.60772 0.58446 0.0
C1030 C 0.55501 0.7011 0.39243 0.0
C1031 C 0.53589 0.71435 0.34029 0.0
C1032 C 0.50963 0.7037 0.33605 0.0
C1033 C 0.50254 0.68023 0.37988 0.0
C1034 C 0.52187 0.66728 0.42876 0.0
C1035 C 0.54747 0.67748 0.4367 0.0
C1036 C 0.56442 0.65885 0.49183 0.0
C1037 C 0.5889 0.64902 0.44312 0.0
C1038 C 0.57279 0.6728 0.57421 0.0
C1039 C 0.54475 0.63607 0.51 0.0
C1040 C 0.52024 0.64172 0.47362 0.0
C1041 C 0.49887 0.62388 0.47962 0.0
C1042 C 0.50232 0.59992 0.52484 0.0
C1043 C 0.52705 0.59338 0.56387 0.0
C1044 C 0.54867 0.61186 0.55557 0.0
H1045 H 0.84798 0.58146 0.39185 0.0
H1046 H 0.81534 0.50143 0.40893 0.0
H1047 H 0.85561 0.48708 0.48852 0.0
H1048 H 0.91574 0.56373 0.36102 0.0
H1049 H 0.92879 0.5906 0.42394 0.0
H1050 H 0.89693 0.59405 0.37268 0.0
H1051 H 0.87612 0.60484 0.51907 0.0
H1052 H 0.90829 0.6007 0.5692 0.0
H1053 H 0.88 0.5814 0.60522 0.0
H1054 H 0.90207 0.48034 0.55276 0.0
H1055 H 0.94715 0.48265 0.61497 0.0
H1056 H 0.94996 0.56771 0.56504 0.0
C1057 C 0.84904 0.56099 0.4137 0.0
C1058 C 0.8281 0.54263 0.3939 0.0
C1059 C 0.83063 0.51605 0.4238 0.0
C1060 C 0.85366 0.50765 0.46861 0.0
C1061 C 0.87415 0.52608 0.48482 0.0
C1062 C 0.87175 0.55237 0.45999 0.0
C1063 C 0.89677 0.56812 0.48489 0.0
C1064 C 0.91035 0.57979 0.40585 0.0
C1065 C 0.88987 0.59007 0.54836 0.0
C1066 C 0.91393 0.54657 0.52647 0.0
C1067 C 0.90044 0.52243 0.52499 0.0
C1068 C 0.91243 0.49931 0.55587 0.0
C1069 C 0.93825 0.50089 0.59152 0.0
C1070 C 0.95246 0.52543 0.59704 0.0
C1071 C 0.93995 0.54859 0.5628 0.0
loop_
_geom_bond_atom_site_label_1
_geom_bond_atom_site_label_2
_geom_bond_distance
_geom_bond_site_symmetry_2
_ccdc_geom_bond_type
H0 C3 0.929 . S
H1 C6 0.929 . S
H2 C8 0.930 . S
C3 H0 0.929 . S
C3 C4 1.398 . S
C3 C5 1.396 . S
C4 C3 1.398 . S
C4 C8 1.407 . S
C5 C3 1.396 . S
C5 C6 1.394 . S
C6 H1 0.929 . S
C6 C5 1.394 . S
C6 C7 1.382 . S
C7 C6 1.382 . S
C7 C8 1.392 . S
C7 N9 1.420 . S
C8 H2 0.930 . S
C8 C4 1.407 . S
C8 C7 1.392 . S
N9 C7 1.420 . S
N9 C10 1.244 . S
C10 N9 1.244 . S
H11 C14 0.929 . S
H12 C17 0.929 . S
H13 C19 0.930 . S
C14 H11 0.929 . S
C14 C15 1.398 . S
C14 C16 1.396 . S
C15 C14 1.398 . S
C15 C19 1.407 . S
C16 C14 1.396 . S
C16 C17 1.394 . S
C17 H12 0.929 . S
C17 C16 1.394 . S
C17 C18 1.382 . S
C18 C17 1.382 . S
C18 C19 1.392 . S
C18 N20 1.420 . S
C19 H13 0.930 . S
C19 C15 1.407 . S
C19 C18 1.392 . S
N20 C18 1.420 . S
N20 C21 1.244 . S
C21 N20 1.244 . S
H22 C25 0.929 . S
H23 C28 0.929 . S
H24 C30 0.930 . S
C25 H22 0.929 . S
C25 C26 1.398 . S
C25 C27 1.396 . S
C26 C25 1.398 . S
C26 C30 1.407 . S
C27 C25 1.396 . S
C27 C28 1.394 . S
C28 H23 0.929 . S
C28 C27 1.394 . S
C28 C29 1.382 . S
C29 C28 1.382 . S
C29 C30 1.392 . S
C29 N31 1.420 . S
C30 H24 0.930 . S
C30 C26 1.407 . S
C30 C29 1.392 . S
N31 C29 1.420 . S
N31 C32 1.244 . S
C32 N31 1.244 . S
H33 C36 0.929 . S
H34 C39 0.929 . S
H35 C41 0.930 . S
C36 H33 0.929 . S
C36 C37 1.398 . S
C36 C38 1.396 . S
C37 C36 1.398 . S
C37 C41 1.407 . S
C38 C36 1.396 . S
C38 C39 1.394 . S
C39 H34 0.929 . S
C39 C38 1.394 . S
C39 C40 1.382 . S
C40 C39 1.382 . S
C40 C41 1.392 . S
C40 N42 1.420 . S
C41 H35 0.930 . S
C41 C37 1.407 . S
C41 C40 1.392 . S
N42 C40 1.420 . S
N42 C43 1.244 . S
C43 N42 1.244 . S
H44 C47 0.929 . S
H45 C50 0.929 . S
H46 C52 0.930 . S
C47 H44 0.929 . S
C47 C48 1.398 1_554 S
C47 C49 1.396 . S
C48 C47 1.398 1_556 S
C48 C52 1.407 . S
C49 C47 1.396 . S
C49 C50 1.394 . S
C50 H45 0.929 . S
C50 C49 1.394 . S
C50 C51 1.382 . S
C51 C50 1.382 . S
C51 C52 1.392 1_554 S
C51 N53 1.420 . S
C52 H46 0.930 . S
C52 C48 1.407 . S
C52 C51 1.392 1_556 S
N53 C51 1.420 . S
N53 C54 1.244 . S
C54 N53 1.244 . S
H55 C58 0.929 . S
H56 C61 0.929 . S
H57 C63 0.930 . S
C58 H55 0.929 . S
C58 C59 1.398 1_554 S
C58 C60 1.396 . S
C59 C58 1.398 1_556 S
C59 C63 1.407 . S
C60 C58 1.396 . S
C60 C61 1.394 . S
C61 H56 0.929 . S
C61 C60 1.394 . S
C61 C62 1.382 . S
C62 C61 1.382 . S
C62 C63 1.392 1_554 S
C62 N64 1.420 . S
C63 H57 0.930 . S
C63 C59 1.407 . S
C63 C62 1.392 1_556 S
N64 C62 1.420 . S
N64 C65 1.244 . S
C65 N64 1.244 . S
H66 C69 0.929 . S
H67 C72 0.929 . S
H68 C74 0.930 . S
C69 H66 0.929 . S
C69 C70 1.398 1_554 S
C69 C71 1.396 . S
C70 C69 1.398 1_556 S
C70 C74 1.407 . S
C71 C69 1.396 . S
C71 C72 1.394 . S
C72 H67 0.929 . S
C72 C71 1.394 . S
C72 C73 1.382 . S
C73 C72 1.382 . S
C73 C74 1.392 1_554 S
C73 N75 1.420 . S
C74 H68 0.930 . S
C74 C70 1.407 . S
C74 C73 1.392 1_556 S
N75 C73 1.420 . S
N75 C76 1.244 . S
C76 N75 1.244 . S
H77 C80 0.929 . S
H78 C83 0.929 . S
H79 C85 0.930 . S
C80 H77 0.929 . S
C80 C81 1.398 1_554 S
C80 C82 1.396 . S
C81 C80 1.398 1_556 S
C81 C85 1.407 . S
C82 C80 1.396 . S
C82 C83 1.394 . S
C83 H78 0.929 . S
C83 C82 1.394 . S
C83 C84 1.382 . S
C84 C83 1.382 . S
C84 C85 1.392 1_554 S
C84 N86 1.420 . S
C85 H79 0.930 . S
C85 C81 1.407 . S
C85 C84 1.392 1_556 S
N86 C84 1.420 . S
N86 C87 1.244 . S
C87 N86 1.244 . S
C88 C90 1.422 . S
C88 C92 1.415 . S
C88 N94 1.369 . S
C89 C90 1.421 1_554 S
C89 C91 1.417 . S
C89 C101 1.422 . S
C90 C88 1.422 . S
C90 C89 1.421 1_556 S
C90 N100 1.359 . S
C91 C89 1.417 . S
C91 C93 1.329 . S
C91 H110 0.930 . S
C92 C88 1.415 . S
C92 C93 1.437 1_556 S
C92 C96 1.413 . S
C93 C91 1.329 . S
C93 C92 1.437 1_554 S
C93 H115 0.929 . S
N94 C88 1.369 . S
N94 C95 1.338 . S
N94 Gd99 2.622 1_545 S
C95 N94 1.338 . S
C95 C97 1.378 . S
C95 H107 0.929 1_545 S
C96 C92 1.413 . S
C96 C97 1.348 . S
C96 H112 0.931 . S
C97 C95 1.378 . S
C97 C96 1.348 . S
C97 H113 0.930 . S
Gd98 N118 2.622 . S
Gd98 N125 2.570 . S
Gd98 O132 2.353 1_655 S
Gd98 O133 2.468 1_655 S
Gd98 O134 2.427 . S
Gd98 O136 2.388 . S
Gd98 O137 2.386 1_545 S
Gd98 O141 2.307 1_655 S
Gd98 C151 2.805 . S
Gd99 N94 2.622 1_565 S
Gd99 N100 2.570 1_565 S
Gd99 O131 2.386 1_565 S
Gd99 O135 2.307 1_465 S
Gd99 O138 2.353 . S
Gd99 O139 2.468 . S
Gd99 O140 2.427 . S
Gd99 O142 2.388 . S
Gd99 C163 2.805 . S
N100 C90 1.359 . S
N100 Gd99 2.570 1_545 S
N100 C102 1.343 . S
C101 C89 1.422 . S
C101 C103 1.321 . S
C101 H109 0.931 . S
C102 N100 1.343 . S
C102 C103 1.390 1_556 S
C102 H104 0.931 1_455 S
C103 C101 1.321 . S
C103 C102 1.390 1_554 S
C103 H105 0.926 1_455 S
H104 C102 0.931 1_655 S
H105 C103 0.926 1_655 S
H106 C129 0.931 . S
H107 C95 0.929 1_565 S
H108 C130 0.930 . S
H109 C101 0.931 . S
H110 C91 0.930 . S
H111 C120 0.929 . S
H112 C96 0.931 . S
H113 C97 0.930 . S
H114 C152 0.930 . S
H115 C93 0.929 . S
H116 C121 0.931 . S
H117 C122 0.930 . S
N118 Gd98 2.622 . S
N118 C119 1.369 . S
N118 C120 1.338 . S
C119 N118 1.369 . S
C119 C123 1.415 1_545 S
C119 C126 1.426 . S
C120 H111 0.929 . S
C120 N118 1.338 . S
C120 C122 1.378 . S
C121 H116 0.931 . S
C121 C122 1.348 1_565 S
C121 C123 1.413 . S
C122 H117 0.930 . S
C122 C120 1.378 . S
C122 C121 1.348 1_545 S
C123 C119 1.415 1_565 S
C123 C121 1.413 . S
C123 C153 1.437 . S
H124 C153 0.929 . S
N125 Gd98 2.570 . S
N125 C126 1.372 . S
N125 C129 1.343 1_655 S
C126 C119 1.426 . S
C126 N125 1.372 . S
C126 C128 1.405 1_545 S
C127 C128 1.422 . S
C127 C130 1.321 1_655 S
C127 H154 0.931 . S
C128 C126 1.405 1_565 S
C128 C127 1.422 . S
C128 C152 1.417 . S
C129 H106 0.931 . S
C129 N125 1.343 1_455 S
C129 C130 1.390 1_545 S
C130 H108 0.930 . S
C130 C127 1.321 1_455 S
C130 C129 1.390 1_565 S
O131 Gd99 2.386 1_545 S
O131 C143 1.265 . S
O132 Gd98 2.353 1_455 S
O132 C143 1.242 . S
O133 Gd98 2.468 1_455 S
O133 C151 1.263 1_455 S
O134 Gd98 2.427 . S
O134 C151 1.252 . S
O135 Gd99 2.307 1_645 S
O135 C144 1.261 . S
O136 Gd98 2.388 . S
O136 C144 1.252 . S
O137 Gd98 2.386 1_565 S
O137 C155 1.265 . S
O138 Gd99 2.353 . S
O138 C155 1.242 1_455 S
O139 Gd99 2.468 . S
O139 C163 1.263 . S
O140 Gd99 2.427 . S
O140 C163 1.252 . S
O141 Gd98 2.307 1_455 S
O141 C156 1.261 . S
O142 Gd99 2.388 . S
O142 C156 1.252 1_565 S
C143 O131 1.265 . S
C143 O132 1.242 . S
C144 O135 1.261 . S
C144 O136 1.252 . S
C145 C148 1.394 . S
C145 C150 1.370 . S
C145 C151 1.500 . S
C146 C149 1.383 . S
C146 C150 1.395 . S
C147 C148 1.396 . S
C147 C149 1.365 . S
C147 H164 0.929 . S
C148 C145 1.394 . S
C148 C147 1.396 . S
C148 H165 0.930 . S
C149 C146 1.383 . S
C149 C147 1.365 . S
C149 H166 0.931 . S
C150 C145 1.370 . S
C150 C146 1.395 . S
C150 H167 0.930 1_655 S
C151 Gd98 2.805 . S
C151 O133 1.263 1_655 S
C151 O134 1.252 . S
C151 C145 1.500 . S
C152 H114 0.930 . S
C152 C128 1.417 . S
C152 C153 1.329 . S
C153 C123 1.437 . S
C153 H124 0.929 . S
C153 C152 1.329 . S
H154 C127 0.931 . S
C155 O137 1.265 . S
C155 O138 1.242 1_655 S
C156 O141 1.261 . S
C156 O142 1.252 1_545 S
C157 C160 1.394 . S
C157 C162 1.370 . S
C157 C163 1.500 . S
C158 C161 1.383 . S
C158 C162 1.395 . S
C159 C160 1.396 . S
C159 C161 1.365 . S
C159 H168 0.929 . S
C160 C157 1.394 . S
C160 C159 1.396 . S
C160 H169 0.930 . S
C161 C158 1.383 . S
C161 C159 1.365 . S
C161 H170 0.931 1_556 S
C162 C157 1.370 . S
C162 C158 1.395 . S
C162 H171 0.930 . S
C163 Gd99 2.805 . S
C163 O139 1.263 . S
C163 O140 1.252 . S
C163 C157 1.500 . S
H164 C147 0.929 . S
H165 C148 0.930 . S
H166 C149 0.931 . S
H167 C150 0.930 1_455 S
H168 C159 0.929 . S
H169 C160 0.930 . S
H170 C161 0.931 1_554 S
H171 C162 0.930 . S
C172 C174 1.422 . S
C172 C176 1.415 . S
C172 N178 1.369 . S
C173 C174 1.421 . S
C173 C175 1.417 . S
C173 C185 1.422 . S
C174 C172 1.422 . S
C174 C173 1.421 . S
C174 N184 1.359 . S
C175 C173 1.417 . S
C175 C177 1.329 . S
C175 H194 0.930 . S
C176 C172 1.415 . S
C176 C177 1.437 . S
C176 C180 1.413 . S
C177 C175 1.329 . S
C177 C176 1.437 . S
C177 H199 0.929 . S
N178 C172 1.369 . S
N178 C179 1.338 . S
N178 Gd183 2.622 . S
C179 N178 1.338 . S
C179 C181 1.378 . S
C179 H191 0.929 . S
C180 C176 1.413 . S
C180 C181 1.348 . S
C180 H196 0.931 . S
C181 C179 1.378 . S
C181 C180 1.348 . S
C181 H197 0.930 . S
Gd182 N202 2.622 . S
Gd182 N209 2.570 . S
Gd182 O216 2.353 1_545 S
Gd182 O217 2.468 . S
Gd182 O218 2.427 . S
Gd182 O220 2.388 . S
Gd182 O221 2.386 . S
Gd182 O225 2.307 . S
Gd182 C235 2.805 . S
Gd183 N178 2.622 . S
Gd183 N184 2.570 . S
Gd183 O215 2.386 . S
Gd183 O219 2.307 1_565 S
Gd183 O222 2.353 1_565 S
Gd183 O223 2.468 . S
Gd183 O224 2.427 . S
Gd183 O226 2.388 . S
Gd183 C247 2.805 . S
N184 C174 1.359 . S
N184 Gd183 2.570 . S
N184 C186 1.343 . S
C185 C173 1.422 . S
C185 C187 1.321 . S
C185 H193 0.931 . S
C186 N184 1.343 . S
C186 C187 1.390 . S
C186 H188 0.931 . S
C187 C185 1.321 . S
C187 C186 1.390 . S
C187 H189 0.930 . S
H188 C186 0.931 . S
H189 C187 0.930 . S
H190 C213 0.931 . S
H191 C179 0.929 . S
H192 C214 0.930 . S
H193 C185 0.931 . S
H194 C175 0.930 . S
H195 C204 0.929 . S
H196 C180 0.931 . S
H197 C181 0.930 . S
H198 C236 0.930 . S
H199 C177 0.929 . S
H200 C205 0.931 . S
H201 C206 0.930 . S
N202 Gd182 2.622 . S
N202 C203 1.369 . S
N202 C204 1.338 . S
C203 N202 1.369 . S
C203 C207 1.415 . S
C203 C210 1.422 . S
C204 H195 0.929 . S
C204 N202 1.338 . S
C204 C206 1.378 . S
C205 H200 0.931 . S
C205 C206 1.348 . S
C205 C207 1.413 . S
C206 H201 0.930 . S
C206 C204 1.378 . S
C206 C205 1.348 . S
C207 C203 1.415 . S
C207 C205 1.413 . S
C207 C237 1.437 . S
H208 C237 0.929 . S
N209 Gd182 2.570 . S
N209 C210 1.359 . S
N209 C213 1.343 . S
C210 C203 1.422 . S
C210 N209 1.359 . S
C210 C212 1.421 . S
C211 C212 1.422 . S
C211 C214 1.321 . S
C211 H238 0.931 . S
C212 C210 1.421 . S
C212 C211 1.422 . S
C212 C236 1.417 . S
C213 H190 0.931 . S
C213 N209 1.343 . S
C213 C214 1.390 . S
C214 H192 0.930 . S
C214 C211 1.321 . S
C214 C213 1.390 . S
O215 Gd183 2.386 . S
O215 C227 1.265 . S
O216 Gd182 2.353 1_565 S
O216 C227 1.242 . S
O217 Gd182 2.468 . S
O217 C235 1.263 . S
O218 Gd182 2.427 . S
O218 C235 1.252 . S
O219 Gd183 2.307 1_545 S
O219 C228 1.261 . S
O220 Gd182 2.388 . S
O220 C228 1.252 . S
O221 Gd182 2.386 . S
O221 C239 1.265 . S
O222 Gd183 2.353 1_545 S
O222 C239 1.242 . S
O223 Gd183 2.468 . S
O223 C247 1.263 . S
O224 Gd183 2.427 . S
O224 C247 1.252 . S
O225 Gd182 2.307 . S
O225 C240 1.261 . S
O226 Gd183 2.388 . S
O226 C240 1.252 1_565 S
C227 O215 1.265 . S
C227 O216 1.242 . S
C228 O219 1.261 . S
C228 O220 1.252 . S
C229 C232 1.394 1_556 S
C229 C234 1.370 . S
C229 C235 1.500 . S
C230 C233 1.383 . S
C230 C234 1.395 1_554 S
C231 C232 1.396 . S
C231 C233 1.365 . S
C231 H248 0.929 . S
C232 C229 1.394 1_554 S
C232 C231 1.396 . S
C232 H249 0.930 . S
C233 C230 1.383 . S
C233 C231 1.365 . S
C233 H250 0.931 . S
C234 C229 1.370 . S
C234 C230 1.395 1_556 S
C234 H251 0.930 . S
C235 Gd182 2.805 . S
C235 O217 1.263 . S
C235 O218 1.252 . S
C235 C229 1.500 . S
C236 H198 0.930 . S
C236 C212 1.417 . S
C236 C237 1.329 . S
C237 C207 1.437 . S
C237 H208 0.929 . S
C237 C236 1.329 . S
H238 C211 0.931 . S
C239 O221 1.265 . S
C239 O222 1.242 . S
C240 O225 1.261 . S
C240 O226 1.252 1_545 S
C241 C244 1.394 . S
C241 C246 1.370 1_565 S
C241 C247 1.500 . S
C242 C245 1.383 1_545 S
C242 C246 1.395 . S
C243 C244 1.396 . S
C243 C245 1.365 . S
C243 H252 0.929 . S
C244 C241 1.394 . S
C244 C243 1.396 . S
C244 H253 0.930 . S
C245 C242 1.383 1_565 S
C245 C243 1.365 . S
C245 H254 0.931 . S
C246 C241 1.370 1_545 S
C246 C242 1.395 . S
C246 H255 0.930 . S
C247 Gd183 2.805 . S
C247 O223 1.263 . S
C247 O224 1.252 . S
C247 C241 1.500 . S
H248 C231 0.929 . S
H249 C232 0.930 . S
H250 C233 0.931 . S
H251 C234 0.930 . S
H252 C243 0.929 . S
H253 C244 0.930 . S
H254 C245 0.931 . S
H255 C246 0.930 . S
C256 C258 1.422 . S
C256 C260 1.415 . S
C256 N262 1.369 . S
C257 C258 1.421 1_554 S
C257 C259 1.417 . S
C257 C269 1.422 . S
C258 C256 1.422 . S
C258 C257 1.421 1_556 S
C258 N268 1.359 . S
C259 C257 1.417 . S
C259 C261 1.329 . S
C259 H278 0.930 . S
C260 C256 1.415 . S
C260 C261 1.437 1_556 S
C260 C264 1.413 . S
C261 C259 1.329 . S
C261 C260 1.437 1_554 S
C261 H283 0.929 . S
N262 C256 1.369 . S
N262 C263 1.338 . S
N262 Gd267 2.622 . S
C263 N262 1.338 . S
C263 C265 1.378 . S
C263 H275 0.929 . S
C264 C260 1.413 . S
C264 C265 1.348 . S
C264 H280 0.931 . S
C265 C263 1.378 . S
C265 C264 1.348 . S
C265 H281 0.930 . S
Gd266 N286 2.622 . S
Gd266 N293 2.570 . S
Gd266 O300 2.353 . S
Gd266 O301 2.468 . S
Gd266 O302 2.427 . S
Gd266 O304 2.388 . S
Gd266 O305 2.386 . S
Gd266 O309 2.307 . S
Gd266 C319 2.805 . S
Gd267 N262 2.622 . S
Gd267 N268 2.570 . S
Gd267 O299 2.386 . S
Gd267 O303 2.307 . S
Gd267 O306 2.353 . S
Gd267 O307 2.468 . S
Gd267 O308 2.427 . S
Gd267 O310 2.388 . S
Gd267 C331 2.805 . S
N268 C258 1.359 . S
N268 Gd267 2.570 . S
N268 C270 1.343 . S
C269 C257 1.422 . S
C269 C271 1.321 . S
C269 H277 0.931 . S
C270 N268 1.343 . S
C270 C271 1.390 1_556 S
C270 H272 0.931 . S
C271 C269 1.321 . S
C271 C270 1.390 1_554 S
C271 H273 0.930 . S
H272 C270 0.931 . S
H273 C271 0.930 . S
H274 C297 0.931 . S
H275 C263 0.929 . S
H276 C298 0.930 . S
H277 C269 0.931 . S
H278 C259 0.930 . S
H279 C288 0.929 . S
H280 C264 0.931 . S
H281 C265 0.930 . S
H282 C320 0.930 . S
H283 C261 0.929 . S
H284 C289 0.931 . S
H285 C290 0.930 . S
N286 Gd266 2.622 . S
N286 C287 1.369 . S
N286 C288 1.338 . S
C287 N286 1.369 . S
C287 C291 1.415 . S
C287 C294 1.422 . S
C288 H279 0.929 . S
C288 N286 1.338 . S
C288 C290 1.378 . S
C289 H284 0.931 . S
C289 C290 1.348 . S
C289 C291 1.413 . S
C290 H285 0.930 . S
C290 C288 1.378 . S
C290 C289 1.348 . S
C291 C287 1.415 . S
C291 C289 1.413 . S
C291 C321 1.437 . S
H292 C321 0.929 . S
N293 Gd266 2.570 . S
N293 C294 1.359 . S
N293 C297 1.343 . S
C294 C287 1.422 . S
C294 N293 1.359 . S
C294 C296 1.421 . S
C295 C296 1.422 . S
C295 C298 1.321 . S
C295 H322 0.931 . S
C296 C294 1.421 . S
C296 C295 1.422 . S
C296 C320 1.417 . S
C297 H274 0.931 . S
C297 N293 1.343 . S
C297 C298 1.390 . S
C298 H276 0.930 . S
C298 C295 1.321 . S
C298 C297 1.390 . S
O299 Gd267 2.386 . S
O299 C311 1.265 . S
O300 Gd266 2.353 . S
O300 C311 1.242 . S
O301 Gd266 2.468 . S
O301 C319 1.263 . S
O302 Gd266 2.427 . S
O302 C319 1.252 . S
O303 Gd267 2.307 . S
O303 C312 1.261 . S
O304 Gd266 2.388 . S
O304 C312 1.252 . S
O305 Gd266 2.386 . S
O305 C323 1.265 . S
O306 Gd267 2.353 . S
O306 C323 1.242 . S
O307 Gd267 2.468 . S
O307 C331 1.263 . S
O308 Gd267 2.427 . S
O308 C331 1.252 . S
O309 Gd266 2.307 . S
O309 C324 1.261 . S
O310 Gd267 2.388 . S
O310 C324 1.252 . S
C311 O299 1.265 . S
C311 O300 1.242 . S
C312 O303 1.261 . S
C312 O304 1.252 . S
C313 C316 1.394 . S
C313 C318 1.370 . S
C313 C319 1.500 . S
C314 C317 1.383 . S
C314 C318 1.395 . S
C315 C316 1.396 . S
C315 C317 1.365 . S
C315 H332 0.929 . S
C316 C313 1.394 . S
C316 C315 1.396 . S
C316 H333 0.930 . S
C317 C314 1.383 . S
C317 C315 1.365 . S
C317 H334 0.931 . S
C318 C313 1.370 . S
C318 C314 1.395 . S
C318 H335 0.930 . S
C319 Gd266 2.805 . S
C319 O301 1.263 . S
C319 O302 1.252 . S
C319 C313 1.500 . S
C320 H282 0.930 . S
C320 C296 1.417 . S
C320 C321 1.329 . S
C321 C291 1.437 . S
C321 H292 0.929 . S
C321 C320 1.329 . S
H322 C295 0.931 . S
C323 O305 1.265 . S
C323 O306 1.242 . S
C324 O309 1.261 . S
C324 O310 1.252 . S
C325 C328 1.394 . S
C325 C330 1.370 . S
C325 C331 1.500 . S
C326 C329 1.383 . S
C326 C330 1.395 . S
C327 C328 1.396 . S
C327 C329 1.365 . S
C327 H336 0.929 . S
C328 C325 1.394 . S
C328 C327 1.396 . S
C328 H337 0.930 . S
C329 C326 1.383 . S
C329 C327 1.365 . S
C329 H338 0.931 1_556 S
C330 C325 1.370 . S
C330 C326 1.395 . S
C330 H339 0.930 . S
C331 Gd267 2.805 . S
C331 O307 1.263 . S
C331 O308 1.252 . S
C331 C325 1.500 . S
H332 C315 0.929 . S
H333 C316 0.930 . S
H334 C317 0.931 . S
H335 C318 0.930 . S
H336 C327 0.929 . S
H337 C328 0.930 . S
H338 C329 0.931 1_554 S
H339 C330 0.930 . S
C340 C342 1.422 . S
C340 C344 1.415 . S
C340 N346 1.369 . S
C341 C342 1.421 1_554 S
C341 C343 1.417 . S
C341 C353 1.422 . S
C342 C340 1.422 . S
C342 C341 1.421 1_556 S
C342 N352 1.359 . S
C343 C341 1.417 . S
C343 C345 1.329 . S
C343 H362 0.930 . S
C344 C340 1.415 . S
C344 C345 1.437 1_556 S
C344 C348 1.413 . S
C345 C343 1.329 . S
C345 C344 1.437 1_554 S
C345 H367 0.929 . S
N346 C340 1.369 . S
N346 C347 1.335 1_455 S
N346 Gd351 2.622 1_455 S
C347 N346 1.335 1_655 S
C347 C349 1.369 1_655 S
C347 H359 0.942 . S
C348 C344 1.413 . S
C348 C349 1.348 . S
C348 H364 0.931 . S
C349 C347 1.369 1_455 S
C349 C348 1.348 . S
C349 H365 0.930 . S
Gd350 N370 2.622 . S
Gd350 N377 2.570 . S
Gd350 O384 2.353 . S
Gd350 O385 2.468 . S
Gd350 O386 2.427 . S
Gd350 O388 2.388 . S
Gd350 O389 2.386 1_455 S
Gd350 O393 2.307 . S
Gd350 C403 2.805 . S
Gd351 N346 2.622 1_655 S
Gd351 N352 2.570 1_655 S
Gd351 O383 2.386 1_655 S
Gd351 O387 2.307 1_655 S
Gd351 O390 2.353 . S
Gd351 O391 2.468 . S
Gd351 O392 2.427 . S
Gd351 O394 2.388 . S
Gd351 C415 2.805 . S
N352 C342 1.359 . S
N352 Gd351 2.570 1_455 S
N352 C354 1.343 . S
C353 C341 1.422 . S
C353 C355 1.321 . S
C353 H361 0.931 . S
C354 N352 1.343 . S
C354 C355 1.390 1_556 S
C354 H356 0.931 . S
C355 C353 1.321 . S
C355 C354 1.390 1_554 S
C355 H357 0.930 . S
H356 C354 0.931 . S
H357 C355 0.930 . S
H358 C381 0.931 . S
H359 C347 0.942 . S
H360 C382 0.930 . S
H361 C353 0.931 . S
H362 C343 0.930 . S
H363 C372 0.929 . S
H364 C348 0.931 . S
H365 C349 0.930 . S
H366 C404 0.930 . S
H367 C345 0.929 . S
H368 C373 0.931 . S
H369 C374 0.930 . S
N370 Gd350 2.622 . S
N370 C371 1.369 . S
N370 C372 1.338 . S
C371 N370 1.369 . S
C371 C375 1.415 1_455 S
C371 C378 1.423 . S
C372 H363 0.929 . S
C372 N370 1.338 . S
C372 C374 1.378 . S
C373 H368 0.931 . S
C373 C374 1.348 1_655 S
C373 C375 1.413 . S
C374 H369 0.930 . S
C374 C372 1.378 . S
C374 C373 1.348 1_455 S
C375 C371 1.415 1_655 S
C375 C373 1.413 . S
C375 C405 1.437 . S
H376 C405 0.929 . S
N377 Gd350 2.570 . S
N377 C378 1.362 . S
N377 C381 1.343 . S
C378 C371 1.423 . S
C378 N377 1.362 . S
C378 C380 1.417 1_455 S
C379 C380 1.422 . S
C379 C382 1.321 . S
C379 H406 0.931 . S
C380 C378 1.417 1_655 S
C380 C379 1.422 . S
C380 C404 1.417 . S
C381 H358 0.931 . S
C381 N377 1.343 . S
C381 C382 1.390 1_455 S
C382 H360 0.930 . S
C382 C379 1.321 . S
C382 C381 1.390 1_655 S
O383 Gd351 2.386 1_455 S
O383 C395 1.265 . S
O384 Gd350 2.353 . S
O384 C395 1.242 . S
O385 Gd350 2.468 . S
O385 C403 1.263 . S
O386 Gd350 2.427 . S
O386 C403 1.252 . S
O387 Gd351 2.307 1_455 S
O387 C396 1.261 . S
O388 Gd350 2.388 . S
O388 C396 1.252 . S
O389 Gd350 2.386 1_655 S
O389 C407 1.265 . S
O390 Gd351 2.353 . S
O390 C407 1.242 . S
O391 Gd351 2.468 . S
O391 C415 1.263 . S
O392 Gd351 2.427 . S
O392 C415 1.252 . S
O393 Gd350 2.307 . S
O393 C408 1.261 . S
O394 Gd351 2.388 . S
O394 C408 1.252 1_655 S
C395 O383 1.265 . S
C395 O384 1.242 . S
C396 O387 1.261 . S
C396 O388 1.252 . S
C397 C400 1.394 . S
C397 C402 1.370 . S
C397 C403 1.500 . S
C398 C401 1.383 . S
C398 C402 1.395 . S
C399 C400 1.396 . S
C399 C401 1.365 . S
C399 H416 0.929 . S
C400 C397 1.394 . S
C400 C399 1.396 . S
C400 H417 0.930 . S
C401 C398 1.383 . S
C401 C399 1.365 . S
C401 H418 0.931 . S
C402 C397 1.370 . S
C402 C398 1.395 . S
C402 H419 0.930 . S
C403 Gd350 2.805 . S
C403 O385 1.263 . S
C403 O386 1.252 . S
C403 C397 1.500 . S
C404 H366 0.930 . S
C404 C380 1.417 . S
C404 C405 1.329 . S
C405 C375 1.437 . S
C405 H376 0.929 . S
C405 C404 1.329 . S
H406 C379 0.931 . S
C407 O389 1.265 . S
C407 O390 1.242 . S
C408 O393 1.261 . S
C408 O394 1.252 1_455 S
C409 C412 1.394 . S
C409 C414 1.370 . S
C409 C415 1.500 . S
C410 C413 1.383 . S
C410 C414 1.395 . S
C411 C412 1.396 . S
C411 C413 1.365 . S
C411 H420 0.929 . S
C412 C409 1.394 . S
C412 C411 1.396 . S
C412 H421 0.930 . S
C413 C410 1.383 . S
C413 C411 1.365 . S
C413 H422 0.931 1_556 S
C414 C409 1.370 . S
C414 C410 1.395 . S
C414 H423 0.930 . S
C415 Gd351 2.805 . S
C415 O391 1.263 . S
C415 O392 1.252 . S
C415 C409 1.500 . S
H416 C399 0.929 . S
H417 C400 0.930 . S
H418 C401 0.931 . S
H419 C402 0.930 . S
H420 C411 0.929 . S
H421 C412 0.930 . S
H422 C413 0.931 1_554 S
H423 C414 0.930 . S
H424 C436 0.930 . S
H425 C438 0.930 1_565 S
H426 C439 0.910 1_565 S
H427 C443 0.959 . S
H428 C443 0.959 . S
H429 C443 0.961 . S
H430 C444 0.960 . S
H431 C444 0.961 . S
H432 C444 0.959 . S
H433 C447 0.929 . S
H434 C448 0.931 . S
H435 C450 0.930 . S
C436 H424 0.930 . S
C436 C437 1.399 . S
C436 C441 1.399 . S
C437 C436 1.399 . S
C437 C438 1.376 . S
C438 H425 0.930 1_545 S
C438 C437 1.376 . S
C438 C439 1.395 . S
C439 H426 0.910 1_545 S
C439 C438 1.395 . S
C439 C440 1.403 . S
C440 C439 1.403 . S
C440 C441 1.394 . S
C440 C446 1.465 . S
C441 C436 1.399 . S
C441 C440 1.394 . S
C441 C442 1.516 . S
C442 C441 1.516 . S
C442 C443 1.502 . S
C442 C444 1.561 . S
C442 C445 1.526 . S
C443 H427 0.959 . S
C443 H428 0.959 . S
C443 H429 0.961 . S
C443 C442 1.502 . S
C444 H430 0.960 . S
C444 H431 0.961 . S
C444 H432 0.959 . S
C444 C442 1.561 . S
C445 C442 1.526 . S
C445 C446 1.396 . S
C445 C450 1.390 . S
C446 C440 1.465 . S
C446 C445 1.396 . S
C446 C447 1.399 1_545 S
C447 H433 0.929 . S
C447 C446 1.399 1_565 S
C447 C448 1.385 . S
C448 H434 0.931 . S
C448 C447 1.385 . S
C448 C449 1.389 1_565 S
C449 C448 1.389 1_545 S
C449 C450 1.387 . S
C450 H435 0.930 . S
C450 C445 1.390 . S
C450 C449 1.387 . S
H451 C463 0.930 . S
H452 C465 0.930 . S
H453 C466 0.930 . S
H454 C470 0.959 . S
H455 C470 0.959 . S
H456 C470 0.961 . S
H457 C471 0.960 . S
H458 C471 0.961 . S
H459 C471 0.959 . S
H460 C474 0.929 . S
H461 C475 0.931 . S
H462 C477 0.930 . S
C463 H451 0.930 . S
C463 C464 1.399 . S
C463 C468 1.399 . S
C464 C463 1.399 . S
C464 C465 1.376 . S
C465 H452 0.930 . S
C465 C464 1.376 . S
C465 C466 1.388 . S
C466 H453 0.930 . S
C466 C465 1.388 . S
C466 C467 1.390 . S
C467 C466 1.390 . S
C467 C468 1.394 . S
C467 C473 1.465 . S
C468 C463 1.399 . S
C468 C467 1.394 . S
C468 C469 1.516 . S
C469 C468 1.516 . S
C469 C470 1.502 . S
C469 C471 1.561 . S
C469 C472 1.526 . S
C470 H454 0.959 . S
C470 H455 0.959 . S
C470 H456 0.961 . S
C470 C469 1.502 . S
C471 H457 0.960 . S
C471 H458 0.961 . S
C471 H459 0.959 . S
C471 C469 1.561 . S
C472 C469 1.526 . S
C472 C473 1.396 . S
C472 C477 1.390 . S
C473 C467 1.465 . S
C473 C472 1.396 . S
C473 C474 1.399 . S
C474 H460 0.929 . S
C474 C473 1.399 . S
C474 C475 1.385 . S
C475 H461 0.931 . S
C475 C474 1.385 . S
C475 C476 1.389 . S
C476 C475 1.389 . S
C476 C477 1.387 . S
C477 H462 0.930 . S
C477 C472 1.390 . S
C477 C476 1.387 . S
H478 C490 0.930 . S
H479 C492 0.930 . S
H480 C493 0.930 . S
H481 C497 0.959 . S
H482 C497 0.959 . S
H483 C497 0.961 . S
H484 C498 0.960 . S
H485 C498 0.961 . S
H486 C498 0.959 . S
H487 C501 0.929 . S
H488 C502 0.931 . S
H489 C504 0.930 . S
C490 H478 0.930 . S
C490 C491 1.399 . S
C490 C495 1.399 . S
C491 C490 1.399 . S
C491 C492 1.376 . S
C492 H479 0.930 . S
C492 C491 1.376 . S
C492 C493 1.388 . S
C493 H480 0.930 . S
C493 C492 1.388 . S
C493 C494 1.390 . S
C494 C493 1.390 . S
C494 C495 1.394 . S
C494 C500 1.465 . S
C495 C490 1.399 . S
C495 C494 1.394 . S
C495 C496 1.516 . S
C496 C495 1.516 . S
C496 C497 1.502 . S
C496 C498 1.561 . S
C496 C499 1.526 . S
C497 H481 0.959 . S
C497 H482 0.959 . S
C497 H483 0.961 . S
C497 C496 1.502 . S
C498 H484 0.960 . S
C498 H485 0.961 . S
C498 H486 0.959 . S
C498 C496 1.561 . S
C499 C496 1.526 . S
C499 C500 1.396 . S
C499 C504 1.390 . S
C500 C494 1.465 . S
C500 C499 1.396 . S
C500 C501 1.399 . S
C501 H487 0.929 . S
C501 C500 1.399 . S
C501 C502 1.385 . S
C502 H488 0.931 . S
C502 C501 1.385 . S
C502 C503 1.389 . S
C503 C502 1.389 . S
C503 C504 1.387 . S
C504 H489 0.930 . S
C504 C499 1.390 . S
C504 C503 1.387 . S
H505 C517 0.930 . S
H506 C519 0.930 . S
H507 C520 0.930 . S
H508 C524 0.959 . S
H509 C524 0.959 . S
H510 C524 0.961 . S
H511 C525 0.960 . S
H512 C525 0.961 . S
H513 C525 0.959 . S
H514 C528 0.929 1_655 S
H515 C529 0.931 1_655 S
H516 C531 0.930 . S
C517 H505 0.930 . S
C517 C518 1.399 . S
C517 C522 1.399 . S
C518 C517 1.399 . S
C518 C519 1.376 . S
C519 H506 0.930 . S
C519 C518 1.376 . S
C519 C520 1.388 . S
C520 H507 0.930 . S
C520 C519 1.388 . S
C520 C521 1.390 . S
C521 C520 1.390 . S
C521 C522 1.394 . S
C521 C527 1.465 . S
C522 C517 1.399 . S
C522 C521 1.394 . S
C522 C523 1.516 . S
C523 C522 1.516 . S
C523 C524 1.502 . S
C523 C525 1.561 . S
C523 C526 1.526 . S
C524 H508 0.959 . S
C524 H509 0.959 . S
C524 H510 0.961 . S
C524 C523 1.502 . S
C525 H511 0.960 . S
C525 H512 0.961 . S
C525 H513 0.959 . S
C525 C523 1.561 . S
C526 C523 1.526 . S
C526 C527 1.396 . S
C526 C531 1.390 . S
C527 C521 1.465 . S
C527 C526 1.396 . S
C527 C528 1.399 . S
C528 H514 0.929 1_455 S
C528 C527 1.399 . S
C528 C529 1.385 . S
C529 H515 0.931 1_455 S
C529 C528 1.385 . S
C529 C530 1.389 . S
C530 C529 1.389 . S
C530 C531 1.387 . S
C531 H516 0.930 . S
C531 C526 1.390 . S
C531 C530 1.387 . S
H532 C544 0.930 . S
H533 C546 0.930 . S
H534 C547 0.930 . S
H535 C551 0.959 . S
H536 C551 0.959 . S
H537 C551 0.961 . S
H538 C552 0.960 1_554 S
H539 C552 0.961 . S
H540 C552 0.959 . S
H541 C555 0.929 . S
H542 C556 0.931 . S
H543 C558 0.930 . S
C544 H532 0.930 . S
C544 C545 1.399 . S
C544 C549 1.399 . S
C545 C544 1.399 . S
C545 C546 1.376 1_565 S
C546 H533 0.930 . S
C546 C545 1.376 1_545 S
C546 C547 1.388 . S
C547 H534 0.930 . S
C547 C546 1.388 . S
C547 C548 1.406 . S
C548 C547 1.406 . S
C548 C549 1.370 1_545 S
C548 C554 1.469 1_554 S
C549 C544 1.399 . S
C549 C548 1.370 1_565 S
C549 C550 1.516 . S
C550 C549 1.516 . S
C550 C551 1.502 . S
C550 C552 1.561 1_554 S
C550 C553 1.526 1_554 S
C551 H535 0.959 . S
C551 H536 0.959 . S
C551 H537 0.961 . S
C551 C550 1.502 . S
C552 H538 0.960 1_556 S
C552 H539 0.961 . S
C552 H540 0.959 . S
C552 C550 1.561 1_556 S
C553 C550 1.526 1_556 S
C553 C554 1.396 1_565 S
C553 C558 1.390 . S
C554 C548 1.469 1_556 S
C554 C553 1.396 1_545 S
C554 C555 1.399 . S
C555 H541 0.929 . S
C555 C554 1.399 . S
C555 C556 1.385 . S
C556 H542 0.931 . S
C556 C555 1.385 . S
C556 C557 1.389 . S
C557 C556 1.389 . S
C557 C558 1.387 1_545 S
C558 H543 0.930 . S
C558 C553 1.390 . S
C558 C557 1.387 1_565 S
H559 C571 0.930 . S
H560 C573 0.930 . S
H561 C574 0.930 . S
H562 C578 0.959 . S
H563 C578 0.959 . S
H564 C578 0.961 . S
H565 C579 0.960 . S
H566 C579 0.961 1_556 S
H567 C579 0.959 . S
H568 C582 0.929 1_554 S
H569 C583 0.931 . S
H570 C585 0.930 . S
C571 H559 0.930 . S
C571 C572 1.399 . S
C571 C576 1.399 . S
C572 C571 1.399 . S
C572 C573 1.376 . S
C573 H560 0.930 . S
C573 C572 1.376 . S
C573 C574 1.388 . S
C574 H561 0.930 . S
C574 C573 1.388 . S
C574 C575 1.390 . S
C575 C574 1.390 . S
C575 C576 1.394 . S
C575 C581 1.465 . S
C576 C571 1.399 . S
C576 C575 1.394 . S
C576 C577 1.516 . S
C577 C576 1.516 . S
C577 C578 1.502 1_554 S
C577 C579 1.561 . S
C577 C580 1.526 1_554 S
C578 H562 0.959 . S
C578 H563 0.959 . S
C578 H564 0.961 . S
C578 C577 1.502 1_556 S
C579 H565 0.960 . S
C579 H566 0.961 1_554 S
C579 H567 0.959 . S
C579 C577 1.561 . S
C580 C577 1.526 1_556 S
C580 C581 1.396 1_556 S
C580 C585 1.390 . S
C581 C575 1.465 . S
C581 C580 1.396 1_554 S
C581 C582 1.399 1_554 S
C582 H568 0.929 1_556 S
C582 C581 1.399 1_556 S
C582 C583 1.385 . S
C583 H569 0.931 . S
C583 C582 1.385 . S
C583 C584 1.389 . S
C584 C583 1.389 . S
C584 C585 1.387 . S
C585 H570 0.930 . S
C585 C580 1.390 . S
C585 C584 1.387 . S
H586 C598 0.930 . S
H587 C600 0.930 . S
H588 C601 0.930 . S
H589 C605 0.959 . S
H590 C605 0.959 . S
H591 C605 0.961 . S
H592 C606 0.960 . S
H593 C606 0.961 1_556 S
H594 C606 0.959 . S
H595 C609 0.929 1_554 S
H596 C610 0.931 . S
H597 C612 0.930 . S
C598 H586 0.930 . S
C598 C599 1.399 . S
C598 C603 1.399 . S
C599 C598 1.399 . S
C599 C600 1.376 . S
C600 H587 0.930 . S
C600 C599 1.376 . S
C600 C601 1.388 . S
C601 H588 0.930 . S
C601 C600 1.388 . S
C601 C602 1.390 . S
C602 C601 1.390 . S
C602 C603 1.394 . S
C602 C608 1.465 . S
C603 C598 1.399 . S
C603 C602 1.394 . S
C603 C604 1.516 . S
C604 C603 1.516 . S
C604 C605 1.502 1_554 S
C604 C606 1.561 . S
C604 C607 1.526 1_554 S
C605 H589 0.959 . S
C605 H590 0.959 . S
C605 H591 0.961 . S
C605 C604 1.502 1_556 S
C606 H592 0.960 . S
C606 H593 0.961 1_554 S
C606 H594 0.959 . S
C606 C604 1.561 . S
C607 C604 1.526 1_556 S
C607 C608 1.396 1_556 S
C607 C612 1.390 . S
C608 C602 1.465 . S
C608 C607 1.396 1_554 S
C608 C609 1.399 1_554 S
C609 H595 0.929 1_556 S
C609 C608 1.399 1_556 S
C609 C610 1.385 . S
C610 H596 0.931 . S
C610 C609 1.385 . S
C610 C611 1.389 . S
C611 C610 1.389 . S
C611 C612 1.387 . S
C612 H597 0.930 . S
C612 C607 1.390 . S
C612 C611 1.387 . S
H613 C625 0.930 . S
H614 C627 0.930 . S
H615 C628 0.922 1_456 S
H616 C632 0.959 1_455 S
H617 C632 0.959 . S
H618 C632 0.961 . S
H619 C633 0.960 . S
H620 C633 0.961 . S
H621 C633 0.959 . S
H622 C636 0.929 . S
H623 C637 0.931 . S
H624 C639 0.930 . S
C625 H613 0.930 . S
C625 C626 1.399 . S
C625 C630 1.399 . S
C626 C625 1.399 . S
C626 C627 1.376 . S
C627 H614 0.930 . S
C627 C626 1.376 . S
C627 C628 1.388 . S
C628 H615 0.922 1_654 S
C628 C627 1.388 . S
C628 C629 1.390 . S
C629 C628 1.390 . S
C629 C630 1.394 . S
C629 C635 1.465 1_554 S
C630 C625 1.399 . S
C630 C629 1.394 . S
C630 C631 1.516 . S
C631 C630 1.516 . S
C631 C632 1.502 . S
C631 C633 1.561 . S
C631 C634 1.526 1_554 S
C632 H616 0.959 1_655 S
C632 H617 0.959 . S
C632 H618 0.961 . S
C632 C631 1.502 . S
C633 H619 0.960 . S
C633 H620 0.961 . S
C633 H621 0.959 . S
C633 C631 1.561 . S
C634 C631 1.526 1_556 S
C634 C635 1.396 . S
C634 C639 1.390 . S
C635 C629 1.465 1_556 S
C635 C634 1.396 . S
C635 C636 1.399 1_655 S
C636 H622 0.929 . S
C636 C635 1.399 1_455 S
C636 C637 1.385 . S
C637 H623 0.931 . S
C637 C636 1.385 . S
C637 C638 1.386 1_455 S
C638 C637 1.386 1_655 S
C638 C639 1.391 . S
C639 H624 0.930 . S
C639 C634 1.390 . S
C639 C638 1.391 . S
H640 C652 0.930 . S
H641 C654 0.930 . S
H642 C655 0.930 1_655 S
H643 C659 0.959 . S
H644 C659 0.959 . S
H645 C659 0.961 . S
H646 C660 0.960 . S
H647 C660 0.961 . S
H648 C660 0.959 . S
H649 C663 0.929 . S
H650 C664 0.931 . S
H651 C666 0.930 . S
C652 H640 0.930 . S
C652 C653 1.399 . S
C652 C657 1.399 . S
C653 C652 1.399 . S
C653 C654 1.376 . S
C654 H641 0.930 . S
C654 C653 1.376 . S
C654 C655 1.388 . S
C655 H642 0.930 1_455 S
C655 C654 1.388 . S
C655 C656 1.390 . S
C656 C655 1.390 . S
C656 C657 1.394 . S
C656 C662 1.465 . S
C657 C652 1.399 . S
C657 C656 1.394 . S
C657 C658 1.516 . S
C658 C657 1.516 . S
C658 C659 1.502 . S
C658 C660 1.561 . S
C658 C661 1.526 . S
C659 H643 0.959 . S
C659 H644 0.959 . S
C659 H645 0.961 . S
C659 C658 1.502 . S
C660 H646 0.960 . S
C660 H647 0.961 . S
C660 H648 0.959 . S
C660 C658 1.561 . S
C661 C658 1.526 . S
C661 C662 1.396 . S
C661 C666 1.390 . S
C662 C656 1.465 . S
C662 C661 1.396 . S
C662 C663 1.399 1_455 S
C663 H649 0.929 . S
C663 C662 1.399 1_655 S
C663 C664 1.385 . S
C664 H650 0.931 . S
C664 C663 1.385 . S
C664 C665 1.389 1_655 S
C665 C664 1.389 1_455 S
C665 C666 1.387 . S
C666 H651 0.930 . S
C666 C661 1.390 . S
C666 C665 1.387 . S
H667 C679 0.930 . S
H668 C681 0.930 . S
H669 C682 0.930 1_565 S
H670 C686 0.959 . S
H671 C686 0.959 . S
H672 C686 0.961 . S
H673 C687 0.960 . S
H674 C687 0.961 . S
H675 C687 0.959 . S
H676 C690 0.929 . S
H677 C691 0.931 . S
H678 C693 0.930 . S
C679 H667 0.930 . S
C679 C680 1.399 . S
C679 C684 1.399 . S
C680 C679 1.399 . S
C680 C681 1.376 . S
C681 H668 0.930 . S
C681 C680 1.376 . S
C681 C682 1.388 . S
C682 H669 0.930 1_545 S
C682 C681 1.388 . S
C682 C683 1.390 . S
C683 C682 1.390 . S
C683 C684 1.394 . S
C683 C689 1.465 . S
C684 C679 1.399 . S
C684 C683 1.394 . S
C684 C685 1.516 . S
C685 C684 1.516 . S
C685 C686 1.502 . S
C685 C687 1.561 . S
C685 C688 1.526 . S
C686 H670 0.959 . S
C686 H671 0.959 . S
C686 H672 0.961 . S
C686 C685 1.502 . S
C687 H673 0.960 . S
C687 H674 0.961 . S
C687 H675 0.959 . S
C687 C685 1.561 . S
C688 C685 1.526 . S
C688 C689 1.396 . S
C688 C693 1.390 . S
C689 C683 1.465 . S
C689 C688 1.396 . S
C689 C690 1.399 1_545 S
C690 H676 0.929 . S
C690 C689 1.399 1_565 S
C690 C691 1.385 . S
C691 H677 0.931 . S
C691 C690 1.385 . S
C691 C692 1.389 1_565 S
C692 C691 1.389 1_545 S
C692 C693 1.387 . S
C693 H678 0.930 . S
C693 C688 1.390 . S
C693 C692 1.387 . S
H694 C706 0.930 . S
H695 C708 0.930 . S
H696 C709 0.930 . S
H697 C713 0.959 . S
H698 C713 0.959 . S
H699 C713 0.961 . S
H700 C714 0.960 . S
H701 C714 0.961 . S
H702 C714 0.959 . S
H703 C717 0.929 . S
H704 C718 0.931 . S
H705 C720 0.930 . S
C706 H694 0.930 . S
C706 C707 1.399 . S
C706 C711 1.399 . S
C707 C706 1.399 . S
C707 C708 1.376 . S
C708 H695 0.930 . S
C708 C707 1.376 . S
C708 C709 1.388 . S
C709 H696 0.930 . S
C709 C708 1.388 . S
C709 C710 1.390 . S
C710 C709 1.390 . S
C710 C711 1.394 . S
C710 C716 1.465 . S
C711 C706 1.399 . S
C711 C710 1.394 . S
C711 C712 1.516 . S
C712 C711 1.516 . S
C712 C713 1.502 . S
C712 C714 1.561 . S
C712 C715 1.526 . S
C713 H697 0.959 . S
C713 H698 0.959 . S
C713 H699 0.961 . S
C713 C712 1.502 . S
C714 H700 0.960 . S
C714 H701 0.961 . S
C714 H702 0.959 . S
C714 C712 1.561 . S
C715 C712 1.526 . S
C715 C716 1.396 . S
C715 C720 1.390 . S
C716 C710 1.465 . S
C716 C715 1.396 . S
C716 C717 1.399 . S
C717 H703 0.929 . S
C717 C716 1.399 . S
C717 C718 1.385 . S
C718 H704 0.931 . S
C718 C717 1.385 . S
C718 C719 1.389 . S
C719 C718 1.389 . S
C719 C720 1.387 . S
C720 H705 0.930 . S
C720 C715 1.390 . S
C720 C719 1.387 . S
H721 C733 0.930 . S
H722 C735 0.930 . S
H723 C736 0.930 . S
H724 C740 0.959 . S
H725 C740 0.959 . S
H726 C740 0.961 . S
H727 C741 0.960 . S
H728 C741 0.961 . S
H729 C741 0.959 . S
H730 C744 0.929 . S
H731 C745 0.931 . S
H732 C747 0.930 . S
C733 H721 0.930 . S
C733 C734 1.399 . S
C733 C738 1.399 . S
C734 C733 1.399 . S
C734 C735 1.376 . S
C735 H722 0.930 . S
C735 C734 1.376 . S
C735 C736 1.388 . S
C736 H723 0.930 . S
C736 C735 1.388 . S
C736 C737 1.390 . S
C737 C736 1.390 . S
C737 C738 1.394 . S
C737 C743 1.465 . S
C738 C733 1.399 . S
C738 C737 1.394 . S
C738 C739 1.516 . S
C739 C738 1.516 . S
C739 C740 1.502 . S
C739 C741 1.561 . S
C739 C742 1.526 . S
C740 H724 0.959 . S
C740 H725 0.959 . S
C740 H726 0.961 . S
C740 C739 1.502 . S
C741 H727 0.960 . S
C741 H728 0.961 . S
C741 H729 0.959 . S
C741 C739 1.561 . S
C742 C739 1.526 . S
C742 C743 1.396 . S
C742 C747 1.390 . S
C743 C737 1.465 . S
C743 C742 1.396 . S
C743 C744 1.399 . S
C744 H730 0.929 . S
C744 C743 1.399 . S
C744 C745 1.385 . S
C745 H731 0.931 . S
C745 C744 1.385 . S
C745 C746 1.389 . S
C746 C745 1.389 . S
C746 C747 1.387 . S
C747 H732 0.930 . S
C747 C742 1.390 . S
C747 C746 1.387 . S
H748 C760 0.930 . S
H749 C762 0.930 . S
H750 C763 0.930 . S
H751 C767 0.959 . S
H752 C767 0.959 1_556 S
H753 C767 0.961 . S
H754 C768 0.960 . S
H755 C768 0.961 . S
H756 C768 0.959 . S
H757 C771 0.929 . S
H758 C772 0.931 . S
H759 C774 0.930 . S
C760 H748 0.930 . S
C760 C761 1.399 . S
C760 C765 1.399 . S
C761 C760 1.399 . S
C761 C762 1.376 . S
C762 H749 0.930 . S
C762 C761 1.376 . S
C762 C763 1.388 . S
C763 H750 0.930 . S
C763 C762 1.388 . S
C763 C764 1.390 . S
C764 C763 1.390 . S
C764 C765 1.394 . S
C764 C770 1.465 . S
C765 C760 1.399 . S
C765 C764 1.394 . S
C765 C766 1.502 1_655 S
C766 C765 1.502 1_455 S
C766 C767 1.542 . S
C766 C768 1.529 1_454 S
C766 C769 1.529 . S
C767 H751 0.959 . S
C767 H752 0.959 1_554 S
C767 H753 0.961 . S
C767 C766 1.542 . S
C768 H754 0.960 . S
C768 H755 0.961 . S
C768 H756 0.959 . S
C768 C766 1.529 1_656 S
C769 C766 1.529 . S
C769 C770 1.396 1_455 S
C769 C774 1.390 1_554 S
C770 C764 1.465 . S
C770 C769 1.396 1_655 S
C770 C771 1.399 . S
C771 H757 0.929 . S
C771 C770 1.399 . S
C771 C772 1.385 1_655 S
C772 H758 0.931 . S
C772 C771 1.385 1_455 S
C772 C773 1.389 . S
C773 C772 1.389 . S
C773 C774 1.387 1_554 S
C774 H759 0.930 . S
C774 C769 1.390 1_556 S
C774 C773 1.387 1_556 S
H775 C787 0.930 1_545 S
H776 C789 0.930 . S
H777 C790 0.930 . S
H778 C794 0.959 . S
H779 C794 0.959 . S
H780 C794 0.961 . S
H781 C795 0.960 . S
H782 C795 0.961 . S
H783 C795 0.959 . S
H784 C798 0.929 . S
H785 C799 0.931 . S
H786 C801 0.930 . S
C787 H775 0.930 1_565 S
C787 C788 1.399 . S
C787 C792 1.396 1_565 S
C788 C787 1.399 . S
C788 C789 1.376 . S
C789 H776 0.930 . S
C789 C788 1.376 . S
C789 C790 1.388 . S
C790 H777 0.930 . S
C790 C789 1.388 . S
C790 C791 1.390 . S
C791 C790 1.390 . S
C791 C792 1.379 1_565 S
C791 C797 1.465 . S
C792 C787 1.396 1_545 S
C792 C791 1.379 1_545 S
C792 C793 1.534 . S
C793 C792 1.534 . S
C793 C794 1.502 . S
C793 C795 1.561 . S
C793 C796 1.526 . S
C794 H778 0.959 . S
C794 H779 0.959 . S
C794 H780 0.961 . S
C794 C793 1.502 . S
C795 H781 0.960 . S
C795 H782 0.961 . S
C795 H783 0.959 . S
C795 C793 1.561 . S
C796 C793 1.526 . S
C796 C797 1.396 1_545 S
C796 C801 1.390 . S
C797 C791 1.465 . S
C797 C796 1.396 1_565 S
C797 C798 1.399 1_554 S
C798 H784 0.929 . S
C798 C797 1.399 1_556 S
C798 C799 1.385 . S
C799 H785 0.931 . S
C799 C798 1.385 . S
C799 C800 1.389 1_566 S
C800 C799 1.389 1_544 S
C800 C801 1.387 . S
C801 H786 0.930 . S
C801 C796 1.390 . S
C801 C800 1.387 . S
H802 C814 0.930 . S
H803 C816 0.930 . S
H804 C817 0.930 . S
H805 C821 0.959 . S
H806 C821 0.959 . S
H807 C821 0.961 . S
H808 C822 0.960 . S
H809 C822 0.961 . S
H810 C822 0.959 . S
H811 C825 0.929 . S
H812 C826 0.931 . S
H813 C828 0.919 1_556 S
C814 H802 0.930 . S
C814 C815 1.399 . S
C814 C819 1.399 . S
C815 C814 1.399 . S
C815 C816 1.376 . S
C816 H803 0.930 . S
C816 C815 1.376 . S
C816 C817 1.388 . S
C817 H804 0.930 . S
C817 C816 1.388 . S
C817 C818 1.390 . S
C818 C817 1.390 . S
C818 C819 1.394 . S
C818 C824 1.465 . S
C819 C814 1.399 . S
C819 C818 1.394 . S
C819 C820 1.516 . S
C820 C819 1.516 . S
C820 C821 1.502 1_554 S
C820 C822 1.561 . S
C820 C823 1.526 . S
C821 H805 0.959 . S
C821 H806 0.959 . S
C821 H807 0.961 . S
C821 C820 1.502 1_556 S
C822 H808 0.960 . S
C822 H809 0.961 . S
C822 H810 0.959 . S
C822 C820 1.561 . S
C823 C820 1.526 . S
C823 C824 1.396 . S
C823 C828 1.399 . S
C824 C818 1.465 . S
C824 C823 1.396 . S
C824 C825 1.399 . S
C825 H811 0.929 . S
C825 C824 1.399 . S
C825 C826 1.385 . S
C826 H812 0.931 . S
C826 C825 1.385 . S
C826 C827 1.389 . S
C827 C826 1.389 . S
C827 C828 1.388 . S
C828 H813 0.919 1_554 S
C828 C823 1.399 . S
C828 C827 1.388 . S
H829 C841 0.930 . S
H830 C843 0.930 . S
H831 C844 0.930 . S
H832 C848 0.959 . S
H833 C848 0.959 . S
H834 C848 0.961 . S
H835 C849 0.960 . S
H836 C849 0.961 . S
H837 C849 0.959 1_556 S
H838 C852 0.929 . S
H839 C853 0.931 1_556 S
H840 C855 0.930 . S
C841 H829 0.930 . S
C841 C842 1.399 . S
C841 C846 1.399 . S
C842 C841 1.399 . S
C842 C843 1.376 . S
C843 H830 0.930 . S
C843 C842 1.376 . S
C843 C844 1.388 . S
C844 H831 0.930 . S
C844 C843 1.388 . S
C844 C845 1.390 . S
C845 C844 1.390 . S
C845 C846 1.394 . S
C845 C851 1.465 . S
C846 C841 1.399 . S
C846 C845 1.394 . S
C846 C847 1.516 . S
C847 C846 1.516 . S
C847 C848 1.502 . S
C847 C849 1.561 . S
C847 C850 1.526 . S
C848 H832 0.959 . S
C848 H833 0.959 . S
C848 H834 0.961 . S
C848 C847 1.502 . S
C849 H835 0.960 . S
C849 H836 0.961 . S
C849 H837 0.959 1_554 S
C849 C847 1.561 . S
C850 C847 1.526 . S
C850 C851 1.396 . S
C850 C855 1.390 . S
C851 C845 1.465 . S
C851 C850 1.396 . S
C851 C852 1.399 . S
C852 H838 0.929 . S
C852 C851 1.399 . S
C852 C853 1.385 . S
C853 H839 0.931 1_554 S
C853 C852 1.385 . S
C853 C854 1.389 . S
C854 C853 1.389 . S
C854 C855 1.387 . S
C855 H840 0.930 . S
C855 C850 1.390 . S
C855 C854 1.387 . S
H856 C868 0.930 . S
H857 C870 0.930 1_554 S
H858 C871 0.930 1_554 S
H859 C875 0.959 . S
H860 C875 0.959 . S
H861 C875 0.961 . S
H862 C876 0.960 . S
H863 C876 0.961 . S
H864 C876 0.959 . S
H865 C879 0.929 . S
H866 C880 0.931 . S
H867 C882 0.930 . S
C868 H856 0.930 . S
C868 C869 1.399 . S
C868 C873 1.399 . S
C869 C868 1.399 . S
C869 C870 1.376 . S
C870 H857 0.930 1_556 S
C870 C869 1.376 . S
C870 C871 1.388 . S
C871 H858 0.930 1_556 S
C871 C870 1.388 . S
C871 C872 1.390 . S
C872 C871 1.390 . S
C872 C873 1.394 . S
C872 C878 1.465 . S
C873 C868 1.399 . S
C873 C872 1.394 . S
C873 C874 1.516 . S
C874 C873 1.516 . S
C874 C875 1.502 . S
C874 C876 1.561 . S
C874 C877 1.526 . S
C875 H859 0.959 . S
C875 H860 0.959 . S
C875 H861 0.961 . S
C875 C874 1.502 . S
C876 H862 0.960 . S
C876 H863 0.961 . S
C876 H864 0.959 . S
C876 C874 1.561 . S
C877 C874 1.526 . S
C877 C878 1.396 . S
C877 C882 1.390 . S
C878 C872 1.465 . S
C878 C877 1.396 . S
C878 C879 1.399 . S
C879 H865 0.929 . S
C879 C878 1.399 . S
C879 C880 1.385 . S
C880 H866 0.931 . S
C880 C879 1.385 . S
C880 C881 1.389 . S
C881 C880 1.389 . S
C881 C882 1.387 . S
C882 H867 0.930 . S
C882 C877 1.390 . S
C882 C881 1.387 . S
H883 C895 0.930 . S
H884 C897 0.930 . S
H885 C898 0.930 1_565 S
H886 C902 0.959 . S
H887 C902 0.959 . S
H888 C902 0.961 . S
H889 C903 0.960 . S
H890 C903 0.961 . S
H891 C903 0.959 . S
H892 C906 0.929 . S
H893 C907 0.898 1_565 S
H894 C909 0.930 . S
C895 H883 0.930 . S
C895 C896 1.399 . S
C895 C900 1.399 . S
C896 C895 1.399 . S
C896 C897 1.376 . S
C897 H884 0.930 . S
C897 C896 1.376 . S
C897 C898 1.388 . S
C898 H885 0.930 1_545 S
C898 C897 1.388 . S
C898 C899 1.390 . S
C899 C898 1.390 . S
C899 C900 1.394 . S
C899 C905 1.465 . S
C900 C895 1.399 . S
C900 C899 1.394 . S
C900 C901 1.516 . S
C901 C900 1.516 . S
C901 C902 1.502 . S
C901 C903 1.561 . S
C901 C904 1.526 . S
C902 H886 0.959 . S
C902 H887 0.959 . S
C902 H888 0.961 . S
C902 C901 1.502 . S
C903 H889 0.960 . S
C903 H890 0.961 . S
C903 H891 0.959 . S
C903 C901 1.561 . S
C904 C901 1.526 . S
C904 C905 1.396 . S
C904 C909 1.390 . S
C905 C899 1.465 . S
C905 C904 1.396 . S
C905 C906 1.399 1_545 S
C906 H892 0.929 . S
C906 C905 1.399 1_565 S
C906 C907 1.383 1_565 S
C907 H893 0.898 1_545 S
C907 C906 1.383 1_545 S
C907 C908 1.425 . S
C908 C907 1.425 . S
C908 C909 1.387 . S
C909 H894 0.930 . S
C909 C904 1.390 . S
C909 C908 1.387 . S
H910 C922 0.930 . S
H911 C924 0.930 . S
H912 C925 0.930 . S
H913 C929 0.959 . S
H914 C929 0.959 1_554 S
H915 C929 0.961 1_554 S
H916 C930 0.960 1_554 S
H917 C930 0.961 1_554 S
H918 C930 0.959 . S
H919 C933 0.929 . S
H920 C934 0.931 . S
H921 C936 0.930 . S
C922 H910 0.930 . S
C922 C923 1.399 . S
C922 C927 1.399 . S
C923 C922 1.399 . S
C923 C924 1.376 . S
C924 H911 0.930 . S
C924 C923 1.376 . S
C924 C925 1.388 . S
C925 H912 0.930 . S
C925 C924 1.388 . S
C925 C926 1.390 . S
C926 C925 1.390 . S
C926 C927 1.394 . S
C926 C932 1.465 . S
C927 C922 1.399 . S
C927 C926 1.394 . S
C927 C928 1.516 . S
C928 C927 1.516 . S
C928 C929 1.502 . S
C928 C930 1.561 . S
C928 C931 1.526 . S
C929 H913 0.959 . S
C929 H914 0.959 1_556 S
C929 H915 0.961 1_556 S
C929 C928 1.502 . S
C930 H916 0.960 1_556 S
C930 H917 0.961 1_556 S
C930 H918 0.959 . S
C930 C928 1.561 . S
C931 C928 1.526 . S
C931 C932 1.396 . S
C931 C936 1.390 . S
C932 C926 1.465 . S
C932 C931 1.396 . S
C932 C933 1.399 . S
C933 H919 0.929 . S
C933 C932 1.399 . S
C933 C934 1.385 . S
C934 H920 0.931 . S
C934 C933 1.385 . S
C934 C935 1.389 . S
C935 C934 1.389 . S
C935 C936 1.387 . S
C936 H921 0.930 . S
C936 C931 1.390 . S
C936 C935 1.387 . S
H937 C949 0.930 . S
H938 C951 0.930 . S
H939 C952 0.930 . S
H940 C956 0.959 . S
H941 C956 0.959 . S
H942 C956 0.961 . S
H943 C957 0.960 . S
H944 C957 0.961 . S
H945 C957 0.959 . S
H946 C960 0.929 . S
H947 C961 0.931 . S
H948 C963 0.930 . S
C949 H937 0.930 . S
C949 C950 1.399 . S
C949 C954 1.399 . S
C950 C949 1.399 . S
C950 C951 1.376 . S
C951 H938 0.930 . S
C951 C950 1.376 . S
C951 C952 1.388 . S
C952 H939 0.930 . S
C952 C951 1.388 . S
C952 C953 1.390 . S
C953 C952 1.390 . S
C953 C954 1.394 . S
C953 C959 1.465 . S
C954 C949 1.399 . S
C954 C953 1.394 . S
C954 C955 1.516 . S
C955 C954 1.516 . S
C955 C956 1.502 . S
C955 C957 1.561 . S
C955 C958 1.526 . S
C956 H940 0.959 . S
C956 H941 0.959 . S
C956 H942 0.961 . S
C956 C955 1.502 . S
C957 H943 0.960 . S
C957 H944 0.961 . S
C957 H945 0.959 . S
C957 C955 1.561 . S
C958 C955 1.526 . S
C958 C959 1.396 . S
C958 C963 1.390 . S
C959 C953 1.465 . S
C959 C958 1.396 . S
C959 C960 1.399 . S
C960 H946 0.929 . S
C960 C959 1.399 . S
C960 C961 1.385 . S
C961 H947 0.931 . S
C961 C960 1.385 . S
C961 C962 1.389 . S
C962 C961 1.389 . S
C962 C963 1.387 . S
C963 H948 0.930 . S
C963 C958 1.390 . S
C963 C962 1.387 . S
H964 C976 0.930 . S
H965 C978 0.930 . S
H966 C979 0.930 . S
H967 C983 0.959 . S
H968 C983 0.959 . S
H969 C983 0.961 . S
H970 C984 0.960 . S
H971 C984 0.961 . S
H972 C984 0.959 . S
H973 C987 0.929 . S
H974 C988 0.931 . S
H975 C990 0.930 . S
C976 H964 0.930 . S
C976 C977 1.399 . S
C976 C981 1.399 . S
C977 C976 1.399 . S
C977 C978 1.376 1_655 S
C978 H965 0.930 . S
C978 C977 1.376 1_455 S
C978 C979 1.388 . S
C979 H966 0.930 . S
C979 C978 1.388 . S
C979 C980 1.390 1_455 S
C980 C979 1.390 1_655 S
C980 C981 1.394 . S
C980 C986 1.465 1_655 S
C981 C976 1.399 . S
C981 C980 1.394 . S
C981 C982 1.516 . S
C982 C981 1.516 . S
C982 C983 1.502 . S
C982 C984 1.561 . S
C982 C985 1.526 . S
C983 H967 0.959 . S
C983 H968 0.959 . S
C983 H969 0.961 . S
C983 C982 1.502 . S
C984 H970 0.960 . S
C984 H971 0.961 . S
C984 H972 0.959 . S
C984 C982 1.561 . S
C985 C982 1.526 . S
C985 C986 1.399 1_655 S
C985 C990 1.390 . S
C986 C980 1.465 1_455 S
C986 C985 1.399 1_455 S
C986 C987 1.396 . S
C987 H973 0.929 . S
C987 C986 1.396 . S
C987 C988 1.385 . S
C988 H974 0.931 . S
C988 C987 1.385 . S
C988 C989 1.389 1_455 S
C989 C988 1.389 1_655 S
C989 C990 1.387 . S
C990 H975 0.930 . S
C990 C985 1.390 . S
C990 C989 1.387 . S
H991 C1003 0.930 . S
H992 C1005 0.930 . S
H993 C1006 0.930 . S
H994 C1010 0.959 . S
H995 C1010 0.959 . S
H996 C1010 0.961 . S
H997 C1011 0.960 . S
H998 C1011 0.961 . S
H999 C1011 0.959 . S
H1000 C1014 0.929 . S
H1001 C1015 0.931 . S
H1002 C1017 0.930 . S
C1003 H991 0.930 . S
C1003 C1004 1.399 . S
C1003 C1008 1.399 . S
C1004 C1003 1.399 . S
C1004 C1005 1.376 1_565 S
C1005 H992 0.930 . S
C1005 C1004 1.376 1_545 S
C1005 C1006 1.388 . S
C1006 H993 0.930 . S
C1006 C1005 1.388 . S
C1006 C1007 1.395 . S
C1007 C1006 1.395 . S
C1007 C1008 1.387 1_545 S
C1007 C1013 1.466 . S
C1008 C1003 1.399 . S
C1008 C1007 1.387 1_565 S
C1008 C1009 1.516 . S
C1009 C1008 1.516 . S
C1009 C1010 1.502 . S
C1009 C1011 1.561 . S
C1009 C1012 1.526 . S
C1010 H994 0.959 . S
C1010 H995 0.959 . S
C1010 H996 0.961 . S
C1010 C1009 1.502 . S
C1011 H997 0.960 . S
C1011 H998 0.961 . S
C1011 H999 0.959 . S
C1011 C1009 1.561 . S
C1012 C1009 1.526 . S
C1012 C1013 1.396 1_565 S
C1012 C1017 1.390 . S
C1013 C1007 1.466 . S
C1013 C1012 1.396 1_545 S
C1013 C1014 1.399 . S
C1014 H1000 0.929 . S
C1014 C1013 1.399 . S
C1014 C1015 1.385 . S
C1015 H1001 0.931 . S
C1015 C1014 1.385 . S
C1015 C1016 1.389 1_545 S
C1016 C1015 1.389 1_565 S
C1016 C1017 1.387 . S
C1017 H1002 0.930 . S
C1017 C1012 1.390 . S
C1017 C1016 1.387 . S
H1018 C1030 0.930 . S
H1019 C1032 0.930 . S
H1020 C1033 0.930 . S
H1021 C1037 0.959 . S
H1022 C1037 0.959 . S
H1023 C1037 0.961 . S
H1024 C1038 0.960 . S
H1025 C1038 0.961 . S
H1026 C1038 0.959 . S
H1027 C1041 0.929 . S
H1028 C1042 0.931 . S
H1029 C1044 0.930 . S
C1030 H1018 0.930 . S
C1030 C1031 1.399 . S
C1030 C1035 1.399 . S
C1031 C1030 1.399 . S
C1031 C1032 1.376 . S
C1032 H1019 0.930 . S
C1032 C1031 1.376 . S
C1032 C1033 1.388 . S
C1033 H1020 0.930 . S
C1033 C1032 1.388 . S
C1033 C1034 1.390 . S
C1034 C1033 1.390 . S
C1034 C1035 1.394 . S
C1034 C1040 1.465 . S
C1035 C1030 1.399 . S
C1035 C1034 1.394 . S
C1035 C1036 1.516 . S
C1036 C1035 1.516 . S
C1036 C1037 1.502 . S
C1036 C1038 1.561 . S
C1036 C1039 1.526 . S
C1037 H1021 0.959 . S
C1037 H1022 0.959 . S
C1037 H1023 0.961 . S
C1037 C1036 1.502 . S
C1038 H1024 0.960 . S
C1038 H1025 0.961 . S
C1038 H1026 0.959 . S
C1038 C1036 1.561 . S
C1039 C1036 1.526 . S
C1039 C1040 1.396 . S
C1039 C1044 1.390 . S
C1040 C1034 1.465 . S
C1040 C1039 1.396 . S
C1040 C1041 1.399 . S
C1041 H1027 0.929 . S
C1041 C1040 1.399 . S
C1041 C1042 1.385 . S
C1042 H1028 0.931 . S
C1042 C1041 1.385 . S
C1042 C1043 1.389 . S
C1043 C1042 1.389 . S
C1043 C1044 1.387 . S
C1044 H1029 0.930 . S
C1044 C1039 1.390 . S
C1044 C1043 1.387 . S
H1045 C1057 0.930 . S
H1046 C1059 0.930 . S
H1047 C1060 0.930 . S
H1048 C1064 0.959 . S
H1049 C1064 0.959 . S
H1050 C1064 0.961 . S
H1051 C1065 0.960 . S
H1052 C1065 0.961 . S
H1053 C1065 0.959 . S
H1054 C1068 0.929 . S
H1055 C1069 0.931 . S
H1056 C1071 0.930 . S
C1057 H1045 0.930 . S
C1057 C1058 1.399 . S
C1057 C1062 1.399 . S
C1058 C1057 1.399 . S
C1058 C1059 1.376 . S
C1059 H1046 0.930 . S
C1059 C1058 1.376 . S
C1059 C1060 1.388 . S
C1060 H1047 0.930 . S
C1060 C1059 1.388 . S
C1060 C1061 1.390 . S
C1061 C1060 1.390 . S
C1061 C1062 1.394 . S
C1061 C1067 1.465 . S
C1062 C1057 1.399 . S
C1062 C1061 1.394 . S
C1062 C1063 1.516 . S
C1063 C1062 1.516 . S
C1063 C1064 1.502 . S
C1063 C1065 1.561 . S
C1063 C1066 1.526 . S
C1064 H1048 0.959 . S
C1064 H1049 0.959 . S
C1064 H1050 0.961 . S
C1064 C1063 1.502 . S
C1065 H1051 0.960 . S
C1065 H1052 0.961 . S
C1065 H1053 0.959 . S
C1065 C1063 1.561 . S
C1066 C1063 1.526 . S
C1066 C1067 1.396 . S
C1066 C1071 1.390 . S
C1067 C1061 1.465 . S
C1067 C1066 1.396 . S
C1067 C1068 1.399 . S
C1068 H1054 0.929 . S
C1068 C1067 1.399 . S
C1068 C1069 1.385 . S
C1069 H1055 0.931 . S
C1069 C1068 1.385 . S
C1069 C1070 1.389 . S
C1070 C1069 1.389 . S
C1070 C1071 1.387 . S
C1071 H1056 0.930 . S
C1071 C1066 1.390 . S
C1071 C1070 1.387 . S
C437 C76 1.882 . S
C449 C156 1.993 . S
C476 C239 2.033 . S
C464 C87 1.845 . S
C503 C324 2.020 . S
C491 C54 1.851 . S
C530 C408 1.988 . S
C518 C65 1.836 . S
C557 C144 1.999 . S
C545 C32 1.856 . S
C572 C43 1.930 . S
C584 C227 2.010 . S
C599 C10 1.917 . S
C611 C312 2.007 . S
C626 C21 1.829 . S
C638 C396 1.993 1_655 S
C665 C146 0.598 1_455 S
C653 C60 0.528 . S
C692 C242 0.572 . S
C680 C71 0.539 . S
C719 C314 0.559 . S
C707 C82 0.550 . S
C734 C49 0.576 . S
C746 C398 0.501 . S
C761 C16 0.586 . S
C773 C158 0.700 1_554 S
C800 C230 0.702 . S
C788 C27 0.659 . S
C827 C326 0.593 1_554 S
C815 C38 0.521 . S
C842 C5 0.651 . S
C854 C410 0.704 1_554 S
C869 C59 1.870 . S
C881 C143 2.120 . S
C896 C70 1.878 . S
C908 C228 2.107 . S
C935 C311 2.112 . S
C923 C81 1.970 . S
C962 C395 2.141 . S
C950 C48 1.895 . S
C977 C15 1.886 . S
C989 C155 2.116 . S
C1016 C240 2.110 1_565 S
C1004 C26 1.925 . S
C1043 C323 2.138 . S
C1031 C37 1.883 . S
C1058 C4 1.905 . S
C1070 C407 2.141 . S
