# Generated by pormake.
# Topology pyr, (3,6)-cn, num edge types: 1
# Building blocks:
#     Node 0, Type 0, BuildingBlock: BETDAH_clean_linker_0, # of connection points: 3
#     Node 1, Type 0, BuildingBlock: BETDAH_clean_linker_0, # of connection points: 3
#     Node 2, Type 0, BuildingBlock: BETDAH_clean_linker_0, # of connection points: 3
#     Node 3, Type 0, BuildingBlock: BETDAH_clean_linker_0, # of connection points: 3
#     Node 4, Type 0, BuildingBlock: BETDAH_clean_linker_0, # of connection points: 3
#     Node 5, Type 0, BuildingBlock: BETDAH_clean_linker_0, # of connection points: 3
#     Node 6, Type 0, BuildingBlock: BETDAH_clean_linker_0, # of connection points: 3
#     Node 7, Type 0, BuildingBlock: BETDAH_clean_linker_0, # of connection points: 3
#     Node 8, Type 1, BuildingBlock: VOLQOD_clean_sbu_1, # of connection points: 6
#     Node 9, Type 1, BuildingBlock: VOLQOD_clean_sbu_1, # of connection points: 6
#     Node 10, Type 1, BuildingBlock: VOLQOD_clean_sbu_1, # of connection points: 6
#     Node 11, Type 1, BuildingBlock: VOLQOD_clean_sbu_1, # of connection points: 6
#     Edge 12, Type (0, 1), BuildingBlock: TEMPAE_clean_linker_10, # of connection points: 2
#     Edge 13, Type (0, 1), BuildingBlock: TEMPAE_clean_linker_10, # of connection points: 2
#     Edge 14, Type (0, 1), BuildingBlock: TEMPAE_clean_linker_10, # of connection points: 2
#     Edge 15, Type (0, 1), BuildingBlock: TEMPAE_clean_linker_10, # of connection points: 2
#     Edge 16, Type (0, 1), BuildingBlock: TEMPAE_clean_linker_10, # of connection points: 2
#     Edge 17, Type (0, 1), BuildingBlock: TEMPAE_clean_linker_10, # of connection points: 2
#     Edge 18, Type (0, 1), BuildingBlock: TEMPAE_clean_linker_10, # of connection points: 2
#     Edge 19, Type (0, 1), BuildingBlock: TEMPAE_clean_linker_10, # of connection points: 2
#     Edge 20, Type (0, 1), BuildingBlock: TEMPAE_clean_linker_10, # of connection points: 2
#     Edge 21, Type (0, 1), BuildingBlock: TEMPAE_clean_linker_10, # of connection points: 2
#     Edge 22, Type (0, 1), BuildingBlock: TEMPAE_clean_linker_10, # of connection points: 2
#     Edge 23, Type (0, 1), BuildingBlock: TEMPAE_clean_linker_10, # of connection points: 2
#     Edge 24, Type (0, 1), BuildingBlock: TEMPAE_clean_linker_10, # of connection points: 2
#     Edge 25, Type (0, 1), BuildingBlock: TEMPAE_clean_linker_10, # of connection points: 2
#     Edge 26, Type (0, 1), BuildingBlock: TEMPAE_clean_linker_10, # of connection points: 2
#     Edge 27, Type (0, 1), BuildingBlock: TEMPAE_clean_linker_10, # of connection points: 2
#     Edge 28, Type (0, 1), BuildingBlock: TEMPAE_clean_linker_10, # of connection points: 2
#     Edge 29, Type (0, 1), BuildingBlock: TEMPAE_clean_linker_10, # of connection points: 2
#     Edge 30, Type (0, 1), BuildingBlock: TEMPAE_clean_linker_10, # of connection points: 2
#     Edge 31, Type (0, 1), BuildingBlock: TEMPAE_clean_linker_10, # of connection points: 2
#     Edge 32, Type (0, 1), BuildingBlock: TEMPAE_clean_linker_10, # of connection points: 2
#     Edge 33, Type (0, 1), BuildingBlock: TEMPAE_clean_linker_10, # of connection points: 2
#     Edge 34, Type (0, 1), BuildingBlock: TEMPAE_clean_linker_10, # of connection points: 2
#     Edge 35, Type (0, 1), BuildingBlock: TEMPAE_clean_linker_10, # of connection points: 2
# Relax obj value: 0.105
# Max RMSD: 0.189
# Mean RMSD: 0.148
data_MOF--net-pry--node1-VOLQOD_clean_sbu_1--node2-BETDAH_clean_linker_0--edge1-TEMPAE_clean_linker_10
_symmetry_space_group_name_H-M    P1
_symmetry_Int_Tables_number       1
_symmetry_cell_setting            triclinic
loop_
_symmetry_equiv_pos_as_xyz
'x, y, z'
_cell_length_a     36.397856
_cell_length_b     37.010249
_cell_length_c     38.626397
_cell_angle_alpha  90.59351
_cell_angle_beta   90.819413
_cell_angle_gamma 96.87813
loop_
_atom_site_label
_atom_site_type_symbol
_atom_site_fract_x
_atom_site_fract_y
_atom_site_fract_z
_atom_type_partial_charge
H0 H 0.18009 0.12166 0.20572 0.0
H1 H 0.15979 0.15301 0.10153 0.0
H2 H 0.08741 0.18071 0.18183 0.0
C3 C 0.16411 0.13598 0.18772 0.0
C4 C 0.13247 0.15118 0.19885 0.0
C5 C 0.17447 0.13708 0.15294 0.0
C6 C 0.15252 0.1528 0.12866 0.0
C7 C 0.12165 0.16909 0.13903 0.0
C8 C 0.11178 0.16867 0.17417 0.0
N9 N 0.09923 0.18241 0.1129 0.0
C10 C 0.08479 0.21552 0.11426 0.0
H11 H 0.44472 0.86604 0.72548 0.0
H12 H 0.41384 0.97263 0.70484 0.0
H13 H 0.42211 0.89772 0.62087 0.0
C14 C 0.43608 0.88567 0.70737 0.0
C15 C 0.43411 0.8773 0.67167 0.0
C16 C 0.42904 0.92009 0.71963 0.0
C17 C 0.41915 0.94591 0.69589 0.0
C18 C 0.41635 0.9376 0.66048 0.0
C19 C 0.42398 0.90356 0.64844 0.0
N20 N 0.4086 0.96451 0.63664 0.0
C21 C 0.37254 0.96861 0.62675 0.0
H22 H 0.63288 0.37729 0.96944 0.0
H23 H 0.60362 0.48019 0.93408 0.0
H24 H 0.51891 0.39065 0.94888 0.0
C25 C 0.61217 0.39417 0.96096 0.0
C26 C 0.57484 0.37949 0.95968 0.0
C27 C 0.62288 0.43059 0.95231 0.0
C28 C 0.59574 0.45224 0.94163 0.0
C29 C 0.55826 0.4378 0.94054 0.0
C30 C 0.54784 0.40176 0.95029 0.0
N31 N 0.53095 0.45874 0.92815 0.0
C32 C 0.53334 0.47289 0.89506 0.0
H33 H 0.86656 0.68526 0.46407 0.0
H34 H 0.94567 0.65571 0.39015 0.0
H35 H 0.86184 0.57468 0.42793 0.0
C36 C 0.87726 0.66508 0.44772 0.0
C37 C 0.85992 0.62919 0.44783 0.0
C38 C 0.9082 0.67512 0.42705 0.0
C39 C 0.92209 0.64838 0.40653 0.0
C40 C 0.90559 0.61202 0.40731 0.0
C41 C 0.875 0.60255 0.42831 0.0
N42 N 0.91885 0.58445 0.38691 0.0
C43 C 0.93269 0.59063 0.35391 0.0
H44 H 0.93845 0.87756 0.85326 0.0
H45 H 0.89812 0.91007 0.95199 0.0
H46 H 0.90646 0.98477 0.86753 0.0
C47 C 0.9277 0.89765 0.86968 0.0
C48 C 0.9231 0.93188 0.85606 0.0
C49 C 0.91941 0.88948 0.90447 0.0
C50 C 0.90441 0.91556 0.92508 0.0
C51 C 0.8997 0.94984 0.91161 0.0
C52 C 0.9098 0.95808 0.87752 0.0
N53 N 0.88748 0.97738 0.93272 0.0
C54 C 0.85328 0.97337 0.94866 0.0
H55 H 0.67585 0.09435 0.38142 0.0
H56 H 0.67015 0.1382 0.48393 0.0
H57 H 0.5904 0.16157 0.40703 0.0
C58 C 0.66254 0.11092 0.39955 0.0
C59 C 0.63127 0.12757 0.38928 0.0
C60 C 0.67731 0.11562 0.43319 0.0
C61 C 0.65945 0.13526 0.45758 0.0
C62 C 0.62807 0.15152 0.44834 0.0
C63 C 0.61439 0.14839 0.41404 0.0
N64 N 0.60999 0.16918 0.47474 0.0
C65 C 0.59389 0.20103 0.47034 0.0
H66 H 0.35318 0.67948 0.10367 0.0
H67 H 0.35812 0.56686 0.12675 0.0
H68 H 0.43612 0.64915 0.17478 0.0
C69 C 0.3661 0.65878 0.11733 0.0
C70 C 0.39673 0.66899 0.1394 0.0
C71 C 0.3515 0.62219 0.11305 0.0
C72 C 0.36878 0.59534 0.13005 0.0
C73 C 0.39888 0.60496 0.15251 0.0
C74 C 0.41279 0.6418 0.15734 0.0
N75 N 0.41439 0.57701 0.17024 0.0
C76 C 0.42554 0.5806 0.20471 0.0
H77 H 0.13729 0.38237 0.59435 0.0
H78 H 0.1142 0.49253 0.61171 0.0
H79 H 0.02714 0.40391 0.61944 0.0
C80 C 0.11797 0.4016 0.60038 0.0
C81 C 0.08085 0.38872 0.60657 0.0
C82 C 0.13033 0.43899 0.60188 0.0
C83 C 0.10515 0.46356 0.61019 0.0
C84 C 0.06808 0.45086 0.61651 0.0
C85 C 0.05584 0.41355 0.61437 0.0
N86 N 0.04336 0.47561 0.62625 0.0
C87 C 0.03828 0.48249 0.66107 0.0
O88 O 0.00481 0.10139 0.56113 0.0
Zn89 Zn 0.98635 0.04887 0.55031 0.0
O90 O 0.02162 0.02681 0.52128 0.0
Zn91 Zn 0.99871 0.01245 0.47608 0.0
Zn92 Zn 0.06573 0.06158 0.51376 0.0
Zn93 Zn 0.03553 0.9841 0.54527 0.0
O94 O 0.99659 0.95829 0.46845 0.0
O95 O 0.01909 0.93847 0.51763 0.0
O96 O 0.93711 0.04767 0.5259 0.0
O97 O 0.94624 0.02554 0.47341 0.0
O98 O 0.02671 0.03766 0.43655 0.0
O99 O 0.07176 0.074 0.46301 0.0
O100 O 0.11226 0.04212 0.53183 0.0
O101 O 0.97784 0.02324 0.59585 0.0
O102 O 0.09064 0.98795 0.55221 0.0
O103 O 0.01317 0.97855 0.59287 0.0
C104 C 0.03489 0.12129 0.55465 0.0
C105 C 0.00493 0.93245 0.48745 0.0
C106 C 0.05449 0.06203 0.43554 0.0
C107 C 0.92545 0.03852 0.49545 0.0
C108 C 0.11756 0.01226 0.54626 0.0
C109 C 0.99063 0.99597 0.60926 0.0
O110 O 0.06052 0.10902 0.53764 0.0
O111 O 0.49551 0.09686 0.0177 0.0
Zn112 Zn 0.4733 0.04609 0.02898 0.0
O113 O 0.50619 0.02301 0.06026 0.0
Zn114 Zn 0.52023 0.97959 0.03727 0.0
Zn115 Zn 0.55085 0.05667 0.07108 0.0
Zn116 Zn 0.48035 0.00934 0.10334 0.0
O117 O 0.50169 0.93458 0.0634 0.0
O118 O 0.47514 0.9551 0.10996 0.0
O119 O 0.46363 0.01827 0.98362 0.0
O120 O 0.49913 0.97384 0.98875 0.0
O121 O 0.57552 0.98193 0.03338 0.0
O122 O 0.59724 0.03632 0.05479 0.0
O123 O 0.5558 0.06744 0.1225 0.0
O124 O 0.42486 0.05144 0.05177 0.0
O125 O 0.50843 0.03231 0.14498 0.0
O126 O 0.42919 0.02602 0.1033 0.0
C127 C 0.52491 0.11666 0.0275 0.0
C128 C 0.48479 0.92899 0.09184 0.0
C129 C 0.60254 0.00609 0.04069 0.0
C130 C 0.47677 0.99058 0.97116 0.0
C131 C 0.53722 0.05531 0.14849 0.0
C132 C 0.41125 0.04257 0.08111 0.0
O133 O 0.54825 0.10465 0.04795 0.0
O134 O 0.53784 0.54817 0.62701 0.0
Zn135 Zn 0.53639 0.57051 0.57971 0.0
O136 O 0.50176 0.53981 0.54897 0.0
Zn137 Zn 0.52779 0.52481 0.50882 0.0
Zn138 Zn 0.48082 0.49582 0.57306 0.0
Zn139 Zn 0.46239 0.56775 0.53312 0.0
O140 O 0.50821 0.54372 0.46498 0.0
O141 O 0.46261 0.57454 0.48111 0.0
O142 O 0.58863 0.57651 0.56076 0.0
O143 O 0.58116 0.54377 0.51218 0.0
O144 O 0.52489 0.47062 0.50403 0.0
O145 O 0.49486 0.44951 0.55052 0.0
O146 O 0.4251 0.49271 0.57347 0.0
O147 O 0.51927 0.62017 0.58722 0.0
O148 O 0.41265 0.54213 0.54562 0.0
O149 O 0.46713 0.61719 0.55625 0.0
C150 C 0.52112 0.51962 0.64047 0.0
C151 C 0.48266 0.56308 0.45758 0.0
C152 C 0.51179 0.44412 0.52261 0.0
C153 C 0.60176 0.56367 0.53343 0.0
C154 C 0.40197 0.51295 0.56167 0.0
C155 C 0.49091 0.6344 0.57681 0.0
O156 O 0.49858 0.49749 0.62276 0.0
O157 O 0.96071 0.5397 0.08615 0.0
Zn158 Zn 0.96182 0.51614 0.0391 0.0
O159 O 0.99275 0.54794 0.00801 0.0
Zn160 Zn 0.96291 0.56168 0.96925 0.0
Zn161 Zn 0.01381 0.59268 0.03263 0.0
Zn162 Zn 0.03188 0.52113 0.9901 0.0
O163 O 0.98225 0.54607 0.92398 0.0
O164 O 0.02881 0.51519 0.93788 0.0
O165 O 0.90918 0.50606 0.02066 0.0
O166 O 0.91076 0.53835 0.97249 0.0
O167 O 0.96134 0.61556 0.96746 0.0
O168 O 0.99694 0.63828 0.01138 0.0
O169 O 0.06963 0.59691 0.03209 0.0
O170 O 0.98241 0.46818 0.04652 0.0
O171 O 0.08148 0.54807 0.00226 0.0
O172 O 0.03092 0.47162 0.01211 0.0
C173 C 0.97688 0.56881 0.10007 0.0
C174 C 0.0079 0.52748 0.91522 0.0
C175 C 0.97585 0.64266 0.98548 0.0
C176 C 0.89317 0.51711 0.99386 0.0
C177 C 0.09251 0.57723 0.01905 0.0
C178 C 0.01007 0.4545 0.03428 0.0
O179 O 0.99841 0.59131 0.08276 0.0
C180 C 0.1463 0.14384 0.26237 0.0
C181 C 0.12013 0.14578 0.23549 0.0
C182 C 0.13555 0.13215 0.29557 0.0
C183 C 0.0975 0.12389 0.30284 0.0
C184 C 0.07077 0.12866 0.2768 0.0
C185 C 0.08236 0.13892 0.24333 0.0
C186 C 0.16506 0.12676 0.32229 0.0
C187 C 0.02988 0.12154 0.28387 0.0
C188 C 0.069 0.05513 0.37305 0.0
C189 C 0.06592 0.07778 0.40184 0.0
C190 C 0.07973 0.06981 0.34082 0.0
C191 C 0.08592 0.10812 0.33697 0.0
C192 C 0.08189 0.1311 0.36588 0.0
C193 C 0.07269 0.11562 0.39818 0.0
C194 C 0.08499 0.04429 0.31102 0.0
C195 C 0.0867 0.172 0.36258 0.0
H196 H 0.17551 0.15029 0.25722 0.0
H197 H 0.0617 0.14004 0.22304 0.0
H198 H 0.16102 0.14252 0.34621 0.0
H199 H 0.16285 0.09762 0.32947 0.0
H200 H 0.19343 0.13512 0.31278 0.0
H201 H 0.01285 0.13147 0.2627 0.0
H202 H 0.02172 0.09188 0.28667 0.0
H203 H 0.02338 0.1349 0.30852 0.0
H204 H 0.06381 0.02587 0.37598 0.0
H205 H 0.06976 0.13311 0.42041 0.0
H206 H 0.11341 0.05029 0.30084 0.0
H207 H 0.06542 0.04842 0.28958 0.0
H208 H 0.08057 0.01526 0.31867 0.0
H209 H 0.11535 0.1817 0.35478 0.0
H210 H 0.08092 0.18599 0.38714 0.0
H211 H 0.06785 0.18013 0.342 0.0
C212 C 0.45523 0.96231 0.76716 0.0
C213 C 0.43385 0.9298 0.75696 0.0
C214 C 0.46091 0.97165 0.8023 0.0
C215 C 0.44438 0.94816 0.82791 0.0
C216 C 0.42228 0.91553 0.81774 0.0
C217 C 0.41756 0.90656 0.78236 0.0
C218 C 0.48518 0.00638 0.81202 0.0
C219 C 0.40373 0.89007 0.84424 0.0
C220 C 0.48896 0.95535 0.91769 0.0
C221 C 0.46713 0.97834 0.93507 0.0
C222 C 0.48156 0.94498 0.88299 0.0
C223 C 0.45121 0.95738 0.86529 0.0
C224 C 0.42844 0.97977 0.88293 0.0
C225 C 0.43686 0.99025 0.91751 0.0
C226 C 0.50685 0.92153 0.86499 0.0
C227 C 0.39547 0.99305 0.86512 0.0
H228 H 0.46821 0.98011 0.74758 0.0
H229 H 0.4008 0.88155 0.7745 0.0
H230 H 0.46945 0.02418 0.8279 0.0
H231 H 0.50909 -2e-05 0.828 0.0
H232 H 0.49583 0.02175 0.78897 0.0
H233 H 0.38627 0.86653 0.83207 0.0
H234 H 0.42494 0.87962 0.86107 0.0
H235 H 0.38614 0.90496 0.8612 0.0
H236 H 0.51251 0.94613 0.93095 0.0
H237 H 0.4197 0.00781 0.93079 0.0
H238 H 0.52024 0.93646 0.84285 0.0
H239 H 0.49064 0.89649 0.85434 0.0
H240 H 0.5288 0.91352 0.88259 0.0
H241 H 0.40488 0.01099 0.84336 0.0
H242 H 0.37924 0.00842 0.88302 0.0
H243 H 0.37699 0.96966 0.85399 0.0
C244 C 0.5619 0.47018 0.83823 0.0
C245 C 0.53554 0.48337 0.85934 0.0
C246 C 0.56227 0.47704 0.80257 0.0
C247 C 0.53551 0.49747 0.78801 0.0
C248 C 0.50945 0.51169 0.80967 0.0
C249 C 0.50974 0.50434 0.84525 0.0
C250 C 0.59046 0.46144 0.78034 0.0
C251 C 0.48056 0.53366 0.79512 0.0
C252 C 0.54963 0.53795 0.69851 0.0
C253 C 0.52662 0.51293 0.67789 0.0
C254 C 0.55326 0.53301 0.73433 0.0
C255 C 0.53342 0.50235 0.74991 0.0
C256 C 0.51078 0.47662 0.7292 0.0
C257 C 0.50766 0.4822 0.69347 0.0
C258 C 0.57776 0.56095 0.7556 0.0
C259 C 0.48929 0.44348 0.74488 0.0
H260 H 0.58167 0.45375 0.84948 0.0
H261 H 0.48928 0.51426 0.86189 0.0
H262 H 0.57618 0.44101 0.76194 0.0
H263 H 0.60567 0.48318 0.76474 0.0
H264 H 0.61077 0.44814 0.79598 0.0
H265 H 0.4637 0.54444 0.8157 0.0
H266 H 0.49396 0.55683 0.78004 0.0
H267 H 0.46178 0.51643 0.77711 0.0
H268 H 0.56445 0.56176 0.68677 0.0
H269 H 0.48987 0.46266 0.67784 0.0
H270 H 0.59865 0.5476 0.77036 0.0
H271 H 0.56087 0.5739 0.77476 0.0
H272 H 0.59238 0.58257 0.73938 0.0
H273 H 0.50835 0.42745 0.75914 0.0
H274 H 0.47376 0.42552 0.72506 0.0
H275 H 0.46933 0.45206 0.76385 0.0
C276 C 0.92298 0.61278 0.29526 0.0
C277 C 0.9435 0.59398 0.31829 0.0
C278 C 0.92993 0.61229 0.25961 0.0
C279 C 0.95796 0.59237 0.24701 0.0
C280 C 0.97977 0.57461 0.27061 0.0
C281 C 0.97214 0.57555 0.30612 0.0
C282 C 0.90612 0.63156 0.23532 0.0
C283 C 0.00994 0.55319 0.25823 0.0
C284 C 0.94642 0.55204 0.15628 0.0
C285 C 0.97125 0.57591 0.1374 0.0
C286 C 0.94165 0.55738 0.19184 0.0
C287 C 0.96223 0.58731 0.20909 0.0
C288 C 0.98702 0.61179 0.19021 0.0
C289 C 0.99122 0.60583 0.15456 0.0
C290 C 0.91481 0.53071 0.21103 0.0
C291 C 0.00943 0.64398 0.20777 0.0
H292 H 0.90068 0.62684 0.305 0.0
H293 H 0.98776 0.56089 0.32422 0.0
H294 H 0.92365 0.64917 0.21746 0.0
H295 H 0.88846 0.61118 0.21922 0.0
H296 H 0.88791 0.64854 0.24943 0.0
H297 H 0.02647 0.54376 0.28002 0.0
H298 H 0.99746 0.52903 0.2431 0.0
H299 H 0.02882 0.56994 0.24078 0.0
H300 H 0.93077 0.52889 0.14333 0.0
H301 H 0.0105 0.62442 0.14026 0.0
H302 H 0.89367 0.54527 0.22381 0.0
H303 H 0.92973 0.51742 0.23165 0.0
H304 H 0.90044 0.50922 0.19368 0.0
H305 H 0.99078 0.66126 0.2208 0.0
H306 H 0.02686 0.66097 0.18929 0.0
H307 H 0.02768 0.63436 0.22809 0.0
C308 C 0.20658 0.0956 0.11521 0.0
C309 C 0.20822 0.12151 0.14207 0.0
C310 C 0.23849 0.08066 0.10492 0.0
C311 C 0.27291 0.09256 0.12139 0.0
C312 C 0.27465 0.11889 0.14843 0.0
C313 C 0.24219 0.13275 0.15869 0.0
C314 C 0.23539 0.05214 0.07646 0.0
C315 C 0.31089 0.1329 0.16616 0.0
C316 C 0.35385 0.03649 0.11689 0.0
C317 C 0.37478 0.05376 0.09025 0.0
C318 C 0.32004 0.04812 0.12661 0.0
C319 C 0.30734 0.07825 0.10985 0.0
C320 C 0.32824 0.09562 0.0828 0.0
C321 C 0.36147 0.08292 0.07308 0.0
C322 C 0.29813 0.02843 0.15509 0.0
C323 C 0.31607 0.12829 0.06474 0.0
H324 H 0.18021 0.0867 0.10258 0.0
H325 H 0.24344 0.15299 0.17931 0.0
H326 H 0.25239 0.06219 0.05416 0.0
H327 H 0.24634 0.0272 0.08579 0.0
H328 H 0.20637 0.04477 0.06727 0.0
H329 H 0.30752 0.15355 0.18657 0.0
H330 H 0.3234 0.11005 0.17812 0.0
H331 H 0.3307 0.14528 0.14682 0.0
H332 H 0.36386 0.01382 0.13012 0.0
H333 H 0.37762 0.09663 0.05267 0.0
H334 H 0.26936 0.01968 0.14596 0.0
H335 H 0.29652 0.04708 0.17753 0.0
H336 H 0.31062 0.00413 0.16402 0.0
H337 H 0.28796 0.12137 0.05328 0.0
H338 H 0.33522 0.1384 0.0439 0.0
H339 H 0.31452 0.15067 0.08381 0.0
C340 C 0.32353 0.96325 0.58193 0.0
C341 C 0.33579 0.97415 0.61529 0.0
C342 C 0.28823 0.96944 0.56995 0.0
C343 C 0.26487 0.98695 0.59201 0.0
C344 C 0.27734 0.99786 0.62589 0.0
C345 C 0.3128 0.99131 0.63714 0.0
C346 C 0.27593 0.95731 0.53374 0.0
C347 C 0.25326 0.01648 0.6502 0.0
C348 C 0.186 0.03195 0.55179 0.0
C349 C 0.15551 0.00572 0.5572 0.0
C350 C 0.22177 0.02617 0.56287 0.0
C351 C 0.22722 0.99341 0.57979 0.0
C352 C 0.19665 0.96677 0.58517 0.0
C353 C 0.16125 0.97322 0.57382 0.0
C354 C 0.25373 0.0552 0.55664 0.0
C355 C 0.20129 0.93149 0.60311 0.0
H356 H 0.34164 0.95005 0.56514 0.0
H357 H 0.32264 0.99975 0.66296 0.0
H358 H 0.25041 0.93771 0.53472 0.0
H359 H 0.26914 0.981 0.51859 0.0
H360 H 0.29746 0.94421 0.51984 0.0
H361 H 0.26712 0.02334 0.67564 0.0
H362 H 0.24584 0.04189 0.63842 0.0
H363 H 0.22706 0.99863 0.65461 0.0
H364 H 0.18194 0.05714 0.53902 0.0
H365 H 0.13797 0.95273 0.5782 0.0
H366 H 0.27508 0.04376 0.54108 0.0
H367 H 0.26696 0.06469 0.58169 0.0
H368 H 0.24495 0.07903 0.54289 0.0
H369 H 0.22116 0.91663 0.58881 0.0
H370 H 0.17473 0.91347 0.60512 0.0
H371 H 0.21293 0.93721 0.62957 0.0
C372 C 0.67273 0.47903 0.97238 0.0
C373 C 0.66238 0.44572 0.95525 0.0
C374 C 0.71017 0.49189 0.97827 0.0
C375 C 0.73778 0.47095 0.96659 0.0
C376 C 0.72748 0.43786 0.94835 0.0
C377 C 0.68988 0.42564 0.94291 0.0
C378 C 0.72018 0.52734 0.99778 0.0
C379 C 0.75615 0.41499 0.93519 0.0
C380 C 0.83602 0.51644 0.95702 0.0
C381 C 0.85332 0.50535 0.98719 0.0
C382 C 0.79839 0.50565 0.95011 0.0
C383 C 0.77747 0.48328 0.97396 0.0
C384 C 0.7946 0.47209 0.00452 0.0
C385 C 0.83236 0.48323 0.01077 0.0
C386 C 0.78107 0.518 0.91718 0.0
C387 C 0.77307 0.44821 0.03054 0.0
H388 H 0.65151 0.49442 0.98222 0.0
H389 H 0.68193 0.40009 0.92925 0.0
H390 H 0.73482 0.52228 0.02233 0.0
H391 H 0.73936 0.54615 0.98236 0.0
H392 H 0.69547 0.541 0.00397 0.0
H393 H 0.74354 0.3905 0.92054 0.0
H394 H 0.77576 0.43137 0.9181 0.0
H395 H 0.7725 0.40602 0.95728 0.0
H396 H 0.85192 0.53352 0.93859 0.0
H397 H 0.84543 0.47459 0.03416 0.0
H398 H 0.75745 0.53317 0.92343 0.0
H399 H 0.76995 0.49401 0.90116 0.0
H400 H 0.80109 0.53575 0.90153 0.0
H401 H 0.7492 0.46151 0.03975 0.0
H402 H 0.79034 0.44242 0.0533 0.0
H403 H 0.76176 0.42199 0.01811 0.0
C404 C 0.79669 0.64336 0.46259 0.0
C405 C 0.82448 0.62041 0.46615 0.0
C406 C 0.76192 0.63454 0.47736 0.0
C407 C 0.75471 0.60195 0.49621 0.0
C408 C 0.78305 0.5793 0.50103 0.0
C409 C 0.81762 0.58871 0.48574 0.0
C410 C 0.73231 0.65921 0.47125 0.0
C411 C 0.77642 0.5445 0.52123 0.0
C412 C 0.66635 0.59227 0.54844 0.0
C413 C 0.64153 0.57217 0.52532 0.0
C414 C 0.70376 0.60116 0.53992 0.0
C415 C 0.7164 0.58992 0.50749 0.0
C416 C 0.69166 0.569 0.48444 0.0
C417 C 0.65466 0.56031 0.49366 0.0
C418 C 0.72954 0.62326 0.56522 0.0
C419 C 0.70396 0.55669 0.44947 0.0
H420 H 0.80166 0.66764 0.44706 0.0
H421 H 0.83918 0.57112 0.48883 0.0
H422 H 0.70988 0.64492 0.45466 0.0
H423 H 0.71978 0.66606 0.49611 0.0
H424 H 0.74325 0.68491 0.45841 0.0
H425 H 0.80233 0.53205 0.52581 0.0
H426 H 0.76393 0.54966 0.54657 0.0
H427 H 0.75652 0.52458 0.50679 0.0
H428 H 0.65653 0.60134 0.57303 0.0
H429 H 0.63583 0.54467 0.47559 0.0
H430 H 0.73872 0.65032 0.55413 0.0
H431 H 0.75467 0.60965 0.5699 0.0
H432 H 0.7162 0.62736 0.59042 0.0
H433 H 0.71297 0.58077 0.43346 0.0
H434 H 0.68162 0.53931 0.43519 0.0
H435 H 0.72803 0.54118 0.45257 0.0
C436 C 0.04565 0.25062 0.07903 0.0
C437 C 0.07009 0.24931 0.10712 0.0
C438 C 0.03428 0.28376 0.06836 0.0
C439 C 0.04776 0.31635 0.08631 0.0
C440 C 0.07171 0.31487 0.11546 0.0
C441 C 0.08278 0.28125 0.12545 0.0
C442 C 0.00891 0.28404 0.03711 0.0
C443 C 0.08656 0.34893 0.13536 0.0
C444 C 0.05097 0.4044 0.03569 0.0
C445 C 0.01922 0.41878 0.04719 0.0
C446 C 0.06072 0.37138 0.04848 0.0
C447 C 0.03821 0.35204 0.07341 0.0
C448 C 0.00612 0.3663 0.08512 0.0
C449 C 0.99702 0.39944 0.07191 0.0
C450 C 0.09514 0.35712 0.03522 0.0
C451 C 0.98134 0.34649 0.11158 0.0
H452 H 0.03625 0.22579 0.0647 0.0
H453 H 0.10203 0.28008 0.14698 0.0
H454 H 0.98431 0.29764 0.04362 0.0
H455 H 0.02354 0.29983 0.01609 0.0
H456 H 0.9994 0.25618 0.02713 0.0
H457 H 0.10286 0.34291 0.15869 0.0
H458 H 0.10456 0.36723 0.11842 0.0
H459 H 0.06346 0.36394 0.14353 0.0
H460 H 0.06845 0.41907 0.01673 0.0
H461 H 0.97249 0.41025 0.0811 0.0
H462 H 0.0877 0.33011 0.02261 0.0
H463 H 0.11429 0.35332 0.05713 0.0
H464 H 0.11002 0.37568 0.01626 0.0
H465 H 0.97016 0.31918 0.10137 0.0
H466 H 0.95778 0.3615 0.11853 0.0
H467 H 0.99753 0.34228 0.13545 0.0
C468 C 0.5369 0.32987 0.99125 0.0
C469 C 0.56459 0.34059 0.9674 0.0
C470 C 0.52886 0.29318 1.00031 0.0
C471 C 0.54871 0.26678 0.98476 0.0
C472 C 0.57584 0.27741 0.95981 0.0
C473 C 0.58359 0.31426 0.95156 0.0
C474 C 0.49996 0.28282 0.02726 0.0
C475 C 0.59722 0.24998 0.94234 0.0
C476 C 0.55847 0.17949 0.03257 0.0
C477 C 0.5314 0.15486 0.01598 0.0
C478 C 0.56406 0.2161 0.02288 0.0
C479 C 0.54237 0.22826 0.99567 0.0
C480 C 0.51523 0.20353 0.97858 0.0
C481 C 0.50991 0.16713 0.98907 0.0
C482 C 0.59311 0.2418 0.04187 0.0
C483 C 0.49194 0.2155 0.94914 0.0
H484 H 0.52237 0.35032 0.00359 0.0
H485 H 0.60469 0.32258 0.93276 0.0
H486 H 0.47873 0.26128 0.01689 0.0
H487 H 0.51309 0.27151 0.05019 0.0
H488 H 0.48598 0.30638 0.03582 0.0
H489 H 0.61589 0.26247 0.92209 0.0
H490 H 0.61416 0.23733 0.96186 0.0
H491 H 0.57786 0.22783 0.93025 0.0
H492 H 0.57501 0.17032 0.05355 0.0
H493 H 0.489 0.14824 0.97606 0.0
H494 H 0.58028 0.26486 0.0532 0.0
H495 H 0.61439 0.25341 0.0235 0.0
H496 H 0.60706 0.22817 0.06297 0.0
H497 H 0.47623 0.23766 0.95806 0.0
H498 H 0.47204 0.19286 0.93852 0.0
H499 H 0.51006 0.22659 0.92794 0.0
C500 C 0.9644 0.72176 0.42944 0.0
C501 C 0.92577 0.71351 0.42778 0.0
C502 C 0.98086 0.75771 0.43501 0.0
C503 C 0.95809 0.78578 0.43963 0.0
C504 C 0.91921 0.77788 0.43609 0.0
C505 C 0.9036 0.74197 0.42971 0.0
C506 C 0.02248 0.7653 0.43768 0.0
C507 C 0.89389 0.80697 0.44106 0.0
C508 C 0.99007 0.86612 0.4986 0.0
C509 C 0.99634 0.89449 0.47487 0.0
C510 C 0.97865 0.83037 0.48734 0.0
C511 C 0.97427 0.82268 0.45142 0.0
C512 C 0.98238 0.85089 0.42725 0.0
C513 C 0.99285 0.88662 0.43929 0.0
C514 C 0.96961 0.80116 0.51397 0.0
C515 C 0.979 0.84351 0.38875 0.0
H516 H 0.98175 0.69997 0.42797 0.0
H517 H 0.87377 0.73596 0.42743 0.0
H518 H 0.03259 0.78976 0.4226 0.0
H519 H 0.03093 0.77096 0.4651 0.0
H520 H 0.03625 0.74194 0.42826 0.0
H521 H 0.8644 0.79666 0.43569 0.0
H522 H 0.89649 0.81741 0.46813 0.0
H523 H 0.90196 0.83029 0.42387 0.0
H524 H 0.99261 0.87209 0.52613 0.0
H525 H 0.9981 0.90844 0.42084 0.0
H526 H 0.98552 0.77794 0.50902 0.0
H527 H 0.93979 0.79062 0.51198 0.0
H528 H 0.97582 0.81135 0.54083 0.0
H529 H 0.99349 0.81983 0.38166 0.0
H530 H 0.99059 0.86735 0.37347 0.0
H531 H 0.94943 0.83658 0.38129 0.0
C532 C 0.46589 0.84045 0.62902 0.0
C533 C 0.44387 0.84178 0.65845 0.0
C534 C 0.4749 0.80721 0.61579 0.0
C535 C 0.46159 0.77438 0.63234 0.0
C536 C 0.43975 0.77552 0.66232 0.0
C537 C 0.43119 0.8092 0.67503 0.0
C538 C 0.49842 0.8072 0.58389 0.0
C539 C 0.42496 0.74111 0.68066 0.0
C540 C 0.45294 0.68661 0.57924 0.0
C541 C 0.48438 0.67092 0.59008 0.0
C542 C 0.4453 0.72024 0.59273 0.0
C543 C 0.46966 0.7388 0.61769 0.0
C544 C 0.50165 0.72339 0.62851 0.0
C545 C 0.50864 0.68967 0.61459 0.0
C546 C 0.41093 0.73579 0.58044 0.0
C547 C 0.52833 0.74238 0.65503 0.0
H548 H 0.47637 0.86555 0.61643 0.0
H549 H 0.41394 0.80997 0.69761 0.0
H550 H 0.52344 0.7937 0.58945 0.0
H551 H 0.48271 0.79142 0.56276 0.0
H552 H 0.50728 0.83513 0.57454 0.0
H553 H 0.40935 0.7467 0.70423 0.0
H554 H 0.40637 0.72336 0.6629 0.0
H555 H 0.44808 0.72567 0.6882 0.0
H556 H 0.43396 0.67245 0.56036 0.0
H557 H 0.53296 0.67783 0.62323 0.0
H558 H 0.4186 0.76301 0.56908 0.0
H559 H 0.39276 0.73947 0.6027 0.0
H560 H 0.39491 0.71807 0.56075 0.0
H561 H 0.53905 0.7699 0.64589 0.0
H562 H 0.55216 0.72702 0.66042 0.0
H563 H 0.51377 0.74602 0.67963 0.0
C564 C 0.91934 0.9166 0.79266 0.0
C565 C 0.93277 0.94048 0.8196 0.0
C566 C 0.92791 0.92464 0.75801 0.0
C567 C 0.95095 0.95704 0.7502 0.0
C568 C 0.96488 0.98106 0.77738 0.0
C569 C 0.95538 0.97262 0.81172 0.0
C570 C 0.91202 0.89863 0.72975 0.0
C571 C 0.98998 0.0156 0.7702 0.0
C572 C 0.00095 0.96279 0.6642 0.0
C573 C 0.97975 0.98492 0.64487 0.0
C574 C 0.99185 0.95343 0.69845 0.0
C575 C 0.96043 0.96597 0.7136 0.0
C576 C 0.93847 0.98766 0.69399 0.0
C577 C 0.94857 0.99712 0.66 0.0
C578 C 0.01625 0.93068 0.71866 0.0
C579 C 0.90442 0.00106 0.709 0.0
H580 H 0.90158 0.89189 0.79868 0.0
H581 H 0.96609 0.99094 0.83255 0.0
H582 H 0.8953 0.91296 0.71132 0.0
H583 H 0.93471 0.88867 0.71487 0.0
H584 H 0.89428 0.87479 0.74011 0.0
H585 H 0.99905 0.03099 0.79429 0.0
H586 H 0.01487 0.00903 0.75632 0.0
H587 H 0.97551 0.03345 0.75315 0.0
H588 H 0.0252 0.9534 0.6528 0.0
H589 H 0.93188 0.01402 0.64521 0.0
H590 H 0.99973 0.90554 0.72777 0.0
H591 H 0.02781 0.94603 0.74196 0.0
H592 H 0.03954 0.92288 0.70307 0.0
H593 H 0.8852 0.97772 0.71822 0.0
H594 H 0.88946 0.01641 0.68991 0.0
H595 H 0.91231 0.01904 0.73172 0.0
C596 C 0.57804 0.11946 0.34601 0.0
C597 C 0.61628 0.12219 0.35305 0.0
C598 C 0.56373 0.11157 0.3124 0.0
C599 C 0.58802 0.10488 0.28539 0.0
C600 C 0.62659 0.10836 0.29205 0.0
C601 C 0.64024 0.11785 0.32546 0.0
C602 C 0.5225 0.10949 0.30602 0.0
C603 C 0.65345 0.1007 0.2642 0.0
C604 C 0.54997 0.04334 0.21057 0.0
C605 C 0.54931 0.06818 0.18355 0.0
C606 C 0.56253 0.05495 0.24386 0.0
C607 C 0.5732 0.0925 0.25054 0.0
C608 C 0.57128 0.11784 0.22352 0.0
C609 C 0.56011 0.10525 0.19011 0.0
C610 C 0.5654 0.02691 0.27158 0.0
C611 C 0.58095 0.1582 0.22991 0.0
H612 H 0.55903 0.12243 0.36687 0.0
H613 H 0.66989 0.12121 0.32999 0.0
H614 H 0.51662 0.12536 0.28279 0.0
H615 H 0.51082 0.08083 0.30093 0.0
H616 H 0.508 0.11993 0.32846 0.0
H617 H 0.68262 0.10418 0.27373 0.0
H618 H 0.64659 0.07239 0.25433 0.0
H619 H 0.65112 0.11908 0.24201 0.0
H620 H 0.54173 0.01465 0.20536 0.0
H621 H 0.55912 0.12447 0.16921 0.0
H622 H 0.54806 0.03254 0.29392 0.0
H623 H 0.59442 0.02849 0.28124 0.0
H624 H 0.55654 0.99876 0.26202 0.0
H625 H 0.56506 0.1671 0.2521 0.0
H626 H 0.57506 0.17446 0.2069 0.0
H627 H 0.61073 0.1643 0.23681 0.0
C628 C 0.45445 0.61189 0.25661 0.0
C629 C 0.43396 0.58146 0.24118 0.0
C630 C 0.46263 0.61253 0.29229 0.0
C631 C 0.44989 0.58198 0.31256 0.0
C632 C 0.42869 0.55142 0.29684 0.0
C633 C 0.42099 0.55157 0.2612 0.0
C634 C 0.48529 0.64553 0.30819 0.0
C635 C 0.41463 0.51834 0.31753 0.0
C636 C 0.49973 0.56097 0.39525 0.0
C637 C 0.47566 0.5711 0.42071 0.0
C638 C 0.49236 0.56571 0.36001 0.0
C639 C 0.46009 0.58092 0.34988 0.0
C640 C 0.43633 0.59246 0.3754 0.0
C641 C 0.44443 0.58745 0.41057 0.0
C642 C 0.51845 0.55317 0.33357 0.0
C643 C 0.40168 0.60884 0.3655 0.0
H644 H 0.46418 0.63501 0.24078 0.0
H645 H 0.40494 0.5282 0.24892 0.0
H646 H 0.47028 0.65622 0.33012 0.0
H647 H 0.51171 0.6378 0.31877 0.0
H648 H 0.49168 0.66762 0.28916 0.0
H649 H 0.39745 0.49741 0.30157 0.0
H650 H 0.43835 0.50591 0.3287 0.0
H651 H 0.39786 0.52636 0.33945 0.0
H652 H 0.52414 0.54862 0.40277 0.0
H653 H 0.42574 0.59547 0.43004 0.0
H654 H 0.52702 0.57536 0.31525 0.0
H655 H 0.50408 0.53004 0.31822 0.0
H656 H 0.54366 0.54428 0.34575 0.0
H657 H 0.40829 0.63154 0.34723 0.0
H658 H 0.38781 0.61918 0.38838 0.0
H659 H 0.38192 0.588 0.35202 0.0
C660 C 0.00946 0.46542 0.71651 0.0
C661 C 0.0345 0.48867 0.69758 0.0
C662 C 0.00579 0.47085 0.75224 0.0
C663 C 0.02778 0.50021 0.76911 0.0
C664 C 0.05338 0.52357 0.74986 0.0
C665 C 0.05644 0.51744 0.71416 0.0
C666 C 0.97821 0.44541 0.77187 0.0
C667 C 0.07725 0.55516 0.76691 0.0
C668 C 0.99218 0.53627 0.85287 0.0
C669 C 0.01335 0.52038 0.87788 0.0
C670 C 0.99677 0.53004 0.81743 0.0
C671 C 0.02307 0.50724 0.80664 0.0
C672 C 0.04459 0.49111 0.83164 0.0
C673 C 0.03953 0.49792 0.867 0.0
C674 C 0.9734 0.54785 0.79153 0.0
C675 C 0.07287 0.46658 0.82102 0.0
H676 H 0.99274 0.44303 0.70334 0.0
H677 H 0.07595 0.53516 0.69919 0.0
H678 H 0.99236 0.43288 0.7935 0.0
H679 H 0.95705 0.4609 0.78342 0.0
H680 H 0.96395 0.42337 0.75507 0.0
H681 H 0.09638 0.57019 0.74842 0.0
H682 H 0.05949 0.5744 0.77833 0.0
H683 H 0.09384 0.54529 0.78839 0.0
H684 H 0.97196 0.55377 0.86092 0.0
H685 H 0.056 0.48551 0.88609 0.0
H686 H 0.95667 0.52674 0.77548 0.0
H687 H 0.99147 0.56504 0.77374 0.0
H688 H 0.95438 0.5651 0.80418 0.0
H689 H 0.05916 0.44297 0.80589 0.0
H690 H 0.0875 0.45629 0.84363 0.0
H691 H 0.09365 0.48149 0.804 0.0
C692 C 0.78834 0.98394 0.94241 0.0
C693 C 0.8171 0.97407 0.96327 0.0
C694 C 0.75368 0.98793 0.95646 0.0
C695 C 0.74781 0.98187 0.99223 0.0
C696 C 0.77681 0.9712 0.01326 0.0
C697 C 0.81129 0.96752 0.99847 0.0
C698 C 0.72357 0.99934 0.93313 0.0
C699 C 0.77158 0.96431 0.05141 0.0
C700 C 0.66989 0.02759 0.032 0.0
C701 C 0.64053 0.99929 0.03101 0.0
C702 C 0.7052 0.02205 0.0203 0.0
C703 C 0.71145 0.98732 0.00752 0.0
C704 C 0.68231 0.95835 0.00756 0.0
C705 C 0.64723 0.9647 0.01916 0.0
C706 C 0.73552 0.0537 0.02055 0.0
C707 C 0.68789 0.92085 0.99443 0.0
H708 H 0.7932 0.98922 0.91518 0.0
H709 H 0.83386 0.96012 0.0145 0.0
H710 H 0.69862 0.979 0.93405 0.0
H711 H 0.71543 0.02569 0.94236 0.0
H712 H 0.7324 0.00233 0.90579 0.0
H713 H 0.79636 0.95486 0.06387 0.0
H714 H 0.76565 0.98964 0.0647 0.0
H715 H 0.74743 0.94354 0.05536 0.0
H716 H 0.66506 0.05441 0.04106 0.0
H717 H 0.62486 0.94254 0.01848 0.0
H718 H 0.74379 0.06032 0.9936 0.0
H719 H 0.76037 0.04635 0.03451 0.0
H720 H 0.7268 0.07844 0.03297 0.0
H721 H 0.69394 0.92192 0.96637 0.0
H722 H 0.6632 0.90067 0.99837 0.0
H723 H 0.71203 0.91119 0.00776 0.0
C724 C 0.74248 0.12547 0.45484 0.0
C725 C 0.71243 0.10145 0.44243 0.0
C726 C 0.77657 0.11313 0.46256 0.0
C727 C 0.7804 0.07569 0.45848 0.0
C728 C 0.7499 0.0512 0.44637 0.0
C729 C 0.71633 0.06449 0.43804 0.0
C730 C 0.8086 0.14024 0.47474 0.0
C731 C 0.75269 0.011 0.44247 0.0
C732 C 0.87861 0.05172 0.45076 0.0
C733 C 0.88736 0.0446 0.48529 0.0
C734 C 0.84355 0.06106 0.44145 0.0
C735 C 0.81638 0.06242 0.46718 0.0
C736 C 0.82454 0.05353 0.50178 0.0
C737 C 0.86009 0.04519 0.5105 0.0
C738 C 0.83614 0.07107 0.40442 0.0
C739 C 0.79605 0.0538 0.52979 0.0
H740 H 0.73947 0.15413 0.45783 0.0
H741 H 0.69294 0.04598 0.42851 0.0
H742 H 0.81776 0.13315 0.50106 0.0
H743 H 0.83246 0.13922 0.45734 0.0
H744 H 0.80134 0.16855 0.47548 0.0
H745 H 0.72623 0.99551 0.43335 0.0
H746 H 0.77461 0.0065 0.4238 0.0
H747 H 0.76072 0.99984 0.46765 0.0
H748 H 0.89969 0.05148 0.43123 0.0
H749 H 0.86663 0.03933 0.53718 0.0
H750 H 0.83141 0.10012 0.40332 0.0
H751 H 0.8107 0.05472 0.39422 0.0
H752 H 0.85948 0.06684 0.38721 0.0
H753 H 0.78989 0.08206 0.5345 0.0
H754 H 0.80558 0.04283 0.55458 0.0
H755 H 0.76979 0.03747 0.52147 0.0
C756 C 0.28801 0.58864 0.10742 0.0
C757 C 0.3164 0.61266 0.09326 0.0
C758 C 0.25292 0.58289 0.09158 0.0
C759 C 0.24605 0.60168 0.06087 0.0
C760 C 0.27501 0.62475 0.04558 0.0
C761 C 0.30992 0.62996 0.06198 0.0
C762 C 0.22274 0.55792 0.10859 0.0
C763 C 0.26874 0.645 0.0127 0.0
C764 C 0.15811 0.56462 0.01255 0.0
C765 C 0.13268 0.58663 0.02593 0.0
C766 C 0.19561 0.57031 0.02237 0.0
C767 C 0.20792 0.59862 0.04615 0.0
C768 C 0.18286 0.62216 0.05829 0.0
C769 C 0.14552 0.61591 0.048 0.0
C770 C 0.22161 0.54485 0.00868 0.0
C771 C 0.19509 0.65282 0.08355 0.0
H772 H 0.29269 0.57557 0.13181 0.0
H773 H 0.33196 0.6482 0.05071 0.0
H774 H 0.20066 0.5739 0.1175 0.0
H775 H 0.20989 0.53723 0.0897 0.0
H776 H 0.23321 0.54366 0.1312 0.0
H777 H 0.29488 0.65929 0.00252 0.0
H778 H 0.2557 0.62599 0.99245 0.0
H779 H 0.24943 0.66543 0.01772 0.0
H780 H 0.14856 0.54211 0.99524 0.0
H781 H 0.12618 0.63321 0.05831 0.0
H782 H 0.22984 0.52743 0.02996 0.0
H783 H 0.24725 0.56047 0.999 0.0
H784 H 0.20875 0.52694 0.98745 0.0
H785 H 0.20299 0.6414 0.10865 0.0
H786 H 0.17299 0.67048 0.08823 0.0
H787 H 0.21984 0.66989 0.07382 0.0
C788 C 0.18718 0.43818 0.56655 0.0
C789 C 0.16961 0.452 0.595 0.0
C790 C 0.22479 0.44877 0.56053 0.0
C791 C 0.24531 0.47367 0.58362 0.0
C792 C 0.2276 0.48817 0.61212 0.0
C793 C 0.18985 0.47722 0.61741 0.0
C794 C 0.24264 0.433 0.52968 0.0
C795 C 0.24868 0.51466 0.63736 0.0
C796 C 0.34941 0.47259 0.5874 0.0
C797 C 0.36186 0.50276 0.56718 0.0
C798 C 0.31155 0.463 0.59318 0.0
C799 C 0.28551 0.48398 0.57826 0.0
C800 C 0.29781 0.51441 0.55781 0.0
C801 C 0.33583 0.52348 0.55256 0.0
C802 C 0.29941 0.43039 0.61522 0.0
C803 C 0.27079 0.5373 0.54136 0.0
H804 H 0.17143 0.41902 0.54894 0.0
H805 H 0.17638 0.48767 0.6396 0.0
H806 H 0.25543 0.45522 0.5131 0.0
H807 H 0.2651 0.41734 0.53856 0.0
H808 H 0.22254 0.41471 0.5137 0.0
H809 H 0.2306 0.52412 0.65766 0.0
H810 H 0.27111 0.50163 0.65014 0.0
H811 H 0.26194 0.53872 0.62341 0.0
H812 H 0.36926 0.45647 0.5989 0.0
H813 H 0.34512 0.54683 0.53688 0.0
H814 H 0.28108 0.40992 0.59983 0.0
H815 H 0.28316 0.43868 0.63741 0.0
H816 H 0.32319 0.41728 0.62541 0.0
H817 H 0.25146 0.52017 0.52375 0.0
H818 H 0.28488 0.56025 0.52636 0.0
H819 H 0.2539 0.54854 0.5616 0.0
C820 C 0.96127 0.84077 0.91092 0.0
C821 C 0.92811 0.85442 0.91936 0.0
C822 C 0.96962 0.80726 0.92359 0.0
C823 C 0.94436 0.78686 0.94552 0.0
C824 C 0.91132 0.80089 0.95498 0.0
C825 C 0.90356 0.83449 0.94176 0.0
C826 C 0.00516 0.79333 0.91285 0.0
C827 C 0.88373 0.77999 0.97839 0.0
C828 C 0.94702 0.68458 0.94562 0.0
C829 C 0.96767 0.67973 0.97587 0.0
C830 C 0.93893 0.71918 0.93578 0.0
C831 C 0.9516 0.74988 0.95671 0.0
C832 C 0.97214 0.74526 0.98745 0.0
C833 C 0.98003 0.71026 0.99663 0.0
C834 C 0.91717 0.72291 0.90267 0.0
C835 C 0.98599 0.77734 0.01051 0.0
H836 H 0.98085 0.85636 0.8943 0.0
H837 H 0.87783 0.84473 0.94832 0.0
H838 H 0.02148 0.78714 0.93605 0.0
H839 H 0.99875 0.76761 0.89777 0.0
H840 H 0.02257 0.81318 0.8968 0.0
H841 H 0.86065 0.79571 0.98522 0.0
H842 H 0.87197 0.75421 0.96541 0.0
H843 H 0.89767 0.77264 0.00261 0.0
H844 H 0.9373 0.66129 0.92931 0.0
H845 H 0.99585 0.70685 0.0201 0.0
H846 H 0.93407 0.74069 0.88446 0.0
H847 H 0.89199 0.73602 0.90815 0.0
H848 H 0.90866 0.69625 0.88965 0.0
H849 H 0.00531 0.79693 0.99602 0.0
H850 H 0.00052 0.76908 0.0341 0.0
H851 H 0.9625 0.7919 0.01852 0.0
C852 C 0.38814 0.73506 0.14229 0.0
C853 C 0.41206 0.70799 0.14246 0.0
C854 C 0.40171 0.77178 0.13839 0.0
C855 C 0.44028 0.78185 0.13571 0.0
C856 C 0.46483 0.75515 0.13917 0.0
C857 C 0.45041 0.7184 0.14212 0.0
C858 C 0.37453 0.79935 0.13452 0.0
C859 C 0.50622 0.76505 0.13754 0.0
C860 C 0.46903 0.8629 0.07905 0.0
C861 C 0.47526 0.89125 0.10349 0.0
C862 C 0.45808 0.8271 0.08934 0.0
C863 C 0.4543 0.81934 0.12503 0.0
C864 C 0.46188 0.84766 0.14995 0.0
C865 C 0.47173 0.88347 0.13883 0.0
C866 C 0.44945 0.79778 0.06191 0.0
C867 C 0.4592 0.84019 0.18823 0.0
H868 H 0.35852 0.72736 0.14372 0.0
H869 H 0.46916 0.69775 0.1423 0.0
H870 H 0.38219 0.82299 0.15211 0.0
H871 H 0.37532 0.80972 0.10765 0.0
H872 H 0.34571 0.78759 0.14005 0.0
H873 H 0.52146 0.74256 0.14661 0.0
H874 H 0.51416 0.77129 0.11044 0.0
H875 H 0.51512 0.78975 0.15349 0.0
H876 H 0.47155 0.86889 0.0517 0.0
H877 H 0.47695 0.90536 0.15779 0.0
H878 H 0.4202 0.78555 0.06394 0.0
H879 H 0.46708 0.7757 0.06594 0.0
H880 H 0.45388 0.80837 0.0353 0.0
H881 H 0.43004 0.83114 0.19493 0.0
H882 H 0.46919 0.86459 0.20425 0.0
H883 H 0.47562 0.81783 0.19514 0.0
C884 C 0.04022 0.33574 0.58118 0.0
C885 C 0.06863 0.34927 0.60433 0.0
C886 C 0.03184 0.29815 0.57535 0.0
C887 C 0.05202 0.27375 0.59357 0.0
C888 C 0.07922 0.28733 0.6185 0.0
C889 C 0.08746 0.32502 0.62333 0.0
C890 C 0.00299 0.28471 0.54825 0.0
C891 C 0.10085 0.26216 0.63888 0.0
C892 C 0.0169 0.1728 0.59085 0.0
C893 C 0.03959 0.16003 0.56552 0.0
C894 C 0.02075 0.20976 0.60054 0.0
C895 C 0.04745 0.23448 0.58407 0.0
C896 C 0.07029 0.22174 0.55842 0.0
C897 C 0.06629 0.18465 0.54968 0.0
C898 C 0.99638 0.22235 0.62842 0.0
C899 C 0.09879 0.24735 0.53994 0.0
H900 H 0.02587 0.35464 0.56639 0.0
H901 H 0.10922 0.33564 0.64146 0.0
H902 H 0.01659 0.27295 0.52596 0.0
H903 H 0.98295 0.26279 0.5588 0.0
H904 H 0.98756 0.30684 0.53864 0.0
H905 H 0.11783 0.27671 0.65999 0.0
H906 H 0.08185 0.23992 0.65032 0.0
H907 H 0.11956 0.24938 0.62133 0.0
H908 H 0.99629 0.15387 0.60327 0.0
H909 H 0.0837 0.17507 0.52986 0.0
H910 H 0.97966 0.243 0.61791 0.0
H911 H 0.01375 0.23558 0.64992 0.0
H912 H 0.97735 0.19959 0.63905 0.0
H913 H 0.08522 0.26908 0.52715 0.0
H914 H 0.11375 0.23318 0.52005 0.0
H915 H 0.11935 0.2608 0.55888 0.0
C916 C 0.60321 0.26557 0.48624 0.0
C917 C 0.58003 0.23585 0.47264 0.0
C918 C 0.58968 0.29886 0.49274 0.0
C919 C 0.55203 0.30237 0.48536 0.0
C920 C 0.52871 0.27246 0.47078 0.0
C921 C 0.54303 0.23932 0.46473 0.0
C922 C 0.61547 0.33 0.50832 0.0
C923 C 0.48855 0.27524 0.46232 0.0
C924 C 0.51355 0.37798 0.53563 0.0
C925 C 0.51815 0.4067 0.51207 0.0
C926 C 0.52314 0.34339 0.52682 0.0
C927 C 0.5373 0.3373 0.49355 0.0
C928 C 0.5403 0.36568 0.46912 0.0
C929 C 0.53087 0.40003 0.47871 0.0
C930 C 0.51968 0.31386 0.55365 0.0
C931 C 0.55485 0.36019 0.43326 0.0
H932 H 0.63178 0.26248 0.49263 0.0
H933 H 0.52517 0.21597 0.45452 0.0
H934 H 0.61641 0.35415 0.49144 0.0
H935 H 0.60501 0.33787 0.53382 0.0
H936 H 0.64409 0.32298 0.51198 0.0
H937 H 0.47466 0.25017 0.44945 0.0
H938 H 0.4736 0.28017 0.48642 0.0
H939 H 0.48616 0.29872 0.44515 0.0
H940 H 0.50373 0.38283 0.56143 0.0
H941 H 0.53415 0.42191 0.46016 0.0
H942 H 0.54764 0.30726 0.56116 0.0
H943 H 0.50402 0.28863 0.54279 0.0
H944 H 0.50559 0.32202 0.57731 0.0
H945 H 0.58453 0.35614 0.43505 0.0
H946 H 0.5521 0.38379 0.41628 0.0
H947 H 0.53989 0.33539 0.4209 0.0
loop_
_geom_bond_atom_site_label_1
_geom_bond_atom_site_label_2
_geom_bond_distance
_geom_bond_site_symmetry_2
_ccdc_geom_bond_type
H0 C3 0.929 . S
H1 C6 0.929 . S
H2 C8 0.930 . S
C3 H0 0.929 . S
C3 C4 1.398 . S
C3 C5 1.396 . S
C4 C3 1.398 . S
C4 C8 1.407 . S
C5 C3 1.396 . S
C5 C6 1.394 . S
C6 H1 0.929 . S
C6 C5 1.394 . S
C6 C7 1.382 . S
C7 C6 1.382 . S
C7 C8 1.392 . S
C7 N9 1.420 . S
C8 H2 0.930 . S
C8 C4 1.407 . S
C8 C7 1.392 . S
N9 C7 1.420 . S
N9 C10 1.244 . S
C10 N9 1.244 . S
H11 C14 0.929 . S
H12 C17 0.929 . S
H13 C19 0.930 . S
C14 H11 0.929 . S
C14 C15 1.398 . S
C14 C16 1.396 . S
C15 C14 1.398 . S
C15 C19 1.407 . S
C16 C14 1.396 . S
C16 C17 1.394 . S
C17 H12 0.929 . S
C17 C16 1.394 . S
C17 C18 1.382 . S
C18 C17 1.382 . S
C18 C19 1.392 . S
C18 N20 1.420 . S
C19 H13 0.930 . S
C19 C15 1.407 . S
C19 C18 1.392 . S
N20 C18 1.420 . S
N20 C21 1.244 . S
C21 N20 1.244 . S
H22 C25 0.929 . S
H23 C28 0.929 . S
H24 C30 0.930 . S
C25 H22 0.929 . S
C25 C26 1.398 . S
C25 C27 1.396 . S
C26 C25 1.398 . S
C26 C30 1.407 . S
C27 C25 1.396 . S
C27 C28 1.394 . S
C28 H23 0.929 . S
C28 C27 1.394 . S
C28 C29 1.382 . S
C29 C28 1.382 . S
C29 C30 1.392 . S
C29 N31 1.420 . S
C30 H24 0.930 . S
C30 C26 1.407 . S
C30 C29 1.392 . S
N31 C29 1.420 . S
N31 C32 1.244 . S
C32 N31 1.244 . S
H33 C36 0.929 . S
H34 C39 0.929 . S
H35 C41 0.930 . S
C36 H33 0.929 . S
C36 C37 1.398 . S
C36 C38 1.396 . S
C37 C36 1.398 . S
C37 C41 1.407 . S
C38 C36 1.396 . S
C38 C39 1.394 . S
C39 H34 0.929 . S
C39 C38 1.394 . S
C39 C40 1.382 . S
C40 C39 1.382 . S
C40 C41 1.392 . S
C40 N42 1.420 . S
C41 H35 0.930 . S
C41 C37 1.407 . S
C41 C40 1.392 . S
N42 C40 1.420 . S
N42 C43 1.244 . S
C43 N42 1.244 . S
H44 C47 0.929 . S
H45 C50 0.929 . S
H46 C52 0.930 1_545 S
C47 H44 0.929 . S
C47 C48 1.398 . S
C47 C49 1.396 . S
C48 C47 1.398 . S
C48 C52 1.407 . S
C49 C47 1.396 . S
C49 C50 1.394 . S
C50 H45 0.929 . S
C50 C49 1.394 . S
C50 C51 1.382 . S
C51 C50 1.382 . S
C51 C52 1.392 . S
C51 N53 1.420 1_565 S
C52 H46 0.930 1_565 S
C52 C48 1.407 . S
C52 C51 1.392 . S
N53 C51 1.420 1_545 S
N53 C54 1.244 1_545 S
C54 N53 1.244 1_565 S
H55 C58 0.929 . S
H56 C61 0.929 . S
H57 C63 0.930 . S
C58 H55 0.929 . S
C58 C59 1.398 . S
C58 C60 1.396 . S
C59 C58 1.398 . S
C59 C63 1.407 . S
C60 C58 1.396 . S
C60 C61 1.394 . S
C61 H56 0.929 . S
C61 C60 1.394 . S
C61 C62 1.382 . S
C62 C61 1.382 . S
C62 C63 1.392 . S
C62 N64 1.420 . S
C63 H57 0.930 . S
C63 C59 1.407 . S
C63 C62 1.392 . S
N64 C62 1.420 . S
N64 C65 1.244 . S
C65 N64 1.244 . S
H66 C69 0.929 . S
H67 C72 0.929 . S
H68 C74 0.930 . S
C69 H66 0.929 . S
C69 C70 1.398 . S
C69 C71 1.396 . S
C70 C69 1.398 . S
C70 C74 1.407 . S
C71 C69 1.396 . S
C71 C72 1.394 . S
C72 H67 0.929 . S
C72 C71 1.394 . S
C72 C73 1.382 . S
C73 C72 1.382 . S
C73 C74 1.392 . S
C73 N75 1.420 . S
C74 H68 0.930 . S
C74 C70 1.407 . S
C74 C73 1.392 . S
N75 C73 1.420 . S
N75 C76 1.244 . S
C76 N75 1.244 . S
H77 C80 0.929 . S
H78 C83 0.929 . S
H79 C85 0.930 . S
C80 H77 0.929 . S
C80 C81 1.398 . S
C80 C82 1.396 . S
C81 C80 1.398 . S
C81 C85 1.407 . S
C82 C80 1.396 . S
C82 C83 1.394 . S
C83 H78 0.929 . S
C83 C82 1.394 . S
C83 C84 1.382 . S
C84 C83 1.382 . S
C84 C85 1.392 . S
C84 N86 1.420 . S
C85 H79 0.930 . S
C85 C81 1.407 . S
C85 C84 1.392 . S
N86 C84 1.420 . S
N86 C87 1.244 . S
C87 N86 1.244 . S
O88 Zn89 1.953 . S
O88 C104 1.225 1_655 S
Zn89 O88 1.953 . S
Zn89 O90 1.949 1_655 S
Zn89 O96 1.919 . S
Zn89 O101 1.924 . S
O90 Zn89 1.949 1_455 S
O90 Zn91 1.923 1_455 S
O90 Zn92 1.950 . S
O90 Zn93 1.945 1_545 S
Zn91 O90 1.923 1_655 S
Zn91 O94 1.933 1_545 S
Zn91 O97 1.941 . S
Zn91 O98 1.965 1_655 S
Zn92 O90 1.950 . S
Zn92 O99 1.938 . S
Zn92 O100 1.906 . S
Zn92 O110 1.953 . S
Zn93 O90 1.945 1_565 S
Zn93 O95 1.932 1_455 S
Zn93 O102 1.977 . S
Zn93 O103 1.910 1_455 S
O94 Zn91 1.933 1_565 S
O94 C105 1.226 . S
O95 Zn93 1.932 1_655 S
O95 C105 1.307 . S
O96 Zn89 1.919 . S
O96 C107 1.253 . S
O97 Zn91 1.941 . S
O97 C107 1.283 . S
O98 Zn91 1.965 1_455 S
O98 C106 1.303 . S
O99 Zn92 1.938 . S
O99 C106 1.247 . S
O100 Zn92 1.906 . S
O100 C108 1.304 1_545 S
O101 Zn89 1.924 . S
O101 C109 1.311 . S
O102 Zn93 1.977 . S
O102 C108 1.272 . S
O103 Zn93 1.910 1_655 S
O103 C109 1.231 1_565 S
C104 O88 1.225 1_455 S
C104 O110 1.298 . S
C105 O94 1.226 . S
C105 O95 1.307 . S
C106 O98 1.303 . S
C106 O99 1.247 . S
C107 O96 1.253 . S
C107 O97 1.283 . S
C108 O100 1.304 1_565 S
C108 O102 1.272 . S
C109 O101 1.311 . S
C109 O103 1.231 1_545 S
O110 Zn92 1.953 . S
O110 C104 1.298 . S
O111 Zn112 1.953 . S
O111 C127 1.225 . S
Zn112 O111 1.953 . S
Zn112 O113 1.949 . S
Zn112 O119 1.919 1_554 S
Zn112 O124 1.924 . S
O113 Zn112 1.949 . S
O113 Zn114 1.923 1_545 S
O113 Zn115 1.950 . S
O113 Zn116 1.945 . S
Zn114 O113 1.923 1_565 S
Zn114 O117 1.933 . S
Zn114 O120 1.941 1_554 S
Zn114 O121 1.965 . S
Zn115 O113 1.950 . S
Zn115 O122 1.938 . S
Zn115 O123 1.906 . S
Zn115 O133 1.953 . S
Zn116 O113 1.945 . S
Zn116 O118 1.932 1_545 S
Zn116 O125 1.977 . S
Zn116 O126 1.910 . S
O117 Zn114 1.933 . S
O117 C128 1.226 . S
O118 Zn116 1.932 1_565 S
O118 C128 1.307 . S
O119 Zn112 1.919 1_556 S
O119 C130 1.253 1_545 S
O120 Zn114 1.941 1_556 S
O120 C130 1.283 . S
O121 Zn114 1.965 . S
O121 C129 1.303 1_565 S
O122 Zn115 1.938 . S
O122 C129 1.247 . S
O123 Zn115 1.906 . S
O123 C131 1.304 . S
O124 Zn112 1.924 . S
O124 C132 1.311 . S
O125 Zn116 1.977 . S
O125 C131 1.272 . S
O126 Zn116 1.910 . S
O126 C132 1.231 . S
C127 O111 1.225 . S
C127 O133 1.298 . S
C128 O117 1.226 . S
C128 O118 1.307 . S
C129 O121 1.303 1_545 S
C129 O122 1.247 . S
C130 O119 1.253 1_565 S
C130 O120 1.283 . S
C131 O123 1.304 . S
C131 O125 1.272 . S
C132 O124 1.311 . S
C132 O126 1.231 . S
O133 Zn115 1.953 . S
O133 C127 1.298 . S
O134 Zn135 1.953 . S
O134 C150 1.225 . S
Zn135 O134 1.953 . S
Zn135 O136 1.949 . S
Zn135 O142 1.919 . S
Zn135 O147 1.924 . S
O136 Zn135 1.949 . S
O136 Zn137 1.923 . S
O136 Zn138 1.950 . S
O136 Zn139 1.945 . S
Zn137 O136 1.923 . S
Zn137 O140 1.933 . S
Zn137 O143 1.941 . S
Zn137 O144 1.965 . S
Zn138 O136 1.950 . S
Zn138 O145 1.938 . S
Zn138 O146 1.906 . S
Zn138 O156 1.953 . S
Zn139 O136 1.945 . S
Zn139 O141 1.932 . S
Zn139 O148 1.977 . S
Zn139 O149 1.910 . S
O140 Zn137 1.933 . S
O140 C151 1.226 . S
O141 Zn139 1.932 . S
O141 C151 1.307 . S
O142 Zn135 1.919 . S
O142 C153 1.253 . S
O143 Zn137 1.941 . S
O143 C153 1.283 . S
O144 Zn137 1.965 . S
O144 C152 1.303 . S
O145 Zn138 1.938 . S
O145 C152 1.247 . S
O146 Zn138 1.906 . S
O146 C154 1.304 . S
O147 Zn135 1.924 . S
O147 C155 1.311 . S
O148 Zn139 1.977 . S
O148 C154 1.272 . S
O149 Zn139 1.910 . S
O149 C155 1.231 . S
C150 O134 1.225 . S
C150 O156 1.298 . S
C151 O140 1.226 . S
C151 O141 1.307 . S
C152 O144 1.303 . S
C152 O145 1.247 . S
C153 O142 1.253 . S
C153 O143 1.283 . S
C154 O146 1.304 . S
C154 O148 1.272 . S
C155 O147 1.311 . S
C155 O149 1.231 . S
O156 Zn138 1.953 . S
O156 C150 1.298 . S
O157 Zn158 1.953 . S
O157 C173 1.225 . S
Zn158 O157 1.953 . S
Zn158 O159 1.949 1_655 S
Zn158 O165 1.919 . S
Zn158 O170 1.924 . S
O159 Zn158 1.949 1_455 S
O159 Zn160 1.923 1_454 S
O159 Zn161 1.950 . S
O159 Zn162 1.945 1_554 S
Zn160 O159 1.923 1_656 S
Zn160 O163 1.933 1_655 S
Zn160 O166 1.941 . S
Zn160 O167 1.965 . S
Zn161 O159 1.950 . S
Zn161 O168 1.938 . S
Zn161 O169 1.906 . S
Zn161 O179 1.953 . S
Zn162 O159 1.945 1_556 S
Zn162 O164 1.932 . S
Zn162 O171 1.977 1_556 S
Zn162 O172 1.910 1_556 S
O163 Zn160 1.933 1_455 S
O163 C174 1.226 . S
O164 Zn162 1.932 . S
O164 C174 1.307 . S
O165 Zn158 1.919 . S
O165 C176 1.253 1_554 S
O166 Zn160 1.941 . S
O166 C176 1.283 . S
O167 Zn160 1.965 . S
O167 C175 1.303 . S
O168 Zn161 1.938 . S
O168 C175 1.235 1_454 S
O169 Zn161 1.906 . S
O169 C177 1.304 . S
O170 Zn158 1.924 . S
O170 C178 1.311 1_655 S
O171 Zn162 1.977 1_554 S
O171 C177 1.272 . S
O172 Zn162 1.910 1_554 S
O172 C178 1.231 . S
C173 O157 1.225 . S
C173 O179 1.298 1_655 S
C174 O163 1.226 . S
C174 O164 1.307 . S
C175 O167 1.303 . S
C175 O168 1.235 1_656 S
C176 O165 1.253 1_556 S
C176 O166 1.283 . S
C177 O169 1.304 . S
C177 O171 1.272 . S
C178 O170 1.311 1_455 S
C178 O172 1.231 . S
O179 Zn161 1.953 . S
O179 C173 1.298 1_455 S
C180 C181 1.391 . S
C180 C182 1.394 . S
C180 H196 0.931 . S
C181 C180 1.391 . S
C181 C185 1.376 . S
C182 C180 1.394 . S
C182 C183 1.369 . S
C182 C186 1.531 . S
C183 C182 1.369 . S
C183 C184 1.410 . S
C183 C191 1.503 . S
C184 C183 1.410 . S
C184 C185 1.392 . S
C184 C187 1.511 . S
C185 C181 1.376 . S
C185 C184 1.392 . S
C185 H197 0.929 . S
C186 C182 1.531 . S
C186 H198 0.960 . S
C186 H199 0.962 . S
C186 H200 0.960 . S
C187 C184 1.511 . S
C187 H201 0.961 . S
C187 H202 0.961 . S
C187 H203 0.963 . S
C188 C189 1.370 . S
C188 C190 1.363 . S
C188 H204 0.931 . S
C189 C188 1.370 . S
C189 C193 1.408 . S
C190 C188 1.363 . S
C190 C191 1.370 . S
C190 C194 1.524 . S
C191 C183 1.503 . S
C191 C190 1.370 . S
C191 C192 1.403 . S
C192 C191 1.403 . S
C192 C193 1.404 . S
C192 C195 1.539 . S
C193 C189 1.408 . S
C193 C192 1.404 . S
C193 H205 0.930 . S
C194 C190 1.524 . S
C194 H206 0.956 . S
C194 H207 0.961 . S
C194 H208 0.961 . S
C195 C192 1.539 . S
C195 H209 0.958 . S
C195 H210 0.961 . S
C195 H211 0.960 . S
H196 C180 0.931 . S
H197 C185 0.929 . S
H198 C186 0.960 . S
H199 C186 0.962 . S
H200 C186 0.960 . S
H201 C187 0.961 . S
H202 C187 0.961 . S
H203 C187 0.963 . S
H204 C188 0.931 . S
H205 C193 0.930 . S
H206 C194 0.956 . S
H207 C194 0.961 . S
H208 C194 0.961 . S
H209 C195 0.958 . S
H210 C195 0.961 . S
H211 C195 0.960 . S
C212 C213 1.391 . S
C212 C214 1.394 . S
C212 H228 0.931 . S
C213 C212 1.391 . S
C213 C217 1.376 . S
C214 C212 1.394 . S
C214 C215 1.369 . S
C214 C218 1.531 . S
C215 C214 1.369 . S
C215 C216 1.410 . S
C215 C223 1.503 . S
C216 C215 1.410 . S
C216 C217 1.392 . S
C216 C219 1.511 . S
C217 C213 1.376 . S
C217 C216 1.392 . S
C217 H229 0.929 . S
C218 C214 1.531 . S
C218 H230 0.960 . S
C218 H231 0.962 . S
C218 H232 0.960 . S
C219 C216 1.511 . S
C219 H233 0.961 . S
C219 H234 0.961 . S
C219 H235 0.961 . S
C220 C221 1.370 . S
C220 C222 1.363 . S
C220 H236 0.931 . S
C221 C220 1.370 . S
C221 C225 1.408 . S
C222 C220 1.363 . S
C222 C223 1.370 . S
C222 C226 1.524 . S
C223 C215 1.503 . S
C223 C222 1.370 . S
C223 C224 1.403 . S
C224 C223 1.403 . S
C224 C225 1.404 . S
C224 C227 1.539 1_565 S
C225 C221 1.408 . S
C225 C224 1.404 . S
C225 H237 0.930 1_565 S
C226 C222 1.524 . S
C226 H238 0.956 . S
C226 H239 0.961 . S
C226 H240 0.961 . S
C227 C224 1.539 1_545 S
C227 H241 0.958 . S
C227 H242 0.961 . S
C227 H243 0.960 1_545 S
H228 C212 0.931 . S
H229 C217 0.929 . S
H230 C218 0.960 . S
H231 C218 0.962 . S
H232 C218 0.960 . S
H233 C219 0.961 . S
H234 C219 0.961 . S
H235 C219 0.961 . S
H236 C220 0.931 . S
H237 C225 0.930 1_545 S
H238 C226 0.956 . S
H239 C226 0.961 . S
H240 C226 0.961 . S
H241 C227 0.958 . S
H242 C227 0.961 . S
H243 C227 0.960 1_565 S
C244 C245 1.391 . S
C244 C246 1.394 . S
C244 H260 0.931 . S
C245 C244 1.391 . S
C245 C249 1.376 . S
C246 C244 1.394 . S
C246 C247 1.369 . S
C246 C250 1.531 . S
C247 C246 1.369 . S
C247 C248 1.410 . S
C247 C255 1.503 . S
C248 C247 1.410 . S
C248 C249 1.392 . S
C248 C251 1.511 . S
C249 C245 1.376 . S
C249 C248 1.392 . S
C249 H261 0.929 . S
C250 C246 1.531 . S
C250 H262 0.960 . S
C250 H263 0.962 . S
C250 H264 0.960 . S
C251 C248 1.511 . S
C251 H265 0.961 . S
C251 H266 0.961 . S
C251 H267 0.961 . S
C252 C253 1.370 . S
C252 C254 1.363 . S
C252 H268 0.931 . S
C253 C252 1.370 . S
C253 C257 1.408 . S
C254 C252 1.363 . S
C254 C255 1.370 . S
C254 C258 1.524 . S
C255 C247 1.503 . S
C255 C254 1.370 . S
C255 C256 1.403 . S
C256 C255 1.403 . S
C256 C257 1.404 . S
C256 C259 1.539 . S
C257 C253 1.408 . S
C257 C256 1.404 . S
C257 H269 0.930 . S
C258 C254 1.524 . S
C258 H270 0.956 . S
C258 H271 0.961 . S
C258 H272 0.961 . S
C259 C256 1.539 . S
C259 H273 0.958 . S
C259 H274 0.961 . S
C259 H275 0.960 . S
H260 C244 0.931 . S
H261 C249 0.929 . S
H262 C250 0.960 . S
H263 C250 0.962 . S
H264 C250 0.960 . S
H265 C251 0.961 . S
H266 C251 0.961 . S
H267 C251 0.961 . S
H268 C252 0.931 . S
H269 C257 0.930 . S
H270 C258 0.956 . S
H271 C258 0.961 . S
H272 C258 0.961 . S
H273 C259 0.958 . S
H274 C259 0.961 . S
H275 C259 0.960 . S
C276 C277 1.391 . S
C276 C278 1.394 . S
C276 H292 0.931 . S
C277 C276 1.391 . S
C277 C281 1.376 . S
C278 C276 1.394 . S
C278 C279 1.369 . S
C278 C282 1.531 . S
C279 C278 1.369 . S
C279 C280 1.410 . S
C279 C287 1.503 . S
C280 C279 1.410 . S
C280 C281 1.392 . S
C280 C283 1.511 . S
C281 C277 1.376 . S
C281 C280 1.392 . S
C281 H293 0.929 . S
C282 C278 1.531 . S
C282 H294 0.960 . S
C282 H295 0.962 . S
C282 H296 0.960 . S
C283 C280 1.511 . S
C283 H297 0.961 . S
C283 H298 0.961 . S
C283 H299 0.961 1_655 S
C284 C285 1.370 . S
C284 C286 1.363 . S
C284 H300 0.931 . S
C285 C284 1.370 . S
C285 C289 1.408 1_655 S
C286 C284 1.363 . S
C286 C287 1.370 . S
C286 C290 1.524 . S
C287 C279 1.503 . S
C287 C286 1.370 . S
C287 C288 1.403 . S
C288 C287 1.403 . S
C288 C289 1.404 1_655 S
C288 C291 1.539 1_655 S
C289 C285 1.408 1_455 S
C289 C288 1.404 1_455 S
C289 H301 0.930 . S
C290 C286 1.524 . S
C290 H302 0.956 . S
C290 H303 0.961 . S
C290 H304 0.961 . S
C291 C288 1.539 1_455 S
C291 H305 0.958 . S
C291 H306 0.961 . S
C291 H307 0.960 . S
H292 C276 0.931 . S
H293 C281 0.929 . S
H294 C282 0.960 . S
H295 C282 0.962 . S
H296 C282 0.960 . S
H297 C283 0.961 . S
H298 C283 0.961 . S
H299 C283 0.961 1_455 S
H300 C284 0.931 . S
H301 C289 0.930 . S
H302 C290 0.956 . S
H303 C290 0.961 . S
H304 C290 0.961 . S
H305 C291 0.958 . S
H306 C291 0.961 . S
H307 C291 0.960 . S
C308 C309 1.391 . S
C308 C310 1.394 . S
C308 H324 0.931 . S
C309 C308 1.391 . S
C309 C313 1.376 . S
C310 C308 1.394 . S
C310 C311 1.369 . S
C310 C314 1.531 . S
C311 C310 1.369 . S
C311 C312 1.410 . S
C311 C319 1.503 . S
C312 C311 1.410 . S
C312 C313 1.392 . S
C312 C315 1.511 . S
C313 C309 1.376 . S
C313 C312 1.392 . S
C313 H325 0.929 . S
C314 C310 1.531 . S
C314 H326 0.960 . S
C314 H327 0.962 . S
C314 H328 0.960 . S
C315 C312 1.511 . S
C315 H329 0.961 . S
C315 H330 0.961 . S
C315 H331 0.961 . S
C316 C317 1.370 . S
C316 C318 1.363 . S
C316 H332 0.931 . S
C317 C316 1.370 . S
C317 C321 1.408 . S
C318 C316 1.363 . S
C318 C319 1.370 . S
C318 C322 1.524 . S
C319 C311 1.503 . S
C319 C318 1.370 . S
C319 C320 1.403 . S
C320 C319 1.403 . S
C320 C321 1.404 . S
C320 C323 1.539 . S
C321 C317 1.408 . S
C321 C320 1.404 . S
C321 H333 0.930 . S
C322 C318 1.524 . S
C322 H334 0.956 . S
C322 H335 0.961 . S
C322 H336 0.961 . S
C323 C320 1.539 . S
C323 H337 0.958 . S
C323 H338 0.961 . S
C323 H339 0.960 . S
H324 C308 0.931 . S
H325 C313 0.929 . S
H326 C314 0.960 . S
H327 C314 0.962 . S
H328 C314 0.960 . S
H329 C315 0.961 . S
H330 C315 0.961 . S
H331 C315 0.961 . S
H332 C316 0.931 . S
H333 C321 0.930 . S
H334 C322 0.956 . S
H335 C322 0.961 . S
H336 C322 0.961 . S
H337 C323 0.958 . S
H338 C323 0.961 . S
H339 C323 0.960 . S
C340 C341 1.391 . S
C340 C342 1.394 . S
C340 H356 0.931 . S
C341 C340 1.391 . S
C341 C345 1.376 . S
C342 C340 1.394 . S
C342 C343 1.369 . S
C342 C346 1.531 . S
C343 C342 1.369 . S
C343 C344 1.410 . S
C343 C351 1.503 . S
C344 C343 1.410 . S
C344 C345 1.392 . S
C344 C347 1.511 . S
C345 C341 1.376 . S
C345 C344 1.392 . S
C345 H357 0.929 . S
C346 C342 1.531 . S
C346 H358 0.960 . S
C346 H359 0.962 . S
C346 H360 0.960 . S
C347 C344 1.511 . S
C347 H361 0.961 . S
C347 H362 0.961 . S
C347 H363 0.961 . S
C348 C349 1.370 . S
C348 C350 1.363 . S
C348 H364 0.931 1_565 S
C349 C348 1.370 . S
C349 C353 1.408 . S
C350 C348 1.363 . S
C350 C351 1.370 . S
C350 C354 1.524 1_565 S
C351 C343 1.503 . S
C351 C350 1.370 . S
C351 C352 1.403 . S
C352 C351 1.403 . S
C352 C353 1.404 . S
C352 C355 1.539 . S
C353 C349 1.408 . S
C353 C352 1.404 . S
C353 H365 0.930 . S
C354 C350 1.524 1_545 S
C354 H366 0.956 1_545 S
C354 H367 0.961 . S
C354 H368 0.961 . S
C355 C352 1.539 . S
C355 H369 0.958 . S
C355 H370 0.961 . S
C355 H371 0.960 . S
H356 C340 0.931 . S
H357 C345 0.929 . S
H358 C346 0.960 . S
H359 C346 0.962 . S
H360 C346 0.960 . S
H361 C347 0.961 . S
H362 C347 0.961 . S
H363 C347 0.961 . S
H364 C348 0.931 1_545 S
H365 C353 0.930 . S
H366 C354 0.956 1_565 S
H367 C354 0.961 . S
H368 C354 0.961 . S
H369 C355 0.958 . S
H370 C355 0.961 . S
H371 C355 0.960 . S
C372 C373 1.391 . S
C372 C374 1.394 . S
C372 H388 0.931 . S
C373 C372 1.391 . S
C373 C377 1.376 . S
C374 C372 1.394 . S
C374 C375 1.369 . S
C374 C378 1.531 . S
C375 C374 1.369 . S
C375 C376 1.410 . S
C375 C383 1.503 . S
C376 C375 1.410 . S
C376 C377 1.392 . S
C376 C379 1.511 . S
C377 C373 1.376 . S
C377 C376 1.392 . S
C377 H389 0.929 . S
C378 C374 1.531 . S
C378 H390 0.960 . S
C378 H391 0.962 . S
C378 H392 0.960 . S
C379 C376 1.511 . S
C379 H393 0.961 . S
C379 H394 0.961 . S
C379 H395 0.961 . S
C380 C381 1.370 . S
C380 C382 1.363 . S
C380 H396 0.931 . S
C381 C380 1.370 . S
C381 C385 1.408 . S
C382 C380 1.363 . S
C382 C383 1.370 . S
C382 C386 1.524 . S
C383 C375 1.503 . S
C383 C382 1.370 . S
C383 C384 1.403 . S
C384 C383 1.403 . S
C384 C385 1.404 . S
C384 C387 1.539 1_556 S
C385 C381 1.408 . S
C385 C384 1.404 . S
C385 H397 0.930 1_556 S
C386 C382 1.524 . S
C386 H398 0.956 . S
C386 H399 0.961 . S
C386 H400 0.961 . S
C387 C384 1.539 1_554 S
C387 H401 0.958 . S
C387 H402 0.961 . S
C387 H403 0.960 . S
H388 C372 0.931 . S
H389 C377 0.929 . S
H390 C378 0.960 . S
H391 C378 0.962 . S
H392 C378 0.960 . S
H393 C379 0.961 . S
H394 C379 0.961 . S
H395 C379 0.961 . S
H396 C380 0.931 . S
H397 C385 0.930 1_554 S
H398 C386 0.956 . S
H399 C386 0.961 . S
H400 C386 0.961 . S
H401 C387 0.958 . S
H402 C387 0.961 . S
H403 C387 0.960 . S
C404 C405 1.391 . S
C404 C406 1.394 . S
C404 H420 0.931 . S
C405 C404 1.391 . S
C405 C409 1.376 . S
C406 C404 1.394 . S
C406 C407 1.369 . S
C406 C410 1.531 . S
C407 C406 1.369 . S
C407 C408 1.410 . S
C407 C415 1.503 . S
C408 C407 1.410 . S
C408 C409 1.392 . S
C408 C411 1.511 . S
C409 C405 1.376 . S
C409 C408 1.392 . S
C409 H421 0.929 . S
C410 C406 1.531 . S
C410 H422 0.960 . S
C410 H423 0.962 . S
C410 H424 0.960 . S
C411 C408 1.511 . S
C411 H425 0.961 . S
C411 H426 0.961 . S
C411 H427 0.961 . S
C412 C413 1.370 . S
C412 C414 1.363 . S
C412 H428 0.931 . S
C413 C412 1.370 . S
C413 C417 1.408 . S
C414 C412 1.363 . S
C414 C415 1.370 . S
C414 C418 1.524 . S
C415 C407 1.503 . S
C415 C414 1.370 . S
C415 C416 1.403 . S
C416 C415 1.403 . S
C416 C417 1.404 . S
C416 C419 1.539 . S
C417 C413 1.408 . S
C417 C416 1.404 . S
C417 H429 0.930 . S
C418 C414 1.524 . S
C418 H430 0.956 . S
C418 H431 0.961 . S
C418 H432 0.961 . S
C419 C416 1.539 . S
C419 H433 0.958 . S
C419 H434 0.961 . S
C419 H435 0.960 . S
H420 C404 0.931 . S
H421 C409 0.929 . S
H422 C410 0.960 . S
H423 C410 0.962 . S
H424 C410 0.960 . S
H425 C411 0.961 . S
H426 C411 0.961 . S
H427 C411 0.961 . S
H428 C412 0.931 . S
H429 C417 0.930 . S
H430 C418 0.956 . S
H431 C418 0.961 . S
H432 C418 0.961 . S
H433 C419 0.958 . S
H434 C419 0.961 . S
H435 C419 0.960 . S
C436 C437 1.391 . S
C436 C438 1.394 . S
C436 H452 0.931 . S
C437 C436 1.391 . S
C437 C441 1.376 . S
C438 C436 1.394 . S
C438 C439 1.369 . S
C438 C442 1.531 . S
C439 C438 1.369 . S
C439 C440 1.410 . S
C439 C447 1.503 . S
C440 C439 1.410 . S
C440 C441 1.392 . S
C440 C443 1.511 . S
C441 C437 1.376 . S
C441 C440 1.392 . S
C441 H453 0.929 . S
C442 C438 1.531 . S
C442 H454 0.960 . S
C442 H455 0.962 . S
C442 H456 0.960 . S
C443 C440 1.511 . S
C443 H457 0.961 . S
C443 H458 0.961 . S
C443 H459 0.961 1_455 S
C444 C445 1.370 . S
C444 C446 1.363 . S
C444 H460 0.931 . S
C445 C444 1.370 . S
C445 C449 1.408 . S
C446 C444 1.363 . S
C446 C447 1.370 . S
C446 C450 1.524 . S
C447 C439 1.503 . S
C447 C446 1.370 . S
C447 C448 1.403 . S
C448 C447 1.403 . S
C448 C449 1.404 . S
C448 C451 1.545 . S
C449 C445 1.408 . S
C449 C448 1.404 . S
C449 H461 0.930 1_455 S
C450 C446 1.524 . S
C450 H462 0.956 . S
C450 H463 0.961 . S
C450 H464 0.961 . S
C451 C448 1.545 . S
C451 H465 0.963 . S
C451 H466 0.950 1_455 S
C451 H467 0.961 . S
H452 C436 0.931 . S
H453 C441 0.929 . S
H454 C442 0.960 . S
H455 C442 0.962 . S
H456 C442 0.960 . S
H457 C443 0.961 . S
H458 C443 0.961 . S
H459 C443 0.961 1_655 S
H460 C444 0.931 . S
H461 C449 0.930 1_655 S
H462 C450 0.956 . S
H463 C450 0.961 . S
H464 C450 0.961 . S
H465 C451 0.963 . S
H466 C451 0.950 1_655 S
H467 C451 0.961 . S
C468 C469 1.391 . S
C468 C470 1.394 . S
C468 H484 0.931 . S
C469 C468 1.391 . S
C469 C473 1.376 . S
C470 C468 1.394 . S
C470 C471 1.369 . S
C470 C474 1.531 . S
C471 C470 1.369 . S
C471 C472 1.410 . S
C471 C479 1.503 . S
C472 C471 1.410 . S
C472 C473 1.392 . S
C472 C475 1.511 . S
C473 C469 1.376 . S
C473 C472 1.392 . S
C473 H485 0.929 . S
C474 C470 1.531 . S
C474 H486 0.960 . S
C474 H487 0.962 1_556 S
C474 H488 0.960 . S
C475 C472 1.511 . S
C475 H489 0.961 . S
C475 H490 0.961 . S
C475 H491 0.961 . S
C476 C477 1.370 . S
C476 C478 1.363 . S
C476 H492 0.931 . S
C477 C476 1.370 . S
C477 C481 1.408 1_554 S
C478 C476 1.363 . S
C478 C479 1.370 1_554 S
C478 C482 1.524 . S
C479 C471 1.503 . S
C479 C478 1.370 1_556 S
C479 C480 1.403 . S
C480 C479 1.403 . S
C480 C481 1.404 . S
C480 C483 1.539 . S
C481 C477 1.408 1_556 S
C481 C480 1.404 . S
C481 H493 0.930 . S
C482 C478 1.524 . S
C482 H494 0.956 . S
C482 H495 0.961 . S
C482 H496 0.961 . S
C483 C480 1.539 . S
C483 H497 0.958 . S
C483 H498 0.961 . S
C483 H499 0.960 . S
H484 C468 0.931 . S
H485 C473 0.929 . S
H486 C474 0.960 . S
H487 C474 0.962 1_554 S
H488 C474 0.960 . S
H489 C475 0.961 . S
H490 C475 0.961 . S
H491 C475 0.961 . S
H492 C476 0.931 . S
H493 C481 0.930 . S
H494 C482 0.956 . S
H495 C482 0.961 . S
H496 C482 0.961 . S
H497 C483 0.958 . S
H498 C483 0.961 . S
H499 C483 0.960 . S
C500 C501 1.391 . S
C500 C502 1.394 . S
C500 H516 0.931 . S
C501 C500 1.391 . S
C501 C505 1.376 . S
C502 C500 1.394 . S
C502 C503 1.369 . S
C502 C506 1.531 . S
C503 C502 1.369 . S
C503 C504 1.410 . S
C503 C511 1.503 . S
C504 C503 1.410 . S
C504 C505 1.392 . S
C504 C507 1.511 . S
C505 C501 1.376 . S
C505 C504 1.392 . S
C505 H517 0.929 . S
C506 C502 1.531 . S
C506 H518 0.960 . S
C506 H519 0.962 1_655 S
C506 H520 0.960 . S
C507 C504 1.511 . S
C507 H521 0.961 . S
C507 H522 0.961 . S
C507 H523 0.961 . S
C508 C509 1.370 . S
C508 C510 1.363 . S
C508 H524 0.931 . S
C509 C508 1.370 . S
C509 C513 1.408 . S
C510 C508 1.363 . S
C510 C511 1.370 . S
C510 C514 1.524 . S
C511 C503 1.503 . S
C511 C510 1.370 . S
C511 C512 1.403 . S
C512 C511 1.403 . S
C512 C513 1.404 . S
C512 C515 1.539 . S
C513 C509 1.408 . S
C513 C512 1.404 . S
C513 H525 0.930 . S
C514 C510 1.524 . S
C514 H526 0.956 . S
C514 H527 0.961 . S
C514 H528 0.961 . S
C515 C512 1.539 . S
C515 H529 0.958 . S
C515 H530 0.961 . S
C515 H531 0.960 . S
H516 C500 0.931 . S
H517 C505 0.929 . S
H518 C506 0.960 . S
H519 C506 0.962 1_455 S
H520 C506 0.960 . S
H521 C507 0.961 . S
H522 C507 0.961 . S
H523 C507 0.961 . S
H524 C508 0.931 . S
H525 C513 0.930 . S
H526 C514 0.956 . S
H527 C514 0.961 . S
H528 C514 0.961 . S
H529 C515 0.958 . S
H530 C515 0.961 . S
H531 C515 0.960 . S
C532 C533 1.391 . S
C532 C534 1.394 . S
C532 H548 0.931 . S
C533 C532 1.391 . S
C533 C537 1.376 . S
C534 C532 1.394 . S
C534 C535 1.369 . S
C534 C538 1.531 . S
C535 C534 1.369 . S
C535 C536 1.410 . S
C535 C543 1.503 . S
C536 C535 1.410 . S
C536 C537 1.392 . S
C536 C539 1.511 . S
C537 C533 1.376 . S
C537 C536 1.392 . S
C537 H549 0.929 . S
C538 C534 1.531 . S
C538 H550 0.960 . S
C538 H551 0.962 . S
C538 H552 0.960 . S
C539 C536 1.511 . S
C539 H553 0.961 . S
C539 H554 0.961 . S
C539 H555 0.961 . S
C540 C541 1.370 . S
C540 C542 1.363 . S
C540 H556 0.931 . S
C541 C540 1.370 . S
C541 C545 1.408 . S
C542 C540 1.363 . S
C542 C543 1.370 . S
C542 C546 1.524 . S
C543 C535 1.503 . S
C543 C542 1.370 . S
C543 C544 1.403 . S
C544 C543 1.403 . S
C544 C545 1.404 . S
C544 C547 1.539 . S
C545 C541 1.408 . S
C545 C544 1.404 . S
C545 H557 0.930 . S
C546 C542 1.524 . S
C546 H558 0.956 . S
C546 H559 0.961 . S
C546 H560 0.961 . S
C547 C544 1.539 . S
C547 H561 0.958 . S
C547 H562 0.961 . S
C547 H563 0.960 . S
H548 C532 0.931 . S
H549 C537 0.929 . S
H550 C538 0.960 . S
H551 C538 0.962 . S
H552 C538 0.960 . S
H553 C539 0.961 . S
H554 C539 0.961 . S
H555 C539 0.961 . S
H556 C540 0.931 . S
H557 C545 0.930 . S
H558 C546 0.956 . S
H559 C546 0.961 . S
H560 C546 0.961 . S
H561 C547 0.958 . S
H562 C547 0.961 . S
H563 C547 0.960 . S
C564 C565 1.391 . S
C564 C566 1.394 . S
C564 H580 0.931 . S
C565 C564 1.391 . S
C565 C569 1.376 1_565 S
C566 C564 1.394 . S
C566 C567 1.357 1_565 S
C566 C570 1.531 . S
C567 C566 1.357 1_545 S
C567 C568 1.418 . S
C567 C575 1.506 . S
C568 C567 1.418 . S
C568 C569 1.392 . S
C568 C571 1.511 1_655 S
C569 C565 1.376 1_545 S
C569 C568 1.392 . S
C569 H581 0.929 . S
C570 C566 1.531 . S
C570 H582 0.960 . S
C570 H583 0.962 . S
C570 H584 0.960 . S
C571 C568 1.511 1_455 S
C571 H585 0.961 . S
C571 H586 0.961 . S
C571 H587 0.961 . S
C572 C573 1.370 1_565 S
C572 C574 1.363 . S
C572 H588 0.931 . S
C573 C572 1.370 1_545 S
C573 C577 1.408 . S
C574 C572 1.363 . S
C574 C575 1.370 1_565 S
C574 C578 1.524 . S
C575 C567 1.506 . S
C575 C574 1.370 1_545 S
C575 C576 1.403 . S
C576 C575 1.403 . S
C576 C577 1.404 . S
C576 C579 1.539 . S
C577 C573 1.408 . S
C577 C576 1.404 . S
C577 H589 0.930 . S
C578 C574 1.524 . S
C578 H590 0.956 . S
C578 H591 0.961 1_655 S
C578 H592 0.961 1_655 S
C579 C576 1.539 . S
C579 H593 0.958 . S
C579 H594 0.961 . S
C579 H595 0.960 . S
H580 C564 0.931 . S
H581 C569 0.929 . S
H582 C570 0.960 . S
H583 C570 0.962 . S
H584 C570 0.960 . S
H585 C571 0.961 . S
H586 C571 0.961 . S
H587 C571 0.961 . S
H588 C572 0.931 . S
H589 C577 0.930 . S
H590 C578 0.956 . S
H591 C578 0.961 1_455 S
H592 C578 0.961 1_455 S
H593 C579 0.958 . S
H594 C579 0.961 . S
H595 C579 0.960 . S
C596 C597 1.391 . S
C596 C598 1.394 . S
C596 H612 0.931 . S
C597 C596 1.391 . S
C597 C601 1.376 . S
C598 C596 1.394 . S
C598 C599 1.369 . S
C598 C602 1.531 . S
C599 C598 1.369 . S
C599 C600 1.410 . S
C599 C607 1.503 . S
C600 C599 1.410 . S
C600 C601 1.392 . S
C600 C603 1.511 . S
C601 C597 1.376 . S
C601 C600 1.392 . S
C601 H613 0.929 . S
C602 C598 1.531 . S
C602 H614 0.960 . S
C602 H615 0.962 . S
C602 H616 0.960 . S
C603 C600 1.511 . S
C603 H617 0.961 . S
C603 H618 0.961 . S
C603 H619 0.961 . S
C604 C605 1.370 . S
C604 C606 1.363 . S
C604 H620 0.931 1_545 S
C605 C604 1.370 . S
C605 C609 1.408 . S
C606 C604 1.363 . S
C606 C607 1.370 . S
C606 C610 1.524 1_545 S
C607 C599 1.503 . S
C607 C606 1.370 . S
C607 C608 1.403 . S
C608 C607 1.403 . S
C608 C609 1.404 . S
C608 C611 1.539 . S
C609 C605 1.408 . S
C609 C608 1.404 . S
C609 H621 0.930 . S
C610 C606 1.524 1_565 S
C610 H622 0.956 1_565 S
C610 H623 0.961 . S
C610 H624 0.961 . S
C611 C608 1.539 . S
C611 H625 0.958 . S
C611 H626 0.961 . S
C611 H627 0.960 . S
H612 C596 0.931 . S
H613 C601 0.929 . S
H614 C602 0.960 . S
H615 C602 0.962 . S
H616 C602 0.960 . S
H617 C603 0.961 . S
H618 C603 0.961 . S
H619 C603 0.961 . S
H620 C604 0.931 1_565 S
H621 C609 0.930 . S
H622 C610 0.956 1_545 S
H623 C610 0.961 . S
H624 C610 0.961 . S
H625 C611 0.958 . S
H626 C611 0.961 . S
H627 C611 0.960 . S
C628 C629 1.391 . S
C628 C630 1.394 . S
C628 H644 0.931 . S
C629 C628 1.391 . S
C629 C633 1.376 . S
C630 C628 1.394 . S
C630 C631 1.369 . S
C630 C634 1.531 . S
C631 C630 1.369 . S
C631 C632 1.410 . S
C631 C639 1.503 . S
C632 C631 1.410 . S
C632 C633 1.392 . S
C632 C635 1.511 . S
C633 C629 1.376 . S
C633 C632 1.392 . S
C633 H645 0.929 . S
C634 C630 1.531 . S
C634 H646 0.960 . S
C634 H647 0.962 . S
C634 H648 0.960 . S
C635 C632 1.511 . S
C635 H649 0.961 . S
C635 H650 0.961 . S
C635 H651 0.961 . S
C636 C637 1.370 . S
C636 C638 1.363 . S
C636 H652 0.931 . S
C637 C636 1.370 . S
C637 C641 1.408 . S
C638 C636 1.363 . S
C638 C639 1.370 . S
C638 C642 1.524 . S
C639 C631 1.503 . S
C639 C638 1.370 . S
C639 C640 1.403 . S
C640 C639 1.403 . S
C640 C641 1.404 . S
C640 C643 1.539 . S
C641 C637 1.408 . S
C641 C640 1.404 . S
C641 H653 0.930 . S
C642 C638 1.524 . S
C642 H654 0.956 . S
C642 H655 0.961 . S
C642 H656 0.961 . S
C643 C640 1.539 . S
C643 H657 0.958 . S
C643 H658 0.961 . S
C643 H659 0.960 . S
H644 C628 0.931 . S
H645 C633 0.929 . S
H646 C634 0.960 . S
H647 C634 0.962 . S
H648 C634 0.960 . S
H649 C635 0.961 . S
H650 C635 0.961 . S
H651 C635 0.961 . S
H652 C636 0.931 . S
H653 C641 0.930 . S
H654 C642 0.956 . S
H655 C642 0.961 . S
H656 C642 0.961 . S
H657 C643 0.958 . S
H658 C643 0.961 . S
H659 C643 0.960 . S
C660 C661 1.391 . S
C660 C662 1.394 . S
C660 H676 0.931 . S
C661 C660 1.391 . S
C661 C665 1.376 . S
C662 C660 1.394 . S
C662 C663 1.369 . S
C662 C666 1.531 1_455 S
C663 C662 1.369 . S
C663 C664 1.410 . S
C663 C671 1.503 . S
C664 C663 1.410 . S
C664 C665 1.392 . S
C664 C667 1.511 . S
C665 C661 1.376 . S
C665 C664 1.392 . S
C665 H677 0.929 . S
C666 C662 1.531 1_655 S
C666 H678 0.960 . S
C666 H679 0.962 . S
C666 H680 0.960 . S
C667 C664 1.511 . S
C667 H681 0.961 . S
C667 H682 0.961 . S
C667 H683 0.961 . S
C668 C669 1.370 . S
C668 C670 1.363 . S
C668 H684 0.931 . S
C669 C668 1.370 . S
C669 C673 1.408 . S
C670 C668 1.363 . S
C670 C671 1.370 . S
C670 C674 1.524 . S
C671 C663 1.503 . S
C671 C670 1.370 . S
C671 C672 1.403 . S
C672 C671 1.403 . S
C672 C673 1.404 . S
C672 C675 1.539 . S
C673 C669 1.408 . S
C673 C672 1.404 . S
C673 H685 0.930 . S
C674 C670 1.524 . S
C674 H686 0.956 . S
C674 H687 0.961 . S
C674 H688 0.961 . S
C675 C672 1.539 . S
C675 H689 0.958 . S
C675 H690 0.961 . S
C675 H691 0.960 . S
H676 C660 0.931 . S
H677 C665 0.929 . S
H678 C666 0.960 . S
H679 C666 0.962 . S
H680 C666 0.960 . S
H681 C667 0.961 . S
H682 C667 0.961 . S
H683 C667 0.961 . S
H684 C668 0.931 . S
H685 C673 0.930 . S
H686 C674 0.956 . S
H687 C674 0.961 . S
H688 C674 0.961 . S
H689 C675 0.958 . S
H690 C675 0.961 . S
H691 C675 0.960 . S
C692 C693 1.391 . S
C692 C694 1.394 . S
C692 H708 0.931 . S
C693 C692 1.391 . S
C693 C697 1.374 1_565 S
C694 C692 1.394 . S
C694 C695 1.369 . S
C694 C698 1.531 . S
C695 C694 1.369 . S
C695 C696 1.410 1_566 S
C695 C703 1.503 1_566 S
C696 C695 1.410 1_544 S
C696 C697 1.393 1_554 S
C696 C699 1.511 . S
C697 C693 1.374 1_545 S
C697 C696 1.393 1_556 S
C697 H709 0.930 1_556 S
C698 C694 1.531 . S
C698 H710 0.960 . S
C698 H711 0.962 . S
C698 H712 0.960 . S
C699 C696 1.511 . S
C699 H713 0.961 . S
C699 H714 0.961 . S
C699 H715 0.961 . S
C700 C701 1.370 1_556 S
C700 C702 1.363 . S
C700 H716 0.931 . S
C701 C700 1.370 1_554 S
C701 C705 1.408 1_545 S
C702 C700 1.363 . S
C702 C703 1.370 1_556 S
C702 C706 1.524 . S
C703 C695 1.503 1_544 S
C703 C702 1.370 1_554 S
C703 C704 1.403 1_545 S
C704 C703 1.403 1_565 S
C704 C705 1.404 . S
C704 C707 1.539 . S
C705 C701 1.408 1_565 S
C705 C704 1.404 . S
C705 H717 0.930 . S
C706 C702 1.524 . S
C706 H718 0.956 . S
C706 H719 0.961 . S
C706 H720 0.961 . S
C707 C704 1.539 . S
C707 H721 0.958 . S
C707 H722 0.961 . S
C707 H723 0.960 . S
H708 C692 0.931 . S
H709 C697 0.930 1_554 S
H710 C698 0.960 . S
H711 C698 0.962 . S
H712 C698 0.960 . S
H713 C699 0.961 . S
H714 C699 0.961 . S
H715 C699 0.961 . S
H716 C700 0.931 . S
H717 C705 0.930 . S
H718 C706 0.956 . S
H719 C706 0.961 . S
H720 C706 0.961 . S
H721 C707 0.958 . S
H722 C707 0.961 . S
H723 C707 0.960 . S
C724 C725 1.391 . S
C724 C726 1.394 . S
C724 H740 0.931 . S
C725 C724 1.391 . S
C725 C729 1.376 . S
C726 C724 1.394 . S
C726 C727 1.369 . S
C726 C730 1.531 . S
C727 C726 1.369 . S
C727 C728 1.410 . S
C727 C735 1.503 . S
C728 C727 1.410 . S
C728 C729 1.392 . S
C728 C731 1.511 1_545 S
C729 C725 1.376 . S
C729 C728 1.392 . S
C729 H741 0.929 . S
C730 C726 1.531 . S
C730 H742 0.960 . S
C730 H743 0.962 . S
C730 H744 0.960 . S
C731 C728 1.511 1_565 S
C731 H745 0.961 . S
C731 H746 0.961 . S
C731 H747 0.961 . S
C732 C733 1.370 . S
C732 C734 1.363 . S
C732 H748 0.931 . S
C733 C732 1.370 . S
C733 C737 1.408 . S
C734 C732 1.363 . S
C734 C735 1.370 . S
C734 C738 1.524 . S
C735 C727 1.503 . S
C735 C734 1.370 . S
C735 C736 1.403 . S
C736 C735 1.403 . S
C736 C737 1.404 . S
C736 C739 1.539 . S
C737 C733 1.408 . S
C737 C736 1.404 . S
C737 H749 0.930 . S
C738 C734 1.524 . S
C738 H750 0.956 . S
C738 H751 0.961 . S
C738 H752 0.961 . S
C739 C736 1.539 . S
C739 H753 0.958 . S
C739 H754 0.961 . S
C739 H755 0.960 . S
H740 C724 0.931 . S
H741 C729 0.929 . S
H742 C730 0.960 . S
H743 C730 0.962 . S
H744 C730 0.960 . S
H745 C731 0.961 . S
H746 C731 0.961 . S
H747 C731 0.961 . S
H748 C732 0.931 . S
H749 C737 0.930 . S
H750 C738 0.956 . S
H751 C738 0.961 . S
H752 C738 0.961 . S
H753 C739 0.958 . S
H754 C739 0.961 . S
H755 C739 0.960 . S
C756 C757 1.391 . S
C756 C758 1.394 . S
C756 H772 0.931 . S
C757 C756 1.391 . S
C757 C761 1.376 . S
C758 C756 1.394 . S
C758 C759 1.369 . S
C758 C762 1.531 . S
C759 C758 1.369 . S
C759 C760 1.410 . S
C759 C767 1.503 . S
C760 C759 1.410 . S
C760 C761 1.392 . S
C760 C763 1.511 . S
C761 C757 1.376 . S
C761 C760 1.392 . S
C761 H773 0.929 . S
C762 C758 1.531 . S
C762 H774 0.960 . S
C762 H775 0.962 . S
C762 H776 0.960 . S
C763 C760 1.511 . S
C763 H777 0.961 . S
C763 H778 0.961 . S
C763 H779 0.961 . S
C764 C765 1.370 . S
C764 C766 1.363 . S
C764 H780 0.931 . S
C765 C764 1.370 . S
C765 C769 1.408 . S
C766 C764 1.363 . S
C766 C767 1.370 . S
C766 C770 1.524 . S
C767 C759 1.503 . S
C767 C766 1.370 . S
C767 C768 1.403 . S
C768 C767 1.403 . S
C768 C769 1.404 . S
C768 C771 1.539 . S
C769 C765 1.408 . S
C769 C768 1.404 . S
C769 H781 0.930 . S
C770 C766 1.524 . S
C770 H782 0.956 . S
C770 H783 0.961 . S
C770 H784 0.961 . S
C771 C768 1.539 . S
C771 H785 0.958 . S
C771 H786 0.961 . S
C771 H787 0.960 . S
H772 C756 0.931 . S
H773 C761 0.929 . S
H774 C762 0.960 . S
H775 C762 0.962 . S
H776 C762 0.960 . S
H777 C763 0.961 . S
H778 C763 0.961 . S
H779 C763 0.961 . S
H780 C764 0.931 . S
H781 C769 0.930 . S
H782 C770 0.956 . S
H783 C770 0.961 . S
H784 C770 0.961 . S
H785 C771 0.958 . S
H786 C771 0.961 . S
H787 C771 0.960 . S
C788 C789 1.391 . S
C788 C790 1.394 . S
C788 H804 0.931 . S
C789 C788 1.391 . S
C789 C793 1.376 . S
C790 C788 1.394 . S
C790 C791 1.369 . S
C790 C794 1.531 . S
C791 C790 1.369 . S
C791 C792 1.410 . S
C791 C799 1.503 . S
C792 C791 1.410 . S
C792 C793 1.392 . S
C792 C795 1.511 . S
C793 C789 1.376 . S
C793 C792 1.392 . S
C793 H805 0.929 . S
C794 C790 1.531 . S
C794 H806 0.960 . S
C794 H807 0.962 . S
C794 H808 0.960 . S
C795 C792 1.511 . S
C795 H809 0.961 . S
C795 H810 0.961 . S
C795 H811 0.961 . S
C796 C797 1.370 . S
C796 C798 1.363 . S
C796 H812 0.931 . S
C797 C796 1.370 . S
C797 C801 1.408 . S
C798 C796 1.363 . S
C798 C799 1.370 . S
C798 C802 1.524 . S
C799 C791 1.503 . S
C799 C798 1.370 . S
C799 C800 1.403 . S
C800 C799 1.403 . S
C800 C801 1.404 . S
C800 C803 1.539 . S
C801 C797 1.408 . S
C801 C800 1.404 . S
C801 H813 0.930 . S
C802 C798 1.524 . S
C802 H814 0.956 . S
C802 H815 0.961 . S
C802 H816 0.961 . S
C803 C800 1.539 . S
C803 H817 0.958 . S
C803 H818 0.961 . S
C803 H819 0.960 . S
H804 C788 0.931 . S
H805 C793 0.929 . S
H806 C794 0.960 . S
H807 C794 0.962 . S
H808 C794 0.960 . S
H809 C795 0.961 . S
H810 C795 0.961 . S
H811 C795 0.961 . S
H812 C796 0.931 . S
H813 C801 0.930 . S
H814 C802 0.956 . S
H815 C802 0.961 . S
H816 C802 0.961 . S
H817 C803 0.958 . S
H818 C803 0.961 . S
H819 C803 0.960 . S
C820 C821 1.391 . S
C820 C822 1.394 . S
C820 H836 0.931 . S
C821 C820 1.391 . S
C821 C825 1.376 . S
C822 C820 1.394 . S
C822 C823 1.369 . S
C822 C826 1.531 1_656 S
C823 C822 1.369 . S
C823 C824 1.410 . S
C823 C831 1.503 . S
C824 C823 1.410 . S
C824 C825 1.392 . S
C824 C827 1.511 . S
C825 C821 1.376 . S
C825 C824 1.392 . S
C825 H837 0.929 . S
C826 C822 1.531 1_454 S
C826 H838 0.960 . S
C826 H839 0.962 1_554 S
C826 H840 0.960 . S
C827 C824 1.511 . S
C827 H841 0.961 . S
C827 H842 0.961 . S
C827 H843 0.961 . S
C828 C829 1.370 . S
C828 C830 1.363 . S
C828 H844 0.931 1_655 S
C829 C828 1.370 . S
C829 C833 1.408 1_556 S
C830 C828 1.363 . S
C830 C831 1.370 . S
C830 C834 1.520 1_655 S
C831 C823 1.503 . S
C831 C830 1.370 . S
C831 C832 1.403 1_556 S
C832 C831 1.403 1_554 S
C832 C833 1.404 . S
C832 C835 1.539 . S
C833 C829 1.408 1_554 S
C833 C832 1.404 . S
C833 H845 0.930 . S
C834 C830 1.520 1_455 S
C834 H846 0.964 . S
C834 H847 0.949 1_455 S
C834 H848 0.968 . S
C835 C832 1.539 . S
C835 H849 0.958 . S
C835 H850 0.961 . S
C835 H851 0.960 . S
H836 C820 0.931 . S
H837 C825 0.929 . S
H838 C826 0.960 . S
H839 C826 0.962 1_556 S
H840 C826 0.960 . S
H841 C827 0.961 . S
H842 C827 0.961 . S
H843 C827 0.961 . S
H844 C828 0.931 1_455 S
H845 C833 0.930 . S
H846 C834 0.964 . S
H847 C834 0.949 1_655 S
H848 C834 0.968 . S
H849 C835 0.958 . S
H850 C835 0.961 . S
H851 C835 0.960 . S
C852 C853 1.391 . S
C852 C854 1.394 . S
C852 H868 0.931 . S
C853 C852 1.391 . S
C853 C857 1.376 . S
C854 C852 1.394 . S
C854 C855 1.369 . S
C854 C858 1.531 . S
C855 C854 1.369 . S
C855 C856 1.410 . S
C855 C863 1.503 . S
C856 C855 1.410 . S
C856 C857 1.392 . S
C856 C859 1.511 . S
C857 C853 1.376 . S
C857 C856 1.392 . S
C857 H869 0.929 . S
C858 C854 1.531 . S
C858 H870 0.960 . S
C858 H871 0.962 . S
C858 H872 0.960 . S
C859 C856 1.511 . S
C859 H873 0.961 . S
C859 H874 0.961 . S
C859 H875 0.961 . S
C860 C861 1.370 . S
C860 C862 1.363 . S
C860 H876 0.931 . S
C861 C860 1.370 . S
C861 C865 1.408 . S
C862 C860 1.363 . S
C862 C863 1.370 . S
C862 C866 1.524 . S
C863 C855 1.503 . S
C863 C862 1.370 . S
C863 C864 1.403 . S
C864 C863 1.403 . S
C864 C865 1.404 . S
C864 C867 1.539 . S
C865 C861 1.408 . S
C865 C864 1.404 . S
C865 H877 0.930 . S
C866 C862 1.524 . S
C866 H878 0.956 . S
C866 H879 0.961 . S
C866 H880 0.961 . S
C867 C864 1.539 . S
C867 H881 0.958 . S
C867 H882 0.961 . S
C867 H883 0.960 . S
H868 C852 0.931 . S
H869 C857 0.929 . S
H870 C858 0.960 . S
H871 C858 0.962 . S
H872 C858 0.960 . S
H873 C859 0.961 . S
H874 C859 0.961 . S
H875 C859 0.961 . S
H876 C860 0.931 . S
H877 C865 0.930 . S
H878 C866 0.956 . S
H879 C866 0.961 . S
H880 C866 0.961 . S
H881 C867 0.958 . S
H882 C867 0.961 . S
H883 C867 0.960 . S
C884 C885 1.391 . S
C884 C886 1.394 . S
C884 H900 0.931 . S
C885 C884 1.391 . S
C885 C889 1.376 . S
C886 C884 1.394 . S
C886 C887 1.369 . S
C886 C890 1.531 . S
C887 C886 1.369 . S
C887 C888 1.410 . S
C887 C895 1.503 . S
C888 C887 1.410 . S
C888 C889 1.392 . S
C888 C891 1.511 . S
C889 C885 1.376 . S
C889 C888 1.392 . S
C889 H901 0.929 . S
C890 C886 1.531 . S
C890 H902 0.960 . S
C890 H903 0.962 . S
C890 H904 0.960 . S
C891 C888 1.511 . S
C891 H905 0.961 . S
C891 H906 0.961 . S
C891 H907 0.961 . S
C892 C893 1.370 . S
C892 C894 1.363 . S
C892 H908 0.931 . S
C893 C892 1.370 . S
C893 C897 1.408 . S
C894 C892 1.363 . S
C894 C895 1.370 . S
C894 C898 1.524 . S
C895 C887 1.503 . S
C895 C894 1.370 . S
C895 C896 1.403 . S
C896 C895 1.403 . S
C896 C897 1.404 . S
C896 C899 1.539 . S
C897 C893 1.408 . S
C897 C896 1.404 . S
C897 H909 0.930 . S
C898 C894 1.524 . S
C898 H910 0.956 . S
C898 H911 0.961 . S
C898 H912 0.960 . S
C899 C896 1.539 . S
C899 H913 0.958 . S
C899 H914 0.961 . S
C899 H915 0.960 . S
H900 C884 0.931 . S
H901 C889 0.929 . S
H902 C890 0.960 . S
H903 C890 0.962 . S
H904 C890 0.960 . S
H905 C891 0.961 . S
H906 C891 0.961 . S
H907 C891 0.961 . S
H908 C892 0.931 . S
H909 C897 0.930 . S
H910 C898 0.956 . S
H911 C898 0.961 . S
H912 C898 0.960 . S
H913 C899 0.958 . S
H914 C899 0.961 . S
H915 C899 0.960 . S
C916 C917 1.391 . S
C916 C918 1.394 . S
C916 H932 0.931 . S
C917 C916 1.391 . S
C917 C921 1.376 . S
C918 C916 1.394 . S
C918 C919 1.369 . S
C918 C922 1.531 . S
C919 C918 1.369 . S
C919 C920 1.410 . S
C919 C927 1.503 . S
C920 C919 1.410 . S
C920 C921 1.392 . S
C920 C923 1.511 . S
C921 C917 1.376 . S
C921 C920 1.392 . S
C921 H933 0.929 . S
C922 C918 1.531 . S
C922 H934 0.960 . S
C922 H935 0.962 . S
C922 H936 0.960 . S
C923 C920 1.511 . S
C923 H937 0.961 . S
C923 H938 0.961 . S
C923 H939 0.961 . S
C924 C925 1.370 . S
C924 C926 1.363 . S
C924 H940 0.931 . S
C925 C924 1.370 . S
C925 C929 1.408 . S
C926 C924 1.363 . S
C926 C927 1.370 . S
C926 C930 1.524 . S
C927 C919 1.503 . S
C927 C926 1.370 . S
C927 C928 1.403 . S
C928 C927 1.403 . S
C928 C929 1.404 . S
C928 C931 1.539 . S
C929 C925 1.408 . S
C929 C928 1.404 . S
C929 H941 0.930 . S
C930 C926 1.524 . S
C930 H942 0.956 . S
C930 H943 0.961 . S
C930 H944 0.961 . S
C931 C928 1.539 . S
C931 H945 0.958 . S
C931 H946 0.961 . S
C931 H947 0.960 . S
H932 C916 0.931 . S
H933 C921 0.929 . S
H934 C922 0.960 . S
H935 C922 0.962 . S
H936 C922 0.960 . S
H937 C923 0.961 . S
H938 C923 0.961 . S
H939 C923 0.961 . S
H940 C924 0.931 . S
H941 C929 0.930 . S
H942 C930 0.956 . S
H943 C930 0.961 . S
H944 C930 0.961 . S
H945 C931 0.958 . S
H946 C931 0.961 . S
H947 C931 0.960 . S
C181 C4 1.757 . S
C189 C106 1.740 . S
C213 C16 1.918 . S
C221 C130 1.864 . S
C253 C150 1.037 . S
C245 C32 1.039 . S
C277 C43 1.287 . S
C285 C173 1.316 . S
C317 C132 2.090 . S
C309 C5 2.105 . S
C349 C108 1.425 . S
C341 C21 1.469 . S
C381 C176 1.439 . S
C373 C27 1.492 . S
C413 C153 1.422 . S
C405 C37 1.424 . S
C437 C10 1.481 . S
C445 C178 1.433 . S
C477 C127 1.696 . S
C469 C26 1.668 . S
C501 C38 1.352 . S
C509 C105 1.372 . S
C533 C15 1.585 . S
C541 C155 1.559 . S
C573 C109 1.912 . S
C565 C48 1.898 . S
C597 C59 1.640 . S
C605 C131 1.674 . S
C629 C76 1.543 . S
C637 C151 1.596 . S
C661 C87 1.379 . S
C669 C174 1.430 . S
C693 C54 1.378 . S
C701 C129 1.375 . S
C733 C107 1.888 . S
C725 C60 1.901 . S
C765 C177 1.364 . S
C757 C71 1.378 . S
C797 C154 1.325 . S
C789 C82 1.359 . S
C821 C49 2.042 . S
C829 C175 2.034 . S
C861 C128 1.255 . S
C853 C70 1.217 . S
C893 C104 1.592 . S
C885 C81 1.578 . S
C917 C65 1.733 . S
C925 C152 1.707 . S
