# Generated by pormake.
# Topology rtl, (3,6)-cn, num edge types: 1
# Building blocks:
#     Node 0, Type 0, BuildingBlock: MIDCAF_clean_linker_0, # of connection points: 3
#     Node 1, Type 0, BuildingBlock: MIDCAF_clean_linker_0, # of connection points: 3
#     Node 2, Type 0, BuildingBlock: MIDCAF_clean_linker_0, # of connection points: 3
#     Node 3, Type 0, BuildingBlock: MIDCAF_clean_linker_0, # of connection points: 3
#     Node 4, Type 1, BuildingBlock: CIFDUS_clean_sbu_1, # of connection points: 6
#     Node 5, Type 1, BuildingBlock: CIFDUS_clean_sbu_1, # of connection points: 6
#     Edge 6, Type (0, 1), BuildingBlock: UVAHIK_clean_linker_0, # of connection points: 2
#     Edge 7, Type (0, 1), BuildingBlock: UVAHIK_clean_linker_0, # of connection points: 2
#     Edge 8, Type (0, 1), BuildingBlock: UVAHIK_clean_linker_0, # of connection points: 2
#     Edge 9, Type (0, 1), BuildingBlock: UVAHIK_clean_linker_0, # of connection points: 2
#     Edge 10, Type (0, 1), BuildingBlock: UVAHIK_clean_linker_0, # of connection points: 2
#     Edge 11, Type (0, 1), BuildingBlock: UVAHIK_clean_linker_0, # of connection points: 2
#     Edge 12, Type (0, 1), BuildingBlock: UVAHIK_clean_linker_0, # of connection points: 2
#     Edge 13, Type (0, 1), BuildingBlock: UVAHIK_clean_linker_0, # of connection points: 2
#     Edge 14, Type (0, 1), BuildingBlock: UVAHIK_clean_linker_0, # of connection points: 2
#     Edge 15, Type (0, 1), BuildingBlock: UVAHIK_clean_linker_0, # of connection points: 2
#     Edge 16, Type (0, 1), BuildingBlock: UVAHIK_clean_linker_0, # of connection points: 2
#     Edge 17, Type (0, 1), BuildingBlock: UVAHIK_clean_linker_0, # of connection points: 2
# Relax obj value: 0.029
# Max RMSD: 0.064
# Mean RMSD: 0.049
data_MOF--net-rtl--node1-CIFDUS_clean_sbu_1--node2-MIDCAF_clean_linker_0--edge1-UVAHIK_clean_linker_0
_symmetry_space_group_name_H-M    P1
_symmetry_Int_Tables_number       1
_symmetry_cell_setting            triclinic
loop_
_symmetry_equiv_pos_as_xyz
'x, y, z'
_cell_length_a     46.368178
_cell_length_b     52.502132
_cell_length_c     36.719987
_cell_angle_alpha  89.986279
_cell_angle_beta   98.017059
_cell_angle_gamma 89.74751
loop_
_atom_site_label
_atom_site_type_symbol
_atom_site_fract_x
_atom_site_fract_y
_atom_site_fract_z
_atom_type_partial_charge
C0 C 0.19112 0.9165 0.1894 0.0
C1 C 0.20389 0.90875 0.22468 0.0
C2 C 0.22376 0.88828 0.22771 0.0
C3 C 0.23046 0.87573 0.19634 0.0
H4 H 0.26014 0.80474 0.15951 0.0
H5 H 0.29327 0.76814 0.16668 0.0
H6 H 0.31668 0.78221 0.05884 0.0
H7 H 0.28311 0.81856 0.05117 0.0
H8 H 0.2233 0.84434 0.99533 0.0
H9 H 0.20133 0.8596 0.93484 0.0
H10 H 0.16246 0.92263 0.98613 0.0
H11 H 0.18452 0.90776 0.04624 0.0
H12 H 0.18736 0.91039 0.13135 0.0
H13 H 0.17541 0.93194 0.18601 0.0
H14 H 0.23432 0.88201 0.2544 0.0
H15 H 0.24583 0.86003 0.19987 0.0
N16 N 0.2424 0.84919 0.13091 0.0
N17 N 0.2374 0.84531 0.06663 0.0
N18 N 0.2128 0.87789 0.0936 0.0
C19 C 0.24907 0.83689 0.10059 0.0
C20 C 0.21908 0.86577 0.0629 0.0
C21 C 0.22439 0.8698 0.1277 0.0
C22 C 0.26898 0.81456 0.10474 0.0
C23 C 0.27232 0.80004 0.13729 0.0
C24 C 0.29118 0.77904 0.14139 0.0
C25 C 0.30756 0.77245 0.11338 0.0
C26 C 0.30442 0.78703 0.08095 0.0
C27 C 0.28509 0.80771 0.0765 0.0
C28 C 0.20584 0.87482 0.02585 0.0
C29 C 0.21012 0.86149 0.99374 0.0
C30 C 0.19738 0.87014 0.95903 0.0
C31 C 0.18024 0.8924 0.95559 0.0
C32 C 0.1759 0.90563 0.98768 0.0
C33 C 0.18848 0.89697 0.02228 0.0
C34 C 0.21749 0.88333 0.16104 0.0
C35 C 0.19784 0.90397 0.158 0.0
C36 C 0.63958 0.66068 0.46643 0.0
C37 C 0.65031 0.66921 0.43456 0.0
C38 C 0.67444 0.68568 0.43868 0.0
C39 C 0.6876 0.69318 0.47368 0.0
H40 H 0.72664 0.7584 0.53449 0.0
H41 H 0.75662 0.79657 0.54574 0.0
H42 H 0.79081 0.76828 0.65361 0.0
H43 H 0.76102 0.73025 0.64261 0.0
H44 H 0.71964 0.69326 0.67916 0.0
H45 H 0.70687 0.67138 0.733 0.0
H46 H 0.65352 0.61887 0.66289 0.0
H47 H 0.66638 0.64061 0.60867 0.0
H48 H 0.64409 0.66081 0.52517 0.0
H49 H 0.62066 0.64848 0.46451 0.0
H50 H 0.68363 0.69239 0.41492 0.0
H51 H 0.70632 0.70563 0.47581 0.0
N52 N 0.70946 0.7119 0.54752 0.0
N53 N 0.71759 0.70414 0.61103 0.0
N54 N 0.68681 0.67733 0.57246 0.0
C55 C 0.72254 0.71842 0.58174 0.0
C56 C 0.69981 0.68358 0.60674 0.0
C57 C 0.69159 0.69131 0.54269 0.0
C58 C 0.74139 0.74123 0.58762 0.0
C59 C 0.74063 0.76026 0.56054 0.0
C60 C 0.7576 0.78221 0.56708 0.0
C61 C 0.77596 0.78542 0.60061 0.0
C62 C 0.77699 0.76627 0.62745 0.0
C63 C 0.7598 0.74451 0.62113 0.0
C64 C 0.69379 0.66892 0.63942 0.0
C65 C 0.70538 0.67692 0.67502 0.0
C66 C 0.69803 0.66443 0.70598 0.0
C67 C 0.67906 0.64353 0.70217 0.0
C68 C 0.66838 0.63482 0.66668 0.0
C69 C 0.6756 0.64741 0.63561 0.0
C70 C 0.67719 0.68415 0.50544 0.0
C71 C 0.65295 0.66789 0.50135 0.0
C72 C 0.81816 0.11629 0.90152 0.0
C73 C 0.80199 0.12186 0.86708 0.0
C74 C 0.77901 0.13961 0.86555 0.0
C75 C 0.77302 0.15207 0.89734 0.0
H76 H 0.72105 0.2091 0.93541 0.0
H77 H 0.69203 0.24821 0.92778 0.0
H78 H 0.73604 0.27616 0.03124 0.0
H79 H 0.76485 0.23692 0.0393 0.0
H80 H 0.79223 0.19016 0.09673 0.0
H81 H 0.81362 0.17447 0.15717 0.0
H82 H 0.84816 0.10911 0.10615 0.0
H83 H 0.82663 0.12444 0.046 0.0
H84 H 0.82538 0.12418 0.95922 0.0
H85 H 0.83627 0.10302 0.90381 0.0
H86 H 0.7657 0.14405 0.83968 0.0
H87 H 0.75542 0.16587 0.89492 0.0
N88 N 0.76739 0.18252 0.96191 0.0
N89 N 0.77671 0.18876 0.02578 0.0
N90 N 0.79747 0.15391 0.9988 0.0
C91 C 0.76346 0.1964 0.99209 0.0
C92 C 0.79362 0.16739 0.02941 0.0
C93 C 0.78447 0.16132 0.96497 0.0
C94 C 0.74531 0.21987 0.98798 0.0
C95 C 0.72452 0.22354 0.95661 0.0
C96 C 0.7078 0.24588 0.95226 0.0
C97 C 0.71188 0.26524 0.97883 0.0
C98 C 0.73263 0.26162 0.01018 0.0
C99 C 0.74898 0.23908 0.01488 0.0
C100 C 0.80749 0.15854 0.06631 0.0
C101 C 0.80443 0.17247 0.09834 0.0
C102 C 0.81684 0.16355 0.13303 0.0
C103 C 0.83245 0.14044 0.13656 0.0
C104 C 0.83587 0.12676 0.10452 0.0
C105 C 0.8236 0.13568 0.06991 0.0
C106 C 0.78968 0.14696 0.9316 0.0
C107 C 0.81202 0.1286 0.93337 0.0
C108 C 0.3533 0.37401 0.61786 0.0
C109 C 0.34308 0.36319 0.64864 0.0
C110 C 0.32048 0.34524 0.64291 0.0
C111 C 0.30849 0.33819 0.60726 0.0
H112 H 0.23706 0.29788 0.54173 0.0
H113 H 0.20174 0.26323 0.52914 0.0
H114 H 0.2361 0.24566 0.42879 0.0
H115 H 0.27084 0.28072 0.44057 0.0
H116 H 0.29266 0.33184 0.40203 0.0
H117 H 0.30624 0.35362 0.3486 0.0
H118 H 0.34677 0.41327 0.4185 0.0
H119 H 0.33304 0.39154 0.4724 0.0
H120 H 0.34967 0.37588 0.55924 0.0
H121 H 0.37041 0.38814 0.62131 0.0
H122 H 0.31226 0.33642 0.66604 0.0
H123 H 0.29121 0.32423 0.60396 0.0
N124 N 0.28742 0.32143 0.53302 0.0
N125 N 0.2852 0.32616 0.4692 0.0
N126 N 0.31413 0.35372 0.50887 0.0
C127 C 0.27694 0.31371 0.49838 0.0
C128 C 0.30356 0.3463 0.47411 0.0
C129 C 0.30627 0.34132 0.53852 0.0
C130 C 0.25663 0.29203 0.49209 0.0
C131 C 0.23715 0.28656 0.51708 0.0
C132 C 0.21691 0.26688 0.50985 0.0
C133 C 0.21635 0.25197 0.47802 0.0
C134 C 0.23624 0.25697 0.4535 0.0
C135 C 0.25598 0.27702 0.46024 0.0
C136 C 0.31186 0.35985 0.44167 0.0
C137 C 0.30441 0.34962 0.4062 0.0
C138 C 0.31228 0.36205 0.3755 0.0
C139 C 0.32764 0.38509 0.37939 0.0
C140 C 0.33474 0.39561 0.41468 0.0
C141 C 0.32706 0.38305 0.44555 0.0
C142 C 0.31868 0.34905 0.57643 0.0
C143 C 0.3412 0.3671 0.58222 0.0
O144 O 0.97991 0.02617 0.49517 0.0
Mn145 Mn 0.00331 0.01346 0.54482 0.0
O146 O 0.96891 0.99128 0.46027 0.0
Mn147 Mn 0.99016 0.96779 0.49137 0.0
O148 O 0.02684 0.00066 0.59463 0.0
O149 O 0.01949 0.0484 0.55351 0.0
Mn150 Mn 0.01728 0.05902 0.59834 0.0
O151 O 0.96746 0.02242 0.57195 0.0
O152 O 0.03926 0.0357 0.6286 0.0
O153 O 0.03927 0.00462 0.51768 0.0
O154 O 0.02972 0.96693 0.48938 0.0
O155 O 0.03457 0.085 0.57509 0.0
O156 O 0.97789 0.05953 0.60169 0.0
C157 C 0.97396 0.95765 0.54152 0.0
C158 C 0.96764 0.01532 0.46558 0.0
C159 C 0.03996 0.01162 0.62371 0.0
C160 C 0.03159 0.06964 0.54733 0.0
C161 C 0.96044 0.0415 0.59097 0.0
C162 C 0.04683 0.98531 0.49948 0.0
O163 O 0.98697 0.97856 0.53592 0.0
O164 O 0.97188 0.94208 0.51401 0.0
O165 O 0.52068 0.53987 0.08209 0.0
Mn166 Mn 0.50105 0.51483 0.04137 0.0
O167 O 0.5534 0.51691 0.11991 0.0
Mn168 Mn 0.54028 0.48531 0.10259 0.0
O169 O 0.48137 0.48953 0.00089 0.0
O170 O 0.46963 0.541 0.02831 0.0
Mn171 Mn 0.46033 0.54344 0.98038 0.0
O172 O 0.5258 0.53062 0.0037 0.0
O173 O 0.44653 0.51168 0.96517 0.0
O174 O 0.47597 0.49917 0.0788 0.0
O175 O 0.5058 0.47421 0.1174 0.0
O176 O 0.43712 0.56675 0.00054 0.0
O177 O 0.49455 0.55381 0.96397 0.0
C178 C 0.55191 0.47136 0.05179 0.0
C179 C 0.54131 0.538 0.10936 0.0
C180 C 0.45953 0.49088 0.97512 0.0
C181 C 0.45106 0.55892 0.0315 0.0
C182 C 0.52016 0.54591 0.97624 0.0
C183 C 0.4806 0.48309 0.10539 0.0
O184 O 0.5325 0.48867 0.05451 0.0
O185 O 0.56465 0.46281 0.083 0.0
C186 C 0.16495 0.23733 0.46421 0.0
C187 C 0.19473 0.23146 0.47021 0.0
C188 C 0.14432 0.21792 0.4582 0.0
C189 C 0.13577 0.14735 0.44231 0.0
H190 H 0.06774 0.1583 0.49083 0.0
C191 C 0.07191 0.0714 0.51042 0.0
C192 C 0.04265 0.07664 0.51331 0.0
C193 C 0.08742 0.0874 0.4897 0.0
C194 C 0.0862 0.15502 0.47628 0.0
H195 H 0.22664 0.20109 0.47394 0.0
H196 H 0.19073 0.16694 0.46561 0.0
H197 H 0.10125 0.19286 0.48688 0.0
H198 H 0.00562 0.10054 0.49397 0.0
H199 H 0.03235 0.12813 0.45699 0.0
H200 H 0.12131 0.10864 0.43445 0.0
C201 C 0.18305 0.18646 0.46418 0.0
C202 C 0.10557 0.17498 0.47398 0.0
C203 C 0.20369 0.20596 0.46935 0.0
C204 C 0.0281 0.09597 0.49163 0.0
C205 C 0.04351 0.11192 0.47087 0.0
C206 C 0.1165 0.12717 0.44515 0.0
C207 C 0.15302 0.19214 0.45905 0.0
C208 C 0.13095 0.17138 0.45758 0.0
C209 C 0.07378 0.10893 0.472 0.0
C210 C 0.09173 0.13073 0.4627 0.0
H211 H 0.15765 0.25696 0.46425 0.0
H212 H 0.12151 0.2232 0.45337 0.0
H213 H 0.15475 0.14392 0.42884 0.0
H214 H 0.08364 0.05686 0.52753 0.0
H215 H 0.1107 0.08458 0.49115 0.0
C216 C 0.35678 0.75297 0.11168 0.0
C217 C 0.32775 0.75032 0.11779 0.0
C218 C 0.37557 0.73192 0.11453 0.0
C219 C 0.38197 0.6633 0.14457 0.0
H220 H 0.43469 0.66009 0.07157 0.0
C221 C 0.42044 0.57247 0.07769 0.0
C222 C 0.44776 0.57266 0.06542 0.0
C223 C 0.41149 0.5931 0.0975 0.0
C224 C 0.42062 0.66083 0.09276 0.0
H225 H 0.29557 0.72375 0.13205 0.0
H226 H 0.32775 0.68672 0.13529 0.0
H227 H 0.40717 0.69871 0.07782 0.0
H228 H 0.48809 0.5933 0.06651 0.0
H229 H 0.47269 0.62933 0.10153 0.0
H230 H 0.39424 0.62446 0.15736 0.0
C231 C 0.33654 0.70512 0.12954 0.0
C232 C 0.40472 0.68311 0.0964 0.0
C233 C 0.31794 0.72631 0.1274 0.0
C234 C 0.46716 0.5925 0.07642 0.0
C235 C 0.45817 0.61327 0.09598 0.0
C236 C 0.39761 0.64081 0.14048 0.0
C237 C 0.36559 0.70754 0.12275 0.0
C238 C 0.38471 0.68457 0.12185 0.0
C239 C 0.42958 0.61446 0.1047 0.0
C240 C 0.41675 0.63921 0.11408 0.0
H241 H 0.36498 0.77139 0.10477 0.0
H242 H 0.39789 0.73481 0.10999 0.0
H243 H 0.36731 0.66379 0.16506 0.0
H244 H 0.40489 0.55763 0.06871 0.0
H245 H 0.38931 0.59347 0.10362 0.0
C246 C 0.78251 0.83285 0.59916 0.0
C247 C 0.79428 0.8085 0.60748 0.0
C248 C 0.80004 0.8545 0.60481 0.0
C249 C 0.87364 0.87678 0.64831 0.0
H250 H 0.86343 0.92569 0.56848 0.0
C251 C 0.96486 0.92884 0.59141 0.0
C252 C 0.95901 0.95214 0.57322 0.0
C253 C 0.94394 0.91752 0.60996 0.0
C254 C 0.86623 0.91269 0.59163 0.0
H255 H 0.83355 0.78772 0.6285 0.0
H256 H 0.86436 0.82523 0.63723 0.0
H257 H 0.82736 0.89277 0.57108 0.0
H258 H 0.92805 0.9831 0.56262 0.0
H259 H 0.89134 0.96344 0.59534 0.0
H260 H 0.91377 0.89587 0.66717 0.0
C261 C 0.84143 0.82786 0.6274 0.0
C262 C 0.84548 0.89366 0.59309 0.0
C263 C 0.82382 0.80628 0.62214 0.0
C264 C 0.93327 0.96535 0.57716 0.0
C265 C 0.91212 0.95391 0.59542 0.0
C266 C 0.89458 0.89572 0.64664 0.0
C267 C 0.82987 0.85228 0.61849 0.0
C268 C 0.8494 0.87489 0.6207 0.0
C269 C 0.91657 0.92916 0.60997 0.0
C270 C 0.89157 0.91335 0.61755 0.0
H271 H 0.75968 0.83516 0.58836 0.0
H272 H 0.79023 0.87298 0.59818 0.0
H273 H 0.87703 0.86306 0.67053 0.0
H274 H 0.98441 0.91818 0.58818 0.0
H275 H 0.94805 0.89843 0.62067 0.0
C276 C 0.70858 0.31291 0.97844 0.0
C277 C 0.69465 0.28921 0.97388 0.0
C278 C 0.69237 0.33552 0.975 0.0
C279 C 0.61743 0.36217 0.94496 0.0
H280 H 0.64455 0.41474 0.01535 0.0
C281 C 0.54606 0.4377 0.00476 0.0
C282 C 0.55941 0.46055 0.01751 0.0
C283 C 0.56128 0.4199 0.98624 0.0
C284 C 0.63689 0.40058 0.99485 0.0
H285 H 0.65288 0.27056 0.96164 0.0
H286 H 0.62438 0.30991 0.95716 0.0
H287 H 0.67403 0.37708 0.01108 0.0
H288 H 0.59744 0.48418 0.01741 0.0
H289 H 0.6237 0.45358 0.98405 0.0
H290 H 0.57927 0.38544 0.93057 0.0
C291 C 0.64789 0.31122 0.96231 0.0
C292 C 0.6539 0.37882 0.99239 0.0
C293 C 0.66418 0.2886 0.96514 0.0
C294 C 0.58655 0.46681 0.00735 0.0
C295 C 0.60175 0.4491 0.98879 0.0
C296 C 0.60018 0.38392 0.94776 0.0
C297 C 0.66172 0.33503 0.96762 0.0
C298 C 0.64432 0.35909 0.96777 0.0
C299 C 0.59012 0.42473 0.98046 0.0
C300 C 0.6096 0.40326 0.97306 0.0
H301 H 0.73208 0.31394 0.98458 0.0
H302 H 0.70397 0.3534 0.97838 0.0
H303 H 0.60948 0.34764 0.92521 0.0
H304 H 0.52537 0.43228 0.01296 0.0
H305 H 0.55165 0.40135 0.9802 0.0
C306 C 0.1915 0.94799 0.25909 0.0
C307 C 0.19586 0.92146 0.25818 0.0
C308 C 0.18264 0.95966 0.29 0.0
C309 C 0.176 0.94884 0.38876 0.0
H310 H 0.11141 0.99638 0.3703 0.0
C311 C 0.08979 0.96143 0.48418 0.0
C312 C 0.07522 0.98481 0.4857 0.0
C313 C 0.11194 0.95863 0.46238 0.0
C314 C 0.12993 0.98365 0.37614 0.0
H315 H 0.19438 0.8865 0.28935 0.0
H316 H 0.17898 0.90676 0.34301 0.0
H317 H 0.13553 0.98167 0.31935 0.0
H318 H 0.07352 0.02406 0.46752 0.0
H319 H 0.11256 0.01928 0.42928 0.0
H320 H 0.16953 0.95002 0.44537 0.0
C321 C 0.1829 0.91866 0.32013 0.0
C322 C 0.14372 0.97513 0.34684 0.0
C323 C 0.19171 0.907 0.28926 0.0
C324 C 0.08473 0.00594 0.46725 0.0
C325 C 0.10678 0.00308 0.44498 0.0
C326 C 0.1622 0.95736 0.41806 0.0
C327 C 0.17798 0.9451 0.32079 0.0
C328 C 0.16631 0.95699 0.35261 0.0
C329 C 0.11982 0.97911 0.44121 0.0
C330 C 0.13837 0.97423 0.41192 0.0
H331 H 0.19496 0.95977 0.23589 0.0
H332 H 0.17937 0.9801 0.28975 0.0
H333 H 0.19376 0.93529 0.39429 0.0
H334 H 0.08274 0.94482 0.49803 0.0
H335 H 0.12125 0.93985 0.45996 0.0
C336 C 0.66654 0.60564 0.73898 0.0
C337 C 0.66868 0.63219 0.73501 0.0
C338 C 0.65476 0.59532 0.76884 0.0
C339 C 0.6017 0.61117 0.82878 0.0
H340 H 0.63576 0.55718 0.8932 0.0
C341 C 0.5456 0.58127 0.94985 0.0
C342 C 0.54401 0.5552 0.95735 0.0
C343 C 0.56473 0.59019 0.92675 0.0
C344 C 0.62581 0.57207 0.87521 0.0
H345 H 0.66054 0.66867 0.75941 0.0
H346 H 0.63983 0.6507 0.81116 0.0
H347 H 0.6618 0.57303 0.84407 0.0
H348 H 0.56185 0.51797 0.94823 0.0
H349 H 0.59463 0.53338 0.90617 0.0
H350 H 0.56533 0.60987 0.85821 0.0
C351 C 0.64741 0.63788 0.79135 0.0
C352 C 0.64077 0.58116 0.8472 0.0
C353 C 0.65944 0.64815 0.76187 0.0
C354 C 0.5629 0.53822 0.94286 0.0
C355 C 0.58166 0.5471 0.91886 0.0
C356 C 0.58664 0.60192 0.85622 0.0
C357 C 0.64455 0.61142 0.79484 0.0
C358 C 0.62894 0.60101 0.82406 0.0
C359 C 0.58208 0.57314 0.90958 0.0
C360 C 0.59859 0.5825 0.88021 0.0
H361 H 0.67368 0.59289 0.7188 0.0
H362 H 0.65265 0.57485 0.77086 0.0
H363 H 0.59181 0.62613 0.81081 0.0
H364 H 0.5314 0.59471 0.96112 0.0
H365 H 0.56519 0.61046 0.92143 0.0
C366 C 0.85871 0.14624 0.20103 0.0
C367 C 0.84465 0.13022 0.17342 0.0
C368 C 0.87058 0.1363 0.23535 0.0
C369 C 0.86633 0.0803 0.29602 0.0
H370 H 0.94388 0.10006 0.34015 0.0
C371 C 0.93421 0.01921 0.40604 0.0
C372 C 0.95156 0.03109 0.43566 0.0
C373 C 0.91981 0.03352 0.37697 0.0
C374 C 0.92202 0.09464 0.32852 0.0
H375 H 0.83147 0.09128 0.16071 0.0
H376 H 0.85238 0.07398 0.22006 0.0
H377 H 0.92123 0.12101 0.28377 0.0
H378 H 0.96711 0.0676 0.45781 0.0
H379 H 0.94182 0.09272 0.40669 0.0
H380 H 0.86722 0.05366 0.34025 0.0
C381 C 0.85414 0.09424 0.21539 0.0
C382 C 0.90903 0.10663 0.29617 0.0
C383 C 0.84245 0.10413 0.18113 0.0
C384 C 0.95389 0.05782 0.43552 0.0
C385 C 0.93955 0.0722 0.40613 0.0
C386 C 0.87927 0.06835 0.32825 0.0
C387 C 0.86841 0.11016 0.24295 0.0
C388 C 0.88127 0.09922 0.27911 0.0
C389 C 0.92234 0.06018 0.37649 0.0
C390 C 0.90752 0.07496 0.3445 0.0
H391 H 0.86096 0.1664 0.19591 0.0
H392 H 0.88126 0.14911 0.25603 0.0
H393 H 0.84466 0.07452 0.28411 0.0
H394 H 0.93183 0.9987 0.40507 0.0
H395 H 0.90715 0.02357 0.35437 0.0
C396 C 0.33729 0.37602 0.71314 0.0
C397 C 0.35559 0.37099 0.68651 0.0
C398 C 0.34886 0.38458 0.74818 0.0
C399 C 0.41661 0.38951 0.8143 0.0
H400 H 0.37776 0.44805 0.84988 0.0
C401 C 0.46847 0.45489 0.93362 0.0
C402 C 0.44953 0.46814 0.95362 0.0
C403 C 0.45725 0.43852 0.90496 0.0
C404 C 0.38862 0.43135 0.84097 0.0
H405 H 0.40053 0.37008 0.67632 0.0
H406 H 0.42073 0.38522 0.73752 0.0
H407 H 0.35768 0.42839 0.79225 0.0
H408 H 0.40462 0.47307 0.96207 0.0
H409 H 0.38516 0.44345 0.91392 0.0
H410 H 0.44771 0.39264 0.86314 0.0
C411 C 0.39742 0.38247 0.73126 0.0
C412 C 0.3771 0.42013 0.80769 0.0
C413 C 0.38582 0.37407 0.69609 0.0
C414 C 0.41961 0.46306 0.9469 0.0
C415 C 0.40848 0.44637 0.91893 0.0
C416 C 0.42808 0.40064 0.84792 0.0
C417 C 0.37902 0.38817 0.75753 0.0
C418 C 0.39098 0.39918 0.79382 0.0
C419 C 0.42693 0.43495 0.89624 0.0
C420 C 0.41426 0.4218 0.86165 0.0
H421 H 0.3139 0.374 0.7066 0.0
H422 H 0.33412 0.3886 0.76791 0.0
H423 H 0.4277 0.37325 0.80442 0.0
H424 H 0.49162 0.4588 0.93807 0.0
H425 H 0.47217 0.43012 0.88813 0.0
C426 C 0.63466 0.6768 0.36663 0.0
C427 C 0.63669 0.6605 0.39739 0.0
C428 C 0.6221 0.66835 0.33183 0.0
C429 C 0.57203 0.6202 0.28602 0.0
H430 H 0.61424 0.62865 0.20281 0.0
C431 C 0.52966 0.57632 0.14513 0.0
C432 C 0.55043 0.56054 0.13199 0.0
C433 C 0.53822 0.59401 0.1731 0.0
C434 C 0.60206 0.62637 0.22571 0.0
H435 H 0.62745 0.62225 0.41501 0.0
H436 H 0.60499 0.60792 0.35478 0.0
H437 H 0.63276 0.64829 0.26188 0.0
H438 H 0.59641 0.55169 0.1361 0.0
H439 H 0.61145 0.58274 0.18433 0.0
H440 H 0.54187 0.59761 0.25037 0.0
C441 C 0.61287 0.62731 0.35772 0.0
C442 C 0.61258 0.6377 0.25945 0.0
C443 C 0.6257 0.63561 0.39234 0.0
C444 C 0.58001 0.5638 0.1456 0.0
C445 C 0.5886 0.58165 0.17314 0.0
C446 C 0.56135 0.60912 0.25223 0.0
C447 C 0.61096 0.64355 0.32707 0.0
C448 C 0.59807 0.63416 0.29021 0.0
C449 C 0.56774 0.59633 0.18811 0.0
C450 C 0.57662 0.61155 0.22194 0.0
H451 H 0.64245 0.6962 0.36944 0.0
H452 H 0.62078 0.68133 0.30871 0.0
H453 H 0.56022 0.61737 0.30916 0.0
H454 H 0.50669 0.5737 0.13578 0.0
H455 H 0.52166 0.60512 0.18403 0.0
C456 C 0.82034 0.08503 0.83227 0.0
C457 C 0.81011 0.11031 0.83276 0.0
C458 C 0.83025 0.07505 0.80085 0.0
C459 C 0.86087 0.09712 0.71912 0.0
H460 H 0.85179 0.02681 0.68734 0.0
C461 C 0.91499 0.06454 0.59811 0.0
C462 C 0.932 0.04242 0.60431 0.0
C463 C 0.89345 0.07003 0.61998 0.0
C464 C 0.85452 0.04649 0.69591 0.0
H465 H 0.80159 0.14458 0.79984 0.0
H466 H 0.81791 0.127 0.74504 0.0
H467 H 0.82716 0.04211 0.73808 0.0
H468 H 0.93877 0.0078 0.63635 0.0
H469 H 0.90137 0.01753 0.67526 0.0
H470 H 0.88873 0.10156 0.67809 0.0
C471 C 0.81878 0.11499 0.76916 0.0
C472 C 0.84047 0.05524 0.72503 0.0
C473 C 0.80903 0.12498 0.80054 0.0
C474 C 0.92551 0.02477 0.63067 0.0
C475 C 0.90417 0.03045 0.65305 0.0
C476 C 0.87481 0.08843 0.69019 0.0
C477 C 0.83013 0.0901 0.76913 0.0
C478 C 0.84362 0.08067 0.73709 0.0
C479 C 0.889 0.05382 0.64919 0.0
C480 C 0.87196 0.063 0.67821 0.0
H481 H 0.82107 0.07302 0.85636 0.0
H482 H 0.83897 0.05586 0.80191 0.0
H483 H 0.86445 0.11662 0.72817 0.0
H484 H 0.91977 0.07847 0.57802 0.0
H485 H 0.88161 0.08785 0.61554 0.0
C486 C 0.34961 0.38295 0.32104 0.0
C487 C 0.33697 0.39755 0.34671 0.0
C488 C 0.35876 0.39442 0.29038 0.0
C489 C 0.38047 0.45661 0.25591 0.0
H490 H 0.37874 0.41825 0.16536 0.0
C491 C 0.43447 0.492 0.13159 0.0
C492 C 0.45612 0.47474 0.12406 0.0
C493 C 0.41376 0.48463 0.1539 0.0
C494 C 0.37907 0.42928 0.19035 0.0
H495 H 0.32355 0.43559 0.36012 0.0
H496 H 0.33916 0.45571 0.30607 0.0
H497 H 0.35356 0.40185 0.21446 0.0
H498 H 0.4722 0.43604 0.13188 0.0
H499 H 0.43558 0.42298 0.16966 0.0
H500 H 0.40635 0.48388 0.2316 0.0
C501 C 0.34244 0.43541 0.30998 0.0
C502 C 0.36491 0.41982 0.21863 0.0
C503 C 0.33349 0.42392 0.34093 0.0
C504 C 0.45578 0.44971 0.1374 0.0
C505 C 0.43476 0.44221 0.15883 0.0
C506 C 0.39431 0.46624 0.22736 0.0
C507 C 0.35529 0.42079 0.28435 0.0
C508 C 0.36635 0.43287 0.25231 0.0
C509 C 0.414 0.45973 0.16803 0.0
C510 C 0.39455 0.45222 0.19485 0.0
H511 H 0.35302 0.36266 0.32507 0.0
H512 H 0.36925 0.3826 0.27188 0.0
H513 H 0.38225 0.46712 0.28148 0.0
H514 H 0.43442 0.51147 0.12176 0.0
H515 H 0.39794 0.49846 0.16069 0.0
C516 C 0.16689 0.92833 0.91126 0.0
C517 C 0.16696 0.90209 0.91886 0.0
C518 C 0.15313 0.93783 0.87773 0.0
C519 C 0.12427 0.92044 0.78176 0.0
H520 H 0.08075 0.98329 0.78657 0.0
C521 C 0.0529 0.96947 0.6557 0.0
C522 C 0.05595 0.99611 0.65402 0.0
C523 C 0.06625 0.95574 0.68645 0.0
C524 C 0.09295 0.96581 0.78467 0.0
H525 H 0.15311 0.86518 0.8966 0.0
H526 H 0.1289 0.88185 0.83783 0.0
H527 H 0.10431 0.96369 0.84299 0.0
H528 H 0.07681 0.02884 0.68262 0.0
H529 H 0.09981 0.00511 0.73538 0.0
H530 H 0.1127 0.92283 0.72306 0.0
C531 C 0.13973 0.89503 0.85787 0.0
C532 C 0.10654 0.95459 0.81706 0.0
C533 C 0.1536 0.88549 0.89154 0.0
C534 C 0.07351 0.00844 0.68303 0.0
C535 C 0.08668 0.99483 0.7135 0.0
C536 C 0.11051 0.93171 0.74916 0.0
C537 C 0.13894 0.92139 0.8508 0.0
C538 C 0.12291 0.93206 0.81606 0.0
C539 C 0.08275 0.96843 0.71604 0.0
C540 C 0.09523 0.95483 0.75027 0.0
H541 H 0.17753 0.94161 0.9313 0.0
H542 H 0.15363 0.95816 0.87291 0.0
H543 H 0.13674 0.90311 0.77999 0.0
H544 H 0.03955 0.95935 0.63386 0.0
H545 H 0.06287 0.93537 0.68763 0.0
loop_
_geom_bond_atom_site_label_1
_geom_bond_atom_site_label_2
_geom_bond_distance
_geom_bond_site_symmetry_2
_ccdc_geom_bond_type
C0 C1 1.384 . S
C0 H13 0.947 . S
C0 C35 1.382 . S
C1 C0 1.384 . S
C1 C2 1.378 . S
C2 C1 1.378 . S
C2 C3 1.378 . S
C2 H14 0.952 . S
C3 C2 1.378 . S
C3 H15 0.950 . S
C3 C34 1.383 . S
H4 C23 0.947 . S
H5 C24 0.946 . S
H6 C26 0.953 . S
H7 C27 0.945 . S
H8 C29 0.952 . S
H9 C30 0.949 . S
H10 C32 0.950 . S
H11 C33 0.948 . S
H12 C35 0.951 . S
H13 C0 0.947 . S
H14 C2 0.952 . S
H15 C3 0.950 . S
N16 C19 1.382 . S
N16 C21 1.363 . S
N17 C19 1.371 . S
N17 C20 1.372 . S
N18 C20 1.361 . S
N18 C21 1.377 . S
C19 N16 1.382 . S
C19 N17 1.371 . S
C19 C22 1.480 . S
C20 N17 1.372 . S
C20 N18 1.361 . S
C20 C28 1.457 . S
C21 N16 1.363 . S
C21 N18 1.377 . S
C21 C34 1.479 . S
C22 C19 1.480 . S
C22 C23 1.383 . S
C22 C27 1.385 . S
C23 H4 0.947 . S
C23 C22 1.383 . S
C23 C24 1.388 . S
C24 H5 0.946 . S
C24 C23 1.388 . S
C24 C25 1.384 . S
C25 C24 1.384 . S
C25 C26 1.377 . S
C26 H6 0.953 . S
C26 C25 1.377 . S
C26 C27 1.369 . S
C27 H7 0.945 . S
C27 C22 1.385 . S
C27 C26 1.369 . S
C28 C20 1.457 . S
C28 C29 1.372 1_554 S
C28 C33 1.364 . S
C29 H8 0.952 . S
C29 C28 1.372 1_556 S
C29 C30 1.389 . S
C30 H9 0.949 . S
C30 C29 1.389 . S
C30 C31 1.387 . S
C31 C30 1.387 . S
C31 C32 1.372 . S
C32 H10 0.950 . S
C32 C31 1.372 . S
C32 C33 1.379 1_556 S
C33 H11 0.948 . S
C33 C28 1.364 . S
C33 C32 1.379 1_554 S
C34 C3 1.383 . S
C34 C21 1.479 . S
C34 C35 1.398 . S
C35 C0 1.382 . S
C35 H12 0.951 . S
C35 C34 1.398 . S
C36 C37 1.384 . S
C36 H49 0.947 . S
C36 C71 1.382 . S
C37 C36 1.384 . S
C37 C38 1.378 . S
C38 C37 1.378 . S
C38 C39 1.378 . S
C38 H50 0.952 . S
C39 C38 1.378 . S
C39 H51 0.950 . S
C39 C70 1.383 . S
H40 C59 0.947 . S
H41 C60 0.946 . S
H42 C62 0.953 . S
H43 C63 0.945 . S
H44 C65 0.952 . S
H45 C66 0.949 . S
H46 C68 0.950 . S
H47 C69 0.948 . S
H48 C71 0.951 . S
H49 C36 0.947 . S
H50 C38 0.952 . S
H51 C39 0.950 . S
N52 C55 1.382 . S
N52 C57 1.363 . S
N53 C55 1.371 . S
N53 C56 1.372 . S
N54 C56 1.361 . S
N54 C57 1.377 . S
C55 N52 1.382 . S
C55 N53 1.371 . S
C55 C58 1.480 . S
C56 N53 1.372 . S
C56 N54 1.361 . S
C56 C64 1.457 . S
C57 N52 1.363 . S
C57 N54 1.377 . S
C57 C70 1.479 . S
C58 C55 1.480 . S
C58 C59 1.383 . S
C58 C63 1.385 . S
C59 H40 0.947 . S
C59 C58 1.383 . S
C59 C60 1.388 . S
C60 H41 0.946 . S
C60 C59 1.388 . S
C60 C61 1.384 . S
C61 C60 1.384 . S
C61 C62 1.377 . S
C62 H42 0.953 . S
C62 C61 1.377 . S
C62 C63 1.369 . S
C63 H43 0.945 . S
C63 C58 1.385 . S
C63 C62 1.369 . S
C64 C56 1.457 . S
C64 C65 1.372 . S
C64 C69 1.364 . S
C65 H44 0.952 . S
C65 C64 1.372 . S
C65 C66 1.389 . S
C66 H45 0.949 . S
C66 C65 1.389 . S
C66 C67 1.387 . S
C67 C66 1.387 . S
C67 C68 1.372 . S
C68 H46 0.950 . S
C68 C67 1.372 . S
C68 C69 1.379 . S
C69 H47 0.948 . S
C69 C64 1.364 . S
C69 C68 1.379 . S
C70 C39 1.383 . S
C70 C57 1.479 . S
C70 C71 1.398 . S
C71 C36 1.382 . S
C71 H48 0.951 . S
C71 C70 1.398 . S
C72 C73 1.384 . S
C72 H85 0.947 . S
C72 C107 1.382 . S
C73 C72 1.384 . S
C73 C74 1.378 . S
C74 C73 1.378 . S
C74 C75 1.378 . S
C74 H86 0.952 . S
C75 C74 1.378 . S
C75 H87 0.950 . S
C75 C106 1.383 . S
H76 C95 0.947 . S
H77 C96 0.946 . S
H78 C98 0.953 . S
H79 C99 0.945 . S
H80 C101 0.952 . S
H81 C102 0.949 . S
H82 C104 0.950 . S
H83 C105 0.948 . S
H84 C107 0.951 . S
H85 C72 0.947 . S
H86 C74 0.952 . S
H87 C75 0.950 . S
N88 C91 1.382 1_556 S
N88 C93 1.363 . S
N89 C91 1.371 . S
N89 C92 1.372 . S
N90 C92 1.361 . S
N90 C93 1.377 1_554 S
C91 N88 1.382 1_554 S
C91 N89 1.371 . S
C91 C94 1.480 . S
C92 N89 1.372 . S
C92 N90 1.361 . S
C92 C100 1.457 . S
C93 N88 1.363 . S
C93 N90 1.377 1_556 S
C93 C106 1.479 . S
C94 C91 1.480 . S
C94 C95 1.383 1_554 S
C94 C99 1.385 . S
C95 H76 0.947 . S
C95 C94 1.383 1_556 S
C95 C96 1.388 . S
C96 H77 0.946 . S
C96 C95 1.388 . S
C96 C97 1.384 . S
C97 C96 1.384 . S
C97 C98 1.377 1_556 S
C98 H78 0.953 . S
C98 C97 1.377 1_554 S
C98 C99 1.369 . S
C99 H79 0.945 . S
C99 C94 1.385 . S
C99 C98 1.369 . S
C100 C92 1.457 . S
C100 C101 1.372 . S
C100 C105 1.364 . S
C101 H80 0.952 . S
C101 C100 1.372 . S
C101 C102 1.389 . S
C102 H81 0.949 . S
C102 C101 1.389 . S
C102 C103 1.387 . S
C103 C102 1.387 . S
C103 C104 1.372 . S
C104 H82 0.950 . S
C104 C103 1.372 . S
C104 C105 1.379 . S
C105 H83 0.948 . S
C105 C100 1.364 . S
C105 C104 1.379 . S
C106 C75 1.383 . S
C106 C93 1.479 . S
C106 C107 1.398 . S
C107 C72 1.382 . S
C107 H84 0.951 . S
C107 C106 1.398 . S
C108 C109 1.384 . S
C108 H121 0.947 . S
C108 C143 1.382 . S
C109 C108 1.384 . S
C109 C110 1.378 . S
C110 C109 1.378 . S
C110 C111 1.378 . S
C110 H122 0.952 . S
C111 C110 1.378 . S
C111 H123 0.950 . S
C111 C142 1.383 . S
H112 C131 0.947 . S
H113 C132 0.946 . S
H114 C134 0.953 . S
H115 C135 0.945 . S
H116 C137 0.952 . S
H117 C138 0.949 . S
H118 C140 0.950 . S
H119 C141 0.948 . S
H120 C143 0.951 . S
H121 C108 0.947 . S
H122 C110 0.952 . S
H123 C111 0.950 . S
N124 C127 1.382 . S
N124 C129 1.363 . S
N125 C127 1.371 . S
N125 C128 1.372 . S
N126 C128 1.361 . S
N126 C129 1.377 . S
C127 N124 1.382 . S
C127 N125 1.371 . S
C127 C130 1.480 . S
C128 N125 1.372 . S
C128 N126 1.361 . S
C128 C136 1.457 . S
C129 N124 1.363 . S
C129 N126 1.377 . S
C129 C142 1.479 . S
C130 C127 1.480 . S
C130 C131 1.383 . S
C130 C135 1.385 . S
C131 H112 0.947 . S
C131 C130 1.383 . S
C131 C132 1.388 . S
C132 H113 0.946 . S
C132 C131 1.388 . S
C132 C133 1.384 . S
C133 C132 1.384 . S
C133 C134 1.377 . S
C134 H114 0.953 . S
C134 C133 1.377 . S
C134 C135 1.369 . S
C135 H115 0.945 . S
C135 C130 1.385 . S
C135 C134 1.369 . S
C136 C128 1.457 . S
C136 C137 1.372 . S
C136 C141 1.364 . S
C137 H116 0.952 . S
C137 C136 1.372 . S
C137 C138 1.389 . S
C138 H117 0.949 . S
C138 C137 1.389 . S
C138 C139 1.387 . S
C139 C138 1.387 . S
C139 C140 1.372 . S
C140 H118 0.950 . S
C140 C139 1.372 . S
C140 C141 1.379 . S
C141 H119 0.948 . S
C141 C136 1.364 . S
C141 C140 1.379 . S
C142 C111 1.383 . S
C142 C129 1.479 . S
C142 C143 1.398 . S
C143 C108 1.382 . S
C143 H120 0.951 . S
C143 C142 1.398 . S
O144 Mn145 2.163 1_655 S
O144 C158 1.244 . S
Mn145 O144 2.163 1_455 S
Mn145 O148 2.160 1_545 S
Mn145 O149 2.221 . S
Mn145 O151 2.163 1_455 S
Mn145 O153 2.165 . S
Mn145 O163 2.221 1_445 S
O146 Mn147 2.087 1_545 S
O146 C158 1.256 . S
Mn147 O146 2.087 1_565 S
Mn147 O154 2.089 1_655 S
Mn147 O163 2.290 . S
Mn147 O164 2.251 . S
O148 Mn145 2.160 1_565 S
O148 C159 1.238 . S
O149 Mn145 2.221 . S
O149 Mn150 2.290 . S
O149 C160 1.278 . S
Mn150 O149 2.290 . S
Mn150 O152 2.089 . S
Mn150 O155 2.251 . S
Mn150 O156 2.087 1_455 S
O151 Mn145 2.163 1_655 S
O151 C161 1.244 . S
O152 Mn150 2.089 . S
O152 C159 1.258 1_545 S
O153 Mn145 2.165 . S
O153 C162 1.232 1_545 S
O154 Mn147 2.089 1_455 S
O154 C162 1.256 . S
O155 Mn150 2.251 . S
O155 C160 1.241 . S
O156 Mn150 2.087 1_655 S
O156 C161 1.256 . S
C157 O163 1.278 . S
C157 O164 1.241 . S
C158 O144 1.244 . S
C158 O146 1.256 . S
C159 O148 1.238 . S
C159 O152 1.258 1_565 S
C160 O149 1.278 . S
C160 O155 1.241 . S
C161 O151 1.244 . S
C161 O156 1.256 . S
C162 O153 1.232 1_565 S
C162 O154 1.256 . S
O163 Mn145 2.221 1_665 S
O163 Mn147 2.290 . S
O163 C157 1.278 . S
O164 Mn147 2.251 . S
O164 C157 1.241 . S
O165 Mn166 2.163 . S
O165 C179 1.244 . S
Mn166 O165 2.163 . S
Mn166 O169 2.160 1_554 S
Mn166 O170 2.221 . S
Mn166 O172 2.163 . S
Mn166 O174 2.160 . S
Mn166 O184 2.221 . S
O167 Mn168 2.087 . S
O167 C179 1.256 . S
Mn168 O167 2.087 . S
Mn168 O175 2.089 . S
Mn168 O184 2.290 . S
Mn168 O185 2.251 . S
O169 Mn166 2.160 1_556 S
O169 C180 1.239 . S
O170 Mn166 2.221 . S
O170 Mn171 2.290 1_554 S
O170 C181 1.278 . S
Mn171 O170 2.290 1_556 S
Mn171 O173 2.089 . S
Mn171 O176 2.251 1_556 S
Mn171 O177 2.087 . S
O172 Mn166 2.163 . S
O172 C182 1.244 1_554 S
O173 Mn171 2.089 . S
O173 C180 1.256 . S
O174 Mn166 2.160 . S
O174 C183 1.239 . S
O175 Mn168 2.089 . S
O175 C183 1.256 . S
O176 Mn171 2.251 1_554 S
O176 C181 1.241 . S
O177 Mn171 2.087 . S
O177 C182 1.256 . S
C178 O184 1.278 . S
C178 O185 1.241 . S
C179 O165 1.244 . S
C179 O167 1.256 . S
C180 O169 1.239 . S
C180 O173 1.256 . S
C181 O170 1.278 . S
C181 O176 1.241 . S
C182 O172 1.244 1_556 S
C182 O177 1.256 . S
C183 O174 1.239 . S
C183 O175 1.256 . S
O184 Mn166 2.221 . S
O184 Mn168 2.290 . S
O184 C178 1.278 . S
O185 Mn168 2.251 . S
O185 C178 1.241 . S
C186 C187 1.349 . S
C186 C188 1.327 . S
C186 H211 0.950 . S
C187 C186 1.349 . S
C187 C203 1.349 . S
C188 C186 1.327 . S
C188 C207 1.429 . S
C188 H212 0.950 . S
C189 C206 1.574 . S
C189 C208 1.368 . S
C189 H213 0.949 . S
H190 C194 0.949 . S
C191 C192 1.349 . S
C191 C193 1.327 . S
C191 H214 0.950 . S
C192 C191 1.349 . S
C192 C204 1.349 . S
C193 C191 1.327 . S
C193 C209 1.429 . S
C193 H215 0.950 . S
C194 H190 0.949 . S
C194 C202 1.574 . S
C194 C210 1.368 . S
H195 C203 0.950 . S
H196 C201 0.950 . S
H197 C202 0.949 . S
H198 C204 0.950 . S
H199 C205 0.950 . S
H200 C206 0.949 . S
C201 H196 0.950 . S
C201 C203 1.327 . S
C201 C207 1.429 . S
C202 C194 1.574 . S
C202 H197 0.949 . S
C202 C208 1.368 . S
C203 C187 1.349 . S
C203 H195 0.950 . S
C203 C201 1.327 . S
C204 C192 1.349 . S
C204 H198 0.950 . S
C204 C205 1.327 . S
C205 H199 0.950 . S
C205 C204 1.327 . S
C205 C209 1.429 . S
C206 C189 1.574 . S
C206 H200 0.949 . S
C206 C210 1.368 . S
C207 C188 1.429 . S
C207 C201 1.429 . S
C207 C208 1.523 . S
C208 C189 1.368 . S
C208 C202 1.368 . S
C208 C207 1.523 . S
C209 C193 1.429 . S
C209 C205 1.429 . S
C209 C210 1.523 . S
C210 C194 1.368 . S
C210 C206 1.368 . S
C210 C209 1.523 . S
H211 C186 0.950 . S
H212 C188 0.950 . S
H213 C189 0.949 . S
H214 C191 0.950 . S
H215 C193 0.950 . S
C216 C217 1.349 . S
C216 C218 1.327 . S
C216 H241 0.950 . S
C217 C216 1.349 . S
C217 C233 1.349 . S
C218 C216 1.327 . S
C218 C237 1.429 . S
C218 H242 0.950 . S
C219 C236 1.574 . S
C219 C238 1.368 . S
C219 H243 0.949 . S
H220 C224 0.949 . S
C221 C222 1.349 . S
C221 C223 1.327 . S
C221 H244 0.950 . S
C222 C221 1.349 . S
C222 C234 1.349 . S
C223 C221 1.327 . S
C223 C239 1.429 . S
C223 H245 0.950 . S
C224 H220 0.949 . S
C224 C232 1.574 . S
C224 C240 1.368 . S
H225 C233 0.950 . S
H226 C231 0.950 . S
H227 C232 0.949 . S
H228 C234 0.950 . S
H229 C235 0.950 . S
H230 C236 0.949 . S
C231 H226 0.950 . S
C231 C233 1.327 . S
C231 C237 1.429 . S
C232 C224 1.574 . S
C232 H227 0.949 . S
C232 C238 1.368 . S
C233 C217 1.349 . S
C233 H225 0.950 . S
C233 C231 1.327 . S
C234 C222 1.349 . S
C234 H228 0.950 . S
C234 C235 1.327 . S
C235 H229 0.950 . S
C235 C234 1.327 . S
C235 C239 1.429 . S
C236 C219 1.574 . S
C236 H230 0.949 . S
C236 C240 1.368 . S
C237 C218 1.429 . S
C237 C231 1.429 . S
C237 C238 1.523 . S
C238 C219 1.368 . S
C238 C232 1.368 . S
C238 C237 1.523 . S
C239 C223 1.429 . S
C239 C235 1.429 . S
C239 C240 1.523 . S
C240 C224 1.368 . S
C240 C236 1.368 . S
C240 C239 1.523 . S
H241 C216 0.950 . S
H242 C218 0.950 . S
H243 C219 0.949 . S
H244 C221 0.950 . S
H245 C223 0.950 . S
C246 C247 1.349 . S
C246 C248 1.327 . S
C246 H271 0.950 . S
C247 C246 1.349 . S
C247 C263 1.349 . S
C248 C246 1.327 . S
C248 C267 1.429 . S
C248 H272 0.950 . S
C249 C266 1.574 . S
C249 C268 1.368 . S
C249 H273 0.949 . S
H250 C254 0.949 . S
C251 C252 1.349 . S
C251 C253 1.327 . S
C251 H274 0.950 . S
C252 C251 1.349 . S
C252 C264 1.349 . S
C253 C251 1.327 . S
C253 C269 1.429 . S
C253 H275 0.950 . S
C254 H250 0.949 . S
C254 C262 1.574 . S
C254 C270 1.368 . S
H255 C263 0.950 . S
H256 C261 0.950 . S
H257 C262 0.949 . S
H258 C264 0.950 . S
H259 C265 0.950 . S
H260 C266 0.949 . S
C261 H256 0.950 . S
C261 C263 1.327 . S
C261 C267 1.429 . S
C262 C254 1.574 . S
C262 H257 0.949 . S
C262 C268 1.368 . S
C263 C247 1.349 . S
C263 H255 0.950 . S
C263 C261 1.327 . S
C264 C252 1.349 . S
C264 H258 0.950 . S
C264 C265 1.327 . S
C265 H259 0.950 . S
C265 C264 1.327 . S
C265 C269 1.429 . S
C266 C249 1.574 . S
C266 H260 0.949 . S
C266 C270 1.368 . S
C267 C248 1.429 . S
C267 C261 1.429 . S
C267 C268 1.523 . S
C268 C249 1.368 . S
C268 C262 1.368 . S
C268 C267 1.523 . S
C269 C253 1.429 . S
C269 C265 1.429 . S
C269 C270 1.523 . S
C270 C254 1.368 . S
C270 C266 1.368 . S
C270 C269 1.523 . S
H271 C246 0.950 . S
H272 C248 0.950 . S
H273 C249 0.949 . S
H274 C251 0.950 . S
H275 C253 0.950 . S
C276 C277 1.349 1_554 S
C276 C278 1.327 . S
C276 H301 0.950 . S
C277 C276 1.349 1_556 S
C277 C293 1.349 . S
C278 C276 1.327 . S
C278 C297 1.429 . S
C278 H302 0.950 . S
C279 C296 1.574 . S
C279 C298 1.368 1_556 S
C279 H303 0.949 . S
H280 C284 0.949 . S
C281 C282 1.370 . S
C281 C283 1.322 1_554 S
C281 H304 0.934 1_554 S
C282 C281 1.370 . S
C282 C294 1.349 . S
C283 C281 1.322 1_556 S
C283 C299 1.429 1_556 S
C283 H305 0.950 . S
C284 H280 0.949 . S
C284 C292 1.574 . S
C284 C300 1.368 . S
H285 C293 0.950 . S
H286 C291 0.950 . S
H287 C292 0.949 . S
H288 C294 0.950 . S
H289 C295 0.950 . S
H290 C296 0.949 . S
C291 H286 0.950 . S
C291 C293 1.327 . S
C291 C297 1.429 1_556 S
C292 C284 1.574 . S
C292 H287 0.949 . S
C292 C298 1.368 . S
C293 C277 1.349 . S
C293 H285 0.950 . S
C293 C291 1.327 . S
C294 C282 1.349 . S
C294 H288 0.950 . S
C294 C295 1.327 . S
C295 H289 0.950 . S
C295 C294 1.327 . S
C295 C299 1.429 . S
C296 C279 1.574 . S
C296 H290 0.949 . S
C296 C300 1.368 1_556 S
C297 C278 1.429 . S
C297 C291 1.429 1_554 S
C297 C298 1.523 . S
C298 C279 1.368 1_554 S
C298 C292 1.368 . S
C298 C297 1.523 . S
C299 C283 1.429 1_554 S
C299 C295 1.429 . S
C299 C300 1.523 . S
C300 C284 1.368 . S
C300 C296 1.368 1_554 S
C300 C299 1.523 . S
H301 C276 0.950 . S
H302 C278 0.950 . S
H303 C279 0.949 . S
H304 C281 0.934 1_556 S
H305 C283 0.950 . S
C306 C307 1.349 . S
C306 C308 1.327 . S
C306 H331 0.950 . S
C307 C306 1.349 . S
C307 C323 1.349 . S
C308 C306 1.327 . S
C308 C327 1.429 . S
C308 H332 0.950 . S
C309 C326 1.574 . S
C309 C328 1.368 . S
C309 H333 0.949 . S
H310 C314 0.949 . S
C311 C312 1.349 . S
C311 C313 1.327 . S
C311 H334 0.950 . S
C312 C311 1.349 . S
C312 C324 1.349 1_565 S
C313 C311 1.327 . S
C313 C329 1.429 . S
C313 H335 0.950 . S
C314 H310 0.949 . S
C314 C322 1.574 . S
C314 C330 1.368 . S
H315 C323 0.950 . S
H316 C321 0.950 . S
H317 C322 0.949 . S
H318 C324 0.950 . S
H319 C325 0.950 1_545 S
H320 C326 0.949 . S
C321 H316 0.950 . S
C321 C323 1.327 . S
C321 C327 1.429 . S
C322 C314 1.574 . S
C322 H317 0.949 . S
C322 C328 1.368 . S
C323 C307 1.349 . S
C323 H315 0.950 . S
C323 C321 1.327 . S
C324 C312 1.349 1_545 S
C324 H318 0.950 . S
C324 C325 1.327 1_545 S
C325 H319 0.950 1_565 S
C325 C324 1.327 1_565 S
C325 C329 1.429 . S
C326 C309 1.574 . S
C326 H320 0.949 . S
C326 C330 1.368 . S
C327 C308 1.429 . S
C327 C321 1.429 . S
C327 C328 1.523 . S
C328 C309 1.368 . S
C328 C322 1.368 . S
C328 C327 1.523 . S
C329 C313 1.429 . S
C329 C325 1.429 . S
C329 C330 1.523 . S
C330 C314 1.368 . S
C330 C326 1.368 . S
C330 C329 1.523 . S
H331 C306 0.950 . S
H332 C308 0.950 . S
H333 C309 0.949 . S
H334 C311 0.950 . S
H335 C313 0.950 . S
C336 C337 1.349 . S
C336 C338 1.327 . S
C336 H361 0.950 . S
C337 C336 1.349 . S
C337 C353 1.349 . S
C338 C336 1.327 . S
C338 C357 1.429 . S
C338 H362 0.950 . S
C339 C356 1.574 . S
C339 C358 1.368 . S
C339 H363 0.949 . S
H340 C344 0.949 . S
C341 C342 1.349 . S
C341 C343 1.327 . S
C341 H364 0.950 . S
C342 C341 1.349 . S
C342 C354 1.349 . S
C343 C341 1.327 . S
C343 C359 1.429 . S
C343 H365 0.950 . S
C344 H340 0.949 . S
C344 C352 1.574 . S
C344 C360 1.368 . S
H345 C353 0.950 . S
H346 C351 0.950 . S
H347 C352 0.949 . S
H348 C354 0.950 . S
H349 C355 0.950 . S
H350 C356 0.949 . S
C351 H346 0.950 . S
C351 C353 1.327 . S
C351 C357 1.429 . S
C352 C344 1.574 . S
C352 H347 0.949 . S
C352 C358 1.368 . S
C353 C337 1.349 . S
C353 H345 0.950 . S
C353 C351 1.327 . S
C354 C342 1.349 . S
C354 H348 0.950 . S
C354 C355 1.327 . S
C355 H349 0.950 . S
C355 C354 1.327 . S
C355 C359 1.429 . S
C356 C339 1.574 . S
C356 H350 0.949 . S
C356 C360 1.368 . S
C357 C338 1.429 . S
C357 C351 1.429 . S
C357 C358 1.523 . S
C358 C339 1.368 . S
C358 C352 1.368 . S
C358 C357 1.523 . S
C359 C343 1.429 . S
C359 C355 1.429 . S
C359 C360 1.523 . S
C360 C344 1.368 . S
C360 C356 1.368 . S
C360 C359 1.523 . S
H361 C336 0.950 . S
H362 C338 0.950 . S
H363 C339 0.949 . S
H364 C341 0.950 . S
H365 C343 0.950 . S
C366 C367 1.349 . S
C366 C368 1.327 . S
C366 H391 0.950 . S
C367 C366 1.349 . S
C367 C383 1.349 . S
C368 C366 1.327 . S
C368 C387 1.429 . S
C368 H392 0.950 . S
C369 C386 1.574 . S
C369 C388 1.368 . S
C369 H393 0.949 . S
H370 C374 0.949 . S
C371 C372 1.349 . S
C371 C373 1.327 . S
C371 H394 0.950 . S
C372 C371 1.349 . S
C372 C384 1.349 . S
C373 C371 1.327 . S
C373 C389 1.429 . S
C373 H395 0.950 . S
C374 H370 0.949 . S
C374 C382 1.574 . S
C374 C390 1.368 . S
H375 C383 0.950 . S
H376 C381 0.950 . S
H377 C382 0.949 . S
H378 C384 0.950 . S
H379 C385 0.950 . S
H380 C386 0.949 . S
C381 H376 0.950 . S
C381 C383 1.327 . S
C381 C387 1.429 . S
C382 C374 1.574 . S
C382 H377 0.949 . S
C382 C388 1.368 . S
C383 C367 1.349 . S
C383 H375 0.950 . S
C383 C381 1.327 . S
C384 C372 1.349 . S
C384 H378 0.950 . S
C384 C385 1.327 . S
C385 H379 0.950 . S
C385 C384 1.327 . S
C385 C389 1.429 . S
C386 C369 1.574 . S
C386 H380 0.949 . S
C386 C390 1.368 . S
C387 C368 1.429 . S
C387 C381 1.429 . S
C387 C388 1.523 . S
C388 C369 1.368 . S
C388 C382 1.368 . S
C388 C387 1.523 . S
C389 C373 1.429 . S
C389 C385 1.429 . S
C389 C390 1.523 . S
C390 C374 1.368 . S
C390 C386 1.368 . S
C390 C389 1.523 . S
H391 C366 0.950 . S
H392 C368 0.950 . S
H393 C369 0.949 . S
H394 C371 0.950 . S
H395 C373 0.950 . S
C396 C397 1.349 . S
C396 C398 1.327 . S
C396 H421 0.950 . S
C397 C396 1.349 . S
C397 C413 1.349 . S
C398 C396 1.327 . S
C398 C417 1.429 . S
C398 H422 0.950 . S
C399 C416 1.574 . S
C399 C418 1.368 . S
C399 H423 0.949 . S
H400 C404 0.949 . S
C401 C402 1.349 . S
C401 C403 1.327 . S
C401 H424 0.950 . S
C402 C401 1.349 . S
C402 C414 1.349 . S
C403 C401 1.327 . S
C403 C419 1.429 . S
C403 H425 0.950 . S
C404 H400 0.949 . S
C404 C412 1.574 . S
C404 C420 1.368 . S
H405 C413 0.950 . S
H406 C411 0.950 . S
H407 C412 0.949 . S
H408 C414 0.950 . S
H409 C415 0.950 . S
H410 C416 0.949 . S
C411 H406 0.950 . S
C411 C413 1.327 . S
C411 C417 1.429 . S
C412 C404 1.574 . S
C412 H407 0.949 . S
C412 C418 1.368 . S
C413 C397 1.349 . S
C413 H405 0.950 . S
C413 C411 1.327 . S
C414 C402 1.349 . S
C414 H408 0.950 . S
C414 C415 1.327 . S
C415 H409 0.950 . S
C415 C414 1.327 . S
C415 C419 1.429 . S
C416 C399 1.574 . S
C416 H410 0.949 . S
C416 C420 1.368 . S
C417 C398 1.429 . S
C417 C411 1.429 . S
C417 C418 1.523 . S
C418 C399 1.368 . S
C418 C412 1.368 . S
C418 C417 1.523 . S
C419 C403 1.429 . S
C419 C415 1.429 . S
C419 C420 1.523 . S
C420 C404 1.368 . S
C420 C416 1.368 . S
C420 C419 1.523 . S
H421 C396 0.950 . S
H422 C398 0.950 . S
H423 C399 0.949 . S
H424 C401 0.950 . S
H425 C403 0.950 . S
C426 C427 1.349 . S
C426 C428 1.327 . S
C426 H451 0.950 . S
C427 C426 1.349 . S
C427 C443 1.349 . S
C428 C426 1.327 . S
C428 C447 1.429 . S
C428 H452 0.950 . S
C429 C446 1.574 . S
C429 C448 1.368 . S
C429 H453 0.949 . S
H430 C434 0.949 . S
C431 C432 1.349 . S
C431 C433 1.327 . S
C431 H454 0.950 . S
C432 C431 1.349 . S
C432 C444 1.349 . S
C433 C431 1.327 . S
C433 C449 1.429 . S
C433 H455 0.950 . S
C434 H430 0.949 . S
C434 C442 1.574 . S
C434 C450 1.368 . S
H435 C443 0.950 . S
H436 C441 0.950 . S
H437 C442 0.949 . S
H438 C444 0.950 . S
H439 C445 0.950 . S
H440 C446 0.949 . S
C441 H436 0.950 . S
C441 C443 1.327 . S
C441 C447 1.429 . S
C442 C434 1.574 . S
C442 H437 0.949 . S
C442 C448 1.368 . S
C443 C427 1.349 . S
C443 H435 0.950 . S
C443 C441 1.327 . S
C444 C432 1.349 . S
C444 H438 0.950 . S
C444 C445 1.327 . S
C445 H439 0.950 . S
C445 C444 1.327 . S
C445 C449 1.429 . S
C446 C429 1.574 . S
C446 H440 0.949 . S
C446 C450 1.368 . S
C447 C428 1.429 . S
C447 C441 1.429 . S
C447 C448 1.523 . S
C448 C429 1.368 . S
C448 C442 1.368 . S
C448 C447 1.523 . S
C449 C433 1.429 . S
C449 C445 1.429 . S
C449 C450 1.523 . S
C450 C434 1.368 . S
C450 C446 1.368 . S
C450 C449 1.523 . S
H451 C426 0.950 . S
H452 C428 0.950 . S
H453 C429 0.949 . S
H454 C431 0.950 . S
H455 C433 0.950 . S
C456 C457 1.349 . S
C456 C458 1.327 . S
C456 H481 0.950 . S
C457 C456 1.349 . S
C457 C473 1.349 . S
C458 C456 1.327 . S
C458 C477 1.429 . S
C458 H482 0.950 . S
C459 C476 1.574 . S
C459 C478 1.368 . S
C459 H483 0.949 . S
H460 C464 0.949 . S
C461 C462 1.349 . S
C461 C463 1.327 . S
C461 H484 0.950 . S
C462 C461 1.349 . S
C462 C474 1.349 . S
C463 C461 1.327 . S
C463 C479 1.429 . S
C463 H485 0.950 . S
C464 H460 0.949 . S
C464 C472 1.574 . S
C464 C480 1.368 . S
H465 C473 0.950 . S
H466 C471 0.950 . S
H467 C472 0.949 . S
H468 C474 0.950 . S
H469 C475 0.950 . S
H470 C476 0.949 . S
C471 H466 0.950 . S
C471 C473 1.327 . S
C471 C477 1.429 . S
C472 C464 1.574 . S
C472 H467 0.949 . S
C472 C478 1.368 . S
C473 C457 1.349 . S
C473 H465 0.950 . S
C473 C471 1.327 . S
C474 C462 1.349 . S
C474 H468 0.950 . S
C474 C475 1.327 . S
C475 H469 0.950 . S
C475 C474 1.327 . S
C475 C479 1.429 . S
C476 C459 1.574 . S
C476 H470 0.949 . S
C476 C480 1.368 . S
C477 C458 1.429 . S
C477 C471 1.429 . S
C477 C478 1.523 . S
C478 C459 1.368 . S
C478 C472 1.368 . S
C478 C477 1.523 . S
C479 C463 1.429 . S
C479 C475 1.429 . S
C479 C480 1.523 . S
C480 C464 1.368 . S
C480 C476 1.368 . S
C480 C479 1.523 . S
H481 C456 0.950 . S
H482 C458 0.950 . S
H483 C459 0.949 . S
H484 C461 0.950 . S
H485 C463 0.950 . S
C486 C487 1.349 . S
C486 C488 1.327 . S
C486 H511 0.950 . S
C487 C486 1.349 . S
C487 C503 1.349 . S
C488 C486 1.327 . S
C488 C507 1.429 . S
C488 H512 0.950 . S
C489 C506 1.574 . S
C489 C508 1.368 . S
C489 H513 0.949 . S
H490 C494 0.949 . S
C491 C492 1.349 . S
C491 C493 1.327 . S
C491 H514 0.950 . S
C492 C491 1.349 . S
C492 C504 1.349 . S
C493 C491 1.327 . S
C493 C509 1.429 . S
C493 H515 0.950 . S
C494 H490 0.949 . S
C494 C502 1.574 . S
C494 C510 1.368 . S
H495 C503 0.950 . S
H496 C501 0.950 . S
H497 C502 0.949 . S
H498 C504 0.950 . S
H499 C505 0.950 . S
H500 C506 0.949 . S
C501 H496 0.950 . S
C501 C503 1.327 . S
C501 C507 1.429 . S
C502 C494 1.574 . S
C502 H497 0.949 . S
C502 C508 1.368 . S
C503 C487 1.349 . S
C503 H495 0.950 . S
C503 C501 1.327 . S
C504 C492 1.349 . S
C504 H498 0.950 . S
C504 C505 1.327 . S
C505 H499 0.950 . S
C505 C504 1.327 . S
C505 C509 1.429 . S
C506 C489 1.574 . S
C506 H500 0.949 . S
C506 C510 1.368 . S
C507 C488 1.429 . S
C507 C501 1.429 . S
C507 C508 1.523 . S
C508 C489 1.368 . S
C508 C502 1.368 . S
C508 C507 1.523 . S
C509 C493 1.429 . S
C509 C505 1.429 . S
C509 C510 1.523 . S
C510 C494 1.368 . S
C510 C506 1.368 . S
C510 C509 1.523 . S
H511 C486 0.950 . S
H512 C488 0.950 . S
H513 C489 0.949 . S
H514 C491 0.950 . S
H515 C493 0.950 . S
C516 C517 1.349 . S
C516 C518 1.327 . S
C516 H541 0.950 . S
C517 C516 1.349 . S
C517 C533 1.349 . S
C518 C516 1.327 . S
C518 C537 1.429 . S
C518 H542 0.950 . S
C519 C536 1.574 . S
C519 C538 1.368 . S
C519 H543 0.949 . S
H520 C524 0.949 1_545 S
C521 C522 1.349 . S
C521 C523 1.327 . S
C521 H544 0.950 . S
C522 C521 1.349 . S
C522 C534 1.349 1_565 S
C523 C521 1.327 . S
C523 C539 1.429 . S
C523 H545 0.950 . S
C524 H520 0.949 1_565 S
C524 C532 1.574 . S
C524 C540 1.368 . S
H525 C533 0.950 . S
H526 C531 0.950 . S
H527 C532 0.949 . S
H528 C534 0.950 . S
H529 C535 0.940 1_545 S
H530 C536 0.949 . S
C531 H526 0.950 . S
C531 C533 1.327 . S
C531 C537 1.429 . S
C532 C524 1.574 . S
C532 H527 0.949 . S
C532 C538 1.368 . S
C533 C517 1.349 . S
C533 H525 0.950 . S
C533 C531 1.327 . S
C534 C522 1.349 1_545 S
C534 H528 0.950 . S
C534 C535 1.325 1_545 S
C535 H529 0.940 1_565 S
C535 C534 1.325 1_565 S
C535 C539 1.440 . S
C536 C519 1.574 . S
C536 H530 0.949 . S
C536 C540 1.368 . S
C537 C518 1.429 . S
C537 C531 1.429 . S
C537 C538 1.523 . S
C538 C519 1.368 . S
C538 C532 1.368 . S
C538 C537 1.523 . S
C539 C523 1.429 . S
C539 C535 1.440 . S
C539 C540 1.523 . S
C540 C524 1.368 . S
C540 C536 1.368 . S
C540 C539 1.523 . S
H541 C516 0.950 . S
H542 C518 0.950 . S
H543 C519 0.949 . S
H544 C521 0.950 . S
H545 C523 0.950 . S
C192 C160 1.313 . S
C187 C133 1.467 . S
C217 C25 1.494 . S
C222 C181 1.311 . S
C247 C61 1.701 . S
C252 C157 1.480 . S
C277 C97 1.660 . S
C282 C178 1.479 . S
C312 C162 1.617 . S
C307 C1 1.640 . S
C342 C182 1.560 . S
C337 C67 1.598 . S
C367 C103 1.547 . S
C372 C158 1.509 . S
C397 C109 1.595 . S
C402 C180 1.553 . S
C432 C179 1.509 . S
C427 C37 1.574 . S
C462 C161 1.559 . S
C457 C73 1.584 . S
C492 C183 1.619 . S
C487 C139 1.600 . S
C517 C31 1.627 . S
C522 C159 1.551 . S
