# Generated by pormake.
# Topology ctn, (3,4)-cn, num edge types: 1
# Building blocks:
#     Node 0, Type 0, BuildingBlock: ESEHIV_clean_linker_0, # of connection points: 3
#     Node 1, Type 0, BuildingBlock: ESEHIV_clean_linker_0, # of connection points: 3
#     Node 2, Type 0, BuildingBlock: ESEHIV_clean_linker_0, # of connection points: 3
#     Node 3, Type 0, BuildingBlock: ESEHIV_clean_linker_0, # of connection points: 3
#     Node 4, Type 0, BuildingBlock: ESEHIV_clean_linker_0, # of connection points: 3
#     Node 5, Type 0, BuildingBlock: ESEHIV_clean_linker_0, # of connection points: 3
#     Node 6, Type 0, BuildingBlock: ESEHIV_clean_linker_0, # of connection points: 3
#     Node 7, Type 0, BuildingBlock: ESEHIV_clean_linker_0, # of connection points: 3
#     Node 8, Type 0, BuildingBlock: ESEHIV_clean_linker_0, # of connection points: 3
#     Node 9, Type 0, BuildingBlock: ESEHIV_clean_linker_0, # of connection points: 3
#     Node 10, Type 0, BuildingBlock: ESEHIV_clean_linker_0, # of connection points: 3
#     Node 11, Type 0, BuildingBlock: ESEHIV_clean_linker_0, # of connection points: 3
#     Node 12, Type 0, BuildingBlock: ESEHIV_clean_linker_0, # of connection points: 3
#     Node 13, Type 0, BuildingBlock: ESEHIV_clean_linker_0, # of connection points: 3
#     Node 14, Type 0, BuildingBlock: ESEHIV_clean_linker_0, # of connection points: 3
#     Node 15, Type 0, BuildingBlock: ESEHIV_clean_linker_0, # of connection points: 3
#     Node 16, Type 1, BuildingBlock: QUQFOY_clean_sbu_1, # of connection points: 4
#     Node 17, Type 1, BuildingBlock: QUQFOY_clean_sbu_1, # of connection points: 4
#     Node 18, Type 1, BuildingBlock: QUQFOY_clean_sbu_1, # of connection points: 4
#     Node 19, Type 1, BuildingBlock: QUQFOY_clean_sbu_1, # of connection points: 4
#     Node 20, Type 1, BuildingBlock: QUQFOY_clean_sbu_1, # of connection points: 4
#     Node 21, Type 1, BuildingBlock: QUQFOY_clean_sbu_1, # of connection points: 4
#     Node 22, Type 1, BuildingBlock: QUQFOY_clean_sbu_1, # of connection points: 4
#     Node 23, Type 1, BuildingBlock: QUQFOY_clean_sbu_1, # of connection points: 4
#     Node 24, Type 1, BuildingBlock: QUQFOY_clean_sbu_1, # of connection points: 4
#     Node 25, Type 1, BuildingBlock: QUQFOY_clean_sbu_1, # of connection points: 4
#     Node 26, Type 1, BuildingBlock: QUQFOY_clean_sbu_1, # of connection points: 4
#     Node 27, Type 1, BuildingBlock: QUQFOY_clean_sbu_1, # of connection points: 4
#     Edge 28, Type (0, 1), None
#     Edge 29, Type (0, 1), None
#     Edge 30, Type (0, 1), None
#     Edge 31, Type (0, 1), None
#     Edge 32, Type (0, 1), None
#     Edge 33, Type (0, 1), None
#     Edge 34, Type (0, 1), None
#     Edge 35, Type (0, 1), None
#     Edge 36, Type (0, 1), None
#     Edge 37, Type (0, 1), None
#     Edge 38, Type (0, 1), None
#     Edge 39, Type (0, 1), None
#     Edge 40, Type (0, 1), None
#     Edge 41, Type (0, 1), None
#     Edge 42, Type (0, 1), None
#     Edge 43, Type (0, 1), None
#     Edge 44, Type (0, 1), None
#     Edge 45, Type (0, 1), None
#     Edge 46, Type (0, 1), None
#     Edge 47, Type (0, 1), None
#     Edge 48, Type (0, 1), None
#     Edge 49, Type (0, 1), None
#     Edge 50, Type (0, 1), None
#     Edge 51, Type (0, 1), None
#     Edge 52, Type (0, 1), None
#     Edge 53, Type (0, 1), None
#     Edge 54, Type (0, 1), None
#     Edge 55, Type (0, 1), None
#     Edge 56, Type (0, 1), None
#     Edge 57, Type (0, 1), None
#     Edge 58, Type (0, 1), None
#     Edge 59, Type (0, 1), None
#     Edge 60, Type (0, 1), None
#     Edge 61, Type (0, 1), None
#     Edge 62, Type (0, 1), None
#     Edge 63, Type (0, 1), None
#     Edge 64, Type (0, 1), None
#     Edge 65, Type (0, 1), None
#     Edge 66, Type (0, 1), None
#     Edge 67, Type (0, 1), None
#     Edge 68, Type (0, 1), None
#     Edge 69, Type (0, 1), None
#     Edge 70, Type (0, 1), None
#     Edge 71, Type (0, 1), None
#     Edge 72, Type (0, 1), None
#     Edge 73, Type (0, 1), None
#     Edge 74, Type (0, 1), None
#     Edge 75, Type (0, 1), None
# Relax obj value: 0.042
# Max RMSD: 0.156
# Mean RMSD: 0.074
data_MOF--net-ctn--node1-QUQFOY_clean_sbu_1--node2-ESEHIV_clean_linker_0--edge1-none
_symmetry_space_group_name_H-M    P1
_symmetry_Int_Tables_number       1
_symmetry_cell_setting            triclinic
loop_
_symmetry_equiv_pos_as_xyz
'x, y, z'
_cell_length_a     21.760419
_cell_length_b     21.604309
_cell_length_c     21.757218
_cell_angle_alpha  92.26689
_cell_angle_beta   89.026139
_cell_angle_gamma 93.085289
loop_
_atom_site_label
_atom_site_type_symbol
_atom_site_fract_x
_atom_site_fract_y
_atom_site_fract_z
_atom_type_partial_charge
H0 H 0.94245 0.09487 0.09093 0.0
H1 H 0.07514 0.9561 0.10463 0.0
H2 H 0.09189 0.08536 0.95915 0.0
C3 C 0.98341 0.07327 0.07354 0.0
C4 C 0.01445 0.0962 0.02132 0.0
C5 C 0.00508 0.02286 0.10378 0.0
C6 C 0.05825 -0.00486 0.08141 0.0
C7 C 0.08983 0.01717 0.02934 0.0
C8 C 0.06773 0.06792 -0.00059 0.0
H9 H 0.29956 0.66834 0.3316 0.0
H10 H 0.3772 0.8113 0.21706 0.0
H11 H 0.21091 0.70836 0.16329 0.0
C12 C 0.29778 0.69526 0.29072 0.0
C13 C 0.25012 0.68222 0.24874 0.0
C14 C 0.34333 0.7422 0.28051 0.0
C15 C 0.34145 0.77591 0.22657 0.0
C16 C 0.29338 0.76445 0.18467 0.0
C17 C 0.2472 0.71819 0.19635 0.0
H18 H 0.93024 0.57743 0.11503 0.0
H19 H 0.03945 0.41625 0.09402 0.0
H20 H 0.89718 0.44444 0.96575 0.0
C21 C 0.94133 0.53465 0.09066 0.0
C22 C 0.90797 0.5151 0.03817 0.0
C23 C 0.9894 0.49966 0.11118 0.0
C24 C 0.00266 0.44379 0.07918 0.0
C25 C 0.96909 0.42439 0.02678 0.0
C26 C 0.92259 0.46018 0.00645 0.0
H27 H 0.6263 0.71914 0.22163 0.0
H28 H 0.80503 0.79973 0.1745 0.0
H29 H 0.70861 0.86399 0.33753 0.0
C30 C 0.66618 0.7492 0.23372 0.0
C31 C 0.66389 0.78859 0.28604 0.0
C32 C 0.71738 0.7528 0.19379 0.0
C33 C 0.76708 0.79488 0.20722 0.0
C34 C 0.76388 0.83594 0.25871 0.0
C35 C 0.71259 0.83152 0.29851 0.0
H36 H 0.93509 0.91638 0.46417 0.0
H37 H 0.06463 0.05956 0.40705 0.0
H38 H 0.09823 0.96116 0.57069 0.0
C39 C 0.97749 0.94396 0.47248 0.0
C40 C 0.01432 0.93249 0.52271 0.0
C41 C -0.00407 -0.01103 0.43079 0.0
C42 C 0.05067 0.02436 0.43945 0.0
C43 C 0.08706 0.01496 0.49028 0.0
C44 C 0.06947 0.96861 0.53175 0.0
H45 H 0.14776 0.80581 0.82804 0.0
H46 H 0.30203 0.70638 0.88589 0.0
H47 H 0.18164 0.62575 0.74692 0.0
C48 C 0.17655 0.7664 0.82328 0.0
C49 C 0.15947 0.71691 0.78237 0.0
C50 C 0.22746 0.76258 0.86172 0.0
C51 C 0.26289 0.71022 0.85631 0.0
C52 C 0.24758 0.66187 0.81384 0.0
C53 C 0.19536 0.66473 0.7775 0.0
H54 H 0.89285 0.5673 0.57364 0.0
H55 H 0.05451 0.63525 0.47521 0.0
H56 H 0.95334 0.4695 0.40952 0.0
C57 C 0.9258 0.56252 0.53597 0.0
C58 C 0.91803 0.51329 0.49267 0.0
C59 C 0.97472 0.60672 0.52981 0.0
C60 C 0.01676 0.6009 0.48032 0.0
C61 C 0.00975 0.55068 0.43734 0.0
C62 C 0.95998 0.5073 0.44349 0.0
H63 H 0.70911 0.82833 0.89851 0.0
H64 H 0.81398 0.87656 0.7365 0.0
H65 H 0.84813 0.70894 0.8285 0.0
C66 C 0.74432 0.81739 0.86453 0.0
C67 C 0.77613 0.76286 0.8685 0.0
C68 C 0.75713 0.85803 0.8167 0.0
C69 C 0.80316 0.8444 0.7726 0.0
C70 C 0.83734 0.79101 0.77732 0.0
C71 C 0.82272 0.75042 0.825 0.0
H72 H 0.20911 0.32833 0.39851 0.0
H73 H 0.31398 0.37656 0.2365 0.0
H74 H 0.34813 0.20894 0.3285 0.0
C75 C 0.24432 0.31739 0.36453 0.0
C76 C 0.27613 0.26286 0.3685 0.0
C77 C 0.25713 0.35803 0.3167 0.0
C78 C 0.30316 0.3444 0.2726 0.0
C79 C 0.33733 0.29101 0.27732 0.0
C80 C 0.32272 0.25042 0.325 0.0
H81 H 0.43024 0.07743 0.61503 0.0
H82 H 0.53945 0.91625 0.59402 0.0
H83 H 0.39718 0.94444 0.46575 0.0
C84 C 0.44133 0.03465 0.59066 0.0
C85 C 0.40797 0.0151 0.53817 0.0
C86 C 0.4894 -0.00034 0.61118 0.0
C87 C 0.50266 0.94379 0.57918 0.0
C88 C 0.46909 0.92439 0.52678 0.0
C89 C 0.42259 0.96018 0.50645 0.0
H90 H 0.1263 0.21914 0.72164 0.0
H91 H 0.30503 0.29973 0.6745 0.0
H92 H 0.20861 0.36399 0.83753 0.0
C93 C 0.16618 0.2492 0.73372 0.0
C94 C 0.16389 0.28859 0.78604 0.0
C95 C 0.21738 0.2528 0.69379 0.0
C96 C 0.26708 0.29488 0.70722 0.0
C97 C 0.26388 0.33594 0.75871 0.0
C98 C 0.21259 0.33152 0.79851 0.0
H99 H 0.79956 0.16834 0.8316 0.0
H100 H 0.8772 0.3113 0.71706 0.0
H101 H 0.71092 0.20836 0.66329 0.0
C102 C 0.79778 0.19526 0.79072 0.0
C103 C 0.75012 0.18222 0.74874 0.0
C104 C 0.84333 0.2422 0.78051 0.0
C105 C 0.84145 0.27591 0.72657 0.0
C106 C 0.79338 0.26445 0.68467 0.0
C107 C 0.7472 0.21819 0.69635 0.0
H108 H 0.44245 0.59487 0.59093 0.0
H109 H 0.57514 0.4561 0.60462 0.0
H110 H 0.59189 0.58536 0.45915 0.0
C111 C 0.48341 0.57327 0.57354 0.0
C112 C 0.51445 0.59621 0.52132 0.0
C113 C 0.50508 0.52286 0.60378 0.0
C114 C 0.55825 0.49514 0.58141 0.0
C115 C 0.58983 0.51717 0.52934 0.0
C116 C 0.56773 0.56792 0.49941 0.0
H117 H 0.43509 0.41638 0.96417 0.0
H118 H 0.56463 0.55956 0.90705 0.0
H119 H 0.59823 0.46116 0.07069 0.0
C120 C 0.47749 0.44396 0.97248 0.0
C121 C 0.51432 0.43249 0.02271 0.0
C122 C 0.49593 0.48897 0.93079 0.0
C123 C 0.55067 0.52436 0.93945 0.0
C124 C 0.58706 0.51496 -0.00972 0.0
C125 C 0.56947 0.46861 0.03175 0.0
H126 H 0.64776 0.3058 0.32804 0.0
H127 H 0.80203 0.20638 0.38589 0.0
H128 H 0.68164 0.12575 0.24692 0.0
C129 C 0.67655 0.2664 0.32328 0.0
C130 C 0.65947 0.2169 0.28237 0.0
C131 C 0.72746 0.26258 0.36172 0.0
C132 C 0.76289 0.21022 0.35631 0.0
C133 C 0.74758 0.16187 0.31384 0.0
C134 C 0.69536 0.16473 0.2775 0.0
H135 H 0.39285 0.0673 0.07364 0.0
H136 H 0.55451 0.13525 0.97521 0.0
H137 H 0.45334 0.9695 0.90952 0.0
C138 C 0.4258 0.06252 0.03597 0.0
C139 C 0.41803 0.01329 -0.00733 0.0
C140 C 0.47472 0.10672 0.02981 0.0
C141 C 0.51676 0.1009 0.98032 0.0
C142 C 0.50975 0.05068 0.93734 0.0
C143 C 0.45998 0.0073 0.94349 0.0
O144 O 0.27474 0.79802 0.95518 0.0
Cd145 Cd 0.29958 0.84973 0.03375 0.0
Cd146 Cd 0.23106 0.93684 0.96938 0.0
O147 O 0.21796 0.86312 0.90805 0.0
O148 O 0.33959 0.79116 0.08796 0.0
O149 O 0.25202 0.83372 0.11308 0.0
C150 C 0.29469 0.79748 0.12657 0.0
C151 C 0.14529 0.9865 0.00634 0.0
C152 C 0.24121 0.81063 0.91041 0.0
C153 C 0.36361 0.97087 -0.00362 0.0
O154 O 0.3148 0.98497 0.97042 0.0
O155 O 0.36611 0.92115 0.02531 0.0
O156 O 0.16829 -0.00225 0.95263 0.0
O157 O 0.1715 0.94702 0.03907 0.0
O158 O 0.21913 0.58829 0.29635 0.0
Cd159 Cd 0.17085 0.50827 0.32207 0.0
Cd160 Cd 0.08245 0.56178 0.24951 0.0
O161 O 0.15323 0.62694 0.23387 0.0
O162 O 0.23241 0.45694 0.36139 0.0
O163 O 0.18613 0.42731 0.27468 0.0
C164 C 0.22499 0.41655 0.31666 0.0
C165 C 0.02594 0.52279 0.16492 0.0
C166 C 0.20517 0.62984 0.25986 0.0
C167 C 0.0518 0.54517 0.38398 0.0
O168 O 0.03619 0.566 0.3331 0.0
O169 O 0.10196 0.51821 0.38882 0.0
O170 O 0.01863 0.57756 0.1886 0.0
O171 O 0.06614 0.48966 0.18924 0.0
O172 O 0.72388 0.73334 0.96113 0.0
Cd173 Cd 0.70173 0.67908 0.03498 0.0
Cd174 Cd 0.7726 0.59818 0.9802 0.0
O175 O 0.78691 0.66751 0.91792 0.0
O176 O 0.66616 0.73374 0.09909 0.0
O177 O 0.75413 0.68789 0.11015 0.0
C178 C 0.71245 0.72308 0.13249 0.0
C179 C 0.85728 0.55043 0.01578 0.0
C180 C 0.76155 0.71919 0.91827 0.0
C181 C 0.64152 0.55623 0.0003 0.0
O182 O 0.6928 0.54223 0.97669 0.0
O183 O 0.63483 0.60926 0.02554 0.0
O184 O 0.83689 0.53913 0.961 0.0
O185 O 0.83046 0.59101 0.05052 0.0
O186 O 0.97511 0.96962 0.32621 0.0
Cd187 Cd 0.92573 0.96138 0.24677 0.0
Cd188 Cd 0.8397 0.01846 0.31838 0.0
O189 O 0.90689 0.01913 0.38313 0.0
O190 O 0.98741 0.94723 0.18075 0.0
O191 O 0.93049 0.02946 0.18701 0.0
C192 C 0.97293 -0.00096 0.15893 0.0
C193 C 0.78228 0.10567 0.3136 0.0
C194 C 0.95882 -0.0044 0.37668 0.0
C195 C 0.80861 0.88904 0.26681 0.0
O196 O 0.79341 0.93525 0.30045 0.0
O197 O 0.85994 0.88997 0.23824 0.0
O198 O 0.77663 0.06974 0.35932 0.0
O199 O 0.82117 0.09279 0.27012 0.0
O200 O 0.22388 0.23334 0.46113 0.0
Cd201 Cd 0.20172 0.17908 0.53498 0.0
Cd202 Cd 0.2726 0.09818 0.4802 0.0
O203 O 0.28691 0.16751 0.41792 0.0
O204 O 0.16616 0.23374 0.59909 0.0
O205 O 0.25413 0.18789 0.61015 0.0
C206 C 0.21245 0.22308 0.63249 0.0
C207 C 0.35728 0.05043 0.51578 0.0
C208 C 0.26155 0.21919 0.41827 0.0
C209 C 0.14152 0.05623 0.5003 0.0
O210 O 0.1928 0.04223 0.47669 0.0
O211 O 0.13483 0.10926 0.52554 0.0
O212 O 0.33689 0.03913 0.461 0.0
O213 O 0.33046 0.09102 0.55052 0.0
O214 O 0.47511 0.46962 0.82621 0.0
Cd215 Cd 0.42573 0.46138 0.74677 0.0
Cd216 Cd 0.3397 0.51846 0.81838 0.0
O217 O 0.40689 0.51913 0.88313 0.0
O218 O 0.48741 0.44723 0.68075 0.0
O219 O 0.43049 0.52946 0.68701 0.0
C220 C 0.47293 0.49904 0.65893 0.0
C221 C 0.28228 0.60567 0.8136 0.0
C222 C 0.45882 0.4956 0.87668 0.0
C223 C 0.30861 0.38904 0.76681 0.0
O224 O 0.29341 0.43525 0.80045 0.0
O225 O 0.35994 0.38997 0.73824 0.0
O226 O 0.27663 0.56974 0.85932 0.0
O227 O 0.32117 0.59279 0.77012 0.0
O228 O 0.77474 0.29802 0.45518 0.0
Cd229 Cd 0.79958 0.34973 0.53375 0.0
Cd230 Cd 0.73106 0.43685 0.46938 0.0
O231 O 0.71796 0.36312 0.40805 0.0
O232 O 0.83959 0.29116 0.58796 0.0
O233 O 0.75202 0.33372 0.61308 0.0
C234 C 0.79469 0.29748 0.62657 0.0
C235 C 0.64529 0.48651 0.50634 0.0
C236 C 0.74121 0.31063 0.41041 0.0
C237 C 0.86361 0.47087 0.49638 0.0
O238 O 0.8148 0.48497 0.47042 0.0
O239 O 0.86611 0.42115 0.52531 0.0
O240 O 0.66829 0.49775 0.45263 0.0
O241 O 0.6715 0.44702 0.53907 0.0
O242 O 0.71913 0.08829 0.79635 0.0
Cd243 Cd 0.67085 0.00827 0.82207 0.0
Cd244 Cd 0.58245 0.06178 0.74951 0.0
O245 O 0.65323 0.12694 0.73387 0.0
O246 O 0.73241 0.95694 0.86139 0.0
O247 O 0.68614 0.92731 0.77468 0.0
C248 C 0.72499 0.91655 0.81666 0.0
C249 C 0.52594 0.02279 0.66492 0.0
C250 C 0.70517 0.12984 0.75986 0.0
C251 C 0.5518 0.04517 0.88398 0.0
O252 O 0.53619 0.066 0.8331 0.0
O253 O 0.60196 0.01821 0.88882 0.0
O254 O 0.51863 0.07756 0.6886 0.0
O255 O 0.56614 -0.01034 0.68924 0.0
O256 O 0.95419 0.31736 0.00215 0.0
Cd257 Cd 0.95449 0.23716 0.94698 0.0
Cd258 Cd 0.01301 0.30959 0.86807 0.0
O259 O 0.00979 0.3751 0.93861 0.0
O260 O 0.93683 0.16832 0.00368 0.0
O261 O 0.0247 0.1809 0.95172 0.0
C262 C -0.00881 0.15004 -0.00923 0.0
C263 C 0.1058 0.29562 0.81913 0.0
C264 C 0.98229 0.36849 -0.01009 0.0
C265 C 0.89325 0.25455 0.82559 0.0
O266 O 0.93709 0.29361 0.81411 0.0
O267 O 0.89246 0.2255 0.87544 0.0
O268 O 0.07637 0.34493 0.81225 0.0
O269 O 0.08302 0.25368 0.85486 0.0
O270 O 0.45419 0.81736 0.50215 0.0
Cd271 Cd 0.45449 0.73716 0.44698 0.0
Cd272 Cd 0.51301 0.80959 0.36807 0.0
O273 O 0.50979 0.8751 0.43861 0.0
O274 O 0.43683 0.66832 0.50368 0.0
O275 O 0.5247 0.6809 0.45172 0.0
C276 C 0.49119 0.65004 0.49077 0.0
C277 C 0.6058 0.79562 0.31913 0.0
C278 C 0.48229 0.86849 0.48991 0.0
C279 C 0.39325 0.75455 0.32559 0.0
O280 O 0.43709 0.79361 0.3141 0.0
O281 O 0.39246 0.7255 0.37544 0.0
O282 O 0.57637 0.84493 0.31224 0.0
O283 O 0.58302 0.75368 0.35486 0.0
O284 O 0.92846 0.73904 0.74947 0.0
Cd285 Cd 0.00629 0.71282 0.70108 0.0
Cd286 Cd 0.96366 0.79299 0.61639 0.0
O287 O 0.89567 0.80481 0.68388 0.0
O288 O 0.05985 0.67155 0.75844 0.0
O289 O 0.08727 0.76042 0.71541 0.0
C290 C 0.10042 0.71627 0.7505 0.0
C291 C -0.00505 0.88092 0.56261 0.0
C292 C 0.88961 0.77769 0.7346 0.0
C293 C 0.98066 0.65875 0.5752 0.0
O294 O 0.96545 0.71224 0.5611 0.0
O295 O -0.00339 0.64845 0.62941 0.0
O296 O 0.94183 0.85277 0.55515 0.0
O297 O 0.03077 0.8603 0.60293 0.0
O298 O 0.42846 0.23904 0.24947 0.0
Cd299 Cd 0.50629 0.21282 0.20108 0.0
Cd300 Cd 0.46366 0.29299 0.11639 0.0
O301 O 0.39567 0.30481 0.18388 0.0
O302 O 0.55985 0.17155 0.25844 0.0
O303 O 0.58727 0.26042 0.21541 0.0
C304 C 0.60042 0.21627 0.2505 0.0
C305 C 0.49495 0.38092 0.06261 0.0
C306 C 0.38961 0.27769 0.2346 0.0
C307 C 0.48066 0.15875 0.0752 0.0
O308 O 0.46545 0.21224 0.0611 0.0
O309 O 0.49661 0.14845 0.12941 0.0
O310 O 0.44183 0.35277 0.05515 0.0
O311 O 0.53077 0.3603 0.10293 0.0
loop_
_geom_bond_atom_site_label_1
_geom_bond_atom_site_label_2
_geom_bond_distance
_geom_bond_site_symmetry_2
_ccdc_geom_bond_type
H0 C3 0.931 . S
H1 C6 0.928 . S
H2 C8 0.930 . S
C3 H0 0.931 . S
C3 C4 1.413 . S
C3 C5 1.360 . S
C4 C3 1.413 . S
C4 C8 1.429 . S
C5 C3 1.360 . S
C5 C6 1.372 . S
C6 H1 0.928 . S
C6 C5 1.372 . S
C6 C7 1.404 . S
C7 C6 1.404 . S
C7 C8 1.391 . S
C8 H2 0.930 . S
C8 C4 1.429 . S
C8 C7 1.391 . S
H9 C12 0.931 . S
H10 C15 0.928 . S
H11 C17 0.930 . S
C12 H9 0.931 . S
C12 C13 1.413 . S
C12 C14 1.360 . S
C13 C12 1.413 . S
C13 C17 1.429 . S
C14 C12 1.360 . S
C14 C15 1.372 . S
C15 H10 0.928 . S
C15 C14 1.372 . S
C15 C16 1.404 . S
C16 C15 1.404 . S
C16 C17 1.391 . S
C17 H11 0.930 . S
C17 C13 1.429 . S
C17 C16 1.391 . S
H18 C21 0.931 . S
H19 C24 0.928 . S
H20 C26 0.929 . S
C21 H18 0.931 . S
C21 C22 1.413 . S
C21 C23 1.360 . S
C22 C21 1.413 . S
C22 C26 1.429 . S
C23 C21 1.360 . S
C23 C24 1.372 . S
C24 H19 0.928 . S
C24 C23 1.372 . S
C24 C25 1.404 . S
C25 C24 1.404 . S
C25 C26 1.391 . S
C26 H20 0.929 . S
C26 C22 1.429 . S
C26 C25 1.391 . S
H27 C30 0.931 . S
H28 C33 0.928 . S
H29 C35 0.930 . S
C30 H27 0.931 . S
C30 C31 1.413 . S
C30 C32 1.360 . S
C31 C30 1.413 . S
C31 C35 1.429 . S
C32 C30 1.360 . S
C32 C33 1.372 . S
C33 H28 0.928 . S
C33 C32 1.372 . S
C33 C34 1.404 . S
C34 C33 1.404 . S
C34 C35 1.391 . S
C35 H29 0.930 . S
C35 C31 1.429 . S
C35 C34 1.391 . S
H36 C39 0.931 1_655 S
H37 C42 0.928 . S
H38 C44 0.930 . S
C39 H36 0.931 1_455 S
C39 C40 1.413 . S
C39 C41 1.360 . S
C40 C39 1.413 . S
C40 C44 1.429 . S
C41 C39 1.360 . S
C41 C42 1.372 1_565 S
C42 H37 0.928 . S
C42 C41 1.372 1_545 S
C42 C43 1.404 1_545 S
C43 C42 1.404 1_565 S
C43 C44 1.391 . S
C44 H38 0.930 . S
C44 C40 1.429 . S
C44 C43 1.391 . S
H45 C48 0.931 . S
H46 C51 0.928 . S
H47 C53 0.930 . S
C48 H45 0.931 . S
C48 C49 1.413 . S
C48 C50 1.360 . S
C49 C48 1.413 . S
C49 C53 1.429 . S
C50 C48 1.360 . S
C50 C51 1.372 . S
C51 H46 0.928 . S
C51 C50 1.372 . S
C51 C52 1.404 . S
C52 C51 1.404 . S
C52 C53 1.391 . S
C53 H47 0.930 . S
C53 C49 1.429 . S
C53 C52 1.391 . S
H54 C57 0.931 . S
H55 C60 0.928 1_455 S
H56 C62 0.930 . S
C57 H54 0.931 . S
C57 C58 1.413 . S
C57 C59 1.360 . S
C58 C57 1.413 . S
C58 C62 1.429 . S
C59 C57 1.360 . S
C59 C60 1.372 . S
C60 H55 0.928 1_655 S
C60 C59 1.372 . S
C60 C61 1.404 . S
C61 C60 1.404 . S
C61 C62 1.391 . S
C62 H56 0.930 . S
C62 C58 1.429 . S
C62 C61 1.391 . S
H63 C66 0.931 . S
H64 C69 0.928 . S
H65 C71 0.930 . S
C66 H63 0.931 . S
C66 C67 1.413 . S
C66 C68 1.360 . S
C67 C66 1.413 . S
C67 C71 1.429 . S
C68 C66 1.360 . S
C68 C69 1.372 . S
C69 H64 0.928 . S
C69 C68 1.372 . S
C69 C70 1.404 . S
C70 C69 1.404 . S
C70 C71 1.391 . S
C71 H65 0.930 . S
C71 C67 1.429 . S
C71 C70 1.391 . S
H72 C75 0.931 . S
H73 C78 0.928 . S
H74 C80 0.930 . S
C75 H72 0.931 . S
C75 C76 1.413 . S
C75 C77 1.360 . S
C76 C75 1.413 . S
C76 C80 1.429 . S
C77 C75 1.360 . S
C77 C78 1.372 . S
C78 H73 0.928 . S
C78 C77 1.372 . S
C78 C79 1.404 . S
C79 C78 1.404 . S
C79 C80 1.391 . S
C80 H74 0.930 . S
C80 C76 1.429 . S
C80 C79 1.391 . S
H81 C84 0.931 1_545 S
H82 C87 0.928 . S
H83 C89 0.930 . S
C84 H81 0.931 1_565 S
C84 C85 1.413 . S
C84 C86 1.360 . S
C85 C84 1.413 . S
C85 C89 1.429 . S
C86 C84 1.360 . S
C86 C87 1.372 . S
C87 H82 0.928 . S
C87 C86 1.372 . S
C87 C88 1.404 . S
C88 C87 1.404 . S
C88 C89 1.391 . S
C89 H83 0.930 . S
C89 C85 1.429 . S
C89 C88 1.391 . S
H90 C93 0.931 . S
H91 C96 0.928 . S
H92 C98 0.930 . S
C93 H90 0.931 . S
C93 C94 1.413 . S
C93 C95 1.360 . S
C94 C93 1.413 . S
C94 C98 1.429 . S
C95 C93 1.360 . S
C95 C96 1.372 . S
C96 H91 0.928 . S
C96 C95 1.372 . S
C96 C97 1.404 . S
C97 C96 1.404 . S
C97 C98 1.391 . S
C98 H92 0.930 . S
C98 C94 1.429 . S
C98 C97 1.391 . S
H99 C102 0.931 . S
H100 C105 0.928 . S
H101 C107 0.930 . S
C102 H99 0.931 . S
C102 C103 1.413 . S
C102 C104 1.360 . S
C103 C102 1.413 . S
C103 C107 1.429 . S
C104 C102 1.360 . S
C104 C105 1.372 . S
C105 H100 0.928 . S
C105 C104 1.372 . S
C105 C106 1.404 . S
C106 C105 1.404 . S
C106 C107 1.391 . S
C107 H101 0.930 . S
C107 C103 1.429 . S
C107 C106 1.391 . S
H108 C111 0.931 . S
H109 C114 0.928 . S
H110 C116 0.930 . S
C111 H108 0.931 . S
C111 C112 1.413 . S
C111 C113 1.360 . S
C112 C111 1.413 . S
C112 C116 1.429 . S
C113 C111 1.360 . S
C113 C114 1.372 . S
C114 H109 0.928 . S
C114 C113 1.372 . S
C114 C115 1.404 . S
C115 C114 1.404 . S
C115 C116 1.391 . S
C116 H110 0.930 . S
C116 C112 1.429 . S
C116 C115 1.391 . S
H117 C120 0.931 . S
H118 C123 0.928 . S
H119 C125 0.930 1_554 S
C120 H117 0.931 . S
C120 C121 1.413 . S
C120 C122 1.360 . S
C121 C120 1.413 . S
C121 C125 1.429 . S
C122 C120 1.360 . S
C122 C123 1.372 . S
C123 H118 0.928 . S
C123 C122 1.372 . S
C123 C124 1.404 . S
C124 C123 1.404 . S
C124 C125 1.391 . S
C125 H119 0.930 1_556 S
C125 C121 1.429 . S
C125 C124 1.391 . S
H126 C129 0.931 . S
H127 C132 0.928 . S
H128 C134 0.930 . S
C129 H126 0.931 . S
C129 C130 1.413 . S
C129 C131 1.360 . S
C130 C129 1.413 . S
C130 C134 1.429 . S
C131 C129 1.360 . S
C131 C132 1.372 . S
C132 H127 0.928 . S
C132 C131 1.372 . S
C132 C133 1.404 . S
C133 C132 1.404 . S
C133 C134 1.391 . S
C134 H128 0.930 . S
C134 C130 1.429 . S
C134 C133 1.391 . S
H135 C138 0.931 . S
H136 C141 0.928 . S
H137 C143 0.930 1_565 S
C138 H135 0.931 . S
C138 C139 1.413 1_554 S
C138 C140 1.360 1_554 S
C139 C138 1.413 1_556 S
C139 C143 1.429 . S
C140 C138 1.360 1_556 S
C140 C141 1.372 . S
C141 H136 0.928 . S
C141 C140 1.372 . S
C141 C142 1.404 . S
C142 C141 1.404 . S
C142 C143 1.391 . S
C143 H137 0.930 1_545 S
C143 C139 1.429 . S
C143 C142 1.391 . S
O144 Cd145 2.223 1_556 S
O144 C152 1.315 . S
Cd145 O144 2.223 1_554 S
Cd145 O148 2.297 . S
Cd145 O149 2.439 . S
Cd145 O155 2.240 . S
Cd146 O147 2.240 . S
Cd146 O154 2.223 1_554 S
Cd146 O156 2.297 1_565 S
Cd146 O157 2.439 . S
O147 Cd146 2.240 . S
O147 C152 1.279 1_554 S
O148 Cd145 2.297 . S
O148 C150 1.247 . S
O149 Cd145 2.439 . S
O149 C150 1.208 . S
C150 O148 1.247 . S
C150 O149 1.208 . S
C151 O156 1.247 . S
C151 O157 1.208 1_545 S
C152 O144 1.315 . S
C152 O147 1.279 1_556 S
C153 O154 1.315 . S
C153 O155 1.279 1_556 S
O154 Cd146 2.223 1_556 S
O154 C153 1.315 . S
O155 Cd145 2.240 . S
O155 C153 1.279 1_554 S
O156 Cd146 2.297 1_545 S
O156 C151 1.247 . S
O157 Cd146 2.439 . S
O157 C151 1.208 1_565 S
O158 Cd159 2.223 . S
O158 C166 1.315 . S
Cd159 O158 2.223 . S
Cd159 O162 2.297 . S
Cd159 O163 2.439 . S
Cd159 O169 2.240 . S
Cd160 O161 2.240 . S
Cd160 O168 2.223 . S
Cd160 O170 2.297 1_455 S
Cd160 O171 2.439 . S
O161 Cd160 2.240 . S
O161 C166 1.279 . S
O162 Cd159 2.297 . S
O162 C164 1.247 . S
O163 Cd159 2.439 . S
O163 C164 1.208 . S
C164 O162 1.247 . S
C164 O163 1.208 . S
C165 O170 1.247 . S
C165 O171 1.208 1_655 S
C166 O158 1.315 . S
C166 O161 1.279 . S
C167 O168 1.315 . S
C167 O169 1.279 . S
O168 Cd160 2.223 . S
O168 C167 1.315 . S
O169 Cd159 2.240 . S
O169 C167 1.279 . S
O170 Cd160 2.297 1_655 S
O170 C165 1.247 . S
O171 Cd160 2.439 . S
O171 C165 1.208 1_455 S
O172 Cd173 2.223 1_556 S
O172 C180 1.315 . S
Cd173 O172 2.223 1_554 S
Cd173 O176 2.297 . S
Cd173 O177 2.439 . S
Cd173 O183 2.240 1_554 S
Cd174 O175 2.240 . S
Cd174 O182 2.223 . S
Cd174 O184 2.297 . S
Cd174 O185 2.439 1_556 S
O175 Cd174 2.240 . S
O175 C180 1.279 . S
O176 Cd173 2.297 . S
O176 C178 1.247 . S
O177 Cd173 2.439 . S
O177 C178 1.208 . S
C178 O176 1.247 . S
C178 O177 1.208 . S
C179 O184 1.247 1_554 S
C179 O185 1.208 . S
C180 O172 1.315 . S
C180 O175 1.279 . S
C181 O182 1.315 . S
C181 O183 1.279 . S
O182 Cd174 2.223 . S
O182 C181 1.315 . S
O183 Cd173 2.240 1_556 S
O183 C181 1.279 . S
O184 Cd174 2.297 . S
O184 C179 1.247 1_556 S
O185 Cd174 2.439 1_554 S
O185 C179 1.208 . S
O186 Cd187 2.223 1_565 S
O186 C194 1.315 . S
Cd187 O186 2.223 1_545 S
Cd187 O190 2.297 1_655 S
Cd187 O191 2.439 . S
Cd187 O197 2.240 1_545 S
Cd188 O189 2.240 . S
Cd188 O196 2.223 1_545 S
Cd188 O198 2.297 . S
Cd188 O199 2.439 . S
O189 Cd188 2.240 . S
O189 C194 1.279 1_545 S
O190 Cd187 2.297 1_455 S
O190 C192 1.247 . S
O191 Cd187 2.439 . S
O191 C192 1.208 1_655 S
C192 O190 1.247 . S
C192 O191 1.208 1_455 S
C193 O198 1.247 . S
C193 O199 1.208 . S
C194 O186 1.315 . S
C194 O189 1.279 1_565 S
C195 O196 1.315 . S
C195 O197 1.279 . S
O196 Cd188 2.223 1_565 S
O196 C195 1.315 . S
O197 Cd187 2.240 1_565 S
O197 C195 1.279 . S
O198 Cd188 2.297 . S
O198 C193 1.247 . S
O199 Cd188 2.439 . S
O199 C193 1.208 . S
O200 Cd201 2.223 . S
O200 C208 1.315 . S
Cd201 O200 2.223 . S
Cd201 O204 2.297 . S
Cd201 O205 2.439 . S
Cd201 O211 2.240 . S
Cd202 O203 2.240 . S
Cd202 O210 2.223 . S
Cd202 O212 2.297 1_545 S
Cd202 O213 2.439 . S
O203 Cd202 2.240 . S
O203 C208 1.279 . S
O204 Cd201 2.297 . S
O204 C206 1.247 . S
O205 Cd201 2.439 . S
O205 C206 1.208 . S
C206 O204 1.247 . S
C206 O205 1.208 . S
C207 O212 1.247 1_545 S
C207 O213 1.208 . S
C208 O200 1.315 . S
C208 O203 1.279 . S
C209 O210 1.315 . S
C209 O211 1.279 . S
O210 Cd202 2.223 . S
O210 C209 1.315 . S
O211 Cd201 2.240 . S
O211 C209 1.279 . S
O212 Cd202 2.297 1_565 S
O212 C207 1.247 1_565 S
O213 Cd202 2.439 . S
O213 C207 1.208 . S
O214 Cd215 2.223 . S
O214 C222 1.315 . S
Cd215 O214 2.223 . S
Cd215 O218 2.297 . S
Cd215 O219 2.439 . S
Cd215 O225 2.240 . S
Cd216 O217 2.240 . S
Cd216 O224 2.223 . S
Cd216 O226 2.297 . S
Cd216 O227 2.439 . S
O217 Cd216 2.240 . S
O217 C222 1.279 . S
O218 Cd215 2.297 . S
O218 C220 1.247 . S
O219 Cd215 2.439 . S
O219 C220 1.208 . S
C220 O218 1.247 . S
C220 O219 1.208 . S
C221 O226 1.247 . S
C221 O227 1.208 . S
C222 O214 1.315 . S
C222 O217 1.279 . S
C223 O224 1.315 . S
C223 O225 1.279 . S
O224 Cd216 2.223 . S
O224 C223 1.315 . S
O225 Cd215 2.240 . S
O225 C223 1.279 . S
O226 Cd216 2.297 . S
O226 C221 1.247 . S
O227 Cd216 2.439 . S
O227 C221 1.208 . S
O228 Cd229 2.223 . S
O228 C236 1.315 . S
Cd229 O228 2.223 . S
Cd229 O232 2.297 . S
Cd229 O233 2.439 . S
Cd229 O239 2.240 . S
Cd230 O231 2.240 . S
Cd230 O238 2.223 . S
Cd230 O240 2.297 . S
Cd230 O241 2.439 . S
O231 Cd230 2.240 . S
O231 C236 1.279 . S
O232 Cd229 2.297 . S
O232 C234 1.247 . S
O233 Cd229 2.439 . S
O233 C234 1.208 . S
C234 O232 1.247 . S
C234 O233 1.208 . S
C235 O240 1.247 . S
C235 O241 1.208 . S
C236 O228 1.315 . S
C236 O231 1.279 . S
C237 O238 1.315 . S
C237 O239 1.279 . S
O238 Cd230 2.223 . S
O238 C237 1.315 . S
O239 Cd229 2.240 . S
O239 C237 1.279 . S
O240 Cd230 2.297 . S
O240 C235 1.247 . S
O241 Cd230 2.439 . S
O241 C235 1.208 . S
O242 Cd243 2.223 1_545 S
O242 C250 1.315 . S
Cd243 O242 2.223 1_565 S
Cd243 O246 2.297 . S
Cd243 O247 2.439 . S
Cd243 O253 2.240 1_565 S
Cd244 O245 2.240 . S
Cd244 O252 2.223 . S
Cd244 O254 2.297 . S
Cd244 O255 2.439 1_545 S
O245 Cd244 2.240 . S
O245 C250 1.279 . S
O246 Cd243 2.297 . S
O246 C248 1.247 . S
O247 Cd243 2.439 . S
O247 C248 1.208 . S
C248 O246 1.247 . S
C248 O247 1.208 . S
C249 O254 1.247 1_565 S
C249 O255 1.208 . S
C250 O242 1.315 . S
C250 O245 1.279 . S
C251 O252 1.315 . S
C251 O253 1.279 . S
O252 Cd244 2.223 . S
O252 C251 1.315 . S
O253 Cd243 2.240 1_545 S
O253 C251 1.279 . S
O254 Cd244 2.297 . S
O254 C249 1.247 1_545 S
O255 Cd244 2.439 1_565 S
O255 C249 1.208 . S
O256 Cd257 2.223 1_554 S
O256 C264 1.315 1_554 S
Cd257 O256 2.223 1_556 S
Cd257 O260 2.297 1_556 S
Cd257 O261 2.439 1_655 S
Cd257 O267 2.240 . S
Cd258 O259 2.240 1_455 S
Cd258 O266 2.223 1_455 S
Cd258 O268 2.297 . S
Cd258 O269 2.439 . S
O259 Cd258 2.240 1_655 S
O259 C264 1.279 . S
O260 Cd257 2.297 1_554 S
O260 C262 1.249 1_655 S
O261 Cd257 2.439 1_455 S
O261 C262 1.208 1_556 S
C262 O260 1.249 1_455 S
C262 O261 1.208 1_554 S
C263 O268 1.247 . S
C263 O269 1.208 . S
C264 O256 1.315 1_556 S
C264 O259 1.279 . S
C265 O266 1.315 . S
C265 O267 1.279 . S
O266 Cd258 2.223 1_655 S
O266 C265 1.315 . S
O267 Cd257 2.240 . S
O267 C265 1.279 . S
O268 Cd258 2.297 . S
O268 C263 1.247 . S
O269 Cd258 2.439 . S
O269 C263 1.208 . S
O270 Cd271 2.223 . S
O270 C278 1.315 . S
Cd271 O270 2.223 . S
Cd271 O274 2.297 . S
Cd271 O275 2.439 . S
Cd271 O281 2.240 . S
Cd272 O273 2.240 . S
Cd272 O280 2.223 . S
Cd272 O282 2.297 . S
Cd272 O283 2.439 . S
O273 Cd272 2.240 . S
O273 C278 1.279 . S
O274 Cd271 2.297 . S
O274 C276 1.247 . S
O275 Cd271 2.439 . S
O275 C276 1.208 . S
C276 O274 1.247 . S
C276 O275 1.208 . S
C277 O282 1.247 . S
C277 O283 1.208 . S
C278 O270 1.315 . S
C278 O273 1.279 . S
C279 O280 1.315 . S
C279 O281 1.279 . S
O280 Cd272 2.223 . S
O280 C279 1.315 . S
O281 Cd271 2.240 . S
O281 C279 1.279 . S
O282 Cd272 2.297 . S
O282 C277 1.247 . S
O283 Cd272 2.439 . S
O283 C277 1.208 . S
O284 Cd285 2.223 1_655 S
O284 C292 1.315 . S
Cd285 O284 2.223 1_455 S
Cd285 O288 2.297 . S
Cd285 O289 2.439 . S
Cd285 O295 2.243 . S
Cd286 O287 2.240 . S
Cd286 O294 2.223 . S
Cd286 O296 2.297 . S
Cd286 O297 2.439 1_655 S
O287 Cd286 2.240 . S
O287 C292 1.279 . S
O288 Cd285 2.297 . S
O288 C290 1.247 . S
O289 Cd285 2.439 . S
O289 C290 1.208 . S
C290 O288 1.247 . S
C290 O289 1.208 . S
C291 O296 1.247 1_455 S
C291 O297 1.208 . S
C292 O284 1.315 . S
C292 O287 1.279 . S
C293 O294 1.315 . S
C293 O295 1.270 1_655 S
O294 Cd286 2.223 . S
O294 C293 1.315 . S
O295 Cd285 2.243 . S
O295 C293 1.270 1_455 S
O296 Cd286 2.297 . S
O296 C291 1.247 1_655 S
O297 Cd286 2.439 1_455 S
O297 C291 1.208 . S
O298 Cd299 2.223 . S
O298 C306 1.315 . S
Cd299 O298 2.223 . S
Cd299 O302 2.297 . S
Cd299 O303 2.439 . S
Cd299 O309 2.240 . S
Cd300 O301 2.240 . S
Cd300 O308 2.223 . S
Cd300 O310 2.297 . S
Cd300 O311 2.439 . S
O301 Cd300 2.240 . S
O301 C306 1.279 . S
O302 Cd299 2.297 . S
O302 C304 1.247 . S
O303 Cd299 2.439 . S
O303 C304 1.208 . S
C304 O302 1.247 . S
C304 O303 1.208 . S
C305 O310 1.247 . S
C305 O311 1.208 . S
C306 O298 1.315 . S
C306 O301 1.279 . S
C307 O308 1.315 . S
C307 O309 1.279 . S
O308 Cd300 2.223 . S
O308 C307 1.315 . S
O309 Cd299 2.240 . S
O309 C307 1.279 . S
O310 Cd300 2.297 . S
O310 C305 1.247 . S
O311 Cd300 2.439 . S
O311 C305 1.208 . S
C152 C50 1.676 . S
C167 C61 1.790 1_455 S
C67 C180 1.708 . S
C194 C41 1.562 1_655 S
C206 C95 1.605 . S
C220 C113 1.303 . S
C106 C234 1.685 . S
C249 C86 1.445 . S
C104 C265 1.634 . S
C278 C88 1.511 . S
C94 C263 1.545 . S
C276 C112 1.619 . S
C70 C292 1.889 . S
C40 C291 1.542 . S
C49 C290 1.618 . S
C59 C293 1.778 . S
C34 C195 1.858 . S
C133 C193 1.513 . S
C153 C139 1.535 1_565 S
C164 C77 1.812 . S
C43 C209 1.672 1_565 S
C250 C103 1.991 . S
C207 C85 1.564 1_545 S
C235 C115 1.473 . S
C236 C131 1.676 . S
C142 C251 1.790 . S
C76 C208 1.708 . S
C222 C122 1.562 . S
C32 C178 1.606 . S
C192 C5 1.303 . S
C150 C16 1.685 . S
C165 C23 1.445 . S
C14 C279 1.634 . S
C25 C264 1.511 1_554 S
C31 C277 1.545 . S
C4 C262 1.619 . S
C306 C79 1.889 . S
C305 C121 1.541 1_554 S
C304 C130 1.619 . S
C140 C307 1.777 1_556 S
C97 C223 1.858 . S
C221 C52 1.512 . S
C237 C58 1.535 . S
C248 C68 1.812 . S
C124 C181 1.672 . S
C166 C13 1.991 . S
C22 C179 1.564 . S
C151 C7 1.473 . S
