# Generated by pormake.
# Topology dag, (6,3)-cn, num edge types: 1
# Building blocks:
#     Node 0, Type 0, BuildingBlock: OJICUG_clean_sbu_0, # of connection points: 6
#     Node 1, Type 0, BuildingBlock: OJICUG_clean_sbu_0, # of connection points: 6
#     Node 2, Type 0, BuildingBlock: OJICUG_clean_sbu_0, # of connection points: 6
#     Node 3, Type 0, BuildingBlock: OJICUG_clean_sbu_0, # of connection points: 6
#     Node 4, Type 1, BuildingBlock: MIDCAF_clean_linker_0, # of connection points: 3
#     Node 5, Type 1, BuildingBlock: MIDCAF_clean_linker_0, # of connection points: 3
#     Node 6, Type 1, BuildingBlock: MIDCAF_clean_linker_0, # of connection points: 3
#     Node 7, Type 1, BuildingBlock: MIDCAF_clean_linker_0, # of connection points: 3
#     Node 8, Type 1, BuildingBlock: MIDCAF_clean_linker_0, # of connection points: 3
#     Node 9, Type 1, BuildingBlock: MIDCAF_clean_linker_0, # of connection points: 3
#     Node 10, Type 1, BuildingBlock: MIDCAF_clean_linker_0, # of connection points: 3
#     Node 11, Type 1, BuildingBlock: MIDCAF_clean_linker_0, # of connection points: 3
#     Edge 12, Type (0, 1), BuildingBlock: EZIPEK_clean_linker_0, # of connection points: 2
#     Edge 13, Type (0, 1), BuildingBlock: EZIPEK_clean_linker_0, # of connection points: 2
#     Edge 14, Type (0, 1), BuildingBlock: EZIPEK_clean_linker_0, # of connection points: 2
#     Edge 15, Type (0, 1), BuildingBlock: EZIPEK_clean_linker_0, # of connection points: 2
#     Edge 16, Type (0, 1), BuildingBlock: EZIPEK_clean_linker_0, # of connection points: 2
#     Edge 17, Type (0, 1), BuildingBlock: EZIPEK_clean_linker_0, # of connection points: 2
#     Edge 18, Type (0, 1), BuildingBlock: EZIPEK_clean_linker_0, # of connection points: 2
#     Edge 19, Type (0, 1), BuildingBlock: EZIPEK_clean_linker_0, # of connection points: 2
#     Edge 20, Type (0, 1), BuildingBlock: EZIPEK_clean_linker_0, # of connection points: 2
#     Edge 21, Type (0, 1), BuildingBlock: EZIPEK_clean_linker_0, # of connection points: 2
#     Edge 22, Type (0, 1), BuildingBlock: EZIPEK_clean_linker_0, # of connection points: 2
#     Edge 23, Type (0, 1), BuildingBlock: EZIPEK_clean_linker_0, # of connection points: 2
#     Edge 24, Type (0, 1), BuildingBlock: EZIPEK_clean_linker_0, # of connection points: 2
#     Edge 25, Type (0, 1), BuildingBlock: EZIPEK_clean_linker_0, # of connection points: 2
#     Edge 26, Type (0, 1), BuildingBlock: EZIPEK_clean_linker_0, # of connection points: 2
#     Edge 27, Type (0, 1), BuildingBlock: EZIPEK_clean_linker_0, # of connection points: 2
#     Edge 28, Type (0, 1), BuildingBlock: EZIPEK_clean_linker_0, # of connection points: 2
#     Edge 29, Type (0, 1), BuildingBlock: EZIPEK_clean_linker_0, # of connection points: 2
#     Edge 30, Type (0, 1), BuildingBlock: EZIPEK_clean_linker_0, # of connection points: 2
#     Edge 31, Type (0, 1), BuildingBlock: EZIPEK_clean_linker_0, # of connection points: 2
#     Edge 32, Type (0, 1), BuildingBlock: EZIPEK_clean_linker_0, # of connection points: 2
#     Edge 33, Type (0, 1), BuildingBlock: EZIPEK_clean_linker_0, # of connection points: 2
#     Edge 34, Type (0, 1), BuildingBlock: EZIPEK_clean_linker_0, # of connection points: 2
#     Edge 35, Type (0, 1), BuildingBlock: EZIPEK_clean_linker_0, # of connection points: 2
# Relax obj value: 0.257
# Max RMSD: 0.201
# Mean RMSD: 0.166
data_MOF--net-dag--node1-OJICUG_clean_sbu_0--node2-MIDCAF_clean_linker_0--edge1-EZIPEK_clean_linker_0
_symmetry_space_group_name_H-M    P1
_symmetry_Int_Tables_number       1
_symmetry_cell_setting            triclinic
loop_
_symmetry_equiv_pos_as_xyz
'x, y, z'
_cell_length_a     35.81857
_cell_length_b     34.156343
_cell_length_c     35.102278
_cell_angle_alpha  89.814773
_cell_angle_beta   95.247215
_cell_angle_gamma 89.918544
loop_
_atom_site_label
_atom_site_type_symbol
_atom_site_fract_x
_atom_site_fract_y
_atom_site_fract_z
_atom_type_partial_charge
Sc0 Sc 0.16824 0.86752 0.0376 0.0
Sc1 Sc 0.19376 0.78317 0.98882 0.0
Sc2 Sc 0.26385 0.84278 0.03754 0.0
O3 O 0.20866 0.8311 0.02134 0.0
C4 C 0.23159 0.92828 0.01822 0.0
C5 C 0.13601 0.84736 0.95243 0.0
C6 C 0.26648 0.81342 0.95158 0.0
C7 C 0.12909 0.78415 0.04512 0.0
C8 C 0.22536 0.86565 0.11302 0.0
C9 C 0.2604 0.74965 0.04625 0.0
O10 O 0.19794 0.91907 0.02269 0.0
O11 O 0.15399 0.81538 0.95043 0.0
O12 O 0.28032 0.83224 0.98071 0.0
O13 O 0.1332 0.82017 0.0535 0.0
O14 O 0.25384 0.85507 0.09639 0.0
O15 O 0.23106 0.74517 0.02349 0.0
O16 O 0.19297 0.87025 0.0956 0.0
O17 O 0.14976 0.7661 0.02342 0.0
O18 O 0.27521 0.78281 0.05417 0.0
O19 O 0.13882 0.86931 0.98164 0.0
O20 O 0.25881 0.90428 0.02275 0.0
O21 O 0.23579 0.79472 0.95038 0.0
Sc22 Sc 0.76222 0.65278 0.52746 0.0
Sc23 Sc 0.69011 0.71354 0.48305 0.0
Sc24 Sc 0.66789 0.62328 0.52336 0.0
O25 O 0.7068 0.66322 0.51131 0.0
C26 C 0.73403 0.56791 0.50047 0.0
C27 C 0.76518 0.69145 0.44526 0.0
C28 C 0.63862 0.65046 0.43832 0.0
C29 C 0.75241 0.74365 0.54665 0.0
C30 C 0.72349 0.62115 0.59966 0.0
C31 C 0.62361 0.7019 0.53675 0.0
O32 O 0.7601 0.59287 0.50721 0.0
O33 O 0.73485 0.71046 0.44642 0.0
O34 O 0.63934 0.62695 0.46656 0.0
O35 O 0.77018 0.71134 0.54964 0.0
O36 O 0.69194 0.6154 0.58102 0.0
O37 O 0.64153 0.72255 0.51439 0.0
O38 O 0.75194 0.63437 0.58466 0.0
O39 O 0.72262 0.74898 0.52458 0.0
O40 O 0.63174 0.66644 0.54457 0.0
O41 O 0.7788 0.66923 0.47212 0.0
O42 O 0.69981 0.57526 0.50423 0.0
O43 O 0.65622 0.68274 0.43911 0.0
Sc44 Sc 0.8024 0.22377 0.09797 0.0
Sc45 Sc 0.73405 0.15904 0.05439 0.0
Sc46 Sc 0.83001 0.13657 0.05584 0.0
O47 O 0.78875 0.1732 0.06935 0.0
C48 C 0.86596 0.22059 0.0414 0.0
C49 C 0.73471 0.25058 0.03792 0.0
C50 C 0.77424 0.13291 0.98057 0.0
C51 C 0.73208 0.19398 0.13864 0.0
C52 C 0.86062 0.1626 0.13925 0.0
C53 C 0.76762 0.07603 0.07905 0.0
O54 O 0.84356 0.24024 0.05988 0.0
O55 O 0.72189 0.21644 0.03092 0.0
O56 O 0.80703 0.13222 0.9976 0.0
O57 O 0.76287 0.21234 0.13885 0.0
O58 O 0.85695 0.13726 0.11285 0.0
O59 O 0.74051 0.10017 0.07647 0.0
O60 O 0.84448 0.19583 0.13724 0.0
O61 O 0.71721 0.17526 0.10987 0.0
O62 O 0.80053 0.08499 0.07139 0.0
O63 O 0.76233 0.25776 0.06221 0.0
O64 O 0.86484 0.18352 0.03873 0.0
O65 O 0.74492 0.14027 0.99729 0.0
Sc66 Sc 0.33493 0.37104 0.55519 0.0
Sc67 Sc 0.23879 0.34786 0.54941 0.0
Sc68 Sc 0.30551 0.28645 0.60112 0.0
O69 O 0.29302 0.33504 0.56844 0.0
C70 C 0.37381 0.28802 0.54855 0.0
C71 C 0.28152 0.37044 0.47687 0.0
C72 C 0.2429 0.25466 0.53945 0.0
C73 C 0.2715 0.43262 0.57112 0.0
C74 C 0.35961 0.34959 0.64282 0.0
C75 C 0.23032 0.31695 0.63352 0.0
O76 O 0.36906 0.32348 0.5383 0.0
O77 O 0.25231 0.35839 0.49134 0.0
O78 O 0.27241 0.24936 0.56186 0.0
O79 O 0.30557 0.4226 0.57057 0.0
O80 O 0.33904 0.3194 0.64395 0.0
O81 O 0.21967 0.33906 0.60541 0.0
O82 O 0.3618 0.3699 0.61267 0.0
O83 O 0.24413 0.40951 0.56307 0.0
O84 O 0.25932 0.2955 0.63479 0.0
O85 O 0.31257 0.37655 0.49644 0.0
O86 O 0.3541 0.27101 0.57196 0.0
O87 O 0.22726 0.28785 0.53337 0.0
C88 C 0.98687 0.06873 0.23889 0.0
C89 C 0.96986 0.10175 0.25338 0.0
C90 C 0.98287 0.11616 0.28951 0.0
C91 C 0.01384 0.09873 0.31017 0.0
H92 H 0.08644 0.11059 0.40696 0.0
H93 H 0.11863 0.15414 0.45417 0.0
H94 H 0.22358 0.09684 0.43956 0.0
H95 H 0.19183 0.05292 0.39213 0.0
H96 H 0.18758 0.97327 0.33575 0.0
H97 H 0.22466 0.93018 0.29757 0.0
H98 H 0.14409 0.94693 0.19996 0.0
H99 H 0.10672 0.98889 0.23744 0.0
H100 H 0.03086 0.02651 0.24684 0.0
H101 H 0.97708 0.05733 0.21098 0.0
H102 H 0.96998 0.14174 0.30097 0.0
H103 H 0.02414 0.11132 0.33739 0.0
N104 N 0.08376 0.06804 0.34662 0.0
N105 N 0.1376 0.02916 0.3441 0.0
N106 N 0.08764 0.02385 0.29641 0.0
C107 C 0.11838 0.05694 0.36206 0.0
C108 C 0.12225 0.01233 0.3113 0.0
C109 C 0.0681 0.05152 0.31389 0.0
C110 C 0.13662 0.07858 0.39524 0.0
C111 C 0.11626 0.10665 0.41415 0.0
C112 C 0.13452 0.13151 0.44127 0.0
C113 C 0.17336 0.12869 0.44999 0.0
C114 C 0.19351 0.09926 0.43307 0.0
C115 C 0.17527 0.07427 0.40596 0.0
C116 C 0.14418 0.98464 0.28968 0.0
C117 C 0.1777 0.96759 0.3062 0.0
C118 C 0.19894 0.94306 0.28453 0.0
C119 C 0.18725 0.93597 0.24592 0.0
C120 C 0.15365 0.95241 0.22965 0.0
C121 C 0.13225 0.9763 0.25127 0.0
C122 C 0.03223 0.06668 0.29489 0.0
C123 C 0.01768 0.05125 0.25947 0.0
C124 C 0.31738 0.60711 0.59481 0.0
C125 C 0.28386 0.5943 0.60837 0.0
C126 C 0.26397 0.61965 0.63063 0.0
C127 C 0.27885 0.65636 0.64129 0.0
H128 H 0.2805 0.73731 0.73047 0.0
H129 H 0.26812 0.75848 0.7945 0.0
H130 H 0.3739 0.81915 0.80699 0.0
H131 H 0.38676 0.79834 0.74272 0.0
H132 H 0.45069 0.76298 0.68267 0.0
H133 H 0.51156 0.76047 0.65596 0.0
H134 H 0.45542 0.75476 0.54208 0.0
H135 H 0.39461 0.75575 0.56868 0.0
H136 H 0.3584 0.65221 0.59468 0.0
H137 H 0.33296 0.58809 0.57732 0.0
H138 H 0.23778 0.61039 0.64093 0.0
H139 H 0.2638 0.67477 0.65979 0.0
N140 N 0.32275 0.72096 0.67706 0.0
N141 N 0.37396 0.76391 0.67727 0.0
N142 N 0.36199 0.71894 0.62736 0.0
C143 C 0.34344 0.7507 0.69381 0.0
C144 C 0.38289 0.74856 0.64365 0.0
C145 C 0.33196 0.70483 0.64387 0.0
C146 C 0.33472 0.76595 0.73144 0.0
C147 C 0.30113 0.75534 0.7466 0.0
C148 C 0.29394 0.76741 0.78314 0.0
C149 C 0.3202 0.79014 0.80522 0.0
C150 C 0.35341 0.80155 0.79015 0.0
C151 C 0.36058 0.78968 0.75343 0.0
C152 C 0.41813 0.75903 0.62766 0.0
C153 C 0.4514 0.76268 0.65189 0.0
C154 C 0.48615 0.76127 0.6367 0.0
C155 C 0.48784 0.75706 0.59714 0.0
C156 C 0.45457 0.75797 0.57269 0.0
C157 C 0.41993 0.7584 0.58789 0.0
C158 C 0.31331 0.66857 0.62897 0.0
C159 C 0.33181 0.64392 0.60471 0.0
C160 C 0.78589 0.72021 0.26927 0.0
C161 C 0.81526 0.70694 0.29522 0.0
C162 C 0.85143 0.70322 0.28343 0.0
C163 C 0.85849 0.71447 0.24644 0.0
H164 H 0.93143 0.70251 0.15799 0.0
H165 H 0.99453 0.69602 0.13671 0.0
H166 H 0.97368 0.79557 0.06201 0.0
H167 H 0.91085 0.80209 0.08227 0.0
H168 H 0.83649 0.84776 0.07916 0.0
H169 H 0.81209 0.91388 0.0674 0.0
H170 H 0.74642 0.90355 0.16381 0.0
H171 H 0.77054 0.83717 0.17607 0.0
H172 H 0.77012 0.74383 0.21364 0.0
H173 H 0.75783 0.7233 0.2781 0.0
H174 H 0.87438 0.69317 0.30332 0.0
H175 H 0.88699 0.71298 0.23852 0.0
N176 N 0.86991 0.74002 0.16873 0.0
N177 N 0.85782 0.7908 0.12423 0.0
N178 N 0.81661 0.7797 0.17105 0.0
C179 C 0.87972 0.76046 0.1379 0.0
C180 C 0.82621 0.80062 0.14053 0.0
C181 C 0.83813 0.74925 0.18514 0.0
C182 C 0.91612 0.75312 0.12221 0.0
C183 C 0.94008 0.72274 0.13668 0.0
C184 C 0.97611 0.71894 0.12464 0.0
C185 C 0.98875 0.74573 0.09833 0.0
C186 C 0.96442 0.77488 0.08262 0.0
C187 C 0.92845 0.77849 0.0943 0.0
C188 C 0.80598 0.83728 0.12896 0.0
C189 C 0.81629 0.85908 0.0975 0.0
C190 C 0.80234 0.89685 0.09062 0.0
C191 C 0.77782 0.91344 0.11496 0.0
C192 C 0.76539 0.89102 0.14481 0.0
C193 C 0.77927 0.85312 0.1517 0.0
C194 C 0.82956 0.7303 0.22116 0.0
C195 C 0.793 0.73201 0.23257 0.0
C196 C 0.68441 0.41135 0.93709 0.0
C197 C 0.66655 0.37628 0.94573 0.0
C198 C 0.63016 0.36888 0.9293 0.0
C199 C 0.61224 0.39544 0.90352 0.0
H200 H 0.50463 0.42942 0.84641 0.0
H201 H 0.44871 0.40063 0.81153 0.0
H202 H 0.48447 0.44398 0.7053 0.0
H203 H 0.53938 0.4739 0.73971 0.0
H204 H 0.59564 0.54753 0.75176 0.0
H205 H 0.63479 0.58041 0.7087 0.0
H206 H 0.73337 0.55281 0.78372 0.0
H207 H 0.69431 0.51858 0.82723 0.0
H208 H 0.68151 0.46405 0.90366 0.0
H209 H 0.71248 0.41755 0.94978 0.0
H210 H 0.61594 0.34202 0.9358 0.0
H211 H 0.58448 0.38817 0.89069 0.0
N212 N 0.57768 0.44722 0.84682 0.0
N213 N 0.58326 0.49418 0.79915 0.0
N214 N 0.63362 0.48275 0.84536 0.0
C215 C 0.56254 0.46669 0.81544 0.0
C216 C 0.61862 0.50277 0.81402 0.0
C217 C 0.61311 0.45505 0.86207 0.0
C218 C 0.52646 0.45375 0.79578 0.0
C219 C 0.50018 0.43335 0.8157 0.0
C220 C 0.46835 0.41689 0.79591 0.0
C221 C 0.46306 0.41965 0.75588 0.0
C222 C 0.48841 0.44128 0.73617 0.0
C223 C 0.51965 0.4585 0.75595 0.0
C224 C 0.64186 0.52948 0.79261 0.0
C225 C 0.62555 0.54875 0.75968 0.0
C226 C 0.64786 0.56778 0.73499 0.0
C227 C 0.68687 0.56835 0.74279 0.0
C228 C 0.70323 0.55232 0.77723 0.0
C229 C 0.68084 0.53277 0.80195 0.0
C230 C 0.63059 0.42979 0.8932 0.0
C231 C 0.66665 0.43782 0.9108 0.0
C232 C 0.53221 0.28266 0.49505 0.0
C233 C 0.51048 0.2489 0.4883 0.0
C234 C 0.5247 0.21763 0.46812 0.0
C235 C 0.55997 0.22069 0.454 0.0
H236 H 0.6105 0.20954 0.34565 0.0
H237 H 0.62267 0.19006 0.28073 0.0
H238 H 0.73998 0.21594 0.30635 0.0
H239 H 0.72823 0.23584 0.37097 0.0
H240 H 0.73368 0.32745 0.40902 0.0
H241 H 0.76082 0.39262 0.42056 0.0
H242 H 0.69233 0.40923 0.51395 0.0
H243 H 0.66516 0.34441 0.50305 0.0
H244 H 0.58321 0.31223 0.48715 0.0
H245 H 0.52176 0.30699 0.51077 0.0
H246 H 0.5084 0.19117 0.46305 0.0
H247 H 0.57024 0.19646 0.43807 0.0
N248 N 0.62765 0.23763 0.41491 0.0
N249 N 0.68332 0.27363 0.41304 0.0
N250 N 0.64196 0.28829 0.45873 0.0
C251 C 0.66027 0.24447 0.39897 0.0
C252 C 0.67445 0.29561 0.44302 0.0
C253 C 0.61852 0.25933 0.44512 0.0
C254 C 0.66837 0.2247 0.36324 0.0
C255 C 0.63906 0.21002 0.33784 0.0
C256 C 0.64588 0.19892 0.30078 0.0
C257 C 0.68214 0.2018 0.28899 0.0
C258 C 0.71185 0.21353 0.31515 0.0
C259 C 0.70503 0.22501 0.35196 0.0
C260 C 0.69664 0.33093 0.45463 0.0
C261 C 0.72503 0.34449 0.43266 0.0
C262 C 0.74067 0.38167 0.43918 0.0
C263 C 0.72815 0.40565 0.46777 0.0
C264 C 0.70213 0.39105 0.49165 0.0
C265 C 0.68655 0.35401 0.48522 0.0
C266 C 0.58172 0.25472 0.46067 0.0
C267 C 0.56747 0.28548 0.48163 0.0
C268 C 0.19915 0.26458 0.79812 0.0
C269 C 0.17463 0.29111 0.77824 0.0
C270 C 0.14265 0.30398 0.79475 0.0
C271 C 0.1347 0.28944 0.83041 0.0
H272 H 0.05359 0.29154 0.90772 0.0
H273 H 0.99145 0.3015 0.9306 0.0
H274 H 0.01605 0.21301 0.01709 0.0
H275 H 0.07777 0.20321 0.99533 0.0
H276 H 0.12939 0.13498 0.97348 0.0
H277 H 0.15898 0.07349 0.99424 0.0
H278 H 0.26078 0.10847 0.9469 0.0
H279 H 0.2307 0.17031 0.92456 0.0
H280 H 0.21044 0.22894 0.84789 0.0
H281 H 0.22408 0.25457 0.78572 0.0
H282 H 0.12358 0.32464 0.77971 0.0
H283 H 0.10935 0.29921 0.84211 0.0
N284 N 0.11711 0.25486 0.90199 0.0
N285 N 0.12686 0.20545 0.94818 0.0
N286 N 0.16894 0.2126 0.90147 0.0
C287 C 0.10628 0.23616 0.93335 0.0
C288 C 0.15817 0.19351 0.93261 0.0
C289 C 0.14856 0.24338 0.88599 0.0
C290 C 0.07056 0.24616 0.94929 0.0
C291 C 0.04597 0.2746 0.93195 0.0
C292 C 0.01051 0.28036 0.9449 0.0
C293 C -0.00081 0.25751 0.97507 0.0
C294 C 0.02428 0.23062 0.99353 0.0
C295 C 0.0596 0.22505 0.9809 0.0
C296 C 0.17767 0.15753 0.94722 0.0
C297 C 0.15815 0.12991 0.96754 0.0
C298 C 0.17497 0.09462 0.97937 0.0
C299 C 0.21185 0.0863 0.97172 0.0
C300 C 0.2321 0.11428 0.95265 0.0
C301 C 0.21491 0.14948 0.93997 0.0
C302 C 0.15862 0.26174 0.85 0.0
C303 C 0.19126 0.25 0.83365 0.0
C304 C 0.36989 0.61815 0.13379 0.0
C305 C 0.33068 0.61829 0.12864 0.0
C306 C 0.31039 0.59039 0.14762 0.0
C307 C 0.32912 0.56406 0.17332 0.0
H308 H 0.31367 0.47045 0.24872 0.0
H309 H 0.27743 0.43243 0.29211 0.0
H310 H 0.37362 0.42834 0.37529 0.0
H311 H 0.4101 0.46506 0.33251 0.0
H312 H 0.48565 0.50301 0.31655 0.0
H313 H 0.53824 0.53409 0.35404 0.0
H314 H 0.52947 0.63399 0.27849 0.0
H315 H 0.47686 0.60324 0.24047 0.0
H316 H 0.4189 0.5937 0.16405 0.0
H317 H 0.38588 0.63957 0.1193 0.0
H318 H 0.28003 0.59028 0.14391 0.0
H319 H 0.31264 0.54405 0.18891 0.0
N320 N 0.36918 0.51556 0.23178 0.0
N321 N 0.42151 0.50836 0.27645 0.0
N322 N 0.4233 0.5531 0.22616 0.0
C323 C 0.38603 0.49788 0.26363 0.0
C324 C 0.4404 0.53581 0.25795 0.0
C325 C 0.38787 0.54295 0.21263 0.0
C326 C 0.36476 0.47126 0.2872 0.0
C327 C 0.32724 0.46102 0.27605 0.0
C328 C 0.30645 0.43941 0.30075 0.0
C329 C 0.32275 0.42831 0.33708 0.0
C330 C 0.36048 0.43705 0.34751 0.0
C331 C 0.3813 0.4581 0.32287 0.0
C332 C 0.47663 0.55086 0.27578 0.0
C333 C 0.49533 0.53121 0.3073 0.0
C334 C 0.52548 0.5488 0.32871 0.0
C335 C 0.53739 0.58627 0.319 0.0
C336 C 0.52057 0.60496 0.2862 0.0
C337 C 0.49051 0.58728 0.26457 0.0
C338 C 0.3684 0.56554 0.18059 0.0
C339 C 0.38863 0.59199 0.15952 0.0
C340 C 0.84919 0.06298 0.85147 0.0
C341 C 0.811 0.06989 0.84158 0.0
C342 C 0.79415 0.05581 0.80661 0.0
C343 C 0.81467 0.03211 0.78346 0.0
H344 H 0.80318 0.95228 0.69086 0.0
H345 H 0.77029 0.9082 0.6439 0.0
H346 H 0.86458 0.82916 0.65474 0.0
H347 H 0.89776 0.87262 0.70083 0.0
H348 H 0.97512 0.99048 0.82404 0.0
H349 H 0.02939 0.96316 0.86269 0.0
H350 H 0.01138 0.85178 0.80675 0.0
H351 H 0.9575 0.87878 0.76745 0.0
H352 H 0.89883 0.03399 0.83779 0.0
H353 H 0.86271 0.07401 0.87817 0.0
H354 H 0.76469 0.06121 0.79845 0.0
H355 H 0.80051 0.01977 0.75769 0.0
N356 N 0.85519 0.97168 0.74513 0.0
N357 N 0.90779 0.93068 0.74471 0.0
N358 N 0.90792 0.98178 0.78875 0.0
C359 C 0.87277 0.94086 0.72985 0.0
C360 C 0.92565 0.95104 0.77396 0.0
C361 C 0.87278 0.99244 0.77457 0.0
C362 C 0.85311 0.91603 0.6998 0.0
C363 C 0.81701 0.92565 0.68307 0.0
C364 C 0.79815 0.90056 0.65632 0.0
C365 C 0.81501 0.86541 0.64627 0.0
C366 C 0.85114 0.85612 0.66235 0.0
C367 C 0.87005 0.88116 0.6887 0.0
C368 C 0.96175 0.93672 0.7929 0.0
C369 C 0.98312 0.9604 0.81936 0.0
C370 C 0.01419 0.94495 0.84134 0.0
C371 C 0.02411 0.90553 0.83748 0.0
C372 C 0.00408 0.88232 0.80988 0.0
C373 C 0.97332 0.89787 0.7875 0.0
C374 C 0.85242 0.02278 0.79478 0.0
C375 C 0.86976 0.03992 0.82827 0.0
C376 C 0.24695 0.91109 0.16668 0.0
C377 C 0.22934 0.87552 0.15433 0.0
C378 C 0.19583 0.87296 0.21198 0.0
C379 C 0.20911 0.91105 0.22143 0.0
N380 N 0.25465 0.96181 0.2154 0.0
N381 N 0.19825 0.81648 0.17045 0.0
C382 C 0.23758 0.92837 0.20148 0.0
C383 C 0.2076 0.85434 0.17902 0.0
N384 N 0.27064 0.92938 0.14398 0.0
N385 N 0.1703 0.8558 0.23339 0.0
H386 H 0.20686 0.80279 0.14627 0.0
H387 H 0.18511 0.79786 0.18855 0.0
H388 H 0.16277 0.86811 0.25878 0.0
H389 H 0.15584 0.83021 0.22567 0.0
H390 H 0.28121 0.95745 0.14872 0.0
H391 H 0.27929 0.91664 0.11933 0.0
H392 H 0.27736 0.9749 0.20402 0.0
H393 H 0.2477 0.97518 0.24047 0.0
C394 C 0.55594 0.69463 0.54764 0.0
C395 C 0.58896 0.71786 0.5512 0.0
C396 C 0.55423 0.76968 0.58129 0.0
C397 C 0.52316 0.7441 0.58199 0.0
N398 N 0.49853 0.67838 0.57479 0.0
N399 N 0.62112 0.77552 0.57695 0.0
C400 C 0.52523 0.70543 0.56784 0.0
C401 C 0.58859 0.75502 0.56942 0.0
N402 N 0.55302 0.6631 0.52363 0.0
N403 N 0.55068 0.80807 0.59114 0.0
H404 H 0.64689 0.76564 0.56929 0.0
H405 H 0.62312 0.80065 0.59374 0.0
H406 H 0.52596 0.81958 0.60011 0.0
H407 H 0.5711 0.82907 0.5874 0.0
H408 H 0.52801 0.64792 0.51727 0.0
H409 H 0.574 0.65479 0.5066 0.0
H410 H 0.50103 0.64878 0.56832 0.0
H411 H 0.47604 0.68445 0.59073 0.0
C412 C 0.73799 0.00893 0.07348 0.0
C413 C 0.76218 0.03603 0.09405 0.0
C414 C 0.79164 0.98304 0.13314 0.0
C415 C 0.76883 0.95571 0.1114 0.0
N416 N 0.7146 0.94216 0.06794 0.0
N417 N 0.80259 0.05091 0.15071 0.0
C418 C 0.74 0.9686 0.08389 0.0
C419 C 0.78593 0.02363 0.12634 0.0
N420 N 0.71454 0.02135 0.04293 0.0
N421 N 0.81998 0.97015 0.15892 0.0
H422 H 0.79826 0.08091 0.14666 0.0
H423 H 0.81749 0.04396 0.17673 0.0
H424 H 0.82454 0.94065 0.16553 0.0
H425 H 0.84046 0.98847 0.17207 0.0
H426 H 0.70005 0.00253 0.02359 0.0
H427 H 0.71048 0.05077 0.0359 0.0
H428 H 0.69077 0.94989 0.05032 0.0
H429 H 0.71577 0.91243 0.07493 0.0
C430 C 0.40982 0.34085 0.69751 0.0
C431 C 0.38063 0.3638 0.6785 0.0
C432 C 0.40101 0.42116 0.71676 0.0
C433 C 0.43175 0.3991 0.73373 0.0
N434 N 0.4621 0.33674 0.74659 0.0
N435 N 0.34179 0.42142 0.6772 0.0
C436 C 0.43487 0.35841 0.72633 0.0
C437 C 0.37417 0.40268 0.69048 0.0
N438 N 0.41481 0.30296 0.6866 0.0
N439 N 0.39825 0.46012 0.72498 0.0
H440 H 0.32139 0.40824 0.65839 0.0
H441 H 0.33344 0.44841 0.68717 0.0
H442 H 0.41603 0.47393 0.74599 0.0
H443 H 0.37948 0.47923 0.71012 0.0
H444 H 0.4385 0.28629 0.69491 0.0
H445 H 0.39551 0.28802 0.66809 0.0
H446 H 0.46353 0.30634 0.74591 0.0
H447 H 0.48237 0.34886 0.76624 0.0
C448 C 0.76472 0.50146 0.5099 0.0
C449 C 0.74265 0.52831 0.48638 0.0
C450 C 0.71761 0.47479 0.44553 0.0
C451 C 0.7381 0.44774 0.47009 0.0
N452 N 0.78815 0.43485 0.51888 0.0
N453 N 0.70831 0.54238 0.42579 0.0
C454 C 0.76417 0.46104 0.5 0.0
C455 C 0.72259 0.51544 0.45206 0.0
N456 N 0.78432 0.51409 0.54278 0.0
N457 N 0.69163 0.46169 0.41749 0.0
H458 H 0.71177 0.57239 0.43007 0.0
H459 H 0.69648 0.5351 0.39854 0.0
H460 H 0.68746 0.43213 0.41119 0.0
H461 H 0.67247 0.47995 0.402 0.0
H462 H 0.79681 0.49535 0.56366 0.0
H463 H 0.78682 0.54351 0.55021 0.0
H464 H 0.81015 0.44287 0.53873 0.0
H465 H 0.78799 0.40511 0.5121 0.0
C466 C 0.89674 0.23358 0.98199 0.0
C467 C 0.89495 0.24108 0.02145 0.0
C468 C 0.95539 0.27478 0.0236 0.0
C469 C 0.96061 0.25947 0.98704 0.0
N470 N 0.93663 0.22366 0.93084 0.0
N471 N 0.92267 0.269 0.08067 0.0
C472 C 0.93108 0.23941 0.96562 0.0
C473 C 0.92386 0.26262 0.04238 0.0
N474 N 0.8655 0.22077 0.96035 0.0
N475 N 0.981 0.30049 0.04038 0.0
H476 H 0.90007 0.26103 0.09566 0.0
H477 H 0.94519 0.28 0.09825 0.0
H478 H 0.00432 0.30967 0.02694 0.0
H479 H 0.97728 0.31546 0.06555 0.0
H480 H 0.86398 0.21794 0.93072 0.0
H481 H 0.83986 0.21678 0.97176 0.0
H482 H 0.91777 0.2046 0.91618 0.0
H483 H 0.96119 0.22768 0.91753 0.0
C484 C 0.30342 0.35544 0.41284 0.0
C485 C 0.2804 0.37804 0.43518 0.0
C486 C 0.27618 0.42981 0.38668 0.0
C487 C 0.30109 0.40821 0.36548 0.0
N488 N 0.32851 0.34625 0.35149 0.0
N489 N 0.23452 0.42941 0.43742 0.0
C490 C 0.31114 0.36936 0.37623 0.0
C491 C 0.26301 0.41264 0.41988 0.0
N492 N 0.31922 0.32158 0.42748 0.0
N493 N 0.26736 0.46768 0.37687 0.0
H494 H 0.22435 0.41744 0.46178 0.0
H495 H 0.21863 0.45283 0.4258 0.0
H496 H 0.2761 0.48129 0.35262 0.0
H497 H 0.25332 0.48645 0.39406 0.0
H498 H 0.33981 0.3061 0.41477 0.0
H499 H 0.31272 0.30996 0.45355 0.0
H500 H 0.33405 0.31661 0.35617 0.0
H501 H 0.33419 0.35609 0.32442 0.0
C502 C 0.06911 0.85866 0.92876 0.0
C503 C 0.10733 0.85806 0.92106 0.0
C504 C 0.09006 0.88278 0.85607 0.0
C505 C 0.05263 0.8875 0.86543 0.0
N506 N 0.00602 0.88186 0.91064 0.0
N507 N 0.15515 0.87062 0.87868 0.0
C508 C 0.04198 0.87579 0.90173 0.0
C509 C 0.11806 0.86997 0.88485 0.0
N510 N 0.05866 0.84162 0.96149 0.0
N511 N 0.09867 0.89038 0.81961 0.0
H512 H 0.17606 0.86035 0.8988 0.0
H513 H 0.16552 0.88315 0.85475 0.0
H514 H 0.0791 0.90115 0.7983 0.0
H515 H 0.12439 0.8837 0.80963 0.0
H516 H 0.03093 0.83695 0.96689 0.0
H517 H 0.07776 0.82899 0.98214 0.0
H518 H 0.99766 0.87891 0.93813 0.0
H519 H 0.98463 0.8921 0.89096 0.0
C520 C 0.78086 0.14537 0.91149 0.0
C521 C 0.7706 0.1196 0.9404 0.0
C522 C 0.77158 0.06423 0.89634 0.0
C523 C 0.78894 0.08862 0.87038 0.0
N524 N 0.80789 0.15255 0.85078 0.0
N525 N 0.75551 0.05479 0.96131 0.0
C526 C 0.79225 0.12949 0.87691 0.0
C527 C 0.76477 0.07923 0.93274 0.0
N528 N 0.77997 0.18483 0.91757 0.0
N529 N 0.76263 0.02645 0.88659 0.0
H530 H 0.74967 0.06502 0.98803 0.0
H531 H 0.7556 0.02438 0.95946 0.0
H532 H 0.76835 0.01408 0.86066 0.0
H533 H 0.74671 0.00833 0.90263 0.0
H534 H 0.78476 0.20573 0.89696 0.0
H535 H 0.77133 0.19666 0.94271 0.0
H536 H 0.81518 0.18173 0.85544 0.0
H537 H 0.81469 0.14179 0.82447 0.0
C538 C 0.40539 0.25731 0.4956 0.0
C539 C 0.40613 0.26706 0.53478 0.0
C540 C 0.47219 0.24802 0.54402 0.0
C541 C 0.47331 0.2471 0.5038 0.0
N542 N 0.44096 0.25193 0.44046 0.0
N543 N 0.44057 0.27312 0.59682 0.0
C544 C 0.43977 0.25126 0.47924 0.0
C545 C 0.43946 0.26205 0.55939 0.0
N546 N 0.37176 0.25354 0.47431 0.0
N547 N 0.50268 0.23591 0.56735 0.0
H548 H 0.41714 0.28374 0.60892 0.0
H549 H 0.46519 0.27444 0.61502 0.0
H550 H 0.52693 0.22524 0.55659 0.0
H551 H 0.50251 0.23276 0.59686 0.0
H552 H 0.36917 0.24311 0.44634 0.0
H553 H 0.34631 0.25686 0.48626 0.0
H554 H 0.41799 0.25945 0.42147 0.0
H555 H 0.46554 0.24751 0.4273 0.0
C556 C 0.23373 0.99923 0.03573 0.0
C557 C 0.23865 0.96963 0.00841 0.0
C558 C 0.23414 0.0183 0.95697 0.0
C559 C 0.22829 0.04786 0.98419 0.0
N560 N 0.23441 0.06871 0.0499 0.0
N561 N 0.25621 0.95248 0.94607 0.0
C562 C 0.23228 0.03899 0.02383 0.0
C563 C 0.2434 0.97977 0.97003 0.0
N564 N 0.22886 0.98918 0.07265 0.0
N565 N 0.22826 0.02616 0.91869 0.0
H566 H 0.264 0.92441 0.95542 0.0
H567 H 0.26305 0.95893 0.91853 0.0
H568 H 0.2211 0.05382 0.90775 0.0
H569 H 0.22776 0.00457 0.89776 0.0
H570 H 0.22083 0.00897 0.09289 0.0
H571 H 0.23083 0.96034 0.08245 0.0
H572 H 0.24041 0.06433 0.07919 0.0
H573 H 0.23383 0.09814 0.04171 0.0
C574 C 0.62852 0.62001 0.37325 0.0
C575 C 0.61397 0.64054 0.40369 0.0
C576 C 0.5498 0.62979 0.37582 0.0
C577 C 0.56405 0.60773 0.34611 0.0
N578 N 0.6159 0.58683 0.31208 0.0
N579 N 0.56294 0.67529 0.42823 0.0
C580 C 0.60322 0.60455 0.34334 0.0
C581 C 0.5752 0.64865 0.40316 0.0
N582 N 0.66641 0.615 0.37349 0.0
N583 N 0.51199 0.63147 0.37868 0.0
H584 H 0.58121 0.69039 0.44784 0.0
H585 H 0.53542 0.68534 0.42724 0.0
H586 H 0.49224 0.61933 0.35844 0.0
H587 H 0.50012 0.64281 0.40229 0.0
H588 H 0.67927 0.59748 0.35434 0.0
H589 H 0.68539 0.62822 0.39379 0.0
H590 H 0.64391 0.58556 0.3066 0.0
H591 H 0.59787 0.57497 0.29009 0.0
C592 C 0.26484 0.48514 0.61905 0.0
C593 C 0.26401 0.4739 0.58028 0.0
C594 C 0.26206 0.5428 0.56094 0.0
C595 C 0.27096 0.55366 0.59968 0.0
N596 N 0.28395 0.53445 0.66603 0.0
N597 N 0.26255 0.49133 0.51363 0.0
C598 C 0.27252 0.52475 0.62906 0.0
C599 C 0.26227 0.50256 0.55091 0.0
N600 N 0.25847 0.45785 0.64619 0.0
N601 N 0.25347 0.57107 0.53391 0.0
H602 H 0.26194 0.46203 0.50541 0.0
H603 H 0.26566 0.51082 0.49126 0.0
H604 H 0.25266 0.60077 0.5407 0.0
H605 H 0.2437 0.5649 0.50572 0.0
H606 H 0.25556 0.46483 0.67464 0.0
H607 H 0.2524 0.42873 0.63923 0.0
H608 H 0.28967 0.51372 0.68762 0.0
H609 H 0.29071 0.5629 0.67472 0.0
C610 C 0.09333 0.76499 0.09982 0.0
C611 C 0.09711 0.76343 0.06006 0.0
C612 C 0.0342 0.7351 0.04959 0.0
C613 C 0.02783 0.74495 0.0876 0.0
N614 N 0.05087 0.77097 0.14923 0.0
N615 N 0.07019 0.748 0.99599 0.0
C616 C 0.05745 0.75971 0.11312 0.0
C617 C 0.06763 0.74792 0.03461 0.0
N618 N 0.12424 0.77129 0.12475 0.0
N619 N 0.008 0.7138 0.02784 0.0
H620 H 0.09389 0.75706 0.98333 0.0
H621 H 0.04763 0.74181 0.97607 0.0
H622 H 0.98326 0.70411 0.03832 0.0
H623 H 0.01245 0.70252 0.00109 0.0
H624 H 0.12397 0.76944 0.15435 0.0
H625 H 0.15097 0.77402 0.11546 0.0
H626 H 0.07034 0.78625 0.16735 0.0
H627 H 0.02504 0.76752 0.16027 0.0
C628 C 0.72392 0.63596 0.66943 0.0
C629 C 0.72725 0.60821 0.64003 0.0
C630 C 0.72046 0.5545 0.68523 0.0
C631 C 0.70969 0.58217 0.71221 0.0
N632 N 0.704 0.64881 0.73266 0.0
N633 N 0.73098 0.54135 0.61919 0.0
C634 C 0.71304 0.6229 0.70537 0.0
C635 C 0.72704 0.56749 0.64799 0.0
N636 N 0.73043 0.67463 0.66251 0.0
N637 N 0.72345 0.51578 0.69505 0.0
H638 H 0.73719 0.55005 0.59199 0.0
H639 H 0.7265 0.51138 0.62145 0.0
H640 H 0.7179 0.50519 0.72182 0.0
H641 H 0.7344 0.49451 0.67804 0.0
H642 H 0.73088 0.69638 0.68323 0.0
H643 H 0.73835 0.68457 0.6363 0.0
H644 H 0.70171 0.6789 0.72837 0.0
H645 H 0.69769 0.63973 0.75977 0.0
C646 C 0.92582 0.16268 0.17101 0.0
C647 C 0.88738 0.15357 0.17257 0.0
C648 C 0.90229 0.11411 0.23036 0.0
C649 C 0.94077 0.12306 0.22867 0.0
N650 N 0.98859 0.16253 0.20342 0.0
N651 N 0.83763 0.12851 0.20728 0.0
C652 C 0.9523 0.14967 0.20095 0.0
C653 C 0.87515 0.13185 0.20355 0.0
N654 N 0.93713 0.18223 0.14 0.0
N655 N 0.89197 0.08751 0.25661 0.0
H656 H 0.81728 0.14137 0.18799 0.0
H657 H 0.82669 0.11589 0.23088 0.0
H658 H 0.91107 0.075 0.27739 0.0
H659 H 0.865 0.07622 0.25659 0.0
H660 H 0.96508 0.18569 0.13477 0.0
H661 H 0.91838 0.1931 0.11801 0.0
H662 H 0.99793 0.18489 0.18647 0.0
H663 H 0.00888 0.15313 0.2247 0.0
C664 C 0.27777 0.71339 0.10721 0.0
C665 C 0.27675 0.71482 0.06675 0.0
C666 C 0.30626 0.64993 0.06655 0.0
C667 C 0.31095 0.65074 0.10709 0.0
N668 N 0.30631 0.6855 0.16628 0.0
N669 N 0.2933 0.68673 0.00757 0.0
C670 C 0.29809 0.68309 0.12752 0.0
C671 C 0.29168 0.68357 0.04622 0.0
N672 N 0.25796 0.74015 0.12614 0.0
N673 N 0.31515 0.61676 0.04763 0.0
H674 H 0.28258 0.7107 0.99166 0.0
H675 H 0.30765 0.66705 0.99161 0.0
H676 H 0.32634 0.59187 0.06175 0.0
H677 H 0.30877 0.61272 0.01838 0.0
H678 H 0.25428 0.73818 0.15517 0.0
H679 H 0.24201 0.76225 0.11204 0.0
H680 H 0.30155 0.71054 0.182 0.0
H681 H 0.32071 0.66369 0.1825 0.0
C682 C 0.74995 0.78463 0.60538 0.0
C683 C 0.76667 0.77646 0.57114 0.0
C684 C 0.80896 0.83222 0.58271 0.0
C685 C 0.79534 0.83758 0.619 0.0
N686 N 0.75609 0.81622 0.66738 0.0
N687 N 0.81599 0.78799 0.53013 0.0
C688 C 0.76639 0.81333 0.63093 0.0
C689 C 0.79724 0.79906 0.56054 0.0
N690 N 0.71861 0.76467 0.61364 0.0
N691 N 0.83268 0.85924 0.56927 0.0
H692 H 0.80863 0.76333 0.51379 0.0
H693 H 0.84082 0.80097 0.52332 0.0
H694 H 0.84152 0.88411 0.58474 0.0
H695 H 0.84069 0.85902 0.54149 0.0
H696 H 0.70256 0.77234 0.63575 0.0
H697 H 0.70719 0.74174 0.59685 0.0
H698 H 0.73842 0.79634 0.67928 0.0
H699 H 0.76733 0.83692 0.68694 0.0
C700 C 0.69815 0.22954 0.18697 0.0
C701 C 0.71333 0.19401 0.17439 0.0
C702 C 0.69938 0.16132 0.23378 0.0
C703 C 0.68865 0.19796 0.24812 0.0
N704 N 0.67827 0.26741 0.23983 0.0
N705 N 0.73106 0.1265 0.18587 0.0
C706 C 0.68772 0.23215 0.22493 0.0
C707 C 0.71417 0.15978 0.19756 0.0
N708 N 0.69342 0.26061 0.16233 0.0
N709 N 0.69535 0.12813 0.25487 0.0
H710 H 0.74175 0.12405 0.15933 0.0
H711 H 0.73673 0.10209 0.20327 0.0
H712 H 0.68521 0.12859 0.2818 0.0
H713 H 0.69915 0.09998 0.24463 0.0
H714 H 0.6788 0.28597 0.16802 0.0
H715 H 0.70182 0.25994 0.1347 0.0
H716 H 0.68166 0.29419 0.22637 0.0
H717 H 0.66871 0.27029 0.26687 0.0
C718 C 0.22554 0.33853 0.70068 0.0
C719 C 0.20993 0.31768 0.66814 0.0
C720 C 0.16626 0.28415 0.70683 0.0
C721 C 0.18255 0.30429 0.73955 0.0
N722 N 0.22058 0.357 0.76677 0.0
N723 N 0.16089 0.27754 0.63759 0.0
C724 C 0.20984 0.33373 0.7361 0.0
C725 C 0.17852 0.29293 0.67035 0.0
N726 N 0.25641 0.36155 0.69798 0.0
N727 N 0.14058 0.25522 0.71102 0.0
H728 H 0.16984 0.28296 0.6106 0.0
H729 H 0.13582 0.26206 0.63662 0.0
H730 H 0.13025 0.24871 0.73713 0.0
H731 H 0.13087 0.23623 0.68921 0.0
H732 H 0.27196 0.37387 0.72141 0.0
H733 H 0.2678 0.36674 0.67213 0.0
H734 H 0.23782 0.38136 0.76533 0.0
H735 H 0.20958 0.3539 0.79313 0.0
C736 C 0.7849 0.66036 0.38554 0.0
C737 C 0.78394 0.69382 0.40948 0.0
C738 C 0.80761 0.73496 0.35968 0.0
C739 C 0.80851 0.70154 0.33587 0.0
N740 N 0.80558 0.63163 0.32785 0.0
N741 N 0.80023 0.76112 0.42268 0.0
C742 C 0.79976 0.6639 0.3495 0.0
C743 C 0.79717 0.73058 0.39752 0.0
N744 N 0.76935 0.62589 0.39612 0.0
N745 N 0.81557 0.7711 0.34557 0.0
H746 H 0.79184 0.7591 0.45023 0.0
H747 H 0.81346 0.78745 0.41751 0.0
H748 H 0.8255 0.77525 0.31883 0.0
H749 H 0.81073 0.79727 0.35939 0.0
H750 H 0.76485 0.60197 0.37799 0.0
H751 H 0.7583 0.62187 0.42228 0.0
H752 H 0.80359 0.60302 0.33775 0.0
H753 H 0.81538 0.63342 0.30081 0.0
C754 C 0.73448 0.29544 0.98161 0.0
C755 C 0.71805 0.28353 0.01501 0.0
C756 C 0.67254 0.337 0.00642 0.0
C757 C 0.68613 0.34613 0.97073 0.0
N758 N 0.72594 0.32985 0.92105 0.0
N759 N 0.66799 0.28839 0.05618 0.0
C760 C 0.71618 0.32438 0.95746 0.0
C761 C 0.68607 0.30301 0.02661 0.0
N762 N 0.7676 0.27918 0.97304 0.0
N763 N 0.64736 0.36136 0.02138 0.0
H764 H 0.6769 0.26316 0.07117 0.0
H765 H 0.64238 0.29907 0.06354 0.0
H766 H 0.63729 0.38686 0.00755 0.0
H767 H 0.63921 0.35834 0.04896 0.0
H768 H 0.78301 0.2897 0.95143 0.0
H769 H 0.78123 0.25696 0.98939 0.0
H770 H 0.74471 0.31179 0.9084 0.0
H771 H 0.71293 0.3503 0.90211 0.0
C772 C 0.20836 0.19073 0.53574 0.0
C773 C 0.22708 0.22097 0.51729 0.0
C774 C 0.21021 0.19089 0.45492 0.0
C775 C 0.1933 0.15944 0.47349 0.0
N776 N 0.18105 0.12567 0.53137 0.0
N777 N 0.25249 0.24624 0.4609 0.0
C778 C 0.19384 0.15821 0.51392 0.0
C779 C 0.22996 0.21998 0.4773 0.0
N780 N 0.20316 0.19393 0.57372 0.0
N781 N 0.20621 0.19374 0.41587 0.0
H782 H 0.26737 0.268 0.4765 0.0
H783 H 0.25909 0.24441 0.43269 0.0
H784 H 0.19237 0.1728 0.39825 0.0
H785 H 0.21404 0.21834 0.40094 0.0
H786 H 0.18622 0.17513 0.58792 0.0
H787 H 0.21365 0.21722 0.59061 0.0
H788 H 0.18414 0.12117 0.56083 0.0
H789 H 0.16987 0.10159 0.51609 0.0
C790 C 0.2763 0.83948 0.88658 0.0
C791 C 0.28677 0.81292 0.91683 0.0
C792 C 0.32436 0.77493 0.87535 0.0
C793 C 0.31289 0.80075 0.84472 0.0
N794 N 0.28544 0.86193 0.82231 0.0
N795 N 0.32748 0.76184 0.94364 0.0
C796 C 0.29139 0.83463 0.85082 0.0
C797 C 0.31315 0.78276 0.91237 0.0
N798 N 0.25088 0.86839 0.89179 0.0
N799 N 0.34461 0.7421 0.86858 0.0
H800 H 0.3198 0.76722 0.97111 0.0
H801 H 0.3492 0.74164 0.94314 0.0
H802 H 0.35448 0.73621 0.84213 0.0
H803 H 0.35003 0.71964 0.88842 0.0
H804 H 0.23906 0.88652 0.87007 0.0
H805 H 0.24006 0.87306 0.91797 0.0
H806 H 0.27287 0.889 0.82577 0.0
H807 H 0.29576 0.85876 0.79564 0.0
loop_
_geom_bond_atom_site_label_1
_geom_bond_atom_site_label_2
_geom_bond_distance
_geom_bond_site_symmetry_2
_ccdc_geom_bond_type
Sc0 O3 2.025 . S
Sc0 O10 2.105 . S
Sc0 O13 2.105 . S
Sc0 O16 2.105 . S
Sc0 O19 2.105 1_554 S
Sc1 O3 2.025 1_556 S
Sc1 O11 2.105 . S
Sc1 O15 2.105 1_556 S
Sc1 O17 2.105 1_556 S
Sc1 O21 2.105 . S
Sc2 O3 2.025 . S
Sc2 O12 2.105 1_554 S
Sc2 O14 2.105 . S
Sc2 O18 2.105 . S
Sc2 O20 2.105 . S
O3 Sc0 2.025 . S
O3 Sc1 2.025 1_554 S
O3 Sc2 2.025 . S
C4 O10 1.268 1_556 S
C4 O20 1.268 1_556 S
C5 O11 1.268 . S
C5 O19 1.268 . S
C6 O12 1.268 . S
C6 O21 1.268 . S
C7 O13 1.268 . S
C7 O17 1.268 . S
C8 O14 1.268 . S
C8 O16 1.268 . S
C9 O15 1.268 . S
C9 O18 1.268 . S
O10 Sc0 2.105 . S
O10 C4 1.268 1_554 S
O11 Sc1 2.105 . S
O11 C5 1.268 . S
O12 Sc2 2.105 1_556 S
O12 C6 1.268 . S
O13 Sc0 2.105 . S
O13 C7 1.268 . S
O14 Sc2 2.105 . S
O14 C8 1.268 . S
O15 Sc1 2.105 1_554 S
O15 C9 1.268 . S
O16 Sc0 2.105 . S
O16 C8 1.268 . S
O17 Sc1 2.105 1_554 S
O17 C7 1.268 . S
O18 Sc2 2.105 . S
O18 C9 1.268 . S
O19 Sc0 2.105 1_556 S
O19 C5 1.268 . S
O20 Sc2 2.105 . S
O20 C4 1.268 1_554 S
O21 Sc1 2.105 . S
O21 C6 1.268 . S
Sc22 O25 2.025 . S
Sc22 O32 2.105 . S
Sc22 O35 2.105 . S
Sc22 O38 2.105 . S
Sc22 O41 2.105 . S
Sc23 O25 2.025 . S
Sc23 O33 2.105 . S
Sc23 O37 2.105 . S
Sc23 O39 2.105 . S
Sc23 O43 2.105 . S
Sc24 O25 2.025 . S
Sc24 O34 2.105 . S
Sc24 O36 2.105 . S
Sc24 O40 2.105 . S
Sc24 O42 2.105 . S
O25 Sc22 2.025 . S
O25 Sc23 2.025 . S
O25 Sc24 2.025 . S
C26 O32 1.268 . S
C26 O42 1.268 . S
C27 O33 1.268 . S
C27 O41 1.268 . S
C28 O34 1.268 . S
C28 O43 1.268 . S
C29 O35 1.268 . S
C29 O39 1.268 . S
C30 O36 1.268 . S
C30 O38 1.268 . S
C31 O37 1.268 . S
C31 O40 1.268 . S
O32 Sc22 2.105 . S
O32 C26 1.268 . S
O33 Sc23 2.105 . S
O33 C27 1.268 . S
O34 Sc24 2.105 . S
O34 C28 1.268 . S
O35 Sc22 2.105 . S
O35 C29 1.268 . S
O36 Sc24 2.105 . S
O36 C30 1.268 . S
O37 Sc23 2.105 . S
O37 C31 1.268 . S
O38 Sc22 2.105 . S
O38 C30 1.268 . S
O39 Sc23 2.105 . S
O39 C29 1.268 . S
O40 Sc24 2.105 . S
O40 C31 1.268 . S
O41 Sc22 2.105 . S
O41 C27 1.268 . S
O42 Sc24 2.105 . S
O42 C26 1.268 . S
O43 Sc23 2.105 . S
O43 C28 1.268 . S
Sc44 O47 2.025 . S
Sc44 O54 2.105 . S
Sc44 O57 2.105 . S
Sc44 O60 2.105 . S
Sc44 O63 2.105 . S
Sc45 O47 2.025 . S
Sc45 O55 2.105 . S
Sc45 O59 2.105 . S
Sc45 O61 2.105 . S
Sc45 O65 2.133 . S
Sc46 O47 2.025 . S
Sc46 O56 2.105 . S
Sc46 O58 2.105 . S
Sc46 O62 2.105 . S
Sc46 O64 2.105 . S
O47 Sc44 2.025 . S
O47 Sc45 2.025 . S
O47 Sc46 2.025 . S
C48 O54 1.268 . S
C48 O64 1.268 . S
C49 O55 1.268 . S
C49 O63 1.268 . S
C50 O56 1.268 1_556 S
C50 O65 1.253 1_556 S
C51 O57 1.268 . S
C51 O61 1.268 . S
C52 O58 1.268 . S
C52 O60 1.268 . S
C53 O59 1.268 . S
C53 O62 1.268 . S
O54 Sc44 2.105 . S
O54 C48 1.268 . S
O55 Sc45 2.105 . S
O55 C49 1.268 . S
O56 Sc46 2.105 . S
O56 C50 1.268 1_554 S
O57 Sc44 2.105 . S
O57 C51 1.268 . S
O58 Sc46 2.105 . S
O58 C52 1.268 . S
O59 Sc45 2.105 . S
O59 C53 1.268 . S
O60 Sc44 2.105 . S
O60 C52 1.268 . S
O61 Sc45 2.105 . S
O61 C51 1.268 . S
O62 Sc46 2.105 . S
O62 C53 1.268 . S
O63 Sc44 2.105 . S
O63 C49 1.268 . S
O64 Sc46 2.105 . S
O64 C48 1.268 . S
O65 Sc45 2.133 . S
O65 C50 1.253 1_554 S
Sc66 O69 2.025 . S
Sc66 O76 2.105 . S
Sc66 O79 2.105 . S
Sc66 O82 2.105 . S
Sc66 O85 2.105 . S
Sc67 O69 2.025 . S
Sc67 O77 2.105 . S
Sc67 O81 2.105 . S
Sc67 O83 2.105 . S
Sc67 O87 2.105 . S
Sc68 O69 2.025 . S
Sc68 O78 2.105 . S
Sc68 O80 2.105 . S
Sc68 O84 2.105 . S
Sc68 O86 2.105 . S
O69 Sc66 2.025 . S
O69 Sc67 2.025 . S
O69 Sc68 2.025 . S
C70 O76 1.268 . S
C70 O86 1.268 . S
C71 O77 1.268 . S
C71 O85 1.268 . S
C72 O78 1.268 . S
C72 O87 1.268 . S
C73 O79 1.268 . S
C73 O83 1.268 . S
C74 O80 1.268 . S
C74 O82 1.268 . S
C75 O81 1.268 . S
C75 O84 1.268 . S
O76 Sc66 2.105 . S
O76 C70 1.268 . S
O77 Sc67 2.105 . S
O77 C71 1.268 . S
O78 Sc68 2.105 . S
O78 C72 1.268 . S
O79 Sc66 2.105 . S
O79 C73 1.268 . S
O80 Sc68 2.105 . S
O80 C74 1.268 . S
O81 Sc67 2.105 . S
O81 C75 1.268 . S
O82 Sc66 2.105 . S
O82 C74 1.268 . S
O83 Sc67 2.105 . S
O83 C73 1.268 . S
O84 Sc68 2.105 . S
O84 C75 1.268 . S
O85 Sc66 2.105 . S
O85 C71 1.268 . S
O86 Sc68 2.105 . S
O86 C70 1.268 . S
O87 Sc67 2.105 . S
O87 C72 1.268 . S
C88 C89 1.384 . S
C88 H101 0.947 . S
C88 C123 1.382 1_655 S
C89 C88 1.384 . S
C89 C90 1.367 1_655 S
C90 C89 1.367 1_455 S
C90 C91 1.400 . S
C90 H102 0.941 1_455 S
C91 C90 1.400 . S
C91 H103 0.950 . S
C91 C122 1.383 . S
H92 C111 0.947 . S
H93 C112 0.946 . S
H94 C114 0.953 . S
H95 C115 0.945 . S
H96 C117 0.952 . S
H97 C118 0.949 . S
H98 C120 0.950 . S
H99 C121 0.948 . S
H100 C123 0.951 . S
H101 C88 0.947 . S
H102 C90 0.941 1_655 S
H103 C91 0.950 . S
N104 C107 1.382 . S
N104 C109 1.363 . S
N105 C107 1.371 . S
N105 C108 1.372 . S
N106 C108 1.361 . S
N106 C109 1.377 . S
C107 N104 1.382 . S
C107 N105 1.371 . S
C107 C110 1.480 . S
C108 N105 1.372 . S
C108 N106 1.361 . S
C108 C116 1.452 1_545 S
C109 N104 1.363 . S
C109 N106 1.377 . S
C109 C122 1.479 . S
C110 C107 1.480 . S
C110 C111 1.383 . S
C110 C115 1.385 . S
C111 H92 0.947 . S
C111 C110 1.383 . S
C111 C112 1.388 . S
C112 H93 0.946 . S
C112 C111 1.388 . S
C112 C113 1.384 . S
C113 C112 1.384 . S
C113 C114 1.377 . S
C114 H94 0.953 . S
C114 C113 1.377 . S
C114 C115 1.369 . S
C115 H95 0.945 . S
C115 C110 1.385 . S
C115 C114 1.369 . S
C116 C108 1.452 1_565 S
C116 C117 1.374 . S
C116 C121 1.367 . S
C117 H96 0.952 . S
C117 C116 1.374 . S
C117 C118 1.389 . S
C118 H97 0.949 . S
C118 C117 1.389 . S
C118 C119 1.387 . S
C119 C118 1.387 . S
C119 C120 1.372 . S
C120 H98 0.950 . S
C120 C119 1.372 . S
C120 C121 1.379 . S
C121 H99 0.948 . S
C121 C116 1.367 . S
C121 C120 1.379 . S
C122 C91 1.383 . S
C122 C109 1.479 . S
C122 C123 1.398 . S
C123 C88 1.382 1_455 S
C123 H100 0.951 . S
C123 C122 1.398 . S
C124 C125 1.384 . S
C124 H137 0.947 . S
C124 C159 1.382 . S
C125 C124 1.384 . S
C125 C126 1.378 . S
C126 C125 1.378 . S
C126 C127 1.378 . S
C126 H138 0.952 . S
C127 C126 1.378 . S
C127 H139 0.950 . S
C127 C158 1.383 . S
H128 C147 0.947 . S
H129 C148 0.946 . S
H130 C150 0.953 . S
H131 C151 0.945 . S
H132 C153 0.952 . S
H133 C154 0.949 . S
H134 C156 0.950 . S
H135 C157 0.948 . S
H136 C159 0.951 . S
H137 C124 0.947 . S
H138 C126 0.952 . S
H139 C127 0.950 . S
N140 C143 1.382 . S
N140 C145 1.363 . S
N141 C143 1.371 . S
N141 C144 1.372 . S
N142 C144 1.361 . S
N142 C145 1.377 . S
C143 N140 1.382 . S
C143 N141 1.371 . S
C143 C146 1.480 . S
C144 N141 1.372 . S
C144 N142 1.361 . S
C144 C152 1.457 . S
C145 N140 1.363 . S
C145 N142 1.377 . S
C145 C158 1.479 . S
C146 C143 1.480 . S
C146 C147 1.383 . S
C146 C151 1.385 . S
C147 H128 0.947 . S
C147 C146 1.383 . S
C147 C148 1.388 . S
C148 H129 0.946 . S
C148 C147 1.388 . S
C148 C149 1.384 . S
C149 C148 1.384 . S
C149 C150 1.377 . S
C150 H130 0.953 . S
C150 C149 1.377 . S
C150 C151 1.369 . S
C151 H131 0.945 . S
C151 C146 1.385 . S
C151 C150 1.369 . S
C152 C144 1.457 . S
C152 C153 1.372 . S
C152 C157 1.364 . S
C153 H132 0.952 . S
C153 C152 1.372 . S
C153 C154 1.389 . S
C154 H133 0.949 . S
C154 C153 1.389 . S
C154 C155 1.387 . S
C155 C154 1.387 . S
C155 C156 1.372 . S
C156 H134 0.950 . S
C156 C155 1.372 . S
C156 C157 1.379 . S
C157 H135 0.948 . S
C157 C152 1.364 . S
C157 C156 1.379 . S
C158 C127 1.383 . S
C158 C145 1.479 . S
C158 C159 1.398 . S
C159 C124 1.382 . S
C159 H136 0.951 . S
C159 C158 1.398 . S
C160 C161 1.384 . S
C160 H173 0.947 . S
C160 C195 1.382 . S
C161 C160 1.384 . S
C161 C162 1.378 . S
C162 C161 1.378 . S
C162 C163 1.378 . S
C162 H174 0.952 . S
C163 C162 1.378 . S
C163 H175 0.950 . S
C163 C194 1.383 . S
H164 C183 0.947 . S
H165 C184 0.946 . S
H166 C186 0.953 . S
H167 C187 0.945 . S
H168 C189 0.952 . S
H169 C190 0.949 . S
H170 C192 0.950 . S
H171 C193 0.948 . S
H172 C195 0.951 . S
H173 C160 0.947 . S
H174 C162 0.952 . S
H175 C163 0.950 . S
N176 C179 1.382 . S
N176 C181 1.363 . S
N177 C179 1.371 . S
N177 C180 1.372 . S
N178 C180 1.361 . S
N178 C181 1.377 . S
C179 N176 1.382 . S
C179 N177 1.371 . S
C179 C182 1.480 . S
C180 N177 1.372 . S
C180 N178 1.361 . S
C180 C188 1.457 . S
C181 N176 1.363 . S
C181 N178 1.377 . S
C181 C194 1.479 . S
C182 C179 1.480 . S
C182 C183 1.383 . S
C182 C187 1.385 . S
C183 H164 0.947 . S
C183 C182 1.383 . S
C183 C184 1.388 . S
C184 H165 0.946 . S
C184 C183 1.388 . S
C184 C185 1.384 . S
C185 C184 1.384 . S
C185 C186 1.377 . S
C186 H166 0.953 . S
C186 C185 1.377 . S
C186 C187 1.369 . S
C187 H167 0.945 . S
C187 C182 1.385 . S
C187 C186 1.369 . S
C188 C180 1.457 . S
C188 C189 1.372 . S
C188 C193 1.364 . S
C189 H168 0.952 . S
C189 C188 1.372 . S
C189 C190 1.389 . S
C190 H169 0.949 . S
C190 C189 1.389 . S
C190 C191 1.387 . S
C191 C190 1.387 . S
C191 C192 1.372 . S
C192 H170 0.950 . S
C192 C191 1.372 . S
C192 C193 1.379 . S
C193 H171 0.948 . S
C193 C188 1.364 . S
C193 C192 1.379 . S
C194 C163 1.383 . S
C194 C181 1.479 . S
C194 C195 1.398 . S
C195 C160 1.382 . S
C195 H172 0.951 . S
C195 C194 1.398 . S
C196 C197 1.384 . S
C196 H209 0.947 . S
C196 C231 1.382 . S
C197 C196 1.384 . S
C197 C198 1.378 . S
C198 C197 1.378 . S
C198 C199 1.378 . S
C198 H210 0.952 . S
C199 C198 1.378 . S
C199 H211 0.950 . S
C199 C230 1.383 . S
H200 C219 0.947 . S
H201 C220 0.946 . S
H202 C222 0.953 . S
H203 C223 0.945 . S
H204 C225 0.952 . S
H205 C226 0.949 . S
H206 C228 0.950 . S
H207 C229 0.948 . S
H208 C231 0.951 . S
H209 C196 0.947 . S
H210 C198 0.952 . S
H211 C199 0.950 . S
N212 C215 1.382 . S
N212 C217 1.363 . S
N213 C215 1.371 . S
N213 C216 1.372 . S
N214 C216 1.361 . S
N214 C217 1.377 . S
C215 N212 1.382 . S
C215 N213 1.371 . S
C215 C218 1.480 . S
C216 N213 1.372 . S
C216 N214 1.361 . S
C216 C224 1.457 . S
C217 N212 1.363 . S
C217 N214 1.377 . S
C217 C230 1.479 . S
C218 C215 1.480 . S
C218 C219 1.383 . S
C218 C223 1.385 . S
C219 H200 0.947 . S
C219 C218 1.383 . S
C219 C220 1.388 . S
C220 H201 0.946 . S
C220 C219 1.388 . S
C220 C221 1.384 . S
C221 C220 1.384 . S
C221 C222 1.377 . S
C222 H202 0.953 . S
C222 C221 1.377 . S
C222 C223 1.369 . S
C223 H203 0.945 . S
C223 C218 1.385 . S
C223 C222 1.369 . S
C224 C216 1.457 . S
C224 C225 1.372 . S
C224 C229 1.364 . S
C225 H204 0.952 . S
C225 C224 1.372 . S
C225 C226 1.389 . S
C226 H205 0.949 . S
C226 C225 1.389 . S
C226 C227 1.387 . S
C227 C226 1.387 . S
C227 C228 1.372 . S
C228 H206 0.950 . S
C228 C227 1.372 . S
C228 C229 1.379 . S
C229 H207 0.948 . S
C229 C224 1.364 . S
C229 C228 1.379 . S
C230 C199 1.383 . S
C230 C217 1.479 . S
C230 C231 1.398 . S
C231 C196 1.382 . S
C231 H208 0.951 . S
C231 C230 1.398 . S
C232 C233 1.384 . S
C232 H245 0.947 . S
C232 C267 1.382 . S
C233 C232 1.384 . S
C233 C234 1.378 . S
C234 C233 1.378 . S
C234 C235 1.378 . S
C234 H246 0.952 . S
C235 C234 1.378 . S
C235 H247 0.950 . S
C235 C266 1.383 . S
H236 C255 0.947 . S
H237 C256 0.946 . S
H238 C258 0.953 . S
H239 C259 0.945 . S
H240 C261 0.952 . S
H241 C262 0.949 . S
H242 C264 0.950 . S
H243 C265 0.948 . S
H244 C267 0.951 . S
H245 C232 0.947 . S
H246 C234 0.952 . S
H247 C235 0.950 . S
N248 C251 1.382 . S
N248 C253 1.363 . S
N249 C251 1.371 . S
N249 C252 1.372 . S
N250 C252 1.361 . S
N250 C253 1.377 . S
C251 N248 1.382 . S
C251 N249 1.371 . S
C251 C254 1.480 . S
C252 N249 1.372 . S
C252 N250 1.361 . S
C252 C260 1.457 . S
C253 N248 1.363 . S
C253 N250 1.377 . S
C253 C266 1.479 . S
C254 C251 1.480 . S
C254 C255 1.383 . S
C254 C259 1.385 . S
C255 H236 0.947 . S
C255 C254 1.383 . S
C255 C256 1.388 . S
C256 H237 0.946 . S
C256 C255 1.388 . S
C256 C257 1.384 . S
C257 C256 1.384 . S
C257 C258 1.377 . S
C258 H238 0.953 . S
C258 C257 1.377 . S
C258 C259 1.369 . S
C259 H239 0.945 . S
C259 C254 1.385 . S
C259 C258 1.369 . S
C260 C252 1.457 . S
C260 C261 1.372 . S
C260 C265 1.364 . S
C261 H240 0.952 . S
C261 C260 1.372 . S
C261 C262 1.389 . S
C262 H241 0.949 . S
C262 C261 1.389 . S
C262 C263 1.387 . S
C263 C262 1.387 . S
C263 C264 1.372 . S
C264 H242 0.950 . S
C264 C263 1.372 . S
C264 C265 1.379 . S
C265 H243 0.948 . S
C265 C260 1.364 . S
C265 C264 1.379 . S
C266 C235 1.383 . S
C266 C253 1.479 . S
C266 C267 1.398 . S
C267 C232 1.382 . S
C267 H244 0.951 . S
C267 C266 1.398 . S
C268 C269 1.384 . S
C268 H281 0.947 . S
C268 C303 1.382 . S
C269 C268 1.384 . S
C269 C270 1.378 . S
C270 C269 1.378 . S
C270 C271 1.378 . S
C270 H282 0.952 . S
C271 C270 1.378 . S
C271 H283 0.950 . S
C271 C302 1.383 . S
H272 C291 0.947 . S
H273 C292 0.946 . S
H274 C294 0.953 1_554 S
H275 C295 0.945 . S
H276 C297 0.952 . S
H277 C298 0.949 . S
H278 C300 0.950 . S
H279 C301 0.948 . S
H280 C303 0.951 . S
H281 C268 0.947 . S
H282 C270 0.952 . S
H283 C271 0.950 . S
N284 C287 1.382 . S
N284 C289 1.363 . S
N285 C287 1.371 . S
N285 C288 1.372 . S
N286 C288 1.361 . S
N286 C289 1.377 . S
C287 N284 1.382 . S
C287 N285 1.371 . S
C287 C290 1.480 . S
C288 N285 1.372 . S
C288 N286 1.361 . S
C288 C296 1.457 . S
C289 N284 1.363 . S
C289 N286 1.377 . S
C289 C302 1.479 . S
C290 C287 1.480 . S
C290 C291 1.383 . S
C290 C295 1.385 . S
C291 H272 0.947 . S
C291 C290 1.383 . S
C291 C292 1.388 . S
C292 H273 0.946 . S
C292 C291 1.388 . S
C292 C293 1.384 . S
C293 C292 1.384 . S
C293 C294 1.377 . S
C294 H274 0.953 1_556 S
C294 C293 1.377 . S
C294 C295 1.369 . S
C295 H275 0.945 . S
C295 C290 1.385 . S
C295 C294 1.369 . S
C296 C288 1.457 . S
C296 C297 1.372 . S
C296 C301 1.364 . S
C297 H276 0.952 . S
C297 C296 1.372 . S
C297 C298 1.389 . S
C298 H277 0.949 . S
C298 C297 1.389 . S
C298 C299 1.387 . S
C299 C298 1.387 . S
C299 C300 1.372 . S
C300 H278 0.950 . S
C300 C299 1.372 . S
C300 C301 1.379 . S
C301 H279 0.948 . S
C301 C296 1.364 . S
C301 C300 1.379 . S
C302 C271 1.383 . S
C302 C289 1.479 . S
C302 C303 1.398 . S
C303 C268 1.382 . S
C303 H280 0.951 . S
C303 C302 1.398 . S
C304 C305 1.384 . S
C304 H317 0.947 . S
C304 C339 1.382 . S
C305 C304 1.384 . S
C305 C306 1.378 . S
C306 C305 1.378 . S
C306 C307 1.378 . S
C306 H318 0.952 . S
C307 C306 1.378 . S
C307 H319 0.950 . S
C307 C338 1.383 . S
H308 C327 0.947 . S
H309 C328 0.946 . S
H310 C330 0.953 . S
H311 C331 0.945 . S
H312 C333 0.952 . S
H313 C334 0.949 . S
H314 C336 0.950 . S
H315 C337 0.948 . S
H316 C339 0.951 . S
H317 C304 0.947 . S
H318 C306 0.952 . S
H319 C307 0.950 . S
N320 C323 1.382 . S
N320 C325 1.363 . S
N321 C323 1.371 . S
N321 C324 1.372 . S
N322 C324 1.361 . S
N322 C325 1.377 . S
C323 N320 1.382 . S
C323 N321 1.371 . S
C323 C326 1.480 . S
C324 N321 1.372 . S
C324 N322 1.361 . S
C324 C332 1.457 . S
C325 N320 1.363 . S
C325 N322 1.377 . S
C325 C338 1.479 . S
C326 C323 1.480 . S
C326 C327 1.383 . S
C326 C331 1.385 . S
C327 H308 0.947 . S
C327 C326 1.383 . S
C327 C328 1.388 . S
C328 H309 0.946 . S
C328 C327 1.388 . S
C328 C329 1.384 . S
C329 C328 1.384 . S
C329 C330 1.377 . S
C330 H310 0.953 . S
C330 C329 1.377 . S
C330 C331 1.369 . S
C331 H311 0.945 . S
C331 C326 1.385 . S
C331 C330 1.369 . S
C332 C324 1.457 . S
C332 C333 1.372 . S
C332 C337 1.364 . S
C333 H312 0.952 . S
C333 C332 1.372 . S
C333 C334 1.389 . S
C334 H313 0.949 . S
C334 C333 1.389 . S
C334 C335 1.387 . S
C335 C334 1.387 . S
C335 C336 1.372 . S
C336 H314 0.950 . S
C336 C335 1.372 . S
C336 C337 1.379 . S
C337 H315 0.948 . S
C337 C332 1.364 . S
C337 C336 1.379 . S
C338 C307 1.383 . S
C338 C325 1.479 . S
C338 C339 1.398 . S
C339 C304 1.382 . S
C339 H316 0.951 . S
C339 C338 1.398 . S
C340 C341 1.384 . S
C340 H353 0.947 . S
C340 C375 1.382 . S
C341 C340 1.384 . S
C341 C342 1.378 . S
C342 C341 1.378 . S
C342 C343 1.378 . S
C342 H354 0.952 . S
C343 C342 1.378 . S
C343 H355 0.950 1_545 S
C343 C374 1.387 . S
H344 C363 0.947 . S
H345 C364 0.946 . S
H346 C366 0.953 . S
H347 C367 0.945 . S
H348 C369 0.952 . S
H349 C370 0.949 . S
H350 C372 0.951 . S
H351 C373 0.948 . S
H352 C375 0.951 . S
H353 C340 0.947 . S
H354 C342 0.952 . S
H355 C343 0.950 1_565 S
N356 C359 1.382 . S
N356 C361 1.363 . S
N357 C359 1.371 . S
N357 C360 1.372 . S
N358 C360 1.361 . S
N358 C361 1.377 . S
C359 N356 1.382 . S
C359 N357 1.371 . S
C359 C362 1.480 . S
C360 N357 1.372 . S
C360 N358 1.361 . S
C360 C368 1.457 . S
C361 N356 1.363 . S
C361 N358 1.377 . S
C361 C374 1.464 1_565 S
C362 C359 1.480 . S
C362 C363 1.383 . S
C362 C367 1.385 . S
C363 H344 0.947 . S
C363 C362 1.383 . S
C363 C364 1.388 . S
C364 H345 0.946 . S
C364 C363 1.388 . S
C364 C365 1.384 . S
C365 C364 1.384 . S
C365 C366 1.377 . S
C366 H346 0.953 . S
C366 C365 1.377 . S
C366 C367 1.369 . S
C367 H347 0.945 . S
C367 C362 1.385 . S
C367 C366 1.369 . S
C368 C360 1.457 . S
C368 C369 1.372 . S
C368 C373 1.364 . S
C369 H348 0.952 . S
C369 C368 1.372 . S
C369 C370 1.389 1_655 S
C370 H349 0.949 . S
C370 C369 1.389 1_455 S
C370 C371 1.387 . S
C371 C370 1.387 . S
C371 C372 1.374 . S
C372 H350 0.951 . S
C372 C371 1.374 . S
C372 C373 1.375 1_455 S
C373 H351 0.948 . S
C373 C368 1.364 . S
C373 C372 1.375 1_655 S
C374 C343 1.387 . S
C374 C361 1.464 1_545 S
C374 C375 1.409 . S
C375 C340 1.382 . S
C375 H352 0.951 . S
C375 C374 1.409 . S
C376 C377 1.363 . S
C376 C382 1.379 . S
C376 N384 1.356 . S
C377 C376 1.363 . S
C377 C383 1.363 . S
C378 C379 1.363 . S
C378 C383 1.379 . S
C378 N385 1.356 . S
C379 C378 1.363 . S
C379 C382 1.363 . S
N380 C382 1.356 . S
N380 H392 0.984 . S
N380 H393 0.985 . S
N381 C383 1.356 . S
N381 H386 0.984 . S
N381 H387 0.985 . S
C382 C376 1.379 . S
C382 C379 1.363 . S
C382 N380 1.356 . S
C383 C377 1.363 . S
C383 C378 1.379 . S
C383 N381 1.356 . S
N384 C376 1.356 . S
N384 H390 0.984 . S
N384 H391 0.984 . S
N385 C378 1.356 . S
N385 H388 0.984 . S
N385 H389 0.985 . S
H386 N381 0.984 . S
H387 N381 0.985 . S
H388 N385 0.984 . S
H389 N385 0.985 . S
H390 N384 0.984 . S
H391 N384 0.984 . S
H392 N380 0.984 . S
H393 N380 0.985 . S
C394 C395 1.363 . S
C394 C400 1.379 . S
C394 N402 1.356 . S
C395 C394 1.363 . S
C395 C401 1.363 . S
C396 C397 1.363 . S
C396 C401 1.379 . S
C396 N403 1.356 . S
C397 C396 1.363 . S
C397 C400 1.363 . S
N398 C400 1.356 . S
N398 H410 0.984 . S
N398 H411 0.985 . S
N399 C401 1.356 . S
N399 H404 0.984 . S
N399 H405 0.985 . S
C400 C394 1.379 . S
C400 C397 1.363 . S
C400 N398 1.356 . S
C401 C395 1.363 . S
C401 C396 1.379 . S
C401 N399 1.356 . S
N402 C394 1.356 . S
N402 H408 0.984 . S
N402 H409 0.984 . S
N403 C396 1.356 . S
N403 H406 0.984 . S
N403 H407 0.985 . S
H404 N399 0.984 . S
H405 N399 0.985 . S
H406 N403 0.984 . S
H407 N403 0.985 . S
H408 N402 0.984 . S
H409 N402 0.984 . S
H410 N398 0.984 . S
H411 N398 0.985 . S
C412 C413 1.350 1_565 S
C412 C418 1.403 . S
C412 N420 1.339 1_565 S
C413 C412 1.350 1_545 S
C413 C419 1.365 . S
C414 C415 1.363 . S
C414 C419 1.374 1_565 S
C414 N421 1.356 . S
C415 C414 1.363 . S
C415 C418 1.363 . S
N416 C418 1.356 . S
N416 H428 0.984 . S
N416 H429 0.985 . S
N417 C419 1.360 . S
N417 H422 0.984 . S
N417 H423 0.985 . S
C418 C412 1.403 . S
C418 C415 1.363 . S
C418 N416 1.356 . S
C419 C413 1.365 . S
C419 C414 1.374 1_545 S
C419 N417 1.360 . S
N420 C412 1.339 1_545 S
N420 H426 0.984 . S
N420 H427 0.984 . S
N421 C414 1.356 . S
N421 H424 0.984 . S
N421 H425 0.985 . S
H422 N417 0.984 . S
H423 N417 0.985 . S
H424 N421 0.984 . S
H425 N421 0.985 . S
H426 N420 0.984 . S
H427 N420 0.984 . S
H428 N416 0.984 . S
H429 N416 0.985 . S
C430 C431 1.363 . S
C430 C436 1.379 . S
C430 N438 1.356 . S
C431 C430 1.363 . S
C431 C437 1.363 . S
C432 C433 1.363 . S
C432 C437 1.379 . S
C432 N439 1.356 . S
C433 C432 1.363 . S
C433 C436 1.363 . S
N434 C436 1.356 . S
N434 H446 0.984 . S
N434 H447 0.985 . S
N435 C437 1.356 . S
N435 H440 0.984 . S
N435 H441 0.985 . S
C436 C430 1.379 . S
C436 C433 1.363 . S
C436 N434 1.356 . S
C437 C431 1.363 . S
C437 C432 1.379 . S
C437 N435 1.356 . S
N438 C430 1.356 . S
N438 H444 0.984 . S
N438 H445 0.984 . S
N439 C432 1.356 . S
N439 H442 0.984 . S
N439 H443 0.985 . S
H440 N435 0.984 . S
H441 N435 0.985 . S
H442 N439 0.984 . S
H443 N439 0.985 . S
H444 N438 0.984 . S
H445 N438 0.984 . S
H446 N434 0.984 . S
H447 N434 0.985 . S
C448 C449 1.363 . S
C448 C454 1.379 . S
C448 N456 1.356 . S
C449 C448 1.363 . S
C449 C455 1.363 . S
C450 C451 1.363 . S
C450 C455 1.379 . S
C450 N457 1.356 . S
C451 C450 1.363 . S
C451 C454 1.363 . S
N452 C454 1.356 . S
N452 H464 0.984 . S
N452 H465 0.985 . S
N453 C455 1.356 . S
N453 H458 0.984 . S
N453 H459 0.985 . S
C454 C448 1.379 . S
C454 C451 1.363 . S
C454 N452 1.356 . S
C455 C449 1.363 . S
C455 C450 1.379 . S
C455 N453 1.356 . S
N456 C448 1.356 . S
N456 H462 0.984 . S
N456 H463 0.984 . S
N457 C450 1.356 . S
N457 H460 0.984 . S
N457 H461 0.985 . S
H458 N453 0.984 . S
H459 N453 0.985 . S
H460 N457 0.984 . S
H461 N457 0.985 . S
H462 N456 0.984 . S
H463 N456 0.984 . S
H464 N452 0.984 . S
H465 N452 0.985 . S
C466 C467 1.363 1_556 S
C466 C472 1.379 . S
C466 N474 1.356 . S
C467 C466 1.363 1_554 S
C467 C473 1.363 . S
C468 C469 1.363 1_554 S
C468 C473 1.379 . S
C468 N475 1.356 . S
C469 C468 1.363 1_556 S
C469 C472 1.363 . S
N470 C472 1.356 . S
N470 H482 0.984 . S
N470 H483 0.985 1_655 S
N471 C473 1.356 . S
N471 H476 0.984 . S
N471 H477 0.985 . S
C472 C466 1.379 . S
C472 C469 1.363 . S
C472 N470 1.356 . S
C473 C467 1.363 . S
C473 C468 1.379 . S
C473 N471 1.356 . S
N474 C466 1.356 . S
N474 H480 0.984 . S
N474 H481 0.984 . S
N475 C468 1.356 . S
N475 H478 0.984 1_655 S
N475 H479 0.985 . S
H476 N471 0.984 . S
H477 N471 0.985 . S
H478 N475 0.984 1_455 S
H479 N475 0.985 . S
H480 N474 0.984 . S
H481 N474 0.984 . S
H482 N470 0.984 . S
H483 N470 0.985 1_455 S
C484 C485 1.363 . S
C484 C490 1.379 . S
C484 N492 1.356 . S
C485 C484 1.363 . S
C485 C491 1.363 . S
C486 C487 1.363 . S
C486 C491 1.379 . S
C486 N493 1.356 . S
C487 C486 1.363 . S
C487 C490 1.363 . S
N488 C490 1.356 . S
N488 H500 0.984 . S
N488 H501 0.985 . S
N489 C491 1.356 . S
N489 H494 0.984 . S
N489 H495 0.985 . S
C490 C484 1.379 . S
C490 C487 1.363 . S
C490 N488 1.356 . S
C491 C485 1.363 . S
C491 C486 1.379 . S
C491 N489 1.356 . S
N492 C484 1.356 . S
N492 H498 0.984 . S
N492 H499 0.984 . S
N493 C486 1.356 . S
N493 H496 0.984 . S
N493 H497 0.985 . S
H494 N489 0.984 . S
H495 N489 0.985 . S
H496 N493 0.984 . S
H497 N493 0.985 . S
H498 N492 0.984 . S
H499 N492 0.984 . S
H500 N488 0.984 . S
H501 N488 0.985 . S
C502 C503 1.363 . S
C502 C508 1.379 . S
C502 N510 1.356 . S
C503 C502 1.363 . S
C503 C509 1.363 . S
C504 C505 1.363 . S
C504 C509 1.379 . S
C504 N511 1.356 . S
C505 C504 1.363 . S
C505 C508 1.363 . S
N506 C508 1.356 . S
N506 H518 0.984 . S
N506 H519 0.985 . S
N507 C509 1.356 . S
N507 H512 0.984 . S
N507 H513 0.985 . S
C508 C502 1.379 . S
C508 C505 1.363 . S
C508 N506 1.356 . S
C509 C503 1.363 . S
C509 C504 1.379 . S
C509 N507 1.356 . S
N510 C502 1.356 . S
N510 H516 0.984 . S
N510 H517 0.984 . S
N511 C504 1.356 . S
N511 H514 0.984 . S
N511 H515 0.985 . S
H512 N507 0.984 . S
H513 N507 0.985 . S
H514 N511 0.984 . S
H515 N511 0.985 . S
H516 N510 0.984 . S
H517 N510 0.984 . S
H518 N506 0.984 . S
H519 N506 0.985 . S
C520 C521 1.363 . S
C520 C526 1.379 . S
C520 N528 1.356 . S
C521 C520 1.363 . S
C521 C527 1.363 . S
C522 C523 1.363 . S
C522 C527 1.379 . S
C522 N529 1.356 . S
C523 C522 1.363 . S
C523 C526 1.363 . S
N524 C526 1.356 . S
N524 H536 0.984 . S
N524 H537 0.985 . S
N525 C527 1.356 . S
N525 H530 0.984 . S
N525 H531 0.985 . S
C526 C520 1.379 . S
C526 C523 1.363 . S
C526 N524 1.356 . S
C527 C521 1.363 . S
C527 C522 1.379 . S
C527 N525 1.356 . S
N528 C520 1.356 . S
N528 H534 0.984 . S
N528 H535 0.984 . S
N529 C522 1.356 . S
N529 H532 0.984 . S
N529 H533 0.985 . S
H530 N525 0.984 . S
H531 N525 0.985 . S
H532 N529 0.984 . S
H533 N529 0.985 . S
H534 N528 0.984 . S
H535 N528 0.984 . S
H536 N524 0.984 . S
H537 N524 0.985 . S
C538 C539 1.363 . S
C538 C544 1.379 . S
C538 N546 1.356 . S
C539 C538 1.363 . S
C539 C545 1.363 . S
C540 C541 1.363 . S
C540 C545 1.379 . S
C540 N547 1.356 . S
C541 C540 1.363 . S
C541 C544 1.363 . S
N542 C544 1.356 . S
N542 H554 0.984 . S
N542 H555 0.985 . S
N543 C545 1.356 . S
N543 H548 0.984 . S
N543 H549 0.985 . S
C544 C538 1.379 . S
C544 C541 1.363 . S
C544 N542 1.356 . S
C545 C539 1.363 . S
C545 C540 1.379 . S
C545 N543 1.356 . S
N546 C538 1.356 . S
N546 H552 0.984 . S
N546 H553 0.984 . S
N547 C540 1.356 . S
N547 H550 0.984 . S
N547 H551 0.985 . S
H548 N543 0.984 . S
H549 N543 0.985 . S
H550 N547 0.984 . S
H551 N547 0.985 . S
H552 N546 0.984 . S
H553 N546 0.984 . S
H554 N542 0.984 . S
H555 N542 0.985 . S
C556 C557 1.363 1_544 S
C556 C562 1.375 1_554 S
C556 N564 1.356 1_545 S
C557 C556 1.363 1_566 S
C557 C563 1.363 . S
C558 C559 1.363 . S
C558 C563 1.379 1_545 S
C558 N565 1.356 . S
C559 C558 1.363 . S
C559 C562 1.387 . S
N560 C562 1.342 1_554 S
N560 H572 0.984 . S
N560 H573 0.985 . S
N561 C563 1.356 . S
N561 H566 0.984 . S
N561 H567 0.985 . S
C562 C556 1.375 1_556 S
C562 C559 1.387 . S
C562 N560 1.342 1_556 S
C563 C557 1.363 . S
C563 C558 1.379 1_565 S
C563 N561 1.356 . S
N564 C556 1.356 1_565 S
N564 H570 0.984 . S
N564 H571 0.984 . S
N565 C558 1.356 . S
N565 H568 0.984 . S
N565 H569 0.985 . S
H566 N561 0.984 . S
H567 N561 0.985 . S
H568 N565 0.984 . S
H569 N565 0.985 . S
H570 N564 0.984 . S
H571 N564 0.984 . S
H572 N560 0.984 . S
H573 N560 0.985 . S
C574 C575 1.363 . S
C574 C580 1.379 . S
C574 N582 1.356 . S
C575 C574 1.363 . S
C575 C581 1.363 . S
C576 C577 1.363 . S
C576 C581 1.379 . S
C576 N583 1.356 . S
C577 C576 1.363 . S
C577 C580 1.363 . S
N578 C580 1.356 . S
N578 H590 0.984 . S
N578 H591 0.985 . S
N579 C581 1.356 . S
N579 H584 0.984 . S
N579 H585 0.985 . S
C580 C574 1.379 . S
C580 C577 1.363 . S
C580 N578 1.356 . S
C581 C575 1.363 . S
C581 C576 1.379 . S
C581 N579 1.356 . S
N582 C574 1.356 . S
N582 H588 0.984 . S
N582 H589 0.984 . S
N583 C576 1.356 . S
N583 H586 0.984 . S
N583 H587 0.985 . S
H584 N579 0.984 . S
H585 N579 0.985 . S
H586 N583 0.984 . S
H587 N583 0.985 . S
H588 N582 0.984 . S
H589 N582 0.984 . S
H590 N578 0.984 . S
H591 N578 0.985 . S
C592 C593 1.363 . S
C592 C598 1.379 . S
C592 N600 1.356 . S
C593 C592 1.363 . S
C593 C599 1.363 . S
C594 C595 1.363 . S
C594 C599 1.379 . S
C594 N601 1.356 . S
C595 C594 1.363 . S
C595 C598 1.363 . S
N596 C598 1.356 . S
N596 H608 0.984 . S
N596 H609 0.985 . S
N597 C599 1.356 . S
N597 H602 0.984 . S
N597 H603 0.985 . S
C598 C592 1.379 . S
C598 C595 1.363 . S
C598 N596 1.356 . S
C599 C593 1.363 . S
C599 C594 1.379 . S
C599 N597 1.356 . S
N600 C592 1.356 . S
N600 H606 0.984 . S
N600 H607 0.984 . S
N601 C594 1.356 . S
N601 H604 0.984 . S
N601 H605 0.985 . S
H602 N597 0.984 . S
H603 N597 0.985 . S
H604 N601 0.984 . S
H605 N601 0.985 . S
H606 N600 0.984 . S
H607 N600 0.984 . S
H608 N596 0.984 . S
H609 N596 0.985 . S
C610 C611 1.363 . S
C610 C616 1.379 . S
C610 N618 1.356 . S
C611 C610 1.363 . S
C611 C617 1.363 . S
C612 C613 1.363 . S
C612 C617 1.379 . S
C612 N619 1.356 . S
C613 C612 1.363 . S
C613 C616 1.363 . S
N614 C616 1.356 . S
N614 H626 0.984 . S
N614 H627 0.985 1_455 S
N615 C617 1.356 . S
N615 H620 0.984 . S
N615 H621 0.985 . S
C616 C610 1.379 . S
C616 C613 1.363 . S
C616 N614 1.356 . S
C617 C611 1.363 . S
C617 C612 1.379 . S
C617 N615 1.356 . S
N618 C610 1.356 . S
N618 H624 0.984 . S
N618 H625 0.984 . S
N619 C612 1.356 . S
N619 H622 0.984 1_455 S
N619 H623 0.985 . S
H620 N615 0.984 . S
H621 N615 0.985 . S
H622 N619 0.984 1_655 S
H623 N619 0.985 . S
H624 N618 0.984 . S
H625 N618 0.984 . S
H626 N614 0.984 . S
H627 N614 0.985 1_655 S
C628 C629 1.363 . S
C628 C634 1.379 . S
C628 N636 1.356 . S
C629 C628 1.363 . S
C629 C635 1.363 . S
C630 C631 1.363 . S
C630 C635 1.379 . S
C630 N637 1.356 . S
C631 C630 1.363 . S
C631 C634 1.363 . S
N632 C634 1.356 . S
N632 H644 0.984 . S
N632 H645 0.985 . S
N633 C635 1.356 . S
N633 H638 0.984 . S
N633 H639 0.985 . S
C634 C628 1.379 . S
C634 C631 1.363 . S
C634 N632 1.356 . S
C635 C629 1.363 . S
C635 C630 1.379 . S
C635 N633 1.356 . S
N636 C628 1.356 . S
N636 H642 0.984 . S
N636 H643 0.984 . S
N637 C630 1.356 . S
N637 H640 0.984 . S
N637 H641 0.985 . S
H638 N633 0.984 . S
H639 N633 0.985 . S
H640 N637 0.984 . S
H641 N637 0.985 . S
H642 N636 0.984 . S
H643 N636 0.984 . S
H644 N632 0.984 . S
H645 N632 0.985 . S
C646 C647 1.363 . S
C646 C652 1.379 . S
C646 N654 1.356 . S
C647 C646 1.363 . S
C647 C653 1.363 . S
C648 C649 1.363 . S
C648 C653 1.379 . S
C648 N655 1.356 . S
C649 C648 1.363 . S
C649 C652 1.363 . S
N650 C652 1.356 . S
N650 H662 0.984 . S
N650 H663 0.985 . S
N651 C653 1.356 . S
N651 H656 0.984 . S
N651 H657 0.985 . S
C652 C646 1.379 . S
C652 C649 1.363 . S
C652 N650 1.356 . S
C653 C647 1.363 . S
C653 C648 1.379 . S
C653 N651 1.356 . S
N654 C646 1.356 . S
N654 H660 0.984 . S
N654 H661 0.984 . S
N655 C648 1.356 . S
N655 H658 0.984 . S
N655 H659 0.985 . S
H656 N651 0.984 . S
H657 N651 0.985 . S
H658 N655 0.984 . S
H659 N655 0.985 . S
H660 N654 0.984 . S
H661 N654 0.984 . S
H662 N650 0.984 . S
H663 N650 0.985 . S
C664 C665 1.363 . S
C664 C670 1.379 . S
C664 N672 1.356 . S
C665 C664 1.363 . S
C665 C671 1.363 . S
C666 C667 1.363 . S
C666 C671 1.379 . S
C666 N673 1.356 . S
C667 C666 1.363 . S
C667 C670 1.363 . S
N668 C670 1.356 . S
N668 H680 0.984 . S
N668 H681 0.985 . S
N669 C671 1.356 . S
N669 H674 0.984 . S
N669 H675 0.985 . S
C670 C664 1.379 . S
C670 C667 1.363 . S
C670 N668 1.356 . S
C671 C665 1.363 . S
C671 C666 1.379 . S
C671 N669 1.356 . S
N672 C664 1.356 . S
N672 H678 0.984 . S
N672 H679 0.984 . S
N673 C666 1.356 . S
N673 H676 0.984 . S
N673 H677 0.985 . S
H674 N669 0.984 . S
H675 N669 0.985 . S
H676 N673 0.984 . S
H677 N673 0.985 . S
H678 N672 0.984 . S
H679 N672 0.984 . S
H680 N668 0.984 . S
H681 N668 0.985 . S
C682 C683 1.363 . S
C682 C688 1.379 . S
C682 N690 1.356 . S
C683 C682 1.363 . S
C683 C689 1.363 . S
C684 C685 1.363 . S
C684 C689 1.379 . S
C684 N691 1.356 . S
C685 C684 1.363 . S
C685 C688 1.363 . S
N686 C688 1.356 . S
N686 H698 0.984 . S
N686 H699 0.985 . S
N687 C689 1.356 . S
N687 H692 0.984 . S
N687 H693 0.985 . S
C688 C682 1.379 . S
C688 C685 1.363 . S
C688 N686 1.356 . S
C689 C683 1.363 . S
C689 C684 1.379 . S
C689 N687 1.356 . S
N690 C682 1.356 . S
N690 H696 0.984 . S
N690 H697 0.984 . S
N691 C684 1.356 . S
N691 H694 0.984 . S
N691 H695 0.985 . S
H692 N687 0.984 . S
H693 N687 0.985 . S
H694 N691 0.984 . S
H695 N691 0.985 . S
H696 N690 0.984 . S
H697 N690 0.984 . S
H698 N686 0.984 . S
H699 N686 0.985 . S
C700 C701 1.363 . S
C700 C706 1.379 . S
C700 N708 1.356 . S
C701 C700 1.363 . S
C701 C707 1.363 . S
C702 C703 1.363 . S
C702 C707 1.379 . S
C702 N709 1.356 . S
C703 C702 1.363 . S
C703 C706 1.363 . S
N704 C706 1.356 . S
N704 H716 0.984 . S
N704 H717 0.985 . S
N705 C707 1.356 . S
N705 H710 0.984 . S
N705 H711 0.985 . S
C706 C700 1.379 . S
C706 C703 1.363 . S
C706 N704 1.356 . S
C707 C701 1.363 . S
C707 C702 1.379 . S
C707 N705 1.356 . S
N708 C700 1.356 . S
N708 H714 0.984 . S
N708 H715 0.984 . S
N709 C702 1.356 . S
N709 H712 0.984 . S
N709 H713 0.985 . S
H710 N705 0.984 . S
H711 N705 0.985 . S
H712 N709 0.984 . S
H713 N709 0.985 . S
H714 N708 0.984 . S
H715 N708 0.984 . S
H716 N704 0.984 . S
H717 N704 0.985 . S
C718 C719 1.363 . S
C718 C724 1.379 . S
C718 N726 1.356 . S
C719 C718 1.363 . S
C719 C725 1.363 . S
C720 C721 1.363 . S
C720 C725 1.379 . S
C720 N727 1.356 . S
C721 C720 1.363 . S
C721 C724 1.363 . S
N722 C724 1.356 . S
N722 H734 0.984 . S
N722 H735 0.985 . S
N723 C725 1.356 . S
N723 H728 0.984 . S
N723 H729 0.985 . S
C724 C718 1.379 . S
C724 C721 1.363 . S
C724 N722 1.356 . S
C725 C719 1.363 . S
C725 C720 1.379 . S
C725 N723 1.356 . S
N726 C718 1.356 . S
N726 H732 0.984 . S
N726 H733 0.984 . S
N727 C720 1.356 . S
N727 H730 0.984 . S
N727 H731 0.985 . S
H728 N723 0.984 . S
H729 N723 0.985 . S
H730 N727 0.984 . S
H731 N727 0.985 . S
H732 N726 0.984 . S
H733 N726 0.984 . S
H734 N722 0.984 . S
H735 N722 0.985 . S
C736 C737 1.363 . S
C736 C742 1.379 . S
C736 N744 1.356 . S
C737 C736 1.363 . S
C737 C743 1.363 . S
C738 C739 1.363 . S
C738 C743 1.379 . S
C738 N745 1.356 . S
C739 C738 1.363 . S
C739 C742 1.363 . S
N740 C742 1.356 . S
N740 H752 0.984 . S
N740 H753 0.985 . S
N741 C743 1.356 . S
N741 H746 0.984 . S
N741 H747 0.985 . S
C742 C736 1.379 . S
C742 C739 1.363 . S
C742 N740 1.356 . S
C743 C737 1.363 . S
C743 C738 1.379 . S
C743 N741 1.356 . S
N744 C736 1.356 . S
N744 H750 0.984 . S
N744 H751 0.984 . S
N745 C738 1.356 . S
N745 H748 0.984 . S
N745 H749 0.985 . S
H746 N741 0.984 . S
H747 N741 0.985 . S
H748 N745 0.984 . S
H749 N745 0.985 . S
H750 N744 0.984 . S
H751 N744 0.984 . S
H752 N740 0.984 . S
H753 N740 0.985 . S
C754 C755 1.363 1_556 S
C754 C760 1.379 . S
C754 N762 1.356 . S
C755 C754 1.363 1_554 S
C755 C761 1.363 . S
C756 C757 1.363 1_554 S
C756 C761 1.379 . S
C756 N763 1.356 . S
C757 C756 1.363 1_556 S
C757 C760 1.363 . S
N758 C760 1.356 . S
N758 H770 0.984 . S
N758 H771 0.985 . S
N759 C761 1.356 . S
N759 H764 0.984 . S
N759 H765 0.985 . S
C760 C754 1.379 . S
C760 C757 1.363 . S
C760 N758 1.356 . S
C761 C755 1.363 . S
C761 C756 1.379 . S
C761 N759 1.356 . S
N762 C754 1.356 . S
N762 H768 0.984 . S
N762 H769 0.984 . S
N763 C756 1.356 . S
N763 H766 0.984 . S
N763 H767 0.985 . S
H764 N759 0.984 . S
H765 N759 0.985 . S
H766 N763 0.984 . S
H767 N763 0.985 . S
H768 N762 0.984 . S
H769 N762 0.984 . S
H770 N758 0.984 . S
H771 N758 0.985 . S
C772 C773 1.363 . S
C772 C778 1.379 . S
C772 N780 1.356 . S
C773 C772 1.363 . S
C773 C779 1.363 . S
C774 C775 1.363 . S
C774 C779 1.379 . S
C774 N781 1.356 . S
C775 C774 1.363 . S
C775 C778 1.363 . S
N776 C778 1.356 . S
N776 H788 0.984 . S
N776 H789 0.985 . S
N777 C779 1.356 . S
N777 H782 0.984 . S
N777 H783 0.985 . S
C778 C772 1.379 . S
C778 C775 1.363 . S
C778 N776 1.356 . S
C779 C773 1.363 . S
C779 C774 1.379 . S
C779 N777 1.356 . S
N780 C772 1.356 . S
N780 H786 0.984 . S
N780 H787 0.984 . S
N781 C774 1.356 . S
N781 H784 0.984 . S
N781 H785 0.985 . S
H782 N777 0.984 . S
H783 N777 0.985 . S
H784 N781 0.984 . S
H785 N781 0.985 . S
H786 N780 0.984 . S
H787 N780 0.984 . S
H788 N776 0.984 . S
H789 N776 0.985 . S
C790 C791 1.363 . S
C790 C796 1.379 . S
C790 N798 1.356 . S
C791 C790 1.363 . S
C791 C797 1.363 . S
C792 C793 1.363 . S
C792 C797 1.379 . S
C792 N799 1.356 . S
C793 C792 1.363 . S
C793 C796 1.363 . S
N794 C796 1.356 . S
N794 H806 0.984 . S
N794 H807 0.985 . S
N795 C797 1.356 . S
N795 H800 0.984 . S
N795 H801 0.985 . S
C796 C790 1.379 . S
C796 C793 1.363 . S
C796 N794 1.356 . S
C797 C791 1.363 . S
C797 C792 1.379 . S
C797 N795 1.356 . S
N798 C790 1.356 . S
N798 H804 0.984 . S
N798 H805 0.984 . S
N799 C792 1.356 . S
N799 H802 0.984 . S
N799 H803 0.985 . S
H800 N795 0.984 . S
H801 N795 0.985 . S
H802 N799 0.984 . S
H803 N799 0.985 . S
H804 N798 0.984 . S
H805 N798 0.984 . S
H806 N794 0.984 . S
H807 N794 0.985 . S
C377 C8 1.787 . S
C379 C119 1.532 . S
C395 C31 1.994 . S
C397 C155 1.821 . S
C413 C53 1.553 . S
C415 C191 1.501 . S
C433 C221 1.562 . S
C431 C74 1.759 . S
C451 C263 1.561 . S
C449 C26 1.572 . S
C467 C48 1.988 . S
C469 C293 1.800 1_655 S
C485 C71 1.779 . S
C487 C329 1.512 . S
C503 C5 1.772 . S
C505 C371 1.586 . S
C521 C50 1.774 . S
C523 C341 1.564 . S
C541 C233 1.842 . S
C539 C70 1.976 . S
C559 C299 1.554 . S
C557 C4 1.549 . S
C575 C28 1.784 . S
C577 C335 1.612 . S
C595 C125 1.559 . S
C593 C73 1.557 . S
C611 C7 1.991 . S
C613 C185 1.734 1_455 S
C631 C227 1.567 . S
C629 C30 1.798 . S
C649 C89 1.599 . S
C647 C52 1.750 . S
C667 C305 1.447 . S
C665 C9 1.493 . S
C685 C365 1.420 . S
C683 C29 1.489 . S
C701 C51 1.750 . S
C703 C257 1.659 . S
C721 C269 1.656 . S
C719 C75 1.737 . S
C739 C161 1.595 . S
C737 C27 1.739 . S
C755 C49 1.497 . S
C757 C197 1.434 . S
C775 C113 1.430 . S
C773 C72 1.487 . S
C793 C149 1.684 . S
C791 C6 1.757 . S
