# Generated by pormake.
# Topology nom, (4,4)-cn, num edge types: 1
# Building blocks:
#     Node 0, Type 0, BuildingBlock: KUFVIS_clean_linker_0, # of connection points: 4
#     Node 1, Type 0, BuildingBlock: KUFVIS_clean_linker_0, # of connection points: 4
#     Node 2, Type 0, BuildingBlock: KUFVIS_clean_linker_0, # of connection points: 4
#     Node 3, Type 0, BuildingBlock: KUFVIS_clean_linker_0, # of connection points: 4
#     Node 4, Type 0, BuildingBlock: KUFVIS_clean_linker_0, # of connection points: 4
#     Node 5, Type 0, BuildingBlock: KUFVIS_clean_linker_0, # of connection points: 4
#     Node 6, Type 1, BuildingBlock: AZAVOO_clean_sbu_0, # of connection points: 4
#     Node 7, Type 1, BuildingBlock: AZAVOO_clean_sbu_0, # of connection points: 4
#     Node 8, Type 1, BuildingBlock: AZAVOO_clean_sbu_0, # of connection points: 4
#     Node 9, Type 1, BuildingBlock: AZAVOO_clean_sbu_0, # of connection points: 4
#     Node 10, Type 1, BuildingBlock: AZAVOO_clean_sbu_0, # of connection points: 4
#     Node 11, Type 1, BuildingBlock: AZAVOO_clean_sbu_0, # of connection points: 4
#     Edge 12, Type (0, 1), BuildingBlock: XUDNAN_clean_linker_2, # of connection points: 2
#     Edge 13, Type (0, 1), BuildingBlock: XUDNAN_clean_linker_2, # of connection points: 2
#     Edge 14, Type (0, 1), BuildingBlock: XUDNAN_clean_linker_2, # of connection points: 2
#     Edge 15, Type (0, 1), BuildingBlock: XUDNAN_clean_linker_2, # of connection points: 2
#     Edge 16, Type (0, 1), BuildingBlock: XUDNAN_clean_linker_2, # of connection points: 2
#     Edge 17, Type (0, 1), BuildingBlock: XUDNAN_clean_linker_2, # of connection points: 2
#     Edge 18, Type (0, 1), BuildingBlock: XUDNAN_clean_linker_2, # of connection points: 2
#     Edge 19, Type (0, 1), BuildingBlock: XUDNAN_clean_linker_2, # of connection points: 2
#     Edge 20, Type (0, 1), BuildingBlock: XUDNAN_clean_linker_2, # of connection points: 2
#     Edge 21, Type (0, 1), BuildingBlock: XUDNAN_clean_linker_2, # of connection points: 2
#     Edge 22, Type (0, 1), BuildingBlock: XUDNAN_clean_linker_2, # of connection points: 2
#     Edge 23, Type (0, 1), BuildingBlock: XUDNAN_clean_linker_2, # of connection points: 2
#     Edge 24, Type (0, 1), BuildingBlock: XUDNAN_clean_linker_2, # of connection points: 2
#     Edge 25, Type (0, 1), BuildingBlock: XUDNAN_clean_linker_2, # of connection points: 2
#     Edge 26, Type (0, 1), BuildingBlock: XUDNAN_clean_linker_2, # of connection points: 2
#     Edge 27, Type (0, 1), BuildingBlock: XUDNAN_clean_linker_2, # of connection points: 2
#     Edge 28, Type (0, 1), BuildingBlock: XUDNAN_clean_linker_2, # of connection points: 2
#     Edge 29, Type (0, 1), BuildingBlock: XUDNAN_clean_linker_2, # of connection points: 2
#     Edge 30, Type (0, 1), BuildingBlock: XUDNAN_clean_linker_2, # of connection points: 2
#     Edge 31, Type (0, 1), BuildingBlock: XUDNAN_clean_linker_2, # of connection points: 2
#     Edge 32, Type (0, 1), BuildingBlock: XUDNAN_clean_linker_2, # of connection points: 2
#     Edge 33, Type (0, 1), BuildingBlock: XUDNAN_clean_linker_2, # of connection points: 2
#     Edge 34, Type (0, 1), BuildingBlock: XUDNAN_clean_linker_2, # of connection points: 2
#     Edge 35, Type (0, 1), BuildingBlock: XUDNAN_clean_linker_2, # of connection points: 2
# Relax obj value: 0.031
# Max RMSD: 0.159
# Mean RMSD: 0.094
data_MOF--net-nom--node1-AZAVOO_clean_sbu_0--node2-KUFVIS_clean_linker_0--edge1-XUDNAN_clean_linker_2
_symmetry_space_group_name_H-M    P1
_symmetry_Int_Tables_number       1
_symmetry_cell_setting            triclinic
loop_
_symmetry_equiv_pos_as_xyz
'x, y, z'
_cell_length_a     45.975223
_cell_length_b     46.365804
_cell_length_c     45.162634
_cell_angle_alpha  91.536731
_cell_angle_beta   91.525833
_cell_angle_gamma 120.05321
loop_
_atom_site_label
_atom_site_type_symbol
_atom_site_fract_x
_atom_site_fract_y
_atom_site_fract_z
_atom_type_partial_charge
H0 H 0.12828 0.60969 0.35789 0.0
H1 H 0.05042 0.58434 0.2913 0.0
H2 H 0.02679 0.53776 0.37595 0.0
H3 H 0.97743 0.53433 0.36671 0.0
H4 H 0.90209 0.48279 0.29698 0.0
H5 H 1.00533 0.53722 0.27535 0.0
C6 C 0.1017 0.59642 0.35135 0.0
C7 C 0.07842 0.57452 0.37075 0.0
C8 C 0.09176 0.59953 0.3227 0.0
C9 C 0.0576 0.58105 0.3134 0.0
C10 C 0.03327 0.55874 0.33253 0.0
C11 C 0.04436 0.55551 0.36115 0.0
C12 C 0.99672 0.53804 0.32258 0.0
C13 C 0.97118 0.52682 0.34346 0.0
C14 C 0.93715 0.50599 0.33448 0.0
C15 C 0.9284 0.49746 0.30433 0.0
C16 C 0.95281 0.50943 0.28318 0.0
C17 C 0.98688 0.5292 0.29219 0.0
H18 H 0.53049 0.12329 0.51263 0.0
H19 H 0.49519 0.04311 0.44729 0.0
H20 H 0.49856 0.02472 0.54072 0.0
H21 H 0.45363 0.97427 0.52579 0.0
H22 H 0.44072 0.89753 0.46283 0.0
H23 H 0.5023 0.99957 0.44185 0.0
C24 C 0.52009 0.0969 0.5071 0.0
C25 C 0.51421 0.07509 0.52984 0.0
C26 C 0.51401 0.08559 0.47742 0.0
C27 C 0.50097 0.05152 0.47038 0.0
C28 C 0.49471 0.02864 0.49293 0.0
C29 C 0.50212 0.04112 0.52285 0.0
C30 C 0.48037 0.9921 0.48511 0.0
C31 C 0.45966 0.96734 0.50473 0.0
C32 C 0.4462 0.93325 0.49702 0.0
C33 C 0.45197 0.92384 0.46915 0.0
C34 C 0.47115 0.94753 0.44894 0.0
C35 C 0.48637 0.98155 0.45735 0.0
H36 H 0.54705 0.41708 0.6023 0.0
H37 H 0.52457 0.47338 0.66456 0.0
H38 H 0.51874 0.48568 0.57005 0.0
H39 H 0.48119 0.49929 0.58105 0.0
H40 H 0.46765 0.56245 0.64313 0.0
H41 H 0.52824 0.5212 0.66975 0.0
C42 C 0.53985 0.43568 0.60691 0.0
C43 C 0.5321 0.44974 0.58323 0.0
C44 C 0.53861 0.44521 0.63624 0.0
C45 C 0.52726 0.46785 0.64177 0.0
C46 C 0.51952 0.48294 0.61822 0.0
C47 C 0.52317 0.47416 0.58881 0.0
C48 C 0.50689 0.50686 0.62433 0.0
C49 C 0.48721 0.51204 0.60263 0.0
C50 C 0.47431 0.53332 0.60882 0.0
C51 C 0.47931 0.54779 0.63743 0.0
C52 C 0.49786 0.54258 0.65936 0.0
C53 C 0.51286 0.52352 0.65253 0.0
H54 H 0.14029 0.56883 0.79526 0.0
H55 H 0.06747 0.51589 0.85975 0.0
H56 H 0.03573 0.52519 0.77108 0.0
H57 H 0.99145 0.4751 0.78062 0.0
H58 H 0.91638 0.45373 0.84415 0.0
H59 H 0.02019 0.51795 0.87027 0.0
C60 C 0.11433 0.55575 0.80163 0.0
C61 C 0.08874 0.54816 0.78021 0.0
C62 C 0.10699 0.54464 0.83045 0.0
C63 C 0.0731 0.52539 0.83775 0.0
C64 C 0.04675 0.51827 0.81658 0.0
C65 C 0.05514 0.52993 0.78779 0.0
C66 C 0.01064 0.49927 0.82435 0.0
C67 C 0.98504 0.47881 0.80274 0.0
C68 C 0.9509 0.46309 0.80947 0.0
C69 C 0.94252 0.46692 0.83831 0.0
C70 C 0.96745 0.48606 0.86025 0.0
C71 C 1.00134 0.50235 0.85324 0.0
H72 H 0.47032 0.91112 0.01323 0.0
H73 H 0.52553 0.98594 0.95161 0.0
H74 H 0.50151 0.01314 0.03627 0.0
H75 H 0.55282 0.05937 0.0308 0.0
H76 H 0.58713 0.1333 0.9654 0.0
H77 H 0.5205 0.03076 0.93842 0.0
C78 C 0.48241 0.93702 0.00733 0.0
C79 C 0.48484 0.96133 0.02785 0.0
C80 C 0.49643 0.94577 0.97973 0.0
C81 C 0.51331 0.97938 0.97252 0.0
C82 C 0.51535 1.00431 -0.00728 0.0
C83 C 0.50038 0.99473 0.02029 0.0
C84 C 0.53421 0.04023 0.98551 0.0
C85 C 0.55241 0.06553 0.00789 0.0
C86 C 0.57113 0.09905 0.0006 0.0
C87 C 0.57242 0.10736 0.97099 0.0
C88 C 0.55446 0.08276 0.94861 0.0
C89 C 0.53485 0.04943 0.95593 0.0
H90 H 0.48054 0.6039 0.11429 0.0
H91 H 0.51393 0.55811 0.17715 0.0
H92 H 0.51539 0.53905 0.08282 0.0
H93 H 0.55928 0.53341 0.09783 0.0
H94 H 0.57064 0.46892 0.15755 0.0
H95 H 0.50618 0.50693 0.17961 0.0
C96 C 0.48987 0.58705 0.11895 0.0
C97 C 0.49821 0.57272 0.09546 0.0
C98 C 0.49472 0.58113 0.14833 0.0
C99 C 0.50859 0.56086 0.15426 0.0
C100 C 0.51584 0.54478 0.13089 0.0
C101 C 0.51006 0.55073 0.10133 0.0
C102 C 0.53032 0.52284 0.13752 0.0
C103 C 0.55244 0.51986 0.118 0.0
C104 C 0.5671 0.50039 0.12503 0.0
C105 C 0.55978 0.48421 0.1518 0.0
C106 C 0.5387 0.48737 0.1716 0.0
C107 C 0.5232 0.50571 0.16419 0.0
Mg108 Mg 0.63434 0.36494 0.35105 0.0
O109 O 0.61593 0.38167 0.39156 0.0
O110 O 0.63137 0.43536 0.38691 0.0
Mg111 Mg 0.66019 0.45326 0.34487 0.0
C112 C 0.61677 0.40843 0.40079 0.0
C113 C 0.59485 0.29758 0.38298 0.0
O114 O 0.57301 0.30792 0.38448 0.0
O115 O 0.68874 0.3928 0.37021 0.0
O116 O 0.70234 0.44591 0.36501 0.0
O117 O 0.58639 0.35182 0.32636 0.0
O118 O 0.63239 0.40144 0.32679 0.0
C119 C 0.70979 0.42408 0.37303 0.0
C120 C 0.60101 0.38262 0.31904 0.0
O121 O 0.62306 0.31611 0.3718 0.0
Mg122 Mg 0.28554 0.64248 0.58544 0.0
O123 O 0.24277 0.6164 0.54867 0.0
O124 O 0.21334 0.5628 0.5603 0.0
Mg125 Mg 0.23524 0.55375 0.60218 0.0
C126 C 0.21833 0.5865 0.54361 0.0
C127 C 0.29788 0.70747 0.55824 0.0
O128 O 0.26633 0.69329 0.56548 0.0
O129 O 0.3149 0.61904 0.56518 0.0
O130 O 0.28293 0.56615 0.57787 0.0
O131 O 0.25197 0.65257 0.61315 0.0
O132 O 0.25455 0.6063 0.61421 0.0
C133 C 0.30869 0.58889 0.5657 0.0
C134 C 0.24012 0.62274 0.62223 0.0
O135 O 0.31328 0.69116 0.56081 0.0
Mg136 Mg 0.65225 0.2789 0.7569 0.0
O137 O 0.63263 0.24382 0.71504 0.0
O138 O 0.64972 0.20656 0.71885 0.0
Mg139 Mg 0.6808 0.21829 0.76244 0.0
C140 C 0.63351 0.21819 0.70508 0.0
C141 C 0.61948 0.32164 0.75202 0.0
O142 O 0.61142 0.30864 0.7781 0.0
O143 O 0.70636 0.30724 0.74181 0.0
O144 O 0.72226 0.26927 0.74743 0.0
O145 O 0.60554 0.24306 0.77805 0.0
O146 O 0.65274 0.24122 0.78069 0.0
C147 C 0.72863 0.29846 0.74089 0.0
C148 C 0.6214 0.22797 0.7864 0.0
O149 O 0.63796 0.31482 0.73621 0.0
Mg150 Mg 0.41049 0.6595 0.85665 0.0
O151 O 0.42722 0.63971 0.89561 0.0
O152 O 0.40883 0.58543 0.88731 0.0
Mg153 Mg 0.37936 0.57031 0.8426 0.0
C154 C 0.42488 0.61235 0.90335 0.0
C155 C 0.41853 0.7293 0.87855 0.0
O156 O 0.39504 0.72222 0.85781 0.0
O157 O 0.35638 0.63448 0.87228 0.0
O158 O 0.33947 0.5807 0.86209 0.0
O159 O 0.4569 0.66979 0.83414 0.0
O160 O 0.4088 0.62208 0.82848 0.0
C161 C 0.33386 0.60356 0.87174 0.0
C162 C 0.44026 0.63948 0.82308 0.0
O163 O 0.42777 0.70818 0.88372 0.0
Mg164 Mg 0.76113 0.39913 0.0443 0.0
O165 O 0.79507 0.41806 0.08721 0.0
O166 O 0.82712 0.3942 0.08651 0.0
Mg167 Mg 0.81723 0.3642 0.04274 0.0
C168 C 0.81775 0.41308 0.09894 0.0
C169 C 0.70867 0.42048 0.04047 0.0
O170 O 0.71181 0.41289 0.01294 0.0
O171 O 0.72917 0.34639 0.06126 0.0
O172 O 0.76358 0.32599 0.05484 0.0
O173 O 0.79912 0.44323 0.02124 0.0
O174 O 0.79924 0.39572 0.02364 0.0
C175 C 0.73502 0.32217 0.06136 0.0
C176 C 0.81381 0.42617 0.01586 0.0
O177 O 0.72572 0.41657 0.06101 0.0
Mg178 Mg 0.38182 0.76236 0.21646 0.0
O179 O 0.41177 0.79883 0.25673 0.0
O180 O 0.46409 0.83026 0.24136 0.0
Mg181 Mg 0.46853 0.81488 0.1945 0.0
C182 C 0.44233 0.82255 0.26108 0.0
C183 C 0.31716 0.73813 0.25375 0.0
O184 O 0.32747 0.77017 0.25571 0.0
O185 O 0.40657 0.73095 0.22529 0.0
O186 O 0.4588 0.76447 0.21082 0.0
O187 O 0.36942 0.79964 0.19907 0.0
O188 O 0.41465 0.79702 0.18821 0.0
C189 C 0.43652 0.73718 0.22121 0.0
C190 C 0.39772 0.81223 0.18611 0.0
O191 O 0.33576 0.72831 0.24209 0.0
H192 H 0.14088 0.66488 0.33006 0.0
H193 H 0.10435 0.57735 0.27099 0.0
H194 H 0.1578 0.60468 0.24512 0.0
H195 H 0.19092 0.72793 0.27363 0.0
H196 H 0.2234 0.75366 0.30128 0.0
H197 H 0.18037 0.72921 0.31162 0.0
H198 H 0.19912 0.70197 0.35147 0.0
H199 H 0.242 0.7255 0.34076 0.0
H200 H 0.22112 0.68062 0.34051 0.0
H201 H 0.21843 0.63692 0.23242 0.0
H202 H 0.27884 0.67627 0.22699 0.0
H203 H 0.27547 0.74455 0.29256 0.0
C204 C 0.14368 0.65216 0.31082 0.0
C205 C 0.11848 0.61925 0.30216 0.0
C206 C 0.12313 0.60284 0.27746 0.0
C207 C 0.15352 0.61805 0.26289 0.0
C208 C 0.17863 0.64985 0.27302 0.0
C209 C 0.17368 0.66716 0.29585 0.0
C210 C 0.20532 0.70024 0.30356 0.0
C211 C 0.19966 0.7295 0.29713 0.0
C212 C 0.21759 0.70217 0.33599 0.0
C213 C 0.22922 0.69834 0.28222 0.0
C214 C 0.21336 0.66897 0.26494 0.0
C215 C 0.2309 0.66034 0.2453 0.0
C216 C 0.2653 0.6827 0.24264 0.0
C217 C 0.28178 0.71352 0.25927 0.0
C218 C 0.26343 0.72132 0.27936 0.0
H219 H 0.49524 0.13256 0.47248 0.0
H220 H 0.55566 0.09599 0.43193 0.0
H221 H 0.58135 0.14538 0.40098 0.0
H222 H 0.48249 0.17087 0.4052 0.0
H223 H 0.48508 0.20526 0.42705 0.0
H224 H 0.46853 0.1649 0.44263 0.0
H225 H 0.51243 0.19182 0.48664 0.0
H226 H 0.52959 0.23209 0.47096 0.0
H227 H 0.55655 0.21525 0.47934 0.0
H228 H 0.60637 0.20287 0.38041 0.0
H229 H 0.6235 0.26035 0.36674 0.0
H230 H 0.54527 0.2583 0.41986 0.0
C231 C 0.51311 0.1345 0.45638 0.0
C232 C 0.52338 0.11048 0.45434 0.0
C233 C 0.54713 0.1139 0.4334 0.0
C234 C 0.562 0.14198 0.41595 0.0
C235 C 0.55241 0.16602 0.41948 0.0
C236 C 0.52794 0.16215 0.43871 0.0
C237 C 0.52329 0.19226 0.43958 0.0
C238 C 0.48774 0.18275 0.42791 0.0
C239 C 0.53093 0.20882 0.47099 0.0
C240 C 0.54963 0.21416 0.41847 0.0
C241 C 0.56623 0.19866 0.40714 0.0
C242 C 0.59309 0.21497 0.3887 0.0
C243 C 0.60282 0.24771 0.38126 0.0
C244 C 0.58557 0.2637 0.39209 0.0
C245 C 0.55866 0.24658 0.41093 0.0
H246 H 0.47679 0.59205 0.59778 0.0
H247 H 0.42229 0.48666 0.57217 0.0
H248 H 0.37863 0.49392 0.54616 0.0
H249 H 0.41065 0.59562 0.61983 0.0
H250 H 0.4226 0.63675 0.60791 0.0
H251 H 0.45434 0.62603 0.61586 0.0
H252 H 0.47661 0.64194 0.56322 0.0
H253 H 0.44489 0.65299 0.55508 0.0
H254 H 0.44818 0.62306 0.53121 0.0
H255 H 0.33504 0.50904 0.53464 0.0
H256 H 0.29563 0.53025 0.53872 0.0
H257 H 0.37714 0.62597 0.57256 0.0
C258 C 0.45628 0.57076 0.5857 0.0
C259 C 0.45299 0.5388 0.58691 0.0
C260 C 0.42569 0.51146 0.57113 0.0
C261 C 0.4007 0.5154 0.55634 0.0
C262 C 0.40359 0.54689 0.55726 0.0
C263 C 0.431 0.57425 0.57126 0.0
C264 C 0.42562 0.60393 0.57364 0.0
C265 C 0.42844 0.61626 0.60622 0.0
C266 C 0.45029 0.63215 0.55465 0.0
C267 C 0.38993 0.58839 0.56073 0.0
C268 C 0.37803 0.55573 0.55063 0.0
C269 C 0.34439 0.53483 0.54159 0.0
C270 C 0.32215 0.54708 0.54403 0.0
C271 C 0.33353 0.57992 0.55546 0.0
C272 C 0.36809 0.60121 0.56273 0.0
H273 H 0.89143 0.4617 0.79858 0.0
H274 H 0.9478 0.41424 0.77151 0.0
H275 H 0.89792 0.3715 0.7419 0.0
H276 H 0.81973 0.39096 0.81222 0.0
H277 H 0.79085 0.40398 0.79928 0.0
H278 H 0.83261 0.43465 0.81245 0.0
H279 H 0.84273 0.46393 0.76259 0.0
H280 H 0.80078 0.43323 0.74921 0.0
H281 H 0.83645 0.44031 0.7283 0.0
H282 H 0.83947 0.32818 0.72416 0.0
H283 H 0.77825 0.28887 0.71913 0.0
H284 H 0.75979 0.36482 0.75691 0.0
C285 C 0.89355 0.44284 0.78571 0.0
C286 C 0.92352 0.44132 0.78727 0.0
C287 C 0.92529 0.41619 0.77029 0.0
C288 C 0.89703 0.39177 0.75345 0.0
C289 C 0.86738 0.39316 0.75345 0.0
C290 C 0.86564 0.41838 0.76885 0.0
C291 C 0.82999 0.41222 0.76827 0.0
C292 C 0.81758 0.41032 0.79992 0.0
C293 C 0.82734 0.43902 0.75106 0.0
C294 C 0.81152 0.37864 0.75156 0.0
C295 C 0.83359 0.36831 0.74274 0.0
C296 C 0.82206 0.3364 0.73019 0.0
C297 C 0.78723 0.3142 0.72744 0.0
C298 C 0.76425 0.32398 0.73714 0.0
C299 C 0.77667 0.35701 0.74837 0.0
H300 H 0.44684 0.90584 0.93865 0.0
H301 H 0.54138 0.9244 0.97924 0.0
H302 H 0.53304 0.87189 0.95545 0.0
H303 H 0.402 0.82137 0.94854 0.0
H304 H 0.37798 0.80931 0.9137 0.0
H305 H 0.39335 0.85047 0.93012 0.0
H306 H 0.424 0.87691 0.88239 0.0
H307 H 0.40815 0.83577 0.86552 0.0
H308 H 0.45273 0.86506 0.86756 0.0
H309 H 0.51065 0.81425 0.93342 0.0
H310 H 0.47895 0.75774 0.90973 0.0
H311 H 0.39925 0.77676 0.88173 0.0
C312 C 0.46633 0.89937 0.94141 0.0
C313 C 0.49517 0.9193 0.96002 0.0
C314 C 0.51963 0.9097 0.96434 0.0
C315 C 0.51495 0.87988 0.95111 0.0
C316 C 0.48574 0.86015 0.93354 0.0
C317 C 0.46212 0.86975 0.92815 0.0
C318 C 0.43205 0.84304 0.90979 0.0
C319 C 0.39943 0.83031 0.92655 0.0
C320 C 0.42907 0.85597 0.87951 0.0
C321 C 0.44195 0.81651 0.90652 0.0
C322 C 0.47301 0.82692 0.9204 0.0
C323 C 0.4866 0.80605 0.922 0.0
C324 C 0.46824 0.77387 0.90866 0.0
C325 C 0.43667 0.76284 0.89372 0.0
C326 C 0.42345 0.78457 0.8927 0.0
H327 H 0.62552 0.5013 0.1405 0.0
H328 H 0.55952 0.48821 0.06458 0.0
H329 H 0.59165 0.47024 0.03345 0.0
H330 H 0.70356 0.52745 0.10045 0.0
H331 H 0.71598 0.50424 0.12388 0.0
H332 H 0.69157 0.52153 0.13846 0.0
H333 H 0.64685 0.46287 0.15421 0.0
H334 H 0.67075 0.44527 0.1393 0.0
H335 H 0.62753 0.42882 0.12676 0.0
H336 H 0.62693 0.44747 0.01231 0.0
H337 H 0.66353 0.42391 0.00219 0.0
H338 H 0.7039 0.44876 0.09314 0.0
C339 C 0.61813 0.49522 0.11718 0.0
C340 C 0.5899 0.49606 0.10496 0.0
C341 C 0.58127 0.48815 0.07433 0.0
C342 C 0.59924 0.4777 0.05655 0.0
C343 C 0.62581 0.47547 0.06977 0.0
C344 C 0.63541 0.48434 0.09936 0.0
C345 C 0.66284 0.4771 0.10896 0.0
C346 C 0.69542 0.50951 0.11849 0.0
C347 C 0.65128 0.45203 0.13376 0.0
C348 C 0.66668 0.4619 0.08033 0.0
C349 C 0.64544 0.46158 0.05789 0.0
C350 C 0.64388 0.44792 0.02965 0.0
C351 C 0.66471 0.43448 0.02416 0.0
C352 C 0.68658 0.43443 0.04689 0.0
C353 C 0.68745 0.44836 0.07532 0.0
H354 H 0.45276 0.88077 0.51353 0.0
H355 H 0.38822 0.9235 0.52136 0.0
H356 H 0.34377 0.87064 0.54076 0.0
H357 H 0.39222 0.80436 0.48519 0.0
H358 H 0.40706 0.78003 0.50399 0.0
H359 H 0.4361 0.82274 0.49635 0.0
H360 H 0.45444 0.83686 0.55203 0.0
H361 H 0.42613 0.79392 0.55984 0.0
H362 H 0.42301 0.82676 0.57911 0.0
H363 H 0.30369 0.81058 0.55141 0.0
H364 H 0.27305 0.7501 0.55863 0.0
H365 H 0.3639 0.74629 0.54316 0.0
C366 C 0.42973 0.87937 0.52046 0.0
C367 C 0.42393 0.90623 0.51631 0.0
C368 C 0.39333 0.90343 0.52497 0.0
C369 C 0.36788 0.87339 0.53569 0.0
C370 C 0.3737 0.84667 0.53783 0.0
C371 C 0.40417 0.84964 0.53103 0.0
C372 C 0.40328 0.81661 0.53294 0.0
C373 C 0.41006 0.80529 0.50283 0.0
C374 C 0.42819 0.81866 0.55745 0.0
C375 C 0.36723 0.79427 0.54112 0.0
C376 C 0.35063 0.8121 0.5439 0.0
C377 C 0.31663 0.79653 0.54981 0.0
C378 C 0.29937 0.76204 0.55364 0.0
C379 C 0.31605 0.74334 0.55157 0.0
C380 C 0.35043 0.75982 0.54503 0.0
H381 H 0.59183 0.43426 0.63759 0.0
H382 H 0.50909 0.42312 0.68969 0.0
H383 H 0.52405 0.39434 0.72732 0.0
H384 H 0.57809 0.354 0.64773 0.0
H385 H 0.62198 0.36605 0.64905 0.0
H386 H 0.60788 0.3899 0.6286 0.0
H387 H 0.65059 0.44358 0.65904 0.0
H388 H 0.66498 0.41992 0.67953 0.0
H389 H 0.65026 0.44429 0.69896 0.0
H390 H 0.54551 0.3629 0.75715 0.0
H391 H 0.5707 0.33066 0.77643 0.0
H392 H 0.63686 0.35934 0.70265 0.0
C393 C 0.57687 0.42596 0.65697 0.0
C394 C 0.54919 0.43093 0.66061 0.0
C395 C 0.53066 0.42005 0.68655 0.0
C396 C 0.53889 0.40352 0.70796 0.0
C397 C 0.56567 0.39811 0.70308 0.0
C398 C 0.58439 0.40907 0.67821 0.0
C399 C 0.61026 0.39802 0.67689 0.0
C400 C 0.60417 0.37567 0.64891 0.0
C401 C 0.64615 0.42826 0.67872 0.0
C402 C 0.60277 0.37845 0.70465 0.0
C403 C 0.57732 0.37921 0.71969 0.0
C404 C 0.56558 0.36233 0.74565 0.0
C405 C 0.58007 0.34405 0.75639 0.0
C406 C 0.60575 0.34242 0.74102 0.0
C407 C 0.6173 0.36008 0.7149 0.0
H408 H 0.16543 0.60364 0.84127 0.0
H409 H 0.11375 0.50017 0.86466 0.0
H410 H 0.1667 0.50809 0.88791 0.0
H411 H 0.23319 0.60451 0.81618 0.0
H412 H 0.26411 0.64634 0.82896 0.0
H413 H 0.22117 0.63567 0.82208 0.0
H414 H 0.2189 0.65533 0.87576 0.0
H415 H 0.26217 0.66651 0.88281 0.0
H416 H 0.23021 0.6384 0.90656 0.0
H417 H 0.22657 0.52323 0.89731 0.0
H418 H 0.28747 0.54471 0.89406 0.0
H419 H 0.30101 0.63863 0.86446 0.0
C420 C 0.16501 0.58303 0.85239 0.0
C421 C 0.13547 0.55133 0.85133 0.0
C422 C 0.1359 0.52479 0.86568 0.0
C423 C 0.16596 0.52908 0.87883 0.0
C424 C 0.19519 0.56017 0.87779 0.0
C425 C 0.1948 0.5869 0.86535 0.0
C426 C 0.23013 0.61618 0.86305 0.0
C427 C 0.23756 0.62622 0.83066 0.0
C428 C 0.23568 0.64586 0.88326 0.0
C429 C 0.25065 0.60115 0.87447 0.0
C430 C 0.23002 0.56904 0.8834 0.0
C431 C 0.24297 0.54865 0.89123 0.0
C432 C 0.2776 0.56102 0.88921 0.0
C433 C 0.29902 0.59352 0.87943 0.0
C434 C 0.28542 0.61412 0.87289 0.0
H435 H 0.63824 0.13191 0.01317 0.0
H436 H 0.54619 0.12932 0.03571 0.0
H437 H 0.57929 0.18443 0.06244 0.0
H438 H 0.69018 0.1806 0.08341 0.0
H439 H 0.72712 0.20299 0.06224 0.0
H440 H 0.6962 0.16049 0.05134 0.0
H441 H 0.69086 0.17908 -0.00115 0.0
H442 H 0.72127 0.22152 0.00958 0.0
H443 H 0.68018 0.21132 -0.00503 0.0
H444 H 0.62229 0.24439 0.07665 0.0
H445 H 0.67093 0.30191 0.07949 0.0
H446 H 0.73496 0.26415 0.04936 0.0
C447 C 0.62522 0.14228 0.02514 0.0
C448 C 0.58986 0.12628 0.02323 0.0
C449 C 0.57333 0.14098 0.03781 0.0
C450 C 0.59196 0.17228 0.05289 0.0
C451 C 0.62703 0.18823 0.05342 0.0
C452 C 0.64347 0.17334 0.04041 0.0
C453 C 0.68105 0.19705 0.04083 0.0
C454 C 0.69974 0.18453 0.06064 0.0
C455 C 0.69407 0.20256 0.00919 0.0
C456 C 0.68308 0.22819 0.05452 0.0
C457 C 0.65179 0.22262 0.06203 0.0
C458 C 0.64705 0.24879 0.07168 0.0
C459 C 0.67483 0.28145 0.07315 0.0
C460 C 0.70694 0.28766 0.06498 0.0
C461 C 0.71102 0.26036 0.05643 0.0
H462 H 0.43583 0.58023 0.15566 0.0
H463 H 0.53726 0.62246 0.19339 0.0
H464 H 0.52849 0.66121 0.22559 0.0
H465 H 0.43655 0.65141 0.14748 0.0
H466 H 0.3938 0.63767 0.1568 0.0
H467 H 0.40475 0.60796 0.14278 0.0
H468 H 0.38162 0.57317 0.1892 0.0
H469 H 0.37027 0.60276 0.20338 0.0
H470 H 0.39693 0.59284 0.22564 0.0
H471 H 0.51406 0.70369 0.24311 0.0
H472 H 0.4938 0.74392 0.2472 0.0
H473 H 0.40025 0.67265 0.20077 0.0
C474 C 0.45561 0.59673 0.17167 0.0
C475 C 0.48709 0.59833 0.17235 0.0
C476 C 0.51279 0.62056 0.19299 0.0
C477 C 0.50799 0.64265 0.21129 0.0
C478 C 0.47712 0.6416 0.20907 0.0
C479 C 0.45105 0.61865 0.19021 0.0
C480 C 0.42196 0.62527 0.18909 0.0
C481 C 0.41383 0.63093 0.15716 0.0
C482 C 0.39085 0.59681 0.20265 0.0
C483 C 0.43661 0.65694 0.20855 0.0
C484 C 0.46825 0.66568 0.22027 0.0
C485 C 0.48885 0.69651 0.23507 0.0
C486 C 0.47721 0.71923 0.23725 0.0
C487 C 0.44517 0.71087 0.225 0.0
C488 C 0.42423 0.67896 0.2114 0.0
H489 H 0.88333 0.44348 0.3383 0.0
H490 H 0.92796 0.54423 0.37627 0.0
H491 H 0.87512 0.52906 0.40085 0.0
H492 H 0.81077 0.43596 0.31666 0.0
H493 H 0.78372 0.39264 0.3241 0.0
H494 H 0.82716 0.40785 0.31727 0.0
H495 H 0.83538 0.3866 0.3675 0.0
H496 H 0.79163 0.37088 0.37444 0.0
H497 H 0.82382 0.39932 0.40116 0.0
H498 H 0.81479 0.50791 0.40969 0.0
H499 H 0.75307 0.48201 0.40401 0.0
H500 H 0.74671 0.39431 0.36093 0.0
C501 C 0.88236 0.46188 0.35288 0.0
C502 C 0.9097 0.49495 0.35557 0.0
C503 C 0.90752 0.51862 0.37435 0.0
C504 C 0.87752 0.51019 0.38833 0.0
C505 C 0.8502 0.47787 0.38365 0.0
C506 C 0.85259 0.45385 0.36681 0.0
C507 C 0.8185 0.42266 0.36134 0.0
C508 C 0.80953 0.41434 0.32788 0.0
C509 C 0.81727 0.39312 0.37706 0.0
C510 C 0.79615 0.43373 0.37582 0.0
C511 C 0.81499 0.46536 0.38917 0.0
C512 C 0.79983 0.48274 0.40023 0.0
C513 C 0.76477 0.46789 0.39681 0.0
C514 C 0.74517 0.43595 0.3825 0.0
C515 C 0.76101 0.41824 0.37288 0.0
H516 H 0.1265 0.62286 0.40909 0.0
H517 H 0.05987 0.51575 0.39765 0.0
H518 H 0.08708 0.50771 0.44201 0.0
H519 H 0.19901 0.6195 0.42748 0.0
H520 H 0.21646 0.65422 0.45427 0.0
H521 H 0.18894 0.65222 0.42418 0.0
H522 H 0.14953 0.65693 0.46152 0.0
H523 H 0.17719 0.65943 0.49176 0.0
H524 H 0.13327 0.62794 0.49076 0.0
H525 H 0.12479 0.51087 0.48423 0.0
H526 H 0.16811 0.5248 0.52376 0.0
H527 H 0.21212 0.63008 0.50685 0.0
C528 C 0.11728 0.59771 0.41615 0.0
C529 C 0.09092 0.56991 0.39992 0.0
C530 C 0.07954 0.53745 0.40998 0.0
C531 C 0.09506 0.53263 0.435 0.0
C532 C 0.12184 0.56051 0.44971 0.0
C533 C 0.13267 0.59245 0.44086 0.0
C534 C 0.16323 0.61799 0.45946 0.0
C535 C 0.19371 0.6371 0.44019 0.0
C536 C 0.15532 0.64199 0.47692 0.0
C537 C 0.16828 0.59534 0.47988 0.0
C538 C 0.14399 0.56233 0.47392 0.0
C539 C 0.14372 0.53665 0.4893 0.0
C540 C 0.16861 0.5449 0.51169 0.0
C541 C 0.19363 0.57862 0.51855 0.0
C542 C 0.19346 0.60411 0.50218 0.0
H543 H 0.56471 0.08306 0.56879 0.0
H544 H 0.48216 0.10233 0.55819 0.0
H545 H 0.50323 0.14032 0.60282 0.0
H546 H 0.56975 0.08837 0.65249 0.0
H547 H 0.61501 0.10847 0.65369 0.0
H548 H 0.59058 0.07916 0.62358 0.0
H549 H 0.62466 0.12414 0.58624 0.0
H550 H 0.64855 0.15388 0.61617 0.0
H551 H 0.62592 0.16363 0.58878 0.0
H552 H 0.5376 0.18232 0.64325 0.0
H553 H 0.57834 0.2194 0.68275 0.0
H554 H 0.63832 0.17219 0.66875 0.0
C555 C 0.55034 0.09412 0.57679 0.0
C556 C 0.52147 0.08938 0.56058 0.0
C557 C 0.50393 0.10525 0.5708 0.0
C558 C 0.51587 0.12704 0.59593 0.0
C559 C 0.5453 0.13252 0.61068 0.0
C560 C 0.56192 0.11596 0.602 0.0
C561 C 0.59402 0.12785 0.62091 0.0
C562 C 0.59222 0.09926 0.63873 0.0
C563 C 0.62512 0.14329 0.60188 0.0
C564 C 0.59318 0.15416 0.64098 0.0
C565 C 0.56495 0.15655 0.63454 0.0
C566 C 0.55951 0.1803 0.64889 0.0
C567 C 0.58302 0.20152 0.67108 0.0
C568 C 0.6115 0.19869 0.67894 0.0
C569 C 0.61669 0.17483 0.6634 0.0
H570 H 0.44433 0.52476 0.69286 0.0
H571 H 0.5523 0.58974 0.69331 0.0
H572 H 0.5504 0.61793 0.7402 0.0
H573 H 0.42512 0.58383 0.71346 0.0
H574 H 0.39074 0.55815 0.73631 0.0
H575 H 0.40147 0.53924 0.70653 0.0
H576 H 0.40881 0.50105 0.74319 0.0
H577 H 0.39766 0.51956 0.77318 0.0
H578 H 0.43676 0.51937 0.77556 0.0
H579 H 0.53483 0.64461 0.78185 0.0
H580 H 0.50782 0.66567 0.81604 0.0
H581 H 0.40995 0.5821 0.78819 0.0
C582 C 0.46767 0.54417 0.70349 0.0
C583 C 0.49851 0.55504 0.68992 0.0
C584 C 0.52858 0.58088 0.70382 0.0
C585 C 0.52764 0.59699 0.73032 0.0
C586 C 0.49649 0.58648 0.7426 0.0
C587 C 0.46711 0.56025 0.72982 0.0
C588 C 0.43651 0.55566 0.74551 0.0
C589 C 0.41205 0.55947 0.72418 0.0
C590 C 0.4189 0.52191 0.76024 0.0
C591 C 0.45299 0.58428 0.76841 0.0
C592 C 0.48761 0.6016 0.76665 0.0
C593 C 0.50784 0.63078 0.78385 0.0
C594 C 0.49226 0.64263 0.8031 0.0
C595 C 0.45681 0.62534 0.80494 0.0
C596 C 0.43713 0.59551 0.7877 0.0
H597 H 0.92284 0.50423 0.87843 0.0
H598 H 0.98763 0.46762 0.90991 0.0
H599 H 0.96035 0.456 0.95807 0.0
H600 H 0.91583 0.54011 0.95328 0.0
H601 H 0.87247 0.52735 0.94436 0.0
H602 H 0.90212 0.53958 0.91539 0.0
H603 H 0.86347 0.48303 0.88694 0.0
H604 H 0.83404 0.47037 0.91587 0.0
H605 H 0.85162 0.44477 0.90511 0.0
H606 H 0.91774 0.43649 -0.00294 0.0
H607 H 0.86696 0.41623 0.02636 0.0
H608 H 0.83164 0.46816 0.97075 0.0
C609 C 0.93214 0.49509 0.89601 0.0
C610 C 0.95737 0.48701 0.89082 0.0
C611 C 0.96866 0.47443 0.91384 0.0
C612 C 0.95324 0.4677 0.94116 0.0
C613 C 0.92718 0.47441 0.94513 0.0
C614 C 0.91728 0.48862 0.92341 0.0
C615 C 0.88641 0.49012 0.9318 0.0
C616 C 0.89472 0.52645 0.9365 0.0
C617 C 0.85718 0.47092 0.90856 0.0
C618 C 0.87926 0.47273 0.96077 0.0
C619 C 0.90319 0.46409 0.96825 0.0
C620 C 0.89943 0.44402 -0.00803 0.0
C621 C 0.8704 0.43234 0.00828 0.0
C622 C 0.84576 0.44098 0.00085 0.0
C623 C 0.85067 0.46203 0.9773 0.0
H624 H 0.50811 0.93283 0.0653 0.0
H625 H 0.43531 0.96562 0.0568 0.0
H626 H 0.4095 0.9375 0.10292 0.0
H627 H 0.45396 0.85479 0.08276 0.0
H628 H 0.48156 0.84977 0.10854 0.0
H629 H 0.49894 0.87894 0.07981 0.0
H630 H 0.53463 0.92668 0.11902 0.0
H631 H 0.51759 0.89747 0.14803 0.0
H632 H 0.51429 0.93461 0.14918 0.0
H633 H 0.3859 0.89711 0.14422 0.0
H634 H 0.36744 0.84968 0.17703 0.0
H635 H 0.45562 0.84315 0.1564 0.0
C636 C 0.48751 0.93508 0.07387 0.0
C637 C 0.47365 0.95136 0.05797 0.0
C638 C 0.44638 0.95352 0.06916 0.0
C639 C 0.43166 0.93764 0.09524 0.0
C640 C 0.44499 0.9203 0.10976 0.0
C641 C 0.47268 0.91941 0.09961 0.0
C642 C 0.47973 0.89576 0.11649 0.0
C643 C 0.47843 0.8682 0.09566 0.0
C644 C 0.51357 0.91477 0.13424 0.0
C645 C 0.45065 0.882 0.13675 0.0
C646 C 0.43123 0.89686 0.13312 0.0
C647 C 0.40137 0.88587 0.14772 0.0
C648 C 0.39101 0.85883 0.16619 0.0
C649 C 0.41027 0.84289 0.16949 0.0
C650 C 0.44068 0.85514 0.15493 0.0
H651 H 0.58809 0.50828 0.21361 0.0
H652 H 0.48434 0.43304 0.19323 0.0
H653 H 0.48631 0.40093 0.23559 0.0
H654 H 0.61586 0.45553 0.2241 0.0
H655 H 0.64669 0.47891 0.25366 0.0
H656 H 0.63463 0.50023 0.22786 0.0
H657 H 0.6178 0.52623 0.27088 0.0
H658 H 0.63051 0.50551 0.29709 0.0
H659 H 0.58865 0.49955 0.29727 0.0
H660 H 0.5036 0.37222 0.27312 0.0
H661 H 0.53346 0.35066 0.30356 0.0
H662 H 0.62648 0.44463 0.29742 0.0
C663 C 0.56535 0.48589 0.21916 0.0
C664 C 0.53587 0.47327 0.20088 0.0
C665 C 0.50681 0.44332 0.20766 0.0
C666 C 0.50784 0.42496 0.23153 0.0
C667 C 0.53805 0.43721 0.24828 0.0
C668 C 0.56614 0.46734 0.24261 0.0
C669 C 0.59687 0.47289 0.26055 0.0
C670 C 0.62514 0.47711 0.24033 0.0
C671 C 0.60917 0.50282 0.28277 0.0
C672 C 0.58221 0.4405 0.27621 0.0
C673 C 0.54815 0.42043 0.26936 0.0
C674 C 0.53006 0.38807 0.27918 0.0
C675 C 0.54727 0.37597 0.2963 0.0
C676 C 0.58226 0.39609 0.3031 0.0
C677 C 0.59964 0.42887 0.2932 0.0
H678 H 0.42008 0.90042 0.41275 0.0
H679 H 0.52809 0.96752 0.41755 0.0
H680 H 0.53236 0.9426 0.36975 0.0
H681 H 0.42143 0.82927 0.38482 0.0
H682 H 0.38412 0.81416 0.36099 0.0
H683 H 0.38926 0.83887 0.39425 0.0
H684 H 0.38129 0.88104 0.36353 0.0
H685 H 0.37568 0.85623 0.3302 0.0
H686 H 0.40755 0.89975 0.33273 0.0
H687 H 0.5249 0.90793 0.32335 0.0
H688 H 0.5065 0.8693 0.27955 0.0
H689 H 0.40291 0.82404 0.30557 0.0
C690 C 0.44464 0.91004 0.40364 0.0
C691 C 0.47385 0.93579 0.41883 0.0
C692 C 0.50544 0.948 0.4061 0.0
C693 C 0.50808 0.93383 0.37913 0.0
C694 C 0.47884 0.9077 0.36526 0.0
C695 C 0.44768 0.89619 0.37692 0.0
C696 C 0.42019 0.86745 0.35802 0.0
C697 C 0.40273 0.83555 0.37557 0.0
C698 C 0.39468 0.87668 0.34537 0.0
C699 C 0.44077 0.86428 0.33393 0.0
C700 C 0.47452 0.88774 0.33855 0.0
C701 C 0.49853 0.88963 0.31942 0.0
C702 C 0.48773 0.86744 0.29459 0.0
C703 C 0.45315 0.84356 0.28898 0.0
C704 C 0.42948 0.84182 0.30922 0.0
H705 H 0.57157 0.48717 0.53909 0.0
H706 H 0.49847 0.38619 0.56022 0.0
H707 H 0.51029 0.36458 0.51428 0.0
H708 H 0.55572 0.4745 0.45641 0.0
H709 H 0.59969 0.50123 0.44993 0.0
H710 H 0.58186 0.50891 0.48218 0.0
H711 H 0.62712 0.50631 0.51557 0.0
H712 H 0.64464 0.49791 0.48356 0.0
H713 H 0.63112 0.46957 0.51339 0.0
H714 H 0.53555 0.35341 0.47036 0.0
H715 H 0.56808 0.35381 0.42758 0.0
H716 H 0.62427 0.46212 0.43428 0.0
C717 C 0.5572 0.46069 0.53334 0.0
C718 C 0.53392 0.43828 0.55286 0.0
C719 C 0.51622 0.40365 0.54527 0.0
C720 C 0.52284 0.39118 0.51934 0.0
C721 C 0.54704 0.41372 0.50114 0.0
C722 C 0.56353 0.44779 0.50745 0.0
C723 C 0.58992 0.46634 0.48513 0.0
C724 C 0.58127 0.48908 0.46735 0.0
C725 C 0.62528 0.48619 0.50033 0.0
C726 C 0.58626 0.43734 0.46587 0.0
C727 C 0.56139 0.40722 0.47548 0.0
C728 C 0.5547 0.37687 0.46226 0.0
C729 C 0.57351 0.37734 0.43815 0.0
C730 C 0.59859 0.40797 0.42747 0.0
C731 C 0.60502 0.43828 0.4417 0.0
H732 H 0.13383 0.60875 0.76036 0.0
H733 H 0.06624 0.50572 0.73149 0.0
H734 H 0.09339 0.51601 0.68341 0.0
H735 H 0.14334 0.64547 0.68382 0.0
H736 H 0.18704 0.67505 0.69281 0.0
H737 H 0.15696 0.66163 0.72147 0.0
H738 H 0.19351 0.64388 0.75188 0.0
H739 H 0.22321 0.65633 0.72317 0.0
H740 H 0.20359 0.61426 0.73548 0.0
H741 H 0.13602 0.53355 0.64484 0.0
H742 H 0.18644 0.55944 0.61498 0.0
H743 H 0.22546 0.65175 0.66783 0.0
C744 C 0.12383 0.58887 0.7433 0.0
C745 C 0.09791 0.55658 0.7493 0.0
C746 C 0.08572 0.53077 0.72695 0.0
C747 C 0.10111 0.53637 0.69969 0.0
C748 C 0.1281 0.56805 0.6951 0.0
C749 C 0.13878 0.59415 0.71598 0.0
C750 C 0.17063 0.62467 0.70717 0.0
C751 C 0.16409 0.6534 0.70094 0.0
C752 C 0.1994 0.63537 0.73082 0.0
C753 C 0.1773 0.61106 0.679 0.0
C754 C 0.15238 0.57844 0.67228 0.0
C755 C 0.15518 0.55936 0.64935 0.0
C756 C 0.18409 0.57407 0.6328 0.0
C757 C 0.2096 0.60748 0.63924 0.0
C758 C 0.20588 0.62631 0.66224 0.0
H759 H 0.61113 0.11749 0.91855 0.0
H760 H 0.50271 0.07155 0.90999 0.0
H761 H 0.50765 0.09739 0.86167 0.0
H762 H 0.62991 0.19267 0.89483 0.0
H763 H 0.66645 0.20076 0.87479 0.0
H764 H 0.65406 0.17325 0.90502 0.0
H765 H 0.65106 0.12614 0.87055 0.0
H766 H 0.6638 0.15369 0.84011 0.0
H767 H 0.62554 0.11382 0.83653 0.0
H768 H 0.52523 0.13717 0.82055 0.0
H769 H 0.55371 0.18472 0.78806 0.0
H770 H 0.65066 0.20272 0.82236 0.0
C771 C 0.58844 0.11204 0.90592 0.0
C772 C 0.55657 0.09259 0.91764 0.0
C773 C 0.52729 0.08614 0.90099 0.0
C774 C 0.52991 0.1007 0.87362 0.0
C775 C 0.56192 0.12095 0.86315 0.0
C776 C 0.59065 0.12606 0.87855 0.0
C777 C 0.62217 0.15151 0.86428 0.0
C778 C 0.64442 0.18129 0.88602 0.0
C779 C 0.64179 0.13531 0.85214 0.0
C780 C 0.6068 0.16142 0.83942 0.0
C781 C 0.57202 0.14326 0.83886 0.0
C782 C 0.5524 0.15087 0.82018 0.0
C783 C 0.56877 0.178 0.80195 0.0
C784 C 0.60432 0.19703 0.80254 0.0
C785 C 0.62345 0.18803 0.82095 0.0
H786 H 0.45919 0.53425 0.04696 0.0
H787 H 0.53251 0.6355 0.07679 0.0
H788 H 0.52427 0.65614 0.0293 0.0
H789 H 0.47997 0.54365 0.96692 0.0
H790 H 0.43651 0.5178 0.95449 0.0
H791 H 0.45129 0.51042 0.98926 0.0
H792 H 0.40509 0.51596 0.01607 0.0
H793 H 0.39045 0.52378 0.98152 0.0
H794 H 0.40266 0.55336 0.01259 0.0
H795 H 0.50364 0.66667 0.98198 0.0
H796 H 0.47442 0.66631 0.93534 0.0
H797 H 0.41447 0.55821 0.93496 0.0
C798 C 0.47417 0.56057 0.04296 0.0
C799 C 0.49668 0.58337 0.06522 0.0
C800 C 0.5153 0.61777 0.05978 0.0
C801 C 0.51079 0.62968 0.03294 0.0
C802 C 0.48763 0.60682 0.01174 0.0
C803 C 0.46986 0.57295 0.01618 0.0
C804 C 0.44493 0.55418 0.99041 0.0
C805 C 0.45371 0.53009 0.97431 0.0
C806 C 0.40864 0.53575 0.00078 0.0
C807 C 0.45093 0.58289 0.97128 0.0
C808 C 0.47576 0.61298 0.98401 0.0
C809 C 0.4845 0.64324 0.9715 0.0
C810 C 0.46759 0.64278 0.9451 0.0
C811 C 0.44225 0.61224 0.93139 0.0
C812 C 0.43399 0.58193 0.94469 0.0
H813 H 0.92663 0.4508 0.25048 0.0
H814 H 0.94999 0.55338 0.24668 0.0
H815 H 0.91715 0.53979 0.19887 0.0
H816 H 0.92996 0.43699 0.16903 0.0
H817 H 0.89599 0.39443 0.16941 0.0
H818 H 0.92391 0.41341 0.20168 0.0
H819 H 0.87244 0.39856 0.2333 0.0
H820 H 0.84442 0.38039 0.20103 0.0
H821 H 0.8441 0.41324 0.22302 0.0
H822 H 0.87527 0.51302 0.15547 0.0
H823 H 0.83626 0.47754 0.11403 0.0
H824 H 0.84339 0.3932 0.14425 0.0
C825 C 0.92583 0.47056 0.23889 0.0
C826 C 0.94125 0.50325 0.25169 0.0
C827 C 0.93895 0.52842 0.23665 0.0
C828 C 0.92007 0.52082 0.20973 0.0
C829 C 0.90409 0.48802 0.19813 0.0
C830 C 0.90758 0.4635 0.21177 0.0
C831 C 0.88741 0.43013 0.19492 0.0
C832 C 0.91071 0.41804 0.18305 0.0
C833 C 0.86051 0.40405 0.21423 0.0
C834 C 0.87153 0.43955 0.17 0.0
C835 C 0.88107 0.47295 0.17249 0.0
C836 C 0.8681 0.48697 0.153 0.0
C837 C 0.84567 0.46658 0.12976 0.0
C838 C 0.83693 0.43273 0.12599 0.0
C839 C 0.84984 0.41907 0.14656 0.0
loop_
_geom_bond_atom_site_label_1
_geom_bond_atom_site_label_2
_geom_bond_distance
_geom_bond_site_symmetry_2
_ccdc_geom_bond_type
H0 C6 0.930 . S
H1 C9 0.931 . S
H2 C11 0.931 . S
H3 C13 0.930 . S
H4 C15 0.930 . S
H5 C17 0.931 . S
C6 H0 0.930 . S
C6 C7 1.380 . S
C6 C8 1.394 . S
C7 C6 1.380 . S
C7 C11 1.382 . S
C8 C6 1.394 . S
C8 C9 1.400 . S
C9 H1 0.931 . S
C9 C8 1.400 . S
C9 C10 1.375 . S
C10 C9 1.375 . S
C10 C11 1.415 . S
C10 C12 1.501 1_455 S
C11 H2 0.931 . S
C11 C7 1.382 . S
C11 C10 1.415 . S
C12 C10 1.501 1_655 S
C12 C13 1.384 . S
C12 C17 1.408 . S
C13 H3 0.930 . S
C13 C12 1.384 . S
C13 C14 1.389 . S
C14 C13 1.389 . S
C14 C15 1.405 . S
C15 H4 0.930 . S
C15 C14 1.405 . S
C15 C16 1.364 . S
C16 C15 1.364 . S
C16 C17 1.400 . S
C17 H5 0.931 . S
C17 C12 1.408 . S
C17 C16 1.400 . S
H18 C24 0.930 . S
H19 C27 0.931 . S
H20 C29 0.931 . S
H21 C31 0.930 . S
H22 C33 0.930 . S
H23 C35 0.942 . S
C24 H18 0.930 . S
C24 C25 1.380 . S
C24 C26 1.394 . S
C25 C24 1.380 . S
C25 C29 1.382 . S
C26 C24 1.394 . S
C26 C27 1.400 . S
C27 H19 0.931 . S
C27 C26 1.400 . S
C27 C28 1.375 . S
C28 C27 1.375 . S
C28 C29 1.415 . S
C28 C30 1.501 1_545 S
C29 H20 0.931 . S
C29 C25 1.382 . S
C29 C28 1.415 . S
C30 C28 1.501 1_565 S
C30 C31 1.384 . S
C30 C35 1.408 . S
C31 H21 0.930 . S
C31 C30 1.384 . S
C31 C32 1.389 . S
C32 C31 1.389 . S
C32 C33 1.405 . S
C33 H22 0.930 . S
C33 C32 1.405 . S
C33 C34 1.364 . S
C34 C33 1.364 . S
C34 C35 1.400 . S
C35 H23 0.942 . S
C35 C30 1.408 . S
C35 C34 1.400 . S
H36 C42 0.930 . S
H37 C45 0.931 . S
H38 C47 0.931 . S
H39 C49 0.930 . S
H40 C51 0.930 . S
H41 C53 0.931 . S
C42 H36 0.930 . S
C42 C43 1.380 . S
C42 C44 1.394 . S
C43 C42 1.380 . S
C43 C47 1.382 . S
C44 C42 1.394 . S
C44 C45 1.400 . S
C45 H37 0.931 . S
C45 C44 1.400 . S
C45 C46 1.375 . S
C46 C45 1.375 . S
C46 C47 1.415 . S
C46 C48 1.501 . S
C47 H38 0.931 . S
C47 C43 1.382 . S
C47 C46 1.415 . S
C48 C46 1.501 . S
C48 C49 1.384 . S
C48 C53 1.408 . S
C49 H39 0.930 . S
C49 C48 1.384 . S
C49 C50 1.389 . S
C50 C49 1.389 . S
C50 C51 1.405 . S
C51 H40 0.930 . S
C51 C50 1.405 . S
C51 C52 1.364 . S
C52 C51 1.364 . S
C52 C53 1.400 . S
C53 H41 0.931 . S
C53 C48 1.408 . S
C53 C52 1.400 . S
H54 C60 0.930 . S
H55 C63 0.931 . S
H56 C65 0.931 . S
H57 C67 0.930 . S
H58 C69 0.930 . S
H59 C71 0.934 . S
C60 H54 0.930 . S
C60 C61 1.380 . S
C60 C62 1.394 . S
C61 C60 1.380 . S
C61 C65 1.382 . S
C62 C60 1.394 . S
C62 C63 1.400 . S
C63 H55 0.931 . S
C63 C62 1.400 . S
C63 C64 1.375 . S
C64 C63 1.375 . S
C64 C65 1.415 . S
C64 C66 1.501 1_455 S
C65 H56 0.931 . S
C65 C61 1.382 . S
C65 C64 1.415 . S
C66 C64 1.501 1_655 S
C66 C67 1.384 . S
C66 C71 1.408 . S
C67 H57 0.930 . S
C67 C66 1.384 . S
C67 C68 1.389 . S
C68 C67 1.389 . S
C68 C69 1.405 . S
C69 H58 0.930 . S
C69 C68 1.405 . S
C69 C70 1.364 . S
C70 C69 1.364 . S
C70 C71 1.400 . S
C71 H59 0.934 . S
C71 C66 1.408 . S
C71 C70 1.400 . S
H72 C78 0.930 . S
H73 C81 0.931 . S
H74 C83 0.931 1_545 S
H75 C85 0.930 . S
H76 C87 0.930 . S
H77 C89 0.931 . S
C78 H72 0.930 . S
C78 C79 1.380 . S
C78 C80 1.394 1_554 S
C79 C78 1.380 . S
C79 C83 1.382 . S
C80 C78 1.394 1_556 S
C80 C81 1.400 . S
C81 H73 0.931 . S
C81 C80 1.400 . S
C81 C82 1.375 . S
C82 C81 1.375 . S
C82 C83 1.415 1_556 S
C82 C84 1.501 1_565 S
C83 H74 0.931 1_565 S
C83 C79 1.382 . S
C83 C82 1.415 1_554 S
C84 C82 1.501 1_545 S
C84 C85 1.384 1_556 S
C84 C89 1.408 . S
C85 H75 0.930 . S
C85 C84 1.384 1_554 S
C85 C86 1.389 1_554 S
C86 C85 1.389 1_556 S
C86 C87 1.405 . S
C87 H76 0.930 . S
C87 C86 1.405 . S
C87 C88 1.364 . S
C88 C87 1.364 . S
C88 C89 1.400 . S
C89 H77 0.931 . S
C89 C84 1.408 . S
C89 C88 1.400 . S
H90 C96 0.930 . S
H91 C99 0.931 . S
H92 C101 0.931 . S
H93 C103 0.930 . S
H94 C105 0.930 . S
H95 C107 0.931 . S
C96 H90 0.930 . S
C96 C97 1.380 . S
C96 C98 1.394 . S
C97 C96 1.380 . S
C97 C101 1.382 . S
C98 C96 1.394 . S
C98 C99 1.400 . S
C99 H91 0.931 . S
C99 C98 1.400 . S
C99 C100 1.375 . S
C100 C99 1.375 . S
C100 C101 1.415 . S
C100 C102 1.501 . S
C101 H92 0.931 . S
C101 C97 1.382 . S
C101 C100 1.415 . S
C102 C100 1.501 . S
C102 C103 1.384 . S
C102 C107 1.408 . S
C103 H93 0.930 . S
C103 C102 1.384 . S
C103 C104 1.389 . S
C104 C103 1.389 . S
C104 C105 1.405 . S
C105 H94 0.930 . S
C105 C104 1.405 . S
C105 C106 1.364 . S
C106 C105 1.364 . S
C106 C107 1.400 . S
C107 H95 0.931 . S
C107 C102 1.408 . S
C107 C106 1.400 . S
Mg108 O109 2.028 . S
Mg108 O115 1.986 . S
Mg108 O117 2.114 . S
Mg108 O118 2.251 . S
Mg108 O121 2.010 . S
O109 Mg108 2.028 . S
O109 C112 1.250 . S
O110 Mg111 2.028 . S
O110 C112 1.248 . S
Mg111 O110 2.028 . S
Mg111 O116 2.032 . S
Mg111 O118 2.079 . S
C112 O109 1.250 . S
C112 O110 1.248 . S
C113 O114 1.264 . S
C113 O121 1.249 . S
O114 C113 1.264 . S
O115 Mg108 1.986 . S
O115 C119 1.246 . S
O116 Mg111 2.032 . S
O116 C119 1.259 . S
O117 Mg108 2.114 . S
O117 C120 1.252 . S
O118 Mg108 2.251 . S
O118 Mg111 2.079 . S
O118 C120 1.273 . S
C119 O115 1.246 . S
C119 O116 1.259 . S
C120 O117 1.252 . S
C120 O118 1.273 . S
O121 Mg108 2.010 . S
O121 C113 1.249 . S
Mg122 O123 2.028 . S
Mg122 O129 1.986 . S
Mg122 O131 2.114 . S
Mg122 O132 2.251 . S
Mg122 O135 2.010 . S
O123 Mg122 2.028 . S
O123 C126 1.250 . S
O124 Mg125 2.028 . S
O124 C126 1.248 . S
Mg125 O124 2.028 . S
Mg125 O130 2.032 . S
Mg125 O132 2.079 . S
C126 O123 1.250 . S
C126 O124 1.248 . S
C127 O128 1.264 . S
C127 O135 1.249 . S
O128 C127 1.264 . S
O129 Mg122 1.986 . S
O129 C133 1.246 . S
O130 Mg125 2.032 . S
O130 C133 1.259 . S
O131 Mg122 2.114 . S
O131 C134 1.252 . S
O132 Mg122 2.251 . S
O132 Mg125 2.079 . S
O132 C134 1.273 . S
C133 O129 1.246 . S
C133 O130 1.259 . S
C134 O131 1.252 . S
C134 O132 1.273 . S
O135 Mg122 2.010 . S
O135 C127 1.249 . S
Mg136 O137 2.028 . S
Mg136 O143 1.986 . S
Mg136 O145 2.114 . S
Mg136 O146 2.251 . S
Mg136 O149 2.010 . S
O137 Mg136 2.028 . S
O137 C140 1.250 . S
O138 Mg139 2.028 . S
O138 C140 1.248 . S
Mg139 O138 2.028 . S
Mg139 O144 2.032 . S
Mg139 O146 2.079 . S
C140 O137 1.250 . S
C140 O138 1.248 . S
C141 O142 1.264 . S
C141 O149 1.249 . S
O142 C141 1.264 . S
O143 Mg136 1.986 . S
O143 C147 1.246 . S
O144 Mg139 2.032 . S
O144 C147 1.259 . S
O145 Mg136 2.114 . S
O145 C148 1.252 . S
O146 Mg136 2.251 . S
O146 Mg139 2.079 . S
O146 C148 1.273 . S
C147 O143 1.246 . S
C147 O144 1.259 . S
C148 O145 1.252 . S
C148 O146 1.273 . S
O149 Mg136 2.010 . S
O149 C141 1.249 . S
Mg150 O151 2.028 . S
Mg150 O157 1.986 . S
Mg150 O159 2.114 . S
Mg150 O160 2.251 . S
Mg150 O163 2.010 . S
O151 Mg150 2.028 . S
O151 C154 1.250 . S
O152 Mg153 2.028 . S
O152 C154 1.248 . S
Mg153 O152 2.028 . S
Mg153 O158 2.032 . S
Mg153 O160 2.079 . S
C154 O151 1.250 . S
C154 O152 1.248 . S
C155 O156 1.264 . S
C155 O163 1.249 . S
O156 C155 1.264 . S
O157 Mg150 1.986 . S
O157 C161 1.246 . S
O158 Mg153 2.032 . S
O158 C161 1.259 . S
O159 Mg150 2.114 . S
O159 C162 1.252 . S
O160 Mg150 2.251 . S
O160 Mg153 2.079 . S
O160 C162 1.273 . S
C161 O157 1.246 . S
C161 O158 1.259 . S
C162 O159 1.252 . S
C162 O160 1.273 . S
O163 Mg150 2.010 . S
O163 C155 1.249 . S
Mg164 O165 2.028 . S
Mg164 O171 1.986 . S
Mg164 O173 2.114 . S
Mg164 O174 2.251 . S
Mg164 O177 2.010 . S
O165 Mg164 2.028 . S
O165 C168 1.250 . S
O166 Mg167 2.028 . S
O166 C168 1.248 . S
Mg167 O166 2.028 . S
Mg167 O172 2.032 . S
Mg167 O174 2.079 . S
C168 O165 1.250 . S
C168 O166 1.248 . S
C169 O170 1.264 . S
C169 O177 1.249 . S
O170 C169 1.264 . S
O171 Mg164 1.986 . S
O171 C175 1.246 . S
O172 Mg167 2.032 . S
O172 C175 1.259 . S
O173 Mg164 2.114 . S
O173 C176 1.252 . S
O174 Mg164 2.251 . S
O174 Mg167 2.079 . S
O174 C176 1.273 . S
C175 O171 1.246 . S
C175 O172 1.259 . S
C176 O173 1.252 . S
C176 O174 1.273 . S
O177 Mg164 2.010 . S
O177 C169 1.249 . S
Mg178 O179 2.028 . S
Mg178 O185 1.986 . S
Mg178 O187 2.114 . S
Mg178 O188 2.251 . S
Mg178 O191 2.010 . S
O179 Mg178 2.028 . S
O179 C182 1.250 . S
O180 Mg181 2.028 . S
O180 C182 1.248 . S
Mg181 O180 2.028 . S
Mg181 O186 2.032 . S
Mg181 O188 2.079 . S
C182 O179 1.250 . S
C182 O180 1.248 . S
C183 O184 1.264 . S
C183 O191 1.249 . S
O184 C183 1.264 . S
O185 Mg178 1.986 . S
O185 C189 1.246 . S
O186 Mg181 2.032 . S
O186 C189 1.259 . S
O187 Mg178 2.114 . S
O187 C190 1.252 . S
O188 Mg178 2.251 . S
O188 Mg181 2.079 . S
O188 C190 1.273 . S
C189 O185 1.246 . S
C189 O186 1.259 . S
C190 O187 1.252 . S
C190 O188 1.273 . S
O191 Mg178 2.010 . S
O191 C183 1.249 . S
H192 C204 0.930 . S
H193 C206 0.930 . S
H194 C207 0.930 . S
H195 C211 0.959 . S
H196 C211 0.959 . S
H197 C211 0.961 . S
H198 C212 0.960 . S
H199 C212 0.961 . S
H200 C212 0.959 . S
H201 C215 0.929 . S
H202 C216 0.931 . S
H203 C218 0.930 . S
C204 H192 0.930 . S
C204 C205 1.399 . S
C204 C209 1.399 . S
C205 C204 1.399 . S
C205 C206 1.376 . S
C206 H193 0.930 . S
C206 C205 1.376 . S
C206 C207 1.388 . S
C207 H194 0.930 . S
C207 C206 1.388 . S
C207 C208 1.390 . S
C208 C207 1.390 . S
C208 C209 1.394 . S
C208 C214 1.465 . S
C209 C204 1.399 . S
C209 C208 1.394 . S
C209 C210 1.516 . S
C210 C209 1.516 . S
C210 C211 1.502 . S
C210 C212 1.561 . S
C210 C213 1.526 . S
C211 H195 0.959 . S
C211 H196 0.959 . S
C211 H197 0.961 . S
C211 C210 1.502 . S
C212 H198 0.960 . S
C212 H199 0.961 . S
C212 H200 0.959 . S
C212 C210 1.561 . S
C213 C210 1.526 . S
C213 C214 1.396 . S
C213 C218 1.390 . S
C214 C208 1.465 . S
C214 C213 1.396 . S
C214 C215 1.399 . S
C215 H201 0.929 . S
C215 C214 1.399 . S
C215 C216 1.385 . S
C216 H202 0.931 . S
C216 C215 1.385 . S
C216 C217 1.389 . S
C217 C216 1.389 . S
C217 C218 1.387 . S
C218 H203 0.930 . S
C218 C213 1.390 . S
C218 C217 1.387 . S
H219 C231 0.930 . S
H220 C233 0.930 . S
H221 C234 0.930 . S
H222 C238 0.959 . S
H223 C238 0.959 . S
H224 C238 0.961 . S
H225 C239 0.960 . S
H226 C239 0.961 . S
H227 C239 0.959 . S
H228 C242 0.929 . S
H229 C243 0.931 . S
H230 C245 0.930 . S
C231 H219 0.930 . S
C231 C232 1.399 . S
C231 C236 1.399 . S
C232 C231 1.399 . S
C232 C233 1.376 . S
C233 H220 0.930 . S
C233 C232 1.376 . S
C233 C234 1.388 . S
C234 H221 0.930 . S
C234 C233 1.388 . S
C234 C235 1.390 . S
C235 C234 1.390 . S
C235 C236 1.394 . S
C235 C241 1.465 . S
C236 C231 1.399 . S
C236 C235 1.394 . S
C236 C237 1.516 . S
C237 C236 1.516 . S
C237 C238 1.502 . S
C237 C239 1.561 . S
C237 C240 1.526 . S
C238 H222 0.959 . S
C238 H223 0.959 . S
C238 H224 0.961 . S
C238 C237 1.502 . S
C239 H225 0.960 . S
C239 H226 0.961 . S
C239 H227 0.959 . S
C239 C237 1.561 . S
C240 C237 1.526 . S
C240 C241 1.396 . S
C240 C245 1.390 . S
C241 C235 1.465 . S
C241 C240 1.396 . S
C241 C242 1.399 . S
C242 H228 0.929 . S
C242 C241 1.399 . S
C242 C243 1.385 . S
C243 H229 0.931 . S
C243 C242 1.385 . S
C243 C244 1.389 . S
C244 C243 1.389 . S
C244 C245 1.387 . S
C245 H230 0.930 . S
C245 C240 1.390 . S
C245 C244 1.387 . S
H246 C258 0.930 . S
H247 C260 0.930 . S
H248 C261 0.930 . S
H249 C265 0.959 . S
H250 C265 0.959 . S
H251 C265 0.961 . S
H252 C266 0.960 . S
H253 C266 0.961 . S
H254 C266 0.959 . S
H255 C269 0.929 . S
H256 C270 0.931 . S
H257 C272 0.930 . S
C258 H246 0.930 . S
C258 C259 1.399 . S
C258 C263 1.399 . S
C259 C258 1.399 . S
C259 C260 1.376 . S
C260 H247 0.930 . S
C260 C259 1.376 . S
C260 C261 1.388 . S
C261 H248 0.930 . S
C261 C260 1.388 . S
C261 C262 1.390 . S
C262 C261 1.390 . S
C262 C263 1.394 . S
C262 C268 1.465 . S
C263 C258 1.399 . S
C263 C262 1.394 . S
C263 C264 1.516 . S
C264 C263 1.516 . S
C264 C265 1.502 . S
C264 C266 1.561 . S
C264 C267 1.526 . S
C265 H249 0.959 . S
C265 H250 0.959 . S
C265 H251 0.961 . S
C265 C264 1.502 . S
C266 H252 0.960 . S
C266 H253 0.961 . S
C266 H254 0.959 . S
C266 C264 1.561 . S
C267 C264 1.526 . S
C267 C268 1.396 . S
C267 C272 1.390 . S
C268 C262 1.465 . S
C268 C267 1.396 . S
C268 C269 1.399 . S
C269 H255 0.929 . S
C269 C268 1.399 . S
C269 C270 1.385 . S
C270 H256 0.931 . S
C270 C269 1.385 . S
C270 C271 1.389 . S
C271 C270 1.389 . S
C271 C272 1.387 . S
C272 H257 0.930 . S
C272 C267 1.390 . S
C272 C271 1.387 . S
H273 C285 0.930 . S
H274 C287 0.930 . S
H275 C288 0.930 . S
H276 C292 0.959 . S
H277 C292 0.959 . S
H278 C292 0.961 . S
H279 C293 0.960 . S
H280 C293 0.961 . S
H281 C293 0.959 . S
H282 C296 0.929 . S
H283 C297 0.931 . S
H284 C299 0.930 . S
C285 H273 0.930 . S
C285 C286 1.399 . S
C285 C290 1.399 . S
C286 C285 1.399 . S
C286 C287 1.376 . S
C287 H274 0.930 . S
C287 C286 1.376 . S
C287 C288 1.388 . S
C288 H275 0.930 . S
C288 C287 1.388 . S
C288 C289 1.390 . S
C289 C288 1.390 . S
C289 C290 1.394 . S
C289 C295 1.465 . S
C290 C285 1.399 . S
C290 C289 1.394 . S
C290 C291 1.516 . S
C291 C290 1.516 . S
C291 C292 1.502 . S
C291 C293 1.561 . S
C291 C294 1.526 . S
C292 H276 0.959 . S
C292 H277 0.959 . S
C292 H278 0.961 . S
C292 C291 1.502 . S
C293 H279 0.960 . S
C293 H280 0.961 . S
C293 H281 0.959 . S
C293 C291 1.561 . S
C294 C291 1.526 . S
C294 C295 1.396 . S
C294 C299 1.390 . S
C295 C289 1.465 . S
C295 C294 1.396 . S
C295 C296 1.399 . S
C296 H282 0.929 . S
C296 C295 1.399 . S
C296 C297 1.385 . S
C297 H283 0.931 . S
C297 C296 1.385 . S
C297 C298 1.389 . S
C298 C297 1.389 . S
C298 C299 1.387 . S
C299 H284 0.930 . S
C299 C294 1.390 . S
C299 C298 1.387 . S
H300 C312 0.930 . S
H301 C314 0.930 . S
H302 C315 0.930 . S
H303 C319 0.959 . S
H304 C319 0.959 . S
H305 C319 0.961 . S
H306 C320 0.960 . S
H307 C320 0.961 . S
H308 C320 0.959 . S
H309 C323 0.929 . S
H310 C324 0.931 . S
H311 C326 0.930 . S
C312 H300 0.930 . S
C312 C313 1.399 . S
C312 C317 1.399 . S
C313 C312 1.399 . S
C313 C314 1.376 . S
C314 H301 0.930 . S
C314 C313 1.376 . S
C314 C315 1.388 . S
C315 H302 0.930 . S
C315 C314 1.388 . S
C315 C316 1.390 . S
C316 C315 1.390 . S
C316 C317 1.394 . S
C316 C322 1.465 . S
C317 C312 1.399 . S
C317 C316 1.394 . S
C317 C318 1.516 . S
C318 C317 1.516 . S
C318 C319 1.502 . S
C318 C320 1.561 . S
C318 C321 1.526 . S
C319 H303 0.959 . S
C319 H304 0.959 . S
C319 H305 0.961 . S
C319 C318 1.502 . S
C320 H306 0.960 . S
C320 H307 0.961 . S
C320 H308 0.959 . S
C320 C318 1.561 . S
C321 C318 1.526 . S
C321 C322 1.396 . S
C321 C326 1.390 . S
C322 C316 1.465 . S
C322 C321 1.396 . S
C322 C323 1.399 . S
C323 H309 0.929 . S
C323 C322 1.399 . S
C323 C324 1.385 . S
C324 H310 0.931 . S
C324 C323 1.385 . S
C324 C325 1.389 . S
C325 C324 1.389 . S
C325 C326 1.387 . S
C326 H311 0.930 . S
C326 C321 1.390 . S
C326 C325 1.387 . S
H327 C339 0.930 . S
H328 C341 0.930 . S
H329 C342 0.930 . S
H330 C346 0.959 . S
H331 C346 0.959 . S
H332 C346 0.961 . S
H333 C347 0.960 . S
H334 C347 0.961 . S
H335 C347 0.959 . S
H336 C350 0.929 . S
H337 C351 0.931 . S
H338 C353 0.930 . S
C339 H327 0.930 . S
C339 C340 1.399 . S
C339 C344 1.399 . S
C340 C339 1.399 . S
C340 C341 1.376 . S
C341 H328 0.930 . S
C341 C340 1.376 . S
C341 C342 1.388 . S
C342 H329 0.930 . S
C342 C341 1.388 . S
C342 C343 1.390 . S
C343 C342 1.390 . S
C343 C344 1.394 . S
C343 C349 1.465 . S
C344 C339 1.399 . S
C344 C343 1.394 . S
C344 C345 1.516 . S
C345 C344 1.516 . S
C345 C346 1.502 . S
C345 C347 1.561 . S
C345 C348 1.526 . S
C346 H330 0.959 . S
C346 H331 0.959 . S
C346 H332 0.961 . S
C346 C345 1.502 . S
C347 H333 0.960 . S
C347 H334 0.961 . S
C347 H335 0.959 . S
C347 C345 1.561 . S
C348 C345 1.526 . S
C348 C349 1.396 . S
C348 C353 1.390 . S
C349 C343 1.465 . S
C349 C348 1.396 . S
C349 C350 1.399 . S
C350 H336 0.929 . S
C350 C349 1.399 . S
C350 C351 1.385 . S
C351 H337 0.931 . S
C351 C350 1.385 . S
C351 C352 1.389 . S
C352 C351 1.389 . S
C352 C353 1.387 . S
C353 H338 0.930 . S
C353 C348 1.390 . S
C353 C352 1.387 . S
H354 C366 0.930 . S
H355 C368 0.930 . S
H356 C369 0.930 . S
H357 C373 0.959 . S
H358 C373 0.959 . S
H359 C373 0.961 . S
H360 C374 0.960 . S
H361 C374 0.961 . S
H362 C374 0.959 . S
H363 C377 0.929 . S
H364 C378 0.931 . S
H365 C380 0.930 . S
C366 H354 0.930 . S
C366 C367 1.399 . S
C366 C371 1.399 . S
C367 C366 1.399 . S
C367 C368 1.376 . S
C368 H355 0.930 . S
C368 C367 1.376 . S
C368 C369 1.388 . S
C369 H356 0.930 . S
C369 C368 1.388 . S
C369 C370 1.390 . S
C370 C369 1.390 . S
C370 C371 1.394 . S
C370 C376 1.465 . S
C371 C366 1.399 . S
C371 C370 1.394 . S
C371 C372 1.516 . S
C372 C371 1.516 . S
C372 C373 1.502 . S
C372 C374 1.561 . S
C372 C375 1.526 . S
C373 H357 0.959 . S
C373 H358 0.959 . S
C373 H359 0.961 . S
C373 C372 1.502 . S
C374 H360 0.960 . S
C374 H361 0.961 . S
C374 H362 0.959 . S
C374 C372 1.561 . S
C375 C372 1.526 . S
C375 C376 1.396 . S
C375 C380 1.390 . S
C376 C370 1.465 . S
C376 C375 1.396 . S
C376 C377 1.399 . S
C377 H363 0.929 . S
C377 C376 1.399 . S
C377 C378 1.385 . S
C378 H364 0.931 . S
C378 C377 1.385 . S
C378 C379 1.389 . S
C379 C378 1.389 . S
C379 C380 1.387 . S
C380 H365 0.930 . S
C380 C375 1.390 . S
C380 C379 1.387 . S
H381 C393 0.930 . S
H382 C395 0.930 . S
H383 C396 0.930 . S
H384 C400 0.959 . S
H385 C400 0.959 . S
H386 C400 0.961 . S
H387 C401 0.960 . S
H388 C401 0.961 . S
H389 C401 0.959 . S
H390 C404 0.929 . S
H391 C405 0.931 . S
H392 C407 0.930 . S
C393 H381 0.930 . S
C393 C394 1.399 . S
C393 C398 1.399 . S
C394 C393 1.399 . S
C394 C395 1.376 . S
C395 H382 0.930 . S
C395 C394 1.376 . S
C395 C396 1.388 . S
C396 H383 0.930 . S
C396 C395 1.388 . S
C396 C397 1.390 . S
C397 C396 1.390 . S
C397 C398 1.394 . S
C397 C403 1.465 . S
C398 C393 1.399 . S
C398 C397 1.394 . S
C398 C399 1.516 . S
C399 C398 1.516 . S
C399 C400 1.502 . S
C399 C401 1.561 . S
C399 C402 1.526 . S
C400 H384 0.959 . S
C400 H385 0.959 . S
C400 H386 0.961 . S
C400 C399 1.502 . S
C401 H387 0.960 . S
C401 H388 0.961 . S
C401 H389 0.959 . S
C401 C399 1.561 . S
C402 C399 1.526 . S
C402 C403 1.396 . S
C402 C407 1.390 . S
C403 C397 1.465 . S
C403 C402 1.396 . S
C403 C404 1.399 . S
C404 H390 0.929 . S
C404 C403 1.399 . S
C404 C405 1.385 . S
C405 H391 0.931 . S
C405 C404 1.385 . S
C405 C406 1.389 . S
C406 C405 1.389 . S
C406 C407 1.387 . S
C407 H392 0.930 . S
C407 C402 1.390 . S
C407 C406 1.387 . S
H408 C420 0.930 . S
H409 C422 0.930 . S
H410 C423 0.930 . S
H411 C427 0.959 . S
H412 C427 0.959 . S
H413 C427 0.961 . S
H414 C428 0.960 . S
H415 C428 0.961 . S
H416 C428 0.959 . S
H417 C431 0.929 . S
H418 C432 0.931 . S
H419 C434 0.930 . S
C420 H408 0.930 . S
C420 C421 1.399 . S
C420 C425 1.399 . S
C421 C420 1.399 . S
C421 C422 1.376 . S
C422 H409 0.930 . S
C422 C421 1.376 . S
C422 C423 1.388 . S
C423 H410 0.930 . S
C423 C422 1.388 . S
C423 C424 1.390 . S
C424 C423 1.390 . S
C424 C425 1.394 . S
C424 C430 1.465 . S
C425 C420 1.399 . S
C425 C424 1.394 . S
C425 C426 1.516 . S
C426 C425 1.516 . S
C426 C427 1.502 . S
C426 C428 1.561 . S
C426 C429 1.526 . S
C427 H411 0.959 . S
C427 H412 0.959 . S
C427 H413 0.961 . S
C427 C426 1.502 . S
C428 H414 0.960 . S
C428 H415 0.961 . S
C428 H416 0.959 . S
C428 C426 1.561 . S
C429 C426 1.526 . S
C429 C430 1.396 . S
C429 C434 1.390 . S
C430 C424 1.465 . S
C430 C429 1.396 . S
C430 C431 1.399 . S
C431 H417 0.929 . S
C431 C430 1.399 . S
C431 C432 1.385 . S
C432 H418 0.931 . S
C432 C431 1.385 . S
C432 C433 1.389 . S
C433 C432 1.389 . S
C433 C434 1.387 . S
C434 H419 0.930 . S
C434 C429 1.390 . S
C434 C433 1.387 . S
H435 C447 0.930 . S
H436 C449 0.930 . S
H437 C450 0.930 . S
H438 C454 0.959 . S
H439 C454 0.959 . S
H440 C454 0.961 . S
H441 C455 0.960 . S
H442 C455 0.961 . S
H443 C455 0.959 . S
H444 C458 0.929 1_556 S
H445 C459 0.931 . S
H446 C461 0.930 . S
C447 H435 0.930 . S
C447 C448 1.399 . S
C447 C452 1.399 . S
C448 C447 1.399 . S
C448 C449 1.376 1_554 S
C449 H436 0.930 . S
C449 C448 1.376 1_556 S
C449 C450 1.388 . S
C450 H437 0.930 . S
C450 C449 1.388 . S
C450 C451 1.390 1_556 S
C451 C450 1.390 1_554 S
C451 C452 1.394 . S
C451 C457 1.465 . S
C452 C447 1.399 . S
C452 C451 1.394 . S
C452 C453 1.516 . S
C453 C452 1.516 . S
C453 C454 1.502 . S
C453 C455 1.561 . S
C453 C456 1.526 . S
C454 H438 0.959 . S
C454 H439 0.959 . S
C454 H440 0.961 . S
C454 C453 1.502 . S
C455 H441 0.960 . S
C455 H442 0.961 . S
C455 H443 0.959 . S
C455 C453 1.561 . S
C456 C453 1.526 . S
C456 C457 1.396 . S
C456 C461 1.390 . S
C457 C451 1.465 . S
C457 C456 1.396 . S
C457 C458 1.399 . S
C458 H444 0.929 1_554 S
C458 C457 1.399 . S
C458 C459 1.385 . S
C459 H445 0.931 . S
C459 C458 1.385 . S
C459 C460 1.389 . S
C460 C459 1.389 . S
C460 C461 1.387 . S
C461 H446 0.930 . S
C461 C456 1.390 . S
C461 C460 1.387 . S
H462 C474 0.930 . S
H463 C476 0.930 . S
H464 C477 0.930 . S
H465 C481 0.959 . S
H466 C481 0.959 . S
H467 C481 0.961 . S
H468 C482 0.960 . S
H469 C482 0.961 . S
H470 C482 0.959 . S
H471 C485 0.929 . S
H472 C486 0.931 . S
H473 C488 0.930 . S
C474 H462 0.930 . S
C474 C475 1.399 . S
C474 C479 1.399 . S
C475 C474 1.399 . S
C475 C476 1.376 . S
C476 H463 0.930 . S
C476 C475 1.376 . S
C476 C477 1.388 . S
C477 H464 0.930 . S
C477 C476 1.388 . S
C477 C478 1.390 . S
C478 C477 1.390 . S
C478 C479 1.394 . S
C478 C484 1.465 . S
C479 C474 1.399 . S
C479 C478 1.394 . S
C479 C480 1.516 . S
C480 C479 1.516 . S
C480 C481 1.502 . S
C480 C482 1.561 . S
C480 C483 1.526 . S
C481 H465 0.959 . S
C481 H466 0.959 . S
C481 H467 0.961 . S
C481 C480 1.502 . S
C482 H468 0.960 . S
C482 H469 0.961 . S
C482 H470 0.959 . S
C482 C480 1.561 . S
C483 C480 1.526 . S
C483 C484 1.396 . S
C483 C488 1.390 . S
C484 C478 1.465 . S
C484 C483 1.396 . S
C484 C485 1.399 . S
C485 H471 0.929 . S
C485 C484 1.399 . S
C485 C486 1.385 . S
C486 H472 0.931 . S
C486 C485 1.385 . S
C486 C487 1.389 . S
C487 C486 1.389 . S
C487 C488 1.387 . S
C488 H473 0.930 . S
C488 C483 1.390 . S
C488 C487 1.387 . S
H489 C501 0.930 . S
H490 C503 0.930 . S
H491 C504 0.930 . S
H492 C508 0.959 . S
H493 C508 0.959 . S
H494 C508 0.961 . S
H495 C509 0.960 . S
H496 C509 0.961 . S
H497 C509 0.959 . S
H498 C512 0.929 . S
H499 C513 0.931 . S
H500 C515 0.930 . S
C501 H489 0.930 . S
C501 C502 1.399 . S
C501 C506 1.399 . S
C502 C501 1.399 . S
C502 C503 1.376 . S
C503 H490 0.930 . S
C503 C502 1.376 . S
C503 C504 1.388 . S
C504 H491 0.930 . S
C504 C503 1.388 . S
C504 C505 1.390 . S
C505 C504 1.390 . S
C505 C506 1.394 . S
C505 C511 1.465 . S
C506 C501 1.399 . S
C506 C505 1.394 . S
C506 C507 1.516 . S
C507 C506 1.516 . S
C507 C508 1.502 . S
C507 C509 1.561 . S
C507 C510 1.526 . S
C508 H492 0.959 . S
C508 H493 0.959 . S
C508 H494 0.961 . S
C508 C507 1.502 . S
C509 H495 0.960 . S
C509 H496 0.961 . S
C509 H497 0.959 . S
C509 C507 1.561 . S
C510 C507 1.526 . S
C510 C511 1.396 . S
C510 C515 1.390 . S
C511 C505 1.465 . S
C511 C510 1.396 . S
C511 C512 1.399 . S
C512 H498 0.929 . S
C512 C511 1.399 . S
C512 C513 1.385 . S
C513 H499 0.931 . S
C513 C512 1.385 . S
C513 C514 1.389 . S
C514 C513 1.389 . S
C514 C515 1.387 . S
C515 H500 0.930 . S
C515 C510 1.390 . S
C515 C514 1.387 . S
H516 C528 0.930 . S
H517 C530 0.930 . S
H518 C531 0.930 . S
H519 C535 0.959 . S
H520 C535 0.959 . S
H521 C535 0.961 . S
H522 C536 0.960 . S
H523 C536 0.961 . S
H524 C536 0.959 . S
H525 C539 0.929 . S
H526 C540 0.931 . S
H527 C542 0.930 . S
C528 H516 0.930 . S
C528 C529 1.399 . S
C528 C533 1.399 . S
C529 C528 1.399 . S
C529 C530 1.376 . S
C530 H517 0.930 . S
C530 C529 1.376 . S
C530 C531 1.388 . S
C531 H518 0.930 . S
C531 C530 1.388 . S
C531 C532 1.390 . S
C532 C531 1.390 . S
C532 C533 1.394 . S
C532 C538 1.465 . S
C533 C528 1.399 . S
C533 C532 1.394 . S
C533 C534 1.516 . S
C534 C533 1.516 . S
C534 C535 1.502 . S
C534 C536 1.561 . S
C534 C537 1.526 . S
C535 H519 0.959 . S
C535 H520 0.959 . S
C535 H521 0.961 . S
C535 C534 1.502 . S
C536 H522 0.960 . S
C536 H523 0.961 . S
C536 H524 0.959 . S
C536 C534 1.561 . S
C537 C534 1.526 . S
C537 C538 1.396 . S
C537 C542 1.390 . S
C538 C532 1.465 . S
C538 C537 1.396 . S
C538 C539 1.399 . S
C539 H525 0.929 . S
C539 C538 1.399 . S
C539 C540 1.385 . S
C540 H526 0.931 . S
C540 C539 1.385 . S
C540 C541 1.389 . S
C541 C540 1.389 . S
C541 C542 1.387 . S
C542 H527 0.930 . S
C542 C537 1.390 . S
C542 C541 1.387 . S
H543 C555 0.930 . S
H544 C557 0.930 . S
H545 C558 0.930 . S
H546 C562 0.959 . S
H547 C562 0.959 . S
H548 C562 0.961 . S
H549 C563 0.960 . S
H550 C563 0.961 . S
H551 C563 0.959 . S
H552 C566 0.929 . S
H553 C567 0.931 . S
H554 C569 0.930 . S
C555 H543 0.930 . S
C555 C556 1.399 . S
C555 C560 1.399 . S
C556 C555 1.399 . S
C556 C557 1.376 . S
C557 H544 0.930 . S
C557 C556 1.376 . S
C557 C558 1.388 . S
C558 H545 0.930 . S
C558 C557 1.388 . S
C558 C559 1.390 . S
C559 C558 1.390 . S
C559 C560 1.394 . S
C559 C565 1.465 . S
C560 C555 1.399 . S
C560 C559 1.394 . S
C560 C561 1.516 . S
C561 C560 1.516 . S
C561 C562 1.502 . S
C561 C563 1.561 . S
C561 C564 1.526 . S
C562 H546 0.959 . S
C562 H547 0.959 . S
C562 H548 0.961 . S
C562 C561 1.502 . S
C563 H549 0.960 . S
C563 H550 0.961 . S
C563 H551 0.959 . S
C563 C561 1.561 . S
C564 C561 1.526 . S
C564 C565 1.396 . S
C564 C569 1.390 . S
C565 C559 1.465 . S
C565 C564 1.396 . S
C565 C566 1.399 . S
C566 H552 0.929 . S
C566 C565 1.399 . S
C566 C567 1.385 . S
C567 H553 0.931 . S
C567 C566 1.385 . S
C567 C568 1.389 . S
C568 C567 1.389 . S
C568 C569 1.387 . S
C569 H554 0.930 . S
C569 C564 1.390 . S
C569 C568 1.387 . S
H570 C582 0.930 . S
H571 C584 0.930 . S
H572 C585 0.930 . S
H573 C589 0.959 . S
H574 C589 0.959 . S
H575 C589 0.961 . S
H576 C590 0.960 . S
H577 C590 0.961 . S
H578 C590 0.959 . S
H579 C593 0.929 . S
H580 C594 0.931 . S
H581 C596 0.930 . S
C582 H570 0.930 . S
C582 C583 1.399 . S
C582 C587 1.399 . S
C583 C582 1.399 . S
C583 C584 1.376 . S
C584 H571 0.930 . S
C584 C583 1.376 . S
C584 C585 1.388 . S
C585 H572 0.930 . S
C585 C584 1.388 . S
C585 C586 1.390 . S
C586 C585 1.390 . S
C586 C587 1.394 . S
C586 C592 1.465 . S
C587 C582 1.399 . S
C587 C586 1.394 . S
C587 C588 1.516 . S
C588 C587 1.516 . S
C588 C589 1.502 . S
C588 C590 1.561 . S
C588 C591 1.526 . S
C589 H573 0.959 . S
C589 H574 0.959 . S
C589 H575 0.961 . S
C589 C588 1.502 . S
C590 H576 0.960 . S
C590 H577 0.961 . S
C590 H578 0.959 . S
C590 C588 1.561 . S
C591 C588 1.526 . S
C591 C592 1.396 . S
C591 C596 1.390 . S
C592 C586 1.465 . S
C592 C591 1.396 . S
C592 C593 1.399 . S
C593 H579 0.929 . S
C593 C592 1.399 . S
C593 C594 1.385 . S
C594 H580 0.931 . S
C594 C593 1.385 . S
C594 C595 1.389 . S
C595 C594 1.389 . S
C595 C596 1.387 . S
C596 H581 0.930 . S
C596 C591 1.390 . S
C596 C595 1.387 . S
H597 C609 0.930 . S
H598 C611 0.930 . S
H599 C612 0.930 . S
H600 C616 0.959 . S
H601 C616 0.959 1_554 S
H602 C616 0.961 . S
H603 C617 0.960 . S
H604 C617 0.961 . S
H605 C617 0.959 . S
H606 C620 0.929 . S
H607 C621 0.931 . S
H608 C623 0.930 1_554 S
C609 H597 0.930 . S
C609 C610 1.399 . S
C609 C614 1.399 . S
C610 C609 1.399 . S
C610 C611 1.376 . S
C611 H598 0.930 . S
C611 C610 1.376 . S
C611 C612 1.388 . S
C612 H599 0.930 . S
C612 C611 1.388 . S
C612 C613 1.390 . S
C613 C612 1.390 . S
C613 C614 1.394 . S
C613 C619 1.465 . S
C614 C609 1.399 . S
C614 C613 1.394 . S
C614 C615 1.516 . S
C615 C614 1.516 . S
C615 C616 1.502 . S
C615 C617 1.561 . S
C615 C618 1.526 . S
C616 H600 0.959 . S
C616 H601 0.959 1_556 S
C616 H602 0.961 . S
C616 C615 1.502 . S
C617 H603 0.960 . S
C617 H604 0.961 . S
C617 H605 0.959 . S
C617 C615 1.561 . S
C618 C615 1.526 . S
C618 C619 1.396 . S
C618 C623 1.390 . S
C619 C613 1.465 . S
C619 C618 1.396 . S
C619 C620 1.399 . S
C620 H606 0.929 . S
C620 C619 1.399 . S
C620 C621 1.385 . S
C621 H607 0.931 . S
C621 C620 1.385 . S
C621 C622 1.389 . S
C622 C621 1.389 . S
C622 C623 1.387 . S
C623 H608 0.930 1_556 S
C623 C618 1.390 . S
C623 C622 1.387 . S
H624 C636 0.930 . S
H625 C638 0.930 . S
H626 C639 0.930 . S
H627 C643 0.959 . S
H628 C643 0.959 . S
H629 C643 0.961 . S
H630 C644 0.960 . S
H631 C644 0.961 . S
H632 C644 0.959 . S
H633 C647 0.929 . S
H634 C648 0.931 . S
H635 C650 0.930 . S
C636 H624 0.930 . S
C636 C637 1.399 . S
C636 C641 1.399 . S
C637 C636 1.399 . S
C637 C638 1.376 . S
C638 H625 0.930 . S
C638 C637 1.376 . S
C638 C639 1.388 . S
C639 H626 0.930 . S
C639 C638 1.388 . S
C639 C640 1.390 . S
C640 C639 1.390 . S
C640 C641 1.394 . S
C640 C646 1.465 . S
C641 C636 1.399 . S
C641 C640 1.394 . S
C641 C642 1.516 . S
C642 C641 1.516 . S
C642 C643 1.502 . S
C642 C644 1.561 . S
C642 C645 1.526 . S
C643 H627 0.959 . S
C643 H628 0.959 . S
C643 H629 0.961 . S
C643 C642 1.502 . S
C644 H630 0.960 . S
C644 H631 0.961 . S
C644 H632 0.959 . S
C644 C642 1.561 . S
C645 C642 1.526 . S
C645 C646 1.396 . S
C645 C650 1.390 . S
C646 C640 1.465 . S
C646 C645 1.396 . S
C646 C647 1.399 . S
C647 H633 0.929 . S
C647 C646 1.399 . S
C647 C648 1.385 . S
C648 H634 0.931 . S
C648 C647 1.385 . S
C648 C649 1.389 . S
C649 C648 1.389 . S
C649 C650 1.387 . S
C650 H635 0.930 . S
C650 C645 1.390 . S
C650 C649 1.387 . S
H651 C663 0.930 . S
H652 C665 0.930 . S
H653 C666 0.930 . S
H654 C670 0.959 . S
H655 C670 0.959 . S
H656 C670 0.961 . S
H657 C671 0.960 . S
H658 C671 0.961 . S
H659 C671 0.959 . S
H660 C674 0.929 . S
H661 C675 0.931 . S
H662 C677 0.930 . S
C663 H651 0.930 . S
C663 C664 1.399 . S
C663 C668 1.399 . S
C664 C663 1.399 . S
C664 C665 1.376 . S
C665 H652 0.930 . S
C665 C664 1.376 . S
C665 C666 1.388 . S
C666 H653 0.930 . S
C666 C665 1.388 . S
C666 C667 1.390 . S
C667 C666 1.390 . S
C667 C668 1.394 . S
C667 C673 1.465 . S
C668 C663 1.399 . S
C668 C667 1.394 . S
C668 C669 1.516 . S
C669 C668 1.516 . S
C669 C670 1.502 . S
C669 C671 1.561 . S
C669 C672 1.526 . S
C670 H654 0.959 . S
C670 H655 0.959 . S
C670 H656 0.961 . S
C670 C669 1.502 . S
C671 H657 0.960 . S
C671 H658 0.961 . S
C671 H659 0.959 . S
C671 C669 1.561 . S
C672 C669 1.526 . S
C672 C673 1.396 . S
C672 C677 1.390 . S
C673 C667 1.465 . S
C673 C672 1.396 . S
C673 C674 1.399 . S
C674 H660 0.929 . S
C674 C673 1.399 . S
C674 C675 1.385 . S
C675 H661 0.931 . S
C675 C674 1.385 . S
C675 C676 1.389 . S
C676 C675 1.389 . S
C676 C677 1.387 . S
C677 H662 0.930 . S
C677 C672 1.390 . S
C677 C676 1.387 . S
H678 C690 0.930 . S
H679 C692 0.930 . S
H680 C693 0.930 . S
H681 C697 0.959 . S
H682 C697 0.959 . S
H683 C697 0.961 . S
H684 C698 0.960 . S
H685 C698 0.961 . S
H686 C698 0.959 . S
H687 C701 0.929 . S
H688 C702 0.931 . S
H689 C704 0.930 . S
C690 H678 0.930 . S
C690 C691 1.399 . S
C690 C695 1.399 . S
C691 C690 1.399 . S
C691 C692 1.376 . S
C692 H679 0.930 . S
C692 C691 1.376 . S
C692 C693 1.388 . S
C693 H680 0.930 . S
C693 C692 1.388 . S
C693 C694 1.390 . S
C694 C693 1.390 . S
C694 C695 1.394 . S
C694 C700 1.465 . S
C695 C690 1.399 . S
C695 C694 1.394 . S
C695 C696 1.516 . S
C696 C695 1.516 . S
C696 C697 1.502 . S
C696 C698 1.561 . S
C696 C699 1.526 . S
C697 H681 0.959 . S
C697 H682 0.959 . S
C697 H683 0.961 . S
C697 C696 1.502 . S
C698 H684 0.960 . S
C698 H685 0.961 . S
C698 H686 0.959 . S
C698 C696 1.561 . S
C699 C696 1.526 . S
C699 C700 1.396 . S
C699 C704 1.390 . S
C700 C694 1.465 . S
C700 C699 1.396 . S
C700 C701 1.399 . S
C701 H687 0.929 . S
C701 C700 1.399 . S
C701 C702 1.385 . S
C702 H688 0.931 . S
C702 C701 1.385 . S
C702 C703 1.389 . S
C703 C702 1.389 . S
C703 C704 1.387 . S
C704 H689 0.930 . S
C704 C699 1.390 . S
C704 C703 1.387 . S
H705 C717 0.930 . S
H706 C719 0.930 . S
H707 C720 0.930 . S
H708 C724 0.959 . S
H709 C724 0.959 . S
H710 C724 0.961 . S
H711 C725 0.960 . S
H712 C725 0.961 . S
H713 C725 0.959 . S
H714 C728 0.929 . S
H715 C729 0.931 . S
H716 C731 0.930 . S
C717 H705 0.930 . S
C717 C718 1.399 . S
C717 C722 1.399 . S
C718 C717 1.399 . S
C718 C719 1.376 . S
C719 H706 0.930 . S
C719 C718 1.376 . S
C719 C720 1.388 . S
C720 H707 0.930 . S
C720 C719 1.388 . S
C720 C721 1.390 . S
C721 C720 1.390 . S
C721 C722 1.394 . S
C721 C727 1.465 . S
C722 C717 1.399 . S
C722 C721 1.394 . S
C722 C723 1.516 . S
C723 C722 1.516 . S
C723 C724 1.502 . S
C723 C725 1.561 . S
C723 C726 1.526 . S
C724 H708 0.959 . S
C724 H709 0.959 . S
C724 H710 0.961 . S
C724 C723 1.502 . S
C725 H711 0.960 . S
C725 H712 0.961 . S
C725 H713 0.959 . S
C725 C723 1.561 . S
C726 C723 1.526 . S
C726 C727 1.396 . S
C726 C731 1.390 . S
C727 C721 1.465 . S
C727 C726 1.396 . S
C727 C728 1.399 . S
C728 H714 0.929 . S
C728 C727 1.399 . S
C728 C729 1.385 . S
C729 H715 0.931 . S
C729 C728 1.385 . S
C729 C730 1.389 . S
C730 C729 1.389 . S
C730 C731 1.387 . S
C731 H716 0.930 . S
C731 C726 1.390 . S
C731 C730 1.387 . S
H732 C744 0.930 . S
H733 C746 0.930 . S
H734 C747 0.930 . S
H735 C751 0.959 . S
H736 C751 0.959 . S
H737 C751 0.961 . S
H738 C752 0.960 . S
H739 C752 0.961 . S
H740 C752 0.959 . S
H741 C755 0.929 . S
H742 C756 0.931 . S
H743 C758 0.930 . S
C744 H732 0.930 . S
C744 C745 1.399 . S
C744 C749 1.399 . S
C745 C744 1.399 . S
C745 C746 1.376 . S
C746 H733 0.930 . S
C746 C745 1.376 . S
C746 C747 1.388 . S
C747 H734 0.930 . S
C747 C746 1.388 . S
C747 C748 1.390 . S
C748 C747 1.390 . S
C748 C749 1.394 . S
C748 C754 1.465 . S
C749 C744 1.399 . S
C749 C748 1.394 . S
C749 C750 1.516 . S
C750 C749 1.516 . S
C750 C751 1.502 . S
C750 C752 1.561 . S
C750 C753 1.526 . S
C751 H735 0.959 . S
C751 H736 0.959 . S
C751 H737 0.961 . S
C751 C750 1.502 . S
C752 H738 0.960 . S
C752 H739 0.961 . S
C752 H740 0.959 . S
C752 C750 1.561 . S
C753 C750 1.526 . S
C753 C754 1.396 . S
C753 C758 1.390 . S
C754 C748 1.465 . S
C754 C753 1.396 . S
C754 C755 1.399 . S
C755 H741 0.929 . S
C755 C754 1.399 . S
C755 C756 1.385 . S
C756 H742 0.931 . S
C756 C755 1.385 . S
C756 C757 1.389 . S
C757 C756 1.389 . S
C757 C758 1.387 . S
C758 H743 0.930 . S
C758 C753 1.390 . S
C758 C757 1.387 . S
H759 C771 0.930 . S
H760 C773 0.930 . S
H761 C774 0.930 . S
H762 C778 0.959 . S
H763 C778 0.959 . S
H764 C778 0.961 . S
H765 C779 0.960 . S
H766 C779 0.961 . S
H767 C779 0.959 . S
H768 C782 0.929 . S
H769 C783 0.931 . S
H770 C785 0.930 . S
C771 H759 0.930 . S
C771 C772 1.399 . S
C771 C776 1.399 . S
C772 C771 1.399 . S
C772 C773 1.376 . S
C773 H760 0.930 . S
C773 C772 1.376 . S
C773 C774 1.388 . S
C774 H761 0.930 . S
C774 C773 1.388 . S
C774 C775 1.390 . S
C775 C774 1.390 . S
C775 C776 1.394 . S
C775 C781 1.465 . S
C776 C771 1.399 . S
C776 C775 1.394 . S
C776 C777 1.516 . S
C777 C776 1.516 . S
C777 C778 1.502 . S
C777 C779 1.561 . S
C777 C780 1.526 . S
C778 H762 0.959 . S
C778 H763 0.959 . S
C778 H764 0.961 . S
C778 C777 1.502 . S
C779 H765 0.960 . S
C779 H766 0.961 . S
C779 H767 0.959 . S
C779 C777 1.561 . S
C780 C777 1.526 . S
C780 C781 1.396 . S
C780 C785 1.390 . S
C781 C775 1.465 . S
C781 C780 1.396 . S
C781 C782 1.399 . S
C782 H768 0.929 . S
C782 C781 1.399 . S
C782 C783 1.385 . S
C783 H769 0.931 . S
C783 C782 1.385 . S
C783 C784 1.389 . S
C784 C783 1.389 . S
C784 C785 1.387 . S
C785 H770 0.930 . S
C785 C780 1.390 . S
C785 C784 1.387 . S
H786 C798 0.930 . S
H787 C800 0.930 . S
H788 C801 0.930 . S
H789 C805 0.959 . S
H790 C805 0.959 . S
H791 C805 0.961 . S
H792 C806 0.960 . S
H793 C806 0.961 1_556 S
H794 C806 0.959 . S
H795 C809 0.929 . S
H796 C810 0.931 . S
H797 C812 0.930 . S
C798 H786 0.930 . S
C798 C799 1.399 . S
C798 C803 1.399 . S
C799 C798 1.399 . S
C799 C800 1.376 . S
C800 H787 0.930 . S
C800 C799 1.376 . S
C800 C801 1.388 . S
C801 H788 0.930 . S
C801 C800 1.388 . S
C801 C802 1.390 . S
C802 C801 1.390 . S
C802 C803 1.394 . S
C802 C808 1.465 . S
C803 C798 1.399 . S
C803 C802 1.394 . S
C803 C804 1.550 . S
C804 C803 1.550 . S
C804 C805 1.477 1_554 S
C804 C806 1.564 . S
C804 C807 1.518 1_554 S
C805 H789 0.959 . S
C805 H790 0.959 . S
C805 H791 0.961 . S
C805 C804 1.477 1_556 S
C806 H792 0.960 . S
C806 H793 0.961 1_554 S
C806 H794 0.959 . S
C806 C804 1.564 . S
C807 C804 1.518 1_556 S
C807 C808 1.396 1_556 S
C807 C812 1.390 . S
C808 C802 1.465 . S
C808 C807 1.396 1_554 S
C808 C809 1.399 . S
C809 H795 0.929 . S
C809 C808 1.399 . S
C809 C810 1.385 1_554 S
C810 H796 0.931 . S
C810 C809 1.385 1_556 S
C810 C811 1.389 . S
C811 C810 1.389 . S
C811 C812 1.387 . S
C812 H797 0.930 . S
C812 C807 1.390 . S
C812 C811 1.387 . S
H813 C825 0.930 . S
H814 C827 0.930 . S
H815 C828 0.930 . S
H816 C832 0.959 . S
H817 C832 0.959 . S
H818 C832 0.961 . S
H819 C833 0.960 . S
H820 C833 0.961 . S
H821 C833 0.959 . S
H822 C836 0.929 . S
H823 C837 0.931 . S
H824 C839 0.930 . S
C825 H813 0.930 . S
C825 C826 1.399 . S
C825 C830 1.399 . S
C826 C825 1.399 . S
C826 C827 1.376 . S
C827 H814 0.930 . S
C827 C826 1.376 . S
C827 C828 1.388 . S
C828 H815 0.930 . S
C828 C827 1.388 . S
C828 C829 1.390 . S
C829 C828 1.390 . S
C829 C830 1.394 . S
C829 C835 1.465 . S
C830 C825 1.399 . S
C830 C829 1.394 . S
C830 C831 1.516 . S
C831 C830 1.516 . S
C831 C832 1.502 . S
C831 C833 1.561 . S
C831 C834 1.526 . S
C832 H816 0.959 . S
C832 H817 0.959 . S
C832 H818 0.961 . S
C832 C831 1.502 . S
C833 H819 0.960 . S
C833 H820 0.961 . S
C833 H821 0.959 . S
C833 C831 1.561 . S
C834 C831 1.526 . S
C834 C835 1.396 . S
C834 C839 1.390 . S
C835 C829 1.465 . S
C835 C834 1.396 . S
C835 C836 1.399 . S
C836 H822 0.929 . S
C836 C835 1.399 . S
C836 C837 1.385 . S
C837 H823 0.931 . S
C837 C836 1.385 . S
C837 C838 1.389 . S
C838 C837 1.389 . S
C838 C839 1.387 . S
C839 H824 0.930 . S
C839 C834 1.390 . S
C839 C838 1.387 . S
C217 C183 1.205 . S
C205 C8 1.475 . S
C232 C26 1.507 . S
C244 C113 1.229 . S
C259 C50 1.481 . S
C271 C133 1.498 . S
C286 C68 1.368 . S
C298 C147 1.421 . S
C325 C155 1.319 . S
C313 C80 1.408 . S
C340 C104 1.469 . S
C352 C169 1.193 . S
C367 C32 1.470 . S
C379 C127 1.332 . S
C394 C44 1.444 . S
C406 C141 1.253 . S
C421 C62 1.354 . S
C433 C161 1.409 . S
C460 C175 1.448 . S
C448 C86 1.379 1_554 S
C487 C189 1.441 . S
C475 C98 1.404 . S
C514 C119 1.471 . S
C502 C14 1.443 . S
C529 C7 1.467 . S
C541 C126 1.416 . S
C556 C25 1.454 . S
C568 C140 1.446 . S
C595 C162 1.483 . S
C583 C52 1.430 . S
C610 C70 1.386 . S
C622 C176 1.484 1_556 S
C649 C190 1.457 . S
C637 C79 1.415 . S
C676 C120 1.448 . S
C664 C106 1.405 . S
C703 C182 1.409 . S
C691 C34 1.460 . S
C718 C43 1.382 . S
C730 C112 1.478 . S
C757 C134 1.457 . S
C745 C61 1.434 . S
C772 C88 1.406 . S
C784 C148 1.482 . S
C799 C97 1.429 . S
C811 C154 1.516 . S
C826 C16 1.470 . S
C838 C168 1.467 . S
