# Generated by pormake.
# Topology eea, (3,6)-cn, num edge types: 1
# Building blocks:
#     Node 0, Type 0, BuildingBlock: QEWDON_clean_linker_0, # of connection points: 3
#     Node 1, Type 0, BuildingBlock: QEWDON_clean_linker_0, # of connection points: 3
#     Node 2, Type 0, BuildingBlock: QEWDON_clean_linker_0, # of connection points: 3
#     Node 3, Type 0, BuildingBlock: QEWDON_clean_linker_0, # of connection points: 3
#     Node 4, Type 0, BuildingBlock: QEWDON_clean_linker_0, # of connection points: 3
#     Node 5, Type 0, BuildingBlock: QEWDON_clean_linker_0, # of connection points: 3
#     Node 6, Type 0, BuildingBlock: QEWDON_clean_linker_0, # of connection points: 3
#     Node 7, Type 0, BuildingBlock: QEWDON_clean_linker_0, # of connection points: 3
#     Node 8, Type 0, BuildingBlock: QEWDON_clean_linker_0, # of connection points: 3
#     Node 9, Type 0, BuildingBlock: QEWDON_clean_linker_0, # of connection points: 3
#     Node 10, Type 0, BuildingBlock: QEWDON_clean_linker_0, # of connection points: 3
#     Node 11, Type 0, BuildingBlock: QEWDON_clean_linker_0, # of connection points: 3
#     Node 12, Type 0, BuildingBlock: QEWDON_clean_linker_0, # of connection points: 3
#     Node 13, Type 0, BuildingBlock: QEWDON_clean_linker_0, # of connection points: 3
#     Node 14, Type 0, BuildingBlock: QEWDON_clean_linker_0, # of connection points: 3
#     Node 15, Type 0, BuildingBlock: QEWDON_clean_linker_0, # of connection points: 3
#     Node 16, Type 0, BuildingBlock: QEWDON_clean_linker_0, # of connection points: 3
#     Node 17, Type 0, BuildingBlock: QEWDON_clean_linker_0, # of connection points: 3
#     Node 18, Type 1, BuildingBlock: KUMBUR_clean_sbu_0, # of connection points: 6
#     Node 19, Type 1, BuildingBlock: KUMBUR_clean_sbu_0, # of connection points: 6
#     Node 20, Type 1, BuildingBlock: KUMBUR_clean_sbu_0, # of connection points: 6
#     Node 21, Type 1, BuildingBlock: KUMBUR_clean_sbu_0, # of connection points: 6
#     Node 22, Type 1, BuildingBlock: KUMBUR_clean_sbu_0, # of connection points: 6
#     Node 23, Type 1, BuildingBlock: KUMBUR_clean_sbu_0, # of connection points: 6
#     Node 24, Type 1, BuildingBlock: KUMBUR_clean_sbu_0, # of connection points: 6
#     Node 25, Type 1, BuildingBlock: KUMBUR_clean_sbu_0, # of connection points: 6
#     Node 26, Type 1, BuildingBlock: KUMBUR_clean_sbu_0, # of connection points: 6
#     Edge 27, Type (0, 1), BuildingBlock: XIVTED_clean_linker_0, # of connection points: 2
#     Edge 28, Type (0, 1), BuildingBlock: XIVTED_clean_linker_0, # of connection points: 2
#     Edge 29, Type (0, 1), BuildingBlock: XIVTED_clean_linker_0, # of connection points: 2
#     Edge 30, Type (0, 1), BuildingBlock: XIVTED_clean_linker_0, # of connection points: 2
#     Edge 31, Type (0, 1), BuildingBlock: XIVTED_clean_linker_0, # of connection points: 2
#     Edge 32, Type (0, 1), BuildingBlock: XIVTED_clean_linker_0, # of connection points: 2
#     Edge 33, Type (0, 1), BuildingBlock: XIVTED_clean_linker_0, # of connection points: 2
#     Edge 34, Type (0, 1), BuildingBlock: XIVTED_clean_linker_0, # of connection points: 2
#     Edge 35, Type (0, 1), BuildingBlock: XIVTED_clean_linker_0, # of connection points: 2
#     Edge 36, Type (0, 1), BuildingBlock: XIVTED_clean_linker_0, # of connection points: 2
#     Edge 37, Type (0, 1), BuildingBlock: XIVTED_clean_linker_0, # of connection points: 2
#     Edge 38, Type (0, 1), BuildingBlock: XIVTED_clean_linker_0, # of connection points: 2
#     Edge 39, Type (0, 1), BuildingBlock: XIVTED_clean_linker_0, # of connection points: 2
#     Edge 40, Type (0, 1), BuildingBlock: XIVTED_clean_linker_0, # of connection points: 2
#     Edge 41, Type (0, 1), BuildingBlock: XIVTED_clean_linker_0, # of connection points: 2
#     Edge 42, Type (0, 1), BuildingBlock: XIVTED_clean_linker_0, # of connection points: 2
#     Edge 43, Type (0, 1), BuildingBlock: XIVTED_clean_linker_0, # of connection points: 2
#     Edge 44, Type (0, 1), BuildingBlock: XIVTED_clean_linker_0, # of connection points: 2
#     Edge 45, Type (0, 1), BuildingBlock: XIVTED_clean_linker_0, # of connection points: 2
#     Edge 46, Type (0, 1), BuildingBlock: XIVTED_clean_linker_0, # of connection points: 2
#     Edge 47, Type (0, 1), BuildingBlock: XIVTED_clean_linker_0, # of connection points: 2
#     Edge 48, Type (0, 1), BuildingBlock: XIVTED_clean_linker_0, # of connection points: 2
#     Edge 49, Type (0, 1), BuildingBlock: XIVTED_clean_linker_0, # of connection points: 2
#     Edge 50, Type (0, 1), BuildingBlock: XIVTED_clean_linker_0, # of connection points: 2
#     Edge 51, Type (0, 1), BuildingBlock: XIVTED_clean_linker_0, # of connection points: 2
#     Edge 52, Type (0, 1), BuildingBlock: XIVTED_clean_linker_0, # of connection points: 2
#     Edge 53, Type (0, 1), BuildingBlock: XIVTED_clean_linker_0, # of connection points: 2
#     Edge 54, Type (0, 1), BuildingBlock: XIVTED_clean_linker_0, # of connection points: 2
#     Edge 55, Type (0, 1), BuildingBlock: XIVTED_clean_linker_0, # of connection points: 2
#     Edge 56, Type (0, 1), BuildingBlock: XIVTED_clean_linker_0, # of connection points: 2
#     Edge 57, Type (0, 1), BuildingBlock: XIVTED_clean_linker_0, # of connection points: 2
#     Edge 58, Type (0, 1), BuildingBlock: XIVTED_clean_linker_0, # of connection points: 2
#     Edge 59, Type (0, 1), BuildingBlock: XIVTED_clean_linker_0, # of connection points: 2
#     Edge 60, Type (0, 1), BuildingBlock: XIVTED_clean_linker_0, # of connection points: 2
#     Edge 61, Type (0, 1), BuildingBlock: XIVTED_clean_linker_0, # of connection points: 2
#     Edge 62, Type (0, 1), BuildingBlock: XIVTED_clean_linker_0, # of connection points: 2
#     Edge 63, Type (0, 1), BuildingBlock: XIVTED_clean_linker_0, # of connection points: 2
#     Edge 64, Type (0, 1), BuildingBlock: XIVTED_clean_linker_0, # of connection points: 2
#     Edge 65, Type (0, 1), BuildingBlock: XIVTED_clean_linker_0, # of connection points: 2
#     Edge 66, Type (0, 1), BuildingBlock: XIVTED_clean_linker_0, # of connection points: 2
#     Edge 67, Type (0, 1), BuildingBlock: XIVTED_clean_linker_0, # of connection points: 2
#     Edge 68, Type (0, 1), BuildingBlock: XIVTED_clean_linker_0, # of connection points: 2
#     Edge 69, Type (0, 1), BuildingBlock: XIVTED_clean_linker_0, # of connection points: 2
#     Edge 70, Type (0, 1), BuildingBlock: XIVTED_clean_linker_0, # of connection points: 2
#     Edge 71, Type (0, 1), BuildingBlock: XIVTED_clean_linker_0, # of connection points: 2
#     Edge 72, Type (0, 1), BuildingBlock: XIVTED_clean_linker_0, # of connection points: 2
#     Edge 73, Type (0, 1), BuildingBlock: XIVTED_clean_linker_0, # of connection points: 2
#     Edge 74, Type (0, 1), BuildingBlock: XIVTED_clean_linker_0, # of connection points: 2
#     Edge 75, Type (0, 1), BuildingBlock: XIVTED_clean_linker_0, # of connection points: 2
#     Edge 76, Type (0, 1), BuildingBlock: XIVTED_clean_linker_0, # of connection points: 2
#     Edge 77, Type (0, 1), BuildingBlock: XIVTED_clean_linker_0, # of connection points: 2
#     Edge 78, Type (0, 1), BuildingBlock: XIVTED_clean_linker_0, # of connection points: 2
#     Edge 79, Type (0, 1), BuildingBlock: XIVTED_clean_linker_0, # of connection points: 2
#     Edge 80, Type (0, 1), BuildingBlock: XIVTED_clean_linker_0, # of connection points: 2
# Relax obj value: 0.044
# Max RMSD: 0.209
# Mean RMSD: 0.150
data_MOF--net-eea--node1-KUMBUR_clean_sbu_0--node2-QEWDON_clean_linker_0--edge1-XIVTED_clean_linker_0
_symmetry_space_group_name_H-M    P1
_symmetry_Int_Tables_number       1
_symmetry_cell_setting            triclinic
loop_
_symmetry_equiv_pos_as_xyz
'x, y, z'
_cell_length_a     57.77063
_cell_length_b     59.32389
_cell_length_c     63.842871
_cell_angle_alpha  89.988284
_cell_angle_beta   89.98756
_cell_angle_gamma 119.88667
loop_
_atom_site_label
_atom_site_type_symbol
_atom_site_fract_x
_atom_site_fract_y
_atom_site_fract_z
_atom_type_partial_charge
H0 H 0.21514 0.1214 0.43529 0.0
C1 C 0.21471 0.10488 0.42765 0.0
C2 C 0.23389 0.09781 0.43279 0.0
C3 C 0.19436 0.09013 0.41322 0.0
H4 H 0.24761 0.07068 0.42675 0.0
C5 C 0.2329 0.07622 0.42281 0.0
C6 C 0.2126 0.06111 0.40843 0.0
C7 C 0.19341 0.06831 0.40371 0.0
C8 C 0.17304 0.09649 0.409 0.0
H9 H 0.17731 0.05662 0.39296 0.0
C10 C 0.17931 0.12186 0.40332 0.0
C11 C 0.15885 0.12739 0.39858 0.0
C12 C 0.14614 0.0769 0.41045 0.0
H13 H 0.14084 0.05731 0.41503 0.0
C14 C 0.12583 0.08244 0.40625 0.0
H15 H 0.20003 0.13694 0.40182 0.0
C16 C 0.13208 0.10746 0.40029 0.0
H17 H 0.11592 0.11124 0.39705 0.0
H18 H 0.10516 0.06726 0.40752 0.0
H19 H 0.90054 0.09924 0.4291 0.0
C20 C 0.91623 0.11638 0.42144 0.0
C21 C 0.92442 0.1412 0.42977 0.0
C22 C 0.92949 0.1134 0.40417 0.0
H23 H 0.95226 0.18227 0.42671 0.0
C24 C 0.94569 0.16315 0.4202 0.0
C25 C 0.95899 0.16058 0.4027 0.0
C26 C 0.95056 0.13557 0.39476 0.0
C27 C 0.92326 0.08715 0.39706 0.0
H28 H 0.96053 0.13324 0.38124 0.0
C29 C 0.89687 0.06748 0.39262 0.0
C30 C 0.8918 0.04307 0.38512 0.0
C31 C 0.94424 0.08182 0.39461 0.0
H32 H 0.96462 0.09646 0.39821 0.0
C33 C 0.93919 0.05753 0.38772 0.0
H34 H 0.88058 0.07148 0.39423 0.0
C35 C 0.91323 0.03832 0.38293 0.0
H36 H 0.90989 0.01961 0.37754 0.0
H37 H 0.9555 0.0536 0.38599 0.0
H38 H 0.92863 0.80393 0.42469 0.0
C39 C 0.91084 0.80281 0.41804 0.0
C40 C 0.88648 0.78894 0.42881 0.0
C41 C 0.91252 0.81658 0.39955 0.0
H42 H 0.84483 0.7768 0.42899 0.0
C43 C 0.86355 0.78828 0.42079 0.0
C44 C 0.8645 0.80217 0.40266 0.0
C45 C 0.88903 0.81572 0.39192 0.0
C46 C 0.93896 0.83381 0.38918 0.0
H47 H 0.89008 0.82631 0.37786 0.0
C48 C 0.95982 0.82767 0.38867 0.0
C49 C 0.98469 0.84486 0.37918 0.0
C50 C 0.94372 0.85741 0.38011 0.0
H51 H 0.929 0.8636 0.38089 0.0
C52 C 0.96775 0.87383 0.37016 0.0
H53 H 0.9569 0.80988 0.3958 0.0
C54 C 0.98795 0.86761 0.36956 0.0
H55 H 1.00634 0.88084 0.36157 0.0
H56 H 0.97085 0.8917 0.36304 0.0
H57 H 0.13264 0.21018 0.6036 0.0
C58 C 0.11637 0.21139 0.61095 0.0
C59 C 0.10663 0.22657 0.60164 0.0
C60 C 0.10395 0.1962 0.62877 0.0
H61 H 0.07695 0.23842 0.6036 0.0
C62 C 0.08463 0.22694 0.6108 0.0
C63 C 0.07202 0.21216 0.62879 0.0
C64 C 0.08197 0.19696 0.63767 0.0
C65 C 0.11175 0.17725 0.63671 0.0
H66 H 0.07247 0.18547 0.65152 0.0
C67 C 0.13876 0.18403 0.63976 0.0
C68 C 0.14529 0.16532 0.6471 0.0
C69 C 0.09156 0.15157 0.64071 0.0
H70 H 0.07075 0.14563 0.63814 0.0
C71 C 0.09788 0.13303 0.64753 0.0
H72 H 0.15446 0.20382 0.63692 0.0
C73 C 0.12439 0.13973 0.65063 0.0
H74 H 0.12849 0.1246 0.65556 0.0
H75 H 0.08212 0.11325 0.65028 0.0
H76 H 0.81102 0.9208 0.5954 0.0
C77 C 0.80989 0.90414 0.60338 0.0
C78 C 0.79087 0.87886 0.59712 0.0
C79 C 0.82875 0.9081 0.61888 0.0
H80 H 0.77502 0.83802 0.60286 0.0
C81 C 0.79023 0.85749 0.60723 0.0
C82 C 0.80906 0.86103 0.62274 0.0
C83 C 0.82827 0.88651 0.62842 0.0
C84 C 0.85025 0.93474 0.62405 0.0
H85 H 0.84338 0.88971 0.63993 0.0
C86 C 0.84431 0.95435 0.62939 0.0
C87 C 0.86491 0.97931 0.63505 0.0
C88 C 0.87697 0.94052 0.62381 0.0
H89 H 0.88203 0.92584 0.61951 0.0
C90 C 0.89745 0.96538 0.62889 0.0
H91 H 0.8237 0.9499 0.62994 0.0
C92 C 0.89152 0.98463 0.63454 0.0
H93 H 0.9078 0.00376 0.63852 0.0
H94 H 0.918 0.9697 0.62856 0.0
H95 H 0.09356 0.88319 0.60227 0.0
C96 C 0.11045 0.89951 0.60973 0.0
C97 C 0.13593 0.90994 0.60076 0.0
C98 C 0.10641 0.91155 0.62722 0.0
H99 H 0.17726 0.93902 0.60319 0.0
C100 C 0.15761 0.93165 0.61 0.0
C101 C 0.15412 0.94411 0.62745 0.0
C102 C 0.12834 0.93373 0.636 0.0
C103 C 0.07893 0.90312 0.63475 0.0
H104 H 0.125 0.94344 0.64904 0.0
C105 C 0.06046 0.87678 0.6391 0.0
C106 C 0.03441 0.86936 0.64614 0.0
C107 C 0.07099 0.92183 0.63719 0.0
H108 H 0.0846 0.9421 0.63363 0.0
C109 C 0.04524 0.91458 0.64375 0.0
H110 H 0.06659 0.86233 0.63747 0.0
C111 C 0.02708 0.88863 0.64814 0.0
H112 H 1.00707 0.88366 0.65283 0.0
H113 H 0.03926 0.92913 0.64533 0.0
H114 H 0.8866 0.4577 0.76689 0.0
C115 C 0.88765 0.44209 0.75892 0.0
C116 C 0.90735 0.436 0.76464 0.0
C117 C 0.8685 0.42731 0.74373 0.0
H118 H 0.9235 0.4108 0.75904 0.0
C119 C 0.90827 0.41543 0.75453 0.0
C120 C 0.88888 0.39994 0.73963 0.0
C121 C 0.86916 0.40623 0.73424 0.0
C122 C 0.84649 0.43253 0.73899 0.0
H123 H 0.85372 0.39427 0.72311 0.0
C124 C 0.85175 0.45782 0.73412 0.0
C125 C 0.83068 0.46239 0.72916 0.0
C126 C 0.81994 0.412 0.73938 0.0
H127 H 0.81537 0.39245 0.74337 0.0
C128 C 0.79901 0.41654 0.73494 0.0
H129 H 0.8722 0.47367 0.73346 0.0
C130 C 0.80427 0.4415 0.72981 0.0
H131 H 0.78763 0.44449 0.7264 0.0
H132 H 0.77861 0.40064 0.7354 0.0
H133 H 0.56679 0.43 0.76138 0.0
C134 C 0.58257 0.4471 0.75375 0.0
C135 C 0.59061 0.47196 0.76191 0.0
C136 C 0.59602 0.44402 0.73666 0.0
H137 H 0.61848 0.51302 0.75877 0.0
C138 C 0.612 0.49387 0.75238 0.0
C139 C 0.6255 0.49118 0.73505 0.0
C140 C 0.61716 0.46613 0.72727 0.0
C141 C 0.58977 0.41774 0.72968 0.0
H142 H 0.62723 0.4637 0.71386 0.0
C143 C 0.56339 0.39817 0.72512 0.0
C144 C 0.55827 0.3737 0.71772 0.0
C145 C 0.61069 0.41229 0.72744 0.0
H146 H 0.63106 0.42687 0.73113 0.0
C147 C 0.60558 0.38794 0.72064 0.0
H148 H 0.54716 0.40228 0.72656 0.0
C149 C 0.57963 0.3688 0.71574 0.0
H150 H 0.57622 0.35005 0.71043 0.0
H151 H 0.62183 0.38391 0.71907 0.0
H152 H 0.59542 0.13708 0.75949 0.0
C153 C 0.57772 0.13603 0.75273 0.0
C154 C 0.55333 0.12246 0.76352 0.0
C155 C 0.57952 0.14959 0.73409 0.0
H156 H 0.51179 0.11069 0.76365 0.0
C157 C 0.5305 0.12191 0.75539 0.0
C158 C 0.53155 0.13555 0.73708 0.0
C159 C 0.5561 0.14878 0.72631 0.0
C160 C 0.60604 0.16658 0.72369 0.0
H161 H 0.55721 0.15917 0.7121 0.0
C162 C 0.62687 0.16038 0.7235 0.0
C163 C 0.65182 0.17738 0.71398 0.0
C164 C 0.6109 0.19005 0.71429 0.0
H165 H 0.59623 0.19631 0.71482 0.0
C166 C 0.63499 0.20626 0.70433 0.0
H167 H 0.62388 0.14269 0.73087 0.0
C168 C 0.65515 0.19998 0.70403 0.0
H169 H 0.67356 0.21304 0.69599 0.0
H170 H 0.63816 0.22402 0.69696 0.0
H171 H 0.79576 0.54212 0.938 0.0
C172 C 0.77937 0.54316 0.94527 0.0
C173 C 0.76923 0.5579 0.93576 0.0
C174 C 0.76718 0.52818 0.96323 0.0
H175 H 0.73902 0.56907 0.93743 0.0
C176 C 0.74704 0.55799 0.94482 0.0
C177 C 0.73466 0.5434 0.96295 0.0
C178 C 0.74507 0.52871 0.97207 0.0
C179 C 0.77531 0.50956 0.97134 0.0
H180 H 0.73579 0.51739 0.98603 0.0
C181 C 0.8024 0.51671 0.9745 0.0
C182 C 0.80923 0.49829 0.98201 0.0
C183 C 0.75535 0.48379 0.97538 0.0
H184 H 0.73449 0.47757 0.97272 0.0
C185 C 0.76198 0.46552 0.98234 0.0
H186 H 0.81792 0.53657 0.97163 0.0
C187 C 0.78857 0.47259 0.98556 0.0
H188 H 0.79292 0.45767 0.99062 0.0
H189 H 0.7464 0.44567 0.98513 0.0
H190 H 0.48315 0.25554 0.92718 0.0
C191 C 0.48173 0.2388 0.93521 0.0
C192 C 0.46296 0.21358 0.92862 0.0
C193 C 0.49995 0.24257 0.95122 0.0
H194 H 0.44678 0.17269 0.93432 0.0
C195 C 0.46189 0.19211 0.9389 0.0
C196 C 0.48008 0.19548 0.95491 0.0
C197 C 0.4991 0.2209 0.9609 0.0
C198 C 0.52109 0.26915 0.95697 0.0
H199 H 0.51373 0.22397 0.97283 0.0
C200 C 0.51471 0.28845 0.96233 0.0
C201 C 0.5349 0.31332 0.96862 0.0
C202 C 0.54787 0.27515 0.95737 0.0
H203 H 0.55327 0.26069 0.95309 0.0
C204 C 0.56798 0.29993 0.96308 0.0
H205 H 0.49402 0.28378 0.96239 0.0
C206 C 0.56159 0.31887 0.96874 0.0
H207 H 0.57759 0.33795 0.97318 0.0
H208 H 0.58858 0.30443 0.96324 0.0
H209 H 0.76333 0.21553 0.93365 0.0
C210 C 0.77913 0.23204 0.94183 0.0
C211 C 0.80578 0.24279 0.93511 0.0
C212 C 0.77265 0.24322 0.95861 0.0
H213 H 0.84615 0.27387 0.9398 0.0
C214 C 0.82585 0.26469 0.94562 0.0
C215 C 0.81986 0.27582 0.96271 0.0
C216 C 0.79311 0.26479 0.96912 0.0
C217 C 0.7444 0.23442 0.96384 0.0
H218 H 0.788 0.27312 0.9822 0.0
C219 C 0.7261 0.20829 0.96891 0.0
C220 C 0.69949 0.20076 0.97431 0.0
C221 C 0.73576 0.25275 0.96376 0.0
H222 H 0.7494 0.27287 0.95972 0.0
C223 C 0.70941 0.2453 0.96854 0.0
H224 H 0.7328 0.19418 0.96928 0.0
C225 C 0.6914 0.21958 0.97375 0.0
H226 H 0.67098 0.2144 0.97718 0.0
H227 H 0.70289 0.25953 0.96821 0.0
H228 H 0.54216 0.7784 0.10602 0.0
C229 C 0.54346 0.76461 0.09564 0.0
C230 C 0.56062 0.75493 0.10049 0.0
C231 C 0.52636 0.75499 0.07828 0.0
H232 H 0.57425 0.72868 0.09094 0.0
C233 C 0.56116 0.73628 0.0872 0.0
C234 C 0.54411 0.72636 0.0698 0.0
C235 C 0.5268 0.73599 0.06543 0.0
C236 C 0.50571 0.76236 0.0749 0.0
H237 H 0.5133 0.72848 0.0522 0.0
C238 C 0.51258 0.78807 0.06989 0.0
C239 C 0.49244 0.79422 0.06562 0.0
C240 C 0.47871 0.74311 0.07628 0.0
H241 H 0.47309 0.72325 0.08021 0.0
C242 C 0.45875 0.74931 0.07272 0.0
H243 H 0.53342 0.80286 0.06846 0.0
C244 C 0.46551 0.77464 0.06735 0.0
H245 H 0.44961 0.77891 0.06445 0.0
H246 H 0.43797 0.73439 0.07392 0.0
H247 H 0.2339 0.76189 0.0936 0.0
C248 C 0.249 0.7793 0.08586 0.0
C249 C 0.25753 0.80375 0.09514 0.0
C250 C 0.261 0.77714 0.06737 0.0
H251 H 0.28546 0.84493 0.09302 0.0
C252 C 0.27838 0.82615 0.0857 0.0
C253 C 0.29056 0.82442 0.06717 0.0
C254 C 0.28117 0.79993 0.0579 0.0
C255 C 0.25436 0.75122 0.05872 0.0
H256 H 0.28994 0.79859 0.04328 0.0
C257 C 0.22798 0.72989 0.05867 0.0
C258 C 0.22251 0.70557 0.05053 0.0
C259 C 0.27505 0.74769 0.05069 0.0
H260 H 0.29562 0.76327 0.05105 0.0
C261 C 0.26965 0.72395 0.04227 0.0
H262 H 0.21185 0.73215 0.06499 0.0
C263 C 0.24366 0.70313 0.04205 0.0
H264 H 0.24014 0.68504 0.0351 0.0
H265 H 0.28573 0.72165 0.03594 0.0
H266 H 0.25764 0.46776 0.08925 0.0
C267 C 0.23977 0.46631 0.08246 0.0
C268 C 0.21573 0.45391 0.0939 0.0
C269 C 0.24104 0.47816 0.063 0.0
H270 H 0.17454 0.44428 0.09484 0.0
C271 C 0.19281 0.45326 0.08575 0.0
C272 C 0.19333 0.46446 0.06627 0.0
C273 C 0.21734 0.47627 0.05485 0.0
C274 C 0.26716 0.49451 0.05191 0.0
H275 H 0.21752 0.48425 0.03955 0.0
C276 C 0.28842 0.48896 0.05255 0.0
C277 C 0.313 0.50554 0.0424 0.0
C278 C 0.27121 0.51686 0.041 0.0
H279 H 0.25614 0.52262 0.04078 0.0
C280 C 0.29496 0.53262 0.03046 0.0
H281 H 0.28607 0.47216 0.06105 0.0
C282 C 0.31559 0.527 0.03104 0.0
H283 H 0.33379 0.53969 0.0226 0.0
H284 H 0.29753 0.54952 0.02197 0.0
H285 H 0.46376 0.87575 0.27136 0.0
C286 C 0.44753 0.87682 0.27889 0.0
C287 C 0.43776 0.89213 0.26984 0.0
C288 C 0.43606 0.86251 0.29736 0.0
H289 H 0.40758 0.90331 0.27173 0.0
C290 C 0.41599 0.89265 0.27926 0.0
C291 C 0.40414 0.87855 0.29764 0.0
C292 C 0.41478 0.86412 0.30679 0.0
C293 C 0.44462 0.84436 0.30617 0.0
H294 H 0.40626 0.85393 0.32133 0.0
C295 C 0.47158 0.85002 0.3059 0.0
C296 C 0.47864 0.83213 0.3143 0.0
C297 C 0.42509 0.8205 0.31476 0.0
H298 H 0.40415 0.81489 0.31461 0.0
C299 C 0.43206 0.80325 0.32349 0.0
H300 H 0.4869 0.86807 0.29913 0.0
C301 C 0.45851 0.80902 0.32343 0.0
H302 H 0.46316 0.79523 0.33064 0.0
H303 H 0.4168 0.78517 0.33028 0.0
H304 H 0.14682 0.58688 0.26047 0.0
C305 C 0.14632 0.57058 0.26857 0.0
C306 C 0.12808 0.54503 0.26235 0.0
C307 C 0.16511 0.5753 0.2843 0.0
H308 H 0.11487 0.50447 0.26727 0.0
C309 C 0.1286 0.52413 0.27234 0.0
C310 C 0.14701 0.52848 0.28845 0.0
C311 C 0.16504 0.55424 0.29438 0.0
C312 C 0.18616 0.60219 0.28923 0.0
H313 H 0.17921 0.5581 0.30689 0.0
C314 C 0.17972 0.62158 0.29403 0.0
C315 C 0.19998 0.64683 0.29935 0.0
C316 C 0.21304 0.60845 0.28921 0.0
H317 H 0.21846 0.5939 0.28533 0.0
C318 C 0.23318 0.63358 0.29393 0.0
H319 H 0.15899 0.61676 0.29443 0.0
C320 C 0.22676 0.65265 0.29903 0.0
H321 H 0.24279 0.67202 0.30275 0.0
H322 H 0.25385 0.63828 0.29375 0.0
H323 H 0.42702 0.5518 0.27012 0.0
C324 C 0.44443 0.56771 0.27743 0.0
C325 C 0.46936 0.57811 0.26742 0.0
C326 C 0.44171 0.57902 0.296 0.0
H327 H 0.51093 0.60689 0.26868 0.0
C328 C 0.49176 0.59944 0.27635 0.0
C329 C 0.48966 0.61124 0.29479 0.0
C330 C 0.46459 0.60049 0.30465 0.0
C331 C 0.41486 0.57033 0.30545 0.0
H332 H 0.4626 0.60942 0.31879 0.0
C333 C 0.39467 0.54382 0.30615 0.0
C334 C 0.36943 0.53643 0.31503 0.0
C335 C 0.40918 0.58912 0.3136 0.0
H336 H 0.42364 0.60967 0.31269 0.0
C337 C 0.38465 0.58184 0.32282 0.0
H338 H 0.39846 0.52908 0.29969 0.0
C339 C 0.36501 0.55579 0.32367 0.0
H340 H 0.34622 0.55081 0.33114 0.0
H341 H 0.38075 0.59652 0.32923 0.0
Tb342 Tb 0.49202 0.99293 0.98867 0.0
C343 C 0.54614 0.07274 0.05855 0.0
C344 C 0.59242 0.08424 0.05543 0.0
C345 C 0.58107 0.11598 0.06857 0.0
C346 C 0.56503 0.06623 0.05291 0.0
C347 C 0.55381 0.09742 0.06699 0.0
C348 C 0.60038 0.10939 0.06276 0.0
C349 C 0.50721 0.08257 0.0736 0.0
N350 N 0.52013 0.05415 0.05699 0.0
C351 C 0.50066 0.05833 0.06518 0.0
C352 C 0.53389 0.10235 0.07424 0.0
Tb353 Tb 0.5111 0.01528 0.0424 0.0
N354 N 0.55642 0.04165 0.04616 0.0
C355 C 0.57432 0.03323 0.04311 0.0
C356 C 0.61089 0.07615 0.05108 0.0
C357 C 0.60176 0.05041 0.04522 0.0
H358 H 0.47997 0.04319 0.06461 0.0
H359 H 0.61584 0.04378 0.04224 0.0
H360 H 0.62134 0.12363 0.06456 0.0
H361 H 0.49169 0.08598 0.07956 0.0
H362 H 0.56773 0.01347 0.03846 0.0
H363 H 0.38641 0.96078 0.98511 0.0
H364 H 0.63214 0.0894 0.05273 0.0
H365 H 0.52639 0.96712 0.96851 0.0
H366 H 0.43385 0.99228 0.99063 0.0
H367 H 0.51711 0.92535 0.953 0.0
H368 H 0.58743 0.13518 0.07479 0.0
H369 H 0.37247 0.91588 0.97391 0.0
H370 H 0.38569 0.88337 0.96219 0.0
H371 H 0.53894 0.12107 0.08085 0.0
H372 H 0.42134 0.87377 0.95315 0.0
N373 N 0.44716 0.96547 0.98338 0.0
C374 C 0.42833 0.97285 0.98575 0.0
C375 C 0.39344 0.92964 0.97639 0.0
C376 C 0.41289 0.92266 0.97269 0.0
C377 C 0.40125 0.95498 0.98264 0.0
C378 C 0.43989 0.94129 0.97627 0.0
H379 H 0.47049 0.8895 0.94928 0.0
N380 N 0.48544 0.9549 0.97405 0.0
C381 C 0.50079 0.928 0.95817 0.0
C382 C 0.45977 0.93585 0.97126 0.0
C383 C 0.50597 0.95168 0.96694 0.0
C384 C 0.47445 0.90779 0.95613 0.0
C385 C 0.4535 0.91169 0.96244 0.0
O386 O 0.51501 0.00782 0.96126 0.0
O387 O 0.52173 0.0204 0.00978 0.0
O388 O 0.50655 0.04532 0.02593 0.0
O389 O 0.48009 0.02159 0.99746 0.0
O390 O 0.53529 0.00827 0.98553 0.0
O391 O 0.4785 0.00868 0.96528 0.0
O392 O 0.49011 0.00296 0.07101 0.0
O393 O 0.48093 0.98837 0.02133 0.0
O394 O 0.4932 0.96183 0.00563 0.0
O395 O 0.52066 0.98443 0.03394 0.0
O396 O 0.4682 1.00079 0.04614 0.0
O397 O 0.52355 0.99751 0.06478 0.0
C398 C 0.54289 0.02399 1.00115 0.0
C399 C 0.49099 0.0048 0.93066 0.0
C400 C 0.49898 0.01408 0.89315 0.0
C401 C 0.50466 0.02225 0.91421 0.0
C402 C 0.47943 0.98821 0.88888 0.0
C403 C 0.47134 0.97923 0.92594 0.0
C404 C 0.46568 0.97099 0.90518 0.0
C405 C 0.491 0.04249 0.00966 0.0
C406 C 0.49805 0.0133 0.95258 0.0
C407 C 0.42662 0.89258 0.95971 0.0
C408 C 0.40633 0.89804 0.96487 0.0
C409 C 0.46017 0.98568 0.03013 0.0
C410 C 0.51622 0.00449 0.10002 0.0
C411 C 0.50351 0.98846 0.11748 0.0
C412 C 0.51295 0.99725 0.13795 0.0
C413 C 0.53535 0.02215 0.14059 0.0
C414 C 0.5386 0.02912 0.10317 0.0
C415 C 0.54806 0.03788 0.12331 0.0
C416 C 0.50835 0.96349 0.02176 0.0
C417 C 0.50605 0.99545 0.07865 0.0
H418 H 0.5199 0.04203 0.91781 0.0
H419 H 0.47434 0.98142 0.87289 0.0
H420 H 0.46036 0.96562 0.93825 0.0
H421 H 0.45049 0.9512 0.9017 0.0
H422 H 0.48616 0.96942 0.11515 0.0
H423 H 0.54332 0.02934 0.15606 0.0
H424 H 0.54891 0.04157 0.09008 0.0
H425 H 0.56539 0.05693 0.12554 0.0
Tb426 Tb 0.02296 0.49548 0.99125 0.0
C427 C 0.937 0.47137 0.05786 0.0
C428 C 0.92416 0.50401 0.05272 0.0
C429 C 0.89205 0.46166 0.06674 0.0
C430 C 0.9432 0.4958 0.05125 0.0
C431 C 0.91154 0.4541 0.06607 0.0
C432 C 0.89836 0.4866 0.06008 0.0
C433 C 0.92733 0.42423 0.07395 0.0
N434 N 0.95647 0.46499 0.05712 0.0
C435 C 0.95234 0.44216 0.06581 0.0
C436 C 0.90672 0.43009 0.07387 0.0
Tb437 Tb 0.9966 0.49523 0.04297 0.0
N438 N 0.96839 0.51201 0.04439 0.0
C439 C 0.97636 0.53747 0.04013 0.0
C440 C 0.93185 0.52962 0.04726 0.0
C441 C 0.95818 0.54652 0.04122 0.0
H442 H 0.96809 0.43738 0.06587 0.0
H443 H 0.96448 0.56651 0.03732 0.0
H444 H 0.88336 0.49243 0.06112 0.0
H445 H 0.92397 0.40593 0.08031 0.0
H446 H 0.99656 0.55084 0.03533 0.0
H447 H 0.05678 0.42532 0.99405 0.0
H448 H 0.9178 0.53667 0.04807 0.0
H449 H 0.05095 0.55465 0.9707 0.0
H450 H 0.02405 0.44009 0.99698 0.0
H451 H 0.095 0.58726 0.95688 0.0
H452 H 0.87227 0.4486 0.07282 0.0
H453 H 0.10339 0.45626 0.98384 0.0
H454 H 0.13734 0.50127 0.97195 0.0
H455 H 0.88741 0.41625 0.08029 0.0
H456 H 0.14773 0.54535 0.96164 0.0
N457 N 0.05176 0.47946 0.98902 0.0
C458 C 0.0442 0.45393 0.99243 0.0
C459 C 0.08906 0.46292 0.98508 0.0
C460 C 0.09632 0.48865 0.98044 0.0
C461 C 0.06276 0.4454 0.9908 0.0
C462 C 0.0769 0.49631 0.98239 0.0
H463 H 0.13195 0.57752 0.95572 0.0
N464 N 0.06296 0.52689 0.97779 0.0
C465 C 0.09183 0.56869 0.96241 0.0
C466 C 0.08268 0.52088 0.97645 0.0
C467 C 0.06686 0.55012 0.97019 0.0
C468 C 0.11265 0.56314 0.96181 0.0
C469 C 0.10813 0.53885 0.96862 0.0
O470 O 0.01213 0.50164 0.96121 0.0
O471 O 0.99338 0.49839 0.00969 0.0
O472 O 0.96657 0.46056 0.02656 0.0
O473 O 0.99305 0.45571 1.00126 0.0
O474 O 1.00632 0.52098 0.98384 0.0
O475 O 1.00666 0.46416 0.97017 0.0
O476 O 1.00865 0.4897 0.07274 0.0
O477 O 0.02571 0.49156 0.02449 0.0
O478 O 0.05361 0.52824 0.00871 0.0
O479 O 0.02743 0.53493 0.0329 0.0
O480 O 0.01224 0.46905 0.05051 0.0
O481 O 0.01289 0.52669 0.06395 0.0
C482 C 0.98977 0.51429 0.99913 0.0
C483 C 0.01624 0.47639 0.93453 0.0
C484 C 0.01233 0.47464 0.89635 0.0
C485 C 1.00342 0.47746 0.91621 0.0
C486 C 0.03485 0.4714 0.8952 0.0
C487 C 0.03859 0.47308 0.93299 0.0
C488 C 0.04792 0.47079 0.91341 0.0
C489 C 0.97063 0.44665 0.01229 0.0
C490 C 1.00555 0.47829 0.95498 0.0
C491 C 0.12796 0.53178 0.96746 0.0
C492 C 0.12206 0.50669 0.97336 0.0
C493 C 0.02849 0.47513 0.03506 0.0
C494 C 1.00499 0.51479 0.0997 0.0
C495 C 0.02011 0.51691 0.11754 0.0
C496 C 0.01115 0.51876 0.13763 0.0
C497 C 0.98665 0.51827 0.13958 0.0
C498 C 0.98067 0.51445 0.10197 0.0
C499 C 0.97155 0.51611 0.12183 0.0
C500 C 0.05023 0.54286 0.02263 0.0
C501 C 0.01507 0.51298 0.07898 0.0
H502 H 0.98639 0.48038 0.91754 0.0
H503 H 0.04204 0.46865 0.8803 0.0
H504 H 0.04866 0.47193 0.94683 0.0
H505 H 0.06508 0.46808 0.91235 0.0
H506 H 0.0391 0.51757 0.11569 0.0
H507 H 0.97903 0.51933 0.15484 0.0
H508 H 0.96881 0.51306 0.08847 0.0
H509 H 0.95271 0.51575 0.12348 0.0
Tb510 Tb 0.53068 0.512 0.04086 0.0
C511 C 0.47232 0.53515 0.97271 0.0
C512 C 0.42651 0.5009 0.97672 0.0
C513 C 0.43626 0.5434 0.96406 0.0
C514 C 0.45411 0.51014 0.9786 0.0
C515 C 0.46372 0.55195 0.96488 0.0
C516 C 0.41767 0.51789 0.96999 0.0
C517 C 0.50982 0.58324 0.95738 0.0
N518 N 0.49857 0.54245 0.97353 0.0
C519 C 0.51731 0.56575 0.96516 0.0
C520 C 0.48293 0.57646 0.9575 0.0
Tb521 Tb 0.50908 0.5131 0.98761 0.0
N522 N 0.46356 0.49434 0.98473 0.0
C523 C 0.44631 0.46837 0.98765 0.0
C524 C 0.40873 0.47467 0.9809 0.0
C525 C 0.41871 0.45823 0.98599 0.0
H526 H 0.53816 0.5712 0.96518 0.0
H527 H 0.40515 0.43778 0.98882 0.0
H528 H 0.39653 0.51126 0.96869 0.0
H529 H 0.52478 0.60193 0.9513 0.0
H530 H 0.45357 0.45538 0.9918 0.0
H531 H 0.6359 0.58395 0.04118 0.0
H532 H 0.38736 0.46678 0.97967 0.0
H533 H 0.49825 0.45369 0.06288 0.0
H534 H 0.58806 0.56826 0.03673 0.0
H535 H 0.50909 0.42225 0.0789 0.0
H536 H 0.42921 0.55609 0.95831 0.0
H537 H 0.65125 0.55379 0.05279 0.0
H538 H 0.63948 0.50923 0.06566 0.0
H539 H 0.47716 0.58997 0.95136 0.0
H540 H 0.6049 0.4652 0.07623 0.0
N541 N 0.57587 0.52906 0.04505 0.0
C542 C 0.59419 0.55472 0.04183 0.0
C543 C 0.6301 0.5467 0.0508 0.0
C544 C 0.61122 0.52088 0.05536 0.0
C545 C 0.6215 0.56378 0.04432 0.0
C546 C 0.58395 0.51265 0.05239 0.0
H547 H 0.55616 0.43274 0.08162 0.0
N548 N 0.53874 0.48156 0.05606 0.0
C549 C 0.52493 0.44064 0.07306 0.0
C550 C 0.56467 0.48802 0.05827 0.0
C551 C 0.51886 0.45856 0.06399 0.0
C552 C 0.55151 0.44661 0.07453 0.0
C553 C 0.57182 0.4707 0.06735 0.0
O554 O 0.50873 0.50544 0.06872 0.0
O555 O 0.49954 0.50868 0.02038 0.0
O556 O 0.51188 0.54666 1.00398 0.0
O557 O 0.54139 0.55177 0.03098 0.0
O558 O 0.48769 0.48451 0.04526 0.0
O559 O 0.54471 0.54187 0.06341 0.0
O560 O 0.52896 0.52134 0.95854 0.0
O561 O 0.54052 0.51682 0.00796 0.0
O562 O 0.52956 0.47929 0.02458 0.0
O563 O 0.50092 0.47362 0.99668 0.0
O564 O 0.55175 0.54074 0.9827 0.0
O565 O 0.4963 0.48306 0.96541 0.0
C566 C 0.47895 0.49152 0.02951 0.0
C567 C 0.53392 0.52709 0.09848 0.0
C568 C 0.52675 0.52895 0.13605 0.0
C569 C 0.52021 0.53085 0.1151 0.0
C570 C 0.54719 0.5232 0.14008 0.0
C571 C 0.5545 0.52178 0.10291 0.0
C572 C 0.561 0.51976 0.12359 0.0
C573 C 0.52884 0.56059 0.01897 0.0
C574 C 0.52583 0.5278 0.07671 0.0
C575 C 0.59895 0.4783 0.06948 0.0
C576 C 0.61863 0.50336 0.06345 0.0
C577 C 0.56078 0.53412 0.99852 0.0
C578 C 0.50207 0.49693 0.93014 0.0
C579 C 0.51499 0.49412 0.9125 0.0
C580 C 0.50463 0.49261 0.89222 0.0
C581 C 0.48131 0.4943 0.88992 0.0
C582 C 0.47876 0.49837 0.92742 0.0
C583 C 0.46853 0.49716 0.90742 0.0
C584 C 0.51399 0.46546 0.00886 0.0
C585 C 0.51306 0.49818 0.9512 0.0
H586 H 0.50426 0.53492 0.11172 0.0
H587 H 0.5529 0.52192 0.15601 0.0
H588 H 0.56553 0.5192 0.09044 0.0
H589 H 0.57689 0.51561 0.12686 0.0
H590 H 0.53281 0.49265 0.91464 0.0
H591 H 0.47307 0.49366 0.87455 0.0
H592 H 0.46836 0.50029 0.94071 0.0
H593 H 0.45059 0.49841 0.90547 0.0
Tb594 Tb 0.16006 0.32684 0.32063 0.0
C595 C 0.21657 0.40715 0.38875 0.0
C596 C 0.26254 0.41774 0.38518 0.0
C597 C 0.25226 0.45066 0.39719 0.0
C598 C 0.235 0.39997 0.38324 0.0
C599 C 0.22487 0.43235 0.39632 0.0
C600 C 0.27109 0.44336 0.39161 0.0
C601 C 0.17862 0.41851 0.40357 0.0
N602 N 0.19041 0.38877 0.38793 0.0
C603 C 0.17145 0.39372 0.39607 0.0
C604 C 0.20543 0.43804 0.40343 0.0
Tb605 Tb 0.18037 0.3492 0.37418 0.0
N606 N 0.22582 0.37496 0.37739 0.0
C607 C 0.24328 0.36592 0.37479 0.0
C608 C 0.28054 0.40894 0.38135 0.0
C609 C 0.27083 0.38279 0.37653 0.0
H610 H 0.15066 0.37876 0.39605 0.0
H611 H 0.28456 0.37563 0.37398 0.0
H612 H 0.29218 0.45741 0.39294 0.0
H613 H 0.16348 0.42254 0.40945 0.0
H614 H 0.23624 0.34588 0.37084 0.0
H615 H 0.05431 0.29426 0.31895 0.0
H616 H 0.30188 0.42196 0.38265 0.0
H617 H 0.19412 0.30124 0.29941 0.0
H618 H 0.10183 0.32585 0.32387 0.0
H619 H 0.18464 0.25956 0.28361 0.0
H620 H 0.25909 0.47024 0.40274 0.0
H621 H 0.04025 0.24946 0.30739 0.0
H622 H 0.05336 0.21712 0.29493 0.0
H623 H 0.21096 0.45719 0.40936 0.0
H624 H 0.08891 0.20772 0.28502 0.0
N625 N 0.11512 0.29923 0.31589 0.0
C626 C 0.09627 0.30648 0.3188 0.0
C627 C 0.06126 0.26327 0.30959 0.0
C628 C 0.0807 0.25641 0.30534 0.0
C629 C 0.06913 0.28855 0.31604 0.0
C630 C 0.10775 0.27511 0.30858 0.0
H631 H 0.13799 0.22363 0.28036 0.0
N632 N 0.15326 0.28892 0.30557 0.0
C633 C 0.16839 0.26214 0.28912 0.0
C634 C 0.12757 0.2698 0.30307 0.0
C635 C 0.17368 0.28577 0.29806 0.0
C636 C 0.14203 0.24188 0.28735 0.0
C637 C 0.12118 0.24568 0.2941 0.0
O638 O 0.18243 0.34203 0.29299 0.0
O639 O 0.19038 0.35386 0.34153 0.0
O640 O 0.17669 0.37942 0.35744 0.0
O641 O 0.1482 0.35545 0.33003 0.0
O642 O 0.20331 0.34199 0.31685 0.0
O643 O 0.14609 0.34295 0.2979 0.0
O644 O 0.15998 0.33809 0.40307 0.0
O645 O 0.14969 0.32229 0.35344 0.0
O646 O 0.16159 0.29563 0.33717 0.0
O647 O 0.18913 0.31787 0.36559 0.0
O648 O 0.13756 0.33499 0.37842 0.0
O649 O 0.19268 0.33147 0.39669 0.0
C650 C 0.21137 0.35734 0.33271 0.0
C651 C 0.15771 0.33941 0.26293 0.0
C652 C 0.16449 0.3492 0.22544 0.0
C653 C 0.17064 0.35717 0.2465 0.0
C654 C 0.14519 0.32325 0.22113 0.0
C655 C 0.13828 0.31376 0.2582 0.0
C656 C 0.13214 0.30574 0.23742 0.0
C657 C 0.16009 0.37651 0.342 0.0
C658 C 0.16532 0.34768 0.28482 0.0
C659 C 0.09427 0.2265 0.29169 0.0
C660 C 0.07404 0.23184 0.29734 0.0
C661 C 0.12913 0.31966 0.36255 0.0
C662 C 0.18604 0.33909 0.43192 0.0
C663 C 0.17433 0.32246 0.44921 0.0
C664 C 0.18447 0.33069 0.46962 0.0
C665 C 0.20628 0.35594 0.47237 0.0
C666 C 0.20784 0.36407 0.43512 0.0
C667 C 0.21782 0.37244 0.45524 0.0
C668 C 0.17672 0.29707 0.35327 0.0
C669 C 0.17555 0.33009 0.41065 0.0
H670 H 0.1857 0.37701 0.2501 0.0
H671 H 0.13979 0.31661 0.20513 0.0
H672 H 0.12788 0.29992 0.27051 0.0
H673 H 0.11714 0.28588 0.23392 0.0
H674 H 0.15767 0.30303 0.4467 0.0
H675 H 0.21428 0.3631 0.48783 0.0
H676 H 0.21723 0.37708 0.42211 0.0
H677 H 0.23458 0.39181 0.45756 0.0
Tb678 Tb 0.69363 0.83177 0.32212 0.0
C679 C 0.60819 0.80711 0.38852 0.0
C680 C 0.59462 0.83905 0.38238 0.0
C681 C 0.56291 0.79682 0.39684 0.0
C682 C 0.61398 0.83122 0.38133 0.0
C683 C 0.58284 0.78981 0.39689 0.0
C684 C 0.5688 0.82142 0.38957 0.0
C685 C 0.59973 0.76133 0.40665 0.0
N686 N 0.62809 0.8013 0.3885 0.0
C687 C 0.62456 0.7792 0.39817 0.0
C688 C 0.57863 0.76648 0.40573 0.0
Tb689 Tb 0.66796 0.8315 0.37403 0.0
N690 N 0.63929 0.84776 0.37491 0.0
C691 C 0.64714 0.87325 0.37098 0.0
C692 C 0.60214 0.86465 0.37703 0.0
C693 C 0.62866 0.88197 0.37172 0.0
H694 H 0.64068 0.77496 0.39883 0.0
H695 H 0.63486 0.902 0.36805 0.0
H696 H 0.55353 0.82694 0.39024 0.0
H697 H 0.59686 0.7436 0.41384 0.0
H698 H 0.66747 0.88689 0.36668 0.0
H699 H 0.72823 0.76224 0.32669 0.0
H700 H 0.58788 0.87145 0.37759 0.0
H701 H 0.72015 0.88934 0.29902 0.0
H702 H 0.69536 0.77683 0.32939 0.0
H703 H 0.76321 0.92099 0.28313 0.0
H704 H 0.54319 0.7837 0.40299 0.0
H705 H 0.7743 0.79275 0.31498 0.0
H706 H 0.80744 0.83703 0.30117 0.0
H707 H 0.55945 0.75266 0.41236 0.0
H708 H 0.81695 0.88026 0.2891 0.0
N709 N 0.72255 0.81584 0.32002 0.0
C710 C 0.7153 0.79054 0.32427 0.0
C711 C 0.75994 0.79938 0.31621 0.0
C712 C 0.76683 0.82477 0.31068 0.0
C713 C 0.73394 0.7821 0.32276 0.0
C714 C 0.74741 0.83242 0.31268 0.0
H715 H 0.80039 0.91159 0.28195 0.0
N716 N 0.73293 0.86245 0.30723 0.0
C717 C 0.76058 0.90298 0.28957 0.0
C718 C 0.75274 0.85657 0.3059 0.0
C719 C 0.73617 0.88495 0.29855 0.0
C720 C 0.78154 0.89763 0.28897 0.0
C721 C 0.77766 0.87402 0.29694 0.0
O722 O 0.6811 0.83699 0.29241 0.0
O723 O 0.66408 0.83436 0.34085 0.0
O724 O 0.6379 0.79616 0.35814 0.0
O725 O 0.66427 0.79205 0.33236 0.0
O726 O 0.67701 0.85737 0.31525 0.0
O727 O 0.67722 0.80019 0.3013 0.0
O728 O 0.67993 0.82627 0.40397 0.0
O729 O 0.69755 0.82869 0.35542 0.0
O730 O 0.72428 0.86574 0.33842 0.0
O731 O 0.69896 0.87133 0.36428 0.0
O732 O 0.68401 0.80571 0.38123 0.0
O733 O 0.6837 0.86298 0.39498 0.0
C734 C 0.66049 0.85045 0.33058 0.0
C735 C 0.68463 0.81166 0.26552 0.0
C736 C 0.67719 0.80448 0.22794 0.0
C737 C 0.66874 0.8078 0.24778 0.0
C738 C 0.70202 0.80573 0.22595 0.0
C739 C 0.70933 0.81276 0.26323 0.0
C740 C 0.71805 0.81002 0.24352 0.0
C741 C 0.6419 0.78261 0.34347 0.0
C742 C 0.67472 0.81368 0.28626 0.0
C743 C 0.79756 0.86704 0.29575 0.0
C744 C 0.79216 0.84244 0.30264 0.0
C745 C 0.70062 0.81239 0.36596 0.0
C746 C 0.67517 0.8511 0.43068 0.0
C747 C 0.68981 0.85332 0.44886 0.0
C748 C 0.68029 0.85528 0.46871 0.0
C749 C 0.65572 0.85476 0.47006 0.0
C750 C 0.65077 0.85074 0.43238 0.0
C751 C 0.6411 0.85247 0.45199 0.0
C752 C 0.72116 0.87992 0.35298 0.0
C753 C 0.68584 0.84944 0.41015 0.0
H754 H 0.64943 0.8065 0.24952 0.0
H755 H 0.70897 0.8033 0.21081 0.0
H756 H 0.72173 0.81534 0.27661 0.0
H757 H 0.73712 0.81086 0.2419 0.0
H758 H 0.70885 0.85398 0.44747 0.0
H759 H 0.64769 0.85588 0.4851 0.0
H760 H 0.63928 0.84932 0.41864 0.0
H761 H 0.62221 0.85209 0.45318 0.0
Tb762 Tb 0.19919 0.84542 0.37525 0.0
C763 C 0.14387 0.87286 0.30703 0.0
C764 C 0.09775 0.83903 0.31014 0.0
C765 C 0.10853 0.88201 0.29796 0.0
C766 C 0.12522 0.84783 0.31243 0.0
C767 C 0.13586 0.89011 0.29917 0.0
C768 C 0.08947 0.85648 0.30347 0.0
C769 C 0.18228 0.9209 0.29229 0.0
N770 N 0.16997 0.8797 0.30817 0.0
C771 C 0.18918 0.90301 0.30015 0.0
C772 C 0.15553 0.91458 0.29208 0.0
Tb773 Tb 0.17952 0.84958 0.32198 0.0
N774 N 0.13414 0.83157 0.31842 0.0
C775 C 0.11651 0.80558 0.32078 0.0
C776 C 0.07955 0.81277 0.31383 0.0
C777 C 0.08902 0.79588 0.31877 0.0
H778 H 0.20992 0.90812 0.30043 0.0
H779 H 0.07515 0.77541 0.32119 0.0
H780 H 0.06845 0.85019 0.30186 0.0
H781 H 0.19761 0.93956 0.28645 0.0
H782 H 0.12337 0.79223 0.3248 0.0
H783 H 0.30458 0.91656 0.37831 0.0
H784 H 0.05826 0.80521 0.31228 0.0
H785 H 0.1656 0.78599 0.3951 0.0
H786 H 0.25696 0.90158 0.37324 0.0
H787 H 0.17556 0.7534 0.41006 0.0
H788 H 0.10192 0.89505 0.29219 0.0
H789 H 0.31915 0.88545 0.38884 0.0
H790 H 0.30658 0.84011 0.40012 0.0
H791 H 0.15022 0.92842 0.2859 0.0
H792 H 0.27138 0.79568 0.4091 0.0
N793 N 0.24418 0.86186 0.3801 0.0
C794 C 0.26276 0.88762 0.37784 0.0
C795 C 0.29811 0.87867 0.38656 0.0
C796 C 0.27891 0.85268 0.39017 0.0
C797 C 0.28994 0.89629 0.38069 0.0
C798 C 0.25181 0.84487 0.38686 0.0
H799 H 0.22239 0.76329 0.41326 0.0
N800 N 0.20639 0.81391 0.38937 0.0
C801 C 0.19168 0.77203 0.4049 0.0
C802 C 0.23218 0.82001 0.39186 0.0
C803 C 0.18612 0.79058 0.39645 0.0
C804 C 0.21814 0.77766 0.40665 0.0
C805 C 0.23882 0.80205 0.40036 0.0
O806 O 0.17669 0.83746 0.40297 0.0
O807 O 0.16895 0.84376 0.35457 0.0
O808 O 0.18293 0.88313 0.33908 0.0
O809 O 0.21049 0.88563 0.36683 0.0
O810 O 0.15593 0.81828 0.3786 0.0
O811 O 0.21283 0.8741 0.39876 0.0
O812 O 0.20013 0.85846 0.29319 0.0
O813 O 0.21016 0.85199 0.34259 0.0
O814 O 0.19844 0.81368 0.3579 0.0
O815 O 0.17052 0.80944 0.32991 0.0
O816 O 0.22237 0.87714 0.3181 0.0
O817 O 0.1672 0.82012 0.2993 0.0
C818 C 0.14794 0.82644 0.3631 0.0
C819 C 0.20146 0.85755 0.4333 0.0
C820 C 0.19411 0.85816 0.47096 0.0
C821 C 0.18775 0.86086 0.45013 0.0
C822 C 0.21429 0.85196 0.47465 0.0
C823 C 0.22182 0.85182 0.43739 0.0
C824 C 0.22808 0.84891 0.45795 0.0
C825 C 0.19884 0.89561 0.35509 0.0
C826 C 0.19371 0.85938 0.41166 0.0
C827 C 0.26582 0.80927 0.40279 0.0
C828 C 0.28585 0.83456 0.39767 0.0
C829 C 0.23078 0.86966 0.33378 0.0
C830 C 0.17411 0.83457 0.26421 0.0
C831 C 0.18632 0.83001 0.24692 0.0
C832 C 0.17635 0.82855 0.22649 0.0
C833 C 0.15417 0.83204 0.22369 0.0
C834 C 0.15195 0.83783 0.261 0.0
C835 C 0.14212 0.83665 0.24084 0.0
C836 C 0.1832 0.80061 0.34183 0.0
C837 C 0.18445 0.83546 0.28546 0.0
H838 H 0.172 0.8653 0.44701 0.0
H839 H 0.21986 0.85007 0.49048 0.0
H840 H 0.23291 0.84964 0.42478 0.0
H841 H 0.2438 0.84445 0.46095 0.0
H842 H 0.20324 0.82715 0.24944 0.0
H843 H 0.14627 0.83148 0.2082 0.0
H844 H 0.14215 0.84112 0.27402 0.0
H845 H 0.12507 0.8393 0.23851 0.0
Tb846 Tb 0.82597 0.66028 0.65464 0.0
C847 C 0.87898 0.73988 0.72484 0.0
C848 C 0.92533 0.75142 0.72231 0.0
C849 C 0.91371 0.78307 0.73517 0.0
C850 C 0.89799 0.7334 0.71951 0.0
C851 C 0.88648 0.76451 0.7333 0.0
C852 C 0.93313 0.77654 0.72965 0.0
C853 C 0.83976 0.74956 0.73941 0.0
N854 N 0.85301 0.72127 0.72303 0.0
C855 C 0.83339 0.72537 0.73099 0.0
C856 C 0.86642 0.76937 0.74029 0.0
Tb857 Tb 0.84428 0.68247 0.70848 0.0
N858 N 0.88953 0.70886 0.7127 0.0
C859 C 0.90752 0.70051 0.70985 0.0
C860 C 0.9439 0.74339 0.71821 0.0
C861 C 0.93491 0.7177 0.71226 0.0
H862 H 0.81272 0.71021 0.73023 0.0
H863 H 0.94906 0.71112 0.70945 0.0
H864 H 0.95405 0.79078 0.73166 0.0
H865 H 0.82412 0.75291 0.74519 0.0
H866 H 0.90105 0.6808 0.70513 0.0
H867 H 0.72018 0.6271 0.65051 0.0
H868 H 0.96511 0.75665 0.72008 0.0
H869 H 0.86105 0.635 0.63484 0.0
H870 H 0.76747 0.65896 0.65623 0.0
H871 H 0.85235 0.59334 0.61946 0.0
H872 H 0.91993 0.80224 0.74141 0.0
H873 H 0.70679 0.58231 0.63936 0.0
H874 H 0.72059 0.55015 0.62782 0.0
H875 H 0.87133 0.78805 0.74691 0.0
H876 H 0.75664 0.54101 0.61906 0.0
N877 N 0.78125 0.63246 0.64914 0.0
C878 C 0.76219 0.63958 0.65137 0.0
C879 C 0.7277 0.59623 0.64192 0.0
C880 C 0.74739 0.58952 0.63836 0.0
C881 C 0.73519 0.62151 0.64814 0.0
C882 C 0.77428 0.60835 0.64205 0.0
H883 H 0.80591 0.55719 0.61551 0.0
N884 N 0.81996 0.62241 0.64009 0.0
C885 C 0.83585 0.5958 0.62448 0.0
C886 C 0.79439 0.60318 0.63718 0.0
C887 C 0.8407 0.61942 0.63317 0.0
C888 C 0.80961 0.57543 0.62231 0.0
C889 C 0.78845 0.57908 0.62842 0.0
O890 O 0.84917 0.67537 0.62736 0.0
O891 O 0.85532 0.68781 0.67594 0.0
O892 O 0.83966 0.7124 0.69188 0.0
O893 O 0.81363 0.68868 0.66324 0.0
O894 O 0.86936 0.67602 0.65179 0.0
O895 O 0.81237 0.67578 0.63111 0.0
O896 O 0.82296 0.67019 0.73694 0.0
O897 O 0.81449 0.6555 0.6872 0.0
O898 O 0.8272 0.62924 0.67165 0.0
O899 O 0.85418 0.65177 0.70019 0.0
O900 O 0.80129 0.66773 0.71181 0.0
O901 O 0.85631 0.66449 0.73099 0.0
C902 C 0.87664 0.69162 0.66748 0.0
C903 C 0.82535 0.67218 0.59659 0.0
C904 C 0.83334 0.68187 0.55914 0.0
C905 C 0.83874 0.6899 0.58024 0.0
C906 C 0.81436 0.65584 0.55472 0.0
C907 C 0.80626 0.64645 0.59174 0.0
C908 C 0.80089 0.63834 0.57093 0.0
C909 C 0.82421 0.70951 0.67553 0.0
C910 C 0.83212 0.68063 0.61854 0.0
C911 C 0.76166 0.55977 0.62558 0.0
C912 C 0.74114 0.56497 0.63058 0.0
C913 C 0.79355 0.65262 0.6958 0.0
C914 C 0.8485 0.67109 0.76617 0.0
C915 C 0.83665 0.65409 0.78325 0.0
C916 C 0.84639 0.66205 0.80379 0.0
C917 C 0.86786 0.68741 0.80691 0.0
C918 C 0.87 0.69614 0.76977 0.0
C919 C 0.87951 0.70426 0.79001 0.0
C920 C 0.84214 0.63089 0.68792 0.0
C921 C 0.83864 0.66241 0.74469 0.0
H922 H 0.85355 0.7098 0.58395 0.0
H923 H 0.80948 0.64913 0.53869 0.0
H924 H 0.7955 0.63264 0.60398 0.0
H925 H 0.78613 0.61842 0.56734 0.0
H926 H 0.82025 0.63459 0.78047 0.0
H927 H 0.87551 0.69437 0.82249 0.0
H928 H 0.87957 0.70938 0.75697 0.0
H929 H 0.89604 0.72369 0.79262 0.0
Tb930 Tb 0.35937 0.16268 0.65504 0.0
C931 C 0.27536 0.13961 0.72311 0.0
C932 C 0.26188 0.1717 0.71736 0.0
C933 C 0.23061 0.1299 0.73272 0.0
C934 C 0.28105 0.16367 0.71585 0.0
C935 C 0.25031 0.12261 0.7321 0.0
C936 C 0.23639 0.15443 0.72535 0.0
C937 C 0.26703 0.09373 0.74093 0.0
N938 N 0.29501 0.13349 0.72239 0.0
C939 C 0.29157 0.11132 0.73188 0.0
C940 C 0.24616 0.09922 0.74079 0.0
Tb941 Tb 0.33448 0.16332 0.70712 0.0
N942 N 0.30601 0.17981 0.7085 0.0
C943 C 0.31369 0.20511 0.70387 0.0
C944 C 0.2692 0.19708 0.71143 0.0
C945 C 0.29535 0.21397 0.70497 0.0
H946 H 0.30752 0.10681 0.73197 0.0
H947 H 0.30139 0.23382 0.70074 0.0
H948 H 0.22127 0.16011 0.7264 0.0
H949 H 0.26422 0.07594 0.74798 0.0
H950 H 0.33374 0.21847 0.69874 0.0
H951 H 0.39457 0.09373 0.66091 0.0
H952 H 0.25504 0.20399 0.71226 0.0
H953 H 0.38536 0.21954 0.63086 0.0
H954 H 0.36138 0.10803 0.66297 0.0
H955 H 0.42839 0.25112 0.61484 0.0
H956 H 0.21112 0.11702 0.73938 0.0
H957 H 0.44072 0.1244 0.64946 0.0
H958 H 0.47376 0.16862 0.63545 0.0
H959 H 0.22721 0.08562 0.74787 0.0
H960 H 0.48296 0.2115 0.6227 0.0
N961 N 0.38852 0.147 0.65352 0.0
C962 C 0.38138 0.12178 0.65797 0.0
C963 C 0.42624 0.13089 0.65042 0.0
C964 C 0.43301 0.1562 0.64466 0.0
C965 C 0.40019 0.11352 0.65683 0.0
C966 C 0.41343 0.16368 0.64633 0.0
H967 H 0.46596 0.24225 0.61455 0.0
N968 N 0.39863 0.19335 0.64011 0.0
C969 C 0.42596 0.2334 0.62175 0.0
C970 C 0.41863 0.18768 0.63922 0.0
C971 C 0.40158 0.21544 0.63082 0.0
C972 C 0.44714 0.22836 0.62166 0.0
C973 C 0.44351 0.20508 0.63018 0.0
O974 O 0.34535 0.16705 0.62573 0.0
O975 O 0.32988 0.16534 0.67387 0.0
O976 O 0.30407 0.12781 0.69168 0.0
O977 O 0.32979 0.12316 0.66559 0.0
O978 O 0.3424 0.18789 0.64789 0.0
O979 O 0.34529 0.13171 0.63355 0.0
O980 O 0.34706 0.1586 0.73698 0.0
O981 O 0.36378 0.16015 0.68836 0.0
O982 O 0.39006 0.19713 0.67081 0.0
O983 O 0.365 0.20298 0.69672 0.0
O984 O 0.35049 0.13753 0.71436 0.0
O985 O 0.3512 0.19532 0.72755 0.0
C986 C 0.32602 0.1811 0.66333 0.0
C987 C 0.35287 0.14539 0.59808 0.0
C988 C 0.34939 0.14539 0.55986 0.0
C989 C 0.33824 0.14345 0.57993 0.0
C990 C 0.37569 0.14986 0.55843 0.0
C991 C 0.37857 0.14876 0.59611 0.0
C992 C 0.39 0.15127 0.57643 0.0
C993 C 0.30765 0.11401 0.67698 0.0
C994 C 0.34144 0.14478 0.61886 0.0
C995 C 0.46359 0.1983 0.62939 0.0
C996 C 0.45835 0.17389 0.63665 0.0
C997 C 0.36696 0.14399 0.69901 0.0
C998 C 0.34379 0.18453 0.76351 0.0
C999 C 0.35922 0.18759 0.78141 0.0
C1000 C 0.35052 0.19044 0.80135 0.0
C1001 C 0.32596 0.18987 0.8031 0.0
C1002 C 0.31946 0.18423 0.76563 0.0
C1003 C 0.31058 0.18676 0.78533 0.0
C1004 C 0.38708 0.21145 0.68529 0.0
C1005 C 0.3536 0.18205 0.74283 0.0
H1006 H 0.31808 0.14005 0.58154 0.0
H1007 H 0.38532 0.15229 0.5434 0.0
H1008 H 0.38988 0.14946 0.6097 0.0
H1009 H 0.41004 0.15432 0.57512 0.0
H1010 H 0.37822 0.18825 0.77971 0.0
H1011 H 0.31852 0.19161 0.81824 0.0
H1012 H 0.30742 0.18224 0.75212 0.0
H1013 H 0.29173 0.18639 0.78683 0.0
Tb1014 Tb 0.86878 0.18045 0.7094 0.0
C1015 C 0.81236 0.20815 0.64199 0.0
C1016 C 0.766 0.17531 0.64615 0.0
C1017 C 0.77759 0.21826 0.63333 0.0
C1018 C 0.79339 0.18347 0.64797 0.0
C1019 C 0.80477 0.22568 0.63405 0.0
C1020 C 0.7582 0.19309 0.6394 0.0
C1021 C 0.8512 0.25533 0.62618 0.0
N1022 N 0.8383 0.21434 0.64271 0.0
C1023 C 0.85768 0.23719 0.63416 0.0
C1024 C 0.82467 0.24972 0.62641 0.0
Tb1025 Tb 0.84717 0.18379 0.6566 0.0
N1026 N 0.80183 0.16686 0.65404 0.0
C1027 C 0.78372 0.14108 0.65693 0.0
C1028 C 0.74737 0.14932 0.6504 0.0
C1029 C 0.7563 0.13203 0.65541 0.0
H1030 H 0.87826 0.24176 0.63408 0.0
H1031 H 0.74208 0.11174 0.65825 0.0
H1032 H 0.73726 0.18731 0.63816 0.0
H1033 H 0.86668 0.27363 0.61991 0.0
H1034 H 0.79017 0.12743 0.66099 0.0
H1035 H 0.97458 0.25044 0.70946 0.0
H1036 H 0.72614 0.14227 0.64924 0.0
H1037 H 0.83551 0.12158 0.73022 0.0
H1038 H 0.92688 0.23608 0.70597 0.0
H1039 H 0.84551 0.08868 0.7445 0.0
H1040 H 0.77132 0.23154 0.62751 0.0
H1041 H 0.989 0.2189 0.719 0.0
H1042 H 0.97629 0.17347 0.73012 0.0
H1043 H 0.81969 0.26375 0.62015 0.0
H1044 H 0.94108 0.12938 0.73997 0.0
N1045 N 0.91387 0.1963 0.71277 0.0
C1046 C 0.93263 0.22194 0.71016 0.0
C1047 C 0.96791 0.21239 0.71742 0.0
C1048 C 0.94862 0.18653 0.72139 0.0
C1049 C 0.95985 0.23025 0.71211 0.0
C1050 C 0.92147 0.17908 0.71898 0.0
H1051 H 0.8922 0.09774 0.74583 0.0
N1052 N 0.87607 0.14876 0.72303 0.0
C1053 C 0.86154 0.10706 0.73883 0.0
C1054 C 0.90183 0.15442 0.72448 0.0
C1055 C 0.85595 0.12577 0.73077 0.0
C1056 C 0.88791 0.11222 0.73951 0.0
C1057 C 0.90851 0.1363 0.73257 0.0
O1058 O 0.84832 0.17318 0.73813 0.0
O1059 O 0.83797 0.17893 0.68948 0.0
O1060 O 0.85198 0.21803 0.67339 0.0
O1061 O 0.88025 0.22069 0.70067 0.0
O1062 O 0.82553 0.15431 0.71411 0.0
O1063 O 0.88371 0.20992 0.73229 0.0
O1064 O 0.86679 0.19141 0.62742 0.0
O1065 O 0.87834 0.18595 0.67647 0.0
O1066 O 0.8663 0.14784 0.69205 0.0
O1067 O 0.8373 0.14355 0.66492 0.0
O1068 O 0.89004 0.21045 0.65158 0.0
O1069 O 0.83303 0.1538 0.63427 0.0
C1070 C 0.81717 0.16223 0.69869 0.0
C1071 C 0.8755 0.19451 0.76723 0.0
C1072 C 0.87305 0.19798 0.8053 0.0
C1073 C 0.86424 0.19947 0.78497 0.0
C1074 C 0.89285 0.19089 0.80746 0.0
C1075 C 0.89571 0.18825 0.76991 0.0
C1076 C 0.90415 0.18623 0.78989 0.0
C1077 C 0.86859 0.23073 0.68898 0.0
C1078 C 0.86576 0.19548 0.74608 0.0
C1079 C 0.9355 0.14311 0.73401 0.0
C1080 C 0.95554 0.1682 0.72839 0.0
C1081 C 0.8988 0.20306 0.66708 0.0
C1082 C 0.83917 0.16784 0.59905 0.0
C1083 C 0.85161 0.16455 0.58131 0.0
C1084 C 0.84126 0.16345 0.56109 0.0
C1085 C 0.81845 0.16604 0.55895 0.0
C1086 C 0.81636 0.1702 0.5965 0.0
C1087 C 0.80615 0.1694 0.57655 0.0
C1088 C 0.85018 0.13459 0.67644 0.0
C1089 C 0.85006 0.16851 0.62005 0.0
H1090 H 0.84902 0.20486 0.78286 0.0
H1091 H 0.89962 0.18881 0.82278 0.0
H1092 H 0.90501 0.18491 0.75663 0.0
H1093 H 0.91955 0.18105 0.79176 0.0
H1094 H 0.86903 0.16237 0.58332 0.0
H1095 H 0.81023 0.16572 0.54364 0.0
H1096 H 0.80632 0.17249 0.60986 0.0
H1097 H 0.7886 0.17134 0.57472 0.0
H1098 H 0.33578 0.82772 0.05016 0.0
H1099 H 0.41301 0.98245 0.03942 0.0
H1100 H 0.29968 0.8746 0.06397 0.0
H1101 H 0.44751 0.93497 0.02334 0.0
H1102 H 0.37005 0.94299 0.04543 0.0
H1103 H 0.37535 0.86635 0.03723 0.0
C1104 C 0.33596 0.84606 0.05023 0.0
C1105 C 0.31422 0.8478 0.05823 0.0
C1106 C 0.38688 0.94115 0.04027 0.0
C1107 C 0.36 0.89244 0.04375 0.0
C1108 C 0.41135 0.96366 0.03679 0.0
C1109 C 0.43367 0.96195 0.03051 0.0
C1110 C 0.38486 0.91669 0.03788 0.0
C1111 C 0.4307 0.9372 0.02768 0.0
C1112 C 0.35872 0.8682 0.04294 0.0
C1113 C 0.31603 0.87231 0.05826 0.0
N1114 N 0.40677 0.91554 0.03149 0.0
N1115 N 0.33854 0.89365 0.05125 0.0
H1116 H 0.19095 0.50466 0.04681 0.0
H1117 H 0.03084 0.43248 0.04691 0.0
H1118 H 0.14053 0.42593 0.06835 0.0
H1119 H 0.08109 0.5123 0.02846 0.0
H1120 H 0.07076 0.42867 0.05231 0.0
H1121 H 0.15107 0.50656 0.03688 0.0
C1122 C 0.17153 0.48763 0.04923 0.0
C1123 C 0.16922 0.46512 0.05857 0.0
C1124 C 0.0731 0.44696 0.04684 0.0
C1125 C 0.12328 0.46738 0.04751 0.0
C1126 C 0.05031 0.44911 0.04374 0.0
C1127 C 0.05263 0.47251 0.03662 0.0
C1128 C 0.09852 0.46856 0.0432 0.0
C1129 C 0.07833 0.49367 0.03325 0.0
C1130 C 0.14872 0.48883 0.04369 0.0
C1131 C 0.14339 0.44385 0.06153 0.0
N1132 N 0.10025 0.4912 0.03653 0.0
N1133 N 0.12151 0.44555 0.05612 0.0
H1134 H 0.49983 0.68398 0.05321 0.0
H1135 H 0.57072 0.6007 0.03946 0.0
H1136 H 0.58532 0.71791 0.05888 0.0
H1137 H 0.49658 0.58032 0.00818 0.0
H1138 H 0.5758 0.64307 0.04826 0.0
H1139 H 0.49749 0.64542 0.03746 0.0
C1140 C 0.5182 0.68363 0.05082 0.0
C1141 C 0.54281 0.70428 0.05765 0.0
C1142 C 0.55858 0.62941 0.03927 0.0
C1143 C 0.54003 0.65968 0.04019 0.0
C1144 C 0.55559 0.60518 0.03434 0.0
C1145 C 0.53315 0.58691 0.02314 0.0
C1146 C 0.53872 0.63521 0.03334 0.0
C1147 C 0.51424 0.59383 0.0168 0.0
C1148 C 0.51678 0.66146 0.04194 0.0
C1149 C 0.56581 0.70228 0.0544 0.0
N1150 N 0.51727 0.61732 0.02222 0.0
N1151 N 0.56381 0.68024 0.0462 0.0
H1152 H 0.81711 0.31779 0.97838 0.0
H1153 H 0.97367 0.40758 0.99192 0.0
H1154 H 0.87204 0.28896 0.9703 0.0
H1155 H 0.91745 0.4251 0.02185 0.0
H1156 H 0.93674 0.36491 0.98215 0.0
H1157 H 0.85342 0.35791 0.993 0.0
C1158 C 0.83665 0.31964 0.97991 0.0
C1159 C 0.84139 0.2998 0.97294 0.0
C1160 C 0.93252 0.378 0.99102 0.0
C1161 C 0.88329 0.3462 0.98922 0.0
C1162 C 0.95359 0.40243 0.99656 0.0
C1163 C 0.94868 0.42002 0.00769 0.0
C1164 C 0.90624 0.37123 0.99631 0.0
C1165 C 0.9222 0.41216 0.01332 0.0
C1166 C 0.85743 0.34269 0.98816 0.0
C1167 C 0.86742 0.30381 0.975 0.0
N1168 N 0.90194 0.38846 0.00736 0.0
N1169 N 0.88739 0.32659 0.98275 0.0
H1170 H 0.68953 0.50136 0.97921 0.0
H1171 H 0.60719 0.57674 0.98764 0.0
H1172 H 0.72329 0.58322 0.96625 0.0
H1173 H 0.57494 0.49663 0.00565 0.0
H1174 H 0.65062 0.57999 0.98167 0.0
H1175 H 0.64848 0.49973 0.99106 0.0
C1176 C 0.68852 0.5191 0.97908 0.0
C1177 C 0.71005 0.54246 0.97155 0.0
C1178 C 0.63418 0.56176 0.98719 0.0
C1179 C 0.66262 0.54056 0.98484 0.0
C1180 C 0.60941 0.55993 0.99063 0.0
C1181 C 0.58757 0.53656 0.99754 0.0
C1182 C 0.63709 0.53983 0.99022 0.0
C1183 C 0.59136 0.5152 1.00082 0.0
C1184 C 0.66492 0.51809 0.98575 0.0
C1185 C 0.70717 0.56465 0.97152 0.0
N1186 N 0.61559 0.51731 0.99704 0.0
N1187 N 0.68393 0.5631 0.97791 0.0
H1188 H 0.49143 0.18896 0.99583 0.0
H1189 H 0.45883 0.04306 0.97852 0.0
H1190 H 0.46901 0.14948 0.93611 0.0
H1191 H 0.51317 0.09164 0.02685 0.0
H1192 H 0.45478 0.07981 0.96646 0.0
H1193 H 0.49281 0.15155 0.01065 0.0
C1194 C 0.48683 0.17255 0.98578 0.0
C1195 C 0.48005 0.17254 0.9646 0.0
C1196 C 0.46746 0.08238 0.9798 0.0
C1197 C 0.48095 0.12944 0.98172 0.0
C1198 C 0.46976 0.06136 0.98678 0.0
C1199 C 0.48646 0.06417 1.00377 0.0
C1200 C 0.48172 0.10646 0.98991 0.0
C1201 C 0.49993 0.08846 0.01381 0.0
C1202 C 0.4875 0.15117 0.99433 0.0
C1203 C 0.47379 0.15036 0.95258 0.0
N1204 N 0.4973 0.10873 0.00671 0.0
N1205 N 0.47431 0.12977 0.96132 0.0
H1206 H 0.69205 0.15443 0.95789 0.0
H1207 H 0.54977 0.07237 0.00934 0.0
H1208 H 0.66201 0.18502 0.00539 0.0
H1209 H 0.59201 0.03417 0.98742 0.0
H1210 H 0.59 0.11412 0.00528 0.0
H1211 H 0.65571 0.11039 0.96626 0.0
C1212 C 0.6781 0.15192 0.97024 0.0
C1213 C 0.67982 0.1736 0.98064 0.0
C1214 C 0.59068 0.09664 1.0016 0.0
C1215 C 0.63811 0.12345 0.98997 0.0
C1216 C 0.56762 0.07264 1.00408 0.0
C1217 C 0.56771 0.04957 0.99955 0.0
C1218 C 0.61393 0.09783 0.99372 0.0
C1219 C 0.59131 0.05151 0.99158 0.0
C1220 C 0.65734 0.1268 0.97494 0.0
C1221 C 0.66108 0.16907 0.99647 0.0
N1222 N 0.61353 0.07526 0.98883 0.0
N1223 N 0.64089 0.14464 1.00043 0.0
H1224 H 0.82796 0.48112 0.01414 0.0
H1225 H 0.98174 0.55289 0.98374 0.0
H1226 H 0.85533 0.53097 0.95973 0.0
H1227 H 0.939 0.47464 0.00763 0.0
H1228 H 0.93882 0.55214 0.97986 0.0
H1229 H 0.87235 0.48652 0.01811 0.0
C1230 C 0.84326 0.49325 1.00298 0.0
C1231 C 0.83749 0.505 0.98618 0.0
C1232 C 0.93902 0.53527 0.98611 0.0
C1233 C 0.88891 0.51182 0.99114 0.0
C1234 C 0.96341 0.53568 0.98837 0.0
C1235 C 0.9641 0.51418 0.9969 0.0
C1236 C 0.91527 0.51321 0.99248 0.0
C1237 C 0.93972 0.49209 1.00199 0.0
C1238 C 0.86867 0.49637 0.00536 0.0
C1239 C 0.85869 0.52138 0.97283 0.0
N1240 N 0.91642 0.49231 1.0 0.0
N1241 N 0.88348 0.52422 0.97553 0.0
H1242 H 0.5542 0.34433 1.003 0.0
H1243 H 0.48422 0.42901 0.9786 0.0
H1244 H 0.50073 0.32774 0.95076 0.0
H1245 H 0.54244 0.44544 0.02724 0.0
H1246 H 0.48632 0.38979 0.96952 0.0
H1247 H 0.54621 0.3792 0.01368 0.0
C1248 C 0.54078 0.3481 0.99373 0.0
C1249 C 0.52842 0.33336 0.97579 0.0
C1250 C 0.49837 0.40193 0.98232 0.0
C1251 C 0.51899 0.3734 0.988 0.0
C1252 C 0.49717 0.42429 0.98754 0.0
C1253 C 0.51302 0.44057 1.00387 0.0
C1254 C 0.51553 0.39588 0.99353 0.0
C1255 C 0.52952 0.43348 0.01479 0.0
C1256 C 0.53611 0.36798 0.99989 0.0
C1257 C 0.51069 0.33869 0.96469 0.0
N1258 N 0.53035 0.41182 0.0094 0.0
N1259 N 0.50665 0.35847 0.97087 0.0
H1260 H 0.2083 0.65521 0.05907 0.0
H1261 H 0.05229 0.58569 0.04181 0.0
H1262 H 0.17406 0.70293 0.04235 0.0
H1263 H 0.10228 0.55777 0.01559 0.0
H1264 H 0.093 0.6268 0.05111 0.0
H1265 H 0.16498 0.61653 0.05361 0.0
C1266 C 0.19166 0.65762 0.05433 0.0
C1267 C 0.1951 0.68244 0.05057 0.0
C1268 C 0.09478 0.61154 0.04328 0.0
C1269 C 0.14515 0.638 0.04487 0.0
C1270 C 0.07169 0.58815 0.03803 0.0
C1271 C 0.07386 0.56822 0.02792 0.0
C1272 C 0.11996 0.61448 0.03893 0.0
C1273 C 0.0995 0.57247 0.02333 0.0
C1274 C 0.16693 0.6355 0.05131 0.0
C1275 C 0.1724 0.68421 0.04527 0.0
N1276 N 0.12145 0.59493 0.02907 0.0
N1277 N 0.14831 0.66221 0.04239 0.0
H1278 H 0.36491 0.54242 0.04906 0.0
H1279 H 0.42931 0.45099 0.0389 0.0
H1280 H 0.31526 0.46 0.03856 0.0
H1281 H 0.47092 0.53311 0.02578 0.0
H1282 H 0.38769 0.45253 0.04355 0.0
H1283 H 0.40438 0.53794 0.04612 0.0
C1284 C 0.36227 0.52329 0.04617 0.0
C1285 C 0.33662 0.50164 0.04363 0.0
C1286 C 0.40594 0.47011 0.03945 0.0
C1287 C 0.38217 0.49631 0.04048 0.0
C1288 C 0.42962 0.46926 0.03681 0.0
C1289 C 0.45345 0.49179 0.03124 0.0
C1290 C 0.4064 0.4939 0.03725 0.0
C1291 C 0.45297 0.51509 0.02924 0.0
C1292 C 0.3849 0.52076 0.04448 0.0
C1293 C 0.3346 0.47723 0.04056 0.0
N1294 N 0.42992 0.51553 0.03227 0.0
N1295 N 0.35711 0.47522 0.03894 0.0
H1296 H 0.52884 0.84216 0.08187 0.0
H1297 H 0.48105 0.91587 1.00335 0.0
H1298 H 0.47092 0.80592 0.03248 0.0
H1299 H 0.538 0.95651 0.05265 0.0
H1300 H 0.48091 0.87646 0.01256 0.0
H1301 H 0.53609 0.88488 0.07037 0.0
C1302 C 0.51787 0.84324 0.06852 0.0
C1303 C 0.49898 0.82048 0.05827 0.0
C1304 C 0.49366 0.89394 0.02136 0.0
C1305 C 0.50711 0.86896 0.04511 0.0
C1306 C 0.49394 0.91673 0.01595 0.0
C1307 C 0.50981 0.93984 0.02703 0.0
C1308 C 0.50907 0.89381 0.03828 0.0
C1309 C 0.52549 0.93918 0.04361 0.0
C1310 C 0.52192 0.86755 0.06203 0.0
C1311 C 0.48528 0.8229 0.04109 0.0
N1312 N 0.52462 0.91646 0.04884 0.0
N1313 N 0.48955 0.8466 0.03515 0.0
H1314 H 0.96632 0.20964 0.3963 0.0
H1315 H 0.11672 0.26906 0.3554 0.0
H1316 H 1.00568 0.1646 0.38805 0.0
H1317 H 0.08201 0.31585 0.37321 0.0
H1318 H 0.07387 0.22987 0.36188 0.0
H1319 H 1.00635 0.24797 0.38316 0.0
C1320 C 0.98333 0.20775 0.39173 0.0
C1321 C 0.98256 0.18378 0.39345 0.0
C1322 C 0.07549 0.2487 0.36412 0.0
C1323 C 0.02846 0.22764 0.37811 0.0
C1324 C 0.09994 0.27111 0.3602 0.0
C1325 C 0.10277 0.29575 0.36341 0.0
C1326 C 0.05383 0.25094 0.3716 0.0
C1327 C 0.08051 0.29717 0.37036 0.0
C1328 C 1.00614 0.22964 0.3841 0.0
C1329 C 1.00512 0.18251 0.38683 0.0
N1330 N 0.057 0.27511 0.37427 0.0
N1331 N 0.02713 0.20412 0.37958 0.0
H1332 H 0.82359 0.79924 0.42721 0.0
H1333 H 0.75278 0.84899 0.35573 0.0
H1334 H 0.84965 0.80929 0.36259 0.0
H1335 H 0.70497 0.77307 0.38315 0.0
H1336 H 0.79304 0.84581 0.36228 0.0
H1337 H 0.78397 0.80042 0.41615 0.0
C1338 C 0.82109 0.80134 0.41067 0.0
C1339 C 0.84026 0.80358 0.39586 0.0
C1340 C 0.77362 0.82976 0.36652 0.0
C1341 C 0.79516 0.8066 0.38344 0.0
C1342 C 0.75064 0.83144 0.36266 0.0
C1343 C 0.72534 0.8108 0.36816 0.0
C1344 C 0.7713 0.80789 0.3769 0.0
C1345 C 0.72401 0.78916 0.37824 0.0
C1346 C 0.79847 0.80234 0.40448 0.0
C1347 C 0.8359 0.80769 0.37477 0.0
N1348 N 0.74667 0.78838 0.38251 0.0
N1349 N 0.81394 0.80929 0.36922 0.0
H1350 H 0.19716 0.04111 0.36851 0.0
H1351 H 0.23151 0.92794 0.38577 0.0
H1352 H 0.22356 0.02598 0.42748 0.0
H1353 H 0.1751 0.92216 0.33869 0.0
H1354 H 0.23538 0.96861 0.39771 0.0
H1355 H 0.1945 1.0015 0.35422 0.0
C1356 C 0.20234 0.02953 0.37849 0.0
C1357 C 0.21083 0.03717 0.39924 0.0
C1358 C 0.22226 0.95851 0.38468 0.0
C1359 C 0.20838 0.99222 0.38278 0.0
C1360 C 0.22007 0.93527 0.37777 0.0
C1361 C 0.20293 0.92148 0.36112 0.0
C1362 C 0.20741 0.96831 0.37483 0.0
C1363 C 0.18875 0.93218 0.35141 0.0
C1364 C 0.20093 0.00701 0.37026 0.0
C1365 C 0.2176 0.02144 0.41127 0.0
N1366 N 0.19129 0.95499 0.35841 0.0
N1367 N 0.21636 0.99987 0.40284 0.0
H1368 H 0.53059 0.65054 0.27218 0.0
H1369 H 0.59208 0.75461 0.36165 0.0
H1370 H 0.50257 0.62873 0.33583 0.0
H1371 H 0.64125 0.74998 0.31279 0.0
H1372 H 0.55576 0.71169 0.35119 0.0
H1373 H 0.5682 0.6905 0.28527 0.0
C1374 C 0.53236 0.65377 0.28893 0.0
C1375 C 0.51316 0.63571 0.30284 0.0
C1376 C 0.57466 0.72008 0.34298 0.0
C1377 C 0.55597 0.68247 0.31779 0.0
C1378 C 0.59547 0.74453 0.34898 0.0
C1379 C 0.62001 0.756 0.33829 0.0
C1380 C 0.57813 0.70735 0.32577 0.0
C1381 C 0.62282 0.7421 0.32157 0.0
C1382 C 0.55383 0.67684 0.29633 0.0
C1383 C 0.51642 0.642 0.32434 0.0
N1384 N 0.60207 0.71872 0.31568 0.0
N1385 N 0.53725 0.66495 0.33113 0.0
H1386 H 0.35948 0.83681 0.31461 0.0
H1387 H 0.27759 0.91259 0.32435 0.0
H1388 H 0.39281 0.91842 0.30084 0.0
H1389 H 0.24442 0.8316 0.3398 0.0
H1390 H 0.321 0.9158 0.3184 0.0
H1391 H 0.31857 0.83524 0.32676 0.0
C1392 C 0.35841 0.85451 0.31438 0.0
C1393 C 0.37976 0.87778 0.30654 0.0
C1394 C 0.30436 0.89738 0.32337 0.0
C1395 C 0.33251 0.87596 0.32018 0.0
C1396 C 0.2796 0.89558 0.32681 0.0
C1397 C 0.25751 0.87195 0.33298 0.0
C1398 C 0.30701 0.87521 0.32568 0.0
C1399 C 0.26103 0.85034 0.33557 0.0
C1400 C 0.33489 0.85354 0.32121 0.0
C1401 C 0.37682 0.89993 0.30638 0.0
N1402 N 0.28527 0.85246 0.33183 0.0
N1403 N 0.35367 0.89843 0.31296 0.0
H1404 H 0.1913 0.52691 0.3024 0.0
H1405 H 0.11896 0.37526 0.31976 0.0
H1406 H 0.10556 0.47914 0.29724 0.0
H1407 H 0.19171 0.42784 0.35227 0.0
H1408 H 0.11457 0.41244 0.30864 0.0
H1409 H 0.19297 0.49033 0.31809 0.0
C1410 C 0.17274 0.50891 0.30477 0.0
C1411 C 0.1482 0.50633 0.29845 0.0
C1412 C 0.13133 0.41576 0.31839 0.0
C1413 C 0.15025 0.464 0.31589 0.0
C1414 C 0.1339 0.39458 0.32469 0.0
C1415 C 0.15579 0.39845 0.3369 0.0
C1416 C 0.15107 0.44101 0.32395 0.0
C1417 C 0.17449 0.42393 0.3429 0.0
C1418 C 0.17379 0.48797 0.31365 0.0
C1419 C 0.125 0.48207 0.30145 0.0
N1420 N 0.1719 0.44429 0.33613 0.0
N1421 N 0.12663 0.4618 0.30978 0.0
H1422 H 0.31676 0.51864 0.30702 0.0
H1423 H 0.26224 0.3675 0.32446 0.0
H1424 H 0.37107 0.49131 0.32337 0.0
H1425 H 0.2163 0.40548 0.33511 0.0
H1426 H 0.30232 0.41056 0.31918 0.0
H1427 H 0.27945 0.47483 0.31156 0.0
C1428 C 0.32089 0.50341 0.31161 0.0
C1429 C 0.34717 0.5089 0.31528 0.0
C1430 C 0.28345 0.40933 0.32295 0.0
C1431 C 0.30418 0.45822 0.32017 0.0
C1432 C 0.26067 0.38488 0.32595 0.0
C1433 C 0.23607 0.38296 0.33098 0.0
C1434 C 0.28123 0.43183 0.3242 0.0
C1435 C 0.23488 0.40594 0.33218 0.0
C1436 C 0.29951 0.47834 0.31417 0.0
C1437 C 0.35117 0.48803 0.32045 0.0
N1438 N 0.25704 0.42931 0.32877 0.0
N1439 N 0.32986 0.46355 0.32285 0.0
H1440 H 0.49455 0.79658 0.30638 0.0
H1441 H 0.65139 0.88975 0.31904 0.0
H1442 H 0.52669 0.87789 0.32075 0.0
H1443 H 0.61027 0.80828 0.33467 0.0
H1444 H 0.6078 0.88714 0.31366 0.0
H1445 H 0.53894 0.80202 0.31011 0.0
C1446 C 0.51093 0.81565 0.31035 0.0
C1447 C 0.50657 0.83667 0.31375 0.0
C1448 C 0.60844 0.86994 0.31843 0.0
C1449 C 0.55799 0.84311 0.31757 0.0
C1450 C 0.63321 0.87139 0.32145 0.0
C1451 C 0.63443 0.84939 0.32796 0.0
C1452 C 0.58482 0.84605 0.32113 0.0
C1453 C 0.61035 0.82592 0.33039 0.0
C1454 C 0.53634 0.81871 0.31243 0.0
C1455 C 0.52898 0.8611 0.31806 0.0
N1456 N 0.58663 0.82487 0.32693 0.0
N1457 N 0.55375 0.86365 0.31994 0.0
H1458 H 0.16524 0.66056 0.28146 0.0
H1459 H 0.21163 0.78041 0.35967 0.0
H1460 H 0.21998 0.67879 0.33303 0.0
H1461 H 0.15345 0.76454 0.31111 0.0
H1462 H 0.21213 0.74138 0.3506 0.0
H1463 H 0.1579 0.69635 0.29239 0.0
C1464 C 0.17551 0.67194 0.29516 0.0
C1465 C 0.19355 0.66699 0.3062 0.0
C1466 C 0.19901 0.74612 0.34193 0.0
C1467 C 0.18532 0.7077 0.31869 0.0
C1468 C 0.19852 0.76852 0.34728 0.0
C1469 C 0.18214 0.77579 0.33641 0.0
C1470 C 0.18333 0.73071 0.32527 0.0
C1471 C 0.16631 0.75967 0.32 0.0
C1472 C 0.17139 0.69236 0.30132 0.0
C1473 C 0.20635 0.68226 0.32379 0.0
N1474 N 0.16739 0.73788 0.31483 0.0
N1475 N 0.20206 0.7019 0.32939 0.0
H1476 H 0.87765 0.01473 0.34925 0.0
H1477 H 0.72516 0.91775 0.38066 0.0
H1478 H 0.84415 0.02453 0.40657 0.0
H1479 H 0.77078 0.90164 0.3356 0.0
H1480 H 0.76518 0.96013 0.38773 0.0
H1481 H 0.8347 0.97716 0.34066 0.0
C1482 C 0.86114 0.00899 0.36002 0.0
C1483 C 0.86461 0.02247 0.37884 0.0
C1484 C 0.76616 0.94729 0.37615 0.0
C1485 C 0.81511 0.9792 0.36912 0.0
C1486 C 0.74336 0.92314 0.37208 0.0
C1487 C 0.74435 0.90611 0.35724 0.0
C1488 C 0.78992 0.95444 0.36514 0.0
C1489 C 0.76861 0.91412 0.34678 0.0
C1490 C 0.83658 0.98751 0.35511 0.0
C1491 C 0.84231 0.01455 0.39195 0.0
N1492 N 0.79024 0.93757 0.35089 0.0
N1493 N 0.81848 0.99319 0.38696 0.0
H1494 H 0.0371 0.88037 0.38615 0.0
H1495 H 0.09772 0.78641 0.37182 0.0
H1496 H 0.98556 0.79889 0.37275 0.0
H1497 H 0.1411 0.86884 0.35998 0.0
H1498 H 0.0567 0.78895 0.37678 0.0
H1499 H 0.07575 0.87479 0.382 0.0
C1500 C 0.03384 0.86122 0.3823 0.0
C1501 C 1.00789 0.84019 0.37934 0.0
C1502 C 0.0752 0.80638 0.37288 0.0
C1503 C 0.05256 0.83357 0.3749 0.0
C1504 C 0.09856 0.80496 0.37007 0.0
C1505 C 0.12274 0.82732 0.36485 0.0
C1506 C 0.07634 0.83053 0.37121 0.0
C1507 C 0.12289 0.85097 0.36325 0.0
C1508 C 0.05603 0.85807 0.37996 0.0
C1509 C 1.00513 0.81568 0.37511 0.0
N1510 N 0.10016 0.85194 0.36646 0.0
N1511 N 0.02722 0.81304 0.37292 0.0
H1512 H 0.19554 0.1755 0.41423 0.0
H1513 H 0.14928 0.24951 0.33466 0.0
H1514 H 0.13639 0.1387 0.36571 0.0
H1515 H 0.20575 0.28969 0.38435 0.0
H1516 H 0.14819 0.20971 0.34433 0.0
H1517 H 0.20311 0.21809 0.40227 0.0
C1518 C 0.18432 0.17641 0.40098 0.0
C1519 C 0.16507 0.15352 0.39109 0.0
C1520 C 0.16102 0.22719 0.35311 0.0
C1521 C 0.17359 0.20195 0.3774 0.0
C1522 C 0.16185 0.25018 0.34743 0.0
C1523 C 0.17783 0.27326 0.35853 0.0
C1524 C 0.17604 0.22689 0.37025 0.0
C1525 C 0.19315 0.2724 0.3753 0.0
C1526 C 0.18857 0.20067 0.39423 0.0
C1527 C 0.15105 0.15577 0.37406 0.0
N1528 N 0.19178 0.24952 0.38074 0.0
N1529 N 0.15553 0.17947 0.36783 0.0
H1530 H 0.6722 0.49501 0.72066 0.0
H1531 H 0.74593 0.64867 0.70449 0.0
H1532 H 0.63298 0.54027 0.72836 0.0
H1533 H 0.78183 0.60206 0.68966 0.0
H1534 H 0.7034 0.6089 0.7109 0.0
H1535 H 0.71141 0.53344 0.70697 0.0
C1536 C 0.67163 0.51292 0.71924 0.0
C1537 C 0.64912 0.5143 0.72578 0.0
C1538 C 0.72044 0.60731 0.70591 0.0
C1539 C 0.69444 0.55871 0.71042 0.0
C1540 C 0.74466 0.62999 0.7022 0.0
C1541 C 0.76727 0.62863 0.6962 0.0
C1542 C 0.71896 0.58302 0.7041 0.0
C1543 C 0.76479 0.60402 0.6938 0.0
C1544 C 0.69417 0.53494 0.7115 0.0
C1545 C 0.64995 0.5383 0.72388 0.0
N1546 N 0.74111 0.58218 0.6979 0.0
N1547 N 0.67226 0.55954 0.71651 0.0
H1548 H 0.49082 0.13338 0.76142 0.0
H1549 H 0.41904 0.18113 0.68907 0.0
H1550 H 0.51667 0.142 0.69681 0.0
H1551 H 0.37186 0.10512 0.7165 0.0
H1552 H 0.45963 0.17861 0.696 0.0
H1553 H 0.45116 0.1343 0.75008 0.0
C1554 C 0.48828 0.13513 0.74483 0.0
C1555 C 0.50737 0.137 0.7301 0.0
C1556 C 0.44029 0.1624 0.70016 0.0
C1557 C 0.46221 0.13973 0.71734 0.0
C1558 C 0.41712 0.1637 0.69609 0.0
C1559 C 0.39191 0.14283 0.70147 0.0
C1560 C 0.43821 0.14067 0.71061 0.0
C1561 C 0.39084 0.12136 0.71167 0.0
C1562 C 0.46563 0.13599 0.73848 0.0
C1563 C 0.50296 0.14067 0.70892 0.0
N1564 N 0.41364 0.12094 0.71613 0.0
N1565 N 0.48095 0.14211 0.70319 0.0
H1566 H 0.90098 0.36619 0.75986 0.0
H1567 H 0.84557 0.25758 0.67208 0.0
H1568 H 0.87407 0.37856 0.70004 0.0
H1569 H 0.90237 0.26381 0.71895 0.0
H1570 H 0.85246 0.30002 0.68294 0.0
H1571 H 0.89832 0.32675 0.74617 0.0
C1572 C 0.8949 0.36094 0.74373 0.0
C1573 C 0.88799 0.3761 0.73107 0.0
C1574 C 0.86359 0.29216 0.69065 0.0
C1575 C 0.88403 0.3301 0.71552 0.0
C1576 C 0.85979 0.26797 0.68439 0.0
C1577 C 0.87357 0.25708 0.69444 0.0
C1578 C 0.88089 0.30533 0.70736 0.0
C1579 C 0.89125 0.2713 0.7107 0.0
C1580 C 0.89319 0.33821 0.73599 0.0
C1581 C 0.87932 0.36747 0.71051 0.0
N1582 N 0.89421 0.29454 0.71675 0.0
N1583 N 0.87741 0.34496 0.70342 0.0
H1584 H 0.19603 0.98281 0.60533 0.0
H1585 H 0.25793 0.0868 0.69547 0.0
H1586 H 0.16459 0.96265 0.66825 0.0
H1587 H 0.30603 0.08111 0.64621 0.0
H1588 H 0.22073 0.04448 0.68477 0.0
H1589 H 0.23364 0.02245 0.61876 0.0
C1590 C 0.19706 0.98638 0.62202 0.0
C1591 C 0.17705 0.9688 0.63566 0.0
C1592 C 0.23958 0.05249 0.67652 0.0
C1593 C 0.21996 0.01518 0.65099 0.0
C1594 C 0.2609 0.0766 0.68266 0.0
C1595 C 0.28537 0.0876 0.67189 0.0
C1596 C 0.24255 0.03965 0.65916 0.0
C1597 C 0.28767 0.07356 0.65506 0.0
C1598 C 0.21856 0.00925 0.62962 0.0
C1599 C 0.17928 0.97552 0.65703 0.0
N1600 N 0.26649 0.05053 0.64909 0.0
N1601 N 0.20027 0.99824 0.66403 0.0
H1602 H 0.06226 0.25284 0.63323 0.0
H1603 H 0.91117 0.16406 0.67273 0.0
H1604 H 0.02604 0.17033 0.64425 0.0
H1605 H 0.94594 0.24497 0.65635 0.0
H1606 H 0.95427 0.16676 0.66616 0.0
H1607 H 0.02116 0.25107 0.64506 0.0
C1608 C 0.04569 0.23432 0.63814 0.0
C1609 C 0.04771 0.21167 0.63753 0.0
C1610 C 0.95259 0.18401 0.66422 0.0
C1611 C 1.00036 0.20953 0.65135 0.0
C1612 C 0.928 0.18252 0.66818 0.0
C1613 C 0.92514 0.20451 0.66557 0.0
C1614 C 0.97439 0.20756 0.65729 0.0
C1615 C 0.94743 0.22767 0.65883 0.0
C1616 C 0.02222 0.23335 0.645 0.0
C1617 C 0.02562 0.18836 0.64456 0.0
N1618 N 0.97105 0.22861 0.65495 0.0
N1619 N 1.00289 0.18787 0.65103 0.0
H1620 H 0.82194 0.85475 0.66323 0.0
H1621 H 0.79168 0.70969 0.64453 0.0
H1622 H 0.79771 0.81511 0.60366 0.0
H1623 H 0.84578 0.75852 0.69287 0.0
H1624 H 0.78656 0.746 0.63292 0.0
H1625 H 0.82441 0.81766 0.67748 0.0
C1626 C 0.81716 0.83836 0.6531 0.0
C1627 C 0.80956 0.83822 0.63213 0.0
C1628 C 0.79942 0.74872 0.64616 0.0
C1629 C 0.81177 0.79549 0.6486 0.0
C1630 C 0.80234 0.72795 0.65288 0.0
C1631 C 0.81925 0.73095 0.66976 0.0
C1632 C 0.81329 0.77274 0.65643 0.0
C1633 C 0.83237 0.75518 0.67993 0.0
C1634 C 0.81846 0.81716 0.66132 0.0
C1635 C 0.80312 0.81608 0.61999 0.0
N1636 N 0.82914 0.77519 0.67308 0.0
N1637 N 0.80431 0.79567 0.62841 0.0
H1638 H 0.02557 0.82421 0.62632 0.0
H1639 H 0.88327 0.73986 0.6759 0.0
H1640 H 0.99765 0.85137 0.67795 0.0
H1641 H 0.92604 0.70208 0.65424 0.0
H1642 H 0.92374 0.7817 0.67286 0.0
H1643 H 0.98889 0.77981 0.63302 0.0
C1644 C 0.01204 0.82089 0.6392 0.0
C1645 C 0.01447 0.84179 0.65129 0.0
C1646 C 0.92443 0.76426 0.66899 0.0
C1647 C 0.97229 0.79123 0.65865 0.0
C1648 C 0.90126 0.74023 0.67089 0.0
C1649 C 0.90146 0.71725 0.66622 0.0
C1650 C 0.94789 0.76558 0.66151 0.0
C1651 C 0.92525 0.71934 0.65853 0.0
C1652 C 0.99108 0.79556 0.64294 0.0
C1653 C 0.99617 0.83615 0.66773 0.0
N1654 N 0.94759 0.74313 0.65633 0.0
N1655 N 0.97571 0.81158 0.6707 0.0
H1656 H 0.16387 0.14744 0.67888 0.0
H1657 H 0.31743 0.21906 0.64741 0.0
H1658 H 0.19139 0.19778 0.62476 0.0
H1659 H 0.27547 0.14148 0.67275 0.0
H1660 H 0.27439 0.21805 0.64374 0.0
H1661 H 0.20816 0.1525 0.68263 0.0
C1662 C 0.17917 0.15958 0.66772 0.0
C1663 C 0.17347 0.17163 0.65109 0.0
C1664 C 0.27477 0.20138 0.65024 0.0
C1665 C 0.22477 0.178 0.65577 0.0
C1666 C 0.29923 0.20194 0.65238 0.0
C1667 C 0.3002 0.18072 0.66122 0.0
C1668 C 0.25118 0.17944 0.65704 0.0
C1669 C 0.27597 0.15872 0.66678 0.0
C1670 C 0.20452 0.1625 0.66997 0.0
C1671 C 0.19468 0.18799 0.63774 0.0
N1672 N 0.25257 0.15879 0.66489 0.0
N1673 N 0.21939 0.19061 0.6403 0.0
H1674 H 0.88521 0.01026 0.66926 0.0
H1675 H 0.81799 0.09796 0.64692 0.0
H1676 H 0.83109 0.99454 0.61765 0.0
H1677 H 0.87927 0.11422 0.69279 0.0
H1678 H 0.81837 0.05787 0.63746 0.0
H1679 H 0.87861 0.04591 0.68006 0.0
C1680 C 0.87193 0.01439 0.66016 0.0
C1681 C 0.85902 0.99969 0.64235 0.0
C1682 C 0.83146 0.07019 0.64976 0.0
C1683 C 0.85123 0.04071 0.65465 0.0
C1684 C 0.83125 0.09304 0.65518 0.0
C1685 C 0.84837 0.10945 0.67092 0.0
C1686 C 0.84889 0.06383 0.6602 0.0
C1687 C 0.86526 0.10214 0.68093 0.0
C1688 C 0.86807 0.03474 0.66636 0.0
C1689 C 0.84148 0.0055 0.63146 0.0
N1690 N 0.86507 0.08003 0.67541 0.0
N1691 N 0.83826 0.02577 0.63767 0.0
H1692 H 0.54426 0.34521 0.68194 0.0
H1693 H 0.3913 0.24947 0.71285 0.0
H1694 H 0.51049 0.35565 0.73886 0.0
H1695 H 0.43658 0.23298 0.66773 0.0
H1696 H 0.43151 0.29169 0.71992 0.0
H1697 H 0.50116 0.30798 0.67314 0.0
C1698 C 0.52767 0.33967 0.69257 0.0
C1699 C 0.53108 0.35323 0.71134 0.0
C1700 C 0.43237 0.27881 0.70831 0.0
C1701 C 0.48142 0.31036 0.70139 0.0
C1702 C 0.40947 0.25475 0.70424 0.0
C1703 C 0.41031 0.23765 0.6894 0.0
C1704 C 0.4561 0.28579 0.69732 0.0
C1705 C 0.43452 0.24551 0.67891 0.0
C1706 C 0.50302 0.31838 0.68755 0.0
C1707 C 0.50868 0.34559 0.72428 0.0
N1708 N 0.45625 0.26887 0.68304 0.0
N1709 N 0.48478 0.32441 0.71918 0.0
H1710 H 0.65247 0.13119 0.70835 0.0
H1711 H 0.81071 0.20479 0.69482 0.0
H1712 H 0.70438 0.21293 0.72055 0.0
H1713 H 0.76702 0.12282 0.7086 0.0
H1714 H 0.77002 0.20686 0.69951 0.0
H1715 H 0.69224 0.12618 0.70507 0.0
C1716 C 0.67209 0.14799 0.71057 0.0
C1717 C 0.67498 0.17262 0.71437 0.0
C1718 C 0.7692 0.18834 0.70146 0.0
C1719 C 0.72042 0.16709 0.71023 0.0
C1720 C 0.79247 0.1871 0.69851 0.0
C1721 C 0.79217 0.16344 0.7007 0.0
C1722 C 0.74526 0.16578 0.70678 0.0
C1723 C 0.76797 0.14136 0.70643 0.0
C1724 C 0.69476 0.14513 0.70857 0.0
C1725 C 0.70103 0.19368 0.71702 0.0
N1726 N 0.74537 0.14297 0.70906 0.0
N1727 N 0.72257 0.19048 0.71467 0.0
H1728 H 0.86502 0.51026 0.74661 0.0
H1729 H 0.81451 0.58316 0.66976 0.0
H1730 H 0.8083 0.47402 0.69643 0.0
H1731 H 0.87226 0.62408 0.71851 0.0
H1732 H 0.81485 0.5439 0.67866 0.0
H1733 H 0.87071 0.55265 0.73605 0.0
C1734 C 0.85395 0.51125 0.7333 0.0
C1735 C 0.83589 0.48853 0.72254 0.0
C1736 C 0.82766 0.56141 0.68741 0.0
C1737 C 0.84225 0.53672 0.71045 0.0
C1738 C 0.82767 0.58411 0.68217 0.0
C1739 C 0.84367 0.60728 0.69316 0.0
C1740 C 0.84352 0.56142 0.70403 0.0
C1741 C 0.85966 0.60672 0.70954 0.0
C1742 C 0.85712 0.53539 0.72735 0.0
C1743 C 0.82201 0.4909 0.70546 0.0
N1744 N 0.85911 0.58408 0.71456 0.0
N1745 N 0.82542 0.51445 0.70003 0.0
H1746 H 0.45253 0.87665 0.23392 0.0
H1747 H 0.50019 0.01204 0.17469 0.0
H1748 H 0.44953 0.94182 0.26087 0.0
H1749 H 0.49609 0.94533 0.14412 0.0
H1750 H 0.4822 0.98637 0.2065 0.0
H1751 H 0.46977 0.9014 0.20128 0.0
C1752 C 0.4557 0.89622 0.23305 0.0
C1753 C 0.44951 0.90714 0.25018 0.0
C1754 C 0.48511 0.97723 0.19286 0.0
C1755 C 0.46897 0.93546 0.21282 0.0
C1756 C 0.49545 0.99192 0.17467 0.0
C1757 C 0.49983 0.98088 0.15673 0.0
C1758 C 0.47915 0.9512 0.1933 0.0
C1759 C 0.49291 0.95458 0.15755 0.0
C1760 C 0.46533 0.91025 0.21435 0.0
C1761 C 0.45371 0.93248 0.24802 0.0
N1762 N 0.4831 0.94068 0.17558 0.0
N1763 N 0.46316 0.94571 0.22976 0.0
H1764 H 0.0986 0.56876 0.25456 0.0
H1765 H 0.03865 0.49327 0.14652 0.0
H1766 H 0.11541 0.51075 0.22976 0.0
H1767 H 0.02091 0.55054 0.17162 0.0
H1768 H 0.06633 0.49894 0.17718 0.0
H1769 H 0.06944 0.56186 0.2246 0.0
C1770 C 0.09615 0.55457 0.24281 0.0
C1771 C 0.10946 0.5403 0.24469 0.0
C1772 C 0.05633 0.51023 0.17602 0.0
C1773 C 0.07602 0.53221 0.21038 0.0
C1774 C 0.04064 0.5071 0.15845 0.0
C1775 C 0.02748 0.5215 0.15645 0.0
C1776 C 0.05898 0.52794 0.19173 0.0
C1777 C 0.03045 0.53882 0.1726 0.0
C1778 C 0.07942 0.55056 0.22575 0.0
C1779 C 0.10529 0.52194 0.22911 0.0
N1780 N 0.04594 0.54161 0.18951 0.0
N1781 N 0.08902 0.51849 0.2126 0.0
H1782 H 0.45606 0.52824 0.25667 0.0
H1783 H 0.51548 0.56839 0.1404 0.0
H1784 H 0.48946 0.6057 0.23153 0.0
H1785 H 0.5071 0.50053 0.17214 0.0
H1786 H 0.49687 0.57833 0.17119 0.0
H1787 H 0.46583 0.51393 0.22325 0.0
C1788 C 0.46509 0.54208 0.244 0.0
C1789 C 0.47222 0.56819 0.24683 0.0
C1790 C 0.49891 0.56114 0.17135 0.0
C1791 C 0.48328 0.5521 0.20876 0.0
C1792 C 0.50936 0.55538 0.15373 0.0
C1793 C 0.51305 0.53373 0.15378 0.0
C1794 C 0.49184 0.54501 0.18909 0.0
C1795 C 0.50496 0.51763 0.17158 0.0
C1796 C 0.47078 0.53399 0.22503 0.0
C1797 C 0.48394 0.58545 0.23 0.0
N1798 N 0.49481 0.52363 0.18855 0.0
N1799 N 0.48915 0.57713 0.21173 0.0
H1800 H 0.96147 0.45601 0.76778 0.0
H1801 H 0.95817 0.45371 0.89138 0.0
H1802 H 0.89263 0.44366 0.80334 0.0
H1803 H 0.03234 0.4933 0.85693 0.0
H1804 H 0.93397 0.45 0.85922 0.0
H1805 H 0.98823 0.47001 0.79993 0.0
C1806 C 0.95213 0.45665 0.78231 0.0
C1807 C 0.92483 0.44862 0.78295 0.0
C1808 C 0.95557 0.45975 0.85874 0.0
C1809 C 0.95506 0.46413 0.81973 0.0
C1810 C 0.96949 0.46203 0.87717 0.0
C1811 C 0.99747 0.47378 0.877 0.0
C1812 C 0.96958 0.46888 0.83983 0.0
C1813 C 0.01079 0.48358 0.85784 0.0
C1814 C 0.96737 0.46466 0.80061 0.0
C1815 C 0.91366 0.44987 0.80214 0.0
N1816 N 0.99672 0.48065 0.83999 0.0
N1817 N 0.92873 0.45708 0.81982 0.0
H1818 H 0.53723 0.44684 0.77166 0.0
H1819 H 0.55832 0.51609 0.8835 0.0
H1820 H 0.61435 0.50354 0.79589 0.0
H1821 H 0.48115 0.46134 0.85811 0.0
H1822 H 0.57938 0.51091 0.852 0.0
H1823 H 0.51643 0.45124 0.80359 0.0
C1824 C 0.5498 0.46019 0.78371 0.0
C1825 C 0.57758 0.4749 0.78102 0.0
C1826 C 0.55783 0.50002 0.85333 0.0
C1827 C 0.55388 0.48013 0.81766 0.0
C1828 C 0.5458 0.50285 0.87138 0.0
C1829 C 0.51789 0.48921 0.87346 0.0
C1830 C 0.54187 0.48336 0.83723 0.0
C1831 C 0.5027 0.47256 0.85709 0.0
C1832 C 0.53791 0.46277 0.80192 0.0
C1833 C 0.59283 0.49209 0.79711 0.0
N1834 N 0.51486 0.47012 0.83971 0.0
N1835 N 0.58079 0.4942 0.81472 0.0
H1836 H 0.53586 0.13186 0.80019 0.0
H1837 H 0.51994 0.0058 0.85732 0.0
H1838 H 0.56575 0.08461 0.77352 0.0
H1839 H 0.50877 0.06407 0.8887 0.0
H1840 H 0.53791 0.03457 0.82688 0.0
H1841 H 0.52715 0.10789 0.83309 0.0
C1842 C 0.54085 0.11656 0.8014 0.0
C1843 C 0.55139 0.11007 0.78414 0.0
C1844 C 0.53182 0.04119 0.84051 0.0
C1845 C 0.54113 0.08222 0.82167 0.0
C1846 C 0.52144 0.02473 0.85785 0.0
C1847 C 0.51263 0.03245 0.87553 0.0
C1848 C 0.5331 0.06546 0.84069 0.0
C1849 C 0.51539 0.05734 0.87546 0.0
C1850 C 0.5359 0.10289 0.82018 0.0
C1851 C 0.55763 0.09019 0.78651 0.0
N1852 N 0.52507 0.0728 0.85823 0.0
N1853 N 0.55206 0.0767 0.80486 0.0
H1854 H 0.15966 0.2551 0.59068 0.0
H1855 H 0.13133 0.29773 0.4785 0.0
H1856 H 0.08066 0.23079 0.5671 0.0
H1857 H 0.21029 0.32399 0.50308 0.0
H1858 H 0.11233 0.27127 0.51 0.0
H1859 H 0.17853 0.27882 0.55801 0.0
C1860 C 0.14626 0.25465 0.57862 0.0
C1861 C 0.11851 0.24104 0.58178 0.0
C1862 C 0.13382 0.28278 0.50848 0.0
C1863 C 0.14001 0.26832 0.54426 0.0
C1864 C 0.14469 0.29777 0.49041 0.0
C1865 C 0.17248 0.3133 0.48813 0.0
C1866 C 0.15083 0.2832 0.52443 0.0
C1867 C 0.18876 0.31272 0.50426 0.0
C1868 C 0.15706 0.2683 0.55998 0.0
C1869 C 0.10218 0.24138 0.56558 0.0
N1870 N 0.17772 0.29802 0.52169 0.0
N1871 N 0.11315 0.25478 0.54758 0.0
H1872 H 0.76363 0.9046 0.58764 0.0
H1873 H 0.70722 0.8296 0.47881 0.0
H1874 H 0.77792 0.84403 0.56506 0.0
H1875 H 0.68918 0.88729 0.50241 0.0
H1876 H 0.73334 0.83482 0.51036 0.0
H1877 H 0.7362 0.89864 0.55663 0.0
C1878 C 0.76096 0.89003 0.57619 0.0
C1879 C 0.77303 0.87474 0.579 0.0
C1880 C 0.72363 0.84631 0.50867 0.0
C1881 C 0.74167 0.86779 0.5435 0.0
C1882 C 0.70885 0.84345 0.49059 0.0
C1883 C 0.69601 0.85805 0.48793 0.0
C1884 C 0.72573 0.86399 0.52423 0.0
C1885 C 0.69849 0.87542 0.50389 0.0
C1886 C 0.74524 0.88657 0.55853 0.0
C1887 C 0.76869 0.85599 0.56373 0.0
N1888 N 0.71311 0.87796 0.52132 0.0
N1889 N 0.75347 0.85312 0.54664 0.0
H1890 H 0.15649 0.93773 0.56519 0.0
H1891 H 0.17444 0.82923 0.50683 0.0
H1892 H 0.12466 0.86046 0.59038 0.0
H1893 H 0.18342 0.89786 0.47602 0.0
H1894 H 0.15629 0.83978 0.53762 0.0
H1895 H 0.16667 0.92322 0.53245 0.0
C1896 C 0.15154 0.91761 0.56371 0.0
C1897 C 0.13994 0.90027 0.58048 0.0
C1898 C 0.16195 0.85235 0.52403 0.0
C1899 C 0.15172 0.88352 0.54312 0.0
C1900 C 0.17243 0.84643 0.50651 0.0
C1901 C 0.18062 0.8628 0.48889 0.0
C1902 C 0.16 0.87501 0.52405 0.0
C1903 C 0.17726 0.88464 0.4892 0.0
C1904 C 0.15725 0.90931 0.54501 0.0
C1905 C 0.13365 0.87438 0.57776 0.0
N1906 N 0.16751 0.89026 0.50658 0.0
N1907 N 0.13995 0.86682 0.55948 0.0
H1908 H 0.56934 0.72366 0.12698 0.0
H1909 H 0.65186 0.83016 0.21347 0.0
H1910 H 0.58756 0.80322 0.11939 0.0
H1911 H 0.66229 0.76438 0.20076 0.0
H1912 H 0.62242 0.81869 0.18267 0.0
H1913 H 0.59734 0.73631 0.15804 0.0
C1914 C 0.57943 0.74389 0.13169 0.0
C1915 C 0.57657 0.76253 0.12016 0.0
C1916 C 0.63126 0.80688 0.18666 0.0
C1917 C 0.60809 0.77693 0.1563 0.0
C1918 C 0.64789 0.81331 0.2042 0.0
C1919 C 0.65954 0.79822 0.2095 0.0
C1920 C 0.6259 0.78491 0.17475 0.0
C1921 C 0.6539 0.77664 0.19704 0.0
C1922 C 0.59528 0.75102 0.14955 0.0
C1923 C 0.58925 0.7882 0.12772 0.0
N1924 N 0.63735 0.77053 0.18033 0.0
N1925 N 0.60454 0.7947 0.14534 0.0
H1926 H 0.20458 0.77841 0.10624 0.0
H1927 H 0.22975 0.84874 0.21799 0.0
H1928 H 0.28272 0.8338 0.12959 0.0
H1929 H 0.15151 0.79675 0.1929 0.0
H1930 H 0.2497 0.84147 0.18673 0.0
H1931 H 0.18494 0.78291 0.13881 0.0
C1932 C 0.21763 0.79141 0.11826 0.0
C1933 C 0.24534 0.80587 0.11508 0.0
C1934 C 0.22816 0.83161 0.18808 0.0
C1935 C 0.22296 0.81126 0.15243 0.0
C1936 C 0.21676 0.83563 0.206 0.0
C1937 C 0.18889 0.82347 0.20805 0.0
C1938 C 0.21161 0.81522 0.17209 0.0
C1939 C 0.17308 0.80688 0.19186 0.0
C1940 C 0.2064 0.79407 0.13683 0.0
C1941 C 0.26123 0.8226 0.13118 0.0
N1942 N 0.18464 0.8033 0.17459 0.0
N1943 N 0.24983 0.82485 0.14911 0.0
H1944 H 0.23134 0.4187 0.10463 0.0
H1945 H 0.17263 0.39865 0.22139 0.0
H1946 H 0.19626 0.46195 0.13042 0.0
H1947 H 0.18567 0.34194 0.18935 0.0
H1948 H 0.18987 0.4271 0.19066 0.0
H1949 H 0.22332 0.39547 0.13812 0.0
C1950 C 0.22235 0.42357 0.11745 0.0
C1951 C 0.21421 0.44205 0.11473 0.0
C1952 C 0.18916 0.40852 0.19043 0.0
C1953 C 0.20497 0.41568 0.15295 0.0
C1954 C 0.17949 0.39236 0.20801 0.0
C1955 C 0.17749 0.36779 0.20786 0.0
C1956 C 0.19716 0.40019 0.17263 0.0
C1957 C 0.1865 0.36056 0.19001 0.0
C1958 C 0.21762 0.41023 0.13649 0.0
C1959 C 0.20252 0.44757 0.13181 0.0
N1960 N 0.19585 0.37662 0.1731 0.0
N1961 N 0.19816 0.4344 0.15014 0.0
H1962 H 0.82219 0.58686 0.92479 0.0
H1963 H 0.79329 0.62846 0.81237 0.0
H1964 H 0.74298 0.56128 0.90105 0.0
H1965 H 0.8723 0.65521 0.83705 0.0
H1966 H 0.77438 0.60179 0.84383 0.0
H1967 H 0.84083 0.61032 0.892 0.0
C1968 C 0.8087 0.58607 0.91266 0.0
C1969 C 0.78095 0.57219 0.91581 0.0
C1970 C 0.79586 0.61344 0.84232 0.0
C1971 C 0.8022 0.59918 0.87815 0.0
C1972 C 0.80668 0.62855 0.82429 0.0
C1973 C 0.83445 0.6443 0.82209 0.0
C1974 C 0.81292 0.61399 0.85829 0.0
C1975 C 0.85077 0.64377 0.83819 0.0
C1976 C 0.81936 0.59957 0.89395 0.0
C1977 C 0.76449 0.57209 0.89953 0.0
N1978 N 0.83979 0.62898 0.85558 0.0
N1979 N 0.77535 0.58538 0.88146 0.0
H1980 H 0.45082 0.17884 0.89659 0.0
H1981 H 0.36041 0.22378 0.83424 0.0
H1982 H 0.43607 0.23945 0.91829 0.0
H1983 H 0.37827 0.16557 0.81165 0.0
H1984 H 0.38712 0.22917 0.86548 0.0
H1985 H 0.42329 0.17298 0.86588 0.0
C1986 C 0.44156 0.19076 0.89501 0.0
C1987 C 0.44565 0.20957 0.91015 0.0
C1988 C 0.38521 0.21522 0.8537 0.0
C1989 C 0.41434 0.20321 0.87473 0.0
C1990 C 0.36984 0.21203 0.83589 0.0
C1991 C 0.36703 0.19414 0.82029 0.0
C1992 C 0.39786 0.20039 0.85599 0.0
C1993 C 0.3801 0.17978 0.82314 0.0
C1994 C 0.426 0.18753 0.87736 0.0
C1995 C 0.43361 0.22483 0.90697 0.0
N1996 N 0.39488 0.18317 0.84065 0.0
N1997 N 0.41848 0.22129 0.88964 0.0
H1998 H 0.7786 0.22554 0.89769 0.0
H1999 H 0.9001 0.22344 0.84076 0.0
H2000 H 0.84947 0.23687 0.92964 0.0
H2001 H 0.82132 0.18692 0.81331 0.0
H2002 H 0.8822 0.2316 0.87247 0.0
H2003 H 0.79366 0.21328 0.86597 0.0
C2004 C 0.79711 0.22511 0.89817 0.0
C2005 C 0.81291 0.23253 0.91637 0.0
C2006 C 0.86875 0.22169 0.85957 0.0
C2007 C 0.83048 0.2191 0.87999 0.0
C2008 C 0.87895 0.2169 0.84141 0.0
C2009 C 0.86218 0.2041 0.82431 0.0
C2010 C 0.84155 0.21399 0.86073 0.0
C2011 C 0.83508 0.19696 0.82599 0.0
C2012 C 0.80576 0.21828 0.88 0.0
C2013 C 0.83688 0.23188 0.9159 0.0
N2014 N 0.8256 0.20202 0.84388 0.0
N2015 N 0.845 0.22555 0.898 0.0
H2016 H 0.28661 0.11084 0.43394 0.0
H2017 H 0.31159 0.16018 0.55253 0.0
H2018 H 0.22616 0.11517 0.47065 0.0
H2019 H 0.35086 0.12285 0.52269 0.0
H2020 H 0.28513 0.15291 0.52068 0.0
H2021 H 0.31624 0.1258 0.4643 0.0
C2022 C 0.27962 0.11513 0.44832 0.0
C2023 C 0.25364 0.11126 0.44983 0.0
C2024 C 0.29972 0.14654 0.52118 0.0
C2025 C 0.28764 0.12871 0.48456 0.0
C2026 C 0.31471 0.15047 0.53939 0.0
C2027 C 0.33361 0.14212 0.54046 0.0
C2028 C 0.30391 0.13454 0.5038 0.0
C2029 C 0.33704 0.13015 0.52264 0.0
C2030 C 0.29657 0.1237 0.46562 0.0
C2031 C 0.246 0.11788 0.46873 0.0
N2032 N 0.3224 0.12678 0.50511 0.0
N2033 N 0.26286 0.12608 0.48544 0.0
H2034 H 0.87119 0.11626 0.44009 0.0
H2035 H 0.89476 0.18557 0.55214 0.0
H2036 H 0.94885 0.17244 0.46375 0.0
H2037 H 0.81686 0.13251 0.52699 0.0
H2038 H 0.91508 0.17975 0.52048 0.0
H2039 H 0.85101 0.12086 0.47232 0.0
C2040 C 0.884 0.12952 0.45208 0.0
C2041 C 0.91175 0.14408 0.44913 0.0
C2042 C 0.89354 0.16937 0.52189 0.0
C2043 C 0.88877 0.14952 0.4861 0.0
C2044 C 0.88192 0.17256 0.54004 0.0
C2045 C 0.85404 0.15959 0.54223 0.0
C2046 C 0.87718 0.15302 0.5058 0.0
C2047 C 0.83843 0.14321 0.52587 0.0
C2048 C 0.87246 0.13223 0.47046 0.0
C2049 C 0.92734 0.16115 0.46516 0.0
N2050 N 0.85019 0.14041 0.50839 0.0
N2051 N 0.91565 0.16337 0.48293 0.0
H2052 H 0.90106 0.75254 0.43855 0.0
H2053 H 0.84194 0.73148 0.55526 0.0
H2054 H 0.86741 0.79646 0.46549 0.0
H2055 H 0.85476 0.67472 0.52305 0.0
H2056 H 0.85973 0.76021 0.52482 0.0
H2057 H 0.89252 0.72845 0.47173 0.0
C2058 C 0.89226 0.75734 0.45156 0.0
C2059 C 0.88468 0.77628 0.44929 0.0
C2060 C 0.85885 0.74155 0.52447 0.0
C2061 C 0.87492 0.74903 0.4871 0.0
C2062 C 0.84886 0.72522 0.54191 0.0
C2063 C 0.84663 0.70056 0.54164 0.0
C2064 C 0.86688 0.73329 0.50665 0.0
C2065 C 0.85573 0.6934 0.52379 0.0
C2066 C 0.88725 0.74354 0.4704 0.0
C2067 C 0.87326 0.78177 0.46656 0.0
N2068 N 0.86535 0.70962 0.50699 0.0
N2069 N 0.86866 0.76817 0.48468 0.0
loop_
_geom_bond_atom_site_label_1
_geom_bond_atom_site_label_2
_geom_bond_distance
_geom_bond_site_symmetry_2
_ccdc_geom_bond_type
H0 C1 0.949 . S
C1 H0 0.949 . S
C1 C2 1.395 . S
C1 C3 1.391 . S
C2 C1 1.395 . S
C2 C5 1.390 . S
C3 C1 1.391 . S
C3 C7 1.387 . S
C3 C8 1.491 . S
H4 C5 0.950 . S
C5 C2 1.390 . S
C5 H4 0.950 . S
C5 C6 1.378 . S
C6 C5 1.378 . S
C6 C7 1.409 . S
C7 C3 1.387 . S
C7 C6 1.409 . S
C7 H9 0.951 . S
C8 C3 1.491 . S
C8 C10 1.382 . S
C8 C12 1.404 . S
H9 C7 0.951 . S
C10 C8 1.382 . S
C10 C11 1.390 . S
C10 H15 0.949 . S
C11 C10 1.390 . S
C11 C16 1.399 . S
C12 C8 1.404 . S
C12 H13 0.950 . S
C12 C14 1.375 . S
H13 C12 0.950 . S
C14 C12 1.375 . S
C14 C16 1.382 . S
C14 H18 0.950 . S
H15 C10 0.949 . S
C16 C11 1.399 . S
C16 C14 1.382 . S
C16 H17 0.952 . S
H17 C16 0.952 . S
H18 C14 0.950 . S
H19 C20 0.949 . S
C20 H19 0.949 . S
C20 C21 1.395 . S
C20 C22 1.391 . S
C21 C20 1.395 . S
C21 C24 1.390 . S
C22 C20 1.391 . S
C22 C26 1.387 . S
C22 C27 1.491 . S
H23 C24 0.950 . S
C24 C21 1.390 . S
C24 H23 0.950 . S
C24 C25 1.378 . S
C25 C24 1.378 . S
C25 C26 1.409 . S
C26 C22 1.387 . S
C26 C25 1.409 . S
C26 H28 0.951 . S
C27 C22 1.491 . S
C27 C29 1.382 . S
C27 C31 1.404 . S
H28 C26 0.951 . S
C29 C27 1.382 . S
C29 C30 1.390 . S
C29 H34 0.949 . S
C30 C29 1.390 . S
C30 C35 1.399 . S
C31 C27 1.404 . S
C31 H32 0.950 . S
C31 C33 1.375 . S
H32 C31 0.950 . S
C33 C31 1.375 . S
C33 C35 1.382 . S
C33 H37 0.950 . S
H34 C29 0.949 . S
C35 C30 1.399 . S
C35 C33 1.382 . S
C35 H36 0.952 1_545 S
H36 C35 0.952 1_565 S
H37 C33 0.950 . S
H38 C39 0.949 . S
C39 H38 0.949 . S
C39 C40 1.395 . S
C39 C41 1.391 . S
C40 C39 1.395 . S
C40 C43 1.390 . S
C41 C39 1.391 . S
C41 C45 1.387 . S
C41 C46 1.491 . S
H42 C43 0.950 . S
C43 C40 1.390 . S
C43 H42 0.950 . S
C43 C44 1.378 . S
C44 C43 1.378 . S
C44 C45 1.409 . S
C45 C41 1.387 . S
C45 C44 1.409 . S
C45 H47 0.951 . S
C46 C41 1.491 . S
C46 C48 1.382 . S
C46 C50 1.404 . S
H47 C45 0.951 . S
C48 C46 1.382 . S
C48 C49 1.390 . S
C48 H53 0.949 . S
C49 C48 1.390 . S
C49 C54 1.399 1_655 S
C50 C46 1.404 . S
C50 H51 0.950 . S
C50 C52 1.375 . S
H51 C50 0.950 . S
C52 C50 1.375 . S
C52 C54 1.382 1_655 S
C52 H56 0.950 . S
H53 C48 0.949 . S
C54 C49 1.399 1_455 S
C54 C52 1.382 1_455 S
C54 H55 0.952 . S
H55 C54 0.952 . S
H56 C52 0.950 . S
H57 C58 0.949 . S
C58 H57 0.949 . S
C58 C59 1.395 . S
C58 C60 1.391 . S
C59 C58 1.395 . S
C59 C62 1.390 . S
C60 C58 1.391 . S
C60 C64 1.387 . S
C60 C65 1.491 . S
H61 C62 0.950 . S
C62 C59 1.390 . S
C62 H61 0.950 . S
C62 C63 1.378 . S
C63 C62 1.378 . S
C63 C64 1.409 . S
C64 C60 1.387 . S
C64 C63 1.409 . S
C64 H66 0.951 . S
C65 C60 1.491 . S
C65 C67 1.382 . S
C65 C69 1.404 . S
H66 C64 0.951 . S
C67 C65 1.382 . S
C67 C68 1.390 . S
C67 H72 0.949 . S
C68 C67 1.390 . S
C68 C73 1.399 . S
C69 C65 1.404 . S
C69 H70 0.950 . S
C69 C71 1.375 . S
H70 C69 0.950 . S
C71 C69 1.375 . S
C71 C73 1.382 . S
C71 H75 0.950 . S
H72 C67 0.949 . S
C73 C68 1.399 . S
C73 C71 1.382 . S
C73 H74 0.952 . S
H74 C73 0.952 . S
H75 C71 0.950 . S
H76 C77 0.949 . S
C77 H76 0.949 . S
C77 C78 1.395 . S
C77 C79 1.391 . S
C78 C77 1.395 . S
C78 C81 1.390 . S
C79 C77 1.391 . S
C79 C83 1.387 . S
C79 C84 1.491 . S
H80 C81 0.950 . S
C81 C78 1.390 . S
C81 H80 0.950 . S
C81 C82 1.378 . S
C82 C81 1.378 . S
C82 C83 1.409 . S
C83 C79 1.387 . S
C83 C82 1.409 . S
C83 H85 0.951 . S
C84 C79 1.491 . S
C84 C86 1.382 . S
C84 C88 1.404 . S
H85 C83 0.951 . S
C86 C84 1.382 . S
C86 C87 1.390 . S
C86 H91 0.949 . S
C87 C86 1.390 . S
C87 C92 1.399 . S
C88 C84 1.404 . S
C88 H89 0.950 . S
C88 C90 1.375 . S
H89 C88 0.950 . S
C90 C88 1.375 . S
C90 C92 1.382 . S
C90 H94 0.950 . S
H91 C86 0.949 . S
C92 C87 1.399 . S
C92 C90 1.382 . S
C92 H93 0.952 1_565 S
H93 C92 0.952 1_545 S
H94 C90 0.950 . S
H95 C96 0.949 . S
C96 H95 0.949 . S
C96 C97 1.395 . S
C96 C98 1.391 . S
C97 C96 1.395 . S
C97 C100 1.390 . S
C98 C96 1.391 . S
C98 C102 1.387 . S
C98 C103 1.491 . S
H99 C100 0.950 . S
C100 C97 1.390 . S
C100 H99 0.950 . S
C100 C101 1.378 . S
C101 C100 1.378 . S
C101 C102 1.409 . S
C102 C98 1.387 . S
C102 C101 1.409 . S
C102 H104 0.951 . S
C103 C98 1.491 . S
C103 C105 1.382 . S
C103 C107 1.404 . S
H104 C102 0.951 . S
C105 C103 1.382 . S
C105 C106 1.390 . S
C105 H110 0.949 . S
C106 C105 1.390 . S
C106 C111 1.399 . S
C107 C103 1.404 . S
C107 H108 0.950 . S
C107 C109 1.375 . S
H108 C107 0.950 . S
C109 C107 1.375 . S
C109 C111 1.382 . S
C109 H113 0.950 . S
H110 C105 0.949 . S
C111 C106 1.399 . S
C111 C109 1.382 . S
C111 H112 0.952 1_455 S
H112 C111 0.952 1_655 S
H113 C109 0.950 . S
H114 C115 0.949 . S
C115 H114 0.949 . S
C115 C116 1.395 . S
C115 C117 1.391 . S
C116 C115 1.395 . S
C116 C119 1.390 . S
C117 C115 1.391 . S
C117 C121 1.387 . S
C117 C122 1.491 . S
H118 C119 0.950 . S
C119 C116 1.390 . S
C119 H118 0.950 . S
C119 C120 1.378 . S
C120 C119 1.378 . S
C120 C121 1.409 . S
C121 C117 1.387 . S
C121 C120 1.409 . S
C121 H123 0.951 . S
C122 C117 1.491 . S
C122 C124 1.382 . S
C122 C126 1.404 . S
H123 C121 0.951 . S
C124 C122 1.382 . S
C124 C125 1.390 . S
C124 H129 0.949 . S
C125 C124 1.390 . S
C125 C130 1.399 . S
C126 C122 1.404 . S
C126 H127 0.950 . S
C126 C128 1.375 . S
H127 C126 0.950 . S
C128 C126 1.375 . S
C128 C130 1.382 . S
C128 H132 0.950 . S
H129 C124 0.949 . S
C130 C125 1.399 . S
C130 C128 1.382 . S
C130 H131 0.952 . S
H131 C130 0.952 . S
H132 C128 0.950 . S
H133 C134 0.949 . S
C134 H133 0.949 . S
C134 C135 1.395 . S
C134 C136 1.391 . S
C135 C134 1.395 . S
C135 C138 1.390 . S
C136 C134 1.391 . S
C136 C140 1.387 . S
C136 C141 1.491 . S
H137 C138 0.950 . S
C138 C135 1.390 . S
C138 H137 0.950 . S
C138 C139 1.378 . S
C139 C138 1.378 . S
C139 C140 1.409 . S
C140 C136 1.387 . S
C140 C139 1.409 . S
C140 H142 0.951 . S
C141 C136 1.491 . S
C141 C143 1.382 . S
C141 C145 1.404 . S
H142 C140 0.951 . S
C143 C141 1.382 . S
C143 C144 1.390 . S
C143 H148 0.949 . S
C144 C143 1.390 . S
C144 C149 1.399 . S
C145 C141 1.404 . S
C145 H146 0.950 . S
C145 C147 1.375 . S
H146 C145 0.950 . S
C147 C145 1.375 . S
C147 C149 1.382 . S
C147 H151 0.950 . S
H148 C143 0.949 . S
C149 C144 1.399 . S
C149 C147 1.382 . S
C149 H150 0.952 . S
H150 C149 0.952 . S
H151 C147 0.950 . S
H152 C153 0.949 . S
C153 H152 0.949 . S
C153 C154 1.395 . S
C153 C155 1.391 . S
C154 C153 1.395 . S
C154 C157 1.390 . S
C155 C153 1.391 . S
C155 C159 1.387 . S
C155 C160 1.491 . S
H156 C157 0.950 . S
C157 C154 1.390 . S
C157 H156 0.950 . S
C157 C158 1.378 . S
C158 C157 1.378 . S
C158 C159 1.409 . S
C159 C155 1.387 . S
C159 C158 1.409 . S
C159 H161 0.951 . S
C160 C155 1.491 . S
C160 C162 1.382 . S
C160 C164 1.404 . S
H161 C159 0.951 . S
C162 C160 1.382 . S
C162 C163 1.390 . S
C162 H167 0.949 . S
C163 C162 1.390 . S
C163 C168 1.399 . S
C164 C160 1.404 . S
C164 H165 0.950 . S
C164 C166 1.375 . S
H165 C164 0.950 . S
C166 C164 1.375 . S
C166 C168 1.382 . S
C166 H170 0.950 . S
H167 C162 0.949 . S
C168 C163 1.399 . S
C168 C166 1.382 . S
C168 H169 0.952 . S
H169 C168 0.952 . S
H170 C166 0.950 . S
H171 C172 0.949 . S
C172 H171 0.949 . S
C172 C173 1.395 . S
C172 C174 1.391 . S
C173 C172 1.395 . S
C173 C176 1.390 . S
C174 C172 1.391 . S
C174 C178 1.387 . S
C174 C179 1.491 . S
H175 C176 0.950 . S
C176 C173 1.390 . S
C176 H175 0.950 . S
C176 C177 1.378 . S
C177 C176 1.378 . S
C177 C178 1.409 . S
C178 C174 1.387 . S
C178 C177 1.409 . S
C178 H180 0.951 . S
C179 C174 1.491 . S
C179 C181 1.382 . S
C179 C183 1.404 . S
H180 C178 0.951 . S
C181 C179 1.382 . S
C181 C182 1.390 . S
C181 H186 0.949 . S
C182 C181 1.390 . S
C182 C187 1.399 . S
C183 C179 1.404 . S
C183 H184 0.950 . S
C183 C185 1.375 . S
H184 C183 0.950 . S
C185 C183 1.375 . S
C185 C187 1.382 . S
C185 H189 0.950 . S
H186 C181 0.949 . S
C187 C182 1.399 . S
C187 C185 1.382 . S
C187 H188 0.952 . S
H188 C187 0.952 . S
H189 C185 0.950 . S
H190 C191 0.949 . S
C191 H190 0.949 . S
C191 C192 1.395 . S
C191 C193 1.391 . S
C192 C191 1.395 . S
C192 C195 1.390 . S
C193 C191 1.391 . S
C193 C197 1.387 . S
C193 C198 1.491 . S
H194 C195 0.950 . S
C195 C192 1.390 . S
C195 H194 0.950 . S
C195 C196 1.378 . S
C196 C195 1.378 . S
C196 C197 1.409 . S
C197 C193 1.387 . S
C197 C196 1.409 . S
C197 H199 0.951 . S
C198 C193 1.491 . S
C198 C200 1.382 . S
C198 C202 1.404 . S
H199 C197 0.951 . S
C200 C198 1.382 . S
C200 C201 1.390 . S
C200 H205 0.949 . S
C201 C200 1.390 . S
C201 C206 1.399 . S
C202 C198 1.404 . S
C202 H203 0.950 . S
C202 C204 1.375 . S
H203 C202 0.950 . S
C204 C202 1.375 . S
C204 C206 1.382 . S
C204 H208 0.950 1_556 S
H205 C200 0.949 . S
C206 C201 1.399 . S
C206 C204 1.382 . S
C206 H207 0.952 1_556 S
H207 C206 0.952 1_554 S
H208 C204 0.950 1_554 S
H209 C210 0.949 . S
C210 H209 0.949 . S
C210 C211 1.395 . S
C210 C212 1.391 . S
C211 C210 1.395 . S
C211 C214 1.390 . S
C212 C210 1.391 . S
C212 C216 1.387 . S
C212 C217 1.491 . S
H213 C214 0.950 . S
C214 C211 1.390 . S
C214 H213 0.950 . S
C214 C215 1.378 . S
C215 C214 1.378 . S
C215 C216 1.409 . S
C216 C212 1.387 . S
C216 C215 1.409 . S
C216 H218 0.951 . S
C217 C212 1.491 . S
C217 C219 1.382 . S
C217 C221 1.404 . S
H218 C216 0.951 . S
C219 C217 1.382 . S
C219 C220 1.390 . S
C219 H224 0.949 . S
C220 C219 1.390 . S
C220 C225 1.399 . S
C221 C217 1.404 . S
C221 H222 0.950 . S
C221 C223 1.375 . S
H222 C221 0.950 . S
C223 C221 1.375 . S
C223 C225 1.382 . S
C223 H227 0.950 . S
H224 C219 0.949 . S
C225 C220 1.399 . S
C225 C223 1.382 . S
C225 H226 0.952 . S
H226 C225 0.952 . S
H227 C223 0.950 . S
H228 C229 0.949 . S
C229 H228 0.949 . S
C229 C230 1.395 . S
C229 C231 1.391 . S
C230 C229 1.395 . S
C230 C233 1.390 . S
C231 C229 1.391 . S
C231 C235 1.387 . S
C231 C236 1.491 . S
H232 C233 0.950 . S
C233 C230 1.390 . S
C233 H232 0.950 . S
C233 C234 1.378 . S
C234 C233 1.378 . S
C234 C235 1.409 . S
C235 C231 1.387 . S
C235 C234 1.409 . S
C235 H237 0.951 . S
C236 C231 1.491 . S
C236 C238 1.382 . S
C236 C240 1.404 . S
H237 C235 0.951 . S
C238 C236 1.382 . S
C238 C239 1.390 . S
C238 H243 0.949 . S
C239 C238 1.390 . S
C239 C244 1.399 . S
C240 C236 1.404 . S
C240 H241 0.950 . S
C240 C242 1.375 . S
H241 C240 0.950 . S
C242 C240 1.375 . S
C242 C244 1.382 . S
C242 H246 0.950 . S
H243 C238 0.949 . S
C244 C239 1.399 . S
C244 C242 1.382 . S
C244 H245 0.952 . S
H245 C244 0.952 . S
H246 C242 0.950 . S
H247 C248 0.949 . S
C248 H247 0.949 . S
C248 C249 1.395 . S
C248 C250 1.391 . S
C249 C248 1.395 . S
C249 C252 1.390 . S
C250 C248 1.391 . S
C250 C254 1.387 . S
C250 C255 1.491 . S
H251 C252 0.950 . S
C252 C249 1.390 . S
C252 H251 0.950 . S
C252 C253 1.378 . S
C253 C252 1.378 . S
C253 C254 1.409 . S
C254 C250 1.387 . S
C254 C253 1.409 . S
C254 H256 0.951 . S
C255 C250 1.491 . S
C255 C257 1.382 . S
C255 C259 1.404 . S
H256 C254 0.951 . S
C257 C255 1.382 . S
C257 C258 1.390 . S
C257 H262 0.949 . S
C258 C257 1.390 . S
C258 C263 1.399 . S
C259 C255 1.404 . S
C259 H260 0.950 . S
C259 C261 1.375 . S
H260 C259 0.950 . S
C261 C259 1.375 . S
C261 C263 1.382 . S
C261 H265 0.950 . S
H262 C257 0.949 . S
C263 C258 1.399 . S
C263 C261 1.382 . S
C263 H264 0.952 . S
H264 C263 0.952 . S
H265 C261 0.950 . S
H266 C267 0.949 . S
C267 H266 0.949 . S
C267 C268 1.395 . S
C267 C269 1.391 . S
C268 C267 1.395 . S
C268 C271 1.390 . S
C269 C267 1.391 . S
C269 C273 1.387 . S
C269 C274 1.491 . S
H270 C271 0.950 . S
C271 C268 1.390 . S
C271 H270 0.950 . S
C271 C272 1.378 . S
C272 C271 1.378 . S
C272 C273 1.409 . S
C273 C269 1.387 . S
C273 C272 1.409 . S
C273 H275 0.951 . S
C274 C269 1.491 . S
C274 C276 1.382 . S
C274 C278 1.404 . S
H275 C273 0.951 . S
C276 C274 1.382 . S
C276 C277 1.390 . S
C276 H281 0.949 . S
C277 C276 1.390 . S
C277 C282 1.399 . S
C278 C274 1.404 . S
C278 H279 0.950 . S
C278 C280 1.375 . S
H279 C278 0.950 . S
C280 C278 1.375 . S
C280 C282 1.382 . S
C280 H284 0.950 . S
H281 C276 0.949 . S
C282 C277 1.399 . S
C282 C280 1.382 . S
C282 H283 0.952 . S
H283 C282 0.952 . S
H284 C280 0.950 . S
H285 C286 0.949 . S
C286 H285 0.949 . S
C286 C287 1.395 . S
C286 C288 1.391 . S
C287 C286 1.395 . S
C287 C290 1.390 . S
C288 C286 1.391 . S
C288 C292 1.387 . S
C288 C293 1.491 . S
H289 C290 0.950 . S
C290 C287 1.390 . S
C290 H289 0.950 . S
C290 C291 1.378 . S
C291 C290 1.378 . S
C291 C292 1.409 . S
C292 C288 1.387 . S
C292 C291 1.409 . S
C292 H294 0.951 . S
C293 C288 1.491 . S
C293 C295 1.382 . S
C293 C297 1.404 . S
H294 C292 0.951 . S
C295 C293 1.382 . S
C295 C296 1.390 . S
C295 H300 0.949 . S
C296 C295 1.390 . S
C296 C301 1.399 . S
C297 C293 1.404 . S
C297 H298 0.950 . S
C297 C299 1.375 . S
H298 C297 0.950 . S
C299 C297 1.375 . S
C299 C301 1.382 . S
C299 H303 0.950 . S
H300 C295 0.949 . S
C301 C296 1.399 . S
C301 C299 1.382 . S
C301 H302 0.952 . S
H302 C301 0.952 . S
H303 C299 0.950 . S
H304 C305 0.949 . S
C305 H304 0.949 . S
C305 C306 1.395 . S
C305 C307 1.391 . S
C306 C305 1.395 . S
C306 C309 1.390 . S
C307 C305 1.391 . S
C307 C311 1.387 . S
C307 C312 1.491 . S
H308 C309 0.950 . S
C309 C306 1.390 . S
C309 H308 0.950 . S
C309 C310 1.378 . S
C310 C309 1.378 . S
C310 C311 1.409 . S
C311 C307 1.387 . S
C311 C310 1.409 . S
C311 H313 0.951 . S
C312 C307 1.491 . S
C312 C314 1.382 . S
C312 C316 1.404 . S
H313 C311 0.951 . S
C314 C312 1.382 . S
C314 C315 1.390 . S
C314 H319 0.949 . S
C315 C314 1.390 . S
C315 C320 1.399 . S
C316 C312 1.404 . S
C316 H317 0.950 . S
C316 C318 1.375 . S
H317 C316 0.950 . S
C318 C316 1.375 . S
C318 C320 1.382 . S
C318 H322 0.950 . S
H319 C314 0.949 . S
C320 C315 1.399 . S
C320 C318 1.382 . S
C320 H321 0.952 . S
H321 C320 0.952 . S
H322 C318 0.950 . S
H323 C324 0.949 . S
C324 H323 0.949 . S
C324 C325 1.395 . S
C324 C326 1.391 . S
C325 C324 1.395 . S
C325 C328 1.390 . S
C326 C324 1.391 . S
C326 C330 1.387 . S
C326 C331 1.491 . S
H327 C328 0.950 . S
C328 C325 1.390 . S
C328 H327 0.950 . S
C328 C329 1.378 . S
C329 C328 1.378 . S
C329 C330 1.409 . S
C330 C326 1.387 . S
C330 C329 1.409 . S
C330 H332 0.951 . S
C331 C326 1.491 . S
C331 C333 1.382 . S
C331 C335 1.404 . S
H332 C330 0.951 . S
C333 C331 1.382 . S
C333 C334 1.390 . S
C333 H338 0.949 . S
C334 C333 1.390 . S
C334 C339 1.399 . S
C335 C331 1.404 . S
C335 H336 0.950 . S
C335 C337 1.375 . S
H336 C335 0.950 . S
C337 C335 1.375 . S
C337 C339 1.382 . S
C337 H341 0.950 . S
H338 C333 0.949 . S
C339 C334 1.399 . S
C339 C337 1.382 . S
C339 H340 0.952 . S
H340 C339 0.952 . S
H341 C337 0.950 . S
Tb342 N373 2.660 . S
Tb342 N380 2.600 . S
Tb342 O386 2.546 . S
Tb342 O387 2.610 1_566 S
Tb342 O389 2.320 1_565 S
Tb342 O390 2.552 1_565 S
Tb342 O391 2.413 1_565 S
Tb342 O393 2.362 1_556 S
Tb342 O394 2.421 . S
Tb342 C406 2.833 1_565 S
C343 C346 1.432 . S
C343 C347 1.414 . S
C343 N350 1.359 . S
C344 C346 1.417 . S
C344 C348 1.432 . S
C344 C356 1.410 . S
C345 C347 1.444 . S
C345 C348 1.317 . S
C345 H368 0.929 . S
C346 C343 1.432 . S
C346 C344 1.417 . S
C346 N354 1.360 . S
C347 C343 1.414 . S
C347 C345 1.444 . S
C347 C352 1.385 . S
C348 C344 1.432 . S
C348 C345 1.317 . S
C348 H360 0.930 . S
C349 C351 1.392 . S
C349 C352 1.370 . S
C349 H361 0.931 . S
N350 C343 1.359 . S
N350 C351 1.327 . S
N350 Tb353 2.600 . S
C351 C349 1.392 . S
C351 N350 1.327 . S
C351 H358 0.930 . S
C352 C347 1.385 . S
C352 C349 1.370 . S
C352 H371 0.930 . S
Tb353 N350 2.600 . S
Tb353 N354 2.660 . S
Tb353 O387 2.362 . S
Tb353 O388 2.421 . S
Tb353 O392 2.546 . S
Tb353 O393 2.610 1_545 S
Tb353 O395 2.320 1_545 S
Tb353 O396 2.552 1_545 S
Tb353 O397 2.413 1_545 S
Tb353 C417 2.833 1_545 S
N354 C346 1.360 . S
N354 Tb353 2.660 . S
N354 C355 1.305 . S
C355 N354 1.305 . S
C355 C357 1.407 . S
C355 H362 0.930 . S
C356 C344 1.410 . S
C356 C357 1.345 . S
C356 H364 0.930 . S
C357 C355 1.407 . S
C357 C356 1.345 . S
C357 H359 0.930 . S
H358 C351 0.930 . S
H359 C357 0.930 . S
H360 C348 0.930 . S
H361 C349 0.931 . S
H362 C355 0.930 . S
H363 C377 0.930 . S
H364 C356 0.930 . S
H365 C383 0.930 . S
H366 C374 0.942 . S
H367 C381 0.931 . S
H368 C345 0.929 . S
H369 C375 0.930 . S
H370 C408 0.930 . S
H371 C352 0.930 . S
H372 C407 0.929 . S
N373 Tb342 2.660 . S
N373 C374 1.305 . S
N373 C378 1.360 . S
C374 H366 0.942 . S
C374 N373 1.305 . S
C374 C377 1.407 . S
C375 H369 0.930 . S
C375 C376 1.410 . S
C375 C377 1.345 . S
C376 C375 1.410 . S
C376 C378 1.417 . S
C376 C408 1.432 . S
C377 H363 0.930 . S
C377 C374 1.407 . S
C377 C375 1.345 . S
C378 N373 1.360 . S
C378 C376 1.417 . S
C378 C382 1.432 . S
H379 C384 0.930 . S
N380 Tb342 2.600 . S
N380 C382 1.359 . S
N380 C383 1.327 . S
C381 H367 0.931 . S
C381 C383 1.392 . S
C381 C384 1.370 . S
C382 C378 1.432 . S
C382 N380 1.359 . S
C382 C385 1.414 . S
C383 H365 0.930 . S
C383 N380 1.327 . S
C383 C381 1.392 . S
C384 H379 0.930 . S
C384 C381 1.370 . S
C384 C385 1.385 . S
C385 C382 1.414 . S
C385 C384 1.385 . S
C385 C407 1.444 . S
O386 Tb342 2.546 . S
O386 C406 1.251 1_565 S
O387 Tb342 2.610 1_544 S
O387 Tb353 2.362 . S
O387 C398 1.283 1_554 S
O388 Tb353 2.421 . S
O388 C405 1.262 . S
O389 Tb342 2.320 1_545 S
O389 C405 1.260 1_556 S
O390 Tb342 2.552 1_545 S
O390 C398 1.243 . S
O391 Tb342 2.413 1_545 S
O391 C406 1.256 . S
O392 Tb353 2.546 . S
O392 C417 1.250 1_545 S
O393 Tb342 2.362 1_554 S
O393 Tb353 2.610 1_565 S
O393 C409 1.283 . S
O394 Tb342 2.421 . S
O394 C416 1.262 1_556 S
O395 Tb353 2.320 1_565 S
O395 C416 1.260 . S
O396 Tb353 2.552 1_565 S
O396 C409 1.243 . S
O397 Tb353 2.413 1_565 S
O397 C417 1.257 . S
C398 O387 1.283 1_556 S
C398 O390 1.243 . S
C399 C401 1.382 . S
C399 C403 1.393 1_545 S
C399 C406 1.500 . S
C400 C401 1.400 . S
C400 C402 1.384 . S
C401 C399 1.382 . S
C401 C400 1.400 . S
C401 H418 0.930 . S
C402 C400 1.384 . S
C402 C404 1.392 . S
C402 H419 0.931 . S
C403 C399 1.393 1_565 S
C403 C404 1.401 1_565 S
C403 H420 0.930 . S
C404 C402 1.392 . S
C404 C403 1.401 1_545 S
C404 H421 0.930 1_545 S
C405 O388 1.262 . S
C405 O389 1.260 1_554 S
C406 Tb342 2.833 1_545 S
C406 O386 1.251 1_545 S
C406 O391 1.256 . S
C406 C399 1.500 . S
C407 H372 0.929 . S
C407 C385 1.444 . S
C407 C408 1.317 . S
C408 H370 0.930 . S
C408 C376 1.432 . S
C408 C407 1.317 . S
C409 O393 1.283 . S
C409 O396 1.243 . S
C410 C411 1.382 . S
C410 C414 1.393 1_565 S
C410 C417 1.500 . S
C411 C410 1.382 . S
C411 C412 1.400 . S
C411 H422 0.930 . S
C412 C411 1.400 . S
C412 C413 1.384 . S
C413 C412 1.384 . S
C413 C415 1.392 . S
C413 H423 0.931 . S
C414 C410 1.393 1_545 S
C414 C415 1.401 1_545 S
C414 H424 0.930 . S
C415 C413 1.392 . S
C415 C414 1.401 1_565 S
C415 H425 0.930 1_565 S
C416 O394 1.262 1_554 S
C416 O395 1.260 . S
C417 Tb353 2.833 1_565 S
C417 O392 1.250 1_565 S
C417 O397 1.257 . S
C417 C410 1.500 . S
H418 C401 0.930 . S
H419 C402 0.931 . S
H420 C403 0.930 . S
H421 C404 0.930 1_565 S
H422 C411 0.930 . S
H423 C413 0.931 . S
H424 C414 0.930 . S
H425 C415 0.930 1_545 S
Tb426 N457 2.660 . S
Tb426 N464 2.600 . S
Tb426 O470 2.546 . S
Tb426 O471 2.610 1_456 S
Tb426 O473 2.320 1_455 S
Tb426 O474 2.552 1_455 S
Tb426 O475 2.413 1_455 S
Tb426 O477 2.362 1_556 S
Tb426 O478 2.421 . S
Tb426 C490 2.833 . S
C427 C430 1.432 . S
C427 C431 1.414 . S
C427 N434 1.359 . S
C428 C430 1.417 . S
C428 C432 1.432 . S
C428 C440 1.410 . S
C429 C431 1.444 . S
C429 C432 1.317 . S
C429 H452 0.929 . S
C430 C427 1.432 . S
C430 C428 1.417 . S
C430 N438 1.360 . S
C431 C427 1.414 . S
C431 C429 1.444 . S
C431 C436 1.385 . S
C432 C428 1.432 . S
C432 C429 1.317 . S
C432 H444 0.930 . S
C433 C435 1.392 . S
C433 C436 1.370 . S
C433 H445 0.931 . S
N434 C427 1.359 . S
N434 C435 1.327 . S
N434 Tb437 2.600 . S
C435 C433 1.392 . S
C435 N434 1.327 . S
C435 H442 0.930 . S
C436 C431 1.385 . S
C436 C433 1.370 . S
C436 H455 0.930 . S
Tb437 N434 2.600 . S
Tb437 N438 2.660 . S
Tb437 O471 2.362 . S
Tb437 O472 2.421 . S
Tb437 O476 2.546 . S
Tb437 O477 2.610 1_655 S
Tb437 O479 2.320 1_655 S
Tb437 O480 2.552 1_655 S
Tb437 O481 2.413 1_655 S
Tb437 C501 2.833 1_655 S
N438 C430 1.360 . S
N438 Tb437 2.660 . S
N438 C439 1.305 . S
C439 N438 1.305 . S
C439 C441 1.407 . S
C439 H446 0.923 1_655 S
C440 C428 1.410 . S
C440 C441 1.345 . S
C440 H448 0.930 . S
C441 C439 1.407 . S
C441 C440 1.345 . S
C441 H443 0.930 . S
H442 C435 0.930 . S
H443 C441 0.930 . S
H444 C432 0.930 . S
H445 C433 0.931 . S
H446 C439 0.923 1_455 S
H447 C461 0.930 . S
H448 C440 0.930 . S
H449 C467 0.930 . S
H450 C458 0.930 . S
H451 C465 0.931 . S
H452 C429 0.929 . S
H453 C459 0.930 . S
H454 C492 0.930 . S
H455 C436 0.930 . S
H456 C491 0.929 . S
N457 Tb426 2.660 . S
N457 C458 1.305 . S
N457 C462 1.360 . S
C458 H450 0.930 . S
C458 N457 1.305 . S
C458 C461 1.407 . S
C459 H453 0.930 . S
C459 C460 1.410 . S
C459 C461 1.345 . S
C460 C459 1.410 . S
C460 C462 1.417 . S
C460 C492 1.432 . S
C461 H447 0.930 . S
C461 C458 1.407 . S
C461 C459 1.345 . S
C462 N457 1.360 . S
C462 C460 1.417 . S
C462 C466 1.432 . S
H463 C468 0.930 . S
N464 Tb426 2.600 . S
N464 C466 1.359 . S
N464 C467 1.327 . S
C465 H451 0.931 . S
C465 C467 1.392 . S
C465 C468 1.370 . S
C466 C462 1.432 . S
C466 N464 1.359 . S
C466 C469 1.414 . S
C467 H449 0.930 . S
C467 N464 1.327 . S
C467 C465 1.392 . S
C468 H463 0.930 . S
C468 C465 1.370 . S
C468 C469 1.385 . S
C469 C466 1.414 . S
C469 C468 1.385 . S
C469 C491 1.444 . S
O470 Tb426 2.546 . S
O470 C490 1.251 . S
O471 Tb426 2.610 1_654 S
O471 Tb437 2.362 . S
O471 C482 1.283 1_554 S
O472 Tb437 2.421 . S
O472 C489 1.262 . S
O473 Tb426 2.320 1_655 S
O473 C489 1.260 1_556 S
O474 Tb426 2.552 1_655 S
O474 C482 1.243 . S
O475 Tb426 2.413 1_655 S
O475 C490 1.256 1_655 S
O476 Tb437 2.546 . S
O476 C501 1.251 1_655 S
O477 Tb426 2.362 1_554 S
O477 Tb437 2.610 1_455 S
O477 C493 1.283 . S
O478 Tb426 2.421 . S
O478 C500 1.262 1_556 S
O479 Tb437 2.320 1_455 S
O479 C500 1.260 . S
O480 Tb437 2.552 1_455 S
O480 C493 1.243 . S
O481 Tb437 2.413 1_455 S
O481 C501 1.256 . S
C482 O471 1.283 1_556 S
C482 O474 1.243 . S
C483 C485 1.382 . S
C483 C487 1.393 1_655 S
C483 C490 1.500 1_655 S
C484 C485 1.400 . S
C484 C486 1.384 . S
C485 C483 1.382 . S
C485 C484 1.400 . S
C485 H502 0.930 . S
C486 C484 1.384 . S
C486 C488 1.392 1_655 S
C486 H503 0.931 . S
C487 C483 1.393 1_455 S
C487 C488 1.401 . S
C487 H504 0.930 . S
C488 C486 1.392 1_455 S
C488 C487 1.401 . S
C488 H505 0.930 . S
C489 O472 1.262 . S
C489 O473 1.260 1_554 S
C490 Tb426 2.833 . S
C490 O470 1.251 . S
C490 O475 1.256 1_455 S
C490 C483 1.500 1_455 S
C491 H456 0.929 . S
C491 C469 1.444 . S
C491 C492 1.317 . S
C492 H454 0.930 . S
C492 C460 1.432 . S
C492 C491 1.317 . S
C493 O477 1.283 . S
C493 O480 1.243 . S
C494 C495 1.382 . S
C494 C498 1.393 1_455 S
C494 C501 1.500 . S
C495 C494 1.382 . S
C495 C496 1.400 . S
C495 H506 0.930 . S
C496 C495 1.400 . S
C496 C497 1.384 . S
C497 C496 1.384 . S
C497 C499 1.392 . S
C497 H507 0.931 . S
C498 C494 1.393 1_655 S
C498 C499 1.401 1_655 S
C498 H508 0.930 . S
C499 C497 1.392 . S
C499 C498 1.401 1_455 S
C499 H509 0.930 1_455 S
C500 O478 1.262 1_554 S
C500 O479 1.260 . S
C501 Tb437 2.833 1_455 S
C501 O476 1.251 1_455 S
C501 O481 1.256 . S
C501 C494 1.500 . S
H502 C485 0.930 . S
H503 C486 0.931 . S
H504 C487 0.930 . S
H505 C488 0.930 . S
H506 C495 0.930 . S
H507 C497 0.931 . S
H508 C498 0.930 . S
H509 C499 0.930 1_655 S
Tb510 N541 2.660 . S
Tb510 N548 2.600 . S
Tb510 O554 2.546 . S
Tb510 O555 2.610 . S
Tb510 O557 2.320 . S
Tb510 O558 2.552 . S
Tb510 O559 2.413 . S
Tb510 O561 2.362 . S
Tb510 O562 2.421 . S
Tb510 C574 2.833 . S
C511 C514 1.432 . S
C511 C515 1.414 . S
C511 N518 1.359 . S
C512 C514 1.417 . S
C512 C516 1.432 . S
C512 C524 1.410 . S
C513 C515 1.444 . S
C513 C516 1.317 . S
C513 H536 0.929 . S
C514 C511 1.432 . S
C514 C512 1.417 . S
C514 N522 1.360 . S
C515 C511 1.414 . S
C515 C513 1.444 . S
C515 C520 1.385 . S
C516 C512 1.432 . S
C516 C513 1.317 . S
C516 H528 0.930 . S
C517 C519 1.392 . S
C517 C520 1.370 . S
C517 H529 0.931 . S
N518 C511 1.359 . S
N518 C519 1.327 . S
N518 Tb521 2.600 . S
C519 C517 1.392 . S
C519 N518 1.327 . S
C519 H526 0.930 . S
C520 C515 1.385 . S
C520 C517 1.370 . S
C520 H539 0.930 . S
Tb521 N518 2.600 . S
Tb521 N522 2.660 . S
Tb521 O555 2.362 1_556 S
Tb521 O556 2.421 . S
Tb521 O560 2.546 . S
Tb521 O561 2.610 1_556 S
Tb521 O563 2.320 . S
Tb521 O564 2.552 . S
Tb521 O565 2.413 . S
Tb521 C585 2.833 . S
N522 C514 1.360 . S
N522 Tb521 2.660 . S
N522 C523 1.305 . S
C523 N522 1.305 . S
C523 C525 1.407 . S
C523 H530 0.930 . S
C524 C512 1.410 . S
C524 C525 1.345 . S
C524 H532 0.930 . S
C525 C523 1.407 . S
C525 C524 1.345 . S
C525 H527 0.930 . S
H526 C519 0.930 . S
H527 C525 0.930 . S
H528 C516 0.930 . S
H529 C517 0.931 . S
H530 C523 0.930 . S
H531 C545 0.930 . S
H532 C524 0.930 . S
H533 C551 0.930 . S
H534 C542 0.930 . S
H535 C549 0.931 . S
H536 C513 0.929 . S
H537 C543 0.930 . S
H538 C576 0.930 . S
H539 C520 0.930 . S
H540 C575 0.929 . S
N541 Tb510 2.660 . S
N541 C542 1.305 . S
N541 C546 1.360 . S
C542 H534 0.930 . S
C542 N541 1.305 . S
C542 C545 1.407 . S
C543 H537 0.930 . S
C543 C544 1.410 . S
C543 C545 1.345 . S
C544 C543 1.410 . S
C544 C546 1.417 . S
C544 C576 1.432 . S
C545 H531 0.930 . S
C545 C542 1.407 . S
C545 C543 1.345 . S
C546 N541 1.360 . S
C546 C544 1.417 . S
C546 C550 1.432 . S
H547 C552 0.930 . S
N548 Tb510 2.600 . S
N548 C550 1.359 . S
N548 C551 1.327 . S
C549 H535 0.931 . S
C549 C551 1.392 . S
C549 C552 1.370 . S
C550 C546 1.432 . S
C550 N548 1.359 . S
C550 C553 1.414 . S
C551 H533 0.930 . S
C551 N548 1.327 . S
C551 C549 1.392 . S
C552 H547 0.930 . S
C552 C549 1.370 . S
C552 C553 1.385 . S
C553 C550 1.414 . S
C553 C552 1.385 . S
C553 C575 1.444 . S
O554 Tb510 2.546 . S
O554 C574 1.251 . S
O555 Tb510 2.610 . S
O555 Tb521 2.362 1_554 S
O555 C566 1.283 . S
O556 Tb521 2.421 . S
O556 C573 1.262 1_556 S
O557 Tb510 2.320 . S
O557 C573 1.260 . S
O558 Tb510 2.552 . S
O558 C566 1.243 . S
O559 Tb510 2.413 . S
O559 C574 1.256 . S
O560 Tb521 2.546 . S
O560 C585 1.251 . S
O561 Tb510 2.362 . S
O561 Tb521 2.610 1_554 S
O561 C577 1.283 1_554 S
O562 Tb510 2.421 . S
O562 C584 1.262 . S
O563 Tb521 2.320 . S
O563 C584 1.260 1_556 S
O564 Tb521 2.552 . S
O564 C577 1.243 . S
O565 Tb521 2.413 . S
O565 C585 1.256 . S
C566 O555 1.283 . S
C566 O558 1.243 . S
C567 C569 1.382 . S
C567 C571 1.393 . S
C567 C574 1.500 . S
C568 C569 1.400 . S
C568 C570 1.384 . S
C569 C567 1.382 . S
C569 C568 1.400 . S
C569 H586 0.930 . S
C570 C568 1.384 . S
C570 C572 1.392 . S
C570 H587 0.931 . S
C571 C567 1.393 . S
C571 C572 1.401 . S
C571 H588 0.930 . S
C572 C570 1.392 . S
C572 C571 1.401 . S
C572 H589 0.930 . S
C573 O556 1.262 1_554 S
C573 O557 1.260 . S
C574 Tb510 2.833 . S
C574 O554 1.251 . S
C574 O559 1.256 . S
C574 C567 1.500 . S
C575 H540 0.929 . S
C575 C553 1.444 . S
C575 C576 1.317 . S
C576 H538 0.930 . S
C576 C544 1.432 . S
C576 C575 1.317 . S
C577 O561 1.283 1_556 S
C577 O564 1.243 . S
C578 C579 1.382 . S
C578 C582 1.393 . S
C578 C585 1.500 . S
C579 C578 1.382 . S
C579 C580 1.400 . S
C579 H590 0.930 . S
C580 C579 1.400 . S
C580 C581 1.384 . S
C581 C580 1.384 . S
C581 C583 1.392 . S
C581 H591 0.931 . S
C582 C578 1.393 . S
C582 C583 1.401 . S
C582 H592 0.930 . S
C583 C581 1.392 . S
C583 C582 1.401 . S
C583 H593 0.930 . S
C584 O562 1.262 . S
C584 O563 1.260 1_554 S
C585 Tb521 2.833 . S
C585 O560 1.251 . S
C585 O565 1.256 . S
C585 C578 1.500 . S
H586 C569 0.930 . S
H587 C570 0.931 . S
H588 C571 0.930 . S
H589 C572 0.930 . S
H590 C579 0.930 . S
H591 C581 0.931 . S
H592 C582 0.930 . S
H593 C583 0.930 . S
Tb594 N625 2.660 . S
Tb594 N632 2.600 . S
Tb594 O638 2.546 . S
Tb594 O639 2.610 . S
Tb594 O641 2.320 . S
Tb594 O642 2.552 . S
Tb594 O643 2.413 . S
Tb594 O645 2.362 . S
Tb594 O646 2.421 . S
Tb594 C658 2.833 . S
C595 C598 1.432 . S
C595 C599 1.414 . S
C595 N602 1.359 . S
C596 C598 1.417 . S
C596 C600 1.432 . S
C596 C608 1.410 . S
C597 C599 1.444 . S
C597 C600 1.317 . S
C597 H620 0.929 . S
C598 C595 1.432 . S
C598 C596 1.417 . S
C598 N606 1.360 . S
C599 C595 1.414 . S
C599 C597 1.444 . S
C599 C604 1.385 . S
C600 C596 1.432 . S
C600 C597 1.317 . S
C600 H612 0.930 . S
C601 C603 1.392 . S
C601 C604 1.370 . S
C601 H613 0.931 . S
N602 C595 1.359 . S
N602 C603 1.327 . S
N602 Tb605 2.600 . S
C603 C601 1.392 . S
C603 N602 1.327 . S
C603 H610 0.930 . S
C604 C599 1.385 . S
C604 C601 1.370 . S
C604 H623 0.930 . S
Tb605 N602 2.600 . S
Tb605 N606 2.660 . S
Tb605 O639 2.362 . S
Tb605 O640 2.421 . S
Tb605 O644 2.546 . S
Tb605 O645 2.610 . S
Tb605 O647 2.320 . S
Tb605 O648 2.552 . S
Tb605 O649 2.413 . S
Tb605 C669 2.833 . S
N606 C598 1.360 . S
N606 Tb605 2.660 . S
N606 C607 1.305 . S
C607 N606 1.305 . S
C607 C609 1.407 . S
C607 H614 0.930 . S
C608 C596 1.410 . S
C608 C609 1.345 . S
C608 H616 0.930 . S
C609 C607 1.407 . S
C609 C608 1.345 . S
C609 H611 0.930 . S
H610 C603 0.930 . S
H611 C609 0.930 . S
H612 C600 0.930 . S
H613 C601 0.931 . S
H614 C607 0.930 . S
H615 C629 0.930 . S
H616 C608 0.930 . S
H617 C635 0.930 . S
H618 C626 0.930 . S
H619 C633 0.931 . S
H620 C597 0.929 . S
H621 C627 0.930 1_655 S
H622 C660 0.930 1_655 S
H623 C604 0.930 . S
H624 C659 0.929 . S
N625 Tb594 2.660 . S
N625 C626 1.305 . S
N625 C630 1.360 . S
C626 H618 0.930 . S
C626 N625 1.305 . S
C626 C629 1.407 . S
C627 H621 0.930 1_455 S
C627 C628 1.410 . S
C627 C629 1.345 . S
C628 C627 1.410 . S
C628 C630 1.417 . S
C628 C660 1.432 . S
C629 H615 0.930 . S
C629 C626 1.407 . S
C629 C627 1.345 . S
C630 N625 1.360 . S
C630 C628 1.417 . S
C630 C634 1.432 . S
H631 C636 0.930 . S
N632 Tb594 2.600 . S
N632 C634 1.359 . S
N632 C635 1.327 . S
C633 H619 0.931 . S
C633 C635 1.392 . S
C633 C636 1.370 . S
C634 C630 1.432 . S
C634 N632 1.359 . S
C634 C637 1.414 . S
C635 H617 0.930 . S
C635 N632 1.327 . S
C635 C633 1.392 . S
C636 H631 0.930 . S
C636 C633 1.370 . S
C636 C637 1.385 . S
C637 C634 1.414 . S
C637 C636 1.385 . S
C637 C659 1.444 . S
O638 Tb594 2.546 . S
O638 C658 1.251 . S
O639 Tb594 2.610 . S
O639 Tb605 2.362 . S
O639 C650 1.283 . S
O640 Tb605 2.421 . S
O640 C657 1.262 . S
O641 Tb594 2.320 . S
O641 C657 1.260 . S
O642 Tb594 2.552 . S
O642 C650 1.243 . S
O643 Tb594 2.413 . S
O643 C658 1.256 . S
O644 Tb605 2.546 . S
O644 C669 1.251 . S
O645 Tb594 2.362 . S
O645 Tb605 2.610 . S
O645 C661 1.283 . S
O646 Tb594 2.421 . S
O646 C668 1.262 . S
O647 Tb605 2.320 . S
O647 C668 1.260 . S
O648 Tb605 2.552 . S
O648 C661 1.243 . S
O649 Tb605 2.413 . S
O649 C669 1.256 . S
C650 O639 1.283 . S
C650 O642 1.243 . S
C651 C653 1.382 . S
C651 C655 1.393 . S
C651 C658 1.500 . S
C652 C653 1.400 . S
C652 C654 1.384 . S
C653 C651 1.382 . S
C653 C652 1.400 . S
C653 H670 0.930 . S
C654 C652 1.384 . S
C654 C656 1.392 . S
C654 H671 0.931 . S
C655 C651 1.393 . S
C655 C656 1.401 . S
C655 H672 0.930 . S
C656 C654 1.392 . S
C656 C655 1.401 . S
C656 H673 0.930 . S
C657 O640 1.262 . S
C657 O641 1.260 . S
C658 Tb594 2.833 . S
C658 O638 1.251 . S
C658 O643 1.256 . S
C658 C651 1.500 . S
C659 H624 0.929 . S
C659 C637 1.444 . S
C659 C660 1.317 . S
C660 H622 0.930 1_455 S
C660 C628 1.432 . S
C660 C659 1.317 . S
C661 O645 1.283 . S
C661 O648 1.243 . S
C662 C663 1.382 . S
C662 C666 1.393 . S
C662 C669 1.500 . S
C663 C662 1.382 . S
C663 C664 1.400 . S
C663 H674 0.930 . S
C664 C663 1.400 . S
C664 C665 1.384 . S
C665 C664 1.384 . S
C665 C667 1.392 . S
C665 H675 0.931 . S
C666 C662 1.393 . S
C666 C667 1.401 . S
C666 H676 0.930 . S
C667 C665 1.392 . S
C667 C666 1.401 . S
C667 H677 0.930 . S
C668 O646 1.262 . S
C668 O647 1.260 . S
C669 Tb605 2.833 . S
C669 O644 1.251 . S
C669 O649 1.256 . S
C669 C662 1.500 . S
H670 C653 0.930 . S
H671 C654 0.931 . S
H672 C655 0.930 . S
H673 C656 0.930 . S
H674 C663 0.930 . S
H675 C665 0.931 . S
H676 C666 0.930 . S
H677 C667 0.930 . S
Tb678 N709 2.660 . S
Tb678 N716 2.600 . S
Tb678 O722 2.546 . S
Tb678 O723 2.610 . S
Tb678 O725 2.320 . S
Tb678 O726 2.552 . S
Tb678 O727 2.413 . S
Tb678 O729 2.362 . S
Tb678 O730 2.421 . S
Tb678 C742 2.833 . S
C679 C682 1.432 . S
C679 C683 1.414 . S
C679 N686 1.359 . S
C680 C682 1.417 . S
C680 C684 1.432 . S
C680 C692 1.410 . S
C681 C683 1.444 . S
C681 C684 1.317 . S
C681 H704 0.929 . S
C682 C679 1.432 . S
C682 C680 1.417 . S
C682 N690 1.360 . S
C683 C679 1.414 . S
C683 C681 1.444 . S
C683 C688 1.385 . S
C684 C680 1.432 . S
C684 C681 1.317 . S
C684 H696 0.930 . S
C685 C687 1.392 . S
C685 C688 1.370 . S
C685 H697 0.931 . S
N686 C679 1.359 . S
N686 C687 1.327 . S
N686 Tb689 2.600 . S
C687 C685 1.392 . S
C687 N686 1.327 . S
C687 H694 0.930 . S
C688 C683 1.385 . S
C688 C685 1.370 . S
C688 H707 0.930 . S
Tb689 N686 2.600 . S
Tb689 N690 2.660 . S
Tb689 O723 2.362 . S
Tb689 O724 2.421 . S
Tb689 O728 2.546 . S
Tb689 O729 2.610 . S
Tb689 O731 2.320 . S
Tb689 O732 2.552 . S
Tb689 O733 2.413 . S
Tb689 C753 2.833 . S
N690 C682 1.360 . S
N690 Tb689 2.660 . S
N690 C691 1.305 . S
C691 N690 1.305 . S
C691 C693 1.407 . S
C691 H698 0.930 . S
C692 C680 1.410 . S
C692 C693 1.345 . S
C692 H700 0.930 . S
C693 C691 1.407 . S
C693 C692 1.345 . S
C693 H695 0.930 . S
H694 C687 0.930 . S
H695 C693 0.930 . S
H696 C684 0.930 . S
H697 C685 0.931 . S
H698 C691 0.930 . S
H699 C713 0.930 . S
H700 C692 0.930 . S
H701 C719 0.930 . S
H702 C710 0.930 . S
H703 C717 0.931 . S
H704 C681 0.929 . S
H705 C711 0.930 . S
H706 C744 0.930 . S
H707 C688 0.930 . S
H708 C743 0.929 . S
N709 Tb678 2.660 . S
N709 C710 1.305 . S
N709 C714 1.360 . S
C710 H702 0.930 . S
C710 N709 1.305 . S
C710 C713 1.407 . S
C711 H705 0.930 . S
C711 C712 1.410 . S
C711 C713 1.345 . S
C712 C711 1.410 . S
C712 C714 1.417 . S
C712 C744 1.432 . S
C713 H699 0.930 . S
C713 C710 1.407 . S
C713 C711 1.345 . S
C714 N709 1.360 . S
C714 C712 1.417 . S
C714 C718 1.432 . S
H715 C720 0.930 . S
N716 Tb678 2.600 . S
N716 C718 1.359 . S
N716 C719 1.327 . S
C717 H703 0.931 . S
C717 C719 1.392 . S
C717 C720 1.370 . S
C718 C714 1.432 . S
C718 N716 1.359 . S
C718 C721 1.414 . S
C719 H701 0.930 . S
C719 N716 1.327 . S
C719 C717 1.392 . S
C720 H715 0.930 . S
C720 C717 1.370 . S
C720 C721 1.385 . S
C721 C718 1.414 . S
C721 C720 1.385 . S
C721 C743 1.444 . S
O722 Tb678 2.546 . S
O722 C742 1.251 . S
O723 Tb678 2.610 . S
O723 Tb689 2.362 . S
O723 C734 1.283 . S
O724 Tb689 2.421 . S
O724 C741 1.262 . S
O725 Tb678 2.320 . S
O725 C741 1.260 . S
O726 Tb678 2.552 . S
O726 C734 1.243 . S
O727 Tb678 2.413 . S
O727 C742 1.256 . S
O728 Tb689 2.546 . S
O728 C753 1.251 . S
O729 Tb678 2.362 . S
O729 Tb689 2.610 . S
O729 C745 1.283 . S
O730 Tb678 2.421 . S
O730 C752 1.262 . S
O731 Tb689 2.320 . S
O731 C752 1.260 . S
O732 Tb689 2.552 . S
O732 C745 1.243 . S
O733 Tb689 2.413 . S
O733 C753 1.256 . S
C734 O723 1.283 . S
C734 O726 1.243 . S
C735 C737 1.382 . S
C735 C739 1.393 . S
C735 C742 1.500 . S
C736 C737 1.400 . S
C736 C738 1.384 . S
C737 C735 1.382 . S
C737 C736 1.400 . S
C737 H754 0.930 . S
C738 C736 1.384 . S
C738 C740 1.392 . S
C738 H755 0.931 . S
C739 C735 1.393 . S
C739 C740 1.401 . S
C739 H756 0.930 . S
C740 C738 1.392 . S
C740 C739 1.401 . S
C740 H757 0.930 . S
C741 O724 1.262 . S
C741 O725 1.260 . S
C742 Tb678 2.833 . S
C742 O722 1.251 . S
C742 O727 1.256 . S
C742 C735 1.500 . S
C743 H708 0.929 . S
C743 C721 1.444 . S
C743 C744 1.317 . S
C744 H706 0.930 . S
C744 C712 1.432 . S
C744 C743 1.317 . S
C745 O729 1.283 . S
C745 O732 1.243 . S
C746 C747 1.382 . S
C746 C750 1.393 . S
C746 C753 1.500 . S
C747 C746 1.382 . S
C747 C748 1.400 . S
C747 H758 0.930 . S
C748 C747 1.400 . S
C748 C749 1.384 . S
C749 C748 1.384 . S
C749 C751 1.392 . S
C749 H759 0.931 . S
C750 C746 1.393 . S
C750 C751 1.401 . S
C750 H760 0.930 . S
C751 C749 1.392 . S
C751 C750 1.401 . S
C751 H761 0.930 . S
C752 O730 1.262 . S
C752 O731 1.260 . S
C753 Tb689 2.833 . S
C753 O728 1.251 . S
C753 O733 1.256 . S
C753 C746 1.500 . S
H754 C737 0.930 . S
H755 C738 0.931 . S
H756 C739 0.930 . S
H757 C740 0.930 . S
H758 C747 0.930 . S
H759 C749 0.931 . S
H760 C750 0.930 . S
H761 C751 0.930 . S
Tb762 N793 2.660 . S
Tb762 N800 2.600 . S
Tb762 O806 2.546 . S
Tb762 O807 2.610 . S
Tb762 O809 2.320 . S
Tb762 O810 2.552 . S
Tb762 O811 2.413 . S
Tb762 O813 2.362 . S
Tb762 O814 2.421 . S
Tb762 C826 2.833 . S
C763 C766 1.432 . S
C763 C767 1.414 . S
C763 N770 1.359 . S
C764 C766 1.417 . S
C764 C768 1.432 . S
C764 C776 1.410 . S
C765 C767 1.444 . S
C765 C768 1.317 . S
C765 H788 0.929 . S
C766 C763 1.432 . S
C766 C764 1.417 . S
C766 N774 1.360 . S
C767 C763 1.414 . S
C767 C765 1.444 . S
C767 C772 1.385 . S
C768 C764 1.432 . S
C768 C765 1.317 . S
C768 H780 0.930 . S
C769 C771 1.392 . S
C769 C772 1.370 . S
C769 H781 0.931 . S
N770 C763 1.359 . S
N770 C771 1.327 . S
N770 Tb773 2.600 . S
C771 C769 1.392 . S
C771 N770 1.327 . S
C771 H778 0.930 . S
C772 C767 1.385 . S
C772 C769 1.370 . S
C772 H791 0.930 . S
Tb773 N770 2.600 . S
Tb773 N774 2.660 . S
Tb773 O807 2.362 . S
Tb773 O808 2.421 . S
Tb773 O812 2.546 . S
Tb773 O813 2.610 . S
Tb773 O815 2.320 . S
Tb773 O816 2.552 . S
Tb773 O817 2.413 . S
Tb773 C837 2.833 . S
N774 C766 1.360 . S
N774 Tb773 2.660 . S
N774 C775 1.305 . S
C775 N774 1.305 . S
C775 C777 1.407 . S
C775 H782 0.930 . S
C776 C764 1.410 . S
C776 C777 1.345 . S
C776 H784 0.930 . S
C777 C775 1.407 . S
C777 C776 1.345 . S
C777 H779 0.930 . S
H778 C771 0.930 . S
H779 C777 0.930 . S
H780 C768 0.930 . S
H781 C769 0.931 . S
H782 C775 0.930 . S
H783 C797 0.930 . S
H784 C776 0.930 . S
H785 C803 0.930 . S
H786 C794 0.930 . S
H787 C801 0.931 . S
H788 C765 0.929 . S
H789 C795 0.930 . S
H790 C828 0.930 . S
H791 C772 0.930 . S
H792 C827 0.929 . S
N793 Tb762 2.660 . S
N793 C794 1.305 . S
N793 C798 1.360 . S
C794 H786 0.930 . S
C794 N793 1.305 . S
C794 C797 1.407 . S
C795 H789 0.930 . S
C795 C796 1.410 . S
C795 C797 1.345 . S
C796 C795 1.410 . S
C796 C798 1.417 . S
C796 C828 1.432 . S
C797 H783 0.930 . S
C797 C794 1.407 . S
C797 C795 1.345 . S
C798 N793 1.360 . S
C798 C796 1.417 . S
C798 C802 1.432 . S
H799 C804 0.930 . S
N800 Tb762 2.600 . S
N800 C802 1.359 . S
N800 C803 1.327 . S
C801 H787 0.931 . S
C801 C803 1.392 . S
C801 C804 1.370 . S
C802 C798 1.432 . S
C802 N800 1.359 . S
C802 C805 1.414 . S
C803 H785 0.930 . S
C803 N800 1.327 . S
C803 C801 1.392 . S
C804 H799 0.930 . S
C804 C801 1.370 . S
C804 C805 1.385 . S
C805 C802 1.414 . S
C805 C804 1.385 . S
C805 C827 1.444 . S
O806 Tb762 2.546 . S
O806 C826 1.251 . S
O807 Tb762 2.610 . S
O807 Tb773 2.362 . S
O807 C818 1.283 . S
O808 Tb773 2.421 . S
O808 C825 1.262 . S
O809 Tb762 2.320 . S
O809 C825 1.260 . S
O810 Tb762 2.552 . S
O810 C818 1.243 . S
O811 Tb762 2.413 . S
O811 C826 1.256 . S
O812 Tb773 2.546 . S
O812 C837 1.251 . S
O813 Tb762 2.362 . S
O813 Tb773 2.610 . S
O813 C829 1.283 . S
O814 Tb762 2.421 . S
O814 C836 1.262 . S
O815 Tb773 2.320 . S
O815 C836 1.260 . S
O816 Tb773 2.552 . S
O816 C829 1.243 . S
O817 Tb773 2.413 . S
O817 C837 1.256 . S
C818 O807 1.283 . S
C818 O810 1.243 . S
C819 C821 1.382 . S
C819 C823 1.393 . S
C819 C826 1.500 . S
C820 C821 1.400 . S
C820 C822 1.384 . S
C821 C819 1.382 . S
C821 C820 1.400 . S
C821 H838 0.930 . S
C822 C820 1.384 . S
C822 C824 1.392 . S
C822 H839 0.931 . S
C823 C819 1.393 . S
C823 C824 1.401 . S
C823 H840 0.930 . S
C824 C822 1.392 . S
C824 C823 1.401 . S
C824 H841 0.930 . S
C825 O808 1.262 . S
C825 O809 1.260 . S
C826 Tb762 2.833 . S
C826 O806 1.251 . S
C826 O811 1.256 . S
C826 C819 1.500 . S
C827 H792 0.929 . S
C827 C805 1.444 . S
C827 C828 1.317 . S
C828 H790 0.930 . S
C828 C796 1.432 . S
C828 C827 1.317 . S
C829 O813 1.283 . S
C829 O816 1.243 . S
C830 C831 1.382 . S
C830 C834 1.393 . S
C830 C837 1.500 . S
C831 C830 1.382 . S
C831 C832 1.400 . S
C831 H842 0.930 . S
C832 C831 1.400 . S
C832 C833 1.384 . S
C833 C832 1.384 . S
C833 C835 1.392 . S
C833 H843 0.931 . S
C834 C830 1.393 . S
C834 C835 1.401 . S
C834 H844 0.930 . S
C835 C833 1.392 . S
C835 C834 1.401 . S
C835 H845 0.930 . S
C836 O814 1.262 . S
C836 O815 1.260 . S
C837 Tb773 2.833 . S
C837 O812 1.251 . S
C837 O817 1.256 . S
C837 C830 1.500 . S
H838 C821 0.930 . S
H839 C822 0.931 . S
H840 C823 0.930 . S
H841 C824 0.930 . S
H842 C831 0.930 . S
H843 C833 0.931 . S
H844 C834 0.930 . S
H845 C835 0.930 . S
Tb846 N877 2.660 . S
Tb846 N884 2.600 . S
Tb846 O890 2.546 . S
Tb846 O891 2.610 . S
Tb846 O893 2.320 . S
Tb846 O894 2.552 . S
Tb846 O895 2.413 . S
Tb846 O897 2.362 . S
Tb846 O898 2.421 . S
Tb846 C910 2.833 . S
C847 C850 1.432 . S
C847 C851 1.414 . S
C847 N854 1.359 . S
C848 C850 1.417 . S
C848 C852 1.432 . S
C848 C860 1.410 . S
C849 C851 1.444 . S
C849 C852 1.317 . S
C849 H872 0.929 . S
C850 C847 1.432 . S
C850 C848 1.417 . S
C850 N858 1.360 . S
C851 C847 1.414 . S
C851 C849 1.444 . S
C851 C856 1.385 . S
C852 C848 1.432 . S
C852 C849 1.317 . S
C852 H864 0.930 . S
C853 C855 1.392 . S
C853 C856 1.370 . S
C853 H865 0.931 . S
N854 C847 1.359 . S
N854 C855 1.327 . S
N854 Tb857 2.600 . S
C855 C853 1.392 . S
C855 N854 1.327 . S
C855 H862 0.930 . S
C856 C851 1.385 . S
C856 C853 1.370 . S
C856 H875 0.930 . S
Tb857 N854 2.600 . S
Tb857 N858 2.660 . S
Tb857 O891 2.362 . S
Tb857 O892 2.421 . S
Tb857 O896 2.546 . S
Tb857 O897 2.610 . S
Tb857 O899 2.320 . S
Tb857 O900 2.552 . S
Tb857 O901 2.413 . S
Tb857 C921 2.833 . S
N858 C850 1.360 . S
N858 Tb857 2.660 . S
N858 C859 1.305 . S
C859 N858 1.305 . S
C859 C861 1.407 . S
C859 H866 0.930 . S
C860 C848 1.410 . S
C860 C861 1.345 . S
C860 H868 0.930 . S
C861 C859 1.407 . S
C861 C860 1.345 . S
C861 H863 0.930 . S
H862 C855 0.930 . S
H863 C861 0.930 . S
H864 C852 0.930 . S
H865 C853 0.931 . S
H866 C859 0.930 . S
H867 C881 0.930 . S
H868 C860 0.930 . S
H869 C887 0.930 . S
H870 C878 0.930 . S
H871 C885 0.931 . S
H872 C849 0.929 . S
H873 C879 0.930 . S
H874 C912 0.930 . S
H875 C856 0.930 . S
H876 C911 0.929 . S
N877 Tb846 2.660 . S
N877 C878 1.305 . S
N877 C882 1.360 . S
C878 H870 0.930 . S
C878 N877 1.305 . S
C878 C881 1.407 . S
C879 H873 0.930 . S
C879 C880 1.410 . S
C879 C881 1.345 . S
C880 C879 1.410 . S
C880 C882 1.417 . S
C880 C912 1.432 . S
C881 H867 0.930 . S
C881 C878 1.407 . S
C881 C879 1.345 . S
C882 N877 1.360 . S
C882 C880 1.417 . S
C882 C886 1.432 . S
H883 C888 0.930 . S
N884 Tb846 2.600 . S
N884 C886 1.359 . S
N884 C887 1.327 . S
C885 H871 0.931 . S
C885 C887 1.392 . S
C885 C888 1.370 . S
C886 C882 1.432 . S
C886 N884 1.359 . S
C886 C889 1.414 . S
C887 H869 0.930 . S
C887 N884 1.327 . S
C887 C885 1.392 . S
C888 H883 0.930 . S
C888 C885 1.370 . S
C888 C889 1.385 . S
C889 C886 1.414 . S
C889 C888 1.385 . S
C889 C911 1.444 . S
O890 Tb846 2.546 . S
O890 C910 1.251 . S
O891 Tb846 2.610 . S
O891 Tb857 2.362 . S
O891 C902 1.283 . S
O892 Tb857 2.421 . S
O892 C909 1.262 . S
O893 Tb846 2.320 . S
O893 C909 1.260 . S
O894 Tb846 2.552 . S
O894 C902 1.243 . S
O895 Tb846 2.413 . S
O895 C910 1.256 . S
O896 Tb857 2.546 . S
O896 C921 1.251 . S
O897 Tb846 2.362 . S
O897 Tb857 2.610 . S
O897 C913 1.283 . S
O898 Tb846 2.421 . S
O898 C920 1.262 . S
O899 Tb857 2.320 . S
O899 C920 1.260 . S
O900 Tb857 2.552 . S
O900 C913 1.243 . S
O901 Tb857 2.413 . S
O901 C921 1.256 . S
C902 O891 1.283 . S
C902 O894 1.243 . S
C903 C905 1.382 . S
C903 C907 1.393 . S
C903 C910 1.500 . S
C904 C905 1.400 . S
C904 C906 1.384 . S
C905 C903 1.382 . S
C905 C904 1.400 . S
C905 H922 0.930 . S
C906 C904 1.384 . S
C906 C908 1.392 . S
C906 H923 0.931 . S
C907 C903 1.393 . S
C907 C908 1.401 . S
C907 H924 0.930 . S
C908 C906 1.392 . S
C908 C907 1.401 . S
C908 H925 0.930 . S
C909 O892 1.262 . S
C909 O893 1.260 . S
C910 Tb846 2.833 . S
C910 O890 1.251 . S
C910 O895 1.256 . S
C910 C903 1.500 . S
C911 H876 0.929 . S
C911 C889 1.444 . S
C911 C912 1.317 . S
C912 H874 0.930 . S
C912 C880 1.432 . S
C912 C911 1.317 . S
C913 O897 1.283 . S
C913 O900 1.243 . S
C914 C915 1.382 . S
C914 C918 1.393 . S
C914 C921 1.500 . S
C915 C914 1.382 . S
C915 C916 1.400 . S
C915 H926 0.930 . S
C916 C915 1.400 . S
C916 C917 1.384 . S
C917 C916 1.384 . S
C917 C919 1.392 . S
C917 H927 0.931 . S
C918 C914 1.393 . S
C918 C919 1.401 . S
C918 H928 0.930 . S
C919 C917 1.392 . S
C919 C918 1.401 . S
C919 H929 0.930 . S
C920 O898 1.262 . S
C920 O899 1.260 . S
C921 Tb857 2.833 . S
C921 O896 1.251 . S
C921 O901 1.256 . S
C921 C914 1.500 . S
H922 C905 0.930 . S
H923 C906 0.931 . S
H924 C907 0.930 . S
H925 C908 0.930 . S
H926 C915 0.930 . S
H927 C917 0.931 . S
H928 C918 0.930 . S
H929 C919 0.930 . S
Tb930 N961 2.660 . S
Tb930 N968 2.600 . S
Tb930 O974 2.546 . S
Tb930 O975 2.610 . S
Tb930 O977 2.320 . S
Tb930 O978 2.552 . S
Tb930 O979 2.413 . S
Tb930 O981 2.362 . S
Tb930 O982 2.421 . S
Tb930 C994 2.833 . S
C931 C934 1.432 . S
C931 C935 1.414 . S
C931 N938 1.359 . S
C932 C934 1.417 . S
C932 C936 1.432 . S
C932 C944 1.410 . S
C933 C935 1.444 . S
C933 C936 1.317 . S
C933 H956 0.929 . S
C934 C931 1.432 . S
C934 C932 1.417 . S
C934 N942 1.360 . S
C935 C931 1.414 . S
C935 C933 1.444 . S
C935 C940 1.385 . S
C936 C932 1.432 . S
C936 C933 1.317 . S
C936 H948 0.930 . S
C937 C939 1.392 . S
C937 C940 1.370 . S
C937 H949 0.931 . S
N938 C931 1.359 . S
N938 C939 1.327 . S
N938 Tb941 2.600 . S
C939 C937 1.392 . S
C939 N938 1.327 . S
C939 H946 0.930 . S
C940 C935 1.385 . S
C940 C937 1.370 . S
C940 H959 0.930 . S
Tb941 N938 2.600 . S
Tb941 N942 2.660 . S
Tb941 O975 2.362 . S
Tb941 O976 2.421 . S
Tb941 O980 2.546 . S
Tb941 O981 2.610 . S
Tb941 O983 2.320 . S
Tb941 O984 2.552 . S
Tb941 O985 2.413 . S
Tb941 C1005 2.833 . S
N942 C934 1.360 . S
N942 Tb941 2.660 . S
N942 C943 1.305 . S
C943 N942 1.305 . S
C943 C945 1.407 . S
C943 H950 0.930 . S
C944 C932 1.410 . S
C944 C945 1.345 . S
C944 H952 0.930 . S
C945 C943 1.407 . S
C945 C944 1.345 . S
C945 H947 0.930 . S
H946 C939 0.930 . S
H947 C945 0.930 . S
H948 C936 0.930 . S
H949 C937 0.931 . S
H950 C943 0.930 . S
H951 C965 0.930 . S
H952 C944 0.930 . S
H953 C971 0.930 . S
H954 C962 0.930 . S
H955 C969 0.931 . S
H956 C933 0.929 . S
H957 C963 0.930 . S
H958 C996 0.930 . S
H959 C940 0.930 . S
H960 C995 0.929 . S
N961 Tb930 2.660 . S
N961 C962 1.305 . S
N961 C966 1.360 . S
C962 H954 0.930 . S
C962 N961 1.305 . S
C962 C965 1.407 . S
C963 H957 0.930 . S
C963 C964 1.410 . S
C963 C965 1.345 . S
C964 C963 1.410 . S
C964 C966 1.417 . S
C964 C996 1.432 . S
C965 H951 0.930 . S
C965 C962 1.407 . S
C965 C963 1.345 . S
C966 N961 1.360 . S
C966 C964 1.417 . S
C966 C970 1.432 . S
H967 C972 0.930 . S
N968 Tb930 2.600 . S
N968 C970 1.359 . S
N968 C971 1.327 . S
C969 H955 0.931 . S
C969 C971 1.392 . S
C969 C972 1.370 . S
C970 C966 1.432 . S
C970 N968 1.359 . S
C970 C973 1.414 . S
C971 H953 0.930 . S
C971 N968 1.327 . S
C971 C969 1.392 . S
C972 H967 0.930 . S
C972 C969 1.370 . S
C972 C973 1.385 . S
C973 C970 1.414 . S
C973 C972 1.385 . S
C973 C995 1.444 . S
O974 Tb930 2.546 . S
O974 C994 1.251 . S
O975 Tb930 2.610 . S
O975 Tb941 2.362 . S
O975 C986 1.283 . S
O976 Tb941 2.421 . S
O976 C993 1.262 . S
O977 Tb930 2.320 . S
O977 C993 1.260 . S
O978 Tb930 2.552 . S
O978 C986 1.243 . S
O979 Tb930 2.413 . S
O979 C994 1.256 . S
O980 Tb941 2.546 . S
O980 C1005 1.251 . S
O981 Tb930 2.362 . S
O981 Tb941 2.610 . S
O981 C997 1.283 . S
O982 Tb930 2.421 . S
O982 C1004 1.262 . S
O983 Tb941 2.320 . S
O983 C1004 1.260 . S
O984 Tb941 2.552 . S
O984 C997 1.243 . S
O985 Tb941 2.413 . S
O985 C1005 1.256 . S
C986 O975 1.283 . S
C986 O978 1.243 . S
C987 C989 1.382 . S
C987 C991 1.393 . S
C987 C994 1.500 . S
C988 C989 1.400 . S
C988 C990 1.384 . S
C989 C987 1.382 . S
C989 C988 1.400 . S
C989 H1006 0.930 . S
C990 C988 1.384 . S
C990 C992 1.392 . S
C990 H1007 0.931 . S
C991 C987 1.393 . S
C991 C992 1.401 . S
C991 H1008 0.930 . S
C992 C990 1.392 . S
C992 C991 1.401 . S
C992 H1009 0.930 . S
C993 O976 1.262 . S
C993 O977 1.260 . S
C994 Tb930 2.833 . S
C994 O974 1.251 . S
C994 O979 1.256 . S
C994 C987 1.500 . S
C995 H960 0.929 . S
C995 C973 1.444 . S
C995 C996 1.317 . S
C996 H958 0.930 . S
C996 C964 1.432 . S
C996 C995 1.317 . S
C997 O981 1.283 . S
C997 O984 1.243 . S
C998 C999 1.382 . S
C998 C1002 1.393 . S
C998 C1005 1.500 . S
C999 C998 1.382 . S
C999 C1000 1.400 . S
C999 H1010 0.930 . S
C1000 C999 1.400 . S
C1000 C1001 1.384 . S
C1001 C1000 1.384 . S
C1001 C1003 1.392 . S
C1001 H1011 0.931 . S
C1002 C998 1.393 . S
C1002 C1003 1.401 . S
C1002 H1012 0.930 . S
C1003 C1001 1.392 . S
C1003 C1002 1.401 . S
C1003 H1013 0.930 . S
C1004 O982 1.262 . S
C1004 O983 1.260 . S
C1005 Tb941 2.833 . S
C1005 O980 1.251 . S
C1005 O985 1.256 . S
C1005 C998 1.500 . S
H1006 C989 0.930 . S
H1007 C990 0.931 . S
H1008 C991 0.930 . S
H1009 C992 0.930 . S
H1010 C999 0.930 . S
H1011 C1001 0.931 . S
H1012 C1002 0.930 . S
H1013 C1003 0.930 . S
Tb1014 N1045 2.660 . S
Tb1014 N1052 2.600 . S
Tb1014 O1058 2.546 . S
Tb1014 O1059 2.610 . S
Tb1014 O1061 2.320 . S
Tb1014 O1062 2.552 . S
Tb1014 O1063 2.413 . S
Tb1014 O1065 2.362 . S
Tb1014 O1066 2.421 . S
Tb1014 C1078 2.833 . S
C1015 C1018 1.432 . S
C1015 C1019 1.414 . S
C1015 N1022 1.359 . S
C1016 C1018 1.417 . S
C1016 C1020 1.432 . S
C1016 C1028 1.410 . S
C1017 C1019 1.444 . S
C1017 C1020 1.317 . S
C1017 H1040 0.929 . S
C1018 C1015 1.432 . S
C1018 C1016 1.417 . S
C1018 N1026 1.360 . S
C1019 C1015 1.414 . S
C1019 C1017 1.444 . S
C1019 C1024 1.385 . S
C1020 C1016 1.432 . S
C1020 C1017 1.317 . S
C1020 H1032 0.930 . S
C1021 C1023 1.392 . S
C1021 C1024 1.370 . S
C1021 H1033 0.931 . S
N1022 C1015 1.359 . S
N1022 C1023 1.327 . S
N1022 Tb1025 2.600 . S
C1023 C1021 1.392 . S
C1023 N1022 1.327 . S
C1023 H1030 0.930 . S
C1024 C1019 1.385 . S
C1024 C1021 1.370 . S
C1024 H1043 0.930 . S
Tb1025 N1022 2.600 . S
Tb1025 N1026 2.660 . S
Tb1025 O1059 2.362 . S
Tb1025 O1060 2.421 . S
Tb1025 O1064 2.546 . S
Tb1025 O1065 2.610 . S
Tb1025 O1067 2.320 . S
Tb1025 O1068 2.552 . S
Tb1025 O1069 2.413 . S
Tb1025 C1089 2.833 . S
N1026 C1018 1.360 . S
N1026 Tb1025 2.660 . S
N1026 C1027 1.305 . S
C1027 N1026 1.305 . S
C1027 C1029 1.407 . S
C1027 H1034 0.930 . S
C1028 C1016 1.410 . S
C1028 C1029 1.345 . S
C1028 H1036 0.930 . S
C1029 C1027 1.407 . S
C1029 C1028 1.345 . S
C1029 H1031 0.930 . S
H1030 C1023 0.930 . S
H1031 C1029 0.930 . S
H1032 C1020 0.930 . S
H1033 C1021 0.931 . S
H1034 C1027 0.930 . S
H1035 C1049 0.930 . S
H1036 C1028 0.930 . S
H1037 C1055 0.930 . S
H1038 C1046 0.930 . S
H1039 C1053 0.931 . S
H1040 C1017 0.929 . S
H1041 C1047 0.930 1_455 S
H1042 C1080 0.930 1_455 S
H1043 C1024 0.930 . S
H1044 C1079 0.929 . S
N1045 Tb1014 2.660 . S
N1045 C1046 1.305 . S
N1045 C1050 1.360 . S
C1046 H1038 0.930 . S
C1046 N1045 1.305 . S
C1046 C1049 1.407 . S
C1047 H1041 0.930 1_655 S
C1047 C1048 1.410 . S
C1047 C1049 1.345 . S
C1048 C1047 1.410 . S
C1048 C1050 1.417 . S
C1048 C1080 1.432 . S
C1049 H1035 0.930 . S
C1049 C1046 1.407 . S
C1049 C1047 1.345 . S
C1050 N1045 1.360 . S
C1050 C1048 1.417 . S
C1050 C1054 1.432 . S
H1051 C1056 0.930 . S
N1052 Tb1014 2.600 . S
N1052 C1054 1.359 . S
N1052 C1055 1.327 . S
C1053 H1039 0.931 . S
C1053 C1055 1.392 . S
C1053 C1056 1.370 . S
C1054 C1050 1.432 . S
C1054 N1052 1.359 . S
C1054 C1057 1.414 . S
C1055 H1037 0.930 . S
C1055 N1052 1.327 . S
C1055 C1053 1.392 . S
C1056 H1051 0.930 . S
C1056 C1053 1.370 . S
C1056 C1057 1.385 . S
C1057 C1054 1.414 . S
C1057 C1056 1.385 . S
C1057 C1079 1.444 . S
O1058 Tb1014 2.546 . S
O1058 C1078 1.251 . S
O1059 Tb1014 2.610 . S
O1059 Tb1025 2.362 . S
O1059 C1070 1.283 . S
O1060 Tb1025 2.421 . S
O1060 C1077 1.262 . S
O1061 Tb1014 2.320 . S
O1061 C1077 1.260 . S
O1062 Tb1014 2.552 . S
O1062 C1070 1.243 . S
O1063 Tb1014 2.413 . S
O1063 C1078 1.256 . S
O1064 Tb1025 2.546 . S
O1064 C1089 1.251 . S
O1065 Tb1014 2.362 . S
O1065 Tb1025 2.610 . S
O1065 C1081 1.283 . S
O1066 Tb1014 2.421 . S
O1066 C1088 1.262 . S
O1067 Tb1025 2.320 . S
O1067 C1088 1.260 . S
O1068 Tb1025 2.552 . S
O1068 C1081 1.243 . S
O1069 Tb1025 2.413 . S
O1069 C1089 1.256 . S
C1070 O1059 1.283 . S
C1070 O1062 1.243 . S
C1071 C1073 1.382 . S
C1071 C1075 1.393 . S
C1071 C1078 1.500 . S
C1072 C1073 1.400 . S
C1072 C1074 1.384 . S
C1073 C1071 1.382 . S
C1073 C1072 1.400 . S
C1073 H1090 0.930 . S
C1074 C1072 1.384 . S
C1074 C1076 1.392 . S
C1074 H1091 0.931 . S
C1075 C1071 1.393 . S
C1075 C1076 1.401 . S
C1075 H1092 0.930 . S
C1076 C1074 1.392 . S
C1076 C1075 1.401 . S
C1076 H1093 0.930 . S
C1077 O1060 1.262 . S
C1077 O1061 1.260 . S
C1078 Tb1014 2.833 . S
C1078 O1058 1.251 . S
C1078 O1063 1.256 . S
C1078 C1071 1.500 . S
C1079 H1044 0.929 . S
C1079 C1057 1.444 . S
C1079 C1080 1.317 . S
C1080 H1042 0.930 1_655 S
C1080 C1048 1.432 . S
C1080 C1079 1.317 . S
C1081 O1065 1.283 . S
C1081 O1068 1.243 . S
C1082 C1083 1.382 . S
C1082 C1086 1.393 . S
C1082 C1089 1.500 . S
C1083 C1082 1.382 . S
C1083 C1084 1.400 . S
C1083 H1094 0.930 . S
C1084 C1083 1.400 . S
C1084 C1085 1.384 . S
C1085 C1084 1.384 . S
C1085 C1087 1.392 . S
C1085 H1095 0.931 . S
C1086 C1082 1.393 . S
C1086 C1087 1.401 . S
C1086 H1096 0.930 . S
C1087 C1085 1.392 . S
C1087 C1086 1.401 . S
C1087 H1097 0.930 . S
C1088 O1066 1.262 . S
C1088 O1067 1.260 . S
C1089 Tb1025 2.833 . S
C1089 O1064 1.251 . S
C1089 O1069 1.256 . S
C1089 C1082 1.500 . S
H1090 C1073 0.930 . S
H1091 C1074 0.931 . S
H1092 C1075 0.930 . S
H1093 C1076 0.930 . S
H1094 C1083 0.930 . S
H1095 C1085 0.931 . S
H1096 C1086 0.930 . S
H1097 C1087 0.930 . S
H1098 C1104 0.930 . S
H1099 C1108 0.930 1_556 S
H1100 C1113 0.929 . S
H1101 C1111 0.929 . S
H1102 C1106 0.929 . S
H1103 C1112 0.929 . S
C1104 H1098 0.930 . S
C1104 C1105 1.367 . S
C1104 C1112 1.378 . S
C1105 C1104 1.367 . S
C1105 C1113 1.433 . S
C1106 H1102 0.929 . S
C1106 C1108 1.378 . S
C1106 C1110 1.350 . S
C1107 C1110 1.463 . S
C1107 C1112 1.350 . S
C1107 N1115 1.427 . S
C1108 H1099 0.930 1_554 S
C1108 C1106 1.378 . S
C1108 C1109 1.367 . S
C1109 C1108 1.367 . S
C1109 C1111 1.433 . S
C1110 C1106 1.350 . S
C1110 C1107 1.463 . S
C1110 N1114 1.427 . S
C1111 H1101 0.929 . S
C1111 C1109 1.433 . S
C1111 N1114 1.384 . S
C1112 H1103 0.929 . S
C1112 C1104 1.378 . S
C1112 C1107 1.350 . S
C1113 H1100 0.929 . S
C1113 C1105 1.433 . S
C1113 N1115 1.384 . S
N1114 C1110 1.427 . S
N1114 C1111 1.384 . S
N1115 C1107 1.427 . S
N1115 C1113 1.384 . S
H1116 C1122 0.930 . S
H1117 C1126 0.930 . S
H1118 C1131 0.929 . S
H1119 C1129 0.929 . S
H1120 C1124 0.929 . S
H1121 C1130 0.929 . S
C1122 H1116 0.930 . S
C1122 C1123 1.367 . S
C1122 C1130 1.378 . S
C1123 C1122 1.367 . S
C1123 C1131 1.433 . S
C1124 H1120 0.929 . S
C1124 C1126 1.378 . S
C1124 C1128 1.350 . S
C1125 C1128 1.463 . S
C1125 C1130 1.350 . S
C1125 N1133 1.427 . S
C1126 H1117 0.930 . S
C1126 C1124 1.378 . S
C1126 C1127 1.367 . S
C1127 C1126 1.367 . S
C1127 C1129 1.433 . S
C1128 C1124 1.350 . S
C1128 C1125 1.463 . S
C1128 N1132 1.427 . S
C1129 H1119 0.929 . S
C1129 C1127 1.433 . S
C1129 N1132 1.384 . S
C1130 H1121 0.929 . S
C1130 C1122 1.378 . S
C1130 C1125 1.350 . S
C1131 H1118 0.929 . S
C1131 C1123 1.433 . S
C1131 N1133 1.384 . S
N1132 C1128 1.427 . S
N1132 C1129 1.384 . S
N1133 C1125 1.427 . S
N1133 C1131 1.384 . S
H1134 C1140 0.930 . S
H1135 C1144 0.930 . S
H1136 C1149 0.929 . S
H1137 C1147 0.929 . S
H1138 C1142 0.929 . S
H1139 C1148 0.929 . S
C1140 H1134 0.930 . S
C1140 C1141 1.367 . S
C1140 C1148 1.378 . S
C1141 C1140 1.367 . S
C1141 C1149 1.433 . S
C1142 H1138 0.929 . S
C1142 C1144 1.378 . S
C1142 C1146 1.350 . S
C1143 C1146 1.463 . S
C1143 C1148 1.350 . S
C1143 N1151 1.427 . S
C1144 H1135 0.930 . S
C1144 C1142 1.378 . S
C1144 C1145 1.367 . S
C1145 C1144 1.367 . S
C1145 C1147 1.433 . S
C1146 C1142 1.350 . S
C1146 C1143 1.463 . S
C1146 N1150 1.427 . S
C1147 H1137 0.929 . S
C1147 C1145 1.433 . S
C1147 N1150 1.384 . S
C1148 H1139 0.929 . S
C1148 C1140 1.378 . S
C1148 C1143 1.350 . S
C1149 H1136 0.929 . S
C1149 C1141 1.433 . S
C1149 N1151 1.384 . S
N1150 C1146 1.427 . S
N1150 C1147 1.384 . S
N1151 C1143 1.427 . S
N1151 C1149 1.384 . S
H1152 C1158 0.930 . S
H1153 C1162 0.930 . S
H1154 C1167 0.929 . S
H1155 C1165 0.929 . S
H1156 C1160 0.929 . S
H1157 C1166 0.936 . S
C1158 H1152 0.930 . S
C1158 C1159 1.367 . S
C1158 C1166 1.378 . S
C1159 C1158 1.367 . S
C1159 C1167 1.433 . S
C1160 H1156 0.929 . S
C1160 C1162 1.378 . S
C1160 C1164 1.350 . S
C1161 C1164 1.463 . S
C1161 C1166 1.350 . S
C1161 N1169 1.427 . S
C1162 H1153 0.930 . S
C1162 C1160 1.378 . S
C1162 C1163 1.367 . S
C1163 C1162 1.367 . S
C1163 C1165 1.433 1_556 S
C1164 C1160 1.350 . S
C1164 C1161 1.463 . S
C1164 N1168 1.406 1_556 S
C1165 H1155 0.929 . S
C1165 C1163 1.433 1_554 S
C1165 N1168 1.392 . S
C1166 H1157 0.936 . S
C1166 C1158 1.378 . S
C1166 C1161 1.350 . S
C1167 H1154 0.929 . S
C1167 C1159 1.433 . S
C1167 N1169 1.384 . S
N1168 C1164 1.406 1_554 S
N1168 C1165 1.392 . S
N1169 C1161 1.427 . S
N1169 C1167 1.384 . S
H1170 C1176 0.930 . S
H1171 C1180 0.930 . S
H1172 C1185 0.929 . S
H1173 C1183 0.929 . S
H1174 C1178 0.929 . S
H1175 C1184 0.929 1_554 S
C1176 H1170 0.930 . S
C1176 C1177 1.367 . S
C1176 C1184 1.378 . S
C1177 C1176 1.367 . S
C1177 C1185 1.433 . S
C1178 H1174 0.929 . S
C1178 C1180 1.378 . S
C1178 C1182 1.350 . S
C1179 C1182 1.463 . S
C1179 C1184 1.350 . S
C1179 N1187 1.427 . S
C1180 H1171 0.930 . S
C1180 C1178 1.378 . S
C1180 C1181 1.367 . S
C1181 C1180 1.367 . S
C1181 C1183 1.433 1_556 S
C1182 C1178 1.350 . S
C1182 C1179 1.463 . S
C1182 N1186 1.427 1_556 S
C1183 H1173 0.929 . S
C1183 C1181 1.433 1_554 S
C1183 N1186 1.384 . S
C1184 H1175 0.929 1_556 S
C1184 C1176 1.378 . S
C1184 C1179 1.350 . S
C1185 H1172 0.929 . S
C1185 C1177 1.433 . S
C1185 N1187 1.384 . S
N1186 C1182 1.427 1_554 S
N1186 C1183 1.384 . S
N1187 C1179 1.427 . S
N1187 C1185 1.384 . S
H1188 C1194 0.940 . S
H1189 C1198 0.930 . S
H1190 C1203 0.929 . S
H1191 C1201 0.929 . S
H1192 C1196 0.929 . S
H1193 C1202 0.929 1_554 S
C1194 H1188 0.940 . S
C1194 C1195 1.367 . S
C1194 C1202 1.378 . S
C1195 C1194 1.367 . S
C1195 C1203 1.433 . S
C1196 H1192 0.929 . S
C1196 C1198 1.378 . S
C1196 C1200 1.350 . S
C1197 C1200 1.463 . S
C1197 C1202 1.350 . S
C1197 N1205 1.427 . S
C1198 H1189 0.930 . S
C1198 C1196 1.378 . S
C1198 C1199 1.367 . S
C1199 C1198 1.367 . S
C1199 C1201 1.433 1_556 S
C1200 C1196 1.350 . S
C1200 C1197 1.463 . S
C1200 N1204 1.427 1_556 S
C1201 H1191 0.929 . S
C1201 C1199 1.433 1_554 S
C1201 N1204 1.384 . S
C1202 H1193 0.929 1_556 S
C1202 C1194 1.378 . S
C1202 C1197 1.350 . S
C1203 H1190 0.929 . S
C1203 C1195 1.433 . S
C1203 N1205 1.384 . S
N1204 C1200 1.427 1_554 S
N1204 C1201 1.384 . S
N1205 C1197 1.427 . S
N1205 C1203 1.384 . S
H1206 C1212 0.930 . S
H1207 C1216 0.930 . S
H1208 C1221 0.927 1_554 S
H1209 C1219 0.929 . S
H1210 C1214 0.929 . S
H1211 C1220 0.929 . S
C1212 H1206 0.930 . S
C1212 C1213 1.367 . S
C1212 C1220 1.378 . S
C1213 C1212 1.367 . S
C1213 C1221 1.437 . S
C1214 H1210 0.929 . S
C1214 C1216 1.378 . S
C1214 C1218 1.350 1_554 S
C1215 C1218 1.463 . S
C1215 C1220 1.350 . S
C1215 N1223 1.427 1_556 S
C1216 H1207 0.930 . S
C1216 C1214 1.378 . S
C1216 C1217 1.367 1_554 S
C1217 C1216 1.367 1_556 S
C1217 C1219 1.433 . S
C1218 C1214 1.350 1_556 S
C1218 C1215 1.463 . S
C1218 N1222 1.427 . S
C1219 H1209 0.929 . S
C1219 C1217 1.433 . S
C1219 N1222 1.384 . S
C1220 H1211 0.929 . S
C1220 C1212 1.378 . S
C1220 C1215 1.350 . S
C1221 H1208 0.927 1_556 S
C1221 C1213 1.437 . S
C1221 N1223 1.383 1_556 S
N1222 C1218 1.427 . S
N1222 C1219 1.384 . S
N1223 C1215 1.427 1_554 S
N1223 C1221 1.383 1_554 S
H1224 C1230 0.930 . S
H1225 C1234 0.930 . S
H1226 C1239 0.929 . S
H1227 C1237 0.929 . S
H1228 C1232 0.929 . S
H1229 C1238 0.929 1_554 S
C1230 H1224 0.930 . S
C1230 C1231 1.367 . S
C1230 C1238 1.378 . S
C1231 C1230 1.367 . S
C1231 C1239 1.433 . S
C1232 H1228 0.929 . S
C1232 C1234 1.378 . S
C1232 C1236 1.350 . S
C1233 C1236 1.463 . S
C1233 C1238 1.350 . S
C1233 N1241 1.427 . S
C1234 H1225 0.930 . S
C1234 C1232 1.378 . S
C1234 C1235 1.367 . S
C1235 C1234 1.367 . S
C1235 C1237 1.433 1_556 S
C1236 C1232 1.350 . S
C1236 C1233 1.463 . S
C1236 N1240 1.427 1_556 S
C1237 H1227 0.929 . S
C1237 C1235 1.433 1_554 S
C1237 N1240 1.384 . S
C1238 H1229 0.929 1_556 S
C1238 C1230 1.378 . S
C1238 C1233 1.350 . S
C1239 H1226 0.929 . S
C1239 C1231 1.433 . S
C1239 N1241 1.384 . S
N1240 C1236 1.427 1_554 S
N1240 C1237 1.384 . S
N1241 C1233 1.427 . S
N1241 C1239 1.384 . S
H1242 C1248 0.930 . S
H1243 C1252 0.930 . S
H1244 C1257 0.929 . S
H1245 C1255 0.929 . S
H1246 C1250 0.929 . S
H1247 C1256 0.929 . S
C1248 H1242 0.930 . S
C1248 C1249 1.367 1_554 S
C1248 C1256 1.378 . S
C1249 C1248 1.367 1_556 S
C1249 C1257 1.433 . S
C1250 H1246 0.929 . S
C1250 C1252 1.378 . S
C1250 C1254 1.350 . S
C1251 C1254 1.463 . S
C1251 C1256 1.350 1_556 S
C1251 N1259 1.427 . S
C1252 H1243 0.930 . S
C1252 C1250 1.378 . S
C1252 C1253 1.393 . S
C1253 C1252 1.393 . S
C1253 C1255 1.411 1_556 S
C1254 C1250 1.350 . S
C1254 C1251 1.463 . S
C1254 N1258 1.427 1_556 S
C1255 H1245 0.929 . S
C1255 C1253 1.411 1_554 S
C1255 N1258 1.384 . S
C1256 H1247 0.929 . S
C1256 C1248 1.378 . S
C1256 C1251 1.350 1_554 S
C1257 H1244 0.929 . S
C1257 C1249 1.433 . S
C1257 N1259 1.384 . S
N1258 C1254 1.427 1_554 S
N1258 C1255 1.384 . S
N1259 C1251 1.427 . S
N1259 C1257 1.384 . S
H1260 C1266 0.930 . S
H1261 C1270 0.930 . S
H1262 C1275 0.929 . S
H1263 C1273 0.929 . S
H1264 C1268 0.929 . S
H1265 C1274 0.929 . S
C1266 H1260 0.930 . S
C1266 C1267 1.367 . S
C1266 C1274 1.378 . S
C1267 C1266 1.367 . S
C1267 C1275 1.433 . S
C1268 H1264 0.929 . S
C1268 C1270 1.378 . S
C1268 C1272 1.350 . S
C1269 C1272 1.463 . S
C1269 C1274 1.350 . S
C1269 N1277 1.427 . S
C1270 H1261 0.930 . S
C1270 C1268 1.378 . S
C1270 C1271 1.367 . S
C1271 C1270 1.367 . S
C1271 C1273 1.433 . S
C1272 C1268 1.350 . S
C1272 C1269 1.463 . S
C1272 N1276 1.427 . S
C1273 H1263 0.929 . S
C1273 C1271 1.433 . S
C1273 N1276 1.384 . S
C1274 H1265 0.929 . S
C1274 C1266 1.378 . S
C1274 C1269 1.350 . S
C1275 H1262 0.929 . S
C1275 C1267 1.433 . S
C1275 N1277 1.384 . S
N1276 C1272 1.427 . S
N1276 C1273 1.384 . S
N1277 C1269 1.427 . S
N1277 C1275 1.384 . S
H1278 C1284 0.930 . S
H1279 C1288 0.918 1_556 S
H1280 C1293 0.929 . S
H1281 C1291 0.929 . S
H1282 C1286 0.929 . S
H1283 C1292 0.929 . S
C1284 H1278 0.930 . S
C1284 C1285 1.367 . S
C1284 C1292 1.378 . S
C1285 C1284 1.367 . S
C1285 C1293 1.433 . S
C1286 H1282 0.929 . S
C1286 C1288 1.378 . S
C1286 C1290 1.350 . S
C1287 C1290 1.463 . S
C1287 C1292 1.350 . S
C1287 N1295 1.427 . S
C1288 H1279 0.918 1_554 S
C1288 C1286 1.378 . S
C1288 C1289 1.367 . S
C1289 C1288 1.367 . S
C1289 C1291 1.433 . S
C1290 C1286 1.350 . S
C1290 C1287 1.463 . S
C1290 N1294 1.427 . S
C1291 H1281 0.929 . S
C1291 C1289 1.433 . S
C1291 N1294 1.384 . S
C1292 H1283 0.929 . S
C1292 C1284 1.378 . S
C1292 C1287 1.350 . S
C1293 H1280 0.929 . S
C1293 C1285 1.433 . S
C1293 N1295 1.384 . S
N1294 C1290 1.427 . S
N1294 C1291 1.384 . S
N1295 C1287 1.427 . S
N1295 C1293 1.384 . S
H1296 C1302 0.930 . S
H1297 C1306 0.930 1_556 S
H1298 C1311 0.929 . S
H1299 C1309 0.929 . S
H1300 C1304 0.929 1_556 S
H1301 C1310 0.929 . S
C1302 H1296 0.930 . S
C1302 C1303 1.367 . S
C1302 C1310 1.378 . S
C1303 C1302 1.367 . S
C1303 C1311 1.433 . S
C1304 H1300 0.929 1_554 S
C1304 C1306 1.378 . S
C1304 C1308 1.350 . S
C1305 C1308 1.463 . S
C1305 C1310 1.350 . S
C1305 N1313 1.427 . S
C1306 H1297 0.930 1_554 S
C1306 C1304 1.378 . S
C1306 C1307 1.367 . S
C1307 C1306 1.367 . S
C1307 C1309 1.433 . S
C1308 C1304 1.350 . S
C1308 C1305 1.463 . S
C1308 N1312 1.427 . S
C1309 H1299 0.929 . S
C1309 C1307 1.433 . S
C1309 N1312 1.384 . S
C1310 H1301 0.929 . S
C1310 C1302 1.378 . S
C1310 C1305 1.350 . S
C1311 H1298 0.929 . S
C1311 C1303 1.433 . S
C1311 N1313 1.384 . S
N1312 C1308 1.427 . S
N1312 C1309 1.384 . S
N1313 C1305 1.427 . S
N1313 C1311 1.384 . S
H1314 C1320 0.930 . S
H1315 C1324 0.930 . S
H1316 C1329 0.929 . S
H1317 C1327 0.929 . S
H1318 C1322 0.929 . S
H1319 C1328 0.929 . S
C1320 H1314 0.930 . S
C1320 C1321 1.367 . S
C1320 C1328 1.378 . S
C1321 C1320 1.367 . S
C1321 C1329 1.433 . S
C1322 H1318 0.929 . S
C1322 C1324 1.378 . S
C1322 C1326 1.350 . S
C1323 C1326 1.463 1_655 S
C1323 C1328 1.350 . S
C1323 N1331 1.427 . S
C1324 H1315 0.930 . S
C1324 C1322 1.378 . S
C1324 C1325 1.367 . S
C1325 C1324 1.367 . S
C1325 C1327 1.433 . S
C1326 C1322 1.350 . S
C1326 C1323 1.463 1_455 S
C1326 N1330 1.427 . S
C1327 H1317 0.929 . S
C1327 C1325 1.433 . S
C1327 N1330 1.384 . S
C1328 H1319 0.929 . S
C1328 C1320 1.378 . S
C1328 C1323 1.350 . S
C1329 H1316 0.929 . S
C1329 C1321 1.433 . S
C1329 N1331 1.384 . S
N1330 C1326 1.427 . S
N1330 C1327 1.384 . S
N1331 C1323 1.427 . S
N1331 C1329 1.384 . S
H1332 C1338 0.930 . S
H1333 C1342 0.930 . S
H1334 C1347 0.929 . S
H1335 C1345 0.929 . S
H1336 C1340 0.929 . S
H1337 C1346 0.929 . S
C1338 H1332 0.930 . S
C1338 C1339 1.367 . S
C1338 C1346 1.378 . S
C1339 C1338 1.367 . S
C1339 C1347 1.433 . S
C1340 H1336 0.929 . S
C1340 C1342 1.378 . S
C1340 C1344 1.350 . S
C1341 C1344 1.463 . S
C1341 C1346 1.350 . S
C1341 N1349 1.427 . S
C1342 H1333 0.930 . S
C1342 C1340 1.378 . S
C1342 C1343 1.367 . S
C1343 C1342 1.367 . S
C1343 C1345 1.433 . S
C1344 C1340 1.350 . S
C1344 C1341 1.463 . S
C1344 N1348 1.427 . S
C1345 H1335 0.929 . S
C1345 C1343 1.433 . S
C1345 N1348 1.384 . S
C1346 H1337 0.929 . S
C1346 C1338 1.378 . S
C1346 C1341 1.350 . S
C1347 H1334 0.929 . S
C1347 C1339 1.433 . S
C1347 N1349 1.384 . S
N1348 C1344 1.427 . S
N1348 C1345 1.384 . S
N1349 C1341 1.427 . S
N1349 C1347 1.384 . S
H1350 C1356 0.930 . S
H1351 C1360 0.930 . S
H1352 C1365 0.929 . S
H1353 C1363 0.929 . S
H1354 C1358 0.929 . S
H1355 C1364 0.929 . S
C1356 H1350 0.930 . S
C1356 C1357 1.367 . S
C1356 C1364 1.378 . S
C1357 C1356 1.367 . S
C1357 C1365 1.433 . S
C1358 H1354 0.929 . S
C1358 C1360 1.378 . S
C1358 C1362 1.350 . S
C1359 C1362 1.463 1_545 S
C1359 C1364 1.350 . S
C1359 N1367 1.427 . S
C1360 H1351 0.930 . S
C1360 C1358 1.378 . S
C1360 C1361 1.367 . S
C1361 C1360 1.367 . S
C1361 C1363 1.433 . S
C1362 C1358 1.350 . S
C1362 C1359 1.463 1_565 S
C1362 N1366 1.427 . S
C1363 H1353 0.929 . S
C1363 C1361 1.433 . S
C1363 N1366 1.384 . S
C1364 H1355 0.929 . S
C1364 C1356 1.378 . S
C1364 C1359 1.350 . S
C1365 H1352 0.929 . S
C1365 C1357 1.433 . S
C1365 N1367 1.384 . S
N1366 C1362 1.427 . S
N1366 C1363 1.384 . S
N1367 C1359 1.427 . S
N1367 C1365 1.384 . S
H1368 C1374 0.930 . S
H1369 C1378 0.930 . S
H1370 C1383 0.929 . S
H1371 C1381 0.929 . S
H1372 C1376 0.929 . S
H1373 C1382 0.929 . S
C1374 H1368 0.930 . S
C1374 C1375 1.367 . S
C1374 C1382 1.378 . S
C1375 C1374 1.367 . S
C1375 C1383 1.433 . S
C1376 H1372 0.929 . S
C1376 C1378 1.378 . S
C1376 C1380 1.350 . S
C1377 C1380 1.463 . S
C1377 C1382 1.350 . S
C1377 N1385 1.427 . S
C1378 H1369 0.930 . S
C1378 C1376 1.378 . S
C1378 C1379 1.367 . S
C1379 C1378 1.367 . S
C1379 C1381 1.433 . S
C1380 C1376 1.350 . S
C1380 C1377 1.463 . S
C1380 N1384 1.427 . S
C1381 H1371 0.929 . S
C1381 C1379 1.433 . S
C1381 N1384 1.384 . S
C1382 H1373 0.929 . S
C1382 C1374 1.378 . S
C1382 C1377 1.350 . S
C1383 H1370 0.929 . S
C1383 C1375 1.433 . S
C1383 N1385 1.384 . S
N1384 C1380 1.427 . S
N1384 C1381 1.384 . S
N1385 C1377 1.427 . S
N1385 C1383 1.384 . S
H1386 C1392 0.930 . S
H1387 C1396 0.930 . S
H1388 C1401 0.929 . S
H1389 C1399 0.929 . S
H1390 C1394 0.929 . S
H1391 C1400 0.929 . S
C1392 H1386 0.930 . S
C1392 C1393 1.367 . S
C1392 C1400 1.378 . S
C1393 C1392 1.367 . S
C1393 C1401 1.433 . S
C1394 H1390 0.929 . S
C1394 C1396 1.378 . S
C1394 C1398 1.350 . S
C1395 C1398 1.463 . S
C1395 C1400 1.350 . S
C1395 N1403 1.427 . S
C1396 H1387 0.930 . S
C1396 C1394 1.378 . S
C1396 C1397 1.367 . S
C1397 C1396 1.367 . S
C1397 C1399 1.433 . S
C1398 C1394 1.350 . S
C1398 C1395 1.463 . S
C1398 N1402 1.427 . S
C1399 H1389 0.929 . S
C1399 C1397 1.433 . S
C1399 N1402 1.384 . S
C1400 H1391 0.929 . S
C1400 C1392 1.378 . S
C1400 C1395 1.350 . S
C1401 H1388 0.929 . S
C1401 C1393 1.433 . S
C1401 N1403 1.384 . S
N1402 C1398 1.427 . S
N1402 C1399 1.384 . S
N1403 C1395 1.427 . S
N1403 C1401 1.384 . S
H1404 C1410 0.930 . S
H1405 C1414 0.930 . S
H1406 C1419 0.929 . S
H1407 C1417 0.929 . S
H1408 C1412 0.929 . S
H1409 C1418 0.929 . S
C1410 H1404 0.930 . S
C1410 C1411 1.367 . S
C1410 C1418 1.378 . S
C1411 C1410 1.367 . S
C1411 C1419 1.433 . S
C1412 H1408 0.929 . S
C1412 C1414 1.378 . S
C1412 C1416 1.350 . S
C1413 C1416 1.463 . S
C1413 C1418 1.350 . S
C1413 N1421 1.427 . S
C1414 H1405 0.930 . S
C1414 C1412 1.378 . S
C1414 C1415 1.367 . S
C1415 C1414 1.367 . S
C1415 C1417 1.433 . S
C1416 C1412 1.350 . S
C1416 C1413 1.463 . S
C1416 N1420 1.427 . S
C1417 H1407 0.929 . S
C1417 C1415 1.433 . S
C1417 N1420 1.384 . S
C1418 H1409 0.929 . S
C1418 C1410 1.378 . S
C1418 C1413 1.350 . S
C1419 H1406 0.929 . S
C1419 C1411 1.433 . S
C1419 N1421 1.384 . S
N1420 C1416 1.427 . S
N1420 C1417 1.384 . S
N1421 C1413 1.427 . S
N1421 C1419 1.384 . S
H1422 C1428 0.930 . S
H1423 C1432 0.930 . S
H1424 C1437 0.929 . S
H1425 C1435 0.929 . S
H1426 C1430 0.929 . S
H1427 C1436 0.929 . S
C1428 H1422 0.930 . S
C1428 C1429 1.367 . S
C1428 C1436 1.378 . S
C1429 C1428 1.367 . S
C1429 C1437 1.433 . S
C1430 H1426 0.929 . S
C1430 C1432 1.378 . S
C1430 C1434 1.350 . S
C1431 C1434 1.463 . S
C1431 C1436 1.350 . S
C1431 N1439 1.427 . S
C1432 H1423 0.930 . S
C1432 C1430 1.378 . S
C1432 C1433 1.367 . S
C1433 C1432 1.367 . S
C1433 C1435 1.433 . S
C1434 C1430 1.350 . S
C1434 C1431 1.463 . S
C1434 N1438 1.427 . S
C1435 H1425 0.929 . S
C1435 C1433 1.433 . S
C1435 N1438 1.384 . S
C1436 H1427 0.929 . S
C1436 C1428 1.378 . S
C1436 C1431 1.350 . S
C1437 H1424 0.929 . S
C1437 C1429 1.433 . S
C1437 N1439 1.384 . S
N1438 C1434 1.427 . S
N1438 C1435 1.384 . S
N1439 C1431 1.427 . S
N1439 C1437 1.384 . S
H1440 C1446 0.930 . S
H1441 C1450 0.930 . S
H1442 C1455 0.929 . S
H1443 C1453 0.929 . S
H1444 C1448 0.929 . S
H1445 C1454 0.929 . S
C1446 H1440 0.930 . S
C1446 C1447 1.367 . S
C1446 C1454 1.378 . S
C1447 C1446 1.367 . S
C1447 C1455 1.433 . S
C1448 H1444 0.929 . S
C1448 C1450 1.378 . S
C1448 C1452 1.350 . S
C1449 C1452 1.463 . S
C1449 C1454 1.350 . S
C1449 N1457 1.427 . S
C1450 H1441 0.930 . S
C1450 C1448 1.378 . S
C1450 C1451 1.367 . S
C1451 C1450 1.367 . S
C1451 C1453 1.433 . S
C1452 C1448 1.350 . S
C1452 C1449 1.463 . S
C1452 N1456 1.427 . S
C1453 H1443 0.929 . S
C1453 C1451 1.433 . S
C1453 N1456 1.384 . S
C1454 H1445 0.929 . S
C1454 C1446 1.378 . S
C1454 C1449 1.350 . S
C1455 H1442 0.929 . S
C1455 C1447 1.433 . S
C1455 N1457 1.384 . S
N1456 C1452 1.427 . S
N1456 C1453 1.384 . S
N1457 C1449 1.427 . S
N1457 C1455 1.384 . S
H1458 C1464 0.930 . S
H1459 C1468 0.930 . S
H1460 C1473 0.929 . S
H1461 C1471 0.929 . S
H1462 C1466 0.929 . S
H1463 C1472 0.929 . S
C1464 H1458 0.930 . S
C1464 C1465 1.367 . S
C1464 C1472 1.378 . S
C1465 C1464 1.367 . S
C1465 C1473 1.433 . S
C1466 H1462 0.929 . S
C1466 C1468 1.378 . S
C1466 C1470 1.350 . S
C1467 C1470 1.463 . S
C1467 C1472 1.350 . S
C1467 N1475 1.427 . S
C1468 H1459 0.930 . S
C1468 C1466 1.378 . S
C1468 C1469 1.367 . S
C1469 C1468 1.367 . S
C1469 C1471 1.433 . S
C1470 C1466 1.350 . S
C1470 C1467 1.463 . S
C1470 N1474 1.427 . S
C1471 H1461 0.929 . S
C1471 C1469 1.433 . S
C1471 N1474 1.384 . S
C1472 H1463 0.929 . S
C1472 C1464 1.378 . S
C1472 C1467 1.350 . S
C1473 H1460 0.929 . S
C1473 C1465 1.433 . S
C1473 N1475 1.384 . S
N1474 C1470 1.427 . S
N1474 C1471 1.384 . S
N1475 C1467 1.427 . S
N1475 C1473 1.384 . S
H1476 C1482 0.910 1_545 S
H1477 C1486 0.930 . S
H1478 C1491 0.929 . S
H1479 C1489 0.929 . S
H1480 C1484 0.929 . S
H1481 C1490 0.929 . S
C1482 H1476 0.910 1_565 S
C1482 C1483 1.367 . S
C1482 C1490 1.378 . S
C1483 C1482 1.367 . S
C1483 C1491 1.433 . S
C1484 H1480 0.929 . S
C1484 C1486 1.378 . S
C1484 C1488 1.350 . S
C1485 C1488 1.463 . S
C1485 C1490 1.350 . S
C1485 N1493 1.427 . S
C1486 H1477 0.930 . S
C1486 C1484 1.378 . S
C1486 C1487 1.367 . S
C1487 C1486 1.367 . S
C1487 C1489 1.433 . S
C1488 C1484 1.350 . S
C1488 C1485 1.463 . S
C1488 N1492 1.427 . S
C1489 H1479 0.929 . S
C1489 C1487 1.433 . S
C1489 N1492 1.384 . S
C1490 H1481 0.929 . S
C1490 C1482 1.378 . S
C1490 C1485 1.350 . S
C1491 H1478 0.929 . S
C1491 C1483 1.433 . S
C1491 N1493 1.384 . S
N1492 C1488 1.427 . S
N1492 C1489 1.384 . S
N1493 C1485 1.427 . S
N1493 C1491 1.384 . S
H1494 C1500 0.930 . S
H1495 C1504 0.930 . S
H1496 C1509 0.929 . S
H1497 C1507 0.929 . S
H1498 C1502 0.929 . S
H1499 C1508 0.929 . S
C1500 H1494 0.930 . S
C1500 C1501 1.367 . S
C1500 C1508 1.378 . S
C1501 C1500 1.367 . S
C1501 C1509 1.433 . S
C1502 H1498 0.929 . S
C1502 C1504 1.378 . S
C1502 C1506 1.350 . S
C1503 C1506 1.463 . S
C1503 C1508 1.350 . S
C1503 N1511 1.427 . S
C1504 H1495 0.930 . S
C1504 C1502 1.378 . S
C1504 C1505 1.367 . S
C1505 C1504 1.367 . S
C1505 C1507 1.433 . S
C1506 C1502 1.350 . S
C1506 C1503 1.463 . S
C1506 N1510 1.427 . S
C1507 H1497 0.929 . S
C1507 C1505 1.433 . S
C1507 N1510 1.384 . S
C1508 H1499 0.929 . S
C1508 C1500 1.378 . S
C1508 C1503 1.350 . S
C1509 H1496 0.929 . S
C1509 C1501 1.433 . S
C1509 N1511 1.384 . S
N1510 C1506 1.427 . S
N1510 C1507 1.384 . S
N1511 C1503 1.427 . S
N1511 C1509 1.384 . S
H1512 C1518 0.930 . S
H1513 C1522 0.930 . S
H1514 C1527 0.929 . S
H1515 C1525 0.929 . S
H1516 C1520 0.929 . S
H1517 C1526 0.929 . S
C1518 H1512 0.930 . S
C1518 C1519 1.367 . S
C1518 C1526 1.378 . S
C1519 C1518 1.367 . S
C1519 C1527 1.433 . S
C1520 H1516 0.929 . S
C1520 C1522 1.378 . S
C1520 C1524 1.350 . S
C1521 C1524 1.463 . S
C1521 C1526 1.350 . S
C1521 N1529 1.427 . S
C1522 H1513 0.930 . S
C1522 C1520 1.378 . S
C1522 C1523 1.367 . S
C1523 C1522 1.367 . S
C1523 C1525 1.433 . S
C1524 C1520 1.350 . S
C1524 C1521 1.463 . S
C1524 N1528 1.427 . S
C1525 H1515 0.929 . S
C1525 C1523 1.433 . S
C1525 N1528 1.384 . S
C1526 H1517 0.929 . S
C1526 C1518 1.378 . S
C1526 C1521 1.350 . S
C1527 H1514 0.929 . S
C1527 C1519 1.433 . S
C1527 N1529 1.384 . S
N1528 C1524 1.427 . S
N1528 C1525 1.384 . S
N1529 C1521 1.427 . S
N1529 C1527 1.384 . S
H1530 C1536 0.930 . S
H1531 C1540 0.930 . S
H1532 C1545 0.929 . S
H1533 C1543 0.929 . S
H1534 C1538 0.929 . S
H1535 C1544 0.929 . S
C1536 H1530 0.930 . S
C1536 C1537 1.367 . S
C1536 C1544 1.378 . S
C1537 C1536 1.367 . S
C1537 C1545 1.433 . S
C1538 H1534 0.929 . S
C1538 C1540 1.378 . S
C1538 C1542 1.350 . S
C1539 C1542 1.463 . S
C1539 C1544 1.350 . S
C1539 N1547 1.427 . S
C1540 H1531 0.930 . S
C1540 C1538 1.378 . S
C1540 C1541 1.367 . S
C1541 C1540 1.367 . S
C1541 C1543 1.433 . S
C1542 C1538 1.350 . S
C1542 C1539 1.463 . S
C1542 N1546 1.427 . S
C1543 H1533 0.929 . S
C1543 C1541 1.433 . S
C1543 N1546 1.384 . S
C1544 H1535 0.929 . S
C1544 C1536 1.378 . S
C1544 C1539 1.350 . S
C1545 H1532 0.929 . S
C1545 C1537 1.433 . S
C1545 N1547 1.384 . S
N1546 C1542 1.427 . S
N1546 C1543 1.384 . S
N1547 C1539 1.427 . S
N1547 C1545 1.384 . S
H1548 C1554 0.930 . S
H1549 C1558 0.930 . S
H1550 C1563 0.929 . S
H1551 C1561 0.929 . S
H1552 C1556 0.929 . S
H1553 C1562 0.929 . S
C1554 H1548 0.930 . S
C1554 C1555 1.367 . S
C1554 C1562 1.378 . S
C1555 C1554 1.367 . S
C1555 C1563 1.433 . S
C1556 H1552 0.929 . S
C1556 C1558 1.378 . S
C1556 C1560 1.350 . S
C1557 C1560 1.463 . S
C1557 C1562 1.350 . S
C1557 N1565 1.427 . S
C1558 H1549 0.930 . S
C1558 C1556 1.378 . S
C1558 C1559 1.367 . S
C1559 C1558 1.367 . S
C1559 C1561 1.433 . S
C1560 C1556 1.350 . S
C1560 C1557 1.463 . S
C1560 N1564 1.427 . S
C1561 H1551 0.929 . S
C1561 C1559 1.433 . S
C1561 N1564 1.384 . S
C1562 H1553 0.929 . S
C1562 C1554 1.378 . S
C1562 C1557 1.350 . S
C1563 H1550 0.929 . S
C1563 C1555 1.433 . S
C1563 N1565 1.384 . S
N1564 C1560 1.427 . S
N1564 C1561 1.384 . S
N1565 C1557 1.427 . S
N1565 C1563 1.384 . S
H1566 C1572 0.930 . S
H1567 C1576 0.930 . S
H1568 C1581 0.929 . S
H1569 C1579 0.929 . S
H1570 C1574 0.929 . S
H1571 C1580 0.929 . S
C1572 H1566 0.930 . S
C1572 C1573 1.367 . S
C1572 C1580 1.378 . S
C1573 C1572 1.367 . S
C1573 C1581 1.433 . S
C1574 H1570 0.929 . S
C1574 C1576 1.378 . S
C1574 C1578 1.350 . S
C1575 C1578 1.463 . S
C1575 C1580 1.350 . S
C1575 N1583 1.427 . S
C1576 H1567 0.930 . S
C1576 C1574 1.378 . S
C1576 C1577 1.367 . S
C1577 C1576 1.367 . S
C1577 C1579 1.433 . S
C1578 C1574 1.350 . S
C1578 C1575 1.463 . S
C1578 N1582 1.427 . S
C1579 H1569 0.929 . S
C1579 C1577 1.433 . S
C1579 N1582 1.384 . S
C1580 H1571 0.929 . S
C1580 C1572 1.378 . S
C1580 C1575 1.350 . S
C1581 H1568 0.929 . S
C1581 C1573 1.433 . S
C1581 N1583 1.384 . S
N1582 C1578 1.427 . S
N1582 C1579 1.384 . S
N1583 C1575 1.427 . S
N1583 C1581 1.384 . S
H1584 C1590 0.930 . S
H1585 C1594 0.930 . S
H1586 C1599 0.929 . S
H1587 C1597 0.929 . S
H1588 C1592 0.929 . S
H1589 C1598 0.929 . S
C1590 H1584 0.930 . S
C1590 C1591 1.367 . S
C1590 C1598 1.378 . S
C1591 C1590 1.367 . S
C1591 C1599 1.433 . S
C1592 H1588 0.929 . S
C1592 C1594 1.378 . S
C1592 C1596 1.350 . S
C1593 C1596 1.463 1_565 S
C1593 C1598 1.350 . S
C1593 N1601 1.427 . S
C1594 H1585 0.930 . S
C1594 C1592 1.378 . S
C1594 C1595 1.367 . S
C1595 C1594 1.367 . S
C1595 C1597 1.433 . S
C1596 C1592 1.350 . S
C1596 C1593 1.463 1_545 S
C1596 N1600 1.427 . S
C1597 H1587 0.929 . S
C1597 C1595 1.433 . S
C1597 N1600 1.384 . S
C1598 H1589 0.929 . S
C1598 C1590 1.378 . S
C1598 C1593 1.350 . S
C1599 H1586 0.929 . S
C1599 C1591 1.433 . S
C1599 N1601 1.384 . S
N1600 C1596 1.427 . S
N1600 C1597 1.384 . S
N1601 C1593 1.427 . S
N1601 C1599 1.384 . S
H1602 C1608 0.930 . S
H1603 C1612 0.930 . S
H1604 C1617 0.929 . S
H1605 C1615 0.929 . S
H1606 C1610 0.929 . S
H1607 C1616 0.929 . S
C1608 H1602 0.930 . S
C1608 C1609 1.367 . S
C1608 C1616 1.378 . S
C1609 C1608 1.367 . S
C1609 C1617 1.433 . S
C1610 H1606 0.929 . S
C1610 C1612 1.378 . S
C1610 C1614 1.350 . S
C1611 C1614 1.463 1_455 S
C1611 C1616 1.350 . S
C1611 N1619 1.427 . S
C1612 H1603 0.930 . S
C1612 C1610 1.378 . S
C1612 C1613 1.367 . S
C1613 C1612 1.367 . S
C1613 C1615 1.433 . S
C1614 C1610 1.350 . S
C1614 C1611 1.463 1_655 S
C1614 N1618 1.427 . S
C1615 H1605 0.929 . S
C1615 C1613 1.433 . S
C1615 N1618 1.384 . S
C1616 H1607 0.929 . S
C1616 C1608 1.378 . S
C1616 C1611 1.350 . S
C1617 H1604 0.929 . S
C1617 C1609 1.433 . S
C1617 N1619 1.384 . S
N1618 C1614 1.427 . S
N1618 C1615 1.384 . S
N1619 C1611 1.427 . S
N1619 C1617 1.384 . S
H1620 C1626 0.930 . S
H1621 C1630 0.930 . S
H1622 C1635 0.929 . S
H1623 C1633 0.929 . S
H1624 C1628 0.929 . S
H1625 C1634 0.929 . S
C1626 H1620 0.930 . S
C1626 C1627 1.367 . S
C1626 C1634 1.378 . S
C1627 C1626 1.367 . S
C1627 C1635 1.433 . S
C1628 H1624 0.929 . S
C1628 C1630 1.378 . S
C1628 C1632 1.350 . S
C1629 C1632 1.463 . S
C1629 C1634 1.350 . S
C1629 N1637 1.427 . S
C1630 H1621 0.930 . S
C1630 C1628 1.378 . S
C1630 C1631 1.367 . S
C1631 C1630 1.367 . S
C1631 C1633 1.433 . S
C1632 C1628 1.350 . S
C1632 C1629 1.463 . S
C1632 N1636 1.427 . S
C1633 H1623 0.929 . S
C1633 C1631 1.433 . S
C1633 N1636 1.384 . S
C1634 H1625 0.929 . S
C1634 C1626 1.378 . S
C1634 C1629 1.350 . S
C1635 H1622 0.929 . S
C1635 C1627 1.433 . S
C1635 N1637 1.384 . S
N1636 C1632 1.427 . S
N1636 C1633 1.384 . S
N1637 C1629 1.427 . S
N1637 C1635 1.384 . S
H1638 C1644 0.930 . S
H1639 C1648 0.930 . S
H1640 C1653 0.929 . S
H1641 C1651 0.929 . S
H1642 C1646 0.929 . S
H1643 C1652 0.929 . S
C1644 H1638 0.930 . S
C1644 C1645 1.367 . S
C1644 C1652 1.378 . S
C1645 C1644 1.367 . S
C1645 C1653 1.433 . S
C1646 H1642 0.929 . S
C1646 C1648 1.378 . S
C1646 C1650 1.350 . S
C1647 C1650 1.463 . S
C1647 C1652 1.350 . S
C1647 N1655 1.427 . S
C1648 H1639 0.930 . S
C1648 C1646 1.378 . S
C1648 C1649 1.367 . S
C1649 C1648 1.367 . S
C1649 C1651 1.433 . S
C1650 C1646 1.350 . S
C1650 C1647 1.463 . S
C1650 N1654 1.427 . S
C1651 H1641 0.929 . S
C1651 C1649 1.433 . S
C1651 N1654 1.384 . S
C1652 H1643 0.929 . S
C1652 C1644 1.378 . S
C1652 C1647 1.350 . S
C1653 H1640 0.929 . S
C1653 C1645 1.433 . S
C1653 N1655 1.384 . S
N1654 C1650 1.427 . S
N1654 C1651 1.384 . S
N1655 C1647 1.427 . S
N1655 C1653 1.384 . S
H1656 C1662 0.930 . S
H1657 C1666 0.930 . S
H1658 C1671 0.929 . S
H1659 C1669 0.929 . S
H1660 C1664 0.929 . S
H1661 C1670 0.929 . S
C1662 H1656 0.930 . S
C1662 C1663 1.367 . S
C1662 C1670 1.378 . S
C1663 C1662 1.367 . S
C1663 C1671 1.433 . S
C1664 H1660 0.929 . S
C1664 C1666 1.378 . S
C1664 C1668 1.350 . S
C1665 C1668 1.463 . S
C1665 C1670 1.350 . S
C1665 N1673 1.427 . S
C1666 H1657 0.930 . S
C1666 C1664 1.378 . S
C1666 C1667 1.367 . S
C1667 C1666 1.367 . S
C1667 C1669 1.433 . S
C1668 C1664 1.350 . S
C1668 C1665 1.463 . S
C1668 N1672 1.427 . S
C1669 H1659 0.929 . S
C1669 C1667 1.433 . S
C1669 N1672 1.384 . S
C1670 H1661 0.929 . S
C1670 C1662 1.378 . S
C1670 C1665 1.350 . S
C1671 H1658 0.929 . S
C1671 C1663 1.433 . S
C1671 N1673 1.384 . S
N1672 C1668 1.427 . S
N1672 C1669 1.384 . S
N1673 C1665 1.427 . S
N1673 C1671 1.384 . S
H1674 C1680 0.930 . S
H1675 C1684 0.930 . S
H1676 C1689 0.929 . S
H1677 C1687 0.929 . S
H1678 C1682 0.929 . S
H1679 C1688 0.929 . S
C1680 H1674 0.930 . S
C1680 C1681 1.367 . S
C1680 C1688 1.378 . S
C1681 C1680 1.367 . S
C1681 C1689 1.433 . S
C1682 H1678 0.929 . S
C1682 C1684 1.378 . S
C1682 C1686 1.350 . S
C1683 C1686 1.463 . S
C1683 C1688 1.350 . S
C1683 N1691 1.427 . S
C1684 H1675 0.930 . S
C1684 C1682 1.378 . S
C1684 C1685 1.367 . S
C1685 C1684 1.367 . S
C1685 C1687 1.433 . S
C1686 C1682 1.350 . S
C1686 C1683 1.463 . S
C1686 N1690 1.427 . S
C1687 H1677 0.929 . S
C1687 C1685 1.433 . S
C1687 N1690 1.384 . S
C1688 H1679 0.929 . S
C1688 C1680 1.378 . S
C1688 C1683 1.350 . S
C1689 H1676 0.929 . S
C1689 C1681 1.433 . S
C1689 N1691 1.384 . S
N1690 C1686 1.427 . S
N1690 C1687 1.384 . S
N1691 C1683 1.427 . S
N1691 C1689 1.384 . S
H1692 C1698 0.930 . S
H1693 C1702 0.930 . S
H1694 C1707 0.929 . S
H1695 C1705 0.929 . S
H1696 C1700 0.929 . S
H1697 C1706 0.929 . S
C1698 H1692 0.930 . S
C1698 C1699 1.367 . S
C1698 C1706 1.378 . S
C1699 C1698 1.367 . S
C1699 C1707 1.433 . S
C1700 H1696 0.929 . S
C1700 C1702 1.378 . S
C1700 C1704 1.350 . S
C1701 C1704 1.463 . S
C1701 C1706 1.350 . S
C1701 N1709 1.427 . S
C1702 H1693 0.930 . S
C1702 C1700 1.378 . S
C1702 C1703 1.367 . S
C1703 C1702 1.367 . S
C1703 C1705 1.433 . S
C1704 C1700 1.350 . S
C1704 C1701 1.463 . S
C1704 N1708 1.427 . S
C1705 H1695 0.929 . S
C1705 C1703 1.433 . S
C1705 N1708 1.384 . S
C1706 H1697 0.929 . S
C1706 C1698 1.378 . S
C1706 C1701 1.350 . S
C1707 H1694 0.929 . S
C1707 C1699 1.433 . S
C1707 N1709 1.384 . S
N1708 C1704 1.427 . S
N1708 C1705 1.384 . S
N1709 C1701 1.427 . S
N1709 C1707 1.384 . S
H1710 C1716 0.930 . S
H1711 C1720 0.930 . S
H1712 C1725 0.929 . S
H1713 C1723 0.929 . S
H1714 C1718 0.929 . S
H1715 C1724 0.929 . S
C1716 H1710 0.930 . S
C1716 C1717 1.367 . S
C1716 C1724 1.378 . S
C1717 C1716 1.367 . S
C1717 C1725 1.433 . S
C1718 H1714 0.929 . S
C1718 C1720 1.378 . S
C1718 C1722 1.350 . S
C1719 C1722 1.463 . S
C1719 C1724 1.350 . S
C1719 N1727 1.427 . S
C1720 H1711 0.930 . S
C1720 C1718 1.378 . S
C1720 C1721 1.367 . S
C1721 C1720 1.367 . S
C1721 C1723 1.433 . S
C1722 C1718 1.350 . S
C1722 C1719 1.463 . S
C1722 N1726 1.427 . S
C1723 H1713 0.929 . S
C1723 C1721 1.433 . S
C1723 N1726 1.384 . S
C1724 H1715 0.929 . S
C1724 C1716 1.378 . S
C1724 C1719 1.350 . S
C1725 H1712 0.929 . S
C1725 C1717 1.433 . S
C1725 N1727 1.384 . S
N1726 C1722 1.427 . S
N1726 C1723 1.384 . S
N1727 C1719 1.427 . S
N1727 C1725 1.384 . S
H1728 C1734 0.930 . S
H1729 C1738 0.930 . S
H1730 C1743 0.929 . S
H1731 C1741 0.929 . S
H1732 C1736 0.929 . S
H1733 C1742 0.929 . S
C1734 H1728 0.930 . S
C1734 C1735 1.367 . S
C1734 C1742 1.378 . S
C1735 C1734 1.367 . S
C1735 C1743 1.433 . S
C1736 H1732 0.929 . S
C1736 C1738 1.378 . S
C1736 C1740 1.350 . S
C1737 C1740 1.463 . S
C1737 C1742 1.350 . S
C1737 N1745 1.427 . S
C1738 H1729 0.930 . S
C1738 C1736 1.378 . S
C1738 C1739 1.367 . S
C1739 C1738 1.367 . S
C1739 C1741 1.433 . S
C1740 C1736 1.350 . S
C1740 C1737 1.463 . S
C1740 N1744 1.427 . S
C1741 H1731 0.929 . S
C1741 C1739 1.433 . S
C1741 N1744 1.384 . S
C1742 H1733 0.929 . S
C1742 C1734 1.378 . S
C1742 C1737 1.350 . S
C1743 H1730 0.929 . S
C1743 C1735 1.433 . S
C1743 N1745 1.384 . S
N1744 C1740 1.427 . S
N1744 C1741 1.384 . S
N1745 C1737 1.427 . S
N1745 C1743 1.384 . S
H1746 C1752 0.930 . S
H1747 C1756 0.930 . S
H1748 C1761 0.929 . S
H1749 C1759 0.929 . S
H1750 C1754 0.929 . S
H1751 C1760 0.929 . S
C1752 H1746 0.930 . S
C1752 C1753 1.367 . S
C1752 C1760 1.378 . S
C1753 C1752 1.367 . S
C1753 C1761 1.433 . S
C1754 H1750 0.929 . S
C1754 C1756 1.378 . S
C1754 C1758 1.350 . S
C1755 C1758 1.463 . S
C1755 C1760 1.350 . S
C1755 N1763 1.427 . S
C1756 H1747 0.930 . S
C1756 C1754 1.378 . S
C1756 C1757 1.367 . S
C1757 C1756 1.367 . S
C1757 C1759 1.433 . S
C1758 C1754 1.350 . S
C1758 C1755 1.463 . S
C1758 N1762 1.427 . S
C1759 H1749 0.929 . S
C1759 C1757 1.433 . S
C1759 N1762 1.384 . S
C1760 H1751 0.929 . S
C1760 C1752 1.378 . S
C1760 C1755 1.350 . S
C1761 H1748 0.929 . S
C1761 C1753 1.433 . S
C1761 N1763 1.384 . S
N1762 C1758 1.427 . S
N1762 C1759 1.384 . S
N1763 C1755 1.427 . S
N1763 C1761 1.384 . S
H1764 C1770 0.930 . S
H1765 C1774 0.930 . S
H1766 C1779 0.929 . S
H1767 C1777 0.929 . S
H1768 C1772 0.929 . S
H1769 C1778 0.929 . S
C1770 H1764 0.930 . S
C1770 C1771 1.367 . S
C1770 C1778 1.378 . S
C1771 C1770 1.367 . S
C1771 C1779 1.433 . S
C1772 H1768 0.929 . S
C1772 C1774 1.378 . S
C1772 C1776 1.350 . S
C1773 C1776 1.463 . S
C1773 C1778 1.350 . S
C1773 N1781 1.427 . S
C1774 H1765 0.930 . S
C1774 C1772 1.378 . S
C1774 C1775 1.367 . S
C1775 C1774 1.367 . S
C1775 C1777 1.433 . S
C1776 C1772 1.350 . S
C1776 C1773 1.463 . S
C1776 N1780 1.427 . S
C1777 H1767 0.929 . S
C1777 C1775 1.433 . S
C1777 N1780 1.384 . S
C1778 H1769 0.929 . S
C1778 C1770 1.378 . S
C1778 C1773 1.350 . S
C1779 H1766 0.929 . S
C1779 C1771 1.433 . S
C1779 N1781 1.384 . S
N1780 C1776 1.427 . S
N1780 C1777 1.384 . S
N1781 C1773 1.427 . S
N1781 C1779 1.384 . S
H1782 C1788 0.930 . S
H1783 C1792 0.930 . S
H1784 C1797 0.929 . S
H1785 C1795 0.929 . S
H1786 C1790 0.929 . S
H1787 C1796 0.929 . S
C1788 H1782 0.930 . S
C1788 C1789 1.367 . S
C1788 C1796 1.378 . S
C1789 C1788 1.367 . S
C1789 C1797 1.433 . S
C1790 H1786 0.929 . S
C1790 C1792 1.378 . S
C1790 C1794 1.350 . S
C1791 C1794 1.463 . S
C1791 C1796 1.350 . S
C1791 N1799 1.427 . S
C1792 H1783 0.930 . S
C1792 C1790 1.378 . S
C1792 C1793 1.367 . S
C1793 C1792 1.367 . S
C1793 C1795 1.433 . S
C1794 C1790 1.350 . S
C1794 C1791 1.463 . S
C1794 N1798 1.427 . S
C1795 H1785 0.929 . S
C1795 C1793 1.433 . S
C1795 N1798 1.384 . S
C1796 H1787 0.929 . S
C1796 C1788 1.378 . S
C1796 C1791 1.350 . S
C1797 H1784 0.929 . S
C1797 C1789 1.433 . S
C1797 N1799 1.384 . S
N1798 C1794 1.427 . S
N1798 C1795 1.384 . S
N1799 C1791 1.427 . S
N1799 C1797 1.384 . S
H1800 C1806 0.930 . S
H1801 C1810 0.930 . S
H1802 C1815 0.929 . S
H1803 C1813 0.929 . S
H1804 C1808 0.929 . S
H1805 C1814 0.929 . S
C1806 H1800 0.930 . S
C1806 C1807 1.367 . S
C1806 C1814 1.378 . S
C1807 C1806 1.367 . S
C1807 C1815 1.433 . S
C1808 H1804 0.929 . S
C1808 C1810 1.378 . S
C1808 C1812 1.350 . S
C1809 C1812 1.463 . S
C1809 C1814 1.350 . S
C1809 N1817 1.427 . S
C1810 H1801 0.930 . S
C1810 C1808 1.378 . S
C1810 C1811 1.367 . S
C1811 C1810 1.367 . S
C1811 C1813 1.433 . S
C1812 C1808 1.350 . S
C1812 C1809 1.463 . S
C1812 N1816 1.427 . S
C1813 H1803 0.929 . S
C1813 C1811 1.433 . S
C1813 N1816 1.384 . S
C1814 H1805 0.929 . S
C1814 C1806 1.378 . S
C1814 C1809 1.350 . S
C1815 H1802 0.929 . S
C1815 C1807 1.433 . S
C1815 N1817 1.384 . S
N1816 C1812 1.427 . S
N1816 C1813 1.384 . S
N1817 C1809 1.427 . S
N1817 C1815 1.384 . S
H1818 C1824 0.930 . S
H1819 C1828 0.930 . S
H1820 C1833 0.929 . S
H1821 C1831 0.929 . S
H1822 C1826 0.929 . S
H1823 C1832 0.929 . S
C1824 H1818 0.930 . S
C1824 C1825 1.367 . S
C1824 C1832 1.378 . S
C1825 C1824 1.367 . S
C1825 C1833 1.433 . S
C1826 H1822 0.929 . S
C1826 C1828 1.378 . S
C1826 C1830 1.350 . S
C1827 C1830 1.463 . S
C1827 C1832 1.350 . S
C1827 N1835 1.427 . S
C1828 H1819 0.930 . S
C1828 C1826 1.378 . S
C1828 C1829 1.367 . S
C1829 C1828 1.367 . S
C1829 C1831 1.433 . S
C1830 C1826 1.350 . S
C1830 C1827 1.463 . S
C1830 N1834 1.427 . S
C1831 H1821 0.929 . S
C1831 C1829 1.433 . S
C1831 N1834 1.384 . S
C1832 H1823 0.929 . S
C1832 C1824 1.378 . S
C1832 C1827 1.350 . S
C1833 H1820 0.929 . S
C1833 C1825 1.433 . S
C1833 N1835 1.384 . S
N1834 C1830 1.427 . S
N1834 C1831 1.384 . S
N1835 C1827 1.427 . S
N1835 C1833 1.384 . S
H1836 C1842 0.930 . S
H1837 C1846 0.930 . S
H1838 C1851 0.929 . S
H1839 C1849 0.929 . S
H1840 C1844 0.929 . S
H1841 C1850 0.929 . S
C1842 H1836 0.930 . S
C1842 C1843 1.367 . S
C1842 C1850 1.378 . S
C1843 C1842 1.367 . S
C1843 C1851 1.433 . S
C1844 H1840 0.929 . S
C1844 C1846 1.378 . S
C1844 C1848 1.350 . S
C1845 C1848 1.463 . S
C1845 C1850 1.350 . S
C1845 N1853 1.427 . S
C1846 H1837 0.930 . S
C1846 C1844 1.378 . S
C1846 C1847 1.367 . S
C1847 C1846 1.367 . S
C1847 C1849 1.433 . S
C1848 C1844 1.350 . S
C1848 C1845 1.463 . S
C1848 N1852 1.427 . S
C1849 H1839 0.929 . S
C1849 C1847 1.433 . S
C1849 N1852 1.384 . S
C1850 H1841 0.929 . S
C1850 C1842 1.378 . S
C1850 C1845 1.350 . S
C1851 H1838 0.929 . S
C1851 C1843 1.433 . S
C1851 N1853 1.384 . S
N1852 C1848 1.427 . S
N1852 C1849 1.384 . S
N1853 C1845 1.427 . S
N1853 C1851 1.384 . S
H1854 C1860 0.930 . S
H1855 C1864 0.930 . S
H1856 C1869 0.929 . S
H1857 C1867 0.929 . S
H1858 C1862 0.929 . S
H1859 C1868 0.929 . S
C1860 H1854 0.930 . S
C1860 C1861 1.367 . S
C1860 C1868 1.378 . S
C1861 C1860 1.367 . S
C1861 C1869 1.433 . S
C1862 H1858 0.929 . S
C1862 C1864 1.378 . S
C1862 C1866 1.350 . S
C1863 C1866 1.463 . S
C1863 C1868 1.350 . S
C1863 N1871 1.427 . S
C1864 H1855 0.930 . S
C1864 C1862 1.378 . S
C1864 C1865 1.367 . S
C1865 C1864 1.367 . S
C1865 C1867 1.433 . S
C1866 C1862 1.350 . S
C1866 C1863 1.463 . S
C1866 N1870 1.427 . S
C1867 H1857 0.929 . S
C1867 C1865 1.433 . S
C1867 N1870 1.384 . S
C1868 H1859 0.929 . S
C1868 C1860 1.378 . S
C1868 C1863 1.350 . S
C1869 H1856 0.929 . S
C1869 C1861 1.433 . S
C1869 N1871 1.384 . S
N1870 C1866 1.427 . S
N1870 C1867 1.384 . S
N1871 C1863 1.427 . S
N1871 C1869 1.384 . S
H1872 C1878 0.930 . S
H1873 C1882 0.930 . S
H1874 C1887 0.929 . S
H1875 C1885 0.929 . S
H1876 C1880 0.929 . S
H1877 C1886 0.929 . S
C1878 H1872 0.930 . S
C1878 C1879 1.367 . S
C1878 C1886 1.378 . S
C1879 C1878 1.367 . S
C1879 C1887 1.433 . S
C1880 H1876 0.929 . S
C1880 C1882 1.378 . S
C1880 C1884 1.350 . S
C1881 C1884 1.463 . S
C1881 C1886 1.350 . S
C1881 N1889 1.427 . S
C1882 H1873 0.930 . S
C1882 C1880 1.378 . S
C1882 C1883 1.367 . S
C1883 C1882 1.367 . S
C1883 C1885 1.433 . S
C1884 C1880 1.350 . S
C1884 C1881 1.463 . S
C1884 N1888 1.427 . S
C1885 H1875 0.929 . S
C1885 C1883 1.433 . S
C1885 N1888 1.384 . S
C1886 H1877 0.929 . S
C1886 C1878 1.378 . S
C1886 C1881 1.350 . S
C1887 H1874 0.929 . S
C1887 C1879 1.433 . S
C1887 N1889 1.384 . S
N1888 C1884 1.427 . S
N1888 C1885 1.384 . S
N1889 C1881 1.427 . S
N1889 C1887 1.384 . S
H1890 C1896 0.930 . S
H1891 C1900 0.930 . S
H1892 C1905 0.929 . S
H1893 C1903 0.929 . S
H1894 C1898 0.929 . S
H1895 C1904 0.929 . S
C1896 H1890 0.930 . S
C1896 C1897 1.367 . S
C1896 C1904 1.378 . S
C1897 C1896 1.367 . S
C1897 C1905 1.433 . S
C1898 H1894 0.929 . S
C1898 C1900 1.378 . S
C1898 C1902 1.350 . S
C1899 C1902 1.463 . S
C1899 C1904 1.350 . S
C1899 N1907 1.427 . S
C1900 H1891 0.930 . S
C1900 C1898 1.378 . S
C1900 C1901 1.367 . S
C1901 C1900 1.367 . S
C1901 C1903 1.433 . S
C1902 C1898 1.350 . S
C1902 C1899 1.463 . S
C1902 N1906 1.427 . S
C1903 H1893 0.929 . S
C1903 C1901 1.433 . S
C1903 N1906 1.384 . S
C1904 H1895 0.929 . S
C1904 C1896 1.378 . S
C1904 C1899 1.350 . S
C1905 H1892 0.929 . S
C1905 C1897 1.433 . S
C1905 N1907 1.384 . S
N1906 C1902 1.427 . S
N1906 C1903 1.384 . S
N1907 C1899 1.427 . S
N1907 C1905 1.384 . S
H1908 C1914 0.930 . S
H1909 C1918 0.930 . S
H1910 C1923 0.929 . S
H1911 C1921 0.929 . S
H1912 C1916 0.929 . S
H1913 C1922 0.929 . S
C1914 H1908 0.930 . S
C1914 C1915 1.367 . S
C1914 C1922 1.378 . S
C1915 C1914 1.367 . S
C1915 C1923 1.433 . S
C1916 H1912 0.929 . S
C1916 C1918 1.378 . S
C1916 C1920 1.350 . S
C1917 C1920 1.463 . S
C1917 C1922 1.350 . S
C1917 N1925 1.427 . S
C1918 H1909 0.930 . S
C1918 C1916 1.378 . S
C1918 C1919 1.367 . S
C1919 C1918 1.367 . S
C1919 C1921 1.433 . S
C1920 C1916 1.350 . S
C1920 C1917 1.463 . S
C1920 N1924 1.427 . S
C1921 H1911 0.929 . S
C1921 C1919 1.433 . S
C1921 N1924 1.384 . S
C1922 H1913 0.929 . S
C1922 C1914 1.378 . S
C1922 C1917 1.350 . S
C1923 H1910 0.929 . S
C1923 C1915 1.433 . S
C1923 N1925 1.384 . S
N1924 C1920 1.427 . S
N1924 C1921 1.384 . S
N1925 C1917 1.427 . S
N1925 C1923 1.384 . S
H1926 C1932 0.930 . S
H1927 C1936 0.930 . S
H1928 C1941 0.929 . S
H1929 C1939 0.929 . S
H1930 C1934 0.929 . S
H1931 C1940 0.929 . S
C1932 H1926 0.930 . S
C1932 C1933 1.367 . S
C1932 C1940 1.378 . S
C1933 C1932 1.367 . S
C1933 C1941 1.433 . S
C1934 H1930 0.929 . S
C1934 C1936 1.378 . S
C1934 C1938 1.350 . S
C1935 C1938 1.463 . S
C1935 C1940 1.350 . S
C1935 N1943 1.427 . S
C1936 H1927 0.930 . S
C1936 C1934 1.378 . S
C1936 C1937 1.367 . S
C1937 C1936 1.367 . S
C1937 C1939 1.433 . S
C1938 C1934 1.350 . S
C1938 C1935 1.463 . S
C1938 N1942 1.427 . S
C1939 H1929 0.929 . S
C1939 C1937 1.433 . S
C1939 N1942 1.384 . S
C1940 H1931 0.929 . S
C1940 C1932 1.378 . S
C1940 C1935 1.350 . S
C1941 H1928 0.929 . S
C1941 C1933 1.433 . S
C1941 N1943 1.384 . S
N1942 C1938 1.427 . S
N1942 C1939 1.384 . S
N1943 C1935 1.427 . S
N1943 C1941 1.384 . S
H1944 C1950 0.930 . S
H1945 C1954 0.930 . S
H1946 C1959 0.929 . S
H1947 C1957 0.929 . S
H1948 C1952 0.929 . S
H1949 C1958 0.929 . S
C1950 H1944 0.930 . S
C1950 C1951 1.367 . S
C1950 C1958 1.378 . S
C1951 C1950 1.367 . S
C1951 C1959 1.433 . S
C1952 H1948 0.929 . S
C1952 C1954 1.378 . S
C1952 C1956 1.350 . S
C1953 C1956 1.463 . S
C1953 C1958 1.350 . S
C1953 N1961 1.427 . S
C1954 H1945 0.930 . S
C1954 C1952 1.378 . S
C1954 C1955 1.367 . S
C1955 C1954 1.367 . S
C1955 C1957 1.433 . S
C1956 C1952 1.350 . S
C1956 C1953 1.463 . S
C1956 N1960 1.427 . S
C1957 H1947 0.929 . S
C1957 C1955 1.433 . S
C1957 N1960 1.384 . S
C1958 H1949 0.929 . S
C1958 C1950 1.378 . S
C1958 C1953 1.350 . S
C1959 H1946 0.929 . S
C1959 C1951 1.433 . S
C1959 N1961 1.384 . S
N1960 C1956 1.427 . S
N1960 C1957 1.384 . S
N1961 C1953 1.427 . S
N1961 C1959 1.384 . S
H1962 C1968 0.930 . S
H1963 C1972 0.930 . S
H1964 C1977 0.929 . S
H1965 C1975 0.929 . S
H1966 C1970 0.929 . S
H1967 C1976 0.929 . S
C1968 H1962 0.930 . S
C1968 C1969 1.367 . S
C1968 C1976 1.378 . S
C1969 C1968 1.367 . S
C1969 C1977 1.433 . S
C1970 H1966 0.929 . S
C1970 C1972 1.378 . S
C1970 C1974 1.350 . S
C1971 C1974 1.463 . S
C1971 C1976 1.350 . S
C1971 N1979 1.427 . S
C1972 H1963 0.930 . S
C1972 C1970 1.378 . S
C1972 C1973 1.367 . S
C1973 C1972 1.367 . S
C1973 C1975 1.433 . S
C1974 C1970 1.350 . S
C1974 C1971 1.463 . S
C1974 N1978 1.427 . S
C1975 H1965 0.929 . S
C1975 C1973 1.433 . S
C1975 N1978 1.384 . S
C1976 H1967 0.929 . S
C1976 C1968 1.378 . S
C1976 C1971 1.350 . S
C1977 H1964 0.929 . S
C1977 C1969 1.433 . S
C1977 N1979 1.384 . S
N1978 C1974 1.427 . S
N1978 C1975 1.384 . S
N1979 C1971 1.427 . S
N1979 C1977 1.384 . S
H1980 C1986 0.930 . S
H1981 C1990 0.930 . S
H1982 C1995 0.929 . S
H1983 C1993 0.929 . S
H1984 C1988 0.929 . S
H1985 C1994 0.929 . S
C1986 H1980 0.930 . S
C1986 C1987 1.367 . S
C1986 C1994 1.378 . S
C1987 C1986 1.367 . S
C1987 C1995 1.433 . S
C1988 H1984 0.929 . S
C1988 C1990 1.378 . S
C1988 C1992 1.350 . S
C1989 C1992 1.463 . S
C1989 C1994 1.350 . S
C1989 N1997 1.427 . S
C1990 H1981 0.930 . S
C1990 C1988 1.378 . S
C1990 C1991 1.367 . S
C1991 C1990 1.367 . S
C1991 C1993 1.433 . S
C1992 C1988 1.350 . S
C1992 C1989 1.463 . S
C1992 N1996 1.427 . S
C1993 H1983 0.929 . S
C1993 C1991 1.433 . S
C1993 N1996 1.384 . S
C1994 H1985 0.929 . S
C1994 C1986 1.378 . S
C1994 C1989 1.350 . S
C1995 H1982 0.929 . S
C1995 C1987 1.433 . S
C1995 N1997 1.384 . S
N1996 C1992 1.427 . S
N1996 C1993 1.384 . S
N1997 C1989 1.427 . S
N1997 C1995 1.384 . S
H1998 C2004 0.930 . S
H1999 C2008 0.930 . S
H2000 C2013 0.929 . S
H2001 C2011 0.929 . S
H2002 C2006 0.929 . S
H2003 C2012 0.929 . S
C2004 H1998 0.930 . S
C2004 C2005 1.367 . S
C2004 C2012 1.378 . S
C2005 C2004 1.367 . S
C2005 C2013 1.433 . S
C2006 H2002 0.929 . S
C2006 C2008 1.378 . S
C2006 C2010 1.350 . S
C2007 C2010 1.463 . S
C2007 C2012 1.350 . S
C2007 N2015 1.427 . S
C2008 H1999 0.930 . S
C2008 C2006 1.378 . S
C2008 C2009 1.367 . S
C2009 C2008 1.367 . S
C2009 C2011 1.433 . S
C2010 C2006 1.350 . S
C2010 C2007 1.463 . S
C2010 N2014 1.427 . S
C2011 H2001 0.929 . S
C2011 C2009 1.433 . S
C2011 N2014 1.384 . S
C2012 H2003 0.929 . S
C2012 C2004 1.378 . S
C2012 C2007 1.350 . S
C2013 H2000 0.929 . S
C2013 C2005 1.433 . S
C2013 N2015 1.384 . S
N2014 C2010 1.427 . S
N2014 C2011 1.384 . S
N2015 C2007 1.427 . S
N2015 C2013 1.384 . S
H2016 C2022 0.930 . S
H2017 C2026 0.930 . S
H2018 C2031 0.929 . S
H2019 C2029 0.929 . S
H2020 C2024 0.929 . S
H2021 C2030 0.929 . S
C2022 H2016 0.930 . S
C2022 C2023 1.367 . S
C2022 C2030 1.378 . S
C2023 C2022 1.367 . S
C2023 C2031 1.433 . S
C2024 H2020 0.929 . S
C2024 C2026 1.378 . S
C2024 C2028 1.350 . S
C2025 C2028 1.463 . S
C2025 C2030 1.350 . S
C2025 N2033 1.427 . S
C2026 H2017 0.930 . S
C2026 C2024 1.378 . S
C2026 C2027 1.367 . S
C2027 C2026 1.367 . S
C2027 C2029 1.433 . S
C2028 C2024 1.350 . S
C2028 C2025 1.463 . S
C2028 N2032 1.427 . S
C2029 H2019 0.929 . S
C2029 C2027 1.433 . S
C2029 N2032 1.384 . S
C2030 H2021 0.929 . S
C2030 C2022 1.378 . S
C2030 C2025 1.350 . S
C2031 H2018 0.929 . S
C2031 C2023 1.433 . S
C2031 N2033 1.384 . S
N2032 C2028 1.427 . S
N2032 C2029 1.384 . S
N2033 C2025 1.427 . S
N2033 C2031 1.384 . S
H2034 C2040 0.930 . S
H2035 C2044 0.930 . S
H2036 C2049 0.929 . S
H2037 C2047 0.929 . S
H2038 C2042 0.929 . S
H2039 C2048 0.929 . S
C2040 H2034 0.930 . S
C2040 C2041 1.367 . S
C2040 C2048 1.378 . S
C2041 C2040 1.367 . S
C2041 C2049 1.433 . S
C2042 H2038 0.929 . S
C2042 C2044 1.378 . S
C2042 C2046 1.350 . S
C2043 C2046 1.463 . S
C2043 C2048 1.350 . S
C2043 N2051 1.427 . S
C2044 H2035 0.930 . S
C2044 C2042 1.378 . S
C2044 C2045 1.367 . S
C2045 C2044 1.367 . S
C2045 C2047 1.433 . S
C2046 C2042 1.350 . S
C2046 C2043 1.463 . S
C2046 N2050 1.427 . S
C2047 H2037 0.929 . S
C2047 C2045 1.433 . S
C2047 N2050 1.384 . S
C2048 H2039 0.929 . S
C2048 C2040 1.378 . S
C2048 C2043 1.350 . S
C2049 H2036 0.929 . S
C2049 C2041 1.433 . S
C2049 N2051 1.384 . S
N2050 C2046 1.427 . S
N2050 C2047 1.384 . S
N2051 C2043 1.427 . S
N2051 C2049 1.384 . S
H2052 C2058 0.930 . S
H2053 C2062 0.930 . S
H2054 C2067 0.929 . S
H2055 C2065 0.929 . S
H2056 C2060 0.929 . S
H2057 C2066 0.929 . S
C2058 H2052 0.930 . S
C2058 C2059 1.367 . S
C2058 C2066 1.378 . S
C2059 C2058 1.367 . S
C2059 C2067 1.433 . S
C2060 H2056 0.929 . S
C2060 C2062 1.378 . S
C2060 C2064 1.350 . S
C2061 C2064 1.463 . S
C2061 C2066 1.350 . S
C2061 N2069 1.427 . S
C2062 H2053 0.930 . S
C2062 C2060 1.378 . S
C2062 C2063 1.367 . S
C2063 C2062 1.367 . S
C2063 C2065 1.433 . S
C2064 C2060 1.350 . S
C2064 C2061 1.463 . S
C2064 N2068 1.427 . S
C2065 H2055 0.929 . S
C2065 C2063 1.433 . S
C2065 N2068 1.384 . S
C2066 H2057 0.929 . S
C2066 C2058 1.378 . S
C2066 C2061 1.350 . S
C2067 H2054 0.929 . S
C2067 C2059 1.433 . S
C2067 N2069 1.384 . S
N2068 C2064 1.427 . S
N2068 C2065 1.384 . S
N2069 C2061 1.427 . S
N2069 C2067 1.384 . S
C1105 C253 1.464 . S
C1109 C409 1.418 . S
C1123 C272 1.503 . S
C1127 C493 1.439 . S
C1141 C234 1.454 . S
C1145 C573 1.459 . S
C1159 C215 1.448 . S
C1163 C489 1.452 1_556 S
C1181 C577 1.394 . S
C1177 C177 1.465 . S
C1195 C196 1.419 . S
C1199 C405 1.425 1_556 S
C1217 C398 1.497 . S
C1213 C220 1.470 . S
C1235 C482 1.505 . S
C1231 C182 1.481 . S
C1249 C201 1.471 . S
C1253 C584 1.510 1_556 S
C1267 C258 1.440 . S
C1271 C500 1.483 . S
C1285 C277 1.439 . S
C1289 C566 1.465 . S
C1307 C416 1.465 . S
C1303 C239 1.429 . S
C1325 C661 1.414 . S
C1321 C25 1.464 . S
C1339 C44 1.497 . S
C1343 C745 1.453 . S
C1357 C6 1.458 . S
C1361 C825 1.463 . S
C1375 C329 1.441 . S
C1379 C741 1.451 . S
C1393 C291 1.465 . S
C1397 C829 1.396 . S
C1411 C310 1.420 . S
C1415 C657 1.423 . S
C1429 C334 1.455 . S
C1433 C650 1.482 . S
C1447 C296 1.491 . S
C1451 C734 1.518 . S
C1469 C836 1.517 . S
C1465 C315 1.482 . S
C1483 C30 1.455 1_565 S
C1487 C752 1.494 . S
C1505 C818 1.464 . S
C1501 C49 1.438 1_455 S
C1519 C11 1.434 . S
C1523 C668 1.469 . S
C1541 C913 1.418 . S
C1537 C139 1.464 . S
C1555 C158 1.497 . S
C1559 C997 1.453 . S
C1577 C1077 1.461 . S
C1573 C120 1.451 . S
C1595 C993 1.450 . S
C1591 C101 1.441 . S
C1613 C1081 1.406 . S
C1609 C63 1.458 . S
C1627 C82 1.419 . S
C1631 C909 1.425 . S
C1645 C106 1.471 1_655 S
C1649 C902 1.497 . S
C1663 C68 1.485 . S
C1667 C986 1.506 . S
C1685 C1088 1.519 . S
C1681 C87 1.474 1_545 S
C1699 C144 1.443 . S
C1703 C1004 1.487 . S
C1717 C163 1.441 . S
C1721 C1070 1.456 . S
C1735 C125 1.436 . S
C1739 C920 1.472 . S
C1753 C287 1.658 . S
C1757 C412 1.532 . S
C1775 C496 1.590 . S
C1771 C306 1.720 . S
C1789 C325 1.662 . S
C1793 C568 1.461 . S
C1807 C116 1.684 . S
C1811 C484 1.478 . S
C1825 C135 1.672 . S
C1829 C580 1.550 . S
C1847 C400 1.412 . S
C1843 C154 1.610 . S
C1861 C59 1.656 . S
C1865 C664 1.543 . S
C1879 C78 1.723 . S
C1883 C748 1.590 . S
C1897 C97 1.651 . S
C1901 C820 1.448 . S
C1915 C230 1.676 . S
C1919 C736 1.459 . S
C1937 C832 1.551 . S
C1933 C249 1.673 . S
C1951 C268 1.613 . S
C1955 C652 1.438 . S
C1969 C173 1.652 . S
C1973 C916 1.546 . S
C1987 C192 1.722 . S
C1991 C1000 1.569 . S
C2009 C1072 1.455 . S
C2005 C211 1.662 . S
C2023 C2 1.678 . S
C2027 C988 1.470 . S
C2041 C21 1.671 . S
C2045 C1084 1.549 . S
C2059 C40 1.614 . S
C2063 C904 1.438 . S
