# Generated by pormake.
# Topology nom, (4,4)-cn, num edge types: 1
# Building blocks:
#     Node 0, Type 0, BuildingBlock: MUDLON_clean_linker_0, # of connection points: 4
#     Node 1, Type 0, BuildingBlock: MUDLON_clean_linker_0, # of connection points: 4
#     Node 2, Type 0, BuildingBlock: MUDLON_clean_linker_0, # of connection points: 4
#     Node 3, Type 0, BuildingBlock: MUDLON_clean_linker_0, # of connection points: 4
#     Node 4, Type 0, BuildingBlock: MUDLON_clean_linker_0, # of connection points: 4
#     Node 5, Type 0, BuildingBlock: MUDLON_clean_linker_0, # of connection points: 4
#     Node 6, Type 1, BuildingBlock: KUFVIS_clean_sbu_0, # of connection points: 4
#     Node 7, Type 1, BuildingBlock: KUFVIS_clean_sbu_0, # of connection points: 4
#     Node 8, Type 1, BuildingBlock: KUFVIS_clean_sbu_0, # of connection points: 4
#     Node 9, Type 1, BuildingBlock: KUFVIS_clean_sbu_0, # of connection points: 4
#     Node 10, Type 1, BuildingBlock: KUFVIS_clean_sbu_0, # of connection points: 4
#     Node 11, Type 1, BuildingBlock: KUFVIS_clean_sbu_0, # of connection points: 4
#     Edge 12, Type (0, 1), None
#     Edge 13, Type (0, 1), None
#     Edge 14, Type (0, 1), None
#     Edge 15, Type (0, 1), None
#     Edge 16, Type (0, 1), None
#     Edge 17, Type (0, 1), None
#     Edge 18, Type (0, 1), None
#     Edge 19, Type (0, 1), None
#     Edge 20, Type (0, 1), None
#     Edge 21, Type (0, 1), None
#     Edge 22, Type (0, 1), None
#     Edge 23, Type (0, 1), None
#     Edge 24, Type (0, 1), None
#     Edge 25, Type (0, 1), None
#     Edge 26, Type (0, 1), None
#     Edge 27, Type (0, 1), None
#     Edge 28, Type (0, 1), None
#     Edge 29, Type (0, 1), None
#     Edge 30, Type (0, 1), None
#     Edge 31, Type (0, 1), None
#     Edge 32, Type (0, 1), None
#     Edge 33, Type (0, 1), None
#     Edge 34, Type (0, 1), None
#     Edge 35, Type (0, 1), None
# Relax obj value: 0.012
# Max RMSD: 0.112
# Mean RMSD: 0.064
data_MOF--net-nom--node1-KUFVIS_clean_sbu_0--node2-MUDLON_clean_linker_0--edge1-none
_symmetry_space_group_name_H-M    P1
_symmetry_Int_Tables_number       1
_symmetry_cell_setting            triclinic
loop_
_symmetry_equiv_pos_as_xyz
'x, y, z'
_cell_length_a     35.148865
_cell_length_b     36.374752
_cell_length_c     34.771499
_cell_angle_alpha  91.275263
_cell_angle_beta   90.584889
_cell_angle_gamma 120.70813
loop_
_atom_site_label
_atom_site_type_symbol
_atom_site_fract_x
_atom_site_fract_y
_atom_site_fract_z
_atom_type_partial_charge
H0 H 0.21435 0.55916 0.30906 0.0
N1 N 0.1628 0.57083 0.35691 0.0
H2 H 0.2745 0.6135 0.2708 0.0
H3 H 0.18182 0.65295 0.34774 0.0
H4 H 0.24013 0.70653 0.30782 0.0
H5 H 0.23032 0.56941 0.38993 0.0
H6 H 0.26225 0.59563 0.45446 0.0
H7 H 0.12707 0.59679 0.41539 0.0
H8 H 0.15766 0.62043 0.48028 0.0
H9 H 0.11364 0.49032 0.33147 0.0
H10 H 0.10822 0.60424 0.35484 0.0
H11 H 0.03704 0.45341 0.30811 0.0
H12 H 0.0307 0.56676 0.33666 0.0
H13 H 0.77836 0.34702 0.23777 0.0
H14 H 0.74556 0.3385 0.17345 0.0
H15 H 0.84342 0.46888 0.14998 0.0
H16 H 0.87448 0.47842 0.21476 0.0
H17 H 0.82704 0.48448 0.2782 0.0
H18 H 0.77345 0.48831 0.32 0.0
H19 H 0.73527 0.36366 0.36258 0.0
H20 H 0.79031 0.36101 0.32172 0.0
H21 H 0.88807 0.38327 0.29627 0.0
H22 H 0.96481 0.41952 0.31918 0.0
H23 H 0.9783 0.54119 0.29149 0.0
N24 N 0.84233 0.4181 0.27164 0.0
H25 H 0.90069 0.50492 0.27399 0.0
C26 C 0.19314 0.60172 0.33064 0.0
C27 C 0.21921 0.59102 0.3082 0.0
C28 C 0.25333 0.62189 0.28641 0.0
C29 C 0.26103 0.66366 0.28595 0.0
C30 C 0.23386 0.6741 0.3071 0.0
C31 C 0.20045 0.64348 0.32974 0.0
C32 C 0.17617 0.58077 0.39712 0.0
C33 C 0.2137 0.57976 0.40961 0.0
C34 C 0.2316 0.5942 0.44664 0.0
C35 C 0.21121 0.60819 0.47278 0.0
C36 C 0.17324 0.60865 0.46086 0.0
C37 C 0.15581 0.59512 0.42338 0.0
C38 C 0.11653 0.54961 0.34584 0.0
C39 C 0.09543 0.50697 0.33251 0.0
C40 C 0.05126 0.4858 0.31951 0.0
C41 C 0.02653 0.50652 0.32053 0.0
C42 C 0.04807 0.54943 0.33431 0.0
C43 C 0.0927 0.57099 0.34574 0.0
C44 C 0.82927 0.41302 0.23145 0.0
C45 C 0.79346 0.3735 0.21849 0.0
C46 C 0.7751 0.3685 0.18162 0.0
C47 C 0.79334 0.40246 0.15626 0.0
C48 C 0.82968 0.44187 0.16872 0.0
C49 C 0.84748 0.44724 0.20602 0.0
C50 C 0.81321 0.42272 0.29752 0.0
C51 C 0.80809 0.4586 0.29733 0.0
C52 C 0.77719 0.46057 0.32105 0.0
C53 C 0.75011 0.42625 0.34456 0.0
C54 C 0.7555 0.39053 0.3447 0.0
C55 C 0.787 0.38902 0.3216 0.0
C56 C 0.88872 0.441 0.2824 0.0
C57 C 0.90788 0.41781 0.2953 0.0
C58 C 0.95214 0.43882 0.30804 0.0
C59 C 0.9789 0.48378 0.30715 0.0
C60 C 0.95935 0.50681 0.29368 0.0
C61 C 0.91465 0.48583 0.28251 0.0
H62 H 0.48916 0.82976 0.49641 0.0
N63 N 0.47126 0.87102 0.44353 0.0
H64 H 0.43585 0.7706 0.53565 0.0
H65 H 0.3828 0.84202 0.44837 0.0
H66 H 0.32996 0.78424 0.4886 0.0
H67 H 0.47508 0.80912 0.40536 0.0
H68 H 0.44718 0.78096 0.34024 0.0
H69 H 0.43729 0.90386 0.3916 0.0
H70 H 0.41274 0.87777 0.32507 0.0
H71 H 0.5558 0.93078 0.43695 0.0
H72 H 0.43065 0.91302 0.47304 0.0
H73 H 0.59158 0.00707 0.45395 0.0
H74 H 0.46623 0.98805 0.4922 0.0
H75 H 0.68557 0.24753 0.5569 0.0
H76 H 0.68532 0.2748 0.62162 0.0
H77 H 0.55095 0.17211 0.63492 0.0
H78 H 0.54999 0.14661 0.56863 0.0
H79 H 0.55226 0.20103 0.50971 0.0
H80 H 0.55456 0.25763 0.47094 0.0
H81 H 0.68396 0.29073 0.43195 0.0
H82 H 0.68061 0.23246 0.46924 0.0
H83 H 0.65153 0.13222 0.52374 0.0
H84 H 0.61536 0.05595 0.50664 0.0
H85 H 0.49822 0.05727 0.46959 0.0
N86 N 0.61863 0.18327 0.51807 0.0
H87 H 0.53353 0.13229 0.48895 0.0
C88 C 0.44016 0.84068 0.46991 0.0
C89 C 0.45461 0.82062 0.49529 0.0
C90 C 0.42433 0.78709 0.51769 0.0
C91 C 0.37924 0.77384 0.5156 0.0
C92 C 0.36484 0.79483 0.49131 0.0
C93 C 0.39496 0.82776 0.46835 0.0
C94 C 0.45913 0.859 0.40338 0.0
C95 C 0.4623 0.82483 0.38781 0.0
C96 C 0.44706 0.80925 0.35039 0.0
C97 C 0.43024 0.82879 0.32689 0.0
C98 C 0.42713 0.8632 0.3422 0.0
C99 C 0.4412 0.87809 0.38023 0.0
C100 C 0.4908 0.91582 0.45417 0.0
C101 C 0.53618 0.94326 0.44895 0.0
C102 C 0.55658 0.98681 0.459 0.0
C103 C 0.53198 0.00392 0.47488 0.0
C104 C 0.48628 0.97633 0.4797 0.0
C105 C 0.46582 0.93293 0.46912 0.0
C106 C 0.61831 0.19461 0.55806 0.0
C107 C 0.65631 0.23037 0.57397 0.0
C108 C 0.65631 0.24555 0.6111 0.0
C109 C 0.61897 0.22412 0.63395 0.0
C110 C 0.58067 0.18824 0.61825 0.0
C111 C 0.5802 0.17363 0.58045 0.0
C112 C 0.61594 0.21185 0.49155 0.0
C113 C 0.58021 0.21907 0.49146 0.0
C114 C 0.58161 0.25149 0.4695 0.0
C115 C 0.61914 0.2778 0.44821 0.0
C116 C 0.65441 0.2702 0.4477 0.0
C117 C 0.65252 0.23709 0.46888 0.0
C118 C 0.59574 0.1383 0.50735 0.0
C119 C 0.61796 0.11583 0.51209 0.0
C120 C 0.59731 0.07231 0.50192 0.0
C121 C 0.55385 0.05024 0.48634 0.0
C122 C 0.53147 0.07286 0.48189 0.0
C123 C 0.55197 0.11625 0.4926 0.0
H124 H 0.45307 0.69575 0.67666 0.0
N125 N 0.45828 0.62957 0.7008 0.0
H126 H 0.39779 0.69458 0.63247 0.0
H127 H 0.39236 0.55909 0.66151 0.0
H128 H 0.33701 0.55736 0.61753 0.0
H129 H 0.38389 0.56252 0.73077 0.0
H130 H 0.35554 0.55955 0.7945 0.0
H131 H 0.49634 0.68742 0.75846 0.0
H132 H 0.46703 0.68542 0.82279 0.0
H133 H 0.52772 0.65996 0.65566 0.0
H134 H 0.43982 0.54821 0.71888 0.0
H135 H 0.5649 0.62332 0.63082 0.0
H136 H 0.47765 0.51247 0.69577 0.0
H137 H 0.68139 0.48254 0.57224 0.0
H138 H 0.68355 0.45656 0.50741 0.0
H139 H 0.54812 0.42213 0.48641 0.0
H140 H 0.54475 0.44508 0.5524 0.0
H141 H 0.54625 0.39371 0.61666 0.0
H142 H 0.55053 0.34092 0.65634 0.0
H143 H 0.68323 0.43621 0.69315 0.0
H144 H 0.67785 0.48978 0.65527 0.0
H145 H 0.64893 0.55981 0.62349 0.0
H146 H 0.61278 0.59793 0.64732 0.0
H147 H 0.48645 0.47971 0.64004 0.0
N148 N 0.61222 0.47662 0.60763 0.0
H149 H 0.52307 0.442 0.61788 0.0
C150 C 0.42696 0.62773 0.67246 0.0
C151 C 0.42801 0.66557 0.66346 0.0
C152 C 0.39632 0.66475 0.63823 0.0
C153 C 0.36265 0.62582 0.6215 0.0
C154 C 0.36226 0.58793 0.62993 0.0
C155 C 0.39402 0.58884 0.65514 0.0
C156 C 0.44293 0.625 0.73984 0.0
C157 C 0.40313 0.58904 0.75081 0.0
C158 C 0.38677 0.58748 0.78751 0.0
C159 C 0.40902 0.62227 0.81396 0.0
C160 C 0.4491 0.65805 0.8032 0.0
C161 C 0.46597 0.65919 0.76656 0.0
C162 C 0.48115 0.60748 0.68945 0.0
C163 C 0.51688 0.62784 0.66469 0.0
C164 C 0.53818 0.60683 0.65062 0.0
C165 C 0.52433 0.56476 0.66117 0.0
C166 C 0.48883 0.54453 0.6864 0.0
C167 C 0.46729 0.56541 0.70015 0.0
C168 C 0.61331 0.46653 0.56737 0.0
C169 C 0.65238 0.47022 0.55347 0.0
C170 C 0.65379 0.45597 0.51624 0.0
C171 C 0.61677 0.43953 0.49124 0.0
C172 C 0.57759 0.43609 0.50477 0.0
C173 C 0.57573 0.44929 0.54259 0.0
C174 C 0.61144 0.44608 0.63383 0.0
C175 C 0.57541 0.40386 0.63467 0.0
C176 C 0.57795 0.37367 0.65717 0.0
C177 C 0.61691 0.38495 0.67818 0.0
C178 C 0.65259 0.42715 0.67772 0.0
C179 C 0.64959 0.45759 0.65613 0.0
C180 C 0.58896 0.49816 0.6189 0.0
C181 C 0.61341 0.54231 0.62695 0.0
C182 C 0.59258 0.56403 0.64039 0.0
C183 C 0.54657 0.54196 0.64588 0.0
C184 C 0.52201 0.49771 0.63701 0.0
C185 C 0.54296 0.47601 0.62391 0.0
H186 H 0.22858 0.68825 0.79375 0.0
N187 N 0.15531 0.62016 0.76545 0.0
H188 H 0.28403 0.68984 0.83795 0.0
H189 H 0.1512 0.55095 0.79933 0.0
H190 H 0.20622 0.55192 0.84332 0.0
H191 H 0.15862 0.55366 0.73004 0.0
H192 H 0.18516 0.55268 0.66617 0.0
H193 H 0.1778 0.67882 0.71212 0.0
H194 H 0.20622 0.67883 0.64787 0.0
H195 H 0.11847 0.65162 0.81154 0.0
H196 H 0.08856 0.53741 0.74624 0.0
H197 H 0.04406 0.61447 0.83753 0.0
H198 H 0.01411 0.50083 0.77064 0.0
H199 H 0.79573 0.48237 0.90848 0.0
H200 H 0.76836 0.4565 0.97262 0.0
H201 H 0.84763 0.39672 0.97578 0.0
H202 H 0.87435 0.42241 0.91223 0.0
H203 H 0.82816 0.3815 0.85534 0.0
H204 H 0.7736 0.32658 0.81118 0.0
H205 H 0.73447 0.41501 0.773 0.0
H206 H 0.79087 0.47075 0.81656 0.0
H207 H 0.8933 0.54634 0.84964 0.0
H208 H 0.96768 0.58532 0.82349 0.0
H209 H 0.97527 0.47053 0.82724 0.0
N210 N 0.84579 0.46385 0.86502 0.0
H211 H 0.90089 0.4318 0.85145 0.0
C212 C 0.1859 0.6197 0.79317 0.0
C213 C 0.2235 0.6585 0.80478 0.0
C214 C 0.2551 0.65925 0.83005 0.0
C215 C 0.24979 0.62097 0.8442 0.0
C216 C 0.21156 0.58204 0.833 0.0
C217 C 0.17996 0.58138 0.80774 0.0
C218 C 0.16527 0.6161 0.72584 0.0
C219 C 0.16739 0.58056 0.71203 0.0
C220 C 0.18299 0.5802 0.6753 0.0
C221 C 0.198 0.61576 0.6517 0.0
C222 C 0.19496 0.65091 0.66519 0.0
C223 C 0.17853 0.65088 0.7018 0.0
C224 C 0.10949 0.59786 0.77666 0.0
C225 C 0.09561 0.61881 0.80223 0.0
C226 C 0.05295 0.59748 0.81699 0.0
C227 C 0.02284 0.55445 0.80638 0.0
C228 C 0.03651 0.53368 0.7801 0.0
C229 C 0.07933 0.55496 0.76562 0.0
C230 C 0.83705 0.45449 0.90525 0.0
C231 C 0.80793 0.46453 0.92352 0.0
C232 C 0.79225 0.4496 0.96017 0.0
C233 C 0.8053 0.42402 0.97935 0.0
C234 C 0.83646 0.41601 0.96185 0.0
C235 C 0.85205 0.43092 0.92523 0.0
C236 C 0.81429 0.43073 0.83873 0.0
C237 C 0.80876 0.3896 0.83694 0.0
C238 C 0.77722 0.35801 0.81174 0.0
C239 C 0.74978 0.36647 0.78849 0.0
C240 C 0.75505 0.40748 0.79059 0.0
C241 C 0.78727 0.43934 0.81529 0.0
C242 C 0.89128 0.48627 0.85303 0.0
C243 C 0.91129 0.5298 0.8451 0.0
C244 C 0.9539 0.55203 0.83022 0.0
C245 C 0.9777 0.53115 0.82301 0.0
C246 C 0.95783 0.48761 0.83167 0.0
C247 C 0.91511 0.46538 0.84623 0.0
H248 H 0.54948 0.23835 0.95501 0.0
N249 N 0.54877 0.1692 0.92759 0.0
H250 H 0.6043 0.29452 0.99887 0.0
H251 H 0.62021 0.17065 0.96195 0.0
H252 H 0.67497 0.22621 1.00549 0.0
H253 H 0.6197 0.17127 0.89301 0.0
H254 H 0.64559 0.19491 0.82905 0.0
H255 H 0.50943 0.18974 0.87328 0.0
H256 H 0.53654 0.21568 0.80882 0.0
H257 H 0.47306 0.13077 0.96451 0.0
H258 H 0.57358 0.10849 0.91933 0.0
H259 H 0.43587 0.05943 0.99162 0.0
H260 H 0.5366 0.03754 0.94575 0.0
H261 H 0.3452 0.8595 0.09307 0.0
H262 H 0.35137 0.83516 0.15689 0.0
H263 H 0.47574 0.84707 0.12556 0.0
H264 H 0.46827 0.86943 0.06178 0.0
H265 H 0.45887 0.87364 0.98489 0.0
H266 H 0.44796 0.81338 0.94374 0.0
H267 H 0.31366 0.7384 0.98197 0.0
H268 H 0.32413 0.79934 0.02191 0.0
H269 H 0.35928 0.91238 1.00097 0.0
H270 H 0.39464 0.98344 0.97335 0.0
H271 H 0.52276 0.00467 1.00849 0.0
N272 N 0.39793 0.87421 0.03377 0.0
H273 H 0.48733 0.93373 0.03539 0.0
C274 C 0.58053 0.20032 0.95514 0.0
C275 C 0.57669 0.23551 0.96625 0.0
C276 C 0.60811 0.26756 0.99129 0.0
C277 C 0.6443 0.26511 1.00571 0.0
C278 C 0.64771 0.22936 0.99494 0.0
C279 C 0.61624 0.19736 0.96992 0.0
C280 C 0.56175 0.17762 0.88794 0.0
C281 C 0.60007 0.17905 0.87458 0.0
C282 C 0.6152 0.19312 0.83773 0.0
C283 C 0.59321 0.20733 0.81354 0.0
C284 C 0.55427 0.20494 0.82656 0.0
C285 C 0.53864 0.18998 0.8633 0.0
C286 C 0.52599 0.12532 0.93962 0.0
C287 C 0.48675 0.11031 0.95993 0.0
C288 C 0.46556 0.06952 0.97539 0.0
C289 C 0.48335 0.04275 0.97106 0.0
C290 C 0.52233 0.05753 0.95015 0.0
C291 C 0.54341 0.09828 0.93459 0.0
C292 C 0.40661 0.86725 0.07285 0.0
C293 C 0.37424 0.85777 0.10042 0.0
C294 C 0.37769 0.84361 0.13676 0.0
C295 C 0.41408 0.8392 0.14647 0.0
C296 C 0.4475 0.85055 0.11933 0.0
C297 C 0.44355 0.86384 0.08278 0.0
C298 C 0.39198 0.84116 1.00635 0.0
C299 C 0.4267 0.84477 0.98371 0.0
C300 C 0.42045 0.81029 0.96008 0.0
C301 C 0.37995 0.77134 0.95962 0.0
C302 C 0.3452 0.76812 0.98169 0.0
C303 C 0.35108 0.80281 1.00449 0.0
C304 C 0.42031 0.91756 0.0205 0.0
C305 C 0.39497 0.9326 1.00299 0.0
C306 C 0.41526 0.97324 0.98729 0.0
C307 C 0.46161 0.99979 0.98856 0.0
C308 C 0.48703 0.98486 1.00653 0.0
C309 C 0.46666 0.94425 0.02236 0.0
H310 H 0.5369 0.33983 0.18373 0.0
N311 N 0.53727 0.41223 0.19633 0.0
H312 H 0.58629 0.32805 0.14288 0.0
H313 H 0.59858 0.47013 0.14734 0.0
H314 H 0.64683 0.45791 0.10518 0.0
H315 H 0.61805 0.47568 0.2242 0.0
H316 H 0.64875 0.48246 0.28894 0.0
H317 H 0.49715 0.36316 0.25586 0.0
H318 H 0.52855 0.36854 0.3207 0.0
H319 H 0.46501 0.38391 0.15216 0.0
H320 H 0.56752 0.4981 0.21094 0.0
H321 H 0.43224 0.42426 0.1276 0.0
H322 H 0.5339 0.53777 0.18857 0.0
H323 H 0.32738 0.57096 0.07303 0.0
H324 H 0.32134 0.59489 1.00937 0.0
H325 H 0.4558 0.62945 0.98704 0.0
H326 H 0.46292 0.60826 0.05183 0.0
H327 H 0.46973 0.66173 0.11284 0.0
H328 H 0.47546 0.72025 0.15346 0.0
H329 H 0.34611 0.63437 0.19795 0.0
H330 H 0.34156 0.57566 0.15825 0.0
H331 H 0.3585 0.49756 0.12333 0.0
H332 H 0.39172 0.45657 0.14521 0.0
H333 H 0.5219 0.56854 0.13504 0.0
N334 N 0.39918 0.57981 0.10729 0.0
H335 H 0.48822 0.60943 0.11533 0.0
C336 C 0.56371 0.4056 0.16857 0.0
C337 C 0.56038 0.36555 0.16624 0.0
C338 C 0.58853 0.35888 0.14288 0.0
C339 C 0.62007 0.39197 0.12065 0.0
C340 C 0.62229 0.43166 0.12157 0.0
C341 C 0.59479 0.43869 0.14578 0.0
C342 C 0.55475 0.41938 0.23538 0.0
C343 C 0.59767 0.45297 0.24537 0.0
C344 C 0.61526 0.45668 0.28247 0.0
C345 C 0.59099 0.42613 0.31011 0.0
C346 C 0.548 0.39266 0.30015 0.0
C347 C 0.52998 0.38962 0.26324 0.0
C348 C 0.51837 0.43736 0.18384 0.0
C349 C 0.4801 0.41751 0.16021 0.0
C350 C 0.4613 0.44066 0.14638 0.0
C351 C 0.48018 0.48443 0.15615 0.0
C352 C 0.51867 0.50435 0.17985 0.0
C353 C 0.53778 0.48129 0.19323 0.0
C354 C 0.39518 0.58702 0.06722 0.0
C355 C 0.3552 0.58261 0.05407 0.0
C356 C 0.35162 0.5958 0.01756 0.0
C357 C 0.38739 0.61197 0.99268 0.0
C358 C 0.42731 0.61573 1.00535 0.0
C359 C 0.43131 0.60349 0.04241 0.0
C360 C 0.40552 0.61402 0.13326 0.0
C361 C 0.44328 0.65517 0.13222 0.0
C362 C 0.44629 0.68872 0.15519 0.0
C363 C 0.41115 0.68199 0.17879 0.0
C364 C 0.37363 0.64069 0.17991 0.0
C365 C 0.37108 0.60706 0.15754 0.0
C366 C 0.4206 0.55642 0.11759 0.0
C367 C 0.3942 0.51306 0.12577 0.0
C368 C 0.41338 0.48966 0.13803 0.0
C369 C 0.45969 0.5091 0.14204 0.0
C370 C 0.48615 0.55254 0.13308 0.0
C371 C 0.46685 0.57602 0.1213 0.0
Mn372 Mn 0.62933 0.37887 0.40916 0.0
Mn373 Mn 0.68634 0.48621 0.4045 0.0
C374 C 0.61726 0.41956 0.45394 0.0
C375 C 0.62417 0.31672 0.43158 0.0
C376 C 0.61224 0.42777 0.34774 0.0
O377 O 0.68129 0.39107 0.37553 0.0
O378 O 0.72087 0.46342 0.37852 0.0
C379 C 0.76447 0.508 0.45399 0.0
N380 N 0.72832 0.51138 0.44635 0.0
C381 C 0.74306 0.55669 0.50274 0.0
C382 C 0.78061 0.5539 0.51108 0.0
C383 C 0.79135 0.52945 0.48659 0.0
C384 C 0.71792 0.53517 0.4695 0.0
H385 H 0.77259 0.48891 0.43542 0.0
C386 C 0.71537 0.42693 0.36777 0.0
O387 O 0.60166 0.31558 0.40127 0.0
O388 O 0.64993 0.35364 0.44836 0.0
N389 N 0.65601 0.51117 0.4291 0.0
C390 C 0.61652 0.50723 0.41894 0.0
C391 C 0.5997 0.52786 0.44164 0.0
C392 C 0.62356 0.55221 0.47454 0.0
C393 C 0.66411 0.55575 0.48443 0.0
C394 C 0.67946 0.53486 0.46049 0.0
H395 H 0.59782 0.48814 0.39394 0.0
O396 O 0.58718 0.37986 0.44676 0.0
O397 O 0.65292 0.4342 0.43385 0.0
O398 O 0.60041 0.39282 0.36457 0.0
O399 O 0.64409 0.46398 0.3601 0.0
C400 C 0.68926 0.5782 0.51769 0.0
C401 C 0.72877 0.57876 0.52678 0.0
H402 H 0.80109 0.56992 0.53648 0.0
H403 H 0.82011 0.52692 0.49298 0.0
H404 H 0.56825 0.52475 0.43395 0.0
H405 H 0.61021 0.56763 0.49224 0.0
H406 H 0.67814 0.59453 0.53683 0.0
H407 H 0.74743 0.59553 0.55277 0.0
Mn408 Mn 0.28834 0.67 0.55534 0.0
Mn409 Mn 0.23659 0.56261 0.55756 0.0
C410 C 0.23373 0.6285 0.50982 0.0
C411 C 0.34642 0.73399 0.53328 0.0
C412 C 0.21974 0.61694 0.61485 0.0
O413 O 0.32927 0.65974 0.5894 0.0
O414 O 0.29533 0.58767 0.58477 0.0
C415 C 0.29551 0.54672 0.50877 0.0
N416 N 0.25461 0.54052 0.51571 0.0
C417 C 0.22394 0.496 0.45836 0.0
C418 C 0.26568 0.50169 0.45071 0.0
C419 C 0.30161 0.52716 0.47603 0.0
C420 C 0.21971 0.51577 0.49173 0.0
H421 H 0.32328 0.56656 0.528 0.0
C422 C 0.32719 0.62445 0.59673 0.0
O423 O 0.32512 0.73361 0.56373 0.0
O424 O 0.33496 0.69758 0.51651 0.0
N425 N 0.17991 0.53536 0.53174 0.0
C426 C 0.14292 0.53622 0.54147 0.0
C427 C 0.10452 0.51405 0.51805 0.0
C428 C 0.10456 0.4913 0.48489 0.0
C429 C 0.14302 0.49083 0.47549 0.0
C430 C 0.18016 0.51315 0.50014 0.0
H431 H 0.14286 0.55403 0.56671 0.0
O432 O 0.2438 0.66755 0.51756 0.0
O433 O 0.25554 0.61495 0.52954 0.0
O434 O 0.24434 0.65293 0.59943 0.0
O435 O 0.2152 0.58183 0.60159 0.0
C436 C 0.14631 0.47009 0.44209 0.0
C437 C 0.18671 0.47259 0.43357 0.0
H438 H 0.27065 0.48709 0.42524 0.0
H439 H 0.33398 0.53191 0.47019 0.0
H440 H 0.07504 0.51476 0.52538 0.0
H441 H 0.07504 0.47468 0.46664 0.0
H442 H 0.11818 0.45271 0.42241 0.0
H443 H 0.18903 0.45708 0.40748 0.0
Mn444 Mn 0.62958 0.29511 0.71761 0.0
Mn445 Mn 0.68828 0.24552 0.72294 0.0
C446 C 0.61857 0.24345 0.67156 0.0
C447 C 0.62288 0.35154 0.69517 0.0
C448 C 0.61367 0.22801 0.77688 0.0
O449 O 0.68135 0.33461 0.75362 0.0
O450 O 0.72118 0.30162 0.75179 0.0
C451 C 0.76644 0.3038 0.67815 0.0
N452 N 0.73092 0.26405 0.68332 0.0
C453 C 0.74817 0.23561 0.62741 0.0
C454 C 0.78508 0.2762 0.62159 0.0
C455 C 0.79423 0.31044 0.64707 0.0
C456 C 0.72201 0.23079 0.65918 0.0
H457 H 0.7734 0.33024 0.69753 0.0
C458 C 0.71539 0.33232 0.76287 0.0
O459 O 0.60067 0.33008 0.72449 0.0
O460 O 0.64931 0.34092 0.67958 0.0
N461 N 0.65956 0.19134 0.69573 0.0
C462 C 0.6205 0.15536 0.70334 0.0
C463 C 0.60522 0.11872 0.67932 0.0
C464 C 0.63024 0.11947 0.64778 0.0
C465 C 0.67034 0.15689 0.64053 0.0
C466 C 0.68406 0.19231 0.66563 0.0
H467 H 0.60099 0.15476 0.72736 0.0
O468 O 0.58782 0.2524 0.67788 0.0
O469 O 0.65413 0.2643 0.6932 0.0
O470 O 0.60169 0.25194 0.76088 0.0
O471 O 0.64543 0.22374 0.76479 0.0
C472 C 0.69667 0.16075 0.60885 0.0
C473 C 0.73558 0.20007 0.60231 0.0
H474 H 0.80631 0.28158 0.59741 0.0
H475 H 0.8225 0.34191 0.64263 0.0
H476 H 0.57411 0.09004 0.68498 0.0
H477 H 0.6181 0.0913 0.62907 0.0
H478 H 0.68696 0.13385 0.58903 0.0
H479 H 0.75513 0.20284 0.57747 0.0
Mn480 Mn 0.37104 0.67108 0.91383 0.0
Mn481 Mn 0.31513 0.56365 0.90472 0.0
C482 C 0.38508 0.63165 0.95683 0.0
C483 C 0.37511 0.73273 0.93993 0.0
C484 C 0.3882 0.62177 0.85108 0.0
O485 O 0.31869 0.65777 0.8786 0.0
O486 O 0.27973 0.58557 0.87919 0.0
C487 C 0.23779 0.5422 0.95257 0.0
N488 N 0.27395 0.53896 0.94517 0.0
C489 C 0.26052 0.49458 0.99964 0.0
C490 C 0.22297 0.49723 1.00771 0.0
C491 C 0.21157 0.52114 0.98406 0.0
C492 C 0.285 0.51569 0.96751 0.0
H493 H 0.22916 0.56086 0.93465 0.0
C494 C 0.2847 0.62155 0.86918 0.0
O495 O 0.3975 0.73442 0.9098 0.0
O496 O 0.34983 0.69544 0.95396 0.0
N497 N 0.34622 0.53939 0.92867 0.0
C498 C 0.38552 0.54324 0.91895 0.0
C499 C 0.40288 0.523 0.94093 0.0
C500 C 0.37971 0.49911 0.97265 0.0
C501 C 0.33931 0.49559 0.98207 0.0
C502 C 0.3234 0.51607 0.95886 0.0
H503 H 0.40368 0.56194 0.89485 0.0
O504 O 0.41432 0.67151 0.95181 0.0
O505 O 0.34884 0.61622 0.93607 0.0
O506 O 0.39986 0.65716 0.869 0.0
O507 O 0.35683 0.58569 0.86194 0.0
C508 C 0.31482 0.47355 0.01419 0.0
C509 C 0.2754 0.47296 0.02291 0.0
H510 H 0.20298 0.48149 0.03226 0.0
H511 H 0.1828 0.52355 0.99025 0.0
H512 H 0.43421 0.52607 0.93361 0.0
H513 H 0.39349 0.484 0.98982 0.0
H514 H 0.32639 0.45755 0.03274 0.0
H515 H 0.25725 0.45649 0.04803 0.0
Mn516 Mn 0.71345 0.38303 0.07572 0.0
Mn517 Mn 0.77094 0.33227 0.06906 0.0
C518 C 0.76968 0.39876 0.11988 0.0
C519 C 0.65388 0.38644 0.10083 0.0
C520 C 0.78363 0.40232 0.01534 0.0
O521 O 0.67392 0.3314 0.0407 0.0
O522 O 0.71274 0.2975 0.04103 0.0
C523 C 0.71409 0.25624 0.11455 0.0
N524 N 0.75421 0.29179 0.10886 0.0
C525 C 0.78582 0.27871 0.16489 0.0
C526 C 0.74491 0.2418 0.17119 0.0
C527 C 0.7089 0.23053 0.14591 0.0
C528 C 0.7892 0.30274 0.13283 0.0
H529 H 0.68624 0.24767 0.09536 0.0
C530 C 0.67891 0.30005 0.03089 0.0
O531 O 0.6738 0.4074 0.07048 0.0
O532 O 0.66742 0.36256 0.11538 0.0
N533 N 0.82723 0.36272 0.09549 0.0
C534 C 0.86327 0.4011 0.08717 0.0
C535 C 0.90154 0.41803 0.11078 0.0
C536 C 0.90236 0.39536 0.14266 0.0
C537 C 0.86491 0.35587 0.15058 0.0
C538 C 0.82786 0.34037 0.1258 0.0
H539 H 0.86265 0.41885 0.06294 0.0
O540 O 0.7573 0.42618 0.11376 0.0
O541 O 0.74918 0.3633 0.09937 0.0
O542 O 0.75626 0.41083 0.03126 0.0
O543 O 0.79118 0.37361 0.02728 0.0
C544 C 0.86248 0.33185 0.18267 0.0
C545 C 0.82299 0.29325 0.18978 0.0
H546 H 0.74061 0.22216 0.19561 0.0
H547 H 0.67715 0.20224 0.15072 0.0
H548 H 0.93025 0.44862 0.10459 0.0
H549 H 0.93176 0.40879 0.16108 0.0
H550 H 0.89055 0.34311 0.20241 0.0
H551 H 0.82132 0.2754 0.21486 0.0
Mn552 Mn 0.36551 0.75457 0.24474 0.0
Mn553 Mn 0.47636 0.80734 0.2377 0.0
C554 C 0.40918 0.80834 0.28936 0.0
C555 C 0.30115 0.69756 0.26844 0.0
C556 C 0.41585 0.81975 0.18317 0.0
O557 O 0.37639 0.71511 0.21022 0.0
O558 O 0.45123 0.74992 0.2113 0.0
C559 C 0.49866 0.75406 0.28512 0.0
N560 N 0.50265 0.7926 0.27835 0.0
C561 C 0.55079 0.82512 0.33399 0.0
C562 C 0.54739 0.78583 0.34143 0.0
C563 C 0.52122 0.75017 0.31688 0.0
C564 C 0.52812 0.82725 0.30156 0.0
H565 H 0.47828 0.72648 0.2665 0.0
C566 C 0.41302 0.71788 0.20149 0.0
O567 O 0.2997 0.7175 0.23844 0.0
O568 O 0.3396 0.71003 0.28405 0.0
N569 N 0.50351 0.86267 0.2628 0.0
C570 C 0.49994 0.89703 0.25365 0.0
C571 C 0.52221 0.93472 0.2766 0.0
C572 C 0.54779 0.93666 0.30873 0.0
C573 C 0.55092 0.90087 0.31761 0.0
C574 C 0.52834 0.8643 0.29347 0.0
H575 H 0.4799 0.89553 0.22924 0.0
O576 O 0.3683 0.79771 0.28305 0.0
O577 O 0.4233 0.78791 0.26832 0.0
O578 O 0.37984 0.79588 0.2004 0.0
O579 O 0.45323 0.82547 0.19451 0.0
C580 C 0.57457 0.89966 0.35004 0.0
C581 C 0.5746 0.86185 0.35818 0.0
H582 H 0.56426 0.78254 0.36618 0.0
H583 H 0.51822 0.71968 0.32257 0.0
H584 H 0.51941 0.96212 0.2697 0.0
H585 H 0.56449 0.96563 0.32663 0.0
H586 H 0.59229 0.92744 0.36925 0.0
H587 H 0.59232 0.86112 0.38354 0.0
loop_
_geom_bond_atom_site_label_1
_geom_bond_atom_site_label_2
_geom_bond_distance
_geom_bond_site_symmetry_2
_ccdc_geom_bond_type
H0 C27 0.929 . S
N1 C26 1.433 . S
N1 C32 1.435 . S
N1 C38 1.423 . S
H2 C28 0.930 . S
H3 C31 0.931 . S
H4 C30 0.929 . S
H5 C33 0.930 . S
H6 C34 0.932 . S
H7 C37 0.929 . S
H8 C36 0.931 . S
H9 C39 0.929 . S
H10 C43 0.932 . S
H11 C40 0.931 . S
H12 C42 0.929 . S
H13 C45 0.929 . S
H14 C46 0.930 . S
H15 C48 0.929 . S
H16 C49 0.931 . S
H17 C51 0.930 . S
H18 C52 0.932 . S
H19 C54 0.931 . S
H20 C55 0.929 . S
H21 C57 0.929 . S
H22 C58 0.931 . S
H23 C60 0.929 . S
N24 C44 1.433 . S
N24 C50 1.435 . S
N24 C56 1.423 . S
H25 C61 0.932 . S
C26 N1 1.433 . S
C26 C27 1.363 . S
C26 C31 1.370 . S
C27 H0 0.929 . S
C27 C26 1.363 . S
C27 C28 1.385 . S
C28 H2 0.930 . S
C28 C27 1.385 . S
C28 C29 1.357 . S
C29 C28 1.357 . S
C29 C30 1.406 . S
C30 H4 0.929 . S
C30 C29 1.406 . S
C30 C31 1.391 . S
C31 H3 0.931 . S
C31 C26 1.370 . S
C31 C30 1.391 . S
C32 N1 1.435 . S
C32 C33 1.358 . S
C32 C37 1.371 . S
C33 H5 0.930 . S
C33 C32 1.358 . S
C33 C34 1.405 . S
C34 H6 0.932 . S
C34 C33 1.405 . S
C34 C35 1.383 . S
C35 C34 1.383 . S
C35 C36 1.393 . S
C36 H8 0.931 . S
C36 C35 1.393 . S
C36 C37 1.382 . S
C37 H7 0.929 . S
C37 C32 1.371 . S
C37 C36 1.382 . S
C38 N1 1.423 . S
C38 C39 1.362 . S
C38 C43 1.388 . S
C39 H9 0.929 . S
C39 C38 1.362 . S
C39 C40 1.376 . S
C40 H11 0.931 . S
C40 C39 1.376 . S
C40 C41 1.396 . S
C41 C40 1.396 . S
C41 C42 1.348 . S
C41 C59 1.472 1_455 S
C42 H12 0.929 . S
C42 C41 1.348 . S
C42 C43 1.443 . S
C43 H10 0.932 . S
C43 C38 1.388 . S
C43 C42 1.443 . S
C44 N24 1.433 . S
C44 C45 1.363 . S
C44 C49 1.370 . S
C45 H13 0.929 . S
C45 C44 1.363 . S
C45 C46 1.385 . S
C46 H14 0.930 . S
C46 C45 1.385 . S
C46 C47 1.357 . S
C47 C46 1.357 . S
C47 C48 1.406 . S
C48 H15 0.929 . S
C48 C47 1.406 . S
C48 C49 1.391 . S
C49 H16 0.931 . S
C49 C44 1.370 . S
C49 C48 1.391 . S
C50 N24 1.435 . S
C50 C51 1.358 . S
C50 C55 1.371 . S
C51 H17 0.930 . S
C51 C50 1.358 . S
C51 C52 1.405 . S
C52 H18 0.932 . S
C52 C51 1.405 . S
C52 C53 1.383 . S
C53 C52 1.383 . S
C53 C54 1.393 . S
C54 H19 0.931 . S
C54 C53 1.393 . S
C54 C55 1.382 . S
C55 H20 0.929 . S
C55 C50 1.371 . S
C55 C54 1.382 . S
C56 N24 1.423 . S
C56 C57 1.362 . S
C56 C61 1.388 . S
C57 H21 0.929 . S
C57 C56 1.362 . S
C57 C58 1.376 . S
C58 H22 0.931 . S
C58 C57 1.376 . S
C58 C59 1.396 . S
C59 C41 1.472 1_655 S
C59 C58 1.396 . S
C59 C60 1.348 . S
C60 H23 0.929 . S
C60 C59 1.348 . S
C60 C61 1.443 . S
C61 H25 0.932 . S
C61 C56 1.388 . S
C61 C60 1.443 . S
H62 C89 0.929 . S
N63 C88 1.433 . S
N63 C94 1.435 . S
N63 C100 1.423 . S
H64 C90 0.930 . S
H65 C93 0.931 . S
H66 C92 0.929 . S
H67 C95 0.930 . S
H68 C96 0.932 . S
H69 C99 0.929 . S
H70 C98 0.931 . S
H71 C101 0.929 . S
H72 C105 0.932 . S
H73 C102 0.931 . S
H74 C104 0.929 1_545 S
H75 C107 0.929 . S
H76 C108 0.930 . S
H77 C110 0.929 . S
H78 C111 0.931 . S
H79 C113 0.930 . S
H80 C114 0.932 . S
H81 C116 0.931 . S
H82 C117 0.929 . S
H83 C119 0.929 . S
H84 C120 0.931 . S
H85 C122 0.929 . S
N86 C106 1.433 . S
N86 C112 1.435 . S
N86 C118 1.423 . S
H87 C123 0.932 . S
C88 N63 1.433 . S
C88 C89 1.363 . S
C88 C93 1.370 . S
C89 H62 0.929 . S
C89 C88 1.363 . S
C89 C90 1.385 . S
C90 H64 0.930 . S
C90 C89 1.385 . S
C90 C91 1.357 . S
C91 C90 1.357 . S
C91 C92 1.406 . S
C92 H66 0.929 . S
C92 C91 1.406 . S
C92 C93 1.391 . S
C93 H65 0.931 . S
C93 C88 1.370 . S
C93 C92 1.391 . S
C94 N63 1.435 . S
C94 C95 1.358 . S
C94 C99 1.371 . S
C95 H67 0.930 . S
C95 C94 1.358 . S
C95 C96 1.405 . S
C96 H68 0.932 . S
C96 C95 1.405 . S
C96 C97 1.383 . S
C97 C96 1.383 . S
C97 C98 1.393 . S
C98 H70 0.931 . S
C98 C97 1.393 . S
C98 C99 1.382 . S
C99 H69 0.929 . S
C99 C94 1.371 . S
C99 C98 1.382 . S
C100 N63 1.423 . S
C100 C101 1.362 . S
C100 C105 1.388 . S
C101 H71 0.929 . S
C101 C100 1.362 . S
C101 C102 1.376 . S
C102 H73 0.931 . S
C102 C101 1.376 . S
C102 C103 1.396 1_565 S
C103 C102 1.396 1_545 S
C103 C104 1.348 1_545 S
C103 C121 1.472 . S
C104 H74 0.929 1_565 S
C104 C103 1.348 1_565 S
C104 C105 1.443 . S
C105 H72 0.932 . S
C105 C100 1.388 . S
C105 C104 1.443 . S
C106 N86 1.433 . S
C106 C107 1.363 . S
C106 C111 1.370 . S
C107 H75 0.929 . S
C107 C106 1.363 . S
C107 C108 1.385 . S
C108 H76 0.930 . S
C108 C107 1.385 . S
C108 C109 1.357 . S
C109 C108 1.357 . S
C109 C110 1.406 . S
C110 H77 0.929 . S
C110 C109 1.406 . S
C110 C111 1.391 . S
C111 H78 0.931 . S
C111 C106 1.370 . S
C111 C110 1.391 . S
C112 N86 1.435 . S
C112 C113 1.358 . S
C112 C117 1.371 . S
C113 H79 0.930 . S
C113 C112 1.358 . S
C113 C114 1.405 . S
C114 H80 0.932 . S
C114 C113 1.405 . S
C114 C115 1.383 . S
C115 C114 1.383 . S
C115 C116 1.393 . S
C116 H81 0.931 . S
C116 C115 1.393 . S
C116 C117 1.382 . S
C117 H82 0.929 . S
C117 C112 1.371 . S
C117 C116 1.382 . S
C118 N86 1.423 . S
C118 C119 1.362 . S
C118 C123 1.388 . S
C119 H83 0.929 . S
C119 C118 1.362 . S
C119 C120 1.376 . S
C120 H84 0.931 . S
C120 C119 1.376 . S
C120 C121 1.396 . S
C121 C103 1.472 . S
C121 C120 1.396 . S
C121 C122 1.348 . S
C122 H85 0.929 . S
C122 C121 1.348 . S
C122 C123 1.443 . S
C123 H87 0.932 . S
C123 C118 1.388 . S
C123 C122 1.443 . S
H124 C151 0.929 . S
N125 C150 1.433 . S
N125 C156 1.435 . S
N125 C162 1.423 . S
H126 C152 0.930 . S
H127 C155 0.931 . S
H128 C154 0.929 . S
H129 C157 0.930 . S
H130 C158 0.932 . S
H131 C161 0.929 . S
H132 C160 0.931 . S
H133 C163 0.929 . S
H134 C167 0.932 . S
H135 C164 0.931 . S
H136 C166 0.929 . S
H137 C169 0.929 . S
H138 C170 0.930 . S
H139 C172 0.929 . S
H140 C173 0.931 . S
H141 C175 0.930 . S
H142 C176 0.932 . S
H143 C178 0.931 . S
H144 C179 0.929 . S
H145 C181 0.929 . S
H146 C182 0.931 . S
H147 C184 0.929 . S
N148 C168 1.433 . S
N148 C174 1.435 . S
N148 C180 1.423 . S
H149 C185 0.932 . S
C150 N125 1.433 . S
C150 C151 1.363 . S
C150 C155 1.370 . S
C151 H124 0.929 . S
C151 C150 1.363 . S
C151 C152 1.385 . S
C152 H126 0.930 . S
C152 C151 1.385 . S
C152 C153 1.357 . S
C153 C152 1.357 . S
C153 C154 1.406 . S
C154 H128 0.929 . S
C154 C153 1.406 . S
C154 C155 1.391 . S
C155 H127 0.931 . S
C155 C150 1.370 . S
C155 C154 1.391 . S
C156 N125 1.435 . S
C156 C157 1.358 . S
C156 C161 1.371 . S
C157 H129 0.930 . S
C157 C156 1.358 . S
C157 C158 1.405 . S
C158 H130 0.932 . S
C158 C157 1.405 . S
C158 C159 1.383 . S
C159 C158 1.383 . S
C159 C160 1.393 . S
C160 H132 0.931 . S
C160 C159 1.393 . S
C160 C161 1.382 . S
C161 H131 0.929 . S
C161 C156 1.371 . S
C161 C160 1.382 . S
C162 N125 1.423 . S
C162 C163 1.362 . S
C162 C167 1.388 . S
C163 H133 0.929 . S
C163 C162 1.362 . S
C163 C164 1.376 . S
C164 H135 0.931 . S
C164 C163 1.376 . S
C164 C165 1.396 . S
C165 C164 1.396 . S
C165 C166 1.348 . S
C165 C183 1.472 . S
C166 H136 0.929 . S
C166 C165 1.348 . S
C166 C167 1.443 . S
C167 H134 0.932 . S
C167 C162 1.388 . S
C167 C166 1.443 . S
C168 N148 1.433 . S
C168 C169 1.363 . S
C168 C173 1.370 . S
C169 H137 0.929 . S
C169 C168 1.363 . S
C169 C170 1.385 . S
C170 H138 0.930 . S
C170 C169 1.385 . S
C170 C171 1.357 . S
C171 C170 1.357 . S
C171 C172 1.406 . S
C172 H139 0.929 . S
C172 C171 1.406 . S
C172 C173 1.391 . S
C173 H140 0.931 . S
C173 C168 1.370 . S
C173 C172 1.391 . S
C174 N148 1.435 . S
C174 C175 1.358 . S
C174 C179 1.371 . S
C175 H141 0.930 . S
C175 C174 1.358 . S
C175 C176 1.405 . S
C176 H142 0.932 . S
C176 C175 1.405 . S
C176 C177 1.383 . S
C177 C176 1.383 . S
C177 C178 1.393 . S
C178 H143 0.931 . S
C178 C177 1.393 . S
C178 C179 1.382 . S
C179 H144 0.929 . S
C179 C174 1.371 . S
C179 C178 1.382 . S
C180 N148 1.423 . S
C180 C181 1.362 . S
C180 C185 1.388 . S
C181 H145 0.929 . S
C181 C180 1.362 . S
C181 C182 1.376 . S
C182 H146 0.931 . S
C182 C181 1.376 . S
C182 C183 1.396 . S
C183 C165 1.472 . S
C183 C182 1.396 . S
C183 C184 1.348 . S
C184 H147 0.929 . S
C184 C183 1.348 . S
C184 C185 1.443 . S
C185 H149 0.932 . S
C185 C180 1.388 . S
C185 C184 1.443 . S
H186 C213 0.929 . S
N187 C212 1.433 . S
N187 C218 1.435 . S
N187 C224 1.423 . S
H188 C214 0.930 . S
H189 C217 0.931 . S
H190 C216 0.929 . S
H191 C219 0.930 . S
H192 C220 0.932 . S
H193 C223 0.929 . S
H194 C222 0.931 . S
H195 C225 0.929 . S
H196 C229 0.932 . S
H197 C226 0.931 . S
H198 C228 0.929 . S
H199 C231 0.929 . S
H200 C232 0.930 . S
H201 C234 0.929 . S
H202 C235 0.931 . S
H203 C237 0.930 . S
H204 C238 0.932 . S
H205 C240 0.931 . S
H206 C241 0.929 . S
H207 C243 0.929 . S
H208 C244 0.931 . S
H209 C246 0.929 . S
N210 C230 1.433 . S
N210 C236 1.435 . S
N210 C242 1.423 . S
H211 C247 0.932 . S
C212 N187 1.433 . S
C212 C213 1.363 . S
C212 C217 1.370 . S
C213 H186 0.929 . S
C213 C212 1.363 . S
C213 C214 1.385 . S
C214 H188 0.930 . S
C214 C213 1.385 . S
C214 C215 1.357 . S
C215 C214 1.357 . S
C215 C216 1.406 . S
C216 H190 0.929 . S
C216 C215 1.406 . S
C216 C217 1.391 . S
C217 H189 0.931 . S
C217 C212 1.370 . S
C217 C216 1.391 . S
C218 N187 1.435 . S
C218 C219 1.358 . S
C218 C223 1.371 . S
C219 H191 0.930 . S
C219 C218 1.358 . S
C219 C220 1.405 . S
C220 H192 0.932 . S
C220 C219 1.405 . S
C220 C221 1.383 . S
C221 C220 1.383 . S
C221 C222 1.393 . S
C222 H194 0.931 . S
C222 C221 1.393 . S
C222 C223 1.382 . S
C223 H193 0.929 . S
C223 C218 1.371 . S
C223 C222 1.382 . S
C224 N187 1.423 . S
C224 C225 1.362 . S
C224 C229 1.388 . S
C225 H195 0.929 . S
C225 C224 1.362 . S
C225 C226 1.376 . S
C226 H197 0.931 . S
C226 C225 1.376 . S
C226 C227 1.396 . S
C227 C226 1.396 . S
C227 C228 1.348 . S
C227 C245 1.472 1_455 S
C228 H198 0.929 . S
C228 C227 1.348 . S
C228 C229 1.443 . S
C229 H196 0.932 . S
C229 C224 1.388 . S
C229 C228 1.443 . S
C230 N210 1.433 . S
C230 C231 1.363 . S
C230 C235 1.370 . S
C231 H199 0.929 . S
C231 C230 1.363 . S
C231 C232 1.385 . S
C232 H200 0.930 . S
C232 C231 1.385 . S
C232 C233 1.357 . S
C233 C232 1.357 . S
C233 C234 1.406 . S
C234 H201 0.929 . S
C234 C233 1.406 . S
C234 C235 1.391 . S
C235 H202 0.931 . S
C235 C230 1.370 . S
C235 C234 1.391 . S
C236 N210 1.435 . S
C236 C237 1.358 . S
C236 C241 1.371 . S
C237 H203 0.930 . S
C237 C236 1.358 . S
C237 C238 1.405 . S
C238 H204 0.932 . S
C238 C237 1.405 . S
C238 C239 1.383 . S
C239 C238 1.383 . S
C239 C240 1.393 . S
C240 H205 0.931 . S
C240 C239 1.393 . S
C240 C241 1.382 . S
C241 H206 0.929 . S
C241 C236 1.371 . S
C241 C240 1.382 . S
C242 N210 1.423 . S
C242 C243 1.362 . S
C242 C247 1.388 . S
C243 H207 0.929 . S
C243 C242 1.362 . S
C243 C244 1.376 . S
C244 H208 0.931 . S
C244 C243 1.376 . S
C244 C245 1.396 . S
C245 C227 1.472 1_655 S
C245 C244 1.396 . S
C245 C246 1.348 . S
C246 H209 0.929 . S
C246 C245 1.348 . S
C246 C247 1.443 . S
C247 H211 0.932 . S
C247 C242 1.388 . S
C247 C246 1.443 . S
H248 C275 0.929 . S
N249 C274 1.433 . S
N249 C280 1.435 . S
N249 C286 1.423 . S
H250 C276 0.930 . S
H251 C279 0.931 . S
H252 C278 0.929 . S
H253 C281 0.930 . S
H254 C282 0.932 . S
H255 C285 0.929 . S
H256 C284 0.931 . S
H257 C287 0.929 . S
H258 C291 0.932 . S
H259 C288 0.931 . S
H260 C290 0.929 . S
H261 C293 0.929 . S
H262 C294 0.930 . S
H263 C296 0.929 . S
H264 C297 0.931 . S
H265 C299 0.930 . S
H266 C300 0.932 . S
H267 C302 0.931 . S
H268 C303 0.929 . S
H269 C305 0.929 . S
H270 C306 0.932 . S
H271 C308 0.929 . S
N272 C292 1.433 . S
N272 C298 1.435 1_554 S
N272 C304 1.411 1_554 S
H273 C309 0.932 . S
C274 N249 1.433 . S
C274 C275 1.363 . S
C274 C279 1.370 . S
C275 H248 0.929 . S
C275 C274 1.363 . S
C275 C276 1.385 . S
C276 H250 0.930 . S
C276 C275 1.385 . S
C276 C277 1.357 1_556 S
C277 C276 1.357 1_554 S
C277 C278 1.406 . S
C278 H252 0.929 . S
C278 C277 1.406 . S
C278 C279 1.391 1_554 S
C279 H251 0.931 . S
C279 C274 1.370 . S
C279 C278 1.391 1_556 S
C280 N249 1.435 . S
C280 C281 1.358 . S
C280 C285 1.371 . S
C281 H253 0.930 . S
C281 C280 1.358 . S
C281 C282 1.405 . S
C282 H254 0.932 . S
C282 C281 1.405 . S
C282 C283 1.383 . S
C283 C282 1.383 . S
C283 C284 1.393 . S
C284 H256 0.931 . S
C284 C283 1.393 . S
C284 C285 1.382 . S
C285 H255 0.929 . S
C285 C280 1.371 . S
C285 C284 1.382 . S
C286 N249 1.423 . S
C286 C287 1.362 . S
C286 C291 1.388 . S
C287 H257 0.929 . S
C287 C286 1.362 . S
C287 C288 1.376 . S
C288 H259 0.931 . S
C288 C287 1.376 . S
C288 C289 1.396 . S
C289 C288 1.396 . S
C289 C290 1.348 . S
C289 C307 1.472 1_545 S
C290 H260 0.929 . S
C290 C289 1.348 . S
C290 C291 1.443 . S
C291 H258 0.932 . S
C291 C286 1.388 . S
C291 C290 1.443 . S
C292 N272 1.433 . S
C292 C293 1.363 . S
C292 C297 1.370 . S
C293 H261 0.929 . S
C293 C292 1.363 . S
C293 C294 1.385 . S
C294 H262 0.930 . S
C294 C293 1.385 . S
C294 C295 1.357 . S
C295 C294 1.357 . S
C295 C296 1.406 . S
C296 H263 0.929 . S
C296 C295 1.406 . S
C296 C297 1.391 . S
C297 H264 0.931 . S
C297 C292 1.370 . S
C297 C296 1.391 . S
C298 N272 1.435 1_556 S
C298 C299 1.358 1_556 S
C298 C303 1.371 . S
C299 H265 0.930 . S
C299 C298 1.358 1_554 S
C299 C300 1.405 1_554 S
C300 H266 0.932 . S
C300 C299 1.405 1_556 S
C300 C301 1.383 . S
C301 C300 1.383 . S
C301 C302 1.393 . S
C302 H267 0.931 . S
C302 C301 1.393 . S
C302 C303 1.382 . S
C303 H268 0.929 . S
C303 C298 1.371 . S
C303 C302 1.382 . S
C304 N272 1.411 1_556 S
C304 C305 1.351 1_556 S
C304 C309 1.412 . S
C305 H269 0.929 . S
C305 C304 1.351 1_554 S
C305 C306 1.377 . S
C306 H270 0.932 . S
C306 C305 1.377 . S
C306 C307 1.395 1_554 S
C307 C289 1.472 1_565 S
C307 C306 1.395 1_556 S
C307 C308 1.348 . S
C308 H271 0.929 . S
C308 C307 1.348 . S
C308 C309 1.443 . S
C309 H273 0.932 . S
C309 C304 1.412 . S
C309 C308 1.443 . S
H310 C337 0.929 . S
N311 C336 1.433 . S
N311 C342 1.435 . S
N311 C348 1.423 . S
H312 C338 0.930 . S
H313 C341 0.931 . S
H314 C340 0.929 . S
H315 C343 0.930 . S
H316 C344 0.932 . S
H317 C347 0.929 . S
H318 C346 0.931 . S
H319 C349 0.929 . S
H320 C353 0.932 . S
H321 C350 0.931 . S
H322 C352 0.929 . S
H323 C355 0.929 . S
H324 C356 0.930 . S
H325 C358 0.929 . S
H326 C359 0.931 . S
H327 C361 0.930 . S
H328 C362 0.932 . S
H329 C364 0.931 . S
H330 C365 0.929 . S
H331 C367 0.929 . S
H332 C368 0.931 . S
H333 C370 0.929 . S
N334 C354 1.433 . S
N334 C360 1.435 . S
N334 C366 1.423 . S
H335 C371 0.932 . S
C336 N311 1.433 . S
C336 C337 1.363 . S
C336 C341 1.370 . S
C337 H310 0.929 . S
C337 C336 1.363 . S
C337 C338 1.385 . S
C338 H312 0.930 . S
C338 C337 1.385 . S
C338 C339 1.357 . S
C339 C338 1.357 . S
C339 C340 1.406 . S
C340 H314 0.929 . S
C340 C339 1.406 . S
C340 C341 1.391 . S
C341 H313 0.931 . S
C341 C336 1.370 . S
C341 C340 1.391 . S
C342 N311 1.435 . S
C342 C343 1.358 . S
C342 C347 1.371 . S
C343 H315 0.930 . S
C343 C342 1.358 . S
C343 C344 1.405 . S
C344 H316 0.932 . S
C344 C343 1.405 . S
C344 C345 1.383 . S
C345 C344 1.383 . S
C345 C346 1.393 . S
C346 H318 0.931 . S
C346 C345 1.393 . S
C346 C347 1.382 . S
C347 H317 0.929 . S
C347 C342 1.371 . S
C347 C346 1.382 . S
C348 N311 1.423 . S
C348 C349 1.362 . S
C348 C353 1.388 . S
C349 H319 0.929 . S
C349 C348 1.362 . S
C349 C350 1.376 . S
C350 H321 0.931 . S
C350 C349 1.376 . S
C350 C351 1.396 . S
C351 C350 1.396 . S
C351 C352 1.348 . S
C351 C369 1.472 . S
C352 H322 0.929 . S
C352 C351 1.348 . S
C352 C353 1.443 . S
C353 H320 0.932 . S
C353 C348 1.388 . S
C353 C352 1.443 . S
C354 N334 1.433 . S
C354 C355 1.363 . S
C354 C359 1.370 . S
C355 H323 0.929 . S
C355 C354 1.363 . S
C355 C356 1.385 1_554 S
C356 H324 0.930 . S
C356 C355 1.385 1_556 S
C356 C357 1.357 . S
C357 C356 1.357 . S
C357 C358 1.406 . S
C358 H325 0.929 . S
C358 C357 1.406 . S
C358 C359 1.391 1_556 S
C359 H326 0.931 . S
C359 C354 1.370 . S
C359 C358 1.391 1_554 S
C360 N334 1.435 . S
C360 C361 1.358 . S
C360 C365 1.371 . S
C361 H327 0.930 . S
C361 C360 1.358 . S
C361 C362 1.405 . S
C362 H328 0.932 . S
C362 C361 1.405 . S
C362 C363 1.383 . S
C363 C362 1.383 . S
C363 C364 1.393 . S
C364 H329 0.931 . S
C364 C363 1.393 . S
C364 C365 1.382 . S
C365 H330 0.929 . S
C365 C360 1.371 . S
C365 C364 1.382 . S
C366 N334 1.423 . S
C366 C367 1.362 . S
C366 C371 1.388 . S
C367 H331 0.929 . S
C367 C366 1.362 . S
C367 C368 1.376 . S
C368 H332 0.931 . S
C368 C367 1.376 . S
C368 C369 1.396 . S
C369 C351 1.472 . S
C369 C368 1.396 . S
C369 C370 1.348 . S
C370 H333 0.929 . S
C370 C369 1.348 . S
C370 C371 1.443 . S
C371 H335 0.932 . S
C371 C366 1.388 . S
C371 C370 1.443 . S
Mn372 O377 2.095 . S
Mn372 O387 2.162 . S
Mn372 O388 2.297 . S
Mn372 O396 2.385 . S
Mn372 O397 2.209 . S
Mn372 O398 2.094 . S
Mn373 O378 2.121 . S
Mn373 N380 2.257 . S
Mn373 N389 2.282 . S
Mn373 O397 2.215 . S
Mn373 O399 2.117 . S
C374 O396 1.234 . S
C374 O397 1.283 . S
C375 O387 1.281 . S
C375 O388 1.236 . S
C376 O398 1.240 . S
C376 O399 1.264 . S
O377 Mn372 2.095 . S
O377 C386 1.250 . S
O378 Mn373 2.121 . S
O378 C386 1.258 . S
C379 N380 1.326 . S
C379 C383 1.460 . S
C379 H385 0.929 . S
N380 Mn373 2.257 . S
N380 C379 1.326 . S
N380 C384 1.362 . S
C381 C382 1.258 . S
C381 C384 1.431 . S
C381 C401 1.449 . S
C382 C381 1.258 . S
C382 C383 1.477 . S
C382 H402 0.931 . S
C383 C379 1.460 . S
C383 C382 1.477 . S
C383 H403 0.930 . S
C384 N380 1.362 . S
C384 C381 1.431 . S
C384 C394 1.476 . S
H385 C379 0.929 . S
C386 O377 1.250 . S
C386 O378 1.258 . S
O387 Mn372 2.162 . S
O387 C375 1.281 . S
O388 Mn372 2.297 . S
O388 C375 1.236 . S
N389 Mn373 2.282 . S
N389 C390 1.328 . S
N389 C394 1.318 . S
C390 N389 1.328 . S
C390 C391 1.457 . S
C390 H395 0.929 . S
C391 C390 1.457 . S
C391 C392 1.291 . S
C391 H404 0.931 . S
C392 C391 1.291 . S
C392 C393 1.373 . S
C392 H405 0.929 . S
C393 C392 1.373 . S
C393 C394 1.396 . S
C393 C400 1.403 . S
C394 C384 1.476 . S
C394 N389 1.318 . S
C394 C393 1.396 . S
H395 C390 0.929 . S
O396 Mn372 2.385 . S
O396 C374 1.234 . S
O397 Mn372 2.209 . S
O397 Mn373 2.215 . S
O397 C374 1.283 . S
O398 Mn372 2.094 . S
O398 C376 1.240 . S
O399 Mn373 2.117 . S
O399 C376 1.264 . S
C400 C393 1.403 . S
C400 C401 1.399 . S
C400 H406 0.929 . S
C401 C381 1.449 . S
C401 C400 1.399 . S
C401 H407 0.930 . S
H402 C382 0.931 . S
H403 C383 0.930 . S
H404 C391 0.931 . S
H405 C392 0.929 . S
H406 C400 0.929 . S
H407 C401 0.930 . S
Mn408 O413 2.095 . S
Mn408 O423 2.162 . S
Mn408 O424 2.297 . S
Mn408 O432 2.385 . S
Mn408 O433 2.209 . S
Mn408 O434 2.094 . S
Mn409 O414 2.121 . S
Mn409 N416 2.257 . S
Mn409 N425 2.282 . S
Mn409 O433 2.215 . S
Mn409 O435 2.117 . S
C410 O432 1.234 . S
C410 O433 1.283 . S
C411 O423 1.281 . S
C411 O424 1.236 . S
C412 O434 1.240 . S
C412 O435 1.264 . S
O413 Mn408 2.095 . S
O413 C422 1.250 . S
O414 Mn409 2.121 . S
O414 C422 1.258 . S
C415 N416 1.326 . S
C415 C419 1.460 . S
C415 H421 0.929 . S
N416 Mn409 2.257 . S
N416 C415 1.326 . S
N416 C420 1.362 . S
C417 C418 1.258 . S
C417 C420 1.431 . S
C417 C437 1.449 . S
C418 C417 1.258 . S
C418 C419 1.477 . S
C418 H438 0.931 . S
C419 C415 1.460 . S
C419 C418 1.477 . S
C419 H439 0.930 . S
C420 N416 1.362 . S
C420 C417 1.431 . S
C420 C430 1.476 . S
H421 C415 0.929 . S
C422 O413 1.250 . S
C422 O414 1.258 . S
O423 Mn408 2.162 . S
O423 C411 1.281 . S
O424 Mn408 2.297 . S
O424 C411 1.236 . S
N425 Mn409 2.282 . S
N425 C426 1.328 . S
N425 C430 1.318 . S
C426 N425 1.328 . S
C426 C427 1.457 . S
C426 H431 0.929 . S
C427 C426 1.457 . S
C427 C428 1.291 . S
C427 H440 0.931 . S
C428 C427 1.291 . S
C428 C429 1.373 . S
C428 H441 0.929 . S
C429 C428 1.373 . S
C429 C430 1.396 . S
C429 C436 1.403 . S
C430 C420 1.476 . S
C430 N425 1.318 . S
C430 C429 1.396 . S
H431 C426 0.929 . S
O432 Mn408 2.385 . S
O432 C410 1.234 . S
O433 Mn408 2.209 . S
O433 Mn409 2.215 . S
O433 C410 1.283 . S
O434 Mn408 2.094 . S
O434 C412 1.240 . S
O435 Mn409 2.117 . S
O435 C412 1.264 . S
C436 C429 1.403 . S
C436 C437 1.399 . S
C436 H442 0.929 . S
C437 C417 1.449 . S
C437 C436 1.399 . S
C437 H443 0.930 . S
H438 C418 0.931 . S
H439 C419 0.930 . S
H440 C427 0.931 . S
H441 C428 0.929 . S
H442 C436 0.929 . S
H443 C437 0.930 . S
Mn444 O449 2.095 . S
Mn444 O459 2.162 . S
Mn444 O460 2.297 . S
Mn444 O468 2.385 . S
Mn444 O469 2.209 . S
Mn444 O470 2.094 . S
Mn445 O450 2.121 . S
Mn445 N452 2.257 . S
Mn445 N461 2.282 . S
Mn445 O469 2.215 . S
Mn445 O471 2.117 . S
C446 O468 1.234 . S
C446 O469 1.283 . S
C447 O459 1.281 . S
C447 O460 1.236 . S
C448 O470 1.240 . S
C448 O471 1.264 . S
O449 Mn444 2.095 . S
O449 C458 1.250 . S
O450 Mn445 2.121 . S
O450 C458 1.258 . S
C451 N452 1.326 . S
C451 C455 1.460 . S
C451 H457 0.929 . S
N452 Mn445 2.257 . S
N452 C451 1.326 . S
N452 C456 1.362 . S
C453 C454 1.258 . S
C453 C456 1.431 . S
C453 C473 1.449 . S
C454 C453 1.258 . S
C454 C455 1.477 . S
C454 H474 0.931 . S
C455 C451 1.460 . S
C455 C454 1.477 . S
C455 H475 0.930 . S
C456 N452 1.362 . S
C456 C453 1.431 . S
C456 C466 1.476 . S
H457 C451 0.929 . S
C458 O449 1.250 . S
C458 O450 1.258 . S
O459 Mn444 2.162 . S
O459 C447 1.281 . S
O460 Mn444 2.297 . S
O460 C447 1.236 . S
N461 Mn445 2.282 . S
N461 C462 1.328 . S
N461 C466 1.318 . S
C462 N461 1.328 . S
C462 C463 1.457 . S
C462 H467 0.929 . S
C463 C462 1.457 . S
C463 C464 1.291 . S
C463 H476 0.931 . S
C464 C463 1.291 . S
C464 C465 1.373 . S
C464 H477 0.929 . S
C465 C464 1.373 . S
C465 C466 1.396 . S
C465 C472 1.403 . S
C466 C456 1.476 . S
C466 N461 1.318 . S
C466 C465 1.396 . S
H467 C462 0.929 . S
O468 Mn444 2.385 . S
O468 C446 1.234 . S
O469 Mn444 2.209 . S
O469 Mn445 2.215 . S
O469 C446 1.283 . S
O470 Mn444 2.094 . S
O470 C448 1.240 . S
O471 Mn445 2.117 . S
O471 C448 1.264 . S
C472 C465 1.403 . S
C472 C473 1.399 . S
C472 H478 0.929 . S
C473 C453 1.449 . S
C473 C472 1.399 . S
C473 H479 0.930 . S
H474 C454 0.931 . S
H475 C455 0.930 . S
H476 C463 0.931 . S
H477 C464 0.929 . S
H478 C472 0.929 . S
H479 C473 0.930 . S
Mn480 O485 2.095 . S
Mn480 O495 2.162 . S
Mn480 O496 2.297 . S
Mn480 O504 2.385 . S
Mn480 O505 2.209 . S
Mn480 O506 2.094 . S
Mn481 O486 2.121 . S
Mn481 N488 2.257 . S
Mn481 N497 2.282 . S
Mn481 O505 2.215 . S
Mn481 O507 2.117 . S
C482 O504 1.234 . S
C482 O505 1.283 . S
C483 O495 1.281 . S
C483 O496 1.236 . S
C484 O506 1.240 . S
C484 O507 1.264 . S
O485 Mn480 2.095 . S
O485 C494 1.250 . S
O486 Mn481 2.121 . S
O486 C494 1.258 . S
C487 N488 1.326 . S
C487 C491 1.460 . S
C487 H493 0.929 . S
N488 Mn481 2.257 . S
N488 C487 1.326 . S
N488 C492 1.362 . S
C489 C490 1.258 1_556 S
C489 C492 1.431 . S
C489 C509 1.449 1_556 S
C490 C489 1.258 1_554 S
C490 C491 1.477 1_554 S
C490 H510 0.931 . S
C491 C487 1.460 . S
C491 C490 1.477 1_556 S
C491 H511 0.930 . S
C492 N488 1.362 . S
C492 C489 1.431 . S
C492 C502 1.476 . S
H493 C487 0.929 . S
C494 O485 1.250 . S
C494 O486 1.258 . S
O495 Mn480 2.162 . S
O495 C483 1.281 . S
O496 Mn480 2.297 . S
O496 C483 1.236 . S
N497 Mn481 2.282 . S
N497 C498 1.328 . S
N497 C502 1.318 . S
C498 N497 1.328 . S
C498 C499 1.457 . S
C498 H503 0.929 . S
C499 C498 1.457 . S
C499 C500 1.291 . S
C499 H512 0.931 . S
C500 C499 1.291 . S
C500 C501 1.373 . S
C500 H513 0.929 . S
C501 C500 1.373 . S
C501 C502 1.396 . S
C501 C508 1.403 . S
C502 C492 1.476 . S
C502 N497 1.318 . S
C502 C501 1.396 . S
H503 C498 0.929 . S
O504 Mn480 2.385 . S
O504 C482 1.234 . S
O505 Mn480 2.209 . S
O505 Mn481 2.215 . S
O505 C482 1.283 . S
O506 Mn480 2.094 . S
O506 C484 1.240 . S
O507 Mn481 2.117 . S
O507 C484 1.264 . S
C508 C501 1.403 . S
C508 C509 1.399 1_556 S
C508 H514 0.929 1_556 S
C509 C489 1.449 1_554 S
C509 C508 1.399 1_554 S
C509 H515 0.930 . S
H510 C490 0.931 . S
H511 C491 0.930 . S
H512 C499 0.931 . S
H513 C500 0.929 . S
H514 C508 0.929 1_554 S
H515 C509 0.930 . S
Mn516 O521 2.095 . S
Mn516 O531 2.162 . S
Mn516 O532 2.297 . S
Mn516 O540 2.385 . S
Mn516 O541 2.209 . S
Mn516 O542 2.094 . S
Mn517 O522 2.121 . S
Mn517 N524 2.257 . S
Mn517 N533 2.282 . S
Mn517 O541 2.215 . S
Mn517 O543 2.117 . S
C518 O540 1.234 . S
C518 O541 1.283 . S
C519 O531 1.281 . S
C519 O532 1.236 . S
C520 O542 1.240 1_556 S
C520 O543 1.264 1_556 S
O521 Mn516 2.095 . S
O521 C530 1.250 . S
O522 Mn517 2.121 . S
O522 C530 1.258 . S
C523 N524 1.326 . S
C523 C527 1.460 . S
C523 H529 0.929 . S
N524 Mn517 2.257 . S
N524 C523 1.326 . S
N524 C528 1.362 . S
C525 C526 1.258 . S
C525 C528 1.431 . S
C525 C545 1.449 . S
C526 C525 1.258 . S
C526 C527 1.477 . S
C526 H546 0.931 . S
C527 C523 1.460 . S
C527 C526 1.477 . S
C527 H547 0.930 . S
C528 N524 1.362 . S
C528 C525 1.431 . S
C528 C538 1.476 . S
H529 C523 0.929 . S
C530 O521 1.250 . S
C530 O522 1.258 . S
O531 Mn516 2.162 . S
O531 C519 1.281 . S
O532 Mn516 2.297 . S
O532 C519 1.236 . S
N533 Mn517 2.282 . S
N533 C534 1.328 . S
N533 C538 1.318 . S
C534 N533 1.328 . S
C534 C535 1.457 . S
C534 H539 0.929 . S
C535 C534 1.457 . S
C535 C536 1.291 . S
C535 H548 0.931 . S
C536 C535 1.291 . S
C536 C537 1.373 . S
C536 H549 0.929 . S
C537 C536 1.373 . S
C537 C538 1.396 . S
C537 C544 1.403 . S
C538 C528 1.476 . S
C538 N533 1.318 . S
C538 C537 1.396 . S
H539 C534 0.929 . S
O540 Mn516 2.385 . S
O540 C518 1.234 . S
O541 Mn516 2.209 . S
O541 Mn517 2.215 . S
O541 C518 1.283 . S
O542 Mn516 2.094 . S
O542 C520 1.240 1_554 S
O543 Mn517 2.117 . S
O543 C520 1.264 1_554 S
C544 C537 1.403 . S
C544 C545 1.399 . S
C544 H550 0.929 . S
C545 C525 1.449 . S
C545 C544 1.399 . S
C545 H551 0.930 . S
H546 C526 0.931 . S
H547 C527 0.930 . S
H548 C535 0.931 . S
H549 C536 0.929 . S
H550 C544 0.929 . S
H551 C545 0.930 . S
Mn552 O557 2.095 . S
Mn552 O567 2.162 . S
Mn552 O568 2.297 . S
Mn552 O576 2.385 . S
Mn552 O577 2.209 . S
Mn552 O578 2.094 . S
Mn553 O558 2.121 . S
Mn553 N560 2.257 . S
Mn553 N569 2.282 . S
Mn553 O577 2.215 . S
Mn553 O579 2.117 . S
C554 O576 1.234 . S
C554 O577 1.283 . S
C555 O567 1.281 . S
C555 O568 1.236 . S
C556 O578 1.240 . S
C556 O579 1.264 . S
O557 Mn552 2.095 . S
O557 C566 1.250 . S
O558 Mn553 2.121 . S
O558 C566 1.258 . S
C559 N560 1.326 . S
C559 C563 1.460 . S
C559 H565 0.929 . S
N560 Mn553 2.257 . S
N560 C559 1.326 . S
N560 C564 1.362 . S
C561 C562 1.258 . S
C561 C564 1.431 . S
C561 C581 1.449 . S
C562 C561 1.258 . S
C562 C563 1.477 . S
C562 H582 0.931 . S
C563 C559 1.460 . S
C563 C562 1.477 . S
C563 H583 0.930 . S
C564 N560 1.362 . S
C564 C561 1.431 . S
C564 C574 1.476 . S
H565 C559 0.929 . S
C566 O557 1.250 . S
C566 O558 1.258 . S
O567 Mn552 2.162 . S
O567 C555 1.281 . S
O568 Mn552 2.297 . S
O568 C555 1.236 . S
N569 Mn553 2.282 . S
N569 C570 1.328 . S
N569 C574 1.318 . S
C570 N569 1.328 . S
C570 C571 1.457 . S
C570 H575 0.929 . S
C571 C570 1.457 . S
C571 C572 1.291 . S
C571 H584 0.931 . S
C572 C571 1.291 . S
C572 C573 1.373 . S
C572 H585 0.929 . S
C573 C572 1.373 . S
C573 C574 1.396 . S
C573 C580 1.403 . S
C574 C564 1.476 . S
C574 N569 1.318 . S
C574 C573 1.396 . S
H575 C570 0.929 . S
O576 Mn552 2.385 . S
O576 C554 1.234 . S
O577 Mn552 2.209 . S
O577 Mn553 2.215 . S
O577 C554 1.283 . S
O578 Mn552 2.094 . S
O578 C556 1.240 . S
O579 Mn553 2.117 . S
O579 C556 1.264 . S
C580 C573 1.403 . S
C580 C581 1.399 . S
C580 H586 0.929 . S
C581 C561 1.449 . S
C581 C580 1.399 . S
C581 H587 0.930 . S
H582 C562 0.931 . S
H583 C563 0.930 . S
H584 C571 0.931 . S
H585 C572 0.929 . S
H586 C580 0.929 . S
H587 C581 0.930 . S
C555 C29 2.101 . S
C115 C375 2.266 . S
C153 C422 1.993 . S
C239 C458 2.247 . S
C483 C301 2.063 . S
C339 C519 2.256 . S
C91 C411 1.960 . S
C177 C447 2.149 . S
C215 C494 2.088 . S
C530 C277 2.466 . S
C566 C363 2.295 . S
C386 C53 2.394 . S
C35 C410 1.702 . S
C109 C446 1.378 . S
C484 C159 1.868 . S
C233 C520 1.717 . S
C556 C295 1.330 . S
C376 C345 1.611 . S
C554 C97 1.808 . S
C171 C374 1.282 . S
C412 C221 1.742 . S
C283 C448 1.858 . S
C357 C482 1.382 . S
C47 C518 1.778 . S
