# Generated by pormake.
# Topology llj, (12,3)-cn, num edge types: 1
# Building blocks:
#     Node 0, Type 0, BuildingBlock: QEWDON_clean_sbu_0, # of connection points: 12
#     Node 1, Type 0, BuildingBlock: QEWDON_clean_sbu_0, # of connection points: 12
#     Node 2, Type 1, BuildingBlock: BETDIP_clean_linker_0, # of connection points: 3
#     Node 3, Type 1, BuildingBlock: BETDIP_clean_linker_0, # of connection points: 3
#     Node 4, Type 1, BuildingBlock: BETDIP_clean_linker_0, # of connection points: 3
#     Node 5, Type 1, BuildingBlock: BETDIP_clean_linker_0, # of connection points: 3
#     Node 6, Type 1, BuildingBlock: BETDIP_clean_linker_0, # of connection points: 3
#     Node 7, Type 1, BuildingBlock: BETDIP_clean_linker_0, # of connection points: 3
#     Node 8, Type 1, BuildingBlock: BETDIP_clean_linker_0, # of connection points: 3
#     Node 9, Type 1, BuildingBlock: BETDIP_clean_linker_0, # of connection points: 3
#     Edge 10, Type (0, 1), BuildingBlock: KIFKEQ_clean_linker_1, # of connection points: 2
#     Edge 11, Type (0, 1), BuildingBlock: KIFKEQ_clean_linker_1, # of connection points: 2
#     Edge 12, Type (0, 1), BuildingBlock: KIFKEQ_clean_linker_1, # of connection points: 2
#     Edge 13, Type (0, 1), BuildingBlock: KIFKEQ_clean_linker_1, # of connection points: 2
#     Edge 14, Type (0, 1), BuildingBlock: KIFKEQ_clean_linker_1, # of connection points: 2
#     Edge 15, Type (0, 1), BuildingBlock: KIFKEQ_clean_linker_1, # of connection points: 2
#     Edge 16, Type (0, 1), BuildingBlock: KIFKEQ_clean_linker_1, # of connection points: 2
#     Edge 17, Type (0, 1), BuildingBlock: KIFKEQ_clean_linker_1, # of connection points: 2
#     Edge 18, Type (0, 1), BuildingBlock: KIFKEQ_clean_linker_1, # of connection points: 2
#     Edge 19, Type (0, 1), BuildingBlock: KIFKEQ_clean_linker_1, # of connection points: 2
#     Edge 20, Type (0, 1), BuildingBlock: KIFKEQ_clean_linker_1, # of connection points: 2
#     Edge 21, Type (0, 1), BuildingBlock: KIFKEQ_clean_linker_1, # of connection points: 2
#     Edge 22, Type (0, 1), BuildingBlock: KIFKEQ_clean_linker_1, # of connection points: 2
#     Edge 23, Type (0, 1), BuildingBlock: KIFKEQ_clean_linker_1, # of connection points: 2
#     Edge 24, Type (0, 1), BuildingBlock: KIFKEQ_clean_linker_1, # of connection points: 2
#     Edge 25, Type (0, 1), BuildingBlock: KIFKEQ_clean_linker_1, # of connection points: 2
#     Edge 26, Type (0, 1), BuildingBlock: KIFKEQ_clean_linker_1, # of connection points: 2
#     Edge 27, Type (0, 1), BuildingBlock: KIFKEQ_clean_linker_1, # of connection points: 2
#     Edge 28, Type (0, 1), BuildingBlock: KIFKEQ_clean_linker_1, # of connection points: 2
#     Edge 29, Type (0, 1), BuildingBlock: KIFKEQ_clean_linker_1, # of connection points: 2
#     Edge 30, Type (0, 1), BuildingBlock: KIFKEQ_clean_linker_1, # of connection points: 2
#     Edge 31, Type (0, 1), BuildingBlock: KIFKEQ_clean_linker_1, # of connection points: 2
#     Edge 32, Type (0, 1), BuildingBlock: KIFKEQ_clean_linker_1, # of connection points: 2
#     Edge 33, Type (0, 1), BuildingBlock: KIFKEQ_clean_linker_1, # of connection points: 2
# Relax obj value: 0.010
# Max RMSD: 0.103
# Mean RMSD: 0.088
data_MOF--net-llj--node1-QEWDON_clean_sbu_0--node2-BETDIP_clean_linker_0--edge1-KIFKEQ_clean_linker_1
_symmetry_space_group_name_H-M    P1
_symmetry_Int_Tables_number       1
_symmetry_cell_setting            triclinic
loop_
_symmetry_equiv_pos_as_xyz
'x, y, z'
_cell_length_a     40.106589
_cell_length_b     40.094427
_cell_length_c     24.963171
_cell_angle_alpha  90.485323
_cell_angle_beta   91.086342
_cell_angle_gamma 90.375466
loop_
_atom_site_label
_atom_site_type_symbol
_atom_site_fract_x
_atom_site_fract_y
_atom_site_fract_z
_atom_type_partial_charge
Zn0 Zn 0.93948 0.09099 0.95147 0.0
Zn1 Zn 0.93916 0.07396 0.07654 0.0
O2 O 0.96779 0.07361 0.01222 0.0
H3 H 0.98746 0.0603 0.00704 0.0
C4 C 0.92652 0.01088 0.88612 0.0
O5 O 0.91341 0.01838 0.9325 0.0
Zn6 Zn 0.0582 0.9346 0.07465 0.0
Zn7 Zn 0.05857 0.92756 0.94734 0.0
O8 O 0.02898 0.9374 0.00956 0.0
H9 H 0.00887 0.95033 0.00592 0.0
Zn10 Zn 0.94625 0.95624 0.95068 0.0
O11 O 0.95299 0.98388 0.01792 0.0
Zn12 Zn 0.94264 0.95298 0.07727 0.0
H13 H 0.9689 0.00202 0.02035 0.0
Zn14 Zn 0.06612 0.04922 0.95885 0.0
O15 O 0.04739 0.02539 0.02218 0.0
H16 H 0.02996 0.00872 0.01925 0.0
Zn17 Zn 0.05618 0.05471 0.08582 0.0
C18 C 0.0902 0.99345 0.89539 0.0
O19 O 0.10155 0.98426 0.9427 0.0
O20 O 0.89631 0.1135 0.97475 0.0
O21 O 0.89667 0.10116 0.06158 0.0
O22 O 0.10086 0.90205 0.96895 0.0
O23 O 0.10002 0.90768 0.05771 0.0
O24 O 0.91372 0.91703 0.96076 0.0
O25 O 0.90981 0.91669 0.04965 0.0
C26 C 0.99746 0.08936 0.1398 0.0
O27 O 0.09802 0.08776 0.97925 0.0
O28 O 0.09104 0.09058 0.06747 0.0
O29 O 0.03402 0.91535 0.87656 0.0
C30 C 0.88308 0.11499 0.02072 0.0
O31 O 0.96467 0.10769 0.88565 0.0
C32 C 0.00107 0.91781 0.13517 0.0
O33 O 0.94255 0.98383 0.88151 0.0
C34 C 0.11359 0.89665 0.0152 0.0
O35 O 0.07454 0.02077 0.89124 0.0
C36 C 0.92333 0.01165 0.13673 0.0
O37 O 0.96609 0.09395 0.13858 0.0
O38 O 0.01044 0.07326 0.1015 0.0
C39 C 0.9015 0.90507 0.00334 0.0
O40 O 0.03238 0.91309 0.13437 0.0
O41 O 0.98782 0.93434 0.09725 0.0
C42 C 0.07411 0.99475 0.14181 0.0
O43 O 0.92511 0.98002 0.14027 0.0
O44 O 0.92998 0.0253 0.0924 0.0
C45 C 0.10494 0.10085 0.02488 0.0
O46 O 0.0722 0.02619 0.14838 0.0
O47 O 0.0676 0.98245 0.09572 0.0
C48 C 0.00485 0.90318 0.88039 0.0
O49 O 0.99247 0.89873 0.92818 0.0
C50 C 0.98776 0.0889 0.86924 0.0
O51 O 0.99349 0.0607 0.89413 0.0
Zn52 Zn 0.44546 0.57762 0.43272 0.0
Zn53 Zn 0.44144 0.57116 0.55997 0.0
O54 O 0.4728 0.56845 0.49903 0.0
H55 H 0.49282 0.55529 0.4976 0.0
C56 C 0.41292 0.512 0.37731 0.0
O57 O 0.40091 0.52096 0.42384 0.0
Zn58 Zn 0.55905 0.42811 0.56998 0.0
Zn59 Zn 0.56204 0.41477 0.4431 0.0
O60 O 0.53198 0.4297 0.50207 0.0
H61 H 0.51243 0.44312 0.49565 0.0
Zn62 Zn 0.43613 0.45602 0.44063 0.0
O63 O 0.45353 0.48002 0.50626 0.0
Zn64 Zn 0.44349 0.45049 0.56765 0.0
H65 H 0.47122 0.49645 0.50579 0.0
Zn66 Zn 0.55769 0.5496 0.45317 0.0
O67 O 0.54737 0.52007 0.5159 0.0
H68 H 0.53194 0.50151 0.51356 0.0
Zn69 Zn 0.55527 0.54928 0.57951 0.0
C70 C 0.5789 0.49654 0.38677 0.0
O71 O 0.59104 0.48831 0.43407 0.0
O72 O 0.4022 0.60253 0.44845 0.0
O73 O 0.39952 0.59728 0.53706 0.0
O74 O 0.60465 0.39206 0.46983 0.0
O75 O 0.60206 0.4013 0.55778 0.0
O76 O 0.40445 0.41705 0.45638 0.0
O77 O 0.40908 0.41458 0.54531 0.0
C78 C 0.49675 0.58774 0.62762 0.0
O79 O 0.59084 0.58745 0.47289 0.0
O80 O 0.59024 0.58462 0.56196 0.0
O81 O 0.53892 0.39907 0.37276 0.0
C82 C 0.38751 0.60787 0.49251 0.0
O83 O 0.47184 0.58776 0.36438 0.0
C84 C 0.49954 0.41371 0.62537 0.0
O85 O 0.42855 0.48467 0.37352 0.0
C86 C 0.61673 0.38898 0.51709 0.0
O87 O 0.56308 0.52373 0.38215 0.0
C88 C 0.42537 0.51056 0.62387 0.0
O89 O 0.46568 0.59345 0.62318 0.0
O90 O 0.51005 0.56929 0.59252 0.0
C91 C 0.39648 0.40403 0.5008 0.0
O92 O 0.53062 0.40763 0.62778 0.0
O93 O 0.48831 0.43063 0.58636 0.0
C94 C 0.57202 0.48933 0.63721 0.0
O95 O 0.42722 0.47909 0.62955 0.0
O96 O 0.43211 0.52304 0.57871 0.0
C97 C 0.6012 0.59747 0.51894 0.0
O98 O 0.56961 0.52081 0.64286 0.0
O99 O 0.56734 0.47648 0.59089 0.0
C100 C 0.51633 0.41811 0.35451 0.0
O101 O 0.50991 0.44592 0.38047 0.0
C102 C 0.50134 0.59898 0.37112 0.0
O103 O 0.51291 0.60408 0.42012 0.0
H104 H 0.32536 0.31547 0.90921 0.0
H105 H 0.33655 0.31666 0.08126 0.0
H106 H 0.40483 0.37177 0.98565 0.0
H107 H 0.30987 0.26814 0.07553 0.0
C108 C 0.29267 0.26975 0.04157 0.0
C109 C 0.33855 0.32389 0.94517 0.0
C110 C 0.36591 0.34579 0.94138 0.0
C111 C 0.32814 0.31256 0.99529 0.0
C112 C 0.34495 0.32396 0.04214 0.0
C113 C 0.37239 0.34571 0.0388 0.0
C114 C 0.38275 0.35617 0.98838 0.0
N115 N 0.30052 0.29013 -0.00293 0.0
H116 H 0.64478 0.31081 0.92997 0.0
H117 H 0.64216 0.31195 0.10212 0.0
H118 H 0.5906 0.38722 0.01296 0.0
H119 H 0.69112 0.28792 0.09563 0.0
C120 C 0.69038 0.27248 0.05971 0.0
C121 C 0.63608 0.32186 0.96688 0.0
C122 C 0.61557 0.35021 0.96529 0.0
C123 C 0.64649 0.30827 0.01592 0.0
C124 C 0.63524 0.32258 0.06387 0.0
C125 C 0.61505 0.35103 0.06302 0.0
C126 C 0.60501 0.36444 0.01365 0.0
N127 N 0.66916 0.28109 0.01565 0.0
H128 H 0.67196 0.69196 0.08639 0.0
H129 H 0.66774 0.69911 0.9144 0.0
H130 H 0.59159 0.64527 -0.00349 0.0
H131 H 0.72348 0.71048 0.92596 0.0
C132 C 0.72481 0.72496 0.9629 0.0
C133 C 0.65964 0.68598 0.04847 0.0
C134 C 0.63028 0.66671 0.04732 0.0
C135 C 0.67369 0.69737 0.00097 0.0
C136 C 0.65787 0.68968 0.95141 0.0
C137 C 0.62805 0.67103 0.94985 0.0
C138 C 0.61464 0.65957 -0.00218 0.0
N139 N 0.70267 0.7179 0.00515 0.0
H140 H 0.34172 0.6894 0.91214 0.0
H141 H 0.34016 0.68309 0.084 0.0
H142 H 0.39729 0.61303 0.99374 0.0
H143 H 0.29013 0.70547 0.07231 0.0
C144 C 0.29292 0.72317 0.04001 0.0
C145 C 0.34992 0.67753 0.9489 0.0
C146 C 0.37127 0.64989 0.94698 0.0
C147 C 0.33824 0.68947 -0.002 0.0
C148 C 0.34877 0.67404 0.04579 0.0
C149 C 0.36984 0.64625 0.04452 0.0
C150 C 0.38127 0.63467 0.99501 0.0
N151 N 0.31542 0.71648 -0.00206 0.0
H152 H 0.83321 0.80393 0.41333 0.0
H153 H 0.83745 0.80531 0.58602 0.0
H154 H 0.91506 0.85216 0.49712 0.0
H155 H 0.81136 0.75619 0.57504 0.0
C156 C 0.79404 0.75982 0.54168 0.0
C157 C 0.84557 0.81132 0.4506 0.0
C158 C 0.87583 0.82908 0.44967 0.0
C159 C 0.83205 0.8016 0.49956 0.0
C160 C 0.84807 0.8116 0.54787 0.0
C161 C 0.8782 0.82955 0.54721 0.0
C162 C 0.89195 0.83797 0.49797 0.0
N163 N 0.80279 0.78133 0.49905 0.0
H164 H 0.16518 0.82164 0.59987 0.0
H165 H 0.15918 0.81551 0.42788 0.0
H166 H 0.10751 0.89318 0.51095 0.0
H167 H 0.17348 0.76153 0.44207 0.0
C168 C 0.1902 0.76261 0.47678 0.0
C169 C 0.15513 0.83077 0.56218 0.0
C170 C 0.13501 0.85928 0.56134 0.0
C171 C 0.16344 0.81436 0.51458 0.0
C172 C 0.15192 0.82707 0.46516 0.0
C173 C 0.13155 0.85549 0.46368 0.0
C174 C 0.12292 0.87107 0.51196 0.0
N175 N 0.18516 0.78656 0.51805 0.0
H176 H 0.16926 0.18726 0.60411 0.0
H177 H 0.16924 0.19479 0.43195 0.0
H178 H 0.09039 0.14206 0.50906 0.0
H179 H 0.22534 0.20186 0.44725 0.0
C180 C 0.22616 0.21747 0.48304 0.0
C181 C 0.15787 0.18155 0.56536 0.0
C182 C 0.12824 0.16276 0.5621 0.0
C183 C 0.17335 0.19257 0.51876 0.0
C184 C 0.15842 0.18543 0.46829 0.0
C185 C 0.12826 0.16749 0.46488 0.0
C186 C 0.11364 0.15601 0.51178 0.0
N187 N 0.20288 0.21218 0.52434 0.0
H188 H 0.85265 0.19159 0.42908 0.0
H189 H 0.85894 0.19298 0.60122 0.0
H190 H 0.90921 0.11678 0.51318 0.0
H191 H 0.80822 0.21439 0.59295 0.0
C192 C 0.8089 0.23042 0.55815 0.0
C193 C 0.86225 0.18113 0.46613 0.0
C194 C 0.88293 0.1529 0.46493 0.0
C195 C 0.85278 0.19533 0.51501 0.0
C196 C 0.86518 0.18183 0.56313 0.0
C197 C 0.88557 0.15354 0.56269 0.0
C198 C 0.89465 0.13946 0.51351 0.0
N199 N 0.82985 0.22228 0.51458 0.0
H200 H 0.12585 0.13679 0.11371 0.0
H201 H 0.14171 0.12627 0.94358 0.0
H202 H 0.16904 0.17997 0.11878 0.0
H203 H 0.18518 0.1686 0.94897 0.0
H204 H 0.27593 0.22392 0.11548 0.0
H205 H 0.22892 0.18491 0.11279 0.0
H206 H 0.19516 0.22714 0.96269 0.0
H207 H 0.24266 0.26547 0.96487 0.0
C208 C 0.13849 0.14365 0.07742 0.0
C209 C 0.13031 0.12794 0.02828 0.0
C210 C 0.16338 0.1683 0.08037 0.0
C211 C 0.18065 0.17777 0.03429 0.0
C212 C 0.17209 0.16235 0.98512 0.0
C213 C 0.14724 0.13783 0.98213 0.0
C214 C 0.25834 0.22486 0.08204 0.0
C215 C 0.2631 0.24747 0.04022 0.0
C216 C 0.23127 0.20271 0.08067 0.0
C217 C 0.20827 0.20277 0.03743 0.0
C218 C 0.21269 0.22602 -0.00384 0.0
C219 C 0.23984 0.2481 -0.00251 0.0
H220 H 0.84941 0.14999 0.94374 0.0
H221 H 0.84628 0.12404 0.11136 0.0
H222 H 0.80087 0.18504 0.95428 0.0
H223 H 0.79685 0.15855 0.1215 0.0
H224 H 0.73909 0.25772 0.13165 0.0
H225 H 0.78342 0.21681 0.12318 0.0
H226 H 0.74216 0.18565 0.96938 0.0
H227 H 0.6984 0.22735 0.97737 0.0
C228 C 0.83814 0.15141 0.98278 0.0
C229 C 0.85197 0.13434 0.02681 0.0
C230 C 0.81005 0.17137 0.9887 0.0
C231 C 0.7949 0.1747 0.03875 0.0
C232 C 0.80818 0.15693 0.08254 0.0
C233 C 0.83642 0.137 0.07666 0.0
C234 C 0.73945 0.24195 0.0962 0.0
C235 C 0.71555 0.24589 0.05501 0.0
C236 C 0.76469 0.21832 0.09149 0.0
C237 C 0.76647 0.19796 0.04551 0.0
C238 C 0.74186 0.20129 0.00494 0.0
C239 C 0.71669 0.22508 0.00958 0.0
H240 H 0.87201 0.88015 0.91181 0.0
H241 H 0.87491 0.86742 0.08361 0.0
H242 H 0.83014 0.83637 0.90322 0.0
H243 H 0.83374 0.82256 0.0748 0.0
H244 H 0.73296 0.77061 0.04477 0.0
H245 H 0.77629 0.81311 0.05491 0.0
H246 H 0.82119 0.77824 0.9088 0.0
H247 H 0.77692 0.73651 0.8978 0.0
C248 C 0.86394 0.8678 0.9478 0.0
C249 C 0.87675 0.87748 -0.00153 0.0
C250 C 0.84003 0.84243 0.9428 0.0
C251 C 0.82847 0.82578 0.98827 0.0
C252 C 0.84162 0.83516 0.03894 0.0
C253 C 0.86539 0.86079 0.04401 0.0
C254 C 0.75213 0.77197 0.01489 0.0
C255 C 0.75159 0.75026 0.97038 0.0
C256 C 0.77716 0.79624 0.02089 0.0
C257 C 0.80237 0.79922 0.98273 0.0
C258 C 0.80193 0.77711 0.93856 0.0
C259 C 0.77671 0.75305 0.93234 0.0
H260 H 0.14674 0.86599 0.93402 0.0
H261 H 0.14844 0.87917 0.10617 0.0
H262 H 0.19244 0.82677 0.9414 0.0
H263 H 0.19499 0.84053 0.11334 0.0
H264 H 0.24319 0.73653 0.10808 0.0
H265 H 0.20262 0.78144 0.10331 0.0
H266 H 0.25059 0.81963 0.96261 0.0
H267 H 0.29061 0.77402 0.96671 0.0
C268 C 0.15716 0.8609 0.97344 0.0
C269 C 0.14363 0.87548 0.01957 0.0
C270 C 0.18359 0.83854 0.97761 0.0
C271 C 0.19729 0.83031 0.02799 0.0
C272 C 0.18462 0.84587 0.07398 0.0
C273 C 0.15806 0.86818 0.06985 0.0
C274 C 0.24509 0.75465 0.07631 0.0
C275 C 0.2698 0.75167 0.03758 0.0
C276 C 0.22204 0.78055 0.07379 0.0
C277 C 0.22332 0.80419 0.03257 0.0
C278 C 0.24862 0.80159 0.99445 0.0
C279 C 0.27162 0.77554 -0.00311 0.0
H280 H 0.62538 0.62968 0.6089 0.0
H281 H 0.63562 0.62541 0.43688 0.0
H282 H 0.66956 0.67158 0.61478 0.0
H283 H 0.68046 0.66646 0.44299 0.0
H284 H 0.74309 0.76036 0.46618 0.0
H285 H 0.69419 0.72371 0.46184 0.0
H286 H 0.72867 0.67424 0.60561 0.0
H287 H 0.77684 0.71153 0.61062 0.0
C288 C 0.63706 0.63763 0.57233 0.0
C289 C 0.62708 0.62398 0.52246 0.0
C290 C 0.66253 0.66156 0.57573 0.0
C291 C 0.67877 0.67227 0.5294 0.0
C292 C 0.66827 0.65913 0.47943 0.0
C293 C 0.64267 0.63537 0.47598 0.0
C294 C 0.74007 0.74174 0.49693 0.0
C295 C 0.76377 0.73862 0.53867 0.0
C296 C 0.71214 0.72063 0.49434 0.0
C297 C 0.70747 0.69594 0.53333 0.0
C298 C 0.73111 0.69326 0.57538 0.0
C299 C 0.75886 0.71444 0.57807 0.0
H300 H 0.34883 0.62635 0.57739 0.0
H301 H 0.35583 0.63469 0.40536 0.0
H302 H 0.29922 0.66135 0.57521 0.0
H303 H 0.30709 0.67018 0.4035 0.0
H304 H 0.23898 0.75843 0.55517 0.0
H305 H 0.28481 0.71893 0.56001 0.0
H306 H 0.24796 0.67079 0.41483 0.0
H307 H 0.20257 0.71104 0.40934 0.0
C308 C 0.33981 0.63556 0.53914 0.0
C309 C 0.35646 0.62778 0.49162 0.0
C310 C 0.31148 0.6558 0.53793 0.0
C311 C 0.29917 0.66869 0.48919 0.0
C312 C 0.31552 0.66035 0.44166 0.0
C313 C 0.34371 0.64014 0.44283 0.0
C314 C 0.24056 0.73932 0.52442 0.0
C315 C 0.21728 0.73785 0.48167 0.0
C316 C 0.26674 0.7165 0.5274 0.0
C317 C 0.27016 0.69167 0.48779 0.0
C318 C 0.24639 0.68989 0.44561 0.0
C319 C 0.2203 0.7128 0.44255 0.0
H320 H 0.37585 0.36614 0.58544 0.0
H321 H 0.36186 0.37838 0.41458 0.0
H322 H 0.33616 0.31965 0.58307 0.0
H323 H 0.32183 0.33276 0.41257 0.0
H324 H 0.23516 0.26382 0.56395 0.0
H325 H 0.27712 0.30809 0.56962 0.0
H326 H 0.31889 0.2733 0.42107 0.0
H327 H 0.2763 0.2296 0.41481 0.0
C328 C 0.36426 0.35904 0.54746 0.0
C329 C 0.37214 0.376 0.5002 0.0
C330 C 0.34139 0.33248 0.54614 0.0
C331 C 0.3259 0.32235 0.49757 0.0
C332 C 0.33373 0.33944 0.45049 0.0
C333 C 0.35658 0.36584 0.45176 0.0
C334 C 0.2534 0.26555 0.53264 0.0
C335 C 0.25244 0.24337 0.48872 0.0
C336 C 0.27758 0.29082 0.53606 0.0
C337 C 0.3013 0.29439 0.49568 0.0
C338 C 0.30066 0.27165 0.4524 0.0
C339 C 0.27643 0.2465 0.44892 0.0
H340 H 0.65174 0.35639 0.44026 0.0
H341 H 0.65203 0.37724 0.6105 0.0
H342 H 0.70013 0.32117 0.452 0.0
H343 H 0.70146 0.34258 0.62202 0.0
H344 H 0.80178 0.2778 0.47978 0.0
H345 H 0.75829 0.3199 0.47232 0.0
H346 H 0.7155 0.28466 0.61928 0.0
H347 H 0.75966 0.24342 0.62743 0.0
C348 C 0.66237 0.35383 0.48021 0.0
C349 C 0.64777 0.36951 0.52451 0.0
C350 C 0.6904 0.33377 0.48687 0.0
C351 C 0.70478 0.32896 0.53796 0.0
C352 C 0.69074 0.34535 0.58218 0.0
C353 C 0.6625 0.36537 0.57555 0.0
C354 C 0.78321 0.27925 0.51062 0.0
C355 C 0.78386 0.2572 0.55399 0.0
C356 C 0.75818 0.30328 0.50628 0.0
C357 C 0.73319 0.30558 0.54502 0.0
C358 C 0.73451 0.28397 0.58908 0.0
C359 C 0.75965 0.26015 0.59356 0.0
H360 H 0.97994 0.09083 0.2442 0.0
H361 H 0.05952 0.1168 0.13867 0.0
H362 H 0.01291 0.1116 0.32068 0.0
H363 H 0.09282 0.13785 0.21468 0.0
H364 H 0.15386 0.13877 0.37502 0.0
H365 H 0.1228 0.12036 0.29455 0.0
H366 H 0.03295 0.16316 0.35809 0.0
H367 H 0.06384 0.18063 0.43853 0.0
C368 C 0.00462 0.1009 0.23749 0.0
C369 C 0.01769 0.10146 0.18583 0.0
C370 C 0.02345 0.11301 0.28113 0.0
C371 C 0.05557 0.12642 0.27383 0.0
C372 C 0.06849 0.12708 0.2219 0.0
C373 C 0.04965 0.11475 0.17837 0.0
C374 C 0.1276 0.14463 0.37111 0.0
C375 C 0.11111 0.16078 0.41294 0.0
C376 C 0.10979 0.1341 0.32519 0.0
C377 C 0.07525 0.1398 0.32031 0.0
C378 C 0.05929 0.15755 0.36116 0.0
C379 C 0.077 0.1678 0.40702 0.0
H380 H 0.94514 0.00156 0.23937 0.0
H381 H 0.88583 0.06747 0.14176 0.0
H382 H 0.93602 0.03743 0.31753 0.0
H383 H 0.87794 0.10433 0.21865 0.0
H384 H 0.83922 0.13882 0.38244 0.0
H385 H 0.84895 0.10504 0.30278 0.0
H386 H 0.9519 0.09274 0.35234 0.0
H387 H 0.94209 0.12652 0.43232 0.0
C388 C 0.93026 0.02384 0.23468 0.0
C389 C 0.91673 0.0323 0.18441 0.0
C390 C 0.92533 0.04456 0.27918 0.0
C391 C 0.90656 0.07397 0.27421 0.0
C392 C 0.89251 0.08191 0.22394 0.0
C393 C 0.89746 0.06118 0.17965 0.0
C394 C 0.86409 0.12947 0.37584 0.0
C395 C 0.88987 0.13535 0.41371 0.0
C396 C 0.86966 0.11 0.33024 0.0
C397 C 0.90115 0.09597 0.32141 0.0
C398 C 0.9272 0.10264 0.35851 0.0
C399 C 0.92162 0.1221 0.40416 0.0
H400 H 0.02303 0.90541 0.23668 0.0
H401 H 0.93504 0.90098 0.13509 0.0
H402 H 0.99134 0.88306 0.31053 0.0
H403 H 0.90332 0.8774 0.20789 0.0
H404 H 0.84977 0.8669 0.369 0.0
H405 H 0.87936 0.8889 0.29193 0.0
H406 H 0.96687 0.8331 0.33946 0.0
H407 H 0.93761 0.81259 0.41732 0.0
C408 C 0.99687 0.8995 0.23005 0.0
C409 C 0.98138 0.90509 0.18007 0.0
C410 C 0.9787 0.88643 0.27226 0.0
C411 C 0.94473 0.87807 0.26518 0.0
C412 C 0.92926 0.88394 0.21516 0.0
C413 C 0.94739 0.89747 0.17324 0.0
C414 C 0.87516 0.85909 0.36221 0.0
C415 C 0.89156 0.83825 0.39886 0.0
C416 C 0.89216 0.87163 0.31817 0.0
C417 C 0.92573 0.86318 0.3098 0.0
C418 C 0.9414 0.84093 0.34536 0.0
C419 C 0.92458 0.82884 0.3896 0.0
H420 H 0.11144 0.93873 0.14185 0.0
H421 H 0.0545 0.00225 0.24525 0.0
H422 H 0.12251 0.90093 0.216 0.0
H423 H 0.06686 0.96547 0.32069 0.0
H424 H 0.06976 0.87822 0.43449 0.0
H425 H 0.05456 0.91009 0.35482 0.0
H426 H 0.15517 0.90038 0.29797 0.0
H427 H 0.17013 0.86821 0.3772 0.0
C428 C 0.10088 0.94422 0.18034 0.0
C429 C 0.08149 0.9728 0.18755 0.0
C430 C 0.10767 0.92295 0.2231 0.0
C431 C 0.09544 0.93005 0.2743 0.0
C432 C 0.07619 0.95894 0.28158 0.0
C433 C 0.0694 0.9802 0.23863 0.0
C434 C 0.08849 0.88267 0.40464 0.0
C435 C 0.12116 0.87084 0.41214 0.0
C436 C 0.07986 0.90107 0.35921 0.0
C437 C 0.10375 0.90814 0.32034 0.0
C438 C 0.13607 0.89513 0.32685 0.0
C439 C 0.14466 0.87663 0.37221 0.0
H440 H 0.06511 0.00257 0.79421 0.0
H441 H 0.12727 0.93657 0.88808 0.0
H442 H 0.07469 0.9687 0.71478 0.0
H443 H 0.1368 0.90256 0.80827 0.0
H444 H 0.11858 0.83398 0.65933 0.0
H445 H 0.10667 0.86522 0.74139 0.0
H446 H 0.12374 0.95766 0.65836 0.0
H447 H 0.13601 0.92669 0.577 0.0
C448 C 0.08079 0.98084 0.79798 0.0
C449 C 0.0955 0.97235 0.8475 0.0
C450 C 0.08632 0.96146 0.7524 0.0
C451 C 0.10663 0.9331 0.7553 0.0
C452 C 0.12079 0.92413 0.80498 0.0
C453 C 0.11539 0.94366 0.85062 0.0
C454 C 0.11999 0.86096 0.6588 0.0
C455 C 0.12793 0.87786 0.61152 0.0
C456 C 0.11315 0.8788 0.70569 0.0
C457 C 0.11401 0.91385 0.70607 0.0
C458 C 0.12222 0.93067 0.65897 0.0
C459 C 0.12919 0.91291 0.61233 0.0
H460 H 0.03571 0.05251 0.82075 0.0
H461 H 0.98661 0.14796 0.81528 0.0
H462 H 0.07258 0.06996 0.74959 0.0
H463 H 0.02288 0.16519 0.74306 0.0
H464 H 0.11524 0.19783 0.65363 0.0
H465 H 0.08219 0.17937 0.72938 0.0
H466 H 0.06939 0.08254 0.65419 0.0
H467 H 0.10311 0.10067 0.57955 0.0
C468 C 0.03284 0.07721 0.80434 0.0
C469 C 0.00864 0.099 0.82408 0.0
C470 C 0.05378 0.08715 0.76336 0.0
C471 C 0.05085 0.11909 0.74114 0.0
C472 C 0.02619 0.14068 0.7602 0.0
C473 C 0.00524 0.13071 0.80121 0.0
C474 C 0.10587 0.17244 0.65394 0.0
C475 C 0.11155 0.15073 0.61071 0.0
C476 C 0.08663 0.162 0.69687 0.0
C477 C 0.07293 0.12962 0.69741 0.0
C478 C 0.07972 0.10757 0.65507 0.0
C479 C 0.09883 0.11802 0.61219 0.0
H480 H 0.95418 0.00545 0.78704 0.0
H481 H 0.89117 0.0686 0.88246 0.0
H482 H 0.947 0.04302 0.71147 0.0
H483 H 0.88508 0.10675 0.80786 0.0
H484 H 0.8442 0.1388 0.644 0.0
H485 H 0.85644 0.10655 0.72374 0.0
H486 H 0.95913 0.09746 0.67618 0.0
H487 H 0.9464 0.12923 0.59504 0.0
C488 C 0.93895 0.02744 0.79196 0.0
C489 C 0.92292 0.03386 0.8405 0.0
C490 C 0.93516 0.04919 0.74886 0.0
C491 C 0.91531 0.07783 0.75349 0.0
C492 C 0.90002 0.0846 0.80257 0.0
C493 C 0.90361 0.06277 0.84544 0.0
C494 C 0.86952 0.13041 0.65101 0.0
C495 C 0.89437 0.13657 0.61344 0.0
C496 C 0.87659 0.11195 0.69682 0.0
C497 C 0.90878 0.09939 0.70642 0.0
C498 C 0.93395 0.10633 0.66952 0.0
C499 C 0.92674 0.12461 0.62328 0.0
H500 H 0.94308 0.8742 0.87544 0.0
H501 H 0.02246 0.91033 0.77594 0.0
H502 H 0.91181 0.85608 0.79571 0.0
H503 H 0.9908 0.89294 0.69621 0.0
H504 H 0.94427 0.82303 0.57124 0.0
H505 H 0.97413 0.84141 0.65215 0.0
H506 H 0.8818 0.877 0.7177 0.0
H507 H 0.85185 0.85816 0.63666 0.0
C508 C 0.95376 0.87848 0.83654 0.0
C509 C 0.98535 0.89345 0.83198 0.0
C510 C 0.93573 0.86827 0.79084 0.0
C511 C 0.9489 0.87288 0.73966 0.0
C512 C 0.98023 0.88847 0.73513 0.0
C513 C 0.99829 0.89861 0.7808 0.0
C514 C 0.9304 0.83487 0.60292 0.0
C515 C 0.89579 0.83934 0.59763 0.0
C516 C 0.9475 0.8455 0.64916 0.0
C517 C 0.93039 0.86095 0.69113 0.0
C518 C 0.89564 0.86491 0.68626 0.0
C519 C 0.87849 0.85413 0.63995 0.0
H520 H 0.47889 0.59047 0.73182 0.0
H521 H 0.55763 0.61757 0.62547 0.0
H522 H 0.51148 0.61256 0.80786 0.0
H523 H 0.59049 0.64009 0.70091 0.0
H524 H 0.65299 0.64318 0.85878 0.0
H525 H 0.62144 0.62401 0.77939 0.0
H526 H 0.53111 0.66331 0.8468 0.0
H527 H 0.56256 0.68145 0.92634 0.0
C528 C 0.50328 0.60116 0.72487 0.0
C529 C 0.51634 0.60148 0.6732 0.0
C530 C 0.52191 0.61403 0.76826 0.0
C531 C 0.55377 0.62804 0.76064 0.0
C532 C 0.56647 0.62879 0.70853 0.0
C533 C 0.54787 0.61563 0.6653 0.0
C534 C 0.62648 0.64807 0.85603 0.0
C535 C 0.61013 0.66349 0.89871 0.0
C536 C 0.60836 0.63712 0.81064 0.0
C537 C 0.57359 0.64168 0.80697 0.0
C538 C 0.55765 0.65856 0.84881 0.0
C539 C 0.57568 0.6692 0.8942 0.0
H540 H 0.44358 0.50182 0.72854 0.0
H541 H 0.38949 0.56761 0.62304 0.0
H542 H 0.4318 0.53868 0.8044 0.0
H543 H 0.37873 0.60521 0.69801 0.0
H544 H 0.33157 0.6374 0.85893 0.0
H545 H 0.34545 0.60515 0.77926 0.0
H546 H 0.44667 0.59499 0.83884 0.0
H547 H 0.43276 0.62729 0.91863 0.0
C548 C 0.42935 0.5243 0.7216 0.0
C549 C 0.41794 0.53234 0.66986 0.0
C550 C 0.42288 0.54555 0.76482 0.0
C551 C 0.40463 0.57505 0.75707 0.0
C552 C 0.39286 0.58272 0.7053 0.0
C553 C 0.39939 0.56149 0.66223 0.0
C554 C 0.35697 0.62896 0.85444 0.0
C555 C 0.38102 0.63472 0.89518 0.0
C556 C 0.36491 0.61037 0.80889 0.0
C557 C 0.39705 0.59717 0.80314 0.0
C558 C 0.4215 0.60423 0.84273 0.0
C559 C 0.41358 0.62283 0.88824 0.0
H560 H 0.51154 0.42051 0.73187 0.0
H561 H 0.43928 0.38252 0.61658 0.0
H562 H 0.47474 0.40508 0.8048 0.0
H563 H 0.40201 0.36719 0.68942 0.0
H564 H 0.37454 0.30863 0.84987 0.0
H565 H 0.40439 0.32552 0.76964 0.0
H566 H 0.41669 0.42482 0.83545 0.0
H567 H 0.38624 0.40838 0.91469 0.0
C568 C 0.48767 0.40898 0.72229 0.0
C569 C 0.4777 0.40339 0.66885 0.0
C570 C 0.46655 0.40035 0.7638 0.0
C571 C 0.43536 0.38538 0.75256 0.0
C572 C 0.4258 0.37895 0.69905 0.0
C573 C 0.44679 0.38809 0.65748 0.0
C574 C 0.38281 0.33428 0.8465 0.0
C575 C 0.37851 0.35703 0.88893 0.0
C576 C 0.4 0.34388 0.80076 0.0
C577 C 0.41331 0.37627 0.79702 0.0
C578 C 0.40724 0.39951 0.83792 0.0
C579 C 0.38982 0.39007 0.88319 0.0
H580 H 0.55013 0.49923 0.73889 0.0
H581 H 0.608 0.43244 0.64237 0.0
H582 H 0.55959 0.46355 0.81669 0.0
H583 H 0.61606 0.3957 0.71874 0.0
H584 H 0.65764 0.36305 0.88315 0.0
H585 H 0.64637 0.39574 0.80316 0.0
H586 H 0.54435 0.40874 0.85143 0.0
H587 H 0.55577 0.37615 0.93191 0.0
C588 C 0.56462 0.47671 0.73425 0.0
C589 C 0.57772 0.46802 0.68433 0.0
C590 C 0.56976 0.45611 0.77857 0.0
C591 C 0.58829 0.42657 0.77381 0.0
C592 C 0.60167 0.41823 0.72386 0.0
C593 C 0.59658 0.43888 0.67978 0.0
C594 C 0.63263 0.37232 0.8762 0.0
C595 C 0.6076 0.36702 0.91386 0.0
C596 C 0.62618 0.39115 0.83038 0.0
C597 C 0.59451 0.40505 0.82109 0.0
C598 C 0.56918 0.39892 0.85796 0.0
C599 C 0.57566 0.38013 0.90388 0.0
H600 H 0.61418 0.43882 0.38325 0.0
H601 H 0.55175 0.50265 0.2859 0.0
H602 H 0.61966 0.40052 0.30801 0.0
H603 H 0.55816 0.46477 0.20985 0.0
H604 H 0.55511 0.37662 0.09416 0.0
H605 H 0.54422 0.40977 0.1747 0.0
H606 H 0.64751 0.39981 0.22438 0.0
H607 H 0.65801 0.3663 0.14507 0.0
C608 C 0.60178 0.44478 0.34566 0.0
C609 C 0.58271 0.47386 0.34043 0.0
C610 C 0.60501 0.42286 0.30245 0.0
C611 C 0.5895 0.42965 0.25281 0.0
C612 C 0.57012 0.4586 0.24771 0.0
C613 C 0.56677 0.48051 0.29108 0.0
C614 C 0.57532 0.38136 0.12268 0.0
C615 C 0.60736 0.3688 0.11354 0.0
C616 C 0.56916 0.40044 0.16858 0.0
C617 C 0.59503 0.40752 0.20588 0.0
C618 C 0.62687 0.39435 0.19704 0.0
C619 C 0.63292 0.37514 0.15152 0.0
H620 H 0.56372 0.62666 0.37236 0.0
H621 H 0.48628 0.58868 0.26498 0.0
H622 H 0.59757 0.6411 0.29567 0.0
H623 H 0.52013 0.60333 0.18842 0.0
H624 H 0.60277 0.60543 0.06602 0.0
H625 H 0.57331 0.58734 0.14536 0.0
H626 H 0.59427 0.68247 0.22159 0.0
H627 H 0.62336 0.70082 0.14193 0.0
C628 C 0.55393 0.62135 0.33243 0.0
C629 C 0.52222 0.60674 0.3247 0.0
C630 C 0.57329 0.62973 0.28856 0.0
C631 C 0.56145 0.62342 0.23613 0.0
C632 C 0.53003 0.6082 0.22842 0.0
C633 C 0.51057 0.6 0.27226 0.0
C634 C 0.60104 0.62252 0.09967 0.0
C635 C 0.61513 0.65469 0.09749 0.0
C636 C 0.5842 0.61213 0.14507 0.0
C637 C 0.58129 0.63358 0.18945 0.0
C638 C 0.59638 0.6653 0.18812 0.0
C639 C 0.61309 0.67578 0.14255 0.0
H640 H 0.44147 0.50461 0.27965 0.0
H641 H 0.37442 0.56779 0.36754 0.0
H642 H 0.43314 0.53875 0.20053 0.0
H643 H 0.36639 0.60224 0.28814 0.0
H644 H 0.38643 0.67188 0.14405 0.0
H645 H 0.39835 0.64082 0.22617 0.0
H646 H 0.38383 0.54814 0.13925 0.0
H647 H 0.37121 0.57884 0.05792 0.0
C648 C 0.425 0.52579 0.2822 0.0
C649 C 0.40851 0.5334 0.32988 0.0
C650 C 0.42026 0.54535 0.23684 0.0
C651 C 0.39903 0.57302 0.23822 0.0
C652 C 0.38315 0.58121 0.28619 0.0
C653 C 0.38772 0.56146 0.33157 0.0
C654 C 0.38563 0.64488 0.14261 0.0
C655 C 0.37812 0.62784 0.09434 0.0
C656 C 0.39249 0.62717 0.18952 0.0
C657 C 0.39222 0.59214 0.18885 0.0
C658 C 0.38482 0.57515 0.14066 0.0
C659 C 0.3777 0.59278 0.09403 0.0
H660 H 0.52107 0.36114 0.29387 0.0
H661 H 0.46683 0.4534 0.30627 0.0
H662 H 0.48545 0.34411 0.218 0.0
H663 H 0.43055 0.4361 0.23181 0.0
H664 H 0.39516 0.40853 0.06193 0.0
H665 H 0.43117 0.42625 0.13656 0.0
H666 H 0.42762 0.32658 0.20088 0.0
H667 H 0.39257 0.30851 0.12478 0.0
C668 C 0.50147 0.37775 0.28052 0.0
C669 C 0.49635 0.40845 0.30652 0.0
C670 C 0.48091 0.36788 0.23735 0.0
C671 C 0.45487 0.38854 0.21934 0.0
C672 C 0.45042 0.41962 0.24452 0.0
C673 C 0.47104 0.42948 0.28747 0.0
C674 C 0.4021 0.39039 0.092 0.0
C675 C 0.39122 0.35707 0.08736 0.0
C676 C 0.42252 0.40061 0.13497 0.0
C677 C 0.43244 0.37777 0.17445 0.0
C678 C 0.42084 0.34463 0.17061 0.0
C679 C 0.40039 0.33439 0.1275 0.0
loop_
_geom_bond_atom_site_label_1
_geom_bond_atom_site_label_2
_geom_bond_distance
_geom_bond_site_symmetry_2
_ccdc_geom_bond_type
Zn0 O2 1.933 1_556 S
Zn0 O20 1.985 . S
Zn0 O31 1.955 . S
Zn1 O2 1.911 . S
Zn1 O21 1.970 . S
Zn1 O37 1.945 . S
Zn1 O44 1.981 . S
O2 Zn0 1.933 1_554 S
O2 Zn1 1.911 . S
O2 H3 0.841 1_655 S
H3 O2 0.841 1_455 S
C4 O5 1.246 . S
C4 O33 1.276 1_545 S
O5 C4 1.246 . S
Zn6 O8 1.911 . S
Zn6 O23 1.970 . S
Zn6 O40 1.945 . S
Zn6 O47 1.981 . S
Zn7 O8 1.933 1_556 S
Zn7 O22 1.985 . S
Zn7 O29 1.955 . S
O8 Zn6 1.911 . S
O8 Zn7 1.933 1_554 S
O8 H9 0.841 1_455 S
H9 O8 0.841 1_655 S
Zn10 O11 1.933 1_556 S
Zn10 O24 1.985 . S
Zn10 O33 1.955 . S
O11 Zn10 1.933 1_554 S
O11 Zn12 1.911 . S
O11 H13 0.841 1_565 S
Zn12 O11 1.911 . S
Zn12 O25 1.970 . S
Zn12 O41 1.981 . S
Zn12 O43 1.945 . S
H13 O11 0.841 1_545 S
Zn14 O15 1.933 1_556 S
Zn14 O27 1.985 . S
Zn14 O35 1.955 . S
O15 Zn14 1.933 1_554 S
O15 H16 0.841 1_545 S
O15 Zn17 1.911 . S
H16 O15 0.841 1_565 S
Zn17 O15 1.911 . S
Zn17 O28 1.970 . S
Zn17 O38 1.981 . S
Zn17 O46 1.945 . S
C18 O19 1.246 . S
C18 O35 1.276 1_565 S
O19 C18 1.246 . S
O20 Zn0 1.985 . S
O20 C30 1.245 1_556 S
O21 Zn1 1.970 . S
O21 C30 1.263 . S
O22 Zn7 1.985 . S
O22 C34 1.245 1_556 S
O23 Zn6 1.970 . S
O23 C34 1.263 . S
O24 Zn10 1.985 . S
O24 C39 1.245 1_556 S
O25 Zn12 1.970 . S
O25 C39 1.263 . S
C26 O37 1.262 1_455 S
C26 O38 1.245 . S
O27 Zn14 1.985 . S
O27 C45 1.245 1_556 S
O28 Zn17 1.970 . S
O28 C45 1.263 . S
O29 Zn7 1.955 . S
O29 C48 1.276 1_455 S
C30 O20 1.245 1_554 S
C30 O21 1.263 . S
O31 Zn0 1.955 . S
O31 C50 1.276 1_655 S
C32 O40 1.262 1_655 S
C32 O41 1.245 . S
O33 C4 1.276 1_565 S
O33 Zn10 1.955 . S
C34 O22 1.245 1_554 S
C34 O23 1.263 . S
O35 Zn14 1.955 . S
O35 C18 1.276 1_545 S
C36 O43 1.262 1_545 S
C36 O44 1.245 . S
O37 Zn1 1.945 . S
O37 C26 1.262 1_655 S
O38 Zn17 1.981 . S
O38 C26 1.245 . S
C39 O24 1.245 1_554 S
C39 O25 1.263 . S
O40 Zn6 1.945 . S
O40 C32 1.262 1_455 S
O41 Zn12 1.981 . S
O41 C32 1.245 . S
C42 O46 1.262 1_565 S
C42 O47 1.245 . S
O43 Zn12 1.945 . S
O43 C36 1.262 1_565 S
O44 Zn1 1.981 . S
O44 C36 1.245 . S
C45 O27 1.245 1_554 S
C45 O28 1.263 . S
O46 Zn17 1.945 . S
O46 C42 1.262 1_545 S
O47 Zn6 1.981 . S
O47 C42 1.245 . S
C48 O29 1.276 1_655 S
C48 O49 1.246 . S
O49 C48 1.246 . S
C50 O31 1.276 1_455 S
C50 O51 1.246 . S
O51 C50 1.246 . S
Zn52 O54 1.933 . S
Zn52 O72 1.985 . S
Zn52 O83 1.955 . S
Zn53 O54 1.911 . S
Zn53 O73 1.970 . S
Zn53 O89 1.945 . S
Zn53 O96 1.981 . S
O54 Zn52 1.933 . S
O54 Zn53 1.911 . S
O54 H55 0.841 . S
H55 O54 0.841 . S
C56 O57 1.246 . S
C56 O85 1.276 . S
O57 C56 1.246 . S
Zn58 O60 1.911 . S
Zn58 O75 1.970 . S
Zn58 O92 1.945 . S
Zn58 O99 1.981 . S
Zn59 O60 1.933 . S
Zn59 O74 1.985 . S
Zn59 O81 1.955 . S
O60 Zn58 1.911 . S
O60 Zn59 1.933 . S
O60 H61 0.841 . S
H61 O60 0.841 . S
Zn62 O63 1.933 . S
Zn62 O76 1.985 . S
Zn62 O85 1.955 . S
O63 Zn62 1.933 . S
O63 Zn64 1.911 . S
O63 H65 0.841 . S
Zn64 O63 1.911 . S
Zn64 O77 1.970 . S
Zn64 O93 1.981 . S
Zn64 O95 1.945 . S
H65 O63 0.841 . S
Zn66 O67 1.933 . S
Zn66 O79 1.985 . S
Zn66 O87 1.955 . S
O67 Zn66 1.933 . S
O67 H68 0.841 . S
O67 Zn69 1.911 . S
H68 O67 0.841 . S
Zn69 O67 1.911 . S
Zn69 O80 1.970 . S
Zn69 O90 1.981 . S
Zn69 O98 1.945 . S
C70 O71 1.246 . S
C70 O87 1.276 . S
O71 C70 1.246 . S
O72 Zn52 1.985 . S
O72 C82 1.245 . S
O73 Zn53 1.970 . S
O73 C82 1.263 . S
O74 Zn59 1.985 . S
O74 C86 1.245 . S
O75 Zn58 1.970 . S
O75 C86 1.263 . S
O76 Zn62 1.985 . S
O76 C91 1.245 . S
O77 Zn64 1.970 . S
O77 C91 1.263 . S
C78 O89 1.262 . S
C78 O90 1.245 . S
O79 Zn66 1.985 . S
O79 C97 1.245 . S
O80 Zn69 1.970 . S
O80 C97 1.263 . S
O81 Zn59 1.955 . S
O81 C100 1.276 . S
C82 O72 1.245 . S
C82 O73 1.263 . S
O83 Zn52 1.955 . S
O83 C102 1.276 . S
C84 O92 1.262 . S
C84 O93 1.245 . S
O85 C56 1.276 . S
O85 Zn62 1.955 . S
C86 O74 1.245 . S
C86 O75 1.263 . S
O87 Zn66 1.955 . S
O87 C70 1.276 . S
C88 O95 1.262 . S
C88 O96 1.245 . S
O89 Zn53 1.945 . S
O89 C78 1.262 . S
O90 Zn69 1.981 . S
O90 C78 1.245 . S
C91 O76 1.245 . S
C91 O77 1.263 . S
O92 Zn58 1.945 . S
O92 C84 1.262 . S
O93 Zn64 1.981 . S
O93 C84 1.245 . S
C94 O98 1.262 . S
C94 O99 1.245 . S
O95 Zn64 1.945 . S
O95 C88 1.262 . S
O96 Zn53 1.981 . S
O96 C88 1.245 . S
C97 O79 1.245 . S
C97 O80 1.263 . S
O98 Zn69 1.945 . S
O98 C94 1.262 . S
O99 Zn58 1.981 . S
O99 C94 1.245 . S
C100 O81 1.276 . S
C100 O101 1.246 . S
O101 C100 1.246 . S
C102 O83 1.276 . S
C102 O103 1.246 . S
O103 C102 1.246 . S
H104 C109 0.930 . S
H105 C112 0.930 . S
H106 C114 0.930 . S
H107 C108 1.016 . S
C108 H107 1.016 . S
C108 N115 1.286 1_554 S
C109 H104 0.930 . S
C109 C110 1.397 . S
C109 C111 1.360 . S
C110 C109 1.397 . S
C110 C114 1.390 1_556 S
C111 C109 1.360 . S
C111 C112 1.394 1_556 S
C111 N115 1.413 . S
C112 H105 0.930 . S
C112 C111 1.394 1_554 S
C112 C113 1.399 . S
C113 C112 1.399 . S
C113 C114 1.381 . S
C114 H106 0.930 . S
C114 C110 1.390 1_554 S
C114 C113 1.381 . S
N115 C108 1.286 1_556 S
N115 C111 1.413 . S
H116 C121 0.930 . S
H117 C124 0.930 . S
H118 C126 0.930 . S
H119 C120 1.016 . S
C120 H119 1.016 . S
C120 N127 1.286 1_554 S
C121 H116 0.930 . S
C121 C122 1.397 . S
C121 C123 1.361 1_556 S
C122 C121 1.397 . S
C122 C126 1.390 1_556 S
C123 C121 1.361 1_554 S
C123 C124 1.393 . S
C123 N127 1.413 1_554 S
C124 H117 0.930 . S
C124 C123 1.393 . S
C124 C125 1.399 . S
C125 C124 1.399 . S
C125 C126 1.381 . S
C126 H118 0.930 . S
C126 C122 1.390 1_554 S
C126 C125 1.381 . S
N127 C120 1.286 1_556 S
N127 C123 1.413 1_556 S
H128 C133 0.930 . S
H129 C136 0.930 . S
H130 C138 0.930 . S
H131 C132 1.017 1_556 S
C132 H131 1.017 1_554 S
C132 N139 1.286 . S
C133 H128 0.930 . S
C133 C134 1.397 . S
C133 C135 1.361 . S
C134 C133 1.397 . S
C134 C138 1.390 . S
C135 C133 1.361 . S
C135 C136 1.393 1_554 S
C135 N139 1.413 . S
C136 H129 0.930 . S
C136 C135 1.393 1_556 S
C136 C137 1.399 . S
C137 C136 1.399 . S
C137 C138 1.381 1_556 S
C138 H130 0.930 . S
C138 C134 1.390 . S
C138 C137 1.381 1_554 S
N139 C132 1.286 . S
N139 C135 1.413 . S
H140 C145 0.930 . S
H141 C148 0.930 . S
H142 C150 0.930 . S
H143 C144 1.016 . S
C144 H143 1.016 . S
C144 N151 1.286 1_554 S
C145 H140 0.930 . S
C145 C146 1.397 . S
C145 C147 1.361 . S
C146 C145 1.397 . S
C146 C150 1.390 1_556 S
C147 C145 1.361 . S
C147 C148 1.393 1_556 S
C147 N151 1.413 . S
C148 H141 0.930 . S
C148 C147 1.393 1_554 S
C148 C149 1.399 . S
C149 C148 1.399 . S
C149 C150 1.381 . S
C150 H142 0.930 . S
C150 C146 1.390 1_554 S
C150 C149 1.381 . S
N151 C144 1.286 1_556 S
N151 C147 1.413 . S
H152 C157 0.930 . S
H153 C160 0.930 . S
H154 C162 0.930 . S
H155 C156 1.016 . S
C156 H155 1.016 . S
C156 N163 1.286 . S
C157 H152 0.930 . S
C157 C158 1.397 . S
C157 C159 1.361 . S
C158 C157 1.397 . S
C158 C162 1.390 . S
C159 C157 1.361 . S
C159 C160 1.393 . S
C159 N163 1.413 . S
C160 H153 0.930 . S
C160 C159 1.393 . S
C160 C161 1.399 . S
C161 C160 1.399 . S
C161 C162 1.381 . S
C162 H154 0.930 . S
C162 C158 1.390 . S
C162 C161 1.381 . S
N163 C156 1.286 . S
N163 C159 1.413 . S
H164 C169 0.930 . S
H165 C172 0.930 . S
H166 C174 0.930 . S
H167 C168 1.016 . S
C168 H167 1.016 . S
C168 N175 1.286 . S
C169 H164 0.930 . S
C169 C170 1.397 . S
C169 C171 1.361 . S
C170 C169 1.397 . S
C170 C174 1.390 . S
C171 C169 1.361 . S
C171 C172 1.393 . S
C171 N175 1.413 . S
C172 H165 0.930 . S
C172 C171 1.393 . S
C172 C173 1.399 . S
C173 C172 1.399 . S
C173 C174 1.381 . S
C174 H166 0.930 . S
C174 C170 1.390 . S
C174 C173 1.381 . S
N175 C168 1.286 . S
N175 C171 1.413 . S
H176 C181 0.930 . S
H177 C184 0.930 . S
H178 C186 0.930 . S
H179 C180 1.016 . S
C180 H179 1.016 . S
C180 N187 1.286 . S
C181 H176 0.930 . S
C181 C182 1.397 . S
C181 C183 1.361 . S
C182 C181 1.397 . S
C182 C186 1.390 . S
C183 C181 1.361 . S
C183 C184 1.393 . S
C183 N187 1.413 . S
C184 H177 0.930 . S
C184 C183 1.393 . S
C184 C185 1.399 . S
C185 C184 1.399 . S
C185 C186 1.381 . S
C186 H178 0.930 . S
C186 C182 1.390 . S
C186 C185 1.381 . S
N187 C180 1.286 . S
N187 C183 1.413 . S
H188 C193 0.930 . S
H189 C196 0.930 . S
H190 C198 0.930 . S
H191 C192 1.016 . S
C192 H191 1.016 . S
C192 N199 1.286 . S
C193 H188 0.930 . S
C193 C194 1.397 . S
C193 C195 1.361 . S
C194 C193 1.397 . S
C194 C198 1.390 . S
C195 C193 1.361 . S
C195 C196 1.393 . S
C195 N199 1.413 . S
C196 H189 0.930 . S
C196 C195 1.393 . S
C196 C197 1.399 . S
C197 C196 1.399 . S
C197 C198 1.381 . S
C198 H190 0.930 . S
C198 C194 1.390 . S
C198 C197 1.381 . S
N199 C192 1.286 . S
N199 C195 1.413 . S
H200 C208 0.950 . S
H201 C213 0.950 1_556 S
H202 C210 0.950 . S
H203 C212 0.950 1_556 S
H204 C214 0.950 1_556 S
H205 C216 0.950 1_556 S
H206 C218 0.950 . S
H207 C219 0.950 . S
C208 H200 0.950 . S
C208 C209 1.386 . S
C208 C210 1.391 . S
C209 C208 1.386 . S
C209 C213 1.393 . S
C210 H202 0.950 . S
C210 C208 1.391 . S
C210 C211 1.400 . S
C211 C210 1.400 . S
C211 C212 1.398 . S
C211 C217 1.491 . S
C212 H203 0.950 1_554 S
C212 C211 1.398 . S
C212 C213 1.391 . S
C213 H201 0.950 1_554 S
C213 C209 1.393 . S
C213 C212 1.391 . S
C214 H204 0.950 1_554 S
C214 C215 1.386 . S
C214 C216 1.391 . S
C215 C214 1.386 . S
C215 C219 1.393 . S
C216 H205 0.950 1_554 S
C216 C214 1.391 . S
C216 C217 1.400 . S
C217 C211 1.491 . S
C217 C216 1.400 . S
C217 C218 1.398 . S
C218 H206 0.950 . S
C218 C217 1.398 . S
C218 C219 1.391 . S
C219 H207 0.950 . S
C219 C215 1.393 . S
C219 C218 1.391 . S
H220 C228 0.950 . S
H221 C233 0.950 . S
H222 C230 0.950 . S
H223 C232 0.950 . S
H224 C234 0.950 . S
H225 C236 0.950 . S
H226 C238 0.950 . S
H227 C239 0.950 . S
C228 H220 0.950 . S
C228 C229 1.386 1_556 S
C228 C230 1.391 . S
C229 C228 1.386 1_554 S
C229 C233 1.393 . S
C230 H222 0.950 . S
C230 C228 1.391 . S
C230 C231 1.400 1_556 S
C231 C230 1.400 1_554 S
C231 C232 1.398 . S
C231 C237 1.491 . S
C232 H223 0.950 . S
C232 C231 1.398 . S
C232 C233 1.391 . S
C233 H221 0.950 . S
C233 C229 1.393 . S
C233 C232 1.391 . S
C234 H224 0.950 . S
C234 C235 1.386 . S
C234 C236 1.391 . S
C235 C234 1.386 . S
C235 C239 1.393 1_554 S
C236 H225 0.950 . S
C236 C234 1.391 . S
C236 C237 1.400 . S
C237 C231 1.491 . S
C237 C236 1.400 . S
C237 C238 1.398 1_554 S
C238 H226 0.950 . S
C238 C237 1.398 1_556 S
C238 C239 1.391 . S
C239 H227 0.950 . S
C239 C235 1.393 1_556 S
C239 C238 1.391 . S
H240 C248 0.950 . S
H241 C253 0.950 . S
H242 C250 0.950 . S
H243 C252 0.950 . S
H244 C254 0.950 . S
H245 C256 0.950 . S
H246 C258 0.950 . S
H247 C259 0.950 . S
C248 H240 0.950 . S
C248 C249 1.386 1_556 S
C248 C250 1.391 . S
C249 C248 1.386 1_554 S
C249 C253 1.393 . S
C250 H242 0.950 . S
C250 C248 1.391 . S
C250 C251 1.400 1_556 S
C251 C250 1.400 1_554 S
C251 C252 1.398 . S
C251 C257 1.491 . S
C252 H243 0.950 . S
C252 C251 1.398 . S
C252 C253 1.391 . S
C253 H241 0.950 . S
C253 C249 1.393 . S
C253 C252 1.391 . S
C254 H244 0.950 . S
C254 C255 1.386 . S
C254 C256 1.391 . S
C255 C254 1.386 . S
C255 C259 1.393 1_554 S
C256 H245 0.950 . S
C256 C254 1.391 . S
C256 C257 1.400 . S
C257 C251 1.491 . S
C257 C256 1.400 . S
C257 C258 1.398 1_554 S
C258 H246 0.950 . S
C258 C257 1.398 1_556 S
C258 C259 1.391 . S
C259 H247 0.950 . S
C259 C255 1.393 1_556 S
C259 C258 1.391 . S
H260 C268 0.950 . S
H261 C273 0.950 . S
H262 C270 0.950 . S
H263 C272 0.950 . S
H264 C274 0.950 . S
H265 C276 0.950 . S
H266 C278 0.950 . S
H267 C279 0.950 . S
C268 H260 0.950 . S
C268 C269 1.386 1_556 S
C268 C270 1.391 . S
C269 C268 1.386 1_554 S
C269 C273 1.393 . S
C270 H262 0.950 . S
C270 C268 1.391 . S
C270 C271 1.400 1_556 S
C271 C270 1.400 1_554 S
C271 C272 1.398 . S
C271 C277 1.491 . S
C272 H263 0.950 . S
C272 C271 1.398 . S
C272 C273 1.391 . S
C273 H261 0.950 . S
C273 C269 1.393 . S
C273 C272 1.391 . S
C274 H264 0.950 . S
C274 C275 1.386 . S
C274 C276 1.391 . S
C275 C274 1.386 . S
C275 C279 1.393 1_554 S
C276 H265 0.950 . S
C276 C274 1.391 . S
C276 C277 1.400 . S
C277 C271 1.491 . S
C277 C276 1.400 . S
C277 C278 1.398 1_554 S
C278 H266 0.950 . S
C278 C277 1.398 1_556 S
C278 C279 1.391 . S
C279 H267 0.950 . S
C279 C275 1.393 1_556 S
C279 C278 1.391 . S
H280 C288 0.950 . S
H281 C293 0.950 . S
H282 C290 0.950 . S
H283 C292 0.950 . S
H284 C294 0.950 . S
H285 C296 0.950 . S
H286 C298 0.950 . S
H287 C299 0.950 . S
C288 H280 0.950 . S
C288 C289 1.386 . S
C288 C290 1.391 . S
C289 C288 1.386 . S
C289 C293 1.393 . S
C290 H282 0.950 . S
C290 C288 1.391 . S
C290 C291 1.400 . S
C291 C290 1.400 . S
C291 C292 1.398 . S
C291 C297 1.491 . S
C292 H283 0.950 . S
C292 C291 1.398 . S
C292 C293 1.391 . S
C293 H281 0.950 . S
C293 C289 1.393 . S
C293 C292 1.391 . S
C294 H284 0.950 . S
C294 C295 1.386 . S
C294 C296 1.391 . S
C295 C294 1.386 . S
C295 C299 1.393 . S
C296 H285 0.950 . S
C296 C294 1.391 . S
C296 C297 1.400 . S
C297 C291 1.491 . S
C297 C296 1.400 . S
C297 C298 1.398 . S
C298 H286 0.950 . S
C298 C297 1.398 . S
C298 C299 1.391 . S
C299 H287 0.950 . S
C299 C295 1.393 . S
C299 C298 1.391 . S
H300 C308 0.950 . S
H301 C313 0.950 . S
H302 C310 0.950 . S
H303 C312 0.950 . S
H304 C314 0.950 . S
H305 C316 0.950 . S
H306 C318 0.950 . S
H307 C319 0.950 . S
C308 H300 0.950 . S
C308 C309 1.386 . S
C308 C310 1.391 . S
C309 C308 1.386 . S
C309 C313 1.393 . S
C310 H302 0.950 . S
C310 C308 1.391 . S
C310 C311 1.400 . S
C311 C310 1.400 . S
C311 C312 1.398 . S
C311 C317 1.491 . S
C312 H303 0.950 . S
C312 C311 1.398 . S
C312 C313 1.391 . S
C313 H301 0.950 . S
C313 C309 1.393 . S
C313 C312 1.391 . S
C314 H304 0.950 . S
C314 C315 1.386 . S
C314 C316 1.391 . S
C315 C314 1.386 . S
C315 C319 1.393 . S
C316 H305 0.950 . S
C316 C314 1.391 . S
C316 C317 1.400 . S
C317 C311 1.491 . S
C317 C316 1.400 . S
C317 C318 1.398 . S
C318 H306 0.950 . S
C318 C317 1.398 . S
C318 C319 1.391 . S
C319 H307 0.950 . S
C319 C315 1.393 . S
C319 C318 1.391 . S
H320 C328 0.950 . S
H321 C333 0.950 . S
H322 C330 0.950 . S
H323 C332 0.950 . S
H324 C334 0.950 . S
H325 C336 0.950 . S
H326 C338 0.950 . S
H327 C339 0.950 . S
C328 H320 0.950 . S
C328 C329 1.386 . S
C328 C330 1.391 . S
C329 C328 1.386 . S
C329 C333 1.393 . S
C330 H322 0.950 . S
C330 C328 1.391 . S
C330 C331 1.400 . S
C331 C330 1.400 . S
C331 C332 1.398 . S
C331 C337 1.491 . S
C332 H323 0.950 . S
C332 C331 1.398 . S
C332 C333 1.391 . S
C333 H321 0.950 . S
C333 C329 1.393 . S
C333 C332 1.391 . S
C334 H324 0.950 . S
C334 C335 1.386 . S
C334 C336 1.391 . S
C335 C334 1.386 . S
C335 C339 1.393 . S
C336 H325 0.950 . S
C336 C334 1.391 . S
C336 C337 1.400 . S
C337 C331 1.491 . S
C337 C336 1.400 . S
C337 C338 1.398 . S
C338 H326 0.950 . S
C338 C337 1.398 . S
C338 C339 1.391 . S
C339 H327 0.950 . S
C339 C335 1.393 . S
C339 C338 1.391 . S
H340 C348 0.950 . S
H341 C353 0.950 . S
H342 C350 0.950 . S
H343 C352 0.950 . S
H344 C354 0.950 . S
H345 C356 0.950 . S
H346 C358 0.950 . S
H347 C359 0.950 . S
C348 H340 0.950 . S
C348 C349 1.386 . S
C348 C350 1.391 . S
C349 C348 1.386 . S
C349 C353 1.393 . S
C350 H342 0.950 . S
C350 C348 1.391 . S
C350 C351 1.400 . S
C351 C350 1.400 . S
C351 C352 1.398 . S
C351 C357 1.491 . S
C352 H343 0.950 . S
C352 C351 1.398 . S
C352 C353 1.391 . S
C353 H341 0.950 . S
C353 C349 1.393 . S
C353 C352 1.391 . S
C354 H344 0.950 . S
C354 C355 1.386 . S
C354 C356 1.391 . S
C355 C354 1.386 . S
C355 C359 1.393 . S
C356 H345 0.950 . S
C356 C354 1.391 . S
C356 C357 1.400 . S
C357 C351 1.491 . S
C357 C356 1.400 . S
C357 C358 1.398 . S
C358 H346 0.950 . S
C358 C357 1.398 . S
C358 C359 1.391 . S
C359 H347 0.950 . S
C359 C355 1.393 . S
C359 C358 1.391 . S
H360 C368 0.950 . S
H361 C373 0.950 . S
H362 C370 0.950 . S
H363 C372 0.950 . S
H364 C374 0.950 . S
H365 C376 0.950 . S
H366 C378 0.950 . S
H367 C379 0.950 . S
C368 H360 0.950 . S
C368 C369 1.386 . S
C368 C370 1.391 . S
C369 C368 1.386 . S
C369 C373 1.393 . S
C370 H362 0.950 . S
C370 C368 1.391 . S
C370 C371 1.400 . S
C371 C370 1.400 . S
C371 C372 1.398 . S
C371 C377 1.491 . S
C372 H363 0.950 . S
C372 C371 1.398 . S
C372 C373 1.391 . S
C373 H361 0.950 . S
C373 C369 1.393 . S
C373 C372 1.391 . S
C374 H364 0.950 . S
C374 C375 1.386 . S
C374 C376 1.391 . S
C375 C374 1.386 . S
C375 C379 1.393 . S
C376 H365 0.950 . S
C376 C374 1.391 . S
C376 C377 1.400 . S
C377 C371 1.491 . S
C377 C376 1.400 . S
C377 C378 1.398 . S
C378 H366 0.950 . S
C378 C377 1.398 . S
C378 C379 1.391 . S
C379 H367 0.950 . S
C379 C375 1.393 . S
C379 C378 1.391 . S
H380 C388 0.950 . S
H381 C393 0.950 . S
H382 C390 0.950 . S
H383 C392 0.950 . S
H384 C394 0.950 . S
H385 C396 0.950 . S
H386 C398 0.950 . S
H387 C399 0.950 . S
C388 H380 0.950 . S
C388 C389 1.386 . S
C388 C390 1.391 . S
C389 C388 1.386 . S
C389 C393 1.393 . S
C390 H382 0.950 . S
C390 C388 1.391 . S
C390 C391 1.400 . S
C391 C390 1.400 . S
C391 C392 1.398 . S
C391 C397 1.491 . S
C392 H383 0.950 . S
C392 C391 1.398 . S
C392 C393 1.391 . S
C393 H381 0.950 . S
C393 C389 1.393 . S
C393 C392 1.391 . S
C394 H384 0.950 . S
C394 C395 1.386 . S
C394 C396 1.391 . S
C395 C394 1.386 . S
C395 C399 1.393 . S
C396 H385 0.950 . S
C396 C394 1.391 . S
C396 C397 1.400 . S
C397 C391 1.491 . S
C397 C396 1.400 . S
C397 C398 1.398 . S
C398 H386 0.950 . S
C398 C397 1.398 . S
C398 C399 1.391 . S
C399 H387 0.950 . S
C399 C395 1.393 . S
C399 C398 1.391 . S
H400 C408 0.950 1_455 S
H401 C413 0.950 . S
H402 C410 0.950 . S
H403 C412 0.950 . S
H404 C414 0.950 . S
H405 C416 0.950 . S
H406 C418 0.950 . S
H407 C419 0.950 . S
C408 H400 0.950 1_655 S
C408 C409 1.386 . S
C408 C410 1.391 . S
C409 C408 1.386 . S
C409 C413 1.393 . S
C410 H402 0.950 . S
C410 C408 1.391 . S
C410 C411 1.400 . S
C411 C410 1.400 . S
C411 C412 1.398 . S
C411 C417 1.491 . S
C412 H403 0.950 . S
C412 C411 1.398 . S
C412 C413 1.391 . S
C413 H401 0.950 . S
C413 C409 1.393 . S
C413 C412 1.391 . S
C414 H404 0.950 . S
C414 C415 1.386 . S
C414 C416 1.391 . S
C415 C414 1.386 . S
C415 C419 1.393 . S
C416 H405 0.950 . S
C416 C414 1.391 . S
C416 C417 1.400 . S
C417 C411 1.491 . S
C417 C416 1.400 . S
C417 C418 1.398 . S
C418 H406 0.950 . S
C418 C417 1.398 . S
C418 C419 1.391 . S
C419 H407 0.950 . S
C419 C415 1.393 . S
C419 C418 1.391 . S
H420 C428 0.950 . S
H421 C433 0.950 . S
H422 C430 0.950 . S
H423 C432 0.950 . S
H424 C434 0.950 . S
H425 C436 0.950 . S
H426 C438 0.950 . S
H427 C439 0.950 . S
C428 H420 0.950 . S
C428 C429 1.386 . S
C428 C430 1.391 . S
C429 C428 1.386 . S
C429 C433 1.393 . S
C430 H422 0.950 . S
C430 C428 1.391 . S
C430 C431 1.400 . S
C431 C430 1.400 . S
C431 C432 1.398 . S
C431 C437 1.491 . S
C432 H423 0.950 . S
C432 C431 1.398 . S
C432 C433 1.391 . S
C433 H421 0.950 . S
C433 C429 1.393 . S
C433 C432 1.391 . S
C434 H424 0.950 . S
C434 C435 1.386 . S
C434 C436 1.391 . S
C435 C434 1.386 . S
C435 C439 1.393 . S
C436 H425 0.950 . S
C436 C434 1.391 . S
C436 C437 1.400 . S
C437 C431 1.491 . S
C437 C436 1.400 . S
C437 C438 1.398 . S
C438 H426 0.950 . S
C438 C437 1.398 . S
C438 C439 1.391 . S
C439 H427 0.950 . S
C439 C435 1.393 . S
C439 C438 1.391 . S
H440 C448 0.950 1_545 S
H441 C453 0.950 . S
H442 C450 0.950 . S
H443 C452 0.950 . S
H444 C454 0.950 . S
H445 C456 0.950 . S
H446 C458 0.950 . S
H447 C459 0.950 . S
C448 H440 0.950 1_565 S
C448 C449 1.386 . S
C448 C450 1.391 . S
C449 C448 1.386 . S
C449 C453 1.393 . S
C450 H442 0.950 . S
C450 C448 1.391 . S
C450 C451 1.400 . S
C451 C450 1.400 . S
C451 C452 1.398 . S
C451 C457 1.491 . S
C452 H443 0.950 . S
C452 C451 1.398 . S
C452 C453 1.391 . S
C453 H441 0.950 . S
C453 C449 1.393 . S
C453 C452 1.391 . S
C454 H444 0.950 . S
C454 C455 1.386 . S
C454 C456 1.391 . S
C455 C454 1.386 . S
C455 C459 1.393 . S
C456 H445 0.950 . S
C456 C454 1.391 . S
C456 C457 1.400 . S
C457 C451 1.491 . S
C457 C456 1.400 . S
C457 C458 1.398 . S
C458 H446 0.950 . S
C458 C457 1.398 . S
C458 C459 1.391 . S
C459 H447 0.950 . S
C459 C455 1.393 . S
C459 C458 1.391 . S
H460 C468 0.950 . S
H461 C473 0.950 . S
H462 C470 0.950 . S
H463 C472 0.950 . S
H464 C474 0.950 . S
H465 C476 0.950 . S
H466 C478 0.950 . S
H467 C479 0.950 . S
C468 H460 0.950 . S
C468 C469 1.386 . S
C468 C470 1.391 . S
C469 C468 1.386 . S
C469 C473 1.393 . S
C470 H462 0.950 . S
C470 C468 1.391 . S
C470 C471 1.400 . S
C471 C470 1.400 . S
C471 C472 1.398 . S
C471 C477 1.491 . S
C472 H463 0.950 . S
C472 C471 1.398 . S
C472 C473 1.391 . S
C473 H461 0.950 . S
C473 C469 1.393 . S
C473 C472 1.391 . S
C474 H464 0.950 . S
C474 C475 1.386 . S
C474 C476 1.391 . S
C475 C474 1.386 . S
C475 C479 1.393 . S
C476 H465 0.950 . S
C476 C474 1.391 . S
C476 C477 1.400 . S
C477 C471 1.491 . S
C477 C476 1.400 . S
C477 C478 1.398 . S
C478 H466 0.950 . S
C478 C477 1.398 . S
C478 C479 1.391 . S
C479 H467 0.950 . S
C479 C475 1.393 . S
C479 C478 1.391 . S
H480 C488 0.950 . S
H481 C493 0.950 . S
H482 C490 0.950 . S
H483 C492 0.950 . S
H484 C494 0.950 . S
H485 C496 0.950 . S
H486 C498 0.950 . S
H487 C499 0.950 . S
C488 H480 0.950 . S
C488 C489 1.386 . S
C488 C490 1.391 . S
C489 C488 1.386 . S
C489 C493 1.393 . S
C490 H482 0.950 . S
C490 C488 1.391 . S
C490 C491 1.400 . S
C491 C490 1.400 . S
C491 C492 1.398 . S
C491 C497 1.491 . S
C492 H483 0.950 . S
C492 C491 1.398 . S
C492 C493 1.391 . S
C493 H481 0.950 . S
C493 C489 1.393 . S
C493 C492 1.391 . S
C494 H484 0.950 . S
C494 C495 1.386 . S
C494 C496 1.391 . S
C495 C494 1.386 . S
C495 C499 1.393 . S
C496 H485 0.950 . S
C496 C494 1.391 . S
C496 C497 1.400 . S
C497 C491 1.491 . S
C497 C496 1.400 . S
C497 C498 1.398 . S
C498 H486 0.950 . S
C498 C497 1.398 . S
C498 C499 1.391 . S
C499 H487 0.950 . S
C499 C495 1.393 . S
C499 C498 1.391 . S
H500 C508 0.950 . S
H501 C513 0.950 1_455 S
H502 C510 0.950 . S
H503 C512 0.950 . S
H504 C514 0.950 . S
H505 C516 0.950 . S
H506 C518 0.950 . S
H507 C519 0.950 . S
C508 H500 0.950 . S
C508 C509 1.386 . S
C508 C510 1.391 . S
C509 C508 1.386 . S
C509 C513 1.393 . S
C510 H502 0.950 . S
C510 C508 1.391 . S
C510 C511 1.400 . S
C511 C510 1.400 . S
C511 C512 1.398 . S
C511 C517 1.491 . S
C512 H503 0.950 . S
C512 C511 1.398 . S
C512 C513 1.391 . S
C513 H501 0.950 1_655 S
C513 C509 1.393 . S
C513 C512 1.391 . S
C514 H504 0.950 . S
C514 C515 1.386 . S
C514 C516 1.391 . S
C515 C514 1.386 . S
C515 C519 1.393 . S
C516 H505 0.950 . S
C516 C514 1.391 . S
C516 C517 1.400 . S
C517 C511 1.491 . S
C517 C516 1.400 . S
C517 C518 1.398 . S
C518 H506 0.950 . S
C518 C517 1.398 . S
C518 C519 1.391 . S
C519 H507 0.950 . S
C519 C515 1.393 . S
C519 C518 1.391 . S
H520 C528 0.950 . S
H521 C533 0.950 . S
H522 C530 0.950 . S
H523 C532 0.950 . S
H524 C534 0.950 . S
H525 C536 0.950 . S
H526 C538 0.950 . S
H527 C539 0.950 . S
C528 H520 0.950 . S
C528 C529 1.386 . S
C528 C530 1.391 . S
C529 C528 1.386 . S
C529 C533 1.393 . S
C530 H522 0.950 . S
C530 C528 1.391 . S
C530 C531 1.400 . S
C531 C530 1.400 . S
C531 C532 1.398 . S
C531 C537 1.491 . S
C532 H523 0.950 . S
C532 C531 1.398 . S
C532 C533 1.391 . S
C533 H521 0.950 . S
C533 C529 1.393 . S
C533 C532 1.391 . S
C534 H524 0.950 . S
C534 C535 1.386 . S
C534 C536 1.391 . S
C535 C534 1.386 . S
C535 C539 1.393 . S
C536 H525 0.950 . S
C536 C534 1.391 . S
C536 C537 1.400 . S
C537 C531 1.491 . S
C537 C536 1.400 . S
C537 C538 1.398 . S
C538 H526 0.950 . S
C538 C537 1.398 . S
C538 C539 1.391 . S
C539 H527 0.950 . S
C539 C535 1.393 . S
C539 C538 1.391 . S
H540 C548 0.950 . S
H541 C553 0.950 . S
H542 C550 0.950 . S
H543 C552 0.950 . S
H544 C554 0.950 . S
H545 C556 0.950 . S
H546 C558 0.950 . S
H547 C559 0.950 . S
C548 H540 0.950 . S
C548 C549 1.386 . S
C548 C550 1.391 . S
C549 C548 1.386 . S
C549 C553 1.393 . S
C550 H542 0.950 . S
C550 C548 1.391 . S
C550 C551 1.400 . S
C551 C550 1.400 . S
C551 C552 1.398 . S
C551 C557 1.491 . S
C552 H543 0.950 . S
C552 C551 1.398 . S
C552 C553 1.391 . S
C553 H541 0.950 . S
C553 C549 1.393 . S
C553 C552 1.391 . S
C554 H544 0.950 . S
C554 C555 1.386 . S
C554 C556 1.391 . S
C555 C554 1.386 . S
C555 C559 1.393 . S
C556 H545 0.950 . S
C556 C554 1.391 . S
C556 C557 1.400 . S
C557 C551 1.491 . S
C557 C556 1.400 . S
C557 C558 1.398 . S
C558 H546 0.950 . S
C558 C557 1.398 . S
C558 C559 1.391 . S
C559 H547 0.950 . S
C559 C555 1.393 . S
C559 C558 1.391 . S
H560 C568 0.950 . S
H561 C573 0.950 . S
H562 C570 0.950 . S
H563 C572 0.950 . S
H564 C574 0.950 . S
H565 C576 0.950 . S
H566 C578 0.950 . S
H567 C579 0.950 . S
C568 H560 0.950 . S
C568 C569 1.386 . S
C568 C570 1.391 . S
C569 C568 1.386 . S
C569 C573 1.393 . S
C570 H562 0.950 . S
C570 C568 1.391 . S
C570 C571 1.400 . S
C571 C570 1.400 . S
C571 C572 1.398 . S
C571 C577 1.491 . S
C572 H563 0.950 . S
C572 C571 1.398 . S
C572 C573 1.391 . S
C573 H561 0.950 . S
C573 C569 1.393 . S
C573 C572 1.391 . S
C574 H564 0.950 . S
C574 C575 1.386 . S
C574 C576 1.391 . S
C575 C574 1.386 . S
C575 C579 1.393 . S
C576 H565 0.950 . S
C576 C574 1.391 . S
C576 C577 1.400 . S
C577 C571 1.491 . S
C577 C576 1.400 . S
C577 C578 1.398 . S
C578 H566 0.950 . S
C578 C577 1.398 . S
C578 C579 1.391 . S
C579 H567 0.950 . S
C579 C575 1.393 . S
C579 C578 1.391 . S
H580 C588 0.950 . S
H581 C593 0.950 . S
H582 C590 0.950 . S
H583 C592 0.950 . S
H584 C594 0.950 . S
H585 C596 0.950 . S
H586 C598 0.950 . S
H587 C599 0.950 . S
C588 H580 0.950 . S
C588 C589 1.386 . S
C588 C590 1.391 . S
C589 C588 1.386 . S
C589 C593 1.393 . S
C590 H582 0.950 . S
C590 C588 1.391 . S
C590 C591 1.400 . S
C591 C590 1.400 . S
C591 C592 1.398 . S
C591 C597 1.491 . S
C592 H583 0.950 . S
C592 C591 1.398 . S
C592 C593 1.391 . S
C593 H581 0.950 . S
C593 C589 1.393 . S
C593 C592 1.391 . S
C594 H584 0.950 . S
C594 C595 1.386 . S
C594 C596 1.391 . S
C595 C594 1.386 . S
C595 C599 1.393 . S
C596 H585 0.950 . S
C596 C594 1.391 . S
C596 C597 1.400 . S
C597 C591 1.491 . S
C597 C596 1.400 . S
C597 C598 1.398 . S
C598 H586 0.950 . S
C598 C597 1.398 . S
C598 C599 1.391 . S
C599 H587 0.950 . S
C599 C595 1.393 . S
C599 C598 1.391 . S
H600 C608 0.950 . S
H601 C613 0.950 . S
H602 C610 0.950 . S
H603 C612 0.950 . S
H604 C614 0.950 . S
H605 C616 0.950 . S
H606 C618 0.950 . S
H607 C619 0.950 . S
C608 H600 0.950 . S
C608 C609 1.386 . S
C608 C610 1.391 . S
C609 C608 1.386 . S
C609 C613 1.393 . S
C610 H602 0.950 . S
C610 C608 1.391 . S
C610 C611 1.400 . S
C611 C610 1.400 . S
C611 C612 1.398 . S
C611 C617 1.491 . S
C612 H603 0.950 . S
C612 C611 1.398 . S
C612 C613 1.391 . S
C613 H601 0.950 . S
C613 C609 1.393 . S
C613 C612 1.391 . S
C614 H604 0.950 . S
C614 C615 1.386 . S
C614 C616 1.391 . S
C615 C614 1.386 . S
C615 C619 1.393 . S
C616 H605 0.950 . S
C616 C614 1.391 . S
C616 C617 1.400 . S
C617 C611 1.491 . S
C617 C616 1.400 . S
C617 C618 1.398 . S
C618 H606 0.950 . S
C618 C617 1.398 . S
C618 C619 1.391 . S
C619 H607 0.950 . S
C619 C615 1.393 . S
C619 C618 1.391 . S
H620 C628 0.950 . S
H621 C633 0.950 . S
H622 C630 0.950 . S
H623 C632 0.950 . S
H624 C634 0.950 . S
H625 C636 0.950 . S
H626 C638 0.950 . S
H627 C639 0.950 . S
C628 H620 0.950 . S
C628 C629 1.386 . S
C628 C630 1.391 . S
C629 C628 1.386 . S
C629 C633 1.393 . S
C630 H622 0.950 . S
C630 C628 1.391 . S
C630 C631 1.400 . S
C631 C630 1.400 . S
C631 C632 1.398 . S
C631 C637 1.491 . S
C632 H623 0.950 . S
C632 C631 1.398 . S
C632 C633 1.391 . S
C633 H621 0.950 . S
C633 C629 1.393 . S
C633 C632 1.391 . S
C634 H624 0.950 . S
C634 C635 1.386 . S
C634 C636 1.391 . S
C635 C634 1.386 . S
C635 C639 1.393 . S
C636 H625 0.950 . S
C636 C634 1.391 . S
C636 C637 1.400 . S
C637 C631 1.491 . S
C637 C636 1.400 . S
C637 C638 1.398 . S
C638 H626 0.950 . S
C638 C637 1.398 . S
C638 C639 1.391 . S
C639 H627 0.950 . S
C639 C635 1.393 . S
C639 C638 1.391 . S
H640 C648 0.950 . S
H641 C653 0.950 . S
H642 C650 0.950 . S
H643 C652 0.950 . S
H644 C654 0.950 . S
H645 C656 0.950 . S
H646 C658 0.950 . S
H647 C659 0.950 . S
C648 H640 0.950 . S
C648 C649 1.386 . S
C648 C650 1.391 . S
C649 C648 1.386 . S
C649 C653 1.393 . S
C650 H642 0.950 . S
C650 C648 1.391 . S
C650 C651 1.400 . S
C651 C650 1.400 . S
C651 C652 1.398 . S
C651 C657 1.491 . S
C652 H643 0.950 . S
C652 C651 1.398 . S
C652 C653 1.391 . S
C653 H641 0.950 . S
C653 C649 1.393 . S
C653 C652 1.391 . S
C654 H644 0.950 . S
C654 C655 1.386 . S
C654 C656 1.391 . S
C655 C654 1.386 . S
C655 C659 1.393 . S
C656 H645 0.950 . S
C656 C654 1.391 . S
C656 C657 1.400 . S
C657 C651 1.491 . S
C657 C656 1.400 . S
C657 C658 1.398 . S
C658 H646 0.950 . S
C658 C657 1.398 . S
C658 C659 1.391 . S
C659 H647 0.950 . S
C659 C655 1.393 . S
C659 C658 1.391 . S
H660 C668 0.950 . S
H661 C673 0.950 . S
H662 C670 0.950 . S
H663 C672 0.950 . S
H664 C674 0.950 . S
H665 C676 0.950 . S
H666 C678 0.950 . S
H667 C679 0.950 . S
C668 H660 0.950 . S
C668 C669 1.386 . S
C668 C670 1.391 . S
C669 C668 1.386 . S
C669 C673 1.393 . S
C670 H662 0.950 . S
C670 C668 1.391 . S
C670 C671 1.400 . S
C671 C670 1.400 . S
C671 C672 1.398 . S
C671 C677 1.491 . S
C672 H663 0.950 . S
C672 C671 1.398 . S
C672 C673 1.391 . S
C673 H661 0.950 . S
C673 C669 1.393 . S
C673 C672 1.391 . S
C674 H664 0.950 . S
C674 C675 1.386 . S
C674 C676 1.391 . S
C675 C674 1.386 . S
C675 C679 1.393 . S
C676 H665 0.950 . S
C676 C674 1.391 . S
C676 C677 1.400 . S
C677 C671 1.491 . S
C677 C676 1.400 . S
C677 C678 1.398 . S
C678 H666 0.950 . S
C678 C677 1.398 . S
C678 C679 1.391 . S
C679 H667 0.950 . S
C679 C675 1.393 . S
C679 C678 1.391 . S
C209 C45 1.560 . S
C215 C108 1.571 . S
C229 C30 1.569 . S
C235 C120 1.579 . S
C249 C39 1.569 . S
C255 C132 1.563 . S
C275 C144 1.575 . S
C269 C34 1.570 . S
C289 C97 1.556 . S
C295 C156 1.565 . S
C315 C168 1.557 . S
C309 C82 1.563 . S
C335 C180 1.555 . S
C329 C91 1.562 . S
C355 C192 1.572 . S
C349 C86 1.568 . S
C375 C185 1.539 . S
C369 C26 1.505 . S
C395 C194 1.511 . S
C389 C36 1.476 . S
C415 C158 1.529 . S
C409 C32 1.499 . S
C435 C173 1.556 . S
C429 C42 1.512 . S
C449 C18 1.544 . S
C455 C170 1.620 . S
C475 C182 1.641 . S
C469 C50 1.573 . S
C489 C4 1.599 . S
C495 C197 1.646 . S
C509 C48 1.593 . S
C515 C161 1.636 . S
C535 C137 1.568 . S
C529 C78 1.533 . S
C549 C88 1.476 . S
C555 C146 1.515 . S
C575 C110 1.545 . S
C569 C84 1.508 . S
C595 C122 1.479 . S
C589 C94 1.446 . S
C615 C125 1.686 . S
C609 C70 1.643 . S
C635 C134 1.619 . S
C629 C102 1.555 . S
C649 C56 1.582 . S
C655 C149 1.628 . S
C669 C100 1.559 . S
C675 C113 1.604 . S
