# Generated by pormake.
# Topology zzz, (3,6)-cn, num edge types: 1
# Building blocks:
#     Node 0, Type 0, BuildingBlock: BETDIP_clean_linker_0, # of connection points: 3
#     Node 1, Type 0, BuildingBlock: BETDIP_clean_linker_0, # of connection points: 3
#     Node 2, Type 0, BuildingBlock: BETDIP_clean_linker_0, # of connection points: 3
#     Node 3, Type 0, BuildingBlock: BETDIP_clean_linker_0, # of connection points: 3
#     Node 4, Type 0, BuildingBlock: BETDIP_clean_linker_0, # of connection points: 3
#     Node 5, Type 0, BuildingBlock: BETDIP_clean_linker_0, # of connection points: 3
#     Node 6, Type 0, BuildingBlock: BETDIP_clean_linker_0, # of connection points: 3
#     Node 7, Type 0, BuildingBlock: BETDIP_clean_linker_0, # of connection points: 3
#     Node 8, Type 1, BuildingBlock: CIFDUS_clean_sbu_1, # of connection points: 6
#     Node 9, Type 1, BuildingBlock: CIFDUS_clean_sbu_1, # of connection points: 6
#     Node 10, Type 1, BuildingBlock: CIFDUS_clean_sbu_1, # of connection points: 6
#     Node 11, Type 1, BuildingBlock: CIFDUS_clean_sbu_1, # of connection points: 6
#     Edge 12, Type (0, 1), BuildingBlock: EYOCIG_clean_linker_4, # of connection points: 2
#     Edge 13, Type (0, 1), BuildingBlock: EYOCIG_clean_linker_4, # of connection points: 2
#     Edge 14, Type (0, 1), BuildingBlock: EYOCIG_clean_linker_4, # of connection points: 2
#     Edge 15, Type (0, 1), BuildingBlock: EYOCIG_clean_linker_4, # of connection points: 2
#     Edge 16, Type (0, 1), BuildingBlock: EYOCIG_clean_linker_4, # of connection points: 2
#     Edge 17, Type (0, 1), BuildingBlock: EYOCIG_clean_linker_4, # of connection points: 2
#     Edge 18, Type (0, 1), BuildingBlock: EYOCIG_clean_linker_4, # of connection points: 2
#     Edge 19, Type (0, 1), BuildingBlock: EYOCIG_clean_linker_4, # of connection points: 2
#     Edge 20, Type (0, 1), BuildingBlock: EYOCIG_clean_linker_4, # of connection points: 2
#     Edge 21, Type (0, 1), BuildingBlock: EYOCIG_clean_linker_4, # of connection points: 2
#     Edge 22, Type (0, 1), BuildingBlock: EYOCIG_clean_linker_4, # of connection points: 2
#     Edge 23, Type (0, 1), BuildingBlock: EYOCIG_clean_linker_4, # of connection points: 2
#     Edge 24, Type (0, 1), BuildingBlock: EYOCIG_clean_linker_4, # of connection points: 2
#     Edge 25, Type (0, 1), BuildingBlock: EYOCIG_clean_linker_4, # of connection points: 2
#     Edge 26, Type (0, 1), BuildingBlock: EYOCIG_clean_linker_4, # of connection points: 2
#     Edge 27, Type (0, 1), BuildingBlock: EYOCIG_clean_linker_4, # of connection points: 2
#     Edge 28, Type (0, 1), BuildingBlock: EYOCIG_clean_linker_4, # of connection points: 2
#     Edge 29, Type (0, 1), BuildingBlock: EYOCIG_clean_linker_4, # of connection points: 2
#     Edge 30, Type (0, 1), BuildingBlock: EYOCIG_clean_linker_4, # of connection points: 2
#     Edge 31, Type (0, 1), BuildingBlock: EYOCIG_clean_linker_4, # of connection points: 2
#     Edge 32, Type (0, 1), BuildingBlock: EYOCIG_clean_linker_4, # of connection points: 2
#     Edge 33, Type (0, 1), BuildingBlock: EYOCIG_clean_linker_4, # of connection points: 2
#     Edge 34, Type (0, 1), BuildingBlock: EYOCIG_clean_linker_4, # of connection points: 2
#     Edge 35, Type (0, 1), BuildingBlock: EYOCIG_clean_linker_4, # of connection points: 2
# Relax obj value: 0.135
# Max RMSD: 0.183
# Mean RMSD: 0.106
data_MOF--net-zzz--node1-CIFDUS_clean_sbu_1--node2-BETDIP_clean_linker_0--edge1-EYOCIG_clean_linker_4
_symmetry_space_group_name_H-M    P1
_symmetry_Int_Tables_number       1
_symmetry_cell_setting            triclinic
loop_
_symmetry_equiv_pos_as_xyz
'x, y, z'
_cell_length_a     39.556412
_cell_length_b     39.572198
_cell_length_c     12.556006
_cell_angle_alpha  89.970848
_cell_angle_beta   90.032521
_cell_angle_gamma 90.066035
loop_
_atom_site_label
_atom_site_type_symbol
_atom_site_fract_x
_atom_site_fract_y
_atom_site_fract_z
_atom_type_partial_charge
H0 H 0.77651 0.55178 0.30214 0.0
H1 H 0.78291 0.55897 0.95882 0.0
H2 H 0.873 0.56114 0.1461 0.0
H3 H 0.73395 0.59057 0.9874 0.0
C4 C 0.7214 0.57112 0.03391 0.0
C5 C 0.79129 0.55489 0.23024 0.0
C6 C 0.82706 0.55697 0.23625 0.0
C7 C 0.7748 0.55709 0.12966 0.0
C8 C 0.79451 0.55986 0.03703 0.0
C9 C 0.82943 0.56152 0.04433 0.0
C10 C 0.84554 0.56054 0.14274 0.0
N11 N 0.73882 0.55531 0.12045 0.0
H12 H 0.9792 0.77566 0.30452 0.0
H13 H 0.97273 0.78265 0.96115 0.0
H14 H 0.97095 0.87241 0.14947 0.0
H15 H 0.94066 0.73391 0.98809 0.0
C16 C 0.95984 0.72116 0.0351 0.0
C17 C 0.97632 0.79056 0.23276 0.0
C18 C 0.97458 0.82633 0.23913 0.0
C19 C 0.97414 0.77426 0.13193 0.0
C20 C 0.97176 0.79412 0.03949 0.0
C21 C 0.9704 0.82901 0.04722 0.0
C22 C 0.97131 0.84496 0.1458 0.0
N23 N 0.97557 0.7383 0.12231 0.0
H24 H 0.75424 0.98 0.30038 0.0
H25 H 0.74958 0.97225 0.95694 0.0
H26 H 0.6585 0.97092 0.13926 0.0
H27 H 0.79831 0.94049 0.98913 0.0
C28 C 0.81064 0.9601 0.03553 0.0
C29 C 0.73981 0.97686 0.22776 0.0
C30 C 0.704 0.97495 0.23192 0.0
C31 C 0.7568 0.97445 0.12812 0.0
C32 C 0.73757 0.97158 0.03451 0.0
C33 C 0.70262 0.97009 0.03988 0.0
C34 C 0.68598 0.97137 0.1374 0.0
N35 N 0.79283 0.97614 0.12074 0.0
H36 H 0.55323 0.75592 0.30602 0.0
H37 H 0.55808 0.74938 0.9623 0.0
H38 H 0.56008 0.65934 0.14958 0.0
H39 H 0.59029 0.79796 0.98771 0.0
C40 C 0.57159 0.81078 0.03633 0.0
C41 C 0.55569 0.7411 0.23397 0.0
C42 C 0.55717 0.70532 0.23987 0.0
C43 C 0.55754 0.75755 0.13325 0.0
C44 C 0.55932 0.7378 0.04047 0.0
C45 C 0.56044 0.70288 0.04779 0.0
C46 C 0.55991 0.68681 0.14622 0.0
N47 N 0.55631 0.79355 0.12419 0.0
H48 H 0.25771 0.463 0.10144 0.0
H49 H 0.24864 0.46196 0.44536 0.0
H50 H 0.16013 0.46823 0.25208 0.0
H51 H 0.29463 0.49743 0.42395 0.0
C52 C 0.30915 0.47958 0.37686 0.0
C53 C 0.24234 0.46266 0.17273 0.0
C54 C 0.20657 0.46426 0.16466 0.0
C55 C 0.25803 0.46231 0.27485 0.0
C56 C 0.23759 0.46225 0.36634 0.0
C57 C 0.20284 0.46489 0.35662 0.0
C58 C 0.18743 0.46537 0.25727 0.0
N59 N 0.29397 0.46359 0.28657 0.0
H60 H 0.06547 0.25687 0.10397 0.0
H61 H 0.07191 0.24812 0.44731 0.0
H62 H 0.06531 0.15929 0.25577 0.0
H63 H 0.0346 0.29288 0.43075 0.0
C64 C 0.05121 0.30795 0.3808 0.0
C65 C 0.0673 0.24156 0.17523 0.0
C66 C 0.0667 0.20579 0.1676 0.0
C67 C 0.06866 0.25732 0.27703 0.0
C68 C 0.0708 0.23697 0.36856 0.0
C69 C 0.06912 0.20212 0.35962 0.0
C70 C 0.06748 0.18665 0.26043 0.0
N71 N 0.06638 0.29319 0.28854 0.0
H72 H 0.27456 0.06743 0.10248 0.0
H73 H 0.28296 0.07057 0.44637 0.0
H74 H 0.37194 0.06406 0.25549 0.0
H75 H 0.23765 0.03381 0.42495 0.0
C76 C 0.22292 0.05136 0.37725 0.0
C77 C 0.28981 0.06836 0.17405 0.0
C78 C 0.3256 0.06712 0.16682 0.0
C79 C 0.27393 0.06911 0.27577 0.0
C80 C 0.2942 0.06999 0.36768 0.0
C81 C 0.32902 0.06768 0.359 0.0
C82 C 0.34461 0.06671 0.25994 0.0
N83 N 0.238 0.06737 0.28683 0.0
H84 H 0.46607 0.27408 0.10207 0.0
H85 H 0.4596 0.28268 0.44542 0.0
H86 H 0.467 0.37156 0.25416 0.0
H87 H 0.49657 0.23769 0.42903 0.0
C88 C 0.47987 0.22275 0.37895 0.0
C89 C 0.46438 0.28935 0.17338 0.0
C90 C 0.46527 0.32512 0.16587 0.0
C91 C 0.46288 0.27355 0.27513 0.0
C92 C 0.46087 0.29387 0.3667 0.0
C93 C 0.46282 0.3287 0.35786 0.0
C94 C 0.46465 0.34421 0.25874 0.0
N95 N 0.46486 0.23765 0.28657 0.0
O96 O 0.03491 0.05685 0.80381 0.0
Mn97 Mn 0.0167 0.01681 0.70616 0.0
O98 O 0.99171 0.09376 0.81934 0.0
Mn99 Mn 0.96204 0.0714 0.72944 0.0
O100 O 0.99872 0.97649 0.60792 0.0
O101 O 0.06519 0.00608 0.66368 0.0
Mn102 Mn 0.07192 0.96236 0.67928 0.0
O103 O 0.0168 0.9844 0.83264 0.0
O104 O 0.04303 0.94124 0.5846 0.0
O105 O 0.01684 0.0494 0.57969 0.0
O106 O 0.96916 0.07918 0.58689 0.0
O107 O 0.11226 0.97905 0.63078 0.0
O108 O 0.06304 0.95231 0.81971 0.0
C109 C 0.93733 0.02789 0.78754 0.0
C110 C 0.02193 0.0847 0.83904 0.0
C111 C 0.0124 0.94951 0.56828 0.0
C112 C 0.09592 0.00732 0.6272 0.0
C113 C 0.03396 0.95848 0.85771 0.0
C114 C 0.99848 0.07399 0.54994 0.0
O115 O 0.96812 0.02772 0.75052 0.0
O116 O 0.92169 0.05651 0.78155 0.0
O117 O 0.54779 0.01675 0.83235 0.0
Mn118 Mn 0.51475 0.01656 0.70735 0.0
O119 O 0.58028 0.06263 0.81644 0.0
Mn120 Mn 0.56937 0.07158 0.67671 0.0
O121 O 0.48129 0.01653 0.58296 0.0
O122 O 0.5039 0.96817 0.75361 0.0
Mn123 Mn 0.46028 0.96168 0.73237 0.0
O124 O 0.47517 0.03486 0.80641 0.0
O125 O 0.45328 0.96776 0.58897 0.0
O126 O 0.55451 0.99841 0.60703 0.0
O127 O 0.58977 0.04265 0.58092 0.0
O128 O 0.47536 0.92176 0.78722 0.0
O129 O 0.43768 0.99196 0.81971 0.0
C130 C 0.52427 0.09562 0.6265 0.0
C131 C 0.57429 0.03349 0.85435 0.0
C132 C 0.4576 0.99718 0.55181 0.0
C133 C 0.50395 0.93757 0.79197 0.0
C134 C 0.44703 0.02206 0.84032 0.0
C135 C 0.58129 0.01203 0.56542 0.0
O136 O 0.5255 0.06495 0.66351 0.0
O137 O 0.55263 0.11191 0.62876 0.0
O138 O 0.51538 0.54723 0.83032 0.0
Mn139 Mn 0.51522 0.51433 0.70505 0.0
O140 O 0.46842 0.57834 0.81918 0.0
Mn141 Mn 0.45981 0.56868 0.67836 0.0
O142 O 0.51483 0.48137 0.57967 0.0
O143 O 0.56384 0.50346 0.74913 0.0
Mn144 Mn 0.56982 0.45973 0.72915 0.0
O145 O 0.49708 0.47452 0.80384 0.0
O146 O 0.56245 0.45146 0.58701 0.0
O147 O 0.53306 0.55443 0.60579 0.0
O148 O 0.48885 0.59 0.58448 0.0
O149 O 0.61028 0.47465 0.78032 0.0
O150 O 0.54026 0.4376 0.81989 0.0
C151 C 0.43604 0.52362 0.62592 0.0
C152 C 0.49767 0.57265 0.85668 0.0
C153 C 0.53313 0.45674 0.55004 0.0
C154 C 0.59469 0.5033 0.78578 0.0
C155 C 0.51006 0.4467 0.83943 0.0
C156 C 0.5194 0.58159 0.56717 0.0
O157 O 0.46674 0.52502 0.66258 0.0
O158 O 0.41959 0.55183 0.62915 0.0
O159 O 0.05712 0.49673 0.80386 0.0
Mn160 Mn 0.017 0.51527 0.70711 0.0
O161 O 0.09399 0.53992 0.82165 0.0
Mn162 Mn 0.07149 0.56994 0.73318 0.0
O163 O 0.97665 0.53357 0.60938 0.0
O164 O 0.00634 0.46682 0.66302 0.0
Mn165 Mn 0.96248 0.46037 0.67747 0.0
O166 O 0.98482 0.51459 0.83412 0.0
O167 O 0.94176 0.48917 0.58199 0.0
O168 O 0.04952 0.51598 0.58059 0.0
O169 O 0.07909 0.56387 0.59012 0.0
O170 O 0.97874 0.41994 0.62963 0.0
O171 O 0.95168 0.4692 0.81731 0.0
C172 C 0.02791 0.59438 0.79086 0.0
C173 C 0.08498 0.50958 0.83981 0.0
C174 C 0.94993 0.51992 0.56761 0.0
C175 C 0.00719 0.43605 0.62649 0.0
C176 C 0.95824 0.49803 0.85651 0.0
C177 C 0.0736 0.53498 0.55034 0.0
O178 O 0.0278 0.56368 0.75329 0.0
O179 O 0.05661 0.61002 0.78672 0.0
C180 C 0.16172 0.05753 0.45841 0.0
C181 C 0.18872 0.0578 0.41279 0.0
C182 C 0.13249 0.04994 0.51996 0.0
C183 C 0.11115 0.03536 0.57174 0.0
C184 C 0.47401 0.16122 0.45777 0.0
C185 C 0.4737 0.18832 0.41279 0.0
C186 C 0.48157 0.132 0.51933 0.0
C187 C 0.49615 0.11074 0.57132 0.0
C188 C 0.37032 0.47314 0.45808 0.0
C189 C 0.3433 0.47293 0.41255 0.0
C190 C 0.39959 0.48077 0.51939 0.0
C191 C 0.42092 0.49546 0.5709 0.0
C192 C 0.05684 0.36957 0.45931 0.0
C193 C 0.05717 0.34241 0.41472 0.0
C194 C 0.04946 0.39898 0.52011 0.0
C195 C 0.03512 0.42052 0.57154 0.0
C196 C 0.87038 0.97747 0.9568 0.0
C197 C 0.84385 0.97069 0.00019 0.0
C198 C 0.89953 0.98696 0.89756 0.0
C199 C 0.92121 1.00091 0.84543 0.0
C200 C 0.55493 0.87094 0.95967 0.0
C201 C 0.56155 0.84426 0.00227 0.0
C202 C 0.54536 0.90016 0.90103 0.0
C203 C 0.53122 0.92173 0.84914 0.0
C204 C 0.66176 0.55386 0.95419 0.0
C205 C 0.68823 0.56062 -0.00206 0.0
C206 C 0.63262 0.54435 0.89484 0.0
C207 C 0.61091 0.53035 0.84302 0.0
C208 C 0.97679 0.66145 0.95595 0.0
C209 C 0.97009 0.68796 -0.0007 0.0
C210 C 0.98638 0.63226 0.89741 0.0
C211 C 1.00057 0.61053 0.8465 0.0
C212 C 0.05274 0.15708 0.49506 0.0
C213 C 0.06203 0.18178 0.44969 0.0
C214 C 0.03485 0.12755 0.51448 0.0
C215 C 0.01762 0.10341 0.53069 0.0
C216 C 0.37354 0.04936 0.49365 0.0
C217 C 0.34908 0.05935 0.44858 0.0
C218 C 0.4031 0.03162 0.51323 0.0
C219 C 0.42757 0.01506 0.53079 0.0
C220 C 0.47899 0.37368 0.49367 0.0
C221 C 0.46978 0.34899 0.4481 0.0
C222 C 0.49677 0.40324 0.5135 0.0
C223 C 0.51394 0.42739 0.53022 0.0
C224 C 0.15785 0.48403 0.48759 0.0
C225 C 0.18259 0.4738 0.44491 0.0
C226 C 0.12782 0.50102 0.50574 0.0
C227 C 0.10296 0.51655 0.52617 0.0
C228 C 0.98046 0.87489 0.90871 0.0
C229 C 0.97424 0.84957 0.95576 0.0
C230 C 0.99648 0.9054 0.8888 0.0
C231 C 0.01343 0.92986 0.87464 0.0
C232 C 0.65773 0.97919 0.89745 0.0
C233 C 0.68273 0.9733 0.94659 0.0
C234 C 0.62729 0.99532 0.87747 0.0
C235 C 0.60287 0.01259 0.86697 0.0
C236 C 0.54965 0.65713 0.90953 0.0
C237 C 0.5561 0.68242 0.95638 0.0
C238 C 0.53398 0.62644 0.88957 0.0
C239 C 0.51756 0.60166 0.87457 0.0
C240 C 0.87517 0.55236 0.90479 0.0
C241 C 0.84988 0.55818 0.95243 0.0
C242 C 0.90569 0.53641 0.88477 0.0
C243 C 0.92997 0.51913 0.87197 0.0
C244 C 0.05905 0.16346 0.00704 0.0
C245 C 0.06266 0.18672 0.06933 0.0
C246 C 0.05203 0.13343 0.9477 0.0
C247 C 0.04195 0.10891 0.89866 0.0
C248 C 0.3682 0.05977 0.00683 0.0
C249 C 0.34479 0.06343 0.06861 0.0
C250 C 0.39831 0.05246 0.94819 0.0
C251 C 0.42284 0.04217 0.89965 0.0
C252 C 0.47293 0.36763 0.00583 0.0
C253 C 0.46929 0.34424 0.06769 0.0
C254 C 0.47993 0.39782 0.94723 0.0
C255 C 0.48999 0.42244 0.89863 0.0
C256 C 0.16401 0.47132 0.00449 0.0
C257 C 0.18751 0.46766 0.06605 0.0
C258 C 0.13382 0.47877 0.94629 0.0
C259 C 0.10928 0.48924 0.89808 0.0
C260 C 0.97961 0.86956 0.39868 0.0
C261 C 0.9776 0.84601 0.33665 0.0
C262 C 0.98439 0.9 0.45836 0.0
C263 C 0.99291 0.92496 0.5082 0.0
C264 C 0.66025 0.97974 0.39077 0.0
C265 C 0.68376 0.97789 0.32845 0.0
C266 C 0.63006 0.98423 0.45204 0.0
C267 C 0.60538 0.99256 0.5036 0.0
C268 C 0.55232 0.66179 0.39874 0.0
C269 C 0.55433 0.68549 0.33718 0.0
C270 C 0.54745 0.63123 0.45776 0.0
C271 C 0.53886 0.60619 0.5072 0.0
C272 C 0.87036 0.55235 0.39608 0.0
C273 C 0.84687 0.55412 0.33365 0.0
C274 C 0.90068 0.54787 0.45667 0.0
C275 C 0.92554 0.53949 0.50728 0.0
loop_
_geom_bond_atom_site_label_1
_geom_bond_atom_site_label_2
_geom_bond_distance
_geom_bond_site_symmetry_2
_ccdc_geom_bond_type
H0 C5 0.930 . S
H1 C8 0.930 1_556 S
H2 C10 0.930 . S
H3 C4 1.016 1_556 S
C4 H3 1.016 1_554 S
C4 N11 1.286 . S
C5 H0 0.930 . S
C5 C6 1.397 . S
C5 C7 1.361 . S
C6 C5 1.397 . S
C6 C10 1.390 . S
C7 C5 1.361 . S
C7 C8 1.393 . S
C7 N11 1.413 . S
C8 H1 0.930 1_554 S
C8 C7 1.393 . S
C8 C9 1.399 . S
C9 C8 1.399 . S
C9 C10 1.381 . S
C10 H2 0.930 . S
C10 C6 1.390 . S
C10 C9 1.381 . S
N11 C4 1.286 . S
N11 C7 1.413 . S
H12 C17 0.930 . S
H13 C20 0.930 1_556 S
H14 C22 0.930 . S
H15 C16 1.016 1_556 S
C16 H15 1.016 1_554 S
C16 N23 1.286 . S
C17 H12 0.930 . S
C17 C18 1.397 . S
C17 C19 1.361 . S
C18 C17 1.397 . S
C18 C22 1.390 . S
C19 C17 1.361 . S
C19 C20 1.393 . S
C19 N23 1.413 . S
C20 H13 0.930 1_554 S
C20 C19 1.393 . S
C20 C21 1.399 . S
C21 C20 1.399 . S
C21 C22 1.381 . S
C22 H14 0.930 . S
C22 C18 1.390 . S
C22 C21 1.381 . S
N23 C16 1.286 . S
N23 C19 1.413 . S
H24 C29 0.930 . S
H25 C32 0.930 1_556 S
H26 C34 0.930 . S
H27 C28 1.016 1_556 S
C28 H27 1.016 1_554 S
C28 N35 1.286 . S
C29 H24 0.930 . S
C29 C30 1.397 . S
C29 C31 1.361 . S
C30 C29 1.397 . S
C30 C34 1.390 . S
C31 C29 1.361 . S
C31 C32 1.393 . S
C31 N35 1.413 . S
C32 H25 0.930 1_554 S
C32 C31 1.393 . S
C32 C33 1.399 . S
C33 C32 1.399 . S
C33 C34 1.381 . S
C34 H26 0.930 . S
C34 C30 1.390 . S
C34 C33 1.381 . S
N35 C28 1.286 . S
N35 C31 1.413 . S
H36 C41 0.930 . S
H37 C44 0.930 1_556 S
H38 C46 0.930 . S
H39 C40 1.016 1_556 S
C40 H39 1.016 1_554 S
C40 N47 1.286 . S
C41 H36 0.930 . S
C41 C42 1.397 . S
C41 C43 1.361 . S
C42 C41 1.397 . S
C42 C46 1.390 . S
C43 C41 1.361 . S
C43 C44 1.393 . S
C43 N47 1.413 . S
C44 H37 0.930 1_554 S
C44 C43 1.393 . S
C44 C45 1.399 . S
C45 C44 1.399 . S
C45 C46 1.381 . S
C46 H38 0.930 . S
C46 C42 1.390 . S
C46 C45 1.381 . S
N47 C40 1.286 . S
N47 C43 1.413 . S
H48 C53 0.930 . S
H49 C56 0.930 . S
H50 C58 0.930 . S
H51 C52 1.016 . S
C52 H51 1.016 . S
C52 N59 1.286 . S
C53 H48 0.930 . S
C53 C54 1.397 . S
C53 C55 1.361 . S
C54 C53 1.397 . S
C54 C58 1.390 . S
C55 C53 1.361 . S
C55 C56 1.393 . S
C55 N59 1.413 . S
C56 H49 0.930 . S
C56 C55 1.393 . S
C56 C57 1.399 . S
C57 C56 1.399 . S
C57 C58 1.381 . S
C58 H50 0.930 . S
C58 C54 1.390 . S
C58 C57 1.381 . S
N59 C52 1.286 . S
N59 C55 1.413 . S
H60 C65 0.930 . S
H61 C68 0.930 . S
H62 C70 0.930 . S
H63 C64 1.016 . S
C64 H63 1.016 . S
C64 N71 1.286 . S
C65 H60 0.930 . S
C65 C66 1.397 . S
C65 C67 1.361 . S
C66 C65 1.397 . S
C66 C70 1.390 . S
C67 C65 1.361 . S
C67 C68 1.393 . S
C67 N71 1.413 . S
C68 H61 0.930 . S
C68 C67 1.393 . S
C68 C69 1.399 . S
C69 C68 1.399 . S
C69 C70 1.381 . S
C70 H62 0.930 . S
C70 C66 1.390 . S
C70 C69 1.381 . S
N71 C64 1.286 . S
N71 C67 1.413 . S
H72 C77 0.930 . S
H73 C80 0.930 . S
H74 C82 0.930 . S
H75 C76 1.016 . S
C76 H75 1.016 . S
C76 N83 1.286 . S
C77 H72 0.930 . S
C77 C78 1.397 . S
C77 C79 1.361 . S
C78 C77 1.397 . S
C78 C82 1.390 . S
C79 C77 1.361 . S
C79 C80 1.393 . S
C79 N83 1.413 . S
C80 H73 0.930 . S
C80 C79 1.393 . S
C80 C81 1.399 . S
C81 C80 1.399 . S
C81 C82 1.381 . S
C82 H74 0.930 . S
C82 C78 1.390 . S
C82 C81 1.381 . S
N83 C76 1.286 . S
N83 C79 1.413 . S
H84 C89 0.930 . S
H85 C92 0.930 . S
H86 C94 0.930 . S
H87 C88 1.016 . S
C88 H87 1.016 . S
C88 N95 1.286 . S
C89 H84 0.930 . S
C89 C90 1.397 . S
C89 C91 1.361 . S
C90 C89 1.397 . S
C90 C94 1.390 . S
C91 C89 1.361 . S
C91 C92 1.393 . S
C91 N95 1.413 . S
C92 H85 0.930 . S
C92 C91 1.393 . S
C92 C93 1.399 . S
C93 C92 1.399 . S
C93 C94 1.381 . S
C94 H86 0.930 . S
C94 C90 1.390 . S
C94 C93 1.381 . S
N95 C88 1.286 . S
N95 C91 1.413 . S
O96 Mn97 2.163 . S
O96 C110 1.244 . S
Mn97 O96 2.163 . S
Mn97 O100 2.160 1_445 S
Mn97 O101 2.221 1_545 S
Mn97 O103 2.163 1_545 S
Mn97 O105 2.160 . S
Mn97 O115 2.221 1_455 S
O98 Mn99 2.087 . S
O98 C110 1.256 1_655 S
Mn99 O98 2.087 . S
Mn99 O106 2.089 . S
Mn99 O115 2.290 . S
Mn99 O116 2.251 . S
O100 Mn97 2.160 1_665 S
O100 C111 1.239 . S
O101 Mn97 2.221 1_565 S
O101 Mn102 2.290 . S
O101 C112 1.278 . S
Mn102 O101 2.290 . S
Mn102 O104 2.089 . S
Mn102 O107 2.251 . S
Mn102 O108 2.087 . S
O103 Mn97 2.163 1_565 S
O103 C113 1.244 . S
O104 Mn102 2.089 . S
O104 C111 1.256 1_455 S
O105 Mn97 2.160 . S
O105 C114 1.248 . S
O106 Mn99 2.089 . S
O106 C114 1.237 1_655 S
O107 Mn102 2.251 . S
O107 C112 1.249 . S
O108 Mn102 2.087 . S
O108 C113 1.256 . S
C109 O115 1.278 . S
C109 O116 1.241 . S
C110 O96 1.244 . S
C110 O98 1.256 1_455 S
C111 O100 1.239 . S
C111 O104 1.256 1_655 S
C112 O101 1.278 . S
C112 O107 1.249 . S
C113 O103 1.244 . S
C113 O108 1.256 . S
C114 O105 1.248 . S
C114 O106 1.237 1_455 S
O115 Mn97 2.221 1_655 S
O115 Mn99 2.290 . S
O115 C109 1.278 . S
O116 Mn99 2.251 . S
O116 C109 1.241 . S
O117 Mn118 2.163 . S
O117 C131 1.244 . S
Mn118 O117 2.163 . S
Mn118 O121 2.160 . S
Mn118 O122 2.221 1_545 S
Mn118 O124 2.163 . S
Mn118 O126 2.160 1_545 S
Mn118 O136 2.221 . S
O119 Mn120 2.087 . S
O119 C131 1.256 . S
Mn120 O119 2.087 . S
Mn120 O127 2.089 . S
Mn120 O136 2.290 . S
Mn120 O137 2.251 . S
O121 Mn118 2.160 . S
O121 C132 1.239 . S
O122 Mn118 2.221 1_565 S
O122 Mn123 2.290 . S
O122 C133 1.278 . S
Mn123 O122 2.290 . S
Mn123 O125 2.089 . S
Mn123 O128 2.251 . S
Mn123 O129 2.087 . S
O124 Mn118 2.163 . S
O124 C134 1.244 . S
O125 Mn123 2.089 . S
O125 C132 1.256 1_565 S
O126 Mn118 2.160 1_565 S
O126 C135 1.239 . S
O127 Mn120 2.089 . S
O127 C135 1.256 1_545 S
O128 Mn123 2.251 . S
O128 C133 1.241 . S
O129 Mn123 2.087 . S
O129 C134 1.256 1_565 S
C130 O136 1.278 . S
C130 O137 1.241 . S
C131 O117 1.244 . S
C131 O119 1.256 . S
C132 O121 1.239 . S
C132 O125 1.256 1_545 S
C133 O122 1.278 . S
C133 O128 1.241 . S
C134 O124 1.244 . S
C134 O129 1.256 1_545 S
C135 O126 1.239 . S
C135 O127 1.256 1_565 S
O136 Mn118 2.221 . S
O136 Mn120 2.290 . S
O136 C130 1.278 . S
O137 Mn120 2.251 . S
O137 C130 1.241 . S
O138 Mn139 2.163 . S
O138 C152 1.244 . S
Mn139 O138 2.163 . S
Mn139 O142 2.160 . S
Mn139 O143 2.221 . S
Mn139 O145 2.163 . S
Mn139 O147 2.160 . S
Mn139 O157 2.221 . S
O140 Mn141 2.087 . S
O140 C152 1.256 . S
Mn141 O140 2.087 . S
Mn141 O148 2.089 . S
Mn141 O157 2.290 . S
Mn141 O158 2.251 . S
O142 Mn139 2.160 . S
O142 C153 1.239 . S
O143 Mn139 2.221 . S
O143 Mn144 2.290 . S
O143 C154 1.278 . S
Mn144 O143 2.290 . S
Mn144 O146 2.089 . S
Mn144 O149 2.251 . S
Mn144 O150 2.087 . S
O145 Mn139 2.163 . S
O145 C155 1.244 . S
O146 Mn144 2.089 . S
O146 C153 1.256 . S
O147 Mn139 2.160 . S
O147 C156 1.239 . S
O148 Mn141 2.089 . S
O148 C156 1.256 . S
O149 Mn144 2.251 . S
O149 C154 1.241 . S
O150 Mn144 2.087 . S
O150 C155 1.256 . S
C151 O157 1.278 . S
C151 O158 1.241 . S
C152 O138 1.244 . S
C152 O140 1.256 . S
C153 O142 1.239 . S
C153 O146 1.256 . S
C154 O143 1.278 . S
C154 O149 1.241 . S
C155 O145 1.244 . S
C155 O150 1.256 . S
C156 O147 1.239 . S
C156 O148 1.256 . S
O157 Mn139 2.221 . S
O157 Mn141 2.290 . S
O157 C151 1.278 . S
O158 Mn141 2.251 . S
O158 C151 1.241 . S
O159 Mn160 2.163 . S
O159 C173 1.244 . S
Mn160 O159 2.163 . S
Mn160 O163 2.160 1_455 S
Mn160 O164 2.221 1_455 S
Mn160 O166 2.163 1_455 S
Mn160 O168 2.160 . S
Mn160 O178 2.221 . S
O161 Mn162 2.087 . S
O161 C173 1.256 . S
Mn162 O161 2.087 . S
Mn162 O169 2.089 . S
Mn162 O178 2.290 . S
Mn162 O179 2.251 . S
O163 Mn160 2.160 1_655 S
O163 C174 1.239 . S
O164 Mn160 2.221 1_655 S
O164 Mn165 2.290 . S
O164 C175 1.278 . S
Mn165 O164 2.290 . S
Mn165 O167 2.089 . S
Mn165 O170 2.251 . S
Mn165 O171 2.087 . S
O166 Mn160 2.163 1_655 S
O166 C176 1.244 . S
O167 Mn165 2.089 . S
O167 C174 1.256 . S
O168 Mn160 2.160 . S
O168 C177 1.239 . S
O169 Mn162 2.089 . S
O169 C177 1.256 . S
O170 Mn165 2.251 . S
O170 C175 1.254 . S
O171 Mn165 2.087 . S
O171 C176 1.256 . S
C172 O178 1.278 . S
C172 O179 1.241 . S
C173 O159 1.244 . S
C173 O161 1.256 . S
C174 O163 1.239 . S
C174 O167 1.256 . S
C175 O164 1.278 . S
C175 O170 1.254 . S
C176 O166 1.244 . S
C176 O171 1.256 . S
C177 O168 1.239 . S
C177 O169 1.256 . S
O178 Mn160 2.221 . S
O178 Mn162 2.290 . S
O178 C172 1.278 . S
O179 Mn162 2.251 . S
O179 C172 1.241 . S
C180 C181 1.170 . S
C180 C182 1.380 . S
C181 C180 1.170 . S
C182 C180 1.380 . S
C182 C183 1.170 . S
C183 C182 1.170 . S
C184 C185 1.170 . S
C184 C186 1.380 . S
C185 C184 1.170 . S
C186 C184 1.380 . S
C186 C187 1.170 . S
C187 C186 1.170 . S
C188 C189 1.170 . S
C188 C190 1.380 . S
C189 C188 1.170 . S
C190 C188 1.380 . S
C190 C191 1.170 . S
C191 C190 1.170 . S
C192 C193 1.170 . S
C192 C194 1.380 . S
C193 C192 1.170 . S
C194 C192 1.380 . S
C194 C195 1.170 . S
C195 C194 1.170 . S
C196 C197 1.170 . S
C196 C198 1.380 . S
C197 C196 1.170 . S
C198 C196 1.380 . S
C198 C199 1.170 . S
C199 C198 1.170 . S
C200 C201 1.170 . S
C200 C202 1.380 . S
C201 C200 1.170 . S
C202 C200 1.380 . S
C202 C203 1.170 . S
C203 C202 1.170 . S
C204 C205 1.170 . S
C204 C206 1.380 . S
C205 C204 1.170 . S
C206 C204 1.380 . S
C206 C207 1.170 . S
C207 C206 1.170 . S
C208 C209 1.170 . S
C208 C210 1.380 . S
C209 C208 1.170 . S
C210 C208 1.380 . S
C210 C211 1.170 . S
C211 C210 1.170 . S
C212 C213 1.170 . S
C212 C214 1.380 . S
C213 C212 1.170 . S
C214 C212 1.380 . S
C214 C215 1.170 . S
C215 C214 1.170 . S
C216 C217 1.170 . S
C216 C218 1.380 . S
C217 C216 1.170 . S
C218 C216 1.380 . S
C218 C219 1.170 . S
C219 C218 1.170 . S
C220 C221 1.170 . S
C220 C222 1.380 . S
C221 C220 1.170 . S
C222 C220 1.380 . S
C222 C223 1.170 . S
C223 C222 1.170 . S
C224 C225 1.170 . S
C224 C226 1.380 . S
C225 C224 1.170 . S
C226 C224 1.380 . S
C226 C227 1.170 . S
C227 C226 1.170 . S
C228 C229 1.170 . S
C228 C230 1.380 . S
C229 C228 1.170 . S
C230 C228 1.380 . S
C230 C231 1.170 1_655 S
C231 C230 1.170 1_455 S
C232 C233 1.170 . S
C232 C234 1.380 . S
C233 C232 1.170 . S
C234 C232 1.380 . S
C234 C235 1.170 1_565 S
C235 C234 1.170 1_545 S
C236 C237 1.170 . S
C236 C238 1.380 . S
C237 C236 1.170 . S
C238 C236 1.380 . S
C238 C239 1.170 . S
C239 C238 1.170 . S
C240 C241 1.170 . S
C240 C242 1.380 . S
C241 C240 1.170 . S
C242 C240 1.380 . S
C242 C243 1.170 . S
C243 C242 1.170 . S
C244 C245 1.170 . S
C244 C246 1.380 . S
C245 C244 1.170 . S
C246 C244 1.380 . S
C246 C247 1.170 1_554 S
C247 C246 1.170 1_556 S
C248 C249 1.170 . S
C248 C250 1.375 1_554 S
C249 C248 1.170 . S
C250 C248 1.375 1_556 S
C250 C251 1.176 . S
C251 C250 1.176 . S
C252 C253 1.170 . S
C252 C254 1.380 1_554 S
C253 C252 1.170 . S
C254 C252 1.380 1_556 S
C254 C255 1.170 . S
C255 C254 1.170 . S
C256 C257 1.170 . S
C256 C258 1.380 . S
C257 C256 1.170 . S
C258 C256 1.380 . S
C258 C259 1.170 1_554 S
C259 C258 1.170 1_556 S
C260 C261 1.170 . S
C260 C262 1.380 . S
C261 C260 1.170 . S
C262 C260 1.380 . S
C262 C263 1.170 . S
C263 C262 1.170 . S
C264 C265 1.170 . S
C264 C266 1.380 . S
C265 C264 1.170 . S
C266 C264 1.380 . S
C266 C267 1.170 . S
C267 C266 1.170 . S
C268 C269 1.170 . S
C268 C270 1.380 . S
C269 C268 1.170 . S
C270 C268 1.380 . S
C270 C271 1.170 . S
C271 C270 1.170 . S
C272 C273 1.170 . S
C272 C274 1.380 . S
C273 C272 1.170 . S
C274 C272 1.380 . S
C274 C275 1.170 . S
C275 C274 1.170 . S
C181 C76 1.571 . S
C183 C112 1.481 1_545 S
C187 C130 1.489 . S
C185 C88 1.607 . S
C191 C151 1.507 . S
C189 C52 1.587 . S
C195 C175 1.442 1_455 S
C193 C64 1.570 . S
C199 C109 1.404 1_565 S
C197 C28 1.497 1_556 S
C201 C40 1.516 1_556 S
C203 C133 1.363 . S
C205 C4 1.478 1_556 S
C207 C154 1.393 . S
C209 C16 1.480 1_556 S
C211 C172 1.386 1_655 S
C215 C114 0.871 . S
C213 C69 0.885 . S
C219 C132 0.817 . S
C217 C81 0.873 . S
C223 C153 0.837 . S
C221 C93 0.892 . S
C225 C57 0.806 . S
C227 C177 0.865 . S
C229 C21 0.873 1_556 S
C231 C113 0.959 . S
C235 C131 0.913 . S
C233 C33 0.950 1_556 S
C239 C152 0.955 . S
C237 C45 0.877 1_556 S
C241 C9 0.881 1_556 S
C243 C176 0.956 . S
C245 C66 1.573 . S
C247 C110 1.579 . S
C249 C78 1.584 . S
C251 C134 1.579 . S
C255 C155 1.535 . S
C253 C90 1.610 . S
C259 C173 1.569 . S
C257 C54 1.575 . S
C261 C18 1.488 . S
C263 C111 1.426 . S
C267 C135 1.452 . S
C265 C30 1.453 . S
C271 C156 1.428 . S
C269 C42 1.489 . S
C273 C6 1.466 . S
C275 C174 1.463 . S
