# Generated by pormake.
# Topology anh, (6,3)-cn, num edge types: 1
# Building blocks:
#     Node 0, Type 0, BuildingBlock: INOVEN_clean_sbu_0, # of connection points: 6
#     Node 1, Type 0, BuildingBlock: INOVEN_clean_sbu_0, # of connection points: 6
#     Node 2, Type 0, BuildingBlock: INOVEN_clean_sbu_0, # of connection points: 6
#     Node 3, Type 1, BuildingBlock: ESEHIV_clean_linker_0, # of connection points: 3
#     Node 4, Type 1, BuildingBlock: ESEHIV_clean_linker_0, # of connection points: 3
#     Node 5, Type 1, BuildingBlock: ESEHIV_clean_linker_0, # of connection points: 3
#     Node 6, Type 1, BuildingBlock: ESEHIV_clean_linker_0, # of connection points: 3
#     Node 7, Type 1, BuildingBlock: ESEHIV_clean_linker_0, # of connection points: 3
#     Node 8, Type 1, BuildingBlock: ESEHIV_clean_linker_0, # of connection points: 3
#     Edge 9, Type (0, 1), BuildingBlock: XUDNAN_clean_linker_2, # of connection points: 2
#     Edge 10, Type (0, 1), BuildingBlock: XUDNAN_clean_linker_2, # of connection points: 2
#     Edge 11, Type (0, 1), BuildingBlock: XUDNAN_clean_linker_2, # of connection points: 2
#     Edge 12, Type (0, 1), BuildingBlock: XUDNAN_clean_linker_2, # of connection points: 2
#     Edge 13, Type (0, 1), BuildingBlock: XUDNAN_clean_linker_2, # of connection points: 2
#     Edge 14, Type (0, 1), BuildingBlock: XUDNAN_clean_linker_2, # of connection points: 2
#     Edge 15, Type (0, 1), BuildingBlock: XUDNAN_clean_linker_2, # of connection points: 2
#     Edge 16, Type (0, 1), BuildingBlock: XUDNAN_clean_linker_2, # of connection points: 2
#     Edge 17, Type (0, 1), BuildingBlock: XUDNAN_clean_linker_2, # of connection points: 2
#     Edge 18, Type (0, 1), BuildingBlock: XUDNAN_clean_linker_2, # of connection points: 2
#     Edge 19, Type (0, 1), BuildingBlock: XUDNAN_clean_linker_2, # of connection points: 2
#     Edge 20, Type (0, 1), BuildingBlock: XUDNAN_clean_linker_2, # of connection points: 2
#     Edge 21, Type (0, 1), BuildingBlock: XUDNAN_clean_linker_2, # of connection points: 2
#     Edge 22, Type (0, 1), BuildingBlock: XUDNAN_clean_linker_2, # of connection points: 2
#     Edge 23, Type (0, 1), BuildingBlock: XUDNAN_clean_linker_2, # of connection points: 2
#     Edge 24, Type (0, 1), BuildingBlock: XUDNAN_clean_linker_2, # of connection points: 2
#     Edge 25, Type (0, 1), BuildingBlock: XUDNAN_clean_linker_2, # of connection points: 2
#     Edge 26, Type (0, 1), BuildingBlock: XUDNAN_clean_linker_2, # of connection points: 2
# Relax obj value: 0.211
# Max RMSD: 0.230
# Mean RMSD: 0.166
data_MOF--net-anh--node1-INOVEN_clean_sbu_0--node2-ESEHIV_clean_linker_0--edge1-XUDNAN_clean_linker_2
_symmetry_space_group_name_H-M    P1
_symmetry_Int_Tables_number       1
_symmetry_cell_setting            triclinic
loop_
_symmetry_equiv_pos_as_xyz
'x, y, z'
_cell_length_a     29.471038
_cell_length_b     35.086429
_cell_length_c     51.940347
_cell_angle_alpha  92.907515
_cell_angle_beta   88.95205
_cell_angle_gamma 130.12218
loop_
_atom_site_label
_atom_site_type_symbol
_atom_site_fract_x
_atom_site_fract_y
_atom_site_fract_z
_atom_type_partial_charge
Gd0 Gd 0.13061 0.5019 0.1495 0.0
Gd1 Gd 0.07011 0.54192 0.1559 0.0
C2 C 0.21104 0.62442 0.15444 0.0
C3 C 0.20608 0.49048 0.14078 0.0
C4 C 0.26777 0.52711 0.1498 0.0
C5 C 0.282 0.54345 0.17598 0.0
C6 C 0.3126 0.55108 0.13173 0.0
C7 C 0.38687 0.597 0.16639 0.0
C8 C 0.37134 0.58668 0.13983 0.0
C9 C 0.34116 0.57853 0.18418 0.0
C10 C 0.10685 0.5097 0.19918 0.0
C11 C 0.99104 0.42083 0.14896 0.0
C12 C 1.01571 0.5662 0.18099 0.0
C13 C 0.95285 0.5366 0.1846 0.0
C14 C 0.91429 0.49468 0.16798 0.0
C15 C 0.93166 0.54426 0.20686 0.0
C16 C 0.832 0.47065 0.19426 0.0
C17 C 0.87098 0.51156 0.21155 0.0
C18 C 0.85433 0.4616 0.17292 0.0
C19 C 0.0749 0.53077 0.10333 0.0
O20 O 0.21018 0.58624 0.15065 0.0
O21 O 0.16146 0.61684 0.15767 0.0
O22 O 0.16663 0.46653 0.15869 0.0
O23 O 0.19094 0.50585 0.12309 0.0
O24 O 0.09771 0.47082 0.18905 0.0
O25 O 0.12713 0.54175 0.1824 0.0
O26 O 0.99375 0.45789 0.15869 0.0
O27 O 1.03884 0.42987 0.13952 0.0
O28 O 1.03461 0.58018 0.15753 0.0
O29 O 1.0356 0.54644 0.19144 0.0
O30 O 1.05049 0.54693 0.11502 0.0
O31 O 0.09537 0.52017 0.12026 0.0
H32 H 0.2477 0.52813 0.19026 0.0
H33 H 0.30229 0.54145 0.1113 0.0
H34 H 0.40411 0.60199 0.125 0.0
H35 H 0.35094 0.58769 0.20463 0.0
H36 H 0.93054 0.48772 0.15105 0.0
H37 H 0.96183 0.57566 0.22031 0.0
H38 H 0.85408 0.51962 0.2277 0.0
H39 H 0.82487 0.43128 0.15882 0.0
Gd40 Gd 0.61895 0.01069 0.46684 0.0
Gd41 Gd 0.53711 0.03124 0.46885 0.0
C42 C 0.4741 0.91785 0.46681 0.0
C43 C 0.66576 0.97009 0.47333 0.0
C44 C 0.64047 0.9182 0.47679 0.0
C45 C 0.65546 0.8958 0.45962 0.0
C46 C 0.60069 0.89031 0.49668 0.0
C47 C 0.59606 0.82028 0.48359 0.0
C48 C 0.57895 0.84188 0.5001 0.0
C49 C 0.63327 0.84718 0.46291 0.0
C50 C 0.59493 0.02526 0.42063 0.0
C51 C 0.6824 0.12549 0.46695 0.0
C52 C 0.48986 0.07176 0.46314 0.0
C53 C 0.51342 0.12384 0.46722 0.0
C54 C 0.49414 0.13653 0.48825 0.0
C55 C 0.55691 0.16167 0.45109 0.0
C56 C 0.56159 0.22367 0.47726 0.0
C57 C 0.58111 0.2112 0.4562 0.0
C58 C 0.51795 0.18583 0.49322 0.0
C59 C 0.56528 0.01955 0.51545 0.0
O60 O 0.52749 0.93491 0.47408 0.0
O61 O 0.46684 0.94903 0.4594 0.0
O62 O 0.6569 0.97883 0.45062 0.0
O63 O 0.65941 0.99246 0.49221 0.0
O64 O 0.64679 0.04119 0.42754 0.0
O65 O 0.55698 0.99979 0.43771 0.0
O66 O 0.6272 0.10787 0.46384 0.0
O67 O 0.6927 0.09473 0.47119 0.0
O68 O 0.4833 0.04911 0.48389 0.0
O69 O 0.51156 0.06258 0.44399 0.0
O70 O 0.51213 1.00078 0.50863 0.0
O71 O 0.60095 0.04434 0.49761 0.0
H72 H 0.6853 0.9163 0.44392 0.0
H73 H 0.58709 0.90608 0.50986 0.0
H74 H 0.54975 0.82167 0.51602 0.0
H75 H 0.64744 0.83156 0.44998 0.0
H76 H 0.461 0.10833 0.50107 0.0
H77 H 0.57299 0.15328 0.43473 0.0
H78 H 0.61459 0.23961 0.44356 0.0
H79 H 0.5027 0.1945 0.50983 0.0
Gd80 Gd 0.67491 0.60549 0.83227 0.0
Gd81 Gd 0.59095 0.49401 0.83198 0.0
C82 C 0.52478 0.5439 0.83582 0.0
C83 C 0.72628 0.69766 0.82376 0.0
C84 C 0.70412 0.72479 0.8206 0.0
C85 C 0.74214 0.77709 0.82386 0.0
C86 C 0.64433 0.69829 0.81418 0.0
C87 C 0.66173 0.77574 0.81133 0.0
C88 C 0.62312 0.72329 0.81022 0.0
C89 C 0.72118 0.80254 0.8191 0.0
C90 C 0.64309 0.56538 0.87806 0.0
C91 C 0.74006 0.55538 0.83524 0.0
C92 C 0.54073 0.40688 0.84827 0.0
C93 C 0.54449 0.36792 0.83985 0.0
C94 C 0.52521 0.3445 0.81503 0.0
C95 C 0.57258 0.35715 0.8559 0.0
C96 C 0.56622 0.3037 0.82178 0.0
C97 C 0.58326 0.32522 0.84696 0.0
C98 C 0.53614 0.31287 0.8061 0.0
C99 C 0.61163 0.51301 0.78159 0.0
O100 O 0.58122 0.58721 0.83457 0.0
O101 O 0.51694 0.50158 0.83522 0.0
O102 O 0.72061 0.68169 0.8467 0.0
O103 O 0.71143 0.66414 0.80546 0.0
O104 O 0.69772 0.60425 0.87382 0.0
O105 O 0.61127 0.55186 0.85855 0.0
O106 O 0.68352 0.51286 0.83563 0.0
O107 O 0.74907 0.5977 0.83235 0.0
O108 O 0.51399 0.41537 0.83253 0.0
O109 O 0.58956 0.44799 0.85875 0.0
O110 O 0.57874 0.46979 0.79134 0.0
O111 O 0.63535 0.54768 0.79945 0.0
H112 H 0.78839 0.79827 0.82916 0.0
H113 H 0.61418 0.65826 0.81116 0.0
H114 H 0.57676 0.7014 0.80485 0.0
H115 H 0.75202 0.84295 0.82016 0.0
H116 H 0.5036 0.35192 0.80209 0.0
H117 H 0.5883 0.37495 0.87504 0.0
H118 H 0.6073 0.31926 0.85924 0.0
H119 H 0.52266 0.29667 0.78658 0.0
H120 H 0.51971 0.95791 0.23139 0.0
H121 H 0.66247 0.11466 0.23019 0.0
H122 H 0.59885 0.02456 0.15884 0.0
C123 C 0.55127 0.99017 0.22027 0.0
C124 C 0.55172 0.98459 0.19325 0.0
C125 C 0.59044 0.03668 0.23352 0.0
C126 C 0.63303 0.07886 0.21969 0.0
C127 C 0.63851 0.07562 0.1928 0.0
C128 C 0.59656 0.02791 0.17955 0.0
H129 H 0.59145 0.58849 0.59138 0.0
H130 H 0.63893 0.49553 0.5873 0.0
H131 H 0.62462 0.54734 0.51781 0.0
C132 C 0.60564 0.57121 0.58003 0.0
C133 C 0.60727 0.57256 0.55277 0.0
C134 C 0.61803 0.5442 0.59269 0.0
C135 C 0.63207 0.51842 0.57791 0.0
C136 C 0.63331 0.51906 0.55102 0.0
C137 C 0.62235 0.54686 0.53864 0.0
H138 H 1.05857 0.55366 0.90885 0.0
H139 H 0.19584 0.54449 0.91127 0.0
H140 H 0.13029 0.54557 0.83704 0.0
C141 C 0.08894 0.55177 0.89807 0.0
C142 C 0.08668 0.55003 0.87085 0.0
C143 C 0.12755 0.54957 0.9123 0.0
C144 C 0.16785 0.54651 0.89936 0.0
C145 C 0.17316 0.54648 0.87206 0.0
C146 C 0.12975 0.54678 0.85788 0.0
H147 H 0.99704 0.43869 0.39092 0.0
H148 H 0.15686 0.59108 0.39283 0.0
H149 H 0.07483 0.51982 0.46418 0.0
C150 C 1.03265 0.47225 0.40193 0.0
C151 C 1.03209 0.47286 0.42912 0.0
C152 C 0.07645 0.51546 0.38892 0.0
C153 C 0.12167 0.55899 0.40327 0.0
C154 C 0.12202 0.5623 0.43039 0.0
C155 C 0.07669 0.51836 0.44334 0.0
H156 H 0.59324 0.08556 0.70817 0.0
H157 H 0.5896 0.96233 0.70408 0.0
H158 H 0.59524 0.02649 0.77861 0.0
C159 C 0.59279 0.0589 0.71814 0.0
C160 C 0.59782 0.06238 0.74521 0.0
C161 C 0.59127 0.02384 0.70338 0.0
C162 C 0.58845 0.98813 0.71581 0.0
C163 C 0.58686 0.9868 0.74302 0.0
C164 C 0.59309 0.02513 0.75776 0.0
H165 H 0.4729 0.45966 0.05632 0.0
H166 H 0.57142 0.40868 0.04552 0.0
H167 H 0.51871 0.41802 0.12112 0.0
C168 C 0.49061 0.44346 0.06419 0.0
C169 C 0.49104 0.43927 0.09087 0.0
C170 C 0.51804 0.43092 0.04786 0.0
C171 C 0.5457 0.41409 0.05787 0.0
C172 C 0.54424 0.40844 0.08424 0.0
C173 C 0.51499 0.419 0.10045 0.0
H174 H 0.49613 0.65552 0.14263 0.0
H175 H 0.40996 0.56773 0.20951 0.0
H176 H 0.44681 0.52382 0.19935 0.0
H177 H 0.43528 0.56032 0.10395 0.0
H178 H 0.4942 0.58352 0.08158 0.0
H179 H 0.49165 0.62666 0.09995 0.0
H180 H 0.59831 0.6727 0.11795 0.0
H181 H 0.60046 0.62962 0.09875 0.0
H182 H 0.61501 0.63768 0.13301 0.0
H183 H 0.44242 0.46285 0.17233 0.0
H184 H 0.43792 0.40959 0.13788 0.0
H185 H 0.52239 0.53077 0.08585 0.0
C186 C 0.48808 0.62899 0.15589 0.0
C187 C 0.44395 0.6103 0.17471 0.0
C188 C 0.43945 0.57991 0.19339 0.0
C189 C 0.45975 0.55392 0.18759 0.0
C190 C 0.48767 0.56194 0.16417 0.0
C191 C 0.50462 0.60047 0.14897 0.0
C192 C 0.52134 0.59422 0.12221 0.0
C193 C 0.48331 0.59105 0.10075 0.0
C194 C 0.58777 0.63603 0.11773 0.0
C195 C 0.50643 0.5445 0.12426 0.0
C196 C 0.48723 0.52657 0.14858 0.0
C197 C 0.46073 0.47762 0.15367 0.0
C198 C 0.45735 0.44736 0.13387 0.0
C199 C 0.48089 0.46634 0.10935 0.0
C200 C 0.50443 0.51518 0.10442 0.0
H201 H 0.80723 0.183 0.46572 0.0
H202 H 0.66991 0.19534 0.46393 0.0
H203 H 0.74493 0.28494 0.45827 0.0
H204 H 0.91873 0.30766 0.5007 0.0
H205 H 0.98078 0.32111 0.48339 0.0
H206 H 0.91692 0.25739 0.48915 0.0
H207 H 0.90522 0.23451 0.44023 0.0
H208 H 0.9692 0.29794 0.43437 0.0
H209 H 0.89953 0.26947 0.41822 0.0
H210 H 0.83287 0.37292 0.45073 0.0
H211 H 0.92861 0.45289 0.43912 0.0
H212 H 1.01348 0.38873 0.44483 0.0
C213 C 0.79309 0.20467 0.46443 0.0
C214 C 0.73167 0.18107 0.46518 0.0
C215 C 0.71583 0.21145 0.46326 0.0
C216 C 0.7585 0.26295 0.46018 0.0
C217 C 0.81805 0.28489 0.45927 0.0
C218 C 0.83577 0.25701 0.46139 0.0
C219 C 0.9032 0.29071 0.459 0.0
C220 C 0.9316 0.29442 0.48458 0.0
C221 C 0.92026 0.27203 0.43661 0.0
C222 C 0.91962 0.34075 0.45365 0.0
C223 C 0.86967 0.33651 0.4547 0.0
C224 C 0.87242 0.37682 0.45012 0.0
C225 C 0.92714 0.42233 0.44369 0.0
C226 C 0.97887 0.42764 0.44157 0.0
C227 C 0.97503 0.38623 0.44689 0.0
H228 H 0.68228 0.86265 0.82934 0.0
H229 H 0.59738 0.74713 0.76751 0.0
H230 H 0.55895 0.78366 0.74841 0.0
H231 H 0.56414 0.87451 0.83151 0.0
H232 H 0.61618 0.94128 0.83729 0.0
H233 H 0.63237 0.90361 0.84908 0.0
H234 H 0.73165 0.95554 0.82494 0.0
H235 H 0.71619 0.9937 0.8134 0.0
H236 H 0.73169 0.96278 0.7908 0.0
H237 H 0.52597 0.82757 0.73634 0.0
H238 H 0.51971 0.89044 0.72453 0.0
H239 H 0.6377 0.98828 0.78893 0.0
C240 C 0.65519 0.84502 0.81191 0.0
C241 C 0.64102 0.80076 0.80047 0.0
C242 C 0.60662 0.77951 0.77734 0.0
C243 C 0.58455 0.80004 0.76625 0.0
C244 C 0.59752 0.84238 0.77824 0.0
C245 C 0.6329 0.86558 0.80021 0.0
C246 C 0.64314 0.91336 0.80745 0.0
C247 C 0.61215 0.90787 0.83284 0.0
C248 C 0.70964 0.95905 0.80922 0.0
C249 C 0.61211 0.91491 0.78481 0.0
C250 C 0.58348 0.87184 0.76928 0.0
C251 C 0.5493 0.86212 0.74792 0.0
C252 C 0.54662 0.89853 0.74124 0.0
C253 C 0.58066 0.94568 0.75488 0.0
C254 C 0.61194 0.95314 0.77775 0.0
H255 H 0.79607 0.52077 0.18552 0.0
H256 H 0.73355 0.37181 0.1943 0.0
H257 H 0.64806 0.3374 0.16535 0.0
H258 H 0.65119 0.49168 0.17121 0.0
H259 H 0.68704 0.5374 0.14694 0.0
H260 H 0.72834 0.54649 0.1751 0.0
H261 H 0.8061 0.55651 0.14505 0.0
H262 H 0.76335 0.54419 0.11681 0.0
H263 H 0.7833 0.50627 0.12227 0.0
H264 H 0.58178 0.32188 0.12944 0.0
H265 H 0.52819 0.32514 0.09446 0.0
H266 H 0.64931 0.48638 0.10402 0.0
C267 C 0.76172 0.48059 0.183 0.0
C268 C 0.77012 0.44859 0.19229 0.0
C269 C 0.72631 0.39638 0.18776 0.0
C270 C 0.67857 0.37682 0.17091 0.0
C271 C 0.67632 0.4103 0.15905 0.0
C272 C 0.7162 0.46109 0.16523 0.0
C273 C 0.71158 0.49021 0.1467 0.0
C274 C 0.69337 0.51803 0.16082 0.0
C275 C 0.76952 0.52638 0.13185 0.0
C276 C 0.66285 0.44781 0.12913 0.0
C277 C 0.6428 0.40203 0.13656 0.0
C278 C 0.59683 0.35741 0.12342 0.0
C279 C 0.56756 0.3595 0.10334 0.0
C280 C 0.58597 0.40594 0.09659 0.0
C281 C 0.63593 0.45061 0.10863 0.0
H282 H 0.37829 0.86002 0.43305 0.0
H283 H 0.45235 0.85159 0.50161 0.0
H284 H 0.36629 0.76101 0.50267 0.0
H285 H 0.22307 0.77054 0.44742 0.0
H286 H 0.20081 0.74367 0.41492 0.0
H287 H 0.26632 0.80795 0.4206 0.0
H288 H 0.32902 0.79124 0.39532 0.0
H289 H 0.2636 0.72699 0.38941 0.0
H290 H 0.32813 0.74201 0.40469 0.0
H291 H 0.27036 0.66792 0.49477 0.0
H292 H 0.18226 0.58457 0.47701 0.0
H293 H 0.17173 0.65593 0.41432 0.0
C294 C 0.37603 0.83923 0.44847 0.0
C295 C 0.42192 0.8632 0.46742 0.0
C296 C 0.41785 0.83419 0.48688 0.0
C297 C 0.36888 0.78264 0.48767 0.0
C298 C 0.32441 0.76 0.4686 0.0
C299 C 0.32815 0.78752 0.44919 0.0
C300 C 0.27729 0.75407 0.42984 0.0
C301 C 0.23964 0.77001 0.42812 0.0
C302 C 0.30092 0.75357 0.40325 0.0
C303 C 0.24311 0.70378 0.44175 0.0
C304 C 0.27091 0.7075 0.46398 0.0
C305 C 0.24843 0.6649 0.47735 0.0
C306 C 0.19783 0.61749 0.46722 0.0
C307 C 0.16982 0.61267 0.44389 0.0
C308 C 0.19223 0.65721 0.43179 0.0
H309 H 0.54009 0.21737 0.83775 0.0
H310 H 0.63466 0.32872 0.7802 0.0
H311 H 0.6649 0.28376 0.7593 0.0
H312 H 0.64616 0.19042 0.8385 0.0
H313 H 0.587 0.12474 0.84232 0.0
H314 H 0.58086 0.16958 0.8559 0.0
H315 H 0.48142 0.12388 0.831 0.0
H316 H 0.48729 0.07901 0.8175 0.0
H317 H 0.47875 0.11348 0.79648 0.0
H318 H 0.68429 0.22878 0.74435 0.0
H319 H 0.67542 0.15707 0.72954 0.0
H320 H 0.55608 0.07194 0.79218 0.0
C321 C 0.56812 0.2325 0.82105 0.0
C322 C 0.58563 0.27669 0.81061 0.0
C323 C 0.62116 0.2951 0.78846 0.0
C324 C 0.63899 0.2701 0.77664 0.0
C325 C 0.62083 0.22656 0.78715 0.0
C326 C 0.5856 0.20729 0.80862 0.0
C327 C 0.56754 0.15684 0.81399 0.0
C328 C 0.59712 0.16061 0.83918 0.0
C329 C 0.4997 0.11588 0.81476 0.0
C330 C 0.59379 0.14912 0.79084 0.0
C331 C 0.62715 0.1914 0.7767 0.0
C332 C 0.65754 0.19512 0.75497 0.0
C333 C 0.65158 0.15376 0.74658 0.0
C334 C 0.61268 0.10781 0.75889 0.0
C335 C 0.58534 0.10613 0.78208 0.0
H336 H 0.60777 0.79539 0.53006 0.0
H337 H 0.55444 0.73933 0.45064 0.0
H338 H 0.54177 0.66462 0.46071 0.0
H339 H 0.69603 0.76468 0.53712 0.0
H340 H 0.67788 0.74786 0.57021 0.0
H341 H 0.67283 0.79196 0.55784 0.0
H342 H 0.56265 0.7373 0.57128 0.0
H343 H 0.56747 0.69312 0.584 0.0
H344 H 0.51106 0.67256 0.56023 0.0
H345 H 0.5393 0.59791 0.47973 0.0
H346 H 0.55507 0.54908 0.50413 0.0
H347 H 0.62206 0.65604 0.56953 0.0
C348 C 0.59156 0.76662 0.51498 0.0
C349 C 0.58112 0.77259 0.4897 0.0
C350 C 0.56219 0.73511 0.4702 0.0
C351 C 0.55465 0.69257 0.47578 0.0
C352 C 0.56656 0.6884 0.5009 0.0
C353 C 0.58474 0.72457 0.52012 0.0
C354 C 0.60062 0.71421 0.54482 0.0
C355 C 0.6657 0.75722 0.55295 0.0
C356 C 0.55791 0.70368 0.56635 0.0
C357 C 0.59079 0.66755 0.53632 0.0
C358 C 0.56947 0.65235 0.5112 0.0
C359 C 0.5566 0.60987 0.49932 0.0
C360 C 0.56671 0.58276 0.51336 0.0
C361 C 0.59158 0.59911 0.5388 0.0
C362 C 0.60276 0.64185 0.55035 0.0
H363 H 0.84899 0.60773 0.8677 0.0
H364 H 0.75279 0.49475 0.80557 0.0
H365 H 0.8284 0.48452 0.80548 0.0
H366 H 1.00149 0.66232 0.84857 0.0
H367 H 1.0283 0.67006 0.88093 0.0
H368 H 0.96893 0.67116 0.8754 0.0
H369 H 0.90293 0.60055 0.90665 0.0
H370 H 0.96218 0.59937 0.91233 0.0
H371 H 0.89026 0.54314 0.90142 0.0
H372 H 0.92325 0.48736 0.81193 0.0
H373 H 1.00958 0.49637 0.82686 0.0
H374 H 1.0441 0.60256 0.88709 0.0
C375 C 0.84376 0.58115 0.85372 0.0
C376 C 0.79267 0.55293 0.83602 0.0
C377 C 0.78975 0.51786 0.81914 0.0
C378 C 0.83355 0.51166 0.81898 0.0
C379 C 0.88256 0.53967 0.83635 0.0
C380 C 0.88721 0.5734 0.85377 0.0
C381 C 0.94241 0.59671 0.87153 0.0
C382 C 0.98798 0.65345 0.86897 0.0
C383 C 0.92332 0.58423 0.89966 0.0
C384 C 0.96836 0.57171 0.86141 0.0
C385 C 0.93348 0.53919 0.84082 0.0
C386 C 0.94974 0.5128 0.82821 0.0
C387 C 1.00037 0.51853 0.83682 0.0
C388 C 1.0369 0.55021 0.85855 0.0
C389 C 1.01909 0.57735 0.87055 0.0
H390 H 0.24366 0.70084 0.1888 0.0
H391 H 0.30868 0.66733 0.12371 0.0
H392 H 0.40086 0.75621 0.12451 0.0
H393 H 0.29945 0.82144 0.17414 0.0
H394 H 0.3218 0.84742 0.2068 0.0
H395 H 0.26166 0.78164 0.20087 0.0
H396 H 0.31548 0.76186 0.22869 0.0
H397 H 0.37588 0.82765 0.23474 0.0
H398 H 0.39027 0.78818 0.22112 0.0
H399 H 0.4874 0.85214 0.13262 0.0
H400 H 0.56028 0.94015 0.14934 0.0
H401 H 0.43577 0.90932 0.20843 0.0
C402 C 0.27734 0.71224 0.1747 0.0
C403 C 0.26859 0.67707 0.15599 0.0
C404 C 0.31432 0.69342 0.13823 0.0
C405 C 0.36678 0.744 0.1385 0.0
C406 C 0.37381 0.77791 0.15705 0.0
C407 C 0.33053 0.76225 0.17513 0.0
C408 C 0.34984 0.8051 0.19395 0.0
C409 C 0.30555 0.81444 0.19391 0.0
C410 C 0.35836 0.7951 0.22124 0.0
C411 C 0.4091 0.84799 0.18283 0.0
C412 C 0.42293 0.83173 0.16181 0.0
C413 C 0.47674 0.86496 0.14914 0.0
C414 C 0.51789 0.91535 0.15865 0.0
C415 C 0.50532 0.93272 0.18063 0.0
C416 C 0.44882 0.8981 0.19212 0.0
H417 H 0.49908 0.25472 0.48836 0.0
H418 H 0.67856 0.30969 0.47893 0.0
H419 H 0.71791 0.39493 0.49283 0.0
H420 H 0.52732 0.36784 0.46773 0.0
H421 H 0.47681 0.36108 0.49107 0.0
H422 H 0.46398 0.30662 0.47726 0.0
H423 H 0.46192 0.2796 0.52312 0.0
H424 H 0.47494 0.33394 0.53702 0.0
H425 H 0.52428 0.32231 0.54484 0.0
H426 H 0.73679 0.4717 0.51342 0.0
H427 H 0.73304 0.53325 0.53681 0.0
H428 H 0.54117 0.4271 0.53172 0.0
C429 C 0.54667 0.28484 0.48891 0.0
C430 C 0.58581 0.27571 0.48273 0.0
C431 C 0.64782 0.31606 0.48344 0.0
C432 C 0.6705 0.3645 0.49135 0.0
C433 C 0.63048 0.37189 0.49807 0.0
C434 C 0.56983 0.33314 0.49656 0.0
C435 C 0.53597 0.34971 0.50619 0.0
C436 C 0.49884 0.34612 0.48425 0.0
C437 C 0.49702 0.31961 0.52915 0.0
C438 C 0.58695 0.4034 0.51443 0.0
C439 C 0.64124 0.41585 0.50938 0.0
C440 C 0.69457 0.46258 0.51704 0.0
C441 C 0.69216 0.49716 0.53035 0.0
C442 C 0.6369 0.48458 0.53573 0.0
C443 C 0.58389 0.4375 0.52741 0.0
H444 H 0.48016 0.57405 0.87596 0.0
H445 H 0.4378 0.50895 0.79811 0.0
H446 H 0.35043 0.50459 0.7974 0.0
H447 H 0.32325 0.49636 0.89636 0.0
H448 H 0.33481 0.54485 0.91706 0.0
H449 H 0.39504 0.54449 0.91125 0.0
H450 H 0.45948 0.63393 0.8956 0.0
H451 H 0.39951 0.63463 0.90136 0.0
H452 H 0.4321 0.64746 0.86993 0.0
H453 H 0.26007 0.50866 0.80567 0.0
H454 H 0.18553 0.51528 0.82211 0.0
H455 H 0.28242 0.57579 0.89512 0.0
C456 C 0.45297 0.55903 0.85856 0.0
C457 C 0.46913 0.54234 0.83678 0.0
C458 C 0.42924 0.52244 0.81513 0.0
C459 C 0.37837 0.51982 0.81458 0.0
C460 C 0.36396 0.53636 0.83608 0.0
C461 C 0.40038 0.5552 0.85788 0.0
C462 C 0.37385 0.56869 0.87889 0.0
C463 C 0.3557 0.53673 0.90229 0.0
C464 C 0.41893 0.6245 0.88693 0.0
C465 C 0.3181 0.5558 0.86568 0.0
C466 C 0.31296 0.53711 0.84087 0.0
C467 C 0.26482 0.5231 0.82524 0.0
C468 C 0.22168 0.52731 0.83488 0.0
C469 C 0.22384 0.54537 0.86056 0.0
C470 C 0.27501 0.56026 0.87566 0.0
H471 H 0.95197 0.35662 0.18826 0.0
H472 H 0.90169 0.36544 0.11244 0.0
H473 H 0.8078 0.27772 0.11413 0.0
H474 H 0.89309 0.2286 0.18076 0.0
H475 H 0.86763 0.21421 0.21342 0.0
H476 H 0.93032 0.27722 0.20604 0.0
H477 H 0.87769 0.30815 0.22638 0.0
H478 H 0.81467 0.24519 0.23367 0.0
H479 H 0.80463 0.28112 0.21486 0.0
H480 H 0.71649 0.18685 0.12497 0.0
H481 H 0.63875 0.10549 0.14399 0.0
H482 H 0.75195 0.15536 0.21171 0.0
C483 C 0.92114 0.33996 0.17201 0.0
C484 C 0.93427 0.36796 0.15013 0.0
C485 C 0.89268 0.34481 0.12933 0.0
C486 C 0.83918 0.29488 0.13017 0.0
C487 C 0.8275 0.26809 0.15196 0.0
C488 C 0.86753 0.29003 0.17253 0.0
C489 C 0.84438 0.25351 0.19381 0.0
C490 C 0.88637 0.24276 0.19879 0.0
C491 C 0.83478 0.27317 0.21865 0.0
C492 C 0.78549 0.20758 0.18201 0.0
C493 C 0.77614 0.21656 0.15793 0.0
C494 C 0.72382 0.17963 0.1438 0.0
C495 C 0.67982 0.13304 0.1547 0.0
C496 C 0.68788 0.12309 0.17961 0.0
C497 C 0.74265 0.16116 0.19293 0.0
H498 H 0.07127 0.47113 0.06253 0.0
H499 H 0.11823 0.61493 0.08065 0.0
H500 H 0.14129 0.63558 0.03522 0.0
H501 H 0.18378 0.51407 0.01136 0.0
H502 H 0.13476 0.45866 0.99065 0.0
H503 H 0.12585 0.4552 0.02512 0.0
H504 H 1.01641 0.41641 0.01923 0.0
H505 H 1.02518 0.41992 0.98479 0.0
H506 H 0.99935 0.44884 0.00154 0.0
H507 H 0.1532 0.64035 0.98788 0.0
H508 H 0.15486 0.62894 0.94072 0.0
H509 H 0.10162 0.48293 0.94987 0.0
C510 C 0.08749 0.50727 0.05694 0.0
C511 C 0.09328 0.54164 0.07555 0.0
C512 C 0.11336 0.58796 0.06707 0.0
C513 C 0.12673 0.60016 0.04117 0.0
C514 C 0.11961 0.56564 0.02329 0.0
C515 C 0.10063 0.52008 0.03061 0.0
C516 C 0.09449 0.48943 0.00667 0.0
C517 C 0.13728 0.47871 0.00857 0.0
C518 C 1.03002 0.44076 0.00284 0.0
C519 C 0.1124 0.52477 0.98505 0.0
C520 C 0.12677 0.56851 -0.00466 0.0
C521 C 0.14249 0.60639 0.97964 0.0
C522 C 0.14324 0.59958 0.95278 0.0
C523 C 0.12881 0.55535 0.94139 0.0
C524 C 0.11365 0.5175 0.95792 0.0
H525 H 0.56904 0.96386 0.37909 0.0
H526 H 0.59574 0.09705 0.40323 0.0
H527 H 0.59064 0.11187 0.3576 0.0
H528 H 0.65945 0.01172 0.32626 0.0
H529 H 0.61416 0.95579 0.30558 0.0
H530 H 0.61079 0.95138 0.34001 0.0
H531 H 0.49715 0.90089 0.33822 0.0
H532 H 0.49996 0.9045 0.30366 0.0
H533 H 0.46792 0.92604 0.32268 0.0
H534 H 0.59305 0.11653 0.30933 0.0
H535 H 0.59862 0.10914 0.26204 0.0
H536 H 0.57361 0.97401 0.26959 0.0
C537 C 0.57174 0.9951 0.37466 0.0
C538 C 0.58123 0.02876 0.39437 0.0
C539 C 0.58685 0.07033 0.38819 0.0
C540 C 0.58428 0.07907 0.3624 0.0
C541 C 0.57608 0.04574 0.34319 0.0
C542 C 0.56921 1.00425 0.34902 0.0
C543 C 0.56518 0.97623 0.3248 0.0
C544 C 0.6154 0.97367 0.32414 0.0
C545 C 0.5039 0.92381 0.32219 0.0
C546 C 0.573 0.00938 0.30446 0.0
C547 C 0.57851 0.04893 0.31542 0.0
C548 C 0.58822 0.08544 0.30051 0.0
C549 C 0.59196 0.08121 0.27369 0.0
C550 C 0.58652 0.04099 0.26202 0.0
C551 C 0.5769 1.00473 0.27778 0.0
H552 H 0.67023 0.596 0.74842 0.0
H553 H 0.54634 0.43355 0.74888 0.0
H554 H 0.53114 0.42752 0.70297 0.0
H555 H 0.59294 0.60409 0.69616 0.0
H556 H 0.65951 0.65351 0.68017 0.0
H557 H 0.66095 0.64873 0.71451 0.0
H558 H 0.74648 0.64614 0.70944 0.0
H559 H 0.74541 0.65134 0.67515 0.0
H560 H 0.73717 0.60006 0.6874 0.0
H561 H 0.52557 0.43385 0.65815 0.0
H562 H 0.5402 0.45471 0.61277 0.0
H563 H 0.67013 0.61233 0.63553 0.0
C564 C 0.64001 0.55938 0.73877 0.0
C565 C 0.6092 0.51535 0.75293 0.0
C566 C 0.57052 0.46822 0.7392 0.0
C567 C 0.56102 0.464 0.71278 0.0
C568 C 0.59085 0.50714 0.69951 0.0
C569 C 0.6303 0.55413 0.71156 0.0
C570 C 0.6582 0.59345 0.69122 0.0
C571 C 0.64193 0.62694 0.6958 0.0
C572 C 0.72585 0.62459 0.69078 0.0
C573 C 0.62857 0.56053 0.66639 0.0
C574 C 0.58919 0.51096 0.67213 0.0
C575 C 0.55642 0.47254 0.65324 0.0
C576 C 0.56506 0.48471 0.6275 0.0
C577 C 0.60652 0.53489 0.62061 0.0
C578 C 0.63797 0.57362 0.64034 0.0
H579 H 0.50509 0.95176 0.5531 0.0
H580 H 0.66641 0.10139 0.53887 0.0
H581 H 0.69288 0.11628 0.58524 0.0
H582 H 0.46779 0.97573 0.61178 0.0
H583 H 0.44468 0.92093 0.6272 0.0
H584 H 0.44014 0.92001 0.59265 0.0
H585 H 0.50468 0.894 0.58794 0.0
H586 H 0.50885 0.89438 0.62256 0.0
H587 H 0.57592 0.93132 0.60424 0.0
H588 H 0.69557 0.11904 0.63289 0.0
H589 H 0.68044 0.10674 0.67954 0.0
H590 H 0.52162 0.95305 0.66387 0.0
C591 C 0.5464 0.98728 0.55982 0.0
C592 C 0.58372 0.02562 0.54258 0.0
C593 C 0.63752 0.07157 0.55181 0.0
C594 C 0.65283 0.08036 0.57809 0.0
C595 C 0.61469 0.04226 0.59472 0.0
C596 C 0.56332 0.99616 0.58597 0.0
C597 C 0.53039 0.96188 0.60816 0.0
C598 C 0.46701 0.9436 0.61005 0.0
C599 C 0.52994 0.91778 0.60556 0.0
C600 C 0.56928 0.99712 0.63085 0.0
C601 C 0.61789 0.04311 0.62251 0.0
C602 C 0.6584 0.08295 0.63967 0.0
C603 C 0.64924 0.07573 0.66609 0.0
C604 C 0.60007 0.02901 0.67519 0.0
C605 C 0.55994 0.98894 0.65734 0.0
H606 H 0.69257 0.59468 0.92711 0.0
H607 H 0.53512 0.47596 0.88196 0.0
H608 H 0.48875 0.4277 0.92023 0.0
H609 H 0.69171 0.51964 0.97262 0.0
H610 H 0.71058 0.56129 9e-05 0.0
H611 H 0.73493 0.58546 0.96848 0.0
H612 H 0.68461 0.62452 0.97344 0.0
H613 H 0.65975 0.60024 0.00502 0.0
H614 H 0.60683 0.58534 0.98076 0.0
H615 H 0.45771 0.39217 0.96219 0.0
H616 H 0.44164 0.37278 0.00831 0.0
H617 H 0.61372 0.51576 0.02781 0.0
C618 C 0.64888 0.5582 0.9254 0.0
C619 C 0.61838 0.53808 0.90154 0.0
C620 C 0.56017 0.49124 0.89997 0.0
C621 C 0.53311 0.46355 0.9216 0.0
C622 C 0.564 0.48407 0.94484 0.0
C623 C 0.62005 0.53051 0.94715 0.0
C624 C 0.64055 0.54514 0.97503 0.0
C625 C 0.69783 0.55333 0.9793 0.0
C626 C 0.64838 0.59156 0.98409 0.0
C627 C 0.5879 0.49893 0.98765 0.0
C628 C 0.54431 0.46435 0.96978 0.0
C629 C 0.4912 0.41881 0.97654 0.0
C630 C 0.48232 0.40814 0.00254 0.0
C631 C 0.5264 0.44302 0.02098 0.0
C632 C 0.57966 0.48889 0.01365 0.0
H633 H 0.08189 0.44961 0.2388 0.0
H634 H 0.12223 0.5889 0.22335 0.0
H635 H 0.10855 0.60019 0.26932 0.0
H636 H 0.97522 0.40778 0.28942 0.0
H637 H 1.00414 0.38642 0.30895 0.0
H638 H 1.01141 0.38635 0.27443 0.0
H639 H 0.12544 0.44062 0.27986 0.0
H640 H 0.11815 0.44034 0.31438 0.0
H641 H 0.16681 0.49874 0.29882 0.0
H642 H 0.09155 0.59709 0.31694 0.0
H643 H 0.08431 0.5854 0.36368 0.0
H644 H 1.06333 0.4518 0.34981 0.0
C645 C 0.08723 0.48223 0.24505 0.0
C646 C 0.10087 0.51742 0.22716 0.0
C647 C 0.10956 0.56045 0.23637 0.0
C648 C 0.10219 0.56733 0.26253 0.0
C649 C 0.08795 0.53165 0.27955 0.0
C650 C 0.08182 0.49046 0.27132 0.0
C651 C 0.0721 0.46036 0.29408 0.0
C652 C 1.01213 0.40706 0.29156 0.0
C653 C 0.12368 0.45999 0.29694 0.0
C654 C 0.07242 0.49043 0.31628 0.0
C655 C 0.08134 0.53127 0.30736 0.0
C656 C 0.08487 0.56539 0.32411 0.0
C657 C 0.0808 0.55846 0.35065 0.0
C658 C 0.0737 0.51791 0.36044 0.0
C659 C 0.06825 0.48288 0.3429 0.0
loop_
_geom_bond_atom_site_label_1
_geom_bond_atom_site_label_2
_geom_bond_distance
_geom_bond_site_symmetry_2
_ccdc_geom_bond_type
Gd0 C3 2.818 . S
Gd0 O20 2.377 . S
Gd0 O22 2.448 . S
Gd0 O23 2.506 . S
Gd0 O24 2.435 . S
Gd0 O25 2.717 . S
Gd0 O27 2.395 1_455 S
Gd0 O31 2.327 . S
Gd1 C12 2.818 . S
Gd1 O21 2.395 1_655 S
Gd1 O25 2.327 1_655 S
Gd1 O26 2.377 . S
Gd1 O28 2.448 . S
Gd1 O29 2.506 . S
Gd1 O30 2.435 1_655 S
Gd1 O31 2.717 1_655 S
C2 O20 1.240 . S
C2 O21 1.240 . S
C3 Gd0 2.818 . S
C3 C4 1.510 . S
C3 O22 1.249 . S
C3 O23 1.252 . S
C4 C3 1.510 . S
C4 C5 1.404 . S
C4 C6 1.352 . S
C5 C4 1.404 . S
C5 C9 1.389 . S
C5 H32 0.930 . S
C6 C4 1.352 . S
C6 C8 1.374 . S
C6 H33 0.931 . S
C7 C8 1.359 . S
C7 C9 1.364 . S
C8 C6 1.374 . S
C8 C7 1.359 . S
C8 H34 0.931 . S
C9 C5 1.389 . S
C9 C7 1.364 . S
C9 H35 0.931 . S
C10 O24 1.256 . S
C10 O25 1.257 . S
C11 O26 1.240 . S
C11 O27 1.240 . S
C12 Gd1 2.818 . S
C12 C13 1.510 . S
C12 O28 1.249 . S
C12 O29 1.252 . S
C13 C12 1.510 . S
C13 C14 1.404 . S
C13 C15 1.352 . S
C14 C13 1.404 . S
C14 C18 1.389 . S
C14 H36 0.930 . S
C15 C13 1.352 . S
C15 C17 1.374 . S
C15 H37 0.931 . S
C16 C17 1.359 . S
C16 C18 1.364 . S
C17 C15 1.374 . S
C17 C16 1.359 . S
C17 H38 0.931 . S
C18 C14 1.389 . S
C18 C16 1.364 . S
C18 H39 0.931 . S
C19 O30 1.256 . S
C19 O31 1.257 . S
O20 Gd0 2.377 . S
O20 C2 1.240 . S
O21 Gd1 2.395 1_455 S
O21 C2 1.240 . S
O22 Gd0 2.448 . S
O22 C3 1.249 . S
O23 Gd0 2.506 . S
O23 C3 1.252 . S
O24 Gd0 2.435 . S
O24 C10 1.256 . S
O25 Gd0 2.717 . S
O25 Gd1 2.327 1_455 S
O25 C10 1.257 . S
O26 Gd1 2.377 . S
O26 C11 1.240 . S
O27 Gd0 2.395 1_655 S
O27 C11 1.240 . S
O28 Gd1 2.448 . S
O28 C12 1.249 . S
O29 Gd1 2.506 . S
O29 C12 1.252 . S
O30 Gd1 2.435 1_455 S
O30 C19 1.256 . S
O31 Gd0 2.327 . S
O31 Gd1 2.717 1_455 S
O31 C19 1.257 . S
H32 C5 0.930 . S
H33 C6 0.931 . S
H34 C8 0.931 . S
H35 C9 0.931 . S
H36 C14 0.930 . S
H37 C15 0.931 . S
H38 C17 0.931 . S
H39 C18 0.931 . S
Gd40 C43 2.818 . S
Gd40 O60 2.377 . S
Gd40 O62 2.448 . S
Gd40 O63 2.506 . S
Gd40 O64 2.435 . S
Gd40 O65 2.717 1_565 S
Gd40 O67 2.395 1_565 S
Gd40 O71 2.327 1_565 S
Gd41 C52 2.818 . S
Gd41 O61 2.395 1_545 S
Gd41 O65 2.327 . S
Gd41 O66 2.377 . S
Gd41 O68 2.448 . S
Gd41 O69 2.506 . S
Gd41 O70 2.435 . S
Gd41 O71 2.717 . S
C42 O60 1.240 . S
C42 O61 1.240 . S
C43 Gd40 2.818 . S
C43 C44 1.510 . S
C43 O62 1.249 . S
C43 O63 1.252 . S
C44 C43 1.510 . S
C44 C45 1.404 . S
C44 C46 1.352 . S
C45 C44 1.404 . S
C45 C49 1.389 . S
C45 H72 0.930 . S
C46 C44 1.352 . S
C46 C48 1.374 . S
C46 H73 0.931 . S
C47 C48 1.359 . S
C47 C49 1.364 . S
C48 C46 1.374 . S
C48 C47 1.359 . S
C48 H74 0.931 . S
C49 C45 1.389 . S
C49 C47 1.364 . S
C49 H75 0.931 . S
C50 O64 1.256 1_545 S
C50 O65 1.257 . S
C51 O66 1.240 . S
C51 O67 1.240 . S
C52 Gd41 2.818 . S
C52 C53 1.510 . S
C52 O68 1.249 . S
C52 O69 1.252 . S
C53 C52 1.510 . S
C53 C54 1.404 . S
C53 C55 1.352 . S
C54 C53 1.404 . S
C54 C58 1.389 . S
C54 H76 0.930 . S
C55 C53 1.352 . S
C55 C57 1.374 . S
C55 H77 0.931 . S
C56 C57 1.359 . S
C56 C58 1.364 . S
C57 C55 1.374 . S
C57 C56 1.359 . S
C57 H78 0.931 . S
C58 C54 1.389 . S
C58 C56 1.364 . S
C58 H79 0.931 . S
C59 O70 1.256 . S
C59 O71 1.257 . S
O60 Gd40 2.377 . S
O60 C42 1.240 . S
O61 Gd41 2.395 1_565 S
O61 C42 1.240 . S
O62 Gd40 2.448 . S
O62 C43 1.249 . S
O63 Gd40 2.506 . S
O63 C43 1.252 . S
O64 Gd40 2.435 . S
O64 C50 1.256 1_565 S
O65 Gd40 2.717 1_545 S
O65 Gd41 2.327 . S
O65 C50 1.257 . S
O66 Gd41 2.377 . S
O66 C51 1.240 . S
O67 Gd40 2.395 1_545 S
O67 C51 1.240 . S
O68 Gd41 2.448 . S
O68 C52 1.249 . S
O69 Gd41 2.506 . S
O69 C52 1.252 . S
O70 Gd41 2.435 . S
O70 C59 1.256 . S
O71 Gd40 2.327 1_545 S
O71 Gd41 2.717 . S
O71 C59 1.257 . S
H72 C45 0.930 . S
H73 C46 0.931 . S
H74 C48 0.931 . S
H75 C49 0.931 . S
H76 C54 0.930 . S
H77 C55 0.931 . S
H78 C57 0.931 . S
H79 C58 0.931 . S
Gd80 C83 2.818 . S
Gd80 O100 2.377 . S
Gd80 O102 2.448 . S
Gd80 O103 2.506 . S
Gd80 O104 2.435 . S
Gd80 O105 2.717 . S
Gd80 O107 2.395 . S
Gd80 O111 2.327 . S
Gd81 C92 2.818 . S
Gd81 O101 2.395 . S
Gd81 O105 2.327 . S
Gd81 O106 2.377 . S
Gd81 O108 2.448 . S
Gd81 O109 2.506 . S
Gd81 O110 2.435 . S
Gd81 O111 2.717 . S
C82 O100 1.240 . S
C82 O101 1.240 . S
C83 Gd80 2.818 . S
C83 C84 1.510 . S
C83 O102 1.249 . S
C83 O103 1.252 . S
C84 C83 1.510 . S
C84 C85 1.404 . S
C84 C86 1.352 . S
C85 C84 1.404 . S
C85 C89 1.389 . S
C85 H112 0.930 . S
C86 C84 1.352 . S
C86 C88 1.374 . S
C86 H113 0.931 . S
C87 C88 1.359 . S
C87 C89 1.364 . S
C88 C86 1.374 . S
C88 C87 1.359 . S
C88 H114 0.931 . S
C89 C85 1.389 . S
C89 C87 1.364 . S
C89 H115 0.931 . S
C90 O104 1.256 . S
C90 O105 1.257 . S
C91 O106 1.240 . S
C91 O107 1.240 . S
C92 Gd81 2.818 . S
C92 C93 1.510 . S
C92 O108 1.249 . S
C92 O109 1.252 . S
C93 C92 1.510 . S
C93 C94 1.404 . S
C93 C95 1.352 . S
C94 C93 1.404 . S
C94 C98 1.389 . S
C94 H116 0.930 . S
C95 C93 1.352 . S
C95 C97 1.374 . S
C95 H117 0.931 . S
C96 C97 1.359 . S
C96 C98 1.364 . S
C97 C95 1.374 . S
C97 C96 1.359 . S
C97 H118 0.931 . S
C98 C94 1.389 . S
C98 C96 1.364 . S
C98 H119 0.931 . S
C99 O110 1.256 . S
C99 O111 1.257 . S
O100 Gd80 2.377 . S
O100 C82 1.240 . S
O101 Gd81 2.395 . S
O101 C82 1.240 . S
O102 Gd80 2.448 . S
O102 C83 1.249 . S
O103 Gd80 2.506 . S
O103 C83 1.252 . S
O104 Gd80 2.435 . S
O104 C90 1.256 . S
O105 Gd80 2.717 . S
O105 Gd81 2.327 . S
O105 C90 1.257 . S
O106 Gd81 2.377 . S
O106 C91 1.240 . S
O107 Gd80 2.395 . S
O107 C91 1.240 . S
O108 Gd81 2.448 . S
O108 C92 1.249 . S
O109 Gd81 2.506 . S
O109 C92 1.252 . S
O110 Gd81 2.435 . S
O110 C99 1.256 . S
O111 Gd80 2.327 . S
O111 Gd81 2.717 . S
O111 C99 1.257 . S
H112 C85 0.930 . S
H113 C86 0.931 . S
H114 C88 0.931 . S
H115 C89 0.931 . S
H116 C94 0.930 . S
H117 C95 0.931 . S
H118 C97 0.931 . S
H119 C98 0.931 . S
H120 C123 0.931 . S
H121 C126 0.928 . S
H122 C128 0.930 . S
C123 H120 0.931 . S
C123 C124 1.413 . S
C123 C125 1.360 1_565 S
C124 C123 1.413 . S
C124 C128 1.429 1_565 S
C125 C123 1.360 1_545 S
C125 C126 1.372 . S
C126 H121 0.928 . S
C126 C125 1.372 . S
C126 C127 1.404 . S
C127 C126 1.404 . S
C127 C128 1.391 . S
C128 H122 0.930 . S
C128 C124 1.429 1_545 S
C128 C127 1.391 . S
H129 C132 0.931 . S
H130 C135 0.928 . S
H131 C137 0.930 . S
C132 H129 0.931 . S
C132 C133 1.413 . S
C132 C134 1.360 . S
C133 C132 1.413 . S
C133 C137 1.429 . S
C134 C132 1.360 . S
C134 C135 1.372 . S
C135 H130 0.928 . S
C135 C134 1.372 . S
C135 C136 1.404 . S
C136 C135 1.404 . S
C136 C137 1.391 . S
C137 H131 0.930 . S
C137 C133 1.429 . S
C137 C136 1.391 . S
H138 C141 0.931 . S
H139 C144 0.928 . S
H140 C146 0.930 . S
C141 H138 0.931 . S
C141 C142 1.413 . S
C141 C143 1.360 . S
C142 C141 1.413 . S
C142 C146 1.429 . S
C143 C141 1.360 . S
C143 C144 1.372 . S
C144 H139 0.928 . S
C144 C143 1.372 . S
C144 C145 1.404 . S
C145 C144 1.404 . S
C145 C146 1.391 . S
C146 H140 0.930 . S
C146 C142 1.429 . S
C146 C145 1.391 . S
H147 C150 0.931 . S
H148 C153 0.928 . S
H149 C155 0.930 . S
C150 H147 0.931 . S
C150 C151 1.413 . S
C150 C152 1.361 1_655 S
C151 C150 1.413 . S
C151 C155 1.429 1_655 S
C152 C150 1.361 1_455 S
C152 C153 1.371 . S
C153 H148 0.928 . S
C153 C152 1.371 . S
C153 C154 1.404 . S
C154 C153 1.404 . S
C154 C155 1.391 . S
C155 H149 0.930 . S
C155 C151 1.429 1_455 S
C155 C154 1.391 . S
H156 C159 0.931 . S
H157 C162 0.928 . S
H158 C164 0.930 . S
C159 H156 0.931 . S
C159 C160 1.413 . S
C159 C161 1.360 1_545 S
C160 C159 1.413 . S
C160 C164 1.429 . S
C161 C159 1.360 1_565 S
C161 C162 1.372 . S
C162 H157 0.928 . S
C162 C161 1.372 . S
C162 C163 1.404 . S
C163 C162 1.404 . S
C163 C164 1.391 1_565 S
C164 H158 0.930 . S
C164 C160 1.429 . S
C164 C163 1.391 1_545 S
H165 C168 0.931 . S
H166 C171 0.928 . S
H167 C173 0.930 . S
C168 H165 0.931 . S
C168 C169 1.413 . S
C168 C170 1.360 . S
C169 C168 1.413 . S
C169 C173 1.429 . S
C170 C168 1.360 . S
C170 C171 1.372 . S
C171 H166 0.928 . S
C171 C170 1.372 . S
C171 C172 1.404 . S
C172 C171 1.404 . S
C172 C173 1.391 . S
C173 H167 0.930 . S
C173 C169 1.429 . S
C173 C172 1.391 . S
H174 C186 0.930 . S
H175 C188 0.930 . S
H176 C189 0.930 . S
H177 C193 0.959 . S
H178 C193 0.959 . S
H179 C193 0.961 . S
H180 C194 0.960 . S
H181 C194 0.961 . S
H182 C194 0.959 . S
H183 C197 0.929 . S
H184 C198 0.931 . S
H185 C200 0.930 . S
C186 H174 0.930 . S
C186 C187 1.399 . S
C186 C191 1.399 . S
C187 C186 1.399 . S
C187 C188 1.376 . S
C188 H175 0.930 . S
C188 C187 1.376 . S
C188 C189 1.388 . S
C189 H176 0.930 . S
C189 C188 1.388 . S
C189 C190 1.390 . S
C190 C189 1.390 . S
C190 C191 1.394 . S
C190 C196 1.465 . S
C191 C186 1.399 . S
C191 C190 1.394 . S
C191 C192 1.516 . S
C192 C191 1.516 . S
C192 C193 1.502 . S
C192 C194 1.561 . S
C192 C195 1.526 . S
C193 H177 0.959 . S
C193 H178 0.959 . S
C193 H179 0.961 . S
C193 C192 1.502 . S
C194 H180 0.960 . S
C194 H181 0.961 . S
C194 H182 0.959 . S
C194 C192 1.561 . S
C195 C192 1.526 . S
C195 C196 1.396 . S
C195 C200 1.390 . S
C196 C190 1.465 . S
C196 C195 1.396 . S
C196 C197 1.399 . S
C197 H183 0.929 . S
C197 C196 1.399 . S
C197 C198 1.385 . S
C198 H184 0.931 . S
C198 C197 1.385 . S
C198 C199 1.389 . S
C199 C198 1.389 . S
C199 C200 1.387 . S
C200 H185 0.930 . S
C200 C195 1.390 . S
C200 C199 1.387 . S
H201 C213 0.930 . S
H202 C215 0.930 . S
H203 C216 0.930 . S
H204 C220 0.959 . S
H205 C220 0.959 . S
H206 C220 0.961 . S
H207 C221 0.960 . S
H208 C221 0.961 . S
H209 C221 0.959 . S
H210 C224 0.929 . S
H211 C225 0.931 . S
H212 C227 0.930 . S
C213 H201 0.930 . S
C213 C214 1.399 . S
C213 C218 1.399 . S
C214 C213 1.399 . S
C214 C215 1.376 . S
C215 H202 0.930 . S
C215 C214 1.376 . S
C215 C216 1.388 . S
C216 H203 0.930 . S
C216 C215 1.388 . S
C216 C217 1.390 . S
C217 C216 1.390 . S
C217 C218 1.394 . S
C217 C223 1.465 . S
C218 C213 1.399 . S
C218 C217 1.394 . S
C218 C219 1.516 . S
C219 C218 1.516 . S
C219 C220 1.502 . S
C219 C221 1.561 . S
C219 C222 1.526 . S
C220 H204 0.959 . S
C220 H205 0.959 . S
C220 H206 0.961 . S
C220 C219 1.502 . S
C221 H207 0.960 . S
C221 H208 0.961 . S
C221 H209 0.959 . S
C221 C219 1.561 . S
C222 C219 1.526 . S
C222 C223 1.396 . S
C222 C227 1.390 . S
C223 C217 1.465 . S
C223 C222 1.396 . S
C223 C224 1.399 . S
C224 H210 0.929 . S
C224 C223 1.399 . S
C224 C225 1.385 . S
C225 H211 0.931 . S
C225 C224 1.385 . S
C225 C226 1.389 . S
C226 C225 1.389 . S
C226 C227 1.387 . S
C227 H212 0.930 . S
C227 C222 1.390 . S
C227 C226 1.387 . S
H228 C240 0.930 . S
H229 C242 0.930 . S
H230 C243 0.930 . S
H231 C247 0.959 . S
H232 C247 0.959 . S
H233 C247 0.961 . S
H234 C248 0.960 . S
H235 C248 0.961 . S
H236 C248 0.959 . S
H237 C251 0.929 . S
H238 C252 0.931 . S
H239 C254 0.930 . S
C240 H228 0.930 . S
C240 C241 1.399 . S
C240 C245 1.399 . S
C241 C240 1.399 . S
C241 C242 1.376 . S
C242 H229 0.930 . S
C242 C241 1.376 . S
C242 C243 1.388 . S
C243 H230 0.930 . S
C243 C242 1.388 . S
C243 C244 1.390 . S
C244 C243 1.390 . S
C244 C245 1.394 . S
C244 C250 1.465 . S
C245 C240 1.399 . S
C245 C244 1.394 . S
C245 C246 1.516 . S
C246 C245 1.516 . S
C246 C247 1.502 . S
C246 C248 1.561 . S
C246 C249 1.526 . S
C247 H231 0.959 . S
C247 H232 0.959 . S
C247 H233 0.961 . S
C247 C246 1.502 . S
C248 H234 0.960 . S
C248 H235 0.961 . S
C248 H236 0.959 . S
C248 C246 1.561 . S
C249 C246 1.526 . S
C249 C250 1.396 . S
C249 C254 1.390 . S
C250 C244 1.465 . S
C250 C249 1.396 . S
C250 C251 1.399 . S
C251 H237 0.929 . S
C251 C250 1.399 . S
C251 C252 1.385 . S
C252 H238 0.931 . S
C252 C251 1.385 . S
C252 C253 1.389 . S
C253 C252 1.389 . S
C253 C254 1.387 . S
C254 H239 0.930 . S
C254 C249 1.390 . S
C254 C253 1.387 . S
H255 C267 0.930 . S
H256 C269 0.930 . S
H257 C270 0.930 . S
H258 C274 0.959 . S
H259 C274 0.959 . S
H260 C274 0.961 . S
H261 C275 0.960 . S
H262 C275 0.961 . S
H263 C275 0.959 . S
H264 C278 0.929 . S
H265 C279 0.931 . S
H266 C281 0.930 . S
C267 H255 0.930 . S
C267 C268 1.399 . S
C267 C272 1.399 . S
C268 C267 1.399 . S
C268 C269 1.376 . S
C269 H256 0.930 . S
C269 C268 1.376 . S
C269 C270 1.388 . S
C270 H257 0.930 . S
C270 C269 1.388 . S
C270 C271 1.390 . S
C271 C270 1.390 . S
C271 C272 1.394 . S
C271 C277 1.465 . S
C272 C267 1.399 . S
C272 C271 1.394 . S
C272 C273 1.516 . S
C273 C272 1.516 . S
C273 C274 1.502 . S
C273 C275 1.561 . S
C273 C276 1.526 . S
C274 H258 0.959 . S
C274 H259 0.959 . S
C274 H260 0.961 . S
C274 C273 1.502 . S
C275 H261 0.960 . S
C275 H262 0.961 . S
C275 H263 0.959 . S
C275 C273 1.561 . S
C276 C273 1.526 . S
C276 C277 1.396 . S
C276 C281 1.390 . S
C277 C271 1.465 . S
C277 C276 1.396 . S
C277 C278 1.399 . S
C278 H264 0.929 . S
C278 C277 1.399 . S
C278 C279 1.385 . S
C279 H265 0.931 . S
C279 C278 1.385 . S
C279 C280 1.389 . S
C280 C279 1.389 . S
C280 C281 1.387 . S
C281 H266 0.930 . S
C281 C276 1.390 . S
C281 C280 1.387 . S
H282 C294 0.930 . S
H283 C296 0.930 . S
H284 C297 0.930 . S
H285 C301 0.959 . S
H286 C301 0.959 . S
H287 C301 0.961 . S
H288 C302 0.960 . S
H289 C302 0.961 . S
H290 C302 0.959 . S
H291 C305 0.929 . S
H292 C306 0.931 . S
H293 C308 0.930 . S
C294 H282 0.930 . S
C294 C295 1.399 . S
C294 C299 1.399 . S
C295 C294 1.399 . S
C295 C296 1.376 . S
C296 H283 0.930 . S
C296 C295 1.376 . S
C296 C297 1.388 . S
C297 H284 0.930 . S
C297 C296 1.388 . S
C297 C298 1.390 . S
C298 C297 1.390 . S
C298 C299 1.394 . S
C298 C304 1.465 . S
C299 C294 1.399 . S
C299 C298 1.394 . S
C299 C300 1.516 . S
C300 C299 1.516 . S
C300 C301 1.502 . S
C300 C302 1.561 . S
C300 C303 1.526 . S
C301 H285 0.959 . S
C301 H286 0.959 . S
C301 H287 0.961 . S
C301 C300 1.502 . S
C302 H288 0.960 . S
C302 H289 0.961 . S
C302 H290 0.959 . S
C302 C300 1.561 . S
C303 C300 1.526 . S
C303 C304 1.396 . S
C303 C308 1.390 . S
C304 C298 1.465 . S
C304 C303 1.396 . S
C304 C305 1.399 . S
C305 H291 0.929 . S
C305 C304 1.399 . S
C305 C306 1.385 . S
C306 H292 0.931 . S
C306 C305 1.385 . S
C306 C307 1.389 . S
C307 C306 1.389 . S
C307 C308 1.387 . S
C308 H293 0.930 . S
C308 C303 1.390 . S
C308 C307 1.387 . S
H309 C321 0.930 . S
H310 C323 0.930 . S
H311 C324 0.930 . S
H312 C328 0.959 . S
H313 C328 0.959 . S
H314 C328 0.961 . S
H315 C329 0.960 . S
H316 C329 0.961 . S
H317 C329 0.959 . S
H318 C332 0.929 . S
H319 C333 0.931 . S
H320 C335 0.930 . S
C321 H309 0.930 . S
C321 C322 1.399 . S
C321 C326 1.399 . S
C322 C321 1.399 . S
C322 C323 1.376 . S
C323 H310 0.930 . S
C323 C322 1.376 . S
C323 C324 1.388 . S
C324 H311 0.930 . S
C324 C323 1.388 . S
C324 C325 1.390 . S
C325 C324 1.390 . S
C325 C326 1.394 . S
C325 C331 1.465 . S
C326 C321 1.399 . S
C326 C325 1.394 . S
C326 C327 1.516 . S
C327 C326 1.516 . S
C327 C328 1.502 . S
C327 C329 1.561 . S
C327 C330 1.526 . S
C328 H312 0.959 . S
C328 H313 0.959 . S
C328 H314 0.961 . S
C328 C327 1.502 . S
C329 H315 0.960 . S
C329 H316 0.961 . S
C329 H317 0.959 . S
C329 C327 1.561 . S
C330 C327 1.526 . S
C330 C331 1.396 . S
C330 C335 1.390 . S
C331 C325 1.465 . S
C331 C330 1.396 . S
C331 C332 1.399 . S
C332 H318 0.929 . S
C332 C331 1.399 . S
C332 C333 1.385 . S
C333 H319 0.931 . S
C333 C332 1.385 . S
C333 C334 1.389 . S
C334 C333 1.389 . S
C334 C335 1.387 . S
C335 H320 0.930 . S
C335 C330 1.390 . S
C335 C334 1.387 . S
H336 C348 0.930 . S
H337 C350 0.930 . S
H338 C351 0.930 . S
H339 C355 0.959 . S
H340 C355 0.959 . S
H341 C355 0.961 . S
H342 C356 0.960 . S
H343 C356 0.961 . S
H344 C356 0.959 . S
H345 C359 0.929 . S
H346 C360 0.931 . S
H347 C362 0.930 . S
C348 H336 0.930 . S
C348 C349 1.399 . S
C348 C353 1.399 . S
C349 C348 1.399 . S
C349 C350 1.376 . S
C350 H337 0.930 . S
C350 C349 1.376 . S
C350 C351 1.388 . S
C351 H338 0.930 . S
C351 C350 1.388 . S
C351 C352 1.390 . S
C352 C351 1.390 . S
C352 C353 1.394 . S
C352 C358 1.465 . S
C353 C348 1.399 . S
C353 C352 1.394 . S
C353 C354 1.516 . S
C354 C353 1.516 . S
C354 C355 1.502 . S
C354 C356 1.561 . S
C354 C357 1.526 . S
C355 H339 0.959 . S
C355 H340 0.959 . S
C355 H341 0.961 . S
C355 C354 1.502 . S
C356 H342 0.960 . S
C356 H343 0.961 . S
C356 H344 0.959 . S
C356 C354 1.561 . S
C357 C354 1.526 . S
C357 C358 1.396 . S
C357 C362 1.390 . S
C358 C352 1.465 . S
C358 C357 1.396 . S
C358 C359 1.399 . S
C359 H345 0.929 . S
C359 C358 1.399 . S
C359 C360 1.385 . S
C360 H346 0.931 . S
C360 C359 1.385 . S
C360 C361 1.389 . S
C361 C360 1.389 . S
C361 C362 1.387 . S
C362 H347 0.930 . S
C362 C357 1.390 . S
C362 C361 1.387 . S
H363 C375 0.930 . S
H364 C377 0.930 . S
H365 C378 0.930 . S
H366 C382 0.959 . S
H367 C382 0.959 . S
H368 C382 0.961 . S
H369 C383 0.960 . S
H370 C383 0.961 . S
H371 C383 0.959 . S
H372 C386 0.929 . S
H373 C387 0.931 . S
H374 C389 0.930 . S
C375 H363 0.930 . S
C375 C376 1.399 . S
C375 C380 1.399 . S
C376 C375 1.399 . S
C376 C377 1.376 . S
C377 H364 0.930 . S
C377 C376 1.376 . S
C377 C378 1.388 . S
C378 H365 0.930 . S
C378 C377 1.388 . S
C378 C379 1.390 . S
C379 C378 1.390 . S
C379 C380 1.394 . S
C379 C385 1.465 . S
C380 C375 1.399 . S
C380 C379 1.394 . S
C380 C381 1.516 . S
C381 C380 1.516 . S
C381 C382 1.502 . S
C381 C383 1.561 . S
C381 C384 1.526 . S
C382 H366 0.959 . S
C382 H367 0.959 . S
C382 H368 0.961 . S
C382 C381 1.502 . S
C383 H369 0.960 . S
C383 H370 0.961 . S
C383 H371 0.959 . S
C383 C381 1.561 . S
C384 C381 1.526 . S
C384 C385 1.396 . S
C384 C389 1.390 . S
C385 C379 1.465 . S
C385 C384 1.396 . S
C385 C386 1.399 . S
C386 H372 0.929 . S
C386 C385 1.399 . S
C386 C387 1.385 . S
C387 H373 0.931 . S
C387 C386 1.385 . S
C387 C388 1.389 . S
C388 C387 1.389 . S
C388 C389 1.387 . S
C389 H374 0.930 . S
C389 C384 1.390 . S
C389 C388 1.387 . S
H390 C402 0.930 . S
H391 C404 0.930 . S
H392 C405 0.930 . S
H393 C409 0.959 . S
H394 C409 0.959 . S
H395 C409 0.961 . S
H396 C410 0.960 . S
H397 C410 0.961 . S
H398 C410 0.959 . S
H399 C413 0.929 . S
H400 C414 0.931 . S
H401 C416 0.930 . S
C402 H390 0.930 . S
C402 C403 1.399 . S
C402 C407 1.399 . S
C403 C402 1.399 . S
C403 C404 1.376 . S
C404 H391 0.930 . S
C404 C403 1.376 . S
C404 C405 1.388 . S
C405 H392 0.930 . S
C405 C404 1.388 . S
C405 C406 1.390 . S
C406 C405 1.390 . S
C406 C407 1.394 . S
C406 C412 1.465 . S
C407 C402 1.399 . S
C407 C406 1.394 . S
C407 C408 1.516 . S
C408 C407 1.516 . S
C408 C409 1.502 . S
C408 C410 1.561 . S
C408 C411 1.526 . S
C409 H393 0.959 . S
C409 H394 0.959 . S
C409 H395 0.961 . S
C409 C408 1.502 . S
C410 H396 0.960 . S
C410 H397 0.961 . S
C410 H398 0.959 . S
C410 C408 1.561 . S
C411 C408 1.526 . S
C411 C412 1.396 . S
C411 C416 1.390 . S
C412 C406 1.465 . S
C412 C411 1.396 . S
C412 C413 1.399 . S
C413 H399 0.929 . S
C413 C412 1.399 . S
C413 C414 1.385 . S
C414 H400 0.931 . S
C414 C413 1.385 . S
C414 C415 1.389 . S
C415 C414 1.389 . S
C415 C416 1.387 . S
C416 H401 0.930 . S
C416 C411 1.390 . S
C416 C415 1.387 . S
H417 C429 0.930 . S
H418 C431 0.930 . S
H419 C432 0.930 . S
H420 C436 0.959 . S
H421 C436 0.959 . S
H422 C436 0.961 . S
H423 C437 0.960 . S
H424 C437 0.961 . S
H425 C437 0.959 . S
H426 C440 0.929 . S
H427 C441 0.931 . S
H428 C443 0.930 . S
C429 H417 0.930 . S
C429 C430 1.399 . S
C429 C434 1.399 . S
C430 C429 1.399 . S
C430 C431 1.376 . S
C431 H418 0.930 . S
C431 C430 1.376 . S
C431 C432 1.388 . S
C432 H419 0.930 . S
C432 C431 1.388 . S
C432 C433 1.390 . S
C433 C432 1.390 . S
C433 C434 1.394 . S
C433 C439 1.465 . S
C434 C429 1.399 . S
C434 C433 1.394 . S
C434 C435 1.516 . S
C435 C434 1.516 . S
C435 C436 1.502 . S
C435 C437 1.561 . S
C435 C438 1.526 . S
C436 H420 0.959 . S
C436 H421 0.959 . S
C436 H422 0.961 . S
C436 C435 1.502 . S
C437 H423 0.960 . S
C437 H424 0.961 . S
C437 H425 0.959 . S
C437 C435 1.561 . S
C438 C435 1.526 . S
C438 C439 1.396 . S
C438 C443 1.390 . S
C439 C433 1.465 . S
C439 C438 1.396 . S
C439 C440 1.399 . S
C440 H426 0.929 . S
C440 C439 1.399 . S
C440 C441 1.385 . S
C441 H427 0.931 . S
C441 C440 1.385 . S
C441 C442 1.389 . S
C442 C441 1.389 . S
C442 C443 1.387 . S
C443 H428 0.930 . S
C443 C438 1.390 . S
C443 C442 1.387 . S
H444 C456 0.930 . S
H445 C458 0.930 . S
H446 C459 0.930 . S
H447 C463 0.959 . S
H448 C463 0.959 . S
H449 C463 0.961 . S
H450 C464 0.960 . S
H451 C464 0.961 . S
H452 C464 0.959 . S
H453 C467 0.929 . S
H454 C468 0.931 . S
H455 C470 0.930 . S
C456 H444 0.930 . S
C456 C457 1.399 . S
C456 C461 1.399 . S
C457 C456 1.399 . S
C457 C458 1.376 . S
C458 H445 0.930 . S
C458 C457 1.376 . S
C458 C459 1.388 . S
C459 H446 0.930 . S
C459 C458 1.388 . S
C459 C460 1.390 . S
C460 C459 1.390 . S
C460 C461 1.394 . S
C460 C466 1.465 . S
C461 C456 1.399 . S
C461 C460 1.394 . S
C461 C462 1.516 . S
C462 C461 1.516 . S
C462 C463 1.502 . S
C462 C464 1.561 . S
C462 C465 1.526 . S
C463 H447 0.959 . S
C463 H448 0.959 . S
C463 H449 0.961 . S
C463 C462 1.502 . S
C464 H450 0.960 . S
C464 H451 0.961 . S
C464 H452 0.959 . S
C464 C462 1.561 . S
C465 C462 1.526 . S
C465 C466 1.396 . S
C465 C470 1.390 . S
C466 C460 1.465 . S
C466 C465 1.396 . S
C466 C467 1.399 . S
C467 H453 0.929 . S
C467 C466 1.399 . S
C467 C468 1.385 . S
C468 H454 0.931 . S
C468 C467 1.385 . S
C468 C469 1.389 . S
C469 C468 1.389 . S
C469 C470 1.387 . S
C470 H455 0.930 . S
C470 C465 1.390 . S
C470 C469 1.387 . S
H471 C483 0.930 . S
H472 C485 0.930 . S
H473 C486 0.930 . S
H474 C490 0.959 . S
H475 C490 0.959 . S
H476 C490 0.961 . S
H477 C491 0.960 . S
H478 C491 0.961 . S
H479 C491 0.959 . S
H480 C494 0.929 . S
H481 C495 0.931 . S
H482 C497 0.930 . S
C483 H471 0.930 . S
C483 C484 1.399 . S
C483 C488 1.399 . S
C484 C483 1.399 . S
C484 C485 1.376 . S
C485 H472 0.930 . S
C485 C484 1.376 . S
C485 C486 1.388 . S
C486 H473 0.930 . S
C486 C485 1.388 . S
C486 C487 1.390 . S
C487 C486 1.390 . S
C487 C488 1.394 . S
C487 C493 1.465 . S
C488 C483 1.399 . S
C488 C487 1.394 . S
C488 C489 1.516 . S
C489 C488 1.516 . S
C489 C490 1.502 . S
C489 C491 1.561 . S
C489 C492 1.526 . S
C490 H474 0.959 . S
C490 H475 0.959 . S
C490 H476 0.961 . S
C490 C489 1.502 . S
C491 H477 0.960 . S
C491 H478 0.961 . S
C491 H479 0.959 . S
C491 C489 1.561 . S
C492 C489 1.526 . S
C492 C493 1.396 . S
C492 C497 1.390 . S
C493 C487 1.465 . S
C493 C492 1.396 . S
C493 C494 1.399 . S
C494 H480 0.929 . S
C494 C493 1.399 . S
C494 C495 1.385 . S
C495 H481 0.931 . S
C495 C494 1.385 . S
C495 C496 1.389 . S
C496 C495 1.389 . S
C496 C497 1.387 . S
C497 H482 0.930 . S
C497 C492 1.390 . S
C497 C496 1.387 . S
H498 C510 0.930 . S
H499 C512 0.930 . S
H500 C513 0.930 . S
H501 C517 0.959 . S
H502 C517 0.959 1_556 S
H503 C517 0.961 . S
H504 C518 0.960 . S
H505 C518 0.961 1_556 S
H506 C518 0.959 . S
H507 C521 0.929 . S
H508 C522 0.931 . S
H509 C524 0.930 . S
C510 H498 0.930 . S
C510 C511 1.399 . S
C510 C515 1.399 . S
C511 C510 1.399 . S
C511 C512 1.376 . S
C512 H499 0.930 . S
C512 C511 1.376 . S
C512 C513 1.388 . S
C513 H500 0.930 . S
C513 C512 1.388 . S
C513 C514 1.390 . S
C514 C513 1.390 . S
C514 C515 1.394 . S
C514 C520 1.465 . S
C515 C510 1.399 . S
C515 C514 1.394 . S
C515 C516 1.516 . S
C516 C515 1.516 . S
C516 C517 1.502 . S
C516 C518 1.561 1_455 S
C516 C519 1.526 1_554 S
C517 H501 0.959 . S
C517 H502 0.959 1_554 S
C517 H503 0.961 . S
C517 C516 1.502 . S
C518 H504 0.960 . S
C518 H505 0.961 1_554 S
C518 H506 0.959 . S
C518 C516 1.561 1_655 S
C519 C516 1.526 1_556 S
C519 C520 1.396 1_556 S
C519 C524 1.390 . S
C520 C514 1.465 . S
C520 C519 1.396 1_554 S
C520 C521 1.399 1_554 S
C521 H507 0.929 . S
C521 C520 1.399 1_556 S
C521 C522 1.385 . S
C522 H508 0.931 . S
C522 C521 1.385 . S
C522 C523 1.389 . S
C523 C522 1.389 . S
C523 C524 1.387 . S
C524 H509 0.930 . S
C524 C519 1.390 . S
C524 C523 1.387 . S
H525 C537 0.930 . S
H526 C539 0.930 . S
H527 C540 0.930 . S
H528 C544 0.959 . S
H529 C544 0.959 . S
H530 C544 0.961 . S
H531 C545 0.960 . S
H532 C545 0.961 . S
H533 C545 0.959 . S
H534 C548 0.929 . S
H535 C549 0.931 . S
H536 C551 0.930 . S
C537 H525 0.930 . S
C537 C538 1.399 1_565 S
C537 C542 1.399 . S
C538 C537 1.399 1_545 S
C538 C539 1.376 . S
C539 H526 0.930 . S
C539 C538 1.376 . S
C539 C540 1.388 . S
C540 H527 0.930 . S
C540 C539 1.388 . S
C540 C541 1.390 . S
C541 C540 1.390 . S
C541 C542 1.394 1_545 S
C541 C547 1.465 . S
C542 C537 1.399 . S
C542 C541 1.394 1_565 S
C542 C543 1.516 . S
C543 C542 1.516 . S
C543 C544 1.502 . S
C543 C545 1.561 . S
C543 C546 1.524 . S
C544 H528 0.959 . S
C544 H529 0.959 . S
C544 H530 0.961 . S
C544 C543 1.502 . S
C545 H531 0.960 . S
C545 H532 0.961 . S
C545 H533 0.959 . S
C545 C543 1.561 . S
C546 C543 1.524 . S
C546 C547 1.398 1_565 S
C546 C551 1.389 . S
C547 C541 1.465 . S
C547 C546 1.398 1_545 S
C547 C548 1.399 . S
C548 H534 0.929 . S
C548 C547 1.399 . S
C548 C549 1.385 . S
C549 H535 0.931 . S
C549 C548 1.385 . S
C549 C550 1.389 . S
C550 C549 1.389 . S
C550 C551 1.387 1_545 S
C551 H536 0.930 . S
C551 C546 1.389 . S
C551 C550 1.387 1_565 S
H552 C564 0.930 . S
H553 C566 0.930 . S
H554 C567 0.930 . S
H555 C571 0.959 . S
H556 C571 0.959 . S
H557 C571 0.961 . S
H558 C572 0.960 . S
H559 C572 0.961 . S
H560 C572 0.959 . S
H561 C575 0.929 . S
H562 C576 0.931 . S
H563 C578 0.930 . S
C564 H552 0.930 . S
C564 C565 1.399 . S
C564 C569 1.399 . S
C565 C564 1.399 . S
C565 C566 1.376 . S
C566 H553 0.930 . S
C566 C565 1.376 . S
C566 C567 1.388 . S
C567 H554 0.930 . S
C567 C566 1.388 . S
C567 C568 1.390 . S
C568 C567 1.390 . S
C568 C569 1.394 . S
C568 C574 1.465 . S
C569 C564 1.399 . S
C569 C568 1.394 . S
C569 C570 1.516 . S
C570 C569 1.516 . S
C570 C571 1.502 . S
C570 C572 1.561 . S
C570 C573 1.526 . S
C571 H555 0.959 . S
C571 H556 0.959 . S
C571 H557 0.961 . S
C571 C570 1.502 . S
C572 H558 0.960 . S
C572 H559 0.961 . S
C572 H560 0.959 . S
C572 C570 1.561 . S
C573 C570 1.526 . S
C573 C574 1.396 . S
C573 C578 1.390 . S
C574 C568 1.465 . S
C574 C573 1.396 . S
C574 C575 1.399 . S
C575 H561 0.929 . S
C575 C574 1.399 . S
C575 C576 1.385 . S
C576 H562 0.931 . S
C576 C575 1.385 . S
C576 C577 1.389 . S
C577 C576 1.389 . S
C577 C578 1.387 . S
C578 H563 0.930 . S
C578 C573 1.390 . S
C578 C577 1.387 . S
H579 C591 0.930 . S
H580 C593 0.930 . S
H581 C594 0.930 . S
H582 C598 0.959 . S
H583 C598 0.959 . S
H584 C598 0.961 . S
H585 C599 0.960 . S
H586 C599 0.961 . S
H587 C599 0.959 . S
H588 C602 0.929 . S
H589 C603 0.931 . S
H590 C605 0.930 . S
C591 H579 0.930 . S
C591 C592 1.399 1_565 S
C591 C596 1.399 . S
C592 C591 1.399 1_545 S
C592 C593 1.376 . S
C593 H580 0.930 . S
C593 C592 1.376 . S
C593 C594 1.388 . S
C594 H581 0.930 . S
C594 C593 1.388 . S
C594 C595 1.390 . S
C595 C594 1.390 . S
C595 C596 1.394 1_545 S
C595 C601 1.465 . S
C596 C591 1.399 . S
C596 C595 1.394 1_565 S
C596 C597 1.516 . S
C597 C596 1.516 . S
C597 C598 1.502 . S
C597 C599 1.561 . S
C597 C600 1.526 . S
C598 H582 0.959 . S
C598 H583 0.959 . S
C598 H584 0.961 . S
C598 C597 1.502 . S
C599 H585 0.960 . S
C599 H586 0.961 . S
C599 H587 0.959 . S
C599 C597 1.561 . S
C600 C597 1.526 . S
C600 C601 1.396 1_565 S
C600 C605 1.390 . S
C601 C595 1.465 . S
C601 C600 1.396 1_545 S
C601 C602 1.399 . S
C602 H588 0.929 . S
C602 C601 1.399 . S
C602 C603 1.385 . S
C603 H589 0.931 . S
C603 C602 1.385 . S
C603 C604 1.389 . S
C604 C603 1.389 . S
C604 C605 1.387 1_545 S
C605 H590 0.930 . S
C605 C600 1.390 . S
C605 C604 1.387 1_565 S
H606 C618 0.930 . S
H607 C620 0.930 . S
H608 C621 0.930 . S
H609 C625 0.959 . S
H610 C625 0.973 . S
H611 C625 0.961 . S
H612 C626 0.960 . S
H613 C626 0.961 1_554 S
H614 C626 0.959 . S
H615 C629 0.929 . S
H616 C630 0.931 . S
H617 C632 0.930 . S
C618 H606 0.930 . S
C618 C619 1.399 . S
C618 C623 1.399 . S
C619 C618 1.399 . S
C619 C620 1.376 . S
C620 H607 0.930 . S
C620 C619 1.376 . S
C620 C621 1.388 . S
C621 H608 0.930 . S
C621 C620 1.388 . S
C621 C622 1.390 . S
C622 C621 1.390 . S
C622 C623 1.394 . S
C622 C628 1.465 . S
C623 C618 1.399 . S
C623 C622 1.394 . S
C623 C624 1.516 . S
C624 C623 1.516 . S
C624 C625 1.502 . S
C624 C626 1.561 . S
C624 C627 1.526 . S
C625 H609 0.959 . S
C625 H610 0.973 . S
C625 H611 0.961 . S
C625 C624 1.502 . S
C626 H612 0.960 . S
C626 H613 0.961 1_556 S
C626 H614 0.959 . S
C626 C624 1.561 . S
C627 C624 1.526 . S
C627 C628 1.396 . S
C627 C632 1.390 1_556 S
C628 C622 1.465 . S
C628 C627 1.396 . S
C628 C629 1.399 . S
C629 H615 0.929 . S
C629 C628 1.399 . S
C629 C630 1.385 1_556 S
C630 H616 0.931 . S
C630 C629 1.385 1_554 S
C630 C631 1.389 . S
C631 C630 1.389 . S
C631 C632 1.387 . S
C632 H617 0.930 . S
C632 C627 1.390 1_554 S
C632 C631 1.387 . S
H633 C645 0.930 . S
H634 C647 0.930 . S
H635 C648 0.930 . S
H636 C652 0.959 . S
H637 C652 0.959 . S
H638 C652 0.961 . S
H639 C653 0.960 . S
H640 C653 0.961 . S
H641 C653 0.959 . S
H642 C656 0.929 . S
H643 C657 0.931 . S
H644 C659 0.930 . S
C645 H633 0.930 . S
C645 C646 1.399 . S
C645 C650 1.399 . S
C646 C645 1.399 . S
C646 C647 1.376 . S
C647 H634 0.930 . S
C647 C646 1.376 . S
C647 C648 1.388 . S
C648 H635 0.930 . S
C648 C647 1.388 . S
C648 C649 1.390 . S
C649 C648 1.390 . S
C649 C650 1.394 . S
C649 C655 1.465 . S
C650 C645 1.399 . S
C650 C649 1.394 . S
C650 C651 1.516 . S
C651 C650 1.516 . S
C651 C652 1.502 1_455 S
C651 C653 1.561 . S
C651 C654 1.526 . S
C652 H636 0.959 . S
C652 H637 0.959 . S
C652 H638 0.961 . S
C652 C651 1.502 1_655 S
C653 H639 0.960 . S
C653 H640 0.961 . S
C653 H641 0.959 . S
C653 C651 1.561 . S
C654 C651 1.526 . S
C654 C655 1.396 . S
C654 C659 1.390 . S
C655 C649 1.465 . S
C655 C654 1.396 . S
C655 C656 1.399 . S
C656 H642 0.929 . S
C656 C655 1.399 . S
C656 C657 1.385 . S
C657 H643 0.931 . S
C657 C656 1.385 . S
C657 C658 1.389 . S
C658 C657 1.389 . S
C658 C659 1.387 . S
C659 H644 0.930 . S
C659 C654 1.390 . S
C659 C658 1.387 . S
C187 C7 0.798 . S
C199 C169 0.802 . S
C214 C51 1.810 . S
C226 C151 1.779 . S
C241 C87 1.281 . S
C253 C163 1.367 . S
C268 C16 0.628 . S
C280 C172 0.557 . S
C307 C154 1.848 . S
C295 C42 1.867 . S
C334 C160 1.403 . S
C322 C96 1.342 . S
C349 C47 1.302 . S
C361 C133 1.301 . S
C376 C91 2.983 . S
C388 C142 2.954 1_655 S
C403 C2 1.913 . S
C415 C124 1.909 . S
C442 C136 1.401 . S
C430 C56 1.350 . S
C469 C145 2.886 . S
C457 C82 2.889 . S
C484 C11 1.807 . S
C496 C127 1.795 . S
C523 C143 1.784 . S
C511 C19 1.682 . S
C538 C50 1.356 . S
C550 C125 1.363 . S
C565 C99 1.409 . S
C577 C134 1.501 . S
C604 C161 1.469 1_545 S
C592 C59 1.441 . S
C631 C170 1.084 . S
C619 C90 1.067 . S
C646 C10 1.331 . S
C658 C152 1.346 . S
