# Generated by pormake.
# Topology pto, (3,4)-cn, num edge types: 1
# Building blocks:
#     Node 0, Type 0, BuildingBlock: WUSLED_clean_sbu_0, # of connection points: 3
#     Node 1, Type 0, BuildingBlock: WUSLED_clean_sbu_0, # of connection points: 3
#     Node 2, Type 0, BuildingBlock: WUSLED_clean_sbu_0, # of connection points: 3
#     Node 3, Type 0, BuildingBlock: WUSLED_clean_sbu_0, # of connection points: 3
#     Node 4, Type 0, BuildingBlock: WUSLED_clean_sbu_0, # of connection points: 3
#     Node 5, Type 0, BuildingBlock: WUSLED_clean_sbu_0, # of connection points: 3
#     Node 6, Type 0, BuildingBlock: WUSLED_clean_sbu_0, # of connection points: 3
#     Node 7, Type 0, BuildingBlock: WUSLED_clean_sbu_0, # of connection points: 3
#     Node 8, Type 1, BuildingBlock: GIZVER_clean_linker_0, # of connection points: 4
#     Node 9, Type 1, BuildingBlock: GIZVER_clean_linker_0, # of connection points: 4
#     Node 10, Type 1, BuildingBlock: GIZVER_clean_linker_0, # of connection points: 4
#     Node 11, Type 1, BuildingBlock: GIZVER_clean_linker_0, # of connection points: 4
#     Node 12, Type 1, BuildingBlock: GIZVER_clean_linker_0, # of connection points: 4
#     Node 13, Type 1, BuildingBlock: GIZVER_clean_linker_0, # of connection points: 4
#     Edge 14, Type (0, 1), BuildingBlock: XUDNAN_clean_linker_2, # of connection points: 2
#     Edge 15, Type (0, 1), BuildingBlock: XUDNAN_clean_linker_2, # of connection points: 2
#     Edge 16, Type (0, 1), BuildingBlock: XUDNAN_clean_linker_2, # of connection points: 2
#     Edge 17, Type (0, 1), BuildingBlock: XUDNAN_clean_linker_2, # of connection points: 2
#     Edge 18, Type (0, 1), BuildingBlock: XUDNAN_clean_linker_2, # of connection points: 2
#     Edge 19, Type (0, 1), BuildingBlock: XUDNAN_clean_linker_2, # of connection points: 2
#     Edge 20, Type (0, 1), BuildingBlock: XUDNAN_clean_linker_2, # of connection points: 2
#     Edge 21, Type (0, 1), BuildingBlock: XUDNAN_clean_linker_2, # of connection points: 2
#     Edge 22, Type (0, 1), BuildingBlock: XUDNAN_clean_linker_2, # of connection points: 2
#     Edge 23, Type (0, 1), BuildingBlock: XUDNAN_clean_linker_2, # of connection points: 2
#     Edge 24, Type (0, 1), BuildingBlock: XUDNAN_clean_linker_2, # of connection points: 2
#     Edge 25, Type (0, 1), BuildingBlock: XUDNAN_clean_linker_2, # of connection points: 2
#     Edge 26, Type (0, 1), BuildingBlock: XUDNAN_clean_linker_2, # of connection points: 2
#     Edge 27, Type (0, 1), BuildingBlock: XUDNAN_clean_linker_2, # of connection points: 2
#     Edge 28, Type (0, 1), BuildingBlock: XUDNAN_clean_linker_2, # of connection points: 2
#     Edge 29, Type (0, 1), BuildingBlock: XUDNAN_clean_linker_2, # of connection points: 2
#     Edge 30, Type (0, 1), BuildingBlock: XUDNAN_clean_linker_2, # of connection points: 2
#     Edge 31, Type (0, 1), BuildingBlock: XUDNAN_clean_linker_2, # of connection points: 2
#     Edge 32, Type (0, 1), BuildingBlock: XUDNAN_clean_linker_2, # of connection points: 2
#     Edge 33, Type (0, 1), BuildingBlock: XUDNAN_clean_linker_2, # of connection points: 2
#     Edge 34, Type (0, 1), BuildingBlock: XUDNAN_clean_linker_2, # of connection points: 2
#     Edge 35, Type (0, 1), BuildingBlock: XUDNAN_clean_linker_2, # of connection points: 2
#     Edge 36, Type (0, 1), BuildingBlock: XUDNAN_clean_linker_2, # of connection points: 2
#     Edge 37, Type (0, 1), BuildingBlock: XUDNAN_clean_linker_2, # of connection points: 2
# Relax obj value: 0.003
# Max RMSD: 0.031
# Mean RMSD: 0.021
data_MOF--net-pto--node1-WUSLED_clean_sbu_0--node2-GIZVER_clean_linker_0--edge1-XUDNAN_clean_linker_2
_symmetry_space_group_name_H-M    P1
_symmetry_Int_Tables_number       1
_symmetry_cell_setting            triclinic
loop_
_symmetry_equiv_pos_as_xyz
'x, y, z'
_cell_length_a     66.467576
_cell_length_b     53.936933
_cell_length_c     39.274586
_cell_angle_alpha  89.446955
_cell_angle_beta   90.334197
_cell_angle_gamma 90.292453
loop_
_atom_site_label
_atom_site_type_symbol
_atom_site_fract_x
_atom_site_fract_y
_atom_site_fract_z
_atom_type_partial_charge
C0 C 0.24963 0.25053 0.26905 0.0
C1 C 0.25855 0.23162 0.24998 0.0
C2 C 0.25735 0.20355 0.29897 0.0
C3 C 0.26229 0.20838 0.26474 0.0
C4 C 0.24836 0.22252 0.31792 0.0
C5 C 0.24448 0.24568 0.30306 0.0
U6 U 0.26754 0.30992 0.22472 0.0
O7 O 0.25382 0.33142 0.18271 0.0
O8 O 0.25899 0.34881 0.23234 0.0
C9 C 0.25051 0.35072 0.20207 0.0
C10 C 0.24565 0.27533 0.25412 0.0
C11 C 0.22982 0.36082 0.20064 0.0
C12 C 0.19855 0.37302 0.22783 0.0
C13 C 0.21796 0.36309 0.23001 0.0
C14 C 0.20241 0.37827 0.16693 0.0
C15 C 0.19052 0.38065 0.19623 0.0
C16 C 0.22185 0.36856 0.16916 0.0
C17 C 0.32492 0.31361 0.20431 0.0
C18 C 0.34619 0.32504 0.15631 0.0
C19 C 0.35987 0.32582 0.21352 0.0
C20 C 0.34121 0.31818 0.22634 0.0
C21 C 0.36272 0.32888 0.17826 0.0
C22 C 0.32751 0.3175 0.16916 0.0
C23 C 0.30635 0.30214 0.21817 0.0
O24 O 0.25336 0.2942 0.27076 0.0
O25 O 0.24754 0.2775 0.22092 0.0
O26 O 0.29277 0.29442 0.19614 0.0
O27 O 0.29847 0.31249 0.24515 0.0
H28 H 0.2627 0.23472 0.22365 0.0
H29 H 0.26897 0.19416 0.24923 0.0
H30 H 0.24467 0.21968 0.34449 0.0
H31 H 0.2376 0.25994 0.3183 0.0
H32 H 0.18971 0.37445 0.25081 0.0
H33 H 0.22364 0.3572 0.25468 0.0
H34 H 0.19681 0.38431 0.14228 0.0
H35 H 0.23071 0.36715 0.1462 0.0
H36 H 0.34784 0.32688 0.12899 0.0
H37 H 0.37214 0.32895 0.23124 0.0
H38 H 0.33969 0.31515 0.25352 0.0
H39 H 0.31533 0.31395 0.1514 0.0
C40 C 0.24628 0.77345 0.72981 0.0
C41 C 0.25781 0.79229 0.74508 0.0
C42 C 0.25247 0.81912 0.69566 0.0
C43 C 0.26077 0.815 0.72821 0.0
C44 C 0.24093 0.80023 0.68054 0.0
C45 C 0.23783 0.77767 0.69751 0.0
U46 U 0.26498 0.71632 0.77906 0.0
O47 O 0.25048 0.69532 0.82078 0.0
O48 O 0.25741 0.67695 0.77267 0.0
C49 C 0.24788 0.67553 0.80189 0.0
C50 C 0.24288 0.74927 0.7468 0.0
C51 C 0.2272 0.66503 0.80092 0.0
C52 C 0.19848 0.64846 0.76951 0.0
C53 C 0.21771 0.6591 0.76989 0.0
C54 C 0.19753 0.64993 0.83105 0.0
C55 C 0.18819 0.64362 0.80007 0.0
C56 C 0.21687 0.6604 0.83145 0.0
C57 C 0.32196 0.71358 0.80054 0.0
C58 C 0.33875 0.68502 0.83949 0.0
C59 C 0.35847 0.71251 0.80357 0.0
C60 C 0.34078 0.72219 0.78954 0.0
C61 C 0.35771 0.69399 0.829 0.0
C62 C 0.32101 0.69474 0.82536 0.0
C63 C 0.30372 0.72511 0.7862 0.0
O64 O 0.25086 0.73006 0.7317 0.0
O65 O 0.24498 0.74864 0.78011 0.0
O66 O 0.29016 0.7324 0.80815 0.0
O67 O 0.29588 0.71432 0.75933 0.0
H68 H 0.26463 0.78946 0.76993 0.0
H69 H 0.26987 0.82914 0.74032 0.0
H70 H 0.23416 0.80297 0.65564 0.0
H71 H 0.22884 0.76344 0.68532 0.0
H72 H 0.19161 0.64405 0.74522 0.0
H73 H 0.22515 0.66251 0.74583 0.0
H74 H 0.1901 0.64619 0.85504 0.0
H75 H 0.22384 0.66467 0.85571 0.0
H76 H 0.33759 0.67096 0.85925 0.0
H77 H 0.37277 0.71958 0.79451 0.0
H78 H 0.3418 0.73665 0.77026 0.0
H79 H 0.30659 0.68783 0.83413 0.0
C80 C 0.72667 0.71414 0.20939 0.0
C81 C 0.72387 0.70775 0.17505 0.0
C82 C 0.68773 0.7031 0.18407 0.0
C83 C 0.70458 0.70224 0.16254 0.0
C84 C 0.6908 0.70821 0.21876 0.0
C85 C 0.71004 0.71372 0.23122 0.0
U86 U 0.78477 0.71536 0.22585 0.0
O87 O 0.80481 0.74789 0.22323 0.0
O88 O 0.80052 0.72827 0.27185 0.0
C89 C 0.80825 0.7477 0.25622 0.0
C90 C 0.74597 0.7242 0.2223 0.0
C91 C 0.80541 0.77143 0.27352 0.0
C92 C 0.78432 0.80603 0.28971 0.0
C93 C 0.7869 0.78383 0.2721 0.0
C94 C 0.81875 0.80361 0.31012 0.0
C95 C 0.80018 0.81604 0.30919 0.0
C96 C 0.82132 0.78152 0.29244 0.0
C97 C 0.82173 0.66573 0.19934 0.0
C98 C 0.85785 0.67243 0.19398 0.0
C99 C 0.84474 0.63084 0.20218 0.0
C100 C 0.82515 0.64021 0.20298 0.0
C101 C 0.86132 0.64683 0.19752 0.0
C102 C 0.83826 0.68181 0.19511 0.0
C103 C 0.80096 0.67528 0.20073 0.0
O104 O 0.75442 0.71245 0.2481 0.0
O105 O 0.75896 0.73236 0.19962 0.0
O106 O 0.79725 0.6953 0.18237 0.0
O107 O 0.79302 0.67598 0.23128 0.0
H108 H 0.73641 0.70796 0.15757 0.0
H109 H 0.70275 0.69854 0.13564 0.0
H110 H 0.67823 0.70863 0.23616 0.0
H111 H 0.7118 0.71863 0.25777 0.0
H112 H 0.7698 0.81503 0.28876 0.0
H113 H 0.77441 0.77618 0.2577 0.0
H114 H 0.83133 0.81101 0.32452 0.0
H115 H 0.83571 0.7722 0.29375 0.0
H116 H 0.87031 0.68524 0.19071 0.0
H117 H 0.84689 0.61101 0.20461 0.0
H118 H 0.81264 0.6275 0.20641 0.0
H119 H 0.83605 0.70164 0.1927 0.0
C120 C 0.76709 0.23789 0.74383 0.0
C121 C 0.76489 0.23691 0.70825 0.0
C122 C 0.77425 0.19332 0.70852 0.0
C123 C 0.76848 0.21495 0.69083 0.0
C124 C 0.77632 0.19418 0.74413 0.0
C125 C 0.77275 0.21622 0.76161 0.0
U126 U 0.7809 0.30123 0.78282 0.0
O127 O 0.76421 0.33629 0.77993 0.0
O128 O 0.7698 0.31862 0.82958 0.0
C129 C 0.75987 0.33583 0.81256 0.0
C130 C 0.76222 0.26098 0.76225 0.0
C131 C 0.73831 0.3389 0.82147 0.0
C132 C 0.71133 0.33631 0.86318 0.0
C133 C 0.73158 0.33338 0.85458 0.0
C134 C 0.70406 0.3508 0.80596 0.0
C135 C 0.69731 0.34505 0.83898 0.0
C136 C 0.7243 0.3478 0.79732 0.0
C137 C 0.83658 0.32406 0.77658 0.0
C138 C 0.86466 0.3399 0.81041 0.0
C139 C 0.86046 0.35354 0.75197 0.0
C140 C 0.84331 0.33858 0.74894 0.0
C141 C 0.87148 0.35423 0.78263 0.0
C142 C 0.84745 0.32495 0.80742 0.0
C143 C 0.81972 0.30621 0.77171 0.0
O144 O 0.76973 0.26338 0.79311 0.0
O145 O 0.76294 0.28168 0.74432 0.0
O146 O 0.80582 0.31237 0.74925 0.0
O147 O 0.8123 0.29532 0.79904 0.0
H148 H 0.76013 0.25306 0.69377 0.0
H149 H 0.76632 0.21482 0.66348 0.0
H150 H 0.78082 0.17786 0.75848 0.0
H151 H 0.77428 0.21621 0.78908 0.0
H152 H 0.70674 0.33216 0.88904 0.0
H153 H 0.74199 0.32686 0.87396 0.0
H154 H 0.69365 0.35744 0.78665 0.0
H155 H 0.72892 0.35247 0.77164 0.0
H156 H 0.87266 0.34018 0.83451 0.0
H157 H 0.86542 0.36402 0.72988 0.0
H158 H 0.83558 0.33794 0.7246 0.0
H159 H 0.8429 0.31376 0.82911 0.0
C160 C 0.82051 0.6596 0.80143 0.0
C161 C 0.83732 0.67463 0.79432 0.0
C162 C 0.85941 0.63878 0.79914 0.0
C163 C 0.85662 0.66433 0.79332 0.0
C164 C 0.84248 0.6239 0.80653 0.0
C165 C 0.82324 0.63423 0.80766 0.0
U166 U 0.78441 0.71192 0.77994 0.0
O167 O 0.75382 0.71106 0.75789 0.0
O168 O 0.7591 0.72768 0.80806 0.0
C169 C 0.74576 0.72116 0.78489 0.0
C170 C 0.80006 0.66997 0.80138 0.0
C171 C 0.72651 0.71046 0.79703 0.0
C172 C 0.70395 0.69861 0.84315 0.0
C173 C 0.72328 0.70464 0.83156 0.0
C174 C 0.69097 0.70288 0.7857 0.0
C175 C 0.68746 0.69835 0.82049 0.0
C176 C 0.71025 0.70893 0.77416 0.0
C177 C 0.80515 0.77101 0.73716 0.0
C178 C 0.79852 0.79786 0.68818 0.0
C179 C 0.80776 0.81591 0.74227 0.0
C180 C 0.80907 0.79218 0.75678 0.0
C181 C 0.80263 0.81903 0.70772 0.0
C182 C 0.79982 0.77415 0.70268 0.0
C183 C 0.8077 0.74586 0.75217 0.0
O184 O 0.79731 0.68911 0.82128 0.0
O185 O 0.79181 0.67279 0.7711 0.0
O186 O 0.79985 0.7273 0.73505 0.0
O187 O 0.80497 0.74377 0.78522 0.0
H188 H 0.83547 0.69427 0.78919 0.0
H189 H 0.86928 0.67625 0.78724 0.0
H190 H 0.84412 0.60424 0.81159 0.0
H191 H 0.81045 0.62235 0.81317 0.0
H192 H 0.70179 0.69544 0.87015 0.0
H193 H 0.73548 0.70573 0.84989 0.0
H194 H 0.67868 0.70246 0.76747 0.0
H195 H 0.71231 0.71342 0.74744 0.0
H196 H 0.79491 0.79954 0.66133 0.0
H197 H 0.81087 0.83182 0.7581 0.0
H198 H 0.81342 0.79044 0.78332 0.0
H199 H 0.79698 0.75828 0.68663 0.0
C200 C 0.72493 0.30811 0.20005 0.0
C201 C 0.71001 0.31695 0.22202 0.0
C202 C 0.68705 0.32341 0.17419 0.0
C203 C 0.69133 0.32466 0.20923 0.0
C204 C 0.70213 0.31507 0.15214 0.0
C205 C 0.72083 0.30748 0.16489 0.0
U206 U 0.78228 0.30697 0.22083 0.0
O207 O 0.79735 0.29334 0.26732 0.0
O208 O 0.80294 0.27533 0.21843 0.0
C209 C 0.80577 0.27472 0.25158 0.0
C210 C 0.74365 0.29723 0.21442 0.0
C211 C 0.80319 0.25038 0.26809 0.0
C212 C 0.78299 0.21385 0.28114 0.0
C213 C 0.78534 0.23664 0.2642 0.0
C214 C 0.81632 0.21838 0.30575 0.0
C215 C 0.79838 0.20462 0.30239 0.0
C216 C 0.81868 0.24104 0.28873 0.0
C217 C 0.81856 0.35909 0.19763 0.0
C218 C 0.85495 0.35433 0.19978 0.0
C219 C 0.84037 0.39536 0.19721 0.0
C220 C 0.82109 0.38488 0.19664 0.0
C221 C 0.8576 0.38025 0.19861 0.0
C222 C 0.83562 0.34386 0.19942 0.0
C223 C 0.79808 0.34844 0.1976 0.0
O224 O 0.75728 0.28977 0.19267 0.0
O225 O 0.75149 0.30809 0.24128 0.0
O226 O 0.78961 0.34649 0.22767 0.0
O227 O 0.79536 0.3287 0.17868 0.0
H228 H 0.71258 0.31729 0.24927 0.0
H229 H 0.67999 0.33079 0.22692 0.0
H230 H 0.69943 0.31423 0.12495 0.0
H231 H 0.73187 0.30062 0.14719 0.0
H232 H 0.76895 0.20378 0.27832 0.0
H233 H 0.77318 0.24369 0.24844 0.0
H234 H 0.82854 0.21162 0.32159 0.0
H235 H 0.83256 0.25141 0.29194 0.0
H236 H 0.8678 0.34208 0.20056 0.0
H237 H 0.84175 0.41538 0.19701 0.0
H238 H 0.80811 0.39695 0.19564 0.0
H239 H 0.83399 0.32387 0.20049 0.0
C240 C 0.24825 0.24847 0.71998 0.0
C241 C 0.25629 0.22809 0.738 0.0
C242 C 0.25443 0.20283 0.687 0.0
C243 C 0.25927 0.20545 0.72167 0.0
C244 C 0.24633 0.2232 0.66912 0.0
C245 C 0.2432 0.24572 0.68549 0.0
U246 U 0.26682 0.30611 0.76742 0.0
O247 O 0.25841 0.34523 0.76018 0.0
O248 O 0.25276 0.32663 0.80913 0.0
C249 C 0.24965 0.34642 0.79003 0.0
C250 C 0.24477 0.2726 0.73648 0.0
C251 C 0.22882 0.35561 0.78921 0.0
C252 C 0.19333 0.34956 0.77602 0.0
C253 C 0.21298 0.34039 0.77794 0.0
C254 C 0.20511 0.38923 0.79677 0.0
C255 C 0.18915 0.37416 0.78522 0.0
C256 C 0.22474 0.38002 0.79874 0.0
C257 C 0.32434 0.30976 0.78777 0.0
C258 C 0.34565 0.32166 0.83561 0.0
C259 C 0.35933 0.32162 0.77865 0.0
C260 C 0.34065 0.31395 0.76585 0.0
C261 C 0.3622 0.32514 0.81379 0.0
C262 C 0.32694 0.31406 0.82277 0.0
C263 C 0.30569 0.29842 0.77396 0.0
O264 O 0.24705 0.27334 0.76975 0.0
O265 O 0.25243 0.29206 0.72076 0.0
O266 O 0.2976 0.30921 0.74707 0.0
O267 O 0.2923 0.29027 0.79599 0.0
H268 H 0.26035 0.22959 0.76464 0.0
H269 H 0.26566 0.19012 0.73601 0.0
H270 H 0.24221 0.22165 0.6425 0.0
H271 H 0.23682 0.26106 0.67112 0.0
H272 H 0.18142 0.33734 0.76737 0.0
H273 H 0.21586 0.32147 0.7704 0.0
H274 H 0.20255 0.40837 0.80353 0.0
H275 H 0.2368 0.39209 0.80727 0.0
H276 H 0.34731 0.32387 0.86286 0.0
H277 H 0.37162 0.32447 0.76103 0.0
H278 H 0.3391 0.31061 0.73879 0.0
H279 H 0.31472 0.31084 0.84042 0.0
C280 C 0.21326 0.69234 0.2282 0.0
C281 C 0.20928 0.68425 0.1949 0.0
C282 C 0.17971 0.66139 0.21457 0.0
C283 C 0.19266 0.66898 0.18817 0.0
C284 C 0.18409 0.66891 0.24799 0.0
C285 C 0.20063 0.6843 0.25467 0.0
U286 U 0.26828 0.71696 0.2273 0.0
O287 O 0.2791 0.75497 0.21805 0.0
O288 O 0.28461 0.73702 0.26762 0.0
C289 C 0.28572 0.75756 0.24943 0.0
C290 C 0.22939 0.71056 0.2357 0.0
C291 C 0.27986 0.78045 0.26694 0.0
C292 C 0.25703 0.81494 0.27545 0.0
C293 C 0.2619 0.7929 0.25892 0.0
C294 C 0.28782 0.81212 0.30853 0.0
C295 C 0.26996 0.82485 0.30045 0.0
C296 C 0.29272 0.79022 0.29185 0.0
C297 C 0.3122 0.68275 0.18903 0.0
C298 C 0.34698 0.69385 0.20152 0.0
C299 C 0.33886 0.67145 0.15007 0.0
C300 C 0.31849 0.67137 0.15901 0.0
C301 C 0.35338 0.68285 0.17109 0.0
C302 C 0.32661 0.69393 0.21029 0.0
C303 C 0.29056 0.68384 0.19708 0.0
O304 O 0.24284 0.70392 0.25867 0.0
O305 O 0.2372 0.72263 0.20964 0.0
O306 O 0.28038 0.70091 0.18032 0.0
O307 O 0.28599 0.68265 0.2296 0.0
H308 H 0.21877 0.69006 0.17393 0.0
H309 H 0.18988 0.6632 0.16222 0.0
H310 H 0.17434 0.66359 0.26885 0.0
H311 H 0.20328 0.69044 0.28051 0.0
H312 H 0.24325 0.82432 0.26838 0.0
H313 H 0.25169 0.78568 0.2398 0.0
H314 H 0.29793 0.81883 0.32814 0.0
H315 H 0.30661 0.78084 0.2985 0.0
H316 H 0.35771 0.70252 0.21857 0.0
H317 H 0.34309 0.66319 0.12616 0.0
H318 H 0.30759 0.66284 0.14211 0.0
H319 H 0.32211 0.70298 0.23352 0.0
H320 H 1.00083 0.47277 0.17202 0.0
H321 H 1.00433 0.55255 0.17382 0.0
H322 H 0.95021 0.5148 0.20506 0.0
H323 H 0.0241 0.49501 0.13524 0.0
H324 H 0.02437 0.52782 0.13338 0.0
H325 H 0.04694 0.47258 0.17261 0.0
H326 H 0.09918 0.51415 0.20342 0.0
H327 H 0.04522 0.55223 0.17346 0.0
C328 C 0.9944 0.49047 0.17882 0.0
C329 C 0.97449 0.49136 0.19046 0.0
C330 C 1.00528 0.51256 0.17257 0.0
C331 C 0.99623 0.53556 0.1796 0.0
C332 C 0.97633 0.53667 0.19174 0.0
C333 C 0.96583 0.51437 0.19733 0.0
C334 C 0.02428 0.51181 0.15148 0.0
C335 C 0.04365 0.51232 0.17201 0.0
C336 C 0.05409 0.49011 0.1786 0.0
C337 C 0.07417 0.49053 0.19032 0.0
C338 C 0.08336 0.51356 0.19669 0.0
C339 C 0.07312 0.53595 0.19103 0.0
C340 C 0.0531 0.53513 0.17913 0.0
H341 H 0.04763 0.54756 0.76282 0.0
H342 H 0.04558 0.46779 0.75753 0.0
H343 H 0.09889 0.50487 0.79378 0.0
H344 H 0.02456 0.52676 0.72377 0.0
H345 H 0.02446 0.49405 0.7199 0.0
H346 H 1.00114 0.54728 0.76068 0.0
H347 H 0.95176 0.50324 0.79768 0.0
H348 H 1.00426 0.46742 0.75885 0.0
C349 C 0.05437 0.52968 0.76817 0.0
C350 C 0.07428 0.52859 0.78027 0.0
C351 C 0.04387 0.50774 0.7598 0.0
C352 C 0.05334 0.48463 0.76498 0.0
C353 C 0.07318 0.48332 0.77765 0.0
C354 C 0.08331 0.50545 0.78548 0.0
C355 C 0.02467 0.50922 0.73892 0.0
C356 C 1.00557 0.50754 0.75974 0.0
C357 C 0.99483 0.52932 0.7673 0.0
C358 C 0.97516 0.52783 0.78022 0.0
C359 C 0.96684 0.50447 0.78735 0.0
C360 C 0.97696 0.48262 0.77927 0.0
C361 C 0.9966 0.48419 0.7663 0.0
H362 H 0.29009 0.03484 0.43968 0.0
H363 H 0.2892 0.03827 0.54912 0.0
H364 H 0.26608 0.09888 0.48906 0.0
H365 H 0.3119 0.00787 0.47479 0.0
H366 H 0.31104 0.00891 0.52012 0.0
H367 H 0.28451 0.98643 0.4419 0.0
H368 H 0.25476 0.9273 0.49577 0.0
H369 H 0.28897 0.98166 0.55124 0.0
C370 C 0.28599 0.04444 0.46272 0.0
C371 C 0.27725 0.06807 0.46048 0.0
C372 C 0.29009 0.03345 0.49464 0.0
C373 C 0.28535 0.04631 0.52455 0.0
C374 C 0.27688 0.07011 0.5227 0.0
C375 C 0.27248 0.08047 0.4906 0.0
C376 C 0.30149 0.00933 0.49676 0.0
C377 C 0.28746 0.98722 0.49675 0.0
C378 C 0.28031 0.97759 0.46575 0.0
C379 C 0.2684 0.95605 0.4654 0.0
C380 C 0.26362 0.94423 0.49623 0.0
C381 C 0.27131 0.95289 0.52731 0.0
C382 C 0.28275 0.97489 0.5275 0.0
H383 H 0.49929 0.69042 0.94802 0.0
H384 H 0.50104 0.69776 0.05707 0.0
H385 H 0.45035 0.66292 0.00811 0.0
H386 H 0.5195 0.72282 0.97548 0.0
H387 H 0.5204 0.72557 0.02038 0.0
H388 H 0.54321 0.69678 0.94573 0.0
H389 H 0.59795 0.68335 0.00135 0.0
H390 H 0.54354 0.69953 0.05504 0.0
C391 C 0.49302 0.68619 0.97284 0.0
C392 C 0.47423 0.67427 0.97505 0.0
C393 C 0.503 0.69434 0.00248 0.0
C394 C 0.49387 0.69043 0.03442 0.0
C395 C 0.47479 0.67906 0.03686 0.0
C396 C 0.4655 0.67041 0.00703 0.0
C397 C 0.52082 0.71178 -0.00052 0.0
C398 C 0.54106 0.69901 0.00033 0.0
C399 C 0.55115 0.69424 0.96967 0.0
C400 C 0.57172 0.68808 0.96975 0.0
C401 C 0.58181 0.68593 0.00117 0.0
C402 C 0.5719 0.68955 0.03223 0.0
C403 C 0.55133 0.69578 0.03151 0.0
H404 H 0.80922 0.03927 0.44711 0.0
H405 H 0.80837 0.03516 0.55669 0.0
H406 H 0.78216 0.09756 0.50448 0.0
H407 H 0.83135 0.0114 0.47674 0.0
H408 H 0.83385 0.01272 0.52176 0.0
H409 H 0.80935 0.9811 0.45024 0.0
H410 H 0.79096 0.91989 0.51356 0.0
H411 H 0.81186 0.9876 0.55919 0.0
C412 C 0.80429 0.04658 0.47127 0.0
C413 C 0.79498 0.06986 0.47219 0.0
C414 C 0.80897 0.03377 0.5017 0.0
C415 C 0.80381 0.04425 0.53318 0.0
C416 C 0.7944 0.06747 0.5343 0.0
C417 C 0.78947 0.07964 0.5037 0.0
C418 C 0.82256 0.01146 0.50078 0.0
C419 C 0.81119 0.98728 0.50438 0.0
C420 C 0.80622 0.97347 0.4753 0.0
C421 C 0.79896 0.94906 0.47854 0.0
C422 C 0.79594 0.93898 0.51121 0.0
C423 C 0.80057 0.95255 0.54064 0.0
C424 C 0.80784 0.97697 0.53689 0.0
H425 H 0.50266 0.37268 0.94047 0.0
H426 H 0.5028 0.37385 0.05039 0.0
H427 H 0.45119 0.3465 0.99601 0.0
H428 H 0.52524 0.40056 0.97216 0.0
H429 H 0.52543 0.40086 0.01734 0.0
H430 H 0.54763 0.37379 0.94104 0.0
H431 H 0.59706 0.34356 -0.00164 0.0
H432 H 0.54478 0.36933 0.05056 0.0
C433 C 0.49554 0.36813 0.9645 0.0
C434 C 0.47572 0.35889 0.96466 0.0
C435 C 0.50555 0.37343 0.99544 0.0
C436 C 0.49562 0.36879 0.02658 0.0
C437 C 0.47581 0.35954 0.0268 0.0
C438 C 0.46637 0.354 0.99585 0.0
C439 C 0.52495 0.38826 0.99507 0.0
C440 C 0.54371 0.37243 0.99565 0.0
C441 C 0.55409 0.36781 0.96513 0.0
C442 C 0.5733 0.35695 0.96585 0.0
C443 C 0.58172 0.35023 -0.00258 0.0
C444 C 0.5716 0.35427 0.02808 0.0
C445 C 0.55246 0.36527 0.02702 0.0
H446 H 0.1732 0.41532 0.23766 0.0
H447 H 0.1615 0.37055 0.14846 0.0
H448 H 0.12832 0.39043 0.14143 0.0
H449 H 0.12062 0.41628 0.26931 0.0
H450 H 0.12276 0.44799 0.28301 0.0
H451 H 0.14461 0.42832 0.28329 0.0
H452 H 0.16356 0.46027 0.24545 0.0
H453 H 0.14182 0.47999 0.24506 0.0
H454 H 0.15254 0.46999 0.20547 0.0
H455 H 0.098 0.41794 0.14074 0.0
H456 H 0.07357 0.4519 0.14512 0.0
H457 H 0.1041 0.47787 0.23622 0.0
C458 C 0.16345 0.40927 0.21715 0.0
C459 C 0.16994 0.39132 0.19365 0.0
C460 C 0.15692 0.38438 0.16663 0.0
C461 C 0.13797 0.39542 0.16259 0.0
C462 C 0.13216 0.41331 0.18588 0.0
C463 C 0.14449 0.42016 0.21269 0.0
C464 C 0.13532 0.44121 0.23258 0.0
C465 C 0.13054 0.43295 0.26922 0.0
C466 C 0.14913 0.46422 0.23209 0.0
C467 C 0.11622 0.4456 0.21215 0.0
C468 C 0.11455 0.42911 0.18559 0.0
C469 C 0.09894 0.43067 0.16183 0.0
C470 C 0.08499 0.44997 0.16472 0.0
C471 C 0.08671 0.4676 0.19117 0.0
C472 C 0.10228 0.46478 0.21568 0.0
H473 H 0.17672 0.60346 0.76256 0.0
H474 H 0.15453 0.65533 0.83699 0.0
H475 H 0.12157 0.63364 0.83696 0.0
H476 H 0.12997 0.59615 0.7145 0.0
H477 H 0.13403 0.56356 0.70768 0.0
H478 H 0.15522 0.58428 0.71205 0.0
H479 H 0.16922 0.55707 0.76148 0.0
H480 H 0.14814 0.53628 0.75718 0.0
H481 H 0.1535 0.55034 0.7977 0.0
H482 H 0.09106 0.60477 0.82976 0.0
H483 H 0.06724 0.56996 0.81897 0.0
H484 H 0.11013 0.53765 0.74985 0.0
C485 C 0.16482 0.61055 0.77841 0.0
C486 C 0.16814 0.63122 0.79956 0.0
C487 C 0.15233 0.63948 0.82064 0.0
C488 C 0.13353 0.62738 0.82061 0.0
C489 C 0.13079 0.607 0.79944 0.0
C490 C 0.14609 0.59863 0.77885 0.0
C491 C 0.13989 0.57551 0.75994 0.0
C492 C 0.13977 0.58017 0.72125 0.0
C493 C 0.15349 0.55351 0.76967 0.0
C494 C 0.11878 0.57193 0.77335 0.0
C495 C 0.11361 0.59037 0.79581 0.0
C496 C 0.09495 0.59032 0.81207 0.0
C497 C 0.08148 0.57061 0.80574 0.0
C498 C 0.08692 0.55119 0.78372 0.0
C499 C 0.10563 0.55226 0.7669 0.0
H500 H 0.87862 0.61128 0.23863 0.0
H501 H 0.89077 0.65911 0.15169 0.0
H502 H 0.92435 0.64015 0.14588 0.0
H503 H 0.93086 0.61042 0.27285 0.0
H504 H 0.92889 0.57832 0.28566 0.0
H505 H 0.90686 0.59767 0.28537 0.0
H506 H 0.88854 0.56655 0.24578 0.0
H507 H 0.91043 0.54711 0.24613 0.0
H508 H 0.9001 0.55799 0.2062 0.0
H509 H 0.95459 0.61197 0.14486 0.0
H510 H 0.97839 0.57712 0.14847 0.0
H511 H 0.94777 0.54966 0.2387 0.0
C512 C 0.88845 0.61797 0.21862 0.0
C513 C 0.88208 0.63671 0.19564 0.0
C514 C 0.89542 0.645 0.16985 0.0
C515 C 0.91452 0.63432 0.16634 0.0
C516 C 0.92022 0.61564 0.18916 0.0
C517 C 0.90763 0.60771 0.21501 0.0
C518 C 0.91676 0.58629 0.23482 0.0
C519 C 0.9211 0.59362 0.27187 0.0
C520 C 0.90315 0.56313 0.23311 0.0
C521 C 0.93608 0.58272 0.21524 0.0
C522 C 0.93794 0.59995 0.18919 0.0
C523 C 0.95354 0.59874 0.16566 0.0
C524 C 0.96715 0.57892 0.16811 0.0
C525 C 0.9651 0.56053 0.19393 0.0
C526 C 0.94981 0.56327 0.21856 0.0
H527 H 0.87797 0.40117 0.75723 0.0
H528 H 0.90732 0.34201 0.81394 0.0
H529 H 0.9384 0.36735 0.81732 0.0
H530 H 0.92123 0.41988 0.70776 0.0
H531 H 0.91503 0.45235 0.70915 0.0
H532 H 0.89533 0.42933 0.71096 0.0
H533 H 0.88256 0.44798 0.76744 0.0
H534 H 0.90216 0.47109 0.7657 0.0
H535 H 0.89977 0.45136 0.80276 0.0
H536 H 0.96661 0.40006 0.81444 0.0
H537 H 0.98802 0.43781 0.80834 0.0
H538 H 0.93981 0.47415 0.75269 0.0
C539 C 0.89097 0.39338 0.77008 0.0
C540 C 0.89016 0.36954 0.78526 0.0
C541 C 0.90747 0.36032 0.80241 0.0
C542 C 0.92526 0.3745 0.80423 0.0
C543 C 0.92554 0.39788 0.78876 0.0
C544 C 0.90878 0.40724 0.77214 0.0
C545 C 0.91266 0.43306 0.7583 0.0
C546 C 0.91097 0.43368 0.71922 0.0
C547 C 0.89845 0.45198 0.77453 0.0
C548 C 0.93416 0.43691 0.76993 0.0
C549 C 0.9415 0.41644 0.78727 0.0
C550 C 0.961 0.41616 0.80084 0.0
C551 C 0.97309 0.43756 0.79715 0.0
C552 C 0.9655 0.4589 0.78034 0.0
C553 C 0.94595 0.45819 0.76603 0.0
H554 H 0.23484 0.17747 0.346 0.0
H555 H 0.29069 0.1745 0.28939 0.0
H556 H 0.29937 0.13537 0.31877 0.0
H557 H 0.25551 0.15882 0.42369 0.0
H558 H 0.23392 0.14107 0.43731 0.0
H559 H 0.23075 0.16671 0.40821 0.0
H560 H 0.21284 0.13763 0.36529 0.0
H561 H 0.21609 0.11182 0.39428 0.0
H562 H 0.22537 0.10999 0.35135 0.0
H563 H 0.30384 0.09921 0.35893 0.0
H564 H 0.30443 0.07053 0.4083 0.0
H565 H 0.24575 0.09699 0.43874 0.0
C566 C 0.24884 0.16854 0.33951 0.0
C567 C 0.262 0.1791 0.31513 0.0
C568 C 0.28012 0.16662 0.30741 0.0
C569 C 0.28523 0.14437 0.32405 0.0
C570 C 0.27204 0.1347 0.34828 0.0
C571 C 0.25421 0.1464 0.35597 0.0
C572 C 0.24351 0.13345 0.38511 0.0
C573 C 0.24077 0.15106 0.41536 0.0
C574 C 0.22325 0.12257 0.37328 0.0
C575 C 0.25845 0.11314 0.3934 0.0
C576 C 0.27465 0.1139 0.37153 0.0
C577 C 0.29106 0.09815 0.37584 0.0
C578 C 0.2912 0.08177 0.40385 0.0
C579 C 0.2751 0.08141 0.42734 0.0
C580 C 0.25827 0.09679 0.42122 0.0
H581 H 0.39084 0.72122 0.84807 0.0
H582 H 0.36717 0.6461 0.84763 0.0
H583 H 0.39767 0.63155 0.87788 0.0
H584 H 0.44469 0.7046 0.83738 0.0
H585 H 0.45299 0.72889 0.86546 0.0
H586 H 0.43044 0.73284 0.84029 0.0
H587 H 0.41012 0.74164 0.89498 0.0
H588 H 0.43258 0.73793 0.92015 0.0
H589 H 0.41061 0.71942 0.92956 0.0
H590 H 0.42876 0.62613 0.91396 0.0
H591 H 0.45699 0.63077 0.95482 0.0
H592 H 0.4611 0.70894 0.92965 0.0
C593 C 0.39228 0.70158 0.85345 0.0
C594 C 0.3766 0.68479 0.84527 0.0
C595 C 0.37888 0.65936 0.85381 0.0
C596 C 0.39626 0.65088 0.87068 0.0
C597 C 0.41134 0.66799 0.8786 0.0
C598 C 0.40953 0.69282 0.87017 0.0
C599 C 0.42702 0.7078 0.88411 0.0
C600 C 0.43952 0.7192 0.85507 0.0
C601 C 0.41963 0.72786 0.90866 0.0
C602 C 0.43863 0.6877 0.90274 0.0
C603 C 0.4295 0.66478 0.89886 0.0
C604 C 0.43631 0.64384 0.91649 0.0
C605 C 0.4524 0.64659 0.9395 0.0
C606 C 0.46151 0.67005 0.94456 0.0
C607 C 0.4549 0.69064 0.92517 0.0
H608 H 0.81261 0.82453 0.37451 0.0
H609 H 0.78122 0.85917 0.28955 0.0
H610 H 0.77713 0.89734 0.32337 0.0
H611 H 0.78268 0.8507 0.44068 0.0
H612 H 0.80369 0.85443 0.46944 0.0
H613 H 0.80385 0.83002 0.43849 0.0
H614 H 0.83785 0.8464 0.415 0.0
H615 H 0.83781 0.87083 0.44592 0.0
H616 H 0.83991 0.87829 0.40124 0.0
H617 H 0.77741 0.93237 0.36696 0.0
H618 H 0.78096 0.96004 0.41681 0.0
H619 H 0.81246 0.90172 0.47172 0.0
C620 C 0.805 0.84019 0.36287 0.0
C621 C 0.79733 0.83893 0.32933 0.0
C622 C 0.7871 0.85968 0.31531 0.0
C623 C 0.7848 0.88146 0.33426 0.0
C624 C 0.7927 0.88211 0.36722 0.0
C625 C 0.80252 0.86192 0.38138 0.0
C626 C 0.80959 0.8671 0.41725 0.0
C627 C 0.79934 0.84952 0.44297 0.0
C628 C 0.83266 0.86557 0.41999 0.0
C629 C 0.80236 0.89342 0.42111 0.0
C630 C 0.79266 0.90188 0.39208 0.0
C631 C 0.78492 0.92587 0.38986 0.0
C632 C 0.78706 0.94148 0.41818 0.0
C633 C 0.79675 0.93294 0.44826 0.0
C634 C 0.80458 0.90864 0.4494 0.0
H635 H 0.67348 0.31455 0.87836 0.0
H636 H 0.67271 0.38404 0.82181 0.0
H637 H 0.63792 0.39145 0.84086 0.0
H638 H 0.61972 0.29814 0.86513 0.0
H639 H 0.61738 0.28553 0.9076 0.0
H640 H 0.64116 0.28413 0.88585 0.0
H641 H 0.65857 0.30668 0.93615 0.0
H642 H 0.63494 0.30797 0.95806 0.0
H643 H 0.64891 0.3361 0.94987 0.0
H644 H 0.60503 0.39397 0.87247 0.0
H645 H 0.57776 0.39184 0.91485 0.0
H646 H 0.59915 0.31974 0.94843 0.0
C647 C 0.66593 0.3312 0.86965 0.0
C648 C 0.67585 0.34867 0.84847 0.0
C649 C 0.66536 0.37019 0.8376 0.0
C650 C 0.64558 0.37457 0.84833 0.0
C651 C 0.63635 0.35713 0.8696 0.0
C652 C 0.64617 0.33579 0.87996 0.0
C653 C 0.63359 0.32091 0.90493 0.0
C654 C 0.62761 0.29568 0.88997 0.0
C655 C 0.64466 0.31775 0.93927 0.0
C656 C 0.6155 0.33768 0.90806 0.0
C657 C 0.61722 0.35834 0.8872 0.0
C658 C 0.6033 0.3776 0.88835 0.0
C659 C 0.58771 0.37614 0.91236 0.0
C660 C 0.58621 0.35559 0.93498 0.0
C661 C 0.59983 0.33569 0.93151 0.0
H662 H 0.26323 0.82515 0.62913 0.0
H663 H 0.24966 0.86654 0.7202 0.0
H664 H 0.2542 0.90591 0.68799 0.0
H665 H 0.30139 0.86737 0.59656 0.0
H666 H 0.29394 0.8628 0.55285 0.0
H667 H 0.2904 0.83827 0.58371 0.0
H668 H 0.25246 0.83626 0.56814 0.0
H669 H 0.25587 0.86083 0.53735 0.0
H670 H 0.2375 0.86397 0.57059 0.0
H671 H 0.25858 0.94092 0.64396 0.0
H672 H 0.2631 0.96782 0.59293 0.0
H673 H 0.27472 0.90259 0.53242 0.0
C674 C 0.26121 0.8425 0.64232 0.0
C675 C 0.256 0.84283 0.67709 0.0
C676 C 0.25378 0.8659 0.69358 0.0
C677 C 0.25626 0.88833 0.67548 0.0
C678 C 0.26116 0.8873 0.64103 0.0
C679 C 0.26376 0.86492 0.62478 0.0
C680 C 0.26879 0.86864 0.58761 0.0
C681 C 0.28988 0.85869 0.57974 0.0
C682 C 0.25269 0.85672 0.56458 0.0
C683 C 0.26823 0.8966 0.58522 0.0
C684 C 0.26388 0.90716 0.61619 0.0
C685 C 0.26213 0.93281 0.61964 0.0
C686 C 0.26477 0.94795 0.59058 0.0
C687 C 0.26902 0.93734 0.55857 0.0
C688 C 0.27104 0.91133 0.55628 0.0
H689 H 0.67356 0.67047 0.1356 0.0
H690 H 0.65501 0.73128 0.19964 0.0
H691 H 0.62133 0.73033 0.17316 0.0
H692 H 0.64981 0.69116 0.06164 0.0
H693 H 0.64231 0.66095 0.04682 0.0
H694 H 0.66408 0.66412 0.07388 0.0
H695 H 0.64873 0.63254 0.11671 0.0
H696 H 0.62687 0.62929 0.08972 0.0
H697 H 0.624 0.6379 0.13365 0.0
H698 H 0.59139 0.72682 0.13446 0.0
H699 H 0.56772 0.7209 0.08679 0.0
H700 H 0.60445 0.6605 0.04998 0.0
C701 C 0.66232 0.68334 0.1444 0.0
C702 C 0.66694 0.7008 0.16997 0.0
C703 C 0.65178 0.71738 0.18064 0.0
C704 C 0.63257 0.71704 0.16566 0.0
C705 C 0.62861 0.69985 0.14023 0.0
C706 C 0.64299 0.68314 0.12987 0.0
C707 C 0.6353 0.66772 0.10043 0.0
C708 C 0.64866 0.67121 0.06884 0.0
C709 C 0.63362 0.64023 0.11076 0.0
C710 C 0.61469 0.67906 0.09501 0.0
C711 C 0.61104 0.69741 0.11842 0.0
C712 C 0.59385 0.71209 0.11647 0.0
C713 C 0.58035 0.70842 0.08933 0.0
C714 C 0.58403 0.69014 0.06443 0.0
C715 C 0.60113 0.67474 0.06832 0.0
H716 H 0.79373 0.18811 0.64785 0.0
H717 H 0.76255 0.14586 0.72609 0.0
H718 H 0.76655 0.10774 0.69223 0.0
H719 H 0.77114 0.1588 0.57807 0.0
H720 H 0.79337 0.15965 0.552 0.0
H721 H 0.78977 0.1828 0.58402 0.0
H722 H 0.82423 0.17158 0.61124 0.0
H723 H 0.82794 0.14839 0.5792 0.0
H724 H 0.82919 0.13992 0.62366 0.0
H725 H 0.772 0.07457 0.64692 0.0
H726 H 0.77808 0.05024 0.59457 0.0
H727 H 0.80526 0.11508 0.54723 0.0
C728 C 0.7878 0.17084 0.658 0.0
C729 C 0.77781 0.16999 0.68962 0.0
C730 C 0.77048 0.14692 0.70211 0.0
C731 C 0.77262 0.12519 0.683 0.0
C732 C 0.78224 0.12682 0.65158 0.0
C733 C 0.78978 0.1491 0.63933 0.0
C734 C 0.79862 0.14637 0.60423 0.0
C735 C 0.78756 0.16288 0.57805 0.0
C736 C 0.82135 0.15189 0.60463 0.0
C737 C 0.79446 0.11921 0.5982 0.0
C738 C 0.7852 0.10805 0.6258 0.0
C739 C 0.77938 0.08312 0.62527 0.0
C740 C 0.78291 0.06943 0.59556 0.0
C741 C 0.79192 0.08086 0.56683 0.0
C742 C 0.79807 0.10592 0.56864 0.0
H743 H 0.37209 0.3593 0.12388 0.0
H744 H 0.39938 0.31113 0.20012 0.0
H745 H 0.43263 0.31815 0.174 0.0
H746 H 0.3996 0.33729 0.05536 0.0
H747 H 0.40176 0.36688 0.03395 0.0
H748 H 0.38075 0.36073 0.06144 0.0
H749 H 0.38968 0.39976 0.09664 0.0
H750 H 0.41081 0.40597 0.06923 0.0
H751 H 0.41458 0.40299 0.11457 0.0
H752 H 0.46259 0.32699 0.13543 0.0
H753 H 0.48562 0.33591 0.08716 0.0
H754 H 0.43842 0.37793 0.03696 0.0
C755 C 0.38506 0.35038 0.13535 0.0
C756 C 0.38303 0.33476 0.16424 0.0
C757 C 0.4005 0.32357 0.17841 0.0
C758 C 0.4195 0.32737 0.16366 0.0
C759 C 0.42087 0.34254 0.13483 0.0
C760 C 0.40407 0.35392 0.12093 0.0
C761 C 0.40918 0.36779 0.08845 0.0
C762 C 0.39712 0.35755 0.05802 0.0
C763 C 0.40587 0.39579 0.09248 0.0
C764 C 0.43132 0.36183 0.08564 0.0
C765 C 0.43795 0.34752 0.11278 0.0
C766 C 0.45762 0.33849 0.1143 0.0
C767 C 0.47063 0.3437 0.08693 0.0
C768 C 0.46376 0.35753 0.05842 0.0
C769 C 0.44406 0.36727 0.05847 0.0
H770 H 0.86949 0.59508 0.76895 0.0
H771 H 0.89534 0.65683 0.8243 0.0
H772 H 0.92881 0.63693 0.82209 0.0
H773 H 0.89715 0.54788 0.81029 0.0
H774 H 0.89989 0.52936 0.77266 0.0
H775 H 0.87853 0.54944 0.77678 0.0
H776 H 0.88757 0.57102 0.71954 0.0
H777 H 0.90901 0.551 0.7153 0.0
H778 H 0.91233 0.58418 0.71394 0.0
H779 H 0.95943 0.6082 0.81655 0.0
H780 H 0.98343 0.57351 0.80876 0.0
H781 H 0.93684 0.53188 0.75644 0.0
C782 C 0.88216 0.60446 0.78064 0.0
C783 C 0.87975 0.62748 0.79691 0.0
C784 C 0.89684 0.63928 0.81144 0.0
C785 C 0.91591 0.62808 0.81038 0.0
C786 C 0.91768 0.6052 0.79442 0.0
C787 C 0.90121 0.59364 0.7797 0.0
C788 C 0.90678 0.56883 0.76499 0.0
C789 C 0.89489 0.54764 0.78222 0.0
C790 C 0.90374 0.56877 0.72614 0.0
C791 C 0.92884 0.5679 0.77438 0.0
C792 C 0.93502 0.58903 0.79113 0.0
C793 C 0.95474 0.59166 0.80325 0.0
C794 C 0.9683 0.57195 0.79864 0.0
C795 C 0.96195 0.54994 0.78236 0.0
C796 C 0.94209 0.54834 0.76945 0.0
H797 H 0.87068 0.42142 0.16324 0.0
H798 H 0.89111 0.36503 0.23487 0.0
H799 H 0.9247 0.3849 0.23651 0.0
H800 H 0.91763 0.42951 0.11738 0.0
H801 H 0.91447 0.46256 0.113 0.0
H802 H 0.89272 0.44254 0.11519 0.0
H803 H 0.87925 0.46749 0.16631 0.0
H804 H 0.90086 0.48763 0.16413 0.0
H805 H 0.89503 0.4716 0.20335 0.0
H806 H 0.95586 0.41302 0.23273 0.0
H807 H 0.98047 0.44757 0.22573 0.0
H808 H 0.93874 0.48524 0.158 0.0
C809 C 0.88215 0.41317 0.17934 0.0
C810 C 0.87815 0.39157 0.19887 0.0
C811 C 0.89381 0.38132 0.21922 0.0
C812 C 0.91295 0.39254 0.22042 0.0
C813 C 0.91627 0.41398 0.20108 0.0
C814 C 0.90123 0.42416 0.18097 0.0
C815 C 0.9081 0.448 0.16406 0.0
C816 C 0.90824 0.44549 0.1251 0.0
C817 C 0.89504 0.46997 0.17514 0.0
C818 C 0.92922 0.44998 0.17826 0.0
C819 C 0.93386 0.4301 0.19926 0.0
C820 C 0.95241 0.42857 0.21613 0.0
C821 C 0.96632 0.44815 0.21195 0.0
C822 C 0.96143 0.46898 0.19144 0.0
C823 C 0.94283 0.46951 0.1739 0.0
H824 H 0.16966 0.40597 0.82834 0.0
H825 H 0.16178 0.36606 0.73372 0.0
H826 H 0.12837 0.38509 0.72596 0.0
H827 H 0.11639 0.40445 0.8551 0.0
H828 H 0.11763 0.43543 0.87182 0.0
H829 H 0.13974 0.4162 0.87223 0.0
H830 H 0.15941 0.45019 0.83898 0.0
H831 H 0.13745 0.46951 0.8387 0.0
H832 H 0.1494 0.46174 0.79915 0.0
H833 H 0.09762 0.41237 0.72496 0.0
H834 H 0.07313 0.44638 0.7299 0.0
H835 H 0.10048 0.46762 0.82594 0.0
C836 C 0.16085 0.40101 0.80613 0.0
C837 C 0.16839 0.38436 0.78176 0.0
C838 C 0.15626 0.37838 0.75312 0.0
C839 C 0.13724 0.38916 0.74843 0.0
C840 C 0.13041 0.40575 0.77272 0.0
C841 C 0.14184 0.41157 0.80108 0.0
C842 C 0.13181 0.43138 0.82205 0.0
C843 C 0.12605 0.42125 0.85739 0.0
C844 C 0.14532 0.45457 0.82486 0.0
C845 C 0.1133 0.43643 0.80044 0.0
C846 C 0.1126 0.42126 0.77232 0.0
C847 C 0.0978 0.42401 0.74724 0.0
C848 C 0.0838 0.4433 0.75041 0.0
C849 C 0.08475 0.45968 0.77838 0.0
C850 C 0.09929 0.45544 0.80425 0.0
H851 H 0.16491 0.62119 0.25044 0.0
H852 H 0.15299 0.66765 0.16185 0.0
H853 H 0.12259 0.64282 0.14913 0.0
H854 H 0.15032 0.56438 0.21294 0.0
H855 H 0.1391 0.5517 0.25101 0.0
H856 H 0.15921 0.57404 0.25421 0.0
H857 H 0.13666 0.602 0.29115 0.0
H858 H 0.11642 0.57977 0.2879 0.0
H859 H 0.11241 0.61155 0.27508 0.0
H860 H 0.09432 0.61179 0.14456 0.0
H861 H 0.07167 0.57546 0.14643 0.0
H862 H 0.10129 0.54987 0.23902 0.0
C863 C 0.15576 0.62635 0.22862 0.0
C864 C 0.16136 0.64639 0.20713 0.0
C865 C 0.14915 0.65222 0.17846 0.0
C866 C 0.13174 0.63837 0.17121 0.0
C867 C 0.12667 0.61874 0.19288 0.0
C868 C 0.13835 0.61266 0.22094 0.0
C869 C 0.13014 0.5899 0.23915 0.0
C870 C 0.14562 0.56876 0.23932 0.0
C871 C 0.12351 0.59619 0.27548 0.0
C872 C 0.11221 0.58389 0.21663 0.0
C873 C 0.11034 0.60089 0.19029 0.0
C874 C 0.09548 0.59853 0.16532 0.0
C875 C 0.08253 0.5779 0.16679 0.0
C876 C 0.08453 0.5598 0.193 0.0
C877 C 0.09932 0.56332 0.21863 0.0
H878 H 0.77597 0.8377 0.66022 0.0
H879 H 0.82976 0.85673 0.71768 0.0
H880 H 0.83183 0.89668 0.68687 0.0
H881 H 0.79276 0.85958 0.58257 0.0
H882 H 0.76886 0.87133 0.56791 0.0
H883 H 0.76965 0.84617 0.59823 0.0
H884 H 0.74764 0.87134 0.63965 0.0
H885 H 0.7468 0.89665 0.60936 0.0
H886 H 0.75561 0.90194 0.65218 0.0
H887 H 0.83112 0.93131 0.64423 0.0
H888 H 0.82785 0.95761 0.59305 0.0
H889 H 0.77363 0.91742 0.56438 0.0
C890 C 0.78801 0.85044 0.66671 0.0
C891 C 0.80263 0.84409 0.69155 0.0
C892 C 0.81815 0.86131 0.69924 0.0
C893 C 0.81949 0.88406 0.6818 0.0
C894 C 0.80508 0.88949 0.65697 0.0
C895 C 0.78953 0.87325 0.6496 0.0
C896 C 0.77705 0.88253 0.61975 0.0
C897 C 0.7771 0.86379 0.59039 0.0
C898 C 0.75549 0.88847 0.63091 0.0
C899 C 0.78855 0.90593 0.61051 0.0
C900 C 0.80449 0.90981 0.63258 0.0
C901 C 0.81839 0.92885 0.62726 0.0
C902 C 0.8163 0.94387 0.59812 0.0
C903 C 0.80039 0.93981 0.57454 0.0
C904 C 0.786 0.92106 0.58171 0.0
H905 H 0.66473 0.29869 0.12635 0.0
H906 H 0.66365 0.36329 0.19122 0.0
H907 H 0.63062 0.37508 0.16675 0.0
H908 H 0.64529 0.32766 0.05359 0.0
H909 H 0.63083 0.30123 0.03972 0.0
H910 H 0.65308 0.29673 0.06521 0.0
H911 H 0.63218 0.27161 0.10932 0.0
H912 H 0.60978 0.2763 0.08403 0.0
H913 H 0.61028 0.28544 0.12806 0.0
H914 H 0.59957 0.38228 0.13006 0.0
H915 H 0.57446 0.38493 0.08348 0.0
H916 H 0.59513 0.3145 0.04488 0.0
C917 C 0.6575 0.31525 0.13559 0.0
C918 C 0.6668 0.33009 0.16068 0.0
C919 C 0.65673 0.35149 0.17227 0.0
C920 C 0.63796 0.35832 0.15852 0.0
C921 C 0.62931 0.34337 0.13355 0.0
C922 C 0.63876 0.32221 0.12234 0.0
C923 C 0.62707 0.31016 0.09371 0.0
C924 C 0.63983 0.30889 0.06115 0.0
C925 C 0.61937 0.28434 0.10444 0.0
C926 C 0.60991 0.32829 0.08969 0.0
C927 C 0.61128 0.34721 0.11309 0.0
C928 C 0.59811 0.3673 0.11207 0.0
C929 C 0.58375 0.36855 0.08567 0.0
C930 C 0.58274 0.34987 0.06059 0.0
C931 C 0.59546 0.32902 0.06374 0.0
H932 H 0.27153 0.19643 0.62465 0.0
H933 H 0.24516 0.15568 0.70916 0.0
H934 H 0.24968 0.11641 0.67794 0.0
H935 H 0.24897 0.16185 0.55881 0.0
H936 H 0.27062 0.16314 0.53141 0.0
H937 H 0.26635 0.18756 0.56137 0.0
H938 H 0.30183 0.18056 0.58745 0.0
H939 H 0.30622 0.15613 0.55747 0.0
H940 H 0.30873 0.15007 0.60251 0.0
H941 H 0.25524 0.08176 0.63503 0.0
H942 H 0.26176 0.05529 0.58503 0.0
H943 H 0.28545 0.11933 0.53055 0.0
C944 C 0.26673 0.17924 0.63664 0.0
C945 C 0.25794 0.17908 0.66925 0.0
C946 C 0.25208 0.15617 0.68427 0.0
C947 C 0.25454 0.13381 0.6667 0.0
C948 C 0.26306 0.13469 0.63433 0.0
C949 C 0.2692 0.15685 0.61963 0.0
C950 C 0.27754 0.15303 0.58438 0.0
C951 C 0.26512 0.16723 0.55741 0.0
C952 C 0.29991 0.16038 0.58288 0.0
C953 C 0.27476 0.12533 0.58115 0.0
C954 C 0.26647 0.11495 0.61017 0.0
C955 C 0.26191 0.08969 0.6123 0.0
C956 C 0.26572 0.07477 0.58387 0.0
C957 C 0.27393 0.08524 0.55374 0.0
C958 C 0.27881 0.11078 0.5529 0.0
H959 H 0.37572 0.64754 0.13794 0.0
H960 H 0.37968 0.72186 0.17904 0.0
H961 H 0.41433 0.72569 0.15773 0.0
H962 H 0.42949 0.63035 0.1511 0.0
H963 H 0.43042 0.61404 0.11131 0.0
H964 H 0.40719 0.61537 0.1347 0.0
H965 H 0.38911 0.63387 0.08166 0.0
H966 H 0.41219 0.63242 0.05815 0.0
H967 H 0.39916 0.66149 0.06173 0.0
H968 H 0.4465 0.72394 0.12518 0.0
H969 H 0.47249 0.71758 0.0818 0.0
H970 H 0.44838 0.6441 0.06237 0.0
C971 C 0.38393 0.66452 0.14287 0.0
C972 C 0.3749 0.6843 0.16051 0.0
C973 C 0.38629 0.70618 0.16633 0.0
C974 C 0.40604 0.70858 0.15424 0.0
C975 C 0.41433 0.68889 0.1365 0.0
C976 C 0.40364 0.66725 0.13089 0.0
C977 C 0.41521 0.64988 0.10817 0.0
C978 C 0.42092 0.62599 0.12748 0.0
C979 C 0.4032 0.6441 0.0755 0.0
C980 C 0.43365 0.66559 0.10063 0.0
C981 C 0.43304 0.68784 0.11772 0.0
C982 C 0.4474 0.70636 0.11224 0.0
C983 C 0.46227 0.70247 0.08767 0.0
C984 C 0.46265 0.68026 0.06866 0.0
C985 C 0.44859 0.66125 0.07647 0.0
H986 H 0.80783 0.19625 0.36917 0.0
H987 H 0.78256 0.16028 0.28027 0.0
H988 H 0.77871 0.12127 0.31359 0.0
H989 H 0.83628 0.1446 0.40018 0.0
H990 H 0.83155 0.15127 0.44429 0.0
H991 H 0.83197 0.17607 0.41328 0.0
H992 H 0.79616 0.18918 0.43153 0.0
H993 H 0.79563 0.1644 0.46256 0.0
H994 H 0.77601 0.16669 0.43083 0.0
H995 H 0.77869 0.08556 0.35743 0.0
H996 H 0.78102 0.05767 0.40805 0.0
H997 H 0.80638 0.11812 0.4666 0.0
C998 C 0.80162 0.18013 0.35658 0.0
C999 C 0.79563 0.18122 0.32208 0.0
C1000 C 0.78717 0.15985 0.30676 0.0
C1001 C 0.78502 0.13762 0.32543 0.0
C1002 C 0.79128 0.13716 0.3594 0.0
C1003 C 0.7993 0.15797 0.37478 0.0
C1004 C 0.80477 0.15296 0.41157 0.0
C1005 C 0.82749 0.15642 0.41767 0.0
C1006 C 0.7924 0.16927 0.43553 0.0
C1007 C 0.79866 0.12603 0.41458 0.0
C1008 C 0.79096 0.11708 0.38433 0.0
C1009 C 0.78461 0.09246 0.38128 0.0
C1010 C 0.78604 0.07674 0.41002 0.0
C1011 C 0.79359 0.08585 0.44131 0.0
C1012 C 0.80011 0.11075 0.44325 0.0
H1013 H 0.37167 0.35644 0.86653 0.0
H1014 H 0.39879 0.30689 0.79368 0.0
H1015 H 0.43211 0.31441 0.81978 0.0
H1016 H 0.41413 0.40034 0.87342 0.0
H1017 H 0.41051 0.40428 0.91849 0.0
H1018 H 0.3893 0.39745 0.8913 0.0
H1019 H 0.38054 0.35918 0.92897 0.0
H1020 H 0.40163 0.36595 0.95626 0.0
H1021 H 0.39944 0.33592 0.93682 0.0
H1022 H 0.46218 0.32407 0.85811 0.0
H1023 H 0.48536 0.33404 0.90599 0.0
H1024 H 0.43827 0.377 0.95288 0.0
C1025 C 0.38461 0.34731 0.85581 0.0
C1026 C 0.38252 0.33117 0.82787 0.0
C1027 C 0.39996 0.31972 0.81464 0.0
C1028 C 0.41899 0.32381 0.82939 0.0
C1029 C 0.42043 0.33952 0.85726 0.0
C1030 C 0.40366 0.35115 0.87023 0.0
C1031 C 0.40887 0.36571 0.90182 0.0
C1032 C 0.40551 0.3936 0.89588 0.0
C1033 C 0.39692 0.35611 0.93278 0.0
C1034 C 0.43103 0.35986 0.90524 0.0
C1035 C 0.43758 0.345 0.87914 0.0
C1036 C 0.45726 0.33599 0.87841 0.0
C1037 C 0.47036 0.3418 0.90555 0.0
C1038 C 0.46357 0.35621 0.93305 0.0
C1039 C 0.44386 0.3659 0.93216 0.0
H1040 H 0.29538 0.86236 0.32097 0.0
H1041 H 0.23269 0.83941 0.32244 0.0
H1042 H 0.22448 0.87585 0.35704 0.0
H1043 H 0.29794 0.87871 0.40559 0.0
H1044 H 0.31471 0.90473 0.39951 0.0
H1045 H 0.31494 0.8795 0.36997 0.0
H1046 H 0.30832 0.91039 0.3202 0.0
H1047 H 0.30791 0.93574 0.34978 0.0
H1048 H 0.2868 0.93055 0.32167 0.0
H1049 H 0.22387 0.91085 0.39827 0.0
H1050 H 0.23124 0.94071 0.44414 0.0
H1051 H 0.29421 0.94089 0.41642 0.0
C1052 C 0.27987 0.86512 0.32817 0.0
C1053 C 0.26468 0.84799 0.31876 0.0
C1054 C 0.24456 0.85244 0.3287 0.0
C1055 C 0.23974 0.8731 0.34844 0.0
C1056 C 0.25516 0.8893 0.35787 0.0
C1057 C 0.27482 0.88558 0.34797 0.0
C1058 C 0.28893 0.90417 0.36436 0.0
C1059 C 0.30507 0.89099 0.38615 0.0
C1060 C 0.29856 0.92123 0.33738 0.0
C1061 C 0.27427 0.91826 0.3862 0.0
C1062 C 0.2548 0.9097 0.38162 0.0
C1063 C 0.23896 0.91811 0.4015 0.0
C1064 C 0.24325 0.93508 0.42743 0.0
C1065 C 0.26319 0.9434 0.43324 0.0
C1066 C 0.27874 0.93546 0.41167 0.0
H1067 H 0.67339 0.66663 0.87066 0.0
H1068 H 0.65431 0.72482 0.80071 0.0
H1069 H 0.62045 0.72377 0.82583 0.0
H1070 H 0.62406 0.63298 0.8741 0.0
H1071 H 0.62697 0.62603 0.91883 0.0
H1072 H 0.64883 0.62866 0.89207 0.0
H1073 H 0.66378 0.66198 0.9322 0.0
H1074 H 0.64202 0.65944 0.95901 0.0
H1075 H 0.64922 0.68918 0.9415 0.0
H1076 H 0.59054 0.72115 0.86401 0.0
H1077 H 0.56708 0.71696 0.91194 0.0
H1078 H 0.60431 0.65855 0.95531 0.0
C1079 C 0.66198 0.67884 0.86024 0.0
C1080 C 0.66653 0.69565 0.83346 0.0
C1081 C 0.65116 0.7114 0.82068 0.0
C1082 C 0.63185 0.711 0.83487 0.0
C1083 C 0.62799 0.69456 0.86163 0.0
C1084 C 0.64256 0.67858 0.87399 0.0
C1085 C 0.635 0.66413 0.90467 0.0
C1086 C 0.63363 0.63629 0.89694 0.0
C1087 C 0.64829 0.66899 0.93619 0.0
C1088 C 0.61426 0.6753 0.90852 0.0
C1089 C 0.61041 0.69262 0.88323 0.0
C1090 C 0.59314 0.70717 0.88348 0.0
C1091 C 0.57975 0.70449 0.91081 0.0
C1092 C 0.58365 0.68733 0.93761 0.0
C1093 C 0.60082 0.67194 0.93547 0.0
loop_
_geom_bond_atom_site_label_1
_geom_bond_atom_site_label_2
_geom_bond_distance
_geom_bond_site_symmetry_2
_ccdc_geom_bond_type
C0 C1 1.264 . S
C0 C5 1.479 . S
C0 C10 1.465 . S
C1 C0 1.264 . S
C1 C3 1.339 . S
C1 H28 0.931 . S
C2 C3 1.395 . S
C2 C4 1.320 . S
C3 C1 1.339 . S
C3 C2 1.395 . S
C3 H29 0.929 . S
C4 C2 1.320 . S
C4 C5 1.405 . S
C4 H30 0.930 . S
C5 C0 1.479 . S
C5 C4 1.405 . S
C5 H31 0.931 . S
U6 O7 2.454 . S
U6 O8 2.458 . S
U6 C9 2.984 . S
U6 C10 2.847 . S
U6 C23 2.882 . S
U6 O24 2.441 . S
U6 O25 2.420 . S
U6 O26 2.455 . S
U6 O27 2.449 . S
O7 U6 2.454 . S
O7 C9 1.353 . S
O8 U6 2.458 . S
O8 C9 1.286 . S
C9 U6 2.984 . S
C9 O7 1.353 . S
C9 O8 1.286 . S
C9 C11 1.363 . S
C10 C0 1.465 . S
C10 U6 2.847 . S
C10 O24 1.249 . S
C10 O25 1.202 . S
C11 C9 1.363 . S
C11 C13 1.408 . S
C11 C16 1.342 . S
C12 C13 1.310 . S
C12 C15 1.461 . S
C12 H32 0.932 . S
C13 C11 1.408 . S
C13 C12 1.310 . S
C13 H33 0.930 . S
C14 C15 1.474 . S
C14 C16 1.285 . S
C14 H34 0.929 . S
C15 C12 1.461 . S
C15 C14 1.474 . S
C16 C11 1.342 . S
C16 C14 1.285 . S
C16 H35 0.930 . S
C17 C20 1.424 . S
C17 C22 1.245 . S
C17 C23 1.428 . S
C18 C21 1.260 . S
C18 C22 1.477 . S
C18 H36 0.932 . S
C19 C20 1.384 . S
C19 C21 1.479 . S
C19 H37 0.929 . S
C20 C17 1.424 . S
C20 C19 1.384 . S
C20 H38 0.928 . S
C21 C18 1.260 . S
C21 C19 1.479 . S
C22 C17 1.245 . S
C22 C18 1.477 . S
C22 H39 0.932 . S
C23 U6 2.882 . S
C23 C17 1.428 . S
C23 O26 1.301 . S
C23 O27 1.282 . S
O24 U6 2.441 . S
O24 C10 1.249 . S
O25 U6 2.420 . S
O25 C10 1.202 . S
O26 U6 2.455 . S
O26 C23 1.301 . S
O27 U6 2.449 . S
O27 C23 1.282 . S
H28 C1 0.931 . S
H29 C3 0.929 . S
H30 C4 0.930 . S
H31 C5 0.931 . S
H32 C12 0.932 . S
H33 C13 0.930 . S
H34 C14 0.929 . S
H35 C16 0.930 . S
H36 C18 0.932 . S
H37 C19 0.929 . S
H38 C20 0.928 . S
H39 C22 0.932 . S
C40 C41 1.264 . S
C40 C45 1.479 . S
C40 C50 1.465 . S
C41 C40 1.264 . S
C41 C43 1.339 . S
C41 H68 0.931 . S
C42 C43 1.395 . S
C42 C44 1.320 . S
C43 C41 1.339 . S
C43 C42 1.395 . S
C43 H69 0.929 . S
C44 C42 1.320 . S
C44 C45 1.405 . S
C44 H70 0.930 . S
C45 C40 1.479 . S
C45 C44 1.405 . S
C45 H71 0.931 . S
U46 O47 2.454 . S
U46 O48 2.458 . S
U46 C49 2.984 . S
U46 C50 2.847 . S
U46 C63 2.882 . S
U46 O64 2.441 . S
U46 O65 2.420 . S
U46 O66 2.455 . S
U46 O67 2.449 . S
O47 U46 2.454 . S
O47 C49 1.353 . S
O48 U46 2.458 . S
O48 C49 1.286 . S
C49 U46 2.984 . S
C49 O47 1.353 . S
C49 O48 1.286 . S
C49 C51 1.363 . S
C50 C40 1.465 . S
C50 U46 2.847 . S
C50 O64 1.249 . S
C50 O65 1.202 . S
C51 C49 1.363 . S
C51 C53 1.408 . S
C51 C56 1.342 . S
C52 C53 1.310 . S
C52 C55 1.461 . S
C52 H72 0.932 . S
C53 C51 1.408 . S
C53 C52 1.310 . S
C53 H73 0.930 . S
C54 C55 1.474 . S
C54 C56 1.285 . S
C54 H74 0.929 . S
C55 C52 1.461 . S
C55 C54 1.474 . S
C56 C51 1.342 . S
C56 C54 1.285 . S
C56 H75 0.930 . S
C57 C60 1.424 . S
C57 C62 1.245 . S
C57 C63 1.428 . S
C58 C61 1.260 . S
C58 C62 1.477 . S
C58 H76 0.932 . S
C59 C60 1.384 . S
C59 C61 1.479 . S
C59 H77 0.929 . S
C60 C57 1.424 . S
C60 C59 1.384 . S
C60 H78 0.928 . S
C61 C58 1.260 . S
C61 C59 1.479 . S
C62 C57 1.245 . S
C62 C58 1.477 . S
C62 H79 0.932 . S
C63 U46 2.882 . S
C63 C57 1.428 . S
C63 O66 1.301 . S
C63 O67 1.282 . S
O64 U46 2.441 . S
O64 C50 1.249 . S
O65 U46 2.420 . S
O65 C50 1.202 . S
O66 U46 2.455 . S
O66 C63 1.301 . S
O67 U46 2.449 . S
O67 C63 1.282 . S
H68 C41 0.931 . S
H69 C43 0.929 . S
H70 C44 0.930 . S
H71 C45 0.931 . S
H72 C52 0.932 . S
H73 C53 0.930 . S
H74 C54 0.929 . S
H75 C56 0.930 . S
H76 C58 0.932 . S
H77 C59 0.929 . S
H78 C60 0.928 . S
H79 C62 0.932 . S
C80 C81 1.264 . S
C80 C85 1.479 . S
C80 C90 1.465 . S
C81 C80 1.264 . S
C81 C83 1.339 . S
C81 H108 0.931 . S
C82 C83 1.395 . S
C82 C84 1.320 . S
C83 C81 1.339 . S
C83 C82 1.395 . S
C83 H109 0.929 . S
C84 C82 1.320 . S
C84 C85 1.405 . S
C84 H110 0.930 . S
C85 C80 1.479 . S
C85 C84 1.405 . S
C85 H111 0.931 . S
U86 O87 2.454 . S
U86 O88 2.458 . S
U86 C89 2.984 . S
U86 C90 2.847 . S
U86 C103 2.882 . S
U86 O104 2.441 . S
U86 O105 2.420 . S
U86 O106 2.455 . S
U86 O107 2.449 . S
O87 U86 2.454 . S
O87 C89 1.353 . S
O88 U86 2.458 . S
O88 C89 1.286 . S
C89 U86 2.984 . S
C89 O87 1.353 . S
C89 O88 1.286 . S
C89 C91 1.363 . S
C90 C80 1.465 . S
C90 U86 2.847 . S
C90 O104 1.249 . S
C90 O105 1.202 . S
C91 C89 1.363 . S
C91 C93 1.408 . S
C91 C96 1.342 . S
C92 C93 1.310 . S
C92 C95 1.461 . S
C92 H112 0.932 . S
C93 C91 1.408 . S
C93 C92 1.310 . S
C93 H113 0.930 . S
C94 C95 1.474 . S
C94 C96 1.285 . S
C94 H114 0.929 . S
C95 C92 1.461 . S
C95 C94 1.474 . S
C96 C91 1.342 . S
C96 C94 1.285 . S
C96 H115 0.930 . S
C97 C100 1.424 . S
C97 C102 1.245 . S
C97 C103 1.428 . S
C98 C101 1.260 . S
C98 C102 1.477 . S
C98 H116 0.932 . S
C99 C100 1.384 . S
C99 C101 1.479 . S
C99 H117 0.929 . S
C100 C97 1.424 . S
C100 C99 1.384 . S
C100 H118 0.928 . S
C101 C98 1.260 . S
C101 C99 1.479 . S
C102 C97 1.245 . S
C102 C98 1.477 . S
C102 H119 0.932 . S
C103 U86 2.882 . S
C103 C97 1.428 . S
C103 O106 1.301 . S
C103 O107 1.282 . S
O104 U86 2.441 . S
O104 C90 1.249 . S
O105 U86 2.420 . S
O105 C90 1.202 . S
O106 U86 2.455 . S
O106 C103 1.301 . S
O107 U86 2.449 . S
O107 C103 1.282 . S
H108 C81 0.931 . S
H109 C83 0.929 . S
H110 C84 0.930 . S
H111 C85 0.931 . S
H112 C92 0.932 . S
H113 C93 0.930 . S
H114 C94 0.929 . S
H115 C96 0.930 . S
H116 C98 0.932 . S
H117 C99 0.929 . S
H118 C100 0.928 . S
H119 C102 0.932 . S
C120 C121 1.264 . S
C120 C125 1.479 . S
C120 C130 1.465 . S
C121 C120 1.264 . S
C121 C123 1.339 . S
C121 H148 0.931 . S
C122 C123 1.395 . S
C122 C124 1.320 . S
C123 C121 1.339 . S
C123 C122 1.395 . S
C123 H149 0.929 . S
C124 C122 1.320 . S
C124 C125 1.405 . S
C124 H150 0.930 . S
C125 C120 1.479 . S
C125 C124 1.405 . S
C125 H151 0.931 . S
U126 O127 2.454 . S
U126 O128 2.458 . S
U126 C129 2.984 . S
U126 C130 2.847 . S
U126 C143 2.882 . S
U126 O144 2.441 . S
U126 O145 2.420 . S
U126 O146 2.455 . S
U126 O147 2.449 . S
O127 U126 2.454 . S
O127 C129 1.353 . S
O128 U126 2.458 . S
O128 C129 1.286 . S
C129 U126 2.984 . S
C129 O127 1.353 . S
C129 O128 1.286 . S
C129 C131 1.363 . S
C130 C120 1.465 . S
C130 U126 2.847 . S
C130 O144 1.249 . S
C130 O145 1.202 . S
C131 C129 1.363 . S
C131 C133 1.408 . S
C131 C136 1.342 . S
C132 C133 1.310 . S
C132 C135 1.461 . S
C132 H152 0.932 . S
C133 C131 1.408 . S
C133 C132 1.310 . S
C133 H153 0.930 . S
C134 C135 1.474 . S
C134 C136 1.285 . S
C134 H154 0.929 . S
C135 C132 1.461 . S
C135 C134 1.474 . S
C136 C131 1.342 . S
C136 C134 1.285 . S
C136 H155 0.930 . S
C137 C140 1.424 . S
C137 C142 1.245 . S
C137 C143 1.428 . S
C138 C141 1.260 . S
C138 C142 1.477 . S
C138 H156 0.932 . S
C139 C140 1.384 . S
C139 C141 1.479 . S
C139 H157 0.929 . S
C140 C137 1.424 . S
C140 C139 1.384 . S
C140 H158 0.928 . S
C141 C138 1.260 . S
C141 C139 1.479 . S
C142 C137 1.245 . S
C142 C138 1.477 . S
C142 H159 0.932 . S
C143 U126 2.882 . S
C143 C137 1.428 . S
C143 O146 1.301 . S
C143 O147 1.282 . S
O144 U126 2.441 . S
O144 C130 1.249 . S
O145 U126 2.420 . S
O145 C130 1.202 . S
O146 U126 2.455 . S
O146 C143 1.301 . S
O147 U126 2.449 . S
O147 C143 1.282 . S
H148 C121 0.931 . S
H149 C123 0.929 . S
H150 C124 0.930 . S
H151 C125 0.931 . S
H152 C132 0.932 . S
H153 C133 0.930 . S
H154 C134 0.929 . S
H155 C136 0.930 . S
H156 C138 0.932 . S
H157 C139 0.929 . S
H158 C140 0.928 . S
H159 C142 0.932 . S
C160 C161 1.264 . S
C160 C165 1.479 . S
C160 C170 1.465 . S
C161 C160 1.264 . S
C161 C163 1.339 . S
C161 H188 0.931 . S
C162 C163 1.395 . S
C162 C164 1.320 . S
C163 C161 1.339 . S
C163 C162 1.395 . S
C163 H189 0.929 . S
C164 C162 1.320 . S
C164 C165 1.405 . S
C164 H190 0.930 . S
C165 C160 1.479 . S
C165 C164 1.405 . S
C165 H191 0.931 . S
U166 O167 2.454 . S
U166 O168 2.458 . S
U166 C169 2.984 . S
U166 C170 2.847 . S
U166 C183 2.882 . S
U166 O184 2.441 . S
U166 O185 2.420 . S
U166 O186 2.455 . S
U166 O187 2.449 . S
O167 U166 2.454 . S
O167 C169 1.353 . S
O168 U166 2.458 . S
O168 C169 1.286 . S
C169 U166 2.984 . S
C169 O167 1.353 . S
C169 O168 1.286 . S
C169 C171 1.363 . S
C170 C160 1.465 . S
C170 U166 2.847 . S
C170 O184 1.249 . S
C170 O185 1.202 . S
C171 C169 1.363 . S
C171 C173 1.408 . S
C171 C176 1.342 . S
C172 C173 1.310 . S
C172 C175 1.461 . S
C172 H192 0.932 . S
C173 C171 1.408 . S
C173 C172 1.310 . S
C173 H193 0.930 . S
C174 C175 1.474 . S
C174 C176 1.285 . S
C174 H194 0.929 . S
C175 C172 1.461 . S
C175 C174 1.474 . S
C176 C171 1.342 . S
C176 C174 1.285 . S
C176 H195 0.930 . S
C177 C180 1.424 . S
C177 C182 1.245 . S
C177 C183 1.428 . S
C178 C181 1.260 . S
C178 C182 1.477 . S
C178 H196 0.932 . S
C179 C180 1.384 . S
C179 C181 1.479 . S
C179 H197 0.929 . S
C180 C177 1.424 . S
C180 C179 1.384 . S
C180 H198 0.928 . S
C181 C178 1.260 . S
C181 C179 1.479 . S
C182 C177 1.245 . S
C182 C178 1.477 . S
C182 H199 0.932 . S
C183 U166 2.882 . S
C183 C177 1.428 . S
C183 O186 1.301 . S
C183 O187 1.282 . S
O184 U166 2.441 . S
O184 C170 1.249 . S
O185 U166 2.420 . S
O185 C170 1.202 . S
O186 U166 2.455 . S
O186 C183 1.301 . S
O187 U166 2.449 . S
O187 C183 1.282 . S
H188 C161 0.931 . S
H189 C163 0.929 . S
H190 C164 0.930 . S
H191 C165 0.931 . S
H192 C172 0.932 . S
H193 C173 0.930 . S
H194 C174 0.929 . S
H195 C176 0.930 . S
H196 C178 0.932 . S
H197 C179 0.929 . S
H198 C180 0.928 . S
H199 C182 0.932 . S
C200 C201 1.264 . S
C200 C205 1.479 . S
C200 C210 1.465 . S
C201 C200 1.264 . S
C201 C203 1.339 . S
C201 H228 0.931 . S
C202 C203 1.395 . S
C202 C204 1.320 . S
C203 C201 1.339 . S
C203 C202 1.395 . S
C203 H229 0.929 . S
C204 C202 1.320 . S
C204 C205 1.405 . S
C204 H230 0.930 . S
C205 C200 1.479 . S
C205 C204 1.405 . S
C205 H231 0.931 . S
U206 O207 2.454 . S
U206 O208 2.458 . S
U206 C209 2.984 . S
U206 C210 2.847 . S
U206 C223 2.882 . S
U206 O224 2.441 . S
U206 O225 2.420 . S
U206 O226 2.455 . S
U206 O227 2.449 . S
O207 U206 2.454 . S
O207 C209 1.353 . S
O208 U206 2.458 . S
O208 C209 1.286 . S
C209 U206 2.984 . S
C209 O207 1.353 . S
C209 O208 1.286 . S
C209 C211 1.363 . S
C210 C200 1.465 . S
C210 U206 2.847 . S
C210 O224 1.249 . S
C210 O225 1.202 . S
C211 C209 1.363 . S
C211 C213 1.408 . S
C211 C216 1.342 . S
C212 C213 1.310 . S
C212 C215 1.461 . S
C212 H232 0.932 . S
C213 C211 1.408 . S
C213 C212 1.310 . S
C213 H233 0.930 . S
C214 C215 1.474 . S
C214 C216 1.285 . S
C214 H234 0.929 . S
C215 C212 1.461 . S
C215 C214 1.474 . S
C216 C211 1.342 . S
C216 C214 1.285 . S
C216 H235 0.930 . S
C217 C220 1.424 . S
C217 C222 1.245 . S
C217 C223 1.428 . S
C218 C221 1.260 . S
C218 C222 1.477 . S
C218 H236 0.932 . S
C219 C220 1.384 . S
C219 C221 1.479 . S
C219 H237 0.929 . S
C220 C217 1.424 . S
C220 C219 1.384 . S
C220 H238 0.928 . S
C221 C218 1.260 . S
C221 C219 1.479 . S
C222 C217 1.245 . S
C222 C218 1.477 . S
C222 H239 0.932 . S
C223 U206 2.882 . S
C223 C217 1.428 . S
C223 O226 1.301 . S
C223 O227 1.282 . S
O224 U206 2.441 . S
O224 C210 1.249 . S
O225 U206 2.420 . S
O225 C210 1.202 . S
O226 U206 2.455 . S
O226 C223 1.301 . S
O227 U206 2.449 . S
O227 C223 1.282 . S
H228 C201 0.931 . S
H229 C203 0.929 . S
H230 C204 0.930 . S
H231 C205 0.931 . S
H232 C212 0.932 . S
H233 C213 0.930 . S
H234 C214 0.929 . S
H235 C216 0.930 . S
H236 C218 0.932 . S
H237 C219 0.929 . S
H238 C220 0.928 . S
H239 C222 0.932 . S
C240 C241 1.264 . S
C240 C245 1.479 . S
C240 C250 1.465 . S
C241 C240 1.264 . S
C241 C243 1.339 . S
C241 H268 0.931 . S
C242 C243 1.395 . S
C242 C244 1.320 . S
C243 C241 1.339 . S
C243 C242 1.395 . S
C243 H269 0.929 . S
C244 C242 1.320 . S
C244 C245 1.405 . S
C244 H270 0.930 . S
C245 C240 1.479 . S
C245 C244 1.405 . S
C245 H271 0.931 . S
U246 O247 2.454 . S
U246 O248 2.458 . S
U246 C249 2.984 . S
U246 C250 2.847 . S
U246 C263 2.882 . S
U246 O264 2.441 . S
U246 O265 2.420 . S
U246 O266 2.455 . S
U246 O267 2.449 . S
O247 U246 2.454 . S
O247 C249 1.353 . S
O248 U246 2.458 . S
O248 C249 1.286 . S
C249 U246 2.984 . S
C249 O247 1.353 . S
C249 O248 1.286 . S
C249 C251 1.363 . S
C250 C240 1.465 . S
C250 U246 2.847 . S
C250 O264 1.249 . S
C250 O265 1.202 . S
C251 C249 1.363 . S
C251 C253 1.408 . S
C251 C256 1.342 . S
C252 C253 1.310 . S
C252 C255 1.461 . S
C252 H272 0.932 . S
C253 C251 1.408 . S
C253 C252 1.310 . S
C253 H273 0.930 . S
C254 C255 1.474 . S
C254 C256 1.285 . S
C254 H274 0.929 . S
C255 C252 1.461 . S
C255 C254 1.474 . S
C256 C251 1.342 . S
C256 C254 1.285 . S
C256 H275 0.930 . S
C257 C260 1.424 . S
C257 C262 1.245 . S
C257 C263 1.428 . S
C258 C261 1.260 . S
C258 C262 1.477 . S
C258 H276 0.932 . S
C259 C260 1.384 . S
C259 C261 1.479 . S
C259 H277 0.929 . S
C260 C257 1.424 . S
C260 C259 1.384 . S
C260 H278 0.928 . S
C261 C258 1.260 . S
C261 C259 1.479 . S
C262 C257 1.245 . S
C262 C258 1.477 . S
C262 H279 0.932 . S
C263 U246 2.882 . S
C263 C257 1.428 . S
C263 O266 1.301 . S
C263 O267 1.282 . S
O264 U246 2.441 . S
O264 C250 1.249 . S
O265 U246 2.420 . S
O265 C250 1.202 . S
O266 U246 2.455 . S
O266 C263 1.301 . S
O267 U246 2.449 . S
O267 C263 1.282 . S
H268 C241 0.931 . S
H269 C243 0.929 . S
H270 C244 0.930 . S
H271 C245 0.931 . S
H272 C252 0.932 . S
H273 C253 0.930 . S
H274 C254 0.929 . S
H275 C256 0.930 . S
H276 C258 0.932 . S
H277 C259 0.929 . S
H278 C260 0.928 . S
H279 C262 0.932 . S
C280 C281 1.264 . S
C280 C285 1.479 . S
C280 C290 1.465 . S
C281 C280 1.264 . S
C281 C283 1.339 . S
C281 H308 0.931 . S
C282 C283 1.395 . S
C282 C284 1.320 . S
C283 C281 1.339 . S
C283 C282 1.395 . S
C283 H309 0.929 . S
C284 C282 1.320 . S
C284 C285 1.405 . S
C284 H310 0.930 . S
C285 C280 1.479 . S
C285 C284 1.405 . S
C285 H311 0.931 . S
U286 O287 2.454 . S
U286 O288 2.458 . S
U286 C289 2.984 . S
U286 C290 2.847 . S
U286 C303 2.882 . S
U286 O304 2.441 . S
U286 O305 2.420 . S
U286 O306 2.455 . S
U286 O307 2.449 . S
O287 U286 2.454 . S
O287 C289 1.353 . S
O288 U286 2.458 . S
O288 C289 1.286 . S
C289 U286 2.984 . S
C289 O287 1.353 . S
C289 O288 1.286 . S
C289 C291 1.363 . S
C290 C280 1.465 . S
C290 U286 2.847 . S
C290 O304 1.249 . S
C290 O305 1.202 . S
C291 C289 1.363 . S
C291 C293 1.408 . S
C291 C296 1.342 . S
C292 C293 1.310 . S
C292 C295 1.461 . S
C292 H312 0.932 . S
C293 C291 1.408 . S
C293 C292 1.310 . S
C293 H313 0.930 . S
C294 C295 1.474 . S
C294 C296 1.285 . S
C294 H314 0.929 . S
C295 C292 1.461 . S
C295 C294 1.474 . S
C296 C291 1.342 . S
C296 C294 1.285 . S
C296 H315 0.930 . S
C297 C300 1.424 . S
C297 C302 1.245 . S
C297 C303 1.428 . S
C298 C301 1.260 . S
C298 C302 1.477 . S
C298 H316 0.932 . S
C299 C300 1.384 . S
C299 C301 1.479 . S
C299 H317 0.929 . S
C300 C297 1.424 . S
C300 C299 1.384 . S
C300 H318 0.928 . S
C301 C298 1.260 . S
C301 C299 1.479 . S
C302 C297 1.245 . S
C302 C298 1.477 . S
C302 H319 0.932 . S
C303 U286 2.882 . S
C303 C297 1.428 . S
C303 O306 1.301 . S
C303 O307 1.282 . S
O304 U286 2.441 . S
O304 C290 1.249 . S
O305 U286 2.420 . S
O305 C290 1.202 . S
O306 U286 2.455 . S
O306 C303 1.301 . S
O307 U286 2.449 . S
O307 C303 1.282 . S
H308 C281 0.931 . S
H309 C283 0.929 . S
H310 C284 0.930 . S
H311 C285 0.931 . S
H312 C292 0.932 . S
H313 C293 0.930 . S
H314 C294 0.929 . S
H315 C296 0.930 . S
H316 C298 0.932 . S
H317 C299 0.929 . S
H318 C300 0.928 . S
H319 C302 0.932 . S
H320 C328 0.930 . S
H321 C331 0.930 . S
H322 C333 0.930 . S
H323 C334 0.970 . S
H324 C334 0.970 . S
H325 C336 0.930 . S
H326 C338 0.930 . S
H327 C340 0.930 . S
C328 H320 0.930 . S
C328 C329 1.382 . S
C328 C330 1.426 . S
C329 C328 1.382 . S
C329 C333 1.389 . S
C330 C328 1.426 . S
C330 C331 1.375 . S
C330 C334 1.532 1_655 S
C331 H321 0.930 . S
C331 C330 1.375 . S
C331 C332 1.416 . S
C332 C331 1.416 . S
C332 C333 1.371 . S
C333 H322 0.930 . S
C333 C329 1.389 . S
C333 C332 1.371 . S
C334 H323 0.970 . S
C334 H324 0.970 . S
C334 C330 1.532 1_455 S
C334 C335 1.499 . S
C335 C334 1.499 . S
C335 C336 1.370 . S
C335 C340 1.415 . S
C336 H325 0.930 . S
C336 C335 1.370 . S
C336 C337 1.407 . S
C337 C336 1.407 . S
C337 C338 1.365 . S
C338 H326 0.930 . S
C338 C337 1.365 . S
C338 C339 1.393 . S
C339 C338 1.393 . S
C339 C340 1.387 . S
C340 H327 0.930 . S
C340 C335 1.415 . S
C340 C339 1.387 . S
H341 C349 0.930 . S
H342 C352 0.930 . S
H343 C354 0.930 . S
H344 C355 0.970 . S
H345 C355 0.970 . S
H346 C357 0.930 . S
H347 C359 0.930 . S
H348 C361 0.930 . S
C349 H341 0.930 . S
C349 C350 1.382 . S
C349 C351 1.426 . S
C350 C349 1.382 . S
C350 C354 1.389 . S
C351 C349 1.426 . S
C351 C352 1.375 . S
C351 C355 1.532 . S
C352 H342 0.930 . S
C352 C351 1.375 . S
C352 C353 1.416 . S
C353 C352 1.416 . S
C353 C354 1.371 . S
C354 H343 0.930 . S
C354 C350 1.389 . S
C354 C353 1.371 . S
C355 H344 0.970 . S
C355 H345 0.970 . S
C355 C351 1.532 . S
C355 C356 1.499 1_455 S
C356 C355 1.499 1_655 S
C356 C357 1.370 . S
C356 C361 1.415 . S
C357 H346 0.930 . S
C357 C356 1.370 . S
C357 C358 1.407 . S
C358 C357 1.407 . S
C358 C359 1.365 . S
C359 H347 0.930 . S
C359 C358 1.365 . S
C359 C360 1.393 . S
C360 C359 1.393 . S
C360 C361 1.387 . S
C361 H348 0.930 . S
C361 C356 1.415 . S
C361 C360 1.387 . S
H362 C370 0.930 . S
H363 C373 0.930 . S
H364 C375 0.930 . S
H365 C376 0.970 . S
H366 C376 0.970 . S
H367 C378 0.930 . S
H368 C380 0.930 . S
H369 C382 0.930 . S
C370 H362 0.930 . S
C370 C371 1.382 . S
C370 C372 1.426 . S
C371 C370 1.382 . S
C371 C375 1.389 . S
C372 C370 1.426 . S
C372 C373 1.375 . S
C372 C376 1.532 . S
C373 H363 0.930 . S
C373 C372 1.375 . S
C373 C374 1.416 . S
C374 C373 1.416 . S
C374 C375 1.371 . S
C375 H364 0.930 . S
C375 C371 1.389 . S
C375 C374 1.371 . S
C376 H365 0.970 . S
C376 H366 0.970 . S
C376 C372 1.532 . S
C376 C377 1.499 1_545 S
C377 C376 1.499 1_565 S
C377 C378 1.370 . S
C377 C382 1.415 . S
C378 H367 0.930 . S
C378 C377 1.370 . S
C378 C379 1.407 . S
C379 C378 1.407 . S
C379 C380 1.365 . S
C380 H368 0.930 . S
C380 C379 1.365 . S
C380 C381 1.393 . S
C381 C380 1.393 . S
C381 C382 1.387 . S
C382 H369 0.930 . S
C382 C377 1.415 . S
C382 C381 1.387 . S
H383 C391 0.930 . S
H384 C394 0.930 . S
H385 C396 0.930 . S
H386 C397 0.970 1_556 S
H387 C397 0.970 . S
H388 C399 0.930 . S
H389 C401 0.930 . S
H390 C403 0.930 . S
C391 H383 0.930 . S
C391 C392 1.382 . S
C391 C393 1.426 1_556 S
C392 C391 1.382 . S
C392 C396 1.389 1_556 S
C393 C391 1.426 1_554 S
C393 C394 1.375 . S
C393 C397 1.532 . S
C394 H384 0.930 . S
C394 C393 1.375 . S
C394 C395 1.416 . S
C395 C394 1.416 . S
C395 C396 1.371 . S
C396 H385 0.930 . S
C396 C392 1.389 1_554 S
C396 C395 1.371 . S
C397 H386 0.970 1_554 S
C397 H387 0.970 . S
C397 C393 1.532 . S
C397 C398 1.499 . S
C398 C397 1.499 . S
C398 C399 1.370 1_554 S
C398 C403 1.415 . S
C399 H388 0.930 . S
C399 C398 1.370 1_556 S
C399 C400 1.407 . S
C400 C399 1.407 . S
C400 C401 1.365 1_556 S
C401 H389 0.930 . S
C401 C400 1.365 1_554 S
C401 C402 1.393 . S
C402 C401 1.393 . S
C402 C403 1.387 . S
C403 H390 0.930 . S
C403 C398 1.415 . S
C403 C402 1.387 . S
H404 C412 0.930 . S
H405 C415 0.930 . S
H406 C417 0.930 . S
H407 C418 0.970 . S
H408 C418 0.970 . S
H409 C420 0.930 . S
H410 C422 0.930 . S
H411 C424 0.930 . S
C412 H404 0.930 . S
C412 C413 1.382 . S
C412 C414 1.426 . S
C413 C412 1.382 . S
C413 C417 1.389 . S
C414 C412 1.426 . S
C414 C415 1.375 . S
C414 C418 1.532 . S
C415 H405 0.930 . S
C415 C414 1.375 . S
C415 C416 1.416 . S
C416 C415 1.416 . S
C416 C417 1.371 . S
C417 H406 0.930 . S
C417 C413 1.389 . S
C417 C416 1.371 . S
C418 H407 0.970 . S
C418 H408 0.970 . S
C418 C414 1.532 . S
C418 C419 1.499 1_545 S
C419 C418 1.499 1_565 S
C419 C420 1.370 . S
C419 C424 1.415 . S
C420 H409 0.930 . S
C420 C419 1.370 . S
C420 C421 1.407 . S
C421 C420 1.407 . S
C421 C422 1.365 . S
C422 H410 0.930 . S
C422 C421 1.365 . S
C422 C423 1.393 . S
C423 C422 1.393 . S
C423 C424 1.387 . S
C424 H411 0.930 . S
C424 C419 1.415 . S
C424 C423 1.387 . S
H425 C433 0.930 . S
H426 C436 0.930 . S
H427 C438 0.930 . S
H428 C439 0.970 . S
H429 C439 0.970 1_554 S
H430 C441 0.930 . S
H431 C443 0.930 . S
H432 C445 0.930 . S
C433 H425 0.930 . S
C433 C434 1.382 . S
C433 C435 1.426 . S
C434 C433 1.382 . S
C434 C438 1.389 . S
C435 C433 1.426 . S
C435 C436 1.375 1_556 S
C435 C439 1.532 . S
C436 H426 0.930 . S
C436 C435 1.375 1_554 S
C436 C437 1.416 . S
C437 C436 1.416 . S
C437 C438 1.371 1_554 S
C438 H427 0.930 . S
C438 C434 1.389 . S
C438 C437 1.371 1_556 S
C439 H428 0.970 . S
C439 H429 0.970 1_556 S
C439 C435 1.532 . S
C439 C440 1.499 1_556 S
C440 C439 1.499 1_554 S
C440 C441 1.368 1_554 S
C440 C445 1.418 . S
C441 H430 0.930 . S
C441 C440 1.368 1_556 S
C441 C442 1.407 . S
C442 C441 1.407 . S
C442 C443 1.365 1_556 S
C443 H431 0.930 . S
C443 C442 1.365 1_554 S
C443 C444 1.393 . S
C444 C443 1.393 . S
C444 C445 1.387 . S
C445 H432 0.930 . S
C445 C440 1.418 . S
C445 C444 1.387 . S
H446 C458 0.930 . S
H447 C460 0.930 . S
H448 C461 0.930 . S
H449 C465 0.959 . S
H450 C465 0.959 . S
H451 C465 0.961 . S
H452 C466 0.960 . S
H453 C466 0.961 . S
H454 C466 0.959 . S
H455 C469 0.929 . S
H456 C470 0.931 . S
H457 C472 0.930 . S
C458 H446 0.930 . S
C458 C459 1.399 . S
C458 C463 1.399 . S
C459 C458 1.399 . S
C459 C460 1.376 . S
C460 H447 0.930 . S
C460 C459 1.376 . S
C460 C461 1.388 . S
C461 H448 0.930 . S
C461 C460 1.388 . S
C461 C462 1.390 . S
C462 C461 1.390 . S
C462 C463 1.394 . S
C462 C468 1.465 . S
C463 C458 1.399 . S
C463 C462 1.394 . S
C463 C464 1.516 . S
C464 C463 1.516 . S
C464 C465 1.502 . S
C464 C466 1.561 . S
C464 C467 1.526 . S
C465 H449 0.959 . S
C465 H450 0.959 . S
C465 H451 0.961 . S
C465 C464 1.502 . S
C466 H452 0.960 . S
C466 H453 0.961 . S
C466 H454 0.959 . S
C466 C464 1.561 . S
C467 C464 1.526 . S
C467 C468 1.396 . S
C467 C472 1.390 . S
C468 C462 1.465 . S
C468 C467 1.396 . S
C468 C469 1.399 . S
C469 H455 0.929 . S
C469 C468 1.399 . S
C469 C470 1.385 . S
C470 H456 0.931 . S
C470 C469 1.385 . S
C470 C471 1.389 . S
C471 C470 1.389 . S
C471 C472 1.387 . S
C472 H457 0.930 . S
C472 C467 1.390 . S
C472 C471 1.387 . S
H473 C485 0.930 . S
H474 C487 0.930 . S
H475 C488 0.930 . S
H476 C492 0.959 . S
H477 C492 0.959 . S
H478 C492 0.961 . S
H479 C493 0.960 . S
H480 C493 0.961 . S
H481 C493 0.959 . S
H482 C496 0.929 . S
H483 C497 0.931 . S
H484 C499 0.930 . S
C485 H473 0.930 . S
C485 C486 1.399 . S
C485 C490 1.399 . S
C486 C485 1.399 . S
C486 C487 1.376 . S
C487 H474 0.930 . S
C487 C486 1.376 . S
C487 C488 1.388 . S
C488 H475 0.930 . S
C488 C487 1.388 . S
C488 C489 1.390 . S
C489 C488 1.390 . S
C489 C490 1.394 . S
C489 C495 1.465 . S
C490 C485 1.399 . S
C490 C489 1.394 . S
C490 C491 1.516 . S
C491 C490 1.516 . S
C491 C492 1.502 . S
C491 C493 1.561 . S
C491 C494 1.526 . S
C492 H476 0.959 . S
C492 H477 0.959 . S
C492 H478 0.961 . S
C492 C491 1.502 . S
C493 H479 0.960 . S
C493 H480 0.961 . S
C493 H481 0.959 . S
C493 C491 1.561 . S
C494 C491 1.526 . S
C494 C495 1.396 . S
C494 C499 1.390 . S
C495 C489 1.465 . S
C495 C494 1.396 . S
C495 C496 1.399 . S
C496 H482 0.929 . S
C496 C495 1.399 . S
C496 C497 1.385 . S
C497 H483 0.931 . S
C497 C496 1.385 . S
C497 C498 1.389 . S
C498 C497 1.389 . S
C498 C499 1.387 . S
C499 H484 0.930 . S
C499 C494 1.390 . S
C499 C498 1.387 . S
H500 C512 0.930 . S
H501 C514 0.930 . S
H502 C515 0.930 . S
H503 C519 0.959 . S
H504 C519 0.959 . S
H505 C519 0.961 . S
H506 C520 0.960 . S
H507 C520 0.961 . S
H508 C520 0.959 . S
H509 C523 0.929 . S
H510 C524 0.931 . S
H511 C526 0.930 . S
C512 H500 0.930 . S
C512 C513 1.399 . S
C512 C517 1.399 . S
C513 C512 1.399 . S
C513 C514 1.376 . S
C514 H501 0.930 . S
C514 C513 1.376 . S
C514 C515 1.388 . S
C515 H502 0.930 . S
C515 C514 1.388 . S
C515 C516 1.390 . S
C516 C515 1.390 . S
C516 C517 1.394 . S
C516 C522 1.465 . S
C517 C512 1.399 . S
C517 C516 1.394 . S
C517 C518 1.516 . S
C518 C517 1.516 . S
C518 C519 1.502 . S
C518 C520 1.561 . S
C518 C521 1.526 . S
C519 H503 0.959 . S
C519 H504 0.959 . S
C519 H505 0.961 . S
C519 C518 1.502 . S
C520 H506 0.960 . S
C520 H507 0.961 . S
C520 H508 0.959 . S
C520 C518 1.561 . S
C521 C518 1.526 . S
C521 C522 1.396 . S
C521 C526 1.390 . S
C522 C516 1.465 . S
C522 C521 1.396 . S
C522 C523 1.399 . S
C523 H509 0.929 . S
C523 C522 1.399 . S
C523 C524 1.385 . S
C524 H510 0.931 . S
C524 C523 1.385 . S
C524 C525 1.389 . S
C525 C524 1.389 . S
C525 C526 1.387 . S
C526 H511 0.930 . S
C526 C521 1.390 . S
C526 C525 1.387 . S
H527 C539 0.930 . S
H528 C541 0.930 . S
H529 C542 0.930 . S
H530 C546 0.959 . S
H531 C546 0.959 . S
H532 C546 0.961 . S
H533 C547 0.960 . S
H534 C547 0.961 . S
H535 C547 0.959 . S
H536 C550 0.929 . S
H537 C551 0.931 . S
H538 C553 0.930 . S
C539 H527 0.930 . S
C539 C540 1.399 . S
C539 C544 1.399 . S
C540 C539 1.399 . S
C540 C541 1.376 . S
C541 H528 0.930 . S
C541 C540 1.376 . S
C541 C542 1.388 . S
C542 H529 0.930 . S
C542 C541 1.388 . S
C542 C543 1.390 . S
C543 C542 1.390 . S
C543 C544 1.394 . S
C543 C549 1.465 . S
C544 C539 1.399 . S
C544 C543 1.394 . S
C544 C545 1.516 . S
C545 C544 1.516 . S
C545 C546 1.502 . S
C545 C547 1.561 . S
C545 C548 1.526 . S
C546 H530 0.959 . S
C546 H531 0.959 . S
C546 H532 0.961 . S
C546 C545 1.502 . S
C547 H533 0.960 . S
C547 H534 0.961 . S
C547 H535 0.959 . S
C547 C545 1.561 . S
C548 C545 1.526 . S
C548 C549 1.396 . S
C548 C553 1.390 . S
C549 C543 1.465 . S
C549 C548 1.396 . S
C549 C550 1.399 . S
C550 H536 0.929 . S
C550 C549 1.399 . S
C550 C551 1.385 . S
C551 H537 0.931 . S
C551 C550 1.385 . S
C551 C552 1.389 . S
C552 C551 1.389 . S
C552 C553 1.387 . S
C553 H538 0.930 . S
C553 C548 1.390 . S
C553 C552 1.387 . S
H554 C566 0.930 . S
H555 C568 0.930 . S
H556 C569 0.930 . S
H557 C573 0.959 . S
H558 C573 0.959 . S
H559 C573 0.961 . S
H560 C574 0.960 . S
H561 C574 0.961 . S
H562 C574 0.959 . S
H563 C577 0.929 . S
H564 C578 0.931 . S
H565 C580 0.930 . S
C566 H554 0.930 . S
C566 C567 1.399 . S
C566 C571 1.399 . S
C567 C566 1.399 . S
C567 C568 1.376 . S
C568 H555 0.930 . S
C568 C567 1.376 . S
C568 C569 1.388 . S
C569 H556 0.930 . S
C569 C568 1.388 . S
C569 C570 1.390 . S
C570 C569 1.390 . S
C570 C571 1.394 . S
C570 C576 1.465 . S
C571 C566 1.399 . S
C571 C570 1.394 . S
C571 C572 1.516 . S
C572 C571 1.516 . S
C572 C573 1.502 . S
C572 C574 1.561 . S
C572 C575 1.526 . S
C573 H557 0.959 . S
C573 H558 0.959 . S
C573 H559 0.961 . S
C573 C572 1.502 . S
C574 H560 0.960 . S
C574 H561 0.961 . S
C574 H562 0.959 . S
C574 C572 1.561 . S
C575 C572 1.526 . S
C575 C576 1.396 . S
C575 C580 1.390 . S
C576 C570 1.465 . S
C576 C575 1.396 . S
C576 C577 1.399 . S
C577 H563 0.929 . S
C577 C576 1.399 . S
C577 C578 1.385 . S
C578 H564 0.931 . S
C578 C577 1.385 . S
C578 C579 1.389 . S
C579 C578 1.389 . S
C579 C580 1.387 . S
C580 H565 0.930 . S
C580 C575 1.390 . S
C580 C579 1.387 . S
H581 C593 0.930 . S
H582 C595 0.930 . S
H583 C596 0.930 . S
H584 C600 0.959 . S
H585 C600 0.959 . S
H586 C600 0.961 . S
H587 C601 0.960 . S
H588 C601 0.961 . S
H589 C601 0.959 . S
H590 C604 0.929 . S
H591 C605 0.931 . S
H592 C607 0.930 . S
C593 H581 0.930 . S
C593 C594 1.399 . S
C593 C598 1.399 . S
C594 C593 1.399 . S
C594 C595 1.376 . S
C595 H582 0.930 . S
C595 C594 1.376 . S
C595 C596 1.388 . S
C596 H583 0.930 . S
C596 C595 1.388 . S
C596 C597 1.390 . S
C597 C596 1.390 . S
C597 C598 1.394 . S
C597 C603 1.465 . S
C598 C593 1.399 . S
C598 C597 1.394 . S
C598 C599 1.516 . S
C599 C598 1.516 . S
C599 C600 1.502 . S
C599 C601 1.561 . S
C599 C602 1.526 . S
C600 H584 0.959 . S
C600 H585 0.959 . S
C600 H586 0.961 . S
C600 C599 1.502 . S
C601 H587 0.960 . S
C601 H588 0.961 . S
C601 H589 0.959 . S
C601 C599 1.561 . S
C602 C599 1.526 . S
C602 C603 1.396 . S
C602 C607 1.390 . S
C603 C597 1.465 . S
C603 C602 1.396 . S
C603 C604 1.399 . S
C604 H590 0.929 . S
C604 C603 1.399 . S
C604 C605 1.385 . S
C605 H591 0.931 . S
C605 C604 1.385 . S
C605 C606 1.389 . S
C606 C605 1.389 . S
C606 C607 1.387 . S
C607 H592 0.930 . S
C607 C602 1.390 . S
C607 C606 1.387 . S
H608 C620 0.930 . S
H609 C622 0.930 . S
H610 C623 0.930 . S
H611 C627 0.959 . S
H612 C627 0.959 . S
H613 C627 0.961 . S
H614 C628 0.960 . S
H615 C628 0.961 . S
H616 C628 0.959 . S
H617 C631 0.929 . S
H618 C632 0.931 . S
H619 C634 0.930 . S
C620 H608 0.930 . S
C620 C621 1.399 . S
C620 C625 1.399 . S
C621 C620 1.399 . S
C621 C622 1.376 . S
C622 H609 0.930 . S
C622 C621 1.376 . S
C622 C623 1.388 . S
C623 H610 0.930 . S
C623 C622 1.388 . S
C623 C624 1.390 . S
C624 C623 1.390 . S
C624 C625 1.394 . S
C624 C630 1.465 . S
C625 C620 1.399 . S
C625 C624 1.394 . S
C625 C626 1.516 . S
C626 C625 1.516 . S
C626 C627 1.502 . S
C626 C628 1.561 . S
C626 C629 1.526 . S
C627 H611 0.959 . S
C627 H612 0.959 . S
C627 H613 0.961 . S
C627 C626 1.502 . S
C628 H614 0.960 . S
C628 H615 0.961 . S
C628 H616 0.959 . S
C628 C626 1.561 . S
C629 C626 1.526 . S
C629 C630 1.396 . S
C629 C634 1.390 . S
C630 C624 1.465 . S
C630 C629 1.396 . S
C630 C631 1.399 . S
C631 H617 0.929 . S
C631 C630 1.399 . S
C631 C632 1.385 . S
C632 H618 0.931 . S
C632 C631 1.385 . S
C632 C633 1.389 . S
C633 C632 1.389 . S
C633 C634 1.387 . S
C634 H619 0.930 . S
C634 C629 1.390 . S
C634 C633 1.387 . S
H635 C647 0.930 . S
H636 C649 0.930 . S
H637 C650 0.930 . S
H638 C654 0.959 . S
H639 C654 0.959 . S
H640 C654 0.961 . S
H641 C655 0.960 . S
H642 C655 0.961 . S
H643 C655 0.959 . S
H644 C658 0.929 . S
H645 C659 0.931 . S
H646 C661 0.930 . S
C647 H635 0.930 . S
C647 C648 1.399 . S
C647 C652 1.399 . S
C648 C647 1.399 . S
C648 C649 1.376 . S
C649 H636 0.930 . S
C649 C648 1.376 . S
C649 C650 1.388 . S
C650 H637 0.930 . S
C650 C649 1.388 . S
C650 C651 1.390 . S
C651 C650 1.390 . S
C651 C652 1.394 . S
C651 C657 1.465 . S
C652 C647 1.399 . S
C652 C651 1.394 . S
C652 C653 1.516 . S
C653 C652 1.516 . S
C653 C654 1.502 . S
C653 C655 1.561 . S
C653 C656 1.526 . S
C654 H638 0.959 . S
C654 H639 0.959 . S
C654 H640 0.961 . S
C654 C653 1.502 . S
C655 H641 0.960 . S
C655 H642 0.961 . S
C655 H643 0.959 . S
C655 C653 1.561 . S
C656 C653 1.526 . S
C656 C657 1.396 . S
C656 C661 1.390 . S
C657 C651 1.465 . S
C657 C656 1.396 . S
C657 C658 1.399 . S
C658 H644 0.929 . S
C658 C657 1.399 . S
C658 C659 1.385 . S
C659 H645 0.931 . S
C659 C658 1.385 . S
C659 C660 1.389 . S
C660 C659 1.389 . S
C660 C661 1.387 . S
C661 H646 0.930 . S
C661 C656 1.390 . S
C661 C660 1.387 . S
H662 C674 0.930 . S
H663 C676 0.930 . S
H664 C677 0.930 . S
H665 C681 0.959 . S
H666 C681 0.959 . S
H667 C681 0.961 . S
H668 C682 0.960 . S
H669 C682 0.961 . S
H670 C682 0.959 . S
H671 C685 0.929 . S
H672 C686 0.931 . S
H673 C688 0.930 . S
C674 H662 0.930 . S
C674 C675 1.399 . S
C674 C679 1.399 . S
C675 C674 1.399 . S
C675 C676 1.376 . S
C676 H663 0.930 . S
C676 C675 1.376 . S
C676 C677 1.388 . S
C677 H664 0.930 . S
C677 C676 1.388 . S
C677 C678 1.390 . S
C678 C677 1.390 . S
C678 C679 1.394 . S
C678 C684 1.465 . S
C679 C674 1.399 . S
C679 C678 1.394 . S
C679 C680 1.516 . S
C680 C679 1.516 . S
C680 C681 1.502 . S
C680 C682 1.561 . S
C680 C683 1.526 . S
C681 H665 0.959 . S
C681 H666 0.959 . S
C681 H667 0.961 . S
C681 C680 1.502 . S
C682 H668 0.960 . S
C682 H669 0.961 . S
C682 H670 0.959 . S
C682 C680 1.561 . S
C683 C680 1.526 . S
C683 C684 1.396 . S
C683 C688 1.390 . S
C684 C678 1.465 . S
C684 C683 1.396 . S
C684 C685 1.399 . S
C685 H671 0.929 . S
C685 C684 1.399 . S
C685 C686 1.385 . S
C686 H672 0.931 . S
C686 C685 1.385 . S
C686 C687 1.389 . S
C687 C686 1.389 . S
C687 C688 1.387 . S
C688 H673 0.930 . S
C688 C683 1.390 . S
C688 C687 1.387 . S
H689 C701 0.930 . S
H690 C703 0.930 . S
H691 C704 0.930 . S
H692 C708 0.959 . S
H693 C708 0.959 . S
H694 C708 0.961 . S
H695 C709 0.960 . S
H696 C709 0.961 . S
H697 C709 0.959 . S
H698 C712 0.929 . S
H699 C713 0.931 . S
H700 C715 0.930 . S
C701 H689 0.930 . S
C701 C702 1.399 . S
C701 C706 1.399 . S
C702 C701 1.399 . S
C702 C703 1.376 . S
C703 H690 0.930 . S
C703 C702 1.376 . S
C703 C704 1.388 . S
C704 H691 0.930 . S
C704 C703 1.388 . S
C704 C705 1.390 . S
C705 C704 1.390 . S
C705 C706 1.394 . S
C705 C711 1.465 . S
C706 C701 1.399 . S
C706 C705 1.394 . S
C706 C707 1.516 . S
C707 C706 1.516 . S
C707 C708 1.502 . S
C707 C709 1.561 . S
C707 C710 1.526 . S
C708 H692 0.959 . S
C708 H693 0.959 . S
C708 H694 0.961 . S
C708 C707 1.502 . S
C709 H695 0.960 . S
C709 H696 0.961 . S
C709 H697 0.959 . S
C709 C707 1.561 . S
C710 C707 1.526 . S
C710 C711 1.396 . S
C710 C715 1.390 . S
C711 C705 1.465 . S
C711 C710 1.396 . S
C711 C712 1.399 . S
C712 H698 0.929 . S
C712 C711 1.399 . S
C712 C713 1.385 . S
C713 H699 0.931 . S
C713 C712 1.385 . S
C713 C714 1.389 . S
C714 C713 1.389 . S
C714 C715 1.387 . S
C715 H700 0.930 . S
C715 C710 1.390 . S
C715 C714 1.387 . S
H716 C728 0.930 . S
H717 C730 0.930 . S
H718 C731 0.930 . S
H719 C735 0.959 . S
H720 C735 0.959 . S
H721 C735 0.961 . S
H722 C736 0.960 . S
H723 C736 0.961 . S
H724 C736 0.959 . S
H725 C739 0.929 . S
H726 C740 0.931 . S
H727 C742 0.930 . S
C728 H716 0.930 . S
C728 C729 1.399 . S
C728 C733 1.399 . S
C729 C728 1.399 . S
C729 C730 1.376 . S
C730 H717 0.930 . S
C730 C729 1.376 . S
C730 C731 1.388 . S
C731 H718 0.930 . S
C731 C730 1.388 . S
C731 C732 1.390 . S
C732 C731 1.390 . S
C732 C733 1.394 . S
C732 C738 1.465 . S
C733 C728 1.399 . S
C733 C732 1.394 . S
C733 C734 1.516 . S
C734 C733 1.516 . S
C734 C735 1.502 . S
C734 C736 1.561 . S
C734 C737 1.526 . S
C735 H719 0.959 . S
C735 H720 0.959 . S
C735 H721 0.961 . S
C735 C734 1.502 . S
C736 H722 0.960 . S
C736 H723 0.961 . S
C736 H724 0.959 . S
C736 C734 1.561 . S
C737 C734 1.526 . S
C737 C738 1.396 . S
C737 C742 1.390 . S
C738 C732 1.465 . S
C738 C737 1.396 . S
C738 C739 1.399 . S
C739 H725 0.929 . S
C739 C738 1.399 . S
C739 C740 1.385 . S
C740 H726 0.931 . S
C740 C739 1.385 . S
C740 C741 1.389 . S
C741 C740 1.389 . S
C741 C742 1.387 . S
C742 H727 0.930 . S
C742 C737 1.390 . S
C742 C741 1.387 . S
H743 C755 0.930 . S
H744 C757 0.930 . S
H745 C758 0.930 . S
H746 C762 0.959 . S
H747 C762 0.959 . S
H748 C762 0.961 . S
H749 C763 0.960 . S
H750 C763 0.961 . S
H751 C763 0.959 . S
H752 C766 0.929 . S
H753 C767 0.931 . S
H754 C769 0.930 . S
C755 H743 0.930 . S
C755 C756 1.399 . S
C755 C760 1.399 . S
C756 C755 1.399 . S
C756 C757 1.376 . S
C757 H744 0.930 . S
C757 C756 1.376 . S
C757 C758 1.388 . S
C758 H745 0.930 . S
C758 C757 1.388 . S
C758 C759 1.390 . S
C759 C758 1.390 . S
C759 C760 1.394 . S
C759 C765 1.465 . S
C760 C755 1.399 . S
C760 C759 1.394 . S
C760 C761 1.516 . S
C761 C760 1.516 . S
C761 C762 1.502 . S
C761 C763 1.561 . S
C761 C764 1.526 . S
C762 H746 0.959 . S
C762 H747 0.959 . S
C762 H748 0.961 . S
C762 C761 1.502 . S
C763 H749 0.960 . S
C763 H750 0.961 . S
C763 H751 0.959 . S
C763 C761 1.561 . S
C764 C761 1.526 . S
C764 C765 1.396 . S
C764 C769 1.390 . S
C765 C759 1.465 . S
C765 C764 1.396 . S
C765 C766 1.399 . S
C766 H752 0.929 . S
C766 C765 1.399 . S
C766 C767 1.385 . S
C767 H753 0.931 . S
C767 C766 1.385 . S
C767 C768 1.389 . S
C768 C767 1.389 . S
C768 C769 1.387 . S
C769 H754 0.930 . S
C769 C764 1.390 . S
C769 C768 1.387 . S
H770 C782 0.930 . S
H771 C784 0.930 . S
H772 C785 0.930 . S
H773 C789 0.959 . S
H774 C789 0.959 . S
H775 C789 0.961 . S
H776 C790 0.960 . S
H777 C790 0.961 . S
H778 C790 0.959 . S
H779 C793 0.929 . S
H780 C794 0.931 . S
H781 C796 0.930 . S
C782 H770 0.930 . S
C782 C783 1.399 . S
C782 C787 1.399 . S
C783 C782 1.399 . S
C783 C784 1.376 . S
C784 H771 0.930 . S
C784 C783 1.376 . S
C784 C785 1.388 . S
C785 H772 0.930 . S
C785 C784 1.388 . S
C785 C786 1.390 . S
C786 C785 1.390 . S
C786 C787 1.394 . S
C786 C792 1.465 . S
C787 C782 1.399 . S
C787 C786 1.394 . S
C787 C788 1.516 . S
C788 C787 1.516 . S
C788 C789 1.502 . S
C788 C790 1.561 . S
C788 C791 1.526 . S
C789 H773 0.959 . S
C789 H774 0.959 . S
C789 H775 0.961 . S
C789 C788 1.502 . S
C790 H776 0.960 . S
C790 H777 0.961 . S
C790 H778 0.959 . S
C790 C788 1.561 . S
C791 C788 1.526 . S
C791 C792 1.396 . S
C791 C796 1.390 . S
C792 C786 1.465 . S
C792 C791 1.396 . S
C792 C793 1.399 . S
C793 H779 0.929 . S
C793 C792 1.399 . S
C793 C794 1.385 . S
C794 H780 0.931 . S
C794 C793 1.385 . S
C794 C795 1.389 . S
C795 C794 1.389 . S
C795 C796 1.387 . S
C796 H781 0.930 . S
C796 C791 1.390 . S
C796 C795 1.387 . S
H797 C809 0.930 . S
H798 C811 0.930 . S
H799 C812 0.930 . S
H800 C816 0.959 . S
H801 C816 0.959 . S
H802 C816 0.961 . S
H803 C817 0.960 . S
H804 C817 0.961 . S
H805 C817 0.959 . S
H806 C820 0.929 . S
H807 C821 0.931 . S
H808 C823 0.930 . S
C809 H797 0.930 . S
C809 C810 1.399 . S
C809 C814 1.399 . S
C810 C809 1.399 . S
C810 C811 1.376 . S
C811 H798 0.930 . S
C811 C810 1.376 . S
C811 C812 1.388 . S
C812 H799 0.930 . S
C812 C811 1.388 . S
C812 C813 1.390 . S
C813 C812 1.390 . S
C813 C814 1.394 . S
C813 C819 1.465 . S
C814 C809 1.399 . S
C814 C813 1.394 . S
C814 C815 1.516 . S
C815 C814 1.516 . S
C815 C816 1.502 . S
C815 C817 1.561 . S
C815 C818 1.526 . S
C816 H800 0.959 . S
C816 H801 0.959 . S
C816 H802 0.961 . S
C816 C815 1.502 . S
C817 H803 0.960 . S
C817 H804 0.961 . S
C817 H805 0.959 . S
C817 C815 1.561 . S
C818 C815 1.526 . S
C818 C819 1.396 . S
C818 C823 1.390 . S
C819 C813 1.465 . S
C819 C818 1.396 . S
C819 C820 1.399 . S
C820 H806 0.929 . S
C820 C819 1.399 . S
C820 C821 1.385 . S
C821 H807 0.931 . S
C821 C820 1.385 . S
C821 C822 1.389 . S
C822 C821 1.389 . S
C822 C823 1.387 . S
C823 H808 0.930 . S
C823 C818 1.390 . S
C823 C822 1.387 . S
H824 C836 0.930 . S
H825 C838 0.930 . S
H826 C839 0.930 . S
H827 C843 0.959 . S
H828 C843 0.959 . S
H829 C843 0.961 . S
H830 C844 0.960 . S
H831 C844 0.961 . S
H832 C844 0.959 . S
H833 C847 0.929 . S
H834 C848 0.931 . S
H835 C850 0.930 . S
C836 H824 0.930 . S
C836 C837 1.399 . S
C836 C841 1.399 . S
C837 C836 1.399 . S
C837 C838 1.376 . S
C838 H825 0.930 . S
C838 C837 1.376 . S
C838 C839 1.388 . S
C839 H826 0.930 . S
C839 C838 1.388 . S
C839 C840 1.390 . S
C840 C839 1.390 . S
C840 C841 1.394 . S
C840 C846 1.465 . S
C841 C836 1.399 . S
C841 C840 1.394 . S
C841 C842 1.516 . S
C842 C841 1.516 . S
C842 C843 1.502 . S
C842 C844 1.561 . S
C842 C845 1.526 . S
C843 H827 0.959 . S
C843 H828 0.959 . S
C843 H829 0.961 . S
C843 C842 1.502 . S
C844 H830 0.960 . S
C844 H831 0.961 . S
C844 H832 0.959 . S
C844 C842 1.561 . S
C845 C842 1.526 . S
C845 C846 1.396 . S
C845 C850 1.390 . S
C846 C840 1.465 . S
C846 C845 1.396 . S
C846 C847 1.399 . S
C847 H833 0.929 . S
C847 C846 1.399 . S
C847 C848 1.385 . S
C848 H834 0.931 . S
C848 C847 1.385 . S
C848 C849 1.389 . S
C849 C848 1.389 . S
C849 C850 1.387 . S
C850 H835 0.930 . S
C850 C845 1.390 . S
C850 C849 1.387 . S
H851 C863 0.930 . S
H852 C865 0.930 . S
H853 C866 0.930 . S
H854 C870 0.959 . S
H855 C870 0.959 . S
H856 C870 0.961 . S
H857 C871 0.960 . S
H858 C871 0.961 . S
H859 C871 0.959 . S
H860 C874 0.929 . S
H861 C875 0.931 . S
H862 C877 0.930 . S
C863 H851 0.930 . S
C863 C864 1.399 . S
C863 C868 1.399 . S
C864 C863 1.399 . S
C864 C865 1.376 . S
C865 H852 0.930 . S
C865 C864 1.376 . S
C865 C866 1.388 . S
C866 H853 0.930 . S
C866 C865 1.388 . S
C866 C867 1.390 . S
C867 C866 1.390 . S
C867 C868 1.394 . S
C867 C873 1.465 . S
C868 C863 1.399 . S
C868 C867 1.394 . S
C868 C869 1.516 . S
C869 C868 1.516 . S
C869 C870 1.502 . S
C869 C871 1.561 . S
C869 C872 1.526 . S
C870 H854 0.959 . S
C870 H855 0.959 . S
C870 H856 0.961 . S
C870 C869 1.502 . S
C871 H857 0.960 . S
C871 H858 0.961 . S
C871 H859 0.959 . S
C871 C869 1.561 . S
C872 C869 1.526 . S
C872 C873 1.396 . S
C872 C877 1.390 . S
C873 C867 1.465 . S
C873 C872 1.396 . S
C873 C874 1.399 . S
C874 H860 0.929 . S
C874 C873 1.399 . S
C874 C875 1.385 . S
C875 H861 0.931 . S
C875 C874 1.385 . S
C875 C876 1.389 . S
C876 C875 1.389 . S
C876 C877 1.387 . S
C877 H862 0.930 . S
C877 C872 1.390 . S
C877 C876 1.387 . S
H878 C890 0.930 . S
H879 C892 0.930 . S
H880 C893 0.930 . S
H881 C897 0.959 . S
H882 C897 0.959 . S
H883 C897 0.961 . S
H884 C898 0.960 . S
H885 C898 0.961 . S
H886 C898 0.959 . S
H887 C901 0.929 . S
H888 C902 0.931 . S
H889 C904 0.930 . S
C890 H878 0.930 . S
C890 C891 1.399 . S
C890 C895 1.399 . S
C891 C890 1.399 . S
C891 C892 1.376 . S
C892 H879 0.930 . S
C892 C891 1.376 . S
C892 C893 1.388 . S
C893 H880 0.930 . S
C893 C892 1.388 . S
C893 C894 1.390 . S
C894 C893 1.390 . S
C894 C895 1.394 . S
C894 C900 1.465 . S
C895 C890 1.399 . S
C895 C894 1.394 . S
C895 C896 1.516 . S
C896 C895 1.516 . S
C896 C897 1.502 . S
C896 C898 1.561 . S
C896 C899 1.526 . S
C897 H881 0.959 . S
C897 H882 0.959 . S
C897 H883 0.961 . S
C897 C896 1.502 . S
C898 H884 0.960 . S
C898 H885 0.961 . S
C898 H886 0.959 . S
C898 C896 1.561 . S
C899 C896 1.526 . S
C899 C900 1.396 . S
C899 C904 1.390 . S
C900 C894 1.465 . S
C900 C899 1.396 . S
C900 C901 1.399 . S
C901 H887 0.929 . S
C901 C900 1.399 . S
C901 C902 1.385 . S
C902 H888 0.931 . S
C902 C901 1.385 . S
C902 C903 1.389 . S
C903 C902 1.389 . S
C903 C904 1.387 . S
C904 H889 0.930 . S
C904 C899 1.390 . S
C904 C903 1.387 . S
H905 C917 0.930 . S
H906 C919 0.930 . S
H907 C920 0.930 . S
H908 C924 0.959 . S
H909 C924 0.959 . S
H910 C924 0.961 . S
H911 C925 0.960 . S
H912 C925 0.961 . S
H913 C925 0.959 . S
H914 C928 0.929 . S
H915 C929 0.931 . S
H916 C931 0.930 . S
C917 H905 0.930 . S
C917 C918 1.399 . S
C917 C922 1.399 . S
C918 C917 1.399 . S
C918 C919 1.376 . S
C919 H906 0.930 . S
C919 C918 1.376 . S
C919 C920 1.388 . S
C920 H907 0.930 . S
C920 C919 1.388 . S
C920 C921 1.390 . S
C921 C920 1.390 . S
C921 C922 1.394 . S
C921 C927 1.465 . S
C922 C917 1.399 . S
C922 C921 1.394 . S
C922 C923 1.516 . S
C923 C922 1.516 . S
C923 C924 1.502 . S
C923 C925 1.561 . S
C923 C926 1.526 . S
C924 H908 0.959 . S
C924 H909 0.959 . S
C924 H910 0.961 . S
C924 C923 1.502 . S
C925 H911 0.960 . S
C925 H912 0.961 . S
C925 H913 0.959 . S
C925 C923 1.561 . S
C926 C923 1.526 . S
C926 C927 1.396 . S
C926 C931 1.390 . S
C927 C921 1.465 . S
C927 C926 1.396 . S
C927 C928 1.399 . S
C928 H914 0.929 . S
C928 C927 1.399 . S
C928 C929 1.385 . S
C929 H915 0.931 . S
C929 C928 1.385 . S
C929 C930 1.389 . S
C930 C929 1.389 . S
C930 C931 1.387 . S
C931 H916 0.930 . S
C931 C926 1.390 . S
C931 C930 1.387 . S
H932 C944 0.930 . S
H933 C946 0.930 . S
H934 C947 0.930 . S
H935 C951 0.959 . S
H936 C951 0.959 . S
H937 C951 0.961 . S
H938 C952 0.960 . S
H939 C952 0.961 . S
H940 C952 0.959 . S
H941 C955 0.929 . S
H942 C956 0.931 . S
H943 C958 0.930 . S
C944 H932 0.930 . S
C944 C945 1.399 . S
C944 C949 1.399 . S
C945 C944 1.399 . S
C945 C946 1.376 . S
C946 H933 0.930 . S
C946 C945 1.376 . S
C946 C947 1.388 . S
C947 H934 0.930 . S
C947 C946 1.388 . S
C947 C948 1.390 . S
C948 C947 1.390 . S
C948 C949 1.394 . S
C948 C954 1.465 . S
C949 C944 1.399 . S
C949 C948 1.394 . S
C949 C950 1.516 . S
C950 C949 1.516 . S
C950 C951 1.502 . S
C950 C952 1.561 . S
C950 C953 1.526 . S
C951 H935 0.959 . S
C951 H936 0.959 . S
C951 H937 0.961 . S
C951 C950 1.502 . S
C952 H938 0.960 . S
C952 H939 0.961 . S
C952 H940 0.959 . S
C952 C950 1.561 . S
C953 C950 1.526 . S
C953 C954 1.396 . S
C953 C958 1.390 . S
C954 C948 1.465 . S
C954 C953 1.396 . S
C954 C955 1.399 . S
C955 H941 0.929 . S
C955 C954 1.399 . S
C955 C956 1.385 . S
C956 H942 0.931 . S
C956 C955 1.385 . S
C956 C957 1.389 . S
C957 C956 1.389 . S
C957 C958 1.387 . S
C958 H943 0.930 . S
C958 C953 1.390 . S
C958 C957 1.387 . S
H959 C971 0.930 . S
H960 C973 0.930 . S
H961 C974 0.930 . S
H962 C978 0.959 . S
H963 C978 0.959 . S
H964 C978 0.961 . S
H965 C979 0.960 . S
H966 C979 0.961 . S
H967 C979 0.959 . S
H968 C982 0.929 . S
H969 C983 0.931 . S
H970 C985 0.930 . S
C971 H959 0.930 . S
C971 C972 1.399 . S
C971 C976 1.399 . S
C972 C971 1.399 . S
C972 C973 1.376 . S
C973 H960 0.930 . S
C973 C972 1.376 . S
C973 C974 1.388 . S
C974 H961 0.930 . S
C974 C973 1.388 . S
C974 C975 1.390 . S
C975 C974 1.390 . S
C975 C976 1.394 . S
C975 C981 1.465 . S
C976 C971 1.399 . S
C976 C975 1.394 . S
C976 C977 1.516 . S
C977 C976 1.516 . S
C977 C978 1.502 . S
C977 C979 1.561 . S
C977 C980 1.526 . S
C978 H962 0.959 . S
C978 H963 0.959 . S
C978 H964 0.961 . S
C978 C977 1.502 . S
C979 H965 0.960 . S
C979 H966 0.961 . S
C979 H967 0.959 . S
C979 C977 1.561 . S
C980 C977 1.526 . S
C980 C981 1.396 . S
C980 C985 1.390 . S
C981 C975 1.465 . S
C981 C980 1.396 . S
C981 C982 1.399 . S
C982 H968 0.929 . S
C982 C981 1.399 . S
C982 C983 1.385 . S
C983 H969 0.931 . S
C983 C982 1.385 . S
C983 C984 1.389 . S
C984 C983 1.389 . S
C984 C985 1.387 . S
C985 H970 0.930 . S
C985 C980 1.390 . S
C985 C984 1.387 . S
H986 C998 0.930 . S
H987 C1000 0.930 . S
H988 C1001 0.930 . S
H989 C1005 0.959 . S
H990 C1005 0.959 . S
H991 C1005 0.961 . S
H992 C1006 0.960 . S
H993 C1006 0.961 . S
H994 C1006 0.959 . S
H995 C1009 0.929 . S
H996 C1010 0.931 . S
H997 C1012 0.930 . S
C998 H986 0.930 . S
C998 C999 1.399 . S
C998 C1003 1.399 . S
C999 C998 1.399 . S
C999 C1000 1.376 . S
C1000 H987 0.930 . S
C1000 C999 1.376 . S
C1000 C1001 1.388 . S
C1001 H988 0.930 . S
C1001 C1000 1.388 . S
C1001 C1002 1.390 . S
C1002 C1001 1.390 . S
C1002 C1003 1.394 . S
C1002 C1008 1.465 . S
C1003 C998 1.399 . S
C1003 C1002 1.394 . S
C1003 C1004 1.516 . S
C1004 C1003 1.516 . S
C1004 C1005 1.502 . S
C1004 C1006 1.561 . S
C1004 C1007 1.526 . S
C1005 H989 0.959 . S
C1005 H990 0.959 . S
C1005 H991 0.961 . S
C1005 C1004 1.502 . S
C1006 H992 0.960 . S
C1006 H993 0.961 . S
C1006 H994 0.959 . S
C1006 C1004 1.561 . S
C1007 C1004 1.526 . S
C1007 C1008 1.396 . S
C1007 C1012 1.390 . S
C1008 C1002 1.465 . S
C1008 C1007 1.396 . S
C1008 C1009 1.399 . S
C1009 H995 0.929 . S
C1009 C1008 1.399 . S
C1009 C1010 1.385 . S
C1010 H996 0.931 . S
C1010 C1009 1.385 . S
C1010 C1011 1.389 . S
C1011 C1010 1.389 . S
C1011 C1012 1.387 . S
C1012 H997 0.930 . S
C1012 C1007 1.390 . S
C1012 C1011 1.387 . S
H1013 C1025 0.930 . S
H1014 C1027 0.930 . S
H1015 C1028 0.930 . S
H1016 C1032 0.959 . S
H1017 C1032 0.959 . S
H1018 C1032 0.961 . S
H1019 C1033 0.960 . S
H1020 C1033 0.961 . S
H1021 C1033 0.959 . S
H1022 C1036 0.929 . S
H1023 C1037 0.931 . S
H1024 C1039 0.930 . S
C1025 H1013 0.930 . S
C1025 C1026 1.399 . S
C1025 C1030 1.399 . S
C1026 C1025 1.399 . S
C1026 C1027 1.376 . S
C1027 H1014 0.930 . S
C1027 C1026 1.376 . S
C1027 C1028 1.388 . S
C1028 H1015 0.930 . S
C1028 C1027 1.388 . S
C1028 C1029 1.390 . S
C1029 C1028 1.390 . S
C1029 C1030 1.394 . S
C1029 C1035 1.465 . S
C1030 C1025 1.399 . S
C1030 C1029 1.394 . S
C1030 C1031 1.516 . S
C1031 C1030 1.516 . S
C1031 C1032 1.502 . S
C1031 C1033 1.561 . S
C1031 C1034 1.526 . S
C1032 H1016 0.959 . S
C1032 H1017 0.959 . S
C1032 H1018 0.961 . S
C1032 C1031 1.502 . S
C1033 H1019 0.960 . S
C1033 H1020 0.961 . S
C1033 H1021 0.959 . S
C1033 C1031 1.561 . S
C1034 C1031 1.526 . S
C1034 C1035 1.396 . S
C1034 C1039 1.390 . S
C1035 C1029 1.465 . S
C1035 C1034 1.396 . S
C1035 C1036 1.399 . S
C1036 H1022 0.929 . S
C1036 C1035 1.399 . S
C1036 C1037 1.385 . S
C1037 H1023 0.931 . S
C1037 C1036 1.385 . S
C1037 C1038 1.389 . S
C1038 C1037 1.389 . S
C1038 C1039 1.387 . S
C1039 H1024 0.930 . S
C1039 C1034 1.390 . S
C1039 C1038 1.387 . S
H1040 C1052 0.930 . S
H1041 C1054 0.930 . S
H1042 C1055 0.930 . S
H1043 C1059 0.959 . S
H1044 C1059 0.959 . S
H1045 C1059 0.961 . S
H1046 C1060 0.960 . S
H1047 C1060 0.961 . S
H1048 C1060 0.959 . S
H1049 C1063 0.929 . S
H1050 C1064 0.931 . S
H1051 C1066 0.930 . S
C1052 H1040 0.930 . S
C1052 C1053 1.399 . S
C1052 C1057 1.399 . S
C1053 C1052 1.399 . S
C1053 C1054 1.376 . S
C1054 H1041 0.930 . S
C1054 C1053 1.376 . S
C1054 C1055 1.388 . S
C1055 H1042 0.930 . S
C1055 C1054 1.388 . S
C1055 C1056 1.390 . S
C1056 C1055 1.390 . S
C1056 C1057 1.394 . S
C1056 C1062 1.465 . S
C1057 C1052 1.399 . S
C1057 C1056 1.394 . S
C1057 C1058 1.516 . S
C1058 C1057 1.516 . S
C1058 C1059 1.502 . S
C1058 C1060 1.561 . S
C1058 C1061 1.526 . S
C1059 H1043 0.959 . S
C1059 H1044 0.959 . S
C1059 H1045 0.961 . S
C1059 C1058 1.502 . S
C1060 H1046 0.960 . S
C1060 H1047 0.961 . S
C1060 H1048 0.959 . S
C1060 C1058 1.561 . S
C1061 C1058 1.526 . S
C1061 C1062 1.396 . S
C1061 C1066 1.390 . S
C1062 C1056 1.465 . S
C1062 C1061 1.396 . S
C1062 C1063 1.399 . S
C1063 H1049 0.929 . S
C1063 C1062 1.399 . S
C1063 C1064 1.385 . S
C1064 H1050 0.931 . S
C1064 C1063 1.385 . S
C1064 C1065 1.389 . S
C1065 C1064 1.389 . S
C1065 C1066 1.387 . S
C1066 H1051 0.930 . S
C1066 C1061 1.390 . S
C1066 C1065 1.387 . S
H1067 C1079 0.930 . S
H1068 C1081 0.930 . S
H1069 C1082 0.930 . S
H1070 C1086 0.959 . S
H1071 C1086 0.959 . S
H1072 C1086 0.961 . S
H1073 C1087 0.960 . S
H1074 C1087 0.961 . S
H1075 C1087 0.959 . S
H1076 C1090 0.929 . S
H1077 C1091 0.931 . S
H1078 C1093 0.930 . S
C1079 H1067 0.930 . S
C1079 C1080 1.399 . S
C1079 C1084 1.399 . S
C1080 C1079 1.399 . S
C1080 C1081 1.376 . S
C1081 H1068 0.930 . S
C1081 C1080 1.376 . S
C1081 C1082 1.388 . S
C1082 H1069 0.930 . S
C1082 C1081 1.388 . S
C1082 C1083 1.390 . S
C1083 C1082 1.390 . S
C1083 C1084 1.394 . S
C1083 C1089 1.465 . S
C1084 C1079 1.399 . S
C1084 C1083 1.394 . S
C1084 C1085 1.516 . S
C1085 C1084 1.516 . S
C1085 C1086 1.502 . S
C1085 C1087 1.561 . S
C1085 C1088 1.526 . S
C1086 H1070 0.959 . S
C1086 H1071 0.959 . S
C1086 H1072 0.961 . S
C1086 C1085 1.502 . S
C1087 H1073 0.960 . S
C1087 H1074 0.961 . S
C1087 H1075 0.959 . S
C1087 C1085 1.561 . S
C1088 C1085 1.526 . S
C1088 C1089 1.396 . S
C1088 C1093 1.390 . S
C1089 C1083 1.465 . S
C1089 C1088 1.396 . S
C1089 C1090 1.399 . S
C1090 H1076 0.929 . S
C1090 C1089 1.399 . S
C1090 C1091 1.385 . S
C1091 H1077 0.931 . S
C1091 C1090 1.385 . S
C1091 C1092 1.389 . S
C1092 C1091 1.389 . S
C1092 C1093 1.387 . S
C1093 H1078 0.930 . S
C1093 C1088 1.390 . S
C1093 C1092 1.387 . S
C471 C337 1.529 . S
C459 C15 1.653 . S
C498 C350 1.475 . S
C486 C55 1.596 . S
C525 C332 1.638 . S
C513 C101 1.620 . S
C552 C360 1.513 . S
C540 C141 1.631 . S
C579 C371 1.391 . S
C567 C2 1.540 . S
C606 C392 1.515 . S
C594 C61 1.587 . S
C621 C95 1.556 . S
C633 C421 1.509 . S
C660 C442 1.512 . S
C648 C135 1.615 . S
C687 C381 1.489 . S
C675 C42 1.479 . S
C702 C82 1.625 . S
C714 C402 1.557 . S
C741 C416 1.422 . S
C729 C122 1.550 . S
C768 C437 1.594 . S
C756 C21 1.615 . S
C783 C162 1.658 . S
C795 C358 1.527 . S
C822 C329 1.595 . S
C810 C221 1.715 . S
C837 C255 1.644 . S
C849 C353 1.422 . S
C864 C282 1.620 . S
C876 C339 1.647 . S
C903 C423 1.454 . S
C891 C181 1.572 . S
C930 C444 1.597 . S
C918 C202 1.670 . S
C957 C374 1.445 . S
C945 C242 1.560 . S
C972 C301 1.643 . S
C984 C395 1.491 . S
C1011 C413 1.540 . S
C999 C215 1.583 . S
C1038 C434 1.595 . S
C1026 C261 1.663 . S
C1065 C379 1.403 . S
C1053 C295 1.541 . S
C1080 C175 1.628 . S
C1092 C400 1.445 . S
