# Generated by pormake.
# Topology pyr, (3,6)-cn, num edge types: 1
# Building blocks:
#     Node 0, Type 0, BuildingBlock: PAMTOO_clean_linker_0, # of connection points: 3
#     Node 1, Type 0, BuildingBlock: PAMTOO_clean_linker_0, # of connection points: 3
#     Node 2, Type 0, BuildingBlock: PAMTOO_clean_linker_0, # of connection points: 3
#     Node 3, Type 0, BuildingBlock: PAMTOO_clean_linker_0, # of connection points: 3
#     Node 4, Type 0, BuildingBlock: PAMTOO_clean_linker_0, # of connection points: 3
#     Node 5, Type 0, BuildingBlock: PAMTOO_clean_linker_0, # of connection points: 3
#     Node 6, Type 0, BuildingBlock: PAMTOO_clean_linker_0, # of connection points: 3
#     Node 7, Type 0, BuildingBlock: PAMTOO_clean_linker_0, # of connection points: 3
#     Node 8, Type 1, BuildingBlock: VOLQOD_clean_sbu_1, # of connection points: 6
#     Node 9, Type 1, BuildingBlock: VOLQOD_clean_sbu_1, # of connection points: 6
#     Node 10, Type 1, BuildingBlock: VOLQOD_clean_sbu_1, # of connection points: 6
#     Node 11, Type 1, BuildingBlock: VOLQOD_clean_sbu_1, # of connection points: 6
#     Edge 12, Type (0, 1), BuildingBlock: ZUJKAS_clean_linker_0, # of connection points: 2
#     Edge 13, Type (0, 1), BuildingBlock: ZUJKAS_clean_linker_0, # of connection points: 2
#     Edge 14, Type (0, 1), BuildingBlock: ZUJKAS_clean_linker_0, # of connection points: 2
#     Edge 15, Type (0, 1), BuildingBlock: ZUJKAS_clean_linker_0, # of connection points: 2
#     Edge 16, Type (0, 1), BuildingBlock: ZUJKAS_clean_linker_0, # of connection points: 2
#     Edge 17, Type (0, 1), BuildingBlock: ZUJKAS_clean_linker_0, # of connection points: 2
#     Edge 18, Type (0, 1), BuildingBlock: ZUJKAS_clean_linker_0, # of connection points: 2
#     Edge 19, Type (0, 1), BuildingBlock: ZUJKAS_clean_linker_0, # of connection points: 2
#     Edge 20, Type (0, 1), BuildingBlock: ZUJKAS_clean_linker_0, # of connection points: 2
#     Edge 21, Type (0, 1), BuildingBlock: ZUJKAS_clean_linker_0, # of connection points: 2
#     Edge 22, Type (0, 1), BuildingBlock: ZUJKAS_clean_linker_0, # of connection points: 2
#     Edge 23, Type (0, 1), BuildingBlock: ZUJKAS_clean_linker_0, # of connection points: 2
#     Edge 24, Type (0, 1), BuildingBlock: ZUJKAS_clean_linker_0, # of connection points: 2
#     Edge 25, Type (0, 1), BuildingBlock: ZUJKAS_clean_linker_0, # of connection points: 2
#     Edge 26, Type (0, 1), BuildingBlock: ZUJKAS_clean_linker_0, # of connection points: 2
#     Edge 27, Type (0, 1), BuildingBlock: ZUJKAS_clean_linker_0, # of connection points: 2
#     Edge 28, Type (0, 1), BuildingBlock: ZUJKAS_clean_linker_0, # of connection points: 2
#     Edge 29, Type (0, 1), BuildingBlock: ZUJKAS_clean_linker_0, # of connection points: 2
#     Edge 30, Type (0, 1), BuildingBlock: ZUJKAS_clean_linker_0, # of connection points: 2
#     Edge 31, Type (0, 1), BuildingBlock: ZUJKAS_clean_linker_0, # of connection points: 2
#     Edge 32, Type (0, 1), BuildingBlock: ZUJKAS_clean_linker_0, # of connection points: 2
#     Edge 33, Type (0, 1), BuildingBlock: ZUJKAS_clean_linker_0, # of connection points: 2
#     Edge 34, Type (0, 1), BuildingBlock: ZUJKAS_clean_linker_0, # of connection points: 2
#     Edge 35, Type (0, 1), BuildingBlock: ZUJKAS_clean_linker_0, # of connection points: 2
# Relax obj value: 0.116
# Max RMSD: 0.196
# Mean RMSD: 0.161
data_MOF--net-pry--node1-VOLQOD_clean_sbu_1--node2-PAMTOO_clean_linker_0--edge1-ZUJKAS_clean_linker_0
_symmetry_space_group_name_H-M    P1
_symmetry_Int_Tables_number       1
_symmetry_cell_setting            triclinic
loop_
_symmetry_equiv_pos_as_xyz
'x, y, z'
_cell_length_a     46.849629
_cell_length_b     48.24146
_cell_length_c     48.000754
_cell_angle_alpha  90.030799
_cell_angle_beta   91.130444
_cell_angle_gamma 95.241836
loop_
_atom_site_label
_atom_site_type_symbol
_atom_site_fract_x
_atom_site_fract_y
_atom_site_fract_z
_atom_type_partial_charge
H0 H 0.12397 0.17346 0.18916 0.0
H1 H 0.18234 0.10968 0.18392 0.0
H2 H 0.1805 0.17067 0.11951 0.0
H3 H 0.18916 0.11594 0.09852 0.0
C4 C 0.19946 0.10705 0.11715 0.0
O5 O 0.20478 0.12737 0.13728 0.0
H6 H 0.18454 0.08976 0.12526 0.0
C7 C 0.14049 0.1638 0.17821 0.0
C8 C 0.15074 0.17528 0.15292 0.0
C9 C 0.1515 0.13997 0.18956 0.0
C10 C 0.17311 0.12771 0.17537 0.0
C11 C 0.18348 0.13893 0.15031 0.0
C12 C 0.17237 0.16255 0.13913 0.0
H13 H 0.38082 0.91665 0.6742 0.0
H14 H 0.37909 0.85947 0.60501 0.0
H15 H 0.44311 0.85654 0.6696 0.0
H16 H 0.46291 0.84965 0.61185 0.0
C17 C 0.44333 0.8378 0.60293 0.0
O18 O 0.42266 0.83409 0.62296 0.0
H19 H 0.43532 0.85003 0.58523 0.0
C20 C 0.38995 0.90009 0.66314 0.0
C21 C 0.41375 0.88824 0.67484 0.0
C22 C 0.37707 0.88989 0.638 0.0
C23 C 0.38844 0.8676 0.62451 0.0
C24 C 0.41221 0.85576 0.63591 0.0
C25 C 0.42473 0.86594 0.66103 0.0
H26 H 0.67139 0.35605 0.94442 0.0
H27 H 0.6024 0.36673 0.88589 0.0
H28 H 0.67444 0.42796 0.89098 0.0
H29 H 0.61807 0.45172 0.87995 0.0
C30 C 0.60692 0.43323 0.86922 0.0
O31 O 0.62578 0.4133 0.86556 0.0
H32 H 0.58877 0.4249 0.88233 0.0
C33 C 0.66158 0.36831 0.9286 0.0
C34 C 0.67614 0.39338 0.91959 0.0
C35 C 0.63501 0.35836 0.91656 0.0
C36 C 0.62273 0.37411 0.89567 0.0
C37 C 0.63681 0.39932 0.88693 0.0
C38 C 0.66336 0.40894 0.89882 0.0
H39 H 0.88464 0.65938 0.44838 0.0
H40 H 0.88465 0.59718 0.38391 0.0
H41 H 0.95003 0.66521 0.3862 0.0
H42 H 0.92541 0.65276 0.33183 0.0
C43 C 0.92031 0.62983 0.33348 0.0
O44 O 0.92956 0.62075 0.35906 0.0
H45 H 0.89663 0.6254 0.33128 0.0
C46 C 0.89443 0.65094 0.43035 0.0
C47 C 0.91917 0.66517 0.41923 0.0
C48 C 0.88168 0.62639 0.41779 0.0
C49 C 0.8942 0.61594 0.39408 0.0
C50 C 0.91881 0.62994 0.3829 0.0
C51 C 0.93142 0.65426 0.39559 0.0
H52 H 0.89204 0.94024 0.87731 0.0
H53 H 0.89463 0.87699 0.94062 0.0
H54 H 0.95579 0.88158 0.87518 0.0
H55 H 0.92845 0.82676 0.88521 0.0
C56 C 0.92544 0.82759 0.90813 0.0
O57 O 0.93657 0.85315 0.91839 0.0
H58 H 0.90201 0.82478 0.91208 0.0
C59 C 0.90196 0.92297 0.88668 0.0
C60 C 0.92562 0.91291 0.87379 0.0
C61 C 0.89064 0.91044 0.91104 0.0
C62 C 0.90315 0.88731 0.92213 0.0
C63 C 0.92643 0.87687 0.90907 0.0
C64 C 0.93802 0.89004 0.88533 0.0
H65 H 0.69597 0.07696 0.37015 0.0
H66 H 0.62441 0.12699 0.37353 0.0
H67 H 0.6841 0.12777 0.44218 0.0
H68 H 0.62245 0.13007 0.45789 0.0
C69 C 0.61542 0.14166 0.43932 0.0
O70 O 0.63838 0.1483 0.42231 0.0
H71 H 0.59851 0.12817 0.4279 0.0
C72 C 0.68367 0.09126 0.38122 0.0
C73 C 0.69298 0.10085 0.40787 0.0
C74 C 0.65895 0.10053 0.3685 0.0
C75 C 0.64347 0.11945 0.38288 0.0
C76 C 0.65243 0.12888 0.40946 0.0
C77 C 0.67701 0.11958 0.42193 0.0
H78 H 0.4154 0.63795 0.07116 0.0
H79 H 0.42786 0.56446 0.11937 0.0
H80 H 0.49033 0.63472 0.12393 0.0
H81 H 0.51416 0.5768 0.13104 0.0
C82 C 0.4942 0.56645 0.13995 0.0
O83 O 0.47471 0.5857 0.14391 0.0
H84 H 0.48522 0.54987 0.12526 0.0
C85 C 0.42834 0.62645 0.08516 0.0
C86 C 0.45439 0.63942 0.09581 0.0
C87 C 0.41832 0.59936 0.0934 0.0
C88 C 0.43506 0.5852 0.11231 0.0
C89 C 0.46097 0.59795 0.12301 0.0
C90 C 0.47077 0.62479 0.11457 0.0
H91 H 0.10754 0.36761 0.66115 0.0
H92 H 0.11937 0.45484 0.64157 0.0
H93 H 0.13432 0.39441 0.57929 0.0
H94 H 0.16272 0.47194 0.61552 0.0
C95 C 0.15783 0.46719 0.59314 0.0
O96 O 0.13453 0.44759 0.59012 0.0
H97 H 0.15185 0.487 0.58385 0.0
C98 C 0.11338 0.38415 0.64648 0.0
C99 C 0.12036 0.37745 0.61908 0.0
C100 C 0.11328 0.41198 0.65499 0.0
C101 C 0.11978 0.43323 0.63556 0.0
C102 C 0.12829 0.42689 0.60864 0.0
C103 C 0.12882 0.39906 0.6005 0.0
O104 O 0.03869 0.07744 0.55593 0.0
Zn105 Zn 0.01827 0.03894 0.5516 0.0
O106 O 0.04082 0.01516 0.52914 0.0
Zn107 Zn 0.01975 0.00386 0.49475 0.0
Zn108 Zn 0.07756 0.0355 0.51984 0.0
Zn109 Zn 0.04781 0.9819 0.55037 0.0
O110 O 0.01383 0.96203 0.49097 0.0
O111 O 0.03232 0.94696 0.53042 0.0
O112 O 0.9794 0.04263 0.53336 0.0
O113 O 0.98073 0.01798 0.49439 0.0
O114 O 0.0405 0.01921 0.46083 0.0
O115 O 0.08124 0.03986 0.47827 0.0
O116 O 0.11113 0.01596 0.53464 0.0
O117 O 0.01169 0.02302 0.59027 0.0
O118 O 0.08998 0.97941 0.5566 0.0
O119 O 0.02967 0.98206 0.58791 0.0
C120 C 0.06331 0.08833 0.54892 0.0
C121 C 0.01966 0.94218 0.50698 0.0
C122 C 0.06479 0.03283 0.45751 0.0
C123 C 0.9676 0.03301 0.51076 0.0
C124 C 0.11255 0.99396 0.54909 0.0
C125 C 0.01679 -0.00013 0.60122 0.0
O126 O 0.08049 0.07441 0.53565 0.0
O127 O 0.53551 0.06199 0.98757 0.0
Zn128 Zn 0.51819 0.02289 0.99402 0.0
O129 O 0.5442 0.00236 0.0169 0.0
Zn130 Zn 0.55522 0.97096 0.99529 0.0
Zn131 Zn 0.57887 0.02637 0.02725 0.0
Zn132 Zn 0.52456 0.98883 0.05066 0.0
O133 O 0.54269 0.9349 0.0139 0.0
O134 O 0.52057 0.94679 0.05199 0.0
O135 O 0.50966 0.00471 0.95638 0.0
O136 O 0.53704 0.96955 0.95705 0.0
O137 O 0.59779 0.9726 0.9908 0.0
O138 O 0.61482 0.01091 0.01337 0.0
O139 O 0.58307 0.03031 0.06903 0.0
O140 O 0.48069 0.02569 0.01315 0.0
O141 O 0.54642 0.00299 0.0852 0.0
O142 O 0.48503 0.00232 0.05259 0.0
C143 C 0.55874 0.07572 0.99559 0.0
C144 C 0.5291 0.92829 0.03597 0.0
C145 C 0.61879 0.98938 0.99906 0.0
C146 C 0.51919 0.98385 0.94458 0.0
C147 C 0.56889 0.01954 0.08933 0.0
C148 C 0.47057 0.01673 0.03623 0.0
O149 O 0.57712 0.06466 0.01089 0.0
O150 O 0.54869 0.50338 0.56998 0.0
Zn151 Zn 0.54752 0.51767 0.53064 0.0
O152 O 0.52456 0.49134 0.50633 0.0
Zn153 Zn 0.54929 0.47792 0.47802 0.0
Zn154 Zn 0.50831 0.45962 0.5282 0.0
Zn155 Zn 0.49357 0.51003 0.48835 0.0
O156 O 0.53566 0.48763 0.43975 0.0
O157 O 0.49728 0.51042 0.4464 0.0
O158 O 0.58828 0.52463 0.51769 0.0
O159 O 0.58979 0.49536 0.48222 0.0
O160 O 0.55006 0.4364 0.47965 0.0
O161 O 0.52142 0.42335 0.51444 0.0
O162 O 0.46511 0.45652 0.5262 0.0
O163 O 0.53065 0.5545 0.5318 0.0
O164 O 0.45493 0.49059 0.49763 0.0
O165 O 0.49371 0.54981 0.50198 0.0
C166 C 0.53669 0.48201 0.58205 0.0
C167 C 0.5151 0.50055 0.43021 0.0
C168 C 0.53802 0.41747 0.49503 0.0
C169 C 0.60203 0.51386 0.49844 0.0
C170 C 0.44693 0.46999 0.51311 0.0
C171 C 0.50955 0.56438 0.51941 0.0
O172 O 0.52047 0.46382 0.56859 0.0
O173 O 0.0173 0.49489 0.0747 0.0
Zn174 Zn 0.02028 0.47566 0.03773 0.0
O175 O 0.04531 0.49885 0.01293 0.0
Zn176 Zn 0.02346 0.50936 0.98023 0.0
Zn177 Zn 0.0611 0.53292 0.03221 0.0
Zn178 Zn 0.07638 0.47743 0.00102 0.0
O179 O 0.03998 0.49595 0.94488 0.0
O180 O 0.07572 0.472 0.95929 0.0
O181 O 0.98019 0.46862 0.02124 0.0
O182 O 0.98283 0.49268 0.98183 0.0
O183 O 0.02219 0.5508 0.97754 0.0
O184 O 0.04881 0.56761 0.01346 0.0
O185 O 0.10434 0.53561 0.03349 0.0
O186 O 0.03572 0.43847 0.04544 0.0
O187 O 0.11455 0.49695 0.01211 0.0
O188 O 0.07449 0.43992 0.01948 0.0
C189 C 0.02924 0.51735 0.08532 0.0
C190 C 0.0603 0.48102 0.93973 0.0
C191 C 0.03315 0.57133 0.99203 0.0
C192 C 0.96858 0.47707 0.99896 0.0
C193 C 0.12247 0.51965 0.02474 0.0
C194 C 0.05751 0.42732 0.03667 0.0
O195 O 0.04682 0.53346 0.07155 0.0
H196 H 0.13875 0.08505 0.20247 0.0
H197 H 0.12246 0.06531 0.24698 0.0
H198 H 0.124 0.1479 0.28172 0.0
H199 H 0.14036 0.16781 0.23731 0.0
H200 H 0.14987 0.07026 0.29843 0.0
H201 H 0.04413 0.11324 0.30141 0.0
H202 H 0.06484 0.11295 0.27011 0.0
H203 H 0.0736 0.13914 0.29634 0.0
C204 C 0.13565 0.09902 0.2196 0.0
C205 C 0.14077 0.12802 0.21633 0.0
C206 C 0.12624 0.08771 0.24496 0.0
C207 C 0.12164 0.10514 0.26753 0.0
C208 C 0.12677 0.13409 0.26438 0.0
H209 H 0.11417 0.06352 0.44253 0.0
H210 H 0.12778 0.07961 0.39603 0.0
C211 C 0.13613 0.14543 0.23899 0.0
C212 C 0.1125 0.09298 0.29464 0.0
H213 H 0.06027 0.09267 0.34328 0.0
C214 C 0.13021 0.07503 0.30818 0.0
C215 C 0.08665 0.09895 0.30714 0.0
C216 C 0.06604 0.1169 0.29291 0.0
C217 C 0.12308 0.06337 0.3342 0.0
C218 C 0.09781 0.07023 0.3472 0.0
C219 C 0.07976 0.08765 0.33337 0.0
C220 C 0.08984 0.05979 0.3753 0.0
C221 C 0.14253 0.04361 0.3474 0.0
C222 C 0.06374 0.0437 0.37917 0.0
C223 C 0.05577 0.03456 0.40579 0.0
C224 C 0.07371 0.04151 0.4291 0.0
C225 C 0.09989 0.05761 0.42507 0.0
C226 C 0.10781 0.06673 0.39846 0.0
H227 H 0.15622 0.03462 0.33173 0.0
H228 H 0.15685 0.05507 0.36304 0.0
H229 H 0.12996 0.02632 0.35819 0.0
H230 H 0.0495 0.03822 0.36156 0.0
H231 H 0.03543 0.02228 0.4081 0.0
H232 H 0.42617 0.94243 0.69096 0.0
H233 H 0.44513 0.95983 0.73624 0.0
H234 H 0.44905 0.87553 0.76482 0.0
H235 H 0.42976 0.85793 0.7197 0.0
H236 H 0.42099 0.91269 0.80156 0.0
H237 H 0.52881 0.95646 0.76792 0.0
H238 H 0.49874 0.96633 0.74753 0.0
H239 H 0.50689 0.93069 0.74773 0.0
C240 C 0.4311 0.92761 0.70689 0.0
C241 C 0.42652 0.89881 0.70178 0.0
C242 C 0.4421 0.93758 0.73263 0.0
C243 C 0.44868 0.91894 0.75371 0.0
C244 C 0.44422 0.89021 0.7487 0.0
H245 H 0.53972 0.94492 0.91079 0.0
H246 H 0.52218 0.9302 0.86435 0.0
C247 C 0.43339 0.88021 0.7229 0.0
C248 C 0.45937 0.92941 0.78132 0.0
H249 H 0.51652 0.96509 0.81453 0.0
C250 C 0.44185 0.92417 0.80444 0.0
C251 C 0.48665 0.94422 0.78491 0.0
C252 C 0.50656 0.94966 0.7608 0.0
C253 C 0.45086 0.93355 0.83115 0.0
C254 C 0.478 0.94865 0.8347 0.0
C255 C 0.49562 0.9537 0.81161 0.0
C256 C 0.4889 0.9584 0.86247 0.0
C257 C 0.43156 0.92686 0.8555 0.0
C258 C 0.47618 0.97943 0.87657 0.0
C259 C 0.48621 0.98803 0.90313 0.0
C260 C 0.50908 0.97563 0.91604 0.0
C261 C 0.52198 0.95482 0.90157 0.0
C262 C 0.51206 0.9464 0.87499 0.0
H263 H 0.41365 0.91095 0.85008 0.0
H264 H 0.44396 0.91919 0.87341 0.0
H265 H 0.42227 0.94606 0.86226 0.0
H266 H 0.45845 0.98912 0.86706 0.0
H267 H 0.47582 0.00413 0.91365 0.0
H268 H 0.5624 0.40698 0.83909 0.0
H269 H 0.54752 0.41648 0.79096 0.0
H270 H 0.61286 0.48537 0.78745 0.0
H271 H 0.62765 0.47598 0.83565 0.0
H272 H 0.55702 0.49596 0.76423 0.0
H273 H 0.59756 0.39921 0.7237 0.0
H274 H 0.5733 0.39454 0.75221 0.0
H275 H 0.60782 0.4134 0.75763 0.0
C276 C 0.57317 0.42443 0.82812 0.0
C277 C 0.59578 0.44109 0.84106 0.0
C278 C 0.56486 0.42969 0.80067 0.0
C279 C 0.57928 0.45147 0.78567 0.0
C280 C 0.60146 0.46851 0.79876 0.0
H281 H 0.57243 0.51459 0.61703 0.0
H282 H 0.5815 0.50767 0.6667 0.0
C283 C 0.60982 0.46321 0.82621 0.0
C284 C 0.5719 0.4559 0.75602 0.0
H285 H 0.573 0.42604 0.69164 0.0
C286 C 0.56049 0.48073 0.7483 0.0
C287 C 0.57651 0.43593 0.73541 0.0
C288 C 0.58968 0.40935 0.74249 0.0
C289 C 0.55317 0.48598 0.72042 0.0
C290 C 0.55797 0.46608 0.69976 0.0
C291 C 0.56928 0.44121 0.70755 0.0
C292 C 0.55185 0.47074 0.66983 0.0
C293 C 0.53991 0.51252 0.71342 0.0
C294 C 0.53268 0.45189 0.65498 0.0
C295 C 0.52763 0.45559 0.6265 0.0
C296 C 0.54178 0.47821 0.61231 0.0
C297 C 0.56103 0.49704 0.6273 0.0
C298 C 0.56611 0.49325 0.65576 0.0
H299 H 0.53039 0.52154 0.732 0.0
H300 H 0.55674 0.5281 0.70559 0.0
H301 H 0.52299 0.50891 0.69694 0.0
H302 H 0.52161 0.43427 0.66544 0.0
H303 H 0.51269 0.44068 0.61563 0.0
H304 H 0.96522 0.64995 0.30122 0.0
H305 H 0.98596 0.62682 0.2619 0.0
H306 H 0.92857 0.55323 0.27591 0.0
H307 H 0.90747 0.57655 0.315 0.0
H308 H 0.01228 0.57645 0.25813 0.0
H309 H 0.91154 0.57355 0.19453 0.0
H310 H 0.9174 0.59458 0.22557 0.0
H311 H 0.90791 0.55775 0.2283 0.0
C312 C 0.95711 0.62883 0.29586 0.0
C313 C 0.93438 0.61515 0.31059 0.0
C314 C 0.96901 0.61563 0.27353 0.0
C315 C 0.9584 0.58854 0.2657 0.0
C316 C 0.93661 0.57437 0.28127 0.0
H317 H 0.99189 0.48894 0.12069 0.0
H318 H 0.97664 0.50411 0.1662 0.0
C319 C 0.92466 0.5876 0.30355 0.0
C320 C 0.96952 0.57556 0.24066 0.0
H321 H 0.94993 0.55214 0.17532 0.0
C322 C 0.99867 0.57105 0.24002 0.0
C323 C 0.95167 0.5686 0.2171 0.0
C324 C 0.92044 0.57405 0.21617 0.0
C325 C 0.01047 0.55963 0.21642 0.0
C326 C 0.99269 0.553 0.19276 0.0
C327 C 0.96347 0.55716 0.19356 0.0
C328 C 0.00401 0.54274 0.16646 0.0
C329 C 0.04177 0.55454 0.21709 0.0
C330 C 0.02452 0.55942 0.15157 0.0
C331 C 0.0333 0.55084 0.12554 0.0
C332 C 0.02155 0.52549 0.1138 0.0
C333 C 0.00139 0.50859 0.12906 0.0
C334 C 0.99264 0.5172 0.15509 0.0
H335 H 0.05023 0.55322 0.23879 0.0
H336 H 0.04532 0.53503 0.2059 0.0
H337 H 0.05428 0.57207 0.20666 0.0
H338 H 0.03311 0.57948 0.1597 0.0
H339 H 0.04879 0.56443 0.11436 0.0
H340 H 0.24454 0.13603 0.09198 0.0
H341 H 0.29024 0.11925 0.07834 0.0
H342 H 0.26264 0.0378 0.11017 0.0
H343 H 0.217 0.05453 0.12388 0.0
H344 H 0.33129 0.09398 0.11435 0.0
H345 H 0.28743 0.02436 0.02832 0.0
H346 H 0.26808 0.05184 0.04218 0.0
H347 H 0.26975 0.01996 0.06117 0.0
C348 C 0.24831 0.11455 0.09596 0.0
C349 C 0.22732 0.09651 0.10879 0.0
C350 C 0.27432 0.10502 0.08824 0.0
C351 C 0.27962 0.07724 0.09299 0.0
C352 C 0.25875 0.05921 0.10597 0.0
H353 H 0.44397 0.00633 0.08604 0.0
H354 H 0.39746 0.02033 0.10019 0.0
C355 C 0.23279 0.06878 0.11385 0.0
C356 C 0.30719 0.06725 0.0847 0.0
H357 H 0.33661 0.02322 0.04 0.0
C358 C 0.3325 0.07849 0.09813 0.0
C359 C 0.30861 0.04722 0.06338 0.0
C360 C 0.2821 0.03522 0.0477 0.0
C361 C 0.35929 0.07003 0.09093 0.0
C362 C 0.36068 0.0497 0.06988 0.0
C363 C 0.33538 0.03863 0.05629 0.0
C364 C 0.38836 0.04032 0.06109 0.0
C365 C 0.38596 0.08329 0.10547 0.0
C366 C 0.39827 0.04636 0.03421 0.0
C367 C 0.4248 0.0384 0.02603 0.0
C368 C 0.44185 0.02403 0.04453 0.0
C369 C 0.43147 0.01743 0.07128 0.0
C370 C 0.40497 0.02552 0.07947 0.0
H371 H 0.38179 0.10243 0.11702 0.0
H372 H 0.39396 0.06829 0.12062 0.0
H373 H 0.40314 0.08866 0.09026 0.0
H374 H 0.38567 0.05766 0.0197 0.0
H375 H 0.43203 0.04374 0.00525 0.0
H376 H 0.36688 0.94489 0.63573 0.0
H377 H 0.32327 0.96452 0.61923 0.0
H378 H 0.28567 0.88236 0.59716 0.0
H379 H 0.32893 0.86242 0.6141 0.0
H380 H 0.27948 0.9258 0.55551 0.0
H381 H 0.24579 0.95393 0.6616 0.0
H382 H 0.28187 0.966 0.65252 0.0
H383 H 0.27193 0.92935 0.65584 0.0
C384 C 0.34928 0.93096 0.62752 0.0
C385 C 0.35132 0.90205 0.62643 0.0
C386 C 0.32444 0.94223 0.61803 0.0
C387 C 0.30122 0.92483 0.60728 0.0
C388 C 0.30342 0.8961 0.60541 0.0
H389 H 0.12352 0.95065 0.58314 0.0
H390 H 0.17003 0.93509 0.59624 0.0
C391 C 0.32821 0.88478 0.61498 0.0
C392 C 0.27433 0.93646 0.59855 0.0
H393 H 0.21726 0.96719 0.62369 0.0
C394 C 0.26589 0.93496 0.57034 0.0
C395 C 0.25661 0.94813 0.61807 0.0
C396 C 0.26427 0.94934 0.64876 0.0
C397 C 0.24011 0.94492 0.5611 0.0
C398 C 0.22252 0.9568 0.5806 0.0
C399 C 0.23096 0.95826 0.6088 0.0
C400 C 0.19456 0.96659 0.5724 0.0
C401 C 0.23148 0.94206 0.53071 0.0
C402 C 0.19302 0.98968 0.55484 0.0
C403 C 0.1664 0.99874 0.54732 0.0
C404 C 0.1409 0.98483 0.55725 0.0
C405 C 0.14267 0.96182 0.57501 0.0
C406 C 0.16924 0.95289 0.58258 0.0
H407 H 0.24467 0.92785 0.51945 0.0
H408 H 0.20855 0.93412 0.5284 0.0
H409 H 0.23428 0.96281 0.52066 0.0
H410 H 0.2124 0.00075 0.54709 0.0
H411 H 0.16584 0.01656 0.53367 0.0
H412 H 0.69892 0.44603 0.93373 0.0
H413 H 0.74831 0.46057 0.94887 0.0
H414 H 0.76867 0.37525 0.94572 0.0
H415 H 0.71987 0.36069 0.92965 0.0
H416 H 0.78064 0.44422 0.99545 0.0
H417 H 0.82842 0.41624 0.89549 0.0
H418 H 0.79048 0.41888 0.89907 0.0
H419 H 0.80625 0.38832 0.91103 0.0
C420 C 0.71397 0.4304 0.93613 0.0
C421 C 0.70548 0.40222 0.9304 0.0
C422 C 0.74208 0.43871 0.94496 0.0
C423 C 0.76216 0.41901 0.94803 0.0
C424 C 0.75357 0.39081 0.94307 0.0
H425 H 0.93138 0.4411 0.02805 0.0
H426 H 0.88087 0.42734 0.01675 0.0
C427 C 0.72556 0.3825 0.9342 0.0
C428 C 0.79227 0.42793 0.95591 0.0
H429 H 0.86079 0.42861 0.93298 0.0
C430 C 0.7982 0.4409 0.98182 0.0
C431 C 0.81503 0.42383 0.93788 0.0
C432 C 0.8098 0.4113 0.9092 0.0
C433 C 0.82645 0.44958 0.99036 0.0
C434 C 0.84926 0.44473 0.97265 0.0
C435 C 0.84325 0.43204 0.94662 0.0
C436 C 0.87954 0.45344 0.98017 0.0
C437 C 0.83159 0.46432 0.01798 0.0
C438 C 0.89563 0.47222 0.96304 0.0
C439 C 0.92447 0.47989 0.96924 0.0
C440 C 0.93788 0.46888 0.99272 0.0
C441 C 0.92169 0.45006 0.0099 0.0
C442 C 0.89278 0.44232 0.00359 0.0
H443 H 0.81177 0.47248 0.02571 0.0
H444 H 0.83885 0.44945 0.03365 0.0
H445 H 0.84853 0.48188 0.01635 0.0
H446 H 0.88582 0.48095 0.94481 0.0
H447 H 0.93623 0.49446 0.95556 0.0
H448 H 0.83406 0.6071 0.38752 0.0
H449 H 0.78806 0.58693 0.40501 0.0
H450 H 0.82111 0.59531 0.48934 0.0
H451 H 0.86746 0.61525 0.47199 0.0
H452 H 0.78863 0.54121 0.47384 0.0
H453 H 0.73206 0.63464 0.44819 0.0
H454 H 0.75259 0.62168 0.42055 0.0
H455 H 0.77064 0.63577 0.45147 0.0
C456 C 0.83169 0.60431 0.40977 0.0
C457 C 0.85436 0.61279 0.4284 0.0
C458 C 0.80534 0.59301 0.41971 0.0
C459 C 0.8012 0.58995 0.44843 0.0
C460 C 0.82394 0.59767 0.4671 0.0
H461 H 0.63383 0.55739 0.52425 0.0
H462 H 0.68332 0.57512 0.51484 0.0
C463 C 0.85029 0.60915 0.45717 0.0
C464 C 0.77288 0.57913 0.45887 0.0
H465 H 0.70324 0.59417 0.46193 0.0
C466 C 0.76996 0.5528 0.47144 0.0
C467 C 0.74873 0.59451 0.45596 0.0
C468 C 0.75104 0.62333 0.44352 0.0
C469 C 0.74318 0.54105 0.48041 0.0
C470 C 0.71882 0.55602 0.47652 0.0
C471 C 0.72196 0.58271 0.46475 0.0
C472 C 0.68966 0.54406 0.48362 0.0
C473 C 0.74111 0.51276 0.49396 0.0
C474 C 0.6769 0.52075 0.46912 0.0
C475 C 0.64862 0.51063 0.47432 0.0
C476 C 0.63253 0.52368 0.49412 0.0
C477 C 0.6456 0.54679 0.50893 0.0
C478 C 0.67386 0.55698 0.50359 0.0
H479 H 0.76235 0.50723 0.50173 0.0
H480 H 0.72607 0.51192 0.5116 0.0
H481 H 0.73282 0.49683 0.47841 0.0
H482 H 0.68859 0.51079 0.45328 0.0
H483 H 0.63926 0.49282 0.46251 0.0
H484 H 0.0949 0.18861 0.15206 0.0
H485 H 0.07601 0.23015 0.13224 0.0
H486 H 0.16074 0.2602 0.10621 0.0
H487 H 0.18007 0.21933 0.12673 0.0
H488 H 0.09832 0.29044 0.14539 0.0
H489 H 0.10507 0.25872 0.03445 0.0
H490 H 0.10328 0.23389 0.06269 0.0
H491 H 0.1361 0.25491 0.05635 0.0
C492 C 0.10962 0.20418 0.14243 0.0
C493 C 0.13905 0.20051 0.14095 0.0
C494 C 0.09873 0.2278 0.13096 0.0
C495 C 0.11696 0.248 0.11755 0.0
C496 C 0.14629 0.24459 0.11616 0.0
H497 H 0.10607 0.40113 0.0289 0.0
H498 H 0.11832 0.35721 0.04893 0.0
C499 C 0.15725 0.22113 0.12779 0.0
C500 C 0.10552 0.27292 0.10521 0.0
H501 H 0.09373 0.30468 0.04309 0.0
C502 C 0.09703 0.29355 0.12303 0.0
C503 C 0.10406 0.2768 0.07608 0.0
C504 C 0.1124 0.25488 0.05614 0.0
C505 C 0.08798 0.31852 0.11246 0.0
C506 C 0.08668 0.32255 0.08324 0.0
C507 C 0.09469 0.30158 0.06545 0.0
C508 C 0.07844 0.34888 0.07067 0.0
C509 C 0.08104 0.34077 0.13272 0.0
C510 C 0.05168 0.35862 0.0758 0.0
C511 C 0.04465 0.38394 0.06453 0.0
C512 C 0.06411 0.3998 0.04759 0.0
C513 C 0.09053 0.38952 0.04185 0.0
C514 C 0.09761 0.36437 0.05329 0.0
H515 H 0.09021 0.33741 0.15384 0.0
H516 H 0.08931 0.36177 0.12541 0.0
H517 H 0.05743 0.34033 0.13453 0.0
H518 H 0.03623 0.34667 0.08856 0.0
H519 H 0.02402 0.39111 0.06919 0.0
H520 H 0.61125 0.31724 0.88195 0.0
H521 H 0.5932 0.26981 0.89459 0.0
H522 H 0.6113 0.28884 0.9813 0.0
H523 H 0.62873 0.33653 0.96891 0.0
H524 H 0.62673 0.23253 0.92159 0.0
H525 H 0.52986 0.24889 0.982 0.0
H526 H 0.54639 0.27497 0.95896 0.0
H527 H 0.56151 0.27016 0.99313 0.0
C528 C 0.61071 0.31154 0.90377 0.0
C529 C 0.62138 0.3306 0.92446 0.0
C530 C 0.60057 0.2844 0.91092 0.0
C531 C 0.6007 0.27594 0.93887 0.0
C532 C 0.6106 0.29511 0.95965 0.0
H533 H 0.60682 0.11103 0.00644 0.0
H534 H 0.61615 0.15951 0.99193 0.0
C535 C 0.6208 0.32224 0.95252 0.0
C536 C 0.59274 0.24649 0.94607 0.0
H537 H 0.54716 0.20396 0.98514 0.0
C538 C 0.6092 0.22623 0.93531 0.0
C539 C 0.56974 0.23839 0.96381 0.0
C540 C 0.55066 0.25918 0.97497 0.0
C541 C 0.60371 0.19809 0.94237 0.0
C542 C 0.5814 0.19013 0.96093 0.0
C543 C 0.56444 0.21025 0.97113 0.0
C544 C 0.57549 0.16096 0.97008 0.0
C545 C 0.62172 0.17708 0.92983 0.0
C546 C 0.54929 0.14598 0.96305 0.0
C547 C 0.54383 0.11828 0.97132 0.0
C548 C 0.56444 0.10514 0.98697 0.0
C549 C 0.59053 0.12043 0.9943 0.0
C550 C 0.59597 0.1481 0.98595 0.0
H551 H 0.63306 0.18541 0.91107 0.0
H552 H 0.63809 0.17164 0.94542 0.0
H553 H 0.60832 0.1577 0.92398 0.0
H554 H 0.53319 0.15565 0.9509 0.0
H555 H 0.52347 0.10719 0.96541 0.0
H556 H 0.97558 0.68351 0.42893 0.0
H557 H 0.99505 0.72934 0.44617 0.0
H558 H 0.90927 0.7541 0.45274 0.0
H559 H 0.8897 0.70847 0.43558 0.0
H560 H 0.98882 0.78038 0.42251 0.0
H561 H 0.94441 0.77588 0.52872 0.0
H562 H 0.94532 0.74535 0.5071 0.0
H563 H 0.91759 0.76839 0.50189 0.0
C564 C 0.96089 0.6987 0.43418 0.0
C565 C 0.9311 0.69231 0.43109 0.0
C566 C 0.97202 0.72481 0.44409 0.0
C567 C 0.95358 0.74495 0.45115 0.0
C568 C 0.92386 0.73862 0.44811 0.0
H569 H 0.98912 0.92359 0.46029 0.0
H570 H 0.97465 0.8754 0.44688 0.0
C571 C 0.91271 0.71253 0.4383 0.0
C572 C 0.96538 0.77308 0.46036 0.0
H573 H 0.96283 0.82073 0.51262 0.0
C574 C 0.98335 0.78914 0.44231 0.0
C575 C 0.95849 0.78432 0.48634 0.0
C576 C 0.94063 0.7675 0.50726 0.0
C577 C 0.99399 0.81647 0.44922 0.0
C578 C 0.98596 0.82817 0.4746 0.0
C579 C 0.96867 0.81182 0.49301 0.0
C580 C 0.99515 0.85738 0.48246 0.0
C581 C 0.01388 0.83247 0.42936 0.0
C582 C 0.0109 0.86325 0.50724 0.0
C583 C 0.019 0.89077 0.51511 0.0
C584 C 0.01139 0.913 0.49837 0.0
C585 C 0.99552 0.90701 0.47357 0.0
C586 C 0.98736 0.87946 0.46577 0.0
H587 H 0.02423 0.81832 0.41523 0.0
H588 H 0.0014 0.8462 0.41629 0.0
H589 H 0.03087 0.84569 0.44082 0.0
H590 H 0.01699 0.8465 0.52048 0.0
H591 H 0.03118 0.89459 0.53436 0.0
H592 H 0.48623 0.80704 0.62134 0.0
H593 H 0.49698 0.76089 0.60529 0.0
H594 H 0.42573 0.75887 0.54676 0.0
H595 H 0.41525 0.80523 0.56254 0.0
H596 H 0.4618 0.71137 0.60618 0.0
H597 H 0.49161 0.73958 0.49771 0.0
H598 H 0.48912 0.76534 0.52464 0.0
H599 H 0.45718 0.74936 0.50776 0.0
C600 C 0.47315 0.79682 0.60481 0.0
C601 C 0.45038 0.80983 0.59264 0.0
C602 C 0.47921 0.77049 0.59573 0.0
C603 C 0.46252 0.75671 0.57443 0.0
C604 C 0.43935 0.76945 0.56268 0.0
H605 H 0.46581 0.59284 0.49827 0.0
H606 H 0.45383 0.63939 0.51142 0.0
C607 C 0.43332 0.79581 0.57174 0.0
C608 C 0.46881 0.72859 0.56525 0.0
H609 H 0.48791 0.69155 0.50896 0.0
C610 C 0.46759 0.70705 0.58495 0.0
C611 C 0.47622 0.72299 0.53749 0.0
C612 C 0.47888 0.74556 0.51569 0.0
C613 C 0.4734 0.68 0.57762 0.0
C614 C 0.48108 0.67447 0.54995 0.0
C615 C 0.48201 0.6959 0.53015 0.0
C616 C 0.48882 0.64665 0.54137 0.0
C617 C 0.47088 0.65747 0.59946 0.0
C618 C 0.5128 0.63561 0.55344 0.0
C619 C 0.51973 0.60908 0.54601 0.0
C620 C 0.50286 0.59307 0.52621 0.0
C621 C 0.47921 0.60452 0.51365 0.0
C622 C 0.47233 0.63112 0.52111 0.0
H623 H 0.45778 0.66324 0.61725 0.0
H624 H 0.46113 0.63751 0.59046 0.0
H625 H 0.49259 0.65409 0.60768 0.0
H626 H 0.52614 0.6475 0.56872 0.0
H627 H 0.53819 0.60106 0.556 0.0
H628 H 0.97999 0.93408 0.86183 0.0
H629 H 0.99714 0.95402 0.81751 0.0
H630 H 0.9122 0.93709 0.78137 0.0
H631 H 0.89486 0.91863 0.82598 0.0
H632 H 0.00131 0.93206 0.76951 0.0
H633 H 0.92831 0.01468 0.75603 0.0
H634 H 0.93093 0.99583 0.78827 0.0
H635 H 0.90808 0.98166 0.76006 0.0
C636 C 0.96502 0.935 0.84443 0.0
C637 C 0.9361 0.92517 0.84726 0.0
C638 C 0.97478 0.94635 0.81915 0.0
C639 C 0.95584 0.94771 0.79618 0.0
C640 C 0.92703 0.93732 0.79897 0.0
H641 H 0.00509 0.94866 0.62428 0.0
H642 H 0.99118 0.93764 0.67199 0.0
C643 C 0.91716 0.92655 0.82438 0.0
C644 C 0.96651 0.95838 0.76886 0.0
H645 H 0.95098 0.00034 0.71439 0.0
C646 C 0.9905 0.94729 0.75766 0.0
C647 C 0.95292 0.97873 0.75352 0.0
C648 C 0.92886 0.99362 0.76527 0.0
C649 C 0.00059 0.95515 0.73122 0.0
C650 C 0.98552 0.97373 0.71494 0.0
C651 C 0.96223 0.98567 0.72657 0.0
C652 C 0.99319 0.98059 0.68566 0.0
C653 C 0.02754 0.94366 0.72131 0.0
C654 C 0.99745 0.00844 0.6769 0.0
C655 C 0.00457 0.01481 0.6493 0.0
C656 C 0.00789 0.99342 0.63006 0.0
C657 C 0.00315 0.96559 0.63874 0.0
C658 C 0.99545 0.95927 0.66612 0.0
H659 H 0.0416 0.93858 0.73915 0.0
H660 H 0.0217 0.9241 0.70953 0.0
H661 H 0.03996 0.95861 0.70756 0.0
H662 H 0.99559 0.02529 0.6915 0.0
H663 H 0.0081 0.03644 0.64319 0.0
H664 H 0.65644 0.04781 0.34678 0.0
H665 H 0.64143 0.03274 0.29957 0.0
H666 H 0.62584 0.11702 0.27856 0.0
H667 H 0.64076 0.13222 0.32564 0.0
H668 H 0.5817 0.07861 0.26167 0.0
H669 H 0.68661 0.04652 0.22823 0.0
H670 H 0.67356 0.03021 0.2597 0.0
H671 H 0.68291 0.06718 0.25909 0.0
C672 C 0.65006 0.06316 0.33201 0.0
C673 C 0.64982 0.09121 0.33993 0.0
C674 C 0.64153 0.05453 0.30505 0.0
C675 C 0.6329 0.07384 0.28545 0.0
C676 C 0.63245 0.10179 0.29336 0.0
H677 H 0.61393 0.05623 0.10644 0.0
H678 H 0.62886 0.06882 0.15421 0.0
C679 C 0.64087 0.11041 0.3203 0.0
C680 C 0.6238 0.06495 0.25681 0.0
H681 H 0.64695 0.03602 0.19736 0.0
C682 C 0.59595 0.06929 0.24759 0.0
C683 C 0.64257 0.05311 0.2384 0.0
C684 C 0.67317 0.04918 0.24669 0.0
C685 C 0.58626 0.06198 0.22048 0.0
C686 C 0.60479 0.04952 0.20229 0.0
C687 C 0.63271 0.04534 0.21144 0.0
C688 C 0.59585 0.04136 0.17342 0.0
C689 C 0.55652 0.06826 0.21137 0.0
C690 C 0.57259 0.02143 0.16839 0.0
C691 C 0.5639 0.01424 0.1411 0.0
C692 C 0.57848 0.0267 0.11829 0.0
C693 C 0.60215 0.04627 0.12347 0.0
C694 C 0.61076 0.05348 0.15077 0.0
H695 H 0.548 0.08403 0.22505 0.0
H696 H 0.55634 0.07595 0.18957 0.0
H697 H 0.54182 0.04892 0.21239 0.0
H698 H 0.56116 0.01139 0.18559 0.0
H699 H 0.54572 0.99894 0.13792 0.0
H700 H 0.46107 0.52617 0.16705 0.0
H701 H 0.46554 0.51195 0.21588 0.0
H702 H 0.54428 0.56533 0.22461 0.0
H703 H 0.53945 0.58004 0.17596 0.0
H704 H 0.50704 0.48788 0.24728 0.0
H705 H 0.49346 0.59504 0.28365 0.0
H706 H 0.48694 0.58423 0.24793 0.0
H707 H 0.52299 0.59302 0.26069 0.0
C708 C 0.47965 0.5343 0.17929 0.0
C709 C 0.50012 0.55387 0.1678 0.0
C710 C 0.48213 0.5263 0.20713 0.0
C711 C 0.50499 0.53795 0.22393 0.0
C712 C 0.52622 0.55648 0.21209 0.0
H713 H 0.55229 0.4872 0.39024 0.0
H714 H 0.54881 0.49511 0.34019 0.0
C715 C 0.52364 0.56462 0.18429 0.0
C716 C 0.5057 0.53184 0.25414 0.0
H717 H 0.5049 0.56252 0.31817 0.0
C718 C 0.50655 0.50416 0.26282 0.0
C719 C 0.50441 0.55308 0.27431 0.0
C720 C 0.50161 0.58297 0.26625 0.0
C721 C 0.50672 0.49719 0.29121 0.0
C722 C 0.50658 0.51858 0.31138 0.0
C723 C 0.50523 0.54619 0.30267 0.0
C724 C 0.50812 0.51293 0.34167 0.0
C725 C 0.50652 0.46695 0.29929 0.0
C726 C 0.48672 0.52094 0.35926 0.0
C727 C 0.48879 0.51676 0.38803 0.0
C728 C 0.51236 0.50452 0.39971 0.0
C729 C 0.53371 0.49648 0.38196 0.0
C730 C 0.53169 0.5008 0.35327 0.0
H731 H 0.49815 0.45295 0.28203 0.0
H732 H 0.52878 0.46218 0.30428 0.0
H733 H 0.49329 0.46226 0.31794 0.0
H734 H 0.46843 0.53051 0.35072 0.0
H735 H 0.47198 0.52321 0.40107 0.0
H736 H 0.13351 0.38885 0.70243 0.0
H737 H 0.12354 0.40045 0.75071 0.0
H738 H 0.06924 0.46249 0.72196 0.0
H739 H 0.0787 0.45068 0.67354 0.0
H740 H 0.13424 0.45481 0.77637 0.0
H741 H 0.01937 0.41391 0.77773 0.0
H742 H 0.04367 0.40361 0.75171 0.0
H743 H 0.02958 0.43693 0.74946 0.0
C744 C 0.11915 0.40471 0.70638 0.0
C745 C 0.10677 0.41877 0.6842 0.0
C746 C 0.11363 0.41141 0.73395 0.0
C747 C 0.09545 0.4321 0.73982 0.0
C748 C 0.08305 0.4462 0.71779 0.0
H749 H 0.03532 0.5005 0.89252 0.0
H750 H 0.04473 0.48907 0.8442 0.0
C751 C 0.08866 0.43961 0.69019 0.0
C752 C 0.09015 0.43941 0.76907 0.0
H753 H 0.03795 0.43849 0.81771 0.0
C754 C 0.11323 0.45119 0.78549 0.0
C755 C 0.06268 0.43473 0.78075 0.0
C756 C 0.03738 0.42141 0.76414 0.0
C757 C 0.10948 0.45885 0.8133 0.0
C758 C 0.08205 0.45394 0.82511 0.0
C759 C 0.05896 0.44219 0.80861 0.0
C760 C 0.07677 0.46096 0.8545 0.0
C761 C 0.13479 0.4727 0.82954 0.0
C762 C 0.09146 0.44871 0.87636 0.0
C763 C 0.08627 0.45531 0.90405 0.0
C764 C 0.06601 0.47405 0.91041 0.0
C765 C 0.05108 0.48601 0.88842 0.0
C766 C 0.05641 0.4795 0.86076 0.0
H767 H 0.15173 0.48186 0.81554 0.0
H768 H 0.12815 0.48939 0.84328 0.0
H769 H 0.14428 0.45696 0.84282 0.0
H770 H 0.10678 0.43384 0.87201 0.0
H771 H 0.09797 0.44554 0.92045 0.0
H772 H 0.8442 0.87956 0.93253 0.0
H773 H 0.80051 0.89641 0.95062 0.0
H774 H 0.83453 0.98109 0.93599 0.0
H775 H 0.87864 0.96451 0.91837 0.0
H776 H 0.79282 0.93675 0.99553 0.0
H777 H 0.7569 0.96987 0.89041 0.0
H778 H 0.78421 0.94611 0.89525 0.0
H779 H 0.79259 0.98265 0.90155 0.0
C780 C 0.84268 0.90179 0.93362 0.0
C781 C 0.86489 0.92068 0.92383 0.0
C782 C 0.81762 0.91136 0.94385 0.0
C783 C 0.81424 0.93994 0.94433 0.0
C784 C 0.83664 0.95892 0.93542 0.0
H785 H 0.66988 0.0165 0.01739 0.0
H786 H 0.71839 0.0061 0.00526 0.0
C787 C 0.86175 0.94939 0.92527 0.0
C788 C 0.78675 0.9497 0.95309 0.0
H789 H 0.7271 0.97778 0.928 0.0
C790 C 0.7785 0.94592 0.98087 0.0
C791 C 0.76812 0.96142 0.93378 0.0
C792 C 0.77566 0.96515 0.90351 0.0
C793 C 0.75189 0.95345 0.98984 0.0
C794 C 0.73325 0.96507 0.97049 0.0
C795 C 0.74161 0.96904 0.94278 0.0
C796 C 0.70414 0.97157 0.97811 0.0
C797 C 0.74348 0.94817 0.01967 0.0
C798 C 0.68019 0.95581 0.96657 0.0
C799 C 0.65255 0.96162 0.97343 0.0
C800 C 0.64828 0.98352 0.99183 0.0
C801 C 0.67239 0.99948 0.00318 0.0
C802 C 0.70011 0.99351 0.99639 0.0
H803 H 0.75844 0.93525 0.03088 0.0
H804 H 0.74354 0.96835 0.03078 0.0
H805 H 0.72145 0.93757 0.02053 0.0
H806 H 0.68292 0.93885 0.95234 0.0
H807 H 0.63454 0.94895 0.9642 0.0
H808 H 0.70311 0.08519 0.46175 0.0
H809 H 0.74873 0.07385 0.48282 0.0
H810 H 0.78957 0.08628 0.40352 0.0
H811 H 0.74429 0.09805 0.38242 0.0
H812 H 0.78464 0.03094 0.46635 0.0
H813 H 0.83937 0.13769 0.45907 0.0
H814 H 0.80088 0.1306 0.45638 0.0
H815 H 0.82277 0.12433 0.42714 0.0
C816 C 0.72186 0.08559 0.44884 0.0
C817 C 0.72014 0.09256 0.42044 0.0
C818 C 0.74782 0.07901 0.46087 0.0
C819 C 0.77253 0.07961 0.44478 0.0
C820 C 0.77079 0.08608 0.41635 0.0
H821 H 0.93394 0.01168 0.46729 0.0
H822 H 0.88574 0.0227 0.45403 0.0
C823 C 0.74484 0.09251 0.40428 0.0
C824 C 0.80019 0.07334 0.45759 0.0
H825 H 0.86866 0.10146 0.4708 0.0
C826 C 0.80297 0.04637 0.46754 0.0
C827 C 0.8239 0.09367 0.45944 0.0
C828 C 0.82165 0.12329 0.45019 0.0
C829 C 0.82924 0.0389 0.4784 0.0
C830 C 0.85329 0.05889 0.47907 0.0
C831 C 0.85021 0.08614 0.47006 0.0
C832 C 0.88213 0.05166 0.48792 0.0
C833 C 0.8311 0.00967 0.48898 0.0
C834 C 0.89626 0.06466 0.51114 0.0
C835 C 0.92393 0.05844 0.51882 0.0
C836 C 0.93806 0.03934 0.50317 0.0
C837 C 0.92375 0.02646 0.47986 0.0
C838 C 0.89609 0.03258 0.47232 0.0
H839 H 0.80961 0.99929 0.49378 0.0
H840 H 0.84064 0.99721 0.47274 0.0
H841 H 0.84498 0.00964 0.508 0.0
H842 H 0.88586 0.07961 0.52331 0.0
H843 H 0.93433 0.06881 0.53683 0.0
H844 H 0.37892 0.56698 0.1236 0.0
H845 H 0.33035 0.54974 0.1096 0.0
H846 H 0.34215 0.58892 0.02937 0.0
H847 H 0.39164 0.60427 0.04229 0.0
H848 H 0.28816 0.57911 0.09868 0.0
H849 H 0.30416 0.51565 0.00525 0.0
H850 H 0.33341 0.52803 0.02833 0.0
H851 H 0.32059 0.55047 0.00178 0.0
C852 C 0.37165 0.57116 0.1026 0.0
C853 C 0.3894 0.58702 0.08408 0.0
C854 C 0.34366 0.56153 0.09475 0.0
C855 C 0.33261 0.56777 0.06833 0.0
C856 C 0.35033 0.58326 0.04963 0.0
H857 H 0.14958 0.57123 0.03566 0.0
H858 H 0.2007 0.58314 0.04523 0.0
C859 C 0.37854 0.59246 0.05727 0.0
C860 C 0.30195 0.55991 0.06131 0.0
H861 H 0.25656 0.52843 0.01196 0.0
C862 C 0.28129 0.56779 0.07982 0.0
C863 C 0.29295 0.5449 0.03687 0.0
C864 C 0.31398 0.53402 0.01709 0.0
C865 C 0.25191 0.56131 0.07452 0.0
C866 C 0.24286 0.54754 0.0494 0.0
C867 C 0.2635 0.53936 0.03101 0.0
C868 C 0.21209 0.54073 0.04218 0.0
C869 C 0.23103 0.5687 0.09629 0.0
C870 C 0.2017 0.51316 0.03599 0.0
C871 C 0.17266 0.50643 0.02984 0.0
C872 C 0.15338 0.52712 0.03004 0.0
C873 C 0.16387 0.5548 0.03575 0.0
C874 C 0.19304 0.56159 0.04139 0.0
H875 H 0.24145 0.57093 0.11727 0.0
H876 H 0.22288 0.58894 0.09088 0.0
H877 H 0.2125 0.55268 0.09746 0.0
H878 H 0.21601 0.49674 0.03635 0.0
H879 H 0.16521 0.48491 0.02554 0.0
H880 H 0.19097 0.42615 0.6102 0.0
H881 H 0.23807 0.41675 0.59288 0.0
H882 H 0.23171 0.47954 0.52966 0.0
H883 H 0.18429 0.48826 0.54628 0.0
H884 H 0.25806 0.43409 0.51064 0.0
H885 H 0.30574 0.47283 0.61199 0.0
H886 H 0.2796 0.44336 0.61445 0.0
H887 H 0.26883 0.47617 0.60234 0.0
C888 C 0.19937 0.43738 0.59216 0.0
C889 C 0.18419 0.45805 0.57967 0.0
C890 C 0.22633 0.4322 0.58245 0.0
C891 C 0.23867 0.44794 0.56042 0.0
C892 C 0.22267 0.46728 0.54679 0.0
H893 H 0.40173 0.49357 0.48857 0.0
H894 H 0.35086 0.4839 0.4984 0.0
C895 C 0.19563 0.47228 0.55631 0.0
C896 C 0.26902 0.44615 0.553 0.0
H897 H 0.33751 0.4593 0.57843 0.0
C898 C 0.27545 0.43938 0.5255 0.0
C899 C 0.29169 0.45322 0.5724 0.0
C900 C 0.28626 0.46205 0.60188 0.0
C901 C 0.30396 0.43972 0.51683 0.0
C902 C 0.32653 0.44733 0.53611 0.0
C903 C 0.32012 0.45335 0.56375 0.0
C904 C 0.35696 0.45092 0.52786 0.0
C905 C 0.30969 0.43205 0.48713 0.0
C906 C 0.37731 0.4357 0.54129 0.0
C907 C 0.40647 0.44128 0.53585 0.0
C908 C 0.41587 0.46241 0.51705 0.0
C909 C 0.3953 0.47715 0.50313 0.0
C910 C 0.36615 0.47149 0.50855 0.0
H911 H 0.29113 0.41926 0.47752 0.0
H912 H 0.31354 0.45135 0.47467 0.0
H913 H 0.32899 0.42037 0.48594 0.0
H914 H 0.37066 0.41988 0.55643 0.0
H915 H 0.42167 0.4295 0.54695 0.0
H916 H 0.98311 0.82193 0.91132 0.0
H917 H 0.00696 0.78186 0.92871 0.0
H918 H 0.92483 0.74051 0.95028 0.0
H919 H 0.90113 0.78065 0.93357 0.0
H920 H 0.9665 0.73436 0.99067 0.0
H921 H 0.00467 0.70892 0.88556 0.0
H922 H 0.01627 0.74334 0.89791 0.0
H923 H 0.97883 0.73385 0.89085 0.0
C924 C 0.97031 0.80442 0.92021 0.0
C925 C 0.94037 0.80441 0.92134 0.0
C926 C 0.98387 0.78149 0.92989 0.0
C927 C 0.96761 0.75803 0.94041 0.0
C928 C 0.93778 0.75837 0.94224 0.0
H929 H 0.99741 0.58649 0.95017 0.0
H930 H 0.98433 0.63303 0.93898 0.0
C931 C 0.92427 0.7813 0.9327 0.0
C932 C 0.98126 0.7326 0.94859 0.0
H933 H 0.01705 0.68001 0.92255 0.0
C934 C 0.97777 0.72256 0.97587 0.0
C935 C 0.99565 0.71711 0.92911 0.0
C936 C 0.99893 0.72614 0.89915 0.0
C937 C 0.9878 0.69718 0.98409 0.0
C938 C 0.0022 0.68171 0.96461 0.0
C939 C 0.00619 0.69203 0.93749 0.0
C940 C 0.01131 0.65374 0.97122 0.0
C941 C 0.9818 0.68661 0.01317 0.0
C942 C 0.03123 0.64995 0.9928 0.0
C943 C 0.03868 0.62324 0.9994 0.0
C944 C 0.02653 0.59987 0.98435 0.0
C945 C 0.00718 0.60394 0.96226 0.0
C946 C 0.99967 0.63057 0.95578 0.0
H947 H 0.96509 0.6978 0.02334 0.0
H948 H 0.97471 0.66401 0.01289 0.0
H949 H 0.00173 0.68976 0.0261 0.0
H950 H 0.04093 0.66761 0.00461 0.0
H951 H 0.0538 0.6209 0.01641 0.0
H952 H 0.50815 0.66301 0.08367 0.0
H953 H 0.52256 0.71212 0.07379 0.0
H954 H 0.43516 0.7314 0.083 0.0
H955 H 0.42066 0.68264 0.0932 0.0
H956 H 0.46217 0.75404 0.03467 0.0
H957 H 0.52788 0.77684 0.13112 0.0
H958 H 0.53677 0.74736 0.1112 0.0
H959 H 0.50255 0.74645 0.12753 0.0
C960 C 0.49207 0.67777 0.08375 0.0
C961 C 0.46326 0.66893 0.08909 0.0
C962 C 0.50033 0.70576 0.07814 0.0
C963 C 0.47994 0.72533 0.07796 0.0
C964 C 0.45118 0.71656 0.08304 0.0
H965 H 0.50093 0.90545 0.08123 0.0
H966 H 0.48948 0.85596 0.09126 0.0
C967 C 0.44292 0.68865 0.08867 0.0
C968 C 0.48832 0.75499 0.0721 0.0
H969 H 0.52772 0.81282 0.09759 0.0
C970 C 0.47654 0.76691 0.04837 0.0
C971 C 0.50679 0.7717 0.09026 0.0
C972 C 0.5191 0.7601 0.1166 0.0
C973 C 0.48289 0.79517 0.04217 0.0
C974 C 0.50177 0.81176 0.06004 0.0
C975 C 0.5134 0.79991 0.08389 0.0
C976 C 0.50947 0.84157 0.05436 0.0
C977 C 0.46895 0.80717 0.01684 0.0
C978 C 0.52487 0.8497 0.03055 0.0
C979 C 0.53143 0.87786 0.02473 0.0
C980 C 0.52278 0.89845 0.04272 0.0
C981 C 0.50781 0.89016 0.06689 0.0
C982 C 0.50129 0.86193 0.07269 0.0
H983 H 0.45016 0.79341 0.00906 0.0
H984 H 0.46187 0.82798 0.02155 0.0
H985 H 0.48475 0.80966 -0.00011 0.0
H986 H 0.53175 0.83423 0.0164 0.0
H987 H 0.54313 0.88346 0.00602 0.0
H988 H 0.15689 0.34954 0.58748 0.0
H989 H 0.15023 0.30066 0.57218 0.0
H990 H 0.06957 0.29031 0.6144 0.0
H991 H 0.07577 0.33888 0.62927 0.0
H992 H 0.14135 0.25156 0.60747 0.0
H993 H 0.0502 0.26233 0.53397 0.0
H994 H 0.07388 0.29174 0.546 0.0
H995 H 0.04569 0.27699 0.56783 0.0
C996 C 0.13767 0.33684 0.59328 0.0
C997 C 0.11691 0.348 0.60966 0.0
C998 C 0.13396 0.30897 0.58465 0.0
C999 C 0.10926 0.29205 0.59192 0.0
C1000 C 0.0886 0.30314 0.60827 0.0
H1001 H 0.03265 0.12464 0.57712 0.0
H1002 H 0.04606 0.17388 0.5868 0.0
C1003 C 0.09233 0.33082 0.61699 0.0
C1004 C 0.10502 0.26253 0.58312 0.0
H1005 H 0.05844 0.21613 0.54756 0.0
C1006 C 0.12349 0.24378 0.59407 0.0
C1007 C 0.08165 0.25255 0.56568 0.0
C1008 C 0.06184 0.27196 0.55246 0.0
C1009 C 0.11843 0.21504 0.58899 0.0
C1010 C 0.09456 0.20499 0.57217 0.0
C1011 C 0.07661 0.22388 0.56059 0.0
C1012 C 0.08721 0.17488 0.56696 0.0
C1013 C 0.13796 0.19559 0.60258 0.0
C1014 C 0.10589 0.15915 0.55253 0.0
C1015 C 0.09833 0.13094 0.547 0.0
C1016 C 0.07183 0.11798 0.55566 0.0
C1017 C 0.05322 0.13387 0.57018 0.0
C1018 C 0.06083 0.16205 0.5757 0.0
H1019 H 0.1512 0.20591 0.61974 0.0
H1020 H 0.12539 0.17695 0.61105 0.0
H1021 H 0.15266 0.18845 0.58679 0.0
H1022 H 0.12613 0.16878 0.54515 0.0
H1023 H 0.11313 0.11939 0.53564 0.0
H1024 H 0.58059 0.17295 0.40891 0.0
H1025 H 0.56529 0.21879 0.42063 0.0
H1026 H 0.60905 0.21605 0.50039 0.0
H1027 H 0.62483 0.17047 0.48843 0.0
H1028 H 0.53347 0.23716 0.46437 0.0
H1029 H 0.64463 0.28829 0.46617 0.0
H1030 H 0.6357 0.25377 0.45226 0.0
H1031 H 0.63911 0.25913 0.48929 0.0
C1032 C 0.58656 0.18206 0.42906 0.0
C1033 C 0.60355 0.16819 0.44792 0.0
C1034 C 0.57789 0.20817 0.43573 0.0
C1035 C 0.58632 0.22092 0.46124 0.0
C1036 C 0.60268 0.20674 0.48042 0.0
H1037 H 0.52084 0.37167 0.52646 0.0
H1038 H 0.53159 0.32356 0.51897 0.0
C1039 C 0.61147 0.18067 0.4737 0.0
C1040 C 0.57877 0.24944 0.46727 0.0
H1041 H 0.60801 0.31581 0.47973 0.0
C1042 C 0.54972 0.25438 0.46779 0.0
C1043 C 0.60007 0.2719 0.47131 0.0
C1044 C 0.63163 0.26817 0.4695 0.0
C1045 C 0.54137 0.28122 0.47235 0.0
C1046 C 0.56269 0.30356 0.47697 0.0
C1047 C 0.59172 0.29859 0.4764 0.0
C1048 C 0.55549 0.3325 0.4814 0.0
C1049 C 0.50987 0.28555 0.47142 0.0
C1050 C 0.56584 0.35356 0.46309 0.0
C1051 C 0.56001 0.38107 0.46745 0.0
C1052 C 0.54371 0.38813 0.49027 0.0
C1053 C 0.5333 0.36695 0.50858 0.0
C1054 C 0.53928 0.3394 0.50425 0.0
H1055 H 0.49694 0.26801 0.46084 0.0
H1056 H 0.50211 0.28698 0.49302 0.0
H1057 H 0.50607 0.30518 0.46046 0.0
H1058 H 0.57847 0.34869 0.44536 0.0
H1059 H 0.56835 0.39681 0.4529 0.0
loop_
_geom_bond_atom_site_label_1
_geom_bond_atom_site_label_2
_geom_bond_distance
_geom_bond_site_symmetry_2
_ccdc_geom_bond_type
H0 C7 0.929 . S
H1 C10 0.930 . S
H2 C12 0.929 . S
H3 C4 0.969 . S
C4 H3 0.969 . S
C4 O5 1.550 . S
C4 H6 0.973 . S
O5 C4 1.550 . S
O5 C11 1.412 . S
H6 C4 0.973 . S
C7 H0 0.929 . S
C7 C8 1.400 . S
C7 C9 1.364 . S
C8 C7 1.400 . S
C8 C12 1.377 . S
C9 C7 1.364 . S
C9 C10 1.374 . S
C10 H1 0.930 . S
C10 C9 1.374 . S
C10 C11 1.383 . S
C11 O5 1.412 . S
C11 C10 1.383 . S
C11 C12 1.394 . S
C12 H2 0.929 . S
C12 C8 1.377 . S
C12 C11 1.394 . S
H13 C20 0.929 . S
H14 C23 0.930 . S
H15 C25 0.929 . S
H16 C17 0.969 . S
C17 H16 0.969 . S
C17 O18 1.550 . S
C17 H19 0.973 . S
O18 C17 1.550 . S
O18 C24 1.412 . S
H19 C17 0.973 . S
C20 H13 0.929 . S
C20 C21 1.400 . S
C20 C22 1.364 . S
C21 C20 1.400 . S
C21 C25 1.377 . S
C22 C20 1.364 . S
C22 C23 1.374 . S
C23 H14 0.930 . S
C23 C22 1.374 . S
C23 C24 1.383 . S
C24 O18 1.412 . S
C24 C23 1.383 . S
C24 C25 1.394 . S
C25 H15 0.929 . S
C25 C21 1.377 . S
C25 C24 1.394 . S
H26 C33 0.929 . S
H27 C36 0.930 . S
H28 C38 0.929 . S
H29 C30 0.969 . S
C30 H29 0.969 . S
C30 O31 1.550 . S
C30 H32 0.973 . S
O31 C30 1.550 . S
O31 C37 1.412 . S
H32 C30 0.973 . S
C33 H26 0.929 . S
C33 C34 1.400 . S
C33 C35 1.364 . S
C34 C33 1.400 . S
C34 C38 1.377 . S
C35 C33 1.364 . S
C35 C36 1.374 . S
C36 H27 0.930 . S
C36 C35 1.374 . S
C36 C37 1.383 . S
C37 O31 1.412 . S
C37 C36 1.383 . S
C37 C38 1.394 . S
C38 H28 0.929 . S
C38 C34 1.377 . S
C38 C37 1.394 . S
H39 C46 0.929 . S
H40 C49 0.930 . S
H41 C51 0.929 . S
H42 C43 0.969 . S
C43 H42 0.969 . S
C43 O44 1.550 . S
C43 H45 0.973 . S
O44 C43 1.550 . S
O44 C50 1.412 . S
H45 C43 0.973 . S
C46 H39 0.929 . S
C46 C47 1.400 . S
C46 C48 1.364 . S
C47 C46 1.400 . S
C47 C51 1.377 . S
C48 C46 1.364 . S
C48 C49 1.374 . S
C49 H40 0.930 . S
C49 C48 1.374 . S
C49 C50 1.383 . S
C50 O44 1.412 . S
C50 C49 1.383 . S
C50 C51 1.394 . S
C51 H41 0.929 . S
C51 C47 1.377 . S
C51 C50 1.394 . S
H52 C59 0.929 . S
H53 C62 0.930 . S
H54 C64 0.929 . S
H55 C56 0.969 . S
C56 H55 0.969 . S
C56 O57 1.550 . S
C56 H58 0.973 . S
O57 C56 1.550 . S
O57 C63 1.412 . S
H58 C56 0.973 . S
C59 H52 0.929 . S
C59 C60 1.400 . S
C59 C61 1.364 . S
C60 C59 1.400 . S
C60 C64 1.377 . S
C61 C59 1.364 . S
C61 C62 1.374 . S
C62 H53 0.930 . S
C62 C61 1.374 . S
C62 C63 1.383 . S
C63 O57 1.412 . S
C63 C62 1.383 . S
C63 C64 1.394 . S
C64 H54 0.929 . S
C64 C60 1.377 . S
C64 C63 1.394 . S
H65 C72 0.929 . S
H66 C75 0.930 . S
H67 C77 0.929 . S
H68 C69 0.969 . S
C69 H68 0.969 . S
C69 O70 1.550 . S
C69 H71 0.973 . S
O70 C69 1.550 . S
O70 C76 1.412 . S
H71 C69 0.973 . S
C72 H65 0.929 . S
C72 C73 1.400 . S
C72 C74 1.364 . S
C73 C72 1.400 . S
C73 C77 1.377 . S
C74 C72 1.364 . S
C74 C75 1.374 . S
C75 H66 0.930 . S
C75 C74 1.374 . S
C75 C76 1.383 . S
C76 O70 1.412 . S
C76 C75 1.383 . S
C76 C77 1.394 . S
C77 H67 0.929 . S
C77 C73 1.377 . S
C77 C76 1.394 . S
H78 C85 0.929 . S
H79 C88 0.930 . S
H80 C90 0.929 . S
H81 C82 0.969 . S
C82 H81 0.969 . S
C82 O83 1.550 . S
C82 H84 0.973 . S
O83 C82 1.550 . S
O83 C89 1.412 . S
H84 C82 0.973 . S
C85 H78 0.929 . S
C85 C86 1.400 . S
C85 C87 1.364 . S
C86 C85 1.400 . S
C86 C90 1.377 . S
C87 C85 1.364 . S
C87 C88 1.374 . S
C88 H79 0.930 . S
C88 C87 1.374 . S
C88 C89 1.383 . S
C89 O83 1.412 . S
C89 C88 1.383 . S
C89 C90 1.394 . S
C90 H80 0.929 . S
C90 C86 1.377 . S
C90 C89 1.394 . S
H91 C98 0.929 . S
H92 C101 0.930 . S
H93 C103 0.929 . S
H94 C95 0.969 . S
C95 H94 0.969 . S
C95 O96 1.550 . S
C95 H97 0.973 . S
O96 C95 1.550 . S
O96 C102 1.412 . S
H97 C95 0.973 . S
C98 H91 0.929 . S
C98 C99 1.400 . S
C98 C100 1.364 . S
C99 C98 1.400 . S
C99 C103 1.377 . S
C100 C98 1.364 . S
C100 C101 1.374 . S
C101 H92 0.930 . S
C101 C100 1.374 . S
C101 C102 1.383 . S
C102 O96 1.412 . S
C102 C101 1.383 . S
C102 C103 1.394 . S
C103 H93 0.929 . S
C103 C99 1.377 . S
C103 C102 1.394 . S
O104 Zn105 1.953 1_455 S
O104 C120 1.225 . S
Zn105 O104 1.953 1_655 S
Zn105 O106 1.949 1_655 S
Zn105 O112 1.919 . S
Zn105 O117 1.924 . S
O106 Zn105 1.949 1_455 S
O106 Zn107 1.929 . S
O106 Zn108 1.950 . S
O106 Zn109 1.945 1_545 S
Zn107 O106 1.929 . S
Zn107 O110 1.931 1_445 S
Zn107 O113 1.923 1_455 S
Zn107 O114 1.976 . S
Zn108 O106 1.950 . S
Zn108 O115 1.938 . S
Zn108 O116 1.906 . S
Zn108 O126 1.953 . S
Zn109 O106 1.945 1_565 S
Zn109 O111 1.932 . S
Zn109 O118 1.977 . S
Zn109 O119 1.910 . S
O110 Zn107 1.931 1_665 S
O110 C121 1.226 . S
O111 Zn109 1.932 . S
O111 C121 1.307 1_455 S
O112 Zn105 1.919 . S
O112 C123 1.253 . S
O113 Zn107 1.923 1_655 S
O113 C123 1.283 . S
O114 Zn107 1.976 . S
O114 C122 1.303 . S
O115 Zn108 1.938 . S
O115 C122 1.247 . S
O116 Zn108 1.906 . S
O116 C124 1.304 1_545 S
O117 Zn105 1.924 . S
O117 C125 1.311 . S
O118 Zn109 1.977 . S
O118 C124 1.272 . S
O119 Zn109 1.910 . S
O119 C125 1.231 1_465 S
C120 O104 1.225 . S
C120 O126 1.298 . S
C121 O110 1.226 . S
C121 O111 1.307 1_655 S
C122 O114 1.303 . S
C122 O115 1.247 . S
C123 O112 1.253 . S
C123 O113 1.283 . S
C124 O116 1.304 1_565 S
C124 O118 1.272 . S
C125 O117 1.311 . S
C125 O119 1.231 1_645 S
O126 Zn108 1.953 . S
O126 C120 1.298 . S
O127 Zn128 1.953 . S
O127 C143 1.225 . S
Zn128 O127 1.953 . S
Zn128 O129 1.949 1_556 S
Zn128 O135 1.919 . S
Zn128 O140 1.938 . S
O129 Zn128 1.949 1_554 S
O129 Zn130 1.908 1_544 S
O129 Zn131 1.950 . S
O129 Zn132 1.945 1_545 S
Zn130 O129 1.908 1_566 S
Zn130 O133 1.915 1_556 S
Zn130 O136 1.979 . S
Zn130 O137 1.969 . S
Zn131 O129 1.950 . S
Zn131 O138 1.938 . S
Zn131 O139 1.906 . S
Zn131 O149 1.953 . S
Zn132 O129 1.945 1_565 S
Zn132 O134 1.932 . S
Zn132 O141 1.977 1_565 S
Zn132 O142 1.910 1_565 S
O133 Zn130 1.915 1_554 S
O133 C144 1.226 . S
O134 Zn132 1.932 . S
O134 C144 1.307 . S
O135 Zn128 1.919 . S
O135 C146 1.253 1_545 S
O136 Zn130 1.979 . S
O136 C146 1.283 . S
O137 Zn130 1.969 . S
O137 C145 1.303 . S
O138 Zn131 1.938 . S
O138 C145 1.247 1_544 S
O139 Zn131 1.906 . S
O139 C147 1.304 . S
O140 Zn128 1.938 . S
O140 C148 1.278 1_556 S
O141 Zn132 1.977 1_545 S
O141 C147 1.272 . S
O142 Zn132 1.910 1_545 S
O142 C148 1.231 . S
C143 O127 1.225 . S
C143 O149 1.298 1_556 S
C144 O133 1.226 . S
C144 O134 1.307 . S
C145 O137 1.303 . S
C145 O138 1.247 1_566 S
C146 O135 1.253 1_565 S
C146 O136 1.283 . S
C147 O139 1.304 . S
C147 O141 1.272 . S
C148 O140 1.278 1_554 S
C148 O142 1.231 . S
O149 Zn131 1.953 . S
O149 C143 1.298 1_554 S
O150 Zn151 1.953 . S
O150 C166 1.225 . S
Zn151 O150 1.953 . S
Zn151 O152 1.949 . S
Zn151 O158 1.919 . S
Zn151 O163 1.924 . S
O152 Zn151 1.949 . S
O152 Zn153 1.923 . S
O152 Zn154 1.950 . S
O152 Zn155 1.945 . S
Zn153 O152 1.923 . S
Zn153 O156 1.933 . S
Zn153 O159 1.941 . S
Zn153 O160 1.965 . S
Zn154 O152 1.950 . S
Zn154 O161 1.938 . S
Zn154 O162 1.906 . S
Zn154 O172 1.953 . S
Zn155 O152 1.945 . S
Zn155 O157 1.932 . S
Zn155 O164 1.977 . S
Zn155 O165 1.910 . S
O156 Zn153 1.933 . S
O156 C167 1.226 . S
O157 Zn155 1.932 . S
O157 C167 1.307 . S
O158 Zn151 1.919 . S
O158 C169 1.253 . S
O159 Zn153 1.941 . S
O159 C169 1.283 . S
O160 Zn153 1.965 . S
O160 C168 1.303 . S
O161 Zn154 1.938 . S
O161 C168 1.247 . S
O162 Zn154 1.906 . S
O162 C170 1.304 . S
O163 Zn151 1.924 . S
O163 C171 1.311 . S
O164 Zn155 1.977 . S
O164 C170 1.272 . S
O165 Zn155 1.910 . S
O165 C171 1.231 . S
C166 O150 1.225 . S
C166 O172 1.298 . S
C167 O156 1.226 . S
C167 O157 1.307 . S
C168 O160 1.303 . S
C168 O161 1.247 . S
C169 O158 1.253 . S
C169 O159 1.283 . S
C170 O162 1.304 . S
C170 O164 1.272 . S
C171 O163 1.311 . S
C171 O165 1.231 . S
O172 Zn154 1.953 . S
O172 C166 1.298 . S
O173 Zn174 1.953 . S
O173 C189 1.225 . S
Zn174 O173 1.953 . S
Zn174 O175 1.949 . S
Zn174 O181 1.919 1_455 S
Zn174 O186 1.924 . S
O175 Zn174 1.949 . S
O175 Zn176 1.923 1_554 S
O175 Zn177 1.950 . S
O175 Zn178 1.945 . S
Zn176 O175 1.923 1_556 S
Zn176 O179 1.933 . S
Zn176 O182 1.941 1_455 S
Zn176 O183 1.965 . S
Zn177 O175 1.950 . S
Zn177 O184 1.938 . S
Zn177 O185 1.906 . S
Zn177 O195 1.953 . S
Zn178 O175 1.945 . S
Zn178 O180 1.932 1_554 S
Zn178 O187 1.977 . S
Zn178 O188 1.910 . S
O179 Zn176 1.933 . S
O179 C190 1.226 . S
O180 Zn178 1.932 1_556 S
O180 C190 1.307 . S
O181 Zn174 1.919 1_655 S
O181 C192 1.253 1_554 S
O182 Zn176 1.941 1_655 S
O182 C192 1.283 . S
O183 Zn176 1.965 . S
O183 C191 1.303 1_556 S
O184 Zn177 1.938 . S
O184 C191 1.247 . S
O185 Zn177 1.906 . S
O185 C193 1.304 . S
O186 Zn174 1.924 . S
O186 C194 1.311 . S
O187 Zn178 1.977 . S
O187 C193 1.272 . S
O188 Zn178 1.910 . S
O188 C194 1.231 . S
C189 O173 1.225 . S
C189 O195 1.298 . S
C190 O179 1.226 . S
C190 O180 1.307 . S
C191 O183 1.303 1_554 S
C191 O184 1.247 . S
C192 O181 1.253 1_556 S
C192 O182 1.283 . S
C193 O185 1.304 . S
C193 O187 1.272 . S
C194 O186 1.311 . S
C194 O188 1.231 . S
O195 Zn177 1.953 . S
O195 C189 1.298 . S
H196 C204 0.929 . S
H197 C206 0.930 . S
H198 C208 0.930 . S
H199 C211 0.929 . S
H200 C214 0.930 . S
H201 C216 0.960 . S
H202 C216 0.960 . S
H203 C216 0.960 . S
C204 H196 0.929 . S
C204 C205 1.377 . S
C204 C206 1.384 . S
C205 C204 1.377 . S
C205 C211 1.390 . S
C206 H197 0.930 . S
C206 C204 1.384 . S
C206 C207 1.372 . S
C207 C206 1.372 . S
C207 C208 1.400 . S
C207 C212 1.490 . S
C208 H198 0.930 . S
C208 C207 1.400 . S
C208 C211 1.386 . S
H209 C225 0.930 . S
H210 C226 0.931 . S
C211 H199 0.929 . S
C211 C205 1.390 . S
C211 C208 1.386 . S
C212 C207 1.490 . S
C212 C214 1.395 . S
C212 C215 1.403 . S
H213 C219 0.930 . S
C214 H200 0.930 . S
C214 C212 1.395 . S
C214 C217 1.403 . S
C215 C212 1.403 . S
C215 C216 1.524 . S
C215 C219 1.400 . S
C216 H201 0.960 . S
C216 H202 0.960 . S
C216 H203 0.960 . S
C216 C215 1.524 . S
C217 C214 1.403 . S
C217 C218 1.392 . S
C217 C221 1.495 . S
C218 C217 1.392 . S
C218 C219 1.385 . S
C218 C220 1.478 . S
C219 H213 0.930 . S
C219 C215 1.400 . S
C219 C218 1.385 . S
C220 C218 1.478 . S
C220 C222 1.381 . S
C220 C226 1.383 . S
C221 C217 1.495 . S
C221 H227 0.959 . S
C221 H228 0.961 . S
C221 H229 0.960 . S
C222 C220 1.381 . S
C222 C223 1.394 . S
C222 H230 0.930 . S
C223 C222 1.394 . S
C223 C224 1.383 . S
C223 H231 0.929 . S
C224 C223 1.383 . S
C224 C225 1.377 . S
C225 H209 0.930 . S
C225 C224 1.377 . S
C225 C226 1.379 . S
C226 H210 0.931 . S
C226 C220 1.383 . S
C226 C225 1.379 . S
H227 C221 0.959 . S
H228 C221 0.961 . S
H229 C221 0.960 . S
H230 C222 0.930 . S
H231 C223 0.929 . S
H232 C240 0.929 . S
H233 C242 0.930 . S
H234 C244 0.930 . S
H235 C247 0.929 . S
H236 C250 0.930 . S
H237 C252 0.960 . S
H238 C252 0.960 . S
H239 C252 0.960 . S
C240 H232 0.929 . S
C240 C241 1.377 . S
C240 C242 1.384 . S
C241 C240 1.377 . S
C241 C247 1.390 . S
C242 H233 0.930 . S
C242 C240 1.384 . S
C242 C243 1.372 . S
C243 C242 1.372 . S
C243 C244 1.400 . S
C243 C248 1.490 . S
C244 H234 0.930 . S
C244 C243 1.400 . S
C244 C247 1.386 . S
H245 C261 0.930 . S
H246 C262 0.931 . S
C247 H235 0.929 . S
C247 C241 1.390 . S
C247 C244 1.386 . S
C248 C243 1.490 . S
C248 C250 1.395 . S
C248 C251 1.403 . S
H249 C255 0.930 . S
C250 H236 0.930 . S
C250 C248 1.395 . S
C250 C253 1.403 . S
C251 C248 1.403 . S
C251 C252 1.524 . S
C251 C255 1.400 . S
C252 H237 0.960 . S
C252 H238 0.960 . S
C252 H239 0.960 . S
C252 C251 1.524 . S
C253 C250 1.403 . S
C253 C254 1.392 . S
C253 C257 1.495 . S
C254 C253 1.392 . S
C254 C255 1.385 . S
C254 C256 1.478 . S
C255 H249 0.930 . S
C255 C251 1.400 . S
C255 C254 1.385 . S
C256 C254 1.478 . S
C256 C258 1.381 . S
C256 C262 1.383 . S
C257 C253 1.495 . S
C257 H263 0.959 . S
C257 H264 0.961 . S
C257 H265 0.960 . S
C258 C256 1.381 . S
C258 C259 1.394 . S
C258 H266 0.930 . S
C259 C258 1.394 . S
C259 C260 1.383 . S
C259 H267 0.966 . S
C260 C259 1.383 . S
C260 C261 1.377 . S
C261 H245 0.930 . S
C261 C260 1.377 . S
C261 C262 1.379 . S
C262 H246 0.931 . S
C262 C256 1.383 . S
C262 C261 1.379 . S
H263 C257 0.959 . S
H264 C257 0.961 . S
H265 C257 0.960 . S
H266 C258 0.930 . S
H267 C259 0.966 . S
H268 C276 0.929 . S
H269 C278 0.930 . S
H270 C280 0.930 . S
H271 C283 0.929 . S
H272 C286 0.930 . S
H273 C288 0.960 . S
H274 C288 0.960 . S
H275 C288 0.960 . S
C276 H268 0.929 . S
C276 C277 1.377 . S
C276 C278 1.384 . S
C277 C276 1.377 . S
C277 C283 1.390 . S
C278 H269 0.930 . S
C278 C276 1.384 . S
C278 C279 1.372 . S
C279 C278 1.372 . S
C279 C280 1.400 . S
C279 C284 1.490 . S
C280 H270 0.930 . S
C280 C279 1.400 . S
C280 C283 1.386 . S
H281 C297 0.930 . S
H282 C298 0.931 . S
C283 H271 0.929 . S
C283 C277 1.390 . S
C283 C280 1.386 . S
C284 C279 1.490 . S
C284 C286 1.395 . S
C284 C287 1.403 . S
H285 C291 0.930 . S
C286 H272 0.930 . S
C286 C284 1.395 . S
C286 C289 1.403 . S
C287 C284 1.403 . S
C287 C288 1.524 . S
C287 C291 1.400 . S
C288 H273 0.960 . S
C288 H274 0.960 . S
C288 H275 0.960 . S
C288 C287 1.524 . S
C289 C286 1.403 . S
C289 C290 1.392 . S
C289 C293 1.495 . S
C290 C289 1.392 . S
C290 C291 1.385 . S
C290 C292 1.478 . S
C291 H285 0.930 . S
C291 C287 1.400 . S
C291 C290 1.385 . S
C292 C290 1.478 . S
C292 C294 1.381 . S
C292 C298 1.383 . S
C293 C289 1.495 . S
C293 H299 0.959 . S
C293 H300 0.961 . S
C293 H301 0.960 . S
C294 C292 1.381 . S
C294 C295 1.394 . S
C294 H302 0.930 . S
C295 C294 1.394 . S
C295 C296 1.383 . S
C295 H303 0.929 . S
C296 C295 1.383 . S
C296 C297 1.377 . S
C297 H281 0.930 . S
C297 C296 1.377 . S
C297 C298 1.379 . S
C298 H282 0.931 . S
C298 C292 1.383 . S
C298 C297 1.379 . S
H299 C293 0.959 . S
H300 C293 0.961 . S
H301 C293 0.960 . S
H302 C294 0.930 . S
H303 C295 0.929 . S
H304 C312 0.929 . S
H305 C314 0.930 . S
H306 C316 0.930 . S
H307 C319 0.929 . S
H308 C322 0.947 . S
H309 C324 0.960 . S
H310 C324 0.960 . S
H311 C324 0.960 . S
C312 H304 0.929 . S
C312 C313 1.377 . S
C312 C314 1.384 . S
C313 C312 1.377 . S
C313 C319 1.390 . S
C314 H305 0.930 . S
C314 C312 1.384 . S
C314 C315 1.372 . S
C315 C314 1.372 . S
C315 C316 1.400 . S
C315 C320 1.490 . S
C316 H306 0.930 . S
C316 C315 1.400 . S
C316 C319 1.386 . S
H317 C333 0.930 . S
H318 C334 0.935 . S
C319 H307 0.929 . S
C319 C313 1.390 . S
C319 C316 1.386 . S
C320 C315 1.490 . S
C320 C322 1.367 1_655 S
C320 C323 1.403 . S
H321 C327 0.930 . S
C322 H308 0.947 . S
C322 C320 1.367 1_455 S
C322 C325 1.415 . S
C323 C320 1.403 . S
C323 C324 1.524 . S
C323 C327 1.400 . S
C324 H309 0.960 . S
C324 H310 0.960 . S
C324 H311 0.960 . S
C324 C323 1.524 . S
C325 C322 1.415 . S
C325 C326 1.392 1_455 S
C325 C329 1.495 . S
C326 C325 1.392 1_655 S
C326 C327 1.385 . S
C326 C328 1.470 1_655 S
C327 H321 0.930 . S
C327 C323 1.400 . S
C327 C326 1.385 . S
C328 C326 1.470 1_455 S
C328 C330 1.386 . S
C328 C334 1.386 1_455 S
C329 C325 1.495 . S
C329 H335 0.959 . S
C329 H336 0.961 . S
C329 H337 0.960 . S
C330 C328 1.386 . S
C330 C331 1.394 . S
C330 H338 0.930 . S
C331 C330 1.394 . S
C331 C332 1.383 . S
C331 H339 0.929 . S
C332 C331 1.383 . S
C332 C333 1.377 . S
C333 H317 0.930 . S
C333 C332 1.377 . S
C333 C334 1.374 1_455 S
C334 H318 0.935 . S
C334 C328 1.386 1_655 S
C334 C333 1.374 1_655 S
H335 C329 0.959 . S
H336 C329 0.961 . S
H337 C329 0.960 . S
H338 C330 0.930 . S
H339 C331 0.929 . S
H340 C348 0.929 . S
H341 C350 0.930 . S
H342 C352 0.930 . S
H343 C355 0.929 . S
H344 C358 0.930 . S
H345 C360 0.960 . S
H346 C360 0.960 . S
H347 C360 0.960 . S
C348 H340 0.929 . S
C348 C349 1.377 . S
C348 C350 1.384 . S
C349 C348 1.377 . S
C349 C355 1.390 . S
C350 H341 0.930 . S
C350 C348 1.384 . S
C350 C351 1.372 . S
C351 C350 1.372 . S
C351 C352 1.400 . S
C351 C356 1.490 . S
C352 H342 0.930 . S
C352 C351 1.400 . S
C352 C355 1.386 . S
H353 C369 0.930 . S
H354 C370 0.931 . S
C355 H343 0.929 . S
C355 C349 1.390 . S
C355 C352 1.386 . S
C356 C351 1.490 . S
C356 C358 1.395 . S
C356 C359 1.403 . S
H357 C363 0.930 . S
C358 H344 0.930 . S
C358 C356 1.395 . S
C358 C361 1.403 . S
C359 C356 1.403 . S
C359 C360 1.524 . S
C359 C363 1.400 . S
C360 H345 0.960 . S
C360 H346 0.960 . S
C360 H347 0.960 . S
C360 C359 1.524 . S
C361 C358 1.403 . S
C361 C362 1.392 . S
C361 C365 1.495 . S
C362 C361 1.392 . S
C362 C363 1.385 . S
C362 C364 1.478 . S
C363 H357 0.930 . S
C363 C359 1.400 . S
C363 C362 1.385 . S
C364 C362 1.478 . S
C364 C366 1.381 . S
C364 C370 1.383 . S
C365 C361 1.495 . S
C365 H371 0.959 . S
C365 H372 0.961 . S
C365 H373 0.960 . S
C366 C364 1.381 . S
C366 C367 1.394 . S
C366 H374 0.930 . S
C367 C366 1.394 . S
C367 C368 1.383 . S
C367 H375 0.929 . S
C368 C367 1.383 . S
C368 C369 1.377 . S
C369 H353 0.930 . S
C369 C368 1.377 . S
C369 C370 1.379 . S
C370 H354 0.931 . S
C370 C364 1.383 . S
C370 C369 1.379 . S
H371 C365 0.959 . S
H372 C365 0.961 . S
H373 C365 0.960 . S
H374 C366 0.930 . S
H375 C367 0.929 . S
H376 C384 0.929 . S
H377 C386 0.930 . S
H378 C388 0.930 . S
H379 C391 0.929 . S
H380 C394 0.930 . S
H381 C396 0.960 . S
H382 C396 0.960 . S
H383 C396 0.960 . S
C384 H376 0.929 . S
C384 C385 1.377 . S
C384 C386 1.384 . S
C385 C384 1.377 . S
C385 C391 1.390 . S
C386 H377 0.930 . S
C386 C384 1.384 . S
C386 C387 1.372 . S
C387 C386 1.372 . S
C387 C388 1.400 . S
C387 C392 1.490 . S
C388 H378 0.930 . S
C388 C387 1.400 . S
C388 C391 1.386 . S
H389 C405 0.930 . S
H390 C406 0.931 . S
C391 H379 0.929 . S
C391 C385 1.390 . S
C391 C388 1.386 . S
C392 C387 1.490 . S
C392 C394 1.395 . S
C392 C395 1.403 . S
H393 C399 0.930 . S
C394 H380 0.930 . S
C394 C392 1.395 . S
C394 C397 1.403 . S
C395 C392 1.403 . S
C395 C396 1.524 . S
C395 C399 1.400 . S
C396 H381 0.960 . S
C396 H382 0.960 . S
C396 H383 0.960 . S
C396 C395 1.524 . S
C397 C394 1.403 . S
C397 C398 1.392 . S
C397 C401 1.495 . S
C398 C397 1.392 . S
C398 C399 1.385 . S
C398 C400 1.478 . S
C399 H393 0.930 . S
C399 C395 1.400 . S
C399 C398 1.385 . S
C400 C398 1.478 . S
C400 C402 1.381 . S
C400 C406 1.383 . S
C401 C397 1.495 . S
C401 H407 0.959 . S
C401 H408 0.961 . S
C401 H409 0.960 . S
C402 C400 1.381 . S
C402 C403 1.394 . S
C402 H410 0.930 . S
C403 C402 1.394 . S
C403 C404 1.383 . S
C403 H411 0.929 1_565 S
C404 C403 1.383 . S
C404 C405 1.377 . S
C405 H389 0.930 . S
C405 C404 1.377 . S
C405 C406 1.379 . S
C406 H390 0.931 . S
C406 C400 1.383 . S
C406 C405 1.379 . S
H407 C401 0.959 . S
H408 C401 0.961 . S
H409 C401 0.960 . S
H410 C402 0.930 . S
H411 C403 0.929 1_545 S
H412 C420 0.929 . S
H413 C422 0.930 . S
H414 C424 0.930 . S
H415 C427 0.929 . S
H416 C430 0.930 . S
H417 C432 0.960 . S
H418 C432 0.960 . S
H419 C432 0.960 . S
C420 H412 0.929 . S
C420 C421 1.377 . S
C420 C422 1.384 . S
C421 C420 1.377 . S
C421 C427 1.390 . S
C422 H413 0.930 . S
C422 C420 1.384 . S
C422 C423 1.372 . S
C423 C422 1.372 . S
C423 C424 1.400 . S
C423 C428 1.490 . S
C424 H414 0.930 . S
C424 C423 1.400 . S
C424 C427 1.386 . S
H425 C441 0.930 1_554 S
H426 C442 0.931 . S
C427 H415 0.929 . S
C427 C421 1.390 . S
C427 C424 1.386 . S
C428 C423 1.490 . S
C428 C430 1.395 . S
C428 C431 1.403 . S
H429 C435 0.930 . S
C430 H416 0.930 . S
C430 C428 1.395 . S
C430 C433 1.403 . S
C431 C428 1.403 . S
C431 C432 1.524 . S
C431 C435 1.400 . S
C432 H417 0.960 . S
C432 H418 0.960 . S
C432 H419 0.960 . S
C432 C431 1.524 . S
C433 C430 1.403 . S
C433 C434 1.392 . S
C433 C437 1.495 . S
C434 C433 1.392 . S
C434 C435 1.385 . S
C434 C436 1.478 . S
C435 H429 0.930 . S
C435 C431 1.400 . S
C435 C434 1.385 . S
C436 C434 1.478 . S
C436 C438 1.381 . S
C436 C442 1.383 . S
C437 C433 1.495 . S
C437 H443 0.959 . S
C437 H444 0.961 . S
C437 H445 0.960 . S
C438 C436 1.381 . S
C438 C439 1.394 . S
C438 H446 0.930 . S
C439 C438 1.394 . S
C439 C440 1.383 . S
C439 H447 0.929 . S
C440 C439 1.383 . S
C440 C441 1.377 . S
C441 H425 0.930 1_556 S
C441 C440 1.377 . S
C441 C442 1.379 . S
C442 H426 0.931 . S
C442 C436 1.383 . S
C442 C441 1.379 . S
H443 C437 0.959 . S
H444 C437 0.961 . S
H445 C437 0.960 . S
H446 C438 0.930 . S
H447 C439 0.929 . S
H448 C456 0.929 . S
H449 C458 0.930 . S
H450 C460 0.930 . S
H451 C463 0.929 . S
H452 C466 0.930 . S
H453 C468 0.960 . S
H454 C468 0.960 . S
H455 C468 0.960 . S
C456 H448 0.929 . S
C456 C457 1.377 . S
C456 C458 1.384 . S
C457 C456 1.377 . S
C457 C463 1.390 . S
C458 H449 0.930 . S
C458 C456 1.384 . S
C458 C459 1.372 . S
C459 C458 1.372 . S
C459 C460 1.400 . S
C459 C464 1.490 . S
C460 H450 0.930 . S
C460 C459 1.400 . S
C460 C463 1.386 . S
H461 C477 0.930 . S
H462 C478 0.931 . S
C463 H451 0.929 . S
C463 C457 1.390 . S
C463 C460 1.386 . S
C464 C459 1.490 . S
C464 C466 1.395 . S
C464 C467 1.403 . S
H465 C471 0.930 . S
C466 H452 0.930 . S
C466 C464 1.395 . S
C466 C469 1.403 . S
C467 C464 1.403 . S
C467 C468 1.524 . S
C467 C471 1.400 . S
C468 H453 0.960 . S
C468 H454 0.960 . S
C468 H455 0.960 . S
C468 C467 1.524 . S
C469 C466 1.403 . S
C469 C470 1.392 . S
C469 C473 1.495 . S
C470 C469 1.392 . S
C470 C471 1.385 . S
C470 C472 1.478 . S
C471 H465 0.930 . S
C471 C467 1.400 . S
C471 C470 1.385 . S
C472 C470 1.478 . S
C472 C474 1.381 . S
C472 C478 1.383 . S
C473 C469 1.495 . S
C473 H479 0.959 . S
C473 H480 0.961 . S
C473 H481 0.960 . S
C474 C472 1.381 . S
C474 C475 1.394 . S
C474 H482 0.930 . S
C475 C474 1.394 . S
C475 C476 1.383 . S
C475 H483 0.929 . S
C476 C475 1.383 . S
C476 C477 1.377 . S
C477 H461 0.930 . S
C477 C476 1.377 . S
C477 C478 1.379 . S
C478 H462 0.931 . S
C478 C472 1.383 . S
C478 C477 1.379 . S
H479 C473 0.959 . S
H480 C473 0.961 . S
H481 C473 0.960 . S
H482 C474 0.930 . S
H483 C475 0.929 . S
H484 C492 0.929 . S
H485 C494 0.930 . S
H486 C496 0.930 . S
H487 C499 0.929 . S
H488 C502 0.930 . S
H489 C504 0.960 . S
H490 C504 0.960 . S
H491 C504 0.960 . S
C492 H484 0.929 . S
C492 C493 1.377 . S
C492 C494 1.384 . S
C493 C492 1.377 . S
C493 C499 1.390 . S
C494 H485 0.930 . S
C494 C492 1.384 . S
C494 C495 1.372 . S
C495 C494 1.372 . S
C495 C496 1.400 . S
C495 C500 1.490 . S
C496 H486 0.930 . S
C496 C495 1.400 . S
C496 C499 1.386 . S
H497 C513 0.930 . S
H498 C514 0.931 . S
C499 H487 0.929 . S
C499 C493 1.390 . S
C499 C496 1.386 . S
C500 C495 1.490 . S
C500 C502 1.395 . S
C500 C503 1.403 . S
H501 C507 0.930 . S
C502 H488 0.930 . S
C502 C500 1.395 . S
C502 C505 1.403 . S
C503 C500 1.403 . S
C503 C504 1.524 . S
C503 C507 1.400 . S
C504 H489 0.960 . S
C504 H490 0.960 . S
C504 H491 0.960 . S
C504 C503 1.524 . S
C505 C502 1.403 . S
C505 C506 1.392 . S
C505 C509 1.495 . S
C506 C505 1.392 . S
C506 C507 1.385 . S
C506 C508 1.478 . S
C507 H501 0.930 . S
C507 C503 1.400 . S
C507 C506 1.385 . S
C508 C506 1.478 . S
C508 C510 1.381 . S
C508 C514 1.383 . S
C509 C505 1.495 . S
C509 H515 0.959 . S
C509 H516 0.961 . S
C509 H517 0.960 . S
C510 C508 1.381 . S
C510 C511 1.394 . S
C510 H518 0.930 . S
C511 C510 1.394 . S
C511 C512 1.383 . S
C511 H519 0.929 . S
C512 C511 1.383 . S
C512 C513 1.377 . S
C513 H497 0.930 . S
C513 C512 1.377 . S
C513 C514 1.379 . S
C514 H498 0.931 . S
C514 C508 1.383 . S
C514 C513 1.379 . S
H515 C509 0.959 . S
H516 C509 0.961 . S
H517 C509 0.960 . S
H518 C510 0.930 . S
H519 C511 0.929 . S
H520 C528 0.929 . S
H521 C530 0.930 . S
H522 C532 0.930 . S
H523 C535 0.929 . S
H524 C538 0.930 . S
H525 C540 0.960 . S
H526 C540 0.960 . S
H527 C540 0.960 . S
C528 H520 0.929 . S
C528 C529 1.377 . S
C528 C530 1.384 . S
C529 C528 1.377 . S
C529 C535 1.390 . S
C530 H521 0.930 . S
C530 C528 1.384 . S
C530 C531 1.372 . S
C531 C530 1.372 . S
C531 C532 1.400 . S
C531 C536 1.490 . S
C532 H522 0.930 . S
C532 C531 1.400 . S
C532 C535 1.386 . S
H533 C549 0.930 1_554 S
H534 C550 0.931 . S
C535 H523 0.929 . S
C535 C529 1.390 . S
C535 C532 1.386 . S
C536 C531 1.490 . S
C536 C538 1.395 . S
C536 C539 1.403 . S
H537 C543 0.930 . S
C538 H524 0.930 . S
C538 C536 1.395 . S
C538 C541 1.403 . S
C539 C536 1.403 . S
C539 C540 1.524 . S
C539 C543 1.400 . S
C540 H525 0.960 . S
C540 H526 0.960 . S
C540 H527 0.960 . S
C540 C539 1.524 . S
C541 C538 1.403 . S
C541 C542 1.392 . S
C541 C545 1.495 . S
C542 C541 1.392 . S
C542 C543 1.385 . S
C542 C544 1.478 . S
C543 H537 0.930 . S
C543 C539 1.400 . S
C543 C542 1.385 . S
C544 C542 1.478 . S
C544 C546 1.381 . S
C544 C550 1.383 . S
C545 C541 1.495 . S
C545 H551 0.959 . S
C545 H552 0.961 . S
C545 H553 0.960 . S
C546 C544 1.381 . S
C546 C547 1.394 . S
C546 H554 0.930 . S
C547 C546 1.394 . S
C547 C548 1.383 . S
C547 H555 0.929 . S
C548 C547 1.383 . S
C548 C549 1.377 . S
C549 H533 0.930 1_556 S
C549 C548 1.377 . S
C549 C550 1.379 . S
C550 H534 0.931 . S
C550 C544 1.383 . S
C550 C549 1.379 . S
H551 C545 0.959 . S
H552 C545 0.961 . S
H553 C545 0.960 . S
H554 C546 0.930 . S
H555 C547 0.929 . S
H556 C564 0.929 . S
H557 C566 0.930 . S
H558 C568 0.930 . S
H559 C571 0.929 . S
H560 C574 0.930 . S
H561 C576 0.960 . S
H562 C576 0.960 . S
H563 C576 0.960 . S
C564 H556 0.929 . S
C564 C565 1.377 . S
C564 C566 1.384 . S
C565 C564 1.377 . S
C565 C571 1.390 . S
C566 H557 0.930 . S
C566 C564 1.384 . S
C566 C567 1.372 . S
C567 C566 1.372 . S
C567 C568 1.400 . S
C567 C572 1.490 . S
C568 H558 0.930 . S
C568 C567 1.400 . S
C568 C571 1.386 . S
H569 C585 0.930 . S
H570 C586 0.931 . S
C571 H559 0.929 . S
C571 C565 1.390 . S
C571 C568 1.386 . S
C572 C567 1.490 . S
C572 C574 1.395 . S
C572 C575 1.403 . S
H573 C579 0.930 . S
C574 H560 0.930 . S
C574 C572 1.395 . S
C574 C577 1.403 . S
C575 C572 1.403 . S
C575 C576 1.524 . S
C575 C579 1.400 . S
C576 H561 0.960 . S
C576 H562 0.960 . S
C576 H563 0.960 . S
C576 C575 1.524 . S
C577 C574 1.403 . S
C577 C578 1.392 . S
C577 C581 1.495 . S
C578 C577 1.392 . S
C578 C579 1.385 . S
C578 C580 1.478 . S
C579 H573 0.930 . S
C579 C575 1.400 . S
C579 C578 1.385 . S
C580 C578 1.478 . S
C580 C582 1.381 1_655 S
C580 C586 1.383 . S
C581 C577 1.495 . S
C581 H587 0.959 . S
C581 H588 0.961 . S
C581 H589 0.960 1_655 S
C582 C580 1.381 1_455 S
C582 C583 1.394 . S
C582 H590 0.930 . S
C583 C582 1.394 . S
C583 C584 1.383 1_455 S
C583 H591 0.929 . S
C584 C583 1.383 1_655 S
C584 C585 1.377 . S
C585 H569 0.930 . S
C585 C584 1.377 . S
C585 C586 1.379 . S
C586 H570 0.931 . S
C586 C580 1.383 . S
C586 C585 1.379 . S
H587 C581 0.959 . S
H588 C581 0.961 . S
H589 C581 0.960 1_455 S
H590 C582 0.930 . S
H591 C583 0.929 . S
H592 C600 0.929 . S
H593 C602 0.930 . S
H594 C604 0.930 . S
H595 C607 0.929 . S
H596 C610 0.930 . S
H597 C612 0.960 . S
H598 C612 0.960 . S
H599 C612 0.960 . S
C600 H592 0.929 . S
C600 C601 1.377 . S
C600 C602 1.384 . S
C601 C600 1.377 . S
C601 C607 1.390 . S
C602 H593 0.930 . S
C602 C600 1.384 . S
C602 C603 1.372 . S
C603 C602 1.372 . S
C603 C604 1.400 . S
C603 C608 1.490 . S
C604 H594 0.930 . S
C604 C603 1.400 . S
C604 C607 1.386 . S
H605 C621 0.930 . S
H606 C622 0.931 . S
C607 H595 0.929 . S
C607 C601 1.390 . S
C607 C604 1.386 . S
C608 C603 1.490 . S
C608 C610 1.395 . S
C608 C611 1.403 . S
H609 C615 0.930 . S
C610 H596 0.930 . S
C610 C608 1.395 . S
C610 C613 1.403 . S
C611 C608 1.403 . S
C611 C612 1.524 . S
C611 C615 1.400 . S
C612 H597 0.960 . S
C612 H598 0.960 . S
C612 H599 0.960 . S
C612 C611 1.524 . S
C613 C610 1.403 . S
C613 C614 1.392 . S
C613 C617 1.495 . S
C614 C613 1.392 . S
C614 C615 1.385 . S
C614 C616 1.478 . S
C615 H609 0.930 . S
C615 C611 1.400 . S
C615 C614 1.385 . S
C616 C614 1.478 . S
C616 C618 1.381 . S
C616 C622 1.383 . S
C617 C613 1.495 . S
C617 H623 0.959 . S
C617 H624 0.961 . S
C617 H625 0.960 . S
C618 C616 1.381 . S
C618 C619 1.394 . S
C618 H626 0.930 . S
C619 C618 1.394 . S
C619 C620 1.383 . S
C619 H627 0.929 . S
C620 C619 1.383 . S
C620 C621 1.377 . S
C621 H605 0.930 . S
C621 C620 1.377 . S
C621 C622 1.379 . S
C622 H606 0.931 . S
C622 C616 1.383 . S
C622 C621 1.379 . S
H623 C617 0.959 . S
H624 C617 0.961 . S
H625 C617 0.960 . S
H626 C618 0.930 . S
H627 C619 0.929 . S
H628 C636 0.929 . S
H629 C638 0.917 1_455 S
H630 C640 0.930 . S
H631 C643 0.929 . S
H632 C646 0.930 1_455 S
H633 C648 0.960 . S
H634 C648 0.960 1_545 S
H635 C648 0.960 . S
C636 H628 0.929 . S
C636 C637 1.377 . S
C636 C638 1.384 . S
C637 C636 1.377 . S
C637 C643 1.390 . S
C638 H629 0.917 1_655 S
C638 C636 1.384 . S
C638 C639 1.372 . S
C639 C638 1.372 . S
C639 C640 1.400 . S
C639 C644 1.490 . S
C640 H630 0.930 . S
C640 C639 1.400 . S
C640 C643 1.386 . S
H641 C657 0.930 . S
H642 C658 0.931 . S
C643 H631 0.929 . S
C643 C637 1.390 . S
C643 C640 1.386 . S
C644 C639 1.490 . S
C644 C646 1.395 . S
C644 C647 1.403 . S
H645 C651 0.930 . S
C646 H632 0.930 1_655 S
C646 C644 1.395 . S
C646 C649 1.403 1_655 S
C647 C644 1.403 . S
C647 C648 1.524 . S
C647 C651 1.400 . S
C648 H633 0.960 . S
C648 H634 0.960 1_565 S
C648 H635 0.960 . S
C648 C647 1.524 . S
C649 C646 1.403 1_455 S
C649 C650 1.392 1_455 S
C649 C653 1.495 . S
C650 C649 1.392 1_655 S
C650 C651 1.385 . S
C650 C652 1.478 . S
C651 H645 0.930 . S
C651 C647 1.400 . S
C651 C650 1.385 . S
C652 C650 1.478 . S
C652 C654 1.381 1_665 S
C652 C658 1.383 . S
C653 C649 1.495 . S
C653 H659 0.959 . S
C653 H660 0.961 . S
C653 H661 0.960 . S
C654 C652 1.381 1_445 S
C654 C655 1.394 . S
C654 H662 0.930 . S
C655 C654 1.394 . S
C655 C656 1.396 1_455 S
C655 H663 0.929 . S
C656 C655 1.396 1_655 S
C656 C657 1.358 1_545 S
C657 H641 0.930 . S
C657 C656 1.358 1_565 S
C657 C658 1.379 . S
C658 H642 0.931 . S
C658 C652 1.383 . S
C658 C657 1.379 . S
H659 C653 0.959 . S
H660 C653 0.961 . S
H661 C653 0.960 . S
H662 C654 0.930 . S
H663 C655 0.929 . S
H664 C672 0.929 . S
H665 C674 0.930 . S
H666 C676 0.930 . S
H667 C679 0.929 . S
H668 C682 0.930 . S
H669 C684 0.960 . S
H670 C684 0.960 . S
H671 C684 0.960 . S
C672 H664 0.929 . S
C672 C673 1.377 . S
C672 C674 1.384 . S
C673 C672 1.377 . S
C673 C679 1.390 . S
C674 H665 0.930 . S
C674 C672 1.384 . S
C674 C675 1.372 . S
C675 C674 1.372 . S
C675 C676 1.400 . S
C675 C680 1.490 . S
C676 H666 0.930 . S
C676 C675 1.400 . S
C676 C679 1.386 . S
H677 C693 0.930 . S
H678 C694 0.931 . S
C679 H667 0.929 . S
C679 C673 1.390 . S
C679 C676 1.386 . S
C680 C675 1.490 . S
C680 C682 1.395 . S
C680 C683 1.403 . S
H681 C687 0.930 . S
C682 H668 0.930 . S
C682 C680 1.395 . S
C682 C685 1.403 . S
C683 C680 1.403 . S
C683 C684 1.524 . S
C683 C687 1.400 . S
C684 H669 0.960 . S
C684 H670 0.960 . S
C684 H671 0.960 . S
C684 C683 1.524 . S
C685 C682 1.403 . S
C685 C686 1.392 . S
C685 C689 1.495 1_545 S
C686 C685 1.392 . S
C686 C687 1.385 . S
C686 C688 1.478 . S
C687 H681 0.930 . S
C687 C683 1.400 . S
C687 C686 1.385 . S
C688 C686 1.478 . S
C688 C690 1.381 . S
C688 C694 1.383 . S
C689 C685 1.495 1_565 S
C689 H695 0.959 . S
C689 H696 0.961 . S
C689 H697 0.960 . S
C690 C688 1.381 . S
C690 C691 1.393 1_545 S
C690 H698 0.930 1_545 S
C691 C690 1.393 1_565 S
C691 C692 1.378 1_565 S
C691 H699 0.936 . S
C692 C691 1.378 1_545 S
C692 C693 1.377 . S
C693 H677 0.930 . S
C693 C692 1.377 . S
C693 C694 1.379 . S
C694 H678 0.931 . S
C694 C688 1.383 . S
C694 C693 1.379 . S
H695 C689 0.959 . S
H696 C689 0.961 . S
H697 C689 0.960 . S
H698 C690 0.930 1_565 S
H699 C691 0.936 . S
H700 C708 0.929 . S
H701 C710 0.930 . S
H702 C712 0.930 . S
H703 C715 0.929 . S
H704 C718 0.930 . S
H705 C720 0.960 . S
H706 C720 0.960 . S
H707 C720 0.960 . S
C708 H700 0.929 . S
C708 C709 1.377 . S
C708 C710 1.384 . S
C709 C708 1.377 . S
C709 C715 1.390 . S
C710 H701 0.930 . S
C710 C708 1.384 . S
C710 C711 1.372 . S
C711 C710 1.372 . S
C711 C712 1.400 . S
C711 C716 1.490 . S
C712 H702 0.930 . S
C712 C711 1.400 . S
C712 C715 1.386 . S
H713 C729 0.930 . S
H714 C730 0.931 . S
C715 H703 0.929 . S
C715 C709 1.390 . S
C715 C712 1.386 . S
C716 C711 1.490 . S
C716 C718 1.395 . S
C716 C719 1.403 . S
H717 C723 0.930 . S
C718 H704 0.930 . S
C718 C716 1.395 . S
C718 C721 1.403 . S
C719 C716 1.403 . S
C719 C720 1.524 . S
C719 C723 1.400 . S
C720 H705 0.960 . S
C720 H706 0.960 . S
C720 H707 0.960 . S
C720 C719 1.524 . S
C721 C718 1.403 . S
C721 C722 1.392 . S
C721 C725 1.495 . S
C722 C721 1.392 . S
C722 C723 1.385 . S
C722 C724 1.478 . S
C723 H717 0.930 . S
C723 C719 1.400 . S
C723 C722 1.385 . S
C724 C722 1.478 . S
C724 C726 1.381 . S
C724 C730 1.383 . S
C725 C721 1.495 . S
C725 H731 0.959 . S
C725 H732 0.961 . S
C725 H733 0.960 . S
C726 C724 1.381 . S
C726 C727 1.394 . S
C726 H734 0.930 . S
C727 C726 1.394 . S
C727 C728 1.383 . S
C727 H735 0.929 . S
C728 C727 1.383 . S
C728 C729 1.377 . S
C729 H713 0.930 . S
C729 C728 1.377 . S
C729 C730 1.379 . S
C730 H714 0.931 . S
C730 C724 1.383 . S
C730 C729 1.379 . S
H731 C725 0.959 . S
H732 C725 0.961 . S
H733 C725 0.960 . S
H734 C726 0.930 . S
H735 C727 0.929 . S
H736 C744 0.929 . S
H737 C746 0.930 . S
H738 C748 0.930 . S
H739 C751 0.929 . S
H740 C754 0.930 . S
H741 C756 0.960 . S
H742 C756 0.960 . S
H743 C756 0.960 . S
C744 H736 0.929 . S
C744 C745 1.377 . S
C744 C746 1.384 . S
C745 C744 1.377 . S
C745 C751 1.390 . S
C746 H737 0.930 . S
C746 C744 1.384 . S
C746 C747 1.372 . S
C747 C746 1.372 . S
C747 C748 1.400 . S
C747 C752 1.490 . S
C748 H738 0.930 . S
C748 C747 1.400 . S
C748 C751 1.386 . S
H749 C765 0.930 . S
H750 C766 0.931 . S
C751 H739 0.929 . S
C751 C745 1.390 . S
C751 C748 1.386 . S
C752 C747 1.490 . S
C752 C754 1.395 . S
C752 C755 1.403 . S
H753 C759 0.930 . S
C754 H740 0.930 . S
C754 C752 1.395 . S
C754 C757 1.403 . S
C755 C752 1.403 . S
C755 C756 1.524 . S
C755 C759 1.400 . S
C756 H741 0.960 . S
C756 H742 0.960 . S
C756 H743 0.960 . S
C756 C755 1.524 . S
C757 C754 1.403 . S
C757 C758 1.392 . S
C757 C761 1.495 . S
C758 C757 1.392 . S
C758 C759 1.385 . S
C758 C760 1.478 . S
C759 H753 0.930 . S
C759 C755 1.400 . S
C759 C758 1.385 . S
C760 C758 1.478 . S
C760 C762 1.381 . S
C760 C766 1.383 . S
C761 C757 1.495 . S
C761 H767 0.959 . S
C761 H768 0.961 . S
C761 H769 0.960 . S
C762 C760 1.381 . S
C762 C763 1.394 . S
C762 H770 0.930 . S
C763 C762 1.394 . S
C763 C764 1.383 . S
C763 H771 0.929 . S
C764 C763 1.383 . S
C764 C765 1.377 . S
C765 H749 0.930 . S
C765 C764 1.377 . S
C765 C766 1.379 . S
C766 H750 0.931 . S
C766 C760 1.383 . S
C766 C765 1.379 . S
H767 C761 0.959 . S
H768 C761 0.961 . S
H769 C761 0.960 . S
H770 C762 0.930 . S
H771 C763 0.929 . S
H772 C780 0.929 . S
H773 C782 0.930 . S
H774 C784 0.930 . S
H775 C787 0.929 . S
H776 C790 0.955 . S
H777 C792 0.960 . S
H778 C792 0.960 . S
H779 C792 0.960 . S
C780 H772 0.929 . S
C780 C781 1.377 . S
C780 C782 1.384 . S
C781 C780 1.377 . S
C781 C787 1.390 . S
C782 H773 0.930 . S
C782 C780 1.384 . S
C782 C783 1.372 . S
C783 C782 1.372 . S
C783 C784 1.400 . S
C783 C788 1.490 . S
C784 H774 0.930 . S
C784 C783 1.400 . S
C784 C787 1.386 . S
H785 C801 0.930 . S
H786 C802 0.931 . S
C787 H775 0.929 . S
C787 C781 1.390 . S
C787 C784 1.386 . S
C788 C783 1.490 . S
C788 C790 1.395 . S
C788 C791 1.403 . S
H789 C795 0.930 . S
C790 H776 0.955 . S
C790 C788 1.395 . S
C790 C793 1.403 . S
C791 C788 1.403 . S
C791 C792 1.524 . S
C791 C795 1.400 . S
C792 H777 0.960 . S
C792 H778 0.960 . S
C792 H779 0.960 . S
C792 C791 1.524 . S
C793 C790 1.403 . S
C793 C794 1.392 . S
C793 C797 1.495 1_556 S
C794 C793 1.392 . S
C794 C795 1.385 . S
C794 C796 1.478 . S
C795 H789 0.930 . S
C795 C791 1.400 . S
C795 C794 1.385 . S
C796 C794 1.478 . S
C796 C798 1.381 . S
C796 C802 1.383 1_565 S
C797 C793 1.495 1_554 S
C797 H803 0.959 . S
C797 H804 0.961 . S
C797 H805 0.960 . S
C798 C796 1.381 . S
C798 C799 1.394 . S
C798 H806 0.930 . S
C799 C798 1.394 . S
C799 C800 1.383 . S
C799 H807 0.929 . S
C800 C799 1.383 . S
C800 C801 1.377 1_565 S
C801 H785 0.930 . S
C801 C800 1.377 1_545 S
C801 C802 1.379 . S
C802 H786 0.931 . S
C802 C796 1.383 1_545 S
C802 C801 1.379 . S
H803 C797 0.959 . S
H804 C797 0.961 . S
H805 C797 0.960 . S
H806 C798 0.930 . S
H807 C799 0.929 . S
H808 C816 0.929 . S
H809 C818 0.930 . S
H810 C820 0.930 . S
H811 C823 0.929 . S
H812 C826 0.930 . S
H813 C828 0.960 . S
H814 C828 0.960 . S
H815 C828 0.960 . S
C816 H808 0.929 . S
C816 C817 1.377 . S
C816 C818 1.384 . S
C817 C816 1.377 . S
C817 C823 1.390 . S
C818 H809 0.930 . S
C818 C816 1.384 . S
C818 C819 1.372 . S
C819 C818 1.372 . S
C819 C820 1.400 . S
C819 C824 1.490 . S
C820 H810 0.930 . S
C820 C819 1.400 . S
C820 C823 1.386 . S
H821 C837 0.930 . S
H822 C838 0.931 . S
C823 H811 0.929 . S
C823 C817 1.390 . S
C823 C820 1.386 . S
C824 C819 1.490 . S
C824 C826 1.395 . S
C824 C827 1.403 . S
H825 C831 0.930 . S
C826 H812 0.930 . S
C826 C824 1.395 . S
C826 C829 1.403 . S
C827 C824 1.403 . S
C827 C828 1.524 . S
C827 C831 1.400 . S
C828 H813 0.960 . S
C828 H814 0.960 . S
C828 H815 0.960 . S
C828 C827 1.524 . S
C829 C826 1.403 . S
C829 C830 1.392 . S
C829 C833 1.495 1_545 S
C830 C829 1.392 . S
C830 C831 1.385 . S
C830 C832 1.478 . S
C831 H825 0.930 . S
C831 C827 1.400 . S
C831 C830 1.385 . S
C832 C830 1.478 . S
C832 C834 1.381 . S
C832 C838 1.383 . S
C833 C829 1.495 1_565 S
C833 H839 0.959 . S
C833 H840 0.961 . S
C833 H841 0.960 . S
C834 C832 1.381 . S
C834 C835 1.394 . S
C834 H842 0.930 . S
C835 C834 1.394 . S
C835 C836 1.383 . S
C835 H843 0.929 . S
C836 C835 1.383 . S
C836 C837 1.377 . S
C837 H821 0.930 . S
C837 C836 1.377 . S
C837 C838 1.379 . S
C838 H822 0.931 . S
C838 C832 1.383 . S
C838 C837 1.379 . S
H839 C833 0.959 . S
H840 C833 0.961 . S
H841 C833 0.960 . S
H842 C834 0.930 . S
H843 C835 0.929 . S
H844 C852 0.929 . S
H845 C854 0.930 . S
H846 C856 0.930 . S
H847 C859 0.929 . S
H848 C862 0.930 . S
H849 C864 0.960 . S
H850 C864 0.960 . S
H851 C864 0.960 . S
C852 H844 0.929 . S
C852 C853 1.377 . S
C852 C854 1.384 . S
C853 C852 1.377 . S
C853 C859 1.390 . S
C854 H845 0.930 . S
C854 C852 1.384 . S
C854 C855 1.372 . S
C855 C854 1.372 . S
C855 C856 1.400 . S
C855 C860 1.490 . S
C856 H846 0.930 . S
C856 C855 1.400 . S
C856 C859 1.386 . S
H857 C873 0.930 1_556 S
H858 C874 0.931 . S
C859 H847 0.929 . S
C859 C853 1.390 . S
C859 C856 1.386 . S
C860 C855 1.490 . S
C860 C862 1.395 . S
C860 C863 1.403 . S
H861 C867 0.930 . S
C862 H848 0.930 . S
C862 C860 1.395 . S
C862 C865 1.403 . S
C863 C860 1.403 . S
C863 C864 1.524 . S
C863 C867 1.400 . S
C864 H849 0.960 . S
C864 H850 0.960 . S
C864 H851 0.960 . S
C864 C863 1.524 . S
C865 C862 1.403 . S
C865 C866 1.392 . S
C865 C869 1.495 . S
C866 C865 1.392 . S
C866 C867 1.385 . S
C866 C868 1.478 . S
C867 H861 0.930 . S
C867 C863 1.400 . S
C867 C866 1.385 . S
C868 C866 1.478 . S
C868 C870 1.381 . S
C868 C874 1.383 . S
C869 C865 1.495 . S
C869 H875 0.959 . S
C869 H876 0.961 . S
C869 H877 0.960 . S
C870 C868 1.381 . S
C870 C871 1.394 . S
C870 H878 0.930 . S
C871 C870 1.394 . S
C871 C872 1.383 . S
C871 H879 0.929 . S
C872 C871 1.383 . S
C872 C873 1.377 . S
C873 H857 0.930 1_554 S
C873 C872 1.377 . S
C873 C874 1.379 . S
C874 H858 0.931 . S
C874 C868 1.383 . S
C874 C873 1.379 . S
H875 C869 0.959 . S
H876 C869 0.961 . S
H877 C869 0.960 . S
H878 C870 0.930 . S
H879 C871 0.929 . S
H880 C888 0.929 . S
H881 C890 0.930 . S
H882 C892 0.930 . S
H883 C895 0.929 . S
H884 C898 0.930 . S
H885 C900 0.960 . S
H886 C900 0.960 . S
H887 C900 0.960 . S
C888 H880 0.929 . S
C888 C889 1.377 . S
C888 C890 1.384 . S
C889 C888 1.377 . S
C889 C895 1.390 . S
C890 H881 0.930 . S
C890 C888 1.384 . S
C890 C891 1.372 . S
C891 C890 1.372 . S
C891 C892 1.400 . S
C891 C896 1.490 . S
C892 H882 0.930 . S
C892 C891 1.400 . S
C892 C895 1.386 . S
H893 C909 0.930 . S
H894 C910 0.931 . S
C895 H883 0.929 . S
C895 C889 1.390 . S
C895 C892 1.386 . S
C896 C891 1.490 . S
C896 C898 1.395 . S
C896 C899 1.403 . S
H897 C903 0.930 . S
C898 H884 0.930 . S
C898 C896 1.395 . S
C898 C901 1.403 . S
C899 C896 1.403 . S
C899 C900 1.524 . S
C899 C903 1.400 . S
C900 H885 0.960 . S
C900 H886 0.960 . S
C900 H887 0.960 . S
C900 C899 1.524 . S
C901 C898 1.403 . S
C901 C902 1.392 . S
C901 C905 1.495 . S
C902 C901 1.392 . S
C902 C903 1.385 . S
C902 C904 1.478 . S
C903 H897 0.930 . S
C903 C899 1.400 . S
C903 C902 1.385 . S
C904 C902 1.478 . S
C904 C906 1.381 . S
C904 C910 1.383 . S
C905 C901 1.495 . S
C905 H911 0.959 . S
C905 H912 0.961 . S
C905 H913 0.960 . S
C906 C904 1.381 . S
C906 C907 1.394 . S
C906 H914 0.930 . S
C907 C906 1.394 . S
C907 C908 1.383 . S
C907 H915 0.929 . S
C908 C907 1.383 . S
C908 C909 1.377 . S
C909 H893 0.930 . S
C909 C908 1.377 . S
C909 C910 1.379 . S
C910 H894 0.931 . S
C910 C904 1.383 . S
C910 C909 1.379 . S
H911 C905 0.959 . S
H912 C905 0.961 . S
H913 C905 0.960 . S
H914 C906 0.930 . S
H915 C907 0.929 . S
H916 C924 0.929 . S
H917 C926 0.930 . S
H918 C928 0.930 . S
H919 C931 0.929 . S
H920 C934 0.930 1_554 S
H921 C936 0.960 . S
H922 C936 0.960 . S
H923 C936 0.960 . S
C924 H916 0.929 . S
C924 C925 1.377 1_455 S
C924 C926 1.384 . S
C925 C924 1.377 1_655 S
C925 C931 1.390 . S
C926 H917 0.930 . S
C926 C924 1.384 . S
C926 C927 1.372 1_455 S
C927 C926 1.372 1_655 S
C927 C928 1.400 . S
C927 C932 1.490 . S
C928 H918 0.930 . S
C928 C927 1.400 . S
C928 C931 1.386 . S
H929 C945 0.930 . S
H930 C946 0.931 . S
C931 H919 0.929 . S
C931 C925 1.390 . S
C931 C928 1.386 . S
C932 C927 1.490 . S
C932 C934 1.395 1_655 S
C932 C935 1.403 . S
H933 C939 0.930 . S
C934 H920 0.930 1_556 S
C934 C932 1.395 1_455 S
C934 C937 1.403 1_556 S
C935 C932 1.403 . S
C935 C936 1.524 . S
C935 C939 1.400 . S
C936 H921 0.960 . S
C936 H922 0.960 . S
C936 H923 0.960 . S
C936 C935 1.524 . S
C937 C934 1.403 1_554 S
C937 C938 1.392 1_554 S
C937 C941 1.495 . S
C938 C937 1.392 1_556 S
C938 C939 1.385 1_455 S
C938 C940 1.478 . S
C939 H933 0.930 . S
C939 C935 1.400 . S
C939 C938 1.385 1_655 S
C940 C938 1.478 . S
C940 C942 1.381 . S
C940 C946 1.383 1_456 S
C941 C937 1.495 . S
C941 H947 0.959 . S
C941 H948 0.961 . S
C941 H949 0.960 . S
C942 C940 1.381 . S
C942 C943 1.394 . S
C942 H950 0.930 . S
C943 C942 1.394 . S
C943 C944 1.383 1_556 S
C943 H951 0.929 . S
C944 C943 1.383 1_554 S
C944 C945 1.377 1_455 S
C945 H929 0.930 . S
C945 C944 1.377 1_655 S
C945 C946 1.379 . S
C946 H930 0.931 . S
C946 C940 1.383 1_654 S
C946 C945 1.379 . S
H947 C941 0.959 . S
H948 C941 0.961 . S
H949 C941 0.960 . S
H950 C942 0.930 . S
H951 C943 0.929 . S
H952 C960 0.929 . S
H953 C962 0.930 . S
H954 C964 0.930 . S
H955 C967 0.929 . S
H956 C970 0.930 . S
H957 C972 0.960 . S
H958 C972 0.960 . S
H959 C972 0.960 . S
C960 H952 0.929 . S
C960 C961 1.377 . S
C960 C962 1.384 . S
C961 C960 1.377 . S
C961 C967 1.390 . S
C962 H953 0.930 . S
C962 C960 1.384 . S
C962 C963 1.372 . S
C963 C962 1.372 . S
C963 C964 1.400 . S
C963 C968 1.490 . S
C964 H954 0.930 . S
C964 C963 1.400 . S
C964 C967 1.386 . S
H965 C981 0.930 . S
H966 C982 0.931 . S
C967 H955 0.929 . S
C967 C961 1.390 . S
C967 C964 1.386 . S
C968 C963 1.490 . S
C968 C970 1.395 . S
C968 C971 1.403 . S
H969 C975 0.930 . S
C970 H956 0.930 . S
C970 C968 1.395 . S
C970 C973 1.403 . S
C971 C968 1.403 . S
C971 C972 1.524 . S
C971 C975 1.400 . S
C972 H957 0.960 . S
C972 H958 0.960 . S
C972 H959 0.960 . S
C972 C971 1.524 . S
C973 C970 1.403 . S
C973 C974 1.392 . S
C973 C977 1.495 . S
C974 C973 1.392 . S
C974 C975 1.385 . S
C974 C976 1.478 . S
C975 H969 0.930 . S
C975 C971 1.400 . S
C975 C974 1.385 . S
C976 C974 1.478 . S
C976 C978 1.381 . S
C976 C982 1.383 . S
C977 C973 1.495 . S
C977 H983 0.959 1_554 S
C977 H984 0.961 1_554 S
C977 H985 0.960 . S
C978 C976 1.381 . S
C978 C979 1.394 . S
C978 H986 0.930 . S
C979 C978 1.394 . S
C979 C980 1.383 . S
C979 H987 0.929 . S
C980 C979 1.383 . S
C980 C981 1.377 . S
C981 H965 0.930 . S
C981 C980 1.377 . S
C981 C982 1.379 . S
C982 H966 0.931 . S
C982 C976 1.383 . S
C982 C981 1.379 . S
H983 C977 0.959 1_556 S
H984 C977 0.961 1_556 S
H985 C977 0.960 . S
H986 C978 0.930 . S
H987 C979 0.929 . S
H988 C996 0.929 . S
H989 C998 0.930 . S
H990 C1000 0.930 . S
H991 C1003 0.929 . S
H992 C1006 0.930 . S
H993 C1008 0.960 . S
H994 C1008 0.960 . S
H995 C1008 0.960 . S
C996 H988 0.929 . S
C996 C997 1.377 . S
C996 C998 1.384 . S
C997 C996 1.377 . S
C997 C1003 1.390 . S
C998 H989 0.930 . S
C998 C996 1.384 . S
C998 C999 1.372 . S
C999 C998 1.372 . S
C999 C1000 1.400 . S
C999 C1004 1.490 . S
C1000 H990 0.930 . S
C1000 C999 1.400 . S
C1000 C1003 1.386 . S
H1001 C1017 0.930 . S
H1002 C1018 0.931 . S
C1003 H991 0.929 . S
C1003 C997 1.390 . S
C1003 C1000 1.386 . S
C1004 C999 1.490 . S
C1004 C1006 1.395 . S
C1004 C1007 1.403 . S
H1005 C1011 0.930 . S
C1006 H992 0.930 . S
C1006 C1004 1.395 . S
C1006 C1009 1.403 . S
C1007 C1004 1.403 . S
C1007 C1008 1.524 . S
C1007 C1011 1.400 . S
C1008 H993 0.960 . S
C1008 H994 0.960 . S
C1008 H995 0.960 . S
C1008 C1007 1.524 . S
C1009 C1006 1.403 . S
C1009 C1010 1.392 . S
C1009 C1013 1.495 . S
C1010 C1009 1.392 . S
C1010 C1011 1.385 . S
C1010 C1012 1.478 . S
C1011 H1005 0.930 . S
C1011 C1007 1.400 . S
C1011 C1010 1.385 . S
C1012 C1010 1.478 . S
C1012 C1014 1.381 . S
C1012 C1018 1.383 . S
C1013 C1009 1.495 . S
C1013 H1019 0.959 . S
C1013 H1020 0.961 . S
C1013 H1021 0.960 . S
C1014 C1012 1.381 . S
C1014 C1015 1.394 . S
C1014 H1022 0.930 . S
C1015 C1014 1.394 . S
C1015 C1016 1.383 . S
C1015 H1023 0.929 . S
C1016 C1015 1.383 . S
C1016 C1017 1.377 . S
C1017 H1001 0.930 . S
C1017 C1016 1.377 . S
C1017 C1018 1.379 . S
C1018 H1002 0.931 . S
C1018 C1012 1.383 . S
C1018 C1017 1.379 . S
H1019 C1013 0.959 . S
H1020 C1013 0.961 . S
H1021 C1013 0.960 . S
H1022 C1014 0.930 . S
H1023 C1015 0.929 . S
H1024 C1032 0.929 . S
H1025 C1034 0.930 . S
H1026 C1036 0.930 . S
H1027 C1039 0.929 . S
H1028 C1042 0.930 . S
H1029 C1044 0.960 . S
H1030 C1044 0.960 . S
H1031 C1044 0.960 . S
C1032 H1024 0.929 . S
C1032 C1033 1.377 . S
C1032 C1034 1.384 . S
C1033 C1032 1.377 . S
C1033 C1039 1.390 . S
C1034 H1025 0.930 . S
C1034 C1032 1.384 . S
C1034 C1035 1.372 . S
C1035 C1034 1.372 . S
C1035 C1036 1.400 . S
C1035 C1040 1.490 . S
C1036 H1026 0.930 . S
C1036 C1035 1.400 . S
C1036 C1039 1.386 . S
H1037 C1053 0.930 . S
H1038 C1054 0.931 . S
C1039 H1027 0.929 . S
C1039 C1033 1.390 . S
C1039 C1036 1.386 . S
C1040 C1035 1.490 . S
C1040 C1042 1.395 . S
C1040 C1043 1.403 . S
H1041 C1047 0.930 . S
C1042 H1028 0.930 . S
C1042 C1040 1.395 . S
C1042 C1045 1.403 . S
C1043 C1040 1.403 . S
C1043 C1044 1.524 . S
C1043 C1047 1.400 . S
C1044 H1029 0.960 . S
C1044 H1030 0.960 . S
C1044 H1031 0.960 . S
C1044 C1043 1.524 . S
C1045 C1042 1.403 . S
C1045 C1046 1.392 . S
C1045 C1049 1.495 . S
C1046 C1045 1.392 . S
C1046 C1047 1.385 . S
C1046 C1048 1.478 . S
C1047 H1041 0.930 . S
C1047 C1043 1.400 . S
C1047 C1046 1.385 . S
C1048 C1046 1.478 . S
C1048 C1050 1.381 . S
C1048 C1054 1.383 . S
C1049 C1045 1.495 . S
C1049 H1055 0.959 . S
C1049 H1056 0.961 . S
C1049 H1057 0.960 . S
C1050 C1048 1.381 . S
C1050 C1051 1.394 . S
C1050 H1058 0.930 . S
C1051 C1050 1.394 . S
C1051 C1052 1.383 . S
C1051 H1059 0.929 . S
C1052 C1051 1.383 . S
C1052 C1053 1.377 . S
C1053 H1037 0.930 . S
C1053 C1052 1.377 . S
C1053 C1054 1.379 . S
C1054 H1038 0.931 . S
C1054 C1048 1.383 . S
C1054 C1053 1.379 . S
H1055 C1049 0.959 . S
H1056 C1049 0.961 . S
H1057 C1049 0.960 . S
H1058 C1050 0.930 . S
H1059 C1051 0.929 . S
C205 C9 2.096 . S
C224 C122 2.035 . S
C241 C21 1.583 . S
C260 C146 1.563 . S
C296 C166 1.054 . S
C277 C30 1.032 . S
C313 C43 1.071 . S
C332 C189 1.133 . S
C368 C148 1.582 . S
C349 C4 1.610 . S
C404 C124 2.263 . S
C385 C22 2.294 . S
C440 C192 1.173 . S
C421 C34 1.229 . S
C476 C169 1.311 . S
C457 C48 1.361 . S
C493 C8 1.503 . S
C512 C194 1.482 . S
C548 C143 1.653 . S
C529 C35 1.642 . S
C565 C47 1.710 . S
C584 C121 1.707 . S
C601 C17 1.202 . S
C620 C171 1.199 . S
C656 C125 1.650 . S
C637 C60 1.657 . S
C673 C74 1.881 . S
C692 C147 1.865 . S
C709 C82 1.169 . S
C728 C167 1.188 . S
C745 C100 2.033 . S
C764 C190 2.056 . S
C781 C61 1.874 . S
C800 C145 1.825 . S
C836 C123 1.550 . S
C817 C73 1.543 . S
C872 C193 1.463 . S
C853 C87 1.498 . S
C908 C170 1.017 . S
C889 C95 0.959 . S
C925 C56 1.838 . S
C944 C191 1.903 . S
C980 C144 1.592 . S
C961 C86 1.584 . S
C1016 C120 1.449 . S
C997 C99 1.423 . S
C1033 C69 1.691 . S
C1052 C168 1.656 . S
