# Generated by pormake.
# Topology eea, (3,6)-cn, num edge types: 1
# Building blocks:
#     Node 0, Type 0, BuildingBlock: KAKCAD_clean_linker_0, # of connection points: 3
#     Node 1, Type 0, BuildingBlock: KAKCAD_clean_linker_0, # of connection points: 3
#     Node 2, Type 0, BuildingBlock: KAKCAD_clean_linker_0, # of connection points: 3
#     Node 3, Type 0, BuildingBlock: KAKCAD_clean_linker_0, # of connection points: 3
#     Node 4, Type 0, BuildingBlock: KAKCAD_clean_linker_0, # of connection points: 3
#     Node 5, Type 0, BuildingBlock: KAKCAD_clean_linker_0, # of connection points: 3
#     Node 6, Type 0, BuildingBlock: KAKCAD_clean_linker_0, # of connection points: 3
#     Node 7, Type 0, BuildingBlock: KAKCAD_clean_linker_0, # of connection points: 3
#     Node 8, Type 0, BuildingBlock: KAKCAD_clean_linker_0, # of connection points: 3
#     Node 9, Type 0, BuildingBlock: KAKCAD_clean_linker_0, # of connection points: 3
#     Node 10, Type 0, BuildingBlock: KAKCAD_clean_linker_0, # of connection points: 3
#     Node 11, Type 0, BuildingBlock: KAKCAD_clean_linker_0, # of connection points: 3
#     Node 12, Type 0, BuildingBlock: KAKCAD_clean_linker_0, # of connection points: 3
#     Node 13, Type 0, BuildingBlock: KAKCAD_clean_linker_0, # of connection points: 3
#     Node 14, Type 0, BuildingBlock: KAKCAD_clean_linker_0, # of connection points: 3
#     Node 15, Type 0, BuildingBlock: KAKCAD_clean_linker_0, # of connection points: 3
#     Node 16, Type 0, BuildingBlock: KAKCAD_clean_linker_0, # of connection points: 3
#     Node 17, Type 0, BuildingBlock: KAKCAD_clean_linker_0, # of connection points: 3
#     Node 18, Type 1, BuildingBlock: CUWYAW_clean_sbu_0, # of connection points: 6
#     Node 19, Type 1, BuildingBlock: CUWYAW_clean_sbu_0, # of connection points: 6
#     Node 20, Type 1, BuildingBlock: CUWYAW_clean_sbu_0, # of connection points: 6
#     Node 21, Type 1, BuildingBlock: CUWYAW_clean_sbu_0, # of connection points: 6
#     Node 22, Type 1, BuildingBlock: CUWYAW_clean_sbu_0, # of connection points: 6
#     Node 23, Type 1, BuildingBlock: CUWYAW_clean_sbu_0, # of connection points: 6
#     Node 24, Type 1, BuildingBlock: CUWYAW_clean_sbu_0, # of connection points: 6
#     Node 25, Type 1, BuildingBlock: CUWYAW_clean_sbu_0, # of connection points: 6
#     Node 26, Type 1, BuildingBlock: CUWYAW_clean_sbu_0, # of connection points: 6
#     Edge 27, Type (0, 1), BuildingBlock: EZIPEK_clean_linker_0, # of connection points: 2
#     Edge 28, Type (0, 1), BuildingBlock: EZIPEK_clean_linker_0, # of connection points: 2
#     Edge 29, Type (0, 1), BuildingBlock: EZIPEK_clean_linker_0, # of connection points: 2
#     Edge 30, Type (0, 1), BuildingBlock: EZIPEK_clean_linker_0, # of connection points: 2
#     Edge 31, Type (0, 1), BuildingBlock: EZIPEK_clean_linker_0, # of connection points: 2
#     Edge 32, Type (0, 1), BuildingBlock: EZIPEK_clean_linker_0, # of connection points: 2
#     Edge 33, Type (0, 1), BuildingBlock: EZIPEK_clean_linker_0, # of connection points: 2
#     Edge 34, Type (0, 1), BuildingBlock: EZIPEK_clean_linker_0, # of connection points: 2
#     Edge 35, Type (0, 1), BuildingBlock: EZIPEK_clean_linker_0, # of connection points: 2
#     Edge 36, Type (0, 1), BuildingBlock: EZIPEK_clean_linker_0, # of connection points: 2
#     Edge 37, Type (0, 1), BuildingBlock: EZIPEK_clean_linker_0, # of connection points: 2
#     Edge 38, Type (0, 1), BuildingBlock: EZIPEK_clean_linker_0, # of connection points: 2
#     Edge 39, Type (0, 1), BuildingBlock: EZIPEK_clean_linker_0, # of connection points: 2
#     Edge 40, Type (0, 1), BuildingBlock: EZIPEK_clean_linker_0, # of connection points: 2
#     Edge 41, Type (0, 1), BuildingBlock: EZIPEK_clean_linker_0, # of connection points: 2
#     Edge 42, Type (0, 1), BuildingBlock: EZIPEK_clean_linker_0, # of connection points: 2
#     Edge 43, Type (0, 1), BuildingBlock: EZIPEK_clean_linker_0, # of connection points: 2
#     Edge 44, Type (0, 1), BuildingBlock: EZIPEK_clean_linker_0, # of connection points: 2
#     Edge 45, Type (0, 1), BuildingBlock: EZIPEK_clean_linker_0, # of connection points: 2
#     Edge 46, Type (0, 1), BuildingBlock: EZIPEK_clean_linker_0, # of connection points: 2
#     Edge 47, Type (0, 1), BuildingBlock: EZIPEK_clean_linker_0, # of connection points: 2
#     Edge 48, Type (0, 1), BuildingBlock: EZIPEK_clean_linker_0, # of connection points: 2
#     Edge 49, Type (0, 1), BuildingBlock: EZIPEK_clean_linker_0, # of connection points: 2
#     Edge 50, Type (0, 1), BuildingBlock: EZIPEK_clean_linker_0, # of connection points: 2
#     Edge 51, Type (0, 1), BuildingBlock: EZIPEK_clean_linker_0, # of connection points: 2
#     Edge 52, Type (0, 1), BuildingBlock: EZIPEK_clean_linker_0, # of connection points: 2
#     Edge 53, Type (0, 1), BuildingBlock: EZIPEK_clean_linker_0, # of connection points: 2
#     Edge 54, Type (0, 1), BuildingBlock: EZIPEK_clean_linker_0, # of connection points: 2
#     Edge 55, Type (0, 1), BuildingBlock: EZIPEK_clean_linker_0, # of connection points: 2
#     Edge 56, Type (0, 1), BuildingBlock: EZIPEK_clean_linker_0, # of connection points: 2
#     Edge 57, Type (0, 1), BuildingBlock: EZIPEK_clean_linker_0, # of connection points: 2
#     Edge 58, Type (0, 1), BuildingBlock: EZIPEK_clean_linker_0, # of connection points: 2
#     Edge 59, Type (0, 1), BuildingBlock: EZIPEK_clean_linker_0, # of connection points: 2
#     Edge 60, Type (0, 1), BuildingBlock: EZIPEK_clean_linker_0, # of connection points: 2
#     Edge 61, Type (0, 1), BuildingBlock: EZIPEK_clean_linker_0, # of connection points: 2
#     Edge 62, Type (0, 1), BuildingBlock: EZIPEK_clean_linker_0, # of connection points: 2
#     Edge 63, Type (0, 1), BuildingBlock: EZIPEK_clean_linker_0, # of connection points: 2
#     Edge 64, Type (0, 1), BuildingBlock: EZIPEK_clean_linker_0, # of connection points: 2
#     Edge 65, Type (0, 1), BuildingBlock: EZIPEK_clean_linker_0, # of connection points: 2
#     Edge 66, Type (0, 1), BuildingBlock: EZIPEK_clean_linker_0, # of connection points: 2
#     Edge 67, Type (0, 1), BuildingBlock: EZIPEK_clean_linker_0, # of connection points: 2
#     Edge 68, Type (0, 1), BuildingBlock: EZIPEK_clean_linker_0, # of connection points: 2
#     Edge 69, Type (0, 1), BuildingBlock: EZIPEK_clean_linker_0, # of connection points: 2
#     Edge 70, Type (0, 1), BuildingBlock: EZIPEK_clean_linker_0, # of connection points: 2
#     Edge 71, Type (0, 1), BuildingBlock: EZIPEK_clean_linker_0, # of connection points: 2
#     Edge 72, Type (0, 1), BuildingBlock: EZIPEK_clean_linker_0, # of connection points: 2
#     Edge 73, Type (0, 1), BuildingBlock: EZIPEK_clean_linker_0, # of connection points: 2
#     Edge 74, Type (0, 1), BuildingBlock: EZIPEK_clean_linker_0, # of connection points: 2
#     Edge 75, Type (0, 1), BuildingBlock: EZIPEK_clean_linker_0, # of connection points: 2
#     Edge 76, Type (0, 1), BuildingBlock: EZIPEK_clean_linker_0, # of connection points: 2
#     Edge 77, Type (0, 1), BuildingBlock: EZIPEK_clean_linker_0, # of connection points: 2
#     Edge 78, Type (0, 1), BuildingBlock: EZIPEK_clean_linker_0, # of connection points: 2
#     Edge 79, Type (0, 1), BuildingBlock: EZIPEK_clean_linker_0, # of connection points: 2
#     Edge 80, Type (0, 1), BuildingBlock: EZIPEK_clean_linker_0, # of connection points: 2
# Relax obj value: 0.034
# Max RMSD: 0.132
# Mean RMSD: 0.087
data_MOF--net-eea--node1-CUWYAW_clean_sbu_0--node2-KAKCAD_clean_linker_0--edge1-EZIPEK_clean_linker_0
_symmetry_space_group_name_H-M    P1
_symmetry_Int_Tables_number       1
_symmetry_cell_setting            triclinic
loop_
_symmetry_equiv_pos_as_xyz
'x, y, z'
_cell_length_a     48.76961
_cell_length_b     48.329616
_cell_length_c     74.390512
_cell_angle_alpha  93.649751
_cell_angle_beta   93.380537
_cell_angle_gamma 119.9079
loop_
_atom_site_label
_atom_site_type_symbol
_atom_site_fract_x
_atom_site_fract_y
_atom_site_fract_z
_atom_type_partial_charge
C0 C 0.26035 0.1535 0.4854 0.0
C1 C 0.28383 0.14659 0.49142 0.0
C2 C 0.25077 0.14974 0.46689 0.0
C3 C 0.2644 0.13878 0.45417 0.0
C4 C 0.28808 0.13207 0.46032 0.0
C5 C 0.29778 0.13603 0.47881 0.0
C6 C 0.25332 0.13351 0.43459 0.0
C7 C 0.24869 0.15642 0.42632 0.0
C8 C 0.23741 0.15114 0.40787 0.0
C9 C 0.2307 0.12246 0.39778 0.0
C10 C 0.23545 0.09944 0.40579 0.0
C11 C 0.24684 0.10522 0.42421 0.0
C12 C 0.22771 0.06904 0.39497 0.0
C13 C 0.2118 0.03954 0.40233 0.0
C14 C 0.23554 0.06922 0.37705 0.0
C15 C 0.2272 0.04053 0.36665 0.0
C16 C 0.21101 0.0112 0.374 0.0
C17 C 0.2318 0.17501 0.39913 0.0
C18 C 0.21881 0.19133 0.40844 0.0
C19 C 0.23823 0.18071 0.3811 0.0
C20 C 0.23067 0.20115 0.37238 0.0
C21 C 0.21689 0.21659 0.38155 0.0
C22 C 0.21158 0.21207 0.39974 0.0
C23 C 0.20354 0.01087 0.39192 0.0
H24 H 0.2494 0.16167 0.49503 0.0
H25 H 0.23225 0.15476 0.46256 0.0
H26 H 0.29921 0.1239 0.45082 0.0
H27 H 0.31602 0.13071 0.4833 0.0
H28 H 0.2544 0.1786 0.43421 0.0
H29 H 0.2504 0.0875 0.43053 0.0
H30 H 0.22074 0.11751 0.38376 0.0
H31 H 0.20505 0.03852 0.41599 0.0
H32 H 0.24813 0.09156 0.37107 0.0
H33 H 0.23309 0.04113 0.35281 0.0
H34 H 0.21325 0.18731 0.42225 0.0
H35 H 0.24883 0.16911 0.37364 0.0
H36 H 0.19088 0.98836 0.39774 0.0
H37 H 0.20093 0.22384 0.40701 0.0
H38 H 0.23507 0.20451 0.35836 0.0
C39 C 0.88251 0.17393 0.48604 0.0
C40 C 0.8772 0.15023 0.49759 0.0
C41 C 0.88984 0.17084 0.46836 0.0
C42 C 0.89144 0.14374 0.46195 0.0
C43 C 0.8871 0.12062 0.47375 0.0
C44 C 0.88026 0.12394 0.49144 0.0
C45 C 0.89536 0.13822 0.44269 0.0
C46 C 0.92046 0.16181 0.43434 0.0
C47 C 0.9241 0.15596 0.41611 0.0
C48 C 0.90223 0.12623 0.40632 0.0
C49 C 0.87671 0.10249 0.4144 0.0
C50 C 0.87353 0.10888 0.43261 0.0
C51 C 0.85362 0.07097 0.40394 0.0
C52 C 0.84462 0.06905 0.38535 0.0
C53 C 0.84042 0.04247 0.41244 0.0
C54 C 0.81882 0.01297 0.40265 0.0
C55 C 0.8104 0.01119 0.38408 0.0
C56 C 0.95109 0.18036 0.40725 0.0
C57 C 0.98222 0.19625 0.41605 0.0
C58 C 0.94606 0.18681 0.38956 0.0
C59 C 0.97165 0.20806 0.38069 0.0
C60 C 0.00277 0.22308 0.3893 0.0
C61 C 0.00787 0.21735 0.40711 0.0
C62 C 0.82344 0.03943 0.37551 0.0
H63 H 0.88013 0.19432 0.49055 0.0
H64 H 0.89293 0.18888 0.45949 0.0
H65 H 0.88844 0.09964 0.46915 0.0
H66 H 0.87627 0.10546 0.50017 0.0
H67 H 0.93721 0.18457 0.44205 0.0
H68 H 0.85361 0.09125 0.43897 0.0
H69 H 0.90572 0.12128 0.39249 0.0
H70 H 0.85373 0.09043 0.37838 0.0
H71 H 0.84714 0.04278 0.42661 0.0
H72 H 0.80908 0.99138 0.40948 0.0
H73 H 0.98686 0.19158 0.42961 0.0
H74 H 0.92231 0.1752 0.38252 0.0
H75 H 0.81718 0.03852 0.36118 0.0
H76 H 0.03176 0.22873 0.41393 0.0
H77 H 0.9673 0.21233 0.36697 0.0
C78 C 0.90012 0.73516 0.49231 0.0
C79 C 0.86935 0.71328 0.49631 0.0
C80 C 0.9054 0.74426 0.47477 0.0
C81 C 0.87995 0.73169 0.46096 0.0
C82 C 0.84933 0.70905 0.46498 0.0
C83 C 0.84409 0.7 0.48249 0.0
C84 C 0.88484 0.7435 0.44273 0.0
C85 C 0.91171 0.74875 0.43405 0.0
C86 C 0.91669 0.76093 0.41707 0.0
C87 C 0.89455 0.76824 0.40901 0.0
C88 C 0.86745 0.76267 0.41733 0.0
C89 C 0.86272 0.75026 0.43411 0.0
C90 C 0.84408 0.76994 0.40845 0.0
C91 C 0.85426 0.79992 0.402 0.0
C92 C 0.81151 0.7468 0.40618 0.0
C93 C 0.78957 0.75335 0.39737 0.0
C94 C 0.79979 0.78335 0.39099 0.0
C95 C 0.94491 0.7663 0.40765 0.0
C96 C 0.97487 0.77794 0.41744 0.0
C97 C 0.9423 0.76082 0.38862 0.0
C98 C 0.96902 0.76793 0.37961 0.0
C99 C 0.9989 0.78015 0.3894 0.0
C100 C 1.00155 0.78463 0.4084 0.0
C101 C 0.83226 0.80665 0.39346 0.0
H102 H 0.91986 0.74572 0.50287 0.0
H103 H 0.9292 0.76196 0.47218 0.0
H104 H 0.8293 0.69854 0.45462 0.0
H105 H 0.82021 0.68301 0.48535 0.0
H106 H 0.92833 0.74268 0.44037 0.0
H107 H 0.84221 0.74686 0.44074 0.0
H108 H 0.89827 0.77828 0.39616 0.0
H109 H 0.87921 0.81823 0.4037 0.0
H110 H 0.80311 0.72344 0.41092 0.0
H111 H 0.76461 0.73505 0.39552 0.0
H112 H 0.97795 0.78279 0.43205 0.0
H113 H 0.91956 0.75115 0.38061 0.0
H114 H 0.84057 0.82996 0.38866 0.0
H115 H 0.02446 0.79407 0.41619 0.0
H116 H 0.96646 0.76417 0.36495 0.0
C117 C 0.14055 0.2563 0.51725 0.0
C118 C 0.1354 0.2811 0.51256 0.0
C119 C 0.13404 0.24496 0.53421 0.0
C120 C 0.1224 0.25833 0.54692 0.0
C121 C 0.11664 0.28278 0.54199 0.0
C122 C 0.12304 0.29402 0.52496 0.0
C123 C 0.11704 0.24722 0.56534 0.0
C124 C 0.13867 0.2403 0.5745 0.0
C125 C 0.13379 0.22917 0.59169 0.0
C126 C 0.10678 0.22491 0.59972 0.0
C127 C 0.08503 0.23193 0.59093 0.0
C128 C 0.09041 0.24328 0.5738 0.0
C129 C 0.05671 0.22719 0.5998 0.0
C130 C 0.03747 0.19824 0.60705 0.0
C131 C 0.0494 0.25186 0.60169 0.0
C132 C 0.02379 0.2479 0.61105 0.0
C133 C 0.00474 0.219 0.61839 0.0
C134 C 0.15693 0.22209 0.6013 0.0
C135 C 0.1899 0.2425 0.60105 0.0
C136 C 0.14622 0.1949 0.61085 0.0
C137 C 0.16793 0.18832 0.61993 0.0
C138 C 0.20073 0.20874 0.6196 0.0
C139 C 0.21158 0.23586 0.61011 0.0
C140 C 0.0116 0.1941 0.61614 0.0
H141 H 0.14993 0.24593 0.50782 0.0
H142 H 0.13816 0.22568 0.53736 0.0
H143 H 0.10795 0.29381 0.55146 0.0
H144 H 0.11893 0.31321 0.52156 0.0
H145 H 0.15941 0.24355 0.56821 0.0
H146 H 0.0733 0.2481 0.56687 0.0
H147 H 0.10302 0.21688 0.61311 0.0
H148 H 0.04245 0.17877 0.60568 0.0
H149 H 0.06399 0.27448 0.59633 0.0
H150 H 0.01892 0.26742 0.61269 0.0
H151 H 0.19898 0.26387 0.59406 0.0
H152 H 0.12103 0.17845 0.61113 0.0
H153 H 0.99714 0.17159 0.62163 0.0
H154 H 0.23684 0.2519 0.60976 0.0
H155 H 0.15917 0.16721 0.62715 0.0
C156 C 0.70217 0.83061 0.52991 0.0
C157 C 0.7189 0.855 0.51889 0.0
C158 C 0.71282 0.83451 0.54828 0.0
C159 C 0.74008 0.86307 0.55592 0.0
C160 C 0.75721 0.88706 0.54472 0.0
C161 C 0.74679 0.88299 0.52635 0.0
C162 C 0.74955 0.86866 0.57571 0.0
C163 C 0.75259 0.8456 0.58486 0.0
C164 C 0.7612 0.85083 0.6037 0.0
C165 C 0.76526 0.8789 0.61327 0.0
C166 C 0.76412 0.90303 0.60426 0.0
C167 C 0.75601 0.89752 0.58543 0.0
C168 C 0.77329 0.93455 0.61444 0.0
C169 C 0.79735 0.94745 0.62909 0.0
C170 C 0.75904 0.95248 0.60939 0.0
C171 C 0.76893 0.98264 0.6186 0.0
C172 C 0.79271 0.99503 0.63326 0.0
C173 C 0.76834 0.82858 0.61334 0.0
C174 C 0.75249 0.79536 0.60773 0.0
C175 C 0.7923 0.84093 0.62805 0.0
C176 C 0.79995 0.82081 0.63695 0.0
C177 C 0.78459 0.78797 0.6311 0.0
C178 C 0.76084 0.77529 0.6164 0.0
C179 C 0.80664 0.97714 0.63852 0.0
H180 H 0.68054 0.8089 0.52436 0.0
H181 H 0.69911 0.81575 0.55665 0.0
H182 H 0.77847 0.90915 0.55024 0.0
H183 H 0.76001 0.90203 0.51802 0.0
H184 H 0.74947 0.82431 0.5771 0.0
H185 H 0.75495 0.91578 0.5782 0.0
H186 H 0.76982 0.88225 0.62789 0.0
H187 H 0.80962 0.93499 0.63312 0.0
H188 H 0.74018 0.94326 0.59838 0.0
H189 H 0.75796 0.99624 0.61439 0.0
H190 H 0.73372 0.7848 0.59663 0.0
H191 H 0.80594 0.86638 0.63249 0.0
H192 H 0.82524 0.98655 0.64971 0.0
H193 H 0.74889 0.74995 0.61165 0.0
H194 H 0.81867 0.83105 0.6481 0.0
C195 C 0.10125 0.84436 0.51648 0.0
C196 C 0.13194 0.85355 0.51187 0.0
C197 C 0.09596 0.84705 0.53466 0.0
C198 C 0.12133 0.859 0.54847 0.0
C199 C 0.15177 0.86709 0.54373 0.0
C200 C 0.15701 0.86444 0.52563 0.0
C201 C 0.11676 0.86455 0.56769 0.0
C202 C 0.09028 0.8418 0.57564 0.0
C203 C 0.08729 0.8469 0.59408 0.0
C204 C 0.11065 0.87517 0.60449 0.0
C205 C 0.13653 0.89862 0.59658 0.0
C206 C 0.13943 0.89304 0.57825 0.0
C207 C 0.16035 0.92925 0.6073 0.0
C208 C 0.17017 0.95864 0.60014 0.0
C209 C 0.17366 0.92936 0.62462 0.0
C210 C 0.19666 0.95828 0.63446 0.0
C211 C 0.20637 0.98749 0.62721 0.0
C212 C 0.0595 0.82321 0.60258 0.0
C213 C 0.02853 0.8148 0.59581 0.0
C214 C 0.06396 0.81038 0.61818 0.0
C215 C 0.0379 0.78978 0.627 0.0
C216 C 0.00708 0.78235 0.62061 0.0
C217 C 0.00253 0.79478 0.60487 0.0
C218 C 0.1929 0.98753 0.61005 0.0
H219 H 0.08161 0.83582 0.50598 0.0
H220 H 0.0723 0.84076 0.53786 0.0
H221 H 0.17169 0.87578 0.55405 0.0
H222 H 0.18079 0.87141 0.52231 0.0
H223 H 0.0725 0.81978 0.56767 0.0
H224 H 0.15954 0.91105 0.57216 0.0
H225 H 0.10805 0.87939 0.61861 0.0
H226 H 0.16006 0.95929 0.58692 0.0
H227 H 0.16668 0.90705 0.6304 0.0
H228 H 0.20689 0.95794 0.64771 0.0
H229 H 0.02459 0.82459 0.58387 0.0
H230 H 0.08765 0.81654 0.62362 0.0
H231 H 0.20011 0.00992 0.60432 0.0
H232 H 0.97889 0.78925 0.59975 0.0
H233 H 0.04181 0.78034 0.6391 0.0
C234 C 0.93293 0.49378 0.81788 0.0
C235 C 0.9555 0.48572 0.82406 0.0
C236 C 0.92391 0.49052 0.79934 0.0
C237 C 0.93734 0.47913 0.78671 0.0
C238 C 0.96087 0.47228 0.79299 0.0
C239 C 0.96984 0.47553 0.81153 0.0
C240 C 0.9253 0.47239 0.7672 0.0
C241 C 0.91872 0.49377 0.75858 0.0
C242 C 0.90542 0.48641 0.74043 0.0
C243 C 0.89858 0.45719 0.73098 0.0
C244 C 0.90534 0.43564 0.73929 0.0
C245 C 0.91892 0.44363 0.75739 0.0
C246 C 0.89712 0.40435 0.72926 0.0
C247 C 0.88514 0.37631 0.73813 0.0
C248 C 0.90048 0.40209 0.71063 0.0
C249 C 0.89144 0.37248 0.70107 0.0
C250 C 0.87932 0.34465 0.70999 0.0
C251 C 0.89779 0.50869 0.73139 0.0
C252 C 0.88446 0.52463 0.74071 0.0
C253 C 0.90291 0.51339 0.71314 0.0
C254 C 0.89409 0.53281 0.70428 0.0
C255 C 0.88022 0.54809 0.71352 0.0
C256 C 0.87584 0.54426 0.73186 0.0
C257 C 0.87658 0.34682 0.72861 0.0
H258 H 0.92162 0.50161 0.82744 0.0
H259 H 0.90552 0.49568 0.79494 0.0
H260 H 0.97197 0.46392 0.78359 0.0
H261 H 0.98737 0.46931 0.81613 0.0
H262 H 0.92429 0.51632 0.76597 0.0
H263 H 0.92404 0.42713 0.76399 0.0
H264 H 0.88692 0.45071 0.71728 0.0
H265 H 0.88165 0.37692 0.75236 0.0
H266 H 0.91011 0.42321 0.70341 0.0
H267 H 0.89375 0.37122 0.68669 0.0
H268 H 0.87987 0.52127 0.75471 0.0
H269 H 0.91362 0.50194 0.70565 0.0
H270 H 0.86715 0.32552 0.73569 0.0
H271 H 0.86513 0.55592 0.73917 0.0
H272 H 0.89775 0.53566 0.69013 0.0
C273 C 0.54788 0.52222 0.81807 0.0
C274 C 0.53575 0.49637 0.82865 0.0
C275 C 0.55388 0.51784 0.8002 0.0
C276 C 0.54753 0.4875 0.79272 0.0
C277 C 0.5364 0.4621 0.80367 0.0
C278 C 0.5305 0.46648 0.82142 0.0
C279 C 0.55138 0.48139 0.77345 0.0
C280 C 0.5789 0.50221 0.76563 0.0
C281 C 0.58367 0.49374 0.74815 0.0
C282 C 0.56083 0.4642 0.73858 0.0
C283 C 0.53239 0.44363 0.74583 0.0
C284 C 0.52778 0.45315 0.76314 0.0
C285 C 0.50814 0.41183 0.73582 0.0
C286 C 0.50524 0.40647 0.71675 0.0
C287 C 0.48797 0.38608 0.74535 0.0
C288 C 0.46574 0.35629 0.73619 0.0
C289 C 0.46408 0.35074 0.71733 0.0
C290 C 0.61273 0.51536 0.73983 0.0
C291 C 0.62047 0.54703 0.73769 0.0
C292 C 0.63204 0.50394 0.73319 0.0
C293 C 0.65856 0.5238 0.72447 0.0
C294 C 0.66585 0.5552 0.72193 0.0
C295 C 0.64663 0.56669 0.72863 0.0
C296 C 0.48393 0.37611 0.70766 0.0
H297 H 0.55195 0.54545 0.82349 0.0
H298 H 0.56245 0.53781 0.79208 0.0
H299 H 0.53189 0.43861 0.79842 0.0
H300 H 0.52121 0.44633 0.82943 0.0
H301 H 0.59715 0.52427 0.77335 0.0
H302 H 0.50576 0.43855 0.76888 0.0
H303 H 0.56559 0.45745 0.72549 0.0
H304 H 0.51942 0.42554 0.70871 0.0
H305 H 0.48968 0.38829 0.75998 0.0
H306 H 0.45068 0.33704 0.74394 0.0
H307 H 0.60576 0.55623 0.74258 0.0
H308 H 0.62658 0.47963 0.73474 0.0
H309 H 0.483 0.37238 0.69307 0.0
H310 H 0.65184 0.59083 0.72678 0.0
H311 H 0.67316 0.51454 0.71947 0.0
C312 C 0.56652 0.07331 0.82637 0.0
C313 C 0.53615 0.0502 0.83028 0.0
C314 C 0.57152 0.08221 0.80878 0.0
C315 C 0.54616 0.06826 0.79488 0.0
C316 C 0.51582 0.04502 0.79894 0.0
C317 C 0.5109 0.03605 0.81647 0.0
C318 C 0.55097 0.07788 0.77621 0.0
C319 C 0.57759 0.08158 0.76789 0.0
C320 C 0.58127 0.08929 0.74996 0.0
C321 C 0.55798 0.09325 0.74036 0.0
C322 C 0.5317 0.09076 0.7486 0.0
C323 C 0.52855 0.08308 0.76657 0.0
C324 C 0.50817 0.09707 0.73863 0.0
C325 C 0.51788 0.11977 0.72594 0.0
C326 C 0.47593 0.08103 0.74196 0.0
C327 C 0.45436 0.08822 0.73327 0.0
C328 C 0.46432 0.11091 0.72069 0.0
C329 C 0.6098 0.09421 0.74124 0.0
C330 C 0.64041 0.11345 0.75047 0.0
C331 C 0.60673 0.08128 0.72325 0.0
C332 C 0.6337 0.0881 0.71454 0.0
C333 C 0.66419 0.1081 0.72362 0.0
C334 C 0.66739 0.12043 0.7417 0.0
C335 C 0.49612 0.12622 0.71689 0.0
H336 H 0.58625 0.08442 0.83693 0.0
H337 H 0.59509 0.10035 0.80611 0.0
H338 H 0.4959 0.03351 0.7885 0.0
H339 H 0.48735 0.01807 0.81928 0.0
H340 H 0.59505 0.07767 0.77519 0.0
H341 H 0.50901 0.08191 0.77336 0.0
H342 H 0.56072 0.09878 0.72648 0.0
H343 H 0.54249 0.13327 0.72323 0.0
H344 H 0.46721 0.06289 0.75128 0.0
H345 H 0.42989 0.07611 0.73638 0.0
H346 H 0.64352 0.12397 0.76427 0.0
H347 H 0.58346 0.0661 0.71587 0.0
H348 H 0.50431 0.14392 0.70727 0.0
H349 H 0.69079 0.13592 0.74889 0.0
H350 H 0.63082 0.07826 0.70061 0.0
C351 C 0.80201 0.59036 0.84947 0.0
C352 C 0.79985 0.61697 0.84488 0.0
C353 C 0.79575 0.57999 0.86665 0.0
C354 C 0.78692 0.59583 0.87958 0.0
C355 C 0.7836 0.62175 0.87474 0.0
C356 C 0.79024 0.63238 0.85756 0.0
C357 C 0.78277 0.58602 0.89826 0.0
C358 C 0.80577 0.58104 0.90736 0.0
C359 C 0.80193 0.56999 0.92459 0.0
C360 C 0.77457 0.5644 0.93277 0.0
C361 C 0.7515 0.5699 0.92413 0.0
C362 C 0.75594 0.58095 0.90686 0.0
C363 C 0.72258 0.56335 0.93311 0.0
C364 C 0.70693 0.53594 0.94238 0.0
C365 C 0.71071 0.5846 0.93283 0.0
C366 C 0.68409 0.57872 0.94178 0.0
C367 C 0.66885 0.55148 0.95114 0.0
C368 C 0.82615 0.56374 0.93381 0.0
C369 C 0.84299 0.55271 0.92365 0.0
C370 C 0.83249 0.56837 0.95284 0.0
C371 C 0.85443 0.56152 0.96141 0.0
C372 C 0.87114 0.55066 0.95116 0.0
C373 C 0.86549 0.54669 0.93221 0.0
C374 C 0.6804 0.5301 0.9513 0.0
H375 H 0.8093 0.5781 0.83987 0.0
H376 H 0.79813 0.55971 0.86991 0.0
H377 H 0.77696 0.63447 0.88445 0.0
H378 H 0.7885 0.65301 0.85427 0.0
H379 H 0.827 0.58629 0.90098 0.0
H380 H 0.73799 0.58445 0.89982 0.0
H381 H 0.771 0.55552 0.94593 0.0
H382 H 0.71501 0.51876 0.94262 0.0
H383 H 0.72231 0.60603 0.92594 0.0
H384 H 0.67537 0.59538 0.94141 0.0
H385 H 0.83847 0.5481 0.90904 0.0
H386 H 0.82068 0.57746 0.9612 0.0
H387 H 0.66875 0.50879 0.95829 0.0
H388 H 0.87805 0.53823 0.92404 0.0
H389 H 0.85847 0.56481 0.97607 0.0
C390 C 0.34989 0.149 0.86448 0.0
C391 C 0.36435 0.17221 0.85245 0.0
C392 C 0.36232 0.15541 0.8827 0.0
C393 C 0.38908 0.18531 0.88915 0.0
C394 C 0.40363 0.20829 0.87697 0.0
C395 C 0.39144 0.20175 0.85878 0.0
C396 C 0.40166 0.19303 0.90856 0.0
C397 C 0.40709 0.17145 0.91781 0.0
C398 C 0.42108 0.17991 0.93584 0.0
C399 C 0.42872 0.20975 0.94474 0.0
C400 C 0.42282 0.23129 0.93583 0.0
C401 C 0.40939 0.22277 0.91771 0.0
C402 C 0.43149 0.26297 0.94535 0.0
C403 C 0.42565 0.26552 0.9635 0.0
C404 C 0.44646 0.29101 0.93654 0.0
C405 C 0.45593 0.32097 0.9458 0.0
C406 C 0.4506 0.32336 0.964 0.0
C407 C 0.42931 0.15847 0.94521 0.0
C408 C 0.40676 0.1258 0.94543 0.0
C409 C 0.46001 0.1708 0.95408 0.0
C410 C 0.46814 0.15083 0.96287 0.0
C411 C 0.44562 0.11829 0.96311 0.0
C412 C 0.41479 0.10589 0.95448 0.0
C413 C 0.43516 0.29547 0.97275 0.0
H414 H 0.32887 0.12612 0.8598 0.0
H415 H 0.35059 0.13736 0.89182 0.0
H416 H 0.42451 0.23136 0.88151 0.0
H417 H 0.4029 0.21992 0.84967 0.0
H418 H 0.4018 0.14874 0.91075 0.0
H419 H 0.40457 0.23916 0.91075 0.0
H420 H 0.43975 0.21638 0.95859 0.0
H421 H 0.41378 0.24435 0.97058 0.0
H422 H 0.45161 0.28989 0.92263 0.0
H423 H 0.46791 0.34235 0.93889 0.0
H424 H 0.38291 0.11581 0.93878 0.0
H425 H 0.47791 0.19582 0.95397 0.0
H426 H 0.43084 0.29697 0.9868 0.0
H427 H 0.39719 0.08076 0.95453 0.0
H428 H 0.49206 0.16069 0.96941 0.0
C429 C 0.77301 0.17258 0.85326 0.0
C430 C 0.80421 0.18377 0.84892 0.0
C431 C 0.76709 0.17521 0.87131 0.0
C432 C 0.79231 0.18914 0.88529 0.0
C433 C 0.82338 0.19941 0.88085 0.0
C434 C 0.82926 0.19678 0.86285 0.0
C435 C 0.78673 0.19449 0.90434 0.0
C436 C 0.76065 0.1708 0.91214 0.0
C437 C 0.75572 0.17617 0.9302 0.0
C438 C 0.77728 0.20563 0.94034 0.0
C439 C 0.80321 0.22975 0.93276 0.0
C440 C 0.80762 0.2239 0.91473 0.0
C441 C 0.82525 0.26119 0.9436 0.0
C442 C 0.81363 0.27495 0.95608 0.0
C443 C 0.85803 0.27778 0.94159 0.0
C444 C 0.87852 0.30739 0.95167 0.0
C445 C 0.86674 0.3207 0.9642 0.0
C446 C 0.72767 0.15183 0.93853 0.0
C447 C 0.69745 0.13446 0.92858 0.0
C448 C 0.73047 0.14754 0.95697 0.0
C449 C 0.70361 0.12795 0.96548 0.0
C450 C 0.67341 0.11168 0.95569 0.0
C451 C 0.67059 0.11444 0.93707 0.0
C452 C 0.8342 0.30417 0.96639 0.0
H453 H 0.7534 0.16244 0.84263 0.0
H454 H 0.74294 0.16728 0.87426 0.0
H455 H 0.84326 0.20977 0.89131 0.0
H456 H 0.85345 0.20536 0.85975 0.0
H457 H 0.74459 0.148 0.90427 0.0
H458 H 0.82687 0.24269 0.90852 0.0
H459 H 0.77364 0.20997 0.95421 0.0
H460 H 0.78852 0.26342 0.95775 0.0
H461 H 0.86799 0.26779 0.93234 0.0
H462 H 0.90359 0.31986 0.94979 0.0
H463 H 0.6943 0.13733 0.91443 0.0
H464 H 0.75341 0.15985 0.96497 0.0
H465 H 0.82465 0.31421 0.97591 0.0
H466 H 0.64743 0.102 0.92929 0.0
H467 H 0.7063 0.12597 0.97982 0.0
C468 C 0.59733 0.81979 0.15058 0.0
C469 C 0.61976 0.81183 0.15713 0.0
C470 C 0.58982 0.81764 0.13194 0.0
C471 C 0.60454 0.80732 0.11962 0.0
C472 C 0.62743 0.79992 0.12631 0.0
C473 C 0.63503 0.80224 0.14494 0.0
C474 C 0.59472 0.80256 0.09991 0.0
C475 C 0.5902 0.82542 0.09151 0.0
C476 C 0.57858 0.81983 0.0731 0.0
C477 C 0.57195 0.79106 0.06313 0.0
C478 C 0.57674 0.76816 0.07126 0.0
C479 C 0.58821 0.77417 0.08965 0.0
C480 C 0.56815 0.73724 0.06078 0.0
C481 C 0.53997 0.72082 0.0489 0.0
C482 C 0.58755 0.7235 0.06288 0.0
C483 C 0.5787 0.69379 0.05347 0.0
C484 C 0.55044 0.67752 0.04179 0.0
C485 C 0.57176 0.84302 0.06439 0.0
C486 C 0.55993 0.86005 0.07417 0.0
C487 C 0.57523 0.8469 0.0459 0.0
C488 C 0.56537 0.86567 0.0372 0.0
C489 C 0.5527 0.88175 0.04689 0.0
C490 C 0.55089 0.87955 0.06554 0.0
C491 C 0.53126 0.69127 0.03947 0.0
H492 H 0.58538 0.82722 0.15989 0.0
H493 H 0.57183 0.82313 0.12717 0.0
H494 H 0.63931 0.79217 0.11712 0.0
H495 H 0.65249 0.79613 0.14986 0.0
H496 H 0.59589 0.84761 0.09938 0.0
H497 H 0.59069 0.75603 0.09621 0.0
H498 H 0.56241 0.78604 0.04904 0.0
H499 H 0.5242 0.73041 0.04722 0.0
H500 H 0.60953 0.7357 0.07179 0.0
H501 H 0.59366 0.68334 0.05544 0.0
H502 H 0.55648 0.85746 0.08834 0.0
H503 H 0.5851 0.83503 0.03801 0.0
H504 H 0.5092 0.67879 0.03061 0.0
H505 H 0.54124 0.8919 0.07324 0.0
H506 H 0.5672 0.86729 0.02282 0.0
C507 C 0.20998 0.83212 0.14949 0.0
C508 C 0.20456 0.80775 0.16057 0.0
C509 C 0.21633 0.82942 0.13154 0.0
C510 C 0.21681 0.80208 0.12436 0.0
C511 C 0.21235 0.77825 0.13567 0.0
C512 C 0.20651 0.78117 0.15364 0.0
C513 C 0.21987 0.79712 0.10487 0.0
C514 C 0.24505 0.82065 0.09651 0.0
C515 C 0.24819 0.81507 0.07815 0.0
C516 C 0.22578 0.78563 0.06827 0.0
C517 C 0.20001 0.7621 0.07629 0.0
C518 C 0.19732 0.76826 0.09463 0.0
C519 C 0.17634 0.73097 0.06562 0.0
C520 C 0.1681 0.72954 0.04696 0.0
C521 C 0.16208 0.70227 0.07393 0.0
C522 C 0.14039 0.67309 0.06387 0.0
C523 C 0.13301 0.67176 0.04521 0.0
C524 C 0.27523 0.83929 0.06919 0.0
C525 C 0.30638 0.85551 0.078 0.0
C526 C 0.27024 0.84508 0.05131 0.0
C527 C 0.29586 0.86569 0.04224 0.0
C528 C 0.32693 0.88098 0.05089 0.0
C529 C 0.33203 0.87617 0.0689 0.0
C530 C 0.14697 0.70021 0.03684 0.0
H531 H 0.20849 0.85277 0.15461 0.0
H532 H 0.21956 0.84803 0.12306 0.0
H533 H 0.21287 0.75707 0.13048 0.0
H534 H 0.20245 0.76218 0.16199 0.0
H535 H 0.26226 0.84309 0.10435 0.0
H536 H 0.17732 0.75079 0.10101 0.0
H537 H 0.22904 0.78072 0.0544 0.0
H538 H 0.17791 0.75108 0.04011 0.0
H539 H 0.16814 0.70209 0.08813 0.0
H540 H 0.12995 0.65134 0.07055 0.0
H541 H 0.31106 0.85138 0.09168 0.0
H542 H 0.24652 0.83335 0.04424 0.0
H543 H 0.14156 0.69968 0.02244 0.0
H544 H 0.35593 0.88779 0.07573 0.0
H545 H 0.29155 0.86926 0.02836 0.0
C546 C 0.23504 0.41038 0.1613 0.0
C547 C 0.20501 0.38697 0.16547 0.0
C548 C 0.23933 0.41931 0.14369 0.0
C549 C 0.21361 0.40504 0.13002 0.0
C550 C 0.18372 0.38112 0.13425 0.0
C551 C 0.17948 0.37217 0.15181 0.0
C552 C 0.21753 0.41579 0.11156 0.0
C553 C 0.24446 0.4215 0.10286 0.0
C554 C 0.24813 0.43176 0.08542 0.0
C555 C 0.2248 0.43693 0.07689 0.0
C556 C 0.19784 0.4314 0.0854 0.0
C557 C 0.19427 0.42063 0.10264 0.0
C558 C 0.17348 0.43714 0.07636 0.0
C559 C 0.18248 0.46647 0.06935 0.0
C560 C 0.14112 0.41339 0.07471 0.0
C561 C 0.11822 0.41867 0.06594 0.0
C562 C 0.12726 0.44803 0.05899 0.0
C563 C 0.27609 0.43682 0.07598 0.0
C564 C 0.30693 0.45328 0.08518 0.0
C565 C 0.27211 0.42556 0.05755 0.0
C566 C 0.29837 0.43097 0.04848 0.0
C567 C 0.32913 0.4479 0.05762 0.0
C568 C 0.33324 0.45888 0.07605 0.0
C569 C 0.15953 0.47197 0.06088 0.0
H570 H 0.25497 0.42203 0.17173 0.0
H571 H 0.26256 0.43799 0.1409 0.0
H572 H 0.16355 0.36936 0.12398 0.0
H573 H 0.15618 0.35396 0.15483 0.0
H574 H 0.26213 0.4171 0.10945 0.0
H575 H 0.17374 0.41697 0.10934 0.0
H576 H 0.22757 0.44525 0.06356 0.0
H577 H 0.20723 0.48525 0.07059 0.0
H578 H 0.13363 0.39053 0.07993 0.0
H579 H 0.09347 0.39985 0.06451 0.0
H580 H 0.31079 0.46244 0.09932 0.0
H581 H 0.24863 0.41244 0.05015 0.0
H582 H 0.16696 0.49477 0.05561 0.0
H583 H 0.35685 0.47207 0.0833 0.0
H584 H 0.29476 0.42226 0.03427 0.0
C585 C 0.47542 0.92532 0.18289 0.0
C586 C 0.46763 0.94814 0.17769 0.0
C587 C 0.47016 0.9148 0.20011 0.0
C588 C 0.45721 0.92707 0.21259 0.0
C589 C 0.44911 0.94975 0.20721 0.0
C590 C 0.45419 0.9601 0.18992 0.0
C591 C 0.45237 0.91625 0.23111 0.0
C592 C 0.47482 0.91061 0.24042 0.0
C593 C 0.47006 0.89894 0.25751 0.0
C594 C 0.4424 0.89329 0.26535 0.0
C595 C 0.4202 0.89976 0.25659 0.0
C596 C 0.42531 0.91118 0.23948 0.0
C597 C 0.39176 0.89466 0.26548 0.0
C598 C 0.37276 0.86574 0.27284 0.0
C599 C 0.38408 0.91908 0.26723 0.0
C600 C 0.35832 0.9149 0.2765 0.0
C601 C 0.33944 0.88602 0.28388 0.0
C602 C 0.49395 0.89273 0.26716 0.0
C603 C 0.51075 0.88111 0.25744 0.0
C604 C 0.50013 0.89827 0.28619 0.0
C605 C 0.52211 0.89198 0.29521 0.0
C606 C 0.53886 0.88059 0.28542 0.0
C607 C 0.53314 0.87539 0.26646 0.0
C608 C 0.34672 0.86138 0.28183 0.0
H609 H 0.48569 0.91572 0.17362 0.0
H610 H 0.47611 0.89687 0.20359 0.0
H611 H 0.43941 0.95998 0.21648 0.0
H612 H 0.44807 0.97778 0.18614 0.0
H613 H 0.49644 0.91599 0.23446 0.0
H614 H 0.40767 0.91519 0.23251 0.0
H615 H 0.43805 0.88395 0.27839 0.0
H616 H 0.37803 0.84646 0.27158 0.0
H617 H 0.39848 0.94168 0.26182 0.0
H618 H 0.35315 0.93423 0.27798 0.0
H619 H 0.50634 0.87595 0.24284 0.0
H620 H 0.48826 0.90779 0.29417 0.0
H621 H 0.3324 0.83889 0.28738 0.0
H622 H 0.54574 0.86648 0.25867 0.0
H623 H 0.52624 0.89622 0.30986 0.0
C624 C 0.05081 0.50335 0.19519 0.0
C625 C 0.06602 0.52944 0.18499 0.0
C626 C 0.06023 0.50678 0.21373 0.0
C627 C 0.08472 0.53646 0.22231 0.0
C628 C 0.1004 0.56221 0.2119 0.0
C629 C 0.09119 0.5587 0.1934 0.0
C630 C 0.09338 0.54127 0.24217 0.0
C631 C 0.09891 0.51934 0.25095 0.0
C632 C 0.10922 0.5253 0.26958 0.0
C633 C 0.1135 0.5533 0.27937 0.0
C634 C 0.10773 0.57532 0.27087 0.0
C635 C 0.09728 0.56877 0.25228 0.0
C636 C 0.11412 0.60581 0.28118 0.0
C637 C 0.10916 0.60694 0.29962 0.0
C638 C 0.1265 0.63444 0.27283 0.0
C639 C 0.13411 0.66336 0.28268 0.0
C640 C 0.13022 0.66449 0.30119 0.0
C641 C 0.11686 0.50317 0.2788 0.0
C642 C 0.09724 0.46962 0.27523 0.0
C643 C 0.14388 0.51566 0.2915 0.0
C644 C 0.15078 0.49521 0.30065 0.0
C645 C 0.131 0.46185 0.29724 0.0
C646 C 0.1043 0.4491 0.28436 0.0
C647 C 0.11749 0.63605 0.30957 0.0
H648 H 0.03125 0.48063 0.18887 0.0
H649 H 0.04772 0.48661 0.22146 0.0
H650 H 0.11966 0.58522 0.21811 0.0
H651 H 0.10317 0.57905 0.18571 0.0
H652 H 0.0965 0.49841 0.24312 0.0
H653 H 0.092 0.58507 0.24555 0.0
H654 H 0.12192 0.55817 0.29364 0.0
H655 H 0.09905 0.58539 0.30646 0.0
H656 H 0.13129 0.63484 0.2588 0.0
H657 H 0.14403 0.68512 0.276 0.0
H658 H 0.07618 0.45926 0.2656 0.0
H659 H 0.15991 0.54131 0.29429 0.0
H660 H 0.11428 0.63647 0.32385 0.0
H661 H 0.08892 0.42336 0.28149 0.0
H662 H 0.17168 0.50542 0.3104 0.0
C663 C 0.43957 0.51727 0.18622 0.0
C664 C 0.46987 0.52518 0.18145 0.0
C665 C 0.4347 0.52032 0.20445 0.0
C666 C 0.46009 0.53144 0.21818 0.0
C667 C 0.49021 0.53866 0.21327 0.0
C668 C 0.49503 0.53556 0.1951 0.0
C669 C 0.45569 0.53653 0.23752 0.0
C670 C 0.42875 0.51386 0.24519 0.0
C671 C 0.42557 0.51841 0.26364 0.0
C672 C 0.4491 0.54616 0.27434 0.0
C673 C 0.47568 0.56954 0.26683 0.0
C674 C 0.47884 0.56434 0.24845 0.0
C675 C 0.49973 0.59966 0.27807 0.0
C676 C 0.51264 0.62939 0.27087 0.0
C677 C 0.50953 0.59906 0.29615 0.0
C678 C 0.53142 0.6275 0.30682 0.0
C679 C 0.54399 0.65704 0.29958 0.0
C680 C 0.3976 0.49454 0.27194 0.0
C681 C 0.36677 0.48719 0.26557 0.0
C682 C 0.40182 0.48051 0.28705 0.0
C683 C 0.37571 0.45975 0.29578 0.0
C684 C 0.34506 0.45337 0.28983 0.0
C685 C 0.34072 0.46702 0.27458 0.0
C686 C 0.53459 0.65779 0.28153 0.0
H687 H 0.41987 0.50917 0.17582 0.0
H688 H 0.41128 0.51477 0.20777 0.0
H689 H 0.51014 0.54674 0.2235 0.0
H690 H 0.51851 0.54157 0.19165 0.0
H691 H 0.41073 0.49226 0.23699 0.0
H692 H 0.49942 0.5821 0.2426 0.0
H693 H 0.44607 0.54996 0.28843 0.0
H694 H 0.50529 0.63083 0.25711 0.0
H695 H 0.50039 0.57657 0.30206 0.0
H696 H 0.53845 0.62654 0.32075 0.0
H697 H 0.36301 0.49792 0.25402 0.0
H698 H 0.4254 0.48585 0.29217 0.0
H699 H 0.54396 0.68044 0.27578 0.0
H700 H 0.31722 0.46229 0.26978 0.0
H701 H 0.37948 0.44938 0.3075 0.0
C702 C 0.52942 0.0296 0.05623 0.0
Eu703 Eu 0.51263 0.01519 0.02146 0.0
C704 C 0.51793 0.01584 0.07332 0.0
C705 C 0.48735 0.00754 0.07791 0.0
C706 C 0.47776 0.99596 0.09457 0.0
C707 C 0.49844 0.99223 0.10681 0.0
C708 C 0.52869 0.99991 0.10208 0.0
C709 C 0.53837 0.01171 0.08552 0.0
C710 C 0.49392 0.04555 0.99841 0.0
C711 C 0.43812 0.95787 0.01441 0.0
C712 C 0.46724 0.96359 0.94906 0.0
Eu713 Eu 0.48476 0.97921 0.98372 0.0
C714 C 0.47951 0.97801 0.93237 0.0
C715 C 0.51236 0.9972 0.93122 0.0
C716 C 0.52348 0.01051 0.91518 0.0
C717 C 0.5019 0.00495 0.90017 0.0
C718 C 0.46913 0.98624 0.9014 0.0
C719 C 0.45802 0.97284 0.91741 0.0
C720 C 0.50234 0.94844 0.00673 0.0
C721 C 0.55996 0.03757 0.99121 0.0
O722 O 0.53977 0.01476 0.04574 0.0
O723 O 0.51299 0.03978 0.04712 0.0
O724 O 0.51781 0.06039 0.01089 0.0
O725 O 0.47951 0.01585 0.99979 0.0
O726 O 0.464 0.97416 0.02598 0.0
O727 O 0.43908 0.95893 0.99676 0.0
O728 O 0.4568 0.97841 0.95944 0.0
O729 O 0.48387 0.95376 0.95826 0.0
O730 O 0.47785 0.93375 0.99464 0.0
O731 O 0.51739 0.97817 0.00528 0.0
O732 O 0.53475 0.01889 0.97951 0.0
O733 O 0.55856 0.03872 0.00886 0.0
H734 H 0.47097 0.01029 0.06875 0.0
H735 H 0.45432 0.99016 0.098 0.0
H736 H 0.54497 0.9972 0.11135 0.0
H737 H 0.56202 0.01793 0.0823 0.0
H738 H 0.52939 0.00177 0.94266 0.0
H739 H 0.54885 0.02499 0.91443 0.0
H740 H 0.45221 0.9818 0.88992 0.0
H741 H 0.43262 0.95832 0.91808 0.0
C742 C 0.9883 0.52486 0.05575 0.0
Eu743 Eu 0.98878 0.50401 0.0227 0.0
C744 C 1.00095 0.52465 0.07421 0.0
C745 C 0.97951 0.51022 0.08707 0.0
C746 C 0.99056 0.50988 0.10474 0.0
C747 C 0.02329 0.52426 0.1099 0.0
C748 C 0.04486 0.53847 0.09706 0.0
C749 C 0.03377 0.53855 0.07928 0.0
C750 C 0.94841 0.44491 0.00551 0.0
C751 C 0.03712 0.4756 0.02139 0.0
C752 C 0.00717 0.46651 0.95352 0.0
Eu753 Eu 0.008 0.48943 0.98627 0.0
C754 C 1.00112 0.47226 0.935 0.0
C755 C 0.99281 0.49558 0.93173 0.0
C756 C 0.98581 0.4998 0.91396 0.0
C757 C 0.9871 0.48076 0.89936 0.0
C758 C 0.99573 0.45772 0.90266 0.0
C759 C 0.00272 0.45351 0.9204 0.0
C760 C 0.04884 0.54807 0.00384 0.0
C761 C 0.95879 0.51759 0.9871 0.0
O762 O 0.0085 0.54277 0.04479 0.0
O763 O 0.96624 0.49699 0.04769 0.0
O764 O 0.93947 0.4608 0.01593 0.0
O765 O 0.97832 0.45949 0.00619 0.0
O766 O 0.02859 0.49392 0.03063 0.0
O767 O 0.02687 0.46546 0.0041 0.0
O768 O 0.98251 0.45441 0.96282 0.0
O769 O 0.03305 0.48935 0.963 0.0
O770 O 0.05779 0.53168 0.99376 0.0
O771 O 0.01886 0.53412 0.00282 0.0
O772 O 0.97408 0.50663 0.97753 0.0
O773 O 0.9621 0.52089 0.00502 0.0
H774 H 0.95413 0.49935 0.08347 0.0
H775 H 0.97363 0.49888 0.1145 0.0
H776 H 0.07021 0.54972 0.10086 0.0
H777 H 0.05084 0.54968 0.06961 0.0
H778 H 0.99142 0.51021 0.94288 0.0
H779 H 0.97902 0.51756 0.91158 0.0
H780 H 0.99669 0.44279 0.89151 0.0
H781 H 0.009 0.43537 0.92274 0.0
C782 C 0.45747 0.47289 0.95196 0.0
Eu783 Eu 0.47948 0.49284 0.98576 0.0
C784 C 0.47089 0.47941 0.93431 0.0
C785 C 0.46905 0.50218 0.92421 0.0
C786 C 0.48118 0.50793 0.90741 0.0
C787 C 0.49505 0.49077 0.90034 0.0
C788 C 0.4972 0.46824 0.91041 0.0
C789 C 0.48522 0.46257 0.92724 0.0
C790 C 0.50141 0.55132 0.0037 0.0
C791 C 0.55657 0.51885 0.98857 0.0
C792 C 0.54103 0.52688 0.05699 0.0
Eu793 Eu 0.51725 0.50529 0.0234 0.0
C794 C 0.52836 0.52603 0.07456 0.0
C795 C 0.49641 0.50417 0.07664 0.0
C796 C 0.48485 0.50317 0.09351 0.0
C797 C 0.50511 0.52404 0.10851 0.0
C798 C 0.53692 0.54615 0.10637 0.0
C799 C 0.54845 0.54713 0.0895 0.0
C800 C 0.49572 0.44659 0.00567 0.0
C801 C 0.43984 0.47781 0.01972 0.0
O802 O 0.46651 0.45753 0.9625 0.0
O803 O 0.45566 0.49609 0.96094 0.0
O804 O 0.47494 0.53649 0.99307 0.0
O805 O 0.51607 0.536 0.00315 0.0
O806 O 0.52932 0.50869 0.97852 0.0
O807 O 0.5588 0.52179 0.00654 0.0
O808 O 0.5366 0.54407 0.0455 0.0
O809 O 0.53588 0.49938 0.04927 0.0
O810 O 0.521 0.46091 0.01726 0.0
O811 O 0.4814 0.46228 0.00584 0.0
O812 O 0.46758 0.49352 0.02988 0.0
O813 O 0.43772 0.47032 1.0021 0.0
H814 H 0.458 0.5154 0.9292 0.0
H815 H 0.47924 0.52532 0.89975 0.0
H816 H 0.50776 0.45472 0.90511 0.0
H817 H 0.48694 0.44478 0.9346 0.0
H818 H 0.48054 0.48774 0.06527 0.0
H819 H 0.46022 0.48602 0.09492 0.0
H820 H 0.55283 0.56246 0.1178 0.0
H821 H 0.57312 0.5642 0.08814 0.0
C822 C 0.21041 0.36514 0.39348 0.0
Eu823 Eu 0.19034 0.35534 0.35915 0.0
C824 C 0.19738 0.35237 0.41047 0.0
C825 C 0.16812 0.34849 0.41496 0.0
C826 C 0.15661 0.33678 0.4313 0.0
C827 C 0.17408 0.32858 0.44331 0.0
C828 C 0.20307 0.33209 0.43872 0.0
C829 C 0.21463 0.34392 0.42246 0.0
C830 C 0.17176 0.38978 0.33967 0.0
C831 C 0.11387 0.30253 0.35307 0.0
C832 C 0.13547 0.31373 0.28653 0.0
Eu833 Eu 0.15687 0.32409 0.32067 0.0
C834 C 0.14823 0.32472 0.26931 0.0
C835 C 0.181 0.3395 0.26769 0.0
C836 C 0.19267 0.35042 0.25126 0.0
C837 C 0.17167 0.34678 0.23636 0.0
C838 C 0.13898 0.33208 0.23802 0.0
C839 C 0.12734 0.3211 0.2544 0.0
C840 C 0.1756 0.28962 0.34008 0.0
C841 C 0.23374 0.37635 0.32671 0.0
O842 O 0.21347 0.34556 0.38189 0.0
O843 O 0.20004 0.38218 0.38565 0.0
O844 O 0.1973 0.40289 0.35106 0.0
O845 O 0.15643 0.35984 0.34018 0.0
O846 O 0.14086 0.31559 0.36386 0.0
O847 O 0.11337 0.30637 0.33566 0.0
O848 O 0.13522 0.33533 0.29794 0.0
O849 O 0.14456 0.29577 0.29443 0.0
O850 O 0.15013 0.27655 0.32864 0.0
O851 O 0.19064 0.31957 0.33962 0.0
O852 O 0.20684 0.36247 0.31578 0.0
O853 O 0.23416 0.37376 0.34431 0.0
H854 H 0.15425 0.35467 0.40593 0.0
H855 H 0.1342 0.33425 0.43462 0.0
H856 H 0.21687 0.3259 0.44782 0.0
H857 H 0.23718 0.34662 0.41926 0.0
H858 H 0.19749 0.34267 0.2791 0.0
H859 H 0.218 0.36183 0.25019 0.0
H860 H 0.12252 0.32919 0.22664 0.0
H861 H 0.10202 0.30992 0.25546 0.0
C862 C 0.65256 0.85801 0.38856 0.0
Eu863 Eu 0.66212 0.83976 0.3571 0.0
C864 C 0.66087 0.85486 0.40741 0.0
C865 C 0.63813 0.84611 0.41985 0.0
C866 C 0.64602 0.84383 0.43787 0.0
C867 C 0.67689 0.85065 0.44372 0.0
C868 C 0.69945 0.85878 0.4312 0.0
C869 C 0.69146 0.86064 0.41316 0.0
C870 C 0.63326 0.77901 0.34021 0.0
C871 C 0.71238 0.81604 0.35487 0.0
C872 C 0.69195 0.82097 0.28721 0.0
Eu873 Eu 0.68448 0.83358 0.32047 0.0
C874 C 0.6764 0.81613 0.26888 0.0
C875 C 0.65672 0.82897 0.26497 0.0
C876 C 0.64507 0.82729 0.24708 0.0
C877 C 0.65285 0.81262 0.23299 0.0
C878 C 0.6715 0.79874 0.23697 0.0
C879 C 0.68326 0.80055 0.25484 0.0
C880 C 0.72521 0.888 0.34238 0.0
C881 C 0.63024 0.85391 0.32212 0.0
O882 O 0.67639 0.8765 0.37968 0.0
O883 O 0.63129 0.83156 0.37873 0.0
O884 O 0.64035 0.78595 0.3576 0.0
O885 O 0.64019 0.80405 0.33276 0.0
O886 O 0.70456 0.8343 0.36469 0.0
O887 O 0.70203 0.80724 0.33748 0.0
O888 O 0.67708 0.79859 0.29786 0.0
O889 O 0.70483 0.85004 0.29549 0.0
O890 O 0.73433 0.87252 0.33179 0.0
O891 O 0.69535 0.87488 0.34024 0.0
O892 O 0.64845 0.84797 0.31197 0.0
O893 O 0.63107 0.85241 0.33982 0.0
H894 H 0.61438 0.84132 0.41566 0.0
H895 H 0.6283 0.83741 0.44736 0.0
H896 H 0.72333 0.864 0.43546 0.0
H897 H 0.70934 0.86697 0.40378 0.0
H898 H 0.65118 0.84111 0.27565 0.0
H899 H 0.63067 0.83808 0.24416 0.0
H900 H 0.67767 0.78737 0.22618 0.0
H901 H 0.69846 0.79059 0.25764 0.0
C902 C 0.12924 0.80452 0.28433 0.0
Eu903 Eu 0.15198 0.82902 0.31767 0.0
C904 C 0.14189 0.80586 0.26667 0.0
C905 C 0.12764 0.81199 0.25169 0.0
C906 C 0.13908 0.81356 0.23478 0.0
C907 C 0.1648 0.80872 0.23254 0.0
C908 C 0.17937 0.80292 0.24754 0.0
C909 C 0.16811 0.80168 0.26453 0.0
C910 C 0.17057 0.88894 0.33263 0.0
C911 C 0.22962 0.8601 0.3219 0.0
C912 C 0.21168 0.87344 0.38908 0.0
Eu913 Eu 0.18982 0.8481 0.35579 0.0
C914 C 0.19836 0.86828 0.4066 0.0
C915 C 0.16775 0.84248 0.40806 0.0
C916 C 0.15486 0.83843 0.42465 0.0
C917 C 0.17249 0.86006 0.43999 0.0
C918 C 0.20309 0.88578 0.43852 0.0
C919 C 0.21593 0.88988 0.42192 0.0
C920 C 0.172 0.78877 0.34043 0.0
C921 C 0.11171 0.81701 0.3518 0.0
O922 O 0.13557 0.78934 0.29641 0.0
O923 O 0.13147 0.83116 0.29134 0.0
O924 O 0.14554 0.87224 0.32111 0.0
O925 O 0.18626 0.87473 0.33383 0.0
O926 O 0.202 0.84122 0.31205 0.0
O927 O 0.23123 0.87056 0.33903 0.0
O928 O 0.20002 0.88527 0.37754 0.0
O929 O 0.21498 0.85019 0.38149 0.0
O930 O 0.1981 0.80619 0.35116 0.0
O931 O 0.1555 0.80221 0.33971 0.0
O932 O 0.13906 0.83017 0.36219 0.0
O933 O 0.1099 0.81187 0.33395 0.0
H934 H 0.10755 0.8155 0.25306 0.0
H935 H 0.12758 0.81809 0.22336 0.0
H936 H 0.19928 0.79918 0.24605 0.0
H937 H 0.1798 0.79731 0.27593 0.0
H938 H 0.15382 0.82556 0.39637 0.0
H939 H 0.13117 0.81853 0.42555 0.0
H940 H 0.21695 0.90272 0.45023 0.0
H941 H 0.23949 0.91 0.421 0.0
C942 C 0.87284 0.69809 0.72474 0.0
Eu943 Eu 0.85296 0.68607 0.69029 0.0
C944 C 0.86015 0.68573 0.74185 0.0
C945 C 0.87043 0.70706 0.75772 0.0
C946 C 0.8594 0.69592 0.77421 0.0
C947 C 0.83801 0.66319 0.77512 0.0
C948 C 0.82724 0.64185 0.75918 0.0
C949 C 0.83813 0.65305 0.74263 0.0
C950 C 0.83339 0.7194 0.67051 0.0
C951 C 0.77695 0.63263 0.68498 0.0
C952 C 0.7977 0.64339 0.61792 0.0
Eu953 Eu 0.81874 0.65364 0.65212 0.0
C954 C 0.81119 0.65412 0.60078 0.0
C955 C 0.79532 0.63489 0.58445 0.0
C956 C 0.80701 0.64525 0.56796 0.0
C957 C 0.83474 0.67502 0.56759 0.0
C958 C 0.85102 0.69407 0.58393 0.0
C959 C 0.83933 0.68368 0.60044 0.0
C960 C 0.83771 0.61966 0.67169 0.0
C961 C 0.89583 0.70602 0.65768 0.0
O962 O 0.87747 0.67918 0.71349 0.0
O963 O 0.8606 0.71318 0.71653 0.0
O964 O 0.85941 0.73302 0.68148 0.0
O965 O 0.81824 0.68961 0.67145 0.0
O966 O 0.80437 0.64534 0.69528 0.0
O967 O 0.77574 0.63644 0.66756 0.0
O968 O 0.79779 0.66525 0.6293 0.0
O969 O 0.80567 0.62471 0.62593 0.0
O970 O 0.81221 0.60636 0.66024 0.0
O971 O 0.8528 0.64959 0.67107 0.0
O972 O 0.86878 0.69126 0.64688 0.0
O973 O 0.89666 0.70461 0.6754 0.0
H974 H 0.88725 0.73235 0.75738 0.0
H975 H 0.86794 0.71274 0.78634 0.0
H976 H 0.81069 0.61652 0.7596 0.0
H977 H 0.82963 0.63617 0.73052 0.0
H978 H 0.77363 0.61202 0.58445 0.0
H979 H 0.79416 0.63031 0.55546 0.0
H980 H 0.87245 0.71711 0.58387 0.0
H981 H 0.85199 0.69892 0.61288 0.0
C982 C 0.30487 0.17119 0.72093 0.0
Eu983 Eu 0.32247 0.16342 0.68956 0.0
C984 C 0.31098 0.16594 0.7397 0.0
C985 C 0.28629 0.15434 0.75094 0.0
C986 C 0.29243 0.15178 0.76919 0.0
C987 C 0.32345 0.16119 0.77645 0.0
C988 C 0.34791 0.17177 0.76507 0.0
C989 C 0.34171 0.17394 0.74681 0.0
C990 C 0.301 0.10788 0.66755 0.0
C991 C 0.37886 0.14785 0.68682 0.0
C992 C 0.36773 0.17155 0.62156 0.0
Eu993 Eu 0.35305 0.17199 0.65458 0.0
C994 C 0.35276 0.16644 0.603 0.0
C995 C 0.3299 0.17536 0.59893 0.0
C996 C 0.31717 0.17166 0.58102 0.0
C997 C 0.32698 0.15879 0.56706 0.0
C998 C 0.34922 0.1492 0.57117 0.0
C999 C 0.36207 0.15306 0.58904 0.0
C1000 C 0.38506 0.22202 0.68107 0.0
C1001 C 0.29194 0.18183 0.65591 0.0
O1002 O 0.32923 0.1938 0.71407 0.0
O1003 O 0.28763 0.14566 0.70937 0.0
O1004 O 0.30509 0.11025 0.68512 0.0
O1005 O 0.30719 0.13465 0.66257 0.0
O1006 O 0.36555 0.15917 0.69774 0.0
O1007 O 0.37353 0.14559 0.66906 0.0
O1008 O 0.35691 0.14632 0.63055 0.0
O1009 O 0.37329 0.19757 0.63146 0.0
O1010 O 0.39874 0.21214 0.67007 0.0
O1011 O 0.35549 0.20613 0.67692 0.0
O1012 O 0.31323 0.18104 0.64604 0.0
O1013 O 0.29057 0.176 0.67305 0.0
H1014 H 0.26243 0.14796 0.7457 0.0
H1015 H 0.27326 0.14345 0.77779 0.0
H1016 H 0.37194 0.179 0.77043 0.0
H1017 H 0.36113 0.18264 0.73838 0.0
H1018 H 0.32223 0.18555 0.60952 0.0
H1019 H 0.29995 0.1791 0.57801 0.0
H1020 H 0.35697 0.13923 0.56049 0.0
H1021 H 0.3796 0.14597 0.59196 0.0
C1022 C 0.79609 0.14162 0.61985 0.0
Eu1023 Eu 0.81822 0.16127 0.65373 0.0
C1024 C 0.80973 0.14519 0.6024 0.0
C1025 C 0.7954 0.15143 0.58751 0.0
C1026 C 0.80748 0.15425 0.57073 0.0
C1027 C 0.83395 0.15061 0.56855 0.0
C1028 C 0.84876 0.14504 0.58352 0.0
C1029 C 0.83684 0.1425 0.60036 0.0
C1030 C 0.83664 0.21994 0.67084 0.0
C1031 C 0.8956 0.19229 0.65719 0.0
C1032 C 0.87931 0.19861 0.7248 0.0
Eu1033 Eu 0.85588 0.17724 0.69111 0.0
C1034 C 0.86683 0.19467 0.74258 0.0
C1035 C 0.83677 0.16875 0.74483 0.0
C1036 C 0.82487 0.16557 0.7617 0.0
C1037 C 0.84297 0.18831 0.77655 0.0
C1038 C 0.87301 0.21426 0.7743 0.0
C1039 C 0.88485 0.21743 0.7574 0.0
C1040 C 0.83864 0.11914 0.67365 0.0
C1041 C 0.77791 0.14548 0.68725 0.0
O1042 O 0.80143 0.12436 0.63088 0.0
O1043 O 0.79866 0.16758 0.62818 0.0
O1044 O 0.80985 0.20271 0.66074 0.0
O1045 O 0.85292 0.20636 0.67051 0.0
O1046 O 0.86789 0.1736 0.64743 0.0
O1047 O 0.8973 0.20172 0.67451 0.0
O1048 O 0.87091 0.21401 0.71398 0.0
O1049 O 0.87806 0.17333 0.71637 0.0
O1050 O 0.86515 0.13635 0.68401 0.0
O1051 O 0.82171 0.13204 0.67424 0.0
O1052 O 0.80549 0.16342 0.69736 0.0
O1053 O 0.77641 0.13702 0.66983 0.0
H1054 H 0.77464 0.15381 0.58884 0.0
H1055 H 0.79582 0.15862 0.55932 0.0
H1056 H 0.86927 0.14227 0.58209 0.0
H1057 H 0.84859 0.13808 0.6117 0.0
H1058 H 0.82259 0.15106 0.73352 0.0
H1059 H 0.8016 0.14545 0.7632 0.0
H1060 H 0.88723 0.23206 0.78561 0.0
H1061 H 0.90803 0.23768 0.7559 0.0
C1062 C 0.36884 0.93474 0.04295 0.0
C1063 C 0.35429 0.90083 0.04072 0.0
C1064 C 0.39039 0.90429 0.01818 0.0
C1065 C 0.40734 0.93829 0.02193 0.0
N1066 N 0.41335 0.98636 0.03794 0.0
N1067 N 0.35308 0.85303 0.02804 0.0
C1068 C 0.3967 0.95364 0.03434 0.0
C1069 C 0.36543 0.88551 0.02873 0.0
N1070 N 0.35541 0.94877 0.05289 0.0
N1071 N 0.39799 0.88981 0.00455 0.0
H1072 H 0.33455 0.83834 0.0354 0.0
H1073 H 0.36278 0.84088 0.02137 0.0
H1074 H 0.41679 0.90229 0.99691 0.0
H1075 H 0.38413 0.86557 0.99979 0.0
H1076 H 0.36267 0.97307 0.05354 0.0
H1077 H 0.33528 0.93565 0.05955 0.0
H1078 H 0.40969 0.99883 0.04856 0.0
H1079 H 0.43187 0.00123 0.03064 0.0
C1080 C 0.07905 0.45472 0.05843 0.0
C1081 C 0.10313 0.4535 0.04919 0.0
C1082 C 0.08548 0.46901 0.02209 0.0
C1083 C 0.0592 0.4668 0.03066 0.0
N1084 N 0.02683 0.44914 0.05556 0.0
N1085 N 0.12394 0.45144 0.02081 0.0
C1086 C 0.05476 0.45724 0.04844 0.0
C1087 C 0.10467 0.45813 0.03057 0.0
N1088 N 0.07987 0.45455 0.07681 0.0
N1089 N 0.09351 0.48318 0.00643 0.0
H1090 H 0.13789 0.44274 0.02641 0.0
H1091 H 0.12349 0.45133 0.00678 0.0
H1092 H 0.08152 0.49323 1.00007 0.0
H1093 H 0.11441 0.48825 1.00083 0.0
H1094 H 0.06477 0.45878 0.08439 0.0
H1095 H 0.09756 0.45331 0.08468 0.0
H1096 H 0.02143 0.43936 0.06784 0.0
H1097 H 0.00759 0.44861 0.04831 0.0
C1098 C 0.51384 0.61821 0.03885 0.0
C1099 C 0.53967 0.64511 0.03263 0.0
C1100 C 0.54241 0.6101 0.0083 0.0
C1101 C 0.51447 0.58373 0.01347 0.0
N1102 N 0.47043 0.56377 0.03173 0.0
N1103 N 0.57666 0.66801 0.0104 0.0
C1104 C 0.49924 0.58811 0.02817 0.0
C1105 C 0.55365 0.64143 0.01713 0.0
N1106 N 0.50383 0.62126 0.05527 0.0
N1107 N 0.55794 0.60532 0.99481 0.0
H1108 H 0.58566 0.69127 0.01661 0.0
H1109 H 0.58531 0.66737 0.99802 0.0
H1110 H 0.54914 0.58338 0.98696 0.0
H1111 H 0.58047 0.62262 0.99198 0.0
H1112 H 0.48748 0.60179 0.06148 0.0
H1113 H 0.51411 0.64297 0.06356 0.0
H1114 H 0.45655 0.56663 0.04096 0.0
H1115 H 0.45897 0.54136 0.02428 0.0
C1116 C 0.88331 0.37847 0.97207 0.0
C1117 C 0.88816 0.35242 0.97479 0.0
C1118 C 0.93303 0.38698 0.9977 0.0
C1119 C 0.92666 0.41244 0.99579 0.0
N1120 N 0.88964 0.4287 0.98461 0.0
N1121 N 0.91345 0.32976 0.99257 0.0
C1122 C 0.89988 0.40703 0.98413 0.0
C1123 C 0.91202 0.3561 0.98819 0.0
N1124 N 0.86395 0.37657 0.9574 0.0
N1125 N 0.95852 0.39187 0.00902 0.0
H1126 H 0.8981 0.30669 0.9862 0.0
H1127 H 0.92794 0.33013 0.00355 0.0
H1128 H 0.97172 0.41219 0.01828 0.0
H1129 H 0.96716 0.37603 0.0089 0.0
H1130 H 0.86235 0.39618 0.95366 0.0
H1131 H 0.85205 0.35641 0.94787 0.0
H1132 H 0.86782 0.42357 0.97815 0.0
H1133 H 0.90158 0.45098 0.99226 0.0
C1134 C 0.60995 0.51901 0.95275 0.0
C1135 C 0.64007 0.5445 0.96034 0.0
C1136 C 0.61484 0.55632 0.98497 0.0
C1137 C 0.5855 0.52779 0.97892 0.0
N1138 N 0.55722 0.4787 0.95827 0.0
N1139 N 0.67221 0.58477 0.98516 0.0
C1140 C 0.58356 0.50827 0.9631 0.0
C1141 C 0.64283 0.56239 0.9769 0.0
N1142 N 0.60631 0.50543 0.93544 0.0
N1143 N 0.61583 0.57867 0.99761 0.0
H1144 H 0.69324 0.59013 0.9796 0.0
H1145 H 0.67578 0.59597 0.99821 0.0
H1146 H 0.59572 0.57641 0.00307 0.0
H1147 H 0.63596 0.60121 1.00112 0.0
H1148 H 0.58416 0.48936 0.92844 0.0
H1149 H 0.62508 0.51268 0.92741 0.0
H1150 H 0.55626 0.46235 0.94806 0.0
H1151 H 0.53747 0.46879 0.9655 0.0
C1152 C 0.46477 0.07892 0.96132 0.0
C1153 C 0.455 0.09716 0.97197 0.0
C1154 C 0.46582 0.07718 0.99947 0.0
C1155 C 0.47899 0.06186 0.98909 0.0
N1156 N 0.49321 0.04993 0.9603 0.0
N1157 N 0.44767 0.11572 1.00115 0.0
C1158 C 0.47875 0.06293 0.97002 0.0
C1159 C 0.45584 0.09679 0.99105 0.0
N1160 N 0.46056 0.07677 0.94282 0.0
N1161 N 0.46184 0.07206 0.01725 0.0
H1162 H 0.43867 0.12907 0.99538 0.0
H1163 H 0.45149 0.11971 0.01522 0.0
H1164 H 0.46871 0.05776 0.02386 0.0
H1165 H 0.44932 0.07964 0.02507 0.0
H1166 H 0.46347 0.06076 0.93423 0.0
H1167 H 0.45188 0.08938 0.9359 0.0
H1168 H 0.49784 0.05356 0.9469 0.0
H1169 H 0.5025 0.037 0.96603 0.0
C1170 C 0.63981 0.06534 0.97316 0.0
C1171 C 0.64463 0.09319 0.96525 0.0
C1172 C 0.59443 0.08554 0.97521 0.0
C1173 C 0.59052 0.05867 0.9839 0.0
N1174 N 0.61361 0.02849 0.99529 0.0
N1175 N 0.63037 0.13401 0.9623 0.0
C1176 C 0.61453 0.05029 0.98418 0.0
C1177 C 0.62296 0.10447 0.96722 0.0
N1178 N 0.65861 0.05253 0.96959 0.0
N1179 N 0.57094 0.09315 0.9747 0.0
H1180 H 0.65138 0.14901 0.95682 0.0
H1181 H 0.61718 0.14502 0.96514 0.0
H1182 H 0.55134 0.08201 0.98199 0.0
H1183 H 0.57024 0.10949 0.96648 0.0
H1184 H 0.65411 0.03042 0.97344 0.0
H1185 H 0.67698 0.06251 0.9613 0.0
H1186 H 0.63195 0.02349 0.9973 0.0
H1187 H 0.59609 0.01806 0.00403 0.0
C1188 C 0.88837 0.51084 0.9577 0.0
C1189 C 0.89401 0.54262 0.96024 0.0
C1190 C 0.94133 0.55793 0.98122 0.0
C1191 C 0.93738 0.5268 0.97727 0.0
N1192 N 0.91079 0.47637 0.95763 0.0
N1193 N 0.92993 0.59823 0.97115 0.0
C1194 C 0.91223 0.50419 0.96417 0.0
C1195 C 0.92162 0.5667 0.97112 0.0
N1196 N 0.85949 0.48645 0.9499 0.0
N1197 N 0.96403 0.5794 0.99444 0.0
H1198 H 0.91665 0.60572 0.96355 0.0
H1199 H 0.95159 0.61718 0.97722 0.0
H1200 H 0.98066 0.57536 1.00132 0.0
H1201 H 0.96513 0.60063 0.99939 0.0
H1202 H 0.85293 0.46231 0.94955 0.0
H1203 H 0.84081 0.48995 0.94558 0.0
H1204 H 0.8952 0.46153 0.94648 0.0
H1205 H 0.92628 0.46888 0.96224 0.0
C1206 C 0.44027 0.36463 0.97916 0.0
C1207 C 0.46223 0.35522 0.97421 0.0
C1208 C 0.50635 0.40692 0.98814 0.0
C1209 C 0.48417 0.41495 0.99495 0.0
N1210 N 0.42965 0.39626 1.00094 0.0
N1211 N 0.51574 0.36446 0.97709 0.0
C1212 C 0.45097 0.39248 0.9915 0.0
C1213 C 0.49516 0.37549 0.97962 0.0
N1214 N 0.40918 0.34713 0.97198 0.0
N1215 N 0.53793 0.42945 0.98899 0.0
H1216 H 0.50855 0.34162 0.97082 0.0
H1217 H 0.53939 0.37682 0.98269 0.0
H1218 H 0.54751 0.45328 0.99424 0.0
H1219 H 0.55423 0.42554 0.9825 0.0
H1220 H 0.39292 0.35486 0.97367 0.0
H1221 H 0.40043 0.32644 0.96294 0.0
H1222 H 0.40557 0.37903 0.99999 0.0
H1223 H 0.43642 0.41429 0.01149 0.0
C1224 C 0.12082 0.61666 0.03295 0.0
C1225 C 0.1117 0.64031 0.03429 0.0
C1226 C 0.06459 0.60557 0.01299 0.0
C1227 C 0.07096 0.58005 0.01399 0.0
N1228 N 0.10322 0.56026 0.02769 0.0
N1229 N 0.07154 0.65477 0.0281 0.0
C1230 C 0.09859 0.58529 0.02471 0.0
C1231 C 0.08258 0.63406 0.02505 0.0
N1232 N 0.1511 0.62439 0.03893 0.0
N1233 N 0.04282 0.60357 0.99979 0.0
H1234 H 0.08363 0.67556 0.03716 0.0
H1235 H 0.04893 0.64959 0.02298 0.0
H1236 H 0.03072 0.58406 0.98986 0.0
H1237 H 0.03955 0.62282 0.99745 0.0
H1238 H 0.15988 0.6089 0.03657 0.0
H1239 H 0.16848 0.64738 0.04454 0.0
H1240 H 0.12108 0.56231 0.03705 0.0
H1241 H 0.08754 0.5368 0.02218 0.0
C1242 C 0.37415 0.43868 0.05091 0.0
C1243 C 0.35714 0.45492 0.04768 0.0
C1244 C 0.39118 0.48208 0.02408 0.0
C1245 C 0.41037 0.4685 0.02864 0.0
N1246 N 0.42188 0.43592 0.04755 0.0
N1247 N 0.35262 0.4962 0.03356 0.0
C1248 C 0.40243 0.44749 0.04245 0.0
C1249 C 0.36644 0.47766 0.03485 0.0
N1250 N 0.36258 0.41394 0.06152 0.0
N1251 N 0.39643 0.49923 0.00948 0.0
H1252 H 0.33464 0.49396 0.04132 0.0
H1253 H 0.36092 0.5158 0.02606 0.0
H1254 H 0.41508 0.50453 1.00164 0.0
H1255 H 0.38081 0.50623 0.00425 0.0
H1256 H 0.3718 0.39875 0.06282 0.0
H1257 H 0.34193 0.40677 0.0679 0.0
H1258 H 0.4197 0.42409 0.05906 0.0
H1259 H 0.44154 0.43979 0.04094 0.0
C1260 C 0.56027 0.92567 0.02782 0.0
C1261 C 0.53992 0.89955 0.03719 0.0
C1262 C 0.49557 0.9077 0.02813 0.0
C1263 C 0.51517 0.93147 0.01716 0.0
N1264 N 0.56327 0.95496 1.00225 0.0
N1265 N 0.48626 0.86076 0.04255 0.0
C1266 C 0.5468 0.93836 0.01582 0.0
C1267 C 0.50698 0.88915 0.03635 0.0
N1268 N 0.5925 0.93882 0.03058 0.0
N1269 N 0.46635 0.90324 0.03109 0.0
H1270 H 0.49334 0.84572 0.04805 0.0
H1271 H 0.46164 0.85053 0.04052 0.0
H1272 H 0.45714 0.9163 0.02532 0.0
H1273 H 0.45258 0.88871 0.04054 0.0
H1274 H 0.60835 0.95978 0.02525 0.0
H1275 H 0.60337 0.93071 0.03965 0.0
H1276 H 0.58525 0.95774 0.9997 0.0
H1277 H 0.55348 0.96269 0.9923 0.0
C1278 C 0.04743 0.27753 0.3841 0.0
C1279 C 0.03018 0.24384 0.37936 0.0
C1280 C 0.06364 0.2497 0.35485 0.0
C1281 C 0.08353 0.28286 0.36107 0.0
N1282 N 0.09538 0.32831 0.38236 0.0
N1283 N 0.02479 0.19701 0.36224 0.0
C1284 C 0.07573 0.29674 0.37594 0.0
C1285 C 0.03894 0.22971 0.3652 0.0
N1286 N 0.03611 0.29126 0.39595 0.0
N1287 N 0.06822 0.23701 0.33913 0.0
H1288 H 0.00683 0.18143 0.36962 0.0
H1289 H 0.03283 0.18533 0.35365 0.0
H1290 H 0.08689 0.24988 0.33149 0.0
H1291 H 0.05201 0.21409 0.3329 0.0
H1292 H 0.04554 0.31594 0.39849 0.0
H1293 H 0.01544 0.27792 0.40214 0.0
H1294 H 0.09336 0.33863 0.39456 0.0
H1295 H 0.11492 0.34402 0.37601 0.0
C1296 C 0.77838 0.79587 0.363 0.0
C1297 C 0.77656 0.79036 0.38149 0.0
C1298 C 0.72912 0.79559 0.38126 0.0
C1299 C 0.7338 0.80591 0.36363 0.0
N1300 N 0.76817 0.82258 0.33945 0.0
N1301 N 0.75373 0.79123 0.40931 0.0
C1302 C 0.75979 0.80776 0.35489 0.0
C1303 C 0.75293 0.79201 0.39096 0.0
N1304 N 0.79737 0.7891 0.35301 0.0
N1305 N 0.70137 0.78775 0.38851 0.0
H1306 H 0.7711 0.78919 0.41699 0.0
H1307 H 0.73903 0.79578 0.41708 0.0
H1308 H 0.68239 0.78798 0.3815 0.0
H1309 H 0.69575 0.77739 0.40061 0.0
H1310 H 0.79704 0.7896 0.33902 0.0
H1311 H 0.81097 0.77983 0.35837 0.0
H1312 H 0.78891 0.82736 0.33375 0.0
H1313 H 0.75667 0.83339 0.33341 0.0
C1314 C 0.2234 0.97207 0.35792 0.0
C1315 C 0.2007 0.9806 0.36267 0.0
C1316 C 0.15765 0.92894 0.34793 0.0
C1317 C 0.18061 0.92124 0.34201 0.0
N1318 N 0.23539 0.94124 0.33632 0.0
N1319 N 0.14715 0.97096 0.35837 0.0
C1320 C 0.21355 0.94441 0.34558 0.0
C1321 C 0.1681 0.96022 0.35645 0.0
N1322 N 0.25428 0.99002 0.36539 0.0
N1323 N 0.12603 0.90626 0.34633 0.0
H1324 H 0.15389 0.99372 0.36459 0.0
H1325 H 0.12382 0.95859 0.35225 0.0
H1326 H 0.11676 0.88252 0.34105 0.0
H1327 H 0.10912 0.90996 0.35223 0.0
H1328 H 0.27098 0.98283 0.36383 0.0
H1329 H 0.26247 0.01058 0.37445 0.0
H1330 H 0.25937 0.95884 0.33744 0.0
H1331 H 0.22901 0.92331 0.32572 0.0
C1332 C 0.59837 0.69548 0.31557 0.0
C1333 C 0.56637 0.68743 0.31108 0.0
C1334 C 0.57761 0.73874 0.32686 0.0
C1335 C 0.60946 0.74643 0.33163 0.0
N1336 N 0.64772 0.72895 0.33484 0.0
N1337 N 0.52364 0.69794 0.31528 0.0
C1338 C 0.61908 0.72377 0.32734 0.0
C1339 C 0.55543 0.70812 0.31754 0.0
N1340 N 0.60929 0.67675 0.30803 0.0
N1341 N 0.56858 0.76072 0.33131 0.0
H1342 H 0.50672 0.67562 0.30859 0.0
H1343 H 0.51354 0.71032 0.32123 0.0
H1344 H 0.58322 0.78218 0.33951 0.0
H1345 H 0.54714 0.75848 0.32624 0.0
H1346 H 0.6332 0.68328 0.30915 0.0
H1347 H 0.59483 0.65581 0.29938 0.0
H1348 H 0.65489 0.71197 0.33357 0.0
H1349 H 0.66295 0.74893 0.34395 0.0
C1350 C 0.31307 0.87766 0.31277 0.0
C1351 C 0.31227 0.88159 0.29403 0.0
C1352 C 0.26093 0.879 0.29515 0.0
C1353 C 0.25931 0.86981 0.31302 0.0
N1354 N 0.28232 0.85478 0.33764 0.0
N1355 N 0.2825 0.88024 0.26656 0.0
C1356 C 0.28505 0.86781 0.3216 0.0
C1357 C 0.28539 0.88071 0.28497 0.0
N1358 N 0.3408 0.88399 0.32226 0.0
N1359 N 0.23989 0.88735 0.28809 0.0
H1360 H 0.29954 0.88081 0.25852 0.0
H1361 H 0.26176 0.87612 0.25915 0.0
H1362 H 0.22286 0.88843 0.29547 0.0
H1363 H 0.24177 0.89683 0.27572 0.0
H1364 H 0.34352 0.88467 0.33631 0.0
H1365 H 0.36197 0.89179 0.31635 0.0
H1366 H 0.29909 0.84961 0.34331 0.0
H1367 H 0.26201 0.84601 0.34442 0.0
C1368 C 0.12183 0.42474 0.3214 0.0
C1369 C 0.13916 0.44065 0.30702 0.0
C1370 C 0.17906 0.42571 0.31504 0.0
C1371 C 0.16067 0.40767 0.32862 0.0
N1372 N 0.1123 0.38671 0.34329 0.0
N1373 N 0.17971 0.44978 0.28737 0.0
C1374 C 0.13119 0.40592 0.33123 0.0
C1375 C 0.16638 0.43909 0.30299 0.0
N1376 N 0.09744 0.42895 0.32626 0.0
N1377 N 0.20902 0.43086 0.31386 0.0
H1378 H 0.17082 0.4595 0.27814 0.0
H1379 H 0.19744 0.44606 0.28267 0.0
H1380 H 0.21936 0.42189 0.3225 0.0
H1381 H 0.22473 0.4466 0.30552 0.0
H1382 H 0.08631 0.42121 0.33794 0.0
H1383 H 0.08975 0.44236 0.31934 0.0
H1384 H 0.08888 0.38116 0.34406 0.0
H1385 H 0.11938 0.37483 0.35196 0.0
C1386 C 0.29558 0.40096 0.29293 0.0
C1387 C 0.31759 0.43316 0.29994 0.0
C1388 C 0.28565 0.42813 0.32523 0.0
C1389 C 0.26413 0.39543 0.31856 0.0
N1390 N 0.25263 0.34888 0.29844 0.0
N1391 N 0.3365 0.47641 0.32394 0.0
C1392 C 0.27022 0.38136 0.30304 0.0
C1393 C 0.31358 0.44633 0.31652 0.0
N1394 N 0.29867 0.38915 0.27645 0.0
N1395 N 0.2786 0.44252 0.33921 0.0
H1396 H 0.35605 0.49157 0.3174 0.0
H1397 H 0.33732 0.4857 0.33711 0.0
H1398 H 0.25888 0.43045 0.34626 0.0
H1399 H 0.29093 0.46717 0.34301 0.0
H1400 H 0.28112 0.36749 0.26944 0.0
H1401 H 0.31798 0.40195 0.26914 0.0
H1402 H 0.25804 0.33665 0.28855 0.0
H1403 H 0.23419 0.33351 0.3056 0.0
C1404 C 0.59045 0.89924 0.30482 0.0
C1405 C 0.5622 0.87376 0.29505 0.0
C1406 C 0.57999 0.83581 0.30185 0.0
C1407 C 0.60667 0.86073 0.31304 0.0
N1408 N 0.63471 0.91505 0.3276 0.0
N1409 N 0.52694 0.8168 0.28741 0.0
C1410 C 0.61102 0.89209 0.31534 0.0
C1411 C 0.55611 0.84174 0.2944 0.0
N1412 N 0.59839 0.93037 0.30339 0.0
N1413 N 0.57744 0.80647 0.29825 0.0
H1414 H 0.50852 0.82004 0.28223 0.0
H1415 H 0.51993 0.7928 0.28834 0.0
H1416 H 0.5936 0.80057 0.304 0.0
H1417 H 0.56054 0.7887 0.28853 0.0
H1418 H 0.62026 0.95 0.30862 0.0
H1419 H 0.58435 0.93665 0.29549 0.0
H1420 H 0.63691 0.93728 0.33128 0.0
H1421 H 0.6507 0.91097 0.33524 0.0
C1422 C 0.11906 0.70198 0.32036 0.0
C1423 C 0.14112 0.69583 0.31195 0.0
C1424 C 0.18343 0.75114 0.32153 0.0
C1425 C 0.16194 0.75645 0.33125 0.0
N1426 N 0.1121 0.7332 0.34441 0.0
N1427 N 0.19594 0.71199 0.30875 0.0
C1428 C 0.1305 0.73082 0.33195 0.0
C1429 C 0.17383 0.71965 0.3138 0.0
N1430 N 0.08714 0.68087 0.31687 0.0
N1431 N 0.21252 0.77619 0.31895 0.0
H1432 H 0.19002 0.68892 0.30353 0.0
H1433 H 0.22036 0.72765 0.31152 0.0
H1434 H 0.22059 0.79971 0.32417 0.0
H1435 H 0.22744 0.77405 0.3102 0.0
H1436 H 0.07007 0.68594 0.3213 0.0
H1437 H 0.0777 0.65975 0.30814 0.0
H1438 H 0.09015 0.71393 0.34663 0.0
H1439 H 0.12025 0.7532 0.3539 0.0
C1440 C 0.75861 0.97304 0.36531 0.0
C1441 C 0.78852 0.97958 0.37349 0.0
C1442 C 0.77556 0.92496 0.36291 0.0
C1443 C 0.74719 0.91964 0.35298 0.0
N1444 N 0.71748 0.9432 0.34063 0.0
N1445 N 0.82853 0.96419 0.37648 0.0
C1446 C 0.74017 0.94489 0.35306 0.0
C1447 C 0.79791 0.95624 0.37126 0.0
N1448 N 0.74742 0.99331 0.36945 0.0
N1449 N 0.78084 0.90008 0.36502 0.0
H1450 H 0.84591 0.98706 0.38226 0.0
H1451 H 0.83748 0.94906 0.37339 0.0
H1452 H 0.76516 0.87667 0.35943 0.0
H1453 H 0.79936 0.90212 0.37381 0.0
H1454 H 0.72437 0.98787 0.36518 0.0
H1455 H 0.75999 0.01395 0.3786 0.0
H1456 H 0.71351 0.96227 0.33921 0.0
H1457 H 0.70554 0.92458 0.33021 0.0
C1458 C 0.05152 0.82219 0.3805 0.0
C1459 C 0.02763 0.78944 0.37965 0.0
C1460 C 0.05651 0.77518 0.35845 0.0
C1461 C 0.08223 0.80753 0.3609 0.0
N1462 N 0.10603 0.86088 0.37714 0.0
N1463 N 0.01011 0.7339 0.3706 0.0
C1464 C 0.08036 0.83069 0.37286 0.0
C1465 C 0.03082 0.76568 0.36934 0.0
N1466 N 0.04611 0.84549 0.38785 0.0
N1467 N 0.05644 0.75329 0.34585 0.0
H1468 H 0.99136 0.72601 0.37866 0.0
H1469 H 0.01325 0.71546 0.36507 0.0
H1470 H 0.07521 0.75822 0.33821 0.0
H1471 H 0.03663 0.73067 0.34201 0.0
H1472 H 0.06112 0.86988 0.38694 0.0
H1473 H 0.02504 0.84043 0.39325 0.0
H1474 H 0.10712 0.87685 0.38763 0.0
H1475 H 0.12713 0.86961 0.37115 0.0
C1476 C 0.22942 0.26529 0.36564 0.0
C1477 C 0.20653 0.23616 0.37171 0.0
C1478 C 0.16404 0.24485 0.35957 0.0
C1479 C 0.18649 0.27159 0.35123 0.0
N1480 N 0.24043 0.30257 0.3433 0.0
N1481 N 0.1515 0.19481 0.37131 0.0
C1482 C 0.21924 0.28073 0.35351 0.0
C1483 C 0.17366 0.22493 0.36778 0.0
N1484 N 0.26088 0.27849 0.37164 0.0
N1485 N 0.13386 0.2392 0.36052 0.0
H1486 H 0.15744 0.17916 0.3771 0.0
H1487 H 0.12739 0.18424 0.36687 0.0
H1488 H 0.12624 0.25407 0.35557 0.0
H1489 H 0.11763 0.22205 0.36806 0.0
H1490 H 0.27821 0.30139 0.36913 0.0
H1491 H 0.26918 0.26789 0.38061 0.0
H1492 H 0.26384 0.30763 0.34325 0.0
H1493 H 0.23391 0.31285 0.33329 0.0
C1494 C 0.69381 0.56674 0.69358 0.0
C1495 C 0.69347 0.57586 0.71205 0.0
C1496 C 0.74427 0.62529 0.71106 0.0
C1497 C 0.74711 0.61371 0.6936 0.0
N1498 N 0.72633 0.5695 0.66976 0.0
N1499 N 0.72161 0.61114 0.73941 0.0
C1500 C 0.72229 0.58343 0.68518 0.0
C1501 C 0.71961 0.60441 0.7211 0.0
N1502 N 0.66673 0.5426 0.68391 0.0
N1503 N 0.76426 0.65662 0.71781 0.0
H1504 H 0.7045 0.59608 0.74741 0.0
H1505 H 0.74179 0.63002 0.74686 0.0
H1506 H 0.78142 0.67337 0.7105 0.0
H1507 H 0.76132 0.66685 0.72977 0.0
H1508 H 0.66487 0.53718 0.66995 0.0
H1509 H 0.64519 0.53023 0.68947 0.0
H1510 H 0.71019 0.546 0.66432 0.0
H1511 H 0.74715 0.5798 0.66344 0.0
C1512 C 0.41459 0.09669 0.70045 0.0
C1513 C 0.44191 0.1198 0.71199 0.0
C1514 C 0.43049 0.16163 0.70417 0.0
C1515 C 0.40093 0.13804 0.6948 0.0
N1516 N 0.36238 0.08204 0.68642 0.0
N1517 N 0.47145 0.17308 0.7281 0.0
C1518 C 0.39223 0.10519 0.69359 0.0
C1519 C 0.44856 0.15195 0.71484 0.0
N1520 N 0.41054 0.06707 0.69548 0.0
N1521 N 0.44224 0.19329 0.70211 0.0
H1522 H 0.48448 0.16667 0.73675 0.0
H1523 H 0.47502 0.19593 0.73173 0.0
H1524 H 0.43068 0.20094 0.69328 0.0
H1525 H 0.46501 0.21127 0.70742 0.0
H1526 H 0.39272 0.05049 0.68568 0.0
H1527 H 0.42678 0.06021 0.69983 0.0
H1528 H 0.35372 0.05758 0.68686 0.0
H1529 H 0.34531 0.08738 0.68151 0.0
C1530 C 0.89067 0.30639 0.69182 0.0
C1531 C 0.86846 0.31293 0.69971 0.0
C1532 C 0.82619 0.25758 0.69038 0.0
C1533 C 0.84752 0.2521 0.68061 0.0
N1534 N 0.89847 0.27462 0.6685 0.0
N1535 N 0.81365 0.29688 0.70286 0.0
C1536 C 0.87939 0.27741 0.68035 0.0
C1537 C 0.83576 0.28917 0.69788 0.0
N1538 N 0.92256 0.3274 0.69563 0.0
N1539 N 0.79744 0.23252 0.69343 0.0
H1540 H 0.81959 0.31995 0.7081 0.0
H1541 H 0.78923 0.28119 0.70007 0.0
H1542 H 0.7902 0.20879 0.68914 0.0
H1543 H 0.78244 0.23494 0.70199 0.0
H1544 H 0.93978 0.32214 0.69173 0.0
H1545 H 0.93179 0.34873 0.70416 0.0
H1546 H 0.92088 0.29356 0.66669 0.0
H1547 H 0.89063 0.25482 0.65894 0.0
C1548 C 0.22126 0.03421 0.65023 0.0
C1549 C 0.23075 0.01825 0.63758 0.0
C1550 C 0.28659 0.06063 0.64486 0.0
C1551 C 0.27693 0.07731 0.65693 0.0
N1552 N 0.23487 0.08344 0.66859 0.0
N1553 N 0.27132 0.01733 0.621 0.0
C1554 C 0.24419 0.06505 0.65893 0.0
C1555 C 0.26314 0.03179 0.63436 0.0
N1556 N 0.19035 0.01961 0.65413 0.0
N1557 N 0.31824 0.07204 0.64371 0.0
H1558 H 0.25502 0.9955 0.61357 0.0
H1559 H 0.29376 0.02773 0.61644 0.0
H1560 H 0.33589 0.09385 0.65045 0.0
H1561 H 0.32721 0.05925 0.63695 0.0
H1562 H 0.18265 0.0281 0.66477 0.0
H1563 H 0.17258 0.9976 0.64751 0.0
H1564 H 0.21126 0.07755 0.6688 0.0
H1565 H 0.25082 0.10611 0.67526 0.0
C1566 C 0.97886 0.21033 0.64741 0.0
C1567 C 0.97788 0.21476 0.62876 0.0
C1568 C 0.9265 0.21192 0.63033 0.0
C1569 C 0.92513 0.20231 0.6481 0.0
N1570 N 0.94816 0.18599 0.67203 0.0
N1571 N 0.94776 0.2139 0.60157 0.0
C1572 C 0.95089 0.19998 0.65633 0.0
C1573 C 0.95088 0.21399 0.61995 0.0
N1574 N 0.00667 0.2165 0.65672 0.0
N1575 N 0.90524 0.22021 0.62355 0.0
H1576 H 0.96476 0.21482 0.59338 0.0
H1577 H 0.92688 0.20972 0.59432 0.0
H1578 H 0.88813 0.22085 0.63104 0.0
H1579 H 0.90694 0.22997 0.61128 0.0
H1580 H 0.00945 0.2167 0.67074 0.0
H1581 H 0.02782 0.22466 0.65074 0.0
H1582 H 0.96506 0.18076 0.67742 0.0
H1583 H 0.92767 0.17636 0.67867 0.0
C1584 C 0.77755 0.74779 0.6529 0.0
C1585 C 0.79538 0.76777 0.63985 0.0
C1586 C 0.83769 0.7552 0.64637 0.0
C1587 C 0.8208 0.73681 0.66025 0.0
N1588 N 0.7772 0.71933 0.67869 0.0
N1589 N 0.84224 0.79131 0.62399 0.0
C1590 C 0.79121 0.73381 0.66392 0.0
C1591 C 0.82534 0.77152 0.63648 0.0
N1592 N 0.74756 0.74229 0.65477 0.0
N1593 N 0.86517 0.75638 0.64232 0.0
H1594 H 0.83287 0.80144 0.61537 0.0
H1595 H 0.86593 0.79881 0.62248 0.0
H1596 H 0.87635 0.74721 0.6502 0.0
H1597 H 0.87641 0.76524 0.63083 0.0
H1598 H 0.73177 0.72509 0.66244 0.0
H1599 H 0.73739 0.75337 0.64761 0.0
H1600 H 0.75739 0.71915 0.6833 0.0
H1601 H 0.78701 0.70985 0.68747 0.0
C1602 C 0.95812 0.72977 0.62415 0.0
C1603 C 0.97958 0.76235 0.63073 0.0
C1604 C 0.94661 0.75821 0.65531 0.0
C1605 C 0.92589 0.72508 0.64928 0.0
N1606 N 0.91515 0.67791 0.62999 0.0
N1607 N 0.99706 0.80677 0.65382 0.0
C1608 C 0.93252 0.7105 0.63422 0.0
C1609 C 0.97475 0.77622 0.64676 0.0
N1610 N 0.962 0.71732 0.6081 0.0
N1611 N 0.93847 0.77315 0.66841 0.0
H1612 H 0.01678 0.82173 0.64733 0.0
H1613 H 0.99722 0.81668 0.66669 0.0
H1614 H 0.91831 0.76127 0.67515 0.0
H1615 H 0.95026 0.79793 0.67166 0.0
H1616 H 0.94493 0.69524 0.60129 0.0
H1617 H 0.98155 0.72993 0.60092 0.0
H1618 H 0.92096 0.66537 0.62053 0.0
H1619 H 0.89639 0.66279 0.63703 0.0
C1620 C 0.22774 0.17614 0.62174 0.0
C1621 C 0.22379 0.20158 0.62913 0.0
C1622 C 0.26605 0.21542 0.65355 0.0
C1623 C 0.26796 0.18824 0.64706 0.0
N1624 N 0.24636 0.13905 0.62713 0.0
N1625 N 0.23506 0.24204 0.65369 0.0
C1626 C 0.24763 0.16756 0.63173 0.0
C1627 C 0.24176 0.22025 0.64553 0.0
N1628 N 0.21329 0.16082 0.60491 0.0
N1629 N 0.28829 0.2374 0.66681 0.0
H1630 H 0.2175 0.24631 0.6482 0.0
H1631 H 0.24497 0.25385 0.66662 0.0
H1632 H 0.3067 0.23496 0.67287 0.0
H1633 H 0.29021 0.25943 0.67069 0.0
H1634 H 0.21814 0.1446 0.59798 0.0
H1635 H 0.1985 0.16638 0.59717 0.0
H1636 H 0.22964 0.12149 0.61726 0.0
H1637 H 0.25999 0.1315 0.63436 0.0
C1638 C 0.78582 0.03086 0.65618 0.0
C1639 C 0.80395 0.0272 0.643 0.0
C1640 C 0.84572 0.08373 0.65023 0.0
C1641 C 0.82805 0.08707 0.66388 0.0
N1642 N 0.78538 0.06238 0.68269 0.0
N1643 N 0.85165 0.04873 0.62785 0.0
C1644 C 0.79906 0.06028 0.66753 0.0
C1645 C 0.83405 0.0533 0.64012 0.0
N1646 N 0.75596 0.00615 0.6579 0.0
N1647 N 0.87327 0.10985 0.64659 0.0
H1648 H 0.84293 0.02762 0.6192 0.0
H1649 H 0.87537 0.06518 0.62665 0.0
H1650 H 0.88429 0.13151 0.65481 0.0
H1651 H 0.88489 0.11059 0.6352 0.0
H1652 H 0.74001 0.00856 0.66563 0.0
H1653 H 0.7461 0.98357 0.65061 0.0
H1654 H 0.76586 0.04305 0.6872 0.0
H1655 H 0.79584 0.08284 0.69195 0.0
C1656 C 0.44576 0.29186 0.71367 0.0
C1657 C 0.44276 0.31778 0.70799 0.0
C1658 C 0.401 0.28067 0.68418 0.0
C1659 C 0.4021 0.25455 0.69121 0.0
N1660 N 0.41735 0.23537 0.71685 0.0
N1661 N 0.41181 0.33519 0.69057 0.0
C1662 C 0.42204 0.26012 0.70721 0.0
C1663 C 0.41867 0.31176 0.69401 0.0
N1664 N 0.47181 0.29734 0.72466 0.0
N1665 N 0.38391 0.27614 0.66794 0.0
H1666 H 0.42343 0.35786 0.6979 0.0
H1667 H 0.39246 0.33106 0.68171 0.0
H1668 H 0.37049 0.25381 0.66035 0.0
H1669 H 0.38508 0.29504 0.66135 0.0
H1670 H 0.47596 0.27894 0.72783 0.0
H1671 H 0.4909 0.32031 0.72887 0.0
H1672 H 0.42976 0.23869 0.72946 0.0
H1673 H 0.39838 0.21223 0.71326 0.0
C1674 C 0.70036 0.13832 0.70049 0.0
C1675 C 0.69284 0.11689 0.71398 0.0
C1676 C 0.74149 0.11487 0.71039 0.0
C1677 C 0.7479 0.1345 0.69593 0.0
N1678 N 0.73002 0.16009 0.67503 0.0
N1679 N 0.7027 0.08001 0.72953 0.0
C1680 C 0.72619 0.14458 0.69024 0.0
C1681 C 0.71245 0.10385 0.71832 0.0
N1682 N 0.68371 0.15393 0.69803 0.0
N1683 N 0.76314 0.10671 0.71661 0.0
H1684 H 0.68154 0.0713 0.73556 0.0
H1685 H 0.71404 0.06691 0.73164 0.0
H1686 H 0.78374 0.11249 0.71054 0.0
H1687 H 0.76182 0.0961 0.72852 0.0
H1688 H 0.69044 0.17268 0.68997 0.0
H1689 H 0.66476 0.15022 0.70534 0.0
H1690 H 0.71282 0.16437 0.66907 0.0
H1691 H 0.74925 0.16669 0.6675 0.0
C1692 C 0.83642 0.55549 0.69963 0.0
C1693 C 0.86937 0.56727 0.7037 0.0
C1694 C 0.88161 0.61151 0.68537 0.0
C1695 C 0.84874 0.60184 0.6829 0.0
N1696 N 0.79585 0.56849 0.69174 0.0
N1697 N 0.92347 0.61028 0.70386 0.0
C1698 C 0.82638 0.5749 0.69116 0.0
C1699 C 0.89201 0.59654 0.69768 0.0
N1700 N 0.81462 0.52531 0.70328 0.0
N1701 N 0.90275 0.63336 0.67513 0.0
H1702 H 0.93194 0.6 0.71294 0.0
H1703 H 0.94055 0.6333 0.70138 0.0
H1704 H 0.89609 0.64313 0.66489 0.0
H1705 H 0.92631 0.63882 0.67527 0.0
H1706 H 0.79052 0.51424 0.69872 0.0
H1707 H 0.82091 0.51015 0.70938 0.0
H1708 H 0.77973 0.55128 0.69931 0.0
H1709 H 0.78753 0.58255 0.68637 0.0
C1710 C 0.45621 0.93914 0.14368 0.0
C1711 C 0.47425 0.95994 0.15951 0.0
C1712 C 0.50433 0.00317 0.14074 0.0
C1713 C 0.48902 0.98125 0.1249 0.0
N1714 N 0.45344 0.92709 0.11125 0.0
N1715 N 0.51895 0.01024 0.17309 0.0
C1716 C 0.46567 0.94887 0.12634 0.0
C1717 C 0.49922 0.99161 0.15805 0.0
N1718 N 0.42953 0.91042 0.1452 0.0
N1719 N 0.52311 0.03522 0.13926 0.0
H1720 H 0.51624 0.00264 0.18601 0.0
H1721 H 0.53968 0.0321 0.17254 0.0
H1722 H 0.52715 0.04466 0.12683 0.0
H1723 H 0.53219 0.05273 0.15033 0.0
H1724 H 0.41355 0.89571 0.13416 0.0
H1725 H 0.42178 0.90261 0.15766 0.0
H1726 H 0.439 0.90248 0.11171 0.0
H1727 H 0.45982 0.93323 0.09833 0.0
C1728 C 0.06063 0.5096 0.1521 0.0
C1729 C 0.05442 0.52707 0.16573 0.0
C1730 C 0.03138 0.54551 0.14254 0.0
C1731 C 0.03481 0.52566 0.12905 0.0
N1732 N 0.04798 0.48483 0.12106 0.0
N1733 N 0.02832 0.55642 0.17434 0.0
C1734 C 0.04816 0.50657 0.13383 0.0
C1735 C 0.03817 0.54352 0.16106 0.0
N1736 N 0.07924 0.49677 0.15652 0.0
N1737 N 0.0227 0.56708 0.13765 0.0
H1738 H 0.03252 0.55518 0.18809 0.0
H1739 H 0.01342 0.56566 0.17167 0.0
H1740 H 0.01796 0.56964 0.12419 0.0
H1741 H 0.02312 0.58453 0.14682 0.0
H1742 H 0.08748 0.48682 0.14693 0.0
H1743 H 0.08861 0.49836 0.16976 0.0
H1744 H 0.05429 0.46788 0.12411 0.0
H1745 H 0.03902 0.48193 0.10757 0.0
C1746 C 0.47905 0.49733 0.1548 0.0
C1747 C 0.47575 0.52321 0.16212 0.0
C1748 C 0.48627 0.54642 0.13315 0.0
C1749 C 0.49329 0.52266 0.12661 0.0
N1750 N 0.49965 0.47727 0.13162 0.0
N1751 N 0.47932 0.5743 0.15919 0.0
C1752 C 0.49039 0.49844 0.13751 0.0
C1753 C 0.48 0.54821 0.15151 0.0
N1754 N 0.47076 0.47141 0.16426 0.0
N1755 N 0.48501 0.56686 0.12169 0.0
H1756 H 0.47435 0.57631 0.1725 0.0
H1757 H 0.48591 0.595 0.15285 0.0
H1758 H 0.48967 0.56633 0.1082 0.0
H1759 H 0.47675 0.58247 0.12503 0.0
H1760 H 0.46942 0.45028 0.15892 0.0
H1761 H 0.46251 0.46991 0.17699 0.0
H1762 H 0.50162 0.46146 0.13975 0.0
H1763 H 0.50768 0.47704 0.11895 0.0
C1764 C 0.94102 0.4603 0.85296 0.0
C1765 C 0.96274 0.48593 0.84372 0.0
C1766 C 1.00061 0.5086 0.87108 0.0
C1767 C 0.97819 0.48385 0.88052 0.0
N1768 N 0.92494 0.44001 0.88179 0.0
N1769 N 0.01047 0.53741 0.84443 0.0
C1770 C 0.9477 0.46088 0.87185 0.0
C1771 C 0.99176 0.51102 0.85294 0.0
N1772 N 0.91465 0.43473 0.84353 0.0
N1773 N 0.03068 0.52906 0.87925 0.0
H1774 H 0.00473 0.53979 0.83111 0.0
H1775 H 0.03025 0.55801 0.85097 0.0
H1776 H 0.03781 0.52837 0.89263 0.0
H1777 H 0.0492 0.54526 0.87245 0.0
H1778 H 0.89993 0.41365 0.84909 0.0
H1779 H 0.90874 0.43341 0.82967 0.0
H1780 H 0.90124 0.42502 0.87666 0.0
H1781 H 0.92906 0.43961 0.89567 0.0
C1782 C 0.5491 0.511 0.86239 0.0
C1783 C 0.52629 0.49938 0.84697 0.0
C1784 C 0.48313 0.48233 0.86649 0.0
C1785 C 0.50595 0.49514 0.88195 0.0
N1786 N 0.56062 0.52679 0.89483 0.0
N1787 N 0.47267 0.4804 0.83404 0.0
C1788 C 0.53899 0.51109 0.87996 0.0
C1789 C 0.49362 0.48715 0.84896 0.0
N1790 N 0.58018 0.52086 0.86024 0.0
N1791 N 0.45147 0.46411 0.86852 0.0
H1792 H 0.47952 0.48345 0.82095 0.0
H1793 H 0.44917 0.47462 0.83476 0.0
H1794 H 0.4427 0.45972 0.88111 0.0
H1795 H 0.43403 0.45105 0.85774 0.0
H1796 H 0.59732 0.52603 0.87096 0.0
H1797 H 0.58852 0.52199 0.84756 0.0
H1798 H 0.58491 0.54148 0.89413 0.0
H1799 H 0.55399 0.52724 0.90788 0.0
C1800 C 0.53102 0.01262 0.8533 0.0
C1801 C 0.53045 0.04046 0.84887 0.0
C1802 C 0.51621 0.04776 0.8792 0.0
C1803 C 0.51347 0.01809 0.88289 0.0
N1804 N 0.51561 0.97066 0.87332 0.0
N1805 N 0.52041 0.08354 0.85667 0.0
C1806 C 0.52034 1.00015 0.86994 0.0
C1807 C 0.52267 0.05791 0.86162 0.0
N1808 N 0.54227 0.99845 0.84169 0.0
N1809 N 0.51307 0.06638 0.89262 0.0
H1810 H 0.52588 0.09222 0.84411 0.0
H1811 H 0.51127 0.09503 0.8645 0.0
H1812 H 0.50775 0.05936 0.90554 0.0
H1813 H 0.51805 0.08975 0.89148 0.0
H1814 H 0.54651 0.98018 0.84489 0.0
H1815 H 0.5498 0.00668 0.82926 0.0
H1816 H 0.51649 0.95466 0.86365 0.0
H1817 H 0.50873 0.96115 0.88555 0.0
C1818 C 0.17134 0.32467 0.49419 0.0
C1819 C 0.14396 0.2941 0.49481 0.0
C1820 C 0.13648 0.28565 0.46156 0.0
C1821 C 0.1626 0.31708 0.46098 0.0
N1822 N 0.2006 0.369 0.47657 0.0
N1823 N 0.09689 0.24807 0.47936 0.0
C1824 C 0.17874 0.33735 0.47727 0.0
C1825 C 0.12543 0.27535 0.47855 0.0
N1826 N 0.19106 0.34103 0.50965 0.0
N1827 N 0.12303 0.26521 0.44597 0.0
H1828 H 0.08805 0.23989 0.49156 0.0
H1829 H 0.08073 0.23516 0.46804 0.0
H1830 H 0.13041 0.27186 0.43328 0.0
H1831 H 0.1063 0.24093 0.44576 0.0
H1832 H 0.21321 0.36163 0.50971 0.0
H1833 H 0.18663 0.33258 0.52233 0.0
H1834 H 0.21067 0.38576 0.48798 0.0
H1835 H 0.2065 0.37922 0.46443 0.0
C1836 C 0.69475 0.87272 0.49481 0.0
C1837 C 0.70639 0.8523 0.49975 0.0
C1838 C 0.69389 0.82734 0.46838 0.0
C1839 C 0.68611 0.85053 0.46311 0.0
N1840 N 0.68478 0.89913 0.47086 0.0
N1841 N 0.72138 0.81316 0.49093 0.0
C1842 C 0.68799 0.87425 0.47621 0.0
C1843 C 0.70708 0.83031 0.48646 0.0
N1844 N 0.68932 0.89006 0.50792 0.0
N1845 N 0.6879 0.80203 0.45625 0.0
H1846 H 0.73139 0.81476 0.50401 0.0
H1847 H 0.72569 0.79942 0.4814 0.0
H1848 H 0.67794 0.79889 0.44295 0.0
H1849 H 0.69008 0.78265 0.45979 0.0
H1850 H 0.67775 0.90274 0.50511 0.0
H1851 H 0.69352 0.88923 0.52173 0.0
H1852 H 0.68939 0.91892 0.47969 0.0
H1853 H 0.68048 0.90162 0.45733 0.0
C1854 C 0.14497 0.82913 0.48531 0.0
C1855 C 0.13852 0.85287 0.49262 0.0
C1856 C 0.14838 0.87721 0.46402 0.0
C1857 C 0.15892 0.85616 0.45766 0.0
N1858 N 0.17036 0.81397 0.46274 0.0
N1859 N 0.13735 0.90178 0.48989 0.0
C1860 C 0.15785 0.83243 0.46838 0.0
C1861 C 0.14086 0.87742 0.48219 0.0
N1862 N 0.13827 0.80317 0.49445 0.0
N1863 N 0.14502 0.89659 0.45255 0.0
H1864 H 0.13159 0.90274 0.5031 0.0
H1865 H 0.14248 0.9223 0.48368 0.0
H1866 H 0.15034 0.89706 0.43916 0.0
H1867 H 0.1343 0.91001 0.45577 0.0
H1868 H 0.13939 0.7834 0.48903 0.0
H1869 H 0.1288 0.80007 0.50687 0.0
H1870 H 0.17361 0.79886 0.47086 0.0
H1871 H 0.17978 0.8155 0.45037 0.0
C1872 C 0.65324 0.84074 0.18635 0.0
C1873 C 0.62693 0.81285 0.17686 0.0
C1874 C 0.61496 0.7867 0.20484 0.0
C1875 C 0.64306 0.8133 0.21388 0.0
N1876 N 0.69082 0.86446 0.21334 0.0
N1877 N 0.58411 0.75816 0.17618 0.0
C1878 C 0.66267 0.84011 0.20469 0.0
C1879 C 0.60803 0.78553 0.18588 0.0
N1880 N 0.66881 0.86797 0.17788 0.0
N1881 N 0.59468 0.76287 0.21447 0.0
H1882 H 0.57778 0.75669 0.16236 0.0
H1883 H 0.57183 0.73626 0.18148 0.0
H1884 H 0.59937 0.76275 0.22833 0.0
H1885 H 0.57217 0.74451 0.20913 0.0
H1886 H 0.68594 0.89015 0.18454 0.0
H1887 H 0.66291 0.86907 0.16434 0.0
H1888 H 0.70798 0.88278 0.20682 0.0
H1889 H 0.69813 0.86532 0.22693 0.0
C1890 C 0.21638 0.83166 0.19322 0.0
C1891 C 0.1946 0.80872 0.17903 0.0
C1892 C 0.1551 0.78368 0.20048 0.0
C1893 C 0.17555 0.80855 0.21423 0.0
N1894 N 0.22343 0.85952 0.22291 0.0
N1895 N 0.14087 0.76723 0.16832 0.0
C1896 C 0.20564 0.8335 0.2104 0.0
C1897 C 0.16325 0.78595 0.18242 0.0
N1898 N 0.24753 0.85097 0.19047 0.0
N1899 N 0.12839 0.7573 0.20477 0.0
H1900 H 0.14564 0.76863 0.15482 0.0
H1901 H 0.11685 0.75265 0.16987 0.0
H1902 H 0.12186 0.75437 0.21792 0.0
H1903 H 0.11443 0.73694 0.19564 0.0
H1904 H 0.26519 0.86572 0.20084 0.0
H1905 H 0.25628 0.8502 0.1781 0.0
H1906 H 0.24404 0.87994 0.22021 0.0
H1907 H 0.21609 0.86194 0.23551 0.0
C1908 C 0.19856 0.34982 0.18904 0.0
C1909 C 0.19977 0.37834 0.18428 0.0
C1910 C 0.18856 0.38895 0.21489 0.0
C1911 C 0.18367 0.35861 0.21891 0.0
N1912 N 0.1815 0.30876 0.20973 0.0
N1913 N 0.1933 0.4239 0.1918 0.0
C1914 C 0.1882 0.33872 0.206 0.0
C1915 C 0.19429 0.39776 0.19702 0.0
N1916 N 0.20787 0.33371 0.17744 0.0
N1917 N 0.18816 0.40948 0.22826 0.0
H1918 H 0.19797 0.43149 0.17894 0.0
H1919 H 0.18575 0.43685 0.19973 0.0
H1920 H 0.18363 0.4036 0.24144 0.0
H1921 H 0.19484 0.43323 0.22677 0.0
H1922 H 0.2107 0.31464 0.18081 0.0
H1923 H 0.2153 0.34107 0.16485 0.0
H1924 H 0.18067 0.2916 0.20017 0.0
H1925 H 0.17472 0.30017 0.22219 0.0
C1926 C 0.78625 0.62646 0.81339 0.0
C1927 C 0.80942 0.62955 0.82711 0.0
C1928 C 0.85035 0.65142 0.80607 0.0
C1929 C 0.82789 0.65123 0.79295 0.0
N1930 N 0.77581 0.64392 0.78523 0.0
N1931 N 0.86471 0.65108 0.83774 0.0
C1932 C 0.79616 0.64022 0.79691 0.0
C1933 C 0.84184 0.64381 0.8238 0.0
N1934 N 0.75469 0.60946 0.81584 0.0
N1935 N 0.87949 0.65777 0.80143 0.0
H1936 H 0.85955 0.6464 0.851 0.0
H1937 H 0.88899 0.66454 0.83654 0.0
H1938 H 0.88652 0.66301 0.78852 0.0
H1939 H 0.89551 0.65486 0.80984 0.0
H1940 H 0.73653 0.60342 0.80559 0.0
H1941 H 0.74653 0.59901 0.82768 0.0
H1942 H 0.75342 0.63936 0.78819 0.0
H1943 H 0.78242 0.65431 0.77319 0.0
C1944 C 0.3367 0.18449 0.82747 0.0
C1945 C 0.35067 0.1665 0.83328 0.0
C1946 C 0.34063 0.14035 0.80234 0.0
C1947 C 0.33094 0.16166 0.79617 0.0
N1948 N 0.32451 0.20766 0.80253 0.0
N1949 N 0.36958 0.12996 0.82602 0.0
C1950 C 0.33006 0.18462 0.80865 0.0
C1951 C 0.35346 0.14495 0.82068 0.0
N1952 N 0.32927 0.20103 0.83997 0.0
N1953 N 0.33699 0.11538 0.79075 0.0
H1954 H 0.37934 0.13271 0.83932 0.0
H1955 H 0.37548 0.11684 0.81701 0.0
H1956 H 0.32743 0.11119 0.77727 0.0
H1957 H 0.34067 0.09719 0.79489 0.0
H1958 H 0.31612 0.21191 0.83656 0.0
H1959 H 0.33349 0.20121 0.8539 0.0
H1960 H 0.32715 0.22711 0.81091 0.0
H1961 H 0.32011 0.20911 0.78883 0.0
C1962 C 0.81902 0.15999 0.82286 0.0
C1963 C 0.81117 0.18293 0.82975 0.0
C1964 C 0.81895 0.20556 0.80061 0.0
C1965 C 0.8305 0.18523 0.79454 0.0
N1966 N 0.84487 0.14533 0.80035 0.0
N1967 N 0.80708 0.23006 0.82616 0.0
C1968 C 0.83128 0.16288 0.80575 0.0
C1969 C 0.81187 0.20631 0.81885 0.0
N1970 N 0.81415 0.13509 0.83254 0.0
N1971 N 0.81413 0.22366 0.78881 0.0
H1972 H 0.80154 0.23132 0.83941 0.0
H1973 H 0.81095 0.2499 0.81959 0.0
H1974 H 0.81917 0.22378 0.77537 0.0
H1975 H 0.8026 0.23635 0.79183 0.0
H1976 H 0.81625 0.11573 0.82748 0.0
H1977 H 0.80526 0.13233 0.84513 0.0
H1978 H 0.84947 0.13137 0.80875 0.0
H1979 H 0.85383 0.14654 0.78786 0.0
C1980 C 0.27774 0.12393 0.52129 0.0
C1981 C 0.29385 0.15024 0.51103 0.0
C1982 C 0.33175 0.1821 0.53749 0.0
C1983 C 0.31482 0.15629 0.54794 0.0
N1984 N 0.26947 0.1046 0.55096 0.0
N1985 N 0.33296 0.20573 0.5095 0.0
C1986 C 0.28709 0.12776 0.54018 0.0
C1987 C 0.31993 0.17978 0.51919 0.0
N1988 N 0.25409 0.09505 0.51283 0.0
N1989 N 0.35961 0.20847 0.54495 0.0
H1990 H 0.32543 0.20466 0.49592 0.0
H1991 H 0.34965 0.22889 0.51515 0.0
H1992 H 0.36842 0.21157 0.5585 0.0
H1993 H 0.3751 0.2264 0.53754 0.0
H1994 H 0.24383 0.0739 0.51901 0.0
H1995 H 0.24595 0.09163 0.49914 0.0
H1996 H 0.2472 0.08479 0.54663 0.0
H1997 H 0.27609 0.10628 0.56476 0.0
C1998 C 0.83468 0.12819 0.51867 0.0
C1999 C 0.86608 0.15144 0.51567 0.0
C2000 C 0.87511 0.17662 0.54678 0.0
C2001 C 0.84516 0.1511 0.55034 0.0
N2002 N 0.79904 0.09914 0.54061 0.0
N2003 N 0.91809 0.19496 0.52759 0.0
C2004 C 0.82563 0.1259 0.53654 0.0
C2005 C 0.88688 0.17496 0.52993 0.0
N2006 N 0.81312 0.10895 0.50437 0.0
N2007 N 0.89182 0.20291 0.55925 0.0
H2008 H 0.92758 0.19436 0.51546 0.0
H2009 H 0.93513 0.21022 0.5381 0.0
H2010 H 0.88366 0.20517 0.5716 0.0
H2011 H 0.91227 0.22364 0.55671 0.0
H2012 H 0.78903 0.09392 0.50557 0.0
H2013 H 0.81858 0.11031 0.49099 0.0
H2014 H 0.78586 0.07861 0.53148 0.0
H2015 H 0.79185 0.09615 0.55361 0.0
C2016 C 0.869 0.68201 0.52223 0.0
C2017 C 0.86299 0.7053 0.51517 0.0
C2018 C 0.83862 0.70889 0.54251 0.0
C2019 C 0.8459 0.68667 0.54992 0.0
N2020 N 0.87289 0.65639 0.54855 0.0
N2021 N 0.84792 0.74555 0.51974 0.0
C2022 C 0.8626 0.67453 0.54028 0.0
C2023 C 0.84957 0.72016 0.52569 0.0
N2024 N 0.87978 0.66626 0.51145 0.0
N2025 N 0.8202 0.71828 0.55122 0.0
H2026 H 0.85551 0.75433 0.50743 0.0
H2027 H 0.8416 0.75966 0.52762 0.0
H2028 H 0.8121 0.71096 0.56369 0.0
H2029 H 0.81092 0.73139 0.54551 0.0
H2030 H 0.88121 0.64651 0.51502 0.0
H2031 H 0.88527 0.67154 0.4983 0.0
H2032 H 0.88802 0.64957 0.54302 0.0
H2033 H 0.86839 0.6503 0.56169 0.0
loop_
_geom_bond_atom_site_label_1
_geom_bond_atom_site_label_2
_geom_bond_distance
_geom_bond_site_symmetry_2
_ccdc_geom_bond_type
C0 C1 1.386 . S
C0 C2 1.397 . S
C0 H24 0.931 . S
C1 C0 1.386 . S
C1 C5 1.397 . S
C2 C0 1.397 . S
C2 C3 1.384 . S
C2 H25 0.930 . S
C3 C2 1.384 . S
C3 C4 1.377 . S
C3 C6 1.481 . S
C4 C3 1.377 . S
C4 C5 1.389 . S
C4 H26 0.929 . S
C5 C1 1.397 . S
C5 C4 1.389 . S
C5 H27 0.931 . S
C6 C3 1.481 . S
C6 C7 1.387 . S
C6 C11 1.390 . S
C7 C6 1.387 . S
C7 C8 1.401 . S
C7 H28 0.930 . S
C8 C7 1.401 . S
C8 C9 1.376 . S
C8 C17 1.511 . S
C9 C8 1.376 . S
C9 C10 1.392 . S
C9 H30 0.931 . S
C10 C9 1.392 . S
C10 C11 1.361 . S
C10 C12 1.500 . S
C11 C6 1.390 . S
C11 C10 1.361 . S
C11 H29 0.931 . S
C12 C10 1.500 . S
C12 C13 1.371 . S
C12 C14 1.365 . S
C13 C12 1.371 . S
C13 C23 1.386 . S
C13 H31 0.931 . S
C14 C12 1.365 . S
C14 C15 1.409 . S
C14 H32 0.929 . S
C15 C14 1.409 . S
C15 C16 1.380 . S
C15 H33 0.930 . S
C16 C15 1.380 . S
C16 C23 1.357 . S
C17 C8 1.511 . S
C17 C18 1.341 . S
C17 C19 1.371 . S
C18 C17 1.341 . S
C18 C22 1.394 . S
C18 H34 0.930 . S
C19 C17 1.371 . S
C19 C20 1.392 . S
C19 H35 0.931 . S
C20 C19 1.392 . S
C20 C21 1.331 . S
C20 H38 0.932 . S
C21 C20 1.331 . S
C21 C22 1.336 . S
C22 C18 1.394 . S
C22 C21 1.336 . S
C22 H37 0.929 . S
C23 C13 1.386 . S
C23 C16 1.357 . S
C23 H36 0.928 . S
H24 C0 0.931 . S
H25 C2 0.930 . S
H26 C4 0.929 . S
H27 C5 0.931 . S
H28 C7 0.930 . S
H29 C11 0.931 . S
H30 C9 0.931 . S
H31 C13 0.931 . S
H32 C14 0.929 . S
H33 C15 0.930 . S
H34 C18 0.930 . S
H35 C19 0.931 . S
H36 C23 0.928 . S
H37 C22 0.929 . S
H38 C20 0.932 . S
C39 C40 1.386 . S
C39 C41 1.397 . S
C39 H63 0.931 . S
C40 C39 1.386 . S
C40 C44 1.397 . S
C41 C39 1.397 . S
C41 C42 1.384 . S
C41 H64 0.930 . S
C42 C41 1.384 . S
C42 C43 1.377 . S
C42 C45 1.481 . S
C43 C42 1.377 . S
C43 C44 1.389 . S
C43 H65 0.929 . S
C44 C40 1.397 . S
C44 C43 1.389 . S
C44 H66 0.931 . S
C45 C42 1.481 . S
C45 C46 1.387 . S
C45 C50 1.390 . S
C46 C45 1.387 . S
C46 C47 1.401 . S
C46 H67 0.930 . S
C47 C46 1.401 . S
C47 C48 1.376 . S
C47 C56 1.511 . S
C48 C47 1.376 . S
C48 C49 1.392 . S
C48 H69 0.931 . S
C49 C48 1.392 . S
C49 C50 1.361 . S
C49 C51 1.500 . S
C50 C45 1.390 . S
C50 C49 1.361 . S
C50 H68 0.931 . S
C51 C49 1.500 . S
C51 C52 1.371 . S
C51 C53 1.365 . S
C52 C51 1.371 . S
C52 C62 1.386 . S
C52 H70 0.931 . S
C53 C51 1.365 . S
C53 C54 1.409 . S
C53 H71 0.929 . S
C54 C53 1.409 . S
C54 C55 1.380 . S
C54 H72 0.930 . S
C55 C54 1.380 . S
C55 C62 1.357 . S
C56 C47 1.511 . S
C56 C57 1.341 . S
C56 C58 1.371 . S
C57 C56 1.341 . S
C57 C61 1.394 . S
C57 H73 0.930 . S
C58 C56 1.371 . S
C58 C59 1.392 . S
C58 H74 0.931 . S
C59 C58 1.392 . S
C59 C60 1.331 . S
C59 H77 0.932 . S
C60 C59 1.331 . S
C60 C61 1.336 . S
C61 C57 1.394 . S
C61 C60 1.336 . S
C61 H76 0.929 . S
C62 C52 1.386 . S
C62 C55 1.357 . S
C62 H75 0.928 . S
H63 C39 0.931 . S
H64 C41 0.930 . S
H65 C43 0.929 . S
H66 C44 0.931 . S
H67 C46 0.930 . S
H68 C50 0.931 . S
H69 C48 0.931 . S
H70 C52 0.931 . S
H71 C53 0.929 . S
H72 C54 0.930 . S
H73 C57 0.930 . S
H74 C58 0.931 . S
H75 C62 0.928 . S
H76 C61 0.929 . S
H77 C59 0.932 . S
C78 C79 1.386 . S
C78 C80 1.397 . S
C78 H102 0.931 . S
C79 C78 1.386 . S
C79 C83 1.397 . S
C80 C78 1.397 . S
C80 C81 1.384 . S
C80 H103 0.930 . S
C81 C80 1.384 . S
C81 C82 1.377 . S
C81 C84 1.481 . S
C82 C81 1.377 . S
C82 C83 1.389 . S
C82 H104 0.929 . S
C83 C79 1.397 . S
C83 C82 1.389 . S
C83 H105 0.931 . S
C84 C81 1.481 . S
C84 C85 1.387 . S
C84 C89 1.390 . S
C85 C84 1.387 . S
C85 C86 1.401 . S
C85 H106 0.930 . S
C86 C85 1.401 . S
C86 C87 1.376 . S
C86 C95 1.511 . S
C87 C86 1.376 . S
C87 C88 1.392 . S
C87 H108 0.931 . S
C88 C87 1.392 . S
C88 C89 1.361 . S
C88 C90 1.500 . S
C89 C84 1.390 . S
C89 C88 1.361 . S
C89 H107 0.931 . S
C90 C88 1.500 . S
C90 C91 1.371 . S
C90 C92 1.365 . S
C91 C90 1.371 . S
C91 C101 1.386 . S
C91 H109 0.931 . S
C92 C90 1.365 . S
C92 C93 1.409 . S
C92 H110 0.929 . S
C93 C92 1.409 . S
C93 C94 1.380 . S
C93 H111 0.930 . S
C94 C93 1.380 . S
C94 C101 1.357 . S
C95 C86 1.511 . S
C95 C96 1.341 . S
C95 C97 1.371 . S
C96 C95 1.341 . S
C96 C100 1.394 . S
C96 H112 0.930 . S
C97 C95 1.371 . S
C97 C98 1.392 . S
C97 H113 0.931 . S
C98 C97 1.392 . S
C98 C99 1.331 . S
C98 H116 0.932 . S
C99 C98 1.331 . S
C99 C100 1.336 . S
C100 C96 1.394 . S
C100 C99 1.336 . S
C100 H115 0.929 1_655 S
C101 C91 1.386 . S
C101 C94 1.357 . S
C101 H114 0.928 . S
H102 C78 0.931 . S
H103 C80 0.930 . S
H104 C82 0.929 . S
H105 C83 0.931 . S
H106 C85 0.930 . S
H107 C89 0.931 . S
H108 C87 0.931 . S
H109 C91 0.931 . S
H110 C92 0.929 . S
H111 C93 0.930 . S
H112 C96 0.930 . S
H113 C97 0.931 . S
H114 C101 0.928 . S
H115 C100 0.929 1_455 S
H116 C98 0.932 . S
C117 C118 1.386 . S
C117 C119 1.397 . S
C117 H141 0.931 . S
C118 C117 1.386 . S
C118 C122 1.397 . S
C119 C117 1.397 . S
C119 C120 1.384 . S
C119 H142 0.930 . S
C120 C119 1.384 . S
C120 C121 1.377 . S
C120 C123 1.481 . S
C121 C120 1.377 . S
C121 C122 1.389 . S
C121 H143 0.929 . S
C122 C118 1.397 . S
C122 C121 1.389 . S
C122 H144 0.931 . S
C123 C120 1.481 . S
C123 C124 1.387 . S
C123 C128 1.390 . S
C124 C123 1.387 . S
C124 C125 1.401 . S
C124 H145 0.930 . S
C125 C124 1.401 . S
C125 C126 1.376 . S
C125 C134 1.511 . S
C126 C125 1.376 . S
C126 C127 1.392 . S
C126 H147 0.931 . S
C127 C126 1.392 . S
C127 C128 1.361 . S
C127 C129 1.500 . S
C128 C123 1.390 . S
C128 C127 1.361 . S
C128 H146 0.931 . S
C129 C127 1.500 . S
C129 C130 1.371 . S
C129 C131 1.365 . S
C130 C129 1.371 . S
C130 C140 1.386 . S
C130 H148 0.931 . S
C131 C129 1.365 . S
C131 C132 1.409 . S
C131 H149 0.929 . S
C132 C131 1.409 . S
C132 C133 1.380 . S
C132 H150 0.930 . S
C133 C132 1.380 . S
C133 C140 1.357 . S
C134 C125 1.511 . S
C134 C135 1.341 . S
C134 C136 1.371 . S
C135 C134 1.341 . S
C135 C139 1.394 . S
C135 H151 0.930 . S
C136 C134 1.371 . S
C136 C137 1.392 . S
C136 H152 0.931 . S
C137 C136 1.392 . S
C137 C138 1.331 . S
C137 H155 0.932 . S
C138 C137 1.331 . S
C138 C139 1.336 . S
C139 C135 1.394 . S
C139 C138 1.336 . S
C139 H154 0.929 . S
C140 C130 1.386 . S
C140 C133 1.357 . S
C140 H153 0.928 . S
H141 C117 0.931 . S
H142 C119 0.930 . S
H143 C121 0.929 . S
H144 C122 0.931 . S
H145 C124 0.930 . S
H146 C128 0.931 . S
H147 C126 0.931 . S
H148 C130 0.931 . S
H149 C131 0.929 . S
H150 C132 0.930 . S
H151 C135 0.930 . S
H152 C136 0.931 . S
H153 C140 0.928 . S
H154 C139 0.929 . S
H155 C137 0.932 . S
C156 C157 1.386 . S
C156 C158 1.397 . S
C156 H180 0.931 . S
C157 C156 1.386 . S
C157 C161 1.397 . S
C158 C156 1.397 . S
C158 C159 1.384 . S
C158 H181 0.930 . S
C159 C158 1.384 . S
C159 C160 1.377 . S
C159 C162 1.481 . S
C160 C159 1.377 . S
C160 C161 1.389 . S
C160 H182 0.929 . S
C161 C157 1.397 . S
C161 C160 1.389 . S
C161 H183 0.931 . S
C162 C159 1.481 . S
C162 C163 1.387 . S
C162 C167 1.390 . S
C163 C162 1.387 . S
C163 C164 1.401 . S
C163 H184 0.930 . S
C164 C163 1.401 . S
C164 C165 1.376 . S
C164 C173 1.511 . S
C165 C164 1.376 . S
C165 C166 1.392 . S
C165 H186 0.931 . S
C166 C165 1.392 . S
C166 C167 1.361 . S
C166 C168 1.500 . S
C167 C162 1.390 . S
C167 C166 1.361 . S
C167 H185 0.931 . S
C168 C166 1.500 . S
C168 C169 1.371 . S
C168 C170 1.365 . S
C169 C168 1.371 . S
C169 C179 1.386 . S
C169 H187 0.931 . S
C170 C168 1.365 . S
C170 C171 1.409 . S
C170 H188 0.929 . S
C171 C170 1.409 . S
C171 C172 1.380 . S
C171 H189 0.930 . S
C172 C171 1.380 . S
C172 C179 1.357 . S
C173 C164 1.511 . S
C173 C174 1.341 . S
C173 C175 1.371 . S
C174 C173 1.341 . S
C174 C178 1.394 . S
C174 H190 0.930 . S
C175 C173 1.371 . S
C175 C176 1.392 . S
C175 H191 0.931 . S
C176 C175 1.392 . S
C176 C177 1.331 . S
C176 H194 0.932 . S
C177 C176 1.331 . S
C177 C178 1.336 . S
C178 C174 1.394 . S
C178 C177 1.336 . S
C178 H193 0.929 . S
C179 C169 1.386 . S
C179 C172 1.357 . S
C179 H192 0.928 . S
H180 C156 0.931 . S
H181 C158 0.930 . S
H182 C160 0.929 . S
H183 C161 0.931 . S
H184 C163 0.930 . S
H185 C167 0.931 . S
H186 C165 0.931 . S
H187 C169 0.931 . S
H188 C170 0.929 . S
H189 C171 0.930 . S
H190 C174 0.930 . S
H191 C175 0.931 . S
H192 C179 0.928 . S
H193 C178 0.929 . S
H194 C176 0.932 . S
C195 C196 1.386 . S
C195 C197 1.397 . S
C195 H219 0.931 . S
C196 C195 1.386 . S
C196 C200 1.397 . S
C197 C195 1.397 . S
C197 C198 1.384 . S
C197 H220 0.930 . S
C198 C197 1.384 . S
C198 C199 1.377 . S
C198 C201 1.481 . S
C199 C198 1.377 . S
C199 C200 1.389 . S
C199 H221 0.929 . S
C200 C196 1.397 . S
C200 C199 1.389 . S
C200 H222 0.931 . S
C201 C198 1.481 . S
C201 C202 1.387 . S
C201 C206 1.390 . S
C202 C201 1.387 . S
C202 C203 1.401 . S
C202 H223 0.930 . S
C203 C202 1.401 . S
C203 C204 1.376 . S
C203 C212 1.511 . S
C204 C203 1.376 . S
C204 C205 1.392 . S
C204 H225 0.931 . S
C205 C204 1.392 . S
C205 C206 1.361 . S
C205 C207 1.500 . S
C206 C201 1.390 . S
C206 C205 1.361 . S
C206 H224 0.931 . S
C207 C205 1.500 . S
C207 C208 1.371 . S
C207 C209 1.365 . S
C208 C207 1.371 . S
C208 C218 1.386 . S
C208 H226 0.931 . S
C209 C207 1.365 . S
C209 C210 1.409 . S
C209 H227 0.929 . S
C210 C209 1.409 . S
C210 C211 1.380 . S
C210 H228 0.930 . S
C211 C210 1.380 . S
C211 C218 1.357 . S
C212 C203 1.511 . S
C212 C213 1.341 . S
C212 C214 1.371 . S
C213 C212 1.341 . S
C213 C217 1.394 . S
C213 H229 0.930 . S
C214 C212 1.371 . S
C214 C215 1.392 . S
C214 H230 0.931 . S
C215 C214 1.392 . S
C215 C216 1.331 . S
C215 H233 0.932 . S
C216 C215 1.331 . S
C216 C217 1.336 . S
C217 C213 1.394 . S
C217 C216 1.336 . S
C217 H232 0.929 . S
C218 C208 1.386 . S
C218 C211 1.357 . S
C218 H231 0.928 . S
H219 C195 0.931 . S
H220 C197 0.930 . S
H221 C199 0.929 . S
H222 C200 0.931 . S
H223 C202 0.930 . S
H224 C206 0.931 . S
H225 C204 0.931 . S
H226 C208 0.931 . S
H227 C209 0.929 . S
H228 C210 0.930 . S
H229 C213 0.930 . S
H230 C214 0.931 . S
H231 C218 0.928 . S
H232 C217 0.929 . S
H233 C215 0.932 . S
C234 C235 1.386 . S
C234 C236 1.397 . S
C234 H258 0.931 . S
C235 C234 1.386 . S
C235 C239 1.397 1_655 S
C236 C234 1.397 . S
C236 C237 1.384 . S
C236 H259 0.930 . S
C237 C236 1.384 . S
C237 C238 1.377 1_655 S
C237 C240 1.481 . S
C238 C237 1.377 1_455 S
C238 C239 1.389 . S
C238 H260 0.929 . S
C239 C235 1.397 1_455 S
C239 C238 1.389 . S
C239 H261 0.931 . S
C240 C237 1.481 . S
C240 C241 1.387 . S
C240 C245 1.390 . S
C241 C240 1.387 . S
C241 C242 1.401 . S
C241 H262 0.930 . S
C242 C241 1.401 . S
C242 C243 1.376 . S
C242 C251 1.511 . S
C243 C242 1.376 . S
C243 C244 1.392 . S
C243 H264 0.931 . S
C244 C243 1.392 . S
C244 C245 1.361 . S
C244 C246 1.500 . S
C245 C240 1.390 . S
C245 C244 1.361 . S
C245 H263 0.931 . S
C246 C244 1.500 . S
C246 C247 1.371 . S
C246 C248 1.365 . S
C247 C246 1.371 . S
C247 C257 1.386 . S
C247 H265 0.931 . S
C248 C246 1.365 . S
C248 C249 1.409 . S
C248 H266 0.929 . S
C249 C248 1.409 . S
C249 C250 1.380 . S
C249 H267 0.930 . S
C250 C249 1.380 . S
C250 C257 1.357 . S
C251 C242 1.511 . S
C251 C252 1.341 . S
C251 C253 1.371 . S
C252 C251 1.341 . S
C252 C256 1.394 . S
C252 H268 0.930 . S
C253 C251 1.371 . S
C253 C254 1.392 . S
C253 H269 0.931 . S
C254 C253 1.392 . S
C254 C255 1.331 . S
C254 H272 0.932 . S
C255 C254 1.331 . S
C255 C256 1.336 . S
C256 C252 1.394 . S
C256 C255 1.336 . S
C256 H271 0.929 . S
C257 C247 1.386 . S
C257 C250 1.357 . S
C257 H270 0.928 . S
H258 C234 0.931 . S
H259 C236 0.930 . S
H260 C238 0.929 . S
H261 C239 0.931 . S
H262 C241 0.930 . S
H263 C245 0.931 . S
H264 C243 0.931 . S
H265 C247 0.931 . S
H266 C248 0.929 . S
H267 C249 0.930 . S
H268 C252 0.930 . S
H269 C253 0.931 . S
H270 C257 0.928 . S
H271 C256 0.929 . S
H272 C254 0.932 . S
C273 C274 1.386 . S
C273 C275 1.397 . S
C273 H297 0.931 . S
C274 C273 1.386 . S
C274 C278 1.397 . S
C275 C273 1.397 . S
C275 C276 1.384 . S
C275 H298 0.930 . S
C276 C275 1.384 . S
C276 C277 1.377 . S
C276 C279 1.481 . S
C277 C276 1.377 . S
C277 C278 1.389 . S
C277 H299 0.929 . S
C278 C274 1.397 . S
C278 C277 1.389 . S
C278 H300 0.931 . S
C279 C276 1.481 . S
C279 C280 1.387 . S
C279 C284 1.390 . S
C280 C279 1.387 . S
C280 C281 1.401 . S
C280 H301 0.930 . S
C281 C280 1.401 . S
C281 C282 1.376 . S
C281 C290 1.511 . S
C282 C281 1.376 . S
C282 C283 1.392 . S
C282 H303 0.931 . S
C283 C282 1.392 . S
C283 C284 1.361 . S
C283 C285 1.500 . S
C284 C279 1.390 . S
C284 C283 1.361 . S
C284 H302 0.931 . S
C285 C283 1.500 . S
C285 C286 1.371 . S
C285 C287 1.365 . S
C286 C285 1.371 . S
C286 C296 1.386 . S
C286 H304 0.931 . S
C287 C285 1.365 . S
C287 C288 1.409 . S
C287 H305 0.929 . S
C288 C287 1.409 . S
C288 C289 1.380 . S
C288 H306 0.930 . S
C289 C288 1.380 . S
C289 C296 1.357 . S
C290 C281 1.511 . S
C290 C291 1.341 . S
C290 C292 1.371 . S
C291 C290 1.341 . S
C291 C295 1.394 . S
C291 H307 0.930 . S
C292 C290 1.371 . S
C292 C293 1.392 . S
C292 H308 0.931 . S
C293 C292 1.392 . S
C293 C294 1.331 . S
C293 H311 0.932 . S
C294 C293 1.331 . S
C294 C295 1.336 . S
C295 C291 1.394 . S
C295 C294 1.336 . S
C295 H310 0.929 . S
C296 C286 1.386 . S
C296 C289 1.357 . S
C296 H309 0.928 . S
H297 C273 0.931 . S
H298 C275 0.930 . S
H299 C277 0.929 . S
H300 C278 0.931 . S
H301 C280 0.930 . S
H302 C284 0.931 . S
H303 C282 0.931 . S
H304 C286 0.931 . S
H305 C287 0.929 . S
H306 C288 0.930 . S
H307 C291 0.930 . S
H308 C292 0.931 . S
H309 C296 0.928 . S
H310 C295 0.929 . S
H311 C293 0.932 . S
C312 C313 1.386 . S
C312 C314 1.397 . S
C312 H336 0.931 . S
C313 C312 1.386 . S
C313 C317 1.397 . S
C314 C312 1.397 . S
C314 C315 1.384 . S
C314 H337 0.930 . S
C315 C314 1.384 . S
C315 C316 1.377 . S
C315 C318 1.481 . S
C316 C315 1.377 . S
C316 C317 1.389 . S
C316 H338 0.929 . S
C317 C313 1.397 . S
C317 C316 1.389 . S
C317 H339 0.931 . S
C318 C315 1.481 . S
C318 C319 1.387 . S
C318 C323 1.390 . S
C319 C318 1.387 . S
C319 C320 1.401 . S
C319 H340 0.930 . S
C320 C319 1.401 . S
C320 C321 1.376 . S
C320 C329 1.511 . S
C321 C320 1.376 . S
C321 C322 1.392 . S
C321 H342 0.931 . S
C322 C321 1.392 . S
C322 C323 1.361 . S
C322 C324 1.500 . S
C323 C318 1.390 . S
C323 C322 1.361 . S
C323 H341 0.931 . S
C324 C322 1.500 . S
C324 C325 1.371 . S
C324 C326 1.365 . S
C325 C324 1.371 . S
C325 C335 1.386 . S
C325 H343 0.931 . S
C326 C324 1.365 . S
C326 C327 1.409 . S
C326 H344 0.929 . S
C327 C326 1.409 . S
C327 C328 1.380 . S
C327 H345 0.930 . S
C328 C327 1.380 . S
C328 C335 1.357 . S
C329 C320 1.511 . S
C329 C330 1.341 . S
C329 C331 1.371 . S
C330 C329 1.341 . S
C330 C334 1.394 . S
C330 H346 0.930 . S
C331 C329 1.371 . S
C331 C332 1.392 . S
C331 H347 0.931 . S
C332 C331 1.392 . S
C332 C333 1.331 . S
C332 H350 0.932 . S
C333 C332 1.331 . S
C333 C334 1.336 . S
C334 C330 1.394 . S
C334 C333 1.336 . S
C334 H349 0.929 . S
C335 C325 1.386 . S
C335 C328 1.357 . S
C335 H348 0.928 . S
H336 C312 0.931 . S
H337 C314 0.930 . S
H338 C316 0.929 . S
H339 C317 0.931 . S
H340 C319 0.930 . S
H341 C323 0.931 . S
H342 C321 0.931 . S
H343 C325 0.931 . S
H344 C326 0.929 . S
H345 C327 0.930 . S
H346 C330 0.930 . S
H347 C331 0.931 . S
H348 C335 0.928 . S
H349 C334 0.929 . S
H350 C332 0.932 . S
C351 C352 1.386 . S
C351 C353 1.397 . S
C351 H375 0.931 . S
C352 C351 1.386 . S
C352 C356 1.397 . S
C353 C351 1.397 . S
C353 C354 1.384 . S
C353 H376 0.930 . S
C354 C353 1.384 . S
C354 C355 1.377 . S
C354 C357 1.481 . S
C355 C354 1.377 . S
C355 C356 1.389 . S
C355 H377 0.929 . S
C356 C352 1.397 . S
C356 C355 1.389 . S
C356 H378 0.931 . S
C357 C354 1.481 . S
C357 C358 1.387 . S
C357 C362 1.390 . S
C358 C357 1.387 . S
C358 C359 1.401 . S
C358 H379 0.930 . S
C359 C358 1.401 . S
C359 C360 1.376 . S
C359 C368 1.511 . S
C360 C359 1.376 . S
C360 C361 1.392 . S
C360 H381 0.931 . S
C361 C360 1.392 . S
C361 C362 1.361 . S
C361 C363 1.500 . S
C362 C357 1.390 . S
C362 C361 1.361 . S
C362 H380 0.931 . S
C363 C361 1.500 . S
C363 C364 1.371 . S
C363 C365 1.365 . S
C364 C363 1.371 . S
C364 C374 1.386 . S
C364 H382 0.931 . S
C365 C363 1.365 . S
C365 C366 1.409 . S
C365 H383 0.929 . S
C366 C365 1.409 . S
C366 C367 1.380 . S
C366 H384 0.930 . S
C367 C366 1.380 . S
C367 C374 1.357 . S
C368 C359 1.511 . S
C368 C369 1.341 . S
C368 C370 1.371 . S
C369 C368 1.341 . S
C369 C373 1.394 . S
C369 H385 0.930 . S
C370 C368 1.371 . S
C370 C371 1.392 . S
C370 H386 0.931 . S
C371 C370 1.392 . S
C371 C372 1.331 . S
C371 H389 0.932 . S
C372 C371 1.331 . S
C372 C373 1.336 . S
C373 C369 1.394 . S
C373 C372 1.336 . S
C373 H388 0.929 . S
C374 C364 1.386 . S
C374 C367 1.357 . S
C374 H387 0.928 . S
H375 C351 0.931 . S
H376 C353 0.930 . S
H377 C355 0.929 . S
H378 C356 0.931 . S
H379 C358 0.930 . S
H380 C362 0.931 . S
H381 C360 0.931 . S
H382 C364 0.931 . S
H383 C365 0.929 . S
H384 C366 0.930 . S
H385 C369 0.930 . S
H386 C370 0.931 . S
H387 C374 0.928 . S
H388 C373 0.929 . S
H389 C371 0.932 . S
C390 C391 1.386 . S
C390 C392 1.397 . S
C390 H414 0.931 . S
C391 C390 1.386 . S
C391 C395 1.397 . S
C392 C390 1.397 . S
C392 C393 1.384 . S
C392 H415 0.930 . S
C393 C392 1.384 . S
C393 C394 1.377 . S
C393 C396 1.481 . S
C394 C393 1.377 . S
C394 C395 1.389 . S
C394 H416 0.929 . S
C395 C391 1.397 . S
C395 C394 1.389 . S
C395 H417 0.931 . S
C396 C393 1.481 . S
C396 C397 1.387 . S
C396 C401 1.390 . S
C397 C396 1.387 . S
C397 C398 1.401 . S
C397 H418 0.930 . S
C398 C397 1.401 . S
C398 C399 1.376 . S
C398 C407 1.511 . S
C399 C398 1.376 . S
C399 C400 1.392 . S
C399 H420 0.931 . S
C400 C399 1.392 . S
C400 C401 1.361 . S
C400 C402 1.500 . S
C401 C396 1.390 . S
C401 C400 1.361 . S
C401 H419 0.931 . S
C402 C400 1.500 . S
C402 C403 1.371 . S
C402 C404 1.365 . S
C403 C402 1.371 . S
C403 C413 1.386 . S
C403 H421 0.931 . S
C404 C402 1.365 . S
C404 C405 1.409 . S
C404 H422 0.929 . S
C405 C404 1.409 . S
C405 C406 1.380 . S
C405 H423 0.930 . S
C406 C405 1.380 . S
C406 C413 1.357 . S
C407 C398 1.511 . S
C407 C408 1.341 . S
C407 C409 1.371 . S
C408 C407 1.341 . S
C408 C412 1.394 . S
C408 H424 0.930 . S
C409 C407 1.371 . S
C409 C410 1.392 . S
C409 H425 0.931 . S
C410 C409 1.392 . S
C410 C411 1.331 . S
C410 H428 0.932 . S
C411 C410 1.331 . S
C411 C412 1.336 . S
C412 C408 1.394 . S
C412 C411 1.336 . S
C412 H427 0.929 . S
C413 C403 1.386 . S
C413 C406 1.357 . S
C413 H426 0.928 1_556 S
H414 C390 0.931 . S
H415 C392 0.930 . S
H416 C394 0.929 . S
H417 C395 0.931 . S
H418 C397 0.930 . S
H419 C401 0.931 . S
H420 C399 0.931 . S
H421 C403 0.931 . S
H422 C404 0.929 . S
H423 C405 0.930 . S
H424 C408 0.930 . S
H425 C409 0.931 . S
H426 C413 0.928 1_554 S
H427 C412 0.929 . S
H428 C410 0.932 . S
C429 C430 1.386 . S
C429 C431 1.397 . S
C429 H453 0.931 . S
C430 C429 1.386 . S
C430 C434 1.397 . S
C431 C429 1.397 . S
C431 C432 1.384 . S
C431 H454 0.930 . S
C432 C431 1.384 . S
C432 C433 1.377 . S
C432 C435 1.481 . S
C433 C432 1.377 . S
C433 C434 1.389 . S
C433 H455 0.929 . S
C434 C430 1.397 . S
C434 C433 1.389 . S
C434 H456 0.931 . S
C435 C432 1.481 . S
C435 C436 1.387 . S
C435 C440 1.390 . S
C436 C435 1.387 . S
C436 C437 1.401 . S
C436 H457 0.930 . S
C437 C436 1.401 . S
C437 C438 1.376 . S
C437 C446 1.511 . S
C438 C437 1.376 . S
C438 C439 1.392 . S
C438 H459 0.931 . S
C439 C438 1.392 . S
C439 C440 1.361 . S
C439 C441 1.500 . S
C440 C435 1.390 . S
C440 C439 1.361 . S
C440 H458 0.931 . S
C441 C439 1.500 . S
C441 C442 1.371 . S
C441 C443 1.365 . S
C442 C441 1.371 . S
C442 C452 1.386 . S
C442 H460 0.931 . S
C443 C441 1.365 . S
C443 C444 1.409 . S
C443 H461 0.929 . S
C444 C443 1.409 . S
C444 C445 1.380 . S
C444 H462 0.930 . S
C445 C444 1.380 . S
C445 C452 1.357 . S
C446 C437 1.511 . S
C446 C447 1.341 . S
C446 C448 1.371 . S
C447 C446 1.341 . S
C447 C451 1.394 . S
C447 H463 0.930 . S
C448 C446 1.371 . S
C448 C449 1.392 . S
C448 H464 0.931 . S
C449 C448 1.392 . S
C449 C450 1.331 . S
C449 H467 0.932 . S
C450 C449 1.331 . S
C450 C451 1.336 . S
C451 C447 1.394 . S
C451 C450 1.336 . S
C451 H466 0.929 . S
C452 C442 1.386 . S
C452 C445 1.357 . S
C452 H465 0.928 . S
H453 C429 0.931 . S
H454 C431 0.930 . S
H455 C433 0.929 . S
H456 C434 0.931 . S
H457 C436 0.930 . S
H458 C440 0.931 . S
H459 C438 0.931 . S
H460 C442 0.931 . S
H461 C443 0.929 . S
H462 C444 0.930 . S
H463 C447 0.930 . S
H464 C448 0.931 . S
H465 C452 0.928 . S
H466 C451 0.929 . S
H467 C449 0.932 . S
C468 C469 1.386 . S
C468 C470 1.397 . S
C468 H492 0.931 . S
C469 C468 1.386 . S
C469 C473 1.397 . S
C470 C468 1.397 . S
C470 C471 1.384 . S
C470 H493 0.930 . S
C471 C470 1.384 . S
C471 C472 1.377 . S
C471 C474 1.481 . S
C472 C471 1.377 . S
C472 C473 1.389 . S
C472 H494 0.929 . S
C473 C469 1.397 . S
C473 C472 1.389 . S
C473 H495 0.931 . S
C474 C471 1.481 . S
C474 C475 1.387 . S
C474 C479 1.390 . S
C475 C474 1.387 . S
C475 C476 1.401 . S
C475 H496 0.930 . S
C476 C475 1.401 . S
C476 C477 1.376 . S
C476 C485 1.511 . S
C477 C476 1.376 . S
C477 C478 1.392 . S
C477 H498 0.931 . S
C478 C477 1.392 . S
C478 C479 1.361 . S
C478 C480 1.500 . S
C479 C474 1.390 . S
C479 C478 1.361 . S
C479 H497 0.931 . S
C480 C478 1.500 . S
C480 C481 1.371 . S
C480 C482 1.365 . S
C481 C480 1.371 . S
C481 C491 1.386 . S
C481 H499 0.931 . S
C482 C480 1.365 . S
C482 C483 1.409 . S
C482 H500 0.929 . S
C483 C482 1.409 . S
C483 C484 1.380 . S
C483 H501 0.930 . S
C484 C483 1.380 . S
C484 C491 1.357 . S
C485 C476 1.511 . S
C485 C486 1.341 . S
C485 C487 1.371 . S
C486 C485 1.341 . S
C486 C490 1.394 . S
C486 H502 0.930 . S
C487 C485 1.371 . S
C487 C488 1.392 . S
C487 H503 0.931 . S
C488 C487 1.392 . S
C488 C489 1.331 . S
C488 H506 0.932 . S
C489 C488 1.331 . S
C489 C490 1.336 . S
C490 C486 1.394 . S
C490 C489 1.336 . S
C490 H505 0.929 . S
C491 C481 1.386 . S
C491 C484 1.357 . S
C491 H504 0.928 . S
H492 C468 0.931 . S
H493 C470 0.930 . S
H494 C472 0.929 . S
H495 C473 0.931 . S
H496 C475 0.930 . S
H497 C479 0.931 . S
H498 C477 0.931 . S
H499 C481 0.931 . S
H500 C482 0.929 . S
H501 C483 0.930 . S
H502 C486 0.930 . S
H503 C487 0.931 . S
H504 C491 0.928 . S
H505 C490 0.929 . S
H506 C488 0.932 . S
C507 C508 1.386 . S
C507 C509 1.397 . S
C507 H531 0.931 . S
C508 C507 1.386 . S
C508 C512 1.397 . S
C509 C507 1.397 . S
C509 C510 1.384 . S
C509 H532 0.930 . S
C510 C509 1.384 . S
C510 C511 1.377 . S
C510 C513 1.481 . S
C511 C510 1.377 . S
C511 C512 1.389 . S
C511 H533 0.929 . S
C512 C508 1.397 . S
C512 C511 1.389 . S
C512 H534 0.931 . S
C513 C510 1.481 . S
C513 C514 1.387 . S
C513 C518 1.390 . S
C514 C513 1.387 . S
C514 C515 1.401 . S
C514 H535 0.930 . S
C515 C514 1.401 . S
C515 C516 1.376 . S
C515 C524 1.511 . S
C516 C515 1.376 . S
C516 C517 1.392 . S
C516 H537 0.931 . S
C517 C516 1.392 . S
C517 C518 1.361 . S
C517 C519 1.500 . S
C518 C513 1.390 . S
C518 C517 1.361 . S
C518 H536 0.931 . S
C519 C517 1.500 . S
C519 C520 1.371 . S
C519 C521 1.365 . S
C520 C519 1.371 . S
C520 C530 1.386 . S
C520 H538 0.931 . S
C521 C519 1.365 . S
C521 C522 1.409 . S
C521 H539 0.929 . S
C522 C521 1.409 . S
C522 C523 1.380 . S
C522 H540 0.930 . S
C523 C522 1.380 . S
C523 C530 1.357 . S
C524 C515 1.511 . S
C524 C525 1.341 . S
C524 C526 1.371 . S
C525 C524 1.341 . S
C525 C529 1.394 . S
C525 H541 0.930 . S
C526 C524 1.371 . S
C526 C527 1.392 . S
C526 H542 0.931 . S
C527 C526 1.392 . S
C527 C528 1.331 . S
C527 H545 0.932 . S
C528 C527 1.331 . S
C528 C529 1.336 . S
C529 C525 1.394 . S
C529 C528 1.336 . S
C529 H544 0.929 . S
C530 C520 1.386 . S
C530 C523 1.357 . S
C530 H543 0.928 . S
H531 C507 0.931 . S
H532 C509 0.930 . S
H533 C511 0.929 . S
H534 C512 0.931 . S
H535 C514 0.930 . S
H536 C518 0.931 . S
H537 C516 0.931 . S
H538 C520 0.931 . S
H539 C521 0.929 . S
H540 C522 0.930 . S
H541 C525 0.930 . S
H542 C526 0.931 . S
H543 C530 0.928 . S
H544 C529 0.929 . S
H545 C527 0.932 . S
C546 C547 1.386 . S
C546 C548 1.397 . S
C546 H570 0.931 . S
C547 C546 1.386 . S
C547 C551 1.397 . S
C548 C546 1.397 . S
C548 C549 1.384 . S
C548 H571 0.930 . S
C549 C548 1.384 . S
C549 C550 1.377 . S
C549 C552 1.481 . S
C550 C549 1.377 . S
C550 C551 1.389 . S
C550 H572 0.929 . S
C551 C547 1.397 . S
C551 C550 1.389 . S
C551 H573 0.931 . S
C552 C549 1.481 . S
C552 C553 1.387 . S
C552 C557 1.390 . S
C553 C552 1.387 . S
C553 C554 1.401 . S
C553 H574 0.930 . S
C554 C553 1.401 . S
C554 C555 1.376 . S
C554 C563 1.511 . S
C555 C554 1.376 . S
C555 C556 1.392 . S
C555 H576 0.931 . S
C556 C555 1.392 . S
C556 C557 1.361 . S
C556 C558 1.500 . S
C557 C552 1.390 . S
C557 C556 1.361 . S
C557 H575 0.931 . S
C558 C556 1.500 . S
C558 C559 1.371 . S
C558 C560 1.365 . S
C559 C558 1.371 . S
C559 C569 1.386 . S
C559 H577 0.931 . S
C560 C558 1.365 . S
C560 C561 1.409 . S
C560 H578 0.929 . S
C561 C560 1.409 . S
C561 C562 1.380 . S
C561 H579 0.930 . S
C562 C561 1.380 . S
C562 C569 1.357 . S
C563 C554 1.511 . S
C563 C564 1.341 . S
C563 C565 1.371 . S
C564 C563 1.341 . S
C564 C568 1.394 . S
C564 H580 0.930 . S
C565 C563 1.371 . S
C565 C566 1.392 . S
C565 H581 0.931 . S
C566 C565 1.392 . S
C566 C567 1.331 . S
C566 H584 0.932 . S
C567 C566 1.331 . S
C567 C568 1.336 . S
C568 C564 1.394 . S
C568 C567 1.336 . S
C568 H583 0.929 . S
C569 C559 1.386 . S
C569 C562 1.357 . S
C569 H582 0.928 . S
H570 C546 0.931 . S
H571 C548 0.930 . S
H572 C550 0.929 . S
H573 C551 0.931 . S
H574 C553 0.930 . S
H575 C557 0.931 . S
H576 C555 0.931 . S
H577 C559 0.931 . S
H578 C560 0.929 . S
H579 C561 0.930 . S
H580 C564 0.930 . S
H581 C565 0.931 . S
H582 C569 0.928 . S
H583 C568 0.929 . S
H584 C566 0.932 . S
C585 C586 1.386 . S
C585 C587 1.397 . S
C585 H609 0.931 . S
C586 C585 1.386 . S
C586 C590 1.397 . S
C587 C585 1.397 . S
C587 C588 1.384 . S
C587 H610 0.930 . S
C588 C587 1.384 . S
C588 C589 1.377 . S
C588 C591 1.481 . S
C589 C588 1.377 . S
C589 C590 1.389 . S
C589 H611 0.929 . S
C590 C586 1.397 . S
C590 C589 1.389 . S
C590 H612 0.931 . S
C591 C588 1.481 . S
C591 C592 1.387 . S
C591 C596 1.390 . S
C592 C591 1.387 . S
C592 C593 1.401 . S
C592 H613 0.930 . S
C593 C592 1.401 . S
C593 C594 1.376 . S
C593 C602 1.511 . S
C594 C593 1.376 . S
C594 C595 1.392 . S
C594 H615 0.931 . S
C595 C594 1.392 . S
C595 C596 1.361 . S
C595 C597 1.500 . S
C596 C591 1.390 . S
C596 C595 1.361 . S
C596 H614 0.931 . S
C597 C595 1.500 . S
C597 C598 1.371 . S
C597 C599 1.365 . S
C598 C597 1.371 . S
C598 C608 1.386 . S
C598 H616 0.931 . S
C599 C597 1.365 . S
C599 C600 1.409 . S
C599 H617 0.929 . S
C600 C599 1.409 . S
C600 C601 1.380 . S
C600 H618 0.930 . S
C601 C600 1.380 . S
C601 C608 1.357 . S
C602 C593 1.511 . S
C602 C603 1.341 . S
C602 C604 1.371 . S
C603 C602 1.341 . S
C603 C607 1.394 . S
C603 H619 0.930 . S
C604 C602 1.371 . S
C604 C605 1.392 . S
C604 H620 0.931 . S
C605 C604 1.392 . S
C605 C606 1.331 . S
C605 H623 0.932 . S
C606 C605 1.331 . S
C606 C607 1.336 . S
C607 C603 1.394 . S
C607 C606 1.336 . S
C607 H622 0.929 . S
C608 C598 1.386 . S
C608 C601 1.357 . S
C608 H621 0.928 . S
H609 C585 0.931 . S
H610 C587 0.930 . S
H611 C589 0.929 . S
H612 C590 0.931 . S
H613 C592 0.930 . S
H614 C596 0.931 . S
H615 C594 0.931 . S
H616 C598 0.931 . S
H617 C599 0.929 . S
H618 C600 0.930 . S
H619 C603 0.930 . S
H620 C604 0.931 . S
H621 C608 0.928 . S
H622 C607 0.929 . S
H623 C605 0.932 . S
C624 C625 1.386 1_655 S
C624 C626 1.397 . S
C624 H648 0.931 . S
C625 C624 1.386 1_455 S
C625 C629 1.397 . S
C626 C624 1.397 . S
C626 C627 1.384 1_655 S
C626 H649 0.930 . S
C627 C626 1.384 1_455 S
C627 C628 1.377 . S
C627 C630 1.481 . S
C628 C627 1.377 . S
C628 C629 1.389 . S
C628 H650 0.929 . S
C629 C625 1.397 . S
C629 C628 1.389 . S
C629 H651 0.931 . S
C630 C627 1.481 . S
C630 C631 1.387 . S
C630 C635 1.390 . S
C631 C630 1.387 . S
C631 C632 1.401 . S
C631 H652 0.930 . S
C632 C631 1.401 . S
C632 C633 1.376 . S
C632 C641 1.511 . S
C633 C632 1.376 . S
C633 C634 1.392 . S
C633 H654 0.931 . S
C634 C633 1.392 . S
C634 C635 1.361 . S
C634 C636 1.500 . S
C635 C630 1.390 . S
C635 C634 1.361 . S
C635 H653 0.931 . S
C636 C634 1.500 . S
C636 C637 1.371 . S
C636 C638 1.365 . S
C637 C636 1.371 . S
C637 C647 1.386 . S
C637 H655 0.931 . S
C638 C636 1.365 . S
C638 C639 1.409 . S
C638 H656 0.929 . S
C639 C638 1.409 . S
C639 C640 1.380 . S
C639 H657 0.930 . S
C640 C639 1.380 . S
C640 C647 1.357 . S
C641 C632 1.511 . S
C641 C642 1.341 . S
C641 C643 1.371 . S
C642 C641 1.341 . S
C642 C646 1.394 . S
C642 H658 0.930 . S
C643 C641 1.371 . S
C643 C644 1.392 . S
C643 H659 0.931 . S
C644 C643 1.392 . S
C644 C645 1.331 . S
C644 H662 0.932 . S
C645 C644 1.331 . S
C645 C646 1.336 . S
C646 C642 1.394 . S
C646 C645 1.336 . S
C646 H661 0.929 . S
C647 C637 1.386 . S
C647 C640 1.357 . S
C647 H660 0.928 . S
H648 C624 0.931 . S
H649 C626 0.930 . S
H650 C628 0.929 . S
H651 C629 0.931 . S
H652 C631 0.930 . S
H653 C635 0.931 . S
H654 C633 0.931 . S
H655 C637 0.931 . S
H656 C638 0.929 . S
H657 C639 0.930 . S
H658 C642 0.930 . S
H659 C643 0.931 . S
H660 C647 0.928 . S
H661 C646 0.929 . S
H662 C644 0.932 . S
C663 C664 1.386 . S
C663 C665 1.397 . S
C663 H687 0.931 . S
C664 C663 1.386 . S
C664 C668 1.397 . S
C665 C663 1.397 . S
C665 C666 1.384 . S
C665 H688 0.930 . S
C666 C665 1.384 . S
C666 C667 1.377 . S
C666 C669 1.481 . S
C667 C666 1.377 . S
C667 C668 1.389 . S
C667 H689 0.929 . S
C668 C664 1.397 . S
C668 C667 1.389 . S
C668 H690 0.931 . S
C669 C666 1.481 . S
C669 C670 1.387 . S
C669 C674 1.390 . S
C670 C669 1.387 . S
C670 C671 1.401 . S
C670 H691 0.930 . S
C671 C670 1.401 . S
C671 C672 1.376 . S
C671 C680 1.511 . S
C672 C671 1.376 . S
C672 C673 1.392 . S
C672 H693 0.931 . S
C673 C672 1.392 . S
C673 C674 1.361 . S
C673 C675 1.500 . S
C674 C669 1.390 . S
C674 C673 1.361 . S
C674 H692 0.931 . S
C675 C673 1.500 . S
C675 C676 1.371 . S
C675 C677 1.365 . S
C676 C675 1.371 . S
C676 C686 1.386 . S
C676 H694 0.931 . S
C677 C675 1.365 . S
C677 C678 1.409 . S
C677 H695 0.929 . S
C678 C677 1.409 . S
C678 C679 1.380 . S
C678 H696 0.930 . S
C679 C678 1.380 . S
C679 C686 1.357 . S
C680 C671 1.511 . S
C680 C681 1.341 . S
C680 C682 1.371 . S
C681 C680 1.341 . S
C681 C685 1.394 . S
C681 H697 0.930 . S
C682 C680 1.371 . S
C682 C683 1.392 . S
C682 H698 0.931 . S
C683 C682 1.392 . S
C683 C684 1.331 . S
C683 H701 0.932 . S
C684 C683 1.331 . S
C684 C685 1.336 . S
C685 C681 1.394 . S
C685 C684 1.336 . S
C685 H700 0.929 . S
C686 C676 1.386 . S
C686 C679 1.357 . S
C686 H699 0.928 . S
H687 C663 0.931 . S
H688 C665 0.930 . S
H689 C667 0.929 . S
H690 C668 0.931 . S
H691 C670 0.930 . S
H692 C674 0.931 . S
H693 C672 0.931 . S
H694 C676 0.931 . S
H695 C677 0.929 . S
H696 C678 0.930 . S
H697 C681 0.930 . S
H698 C682 0.931 . S
H699 C686 0.928 . S
H700 C685 0.929 . S
H701 C683 0.932 . S
C702 Eu703 2.835 . S
C702 C704 1.500 . S
C702 O722 1.257 1_545 S
C702 O723 1.260 . S
Eu703 C702 2.835 . S
Eu703 O722 2.473 1_545 S
Eu703 O723 2.480 . S
Eu703 O724 2.430 . S
Eu703 O725 2.670 1_554 S
Eu703 O726 2.394 1_545 S
Eu703 O731 2.355 1_545 S
Eu703 O733 2.374 . S
C704 C702 1.500 . S
C704 C705 1.377 . S
C704 C709 1.377 1_545 S
C705 C704 1.377 . S
C705 C706 1.395 . S
C705 H734 0.931 . S
C706 C705 1.395 . S
C706 C707 1.383 1_545 S
C706 H735 0.931 . S
C707 C706 1.383 1_565 S
C707 C708 1.394 . S
C708 C707 1.394 . S
C708 C709 1.378 . S
C708 H736 0.931 . S
C709 C704 1.377 1_565 S
C709 C708 1.378 . S
C709 H737 0.931 . S
C710 O724 1.200 1_556 S
C710 O725 1.292 . S
C711 O726 1.251 . S
C711 O727 1.251 1_554 S
C712 Eu713 2.835 . S
C712 C714 1.500 . S
C712 O728 1.257 1_565 S
C712 O729 1.260 . S
Eu713 C712 2.835 . S
Eu713 O725 2.355 1_565 S
Eu713 O727 2.374 . S
Eu713 O728 2.473 1_565 S
Eu713 O729 2.480 . S
Eu713 O730 2.430 . S
Eu713 O731 2.670 1_556 S
Eu713 O732 2.394 1_565 S
C714 C712 1.500 . S
C714 C715 1.377 . S
C714 C719 1.377 1_565 S
C715 C714 1.377 . S
C715 C716 1.395 . S
C715 H738 0.931 . S
C716 C715 1.395 . S
C716 C717 1.383 1_565 S
C716 H739 0.931 . S
C717 C716 1.383 1_545 S
C717 C718 1.394 . S
C718 C717 1.394 . S
C718 C719 1.378 . S
C718 H740 0.931 . S
C719 C714 1.377 1_545 S
C719 C718 1.378 . S
C719 H741 0.931 . S
C720 O730 1.259 1_554 S
C720 O731 1.270 . S
C721 O732 1.251 . S
C721 O733 1.251 1_556 S
O722 C702 1.257 1_565 S
O722 Eu703 2.473 1_565 S
O723 C702 1.260 . S
O723 Eu703 2.480 . S
O724 Eu703 2.430 . S
O724 C710 1.200 1_554 S
O725 Eu703 2.670 1_556 S
O725 C710 1.292 . S
O725 Eu713 2.355 1_545 S
O726 Eu703 2.394 1_565 S
O726 C711 1.251 . S
O727 C711 1.251 1_556 S
O727 Eu713 2.374 . S
O728 C712 1.257 1_545 S
O728 Eu713 2.473 1_545 S
O729 C712 1.260 . S
O729 Eu713 2.480 . S
O730 Eu713 2.430 . S
O730 C720 1.259 1_556 S
O731 Eu703 2.355 1_565 S
O731 Eu713 2.670 1_554 S
O731 C720 1.270 . S
O732 Eu713 2.394 1_545 S
O732 C721 1.251 . S
O733 Eu703 2.374 . S
O733 C721 1.251 1_554 S
H734 C705 0.931 . S
H735 C706 0.931 . S
H736 C708 0.931 . S
H737 C709 0.931 . S
H738 C715 0.931 . S
H739 C716 0.931 . S
H740 C718 0.931 . S
H741 C719 0.931 . S
C742 Eu743 2.835 . S
C742 C744 1.500 1_655 S
C742 O762 1.257 1_655 S
C742 O763 1.260 . S
Eu743 C742 2.835 . S
Eu743 O762 2.473 1_655 S
Eu743 O763 2.480 . S
Eu743 O764 2.430 . S
Eu743 O765 2.670 1_554 S
Eu743 O766 2.394 1_655 S
Eu743 O771 2.355 1_655 S
Eu743 O773 2.374 . S
C744 C742 1.500 1_455 S
C744 C745 1.377 1_455 S
C744 C749 1.377 . S
C745 C744 1.377 1_655 S
C745 C746 1.395 . S
C745 H774 0.931 . S
C746 C745 1.395 . S
C746 C747 1.383 1_655 S
C746 H775 0.931 . S
C747 C746 1.383 1_455 S
C747 C748 1.394 . S
C748 C747 1.394 . S
C748 C749 1.378 . S
C748 H776 0.931 . S
C749 C744 1.377 . S
C749 C748 1.378 . S
C749 H777 0.931 . S
C750 O764 1.259 1_556 S
C750 O765 1.270 . S
C751 O766 1.251 . S
C751 O767 1.251 . S
C752 Eu753 2.835 . S
C752 C754 1.500 1_455 S
C752 O768 1.257 1_455 S
C752 O769 1.260 . S
Eu753 C752 2.835 . S
Eu753 O765 2.355 1_455 S
Eu753 O767 2.374 1_556 S
Eu753 O768 2.473 1_455 S
Eu753 O769 2.480 . S
Eu753 O770 2.430 . S
Eu753 O771 2.670 1_556 S
Eu753 O772 2.394 1_455 S
C754 C752 1.500 1_655 S
C754 C755 1.377 1_655 S
C754 C759 1.377 . S
C755 C754 1.377 1_455 S
C755 C756 1.395 . S
C755 H778 0.931 . S
C756 C755 1.395 . S
C756 C757 1.383 1_455 S
C756 H779 0.931 . S
C757 C756 1.383 1_655 S
C757 C758 1.394 . S
C758 C757 1.394 . S
C758 C759 1.378 . S
C758 H780 0.931 . S
C759 C754 1.377 . S
C759 C758 1.378 . S
C759 H781 0.931 . S
C760 O770 1.259 1_554 S
C760 O771 1.270 . S
C761 O772 1.251 . S
C761 O773 1.251 1_556 S
O762 C742 1.257 1_455 S
O762 Eu743 2.473 1_455 S
O763 C742 1.260 . S
O763 Eu743 2.480 . S
O764 Eu743 2.430 . S
O764 C750 1.259 1_554 S
O765 Eu743 2.670 1_556 S
O765 C750 1.270 . S
O765 Eu753 2.355 1_655 S
O766 Eu743 2.394 1_455 S
O766 C751 1.251 . S
O767 C751 1.251 . S
O767 Eu753 2.374 1_554 S
O768 C752 1.257 1_655 S
O768 Eu753 2.473 1_655 S
O769 C752 1.260 . S
O769 Eu753 2.480 . S
O770 Eu753 2.430 . S
O770 C760 1.259 1_556 S
O771 Eu743 2.355 1_455 S
O771 Eu753 2.670 1_554 S
O771 C760 1.270 . S
O772 Eu753 2.394 1_655 S
O772 C761 1.251 . S
O773 Eu743 2.374 . S
O773 C761 1.251 1_554 S
H774 C745 0.931 . S
H775 C746 0.931 . S
H776 C748 0.931 . S
H777 C749 0.931 . S
H778 C755 0.931 . S
H779 C756 0.931 . S
H780 C758 0.931 . S
H781 C759 0.931 . S
C782 Eu783 2.835 . S
C782 C784 1.500 . S
C782 O802 1.257 . S
C782 O803 1.260 . S
Eu783 C782 2.835 . S
Eu783 O802 2.473 . S
Eu783 O803 2.480 . S
Eu783 O804 2.430 . S
Eu783 O805 2.670 1_556 S
Eu783 O806 2.394 . S
Eu783 O811 2.355 . S
Eu783 O813 2.377 . S
C784 C782 1.500 . S
C784 C785 1.377 . S
C784 C789 1.377 . S
C785 C784 1.377 . S
C785 C786 1.395 . S
C785 H814 0.931 . S
C786 C785 1.395 . S
C786 C787 1.383 . S
C786 H815 0.931 . S
C787 C786 1.383 . S
C787 C788 1.394 . S
C788 C787 1.394 . S
C788 C789 1.378 . S
C788 H816 0.931 . S
C789 C784 1.377 . S
C789 C788 1.378 . S
C789 H817 0.931 . S
C790 O804 1.259 1_554 S
C790 O805 1.270 . S
C791 O806 1.251 . S
C791 O807 1.251 1_556 S
C792 Eu793 2.835 . S
C792 C794 1.500 . S
C792 O808 1.257 . S
C792 O809 1.260 . S
Eu793 C792 2.835 . S
Eu793 O805 2.355 . S
Eu793 O807 2.374 . S
Eu793 O808 2.473 . S
Eu793 O809 2.480 . S
Eu793 O810 2.430 . S
Eu793 O811 2.670 1_554 S
Eu793 O812 2.394 . S
C794 C792 1.500 . S
C794 C795 1.377 . S
C794 C799 1.377 . S
C795 C794 1.377 . S
C795 C796 1.395 . S
C795 H818 0.931 . S
C796 C795 1.395 . S
C796 C797 1.383 . S
C796 H819 0.931 . S
C797 C796 1.383 . S
C797 C798 1.394 . S
C798 C797 1.394 . S
C798 C799 1.378 . S
C798 H820 0.931 . S
C799 C794 1.377 . S
C799 C798 1.378 . S
C799 H821 0.931 . S
C800 O810 1.259 1_556 S
C800 O811 1.270 . S
C801 O812 1.251 . S
C801 O813 1.247 1_554 S
O802 C782 1.257 . S
O802 Eu783 2.473 . S
O803 C782 1.260 . S
O803 Eu783 2.480 . S
O804 Eu783 2.430 . S
O804 C790 1.259 1_556 S
O805 Eu783 2.670 1_554 S
O805 C790 1.270 . S
O805 Eu793 2.355 . S
O806 Eu783 2.394 . S
O806 C791 1.251 . S
O807 C791 1.251 1_554 S
O807 Eu793 2.374 . S
O808 C792 1.257 . S
O808 Eu793 2.473 . S
O809 C792 1.260 . S
O809 Eu793 2.480 . S
O810 Eu793 2.430 . S
O810 C800 1.259 1_554 S
O811 Eu783 2.355 . S
O811 Eu793 2.670 1_556 S
O811 C800 1.270 . S
O812 Eu793 2.394 . S
O812 C801 1.251 . S
O813 Eu783 2.377 . S
O813 C801 1.247 1_556 S
H814 C785 0.931 . S
H815 C786 0.931 . S
H816 C788 0.931 . S
H817 C789 0.931 . S
H818 C795 0.931 . S
H819 C796 0.931 . S
H820 C798 0.931 . S
H821 C799 0.931 . S
C822 Eu823 2.835 . S
C822 C824 1.500 . S
C822 O842 1.257 . S
C822 O843 1.260 . S
Eu823 C822 2.835 . S
Eu823 O842 2.473 . S
Eu823 O843 2.480 . S
Eu823 O844 2.430 . S
Eu823 O845 2.670 . S
Eu823 O846 2.394 . S
Eu823 O851 2.355 . S
Eu823 O853 2.374 . S
C824 C822 1.500 . S
C824 C825 1.377 . S
C824 C829 1.377 . S
C825 C824 1.377 . S
C825 C826 1.395 . S
C825 H854 0.931 . S
C826 C825 1.395 . S
C826 C827 1.383 . S
C826 H855 0.931 . S
C827 C826 1.383 . S
C827 C828 1.394 . S
C828 C827 1.394 . S
C828 C829 1.378 . S
C828 H856 0.931 . S
C829 C824 1.377 . S
C829 C828 1.378 . S
C829 H857 0.931 . S
C830 O844 1.259 . S
C830 O845 1.270 . S
C831 O846 1.251 . S
C831 O847 1.251 . S
C832 Eu833 2.835 . S
C832 C834 1.500 . S
C832 O848 1.257 . S
C832 O849 1.260 . S
Eu833 C832 2.835 . S
Eu833 O845 2.355 . S
Eu833 O847 2.374 . S
Eu833 O848 2.473 . S
Eu833 O849 2.480 . S
Eu833 O850 2.430 . S
Eu833 O851 2.670 . S
Eu833 O852 2.394 . S
C834 C832 1.500 . S
C834 C835 1.377 . S
C834 C839 1.377 . S
C835 C834 1.377 . S
C835 C836 1.395 . S
C835 H858 0.931 . S
C836 C835 1.395 . S
C836 C837 1.383 . S
C836 H859 0.931 . S
C837 C836 1.383 . S
C837 C838 1.394 . S
C838 C837 1.394 . S
C838 C839 1.378 . S
C838 H860 0.931 . S
C839 C834 1.377 . S
C839 C838 1.378 . S
C839 H861 0.931 . S
C840 O850 1.259 . S
C840 O851 1.270 . S
C841 O852 1.251 . S
C841 O853 1.251 . S
O842 C822 1.257 . S
O842 Eu823 2.473 . S
O843 C822 1.260 . S
O843 Eu823 2.480 . S
O844 Eu823 2.430 . S
O844 C830 1.259 . S
O845 Eu823 2.670 . S
O845 C830 1.270 . S
O845 Eu833 2.355 . S
O846 Eu823 2.394 . S
O846 C831 1.251 . S
O847 C831 1.251 . S
O847 Eu833 2.374 . S
O848 C832 1.257 . S
O848 Eu833 2.473 . S
O849 C832 1.260 . S
O849 Eu833 2.480 . S
O850 Eu833 2.430 . S
O850 C840 1.259 . S
O851 Eu823 2.355 . S
O851 Eu833 2.670 . S
O851 C840 1.270 . S
O852 Eu833 2.394 . S
O852 C841 1.251 . S
O853 Eu823 2.374 . S
O853 C841 1.251 . S
H854 C825 0.931 . S
H855 C826 0.931 . S
H856 C828 0.931 . S
H857 C829 0.931 . S
H858 C835 0.931 . S
H859 C836 0.931 . S
H860 C838 0.931 . S
H861 C839 0.931 . S
C862 Eu863 2.835 . S
C862 C864 1.500 . S
C862 O882 1.257 . S
C862 O883 1.260 . S
Eu863 C862 2.835 . S
Eu863 O882 2.473 . S
Eu863 O883 2.480 . S
Eu863 O884 2.430 . S
Eu863 O885 2.670 . S
Eu863 O886 2.394 . S
Eu863 O891 2.355 . S
Eu863 O893 2.374 . S
C864 C862 1.500 . S
C864 C865 1.377 . S
C864 C869 1.377 . S
C865 C864 1.377 . S
C865 C866 1.395 . S
C865 H894 0.931 . S
C866 C865 1.395 . S
C866 C867 1.383 . S
C866 H895 0.931 . S
C867 C866 1.383 . S
C867 C868 1.394 . S
C868 C867 1.394 . S
C868 C869 1.378 . S
C868 H896 0.931 . S
C869 C864 1.377 . S
C869 C868 1.378 . S
C869 H897 0.931 . S
C870 O884 1.259 . S
C870 O885 1.270 . S
C871 O886 1.251 . S
C871 O887 1.251 . S
C872 Eu873 2.835 . S
C872 C874 1.500 . S
C872 O888 1.257 . S
C872 O889 1.260 . S
Eu873 C872 2.835 . S
Eu873 O885 2.355 . S
Eu873 O887 2.374 . S
Eu873 O888 2.473 . S
Eu873 O889 2.480 . S
Eu873 O890 2.430 . S
Eu873 O891 2.670 . S
Eu873 O892 2.394 . S
C874 C872 1.500 . S
C874 C875 1.377 . S
C874 C879 1.377 . S
C875 C874 1.377 . S
C875 C876 1.395 . S
C875 H898 0.931 . S
C876 C875 1.395 . S
C876 C877 1.383 . S
C876 H899 0.931 . S
C877 C876 1.383 . S
C877 C878 1.394 . S
C878 C877 1.394 . S
C878 C879 1.378 . S
C878 H900 0.931 . S
C879 C874 1.377 . S
C879 C878 1.378 . S
C879 H901 0.931 . S
C880 O890 1.259 . S
C880 O891 1.270 . S
C881 O892 1.251 . S
C881 O893 1.251 . S
O882 C862 1.257 . S
O882 Eu863 2.473 . S
O883 C862 1.260 . S
O883 Eu863 2.480 . S
O884 Eu863 2.430 . S
O884 C870 1.259 . S
O885 Eu863 2.670 . S
O885 C870 1.270 . S
O885 Eu873 2.355 . S
O886 Eu863 2.394 . S
O886 C871 1.251 . S
O887 C871 1.251 . S
O887 Eu873 2.374 . S
O888 C872 1.257 . S
O888 Eu873 2.473 . S
O889 C872 1.260 . S
O889 Eu873 2.480 . S
O890 Eu873 2.430 . S
O890 C880 1.259 . S
O891 Eu863 2.355 . S
O891 Eu873 2.670 . S
O891 C880 1.270 . S
O892 Eu873 2.394 . S
O892 C881 1.251 . S
O893 Eu863 2.374 . S
O893 C881 1.251 . S
H894 C865 0.931 . S
H895 C866 0.931 . S
H896 C868 0.931 . S
H897 C869 0.931 . S
H898 C875 0.931 . S
H899 C876 0.931 . S
H900 C878 0.931 . S
H901 C879 0.931 . S
C902 Eu903 2.835 . S
C902 C904 1.500 . S
C902 O922 1.257 . S
C902 O923 1.260 . S
Eu903 C902 2.835 . S
Eu903 O922 2.473 . S
Eu903 O923 2.480 . S
Eu903 O924 2.430 . S
Eu903 O925 2.670 . S
Eu903 O926 2.394 . S
Eu903 O931 2.355 . S
Eu903 O933 2.374 . S
C904 C902 1.500 . S
C904 C905 1.377 . S
C904 C909 1.377 . S
C905 C904 1.377 . S
C905 C906 1.395 . S
C905 H934 0.931 . S
C906 C905 1.395 . S
C906 C907 1.383 . S
C906 H935 0.931 . S
C907 C906 1.383 . S
C907 C908 1.394 . S
C908 C907 1.394 . S
C908 C909 1.378 . S
C908 H936 0.931 . S
C909 C904 1.377 . S
C909 C908 1.378 . S
C909 H937 0.931 . S
C910 O924 1.259 . S
C910 O925 1.270 . S
C911 O926 1.251 . S
C911 O927 1.251 . S
C912 Eu913 2.835 . S
C912 C914 1.500 . S
C912 O928 1.257 . S
C912 O929 1.260 . S
Eu913 C912 2.835 . S
Eu913 O925 2.355 . S
Eu913 O927 2.374 . S
Eu913 O928 2.473 . S
Eu913 O929 2.480 . S
Eu913 O930 2.430 . S
Eu913 O931 2.670 . S
Eu913 O932 2.394 . S
C914 C912 1.500 . S
C914 C915 1.377 . S
C914 C919 1.377 . S
C915 C914 1.377 . S
C915 C916 1.395 . S
C915 H938 0.931 . S
C916 C915 1.395 . S
C916 C917 1.383 . S
C916 H939 0.931 . S
C917 C916 1.383 . S
C917 C918 1.394 . S
C918 C917 1.394 . S
C918 C919 1.378 . S
C918 H940 0.931 . S
C919 C914 1.377 . S
C919 C918 1.378 . S
C919 H941 0.931 . S
C920 O930 1.259 . S
C920 O931 1.270 . S
C921 O932 1.251 . S
C921 O933 1.251 . S
O922 C902 1.257 . S
O922 Eu903 2.473 . S
O923 C902 1.260 . S
O923 Eu903 2.480 . S
O924 Eu903 2.430 . S
O924 C910 1.259 . S
O925 Eu903 2.670 . S
O925 C910 1.270 . S
O925 Eu913 2.355 . S
O926 Eu903 2.394 . S
O926 C911 1.251 . S
O927 C911 1.251 . S
O927 Eu913 2.374 . S
O928 C912 1.257 . S
O928 Eu913 2.473 . S
O929 C912 1.260 . S
O929 Eu913 2.480 . S
O930 Eu913 2.430 . S
O930 C920 1.259 . S
O931 Eu903 2.355 . S
O931 Eu913 2.670 . S
O931 C920 1.270 . S
O932 Eu913 2.394 . S
O932 C921 1.251 . S
O933 Eu903 2.374 . S
O933 C921 1.251 . S
H934 C905 0.931 . S
H935 C906 0.931 . S
H936 C908 0.931 . S
H937 C909 0.931 . S
H938 C915 0.931 . S
H939 C916 0.931 . S
H940 C918 0.931 . S
H941 C919 0.931 . S
C942 Eu943 2.835 . S
C942 C944 1.500 . S
C942 O962 1.257 . S
C942 O963 1.260 . S
Eu943 C942 2.835 . S
Eu943 O962 2.473 . S
Eu943 O963 2.480 . S
Eu943 O964 2.430 . S
Eu943 O965 2.670 . S
Eu943 O966 2.394 . S
Eu943 O971 2.355 . S
Eu943 O973 2.374 . S
C944 C942 1.500 . S
C944 C945 1.377 . S
C944 C949 1.377 . S
C945 C944 1.377 . S
C945 C946 1.395 . S
C945 H974 0.931 . S
C946 C945 1.395 . S
C946 C947 1.383 . S
C946 H975 0.931 . S
C947 C946 1.383 . S
C947 C948 1.394 . S
C948 C947 1.394 . S
C948 C949 1.378 . S
C948 H976 0.931 . S
C949 C944 1.377 . S
C949 C948 1.378 . S
C949 H977 0.931 . S
C950 O964 1.259 . S
C950 O965 1.270 . S
C951 O966 1.251 . S
C951 O967 1.251 . S
C952 Eu953 2.835 . S
C952 C954 1.500 . S
C952 O968 1.257 . S
C952 O969 1.260 . S
Eu953 C952 2.835 . S
Eu953 O965 2.355 . S
Eu953 O967 2.374 . S
Eu953 O968 2.473 . S
Eu953 O969 2.480 . S
Eu953 O970 2.430 . S
Eu953 O971 2.670 . S
Eu953 O972 2.394 . S
C954 C952 1.500 . S
C954 C955 1.377 . S
C954 C959 1.377 . S
C955 C954 1.377 . S
C955 C956 1.395 . S
C955 H978 0.931 . S
C956 C955 1.395 . S
C956 C957 1.383 . S
C956 H979 0.931 . S
C957 C956 1.383 . S
C957 C958 1.394 . S
C958 C957 1.394 . S
C958 C959 1.378 . S
C958 H980 0.931 . S
C959 C954 1.377 . S
C959 C958 1.378 . S
C959 H981 0.931 . S
C960 O970 1.259 . S
C960 O971 1.270 . S
C961 O972 1.251 . S
C961 O973 1.251 . S
O962 C942 1.257 . S
O962 Eu943 2.473 . S
O963 C942 1.260 . S
O963 Eu943 2.480 . S
O964 Eu943 2.430 . S
O964 C950 1.259 . S
O965 Eu943 2.670 . S
O965 C950 1.270 . S
O965 Eu953 2.355 . S
O966 Eu943 2.394 . S
O966 C951 1.251 . S
O967 C951 1.251 . S
O967 Eu953 2.374 . S
O968 C952 1.257 . S
O968 Eu953 2.473 . S
O969 C952 1.260 . S
O969 Eu953 2.480 . S
O970 Eu953 2.430 . S
O970 C960 1.259 . S
O971 Eu943 2.355 . S
O971 Eu953 2.670 . S
O971 C960 1.270 . S
O972 Eu953 2.394 . S
O972 C961 1.251 . S
O973 Eu943 2.374 . S
O973 C961 1.251 . S
H974 C945 0.931 . S
H975 C946 0.931 . S
H976 C948 0.931 . S
H977 C949 0.931 . S
H978 C955 0.931 . S
H979 C956 0.931 . S
H980 C958 0.931 . S
H981 C959 0.931 . S
C982 Eu983 2.835 . S
C982 C984 1.500 . S
C982 O1002 1.257 . S
C982 O1003 1.260 . S
Eu983 C982 2.835 . S
Eu983 O1002 2.473 . S
Eu983 O1003 2.480 . S
Eu983 O1004 2.430 . S
Eu983 O1005 2.670 . S
Eu983 O1006 2.394 . S
Eu983 O1011 2.355 . S
Eu983 O1013 2.374 . S
C984 C982 1.500 . S
C984 C985 1.377 . S
C984 C989 1.377 . S
C985 C984 1.377 . S
C985 C986 1.395 . S
C985 H1014 0.931 . S
C986 C985 1.395 . S
C986 C987 1.383 . S
C986 H1015 0.931 . S
C987 C986 1.383 . S
C987 C988 1.394 . S
C988 C987 1.394 . S
C988 C989 1.378 . S
C988 H1016 0.931 . S
C989 C984 1.377 . S
C989 C988 1.378 . S
C989 H1017 0.931 . S
C990 O1004 1.259 . S
C990 O1005 1.270 . S
C991 O1006 1.251 . S
C991 O1007 1.251 . S
C992 Eu993 2.835 . S
C992 C994 1.500 . S
C992 O1008 1.257 . S
C992 O1009 1.260 . S
Eu993 C992 2.835 . S
Eu993 O1005 2.355 . S
Eu993 O1007 2.374 . S
Eu993 O1008 2.473 . S
Eu993 O1009 2.480 . S
Eu993 O1010 2.430 . S
Eu993 O1011 2.670 . S
Eu993 O1012 2.394 . S
C994 C992 1.500 . S
C994 C995 1.377 . S
C994 C999 1.377 . S
C995 C994 1.377 . S
C995 C996 1.395 . S
C995 H1018 0.931 . S
C996 C995 1.395 . S
C996 C997 1.383 . S
C996 H1019 0.931 . S
C997 C996 1.383 . S
C997 C998 1.394 . S
C998 C997 1.394 . S
C998 C999 1.378 . S
C998 H1020 0.931 . S
C999 C994 1.377 . S
C999 C998 1.378 . S
C999 H1021 0.931 . S
C1000 O1010 1.259 . S
C1000 O1011 1.270 . S
C1001 O1012 1.251 . S
C1001 O1013 1.251 . S
O1002 C982 1.257 . S
O1002 Eu983 2.473 . S
O1003 C982 1.260 . S
O1003 Eu983 2.480 . S
O1004 Eu983 2.430 . S
O1004 C990 1.259 . S
O1005 Eu983 2.670 . S
O1005 C990 1.270 . S
O1005 Eu993 2.355 . S
O1006 Eu983 2.394 . S
O1006 C991 1.251 . S
O1007 C991 1.251 . S
O1007 Eu993 2.374 . S
O1008 C992 1.257 . S
O1008 Eu993 2.473 . S
O1009 C992 1.260 . S
O1009 Eu993 2.480 . S
O1010 Eu993 2.430 . S
O1010 C1000 1.259 . S
O1011 Eu983 2.355 . S
O1011 Eu993 2.670 . S
O1011 C1000 1.270 . S
O1012 Eu993 2.394 . S
O1012 C1001 1.251 . S
O1013 Eu983 2.374 . S
O1013 C1001 1.251 . S
H1014 C985 0.931 . S
H1015 C986 0.931 . S
H1016 C988 0.931 . S
H1017 C989 0.931 . S
H1018 C995 0.931 . S
H1019 C996 0.931 . S
H1020 C998 0.931 . S
H1021 C999 0.931 . S
C1022 Eu1023 2.835 . S
C1022 C1024 1.500 . S
C1022 O1042 1.257 . S
C1022 O1043 1.260 . S
Eu1023 C1022 2.835 . S
Eu1023 O1042 2.473 . S
Eu1023 O1043 2.480 . S
Eu1023 O1044 2.430 . S
Eu1023 O1045 2.670 . S
Eu1023 O1046 2.394 . S
Eu1023 O1051 2.355 . S
Eu1023 O1053 2.374 . S
C1024 C1022 1.500 . S
C1024 C1025 1.377 . S
C1024 C1029 1.377 . S
C1025 C1024 1.377 . S
C1025 C1026 1.395 . S
C1025 H1054 0.931 . S
C1026 C1025 1.395 . S
C1026 C1027 1.383 . S
C1026 H1055 0.931 . S
C1027 C1026 1.383 . S
C1027 C1028 1.394 . S
C1028 C1027 1.394 . S
C1028 C1029 1.378 . S
C1028 H1056 0.931 . S
C1029 C1024 1.377 . S
C1029 C1028 1.378 . S
C1029 H1057 0.931 . S
C1030 O1044 1.259 . S
C1030 O1045 1.270 . S
C1031 O1046 1.251 . S
C1031 O1047 1.251 . S
C1032 Eu1033 2.835 . S
C1032 C1034 1.500 . S
C1032 O1048 1.257 . S
C1032 O1049 1.260 . S
Eu1033 C1032 2.835 . S
Eu1033 O1045 2.355 . S
Eu1033 O1047 2.374 . S
Eu1033 O1048 2.473 . S
Eu1033 O1049 2.480 . S
Eu1033 O1050 2.430 . S
Eu1033 O1051 2.670 . S
Eu1033 O1052 2.394 . S
C1034 C1032 1.500 . S
C1034 C1035 1.377 . S
C1034 C1039 1.377 . S
C1035 C1034 1.377 . S
C1035 C1036 1.395 . S
C1035 H1058 0.931 . S
C1036 C1035 1.395 . S
C1036 C1037 1.383 . S
C1036 H1059 0.931 . S
C1037 C1036 1.383 . S
C1037 C1038 1.394 . S
C1038 C1037 1.394 . S
C1038 C1039 1.378 . S
C1038 H1060 0.931 . S
C1039 C1034 1.377 . S
C1039 C1038 1.378 . S
C1039 H1061 0.931 . S
C1040 O1050 1.259 . S
C1040 O1051 1.270 . S
C1041 O1052 1.251 . S
C1041 O1053 1.251 . S
O1042 C1022 1.257 . S
O1042 Eu1023 2.473 . S
O1043 C1022 1.260 . S
O1043 Eu1023 2.480 . S
O1044 Eu1023 2.430 . S
O1044 C1030 1.259 . S
O1045 Eu1023 2.670 . S
O1045 C1030 1.270 . S
O1045 Eu1033 2.355 . S
O1046 Eu1023 2.394 . S
O1046 C1031 1.251 . S
O1047 C1031 1.251 . S
O1047 Eu1033 2.374 . S
O1048 C1032 1.257 . S
O1048 Eu1033 2.473 . S
O1049 C1032 1.260 . S
O1049 Eu1033 2.480 . S
O1050 Eu1033 2.430 . S
O1050 C1040 1.259 . S
O1051 Eu1023 2.355 . S
O1051 Eu1033 2.670 . S
O1051 C1040 1.270 . S
O1052 Eu1033 2.394 . S
O1052 C1041 1.251 . S
O1053 Eu1023 2.374 . S
O1053 C1041 1.251 . S
H1054 C1025 0.931 . S
H1055 C1026 0.931 . S
H1056 C1028 0.931 . S
H1057 C1029 0.931 . S
H1058 C1035 0.931 . S
H1059 C1036 0.931 . S
H1060 C1038 0.931 . S
H1061 C1039 0.931 . S
C1062 C1063 1.363 . S
C1062 C1068 1.379 . S
C1062 N1070 1.356 . S
C1063 C1062 1.363 . S
C1063 C1069 1.363 . S
C1064 C1065 1.363 . S
C1064 C1069 1.379 . S
C1064 N1071 1.356 . S
C1065 C1064 1.363 . S
C1065 C1068 1.363 . S
N1066 C1068 1.356 . S
N1066 H1078 0.984 1_565 S
N1066 H1079 0.985 . S
N1067 C1069 1.356 . S
N1067 H1072 0.984 . S
N1067 H1073 0.985 . S
C1068 C1062 1.379 . S
C1068 C1065 1.363 . S
C1068 N1066 1.356 . S
C1069 C1063 1.363 . S
C1069 C1064 1.379 . S
C1069 N1067 1.356 . S
N1070 C1062 1.356 . S
N1070 H1076 0.984 . S
N1070 H1077 0.984 . S
N1071 C1064 1.356 . S
N1071 H1074 0.984 . S
N1071 H1075 0.985 . S
H1072 N1067 0.984 . S
H1073 N1067 0.985 . S
H1074 N1071 0.984 . S
H1075 N1071 0.985 . S
H1076 N1070 0.984 . S
H1077 N1070 0.984 . S
H1078 N1066 0.984 1_545 S
H1079 N1066 0.985 . S
C1080 C1081 1.363 . S
C1080 C1086 1.379 . S
C1080 N1088 1.356 . S
C1081 C1080 1.363 . S
C1081 C1087 1.363 . S
C1082 C1083 1.363 . S
C1082 C1087 1.379 . S
C1082 N1089 1.356 1_554 S
C1083 C1082 1.363 . S
C1083 C1086 1.363 . S
N1084 C1086 1.356 . S
N1084 H1096 0.984 . S
N1084 H1097 0.985 . S
N1085 C1087 1.356 . S
N1085 H1090 0.984 . S
N1085 H1091 0.985 1_554 S
C1086 C1080 1.379 . S
C1086 C1083 1.363 . S
C1086 N1084 1.356 . S
C1087 C1081 1.363 . S
C1087 C1082 1.379 . S
C1087 N1085 1.356 . S
N1088 C1080 1.356 . S
N1088 H1094 0.984 . S
N1088 H1095 0.984 . S
N1089 C1082 1.356 1_556 S
N1089 H1092 0.982 1_556 S
N1089 H1093 0.985 . S
H1090 N1085 0.984 . S
H1091 N1085 0.985 1_556 S
H1092 N1089 0.982 1_554 S
H1093 N1089 0.985 . S
H1094 N1088 0.984 . S
H1095 N1088 0.984 . S
H1096 N1084 0.984 . S
H1097 N1084 0.985 . S
C1098 C1099 1.363 . S
C1098 C1104 1.379 . S
C1098 N1106 1.356 . S
C1099 C1098 1.363 . S
C1099 C1105 1.382 . S
C1100 C1101 1.336 1_556 S
C1100 C1105 1.384 1_556 S
C1100 N1107 1.375 . S
C1101 C1100 1.336 1_554 S
C1101 C1104 1.363 . S
N1102 C1104 1.356 . S
N1102 H1114 0.984 . S
N1102 H1115 0.985 . S
N1103 C1105 1.340 1_556 S
N1103 H1108 0.984 . S
N1103 H1109 0.985 . S
C1104 C1098 1.379 . S
C1104 C1101 1.363 . S
C1104 N1102 1.356 . S
C1105 C1099 1.382 . S
C1105 C1100 1.384 1_554 S
C1105 N1103 1.340 1_554 S
N1106 C1098 1.356 . S
N1106 H1112 0.984 . S
N1106 H1113 0.984 . S
N1107 C1100 1.375 . S
N1107 H1110 0.984 . S
N1107 H1111 0.985 . S
H1108 N1103 0.984 . S
H1109 N1103 0.985 . S
H1110 N1107 0.984 . S
H1111 N1107 0.985 . S
H1112 N1106 0.984 . S
H1113 N1106 0.984 . S
H1114 N1102 0.984 . S
H1115 N1102 0.985 . S
C1116 C1117 1.363 . S
C1116 C1122 1.379 . S
C1116 N1124 1.356 . S
C1117 C1116 1.363 . S
C1117 C1123 1.363 . S
C1118 C1119 1.363 . S
C1118 C1123 1.379 . S
C1118 N1125 1.356 . S
C1119 C1118 1.363 . S
C1119 C1122 1.363 . S
N1120 C1122 1.356 . S
N1120 H1132 0.984 . S
N1120 H1133 0.985 . S
N1121 C1123 1.356 . S
N1121 H1126 0.984 . S
N1121 H1127 0.985 . S
C1122 C1116 1.379 . S
C1122 C1119 1.363 . S
C1122 N1120 1.356 . S
C1123 C1117 1.363 . S
C1123 C1118 1.379 . S
C1123 N1121 1.356 . S
N1124 C1116 1.356 . S
N1124 H1130 0.984 . S
N1124 H1131 0.984 . S
N1125 C1118 1.356 . S
N1125 H1128 0.984 . S
N1125 H1129 0.985 1_655 S
H1126 N1121 0.984 . S
H1127 N1121 0.985 . S
H1128 N1125 0.984 . S
H1129 N1125 0.985 1_455 S
H1130 N1124 0.984 . S
H1131 N1124 0.984 . S
H1132 N1120 0.984 . S
H1133 N1120 0.985 . S
C1134 C1135 1.363 . S
C1134 C1140 1.379 . S
C1134 N1142 1.356 . S
C1135 C1134 1.363 . S
C1135 C1141 1.363 . S
C1136 C1137 1.363 . S
C1136 C1141 1.379 . S
C1136 N1143 1.356 1_556 S
C1137 C1136 1.363 . S
C1137 C1140 1.363 . S
N1138 C1140 1.356 . S
N1138 H1150 0.984 . S
N1138 H1151 0.985 . S
N1139 C1141 1.356 . S
N1139 H1144 0.984 . S
N1139 H1145 0.985 1_556 S
C1140 C1134 1.379 . S
C1140 C1137 1.363 . S
C1140 N1138 1.356 . S
C1141 C1135 1.363 . S
C1141 C1136 1.379 . S
C1141 N1139 1.356 . S
N1142 C1134 1.356 . S
N1142 H1148 0.984 . S
N1142 H1149 0.984 . S
N1143 C1136 1.356 1_554 S
N1143 H1146 0.984 . S
N1143 H1147 0.985 . S
H1144 N1139 0.984 . S
H1145 N1139 0.985 1_554 S
H1146 N1143 0.984 . S
H1147 N1143 0.985 . S
H1148 N1142 0.984 . S
H1149 N1142 0.984 . S
H1150 N1138 0.984 . S
H1151 N1138 0.985 . S
C1152 C1153 1.363 . S
C1152 C1158 1.379 . S
C1152 N1160 1.356 . S
C1153 C1152 1.363 . S
C1153 C1159 1.363 1_556 S
C1154 C1155 1.363 1_554 S
C1154 C1159 1.379 . S
C1154 N1161 1.356 . S
C1155 C1154 1.363 1_556 S
C1155 C1158 1.363 . S
N1156 C1158 1.356 . S
N1156 H1168 0.984 . S
N1156 H1169 0.985 . S
N1157 C1159 1.356 . S
N1157 H1162 0.984 . S
N1157 H1163 0.985 . S
C1158 C1152 1.379 . S
C1158 C1155 1.363 . S
C1158 N1156 1.356 . S
C1159 C1153 1.363 1_554 S
C1159 C1154 1.379 . S
C1159 N1157 1.356 . S
N1160 C1152 1.356 . S
N1160 H1166 0.984 . S
N1160 H1167 0.984 . S
N1161 C1154 1.356 . S
N1161 H1164 0.984 . S
N1161 H1165 0.985 . S
H1162 N1157 0.984 . S
H1163 N1157 0.985 . S
H1164 N1161 0.984 . S
H1165 N1161 0.985 . S
H1166 N1160 0.984 . S
H1167 N1160 0.984 . S
H1168 N1156 0.984 . S
H1169 N1156 0.985 . S
C1170 C1171 1.363 . S
C1170 C1176 1.379 . S
C1170 N1178 1.356 . S
C1171 C1170 1.363 . S
C1171 C1177 1.363 . S
C1172 C1173 1.363 . S
C1172 C1177 1.379 . S
C1172 N1179 1.356 . S
C1173 C1172 1.363 . S
C1173 C1176 1.363 . S
N1174 C1176 1.357 1_554 S
N1174 H1186 0.984 . S
N1174 H1187 0.982 . S
N1175 C1177 1.356 . S
N1175 H1180 0.984 . S
N1175 H1181 0.985 . S
C1176 C1170 1.379 . S
C1176 C1173 1.363 . S
C1176 N1174 1.357 1_556 S
C1177 C1171 1.363 . S
C1177 C1172 1.379 . S
C1177 N1175 1.356 . S
N1178 C1170 1.356 . S
N1178 H1184 0.984 . S
N1178 H1185 0.984 . S
N1179 C1172 1.356 . S
N1179 H1182 0.984 . S
N1179 H1183 0.985 . S
H1180 N1175 0.984 . S
H1181 N1175 0.985 . S
H1182 N1179 0.984 . S
H1183 N1179 0.985 . S
H1184 N1178 0.984 . S
H1185 N1178 0.984 . S
H1186 N1174 0.984 . S
H1187 N1174 0.982 . S
C1188 C1189 1.363 . S
C1188 C1194 1.379 . S
C1188 N1196 1.356 . S
C1189 C1188 1.363 . S
C1189 C1195 1.363 . S
C1190 C1191 1.363 . S
C1190 C1195 1.379 . S
C1190 N1197 1.356 . S
C1191 C1190 1.363 . S
C1191 C1194 1.363 . S
N1192 C1194 1.356 . S
N1192 H1204 0.984 . S
N1192 H1205 0.985 . S
N1193 C1195 1.356 . S
N1193 H1198 0.984 . S
N1193 H1199 0.985 . S
C1194 C1188 1.379 . S
C1194 C1191 1.363 . S
C1194 N1192 1.356 . S
C1195 C1189 1.363 . S
C1195 C1190 1.379 . S
C1195 N1193 1.356 . S
N1196 C1188 1.356 . S
N1196 H1202 0.984 . S
N1196 H1203 0.984 . S
N1197 C1190 1.356 . S
N1197 H1200 0.984 . S
N1197 H1201 0.981 1_556 S
H1198 N1193 0.984 . S
H1199 N1193 0.985 . S
H1200 N1197 0.984 . S
H1201 N1197 0.981 1_554 S
H1202 N1196 0.984 . S
H1203 N1196 0.984 . S
H1204 N1192 0.984 . S
H1205 N1192 0.985 . S
C1206 C1207 1.394 . S
C1206 C1212 1.383 1_556 S
C1206 N1214 1.329 1_556 S
C1207 C1206 1.394 . S
C1207 C1213 1.363 . S
C1208 C1209 1.363 . S
C1208 C1213 1.379 . S
C1208 N1215 1.356 . S
C1209 C1208 1.363 . S
C1209 C1212 1.365 1_556 S
N1210 C1212 1.355 . S
N1210 H1222 0.984 . S
N1210 H1223 0.985 . S
N1211 C1213 1.356 . S
N1211 H1216 0.984 . S
N1211 H1217 0.985 . S
C1212 C1206 1.383 1_554 S
C1212 C1209 1.365 1_554 S
C1212 N1210 1.355 . S
C1213 C1207 1.363 . S
C1213 C1208 1.379 . S
C1213 N1211 1.356 . S
N1214 C1206 1.329 1_554 S
N1214 H1220 0.984 . S
N1214 H1221 0.984 . S
N1215 C1208 1.356 . S
N1215 H1218 0.984 . S
N1215 H1219 0.985 . S
H1216 N1211 0.984 . S
H1217 N1211 0.985 . S
H1218 N1215 0.984 . S
H1219 N1215 0.985 . S
H1220 N1214 0.984 . S
H1221 N1214 0.984 . S
H1222 N1210 0.984 . S
H1223 N1210 0.985 . S
C1224 C1225 1.363 . S
C1224 C1230 1.379 . S
C1224 N1232 1.356 . S
C1225 C1224 1.363 . S
C1225 C1231 1.363 . S
C1226 C1227 1.363 . S
C1226 C1231 1.379 . S
C1226 N1233 1.356 1_554 S
C1227 C1226 1.363 . S
C1227 C1230 1.363 . S
N1228 C1230 1.356 . S
N1228 H1240 0.984 . S
N1228 H1241 0.985 . S
N1229 C1231 1.356 1_556 S
N1229 H1234 0.984 1_556 S
N1229 H1235 0.985 . S
C1230 C1224 1.379 . S
C1230 C1227 1.363 . S
C1230 N1228 1.356 . S
C1231 C1225 1.363 . S
C1231 C1226 1.379 . S
C1231 N1229 1.356 1_554 S
N1232 C1224 1.356 . S
N1232 H1238 0.984 . S
N1232 H1239 0.984 . S
N1233 C1226 1.356 1_556 S
N1233 H1236 0.984 . S
N1233 H1237 0.985 . S
H1234 N1229 0.984 1_554 S
H1235 N1229 0.985 . S
H1236 N1233 0.984 . S
H1237 N1233 0.985 . S
H1238 N1232 0.984 . S
H1239 N1232 0.984 . S
H1240 N1228 0.984 . S
H1241 N1228 0.985 . S
C1242 C1243 1.363 . S
C1242 C1248 1.379 . S
C1242 N1250 1.356 . S
C1243 C1242 1.363 . S
C1243 C1249 1.363 . S
C1244 C1245 1.363 . S
C1244 C1249 1.379 . S
C1244 N1251 1.356 . S
C1245 C1244 1.363 . S
C1245 C1248 1.363 . S
N1246 C1248 1.356 . S
N1246 H1258 0.984 . S
N1246 H1259 0.985 . S
N1247 C1249 1.356 . S
N1247 H1252 0.984 . S
N1247 H1253 0.985 . S
C1248 C1242 1.379 . S
C1248 C1245 1.363 . S
C1248 N1246 1.356 . S
C1249 C1243 1.363 . S
C1249 C1244 1.379 . S
C1249 N1247 1.356 . S
N1250 C1242 1.356 . S
N1250 H1256 0.984 . S
N1250 H1257 0.984 . S
N1251 C1244 1.356 . S
N1251 H1254 0.984 . S
N1251 H1255 0.985 . S
H1252 N1247 0.984 . S
H1253 N1247 0.985 . S
H1254 N1251 0.984 . S
H1255 N1251 0.985 . S
H1256 N1250 0.984 . S
H1257 N1250 0.984 . S
H1258 N1246 0.984 . S
H1259 N1246 0.985 . S
C1260 C1261 1.363 . S
C1260 C1266 1.379 . S
C1260 N1268 1.356 . S
C1261 C1260 1.363 . S
C1261 C1267 1.363 . S
C1262 C1263 1.363 . S
C1262 C1267 1.379 . S
C1262 N1269 1.356 . S
C1263 C1262 1.363 . S
C1263 C1266 1.363 . S
N1264 C1266 1.356 1_556 S
N1264 H1276 0.984 . S
N1264 H1277 0.985 . S
N1265 C1267 1.356 . S
N1265 H1270 0.984 . S
N1265 H1271 0.985 . S
C1266 C1260 1.379 . S
C1266 C1263 1.363 . S
C1266 N1264 1.356 1_554 S
C1267 C1261 1.363 . S
C1267 C1262 1.379 . S
C1267 N1265 1.356 . S
N1268 C1260 1.356 . S
N1268 H1274 0.984 1_554 S
N1268 H1275 0.984 . S
N1269 C1262 1.356 . S
N1269 H1272 0.984 . S
N1269 H1273 0.985 . S
H1270 N1265 0.984 . S
H1271 N1265 0.985 . S
H1272 N1269 0.984 . S
H1273 N1269 0.985 . S
H1274 N1268 0.984 1_556 S
H1275 N1268 0.984 . S
H1276 N1264 0.984 . S
H1277 N1264 0.985 . S
C1278 C1279 1.363 . S
C1278 C1284 1.379 . S
C1278 N1286 1.356 . S
C1279 C1278 1.363 . S
C1279 C1285 1.363 . S
C1280 C1281 1.363 . S
C1280 C1285 1.379 . S
C1280 N1287 1.356 . S
C1281 C1280 1.363 . S
C1281 C1284 1.363 . S
N1282 C1284 1.356 . S
N1282 H1294 0.984 . S
N1282 H1295 0.985 . S
N1283 C1285 1.356 1_655 S
N1283 H1288 0.984 . S
N1283 H1289 0.985 . S
C1284 C1278 1.379 . S
C1284 C1281 1.363 . S
C1284 N1282 1.356 . S
C1285 C1279 1.363 . S
C1285 C1280 1.379 . S
C1285 N1283 1.356 1_455 S
N1286 C1278 1.356 . S
N1286 H1292 0.984 . S
N1286 H1293 0.984 1_455 S
N1287 C1280 1.356 . S
N1287 H1290 0.984 . S
N1287 H1291 0.985 . S
H1288 N1283 0.984 . S
H1289 N1283 0.985 . S
H1290 N1287 0.984 . S
H1291 N1287 0.985 . S
H1292 N1286 0.984 . S
H1293 N1286 0.984 1_655 S
H1294 N1282 0.984 . S
H1295 N1282 0.985 . S
C1296 C1297 1.363 . S
C1296 C1302 1.379 . S
C1296 N1304 1.356 . S
C1297 C1296 1.363 . S
C1297 C1303 1.363 . S
C1298 C1299 1.363 . S
C1298 C1303 1.379 . S
C1298 N1305 1.356 . S
C1299 C1298 1.363 . S
C1299 C1302 1.363 . S
N1300 C1302 1.356 . S
N1300 H1312 0.984 . S
N1300 H1313 0.985 . S
N1301 C1303 1.356 . S
N1301 H1306 0.984 . S
N1301 H1307 0.985 . S
C1302 C1296 1.379 . S
C1302 C1299 1.363 . S
C1302 N1300 1.356 . S
C1303 C1297 1.363 . S
C1303 C1298 1.379 . S
C1303 N1301 1.356 . S
N1304 C1296 1.356 . S
N1304 H1310 0.984 . S
N1304 H1311 0.984 . S
N1305 C1298 1.356 . S
N1305 H1308 0.984 . S
N1305 H1309 0.985 . S
H1306 N1301 0.984 . S
H1307 N1301 0.985 . S
H1308 N1305 0.984 . S
H1309 N1305 0.985 . S
H1310 N1304 0.984 . S
H1311 N1304 0.984 . S
H1312 N1300 0.984 . S
H1313 N1300 0.985 . S
C1314 C1315 1.363 1_565 S
C1314 C1320 1.379 . S
C1314 N1322 1.356 1_565 S
C1315 C1314 1.363 1_545 S
C1315 C1321 1.363 1_545 S
C1316 C1317 1.363 . S
C1316 C1321 1.379 . S
C1316 N1323 1.356 . S
C1317 C1316 1.363 . S
C1317 C1320 1.363 . S
N1318 C1320 1.356 . S
N1318 H1330 0.984 . S
N1318 H1331 0.985 . S
N1319 C1321 1.356 1_545 S
N1319 H1324 0.984 . S
N1319 H1325 0.985 . S
C1320 C1314 1.379 . S
C1320 C1317 1.363 . S
C1320 N1318 1.356 . S
C1321 C1315 1.363 1_565 S
C1321 C1316 1.379 . S
C1321 N1319 1.356 1_565 S
N1322 C1314 1.356 1_545 S
N1322 H1328 0.984 . S
N1322 H1329 0.984 . S
N1323 C1316 1.356 . S
N1323 H1326 0.984 . S
N1323 H1327 0.985 . S
H1324 N1319 0.984 . S
H1325 N1319 0.985 . S
H1326 N1323 0.984 . S
H1327 N1323 0.985 . S
H1328 N1322 0.984 . S
H1329 N1322 0.984 . S
H1330 N1318 0.984 . S
H1331 N1318 0.985 . S
C1332 C1333 1.363 . S
C1332 C1338 1.379 . S
C1332 N1340 1.356 . S
C1333 C1332 1.363 . S
C1333 C1339 1.363 . S
C1334 C1335 1.363 . S
C1334 C1339 1.379 . S
C1334 N1341 1.356 . S
C1335 C1334 1.363 . S
C1335 C1338 1.363 . S
N1336 C1338 1.356 . S
N1336 H1348 0.984 . S
N1336 H1349 0.985 . S
N1337 C1339 1.356 . S
N1337 H1342 0.984 . S
N1337 H1343 0.985 . S
C1338 C1332 1.379 . S
C1338 C1335 1.363 . S
C1338 N1336 1.356 . S
C1339 C1333 1.363 . S
C1339 C1334 1.379 . S
C1339 N1337 1.356 . S
N1340 C1332 1.356 . S
N1340 H1346 0.984 . S
N1340 H1347 0.984 . S
N1341 C1334 1.356 . S
N1341 H1344 0.984 . S
N1341 H1345 0.985 . S
H1342 N1337 0.984 . S
H1343 N1337 0.985 . S
H1344 N1341 0.984 . S
H1345 N1341 0.985 . S
H1346 N1340 0.984 . S
H1347 N1340 0.984 . S
H1348 N1336 0.984 . S
H1349 N1336 0.985 . S
C1350 C1351 1.363 . S
C1350 C1356 1.379 . S
C1350 N1358 1.356 . S
C1351 C1350 1.363 . S
C1351 C1357 1.363 . S
C1352 C1353 1.363 . S
C1352 C1357 1.379 . S
C1352 N1359 1.356 . S
C1353 C1352 1.363 . S
C1353 C1356 1.363 . S
N1354 C1356 1.356 . S
N1354 H1366 0.984 . S
N1354 H1367 0.985 . S
N1355 C1357 1.356 . S
N1355 H1360 0.984 . S
N1355 H1361 0.985 . S
C1356 C1350 1.379 . S
C1356 C1353 1.363 . S
C1356 N1354 1.356 . S
C1357 C1351 1.363 . S
C1357 C1352 1.379 . S
C1357 N1355 1.356 . S
N1358 C1350 1.356 . S
N1358 H1364 0.984 . S
N1358 H1365 0.984 . S
N1359 C1352 1.356 . S
N1359 H1362 0.984 . S
N1359 H1363 0.985 . S
H1360 N1355 0.984 . S
H1361 N1355 0.985 . S
H1362 N1359 0.984 . S
H1363 N1359 0.985 . S
H1364 N1358 0.984 . S
H1365 N1358 0.984 . S
H1366 N1354 0.984 . S
H1367 N1354 0.985 . S
C1368 C1369 1.363 . S
C1368 C1374 1.379 . S
C1368 N1376 1.356 . S
C1369 C1368 1.363 . S
C1369 C1375 1.363 . S
C1370 C1371 1.363 . S
C1370 C1375 1.379 . S
C1370 N1377 1.356 . S
C1371 C1370 1.363 . S
C1371 C1374 1.363 . S
N1372 C1374 1.356 . S
N1372 H1384 0.984 . S
N1372 H1385 0.985 . S
N1373 C1375 1.356 . S
N1373 H1378 0.984 . S
N1373 H1379 0.985 . S
C1374 C1368 1.379 . S
C1374 C1371 1.363 . S
C1374 N1372 1.356 . S
C1375 C1369 1.363 . S
C1375 C1370 1.379 . S
C1375 N1373 1.356 . S
N1376 C1368 1.356 . S
N1376 H1382 0.984 . S
N1376 H1383 0.984 . S
N1377 C1370 1.356 . S
N1377 H1380 0.984 . S
N1377 H1381 0.985 . S
H1378 N1373 0.984 . S
H1379 N1373 0.985 . S
H1380 N1377 0.984 . S
H1381 N1377 0.985 . S
H1382 N1376 0.984 . S
H1383 N1376 0.984 . S
H1384 N1372 0.984 . S
H1385 N1372 0.985 . S
C1386 C1387 1.363 . S
C1386 C1392 1.379 . S
C1386 N1394 1.356 . S
C1387 C1386 1.363 . S
C1387 C1393 1.363 . S
C1388 C1389 1.363 . S
C1388 C1393 1.379 . S
C1388 N1395 1.356 . S
C1389 C1388 1.363 . S
C1389 C1392 1.363 . S
N1390 C1392 1.356 . S
N1390 H1402 0.984 . S
N1390 H1403 0.985 . S
N1391 C1393 1.356 . S
N1391 H1396 0.984 . S
N1391 H1397 0.985 . S
C1392 C1386 1.379 . S
C1392 C1389 1.363 . S
C1392 N1390 1.356 . S
C1393 C1387 1.363 . S
C1393 C1388 1.379 . S
C1393 N1391 1.356 . S
N1394 C1386 1.356 . S
N1394 H1400 0.984 . S
N1394 H1401 0.984 . S
N1395 C1388 1.356 . S
N1395 H1398 0.984 . S
N1395 H1399 0.985 . S
H1396 N1391 0.984 . S
H1397 N1391 0.985 . S
H1398 N1395 0.984 . S
H1399 N1395 0.985 . S
H1400 N1394 0.984 . S
H1401 N1394 0.984 . S
H1402 N1390 0.984 . S
H1403 N1390 0.985 . S
C1404 C1405 1.363 . S
C1404 C1410 1.379 . S
C1404 N1412 1.356 . S
C1405 C1404 1.363 . S
C1405 C1411 1.363 . S
C1406 C1407 1.363 . S
C1406 C1411 1.379 . S
C1406 N1413 1.356 . S
C1407 C1406 1.363 . S
C1407 C1410 1.363 . S
N1408 C1410 1.356 . S
N1408 H1420 0.984 . S
N1408 H1421 0.985 . S
N1409 C1411 1.356 . S
N1409 H1414 0.984 . S
N1409 H1415 0.985 . S
C1410 C1404 1.379 . S
C1410 C1407 1.363 . S
C1410 N1408 1.356 . S
C1411 C1405 1.363 . S
C1411 C1406 1.379 . S
C1411 N1409 1.356 . S
N1412 C1404 1.356 . S
N1412 H1418 0.984 . S
N1412 H1419 0.984 . S
N1413 C1406 1.356 . S
N1413 H1416 0.984 . S
N1413 H1417 0.985 . S
H1414 N1409 0.984 . S
H1415 N1409 0.985 . S
H1416 N1413 0.984 . S
H1417 N1413 0.985 . S
H1418 N1412 0.984 . S
H1419 N1412 0.984 . S
H1420 N1408 0.984 . S
H1421 N1408 0.985 . S
C1422 C1423 1.363 . S
C1422 C1428 1.379 . S
C1422 N1430 1.356 . S
C1423 C1422 1.363 . S
C1423 C1429 1.363 . S
C1424 C1425 1.363 . S
C1424 C1429 1.379 . S
C1424 N1431 1.356 . S
C1425 C1424 1.363 . S
C1425 C1428 1.363 . S
N1426 C1428 1.356 . S
N1426 H1438 0.984 . S
N1426 H1439 0.985 . S
N1427 C1429 1.356 . S
N1427 H1432 0.984 . S
N1427 H1433 0.985 . S
C1428 C1422 1.379 . S
C1428 C1425 1.363 . S
C1428 N1426 1.356 . S
C1429 C1423 1.363 . S
C1429 C1424 1.379 . S
C1429 N1427 1.356 . S
N1430 C1422 1.356 . S
N1430 H1436 0.984 . S
N1430 H1437 0.984 . S
N1431 C1424 1.356 . S
N1431 H1434 0.984 . S
N1431 H1435 0.985 . S
H1432 N1427 0.984 . S
H1433 N1427 0.985 . S
H1434 N1431 0.984 . S
H1435 N1431 0.985 . S
H1436 N1430 0.984 . S
H1437 N1430 0.984 . S
H1438 N1426 0.984 . S
H1439 N1426 0.985 . S
C1440 C1441 1.363 . S
C1440 C1446 1.379 . S
C1440 N1448 1.356 1_565 S
C1441 C1440 1.363 . S
C1441 C1447 1.363 . S
C1442 C1443 1.363 . S
C1442 C1447 1.379 . S
C1442 N1449 1.356 . S
C1443 C1442 1.363 . S
C1443 C1446 1.363 . S
N1444 C1446 1.356 . S
N1444 H1456 0.984 . S
N1444 H1457 0.985 . S
N1445 C1447 1.356 1_545 S
N1445 H1450 0.984 . S
N1445 H1451 0.985 . S
C1446 C1440 1.379 . S
C1446 C1443 1.363 . S
C1446 N1444 1.356 . S
C1447 C1441 1.363 . S
C1447 C1442 1.379 . S
C1447 N1445 1.356 1_565 S
N1448 C1440 1.356 1_545 S
N1448 H1454 0.984 1_545 S
N1448 H1455 0.984 . S
N1449 C1442 1.356 . S
N1449 H1452 0.984 . S
N1449 H1453 0.985 . S
H1450 N1445 0.984 . S
H1451 N1445 0.985 . S
H1452 N1449 0.984 . S
H1453 N1449 0.985 . S
H1454 N1448 0.984 1_565 S
H1455 N1448 0.984 . S
H1456 N1444 0.984 . S
H1457 N1444 0.985 . S
C1458 C1459 1.363 . S
C1458 C1464 1.379 . S
C1458 N1466 1.356 . S
C1459 C1458 1.363 . S
C1459 C1465 1.363 . S
C1460 C1461 1.363 . S
C1460 C1465 1.379 . S
C1460 N1467 1.356 . S
C1461 C1460 1.363 . S
C1461 C1464 1.363 . S
N1462 C1464 1.356 . S
N1462 H1474 0.984 . S
N1462 H1475 0.985 . S
N1463 C1465 1.356 . S
N1463 H1468 0.984 1_455 S
N1463 H1469 0.985 . S
C1464 C1458 1.379 . S
C1464 C1461 1.363 . S
C1464 N1462 1.356 . S
C1465 C1459 1.363 . S
C1465 C1460 1.379 . S
C1465 N1463 1.356 . S
N1466 C1458 1.356 . S
N1466 H1472 0.984 . S
N1466 H1473 0.984 1_455 S
N1467 C1460 1.356 . S
N1467 H1470 0.984 . S
N1467 H1471 0.985 . S
H1468 N1463 0.984 1_655 S
H1469 N1463 0.985 . S
H1470 N1467 0.984 . S
H1471 N1467 0.985 . S
H1472 N1466 0.984 . S
H1473 N1466 0.984 1_655 S
H1474 N1462 0.984 . S
H1475 N1462 0.985 . S
C1476 C1477 1.363 . S
C1476 C1482 1.379 . S
C1476 N1484 1.356 . S
C1477 C1476 1.363 . S
C1477 C1483 1.363 . S
C1478 C1479 1.363 . S
C1478 C1483 1.379 . S
C1478 N1485 1.356 . S
C1479 C1478 1.363 . S
C1479 C1482 1.363 . S
N1480 C1482 1.356 . S
N1480 H1492 0.984 . S
N1480 H1493 0.985 . S
N1481 C1483 1.356 . S
N1481 H1486 0.984 . S
N1481 H1487 0.985 . S
C1482 C1476 1.379 . S
C1482 C1479 1.363 . S
C1482 N1480 1.356 . S
C1483 C1477 1.363 . S
C1483 C1478 1.379 . S
C1483 N1481 1.356 . S
N1484 C1476 1.356 . S
N1484 H1490 0.984 . S
N1484 H1491 0.984 . S
N1485 C1478 1.356 . S
N1485 H1488 0.984 . S
N1485 H1489 0.985 . S
H1486 N1481 0.984 . S
H1487 N1481 0.985 . S
H1488 N1485 0.984 . S
H1489 N1485 0.985 . S
H1490 N1484 0.984 . S
H1491 N1484 0.984 . S
H1492 N1480 0.984 . S
H1493 N1480 0.985 . S
C1494 C1495 1.363 . S
C1494 C1500 1.379 . S
C1494 N1502 1.356 . S
C1495 C1494 1.363 . S
C1495 C1501 1.363 . S
C1496 C1497 1.363 . S
C1496 C1501 1.379 . S
C1496 N1503 1.356 . S
C1497 C1496 1.363 . S
C1497 C1500 1.363 . S
N1498 C1500 1.356 . S
N1498 H1510 0.984 . S
N1498 H1511 0.985 . S
N1499 C1501 1.356 . S
N1499 H1504 0.984 . S
N1499 H1505 0.985 . S
C1500 C1494 1.379 . S
C1500 C1497 1.363 . S
C1500 N1498 1.356 . S
C1501 C1495 1.363 . S
C1501 C1496 1.379 . S
C1501 N1499 1.356 . S
N1502 C1494 1.356 . S
N1502 H1508 0.984 . S
N1502 H1509 0.984 . S
N1503 C1496 1.356 . S
N1503 H1506 0.984 . S
N1503 H1507 0.985 . S
H1504 N1499 0.984 . S
H1505 N1499 0.985 . S
H1506 N1503 0.984 . S
H1507 N1503 0.985 . S
H1508 N1502 0.984 . S
H1509 N1502 0.984 . S
H1510 N1498 0.984 . S
H1511 N1498 0.985 . S
C1512 C1513 1.363 . S
C1512 C1518 1.379 . S
C1512 N1520 1.356 . S
C1513 C1512 1.363 . S
C1513 C1519 1.363 . S
C1514 C1515 1.363 . S
C1514 C1519 1.379 . S
C1514 N1521 1.356 . S
C1515 C1514 1.363 . S
C1515 C1518 1.363 . S
N1516 C1518 1.356 . S
N1516 H1528 0.984 . S
N1516 H1529 0.985 . S
N1517 C1519 1.356 . S
N1517 H1522 0.984 . S
N1517 H1523 0.985 . S
C1518 C1512 1.379 . S
C1518 C1515 1.363 . S
C1518 N1516 1.356 . S
C1519 C1513 1.363 . S
C1519 C1514 1.379 . S
C1519 N1517 1.356 . S
N1520 C1512 1.356 . S
N1520 H1526 0.984 . S
N1520 H1527 0.984 . S
N1521 C1514 1.356 . S
N1521 H1524 0.984 . S
N1521 H1525 0.985 . S
H1522 N1517 0.984 . S
H1523 N1517 0.985 . S
H1524 N1521 0.984 . S
H1525 N1521 0.985 . S
H1526 N1520 0.984 . S
H1527 N1520 0.984 . S
H1528 N1516 0.984 . S
H1529 N1516 0.985 . S
C1530 C1531 1.363 . S
C1530 C1536 1.379 . S
C1530 N1538 1.356 . S
C1531 C1530 1.363 . S
C1531 C1537 1.363 . S
C1532 C1533 1.363 . S
C1532 C1537 1.379 . S
C1532 N1539 1.356 . S
C1533 C1532 1.363 . S
C1533 C1536 1.363 . S
N1534 C1536 1.356 . S
N1534 H1546 0.984 . S
N1534 H1547 0.985 . S
N1535 C1537 1.356 . S
N1535 H1540 0.984 . S
N1535 H1541 0.985 . S
C1536 C1530 1.379 . S
C1536 C1533 1.363 . S
C1536 N1534 1.356 . S
C1537 C1531 1.363 . S
C1537 C1532 1.379 . S
C1537 N1535 1.356 . S
N1538 C1530 1.356 . S
N1538 H1544 0.984 . S
N1538 H1545 0.984 . S
N1539 C1532 1.356 . S
N1539 H1542 0.984 . S
N1539 H1543 0.985 . S
H1540 N1535 0.984 . S
H1541 N1535 0.985 . S
H1542 N1539 0.984 . S
H1543 N1539 0.985 . S
H1544 N1538 0.984 . S
H1545 N1538 0.984 . S
H1546 N1534 0.984 . S
H1547 N1534 0.985 . S
C1548 C1549 1.363 . S
C1548 C1554 1.379 . S
C1548 N1556 1.356 1_545 S
C1549 C1548 1.363 . S
C1549 C1555 1.363 . S
C1550 C1551 1.363 . S
C1550 C1555 1.379 . S
C1550 N1557 1.356 . S
C1551 C1550 1.363 . S
C1551 C1554 1.363 . S
N1552 C1554 1.356 . S
N1552 H1564 0.984 . S
N1552 H1565 0.985 . S
N1553 C1555 1.362 . S
N1553 H1558 0.978 1_545 S
N1553 H1559 0.985 . S
C1554 C1548 1.379 . S
C1554 C1551 1.363 . S
C1554 N1552 1.356 . S
C1555 C1549 1.363 . S
C1555 C1550 1.379 . S
C1555 N1553 1.362 . S
N1556 C1548 1.356 1_565 S
N1556 H1562 0.984 . S
N1556 H1563 0.984 . S
N1557 C1550 1.356 . S
N1557 H1560 0.984 . S
N1557 H1561 0.985 . S
H1558 N1553 0.978 1_565 S
H1559 N1553 0.985 . S
H1560 N1557 0.984 . S
H1561 N1557 0.985 . S
H1562 N1556 0.984 . S
H1563 N1556 0.984 . S
H1564 N1552 0.984 . S
H1565 N1552 0.985 . S
C1566 C1567 1.363 . S
C1566 C1572 1.379 . S
C1566 N1574 1.356 1_655 S
C1567 C1566 1.363 . S
C1567 C1573 1.363 . S
C1568 C1569 1.363 . S
C1568 C1573 1.379 . S
C1568 N1575 1.356 . S
C1569 C1568 1.363 . S
C1569 C1572 1.363 . S
N1570 C1572 1.356 . S
N1570 H1582 0.984 . S
N1570 H1583 0.985 . S
N1571 C1573 1.356 . S
N1571 H1576 0.984 . S
N1571 H1577 0.985 . S
C1572 C1566 1.379 . S
C1572 C1569 1.363 . S
C1572 N1570 1.356 . S
C1573 C1567 1.363 . S
C1573 C1568 1.379 . S
C1573 N1571 1.356 . S
N1574 C1566 1.356 1_455 S
N1574 H1580 0.984 . S
N1574 H1581 0.984 . S
N1575 C1568 1.356 . S
N1575 H1578 0.984 . S
N1575 H1579 0.985 . S
H1576 N1571 0.984 . S
H1577 N1571 0.985 . S
H1578 N1575 0.984 . S
H1579 N1575 0.985 . S
H1580 N1574 0.984 . S
H1581 N1574 0.984 . S
H1582 N1570 0.984 . S
H1583 N1570 0.985 . S
C1584 C1585 1.363 . S
C1584 C1590 1.379 . S
C1584 N1592 1.356 . S
C1585 C1584 1.363 . S
C1585 C1591 1.363 . S
C1586 C1587 1.363 . S
C1586 C1591 1.379 . S
C1586 N1593 1.356 . S
C1587 C1586 1.363 . S
C1587 C1590 1.363 . S
N1588 C1590 1.356 . S
N1588 H1600 0.984 . S
N1588 H1601 0.985 . S
N1589 C1591 1.356 . S
N1589 H1594 0.984 . S
N1589 H1595 0.985 . S
C1590 C1584 1.379 . S
C1590 C1587 1.363 . S
C1590 N1588 1.356 . S
C1591 C1585 1.363 . S
C1591 C1586 1.379 . S
C1591 N1589 1.356 . S
N1592 C1584 1.356 . S
N1592 H1598 0.984 . S
N1592 H1599 0.984 . S
N1593 C1586 1.356 . S
N1593 H1596 0.984 . S
N1593 H1597 0.985 . S
H1594 N1589 0.984 . S
H1595 N1589 0.985 . S
H1596 N1593 0.984 . S
H1597 N1593 0.985 . S
H1598 N1592 0.984 . S
H1599 N1592 0.984 . S
H1600 N1588 0.984 . S
H1601 N1588 0.985 . S
C1602 C1603 1.363 . S
C1602 C1608 1.379 . S
C1602 N1610 1.356 . S
C1603 C1602 1.363 . S
C1603 C1609 1.363 . S
C1604 C1605 1.363 . S
C1604 C1609 1.379 . S
C1604 N1611 1.356 . S
C1605 C1604 1.363 . S
C1605 C1608 1.363 . S
N1606 C1608 1.356 . S
N1606 H1618 0.984 . S
N1606 H1619 0.985 . S
N1607 C1609 1.356 1_455 S
N1607 H1612 0.984 . S
N1607 H1613 0.985 . S
C1608 C1602 1.379 . S
C1608 C1605 1.363 . S
C1608 N1606 1.356 . S
C1609 C1603 1.363 . S
C1609 C1604 1.379 . S
C1609 N1607 1.356 1_655 S
N1610 C1602 1.356 . S
N1610 H1616 0.984 . S
N1610 H1617 0.984 1_655 S
N1611 C1604 1.356 . S
N1611 H1614 0.984 . S
N1611 H1615 0.985 . S
H1612 N1607 0.984 . S
H1613 N1607 0.985 . S
H1614 N1611 0.984 . S
H1615 N1611 0.985 . S
H1616 N1610 0.984 . S
H1617 N1610 0.984 1_455 S
H1618 N1606 0.984 . S
H1619 N1606 0.985 . S
C1620 C1621 1.363 . S
C1620 C1626 1.379 . S
C1620 N1628 1.356 . S
C1621 C1620 1.363 . S
C1621 C1627 1.363 . S
C1622 C1623 1.363 . S
C1622 C1627 1.379 . S
C1622 N1629 1.356 . S
C1623 C1622 1.363 . S
C1623 C1626 1.363 . S
N1624 C1626 1.356 . S
N1624 H1636 0.984 . S
N1624 H1637 0.985 . S
N1625 C1627 1.356 . S
N1625 H1630 0.984 . S
N1625 H1631 0.985 . S
C1626 C1620 1.379 . S
C1626 C1623 1.363 . S
C1626 N1624 1.356 . S
C1627 C1621 1.363 . S
C1627 C1622 1.379 . S
C1627 N1625 1.356 . S
N1628 C1620 1.356 . S
N1628 H1634 0.984 . S
N1628 H1635 0.984 . S
N1629 C1622 1.356 . S
N1629 H1632 0.984 . S
N1629 H1633 0.985 . S
H1630 N1625 0.984 . S
H1631 N1625 0.985 . S
H1632 N1629 0.984 . S
H1633 N1629 0.985 . S
H1634 N1628 0.984 . S
H1635 N1628 0.984 . S
H1636 N1624 0.984 . S
H1637 N1624 0.985 . S
C1638 C1639 1.363 1_545 S
C1638 C1644 1.379 . S
C1638 N1646 1.347 1_545 S
C1639 C1638 1.363 1_565 S
C1639 C1645 1.363 1_565 S
C1640 C1641 1.363 . S
C1640 C1645 1.379 . S
C1640 N1647 1.356 . S
C1641 C1640 1.363 . S
C1641 C1644 1.363 . S
N1642 C1644 1.356 . S
N1642 H1654 0.984 . S
N1642 H1655 0.985 . S
N1643 C1645 1.356 1_565 S
N1643 H1648 0.984 . S
N1643 H1649 0.985 . S
C1644 C1638 1.379 . S
C1644 C1641 1.363 . S
C1644 N1642 1.356 . S
C1645 C1639 1.363 1_545 S
C1645 C1640 1.379 . S
C1645 N1643 1.356 1_545 S
N1646 C1638 1.347 1_565 S
N1646 H1652 0.972 1_565 S
N1646 H1653 1.007 . S
N1647 C1640 1.356 . S
N1647 H1650 0.984 . S
N1647 H1651 0.985 . S
H1648 N1643 0.984 . S
H1649 N1643 0.985 . S
H1650 N1647 0.984 . S
H1651 N1647 0.985 . S
H1652 N1646 0.972 1_545 S
H1653 N1646 1.007 . S
H1654 N1642 0.984 . S
H1655 N1642 0.985 . S
C1656 C1657 1.363 . S
C1656 C1662 1.379 . S
C1656 N1664 1.356 . S
C1657 C1656 1.363 . S
C1657 C1663 1.363 . S
C1658 C1659 1.363 . S
C1658 C1663 1.379 . S
C1658 N1665 1.356 . S
C1659 C1658 1.363 . S
C1659 C1662 1.363 . S
N1660 C1662 1.356 . S
N1660 H1672 0.984 . S
N1660 H1673 0.985 . S
N1661 C1663 1.356 . S
N1661 H1666 0.984 . S
N1661 H1667 0.985 . S
C1662 C1656 1.379 . S
C1662 C1659 1.363 . S
C1662 N1660 1.356 . S
C1663 C1657 1.363 . S
C1663 C1658 1.379 . S
C1663 N1661 1.356 . S
N1664 C1656 1.356 . S
N1664 H1670 0.984 . S
N1664 H1671 0.984 . S
N1665 C1658 1.356 . S
N1665 H1668 0.984 . S
N1665 H1669 0.985 . S
H1666 N1661 0.984 . S
H1667 N1661 0.985 . S
H1668 N1665 0.984 . S
H1669 N1665 0.985 . S
H1670 N1664 0.984 . S
H1671 N1664 0.984 . S
H1672 N1660 0.984 . S
H1673 N1660 0.985 . S
C1674 C1675 1.363 . S
C1674 C1680 1.379 . S
C1674 N1682 1.356 . S
C1675 C1674 1.363 . S
C1675 C1681 1.363 . S
C1676 C1677 1.363 . S
C1676 C1681 1.379 . S
C1676 N1683 1.356 . S
C1677 C1676 1.363 . S
C1677 C1680 1.363 . S
N1678 C1680 1.356 . S
N1678 H1690 0.984 . S
N1678 H1691 0.985 . S
N1679 C1681 1.356 . S
N1679 H1684 0.984 . S
N1679 H1685 0.985 . S
C1680 C1674 1.379 . S
C1680 C1677 1.363 . S
C1680 N1678 1.356 . S
C1681 C1675 1.363 . S
C1681 C1676 1.379 . S
C1681 N1679 1.356 . S
N1682 C1674 1.356 . S
N1682 H1688 0.984 . S
N1682 H1689 0.984 . S
N1683 C1676 1.356 . S
N1683 H1686 0.984 . S
N1683 H1687 0.985 . S
H1684 N1679 0.984 . S
H1685 N1679 0.985 . S
H1686 N1683 0.984 . S
H1687 N1683 0.985 . S
H1688 N1682 0.984 . S
H1689 N1682 0.984 . S
H1690 N1678 0.984 . S
H1691 N1678 0.985 . S
C1692 C1693 1.363 . S
C1692 C1698 1.379 . S
C1692 N1700 1.356 . S
C1693 C1692 1.363 . S
C1693 C1699 1.363 . S
C1694 C1695 1.363 . S
C1694 C1699 1.379 . S
C1694 N1701 1.356 . S
C1695 C1694 1.363 . S
C1695 C1698 1.363 . S
N1696 C1698 1.356 . S
N1696 H1708 0.984 . S
N1696 H1709 0.985 . S
N1697 C1699 1.356 . S
N1697 H1702 0.984 . S
N1697 H1703 0.985 . S
C1698 C1692 1.379 . S
C1698 C1695 1.363 . S
C1698 N1696 1.356 . S
C1699 C1693 1.363 . S
C1699 C1694 1.379 . S
C1699 N1697 1.356 . S
N1700 C1692 1.356 . S
N1700 H1706 0.984 . S
N1700 H1707 0.984 . S
N1701 C1694 1.356 . S
N1701 H1704 0.984 . S
N1701 H1705 0.985 . S
H1702 N1697 0.984 . S
H1703 N1697 0.985 . S
H1704 N1701 0.984 . S
H1705 N1701 0.985 . S
H1706 N1700 0.984 . S
H1707 N1700 0.984 . S
H1708 N1696 0.984 . S
H1709 N1696 0.985 . S
C1710 C1711 1.363 . S
C1710 C1716 1.379 . S
C1710 N1718 1.356 . S
C1711 C1710 1.363 . S
C1711 C1717 1.363 1_565 S
C1712 C1713 1.363 1_545 S
C1712 C1717 1.379 . S
C1712 N1719 1.356 . S
C1713 C1712 1.363 1_565 S
C1713 C1716 1.363 . S
N1714 C1716 1.356 . S
N1714 H1726 0.984 . S
N1714 H1727 0.985 . S
N1715 C1717 1.356 . S
N1715 H1720 0.984 . S
N1715 H1721 0.985 . S
C1716 C1710 1.379 . S
C1716 C1713 1.363 . S
C1716 N1714 1.356 . S
C1717 C1711 1.363 1_545 S
C1717 C1712 1.379 . S
C1717 N1715 1.356 . S
N1718 C1710 1.356 . S
N1718 H1724 0.984 . S
N1718 H1725 0.984 . S
N1719 C1712 1.356 . S
N1719 H1722 0.984 . S
N1719 H1723 0.985 . S
H1720 N1715 0.984 . S
H1721 N1715 0.985 . S
H1722 N1719 0.984 . S
H1723 N1719 0.985 . S
H1724 N1718 0.984 . S
H1725 N1718 0.984 . S
H1726 N1714 0.984 . S
H1727 N1714 0.985 . S
C1728 C1729 1.363 . S
C1728 C1734 1.379 . S
C1728 N1736 1.356 . S
C1729 C1728 1.363 . S
C1729 C1735 1.363 . S
C1730 C1731 1.363 . S
C1730 C1735 1.379 . S
C1730 N1737 1.356 . S
C1731 C1730 1.363 . S
C1731 C1734 1.363 . S
N1732 C1734 1.356 . S
N1732 H1744 0.984 . S
N1732 H1745 0.985 . S
N1733 C1735 1.356 1_655 S
N1733 H1738 0.984 . S
N1733 H1739 0.985 . S
C1734 C1728 1.379 . S
C1734 C1731 1.363 . S
C1734 N1732 1.356 . S
C1735 C1729 1.363 . S
C1735 C1730 1.379 . S
C1735 N1733 1.356 1_455 S
N1736 C1728 1.356 . S
N1736 H1742 0.984 . S
N1736 H1743 0.984 . S
N1737 C1730 1.356 . S
N1737 H1740 0.984 . S
N1737 H1741 0.985 . S
H1738 N1733 0.984 . S
H1739 N1733 0.985 . S
H1740 N1737 0.984 . S
H1741 N1737 0.985 . S
H1742 N1736 0.984 . S
H1743 N1736 0.984 . S
H1744 N1732 0.984 . S
H1745 N1732 0.985 . S
C1746 C1747 1.363 . S
C1746 C1752 1.379 . S
C1746 N1754 1.356 . S
C1747 C1746 1.363 . S
C1747 C1753 1.363 . S
C1748 C1749 1.363 . S
C1748 C1753 1.379 . S
C1748 N1755 1.356 . S
C1749 C1748 1.363 . S
C1749 C1752 1.363 . S
N1750 C1752 1.356 . S
N1750 H1762 0.984 . S
N1750 H1763 0.985 . S
N1751 C1753 1.356 . S
N1751 H1756 0.984 . S
N1751 H1757 0.985 . S
C1752 C1746 1.379 . S
C1752 C1749 1.363 . S
C1752 N1750 1.356 . S
C1753 C1747 1.363 . S
C1753 C1748 1.379 . S
C1753 N1751 1.356 . S
N1754 C1746 1.356 . S
N1754 H1760 0.984 . S
N1754 H1761 0.984 . S
N1755 C1748 1.356 . S
N1755 H1758 0.984 . S
N1755 H1759 0.985 . S
H1756 N1751 0.984 . S
H1757 N1751 0.985 . S
H1758 N1755 0.984 . S
H1759 N1755 0.985 . S
H1760 N1754 0.984 . S
H1761 N1754 0.984 . S
H1762 N1750 0.984 . S
H1763 N1750 0.985 . S
C1764 C1765 1.363 . S
C1764 C1770 1.379 . S
C1764 N1772 1.356 . S
C1765 C1764 1.363 . S
C1765 C1771 1.363 1_655 S
C1766 C1767 1.363 1_455 S
C1766 C1771 1.379 . S
C1766 N1773 1.356 . S
C1767 C1766 1.363 1_655 S
C1767 C1770 1.363 . S
N1768 C1770 1.356 . S
N1768 H1780 0.984 . S
N1768 H1781 0.985 . S
N1769 C1771 1.356 . S
N1769 H1774 0.984 . S
N1769 H1775 0.985 . S
C1770 C1764 1.379 . S
C1770 C1767 1.363 . S
C1770 N1768 1.356 . S
C1771 C1765 1.363 1_455 S
C1771 C1766 1.379 . S
C1771 N1769 1.356 . S
N1772 C1764 1.356 . S
N1772 H1778 0.984 . S
N1772 H1779 0.984 . S
N1773 C1766 1.356 . S
N1773 H1776 0.984 . S
N1773 H1777 0.985 . S
H1774 N1769 0.984 . S
H1775 N1769 0.985 . S
H1776 N1773 0.984 . S
H1777 N1773 0.985 . S
H1778 N1772 0.984 . S
H1779 N1772 0.984 . S
H1780 N1768 0.984 . S
H1781 N1768 0.985 . S
C1782 C1783 1.363 . S
C1782 C1788 1.379 . S
C1782 N1790 1.356 . S
C1783 C1782 1.363 . S
C1783 C1789 1.363 . S
C1784 C1785 1.363 . S
C1784 C1789 1.379 . S
C1784 N1791 1.356 . S
C1785 C1784 1.363 . S
C1785 C1788 1.363 . S
N1786 C1788 1.356 . S
N1786 H1798 0.984 . S
N1786 H1799 0.985 . S
N1787 C1789 1.356 . S
N1787 H1792 0.984 . S
N1787 H1793 0.985 . S
C1788 C1782 1.379 . S
C1788 C1785 1.363 . S
C1788 N1786 1.356 . S
C1789 C1783 1.363 . S
C1789 C1784 1.379 . S
C1789 N1787 1.356 . S
N1790 C1782 1.356 . S
N1790 H1796 0.984 . S
N1790 H1797 0.984 . S
N1791 C1784 1.356 . S
N1791 H1794 0.984 . S
N1791 H1795 0.985 . S
H1792 N1787 0.984 . S
H1793 N1787 0.985 . S
H1794 N1791 0.984 . S
H1795 N1791 0.985 . S
H1796 N1790 0.984 . S
H1797 N1790 0.984 . S
H1798 N1786 0.984 . S
H1799 N1786 0.985 . S
C1800 C1801 1.346 1_565 S
C1800 C1806 1.391 . S
C1800 N1808 1.357 . S
C1801 C1800 1.346 1_545 S
C1801 C1807 1.363 . S
C1802 C1803 1.363 . S
C1802 C1807 1.379 . S
C1802 N1809 1.356 . S
C1803 C1802 1.363 . S
C1803 C1806 1.363 1_545 S
N1804 C1806 1.356 . S
N1804 H1816 0.984 . S
N1804 H1817 0.985 . S
N1805 C1807 1.356 . S
N1805 H1810 0.984 . S
N1805 H1811 0.985 . S
C1806 C1800 1.391 . S
C1806 C1803 1.363 1_565 S
C1806 N1804 1.356 . S
C1807 C1801 1.363 . S
C1807 C1802 1.379 . S
C1807 N1805 1.356 . S
N1808 C1800 1.357 . S
N1808 H1814 0.984 . S
N1808 H1815 0.984 . S
N1809 C1802 1.356 . S
N1809 H1812 0.984 . S
N1809 H1813 0.985 . S
H1810 N1805 0.984 . S
H1811 N1805 0.985 . S
H1812 N1809 0.984 . S
H1813 N1809 0.985 . S
H1814 N1808 0.984 . S
H1815 N1808 0.984 . S
H1816 N1804 0.984 . S
H1817 N1804 0.985 . S
C1818 C1819 1.363 . S
C1818 C1824 1.379 . S
C1818 N1826 1.356 . S
C1819 C1818 1.363 . S
C1819 C1825 1.363 . S
C1820 C1821 1.363 . S
C1820 C1825 1.379 . S
C1820 N1827 1.356 . S
C1821 C1820 1.363 . S
C1821 C1824 1.363 . S
N1822 C1824 1.356 . S
N1822 H1834 0.984 . S
N1822 H1835 0.985 . S
N1823 C1825 1.356 . S
N1823 H1828 0.984 . S
N1823 H1829 0.985 . S
C1824 C1818 1.379 . S
C1824 C1821 1.363 . S
C1824 N1822 1.356 . S
C1825 C1819 1.363 . S
C1825 C1820 1.379 . S
C1825 N1823 1.356 . S
N1826 C1818 1.356 . S
N1826 H1832 0.984 . S
N1826 H1833 0.984 . S
N1827 C1820 1.356 . S
N1827 H1830 0.984 . S
N1827 H1831 0.985 . S
H1828 N1823 0.984 . S
H1829 N1823 0.985 . S
H1830 N1827 0.984 . S
H1831 N1827 0.985 . S
H1832 N1826 0.984 . S
H1833 N1826 0.984 . S
H1834 N1822 0.984 . S
H1835 N1822 0.985 . S
C1836 C1837 1.363 . S
C1836 C1842 1.379 . S
C1836 N1844 1.356 . S
C1837 C1836 1.363 . S
C1837 C1843 1.363 . S
C1838 C1839 1.363 . S
C1838 C1843 1.379 . S
C1838 N1845 1.356 . S
C1839 C1838 1.363 . S
C1839 C1842 1.363 . S
N1840 C1842 1.356 . S
N1840 H1852 0.984 . S
N1840 H1853 0.985 . S
N1841 C1843 1.356 . S
N1841 H1846 0.984 . S
N1841 H1847 0.985 . S
C1842 C1836 1.379 . S
C1842 C1839 1.363 . S
C1842 N1840 1.356 . S
C1843 C1837 1.363 . S
C1843 C1838 1.379 . S
C1843 N1841 1.356 . S
N1844 C1836 1.356 . S
N1844 H1850 0.984 . S
N1844 H1851 0.984 . S
N1845 C1838 1.356 . S
N1845 H1848 0.984 . S
N1845 H1849 0.985 . S
H1846 N1841 0.984 . S
H1847 N1841 0.985 . S
H1848 N1845 0.984 . S
H1849 N1845 0.985 . S
H1850 N1844 0.984 . S
H1851 N1844 0.984 . S
H1852 N1840 0.984 . S
H1853 N1840 0.985 . S
C1854 C1855 1.363 . S
C1854 C1860 1.379 . S
C1854 N1862 1.356 . S
C1855 C1854 1.363 . S
C1855 C1861 1.363 . S
C1856 C1857 1.363 . S
C1856 C1861 1.379 . S
C1856 N1863 1.356 . S
C1857 C1856 1.363 . S
C1857 C1860 1.363 . S
N1858 C1860 1.356 . S
N1858 H1870 0.984 . S
N1858 H1871 0.985 . S
N1859 C1861 1.356 . S
N1859 H1864 0.984 . S
N1859 H1865 0.985 . S
C1860 C1854 1.379 . S
C1860 C1857 1.363 . S
C1860 N1858 1.356 . S
C1861 C1855 1.363 . S
C1861 C1856 1.379 . S
C1861 N1859 1.356 . S
N1862 C1854 1.356 . S
N1862 H1868 0.984 . S
N1862 H1869 0.984 . S
N1863 C1856 1.356 . S
N1863 H1866 0.984 . S
N1863 H1867 0.985 . S
H1864 N1859 0.984 . S
H1865 N1859 0.985 . S
H1866 N1863 0.984 . S
H1867 N1863 0.985 . S
H1868 N1862 0.984 . S
H1869 N1862 0.984 . S
H1870 N1858 0.984 . S
H1871 N1858 0.985 . S
C1872 C1873 1.363 . S
C1872 C1878 1.379 . S
C1872 N1880 1.356 . S
C1873 C1872 1.363 . S
C1873 C1879 1.363 . S
C1874 C1875 1.363 . S
C1874 C1879 1.379 . S
C1874 N1881 1.356 . S
C1875 C1874 1.363 . S
C1875 C1878 1.363 . S
N1876 C1878 1.356 . S
N1876 H1888 0.984 . S
N1876 H1889 0.985 . S
N1877 C1879 1.356 . S
N1877 H1882 0.984 . S
N1877 H1883 0.985 . S
C1878 C1872 1.379 . S
C1878 C1875 1.363 . S
C1878 N1876 1.356 . S
C1879 C1873 1.363 . S
C1879 C1874 1.379 . S
C1879 N1877 1.356 . S
N1880 C1872 1.356 . S
N1880 H1886 0.984 . S
N1880 H1887 0.984 . S
N1881 C1874 1.356 . S
N1881 H1884 0.984 . S
N1881 H1885 0.985 . S
H1882 N1877 0.984 . S
H1883 N1877 0.985 . S
H1884 N1881 0.984 . S
H1885 N1881 0.985 . S
H1886 N1880 0.984 . S
H1887 N1880 0.984 . S
H1888 N1876 0.984 . S
H1889 N1876 0.985 . S
C1890 C1891 1.363 . S
C1890 C1896 1.379 . S
C1890 N1898 1.356 . S
C1891 C1890 1.363 . S
C1891 C1897 1.363 . S
C1892 C1893 1.363 . S
C1892 C1897 1.379 . S
C1892 N1899 1.356 . S
C1893 C1892 1.363 . S
C1893 C1896 1.363 . S
N1894 C1896 1.356 . S
N1894 H1906 0.984 . S
N1894 H1907 0.985 . S
N1895 C1897 1.356 . S
N1895 H1900 0.984 . S
N1895 H1901 0.985 . S
C1896 C1890 1.379 . S
C1896 C1893 1.363 . S
C1896 N1894 1.356 . S
C1897 C1891 1.363 . S
C1897 C1892 1.379 . S
C1897 N1895 1.356 . S
N1898 C1890 1.356 . S
N1898 H1904 0.984 . S
N1898 H1905 0.984 . S
N1899 C1892 1.356 . S
N1899 H1902 0.984 . S
N1899 H1903 0.985 . S
H1900 N1895 0.984 . S
H1901 N1895 0.985 . S
H1902 N1899 0.984 . S
H1903 N1899 0.985 . S
H1904 N1898 0.984 . S
H1905 N1898 0.984 . S
H1906 N1894 0.984 . S
H1907 N1894 0.985 . S
C1908 C1909 1.363 . S
C1908 C1914 1.379 . S
C1908 N1916 1.356 . S
C1909 C1908 1.363 . S
C1909 C1915 1.363 . S
C1910 C1911 1.363 . S
C1910 C1915 1.379 . S
C1910 N1917 1.356 . S
C1911 C1910 1.363 . S
C1911 C1914 1.363 . S
N1912 C1914 1.356 . S
N1912 H1924 0.984 . S
N1912 H1925 0.985 . S
N1913 C1915 1.356 . S
N1913 H1918 0.984 . S
N1913 H1919 0.985 . S
C1914 C1908 1.379 . S
C1914 C1911 1.363 . S
C1914 N1912 1.356 . S
C1915 C1909 1.363 . S
C1915 C1910 1.379 . S
C1915 N1913 1.356 . S
N1916 C1908 1.356 . S
N1916 H1922 0.984 . S
N1916 H1923 0.984 . S
N1917 C1910 1.356 . S
N1917 H1920 0.984 . S
N1917 H1921 0.985 . S
H1918 N1913 0.984 . S
H1919 N1913 0.985 . S
H1920 N1917 0.984 . S
H1921 N1917 0.985 . S
H1922 N1916 0.984 . S
H1923 N1916 0.984 . S
H1924 N1912 0.984 . S
H1925 N1912 0.985 . S
C1926 C1927 1.363 . S
C1926 C1932 1.379 . S
C1926 N1934 1.356 . S
C1927 C1926 1.363 . S
C1927 C1933 1.363 . S
C1928 C1929 1.363 . S
C1928 C1933 1.379 . S
C1928 N1935 1.356 . S
C1929 C1928 1.363 . S
C1929 C1932 1.363 . S
N1930 C1932 1.356 . S
N1930 H1942 0.984 . S
N1930 H1943 0.985 . S
N1931 C1933 1.356 . S
N1931 H1936 0.984 . S
N1931 H1937 0.985 . S
C1932 C1926 1.379 . S
C1932 C1929 1.363 . S
C1932 N1930 1.356 . S
C1933 C1927 1.363 . S
C1933 C1928 1.379 . S
C1933 N1931 1.356 . S
N1934 C1926 1.356 . S
N1934 H1940 0.984 . S
N1934 H1941 0.984 . S
N1935 C1928 1.356 . S
N1935 H1938 0.984 . S
N1935 H1939 0.985 . S
H1936 N1931 0.984 . S
H1937 N1931 0.985 . S
H1938 N1935 0.984 . S
H1939 N1935 0.985 . S
H1940 N1934 0.984 . S
H1941 N1934 0.984 . S
H1942 N1930 0.984 . S
H1943 N1930 0.985 . S
C1944 C1945 1.363 . S
C1944 C1950 1.379 . S
C1944 N1952 1.356 . S
C1945 C1944 1.363 . S
C1945 C1951 1.363 . S
C1946 C1947 1.363 . S
C1946 C1951 1.379 . S
C1946 N1953 1.356 . S
C1947 C1946 1.363 . S
C1947 C1950 1.363 . S
N1948 C1950 1.356 . S
N1948 H1960 0.984 . S
N1948 H1961 0.985 . S
N1949 C1951 1.356 . S
N1949 H1954 0.984 . S
N1949 H1955 0.985 . S
C1950 C1944 1.379 . S
C1950 C1947 1.363 . S
C1950 N1948 1.356 . S
C1951 C1945 1.363 . S
C1951 C1946 1.379 . S
C1951 N1949 1.356 . S
N1952 C1944 1.356 . S
N1952 H1958 0.984 . S
N1952 H1959 0.984 . S
N1953 C1946 1.356 . S
N1953 H1956 0.984 . S
N1953 H1957 0.985 . S
H1954 N1949 0.984 . S
H1955 N1949 0.985 . S
H1956 N1953 0.984 . S
H1957 N1953 0.985 . S
H1958 N1952 0.984 . S
H1959 N1952 0.984 . S
H1960 N1948 0.984 . S
H1961 N1948 0.985 . S
C1962 C1963 1.363 . S
C1962 C1968 1.379 . S
C1962 N1970 1.356 . S
C1963 C1962 1.363 . S
C1963 C1969 1.363 . S
C1964 C1965 1.363 . S
C1964 C1969 1.379 . S
C1964 N1971 1.356 . S
C1965 C1964 1.363 . S
C1965 C1968 1.363 . S
N1966 C1968 1.356 . S
N1966 H1978 0.984 . S
N1966 H1979 0.985 . S
N1967 C1969 1.356 . S
N1967 H1972 0.984 . S
N1967 H1973 0.985 . S
C1968 C1962 1.379 . S
C1968 C1965 1.363 . S
C1968 N1966 1.356 . S
C1969 C1963 1.363 . S
C1969 C1964 1.379 . S
C1969 N1967 1.356 . S
N1970 C1962 1.356 . S
N1970 H1976 0.984 . S
N1970 H1977 0.984 . S
N1971 C1964 1.356 . S
N1971 H1974 0.984 . S
N1971 H1975 0.985 . S
H1972 N1967 0.984 . S
H1973 N1967 0.985 . S
H1974 N1971 0.984 . S
H1975 N1971 0.985 . S
H1976 N1970 0.984 . S
H1977 N1970 0.984 . S
H1978 N1966 0.984 . S
H1979 N1966 0.985 . S
C1980 C1981 1.363 . S
C1980 C1986 1.379 . S
C1980 N1988 1.356 . S
C1981 C1980 1.363 . S
C1981 C1987 1.363 . S
C1982 C1983 1.363 . S
C1982 C1987 1.379 . S
C1982 N1989 1.356 . S
C1983 C1982 1.363 . S
C1983 C1986 1.363 . S
N1984 C1986 1.356 . S
N1984 H1996 0.984 . S
N1984 H1997 0.985 . S
N1985 C1987 1.356 . S
N1985 H1990 0.984 . S
N1985 H1991 0.985 . S
C1986 C1980 1.379 . S
C1986 C1983 1.363 . S
C1986 N1984 1.356 . S
C1987 C1981 1.363 . S
C1987 C1982 1.379 . S
C1987 N1985 1.356 . S
N1988 C1980 1.356 . S
N1988 H1994 0.984 . S
N1988 H1995 0.984 . S
N1989 C1982 1.356 . S
N1989 H1992 0.984 . S
N1989 H1993 0.985 . S
H1990 N1985 0.984 . S
H1991 N1985 0.985 . S
H1992 N1989 0.984 . S
H1993 N1989 0.985 . S
H1994 N1988 0.984 . S
H1995 N1988 0.984 . S
H1996 N1984 0.984 . S
H1997 N1984 0.985 . S
C1998 C1999 1.363 . S
C1998 C2004 1.379 . S
C1998 N2006 1.356 . S
C1999 C1998 1.363 . S
C1999 C2005 1.363 . S
C2000 C2001 1.363 . S
C2000 C2005 1.379 . S
C2000 N2007 1.356 . S
C2001 C2000 1.363 . S
C2001 C2004 1.363 . S
N2002 C2004 1.356 . S
N2002 H2014 0.984 . S
N2002 H2015 0.985 . S
N2003 C2005 1.356 . S
N2003 H2008 0.984 . S
N2003 H2009 0.985 . S
C2004 C1998 1.379 . S
C2004 C2001 1.363 . S
C2004 N2002 1.356 . S
C2005 C1999 1.363 . S
C2005 C2000 1.379 . S
C2005 N2003 1.356 . S
N2006 C1998 1.356 . S
N2006 H2012 0.984 . S
N2006 H2013 0.984 . S
N2007 C2000 1.356 . S
N2007 H2010 0.984 . S
N2007 H2011 0.985 . S
H2008 N2003 0.984 . S
H2009 N2003 0.985 . S
H2010 N2007 0.984 . S
H2011 N2007 0.985 . S
H2012 N2006 0.984 . S
H2013 N2006 0.984 . S
H2014 N2002 0.984 . S
H2015 N2002 0.985 . S
C2016 C2017 1.363 . S
C2016 C2022 1.379 . S
C2016 N2024 1.356 . S
C2017 C2016 1.363 . S
C2017 C2023 1.363 . S
C2018 C2019 1.363 . S
C2018 C2023 1.379 . S
C2018 N2025 1.356 . S
C2019 C2018 1.363 . S
C2019 C2022 1.363 . S
N2020 C2022 1.356 . S
N2020 H2032 0.984 . S
N2020 H2033 0.985 . S
N2021 C2023 1.356 . S
N2021 H2026 0.984 . S
N2021 H2027 0.985 . S
C2022 C2016 1.379 . S
C2022 C2019 1.363 . S
C2022 N2020 1.356 . S
C2023 C2017 1.363 . S
C2023 C2018 1.379 . S
C2023 N2021 1.356 . S
N2024 C2016 1.356 . S
N2024 H2030 0.984 . S
N2024 H2031 0.984 . S
N2025 C2018 1.356 . S
N2025 H2028 0.984 . S
N2025 H2029 0.985 . S
H2026 N2021 0.984 . S
H2027 N2021 0.985 . S
H2028 N2025 0.984 . S
H2029 N2025 0.985 . S
H2030 N2024 0.984 . S
H2031 N2024 0.984 . S
H2032 N2020 0.984 . S
H2033 N2020 0.985 . S
C1063 C528 1.713 . S
C1065 C711 1.679 . S
C1081 C562 1.787 . S
C1083 C751 1.754 . S
C1099 C484 1.790 . S
C1101 C790 1.825 . S
C1117 C445 1.630 . S
C1119 C750 1.643 . S
C1137 C791 1.518 . S
C1135 C367 1.540 . S
C1153 C411 1.538 . S
C1155 C710 1.614 . S
C1173 C721 1.695 . S
C1171 C450 1.709 . S
C1191 C761 1.738 . S
C1189 C372 1.762 . S
C1207 C406 1.785 . S
C1209 C800 1.826 . S
C1225 C523 1.626 . S
C1227 C760 1.644 . S
C1243 C567 1.513 . S
C1245 C801 1.501 . S
C1263 C720 1.609 . S
C1261 C489 1.532 . S
C1281 C831 1.679 . S
C1279 C60 1.713 1_455 S
C1297 C94 1.786 . S
C1299 C871 1.754 . S
C1315 C16 1.790 . S
C1317 C910 1.825 . S
C1333 C679 1.630 . S
C1335 C870 1.643 . S
C1351 C601 1.540 . S
C1353 C911 1.518 . S
C1369 C645 1.539 . S
C1371 C830 1.591 . S
C1387 C684 1.709 . S
C1389 C841 1.695 . S
C1405 C606 1.762 . S
C1407 C881 1.738 . S
C1425 C920 1.826 . S
C1423 C640 1.785 . S
C1441 C55 1.626 1_565 S
C1443 C880 1.644 . S
C1461 C921 1.501 . S
C1459 C99 1.514 1_455 S
C1477 C21 1.533 . S
C1479 C840 1.609 . S
C1497 C951 1.679 . S
C1495 C294 1.713 . S
C1513 C328 1.786 . S
C1515 C991 1.754 . S
C1533 C1030 1.825 . S
C1531 C250 1.790 . S
C1551 C990 1.643 . S
C1549 C211 1.631 1_545 S
C1569 C1031 1.519 . S
C1567 C133 1.541 1_655 S
C1585 C177 1.539 . S
C1587 C950 1.591 . S
C1603 C216 1.709 1_655 S
C1605 C961 1.695 . S
C1621 C138 1.763 . S
C1623 C1001 1.738 . S
C1641 C1040 1.826 . S
C1639 C172 1.785 . S
C1657 C289 1.626 . S
C1659 C1000 1.643 . S
C1675 C333 1.513 . S
C1677 C1041 1.501 . S
C1693 C255 1.532 . S
C1695 C960 1.609 . S
C1711 C586 1.416 . S
C1713 C707 1.404 . S
C1731 C747 1.827 . S
C1729 C625 1.811 . S
C1747 C664 1.570 . S
C1749 C797 1.587 . S
C1765 C235 1.812 . S
C1767 C757 1.837 . S
C1783 C274 1.562 . S
C1785 C787 1.575 . S
C1803 C717 1.403 . S
C1801 C313 1.414 . S
C1819 C118 1.416 . S
C1821 C827 1.404 . S
C1837 C157 1.811 . S
C1839 C867 1.827 . S
C1855 C196 1.570 . S
C1857 C917 1.587 . S
C1873 C469 1.812 . S
C1875 C877 1.837 . S
C1893 C907 1.575 . S
C1891 C508 1.562 . S
C1909 C547 1.414 . S
C1911 C837 1.403 . S
C1927 C352 1.416 . S
C1929 C947 1.404 . S
C1945 C391 1.811 . S
C1947 C987 1.827 . S
C1965 C1037 1.587 . S
C1963 C430 1.570 . S
C1981 C1 1.812 . S
C1983 C997 1.837 . S
C1999 C40 1.562 . S
C2001 C1027 1.575 . S
C2017 C79 1.414 . S
C2019 C957 1.403 . S
