# Generated by pormake.
# Topology tsx, (6,3)-cn, num edge types: 1
# Building blocks:
#     Node 0, Type 0, BuildingBlock: MIDCAF_clean_sbu_0, # of connection points: 6
#     Node 1, Type 0, BuildingBlock: MIDCAF_clean_sbu_0, # of connection points: 6
#     Node 2, Type 1, BuildingBlock: INOVEN_clean_linker_0, # of connection points: 3
#     Node 3, Type 1, BuildingBlock: INOVEN_clean_linker_0, # of connection points: 3
#     Node 4, Type 1, BuildingBlock: INOVEN_clean_linker_0, # of connection points: 3
#     Node 5, Type 1, BuildingBlock: INOVEN_clean_linker_0, # of connection points: 3
#     Edge 6, Type (0, 1), BuildingBlock: UVAHIK_clean_linker_0, # of connection points: 2
#     Edge 7, Type (0, 1), BuildingBlock: UVAHIK_clean_linker_0, # of connection points: 2
#     Edge 8, Type (0, 1), BuildingBlock: UVAHIK_clean_linker_0, # of connection points: 2
#     Edge 9, Type (0, 1), BuildingBlock: UVAHIK_clean_linker_0, # of connection points: 2
#     Edge 10, Type (0, 1), BuildingBlock: UVAHIK_clean_linker_0, # of connection points: 2
#     Edge 11, Type (0, 1), BuildingBlock: UVAHIK_clean_linker_0, # of connection points: 2
#     Edge 12, Type (0, 1), BuildingBlock: UVAHIK_clean_linker_0, # of connection points: 2
#     Edge 13, Type (0, 1), BuildingBlock: UVAHIK_clean_linker_0, # of connection points: 2
#     Edge 14, Type (0, 1), BuildingBlock: UVAHIK_clean_linker_0, # of connection points: 2
#     Edge 15, Type (0, 1), BuildingBlock: UVAHIK_clean_linker_0, # of connection points: 2
#     Edge 16, Type (0, 1), BuildingBlock: UVAHIK_clean_linker_0, # of connection points: 2
#     Edge 17, Type (0, 1), BuildingBlock: UVAHIK_clean_linker_0, # of connection points: 2
# Relax obj value: 0.077
# Max RMSD: 0.149
# Mean RMSD: 0.107
data_MOF--net-tsx--node1-MIDCAF_clean_sbu_0--node2-INOVEN_clean_linker_0--edge1-UVAHIK_clean_linker_0
_symmetry_space_group_name_H-M    P1
_symmetry_Int_Tables_number       1
_symmetry_cell_setting            triclinic
loop_
_symmetry_equiv_pos_as_xyz
'x, y, z'
_cell_length_a     25.835768
_cell_length_b     27.477958
_cell_length_c     46.443413
_cell_angle_alpha  90.048435
_cell_angle_beta   105.51507
_cell_angle_gamma 90.187673
loop_
_atom_site_label
_atom_site_type_symbol
_atom_site_fract_x
_atom_site_fract_y
_atom_site_fract_z
_atom_type_partial_charge
Zn0 Zn 0.92861 0.96292 0.96591 0.0
Zn1 Zn 0.05646 0.92851 0.0522 0.0
Zn2 Zn 1.00599 0.96239 0.00965 0.0
C3 C 0.12161 -0.00391 0.03198 0.0
C4 C 0.08565 0.8831 0.00709 0.0
O5 O 0.96587 0.89511 0.01448 0.0
O6 O 0.89995 0.89664 0.97336 0.0
C7 C 0.92452 0.04791 0.00073 0.0
O8 O 0.08816 0.98183 0.00742 0.0
O9 O 0.11418 0.98172 0.0565 0.0
O10 O 0.07007 0.8686 0.02937 0.0
O11 O 0.07399 0.92686 0.99751 0.0
O12 O 0.89692 0.02383 0.97866 0.0
O13 O 0.96994 0.03171 0.01612 0.0
O14 O 0.05016 0.97078 0.9758 0.0
O15 O 0.97642 0.97095 0.93806 0.0
C16 C 0.02701 0.97442 0.94765 0.0
O17 O 1.00215 0.00785 0.04715 0.0
O18 O 0.9987 0.94193 0.07331 0.0
C19 C 0.92422 0.87528 0.99729 0.0
C20 C 0.99322 -0.01234 0.0703 0.0
Zn21 Zn 0.62767 0.53943 0.55291 0.0
Zn22 Zn 0.46808 0.5411 0.46123 0.0
Zn23 Zn 0.54771 0.54311 0.50698 0.0
C24 C 0.55092 0.50788 0.44087 0.0
C25 C 0.47877 0.63774 0.48047 0.0
O26 O 0.52147 0.51056 0.54499 0.0
O27 O 0.59158 0.52356 0.5838 0.0
C28 C 0.65516 0.47878 0.51249 0.0
O29 O 0.57244 0.50739 0.46936 0.0
O30 O 0.50486 0.52569 0.43038 0.0
O31 O 0.44573 0.60918 0.46362 0.0
O32 O 0.52298 0.62078 0.49747 0.0
O33 O 0.66891 0.48712 0.54021 0.0
O34 O 0.61288 0.49934 0.49568 0.0
O35 O 0.5754 0.62003 0.51609 0.0
O36 O 0.65119 0.60744 0.55089 0.0
C37 C 0.61968 0.6363 0.53356 0.0
O38 O 0.48137 0.50141 0.51858 0.0
O39 O 0.42589 0.48878 0.47392 0.0
C40 C 0.54393 0.50913 0.57338 0.0
C41 C 0.43892 0.48091 0.50169 0.0
H42 H 0.14704 0.09105 0.46274 0.0
H43 H 0.19212 0.04646 0.38377 0.0
H44 H 0.05789 0.14159 0.37626 0.0
N45 N 0.06622 0.14902 0.43471 0.0
N46 N 0.03485 0.17962 0.41954 0.0
C47 C 0.14106 0.09212 0.43875 0.0
C48 C 0.17487 0.06515 0.42538 0.0
C49 C 0.09979 0.12101 0.42118 0.0
C50 C 0.09144 0.12146 0.38997 0.0
C51 C 0.1244 0.09489 0.37616 0.0
C52 C 0.16646 0.0673 0.39415 0.0
H53 H 0.97887 0.07252 0.56428 0.0
H54 H 0.95614 -0.0013 0.64182 0.0
H55 H 0.08451 0.10197 0.65143 0.0
N56 N 0.06349 0.12525 0.59298 0.0
N57 N 0.09771 0.15328 0.60876 0.0
C58 C 0.99078 0.06597 0.58815 0.0
C59 C 0.96149 0.03293 0.6009 0.0
C60 C 0.03474 0.09161 0.60626 0.0
C61 C 0.05007 0.08314 0.63731 0.0
C62 C 0.02227 0.04931 0.65021 0.0
C63 C 0.97793 0.02466 0.63188 0.0
H64 H 0.5532 0.47508 0.95594 0.0
H65 H 0.59109 0.41496 0.87833 0.0
H66 H 0.46697 0.52232 0.86805 0.0
N67 N 0.47745 0.53591 0.92652 0.0
N68 N 0.45337 0.57112 0.91196 0.0
C69 C 0.54624 0.47302 0.9319 0.0
C70 C 0.57718 0.44145 0.91935 0.0
C71 C 0.50747 0.50325 0.91351 0.0
C72 C 0.49826 0.50037 0.8823 0.0
C73 C 0.5278 0.46832 0.86931 0.0
C74 C 0.56756 0.43939 0.88808 0.0
H75 H 0.55965 0.37903 0.06701 0.0
H76 H 0.53238 0.33405 0.15066 0.0
H77 H 0.64416 0.44901 0.14921 0.0
N78 N 0.63074 0.44924 0.08973 0.0
N79 N 0.66875 0.47601 0.10318 0.0
C80 C 0.56773 0.3826 0.09104 0.0
C81 C 0.54245 0.3511 0.10712 0.0
C82 C 0.60476 0.41793 0.10609 0.0
C83 C 0.61553 0.42213 0.13739 0.0
C84 C 0.58975 0.392 0.15368 0.0
C85 C 0.55343 0.35664 0.13833 0.0
C86 C 0.21402 0.02474 0.05734 0.0
C87 C 0.16908 0.02682 0.03245 0.0
C88 C 0.25587 0.05827 0.06084 0.0
C89 C 0.3157 0.15569 0.02384 0.0
H90 H 0.37096 0.19868 0.10595 0.0
C91 C 0.46296 0.32138 0.06599 0.0
C92 C 0.50431 0.31216 0.09208 0.0
C93 C 0.42298 0.28619 0.05474 0.0
C94 C 0.35629 0.18687 0.08292 0.0
H95 H 0.134 0.06419 0.99081 0.0
H96 H 0.20701 0.12421 0.99729 0.0
H97 H 0.29955 0.13855 0.09366 0.0
H98 H 0.53861 0.25728 0.12515 0.0
H99 H 0.46912 0.19667 0.10584 0.0
H100 H 0.37254 0.20561 0.01339 0.0
C101 C 0.21008 0.09607 0.01396 0.0
C102 C 0.3154 0.1521 0.07584 0.0
C103 C 0.16824 0.06174 0.01022 0.0
C104 C 0.50663 0.26605 0.10547 0.0
C105 C 0.46683 0.23126 0.09439 0.0
C106 C 0.35661 0.19114 0.03097 0.0
C107 C 0.25364 0.09565 0.03986 0.0
C108 C 0.29525 0.13508 0.04635 0.0
C109 C 0.42367 0.24136 0.06946 0.0
C110 C 0.37803 0.2063 0.06074 0.0
H111 H 0.21628 -0.00222 0.07465 0.0
H112 H 0.28952 0.05555 0.08053 0.0
H113 H 0.30116 0.14357 0.00089 0.0
H114 H 0.46002 0.35654 0.05517 0.0
H115 H 0.39019 0.29495 0.03546 0.0
C116 C 0.13194 0.80377 0.00581 0.0
C117 C 0.121 0.85137 0.99485 0.0
C118 C 0.1678 0.77427 0.99611 0.0
C119 C 0.2793 0.77948 0.95952 0.0
H120 H 0.25581 0.63989 0.95364 0.0
C121 C 0.40323 0.64639 0.90743 0.0
C122 C 0.4207 0.60347 0.92323 0.0
C123 C 0.36827 0.67793 0.91652 0.0
C124 C 0.26314 0.67876 0.95546 0.0
H125 H 0.13937 0.90523 0.96498 0.0
H126 H 0.20031 0.8529 0.94688 0.0
H127 H 0.1893 0.69211 0.96644 0.0
H128 H 0.41555 0.55936 0.96107 0.0
H129 H 0.35351 0.61423 0.97683 0.0
H130 H 0.35266 0.76572 0.94762 0.0
C131 C 0.18188 0.83868 0.96351 0.0
C132 C 0.22506 0.70881 0.96286 0.0
C133 C 0.1463 0.86852 0.97354 0.0
C134 C 0.40294 0.59247 0.94859 0.0
C135 C 0.36725 0.62369 0.95746 0.0
C136 C 0.31706 0.74939 0.9517 0.0
C137 C 0.19343 0.79121 0.97486 0.0
C138 C 0.2328 0.75959 0.96531 0.0
C139 C 0.34933 0.66661 0.94139 0.0
C140 C 0.30957 0.69868 0.94985 0.0
H141 H 0.1135 0.78937 0.02241 0.0
H142 H 0.17632 0.73847 0.00592 0.0
H143 H 0.28723 0.81821 0.96163 0.0
H144 H 0.41629 0.65516 0.88774 0.0
H145 H 0.3548 0.71047 0.90356 0.0
C146 C 0.85907 0.80551 0.98525 0.0
C147 C 0.90239 0.82878 0.00555 0.0
C148 C 0.83581 0.7635 0.99341 0.0
C149 C 0.85826 0.66434 0.05001 0.0
H150 H 0.70286 0.65381 0.025 0.0
C151 C 0.7405 0.53409 0.10643 0.0
C152 C 0.69566 0.50947 0.08879 0.0
C153 C 0.76711 0.56929 0.09402 0.0
C154 C 0.74631 0.65576 0.03179 0.0
H155 H 0.95584 0.82533 0.05028 0.0
H156 H 0.91476 0.75243 0.06475 0.0
H157 H 0.74709 0.72248 0.00819 0.0
H158 H 0.643 0.50191 0.04401 0.0
H159 H 0.68957 0.56397 0.02203 0.0
H160 H 0.85724 0.59816 0.07419 0.0
C161 C 0.89918 0.76629 0.04229 0.0
C162 C 0.7718 0.6952 0.02216 0.0
C163 C 0.92266 0.80828 0.03405 0.0
C164 C 0.67773 0.52029 0.05813 0.0
C165 C 0.70422 0.55598 0.04564 0.0
C166 C 0.83276 0.62504 0.05973 0.0
C167 C 0.85502 0.74362 0.02218 0.0
C168 C 0.82811 0.70034 0.03138 0.0
C169 C 0.74918 0.58102 0.06352 0.0
C170 C 0.77642 0.62054 0.05105 0.0
H171 H 0.84262 0.82002 0.96301 0.0
H172 H 0.80263 0.74663 0.97711 0.0
H173 H 0.90168 0.66647 0.0571 0.0
H174 H 0.75452 0.5264 0.13011 0.0
H175 H 0.80092 0.5883 0.10857 0.0
C176 C 0.91869 0.13788 0.99642 0.0
C177 C 0.90316 0.09462 0.00776 0.0
C178 C 0.88879 0.18045 0.99586 0.0
C179 C 0.7494 0.21554 0.99311 0.0
H180 H 0.80566 0.34624 0.99189 0.0
C181 C 0.60827 0.38079 0.96092 0.0
C182 C 0.61936 0.40998 0.93845 0.0
C183 C 0.64605 0.34686 0.97628 0.0
C184 C 0.78937 0.30994 0.99224 0.0
H185 H 0.84656 0.06185 0.02886 0.0
H186 H 0.79559 0.13656 0.02928 0.0
H187 H 0.8676 0.27843 0.00785 0.0
H188 H 0.67993 0.42882 0.91583 0.0
H189 H 0.74571 0.36985 0.94255 0.0
H190 H 0.6713 0.24692 0.97702 0.0
C191 C 0.82991 0.13774 0.02008 0.0
C192 C 0.82486 0.271 0.0013 0.0
C193 C 0.85946 0.09509 0.02027 0.0
C194 C 0.67003 0.40641 0.9328 0.0
C195 C 0.70792 0.37293 0.94832 0.0
C196 C 0.714 0.25447 0.98433 0.0
C197 C 0.84277 0.18052 0.00672 0.0
C198 C 0.80541 0.22304 0.00117 0.0
C199 C 0.69593 0.34191 0.96973 0.0
C200 C 0.73354 0.30197 0.98309 0.0
H201 H 0.95169 0.13794 0.98611 0.0
H202 H 0.89977 0.21229 0.98508 0.0
H203 H 0.73264 0.17922 0.99211 0.0
H204 H 0.56953 0.38269 0.96572 0.0
H205 H 0.63581 0.32377 0.99284 0.0
C206 C 0.62044 0.71738 0.5078 0.0
C207 C 0.63685 0.68781 0.53334 0.0
C208 C 0.64529 0.76278 0.50678 0.0
C209 C 0.77344 0.81686 0.53018 0.0
H210 H 0.71975 0.94448 0.54272 0.0
C211 C 0.91702 0.98076 0.55651 0.0
C212 C 0.91418 0.00594 0.58238 0.0
C213 C 0.87539 0.94927 0.54195 0.0
C214 C 0.73518 0.90917 0.53887 0.0
H215 H 0.68927 0.6842 0.57846 0.0
H216 H 0.73233 0.76235 0.57641 0.0
H217 H 0.65844 0.87423 0.53337 0.0
H218 H 0.86375 0.02097 0.61184 0.0
H219 H 0.7917 0.96597 0.58679 0.0
H220 H 0.85062 0.85032 0.53748 0.0
C221 C 0.70076 0.75048 0.55721 0.0
C222 C 0.69996 0.8692 0.53326 0.0
C223 C 0.67602 0.70573 0.5583 0.0
C224 C 0.86737 0.00154 0.59216 0.0
C225 C 0.82575 0.97038 0.57757 0.0
C226 C 0.80849 0.85666 0.53558 0.0
C227 C 0.68676 0.77875 0.53126 0.0
C228 C 0.71932 0.82255 0.52983 0.0
C229 C 0.82992 0.94266 0.55283 0.0
C230 C 0.79028 0.90303 0.54108 0.0
H231 H 0.59064 0.70442 0.48817 0.0
H232 H 0.63395 0.78425 0.48654 0.0
H233 H 0.78927 0.78101 0.5279 0.0
H234 H 0.95259 0.98341 0.54846 0.0
H235 H 0.87962 0.92884 0.52276 0.0
C236 C 0.69883 0.45269 0.47268 0.0
C237 C 0.68818 0.44468 0.50035 0.0
C238 C 0.7341 0.4221 0.46293 0.0
C239 C 0.80456 0.30248 0.47823 0.0
H240 H 0.905 0.36331 0.44045 0.0
C241 C 0.99031 0.20172 0.4589 0.0
C242 C 0.9987 0.20838 0.43047 0.0
C243 C 0.95208 0.23006 0.46775 0.0
C244 C 0.87699 0.34569 0.4508 0.0
H245 H 0.70591 0.3986 0.5396 0.0
H246 H 0.76801 0.34616 0.52312 0.0
H247 H 0.83629 0.41252 0.45345 0.0
H248 H 0.97477 0.24881 0.38932 0.0
H249 H 0.90845 0.29841 0.40461 0.0
H250 H 0.84599 0.23571 0.47586 0.0
C251 C 0.74838 0.37507 0.50842 0.0
C252 C 0.83734 0.37387 0.45809 0.0
C253 C 0.71308 0.40542 0.51801 0.0
C254 C 0.96897 0.2436 0.41137 0.0
C255 C 0.93127 0.272 0.42019 0.0
C256 C 0.84446 0.27433 0.47107 0.0
C257 C 0.75987 0.38323 0.4809 0.0
C258 C 0.80056 0.35268 0.47191 0.0
C259 C 0.92218 0.26555 0.44843 0.0
C260 C 0.88106 0.29561 0.45721 0.0
H261 H 0.68166 0.48365 0.45915 0.0
H262 H 0.74168 0.4293 0.4415 0.0
H263 H 0.77651 0.28475 0.48849 0.0
H264 H 0.01268 0.17454 0.47403 0.0
H265 H 0.94617 0.22447 0.48974 0.0
C266 C 0.39914 0.45242 0.54272 0.0
C267 C 0.40556 0.44683 0.51386 0.0
C268 C 0.36636 0.42031 0.55344 0.0
C269 C 0.29809 0.29923 0.53766 0.0
H270 H 0.21147 0.34887 0.58755 0.0
C271 C 0.12871 0.18601 0.56651 0.0
C272 C 0.12864 0.18654 0.59678 0.0
C273 C 0.16191 0.21818 0.55613 0.0
C274 C 0.23565 0.33443 0.57376 0.0
H275 H 0.38143 0.40403 0.4732 0.0
H276 H 0.3231 0.34933 0.49127 0.0
H277 H 0.27177 0.40375 0.57074 0.0
H278 H 0.1621 0.22049 0.63963 0.0
H279 H 0.21967 0.27717 0.62158 0.0
H280 H 0.26107 0.23007 0.54033 0.0
C281 C 0.34466 0.3773 0.50622 0.0
C282 C 0.27051 0.36582 0.56425 0.0
C283 C 0.37775 0.40905 0.49571 0.0
C284 C 0.16152 0.21987 0.61622 0.0
C285 C 0.19418 0.25229 0.60585 0.0
C286 C 0.26285 0.26799 0.54694 0.0
C287 C 0.33852 0.38233 0.53526 0.0
C288 C 0.30225 0.34868 0.54606 0.0
C289 C 0.19506 0.25164 0.57574 0.0
C290 C 0.23131 0.2852 0.56513 0.0
H291 H 0.41796 0.48249 0.55661 0.0
H292 H 0.36284 0.42536 0.57596 0.0
H293 H 0.32254 0.28438 0.52416 0.0
H294 H 0.10381 0.16049 0.55101 0.0
H295 H 0.16146 0.21707 0.53275 0.0
C296 C 0.48233 0.72007 0.50566 0.0
C297 C 0.46347 0.68976 0.48057 0.0
C298 C 0.45939 0.76628 0.50663 0.0
C299 C 0.33046 0.82508 0.47825 0.0
H300 H 0.40143 0.9508 0.48716 0.0
C301 C 0.20539 -0.00054 0.46383 0.0
C302 C 0.21716 0.03224 0.44322 0.0
C303 C 0.24173 0.96261 0.47646 0.0
C304 C 0.38111 0.91591 0.4849 0.0
H305 H 0.40877 0.68567 0.43607 0.0
H306 H 0.36904 0.765 0.43801 0.0
H307 H 0.45522 0.876 0.49304 0.0
H308 H 0.27828 0.05469 0.4218 0.0
H309 H 0.3412 -0.00977 0.44346 0.0
H310 H 0.25647 0.86398 0.46885 0.0
C311 C 0.40083 0.75313 0.45703 0.0
C312 C 0.41195 0.87323 0.48848 0.0
C313 C 0.42378 0.70767 0.45595 0.0
C314 C 0.2677 0.02954 0.43728 0.0
C315 C 0.30406 -0.00715 0.44996 0.0
C316 C 0.29981 0.86745 0.47496 0.0
C317 C 0.41708 0.78229 0.48264 0.0
C318 C 0.38666 0.82749 0.48423 0.0
C319 C 0.29074 0.95783 0.46887 0.0
C320 C 0.32453 0.91347 0.47739 0.0
H321 H 0.51262 0.7072 0.52503 0.0
H322 H 0.47274 0.78833 0.5266 0.0
H323 H 0.31 0.7902 0.47499 0.0
H324 H 0.16682 0.00048 0.46885 0.0
H325 H 0.23051 0.93664 0.49128 0.0
C326 C 0.0174 0.06088 0.10285 0.0
C327 C 0.98882 0.01687 0.09616 0.0
C328 C 0.02673 0.08147 0.13134 0.0
C329 C 0.08088 0.07329 0.19908 0.0
H330 H 0.97913 0.09737 0.24555 0.0
C331 C 0.11935 0.05161 0.32755 0.0
C332 C 0.1128 0.09442 0.34288 0.0
C333 C 0.10461 0.05026 0.29633 0.0
C334 C 0.00783 0.09113 0.23268 0.0
H335 H 0.94296 0.96262 0.11268 0.0
H336 H 0.95741 -0.00022 0.16207 0.0
H337 H 0.94631 0.08355 0.19137 0.0
H338 H 0.08769 0.17007 0.33689 0.0
H339 H 0.05934 0.16645 0.28237 0.0
H340 H 0.1421 0.07766 0.24065 0.0
C341 C 0.97335 0.01779 0.14552 0.0
C342 C 0.98915 0.08329 0.20186 0.0
C343 C 0.96512 -0.00344 0.11731 0.0
C344 C 0.09214 0.13607 0.32602 0.0
C345 C 0.07625 0.13429 0.29481 0.0
C346 C 0.09942 0.07997 0.22995 0.0
C347 C 1.00633 0.05907 0.15319 0.0
C348 C 0.02554 0.07389 0.18488 0.0
C349 C 0.0821 0.0913 0.27981 0.0
C350 C 0.06298 0.08842 0.24697 0.0
H351 H 0.03643 0.0771 0.08701 0.0
H352 H 0.05219 0.1134 0.13681 0.0
H353 H 0.10963 0.06537 0.18649 0.0
H354 H 0.13416 0.01856 0.33957 0.0
H355 H 0.10911 0.01663 0.28505 0.0
C356 C 0.0676 0.02501 0.91524 0.0
C357 C 0.05787 0.97884 0.92551 0.0
C358 C 0.08052 0.02989 0.88797 0.0
C359 C 0.04946 0.96503 0.81672 0.0
H360 H 0.13424 0.06639 0.79301 0.0
C361 C 0.04337 -0.00874 0.69333 0.0
C362 C 0.03945 0.03937 0.6828 0.0
C363 C 0.05674 0.9817 0.72396 0.0
C364 C 0.11017 0.03804 0.79928 0.0
H365 H 0.05683 0.90152 0.91679 0.0
H366 H 0.08146 0.90962 0.86976 0.0
H367 H 0.14193 0.05295 0.84608 0.0
H368 H 0.04766 0.11521 0.69609 0.0
H369 H 0.06985 0.09865 0.74966 0.0
H370 H 0.01606 0.95111 0.77025 0.0
C371 C 0.07846 0.94219 0.88236 0.0
C372 C 0.11475 0.03025 0.82968 0.0
C373 C 0.06513 0.93743 0.90944 0.0
C374 C 0.05069 0.07774 0.70359 0.0
C375 C 0.06364 0.0682 0.73429 0.0
C376 C 0.04476 0.97289 0.78647 0.0
C377 C 0.08354 -0.01143 0.87055 0.0
C378 C 0.08398 -0.00606 0.83873 0.0
C379 C 0.06601 0.02004 0.74485 0.0
C380 C 0.07453 0.00983 0.77728 0.0
H381 H 0.06101 0.05742 0.92708 0.0
H382 H 0.08378 0.06614 0.87947 0.0
H383 H 0.0241 0.93756 0.82276 0.0
H384 H 0.03593 0.96094 0.67783 0.0
H385 H 0.05931 0.94416 0.73127 0.0
C386 C 0.49525 0.53064 0.6105 0.0
C387 C 0.51446 0.4944 0.59486 0.0
C388 C 0.48095 0.51928 0.63664 0.0
C389 C 0.52063 0.43191 0.69797 0.0
H390 H 0.4204 0.5057 0.72957 0.0
C391 C 0.51742 0.41986 0.82199 0.0
C392 C 0.51691 0.46506 0.83619 0.0
C393 C 0.50749 0.417 0.7909 0.0
C394 C 0.44856 0.48478 0.72103 0.0
H395 H 0.53134 0.41768 0.59286 0.0
H396 H 0.50502 0.39714 0.63838 0.0
H397 H 0.4149 0.50983 0.67631 0.0
H398 H 0.50581 0.54272 0.82864 0.0
H399 H 0.48798 0.5376 0.77453 0.0
H400 H 0.55509 0.40783 0.74281 0.0
C401 C 0.50146 0.43449 0.6307 0.0
C402 C 0.44539 0.48709 0.69053 0.0
C403 C 0.51593 0.44601 0.60452 0.0
C404 C 0.50565 0.50721 0.81848 0.0
C405 C 0.49535 0.50429 0.78743 0.0
C406 C 0.52354 0.42936 0.72842 0.0
C407 C 0.48604 0.4714 0.64777 0.0
C408 C 0.48246 0.46187 0.67876 0.0
C409 C 0.4964 0.4592 0.77329 0.0
C410 C 0.48858 0.45689 0.74043 0.0
H411 H 0.49482 0.56835 0.60362 0.0
H412 H 0.46994 0.54879 0.64926 0.0
H413 H 0.55041 0.41255 0.68989 0.0
H414 H 0.52501 0.38655 0.83486 0.0
H415 H 0.50818 0.38169 0.78062 0.0
C416 C 0.58837 0.44062 0.41631 0.0
C417 C 0.57958 0.49044 0.41951 0.0
C418 C 0.60463 0.4238 0.39157 0.0
C419 C 0.6543 0.4649 0.32702 0.0
H420 H 0.56293 0.36165 0.28404 0.0
C421 C 0.60444 0.44497 0.19937 0.0
C422 C 0.59986 0.39818 0.18663 0.0
C423 C 0.61242 0.45103 0.23013 0.0
C424 C 0.58954 0.38991 0.29592 0.0
H425 H 0.58238 0.56188 0.40053 0.0
H426 H 0.61096 0.53303 0.35768 0.0
H427 H 0.56212 0.38064 0.33518 0.0
H428 H 0.60145 0.32097 0.19656 0.0
H429 H 0.61474 0.33164 0.25029 0.0
H430 H 0.68013 0.47541 0.28732 0.0
C431 C 0.60627 0.50674 0.37416 0.0
C432 C 0.58921 0.40071 0.32533 0.0
C433 C 0.58974 0.52335 0.39864 0.0
C434 C 0.604 0.35755 0.20554 0.0
C435 C 0.61177 0.36363 0.23635 0.0
C436 C 0.65456 0.45416 0.29763 0.0
C437 C 0.61229 0.45665 0.36977 0.0
C438 C 0.62038 0.43931 0.34091 0.0
C439 C 0.61585 0.41047 0.24899 0.0
C440 C 0.621 0.41749 0.28143 0.0
H441 H 0.58004 0.41463 0.43203 0.0
H442 H 0.60934 0.38504 0.38894 0.0
H443 H 0.67946 0.49432 0.33857 0.0
H444 H 0.60049 0.47711 0.18547 0.0
H445 H 0.61431 0.48765 0.23901 0.0
loop_
_geom_bond_atom_site_label_1
_geom_bond_atom_site_label_2
_geom_bond_distance
_geom_bond_site_symmetry_2
_ccdc_geom_bond_type
Zn0 O6 1.920 1_545 S
Zn0 O12 1.898 . S
Zn0 O15 1.905 1_545 S
Zn1 O9 1.905 . S
Zn1 O10 1.898 1_545 S
Zn1 O18 1.920 1_545 S
Zn2 O5 2.080 1_445 S
Zn2 O8 2.114 . S
Zn2 O11 2.120 1_545 S
Zn2 O13 2.120 1_455 S
Zn2 O14 2.114 1_554 S
Zn2 O17 2.080 . S
C3 O8 1.166 . S
C3 O9 1.182 . S
C4 O10 1.167 . S
C4 O11 1.299 . S
O5 Zn2 2.080 1_665 S
O5 C19 1.305 . S
O6 Zn0 1.920 1_565 S
O6 C19 1.234 1_556 S
C7 O12 1.167 . S
C7 O13 1.299 1_556 S
O8 Zn2 2.114 . S
O8 C3 1.166 . S
O9 Zn1 1.905 . S
O9 C3 1.182 . S
O10 Zn1 1.898 1_565 S
O10 C4 1.167 . S
O11 Zn2 2.120 1_565 S
O11 C4 1.299 . S
O12 Zn0 1.898 . S
O12 C7 1.167 . S
O13 Zn2 2.120 1_655 S
O13 C7 1.299 1_554 S
O14 Zn2 2.114 1_556 S
O14 C16 1.166 1_545 S
O15 Zn0 1.905 1_565 S
O15 C16 1.182 1_655 S
C16 O14 1.166 1_565 S
C16 O15 1.182 1_455 S
O17 Zn2 2.080 . S
O17 C20 1.305 1_545 S
O18 Zn1 1.920 1_565 S
O18 C20 1.234 . S
C19 O5 1.305 . S
C19 O6 1.234 1_554 S
C20 O17 1.305 1_565 S
C20 O18 1.234 . S
Zn21 O27 1.920 . S
Zn21 O33 1.898 . S
Zn21 O36 1.905 . S
Zn22 O30 1.905 . S
Zn22 O31 1.898 . S
Zn22 O39 1.920 . S
Zn23 O26 2.080 . S
Zn23 O29 2.114 . S
Zn23 O32 2.120 . S
Zn23 O34 2.120 . S
Zn23 O35 2.114 . S
Zn23 O38 2.080 . S
C24 O29 1.166 . S
C24 O30 1.182 . S
C25 O31 1.167 . S
C25 O32 1.299 . S
O26 Zn23 2.080 . S
O26 C40 1.305 . S
O27 Zn21 1.920 . S
O27 C40 1.234 . S
C28 O33 1.167 . S
C28 O34 1.299 . S
O29 Zn23 2.114 . S
O29 C24 1.166 . S
O30 Zn22 1.905 . S
O30 C24 1.182 . S
O31 Zn22 1.898 . S
O31 C25 1.167 . S
O32 Zn23 2.120 . S
O32 C25 1.299 . S
O33 Zn21 1.898 . S
O33 C28 1.167 . S
O34 Zn23 2.120 . S
O34 C28 1.299 . S
O35 Zn23 2.114 . S
O35 C37 1.166 . S
O36 Zn21 1.905 . S
O36 C37 1.182 . S
C37 O35 1.166 . S
C37 O36 1.182 . S
O38 Zn23 2.080 . S
O38 C41 1.305 . S
O39 Zn22 1.920 . S
O39 C41 1.234 . S
C40 O26 1.305 . S
C40 O27 1.234 . S
C41 O38 1.305 . S
C41 O39 1.234 . S
H42 C47 0.929 . S
H43 C52 0.931 1_565 S
H44 C50 0.930 . S
N45 N46 1.234 . S
N45 C49 1.453 . S
N46 N45 1.234 . S
C47 H42 0.929 . S
C47 C48 1.373 1_545 S
C47 C49 1.368 . S
C48 C47 1.373 1_565 S
C48 C52 1.397 1_565 S
C49 N45 1.453 . S
C49 C47 1.368 . S
C49 C50 1.373 . S
C50 H44 0.930 . S
C50 C49 1.373 . S
C50 C51 1.371 . S
C51 C50 1.371 . S
C51 C52 1.383 . S
C52 H43 0.931 1_545 S
C52 C48 1.397 1_545 S
C52 C51 1.383 . S
H53 C58 0.929 . S
H54 C63 0.931 . S
H55 C61 0.930 . S
N56 N57 1.234 . S
N56 C60 1.453 . S
N57 N56 1.234 . S
C58 H53 0.929 . S
C58 C59 1.373 1_545 S
C58 C60 1.368 1_655 S
C59 C58 1.373 1_565 S
C59 C63 1.397 . S
C60 N56 1.453 . S
C60 C58 1.368 1_455 S
C60 C61 1.373 . S
C61 H55 0.930 . S
C61 C60 1.373 . S
C61 C62 1.371 1_455 S
C62 C61 1.371 1_655 S
C62 C63 1.383 1_545 S
C63 H54 0.931 . S
C63 C59 1.397 . S
C63 C62 1.383 1_565 S
H64 C69 0.929 . S
H65 C74 0.931 . S
H66 C72 0.930 . S
N67 N68 1.234 . S
N67 C71 1.453 . S
N68 N67 1.234 . S
C69 H64 0.929 . S
C69 C70 1.373 . S
C69 C71 1.368 . S
C70 C69 1.373 . S
C70 C74 1.397 . S
C71 N67 1.453 . S
C71 C69 1.368 . S
C71 C72 1.373 . S
C72 H66 0.930 . S
C72 C71 1.373 . S
C72 C73 1.371 . S
C73 C72 1.371 . S
C73 C74 1.383 . S
C74 H65 0.931 . S
C74 C70 1.397 . S
C74 C73 1.383 . S
H75 C80 0.929 . S
H76 C85 0.931 . S
H77 C83 0.930 . S
N78 N79 1.234 . S
N78 C82 1.453 . S
N79 N78 1.234 . S
C80 H75 0.929 . S
C80 C81 1.373 . S
C80 C82 1.368 . S
C81 C80 1.373 . S
C81 C85 1.397 . S
C82 N78 1.453 . S
C82 C80 1.368 . S
C82 C83 1.373 . S
C83 H77 0.930 . S
C83 C82 1.373 . S
C83 C84 1.371 . S
C84 C83 1.371 . S
C84 C85 1.383 . S
C85 H76 0.931 . S
C85 C81 1.397 . S
C85 C84 1.383 . S
C86 C87 1.349 . S
C86 C88 1.327 . S
C86 H111 0.950 . S
C87 C86 1.349 . S
C87 C103 1.349 . S
C88 C86 1.327 . S
C88 C107 1.429 . S
C88 H112 0.950 . S
C89 C106 1.574 . S
C89 C108 1.368 . S
C89 H113 0.949 . S
H90 C94 0.949 . S
C91 C92 1.349 . S
C91 C93 1.327 . S
C91 H114 0.950 . S
C92 C91 1.349 . S
C92 C104 1.349 . S
C93 C91 1.327 . S
C93 C109 1.429 . S
C93 H115 0.950 . S
C94 H90 0.949 . S
C94 C102 1.574 . S
C94 C110 1.368 . S
H95 C103 0.950 1_556 S
H96 C101 0.950 . S
H97 C102 0.949 . S
H98 C104 0.950 . S
H99 C105 0.950 . S
H100 C106 0.949 . S
C101 H96 0.950 . S
C101 C103 1.327 . S
C101 C107 1.429 . S
C102 C94 1.574 . S
C102 H97 0.949 . S
C102 C108 1.368 . S
C103 C87 1.349 . S
C103 H95 0.950 1_554 S
C103 C101 1.327 . S
C104 C92 1.349 . S
C104 H98 0.950 . S
C104 C105 1.327 . S
C105 H99 0.950 . S
C105 C104 1.327 . S
C105 C109 1.429 . S
C106 C89 1.574 . S
C106 H100 0.949 . S
C106 C110 1.368 . S
C107 C88 1.429 . S
C107 C101 1.429 . S
C107 C108 1.523 . S
C108 C89 1.368 . S
C108 C102 1.368 . S
C108 C107 1.523 . S
C109 C93 1.429 . S
C109 C105 1.429 . S
C109 C110 1.523 . S
C110 C94 1.368 . S
C110 C106 1.368 . S
C110 C109 1.523 . S
H111 C86 0.950 . S
H112 C88 0.950 . S
H113 C89 0.949 . S
H114 C91 0.950 . S
H115 C93 0.950 . S
C116 C117 1.348 1_554 S
C116 C118 1.327 1_554 S
C116 H141 0.950 . S
C117 C116 1.348 1_556 S
C117 C133 1.350 . S
C118 C116 1.327 1_556 S
C118 C137 1.429 . S
C118 H142 0.950 1_556 S
C119 C136 1.574 . S
C119 C138 1.368 . S
C119 H143 0.949 . S
H120 C124 0.949 . S
C121 C122 1.349 . S
C121 C123 1.327 . S
C121 H144 0.950 . S
C122 C121 1.349 . S
C122 C134 1.349 . S
C123 C121 1.327 . S
C123 C139 1.429 . S
C123 H145 0.950 . S
C124 H120 0.949 . S
C124 C132 1.574 . S
C124 C140 1.368 . S
H125 C133 0.950 . S
H126 C131 0.950 . S
H127 C132 0.949 . S
H128 C134 0.950 . S
H129 C135 0.950 . S
H130 C136 0.949 . S
C131 H126 0.950 . S
C131 C133 1.327 . S
C131 C137 1.429 . S
C132 C124 1.574 . S
C132 H127 0.949 . S
C132 C138 1.368 . S
C133 C117 1.350 . S
C133 H125 0.950 . S
C133 C131 1.327 . S
C134 C122 1.349 . S
C134 H128 0.950 . S
C134 C135 1.327 . S
C135 H129 0.950 . S
C135 C134 1.327 . S
C135 C139 1.429 . S
C136 C119 1.574 . S
C136 H130 0.949 . S
C136 C140 1.368 . S
C137 C118 1.429 . S
C137 C131 1.429 . S
C137 C138 1.523 . S
C138 C119 1.368 . S
C138 C132 1.368 . S
C138 C137 1.523 . S
C139 C123 1.429 . S
C139 C135 1.429 . S
C139 C140 1.523 . S
C140 C124 1.368 . S
C140 C136 1.368 . S
C140 C139 1.523 . S
H141 C116 0.950 . S
H142 C118 0.950 1_554 S
H143 C119 0.949 . S
H144 C121 0.950 . S
H145 C123 0.950 . S
C146 C147 1.349 . S
C146 C148 1.327 . S
C146 H171 0.950 1_554 S
C147 C146 1.349 . S
C147 C163 1.349 . S
C148 C146 1.327 . S
C148 C167 1.429 . S
C148 H172 0.950 . S
C149 C166 1.574 . S
C149 C168 1.368 . S
C149 H173 0.949 . S
H150 C154 0.949 . S
C151 C152 1.349 . S
C151 C153 1.327 . S
C151 H174 0.950 . S
C152 C151 1.349 . S
C152 C164 1.349 . S
C153 C151 1.327 . S
C153 C169 1.429 . S
C153 H175 0.950 . S
C154 H150 0.949 . S
C154 C162 1.574 . S
C154 C170 1.368 . S
H155 C163 0.950 . S
H156 C161 0.950 . S
H157 C162 0.949 . S
H158 C164 0.950 . S
H159 C165 0.950 . S
H160 C166 0.949 . S
C161 H156 0.950 . S
C161 C163 1.327 . S
C161 C167 1.429 . S
C162 C154 1.574 . S
C162 H157 0.949 . S
C162 C168 1.368 . S
C163 C147 1.349 . S
C163 H155 0.950 . S
C163 C161 1.327 . S
C164 C152 1.349 . S
C164 H158 0.950 . S
C164 C165 1.327 . S
C165 H159 0.950 . S
C165 C164 1.327 . S
C165 C169 1.429 . S
C166 C149 1.574 . S
C166 H160 0.949 . S
C166 C170 1.368 . S
C167 C148 1.429 . S
C167 C161 1.429 . S
C167 C168 1.523 . S
C168 C149 1.368 . S
C168 C162 1.368 . S
C168 C167 1.523 . S
C169 C153 1.429 . S
C169 C165 1.429 . S
C169 C170 1.523 . S
C170 C154 1.368 . S
C170 C166 1.368 . S
C170 C169 1.523 . S
H171 C146 0.950 1_556 S
H172 C148 0.950 . S
H173 C149 0.949 . S
H174 C151 0.950 . S
H175 C153 0.950 . S
C176 C177 1.349 . S
C176 C178 1.327 . S
C176 H201 0.940 1_655 S
C177 C176 1.349 . S
C177 C193 1.349 . S
C178 C176 1.327 . S
C178 C197 1.429 . S
C178 H202 0.950 . S
C179 C196 1.574 . S
C179 C198 1.368 . S
C179 H203 0.949 . S
H180 C184 0.949 . S
C181 C182 1.349 . S
C181 C183 1.327 . S
C181 H204 0.950 . S
C182 C181 1.349 . S
C182 C194 1.349 . S
C183 C181 1.327 . S
C183 C199 1.429 . S
C183 H205 0.950 . S
C184 H180 0.949 . S
C184 C192 1.574 . S
C184 C200 1.368 . S
H185 C193 0.950 . S
H186 C191 0.950 . S
H187 C192 0.949 . S
H188 C194 0.950 . S
H189 C195 0.950 . S
H190 C196 0.949 . S
C191 H186 0.950 . S
C191 C193 1.327 . S
C191 C197 1.429 . S
C192 C184 1.574 . S
C192 H187 0.949 . S
C192 C198 1.368 . S
C193 C177 1.349 . S
C193 H185 0.950 . S
C193 C191 1.327 . S
C194 C182 1.349 . S
C194 H188 0.950 . S
C194 C195 1.327 . S
C195 H189 0.950 . S
C195 C194 1.327 . S
C195 C199 1.429 . S
C196 C179 1.574 . S
C196 H190 0.949 . S
C196 C200 1.368 . S
C197 C178 1.429 . S
C197 C191 1.429 . S
C197 C198 1.523 . S
C198 C179 1.368 . S
C198 C192 1.368 . S
C198 C197 1.523 . S
C199 C183 1.429 . S
C199 C195 1.429 . S
C199 C200 1.523 . S
C200 C184 1.368 . S
C200 C196 1.368 . S
C200 C199 1.523 . S
H201 C176 0.940 1_455 S
H202 C178 0.950 . S
H203 C179 0.949 . S
H204 C181 0.950 . S
H205 C183 0.950 . S
C206 C207 1.349 . S
C206 C208 1.327 . S
C206 H231 0.950 . S
C207 C206 1.349 . S
C207 C223 1.349 . S
C208 C206 1.327 . S
C208 C227 1.429 . S
C208 H232 0.950 . S
C209 C226 1.574 . S
C209 C228 1.368 . S
C209 H233 0.949 . S
H210 C214 0.949 . S
C211 C212 1.349 . S
C211 C213 1.327 . S
C211 H234 0.950 . S
C212 C211 1.349 . S
C212 C224 1.349 . S
C213 C211 1.327 . S
C213 C229 1.429 . S
C213 H235 0.950 . S
C214 H210 0.949 . S
C214 C222 1.574 . S
C214 C230 1.368 . S
H215 C223 0.950 . S
H216 C221 0.950 . S
H217 C222 0.949 . S
H218 C224 0.950 . S
H219 C225 0.950 . S
H220 C226 0.949 . S
C221 H216 0.950 . S
C221 C223 1.327 . S
C221 C227 1.429 . S
C222 C214 1.574 . S
C222 H217 0.949 . S
C222 C228 1.368 . S
C223 C207 1.349 . S
C223 H215 0.950 . S
C223 C221 1.327 . S
C224 C212 1.349 . S
C224 H218 0.950 . S
C224 C225 1.327 . S
C225 H219 0.950 . S
C225 C224 1.327 . S
C225 C229 1.429 . S
C226 C209 1.574 . S
C226 H220 0.949 . S
C226 C230 1.368 . S
C227 C208 1.429 . S
C227 C221 1.429 . S
C227 C228 1.523 . S
C228 C209 1.368 . S
C228 C222 1.368 . S
C228 C227 1.523 . S
C229 C213 1.429 . S
C229 C225 1.429 . S
C229 C230 1.523 . S
C230 C214 1.368 . S
C230 C226 1.368 . S
C230 C229 1.523 . S
H231 C206 0.950 . S
H232 C208 0.950 . S
H233 C209 0.949 . S
H234 C211 0.950 . S
H235 C213 0.950 . S
C236 C237 1.349 . S
C236 C238 1.327 . S
C236 H261 0.950 . S
C237 C236 1.349 . S
C237 C253 1.349 . S
C238 C236 1.327 . S
C238 C257 1.429 . S
C238 H262 0.950 . S
C239 C256 1.574 . S
C239 C258 1.368 . S
C239 H263 0.949 . S
H240 C244 0.949 . S
C241 C242 1.349 . S
C241 C243 1.327 . S
C241 H264 0.950 . S
C242 C241 1.349 . S
C242 C254 1.349 . S
C243 C241 1.327 . S
C243 C259 1.429 . S
C243 H265 0.950 . S
C244 H240 0.949 . S
C244 C252 1.574 . S
C244 C260 1.368 . S
H245 C253 0.950 . S
H246 C251 0.950 . S
H247 C252 0.949 . S
H248 C254 0.950 1_455 S
H249 C255 0.950 . S
H250 C256 0.949 . S
C251 H246 0.950 . S
C251 C253 1.327 . S
C251 C257 1.429 . S
C252 C244 1.574 . S
C252 H247 0.949 . S
C252 C258 1.368 . S
C253 C237 1.349 . S
C253 H245 0.950 . S
C253 C251 1.327 . S
C254 C242 1.349 . S
C254 H248 0.950 1_655 S
C254 C255 1.327 . S
C255 H249 0.950 . S
C255 C254 1.327 . S
C255 C259 1.429 . S
C256 C239 1.574 . S
C256 H250 0.949 . S
C256 C260 1.368 . S
C257 C238 1.429 . S
C257 C251 1.429 . S
C257 C258 1.523 . S
C258 C239 1.368 . S
C258 C252 1.368 . S
C258 C257 1.523 . S
C259 C243 1.429 . S
C259 C255 1.429 . S
C259 C260 1.523 . S
C260 C244 1.368 . S
C260 C256 1.368 . S
C260 C259 1.523 . S
H261 C236 0.950 . S
H262 C238 0.950 . S
H263 C239 0.949 . S
H264 C241 0.950 . S
H265 C243 0.950 . S
C266 C267 1.349 . S
C266 C268 1.327 . S
C266 H291 0.950 . S
C267 C266 1.349 . S
C267 C283 1.349 . S
C268 C266 1.327 . S
C268 C287 1.429 . S
C268 H292 0.950 . S
C269 C286 1.574 . S
C269 C288 1.368 . S
C269 H293 0.949 . S
H270 C274 0.949 . S
C271 C272 1.349 . S
C271 C273 1.327 . S
C271 H294 0.950 . S
C272 C271 1.349 . S
C272 C284 1.349 . S
C273 C271 1.327 . S
C273 C289 1.429 . S
C273 H295 0.950 . S
C274 H270 0.949 . S
C274 C282 1.574 . S
C274 C290 1.368 . S
H275 C283 0.950 . S
H276 C281 0.950 . S
H277 C282 0.949 . S
H278 C284 0.950 . S
H279 C285 0.950 . S
H280 C286 0.949 . S
C281 H276 0.950 . S
C281 C283 1.327 . S
C281 C287 1.429 . S
C282 C274 1.574 . S
C282 H277 0.949 . S
C282 C288 1.368 . S
C283 C267 1.349 . S
C283 H275 0.950 . S
C283 C281 1.327 . S
C284 C272 1.349 . S
C284 H278 0.950 . S
C284 C285 1.327 . S
C285 H279 0.950 . S
C285 C284 1.327 . S
C285 C289 1.429 . S
C286 C269 1.574 . S
C286 H280 0.949 . S
C286 C290 1.368 . S
C287 C268 1.429 . S
C287 C281 1.429 . S
C287 C288 1.523 . S
C288 C269 1.368 . S
C288 C282 1.368 . S
C288 C287 1.523 . S
C289 C273 1.429 . S
C289 C285 1.429 . S
C289 C290 1.523 . S
C290 C274 1.368 . S
C290 C286 1.368 . S
C290 C289 1.523 . S
H291 C266 0.950 . S
H292 C268 0.950 . S
H293 C269 0.949 . S
H294 C271 0.950 . S
H295 C273 0.950 . S
C296 C297 1.349 . S
C296 C298 1.327 . S
C296 H321 0.950 . S
C297 C296 1.349 . S
C297 C313 1.349 . S
C298 C296 1.327 . S
C298 C317 1.429 . S
C298 H322 0.950 . S
C299 C316 1.574 . S
C299 C318 1.368 . S
C299 H323 0.949 . S
H300 C304 0.949 . S
C301 C302 1.349 . S
C301 C303 1.327 . S
C301 H324 0.950 . S
C302 C301 1.349 . S
C302 C314 1.349 . S
C303 C301 1.327 . S
C303 C319 1.429 . S
C303 H325 0.950 . S
C304 H300 0.949 . S
C304 C312 1.574 . S
C304 C320 1.368 . S
H305 C313 0.950 . S
H306 C311 0.950 . S
H307 C312 0.949 . S
H308 C314 0.950 . S
H309 C315 0.950 . S
H310 C316 0.949 . S
C311 H306 0.950 . S
C311 C313 1.327 . S
C311 C317 1.429 . S
C312 C304 1.574 . S
C312 H307 0.949 . S
C312 C318 1.368 . S
C313 C297 1.349 . S
C313 H305 0.950 . S
C313 C311 1.327 . S
C314 C302 1.349 . S
C314 H308 0.950 . S
C314 C315 1.327 . S
C315 H309 0.950 . S
C315 C314 1.327 . S
C315 C319 1.429 . S
C316 C299 1.574 . S
C316 H310 0.949 . S
C316 C320 1.368 . S
C317 C298 1.429 . S
C317 C311 1.429 . S
C317 C318 1.523 . S
C318 C299 1.368 . S
C318 C312 1.368 . S
C318 C317 1.523 . S
C319 C303 1.429 . S
C319 C315 1.429 . S
C319 C320 1.523 . S
C320 C304 1.368 . S
C320 C316 1.368 . S
C320 C319 1.523 . S
H321 C296 0.950 . S
H322 C298 0.950 . S
H323 C299 0.949 . S
H324 C301 0.950 . S
H325 C303 0.950 . S
C326 C327 1.349 1_545 S
C326 C328 1.327 . S
C326 H351 0.950 . S
C327 C326 1.349 1_565 S
C327 C343 1.349 . S
C328 C326 1.327 . S
C328 C347 1.428 1_545 S
C328 H352 0.950 . S
C329 C346 1.574 . S
C329 C348 1.368 1_565 S
C329 H353 0.949 . S
H330 C334 0.949 . S
C331 C332 1.349 1_565 S
C331 C333 1.327 . S
C331 H354 0.950 . S
C332 C331 1.349 1_545 S
C332 C344 1.349 . S
C333 C331 1.327 . S
C333 C349 1.429 1_565 S
C333 H355 0.950 . S
C334 H330 0.949 . S
C334 C342 1.574 . S
C334 C350 1.368 . S
H335 C343 0.950 . S
H336 C341 0.950 . S
H337 C342 0.949 . S
H338 C344 0.950 . S
H339 C345 0.950 . S
H340 C346 0.949 . S
C341 H336 0.950 . S
C341 C343 1.327 . S
C341 C347 1.429 . S
C342 C334 1.574 . S
C342 H337 0.949 . S
C342 C348 1.368 . S
C343 C327 1.349 . S
C343 H335 0.950 . S
C343 C341 1.327 . S
C344 C332 1.349 . S
C344 H338 0.950 . S
C344 C345 1.327 . S
C345 H339 0.950 . S
C345 C344 1.327 . S
C345 C349 1.429 . S
C346 C329 1.574 . S
C346 H340 0.949 . S
C346 C350 1.368 1_565 S
C347 C328 1.428 1_565 S
C347 C341 1.429 . S
C347 C348 1.523 1_565 S
C348 C329 1.368 1_545 S
C348 C342 1.368 . S
C348 C347 1.523 1_545 S
C349 C333 1.429 1_545 S
C349 C345 1.429 . S
C349 C350 1.523 . S
C350 C334 1.368 . S
C350 C346 1.368 1_545 S
C350 C349 1.523 . S
H351 C326 0.950 . S
H352 C328 0.950 . S
H353 C329 0.949 . S
H354 C331 0.950 . S
H355 C333 0.950 . S
C356 C357 1.349 1_545 S
C356 C358 1.327 . S
C356 H381 0.950 . S
C357 C356 1.349 1_565 S
C357 C373 1.349 1_455 S
C358 C356 1.327 . S
C358 C377 1.429 1_545 S
C358 H382 0.950 . S
C359 C376 1.574 . S
C359 C378 1.368 1_665 S
C359 H383 0.949 . S
H360 C364 0.949 . S
C361 C362 1.351 1_565 S
C361 C363 1.327 . S
C361 H384 0.950 . S
C362 C361 1.351 1_545 S
C362 C374 1.347 1_655 S
C363 C361 1.327 . S
C363 C379 1.429 1_665 S
C363 H385 0.950 . S
C364 H360 0.949 . S
C364 C372 1.574 . S
C364 C380 1.368 . S
H365 C373 0.950 . S
H366 C371 0.950 . S
H367 C372 0.949 . S
H368 C374 0.950 . S
H369 C375 0.950 . S
H370 C376 0.949 . S
C371 H366 0.950 . S
C371 C373 1.327 . S
C371 C377 1.429 1_655 S
C372 C364 1.574 . S
C372 H367 0.949 . S
C372 C378 1.368 . S
C373 C357 1.349 1_655 S
C373 H365 0.950 . S
C373 C371 1.327 . S
C374 C362 1.347 1_455 S
C374 H368 0.950 . S
C374 C375 1.327 . S
C375 H369 0.950 . S
C375 C374 1.327 . S
C375 C379 1.429 . S
C376 C359 1.574 . S
C376 H370 0.949 . S
C376 C380 1.368 1_665 S
C377 C358 1.429 1_565 S
C377 C371 1.429 1_455 S
C377 C378 1.523 1_565 S
C378 C359 1.368 1_445 S
C378 C372 1.368 . S
C378 C377 1.523 1_545 S
C379 C363 1.429 1_445 S
C379 C375 1.429 . S
C379 C380 1.523 . S
C380 C364 1.368 . S
C380 C376 1.368 1_445 S
C380 C379 1.523 . S
H381 C356 0.950 . S
H382 C358 0.950 . S
H383 C359 0.949 . S
H384 C361 0.950 . S
H385 C363 0.950 . S
C386 C387 1.349 . S
C386 C388 1.327 . S
C386 H411 0.950 . S
C387 C386 1.349 . S
C387 C403 1.349 . S
C388 C386 1.327 . S
C388 C407 1.429 . S
C388 H412 0.950 . S
C389 C406 1.574 . S
C389 C408 1.368 . S
C389 H413 0.949 . S
H390 C394 0.949 . S
C391 C392 1.349 . S
C391 C393 1.327 . S
C391 H414 0.950 . S
C392 C391 1.349 . S
C392 C404 1.349 . S
C393 C391 1.327 . S
C393 C409 1.429 . S
C393 H415 0.950 . S
C394 H390 0.949 . S
C394 C402 1.574 . S
C394 C410 1.368 . S
H395 C403 0.950 . S
H396 C401 0.950 . S
H397 C402 0.949 . S
H398 C404 0.950 . S
H399 C405 0.950 . S
H400 C406 0.949 . S
C401 H396 0.950 . S
C401 C403 1.327 . S
C401 C407 1.429 . S
C402 C394 1.574 . S
C402 H397 0.949 . S
C402 C408 1.368 . S
C403 C387 1.349 . S
C403 H395 0.950 . S
C403 C401 1.327 . S
C404 C392 1.349 . S
C404 H398 0.950 . S
C404 C405 1.327 . S
C405 H399 0.950 . S
C405 C404 1.327 . S
C405 C409 1.429 . S
C406 C389 1.574 . S
C406 H400 0.949 . S
C406 C410 1.368 . S
C407 C388 1.429 . S
C407 C401 1.429 . S
C407 C408 1.523 . S
C408 C389 1.368 . S
C408 C402 1.368 . S
C408 C407 1.523 . S
C409 C393 1.429 . S
C409 C405 1.429 . S
C409 C410 1.523 . S
C410 C394 1.368 . S
C410 C406 1.368 . S
C410 C409 1.523 . S
H411 C386 0.950 . S
H412 C388 0.950 . S
H413 C389 0.949 . S
H414 C391 0.950 . S
H415 C393 0.950 . S
C416 C417 1.349 . S
C416 C418 1.327 . S
C416 H441 0.950 . S
C417 C416 1.349 . S
C417 C433 1.349 . S
C418 C416 1.327 . S
C418 C437 1.429 . S
C418 H442 0.950 . S
C419 C436 1.574 . S
C419 C438 1.368 . S
C419 H443 0.949 . S
H420 C424 0.949 . S
C421 C422 1.349 . S
C421 C423 1.327 . S
C421 H444 0.950 . S
C422 C421 1.349 . S
C422 C434 1.349 . S
C423 C421 1.327 . S
C423 C439 1.429 . S
C423 H445 0.950 . S
C424 H420 0.949 . S
C424 C432 1.574 . S
C424 C440 1.368 . S
H425 C433 0.950 . S
H426 C431 0.950 . S
H427 C432 0.949 . S
H428 C434 0.950 . S
H429 C435 0.950 . S
H430 C436 0.949 . S
C431 H426 0.950 . S
C431 C433 1.327 . S
C431 C437 1.429 . S
C432 C424 1.574 . S
C432 H427 0.949 . S
C432 C438 1.368 . S
C433 C417 1.349 . S
C433 H425 0.950 . S
C433 C431 1.327 . S
C434 C422 1.349 . S
C434 H428 0.950 . S
C434 C435 1.327 . S
C435 H429 0.950 . S
C435 C434 1.327 . S
C435 C439 1.429 . S
C436 C419 1.574 . S
C436 H430 0.949 . S
C436 C440 1.368 . S
C437 C418 1.429 . S
C437 C431 1.429 . S
C437 C438 1.523 . S
C438 C419 1.368 . S
C438 C432 1.368 . S
C438 C437 1.523 . S
C439 C423 1.429 . S
C439 C435 1.429 . S
C439 C440 1.523 . S
C440 C424 1.368 . S
C440 C436 1.368 . S
C440 C439 1.523 . S
H441 C416 0.950 . S
H442 C418 0.950 . S
H443 C419 0.949 . S
H444 C421 0.950 . S
H445 C423 0.950 . S
C92 C81 1.277 . S
C87 C3 1.169 . S
C117 C4 1.449 1_556 S
C122 N68 1.526 . S
C147 C19 1.477 . S
C152 N79 1.548 . S
C177 C7 1.172 . S
C182 C70 1.287 . S
C207 C37 1.169 . S
C212 C59 1.277 . S
C237 C28 1.450 . S
C242 N46 1.526 1_655 S
C272 N57 1.548 . S
C267 C41 1.477 . S
C302 C48 1.287 . S
C297 C25 1.172 . S
C327 C20 1.338 . S
C332 C51 1.464 . S
C357 C16 1.388 . S
C362 C62 1.513 . S
C392 C73 1.464 . S
C387 C40 1.338 . S
C417 C24 1.388 . S
C422 C84 1.514 . S
