# Generated by pormake.
# Topology ptr, (4,4)-cn, num edge types: 1
# Building blocks:
#     Node 0, Type 0, BuildingBlock: AZAVOO_clean_sbu_0, # of connection points: 4
#     Node 1, Type 0, BuildingBlock: AZAVOO_clean_sbu_0, # of connection points: 4
#     Node 2, Type 0, BuildingBlock: AZAVOO_clean_sbu_0, # of connection points: 4
#     Node 3, Type 0, BuildingBlock: AZAVOO_clean_sbu_0, # of connection points: 4
#     Node 4, Type 0, BuildingBlock: AZAVOO_clean_sbu_0, # of connection points: 4
#     Node 5, Type 0, BuildingBlock: AZAVOO_clean_sbu_0, # of connection points: 4
#     Node 6, Type 0, BuildingBlock: AZAVOO_clean_sbu_0, # of connection points: 4
#     Node 7, Type 0, BuildingBlock: AZAVOO_clean_sbu_0, # of connection points: 4
#     Node 8, Type 0, BuildingBlock: AZAVOO_clean_sbu_0, # of connection points: 4
#     Node 9, Type 0, BuildingBlock: AZAVOO_clean_sbu_0, # of connection points: 4
#     Node 10, Type 0, BuildingBlock: AZAVOO_clean_sbu_0, # of connection points: 4
#     Node 11, Type 0, BuildingBlock: AZAVOO_clean_sbu_0, # of connection points: 4
#     Node 12, Type 0, BuildingBlock: AZAVOO_clean_sbu_0, # of connection points: 4
#     Node 13, Type 0, BuildingBlock: AZAVOO_clean_sbu_0, # of connection points: 4
#     Node 14, Type 0, BuildingBlock: AZAVOO_clean_sbu_0, # of connection points: 4
#     Node 15, Type 0, BuildingBlock: AZAVOO_clean_sbu_0, # of connection points: 4
#     Node 16, Type 0, BuildingBlock: AZAVOO_clean_sbu_0, # of connection points: 4
#     Node 17, Type 0, BuildingBlock: AZAVOO_clean_sbu_0, # of connection points: 4
#     Node 18, Type 1, BuildingBlock: NAHDIM_clean_linker_0, # of connection points: 4
#     Node 19, Type 1, BuildingBlock: NAHDIM_clean_linker_0, # of connection points: 4
#     Node 20, Type 1, BuildingBlock: NAHDIM_clean_linker_0, # of connection points: 4
#     Node 21, Type 1, BuildingBlock: NAHDIM_clean_linker_0, # of connection points: 4
#     Node 22, Type 1, BuildingBlock: NAHDIM_clean_linker_0, # of connection points: 4
#     Node 23, Type 1, BuildingBlock: NAHDIM_clean_linker_0, # of connection points: 4
#     Node 24, Type 1, BuildingBlock: NAHDIM_clean_linker_0, # of connection points: 4
#     Node 25, Type 1, BuildingBlock: NAHDIM_clean_linker_0, # of connection points: 4
#     Node 26, Type 1, BuildingBlock: NAHDIM_clean_linker_0, # of connection points: 4
#     Node 27, Type 1, BuildingBlock: NAHDIM_clean_linker_0, # of connection points: 4
#     Node 28, Type 1, BuildingBlock: NAHDIM_clean_linker_0, # of connection points: 4
#     Node 29, Type 1, BuildingBlock: NAHDIM_clean_linker_0, # of connection points: 4
#     Node 30, Type 1, BuildingBlock: NAHDIM_clean_linker_0, # of connection points: 4
#     Node 31, Type 1, BuildingBlock: NAHDIM_clean_linker_0, # of connection points: 4
#     Node 32, Type 1, BuildingBlock: NAHDIM_clean_linker_0, # of connection points: 4
#     Node 33, Type 1, BuildingBlock: NAHDIM_clean_linker_0, # of connection points: 4
#     Node 34, Type 1, BuildingBlock: NAHDIM_clean_linker_0, # of connection points: 4
#     Node 35, Type 1, BuildingBlock: NAHDIM_clean_linker_0, # of connection points: 4
#     Edge 36, Type (0, 1), BuildingBlock: KIFKEQ_clean_linker_1, # of connection points: 2
#     Edge 37, Type (0, 1), BuildingBlock: KIFKEQ_clean_linker_1, # of connection points: 2
#     Edge 38, Type (0, 1), BuildingBlock: KIFKEQ_clean_linker_1, # of connection points: 2
#     Edge 39, Type (0, 1), BuildingBlock: KIFKEQ_clean_linker_1, # of connection points: 2
#     Edge 40, Type (0, 1), BuildingBlock: KIFKEQ_clean_linker_1, # of connection points: 2
#     Edge 41, Type (0, 1), BuildingBlock: KIFKEQ_clean_linker_1, # of connection points: 2
#     Edge 42, Type (0, 1), BuildingBlock: KIFKEQ_clean_linker_1, # of connection points: 2
#     Edge 43, Type (0, 1), BuildingBlock: KIFKEQ_clean_linker_1, # of connection points: 2
#     Edge 44, Type (0, 1), BuildingBlock: KIFKEQ_clean_linker_1, # of connection points: 2
#     Edge 45, Type (0, 1), BuildingBlock: KIFKEQ_clean_linker_1, # of connection points: 2
#     Edge 46, Type (0, 1), BuildingBlock: KIFKEQ_clean_linker_1, # of connection points: 2
#     Edge 47, Type (0, 1), BuildingBlock: KIFKEQ_clean_linker_1, # of connection points: 2
#     Edge 48, Type (0, 1), BuildingBlock: KIFKEQ_clean_linker_1, # of connection points: 2
#     Edge 49, Type (0, 1), BuildingBlock: KIFKEQ_clean_linker_1, # of connection points: 2
#     Edge 50, Type (0, 1), BuildingBlock: KIFKEQ_clean_linker_1, # of connection points: 2
#     Edge 51, Type (0, 1), BuildingBlock: KIFKEQ_clean_linker_1, # of connection points: 2
#     Edge 52, Type (0, 1), BuildingBlock: KIFKEQ_clean_linker_1, # of connection points: 2
#     Edge 53, Type (0, 1), BuildingBlock: KIFKEQ_clean_linker_1, # of connection points: 2
#     Edge 54, Type (0, 1), BuildingBlock: KIFKEQ_clean_linker_1, # of connection points: 2
#     Edge 55, Type (0, 1), BuildingBlock: KIFKEQ_clean_linker_1, # of connection points: 2
#     Edge 56, Type (0, 1), BuildingBlock: KIFKEQ_clean_linker_1, # of connection points: 2
#     Edge 57, Type (0, 1), BuildingBlock: KIFKEQ_clean_linker_1, # of connection points: 2
#     Edge 58, Type (0, 1), BuildingBlock: KIFKEQ_clean_linker_1, # of connection points: 2
#     Edge 59, Type (0, 1), BuildingBlock: KIFKEQ_clean_linker_1, # of connection points: 2
#     Edge 60, Type (0, 1), BuildingBlock: KIFKEQ_clean_linker_1, # of connection points: 2
#     Edge 61, Type (0, 1), BuildingBlock: KIFKEQ_clean_linker_1, # of connection points: 2
#     Edge 62, Type (0, 1), BuildingBlock: KIFKEQ_clean_linker_1, # of connection points: 2
#     Edge 63, Type (0, 1), BuildingBlock: KIFKEQ_clean_linker_1, # of connection points: 2
#     Edge 64, Type (0, 1), BuildingBlock: KIFKEQ_clean_linker_1, # of connection points: 2
#     Edge 65, Type (0, 1), BuildingBlock: KIFKEQ_clean_linker_1, # of connection points: 2
#     Edge 66, Type (0, 1), BuildingBlock: KIFKEQ_clean_linker_1, # of connection points: 2
#     Edge 67, Type (0, 1), BuildingBlock: KIFKEQ_clean_linker_1, # of connection points: 2
#     Edge 68, Type (0, 1), BuildingBlock: KIFKEQ_clean_linker_1, # of connection points: 2
#     Edge 69, Type (0, 1), BuildingBlock: KIFKEQ_clean_linker_1, # of connection points: 2
#     Edge 70, Type (0, 1), BuildingBlock: KIFKEQ_clean_linker_1, # of connection points: 2
#     Edge 71, Type (0, 1), BuildingBlock: KIFKEQ_clean_linker_1, # of connection points: 2
#     Edge 72, Type (0, 1), BuildingBlock: KIFKEQ_clean_linker_1, # of connection points: 2
#     Edge 73, Type (0, 1), BuildingBlock: KIFKEQ_clean_linker_1, # of connection points: 2
#     Edge 74, Type (0, 1), BuildingBlock: KIFKEQ_clean_linker_1, # of connection points: 2
#     Edge 75, Type (0, 1), BuildingBlock: KIFKEQ_clean_linker_1, # of connection points: 2
#     Edge 76, Type (0, 1), BuildingBlock: KIFKEQ_clean_linker_1, # of connection points: 2
#     Edge 77, Type (0, 1), BuildingBlock: KIFKEQ_clean_linker_1, # of connection points: 2
#     Edge 78, Type (0, 1), BuildingBlock: KIFKEQ_clean_linker_1, # of connection points: 2
#     Edge 79, Type (0, 1), BuildingBlock: KIFKEQ_clean_linker_1, # of connection points: 2
#     Edge 80, Type (0, 1), BuildingBlock: KIFKEQ_clean_linker_1, # of connection points: 2
#     Edge 81, Type (0, 1), BuildingBlock: KIFKEQ_clean_linker_1, # of connection points: 2
#     Edge 82, Type (0, 1), BuildingBlock: KIFKEQ_clean_linker_1, # of connection points: 2
#     Edge 83, Type (0, 1), BuildingBlock: KIFKEQ_clean_linker_1, # of connection points: 2
#     Edge 84, Type (0, 1), BuildingBlock: KIFKEQ_clean_linker_1, # of connection points: 2
#     Edge 85, Type (0, 1), BuildingBlock: KIFKEQ_clean_linker_1, # of connection points: 2
#     Edge 86, Type (0, 1), BuildingBlock: KIFKEQ_clean_linker_1, # of connection points: 2
#     Edge 87, Type (0, 1), BuildingBlock: KIFKEQ_clean_linker_1, # of connection points: 2
#     Edge 88, Type (0, 1), BuildingBlock: KIFKEQ_clean_linker_1, # of connection points: 2
#     Edge 89, Type (0, 1), BuildingBlock: KIFKEQ_clean_linker_1, # of connection points: 2
#     Edge 90, Type (0, 1), BuildingBlock: KIFKEQ_clean_linker_1, # of connection points: 2
#     Edge 91, Type (0, 1), BuildingBlock: KIFKEQ_clean_linker_1, # of connection points: 2
#     Edge 92, Type (0, 1), BuildingBlock: KIFKEQ_clean_linker_1, # of connection points: 2
#     Edge 93, Type (0, 1), BuildingBlock: KIFKEQ_clean_linker_1, # of connection points: 2
#     Edge 94, Type (0, 1), BuildingBlock: KIFKEQ_clean_linker_1, # of connection points: 2
#     Edge 95, Type (0, 1), BuildingBlock: KIFKEQ_clean_linker_1, # of connection points: 2
#     Edge 96, Type (0, 1), BuildingBlock: KIFKEQ_clean_linker_1, # of connection points: 2
#     Edge 97, Type (0, 1), BuildingBlock: KIFKEQ_clean_linker_1, # of connection points: 2
#     Edge 98, Type (0, 1), BuildingBlock: KIFKEQ_clean_linker_1, # of connection points: 2
#     Edge 99, Type (0, 1), BuildingBlock: KIFKEQ_clean_linker_1, # of connection points: 2
#     Edge 100, Type (0, 1), BuildingBlock: KIFKEQ_clean_linker_1, # of connection points: 2
#     Edge 101, Type (0, 1), BuildingBlock: KIFKEQ_clean_linker_1, # of connection points: 2
#     Edge 102, Type (0, 1), BuildingBlock: KIFKEQ_clean_linker_1, # of connection points: 2
#     Edge 103, Type (0, 1), BuildingBlock: KIFKEQ_clean_linker_1, # of connection points: 2
#     Edge 104, Type (0, 1), BuildingBlock: KIFKEQ_clean_linker_1, # of connection points: 2
#     Edge 105, Type (0, 1), BuildingBlock: KIFKEQ_clean_linker_1, # of connection points: 2
#     Edge 106, Type (0, 1), BuildingBlock: KIFKEQ_clean_linker_1, # of connection points: 2
#     Edge 107, Type (0, 1), BuildingBlock: KIFKEQ_clean_linker_1, # of connection points: 2
# Relax obj value: 0.102
# Max RMSD: 0.341
# Mean RMSD: 0.135
data_MOF--net-ptr--node1-AZAVOO_clean_sbu_0--node2-NAHDIM_clean_linker_0--edge1-KIFKEQ_clean_linker_1
_symmetry_space_group_name_H-M    P1
_symmetry_Int_Tables_number       1
_symmetry_cell_setting            triclinic
loop_
_symmetry_equiv_pos_as_xyz
'x, y, z'
_cell_length_a     96.387291
_cell_length_b     94.343573
_cell_length_c     78.890242
_cell_angle_alpha  91.756067
_cell_angle_beta   91.228411
_cell_angle_gamma 120.30569
loop_
_atom_site_label
_atom_site_type_symbol
_atom_site_fract_x
_atom_site_fract_y
_atom_site_fract_z
_atom_type_partial_charge
Mg0 Mg 0.02171 0.34309 0.98953 0.0
O1 O 0.01001 0.35089 0.00994 0.0
O2 O 0.98954 0.35222 0.99791 0.0
Mg3 Mg 0.98699 0.34345 0.96998 0.0
C4 C 0.99862 0.35403 0.0108 0.0
C5 C 0.03832 0.32746 0.0112 0.0
O6 O 0.03066 0.31531 0.99978 0.0
O7 O 0.00147 0.3161 0.98969 0.0
O8 O 0.9815 0.31768 0.97667 0.0
O9 O 0.03616 0.36961 0.98241 0.0
O10 O 0.01264 0.35129 0.97044 0.0
C11 C 0.98707 0.30932 0.98341 0.0
C12 C 0.02439 0.36616 0.97168 0.0
O13 O 0.03681 0.34007 0.01041 0.0
Mg14 Mg 0.67122 0.65235 0.03284 0.0
O15 O 0.64967 0.64634 0.01483 0.0
O16 O 0.62942 0.64242 0.03109 0.0
Mg17 Mg 0.63754 0.64521 0.05901 0.0
C18 C 0.6352 0.64308 0.01652 0.0
C19 C 0.70202 0.67491 0.015 0.0
O20 O 0.70475 0.6816 0.03046 0.0
O21 O 0.67502 0.67779 0.03902 0.0
O22 O 0.65517 0.6728 0.05633 0.0
O23 O 0.66305 0.62558 0.03395 0.0
O24 O 0.65585 0.63915 0.05155 0.0
C25 C 0.66777 0.68277 0.04872 0.0
C26 C 0.65458 0.62543 0.04655 0.0
O27 O 0.6886 0.66199 0.01129 0.0
Mg28 Mg 0.33246 0.98402 0.98171 0.0
O29 O 0.34969 0.99245 0.00505 0.0
O30 O 0.37275 0.0148 0.99912 0.0
Mg31 Mg 0.37001 0.02089 0.97181 0.0
C32 C 0.364 0.00381 0.0093 0.0
C33 C 0.29831 0.96678 0.99413 0.0
O34 O 0.29729 0.97373 0.98034 0.0
O35 O 0.32763 0.00505 0.98613 0.0
O36 O 0.35067 0.02708 0.97932 0.0
O37 O 0.34344 0.96929 0.97223 0.0
O38 O 0.35154 0.99494 0.96596 0.0
C39 C 0.33623 0.02046 0.98416 0.0
C40 C 0.35347 0.98245 0.96478 0.0
O41 O 0.31168 0.96793 0.99824 0.0
Mg42 Mg 0.98873 0.66437 0.03046 0.0
O43 O 0.00153 0.65733 0.01068 0.0
O44 O 0.02158 0.65606 0.02387 0.0
Mg45 Mg 0.02109 0.66172 0.0523 0.0
C46 C 0.0133 0.65474 0.01042 0.0
C47 C 0.96266 0.66728 0.00808 0.0
O48 O 0.95269 0.65659 0.01852 0.0
O49 O 0.00953 0.69067 0.03321 0.0
O50 O 0.02852 0.68871 0.04786 0.0
O51 O 0.97231 0.63763 0.03461 0.0
O52 O 0.99524 0.65355 0.04909 0.0
C53 C 0.02337 0.69728 0.04077 0.0
C54 C 0.98294 0.63913 0.04597 0.0
O55 O 0.97751 0.67187 0.00946 0.0
Mg56 Mg 0.33812 0.34887 0.99177 0.0
O57 O 0.3591 0.35411 0.01006 0.0
O58 O 0.3798 0.35823 0.99448 0.0
Mg59 Mg 0.37221 0.35653 0.9663 0.0
C60 C 0.37355 0.35721 0.00885 0.0
C61 C 0.31313 0.34515 0.0188 0.0
O62 O 0.31706 0.35982 0.01378 0.0
O63 O 0.33429 0.32367 0.98483 0.0
O64 O 0.35391 0.32859 0.96719 0.0
O65 O 0.34607 0.37555 0.99176 0.0
O66 O 0.35412 0.36309 0.97372 0.0
C67 C 0.34122 0.31865 0.97472 0.0
C68 C 0.35493 0.3765 0.97923 0.0
O69 O 0.32024 0.338 0.0127 0.0
Mg70 Mg 0.67346 0.0145 0.04042 0.0
O71 O 0.65556 0.0027 0.01763 0.0
O72 O 0.63249 0.98255 0.02694 0.0
Mg73 Mg 0.63582 0.98155 0.05568 0.0
C74 C 0.64098 0.99118 0.01498 0.0
C75 C 0.69478 0.03237 0.00877 0.0
O76 O 0.68235 0.03342 0.00339 0.0
O77 O 0.67677 0.99259 0.04139 0.0
O78 O 0.65433 0.97292 0.05219 0.0
O79 O 0.66489 0.03214 0.04498 0.0
O80 O 0.65457 0.00793 0.05642 0.0
C81 C 0.66841 0.97817 0.04671 0.0
C82 C 0.65408 0.02115 0.05423 0.0
O83 O 0.69438 0.02608 0.02289 0.0
Mg84 Mg 0.68718 0.68355 0.32941 0.0
O85 O 0.67244 0.69073 0.34663 0.0
O86 O 0.65737 0.69673 0.32978 0.0
Mg87 Mg 0.66178 0.69274 0.30214 0.0
C88 C 0.66218 0.69539 0.34454 0.0
C89 C 0.70896 0.68016 0.35702 0.0
O90 O 0.71967 0.69346 0.34981 0.0
O91 O 0.66506 0.65843 0.32268 0.0
O92 O 0.6503 0.66493 0.30587 0.0
O93 O 0.70617 0.71014 0.32881 0.0
O94 O 0.68581 0.69738 0.31 0.0
C95 C 0.65249 0.65433 0.31333 0.0
C96 C 0.69834 0.71079 0.3156 0.0
O97 O 0.69429 0.67335 0.35187 0.0
Mg98 Mg 0.33061 0.98667 0.36953 0.0
O99 O 0.30968 0.981 0.3507 0.0
O100 O 0.28912 0.97744 0.36619 0.0
Mg101 Mg 0.29638 0.98001 0.39443 0.0
C102 C 0.29524 0.97797 0.35186 0.0
C103 C 0.3613 0.99488 0.35336 0.0
O104 O 0.36302 0.99239 0.36938 0.0
O105 O 0.33534 0.0127 0.37522 0.0
O106 O 0.31516 0.0073 0.39226 0.0
O107 O 0.32194 0.95986 0.37103 0.0
O108 O 0.31464 0.9737 0.38806 0.0
C109 C 0.32803 0.01746 0.38516 0.0
C110 C 0.31338 0.9599 0.38343 0.0
O111 O 0.34843 0.99443 0.34847 0.0
Mg112 Mg 0.00807 0.32056 0.32233 0.0
O113 O 0.02891 0.33078 0.34246 0.0
O114 O 0.05204 0.34338 0.32905 0.0
Mg115 Mg 0.04611 0.34283 0.30079 0.0
C116 C 0.04428 0.33862 0.3426 0.0
C117 C 0.97844 0.31703 0.34094 0.0
O118 O 0.9778 0.32434 0.32728 0.0
O119 O 0.01173 0.3463 0.32013 0.0
O120 O 0.03494 0.35882 0.30682 0.0
O121 O 0.00986 0.2979 0.31799 0.0
O122 O 0.02294 0.32048 0.30382 0.0
C123 C 0.02306 0.35895 0.31356 0.0
C124 C 0.02021 0.30598 0.30674 0.0
O125 O 0.98992 0.31419 0.343 0.0
Mg126 Mg 0.65143 0.97496 0.35485 0.0
O127 O 0.66721 0.9703 0.3367 0.0
O128 O 0.68513 0.96785 0.35293 0.0
Mg129 Mg 0.68069 0.97052 0.38091 0.0
C130 C 0.67914 0.968 0.33838 0.0
C131 C 0.62655 0.97939 0.33673 0.0
O132 O 0.62018 0.97161 0.35055 0.0
O133 O 0.67171 0.00116 0.36044 0.0
O134 O 0.68825 0.99777 0.37792 0.0
O135 O 0.63431 0.94811 0.35636 0.0
O136 O 0.65555 0.96243 0.37373 0.0
C137 C 0.68433 0.00703 0.37016 0.0
C138 C 0.64322 0.94844 0.36907 0.0
O139 O 0.6408 0.98289 0.33364 0.0
Mg140 Mg 0.01638 0.6899 0.32644 0.0
O141 O 0.03646 0.69686 0.34674 0.0
O142 O 0.05875 0.70302 0.33305 0.0
Mg143 Mg 0.05316 0.70118 0.3043 0.0
C144 C 0.05136 0.70122 0.34679 0.0
C145 C 0.98374 0.66592 0.33889 0.0
O146 O 0.98303 0.66218 0.32259 0.0
O147 O 0.0155 0.66578 0.32053 0.0
O148 O 0.03683 0.67291 0.3047 0.0
O149 O 0.02213 0.71603 0.3256 0.0
O150 O 0.03284 0.70487 0.30942 0.0
C151 C 0.02404 0.66202 0.31139 0.0
C152 C 0.03196 0.71761 0.31386 0.0
O153 O 0.99681 0.6777 0.3455 0.0
Mg154 Mg 0.32723 0.35177 0.36376 0.0
O155 O 0.30734 0.33616 0.34365 0.0
O156 O 0.28619 0.31713 0.35691 0.0
Mg157 Mg 0.29256 0.32122 0.38559 0.0
C158 C 0.29303 0.32386 0.34334 0.0
C159 C 0.3597 0.36404 0.34926 0.0
O160 O 0.36153 0.36186 0.36535 0.0
O161 O 0.33179 0.33089 0.36754 0.0
O162 O 0.3114 0.31296 0.38249 0.0
O163 O 0.31813 0.36918 0.36673 0.0
O164 O 0.31053 0.34727 0.38185 0.0
C165 C 0.32476 0.31762 0.37542 0.0
C166 C 0.30932 0.35988 0.37847 0.0
O167 O 0.34607 0.36142 0.34376 0.0
Mg168 Mg 0.35262 0.01916 0.66118 0.0
O169 O 0.33717 0.02483 0.67895 0.0
O170 O 0.31919 0.02699 0.66255 0.0
Mg171 Mg 0.32291 0.02276 0.63472 0.0
C172 C 0.32541 0.0274 0.67715 0.0
C173 C 0.37814 0.02148 0.68757 0.0
O174 O 0.38663 0.03469 0.67899 0.0
O175 O 0.3321 0.99254 0.6564 0.0
O176 O 0.31529 0.99583 0.63923 0.0
O177 O 0.3693 0.04615 0.65851 0.0
O178 O 0.34811 0.03079 0.64146 0.0
C179 C 0.31918 0.9866 0.64708 0.0
C180 C 0.36006 0.04511 0.64581 0.0
O181 O 0.36322 0.01232 0.68365 0.0
Mg182 Mg 0.99311 0.31234 0.7005 0.0
O183 O 0.97244 0.30383 0.68036 0.0
O184 O 0.94974 0.29398 0.69449 0.0
Mg185 Mg 0.95547 0.29494 0.72287 0.0
C186 C 0.95719 0.29754 0.68066 0.0
C187 C 0.02492 0.32611 0.68402 0.0
O188 O 0.02583 0.31838 0.69721 0.0
O189 O 0.99069 0.33467 0.70775 0.0
O190 O 0.96853 0.32302 0.72282 0.0
O191 O 0.99058 0.28741 0.69942 0.0
O192 O 0.97749 0.29489 0.71672 0.0
C193 C 0.98044 0.33569 0.71696 0.0
C194 C 0.97994 0.28349 0.71081 0.0
O195 O 0.01201 0.32635 0.68118 0.0
Mg196 Mg 0.6724 0.64942 0.66249 0.0
O197 O 0.69395 0.66414 0.68148 0.0
O198 O 0.71459 0.68175 0.66647 0.0
Mg199 Mg 0.70669 0.67821 0.63847 0.0
C200 C 0.70857 0.67565 0.68055 0.0
C201 C 0.64125 0.63903 0.68006 0.0
O202 O 0.63893 0.64315 0.66495 0.0
O203 O 0.66935 0.67161 0.66001 0.0
O204 O 0.69003 0.68842 0.64458 0.0
O205 O 0.67989 0.63078 0.65803 0.0
O206 O 0.68787 0.65292 0.64325 0.0
C207 C 0.67732 0.68497 0.65243 0.0
C208 C 0.68868 0.64003 0.64626 0.0
O209 O 0.65469 0.64016 0.68375 0.0
Mg210 Mg 0.31803 0.31804 0.68425 0.0
O211 O 0.33363 0.31295 0.66628 0.0
O212 O 0.35058 0.30889 0.68236 0.0
Mg213 Mg 0.34564 0.31098 0.71034 0.0
C214 C 0.34505 0.30985 0.66785 0.0
C215 C 0.29499 0.32237 0.65914 0.0
O216 O 0.28441 0.30899 0.66635 0.0
O217 O 0.339 0.34364 0.69125 0.0
O218 O 0.3545 0.33859 0.70855 0.0
O219 O 0.30001 0.29096 0.68507 0.0
O220 O 0.32103 0.30465 0.7028 0.0
C221 C 0.35133 0.34861 0.70124 0.0
C222 C 0.30859 0.2909 0.69791 0.0
O223 O 0.30984 0.32839 0.66302 0.0
Mg224 Mg 0.67992 0.01821 0.65008 0.0
O225 O 0.70131 0.02488 0.66832 0.0
O226 O 0.72128 0.0268 0.65283 0.0
Mg227 Mg 0.71319 0.02365 0.6246 0.0
C228 C 0.71552 0.02729 0.66713 0.0
C229 C 0.66264 0.01952 0.68275 0.0
O230 O 0.67309 0.03528 0.68196 0.0
O231 O 0.67585 0.99259 0.64537 0.0
O232 O 0.6947 0.99598 0.62727 0.0
O233 O 0.68771 0.04454 0.64812 0.0
O234 O 0.69544 0.03105 0.63105 0.0
C235 C 0.6823 0.98675 0.6356 0.0
C236 C 0.69634 0.04474 0.63567 0.0
O237 O 0.66281 0.00947 0.67178 0.0
Mg238 Mg 0.98587 0.67887 0.69632 0.0
O239 O 0.96606 0.66554 0.67546 0.0
O240 O 0.94289 0.65012 0.688 0.0
Mg241 Mg 0.94795 0.65428 0.71685 0.0
C242 C 0.95094 0.65534 0.67467 0.0
C243 C 0.01943 0.69573 0.68219 0.0
O244 O 0.02182 0.70312 0.69726 0.0
O245 O 0.98516 0.65521 0.70175 0.0
O246 O 0.96266 0.64096 0.71579 0.0
O247 O 0.98187 0.70008 0.69726 0.0
O248 O 0.96941 0.67849 0.71303 0.0
C249 C 0.97559 0.64262 0.70974 0.0
C250 C 0.97144 0.69243 0.70862 0.0
O251 O 0.00521 0.68485 0.67732 0.0
C252 C 0.1984 0.25737 0.04928 0.0
C253 C 0.20358 0.27196 0.06191 0.0
C254 C 0.19385 0.27023 0.0903 0.0
C255 C 0.19704 0.28636 0.0932 0.0
C256 C 0.18874 0.28997 0.10542 0.0
C257 C 0.17673 0.27708 0.11456 0.0
C258 C 0.17358 0.26079 0.11163 0.0
C259 C 0.18253 0.25769 0.09985 0.0
C260 C 0.19274 0.30753 0.10841 0.0
C261 C 0.1605 0.24653 0.12059 0.0
C262 C 0.08964 0.315 0.08418 0.0
C263 C 0.10052 0.31418 0.09737 0.0
C264 C 0.11106 0.29637 0.10531 0.0
C265 C 0.10841 0.28037 0.10436 0.0
C266 C 0.11894 0.27639 0.11269 0.0
C267 C 0.13269 0.28885 0.12193 0.0
C268 C 0.13552 0.30513 0.12288 0.0
C269 C 0.12456 0.30866 0.11479 0.0
C270 C 0.1154 0.25887 0.11153 0.0
C271 C 0.15025 0.31886 0.13225 0.0
C272 C 0.11083 0.27628 0.2318 0.0
C273 C 0.1085 0.26178 0.22357 0.0
C274 C 0.12055 0.26193 0.21377 0.0
C275 C 0.13521 0.27686 0.21227 0.0
C276 C 0.13785 0.2913 0.22117 0.0
C277 C 0.12562 0.29078 0.23091 0.0
C278 C 0.11751 0.24623 0.20472 0.0
C279 C 0.15343 0.30736 0.22002 0.0
C280 C 0.24477 0.26796 0.22128 0.0
C281 C 0.2369 0.27749 0.22802 0.0
C282 C 0.20884 0.2695 0.22125 0.0
C283 C 0.19409 0.25579 0.216 0.0
C284 C 0.18183 0.25756 0.20829 0.0
C285 C 0.18436 0.2735 0.206 0.0
C286 C 0.19906 0.28745 0.21181 0.0
C287 C 0.21115 0.28531 0.21945 0.0
C288 C 0.16622 0.24243 0.20247 0.0
C289 C 0.20198 0.3046 0.20992 0.0
C290 C 0.16692 0.28042 0.12657 0.0
C291 C 0.15512 0.28332 0.11974 0.0
C292 C 0.14442 0.28505 0.13011 0.0
C293 C 0.14515 0.28328 0.14781 0.0
C294 C 0.13391 0.28378 0.15851 0.0
C295 C 0.13466 0.28191 0.17587 0.0
C296 C 0.14675 0.27958 0.18324 0.0
C297 C 0.14751 0.27748 0.20084 0.0
C298 C 0.1599 0.27562 0.20784 0.0
C299 C 0.17157 0.27556 0.19766 0.0
C300 C 0.17078 0.2772 0.17994 0.0
C301 C 0.18207 0.27679 0.16925 0.0
C302 C 0.18095 0.27802 0.15179 0.0
C303 C 0.16853 0.27978 0.14436 0.0
C304 C 0.15737 0.28083 0.15496 0.0
C305 C 0.15833 0.27926 0.17273 0.0
C306 C 0.07595 0.26555 0.22123 0.0
C307 C 0.08271 0.26604 0.23922 0.0
O308 O 0.20136 0.26639 0.07822 0.0
O309 O 0.2204 0.26692 0.2281 0.0
O310 O 0.09917 0.27697 0.24052 0.0
O311 O 0.10049 0.29944 0.09678 0.0
H312 H 0.19566 0.27713 0.05909 0.0
H313 H 0.18552 0.24814 0.05077 0.0
H314 H 0.20566 0.25141 0.0515 0.0
H315 H 0.19986 0.26148 0.03605 0.0
H316 H 0.20607 0.2961 0.08597 0.0
H317 H 0.18024 0.2453 0.0975 0.0
H318 H 0.1829 0.30898 0.10278 0.0
H319 H 0.20414 0.31635 0.10258 0.0
H320 H 0.19375 0.31072 0.12222 0.0
H321 H 0.15752 0.2345 0.11448 0.0
H322 H 0.14939 0.24732 0.12074 0.0
H323 H 0.16456 0.24689 0.13394 0.0
H324 H 0.09949 0.31815 0.11052 0.0
H325 H 0.08132 0.30202 0.07907 0.0
H326 H 0.10544 0.33372 0.06897 0.0
H327 H 0.08014 0.3158 0.09151 0.0
H328 H 0.09798 0.27094 0.09706 0.0
H329 H 0.12677 0.3211 0.11575 0.0
H330 H 0.11641 0.25481 0.12433 0.0
H331 H 0.12438 0.25811 0.10357 0.0
H332 H 0.1032 0.25027 0.10584 0.0
H333 H 0.15172 0.33112 0.13005 0.0
H334 H 0.16122 0.31886 0.12824 0.0
H335 H 0.14928 0.31694 0.14607 0.0
H336 H 0.0802 0.25356 0.24231 0.0
H337 H 0.09726 0.25037 0.22459 0.0
H338 H 0.12737 0.30185 0.23751 0.0
H339 H 0.11706 0.24744 0.1908 0.0
H340 H 0.10602 0.23541 0.20823 0.0
H341 H 0.12753 0.24399 0.20773 0.0
H342 H 0.15356 0.31753 0.22762 0.0
H343 H 0.15542 0.31076 0.20656 0.0
H344 H 0.16363 0.30594 0.22458 0.0
H345 H 0.23992 0.28744 0.21906 0.0
H346 H 0.25803 0.27615 0.22117 0.0
H347 H 0.24018 0.26317 0.20808 0.0
H348 H 0.24198 0.25739 0.22922 0.0
H349 H 0.19234 0.24364 0.21769 0.0
H350 H 0.22227 0.296 0.22414 0.0
H351 H 0.16398 0.24274 0.18865 0.0
H352 H 0.15611 0.24228 0.20911 0.0
H353 H 0.16622 0.2309 0.20493 0.0
H354 H 0.21396 0.31418 0.21532 0.0
H355 H 0.19254 0.30593 0.21637 0.0
H356 H 0.20113 0.30673 0.19627 0.0
H357 H 0.15413 0.28409 0.10611 0.0
H358 H 0.12431 0.28546 0.15354 0.0
H359 H 0.12564 0.28233 0.18346 0.0
H360 H 0.16042 0.27409 0.22137 0.0
H361 H 0.19182 0.27536 0.17424 0.0
H362 H 0.18993 0.27757 0.14416 0.0
H363 H 0.06267 0.25738 0.22051 0.0
H364 H 0.07894 0.27808 0.21775 0.0
H365 H 0.08097 0.26066 0.21172 0.0
C366 C 0.74143 0.923 0.0534 0.0
C367 C 0.72936 0.9187 0.06737 0.0
C368 C 0.73319 0.91491 0.09713 0.0
C369 C 0.71698 0.90477 0.1008 0.0
C370 C 0.71268 0.89443 0.11451 0.0
C371 C 0.72484 0.89403 0.12452 0.0
C372 C 0.74124 0.905 0.12142 0.0
C373 C 0.74517 0.91556 0.10793 0.0
C374 C 0.69511 0.88329 0.11772 0.0
C375 C 0.75459 0.90482 0.13161 0.0
C376 C 0.70049 0.77629 0.07769 0.0
C377 C 0.70764 0.79352 0.08457 0.0
C378 C 0.70212 0.80883 0.10643 0.0
C379 C 0.71814 0.82164 0.10905 0.0
C380 C 0.72201 0.83524 0.11999 0.0
C381 C 0.70957 0.83632 0.12804 0.0
C382 C 0.69343 0.82343 0.12543 0.0
C383 C 0.68998 0.80971 0.11488 0.0
C384 C 0.73939 0.84866 0.12259 0.0
C385 C 0.67978 0.82439 0.13333 0.0
C386 C 0.7152 0.82032 0.23994 0.0
C387 C 0.72913 0.82975 0.23091 0.0
C388 C 0.7308 0.84279 0.22135 0.0
C389 C 0.71805 0.84614 0.22031 0.0
C390 C 0.70408 0.83678 0.22954 0.0
C391 C 0.70297 0.82414 0.23945 0.0
C392 C 0.74619 0.85291 0.21229 0.0
C393 C 0.69023 0.83995 0.22876 0.0
C394 C 0.7451 0.97588 0.2291 0.0
C395 C 0.73341 0.9582 0.23368 0.0
C396 C 0.73733 0.93457 0.23054 0.0
C397 C 0.74929 0.93062 0.22784 0.0
C398 C 0.74545 0.91514 0.22087 0.0
C399 C 0.72918 0.90326 0.21677 0.0
C400 C 0.71693 0.90684 0.22039 0.0
C401 C 0.72112 0.92248 0.22724 0.0
C402 C 0.7588 0.91166 0.21735 0.0
C403 C 0.69944 0.89427 0.21661 0.0
C404 C 0.72047 0.88028 0.13591 0.0
C405 C 0.71632 0.8651 0.12813 0.0
C406 C 0.71331 0.85169 0.13762 0.0
C407 C 0.71447 0.85335 0.15554 0.0
C408 C 0.71197 0.84024 0.16551 0.0
C409 C 0.71328 0.84206 0.18315 0.0
C410 C 0.71738 0.85716 0.19149 0.0
C411 C 0.71929 0.85931 0.20941 0.0
C412 C 0.72302 0.8744 0.21726 0.0
C413 C 0.72509 0.88752 0.2077 0.0
C414 C 0.7236 0.88572 0.18977 0.0
C415 C 0.72601 0.89881 0.17974 0.0
C416 C 0.72484 0.89703 0.1621 0.0
C417 C 0.72123 0.88211 0.15382 0.0
C418 C 0.71838 0.86862 0.16367 0.0
C419 C 0.71973 0.87048 0.18166 0.0
C420 C 0.71655 0.78533 0.25865 0.0
C421 C 0.72133 0.79902 0.24699 0.0
O422 O 0.73764 0.92378 0.083 0.0
O423 O 0.74192 0.95014 0.23618 0.0
O424 O 0.71315 0.80751 0.24919 0.0
O425 O 0.69786 0.79549 0.09588 0.0
H426 H 0.72148 0.90506 0.06653 0.0
H427 H 0.74829 0.91656 0.05525 0.0
H428 H 0.75009 0.93644 0.05369 0.0
H429 H 0.73505 0.91902 0.04073 0.0
H430 H 0.70767 0.90466 0.09278 0.0
H431 H 0.75765 0.92365 0.1051 0.0
H432 H 0.69122 0.87068 0.11262 0.0
H433 H 0.68746 0.88749 0.11146 0.0
H434 H 0.69311 0.88268 0.13156 0.0
H435 H 0.76667 0.91359 0.12704 0.0
H436 H 0.75294 0.89228 0.13093 0.0
H437 H 0.75419 0.9081 0.14514 0.0
H438 H 0.71249 0.80316 0.075 0.0
H439 H 0.69838 0.77688 0.0637 0.0
H440 H 0.68732 0.76976 0.08049 0.0
H441 H 0.71626 0.76892 0.08718 0.0
H442 H 0.7277 0.82117 0.10258 0.0
H443 H 0.67766 0.79976 0.11277 0.0
H444 H 0.74232 0.85266 0.13622 0.0
H445 H 0.74145 0.85946 0.11544 0.0
H446 H 0.74777 0.84464 0.11808 0.0
H447 H 0.66783 0.81389 0.12903 0.0
H448 H 0.68029 0.83602 0.1301 0.0
H449 H 0.68098 0.82446 0.14736 0.0
H450 H 0.72181 0.79581 0.23336 0.0
H451 H 0.73882 0.8271 0.23139 0.0
H452 H 0.69231 0.81689 0.24654 0.0
H453 H 0.74395 0.84966 0.19847 0.0
H454 H 0.75592 0.85072 0.21681 0.0
H455 H 0.75042 0.86622 0.2141 0.0
H456 H 0.67961 0.83056 0.23529 0.0
H457 H 0.68662 0.8401 0.21533 0.0
H458 H 0.69407 0.85221 0.23485 0.0
H459 H 0.72473 0.95243 0.22259 0.0
H460 H 0.73856 0.98264 0.22715 0.0
H461 H 0.75095 0.97583 0.21714 0.0
H462 H 0.75463 0.98246 0.23927 0.0
H463 H 0.76173 0.93994 0.2307 0.0
H464 H 0.71173 0.92521 0.22991 0.0
H465 H 0.75877 0.90897 0.20354 0.0
H466 H 0.75674 0.9006 0.22402 0.0
H467 H 0.77082 0.92213 0.22148 0.0
H468 H 0.69128 0.89844 0.22146 0.0
H469 H 0.69643 0.88251 0.22236 0.0
H470 H 0.69721 0.8918 0.20267 0.0
H471 H 0.71575 0.86379 0.11437 0.0
H472 H 0.70901 0.82841 0.15977 0.0
H473 H 0.71114 0.83151 0.19015 0.0
H474 H 0.72451 0.87601 0.23098 0.0
H475 H 0.72894 0.91065 0.18541 0.0
H476 H 0.72685 0.90751 0.155 0.0
H477 H 0.7376 0.79265 0.27343 0.0
H478 H 0.71069 0.77383 0.25014 0.0
H479 H 0.70496 0.78296 0.2643 0.0
C480 C 0.19076 0.91541 0.06089 0.0
C481 C 0.20572 0.92496 0.07285 0.0
C482 C 0.19526 0.90817 0.09772 0.0
C483 C 0.1852 0.91416 0.10285 0.0
C484 C 0.17333 0.90589 0.11462 0.0
C485 C 0.1715 0.89137 0.1214 0.0
C486 C 0.18215 0.8858 0.11696 0.0
C487 C 0.194 0.89439 0.10527 0.0
C488 C 0.16234 0.91231 0.11933 0.0
C489 C 0.18055 0.87039 0.12403 0.0
C490 C 0.07744 0.82794 0.05215 0.0
C491 C 0.08278 0.8203 0.06577 0.0
C492 C 0.09012 0.83135 0.09487 0.0
C493 C 0.10108 0.82624 0.09902 0.0
C494 C 0.11315 0.83474 0.11178 0.0
C495 C 0.11444 0.84881 0.12032 0.0
C496 C 0.10289 0.8535 0.11666 0.0
C497 C 0.09064 0.84444 0.10419 0.0
C498 C 0.12494 0.82908 0.11562 0.0
C499 C 0.10398 0.86858 0.12523 0.0
C500 C 0.08766 0.83297 0.22913 0.0
C501 C 0.09829 0.82756 0.22462 0.0
C502 C 0.11252 0.83789 0.21652 0.0
C503 C 0.11615 0.85395 0.21282 0.0
C504 C 0.10583 0.85971 0.21806 0.0
C505 C 0.09176 0.84915 0.22634 0.0
C506 C 0.12353 0.83155 0.21163 0.0
C507 C 0.10947 0.87685 0.21452 0.0
C508 C 0.2308 0.95709 0.23171 0.0
C509 C 0.22158 0.94687 0.2466 0.0
C510 C 0.2014 0.92005 0.23311 0.0
C511 C 0.19742 0.90371 0.23031 0.0
C512 C 0.18355 0.89245 0.22064 0.0
C513 C 0.17332 0.89769 0.2137 0.0
C514 C 0.17716 0.91417 0.21658 0.0
C515 C 0.1912 0.92523 0.22615 0.0
C516 C 0.17984 0.87497 0.21779 0.0
C517 C 0.16641 0.9201 0.20948 0.0
C518 C 0.15738 0.88108 0.13156 0.0
C519 C 0.14308 0.87 0.12266 0.0
C520 C 0.12908 0.85987 0.13108 0.0
C521 C 0.12932 0.86076 0.14902 0.0
C522 C 0.11556 0.85064 0.15797 0.0
C523 C 0.11586 0.85188 0.17563 0.0
C524 C 0.13 0.86316 0.18501 0.0
C525 C 0.13044 0.8645 0.20296 0.0
C526 C 0.14468 0.87584 0.21188 0.0
C527 C 0.15865 0.88593 0.20337 0.0
C528 C 0.15848 0.88473 0.18543 0.0
C529 C 0.17235 0.89461 0.17647 0.0
C530 C 0.17203 0.89345 0.15882 0.0
C531 C 0.15786 0.8823 0.14948 0.0
C532 C 0.14376 0.87212 0.15824 0.0
C533 C 0.14408 0.87333 0.17624 0.0
C534 C 0.04703 0.80362 0.22485 0.0
C535 C 0.06334 0.80638 0.2314 0.0
O536 O 0.20594 0.91497 0.08527 0.0
O537 O 0.21513 0.93026 0.2425 0.0
O538 O 0.07335 0.82287 0.23606 0.0
O539 O 0.07928 0.82422 0.0816 0.0
H540 H 0.2057 0.93573 0.07896 0.0
H541 H 0.17961 0.91146 0.06786 0.0
H542 H 0.19032 0.9043 0.05508 0.0
H543 H 0.19092 0.92329 0.05063 0.0
H544 H 0.18627 0.92507 0.09749 0.0
H545 H 0.20194 0.88998 0.10141 0.0
H546 H 0.14998 0.90363 0.1141 0.0
H547 H 0.16634 0.92462 0.11437 0.0
H548 H 0.16176 0.91308 0.13335 0.0
H549 H 0.19022 0.86809 0.11991 0.0
H550 H 0.16873 0.85967 0.11978 0.0
H551 H 0.18092 0.87133 0.13811 0.0
H552 H 0.09604 0.82584 0.06478 0.0
H553 H 0.08013 0.82496 0.03934 0.0
H554 H 0.08405 0.84153 0.05427 0.0
H555 H 0.06434 0.82338 0.05258 0.0
H556 H 0.10034 0.81577 0.09208 0.0
H557 H 0.08197 0.84812 0.10099 0.0
H558 H 0.1365 0.83735 0.10974 0.0
H559 H 0.12049 0.81633 0.11053 0.0
H560 H 0.12737 0.82967 0.12952 0.0
H561 H 0.09467 0.87114 0.12014 0.0
H562 H 0.11603 0.87948 0.12353 0.0
H563 H 0.10248 0.8669 0.13905 0.0
H564 H 0.06808 0.80264 0.22043 0.0
H565 H 0.09551 0.81527 0.22739 0.0
H566 H 0.0836 0.8533 0.23013 0.0
H567 H 0.12362 0.83047 0.19759 0.0
H568 H 0.11975 0.81934 0.21674 0.0
H569 H 0.13604 0.84037 0.21635 0.0
H570 H 0.10008 0.87936 0.21915 0.0
H571 H 0.11047 0.87862 0.20065 0.0
H572 H 0.12122 0.88598 0.22075 0.0
H573 H 0.21179 0.94939 0.24961 0.0
H574 H 0.2361 0.9704 0.23505 0.0
H575 H 0.22258 0.95395 0.22037 0.0
H576 H 0.24058 0.95468 0.22837 0.0
H577 H 0.20531 0.8998 0.23569 0.0
H578 H 0.19406 0.93782 0.22803 0.0
H579 H 0.17844 0.8717 0.20396 0.0
H580 H 0.16827 0.86648 0.22352 0.0
H581 H 0.18939 0.87302 0.22339 0.0
H582 H 0.17051 0.93301 0.2137 0.0
H583 H 0.15391 0.91211 0.21346 0.0
H584 H 0.16616 0.91926 0.1954 0.0
H585 H 0.14281 0.8693 0.10888 0.0
H586 H 0.10438 0.8417 0.1514 0.0
H587 H 0.10485 0.84388 0.18182 0.0
H588 H 0.1449 0.87678 0.22564 0.0
H589 H 0.18361 0.9034 0.183 0.0
H590 H 0.18303 0.9014 0.15257 0.0
H591 H 0.04193 0.80869 0.23408 0.0
H592 H 0.0384 0.79029 0.22228 0.0
H593 H 0.04857 0.80997 0.21281 0.0
C594 C 0.2877 0.10079 0.96589 0.0
C595 C 0.28829 0.08884 0.95272 0.0
C596 C 0.29328 0.10444 0.92678 0.0
C597 C 0.27734 0.10038 0.92297 0.0
C598 C 0.27386 0.10835 0.91026 0.0
C599 C 0.28658 0.12089 0.90148 0.0
C600 C 0.30261 0.12487 0.90518 0.0
C601 C 0.30568 0.11634 0.91757 0.0
C602 C 0.25659 0.10361 0.90648 0.0
C603 C 0.31656 0.1385 0.8965 0.0
C604 C 0.254 0.19527 0.95425 0.0
C605 C 0.26859 0.19849 0.94416 0.0
C606 C 0.26756 0.18574 0.91666 0.0
C607 C 0.28338 0.189 0.91567 0.0
C608 C 0.28693 0.17899 0.90527 0.0
C609 C 0.27427 0.16516 0.89611 0.0
C610 C 0.25829 0.16201 0.897 0.0
C611 C 0.25524 0.17267 0.90692 0.0
C612 C 0.30416 0.18301 0.90443 0.0
C613 C 0.24432 0.14709 0.88802 0.0
C614 C 0.26522 0.17612 0.78528 0.0
C615 C 0.28122 0.18134 0.79025 0.0
C616 C 0.28502 0.17125 0.79961 0.0
C617 C 0.27253 0.15564 0.80408 0.0
C618 C 0.25649 0.15004 0.79835 0.0
C619 C 0.25307 0.16033 0.78884 0.0
C620 C 0.3023 0.17739 0.80508 0.0
C621 C 0.24292 0.13339 0.80272 0.0
C622 C 0.28231 0.05053 0.79387 0.0
C623 C 0.28378 0.06097 0.77878 0.0
C624 C 0.29061 0.088 0.79177 0.0
C625 C 0.30306 0.10422 0.79491 0.0
C626 C 0.30047 0.11582 0.80363 0.0
C627 C 0.28495 0.11109 0.80925 0.0
C628 C 0.27225 0.09471 0.80614 0.0
C629 C 0.27522 0.08329 0.79757 0.0
C630 C 0.31432 0.13316 0.8068 0.0
C631 C 0.25551 0.08931 0.81181 0.0
C632 C 0.28326 0.13093 0.88974 0.0
C633 C 0.28048 0.14289 0.89705 0.0
C634 C 0.27754 0.15315 0.88709 0.0
C635 C 0.27744 0.15154 0.86919 0.0
C636 C 0.27486 0.16186 0.85874 0.0
C637 C 0.27432 0.15985 0.84115 0.0
C638 C 0.27667 0.14767 0.83331 0.0
C639 C 0.27611 0.14552 0.81543 0.0
C640 C 0.2788 0.13351 0.80805 0.0
C641 C 0.28196 0.12339 0.81806 0.0
C642 C 0.28232 0.12517 0.83598 0.0
C643 C 0.28522 0.11505 0.84645 0.0
C644 C 0.28538 0.1168 0.86406 0.0
C645 C 0.28293 0.12891 0.87188 0.0
C646 C 0.28003 0.13928 0.86157 0.0
C647 C 0.27968 0.13738 0.84361 0.0
C648 C 0.25356 0.20414 0.79026 0.0
C649 C 0.26693 0.20245 0.78198 0.0
O650 O 0.29734 0.09739 0.93923 0.0
O651 O 0.29408 0.0775 0.78317 0.0
O652 O 0.26117 0.1861 0.77721 0.0
O653 O 0.26386 0.1949 0.9271 0.0
H654 H 0.27587 0.0796 0.94809 0.0
H655 H 0.28191 0.10722 0.96014 0.0
H656 H 0.30005 0.11012 0.97063 0.0
H657 H 0.28055 0.09404 0.97678 0.0
H658 H 0.26755 0.09108 0.92981 0.0
H659 H 0.31792 0.11933 0.92057 0.0
H660 H 0.25454 0.11344 0.9117 0.0
H661 H 0.24799 0.09189 0.91219 0.0
H662 H 0.25399 0.10237 0.89256 0.0
H663 H 0.32836 0.141 0.90189 0.0
H664 H 0.31603 0.14998 0.89765 0.0
H665 H 0.31579 0.13512 0.88277 0.0
H666 H 0.27271 0.1901 0.94877 0.0
H667 H 0.25721 0.19746 0.96807 0.0
H668 H 0.24426 0.18228 0.95196 0.0
H669 H 0.24939 0.20341 0.9503 0.0
H670 H 0.29293 0.19936 0.92303 0.0
H671 H 0.24307 0.17037 0.90777 0.0
H672 H 0.30703 0.18154 0.89116 0.0
H673 H 0.30592 0.17437 0.91218 0.0
H674 H 0.31276 0.19573 0.90939 0.0
H675 H 0.23254 0.14504 0.89222 0.0
H676 H 0.24502 0.13591 0.89032 0.0
H677 H 0.24478 0.14873 0.87415 0.0
H678 H 0.27674 0.2069 0.792 0.0
H679 H 0.29073 0.19333 0.78687 0.0
H680 H 0.2408 0.15633 0.78469 0.0
H681 H 0.30369 0.17912 0.81913 0.0
H682 H 0.31073 0.18925 0.79949 0.0
H683 H 0.30568 0.16814 0.80131 0.0
H684 H 0.23112 0.13082 0.79726 0.0
H685 H 0.24222 0.13266 0.81673 0.0
H686 H 0.24532 0.12367 0.79792 0.0
H687 H 0.27168 0.05885 0.77497 0.0
H688 H 0.27413 0.03728 0.79037 0.0
H689 H 0.27727 0.05389 0.80476 0.0
H690 H 0.29428 0.05249 0.79796 0.0
H691 H 0.31489 0.10777 0.79047 0.0
H692 H 0.26543 0.07078 0.79549 0.0
H693 H 0.31561 0.13675 0.82054 0.0
H694 H 0.31182 0.14175 0.79988 0.0
H695 H 0.32588 0.13462 0.80261 0.0
H696 H 0.24673 0.07637 0.80765 0.0
H697 H 0.25133 0.0974 0.80666 0.0
H698 H 0.25568 0.09049 0.82586 0.0
H699 H 0.28058 0.14422 0.91078 0.0
H700 H 0.27312 0.17153 0.86407 0.0
H701 H 0.27208 0.16804 0.83377 0.0
H702 H 0.27842 0.13201 0.79433 0.0
H703 H 0.2873 0.1056 0.84115 0.0
H704 H 0.2875 0.10856 0.87149 0.0
H705 H 0.24239 0.19835 0.78205 0.0
H706 H 0.25753 0.21731 0.79296 0.0
H707 H 0.25067 0.19787 0.80246 0.0
C708 C 0.78387 0.03916 0.92507 0.0
C709 C 0.78659 0.0555 0.93285 0.0
C710 C 0.80053 0.07752 0.913 0.0
C711 C 0.79914 0.08948 0.9044 0.0
C712 C 0.81238 0.10223 0.89679 0.0
C713 C 0.82729 0.10269 0.89738 0.0
C714 C 0.82877 0.09052 0.90591 0.0
C715 C 0.81539 0.07808 0.91372 0.0
C716 C 0.81041 0.11518 0.88809 0.0
C717 C 0.84447 0.09058 0.90663 0.0
C718 C 0.92881 0.21503 0.95552 0.0
C719 C 0.91915 0.19804 0.94776 0.0
C720 C 0.89725 0.18308 0.92614 0.0
C721 C 0.89961 0.16962 0.92378 0.0
C722 C 0.88967 0.15651 0.91224 0.0
C723 C 0.87707 0.15679 0.90299 0.0
C724 C 0.87473 0.17036 0.90531 0.0
C725 C 0.88493 0.18336 0.9168 0.0
C726 C 0.89251 0.14224 0.91001 0.0
C727 C 0.86132 0.17103 0.89582 0.0
C728 C 0.90834 0.18081 0.79341 0.0
C729 C 0.90947 0.16692 0.79698 0.0
C730 C 0.89755 0.15416 0.80602 0.0
C731 C 0.88418 0.15523 0.81138 0.0
C732 C 0.88306 0.16923 0.80783 0.0
C733 C 0.89528 0.18193 0.79904 0.0
C734 C 0.89919 0.13947 0.80977 0.0
C735 C 0.86886 0.1707 0.81313 0.0
C736 C 0.78214 0.03634 0.78123 0.0
C737 C 0.78483 0.05278 0.77526 0.0
C738 C 0.81163 0.07541 0.7839 0.0
C739 C 0.82656 0.07691 0.78754 0.0
C740 C 0.83791 0.08946 0.79876 0.0
C741 C 0.83438 0.10112 0.80606 0.0
C742 C 0.81945 0.09998 0.80194 0.0
C743 C 0.80816 0.08703 0.79099 0.0
C744 C 0.85369 0.09029 0.80272 0.0
C745 C 0.81549 0.11254 0.80893 0.0
C746 C 0.84125 0.1158 0.88889 0.0
C747 C 0.8527 0.12941 0.89883 0.0
C748 C 0.8658 0.14254 0.89157 0.0
C749 C 0.86753 0.14219 0.87381 0.0
C750 C 0.88052 0.15517 0.86603 0.0
C751 C 0.88183 0.15489 0.84849 0.0
C752 C 0.87017 0.14166 0.83806 0.0
C753 C 0.8711 0.14148 0.8202 0.0
C754 C 0.85927 0.12816 0.81022 0.0
C755 C 0.8465 0.11478 0.81756 0.0
C756 C 0.84543 0.11465 0.83543 0.0
C757 C 0.83294 0.10126 0.8433 0.0
C758 C 0.83167 0.10151 0.86082 0.0
C759 C 0.84284 0.11515 0.87115 0.0
C760 C 0.85589 0.1285 0.86357 0.0
C761 C 0.85719 0.12825 0.84568 0.0
C762 C 0.93846 0.20681 0.76328 0.0
C763 C 0.93148 0.19326 0.77522 0.0
O764 O 0.7872 0.06561 0.92017 0.0
O765 O 0.80112 0.06305 0.77295 0.0
O766 O 0.91945 0.19332 0.78451 0.0
O767 O 0.90648 0.196 0.93723 0.0
H768 H 0.79812 0.06148 0.94056 0.0
H769 H 0.7941 0.04129 0.91721 0.0
H770 H 0.7727 0.03294 0.91684 0.0
H771 H 0.78295 0.03089 0.93527 0.0
H772 H 0.78762 0.0889 0.90387 0.0
H773 H 0.8166 0.06876 0.92011 0.0
H774 H 0.82021 0.12765 0.89245 0.0
H775 H 0.79866 0.11419 0.89055 0.0
H776 H 0.81125 0.11386 0.87418 0.0
H777 H 0.84335 0.07957 0.91263 0.0
H778 H 0.85369 0.10172 0.91403 0.0
H779 H 0.84884 0.0911 0.89363 0.0
H780 H 0.91555 0.18794 0.9567 0.0
H781 H 0.92712 0.21356 0.96957 0.0
H782 H 0.92133 0.22104 0.95402 0.0
H783 H 0.95132 0.22414 0.94488 0.0
H784 H 0.90911 0.16925 0.93094 0.0
H785 H 0.88322 0.1938 0.91868 0.0
H786 H 0.88206 0.13098 0.91459 0.0
H787 H 0.90356 0.14443 0.91709 0.0
H788 H 0.89355 0.13992 0.89634 0.0
H789 H 0.86081 0.18222 0.89944 0.0
H790 H 0.84959 0.16003 0.89836 0.0
H791 H 0.86301 0.17082 0.88196 0.0
H792 H 0.94038 0.19185 0.78315 0.0
H793 H 0.91961 0.16599 0.79278 0.0
H794 H 0.89455 0.19272 0.79623 0.0
H795 H 0.89762 0.13699 0.82347 0.0
H796 H 0.91104 0.14122 0.80626 0.0
H797 H 0.88959 0.12845 0.80254 0.0
H798 H 0.86932 0.18191 0.80846 0.0
H799 H 0.86857 0.17109 0.82719 0.0
H800 H 0.85748 0.15975 0.80821 0.0
H801 H 0.78055 0.05807 0.78527 0.0
H802 H 0.76925 0.02794 0.78366 0.0
H803 H 0.78927 0.03836 0.79323 0.0
H804 H 0.78599 0.03038 0.77152 0.0
H805 H 0.82919 0.068 0.78176 0.0
H806 H 0.79684 0.08625 0.78763 0.0
H807 H 0.85641 0.09194 0.81663 0.0
H808 H 0.86349 0.10107 0.7967 0.0
H809 H 0.85367 0.07908 0.79794 0.0
H810 H 0.8042 0.11098 0.80304 0.0
H811 H 0.82548 0.12515 0.80682 0.0
H812 H 0.81409 0.11138 0.82283 0.0
H813 H 0.85128 0.12987 0.91241 0.0
H814 H 0.88977 0.16573 0.87341 0.0
H815 H 0.89205 0.16526 0.84318 0.0
H816 H 0.86 0.12823 0.79651 0.0
H817 H 0.82393 0.09049 0.83598 0.0
H818 H 0.82172 0.0909 0.86615 0.0
H819 H 0.95138 0.21481 0.7679 0.0
H820 H 0.93485 0.21598 0.76749 0.0
H821 H 0.93189 0.19465 0.73923 0.0
C822 C 0.81271 0.73084 0.95898 0.0
C823 C 0.79981 0.72367 0.94446 0.0
C824 C 0.81348 0.71547 0.92369 0.0
C825 C 0.82461 0.73142 0.91891 0.0
C826 C 0.83717 0.73413 0.90836 0.0
C827 C 0.83862 0.72066 0.90242 0.0
C828 C 0.82726 0.70458 0.90688 0.0
C829 C 0.81478 0.7022 0.91741 0.0
C830 C 0.84903 0.75145 0.90371 0.0
C831 C 0.82845 0.68996 0.90066 0.0
C832 C 0.94639 0.75883 0.95759 0.0
C833 C 0.93359 0.74237 0.94925 0.0
C834 C 0.92189 0.74026 0.92145 0.0
C835 C 0.91007 0.72413 0.91677 0.0
C836 C 0.89664 0.72091 0.90648 0.0
C837 C 0.89503 0.73419 0.901 0.0
C838 C 0.90709 0.75056 0.90571 0.0
C839 C 0.92052 0.75339 0.91575 0.0
C840 C 0.88407 0.70333 0.90168 0.0
C841 C 0.90563 0.76501 0.90045 0.0
C842 C 0.92247 0.75699 0.79358 0.0
C843 C 0.91453 0.74031 0.79734 0.0
C844 C 0.89969 0.73308 0.80516 0.0
C845 C 0.89298 0.74289 0.80983 0.0
C846 C 0.90076 0.75959 0.80558 0.0
C847 C 0.91527 0.76631 0.7972 0.0
C848 C 0.89136 0.71505 0.80871 0.0
C849 C 0.89394 0.77044 0.81013 0.0
C850 C 0.77734 0.72479 0.80108 0.0
C851 C 0.78423 0.72178 0.78487 0.0
C852 C 0.80514 0.71603 0.79523 0.0
C853 C 0.80908 0.70375 0.79679 0.0
C854 C 0.82376 0.70717 0.80452 0.0
C855 C 0.83476 0.72332 0.8109 0.0
C856 C 0.83103 0.73592 0.8091 0.0
C857 C 0.81628 0.73217 0.80129 0.0
C858 C 0.82738 0.69347 0.80625 0.0
C859 C 0.84251 0.75328 0.81579 0.0
C860 C 0.85226 0.72356 0.89185 0.0
C861 C 0.86658 0.72683 0.90016 0.0
C862 C 0.88033 0.73089 0.89115 0.0
C863 C 0.8799 0.73194 0.87331 0.0
C864 C 0.89364 0.73662 0.8639 0.0
C865 C 0.89321 0.73819 0.84644 0.0
C866 C 0.87885 0.7345 0.8376 0.0
C867 C 0.87826 0.73602 0.81983 0.0
C868 C 0.86369 0.73199 0.81145 0.0
C869 C 0.8497 0.72685 0.82041 0.0
C870 C 0.85015 0.72566 0.83822 0.0
C871 C 0.8364 0.72101 0.84766 0.0
C872 C 0.83705 0.72031 0.86522 0.0
C873 C 0.85141 0.72398 0.87399 0.0
C874 C 0.86534 0.72836 0.8647 0.0
C875 C 0.86476 0.7294 0.84681 0.0
C876 C 0.96543 0.77689 0.78986 0.0
C877 C 0.94917 0.76096 0.78973 0.0
O878 O 0.80149 0.71234 0.93443 0.0
O879 O 0.79044 0.71166 0.78809 0.0
O880 O 0.93707 0.76449 0.78656 0.0
O881 O 0.93451 0.74323 0.93179 0.0
H882 H 0.80094 0.73375 0.93657 0.0
H883 H 0.82494 0.73749 0.95395 0.0
H884 H 0.81186 0.72088 0.96686 0.0
H885 H 0.81119 0.7397 0.96718 0.0
H886 H 0.82371 0.74184 0.92341 0.0
H887 H 0.8061 0.68993 0.92105 0.0
H888 H 0.86131 0.75483 0.9084 0.0
H889 H 0.84609 0.76059 0.9091 0.0
H890 H 0.84924 0.75217 0.88968 0.0
H891 H 0.81851 0.67819 0.90505 0.0
H892 H 0.8401 0.69142 0.90525 0.0
H893 H 0.8282 0.68933 0.88657 0.0
H894 H 0.92164 0.7402 0.9532 0.0
H895 H 0.94573 0.75851 0.97163 0.0
H896 H 0.94437 0.76878 0.95334 0.0
H897 H 0.95862 0.76172 0.95406 0.0
H898 H 0.91135 0.7141 0.92131 0.0
H899 H 0.92982 0.76582 0.91954 0.0
H900 H 0.88128 0.70181 0.88779 0.0
H901 H 0.8728 0.70015 0.90814 0.0
H902 H 0.88797 0.69455 0.90534 0.0
H903 H 0.91531 0.77683 0.9064 0.0
H904 H 0.8938 0.76331 0.90396 0.0
H905 H 0.90624 0.7658 0.88645 0.0
H906 H 0.94802 0.75608 0.80264 0.0
H907 H 0.91985 0.73291 0.79411 0.0
H908 H 0.92141 0.77911 0.794 0.0
H909 H 0.89261 0.71366 0.82248 0.0
H910 H 0.89656 0.70857 0.80165 0.0
H911 H 0.87832 0.709 0.80523 0.0
H912 H 0.90242 0.78357 0.80779 0.0
H913 H 0.89087 0.76941 0.8237 0.0
H914 H 0.8827 0.76634 0.80238 0.0
H915 H 0.79386 0.73393 0.78084 0.0
H916 H 0.78712 0.73189 0.81085 0.0
H917 H 0.77141 0.73202 0.79836 0.0
H918 H 0.76859 0.71296 0.8065 0.0
H919 H 0.80047 0.69136 0.79206 0.0
H920 H 0.81353 0.74189 0.80027 0.0
H921 H 0.82856 0.69156 0.8199 0.0
H922 H 0.83904 0.69691 0.80054 0.0
H923 H 0.81786 0.6817 0.80003 0.0
H924 H 0.8381 0.76182 0.81292 0.0
H925 H 0.85441 0.75787 0.81016 0.0
H926 H 0.84431 0.75344 0.82976 0.0
H927 H 0.8671 0.72644 0.91388 0.0
H928 H 0.90498 0.7394 0.86997 0.0
H929 H 0.90429 0.74223 0.83997 0.0
H930 H 0.86331 0.73319 0.79784 0.0
H931 H 0.825 0.71801 0.84161 0.0
H932 H 0.82614 0.71681 0.87183 0.0
H933 H 0.96729 0.78269 0.77742 0.0
H934 H 0.97535 0.77441 0.7926 0.0
H935 H 0.96593 0.78568 0.79989 0.0
C936 C 0.88147 0.58921 0.41337 0.0
C937 C 0.88344 0.60503 0.4062 0.0
C938 C 0.87273 0.6169 0.42674 0.0
C939 C 0.87692 0.63105 0.43677 0.0
C940 C 0.86531 0.63281 0.44546 0.0
C941 C 0.84914 0.61974 0.44461 0.0
C942 C 0.84472 0.60547 0.43423 0.0
C943 C 0.85653 0.60427 0.42522 0.0
C944 C 0.87043 0.6485 0.45585 0.0
C945 C 0.8276 0.5913 0.43302 0.0
C946 C 0.74953 0.64 0.40848 0.0
C947 C 0.75688 0.63153 0.4174 0.0
C948 C 0.78254 0.63753 0.43098 0.0
C949 C 0.77732 0.62128 0.43532 0.0
C950 C 0.7878 0.61733 0.44384 0.0
C951 C 0.80368 0.62993 0.44852 0.0
C952 C 0.80888 0.64631 0.4444 0.0
C953 C 0.79826 0.64985 0.43557 0.0
C954 C 0.78192 0.59967 0.44774 0.0
C955 C 0.82567 0.66009 0.44928 0.0
C956 C 0.7778 0.61797 0.55814 0.0
C957 C 0.77467 0.60322 0.54973 0.0
C958 C 0.78644 0.60259 0.54014 0.0
C959 C 0.80163 0.61696 0.53896 0.0
C960 C 0.80497 0.63169 0.54776 0.0
C961 C 0.79299 0.63197 0.55729 0.0
C962 C 0.7826 0.58662 0.53107 0.0
C963 C 0.82109 0.64719 0.54682 0.0
C964 C 0.90515 0.59731 0.55337 0.0
C965 C 0.89807 0.60806 0.55842 0.0
C966 C 0.87076 0.60218 0.55092 0.0
C967 C 0.85546 0.58927 0.54583 0.0
C968 C 0.84408 0.59225 0.53787 0.0
C969 C 0.84809 0.60861 0.53514 0.0
C970 C 0.86334 0.62179 0.54084 0.0
C971 C 0.87452 0.61845 0.54874 0.0
C972 C 0.82785 0.57792 0.53215 0.0
C973 C 0.86785 0.6394 0.53848 0.0
C974 C 0.83714 0.62063 0.45539 0.0
C975 C 0.82622 0.62442 0.44785 0.0
C976 C 0.81496 0.62593 0.45746 0.0
C977 C 0.81465 0.62375 0.47516 0.0
C978 C 0.80372 0.62548 0.48531 0.0
C979 C 0.8034 0.6231 0.50265 0.0
C980 C 0.81413 0.61912 0.51058 0.0
C981 C 0.81385 0.61661 0.52818 0.0
C982 C 0.82504 0.61324 0.53578 0.0
C983 C 0.83639 0.61194 0.52618 0.0
C984 C 0.8365 0.61383 0.50845 0.0
C985 C 0.84733 0.61196 0.49832 0.0
C986 C 0.8474 0.61393 0.48092 0.0
C987 C 0.83681 0.61811 0.47299 0.0
C988 C 0.82561 0.61981 0.48292 0.0
C989 C 0.82542 0.61759 0.50066 0.0
C990 C 0.74186 0.60743 0.55022 0.0
C991 C 0.75023 0.60814 0.56726 0.0
O992 O 0.88476 0.61589 0.4192 0.0
O993 O 0.88144 0.5984 0.55791 0.0
O994 O 0.76658 0.61936 0.56702 0.0
O995 O 0.77295 0.64182 0.42231 0.0
H996 H 0.87276 0.60175 0.39771 0.0
H997 H 0.87005 0.58259 0.42003 0.0
H998 H 0.89148 0.59194 0.42259 0.0
H999 H 0.88119 0.58089 0.40291 0.0
H1000 H 0.88941 0.64078 0.43776 0.0
H1001 H 0.85305 0.59328 0.41741 0.0
H1002 H 0.86164 0.6527 0.45391 0.0
H1003 H 0.88253 0.65851 0.4526 0.0
H1004 H 0.87084 0.64624 0.46952 0.0
H1005 H 0.8263 0.58063 0.42529 0.0
H1006 H 0.81968 0.59537 0.4272 0.0
H1007 H 0.82333 0.58726 0.44592 0.0
H1008 H 0.7544 0.61975 0.41093 0.0
H1009 H 0.74626 0.63413 0.39527 0.0
H1010 H 0.75978 0.65204 0.40445 0.0
H1011 H 0.7323 0.6386 0.42507 0.0
H1012 H 0.76516 0.61159 0.432 0.0
H1013 H 0.80219 0.66235 0.43223 0.0
H1014 H 0.78125 0.59838 0.46167 0.0
H1015 H 0.79051 0.59595 0.44323 0.0
H1016 H 0.76983 0.59111 0.44176 0.0
H1017 H 0.82736 0.67235 0.44661 0.0
H1018 H 0.8345 0.65833 0.44209 0.0
H1019 H 0.82836 0.65989 0.46301 0.0
H1020 H 0.74831 0.59576 0.56986 0.0
H1021 H 0.76307 0.59219 0.55045 0.0
H1022 H 0.79533 0.64325 0.56392 0.0
H1023 H 0.78308 0.58813 0.51715 0.0
H1024 H 0.77051 0.57633 0.53392 0.0
H1025 H 0.79175 0.58331 0.53476 0.0
H1026 H 0.82177 0.65769 0.55434 0.0
H1027 H 0.82346 0.65057 0.53339 0.0
H1028 H 0.83074 0.64501 0.55161 0.0
H1029 H 0.90203 0.61763 0.54882 0.0
H1030 H 0.9185 0.60477 0.55368 0.0
H1031 H 0.90084 0.59198 0.54026 0.0
H1032 H 0.90142 0.58707 0.56208 0.0
H1033 H 0.85258 0.57677 0.54781 0.0
H1034 H 0.8861 0.62858 0.55326 0.0
H1035 H 0.82584 0.57819 0.51828 0.0
H1036 H 0.81825 0.57895 0.5386 0.0
H1037 H 0.82668 0.5659 0.53494 0.0
H1038 H 0.87994 0.6483 0.54422 0.0
H1039 H 0.85882 0.64184 0.54429 0.0
H1040 H 0.86776 0.64152 0.52472 0.0
H1041 H 0.82654 0.6263 0.43433 0.0
H1042 H 0.79526 0.62863 0.47994 0.0
H1043 H 0.79467 0.62452 0.5098 0.0
H1044 H 0.82483 0.6115 0.54932 0.0
H1045 H 0.85585 0.60889 0.50371 0.0
H1046 H 0.85594 0.6122 0.47378 0.0
H1047 H 0.74389 0.61978 0.54736 0.0
H1048 H 0.72871 0.5987 0.55058 0.0
H1049 H 0.74653 0.60314 0.53973 0.0
C1050 C 0.40053 0.26614 0.37833 0.0
C1051 C 0.38908 0.26113 0.39297 0.0
C1052 C 0.39464 0.25652 0.4219 0.0
C1053 C 0.37879 0.24534 0.42602 0.0
C1054 C 0.37568 0.23456 0.43916 0.0
C1055 C 0.38869 0.23487 0.44817 0.0
C1056 C 0.40468 0.24681 0.44469 0.0
C1057 C 0.40742 0.2577 0.43174 0.0
C1058 C 0.35847 0.22233 0.44284 0.0
C1059 C 0.41887 0.24744 0.45392 0.0
C1060 C 0.36733 0.11375 0.40807 0.0
C1061 C 0.3759 0.13153 0.41347 0.0
C1062 C 0.36948 0.15026 0.42907 0.0
C1063 C 0.38548 0.16209 0.43383 0.0
C1064 C 0.38898 0.17582 0.44443 0.0
C1065 C 0.37625 0.17778 0.4503 0.0
C1066 C 0.36015 0.16585 0.4456 0.0
C1067 C 0.357 0.15224 0.43503 0.0
C1068 C 0.40629 0.18839 0.44915 0.0
C1069 C 0.34631 0.16765 0.45151 0.0
C1070 C 0.38043 0.159 0.5609 0.0
C1071 C 0.39514 0.17056 0.55425 0.0
C1072 C 0.39641 0.1837 0.54517 0.0
C1073 C 0.3827 0.18529 0.54255 0.0
C1074 C 0.368 0.17393 0.54955 0.0
C1075 C 0.36709 0.16098 0.55872 0.0
C1076 C 0.41238 0.19577 0.53813 0.0
C1077 C 0.35317 0.17531 0.54706 0.0
C1078 C 0.40595 0.31254 0.55598 0.0
C1079 C 0.39436 0.2951 0.56131 0.0
C1080 C 0.39883 0.27195 0.55656 0.0
C1081 C 0.41121 0.26874 0.5534 0.0
C1082 C 0.40801 0.25386 0.54535 0.0
C1083 C 0.39195 0.2418 0.54062 0.0
C1084 C 0.37927 0.24463 0.54454 0.0
C1085 C 0.38283 0.25968 0.55251 0.0
C1086 C 0.42181 0.25116 0.54156 0.0
C1087 C 0.36199 0.23183 0.54008 0.0
C1088 C 0.38562 0.22118 0.45918 0.0
C1089 C 0.38246 0.20645 0.45101 0.0
C1090 C 0.37981 0.19296 0.46017 0.0
C1091 C 0.38052 0.19414 0.4781 0.0
C1092 C 0.37823 0.1809 0.48773 0.0
C1093 C 0.37916 0.18227 0.50538 0.0
C1094 C 0.38239 0.19693 0.51409 0.0
C1095 C 0.3837 0.19856 0.53204 0.0
C1096 C 0.38663 0.21321 0.54028 0.0
C1097 C 0.3885 0.22646 0.53107 0.0
C1098 C 0.38752 0.22518 0.51311 0.0
C1099 C 0.38962 0.23836 0.50343 0.0
C1100 C 0.38887 0.23706 0.48576 0.0
C1101 C 0.38607 0.22255 0.4771 0.0
C1102 C 0.38366 0.20901 0.4866 0.0
C1103 C 0.38447 0.21035 0.50461 0.0
C1104 C 0.38951 0.13201 0.55318 0.0
C1105 C 0.38912 0.1399 0.57033 0.0
O1106 O 0.39801 0.26595 0.40823 0.0
O1107 O 0.40281 0.28694 0.56355 0.0
O1108 O 0.37849 0.14574 0.56929 0.0
O1109 O 0.36555 0.13679 0.41886 0.0
H1110 H 0.38146 0.24747 0.39175 0.0
H1111 H 0.4077 0.25992 0.37908 0.0
H1112 H 0.40896 0.27964 0.3789 0.0
H1113 H 0.39363 0.26243 0.36595 0.0
H1114 H 0.36885 0.2448 0.41878 0.0
H1115 H 0.41961 0.26657 0.4286 0.0
H1116 H 0.35535 0.21002 0.43745 0.0
H1117 H 0.34993 0.22569 0.43719 0.0
H1118 H 0.35693 0.22139 0.45675 0.0
H1119 H 0.43055 0.2573 0.44949 0.0
H1120 H 0.41835 0.23546 0.45203 0.0
H1121 H 0.41839 0.24958 0.46775 0.0
H1122 H 0.38489 0.14 0.40457 0.0
H1123 H 0.37544 0.10341 0.42602 0.0
H1124 H 0.36955 0.11348 0.39414 0.0
H1125 H 0.35424 0.10978 0.406 0.0
H1126 H 0.39527 0.16078 0.42917 0.0
H1127 H 0.34471 0.14304 0.4313 0.0
H1128 H 0.40939 0.20026 0.4436 0.0
H1129 H 0.41475 0.18452 0.44457 0.0
H1130 H 0.40797 0.19054 0.46316 0.0
H1131 H 0.33445 0.15709 0.44704 0.0
H1132 H 0.34739 0.17911 0.44675 0.0
H1133 H 0.34674 0.16871 0.46559 0.0
H1134 H 0.40138 0.15022 0.57405 0.0
H1135 H 0.40569 0.16942 0.55596 0.0
H1136 H 0.35583 0.15211 0.56397 0.0
H1137 H 0.41141 0.1946 0.52405 0.0
H1138 H 0.42223 0.19372 0.54253 0.0
H1139 H 0.41563 0.20854 0.54193 0.0
H1140 H 0.34253 0.16527 0.55298 0.0
H1141 H 0.35034 0.175 0.53328 0.0
H1142 H 0.35547 0.18729 0.55266 0.0
H1143 H 0.38515 0.28912 0.5507 0.0
H1144 H 0.39948 0.31939 0.55422 0.0
H1145 H 0.4112 0.312 0.54374 0.0
H1146 H 0.41593 0.31933 0.56565 0.0
H1147 H 0.42349 0.27817 0.55684 0.0
H1148 H 0.37311 0.26179 0.55559 0.0
H1149 H 0.42198 0.24895 0.52768 0.0
H1150 H 0.42011 0.24004 0.54783 0.0
H1151 H 0.43363 0.2618 0.54597 0.0
H1152 H 0.35344 0.23551 0.54483 0.0
H1153 H 0.35912 0.21997 0.54548 0.0
H1154 H 0.3602 0.22977 0.52607 0.0
H1155 H 0.38207 0.20547 0.43723 0.0
H1156 H 0.37578 0.16935 0.4817 0.0
H1157 H 0.37734 0.17167 0.51213 0.0
H1158 H 0.38766 0.21439 0.55404 0.0
H1159 H 0.39192 0.24987 0.5094 0.0
H1160 H 0.39059 0.24758 0.47894 0.0
H1161 H 0.37729 0.12181 0.54914 0.0
H1162 H 0.39781 0.12709 0.5541 0.0
H1163 H 0.39383 0.14118 0.54323 0.0
C1164 C 0.86463 0.25551 0.39143 0.0
C1165 C 0.87716 0.26194 0.40629 0.0
C1166 C 0.86368 0.23973 0.42617 0.0
C1167 C 0.85185 0.24348 0.43087 0.0
C1168 C 0.83943 0.23318 0.44128 0.0
C1169 C 0.83888 0.21893 0.44725 0.0
C1170 C 0.85092 0.21529 0.44286 0.0
C1171 C 0.86319 0.22578 0.43239 0.0
C1172 C 0.82676 0.23743 0.44579 0.0
C1173 C 0.85073 0.20025 0.44913 0.0
C1174 C 0.72156 0.12738 0.41976 0.0
C1175 C 0.73527 0.12516 0.4133 0.0
C1176 C 0.75864 0.14135 0.43326 0.0
C1177 C 0.7693 0.13988 0.44427 0.0
C1178 C 0.78262 0.15375 0.45206 0.0
C1179 C 0.78489 0.16955 0.44936 0.0
C1180 C 0.77419 0.17118 0.43809 0.0
C1181 C 0.7613 0.15706 0.42991 0.0
C1182 C 0.79412 0.15138 0.46328 0.0
C1183 C 0.77619 0.1878 0.4349 0.0
C1184 C 0.75713 0.16308 0.55661 0.0
C1185 C 0.76659 0.15664 0.55085 0.0
C1186 C 0.78104 0.16662 0.54289 0.0
C1187 C 0.78582 0.18324 0.54024 0.0
C1188 C 0.77657 0.18987 0.54665 0.0
C1189 C 0.76246 0.17972 0.55504 0.0
C1190 C 0.79097 0.1593 0.53701 0.0
C1191 C 0.78133 0.20755 0.54426 0.0
C1192 C 0.89741 0.29075 0.55904 0.0
C1193 C 0.88986 0.27765 0.57232 0.0
C1194 C 0.8714 0.25139 0.5568 0.0
C1195 C 0.86873 0.23567 0.55271 0.0
C1196 C 0.8545 0.22374 0.54405 0.0
C1197 C 0.8427 0.22773 0.53926 0.0
C1198 C 0.84527 0.24359 0.54335 0.0
C1199 C 0.85959 0.25528 0.55207 0.0
C1200 C 0.85212 0.20692 0.53989 0.0
C1201 C 0.83295 0.24824 0.5383 0.0
C1202 C 0.82548 0.20772 0.4578 0.0
C1203 C 0.8118 0.19468 0.44954 0.0
C1204 C 0.79834 0.18421 0.45856 0.0
C1205 C 0.79834 0.18707 0.47627 0.0
C1206 C 0.78459 0.17762 0.48556 0.0
C1207 C 0.78498 0.17993 0.50309 0.0
C1208 C 0.7992 0.19159 0.51207 0.0
C1209 C 0.79997 0.19344 0.53 0.0
C1210 C 0.8143 0.20523 0.53846 0.0
C1211 C 0.8279 0.21546 0.52948 0.0
C1212 C 0.82732 0.21388 0.51156 0.0
C1213 C 0.8407 0.22413 0.50212 0.0
C1214 C 0.84008 0.22231 0.4845 0.0
C1215 C 0.82613 0.21 0.47566 0.0
C1216 C 0.81247 0.19963 0.48492 0.0
C1217 C 0.81299 0.20172 0.50286 0.0
C1218 C 0.71507 0.13612 0.55641 0.0
C1219 C 0.73157 0.13757 0.55822 0.0
O1220 O 0.8756 0.249 0.4156 0.0
O1221 O 0.88556 0.26234 0.56508 0.0
O1222 O 0.74279 0.15355 0.56367 0.0
O1223 O 0.74585 0.12724 0.42658 0.0
H1224 H 0.87551 0.27064 0.41466 0.0
H1225 H 0.85225 0.24923 0.39611 0.0
H1226 H 0.86596 0.24661 0.38307 0.0
H1227 H 0.8661 0.26586 0.38382 0.0
H1228 H 0.8521 0.25432 0.4264 0.0
H1229 H 0.87239 0.22301 0.4288 0.0
H1230 H 0.8147 0.22722 0.44135 0.0
H1231 H 0.82882 0.24891 0.44007 0.0
H1232 H 0.82665 0.23891 0.45979 0.0
H1233 H 0.86123 0.19938 0.44498 0.0
H1234 H 0.83954 0.18903 0.44432 0.0
H1235 H 0.85072 0.20047 0.46321 0.0
H1236 H 0.74175 0.13426 0.40354 0.0
H1237 H 0.71295 0.1254 0.40909 0.0
H1238 H 0.72627 0.13998 0.42535 0.0
H1239 H 0.71501 0.11853 0.42966 0.0
H1240 H 0.7672 0.12771 0.44666 0.0
H1241 H 0.75324 0.1584 0.42124 0.0
H1242 H 0.79151 0.15225 0.47678 0.0
H1243 H 0.80677 0.16102 0.46142 0.0
H1244 H 0.7929 0.13914 0.46076 0.0
H1245 H 0.76566 0.18679 0.42773 0.0
H1246 H 0.78704 0.19495 0.42747 0.0
H1247 H 0.77797 0.1948 0.44711 0.0
H1248 H 0.73441 0.13468 0.5454 0.0
H1249 H 0.7627 0.14384 0.5526 0.0
H1250 H 0.75515 0.18458 0.55981 0.0
H1251 H 0.7893 0.15695 0.52304 0.0
H1252 H 0.78742 0.14748 0.54296 0.0
H1253 H 0.80396 0.16796 0.54 0.0
H1254 H 0.77204 0.21035 0.54856 0.0
H1255 H 0.78346 0.21041 0.53069 0.0
H1256 H 0.79275 0.21575 0.55162 0.0
H1257 H 0.87907 0.27779 0.57685 0.0
H1258 H 0.90204 0.30322 0.56503 0.0
H1259 H 0.90732 0.2901 0.55282 0.0
H1260 H 0.88826 0.28871 0.549 0.0
H1261 H 0.87789 0.23277 0.55634 0.0
H1262 H 0.86147 0.26742 0.55489 0.0
H1263 H 0.85113 0.20465 0.5259 0.0
H1264 H 0.8407 0.19735 0.54509 0.0
H1265 H 0.86216 0.20554 0.54508 0.0
H1266 H 0.83672 0.2611 0.5424 0.0
H1267 H 0.82133 0.23985 0.54401 0.0
H1268 H 0.83085 0.24678 0.5243 0.0
H1269 H 0.81168 0.19258 0.43593 0.0
H1270 H 0.77338 0.16831 0.47936 0.0
H1271 H 0.77401 0.17227 0.50953 0.0
H1272 H 0.81486 0.20652 0.55221 0.0
H1273 H 0.85183 0.23369 0.50825 0.0
H1274 H 0.85075 0.23051 0.4779 0.0
H1275 H 0.70583 0.12353 0.55167 0.0
H1276 H 0.71549 0.14498 0.54717 0.0
H1277 H 0.71147 0.13889 0.56881 0.0
C1278 C 0.03038 0.47526 0.30535 0.0
C1279 C 0.0201 0.46235 0.29136 0.0
C1280 C 0.0194 0.47085 0.26239 0.0
C1281 C 0.00279 0.46126 0.25862 0.0
C1282 C 0.99559 0.46524 0.24536 0.0
C1283 C 0.00522 0.47902 0.23572 0.0
C1284 C 0.02209 0.48802 0.23883 0.0
C1285 C 0.02897 0.48365 0.25202 0.0
C1286 C 0.97763 0.45511 0.24205 0.0
C1287 C 0.03276 0.5028 0.22883 0.0
C1288 C 0.95262 0.53428 0.2902 0.0
C1289 C 0.96792 0.54083 0.28022 0.0
C1290 C 0.96925 0.5298 0.25254 0.0
C1291 C 0.98578 0.53604 0.25132 0.0
C1292 C 0.9915 0.52806 0.24073 0.0
C1293 C 0.98039 0.51322 0.23164 0.0
C1294 C 0.96365 0.50704 0.23279 0.0
C1295 C 0.95833 0.51572 0.24289 0.0
C1296 C 0.00942 0.53533 0.23956 0.0
C1297 C 0.95131 0.49099 0.22389 0.0
C1298 C 0.96815 0.52429 0.12281 0.0
C1299 C 0.98451 0.53043 0.12678 0.0
C1300 C 0.9896 0.52083 0.13516 0.0
C1301 C 0.97805 0.50478 0.13959 0.0
C1302 C 0.96166 0.49821 0.13463 0.0
C1303 C 0.95693 0.50806 0.12613 0.0
C1304 C 0.00723 0.52804 0.13982 0.0
C1305 C 0.9491 0.48106 0.13895 0.0
C1306 C 0.01739 0.41869 0.1293 0.0
C1307 C 0.00338 0.4174 0.11849 0.0
C1308 C 0.00306 0.44287 0.12479 0.0
C1309 C 0.01432 0.45967 0.12644 0.0
C1310 C 0.01117 0.47049 0.13592 0.0
C1311 C 0.99617 0.46438 0.14354 0.0
C1312 C 0.98459 0.44741 0.14166 0.0
C1313 C 0.98817 0.43681 0.13234 0.0
C1314 C 0.02381 0.48849 0.13762 0.0
C1315 C 0.96828 0.44057 0.14917 0.0
C1316 C 0.99755 0.48556 0.22433 0.0
C1317 C 0.99219 0.49538 0.23196 0.0
C1318 C 0.98622 0.50343 0.2223 0.0
C1319 C 0.98565 0.50176 0.20439 0.0
C1320 C 0.98057 0.51038 0.19421 0.0
C1321 C 0.97969 0.50835 0.17661 0.0
C1322 C 0.98392 0.49765 0.16849 0.0
C1323 C 0.98296 0.49546 0.15061 0.0
C1324 C 0.98698 0.48453 0.14295 0.0
C1325 C 0.99227 0.47587 0.15268 0.0
C1326 C 0.99372 0.47823 0.17059 0.0
C1327 C 0.99949 0.47017 0.18077 0.0
C1328 C 0.00082 0.47257 0.19839 0.0
C1329 C 0.9963 0.48302 0.20648 0.0
C1330 C 0.9904 0.49124 0.19647 0.0
C1331 C 0.98933 0.48902 0.1785 0.0
C1332 C 0.954 0.54774 0.13501 0.0
C1333 C 0.967 0.54933 0.12306 0.0
O1334 O 0.02668 0.46821 0.27585 0.0
O1335 O 0.00667 0.43312 0.11507 0.0
O1336 O 0.9629 0.53394 0.11618 0.0
O1337 O 0.96354 0.53707 0.2631 0.0
H1338 H 0.00776 0.46045 0.29195 0.0
H1339 H 0.03061 0.48694 0.30306 0.0
H1340 H 0.04293 0.47768 0.30555 0.0
H1341 H 0.02528 0.47106 0.31795 0.0
H1342 H 0.99541 0.45077 0.26606 0.0
H1343 H 0.04183 0.49073 0.25483 0.0
H1344 H 0.97203 0.46228 0.24649 0.0
H1345 H 0.9722 0.44341 0.24873 0.0
H1346 H 0.97472 0.45228 0.22822 0.0
H1347 H 0.04568 0.50834 0.23267 0.0
H1348 H 0.02926 0.51228 0.23068 0.0
H1349 H 0.03115 0.49921 0.21509 0.0
H1350 H 0.97438 0.53448 0.2846 0.0
H1351 H 0.9556 0.53645 0.30407 0.0
H1352 H 0.94485 0.52083 0.28749 0.0
H1353 H 0.94577 0.54038 0.28654 0.0
H1354 H 0.99417 0.54717 0.25863 0.0
H1355 H 0.94558 0.51112 0.24392 0.0
H1356 H 0.01257 0.53443 0.22626 0.0
H1357 H 0.01336 0.52834 0.24743 0.0
H1358 H 0.01621 0.54841 0.24422 0.0
H1359 H 0.93906 0.48649 0.2286 0.0
H1360 H 0.95457 0.48138 0.22564 0.0
H1361 H 0.95089 0.49271 0.21008 0.0
H1362 H 0.9783 0.55466 0.13113 0.0
H1363 H 0.99327 0.5428 0.12355 0.0
H1364 H 0.94435 0.50337 0.12274 0.0
H1365 H 0.0091 0.52969 0.15384 0.0
H1366 H 0.01482 0.54012 0.13421 0.0
H1367 H 0.01128 0.51947 0.13546 0.0
H1368 H 0.93695 0.47752 0.13361 0.0
H1369 H 0.94857 0.48024 0.15296 0.0
H1370 H 0.95245 0.4721 0.13401 0.0
H1371 H 0.99228 0.41083 0.12572 0.0
H1372 H 0.01496 0.40629 0.13257 0.0
H1373 H 0.01901 0.42591 0.14132 0.0
H1374 H 0.02873 0.42493 0.12238 0.0
H1375 H 0.02568 0.46426 0.12035 0.0
H1376 H 0.9791 0.42396 0.13051 0.0
H1377 H 0.02584 0.49287 0.15117 0.0
H1378 H 0.01953 0.49571 0.13066 0.0
H1379 H 0.03544 0.491 0.13249 0.0
H1380 H 0.96034 0.42722 0.14597 0.0
H1381 H 0.96229 0.44721 0.14449 0.0
H1382 H 0.96972 0.4425 0.1632 0.0
H1383 H 0.99287 0.49693 0.2457 0.0
H1384 H 0.97721 0.5188 0.19975 0.0
H1385 H 0.97558 0.51525 0.16946 0.0
H1386 H 0.98607 0.48282 0.12922 0.0
H1387 H 0.0031 0.46194 0.17522 0.0
H1388 H 0.00532 0.46606 0.20564 0.0
H1389 H 0.94187 0.54097 0.12861 0.0
H1390 H 0.95652 0.56009 0.13965 0.0
H1391 H 0.95393 0.5408 0.14617 0.0
C1392 C 0.44871 0.37345 0.2626 0.0
C1393 C 0.44979 0.38919 0.27007 0.0
C1394 C 0.46093 0.41089 0.24949 0.0
C1395 C 0.45762 0.42162 0.24086 0.0
C1396 C 0.46965 0.43482 0.23243 0.0
C1397 C 0.48529 0.43701 0.23225 0.0
C1398 C 0.48874 0.42616 0.24092 0.0
C1399 C 0.47654 0.41326 0.24956 0.0
C1400 C 0.4656 0.44628 0.22353 0.0
C1401 C 0.50525 0.42806 0.24083 0.0
C1402 C 0.56053 0.5267 0.29221 0.0
C1403 C 0.57231 0.5353 0.27816 0.0
C1404 C 0.55423 0.52075 0.25319 0.0
C1405 C 0.55591 0.50679 0.25266 0.0
C1406 C 0.54557 0.49289 0.2422 0.0
C1407 C 0.53305 0.49276 0.23236 0.0
C1408 C 0.53137 0.50683 0.23283 0.0
C1409 C 0.54219 0.52075 0.24299 0.0
C1410 C 0.54793 0.47824 0.24186 0.0
C1411 C 0.51795 0.50707 0.22285 0.0
C1412 C 0.56146 0.50847 0.12375 0.0
C1413 C 0.56399 0.4965 0.13107 0.0
C1414 C 0.55175 0.48367 0.13972 0.0
C1415 C 0.53673 0.48278 0.14107 0.0
C1416 C 0.534 0.49451 0.13329 0.0
C1417 C 0.54642 0.50717 0.12466 0.0
C1418 C 0.55495 0.47119 0.14769 0.0
C1419 C 0.51806 0.49382 0.13439 0.0
C1420 C 0.43258 0.35729 0.12441 0.0
C1421 C 0.43829 0.37457 0.1184 0.0
C1422 C 0.46572 0.39746 0.12433 0.0
C1423 C 0.48103 0.40025 0.12878 0.0
C1424 C 0.49255 0.41495 0.13736 0.0
C1425 C 0.4887 0.42727 0.14126 0.0
C1426 C 0.47348 0.42485 0.13604 0.0
C1427 C 0.46213 0.40995 0.12762 0.0
C1428 C 0.50872 0.41719 0.14254 0.0
C1429 C 0.46917 0.43795 0.13953 0.0
C1430 C 0.49782 0.45014 0.2223 0.0
C1431 C 0.50911 0.46484 0.23086 0.0
C1432 C 0.52131 0.47765 0.22223 0.0
C1433 C 0.52219 0.47581 0.20446 0.0
C1434 C 0.53433 0.48833 0.19533 0.0
C1435 C 0.53493 0.48647 0.17784 0.0
C1436 C 0.52353 0.47192 0.16881 0.0
C1437 C 0.52405 0.46988 0.15105 0.0
C1438 C 0.51252 0.45531 0.14244 0.0
C1439 C 0.50045 0.4425 0.15115 0.0
C1440 C 0.49983 0.44423 0.16896 0.0
C1441 C 0.48806 0.43146 0.17817 0.0
C1442 C 0.48745 0.43333 0.19564 0.0
C1443 C 0.49853 0.44806 0.20458 0.0
C1444 C 0.51067 0.46099 0.19562 0.0
C1445 C 0.51133 0.45906 0.17778 0.0
C1446 C 0.59715 0.53427 0.13394 0.0
C1447 C 0.58948 0.52702 0.1162 0.0
O1448 O 0.44864 0.39829 0.25724 0.0
O1449 O 0.45482 0.38265 0.11685 0.0
O1450 O 0.57314 0.52153 0.1159 0.0
O1451 O 0.56383 0.5344 0.26332 0.0
H1452 H 0.46152 0.39644 0.27731 0.0
H1453 H 0.45908 0.37654 0.25456 0.0
H1454 H 0.43751 0.36609 0.2546 0.0
H1455 H 0.44895 0.36585 0.27296 0.0
H1456 H 0.44553 0.41966 0.24086 0.0
H1457 H 0.47925 0.40493 0.256 0.0
H1458 H 0.47469 0.45927 0.22713 0.0
H1459 H 0.45349 0.4441 0.22657 0.0
H1460 H 0.46588 0.44452 0.20959 0.0
H1461 H 0.50568 0.4179 0.24711 0.0
H1462 H 0.51405 0.43985 0.24756 0.0
H1463 H 0.50906 0.42848 0.22758 0.0
H1464 H 0.57954 0.5293 0.27596 0.0
H1465 H 0.5671 0.52716 0.30414 0.0
H1466 H 0.5522 0.51357 0.28839 0.0
H1467 H 0.55331 0.53268 0.29468 0.0
H1468 H 0.56528 0.50661 0.26025 0.0
H1469 H 0.54101 0.53158 0.24342 0.0
H1470 H 0.5382 0.46824 0.2488 0.0
H1471 H 0.55967 0.48121 0.24791 0.0
H1472 H 0.54722 0.47354 0.22859 0.0
H1473 H 0.51734 0.51831 0.22592 0.0
H1474 H 0.50622 0.49612 0.22548 0.0
H1475 H 0.5198 0.50654 0.20907 0.0
H1476 H 0.59139 0.51666 0.11263 0.0
H1477 H 0.57547 0.49714 0.13022 0.0
H1478 H 0.54454 0.51637 0.11885 0.0
H1479 H 0.55443 0.47215 0.16169 0.0
H1480 H 0.56689 0.47295 0.14459 0.0
H1481 H 0.54549 0.45857 0.1433 0.0
H1482 H 0.5179 0.50397 0.12777 0.0
H1483 H 0.51538 0.49452 0.14791 0.0
H1484 H 0.50831 0.48191 0.12869 0.0
H1485 H 0.43499 0.38082 0.12839 0.0
H1486 H 0.41933 0.35052 0.12565 0.0
H1487 H 0.43836 0.35812 0.13703 0.0
H1488 H 0.43583 0.35026 0.11539 0.0
H1489 H 0.48378 0.39065 0.12591 0.0
H1490 H 0.45052 0.40815 0.12354 0.0
H1491 H 0.51096 0.41985 0.15646 0.0
H1492 H 0.51834 0.42789 0.13623 0.0
H1493 H 0.50962 0.40618 0.13915 0.0
H1494 H 0.45738 0.43475 0.13344 0.0
H1495 H 0.4786 0.44986 0.13487 0.0
H1496 H 0.46863 0.43967 0.15344 0.0
H1497 H 0.50844 0.46631 0.24446 0.0
H1498 H 0.54346 0.49975 0.20161 0.0
H1499 H 0.54446 0.49659 0.17147 0.0
H1500 H 0.513 0.45388 0.1288 0.0
H1501 H 0.47918 0.41987 0.17198 0.0
H1502 H 0.47812 0.42305 0.20202 0.0
H1503 H 0.59503 0.54442 0.13782 0.0
H1504 H 0.61032 0.5391 0.13401 0.0
H1505 H 0.59201 0.52475 0.14351 0.0
C1506 C 0.41592 0.95211 0.26994 0.0
C1507 C 0.42638 0.97091 0.2721 0.0
C1508 C 0.44283 0.98377 0.2481 0.0
C1509 C 0.4503 -0.0002 0.24259 0.0
C1510 C 0.46459 0.00625 0.23378 0.0
C1511 C 0.47108 0.9961 0.22975 0.0
C1512 C 0.46335 0.97974 0.23502 0.0
C1513 C 0.44942 0.97383 0.24435 0.0
C1514 C 0.47271 0.02389 0.22878 0.0
C1515 C 0.4697 0.96843 0.23064 0.0
C1516 C 0.57046 0.04206 0.2931 0.0
C1517 C 0.56586 0.02732 0.28082 0.0
C1518 C 0.55662 0.02809 0.25252 0.0
C1519 C 0.54639 0.01153 0.24754 0.0
C1520 C 0.53309 0.00677 0.23638 0.0
C1521 C 0.5298 0.01884 0.23043 0.0
C1522 C 0.54038 0.03564 0.2352 0.0
C1523 C 0.55387 0.04007 0.24598 0.0
C1524 C 0.52231 0.98879 0.23135 0.0
C1525 C 0.53715 0.04884 0.22939 0.0
C1526 C 0.55899 0.04288 0.12476 0.0
C1527 C 0.55186 0.02623 0.12831 0.0
C1528 C 0.53662 0.01796 0.13524 0.0
C1529 C 0.52864 0.02673 0.13914 0.0
C1530 C 0.53557 0.04337 0.13486 0.0
C1531 C 0.55057 0.05113 0.1274 0.0
C1532 C 0.52928 2e-05 0.13884 0.0
C1533 C 0.52738 0.05311 0.13853 0.0
C1534 C 0.40208 0.98468 0.13138 0.0
C1535 C 0.41499 0.99614 0.11955 0.0
C1536 C 0.43972 0.99478 0.12298 0.0
C1537 C 0.44439 0.98304 0.12434 0.0
C1538 C 0.45922 0.98706 0.13219 0.0
C1539 C 0.46965 0.00331 0.13872 0.0
C1540 C 0.46532 0.01544 0.13671 0.0
C1541 C 0.45047 0.01111 0.12869 0.0
C1542 C 0.46357 0.97388 0.13394 0.0
C1543 C 0.47629 0.03296 0.14327 0.0
C1544 C 0.48582 0.00248 0.21984 0.0
C1545 C 0.50046 0.00767 0.22864 0.0
C1546 C 0.5148 0.01377 0.22011 0.0
C1547 C 0.51463 0.0149 0.20228 0.0
C1548 C 0.52882 0.02112 0.1933 0.0
C1549 C 0.52857 0.02262 0.17583 0.0
C1550 C 0.51404 0.01748 0.16654 0.0
C1551 C 0.51366 0.01895 0.14874 0.0
C1552 C 0.49901 0.01387 0.13997 0.0
C1553 C 0.48465 0.00745 0.14852 0.0
C1554 C 0.48479 0.00579 0.16627 0.0
C1555 C 0.47055 0.9993 0.17523 0.0
C1556 C 0.47082 0.99802 0.19272 0.0
C1557 C 0.48538 0.00335 0.20199 0.0
C1558 C 0.49985 0.00969 0.1932 0.0
C1559 C 0.49955 0.01089 0.17531 0.0
C1560 C 0.59987 0.06883 0.13227 0.0
C1561 C 0.58724 0.05126 0.12638 0.0
O1562 O 0.42902 0.97803 0.25652 0.0
O1563 O 0.42496 0.98992 0.11578 0.0
O1564 O 0.57408 0.05131 0.11904 0.0
O1565 O 0.56865 0.03255 0.26437 0.0
H1566 H 0.43804 0.9738 0.27842 0.0
H1567 H 0.42282 0.94673 0.26445 0.0
H1568 H 0.40519 0.94842 0.26145 0.0
H1569 H 0.4119 0.9467 0.28247 0.0
H1570 H 0.44505 0.00735 0.24551 0.0
H1571 H 0.44351 0.96132 0.24829 0.0
H1572 H 0.4857 0.03034 0.23266 0.0
H1573 H 0.46722 0.03067 0.23459 0.0
H1574 H 0.47179 0.02425 0.21477 0.0
H1575 H 0.46132 0.95556 0.23398 0.0
H1576 H 0.48138 0.97286 0.23763 0.0
H1577 H 0.47186 0.96855 0.21686 0.0
H1578 H 0.55275 0.01869 0.28233 0.0
H1579 H 0.56875 0.03817 0.30641 0.0
H1580 H 0.56265 0.0473 0.29031 0.0
H1581 H 0.58316 0.05186 0.29178 0.0
H1582 H 0.54874 0.00237 0.25261 0.0
H1583 H 0.56191 0.05283 0.24998 0.0
H1584 H 0.51917 0.9871 0.21753 0.0
H1585 H 0.51097 0.98394 0.23819 0.0
H1586 H 0.528 0.98144 0.23455 0.0
H1587 H 0.54569 0.06108 0.2355 0.0
H1588 H 0.5247 0.04564 0.23228 0.0
H1589 H 0.53819 0.04971 0.21543 0.0
H1590 H 0.58376 0.04385 0.13792 0.0
H1591 H 0.55828 0.01976 0.12574 0.0
H1592 H 0.55614 0.06393 0.12431 0.0
H1593 H 0.53039 0.99878 0.15268 0.0
H1594 H 0.53536 0.99428 0.13211 0.0
H1595 H 0.51628 0.99315 0.13502 0.0
H1596 H 0.53525 0.06639 0.13635 0.0
H1597 H 0.52361 0.05177 0.15187 0.0
H1598 H 0.51641 0.04826 0.13013 0.0
H1599 H 0.42166 0.00832 0.12643 0.0
H1600 H 0.39373 0.98926 0.13419 0.0
H1601 H 0.40785 0.98426 0.14354 0.0
H1602 H 0.39507 0.97199 0.12561 0.0
H1603 H 0.43618 0.97055 0.11957 0.0
H1604 H 0.44751 0.02059 0.1268 0.0
H1605 H 0.46432 0.97168 0.14759 0.0
H1606 H 0.47558 0.97801 0.12877 0.0
H1607 H 0.45462 0.96209 0.12726 0.0
H1608 H 0.4711 0.04093 0.14089 0.0
H1609 H 0.48798 0.03814 0.13706 0.0
H1610 H 0.47874 0.03328 0.15713 0.0
H1611 H 0.50069 0.00694 0.24233 0.0
H1612 H 0.54033 0.02511 0.19972 0.0
H1613 H 0.53996 0.02783 0.16971 0.0
H1614 H 0.49882 0.01525 0.12638 0.0
H1615 H 0.459 0.99515 0.16882 0.0
H1616 H 0.45947 0.99289 0.1989 0.0
H1617 H 0.6038 0.07701 0.12139 0.0
H1618 H 0.61051 0.06909 0.13835 0.0
H1619 H 0.59471 0.07365 0.14173 0.0
C1620 C 0.56983 0.97129 0.7743 0.0
C1621 C 0.56912 0.98157 0.75995 0.0
C1622 C 0.55752 0.99665 0.77417 0.0
C1623 C 0.56124 0.01199 0.78121 0.0
C1624 C 0.54997 0.01397 0.79033 0.0
C1625 C 0.53459 0.00017 0.79253 0.0
C1626 C 0.53044 0.98474 0.78479 0.0
C1627 C 0.54193 0.98313 0.77559 0.0
C1628 C 0.5547 0.03068 0.79817 0.0
C1629 C 0.51407 0.96984 0.78679 0.0
C1630 C 0.42752 0.0071 0.76102 0.0
C1631 C 0.43634 0.00303 0.77395 0.0
C1632 C 0.46404 0.01231 0.78389 0.0
C1633 C 0.46045 0.99748 0.79118 0.0
C1634 C 0.47259 0.99562 0.7991 0.0
C1635 C 0.48861 0.00903 0.80024 0.0
C1636 C 0.4922 0.02408 0.79322 0.0
C1637 C 0.47988 0.02546 0.785 0.0
C1638 C 0.46829 0.97922 0.80604 0.0
C1639 C 0.50906 0.03871 0.79433 0.0
C1640 C 0.47951 0.01481 0.91201 0.0
C1641 C 0.4726 0.9995 0.90324 0.0
C1642 C 0.48197 0.99534 0.89322 0.0
C1643 C 0.49846 0.00703 0.89157 0.0
C1644 C 0.50554 0.02229 0.90094 0.0
C1645 C 0.49595 0.02589 0.91128 0.0
C1646 C 0.47414 0.97866 0.88405 0.0
C1647 C 0.52309 0.035 0.89962 0.0
C1648 C 0.59094 0.97413 0.88722 0.0
C1649 C 0.58726 0.98378 0.90055 0.0
C1650 C 0.56089 0.98156 0.89598 0.0
C1651 C 0.54511 0.96975 0.89091 0.0
C1652 C 0.53437 0.97431 0.88428 0.0
C1653 C 0.53955 0.99116 0.88286 0.0
C1654 C 0.55533 0.00322 0.88855 0.0
C1655 C 0.56581 0.99831 0.89519 0.0
C1656 C 0.51755 0.96113 0.87859 0.0
C1657 C 0.5611 0.0213 0.88753 0.0
C1658 C 0.52352 0.00162 0.80429 0.0
C1659 C 0.51177 0.00468 0.79764 0.0
C1660 C 0.50162 0.00705 0.80828 0.0
C1661 C 0.50352 0.0068 0.8261 0.0
C1662 C 0.49436 0.01029 0.83728 0.0
C1663 C 0.49605 0.0096 0.85476 0.0
C1664 C 0.50674 0.00505 0.86173 0.0
C1665 C 0.50811 0.00366 0.87943 0.0
C1666 C 0.51886 0.99912 0.88589 0.0
C1667 C 0.52853 0.99612 0.87517 0.0
C1668 C 0.52747 0.99762 0.85747 0.0
C1669 C 0.53719 0.99492 0.84635 0.0
C1670 C 0.53599 0.99632 0.82896 0.0
C1671 C 0.52489 0.00029 0.82197 0.0
C1672 C 0.51494 0.00301 0.83292 0.0
C1673 C 0.51638 0.0019 0.85072 0.0
C1674 C 0.46339 0.03966 0.91468 0.0
C1675 C 0.45864 0.02158 0.91249 0.0
O1676 O 0.56945 0.99553 0.76651 0.0
O1677 O 0.57073 0.97625 0.90196 0.0
O1678 O 0.47026 0.01935 0.92054 0.0
O1679 O 0.45271 0.01437 0.77552 0.0
H1680 H 0.55789 0.974 0.752 0.0
H1681 H 0.55904 0.96666 0.78202 0.0
H1682 H 0.58064 0.97875 0.78284 0.0
H1683 H 0.57024 0.96049 0.76892 0.0
H1684 H 0.57322 0.02238 0.77987 0.0
H1685 H 0.5387 0.97123 0.76991 0.0
H1686 H 0.54534 0.03385 0.79502 0.0
H1687 H 0.56644 0.04047 0.79378 0.0
H1688 H 0.55559 0.03041 0.8122 0.0
H1689 H 0.51249 0.9588 0.77955 0.0
H1690 H 0.50457 0.97242 0.7824 0.0
H1691 H 0.5123 0.96709 0.80042 0.0
H1692 H 0.43067 0.9996 0.78647 0.0
H1693 H 0.41951 0.98788 0.74257 0.0
H1694 H 0.43569 0.02038 0.75814 0.0
H1695 H 0.41902 0.0095 0.76847 0.0
H1696 H 0.44824 0.9872 0.79055 0.0
H1697 H 0.48257 0.03687 0.77939 0.0
H1698 H 0.46916 0.98034 0.82012 0.0
H1699 H 0.47684 0.97534 0.8018 0.0
H1700 H 0.45588 0.96944 0.80202 0.0
H1701 H 0.50948 0.05009 0.7903 0.0
H1702 H 0.51683 0.03622 0.78604 0.0
H1703 H 0.51418 0.04082 0.80753 0.0
H1704 H 0.45795 0.01867 0.89856 0.0
H1705 H 0.45983 0.99095 0.90411 0.0
H1706 H 0.50109 0.03765 0.91824 0.0
H1707 H 0.47223 0.97996 0.8704 0.0
H1708 H 0.4623 0.97001 0.8892 0.0
H1709 H 0.48203 0.97326 0.88499 0.0
H1710 H 0.52637 0.04679 0.90653 0.0
H1711 H 0.52603 0.03742 0.88609 0.0
H1712 H 0.5306 0.03025 0.90501 0.0
H1713 H 0.59242 0.99642 0.89601 0.0
H1714 H 0.60415 0.97981 0.88609 0.0
H1715 H 0.58558 0.97431 0.87467 0.0
H1716 H 0.58581 0.96113 0.8906 0.0
H1717 H 0.54131 0.95687 0.89188 0.0
H1718 H 0.57769 0.00762 0.89996 0.0
H1719 H 0.51566 0.96185 0.86478 0.0
H1720 H 0.50864 0.96318 0.88527 0.0
H1721 H 0.5152 0.94859 0.88105 0.0
H1722 H 0.57378 0.02919 0.89232 0.0
H1723 H 0.55335 0.02444 0.89507 0.0
H1724 H 0.5601 0.02415 0.87416 0.0
H1725 H 0.5105 0.00517 0.784 0.0
H1726 H 0.48581 0.01366 0.83263 0.0
H1727 H 0.48873 0.0125 0.86272 0.0
H1728 H 0.51973 0.99794 0.89946 0.0
H1729 H 0.54587 0.99172 0.85096 0.0
H1730 H 0.54379 0.99408 0.82105 0.0
H1731 H 0.46444 0.04344 0.92835 0.0
H1732 H 0.45429 0.04176 0.90818 0.0
H1733 H 0.47518 0.04748 0.90898 0.0
C1734 C 0.02455 0.56433 0.71884 0.0
C1735 C 0.01391 0.56297 0.73353 0.0
C1736 C 0.01815 0.55773 0.76268 0.0
C1737 C 0.00202 0.54928 0.76721 0.0
C1738 C 0.99719 0.53859 0.78063 0.0
C1739 C 0.0087 0.53622 0.78955 0.0
C1740 C 0.02513 0.54557 0.7857 0.0
C1741 C 0.02967 0.55644 0.77246 0.0
C1742 C 0.97964 0.52918 0.78468 0.0
C1743 C 0.03775 0.54328 0.79481 0.0
C1744 C 0.97132 0.44389 0.72295 0.0
C1745 C 0.97977 0.4416 0.73838 0.0
C1746 C 0.97648 0.45175 0.76605 0.0
C1747 C 0.99262 0.46032 0.77204 0.0
C1748 C 0.9979 0.47296 0.78468 0.0
C1749 C 0.98679 0.47696 0.79153 0.0
C1750 C 0.9703 0.46744 0.78648 0.0
C1751 C 0.96534 0.45481 0.77387 0.0
C1752 C 0.01549 0.48259 0.79013 0.0
C1753 C 0.9581 0.47122 0.7937 0.0
C1754 C 0.99314 0.45802 0.90215 0.0
C1755 C 0.00729 0.46711 0.89348 0.0
C1756 C 0.0098 0.48069 0.88438 0.0
C1757 C 0.99771 0.48504 0.88373 0.0
C1758 C 0.9836 0.47612 0.89288 0.0
C1759 C 0.9816 0.46281 0.90221 0.0
C1760 C 0.02529 0.49029 0.87534 0.0
C1761 C 0.9705 0.48042 0.89251 0.0
C1762 C 0.04418 0.61436 0.8955 0.0
C1763 C 0.0296 0.60166 0.90473 0.0
C1764 C 0.02611 0.5743 0.90009 0.0
C1765 C 0.03634 0.56809 0.89727 0.0
C1766 C 0.03088 0.55309 0.88812 0.0
C1767 C 0.01462 0.54388 0.88211 0.0
C1768 C 0.00404 0.54983 0.8855 0.0
C1769 C 0.00993 0.56505 0.89439 0.0
C1770 C 0.0425 0.54713 0.88484 0.0
C1771 C 0.9865 0.54005 0.87983 0.0
C1772 C 0.00325 0.52207 0.80061 0.0
C1773 C 0.9974 0.50666 0.79246 0.0
C1774 C 0.99275 0.49265 0.8016 0.0
C1775 C 0.99409 0.49395 0.81952 0.0
C1776 C 0.9899 0.48016 0.82912 0.0
C1777 C 0.99163 0.48169 0.84676 0.0
C1778 C 0.99755 0.49705 0.85545 0.0
C1779 C 0.99985 0.49882 0.87333 0.0
C1780 C 0.00514 0.51413 0.88159 0.0
C1781 C 0.00868 0.52795 0.87245 0.0
C1782 C 0.00709 0.52657 0.8545 0.0
C1783 C 0.01118 0.54034 0.84484 0.0
C1784 C 0.0098 0.53889 0.82718 0.0
C1785 C 0.00433 0.52364 0.81853 0.0
C1786 C 0.99988 0.50953 0.82801 0.0
C1787 C 0.00142 0.51103 0.84601 0.0
C1788 C 0.97365 0.41698 0.89962 0.0
C1789 C 0.99085 0.43132 0.90282 0.0
O1790 O 0.02289 0.56677 0.74869 0.0
O1791 O 0.03207 0.5889 0.90895 0.0
O1792 O 0.99036 0.44451 0.91042 0.0
O1793 O 0.97127 0.44058 0.75272 0.0
H1794 H 0.00386 0.54995 0.73306 0.0
H1795 H 0.02886 0.55549 0.72025 0.0
H1796 H 0.03518 0.57692 0.71866 0.0
H1797 H 0.0176 0.56135 0.70653 0.0
H1798 H 0.99316 0.55076 0.76003 0.0
H1799 H 0.04212 0.56326 0.76901 0.0
H1800 H 0.97421 0.51632 0.77948 0.0
H1801 H 0.97286 0.53466 0.77907 0.0
H1802 H 0.97829 0.52879 0.79863 0.0
H1803 H 0.04998 0.55137 0.79015 0.0
H1804 H 0.03475 0.53029 0.79306 0.0
H1805 H 0.03794 0.54599 0.80862 0.0
H1806 H 0.99211 0.45254 0.73937 0.0
H1807 H 0.97782 0.44455 0.71127 0.0
H1808 H 0.97117 0.45554 0.72474 0.0
H1809 H 0.95869 0.43358 0.72125 0.0
H1810 H 0.00114 0.45734 0.76669 0.0
H1811 H 0.95284 0.44783 0.76945 0.0
H1812 H 0.0169 0.4839 0.8042 0.0
H1813 H 0.02097 0.49513 0.78526 0.0
H1814 H 0.02219 0.47668 0.7853 0.0
H1815 H 0.94558 0.46178 0.78962 0.0
H1816 H 0.96049 0.48335 0.78946 0.0
H1817 H 0.95921 0.47205 0.80778 0.0
H1818 H 0.99639 0.43455 0.89022 0.0
H1819 H 0.01638 0.46356 0.89387 0.0
H1820 H 0.97078 0.45575 0.90912 0.0
H1821 H 0.02279 0.488 0.86142 0.0
H1822 H 0.03429 0.48676 0.87901 0.0
H1823 H 0.03057 0.50368 0.87816 0.0
H1824 H 0.95977 0.47154 0.8993 0.0
H1825 H 0.96676 0.48069 0.87916 0.0
H1826 H 0.97517 0.49288 0.89852 0.0
H1827 H 0.01884 0.59714 0.89598 0.0
H1828 H 0.04242 0.6246 0.89167 0.0
H1829 H 0.04579 0.6085 0.88386 0.0
H1830 H 0.05528 0.61942 0.90379 0.0
H1831 H 0.04874 0.57521 0.90201 0.0
H1832 H 0.00182 0.56951 0.89721 0.0
H1833 H 0.0421 0.54388 0.87111 0.0
H1834 H 0.03893 0.53586 0.89187 0.0
H1835 H 0.05506 0.55648 0.88888 0.0
H1836 H 0.97955 0.54562 0.88481 0.0
H1837 H 0.98107 0.52729 0.88412 0.0
H1838 H 0.98538 0.53931 0.86576 0.0
H1839 H 0.99661 0.50558 0.77868 0.0
H1840 H 0.98537 0.46808 0.82307 0.0
H1841 H 0.98828 0.47067 0.85352 0.0
H1842 H 0.00682 0.51537 0.89531 0.0
H1843 H 0.0156 0.55242 0.85081 0.0
H1844 H 0.01314 0.54988 0.82035 0.0
H1845 H 0.96737 0.4132 0.91174 0.0
H1846 H 0.97372 0.4063 0.89339 0.0
H1847 H 0.96684 0.42072 0.89112 0.0
C1848 C 0.53016 0.58057 0.73593 0.0
C1849 C 0.54308 0.58854 0.75038 0.0
C1850 C 0.53006 0.56834 0.77224 0.0
C1851 C 0.51854 0.57275 0.77632 0.0
C1852 C 0.50609 0.56328 0.78708 0.0
C1853 C 0.50512 0.54915 0.79394 0.0
C1854 C 0.51688 0.54489 0.79022 0.0
C1855 C 0.52926 0.55462 0.77947 0.0
C1856 C 0.49379 0.56822 0.79093 0.0
C1857 C 0.5162 0.52993 0.7974 0.0
C1858 C 0.38703 0.46463 0.76089 0.0
C1859 C 0.40111 0.46258 0.75547 0.0
C1860 C 0.42296 0.47623 0.77755 0.0
C1861 C 0.43254 0.47325 0.78867 0.0
C1862 C 0.44602 0.48617 0.79742 0.0
C1863 C 0.44956 0.50254 0.79553 0.0
C1864 C 0.43981 0.50567 0.78437 0.0
C1865 C 0.42672 0.49249 0.77529 0.0
C1866 C 0.45643 0.48224 0.80861 0.0
C1867 C 0.44314 0.52293 0.78209 0.0
C1868 C 0.42231 0.49751 0.90381 0.0
C1869 C 0.4311 0.49036 0.89789 0.0
C1870 C 0.44548 0.49972 0.88956 0.0
C1871 C 0.45086 0.51644 0.88668 0.0
C1872 C 0.44223 0.52376 0.89314 0.0
C1873 C 0.42819 0.51423 0.90191 0.0
C1874 C 0.45475 0.49165 0.88365 0.0
C1875 C 0.44759 0.54155 0.89045 0.0
C1876 C 0.56599 0.62018 0.89884 0.0
C1877 C 0.55789 0.61063 0.9145 0.0
C1878 C 0.53722 0.58311 0.90296 0.0
C1879 C 0.53337 0.56674 0.90089 0.0
C1880 C 0.51904 0.5549 0.89234 0.0
C1881 C 0.50825 0.55958 0.88577 0.0
C1882 C 0.51192 0.57606 0.88801 0.0
C1883 C 0.52641 0.5877 0.89649 0.0
C1884 C 0.51552 0.53744 0.89009 0.0
C1885 C 0.5006 0.58141 0.88122 0.0
C1886 C 0.49142 0.53855 0.80448 0.0
C1887 C 0.4774 0.52608 0.79615 0.0
C1888 C 0.46362 0.5163 0.80505 0.0
C1889 C 0.46369 0.51918 0.82277 0.0
C1890 C 0.44975 0.51033 0.83198 0.0
C1891 C 0.45012 0.51278 0.8495 0.0
C1892 C 0.46449 0.52404 0.85853 0.0
C1893 C 0.46517 0.52612 0.87644 0.0
C1894 C 0.47961 0.53767 0.88492 0.0
C1895 C 0.49342 0.54737 0.876 0.0
C1896 C 0.49299 0.5454 0.85812 0.0
C1897 C 0.50668 0.55495 0.84876 0.0
C1898 C 0.50616 0.55288 0.83117 0.0
C1899 C 0.49201 0.54099 0.8223 0.0
C1900 C 0.47807 0.53126 0.83147 0.0
C1901 C 0.47851 0.53357 0.84939 0.0
C1902 C 0.38029 0.47341 0.90343 0.0
C1903 C 0.39595 0.47312 0.9055 0.0
O1904 O 0.54191 0.57674 0.76126 0.0
O1905 O 0.5515 0.59392 0.91111 0.0
O1906 O 0.40811 0.48857 0.91133 0.0
O1907 O 0.41012 0.463 0.76961 0.0
H1908 H 0.54155 0.59795 0.75757 0.0
H1909 H 0.51793 0.57479 0.74097 0.0
H1910 H 0.53137 0.57095 0.72877 0.0
H1911 H 0.53131 0.58999 0.72705 0.0
H1912 H 0.51904 0.58344 0.77108 0.0
H1913 H 0.53823 0.55136 0.77636 0.0
H1914 H 0.4817 0.55837 0.78609 0.0
H1915 H 0.49653 0.57988 0.78511 0.0
H1916 H 0.49324 0.5697 0.80487 0.0
H1917 H 0.5264 0.5284 0.79348 0.0
H1918 H 0.50475 0.51876 0.79308 0.0
H1919 H 0.5164 0.53087 0.81147 0.0
H1920 H 0.40879 0.4726 0.74701 0.0
H1921 H 0.37974 0.46415 0.74955 0.0
H1922 H 0.3915 0.47665 0.76783 0.0
H1923 H 0.37919 0.45476 0.76937 0.0
H1924 H 0.42954 0.46065 0.79029 0.0
H1925 H 0.41938 0.49497 0.76672 0.0
H1926 H 0.45395 0.48334 0.82211 0.0
H1927 H 0.46938 0.49101 0.80688 0.0
H1928 H 0.45402 0.46955 0.80594 0.0
H1929 H 0.43306 0.52307 0.77514 0.0
H1930 H 0.45415 0.52972 0.77478 0.0
H1931 H 0.44533 0.52958 0.79461 0.0
H1932 H 0.3986 0.46997 0.89269 0.0
H1933 H 0.42674 0.47749 0.89985 0.0
H1934 H 0.42138 0.51964 0.90677 0.0
H1935 H 0.45283 0.48912 0.86972 0.0
H1936 H 0.45082 0.47983 0.88976 0.0
H1937 H 0.46785 0.49992 0.88643 0.0
H1938 H 0.43863 0.54487 0.89467 0.0
H1939 H 0.44972 0.54416 0.87682 0.0
H1940 H 0.45912 0.54955 0.8977 0.0
H1941 H 0.54818 0.61311 0.91807 0.0
H1942 H 0.55705 0.61645 0.88808 0.0
H1943 H 0.57129 0.63359 0.90163 0.0
H1944 H 0.57564 0.61777 0.89491 0.0
H1945 H 0.54175 0.5633 0.90591 0.0
H1946 H 0.52917 0.6003 0.89783 0.0
H1947 H 0.5141 0.53381 0.87636 0.0
H1948 H 0.504 0.529 0.89596 0.0
H1949 H 0.52519 0.53578 0.89589 0.0
H1950 H 0.50469 0.59444 0.88488 0.0
H1951 H 0.48839 0.5735 0.88601 0.0
H1952 H 0.49959 0.57988 0.86716 0.0
H1953 H 0.47723 0.52395 0.78253 0.0
H1954 H 0.4384 0.50138 0.82573 0.0
H1955 H 0.43902 0.50559 0.85589 0.0
H1956 H 0.48008 0.53921 0.89865 0.0
H1957 H 0.51797 0.56416 0.85492 0.0
H1958 H 0.51705 0.56057 0.82463 0.0
H1959 H 0.37695 0.47659 0.91578 0.0
H1960 H 0.37037 0.46123 0.89848 0.0
H1961 H 0.3818 0.48274 0.89426 0.0
C1962 C 0.63091 0.76754 0.6349 0.0
C1963 C 0.63073 0.75564 0.6211 0.0
C1964 C 0.63394 0.7712 0.59546 0.0
C1965 C 0.61775 0.76671 0.59267 0.0
C1966 C 0.61335 0.77443 0.58049 0.0
C1967 C 0.6254 0.78716 0.57126 0.0
C1968 C 0.6417 0.79164 0.57402 0.0
C1969 C 0.64568 0.78334 0.58585 0.0
C1970 C 0.59582 0.76917 0.57773 0.0
C1971 C 0.65497 0.80552 0.56486 0.0
C1972 C 0.594 0.86297 0.62623 0.0
C1973 C 0.60775 0.86529 0.61512 0.0
C1974 C 0.60513 0.85111 0.58803 0.0
C1975 C 0.62094 0.85459 0.58614 0.0
C1976 C 0.62417 0.84443 0.57561 0.0
C1977 C 0.61124 0.83022 0.56724 0.0
C1978 C 0.59526 0.8268 0.56908 0.0
C1979 C 0.59248 0.83761 0.5791 0.0
C1980 C 0.6414 0.84871 0.57375 0.0
C1981 C 0.58105 0.81149 0.56098 0.0
C1982 C 0.59408 0.83711 0.45724 0.0
C1983 C 0.61033 0.84455 0.46261 0.0
C1984 C 0.61606 0.83567 0.47137 0.0
C1985 C 0.6052 0.81916 0.47514 0.0
C1986 C 0.58895 0.81149 0.46913 0.0
C1987 C 0.58368 0.82054 0.45999 0.0
C1988 C 0.63361 0.84402 0.47693 0.0
C1989 C 0.57704 0.79387 0.47274 0.0
C1990 C 0.61751 0.71638 0.46082 0.0
C1991 C 0.61962 0.72767 0.44634 0.0
C1992 C 0.62658 0.75425 0.46061 0.0
C1993 C 0.63904 0.77037 0.46422 0.0
C1994 C 0.63641 0.78176 0.47334 0.0
C1995 C 0.62086 0.77688 0.47897 0.0
C1996 C 0.60818 0.76055 0.47548 0.0
C1997 C 0.61116 0.74937 0.46642 0.0
C1998 C 0.65023 0.79904 0.47692 0.0
C1999 C 0.59144 0.75496 0.48128 0.0
C2000 C 0.62112 0.79673 0.55989 0.0
C2001 C 0.61813 0.80841 0.56753 0.0
C2002 C 0.61436 0.81826 0.55788 0.0
C2003 C 0.61355 0.81646 0.53995 0.0
C2004 C 0.6099 0.82621 0.5298 0.0
C2005 C 0.60869 0.82403 0.5122 0.0
C2006 C 0.61161 0.81237 0.50403 0.0
C2007 C 0.61052 0.81014 0.48613 0.0
C2008 C 0.61375 0.79863 0.47842 0.0
C2009 C 0.61778 0.78897 0.48812 0.0
C2010 C 0.61862 0.79077 0.50605 0.0
C2011 C 0.62227 0.78101 0.51623 0.0
C2012 C 0.62292 0.78279 0.53386 0.0
C2013 C 0.62023 0.79461 0.54199 0.0
C2014 C 0.61647 0.80456 0.532 0.0
C2015 C 0.61562 0.8026 0.51401 0.0
C2016 C 0.57738 0.86301 0.45476 0.0
C2017 C 0.59254 0.8618 0.45332 0.0
O2018 O 0.63889 0.76432 0.60726 0.0
O2019 O 0.63005 0.74395 0.45158 0.0
O2020 O 0.58803 0.84557 0.44945 0.0
O2021 O 0.60176 0.86052 0.59851 0.0
H2022 H 0.6181 0.74636 0.61721 0.0
H2023 H 0.62501 0.77416 0.62991 0.0
H2024 H 0.64348 0.77672 0.63913 0.0
H2025 H 0.62424 0.76077 0.64601 0.0
H2026 H 0.60847 0.75723 0.59986 0.0
H2027 H 0.65812 0.78667 0.58807 0.0
H2028 H 0.59368 0.77881 0.58331 0.0
H2029 H 0.58777 0.75742 0.58373 0.0
H2030 H 0.59255 0.76774 0.56395 0.0
H2031 H 0.66711 0.80859 0.56978 0.0
H2032 H 0.65393 0.8167 0.56614 0.0
H2033 H 0.65387 0.80202 0.55113 0.0
H2034 H 0.61215 0.85719 0.6199 0.0
H2035 H 0.59822 0.8661 0.63977 0.0
H2036 H 0.58413 0.84993 0.62512 0.0
H2037 H 0.58917 0.87088 0.62215 0.0
H2038 H 0.63074 0.86527 0.59287 0.0
H2039 H 0.58032 0.83513 0.58064 0.0
H2040 H 0.64363 0.84704 0.56029 0.0
H2041 H 0.64375 0.84035 0.58131 0.0
H2042 H 0.65005 0.86156 0.5783 0.0
H2043 H 0.56946 0.80932 0.56591 0.0
H2044 H 0.58217 0.80055 0.56324 0.0
H2045 H 0.58067 0.8127 0.54706 0.0
H2046 H 0.5991 0.86591 0.46595 0.0
H2047 H 0.61851 0.85728 0.45997 0.0
H2048 H 0.57122 0.81488 0.45552 0.0
H2049 H 0.63489 0.84649 0.49089 0.0
H2050 H 0.64088 0.85587 0.47078 0.0
H2051 H 0.63854 0.83589 0.4739 0.0
H2052 H 0.5646 0.79012 0.46824 0.0
H2053 H 0.57709 0.79209 0.48659 0.0
H2054 H 0.58062 0.78564 0.46633 0.0
H2055 H 0.6077 0.72598 0.44244 0.0
H2056 H 0.60924 0.70333 0.4566 0.0
H2057 H 0.62928 0.71792 0.46505 0.0
H2058 H 0.61227 0.71932 0.47184 0.0
H2059 H 0.6509 0.77404 0.45978 0.0
H2060 H 0.60136 0.73692 0.46398 0.0
H2061 H 0.65172 0.80208 0.4908 0.0
H2062 H 0.64755 0.80787 0.47075 0.0
H2063 H 0.66175 0.80075 0.47224 0.0
H2064 H 0.5828 0.74191 0.4774 0.0
H2065 H 0.587 0.76276 0.47592 0.0
H2066 H 0.59172 0.75645 0.49532 0.0
H2067 H 0.61878 0.80988 0.58128 0.0
H2068 H 0.60779 0.83556 0.53535 0.0
H2069 H 0.60554 0.83171 0.5051 0.0
H2070 H 0.61291 0.79703 0.46469 0.0
H2071 H 0.62458 0.7718 0.51066 0.0
H2072 H 0.62564 0.77484 0.54106 0.0
H2073 H 0.58062 0.87586 0.4582 0.0
H2074 H 0.56987 0.85502 0.46483 0.0
H2075 H 0.57017 0.85899 0.44257 0.0
C2076 C 0.11406 0.7073 0.60214 0.0
C2077 C 0.11539 0.72237 0.61166 0.0
C2078 C 0.12958 0.74607 0.59362 0.0
C2079 C 0.12775 0.75771 0.5849 0.0
C2080 C 0.14077 0.77069 0.57728 0.0
C2081 C 0.15596 0.77178 0.57808 0.0
C2082 C 0.15799 0.76015 0.58706 0.0
C2083 C 0.14479 0.74743 0.59484 0.0
C2084 C 0.1382 0.78304 0.5681 0.0
C2085 C 0.17404 0.76098 0.5881 0.0
C2086 C 0.25788 0.89114 0.62508 0.0
C2087 C 0.24764 0.87342 0.61964 0.0
C2088 C 0.22523 0.85611 0.5993 0.0
C2089 C 0.22759 0.84256 0.59909 0.0
C2090 C 0.21733 0.82818 0.58919 0.0
C2091 C 0.20432 0.82723 0.57951 0.0
C2092 C 0.2018 0.84077 0.5799 0.0
C2093 C 0.2124 0.85509 0.58966 0.0
C2094 C 0.22038 0.81399 0.58906 0.0
C2095 C 0.18785 0.8401 0.57008 0.0
C2096 C 0.23118 0.84588 0.46994 0.0
C2097 C 0.23453 0.834 0.47595 0.0
C2098 C 0.22313 0.82082 0.48498 0.0
C2099 C 0.20815 0.81953 0.48805 0.0
C2100 C 0.20466 0.83132 0.4818 0.0
C2101 C 0.21624 0.84432 0.47277 0.0
C2102 C 0.22712 0.80833 0.49139 0.0
C2103 C 0.18876 0.83027 0.4848 0.0
C2104 C 0.10221 0.69652 0.46553 0.0
C2105 C 0.10911 0.7142 0.46018 0.0
C2106 C 0.13681 0.73561 0.46828 0.0
C2107 C 0.15166 0.73727 0.47288 0.0
C2108 C 0.16344 0.75121 0.48234 0.0
C2109 C 0.16033 0.76389 0.48707 0.0
C2110 C 0.14556 0.76259 0.48187 0.0
C2111 C 0.13396 0.74847 0.47248 0.0
C2112 C 0.17913 0.7523 0.48746 0.0
C2113 C 0.14204 0.7761 0.48629 0.0
C2114 C 0.16942 0.78455 0.56871 0.0
C2115 C 0.18071 0.79906 0.5776 0.0
C2116 C 0.19313 0.81195 0.56928 0.0
C2117 C 0.1943 0.81038 0.55153 0.0
C2118 C 0.20654 0.8231 0.54268 0.0
C2119 C 0.20723 0.82166 0.52514 0.0
C2120 C 0.19578 0.80738 0.51579 0.0
C2121 C 0.19613 0.80593 0.49792 0.0
C2122 C 0.18456 0.79161 0.489 0.0
C2123 C 0.17251 0.77853 0.49744 0.0
C2124 C 0.17199 0.7797 0.51531 0.0
C2125 C 0.16012 0.76673 0.52422 0.0
C2126 C 0.15941 0.76819 0.54173 0.0
C2127 C 0.17049 0.7827 0.55102 0.0
C2128 C 0.18285 0.79575 0.54237 0.0
C2129 C 0.18359 0.79424 0.52449 0.0
C2130 C 0.26794 0.87207 0.47572 0.0
C2131 C 0.25797 0.8644 0.45908 0.0
O2132 O 0.11626 0.73365 0.60028 0.0
O2133 O 0.1257 0.72156 0.45965 0.0
O2134 O 0.2419 0.85908 0.46149 0.0
O2135 O 0.23499 0.87036 0.60849 0.0
H2136 H 0.12634 0.72806 0.62028 0.0
H2137 H 0.12491 0.71089 0.59473 0.0
H2138 H 0.10336 0.70147 0.59322 0.0
H2139 H 0.11305 0.69814 0.6113 0.0
H2140 H 0.11598 0.75657 0.58407 0.0
H2141 H 0.1464 0.73848 0.60148 0.0
H2142 H 0.14779 0.79574 0.57203 0.0
H2143 H 0.12631 0.78173 0.57055 0.0
H2144 H 0.13891 0.78131 0.55423 0.0
H2145 H 0.17356 0.75072 0.59511 0.0
H2146 H 0.18315 0.77279 0.59458 0.0
H2147 H 0.17812 0.76064 0.57511 0.0
H2148 H 0.24385 0.86465 0.63006 0.0
H2149 H 0.25628 0.89165 0.63914 0.0
H2150 H 0.2508 0.89728 0.62175 0.0
H2151 H 0.28012 0.89784 0.6149 0.0
H2152 H 0.23743 0.84314 0.60655 0.0
H2153 H 0.21065 0.86557 0.58991 0.0
H2154 H 0.21027 0.80336 0.59494 0.0
H2155 H 0.23175 0.81713 0.5961 0.0
H2156 H 0.22092 0.81008 0.57578 0.0
H2157 H 0.18672 0.85107 0.57294 0.0
H2158 H 0.17644 0.82892 0.57307 0.0
H2159 H 0.18948 0.83934 0.55627 0.0
H2160 H 0.25928 0.85387 0.45455 0.0
H2161 H 0.24598 0.83491 0.47373 0.0
H2162 H 0.21374 0.85351 0.46802 0.0
H2163 H 0.22683 0.80835 0.50546 0.0
H2164 H 0.23916 0.81082 0.48762 0.0
H2165 H 0.21791 0.79583 0.4864 0.0
H2166 H 0.18798 0.84054 0.47924 0.0
H2167 H 0.18697 0.83045 0.49865 0.0
H2168 H 0.1788 0.81846 0.47916 0.0
H2169 H 0.10569 0.72045 0.47003 0.0
H2170 H 0.0889 0.69032 0.46601 0.0
H2171 H 0.10717 0.69653 0.47838 0.0
H2172 H 0.1054 0.68942 0.45653 0.0
H2173 H 0.15386 0.72741 0.46933 0.0
H2174 H 0.12278 0.74763 0.46829 0.0
H2175 H 0.18102 0.75397 0.50149 0.0
H2176 H 0.18924 0.76321 0.48193 0.0
H2177 H 0.17953 0.74118 0.48321 0.0
H2178 H 0.13032 0.77359 0.48063 0.0
H2179 H 0.15172 0.78796 0.48177 0.0
H2180 H 0.14187 0.77754 0.50029 0.0
H2181 H 0.17967 0.80043 0.59114 0.0
H2182 H 0.21565 0.83439 0.5492 0.0
H2183 H 0.21681 0.83193 0.51899 0.0
H2184 H 0.18483 0.7907 0.47528 0.0
H2185 H 0.15119 0.75533 0.51775 0.0
H2186 H 0.14996 0.75781 0.54788 0.0
H2187 H 0.28086 0.87655 0.47373 0.0
H2188 H 0.26395 0.86288 0.48564 0.0
H2189 H 0.26664 0.88255 0.48043 0.0
C2190 C 0.13704 0.3917 0.62879 0.0
C2191 C 0.12399 0.38281 0.61458 0.0
C2192 C 0.13924 0.37602 0.5944 0.0
C2193 C 0.14946 0.39209 0.58929 0.0
C2194 C 0.16255 0.39566 0.57919 0.0
C2195 C 0.16533 0.38287 0.57387 0.0
C2196 C 0.15473 0.3666 0.57846 0.0
C2197 C 0.14181 0.3634 0.58866 0.0
C2198 C 0.17357 0.41313 0.57437 0.0
C2199 C 0.1572 0.35265 0.57278 0.0
C2200 C 0.27146 0.41501 0.63455 0.0
C2201 C 0.26002 0.40049 0.62257 0.0
C2202 C 0.24881 0.40273 0.59578 0.0
C2203 C 0.23609 0.38667 0.59235 0.0
C2204 C 0.22283 0.38362 0.58184 0.0
C2205 C 0.22213 0.397 0.57507 0.0
C2206 C 0.23498 0.41327 0.57868 0.0
C2207 C 0.24838 0.41587 0.58864 0.0
C2208 C 0.20954 0.3661 0.57813 0.0
C2209 C 0.23452 0.42795 0.57227 0.0
C2210 C 0.25328 0.4147 0.46989 0.0
C2211 C 0.24259 0.39789 0.47187 0.0
C2212 C 0.22751 0.39248 0.4787 0.0
C2213 C 0.22309 0.40413 0.48372 0.0
C2214 C 0.23344 0.42096 0.48081 0.0
C2215 C 0.24838 0.42601 0.47374 0.0
C2216 C 0.21654 0.37438 0.48112 0.0
C2217 C 0.22896 0.43366 0.48578 0.0
C2218 C 0.10306 0.3734 0.46711 0.0
C2219 C 0.1131 0.37706 0.45133 0.0
C2220 C 0.13658 0.37557 0.4621 0.0
C2221 C 0.14263 0.36496 0.46353 0.0
C2222 C 0.15662 0.36947 0.47343 0.0
C2223 C 0.165 0.3852 0.48181 0.0
C2224 C 0.1592 0.39622 0.4801 0.0
C2225 C 0.14491 0.39122 0.47045 0.0
C2226 C 0.16241 0.35736 0.47495 0.0
C2227 C 0.16809 0.41328 0.48847 0.0
C2228 C 0.17964 0.38665 0.56399 0.0
C2229 C 0.19371 0.39 0.57297 0.0
C2230 C 0.20777 0.39396 0.56461 0.0
C2231 C 0.20794 0.39493 0.54674 0.0
C2232 C 0.22189 0.39906 0.53789 0.0
C2233 C 0.22209 0.40056 0.52041 0.0
C2234 C 0.2082 0.39746 0.51099 0.0
C2235 C 0.20827 0.39888 0.49319 0.0
C2236 C 0.19413 0.39515 0.48414 0.0
C2237 C 0.17978 0.39002 0.49239 0.0
C2238 C 0.17955 0.38894 0.51026 0.0
C2239 C 0.16539 0.38406 0.51903 0.0
C2240 C 0.16539 0.38338 0.53663 0.0
C2241 C 0.17947 0.38719 0.5461 0.0
C2242 C 0.19375 0.39162 0.53749 0.0
C2243 C 0.19384 0.3927 0.51957 0.0
C2244 C 0.29464 0.42745 0.47507 0.0
C2245 C 0.27798 0.4137 0.46858 0.0
O2246 O 0.12696 0.37212 0.60496 0.0
O2247 O 0.12278 0.37012 0.4525 0.0
O2248 O 0.26845 0.42039 0.46468 0.0
O2249 O 0.26149 0.40583 0.60618 0.0
H2250 H 0.12372 0.39198 0.60625 0.0
H2251 H 0.13433 0.39984 0.63677 0.0
H2252 H 0.13774 0.38267 0.63696 0.0
H2253 H 0.14901 0.39947 0.62349 0.0
H2254 H 0.14744 0.40195 0.59327 0.0
H2255 H 0.13377 0.35102 0.5925 0.0
H2256 H 0.18605 0.41735 0.57909 0.0
H2257 H 0.16985 0.42172 0.57961 0.0
H2258 H 0.17369 0.41369 0.56034 0.0
H2259 H 0.14736 0.34054 0.57658 0.0
H2260 H 0.16876 0.3547 0.57841 0.0
H2261 H 0.15797 0.3523 0.55876 0.0
H2262 H 0.2476 0.3962 0.62681 0.0
H2263 H 0.27033 0.41112 0.64784 0.0
H2264 H 0.26842 0.42489 0.63393 0.0
H2265 H 0.28412 0.42009 0.63091 0.0
H2266 H 0.23662 0.37654 0.5978 0.0
H2267 H 0.25832 0.42823 0.59143 0.0
H2268 H 0.20601 0.36393 0.56439 0.0
H2269 H 0.19882 0.36381 0.5852 0.0
H2270 H 0.21309 0.3571 0.58198 0.0
H2271 H 0.24382 0.43963 0.57883 0.0
H2272 H 0.22252 0.42662 0.57405 0.0
H2273 H 0.2367 0.42883 0.55849 0.0
H2274 H 0.27304 0.40538 0.47934 0.0
H2275 H 0.24606 0.389 0.46827 0.0
H2276 H 0.25661 0.43892 0.47189 0.0
H2277 H 0.21543 0.37216 0.4949 0.0
H2278 H 0.22106 0.36676 0.47513 0.0
H2279 H 0.20432 0.37031 0.47565 0.0
H2280 H 0.23813 0.4462 0.48224 0.0
H2281 H 0.22757 0.43381 0.49971 0.0
H2282 H 0.21722 0.43038 0.47954 0.0
H2283 H 0.12065 0.39057 0.45022 0.0
H2284 H 0.09538 0.37906 0.46646 0.0
H2285 H 0.11105 0.37859 0.47872 0.0
H2286 H 0.09526 0.35992 0.46822 0.0
H2287 H 0.13617 0.35296 0.45699 0.0
H2288 H 0.14047 0.39965 0.46949 0.0
H2289 H 0.16458 0.35596 0.48852 0.0
H2290 H 0.174 0.36209 0.46861 0.0
H2291 H 0.15368 0.34507 0.46905 0.0
H2292 H 0.16309 0.42101 0.48432 0.0
H2293 H 0.18102 0.41948 0.48554 0.0
H2294 H 0.16732 0.41243 0.50245 0.0
H2295 H 0.19371 0.38952 0.5867 0.0
H2296 H 0.23289 0.40138 0.5444 0.0
H2297 H 0.23329 0.40409 0.51437 0.0
H2298 H 0.19426 0.39605 0.47045 0.0
H2299 H 0.15417 0.38088 0.5124 0.0
H2300 H 0.15419 0.37974 0.54271 0.0
H2301 H 0.30019 0.43724 0.4658 0.0
H2302 H 0.30269 0.42243 0.47756 0.0
H2303 H 0.29354 0.43313 0.48714 0.0
H2304 H 0.98539 0.37352 0.015 0.0
H2305 H 0.00831 0.3516 0.04288 0.0
H2306 H 0.98533 0.38825 0.04103 0.0
H2307 H 0.00794 0.36614 0.06895 0.0
H2308 H 0.98925 0.38407 0.11425 0.0
H2309 H 0.98656 0.3675 0.08851 0.0
H2310 H 0.00957 0.41149 0.06023 0.0
H2311 H 0.01274 0.4281 0.08591 0.0
C2312 C 0.99014 0.37161 0.02673 0.0
C2313 C 0.99688 0.3614 0.02688 0.0
C2314 C 0.9902 0.38013 0.04157 0.0
C2315 C 0.99667 0.37835 0.05694 0.0
C2316 C 0.00281 0.36765 0.05727 0.0
C2317 C 0.00306 0.35938 0.04235 0.0
C2318 C 0.99363 0.39016 0.1025 0.0
C2319 C 0.00098 0.40736 0.10213 0.0
C2320 C 0.99214 0.3807 0.08782 0.0
C2321 C 0.99775 0.38823 0.0724 0.0
C2322 C 0.00494 0.40538 0.07193 0.0
C2323 C 0.00674 0.41487 0.08667 0.0
H2324 H 0.63841 0.62262 0.07521 0.0
H2325 H 0.64652 0.59382 0.03731 0.0
H2326 H 0.62171 0.59805 0.09026 0.0
H2327 H 0.6294 0.56893 0.05237 0.0
H2328 H 0.58206 0.55052 0.10727 0.0
H2329 H 0.59631 0.57303 0.08852 0.0
H2330 H 0.63015 0.5567 0.07896 0.0
H2331 H 0.61542 0.53373 0.09728 0.0
C2332 C 0.6364 0.61098 0.06991 0.0
C2333 C 0.64372 0.61017 0.055 0.0
C2334 C 0.62675 0.59685 0.07854 0.0
C2335 C 0.62412 0.5815 0.07247 0.0
C2336 C 0.6313 0.58061 0.05744 0.0
C2337 C 0.64103 0.59483 0.04878 0.0
C2338 C 0.59232 0.55151 0.10085 0.0
C2339 C 0.59745 0.54016 0.10346 0.0
C2340 C 0.60059 0.56451 0.09025 0.0
C2341 C 0.6144 0.56669 0.08227 0.0
C2342 C 0.61941 0.55521 0.08468 0.0
C2343 C 0.61104 0.54211 0.09521 0.0
H2344 H 0.35061 0.98023 0.03273 0.0
H2345 H 0.39322 0.02674 0.02408 0.0
H2346 H 0.36276 0.97881 0.05953 0.0
H2347 H 0.40537 0.02519 0.0509 0.0
H2348 H 0.41457 0.02325 0.10837 0.0
H2349 H 0.40193 0.02565 0.08224 0.0
H2350 H 0.38563 0.9749 0.06801 0.0
H2351 H 0.39827 0.97253 0.09412 0.0
C2352 C 0.36252 0.99021 0.03657 0.0
C2353 C 0.37095 0.00358 0.02618 0.0
C2354 C 0.36952 0.98932 0.05188 0.0
C2355 C 0.38506 0.00182 0.05725 0.0
C2356 C 0.39333 0.01541 0.04713 0.0
C2357 C 0.38638 0.01626 0.03174 0.0
C2358 C 0.40831 0.01264 0.09962 0.0
C2359 C 0.40739 0.9977 0.10327 0.0
C2360 C 0.40113 0.01402 0.08467 0.0
C2361 C 0.39274 0.00045 0.07312 0.0
C2362 C 0.39182 0.98551 0.07678 0.0
C2363 C 0.39911 0.98417 0.09165 0.0
H2364 H 0.367 0.00072 0.93798 0.0
H2365 H 0.37129 0.96777 0.97164 0.0
H2366 H 0.39153 0.00605 0.92458 0.0
H2367 H 0.39632 0.97337 0.95824 0.0
H2368 H 0.45114 0.01445 0.9459 0.0
H2369 H 0.42437 0.00074 0.95763 0.0
H2370 H 0.4028 0.9914 0.90699 0.0
H2371 H 0.4295 0.00508 0.89529 0.0
C2372 C 0.37313 0.99446 0.94236 0.0
C2373 C 0.36732 0.98387 0.95584 0.0
C2374 C 0.38711 0.99742 0.93461 0.0
C2375 C 0.39576 0.99006 0.94033 0.0
C2376 C 0.38981 0.97915 0.9536 0.0
C2377 C 0.37552 0.9759 0.96119 0.0
C2378 C 0.44065 0.00903 0.93728 0.0
C2379 C 0.44236 0.01075 0.91968 0.0
C2380 C 0.42536 0.00114 0.94398 0.0
C2381 C 0.41156 0.99505 0.9332 0.0
C2382 C 0.41327 0.99603 0.91557 0.0
C2383 C 0.42852 0.00383 0.90888 0.0
H2384 H 0.01124 0.36148 0.94018 0.0
H2385 H 0.03521 0.39864 0.98063 0.0
H2386 H 0.00678 0.38045 0.92402 0.0
H2387 H 0.03041 0.4178 0.96439 0.0
H2388 H 0.99146 0.4296 0.93775 0.0
H2389 H 0.00338 0.4168 0.95474 0.0
H2390 H 0.02273 0.40765 0.90959 0.0
H2391 H 0.01089 0.42043 0.89267 0.0
C2392 C 0.01573 0.37383 0.94551 0.0
C2393 C 0.02357 0.37863 0.96161 0.0
C2394 C 0.01325 0.38472 0.93622 0.0
C2395 C 0.01831 0.40061 0.94292 0.0
C2396 C 0.02643 0.4056 0.95895 0.0
C2397 C 0.02924 0.39473 0.96816 0.0
C2398 C 0.99868 0.42529 0.93158 0.0
C2399 C 0.00037 0.42613 0.91391 0.0
C2400 C 0.00552 0.41802 0.94129 0.0
C2401 C 0.01395 0.41124 0.93345 0.0
C2402 C 0.01626 0.41276 0.91594 0.0
C2403 C 0.00952 0.4201 0.90627 0.0
H2404 H 0.64223 0.64197 0.98312 0.0
H2405 H 0.60395 0.63594 0.01517 0.0
H2406 H 0.62426 0.63516 0.95811 0.0
H2407 H 0.58602 0.62885 0.99028 0.0
H2408 H 0.56224 0.63186 0.94134 0.0
H2409 H 0.58162 0.64086 0.96539 0.0
H2410 H 0.60046 0.61128 0.94483 0.0
H2411 H 0.58127 0.60259 0.9206 0.0
C2412 C 0.63002 0.63923 0.98486 0.0
C2413 C 0.62456 0.63949 0.00119 0.0
C2414 C 0.61969 0.63523 0.97052 0.0
C2415 C 0.6037 0.63145 0.9722 0.0
C2416 C 0.59832 0.63192 0.98851 0.0
C2417 C 0.60861 0.63589 0.00281 0.0
C2418 C 0.57051 0.62727 0.94201 0.0
C2419 C 0.57002 0.61624 0.92931 0.0
C2420 C 0.58158 0.63238 0.95579 0.0
C2421 C 0.59249 0.62667 0.95711 0.0
C2422 C 0.5923 0.61599 0.94415 0.0
C2423 C 0.58122 0.61089 0.93036 0.0
H2424 H 0.04029 0.6536 0.00253 0.0
H2425 H 0.99361 0.64187 0.98191 0.0
H2426 H 0.04473 0.64173 0.97681 0.0
H2427 H 0.99768 0.62933 0.9566 0.0
H2428 H 0.01436 0.61935 0.9068 0.0
H2429 H 0.01148 0.63366 0.93151 0.0
H2430 H 0.03661 0.61627 0.96292 0.0
H2431 H 0.04025 0.60283 0.93804 0.0
C2432 C 0.03097 0.64849 0.9925 0.0
C2433 C 0.0166 0.64869 0.9943 0.0
C2434 C 0.03345 0.64153 0.97779 0.0
C2435 C 0.02151 0.63439 0.9646 0.0
C2436 C 0.00727 0.6349 0.96631 0.0
C2437 C 0.00489 0.64206 0.98091 0.0
C2438 C 0.01918 0.61856 0.91903 0.0
C2439 C 0.02719 0.60964 0.9205 0.0
C2440 C 0.01749 0.6267 0.93324 0.0
C2441 C 0.0237 0.62608 0.94933 0.0
C2442 C 0.03183 0.61724 0.95075 0.0
C2443 C 0.03372 0.60929 0.93649 0.0
H2444 H 0.3558 0.40557 0.9853 0.0
H2445 H 0.37594 0.38274 0.95385 0.0
H2446 H 0.36848 0.42987 0.96858 0.0
H2447 H 0.38916 0.40729 0.93752 0.0
H2448 H 0.3988 0.47546 0.94058 0.0
H2449 H 0.39225 0.4534 0.95992 0.0
H2450 H 0.38024 0.41912 0.9169 0.0
H2451 H 0.38736 0.44129 0.89774 0.0
C2452 C 0.36325 0.40589 0.97506 0.0
C2453 C 0.36472 0.39214 0.97082 0.0
C2454 C 0.37062 0.41988 0.96551 0.0
C2455 C 0.37974 0.42051 0.95155 0.0
C2456 C 0.38196 0.40711 0.94795 0.0
C2457 C 0.37447 0.39306 0.95742 0.0
C2458 C 0.39515 0.46328 0.93532 0.0
C2459 C 0.39385 0.46013 0.91766 0.0
C2460 C 0.39123 0.4506 0.94638 0.0
C2461 C 0.3857 0.43444 0.94001 0.0
C2462 C 0.38476 0.43143 0.92232 0.0
C2463 C 0.38876 0.44412 0.9113 0.0
H2464 H 0.60911 0.97186 0.00536 0.0
H2465 H 0.65553 0.0048 0.98555 0.0
H2466 H 0.59627 0.96975 0.97777 0.0
H2467 H 0.64271 0.00232 0.95782 0.0
H2468 H 0.61303 0.01025 0.91726 0.0
H2469 H 0.62604 0.01122 0.94448 0.0
H2470 H 0.5927 0.95935 0.94899 0.0
H2471 H 0.57939 0.95859 0.922 0.0
C2472 C 0.61662 0.97846 0.99506 0.0
C2473 C 0.63336 0.98859 0.99774 0.0
C2474 C 0.60924 0.97721 0.97919 0.0
C2475 C 0.61843 0.98597 0.96557 0.0
C2476 C 0.63523 0.99567 0.96811 0.0
C2477 C 0.6426 0.997 0.984 0.0
C2478 C 0.60845 0.99909 0.92414 0.0
C2479 C 0.59513 0.98437 0.91758 0.0
C2480 C 0.616 0.99959 0.93966 0.0
C2481 C 0.61047 0.98534 0.94894 0.0
C2482 C 0.59716 0.9706 0.94232 0.0
C2483 C 0.58957 0.97013 0.92683 0.0
H2484 H 0.62965 0.00016 0.07376 0.0
H2485 H 0.65099 0.04835 0.05327 0.0
H2486 H 0.61116 0.00561 0.08926 0.0
H2487 H 0.63285 0.05403 0.06925 0.0
H2488 H 0.5995 0.03134 0.13273 0.0
H2489 H 0.61374 0.02275 0.1137 0.0
H2490 H 0.6055 0.04754 0.0729 0.0
H2491 H 0.59162 0.05652 0.09221 0.0
C2492 C 0.63031 0.01186 0.07242 0.0
C2493 C 0.64185 0.02385 0.06232 0.0
C2494 C 0.61977 0.01503 0.08143 0.0
C2495 C 0.62061 0.03031 0.08064 0.0
C2496 C 0.63175 0.04206 0.07002 0.0
C2497 C 0.64223 0.03885 0.06093 0.0
C2498 C 0.60051 0.0347 0.11962 0.0
C2499 C 0.59428 0.0444 0.11389 0.0
C2500 C 0.6086 0.02973 0.10868 0.0
C2501 C 0.61073 0.03441 0.09174 0.0
C2502 C 0.60419 0.04384 0.0859 0.0
C2503 C 0.59612 0.04885 0.09689 0.0
H2504 H 0.9617 0.60631 0.03891 0.0
H2505 H 0.00025 0.63998 0.07397 0.0
H2506 H 0.95847 0.58322 0.05513 0.0
H2507 H 0.99665 0.61725 0.09047 0.0
H2508 H 0.99552 0.57422 0.1125 0.0
H2509 H 1e-05 0.59443 0.09165 0.0
H2510 H 0.94871 0.57077 0.08109 0.0
H2511 H 0.94438 0.54996 0.10114 0.0
C2512 C 0.96948 0.60876 0.05006 0.0
C2513 C 0.98124 0.62495 0.05514 0.0
C2514 C 0.96758 0.59556 0.05942 0.0
C2515 C 0.97731 0.5983 0.07415 0.0
C2516 C 0.98917 0.61453 0.07903 0.0
C2517 C 0.99117 0.62765 0.0696 0.0
C2518 C 0.98522 0.57329 0.10562 0.0
C2519 C 0.96956 0.5609 0.109 0.0
C2520 C 0.98777 0.58493 0.09373 0.0
C2521 C 0.9747 0.58456 0.08498 0.0
C2522 C 0.95908 0.57152 0.08758 0.0
C2523 C 0.95656 0.55969 0.09929 0.0
H2524 H 0.36363 0.35226 0.04148 0.0
H2525 H 0.40594 0.36864 0.01203 0.0
H2526 H 0.37983 0.35719 0.0674 0.0
H2527 H 0.42225 0.37405 0.03805 0.0
H2528 H 0.44268 0.36441 0.08692 0.0
H2529 H 0.42735 0.36042 0.06038 0.0
H2530 H 0.39986 0.3789 0.08557 0.0
H2531 H 0.41484 0.3823 0.11216 0.0
C2532 C 0.37641 0.35701 0.04052 0.0
C2533 C 0.38346 0.36004 0.02463 0.0
C2534 C 0.38574 0.35996 0.05543 0.0
C2535 C 0.4024 0.36613 0.05487 0.0
C2536 C 0.40944 0.36912 0.03897 0.0
C2537 C 0.40008 0.36607 0.02403 0.0
C2538 C 0.43344 0.36773 0.08668 0.0
C2539 C 0.42995 0.37368 0.10158 0.0
C2540 C 0.42469 0.36552 0.07148 0.0
C2541 C 0.41228 0.36925 0.07082 0.0
C2542 C 0.40911 0.37561 0.08566 0.0
C2543 C 0.41779 0.37771 0.10087 0.0
H2544 H 0.67006 0.69541 0.37824 0.0
H2545 H 0.64002 0.70538 0.34506 0.0
H2546 H 0.65985 0.70302 0.40284 0.0
H2547 H 0.6301 0.71322 0.36957 0.0
H2548 H 0.60305 0.70923 0.4176 0.0
H2549 H 0.61319 0.70101 0.39341 0.0
H2550 H 0.66107 0.72716 0.41684 0.0
H2551 H 0.65079 0.73513 0.44121 0.0
C2552 C 0.6613 0.69922 0.37616 0.0
C2553 C 0.65586 0.69973 0.35962 0.0
C2554 C 0.65553 0.70369 0.39027 0.0
C2555 C 0.64415 0.70873 0.38819 0.0
C2556 C 0.63869 0.70919 0.37166 0.0
C2557 C 0.64446 0.70476 0.35758 0.0
C2558 C 0.61576 0.71332 0.41751 0.0
C2559 C 0.62618 0.72311 0.43113 0.0
C2560 C 0.62158 0.70865 0.40364 0.0
C2561 C 0.63797 0.71353 0.40312 0.0
C2562 C 0.64837 0.72311 0.41688 0.0
C2563 C 0.64253 0.72781 0.43076 0.0
H2564 H 0.30555 0.92827 0.37492 0.0
H2565 H 0.29804 0.95768 0.4126 0.0
H2566 H 0.29032 0.90401 0.39146 0.0
H2567 H 0.28342 0.93377 0.42931 0.0
H2568 H 0.24846 0.88674 0.45158 0.0
H2569 H 0.25965 0.90825 0.4313 0.0
H2570 H 0.29381 0.89344 0.41742 0.0
H2571 H 0.28197 0.87131 0.43717 0.0
C2572 C 0.30056 0.92953 0.38666 0.0
C2573 C 0.30297 0.94487 0.39244 0.0
C2574 C 0.29194 0.91567 0.3962 0.0
C2575 C 0.28567 0.91692 0.41177 0.0
C2576 C 0.28779 0.93223 0.41726 0.0
C2577 C 0.29627 0.94601 0.40769 0.0
C2578 C 0.25811 0.88783 0.44391 0.0
C2579 C 0.26412 0.8771 0.44569 0.0
C2580 C 0.26466 0.90029 0.43241 0.0
C2581 C 0.27767 0.90263 0.42272 0.0
C2582 C 0.28361 0.89182 0.42442 0.0
C2583 C 0.27691 0.8792 0.43579 0.0
H2584 H 0.07455 0.34393 0.34829 0.0
H2585 H 0.03488 0.3429 0.37388 0.0
H2586 H 0.09038 0.35217 0.37513 0.0
H2587 H 0.05095 0.35152 0.40068 0.0
H2588 H 0.09636 0.38967 0.43589 0.0
H2589 H 0.07868 0.37922 0.41024 0.0
H2590 H 0.08744 0.33877 0.40538 0.0
H2591 H 0.10462 0.34876 0.43123 0.0
C2592 C 0.06921 0.34543 0.35965 0.0
C2593 C 0.05349 0.34279 0.359 0.0
C2594 C 0.07824 0.35007 0.37499 0.0
C2595 C 0.07186 0.35249 0.38989 0.0
C2596 C 0.05612 0.34977 0.38931 0.0
C2597 C 0.04694 0.34477 0.37403 0.0
C2598 C 0.09444 0.37851 0.42937 0.0
C2599 C 0.10214 0.37026 0.43546 0.0
C2600 C 0.08429 0.37251 0.41478 0.0
C2601 C 0.08182 0.35827 0.40587 0.0
C2602 C 0.08931 0.34987 0.41199 0.0
C2603 C 0.09919 0.35566 0.42677 0.0
H2604 H 0.02285 0.27914 0.31432 0.0
H2605 H 0.03791 0.31789 0.27902 0.0
H2606 H 0.03865 0.26913 0.29963 0.0
H2607 H 0.0532 0.30779 0.26427 0.0
H2608 H 0.05472 0.24699 0.25537 0.0
H2609 H 0.03961 0.25604 0.27275 0.0
H2610 H 0.07707 0.30657 0.26824 0.0
H2611 H 0.09165 0.2976 0.25037 0.0
C2612 C 0.02948 0.28547 0.30343 0.0
C2613 C 0.02931 0.29942 0.29795 0.0
C2614 C 0.03847 0.27972 0.29499 0.0
C2615 C 0.04737 0.2878 0.28092 0.0
C2616 C 0.04688 0.30154 0.27534 0.0
C2617 C 0.03802 0.3073 0.28377 0.0
C2618 C 0.05978 0.26 0.25836 0.0
C2619 C 0.07448 0.27155 0.25174 0.0
C2620 C 0.05117 0.26518 0.26834 0.0
C2621 C 0.05709 0.28203 0.27181 0.0
C2622 C 0.07203 0.29351 0.26559 0.0
C2623 C 0.08051 0.28836 0.25551 0.0
H2624 H 0.71485 0.74222 0.32954 0.0
H2625 H 0.69376 0.71425 0.28229 0.0
H2626 H 0.72455 0.76784 0.31464 0.0
H2627 H 0.704 0.7398 0.2674 0.0
H2628 H 0.74639 0.7906 0.23758 0.0
H2629 H 0.73331 0.76156 0.25724 0.0
H2630 H 0.71509 0.78741 0.30116 0.0
H2631 H 0.72782 0.8173 0.28271 0.0
C2632 C 0.71226 0.74157 0.31601 0.0
C2633 C 0.70357 0.72629 0.30704 0.0
C2634 C 0.71772 0.75618 0.30754 0.0
C2635 C 0.715 0.75568 0.28992 0.0
C2636 C 0.70628 0.74044 0.28099 0.0
C2637 C 0.70038 0.72587 0.28952 0.0
C2638 C 0.74131 0.79033 0.24974 0.0
C2639 C 0.73589 0.80591 0.25658 0.0
C2640 C 0.73238 0.77201 0.2616 0.0
C2641 C 0.7219 0.77093 0.28068 0.0
C2642 C 0.72089 0.78833 0.28933 0.0
C2643 C 0.7294 0.80724 0.27838 0.0
H2644 H 0.303 0.97631 0.31883 0.0
H2645 H 0.26415 0.97132 0.3493 0.0
H2646 H 0.28568 0.96942 0.29327 0.0
H2647 H 0.24685 0.96415 0.32384 0.0
H2648 H 0.22502 0.96765 0.2735 0.0
H2649 H 0.24334 0.97604 0.29844 0.0
H2650 H 0.26206 0.94581 0.27947 0.0
H2651 H 0.24393 0.93772 0.25435 0.0
C2652 C 0.2908 0.97378 0.3201 0.0
C2653 C 0.285 0.97438 0.33617 0.0
C2654 C 0.28083 0.96971 0.30544 0.0
C2655 C 0.26486 0.9662 0.3065 0.0
C2656 C 0.25914 0.96699 0.32254 0.0
C2657 C 0.26907 0.97102 0.33717 0.0
C2658 C 0.23299 0.96274 0.27474 0.0
C2659 C 0.23279 0.95174 0.26218 0.0
C2660 C 0.24346 0.96751 0.28902 0.0
C2661 C 0.25409 0.9615 0.29102 0.0
C2662 C 0.25412 0.95076 0.27828 0.0
C2663 C 0.24363 0.94599 0.26398 0.0
H2664 H 0.67426 0.97329 0.30537 0.0
H2665 H 0.70049 0.95703 0.33658 0.0
H2666 H 0.68697 0.97008 0.28035 0.0
H2667 H 0.71275 0.95328 0.31152 0.0
H2668 H 0.74568 0.96703 0.26654 0.0
H2669 H 0.73224 0.96886 0.29166 0.0
H2670 H 0.68799 0.95044 0.26152 0.0
H2671 H 0.70171 0.94928 0.23632 0.0
C2672 C 0.68261 0.96887 0.30688 0.0
C2673 C 0.6864 0.9655 0.32301 0.0
C2674 C 0.68984 0.96692 0.2925 0.0
C2675 C 0.70093 0.96143 0.29388 0.0
C2676 C 0.7045 0.95781 0.30999 0.0
C2677 C 0.69739 0.95989 0.32438 0.0
C2678 C 0.73306 0.96331 0.26536 0.0
C2679 C 0.72473 0.95802 0.24951 0.0
C2680 C 0.72531 0.96425 0.27975 0.0
C2681 C 0.709 0.95983 0.27865 0.0
C2682 C 0.70061 0.95421 0.26281 0.0
C2683 C 0.70841 0.9534 0.24839 0.0
H2684 H 0.03697 0.74824 0.32281 0.0
H2685 H 0.04609 0.72129 0.28372 0.0
H2686 H 0.04802 0.77219 0.30535 0.0
H2687 H 0.05598 0.74447 0.26588 0.0
H2688 H 0.07804 0.78837 0.23625 0.0
H2689 H 0.07469 0.77011 0.25876 0.0
H2690 H 0.04108 0.78162 0.28204 0.0
H2691 H 0.0459 0.80123 0.2605 0.0
C2692 C 0.04146 0.7475 0.31054 0.0
C2693 C 0.04062 0.73289 0.30461 0.0
C2694 C 0.04764 0.76116 0.30042 0.0
C2695 C 0.05279 0.76036 0.284 0.0
C2696 C 0.0525 0.74587 0.27848 0.0
C2697 C 0.04667 0.73241 0.28872 0.0
C2698 C 0.07016 0.78722 0.24635 0.0
C2699 C 0.06181 0.79584 0.2462 0.0
C2700 C 0.06806 0.77656 0.25921 0.0
C2701 C 0.05719 0.77387 0.27207 0.0
C2702 C 0.04956 0.78326 0.27245 0.0
C2703 C 0.05208 0.79434 0.25986 0.0
H2704 H 0.26123 0.30049 0.33733 0.0
H2705 H 0.30466 0.33225 0.31163 0.0
H2706 H 0.24671 0.28985 0.30998 0.0
H2707 H 0.29028 0.32128 0.28437 0.0
H2708 H 0.25765 0.30976 0.23793 0.0
H2709 H 0.27031 0.32125 0.26595 0.0
H2710 H 0.24459 0.27275 0.2858 0.0
H2711 H 0.23156 0.26144 0.25785 0.0
C2712 C 0.26771 0.30516 0.32586 0.0
C2713 C 0.28413 0.31725 0.32672 0.0
C2714 C 0.25939 0.29899 0.31016 0.0
C2715 C 0.26728 0.30472 0.29493 0.0
C2716 C 0.28371 0.3168 0.29581 0.0
C2717 C 0.292 0.32302 0.31149 0.0
C2718 C 0.25456 0.30163 0.24836 0.0
C2719 C 0.24358 0.28473 0.24574 0.0
C2720 C 0.26192 0.30816 0.26439 0.0
C2721 C 0.25859 0.29792 0.27815 0.0
C2722 C 0.24731 0.28105 0.27558 0.0
C2723 C 0.23989 0.27454 0.25956 0.0
H2724 H 0.29841 0.34923 0.40961 0.0
H2725 H 0.29936 0.38176 0.37176 0.0
H2726 H 0.28811 0.36102 0.42977 0.0
H2727 H 0.28781 0.3929 0.39161 0.0
H2728 H 0.29168 0.42557 0.43799 0.0
H2729 H 0.296 0.41086 0.41484 0.0
H2730 H 0.26884 0.36541 0.44042 0.0
H2731 H 0.26606 0.38053 0.46428 0.0
C2732 C 0.29589 0.35856 0.40542 0.0
C2733 C 0.29987 0.36471 0.38918 0.0
C2734 C 0.28983 0.36531 0.41701 0.0
C2735 C 0.28723 0.37815 0.41252 0.0
C2736 C 0.29008 0.3834 0.39577 0.0
C2737 C 0.29653 0.3769 0.38428 0.0
C2738 C 0.28678 0.41246 0.43869 0.0
C2739 C 0.279 0.4043 0.4532 0.0
C2740 C 0.28899 0.4039 0.42524 0.0
C2741 C 0.283 0.38687 0.42573 0.0
C2742 C 0.27414 0.37857 0.43974 0.0
C2743 C 0.27238 0.38722 0.4534 0.0
H2744 H 0.65997 0.94488 0.39546 0.0
H2745 H 0.61552 0.91877 0.36523 0.0
H2746 H 0.65007 0.92229 0.41456 0.0
H2747 H 0.60535 0.89654 0.38466 0.0
H2748 H 0.59133 0.85511 0.41875 0.0
H2749 H 0.60607 0.87432 0.39695 0.0
H2750 H 0.63075 0.91318 0.43583 0.0
H2751 H 0.6165 0.89378 0.45752 0.0
C2752 C 0.64818 0.93422 0.39273 0.0
C2753 C 0.63848 0.93369 0.3789 0.0
C2754 C 0.64244 0.92132 0.40378 0.0
C2755 C 0.6268 0.90768 0.40134 0.0
C2756 C 0.61751 0.90674 0.3869 0.0
C2757 C 0.62331 0.91956 0.37577 0.0
C2758 C 0.60023 0.86766 0.42261 0.0
C2759 C 0.60297 0.87291 0.43985 0.0
C2760 C 0.60857 0.87872 0.41013 0.0
C2761 C 0.6196 0.89534 0.41458 0.0
C2762 C 0.62261 0.90043 0.43189 0.0
C2763 C 0.61439 0.88935 0.44435 0.0
H2764 H 0.03936 0.69544 0.37862 0.0
H2765 H 0.08374 0.71379 0.35244 0.0
H2766 H 0.05397 0.69969 0.4056 0.0
H2767 H 0.0984 0.71846 0.37949 0.0
H2768 H 0.11547 0.70576 0.4288 0.0
H2769 H 0.10192 0.70336 0.40146 0.0
H2770 H 0.07288 0.72053 0.42557 0.0
H2771 H 0.08616 0.72242 0.45294 0.0
C2772 C 0.05225 0.70051 0.37861 0.0
C2773 C 0.06034 0.70421 0.3633 0.0
C2774 C 0.06066 0.70306 0.39412 0.0
C2775 C 0.07739 0.70945 0.39476 0.0
C2776 C 0.0855 0.7133 0.37947 0.0
C2777 C 0.07708 0.71069 0.36394 0.0
C2778 C 0.10631 0.70919 0.42816 0.0
C2779 C 0.10194 0.71438 0.44296 0.0
C2780 C 0.09857 0.70788 0.41251 0.0
C2781 C 0.08625 0.71171 0.41128 0.0
C2782 C 0.08213 0.71723 0.42606 0.0
C2783 C 0.08984 0.71848 0.44172 0.0
H2784 H 0.33547 0.03012 0.71058 0.0
H2785 H 0.30102 0.03421 0.67819 0.0
H2786 H 0.32538 0.03771 0.73531 0.0
H2787 H 0.29126 0.04211 0.70277 0.0
H2788 H 0.26653 0.03987 0.75182 0.0
H2789 H 0.27633 0.03098 0.72785 0.0
H2790 H 0.32509 0.06129 0.74821 0.0
H2791 H 0.31516 0.06984 0.77242 0.0
C2792 C 0.32575 0.03262 0.70871 0.0
C2793 C 0.31906 0.03152 0.69235 0.0
C2794 C 0.32005 0.03708 0.72288 0.0
C2795 C 0.30751 0.04053 0.72104 0.0
C2796 C 0.30076 0.03931 0.70471 0.0
C2797 C 0.30645 0.03486 0.69057 0.0
C2798 C 0.27935 0.0447 0.75109 0.0
C2799 C 0.29011 0.05586 0.76377 0.0
C2800 C 0.28498 0.03964 0.73735 0.0
C2801 C 0.30152 0.04554 0.736 0.0
C2802 C 0.31227 0.05643 0.74889 0.0
C2803 C 0.30662 0.06148 0.76266 0.0
H2804 H 0.98353 0.25718 0.7022 0.0
H2805 H 0.9554 0.27136 0.73273 0.0
H2806 H 0.96853 0.22937 0.71263 0.0
H2807 H 0.94038 0.24377 0.74269 0.0
H2808 H 0.90073 0.1865 0.75469 0.0
H2809 H 0.91732 0.21597 0.73599 0.0
H2810 H 0.96777 0.21285 0.73739 0.0
H2811 H 0.95248 0.1833 0.75625 0.0
C2812 C 0.97406 0.25436 0.71095 0.0
C2813 C 0.97055 0.26649 0.71647 0.0
C2814 C 0.96554 0.23847 0.71694 0.0
C2815 C 0.9532 0.23443 0.72828 0.0
C2816 C 0.94958 0.24645 0.73362 0.0
C2817 C 0.95825 0.26233 0.72791 0.0
C2818 C 0.91287 0.19092 0.75076 0.0
C2819 C 0.92583 0.18349 0.76003 0.0
C2820 C 0.92352 0.20961 0.73971 0.0
C2821 C 0.94451 0.21805 0.73529 0.0
C2822 C 0.95529 0.20755 0.74044 0.0
C2823 C 0.94569 0.18877 0.75159 0.0
H2824 H 0.7029 0.66262 0.71202 0.0
H2825 H 0.73811 0.70338 0.68448 0.0
H2826 H 0.72084 0.67295 0.73731 0.0
H2827 H 0.75571 0.71397 0.70979 0.0
H2828 H 0.79085 0.72023 0.75203 0.0
H2829 H 0.7726 0.70845 0.72714 0.0
H2830 H 0.7321 0.69441 0.75889 0.0
H2831 H 0.75015 0.70536 0.78375 0.0
C2832 C 0.7144 0.67385 0.7114 0.0
C2833 C 0.71909 0.68212 0.69619 0.0
C2834 C 0.72466 0.67982 0.72592 0.0
C2835 C 0.73979 0.69427 0.7256 0.0
C2836 C 0.74432 0.70263 0.71044 0.0
C2837 C 0.73415 0.6966 0.69592 0.0
C2838 C 0.77804 0.71464 0.75366 0.0
C2839 C 0.77215 0.7142 0.76989 0.0
C2840 C 0.76757 0.70796 0.7394 0.0
C2841 C 0.75086 0.70068 0.74095 0.0
C2842 C 0.74488 0.69984 0.75721 0.0
C2843 C 0.75536 0.70636 0.77153 0.0
H2844 H 0.69616 0.61608 0.65188 0.0
H2845 H 0.70491 0.65486 0.61833 0.0
H2846 H 0.71263 0.60884 0.63456 0.0
H2847 H 0.72088 0.64742 0.60091 0.0
H2848 H 0.72477 0.58833 0.58636 0.0
H2849 H 0.71107 0.59638 0.60686 0.0
H2850 H 0.74554 0.64753 0.59992 0.0
H2851 H 0.75872 0.63946 0.57895 0.0
C2852 C 0.70165 0.62309 0.64087 0.0
C2853 C 0.69929 0.63607 0.63651 0.0
C2854 C 0.711 0.6189 0.6309 0.0
C2855 C 0.7181 0.62756 0.61635 0.0
C2856 C 0.71588 0.64069 0.6122 0.0
C2857 C 0.70664 0.64492 0.62217 0.0
C2858 C 0.72952 0.60128 0.58945 0.0
C2859 C 0.74296 0.61324 0.58128 0.0
C2860 C 0.72173 0.6059 0.60123 0.0
C2861 C 0.72721 0.62261 0.60505 0.0
C2862 C 0.74089 0.63456 0.59713 0.0
C2863 C 0.74856 0.62994 0.58525 0.0
H2864 H 0.34475 0.04594 0.61668 0.0
H2865 H 0.38244 0.07735 0.6537 0.0
H2866 H 0.35114 0.06956 0.60001 0.0
H2867 H 0.38862 0.10116 0.63719 0.0
H2868 H 0.35841 0.11641 0.57862 0.0
H2869 H 0.35061 0.09454 0.59848 0.0
H2870 H 0.40075 0.11205 0.61086 0.0
H2871 H 0.40846 0.13419 0.59144 0.0
C2872 C 0.35422 0.05794 0.62143 0.0
C2873 C 0.3631 0.05975 0.63652 0.0
C2874 C 0.35785 0.07153 0.61189 0.0
C2875 C 0.37042 0.0873 0.61721 0.0
C2876 C 0.37901 0.08916 0.63257 0.0
C2877 C 0.37542 0.07553 0.6421 0.0
C2878 C 0.36773 0.11578 0.58589 0.0
C2879 C 0.38405 0.12724 0.58376 0.0
C2880 C 0.36328 0.10315 0.59713 0.0
C2881 C 0.37505 0.10152 0.60632 0.0
C2882 C 0.39135 0.1131 0.60429 0.0
C2883 C 0.39579 0.12576 0.59311 0.0
H2884 H 0.92685 0.29249 0.67666 0.0
H2885 H 0.96612 0.29582 0.64821 0.0
H2886 H 0.91124 0.28785 0.65043 0.0
H2887 H 0.95017 0.29044 0.62185 0.0
H2888 H 0.92365 0.29748 0.57722 0.0
H2889 H 0.93965 0.30205 0.60306 0.0
H2890 H 0.89686 0.26806 0.62839 0.0
H2891 H 0.88065 0.26415 0.60269 0.0
C2892 C 0.9321 0.29205 0.66479 0.0
C2893 C 0.94773 0.2945 0.66454 0.0
C2894 C 0.92308 0.28927 0.64971 0.0
C2895 C 0.92935 0.28864 0.63396 0.0
C2896 C 0.94501 0.29106 0.63371 0.0
C2897 C 0.95414 0.29406 0.64883 0.0
C2898 C 0.91751 0.29111 0.58829 0.0
C2899 C 0.90066 0.28082 0.58799 0.0
C2900 C 0.92681 0.29359 0.60313 0.0
C2901 C 0.91958 0.28559 0.61794 0.0
C2902 C 0.90284 0.27482 0.61741 0.0
C2903 C 0.89353 0.2725 0.60266 0.0
H2904 H 0.36594 0.29828 0.66567 0.0
H2905 H 0.33991 0.31508 0.63491 0.0
H2906 H 0.37715 0.29345 0.64029 0.0
H2907 H 0.35154 0.31075 0.60958 0.0
H2908 H 0.3631 0.28719 0.56544 0.0
H2909 H 0.35083 0.28983 0.59119 0.0
H2910 H 0.39606 0.30782 0.61929 0.0
H2911 H 0.40807 0.30457 0.59362 0.0
C2912 C 0.36268 0.30105 0.65351 0.0
C2913 C 0.35201 0.30708 0.65236 0.0
C2914 C 0.36918 0.29834 0.63894 0.0
C2915 C 0.36527 0.3017 0.62284 0.0
C2916 C 0.35461 0.30775 0.62171 0.0
C2917 C 0.34802 0.31035 0.63627 0.0
C2918 C 0.37032 0.29152 0.57719 0.0
C2919 C 0.38651 0.29561 0.57756 0.0
C2920 C 0.36336 0.29319 0.59191 0.0
C2921 C 0.37246 0.29915 0.60734 0.0
C2922 C 0.38861 0.30299 0.60773 0.0
C2923 C 0.39553 0.30121 0.59302 0.0
H2924 H 0.71566 0.04938 0.60888 0.0
H2925 H 0.69821 0.07427 0.64124 0.0
H2926 H 0.72808 0.0732 0.59129 0.0
H2927 H 0.70997 0.09767 0.6234 0.0
H2928 H 0.73725 0.14148 0.59309 0.0
H2929 H 0.73282 0.12045 0.61298 0.0
H2930 H 0.71835 0.08457 0.57104 0.0
H2931 H 0.72354 0.10582 0.55122 0.0
C2932 C 0.71464 0.06 0.61236 0.0
C2933 C 0.70584 0.05987 0.62638 0.0
C2934 C 0.72165 0.07361 0.6022 0.0
C2935 C 0.7199 0.08733 0.60577 0.0
C2936 C 0.71178 0.08747 0.62032 0.0
C2937 C 0.7049 0.07395 0.63053 0.0
C2938 C 0.73356 0.1292 0.58813 0.0
C2939 C 0.73096 0.12532 0.57058 0.0
C2940 C 0.73084 0.11708 0.59953 0.0
C2941 C 0.72514 0.10075 0.59366 0.0
C2942 C 0.72302 0.09704 0.57605 0.0
C2943 C 0.7259 0.10919 0.56467 0.0
H2944 H 0.96424 0.66134 0.6435 0.0
H2945 H 0.91859 0.63538 0.66743 0.0
H2946 H 0.95066 0.65052 0.61584 0.0
H2947 H 0.90495 0.62489 0.63966 0.0
H2948 H 0.9209 0.64001 0.56718 0.0
H2949 H 0.93288 0.65219 0.59528 0.0
H2950 H 0.90204 0.60555 0.61725 0.0
H2951 H 0.88981 0.5936 0.58917 0.0
C2952 C 0.95129 0.65345 0.64288 0.0
C2953 C 0.94254 0.6492 0.65775 0.0
C2954 C 0.94347 0.64732 0.62697 0.0
C2955 C 0.92668 0.63684 0.62548 0.0
C2956 C 0.9179 0.63276 0.64034 0.0
C2957 C 0.92573 0.63884 0.65627 0.0
C2958 C 0.91655 0.63247 0.57808 0.0
C2959 C 0.90435 0.61591 0.57603 0.0
C2960 C 0.92349 0.63938 0.59416 0.0
C2961 C 0.9185 0.62984 0.60855 0.0
C2962 C 0.90604 0.61334 0.60651 0.0
C2963 C 0.89906 0.60646 0.59043 0.0
H2964 H 0.97548 0.72284 0.70408 0.0
H2965 H 0.94987 0.67996 0.73372 0.0
H2966 H 0.96692 0.73785 0.72257 0.0
H2967 H 0.94095 0.69486 0.75197 0.0
H2968 H 0.94396 0.7598 0.75505 0.0
H2969 H 0.94546 0.74135 0.73363 0.0
H2970 H 0.95557 0.71687 0.77335 0.0
H2971 H 0.95373 0.73506 0.79461 0.0
C2972 C 0.96767 0.71647 0.71427 0.0
C2973 C 0.96353 0.70028 0.71756 0.0
C2974 C 0.96269 0.72506 0.72484 0.0
C2975 C 0.95344 0.71762 0.7389 0.0
C2976 C 0.94834 0.70104 0.74144 0.0
C2977 C 0.95336 0.69246 0.7309 0.0
C2978 C 0.9462 0.75025 0.75914 0.0
C2979 C 0.94857 0.74871 0.77647 0.0
C2980 C 0.94715 0.73976 0.7469 0.0
C2981 C 0.95058 0.72759 0.75177 0.0
C2982 C 0.95259 0.72588 0.76916 0.0
C2983 C 0.95165 0.73635 0.78135 0.0
H2984 H 0.32186 0.28913 0.72787 0.0
H2985 H 0.28451 0.25913 0.68995 0.0
H2986 H 0.31231 0.26604 0.74583 0.0
H2987 H 0.27523 0.23549 0.70777 0.0
H2988 H 0.25026 0.20614 0.75484 0.0
H2989 H 0.2612 0.22584 0.73274 0.0
H2990 H 0.3094 0.24066 0.75127 0.0
H2991 H 0.29836 0.22179 0.77412 0.0
C2992 C 0.31183 0.27744 0.72315 0.0
C2993 C 0.30392 0.276 0.70748 0.0
C2994 C 0.30638 0.26408 0.73346 0.0
C2995 C 0.29294 0.24878 0.72834 0.0
C2996 C 0.28544 0.24713 0.71229 0.0
C2997 C 0.29082 0.26063 0.70199 0.0
C2998 C 0.26319 0.21372 0.75431 0.0
C2999 C 0.27345 0.21302 0.76678 0.0
C3000 C 0.2695 0.22486 0.74141 0.0
C3001 C 0.28623 0.2352 0.74038 0.0
C3002 C 0.29646 0.23337 0.75199 0.0
C3003 C 0.29014 0.22248 0.76506 0.0
H3004 H 0.74205 0.02418 0.67202 0.0
H3005 H 0.71216 0.03924 0.69776 0.0
H3006 H 0.75869 0.03039 0.69792 0.0
H3007 H 0.72923 0.0463 0.72338 0.0
H3008 H 0.75279 0.04191 0.77177 0.0
H3009 H 0.73606 0.03541 0.7459 0.0
H3010 H 0.7781 0.0513 0.71603 0.0
H3011 H 0.79454 0.05675 0.74188 0.0
C3012 C 0.73913 0.02897 0.68318 0.0
C3013 C 0.72575 0.03115 0.68284 0.0
C3014 C 0.74875 0.03267 0.69804 0.0
C3015 C 0.7454 0.03891 0.71286 0.0
C3016 C 0.73206 0.04121 0.7124 0.0
C3017 C 0.72228 0.03725 0.69764 0.0
C3018 C 0.75842 0.04408 0.75964 0.0
C3019 C 0.77501 0.05009 0.75894 0.0
C3020 C 0.74886 0.04045 0.74477 0.0
C3021 C 0.75567 0.04289 0.72875 0.0
C3022 C 0.77232 0.04902 0.72807 0.0
C3023 C 0.78184 0.05238 0.74295 0.0
H3024 H 0.04336 0.30197 0.01742 0.0
H3025 H 0.05817 0.3517 0.03464 0.0
H3026 H 0.06234 0.30157 0.03805 0.0
H3027 H 0.07747 0.35152 0.05476 0.0
H3028 H 0.11059 0.34973 0.10378 0.0
H3029 H 0.08611 0.34846 0.08113 0.0
H3030 H 0.08892 0.30692 0.04213 0.0
H3031 H 0.11348 0.30712 0.064 0.0
C3032 C 0.05065 0.31282 0.02561 0.0
C3033 C 0.04927 0.32689 0.02431 0.0
C3034 C 0.06164 0.31263 0.03738 0.0
C3035 C 0.07151 0.32652 0.04807 0.0
C3036 C 0.06989 0.34046 0.04701 0.0
C3037 C 0.05888 0.34063 0.03531 0.0
C3038 C 0.10714 0.34243 0.09196 0.0
C3039 C 0.11251 0.32631 0.0878 0.0
C3040 C 0.09129 0.3409 0.07814 0.0
C3041 C 0.08394 0.32677 0.05968 0.0
C3042 C 0.09286 0.3145 0.05375 0.0
C3043 C 0.10878 0.31517 0.06679 0.0
H3044 H 0.65511 0.69826 0.0671 0.0
H3045 H 0.69709 0.70774 0.03964 0.0
H3046 H 0.66872 0.72685 0.07739 0.0
H3047 H 0.71082 0.73625 0.05035 0.0
H3048 H 0.73625 0.79738 0.06568 0.0
H3049 H 0.71915 0.76462 0.04997 0.0
H3050 H 0.6858 0.74279 0.10108 0.0
H3051 H 0.70204 0.77499 0.11801 0.0
C3052 C 0.66719 0.70645 0.06313 0.0
C3053 C 0.67508 0.70061 0.05274 0.0
C3054 C 0.67505 0.72283 0.06917 0.0
C3055 C 0.69095 0.7337 0.06497 0.0
C3056 C 0.69853 0.72819 0.05376 0.0
C3057 C 0.69066 0.71179 0.04767 0.0
C3058 C 0.72748 0.78711 0.07254 0.0
C3059 C 0.71884 0.79011 0.09228 0.0
C3060 C 0.71619 0.7668 0.06255 0.0
C3061 C 0.69986 0.7503 0.07324 0.0
C3062 C 0.69501 0.7531 0.09466 0.0
C3063 C 0.70558 0.7729 0.10569 0.0
H3064 H 0.29585 0.95071 0.02333 0.0
H3065 H 0.26986 0.96621 0.9907 0.0
H3066 H 0.2739 0.9404 0.04302 0.0
H3067 H 0.24806 0.95591 0.01029 0.0
H3068 H 0.22238 0.95467 0.0585 0.0
H3069 H 0.24485 0.96417 0.03965 0.0
H3070 H 0.24441 0.91845 0.04426 0.0
H3071 H 0.22187 0.90893 0.06311 0.0
C3072 C 0.28542 0.95179 0.02029 0.0
C3073 C 0.28463 0.95933 0.00548 0.0
C3074 C 0.27286 0.94587 0.03154 0.0
C3075 C 0.25936 0.94751 0.02826 0.0
C3076 C 0.25844 0.95471 0.01328 0.0
C3077 C 0.27089 0.9605 0.002 0.0
C3078 C 0.22726 0.94678 0.05568 0.0
C3079 C 0.22061 0.93123 0.06257 0.0
C3080 C 0.24 0.95213 0.04479 0.0
C3081 C 0.24635 0.94203 0.04048 0.0
C3082 C 0.23987 0.92656 0.04753 0.0
C3083 C 0.22701 0.92114 0.05833 0.0
H3084 H 0.351 0.05361 0.99065 0.0
H3085 H 0.30443 0.01046 0.97969 0.0
H3086 H 0.33927 0.071 0.98717 0.0
H3087 H 0.29285 0.02775 0.97517 0.0
H3088 H 0.27344 0.06166 0.97164 0.0
H3089 H 0.28469 0.04604 0.98406 0.0
H3090 H 0.33087 0.07977 0.96413 0.0
H3091 H 0.3199 0.09582 0.95289 0.0
C3092 C 0.33821 0.04785 0.98767 0.0
C3093 C 0.32867 0.03071 0.98525 0.0
C3094 C 0.33149 0.05781 0.9855 0.0
C3095 C 0.31516 0.05086 0.98046 0.0
C3096 C 0.30543 0.03362 0.97916 0.0
C3097 C 0.31209 0.02365 0.98169 0.0
C3098 C 0.28602 0.06572 0.97007 0.0
C3099 C 0.29561 0.07964 0.96082 0.0
C3100 C 0.29247 0.05676 0.97711 0.0
C3101 C 0.30867 0.06145 0.97495 0.0
C3102 C 0.31841 0.0758 0.96629 0.0
C3103 C 0.31203 0.0849 0.95953 0.0
H3104 H 0.95583 0.29104 0.97167 0.0
H3105 H 0.99596 0.28632 0.98965 0.0
H3106 H 0.94174 0.26243 0.96152 0.0
H3107 H 0.98158 0.25744 0.97949 0.0
H3108 H 0.94634 0.1951 0.96407 0.0
H3109 H 0.96134 0.22717 0.98154 0.0
H3110 H 0.94397 0.2498 0.93418 0.0
H3111 H 0.92867 0.21844 0.91544 0.0
C3112 C 0.96155 0.28384 0.97379 0.0
C3113 C 0.9772 0.29113 0.98121 0.0
C3114 C 0.95347 0.26744 0.96786 0.0
C3115 C 0.96073 0.25787 0.96941 0.0
C3116 C 0.97572 0.2646 0.97815 0.0
C3117 C 0.98395 0.28115 0.98396 0.0
C3118 C 0.94658 0.20542 0.95819 0.0
C3119 C 0.93338 0.20267 0.93928 0.0
C3120 C 0.95515 0.2252 0.96934 0.0
C3121 C 0.95333 0.24163 0.96037 0.0
C3122 C 0.94407 0.23944 0.93953 0.0
C3123 C 0.93521 0.22023 0.92737 0.0
H3124 H 0.72855 0.70544 0.01669 0.0
H3125 H 0.70434 0.6605 0.9853 0.0
H3126 H 0.75069 0.71677 0.99748 0.0
H3127 H 0.72668 0.67192 0.96603 0.0
H3128 H 0.7814 0.69173 0.9544 0.0
H3129 H 0.75629 0.67981 0.96935 0.0
H3130 H 0.75663 0.72567 0.96738 0.0
H3131 H 0.7817 0.73757 0.9523 0.0
C3132 C 0.72791 0.69802 0.00561 0.0
C3133 C 0.71475 0.68205 0.00255 0.0
C3134 C 0.74054 0.70457 0.99455 0.0
C3135 C 0.74039 0.69522 0.98028 0.0
C3136 C 0.72711 0.67934 0.977 0.0
C3137 C 0.71432 0.67286 0.98797 0.0
C3138 C 0.77589 0.69912 0.95678 0.0
C3139 C 0.78334 0.7155 0.95189 0.0
C3140 C 0.76153 0.6923 0.96532 0.0
C3141 C 0.75451 0.70181 0.96947 0.0
C3142 C 0.76181 0.71808 0.96436 0.0
C3143 C 0.77607 0.72485 0.95567 0.0
H3144 H 0.98114 0.69316 0.98861 0.0
H3145 H 0.93185 0.66057 0.00131 0.0
H3146 H 0.97284 0.70935 0.97255 0.0
H3147 H 0.92342 0.67651 0.98466 0.0
H3148 H 0.91979 0.72288 0.9759 0.0
H3149 H 0.92565 0.70287 0.98788 0.0
H3150 H 0.9589 0.71113 0.94829 0.0
H3151 H 0.95344 0.73161 0.93675 0.0
C3152 C 0.96846 0.68924 0.9877 0.0
C3153 C 0.95718 0.67566 0.99641 0.0
C3154 C 0.96367 0.69849 0.97836 0.0
C3155 C 0.94745 0.69433 0.97738 0.0
C3156 C 0.93605 0.68026 0.98541 0.0
C3157 C 0.94087 0.67105 0.99487 0.0
C3158 C 0.92816 0.7202 0.96963 0.0
C3159 C 0.93599 0.72864 0.95528 0.0
C3160 C 0.93146 0.70866 0.97643 0.0
C3161 C 0.94274 0.70533 0.96905 0.0
C3162 C 0.95028 0.71351 0.95442 0.0
C3163 C 0.94705 0.72513 0.94769 0.0
H3164 H 0.34339 0.30325 0.9458 0.0
H3165 H 0.32116 0.2937 0.99432 0.0
H3166 H 0.32766 0.27385 0.93771 0.0
H3167 H 0.3057 0.26439 0.98631 0.0
H3168 H 0.29031 0.21117 0.97095 0.0
H3169 H 0.31003 0.23999 0.97845 0.0
H3170 H 0.29641 0.25442 0.9325 0.0
H3171 H 0.27646 0.22569 0.92516 0.0
C3172 C 0.3354 0.29485 0.95485 0.0
C3173 C 0.33346 0.30078 0.97067 0.0
C3174 C 0.32634 0.27808 0.95018 0.0
C3175 C 0.31546 0.26691 0.96138 0.0
C3176 C 0.31408 0.27273 0.97748 0.0
C3177 C 0.32289 0.28951 0.98203 0.0
C3178 C 0.29174 0.2205 0.96233 0.0
C3179 C 0.282 0.21614 0.94738 0.0
C3180 C 0.30295 0.23695 0.96665 0.0
C3181 C 0.30477 0.24938 0.95601 0.0
C3182 C 0.29539 0.24503 0.9408 0.0
C3183 C 0.28397 0.22859 0.93661 0.0
H3184 H 0.72084 0.02902 0.01529 0.0
H3185 H 0.70023 0.04634 0.97781 0.0
H3186 H 0.74291 0.03504 0.99704 0.0
H3187 H 0.72272 0.05289 0.95967 0.0
H3188 H 0.7548 0.04385 0.92394 0.0
H3189 H 0.73298 0.03911 0.94236 0.0
H3190 H 0.76647 0.05693 0.9858 0.0
H3191 H 0.7881 0.06102 0.96743 0.0
C3192 C 0.72112 0.03432 0.00323 0.0
C3193 C 0.70873 0.03717 0.998 0.0
C3194 C 0.73386 0.03787 0.99278 0.0
C3195 C 0.73462 0.04446 0.97687 0.0
C3196 C 0.72239 0.0476 0.97175 0.0
C3197 C 0.70955 0.04397 0.98219 0.0
C3198 C 0.75743 0.04665 0.93745 0.0
C3199 C 0.77311 0.05267 0.94428 0.0
C3200 C 0.74498 0.04411 0.94798 0.0
C3201 C 0.74796 0.04765 0.96557 0.0
C3202 C 0.7637 0.05384 0.97235 0.0
C3203 C 0.77611 0.05626 0.96183 0.0
H3204 H 0.69793 0.9854 0.036 0.0
H3205 H 0.65628 0.94779 0.06019 0.0
H3206 H 0.71188 0.97038 0.0408 0.0
H3207 H 0.67045 0.93278 0.06506 0.0
H3208 H 0.69787 0.9044 0.05584 0.0
H3209 H 0.68226 0.91776 0.04986 0.0
H3210 H 0.72316 0.96466 0.0665 0.0
H3211 H 0.73872 0.9513 0.07237 0.0
C3212 C 0.69167 0.97387 0.04224 0.0
C3213 C 0.676 0.9679 0.04787 0.0
C3214 C 0.69974 0.96532 0.04507 0.0
C3215 C 0.69236 0.95055 0.05354 0.0
C3216 C 0.67644 0.94414 0.05849 0.0
C3217 C 0.66834 0.95275 0.05571 0.0
C3218 C 0.70343 0.91754 0.05833 0.0
C3219 C 0.71945 0.92682 0.06465 0.0
C3220 C 0.69451 0.92516 0.05495 0.0
C3221 C 0.70152 0.94225 0.05763 0.0
C3222 C 0.71751 0.9515 0.06409 0.0
C3223 C 0.72638 0.94387 0.06757 0.0
H3224 H 0.01483 0.71961 0.03126 0.0
H3225 H 0.05384 0.71623 0.05505 0.0
H3226 H 0.02956 0.74922 0.03725 0.0
H3227 H 0.06848 0.74588 0.06112 0.0
H3228 H 0.09569 0.80201 0.05388 0.0
H3229 H 0.08195 0.77246 0.04688 0.0
H3230 H 0.03732 0.76764 0.06317 0.0
H3231 H 0.05109 0.79721 0.07009 0.0
C3232 C 0.0266 0.72516 0.03763 0.0
C3233 C 0.0331 0.71547 0.04275 0.0
C3234 C 0.03497 0.74213 0.04118 0.0
C3235 C 0.05009 0.74985 0.04983 0.0
C3236 C 0.05687 0.74029 0.05439 0.0
C3237 C 0.04845 0.72329 0.05093 0.0
C3238 C 0.08298 0.79458 0.0561 0.0
C3239 C 0.07446 0.80185 0.06263 0.0
C3240 C 0.07512 0.77768 0.05211 0.0
C3241 C 0.05855 0.76774 0.0544 0.0
C3242 C 0.05006 0.77501 0.06106 0.0
C3243 C 0.05794 0.79189 0.06515 0.0
H3244 H 0.2998 0.31344 0.02843 0.0
H3245 H 0.29443 0.35618 0.03297 0.0
H3246 H 0.27437 0.29725 0.04194 0.0
H3247 H 0.26914 0.34004 0.04692 0.0
H3248 H 0.21508 0.29974 0.04404 0.0
H3249 H 0.24272 0.31868 0.03689 0.0
H3250 H 0.25892 0.29187 0.06702 0.0
H3251 H 0.23108 0.27264 0.07379 0.0
C3252 C 0.29336 0.31948 0.03262 0.0
C3253 C 0.29905 0.33606 0.02939 0.0
C3254 C 0.2788 0.3102 0.04049 0.0
C3255 C 0.26961 0.31729 0.04537 0.0
C3256 C 0.27577 0.33412 0.04303 0.0
C3257 C 0.29032 0.3434 0.03511 0.0
C3258 C 0.2246 0.29811 0.04939 0.0
C3259 C 0.22097 0.28484 0.05961 0.0
C3260 C 0.24046 0.309 0.04537 0.0
C3261 C 0.25307 0.30683 0.0514 0.0
C3262 C 0.24948 0.29381 0.06205 0.0
C3263 C 0.23358 0.28289 0.06605 0.0
H3264 H 0.69083 0.6505 0.37137 0.0
H3265 H 0.7389 0.69268 0.37217 0.0
H3266 H 0.69981 0.63754 0.3917 0.0
H3267 H 0.74789 0.6796 0.39233 0.0
H3268 H 0.76392 0.65986 0.44394 0.0
H3269 H 0.75116 0.67499 0.42199 0.0
H3270 H 0.71082 0.62003 0.39477 0.0
H3271 H 0.72253 0.60359 0.41598 0.0
C3272 C 0.70329 0.65704 0.37592 0.0
C3273 C 0.71414 0.67262 0.3701 0.0
C3274 C 0.70849 0.64953 0.38747 0.0
C3275 C 0.7246 0.6575 0.39353 0.0
C3276 C 0.73536 0.67321 0.38803 0.0
C3277 C 0.73021 0.68067 0.37639 0.0
C3278 C 0.75366 0.65248 0.43534 0.0
C3279 C 0.74638 0.63035 0.43008 0.0
C3280 C 0.74612 0.66182 0.42104 0.0
C3281 C 0.73023 0.64937 0.4053 0.0
C3282 C 0.72055 0.62716 0.40402 0.0
C3283 C 0.72725 0.61668 0.41771 0.0
H3284 H 0.3214 0.03062 0.4127 0.0
H3285 H 0.35177 0.04423 0.36963 0.0
H3286 H 0.33547 0.05863 0.42363 0.0
H3287 H 0.36539 0.07291 0.38009 0.0
H3288 H 0.40507 0.12767 0.40886 0.0
H3289 H 0.38675 0.09434 0.39489 0.0
H3290 H 0.34005 0.08347 0.43075 0.0
H3291 H 0.35755 0.11616 0.44591 0.0
C3292 C 0.33086 0.03972 0.4053 0.0
C3293 C 0.33549 0.03512 0.3903 0.0
C3294 C 0.33895 0.056 0.41156 0.0
C3295 C 0.3517 0.06826 0.40284 0.0
C3296 C 0.35591 0.06381 0.38742 0.0
C3297 C 0.34799 0.04737 0.38129 0.0
C3298 C 0.39334 0.11919 0.41341 0.0
C3299 C 0.38203 0.12626 0.42663 0.0
C3300 C 0.3814 0.09866 0.40406 0.0
C3301 C 0.36092 0.08533 0.41027 0.0
C3302 C 0.35211 0.09165 0.42685 0.0
C3303 C 0.36314 0.11188 0.43696 0.0
H3304 H 0.95328 0.32261 0.34115 0.0
H3305 H 0.97345 0.29724 0.36756 0.0
H3306 H 0.93003 0.31026 0.35887 0.0
H3307 H 0.95019 0.28498 0.3854 0.0
H3308 H 0.89561 0.24943 0.39402 0.0
H3309 H 0.92125 0.26405 0.38024 0.0
H3310 H 0.92148 0.30966 0.38825 0.0
H3311 H 0.89576 0.29498 0.40199 0.0
C3312 C 0.95285 0.31455 0.35087 0.0
C3313 C 0.96517 0.31082 0.35285 0.0
C3314 C 0.93956 0.30755 0.3611 0.0
C3315 C 0.93824 0.29659 0.37349 0.0
C3316 C 0.95079 0.29323 0.37583 0.0
C3317 C 0.96415 0.30033 0.36567 0.0
C3318 C 0.90132 0.26263 0.39316 0.0
C3319 C 0.89384 0.27113 0.39938 0.0
C3320 C 0.91601 0.27101 0.38529 0.0
C3321 C 0.92341 0.28802 0.38322 0.0
C3322 C 0.91602 0.29654 0.3896 0.0
C3323 C 0.90138 0.28818 0.39756 0.0
H3324 H 0.99625 0.36198 0.31328 0.0
H3325 H 0.04806 0.39017 0.31201 0.0
H3326 H 0.995 0.38673 0.30816 0.0
H3327 H 0.04693 0.41495 0.30773 0.0
H3328 H 0.03995 0.45144 0.27923 0.0
H3329 H 0.03995 0.42646 0.28561 0.0
H3330 H 0.00036 0.41301 0.31864 0.0
H3331 H 0.99985 0.43777 0.31141 0.0
C3332 C 0.00738 0.37353 0.31225 0.0
C3333 C 0.02224 0.37413 0.31281 0.0
C3334 C 0.00668 0.38773 0.30935 0.0
C3335 C 0.02085 0.40282 0.30721 0.0
C3336 C 0.03573 0.40348 0.30875 0.0
C3337 C 0.0364 0.38929 0.31136 0.0
C3338 C 0.03105 0.44302 0.2876 0.0
C3339 C 0.01964 0.44637 0.29451 0.0
C3340 C 0.0312 0.42878 0.2915 0.0
C3341 C 0.02023 0.41772 0.30277 0.0
C3342 C 0.00883 0.42111 0.30973 0.0
C3343 C 0.00855 0.43528 0.30564 0.0
H3344 H 0.62044 0.6408 0.30577 0.0
H3345 H 0.65727 0.62816 0.31348 0.0
H3346 H 0.60081 0.61212 0.29857 0.0
H3347 H 0.63797 0.5996 0.30523 0.0
H3348 H 0.59733 0.54682 0.30152 0.0
H3349 H 0.61589 0.57499 0.31177 0.0
H3350 H 0.59276 0.59215 0.27712 0.0
H3351 H 0.57355 0.56399 0.26792 0.0
C3352 C 0.62434 0.63185 0.30586 0.0
C3353 C 0.64039 0.63672 0.31016 0.0
C3354 C 0.61311 0.61539 0.30156 0.0
C3355 C 0.61773 0.60341 0.30104 0.0
C3356 C 0.6338 0.60832 0.30569 0.0
C3357 C 0.64494 0.62474 0.31036 0.0
C3358 C 0.59622 0.55666 0.29618 0.0
C3359 C 0.58405 0.5531 0.28379 0.0
C3360 C 0.60695 0.57286 0.30194 0.0
C3361 C 0.60599 0.58602 0.29528 0.0
C3362 C 0.59379 0.58243 0.28284 0.0
C3363 C 0.58285 0.56619 0.27734 0.0
H3364 H 0.36163 0.99953 0.31911 0.0
H3365 H 0.38741 0.99171 0.35978 0.0
H3366 H 0.37917 0.99731 0.29865 0.0
H3367 H 0.40431 0.98872 0.33948 0.0
H3368 H 0.43826 0.99036 0.30152 0.0
H3369 H 0.42465 0.00013 0.32011 0.0
H3370 H 0.38247 0.97641 0.28611 0.0
H3371 H 0.39653 0.96766 0.26709 0.0
C3372 C 0.37111 0.99747 0.3237 0.0
C3373 C 0.37302 0.99565 0.34105 0.0
C3374 C 0.3811 0.99606 0.31196 0.0
C3375 C 0.3931 0.99263 0.31732 0.0
C3376 C 0.3954 0.99157 0.3348 0.0
C3377 C 0.38557 0.99316 0.3465 0.0
C3378 C 0.42613 0.98738 0.29799 0.0
C3379 C 0.41828 0.97781 0.28312 0.0
C3380 C 0.41827 0.9929 0.30868 0.0
C3381 C 0.4023 0.98883 0.30483 0.0
C3382 C 0.39477 0.97992 0.2895 0.0
C3383 C 0.40274 0.97465 0.27869 0.0
H3384 H 0.63604 0.99663 0.30759 0.0
H3385 H 0.59665 0.97449 0.34142 0.0
H3386 H 0.62133 0.0067 0.29095 0.0
H3387 H 0.58232 0.98488 0.3253 0.0
H3388 H 0.55373 0.9953 0.28897 0.0
H3389 H 0.56825 0.98218 0.29936 0.0
H3390 H 0.61336 0.02708 0.29346 0.0
H3391 H 0.59874 0.03989 0.2822 0.0
C3392 C 0.62424 0.99385 0.31142 0.0
C3393 C 0.61754 0.98479 0.32585 0.0
C3394 C 0.61585 0.99969 0.30195 0.0
C3395 C 0.6006 0.99658 0.30673 0.0
C3396 C 0.59386 0.98725 0.32099 0.0
C3397 C 0.60218 0.98139 0.33036 0.0
C3398 C 0.56675 0.00228 0.28968 0.0
C3399 C 0.57509 0.01877 0.28523 0.0
C3400 C 0.57509 0.99481 0.29573 0.0
C3401 C 0.59198 0.00368 0.29766 0.0
C3402 C 0.60037 0.01986 0.29216 0.0
C3403 C 0.592 0.02728 0.28588 0.0
H3404 H 0.0305 0.64838 0.28383 0.0
H3405 H 0.00415 0.63591 0.32988 0.0
H3406 H 0.0185 0.61912 0.27586 0.0
H3407 H 0.99247 0.60671 0.32202 0.0
H3408 H 0.98738 0.5562 0.30828 0.0
H3409 H 0.00269 0.58563 0.31622 0.0
H3410 H 0.9877 0.59617 0.26864 0.0
H3411 H 0.97202 0.56679 0.26087 0.0
C3412 C 0.02238 0.63941 0.29239 0.0
C3413 C 0.01824 0.64443 0.30747 0.0
C3414 C 0.01547 0.6227 0.28776 0.0
C3415 C 0.00458 0.61074 0.29833 0.0
C3416 C 0.00092 0.61573 0.31372 0.0
C3417 C 0.00756 0.63241 0.31817 0.0
C3418 C 0.98752 0.56484 0.29945 0.0
C3419 C 0.97863 0.55917 0.2839 0.0
C3420 C 0.99622 0.58162 0.30401 0.0
C3421 C 0.99639 0.59309 0.293 0.0
C3422 C 0.98789 0.58753 0.27725 0.0
C3423 C 0.97892 0.57072 0.27282 0.0
H3424 H 0.36155 0.37281 0.31623 0.0
H3425 H 0.38786 0.36485 0.35622 0.0
H3426 H 0.38343 0.37929 0.29723 0.0
H3427 H 0.40936 0.3707 0.33716 0.0
H3428 H 0.4522 0.39753 0.30412 0.0
H3429 H 0.43066 0.39233 0.32308 0.0
H3430 H 0.39555 0.36654 0.28183 0.0
H3431 H 0.41719 0.37247 0.26274 0.0
C3432 C 0.37198 0.37241 0.32094 0.0
C3433 C 0.373 0.36838 0.33773 0.0
C3434 C 0.38447 0.37601 0.31003 0.0
C3435 C 0.39817 0.3755 0.31565 0.0
C3436 C 0.39915 0.3715 0.33247 0.0
C3437 C 0.38675 0.36806 0.3434 0.0
C3438 C 0.43987 0.39071 0.29915 0.0
C3439 C 0.43637 0.38523 0.28201 0.0
C3440 C 0.42751 0.38766 0.31001 0.0
C3441 C 0.41134 0.37896 0.30401 0.0
C3442 C 0.40786 0.37346 0.28684 0.0
C3443 C 0.42023 0.37665 0.27595 0.0
H3444 H 0.35439 0.32554 0.3645 0.0
H3445 H 0.31421 0.28835 0.39088 0.0
H3446 H 0.36918 0.31141 0.36948 0.0
H3447 H 0.32923 0.2742 0.39588 0.0
H3448 H 0.35697 0.24626 0.38371 0.0
H3449 H 0.34066 0.25915 0.37953 0.0
H3450 H 0.38169 0.3064 0.3949 0.0
H3451 H 0.39796 0.2935 0.39904 0.0
C3452 C 0.34864 0.3143 0.37129 0.0
C3453 C 0.33309 0.30813 0.37737 0.0
C3454 C 0.35721 0.30628 0.37424 0.0
C3455 C 0.35044 0.29183 0.38324 0.0
C3456 C 0.33472 0.28532 0.38888 0.0
C3457 C 0.32615 0.29344 0.38604 0.0
C3458 C 0.36242 0.25937 0.38636 0.0
C3459 C 0.3787 0.2689 0.39173 0.0
C3460 C 0.35308 0.26672 0.38402 0.0
C3461 C 0.35994 0.28378 0.38679 0.0
C3462 C 0.37615 0.29325 0.39246 0.0
C3463 C 0.38543 0.28589 0.39493 0.0
H3464 H 0.67997 0.03097 0.35643 0.0
H3465 H 0.71029 0.02397 0.39234 0.0
H3466 H 0.69328 0.06 0.36555 0.0
H3467 H 0.72359 0.05295 0.40127 0.0
H3468 H 0.72433 0.0965 0.42972 0.0
H3469 H 0.71359 0.06872 0.41758 0.0
H3470 H 0.71956 0.08698 0.36713 0.0
H3471 H 0.73035 0.11499 0.3794 0.0
C3472 C 0.68963 0.03564 0.36606 0.0
C3473 C 0.6939 0.02505 0.37381 0.0
C3474 C 0.69729 0.0523 0.37123 0.0
C3475 C 0.70931 0.05867 0.38428 0.0
C3476 C 0.71416 0.0483 0.39138 0.0
C3477 C 0.70657 0.03169 0.38618 0.0
C3478 C 0.72347 0.09461 0.41604 0.0
C3479 C 0.72847 0.10795 0.4055 0.0
C3480 C 0.7174 0.07872 0.40908 0.0
C3481 C 0.71598 0.07572 0.3914 0.0
C3482 C 0.72058 0.08896 0.3808 0.0
C3483 C 0.72679 0.10495 0.3878 0.0
H3484 H 0.95537 0.63866 0.32874 0.0
H3485 H 0.97961 0.67229 0.37197 0.0
H3486 H 0.93148 0.62359 0.34499 0.0
H3487 H 0.95545 0.65748 0.38814 0.0
H3488 H 0.9149 0.61809 0.41751 0.0
H3489 H 0.93919 0.63219 0.40145 0.0
H3490 H 0.91013 0.6262 0.35632 0.0
H3491 H 0.88584 0.61143 0.37227 0.0
C3492 C 0.95558 0.64289 0.34171 0.0
C3493 C 0.96939 0.6567 0.34906 0.0
C3494 C 0.94182 0.6343 0.351 0.0
C3495 C 0.94147 0.63935 0.36785 0.0
C3496 C 0.95535 0.65311 0.37526 0.0
C3497 C 0.96918 0.66167 0.36597 0.0
C3498 C 0.91373 0.6196 0.4041 0.0
C3499 C 0.89846 0.61346 0.39609 0.0
C3500 C 0.92765 0.62786 0.39494 0.0
C3501 C 0.92665 0.63036 0.37758 0.0
C3502 C 0.91136 0.62426 0.3696 0.0
C3503 C 0.89743 0.61586 0.37873 0.0
H3504 H 0.40958 0.03882 0.69897 0.0
H3505 H 0.36501 0.99367 0.70587 0.0
H3506 H 0.42337 0.03058 0.71908 0.0
H3507 H 0.37893 0.98523 0.72567 0.0
H3508 H 0.40431 0.97171 0.7746 0.0
H3509 H 0.38777 0.98298 0.75286 0.0
H3510 H 0.43761 0.01606 0.72047 0.0
H3511 H 0.45543 0.00563 0.74151 0.0
C3512 C 0.4027 0.02714 0.70481 0.0
C3513 C 0.38619 0.01686 0.70071 0.0
C3514 C 0.41066 0.02236 0.71628 0.0
C3515 C 0.40231 0.0072 0.72392 0.0
C3516 C 0.38571 0.99711 0.72022 0.0
C3517 C 0.37773 0.0019 0.70875 0.0
C3518 C 0.41023 0.97926 0.76406 0.0
C3519 C 0.43243 0.98989 0.76226 0.0
C3520 C 0.40028 0.98704 0.75097 0.0
C3521 C 0.41105 0.00163 0.73499 0.0
C3522 C 0.43176 0.0081 0.73074 0.0
C3523 C 0.44276 0.001 0.74315 0.0
H3524 H 0.9985 0.3647 0.70116 0.0
H3525 H 0.96573 0.34327 0.74171 0.0
H3526 H 0.99897 0.39062 0.70659 0.0
H3527 H 0.96656 0.36909 0.74739 0.0
H3528 H 0.95528 0.40961 0.73909 0.0
H3529 H 0.95639 0.38461 0.73399 0.0
H3530 H 0.00748 0.41382 0.72682 0.0
H3531 H 0.0062 0.43888 0.73147 0.0
C3532 C 0.99157 0.36557 0.71134 0.0
C3533 C 0.98194 0.35187 0.72086 0.0
C3534 C 0.99188 0.38043 0.7145 0.0
C3535 C 0.98264 0.38187 0.7273 0.0
C3536 C 0.9735 0.36831 0.73717 0.0
C3537 C 0.9731 0.3535 0.73395 0.0
C3538 C 0.96674 0.41065 0.73651 0.0
C3539 C 0.98068 0.42615 0.73586 0.0
C3540 C 0.96742 0.39635 0.73365 0.0
C3541 C 0.98206 0.3972 0.73013 0.0
C3542 C 0.996 0.41273 0.72938 0.0
C3543 C 0.9953 0.42707 0.73218 0.0
H3544 H 0.61401 0.64082 0.678 0.0
H3545 H 0.6389 0.62322 0.70944 0.0
H3546 H 0.59168 0.62955 0.69692 0.0
H3547 H 0.61637 0.61188 0.72848 0.0
H3548 H 0.56202 0.57552 0.74103 0.0
H3549 H 0.58703 0.58884 0.72585 0.0
H3550 H 0.58556 0.63385 0.72662 0.0
H3551 H 0.5606 0.62055 0.74181 0.0
C3552 C 0.61476 0.63462 0.68902 0.0
C3553 C 0.62819 0.63285 0.69219 0.0
C3554 C 0.602 0.62826 0.69992 0.0
C3555 C 0.60231 0.61987 0.71419 0.0
C3556 C 0.6158 0.61823 0.71751 0.0
C3557 C 0.6287 0.62477 0.70667 0.0
C3558 C 0.56727 0.58837 0.73832 0.0
C3559 C 0.55952 0.5971 0.74289 0.0
C3560 C 0.58157 0.59598 0.72964 0.0
C3561 C 0.58823 0.61237 0.72508 0.0
C3562 C 0.58065 0.62118 0.72991 0.0
C3563 C 0.56644 0.61361 0.73869 0.0
H3564 H 0.646 0.67709 0.65247 0.0
H3565 H 0.69432 0.71822 0.65003 0.0
H3566 H 0.63524 0.69493 0.64674 0.0
H3567 H 0.6837 0.73644 0.64551 0.0
H3568 H 0.66055 0.75913 0.6143 0.0
H3569 H 0.67165 0.74276 0.62402 0.0
H3570 H 0.63044 0.71571 0.65475 0.0
H3571 H 0.61866 0.73135 0.64378 0.0
C3572 C 0.65433 0.69007 0.65115 0.0
C3573 C 0.67098 0.69626 0.65148 0.0
C3574 C 0.64817 0.70037 0.64796 0.0
C3575 C 0.65855 0.71719 0.64543 0.0
C3576 C 0.67528 0.7235 0.64684 0.0
C3577 C 0.68141 0.71311 0.64959 0.0
C3578 C 0.65373 0.74963 0.62303 0.0
C3579 C 0.63849 0.74632 0.62799 0.0
C3580 C 0.66027 0.74034 0.62886 0.0
C3581 C 0.65199 0.72779 0.6402 0.0
C3582 C 0.63705 0.72498 0.64573 0.0
C3583 C 0.63033 0.73403 0.63958 0.0
H3584 H 0.32513 0.96244 0.65722 0.0
H3585 H 0.29009 0.96969 0.62972 0.0
H3586 H 0.31 0.93327 0.64865 0.0
H3587 H 0.27491 0.94058 0.62149 0.0
H3588 H 0.25758 0.88932 0.58463 0.0
H3589 H 0.27419 0.92265 0.59894 0.0
H3590 H 0.29025 0.90506 0.6517 0.0
H3591 H 0.27405 0.87129 0.63869 0.0
C3592 C 0.31407 0.95779 0.64961 0.0
C3593 C 0.30897 0.96851 0.64399 0.0
C3594 C 0.30534 0.94102 0.64475 0.0
C3595 C 0.29136 0.93465 0.63418 0.0
C3596 C 0.28585 0.94518 0.62928 0.0
C3597 C 0.29452 0.96189 0.63413 0.0
C3598 C 0.26412 0.89238 0.59675 0.0
C3599 C 0.26162 0.87633 0.61156 0.0
C3600 C 0.27379 0.91292 0.60619 0.0
C3601 C 0.28311 0.91742 0.62735 0.0
C3602 C 0.28411 0.90188 0.63935 0.0
C3603 C 0.27475 0.88093 0.63102 0.0
H3604 H 0.05386 0.32785 0.68774 0.0
H3605 H 0.02721 0.34247 0.655 0.0
H3606 H 0.0767 0.34089 0.66975 0.0
H3607 H 0.05014 0.35531 0.63664 0.0
H3608 H 0.1022 0.39268 0.62094 0.0
H3609 H 0.07761 0.37868 0.63672 0.0
H3610 H 0.08509 0.33755 0.64227 0.0
H3611 H 0.10985 0.35178 0.62704 0.0
C3612 C 0.05283 0.33378 0.67662 0.0
C3613 C 0.03869 0.33411 0.67281 0.0
C3614 C 0.06592 0.34116 0.66621 0.0
C3615 C 0.06523 0.34903 0.65165 0.0
C3616 C 0.0511 0.34943 0.64782 0.0
C3617 C 0.03795 0.34203 0.6583 0.0
C3618 C 0.0984 0.38053 0.62531 0.0
C3619 C 0.1078 0.37322 0.6225 0.0
C3620 C 0.08431 0.37249 0.63431 0.0
C3621 C 0.07939 0.35701 0.6408 0.0
C3622 C 0.08863 0.34956 0.63764 0.0
C3623 C 0.10272 0.35762 0.62874 0.0
H3624 H 0.3134 0.35323 0.64749 0.0
H3625 H 0.26432 0.31308 0.64819 0.0
H3626 H 0.30407 0.37051 0.63543 0.0
H3627 H 0.255 0.33024 0.63561 0.0
H3628 H 0.24498 0.37325 0.64123 0.0
H3629 H 0.25288 0.35299 0.64658 0.0
H3630 H 0.2917 0.37671 0.61229 0.0
H3631 H 0.28394 0.39732 0.60733 0.0
C3632 C 0.30064 0.34795 0.6447 0.0
C3633 C 0.28959 0.33184 0.64905 0.0
C3634 C 0.29528 0.35786 0.63768 0.0
C3635 C 0.27874 0.35186 0.63474 0.0
C3636 C 0.26779 0.33538 0.63805 0.0
C3637 C 0.27314 0.3255 0.64517 0.0
C3638 C 0.255 0.37393 0.63458 0.0
C3639 C 0.26373 0.38674 0.62373 0.0
C3640 C 0.2595 0.36226 0.63757 0.0
C3641 C 0.27292 0.36316 0.62984 0.0
C3642 C 0.28139 0.37573 0.61856 0.0
C3643 C 0.27688 0.38744 0.6156 0.0
H3644 H 0.66342 0.96353 0.65744 0.0
H3645 H 0.68272 0.9692 0.60756 0.0
H3646 H 0.64745 0.93383 0.65177 0.0
H3647 H 0.66645 0.9394 0.60182 0.0
H3648 H 0.6144 0.89099 0.59419 0.0
H3649 H 0.63483 0.92 0.59899 0.0
H3650 H 0.65136 0.90881 0.64519 0.0
H3651 H 0.63116 0.8797 0.64021 0.0
C3652 C 0.66439 0.9584 0.64535 0.0
C3653 C 0.67429 0.96869 0.63293 0.0
C3654 C 0.6553 0.94141 0.64214 0.0
C3655 C 0.65569 0.93437 0.62634 0.0
C3656 C 0.6659 0.94457 0.61407 0.0
C3657 C 0.67527 0.96157 0.61741 0.0
C3658 C 0.62263 0.89464 0.60515 0.0
C3659 C 0.62133 0.88302 0.61673 0.0
C3660 C 0.63433 0.91124 0.60788 0.0
C3661 C 0.64467 0.91659 0.62243 0.0
C3662 C 0.64352 0.90498 0.63387 0.0
C3663 C 0.63203 0.88837 0.631 0.0
H3664 H 0.01923 0.68018 0.65224 0.0
H3665 H 0.05082 0.71957 0.68817 0.0
H3666 H 0.04221 0.68566 0.6354 0.0
H3667 H 0.07369 0.7253 0.67114 0.0
H3668 H 0.11329 0.72038 0.64632 0.0
H3669 H 0.08993 0.71335 0.66324 0.0
H3670 H 0.06135 0.70621 0.61738 0.0
H3671 H 0.08462 0.71288 0.60052 0.0
C3672 C 0.03105 0.69009 0.65647 0.0
C3673 C 0.0332 0.69943 0.67155 0.0
C3674 C 0.04421 0.69326 0.6468 0.0
C3675 C 0.0598 0.70588 0.65196 0.0
C3676 C 0.06189 0.7153 0.66696 0.0
C3677 C 0.04876 0.7121 0.67666 0.0
C3678 C 0.10199 0.71725 0.6399 0.0
C3679 C 0.1008 0.71737 0.62214 0.0
C3680 C 0.08864 0.71332 0.64957 0.0
C3681 C 0.07381 0.70936 0.64167 0.0
C3682 C 0.07254 0.70908 0.62386 0.0
C3683 C 0.08588 0.71299 0.61421 0.0
H3684 H 0.00301 0.6432 0.70055 0.0
H3685 H 0.95874 0.6137 0.72602 0.0
H3686 H 0.01155 0.62369 0.70701 0.0
H3687 H 0.96748 0.59418 0.73259 0.0
H3688 H 0.98331 0.55517 0.7236 0.0
H3689 H 0.97332 0.57389 0.71796 0.0
H3690 H 0.02007 0.61529 0.73279 0.0
H3691 H 0.03003 0.59657 0.73829 0.0
C3692 C 0.99505 0.63253 0.70749 0.0
C3693 C 0.98019 0.63008 0.71283 0.0
C3694 C 3e-05 0.62141 0.71129 0.0
C3695 C 0.99027 0.60751 0.72047 0.0
C3696 C 0.97523 0.60477 0.72546 0.0
C3697 C 0.97026 0.61598 0.72172 0.0
C3698 C 0.99136 0.56827 0.72582 0.0
C3699 C 0.00741 0.57445 0.73145 0.0
C3700 C 0.98565 0.57896 0.72264 0.0
C3701 C 0.99594 0.59605 0.72484 0.0
C3702 C 0.01192 0.60219 0.73076 0.0
C3703 C 0.01759 0.5915 0.73403 0.0
H3704 H 0.348 0.37395 0.68967 0.0
H3705 H 0.37699 0.36358 0.72404 0.0
H3706 H 0.36133 0.40225 0.70138 0.0
H3707 H 0.39025 0.3918 0.73557 0.0
H3708 H 0.38899 0.43218 0.76862 0.0
H3709 H 0.37894 0.40568 0.75354 0.0
H3710 H 0.38806 0.42918 0.70566 0.0
H3711 H 0.39828 0.45593 0.72087 0.0
C3712 C 0.3574 0.37775 0.69948 0.0
C3713 C 0.36123 0.36639 0.70609 0.0
C3714 C 0.36506 0.39398 0.70613 0.0
C3715 C 0.37663 0.39912 0.71956 0.0
C3716 C 0.38116 0.38807 0.72542 0.0
C3717 C 0.37359 0.37191 0.71874 0.0
C3718 C 0.38903 0.43173 0.75488 0.0
C3719 C 0.39478 0.44617 0.74592 0.0
C3720 C 0.38332 0.41658 0.74625 0.0
C3721 C 0.38298 0.41542 0.72844 0.0
C3722 C 0.38828 0.42976 0.7194 0.0
C3723 C 0.39416 0.44502 0.72808 0.0
H3724 H 0.63948 0.98779 0.68787 0.0
H3725 H 0.65696 0.03792 0.70594 0.0
H3726 H 0.61745 0.97825 0.70718 0.0
H3727 H 0.63471 0.0284 0.72496 0.0
H3728 H 0.60074 0.00456 0.76775 0.0
H3729 H 0.62393 0.01317 0.75013 0.0
H3730 H 0.59288 0.97906 0.7098 0.0
H3731 H 0.56979 0.97017 0.72765 0.0
C3732 C 0.63865 0.99678 0.69599 0.0
C3733 C 0.64994 0.01363 0.69531 0.0
C3734 C 0.62595 0.99131 0.70698 0.0
C3735 C 0.62424 0.00257 0.71752 0.0
C3736 C 0.63577 0.01939 0.71714 0.0
C3737 C 0.64849 0.02485 0.70617 0.0
C3738 C 0.59892 0.99891 0.75512 0.0
C3739 C 0.58345 0.98683 0.74898 0.0
C3740 C 0.61217 0.00389 0.745 0.0
C3741 C 0.61025 0.99686 0.72853 0.0
C3742 C 0.5948 0.98459 0.7225 0.0
C3743 C 0.58155 0.97959 0.73265 0.0
loop_
_geom_bond_atom_site_label_1
_geom_bond_atom_site_label_2
_geom_bond_distance
_geom_bond_site_symmetry_2
_ccdc_geom_bond_type
Mg0 O1 2.028 1_556 S
Mg0 O7 1.986 1_455 S
Mg0 O9 2.114 . S
Mg0 O10 2.251 . S
Mg0 O13 2.010 1_556 S
O1 Mg0 2.028 1_554 S
O1 C4 1.250 1_455 S
O2 Mg3 2.028 1_554 S
O2 C4 1.248 . S
Mg3 O2 2.028 1_556 S
Mg3 O8 2.032 . S
Mg3 O10 2.079 1_655 S
C4 O1 1.250 1_655 S
C4 O2 1.248 . S
C5 O6 1.264 . S
C5 O13 1.249 . S
O6 C5 1.264 . S
O7 Mg0 1.986 1_655 S
O7 C11 1.246 . S
O8 Mg3 2.032 . S
O8 C11 1.259 . S
O9 Mg0 2.114 . S
O9 C12 1.252 . S
O10 Mg0 2.251 . S
O10 Mg3 2.079 1_455 S
O10 C12 1.273 . S
C11 O7 1.246 . S
C11 O8 1.259 . S
C12 O9 1.252 . S
C12 O10 1.273 . S
O13 Mg0 2.010 1_554 S
O13 C5 1.249 . S
Mg14 O15 2.028 . S
Mg14 O21 1.986 . S
Mg14 O23 2.114 . S
Mg14 O24 2.251 . S
Mg14 O27 2.010 . S
O15 Mg14 2.028 . S
O15 C18 1.250 . S
O16 Mg17 2.028 . S
O16 C18 1.248 . S
Mg17 O16 2.028 . S
Mg17 O22 2.032 . S
Mg17 O24 2.079 . S
C18 O15 1.250 . S
C18 O16 1.248 . S
C19 O20 1.264 . S
C19 O27 1.249 . S
O20 C19 1.264 . S
O21 Mg14 1.986 . S
O21 C25 1.246 . S
O22 Mg17 2.032 . S
O22 C25 1.259 . S
O23 Mg14 2.114 . S
O23 C26 1.252 . S
O24 Mg14 2.251 . S
O24 Mg17 2.079 . S
O24 C26 1.273 . S
C25 O21 1.246 . S
C25 O22 1.259 . S
C26 O23 1.252 . S
C26 O24 1.273 . S
O27 Mg14 2.010 . S
O27 C19 1.249 . S
Mg28 O29 2.074 1_565 S
Mg28 O35 1.983 1_564 S
Mg28 O37 2.099 1_554 S
Mg28 O38 2.221 1_564 S
Mg28 O41 2.033 . S
O29 Mg28 2.074 1_545 S
O29 C32 1.250 . S
O30 Mg31 2.028 1_554 S
O30 C32 1.248 . S
Mg31 O30 2.028 1_556 S
Mg31 O36 2.032 . S
Mg31 O38 2.079 . S
C32 O29 1.250 . S
C32 O30 1.248 . S
C33 O34 1.264 . S
C33 O41 1.249 . S
O34 C33 1.264 . S
O35 Mg28 1.983 1_546 S
O35 C39 1.250 . S
O36 Mg31 2.032 . S
O36 C39 1.259 . S
O37 Mg28 2.099 1_556 S
O37 C40 1.252 . S
O38 Mg28 2.221 1_546 S
O38 Mg31 2.079 . S
O38 C40 1.273 1_545 S
C39 O35 1.250 . S
C39 O36 1.259 . S
C40 O37 1.252 . S
C40 O38 1.273 1_565 S
O41 Mg28 2.033 . S
O41 C33 1.249 . S
Mg42 O43 2.017 1_654 S
Mg42 O49 1.986 1_655 S
Mg42 O51 2.114 . S
Mg42 O52 2.251 1_655 S
Mg42 O55 2.010 . S
O43 Mg42 2.017 1_456 S
O43 C46 1.253 . S
O44 Mg45 2.028 . S
O44 C46 1.248 1_554 S
Mg45 O44 2.028 . S
Mg45 O50 2.032 . S
Mg45 O52 2.079 . S
C46 O43 1.253 . S
C46 O44 1.248 1_556 S
C47 O48 1.264 . S
C47 O55 1.249 . S
O48 C47 1.264 . S
O49 Mg42 1.986 1_455 S
O49 C53 1.246 . S
O50 Mg45 2.032 . S
O50 C53 1.259 . S
O51 Mg42 2.114 . S
O51 C54 1.252 . S
O52 Mg42 2.251 1_455 S
O52 Mg45 2.079 . S
O52 C54 1.273 1_455 S
C53 O49 1.246 . S
C53 O50 1.259 . S
C54 O51 1.252 . S
C54 O52 1.273 1_655 S
O55 Mg42 2.010 . S
O55 C47 1.249 . S
Mg56 O57 2.028 1_556 S
Mg56 O63 1.986 . S
Mg56 O65 2.114 . S
Mg56 O66 2.251 . S
Mg56 O69 2.010 1_556 S
O57 Mg56 2.028 1_554 S
O57 C60 1.250 . S
O58 Mg59 2.028 1_554 S
O58 C60 1.248 . S
Mg59 O58 2.028 1_556 S
Mg59 O64 2.032 . S
Mg59 O66 2.079 . S
C60 O57 1.250 . S
C60 O58 1.248 . S
C61 O62 1.264 . S
C61 O69 1.249 . S
O62 C61 1.264 . S
O63 Mg56 1.986 . S
O63 C67 1.246 . S
O64 Mg59 2.032 . S
O64 C67 1.259 . S
O65 Mg56 2.114 . S
O65 C68 1.252 . S
O66 Mg56 2.251 . S
O66 Mg59 2.079 . S
O66 C68 1.273 . S
C67 O63 1.246 . S
C67 O64 1.259 . S
C68 O65 1.252 . S
C68 O66 1.273 . S
O69 Mg56 2.010 1_554 S
O69 C61 1.249 . S
Mg70 O71 2.028 . S
Mg70 O77 1.986 1_545 S
Mg70 O79 2.114 . S
Mg70 O80 2.251 . S
Mg70 O83 2.010 . S
O71 Mg70 2.028 . S
O71 C74 1.250 1_544 S
O72 Mg73 2.028 . S
O72 C74 1.248 1_554 S
Mg73 O72 2.028 . S
Mg73 O78 2.032 . S
Mg73 O80 2.079 1_565 S
C74 O71 1.250 1_566 S
C74 O72 1.248 1_556 S
C75 O76 1.264 . S
C75 O83 1.249 . S
O76 C75 1.264 . S
O77 Mg70 1.986 1_565 S
O77 C81 1.246 . S
O78 Mg73 2.032 . S
O78 C81 1.259 . S
O79 Mg70 2.114 . S
O79 C82 1.252 . S
O80 Mg70 2.251 . S
O80 Mg73 2.079 1_545 S
O80 C82 1.273 . S
C81 O77 1.246 . S
C81 O78 1.259 . S
C82 O79 1.252 . S
C82 O80 1.273 . S
O83 Mg70 2.010 . S
O83 C75 1.249 . S
Mg84 O85 2.028 . S
Mg84 O91 1.986 . S
Mg84 O93 2.114 . S
Mg84 O94 2.251 . S
Mg84 O97 2.010 . S
O85 Mg84 2.028 . S
O85 C88 1.250 . S
O86 Mg87 2.028 . S
O86 C88 1.248 . S
Mg87 O86 2.028 . S
Mg87 O92 2.032 . S
Mg87 O94 2.079 . S
C88 O85 1.250 . S
C88 O86 1.248 . S
C89 O90 1.264 . S
C89 O97 1.249 . S
O90 C89 1.264 . S
O91 Mg84 1.986 . S
O91 C95 1.246 . S
O92 Mg87 2.032 . S
O92 C95 1.259 . S
O93 Mg84 2.114 . S
O93 C96 1.252 . S
O94 Mg84 2.251 . S
O94 Mg87 2.079 . S
O94 C96 1.273 . S
C95 O91 1.246 . S
C95 O92 1.259 . S
C96 O93 1.252 . S
C96 O94 1.273 . S
O97 Mg84 2.010 . S
O97 C89 1.249 . S
Mg98 O99 2.028 . S
Mg98 O105 1.986 1_565 S
Mg98 O107 2.114 . S
Mg98 O108 2.251 . S
Mg98 O111 2.010 . S
O99 Mg98 2.028 . S
O99 C102 1.250 . S
O100 Mg101 2.028 . S
O100 C102 1.248 . S
Mg101 O100 2.028 . S
Mg101 O106 2.032 1_565 S
Mg101 O108 2.079 . S
C102 O99 1.250 . S
C102 O100 1.248 . S
C103 O104 1.264 . S
C103 O111 1.249 . S
O104 C103 1.264 . S
O105 Mg98 1.986 1_545 S
O105 C109 1.246 . S
O106 Mg101 2.032 1_545 S
O106 C109 1.259 . S
O107 Mg98 2.114 . S
O107 C110 1.252 . S
O108 Mg98 2.251 . S
O108 Mg101 2.079 . S
O108 C110 1.273 . S
C109 O105 1.246 . S
C109 O106 1.259 . S
C110 O107 1.252 . S
C110 O108 1.273 . S
O111 Mg98 2.010 . S
O111 C103 1.249 . S
Mg112 O113 2.028 . S
Mg112 O119 1.986 . S
Mg112 O121 2.114 . S
Mg112 O122 2.251 . S
Mg112 O125 2.010 1_455 S
O113 Mg112 2.028 . S
O113 C116 1.250 . S
O114 Mg115 2.028 . S
O114 C116 1.248 . S
Mg115 O114 2.028 . S
Mg115 O120 2.032 . S
Mg115 O122 2.079 . S
C116 O113 1.250 . S
C116 O114 1.248 . S
C117 O118 1.264 . S
C117 O125 1.249 . S
O118 C117 1.264 . S
O119 Mg112 1.986 . S
O119 C123 1.246 . S
O120 Mg115 2.032 . S
O120 C123 1.259 . S
O121 Mg112 2.114 . S
O121 C124 1.252 . S
O122 Mg112 2.251 . S
O122 Mg115 2.079 . S
O122 C124 1.273 . S
C123 O119 1.246 . S
C123 O120 1.259 . S
C124 O121 1.252 . S
C124 O122 1.273 . S
O125 Mg112 2.010 1_655 S
O125 C117 1.249 . S
Mg126 O127 2.028 . S
Mg126 O133 1.986 1_565 S
Mg126 O135 2.114 . S
Mg126 O136 2.251 . S
Mg126 O139 2.010 . S
O127 Mg126 2.028 . S
O127 C130 1.250 . S
O128 Mg129 2.028 . S
O128 C130 1.248 . S
Mg129 O128 2.028 . S
Mg129 O134 2.032 1_565 S
Mg129 O136 2.079 . S
C130 O127 1.250 . S
C130 O128 1.248 . S
C131 O132 1.264 . S
C131 O139 1.249 . S
O132 C131 1.264 . S
O133 Mg126 1.986 1_545 S
O133 C137 1.246 . S
O134 Mg129 2.032 1_545 S
O134 C137 1.259 . S
O135 Mg126 2.114 . S
O135 C138 1.252 . S
O136 Mg126 2.251 . S
O136 Mg129 2.079 . S
O136 C138 1.273 . S
C137 O133 1.246 . S
C137 O134 1.259 . S
C138 O135 1.252 . S
C138 O136 1.273 . S
O139 Mg126 2.010 . S
O139 C131 1.249 . S
Mg140 O141 2.028 . S
Mg140 O147 1.986 . S
Mg140 O149 2.114 . S
Mg140 O150 2.251 . S
Mg140 O153 2.010 1_455 S
O141 Mg140 2.028 . S
O141 C144 1.250 . S
O142 Mg143 2.028 . S
O142 C144 1.248 . S
Mg143 O142 2.028 . S
Mg143 O148 2.032 . S
Mg143 O150 2.079 . S
C144 O141 1.250 . S
C144 O142 1.248 . S
C145 O146 1.264 . S
C145 O153 1.249 . S
O146 C145 1.264 . S
O147 Mg140 1.986 . S
O147 C151 1.246 . S
O148 Mg143 2.032 . S
O148 C151 1.259 . S
O149 Mg140 2.114 . S
O149 C152 1.252 . S
O150 Mg140 2.251 . S
O150 Mg143 2.079 . S
O150 C152 1.273 . S
C151 O147 1.246 . S
C151 O148 1.259 . S
C152 O149 1.252 . S
C152 O150 1.273 . S
O153 Mg140 2.010 1_655 S
O153 C145 1.249 . S
Mg154 O155 2.028 . S
Mg154 O161 1.986 . S
Mg154 O163 2.114 . S
Mg154 O164 2.251 . S
Mg154 O167 2.010 . S
O155 Mg154 2.028 . S
O155 C158 1.250 . S
O156 Mg157 2.028 . S
O156 C158 1.248 . S
Mg157 O156 2.028 . S
Mg157 O162 2.032 . S
Mg157 O164 2.079 . S
C158 O155 1.250 . S
C158 O156 1.248 . S
C159 O160 1.264 . S
C159 O167 1.249 . S
O160 C159 1.264 . S
O161 Mg154 1.986 . S
O161 C165 1.246 . S
O162 Mg157 2.032 . S
O162 C165 1.259 . S
O163 Mg154 2.114 . S
O163 C166 1.252 . S
O164 Mg154 2.251 . S
O164 Mg157 2.079 . S
O164 C166 1.273 . S
C165 O161 1.246 . S
C165 O162 1.259 . S
C166 O163 1.252 . S
C166 O164 1.273 . S
O167 Mg154 2.010 . S
O167 C159 1.249 . S
Mg168 O169 2.028 . S
Mg168 O175 1.986 1_545 S
Mg168 O177 2.114 . S
Mg168 O178 2.251 . S
Mg168 O181 2.010 . S
O169 Mg168 2.028 . S
O169 C172 1.250 . S
O170 Mg171 2.028 . S
O170 C172 1.248 . S
Mg171 O170 2.028 . S
Mg171 O176 1.991 1_545 S
Mg171 O178 2.079 . S
C172 O169 1.250 . S
C172 O170 1.248 . S
C173 O174 1.264 . S
C173 O181 1.249 . S
O174 C173 1.264 . S
O175 Mg168 1.986 1_565 S
O175 C179 1.246 . S
O176 Mg171 1.991 1_565 S
O176 C179 1.297 . S
O177 Mg168 2.114 . S
O177 C180 1.252 . S
O178 Mg168 2.251 . S
O178 Mg171 2.079 . S
O178 C180 1.273 . S
C179 O175 1.246 . S
C179 O176 1.297 . S
C180 O177 1.252 . S
C180 O178 1.273 . S
O181 Mg168 2.010 . S
O181 C173 1.249 . S
Mg182 O183 2.028 . S
Mg182 O189 1.986 . S
Mg182 O191 2.114 . S
Mg182 O192 2.251 . S
Mg182 O195 2.010 1_655 S
O183 Mg182 2.028 . S
O183 C186 1.250 . S
O184 Mg185 2.028 . S
O184 C186 1.248 . S
Mg185 O184 2.028 . S
Mg185 O190 2.032 . S
Mg185 O192 2.079 . S
C186 O183 1.250 . S
C186 O184 1.248 . S
C187 O188 1.264 . S
C187 O195 1.249 . S
O188 C187 1.264 . S
O189 Mg182 1.986 . S
O189 C193 1.246 . S
O190 Mg185 2.032 . S
O190 C193 1.259 . S
O191 Mg182 2.114 . S
O191 C194 1.252 . S
O192 Mg182 2.251 . S
O192 Mg185 2.079 . S
O192 C194 1.273 . S
C193 O189 1.246 . S
C193 O190 1.259 . S
C194 O191 1.252 . S
C194 O192 1.273 . S
O195 Mg182 2.010 1_455 S
O195 C187 1.249 . S
Mg196 O197 2.028 . S
Mg196 O203 1.986 . S
Mg196 O205 2.114 . S
Mg196 O206 2.251 . S
Mg196 O209 2.010 . S
O197 Mg196 2.028 . S
O197 C200 1.250 . S
O198 Mg199 2.028 . S
O198 C200 1.248 . S
Mg199 O198 2.028 . S
Mg199 O204 2.032 . S
Mg199 O206 2.079 . S
C200 O197 1.250 . S
C200 O198 1.248 . S
C201 O202 1.264 . S
C201 O209 1.249 . S
O202 C201 1.264 . S
O203 Mg196 1.986 . S
O203 C207 1.246 . S
O204 Mg199 2.032 . S
O204 C207 1.259 . S
O205 Mg196 2.114 . S
O205 C208 1.252 . S
O206 Mg196 2.251 . S
O206 Mg199 2.079 . S
O206 C208 1.273 . S
C207 O203 1.246 . S
C207 O204 1.259 . S
C208 O205 1.252 . S
C208 O206 1.273 . S
O209 Mg196 2.010 . S
O209 C201 1.249 . S
Mg210 O211 2.028 . S
Mg210 O217 1.986 . S
Mg210 O219 2.114 . S
Mg210 O220 2.251 . S
Mg210 O223 2.010 . S
O211 Mg210 2.028 . S
O211 C214 1.250 . S
O212 Mg213 2.028 . S
O212 C214 1.248 . S
Mg213 O212 2.028 . S
Mg213 O218 2.032 . S
Mg213 O220 2.079 . S
C214 O211 1.250 . S
C214 O212 1.248 . S
C215 O216 1.264 . S
C215 O223 1.249 . S
O216 C215 1.264 . S
O217 Mg210 1.986 . S
O217 C221 1.246 . S
O218 Mg213 2.032 . S
O218 C221 1.259 . S
O219 Mg210 2.114 . S
O219 C222 1.252 . S
O220 Mg210 2.251 . S
O220 Mg213 2.079 . S
O220 C222 1.273 . S
C221 O217 1.246 . S
C221 O218 1.259 . S
C222 O219 1.252 . S
C222 O220 1.273 . S
O223 Mg210 2.010 . S
O223 C215 1.249 . S
Mg224 O225 2.028 . S
Mg224 O231 1.986 1_545 S
Mg224 O233 2.114 . S
Mg224 O234 2.251 . S
Mg224 O237 2.010 . S
O225 Mg224 2.028 . S
O225 C228 1.250 . S
O226 Mg227 2.028 . S
O226 C228 1.248 . S
Mg227 O226 2.028 . S
Mg227 O232 2.032 1_545 S
Mg227 O234 2.079 . S
C228 O225 1.250 . S
C228 O226 1.248 . S
C229 O230 1.264 . S
C229 O237 1.249 . S
O230 C229 1.264 . S
O231 Mg224 1.986 1_565 S
O231 C235 1.246 . S
O232 Mg227 2.032 1_565 S
O232 C235 1.259 . S
O233 Mg224 2.114 . S
O233 C236 1.252 . S
O234 Mg224 2.251 . S
O234 Mg227 2.079 . S
O234 C236 1.273 . S
C235 O231 1.246 . S
C235 O232 1.259 . S
C236 O233 1.252 . S
C236 O234 1.273 . S
O237 Mg224 2.010 . S
O237 C229 1.249 . S
Mg238 O239 2.028 . S
Mg238 O245 1.986 . S
Mg238 O247 2.114 . S
Mg238 O248 2.251 . S
Mg238 O251 2.010 1_655 S
O239 Mg238 2.028 . S
O239 C242 1.250 . S
O240 Mg241 2.028 . S
O240 C242 1.248 . S
Mg241 O240 2.028 . S
Mg241 O246 2.032 . S
Mg241 O248 2.079 . S
C242 O239 1.250 . S
C242 O240 1.248 . S
C243 O244 1.264 . S
C243 O251 1.249 . S
O244 C243 1.264 . S
O245 Mg238 1.986 . S
O245 C249 1.246 . S
O246 Mg241 2.032 . S
O246 C249 1.259 . S
O247 Mg238 2.114 . S
O247 C250 1.252 . S
O248 Mg238 2.251 . S
O248 Mg241 2.079 . S
O248 C250 1.273 . S
C249 O245 1.246 . S
C249 O246 1.259 . S
C250 O247 1.252 . S
C250 O248 1.273 . S
O251 Mg238 2.010 1_455 S
O251 C243 1.249 . S
C252 C253 1.560 . S
C252 H313 0.959 . S
C252 H314 0.959 . S
C252 H315 0.960 . S
C253 C252 1.560 . S
C253 O308 1.426 . S
C253 H312 0.980 . S
C254 C255 1.407 . S
C254 C259 1.418 . S
C254 O308 1.334 . S
C255 C254 1.407 . S
C255 C256 1.360 . S
C255 H316 0.929 . S
C256 C255 1.360 . S
C256 C257 1.401 . S
C256 C260 1.527 . S
C257 C256 1.401 . S
C257 C258 1.405 . S
C257 C290 1.587 . S
C258 C257 1.405 . S
C258 C259 1.332 . S
C258 C261 1.496 . S
C259 C254 1.418 . S
C259 C258 1.332 . S
C259 H317 0.929 . S
C260 C256 1.527 . S
C260 H318 0.959 . S
C260 H319 0.961 . S
C260 H320 0.961 . S
C261 C258 1.496 . S
C261 H321 0.960 . S
C261 H322 0.960 . S
C261 H323 0.961 . S
C262 C263 1.517 . S
C262 H325 0.961 . S
C262 H326 0.960 . S
C262 H327 0.959 . S
C263 C262 1.517 . S
C263 O311 1.468 . S
C263 H324 0.980 . S
C264 C265 1.349 . S
C264 C269 1.367 . S
C264 O311 1.408 . S
C265 C264 1.349 . S
C265 C266 1.407 . S
C265 H328 0.930 . S
C266 C265 1.407 . S
C266 C267 1.449 . S
C266 C270 1.535 . S
C267 C266 1.449 . S
C267 C268 1.384 . S
C267 C292 1.553 . S
C268 C267 1.384 . S
C268 C269 1.364 . S
C268 C271 1.450 . S
C269 C264 1.367 . S
C269 C268 1.364 . S
C269 H329 0.931 . S
C270 C266 1.535 . S
C270 H330 0.959 . S
C270 H331 0.961 . S
C270 H332 0.959 . S
C271 C268 1.450 . S
C271 H333 0.960 . S
C271 H334 0.960 . S
C271 H335 0.960 . S
C272 C273 1.309 . S
C272 C277 1.304 . S
C272 O310 1.435 . S
C273 C272 1.309 . S
C273 C274 1.476 . S
C273 H337 0.930 . S
C274 C273 1.476 . S
C274 C275 1.400 . S
C274 C278 1.567 . S
C275 C274 1.400 . S
C275 C276 1.373 . S
C275 C297 1.432 . S
C276 C275 1.373 . S
C276 C277 1.339 . S
C276 C279 1.530 . S
C277 C272 1.304 . S
C277 C276 1.339 . S
C277 H338 0.930 . S
C278 C274 1.567 . S
C278 H339 0.961 . S
C278 H340 0.960 . S
C278 H341 0.958 . S
C279 C276 1.530 . S
C279 H342 0.961 . S
C279 H343 0.960 . S
C279 H344 0.960 . S
C280 C281 1.530 . S
C280 H346 0.961 . S
C280 H347 0.961 . S
C280 H348 0.959 . S
C281 C280 1.530 . S
C281 O309 1.412 . S
C281 H345 0.980 . S
C282 C283 1.288 . S
C282 C287 1.377 . S
C282 O309 1.393 . S
C283 C282 1.288 . S
C283 C284 1.369 . S
C283 H349 0.932 . S
C284 C283 1.369 . S
C284 C285 1.398 . S
C284 C288 1.527 . S
C285 C284 1.398 . S
C285 C286 1.380 . S
C285 C299 1.497 . S
C286 C285 1.380 . S
C286 C287 1.383 . S
C286 C289 1.603 . S
C287 C282 1.377 . S
C287 C286 1.383 . S
C287 H350 0.929 . S
C288 C284 1.527 . S
C288 H351 0.961 . S
C288 H352 0.959 . S
C288 H353 0.959 . S
C289 C286 1.603 . S
C289 H354 0.960 . S
C289 H355 0.962 . S
C289 H356 0.961 . S
C290 C257 1.587 . S
C290 C291 1.360 . S
C290 C303 1.412 . S
C291 C290 1.360 . S
C291 C292 1.365 . S
C291 H357 0.929 . S
C292 C267 1.553 . S
C292 C291 1.365 . S
C292 C293 1.404 . S
C293 C292 1.404 . S
C293 C294 1.395 . S
C293 C304 1.451 . S
C294 C293 1.395 . S
C294 C295 1.322 . S
C294 H358 0.930 . S
C295 C294 1.322 . S
C295 C296 1.459 . S
C295 H359 0.929 . S
C296 C295 1.459 . S
C296 C297 1.445 . S
C296 C305 1.395 . S
C297 C275 1.432 . S
C297 C296 1.445 . S
C297 C298 1.370 . S
C298 C297 1.370 . S
C298 C299 1.438 . S
C298 H360 0.930 . S
C299 C285 1.497 . S
C299 C298 1.438 . S
C299 C300 1.360 . S
C300 C299 1.360 . S
C300 C301 1.401 . S
C300 C305 1.446 . S
C301 C300 1.401 . S
C301 C302 1.347 . S
C301 H361 0.929 . S
C302 C301 1.347 . S
C302 C303 1.455 . S
C302 H362 0.930 . S
C303 C290 1.412 . S
C303 C302 1.455 . S
C303 C304 1.331 . S
C304 C293 1.451 . S
C304 C303 1.331 . S
C304 C305 1.497 . S
C305 C296 1.395 . S
C305 C300 1.446 . S
C305 C304 1.497 . S
C306 C307 1.582 . S
C306 H363 0.962 . S
C306 H364 0.959 . S
C306 H365 0.958 . S
C307 C306 1.582 . S
C307 O310 1.458 . S
C307 H336 0.980 . S
O308 C253 1.426 . S
O308 C254 1.334 . S
O309 C281 1.412 . S
O309 C282 1.393 . S
O310 C272 1.435 . S
O310 C307 1.458 . S
O311 C263 1.468 . S
O311 C264 1.408 . S
H312 C253 0.980 . S
H313 C252 0.959 . S
H314 C252 0.959 . S
H315 C252 0.960 . S
H316 C255 0.929 . S
H317 C259 0.929 . S
H318 C260 0.959 . S
H319 C260 0.961 . S
H320 C260 0.961 . S
H321 C261 0.960 . S
H322 C261 0.960 . S
H323 C261 0.961 . S
H324 C263 0.980 . S
H325 C262 0.961 . S
H326 C262 0.960 . S
H327 C262 0.959 . S
H328 C265 0.930 . S
H329 C269 0.931 . S
H330 C270 0.959 . S
H331 C270 0.961 . S
H332 C270 0.959 . S
H333 C271 0.960 . S
H334 C271 0.960 . S
H335 C271 0.960 . S
H336 C307 0.980 . S
H337 C273 0.930 . S
H338 C277 0.930 . S
H339 C278 0.961 . S
H340 C278 0.960 . S
H341 C278 0.958 . S
H342 C279 0.961 . S
H343 C279 0.960 . S
H344 C279 0.960 . S
H345 C281 0.980 . S
H346 C280 0.961 . S
H347 C280 0.961 . S
H348 C280 0.959 . S
H349 C283 0.932 . S
H350 C287 0.929 . S
H351 C288 0.961 . S
H352 C288 0.959 . S
H353 C288 0.959 . S
H354 C289 0.960 . S
H355 C289 0.962 . S
H356 C289 0.961 . S
H357 C291 0.929 . S
H358 C294 0.930 . S
H359 C295 0.929 . S
H360 C298 0.930 . S
H361 C301 0.929 . S
H362 C302 0.930 . S
H363 C306 0.962 . S
H364 C306 0.959 . S
H365 C306 0.958 . S
C366 C367 1.560 . S
C366 H427 0.959 . S
C366 H428 0.959 . S
C366 H429 0.960 . S
C367 C366 1.560 . S
C367 O422 1.426 . S
C367 H426 0.980 . S
C368 C369 1.407 . S
C368 C373 1.418 . S
C368 O422 1.334 . S
C369 C368 1.407 . S
C369 C370 1.360 . S
C369 H430 0.929 . S
C370 C369 1.360 . S
C370 C371 1.401 . S
C370 C374 1.527 . S
C371 C370 1.401 . S
C371 C372 1.405 . S
C371 C404 1.587 . S
C372 C371 1.405 . S
C372 C373 1.332 . S
C372 C375 1.496 . S
C373 C368 1.418 . S
C373 C372 1.332 . S
C373 H431 0.929 . S
C374 C370 1.527 . S
C374 H432 0.959 . S
C374 H433 0.961 . S
C374 H434 0.961 . S
C375 C372 1.496 . S
C375 H435 0.960 . S
C375 H436 0.960 . S
C375 H437 0.961 . S
C376 C377 1.517 . S
C376 H439 0.961 . S
C376 H440 0.960 . S
C376 H441 0.959 . S
C377 C376 1.517 . S
C377 O425 1.468 . S
C377 H438 0.980 . S
C378 C379 1.349 . S
C378 C383 1.367 . S
C378 O425 1.408 . S
C379 C378 1.349 . S
C379 C380 1.407 . S
C379 H442 0.930 . S
C380 C379 1.407 . S
C380 C381 1.449 . S
C380 C384 1.535 . S
C381 C380 1.449 . S
C381 C382 1.384 . S
C381 C406 1.553 . S
C382 C381 1.384 . S
C382 C383 1.364 . S
C382 C385 1.450 . S
C383 C378 1.367 . S
C383 C382 1.364 . S
C383 H443 0.931 . S
C384 C380 1.535 . S
C384 H444 0.959 . S
C384 H445 0.961 . S
C384 H446 0.959 . S
C385 C382 1.450 . S
C385 H447 0.960 . S
C385 H448 0.960 . S
C385 H449 0.960 . S
C386 C387 1.309 . S
C386 C391 1.304 . S
C386 O424 1.435 . S
C387 C386 1.309 . S
C387 C388 1.476 . S
C387 H451 0.930 . S
C388 C387 1.476 . S
C388 C389 1.400 . S
C388 C392 1.567 . S
C389 C388 1.400 . S
C389 C390 1.373 . S
C389 C411 1.432 . S
C390 C389 1.373 . S
C390 C391 1.339 . S
C390 C393 1.530 . S
C391 C386 1.304 . S
C391 C390 1.339 . S
C391 H452 0.930 . S
C392 C388 1.567 . S
C392 H453 0.961 . S
C392 H454 0.960 . S
C392 H455 0.958 . S
C393 C390 1.530 . S
C393 H456 0.961 . S
C393 H457 0.960 . S
C393 H458 0.960 . S
C394 C395 1.530 . S
C394 H460 0.961 . S
C394 H461 0.961 . S
C394 H462 0.959 . S
C395 C394 1.530 . S
C395 O423 1.412 . S
C395 H459 0.980 . S
C396 C397 1.288 . S
C396 C401 1.377 . S
C396 O423 1.393 . S
C397 C396 1.288 . S
C397 C398 1.369 . S
C397 H463 0.932 . S
C398 C397 1.369 . S
C398 C399 1.398 . S
C398 C402 1.527 . S
C399 C398 1.398 . S
C399 C400 1.380 . S
C399 C413 1.497 . S
C400 C399 1.380 . S
C400 C401 1.383 . S
C400 C403 1.603 . S
C401 C396 1.377 . S
C401 C400 1.383 . S
C401 H464 0.929 . S
C402 C398 1.527 . S
C402 H465 0.961 . S
C402 H466 0.959 . S
C402 H467 0.959 . S
C403 C400 1.603 . S
C403 H468 0.960 . S
C403 H469 0.962 . S
C403 H470 0.961 . S
C404 C371 1.587 . S
C404 C405 1.360 . S
C404 C417 1.412 . S
C405 C404 1.360 . S
C405 C406 1.365 . S
C405 H471 0.929 . S
C406 C381 1.553 . S
C406 C405 1.365 . S
C406 C407 1.404 . S
C407 C406 1.404 . S
C407 C408 1.395 . S
C407 C418 1.451 . S
C408 C407 1.395 . S
C408 C409 1.322 . S
C408 H472 0.930 . S
C409 C408 1.322 . S
C409 C410 1.459 . S
C409 H473 0.929 . S
C410 C409 1.459 . S
C410 C411 1.445 . S
C410 C419 1.395 . S
C411 C389 1.432 . S
C411 C410 1.445 . S
C411 C412 1.370 . S
C412 C411 1.370 . S
C412 C413 1.438 . S
C412 H474 0.930 . S
C413 C399 1.497 . S
C413 C412 1.438 . S
C413 C414 1.360 . S
C414 C413 1.360 . S
C414 C415 1.401 . S
C414 C419 1.446 . S
C415 C414 1.401 . S
C415 C416 1.347 . S
C415 H475 0.929 . S
C416 C415 1.347 . S
C416 C417 1.455 . S
C416 H476 0.930 . S
C417 C404 1.412 . S
C417 C416 1.455 . S
C417 C418 1.331 . S
C418 C407 1.451 . S
C418 C417 1.331 . S
C418 C419 1.497 . S
C419 C410 1.395 . S
C419 C414 1.446 . S
C419 C418 1.497 . S
C420 C421 1.582 . S
C420 H477 0.962 . S
C420 H478 0.959 . S
C420 H479 0.958 . S
C421 C420 1.582 . S
C421 O424 1.458 . S
C421 H450 0.980 . S
O422 C367 1.426 . S
O422 C368 1.334 . S
O423 C395 1.412 . S
O423 C396 1.393 . S
O424 C386 1.435 . S
O424 C421 1.458 . S
O425 C377 1.468 . S
O425 C378 1.408 . S
H426 C367 0.980 . S
H427 C366 0.959 . S
H428 C366 0.959 . S
H429 C366 0.960 . S
H430 C369 0.929 . S
H431 C373 0.929 . S
H432 C374 0.959 . S
H433 C374 0.961 . S
H434 C374 0.961 . S
H435 C375 0.960 . S
H436 C375 0.960 . S
H437 C375 0.961 . S
H438 C377 0.980 . S
H439 C376 0.961 . S
H440 C376 0.960 . S
H441 C376 0.959 . S
H442 C379 0.930 . S
H443 C383 0.931 . S
H444 C384 0.959 . S
H445 C384 0.961 . S
H446 C384 0.959 . S
H447 C385 0.960 . S
H448 C385 0.960 . S
H449 C385 0.960 . S
H450 C421 0.980 . S
H451 C387 0.930 . S
H452 C391 0.930 . S
H453 C392 0.961 . S
H454 C392 0.960 . S
H455 C392 0.958 . S
H456 C393 0.961 . S
H457 C393 0.960 . S
H458 C393 0.960 . S
H459 C395 0.980 . S
H460 C394 0.961 . S
H461 C394 0.961 . S
H462 C394 0.959 . S
H463 C397 0.932 . S
H464 C401 0.929 . S
H465 C402 0.961 . S
H466 C402 0.959 . S
H467 C402 0.959 . S
H468 C403 0.960 . S
H469 C403 0.962 . S
H470 C403 0.961 . S
H471 C405 0.929 . S
H472 C408 0.930 . S
H473 C409 0.929 . S
H474 C412 0.930 . S
H475 C415 0.929 . S
H476 C416 0.930 . S
H477 C420 0.962 . S
H478 C420 0.959 . S
H479 C420 0.958 . S
C480 C481 1.560 . S
C480 H541 0.959 . S
C480 H542 0.959 . S
C480 H543 0.960 . S
C481 C480 1.560 . S
C481 O536 1.426 . S
C481 H540 0.980 . S
C482 C483 1.407 . S
C482 C487 1.418 . S
C482 O536 1.334 . S
C483 C482 1.407 . S
C483 C484 1.360 . S
C483 H544 0.929 . S
C484 C483 1.360 . S
C484 C485 1.401 . S
C484 C488 1.527 . S
C485 C484 1.401 . S
C485 C486 1.405 . S
C485 C518 1.587 . S
C486 C485 1.405 . S
C486 C487 1.332 . S
C486 C489 1.496 . S
C487 C482 1.418 . S
C487 C486 1.332 . S
C487 H545 0.929 . S
C488 C484 1.527 . S
C488 H546 0.959 . S
C488 H547 0.961 . S
C488 H548 0.961 . S
C489 C486 1.496 . S
C489 H549 0.960 . S
C489 H550 0.960 . S
C489 H551 0.961 . S
C490 C491 1.517 . S
C490 H553 0.961 . S
C490 H554 0.960 . S
C490 H555 0.959 . S
C491 C490 1.517 . S
C491 O539 1.468 . S
C491 H552 0.980 . S
C492 C493 1.349 . S
C492 C497 1.367 . S
C492 O539 1.408 . S
C493 C492 1.349 . S
C493 C494 1.407 . S
C493 H556 0.930 . S
C494 C493 1.407 . S
C494 C495 1.449 . S
C494 C498 1.535 . S
C495 C494 1.449 . S
C495 C496 1.384 . S
C495 C520 1.553 . S
C496 C495 1.384 . S
C496 C497 1.364 . S
C496 C499 1.450 . S
C497 C492 1.367 . S
C497 C496 1.364 . S
C497 H557 0.931 . S
C498 C494 1.535 . S
C498 H558 0.959 . S
C498 H559 0.961 . S
C498 H560 0.959 . S
C499 C496 1.450 . S
C499 H561 0.960 . S
C499 H562 0.960 . S
C499 H563 0.960 . S
C500 C501 1.309 . S
C500 C505 1.304 . S
C500 O538 1.435 . S
C501 C500 1.309 . S
C501 C502 1.476 . S
C501 H565 0.930 . S
C502 C501 1.476 . S
C502 C503 1.400 . S
C502 C506 1.567 . S
C503 C502 1.400 . S
C503 C504 1.373 . S
C503 C525 1.432 . S
C504 C503 1.373 . S
C504 C505 1.339 . S
C504 C507 1.530 . S
C505 C500 1.304 . S
C505 C504 1.339 . S
C505 H566 0.930 . S
C506 C502 1.567 . S
C506 H567 0.961 . S
C506 H568 0.960 . S
C506 H569 0.958 . S
C507 C504 1.530 . S
C507 H570 0.961 . S
C507 H571 0.960 . S
C507 H572 0.960 . S
C508 C509 1.530 . S
C508 H574 0.961 . S
C508 H575 0.961 . S
C508 H576 0.959 . S
C509 C508 1.530 . S
C509 O537 1.412 . S
C509 H573 0.980 . S
C510 C511 1.288 . S
C510 C515 1.377 . S
C510 O537 1.393 . S
C511 C510 1.288 . S
C511 C512 1.369 . S
C511 H577 0.932 . S
C512 C511 1.369 . S
C512 C513 1.398 . S
C512 C516 1.527 . S
C513 C512 1.398 . S
C513 C514 1.380 . S
C513 C527 1.497 . S
C514 C513 1.380 . S
C514 C515 1.383 . S
C514 C517 1.603 . S
C515 C510 1.377 . S
C515 C514 1.383 . S
C515 H578 0.929 . S
C516 C512 1.527 . S
C516 H579 0.961 . S
C516 H580 0.959 . S
C516 H581 0.959 . S
C517 C514 1.603 . S
C517 H582 0.960 . S
C517 H583 0.962 . S
C517 H584 0.961 . S
C518 C485 1.587 . S
C518 C519 1.360 . S
C518 C531 1.412 . S
C519 C518 1.360 . S
C519 C520 1.365 . S
C519 H585 0.929 . S
C520 C495 1.553 . S
C520 C519 1.365 . S
C520 C521 1.404 . S
C521 C520 1.404 . S
C521 C522 1.395 . S
C521 C532 1.451 . S
C522 C521 1.395 . S
C522 C523 1.322 . S
C522 H586 0.930 . S
C523 C522 1.322 . S
C523 C524 1.459 . S
C523 H587 0.929 . S
C524 C523 1.459 . S
C524 C525 1.445 . S
C524 C533 1.395 . S
C525 C503 1.432 . S
C525 C524 1.445 . S
C525 C526 1.370 . S
C526 C525 1.370 . S
C526 C527 1.438 . S
C526 H588 0.930 . S
C527 C513 1.497 . S
C527 C526 1.438 . S
C527 C528 1.360 . S
C528 C527 1.360 . S
C528 C529 1.401 . S
C528 C533 1.446 . S
C529 C528 1.401 . S
C529 C530 1.347 . S
C529 H589 0.929 . S
C530 C529 1.347 . S
C530 C531 1.455 . S
C530 H590 0.930 . S
C531 C518 1.412 . S
C531 C530 1.455 . S
C531 C532 1.331 . S
C532 C521 1.451 . S
C532 C531 1.331 . S
C532 C533 1.497 . S
C533 C524 1.395 . S
C533 C528 1.446 . S
C533 C532 1.497 . S
C534 C535 1.582 . S
C534 H591 0.962 . S
C534 H592 0.959 . S
C534 H593 0.958 . S
C535 C534 1.582 . S
C535 O538 1.458 . S
C535 H564 0.980 . S
O536 C481 1.426 . S
O536 C482 1.334 . S
O537 C509 1.412 . S
O537 C510 1.393 . S
O538 C500 1.435 . S
O538 C535 1.458 . S
O539 C491 1.468 . S
O539 C492 1.408 . S
H540 C481 0.980 . S
H541 C480 0.959 . S
H542 C480 0.959 . S
H543 C480 0.960 . S
H544 C483 0.929 . S
H545 C487 0.929 . S
H546 C488 0.959 . S
H547 C488 0.961 . S
H548 C488 0.961 . S
H549 C489 0.960 . S
H550 C489 0.960 . S
H551 C489 0.961 . S
H552 C491 0.980 . S
H553 C490 0.961 . S
H554 C490 0.960 . S
H555 C490 0.959 . S
H556 C493 0.930 . S
H557 C497 0.931 . S
H558 C498 0.959 . S
H559 C498 0.961 . S
H560 C498 0.959 . S
H561 C499 0.960 . S
H562 C499 0.960 . S
H563 C499 0.960 . S
H564 C535 0.980 . S
H565 C501 0.930 . S
H566 C505 0.930 . S
H567 C506 0.961 . S
H568 C506 0.960 . S
H569 C506 0.958 . S
H570 C507 0.961 . S
H571 C507 0.960 . S
H572 C507 0.960 . S
H573 C509 0.980 . S
H574 C508 0.961 . S
H575 C508 0.961 . S
H576 C508 0.959 . S
H577 C511 0.932 . S
H578 C515 0.929 . S
H579 C516 0.961 . S
H580 C516 0.959 . S
H581 C516 0.959 . S
H582 C517 0.960 . S
H583 C517 0.962 . S
H584 C517 0.961 . S
H585 C519 0.929 . S
H586 C522 0.930 . S
H587 C523 0.929 . S
H588 C526 0.930 . S
H589 C529 0.929 . S
H590 C530 0.930 . S
H591 C534 0.962 . S
H592 C534 0.959 . S
H593 C534 0.958 . S
C594 C595 1.560 . S
C594 H655 0.959 . S
C594 H656 0.959 . S
C594 H657 0.960 . S
C595 C594 1.560 . S
C595 O650 1.426 . S
C595 H654 0.980 . S
C596 C597 1.407 . S
C596 C601 1.418 . S
C596 O650 1.334 . S
C597 C596 1.407 . S
C597 C598 1.360 . S
C597 H658 0.929 . S
C598 C597 1.360 . S
C598 C599 1.401 . S
C598 C602 1.527 . S
C599 C598 1.401 . S
C599 C600 1.405 . S
C599 C632 1.587 . S
C600 C599 1.405 . S
C600 C601 1.332 . S
C600 C603 1.496 . S
C601 C596 1.418 . S
C601 C600 1.332 . S
C601 H659 0.929 . S
C602 C598 1.527 . S
C602 H660 0.959 . S
C602 H661 0.961 . S
C602 H662 0.961 . S
C603 C600 1.496 . S
C603 H663 0.960 . S
C603 H664 0.960 . S
C603 H665 0.961 . S
C604 C605 1.517 . S
C604 H667 0.961 . S
C604 H668 0.960 . S
C604 H669 0.959 . S
C605 C604 1.517 . S
C605 O653 1.468 . S
C605 H666 0.980 . S
C606 C607 1.349 . S
C606 C611 1.367 . S
C606 O653 1.408 . S
C607 C606 1.349 . S
C607 C608 1.407 . S
C607 H670 0.930 . S
C608 C607 1.407 . S
C608 C609 1.449 . S
C608 C612 1.535 . S
C609 C608 1.449 . S
C609 C610 1.384 . S
C609 C634 1.553 . S
C610 C609 1.384 . S
C610 C611 1.364 . S
C610 C613 1.450 . S
C611 C606 1.367 . S
C611 C610 1.364 . S
C611 H671 0.931 . S
C612 C608 1.535 . S
C612 H672 0.959 . S
C612 H673 0.961 . S
C612 H674 0.959 . S
C613 C610 1.450 . S
C613 H675 0.960 . S
C613 H676 0.960 . S
C613 H677 0.960 . S
C614 C615 1.309 . S
C614 C619 1.304 . S
C614 O652 1.435 . S
C615 C614 1.309 . S
C615 C616 1.476 . S
C615 H679 0.930 . S
C616 C615 1.476 . S
C616 C617 1.400 . S
C616 C620 1.567 . S
C617 C616 1.400 . S
C617 C618 1.373 . S
C617 C639 1.432 . S
C618 C617 1.373 . S
C618 C619 1.339 . S
C618 C621 1.530 . S
C619 C614 1.304 . S
C619 C618 1.339 . S
C619 H680 0.930 . S
C620 C616 1.567 . S
C620 H681 0.961 . S
C620 H682 0.960 . S
C620 H683 0.958 . S
C621 C618 1.530 . S
C621 H684 0.961 . S
C621 H685 0.960 . S
C621 H686 0.960 . S
C622 C623 1.530 . S
C622 H688 0.961 . S
C622 H689 0.961 . S
C622 H690 0.959 . S
C623 C622 1.530 . S
C623 O651 1.412 . S
C623 H687 0.980 . S
C624 C625 1.288 . S
C624 C629 1.377 . S
C624 O651 1.393 . S
C625 C624 1.288 . S
C625 C626 1.369 . S
C625 H691 0.932 . S
C626 C625 1.369 . S
C626 C627 1.398 . S
C626 C630 1.527 . S
C627 C626 1.398 . S
C627 C628 1.380 . S
C627 C641 1.497 . S
C628 C627 1.380 . S
C628 C629 1.383 . S
C628 C631 1.603 . S
C629 C624 1.377 . S
C629 C628 1.383 . S
C629 H692 0.929 . S
C630 C626 1.527 . S
C630 H693 0.961 . S
C630 H694 0.959 . S
C630 H695 0.959 . S
C631 C628 1.603 . S
C631 H696 0.960 . S
C631 H697 0.962 . S
C631 H698 0.961 . S
C632 C599 1.587 . S
C632 C633 1.360 . S
C632 C645 1.412 . S
C633 C632 1.360 . S
C633 C634 1.365 . S
C633 H699 0.929 . S
C634 C609 1.553 . S
C634 C633 1.365 . S
C634 C635 1.404 . S
C635 C634 1.404 . S
C635 C636 1.395 . S
C635 C646 1.451 . S
C636 C635 1.395 . S
C636 C637 1.322 . S
C636 H700 0.930 . S
C637 C636 1.322 . S
C637 C638 1.459 . S
C637 H701 0.929 . S
C638 C637 1.459 . S
C638 C639 1.445 . S
C638 C647 1.395 . S
C639 C617 1.432 . S
C639 C638 1.445 . S
C639 C640 1.370 . S
C640 C639 1.370 . S
C640 C641 1.438 . S
C640 H702 0.930 . S
C641 C627 1.497 . S
C641 C640 1.438 . S
C641 C642 1.360 . S
C642 C641 1.360 . S
C642 C643 1.401 . S
C642 C647 1.446 . S
C643 C642 1.401 . S
C643 C644 1.347 . S
C643 H703 0.929 . S
C644 C643 1.347 . S
C644 C645 1.455 . S
C644 H704 0.930 . S
C645 C632 1.412 . S
C645 C644 1.455 . S
C645 C646 1.331 . S
C646 C635 1.451 . S
C646 C645 1.331 . S
C646 C647 1.497 . S
C647 C638 1.395 . S
C647 C642 1.446 . S
C647 C646 1.497 . S
C648 C649 1.582 . S
C648 H705 0.962 . S
C648 H706 0.959 . S
C648 H707 0.958 . S
C649 C648 1.582 . S
C649 O652 1.458 . S
C649 H678 0.980 . S
O650 C595 1.426 . S
O650 C596 1.334 . S
O651 C623 1.412 . S
O651 C624 1.393 . S
O652 C614 1.435 . S
O652 C649 1.458 . S
O653 C605 1.468 . S
O653 C606 1.408 . S
H654 C595 0.980 . S
H655 C594 0.959 . S
H656 C594 0.959 . S
H657 C594 0.960 . S
H658 C597 0.929 . S
H659 C601 0.929 . S
H660 C602 0.959 . S
H661 C602 0.961 . S
H662 C602 0.961 . S
H663 C603 0.960 . S
H664 C603 0.960 . S
H665 C603 0.961 . S
H666 C605 0.980 . S
H667 C604 0.961 . S
H668 C604 0.960 . S
H669 C604 0.959 . S
H670 C607 0.930 . S
H671 C611 0.931 . S
H672 C612 0.959 . S
H673 C612 0.961 . S
H674 C612 0.959 . S
H675 C613 0.960 . S
H676 C613 0.960 . S
H677 C613 0.960 . S
H678 C649 0.980 . S
H679 C615 0.930 . S
H680 C619 0.930 . S
H681 C620 0.961 . S
H682 C620 0.960 . S
H683 C620 0.958 . S
H684 C621 0.961 . S
H685 C621 0.960 . S
H686 C621 0.960 . S
H687 C623 0.980 . S
H688 C622 0.961 . S
H689 C622 0.961 . S
H690 C622 0.959 . S
H691 C625 0.932 . S
H692 C629 0.929 . S
H693 C630 0.961 . S
H694 C630 0.959 . S
H695 C630 0.959 . S
H696 C631 0.960 . S
H697 C631 0.962 . S
H698 C631 0.961 . S
H699 C633 0.929 . S
H700 C636 0.930 . S
H701 C637 0.929 . S
H702 C640 0.930 . S
H703 C643 0.929 . S
H704 C644 0.930 . S
H705 C648 0.962 . S
H706 C648 0.959 . S
H707 C648 0.958 . S
C708 C709 1.560 . S
C708 H769 0.959 . S
C708 H770 0.959 . S
C708 H771 0.960 . S
C709 C708 1.560 . S
C709 O764 1.426 . S
C709 H768 0.980 . S
C710 C711 1.407 . S
C710 C715 1.418 . S
C710 O764 1.334 . S
C711 C710 1.407 . S
C711 C712 1.360 . S
C711 H772 0.929 . S
C712 C711 1.360 . S
C712 C713 1.401 . S
C712 C716 1.527 . S
C713 C712 1.401 . S
C713 C714 1.405 . S
C713 C746 1.587 . S
C714 C713 1.405 . S
C714 C715 1.332 . S
C714 C717 1.496 . S
C715 C710 1.418 . S
C715 C714 1.332 . S
C715 H773 0.929 . S
C716 C712 1.527 . S
C716 H774 0.959 . S
C716 H775 0.961 . S
C716 H776 0.961 . S
C717 C714 1.496 . S
C717 H777 0.960 . S
C717 H778 0.960 . S
C717 H779 0.961 . S
C718 C719 1.517 . S
C718 H781 0.961 . S
C718 H782 0.960 . S
C718 H783 0.959 . S
C719 C718 1.517 . S
C719 O767 1.468 . S
C719 H780 0.980 . S
C720 C721 1.349 . S
C720 C725 1.367 . S
C720 O767 1.408 . S
C721 C720 1.349 . S
C721 C722 1.407 . S
C721 H784 0.930 . S
C722 C721 1.407 . S
C722 C723 1.449 . S
C722 C726 1.535 . S
C723 C722 1.449 . S
C723 C724 1.384 . S
C723 C748 1.553 . S
C724 C723 1.384 . S
C724 C725 1.364 . S
C724 C727 1.450 . S
C725 C720 1.367 . S
C725 C724 1.364 . S
C725 H785 0.931 . S
C726 C722 1.535 . S
C726 H786 0.959 . S
C726 H787 0.961 . S
C726 H788 0.959 . S
C727 C724 1.450 . S
C727 H789 0.960 . S
C727 H790 0.960 . S
C727 H791 0.960 . S
C728 C729 1.309 . S
C728 C733 1.304 . S
C728 O766 1.435 . S
C729 C728 1.309 . S
C729 C730 1.476 . S
C729 H793 0.930 . S
C730 C729 1.476 . S
C730 C731 1.400 . S
C730 C734 1.567 . S
C731 C730 1.400 . S
C731 C732 1.373 . S
C731 C753 1.432 . S
C732 C731 1.373 . S
C732 C733 1.339 . S
C732 C735 1.530 . S
C733 C728 1.304 . S
C733 C732 1.339 . S
C733 H794 0.930 . S
C734 C730 1.567 . S
C734 H795 0.961 . S
C734 H796 0.960 . S
C734 H797 0.958 . S
C735 C732 1.530 . S
C735 H798 0.961 . S
C735 H799 0.960 . S
C735 H800 0.960 . S
C736 C737 1.530 . S
C736 H802 0.961 . S
C736 H803 0.961 . S
C736 H804 0.959 . S
C737 C736 1.530 . S
C737 O765 1.412 . S
C737 H801 0.980 . S
C738 C739 1.288 . S
C738 C743 1.377 . S
C738 O765 1.393 . S
C739 C738 1.288 . S
C739 C740 1.369 . S
C739 H805 0.932 . S
C740 C739 1.369 . S
C740 C741 1.398 . S
C740 C744 1.527 . S
C741 C740 1.398 . S
C741 C742 1.380 . S
C741 C755 1.497 . S
C742 C741 1.380 . S
C742 C743 1.383 . S
C742 C745 1.603 . S
C743 C738 1.377 . S
C743 C742 1.383 . S
C743 H806 0.929 . S
C744 C740 1.527 . S
C744 H807 0.961 . S
C744 H808 0.959 . S
C744 H809 0.959 . S
C745 C742 1.603 . S
C745 H810 0.960 . S
C745 H811 0.962 . S
C745 H812 0.961 . S
C746 C713 1.587 . S
C746 C747 1.360 . S
C746 C759 1.412 . S
C747 C746 1.360 . S
C747 C748 1.365 . S
C747 H813 0.929 . S
C748 C723 1.553 . S
C748 C747 1.365 . S
C748 C749 1.404 . S
C749 C748 1.404 . S
C749 C750 1.395 . S
C749 C760 1.451 . S
C750 C749 1.395 . S
C750 C751 1.322 . S
C750 H814 0.930 . S
C751 C750 1.322 . S
C751 C752 1.459 . S
C751 H815 0.929 . S
C752 C751 1.459 . S
C752 C753 1.445 . S
C752 C761 1.395 . S
C753 C731 1.432 . S
C753 C752 1.445 . S
C753 C754 1.370 . S
C754 C753 1.370 . S
C754 C755 1.438 . S
C754 H816 0.930 . S
C755 C741 1.497 . S
C755 C754 1.438 . S
C755 C756 1.360 . S
C756 C755 1.360 . S
C756 C757 1.401 . S
C756 C761 1.446 . S
C757 C756 1.401 . S
C757 C758 1.347 . S
C757 H817 0.929 . S
C758 C757 1.347 . S
C758 C759 1.455 . S
C758 H818 0.930 . S
C759 C746 1.412 . S
C759 C758 1.455 . S
C759 C760 1.331 . S
C760 C749 1.451 . S
C760 C759 1.331 . S
C760 C761 1.497 . S
C761 C752 1.395 . S
C761 C756 1.446 . S
C761 C760 1.497 . S
C762 C763 1.582 . S
C762 H819 0.962 . S
C762 H820 0.959 . S
C762 H821 0.958 . S
C763 C762 1.582 . S
C763 O766 1.458 . S
C763 H792 0.980 . S
O764 C709 1.426 . S
O764 C710 1.334 . S
O765 C737 1.412 . S
O765 C738 1.393 . S
O766 C728 1.435 . S
O766 C763 1.458 . S
O767 C719 1.468 . S
O767 C720 1.408 . S
H768 C709 0.980 . S
H769 C708 0.959 . S
H770 C708 0.959 . S
H771 C708 0.960 . S
H772 C711 0.929 . S
H773 C715 0.929 . S
H774 C716 0.959 . S
H775 C716 0.961 . S
H776 C716 0.961 . S
H777 C717 0.960 . S
H778 C717 0.960 . S
H779 C717 0.961 . S
H780 C719 0.980 . S
H781 C718 0.961 . S
H782 C718 0.960 . S
H783 C718 0.959 . S
H784 C721 0.930 . S
H785 C725 0.931 . S
H786 C726 0.959 . S
H787 C726 0.961 . S
H788 C726 0.959 . S
H789 C727 0.960 . S
H790 C727 0.960 . S
H791 C727 0.960 . S
H792 C763 0.980 . S
H793 C729 0.930 . S
H794 C733 0.930 . S
H795 C734 0.961 . S
H796 C734 0.960 . S
H797 C734 0.958 . S
H798 C735 0.961 . S
H799 C735 0.960 . S
H800 C735 0.960 . S
H801 C737 0.980 . S
H802 C736 0.961 . S
H803 C736 0.961 . S
H804 C736 0.959 . S
H805 C739 0.932 . S
H806 C743 0.929 . S
H807 C744 0.961 . S
H808 C744 0.959 . S
H809 C744 0.959 . S
H810 C745 0.960 . S
H811 C745 0.962 . S
H812 C745 0.961 . S
H813 C747 0.929 . S
H814 C750 0.930 . S
H815 C751 0.929 . S
H816 C754 0.930 . S
H817 C757 0.929 . S
H818 C758 0.930 . S
H819 C762 0.962 . S
H820 C762 0.959 . S
H821 C762 0.958 . S
C822 C823 1.560 . S
C822 H883 0.959 . S
C822 H884 0.959 . S
C822 H885 0.960 . S
C823 C822 1.560 . S
C823 O878 1.426 . S
C823 H882 0.980 . S
C824 C825 1.407 . S
C824 C829 1.418 . S
C824 O878 1.334 . S
C825 C824 1.407 . S
C825 C826 1.360 . S
C825 H886 0.929 . S
C826 C825 1.360 . S
C826 C827 1.401 . S
C826 C830 1.527 . S
C827 C826 1.401 . S
C827 C828 1.405 . S
C827 C860 1.587 . S
C828 C827 1.405 . S
C828 C829 1.332 . S
C828 C831 1.496 . S
C829 C824 1.418 . S
C829 C828 1.332 . S
C829 H887 0.929 . S
C830 C826 1.527 . S
C830 H888 0.959 . S
C830 H889 0.961 . S
C830 H890 0.961 . S
C831 C828 1.496 . S
C831 H891 0.960 . S
C831 H892 0.960 . S
C831 H893 0.961 . S
C832 C833 1.517 . S
C832 H895 0.961 . S
C832 H896 0.960 . S
C832 H897 0.959 . S
C833 C832 1.517 . S
C833 O881 1.468 . S
C833 H894 0.980 . S
C834 C835 1.349 . S
C834 C839 1.367 . S
C834 O881 1.408 . S
C835 C834 1.349 . S
C835 C836 1.407 . S
C835 H898 0.930 . S
C836 C835 1.407 . S
C836 C837 1.449 . S
C836 C840 1.535 . S
C837 C836 1.449 . S
C837 C838 1.384 . S
C837 C862 1.553 . S
C838 C837 1.384 . S
C838 C839 1.364 . S
C838 C841 1.450 . S
C839 C834 1.367 . S
C839 C838 1.364 . S
C839 H899 0.931 . S
C840 C836 1.535 . S
C840 H900 0.959 . S
C840 H901 0.961 . S
C840 H902 0.959 . S
C841 C838 1.450 . S
C841 H903 0.960 . S
C841 H904 0.960 . S
C841 H905 0.960 . S
C842 C843 1.309 . S
C842 C847 1.304 . S
C842 O880 1.435 . S
C843 C842 1.309 . S
C843 C844 1.476 . S
C843 H907 0.930 . S
C844 C843 1.476 . S
C844 C845 1.400 . S
C844 C848 1.567 . S
C845 C844 1.400 . S
C845 C846 1.373 . S
C845 C867 1.432 . S
C846 C845 1.373 . S
C846 C847 1.339 . S
C846 C849 1.530 . S
C847 C842 1.304 . S
C847 C846 1.339 . S
C847 H908 0.930 . S
C848 C844 1.567 . S
C848 H909 0.961 . S
C848 H910 0.960 . S
C848 H911 0.958 . S
C849 C846 1.530 . S
C849 H912 0.961 . S
C849 H913 0.960 . S
C849 H914 0.960 . S
C850 C851 1.530 . S
C850 H916 0.961 . S
C850 H917 0.961 . S
C850 H918 0.959 . S
C851 C850 1.530 . S
C851 O879 1.412 . S
C851 H915 0.980 . S
C852 C853 1.288 . S
C852 C857 1.377 . S
C852 O879 1.393 . S
C853 C852 1.288 . S
C853 C854 1.369 . S
C853 H919 0.932 . S
C854 C853 1.369 . S
C854 C855 1.398 . S
C854 C858 1.527 . S
C855 C854 1.398 . S
C855 C856 1.380 . S
C855 C869 1.497 . S
C856 C855 1.380 . S
C856 C857 1.383 . S
C856 C859 1.603 . S
C857 C852 1.377 . S
C857 C856 1.383 . S
C857 H920 0.929 . S
C858 C854 1.527 . S
C858 H921 0.961 . S
C858 H922 0.959 . S
C858 H923 0.959 . S
C859 C856 1.603 . S
C859 H924 0.960 . S
C859 H925 0.962 . S
C859 H926 0.961 . S
C860 C827 1.587 . S
C860 C861 1.360 . S
C860 C873 1.412 . S
C861 C860 1.360 . S
C861 C862 1.365 . S
C861 H927 0.929 . S
C862 C837 1.553 . S
C862 C861 1.365 . S
C862 C863 1.404 . S
C863 C862 1.404 . S
C863 C864 1.395 . S
C863 C874 1.451 . S
C864 C863 1.395 . S
C864 C865 1.322 . S
C864 H928 0.930 . S
C865 C864 1.322 . S
C865 C866 1.459 . S
C865 H929 0.929 . S
C866 C865 1.459 . S
C866 C867 1.445 . S
C866 C875 1.395 . S
C867 C845 1.432 . S
C867 C866 1.445 . S
C867 C868 1.370 . S
C868 C867 1.370 . S
C868 C869 1.438 . S
C868 H930 0.930 . S
C869 C855 1.497 . S
C869 C868 1.438 . S
C869 C870 1.360 . S
C870 C869 1.360 . S
C870 C871 1.401 . S
C870 C875 1.446 . S
C871 C870 1.401 . S
C871 C872 1.347 . S
C871 H931 0.929 . S
C872 C871 1.347 . S
C872 C873 1.455 . S
C872 H932 0.930 . S
C873 C860 1.412 . S
C873 C872 1.455 . S
C873 C874 1.331 . S
C874 C863 1.451 . S
C874 C873 1.331 . S
C874 C875 1.497 . S
C875 C866 1.395 . S
C875 C870 1.446 . S
C875 C874 1.497 . S
C876 C877 1.582 . S
C876 H933 0.962 . S
C876 H934 0.959 . S
C876 H935 0.958 . S
C877 C876 1.582 . S
C877 O880 1.458 . S
C877 H906 0.980 . S
O878 C823 1.426 . S
O878 C824 1.334 . S
O879 C851 1.412 . S
O879 C852 1.393 . S
O880 C842 1.435 . S
O880 C877 1.458 . S
O881 C833 1.468 . S
O881 C834 1.408 . S
H882 C823 0.980 . S
H883 C822 0.959 . S
H884 C822 0.959 . S
H885 C822 0.960 . S
H886 C825 0.929 . S
H887 C829 0.929 . S
H888 C830 0.959 . S
H889 C830 0.961 . S
H890 C830 0.961 . S
H891 C831 0.960 . S
H892 C831 0.960 . S
H893 C831 0.961 . S
H894 C833 0.980 . S
H895 C832 0.961 . S
H896 C832 0.960 . S
H897 C832 0.959 . S
H898 C835 0.930 . S
H899 C839 0.931 . S
H900 C840 0.959 . S
H901 C840 0.961 . S
H902 C840 0.959 . S
H903 C841 0.960 . S
H904 C841 0.960 . S
H905 C841 0.960 . S
H906 C877 0.980 . S
H907 C843 0.930 . S
H908 C847 0.930 . S
H909 C848 0.961 . S
H910 C848 0.960 . S
H911 C848 0.958 . S
H912 C849 0.961 . S
H913 C849 0.960 . S
H914 C849 0.960 . S
H915 C851 0.980 . S
H916 C850 0.961 . S
H917 C850 0.961 . S
H918 C850 0.959 . S
H919 C853 0.932 . S
H920 C857 0.929 . S
H921 C858 0.961 . S
H922 C858 0.959 . S
H923 C858 0.959 . S
H924 C859 0.960 . S
H925 C859 0.962 . S
H926 C859 0.961 . S
H927 C861 0.929 . S
H928 C864 0.930 . S
H929 C865 0.929 . S
H930 C868 0.930 . S
H931 C871 0.929 . S
H932 C872 0.930 . S
H933 C876 0.962 . S
H934 C876 0.959 . S
H935 C876 0.958 . S
C936 C937 1.560 . S
C936 H997 0.959 . S
C936 H998 0.959 . S
C936 H999 0.960 . S
C937 C936 1.560 . S
C937 O992 1.426 . S
C937 H996 0.980 . S
C938 C939 1.407 . S
C938 C943 1.418 . S
C938 O992 1.334 . S
C939 C938 1.407 . S
C939 C940 1.360 . S
C939 H1000 0.929 . S
C940 C939 1.360 . S
C940 C941 1.401 . S
C940 C944 1.527 . S
C941 C940 1.401 . S
C941 C942 1.405 . S
C941 C974 1.587 . S
C942 C941 1.405 . S
C942 C943 1.332 . S
C942 C945 1.496 . S
C943 C938 1.418 . S
C943 C942 1.332 . S
C943 H1001 0.929 . S
C944 C940 1.527 . S
C944 H1002 0.959 . S
C944 H1003 0.961 . S
C944 H1004 0.961 . S
C945 C942 1.496 . S
C945 H1005 0.960 . S
C945 H1006 0.960 . S
C945 H1007 0.961 . S
C946 C947 1.517 . S
C946 H1009 0.961 . S
C946 H1010 0.960 . S
C946 H1011 0.959 . S
C947 C946 1.517 . S
C947 O995 1.468 . S
C947 H1008 0.980 . S
C948 C949 1.349 . S
C948 C953 1.367 . S
C948 O995 1.408 . S
C949 C948 1.349 . S
C949 C950 1.407 . S
C949 H1012 0.930 . S
C950 C949 1.407 . S
C950 C951 1.449 . S
C950 C954 1.535 . S
C951 C950 1.449 . S
C951 C952 1.384 . S
C951 C976 1.553 . S
C952 C951 1.384 . S
C952 C953 1.364 . S
C952 C955 1.450 . S
C953 C948 1.367 . S
C953 C952 1.364 . S
C953 H1013 0.931 . S
C954 C950 1.535 . S
C954 H1014 0.959 . S
C954 H1015 0.961 . S
C954 H1016 0.959 . S
C955 C952 1.450 . S
C955 H1017 0.960 . S
C955 H1018 0.960 . S
C955 H1019 0.960 . S
C956 C957 1.309 . S
C956 C961 1.304 . S
C956 O994 1.435 . S
C957 C956 1.309 . S
C957 C958 1.476 . S
C957 H1021 0.930 . S
C958 C957 1.476 . S
C958 C959 1.400 . S
C958 C962 1.567 . S
C959 C958 1.400 . S
C959 C960 1.373 . S
C959 C981 1.432 . S
C960 C959 1.373 . S
C960 C961 1.339 . S
C960 C963 1.530 . S
C961 C956 1.304 . S
C961 C960 1.339 . S
C961 H1022 0.930 . S
C962 C958 1.567 . S
C962 H1023 0.961 . S
C962 H1024 0.960 . S
C962 H1025 0.958 . S
C963 C960 1.530 . S
C963 H1026 0.961 . S
C963 H1027 0.960 . S
C963 H1028 0.960 . S
C964 C965 1.530 . S
C964 H1030 0.961 . S
C964 H1031 0.961 . S
C964 H1032 0.959 . S
C965 C964 1.530 . S
C965 O993 1.412 . S
C965 H1029 0.980 . S
C966 C967 1.288 . S
C966 C971 1.377 . S
C966 O993 1.393 . S
C967 C966 1.288 . S
C967 C968 1.369 . S
C967 H1033 0.932 . S
C968 C967 1.369 . S
C968 C969 1.398 . S
C968 C972 1.527 . S
C969 C968 1.398 . S
C969 C970 1.380 . S
C969 C983 1.497 . S
C970 C969 1.380 . S
C970 C971 1.383 . S
C970 C973 1.603 . S
C971 C966 1.377 . S
C971 C970 1.383 . S
C971 H1034 0.929 . S
C972 C968 1.527 . S
C972 H1035 0.961 . S
C972 H1036 0.959 . S
C972 H1037 0.959 . S
C973 C970 1.603 . S
C973 H1038 0.960 . S
C973 H1039 0.962 . S
C973 H1040 0.961 . S
C974 C941 1.587 . S
C974 C975 1.360 . S
C974 C987 1.412 . S
C975 C974 1.360 . S
C975 C976 1.365 . S
C975 H1041 0.929 . S
C976 C951 1.553 . S
C976 C975 1.365 . S
C976 C977 1.404 . S
C977 C976 1.404 . S
C977 C978 1.395 . S
C977 C988 1.451 . S
C978 C977 1.395 . S
C978 C979 1.322 . S
C978 H1042 0.930 . S
C979 C978 1.322 . S
C979 C980 1.459 . S
C979 H1043 0.929 . S
C980 C979 1.459 . S
C980 C981 1.445 . S
C980 C989 1.395 . S
C981 C959 1.432 . S
C981 C980 1.445 . S
C981 C982 1.370 . S
C982 C981 1.370 . S
C982 C983 1.438 . S
C982 H1044 0.930 . S
C983 C969 1.497 . S
C983 C982 1.438 . S
C983 C984 1.360 . S
C984 C983 1.360 . S
C984 C985 1.401 . S
C984 C989 1.446 . S
C985 C984 1.401 . S
C985 C986 1.347 . S
C985 H1045 0.929 . S
C986 C985 1.347 . S
C986 C987 1.455 . S
C986 H1046 0.930 . S
C987 C974 1.412 . S
C987 C986 1.455 . S
C987 C988 1.331 . S
C988 C977 1.451 . S
C988 C987 1.331 . S
C988 C989 1.497 . S
C989 C980 1.395 . S
C989 C984 1.446 . S
C989 C988 1.497 . S
C990 C991 1.582 . S
C990 H1047 0.962 . S
C990 H1048 0.959 . S
C990 H1049 0.958 . S
C991 C990 1.582 . S
C991 O994 1.458 . S
C991 H1020 0.980 . S
O992 C937 1.426 . S
O992 C938 1.334 . S
O993 C965 1.412 . S
O993 C966 1.393 . S
O994 C956 1.435 . S
O994 C991 1.458 . S
O995 C947 1.468 . S
O995 C948 1.408 . S
H996 C937 0.980 . S
H997 C936 0.959 . S
H998 C936 0.959 . S
H999 C936 0.960 . S
H1000 C939 0.929 . S
H1001 C943 0.929 . S
H1002 C944 0.959 . S
H1003 C944 0.961 . S
H1004 C944 0.961 . S
H1005 C945 0.960 . S
H1006 C945 0.960 . S
H1007 C945 0.961 . S
H1008 C947 0.980 . S
H1009 C946 0.961 . S
H1010 C946 0.960 . S
H1011 C946 0.959 . S
H1012 C949 0.930 . S
H1013 C953 0.931 . S
H1014 C954 0.959 . S
H1015 C954 0.961 . S
H1016 C954 0.959 . S
H1017 C955 0.960 . S
H1018 C955 0.960 . S
H1019 C955 0.960 . S
H1020 C991 0.980 . S
H1021 C957 0.930 . S
H1022 C961 0.930 . S
H1023 C962 0.961 . S
H1024 C962 0.960 . S
H1025 C962 0.958 . S
H1026 C963 0.961 . S
H1027 C963 0.960 . S
H1028 C963 0.960 . S
H1029 C965 0.980 . S
H1030 C964 0.961 . S
H1031 C964 0.961 . S
H1032 C964 0.959 . S
H1033 C967 0.932 . S
H1034 C971 0.929 . S
H1035 C972 0.961 . S
H1036 C972 0.959 . S
H1037 C972 0.959 . S
H1038 C973 0.960 . S
H1039 C973 0.962 . S
H1040 C973 0.961 . S
H1041 C975 0.929 . S
H1042 C978 0.930 . S
H1043 C979 0.929 . S
H1044 C982 0.930 . S
H1045 C985 0.929 . S
H1046 C986 0.930 . S
H1047 C990 0.962 . S
H1048 C990 0.959 . S
H1049 C990 0.958 . S
C1050 C1051 1.560 . S
C1050 H1111 0.959 . S
C1050 H1112 0.959 . S
C1050 H1113 0.960 . S
C1051 C1050 1.560 . S
C1051 O1106 1.426 . S
C1051 H1110 0.980 . S
C1052 C1053 1.407 . S
C1052 C1057 1.418 . S
C1052 O1106 1.334 . S
C1053 C1052 1.407 . S
C1053 C1054 1.360 . S
C1053 H1114 0.929 . S
C1054 C1053 1.360 . S
C1054 C1055 1.401 . S
C1054 C1058 1.527 . S
C1055 C1054 1.401 . S
C1055 C1056 1.405 . S
C1055 C1088 1.587 . S
C1056 C1055 1.405 . S
C1056 C1057 1.332 . S
C1056 C1059 1.496 . S
C1057 C1052 1.418 . S
C1057 C1056 1.332 . S
C1057 H1115 0.929 . S
C1058 C1054 1.527 . S
C1058 H1116 0.959 . S
C1058 H1117 0.961 . S
C1058 H1118 0.961 . S
C1059 C1056 1.496 . S
C1059 H1119 0.960 . S
C1059 H1120 0.960 . S
C1059 H1121 0.961 . S
C1060 C1061 1.517 . S
C1060 H1123 0.961 . S
C1060 H1124 0.960 . S
C1060 H1125 0.959 . S
C1061 C1060 1.517 . S
C1061 O1109 1.468 . S
C1061 H1122 0.980 . S
C1062 C1063 1.349 . S
C1062 C1067 1.367 . S
C1062 O1109 1.408 . S
C1063 C1062 1.349 . S
C1063 C1064 1.407 . S
C1063 H1126 0.930 . S
C1064 C1063 1.407 . S
C1064 C1065 1.449 . S
C1064 C1068 1.535 . S
C1065 C1064 1.449 . S
C1065 C1066 1.384 . S
C1065 C1090 1.553 . S
C1066 C1065 1.384 . S
C1066 C1067 1.364 . S
C1066 C1069 1.450 . S
C1067 C1062 1.367 . S
C1067 C1066 1.364 . S
C1067 H1127 0.931 . S
C1068 C1064 1.535 . S
C1068 H1128 0.959 . S
C1068 H1129 0.961 . S
C1068 H1130 0.959 . S
C1069 C1066 1.450 . S
C1069 H1131 0.960 . S
C1069 H1132 0.960 . S
C1069 H1133 0.960 . S
C1070 C1071 1.309 . S
C1070 C1075 1.304 . S
C1070 O1108 1.435 . S
C1071 C1070 1.309 . S
C1071 C1072 1.476 . S
C1071 H1135 0.930 . S
C1072 C1071 1.476 . S
C1072 C1073 1.400 . S
C1072 C1076 1.567 . S
C1073 C1072 1.400 . S
C1073 C1074 1.373 . S
C1073 C1095 1.432 . S
C1074 C1073 1.373 . S
C1074 C1075 1.339 . S
C1074 C1077 1.530 . S
C1075 C1070 1.304 . S
C1075 C1074 1.339 . S
C1075 H1136 0.930 . S
C1076 C1072 1.567 . S
C1076 H1137 0.961 . S
C1076 H1138 0.960 . S
C1076 H1139 0.958 . S
C1077 C1074 1.530 . S
C1077 H1140 0.961 . S
C1077 H1141 0.960 . S
C1077 H1142 0.960 . S
C1078 C1079 1.530 . S
C1078 H1144 0.961 . S
C1078 H1145 0.961 . S
C1078 H1146 0.959 . S
C1079 C1078 1.530 . S
C1079 O1107 1.412 . S
C1079 H1143 0.980 . S
C1080 C1081 1.288 . S
C1080 C1085 1.377 . S
C1080 O1107 1.393 . S
C1081 C1080 1.288 . S
C1081 C1082 1.369 . S
C1081 H1147 0.932 . S
C1082 C1081 1.369 . S
C1082 C1083 1.398 . S
C1082 C1086 1.527 . S
C1083 C1082 1.398 . S
C1083 C1084 1.380 . S
C1083 C1097 1.497 . S
C1084 C1083 1.380 . S
C1084 C1085 1.383 . S
C1084 C1087 1.603 . S
C1085 C1080 1.377 . S
C1085 C1084 1.383 . S
C1085 H1148 0.929 . S
C1086 C1082 1.527 . S
C1086 H1149 0.961 . S
C1086 H1150 0.959 . S
C1086 H1151 0.959 . S
C1087 C1084 1.603 . S
C1087 H1152 0.960 . S
C1087 H1153 0.962 . S
C1087 H1154 0.961 . S
C1088 C1055 1.587 . S
C1088 C1089 1.360 . S
C1088 C1101 1.412 . S
C1089 C1088 1.360 . S
C1089 C1090 1.365 . S
C1089 H1155 0.929 . S
C1090 C1065 1.553 . S
C1090 C1089 1.365 . S
C1090 C1091 1.404 . S
C1091 C1090 1.404 . S
C1091 C1092 1.395 . S
C1091 C1102 1.451 . S
C1092 C1091 1.395 . S
C1092 C1093 1.322 . S
C1092 H1156 0.930 . S
C1093 C1092 1.322 . S
C1093 C1094 1.459 . S
C1093 H1157 0.929 . S
C1094 C1093 1.459 . S
C1094 C1095 1.445 . S
C1094 C1103 1.395 . S
C1095 C1073 1.432 . S
C1095 C1094 1.445 . S
C1095 C1096 1.370 . S
C1096 C1095 1.370 . S
C1096 C1097 1.438 . S
C1096 H1158 0.930 . S
C1097 C1083 1.497 . S
C1097 C1096 1.438 . S
C1097 C1098 1.360 . S
C1098 C1097 1.360 . S
C1098 C1099 1.401 . S
C1098 C1103 1.446 . S
C1099 C1098 1.401 . S
C1099 C1100 1.347 . S
C1099 H1159 0.929 . S
C1100 C1099 1.347 . S
C1100 C1101 1.455 . S
C1100 H1160 0.930 . S
C1101 C1088 1.412 . S
C1101 C1100 1.455 . S
C1101 C1102 1.331 . S
C1102 C1091 1.451 . S
C1102 C1101 1.331 . S
C1102 C1103 1.497 . S
C1103 C1094 1.395 . S
C1103 C1098 1.446 . S
C1103 C1102 1.497 . S
C1104 C1105 1.582 . S
C1104 H1161 0.962 . S
C1104 H1162 0.959 . S
C1104 H1163 0.958 . S
C1105 C1104 1.582 . S
C1105 O1108 1.458 . S
C1105 H1134 0.980 . S
O1106 C1051 1.426 . S
O1106 C1052 1.334 . S
O1107 C1079 1.412 . S
O1107 C1080 1.393 . S
O1108 C1070 1.435 . S
O1108 C1105 1.458 . S
O1109 C1061 1.468 . S
O1109 C1062 1.408 . S
H1110 C1051 0.980 . S
H1111 C1050 0.959 . S
H1112 C1050 0.959 . S
H1113 C1050 0.960 . S
H1114 C1053 0.929 . S
H1115 C1057 0.929 . S
H1116 C1058 0.959 . S
H1117 C1058 0.961 . S
H1118 C1058 0.961 . S
H1119 C1059 0.960 . S
H1120 C1059 0.960 . S
H1121 C1059 0.961 . S
H1122 C1061 0.980 . S
H1123 C1060 0.961 . S
H1124 C1060 0.960 . S
H1125 C1060 0.959 . S
H1126 C1063 0.930 . S
H1127 C1067 0.931 . S
H1128 C1068 0.959 . S
H1129 C1068 0.961 . S
H1130 C1068 0.959 . S
H1131 C1069 0.960 . S
H1132 C1069 0.960 . S
H1133 C1069 0.960 . S
H1134 C1105 0.980 . S
H1135 C1071 0.930 . S
H1136 C1075 0.930 . S
H1137 C1076 0.961 . S
H1138 C1076 0.960 . S
H1139 C1076 0.958 . S
H1140 C1077 0.961 . S
H1141 C1077 0.960 . S
H1142 C1077 0.960 . S
H1143 C1079 0.980 . S
H1144 C1078 0.961 . S
H1145 C1078 0.961 . S
H1146 C1078 0.959 . S
H1147 C1081 0.932 . S
H1148 C1085 0.929 . S
H1149 C1086 0.961 . S
H1150 C1086 0.959 . S
H1151 C1086 0.959 . S
H1152 C1087 0.960 . S
H1153 C1087 0.962 . S
H1154 C1087 0.961 . S
H1155 C1089 0.929 . S
H1156 C1092 0.930 . S
H1157 C1093 0.929 . S
H1158 C1096 0.930 . S
H1159 C1099 0.929 . S
H1160 C1100 0.930 . S
H1161 C1104 0.962 . S
H1162 C1104 0.959 . S
H1163 C1104 0.958 . S
C1164 C1165 1.560 . S
C1164 H1225 0.959 . S
C1164 H1226 0.959 . S
C1164 H1227 0.960 . S
C1165 C1164 1.560 . S
C1165 O1220 1.426 . S
C1165 H1224 0.980 . S
C1166 C1167 1.407 . S
C1166 C1171 1.418 . S
C1166 O1220 1.334 . S
C1167 C1166 1.407 . S
C1167 C1168 1.360 . S
C1167 H1228 0.929 . S
C1168 C1167 1.360 . S
C1168 C1169 1.401 . S
C1168 C1172 1.527 . S
C1169 C1168 1.401 . S
C1169 C1170 1.405 . S
C1169 C1202 1.587 . S
C1170 C1169 1.405 . S
C1170 C1171 1.332 . S
C1170 C1173 1.496 . S
C1171 C1166 1.418 . S
C1171 C1170 1.332 . S
C1171 H1229 0.929 . S
C1172 C1168 1.527 . S
C1172 H1230 0.959 . S
C1172 H1231 0.961 . S
C1172 H1232 0.961 . S
C1173 C1170 1.496 . S
C1173 H1233 0.960 . S
C1173 H1234 0.960 . S
C1173 H1235 0.961 . S
C1174 C1175 1.517 . S
C1174 H1237 0.961 . S
C1174 H1238 0.960 . S
C1174 H1239 0.959 . S
C1175 C1174 1.517 . S
C1175 O1223 1.468 . S
C1175 H1236 0.980 . S
C1176 C1177 1.349 . S
C1176 C1181 1.367 . S
C1176 O1223 1.408 . S
C1177 C1176 1.349 . S
C1177 C1178 1.407 . S
C1177 H1240 0.930 . S
C1178 C1177 1.407 . S
C1178 C1179 1.449 . S
C1178 C1182 1.535 . S
C1179 C1178 1.449 . S
C1179 C1180 1.384 . S
C1179 C1204 1.553 . S
C1180 C1179 1.384 . S
C1180 C1181 1.364 . S
C1180 C1183 1.450 . S
C1181 C1176 1.367 . S
C1181 C1180 1.364 . S
C1181 H1241 0.931 . S
C1182 C1178 1.535 . S
C1182 H1242 0.959 . S
C1182 H1243 0.961 . S
C1182 H1244 0.959 . S
C1183 C1180 1.450 . S
C1183 H1245 0.960 . S
C1183 H1246 0.960 . S
C1183 H1247 0.960 . S
C1184 C1185 1.309 . S
C1184 C1189 1.304 . S
C1184 O1222 1.435 . S
C1185 C1184 1.309 . S
C1185 C1186 1.476 . S
C1185 H1249 0.930 . S
C1186 C1185 1.476 . S
C1186 C1187 1.400 . S
C1186 C1190 1.567 . S
C1187 C1186 1.400 . S
C1187 C1188 1.373 . S
C1187 C1209 1.432 . S
C1188 C1187 1.373 . S
C1188 C1189 1.339 . S
C1188 C1191 1.530 . S
C1189 C1184 1.304 . S
C1189 C1188 1.339 . S
C1189 H1250 0.930 . S
C1190 C1186 1.567 . S
C1190 H1251 0.961 . S
C1190 H1252 0.960 . S
C1190 H1253 0.958 . S
C1191 C1188 1.530 . S
C1191 H1254 0.961 . S
C1191 H1255 0.960 . S
C1191 H1256 0.960 . S
C1192 C1193 1.530 . S
C1192 H1258 0.961 . S
C1192 H1259 0.961 . S
C1192 H1260 0.959 . S
C1193 C1192 1.530 . S
C1193 O1221 1.412 . S
C1193 H1257 0.980 . S
C1194 C1195 1.288 . S
C1194 C1199 1.377 . S
C1194 O1221 1.393 . S
C1195 C1194 1.288 . S
C1195 C1196 1.369 . S
C1195 H1261 0.932 . S
C1196 C1195 1.369 . S
C1196 C1197 1.398 . S
C1196 C1200 1.527 . S
C1197 C1196 1.398 . S
C1197 C1198 1.380 . S
C1197 C1211 1.497 . S
C1198 C1197 1.380 . S
C1198 C1199 1.383 . S
C1198 C1201 1.603 . S
C1199 C1194 1.377 . S
C1199 C1198 1.383 . S
C1199 H1262 0.929 . S
C1200 C1196 1.527 . S
C1200 H1263 0.961 . S
C1200 H1264 0.959 . S
C1200 H1265 0.959 . S
C1201 C1198 1.603 . S
C1201 H1266 0.960 . S
C1201 H1267 0.962 . S
C1201 H1268 0.961 . S
C1202 C1169 1.587 . S
C1202 C1203 1.360 . S
C1202 C1215 1.412 . S
C1203 C1202 1.360 . S
C1203 C1204 1.365 . S
C1203 H1269 0.929 . S
C1204 C1179 1.553 . S
C1204 C1203 1.365 . S
C1204 C1205 1.404 . S
C1205 C1204 1.404 . S
C1205 C1206 1.395 . S
C1205 C1216 1.451 . S
C1206 C1205 1.395 . S
C1206 C1207 1.322 . S
C1206 H1270 0.930 . S
C1207 C1206 1.322 . S
C1207 C1208 1.459 . S
C1207 H1271 0.929 . S
C1208 C1207 1.459 . S
C1208 C1209 1.445 . S
C1208 C1217 1.395 . S
C1209 C1187 1.432 . S
C1209 C1208 1.445 . S
C1209 C1210 1.370 . S
C1210 C1209 1.370 . S
C1210 C1211 1.438 . S
C1210 H1272 0.930 . S
C1211 C1197 1.497 . S
C1211 C1210 1.438 . S
C1211 C1212 1.360 . S
C1212 C1211 1.360 . S
C1212 C1213 1.401 . S
C1212 C1217 1.446 . S
C1213 C1212 1.401 . S
C1213 C1214 1.347 . S
C1213 H1273 0.929 . S
C1214 C1213 1.347 . S
C1214 C1215 1.455 . S
C1214 H1274 0.930 . S
C1215 C1202 1.412 . S
C1215 C1214 1.455 . S
C1215 C1216 1.331 . S
C1216 C1205 1.451 . S
C1216 C1215 1.331 . S
C1216 C1217 1.497 . S
C1217 C1208 1.395 . S
C1217 C1212 1.446 . S
C1217 C1216 1.497 . S
C1218 C1219 1.582 . S
C1218 H1275 0.962 . S
C1218 H1276 0.959 . S
C1218 H1277 0.958 . S
C1219 C1218 1.582 . S
C1219 O1222 1.458 . S
C1219 H1248 0.980 . S
O1220 C1165 1.426 . S
O1220 C1166 1.334 . S
O1221 C1193 1.412 . S
O1221 C1194 1.393 . S
O1222 C1184 1.435 . S
O1222 C1219 1.458 . S
O1223 C1175 1.468 . S
O1223 C1176 1.408 . S
H1224 C1165 0.980 . S
H1225 C1164 0.959 . S
H1226 C1164 0.959 . S
H1227 C1164 0.960 . S
H1228 C1167 0.929 . S
H1229 C1171 0.929 . S
H1230 C1172 0.959 . S
H1231 C1172 0.961 . S
H1232 C1172 0.961 . S
H1233 C1173 0.960 . S
H1234 C1173 0.960 . S
H1235 C1173 0.961 . S
H1236 C1175 0.980 . S
H1237 C1174 0.961 . S
H1238 C1174 0.960 . S
H1239 C1174 0.959 . S
H1240 C1177 0.930 . S
H1241 C1181 0.931 . S
H1242 C1182 0.959 . S
H1243 C1182 0.961 . S
H1244 C1182 0.959 . S
H1245 C1183 0.960 . S
H1246 C1183 0.960 . S
H1247 C1183 0.960 . S
H1248 C1219 0.980 . S
H1249 C1185 0.930 . S
H1250 C1189 0.930 . S
H1251 C1190 0.961 . S
H1252 C1190 0.960 . S
H1253 C1190 0.958 . S
H1254 C1191 0.961 . S
H1255 C1191 0.960 . S
H1256 C1191 0.960 . S
H1257 C1193 0.980 . S
H1258 C1192 0.961 . S
H1259 C1192 0.961 . S
H1260 C1192 0.959 . S
H1261 C1195 0.932 . S
H1262 C1199 0.929 . S
H1263 C1200 0.961 . S
H1264 C1200 0.959 . S
H1265 C1200 0.959 . S
H1266 C1201 0.960 . S
H1267 C1201 0.962 . S
H1268 C1201 0.961 . S
H1269 C1203 0.929 . S
H1270 C1206 0.930 . S
H1271 C1207 0.929 . S
H1272 C1210 0.930 . S
H1273 C1213 0.929 . S
H1274 C1214 0.930 . S
H1275 C1218 0.962 . S
H1276 C1218 0.959 . S
H1277 C1218 0.958 . S
C1278 C1279 1.560 . S
C1278 H1339 0.959 . S
C1278 H1340 0.959 . S
C1278 H1341 0.960 . S
C1279 C1278 1.560 . S
C1279 O1334 1.426 . S
C1279 H1338 0.980 . S
C1280 C1281 1.407 1_455 S
C1280 C1285 1.418 . S
C1280 O1334 1.334 . S
C1281 C1280 1.407 1_655 S
C1281 C1282 1.360 . S
C1281 H1342 0.929 . S
C1282 C1281 1.360 . S
C1282 C1283 1.401 1_655 S
C1282 C1286 1.527 . S
C1283 C1282 1.401 1_455 S
C1283 C1284 1.405 . S
C1283 C1316 1.587 1_455 S
C1284 C1283 1.405 . S
C1284 C1285 1.332 . S
C1284 C1287 1.496 . S
C1285 C1280 1.418 . S
C1285 C1284 1.332 . S
C1285 H1343 0.929 . S
C1286 C1282 1.527 . S
C1286 H1344 0.959 . S
C1286 H1345 0.961 . S
C1286 H1346 0.961 . S
C1287 C1284 1.496 . S
C1287 H1347 0.960 . S
C1287 H1348 0.960 . S
C1287 H1349 0.961 . S
C1288 C1289 1.517 . S
C1288 H1351 0.961 . S
C1288 H1352 0.960 . S
C1288 H1353 0.959 . S
C1289 C1288 1.517 . S
C1289 O1337 1.468 . S
C1289 H1350 0.943 1_655 S
C1290 C1291 1.349 . S
C1290 C1295 1.367 . S
C1290 O1337 1.408 . S
C1291 C1290 1.349 . S
C1291 C1292 1.405 1_655 S
C1291 H1354 0.930 1_655 S
C1292 C1291 1.405 1_455 S
C1292 C1293 1.447 1_455 S
C1292 C1296 1.539 . S
C1293 C1292 1.447 1_655 S
C1293 C1294 1.384 . S
C1293 C1318 1.553 . S
C1294 C1293 1.384 . S
C1294 C1295 1.364 . S
C1294 C1297 1.450 . S
C1295 C1290 1.367 . S
C1295 C1294 1.364 . S
C1295 H1355 0.931 . S
C1296 C1292 1.539 . S
C1296 H1356 0.959 . S
C1296 H1357 0.961 . S
C1296 H1358 0.959 . S
C1297 C1294 1.450 . S
C1297 H1359 0.960 . S
C1297 H1360 0.960 . S
C1297 H1361 0.960 . S
C1298 C1299 1.309 . S
C1298 C1303 1.304 . S
C1298 O1336 1.435 . S
C1299 C1298 1.309 . S
C1299 C1300 1.450 1_655 S
C1299 H1363 0.930 1_655 S
C1300 C1299 1.450 1_455 S
C1300 C1301 1.384 1_455 S
C1300 C1304 1.609 . S
C1301 C1300 1.384 1_655 S
C1301 C1302 1.373 . S
C1301 C1323 1.432 . S
C1302 C1301 1.373 . S
C1302 C1303 1.339 . S
C1302 C1305 1.530 . S
C1303 C1298 1.304 . S
C1303 C1302 1.339 . S
C1303 H1364 0.930 . S
C1304 C1300 1.609 . S
C1304 H1365 0.961 . S
C1304 H1366 0.960 . S
C1304 H1367 0.958 . S
C1305 C1302 1.530 . S
C1305 H1368 0.961 . S
C1305 H1369 0.960 . S
C1305 H1370 0.960 . S
C1306 C1307 1.600 . S
C1306 H1372 0.961 . S
C1306 H1373 0.961 . S
C1306 H1374 0.959 . S
C1307 C1306 1.600 . S
C1307 O1335 1.428 . S
C1307 H1371 0.962 1_455 S
C1308 C1309 1.288 . S
C1308 C1313 1.377 1_455 S
C1308 O1335 1.393 . S
C1309 C1308 1.288 . S
C1309 C1310 1.369 . S
C1309 H1375 0.932 . S
C1310 C1309 1.369 . S
C1310 C1311 1.329 1_455 S
C1310 C1314 1.527 . S
C1311 C1310 1.329 1_655 S
C1311 C1312 1.402 . S
C1311 C1325 1.544 . S
C1312 C1311 1.402 . S
C1312 C1313 1.383 . S
C1312 C1315 1.603 . S
C1313 C1308 1.377 1_655 S
C1313 C1312 1.383 . S
C1313 H1376 0.929 . S
C1314 C1310 1.527 . S
C1314 H1377 0.961 . S
C1314 H1378 0.959 . S
C1314 H1379 0.959 . S
C1315 C1312 1.603 . S
C1315 H1380 0.960 . S
C1315 H1381 0.962 . S
C1315 H1382 0.961 . S
C1316 C1283 1.587 1_655 S
C1316 C1317 1.360 . S
C1316 C1329 1.412 . S
C1317 C1316 1.360 . S
C1317 C1318 1.365 . S
C1317 H1383 0.929 . S
C1318 C1293 1.553 . S
C1318 C1317 1.365 . S
C1318 C1319 1.404 . S
C1319 C1318 1.404 . S
C1319 C1320 1.395 . S
C1319 C1330 1.451 . S
C1320 C1319 1.395 . S
C1320 C1321 1.322 . S
C1320 H1384 0.930 . S
C1321 C1320 1.322 . S
C1321 C1322 1.459 . S
C1321 H1385 0.929 . S
C1322 C1321 1.459 . S
C1322 C1323 1.445 . S
C1322 C1331 1.395 . S
C1323 C1301 1.432 . S
C1323 C1322 1.445 . S
C1323 C1324 1.370 . S
C1324 C1323 1.370 . S
C1324 C1325 1.438 . S
C1324 H1386 0.930 . S
C1325 C1311 1.544 . S
C1325 C1324 1.438 . S
C1325 C1326 1.360 . S
C1326 C1325 1.360 . S
C1326 C1327 1.401 . S
C1326 C1331 1.446 . S
C1327 C1326 1.401 . S
C1327 C1328 1.347 . S
C1327 H1387 0.929 . S
C1328 C1327 1.347 . S
C1328 C1329 1.455 . S
C1328 H1388 0.930 . S
C1329 C1316 1.412 . S
C1329 C1328 1.455 . S
C1329 C1330 1.331 . S
C1330 C1319 1.451 . S
C1330 C1329 1.331 . S
C1330 C1331 1.497 . S
C1331 C1322 1.395 . S
C1331 C1326 1.446 . S
C1331 C1330 1.497 . S
C1332 C1333 1.582 . S
C1332 H1389 0.962 . S
C1332 H1390 0.959 . S
C1332 H1391 0.958 . S
C1333 C1332 1.582 . S
C1333 O1336 1.458 . S
C1333 H1362 0.980 . S
O1334 C1279 1.426 . S
O1334 C1280 1.334 . S
O1335 C1307 1.428 . S
O1335 C1308 1.393 . S
O1336 C1298 1.435 . S
O1336 C1333 1.458 . S
O1337 C1289 1.468 . S
O1337 C1290 1.408 . S
H1338 C1279 0.980 . S
H1339 C1278 0.959 . S
H1340 C1278 0.959 . S
H1341 C1278 0.960 . S
H1342 C1281 0.929 . S
H1343 C1285 0.929 . S
H1344 C1286 0.959 . S
H1345 C1286 0.961 . S
H1346 C1286 0.961 . S
H1347 C1287 0.960 . S
H1348 C1287 0.960 . S
H1349 C1287 0.961 . S
H1350 C1289 0.943 1_455 S
H1351 C1288 0.961 . S
H1352 C1288 0.960 . S
H1353 C1288 0.959 . S
H1354 C1291 0.930 1_455 S
H1355 C1295 0.931 . S
H1356 C1296 0.959 . S
H1357 C1296 0.961 . S
H1358 C1296 0.959 . S
H1359 C1297 0.960 . S
H1360 C1297 0.960 . S
H1361 C1297 0.960 . S
H1362 C1333 0.980 . S
H1363 C1299 0.930 1_455 S
H1364 C1303 0.930 . S
H1365 C1304 0.961 . S
H1366 C1304 0.960 . S
H1367 C1304 0.958 . S
H1368 C1305 0.961 . S
H1369 C1305 0.960 . S
H1370 C1305 0.960 . S
H1371 C1307 0.962 1_655 S
H1372 C1306 0.961 . S
H1373 C1306 0.961 . S
H1374 C1306 0.959 . S
H1375 C1309 0.932 . S
H1376 C1313 0.929 . S
H1377 C1314 0.961 . S
H1378 C1314 0.959 . S
H1379 C1314 0.959 . S
H1380 C1315 0.960 . S
H1381 C1315 0.962 . S
H1382 C1315 0.961 . S
H1383 C1317 0.929 . S
H1384 C1320 0.930 . S
H1385 C1321 0.929 . S
H1386 C1324 0.930 . S
H1387 C1327 0.929 . S
H1388 C1328 0.930 . S
H1389 C1332 0.962 . S
H1390 C1332 0.959 . S
H1391 C1332 0.958 . S
C1392 C1393 1.560 . S
C1392 H1453 0.959 . S
C1392 H1454 0.959 . S
C1392 H1455 0.960 . S
C1393 C1392 1.560 . S
C1393 O1448 1.426 . S
C1393 H1452 0.980 . S
C1394 C1395 1.407 . S
C1394 C1399 1.418 . S
C1394 O1448 1.334 . S
C1395 C1394 1.407 . S
C1395 C1396 1.360 . S
C1395 H1456 0.929 . S
C1396 C1395 1.360 . S
C1396 C1397 1.401 . S
C1396 C1400 1.527 . S
C1397 C1396 1.401 . S
C1397 C1398 1.405 . S
C1397 C1430 1.587 . S
C1398 C1397 1.405 . S
C1398 C1399 1.332 . S
C1398 C1401 1.496 . S
C1399 C1394 1.418 . S
C1399 C1398 1.332 . S
C1399 H1457 0.929 . S
C1400 C1396 1.527 . S
C1400 H1458 0.959 . S
C1400 H1459 0.961 . S
C1400 H1460 0.961 . S
C1401 C1398 1.496 . S
C1401 H1461 0.960 . S
C1401 H1462 0.960 . S
C1401 H1463 0.961 . S
C1402 C1403 1.517 . S
C1402 H1465 0.961 . S
C1402 H1466 0.960 . S
C1402 H1467 0.959 . S
C1403 C1402 1.517 . S
C1403 O1451 1.468 . S
C1403 H1464 0.980 . S
C1404 C1405 1.349 . S
C1404 C1409 1.367 . S
C1404 O1451 1.408 . S
C1405 C1404 1.349 . S
C1405 C1406 1.407 . S
C1405 H1468 0.930 . S
C1406 C1405 1.407 . S
C1406 C1407 1.449 . S
C1406 C1410 1.535 . S
C1407 C1406 1.449 . S
C1407 C1408 1.384 . S
C1407 C1432 1.553 . S
C1408 C1407 1.384 . S
C1408 C1409 1.364 . S
C1408 C1411 1.450 . S
C1409 C1404 1.367 . S
C1409 C1408 1.364 . S
C1409 H1469 0.931 . S
C1410 C1406 1.535 . S
C1410 H1470 0.959 . S
C1410 H1471 0.961 . S
C1410 H1472 0.959 . S
C1411 C1408 1.450 . S
C1411 H1473 0.960 . S
C1411 H1474 0.960 . S
C1411 H1475 0.960 . S
C1412 C1413 1.309 . S
C1412 C1417 1.304 . S
C1412 O1450 1.435 . S
C1413 C1412 1.309 . S
C1413 C1414 1.476 . S
C1413 H1477 0.930 . S
C1414 C1413 1.476 . S
C1414 C1415 1.400 . S
C1414 C1418 1.567 . S
C1415 C1414 1.400 . S
C1415 C1416 1.373 . S
C1415 C1437 1.432 . S
C1416 C1415 1.373 . S
C1416 C1417 1.339 . S
C1416 C1419 1.530 . S
C1417 C1412 1.304 . S
C1417 C1416 1.339 . S
C1417 H1478 0.930 . S
C1418 C1414 1.567 . S
C1418 H1479 0.961 . S
C1418 H1480 0.960 . S
C1418 H1481 0.958 . S
C1419 C1416 1.530 . S
C1419 H1482 0.961 . S
C1419 H1483 0.960 . S
C1419 H1484 0.960 . S
C1420 C1421 1.530 . S
C1420 H1486 0.961 . S
C1420 H1487 0.961 . S
C1420 H1488 0.959 . S
C1421 C1420 1.530 . S
C1421 O1449 1.412 . S
C1421 H1485 0.980 . S
C1422 C1423 1.288 . S
C1422 C1427 1.377 . S
C1422 O1449 1.393 . S
C1423 C1422 1.288 . S
C1423 C1424 1.369 . S
C1423 H1489 0.932 . S
C1424 C1423 1.369 . S
C1424 C1425 1.398 . S
C1424 C1428 1.527 . S
C1425 C1424 1.398 . S
C1425 C1426 1.380 . S
C1425 C1439 1.497 . S
C1426 C1425 1.380 . S
C1426 C1427 1.383 . S
C1426 C1429 1.603 . S
C1427 C1422 1.377 . S
C1427 C1426 1.383 . S
C1427 H1490 0.929 . S
C1428 C1424 1.527 . S
C1428 H1491 0.961 . S
C1428 H1492 0.959 . S
C1428 H1493 0.959 . S
C1429 C1426 1.603 . S
C1429 H1494 0.960 . S
C1429 H1495 0.962 . S
C1429 H1496 0.961 . S
C1430 C1397 1.587 . S
C1430 C1431 1.360 . S
C1430 C1443 1.412 . S
C1431 C1430 1.360 . S
C1431 C1432 1.365 . S
C1431 H1497 0.929 . S
C1432 C1407 1.553 . S
C1432 C1431 1.365 . S
C1432 C1433 1.404 . S
C1433 C1432 1.404 . S
C1433 C1434 1.395 . S
C1433 C1444 1.451 . S
C1434 C1433 1.395 . S
C1434 C1435 1.322 . S
C1434 H1498 0.930 . S
C1435 C1434 1.322 . S
C1435 C1436 1.459 . S
C1435 H1499 0.929 . S
C1436 C1435 1.459 . S
C1436 C1437 1.445 . S
C1436 C1445 1.395 . S
C1437 C1415 1.432 . S
C1437 C1436 1.445 . S
C1437 C1438 1.370 . S
C1438 C1437 1.370 . S
C1438 C1439 1.438 . S
C1438 H1500 0.930 . S
C1439 C1425 1.497 . S
C1439 C1438 1.438 . S
C1439 C1440 1.360 . S
C1440 C1439 1.360 . S
C1440 C1441 1.401 . S
C1440 C1445 1.446 . S
C1441 C1440 1.401 . S
C1441 C1442 1.347 . S
C1441 H1501 0.929 . S
C1442 C1441 1.347 . S
C1442 C1443 1.455 . S
C1442 H1502 0.930 . S
C1443 C1430 1.412 . S
C1443 C1442 1.455 . S
C1443 C1444 1.331 . S
C1444 C1433 1.451 . S
C1444 C1443 1.331 . S
C1444 C1445 1.497 . S
C1445 C1436 1.395 . S
C1445 C1440 1.446 . S
C1445 C1444 1.497 . S
C1446 C1447 1.582 . S
C1446 H1503 0.962 . S
C1446 H1504 0.959 . S
C1446 H1505 0.958 . S
C1447 C1446 1.582 . S
C1447 O1450 1.458 . S
C1447 H1476 0.980 . S
O1448 C1393 1.426 . S
O1448 C1394 1.334 . S
O1449 C1421 1.412 . S
O1449 C1422 1.393 . S
O1450 C1412 1.435 . S
O1450 C1447 1.458 . S
O1451 C1403 1.468 . S
O1451 C1404 1.408 . S
H1452 C1393 0.980 . S
H1453 C1392 0.959 . S
H1454 C1392 0.959 . S
H1455 C1392 0.960 . S
H1456 C1395 0.929 . S
H1457 C1399 0.929 . S
H1458 C1400 0.959 . S
H1459 C1400 0.961 . S
H1460 C1400 0.961 . S
H1461 C1401 0.960 . S
H1462 C1401 0.960 . S
H1463 C1401 0.961 . S
H1464 C1403 0.980 . S
H1465 C1402 0.961 . S
H1466 C1402 0.960 . S
H1467 C1402 0.959 . S
H1468 C1405 0.930 . S
H1469 C1409 0.931 . S
H1470 C1410 0.959 . S
H1471 C1410 0.961 . S
H1472 C1410 0.959 . S
H1473 C1411 0.960 . S
H1474 C1411 0.960 . S
H1475 C1411 0.960 . S
H1476 C1447 0.980 . S
H1477 C1413 0.930 . S
H1478 C1417 0.930 . S
H1479 C1418 0.961 . S
H1480 C1418 0.960 . S
H1481 C1418 0.958 . S
H1482 C1419 0.961 . S
H1483 C1419 0.960 . S
H1484 C1419 0.960 . S
H1485 C1421 0.980 . S
H1486 C1420 0.961 . S
H1487 C1420 0.961 . S
H1488 C1420 0.959 . S
H1489 C1423 0.932 . S
H1490 C1427 0.929 . S
H1491 C1428 0.961 . S
H1492 C1428 0.959 . S
H1493 C1428 0.959 . S
H1494 C1429 0.960 . S
H1495 C1429 0.962 . S
H1496 C1429 0.961 . S
H1497 C1431 0.929 . S
H1498 C1434 0.930 . S
H1499 C1435 0.929 . S
H1500 C1438 0.930 . S
H1501 C1441 0.929 . S
H1502 C1442 0.930 . S
H1503 C1446 0.962 . S
H1504 C1446 0.959 . S
H1505 C1446 0.958 . S
C1506 C1507 1.560 . S
C1506 H1567 0.959 . S
C1506 H1568 0.959 . S
C1506 H1569 0.960 . S
C1507 C1506 1.560 . S
C1507 O1562 1.426 . S
C1507 H1566 0.980 . S
C1508 C1509 1.407 1_565 S
C1508 C1513 1.418 . S
C1508 O1562 1.334 . S
C1509 C1508 1.407 1_545 S
C1509 C1510 1.360 . S
C1509 H1570 0.929 . S
C1510 C1509 1.360 . S
C1510 C1511 1.401 1_545 S
C1510 C1514 1.527 . S
C1511 C1510 1.401 1_565 S
C1511 C1512 1.405 . S
C1511 C1544 1.587 1_565 S
C1512 C1511 1.405 . S
C1512 C1513 1.332 . S
C1512 C1515 1.496 . S
C1513 C1508 1.418 . S
C1513 C1512 1.332 . S
C1513 H1571 0.929 . S
C1514 C1510 1.527 . S
C1514 H1572 0.959 . S
C1514 H1573 0.961 . S
C1514 H1574 0.961 . S
C1515 C1512 1.496 . S
C1515 H1575 0.960 . S
C1515 H1576 0.960 . S
C1515 H1577 0.961 . S
C1516 C1517 1.517 . S
C1516 H1579 0.918 1_545 S
C1516 H1580 0.960 . S
C1516 H1581 0.959 . S
C1517 C1516 1.517 . S
C1517 O1565 1.468 . S
C1517 H1578 0.980 1_545 S
C1518 C1519 1.349 . S
C1518 C1523 1.367 . S
C1518 O1565 1.408 . S
C1519 C1518 1.349 . S
C1519 C1520 1.407 1_545 S
C1519 H1582 0.930 1_545 S
C1520 C1519 1.407 1_565 S
C1520 C1521 1.449 1_565 S
C1520 C1524 1.535 . S
C1521 C1520 1.449 1_545 S
C1521 C1522 1.384 . S
C1521 C1546 1.553 . S
C1522 C1521 1.384 . S
C1522 C1523 1.364 . S
C1522 C1525 1.450 . S
C1523 C1518 1.367 . S
C1523 C1522 1.364 . S
C1523 H1583 0.931 . S
C1524 C1520 1.535 . S
C1524 H1584 0.959 . S
C1524 H1585 0.961 . S
C1524 H1586 0.959 . S
C1525 C1522 1.450 . S
C1525 H1587 0.960 . S
C1525 H1588 0.960 . S
C1525 H1589 0.960 . S
C1526 C1527 1.309 . S
C1526 C1531 1.304 . S
C1526 O1564 1.435 . S
C1527 C1526 1.309 . S
C1527 C1528 1.482 1_545 S
C1527 H1591 0.930 1_545 S
C1528 C1527 1.482 1_565 S
C1528 C1529 1.378 1_565 S
C1528 C1532 1.582 . S
C1529 C1528 1.378 1_545 S
C1529 C1530 1.373 . S
C1529 C1551 1.432 . S
C1530 C1529 1.373 . S
C1530 C1531 1.339 . S
C1530 C1533 1.530 . S
C1531 C1526 1.304 . S
C1531 C1530 1.339 . S
C1531 H1592 0.930 . S
C1532 C1528 1.582 . S
C1532 H1593 0.961 . S
C1532 H1594 0.960 . S
C1532 H1595 0.958 . S
C1533 C1530 1.530 . S
C1533 H1596 0.961 . S
C1533 H1597 0.960 . S
C1533 H1598 0.960 . S
C1534 C1535 1.530 1_565 S
C1534 H1600 0.961 . S
C1534 H1601 0.961 . S
C1534 H1602 0.959 . S
C1535 C1534 1.530 1_545 S
C1535 O1563 1.412 1_545 S
C1535 H1599 0.980 . S
C1536 C1537 1.288 . S
C1536 C1541 1.377 1_565 S
C1536 O1563 1.393 . S
C1537 C1536 1.288 . S
C1537 C1538 1.369 . S
C1537 H1603 0.932 . S
C1538 C1537 1.369 . S
C1538 C1539 1.398 1_565 S
C1538 C1542 1.527 . S
C1539 C1538 1.398 1_545 S
C1539 C1540 1.380 . S
C1539 C1553 1.497 . S
C1540 C1539 1.380 . S
C1540 C1541 1.383 . S
C1540 C1543 1.603 . S
C1541 C1536 1.377 1_545 S
C1541 C1540 1.383 . S
C1541 H1604 0.929 . S
C1542 C1538 1.527 . S
C1542 H1605 0.961 . S
C1542 H1606 0.959 . S
C1542 H1607 0.959 . S
C1543 C1540 1.603 . S
C1543 H1608 0.960 . S
C1543 H1609 0.962 . S
C1543 H1610 0.961 . S
C1544 C1511 1.587 1_545 S
C1544 C1545 1.360 . S
C1544 C1557 1.412 . S
C1545 C1544 1.360 . S
C1545 C1546 1.365 . S
C1545 H1611 0.929 . S
C1546 C1521 1.553 . S
C1546 C1545 1.365 . S
C1546 C1547 1.404 . S
C1547 C1546 1.404 . S
C1547 C1548 1.395 . S
C1547 C1558 1.451 . S
C1548 C1547 1.395 . S
C1548 C1549 1.322 . S
C1548 H1612 0.930 . S
C1549 C1548 1.322 . S
C1549 C1550 1.459 . S
C1549 H1613 0.929 . S
C1550 C1549 1.459 . S
C1550 C1551 1.445 . S
C1550 C1559 1.395 . S
C1551 C1529 1.432 . S
C1551 C1550 1.445 . S
C1551 C1552 1.370 . S
C1552 C1551 1.370 . S
C1552 C1553 1.438 . S
C1552 H1614 0.930 . S
C1553 C1539 1.497 . S
C1553 C1552 1.438 . S
C1553 C1554 1.360 . S
C1554 C1553 1.360 . S
C1554 C1555 1.401 . S
C1554 C1559 1.446 . S
C1555 C1554 1.401 . S
C1555 C1556 1.347 . S
C1555 H1615 0.929 . S
C1556 C1555 1.347 . S
C1556 C1557 1.455 . S
C1556 H1616 0.930 . S
C1557 C1544 1.412 . S
C1557 C1556 1.455 . S
C1557 C1558 1.331 . S
C1558 C1547 1.451 . S
C1558 C1557 1.331 . S
C1558 C1559 1.497 . S
C1559 C1550 1.395 . S
C1559 C1554 1.446 . S
C1559 C1558 1.497 . S
C1560 C1561 1.582 . S
C1560 H1617 0.962 . S
C1560 H1618 0.959 . S
C1560 H1619 0.958 . S
C1561 C1560 1.582 . S
C1561 O1564 1.458 . S
C1561 H1590 0.980 . S
O1562 C1507 1.426 . S
O1562 C1508 1.334 . S
O1563 C1535 1.412 1_565 S
O1563 C1536 1.393 . S
O1564 C1526 1.435 . S
O1564 C1561 1.458 . S
O1565 C1517 1.468 . S
O1565 C1518 1.408 . S
H1566 C1507 0.980 . S
H1567 C1506 0.959 . S
H1568 C1506 0.959 . S
H1569 C1506 0.960 . S
H1570 C1509 0.929 . S
H1571 C1513 0.929 . S
H1572 C1514 0.959 . S
H1573 C1514 0.961 . S
H1574 C1514 0.961 . S
H1575 C1515 0.960 . S
H1576 C1515 0.960 . S
H1577 C1515 0.961 . S
H1578 C1517 0.980 1_565 S
H1579 C1516 0.918 1_565 S
H1580 C1516 0.960 . S
H1581 C1516 0.959 . S
H1582 C1519 0.930 1_565 S
H1583 C1523 0.931 . S
H1584 C1524 0.959 . S
H1585 C1524 0.961 . S
H1586 C1524 0.959 . S
H1587 C1525 0.960 . S
H1588 C1525 0.960 . S
H1589 C1525 0.960 . S
H1590 C1561 0.980 . S
H1591 C1527 0.930 1_565 S
H1592 C1531 0.930 . S
H1593 C1532 0.961 . S
H1594 C1532 0.960 . S
H1595 C1532 0.958 . S
H1596 C1533 0.961 . S
H1597 C1533 0.960 . S
H1598 C1533 0.960 . S
H1599 C1535 0.980 . S
H1600 C1534 0.961 . S
H1601 C1534 0.961 . S
H1602 C1534 0.959 . S
H1603 C1537 0.932 . S
H1604 C1541 0.929 . S
H1605 C1542 0.961 . S
H1606 C1542 0.959 . S
H1607 C1542 0.959 . S
H1608 C1543 0.960 . S
H1609 C1543 0.962 . S
H1610 C1543 0.961 . S
H1611 C1545 0.929 . S
H1612 C1548 0.930 . S
H1613 C1549 0.929 . S
H1614 C1552 0.930 . S
H1615 C1555 0.929 . S
H1616 C1556 0.930 . S
H1617 C1560 0.962 . S
H1618 C1560 0.959 . S
H1619 C1560 0.958 . S
C1620 C1621 1.560 . S
C1620 H1681 0.959 . S
C1620 H1682 0.959 . S
C1620 H1683 0.960 . S
C1621 C1620 1.560 . S
C1621 O1676 1.426 . S
C1621 H1680 0.980 1_565 S
C1622 C1623 1.407 1_565 S
C1622 C1627 1.418 . S
C1622 O1676 1.334 . S
C1623 C1622 1.407 1_545 S
C1623 C1624 1.360 . S
C1623 H1684 0.929 . S
C1624 C1623 1.360 . S
C1624 C1625 1.401 . S
C1624 C1628 1.527 . S
C1625 C1624 1.401 . S
C1625 C1626 1.405 1_545 S
C1625 C1658 1.587 . S
C1626 C1625 1.405 1_565 S
C1626 C1627 1.332 . S
C1626 C1629 1.496 . S
C1627 C1622 1.418 . S
C1627 C1626 1.332 . S
C1627 H1685 0.929 . S
C1628 C1624 1.527 . S
C1628 H1686 0.959 . S
C1628 H1687 0.961 . S
C1628 H1688 0.961 . S
C1629 C1626 1.496 . S
C1629 H1689 0.960 . S
C1629 H1690 0.960 . S
C1629 H1691 0.961 . S
C1630 C1631 1.517 . S
C1630 H1693 0.961 . S
C1630 H1694 0.960 . S
C1630 H1695 0.959 . S
C1631 C1630 1.517 . S
C1631 O1679 1.468 . S
C1631 H1692 0.980 . S
C1632 C1633 1.349 . S
C1632 C1637 1.367 . S
C1632 O1679 1.408 . S
C1633 C1632 1.349 . S
C1633 C1634 1.407 . S
C1633 H1696 0.910 1_545 S
C1634 C1633 1.407 . S
C1634 C1635 1.449 . S
C1634 C1638 1.535 1_545 S
C1635 C1634 1.449 . S
C1635 C1636 1.384 . S
C1635 C1660 1.553 . S
C1636 C1635 1.384 . S
C1636 C1637 1.364 . S
C1636 C1639 1.450 . S
C1637 C1632 1.367 . S
C1637 C1636 1.364 . S
C1637 H1697 0.931 . S
C1638 C1634 1.535 1_565 S
C1638 H1698 0.959 . S
C1638 H1699 0.961 . S
C1638 H1700 0.959 . S
C1639 C1636 1.450 . S
C1639 H1701 0.960 . S
C1639 H1702 0.960 . S
C1639 H1703 0.960 . S
C1640 C1641 1.309 1_545 S
C1640 C1645 1.304 . S
C1640 O1678 1.435 . S
C1641 C1640 1.309 1_565 S
C1641 C1642 1.476 . S
C1641 H1705 0.930 . S
C1642 C1641 1.476 . S
C1642 C1643 1.400 1_565 S
C1642 C1646 1.567 . S
C1643 C1642 1.400 1_545 S
C1643 C1644 1.373 . S
C1643 C1665 1.432 . S
C1644 C1643 1.373 . S
C1644 C1645 1.339 . S
C1644 C1647 1.530 . S
C1645 C1640 1.304 . S
C1645 C1644 1.339 . S
C1645 H1706 0.930 . S
C1646 C1642 1.567 . S
C1646 H1707 0.961 . S
C1646 H1708 0.960 . S
C1646 H1709 0.958 . S
C1647 C1644 1.530 . S
C1647 H1710 0.961 . S
C1647 H1711 0.960 . S
C1647 H1712 0.960 . S
C1648 C1649 1.530 . S
C1648 H1714 0.961 . S
C1648 H1715 0.961 . S
C1648 H1716 0.959 . S
C1649 C1648 1.530 . S
C1649 O1677 1.412 . S
C1649 H1713 0.981 1_565 S
C1650 C1651 1.288 . S
C1650 C1655 1.377 1_565 S
C1650 O1677 1.393 . S
C1651 C1650 1.288 . S
C1651 C1652 1.369 . S
C1651 H1717 0.932 . S
C1652 C1651 1.369 . S
C1652 C1653 1.398 . S
C1652 C1656 1.527 . S
C1653 C1652 1.398 . S
C1653 C1654 1.380 1_565 S
C1653 C1667 1.497 1_565 S
C1654 C1653 1.380 1_545 S
C1654 C1655 1.383 . S
C1654 C1657 1.603 . S
C1655 C1650 1.377 1_545 S
C1655 C1654 1.383 . S
C1655 H1718 0.929 . S
C1656 C1652 1.527 . S
C1656 H1719 0.961 . S
C1656 H1720 0.959 . S
C1656 H1721 0.959 . S
C1657 C1654 1.603 . S
C1657 H1722 0.960 . S
C1657 H1723 0.962 . S
C1657 H1724 0.961 . S
C1658 C1625 1.587 . S
C1658 C1659 1.360 . S
C1658 C1671 1.412 . S
C1659 C1658 1.360 . S
C1659 C1660 1.365 . S
C1659 H1725 0.929 . S
C1660 C1635 1.553 . S
C1660 C1659 1.365 . S
C1660 C1661 1.404 . S
C1661 C1660 1.404 . S
C1661 C1662 1.395 . S
C1661 C1672 1.451 . S
C1662 C1661 1.395 . S
C1662 C1663 1.322 . S
C1662 H1726 0.930 . S
C1663 C1662 1.322 . S
C1663 C1664 1.459 . S
C1663 H1727 0.929 . S
C1664 C1663 1.459 . S
C1664 C1665 1.445 . S
C1664 C1673 1.395 . S
C1665 C1643 1.432 . S
C1665 C1664 1.445 . S
C1665 C1666 1.370 . S
C1666 C1665 1.370 . S
C1666 C1667 1.438 . S
C1666 H1728 0.930 . S
C1667 C1653 1.497 1_545 S
C1667 C1666 1.438 . S
C1667 C1668 1.360 . S
C1668 C1667 1.360 . S
C1668 C1669 1.401 . S
C1668 C1673 1.446 . S
C1669 C1668 1.401 . S
C1669 C1670 1.347 . S
C1669 H1729 0.981 . S
C1670 C1669 1.347 . S
C1670 C1671 1.455 . S
C1670 H1730 0.930 . S
C1671 C1658 1.412 . S
C1671 C1670 1.455 . S
C1671 C1672 1.331 . S
C1672 C1661 1.451 . S
C1672 C1671 1.331 . S
C1672 C1673 1.497 . S
C1673 C1664 1.395 . S
C1673 C1668 1.446 . S
C1673 C1672 1.497 . S
C1674 C1675 1.627 . S
C1674 H1731 0.962 . S
C1674 H1732 0.959 . S
C1674 H1733 0.958 . S
C1675 C1674 1.627 . S
C1675 O1678 1.477 . S
C1675 H1704 0.981 1_545 S
O1676 C1621 1.426 . S
O1676 C1622 1.334 . S
O1677 C1649 1.412 . S
O1677 C1650 1.393 . S
O1678 C1640 1.435 . S
O1678 C1675 1.477 . S
O1679 C1631 1.468 . S
O1679 C1632 1.408 . S
H1680 C1621 0.980 1_545 S
H1681 C1620 0.959 . S
H1682 C1620 0.959 . S
H1683 C1620 0.960 . S
H1684 C1623 0.929 . S
H1685 C1627 0.929 . S
H1686 C1628 0.959 . S
H1687 C1628 0.961 . S
H1688 C1628 0.961 . S
H1689 C1629 0.960 . S
H1690 C1629 0.960 . S
H1691 C1629 0.961 . S
H1692 C1631 0.980 . S
H1693 C1630 0.961 . S
H1694 C1630 0.960 . S
H1695 C1630 0.959 . S
H1696 C1633 0.910 1_565 S
H1697 C1637 0.931 . S
H1698 C1638 0.959 . S
H1699 C1638 0.961 . S
H1700 C1638 0.959 . S
H1701 C1639 0.960 . S
H1702 C1639 0.960 . S
H1703 C1639 0.960 . S
H1704 C1675 0.981 1_565 S
H1705 C1641 0.930 . S
H1706 C1645 0.930 . S
H1707 C1646 0.961 . S
H1708 C1646 0.960 . S
H1709 C1646 0.958 . S
H1710 C1647 0.961 . S
H1711 C1647 0.960 . S
H1712 C1647 0.960 . S
H1713 C1649 0.981 1_545 S
H1714 C1648 0.961 . S
H1715 C1648 0.961 . S
H1716 C1648 0.959 . S
H1717 C1651 0.932 . S
H1718 C1655 0.929 . S
H1719 C1656 0.961 . S
H1720 C1656 0.959 . S
H1721 C1656 0.959 . S
H1722 C1657 0.960 . S
H1723 C1657 0.962 . S
H1724 C1657 0.961 . S
H1725 C1659 0.929 . S
H1726 C1662 0.930 . S
H1727 C1663 0.929 . S
H1728 C1666 0.930 . S
H1729 C1669 0.981 . S
H1730 C1670 0.930 . S
H1731 C1674 0.962 . S
H1732 C1674 0.959 . S
H1733 C1674 0.958 . S
C1734 C1735 1.560 . S
C1734 H1795 0.959 . S
C1734 H1796 0.959 . S
C1734 H1797 0.960 . S
C1735 C1734 1.560 . S
C1735 O1790 1.426 . S
C1735 H1794 0.980 1_455 S
C1736 C1737 1.407 1_455 S
C1736 C1741 1.418 . S
C1736 O1790 1.334 . S
C1737 C1736 1.407 1_655 S
C1737 C1738 1.360 . S
C1737 H1798 0.929 . S
C1738 C1737 1.360 . S
C1738 C1739 1.401 . S
C1738 C1742 1.527 . S
C1739 C1738 1.401 . S
C1739 C1740 1.405 1_655 S
C1739 C1772 1.587 . S
C1740 C1739 1.405 1_455 S
C1740 C1741 1.332 . S
C1740 C1743 1.496 . S
C1741 C1736 1.418 . S
C1741 C1740 1.332 . S
C1741 H1799 0.929 . S
C1742 C1738 1.527 . S
C1742 H1800 0.959 . S
C1742 H1801 0.961 . S
C1742 H1802 0.961 . S
C1743 C1740 1.496 . S
C1743 H1803 0.960 . S
C1743 H1804 0.960 . S
C1743 H1805 0.961 . S
C1744 C1745 1.517 . S
C1744 H1807 0.961 . S
C1744 H1808 0.960 . S
C1744 H1809 0.959 . S
C1745 C1744 1.517 . S
C1745 O1793 1.468 . S
C1745 H1806 0.980 . S
C1746 C1747 1.349 . S
C1746 C1751 1.367 . S
C1746 O1793 1.408 . S
C1747 C1746 1.349 . S
C1747 C1748 1.407 . S
C1747 H1810 0.883 1_655 S
C1748 C1747 1.407 . S
C1748 C1749 1.449 . S
C1748 C1752 1.535 1_655 S
C1749 C1748 1.449 . S
C1749 C1750 1.384 . S
C1749 C1774 1.553 . S
C1750 C1749 1.384 . S
C1750 C1751 1.364 . S
C1750 C1753 1.450 . S
C1751 C1746 1.367 . S
C1751 C1750 1.364 . S
C1751 H1811 0.931 . S
C1752 C1748 1.535 1_455 S
C1752 H1812 0.959 . S
C1752 H1813 0.961 . S
C1752 H1814 0.959 . S
C1753 C1750 1.450 . S
C1753 H1815 0.960 . S
C1753 H1816 0.960 . S
C1753 H1817 0.960 . S
C1754 C1755 1.309 1_655 S
C1754 C1759 1.304 . S
C1754 O1792 1.435 . S
C1755 C1754 1.309 1_455 S
C1755 C1756 1.476 . S
C1755 H1819 0.930 . S
C1756 C1755 1.476 . S
C1756 C1757 1.400 1_455 S
C1756 C1760 1.567 . S
C1757 C1756 1.400 1_655 S
C1757 C1758 1.373 . S
C1757 C1779 1.432 . S
C1758 C1757 1.373 . S
C1758 C1759 1.339 . S
C1758 C1761 1.530 . S
C1759 C1754 1.304 . S
C1759 C1758 1.339 . S
C1759 H1820 0.930 . S
C1760 C1756 1.567 . S
C1760 H1821 0.961 . S
C1760 H1822 0.960 . S
C1760 H1823 0.958 . S
C1761 C1758 1.530 . S
C1761 H1824 0.961 . S
C1761 H1825 0.960 . S
C1761 H1826 0.960 . S
C1762 C1763 1.530 . S
C1762 H1828 0.961 . S
C1762 H1829 0.961 . S
C1762 H1830 0.959 . S
C1763 C1762 1.530 . S
C1763 O1791 1.412 . S
C1763 H1827 0.965 1_455 S
C1764 C1765 1.288 . S
C1764 C1769 1.377 1_455 S
C1764 O1791 1.393 . S
C1765 C1764 1.288 . S
C1765 C1766 1.369 . S
C1765 H1831 0.932 . S
C1766 C1765 1.369 . S
C1766 C1767 1.398 . S
C1766 C1770 1.527 . S
C1767 C1766 1.398 . S
C1767 C1768 1.380 1_455 S
C1767 C1781 1.497 1_455 S
C1768 C1767 1.380 1_655 S
C1768 C1769 1.383 . S
C1768 C1771 1.603 . S
C1769 C1764 1.377 1_655 S
C1769 C1768 1.383 . S
C1769 H1832 0.929 . S
C1770 C1766 1.527 . S
C1770 H1833 0.961 . S
C1770 H1834 0.959 . S
C1770 H1835 0.959 . S
C1771 C1768 1.603 . S
C1771 H1836 0.960 . S
C1771 H1837 0.962 . S
C1771 H1838 0.961 . S
C1772 C1739 1.587 . S
C1772 C1773 1.360 . S
C1772 C1785 1.412 . S
C1773 C1772 1.360 . S
C1773 C1774 1.365 . S
C1773 H1839 0.929 . S
C1774 C1749 1.553 . S
C1774 C1773 1.365 . S
C1774 C1775 1.404 . S
C1775 C1774 1.404 . S
C1775 C1776 1.395 . S
C1775 C1786 1.451 . S
C1776 C1775 1.395 . S
C1776 C1777 1.322 . S
C1776 H1840 0.930 . S
C1777 C1776 1.322 . S
C1777 C1778 1.459 . S
C1777 H1841 0.929 . S
C1778 C1777 1.459 . S
C1778 C1779 1.445 . S
C1778 C1787 1.395 . S
C1779 C1757 1.432 . S
C1779 C1778 1.445 . S
C1779 C1780 1.370 . S
C1780 C1779 1.370 . S
C1780 C1781 1.438 . S
C1780 H1842 0.930 . S
C1781 C1767 1.497 1_655 S
C1781 C1780 1.438 . S
C1781 C1782 1.360 . S
C1782 C1781 1.360 . S
C1782 C1783 1.401 . S
C1782 C1787 1.446 . S
C1783 C1782 1.401 . S
C1783 C1784 1.347 . S
C1783 H1843 0.929 . S
C1784 C1783 1.347 . S
C1784 C1785 1.455 . S
C1784 H1844 0.930 . S
C1785 C1772 1.412 . S
C1785 C1784 1.455 . S
C1785 C1786 1.331 . S
C1786 C1775 1.451 . S
C1786 C1785 1.331 . S
C1786 C1787 1.497 . S
C1787 C1778 1.395 . S
C1787 C1782 1.446 . S
C1787 C1786 1.497 . S
C1788 C1789 1.581 1_655 S
C1788 H1845 0.957 . S
C1788 H1846 0.959 . S
C1788 H1847 0.958 . S
C1789 C1788 1.581 1_455 S
C1789 O1792 1.395 1_455 S
C1789 H1818 1.007 . S
O1790 C1735 1.426 . S
O1790 C1736 1.334 . S
O1791 C1763 1.412 . S
O1791 C1764 1.393 . S
O1792 C1754 1.435 . S
O1792 C1789 1.395 1_655 S
O1793 C1745 1.468 . S
O1793 C1746 1.408 . S
H1794 C1735 0.980 1_655 S
H1795 C1734 0.959 . S
H1796 C1734 0.959 . S
H1797 C1734 0.960 . S
H1798 C1737 0.929 . S
H1799 C1741 0.929 . S
H1800 C1742 0.959 . S
H1801 C1742 0.961 . S
H1802 C1742 0.961 . S
H1803 C1743 0.960 . S
H1804 C1743 0.960 . S
H1805 C1743 0.961 . S
H1806 C1745 0.980 . S
H1807 C1744 0.961 . S
H1808 C1744 0.960 . S
H1809 C1744 0.959 . S
H1810 C1747 0.883 1_455 S
H1811 C1751 0.931 . S
H1812 C1752 0.959 . S
H1813 C1752 0.961 . S
H1814 C1752 0.959 . S
H1815 C1753 0.960 . S
H1816 C1753 0.960 . S
H1817 C1753 0.960 . S
H1818 C1789 1.007 . S
H1819 C1755 0.930 . S
H1820 C1759 0.930 . S
H1821 C1760 0.961 . S
H1822 C1760 0.960 . S
H1823 C1760 0.958 . S
H1824 C1761 0.961 . S
H1825 C1761 0.960 . S
H1826 C1761 0.960 . S
H1827 C1763 0.965 1_655 S
H1828 C1762 0.961 . S
H1829 C1762 0.961 . S
H1830 C1762 0.959 . S
H1831 C1765 0.932 . S
H1832 C1769 0.929 . S
H1833 C1770 0.961 . S
H1834 C1770 0.959 . S
H1835 C1770 0.959 . S
H1836 C1771 0.960 . S
H1837 C1771 0.962 . S
H1838 C1771 0.961 . S
H1839 C1773 0.929 . S
H1840 C1776 0.930 . S
H1841 C1777 0.929 . S
H1842 C1780 0.930 . S
H1843 C1783 0.929 . S
H1844 C1784 0.930 . S
H1845 C1788 0.957 . S
H1846 C1788 0.959 . S
H1847 C1788 0.958 . S
C1848 C1849 1.560 . S
C1848 H1909 0.959 . S
C1848 H1910 0.959 . S
C1848 H1911 0.960 . S
C1849 C1848 1.560 . S
C1849 O1904 1.426 . S
C1849 H1908 0.980 . S
C1850 C1851 1.407 . S
C1850 C1855 1.418 . S
C1850 O1904 1.334 . S
C1851 C1850 1.407 . S
C1851 C1852 1.360 . S
C1851 H1912 0.929 . S
C1852 C1851 1.360 . S
C1852 C1853 1.401 . S
C1852 C1856 1.527 . S
C1853 C1852 1.401 . S
C1853 C1854 1.405 . S
C1853 C1886 1.587 . S
C1854 C1853 1.405 . S
C1854 C1855 1.332 . S
C1854 C1857 1.496 . S
C1855 C1850 1.418 . S
C1855 C1854 1.332 . S
C1855 H1913 0.929 . S
C1856 C1852 1.527 . S
C1856 H1914 0.959 . S
C1856 H1915 0.961 . S
C1856 H1916 0.961 . S
C1857 C1854 1.496 . S
C1857 H1917 0.960 . S
C1857 H1918 0.960 . S
C1857 H1919 0.961 . S
C1858 C1859 1.517 . S
C1858 H1921 0.961 . S
C1858 H1922 0.960 . S
C1858 H1923 0.959 . S
C1859 C1858 1.517 . S
C1859 O1907 1.468 . S
C1859 H1920 0.980 . S
C1860 C1861 1.349 . S
C1860 C1865 1.367 . S
C1860 O1907 1.408 . S
C1861 C1860 1.349 . S
C1861 C1862 1.407 . S
C1861 H1924 0.930 . S
C1862 C1861 1.407 . S
C1862 C1863 1.449 . S
C1862 C1866 1.535 . S
C1863 C1862 1.449 . S
C1863 C1864 1.384 . S
C1863 C1888 1.553 . S
C1864 C1863 1.384 . S
C1864 C1865 1.364 . S
C1864 C1867 1.450 . S
C1865 C1860 1.367 . S
C1865 C1864 1.364 . S
C1865 H1925 0.931 . S
C1866 C1862 1.535 . S
C1866 H1926 0.959 . S
C1866 H1927 0.961 . S
C1866 H1928 0.959 . S
C1867 C1864 1.450 . S
C1867 H1929 0.960 . S
C1867 H1930 0.960 . S
C1867 H1931 0.960 . S
C1868 C1869 1.309 . S
C1868 C1873 1.304 . S
C1868 O1906 1.435 . S
C1869 C1868 1.309 . S
C1869 C1870 1.476 . S
C1869 H1933 0.930 . S
C1870 C1869 1.476 . S
C1870 C1871 1.400 . S
C1870 C1874 1.567 . S
C1871 C1870 1.400 . S
C1871 C1872 1.373 . S
C1871 C1893 1.432 . S
C1872 C1871 1.373 . S
C1872 C1873 1.339 . S
C1872 C1875 1.530 . S
C1873 C1868 1.304 . S
C1873 C1872 1.339 . S
C1873 H1934 0.930 . S
C1874 C1870 1.567 . S
C1874 H1935 0.961 . S
C1874 H1936 0.960 . S
C1874 H1937 0.958 . S
C1875 C1872 1.530 . S
C1875 H1938 0.961 . S
C1875 H1939 0.960 . S
C1875 H1940 0.960 . S
C1876 C1877 1.530 . S
C1876 H1942 0.961 . S
C1876 H1943 0.961 . S
C1876 H1944 0.959 . S
C1877 C1876 1.530 . S
C1877 O1905 1.412 . S
C1877 H1941 0.980 . S
C1878 C1879 1.288 . S
C1878 C1883 1.377 . S
C1878 O1905 1.393 . S
C1879 C1878 1.288 . S
C1879 C1880 1.369 . S
C1879 H1945 0.932 . S
C1880 C1879 1.369 . S
C1880 C1881 1.398 . S
C1880 C1884 1.527 . S
C1881 C1880 1.398 . S
C1881 C1882 1.380 . S
C1881 C1895 1.497 . S
C1882 C1881 1.380 . S
C1882 C1883 1.383 . S
C1882 C1885 1.603 . S
C1883 C1878 1.377 . S
C1883 C1882 1.383 . S
C1883 H1946 0.929 . S
C1884 C1880 1.527 . S
C1884 H1947 0.961 . S
C1884 H1948 0.959 . S
C1884 H1949 0.959 . S
C1885 C1882 1.603 . S
C1885 H1950 0.960 . S
C1885 H1951 0.962 . S
C1885 H1952 0.961 . S
C1886 C1853 1.587 . S
C1886 C1887 1.360 . S
C1886 C1899 1.412 . S
C1887 C1886 1.360 . S
C1887 C1888 1.365 . S
C1887 H1953 0.929 . S
C1888 C1863 1.553 . S
C1888 C1887 1.365 . S
C1888 C1889 1.404 . S
C1889 C1888 1.404 . S
C1889 C1890 1.395 . S
C1889 C1900 1.451 . S
C1890 C1889 1.395 . S
C1890 C1891 1.322 . S
C1890 H1954 0.930 . S
C1891 C1890 1.322 . S
C1891 C1892 1.459 . S
C1891 H1955 0.929 . S
C1892 C1891 1.459 . S
C1892 C1893 1.445 . S
C1892 C1901 1.395 . S
C1893 C1871 1.432 . S
C1893 C1892 1.445 . S
C1893 C1894 1.370 . S
C1894 C1893 1.370 . S
C1894 C1895 1.438 . S
C1894 H1956 0.930 . S
C1895 C1881 1.497 . S
C1895 C1894 1.438 . S
C1895 C1896 1.360 . S
C1896 C1895 1.360 . S
C1896 C1897 1.401 . S
C1896 C1901 1.446 . S
C1897 C1896 1.401 . S
C1897 C1898 1.347 . S
C1897 H1957 0.929 . S
C1898 C1897 1.347 . S
C1898 C1899 1.455 . S
C1898 H1958 0.930 . S
C1899 C1886 1.412 . S
C1899 C1898 1.455 . S
C1899 C1900 1.331 . S
C1900 C1889 1.451 . S
C1900 C1899 1.331 . S
C1900 C1901 1.497 . S
C1901 C1892 1.395 . S
C1901 C1896 1.446 . S
C1901 C1900 1.497 . S
C1902 C1903 1.582 . S
C1902 H1959 0.962 . S
C1902 H1960 0.959 . S
C1902 H1961 0.958 . S
C1903 C1902 1.582 . S
C1903 O1906 1.458 . S
C1903 H1932 0.980 . S
O1904 C1849 1.426 . S
O1904 C1850 1.334 . S
O1905 C1877 1.412 . S
O1905 C1878 1.393 . S
O1906 C1868 1.435 . S
O1906 C1903 1.458 . S
O1907 C1859 1.468 . S
O1907 C1860 1.408 . S
H1908 C1849 0.980 . S
H1909 C1848 0.959 . S
H1910 C1848 0.959 . S
H1911 C1848 0.960 . S
H1912 C1851 0.929 . S
H1913 C1855 0.929 . S
H1914 C1856 0.959 . S
H1915 C1856 0.961 . S
H1916 C1856 0.961 . S
H1917 C1857 0.960 . S
H1918 C1857 0.960 . S
H1919 C1857 0.961 . S
H1920 C1859 0.980 . S
H1921 C1858 0.961 . S
H1922 C1858 0.960 . S
H1923 C1858 0.959 . S
H1924 C1861 0.930 . S
H1925 C1865 0.931 . S
H1926 C1866 0.959 . S
H1927 C1866 0.961 . S
H1928 C1866 0.959 . S
H1929 C1867 0.960 . S
H1930 C1867 0.960 . S
H1931 C1867 0.960 . S
H1932 C1903 0.980 . S
H1933 C1869 0.930 . S
H1934 C1873 0.930 . S
H1935 C1874 0.961 . S
H1936 C1874 0.960 . S
H1937 C1874 0.958 . S
H1938 C1875 0.961 . S
H1939 C1875 0.960 . S
H1940 C1875 0.960 . S
H1941 C1877 0.980 . S
H1942 C1876 0.961 . S
H1943 C1876 0.961 . S
H1944 C1876 0.959 . S
H1945 C1879 0.932 . S
H1946 C1883 0.929 . S
H1947 C1884 0.961 . S
H1948 C1884 0.959 . S
H1949 C1884 0.959 . S
H1950 C1885 0.960 . S
H1951 C1885 0.962 . S
H1952 C1885 0.961 . S
H1953 C1887 0.929 . S
H1954 C1890 0.930 . S
H1955 C1891 0.929 . S
H1956 C1894 0.930 . S
H1957 C1897 0.929 . S
H1958 C1898 0.930 . S
H1959 C1902 0.962 . S
H1960 C1902 0.959 . S
H1961 C1902 0.958 . S
C1962 C1963 1.560 . S
C1962 H2023 0.959 . S
C1962 H2024 0.959 . S
C1962 H2025 0.960 . S
C1963 C1962 1.560 . S
C1963 O2018 1.426 . S
C1963 H2022 0.980 . S
C1964 C1965 1.407 . S
C1964 C1969 1.418 . S
C1964 O2018 1.334 . S
C1965 C1964 1.407 . S
C1965 C1966 1.360 . S
C1965 H2026 0.929 . S
C1966 C1965 1.360 . S
C1966 C1967 1.401 . S
C1966 C1970 1.527 . S
C1967 C1966 1.401 . S
C1967 C1968 1.405 . S
C1967 C2000 1.587 . S
C1968 C1967 1.405 . S
C1968 C1969 1.332 . S
C1968 C1971 1.496 . S
C1969 C1964 1.418 . S
C1969 C1968 1.332 . S
C1969 H2027 0.929 . S
C1970 C1966 1.527 . S
C1970 H2028 0.959 . S
C1970 H2029 0.961 . S
C1970 H2030 0.961 . S
C1971 C1968 1.496 . S
C1971 H2031 0.960 . S
C1971 H2032 0.960 . S
C1971 H2033 0.961 . S
C1972 C1973 1.517 . S
C1972 H2035 0.961 . S
C1972 H2036 0.960 . S
C1972 H2037 0.959 . S
C1973 C1972 1.517 . S
C1973 O2021 1.468 . S
C1973 H2034 0.980 . S
C1974 C1975 1.349 . S
C1974 C1979 1.367 . S
C1974 O2021 1.408 . S
C1975 C1974 1.349 . S
C1975 C1976 1.407 . S
C1975 H2038 0.930 . S
C1976 C1975 1.407 . S
C1976 C1977 1.449 . S
C1976 C1980 1.535 . S
C1977 C1976 1.449 . S
C1977 C1978 1.384 . S
C1977 C2002 1.553 . S
C1978 C1977 1.384 . S
C1978 C1979 1.364 . S
C1978 C1981 1.450 . S
C1979 C1974 1.367 . S
C1979 C1978 1.364 . S
C1979 H2039 0.931 . S
C1980 C1976 1.535 . S
C1980 H2040 0.959 . S
C1980 H2041 0.961 . S
C1980 H2042 0.959 . S
C1981 C1978 1.450 . S
C1981 H2043 0.960 . S
C1981 H2044 0.960 . S
C1981 H2045 0.960 . S
C1982 C1983 1.309 . S
C1982 C1987 1.304 . S
C1982 O2020 1.435 . S
C1983 C1982 1.309 . S
C1983 C1984 1.476 . S
C1983 H2047 0.930 . S
C1984 C1983 1.476 . S
C1984 C1985 1.400 . S
C1984 C1988 1.567 . S
C1985 C1984 1.400 . S
C1985 C1986 1.373 . S
C1985 C2007 1.432 . S
C1986 C1985 1.373 . S
C1986 C1987 1.339 . S
C1986 C1989 1.530 . S
C1987 C1982 1.304 . S
C1987 C1986 1.339 . S
C1987 H2048 0.930 . S
C1988 C1984 1.567 . S
C1988 H2049 0.961 . S
C1988 H2050 0.960 . S
C1988 H2051 0.958 . S
C1989 C1986 1.530 . S
C1989 H2052 0.961 . S
C1989 H2053 0.960 . S
C1989 H2054 0.960 . S
C1990 C1991 1.530 . S
C1990 H2056 0.961 . S
C1990 H2057 0.961 . S
C1990 H2058 0.959 . S
C1991 C1990 1.530 . S
C1991 O2019 1.412 . S
C1991 H2055 0.980 . S
C1992 C1993 1.288 . S
C1992 C1997 1.377 . S
C1992 O2019 1.393 . S
C1993 C1992 1.288 . S
C1993 C1994 1.369 . S
C1993 H2059 0.932 . S
C1994 C1993 1.369 . S
C1994 C1995 1.398 . S
C1994 C1998 1.527 . S
C1995 C1994 1.398 . S
C1995 C1996 1.380 . S
C1995 C2009 1.497 . S
C1996 C1995 1.380 . S
C1996 C1997 1.383 . S
C1996 C1999 1.603 . S
C1997 C1992 1.377 . S
C1997 C1996 1.383 . S
C1997 H2060 0.929 . S
C1998 C1994 1.527 . S
C1998 H2061 0.961 . S
C1998 H2062 0.959 . S
C1998 H2063 0.959 . S
C1999 C1996 1.603 . S
C1999 H2064 0.960 . S
C1999 H2065 0.962 . S
C1999 H2066 0.961 . S
C2000 C1967 1.587 . S
C2000 C2001 1.360 . S
C2000 C2013 1.412 . S
C2001 C2000 1.360 . S
C2001 C2002 1.365 . S
C2001 H2067 0.929 . S
C2002 C1977 1.553 . S
C2002 C2001 1.365 . S
C2002 C2003 1.404 . S
C2003 C2002 1.404 . S
C2003 C2004 1.395 . S
C2003 C2014 1.451 . S
C2004 C2003 1.395 . S
C2004 C2005 1.322 . S
C2004 H2068 0.930 . S
C2005 C2004 1.322 . S
C2005 C2006 1.459 . S
C2005 H2069 0.929 . S
C2006 C2005 1.459 . S
C2006 C2007 1.445 . S
C2006 C2015 1.395 . S
C2007 C1985 1.432 . S
C2007 C2006 1.445 . S
C2007 C2008 1.370 . S
C2008 C2007 1.370 . S
C2008 C2009 1.438 . S
C2008 H2070 0.930 . S
C2009 C1995 1.497 . S
C2009 C2008 1.438 . S
C2009 C2010 1.360 . S
C2010 C2009 1.360 . S
C2010 C2011 1.401 . S
C2010 C2015 1.446 . S
C2011 C2010 1.401 . S
C2011 C2012 1.347 . S
C2011 H2071 0.929 . S
C2012 C2011 1.347 . S
C2012 C2013 1.455 . S
C2012 H2072 0.930 . S
C2013 C2000 1.412 . S
C2013 C2012 1.455 . S
C2013 C2014 1.331 . S
C2014 C2003 1.451 . S
C2014 C2013 1.331 . S
C2014 C2015 1.497 . S
C2015 C2006 1.395 . S
C2015 C2010 1.446 . S
C2015 C2014 1.497 . S
C2016 C2017 1.582 . S
C2016 H2073 0.962 . S
C2016 H2074 0.959 . S
C2016 H2075 0.958 . S
C2017 C2016 1.582 . S
C2017 O2020 1.458 . S
C2017 H2046 0.980 . S
O2018 C1963 1.426 . S
O2018 C1964 1.334 . S
O2019 C1991 1.412 . S
O2019 C1992 1.393 . S
O2020 C1982 1.435 . S
O2020 C2017 1.458 . S
O2021 C1973 1.468 . S
O2021 C1974 1.408 . S
H2022 C1963 0.980 . S
H2023 C1962 0.959 . S
H2024 C1962 0.959 . S
H2025 C1962 0.960 . S
H2026 C1965 0.929 . S
H2027 C1969 0.929 . S
H2028 C1970 0.959 . S
H2029 C1970 0.961 . S
H2030 C1970 0.961 . S
H2031 C1971 0.960 . S
H2032 C1971 0.960 . S
H2033 C1971 0.961 . S
H2034 C1973 0.980 . S
H2035 C1972 0.961 . S
H2036 C1972 0.960 . S
H2037 C1972 0.959 . S
H2038 C1975 0.930 . S
H2039 C1979 0.931 . S
H2040 C1980 0.959 . S
H2041 C1980 0.961 . S
H2042 C1980 0.959 . S
H2043 C1981 0.960 . S
H2044 C1981 0.960 . S
H2045 C1981 0.960 . S
H2046 C2017 0.980 . S
H2047 C1983 0.930 . S
H2048 C1987 0.930 . S
H2049 C1988 0.961 . S
H2050 C1988 0.960 . S
H2051 C1988 0.958 . S
H2052 C1989 0.961 . S
H2053 C1989 0.960 . S
H2054 C1989 0.960 . S
H2055 C1991 0.980 . S
H2056 C1990 0.961 . S
H2057 C1990 0.961 . S
H2058 C1990 0.959 . S
H2059 C1993 0.932 . S
H2060 C1997 0.929 . S
H2061 C1998 0.961 . S
H2062 C1998 0.959 . S
H2063 C1998 0.959 . S
H2064 C1999 0.960 . S
H2065 C1999 0.962 . S
H2066 C1999 0.961 . S
H2067 C2001 0.929 . S
H2068 C2004 0.930 . S
H2069 C2005 0.929 . S
H2070 C2008 0.930 . S
H2071 C2011 0.929 . S
H2072 C2012 0.930 . S
H2073 C2016 0.962 . S
H2074 C2016 0.959 . S
H2075 C2016 0.958 . S
C2076 C2077 1.560 . S
C2076 H2137 0.959 . S
C2076 H2138 0.959 . S
C2076 H2139 0.960 . S
C2077 C2076 1.560 . S
C2077 O2132 1.426 . S
C2077 H2136 0.980 . S
C2078 C2079 1.407 . S
C2078 C2083 1.418 . S
C2078 O2132 1.334 . S
C2079 C2078 1.407 . S
C2079 C2080 1.360 . S
C2079 H2140 0.929 . S
C2080 C2079 1.360 . S
C2080 C2081 1.401 . S
C2080 C2084 1.527 . S
C2081 C2080 1.401 . S
C2081 C2082 1.405 . S
C2081 C2114 1.587 . S
C2082 C2081 1.405 . S
C2082 C2083 1.332 . S
C2082 C2085 1.496 . S
C2083 C2078 1.418 . S
C2083 C2082 1.332 . S
C2083 H2141 0.929 . S
C2084 C2080 1.527 . S
C2084 H2142 0.959 . S
C2084 H2143 0.961 . S
C2084 H2144 0.961 . S
C2085 C2082 1.496 . S
C2085 H2145 0.960 . S
C2085 H2146 0.960 . S
C2085 H2147 0.961 . S
C2086 C2087 1.517 . S
C2086 H2149 0.961 . S
C2086 H2150 0.960 . S
C2086 H2151 0.959 . S
C2087 C2086 1.517 . S
C2087 O2135 1.468 . S
C2087 H2148 0.980 . S
C2088 C2089 1.349 . S
C2088 C2093 1.367 . S
C2088 O2135 1.408 . S
C2089 C2088 1.349 . S
C2089 C2090 1.407 . S
C2089 H2152 0.930 . S
C2090 C2089 1.407 . S
C2090 C2091 1.449 . S
C2090 C2094 1.535 . S
C2091 C2090 1.449 . S
C2091 C2092 1.384 . S
C2091 C2116 1.553 . S
C2092 C2091 1.384 . S
C2092 C2093 1.364 . S
C2092 C2095 1.450 . S
C2093 C2088 1.367 . S
C2093 C2092 1.364 . S
C2093 H2153 0.931 . S
C2094 C2090 1.535 . S
C2094 H2154 0.959 . S
C2094 H2155 0.961 . S
C2094 H2156 0.959 . S
C2095 C2092 1.450 . S
C2095 H2157 0.960 . S
C2095 H2158 0.960 . S
C2095 H2159 0.960 . S
C2096 C2097 1.309 . S
C2096 C2101 1.304 . S
C2096 O2134 1.435 . S
C2097 C2096 1.309 . S
C2097 C2098 1.476 . S
C2097 H2161 0.930 . S
C2098 C2097 1.476 . S
C2098 C2099 1.400 . S
C2098 C2102 1.567 . S
C2099 C2098 1.400 . S
C2099 C2100 1.373 . S
C2099 C2121 1.432 . S
C2100 C2099 1.373 . S
C2100 C2101 1.339 . S
C2100 C2103 1.530 . S
C2101 C2096 1.304 . S
C2101 C2100 1.339 . S
C2101 H2162 0.930 . S
C2102 C2098 1.567 . S
C2102 H2163 0.961 . S
C2102 H2164 0.960 . S
C2102 H2165 0.958 . S
C2103 C2100 1.530 . S
C2103 H2166 0.961 . S
C2103 H2167 0.960 . S
C2103 H2168 0.960 . S
C2104 C2105 1.530 . S
C2104 H2170 0.961 . S
C2104 H2171 0.961 . S
C2104 H2172 0.959 . S
C2105 C2104 1.530 . S
C2105 O2133 1.412 . S
C2105 H2169 0.980 . S
C2106 C2107 1.288 . S
C2106 C2111 1.377 . S
C2106 O2133 1.393 . S
C2107 C2106 1.288 . S
C2107 C2108 1.369 . S
C2107 H2173 0.932 . S
C2108 C2107 1.369 . S
C2108 C2109 1.398 . S
C2108 C2112 1.527 . S
C2109 C2108 1.398 . S
C2109 C2110 1.380 . S
C2109 C2123 1.497 . S
C2110 C2109 1.380 . S
C2110 C2111 1.383 . S
C2110 C2113 1.603 . S
C2111 C2106 1.377 . S
C2111 C2110 1.383 . S
C2111 H2174 0.929 . S
C2112 C2108 1.527 . S
C2112 H2175 0.961 . S
C2112 H2176 0.959 . S
C2112 H2177 0.959 . S
C2113 C2110 1.603 . S
C2113 H2178 0.960 . S
C2113 H2179 0.962 . S
C2113 H2180 0.961 . S
C2114 C2081 1.587 . S
C2114 C2115 1.360 . S
C2114 C2127 1.412 . S
C2115 C2114 1.360 . S
C2115 C2116 1.365 . S
C2115 H2181 0.929 . S
C2116 C2091 1.553 . S
C2116 C2115 1.365 . S
C2116 C2117 1.404 . S
C2117 C2116 1.404 . S
C2117 C2118 1.395 . S
C2117 C2128 1.451 . S
C2118 C2117 1.395 . S
C2118 C2119 1.322 . S
C2118 H2182 0.930 . S
C2119 C2118 1.322 . S
C2119 C2120 1.459 . S
C2119 H2183 0.929 . S
C2120 C2119 1.459 . S
C2120 C2121 1.445 . S
C2120 C2129 1.395 . S
C2121 C2099 1.432 . S
C2121 C2120 1.445 . S
C2121 C2122 1.370 . S
C2122 C2121 1.370 . S
C2122 C2123 1.438 . S
C2122 H2184 0.930 . S
C2123 C2109 1.497 . S
C2123 C2122 1.438 . S
C2123 C2124 1.360 . S
C2124 C2123 1.360 . S
C2124 C2125 1.401 . S
C2124 C2129 1.446 . S
C2125 C2124 1.401 . S
C2125 C2126 1.347 . S
C2125 H2185 0.929 . S
C2126 C2125 1.347 . S
C2126 C2127 1.455 . S
C2126 H2186 0.930 . S
C2127 C2114 1.412 . S
C2127 C2126 1.455 . S
C2127 C2128 1.331 . S
C2128 C2117 1.451 . S
C2128 C2127 1.331 . S
C2128 C2129 1.497 . S
C2129 C2120 1.395 . S
C2129 C2124 1.446 . S
C2129 C2128 1.497 . S
C2130 C2131 1.582 . S
C2130 H2187 0.962 . S
C2130 H2188 0.959 . S
C2130 H2189 0.958 . S
C2131 C2130 1.582 . S
C2131 O2134 1.458 . S
C2131 H2160 0.980 . S
O2132 C2077 1.426 . S
O2132 C2078 1.334 . S
O2133 C2105 1.412 . S
O2133 C2106 1.393 . S
O2134 C2096 1.435 . S
O2134 C2131 1.458 . S
O2135 C2087 1.468 . S
O2135 C2088 1.408 . S
H2136 C2077 0.980 . S
H2137 C2076 0.959 . S
H2138 C2076 0.959 . S
H2139 C2076 0.960 . S
H2140 C2079 0.929 . S
H2141 C2083 0.929 . S
H2142 C2084 0.959 . S
H2143 C2084 0.961 . S
H2144 C2084 0.961 . S
H2145 C2085 0.960 . S
H2146 C2085 0.960 . S
H2147 C2085 0.961 . S
H2148 C2087 0.980 . S
H2149 C2086 0.961 . S
H2150 C2086 0.960 . S
H2151 C2086 0.959 . S
H2152 C2089 0.930 . S
H2153 C2093 0.931 . S
H2154 C2094 0.959 . S
H2155 C2094 0.961 . S
H2156 C2094 0.959 . S
H2157 C2095 0.960 . S
H2158 C2095 0.960 . S
H2159 C2095 0.960 . S
H2160 C2131 0.980 . S
H2161 C2097 0.930 . S
H2162 C2101 0.930 . S
H2163 C2102 0.961 . S
H2164 C2102 0.960 . S
H2165 C2102 0.958 . S
H2166 C2103 0.961 . S
H2167 C2103 0.960 . S
H2168 C2103 0.960 . S
H2169 C2105 0.980 . S
H2170 C2104 0.961 . S
H2171 C2104 0.961 . S
H2172 C2104 0.959 . S
H2173 C2107 0.932 . S
H2174 C2111 0.929 . S
H2175 C2112 0.961 . S
H2176 C2112 0.959 . S
H2177 C2112 0.959 . S
H2178 C2113 0.960 . S
H2179 C2113 0.962 . S
H2180 C2113 0.961 . S
H2181 C2115 0.929 . S
H2182 C2118 0.930 . S
H2183 C2119 0.929 . S
H2184 C2122 0.930 . S
H2185 C2125 0.929 . S
H2186 C2126 0.930 . S
H2187 C2130 0.962 . S
H2188 C2130 0.959 . S
H2189 C2130 0.958 . S
C2190 C2191 1.560 . S
C2190 H2251 0.959 . S
C2190 H2252 0.959 . S
C2190 H2253 0.960 . S
C2191 C2190 1.560 . S
C2191 O2246 1.426 . S
C2191 H2250 0.980 . S
C2192 C2193 1.407 . S
C2192 C2197 1.418 . S
C2192 O2246 1.334 . S
C2193 C2192 1.407 . S
C2193 C2194 1.360 . S
C2193 H2254 0.929 . S
C2194 C2193 1.360 . S
C2194 C2195 1.401 . S
C2194 C2198 1.527 . S
C2195 C2194 1.401 . S
C2195 C2196 1.405 . S
C2195 C2228 1.587 . S
C2196 C2195 1.405 . S
C2196 C2197 1.332 . S
C2196 C2199 1.496 . S
C2197 C2192 1.418 . S
C2197 C2196 1.332 . S
C2197 H2255 0.929 . S
C2198 C2194 1.527 . S
C2198 H2256 0.959 . S
C2198 H2257 0.961 . S
C2198 H2258 0.961 . S
C2199 C2196 1.496 . S
C2199 H2259 0.960 . S
C2199 H2260 0.960 . S
C2199 H2261 0.961 . S
C2200 C2201 1.517 . S
C2200 H2263 0.961 . S
C2200 H2264 0.960 . S
C2200 H2265 0.959 . S
C2201 C2200 1.517 . S
C2201 O2249 1.468 . S
C2201 H2262 0.980 . S
C2202 C2203 1.349 . S
C2202 C2207 1.367 . S
C2202 O2249 1.408 . S
C2203 C2202 1.349 . S
C2203 C2204 1.407 . S
C2203 H2266 0.930 . S
C2204 C2203 1.407 . S
C2204 C2205 1.449 . S
C2204 C2208 1.535 . S
C2205 C2204 1.449 . S
C2205 C2206 1.384 . S
C2205 C2230 1.553 . S
C2206 C2205 1.384 . S
C2206 C2207 1.364 . S
C2206 C2209 1.450 . S
C2207 C2202 1.367 . S
C2207 C2206 1.364 . S
C2207 H2267 0.931 . S
C2208 C2204 1.535 . S
C2208 H2268 0.959 . S
C2208 H2269 0.961 . S
C2208 H2270 0.959 . S
C2209 C2206 1.450 . S
C2209 H2271 0.960 . S
C2209 H2272 0.960 . S
C2209 H2273 0.960 . S
C2210 C2211 1.309 . S
C2210 C2215 1.304 . S
C2210 O2248 1.435 . S
C2211 C2210 1.309 . S
C2211 C2212 1.476 . S
C2211 H2275 0.930 . S
C2212 C2211 1.476 . S
C2212 C2213 1.400 . S
C2212 C2216 1.567 . S
C2213 C2212 1.400 . S
C2213 C2214 1.373 . S
C2213 C2235 1.432 . S
C2214 C2213 1.373 . S
C2214 C2215 1.339 . S
C2214 C2217 1.530 . S
C2215 C2210 1.304 . S
C2215 C2214 1.339 . S
C2215 H2276 0.930 . S
C2216 C2212 1.567 . S
C2216 H2277 0.961 . S
C2216 H2278 0.960 . S
C2216 H2279 0.958 . S
C2217 C2214 1.530 . S
C2217 H2280 0.961 . S
C2217 H2281 0.960 . S
C2217 H2282 0.960 . S
C2218 C2219 1.530 . S
C2218 H2284 0.961 . S
C2218 H2285 0.961 . S
C2218 H2286 0.959 . S
C2219 C2218 1.530 . S
C2219 O2247 1.412 . S
C2219 H2283 0.980 . S
C2220 C2221 1.288 . S
C2220 C2225 1.377 . S
C2220 O2247 1.393 . S
C2221 C2220 1.288 . S
C2221 C2222 1.369 . S
C2221 H2287 0.932 . S
C2222 C2221 1.369 . S
C2222 C2223 1.398 . S
C2222 C2226 1.527 . S
C2223 C2222 1.398 . S
C2223 C2224 1.380 . S
C2223 C2237 1.497 . S
C2224 C2223 1.380 . S
C2224 C2225 1.383 . S
C2224 C2227 1.603 . S
C2225 C2220 1.377 . S
C2225 C2224 1.383 . S
C2225 H2288 0.929 . S
C2226 C2222 1.527 . S
C2226 H2289 0.961 . S
C2226 H2290 0.959 . S
C2226 H2291 0.959 . S
C2227 C2224 1.603 . S
C2227 H2292 0.960 . S
C2227 H2293 0.962 . S
C2227 H2294 0.961 . S
C2228 C2195 1.587 . S
C2228 C2229 1.360 . S
C2228 C2241 1.412 . S
C2229 C2228 1.360 . S
C2229 C2230 1.365 . S
C2229 H2295 0.929 . S
C2230 C2205 1.553 . S
C2230 C2229 1.365 . S
C2230 C2231 1.404 . S
C2231 C2230 1.404 . S
C2231 C2232 1.395 . S
C2231 C2242 1.451 . S
C2232 C2231 1.395 . S
C2232 C2233 1.322 . S
C2232 H2296 0.930 . S
C2233 C2232 1.322 . S
C2233 C2234 1.459 . S
C2233 H2297 0.929 . S
C2234 C2233 1.459 . S
C2234 C2235 1.445 . S
C2234 C2243 1.395 . S
C2235 C2213 1.432 . S
C2235 C2234 1.445 . S
C2235 C2236 1.370 . S
C2236 C2235 1.370 . S
C2236 C2237 1.438 . S
C2236 H2298 0.930 . S
C2237 C2223 1.497 . S
C2237 C2236 1.438 . S
C2237 C2238 1.360 . S
C2238 C2237 1.360 . S
C2238 C2239 1.401 . S
C2238 C2243 1.446 . S
C2239 C2238 1.401 . S
C2239 C2240 1.347 . S
C2239 H2299 0.929 . S
C2240 C2239 1.347 . S
C2240 C2241 1.455 . S
C2240 H2300 0.930 . S
C2241 C2228 1.412 . S
C2241 C2240 1.455 . S
C2241 C2242 1.331 . S
C2242 C2231 1.451 . S
C2242 C2241 1.331 . S
C2242 C2243 1.497 . S
C2243 C2234 1.395 . S
C2243 C2238 1.446 . S
C2243 C2242 1.497 . S
C2244 C2245 1.582 . S
C2244 H2301 0.962 . S
C2244 H2302 0.959 . S
C2244 H2303 0.958 . S
C2245 C2244 1.582 . S
C2245 O2248 1.458 . S
C2245 H2274 0.980 . S
O2246 C2191 1.426 . S
O2246 C2192 1.334 . S
O2247 C2219 1.412 . S
O2247 C2220 1.393 . S
O2248 C2210 1.435 . S
O2248 C2245 1.458 . S
O2249 C2201 1.468 . S
O2249 C2202 1.408 . S
H2250 C2191 0.980 . S
H2251 C2190 0.959 . S
H2252 C2190 0.959 . S
H2253 C2190 0.960 . S
H2254 C2193 0.929 . S
H2255 C2197 0.929 . S
H2256 C2198 0.959 . S
H2257 C2198 0.961 . S
H2258 C2198 0.961 . S
H2259 C2199 0.960 . S
H2260 C2199 0.960 . S
H2261 C2199 0.961 . S
H2262 C2201 0.980 . S
H2263 C2200 0.961 . S
H2264 C2200 0.960 . S
H2265 C2200 0.959 . S
H2266 C2203 0.930 . S
H2267 C2207 0.931 . S
H2268 C2208 0.959 . S
H2269 C2208 0.961 . S
H2270 C2208 0.959 . S
H2271 C2209 0.960 . S
H2272 C2209 0.960 . S
H2273 C2209 0.960 . S
H2274 C2245 0.980 . S
H2275 C2211 0.930 . S
H2276 C2215 0.930 . S
H2277 C2216 0.961 . S
H2278 C2216 0.960 . S
H2279 C2216 0.958 . S
H2280 C2217 0.961 . S
H2281 C2217 0.960 . S
H2282 C2217 0.960 . S
H2283 C2219 0.980 . S
H2284 C2218 0.961 . S
H2285 C2218 0.961 . S
H2286 C2218 0.959 . S
H2287 C2221 0.932 . S
H2288 C2225 0.929 . S
H2289 C2226 0.961 . S
H2290 C2226 0.959 . S
H2291 C2226 0.959 . S
H2292 C2227 0.960 . S
H2293 C2227 0.962 . S
H2294 C2227 0.961 . S
H2295 C2229 0.929 . S
H2296 C2232 0.930 . S
H2297 C2233 0.929 . S
H2298 C2236 0.930 . S
H2299 C2239 0.929 . S
H2300 C2240 0.930 . S
H2301 C2244 0.962 . S
H2302 C2244 0.959 . S
H2303 C2244 0.958 . S
H2304 C2312 0.950 . S
H2305 C2317 0.950 . S
H2306 C2314 0.950 . S
H2307 C2316 0.950 . S
H2308 C2318 0.950 . S
H2309 C2320 0.950 . S
H2310 C2322 0.950 . S
H2311 C2323 0.950 . S
C2312 H2304 0.950 . S
C2312 C2313 1.386 . S
C2312 C2314 1.391 . S
C2313 C2312 1.386 . S
C2313 C2317 1.393 . S
C2314 H2306 0.950 . S
C2314 C2312 1.391 . S
C2314 C2315 1.400 . S
C2315 C2314 1.400 . S
C2315 C2316 1.398 . S
C2315 C2321 1.491 . S
C2316 H2307 0.950 . S
C2316 C2315 1.398 . S
C2316 C2317 1.391 . S
C2317 H2305 0.950 . S
C2317 C2313 1.393 . S
C2317 C2316 1.391 . S
C2318 H2308 0.950 . S
C2318 C2319 1.386 . S
C2318 C2320 1.391 . S
C2319 C2318 1.386 . S
C2319 C2323 1.393 . S
C2320 H2309 0.950 . S
C2320 C2318 1.391 . S
C2320 C2321 1.400 . S
C2321 C2315 1.491 . S
C2321 C2320 1.400 . S
C2321 C2322 1.398 . S
C2322 H2310 0.950 . S
C2322 C2321 1.398 . S
C2322 C2323 1.391 . S
C2323 H2311 0.950 . S
C2323 C2319 1.393 . S
C2323 C2322 1.391 . S
H2324 C2332 0.950 . S
H2325 C2337 0.950 . S
H2326 C2334 0.950 . S
H2327 C2336 0.950 . S
H2328 C2338 0.950 . S
H2329 C2340 0.950 . S
H2330 C2342 0.950 . S
H2331 C2343 0.950 . S
C2332 H2324 0.950 . S
C2332 C2333 1.386 . S
C2332 C2334 1.391 . S
C2333 C2332 1.386 . S
C2333 C2337 1.393 . S
C2334 H2326 0.950 . S
C2334 C2332 1.391 . S
C2334 C2335 1.400 . S
C2335 C2334 1.400 . S
C2335 C2336 1.398 . S
C2335 C2341 1.491 . S
C2336 H2327 0.950 . S
C2336 C2335 1.398 . S
C2336 C2337 1.391 . S
C2337 H2325 0.950 . S
C2337 C2333 1.393 . S
C2337 C2336 1.391 . S
C2338 H2328 0.950 . S
C2338 C2339 1.386 . S
C2338 C2340 1.391 . S
C2339 C2338 1.386 . S
C2339 C2343 1.393 . S
C2340 H2329 0.950 . S
C2340 C2338 1.391 . S
C2340 C2341 1.400 . S
C2341 C2335 1.491 . S
C2341 C2340 1.400 . S
C2341 C2342 1.398 . S
C2342 H2330 0.950 . S
C2342 C2341 1.398 . S
C2342 C2343 1.391 . S
C2343 H2331 0.950 . S
C2343 C2339 1.393 . S
C2343 C2342 1.391 . S
H2344 C2352 0.950 1_565 S
H2345 C2357 0.950 . S
H2346 C2354 0.950 1_565 S
H2347 C2356 0.950 . S
H2348 C2358 0.950 . S
H2349 C2360 0.950 . S
H2350 C2362 0.979 . S
H2351 C2363 0.950 . S
C2352 H2344 0.950 1_545 S
C2352 C2353 1.386 . S
C2352 C2354 1.391 . S
C2353 C2352 1.386 . S
C2353 C2357 1.393 . S
C2354 H2346 0.950 1_545 S
C2354 C2352 1.391 . S
C2354 C2355 1.400 . S
C2355 C2354 1.400 . S
C2355 C2356 1.398 . S
C2355 C2361 1.491 . S
C2356 H2347 0.950 . S
C2356 C2355 1.398 . S
C2356 C2357 1.391 . S
C2357 H2345 0.950 . S
C2357 C2353 1.393 . S
C2357 C2356 1.391 . S
C2358 H2348 0.950 . S
C2358 C2359 1.386 . S
C2358 C2360 1.391 . S
C2359 C2358 1.386 . S
C2359 C2363 1.393 1_545 S
C2360 H2349 0.950 . S
C2360 C2358 1.391 . S
C2360 C2361 1.400 . S
C2361 C2355 1.491 . S
C2361 C2360 1.400 . S
C2361 C2362 1.344 1_545 S
C2362 H2350 0.979 . S
C2362 C2361 1.344 1_565 S
C2362 C2363 1.419 . S
C2363 H2351 0.950 . S
C2363 C2359 1.393 1_565 S
C2363 C2362 1.419 . S
H2364 C2372 0.976 . S
H2365 C2377 0.950 . S
H2366 C2374 0.950 . S
H2367 C2376 0.950 . S
H2368 C2378 0.950 . S
H2369 C2380 0.950 . S
H2370 C2382 0.950 . S
H2371 C2383 0.950 . S
C2372 H2364 0.976 . S
C2372 C2373 1.368 1_545 S
C2372 C2374 1.383 . S
C2373 C2372 1.368 1_565 S
C2373 C2377 1.393 . S
C2374 H2366 0.950 . S
C2374 C2372 1.383 . S
C2374 C2375 1.400 1_545 S
C2375 C2374 1.400 1_565 S
C2375 C2376 1.398 . S
C2375 C2381 1.491 . S
C2376 H2367 0.950 . S
C2376 C2375 1.398 . S
C2376 C2377 1.391 . S
C2377 H2365 0.950 . S
C2377 C2373 1.393 . S
C2377 C2376 1.391 . S
C2378 H2368 0.950 . S
C2378 C2379 1.386 . S
C2378 C2380 1.391 . S
C2379 C2378 1.386 . S
C2379 C2383 1.393 1_565 S
C2380 H2369 0.950 . S
C2380 C2378 1.391 . S
C2380 C2381 1.400 . S
C2381 C2375 1.491 . S
C2381 C2380 1.400 . S
C2381 C2382 1.398 1_565 S
C2382 H2370 0.950 . S
C2382 C2381 1.398 1_545 S
C2382 C2383 1.391 . S
C2383 H2371 0.950 . S
C2383 C2379 1.393 1_545 S
C2383 C2382 1.391 . S
H2384 C2392 0.950 . S
H2385 C2397 0.950 . S
H2386 C2394 0.950 . S
H2387 C2396 0.950 . S
H2388 C2398 0.950 . S
H2389 C2400 0.950 . S
H2390 C2402 0.950 . S
H2391 C2403 0.950 . S
C2392 H2384 0.950 . S
C2392 C2393 1.386 . S
C2392 C2394 1.391 . S
C2393 C2392 1.386 . S
C2393 C2397 1.393 . S
C2394 H2386 0.950 . S
C2394 C2392 1.391 . S
C2394 C2395 1.400 . S
C2395 C2394 1.400 . S
C2395 C2396 1.398 . S
C2395 C2401 1.491 . S
C2396 H2387 0.950 . S
C2396 C2395 1.398 . S
C2396 C2397 1.391 . S
C2397 H2385 0.950 . S
C2397 C2393 1.393 . S
C2397 C2396 1.391 . S
C2398 H2388 0.950 . S
C2398 C2399 1.386 . S
C2398 C2400 1.391 . S
C2399 C2398 1.386 . S
C2399 C2403 1.393 . S
C2400 H2389 0.950 . S
C2400 C2398 1.391 . S
C2400 C2401 1.400 . S
C2401 C2395 1.491 . S
C2401 C2400 1.400 . S
C2401 C2402 1.398 . S
C2402 H2390 0.950 . S
C2402 C2401 1.398 . S
C2402 C2403 1.391 . S
C2403 H2391 0.950 . S
C2403 C2399 1.393 . S
C2403 C2402 1.391 . S
H2404 C2412 0.950 . S
H2405 C2417 0.928 1_554 S
H2406 C2414 0.950 . S
H2407 C2416 0.950 . S
H2408 C2418 0.950 . S
H2409 C2420 0.950 . S
H2410 C2422 0.950 . S
H2411 C2423 0.950 . S
C2412 H2404 0.950 . S
C2412 C2413 1.386 . S
C2412 C2414 1.391 . S
C2413 C2412 1.386 . S
C2413 C2417 1.393 . S
C2414 H2406 0.950 . S
C2414 C2412 1.391 . S
C2414 C2415 1.400 . S
C2415 C2414 1.400 . S
C2415 C2416 1.398 . S
C2415 C2421 1.491 . S
C2416 H2407 0.950 . S
C2416 C2415 1.398 . S
C2416 C2417 1.391 . S
C2417 H2405 0.928 1_556 S
C2417 C2413 1.393 . S
C2417 C2416 1.391 . S
C2418 H2408 0.950 . S
C2418 C2419 1.386 . S
C2418 C2420 1.391 . S
C2419 C2418 1.386 . S
C2419 C2423 1.393 . S
C2420 H2409 0.950 . S
C2420 C2418 1.391 . S
C2420 C2421 1.400 . S
C2421 C2415 1.491 . S
C2421 C2420 1.400 . S
C2421 C2422 1.398 . S
C2422 H2410 0.950 . S
C2422 C2421 1.398 . S
C2422 C2423 1.391 . S
C2423 H2411 0.950 . S
C2423 C2419 1.393 . S
C2423 C2422 1.391 . S
H2424 C2432 0.950 . S
H2425 C2437 0.950 . S
H2426 C2434 0.950 . S
H2427 C2436 0.950 . S
H2428 C2438 0.950 . S
H2429 C2440 0.950 . S
H2430 C2442 0.950 . S
H2431 C2443 0.950 . S
C2432 H2424 0.950 . S
C2432 C2433 1.386 . S
C2432 C2434 1.391 . S
C2433 C2432 1.386 . S
C2433 C2437 1.393 1_455 S
C2434 H2426 0.950 . S
C2434 C2432 1.391 . S
C2434 C2435 1.400 . S
C2435 C2434 1.400 . S
C2435 C2436 1.398 1_455 S
C2435 C2441 1.491 . S
C2436 H2427 0.950 . S
C2436 C2435 1.398 1_655 S
C2436 C2437 1.391 . S
C2437 H2425 0.950 . S
C2437 C2433 1.393 1_655 S
C2437 C2436 1.391 . S
C2438 H2428 0.950 . S
C2438 C2439 1.386 1_655 S
C2438 C2440 1.391 . S
C2439 C2438 1.386 1_455 S
C2439 C2443 1.393 . S
C2440 H2429 0.950 . S
C2440 C2438 1.391 . S
C2440 C2441 1.400 1_655 S
C2441 C2435 1.491 . S
C2441 C2440 1.400 1_455 S
C2441 C2442 1.398 . S
C2442 H2430 0.950 . S
C2442 C2441 1.398 . S
C2442 C2443 1.391 . S
C2443 H2431 0.950 . S
C2443 C2439 1.393 . S
C2443 C2442 1.391 . S
H2444 C2452 0.950 . S
H2445 C2457 0.950 . S
H2446 C2454 0.950 . S
H2447 C2456 0.950 . S
H2448 C2458 0.950 . S
H2449 C2460 0.950 . S
H2450 C2462 0.950 . S
H2451 C2463 0.950 . S
C2452 H2444 0.950 . S
C2452 C2453 1.386 . S
C2452 C2454 1.391 . S
C2453 C2452 1.386 . S
C2453 C2457 1.393 . S
C2454 H2446 0.950 . S
C2454 C2452 1.391 . S
C2454 C2455 1.400 . S
C2455 C2454 1.400 . S
C2455 C2456 1.398 . S
C2455 C2461 1.491 . S
C2456 H2447 0.950 . S
C2456 C2455 1.398 . S
C2456 C2457 1.391 . S
C2457 H2445 0.950 . S
C2457 C2453 1.393 . S
C2457 C2456 1.391 . S
C2458 H2448 0.950 . S
C2458 C2459 1.386 . S
C2458 C2460 1.391 . S
C2459 C2458 1.386 . S
C2459 C2463 1.393 . S
C2460 H2449 0.950 . S
C2460 C2458 1.391 . S
C2460 C2461 1.400 . S
C2461 C2455 1.491 . S
C2461 C2460 1.400 . S
C2461 C2462 1.398 . S
C2462 H2450 0.950 . S
C2462 C2461 1.398 . S
C2462 C2463 1.391 . S
C2463 H2451 0.950 . S
C2463 C2459 1.393 . S
C2463 C2462 1.391 . S
H2464 C2472 0.950 1_554 S
H2465 C2477 0.950 . S
H2466 C2474 0.950 . S
H2467 C2476 0.950 . S
H2468 C2478 0.951 . S
H2469 C2480 0.950 . S
H2470 C2482 0.950 . S
H2471 C2483 0.950 . S
C2472 H2464 0.950 1_556 S
C2472 C2473 1.386 . S
C2472 C2474 1.391 . S
C2473 C2472 1.386 . S
C2473 C2477 1.393 . S
C2474 H2466 0.950 . S
C2474 C2472 1.391 . S
C2474 C2475 1.400 . S
C2475 C2474 1.400 . S
C2475 C2476 1.398 . S
C2475 C2481 1.491 . S
C2476 H2467 0.950 . S
C2476 C2475 1.398 . S
C2476 C2477 1.391 . S
C2477 H2465 0.950 . S
C2477 C2473 1.393 . S
C2477 C2476 1.391 . S
C2478 H2468 0.951 . S
C2478 C2479 1.386 . S
C2478 C2480 1.391 . S
C2479 C2478 1.386 . S
C2479 C2483 1.393 . S
C2480 H2469 0.950 . S
C2480 C2478 1.391 . S
C2480 C2481 1.400 . S
C2481 C2475 1.491 . S
C2481 C2480 1.400 . S
C2481 C2482 1.398 . S
C2482 H2470 0.950 . S
C2482 C2481 1.398 . S
C2482 C2483 1.391 . S
C2483 H2471 0.950 . S
C2483 C2479 1.393 . S
C2483 C2482 1.391 . S
H2484 C2492 0.911 1_565 S
H2485 C2497 0.950 . S
H2486 C2494 0.950 1_565 S
H2487 C2496 0.950 . S
H2488 C2498 0.950 . S
H2489 C2500 0.950 . S
H2490 C2502 0.950 . S
H2491 C2503 0.950 . S
C2492 H2484 0.911 1_545 S
C2492 C2493 1.386 . S
C2492 C2494 1.391 . S
C2493 C2492 1.386 . S
C2493 C2497 1.393 . S
C2494 H2486 0.950 1_545 S
C2494 C2492 1.391 . S
C2494 C2495 1.400 . S
C2495 C2494 1.400 . S
C2495 C2496 1.398 . S
C2495 C2501 1.491 . S
C2496 H2487 0.950 . S
C2496 C2495 1.398 . S
C2496 C2497 1.391 . S
C2497 H2485 0.950 . S
C2497 C2493 1.393 . S
C2497 C2496 1.391 . S
C2498 H2488 0.950 . S
C2498 C2499 1.386 . S
C2498 C2500 1.391 . S
C2499 C2498 1.386 . S
C2499 C2503 1.393 1_545 S
C2500 H2489 0.950 . S
C2500 C2498 1.391 . S
C2500 C2501 1.400 . S
C2501 C2495 1.491 . S
C2501 C2500 1.400 . S
C2501 C2502 1.398 1_545 S
C2502 H2490 0.950 . S
C2502 C2501 1.398 1_565 S
C2502 C2503 1.391 . S
C2503 H2491 0.950 . S
C2503 C2499 1.393 1_565 S
C2503 C2502 1.391 . S
H2504 C2512 0.950 . S
H2505 C2517 0.950 . S
H2506 C2514 0.950 . S
H2507 C2516 0.950 . S
H2508 C2518 0.950 . S
H2509 C2520 0.950 . S
H2510 C2522 0.950 . S
H2511 C2523 0.950 . S
C2512 H2504 0.950 . S
C2512 C2513 1.386 . S
C2512 C2514 1.391 . S
C2513 C2512 1.386 . S
C2513 C2517 1.393 . S
C2514 H2506 0.950 . S
C2514 C2512 1.391 . S
C2514 C2515 1.400 . S
C2515 C2514 1.400 . S
C2515 C2516 1.398 . S
C2515 C2521 1.491 . S
C2516 H2507 0.950 . S
C2516 C2515 1.398 . S
C2516 C2517 1.391 . S
C2517 H2505 0.950 . S
C2517 C2513 1.393 . S
C2517 C2516 1.391 . S
C2518 H2508 0.950 . S
C2518 C2519 1.386 . S
C2518 C2520 1.391 . S
C2519 C2518 1.386 . S
C2519 C2523 1.393 . S
C2520 H2509 0.950 . S
C2520 C2518 1.391 . S
C2520 C2521 1.400 . S
C2521 C2515 1.491 . S
C2521 C2520 1.400 . S
C2521 C2522 1.398 . S
C2522 H2510 0.950 . S
C2522 C2521 1.398 . S
C2522 C2523 1.391 . S
C2523 H2511 0.950 . S
C2523 C2519 1.393 . S
C2523 C2522 1.391 . S
H2524 C2532 0.950 . S
H2525 C2537 0.950 . S
H2526 C2534 0.950 . S
H2527 C2536 0.950 . S
H2528 C2538 0.950 . S
H2529 C2540 0.950 . S
H2530 C2542 0.950 . S
H2531 C2543 0.950 . S
C2532 H2524 0.950 . S
C2532 C2533 1.386 . S
C2532 C2534 1.391 . S
C2533 C2532 1.386 . S
C2533 C2537 1.393 . S
C2534 H2526 0.950 . S
C2534 C2532 1.391 . S
C2534 C2535 1.400 . S
C2535 C2534 1.400 . S
C2535 C2536 1.398 . S
C2535 C2541 1.491 . S
C2536 H2527 0.950 . S
C2536 C2535 1.398 . S
C2536 C2537 1.391 . S
C2537 H2525 0.950 . S
C2537 C2533 1.393 . S
C2537 C2536 1.391 . S
C2538 H2528 0.950 . S
C2538 C2539 1.386 . S
C2538 C2540 1.391 . S
C2539 C2538 1.386 . S
C2539 C2543 1.393 . S
C2540 H2529 0.950 . S
C2540 C2538 1.391 . S
C2540 C2541 1.400 . S
C2541 C2535 1.491 . S
C2541 C2540 1.400 . S
C2541 C2542 1.398 . S
C2542 H2530 0.950 . S
C2542 C2541 1.398 . S
C2542 C2543 1.391 . S
C2543 H2531 0.950 . S
C2543 C2539 1.393 . S
C2543 C2542 1.391 . S
H2544 C2552 0.950 . S
H2545 C2557 0.950 . S
H2546 C2554 0.950 . S
H2547 C2556 0.950 . S
H2548 C2558 0.950 . S
H2549 C2560 0.950 . S
H2550 C2562 0.950 . S
H2551 C2563 0.950 . S
C2552 H2544 0.950 . S
C2552 C2553 1.386 . S
C2552 C2554 1.391 . S
C2553 C2552 1.386 . S
C2553 C2557 1.393 . S
C2554 H2546 0.950 . S
C2554 C2552 1.391 . S
C2554 C2555 1.400 . S
C2555 C2554 1.400 . S
C2555 C2556 1.398 . S
C2555 C2561 1.491 . S
C2556 H2547 0.950 . S
C2556 C2555 1.398 . S
C2556 C2557 1.391 . S
C2557 H2545 0.950 . S
C2557 C2553 1.393 . S
C2557 C2556 1.391 . S
C2558 H2548 0.950 . S
C2558 C2559 1.386 . S
C2558 C2560 1.391 . S
C2559 C2558 1.386 . S
C2559 C2563 1.393 . S
C2560 H2549 0.950 . S
C2560 C2558 1.391 . S
C2560 C2561 1.400 . S
C2561 C2555 1.491 . S
C2561 C2560 1.400 . S
C2561 C2562 1.398 . S
C2562 H2550 0.950 . S
C2562 C2561 1.398 . S
C2562 C2563 1.391 . S
C2563 H2551 0.950 . S
C2563 C2559 1.393 . S
C2563 C2562 1.391 . S
H2564 C2572 0.950 . S
H2565 C2577 0.950 . S
H2566 C2574 0.950 . S
H2567 C2576 0.950 . S
H2568 C2578 0.950 . S
H2569 C2580 0.950 . S
H2570 C2582 0.950 . S
H2571 C2583 0.950 . S
C2572 H2564 0.950 . S
C2572 C2573 1.386 . S
C2572 C2574 1.391 . S
C2573 C2572 1.386 . S
C2573 C2577 1.393 . S
C2574 H2566 0.950 . S
C2574 C2572 1.391 . S
C2574 C2575 1.400 . S
C2575 C2574 1.400 . S
C2575 C2576 1.398 . S
C2575 C2581 1.491 . S
C2576 H2567 0.950 . S
C2576 C2575 1.398 . S
C2576 C2577 1.391 . S
C2577 H2565 0.950 . S
C2577 C2573 1.393 . S
C2577 C2576 1.391 . S
C2578 H2568 0.950 . S
C2578 C2579 1.386 . S
C2578 C2580 1.391 . S
C2579 C2578 1.386 . S
C2579 C2583 1.393 . S
C2580 H2569 0.950 . S
C2580 C2578 1.391 . S
C2580 C2581 1.400 . S
C2581 C2575 1.491 . S
C2581 C2580 1.400 . S
C2581 C2582 1.398 . S
C2582 H2570 0.950 . S
C2582 C2581 1.398 . S
C2582 C2583 1.391 . S
C2583 H2571 0.950 . S
C2583 C2579 1.393 . S
C2583 C2582 1.391 . S
H2584 C2592 0.950 . S
H2585 C2597 0.950 . S
H2586 C2594 0.950 . S
H2587 C2596 0.950 . S
H2588 C2598 0.950 . S
H2589 C2600 0.950 . S
H2590 C2602 0.950 . S
H2591 C2603 0.950 . S
C2592 H2584 0.950 . S
C2592 C2593 1.386 . S
C2592 C2594 1.391 . S
C2593 C2592 1.386 . S
C2593 C2597 1.393 . S
C2594 H2586 0.950 . S
C2594 C2592 1.391 . S
C2594 C2595 1.400 . S
C2595 C2594 1.400 . S
C2595 C2596 1.398 . S
C2595 C2601 1.491 . S
C2596 H2587 0.950 . S
C2596 C2595 1.398 . S
C2596 C2597 1.391 . S
C2597 H2585 0.950 . S
C2597 C2593 1.393 . S
C2597 C2596 1.391 . S
C2598 H2588 0.950 . S
C2598 C2599 1.386 . S
C2598 C2600 1.391 . S
C2599 C2598 1.386 . S
C2599 C2603 1.393 . S
C2600 H2589 0.950 . S
C2600 C2598 1.391 . S
C2600 C2601 1.400 . S
C2601 C2595 1.491 . S
C2601 C2600 1.400 . S
C2601 C2602 1.398 . S
C2602 H2590 0.950 . S
C2602 C2601 1.398 . S
C2602 C2603 1.391 . S
C2603 H2591 0.950 . S
C2603 C2599 1.393 . S
C2603 C2602 1.391 . S
H2604 C2612 0.950 . S
H2605 C2617 0.950 . S
H2606 C2614 0.950 . S
H2607 C2616 0.950 . S
H2608 C2618 0.950 . S
H2609 C2620 0.950 . S
H2610 C2622 0.950 . S
H2611 C2623 0.950 . S
C2612 H2604 0.950 . S
C2612 C2613 1.386 . S
C2612 C2614 1.391 . S
C2613 C2612 1.386 . S
C2613 C2617 1.393 . S
C2614 H2606 0.950 . S
C2614 C2612 1.391 . S
C2614 C2615 1.400 . S
C2615 C2614 1.400 . S
C2615 C2616 1.398 . S
C2615 C2621 1.491 . S
C2616 H2607 0.950 . S
C2616 C2615 1.398 . S
C2616 C2617 1.391 . S
C2617 H2605 0.950 . S
C2617 C2613 1.393 . S
C2617 C2616 1.391 . S
C2618 H2608 0.950 . S
C2618 C2619 1.386 . S
C2618 C2620 1.391 . S
C2619 C2618 1.386 . S
C2619 C2623 1.393 . S
C2620 H2609 0.950 . S
C2620 C2618 1.391 . S
C2620 C2621 1.400 . S
C2621 C2615 1.491 . S
C2621 C2620 1.400 . S
C2621 C2622 1.398 . S
C2622 H2610 0.950 . S
C2622 C2621 1.398 . S
C2622 C2623 1.391 . S
C2623 H2611 0.950 . S
C2623 C2619 1.393 . S
C2623 C2622 1.391 . S
H2624 C2632 0.950 . S
H2625 C2637 0.950 . S
H2626 C2634 0.950 . S
H2627 C2636 0.950 . S
H2628 C2638 0.950 . S
H2629 C2640 0.950 . S
H2630 C2642 0.950 . S
H2631 C2643 0.950 . S
C2632 H2624 0.950 . S
C2632 C2633 1.386 . S
C2632 C2634 1.391 . S
C2633 C2632 1.386 . S
C2633 C2637 1.393 . S
C2634 H2626 0.950 . S
C2634 C2632 1.391 . S
C2634 C2635 1.400 . S
C2635 C2634 1.400 . S
C2635 C2636 1.398 . S
C2635 C2641 1.491 . S
C2636 H2627 0.950 . S
C2636 C2635 1.398 . S
C2636 C2637 1.391 . S
C2637 H2625 0.950 . S
C2637 C2633 1.393 . S
C2637 C2636 1.391 . S
C2638 H2628 0.950 . S
C2638 C2639 1.386 . S
C2638 C2640 1.391 . S
C2639 C2638 1.386 . S
C2639 C2643 1.393 . S
C2640 H2629 0.950 . S
C2640 C2638 1.391 . S
C2640 C2641 1.400 . S
C2641 C2635 1.491 . S
C2641 C2640 1.400 . S
C2641 C2642 1.398 . S
C2642 H2630 0.950 . S
C2642 C2641 1.398 . S
C2642 C2643 1.391 . S
C2643 H2631 0.950 . S
C2643 C2639 1.393 . S
C2643 C2642 1.391 . S
H2644 C2652 0.950 . S
H2645 C2657 0.950 . S
H2646 C2654 0.950 . S
H2647 C2656 0.950 . S
H2648 C2658 0.950 . S
H2649 C2660 0.950 . S
H2650 C2662 0.950 . S
H2651 C2663 0.950 . S
C2652 H2644 0.950 . S
C2652 C2653 1.386 . S
C2652 C2654 1.391 . S
C2653 C2652 1.386 . S
C2653 C2657 1.393 . S
C2654 H2646 0.950 . S
C2654 C2652 1.391 . S
C2654 C2655 1.400 . S
C2655 C2654 1.400 . S
C2655 C2656 1.398 . S
C2655 C2661 1.491 . S
C2656 H2647 0.950 . S
C2656 C2655 1.398 . S
C2656 C2657 1.391 . S
C2657 H2645 0.950 . S
C2657 C2653 1.393 . S
C2657 C2656 1.391 . S
C2658 H2648 0.950 . S
C2658 C2659 1.386 . S
C2658 C2660 1.391 . S
C2659 C2658 1.386 . S
C2659 C2663 1.393 . S
C2660 H2649 0.950 . S
C2660 C2658 1.391 . S
C2660 C2661 1.400 . S
C2661 C2655 1.491 . S
C2661 C2660 1.400 . S
C2661 C2662 1.398 . S
C2662 H2650 0.950 . S
C2662 C2661 1.398 . S
C2662 C2663 1.391 . S
C2663 H2651 0.950 . S
C2663 C2659 1.393 . S
C2663 C2662 1.391 . S
H2664 C2672 0.950 . S
H2665 C2677 0.950 . S
H2666 C2674 0.950 . S
H2667 C2676 0.950 . S
H2668 C2678 0.950 . S
H2669 C2680 0.950 . S
H2670 C2682 0.950 . S
H2671 C2683 0.950 . S
C2672 H2664 0.950 . S
C2672 C2673 1.386 . S
C2672 C2674 1.391 . S
C2673 C2672 1.386 . S
C2673 C2677 1.393 . S
C2674 H2666 0.950 . S
C2674 C2672 1.391 . S
C2674 C2675 1.400 . S
C2675 C2674 1.400 . S
C2675 C2676 1.398 . S
C2675 C2681 1.491 . S
C2676 H2667 0.950 . S
C2676 C2675 1.398 . S
C2676 C2677 1.391 . S
C2677 H2665 0.950 . S
C2677 C2673 1.393 . S
C2677 C2676 1.391 . S
C2678 H2668 0.950 . S
C2678 C2679 1.386 . S
C2678 C2680 1.391 . S
C2679 C2678 1.386 . S
C2679 C2683 1.393 . S
C2680 H2669 0.950 . S
C2680 C2678 1.391 . S
C2680 C2681 1.400 . S
C2681 C2675 1.491 . S
C2681 C2680 1.400 . S
C2681 C2682 1.398 . S
C2682 H2670 0.950 . S
C2682 C2681 1.398 . S
C2682 C2683 1.391 . S
C2683 H2671 0.950 . S
C2683 C2679 1.393 . S
C2683 C2682 1.391 . S
H2684 C2692 0.950 . S
H2685 C2697 0.950 . S
H2686 C2694 0.950 . S
H2687 C2696 0.950 . S
H2688 C2698 0.950 . S
H2689 C2700 0.950 . S
H2690 C2702 0.950 . S
H2691 C2703 0.950 . S
C2692 H2684 0.950 . S
C2692 C2693 1.386 . S
C2692 C2694 1.391 . S
C2693 C2692 1.386 . S
C2693 C2697 1.393 . S
C2694 H2686 0.950 . S
C2694 C2692 1.391 . S
C2694 C2695 1.400 . S
C2695 C2694 1.400 . S
C2695 C2696 1.398 . S
C2695 C2701 1.491 . S
C2696 H2687 0.950 . S
C2696 C2695 1.398 . S
C2696 C2697 1.391 . S
C2697 H2685 0.950 . S
C2697 C2693 1.393 . S
C2697 C2696 1.391 . S
C2698 H2688 0.950 . S
C2698 C2699 1.386 . S
C2698 C2700 1.391 . S
C2699 C2698 1.386 . S
C2699 C2703 1.393 . S
C2700 H2689 0.950 . S
C2700 C2698 1.391 . S
C2700 C2701 1.400 . S
C2701 C2695 1.491 . S
C2701 C2700 1.400 . S
C2701 C2702 1.398 . S
C2702 H2690 0.950 . S
C2702 C2701 1.398 . S
C2702 C2703 1.391 . S
C2703 H2691 0.950 . S
C2703 C2699 1.393 . S
C2703 C2702 1.391 . S
H2704 C2712 0.950 . S
H2705 C2717 0.950 . S
H2706 C2714 0.950 . S
H2707 C2716 0.950 . S
H2708 C2718 0.950 . S
H2709 C2720 0.950 . S
H2710 C2722 0.950 . S
H2711 C2723 0.950 . S
C2712 H2704 0.950 . S
C2712 C2713 1.386 . S
C2712 C2714 1.391 . S
C2713 C2712 1.386 . S
C2713 C2717 1.393 . S
C2714 H2706 0.950 . S
C2714 C2712 1.391 . S
C2714 C2715 1.400 . S
C2715 C2714 1.400 . S
C2715 C2716 1.398 . S
C2715 C2721 1.491 . S
C2716 H2707 0.950 . S
C2716 C2715 1.398 . S
C2716 C2717 1.391 . S
C2717 H2705 0.950 . S
C2717 C2713 1.393 . S
C2717 C2716 1.391 . S
C2718 H2708 0.950 . S
C2718 C2719 1.386 . S
C2718 C2720 1.391 . S
C2719 C2718 1.386 . S
C2719 C2723 1.393 . S
C2720 H2709 0.950 . S
C2720 C2718 1.391 . S
C2720 C2721 1.400 . S
C2721 C2715 1.491 . S
C2721 C2720 1.400 . S
C2721 C2722 1.398 . S
C2722 H2710 0.950 . S
C2722 C2721 1.398 . S
C2722 C2723 1.391 . S
C2723 H2711 0.950 . S
C2723 C2719 1.393 . S
C2723 C2722 1.391 . S
H2724 C2732 0.950 . S
H2725 C2737 0.950 . S
H2726 C2734 0.950 . S
H2727 C2736 0.950 . S
H2728 C2738 0.950 . S
H2729 C2740 0.950 . S
H2730 C2742 0.950 . S
H2731 C2743 0.950 . S
C2732 H2724 0.950 . S
C2732 C2733 1.386 . S
C2732 C2734 1.391 . S
C2733 C2732 1.386 . S
C2733 C2737 1.393 . S
C2734 H2726 0.950 . S
C2734 C2732 1.391 . S
C2734 C2735 1.400 . S
C2735 C2734 1.400 . S
C2735 C2736 1.398 . S
C2735 C2741 1.491 . S
C2736 H2727 0.950 . S
C2736 C2735 1.398 . S
C2736 C2737 1.391 . S
C2737 H2725 0.950 . S
C2737 C2733 1.393 . S
C2737 C2736 1.391 . S
C2738 H2728 0.950 . S
C2738 C2739 1.386 . S
C2738 C2740 1.391 . S
C2739 C2738 1.386 . S
C2739 C2743 1.393 . S
C2740 H2729 0.950 . S
C2740 C2738 1.391 . S
C2740 C2741 1.400 . S
C2741 C2735 1.491 . S
C2741 C2740 1.400 . S
C2741 C2742 1.398 . S
C2742 H2730 0.950 . S
C2742 C2741 1.398 . S
C2742 C2743 1.391 . S
C2743 H2731 0.950 . S
C2743 C2739 1.393 . S
C2743 C2742 1.391 . S
H2744 C2752 0.950 . S
H2745 C2757 0.950 . S
H2746 C2754 0.950 . S
H2747 C2756 0.950 . S
H2748 C2758 0.950 . S
H2749 C2760 0.950 . S
H2750 C2762 0.950 . S
H2751 C2763 0.950 . S
C2752 H2744 0.950 . S
C2752 C2753 1.386 . S
C2752 C2754 1.391 . S
C2753 C2752 1.386 . S
C2753 C2757 1.393 . S
C2754 H2746 0.950 . S
C2754 C2752 1.391 . S
C2754 C2755 1.400 . S
C2755 C2754 1.400 . S
C2755 C2756 1.398 . S
C2755 C2761 1.491 . S
C2756 H2747 0.950 . S
C2756 C2755 1.398 . S
C2756 C2757 1.391 . S
C2757 H2745 0.950 . S
C2757 C2753 1.393 . S
C2757 C2756 1.391 . S
C2758 H2748 0.950 . S
C2758 C2759 1.386 . S
C2758 C2760 1.391 . S
C2759 C2758 1.386 . S
C2759 C2763 1.393 . S
C2760 H2749 0.950 . S
C2760 C2758 1.391 . S
C2760 C2761 1.400 . S
C2761 C2755 1.491 . S
C2761 C2760 1.400 . S
C2761 C2762 1.398 . S
C2762 H2750 0.950 . S
C2762 C2761 1.398 . S
C2762 C2763 1.391 . S
C2763 H2751 0.950 . S
C2763 C2759 1.393 . S
C2763 C2762 1.391 . S
H2764 C2772 0.950 . S
H2765 C2777 0.950 . S
H2766 C2774 0.950 . S
H2767 C2776 0.950 . S
H2768 C2778 0.950 . S
H2769 C2780 0.950 . S
H2770 C2782 0.950 . S
H2771 C2783 0.950 . S
C2772 H2764 0.950 . S
C2772 C2773 1.386 . S
C2772 C2774 1.391 . S
C2773 C2772 1.386 . S
C2773 C2777 1.393 . S
C2774 H2766 0.950 . S
C2774 C2772 1.391 . S
C2774 C2775 1.400 . S
C2775 C2774 1.400 . S
C2775 C2776 1.398 . S
C2775 C2781 1.491 . S
C2776 H2767 0.950 . S
C2776 C2775 1.398 . S
C2776 C2777 1.391 . S
C2777 H2765 0.950 . S
C2777 C2773 1.393 . S
C2777 C2776 1.391 . S
C2778 H2768 0.950 . S
C2778 C2779 1.386 . S
C2778 C2780 1.391 . S
C2779 C2778 1.386 . S
C2779 C2783 1.393 . S
C2780 H2769 0.950 . S
C2780 C2778 1.391 . S
C2780 C2781 1.400 . S
C2781 C2775 1.491 . S
C2781 C2780 1.400 . S
C2781 C2782 1.398 . S
C2782 H2770 0.950 . S
C2782 C2781 1.398 . S
C2782 C2783 1.391 . S
C2783 H2771 0.950 . S
C2783 C2779 1.393 . S
C2783 C2782 1.391 . S
H2784 C2792 0.950 . S
H2785 C2797 0.950 . S
H2786 C2794 0.950 . S
H2787 C2796 0.950 . S
H2788 C2798 0.950 . S
H2789 C2800 0.950 . S
H2790 C2802 0.950 . S
H2791 C2803 0.950 . S
C2792 H2784 0.950 . S
C2792 C2793 1.386 . S
C2792 C2794 1.391 . S
C2793 C2792 1.386 . S
C2793 C2797 1.393 . S
C2794 H2786 0.950 . S
C2794 C2792 1.391 . S
C2794 C2795 1.400 . S
C2795 C2794 1.400 . S
C2795 C2796 1.398 . S
C2795 C2801 1.491 . S
C2796 H2787 0.950 . S
C2796 C2795 1.398 . S
C2796 C2797 1.391 . S
C2797 H2785 0.950 . S
C2797 C2793 1.393 . S
C2797 C2796 1.391 . S
C2798 H2788 0.950 . S
C2798 C2799 1.386 . S
C2798 C2800 1.391 . S
C2799 C2798 1.386 . S
C2799 C2803 1.393 . S
C2800 H2789 0.950 . S
C2800 C2798 1.391 . S
C2800 C2801 1.400 . S
C2801 C2795 1.491 . S
C2801 C2800 1.400 . S
C2801 C2802 1.398 . S
C2802 H2790 0.950 . S
C2802 C2801 1.398 . S
C2802 C2803 1.391 . S
C2803 H2791 0.950 . S
C2803 C2799 1.393 . S
C2803 C2802 1.391 . S
H2804 C2812 0.950 . S
H2805 C2817 0.950 . S
H2806 C2814 0.950 . S
H2807 C2816 0.950 . S
H2808 C2818 0.950 . S
H2809 C2820 0.950 . S
H2810 C2822 0.950 . S
H2811 C2823 0.950 . S
C2812 H2804 0.950 . S
C2812 C2813 1.386 . S
C2812 C2814 1.391 . S
C2813 C2812 1.386 . S
C2813 C2817 1.393 . S
C2814 H2806 0.950 . S
C2814 C2812 1.391 . S
C2814 C2815 1.400 . S
C2815 C2814 1.400 . S
C2815 C2816 1.398 . S
C2815 C2821 1.491 . S
C2816 H2807 0.950 . S
C2816 C2815 1.398 . S
C2816 C2817 1.391 . S
C2817 H2805 0.950 . S
C2817 C2813 1.393 . S
C2817 C2816 1.391 . S
C2818 H2808 0.950 . S
C2818 C2819 1.386 . S
C2818 C2820 1.391 . S
C2819 C2818 1.386 . S
C2819 C2823 1.393 . S
C2820 H2809 0.950 . S
C2820 C2818 1.391 . S
C2820 C2821 1.400 . S
C2821 C2815 1.491 . S
C2821 C2820 1.400 . S
C2821 C2822 1.398 . S
C2822 H2810 0.950 . S
C2822 C2821 1.398 . S
C2822 C2823 1.391 . S
C2823 H2811 0.950 . S
C2823 C2819 1.393 . S
C2823 C2822 1.391 . S
H2824 C2832 0.950 . S
H2825 C2837 0.950 . S
H2826 C2834 0.950 . S
H2827 C2836 0.950 . S
H2828 C2838 0.950 . S
H2829 C2840 0.950 . S
H2830 C2842 0.950 . S
H2831 C2843 0.950 . S
C2832 H2824 0.950 . S
C2832 C2833 1.386 . S
C2832 C2834 1.391 . S
C2833 C2832 1.386 . S
C2833 C2837 1.393 . S
C2834 H2826 0.950 . S
C2834 C2832 1.391 . S
C2834 C2835 1.400 . S
C2835 C2834 1.400 . S
C2835 C2836 1.398 . S
C2835 C2841 1.491 . S
C2836 H2827 0.950 . S
C2836 C2835 1.398 . S
C2836 C2837 1.391 . S
C2837 H2825 0.950 . S
C2837 C2833 1.393 . S
C2837 C2836 1.391 . S
C2838 H2828 0.950 . S
C2838 C2839 1.386 . S
C2838 C2840 1.391 . S
C2839 C2838 1.386 . S
C2839 C2843 1.393 . S
C2840 H2829 0.950 . S
C2840 C2838 1.391 . S
C2840 C2841 1.400 . S
C2841 C2835 1.491 . S
C2841 C2840 1.400 . S
C2841 C2842 1.398 . S
C2842 H2830 0.950 . S
C2842 C2841 1.398 . S
C2842 C2843 1.391 . S
C2843 H2831 0.950 . S
C2843 C2839 1.393 . S
C2843 C2842 1.391 . S
H2844 C2852 0.950 . S
H2845 C2857 0.950 . S
H2846 C2854 0.950 . S
H2847 C2856 0.950 . S
H2848 C2858 0.950 . S
H2849 C2860 0.950 . S
H2850 C2862 0.950 . S
H2851 C2863 0.950 . S
C2852 H2844 0.950 . S
C2852 C2853 1.386 . S
C2852 C2854 1.391 . S
C2853 C2852 1.386 . S
C2853 C2857 1.393 . S
C2854 H2846 0.950 . S
C2854 C2852 1.391 . S
C2854 C2855 1.400 . S
C2855 C2854 1.400 . S
C2855 C2856 1.398 . S
C2855 C2861 1.491 . S
C2856 H2847 0.950 . S
C2856 C2855 1.398 . S
C2856 C2857 1.391 . S
C2857 H2845 0.950 . S
C2857 C2853 1.393 . S
C2857 C2856 1.391 . S
C2858 H2848 0.950 . S
C2858 C2859 1.386 . S
C2858 C2860 1.391 . S
C2859 C2858 1.386 . S
C2859 C2863 1.393 . S
C2860 H2849 0.950 . S
C2860 C2858 1.391 . S
C2860 C2861 1.400 . S
C2861 C2855 1.491 . S
C2861 C2860 1.400 . S
C2861 C2862 1.398 . S
C2862 H2850 0.950 . S
C2862 C2861 1.398 . S
C2862 C2863 1.391 . S
C2863 H2851 0.950 . S
C2863 C2859 1.393 . S
C2863 C2862 1.391 . S
H2864 C2872 0.950 . S
H2865 C2877 0.950 . S
H2866 C2874 0.950 . S
H2867 C2876 0.950 . S
H2868 C2878 0.950 . S
H2869 C2880 0.950 . S
H2870 C2882 0.950 . S
H2871 C2883 0.950 . S
C2872 H2864 0.950 . S
C2872 C2873 1.386 . S
C2872 C2874 1.391 . S
C2873 C2872 1.386 . S
C2873 C2877 1.393 . S
C2874 H2866 0.950 . S
C2874 C2872 1.391 . S
C2874 C2875 1.400 . S
C2875 C2874 1.400 . S
C2875 C2876 1.398 . S
C2875 C2881 1.491 . S
C2876 H2867 0.950 . S
C2876 C2875 1.398 . S
C2876 C2877 1.391 . S
C2877 H2865 0.950 . S
C2877 C2873 1.393 . S
C2877 C2876 1.391 . S
C2878 H2868 0.950 . S
C2878 C2879 1.386 . S
C2878 C2880 1.391 . S
C2879 C2878 1.386 . S
C2879 C2883 1.393 . S
C2880 H2869 0.950 . S
C2880 C2878 1.391 . S
C2880 C2881 1.400 . S
C2881 C2875 1.491 . S
C2881 C2880 1.400 . S
C2881 C2882 1.398 . S
C2882 H2870 0.950 . S
C2882 C2881 1.398 . S
C2882 C2883 1.391 . S
C2883 H2871 0.950 . S
C2883 C2879 1.393 . S
C2883 C2882 1.391 . S
H2884 C2892 0.950 . S
H2885 C2897 0.950 . S
H2886 C2894 0.950 . S
H2887 C2896 0.950 . S
H2888 C2898 0.950 . S
H2889 C2900 0.950 . S
H2890 C2902 0.950 . S
H2891 C2903 0.950 . S
C2892 H2884 0.950 . S
C2892 C2893 1.386 . S
C2892 C2894 1.391 . S
C2893 C2892 1.386 . S
C2893 C2897 1.393 . S
C2894 H2886 0.950 . S
C2894 C2892 1.391 . S
C2894 C2895 1.400 . S
C2895 C2894 1.400 . S
C2895 C2896 1.398 . S
C2895 C2901 1.491 . S
C2896 H2887 0.950 . S
C2896 C2895 1.398 . S
C2896 C2897 1.391 . S
C2897 H2885 0.950 . S
C2897 C2893 1.393 . S
C2897 C2896 1.391 . S
C2898 H2888 0.950 . S
C2898 C2899 1.386 . S
C2898 C2900 1.391 . S
C2899 C2898 1.386 . S
C2899 C2903 1.393 . S
C2900 H2889 0.950 . S
C2900 C2898 1.391 . S
C2900 C2901 1.400 . S
C2901 C2895 1.491 . S
C2901 C2900 1.400 . S
C2901 C2902 1.398 . S
C2902 H2890 0.950 . S
C2902 C2901 1.398 . S
C2902 C2903 1.391 . S
C2903 H2891 0.950 . S
C2903 C2899 1.393 . S
C2903 C2902 1.391 . S
H2904 C2912 0.950 . S
H2905 C2917 0.950 . S
H2906 C2914 0.950 . S
H2907 C2916 0.950 . S
H2908 C2918 0.950 . S
H2909 C2920 0.950 . S
H2910 C2922 0.950 . S
H2911 C2923 0.950 . S
C2912 H2904 0.950 . S
C2912 C2913 1.386 . S
C2912 C2914 1.391 . S
C2913 C2912 1.386 . S
C2913 C2917 1.393 . S
C2914 H2906 0.950 . S
C2914 C2912 1.391 . S
C2914 C2915 1.400 . S
C2915 C2914 1.400 . S
C2915 C2916 1.398 . S
C2915 C2921 1.491 . S
C2916 H2907 0.950 . S
C2916 C2915 1.398 . S
C2916 C2917 1.391 . S
C2917 H2905 0.950 . S
C2917 C2913 1.393 . S
C2917 C2916 1.391 . S
C2918 H2908 0.950 . S
C2918 C2919 1.386 . S
C2918 C2920 1.391 . S
C2919 C2918 1.386 . S
C2919 C2923 1.393 . S
C2920 H2909 0.950 . S
C2920 C2918 1.391 . S
C2920 C2921 1.400 . S
C2921 C2915 1.491 . S
C2921 C2920 1.400 . S
C2921 C2922 1.398 . S
C2922 H2910 0.950 . S
C2922 C2921 1.398 . S
C2922 C2923 1.391 . S
C2923 H2911 0.950 . S
C2923 C2919 1.393 . S
C2923 C2922 1.391 . S
H2924 C2932 0.950 . S
H2925 C2937 0.950 . S
H2926 C2934 0.950 . S
H2927 C2936 0.950 . S
H2928 C2938 0.950 . S
H2929 C2940 0.950 . S
H2930 C2942 0.950 . S
H2931 C2943 0.950 . S
C2932 H2924 0.950 . S
C2932 C2933 1.386 . S
C2932 C2934 1.391 . S
C2933 C2932 1.386 . S
C2933 C2937 1.393 . S
C2934 H2926 0.950 . S
C2934 C2932 1.391 . S
C2934 C2935 1.400 . S
C2935 C2934 1.400 . S
C2935 C2936 1.398 . S
C2935 C2941 1.491 . S
C2936 H2927 0.950 . S
C2936 C2935 1.398 . S
C2936 C2937 1.391 . S
C2937 H2925 0.950 . S
C2937 C2933 1.393 . S
C2937 C2936 1.391 . S
C2938 H2928 0.950 . S
C2938 C2939 1.386 . S
C2938 C2940 1.391 . S
C2939 C2938 1.386 . S
C2939 C2943 1.393 . S
C2940 H2929 0.950 . S
C2940 C2938 1.391 . S
C2940 C2941 1.400 . S
C2941 C2935 1.491 . S
C2941 C2940 1.400 . S
C2941 C2942 1.398 . S
C2942 H2930 0.950 . S
C2942 C2941 1.398 . S
C2942 C2943 1.391 . S
C2943 H2931 0.950 . S
C2943 C2939 1.393 . S
C2943 C2942 1.391 . S
H2944 C2952 0.950 . S
H2945 C2957 0.950 . S
H2946 C2954 0.950 . S
H2947 C2956 0.950 . S
H2948 C2958 0.950 . S
H2949 C2960 0.950 . S
H2950 C2962 0.950 . S
H2951 C2963 0.950 . S
C2952 H2944 0.950 . S
C2952 C2953 1.386 . S
C2952 C2954 1.391 . S
C2953 C2952 1.386 . S
C2953 C2957 1.393 . S
C2954 H2946 0.950 . S
C2954 C2952 1.391 . S
C2954 C2955 1.400 . S
C2955 C2954 1.400 . S
C2955 C2956 1.398 . S
C2955 C2961 1.491 . S
C2956 H2947 0.950 . S
C2956 C2955 1.398 . S
C2956 C2957 1.391 . S
C2957 H2945 0.950 . S
C2957 C2953 1.393 . S
C2957 C2956 1.391 . S
C2958 H2948 0.950 . S
C2958 C2959 1.386 . S
C2958 C2960 1.391 . S
C2959 C2958 1.386 . S
C2959 C2963 1.393 . S
C2960 H2949 0.950 . S
C2960 C2958 1.391 . S
C2960 C2961 1.400 . S
C2961 C2955 1.491 . S
C2961 C2960 1.400 . S
C2961 C2962 1.398 . S
C2962 H2950 0.950 . S
C2962 C2961 1.398 . S
C2962 C2963 1.391 . S
C2963 H2951 0.950 . S
C2963 C2959 1.393 . S
C2963 C2962 1.391 . S
H2964 C2972 0.950 . S
H2965 C2977 0.950 . S
H2966 C2974 0.950 . S
H2967 C2976 0.950 . S
H2968 C2978 0.950 . S
H2969 C2980 0.950 . S
H2970 C2982 0.950 . S
H2971 C2983 0.950 . S
C2972 H2964 0.950 . S
C2972 C2973 1.386 . S
C2972 C2974 1.391 . S
C2973 C2972 1.386 . S
C2973 C2977 1.393 . S
C2974 H2966 0.950 . S
C2974 C2972 1.391 . S
C2974 C2975 1.400 . S
C2975 C2974 1.400 . S
C2975 C2976 1.398 . S
C2975 C2981 1.491 . S
C2976 H2967 0.950 . S
C2976 C2975 1.398 . S
C2976 C2977 1.391 . S
C2977 H2965 0.950 . S
C2977 C2973 1.393 . S
C2977 C2976 1.391 . S
C2978 H2968 0.950 . S
C2978 C2979 1.386 . S
C2978 C2980 1.391 . S
C2979 C2978 1.386 . S
C2979 C2983 1.393 . S
C2980 H2969 0.950 . S
C2980 C2978 1.391 . S
C2980 C2981 1.400 . S
C2981 C2975 1.491 . S
C2981 C2980 1.400 . S
C2981 C2982 1.398 . S
C2982 H2970 0.950 . S
C2982 C2981 1.398 . S
C2982 C2983 1.391 . S
C2983 H2971 0.950 . S
C2983 C2979 1.393 . S
C2983 C2982 1.391 . S
H2984 C2992 0.950 . S
H2985 C2997 0.950 . S
H2986 C2994 0.950 . S
H2987 C2996 0.950 . S
H2988 C2998 0.950 . S
H2989 C3000 0.950 . S
H2990 C3002 0.950 . S
H2991 C3003 0.950 . S
C2992 H2984 0.950 . S
C2992 C2993 1.386 . S
C2992 C2994 1.391 . S
C2993 C2992 1.386 . S
C2993 C2997 1.393 . S
C2994 H2986 0.950 . S
C2994 C2992 1.391 . S
C2994 C2995 1.400 . S
C2995 C2994 1.400 . S
C2995 C2996 1.398 . S
C2995 C3001 1.491 . S
C2996 H2987 0.950 . S
C2996 C2995 1.398 . S
C2996 C2997 1.391 . S
C2997 H2985 0.950 . S
C2997 C2993 1.393 . S
C2997 C2996 1.391 . S
C2998 H2988 0.950 . S
C2998 C2999 1.386 . S
C2998 C3000 1.391 . S
C2999 C2998 1.386 . S
C2999 C3003 1.393 . S
C3000 H2989 0.950 . S
C3000 C2998 1.391 . S
C3000 C3001 1.400 . S
C3001 C2995 1.491 . S
C3001 C3000 1.400 . S
C3001 C3002 1.398 . S
C3002 H2990 0.950 . S
C3002 C3001 1.398 . S
C3002 C3003 1.391 . S
C3003 H2991 0.950 . S
C3003 C2999 1.393 . S
C3003 C3002 1.391 . S
H3004 C3012 0.950 . S
H3005 C3017 0.950 . S
H3006 C3014 0.950 . S
H3007 C3016 0.950 . S
H3008 C3018 0.950 . S
H3009 C3020 0.950 . S
H3010 C3022 0.950 . S
H3011 C3023 0.950 . S
C3012 H3004 0.950 . S
C3012 C3013 1.386 . S
C3012 C3014 1.391 . S
C3013 C3012 1.386 . S
C3013 C3017 1.393 . S
C3014 H3006 0.950 . S
C3014 C3012 1.391 . S
C3014 C3015 1.400 . S
C3015 C3014 1.400 . S
C3015 C3016 1.398 . S
C3015 C3021 1.491 . S
C3016 H3007 0.950 . S
C3016 C3015 1.398 . S
C3016 C3017 1.391 . S
C3017 H3005 0.950 . S
C3017 C3013 1.393 . S
C3017 C3016 1.391 . S
C3018 H3008 0.950 . S
C3018 C3019 1.386 . S
C3018 C3020 1.391 . S
C3019 C3018 1.386 . S
C3019 C3023 1.393 . S
C3020 H3009 0.950 . S
C3020 C3018 1.391 . S
C3020 C3021 1.400 . S
C3021 C3015 1.491 . S
C3021 C3020 1.400 . S
C3021 C3022 1.398 . S
C3022 H3010 0.950 . S
C3022 C3021 1.398 . S
C3022 C3023 1.391 . S
C3023 H3011 0.950 . S
C3023 C3019 1.393 . S
C3023 C3022 1.391 . S
H3024 C3032 0.950 . S
H3025 C3037 0.950 . S
H3026 C3034 0.950 . S
H3027 C3036 0.950 . S
H3028 C3038 0.950 . S
H3029 C3040 0.950 . S
H3030 C3042 0.950 . S
H3031 C3043 0.950 . S
C3032 H3024 0.950 . S
C3032 C3033 1.386 . S
C3032 C3034 1.391 . S
C3033 C3032 1.386 . S
C3033 C3037 1.393 . S
C3034 H3026 0.950 . S
C3034 C3032 1.391 . S
C3034 C3035 1.400 . S
C3035 C3034 1.400 . S
C3035 C3036 1.398 . S
C3035 C3041 1.491 . S
C3036 H3027 0.950 . S
C3036 C3035 1.398 . S
C3036 C3037 1.391 . S
C3037 H3025 0.950 . S
C3037 C3033 1.393 . S
C3037 C3036 1.391 . S
C3038 H3028 0.950 . S
C3038 C3039 1.386 . S
C3038 C3040 1.391 . S
C3039 C3038 1.386 . S
C3039 C3043 1.393 . S
C3040 H3029 0.950 . S
C3040 C3038 1.391 . S
C3040 C3041 1.400 . S
C3041 C3035 1.491 . S
C3041 C3040 1.400 . S
C3041 C3042 1.398 . S
C3042 H3030 0.950 . S
C3042 C3041 1.398 . S
C3042 C3043 1.391 . S
C3043 H3031 0.950 . S
C3043 C3039 1.393 . S
C3043 C3042 1.391 . S
H3044 C3052 0.950 . S
H3045 C3057 0.950 . S
H3046 C3054 0.950 . S
H3047 C3056 0.950 . S
H3048 C3058 0.950 . S
H3049 C3060 0.950 . S
H3050 C3062 0.950 . S
H3051 C3063 0.950 . S
C3052 H3044 0.950 . S
C3052 C3053 1.386 . S
C3052 C3054 1.391 . S
C3053 C3052 1.386 . S
C3053 C3057 1.393 . S
C3054 H3046 0.950 . S
C3054 C3052 1.391 . S
C3054 C3055 1.400 . S
C3055 C3054 1.400 . S
C3055 C3056 1.398 . S
C3055 C3061 1.491 . S
C3056 H3047 0.950 . S
C3056 C3055 1.398 . S
C3056 C3057 1.391 . S
C3057 H3045 0.950 . S
C3057 C3053 1.393 . S
C3057 C3056 1.391 . S
C3058 H3048 0.950 . S
C3058 C3059 1.386 . S
C3058 C3060 1.391 . S
C3059 C3058 1.386 . S
C3059 C3063 1.393 . S
C3060 H3049 0.950 . S
C3060 C3058 1.391 . S
C3060 C3061 1.400 . S
C3061 C3055 1.491 . S
C3061 C3060 1.400 . S
C3061 C3062 1.398 . S
C3062 H3050 0.950 . S
C3062 C3061 1.398 . S
C3062 C3063 1.391 . S
C3063 H3051 0.950 . S
C3063 C3059 1.393 . S
C3063 C3062 1.391 . S
H3064 C3072 0.950 . S
H3065 C3077 0.950 . S
H3066 C3074 0.950 . S
H3067 C3076 0.950 . S
H3068 C3078 0.950 . S
H3069 C3080 0.950 . S
H3070 C3082 0.950 . S
H3071 C3083 0.950 . S
C3072 H3064 0.950 . S
C3072 C3073 1.386 . S
C3072 C3074 1.391 . S
C3073 C3072 1.386 . S
C3073 C3077 1.393 . S
C3074 H3066 0.950 . S
C3074 C3072 1.391 . S
C3074 C3075 1.400 . S
C3075 C3074 1.400 . S
C3075 C3076 1.398 . S
C3075 C3081 1.491 . S
C3076 H3067 0.950 . S
C3076 C3075 1.398 . S
C3076 C3077 1.391 . S
C3077 H3065 0.950 . S
C3077 C3073 1.393 . S
C3077 C3076 1.391 . S
C3078 H3068 0.950 . S
C3078 C3079 1.386 . S
C3078 C3080 1.391 . S
C3079 C3078 1.386 . S
C3079 C3083 1.393 . S
C3080 H3069 0.950 . S
C3080 C3078 1.391 . S
C3080 C3081 1.400 . S
C3081 C3075 1.491 . S
C3081 C3080 1.400 . S
C3081 C3082 1.398 . S
C3082 H3070 0.950 . S
C3082 C3081 1.398 . S
C3082 C3083 1.391 . S
C3083 H3071 0.950 . S
C3083 C3079 1.393 . S
C3083 C3082 1.391 . S
H3084 C3092 0.950 . S
H3085 C3097 0.950 . S
H3086 C3094 0.950 . S
H3087 C3096 0.950 . S
H3088 C3098 0.950 . S
H3089 C3100 0.950 . S
H3090 C3102 0.950 . S
H3091 C3103 0.950 . S
C3092 H3084 0.950 . S
C3092 C3093 1.386 . S
C3092 C3094 1.391 . S
C3093 C3092 1.386 . S
C3093 C3097 1.393 . S
C3094 H3086 0.950 . S
C3094 C3092 1.391 . S
C3094 C3095 1.400 . S
C3095 C3094 1.400 . S
C3095 C3096 1.398 . S
C3095 C3101 1.491 . S
C3096 H3087 0.950 . S
C3096 C3095 1.398 . S
C3096 C3097 1.391 . S
C3097 H3085 0.950 . S
C3097 C3093 1.393 . S
C3097 C3096 1.391 . S
C3098 H3088 0.950 . S
C3098 C3099 1.386 . S
C3098 C3100 1.391 . S
C3099 C3098 1.386 . S
C3099 C3103 1.393 . S
C3100 H3089 0.950 . S
C3100 C3098 1.391 . S
C3100 C3101 1.400 . S
C3101 C3095 1.491 . S
C3101 C3100 1.400 . S
C3101 C3102 1.398 . S
C3102 H3090 0.950 . S
C3102 C3101 1.398 . S
C3102 C3103 1.391 . S
C3103 H3091 0.950 . S
C3103 C3099 1.393 . S
C3103 C3102 1.391 . S
H3104 C3112 0.950 . S
H3105 C3117 0.950 . S
H3106 C3114 0.950 . S
H3107 C3116 0.950 . S
H3108 C3118 0.950 . S
H3109 C3120 0.950 . S
H3110 C3122 0.950 . S
H3111 C3123 0.950 . S
C3112 H3104 0.950 . S
C3112 C3113 1.386 . S
C3112 C3114 1.391 . S
C3113 C3112 1.386 . S
C3113 C3117 1.393 . S
C3114 H3106 0.950 . S
C3114 C3112 1.391 . S
C3114 C3115 1.400 . S
C3115 C3114 1.400 . S
C3115 C3116 1.398 . S
C3115 C3121 1.491 . S
C3116 H3107 0.950 . S
C3116 C3115 1.398 . S
C3116 C3117 1.391 . S
C3117 H3105 0.950 . S
C3117 C3113 1.393 . S
C3117 C3116 1.391 . S
C3118 H3108 0.950 . S
C3118 C3119 1.386 . S
C3118 C3120 1.391 . S
C3119 C3118 1.386 . S
C3119 C3123 1.393 . S
C3120 H3109 0.950 . S
C3120 C3118 1.391 . S
C3120 C3121 1.400 . S
C3121 C3115 1.491 . S
C3121 C3120 1.400 . S
C3121 C3122 1.398 . S
C3122 H3110 0.950 . S
C3122 C3121 1.398 . S
C3122 C3123 1.391 . S
C3123 H3111 0.950 . S
C3123 C3119 1.393 . S
C3123 C3122 1.391 . S
H3124 C3132 0.950 1_554 S
H3125 C3137 0.950 . S
H3126 C3134 0.950 . S
H3127 C3136 0.950 . S
H3128 C3138 0.950 . S
H3129 C3140 0.950 . S
H3130 C3142 0.950 . S
H3131 C3143 0.950 . S
C3132 H3124 0.950 1_556 S
C3132 C3133 1.386 . S
C3132 C3134 1.391 . S
C3133 C3132 1.386 . S
C3133 C3137 1.393 . S
C3134 H3126 0.950 . S
C3134 C3132 1.391 . S
C3134 C3135 1.400 . S
C3135 C3134 1.400 . S
C3135 C3136 1.398 . S
C3135 C3141 1.491 . S
C3136 H3127 0.950 . S
C3136 C3135 1.398 . S
C3136 C3137 1.391 . S
C3137 H3125 0.950 . S
C3137 C3133 1.393 . S
C3137 C3136 1.391 . S
C3138 H3128 0.950 . S
C3138 C3139 1.386 . S
C3138 C3140 1.391 . S
C3139 C3138 1.386 . S
C3139 C3143 1.393 . S
C3140 H3129 0.950 . S
C3140 C3138 1.391 . S
C3140 C3141 1.400 . S
C3141 C3135 1.491 . S
C3141 C3140 1.400 . S
C3141 C3142 1.398 . S
C3142 H3130 0.950 . S
C3142 C3141 1.398 . S
C3142 C3143 1.391 . S
C3143 H3131 0.950 . S
C3143 C3139 1.393 . S
C3143 C3142 1.391 . S
H3144 C3152 0.950 . S
H3145 C3157 0.950 . S
H3146 C3154 0.950 . S
H3147 C3156 0.950 . S
H3148 C3158 0.950 . S
H3149 C3160 0.950 . S
H3150 C3162 0.950 . S
H3151 C3163 0.950 . S
C3152 H3144 0.950 . S
C3152 C3153 1.386 . S
C3152 C3154 1.391 . S
C3153 C3152 1.386 . S
C3153 C3157 1.393 . S
C3154 H3146 0.950 . S
C3154 C3152 1.391 . S
C3154 C3155 1.400 . S
C3155 C3154 1.400 . S
C3155 C3156 1.398 . S
C3155 C3161 1.491 . S
C3156 H3147 0.950 . S
C3156 C3155 1.398 . S
C3156 C3157 1.391 . S
C3157 H3145 0.950 . S
C3157 C3153 1.393 . S
C3157 C3156 1.391 . S
C3158 H3148 0.950 . S
C3158 C3159 1.386 . S
C3158 C3160 1.391 . S
C3159 C3158 1.386 . S
C3159 C3163 1.393 . S
C3160 H3149 0.950 . S
C3160 C3158 1.391 . S
C3160 C3161 1.400 . S
C3161 C3155 1.491 . S
C3161 C3160 1.400 . S
C3161 C3162 1.398 . S
C3162 H3150 0.950 . S
C3162 C3161 1.398 . S
C3162 C3163 1.391 . S
C3163 H3151 0.950 . S
C3163 C3159 1.393 . S
C3163 C3162 1.391 . S
H3164 C3172 0.950 . S
H3165 C3177 0.950 . S
H3166 C3174 0.950 . S
H3167 C3176 0.950 . S
H3168 C3178 0.950 . S
H3169 C3180 0.950 . S
H3170 C3182 0.950 . S
H3171 C3183 0.950 . S
C3172 H3164 0.950 . S
C3172 C3173 1.386 . S
C3172 C3174 1.391 . S
C3173 C3172 1.386 . S
C3173 C3177 1.393 . S
C3174 H3166 0.950 . S
C3174 C3172 1.391 . S
C3174 C3175 1.400 . S
C3175 C3174 1.400 . S
C3175 C3176 1.398 . S
C3175 C3181 1.491 . S
C3176 H3167 0.950 . S
C3176 C3175 1.398 . S
C3176 C3177 1.391 . S
C3177 H3165 0.950 . S
C3177 C3173 1.393 . S
C3177 C3176 1.391 . S
C3178 H3168 0.950 . S
C3178 C3179 1.386 . S
C3178 C3180 1.391 . S
C3179 C3178 1.386 . S
C3179 C3183 1.393 . S
C3180 H3169 0.950 . S
C3180 C3178 1.391 . S
C3180 C3181 1.400 . S
C3181 C3175 1.491 . S
C3181 C3180 1.400 . S
C3181 C3182 1.398 . S
C3182 H3170 0.950 . S
C3182 C3181 1.398 . S
C3182 C3183 1.391 . S
C3183 H3171 0.950 . S
C3183 C3179 1.393 . S
C3183 C3182 1.391 . S
H3184 C3192 0.950 1_554 S
H3185 C3197 0.950 . S
H3186 C3194 0.950 . S
H3187 C3196 0.950 . S
H3188 C3198 0.950 . S
H3189 C3200 0.950 . S
H3190 C3202 0.950 . S
H3191 C3203 0.950 . S
C3192 H3184 0.950 1_556 S
C3192 C3193 1.386 . S
C3192 C3194 1.391 . S
C3193 C3192 1.386 . S
C3193 C3197 1.393 . S
C3194 H3186 0.950 . S
C3194 C3192 1.391 . S
C3194 C3195 1.400 . S
C3195 C3194 1.400 . S
C3195 C3196 1.398 . S
C3195 C3201 1.491 . S
C3196 H3187 0.950 . S
C3196 C3195 1.398 . S
C3196 C3197 1.391 . S
C3197 H3185 0.950 . S
C3197 C3193 1.393 . S
C3197 C3196 1.391 . S
C3198 H3188 0.950 . S
C3198 C3199 1.386 . S
C3198 C3200 1.391 . S
C3199 C3198 1.386 . S
C3199 C3203 1.393 . S
C3200 H3189 0.950 . S
C3200 C3198 1.391 . S
C3200 C3201 1.400 . S
C3201 C3195 1.491 . S
C3201 C3200 1.400 . S
C3201 C3202 1.398 . S
C3202 H3190 0.950 . S
C3202 C3201 1.398 . S
C3202 C3203 1.391 . S
C3203 H3191 0.950 . S
C3203 C3199 1.393 . S
C3203 C3202 1.391 . S
H3204 C3212 0.950 . S
H3205 C3217 0.950 . S
H3206 C3214 0.950 . S
H3207 C3216 0.950 . S
H3208 C3218 0.950 . S
H3209 C3220 0.950 . S
H3210 C3222 0.950 . S
H3211 C3223 0.950 . S
C3212 H3204 0.950 . S
C3212 C3213 1.386 . S
C3212 C3214 1.391 . S
C3213 C3212 1.386 . S
C3213 C3217 1.393 . S
C3214 H3206 0.950 . S
C3214 C3212 1.391 . S
C3214 C3215 1.400 . S
C3215 C3214 1.400 . S
C3215 C3216 1.398 . S
C3215 C3221 1.491 . S
C3216 H3207 0.950 . S
C3216 C3215 1.398 . S
C3216 C3217 1.391 . S
C3217 H3205 0.950 . S
C3217 C3213 1.393 . S
C3217 C3216 1.391 . S
C3218 H3208 0.950 . S
C3218 C3219 1.386 . S
C3218 C3220 1.391 . S
C3219 C3218 1.386 . S
C3219 C3223 1.393 . S
C3220 H3209 0.950 . S
C3220 C3218 1.391 . S
C3220 C3221 1.400 . S
C3221 C3215 1.491 . S
C3221 C3220 1.400 . S
C3221 C3222 1.398 . S
C3222 H3210 0.950 . S
C3222 C3221 1.398 . S
C3222 C3223 1.391 . S
C3223 H3211 0.950 . S
C3223 C3219 1.393 . S
C3223 C3222 1.391 . S
H3224 C3232 0.950 . S
H3225 C3237 0.950 . S
H3226 C3234 0.950 . S
H3227 C3236 0.950 . S
H3228 C3238 0.950 . S
H3229 C3240 0.950 . S
H3230 C3242 0.950 . S
H3231 C3243 0.950 . S
C3232 H3224 0.950 . S
C3232 C3233 1.386 . S
C3232 C3234 1.391 . S
C3233 C3232 1.386 . S
C3233 C3237 1.393 . S
C3234 H3226 0.950 . S
C3234 C3232 1.391 . S
C3234 C3235 1.400 . S
C3235 C3234 1.400 . S
C3235 C3236 1.398 . S
C3235 C3241 1.491 . S
C3236 H3227 0.950 . S
C3236 C3235 1.398 . S
C3236 C3237 1.391 . S
C3237 H3225 0.950 . S
C3237 C3233 1.393 . S
C3237 C3236 1.391 . S
C3238 H3228 0.950 . S
C3238 C3239 1.386 . S
C3238 C3240 1.391 . S
C3239 C3238 1.386 . S
C3239 C3243 1.393 . S
C3240 H3229 0.950 . S
C3240 C3238 1.391 . S
C3240 C3241 1.400 . S
C3241 C3235 1.491 . S
C3241 C3240 1.400 . S
C3241 C3242 1.398 . S
C3242 H3230 0.950 . S
C3242 C3241 1.398 . S
C3242 C3243 1.391 . S
C3243 H3231 0.950 . S
C3243 C3239 1.393 . S
C3243 C3242 1.391 . S
H3244 C3252 0.950 . S
H3245 C3257 0.950 . S
H3246 C3254 0.950 . S
H3247 C3256 0.950 . S
H3248 C3258 0.950 . S
H3249 C3260 0.950 . S
H3250 C3262 0.950 . S
H3251 C3263 0.950 . S
C3252 H3244 0.950 . S
C3252 C3253 1.386 . S
C3252 C3254 1.391 . S
C3253 C3252 1.386 . S
C3253 C3257 1.393 . S
C3254 H3246 0.950 . S
C3254 C3252 1.391 . S
C3254 C3255 1.400 . S
C3255 C3254 1.400 . S
C3255 C3256 1.398 . S
C3255 C3261 1.491 . S
C3256 H3247 0.950 . S
C3256 C3255 1.398 . S
C3256 C3257 1.391 . S
C3257 H3245 0.950 . S
C3257 C3253 1.393 . S
C3257 C3256 1.391 . S
C3258 H3248 0.950 . S
C3258 C3259 1.386 . S
C3258 C3260 1.391 . S
C3259 C3258 1.386 . S
C3259 C3263 1.393 . S
C3260 H3249 0.950 . S
C3260 C3258 1.391 . S
C3260 C3261 1.400 . S
C3261 C3255 1.491 . S
C3261 C3260 1.400 . S
C3261 C3262 1.398 . S
C3262 H3250 0.950 . S
C3262 C3261 1.398 . S
C3262 C3263 1.391 . S
C3263 H3251 0.950 . S
C3263 C3259 1.393 . S
C3263 C3262 1.391 . S
H3264 C3272 0.950 . S
H3265 C3277 0.950 . S
H3266 C3274 0.950 . S
H3267 C3276 0.950 . S
H3268 C3278 0.950 . S
H3269 C3280 0.950 . S
H3270 C3282 0.950 . S
H3271 C3283 0.950 . S
C3272 H3264 0.950 . S
C3272 C3273 1.386 . S
C3272 C3274 1.391 . S
C3273 C3272 1.386 . S
C3273 C3277 1.393 . S
C3274 H3266 0.950 . S
C3274 C3272 1.391 . S
C3274 C3275 1.400 . S
C3275 C3274 1.400 . S
C3275 C3276 1.398 . S
C3275 C3281 1.491 . S
C3276 H3267 0.950 . S
C3276 C3275 1.398 . S
C3276 C3277 1.391 . S
C3277 H3265 0.950 . S
C3277 C3273 1.393 . S
C3277 C3276 1.391 . S
C3278 H3268 0.950 . S
C3278 C3279 1.386 . S
C3278 C3280 1.391 . S
C3279 C3278 1.386 . S
C3279 C3283 1.393 . S
C3280 H3269 0.950 . S
C3280 C3278 1.391 . S
C3280 C3281 1.400 . S
C3281 C3275 1.491 . S
C3281 C3280 1.400 . S
C3281 C3282 1.398 . S
C3282 H3270 0.950 . S
C3282 C3281 1.398 . S
C3282 C3283 1.391 . S
C3283 H3271 0.950 . S
C3283 C3279 1.393 . S
C3283 C3282 1.391 . S
H3284 C3292 0.950 . S
H3285 C3297 0.950 . S
H3286 C3294 0.950 . S
H3287 C3296 0.950 . S
H3288 C3298 0.950 . S
H3289 C3300 0.950 . S
H3290 C3302 0.950 . S
H3291 C3303 0.950 . S
C3292 H3284 0.950 . S
C3292 C3293 1.386 . S
C3292 C3294 1.391 . S
C3293 C3292 1.386 . S
C3293 C3297 1.393 . S
C3294 H3286 0.950 . S
C3294 C3292 1.391 . S
C3294 C3295 1.400 . S
C3295 C3294 1.400 . S
C3295 C3296 1.398 . S
C3295 C3301 1.491 . S
C3296 H3287 0.950 . S
C3296 C3295 1.398 . S
C3296 C3297 1.391 . S
C3297 H3285 0.950 . S
C3297 C3293 1.393 . S
C3297 C3296 1.391 . S
C3298 H3288 0.950 . S
C3298 C3299 1.386 . S
C3298 C3300 1.391 . S
C3299 C3298 1.386 . S
C3299 C3303 1.393 . S
C3300 H3289 0.950 . S
C3300 C3298 1.391 . S
C3300 C3301 1.400 . S
C3301 C3295 1.491 . S
C3301 C3300 1.400 . S
C3301 C3302 1.398 . S
C3302 H3290 0.950 . S
C3302 C3301 1.398 . S
C3302 C3303 1.391 . S
C3303 H3291 0.950 . S
C3303 C3299 1.393 . S
C3303 C3302 1.391 . S
H3304 C3312 0.950 . S
H3305 C3317 0.950 . S
H3306 C3314 0.950 . S
H3307 C3316 0.950 . S
H3308 C3318 0.950 . S
H3309 C3320 0.950 . S
H3310 C3322 0.950 . S
H3311 C3323 0.950 . S
C3312 H3304 0.950 . S
C3312 C3313 1.386 . S
C3312 C3314 1.391 . S
C3313 C3312 1.386 . S
C3313 C3317 1.393 . S
C3314 H3306 0.950 . S
C3314 C3312 1.391 . S
C3314 C3315 1.400 . S
C3315 C3314 1.400 . S
C3315 C3316 1.398 . S
C3315 C3321 1.491 . S
C3316 H3307 0.950 . S
C3316 C3315 1.398 . S
C3316 C3317 1.391 . S
C3317 H3305 0.950 . S
C3317 C3313 1.393 . S
C3317 C3316 1.391 . S
C3318 H3308 0.950 . S
C3318 C3319 1.386 . S
C3318 C3320 1.391 . S
C3319 C3318 1.386 . S
C3319 C3323 1.393 . S
C3320 H3309 0.950 . S
C3320 C3318 1.391 . S
C3320 C3321 1.400 . S
C3321 C3315 1.491 . S
C3321 C3320 1.400 . S
C3321 C3322 1.398 . S
C3322 H3310 0.950 . S
C3322 C3321 1.398 . S
C3322 C3323 1.391 . S
C3323 H3311 0.950 . S
C3323 C3319 1.393 . S
C3323 C3322 1.391 . S
H3324 C3332 0.950 1_655 S
H3325 C3337 0.950 . S
H3326 C3334 0.950 1_655 S
H3327 C3336 0.950 . S
H3328 C3338 0.950 . S
H3329 C3340 0.950 . S
H3330 C3342 0.950 . S
H3331 C3343 0.950 . S
C3332 H3324 0.950 1_455 S
C3332 C3333 1.386 . S
C3332 C3334 1.391 . S
C3333 C3332 1.386 . S
C3333 C3337 1.393 . S
C3334 H3326 0.950 1_455 S
C3334 C3332 1.391 . S
C3334 C3335 1.400 . S
C3335 C3334 1.400 . S
C3335 C3336 1.398 . S
C3335 C3341 1.491 . S
C3336 H3327 0.950 . S
C3336 C3335 1.398 . S
C3336 C3337 1.391 . S
C3337 H3325 0.950 . S
C3337 C3333 1.393 . S
C3337 C3336 1.391 . S
C3338 H3328 0.950 . S
C3338 C3339 1.386 . S
C3338 C3340 1.391 . S
C3339 C3338 1.386 . S
C3339 C3343 1.393 1_455 S
C3340 H3329 0.950 . S
C3340 C3338 1.391 . S
C3340 C3341 1.400 . S
C3341 C3335 1.491 . S
C3341 C3340 1.400 . S
C3341 C3342 1.398 1_455 S
C3342 H3330 0.950 . S
C3342 C3341 1.398 1_655 S
C3342 C3343 1.391 . S
C3343 H3331 0.950 . S
C3343 C3339 1.393 1_655 S
C3343 C3342 1.391 . S
H3344 C3352 0.950 . S
H3345 C3357 0.950 . S
H3346 C3354 0.950 . S
H3347 C3356 0.950 . S
H3348 C3358 0.950 . S
H3349 C3360 0.950 . S
H3350 C3362 0.950 . S
H3351 C3363 0.950 . S
C3352 H3344 0.950 . S
C3352 C3353 1.386 . S
C3352 C3354 1.391 . S
C3353 C3352 1.386 . S
C3353 C3357 1.393 . S
C3354 H3346 0.950 . S
C3354 C3352 1.391 . S
C3354 C3355 1.400 . S
C3355 C3354 1.400 . S
C3355 C3356 1.398 . S
C3355 C3361 1.491 . S
C3356 H3347 0.950 . S
C3356 C3355 1.398 . S
C3356 C3357 1.391 . S
C3357 H3345 0.950 . S
C3357 C3353 1.393 . S
C3357 C3356 1.391 . S
C3358 H3348 0.950 . S
C3358 C3359 1.386 . S
C3358 C3360 1.391 . S
C3359 C3358 1.386 . S
C3359 C3363 1.393 . S
C3360 H3349 0.950 . S
C3360 C3358 1.391 . S
C3360 C3361 1.400 . S
C3361 C3355 1.491 . S
C3361 C3360 1.400 . S
C3361 C3362 1.398 . S
C3362 H3350 0.950 . S
C3362 C3361 1.398 . S
C3362 C3363 1.391 . S
C3363 H3351 0.950 . S
C3363 C3359 1.393 . S
C3363 C3362 1.391 . S
H3364 C3372 0.950 . S
H3365 C3377 0.950 . S
H3366 C3374 0.950 . S
H3367 C3376 0.950 . S
H3368 C3378 0.950 . S
H3369 C3380 0.950 . S
H3370 C3382 0.950 . S
H3371 C3383 0.950 . S
C3372 H3364 0.950 . S
C3372 C3373 1.386 . S
C3372 C3374 1.391 . S
C3373 C3372 1.386 . S
C3373 C3377 1.393 . S
C3374 H3366 0.950 . S
C3374 C3372 1.391 . S
C3374 C3375 1.400 . S
C3375 C3374 1.400 . S
C3375 C3376 1.398 . S
C3375 C3381 1.491 . S
C3376 H3367 0.950 . S
C3376 C3375 1.398 . S
C3376 C3377 1.391 . S
C3377 H3365 0.950 . S
C3377 C3373 1.393 . S
C3377 C3376 1.391 . S
C3378 H3368 0.950 . S
C3378 C3379 1.386 . S
C3378 C3380 1.391 . S
C3379 C3378 1.386 . S
C3379 C3383 1.393 . S
C3380 H3369 0.950 . S
C3380 C3378 1.391 . S
C3380 C3381 1.400 . S
C3381 C3375 1.491 . S
C3381 C3380 1.400 . S
C3381 C3382 1.398 . S
C3382 H3370 0.950 . S
C3382 C3381 1.398 . S
C3382 C3383 1.391 . S
C3383 H3371 0.950 . S
C3383 C3379 1.393 . S
C3383 C3382 1.391 . S
H3384 C3392 0.950 . S
H3385 C3397 0.950 . S
H3386 C3394 0.950 . S
H3387 C3396 0.950 . S
H3388 C3398 0.950 . S
H3389 C3400 0.950 . S
H3390 C3402 0.948 . S
H3391 C3403 0.959 . S
C3392 H3384 0.950 . S
C3392 C3393 1.386 . S
C3392 C3394 1.391 . S
C3393 C3392 1.386 . S
C3393 C3397 1.393 . S
C3394 H3386 0.950 . S
C3394 C3392 1.391 . S
C3394 C3395 1.400 . S
C3395 C3394 1.400 . S
C3395 C3396 1.398 . S
C3395 C3401 1.491 . S
C3396 H3387 0.950 . S
C3396 C3395 1.398 . S
C3396 C3397 1.391 . S
C3397 H3385 0.950 . S
C3397 C3393 1.393 . S
C3397 C3396 1.391 . S
C3398 H3388 0.950 . S
C3398 C3399 1.386 . S
C3398 C3400 1.391 . S
C3399 C3398 1.386 . S
C3399 C3403 1.410 1_565 S
C3400 H3389 0.950 . S
C3400 C3398 1.391 . S
C3400 C3401 1.400 . S
C3401 C3395 1.491 . S
C3401 C3400 1.400 . S
C3401 C3402 1.398 . S
C3402 H3390 0.948 . S
C3402 C3401 1.398 . S
C3402 C3403 1.366 1_565 S
C3403 H3391 0.959 . S
C3403 C3399 1.410 1_545 S
C3403 C3402 1.366 1_545 S
H3404 C3412 0.950 . S
H3405 C3417 0.950 . S
H3406 C3414 0.950 . S
H3407 C3416 0.950 . S
H3408 C3418 0.963 1_655 S
H3409 C3420 0.950 . S
H3410 C3422 0.950 . S
H3411 C3423 0.958 . S
C3412 H3404 0.950 . S
C3412 C3413 1.386 . S
C3412 C3414 1.391 . S
C3413 C3412 1.386 . S
C3413 C3417 1.393 . S
C3414 H3406 0.950 . S
C3414 C3412 1.391 . S
C3414 C3415 1.400 . S
C3415 C3414 1.400 . S
C3415 C3416 1.398 . S
C3415 C3421 1.491 . S
C3416 H3407 0.950 . S
C3416 C3415 1.398 . S
C3416 C3417 1.391 . S
C3417 H3405 0.950 . S
C3417 C3413 1.393 . S
C3417 C3416 1.391 . S
C3418 H3408 0.963 1_455 S
C3418 C3419 1.383 1_455 S
C3418 C3420 1.382 . S
C3419 C3418 1.383 1_655 S
C3419 C3423 1.405 1_655 S
C3420 H3409 0.950 . S
C3420 C3418 1.382 . S
C3420 C3421 1.400 . S
C3421 C3415 1.491 . S
C3421 C3420 1.400 . S
C3421 C3422 1.398 . S
C3422 H3410 0.950 . S
C3422 C3421 1.398 . S
C3422 C3423 1.391 . S
C3423 H3411 0.958 . S
C3423 C3419 1.405 1_455 S
C3423 C3422 1.391 . S
H3424 C3432 0.950 . S
H3425 C3437 0.950 . S
H3426 C3434 0.950 . S
H3427 C3436 0.950 . S
H3428 C3438 0.950 . S
H3429 C3440 0.950 . S
H3430 C3442 0.950 . S
H3431 C3443 0.950 . S
C3432 H3424 0.950 . S
C3432 C3433 1.386 . S
C3432 C3434 1.391 . S
C3433 C3432 1.386 . S
C3433 C3437 1.393 . S
C3434 H3426 0.950 . S
C3434 C3432 1.391 . S
C3434 C3435 1.400 . S
C3435 C3434 1.400 . S
C3435 C3436 1.398 . S
C3435 C3441 1.491 . S
C3436 H3427 0.950 . S
C3436 C3435 1.398 . S
C3436 C3437 1.391 . S
C3437 H3425 0.950 . S
C3437 C3433 1.393 . S
C3437 C3436 1.391 . S
C3438 H3428 0.950 . S
C3438 C3439 1.386 . S
C3438 C3440 1.391 . S
C3439 C3438 1.386 . S
C3439 C3443 1.393 . S
C3440 H3429 0.950 . S
C3440 C3438 1.391 . S
C3440 C3441 1.400 . S
C3441 C3435 1.491 . S
C3441 C3440 1.400 . S
C3441 C3442 1.398 . S
C3442 H3430 0.950 . S
C3442 C3441 1.398 . S
C3442 C3443 1.391 . S
C3443 H3431 0.950 . S
C3443 C3439 1.393 . S
C3443 C3442 1.391 . S
H3444 C3452 0.950 . S
H3445 C3457 0.950 . S
H3446 C3454 0.950 . S
H3447 C3456 0.950 . S
H3448 C3458 0.950 . S
H3449 C3460 0.950 . S
H3450 C3462 0.950 . S
H3451 C3463 0.950 . S
C3452 H3444 0.950 . S
C3452 C3453 1.386 . S
C3452 C3454 1.391 . S
C3453 C3452 1.386 . S
C3453 C3457 1.393 . S
C3454 H3446 0.950 . S
C3454 C3452 1.391 . S
C3454 C3455 1.400 . S
C3455 C3454 1.400 . S
C3455 C3456 1.398 . S
C3455 C3461 1.491 . S
C3456 H3447 0.950 . S
C3456 C3455 1.398 . S
C3456 C3457 1.391 . S
C3457 H3445 0.950 . S
C3457 C3453 1.393 . S
C3457 C3456 1.391 . S
C3458 H3448 0.950 . S
C3458 C3459 1.386 . S
C3458 C3460 1.391 . S
C3459 C3458 1.386 . S
C3459 C3463 1.393 . S
C3460 H3449 0.950 . S
C3460 C3458 1.391 . S
C3460 C3461 1.400 . S
C3461 C3455 1.491 . S
C3461 C3460 1.400 . S
C3461 C3462 1.398 . S
C3462 H3450 0.950 . S
C3462 C3461 1.398 . S
C3462 C3463 1.391 . S
C3463 H3451 0.950 . S
C3463 C3459 1.393 . S
C3463 C3462 1.391 . S
H3464 C3472 0.950 . S
H3465 C3477 0.950 . S
H3466 C3474 0.950 . S
H3467 C3476 0.950 . S
H3468 C3478 0.950 . S
H3469 C3480 0.950 . S
H3470 C3482 0.950 . S
H3471 C3483 0.950 . S
C3472 H3464 0.950 . S
C3472 C3473 1.386 . S
C3472 C3474 1.391 . S
C3473 C3472 1.386 . S
C3473 C3477 1.393 . S
C3474 H3466 0.950 . S
C3474 C3472 1.391 . S
C3474 C3475 1.400 . S
C3475 C3474 1.400 . S
C3475 C3476 1.398 . S
C3475 C3481 1.491 . S
C3476 H3467 0.950 . S
C3476 C3475 1.398 . S
C3476 C3477 1.391 . S
C3477 H3465 0.950 . S
C3477 C3473 1.393 . S
C3477 C3476 1.391 . S
C3478 H3468 0.950 . S
C3478 C3479 1.386 . S
C3478 C3480 1.391 . S
C3479 C3478 1.386 . S
C3479 C3483 1.393 . S
C3480 H3469 0.950 . S
C3480 C3478 1.391 . S
C3480 C3481 1.400 . S
C3481 C3475 1.491 . S
C3481 C3480 1.400 . S
C3481 C3482 1.398 . S
C3482 H3470 0.950 . S
C3482 C3481 1.398 . S
C3482 C3483 1.391 . S
C3483 H3471 0.950 . S
C3483 C3479 1.393 . S
C3483 C3482 1.391 . S
H3484 C3492 0.950 . S
H3485 C3497 0.950 . S
H3486 C3494 0.950 . S
H3487 C3496 0.950 . S
H3488 C3498 0.950 . S
H3489 C3500 0.950 . S
H3490 C3502 0.950 . S
H3491 C3503 0.950 . S
C3492 H3484 0.950 . S
C3492 C3493 1.386 . S
C3492 C3494 1.391 . S
C3493 C3492 1.386 . S
C3493 C3497 1.393 . S
C3494 H3486 0.950 . S
C3494 C3492 1.391 . S
C3494 C3495 1.400 . S
C3495 C3494 1.400 . S
C3495 C3496 1.398 . S
C3495 C3501 1.491 . S
C3496 H3487 0.950 . S
C3496 C3495 1.398 . S
C3496 C3497 1.391 . S
C3497 H3485 0.950 . S
C3497 C3493 1.393 . S
C3497 C3496 1.391 . S
C3498 H3488 0.950 . S
C3498 C3499 1.386 . S
C3498 C3500 1.391 . S
C3499 C3498 1.386 . S
C3499 C3503 1.393 . S
C3500 H3489 0.950 . S
C3500 C3498 1.391 . S
C3500 C3501 1.400 . S
C3501 C3495 1.491 . S
C3501 C3500 1.400 . S
C3501 C3502 1.398 . S
C3502 H3490 0.950 . S
C3502 C3501 1.398 . S
C3502 C3503 1.391 . S
C3503 H3491 0.950 . S
C3503 C3499 1.393 . S
C3503 C3502 1.391 . S
H3504 C3512 0.950 . S
H3505 C3517 0.950 . S
H3506 C3514 0.950 . S
H3507 C3516 0.950 1_565 S
H3508 C3518 0.950 . S
H3509 C3520 0.950 1_565 S
H3510 C3522 0.950 . S
H3511 C3523 0.950 . S
C3512 H3504 0.950 . S
C3512 C3513 1.386 . S
C3512 C3514 1.391 . S
C3513 C3512 1.386 . S
C3513 C3517 1.393 . S
C3514 H3506 0.950 . S
C3514 C3512 1.391 . S
C3514 C3515 1.400 . S
C3515 C3514 1.400 . S
C3515 C3516 1.398 . S
C3515 C3521 1.491 . S
C3516 H3507 0.950 1_545 S
C3516 C3515 1.398 . S
C3516 C3517 1.391 . S
C3517 H3505 0.950 . S
C3517 C3513 1.393 . S
C3517 C3516 1.391 . S
C3518 H3508 0.950 . S
C3518 C3519 1.386 1_565 S
C3518 C3520 1.379 1_565 S
C3519 C3518 1.386 1_545 S
C3519 C3523 1.393 . S
C3520 H3509 0.950 1_545 S
C3520 C3518 1.379 1_545 S
C3520 C3521 1.413 . S
C3521 C3515 1.491 . S
C3521 C3520 1.413 . S
C3521 C3522 1.398 . S
C3522 H3510 0.950 . S
C3522 C3521 1.398 . S
C3522 C3523 1.391 . S
C3523 H3511 0.950 . S
C3523 C3519 1.393 . S
C3523 C3522 1.391 . S
H3524 C3532 0.950 . S
H3525 C3537 0.950 . S
H3526 C3534 0.950 . S
H3527 C3536 0.950 . S
H3528 C3538 0.950 . S
H3529 C3540 0.950 . S
H3530 C3542 0.932 1_455 S
H3531 C3543 0.950 1_455 S
C3532 H3524 0.950 . S
C3532 C3533 1.386 . S
C3532 C3534 1.391 . S
C3533 C3532 1.386 . S
C3533 C3537 1.393 . S
C3534 H3526 0.950 . S
C3534 C3532 1.391 . S
C3534 C3535 1.400 . S
C3535 C3534 1.400 . S
C3535 C3536 1.398 . S
C3535 C3541 1.491 . S
C3536 H3527 0.950 . S
C3536 C3535 1.398 . S
C3536 C3537 1.391 . S
C3537 H3525 0.950 . S
C3537 C3533 1.393 . S
C3537 C3536 1.391 . S
C3538 H3528 0.950 . S
C3538 C3539 1.386 . S
C3538 C3540 1.391 . S
C3539 C3538 1.386 . S
C3539 C3543 1.393 . S
C3540 H3529 0.950 . S
C3540 C3538 1.391 . S
C3540 C3541 1.400 . S
C3541 C3535 1.491 . S
C3541 C3540 1.400 . S
C3541 C3542 1.398 . S
C3542 H3530 0.932 1_655 S
C3542 C3541 1.398 . S
C3542 C3543 1.391 . S
C3543 H3531 0.950 1_655 S
C3543 C3539 1.393 . S
C3543 C3542 1.391 . S
H3544 C3552 0.950 . S
H3545 C3557 0.950 . S
H3546 C3554 0.950 . S
H3547 C3556 0.950 . S
H3548 C3558 0.950 . S
H3549 C3560 0.950 . S
H3550 C3562 0.950 . S
H3551 C3563 0.950 . S
C3552 H3544 0.950 . S
C3552 C3553 1.386 . S
C3552 C3554 1.391 . S
C3553 C3552 1.386 . S
C3553 C3557 1.393 . S
C3554 H3546 0.950 . S
C3554 C3552 1.391 . S
C3554 C3555 1.400 . S
C3555 C3554 1.400 . S
C3555 C3556 1.398 . S
C3555 C3561 1.491 . S
C3556 H3547 0.950 . S
C3556 C3555 1.398 . S
C3556 C3557 1.391 . S
C3557 H3545 0.950 . S
C3557 C3553 1.393 . S
C3557 C3556 1.391 . S
C3558 H3548 0.950 . S
C3558 C3559 1.386 . S
C3558 C3560 1.391 . S
C3559 C3558 1.386 . S
C3559 C3563 1.393 . S
C3560 H3549 0.950 . S
C3560 C3558 1.391 . S
C3560 C3561 1.400 . S
C3561 C3555 1.491 . S
C3561 C3560 1.400 . S
C3561 C3562 1.398 . S
C3562 H3550 0.950 . S
C3562 C3561 1.398 . S
C3562 C3563 1.391 . S
C3563 H3551 0.950 . S
C3563 C3559 1.393 . S
C3563 C3562 1.391 . S
H3564 C3572 0.950 . S
H3565 C3577 0.950 . S
H3566 C3574 0.950 . S
H3567 C3576 0.950 . S
H3568 C3578 0.950 . S
H3569 C3580 0.950 . S
H3570 C3582 0.950 . S
H3571 C3583 0.950 . S
C3572 H3564 0.950 . S
C3572 C3573 1.386 . S
C3572 C3574 1.391 . S
C3573 C3572 1.386 . S
C3573 C3577 1.393 . S
C3574 H3566 0.950 . S
C3574 C3572 1.391 . S
C3574 C3575 1.400 . S
C3575 C3574 1.400 . S
C3575 C3576 1.398 . S
C3575 C3581 1.491 . S
C3576 H3567 0.950 . S
C3576 C3575 1.398 . S
C3576 C3577 1.391 . S
C3577 H3565 0.950 . S
C3577 C3573 1.393 . S
C3577 C3576 1.391 . S
C3578 H3568 0.950 . S
C3578 C3579 1.386 . S
C3578 C3580 1.391 . S
C3579 C3578 1.386 . S
C3579 C3583 1.393 . S
C3580 H3569 0.950 . S
C3580 C3578 1.391 . S
C3580 C3581 1.400 . S
C3581 C3575 1.491 . S
C3581 C3580 1.400 . S
C3581 C3582 1.398 . S
C3582 H3570 0.950 . S
C3582 C3581 1.398 . S
C3582 C3583 1.391 . S
C3583 H3571 0.950 . S
C3583 C3579 1.393 . S
C3583 C3582 1.391 . S
H3584 C3592 0.950 . S
H3585 C3597 0.950 . S
H3586 C3594 0.950 . S
H3587 C3596 0.950 . S
H3588 C3598 0.950 . S
H3589 C3600 0.950 . S
H3590 C3602 0.950 . S
H3591 C3603 0.950 . S
C3592 H3584 0.950 . S
C3592 C3593 1.386 . S
C3592 C3594 1.391 . S
C3593 C3592 1.386 . S
C3593 C3597 1.393 . S
C3594 H3586 0.950 . S
C3594 C3592 1.391 . S
C3594 C3595 1.400 . S
C3595 C3594 1.400 . S
C3595 C3596 1.398 . S
C3595 C3601 1.491 . S
C3596 H3587 0.950 . S
C3596 C3595 1.398 . S
C3596 C3597 1.391 . S
C3597 H3585 0.950 . S
C3597 C3593 1.393 . S
C3597 C3596 1.391 . S
C3598 H3588 0.950 . S
C3598 C3599 1.386 . S
C3598 C3600 1.391 . S
C3599 C3598 1.386 . S
C3599 C3603 1.393 . S
C3600 H3589 0.950 . S
C3600 C3598 1.391 . S
C3600 C3601 1.400 . S
C3601 C3595 1.491 . S
C3601 C3600 1.400 . S
C3601 C3602 1.398 . S
C3602 H3590 0.950 . S
C3602 C3601 1.398 . S
C3602 C3603 1.391 . S
C3603 H3591 0.950 . S
C3603 C3599 1.393 . S
C3603 C3602 1.391 . S
H3604 C3612 0.950 . S
H3605 C3617 0.950 . S
H3606 C3614 0.950 . S
H3607 C3616 0.950 . S
H3608 C3618 0.950 . S
H3609 C3620 0.950 . S
H3610 C3622 0.950 . S
H3611 C3623 0.950 . S
C3612 H3604 0.950 . S
C3612 C3613 1.386 . S
C3612 C3614 1.391 . S
C3613 C3612 1.386 . S
C3613 C3617 1.393 . S
C3614 H3606 0.950 . S
C3614 C3612 1.391 . S
C3614 C3615 1.400 . S
C3615 C3614 1.400 . S
C3615 C3616 1.398 . S
C3615 C3621 1.491 . S
C3616 H3607 0.950 . S
C3616 C3615 1.398 . S
C3616 C3617 1.391 . S
C3617 H3605 0.950 . S
C3617 C3613 1.393 . S
C3617 C3616 1.391 . S
C3618 H3608 0.950 . S
C3618 C3619 1.386 . S
C3618 C3620 1.391 . S
C3619 C3618 1.386 . S
C3619 C3623 1.393 . S
C3620 H3609 0.950 . S
C3620 C3618 1.391 . S
C3620 C3621 1.400 . S
C3621 C3615 1.491 . S
C3621 C3620 1.400 . S
C3621 C3622 1.398 . S
C3622 H3610 0.950 . S
C3622 C3621 1.398 . S
C3622 C3623 1.391 . S
C3623 H3611 0.950 . S
C3623 C3619 1.393 . S
C3623 C3622 1.391 . S
H3624 C3632 0.950 . S
H3625 C3637 0.950 . S
H3626 C3634 0.950 . S
H3627 C3636 0.950 . S
H3628 C3638 0.950 . S
H3629 C3640 0.950 . S
H3630 C3642 0.950 . S
H3631 C3643 0.950 . S
C3632 H3624 0.950 . S
C3632 C3633 1.386 . S
C3632 C3634 1.391 . S
C3633 C3632 1.386 . S
C3633 C3637 1.393 . S
C3634 H3626 0.950 . S
C3634 C3632 1.391 . S
C3634 C3635 1.400 . S
C3635 C3634 1.400 . S
C3635 C3636 1.398 . S
C3635 C3641 1.491 . S
C3636 H3627 0.950 . S
C3636 C3635 1.398 . S
C3636 C3637 1.391 . S
C3637 H3625 0.950 . S
C3637 C3633 1.393 . S
C3637 C3636 1.391 . S
C3638 H3628 0.950 . S
C3638 C3639 1.386 . S
C3638 C3640 1.391 . S
C3639 C3638 1.386 . S
C3639 C3643 1.393 . S
C3640 H3629 0.950 . S
C3640 C3638 1.391 . S
C3640 C3641 1.400 . S
C3641 C3635 1.491 . S
C3641 C3640 1.400 . S
C3641 C3642 1.398 . S
C3642 H3630 0.950 . S
C3642 C3641 1.398 . S
C3642 C3643 1.391 . S
C3643 H3631 0.950 . S
C3643 C3639 1.393 . S
C3643 C3642 1.391 . S
H3644 C3652 0.950 . S
H3645 C3657 0.950 . S
H3646 C3654 0.950 . S
H3647 C3656 0.950 . S
H3648 C3658 0.950 . S
H3649 C3660 0.950 . S
H3650 C3662 0.950 . S
H3651 C3663 0.950 . S
C3652 H3644 0.950 . S
C3652 C3653 1.386 . S
C3652 C3654 1.391 . S
C3653 C3652 1.386 . S
C3653 C3657 1.393 . S
C3654 H3646 0.950 . S
C3654 C3652 1.391 . S
C3654 C3655 1.400 . S
C3655 C3654 1.400 . S
C3655 C3656 1.398 . S
C3655 C3661 1.491 . S
C3656 H3647 0.950 . S
C3656 C3655 1.398 . S
C3656 C3657 1.391 . S
C3657 H3645 0.950 . S
C3657 C3653 1.393 . S
C3657 C3656 1.391 . S
C3658 H3648 0.950 . S
C3658 C3659 1.386 . S
C3658 C3660 1.391 . S
C3659 C3658 1.386 . S
C3659 C3663 1.393 . S
C3660 H3649 0.950 . S
C3660 C3658 1.391 . S
C3660 C3661 1.400 . S
C3661 C3655 1.491 . S
C3661 C3660 1.400 . S
C3661 C3662 1.398 . S
C3662 H3650 0.950 . S
C3662 C3661 1.398 . S
C3662 C3663 1.391 . S
C3663 H3651 0.950 . S
C3663 C3659 1.393 . S
C3663 C3662 1.391 . S
H3664 C3672 0.950 . S
H3665 C3677 0.950 . S
H3666 C3674 0.950 . S
H3667 C3676 0.950 . S
H3668 C3678 0.950 . S
H3669 C3680 0.950 . S
H3670 C3682 0.950 . S
H3671 C3683 0.950 . S
C3672 H3664 0.950 . S
C3672 C3673 1.386 . S
C3672 C3674 1.391 . S
C3673 C3672 1.386 . S
C3673 C3677 1.393 . S
C3674 H3666 0.950 . S
C3674 C3672 1.391 . S
C3674 C3675 1.400 . S
C3675 C3674 1.400 . S
C3675 C3676 1.398 . S
C3675 C3681 1.491 . S
C3676 H3667 0.950 . S
C3676 C3675 1.398 . S
C3676 C3677 1.391 . S
C3677 H3665 0.950 . S
C3677 C3673 1.393 . S
C3677 C3676 1.391 . S
C3678 H3668 0.950 . S
C3678 C3679 1.386 . S
C3678 C3680 1.391 . S
C3679 C3678 1.386 . S
C3679 C3683 1.393 . S
C3680 H3669 0.950 . S
C3680 C3678 1.391 . S
C3680 C3681 1.400 . S
C3681 C3675 1.491 . S
C3681 C3680 1.400 . S
C3681 C3682 1.398 . S
C3682 H3670 0.950 . S
C3682 C3681 1.398 . S
C3682 C3683 1.391 . S
C3683 H3671 0.950 . S
C3683 C3679 1.393 . S
C3683 C3682 1.391 . S
H3684 C3692 0.950 . S
H3685 C3697 0.950 . S
H3686 C3694 0.950 . S
H3687 C3696 0.950 . S
H3688 C3698 0.950 . S
H3689 C3700 0.950 . S
H3690 C3702 0.950 . S
H3691 C3703 0.950 . S
C3692 H3684 0.950 . S
C3692 C3693 1.386 1_455 S
C3692 C3694 1.391 . S
C3693 C3692 1.386 1_655 S
C3693 C3697 1.393 . S
C3694 H3686 0.950 . S
C3694 C3692 1.391 . S
C3694 C3695 1.400 1_455 S
C3695 C3694 1.400 1_655 S
C3695 C3696 1.398 . S
C3695 C3701 1.491 . S
C3696 H3687 0.950 . S
C3696 C3695 1.398 . S
C3696 C3697 1.391 . S
C3697 H3685 0.950 . S
C3697 C3693 1.393 . S
C3697 C3696 1.391 . S
C3698 H3688 0.950 . S
C3698 C3699 1.386 . S
C3698 C3700 1.391 . S
C3699 C3698 1.386 . S
C3699 C3703 1.393 1_655 S
C3700 H3689 0.950 . S
C3700 C3698 1.391 . S
C3700 C3701 1.400 . S
C3701 C3695 1.491 . S
C3701 C3700 1.400 . S
C3701 C3702 1.398 1_655 S
C3702 H3690 0.950 . S
C3702 C3701 1.398 1_455 S
C3702 C3703 1.391 . S
C3703 H3691 0.950 . S
C3703 C3699 1.393 1_455 S
C3703 C3702 1.391 . S
H3704 C3712 0.950 . S
H3705 C3717 0.950 . S
H3706 C3714 0.950 . S
H3707 C3716 0.950 . S
H3708 C3718 0.950 . S
H3709 C3720 0.950 . S
H3710 C3722 0.950 . S
H3711 C3723 0.950 . S
C3712 H3704 0.950 . S
C3712 C3713 1.386 . S
C3712 C3714 1.391 . S
C3713 C3712 1.386 . S
C3713 C3717 1.393 . S
C3714 H3706 0.950 . S
C3714 C3712 1.391 . S
C3714 C3715 1.400 . S
C3715 C3714 1.400 . S
C3715 C3716 1.398 . S
C3715 C3721 1.491 . S
C3716 H3707 0.950 . S
C3716 C3715 1.398 . S
C3716 C3717 1.391 . S
C3717 H3705 0.950 . S
C3717 C3713 1.393 . S
C3717 C3716 1.391 . S
C3718 H3708 0.950 . S
C3718 C3719 1.386 . S
C3718 C3720 1.391 . S
C3719 C3718 1.386 . S
C3719 C3723 1.393 . S
C3720 H3709 0.950 . S
C3720 C3718 1.391 . S
C3720 C3721 1.400 . S
C3721 C3715 1.491 . S
C3721 C3720 1.400 . S
C3721 C3722 1.398 . S
C3722 H3710 0.950 . S
C3722 C3721 1.398 . S
C3722 C3723 1.391 . S
C3723 H3711 0.950 . S
C3723 C3719 1.393 . S
C3723 C3722 1.391 . S
H3724 C3732 0.950 1_565 S
H3725 C3737 0.950 . S
H3726 C3734 0.950 . S
H3727 C3736 0.950 . S
H3728 C3738 0.950 . S
H3729 C3740 0.950 . S
H3730 C3742 0.950 . S
H3731 C3743 0.950 . S
C3732 H3724 0.950 1_545 S
C3732 C3733 1.386 . S
C3732 C3734 1.391 1_545 S
C3733 C3732 1.386 . S
C3733 C3737 1.393 . S
C3734 H3726 0.950 . S
C3734 C3732 1.391 1_565 S
C3734 C3735 1.400 1_565 S
C3735 C3734 1.400 1_545 S
C3735 C3736 1.398 . S
C3735 C3741 1.491 . S
C3736 H3727 0.950 . S
C3736 C3735 1.398 . S
C3736 C3737 1.391 . S
C3737 H3725 0.950 . S
C3737 C3733 1.393 . S
C3737 C3736 1.391 . S
C3738 H3728 0.950 . S
C3738 C3739 1.386 . S
C3738 C3740 1.391 . S
C3739 C3738 1.386 . S
C3739 C3743 1.393 1_545 S
C3740 H3729 0.950 . S
C3740 C3738 1.391 . S
C3740 C3741 1.400 . S
C3741 C3735 1.491 . S
C3741 C3740 1.400 . S
C3741 C3742 1.398 1_545 S
C3742 H3730 0.950 . S
C3742 C3741 1.398 1_565 S
C3742 C3743 1.391 . S
C3743 H3731 0.950 . S
C3743 C3739 1.393 1_565 S
C3743 C3742 1.391 . S
C2313 C4 1.273 . S
C2319 C1307 1.021 1_655 S
C2333 C26 1.660 . S
C2339 C1447 1.067 . S
C2359 C1535 1.021 . S
C2353 C32 1.242 . S
C2373 C40 1.328 . S
C2379 C1675 0.977 1_565 S
C2393 C12 1.349 . S
C2399 C1789 1.121 . S
C2413 C18 1.554 1_556 S
C2419 C1877 1.174 . S
C2433 C46 1.239 . S
C2439 C1763 0.992 . S
C2459 C1903 1.265 . S
C2453 C68 1.560 . S
C2479 C1649 1.040 . S
C2473 C74 1.268 . S
C2493 C82 1.339 . S
C2499 C1561 0.964 . S
C2519 C1333 0.985 . S
C2513 C54 1.376 . S
C2533 C60 1.458 . S
C2539 C1421 1.327 . S
C2553 C88 1.701 . S
C2559 C1991 1.270 . S
C2573 C110 1.774 . S
C2579 C2131 1.135 . S
C2599 C2219 1.239 . S
C2593 C116 1.678 . S
C2613 C124 1.603 . S
C2619 C307 1.011 . S
C2633 C96 1.689 . S
C2639 C421 1.074 . S
C2653 C102 1.651 . S
C2659 C509 1.209 . S
C2673 C130 1.454 . S
C2679 C395 1.361 . S
C2693 C152 1.671 . S
C2699 C535 1.399 . S
C2719 C281 1.453 . S
C2713 C158 1.602 . S
C2739 C2245 1.392 . S
C2733 C166 1.658 . S
C2759 C2017 1.303 . S
C2753 C138 1.548 . S
C2779 C2105 1.488 . S
C2773 C144 1.585 . S
C2793 C172 1.561 . S
C2799 C623 1.128 . S
C2813 C194 1.779 . S
C2819 C763 1.106 . S
C2833 C200 1.705 . S
C2839 C851 1.281 . S
C2853 C208 1.734 . S
C2859 C991 1.099 . S
C2879 C1105 1.054 . S
C2873 C180 1.651 . S
C2899 C1193 1.267 . S
C2893 C186 1.679 . S
C2919 C1079 1.488 . S
C2913 C214 1.623 . S
C2939 C1219 1.429 . S
C2933 C236 1.663 . S
C2953 C242 1.541 . S
C2959 C965 1.426 . S
C2979 C877 1.250 . S
C2973 C250 1.504 . S
C2993 C222 1.608 . S
C2999 C649 1.339 . S
C3019 C737 1.440 . S
C3013 C228 1.559 . S
C3039 C263 0.969 . S
C3033 C5 1.591 . S
C3053 C25 1.601 . S
C3059 C377 0.831 . S
C3079 C481 1.204 . S
C3073 C33 1.515 . S
C3099 C595 1.040 . S
C3093 C39 1.503 . S
C3119 C719 0.883 . S
C3113 C11 1.709 . S
C3139 C823 1.140 . S
C3133 C19 1.350 1_556 S
C3153 C47 1.716 1_556 S
C3159 C833 1.484 . S
C3173 C67 1.732 . S
C3179 C605 1.358 . S
C3193 C75 1.666 1_556 S
C3199 C709 1.668 . S
C3213 C81 1.640 . S
C3219 C367 1.434 . S
C3239 C491 1.410 . S
C3233 C53 1.829 . S
C3253 C61 1.451 . S
C3259 C253 1.457 . S
C3279 C947 0.910 . S
C3273 C89 1.421 . S
C3293 C109 1.727 . S
C3299 C1061 0.959 . S
C3313 C117 1.434 . S
C3319 C1165 1.265 . S
C3339 C1279 0.930 . S
C3333 C123 1.053 . S
C3353 C95 1.543 . S
C3359 C1403 0.808 . S
C3373 C103 1.049 . S
C3379 C1507 0.944 . S
C3393 C131 1.157 . S
C3399 C1517 0.824 1_565 S
C3413 C151 1.193 . S
C3419 C1289 0.841 . S
C3439 C1393 1.477 . S
C3433 C159 1.429 . S
C3453 C165 1.569 . S
C3459 C1051 1.369 . S
C3473 C137 1.802 . S
C3479 C1175 1.403 . S
C3499 C937 1.585 . S
C3493 C145 1.520 . S
C3519 C1631 0.788 . S
C3513 C173 1.173 . S
C3533 C193 1.127 . S
C3539 C1745 0.826 . S
C3553 C201 1.333 . S
C3559 C1849 1.124 . S
C3579 C1963 1.054 . S
C3573 C207 1.443 . S
C3599 C2087 1.006 . S
C3593 C179 1.716 . S
C3613 C187 1.466 . S
C3619 C2191 1.206 . S
C3633 C215 1.584 . S
C3639 C2201 1.397 . S
C3653 C235 1.838 . S
C3659 C1973 1.446 . S
C3679 C2077 1.613 . S
C3673 C243 1.542 . S
C3699 C1735 0.867 1_655 S
C3693 C249 1.034 . S
C3719 C1859 1.259 . S
C3713 C221 1.662 . S
C3733 C229 1.094 . S
C3739 C1621 0.971 1_545 S
