# Generated by pormake.
# Topology zzz, (3,6)-cn, num edge types: 1
# Building blocks:
#     Node 0, Type 0, BuildingBlock: BETDIP_clean_linker_0, # of connection points: 3
#     Node 1, Type 0, BuildingBlock: BETDIP_clean_linker_0, # of connection points: 3
#     Node 2, Type 0, BuildingBlock: BETDIP_clean_linker_0, # of connection points: 3
#     Node 3, Type 0, BuildingBlock: BETDIP_clean_linker_0, # of connection points: 3
#     Node 4, Type 0, BuildingBlock: BETDIP_clean_linker_0, # of connection points: 3
#     Node 5, Type 0, BuildingBlock: BETDIP_clean_linker_0, # of connection points: 3
#     Node 6, Type 0, BuildingBlock: BETDIP_clean_linker_0, # of connection points: 3
#     Node 7, Type 0, BuildingBlock: BETDIP_clean_linker_0, # of connection points: 3
#     Node 8, Type 1, BuildingBlock: FUNLAD_clean_sbu_0, # of connection points: 6
#     Node 9, Type 1, BuildingBlock: FUNLAD_clean_sbu_0, # of connection points: 6
#     Node 10, Type 1, BuildingBlock: FUNLAD_clean_sbu_0, # of connection points: 6
#     Node 11, Type 1, BuildingBlock: FUNLAD_clean_sbu_0, # of connection points: 6
#     Edge 12, Type (0, 1), BuildingBlock: XUDNAN_clean_linker_2, # of connection points: 2
#     Edge 13, Type (0, 1), BuildingBlock: XUDNAN_clean_linker_2, # of connection points: 2
#     Edge 14, Type (0, 1), BuildingBlock: XUDNAN_clean_linker_2, # of connection points: 2
#     Edge 15, Type (0, 1), BuildingBlock: XUDNAN_clean_linker_2, # of connection points: 2
#     Edge 16, Type (0, 1), BuildingBlock: XUDNAN_clean_linker_2, # of connection points: 2
#     Edge 17, Type (0, 1), BuildingBlock: XUDNAN_clean_linker_2, # of connection points: 2
#     Edge 18, Type (0, 1), BuildingBlock: XUDNAN_clean_linker_2, # of connection points: 2
#     Edge 19, Type (0, 1), BuildingBlock: XUDNAN_clean_linker_2, # of connection points: 2
#     Edge 20, Type (0, 1), BuildingBlock: XUDNAN_clean_linker_2, # of connection points: 2
#     Edge 21, Type (0, 1), BuildingBlock: XUDNAN_clean_linker_2, # of connection points: 2
#     Edge 22, Type (0, 1), BuildingBlock: XUDNAN_clean_linker_2, # of connection points: 2
#     Edge 23, Type (0, 1), BuildingBlock: XUDNAN_clean_linker_2, # of connection points: 2
#     Edge 24, Type (0, 1), BuildingBlock: XUDNAN_clean_linker_2, # of connection points: 2
#     Edge 25, Type (0, 1), BuildingBlock: XUDNAN_clean_linker_2, # of connection points: 2
#     Edge 26, Type (0, 1), BuildingBlock: XUDNAN_clean_linker_2, # of connection points: 2
#     Edge 27, Type (0, 1), BuildingBlock: XUDNAN_clean_linker_2, # of connection points: 2
#     Edge 28, Type (0, 1), BuildingBlock: XUDNAN_clean_linker_2, # of connection points: 2
#     Edge 29, Type (0, 1), BuildingBlock: XUDNAN_clean_linker_2, # of connection points: 2
#     Edge 30, Type (0, 1), BuildingBlock: XUDNAN_clean_linker_2, # of connection points: 2
#     Edge 31, Type (0, 1), BuildingBlock: XUDNAN_clean_linker_2, # of connection points: 2
#     Edge 32, Type (0, 1), BuildingBlock: XUDNAN_clean_linker_2, # of connection points: 2
#     Edge 33, Type (0, 1), BuildingBlock: XUDNAN_clean_linker_2, # of connection points: 2
#     Edge 34, Type (0, 1), BuildingBlock: XUDNAN_clean_linker_2, # of connection points: 2
#     Edge 35, Type (0, 1), BuildingBlock: XUDNAN_clean_linker_2, # of connection points: 2
# Relax obj value: 0.118
# Max RMSD: 0.175
# Mean RMSD: 0.091
data_MOF--net-zzz--node1-FUNLAD_clean_sbu_0--node2-BETDIP_clean_linker_0--edge1-XUDNAN_clean_linker_2
_symmetry_space_group_name_H-M    P1
_symmetry_Int_Tables_number       1
_symmetry_cell_setting            triclinic
loop_
_symmetry_equiv_pos_as_xyz
'x, y, z'
_cell_length_a     51.65819
_cell_length_b     57.340774
_cell_length_c     17.300681
_cell_angle_alpha  84.899424
_cell_angle_beta   84.937556
_cell_angle_gamma 89.882609
loop_
_atom_site_label
_atom_site_type_symbol
_atom_site_fract_x
_atom_site_fract_y
_atom_site_fract_z
_atom_type_partial_charge
H0 H 0.79667 0.51176 0.35003 0.0
H1 H 0.80487 0.48553 0.12367 0.0
H2 H 0.86482 0.47312 0.2791 0.0
H3 H 0.79247 0.5367 0.13135 0.0
C4 C 0.7747 0.5268 0.14952 0.0
C5 C 0.80733 0.50161 0.30803 0.0
C6 C 0.83172 0.49223 0.32332 0.0
C7 C 0.79764 0.49912 0.23571 0.0
C8 C 0.8121 0.48687 0.18007 0.0
C9 C 0.83613 0.47705 0.19587 0.0
C10 C 0.84564 0.47962 0.26789 0.0
N11 N 0.77432 0.51031 0.21596 0.0
H12 H 0.94807 0.76464 0.243 0.0
H13 H 0.98715 0.77677 0.01293 0.0
H14 H 0.97888 0.83267 0.16349 0.0
H15 H 0.93848 0.75783 0.00543 0.0
C16 C 0.94696 0.74286 0.03692 0.0
C17 C 0.95823 0.77637 0.19786 0.0
C18 C 0.96389 0.79939 0.21212 0.0
C19 C 0.96555 0.76871 0.12422 0.0
C20 C 0.98023 0.78355 0.06736 0.0
C21 C 0.98622 0.80662 0.0816 0.0
C22 C 0.97643 0.81452 0.15262 0.0
N23 N 0.95822 0.74606 0.1072 0.0
H24 H 0.74958 0.98835 0.27528 0.0
H25 H 0.74439 0.99847 0.02662 0.0
H26 H 0.67527 0.9975 0.18286 0.0
H27 H 0.77951 0.97431 0.02702 0.0
C28 C 0.79089 0.98237 0.06747 0.0
C29 C 0.73811 0.99111 0.22582 0.0
C30 C 0.7108 0.99256 0.2379 0.0
C31 C 0.75049 0.99242 0.14935 0.0
C32 C 0.73529 0.9965 0.08564 0.0
C33 C 0.70822 0.99861 0.09767 0.0
C34 C 0.69627 0.99637 0.17357 0.0
N35 N 0.77808 0.98998 0.13737 0.0
H36 H 0.52682 0.71297 0.26956 0.0
H37 H 0.52414 0.68896 0.04024 0.0
H38 H 0.53448 0.64004 0.23749 0.0
H39 H 0.53892 0.72729 0.00379 0.0
C40 C 0.52684 0.73705 0.04411 0.0
C41 C 0.52791 0.69894 0.23139 0.0
C42 C 0.53227 0.67592 0.26183 0.0
C43 C 0.52541 0.70396 0.15108 0.0
C44 C 0.52652 0.6855 0.10172 0.0
C45 C 0.53041 0.66237 0.1326 0.0
C46 C 0.53278 0.65796 0.21247 0.0
N47 N 0.52097 0.72756 0.12257 0.0
H48 H 0.24147 0.5103 0.07602 0.0
H49 H 0.24128 0.54235 0.2917 0.0
H50 H 0.16989 0.53379 0.18719 0.0
H51 H 0.28625 0.55394 0.21386 0.0
C52 C 0.28846 0.53505 0.22187 0.0
C53 C 0.23105 0.51887 0.1226 0.0
C54 C 0.20421 0.52293 0.12178 0.0
C55 C 0.24454 0.52619 0.18341 0.0
C56 C 0.23093 0.53714 0.24422 0.0
C57 C 0.20387 0.53989 0.24677 0.0
C58 C 0.19089 0.53289 0.18474 0.0
N59 N 0.27127 0.52066 0.18695 0.0
H60 H 0.07637 0.22086 0.21901 0.0
H61 H 0.03353 0.21158 0.44646 0.0
H62 H 0.04068 0.15464 0.30329 0.0
H63 H 0.02409 0.2492 0.41472 0.0
C64 C 0.0428 0.25654 0.3911 0.0
C65 C 0.06541 0.20986 0.26459 0.0
C66 C 0.05975 0.18653 0.25312 0.0
C67 C 0.05549 0.21936 0.33358 0.0
C68 C 0.04081 0.20497 0.39207 0.0
C69 C 0.03505 0.18189 0.37988 0.0
C70 C 0.045 0.17273 0.31165 0.0
N71 N 0.05975 0.24347 0.34218 0.0
H72 H 0.28254 0.00806 0.15642 0.0
H73 H 0.28799 0.9991 0.4052 0.0
H74 H 0.3571 1.00136 0.249 0.0
H75 H 0.25215 0.02268 0.40292 0.0
C76 C 0.24106 0.01349 0.36441 0.0
C77 C 0.29408 0.0058 0.20586 0.0
C78 C 0.32147 0.00519 0.19372 0.0
C79 C 0.28169 0.00434 0.28241 0.0
C80 C 0.29701 1.00105 0.34607 0.0
C81 C 0.32411 0.99971 0.33394 0.0
C82 C 0.33606 0.00195 0.2581 0.0
N83 N 0.25402 0.00583 0.29477 0.0
H84 H 0.50457 0.29672 0.17046 0.0
H85 H 0.52458 0.3116 0.39865 0.0
H86 H 0.51496 0.36772 0.22344 0.0
H87 H 0.53694 0.2742 0.40839 0.0
C88 C 0.52353 0.26499 0.37679 0.0
C89 C 0.50882 0.30913 0.21141 0.0
C90 C 0.50857 0.33329 0.18856 0.0
C91 C 0.51455 0.30094 0.28727 0.0
C92 C 0.52046 0.31728 0.33974 0.0
C93 C 0.52031 0.34137 0.31677 0.0
C94 C 0.51423 0.34911 0.24174 0.0
N95 N 0.51328 0.27637 0.3095 0.0
C96 C 0.0333 0.95159 0.79912 0.0
N97 N 0.99333 0.96396 0.60357 0.0
C98 C 0.01034 0.94687 0.58444 0.0
C99 C 1.00229 0.92775 0.54911 0.0
C100 C 0.97667 0.92638 0.52821 0.0
C101 C 0.9598 0.94509 0.54422 0.0
C102 C 0.96848 0.96365 0.5833 0.0
Zn103 Zn 0.00696 0.98553 0.67906 0.0
C104 C 0.97033 0.98982 0.8181 0.0
N105 N 0.04141 0.02205 0.84675 0.0
C106 C 0.06558 0.02191 0.87248 0.0
C107 C 0.02456 0.03968 0.86134 0.0
C108 C 0.03201 0.05863 0.89856 0.0
C109 C 0.05671 0.0593 0.92645 0.0
C110 C 0.07355 0.04032 0.91375 0.0
Zn111 Zn 0.02792 1.0001 0.77134 0.0
O112 O 0.02046 0.95539 0.74021 0.0
C113 C 0.06446 0.99608 0.63187 0.0
O114 O 0.04018 0.96881 0.83439 0.0
H115 H 1.00545 0.03977 0.84055 0.0
H116 H 0.02998 0.9472 0.60115 0.0
H117 H 0.07886 0.00788 0.85954 0.0
O118 O 0.0434 0.98902 0.60837 0.0
O119 O 0.06423 0.00206 0.70106 0.0
H120 H 0.95516 0.97731 0.59968 0.0
O121 O 0.01569 0.03065 0.70564 0.0
O122 O 0.99347 0.01588 0.61914 0.0
O123 O 0.99112 0.99775 0.84063 0.0
O124 O 0.97096 0.98264 0.75048 0.0
C125 C 1.00188 0.03361 0.64845 0.0
H126 H 0.01612 0.91377 0.54189 0.0
H127 H 0.94 0.94529 0.5284 0.0
H128 H 0.01843 0.07292 0.90269 0.0
H129 H 0.09272 0.03972 0.93447 0.0
C130 C 0.47805 0.99674 0.61698 0.0
N131 N 0.51671 0.05576 0.67431 0.0
C132 C 0.51797 0.06022 0.59544 0.0
C133 C 0.51597 0.08298 0.56123 0.0
C134 C 0.51263 0.10167 0.60807 0.0
C135 C 0.5123 0.09687 0.68937 0.0
C136 C 0.51422 0.07358 0.72158 0.0
Zn137 Zn 0.51664 0.02051 0.71246 0.0
C138 C 0.47438 0.00507 0.82481 0.0
N139 N 0.51513 0.94603 0.75503 0.0
C140 C 0.51503 0.92835 0.70735 0.0
C141 C 0.51383 0.94133 0.83378 0.0
C142 C 0.51179 0.9184 0.86765 0.0
C143 C 0.51098 0.89977 0.82056 0.0
C144 C 0.51308 0.9049 0.73915 0.0
Zn145 Zn 0.51587 0.98127 0.7175 0.0
O146 O 0.48795 0.01546 0.6358 0.0
C147 C 0.55808 0.9965 0.60527 0.0
O148 O 0.48745 0.97706 0.63955 0.0
H149 H 0.51402 0.95549 0.871 0.0
H150 H 0.51993 0.04598 0.55848 0.0
H151 H 0.51606 0.93241 0.64489 0.0
O152 O 0.54841 0.01552 0.62724 0.0
O153 O 0.54706 0.97714 0.63066 0.0
H154 H 0.51315 0.06971 0.78413 0.0
O155 O 0.54472 0.98633 0.79396 0.0
O156 O 0.54501 0.02478 0.79053 0.0
O157 O 0.48429 0.98617 0.80283 0.0
O158 O 0.48519 0.02453 0.79942 0.0
C159 C 0.55454 0.0051 0.81278 0.0
H160 H 0.51679 0.08588 0.49832 0.0
H161 H 0.50972 0.11082 0.72757 0.0
H162 H 0.51078 0.9153 0.93054 0.0
H163 H 0.51251 0.89104 0.7007 0.0
C164 C 0.54035 0.48036 0.59194 0.0
N165 N 0.46654 0.50499 0.6652 0.0
C166 C 0.46692 0.51281 0.58843 0.0
C167 C 0.44432 0.51329 0.55028 0.0
C168 C 0.42091 0.50522 0.59058 0.0
C169 C 0.42088 0.49678 0.66945 0.0
C170 C 0.44409 0.49699 0.70615 0.0
Zn171 Zn 0.50244 0.50485 0.70875 0.0
C172 C 0.51483 0.46114 0.79731 0.0
N173 N 0.58108 0.5047 0.76549 0.0
C174 C 0.60239 0.51265 0.71886 0.0
C175 C 0.58248 0.49886 0.843 0.0
C176 C 0.60555 0.50196 0.8772 0.0
C177 C 0.62767 0.511 0.83131 0.0
C178 C 0.62601 0.51582 0.75062 0.0
Zn179 Zn 0.54495 0.50444 0.72461 0.0
O180 O 0.51704 0.486 0.61232 0.0
C181 C 0.53201 0.54857 0.63838 0.0
O182 O 0.55869 0.48753 0.62812 0.0
H183 H 0.56533 0.49266 0.8793 0.0
H184 H 0.48496 0.51844 0.55582 0.0
H185 H 0.60088 0.51723 0.65742 0.0
O186 O 0.51032 0.53791 0.64734 0.0
O187 O 0.55198 0.53838 0.66295 0.0
H188 H 0.44421 0.49056 0.76681 0.0
O189 O 0.53067 0.52094 0.82184 0.0
O190 O 0.48896 0.52333 0.80597 0.0
O191 O 0.53718 0.47073 0.78455 0.0
O192 O 0.49501 0.47199 0.77429 0.0
C193 C 0.50803 0.52752 0.84451 0.0
H194 H 0.44528 0.51946 0.48905 0.0
H195 H 0.40313 0.4903 0.7023 0.0
H196 H 0.60562 0.49827 0.93965 0.0
H197 H 0.64263 0.52241 0.7125 0.0
C198 C 0.05578 0.52325 0.60621 0.0
N199 N 0.03429 0.45254 0.65366 0.0
C200 C 0.03804 0.45238 0.57483 0.0
C201 C 0.04474 0.43174 0.54123 0.0
C202 C 0.04713 0.41096 0.58912 0.0
C203 C 0.04305 0.41151 0.67026 0.0
C204 C 0.03682 0.43267 0.70156 0.0
Zn205 Zn 0.02447 0.48357 0.69774 0.0
C206 C 0.0595 0.49683 0.81148 0.0
N207 N 1.00459 0.55067 0.77261 0.0
C208 C 0.99981 0.56891 0.72013 0.0
C209 C 1.00113 0.55271 0.85062 0.0
C210 C 0.99188 0.5736 0.87851 0.0
C211 C 0.9861 0.5925 0.82551 0.0
C212 C 0.99059 0.59005 0.74538 0.0
Zn213 Zn 0.01494 0.51939 0.73131 0.0
O214 O 0.05166 0.50129 0.61331 0.0
C215 C 0.97935 0.50528 0.61963 0.0
O216 O 0.04195 0.53638 0.64798 0.0
H217 H 1.00498 0.53794 0.89129 0.0
H218 H 0.03562 0.46828 0.53771 0.0
H219 H 1.0027 0.56692 0.6584 0.0
O220 O 0.99352 0.48718 0.62495 0.0
O221 O 0.98469 0.52288 0.65508 0.0
H222 H 0.03385 0.43321 0.76404 0.0
O223 O 0.9879 0.50209 0.81443 0.0
O224 O 0.99783 0.46654 0.78406 0.0
O225 O 0.04543 0.51512 0.80772 0.0
O226 O 0.05451 0.47997 0.77209 0.0
C227 C 0.98394 0.48013 0.82422 0.0
H228 H 0.04736 0.4319 0.47836 0.0
H229 H 0.04478 0.39576 0.70893 0.0
H230 H 0.98856 0.57469 0.94077 0.0
H231 H 0.98687 0.6043 0.70245 0.0
H232 H 0.21466 0.02389 0.49934 0.0
H233 H 0.20422 0.99309 0.28416 0.0
H234 H 0.15775 0.98571 0.32856 0.0
H235 H 0.17334 0.98376 0.6244 0.0
H236 H 0.16089 0.00562 0.68637 0.0
H237 H 0.19295 0.00893 0.63652 0.0
H238 H 0.18048 0.0497 0.57403 0.0
H239 H 0.14839 0.04651 0.62376 0.0
H240 H 0.15234 0.0524 0.5193 0.0
H241 H 0.11219 0.98166 0.39804 0.0
H242 H 0.07185 0.98061 0.48615 0.0
H243 H 0.11247 0.01357 0.65726 0.0
C244 C 0.20254 0.01568 0.46139 0.0
C245 C 0.213 0.00914 0.38816 0.0
C246 C 0.19662 0.9983 0.34035 0.0
C247 C 0.1702 0.99405 0.36518 0.0
C248 C 0.16053 1.00068 0.43799 0.0
C249 C 0.17626 0.01124 0.48541 0.0
C250 C 0.16133 0.01634 0.56153 0.0
C251 C 0.17281 0.00285 0.63131 0.0
C252 C 0.16059 0.04281 0.57012 0.0
C253 C 0.13466 0.00701 0.54984 0.0
C254 C 0.13457 0.99812 0.47811 0.0
C255 C 0.11211 0.98858 0.45425 0.0
C256 C 0.08924 0.98809 0.50484 0.0
C257 C 0.08887 0.997 0.57889 0.0
C258 C 0.11202 0.00657 0.60127 0.0
H259 H 0.54299 0.23828 0.49658 0.0
H260 H 0.49 0.23556 0.31641 0.0
H261 H 0.4799 0.19423 0.36134 0.0
H262 H 0.56866 0.18062 0.48336 0.0
H263 H 0.57107 0.17479 0.58658 0.0
H264 H 0.57338 0.20442 0.54222 0.0
H265 H 0.53562 0.21644 0.63907 0.0
H266 H 0.53311 0.1868 0.68349 0.0
H267 H 0.50503 0.20097 0.64612 0.0
H268 H 0.47633 0.15309 0.42328 0.0
H269 H 0.48047 0.11437 0.49515 0.0
H270 H 0.53598 0.14315 0.63574 0.0
C271 C 0.52919 0.22896 0.46686 0.0
C272 C 0.51728 0.24012 0.40301 0.0
C273 C 0.49939 0.2274 0.36533 0.0
C274 C 0.49347 0.20392 0.39063 0.0
C275 C 0.50556 0.19342 0.45373 0.0
C276 C 0.52308 0.20548 0.49132 0.0
C277 C 0.53389 0.18984 0.55627 0.0
C278 C 0.56351 0.18727 0.54117 0.0
C279 C 0.52646 0.19907 0.63596 0.0
C280 C 0.51991 0.16701 0.54877 0.0
C281 C 0.50355 0.16957 0.48948 0.0
C282 C 0.48904 0.1509 0.46984 0.0
C283 C 0.49161 0.12895 0.51086 0.0
C284 C 0.50863 0.12569 0.57085 0.0
C285 C 0.52263 0.14514 0.59078 0.0
H286 H 0.32624 0.55843 0.28232 0.0
H287 H 0.29072 0.48974 0.29001 0.0
H288 H 0.31899 0.47496 0.39188 0.0
H289 H 0.39131 0.53793 0.30481 0.0
H290 H 0.39904 0.5611 0.36299 0.0
H291 H 0.3756 0.56595 0.29225 0.0
H292 H 0.34163 0.57821 0.40041 0.0
H293 H 0.36488 0.5731 0.47167 0.0
H294 H 0.33379 0.55841 0.48615 0.0
H295 H 0.35105 0.46815 0.49609 0.0
H296 H 0.38704 0.46891 0.58194 0.0
H297 H 0.40183 0.54182 0.50176 0.0
C298 C 0.32454 0.54024 0.30524 0.0
C299 C 0.30639 0.52522 0.27839 0.0
C300 C 0.30465 0.50152 0.30948 0.0
C301 C 0.3205 0.49302 0.36771 0.0
C302 C 0.33805 0.50842 0.39365 0.0
C303 C 0.34034 0.53147 0.36254 0.0
C304 C 0.36123 0.54431 0.39815 0.0
C305 C 0.38309 0.55281 0.33584 0.0
C306 C 0.34968 0.56471 0.44168 0.0
C307 C 0.37043 0.52494 0.45416 0.0
C308 C 0.35667 0.50441 0.45163 0.0
C309 C 0.36195 0.48414 0.49839 0.0
C310 C 0.38224 0.48475 0.54738 0.0
C311 C 0.39713 0.5054 0.54834 0.0
C312 C 0.39077 0.52578 0.502 0.0
H313 H 0.01704 0.28066 0.50012 0.0
H314 H 0.08355 0.28536 0.32801 0.0
H315 H 0.09308 0.32525 0.36323 0.0
H316 H 0.99639 0.33958 0.47054 0.0
H317 H 0.98687 0.34223 0.57213 0.0
H318 H 0.9859 0.31407 0.53401 0.0
H319 H 0.01573 0.29708 0.63787 0.0
H320 H 0.01683 0.32522 0.67624 0.0
H321 H 0.0466 0.31094 0.6453 0.0
H322 H 0.09351 0.36559 0.41328 0.0
H323 H 0.08594 0.40228 0.47733 0.0
H324 H 0.02027 0.36987 0.62005 0.0
C325 C 0.03368 0.29008 0.47008 0.0
C326 C 0.04954 0.28009 0.4114 0.0
C327 C 0.07119 0.29278 0.37331 0.0
C328 C 0.07672 0.3154 0.39293 0.0
C329 C 0.06057 0.3248 0.45117 0.0
C330 C 0.0396 0.31243 0.48953 0.0
C331 C 0.02511 0.32636 0.54962 0.0
C332 C 0.9969 0.33082 0.53038 0.0
C333 C 0.02615 0.31417 0.63214 0.0
C334 C 0.04099 0.34869 0.53866 0.0
C335 C 0.06131 0.34754 0.48147 0.0
C336 C 0.07785 0.36657 0.45871 0.0
C337 C 0.07338 0.3873 0.49514 0.0
C338 C 0.05272 0.38871 0.55403 0.0
C339 C 0.03652 0.36907 0.5763 0.0
H340 H 0.81778 0.97067 0.93484 0.0
H341 H 0.82824 0.99982 0.15286 0.0
H342 H 0.87548 0.00412 0.11397 0.0
H343 H 0.87767 0.93798 0.92142 0.0
H344 H 0.88322 0.94398 0.81723 0.0
H345 H 0.85053 0.9428 0.86329 0.0
H346 H 0.84205 0.98451 0.80032 0.0
H347 H 0.8747 0.9858 0.75407 0.0
H348 H 0.86339 0.00821 0.81542 0.0
H349 H 0.92177 0.00562 0.04919 0.0
H350 H 0.96279 0.00472 0.96469 0.0
H351 H 0.92176 0.97475 0.78829 0.0
C352 C 0.83006 0.97785 0.97459 0.0
C353 C 0.81938 0.98483 0.047 0.0
C354 C 0.83599 0.9943 0.09723 0.0
C355 C 0.86285 0.99679 0.07556 0.0
C356 C 0.87274 0.98977 0.00349 0.0
C357 C 0.85679 0.98051 0.95377 0.0
C358 C 0.87206 0.97468 0.879 0.0
C359 C 0.87079 0.94829 0.86973 0.0
C360 C 0.86248 0.98917 0.80802 0.0
C361 C 0.89915 0.98213 0.8941 0.0
C362 C 0.89917 0.99074 0.96627 0.0
C363 C 0.92192 0.99886 0.9927 0.0
C364 C 0.94518 0.99825 0.94416 0.0
C365 C 0.94563 0.98962 0.86968 0.0
C366 C 0.92219 0.98139 0.84483 0.0
H367 H 0.54596 0.76433 0.9139 0.0
H368 H 0.49089 0.76463 0.11821 0.0
H369 H 0.47893 0.80528 0.0773 0.0
H370 H 0.56859 0.82293 0.91841 0.0
H371 H 0.5723 0.82921 0.81406 0.0
H372 H 0.57531 0.7996 0.85635 0.0
H373 H 0.53949 0.78624 0.77394 0.0
H374 H 0.53629 0.81586 0.73164 0.0
H375 H 0.50824 0.80034 0.77989 0.0
H376 H 0.47368 0.84594 0.01694 0.0
H377 H 0.47713 0.88503 0.94516 0.0
H378 H 0.53668 0.85949 0.78111 0.0
C379 C 0.53122 0.77295 0.94952 0.0
C380 C 0.5193 0.76134 0.01911 0.0
C381 C 0.50032 0.77319 0.06481 0.0
C382 C 0.49331 0.79625 0.04184 0.0
C383 C 0.50552 0.80726 0.97318 0.0
C384 C 0.52418 0.7961 0.9278 0.0
C385 C 0.53527 0.81242 0.8589 0.0
C386 C 0.56461 0.81627 0.86217 0.0
C387 C 0.52947 0.80316 0.78151 0.0
C388 C 0.52009 0.83456 0.87311 0.0
C389 C 0.50287 0.83104 0.93898 0.0
C390 C 0.4871 0.84891 0.96533 0.0
C391 C 0.48931 0.8711 0.92431 0.0
C392 C 0.50732 0.87542 0.85783 0.0
C393 C 0.52257 0.85671 0.83121 0.0
H394 H 0.73216 0.49749 0.149 0.0
H395 H 0.76937 0.56042 0.03284 0.0
H396 H 0.73593 0.56331 0.93878 0.0
H397 H 0.71614 0.47345 0.9758 0.0
H398 H 0.68535 0.46134 0.01762 0.0
H399 H 0.71125 0.46486 0.07886 0.0
H400 H 0.68117 0.48961 0.16706 0.0
H401 H 0.65512 0.48602 0.10638 0.0
H402 H 0.66527 0.51497 0.12416 0.0
H403 H 0.69909 0.55907 0.85631 0.0
H404 H 0.66079 0.5484 0.79156 0.0
H405 H 0.64865 0.4869 0.95665 0.0
C406 C 0.733 0.51206 0.10451 0.0
C407 C 0.75315 0.52894 0.09847 0.0
C408 C 0.75393 0.54747 0.03859 0.0
C409 C 0.73508 0.54921 0.98489 0.0
C410 C 0.71566 0.53216 0.99156 0.0
C411 C 0.71443 0.51394 0.0498 0.0
C412 C 0.69197 0.49756 0.04217 0.0
C413 C 0.70177 0.47284 0.02774 0.0
C414 C 0.67221 0.49702 0.11423 0.0
C415 C 0.68081 0.50944 0.97068 0.0
C416 C 0.69475 0.52938 0.94257 0.0
C417 C 0.68808 0.54341 0.87751 0.0
C418 C 0.66639 0.53704 0.84057 0.0
C419 C 0.65164 0.51669 0.86833 0.0
C420 C 0.65924 0.50268 0.9341 0.0
H421 H 0.97591 0.70364 0.0749 0.0
H422 H 0.91845 0.73103 0.92295 0.0
H423 H 0.91995 0.69423 0.8585 0.0
H424 H 0.01455 0.67674 0.93087 0.0
H425 H 0.02297 0.65161 0.99368 0.0
H426 H 0.01536 0.67894 0.03394 0.0
H427 H 0.97953 0.65834 0.13028 0.0
H428 H 0.9871 0.63088 0.09045 0.0
H429 H 0.95436 0.6419 0.0932 0.0
H430 H 0.92946 0.65591 0.8056 0.0
H431 H 0.94696 0.61843 0.7652 0.0
H432 H 0.99967 0.61624 0.94782 0.0
C433 C 0.96326 0.70164 0.02922 0.0
C434 C 0.94678 0.71996 0.00426 0.0
C435 C 0.93101 0.71703 0.94306 0.0
C436 C 0.93171 0.69622 0.90629 0.0
C437 C 0.94841 0.67859 0.93129 0.0
C438 C 0.96393 0.68103 0.99127 0.0
C439 C 0.98147 0.66001 0.00294 0.0
C440 C 0.01029 0.66727 0.98953 0.0
C441 C 0.97523 0.64701 0.08404 0.0
C442 C 0.97367 0.6456 0.93934 0.0
C443 C 0.95439 0.65657 0.89932 0.0
C444 C 0.94451 0.6471 0.83659 0.0
C445 C 0.95474 0.6259 0.81369 0.0
C446 C 0.97481 0.61446 0.85296 0.0
C447 C 0.98415 0.6244 0.91718 0.0
H448 H 0.04629 0.16272 0.52187 0.0
H449 H 0.98774 0.16514 0.35754 0.0
H450 H 0.96696 0.12961 0.4267 0.0
H451 H 0.05798 0.10697 0.52395 0.0
H452 H 0.06262 0.10031 0.62558 0.0
H453 H 0.06804 0.12956 0.5813 0.0
H454 H 0.03486 0.14576 0.68391 0.0
H455 H 0.02971 0.11649 0.73016 0.0
H456 H 1.00248 0.13358 0.69972 0.0
H457 H 0.96066 0.08904 0.48724 0.0
H458 H 0.96591 0.04864 0.54693 0.0
H459 H 0.02762 0.07283 0.67521 0.0
C460 C 0.02813 0.15653 0.50404 0.0
C461 C 0.01819 0.16669 0.43588 0.0
C462 C 0.99516 0.1577 0.41095 0.0
C463 C 0.98331 0.13752 0.44972 0.0
C464 C 0.9946 0.1268 0.51381 0.0
C465 C 0.0161 0.13634 0.54234 0.0
C466 C 0.02681 0.11963 0.60421 0.0
C467 C 0.05554 0.11378 0.58235 0.0
C468 C 0.02324 0.12945 0.68425 0.0
C469 C 0.00932 0.09866 0.60142 0.0
C470 C 0.99058 0.1032 0.54998 0.0
C471 C 0.97461 0.08548 0.52984 0.0
C472 C 0.97788 0.06256 0.56329 0.0
C473 C 0.99698 0.05769 0.61606 0.0
C474 C 0.01246 0.07611 0.63623 0.0
H475 H 0.36407 0.96925 0.35611 0.0
H476 H 0.32232 0.02671 0.45577 0.0
H477 H 0.356 0.02959 0.54735 0.0
H478 H 0.39022 0.94375 0.54337 0.0
H479 H 0.42055 0.93623 0.49207 0.0
H480 H 0.39087 0.93589 0.44461 0.0
H481 H 0.41195 0.96422 0.33172 0.0
H482 H 0.44144 0.96514 0.37941 0.0
H483 H 0.42478 0.99194 0.35292 0.0
H484 H 0.39719 0.03136 0.60799 0.0
H485 H 0.44127 0.02845 0.65046 0.0
H486 H 0.45667 0.96857 0.51669 0.0
C487 C 0.36165 0.98188 0.39916 0.0
C488 C 0.34064 0.99772 0.39954 0.0
C489 C 0.33809 0.01422 0.45565 0.0
C490 C 0.35718 0.01605 0.50743 0.0
C491 C 0.37835 1.00095 0.50293 0.0
C492 C 0.38043 0.98378 0.45166 0.0
C493 C 0.4061 0.97097 0.4549 0.0
C494 C 0.40166 0.94518 0.48559 0.0
C495 C 0.42199 0.97322 0.37499 0.0
C496 C 0.41867 0.98442 0.51323 0.0
C497 C 0.4022 0.00158 0.54011 0.0
C498 C 0.41005 0.01768 0.58883 0.0
C499 C 0.43526 0.01605 0.61169 0.0
C500 C 0.45236 0.99833 0.58641 0.0
C501 C 0.44389 0.98215 0.53712 0.0
H502 H 0.49218 0.37943 0.35478 0.0
H503 H 0.5647 0.34371 0.39114 0.0
H504 H 0.57963 0.37737 0.45681 0.0
H505 H 0.51831 0.4365 0.31128 0.0
H506 H 0.49161 0.45089 0.36151 0.0
H507 H 0.48624 0.42366 0.32075 0.0
H508 H 0.46702 0.40494 0.45563 0.0
H509 H 0.47166 0.43232 0.49614 0.0
H510 H 0.48556 0.40589 0.53886 0.0
H511 H 0.58718 0.4161 0.5119 0.0
H512 H 0.58406 0.45363 0.57184 0.0
H513 H 0.50631 0.4635 0.49802 0.0
C514 C 0.51104 0.37857 0.37779 0.0
C515 C 0.52734 0.35908 0.36842 0.0
C516 C 0.55188 0.35845 0.39887 0.0
C517 C 0.56059 0.37757 0.43522 0.0
C518 C 0.54439 0.39698 0.44074 0.0
C519 C 0.51992 0.39737 0.41424 0.0
C520 C 0.50605 0.42005 0.42814 0.0
C521 C 0.50022 0.43357 0.35081 0.0
C522 C 0.48111 0.41552 0.48298 0.0
C523 C 0.52651 0.43244 0.46685 0.0
C524 C 0.54863 0.41902 0.47273 0.0
C525 C 0.56994 0.42673 0.50772 0.0
C526 C 0.56808 0.44821 0.54088 0.0
C527 C 0.54495 0.46153 0.53946 0.0
C528 C 0.52432 0.45382 0.4996 0.0
H529 H 0.15756 0.56395 0.25673 0.0
H530 H 0.21424 0.52975 0.39923 0.0
H531 H 0.18355 0.53102 0.51458 0.0
H532 H 0.11979 0.59654 0.41534 0.0
H533 H 0.08948 0.58967 0.37804 0.0
H534 H 0.11844 0.59459 0.31234 0.0
H535 H 0.11182 0.55422 0.26058 0.0
H536 H 0.08328 0.54892 0.32677 0.0
H537 H 0.10968 0.52832 0.32808 0.0
H538 H 0.14491 0.52574 0.60534 0.0
H539 H 0.10102 0.51551 0.66641 0.0
H540 H 0.06699 0.5493 0.46578 0.0
C541 C 0.16383 0.55731 0.31252 0.0
C542 C 0.18843 0.54665 0.31814 0.0
C543 C 0.19587 0.53846 0.39265 0.0
C544 C 0.1784 0.53898 0.45898 0.0
C545 C 0.15353 0.54765 0.45007 0.0
C546 C 0.14625 0.55691 0.37879 0.0
C547 C 0.1171 0.56071 0.38157 0.0
C548 C 0.11084 0.58694 0.37124 0.0
C549 C 0.10477 0.54723 0.32069 0.0
C550 C 0.10895 0.55047 0.46376 0.0
C551 C 0.13042 0.54379 0.50291 0.0
C552 C 0.12801 0.53148 0.57625 0.0
C553 C 0.1031 0.52557 0.61009 0.0
C554 C 0.08101 0.53181 0.57041 0.0
C555 C 0.08378 0.54481 0.49724 0.0
H556 H 0.01715 0.84372 0.11048 0.0
H557 H 0.99147 0.80723 0.92046 0.0
H558 H 0.0129 0.83729 0.82691 0.0
H559 H 0.99567 0.89609 0.03655 0.0
H560 H 0.02053 0.91371 0.07027 0.0
H561 H 0.01176 0.88585 0.12142 0.0
H562 H 0.05972 0.87264 0.10445 0.0
H563 H 0.06869 0.90054 0.05258 0.0
H564 H 0.07654 0.87382 0.00831 0.0
H565 H 0.03009 0.87358 0.75492 0.0
H566 H 0.03465 0.91517 0.71011 0.0
H567 H 0.04156 0.932 0.9471 0.0
C568 C 0.01589 0.84178 0.04934 0.0
C569 C 1.00217 0.82287 0.02376 0.0
C570 C 1.00211 0.82105 0.94261 0.0
C571 C 0.01428 0.83817 0.88864 0.0
C572 C 0.02615 0.85721 0.91641 0.0
C573 C 0.02671 0.85928 0.995 0.0
C574 C 0.03542 0.88358 0.01045 0.0
C575 C 0.0146 0.8955 0.06268 0.0
C576 C 0.06166 0.88257 0.04604 0.0
C577 C 0.03819 0.89535 0.92824 0.0
C578 C 0.03402 0.8794 0.8749 0.0
C579 C 0.0336 0.88615 0.79598 0.0
C580 C 0.03608 0.90992 0.77126 0.0
C581 C 0.03815 0.92687 0.82542 0.0
C582 C 0.04038 0.91941 0.90446 0.0
H583 H 0.66777 0.02898 0.08051 0.0
H584 H 0.71051 0.97393 0.96969 0.0
H585 H 0.67723 0.97272 0.87613 0.0
H586 H 0.60748 0.00553 0.07793 0.0
H587 H 0.59035 0.03248 0.05746 0.0
H588 H 0.61972 0.03267 0.10602 0.0
H589 H 0.64036 0.06337 -0.00031 0.0
H590 H 0.61081 0.06371 0.95139 0.0
H591 H 0.6414 0.05766 0.89866 0.0
H592 H 0.63639 0.97211 0.81295 0.0
H593 H 0.59227 0.97529 0.77072 0.0
H594 H 0.57533 0.03161 0.91901 0.0
C595 C 0.67047 0.01719 0.03494 0.0
C596 C 0.69169 0.00156 0.03193 0.0
C597 C 0.69461 0.98626 0.97212 0.0
C598 C 0.67573 0.98537 0.91911 0.0
C599 C 0.65435 1.00016 0.92624 0.0
C600 C 0.65184 0.01616 0.9815 0.0
C601 C 0.62592 0.02865 0.98078 0.0
C602 C 0.60994 0.02457 0.06026 0.0
C603 C 0.62987 0.05491 0.95613 0.0
C604 C 0.61374 0.0164 0.91884 0.0
C605 C 0.63062 1.00012 0.88814 0.0
C606 C 0.62321 0.98511 0.83526 0.0
C607 C 0.59799 0.98687 0.8125 0.0
C608 C 0.58042 0.00362 0.84213 0.0
C609 C 0.58849 0.01881 0.89525 0.0
H610 H 0.49883 0.65153 0.01796 0.0
H611 H 0.56508 0.62689 0.13994 0.0
H612 H 0.56032 0.58797 0.09457 0.0
H613 H 0.46086 0.59994 0.04143 0.0
H614 H 0.45132 0.60119 0.94341 0.0
H615 H 0.45888 0.6278 0.98511 0.0
H616 H 0.49376 0.63895 0.87075 0.0
H617 H 0.48555 0.61284 0.8273 0.0
H618 H 0.51869 0.61813 0.84617 0.0
H619 H 0.54561 0.55116 0.05331 0.0
H620 H 0.53325 0.52049 0.97308 0.0
H621 H 0.48081 0.56868 0.85858 0.0
C622 C 0.5127 0.6381 0.03333 0.0
C623 C 0.53166 0.64196 0.08527 0.0
C624 C 0.54978 0.62406 0.10272 0.0
C625 C 0.54717 0.60184 0.07771 0.0
C626 C 0.52705 0.59801 0.03218 0.0
C627 C 0.51105 0.6158 0.0061 0.0
C628 C 0.49286 0.60699 0.9504 0.0
C629 C 0.46428 0.60911 0.98201 0.0
C630 C 0.49803 0.61999 0.86882 0.0
C631 C 0.50101 0.58146 0.95086 0.0
C632 C 0.52016 0.57673 0.00087 0.0
C633 C 0.53093 0.55464 0.01291 0.0
C634 C 0.52353 0.53727 0.96782 0.0
C635 C 0.50612 0.54227 0.9099 0.0
C636 C 0.49373 0.5643 0.90365 0.0
H637 H 0.84873 0.49804 0.05159 0.0
H638 H 0.86426 0.43639 0.20342 0.0
H639 H 0.90097 0.42644 0.11049 0.0
H640 H 0.87165 0.47406 0.85851 0.0
H641 H 0.88565 0.5021 0.82219 0.0
H642 H 0.85668 0.50058 0.88876 0.0
H643 H 0.87965 0.52544 0.98078 0.0
H644 H 0.90874 0.52669 0.91577 0.0
H645 H 0.90993 0.5154 0.016 0.0
H646 H 0.94035 0.42716 0.01239 0.0
H647 H 0.97871 0.43916 0.92042 0.0
H648 H 0.93781 0.5015 0.84016 0.0
C649 C 0.859 0.48179 0.06316 0.0
C650 C 0.8535 0.46774 0.13361 0.0
C651 C 0.86809 0.44718 0.14897 0.0
C652 C 0.88888 0.44139 0.09648 0.0
C653 C 0.89469 0.45633 0.02911 0.0
C654 C 0.87994 0.47602 0.01208 0.0
C655 C 0.89239 0.4913 0.9433 0.0
C656 C 0.87559 0.49204 0.87409 0.0
C657 C 0.89801 0.51615 0.96537 0.0
C658 C 0.91712 0.47788 0.92708 0.0
C659 C 0.91789 0.45739 0.97528 0.0
C660 C 0.93976 0.44299 0.97353 0.0
C661 C 0.96144 0.44992 0.92166 0.0
C662 C 0.96111 0.47134 0.87461 0.0
C663 C 0.93854 0.48514 0.87644 0.0
H664 H 0.02604 0.16887 0.16529 0.0
H665 H 0.10838 0.17816 0.18135 0.0
H666 H 0.11781 0.14852 0.08614 0.0
H667 H 0.02973 0.11023 0.18705 0.0
H668 H 1.00397 0.10456 0.12732 0.0
H669 H 1.004 0.13115 0.17477 0.0
H670 H 1.00252 0.15594 0.04223 0.0
H671 H 1.00175 0.12935 0.99426 0.0
H672 H 0.02643 0.15117 0.96288 0.0
H673 H 0.11686 0.11342 -0.0001 0.0
H674 H 0.10611 0.07798 0.93702 0.0
H675 H 0.02446 0.08797 0.01034 0.0
C676 C 0.0461 0.1655 0.14565 0.0
C677 C 0.06651 0.176 0.17908 0.0
C678 C 0.09253 0.17067 0.15459 0.0
C679 C 0.09798 0.15368 0.10125 0.0
C680 C 0.07713 0.14215 0.07439 0.0
C681 C 0.05168 0.148 0.09621 0.0
C682 C 0.03258 0.13065 0.07294 0.0
C683 C 0.01666 0.11844 0.14477 0.0
C684 C 0.01478 0.14249 0.01458 0.0
C685 C 0.05108 0.11393 0.03478 0.0
C686 C 0.07665 0.12095 0.03385 0.0
C687 C 0.09683 0.10788 0.00043 0.0
C688 C 0.09052 0.0875 0.96576 0.0
C689 C 0.06427 0.07999 0.9669 0.0
C690 C 0.04464 0.09331 0.00435 0.0
H691 H 0.35962 0.03666 0.13889 0.0
H692 H 0.31802 0.9765 0.07716 0.0
H693 H 0.3514 0.97217 0.96755 0.0
H694 H 0.38565 0.05895 0.93333 0.0
H695 H 0.41597 0.06761 0.96679 0.0
H696 H 0.38627 0.06866 0.02945 0.0
H697 H 0.40733 0.04246 0.13609 0.0
H698 H 0.43682 0.04075 0.07338 0.0
H699 H 0.4201 0.01429 0.114 0.0
H700 H 0.3931 0.96976 0.88342 0.0
H701 H 0.43724 0.9724 0.81698 0.0
H702 H 0.45213 0.03509 0.92958 0.0
C703 C 0.35695 0.02328 0.09986 0.0
C704 C 0.33604 0.0071 0.11548 0.0
C705 C 0.33351 0.98936 0.06495 0.0
C706 C 0.35255 0.98667 0.00313 0.0
C707 C 0.37374 0.00209 0.99216 0.0
C708 C 0.37572 0.02044 0.03789 0.0
C709 C 0.40148 0.03335 0.01828 0.0
C710 C 0.39707 0.05864 0.98496 0.0
C711 C 0.41736 0.03266 0.08969 0.0
C712 C 0.41418 0.01885 0.95641 0.0
C713 C 0.39777 1.00093 0.94233 0.0
C714 C 0.40584 0.98401 0.89276 0.0
C715 C 0.43112 0.98554 0.85596 0.0
C716 C 0.4482 0.00395 0.86812 0.0
C717 C 0.43946 0.02097 0.91858 0.0
H718 H 0.47365 0.36623 0.14411 0.0
H719 H 0.537 0.32391 0.05476 0.0
H720 H 0.54088 0.34966 0.93175 0.0
H721 H 0.44677 0.38466 0.94722 0.0
H722 H 0.4396 0.41344 0.97742 0.0
H723 H 0.43728 0.3883 0.04821 0.0
H724 H 0.4688 0.40855 0.12988 0.0
H725 H 0.47183 0.43342 0.05885 0.0
H726 H 0.50046 0.41779 0.08575 0.0
H727 H 0.54544 0.38504 0.83667 0.0
H728 H 0.54645 0.42469 0.76745 0.0
H729 H 0.47898 0.44389 0.91463 0.0
C730 C 0.48734 0.36171 0.09675 0.0
C731 C 0.50479 0.34295 0.10809 0.0
C732 C 0.52309 0.33786 0.04632 0.0
C733 C 0.52553 0.35253 0.97656 0.0
C734 C 0.5092 0.3719 0.96926 0.0
C735 C 0.48993 0.37616 0.02691 0.0
C736 C 0.47709 0.39963 0.00929 0.0
C737 C 0.44848 0.3963 0.99464 0.0
C738 C 0.47973 0.41578 0.07481 0.0
C739 C 0.49313 0.40857 0.93513 0.0
C740 C 0.51142 0.39223 0.91269 0.0
C741 C 0.53066 0.39763 0.85208 0.0
C742 C 0.53123 0.42022 0.81357 0.0
C743 C 0.51256 0.43708 0.83522 0.0
C744 C 0.49299 0.43104 0.89574 0.0
H745 H 0.16784 0.54869 0.04866 0.0
H746 H 0.20485 0.4807 0.05725 0.0
H747 H 0.17256 0.46672 0.97367 0.0
H748 H 0.10467 0.52791 0.07144 0.0
H749 H 0.09157 0.5507 0.00778 0.0
H750 H 0.1198 0.55645 0.05716 0.0
H751 H 0.14583 0.56932 0.92523 0.0
H752 H 0.11748 0.5641 0.87544 0.0
H753 H 0.1477 0.54993 0.84842 0.0
H754 H 0.13312 0.45927 0.90065 0.0
H755 H 0.09214 0.45966 0.83691 0.0
H756 H 0.08039 0.53232 0.88279 0.0
C757 C 0.16953 0.53101 0.03139 0.0
C758 C 0.18886 0.51577 0.05911 0.0
C759 C 0.19042 0.49275 0.03566 0.0
C760 C 0.17203 0.48463 0.98882 0.0
C761 C 0.15239 0.49983 0.96587 0.0
C762 C 0.1513 0.52265 0.98564 0.0
C763 C 0.12741 0.53509 0.95853 0.0
C764 C 0.10984 0.54299 0.02786 0.0
C765 C 0.13507 0.55583 0.89831 0.0
C766 C 0.11487 0.51561 0.92149 0.0
C767 C 0.1296 0.49544 0.92575 0.0
C768 C 0.12158 0.47503 0.8965 0.0
C769 C 0.09818 0.4754 0.8608 0.0
C770 C 0.08295 0.496 0.85513 0.0
C771 C 0.09144 0.51625 0.88655 0.0
H772 H 1.00015 0.81483 0.29488 0.0
H773 H 0.91695 0.80714 0.2945 0.0
H774 H 0.91042 0.83639 0.39206 0.0
H775 H 1.00534 0.83349 0.49547 0.0
H776 H 0.02959 0.85502 0.45703 0.0
H777 H 0.02722 0.82803 0.41203 0.0
H778 H 0.02272 0.85199 0.27935 0.0
H779 H 0.02423 0.87896 0.32397 0.0
H780 H 0.99679 0.87289 0.2713 0.0
H781 H 0.91407 0.87139 0.47572 0.0
H782 H 0.92674 0.90741 0.53149 0.0
H783 H 0.00681 0.89665 0.44176 0.0
C784 C 0.98058 0.81831 0.31904 0.0
C785 C 0.95906 0.80848 0.28913 0.0
C786 C 0.93365 0.81407 0.31877 0.0
C787 C 0.92984 0.83086 0.37342 0.0
C788 C 0.95168 0.84197 0.39608 0.0
C789 C 0.97658 0.83581 0.36929 0.0
C790 C 0.9966 0.85328 0.38646 0.0
C791 C 0.01581 0.84177 0.44103 0.0
C792 C 0.0109 0.86495 0.31082 0.0
C793 C 0.97923 0.87038 0.42695 0.0
C794 C 0.95351 0.86343 0.43433 0.0
C795 C 0.93422 0.87689 0.47022 0.0
C796 C 0.94162 0.89763 0.50068 0.0
C797 C 0.96801 0.90516 0.4926 0.0
C798 C 0.98667 0.89138 0.453 0.0
H799 H 0.67193 0.96194 0.29344 0.0
H800 H 0.71512 0.02139 0.35348 0.0
H801 H 0.68183 0.02674 0.46248 0.0
H802 H 0.61217 0.98569 0.31667 0.0
H803 H 0.59466 0.95972 0.35803 0.0
H804 H 0.62413 0.95715 0.29587 0.0
H805 H 0.64439 0.93078 0.40372 0.0
H806 H 0.61467 0.93265 0.46582 0.0
H807 H 0.64518 0.94073 0.49944 0.0
H808 H 0.6401 0.03033 0.54581 0.0
H809 H 0.59586 0.02873 0.61187 0.0
H810 H 0.57951 0.96599 0.50146 0.0
C811 C 0.67496 0.97536 0.33208 0.0
C812 C 0.69628 0.99105 0.31613 0.0
C813 C 0.69929 0.00889 0.36601 0.0
C814 C 0.68031 0.01216 0.42747 0.0
C815 C 0.6587 0.99722 0.43871 0.0
C816 C 0.65625 0.97876 0.39368 0.0
C817 C 0.63015 0.96648 0.41334 0.0
C818 C 0.61436 0.96732 0.34171 0.0
C819 C 0.63382 0.94115 0.44764 0.0
C820 C 0.61783 0.98144 0.47441 0.0
C821 C 0.63468 0.99906 0.48805 0.0
C822 C 0.627 0.01631 0.53682 0.0
C823 C 0.60167 0.01539 0.57338 0.0
C824 C 0.58418 0.99724 0.56175 0.0
C825 C 0.59251 0.97992 0.51199 0.0
H826 H 0.57198 0.65182 0.3218 0.0
H827 H 0.49717 0.68194 0.3858 0.0
H828 H 0.49368 0.65641 0.50912 0.0
H829 H 0.55403 0.59782 0.36427 0.0
H830 H 0.58314 0.58585 0.40208 0.0
H831 H 0.5851 0.61166 0.33516 0.0
H832 H 0.60724 0.63471 0.43336 0.0
H833 H 0.60622 0.60869 0.50034 0.0
H834 H 0.59225 0.63554 0.5312 0.0
H835 H 0.49226 0.62092 0.60158 0.0
H836 H 0.49462 0.5807 0.66349 0.0
H837 H 0.57016 0.57196 0.53957 0.0
C838 C 0.55571 0.65405 0.36443 0.0
C839 C 0.53501 0.66905 0.34527 0.0
C840 C 0.51347 0.671 0.40041 0.0
C841 C 0.51129 0.65637 0.47028 0.0
C842 C 0.53096 0.64014 0.48412 0.0
C843 C 0.55312 0.63926 0.43347 0.0
C844 C 0.5691 0.61766 0.45374 0.0
C845 C 0.57304 0.60236 0.38474 0.0
C846 C 0.59526 0.62457 0.48133 0.0
C847 C 0.55163 0.60563 0.52023 0.0
C848 C 0.53 0.61915 0.53783 0.0
C849 C 0.50945 0.61055 0.58994 0.0
C850 C 0.51086 0.58757 0.62418 0.0
C851 C 0.53265 0.57335 0.60641 0.0
C852 C 0.55359 0.5827 0.55532 0.0
H853 H 0.86827 0.52544 0.33058 0.0
H854 H 0.82685 0.46792 0.46602 0.0
H855 H 0.85842 0.4682 0.56568 0.0
H856 H 0.9285 0.50542 0.35274 0.0
H857 H 0.94435 0.53297 0.36076 0.0
H858 H 0.91565 0.53226 0.30934 0.0
H859 H 0.89267 0.56144 0.39821 0.0
H860 H 0.92159 0.5628 0.44892 0.0
H861 H 0.89082 0.55516 0.50253 0.0
H862 H 0.89864 0.46928 0.63423 0.0
H863 H 0.94258 0.47396 0.67677 0.0
H864 H 0.95807 0.53183 0.50003 0.0
C865 C 0.86514 0.51383 0.38351 0.0
C866 C 0.8448 0.49713 0.39246 0.0
C867 C 0.84186 0.48129 0.45994 0.0
C868 C 0.85981 0.48125 0.51629 0.0
C869 C 0.88041 0.49726 0.50413 0.0
C870 C 0.88288 0.51365 0.44027 0.0
C871 C 0.90823 0.52723 0.43665 0.0
C872 C 0.92517 0.52428 0.36036 0.0
C873 C 0.90301 0.5532 0.44723 0.0
C874 C 0.92023 0.5152 0.5063 0.0
C875 C 0.90375 0.49805 0.54455 0.0
C876 C 0.91142 0.483 0.60591 0.0
C877 C 0.93646 0.48562 0.62908 0.0
C878 C 0.95349 0.50322 0.59145 0.0
C879 C 0.9452 0.51842 0.53002 0.0
loop_
_geom_bond_atom_site_label_1
_geom_bond_atom_site_label_2
_geom_bond_distance
_geom_bond_site_symmetry_2
_ccdc_geom_bond_type
H0 C5 0.930 . S
H1 C8 0.930 . S
H2 C10 0.930 . S
H3 C4 1.016 . S
C4 H3 1.016 . S
C4 N11 1.286 . S
C5 H0 0.930 . S
C5 C6 1.397 . S
C5 C7 1.361 . S
C6 C5 1.397 . S
C6 C10 1.390 . S
C7 C5 1.361 . S
C7 C8 1.393 . S
C7 N11 1.413 . S
C8 H1 0.930 . S
C8 C7 1.393 . S
C8 C9 1.399 . S
C9 C8 1.399 . S
C9 C10 1.381 . S
C10 H2 0.930 . S
C10 C6 1.390 . S
C10 C9 1.381 . S
N11 C4 1.286 . S
N11 C7 1.413 . S
H12 C17 0.930 . S
H13 C20 0.930 . S
H14 C22 0.930 . S
H15 C16 1.016 . S
C16 H15 1.016 . S
C16 N23 1.286 1_556 S
C17 H12 0.930 . S
C17 C18 1.397 . S
C17 C19 1.361 . S
C18 C17 1.397 . S
C18 C22 1.390 . S
C19 C17 1.361 . S
C19 C20 1.393 1_554 S
C19 N23 1.413 . S
C20 H13 0.930 . S
C20 C19 1.393 1_556 S
C20 C21 1.399 . S
C21 C20 1.399 . S
C21 C22 1.381 1_556 S
C22 H14 0.930 . S
C22 C18 1.390 . S
C22 C21 1.381 1_554 S
N23 C16 1.286 1_554 S
N23 C19 1.413 . S
H24 C29 0.930 . S
H25 C32 0.930 1_556 S
H26 C34 0.930 . S
H27 C28 1.032 1_556 S
C28 H27 1.032 1_554 S
C28 N35 1.266 1_565 S
C29 H24 0.930 . S
C29 C30 1.406 . S
C29 C31 1.361 . S
C30 C29 1.406 . S
C30 C34 1.382 1_545 S
C31 C29 1.361 . S
C31 C32 1.393 . S
C31 N35 1.413 . S
C32 H25 0.930 1_554 S
C32 C31 1.393 . S
C32 C33 1.402 . S
C33 C32 1.402 . S
C33 C34 1.381 1_545 S
C34 H26 0.930 . S
C34 C30 1.382 1_565 S
C34 C33 1.381 1_565 S
N35 C28 1.266 1_545 S
N35 C31 1.413 . S
H36 C41 0.930 . S
H37 C44 0.930 1_556 S
H38 C46 0.930 . S
H39 C40 1.016 1_556 S
C40 H39 1.016 1_554 S
C40 N47 1.286 . S
C41 H36 0.930 . S
C41 C42 1.397 . S
C41 C43 1.361 . S
C42 C41 1.397 . S
C42 C46 1.390 . S
C43 C41 1.361 . S
C43 C44 1.393 . S
C43 N47 1.413 . S
C44 H37 0.930 1_554 S
C44 C43 1.393 . S
C44 C45 1.399 . S
C45 C44 1.399 . S
C45 C46 1.381 . S
C46 H38 0.930 . S
C46 C42 1.390 . S
C46 C45 1.381 . S
N47 C40 1.286 . S
N47 C43 1.413 . S
H48 C53 0.930 . S
H49 C56 0.930 . S
H50 C58 0.930 . S
H51 C52 1.016 . S
C52 H51 1.016 . S
C52 N59 1.286 . S
C53 H48 0.930 . S
C53 C54 1.397 . S
C53 C55 1.361 . S
C54 C53 1.397 . S
C54 C58 1.390 . S
C55 C53 1.361 . S
C55 C56 1.393 . S
C55 N59 1.413 . S
C56 H49 0.930 . S
C56 C55 1.393 . S
C56 C57 1.399 . S
C57 C56 1.399 . S
C57 C58 1.381 . S
C58 H50 0.930 . S
C58 C54 1.390 . S
C58 C57 1.381 . S
N59 C52 1.286 . S
N59 C55 1.413 . S
H60 C65 0.930 . S
H61 C68 0.930 . S
H62 C70 0.930 . S
H63 C64 1.016 . S
C64 H63 1.016 . S
C64 N71 1.286 . S
C65 H60 0.930 . S
C65 C66 1.397 . S
C65 C67 1.361 . S
C66 C65 1.397 . S
C66 C70 1.390 . S
C67 C65 1.361 . S
C67 C68 1.393 . S
C67 N71 1.413 . S
C68 H61 0.930 . S
C68 C67 1.393 . S
C68 C69 1.399 . S
C69 C68 1.399 . S
C69 C70 1.381 . S
C70 H62 0.930 . S
C70 C66 1.390 . S
C70 C69 1.381 . S
N71 C64 1.286 . S
N71 C67 1.413 . S
H72 C77 0.930 . S
H73 C80 0.930 . S
H74 C82 0.930 . S
H75 C76 1.023 . S
C76 H75 1.023 . S
C76 N83 1.275 1_565 S
C77 H72 0.930 . S
C77 C78 1.397 . S
C77 C79 1.361 . S
C78 C77 1.397 . S
C78 C82 1.390 1_545 S
C79 C77 1.361 . S
C79 C80 1.393 . S
C79 N83 1.413 . S
C80 H73 0.930 . S
C80 C79 1.393 . S
C80 C81 1.405 . S
C81 C80 1.405 . S
C81 C82 1.376 1_545 S
C82 H74 0.930 . S
C82 C78 1.390 1_565 S
C82 C81 1.376 1_565 S
N83 C76 1.275 1_545 S
N83 C79 1.413 . S
H84 C89 0.930 . S
H85 C92 0.930 . S
H86 C94 0.930 . S
H87 C88 1.016 . S
C88 H87 1.016 . S
C88 N95 1.286 . S
C89 H84 0.930 . S
C89 C90 1.397 . S
C89 C91 1.361 . S
C90 C89 1.397 . S
C90 C94 1.390 . S
C91 C89 1.361 . S
C91 C92 1.393 . S
C91 N95 1.413 . S
C92 H85 0.930 . S
C92 C91 1.393 . S
C92 C93 1.399 . S
C93 C92 1.399 . S
C93 C94 1.381 . S
C94 H86 0.930 . S
C94 C90 1.390 . S
C94 C93 1.381 . S
N95 C88 1.286 . S
N95 C91 1.413 . S
C96 O112 1.251 . S
C96 O114 1.254 . S
N97 C98 1.333 1_655 S
N97 C102 1.307 . S
N97 Zn103 2.020 1_655 S
C98 N97 1.333 1_455 S
C98 C99 1.380 . S
C98 H116 0.952 . S
C99 C98 1.380 . S
C99 C100 1.388 1_455 S
C99 H126 0.950 . S
C100 C99 1.388 1_655 S
C100 C101 1.357 . S
C101 C100 1.357 . S
C101 C102 1.370 . S
C101 H127 0.950 . S
C102 N97 1.307 . S
C102 C101 1.370 . S
C102 H120 0.948 . S
Zn103 N97 2.020 1_455 S
Zn103 O112 2.039 . S
Zn103 O118 2.034 . S
Zn103 O122 2.025 1_565 S
Zn103 O124 2.024 1_455 S
C104 O123 1.246 . S
C104 O124 1.249 1_545 S
N105 C106 1.307 . S
N105 C107 1.333 . S
N105 Zn111 2.020 . S
C106 N105 1.307 . S
C106 C110 1.370 1_556 S
C106 H117 0.948 . S
C107 N105 1.333 . S
C107 C108 1.379 . S
C107 H115 0.952 . S
C108 C107 1.379 . S
C108 C109 1.390 1_556 S
C108 H128 0.949 . S
C109 C108 1.390 1_554 S
C109 C110 1.357 . S
C110 C106 1.370 1_554 S
C110 C109 1.357 . S
C110 H129 0.950 . S
Zn111 N105 2.020 . S
Zn111 O114 2.025 1_545 S
Zn111 O119 2.024 . S
Zn111 O121 2.039 . S
Zn111 O123 2.034 1_455 S
O112 C96 1.251 . S
O112 Zn103 2.039 . S
C113 O118 1.246 . S
C113 O119 1.249 1_565 S
O114 C96 1.254 . S
O114 Zn111 2.025 1_565 S
H115 C107 0.952 . S
H116 C98 0.952 . S
H117 C106 0.948 . S
O118 Zn103 2.034 . S
O118 C113 1.246 . S
O119 Zn111 2.024 . S
O119 C113 1.249 1_545 S
H120 C102 0.948 . S
O121 Zn111 2.039 . S
O121 C125 1.251 . S
O122 Zn103 2.025 1_545 S
O122 C125 1.254 . S
O123 C104 1.246 . S
O123 Zn111 2.034 1_655 S
O124 Zn103 2.024 1_655 S
O124 C104 1.249 1_565 S
C125 O121 1.251 . S
C125 O122 1.254 . S
H126 C99 0.950 . S
H127 C101 0.950 . S
H128 C108 0.949 . S
H129 C110 0.950 . S
C130 O146 1.251 1_565 S
C130 O148 1.254 . S
N131 C132 1.333 . S
N131 C136 1.307 . S
N131 Zn137 2.020 . S
C132 N131 1.333 . S
C132 C133 1.379 . S
C132 H150 0.952 . S
C133 C132 1.379 . S
C133 C134 1.390 . S
C133 H160 0.949 . S
C134 C133 1.390 . S
C134 C135 1.357 . S
C135 C134 1.357 . S
C135 C136 1.370 . S
C135 H161 0.950 . S
C136 N131 1.307 . S
C136 C135 1.370 . S
C136 H154 0.948 . S
Zn137 N131 2.020 . S
Zn137 O146 2.039 . S
Zn137 O152 2.034 . S
Zn137 O156 2.025 . S
Zn137 O158 2.024 . S
C138 O157 1.246 1_545 S
C138 O158 1.249 . S
N139 C140 1.307 . S
N139 C141 1.333 . S
N139 Zn145 2.020 . S
C140 N139 1.307 . S
C140 C144 1.370 . S
C140 H151 0.948 . S
C141 N139 1.333 . S
C141 C142 1.379 . S
C141 H149 0.952 . S
C142 C141 1.379 . S
C142 C143 1.390 . S
C142 H162 0.949 . S
C143 C142 1.390 . S
C143 C144 1.357 . S
C144 C140 1.370 . S
C144 C143 1.357 . S
C144 H163 0.950 . S
Zn145 N139 2.020 . S
Zn145 O148 2.025 . S
Zn145 O153 2.024 . S
Zn145 O155 2.039 . S
Zn145 O157 2.034 . S
O146 C130 1.251 1_545 S
O146 Zn137 2.039 . S
C147 O152 1.246 1_565 S
C147 O153 1.249 . S
O148 C130 1.254 . S
O148 Zn145 2.025 . S
H149 C141 0.952 . S
H150 C132 0.952 . S
H151 C140 0.948 . S
O152 Zn137 2.034 . S
O152 C147 1.246 1_545 S
O153 Zn145 2.024 . S
O153 C147 1.249 . S
H154 C136 0.948 . S
O155 Zn145 2.039 . S
O155 C159 1.251 1_565 S
O156 Zn137 2.025 . S
O156 C159 1.254 . S
O157 C138 1.246 1_565 S
O157 Zn145 2.034 . S
O158 Zn137 2.024 . S
O158 C138 1.249 . S
C159 O155 1.251 1_545 S
C159 O156 1.254 . S
H160 C133 0.949 . S
H161 C135 0.950 . S
H162 C142 0.949 . S
H163 C144 0.950 . S
C164 O180 1.251 . S
C164 O182 1.254 . S
N165 C166 1.333 . S
N165 C170 1.307 . S
N165 Zn171 2.020 . S
C166 N165 1.333 . S
C166 C167 1.379 . S
C166 H184 0.952 . S
C167 C166 1.379 . S
C167 C168 1.390 . S
C167 H194 0.949 . S
C168 C167 1.390 . S
C168 C169 1.357 . S
C169 C168 1.357 . S
C169 C170 1.370 . S
C169 H195 0.950 . S
C170 N165 1.307 . S
C170 C169 1.370 . S
C170 H188 0.948 . S
Zn171 N165 2.020 . S
Zn171 O180 2.039 . S
Zn171 O186 2.034 . S
Zn171 O190 2.025 . S
Zn171 O192 2.024 . S
C172 O191 1.246 . S
C172 O192 1.249 . S
N173 C174 1.307 . S
N173 C175 1.333 . S
N173 Zn179 2.020 . S
C174 N173 1.307 . S
C174 C178 1.370 . S
C174 H185 0.948 . S
C175 N173 1.333 . S
C175 C176 1.379 . S
C175 H183 0.952 . S
C176 C175 1.379 . S
C176 C177 1.390 . S
C176 H196 0.949 . S
C177 C176 1.390 . S
C177 C178 1.357 . S
C178 C174 1.370 . S
C178 C177 1.357 . S
C178 H197 0.950 . S
Zn179 N173 2.020 . S
Zn179 O182 2.025 . S
Zn179 O187 2.024 . S
Zn179 O189 2.039 . S
Zn179 O191 2.034 . S
O180 C164 1.251 . S
O180 Zn171 2.039 . S
C181 O186 1.246 . S
C181 O187 1.249 . S
O182 C164 1.254 . S
O182 Zn179 2.025 . S
H183 C175 0.952 . S
H184 C166 0.952 . S
H185 C174 0.948 . S
O186 Zn171 2.034 . S
O186 C181 1.246 . S
O187 Zn179 2.024 . S
O187 C181 1.249 . S
H188 C170 0.948 . S
O189 Zn179 2.039 . S
O189 C193 1.251 . S
O190 Zn171 2.025 . S
O190 C193 1.254 . S
O191 C172 1.246 . S
O191 Zn179 2.034 . S
O192 Zn171 2.024 . S
O192 C172 1.249 . S
C193 O189 1.251 . S
C193 O190 1.254 . S
H194 C167 0.949 . S
H195 C169 0.950 . S
H196 C176 0.949 . S
H197 C178 0.950 . S
C198 O214 1.251 . S
C198 O216 1.254 . S
N199 C200 1.333 . S
N199 C204 1.307 . S
N199 Zn205 2.020 . S
C200 N199 1.333 . S
C200 C201 1.379 . S
C200 H218 0.952 . S
C201 C200 1.379 . S
C201 C202 1.390 . S
C201 H228 0.949 . S
C202 C201 1.390 . S
C202 C203 1.357 . S
C203 C202 1.357 . S
C203 C204 1.370 . S
C203 H229 0.950 . S
C204 N199 1.307 . S
C204 C203 1.370 . S
C204 H222 0.948 . S
Zn205 N199 2.020 . S
Zn205 O214 2.039 . S
Zn205 O220 2.034 1_455 S
Zn205 O224 2.025 1_455 S
Zn205 O226 2.024 . S
C206 O225 1.246 . S
C206 O226 1.249 . S
N207 C208 1.307 . S
N207 C209 1.333 1_455 S
N207 Zn213 2.020 . S
C208 N207 1.307 . S
C208 C212 1.370 . S
C208 H219 0.948 . S
C209 N207 1.333 1_655 S
C209 C210 1.379 . S
C209 H217 0.952 . S
C210 C209 1.379 . S
C210 C211 1.390 1_655 S
C210 H230 0.949 . S
C211 C210 1.390 1_455 S
C211 C212 1.357 . S
C212 C208 1.370 . S
C212 C211 1.357 . S
C212 H231 0.950 . S
Zn213 N207 2.020 . S
Zn213 O216 2.025 . S
Zn213 O221 2.024 1_455 S
Zn213 O223 2.039 1_455 S
Zn213 O225 2.034 . S
O214 C198 1.251 . S
O214 Zn205 2.039 . S
C215 O220 1.246 . S
C215 O221 1.249 . S
O216 C198 1.254 . S
O216 Zn213 2.025 . S
H217 C209 0.952 . S
H218 C200 0.952 . S
H219 C208 0.948 . S
O220 Zn205 2.034 1_655 S
O220 C215 1.246 . S
O221 Zn213 2.024 1_655 S
O221 C215 1.249 . S
H222 C204 0.948 . S
O223 Zn213 2.039 1_655 S
O223 C227 1.251 . S
O224 Zn205 2.025 1_655 S
O224 C227 1.254 . S
O225 C206 1.246 . S
O225 Zn213 2.034 . S
O226 Zn205 2.024 . S
O226 C206 1.249 . S
C227 O223 1.251 . S
C227 O224 1.254 . S
H228 C201 0.949 . S
H229 C203 0.950 . S
H230 C210 0.949 . S
H231 C212 0.950 . S
H232 C244 0.930 . S
H233 C246 0.930 . S
H234 C247 0.930 . S
H235 C251 0.959 . S
H236 C251 0.959 . S
H237 C251 0.961 . S
H238 C252 0.960 . S
H239 C252 0.961 . S
H240 C252 0.959 . S
H241 C255 0.929 . S
H242 C256 0.931 . S
H243 C258 0.930 . S
C244 H232 0.930 . S
C244 C245 1.399 1_545 S
C244 C249 1.399 . S
C245 C244 1.399 1_565 S
C245 C246 1.376 . S
C246 H233 0.930 . S
C246 C245 1.376 . S
C246 C247 1.388 . S
C247 H234 0.930 . S
C247 C246 1.388 . S
C247 C248 1.390 . S
C248 C247 1.390 . S
C248 C249 1.394 1_565 S
C248 C254 1.465 . S
C249 C244 1.399 . S
C249 C248 1.394 1_545 S
C249 C250 1.516 . S
C250 C249 1.516 . S
C250 C251 1.502 . S
C250 C252 1.561 . S
C250 C253 1.526 . S
C251 H235 0.959 . S
C251 H236 0.959 . S
C251 H237 0.961 . S
C251 C250 1.502 . S
C252 H238 0.960 . S
C252 H239 0.961 . S
C252 H240 0.959 . S
C252 C250 1.561 . S
C253 C250 1.526 . S
C253 C254 1.396 1_545 S
C253 C258 1.390 . S
C254 C248 1.465 . S
C254 C253 1.396 1_565 S
C254 C255 1.399 . S
C255 H241 0.929 . S
C255 C254 1.399 . S
C255 C256 1.385 . S
C256 H242 0.931 . S
C256 C255 1.385 . S
C256 C257 1.389 . S
C257 C256 1.389 . S
C257 C258 1.387 1_565 S
C258 H243 0.930 . S
C258 C253 1.390 . S
C258 C257 1.387 1_545 S
H259 C271 0.930 . S
H260 C273 0.930 . S
H261 C274 0.930 . S
H262 C278 0.959 . S
H263 C278 0.959 . S
H264 C278 0.961 . S
H265 C279 0.960 . S
H266 C279 0.961 . S
H267 C279 0.959 . S
H268 C282 0.929 . S
H269 C283 0.931 . S
H270 C285 0.930 . S
C271 H259 0.930 . S
C271 C272 1.399 . S
C271 C276 1.399 . S
C272 C271 1.399 . S
C272 C273 1.376 . S
C273 H260 0.930 . S
C273 C272 1.376 . S
C273 C274 1.388 . S
C274 H261 0.930 . S
C274 C273 1.388 . S
C274 C275 1.390 . S
C275 C274 1.390 . S
C275 C276 1.394 . S
C275 C281 1.465 . S
C276 C271 1.399 . S
C276 C275 1.394 . S
C276 C277 1.516 . S
C277 C276 1.516 . S
C277 C278 1.502 . S
C277 C279 1.561 . S
C277 C280 1.526 . S
C278 H262 0.959 . S
C278 H263 0.959 . S
C278 H264 0.961 . S
C278 C277 1.502 . S
C279 H265 0.960 . S
C279 H266 0.961 . S
C279 H267 0.959 . S
C279 C277 1.561 . S
C280 C277 1.526 . S
C280 C281 1.396 . S
C280 C285 1.390 . S
C281 C275 1.465 . S
C281 C280 1.396 . S
C281 C282 1.399 . S
C282 H268 0.929 . S
C282 C281 1.399 . S
C282 C283 1.385 . S
C283 H269 0.931 . S
C283 C282 1.385 . S
C283 C284 1.389 . S
C284 C283 1.389 . S
C284 C285 1.387 . S
C285 H270 0.930 . S
C285 C280 1.390 . S
C285 C284 1.387 . S
H286 C298 0.930 . S
H287 C300 0.930 . S
H288 C301 0.930 . S
H289 C305 0.959 . S
H290 C305 0.959 . S
H291 C305 0.961 . S
H292 C306 0.960 . S
H293 C306 0.961 . S
H294 C306 0.959 . S
H295 C309 0.929 . S
H296 C310 0.931 . S
H297 C312 0.930 . S
C298 H286 0.930 . S
C298 C299 1.399 . S
C298 C303 1.399 . S
C299 C298 1.399 . S
C299 C300 1.376 . S
C300 H287 0.930 . S
C300 C299 1.376 . S
C300 C301 1.388 . S
C301 H288 0.930 . S
C301 C300 1.388 . S
C301 C302 1.390 . S
C302 C301 1.390 . S
C302 C303 1.394 . S
C302 C308 1.465 . S
C303 C298 1.399 . S
C303 C302 1.394 . S
C303 C304 1.516 . S
C304 C303 1.516 . S
C304 C305 1.502 . S
C304 C306 1.561 . S
C304 C307 1.526 . S
C305 H289 0.959 . S
C305 H290 0.959 . S
C305 H291 0.961 . S
C305 C304 1.502 . S
C306 H292 0.960 . S
C306 H293 0.961 . S
C306 H294 0.959 . S
C306 C304 1.561 . S
C307 C304 1.526 . S
C307 C308 1.396 . S
C307 C312 1.390 . S
C308 C302 1.465 . S
C308 C307 1.396 . S
C308 C309 1.399 . S
C309 H295 0.929 . S
C309 C308 1.399 . S
C309 C310 1.385 . S
C310 H296 0.931 . S
C310 C309 1.385 . S
C310 C311 1.389 . S
C311 C310 1.389 . S
C311 C312 1.387 . S
C312 H297 0.930 . S
C312 C307 1.390 . S
C312 C311 1.387 . S
H313 C325 0.930 . S
H314 C327 0.930 . S
H315 C328 0.930 . S
H316 C332 0.959 1_655 S
H317 C332 0.959 . S
H318 C332 0.961 . S
H319 C333 0.960 . S
H320 C333 0.961 . S
H321 C333 0.959 . S
H322 C336 0.929 . S
H323 C337 0.931 . S
H324 C339 0.930 . S
C325 H313 0.930 . S
C325 C326 1.399 . S
C325 C330 1.399 . S
C326 C325 1.399 . S
C326 C327 1.376 . S
C327 H314 0.930 . S
C327 C326 1.376 . S
C327 C328 1.388 . S
C328 H315 0.930 . S
C328 C327 1.388 . S
C328 C329 1.390 . S
C329 C328 1.390 . S
C329 C330 1.394 . S
C329 C335 1.465 . S
C330 C325 1.399 . S
C330 C329 1.394 . S
C330 C331 1.516 . S
C331 C330 1.516 . S
C331 C332 1.502 . S
C331 C333 1.561 . S
C331 C334 1.526 . S
C332 H316 0.959 1_455 S
C332 H317 0.959 . S
C332 H318 0.961 . S
C332 C331 1.502 . S
C333 H319 0.960 . S
C333 H320 0.961 . S
C333 H321 0.959 . S
C333 C331 1.561 . S
C334 C331 1.526 . S
C334 C335 1.396 . S
C334 C339 1.390 . S
C335 C329 1.465 . S
C335 C334 1.396 . S
C335 C336 1.399 . S
C336 H322 0.929 . S
C336 C335 1.399 . S
C336 C337 1.385 . S
C337 H323 0.931 . S
C337 C336 1.385 . S
C337 C338 1.389 . S
C338 C337 1.389 . S
C338 C339 1.387 . S
C339 H324 0.930 . S
C339 C334 1.390 . S
C339 C338 1.387 . S
H340 C352 0.930 1_554 S
H341 C354 0.930 . S
H342 C355 0.930 . S
H343 C359 0.959 1_554 S
H344 C359 0.959 . S
H345 C359 0.961 1_554 S
H346 C360 0.960 . S
H347 C360 0.961 . S
H348 C360 0.959 . S
H349 C363 0.929 . S
H350 C364 0.931 . S
H351 C366 0.930 . S
C352 H340 0.930 1_556 S
C352 C353 1.399 1_565 S
C352 C357 1.399 . S
C353 C352 1.399 1_545 S
C353 C354 1.376 . S
C354 H341 0.930 . S
C354 C353 1.376 . S
C354 C355 1.388 . S
C355 H342 0.930 . S
C355 C354 1.388 . S
C355 C356 1.390 . S
C356 C355 1.390 . S
C356 C357 1.394 1_545 S
C356 C362 1.465 . S
C357 C352 1.399 . S
C357 C356 1.394 1_565 S
C357 C358 1.516 . S
C358 C357 1.516 . S
C358 C359 1.502 . S
C358 C360 1.561 . S
C358 C361 1.526 . S
C359 H343 0.959 1_556 S
C359 H344 0.959 . S
C359 H345 0.961 1_556 S
C359 C358 1.502 . S
C360 H346 0.960 . S
C360 H347 0.961 . S
C360 H348 0.959 . S
C360 C358 1.561 . S
C361 C358 1.526 . S
C361 C362 1.396 1_565 S
C361 C366 1.390 . S
C362 C356 1.465 . S
C362 C361 1.396 1_545 S
C362 C363 1.399 . S
C363 H349 0.929 . S
C363 C362 1.399 . S
C363 C364 1.385 . S
C364 H350 0.931 . S
C364 C363 1.385 . S
C364 C365 1.389 . S
C365 C364 1.389 . S
C365 C366 1.387 1_545 S
C366 H351 0.930 . S
C366 C361 1.390 . S
C366 C365 1.387 1_565 S
H367 C379 0.930 . S
H368 C381 0.930 . S
H369 C382 0.930 . S
H370 C386 0.959 . S
H371 C386 0.959 . S
H372 C386 0.961 . S
H373 C387 0.960 . S
H374 C387 0.961 . S
H375 C387 0.959 . S
H376 C390 0.929 1_554 S
H377 C391 0.931 . S
H378 C393 0.930 . S
C379 H367 0.930 . S
C379 C380 1.399 1_556 S
C379 C384 1.399 . S
C380 C379 1.399 1_554 S
C380 C381 1.376 . S
C381 H368 0.930 . S
C381 C380 1.376 . S
C381 C382 1.388 . S
C382 H369 0.930 . S
C382 C381 1.388 . S
C382 C383 1.390 1_554 S
C383 C382 1.390 1_556 S
C383 C384 1.394 . S
C383 C389 1.465 . S
C384 C379 1.399 . S
C384 C383 1.394 . S
C384 C385 1.516 . S
C385 C384 1.516 . S
C385 C386 1.502 . S
C385 C387 1.561 . S
C385 C388 1.526 . S
C386 H370 0.959 . S
C386 H371 0.959 . S
C386 H372 0.961 . S
C386 C385 1.502 . S
C387 H373 0.960 . S
C387 H374 0.961 . S
C387 H375 0.959 . S
C387 C385 1.561 . S
C388 C385 1.526 . S
C388 C389 1.396 . S
C388 C393 1.390 . S
C389 C383 1.465 . S
C389 C388 1.396 . S
C389 C390 1.399 . S
C390 H376 0.929 1_556 S
C390 C389 1.399 . S
C390 C391 1.385 . S
C391 H377 0.931 . S
C391 C390 1.385 . S
C391 C392 1.389 . S
C392 C391 1.389 . S
C392 C393 1.387 . S
C393 H378 0.930 . S
C393 C388 1.390 . S
C393 C392 1.387 . S
H394 C406 0.930 . S
H395 C408 0.930 . S
H396 C409 0.930 . S
H397 C413 0.959 . S
H398 C413 0.959 . S
H399 C413 0.961 . S
H400 C414 0.960 . S
H401 C414 0.961 . S
H402 C414 0.959 . S
H403 C417 0.929 . S
H404 C418 0.931 . S
H405 C420 0.930 . S
C406 H394 0.930 . S
C406 C407 1.399 . S
C406 C411 1.399 . S
C407 C406 1.399 . S
C407 C408 1.376 . S
C408 H395 0.930 . S
C408 C407 1.376 . S
C408 C409 1.388 1_554 S
C409 H396 0.930 . S
C409 C408 1.388 1_556 S
C409 C410 1.390 . S
C410 C409 1.390 . S
C410 C411 1.394 1_556 S
C410 C416 1.465 . S
C411 C406 1.399 . S
C411 C410 1.394 1_554 S
C411 C412 1.516 1_554 S
C412 C411 1.516 1_556 S
C412 C413 1.502 . S
C412 C414 1.561 1_556 S
C412 C415 1.526 . S
C413 H397 0.959 . S
C413 H398 0.959 . S
C413 H399 0.961 . S
C413 C412 1.502 . S
C414 H400 0.960 . S
C414 H401 0.961 . S
C414 H402 0.959 . S
C414 C412 1.561 1_554 S
C415 C412 1.526 . S
C415 C416 1.396 . S
C415 C420 1.390 . S
C416 C410 1.465 . S
C416 C415 1.396 . S
C416 C417 1.399 . S
C417 H403 0.929 . S
C417 C416 1.399 . S
C417 C418 1.385 . S
C418 H404 0.931 . S
C418 C417 1.385 . S
C418 C419 1.389 . S
C419 C418 1.389 . S
C419 C420 1.387 . S
C420 H405 0.930 . S
C420 C415 1.390 . S
C420 C419 1.387 . S
H421 C433 0.930 1_554 S
H422 C435 0.930 . S
H423 C436 0.930 . S
H424 C440 0.959 . S
H425 C440 0.959 . S
H426 C440 0.961 1_554 S
H427 C441 0.960 . S
H428 C441 0.961 . S
H429 C441 0.959 1_556 S
H430 C444 0.929 . S
H431 C445 0.931 . S
H432 C447 0.910 1_455 S
C433 H421 0.930 1_556 S
C433 C434 1.399 . S
C433 C438 1.399 . S
C434 C433 1.399 . S
C434 C435 1.376 . S
C435 H422 0.930 . S
C435 C434 1.376 . S
C435 C436 1.388 . S
C436 H423 0.930 . S
C436 C435 1.388 . S
C436 C437 1.390 . S
C437 C436 1.390 . S
C437 C438 1.394 . S
C437 C443 1.465 . S
C438 C433 1.399 . S
C438 C437 1.394 . S
C438 C439 1.516 . S
C439 C438 1.516 . S
C439 C440 1.502 1_655 S
C439 C441 1.561 1_556 S
C439 C442 1.526 . S
C440 H424 0.959 . S
C440 H425 0.959 . S
C440 H426 0.961 1_556 S
C440 C439 1.502 1_455 S
C441 H427 0.960 . S
C441 H428 0.961 . S
C441 H429 0.959 1_554 S
C441 C439 1.561 1_554 S
C442 C439 1.526 . S
C442 C443 1.396 . S
C442 C447 1.401 . S
C443 C437 1.465 . S
C443 C442 1.396 . S
C443 C444 1.399 . S
C444 H430 0.929 . S
C444 C443 1.399 . S
C444 C445 1.385 . S
C445 H431 0.931 . S
C445 C444 1.385 . S
C445 C446 1.389 . S
C446 C445 1.389 . S
C446 C447 1.397 . S
C447 H432 0.910 1_655 S
C447 C442 1.401 . S
C447 C446 1.397 . S
H448 C460 0.930 . S
H449 C462 0.930 . S
H450 C463 0.930 . S
H451 C467 0.959 . S
H452 C467 0.959 . S
H453 C467 0.961 . S
H454 C468 0.960 . S
H455 C468 0.961 . S
H456 C468 0.959 . S
H457 C471 0.947 . S
H458 C472 0.931 . S
H459 C474 0.930 . S
C460 H448 0.930 . S
C460 C461 1.399 . S
C460 C465 1.399 . S
C461 C460 1.399 . S
C461 C462 1.376 . S
C462 H449 0.930 . S
C462 C461 1.376 . S
C462 C463 1.388 . S
C463 H450 0.930 . S
C463 C462 1.388 . S
C463 C464 1.390 . S
C464 C463 1.390 . S
C464 C465 1.394 . S
C464 C470 1.465 . S
C465 C460 1.399 . S
C465 C464 1.394 . S
C465 C466 1.516 . S
C466 C465 1.516 . S
C466 C467 1.502 . S
C466 C468 1.561 . S
C466 C469 1.526 . S
C467 H451 0.959 . S
C467 H452 0.959 . S
C467 H453 0.961 . S
C467 C466 1.502 . S
C468 H454 0.960 . S
C468 H455 0.961 . S
C468 H456 0.959 . S
C468 C466 1.561 . S
C469 C466 1.526 . S
C469 C470 1.396 . S
C469 C474 1.390 . S
C470 C464 1.465 . S
C470 C469 1.396 . S
C470 C471 1.378 1_455 S
C471 H457 0.947 . S
C471 C470 1.378 1_655 S
C471 C472 1.388 . S
C472 H458 0.931 . S
C472 C471 1.388 . S
C472 C473 1.389 1_655 S
C473 C472 1.389 1_455 S
C473 C474 1.387 . S
C474 H459 0.930 . S
C474 C469 1.390 . S
C474 C473 1.387 . S
H475 C487 0.930 . S
H476 C489 0.930 . S
H477 C490 0.930 . S
H478 C494 0.959 . S
H479 C494 0.959 . S
H480 C494 0.961 . S
H481 C495 0.960 . S
H482 C495 0.961 . S
H483 C495 0.959 . S
H484 C498 0.929 . S
H485 C499 0.931 . S
H486 C501 0.930 . S
C487 H475 0.930 . S
C487 C488 1.387 1_565 S
C487 C492 1.399 . S
C488 C487 1.387 1_545 S
C488 C489 1.391 . S
C489 H476 0.930 . S
C489 C488 1.391 . S
C489 C490 1.388 . S
C490 H477 0.930 . S
C490 C489 1.388 . S
C490 C491 1.390 . S
C491 C490 1.390 . S
C491 C492 1.394 1_545 S
C491 C497 1.465 . S
C492 C487 1.399 . S
C492 C491 1.394 1_565 S
C492 C493 1.516 . S
C493 C492 1.516 . S
C493 C494 1.502 . S
C493 C495 1.561 . S
C493 C496 1.526 . S
C494 H478 0.959 . S
C494 H479 0.959 . S
C494 H480 0.961 . S
C494 C493 1.502 . S
C495 H481 0.960 . S
C495 H482 0.961 . S
C495 H483 0.959 . S
C495 C493 1.561 . S
C496 C493 1.526 . S
C496 C497 1.396 1_565 S
C496 C501 1.390 . S
C497 C491 1.465 . S
C497 C496 1.396 1_545 S
C497 C498 1.399 . S
C498 H484 0.929 . S
C498 C497 1.399 . S
C498 C499 1.385 . S
C499 H485 0.931 . S
C499 C498 1.385 . S
C499 C500 1.389 1_545 S
C500 C499 1.389 1_565 S
C500 C501 1.387 . S
C501 H486 0.930 . S
C501 C496 1.390 . S
C501 C500 1.387 . S
H502 C514 0.930 . S
H503 C516 0.930 . S
H504 C517 0.930 . S
H505 C521 0.959 . S
H506 C521 0.959 . S
H507 C521 0.961 . S
H508 C522 0.960 . S
H509 C522 0.961 . S
H510 C522 0.959 . S
H511 C525 0.929 . S
H512 C526 0.931 . S
H513 C528 0.930 . S
C514 H502 0.930 . S
C514 C515 1.399 . S
C514 C519 1.399 . S
C515 C514 1.399 . S
C515 C516 1.376 . S
C516 H503 0.930 . S
C516 C515 1.376 . S
C516 C517 1.388 . S
C517 H504 0.930 . S
C517 C516 1.388 . S
C517 C518 1.390 . S
C518 C517 1.390 . S
C518 C519 1.394 . S
C518 C524 1.465 . S
C519 C514 1.399 . S
C519 C518 1.394 . S
C519 C520 1.516 . S
C520 C519 1.516 . S
C520 C521 1.502 . S
C520 C522 1.561 . S
C520 C523 1.526 . S
C521 H505 0.959 . S
C521 H506 0.959 . S
C521 H507 0.961 . S
C521 C520 1.502 . S
C522 H508 0.960 . S
C522 H509 0.961 . S
C522 H510 0.959 . S
C522 C520 1.561 . S
C523 C520 1.526 . S
C523 C524 1.396 . S
C523 C528 1.390 . S
C524 C518 1.465 . S
C524 C523 1.396 . S
C524 C525 1.399 . S
C525 H511 0.929 . S
C525 C524 1.399 . S
C525 C526 1.385 . S
C526 H512 0.931 . S
C526 C525 1.385 . S
C526 C527 1.389 . S
C527 C526 1.389 . S
C527 C528 1.387 . S
C528 H513 0.930 . S
C528 C523 1.390 . S
C528 C527 1.387 . S
H529 C541 0.930 . S
H530 C543 0.930 . S
H531 C544 0.930 . S
H532 C548 0.959 . S
H533 C548 0.959 . S
H534 C548 0.961 . S
H535 C549 0.960 . S
H536 C549 0.961 . S
H537 C549 0.959 . S
H538 C552 0.929 . S
H539 C553 0.931 . S
H540 C555 0.930 . S
C541 H529 0.930 . S
C541 C542 1.399 . S
C541 C546 1.399 . S
C542 C541 1.399 . S
C542 C543 1.376 . S
C543 H530 0.930 . S
C543 C542 1.376 . S
C543 C544 1.388 . S
C544 H531 0.930 . S
C544 C543 1.388 . S
C544 C545 1.390 . S
C545 C544 1.390 . S
C545 C546 1.394 . S
C545 C551 1.465 . S
C546 C541 1.399 . S
C546 C545 1.394 . S
C546 C547 1.516 . S
C547 C546 1.516 . S
C547 C548 1.502 . S
C547 C549 1.561 . S
C547 C550 1.526 . S
C548 H532 0.959 . S
C548 H533 0.959 . S
C548 H534 0.961 . S
C548 C547 1.502 . S
C549 H535 0.960 . S
C549 H536 0.961 . S
C549 H537 0.959 . S
C549 C547 1.561 . S
C550 C547 1.526 . S
C550 C551 1.396 . S
C550 C555 1.390 . S
C551 C545 1.465 . S
C551 C550 1.396 . S
C551 C552 1.399 . S
C552 H538 0.929 . S
C552 C551 1.399 . S
C552 C553 1.385 . S
C553 H539 0.931 . S
C553 C552 1.385 . S
C553 C554 1.389 . S
C554 C553 1.389 . S
C554 C555 1.387 . S
C555 H540 0.930 . S
C555 C550 1.390 . S
C555 C554 1.387 . S
H556 C568 0.930 1_554 S
H557 C570 0.930 . S
H558 C571 0.930 . S
H559 C575 0.959 . S
H560 C575 0.959 . S
H561 C575 0.961 . S
H562 C576 0.960 1_554 S
H563 C576 0.961 1_554 S
H564 C576 0.959 . S
H565 C579 0.929 . S
H566 C580 0.931 . S
H567 C582 0.930 . S
C568 H556 0.930 1_556 S
C568 C569 1.399 . S
C568 C573 1.399 . S
C569 C568 1.399 . S
C569 C570 1.376 . S
C570 H557 0.930 . S
C570 C569 1.376 . S
C570 C571 1.388 . S
C571 H558 0.930 . S
C571 C570 1.388 . S
C571 C572 1.390 . S
C572 C571 1.390 . S
C572 C573 1.394 . S
C572 C578 1.465 . S
C573 C568 1.399 . S
C573 C572 1.394 . S
C573 C574 1.516 . S
C574 C573 1.516 . S
C574 C575 1.502 1_556 S
C574 C576 1.561 1_655 S
C574 C577 1.526 . S
C575 H559 0.959 . S
C575 H560 0.959 . S
C575 H561 0.961 . S
C575 C574 1.502 1_554 S
C576 H562 0.960 1_556 S
C576 H563 0.961 1_556 S
C576 H564 0.959 . S
C576 C574 1.561 1_455 S
C577 C574 1.526 . S
C577 C578 1.400 . S
C577 C582 1.386 1_655 S
C578 C572 1.465 . S
C578 C577 1.400 . S
C578 C579 1.399 . S
C579 H565 0.929 . S
C579 C578 1.399 . S
C579 C580 1.385 1_655 S
C580 H566 0.931 . S
C580 C579 1.385 1_455 S
C580 C581 1.389 . S
C581 C580 1.389 . S
C581 C582 1.387 . S
C582 H567 0.930 . S
C582 C577 1.386 1_455 S
C582 C581 1.387 . S
H583 C595 0.930 . S
H584 C597 0.930 . S
H585 C598 0.930 . S
H586 C602 0.959 . S
H587 C602 0.959 1_545 S
H588 C602 0.961 1_545 S
H589 C603 0.960 . S
H590 C603 0.961 . S
H591 C603 0.959 1_556 S
H592 C606 0.929 . S
H593 C607 0.939 . S
H594 C609 0.930 . S
C595 H583 0.930 . S
C595 C596 1.408 1_554 S
C595 C600 1.399 1_554 S
C596 C595 1.408 1_556 S
C596 C597 1.368 1_545 S
C597 H584 0.930 . S
C597 C596 1.368 1_565 S
C597 C598 1.388 . S
C598 H585 0.930 . S
C598 C597 1.388 . S
C598 C599 1.390 1_565 S
C599 C598 1.390 1_545 S
C599 C600 1.394 . S
C599 C605 1.465 . S
C600 C595 1.399 1_556 S
C600 C599 1.394 . S
C600 C601 1.516 . S
C601 C600 1.516 . S
C601 C602 1.502 1_546 S
C601 C603 1.561 1_556 S
C601 C604 1.526 . S
C602 H586 0.959 . S
C602 H587 0.959 1_565 S
C602 H588 0.961 1_565 S
C602 C601 1.502 1_564 S
C603 H589 0.960 . S
C603 H590 0.961 . S
C603 H591 0.959 1_554 S
C603 C601 1.561 1_554 S
C604 C601 1.526 . S
C604 C605 1.396 . S
C604 C609 1.390 . S
C605 C599 1.465 . S
C605 C604 1.396 . S
C605 C606 1.399 1_545 S
C606 H592 0.929 . S
C606 C605 1.399 1_565 S
C606 C607 1.386 . S
C607 H593 0.939 . S
C607 C606 1.386 . S
C607 C608 1.381 1_565 S
C608 C607 1.381 1_545 S
C608 C609 1.387 . S
C609 H594 0.930 . S
C609 C604 1.390 . S
C609 C608 1.387 . S
H610 C622 0.930 . S
H611 C624 0.930 . S
H612 C625 0.930 . S
H613 C629 0.959 . S
H614 C629 0.959 . S
H615 C629 0.961 . S
H616 C630 0.960 . S
H617 C630 0.961 . S
H618 C630 0.959 . S
H619 C633 0.929 . S
H620 C634 0.931 . S
H621 C636 0.930 . S
C622 H610 0.930 . S
C622 C623 1.399 1_556 S
C622 C627 1.399 . S
C623 C622 1.399 1_554 S
C623 C624 1.376 . S
C624 H611 0.930 . S
C624 C623 1.376 . S
C624 C625 1.388 . S
C625 H612 0.930 . S
C625 C624 1.388 . S
C625 C626 1.390 1_554 S
C626 C625 1.390 1_556 S
C626 C627 1.394 . S
C626 C632 1.465 . S
C627 C622 1.399 . S
C627 C626 1.394 . S
C627 C628 1.516 . S
C628 C627 1.516 . S
C628 C629 1.502 . S
C628 C630 1.561 . S
C628 C631 1.526 . S
C629 H613 0.959 . S
C629 H614 0.959 . S
C629 H615 0.961 . S
C629 C628 1.502 . S
C630 H616 0.960 . S
C630 H617 0.961 . S
C630 H618 0.959 . S
C630 C628 1.561 . S
C631 C628 1.526 . S
C631 C632 1.396 . S
C631 C636 1.390 . S
C632 C626 1.465 . S
C632 C631 1.396 . S
C632 C633 1.399 . S
C633 H619 0.929 . S
C633 C632 1.399 . S
C633 C634 1.385 . S
C634 H620 0.931 . S
C634 C633 1.385 . S
C634 C635 1.389 . S
C635 C634 1.389 . S
C635 C636 1.387 . S
C636 H621 0.930 . S
C636 C631 1.390 . S
C636 C635 1.387 . S
H637 C649 0.933 . S
H638 C651 0.930 . S
H639 C652 0.930 . S
H640 C656 0.959 . S
H641 C656 0.959 . S
H642 C656 0.961 . S
H643 C657 0.960 . S
H644 C657 0.961 . S
H645 C657 0.959 . S
H646 C660 0.929 . S
H647 C661 0.931 . S
H648 C663 0.930 . S
C649 H637 0.933 . S
C649 C650 1.399 . S
C649 C654 1.399 1_554 S
C650 C649 1.399 . S
C650 C651 1.376 . S
C651 H638 0.930 . S
C651 C650 1.376 . S
C651 C652 1.388 . S
C652 H639 0.930 . S
C652 C651 1.388 . S
C652 C653 1.390 . S
C653 C652 1.390 . S
C653 C654 1.394 1_554 S
C653 C659 1.465 1_554 S
C654 C649 1.399 1_556 S
C654 C653 1.394 1_556 S
C654 C655 1.516 . S
C655 C654 1.516 . S
C655 C656 1.502 . S
C655 C657 1.561 . S
C655 C658 1.526 . S
C656 H640 0.959 . S
C656 H641 0.959 . S
C656 H642 0.961 . S
C656 C655 1.502 . S
C657 H643 0.960 . S
C657 H644 0.961 . S
C657 H645 0.959 . S
C657 C655 1.561 . S
C658 C655 1.526 . S
C658 C659 1.396 . S
C658 C663 1.390 . S
C659 C653 1.465 1_556 S
C659 C658 1.396 . S
C659 C660 1.399 . S
C660 H646 0.929 . S
C660 C659 1.399 . S
C660 C661 1.385 . S
C661 H647 0.931 . S
C661 C660 1.385 . S
C661 C662 1.389 . S
C662 C661 1.389 . S
C662 C663 1.387 . S
C663 H648 0.930 . S
C663 C658 1.390 . S
C663 C662 1.387 . S
H664 C676 0.930 . S
H665 C678 0.930 . S
H666 C679 0.930 . S
H667 C683 0.959 . S
H668 C683 0.959 . S
H669 C683 0.961 . S
H670 C684 0.960 . S
H671 C684 0.961 . S
H672 C684 0.959 . S
H673 C687 0.929 . S
H674 C688 0.931 . S
H675 C690 0.930 . S
C676 H664 0.930 . S
C676 C677 1.399 . S
C676 C681 1.399 . S
C677 C676 1.399 . S
C677 C678 1.376 . S
C678 H665 0.930 . S
C678 C677 1.376 . S
C678 C679 1.388 . S
C679 H666 0.930 . S
C679 C678 1.388 . S
C679 C680 1.390 . S
C680 C679 1.390 . S
C680 C681 1.394 . S
C680 C686 1.465 . S
C681 C676 1.399 . S
C681 C680 1.394 . S
C681 C682 1.516 . S
C682 C681 1.516 . S
C682 C683 1.502 1_455 S
C682 C684 1.561 . S
C682 C685 1.526 . S
C683 H667 0.959 . S
C683 H668 0.959 . S
C683 H669 0.961 . S
C683 C682 1.502 1_655 S
C684 H670 0.960 . S
C684 H671 0.961 . S
C684 H672 0.959 . S
C684 C682 1.561 . S
C685 C682 1.526 . S
C685 C686 1.396 . S
C685 C690 1.390 . S
C686 C680 1.465 . S
C686 C685 1.396 . S
C686 C687 1.399 . S
C687 H673 0.929 . S
C687 C686 1.399 . S
C687 C688 1.385 . S
C688 H674 0.931 . S
C688 C687 1.385 . S
C688 C689 1.389 . S
C689 C688 1.389 . S
C689 C690 1.387 . S
C690 H675 0.930 . S
C690 C685 1.390 . S
C690 C689 1.387 . S
H691 C703 0.930 . S
H692 C705 0.930 . S
H693 C706 0.930 . S
H694 C710 0.959 . S
H695 C710 0.959 . S
H696 C710 0.961 . S
H697 C711 0.960 . S
H698 C711 0.961 1_556 S
H699 C711 0.959 . S
H700 C714 0.929 . S
H701 C715 0.931 . S
H702 C717 0.930 . S
C703 H691 0.930 . S
C703 C704 1.385 1_545 S
C703 C708 1.399 . S
C704 C703 1.385 1_565 S
C704 C705 1.394 . S
C705 H692 0.930 . S
C705 C704 1.394 . S
C705 C706 1.388 . S
C706 H693 0.930 . S
C706 C705 1.388 . S
C706 C707 1.390 . S
C707 C706 1.390 . S
C707 C708 1.394 1_565 S
C707 C713 1.465 . S
C708 C703 1.399 . S
C708 C707 1.394 1_545 S
C708 C709 1.516 . S
C709 C708 1.516 . S
C709 C710 1.502 1_554 S
C709 C711 1.561 . S
C709 C712 1.526 1_554 S
C710 H694 0.959 . S
C710 H695 0.959 . S
C710 H696 0.961 . S
C710 C709 1.502 1_556 S
C711 H697 0.960 . S
C711 H698 0.961 1_554 S
C711 H699 0.959 . S
C711 C709 1.561 . S
C712 C709 1.526 1_556 S
C712 C713 1.396 1_546 S
C712 C717 1.390 . S
C713 C707 1.465 . S
C713 C712 1.396 1_564 S
C713 C714 1.399 . S
C714 H700 0.929 . S
C714 C713 1.399 . S
C714 C715 1.385 1_554 S
C715 H701 0.931 . S
C715 C714 1.385 1_556 S
C715 C716 1.389 1_565 S
C716 C715 1.389 1_545 S
C716 C717 1.387 . S
C717 H702 0.930 . S
C717 C712 1.390 . S
C717 C716 1.387 . S
H718 C730 0.930 . S
H719 C732 0.930 . S
H720 C733 0.930 1_556 S
H721 C737 0.959 . S
H722 C737 0.959 . S
H723 C737 0.961 . S
H724 C738 0.960 . S
H725 C738 0.961 . S
H726 C738 0.959 . S
H727 C741 0.929 . S
H728 C742 0.931 . S
H729 C744 0.931 . S
C730 H718 0.930 . S
C730 C731 1.399 . S
C730 C735 1.399 . S
C731 C730 1.399 . S
C731 C732 1.376 . S
C732 H719 0.930 . S
C732 C731 1.376 . S
C732 C733 1.388 . S
C733 H720 0.930 1_554 S
C733 C732 1.388 . S
C733 C734 1.390 . S
C734 C733 1.390 . S
C734 C735 1.394 . S
C734 C740 1.465 1_554 S
C735 C730 1.399 . S
C735 C734 1.394 . S
C735 C736 1.516 . S
C736 C735 1.516 . S
C736 C737 1.502 . S
C736 C738 1.561 . S
C736 C739 1.526 . S
C737 H721 0.959 . S
C737 H722 0.959 . S
C737 H723 0.961 . S
C737 C736 1.502 . S
C738 H724 0.960 . S
C738 H725 0.961 . S
C738 H726 0.959 . S
C738 C736 1.561 . S
C739 C736 1.526 . S
C739 C740 1.396 1_554 S
C739 C744 1.390 1_554 S
C740 C734 1.465 1_556 S
C740 C739 1.396 1_556 S
C740 C741 1.399 . S
C741 H727 0.929 . S
C741 C740 1.399 . S
C741 C742 1.385 . S
C742 H728 0.931 . S
C742 C741 1.385 . S
C742 C743 1.389 . S
C743 C742 1.389 . S
C743 C744 1.387 . S
C744 H729 0.931 . S
C744 C739 1.390 1_556 S
C744 C743 1.387 . S
H745 C757 0.930 . S
H746 C759 0.930 . S
H747 C760 0.930 . S
H748 C764 0.959 . S
H749 C764 0.959 . S
H750 C764 0.961 . S
H751 C765 0.960 . S
H752 C765 0.961 . S
H753 C765 0.959 . S
H754 C768 0.929 . S
H755 C769 0.931 . S
H756 C771 0.930 . S
C757 H745 0.930 . S
C757 C758 1.399 . S
C757 C762 1.399 . S
C758 C757 1.399 . S
C758 C759 1.376 . S
C759 H746 0.930 . S
C759 C758 1.376 . S
C759 C760 1.388 . S
C760 H747 0.930 . S
C760 C759 1.388 . S
C760 C761 1.390 . S
C761 C760 1.390 . S
C761 C762 1.394 . S
C761 C767 1.465 1_554 S
C762 C757 1.399 . S
C762 C761 1.394 . S
C762 C763 1.516 . S
C763 C762 1.516 . S
C763 C764 1.502 . S
C763 C765 1.561 1_554 S
C763 C766 1.526 1_554 S
C764 H748 0.959 . S
C764 H749 0.959 . S
C764 H750 0.961 . S
C764 C763 1.502 . S
C765 H751 0.960 . S
C765 H752 0.961 . S
C765 H753 0.959 . S
C765 C763 1.561 1_556 S
C766 C763 1.526 1_556 S
C766 C767 1.396 . S
C766 C771 1.390 . S
C767 C761 1.465 1_556 S
C767 C766 1.396 . S
C767 C768 1.399 . S
C768 H754 0.929 . S
C768 C767 1.399 . S
C768 C769 1.385 . S
C769 H755 0.931 . S
C769 C768 1.385 . S
C769 C770 1.389 . S
C770 C769 1.389 . S
C770 C771 1.387 . S
C771 H756 0.930 . S
C771 C766 1.390 . S
C771 C770 1.387 . S
H772 C784 0.930 . S
H773 C786 0.930 . S
H774 C787 0.930 . S
H775 C791 0.959 . S
H776 C791 0.959 . S
H777 C791 0.961 . S
H778 C792 0.960 . S
H779 C792 0.961 . S
H780 C792 0.959 . S
H781 C795 0.929 . S
H782 C796 0.931 . S
H783 C798 0.930 1_455 S
C784 H772 0.930 . S
C784 C785 1.399 . S
C784 C789 1.399 . S
C785 C784 1.399 . S
C785 C786 1.376 . S
C786 H773 0.930 . S
C786 C785 1.376 . S
C786 C787 1.388 . S
C787 H774 0.930 . S
C787 C786 1.388 . S
C787 C788 1.390 . S
C788 C787 1.390 . S
C788 C789 1.394 . S
C788 C794 1.465 . S
C789 C784 1.399 . S
C789 C788 1.394 . S
C789 C790 1.516 . S
C790 C789 1.516 . S
C790 C791 1.502 1_655 S
C790 C792 1.561 . S
C790 C793 1.526 . S
C791 H775 0.959 . S
C791 H776 0.959 . S
C791 H777 0.961 . S
C791 C790 1.502 1_455 S
C792 H778 0.960 . S
C792 H779 0.961 . S
C792 H780 0.959 . S
C792 C790 1.561 . S
C793 C790 1.526 . S
C793 C794 1.396 . S
C793 C798 1.390 . S
C794 C788 1.465 . S
C794 C793 1.396 . S
C794 C795 1.399 . S
C795 H781 0.929 . S
C795 C794 1.399 . S
C795 C796 1.385 . S
C796 H782 0.931 . S
C796 C795 1.385 . S
C796 C797 1.389 . S
C797 C796 1.389 . S
C797 C798 1.387 . S
C798 H783 0.930 1_655 S
C798 C793 1.390 . S
C798 C797 1.387 . S
H799 C811 0.930 . S
H800 C813 0.930 . S
H801 C814 0.930 . S
H802 C818 0.959 . S
H803 C818 0.959 . S
H804 C818 0.961 . S
H805 C819 0.960 . S
H806 C819 0.961 . S
H807 C819 0.959 . S
H808 C822 0.929 . S
H809 C823 0.931 . S
H810 C825 0.930 . S
C811 H799 0.930 . S
C811 C812 1.399 1_565 S
C811 C816 1.399 . S
C812 C811 1.399 1_545 S
C812 C813 1.376 . S
C813 H800 0.930 . S
C813 C812 1.376 . S
C813 C814 1.388 . S
C814 H801 0.930 . S
C814 C813 1.388 . S
C814 C815 1.390 . S
C815 C814 1.390 . S
C815 C816 1.394 1_545 S
C815 C821 1.465 . S
C816 C811 1.399 . S
C816 C815 1.394 1_565 S
C816 C817 1.516 . S
C817 C816 1.516 . S
C817 C818 1.502 . S
C817 C819 1.561 . S
C817 C820 1.526 . S
C818 H802 0.959 . S
C818 H803 0.959 . S
C818 H804 0.961 . S
C818 C817 1.502 . S
C819 H805 0.960 . S
C819 H806 0.961 . S
C819 H807 0.959 . S
C819 C817 1.561 . S
C820 C817 1.526 . S
C820 C821 1.396 1_565 S
C820 C825 1.390 . S
C821 C815 1.465 . S
C821 C820 1.396 1_545 S
C821 C822 1.399 . S
C822 H808 0.929 . S
C822 C821 1.399 . S
C822 C823 1.385 . S
C823 H809 0.931 . S
C823 C822 1.385 . S
C823 C824 1.389 1_545 S
C824 C823 1.389 1_565 S
C824 C825 1.387 . S
C825 H810 0.930 . S
C825 C820 1.390 . S
C825 C824 1.387 . S
H826 C838 0.930 . S
H827 C840 0.930 . S
H828 C841 0.930 . S
H829 C845 0.959 . S
H830 C845 0.959 . S
H831 C845 0.961 . S
H832 C846 0.960 . S
H833 C846 0.961 . S
H834 C846 0.959 . S
H835 C849 0.929 . S
H836 C850 0.931 . S
H837 C852 0.930 . S
C838 H826 0.930 . S
C838 C839 1.399 . S
C838 C843 1.399 . S
C839 C838 1.399 . S
C839 C840 1.376 . S
C840 H827 0.930 . S
C840 C839 1.376 . S
C840 C841 1.388 . S
C841 H828 0.930 . S
C841 C840 1.388 . S
C841 C842 1.390 . S
C842 C841 1.390 . S
C842 C843 1.394 . S
C842 C848 1.465 . S
C843 C838 1.399 . S
C843 C842 1.394 . S
C843 C844 1.516 . S
C844 C843 1.516 . S
C844 C845 1.502 . S
C844 C846 1.561 . S
C844 C847 1.526 . S
C845 H829 0.959 . S
C845 H830 0.959 . S
C845 H831 0.961 . S
C845 C844 1.502 . S
C846 H832 0.960 . S
C846 H833 0.961 . S
C846 H834 0.959 . S
C846 C844 1.561 . S
C847 C844 1.526 . S
C847 C848 1.396 . S
C847 C852 1.390 . S
C848 C842 1.465 . S
C848 C847 1.396 . S
C848 C849 1.399 . S
C849 H835 0.929 . S
C849 C848 1.399 . S
C849 C850 1.385 . S
C850 H836 0.931 . S
C850 C849 1.385 . S
C850 C851 1.389 . S
C851 C850 1.389 . S
C851 C852 1.387 . S
C852 H837 0.930 . S
C852 C847 1.390 . S
C852 C851 1.387 . S
H853 C865 0.930 . S
H854 C867 0.930 . S
H855 C868 0.930 . S
H856 C872 0.959 . S
H857 C872 0.959 . S
H858 C872 0.961 . S
H859 C873 0.960 . S
H860 C873 0.961 . S
H861 C873 0.959 . S
H862 C876 0.929 . S
H863 C877 0.931 . S
H864 C879 0.930 . S
C865 H853 0.930 . S
C865 C866 1.399 . S
C865 C870 1.399 . S
C866 C865 1.399 . S
C866 C867 1.376 . S
C867 H854 0.930 . S
C867 C866 1.376 . S
C867 C868 1.388 . S
C868 H855 0.930 . S
C868 C867 1.388 . S
C868 C869 1.390 . S
C869 C868 1.390 . S
C869 C870 1.394 . S
C869 C875 1.465 . S
C870 C865 1.399 . S
C870 C869 1.394 . S
C870 C871 1.516 . S
C871 C870 1.516 . S
C871 C872 1.502 . S
C871 C873 1.561 . S
C871 C874 1.526 . S
C872 H856 0.959 . S
C872 H857 0.959 . S
C872 H858 0.961 . S
C872 C871 1.502 . S
C873 H859 0.960 . S
C873 H860 0.961 . S
C873 H861 0.959 . S
C873 C871 1.561 . S
C874 C871 1.526 . S
C874 C875 1.396 . S
C874 C879 1.390 . S
C875 C869 1.465 . S
C875 C874 1.396 . S
C875 C876 1.399 . S
C876 H862 0.929 . S
C876 C875 1.399 . S
C876 C877 1.385 . S
C877 H863 0.931 . S
C877 C876 1.385 . S
C877 C878 1.389 . S
C878 C877 1.389 . S
C878 C879 1.387 . S
C879 H864 0.930 . S
C879 C874 1.390 . S
C879 C878 1.387 . S
C245 C76 1.851 . S
C257 C113 1.870 . S
C284 C134 1.533 . S
C272 C88 1.523 . S
C311 C168 1.394 . S
C299 C52 1.300 . S
C338 C202 1.526 . S
C326 C64 1.539 . S
C365 C104 1.875 . S
C353 C28 1.821 1_546 S
C380 C40 1.524 . S
C392 C143 1.535 . S
C407 C4 1.342 . S
C419 C177 1.381 . S
C434 C16 1.509 . S
C446 C211 1.548 1_655 S
C473 C125 0.588 . S
C461 C69 0.523 . S
C500 C130 0.986 . S
C488 C81 0.920 . S
C527 C164 0.889 . S
C515 C93 0.945 . S
C542 C57 0.377 . S
C554 C198 0.367 . S
C569 C21 0.699 . S
C581 C96 0.455 . S
C608 C159 0.969 . S
C596 C33 1.012 1_556 S
C635 C193 0.891 . S
C623 C45 0.889 . S
C650 C9 0.349 . S
C662 C227 0.431 . S
C677 C66 1.284 . S
C689 C109 1.338 . S
C704 C78 1.682 1_565 S
C716 C138 1.755 . S
C743 C172 1.541 . S
C731 C90 1.536 . S
C770 C206 1.613 . S
C758 C54 1.578 . S
C785 C18 1.319 . S
C797 C100 1.320 . S
C824 C147 1.751 . S
C812 C30 1.733 . S
C851 C181 1.545 . S
C839 C42 1.542 . S
C866 C6 1.587 . S
C878 C215 1.605 . S
