# Generated by pormake.
# Topology zzz, (3,6)-cn, num edge types: 1
# Building blocks:
#     Node 0, Type 0, BuildingBlock: BETDAH_clean_linker_0, # of connection points: 3
#     Node 1, Type 0, BuildingBlock: BETDAH_clean_linker_0, # of connection points: 3
#     Node 2, Type 0, BuildingBlock: BETDAH_clean_linker_0, # of connection points: 3
#     Node 3, Type 0, BuildingBlock: BETDAH_clean_linker_0, # of connection points: 3
#     Node 4, Type 0, BuildingBlock: BETDAH_clean_linker_0, # of connection points: 3
#     Node 5, Type 0, BuildingBlock: BETDAH_clean_linker_0, # of connection points: 3
#     Node 6, Type 0, BuildingBlock: BETDAH_clean_linker_0, # of connection points: 3
#     Node 7, Type 0, BuildingBlock: BETDAH_clean_linker_0, # of connection points: 3
#     Node 8, Type 1, BuildingBlock: BETDEL_clean_sbu_0, # of connection points: 6
#     Node 9, Type 1, BuildingBlock: BETDEL_clean_sbu_0, # of connection points: 6
#     Node 10, Type 1, BuildingBlock: BETDEL_clean_sbu_0, # of connection points: 6
#     Node 11, Type 1, BuildingBlock: BETDEL_clean_sbu_0, # of connection points: 6
#     Edge 12, Type (0, 1), BuildingBlock: AJUNOK_clean_linker_0, # of connection points: 2
#     Edge 13, Type (0, 1), BuildingBlock: AJUNOK_clean_linker_0, # of connection points: 2
#     Edge 14, Type (0, 1), BuildingBlock: AJUNOK_clean_linker_0, # of connection points: 2
#     Edge 15, Type (0, 1), BuildingBlock: AJUNOK_clean_linker_0, # of connection points: 2
#     Edge 16, Type (0, 1), BuildingBlock: AJUNOK_clean_linker_0, # of connection points: 2
#     Edge 17, Type (0, 1), BuildingBlock: AJUNOK_clean_linker_0, # of connection points: 2
#     Edge 18, Type (0, 1), BuildingBlock: AJUNOK_clean_linker_0, # of connection points: 2
#     Edge 19, Type (0, 1), BuildingBlock: AJUNOK_clean_linker_0, # of connection points: 2
#     Edge 20, Type (0, 1), BuildingBlock: AJUNOK_clean_linker_0, # of connection points: 2
#     Edge 21, Type (0, 1), BuildingBlock: AJUNOK_clean_linker_0, # of connection points: 2
#     Edge 22, Type (0, 1), BuildingBlock: AJUNOK_clean_linker_0, # of connection points: 2
#     Edge 23, Type (0, 1), BuildingBlock: AJUNOK_clean_linker_0, # of connection points: 2
#     Edge 24, Type (0, 1), BuildingBlock: AJUNOK_clean_linker_0, # of connection points: 2
#     Edge 25, Type (0, 1), BuildingBlock: AJUNOK_clean_linker_0, # of connection points: 2
#     Edge 26, Type (0, 1), BuildingBlock: AJUNOK_clean_linker_0, # of connection points: 2
#     Edge 27, Type (0, 1), BuildingBlock: AJUNOK_clean_linker_0, # of connection points: 2
#     Edge 28, Type (0, 1), BuildingBlock: AJUNOK_clean_linker_0, # of connection points: 2
#     Edge 29, Type (0, 1), BuildingBlock: AJUNOK_clean_linker_0, # of connection points: 2
#     Edge 30, Type (0, 1), BuildingBlock: AJUNOK_clean_linker_0, # of connection points: 2
#     Edge 31, Type (0, 1), BuildingBlock: AJUNOK_clean_linker_0, # of connection points: 2
#     Edge 32, Type (0, 1), BuildingBlock: AJUNOK_clean_linker_0, # of connection points: 2
#     Edge 33, Type (0, 1), BuildingBlock: AJUNOK_clean_linker_0, # of connection points: 2
#     Edge 34, Type (0, 1), BuildingBlock: AJUNOK_clean_linker_0, # of connection points: 2
#     Edge 35, Type (0, 1), BuildingBlock: AJUNOK_clean_linker_0, # of connection points: 2
# Relax obj value: 0.170
# Max RMSD: 0.182
# Mean RMSD: 0.121
data_MOF--net-zzz--node1-BETDEL_clean_sbu_0--node2-BETDAH_clean_linker_0--edge1-AJUNOK_clean_linker_0
_symmetry_space_group_name_H-M    P1
_symmetry_Int_Tables_number       1
_symmetry_cell_setting            triclinic
loop_
_symmetry_equiv_pos_as_xyz
'x, y, z'
_cell_length_a     36.055035
_cell_length_b     37.073382
_cell_length_c     11.047883
_cell_angle_alpha  91.482901
_cell_angle_beta   88.360217
_cell_angle_gamma 95.340293
loop_
_atom_site_label
_atom_site_type_symbol
_atom_site_fract_x
_atom_site_fract_y
_atom_site_fract_z
_atom_type_partial_charge
H0 H 0.84329 0.47319 0.14609 0.0
H1 H 0.74836 0.48772 0.93411 0.0
H2 H 0.76924 0.55199 0.26054 0.0
C3 C 0.81695 0.48481 0.13653 0.0
C4 C 0.80902 0.51329 0.21432 0.0
C5 C 0.79697 0.47738 0.03113 0.0
C6 C 0.76352 0.49328 0.0166 0.0
C7 C 0.75194 0.51884 0.1034 0.0
C8 C 0.77582 0.52989 0.20005 0.0
N9 N 0.71841 0.53601 0.09048 0.0
C10 C 0.69337 0.52913 -0.00389 0.0
H11 H 1.01403 0.85604 0.09091 0.0
H12 H 1.01641 0.75163 0.91562 0.0
H13 H 0.96417 0.76217 0.2719 0.0
C14 C 1.00725 0.82683 0.09227 0.0
C15 C 0.98704 0.81193 0.19018 0.0
C16 C 0.01785 0.80565 -0.00618 0.0
C17 C 1.00888 0.76792 -0.00633 0.0
C18 C 0.98982 0.75178 0.09566 0.0
C19 C 0.97897 0.77414 0.1939 0.0
N20 N 0.98079 0.71359 0.10282 0.0
C21 C 0.98817 0.68792 0.01269 0.0
H22 H 0.678 0.04287 0.09456 0.0
H23 H 0.7882 0.03893 0.94366 0.0
H24 H 0.75621 0.9851 0.27914 0.0
C25 C 0.70615 0.03515 0.10232 0.0
C26 C 0.71394 0.01405 0.19923 0.0
C27 C 0.73266 0.04475 0.01151 0.0
C28 C 0.76821 0.03245 0.0164 0.0
C29 C 0.77727 1.01105 0.11348 0.0
C30 C 0.74974 1.00172 0.20479 0.0
N31 N 0.81332 0.99817 0.12046 0.0
C32 C 0.84239 1.0047 0.03455 0.0
H33 H 0.49765 0.67867 0.15541 0.0
H34 H 0.51436 0.77672 0.95498 0.0
H35 H 0.57029 0.76727 0.29226 0.0
C36 C 0.50894 0.70684 0.14938 0.0
C37 C 0.53468 0.72033 0.23388 0.0
C38 C 0.50263 0.72615 0.04655 0.0
C39 C 0.51846 0.76209 0.03639 0.0
C40 C 0.54147 0.77793 0.12872 0.0
C41 C 0.55056 0.75633 0.22564 0.0
N42 N 0.55769 0.81445 0.12331 0.0
C43 C 0.55056 0.83934 0.03585 0.0
H44 H 0.18638 0.5457 0.00314 0.0
H45 H 0.28069 0.52903 0.2158 0.0
H46 H 0.25953 0.46638 0.88631 0.0
C47 C 0.21254 0.53373 0.0125 0.0
C48 C 0.22017 0.50535 0.93386 0.0
C49 C 0.2325 0.54061 0.11826 0.0
C50 C 0.26564 0.52416 0.13262 0.0
C51 C 0.27704 0.49886 0.04461 0.0
C52 C 0.25314 0.48835 0.94758 0.0
N53 N 0.31037 0.48139 0.05663 0.0
C54 C 0.33588 0.48849 0.14946 0.0
H55 H 0.99703 0.1746 0.98365 0.0
H56 H 1.01106 0.27225 0.2016 0.0
H57 H 0.06952 0.2642 0.85618 0.0
C58 C 1.00779 0.20287 -0.00574 0.0
C59 C 0.03428 0.21678 0.91042 0.0
C60 C 1.00054 0.22167 0.10181 0.0
C61 C 1.01585 0.25783 0.11691 0.0
C62 C 0.03904 0.27428 0.02415 0.0
C63 C 0.04943 0.25292 0.92299 0.0
N64 N 0.05413 0.31119 0.03239 0.0
C65 C 0.04597 0.33591 0.12467 0.0
H66 H 0.36509 0.98982 0.0323 0.0
H67 H 0.25502 0.99556 0.18382 0.0
H68 H 0.28838 0.04984 0.8498 0.0
C69 C 0.33719 0.99825 0.02509 0.0
C70 C 0.32992 0.01982 0.92888 0.0
C71 C 0.31039 0.98875 0.11523 0.0
C72 C 0.27525 1.00197 0.11138 0.0
C73 C 0.26676 0.02391 0.01494 0.0
C74 C 0.29446 0.03289 0.92374 0.0
N75 N 0.23107 0.03753 0.00808 0.0
C76 C 0.20243 0.0328 0.09632 0.0
H77 H 0.46186 0.34361 0.00068 0.0
H78 H 0.50526 0.25615 0.18084 0.0
H79 H 0.52294 0.26803 0.79722 0.0
C80 C 0.47403 0.31782 -0.0041 0.0
C81 C 0.49215 0.30866 0.88842 0.0
C82 C 0.48284 0.30199 0.10331 0.0
C83 C 0.49878 0.26881 0.09775 0.0
C84 C 0.50958 0.25417 0.98431 0.0
C85 C 0.50919 0.27594 0.8809 0.0
N86 N 0.52439 0.21985 0.97373 0.0
C87 C 0.52065 0.19352 0.06283 0.0
Dy88 Dy 0.04108 0.99546 0.65836 0.0
C89 C 0.9966 0.08673 0.30071 0.0
C90 C 0.05403 0.93955 0.80275 0.0
Dy91 Dy 1.00133 0.03155 0.45354 0.0
O92 O 0.07557 0.95152 0.7139 0.0
O93 O 0.02763 0.96094 0.82021 0.0
O94 O 0.09585 0.01988 0.58695 0.0
O95 O 0.05304 1.00455 0.46427 0.0
C96 C 0.08619 0.01932 0.47411 0.0
C97 C 0.95464 0.02361 0.64944 0.0
O98 O 0.99218 0.97494 0.37766 0.0
O99 O 1.00969 0.94982 0.55591 0.0
O100 O 0.96922 0.06222 0.32476 0.0
O101 O 0.02701 0.07781 0.34707 0.0
O102 O 0.94558 0.03712 0.54863 0.0
O103 O 0.98744 0.01477 0.63626 0.0
O104 O 0.04264 0.05149 0.74211 0.0
O105 O 0.03283 0.07641 0.55673 0.0
C106 C 0.99607 0.94651 0.44574 0.0
C107 C 0.04053 0.07997 0.67258 0.0
Dy108 Dy 0.49481 0.99134 0.48358 0.0
C109 C 0.61978 0.06318 0.7082 0.0
C110 C 0.42449 0.97151 0.40932 0.0
Dy111 Dy 0.54939 0.04263 0.63538 0.0
O112 O 0.45301 0.95314 0.38318 0.0
O113 O 0.43511 1.00077 0.47028 0.0
O114 O 0.5425 0.9639 0.39426 0.0
O115 O 0.54973 0.01812 0.45564 0.0
C116 C 0.56662 0.99177 0.41569 0.0
C117 C 0.47702 0.04058 0.70455 0.0
O118 O 0.54053 0.08173 0.49103 0.0
O119 O 0.49574 0.04491 0.38527 0.0
O120 O 0.59051 0.07924 0.74473 0.0
O121 O 0.6098 0.03593 0.63742 0.0
O122 O 0.50049 0.0692 0.72182 0.0
O123 O 0.49469 0.01485 0.66442 0.0
O124 O 0.50492 0.95265 0.63015 0.0
O125 O 0.55185 0.98893 0.72692 0.0
C126 C 0.51608 0.07651 0.40351 0.0
C127 C 0.53133 0.95741 0.71218 0.0
Dy128 Dy 0.4981 0.53389 0.68611 0.0
C129 C 0.51378 0.44245 0.29216 0.0
C130 C 0.4872 0.58979 0.84258 0.0
Dy131 Dy 0.5308 0.49854 0.44788 0.0
O132 O 0.46151 0.57267 0.77777 0.0
O133 O 0.51751 0.57337 0.83229 0.0
O134 O 0.4415 0.50863 0.6345 0.0
O135 O 0.48106 0.52535 0.49917 0.0
C136 C 0.44858 0.51011 0.51837 0.0
C137 C 0.58389 0.50929 0.61637 0.0
O138 O 0.53777 0.55575 0.38314 0.0
O139 O 0.52387 0.58028 0.57455 0.0
O140 O 0.54729 0.459 0.30217 0.0
O141 O 0.49008 0.45975 0.35524 0.0
O142 O 0.59051 0.49701 0.50679 0.0
O143 O 0.55004 0.51549 0.62319 0.0
O144 O 0.50373 0.47917 0.76104 0.0
O145 O 0.51044 0.45262 0.56912 0.0
C146 C 0.53466 0.58397 0.45916 0.0
C147 C 0.50542 0.45033 0.68768 0.0
Dy148 Dy 0.99399 0.4891 0.66564 0.0
C149 C 0.09433 0.5535 0.33226 0.0
C150 C 0.93525 0.46641 0.81467 0.0
Dy151 Dy 0.03552 0.53081 0.48111 0.0
O152 O 0.94742 0.44807 0.72311 0.0
O153 O 0.95744 0.49572 0.83045 0.0
O154 O 0.01937 0.43884 0.60781 0.0
O155 O 1.00755 0.47581 0.47517 0.0
C156 C 0.02183 0.4464 0.49352 0.0
C157 C 1.00838 0.57333 0.65514 0.0
O158 O 0.98098 0.53056 0.38838 0.0
O159 O 0.94916 0.51267 0.56332 0.0
O160 O 0.08242 0.57162 0.42471 0.0
O161 O 0.0718 0.52448 0.31547 0.0
O162 O 1.01016 0.581 0.54087 0.0
O163 O 0.02257 0.5438 0.67197 0.0
O164 O 0.04844 0.48945 0.75865 0.0
O165 O 0.08032 0.50711 0.5835 0.0
C166 C 0.94927 0.52438 0.45137 0.0
C167 C 0.08015 0.49545 0.69559 0.0
C168 C 0.1805 0.03692 0.3102 0.0
C169 C 0.17244 0.02964 0.18807 0.0
C170 C 0.15219 0.03428 0.40071 0.0
C171 C 0.1146 0.02411 0.37304 0.0
H172 H 0.20895 0.0446 0.33623 0.0
H173 H 0.16005 0.03989 0.49369 0.0
S174 S 0.07895 1.0034 0.0647 0.0
N175 N 0.12432 0.01284 0.04247 0.0
N176 N 0.07108 1.00762 0.21229 0.0
C177 C 0.10617 0.01725 0.25039 0.0
C178 C 0.13511 0.02004 0.15807 0.0
C179 C 0.51812 0.17104 0.2733 0.0
C180 C 0.51768 0.16393 0.14777 0.0
C181 C 0.5169 0.14257 0.35588 0.0
C182 C 0.51453 0.10603 0.31572 0.0
H183 H 0.51999 0.19874 0.30789 0.0
H184 H 0.51793 0.14921 0.45188 0.0
S185 S 0.51472 0.07345 -0.00383 0.0
N186 N 0.51625 0.11799 0.98704 0.0
N187 N 0.51324 0.06466 0.14193 0.0
C188 C 0.51385 0.09874 0.19038 0.0
C189 C 0.51564 0.12767 0.10646 0.0
C190 C 0.3999 0.50932 0.21487 0.0
C191 C 0.36374 0.49373 0.24297 0.0
C192 C 0.42736 0.514 0.30373 0.0
C193 C 0.41966 0.5032 0.42407 0.0
H194 H 0.40705 0.51803 0.12358 0.0
H195 H 0.45472 0.52648 0.27809 0.0
S196 S 0.32917 0.4598 0.54165 0.0
N197 N 0.32173 0.46677 0.39761 0.0
N198 N 0.37293 0.47531 0.56453 0.0
C199 C 0.38354 0.48715 0.4523 0.0
C200 C 0.35569 0.48247 0.3618 0.0
C201 C 0.02647 0.39634 0.18723 0.0
C202 C 0.04014 0.36349 0.21738 0.0
C203 C 0.02136 0.42355 0.27612 0.0
C204 C 0.0297 0.41872 0.39818 0.0
H205 H 0.01964 0.40104 0.09441 0.0
H206 H 1.01035 0.44826 0.2493 0.0
S207 S 0.06837 0.33796 0.52058 0.0
N208 N 0.0633 0.32805 0.37503 0.0
N209 N 0.054 0.37871 0.5421 0.0
C210 C 0.04417 0.38609 0.42811 0.0
C211 C 0.04928 0.35856 0.3377 0.0
C212 C 0.89754 0.98417 0.9196 0.0
C213 C 0.87285 1.01087 0.94539 0.0
C214 C 0.92568 0.989 0.82813 0.0
C215 C 0.92951 0.02047 0.75852 0.0
H216 H 0.89463 0.9591 0.96867 0.0
H217 H 0.94333 0.96738 0.80824 0.0
S218 S 0.87445 0.09986 0.79955 0.0
N219 N 0.85642 0.07104 0.90167 0.0
N220 N 0.90801 0.07969 0.7282 0.0
C221 C 0.90579 0.04775 0.7869 0.0
C222 C 0.87776 0.04308 0.88081 0.0
C223 C 0.51591 0.86711 0.87593 0.0
C224 C 0.54633 0.8685 0.95302 0.0
C225 C 0.51137 0.89579 0.79789 0.0
C226 C 0.53702 0.92703 0.79454 0.0
H227 H 0.49539 0.84382 0.8763 0.0
H228 H 0.48733 0.89353 0.74069 0.0
S229 S 0.62194 0.94291 0.97929 0.0
N230 N 0.60266 0.90284 0.0211 0.0
N231 N 0.59452 0.95665 0.87611 0.0
C232 C 0.56772 0.92835 0.87165 0.0
C233 C 0.57226 0.89912 0.9504 0.0
C234 C 0.62801 0.52635 0.92645 0.0
C235 C 0.66619 0.5241 0.90022 0.0
C236 C 0.60146 0.52211 0.83438 0.0
C237 C 0.61218 0.51534 0.71285 0.0
H238 H 0.61856 0.53139 0.01879 0.0
H239 H 0.57235 0.52368 0.85886 0.0
S240 S 0.70917 0.50803 0.59749 0.0
N241 N 0.71351 0.51562 0.74459 0.0
N242 N 0.66415 0.50719 0.57224 0.0
C243 C 0.65045 0.51323 0.6861 0.0
C244 C 0.67732 0.51775 0.77959 0.0
C245 C 0.9855 0.6628 0.8032 0.0
C246 C 0.9935 0.65875 0.92527 0.0
C247 C 0.98973 0.63466 0.71761 0.0
C248 C 1.00211 0.60137 0.75083 0.0
H249 H 0.97594 0.6879 0.77351 0.0
H250 H 0.98348 0.63922 0.6242 0.0
S251 S 0.02591 0.57729 0.06153 0.0
N252 N 1.01367 0.61908 0.07682 0.0
N253 N 0.02165 0.56611 0.91646 0.0
C254 C 1.00971 0.59692 0.87362 0.0
C255 C 1.00544 0.62568 0.96066 0.0
C256 C 0.01855 0.18782 0.27099 0.0
C257 C 0.9889 0.19786 0.20362 0.0
C258 C 0.02057 0.15168 0.30095 0.0
C259 C 0.99204 0.12463 0.27078 0.0
H260 H 0.04299 0.2067 0.28438 0.0
H261 H 0.04543 0.1448 0.34455 0.0
S262 S 0.90311 0.13946 0.12883 0.0
N263 N 0.92679 0.17985 0.13109 0.0
N264 N 0.92962 0.11191 0.1938 0.0
C265 C 0.95952 0.13542 0.22139 0.0
C266 C 0.95777 0.17229 0.18912 0.0
C267 C 0.3288 0.99173 0.32743 0.0
C268 C 0.3235 0.97055 0.22126 0.0
C269 C 0.35997 0.98872 0.39777 0.0
C270 C 0.38645 0.96444 0.36358 0.0
H271 H 0.31225 0.01428 0.3461 0.0
H272 H 0.36536 1.00826 0.47131 0.0
S273 S 0.37713 0.89434 0.1191 0.0
N274 N 0.34062 0.91765 0.1059 0.0
N275 N 0.3999 0.91248 0.23682 0.0
C276 C 0.37754 0.93862 0.27167 0.0
C277 C 0.34541 0.9413 0.20146 0.0
C278 C 0.52702 0.34461 0.20904 0.0
C279 C 0.49008 0.32856 0.20324 0.0
C280 C 0.53458 0.38169 0.23578 0.0
C281 C 0.50551 0.4037 0.26034 0.0
H282 H 0.54996 0.32954 0.17789 0.0
H283 H 0.56328 0.39333 0.23327 0.0
S284 S 0.40461 0.37265 0.28513 0.0
N285 N 0.42485 0.33584 0.24491 0.0
N286 N 0.43868 0.4054 0.29749 0.0
C287 C 0.46879 0.38699 0.26922 0.0
C288 C 0.46124 0.34928 0.24247 0.0
C289 C 0.19162 0.58379 0.21441 0.0
C290 C 0.20948 0.55165 0.22266 0.0
C291 C 0.15438 0.58511 0.25435 0.0
C292 C 0.13426 0.55424 0.30192 0.0
H293 H 0.20479 0.60615 0.16277 0.0
H294 H 0.14056 0.60929 0.23957 0.0
S295 S 0.17129 0.46734 0.37191 0.0
N296 N 0.20675 0.49162 0.30718 0.0
N297 N 0.13657 0.4934 0.37647 0.0
C298 C 0.15325 0.52385 0.32481 0.0
C299 C 0.19127 0.52305 0.28866 0.0
C300 C 0.06922 0.84519 0.90478 0.0
C301 C 0.03358 0.8266 0.89008 0.0
C302 C 0.0765 0.88171 0.87274 0.0
C303 C 0.04815 0.90053 0.82686 0.0
H304 H 0.08981 0.83304 0.95602 0.0
H305 H 0.10337 0.89592 0.89223 0.0
S306 S 0.95406 0.86106 0.73973 0.0
N307 N 0.97324 0.82718 0.79975 0.0
N308 N 0.98583 0.89608 0.7458 0.0
C309 C 1.01423 0.8809 0.79748 0.0
C310 C 1.00756 0.84354 0.82499 0.0
C311 C 0.69589 0.09077 0.92572 0.0
C312 C 0.71911 0.06248 0.90487 0.0
C313 C 0.66497 0.09365 0.85368 0.0
C314 C 0.65766 0.06935 0.75612 0.0
H315 H 0.69813 0.10694 0.0088 0.0
H316 H 0.64492 0.11241 0.88187 0.0
S317 S 0.71888 1.00081 0.63594 0.0
N318 N 0.73868 0.01677 0.76171 0.0
N319 N 0.68219 0.02368 0.62118 0.0
C320 C 0.68506 0.04619 0.72028 0.0
C321 C 0.71587 0.04266 0.79542 0.0
C322 C 0.45733 0.6803 0.95545 0.0
C323 C 0.49072 0.70309 0.9417 0.0
C324 C 0.45582 0.64349 0.92056 0.0
C325 C 0.48754 0.62879 0.87096 0.0
H326 H 0.43432 0.6896 0.00914 0.0
H327 H 0.4307 0.62603 0.94035 0.0
S328 S 0.57631 0.68025 0.77547 0.0
N329 N 0.55191 0.71074 0.84384 0.0
N330 N 0.54962 0.64162 0.78085 0.0
C331 C 0.51883 0.65256 0.83968 0.0
C332 C 0.51985 0.69 0.87177 0.0
C333 C 0.83857 0.43482 0.93502 0.0
C334 C 0.82013 0.4666 0.92667 0.0
C335 C 0.87579 0.43402 0.89417 0.0
C336 C 0.89534 0.46509 0.84582 0.0
H337 H 0.82588 0.41238 -0.01281 0.0
H338 H 0.89007 0.41012 0.90888 0.0
S339 S 0.85667 0.55118 0.7758 0.0
N340 N 0.82169 0.52646 0.84144 0.0
N341 N 0.89187 0.5257 0.77084 0.0
C342 C 0.87577 0.49511 0.8231 0.0
C343 C 0.83775 0.49535 0.86001 0.0
C344 C 0.07042 0.16458 0.86252 0.0
C345 C 0.04707 0.18999 0.82115 0.0
C346 C 0.06887 0.12898 0.81397 0.0
C347 C 0.04419 0.11779 0.72145 0.0
H348 H 0.08731 0.17122 0.94101 0.0
H349 H 0.08611 0.10988 0.85165 0.0
S350 S 0.97774 0.17433 0.58096 0.0
N351 N 0.99965 0.20179 0.68093 0.0
N352 N 0.99643 0.13551 0.58872 0.0
C353 C 0.02228 0.14369 0.67489 0.0
C354 C 0.02401 0.1797 0.72424 0.0
C355 C 0.38193 0.06187 0.83931 0.0
C356 C 0.36138 0.02762 0.83963 0.0
C357 C 0.41887 0.06627 0.79154 0.0
C358 C 0.43686 0.03646 0.74487 0.0
H359 H 0.37037 0.08486 0.88366 0.0
H360 H 0.43398 0.09291 0.79634 0.0
S361 S 0.39453 0.94117 0.72419 0.0
N362 N 0.3609 0.96404 0.78233 0.0
N363 N 0.43049 0.97143 0.70289 0.0
C364 C 0.41599 1.00235 0.74183 0.0
C365 C 0.37822 0.99825 0.78577 0.0
C366 C 0.47518 0.35046 0.72983 0.0
C367 C 0.50197 0.33972 0.80813 0.0
C368 C 0.47641 0.38649 0.69157 0.0
C369 C 0.50332 0.41334 0.73518 0.0
H370 H 0.452 0.33143 0.70367 0.0
H371 H 0.45537 0.39371 0.63076 0.0
S372 S 0.58106 0.39884 0.93437 0.0
N373 N 0.55786 0.35843 0.92007 0.0
N374 N 0.55894 0.42629 0.85256 0.0
C375 C 0.53096 0.40276 0.80954 0.0
C376 C 0.53061 0.36593 0.84462 0.0
C377 C 0.18513 0.5064 0.74332 0.0
C378 C 0.1888 0.49111 0.85658 0.0
C379 C 0.15011 0.50611 0.69039 0.0
C380 C 0.11709 0.49088 0.74898 0.0
H381 H 0.20895 0.52133 0.70004 0.0
H382 H 0.1488 0.52018 0.60629 0.0
S383 S 0.11239 0.44534 0.0449 0.0
N384 N 0.15708 0.45846 0.0231 0.0
N385 N 0.09131 0.45789 0.92414 0.0
C386 C 0.12079 0.47366 0.85934 0.0
C387 C 0.15658 0.47365 0.91257 0.0
C388 C 0.95527 0.86561 0.25749 0.0
C389 C 0.9778 0.8381 0.28718 0.0
C390 C 0.96033 0.90046 0.31127 0.0
C391 C 0.98779 0.90885 0.39779 0.0
H392 H 0.93634 0.86125 0.18294 0.0
H393 H 0.94382 0.92131 0.28106 0.0
S394 S 0.05192 0.84529 0.51314 0.0
N395 N 0.02629 0.82073 0.41441 0.0
N396 N 0.03637 0.88579 0.51536 0.0
C397 C 1.00846 0.88064 0.43478 0.0
C398 C 1.00308 0.84528 0.38035 0.0
C399 C 0.66357 0.0347 0.33437 0.0
C400 C 0.68247 1.00555 0.28773 0.0
C401 C 0.62654 0.02966 0.37683 0.0
C402 C 0.60692 0.99506 0.37909 0.0
H403 H 0.67654 0.06218 0.32815 0.0
H404 H 0.61277 0.05348 0.40375 0.0
S405 S 0.64568 0.90882 0.28804 0.0
N406 N 0.68004 0.94029 0.25802 0.0
N407 N 0.61083 0.93045 0.34498 0.0
C408 C 0.62642 0.96519 0.34267 0.0
C409 C 0.66416 0.9705 0.29654 0.0
C410 C 0.56811 0.66653 0.27202 0.0
C411 C 0.54591 0.69334 0.31894 0.0
C412 C 0.5653 0.6314 0.31914 0.0
C413 C 0.54039 0.6219 0.41574 0.0
H414 H 0.5851 0.67172 0.1907 0.0
H415 H 0.5816 0.61124 0.27661 0.0
S416 S 0.47713 0.68289 0.57311 0.0
N417 N 0.49965 0.70848 0.46978 0.0
N418 N 0.494 0.64306 0.55923 0.0
C419 C 0.51978 0.64928 0.46811 0.0
C420 C 0.52278 0.68488 0.42002 0.0
C421 C 0.84422 0.51281 0.40464 0.0
C422 C 0.84031 0.52798 0.29133 0.0
C423 C 0.87934 0.51333 0.45715 0.0
C424 C 0.91222 0.52874 0.39821 0.0
H425 H 0.82055 0.49774 0.44824 0.0
H426 H 0.88082 0.49929 0.54122 0.0
S427 S 0.91627 0.57411 0.10206 0.0
N428 N 0.87167 0.5607 0.12435 0.0
N429 N 0.93758 0.56179 0.22269 0.0
C430 C 0.90827 0.54587 0.28785 0.0
C431 C 0.87239 0.5456 0.23497 0.0
loop_
_geom_bond_atom_site_label_1
_geom_bond_atom_site_label_2
_geom_bond_distance
_geom_bond_site_symmetry_2
_ccdc_geom_bond_type
H0 C3 0.929 . S
H1 C6 0.929 1_556 S
H2 C8 0.930 . S
C3 H0 0.929 . S
C3 C4 1.398 . S
C3 C5 1.396 . S
C4 C3 1.398 . S
C4 C8 1.407 . S
C5 C3 1.396 . S
C5 C6 1.394 . S
C6 H1 0.929 1_554 S
C6 C5 1.394 . S
C6 C7 1.382 . S
C7 C6 1.382 . S
C7 C8 1.392 . S
C7 N9 1.420 . S
C8 H2 0.930 . S
C8 C4 1.407 . S
C8 C7 1.392 . S
N9 C7 1.420 . S
N9 C10 1.244 . S
C10 N9 1.244 . S
H11 C14 0.929 . S
H12 C17 0.929 . S
H13 C19 0.930 . S
C14 H11 0.929 . S
C14 C15 1.398 1_655 S
C14 C16 1.394 1_655 S
C15 C14 1.398 1_455 S
C15 C19 1.407 . S
C16 C14 1.394 1_455 S
C16 C17 1.399 1_554 S
C17 H12 0.929 . S
C17 C16 1.399 1_556 S
C17 C18 1.382 1_556 S
C18 C17 1.382 1_554 S
C18 C19 1.392 . S
C18 N20 1.420 . S
C19 H13 0.930 . S
C19 C15 1.407 . S
C19 C18 1.392 . S
N20 C18 1.420 . S
N20 C21 1.231 1_454 S
C21 N20 1.231 1_656 S
H22 C25 0.929 . S
H23 C28 0.929 . S
H24 C30 0.930 . S
C25 H22 0.929 . S
C25 C26 1.398 . S
C25 C27 1.396 1_554 S
C26 C25 1.398 . S
C26 C30 1.407 . S
C27 C25 1.396 1_556 S
C27 C28 1.394 . S
C28 H23 0.929 . S
C28 C27 1.394 . S
C28 C29 1.382 1_556 S
C29 C28 1.382 1_554 S
C29 C30 1.392 . S
C29 N31 1.420 . S
C30 H24 0.930 . S
C30 C26 1.407 . S
C30 C29 1.392 . S
N31 C29 1.420 . S
N31 C32 1.244 1_554 S
C32 N31 1.244 1_556 S
H33 C36 0.929 . S
H34 C39 0.929 1_556 S
H35 C41 0.930 . S
C36 H33 0.929 . S
C36 C37 1.398 . S
C36 C38 1.396 . S
C37 C36 1.398 . S
C37 C41 1.407 . S
C38 C36 1.396 . S
C38 C39 1.394 . S
C39 H34 0.929 1_554 S
C39 C38 1.394 . S
C39 C40 1.382 . S
C40 C39 1.382 . S
C40 C41 1.392 . S
C40 N42 1.420 . S
C41 H35 0.930 . S
C41 C37 1.407 . S
C41 C40 1.392 . S
N42 C40 1.420 . S
N42 C43 1.244 . S
C43 N42 1.244 . S
H44 C47 0.929 . S
H45 C50 0.929 . S
H46 C52 0.930 . S
C47 H44 0.929 . S
C47 C48 1.398 1_554 S
C47 C49 1.396 . S
C48 C47 1.398 1_556 S
C48 C52 1.407 . S
C49 C47 1.396 . S
C49 C50 1.394 . S
C50 H45 0.929 . S
C50 C49 1.394 . S
C50 C51 1.382 . S
C51 C50 1.382 . S
C51 C52 1.392 1_554 S
C51 N53 1.420 . S
C52 H46 0.930 . S
C52 C48 1.407 . S
C52 C51 1.392 1_556 S
N53 C51 1.420 . S
N53 C54 1.244 . S
C54 N53 1.244 . S
H55 C58 0.929 . S
H56 C61 0.929 . S
H57 C63 0.930 . S
C58 H55 0.929 . S
C58 C59 1.398 1_654 S
C58 C60 1.394 1_655 S
C59 C58 1.398 1_456 S
C59 C63 1.407 . S
C60 C58 1.394 1_455 S
C60 C61 1.396 . S
C61 H56 0.929 . S
C61 C60 1.396 . S
C61 C62 1.382 . S
C62 C61 1.382 . S
C62 C63 1.392 1_554 S
C62 N64 1.420 . S
C63 H57 0.930 . S
C63 C59 1.407 . S
C63 C62 1.392 1_556 S
N64 C62 1.420 . S
N64 C65 1.235 1_455 S
C65 N64 1.235 1_655 S
H66 C69 0.929 . S
H67 C72 0.929 . S
H68 C74 0.930 . S
C69 H66 0.929 . S
C69 C70 1.398 1_554 S
C69 C71 1.396 . S
C70 C69 1.398 1_556 S
C70 C74 1.407 . S
C71 C69 1.396 . S
C71 C72 1.394 . S
C72 H67 0.929 . S
C72 C71 1.394 . S
C72 C73 1.382 . S
C73 C72 1.382 . S
C73 C74 1.392 1_554 S
C73 N75 1.420 . S
C74 H68 0.930 . S
C74 C70 1.407 . S
C74 C73 1.392 1_556 S
N75 C73 1.420 . S
N75 C76 1.244 . S
C76 N75 1.244 . S
H77 C80 0.929 . S
H78 C83 0.929 . S
H79 C85 0.930 . S
C80 H77 0.929 . S
C80 C81 1.398 . S
C80 C82 1.396 1_556 S
C81 C80 1.398 . S
C81 C85 1.407 . S
C82 C80 1.396 1_554 S
C82 C83 1.394 . S
C83 H78 0.929 . S
C83 C82 1.394 . S
C83 C84 1.382 . S
C84 C83 1.382 . S
C84 C85 1.392 1_554 S
C84 N86 1.420 . S
C85 H79 0.930 . S
C85 C81 1.407 . S
C85 C84 1.392 1_556 S
N86 C84 1.420 . S
N86 C87 1.244 . S
C87 N86 1.244 . S
Dy88 O92 2.398 . S
Dy88 O93 2.491 1_455 S
Dy88 O94 2.403 . S
Dy88 O95 2.664 1_565 S
Dy88 O99 2.326 . S
Dy88 O103 2.310 1_455 S
Dy88 O104 2.351 1_565 S
C89 O100 1.185 . S
C89 O101 1.355 1_655 S
C90 O92 1.185 . S
C90 O93 1.355 1_455 S
Dy91 O95 2.310 1_655 S
Dy91 O98 2.351 1_545 S
Dy91 O100 2.398 . S
Dy91 O101 2.491 1_655 S
Dy91 O102 2.403 . S
Dy91 O103 2.664 1_545 S
Dy91 O105 2.326 . S
O92 Dy88 2.398 . S
O92 C90 1.185 . S
O93 Dy88 2.491 1_655 S
O93 C90 1.355 1_655 S
O94 Dy88 2.403 . S
O94 C96 1.254 1_565 S
O95 Dy88 2.664 1_545 S
O95 Dy91 2.310 1_455 S
O95 C96 1.268 . S
C96 O94 1.254 1_545 S
C96 O95 1.268 . S
C97 O102 1.254 1_565 S
C97 O103 1.268 . S
O98 Dy91 2.351 1_565 S
O98 C106 1.249 . S
O99 Dy88 2.326 . S
O99 C106 1.267 1_455 S
O100 C89 1.185 . S
O100 Dy91 2.398 . S
O101 C89 1.355 1_455 S
O101 Dy91 2.491 1_455 S
O102 Dy91 2.403 . S
O102 C97 1.254 1_545 S
O103 Dy88 2.310 1_655 S
O103 Dy91 2.664 1_565 S
O103 C97 1.268 . S
O104 Dy88 2.351 1_545 S
O104 C107 1.249 . S
O105 Dy91 2.326 . S
O105 C107 1.267 1_655 S
C106 O98 1.249 . S
C106 O99 1.267 1_655 S
C107 O104 1.249 . S
C107 O105 1.267 1_455 S
Dy108 O112 2.398 . S
Dy108 O113 2.491 1_565 S
Dy108 O114 2.403 . S
Dy108 O115 2.664 . S
Dy108 O119 2.326 1_565 S
Dy108 O123 2.310 1_565 S
Dy108 O124 2.351 . S
C109 O120 1.185 . S
C109 O121 1.355 1_545 S
C110 O112 1.185 . S
C110 O113 1.355 1_565 S
Dy111 O115 2.310 1_545 S
Dy111 O118 2.351 . S
Dy111 O120 2.398 . S
Dy111 O121 2.491 1_545 S
Dy111 O122 2.403 . S
Dy111 O123 2.664 . S
Dy111 O125 2.326 1_545 S
O112 Dy108 2.398 . S
O112 C110 1.185 . S
O113 Dy108 2.491 1_545 S
O113 C110 1.355 1_545 S
O114 Dy108 2.403 . S
O114 C116 1.254 . S
O115 Dy108 2.664 . S
O115 Dy111 2.310 1_565 S
O115 C116 1.268 . S
C116 O114 1.254 . S
C116 O115 1.268 . S
C117 O122 1.254 . S
C117 O123 1.268 . S
O118 Dy111 2.351 . S
O118 C126 1.249 . S
O119 Dy108 2.326 1_545 S
O119 C126 1.267 . S
O120 C109 1.185 . S
O120 Dy111 2.398 . S
O121 C109 1.355 1_565 S
O121 Dy111 2.491 1_565 S
O122 Dy111 2.403 . S
O122 C117 1.254 . S
O123 Dy108 2.310 1_545 S
O123 Dy111 2.664 . S
O123 C117 1.268 . S
O124 Dy108 2.351 . S
O124 C127 1.249 . S
O125 Dy111 2.326 1_565 S
O125 C127 1.267 . S
C126 O118 1.249 . S
C126 O119 1.267 . S
C127 O124 1.249 . S
C127 O125 1.267 . S
Dy128 O132 2.398 . S
Dy128 O133 2.491 . S
Dy128 O134 2.403 . S
Dy128 O135 2.664 . S
Dy128 O139 2.326 . S
Dy128 O143 2.310 . S
Dy128 O144 2.351 . S
C129 O140 1.185 . S
C129 O141 1.355 . S
C130 O132 1.185 . S
C130 O133 1.355 . S
Dy131 O135 2.310 . S
Dy131 O138 2.351 . S
Dy131 O140 2.398 . S
Dy131 O141 2.491 . S
Dy131 O142 2.403 . S
Dy131 O143 2.664 . S
Dy131 O145 2.326 . S
O132 Dy128 2.398 . S
O132 C130 1.185 . S
O133 Dy128 2.491 . S
O133 C130 1.355 . S
O134 Dy128 2.403 . S
O134 C136 1.254 . S
O135 Dy128 2.664 . S
O135 Dy131 2.310 . S
O135 C136 1.268 . S
C136 O134 1.254 . S
C136 O135 1.268 . S
C137 O142 1.254 . S
C137 O143 1.268 . S
O138 Dy131 2.351 . S
O138 C146 1.249 . S
O139 Dy128 2.326 . S
O139 C146 1.267 . S
O140 C129 1.185 . S
O140 Dy131 2.398 . S
O141 C129 1.355 . S
O141 Dy131 2.491 . S
O142 Dy131 2.403 . S
O142 C137 1.254 . S
O143 Dy128 2.310 . S
O143 Dy131 2.664 . S
O143 C137 1.268 . S
O144 Dy128 2.351 . S
O144 C147 1.249 . S
O145 Dy131 2.326 . S
O145 C147 1.267 . S
C146 O138 1.249 . S
C146 O139 1.267 . S
C147 O144 1.249 . S
C147 O145 1.267 . S
Dy148 O152 2.398 . S
Dy148 O153 2.491 . S
Dy148 O154 2.403 . S
Dy148 O155 2.664 1_655 S
Dy148 O159 2.326 . S
Dy148 O163 2.310 . S
Dy148 O164 2.351 1_655 S
C149 O160 1.185 . S
C149 O161 1.355 . S
C150 O152 1.185 . S
C150 O153 1.355 . S
Dy151 O155 2.310 . S
Dy151 O158 2.351 1_455 S
Dy151 O160 2.398 . S
Dy151 O161 2.491 . S
Dy151 O162 2.403 . S
Dy151 O163 2.664 1_455 S
Dy151 O165 2.326 . S
O152 Dy148 2.398 . S
O152 C150 1.185 . S
O153 Dy148 2.491 . S
O153 C150 1.355 . S
O154 Dy148 2.403 . S
O154 C156 1.254 . S
O155 Dy148 2.664 1_455 S
O155 Dy151 2.310 . S
O155 C156 1.268 1_455 S
C156 O154 1.254 . S
C156 O155 1.268 1_655 S
C157 O162 1.254 . S
C157 O163 1.268 1_455 S
O158 Dy151 2.351 1_655 S
O158 C166 1.249 . S
O159 Dy148 2.326 . S
O159 C166 1.267 . S
O160 C149 1.185 . S
O160 Dy151 2.398 . S
O161 C149 1.355 . S
O161 Dy151 2.491 . S
O162 Dy151 2.403 . S
O162 C157 1.254 . S
O163 Dy148 2.310 . S
O163 Dy151 2.664 1_655 S
O163 C157 1.268 1_655 S
O164 Dy148 2.351 1_455 S
O164 C167 1.249 . S
O165 Dy151 2.326 . S
O165 C167 1.267 . S
C166 O158 1.249 . S
C166 O159 1.267 . S
C167 O164 1.249 . S
C167 O165 1.267 . S
C168 C169 1.369 . S
C168 C170 1.419 . S
C168 H172 0.930 . S
C169 C168 1.369 . S
C169 C178 1.429 . S
C170 C168 1.419 . S
C170 C171 1.363 . S
C170 H173 0.929 . S
C171 C170 1.363 . S
C171 C177 1.428 . S
H172 C168 0.930 . S
H173 C170 0.929 . S
S174 N175 1.613 . S
S174 N176 1.610 . S
N175 S174 1.613 . S
N175 C178 1.350 . S
N176 S174 1.610 . S
N176 C177 1.351 . S
C177 C171 1.428 . S
C177 N176 1.351 . S
C177 C178 1.434 . S
C178 C169 1.429 . S
C178 N175 1.350 . S
C178 C177 1.434 . S
C179 C180 1.369 . S
C179 C181 1.419 . S
C179 H183 0.930 . S
C180 C179 1.369 . S
C180 C189 1.429 . S
C181 C179 1.419 . S
C181 C182 1.363 . S
C181 H184 0.929 . S
C182 C181 1.363 . S
C182 C188 1.428 . S
H183 C179 0.930 . S
H184 C181 0.929 . S
S185 N186 1.613 . S
S185 N187 1.610 . S
N186 S185 1.613 . S
N186 C189 1.350 . S
N187 S185 1.610 . S
N187 C188 1.351 . S
C188 C182 1.428 . S
C188 N187 1.351 . S
C188 C189 1.434 . S
C189 C180 1.429 . S
C189 N186 1.350 . S
C189 C188 1.434 . S
C190 C191 1.369 . S
C190 C192 1.419 . S
C190 H194 0.930 . S
C191 C190 1.369 . S
C191 C200 1.429 . S
C192 C190 1.419 . S
C192 C193 1.363 . S
C192 H195 0.929 . S
C193 C192 1.363 . S
C193 C199 1.428 . S
H194 C190 0.930 . S
H195 C192 0.929 . S
S196 N197 1.613 . S
S196 N198 1.610 . S
N197 S196 1.613 . S
N197 C200 1.350 . S
N198 S196 1.610 . S
N198 C199 1.351 . S
C199 C193 1.428 . S
C199 N198 1.351 . S
C199 C200 1.434 . S
C200 C191 1.429 . S
C200 N197 1.350 . S
C200 C199 1.434 . S
C201 C202 1.363 1_655 S
C201 C203 1.419 . S
C201 H205 0.930 . S
C202 C201 1.363 1_455 S
C202 C211 1.434 . S
C203 C201 1.419 . S
C203 C204 1.380 . S
C203 H206 0.929 . S
C204 C203 1.380 . S
C204 C210 1.410 1_655 S
H205 C201 0.930 . S
H206 C203 0.929 . S
S207 N208 1.613 . S
S207 N209 1.610 . S
N208 S207 1.613 . S
N208 C211 1.350 . S
N209 S207 1.610 . S
N209 C210 1.351 . S
C210 C204 1.410 1_455 S
C210 N209 1.351 . S
C210 C211 1.434 . S
C211 C202 1.434 . S
C211 N208 1.350 . S
C211 C210 1.434 . S
C212 C213 1.369 . S
C212 C214 1.419 . S
C212 H216 0.930 . S
C213 C212 1.369 . S
C213 C222 1.429 . S
C214 C212 1.419 . S
C214 C215 1.363 . S
C214 H217 0.929 . S
C215 C214 1.363 . S
C215 C221 1.428 1_565 S
H216 C212 0.930 . S
H217 C214 0.929 . S
S218 N219 1.613 . S
S218 N220 1.610 . S
N219 S218 1.613 . S
N219 C222 1.350 1_545 S
N220 S218 1.610 . S
N220 C221 1.351 . S
C221 C215 1.428 1_545 S
C221 N220 1.351 . S
C221 C222 1.434 1_545 S
C222 C213 1.429 . S
C222 N219 1.350 1_565 S
C222 C221 1.434 1_565 S
C223 C224 1.369 . S
C223 C225 1.419 . S
C223 H227 0.930 . S
C224 C223 1.369 . S
C224 C233 1.429 1_556 S
C225 C223 1.419 . S
C225 C226 1.363 . S
C225 H228 0.929 . S
C226 C225 1.363 . S
C226 C232 1.428 . S
H227 C223 0.930 . S
H228 C225 0.929 . S
S229 N230 1.613 . S
S229 N231 1.610 1_554 S
N230 S229 1.613 . S
N230 C233 1.350 . S
N231 S229 1.610 1_556 S
N231 C232 1.351 . S
C232 C226 1.428 . S
C232 N231 1.351 . S
C232 C233 1.434 1_556 S
C233 C224 1.429 1_554 S
C233 N230 1.350 . S
C233 C232 1.434 1_554 S
C234 C235 1.369 . S
C234 C236 1.419 . S
C234 H238 0.930 1_556 S
C235 C234 1.369 . S
C235 C244 1.429 . S
C236 C234 1.419 . S
C236 C237 1.363 . S
C236 H239 0.929 . S
C237 C236 1.363 . S
C237 C243 1.428 . S
H238 C234 0.930 1_554 S
H239 C236 0.929 . S
S240 N241 1.613 . S
S240 N242 1.610 . S
N241 S240 1.613 . S
N241 C244 1.350 . S
N242 S240 1.610 . S
N242 C243 1.351 . S
C243 C237 1.428 . S
C243 N242 1.351 . S
C243 C244 1.434 . S
C244 C235 1.429 . S
C244 N241 1.350 . S
C244 C243 1.434 . S
C245 C246 1.368 1_655 S
C245 C247 1.419 . S
C245 H249 0.930 . S
C246 C245 1.368 1_455 S
C246 C255 1.431 . S
C247 C245 1.419 . S
C247 C248 1.363 1_655 S
C247 H250 0.929 . S
C248 C247 1.363 1_455 S
C248 C254 1.428 . S
H249 C245 0.930 . S
H250 C247 0.929 . S
S251 N252 1.613 . S
S251 N253 1.610 1_554 S
N252 S251 1.613 . S
N252 C255 1.350 1_554 S
N253 S251 1.610 1_556 S
N253 C254 1.351 . S
C254 C248 1.428 . S
C254 N253 1.351 . S
C254 C255 1.434 . S
C255 C246 1.431 . S
C255 N252 1.350 1_556 S
C255 C254 1.434 . S
C256 C257 1.369 1_455 S
C256 C258 1.419 . S
C256 H260 0.930 . S
C257 C256 1.369 1_655 S
C257 C266 1.429 . S
C258 C256 1.419 . S
C258 C259 1.363 1_455 S
C258 H261 0.929 . S
C259 C258 1.363 1_655 S
C259 C265 1.428 . S
H260 C256 0.930 . S
H261 C258 0.929 . S
S262 N263 1.613 . S
S262 N264 1.610 . S
N263 S262 1.613 . S
N263 C266 1.350 . S
N264 S262 1.610 . S
N264 C265 1.351 . S
C265 C259 1.428 . S
C265 N264 1.351 . S
C265 C266 1.434 . S
C266 C257 1.429 . S
C266 N263 1.350 . S
C266 C265 1.434 . S
C267 C268 1.369 . S
C267 C269 1.419 . S
C267 H271 0.930 . S
C268 C267 1.369 . S
C268 C277 1.429 . S
C269 C267 1.419 . S
C269 C270 1.363 . S
C269 H272 0.929 . S
C270 C269 1.363 . S
C270 C276 1.428 1_545 S
H271 C267 0.930 . S
H272 C269 0.929 . S
S273 N274 1.613 . S
S273 N275 1.610 . S
N274 S273 1.613 . S
N274 C277 1.350 1_565 S
N275 S273 1.610 . S
N275 C276 1.351 . S
C276 C270 1.428 1_565 S
C276 N275 1.351 . S
C276 C277 1.434 1_565 S
C277 C268 1.429 . S
C277 N274 1.350 1_545 S
C277 C276 1.434 1_545 S
C278 C279 1.369 . S
C278 C280 1.419 . S
C278 H282 0.930 . S
C279 C278 1.369 . S
C279 C288 1.429 . S
C280 C278 1.419 . S
C280 C281 1.363 . S
C280 H283 0.929 . S
C281 C280 1.363 . S
C281 C287 1.428 . S
H282 C278 0.930 . S
H283 C280 0.929 . S
S284 N285 1.613 . S
S284 N286 1.610 . S
N285 S284 1.613 . S
N285 C288 1.350 . S
N286 S284 1.610 . S
N286 C287 1.351 . S
C287 C281 1.428 . S
C287 N286 1.351 . S
C287 C288 1.434 . S
C288 C279 1.429 . S
C288 N285 1.350 . S
C288 C287 1.434 . S
C289 C290 1.369 . S
C289 C291 1.419 . S
C289 H293 0.930 . S
C290 C289 1.369 . S
C290 C299 1.429 . S
C291 C289 1.419 . S
C291 C292 1.363 . S
C291 H294 0.929 . S
C292 C291 1.363 . S
C292 C298 1.428 . S
H293 C289 0.930 . S
H294 C291 0.929 . S
S295 N296 1.613 . S
S295 N297 1.610 . S
N296 S295 1.613 . S
N296 C299 1.350 . S
N297 S295 1.610 . S
N297 C298 1.351 . S
C298 C292 1.428 . S
C298 N297 1.351 . S
C298 C299 1.434 . S
C299 C290 1.429 . S
C299 N296 1.350 . S
C299 C298 1.434 . S
C300 C301 1.369 1_554 S
C300 C302 1.419 1_554 S
C300 H304 0.933 . S
C301 C300 1.369 1_556 S
C301 C310 1.429 . S
C302 C300 1.419 1_556 S
C302 C303 1.363 . S
C302 H305 0.929 . S
C303 C302 1.363 . S
C303 C309 1.428 . S
H304 C300 0.933 . S
H305 C302 0.929 . S
S306 N307 1.613 . S
S306 N308 1.610 . S
N307 S306 1.613 . S
N307 C310 1.350 . S
N308 S306 1.610 . S
N308 C309 1.351 . S
C309 C303 1.428 . S
C309 N308 1.351 . S
C309 C310 1.434 . S
C310 C301 1.429 . S
C310 N307 1.350 . S
C310 C309 1.434 . S
C311 C312 1.369 . S
C311 C313 1.419 1_565 S
C311 H315 0.930 . S
C312 C311 1.369 . S
C312 C321 1.429 1_556 S
C313 C311 1.419 1_545 S
C313 C314 1.363 1_545 S
C313 H316 0.929 . S
C314 C313 1.363 1_565 S
C314 C320 1.428 . S
H315 C311 0.930 . S
H316 C313 0.929 . S
S317 N318 1.613 . S
S317 N319 1.610 . S
N318 S317 1.613 . S
N318 C321 1.350 . S
N319 S317 1.610 . S
N319 C320 1.351 1_554 S
C320 C314 1.428 . S
C320 N319 1.351 1_556 S
C320 C321 1.434 1_556 S
C321 C312 1.429 1_554 S
C321 N318 1.350 . S
C321 C320 1.434 1_554 S
C322 C323 1.369 1_554 S
C322 C324 1.419 1_554 S
C322 H326 0.930 . S
C323 C322 1.369 1_556 S
C323 C332 1.429 . S
C324 C322 1.419 1_556 S
C324 C325 1.363 . S
C324 H327 0.929 1_556 S
C325 C324 1.363 . S
C325 C331 1.428 . S
H326 C322 0.930 . S
H327 C324 0.929 1_554 S
S328 N329 1.613 . S
S328 N330 1.610 . S
N329 S328 1.613 . S
N329 C332 1.350 . S
N330 S328 1.610 . S
N330 C331 1.351 . S
C331 C325 1.428 . S
C331 N330 1.351 . S
C331 C332 1.434 . S
C332 C323 1.429 . S
C332 N329 1.350 . S
C332 C331 1.434 . S
C333 C334 1.369 . S
C333 C335 1.419 . S
C333 H337 0.930 . S
C334 C333 1.369 . S
C334 C343 1.429 . S
C335 C333 1.419 . S
C335 C336 1.363 . S
C335 H338 0.929 . S
C336 C335 1.363 . S
C336 C342 1.428 . S
H337 C333 0.930 . S
H338 C335 0.929 . S
S339 N340 1.613 . S
S339 N341 1.610 1_554 S
N340 S339 1.613 . S
N340 C343 1.350 1_554 S
N341 S339 1.610 1_556 S
N341 C342 1.351 . S
C342 C336 1.428 . S
C342 N341 1.351 . S
C342 C343 1.434 . S
C343 C334 1.429 . S
C343 N340 1.350 1_556 S
C343 C342 1.434 . S
C344 C345 1.369 . S
C344 C346 1.419 . S
C344 H348 0.930 . S
C345 C344 1.369 . S
C345 C354 1.429 1_455 S
C346 C344 1.419 . S
C346 C347 1.363 . S
C346 H349 0.929 . S
C347 C346 1.363 . S
C347 C353 1.428 1_455 S
H348 C344 0.930 . S
H349 C346 0.929 . S
S350 N351 1.613 . S
S350 N352 1.610 . S
N351 S350 1.613 . S
N351 C354 1.350 . S
N352 S350 1.610 . S
N352 C353 1.351 . S
C353 C347 1.428 1_655 S
C353 N352 1.351 . S
C353 C354 1.434 . S
C354 C345 1.429 1_655 S
C354 N351 1.350 . S
C354 C353 1.434 . S
C355 C356 1.369 . S
C355 C357 1.419 . S
C355 H359 0.930 . S
C356 C355 1.369 . S
C356 C365 1.429 . S
C357 C355 1.419 . S
C357 C358 1.363 . S
C357 H360 0.929 . S
C358 C357 1.363 . S
C358 C364 1.428 1_545 S
H359 C355 0.930 . S
H360 C357 0.929 . S
S361 N362 1.613 . S
S361 N363 1.610 . S
N362 S361 1.613 . S
N362 C365 1.350 1_565 S
N363 S361 1.610 . S
N363 C364 1.351 . S
C364 C358 1.428 1_565 S
C364 N363 1.351 . S
C364 C365 1.434 1_565 S
C365 C356 1.429 . S
C365 N362 1.350 1_545 S
C365 C364 1.434 1_545 S
C366 C367 1.369 . S
C366 C368 1.419 . S
C366 H370 0.930 . S
C367 C366 1.369 . S
C367 C376 1.429 . S
C368 C366 1.419 . S
C368 C369 1.363 . S
C368 H371 0.929 . S
C369 C368 1.363 . S
C369 C375 1.428 . S
H370 C366 0.930 . S
H371 C368 0.929 . S
S372 N373 1.613 1_554 S
S372 N374 1.610 1_554 S
N373 S372 1.613 1_556 S
N373 C376 1.350 . S
N374 S372 1.610 1_556 S
N374 C375 1.351 . S
C375 C369 1.428 . S
C375 N374 1.351 . S
C375 C376 1.434 . S
C376 C367 1.429 . S
C376 N373 1.350 . S
C376 C375 1.434 . S
C377 C378 1.369 . S
C377 C379 1.419 . S
C377 H381 0.930 . S
C378 C377 1.369 . S
C378 C387 1.429 . S
C379 C377 1.419 . S
C379 C380 1.363 . S
C379 H382 0.929 . S
C380 C379 1.363 . S
C380 C386 1.428 . S
H381 C377 0.930 . S
H382 C379 0.929 . S
S383 N384 1.613 . S
S383 N385 1.610 . S
N384 S383 1.613 . S
N384 C387 1.350 . S
N385 S383 1.610 . S
N385 C386 1.351 . S
C386 C380 1.428 . S
C386 N385 1.351 . S
C386 C387 1.434 . S
C387 C378 1.429 . S
C387 N384 1.350 . S
C387 C386 1.434 . S
C388 C389 1.369 . S
C388 C390 1.419 . S
C388 H392 0.930 . S
C389 C388 1.369 . S
C389 C398 1.429 1_655 S
C390 C388 1.419 . S
C390 C391 1.363 . S
C390 H393 0.929 . S
C391 C390 1.363 . S
C391 C397 1.428 1_655 S
H392 C388 0.930 . S
H393 C390 0.929 . S
S394 N395 1.613 . S
S394 N396 1.610 . S
N395 S394 1.613 . S
N395 C398 1.350 . S
N396 S394 1.610 . S
N396 C397 1.351 . S
C397 C391 1.428 1_455 S
C397 N396 1.351 . S
C397 C398 1.434 . S
C398 C389 1.429 1_455 S
C398 N395 1.350 . S
C398 C397 1.434 . S
C399 C400 1.369 . S
C399 C401 1.419 . S
C399 H403 0.930 1_565 S
C400 C399 1.369 . S
C400 C409 1.429 . S
C401 C399 1.419 . S
C401 C402 1.363 . S
C401 H404 0.929 1_565 S
C402 C401 1.363 . S
C402 C408 1.428 . S
H403 C399 0.930 1_545 S
H404 C401 0.929 1_545 S
S405 N406 1.613 . S
S405 N407 1.610 . S
N406 S405 1.613 . S
N406 C409 1.350 . S
N407 S405 1.610 . S
N407 C408 1.351 . S
C408 C402 1.428 . S
C408 N407 1.351 . S
C408 C409 1.434 . S
C409 C400 1.429 . S
C409 N406 1.350 . S
C409 C408 1.434 . S
C410 C411 1.369 . S
C410 C412 1.419 . S
C410 H414 0.930 . S
C411 C410 1.369 . S
C411 C420 1.429 . S
C412 C410 1.419 . S
C412 C413 1.363 . S
C412 H415 0.929 . S
C413 C412 1.363 . S
C413 C419 1.428 . S
H414 C410 0.930 . S
H415 C412 0.929 . S
S416 N417 1.613 . S
S416 N418 1.610 . S
N417 S416 1.613 . S
N417 C420 1.350 . S
N418 S416 1.610 . S
N418 C419 1.351 . S
C419 C413 1.428 . S
C419 N418 1.351 . S
C419 C420 1.434 . S
C420 C411 1.429 . S
C420 N417 1.350 . S
C420 C419 1.434 . S
C421 C422 1.369 . S
C421 C423 1.419 . S
C421 H425 0.930 . S
C422 C421 1.369 . S
C422 C431 1.429 . S
C423 C421 1.419 . S
C423 C424 1.363 . S
C423 H426 0.929 . S
C424 C423 1.363 . S
C424 C430 1.428 . S
H425 C421 0.930 . S
H426 C423 0.929 . S
S427 N428 1.613 . S
S427 N429 1.610 . S
N428 S427 1.613 . S
N428 C431 1.350 . S
N429 S427 1.610 . S
N429 C430 1.351 . S
C430 C424 1.428 . S
C430 N429 1.351 . S
C430 C431 1.434 . S
C431 C422 1.429 . S
C431 N428 1.350 . S
C431 C430 1.434 . S
C169 C76 1.649 . S
C171 C96 1.739 . S
C182 C126 1.802 . S
C180 C87 1.728 . S
C193 C136 1.659 . S
C191 C54 1.535 . S
C204 C156 1.539 . S
C202 C65 1.444 1_455 S
C215 C97 1.741 . S
C213 C32 1.651 . S
C224 C43 1.735 1_556 S
C226 C127 1.802 . S
C235 C10 1.534 1_556 S
C237 C137 1.659 . S
C246 C21 1.448 1_455 S
C248 C157 1.536 . S
C259 C89 1.029 . S
C257 C60 1.013 1_655 S
C270 C110 0.895 1_545 S
C268 C71 0.870 . S
C281 C129 1.161 . S
C279 C82 1.143 . S
C290 C49 0.939 . S
C292 C149 0.944 . S
C301 C16 1.011 1_556 S
C303 C90 1.029 . S
C314 C109 0.900 1_565 S
C312 C27 0.862 . S
C325 C130 1.165 . S
C323 C38 1.144 1_556 S
C334 C5 0.937 1_556 S
C336 C150 0.948 . S
C345 C59 1.543 . S
C347 C107 1.670 . S
C356 C70 1.473 . S
C358 C117 1.649 . S
C369 C147 1.849 . S
C367 C81 1.679 . S
C380 C167 1.830 . S
C378 C48 1.687 . S
C389 C15 1.544 1_655 S
C391 C106 1.671 . S
C402 C116 1.647 . S
C400 C26 1.460 . S
C413 C146 1.847 . S
C411 C37 1.687 . S
C422 C4 1.682 . S
C424 C166 1.833 . S
