# Generated by pormake.
# Topology zzz, (3,6)-cn, num edge types: 1
# Building blocks:
#     Node 0, Type 0, BuildingBlock: BELTOD_clean_linker_0, # of connection points: 3
#     Node 1, Type 0, BuildingBlock: BELTOD_clean_linker_0, # of connection points: 3
#     Node 2, Type 0, BuildingBlock: BELTOD_clean_linker_0, # of connection points: 3
#     Node 3, Type 0, BuildingBlock: BELTOD_clean_linker_0, # of connection points: 3
#     Node 4, Type 0, BuildingBlock: BELTOD_clean_linker_0, # of connection points: 3
#     Node 5, Type 0, BuildingBlock: BELTOD_clean_linker_0, # of connection points: 3
#     Node 6, Type 0, BuildingBlock: BELTOD_clean_linker_0, # of connection points: 3
#     Node 7, Type 0, BuildingBlock: BELTOD_clean_linker_0, # of connection points: 3
#     Node 8, Type 1, BuildingBlock: INOVEN_clean_sbu_0, # of connection points: 6
#     Node 9, Type 1, BuildingBlock: INOVEN_clean_sbu_0, # of connection points: 6
#     Node 10, Type 1, BuildingBlock: INOVEN_clean_sbu_0, # of connection points: 6
#     Node 11, Type 1, BuildingBlock: INOVEN_clean_sbu_0, # of connection points: 6
#     Edge 12, Type (0, 1), BuildingBlock: TEMPAE_clean_linker_10, # of connection points: 2
#     Edge 13, Type (0, 1), BuildingBlock: TEMPAE_clean_linker_10, # of connection points: 2
#     Edge 14, Type (0, 1), BuildingBlock: TEMPAE_clean_linker_10, # of connection points: 2
#     Edge 15, Type (0, 1), BuildingBlock: TEMPAE_clean_linker_10, # of connection points: 2
#     Edge 16, Type (0, 1), BuildingBlock: TEMPAE_clean_linker_10, # of connection points: 2
#     Edge 17, Type (0, 1), BuildingBlock: TEMPAE_clean_linker_10, # of connection points: 2
#     Edge 18, Type (0, 1), BuildingBlock: TEMPAE_clean_linker_10, # of connection points: 2
#     Edge 19, Type (0, 1), BuildingBlock: TEMPAE_clean_linker_10, # of connection points: 2
#     Edge 20, Type (0, 1), BuildingBlock: TEMPAE_clean_linker_10, # of connection points: 2
#     Edge 21, Type (0, 1), BuildingBlock: TEMPAE_clean_linker_10, # of connection points: 2
#     Edge 22, Type (0, 1), BuildingBlock: TEMPAE_clean_linker_10, # of connection points: 2
#     Edge 23, Type (0, 1), BuildingBlock: TEMPAE_clean_linker_10, # of connection points: 2
#     Edge 24, Type (0, 1), BuildingBlock: TEMPAE_clean_linker_10, # of connection points: 2
#     Edge 25, Type (0, 1), BuildingBlock: TEMPAE_clean_linker_10, # of connection points: 2
#     Edge 26, Type (0, 1), BuildingBlock: TEMPAE_clean_linker_10, # of connection points: 2
#     Edge 27, Type (0, 1), BuildingBlock: TEMPAE_clean_linker_10, # of connection points: 2
#     Edge 28, Type (0, 1), BuildingBlock: TEMPAE_clean_linker_10, # of connection points: 2
#     Edge 29, Type (0, 1), BuildingBlock: TEMPAE_clean_linker_10, # of connection points: 2
#     Edge 30, Type (0, 1), BuildingBlock: TEMPAE_clean_linker_10, # of connection points: 2
#     Edge 31, Type (0, 1), BuildingBlock: TEMPAE_clean_linker_10, # of connection points: 2
#     Edge 32, Type (0, 1), BuildingBlock: TEMPAE_clean_linker_10, # of connection points: 2
#     Edge 33, Type (0, 1), BuildingBlock: TEMPAE_clean_linker_10, # of connection points: 2
#     Edge 34, Type (0, 1), BuildingBlock: TEMPAE_clean_linker_10, # of connection points: 2
#     Edge 35, Type (0, 1), BuildingBlock: TEMPAE_clean_linker_10, # of connection points: 2
# Relax obj value: 0.417
# Max RMSD: 0.256
# Mean RMSD: 0.243
data_MOF--net-zzz--node1-INOVEN_clean_sbu_0--node2-BELTOD_clean_linker_0--edge1-TEMPAE_clean_linker_10
_symmetry_space_group_name_H-M    P1
_symmetry_Int_Tables_number       1
_symmetry_cell_setting            triclinic
loop_
_symmetry_equiv_pos_as_xyz
'x, y, z'
_cell_length_a     56.502488
_cell_length_b     56.555498
_cell_length_c     17.22493
_cell_angle_alpha  89.99177
_cell_angle_beta   90.044786
_cell_angle_gamma 90.048518
loop_
_atom_site_label
_atom_site_type_symbol
_atom_site_fract_x
_atom_site_fract_y
_atom_site_fract_z
_atom_type_partial_charge
P0 P 0.72559 0.48252 0.39346 0.0
H1 H 0.74122 0.50076 0.5447 0.0
H2 H 0.78088 0.51219 0.58693 0.0
H3 H 0.80279 0.51795 0.34799 0.0
H4 H 0.76294 0.5068 0.30568 0.0
H5 H 0.6831 0.45906 0.34276 0.0
H6 H 0.65415 0.46683 0.24091 0.0
H7 H 0.68984 0.53222 0.18563 0.0
H8 H 0.7191 0.5242 0.28873 0.0
H9 H 0.75767 0.44888 0.46424 0.0
H10 H 0.73359 0.46628 0.23339 0.0
O11 O 0.71189 0.47252 0.47277 0.0
H12 H 0.79418 0.43282 0.40979 0.0
H13 H 0.76967 0.4496 0.17941 0.0
C14 C 0.74885 0.50294 0.42175 0.0
C15 C 0.7541 0.50565 0.50106 0.0
C16 C 0.77695 0.51198 0.52537 0.0
C17 C 0.7951 0.51543 0.4708 0.0
C18 C 0.78924 0.51503 0.3914 0.0
C19 C 0.76629 0.50907 0.36714 0.0
C20 C 0.70312 0.49114 0.32401 0.0
C21 C 0.68457 0.47527 0.30958 0.0
C22 C 0.66811 0.47963 0.25078 0.0
C23 C 0.66975 0.50006 0.20469 0.0
C24 C 0.68803 0.51638 0.22044 0.0
C25 C 0.70476 0.51183 0.27928 0.0
C26 C 0.74291 0.45889 0.35309 0.0
C27 C 0.75939 0.44771 0.40172 0.0
C28 C 0.78028 0.43854 0.37071 0.0
C29 C 0.7845 0.44001 0.2907 0.0
C30 C 0.76651 0.44801 0.24124 0.0
C31 C 0.74582 0.45755 0.27232 0.0
P32 P 0.03598 0.7146 0.38579 0.0
H33 H 0.01376 0.72842 0.53324 0.0
H34 H 1.00134 0.76755 0.5774 0.0
H35 H 1.00323 0.79283 0.34127 0.0
H36 H 0.01481 0.75341 0.29682 0.0
H37 H 0.06005 0.67275 0.33339 0.0
H38 H 0.0516 0.6429 0.23584 0.0
H39 H 0.98438 0.67643 0.18809 0.0
H40 H 0.99361 0.70701 0.28512 0.0
H41 H 0.06907 0.74676 0.45875 0.0
H42 H 0.0541 0.72175 0.22721 0.0
O43 O 0.04522 0.70111 0.46646 0.0
H44 H 0.08846 0.78167 0.40442 0.0
H45 H 0.0741 0.75619 0.17317 0.0
C46 C 0.01531 0.73782 0.41152 0.0
C47 C 0.01032 0.74195 0.49026 0.0
C48 C 1.00341 0.76447 0.51571 0.0
C49 C 1.00177 0.78336 0.46298 0.0
C50 C 1.00458 0.77865 0.38334 0.0
C51 C 0.0109 0.75599 0.35776 0.0
C52 C 0.02739 0.69196 0.31714 0.0
C53 C 0.04335 0.67356 0.30256 0.0
C54 C 0.03837 0.65633 0.24684 0.0
C55 C 0.01713 0.6569 0.20414 0.0
C56 C 1.00098 0.6754 0.21933 0.0
C57 C 0.00612 0.69284 0.27521 0.0
C58 C 0.06017 0.73159 0.3472 0.0
C59 C 0.07126 0.74797 0.3964 0.0
C60 C 0.08222 0.76798 0.36543 0.0
C61 C 0.08262 0.77154 0.28484 0.0
C62 C 0.07422 0.75365 0.23553 0.0
C63 C 0.06282 0.73387 0.26655 0.0
P64 P 0.79872 0.03808 0.38903 0.0
H65 H 0.77948 0.03338 0.54566 0.0
H66 H 0.74013 0.02213 0.5906 0.0
H67 H 0.72363 0.99456 0.36378 0.0
H68 H 0.76298 0.00663 0.31748 0.0
H69 H 0.84626 0.05417 0.35939 0.0
H70 H 0.87702 0.04207 0.26995 0.0
H71 H 0.83488 0.98162 0.20257 0.0
H72 H 0.80365 0.99432 0.29258 0.0
H73 H 0.77082 0.07987 0.42411 0.0
H74 H 0.79152 0.04064 0.22046 0.0
O75 O 0.81104 0.05318 0.46192 0.0
H76 H 0.74127 0.10115 0.34736 0.0
H77 H 0.76208 0.06157 0.14412 0.0
C78 C 0.77463 0.02048 0.42824 0.0
C79 C 0.76791 0.0241 0.50589 0.0
C80 C 0.74525 0.01786 0.53164 0.0
C81 C 0.72885 0.00755 0.48065 0.0
C82 C 0.73605 1.00228 0.40445 0.0
C83 C 0.75869 0.0089 0.37825 0.0
C84 C 0.82273 0.02497 0.33408 0.0
C85 C 0.8438 0.03793 0.32709 0.0
C86 C 0.86152 0.03092 0.27557 0.0
C87 C 0.85866 0.01074 0.22874 0.0
C88 C 0.8377 0.99735 0.23718 0.0
C89 C 0.81986 1.00444 0.28927 0.0
C90 C 0.78355 0.05885 0.32793 0.0
C91 C 0.7697 0.07653 0.3623 0.0
C92 C 0.75274 0.08857 0.31855 0.0
C93 C 0.7493 0.08295 0.23987 0.0
C94 C 0.76454 0.06658 0.2043 0.0
C95 C 0.7814 0.05449 0.24815 0.0
P96 P 0.47031 0.78633 0.37534 0.0
H97 H 0.4786 0.77046 0.53455 0.0
H98 H 0.49044 0.73192 0.58468 0.0
H99 H 0.51309 0.7111 0.3558 0.0
H100 H 0.50048 0.74964 0.30477 0.0
H101 H 0.45233 0.83196 0.33099 0.0
H102 H 0.46404 0.86097 0.23379 0.0
H103 H 0.5266 0.82012 0.18298 0.0
H104 H 0.51463 0.79073 0.28125 0.0
H105 H 0.43629 0.75064 0.42092 0.0
H106 H 0.45773 0.78497 0.2085 0.0
O107 O 0.4561 0.79973 0.44797 0.0
H108 H 0.41594 0.72032 0.34621 0.0
H109 H 0.43626 0.75553 0.13356 0.0
C110 C 0.48895 0.76331 0.41579 0.0
C111 C 0.48697 0.7581 0.49527 0.0
C112 C 0.49351 0.73589 0.52399 0.0
C113 C 0.50247 0.71845 0.47406 0.0
C114 C 0.50637 0.72428 0.3957 0.0
C115 C 0.49946 0.74646 0.36666 0.0
C116 C 0.48275 0.80931 0.31446 0.0
C117 C 0.46888 0.82941 0.30041 0.0
C118 C 0.47545 0.84591 0.24415 0.0
C119 C 0.49614 0.84276 0.20028 0.0
C120 C 0.51061 0.82305 0.21621 0.0
C121 C 0.50382 0.80627 0.27241 0.0
C122 C 0.44878 0.7699 0.32054 0.0
C123 C 0.43574 0.75223 0.35827 0.0
C124 C 0.42395 0.73494 0.31529 0.0
C125 C 0.42481 0.73523 0.23367 0.0
C126 C 0.43572 0.75449 0.19633 0.0
C127 C 0.44791 0.77151 0.23937 0.0
P128 P 0.29795 0.45676 0.02933 0.0
H129 H 0.28083 0.45165 0.8713 0.0
H130 H 0.24451 0.46408 0.81201 0.0
H131 H 0.23392 0.51472 0.99717 0.0
H132 H 0.26951 0.50008 0.06048 0.0
H133 H 0.34308 0.43649 0.07229 0.0
H134 H 0.37317 0.44673 0.16682 0.0
H135 H 0.33546 0.51103 0.221 0.0
H136 H 0.30558 0.50102 0.12297 0.0
H137 H 0.26651 0.41705 1.00145 0.0
H138 H 0.27992 0.46714 0.18507 0.0
O139 O 0.3097 0.4362 0.97144 0.0
H140 H 0.22673 0.41046 0.05186 0.0
H141 H 0.24031 0.46094 0.23476 0.0
C142 C 0.27864 0.47517 0.97013 0.0
C143 C 0.2713 0.46607 0.89819 0.0
C144 C 0.25007 0.47333 0.86382 0.0
C145 C 0.2355 0.49047 0.89919 0.0
C146 C 0.24397 0.50105 0.96827 0.0
C147 C 0.265 0.49321 0.00383 0.0
C148 C 0.32198 0.46803 0.08922 0.0
C149 C 0.34142 0.45313 0.10279 0.0
C150 C 0.35859 0.45886 0.1581 0.0
C151 C 0.35667 0.47953 0.20294 0.0
C152 C 0.33764 0.495 0.18742 0.0
C153 C 0.32045 0.48928 0.13115 0.0
C154 C 0.27623 0.44262 0.08933 0.0
C155 C 0.26144 0.42564 0.0551 0.0
C156 C 0.23857 0.4221 0.08336 0.0
C157 C 0.23025 0.43558 0.14611 0.0
C158 C 0.2462 0.4502 0.18643 0.0
C159 C 0.26903 0.45375 0.158 0.0
P160 P 0.05628 0.26797 0.12408 0.0
H161 H 0.08452 0.24565 1.002 0.0
H162 H 0.07422 0.21449 0.91142 0.0
H163 H 0.99999 0.22795 0.95211 0.0
H164 H 0.01059 0.25888 0.04509 0.0
H165 H 0.08586 0.29815 0.21805 0.0
H166 H 0.08026 0.33685 0.27354 0.0
H167 H 0.01767 0.34661 0.13275 0.0
H168 H 0.0234 0.30689 0.07724 0.0
H169 H 0.06 0.22327 0.20596 0.0
H170 H 0.00975 0.28048 0.18987 0.0
O171 O 0.0839 0.25934 0.14403 0.0
H172 H 0.0316 0.20035 0.28092 0.0
H173 H 0.98137 0.25774 0.26589 0.0
C174 C 0.0484 0.25458 0.03171 0.0
C175 C 0.06598 0.2426 0.98968 0.0
C176 C 0.06 0.22455 0.93746 0.0
C177 C 0.0362 0.21808 0.92535 0.0
C178 C 0.01853 0.23188 0.96137 0.0
C179 C 0.02458 0.24995 0.01384 0.0
C180 C 0.05525 0.29954 0.14239 0.0
C181 C 0.07135 0.30879 0.1965 0.0
C182 C 0.0681 0.33119 0.22861 0.0
C183 C 0.04847 0.34511 0.20809 0.0
C184 C 0.0329 0.33635 0.1506 0.0
C185 C 0.0363 0.31375 0.11795 0.0
C186 C 0.03726 0.25378 0.19353 0.0
C187 C 0.04318 0.23125 0.22079 0.0
C188 C 0.02691 0.21818 0.26385 0.0
C189 C 1.00428 0.22734 0.27971 0.0
C190 C 0.99866 0.25026 0.25453 0.0
C191 C 0.01502 0.26336 0.21158 0.0
P192 P 0.22408 0.05709 0.0305 0.0
H193 H 0.24 0.05745 0.8687 0.0
H194 H 0.27706 0.04438 0.81079 0.0
H195 H 0.2936 0.00546 0.01942 0.0
H196 H 0.25615 0.0184 0.07696 0.0
H197 H 0.18274 0.07965 0.09271 0.0
H198 H 0.15106 0.06663 0.17861 0.0
H199 H 0.17699 0.99504 0.16559 0.0
H200 H 0.20936 0.00837 0.07944 0.0
H201 H 0.25837 0.09563 0.02724 0.0
H202 H 0.2312 0.04578 0.19452 0.0
O203 O 0.21465 0.07867 0.97203 0.0
H204 H 0.29103 0.10517 0.11516 0.0
H205 H 0.26371 0.05466 0.28095 0.0
C206 C 0.24502 0.03889 0.9774 0.0
C207 C 0.25105 0.04534 0.9012 0.0
C208 C 0.27255 0.03814 0.86836 0.0
C209 C 0.28867 0.02429 0.91094 0.0
C210 C 0.28167 0.01609 0.98474 0.0
C211 C 0.26008 0.02334 0.01761 0.0
C212 C 0.19822 0.04495 0.07835 0.0
C213 C 0.18137 0.06101 0.10648 0.0
C214 C 0.16334 0.05361 0.15621 0.0
C215 C 0.16158 0.02986 0.17902 0.0
C216 C 0.17786 0.01344 0.14841 0.0
C217 C 0.19627 0.021 0.09903 0.0
C218 C 0.24224 0.07016 0.10452 0.0
C219 C 0.25887 0.08747 0.0841 0.0
C220 C 0.27762 0.09276 0.13414 0.0
C221 C 0.28013 0.08052 0.20476 0.0
C222 C 0.26221 0.06473 0.22769 0.0
C223 C 0.24351 0.05953 0.17784 0.0
P224 P 0.44864 0.2185 0.03955 0.0
H225 H 0.45505 0.23252 0.87743 0.0
H226 H 0.46933 0.26959 0.82278 0.0
H227 H 0.49914 0.28855 0.04499 0.0
H228 H 0.48506 0.25108 0.09931 0.0
H229 H 0.42368 0.1812 0.11764 0.0
H230 H 0.43513 0.15017 0.2076 0.0
H231 H 0.50815 0.17243 0.18999 0.0
H232 H 0.49616 0.20425 0.10055 0.0
H233 H 0.41248 0.25253 0.99679 0.0
H234 H 0.4488 0.23054 0.20489 0.0
O235 O 0.43111 0.20634 0.9725 0.0
H236 H 0.40247 0.2901 0.0585 0.0
H237 H 0.4389 0.26779 0.26646 0.0
C238 C 0.46907 0.23872 0.99262 0.0
C239 C 0.46557 0.24405 0.91384 0.0
C240 C 0.47341 0.26556 0.88279 0.0
C241 C 0.48492 0.28235 0.92983 0.0
C242 C 0.49039 0.27605 0.00692 0.0
C243 C 0.48253 0.25444 0.03796 0.0
C244 C 0.45907 0.19487 0.10162 0.0
C245 C 0.44222 0.17929 0.13243 0.0
C246 C 0.44886 0.16139 0.18377 0.0
C247 C 0.47266 0.15843 0.20577 0.0
C248 C 0.48964 0.17417 0.17474 0.0
C249 C 0.48288 0.19229 0.12315 0.0
C250 C 0.43134 0.23872 0.09622 0.0
C251 C 0.41711 0.25519 0.0572 0.0
C252 C 0.41156 0.27674 0.09226 0.0
C253 C 0.4202 0.282 0.1668 0.0
C254 C 0.4318 0.2642 0.20921 0.0
C255 C 0.43749 0.24276 0.1739 0.0
Gd256 Gd 0.02388 0.99506 0.75173 0.0
Gd257 Gd 0.99044 0.00839 0.63077 0.0
C258 C 1.0022 0.95275 0.65765 0.0
C259 C 0.04708 0.98765 0.87896 0.0
C260 C 0.05311 0.96667 0.92537 0.0
C261 C 0.07639 0.96358 0.95171 0.0
C262 C 0.03615 0.94914 0.94068 0.0
C263 C 0.06592 0.92528 0.00634 0.0
C264 C 0.04246 0.92874 0.98124 0.0
C265 C 0.08278 0.94304 0.99172 0.0
C266 C 0.04393 0.99607 0.60884 0.0
C267 C 0.01359 0.0514 0.71995 0.0
C268 C 0.96398 0.01546 0.51053 0.0
C269 C 0.95082 0.03635 0.4853 0.0
C270 C 0.94254 0.03818 0.4089 0.0
C271 C 0.94892 0.05573 0.53556 0.0
C272 C 0.93414 0.07992 0.42971 0.0
C273 C 0.94063 0.07733 0.50809 0.0
C274 C 0.9341 0.05985 0.38127 0.0
C275 C 0.97139 0.00793 0.77476 0.0
O276 O 0.01065 0.95844 0.72653 0.0
O277 O 0.99631 0.96939 0.60743 0.0
O278 O 0.05719 0.98897 0.811 0.0
O279 O 0.02477 0.99383 0.87728 0.0
O280 O 0.04836 0.9803 0.66146 0.0
O281 O 0.02941 0.01119 0.63474 0.0
O282 O 1.00219 0.04553 0.65592 0.0
O283 O 0.02191 0.03494 0.7673 0.0
O284 O 0.95633 0.00549 0.57414 0.0
O285 O 0.987 0.01791 0.50955 0.0
O286 O 0.96763 0.02426 0.72362 0.0
O287 O 0.98503 0.99226 0.74749 0.0
H288 H 0.08974 0.97687 0.94004 0.0
H289 H 0.01806 0.95104 0.9207 0.0
H290 H 0.0289 0.91568 0.99289 0.0
H291 H 0.10103 0.94086 0.00954 0.0
H292 H 0.94382 0.02329 0.36955 0.0
H293 H 0.9553 0.05459 0.59478 0.0
H294 H 0.94128 0.09243 0.54672 0.0
H295 H 0.929 0.06128 0.3208 0.0
Gd296 Gd 0.51479 0.01624 0.76814 0.0
Gd297 Gd 0.50266 0.98593 0.63639 0.0
C298 C 0.55718 0.99755 0.65295 0.0
C299 C 0.53222 0.0359 0.89124 0.0
C300 C 0.55473 0.04699 0.91297 0.0
C301 C 0.55561 0.06236 0.97665 0.0
C302 C 0.57549 0.04208 0.87138 0.0
C303 C 0.59817 0.06646 0.96057 0.0
C304 C 0.59706 0.05167 0.89513 0.0
C305 C 0.57719 0.0721 1.00026 0.0
C306 C 0.50135 0.04071 0.63981 0.0
C307 C 0.46089 0.00588 0.74699 0.0
C308 C 0.48229 0.96989 0.51369 0.0
C309 C 0.46155 0.97997 0.47317 0.0
C310 C 0.43854 0.97264 0.49296 0.0
C311 C 0.46441 0.99946 0.42325 0.0
C312 C 0.422 0.00594 0.42247 0.0
C313 C 0.44483 0.01234 0.3985 0.0
C314 C 0.41891 0.98553 0.46779 0.0
C315 C 0.51527 0.96107 0.7646 0.0
O316 O 0.55131 0.00674 0.72099 0.0
O317 O 0.54089 0.98952 0.60499 0.0
O318 O 0.51956 0.04732 0.84012 0.0
O319 O 0.53288 0.01311 0.87836 0.0
O320 O 0.49538 0.04639 0.70994 0.0
O321 O 0.51471 0.02288 0.64107 0.0
O322 O 0.46726 1.00155 0.67446 0.0
O323 O 0.47724 0.00844 0.80089 0.0
O324 O 0.47831 0.96113 0.58275 0.0
O325 O 0.50155 0.98269 0.51141 0.0
O326 O 0.52079 0.95508 0.69419 0.0
O327 O 0.50243 0.97931 0.7634 0.0
H328 H 0.5397 0.06642 0.0091 0.0
H329 H 0.57513 0.03049 0.82155 0.0
H330 H 0.61294 0.04719 0.86316 0.0
H331 H 0.57761 0.08326 0.05135 0.0
H332 H 0.43574 0.95766 0.53108 0.0
H333 H 0.48184 0.0055 0.40612 0.0
H334 H 0.44756 0.02762 0.36174 0.0
H335 H 0.40143 0.98014 0.48654 0.0
Gd336 Gd 0.49669 0.50855 0.78778 0.0
Gd337 Gd 0.52559 0.49364 0.63841 0.0
C338 C 0.51247 0.54848 0.66198 0.0
C339 C 0.48475 0.52223 0.92469 0.0
C340 C 0.46876 0.54027 0.95571 0.0
C341 C 0.46064 0.53856 0.03227 0.0
C342 C 0.4618 0.55945 0.9095 0.0
C343 C 0.44041 0.57632 0.01871 0.0
C344 C 0.44781 0.57737 0.9408 0.0
C345 C 0.4465 0.55643 0.06359 0.0
C346 C 0.46718 0.50336 0.66226 0.0
C347 C 0.50482 0.45323 0.75512 0.0
C348 C 0.53878 0.47472 0.50977 0.0
C349 C 0.5282 0.45542 0.4637 0.0
C350 C 0.52606 0.43251 0.49459 0.0
C351 C 0.51769 0.4605 0.39169 0.0
C352 C 0.50129 0.42084 0.38583 0.0
C353 C 0.50419 0.44341 0.35332 0.0
C354 C 0.51276 0.41538 0.45593 0.0
C355 C 0.55166 0.5075 0.76295 0.0
O356 O 0.50738 0.54384 0.7357 0.0
O357 O 0.51731 0.53162 0.61106 0.0
O358 O 0.47446 0.50451 0.88907 0.0
O359 O 0.50356 0.53024 0.88834 0.0
O360 O 0.45994 0.5097 0.73063 0.0
O361 O 0.4891 0.50046 0.66693 0.0
O362 O 0.5109 0.45871 0.68288 0.0
O363 O 0.50144 0.46967 0.80856 0.0
O364 O 0.54811 0.46899 0.57694 0.0
O365 O 0.52617 0.49412 0.51291 0.0
O366 O 0.55791 0.511 0.69126 0.0
O367 O 0.53285 0.49549 0.76438 0.0
H368 H 0.46564 0.52367 0.0683 0.0
H369 H 0.46777 0.56089 0.84989 0.0
H370 H 0.44376 0.59258 0.90494 0.0
H371 H 0.44084 0.55498 0.12347 0.0
H372 H 0.53398 0.42797 0.54984 0.0
H373 H 0.51922 0.47799 0.36649 0.0
H374 H 0.49577 0.44791 0.29876 0.0
H375 H 0.51076 0.3981 0.48231 0.0
Gd376 Gd 0.01041 0.49355 0.75363 0.0
Gd377 Gd 0.0231 0.52437 0.60451 0.0
C378 C 0.96731 0.51204 0.64394 0.0
C379 C 1.00167 0.48023 0.894 0.0
C380 C 0.98184 0.47861 0.94826 0.0
C381 C 0.98134 0.45965 1.00051 0.0
C382 C 0.96229 0.49375 0.94263 0.0
C383 C 0.94111 0.46972 0.03737 0.0
C384 C 0.94212 0.48943 0.98738 0.0
C385 C 0.96115 0.45518 0.04455 0.0
C386 C 0.02164 0.46532 0.62972 0.0
C387 C 0.06527 0.50454 0.71125 0.0
C388 C 0.03054 0.53646 0.46226 0.0
C389 C 0.04677 0.52549 0.40654 0.0
C390 C 0.04983 0.53459 0.33147 0.0
C391 C 0.0593 0.50527 0.42933 0.0
C392 C 0.07769 0.50299 0.30269 0.0
C393 C 0.07435 0.49392 0.3776 0.0
C394 C 0.0655 0.52352 0.27988 0.0
C395 C 0.01902 0.54859 0.73891 0.0
O396 O 0.97346 0.50035 0.7079 0.0
O397 O 0.98304 0.52264 0.59819 0.0
O398 O 0.99989 0.46631 0.83367 0.0
O399 O 0.00988 0.50132 0.87706 0.0
O400 O 0.01554 0.45728 0.69722 0.0
O401 O 0.02168 0.48745 0.63444 0.0
O402 O 0.05897 0.51043 0.63969 0.0
O403 O 0.04964 0.50013 0.7666 0.0
O404 O 0.04073 0.54706 0.52106 0.0
O405 O 0.01291 0.52293 0.48352 0.0
O406 O 0.03228 0.55531 0.68138 0.0
O407 O 0.00664 0.53103 0.71867 0.0
H408 H 0.99624 0.44766 0.00474 0.0
H409 H 0.96233 0.50837 0.90199 0.0
H410 H 0.92713 0.50123 0.98155 0.0
H411 H 0.96093 0.4397 0.08155 0.0
H412 H 0.04034 0.55027 0.31318 0.0
H413 H 0.05744 0.49822 0.48744 0.0
H414 H 0.08396 0.47842 0.39693 0.0
H415 H 0.06816 0.53094 0.22255 0.0
C416 C 0.14331 0.03522 0.30996 0.0
C417 C 0.14381 0.02308 0.23898 0.0
C418 C 0.12625 0.03007 0.36683 0.0
C419 C 0.10879 0.01263 0.35211 0.0
C420 C 0.10915 1.00031 0.28027 0.0
C421 C 0.12683 0.00549 0.2249 0.0
C422 C 0.12704 0.04324 0.44307 0.0
C423 C 0.09068 0.98187 0.26154 0.0
C424 C 0.0797 0.98549 0.53083 0.0
C425 C 0.05929 0.99939 0.53951 0.0
C426 C 0.09557 0.9892 0.46916 0.0
C427 C 0.09077 0.00696 0.41334 0.0
C428 C 0.06967 0.02042 0.41997 0.0
C429 C 0.05431 0.01666 0.48341 0.0
C430 C 0.118 0.97473 0.46565 0.0
C431 C 0.06358 0.03918 0.36097 0.0
H432 H 0.15651 0.04873 0.32121 0.0
H433 H 0.12704 0.99622 0.16982 0.0
H434 H 0.11028 0.05307 0.45189 0.0
H435 H 0.12879 0.03052 0.49179 0.0
H436 H 0.14199 0.05598 0.44597 0.0
H437 H 0.09299 0.97431 0.20248 0.0
H438 H 0.09151 0.96728 0.30447 0.0
H439 H 0.07275 0.98977 0.26566 0.0
H440 H 0.08371 0.97207 0.57379 0.0
H441 H 0.03851 0.02736 0.48943 0.0
H442 H 0.13358 0.9865 0.4727 0.0
H443 H 0.11964 0.96603 0.40822 0.0
H444 H 0.11865 0.96092 0.51148 0.0
H445 H 0.07649 0.05391 0.36493 0.0
H446 H 0.04551 0.04644 0.36981 0.0
H447 H 0.06478 0.03182 0.30139 0.0
C448 C 0.49593 0.14345 0.32131 0.0
C449 C 0.47919 0.13937 0.26244 0.0
C450 C 0.50048 0.12635 0.37898 0.0
C451 C 0.48788 0.10464 0.37855 0.0
C452 C 0.47152 0.10014 0.318 0.0
C453 C 0.46758 0.11737 0.26054 0.0
C454 C 0.51825 0.13183 0.44194 0.0
C455 C 0.4577 0.07733 0.31483 0.0
C456 C 0.51053 0.0533 0.50301 0.0
C457 C 0.49715 0.056 0.57101 0.0
C458 C 0.50769 0.06888 0.43973 0.0
C459 C 0.49075 0.08733 0.44395 0.0
C460 C 0.4766 0.0895 0.51152 0.0
C461 C 0.48013 0.07399 0.57434 0.0
C462 C 0.52319 0.06592 0.36911 0.0
C463 C 0.45781 0.10837 0.51775 0.0
H464 H 0.50491 0.16036 0.32403 0.0
H465 H 0.45506 0.11367 0.21442 0.0
H466 H 0.50905 0.13328 0.49862 0.0
H467 H 0.53129 0.11726 0.44696 0.0
H468 H 0.52791 0.14861 0.43088 0.0
H469 H 0.44415 0.07732 0.26807 0.0
H470 H 0.46997 0.06235 0.30492 0.0
H471 H 0.44875 0.07421 0.37109 0.0
H472 H 0.52367 0.03937 0.5 0.0
H473 H 0.46955 0.07599 0.62639 0.0
H474 H 0.53387 0.08216 0.36002 0.0
H475 H 0.51209 0.06345 0.31662 0.0
H476 H 0.53537 0.05059 0.37451 0.0
H477 H 0.46612 0.12612 0.51478 0.0
H478 H 0.44759 0.10707 0.57267 0.0
H479 H 0.44531 0.10696 0.46822 0.0
C480 C 0.38171 0.46519 0.31458 0.0
C481 C 0.37382 0.48402 0.26788 0.0
C482 C 0.39769 0.46882 0.37608 0.0
C483 C 0.40605 0.49191 0.39231 0.0
C484 C 0.39839 0.511 0.34513 0.0
C485 C 0.38235 0.50686 0.28377 0.0
C486 C 0.40538 0.44792 0.42448 0.0
C487 C 0.4072 0.53582 0.35949 0.0
C488 C 0.42734 0.50337 0.5992 0.0
C489 C 0.45195 0.50094 0.59223 0.0
C490 C 0.41231 0.50086 0.53455 0.0
C491 C 0.42208 0.49605 0.46047 0.0
C492 C 0.447 0.49413 0.45275 0.0
C493 C 0.4616 0.49633 0.51884 0.0
C494 C 0.3859 0.50299 0.54584 0.0
C495 C 0.4583 0.48927 0.37507 0.0
H496 H 0.37502 0.44752 0.30404 0.0
H497 H 0.3767 0.52149 0.24765 0.0
H498 H 0.42494 0.44631 0.42329 0.0
H499 H 0.40011 0.45065 0.48586 0.0
H500 H 0.39756 0.43103 0.40376 0.0
H501 H 0.40018 0.54863 0.31636 0.0
H502 H 0.40191 0.54168 0.41843 0.0
H503 H 0.42682 0.53619 0.35723 0.0
H504 H 0.41973 0.50697 0.65573 0.0
H505 H 0.48056 0.49442 0.51297 0.0
H506 H 0.37718 0.48606 0.53006 0.0
H507 H 0.37866 0.51684 0.5069 0.0
H508 H 0.38113 0.50744 0.60665 0.0
H509 H 0.4564 0.47022 0.36119 0.0
H510 H 0.47741 0.49379 0.37517 0.0
H511 H 0.4495 0.49942 0.32812 0.0
C512 C 0.02024 0.37262 0.27699 0.0
C513 C 0.0434 0.36728 0.25302 0.0
C514 C 0.01575 0.39083 0.33085 0.0
C515 C 0.03487 0.40392 0.36244 0.0
C516 C 0.05811 0.39953 0.33536 0.0
C517 C 0.06203 0.38156 0.28036 0.0
C518 C 0.99069 0.39489 0.35798 0.0
C519 C 0.07902 0.41281 0.36836 0.0
C520 C 0.02343 0.4593 0.48467 0.0
C521 C 0.02542 0.45032 0.56017 0.0
C522 C 0.02643 0.44452 0.41941 0.0
C523 C 0.03109 0.42009 0.43016 0.0
C524 C 0.03272 0.41095 0.50657 0.0
C525 C 0.0299 0.42614 0.57034 0.0
C526 C 0.02425 0.45498 0.33915 0.0
C527 C 0.03749 0.38504 0.52116 0.0
H528 H 0.00567 0.3617 0.25721 0.0
H529 H 0.07995 0.37808 0.2611 0.0
H530 H 0.98874 0.38828 0.41829 0.0
H531 H 0.98652 0.41405 0.35858 0.0
H532 H 0.97756 0.38567 0.32069 0.0
H533 H 0.09591 0.4079 0.33977 0.0
H534 H 0.07624 0.43213 0.36252 0.0
H535 H 0.08073 0.40898 0.43128 0.0
H536 H 0.01906 0.47773 0.47662 0.0
H537 H 0.03121 0.41903 0.62865 0.0
H538 H 0.0084 0.4476 0.30984 0.0
H539 H 0.03983 0.45011 0.30352 0.0
H540 H 0.02266 0.47455 0.34043 0.0
H541 H 0.02364 0.37411 0.49283 0.0
H542 H 0.03787 0.38067 0.58403 0.0
H543 H 0.05472 0.37996 0.49529 0.0
C544 C 0.90101 0.00914 0.18192 0.0
C545 C 0.87681 0.00505 0.16796 0.0
C546 C 0.91789 0.0073 0.12214 0.0
C547 C 0.91058 1.00092 0.04629 0.0
C548 C 0.88645 0.99535 0.03287 0.0
C549 C 0.86989 0.99757 0.09355 0.0
C550 C 0.94337 0.01345 0.13939 0.0
C551 C 0.87785 0.98828 0.95319 0.0
C552 C 0.94412 0.02555 0.87241 0.0
C553 C 0.9574 0.00604 0.84753 0.0
C554 C 0.92933 0.02418 0.93777 0.0
C555 C 0.92749 1.00266 0.97943 0.0
C556 C 0.94129 0.98298 0.95565 0.0
C557 C 0.9562 0.98494 0.89015 0.0
C558 C 0.91531 0.04575 0.96137 0.0
C559 C 0.93982 0.95969 0.9981 0.0
H560 H 0.90675 0.01443 0.23942 0.0
H561 H 0.85131 0.99454 0.08145 0.0
H562 H 0.95533 0.99947 0.11715 0.0
H563 H 0.9481 0.03013 0.10926 0.0
H564 H 0.94665 0.01579 0.20254 0.0
H565 H 0.85925 0.98188 0.95408 0.0
H566 H 0.87893 1.0037 0.91352 0.0
H567 H 0.88926 0.97417 0.92873 0.0
H568 H 0.94509 0.04198 0.84012 0.0
H569 H 0.96643 0.96979 0.8712 0.0
H570 H 0.91901 0.05024 0.0229 0.0
H571 H 0.8961 0.04198 0.95657 0.0
H572 H 0.91947 0.06141 0.92488 0.0
H573 H 0.94313 0.96233 0.06098 0.0
H574 H 0.95269 0.94655 0.9755 0.0
H575 H 0.92171 0.9523 0.99214 0.0
C576 C 0.48378 0.86522 0.08179 0.0
C577 C 0.50152 0.85947 0.13563 0.0
C578 C 0.48781 0.88172 0.02229 0.0
C579 C 0.51008 0.89312 0.01668 0.0
C580 C 0.52819 0.88723 0.07043 0.0
C581 C 0.52376 0.87031 0.12887 0.0
C582 C 0.46812 0.88705 0.9656 0.0
C583 C 0.55206 0.89916 0.06713 0.0
C584 C 0.5239 0.92103 0.82027 0.0
C585 C 0.51635 0.94442 0.83127 0.0
C586 C 0.52272 0.90434 0.88077 0.0
C587 C 0.51411 0.91125 0.95461 0.0
C588 C 0.50751 0.93515 0.96697 0.0
C589 C 0.50855 0.95139 0.90506 0.0
C590 C 0.52968 0.87905 0.86458 0.0
C591 C 0.49857 0.9434 0.04493 0.0
H592 H 0.46665 0.85668 0.08615 0.0
H593 H 0.53747 0.86603 0.17061 0.0
H594 H 0.46312 0.90597 0.96964 0.0
H595 H 0.47423 0.88382 0.90533 0.0
H596 H 0.4521 0.87613 0.97639 0.0
H597 H 0.56437 0.8924 0.11228 0.0
H598 H 0.56022 0.89644 0.00926 0.0
H599 H 0.54991 0.9185 0.0752 0.0
H600 H 0.52999 0.91551 0.76343 0.0
H601 H 0.50282 0.96947 0.91408 0.0
H602 H 0.51383 0.86751 0.86877 0.0
H603 H 0.54257 0.87278 0.90857 0.0
H604 H 0.53758 0.87685 0.80598 0.0
H605 H 0.48122 0.93502 0.05732 0.0
H606 H 0.49638 0.9629 0.04732 0.0
H607 H 0.51096 0.93791 0.09159 0.0
C608 C 0.64777 0.48472 0.08852 0.0
C609 C 0.65279 0.50355 0.13905 0.0
C610 C 0.63113 0.48704 0.0283 0.0
C611 C 0.61889 0.50869 0.01832 0.0
C612 C 0.62401 0.52788 0.06869 0.0
C613 C 0.64102 0.52514 0.12807 0.0
C614 C 0.62659 0.46622 0.97542 0.0
C615 C 0.61123 0.55116 0.06064 0.0
C616 C 0.59125 0.51819 0.81854 0.0
C617 C 0.568 0.51022 0.8301 0.0
C618 C 0.60777 0.51855 0.87977 0.0
C619 C 0.60084 0.51101 0.95488 0.0
C620 C 0.57706 0.50395 0.96759 0.0
C621 C 0.56098 0.5035 0.90502 0.0
C622 C 0.63292 0.52605 0.86323 0.0
C623 C 0.56879 0.49606 0.04676 0.0
H624 H 0.65701 0.46808 0.09592 0.0
H625 H 0.64468 0.5397 0.1672 0.0
H626 H 0.60778 0.46074 0.97959 0.0
H627 H 0.62993 0.47133 0.9142 0.0
H628 H 0.63791 0.45078 0.98986 0.0
H629 H 0.61736 0.56443 0.10378 0.0
H630 H 0.61391 0.55845 1.0015 0.0
H631 H 0.59193 0.54841 0.06827 0.0
H632 H 0.59682 0.52345 0.76084 0.0
H633 H 0.54302 0.49739 0.91446 0.0
H634 H 0.64494 0.51072 0.87095 0.0
H635 H 0.6386 0.53989 0.90488 0.0
H636 H 0.6351 0.53296 0.80329 0.0
H637 H 0.57761 0.47921 0.06252 0.0
H638 H 0.54932 0.49333 0.04888 0.0
H639 H 0.57377 0.50933 0.09132 0.0
C640 C 0.02064 0.61539 0.15129 0.0
C641 C 0.01272 0.63881 0.14203 0.0
C642 C 0.01963 0.599 0.08991 0.0
C643 C 0.01006 0.60594 0.0174 0.0
C644 C 1.00059 0.62901 0.00916 0.0
C645 C 1.00217 0.64518 0.07118 0.0
C646 C 0.03003 0.57466 0.10153 0.0
C647 C 0.98986 0.63706 0.93337 0.0
C648 C 0.03446 0.57833 0.83257 0.0
C649 C 0.01683 0.56198 0.8126 0.0
C650 C 0.03263 0.59226 0.89975 0.0
C651 C 0.01243 0.59015 0.94798 0.0
C652 C 0.99466 0.57338 0.92872 0.0
C653 C 0.99715 0.55936 0.86142 0.0
C654 C 0.05227 0.60946 0.91864 0.0
C655 C 0.97276 0.57068 0.97796 0.0
H656 H 0.02824 0.60995 0.20623 0.0
H657 H 0.99608 0.66315 0.06271 0.0
H658 H 0.01749 0.56086 0.08147 0.0
H659 H 0.04635 0.57292 0.06619 0.0
H660 H 0.0346 0.57117 0.16323 0.0
H661 H 0.98064 0.65432 0.93907 0.0
H662 H 1.00398 0.6389 0.88906 0.0
H663 H 0.97706 0.62372 0.9116 0.0
H664 H 0.0498 0.58029 0.79532 0.0
H665 H 0.98343 0.5468 0.84597 0.0
H666 H 0.05909 0.6061 0.97805 0.0
H667 H 0.04536 0.62781 0.91753 0.0
H668 H 0.06726 0.60823 0.87711 0.0
H669 H 0.97767 0.56761 0.03949 0.0
H670 H 0.96135 0.55585 0.95807 0.0
H671 H 0.96231 0.58727 0.9759 0.0
C672 C 0.96357 0.20996 0.28013 0.0
C673 C 0.98604 0.21179 0.31445 0.0
C674 C 0.94813 0.19155 0.30049 0.0
C675 C 0.95559 0.17452 0.35536 0.0
C676 C 0.97719 0.17775 0.39588 0.0
C677 C 0.99213 0.19645 0.37505 0.0
C678 C 0.92486 0.18919 0.25819 0.0
C679 C 0.98565 0.16021 0.456 0.0
C680 C 0.92241 0.1226 0.43903 0.0
C681 C 0.93265 0.10406 0.39654 0.0
C682 C 0.92767 0.14625 0.42131 0.0
C683 C 0.94361 0.15124 0.36022 0.0
C684 C 0.95161 0.13274 0.31146 0.0
C685 C 0.94595 0.10936 0.33013 0.0
C686 C 0.91801 0.16555 0.47266 0.0
C687 C 0.96843 0.13731 0.24494 0.0
H688 H 0.9587 0.22183 0.23336 0.0
H689 H 0.00924 0.19823 0.403 0.0
H690 H 0.92695 0.1767 0.20902 0.0
H691 H 0.91088 0.18208 0.29697 0.0
H692 H 0.9189 0.20645 0.23435 0.0
H693 H 1.00161 0.16655 0.48745 0.0
H694 H 0.97151 0.15661 0.49903 0.0
H695 H 0.99003 0.14321 0.42722 0.0
H696 H 0.91168 0.11859 0.48951 0.0
H697 H 0.95399 0.0952 0.29699 0.0
H698 H 0.91479 0.18203 0.4393 0.0
H699 H 0.93106 0.16961 0.51894 0.0
H700 H 0.90125 0.16 0.50103 0.0
H701 H 0.96193 0.15202 0.20815 0.0
H702 H 0.97085 0.12145 0.20775 0.0
H703 H 0.98598 0.14258 0.26833 0.0
C704 C 0.32411 0.07759 0.20373 0.0
C705 C 0.30312 0.08015 0.24644 0.0
C706 C 0.34499 0.06997 0.23957 0.0
C707 C 0.34476 0.06463 0.31977 0.0
C708 C 0.32447 0.06978 0.36473 0.0
C709 C 0.30384 0.07761 0.32745 0.0
C710 C 0.36647 0.06515 0.18989 0.0
C711 C 0.32377 0.06478 0.45077 0.0
C712 C 0.38106 0.01069 0.37073 0.0
C713 C 0.40159 0.02091 0.40131 0.0
C714 C 0.36215 0.02482 0.34632 0.0
C715 C 0.36389 0.04976 0.35264 0.0
C716 C 0.38427 0.06014 0.38602 0.0
C717 C 0.40287 0.04552 0.41028 0.0
C718 C 0.34059 0.01306 0.31145 0.0
C719 C 0.38686 0.0866 0.39364 0.0
H720 H 0.32379 0.07941 0.1411 0.0
H721 H 0.2878 0.08007 0.36097 0.0
H722 H 0.38282 0.0714 0.21907 0.0
H723 H 0.36824 0.0458 0.18083 0.0
H724 H 0.36513 0.07379 0.13213 0.0
H725 H 0.30852 0.07359 0.47936 0.0
H726 H 0.32216 0.04543 0.46015 0.0
H727 H 0.34036 0.07069 0.47929 0.0
H728 H 0.38009 0.99165 0.36384 0.0
H729 H 0.41851 0.05332 0.43618 0.0
H730 H 0.33872 0.01839 0.24974 0.0
H731 H 0.32438 0.01888 0.3423 0.0
H732 H 0.34159 0.99346 0.31422 0.0
H733 H 0.40141 0.0915 0.43401 0.0
H734 H 0.37018 0.09477 0.41439 0.0
H735 H 0.39091 0.09428 0.33587 0.0
C736 C 0.41933 0.31288 0.2709 0.0
C737 C 0.4225 0.30685 0.1927 0.0
C738 C 0.42813 0.33431 0.30017 0.0
C739 C 0.44057 0.34979 0.25004 0.0
C740 C 0.44171 0.34483 0.16966 0.0
C741 C 0.43258 0.32343 0.14189 0.0
C742 C 0.42613 0.33925 0.386 0.0
C743 C 0.4548 0.36084 0.1142 0.0
C744 C 0.4629 0.40902 0.32451 0.0
C745 C 0.48591 0.40308 0.34805 0.0
C746 C 0.44777 0.39193 0.29228 0.0
C747 C 0.456 0.36847 0.28324 0.0
C748 C 0.47939 0.36254 0.30576 0.0
C749 C 0.49401 0.37991 0.33821 0.0
C750 C 0.4229 0.39887 0.26978 0.0
C751 C 0.489 0.33779 0.29585 0.0
H752 H 0.41137 0.30016 0.31013 0.0
H753 H 0.43535 0.31878 0.08149 0.0
H754 H 0.44347 0.33591 0.41424 0.0
H755 H 0.42149 0.35804 0.39637 0.0
H756 H 0.41264 0.32783 0.4142 0.0
H757 H 0.45105 0.35628 0.05268 0.0
H758 H 0.44999 0.37961 0.12418 0.0
H759 H 0.47413 0.35913 0.12415 0.0
H760 H 0.45655 0.42691 0.33301 0.0
H761 H 0.51188 0.3754 0.35576 0.0
H762 H 0.4102 0.39086 0.31126 0.0
H763 H 0.41844 0.39209 0.21115 0.0
H764 H 0.42037 0.41836 0.27032 0.0
H765 H 0.47817 0.3251 0.32977 0.0
H766 H 0.50771 0.33625 0.31514 0.0
H767 H 0.48792 0.33243 0.23397 0.0
C768 C 0.19549 0.44069 0.23443 0.0
C769 C 0.20452 0.43851 0.15911 0.0
C770 C 0.1724 0.44891 0.24686 0.0
C771 C 0.15816 0.45524 0.18237 0.0
C772 C 0.16661 0.45149 0.10617 0.0
C773 C 0.18967 0.44303 0.09545 0.0
C774 C 0.16378 0.4522 0.32913 0.0
C775 C 0.15181 0.45703 0.0356 0.0
C776 C 0.09458 0.46773 0.23644 0.0
C777 C 0.09577 0.49196 0.25291 0.0
C778 C 0.11433 0.45567 0.20725 0.0
C779 C 0.1357 0.46817 0.19582 0.0
C780 C 0.13624 0.49306 0.20538 0.0
C781 C 0.11617 0.5047 0.23391 0.0
C782 C 0.11278 0.42941 0.1929 0.0
C783 C 0.15852 0.50712 0.19089 0.0
H784 H 0.20686 0.43697 0.28367 0.0
H785 H 0.19656 0.44151 0.03693 0.0
H786 H 0.16184 0.47135 0.34159 0.0
H787 H 0.14612 0.4439 0.33655 0.0
H788 H 0.17614 0.44447 0.37243 0.0
H789 H 0.13995 0.47234 0.04534 0.0
H790 H 0.16305 0.46071 0.9841 0.0
H791 H 0.1406 0.44148 0.02192 0.0
H792 H 0.07855 0.45806 0.24986 0.0
H793 H 0.11701 0.52346 0.24672 0.0
H794 H 0.12417 0.41992 0.23513 0.0
H795 H 0.11946 0.42517 0.13401 0.0
H796 H 0.09437 0.42269 0.19813 0.0
H797 H 0.17155 0.50332 0.2375 0.0
H798 H 0.15509 0.52646 0.18995 0.0
H799 H 0.16668 0.50191 0.13488 0.0
C800 C 0.10233 0.79991 0.19373 0.0
C801 C 0.08609 0.79553 0.25331 0.0
C802 C 0.10269 0.82189 0.15566 0.0
C803 C 0.08581 0.83935 0.17599 0.0
C804 C 0.06981 0.83511 0.23766 0.0
C805 C 0.07043 0.81337 0.27632 0.0
C806 C 0.12035 0.82602 0.0914 0.0
C807 C 0.05114 0.85298 0.25999 0.0
C808 C 0.08836 0.90333 0.10986 0.0
C809 C 0.07267 0.90303 0.04661 0.0
C810 C 0.0938 0.88248 0.15041 0.0
C811 C 0.08299 0.86097 0.12794 0.0
C812 C 0.06766 0.86045 0.06292 0.0
C813 C 0.06291 0.88141 0.02262 0.0
C814 C 0.11053 0.88361 0.21867 0.0
C815 C 0.05541 0.83793 0.03791 0.0
H816 H 0.1143 0.78597 0.17579 0.0
H817 H 0.05758 0.80971 0.32148 0.0
H818 H 0.1111 0.82595 0.03458 0.0
H819 H 0.12888 0.84358 0.09811 0.0
H820 H 0.13431 0.8122 0.09025 0.0
H821 H 0.03872 0.84601 0.30438 0.0
H822 H 0.05973 0.86913 0.28332 0.0
H823 H 0.0407 0.8583 0.20828 0.0
H824 H 0.09589 0.91995 0.12915 0.0
H825 H 0.05125 0.8809 0.97265 0.0
H826 H 0.12391 0.86931 0.21476 0.0
H827 H 0.10051 0.88089 0.27329 0.0
H828 H 0.11983 0.9009 0.22226 0.0
H829 H 0.06861 0.82383 0.02693 0.0
H830 H 0.04462 0.8404 0.98459 0.0
H831 H 0.04364 0.83163 0.08514 0.0
C832 C 0.70556 0.08724 0.23587 0.0
C833 C 0.72745 0.09033 0.19899 0.0
C834 C 0.6844 0.08812 0.19367 0.0
C835 C 0.6852 0.09237 0.11274 0.0
C836 C 0.70703 0.09783 0.07666 0.0
C837 C 0.72799 0.09657 0.12022 0.0
C838 C 0.66151 0.08207 0.23441 0.0
C839 C 0.70849 0.10301 0.99086 0.0
C840 C 0.63937 0.05743 1.00157 0.0
C841 C 0.62135 0.07414 0.99163 0.0
C842 C 0.66062 0.06348 0.03824 0.0
C843 C 0.66403 0.08693 0.06492 0.0
C844 C 0.64637 0.1042 0.05172 0.0
C845 C 0.62506 0.09753 0.01581 0.0
C846 C 0.67891 0.04443 0.05187 0.0
C847 C 0.64964 0.12945 0.07793 0.0
H848 H 0.70501 0.08216 0.29654 0.0
H849 H 0.7449 0.09922 0.09177 0.0
H850 H 0.64733 0.09464 0.21784 0.0
H851 H 0.65569 0.06413 0.21651 0.0
H852 H 0.66345 0.08227 0.29861 0.0
H853 H 0.72559 0.11145 0.97512 0.0
H854 H 0.70686 0.08624 0.95786 0.0
H855 H 0.69379 0.11472 0.97235 0.0
H856 H 0.63642 0.03928 0.98372 0.0
H857 H 0.61118 0.11051 0.00745 0.0
H858 H 0.68116 0.04151 0.11517 0.0
H859 H 0.6963 0.05003 0.02838 0.0
H860 H 0.67391 0.02736 0.0245 0.0
H861 H 0.64867 0.13032 0.14218 0.0
H862 H 0.63588 0.14135 0.0535 0.0
H863 H 0.66734 0.13612 0.06061 0.0
C864 C 0.39947 0.69916 0.21197 0.0
C865 C 0.4185 0.71358 0.1893 0.0
C866 C 0.39689 0.67621 0.18193 0.0
C867 C 0.41377 0.66759 0.12834 0.0
C868 C 0.43173 0.68279 0.10024 0.0
C869 C 0.4339 0.70554 0.13118 0.0
C870 C 0.3772 0.66068 0.21197 0.0
C871 C 0.45003 0.67438 0.04255 0.0
C872 C 0.4369 0.60526 0.1273 0.0
C873 C 0.42896 0.59721 0.05485 0.0
C874 C 0.4302 0.62748 0.15547 0.0
C875 C 0.41524 0.64201 0.10991 0.0
C876 C 0.40537 0.63309 0.04034 0.0
C877 C 0.4124 0.61075 0.01344 0.0
C878 C 0.44099 0.63624 0.23044 0.0
C879 C 0.38896 0.64785 0.99106 0.0
H880 H 0.38724 0.7054 0.25587 0.0
H881 H 0.44885 0.71631 0.11378 0.0
H882 H 0.36963 0.64966 0.16478 0.0
H883 H 0.38437 0.64854 0.25679 0.0
H884 H 0.3628 0.67126 0.23871 0.0
H885 H 0.46126 0.68907 0.02066 0.0
H886 H 0.46169 0.6611 0.07061 0.0
H887 H 0.44137 0.66569 0.99229 0.0
H888 H 0.44978 0.59501 0.15957 0.0
H889 H 0.40579 0.60437 0.95818 0.0
H890 H 0.42729 0.64441 0.26787 0.0
H891 H 0.4544 0.65003 0.2174 0.0
H892 H 0.44976 0.62183 0.26352 0.0
H893 H 0.37883 0.6368 0.94928 0.0
H894 H 0.3995 0.66087 0.95753 0.0
H895 H 0.37632 0.65787 0.0277 0.0
C896 C 0.81939 0.4221 0.22301 0.0
C897 C 0.80901 0.44096 0.26271 0.0
C898 C 0.84204 0.42462 0.19018 0.0
C899 C 0.85404 0.44658 0.19656 0.0
C900 C 0.84368 0.46538 0.23859 0.0
C901 C 0.82126 0.46229 0.27105 0.0
C902 C 0.85282 0.40412 0.1468 0.0
C903 C 0.85572 0.48915 0.24606 0.0
C904 C 0.91942 0.45428 0.15407 0.0
C905 C 0.91885 0.46347 0.07836 0.0
C906 C 0.89851 0.44766 0.19221 0.0
C907 C 0.87651 0.45079 0.15434 0.0
C908 C 0.87582 0.45986 0.07779 0.0
C909 C 0.897 0.46591 0.04055 0.0
C910 C 0.9 0.438 0.27378 0.0
C911 C 0.85265 0.46369 0.03577 0.0
H912 H 0.80966 0.4057 0.21644 0.0
H913 H 0.81277 0.4769 0.30062 0.0
H914 H 0.85416 0.40853 0.0842 0.0
H915 H 0.87104 0.40072 0.16816 0.0
H916 H 0.8422 0.38768 0.15302 0.0
H917 H 0.84574 0.5015 0.28397 0.0
H918 H 0.8738 0.48697 0.27012 0.0
H919 H 0.85755 0.49734 0.18783 0.0
H920 H 0.93619 0.45254 0.18407 0.0
H921 H 0.89642 0.47243 0.98142 0.0
H922 H 0.88785 0.42276 0.28141 0.0
H923 H 0.89455 0.45191 0.3154 0.0
H924 H 0.91826 0.43234 0.28889 0.0
H925 H 0.8424 0.44697 0.03377 0.0
H926 H 0.85524 0.47013 0.97543 0.0
H927 H 0.8418 0.47682 0.06772 0.0
C928 C 0.04389 0.18791 0.81937 0.0
C929 C 0.0302 0.19564 0.88264 0.0
C930 C 0.0405 0.16538 0.786 0.0
C931 C 0.02281 0.1501 0.81581 0.0
C932 C 0.00813 0.15822 0.87691 0.0
C933 C 0.01205 0.18072 0.90969 0.0
C934 C 0.0566 0.15754 0.72105 0.0
C935 C 0.98891 0.1427 0.91027 0.0
C936 C 1.00412 0.09477 0.70232 0.0
C937 C 0.01662 0.07685 0.74129 0.0
C938 C 0.00606 0.11868 0.72517 0.0
C939 C 0.02101 0.12495 0.78815 0.0
C940 C 0.034 0.10697 0.82653 0.0
C941 C 0.03157 0.08326 0.803 0.0
C942 C 0.99177 0.13717 0.68279 0.0
C943 C 0.05036 0.11274 0.89329 0.0
H944 H 0.05769 0.1993 0.79675 0.0
H945 H 1.00151 0.18613 0.95909 0.0
H946 H 0.06794 0.14279 0.74154 0.0
H947 H 0.04605 0.15081 0.67143 0.0
H948 H 0.06821 0.17207 0.70017 0.0
H949 H 0.97748 0.15238 0.95198 0.0
H950 H 0.97763 0.13548 0.86311 0.0
H951 H 0.99702 0.12746 0.94085 0.0
H952 H 0.99244 0.09009 0.65478 0.0
H953 H 0.04141 0.06968 0.83343 0.0
H954 H 1.00366 0.15098 0.65886 0.0
H955 H 0.97955 0.14605 0.72389 0.0
H956 H 0.98121 0.12953 0.63444 0.0
H957 H 0.06363 0.12609 0.87492 0.0
H958 H 0.05987 0.0969 0.91525 0.0
H959 H 0.0401 0.12053 0.94181 0.0
C960 C 0.32476 0.99849 0.8897 0.0
C961 C 0.31336 0.02041 0.88146 0.0
C962 C 0.34834 0.99522 0.86487 0.0
C963 C 0.36107 0.01438 0.83188 0.0
C964 C 0.34959 0.03648 0.82294 0.0
C965 C 0.32598 0.03918 0.8475 0.0
C966 C 0.35975 0.97129 0.87476 0.0
C967 C 0.36244 0.05752 0.78917 0.0
C968 C 0.42865 0.01425 0.84397 0.0
C969 C 0.43531 0.00796 0.76815 0.0
C970 C 0.40467 0.01627 0.86533 0.0
C971 C 0.38668 0.01173 0.80987 0.0
C972 C 0.39326 0.00527 0.73326 0.0
C973 C 0.41742 1.00353 0.7133 0.0
C974 C 0.3986 0.02349 0.94734 0.0
C975 C 0.37475 1.0002 0.67225 0.0
H976 H 0.31519 0.98383 0.91537 0.0
H977 H 0.31758 0.05633 0.84209 0.0
H978 H 0.36676 0.96499 0.81828 0.0
H979 H 0.37497 0.97269 0.91523 0.0
H980 H 0.3472 0.95789 0.89776 0.0
H981 H 0.35083 0.07327 0.78374 0.0
H982 H 0.37774 0.06217 0.82661 0.0
H983 H 0.36954 0.05309 0.73094 0.0
H984 H 0.44222 0.01776 0.88695 0.0
H985 H 0.42227 0.99861 0.65463 0.0
H986 H 0.38749 0.0097 0.97512 0.0
H987 H 0.38812 0.04007 0.94661 0.0
H988 H 0.4146 0.02633 0.98369 0.0
H989 H 0.38269 0.99511 0.61569 0.0
H990 H 0.36349 0.01602 0.66323 0.0
H991 H 0.363 0.98569 0.69214 0.0
C992 C 0.51011 0.31917 0.91628 0.0
C993 C 0.48897 0.30699 0.90069 0.0
C994 C 0.51353 0.34264 0.89077 0.0
C995 C 0.49526 0.35443 0.84952 0.0
C996 C 0.47389 0.34222 0.8338 0.0
C997 C 0.47106 0.31874 0.85925 0.0
C998 C 0.5366 0.35494 0.90871 0.0
C999 C 0.45378 0.35411 0.79129 0.0
C1000 C 0.49348 0.42195 0.85212 0.0
C1001 C 0.50224 0.42787 0.77826 0.0
C1002 C 0.49129 0.39825 0.876 0.0
C1003 C 0.49809 0.37978 0.82516 0.0
C1004 C 0.507 0.38559 0.75057 0.0
C1005 C 0.50887 0.40949 0.72796 0.0
C1006 C 0.48121 0.39301 0.95531 0.0
C1007 C 0.5146 0.36653 0.69459 0.0
H1008 H 0.52407 0.31028 0.94807 0.0
H1009 H 0.45445 0.30973 0.8483 0.0
H1010 H 0.54475 0.36159 0.85432 0.0
H1011 H 0.53327 0.37049 0.94644 0.0
H1012 H 0.54942 0.3431 0.93837 0.0
H1013 H 0.43856 0.342 0.78164 0.0
H1014 H 0.44753 0.3696 0.82504 0.0
H1015 H 0.45994 0.36076 0.7342 0.0
H1016 H 0.48815 0.43588 0.89158 0.0
H1017 H 0.51572 0.41376 0.67096 0.0
H1018 H 0.49287 0.38066 0.98753 0.0
H1019 H 0.46374 0.38428 0.94863 0.0
H1020 H 0.47881 0.40926 0.99069 0.0
H1021 H 0.52151 0.37392 0.63927 0.0
H1022 H 0.49943 0.35476 0.68122 0.0
H1023 H 0.52856 0.35544 0.72154 0.0
C1024 C 0.19247 0.5031 0.91608 0.0
C1025 C 0.21105 0.49565 0.86722 0.0
C1026 C 0.16921 0.50613 0.8879 0.0
C1027 C 0.16384 0.5007 0.80955 0.0
C1028 C 0.18234 0.49341 0.75969 0.0
C1029 C 0.20564 0.49165 0.78832 0.0
C1030 C 0.15022 0.51492 0.94228 0.0
C1031 C 0.17735 0.4864 0.67667 0.0
C1032 C 0.09956 0.4831 0.76972 0.0
C1033 C 0.09076 0.50307 0.73137 0.0
C1034 C 0.12341 0.48174 0.79285 0.0
C1035 C 0.1387 0.50137 0.78095 0.0
C1036 C 0.12972 0.52172 0.74272 0.0
C1037 C 0.10601 0.52212 0.71696 0.0
C1038 C 0.13158 0.45932 0.83203 0.0
C1039 C 0.14492 0.54341 0.73145 0.0
H1040 H 0.19576 0.50599 0.97723 0.0
H1041 H 0.21953 0.48671 0.74835 0.0
H1042 H 0.14299 0.53187 0.92013 0.0
H1043 H 0.13532 0.50216 0.94437 0.0
H1044 H 0.15694 0.51777 1.00214 0.0
H1045 H 0.19364 0.48117 0.64497 0.0
H1046 H 0.16477 0.47131 0.67585 0.0
H1047 H 0.16883 0.5012 0.64503 0.0
H1048 H 0.08777 0.46836 0.78123 0.0
H1049 H 0.0991 0.53774 0.68836 0.0
H1050 H 0.12525 0.45944 0.89293 0.0
H1051 H 0.15108 0.45718 0.83195 0.0
H1052 H 0.12356 0.44364 0.80339 0.0
H1053 H 0.15096 0.55007 0.78874 0.0
H1054 H 0.13532 0.55783 0.70102 0.0
H1055 H 0.16097 0.53892 0.69754 0.0
C1056 C 0.98274 0.81498 0.54518 0.0
C1057 C 1.00016 0.80818 0.49175 0.0
C1058 C 0.98194 0.83823 0.5747 0.0
C1059 C 0.99937 0.85492 0.55184 0.0
C1060 C 0.01721 0.84795 0.49879 0.0
C1061 C 0.0172 0.82483 0.46877 0.0
C1062 C 0.96241 0.84497 0.63013 0.0
C1063 C 0.0364 0.86489 0.47352 0.0
C1064 C 0.98806 0.92127 0.56579 0.0
C1065 C 1.0003 0.92746 0.63385 0.0
C1066 C 0.98707 0.89771 0.53978 0.0
C1067 C 0.99882 0.87976 0.58221 0.0
C1068 C 0.01093 0.88581 0.65163 0.0
C1069 C 0.0114 0.90952 0.67685 0.0
C1070 C 0.97377 0.8921 0.46599 0.0
C1071 C 0.02408 0.86734 0.69791 0.0
H1072 H 0.9696 0.80215 0.56332 0.0
H1073 H 0.03097 0.81954 0.4287 0.0
H1074 H 0.97009 0.85089 0.68615 0.0
H1075 H 0.95219 0.86003 0.60609 0.0
H1076 H 0.95006 0.83008 0.6415 0.0
H1077 H 0.05112 0.85569 0.44331 0.0
H1078 H 0.0288 0.8782 0.43333 0.0
H1079 H 0.04381 0.87454 0.52409 0.0
H1080 H 0.9793 0.93492 0.53223 0.0
H1081 H 0.021 0.91407 0.72927 0.0
H1082 H 0.96078 0.87772 0.47655 0.0
H1083 H 0.98631 0.88571 0.42114 0.0
H1084 H 0.96422 0.90772 0.4426 0.0
H1085 H 0.01201 0.8526 0.71349 0.0
H1086 H 0.03188 0.87467 0.75202 0.0
H1087 H 0.03852 0.85977 0.66204 0.0
C1088 C 0.69323 0.9826 0.51326 0.0
C1089 C 0.70369 0.00493 0.50482 0.0
C1090 C 0.66959 0.9803 0.53867 0.0
C1091 C 0.65591 1.00083 0.55403 0.0
C1092 C 0.6664 0.02341 0.54402 0.0
C1093 C 0.69019 0.02515 0.52053 0.0
C1094 C 0.65932 0.95591 0.54991 0.0
C1095 C 0.65245 0.04578 0.55761 0.0
C1096 C 0.58838 0.99659 0.5491 0.0
C1097 C 0.58248 0.99738 0.62825 0.0
C1098 C 0.61212 0.99756 0.52426 0.0
C1099 C 0.6306 0.99884 0.57984 0.0
C1100 C 0.62476 0.99911 0.65995 0.0
C1101 C 0.60083 0.99862 0.6831 0.0
C1102 C 0.61737 0.99785 0.43833 0.0
C1103 C 0.64382 1.00006 0.72133 0.0
H1104 H 0.7037 0.96696 0.50139 0.0
H1105 H 0.69825 0.04243 0.5135 0.0
H1106 H 0.65304 0.95386 0.61058 0.0
H1107 H 0.64377 0.95345 0.51142 0.0
H1108 H 0.67238 0.94174 0.53735 0.0
H1109 H 0.66297 0.06194 0.54516 0.0
H1110 H 0.63644 0.04588 0.52025 0.0
H1111 H 0.64636 0.04652 0.61875 0.0
H1112 H 0.57437 0.99584 0.50615 0.0
H1113 H 0.5965 0.99904 0.74436 0.0
H1114 H 0.62924 0.98295 0.42305 0.0
H1115 H 0.62677 0.01443 0.42293 0.0
H1116 H 0.60107 0.99655 0.4025 0.0
H1117 H 0.65644 0.98525 0.713 0.0
H1118 H 0.63647 0.99905 0.78104 0.0
H1119 H 0.65402 0.01674 0.71579 0.0
C1120 C 0.52658 0.68146 0.49522 0.0
C1121 C 0.50509 0.69364 0.50207 0.0
C1122 C 0.52888 0.65802 0.52225 0.0
C1123 C 0.50903 0.64624 0.55481 0.0
C1124 C 0.4872 0.65844 0.56056 0.0
C1125 C 0.48559 0.68201 0.53505 0.0
C1126 C 0.55259 0.64589 0.51646 0.0
C1127 C 0.4654 0.64649 0.59273 0.0
C1128 C 0.50785 0.5787 0.55623 0.0
C1129 C 0.51224 0.57349 0.63464 0.0
C1130 C 0.50681 0.60221 0.52953 0.0
C1131 C 0.51086 0.6211 0.58198 0.0
C1132 C 0.51579 0.61592 0.66095 0.0
C1133 C 0.51609 0.59224 0.6865 0.0
C1134 C 0.50082 0.60684 0.44543 0.0
C1135 C 0.52067 0.63543 0.71858 0.0
H1136 H 0.54167 0.69043 0.46985 0.0
H1137 H 0.46886 0.69128 0.53947 0.0
H1138 H 0.55829 0.63976 0.57475 0.0
H1139 H 0.55113 0.63003 0.47891 0.0
H1140 H 0.56648 0.65769 0.49232 0.0
H1141 H 0.44966 0.65824 0.59174 0.0
H1142 H 0.46136 0.63036 0.55849 0.0
H1143 H 0.46862 0.64081 0.65346 0.0
H1144 H 0.50461 0.56436 0.51583 0.0
H1145 H 0.51963 0.58839 0.74706 0.0
H1146 H 0.51516 0.61719 0.41754 0.0
H1147 H 0.48441 0.61755 0.44158 0.0
H1148 H 0.49818 0.59024 0.41202 0.0
H1149 H 0.53525 0.64685 0.69716 0.0
H1150 H 0.52557 0.62847 0.77673 0.0
H1151 H 0.50479 0.64677 0.72487 0.0
C1152 C 0.83681 0.50051 0.46486 0.0
C1153 C 0.82036 0.51641 0.49632 0.0
C1154 C 0.86042 0.4999 0.49077 0.0
C1155 C 0.86804 0.51584 0.54919 0.0
C1156 C 0.85152 0.53206 0.58102 0.0
C1157 C 0.82785 0.53198 0.55482 0.0
C1158 C 0.87714 0.48206 0.45568 0.0
C1159 C 0.85888 0.54953 0.64269 0.0
C1160 C 0.92443 0.50049 0.6619 0.0
C1161 C 0.94171 0.51366 0.62221 0.0
C1162 C 0.90041 0.50123 0.63946 0.0
C1163 C 0.89333 0.51563 0.57612 0.0
C1164 C 0.91061 0.52926 0.53677 0.0
C1165 C 0.93448 0.52805 0.55997 0.0
C1166 C 0.88269 0.48616 0.68248 0.0
C1167 C 0.90391 0.54497 0.46937 0.0
H1168 H 0.831 0.488 0.42127 0.0
H1169 H 0.81519 0.54421 0.5797 0.0
H1170 H 0.89077 0.49135 0.4208 0.0
H1171 H 0.88648 0.47209 0.50194 0.0
H1172 H 0.86781 0.46924 0.41751 0.0
H1173 H 0.84406 0.56115 0.66095 0.0
H1174 H 0.86564 0.53998 0.6944 0.0
H1175 H 0.87353 0.56076 0.62072 0.0
H1176 H 0.92968 0.48926 0.70987 0.0
H1177 H 0.94753 0.5384 0.52881 0.0
H1178 H 0.87465 0.47315 0.64203 0.0
H1179 H 0.86813 0.49733 0.7052 0.0
H1180 H 0.89083 0.47642 0.73173 0.0
H1181 H 0.89678 0.53406 0.4212 0.0
H1182 H 0.91919 0.55534 0.44721 0.0
H1183 H 0.88974 0.55742 0.48708 0.0
loop_
_geom_bond_atom_site_label_1
_geom_bond_atom_site_label_2
_geom_bond_distance
_geom_bond_site_symmetry_2
_ccdc_geom_bond_type
P0 O11 1.490 . S
P0 C14 1.812 . S
P0 C20 1.803 . S
P0 C26 1.819 . S
H1 C15 0.941 . S
H2 C16 0.939 . S
H3 C18 0.940 . S
H4 C19 0.940 . S
H5 C21 0.939 . S
H6 C22 0.942 . S
H7 C24 0.940 . S
H8 C25 0.939 . S
H9 C27 0.941 . S
H10 C31 0.939 . S
O11 P0 1.490 . S
H12 C28 0.939 . S
H13 C30 0.940 . S
C14 P0 1.812 . S
C14 C15 1.389 . S
C14 C19 1.391 . S
C15 H1 0.941 . S
C15 C14 1.389 . S
C15 C16 1.397 . S
C16 H2 0.939 . S
C16 C15 1.397 . S
C16 C17 1.378 . S
C17 C16 1.378 . S
C17 C18 1.378 . S
C18 H3 0.940 . S
C18 C17 1.378 . S
C18 C19 1.396 . S
C19 H4 0.940 . S
C19 C14 1.391 . S
C19 C18 1.396 . S
C20 P0 1.803 . S
C20 C21 1.378 . S
C20 C25 1.400 . S
C21 H5 0.939 . S
C21 C20 1.378 . S
C21 C22 1.361 . S
C22 H6 0.942 . S
C22 C21 1.361 . S
C22 C23 1.369 . S
C23 C22 1.369 . S
C23 C24 1.404 . S
C24 H7 0.940 . S
C24 C23 1.404 . S
C24 C25 1.389 . S
C25 H8 0.939 . S
C25 C20 1.400 . S
C25 C24 1.389 . S
C26 P0 1.819 . S
C26 C27 1.391 . S
C26 C31 1.391 . S
C27 H9 0.941 . S
C27 C26 1.391 . S
C27 C28 1.396 . S
C28 H12 0.939 . S
C28 C27 1.396 . S
C28 C29 1.397 . S
C29 C28 1.397 . S
C29 C30 1.385 . S
C30 H13 0.940 . S
C30 C29 1.385 . S
C30 C31 1.388 . S
C31 H10 0.939 . S
C31 C26 1.391 . S
C31 C30 1.388 . S
P32 O43 1.490 . S
P32 C46 1.812 . S
P32 C52 1.803 . S
P32 C58 1.819 . S
H33 C47 0.941 . S
H34 C48 0.939 . S
H35 C50 0.940 . S
H36 C51 0.940 . S
H37 C53 0.939 . S
H38 C54 0.942 . S
H39 C56 0.940 . S
H40 C57 0.939 . S
H41 C59 0.941 . S
H42 C63 0.939 1_655 S
O43 P32 1.490 . S
H44 C60 0.939 . S
H45 C62 0.940 . S
C46 P32 1.812 . S
C46 C47 1.389 . S
C46 C51 1.391 1_455 S
C47 H33 0.941 . S
C47 C46 1.389 . S
C47 C48 1.397 . S
C48 H34 0.939 . S
C48 C47 1.397 . S
C48 C49 1.378 . S
C49 C48 1.378 . S
C49 C50 1.378 1_455 S
C50 H35 0.940 . S
C50 C49 1.378 1_655 S
C50 C51 1.396 . S
C51 H36 0.940 . S
C51 C46 1.391 1_655 S
C51 C50 1.396 . S
C52 P32 1.803 . S
C52 C53 1.378 . S
C52 C57 1.400 1_455 S
C53 H37 0.939 . S
C53 C52 1.378 . S
C53 C54 1.361 . S
C54 H38 0.942 . S
C54 C53 1.361 . S
C54 C55 1.369 . S
C55 C54 1.369 . S
C55 C56 1.404 1_455 S
C56 H39 0.940 . S
C56 C55 1.404 1_655 S
C56 C57 1.389 . S
C57 H40 0.939 . S
C57 C52 1.400 1_655 S
C57 C56 1.389 . S
C58 P32 1.819 . S
C58 C59 1.391 . S
C58 C63 1.391 . S
C59 H41 0.941 . S
C59 C58 1.391 . S
C59 C60 1.396 . S
C60 H44 0.939 . S
C60 C59 1.396 . S
C60 C61 1.397 . S
C61 C60 1.397 . S
C61 C62 1.385 1_455 S
C62 H45 0.940 . S
C62 C61 1.385 1_655 S
C62 C63 1.388 1_655 S
C63 H42 0.939 1_455 S
C63 C58 1.391 . S
C63 C62 1.388 1_455 S
P64 O75 1.490 . S
P64 C78 1.812 . S
P64 C84 1.803 . S
P64 C90 1.819 . S
H65 C79 0.941 . S
H66 C80 0.939 . S
H67 C82 0.940 . S
H68 C83 0.940 . S
H69 C85 0.939 . S
H70 C86 0.942 . S
H71 C88 0.940 . S
H72 C89 0.939 . S
H73 C91 0.941 . S
H74 C95 0.939 1_565 S
O75 P64 1.490 . S
H76 C92 0.939 . S
H77 C94 0.940 . S
C78 P64 1.812 . S
C78 C79 1.389 . S
C78 C83 1.391 1_545 S
C79 H65 0.941 . S
C79 C78 1.389 . S
C79 C80 1.397 . S
C80 H66 0.939 . S
C80 C79 1.397 . S
C80 C81 1.378 . S
C81 C80 1.378 . S
C81 C82 1.378 1_545 S
C82 H67 0.940 . S
C82 C81 1.378 1_565 S
C82 C83 1.396 . S
C83 H68 0.940 . S
C83 C78 1.391 1_565 S
C83 C82 1.396 . S
C84 P64 1.803 . S
C84 C85 1.378 . S
C84 C89 1.400 1_545 S
C85 H69 0.939 . S
C85 C84 1.378 . S
C85 C86 1.361 . S
C86 H70 0.942 . S
C86 C85 1.361 . S
C86 C87 1.369 . S
C87 C86 1.369 . S
C87 C88 1.404 1_545 S
C88 H71 0.940 . S
C88 C87 1.404 1_565 S
C88 C89 1.389 . S
C89 H72 0.939 . S
C89 C84 1.400 1_565 S
C89 C88 1.389 . S
C90 P64 1.819 . S
C90 C91 1.391 . S
C90 C95 1.391 . S
C91 H73 0.941 . S
C91 C90 1.391 . S
C91 C92 1.396 . S
C92 H76 0.939 . S
C92 C91 1.396 . S
C92 C93 1.397 . S
C93 C92 1.397 . S
C93 C94 1.385 1_545 S
C94 H77 0.940 . S
C94 C93 1.385 1_565 S
C94 C95 1.388 1_565 S
C95 H74 0.939 1_545 S
C95 C90 1.391 . S
C95 C94 1.388 1_545 S
P96 O107 1.490 . S
P96 C110 1.812 . S
P96 C116 1.803 . S
P96 C122 1.819 . S
H97 C111 0.941 . S
H98 C112 0.939 . S
H99 C114 0.940 . S
H100 C115 0.940 . S
H101 C117 0.939 . S
H102 C118 0.942 . S
H103 C120 0.940 . S
H104 C121 0.939 . S
H105 C123 0.941 . S
H106 C127 0.939 . S
O107 P96 1.490 . S
H108 C124 0.939 . S
H109 C126 0.940 . S
C110 P96 1.812 . S
C110 C111 1.389 . S
C110 C115 1.391 . S
C111 H97 0.941 . S
C111 C110 1.389 . S
C111 C112 1.397 . S
C112 H98 0.939 . S
C112 C111 1.397 . S
C112 C113 1.378 . S
C113 C112 1.378 . S
C113 C114 1.378 . S
C114 H99 0.940 . S
C114 C113 1.378 . S
C114 C115 1.396 . S
C115 H100 0.940 . S
C115 C110 1.391 . S
C115 C114 1.396 . S
C116 P96 1.803 . S
C116 C117 1.378 . S
C116 C121 1.400 . S
C117 H101 0.939 . S
C117 C116 1.378 . S
C117 C118 1.361 . S
C118 H102 0.942 . S
C118 C117 1.361 . S
C118 C119 1.369 . S
C119 C118 1.369 . S
C119 C120 1.404 . S
C120 H103 0.940 . S
C120 C119 1.404 . S
C120 C121 1.389 . S
C121 H104 0.939 . S
C121 C116 1.400 . S
C121 C120 1.389 . S
C122 P96 1.819 . S
C122 C123 1.391 . S
C122 C127 1.391 . S
C123 H105 0.941 . S
C123 C122 1.391 . S
C123 C124 1.396 . S
C124 H108 0.939 . S
C124 C123 1.396 . S
C124 C125 1.397 . S
C125 C124 1.397 . S
C125 C126 1.385 . S
C126 H109 0.940 . S
C126 C125 1.385 . S
C126 C127 1.388 . S
C127 H106 0.939 . S
C127 C122 1.391 . S
C127 C126 1.388 . S
P128 O139 1.490 . S
P128 C142 1.812 1_554 S
P128 C148 1.803 . S
P128 C154 1.819 . S
H129 C143 0.941 . S
H130 C144 0.939 . S
H131 C146 0.940 . S
H132 C147 0.940 . S
H133 C149 0.939 . S
H134 C150 0.942 . S
H135 C152 0.940 . S
H136 C153 0.939 1_556 S
H137 C155 0.941 . S
H138 C159 0.939 . S
O139 P128 1.490 . S
H140 C156 0.939 . S
H141 C158 0.940 . S
C142 P128 1.812 1_556 S
C142 C143 1.389 . S
C142 C147 1.391 . S
C143 H129 0.941 . S
C143 C142 1.389 . S
C143 C144 1.397 . S
C144 H130 0.939 . S
C144 C143 1.397 . S
C144 C145 1.378 . S
C145 C144 1.378 . S
C145 C146 1.378 . S
C146 H131 0.940 . S
C146 C145 1.378 . S
C146 C147 1.396 . S
C147 H132 0.940 . S
C147 C142 1.391 . S
C147 C146 1.396 . S
C148 P128 1.803 . S
C148 C149 1.378 . S
C148 C153 1.400 . S
C149 H133 0.939 . S
C149 C148 1.378 . S
C149 C150 1.361 . S
C150 H134 0.942 . S
C150 C149 1.361 . S
C150 C151 1.369 . S
C151 C150 1.369 . S
C151 C152 1.404 . S
C152 H135 0.940 . S
C152 C151 1.404 . S
C152 C153 1.389 . S
C153 H136 0.939 1_554 S
C153 C148 1.400 . S
C153 C152 1.389 . S
C154 P128 1.819 . S
C154 C155 1.391 . S
C154 C159 1.391 . S
C155 H137 0.941 . S
C155 C154 1.391 . S
C155 C156 1.396 . S
C156 H140 0.939 . S
C156 C155 1.396 . S
C156 C157 1.397 . S
C157 C156 1.397 . S
C157 C158 1.385 . S
C158 H141 0.940 . S
C158 C157 1.385 . S
C158 C159 1.388 . S
C159 H138 0.939 . S
C159 C154 1.391 . S
C159 C158 1.388 . S
P160 O171 1.490 . S
P160 C174 1.812 1_554 S
P160 C180 1.803 . S
P160 C186 1.819 . S
H161 C175 0.941 . S
H162 C176 0.939 . S
H163 C178 0.940 . S
H164 C179 0.940 1_655 S
H165 C181 0.939 . S
H166 C182 0.942 . S
H167 C184 0.940 . S
H168 C185 0.939 1_656 S
H169 C187 0.941 . S
H170 C191 0.939 . S
O171 P160 1.490 . S
H172 C188 0.939 . S
H173 C190 0.940 . S
C174 P160 1.812 1_556 S
C174 C175 1.389 . S
C174 C179 1.391 . S
C175 H161 0.941 . S
C175 C174 1.389 . S
C175 C176 1.397 . S
C176 H162 0.939 . S
C176 C175 1.397 . S
C176 C177 1.378 . S
C177 C176 1.378 . S
C177 C178 1.378 1_455 S
C178 H163 0.940 . S
C178 C177 1.378 1_655 S
C178 C179 1.396 1_655 S
C179 H164 0.940 1_455 S
C179 C174 1.391 . S
C179 C178 1.396 1_455 S
C180 P160 1.803 . S
C180 C181 1.378 . S
C180 C185 1.400 . S
C181 H165 0.939 . S
C181 C180 1.378 . S
C181 C182 1.361 . S
C182 H166 0.942 . S
C182 C181 1.361 . S
C182 C183 1.369 . S
C183 C182 1.369 . S
C183 C184 1.404 1_455 S
C184 H167 0.940 . S
C184 C183 1.404 1_655 S
C184 C185 1.389 1_655 S
C185 H168 0.939 1_454 S
C185 C180 1.400 . S
C185 C184 1.389 1_455 S
C186 P160 1.819 . S
C186 C187 1.391 . S
C186 C191 1.391 . S
C187 H169 0.941 . S
C187 C186 1.391 . S
C187 C188 1.396 . S
C188 H172 0.939 . S
C188 C187 1.396 . S
C188 C189 1.397 . S
C189 C188 1.397 . S
C189 C190 1.385 1_455 S
C190 H173 0.940 . S
C190 C189 1.385 1_655 S
C190 C191 1.388 1_655 S
C191 H170 0.939 . S
C191 C186 1.391 . S
C191 C190 1.388 1_455 S
P192 O203 1.490 . S
P192 C206 1.812 1_554 S
P192 C212 1.803 . S
P192 C218 1.819 . S
H193 C207 0.941 . S
H194 C208 0.939 . S
H195 C210 0.940 . S
H196 C211 0.940 1_565 S
H197 C213 0.939 . S
H198 C214 0.942 . S
H199 C216 0.940 . S
H200 C217 0.939 1_566 S
H201 C219 0.941 . S
H202 C223 0.939 . S
O203 P192 1.490 . S
H204 C220 0.939 . S
H205 C222 0.975 . S
C206 P192 1.812 1_556 S
C206 C207 1.389 . S
C206 C211 1.391 . S
C207 H193 0.941 . S
C207 C206 1.389 . S
C207 C208 1.397 . S
C208 H194 0.939 . S
C208 C207 1.397 . S
C208 C209 1.378 . S
C209 C208 1.378 . S
C209 C210 1.378 1_545 S
C210 H195 0.940 . S
C210 C209 1.378 1_565 S
C210 C211 1.396 1_565 S
C211 H196 0.940 1_545 S
C211 C206 1.391 . S
C211 C210 1.396 1_545 S
C212 P192 1.803 . S
C212 C213 1.378 . S
C212 C217 1.400 . S
C213 H197 0.939 . S
C213 C212 1.378 . S
C213 C214 1.361 . S
C214 H198 0.942 . S
C214 C213 1.361 . S
C214 C215 1.369 . S
C215 C214 1.369 . S
C215 C216 1.404 1_545 S
C216 H199 0.940 . S
C216 C215 1.404 1_565 S
C216 C217 1.389 1_565 S
C217 H200 0.939 1_544 S
C217 C212 1.400 . S
C217 C216 1.389 1_545 S
C218 P192 1.819 . S
C218 C219 1.391 . S
C218 C223 1.391 . S
C219 H201 0.941 . S
C219 C218 1.391 . S
C219 C220 1.396 . S
C220 H204 0.939 . S
C220 C219 1.396 . S
C220 C221 1.397 . S
C221 C220 1.397 . S
C221 C222 1.368 1_545 S
C222 H205 0.975 . S
C222 C221 1.368 1_565 S
C222 C223 1.372 1_565 S
C223 H202 0.939 . S
C223 C218 1.391 . S
C223 C222 1.372 1_545 S
P224 O235 1.490 . S
P224 C238 1.812 1_554 S
P224 C244 1.803 . S
P224 C250 1.819 . S
H225 C239 0.941 . S
H226 C240 0.939 . S
H227 C242 0.940 . S
H228 C243 0.940 . S
H229 C245 0.939 . S
H230 C246 0.942 . S
H231 C248 0.940 . S
H232 C249 0.939 1_556 S
H233 C251 0.941 . S
H234 C255 0.939 . S
O235 P224 1.490 . S
H236 C252 0.939 . S
H237 C254 0.940 . S
C238 P224 1.812 1_556 S
C238 C239 1.389 . S
C238 C243 1.391 . S
C239 H225 0.941 . S
C239 C238 1.389 . S
C239 C240 1.397 . S
C240 H226 0.939 . S
C240 C239 1.397 . S
C240 C241 1.378 . S
C241 C240 1.378 . S
C241 C242 1.378 . S
C242 H227 0.940 . S
C242 C241 1.378 . S
C242 C243 1.396 . S
C243 H228 0.940 . S
C243 C238 1.391 . S
C243 C242 1.396 . S
C244 P224 1.803 . S
C244 C245 1.378 . S
C244 C249 1.400 . S
C245 H229 0.939 . S
C245 C244 1.378 . S
C245 C246 1.361 . S
C246 H230 0.942 . S
C246 C245 1.361 . S
C246 C247 1.369 . S
C247 C246 1.369 . S
C247 C248 1.404 . S
C248 H231 0.940 . S
C248 C247 1.404 . S
C248 C249 1.389 . S
C249 H232 0.939 1_554 S
C249 C244 1.400 . S
C249 C248 1.389 . S
C250 P224 1.819 . S
C250 C251 1.391 . S
C250 C255 1.391 . S
C251 H233 0.941 . S
C251 C250 1.391 . S
C251 C252 1.396 . S
C252 H236 0.939 . S
C252 C251 1.396 . S
C252 C253 1.397 . S
C253 C252 1.397 . S
C253 C254 1.385 . S
C254 H237 0.940 . S
C254 C253 1.385 . S
C254 C255 1.388 . S
C255 H234 0.939 . S
C255 C250 1.391 . S
C255 C254 1.388 . S
Gd256 C259 2.818 . S
Gd256 O276 2.377 . S
Gd256 O278 2.448 . S
Gd256 O279 2.506 . S
Gd256 O280 2.435 . S
Gd256 O281 2.717 1_565 S
Gd256 O283 2.395 1_565 S
Gd256 O287 2.327 1_455 S
Gd257 C268 2.818 . S
Gd257 O277 2.395 1_545 S
Gd257 O281 2.327 1_655 S
Gd257 O282 2.377 . S
Gd257 O284 2.448 . S
Gd257 O285 2.506 . S
Gd257 O286 2.435 . S
Gd257 O287 2.717 1_545 S
C258 O276 1.240 1_655 S
C258 O277 1.240 . S
C259 Gd256 2.818 . S
C259 C260 1.510 . S
C259 O278 1.249 . S
C259 O279 1.252 . S
C260 C259 1.510 . S
C260 C261 1.404 . S
C260 C262 1.352 . S
C261 C260 1.404 . S
C261 C265 1.389 . S
C261 H288 0.930 . S
C262 C260 1.352 . S
C262 C264 1.374 . S
C262 H289 0.931 1_455 S
C263 C264 1.359 . S
C263 C265 1.364 . S
C264 C262 1.374 . S
C264 C263 1.359 . S
C264 H290 0.931 1_455 S
C265 C261 1.389 . S
C265 C263 1.364 . S
C265 H291 0.931 . S
C266 O280 1.275 . S
C266 O281 1.248 1_565 S
C267 O282 1.240 1_455 S
C267 O283 1.240 . S
C268 Gd257 2.818 . S
C268 C269 1.510 . S
C268 O284 1.249 . S
C268 O285 1.252 . S
C269 C268 1.510 . S
C269 C270 1.404 . S
C269 C271 1.352 . S
C270 C269 1.404 . S
C270 C274 1.389 . S
C270 H292 0.930 . S
C271 C269 1.352 . S
C271 C273 1.374 . S
C271 H293 0.931 1_655 S
C272 C273 1.359 . S
C272 C274 1.364 . S
C273 C271 1.374 . S
C273 C272 1.359 . S
C273 H294 0.931 1_655 S
C274 C270 1.389 . S
C274 C272 1.364 . S
C274 H295 0.931 . S
C275 O286 1.282 . S
C275 O287 1.244 1_545 S
O276 Gd256 2.377 . S
O276 C258 1.240 1_455 S
O277 Gd257 2.395 1_565 S
O277 C258 1.240 . S
O278 Gd256 2.448 . S
O278 C259 1.249 . S
O279 Gd256 2.506 . S
O279 C259 1.252 . S
O280 Gd256 2.435 . S
O280 C266 1.275 . S
O281 Gd256 2.717 1_545 S
O281 Gd257 2.327 1_455 S
O281 C266 1.248 1_545 S
O282 Gd257 2.377 . S
O282 C267 1.240 1_655 S
O283 Gd256 2.395 1_545 S
O283 C267 1.240 . S
O284 Gd257 2.448 . S
O284 C268 1.249 . S
O285 Gd257 2.506 . S
O285 C268 1.252 . S
O286 Gd257 2.435 . S
O286 C275 1.282 . S
O287 Gd256 2.327 1_655 S
O287 Gd257 2.717 1_565 S
O287 C275 1.244 1_565 S
H288 C261 0.930 . S
H289 C262 0.931 1_655 S
H290 C264 0.931 1_655 S
H291 C265 0.931 . S
H292 C270 0.930 . S
H293 C271 0.931 1_455 S
H294 C273 0.931 1_455 S
H295 C274 0.931 . S
Gd296 C299 2.818 . S
Gd296 O316 2.377 . S
Gd296 O318 2.448 . S
Gd296 O319 2.506 . S
Gd296 O320 2.435 . S
Gd296 O321 2.717 . S
Gd296 O323 2.395 . S
Gd296 O327 2.327 1_545 S
Gd297 C308 2.818 . S
Gd297 O317 2.395 . S
Gd297 O321 2.327 1_565 S
Gd297 O322 2.377 . S
Gd297 O324 2.448 . S
Gd297 O325 2.506 . S
Gd297 O326 2.435 . S
Gd297 O327 2.717 . S
C298 O316 1.240 1_565 S
C298 O317 1.240 . S
C299 Gd296 2.818 . S
C299 C300 1.510 . S
C299 O318 1.249 . S
C299 O319 1.252 . S
C300 C299 1.510 . S
C300 C301 1.404 . S
C300 C302 1.352 . S
C301 C300 1.404 . S
C301 C305 1.389 . S
C301 H328 0.930 . S
C302 C300 1.352 . S
C302 C304 1.374 . S
C302 H329 0.931 1_545 S
C303 C304 1.359 . S
C303 C305 1.364 . S
C304 C302 1.374 . S
C304 C303 1.359 . S
C304 H330 0.931 1_545 S
C305 C301 1.389 . S
C305 C303 1.364 . S
C305 H331 0.931 . S
C306 O320 1.256 . S
C306 O321 1.257 . S
C307 O322 1.240 1_545 S
C307 O323 1.240 . S
C308 Gd297 2.818 . S
C308 C309 1.510 . S
C308 O324 1.249 . S
C308 O325 1.252 . S
C309 C308 1.510 . S
C309 C310 1.404 . S
C309 C311 1.352 . S
C310 C309 1.404 . S
C310 C314 1.389 . S
C310 H332 0.930 . S
C311 C309 1.352 . S
C311 C313 1.374 . S
C311 H333 0.931 1_565 S
C312 C313 1.359 . S
C312 C314 1.364 . S
C313 C311 1.374 . S
C313 C312 1.359 . S
C313 H334 0.931 1_565 S
C314 C310 1.389 . S
C314 C312 1.364 . S
C314 H335 0.931 . S
C315 O326 1.256 . S
C315 O327 1.257 . S
O316 Gd296 2.377 . S
O316 C298 1.240 1_545 S
O317 Gd297 2.395 . S
O317 C298 1.240 . S
O318 Gd296 2.448 . S
O318 C299 1.249 . S
O319 Gd296 2.506 . S
O319 C299 1.252 . S
O320 Gd296 2.435 . S
O320 C306 1.256 . S
O321 Gd296 2.717 . S
O321 Gd297 2.327 1_545 S
O321 C306 1.257 . S
O322 Gd297 2.377 . S
O322 C307 1.240 1_565 S
O323 Gd296 2.395 . S
O323 C307 1.240 . S
O324 Gd297 2.448 . S
O324 C308 1.249 . S
O325 Gd297 2.506 . S
O325 C308 1.252 . S
O326 Gd297 2.435 . S
O326 C315 1.256 . S
O327 Gd296 2.327 1_565 S
O327 Gd297 2.717 . S
O327 C315 1.257 . S
H328 C301 0.930 . S
H329 C302 0.931 1_565 S
H330 C304 0.931 1_565 S
H331 C305 0.931 . S
H332 C310 0.930 . S
H333 C311 0.931 1_545 S
H334 C313 0.931 1_545 S
H335 C314 0.931 . S
Gd336 C339 2.818 . S
Gd336 O356 2.377 . S
Gd336 O358 2.448 . S
Gd336 O359 2.506 . S
Gd336 O360 2.435 . S
Gd336 O361 2.717 . S
Gd336 O363 2.395 . S
Gd336 O367 2.327 . S
Gd337 C348 2.818 . S
Gd337 O357 2.395 . S
Gd337 O361 2.327 . S
Gd337 O362 2.377 . S
Gd337 O364 2.448 . S
Gd337 O365 2.506 . S
Gd337 O366 2.435 . S
Gd337 O367 2.717 . S
C338 O356 1.240 . S
C338 O357 1.240 . S
C339 Gd336 2.818 . S
C339 C340 1.510 . S
C339 O358 1.249 . S
C339 O359 1.252 . S
C340 C339 1.510 . S
C340 C341 1.404 . S
C340 C342 1.352 . S
C341 C340 1.404 . S
C341 C345 1.389 . S
C341 H368 0.930 . S
C342 C340 1.352 . S
C342 C344 1.374 . S
C342 H369 0.931 . S
C343 C344 1.359 . S
C343 C345 1.364 . S
C344 C342 1.374 . S
C344 C343 1.359 . S
C344 H370 0.931 . S
C345 C341 1.389 . S
C345 C343 1.364 . S
C345 H371 0.931 . S
C346 O360 1.256 . S
C346 O361 1.257 . S
C347 O362 1.240 . S
C347 O363 1.240 . S
C348 Gd337 2.818 . S
C348 C349 1.510 . S
C348 O364 1.249 . S
C348 O365 1.252 . S
C349 C348 1.510 . S
C349 C350 1.404 . S
C349 C351 1.352 . S
C350 C349 1.404 . S
C350 C354 1.389 . S
C350 H372 0.930 . S
C351 C349 1.352 . S
C351 C353 1.374 . S
C351 H373 0.931 . S
C352 C353 1.359 . S
C352 C354 1.364 . S
C353 C351 1.374 . S
C353 C352 1.359 . S
C353 H374 0.931 . S
C354 C350 1.389 . S
C354 C352 1.364 . S
C354 H375 0.931 . S
C355 O366 1.256 . S
C355 O367 1.257 . S
O356 Gd336 2.377 . S
O356 C338 1.240 . S
O357 Gd337 2.395 . S
O357 C338 1.240 . S
O358 Gd336 2.448 . S
O358 C339 1.249 . S
O359 Gd336 2.506 . S
O359 C339 1.252 . S
O360 Gd336 2.435 . S
O360 C346 1.256 . S
O361 Gd336 2.717 . S
O361 Gd337 2.327 . S
O361 C346 1.257 . S
O362 Gd337 2.377 . S
O362 C347 1.240 . S
O363 Gd336 2.395 . S
O363 C347 1.240 . S
O364 Gd337 2.448 . S
O364 C348 1.249 . S
O365 Gd337 2.506 . S
O365 C348 1.252 . S
O366 Gd337 2.435 . S
O366 C355 1.256 . S
O367 Gd336 2.327 . S
O367 Gd337 2.717 . S
O367 C355 1.257 . S
H368 C341 0.930 . S
H369 C342 0.931 . S
H370 C344 0.931 . S
H371 C345 0.931 . S
H372 C350 0.930 . S
H373 C351 0.931 . S
H374 C353 0.931 . S
H375 C354 0.931 . S
Gd376 C379 2.818 . S
Gd376 O396 2.377 . S
Gd376 O398 2.448 . S
Gd376 O399 2.506 . S
Gd376 O400 2.435 . S
Gd376 O401 2.717 1_655 S
Gd376 O403 2.395 1_655 S
Gd376 O407 2.327 . S
Gd377 C388 2.818 . S
Gd377 O397 2.395 1_455 S
Gd377 O401 2.327 . S
Gd377 O402 2.377 . S
Gd377 O404 2.448 . S
Gd377 O405 2.506 . S
Gd377 O406 2.435 . S
Gd377 O407 2.717 1_455 S
C378 O396 1.240 . S
C378 O397 1.240 . S
C379 Gd376 2.818 . S
C379 C380 1.510 . S
C379 O398 1.249 . S
C379 O399 1.252 . S
C380 C379 1.510 . S
C380 C381 1.404 . S
C380 C382 1.352 . S
C381 C380 1.404 . S
C381 C385 1.389 . S
C381 H408 0.930 . S
C382 C380 1.352 . S
C382 C384 1.374 . S
C382 H409 0.931 . S
C383 C384 1.359 . S
C383 C385 1.364 . S
C384 C382 1.374 . S
C384 C383 1.359 . S
C384 H410 0.931 . S
C385 C381 1.389 . S
C385 C383 1.364 . S
C385 H411 0.931 . S
C386 O400 1.276 . S
C386 O401 1.247 1_655 S
C387 O402 1.240 . S
C387 O403 1.240 . S
C388 Gd377 2.818 . S
C388 C389 1.510 . S
C388 O404 1.249 . S
C388 O405 1.252 . S
C389 C388 1.510 . S
C389 C390 1.404 . S
C389 C391 1.352 . S
C390 C389 1.404 . S
C390 C394 1.389 . S
C390 H412 0.930 . S
C391 C389 1.352 . S
C391 C393 1.374 . S
C391 H413 0.931 . S
C392 C393 1.359 . S
C392 C394 1.364 . S
C393 C391 1.374 . S
C393 C392 1.359 . S
C393 H414 0.931 . S
C394 C390 1.389 . S
C394 C392 1.364 . S
C394 H415 0.931 . S
C395 O406 1.256 . S
C395 O407 1.257 1_455 S
O396 Gd376 2.377 . S
O396 C378 1.240 . S
O397 Gd377 2.395 1_655 S
O397 C378 1.240 . S
O398 Gd376 2.448 . S
O398 C379 1.249 . S
O399 Gd376 2.506 . S
O399 C379 1.252 . S
O400 Gd376 2.435 . S
O400 C386 1.276 . S
O401 Gd376 2.717 1_455 S
O401 Gd377 2.327 . S
O401 C386 1.247 1_455 S
O402 Gd377 2.377 . S
O402 C387 1.240 . S
O403 Gd376 2.395 1_455 S
O403 C387 1.240 . S
O404 Gd377 2.448 . S
O404 C388 1.249 . S
O405 Gd377 2.506 . S
O405 C388 1.252 . S
O406 Gd377 2.435 . S
O406 C395 1.256 . S
O407 Gd376 2.327 . S
O407 Gd377 2.717 1_655 S
O407 C395 1.257 1_655 S
H408 C381 0.930 . S
H409 C382 0.931 . S
H410 C384 0.931 . S
H411 C385 0.931 . S
H412 C390 0.930 . S
H413 C391 0.931 . S
H414 C393 0.931 . S
H415 C394 0.931 . S
C416 C417 1.391 . S
C416 C418 1.394 . S
C416 H432 0.931 . S
C417 C416 1.391 . S
C417 C421 1.376 1_545 S
C418 C416 1.394 . S
C418 C419 1.369 . S
C418 C422 1.531 . S
C419 C418 1.369 . S
C419 C420 1.410 1_545 S
C419 C427 1.503 . S
C420 C419 1.410 1_565 S
C420 C421 1.392 . S
C420 C423 1.511 . S
C421 C417 1.376 1_565 S
C421 C420 1.392 . S
C421 H433 0.929 . S
C422 C418 1.531 . S
C422 H434 0.960 . S
C422 H435 0.962 . S
C422 H436 0.960 . S
C423 C420 1.511 . S
C423 H437 0.961 . S
C423 H438 0.961 . S
C423 H439 0.961 . S
C424 C425 1.370 1_565 S
C424 C426 1.363 . S
C424 H440 0.931 . S
C425 C424 1.370 1_545 S
C425 C429 1.408 . S
C426 C424 1.363 . S
C426 C427 1.370 1_565 S
C426 C430 1.524 . S
C427 C419 1.503 . S
C427 C426 1.370 1_545 S
C427 C428 1.403 . S
C428 C427 1.403 . S
C428 C429 1.404 . S
C428 C431 1.539 . S
C429 C425 1.408 . S
C429 C428 1.404 . S
C429 H441 0.930 . S
C430 C426 1.524 . S
C430 H442 0.956 1_565 S
C430 H443 0.961 . S
C430 H444 0.961 . S
C431 C428 1.539 . S
C431 H445 0.958 . S
C431 H446 0.961 . S
C431 H447 0.960 . S
H432 C416 0.931 . S
H433 C421 0.929 . S
H434 C422 0.960 . S
H435 C422 0.962 . S
H436 C422 0.960 . S
H437 C423 0.961 . S
H438 C423 0.961 . S
H439 C423 0.961 . S
H440 C424 0.931 . S
H441 C429 0.930 . S
H442 C430 0.956 1_545 S
H443 C430 0.961 . S
H444 C430 0.961 . S
H445 C431 0.958 . S
H446 C431 0.961 . S
H447 C431 0.960 . S
C448 C449 1.391 . S
C448 C450 1.394 . S
C448 H464 0.931 . S
C449 C448 1.391 . S
C449 C453 1.376 . S
C450 C448 1.394 . S
C450 C451 1.369 . S
C450 C454 1.531 . S
C451 C450 1.369 . S
C451 C452 1.410 . S
C451 C459 1.503 . S
C452 C451 1.410 . S
C452 C453 1.392 . S
C452 C455 1.511 . S
C453 C449 1.376 . S
C453 C452 1.392 . S
C453 H465 0.929 . S
C454 C450 1.531 . S
C454 H466 0.960 . S
C454 H467 0.962 . S
C454 H468 0.960 . S
C455 C452 1.511 . S
C455 H469 0.961 . S
C455 H470 0.961 . S
C455 H471 0.961 . S
C456 C457 1.370 . S
C456 C458 1.363 . S
C456 H472 0.931 . S
C457 C456 1.370 . S
C457 C461 1.408 . S
C458 C456 1.363 . S
C458 C459 1.370 . S
C458 C462 1.524 . S
C459 C451 1.503 . S
C459 C458 1.370 . S
C459 C460 1.403 . S
C460 C459 1.403 . S
C460 C461 1.404 . S
C460 C463 1.539 . S
C461 C457 1.408 . S
C461 C460 1.404 . S
C461 H473 0.930 . S
C462 C458 1.524 . S
C462 H474 0.956 . S
C462 H475 0.961 . S
C462 H476 0.961 . S
C463 C460 1.539 . S
C463 H477 0.958 . S
C463 H478 0.961 . S
C463 H479 0.960 . S
H464 C448 0.931 . S
H465 C453 0.929 . S
H466 C454 0.960 . S
H467 C454 0.962 . S
H468 C454 0.960 . S
H469 C455 0.961 . S
H470 C455 0.961 . S
H471 C455 0.961 . S
H472 C456 0.931 . S
H473 C461 0.930 . S
H474 C462 0.956 . S
H475 C462 0.961 . S
H476 C462 0.961 . S
H477 C463 0.958 . S
H478 C463 0.961 . S
H479 C463 0.960 . S
C480 C481 1.391 . S
C480 C482 1.394 . S
C480 H496 0.931 . S
C481 C480 1.391 . S
C481 C485 1.376 . S
C482 C480 1.394 . S
C482 C483 1.369 . S
C482 C486 1.531 . S
C483 C482 1.369 . S
C483 C484 1.410 . S
C483 C491 1.503 . S
C484 C483 1.410 . S
C484 C485 1.392 . S
C484 C487 1.511 . S
C485 C481 1.376 . S
C485 C484 1.392 . S
C485 H497 0.929 . S
C486 C482 1.531 . S
C486 H498 0.960 . S
C486 H499 0.962 . S
C486 H500 0.960 . S
C487 C484 1.511 . S
C487 H501 0.961 . S
C487 H502 0.961 . S
C487 H503 0.961 . S
C488 C489 1.370 . S
C488 C490 1.363 . S
C488 H504 0.931 . S
C489 C488 1.370 . S
C489 C493 1.408 . S
C490 C488 1.363 . S
C490 C491 1.370 . S
C490 C494 1.524 . S
C491 C483 1.503 . S
C491 C490 1.370 . S
C491 C492 1.403 . S
C492 C491 1.403 . S
C492 C493 1.404 . S
C492 C495 1.539 . S
C493 C489 1.408 . S
C493 C492 1.404 . S
C493 H505 0.930 . S
C494 C490 1.524 . S
C494 H506 0.956 . S
C494 H507 0.961 . S
C494 H508 0.961 . S
C495 C492 1.539 . S
C495 H509 0.958 . S
C495 H510 0.961 . S
C495 H511 0.960 . S
H496 C480 0.931 . S
H497 C485 0.929 . S
H498 C486 0.960 . S
H499 C486 0.962 . S
H500 C486 0.960 . S
H501 C487 0.961 . S
H502 C487 0.961 . S
H503 C487 0.961 . S
H504 C488 0.931 . S
H505 C493 0.930 . S
H506 C494 0.956 . S
H507 C494 0.961 . S
H508 C494 0.961 . S
H509 C495 0.958 . S
H510 C495 0.961 . S
H511 C495 0.960 . S
C512 C513 1.391 1_655 S
C512 C514 1.394 . S
C512 H528 0.931 . S
C513 C512 1.391 1_455 S
C513 C517 1.376 . S
C514 C512 1.394 . S
C514 C515 1.369 1_655 S
C514 C518 1.531 . S
C515 C514 1.369 1_455 S
C515 C516 1.410 . S
C515 C523 1.503 . S
C516 C515 1.410 . S
C516 C517 1.392 . S
C516 C519 1.511 . S
C517 C513 1.376 . S
C517 C516 1.392 . S
C517 H529 0.929 . S
C518 C514 1.531 . S
C518 H530 0.960 . S
C518 H531 0.962 . S
C518 H532 0.960 . S
C519 C516 1.511 . S
C519 H533 0.961 . S
C519 H534 0.961 . S
C519 H535 0.961 . S
C520 C521 1.370 1_655 S
C520 C522 1.363 . S
C520 H536 0.931 . S
C521 C520 1.370 1_455 S
C521 C525 1.408 . S
C522 C520 1.363 . S
C522 C523 1.370 1_655 S
C522 C526 1.524 . S
C523 C515 1.503 . S
C523 C522 1.370 1_455 S
C523 C524 1.403 . S
C524 C523 1.403 . S
C524 C525 1.404 . S
C524 C527 1.539 . S
C525 C521 1.408 . S
C525 C524 1.404 . S
C525 H537 0.930 . S
C526 C522 1.524 . S
C526 H538 0.956 . S
C526 H539 0.961 1_655 S
C526 H540 0.961 . S
C527 C524 1.539 . S
C527 H541 0.958 . S
C527 H542 0.961 . S
C527 H543 0.960 . S
H528 C512 0.931 . S
H529 C517 0.929 . S
H530 C518 0.960 . S
H531 C518 0.962 . S
H532 C518 0.960 . S
H533 C519 0.961 . S
H534 C519 0.961 . S
H535 C519 0.961 . S
H536 C520 0.931 . S
H537 C525 0.930 . S
H538 C526 0.956 . S
H539 C526 0.961 1_455 S
H540 C526 0.961 . S
H541 C527 0.958 . S
H542 C527 0.961 . S
H543 C527 0.960 . S
C544 C545 1.391 . S
C544 C546 1.394 . S
C544 H560 0.931 . S
C545 C544 1.391 . S
C545 C549 1.376 . S
C546 C544 1.394 . S
C546 C547 1.369 . S
C546 C550 1.531 . S
C547 C546 1.369 . S
C547 C548 1.410 . S
C547 C555 1.503 . S
C548 C547 1.410 . S
C548 C549 1.392 . S
C548 C551 1.511 . S
C549 C545 1.376 . S
C549 C548 1.392 . S
C549 H561 0.929 . S
C550 C546 1.531 . S
C550 H562 0.960 . S
C550 H563 0.962 1_565 S
C550 H564 0.960 . S
C551 C548 1.511 . S
C551 H565 0.961 . S
C551 H566 0.961 1_554 S
C551 H567 0.961 . S
C552 C553 1.370 1_545 S
C552 C554 1.363 . S
C552 H568 0.931 . S
C553 C552 1.370 1_565 S
C553 C557 1.408 . S
C554 C552 1.363 . S
C554 C555 1.370 1_546 S
C554 C558 1.524 1_556 S
C555 C547 1.503 . S
C555 C554 1.370 1_564 S
C555 C556 1.403 1_554 S
C556 C555 1.403 1_556 S
C556 C557 1.404 . S
C556 C559 1.539 1_556 S
C557 C553 1.408 . S
C557 C556 1.404 . S
C557 H569 0.930 . S
C558 C554 1.524 1_554 S
C558 H570 0.956 . S
C558 H571 0.961 . S
C558 H572 0.961 1_554 S
C559 C556 1.539 1_554 S
C559 H573 0.958 . S
C559 H574 0.961 1_554 S
C559 H575 0.960 . S
H560 C544 0.931 . S
H561 C549 0.929 . S
H562 C550 0.960 . S
H563 C550 0.962 1_545 S
H564 C550 0.960 . S
H565 C551 0.961 . S
H566 C551 0.961 1_556 S
H567 C551 0.961 . S
H568 C552 0.931 . S
H569 C557 0.930 . S
H570 C558 0.956 . S
H571 C558 0.961 . S
H572 C558 0.961 1_556 S
H573 C559 0.958 . S
H574 C559 0.961 1_556 S
H575 C559 0.960 . S
C576 C577 1.391 . S
C576 C578 1.394 . S
C576 H592 0.931 . S
C577 C576 1.391 . S
C577 C581 1.376 . S
C578 C576 1.394 . S
C578 C579 1.369 . S
C578 C582 1.531 . S
C579 C578 1.369 . S
C579 C580 1.410 . S
C579 C587 1.503 . S
C580 C579 1.410 . S
C580 C581 1.392 . S
C580 C583 1.511 . S
C581 C577 1.376 . S
C581 C580 1.392 . S
C581 H593 0.929 . S
C582 C578 1.531 . S
C582 H594 0.960 . S
C582 H595 0.962 . S
C582 H596 0.960 . S
C583 C580 1.511 . S
C583 H597 0.961 . S
C583 H598 0.961 . S
C583 H599 0.961 . S
C584 C585 1.370 . S
C584 C586 1.363 . S
C584 H600 0.931 . S
C585 C584 1.370 . S
C585 C589 1.408 . S
C586 C584 1.363 . S
C586 C587 1.370 1_556 S
C586 C590 1.524 . S
C587 C579 1.503 . S
C587 C586 1.370 1_554 S
C587 C588 1.403 . S
C588 C587 1.403 . S
C588 C589 1.404 1_554 S
C588 C591 1.539 . S
C589 C585 1.408 . S
C589 C588 1.404 1_556 S
C589 H601 0.930 . S
C590 C586 1.524 . S
C590 H602 0.956 . S
C590 H603 0.961 1_556 S
C590 H604 0.961 . S
C591 C588 1.539 . S
C591 H605 0.958 . S
C591 H606 0.961 . S
C591 H607 0.960 . S
H592 C576 0.931 . S
H593 C581 0.929 . S
H594 C582 0.960 . S
H595 C582 0.962 . S
H596 C582 0.960 . S
H597 C583 0.961 . S
H598 C583 0.961 . S
H599 C583 0.961 . S
H600 C584 0.931 . S
H601 C589 0.930 . S
H602 C590 0.956 . S
H603 C590 0.961 1_554 S
H604 C590 0.961 . S
H605 C591 0.958 . S
H606 C591 0.961 . S
H607 C591 0.960 . S
C608 C609 1.391 . S
C608 C610 1.394 . S
C608 H624 0.931 . S
C609 C608 1.391 . S
C609 C613 1.376 . S
C610 C608 1.394 . S
C610 C611 1.369 . S
C610 C614 1.531 . S
C611 C610 1.369 . S
C611 C612 1.410 . S
C611 C619 1.503 . S
C612 C611 1.410 . S
C612 C613 1.392 . S
C612 C615 1.511 . S
C613 C609 1.376 . S
C613 C612 1.392 . S
C613 H625 0.929 . S
C614 C610 1.531 . S
C614 H626 0.960 . S
C614 H627 0.962 . S
C614 H628 0.960 . S
C615 C612 1.511 . S
C615 H629 0.961 . S
C615 H630 0.961 . S
C615 H631 0.961 . S
C616 C617 1.370 . S
C616 C618 1.363 . S
C616 H632 0.931 . S
C617 C616 1.370 . S
C617 C621 1.408 . S
C618 C616 1.363 . S
C618 C619 1.370 1_556 S
C618 C622 1.524 . S
C619 C611 1.503 . S
C619 C618 1.370 1_554 S
C619 C620 1.403 . S
C620 C619 1.403 . S
C620 C621 1.404 1_554 S
C620 C623 1.539 . S
C621 C617 1.408 . S
C621 C620 1.404 1_556 S
C621 H633 0.930 . S
C622 C618 1.524 . S
C622 H634 0.956 . S
C622 H635 0.961 1_556 S
C622 H636 0.961 . S
C623 C620 1.539 . S
C623 H637 0.958 . S
C623 H638 0.961 . S
C623 H639 0.960 . S
H624 C608 0.931 . S
H625 C613 0.929 . S
H626 C614 0.960 . S
H627 C614 0.962 . S
H628 C614 0.960 . S
H629 C615 0.961 . S
H630 C615 0.961 . S
H631 C615 0.961 . S
H632 C616 0.931 . S
H633 C621 0.930 . S
H634 C622 0.956 . S
H635 C622 0.961 1_554 S
H636 C622 0.961 . S
H637 C623 0.958 . S
H638 C623 0.961 . S
H639 C623 0.960 . S
C640 C641 1.391 . S
C640 C642 1.394 . S
C640 H656 0.931 . S
C641 C640 1.391 . S
C641 C645 1.376 . S
C642 C640 1.394 . S
C642 C643 1.369 . S
C642 C646 1.531 . S
C643 C642 1.369 . S
C643 C644 1.410 . S
C643 C651 1.503 . S
C644 C643 1.410 . S
C644 C645 1.392 . S
C644 C647 1.511 . S
C645 C641 1.376 . S
C645 C644 1.392 . S
C645 H657 0.929 . S
C646 C642 1.531 . S
C646 H658 0.960 . S
C646 H659 0.962 1_655 S
C646 H660 0.960 . S
C647 C644 1.511 . S
C647 H661 0.961 . S
C647 H662 0.961 1_554 S
C647 H663 0.961 . S
C648 C649 1.370 1_455 S
C648 C650 1.363 . S
C648 H664 0.931 . S
C649 C648 1.370 1_655 S
C649 C653 1.408 . S
C650 C648 1.363 . S
C650 C651 1.370 1_456 S
C650 C654 1.524 1_556 S
C651 C643 1.503 . S
C651 C650 1.370 1_654 S
C651 C652 1.403 1_554 S
C652 C651 1.403 1_556 S
C652 C653 1.404 . S
C652 C655 1.539 1_556 S
C653 C649 1.408 . S
C653 C652 1.404 . S
C653 H665 0.930 . S
C654 C650 1.524 1_554 S
C654 H666 0.956 . S
C654 H667 0.961 . S
C654 H668 0.961 1_554 S
C655 C652 1.539 1_554 S
C655 H669 0.958 . S
C655 H670 0.961 1_554 S
C655 H671 0.960 . S
H656 C640 0.931 . S
H657 C645 0.929 . S
H658 C646 0.960 . S
H659 C646 0.962 1_455 S
H660 C646 0.960 . S
H661 C647 0.961 . S
H662 C647 0.961 1_556 S
H663 C647 0.961 . S
H664 C648 0.931 . S
H665 C653 0.930 . S
H666 C654 0.956 . S
H667 C654 0.961 . S
H668 C654 0.961 1_556 S
H669 C655 0.958 . S
H670 C655 0.961 1_556 S
H671 C655 0.960 . S
C672 C673 1.391 1_655 S
C672 C674 1.394 . S
C672 H688 0.931 . S
C673 C672 1.391 1_455 S
C673 C677 1.376 . S
C674 C672 1.394 . S
C674 C675 1.369 . S
C674 C678 1.531 . S
C675 C674 1.369 . S
C675 C676 1.410 1_655 S
C675 C683 1.503 . S
C676 C675 1.410 1_455 S
C676 C677 1.392 . S
C676 C679 1.511 . S
C677 C673 1.376 . S
C677 C676 1.392 . S
C677 H689 0.929 . S
C678 C674 1.531 . S
C678 H690 0.960 . S
C678 H691 0.962 . S
C678 H692 0.960 . S
C679 C676 1.511 . S
C679 H693 0.961 . S
C679 H694 0.961 . S
C679 H695 0.961 . S
C680 C681 1.370 . S
C680 C682 1.363 . S
C680 H696 0.931 . S
C681 C680 1.370 . S
C681 C685 1.408 . S
C682 C680 1.363 . S
C682 C683 1.370 . S
C682 C686 1.524 . S
C683 C675 1.503 . S
C683 C682 1.370 . S
C683 C684 1.403 . S
C684 C683 1.403 . S
C684 C685 1.404 . S
C684 C687 1.539 1_655 S
C685 C681 1.408 . S
C685 C684 1.404 . S
C685 H697 0.930 . S
C686 C682 1.524 . S
C686 H698 0.956 . S
C686 H699 0.961 . S
C686 H700 0.961 . S
C687 C684 1.539 1_455 S
C687 H701 0.958 1_455 S
C687 H702 0.961 . S
C687 H703 0.960 . S
H688 C672 0.931 . S
H689 C677 0.929 . S
H690 C678 0.960 . S
H691 C678 0.962 . S
H692 C678 0.960 . S
H693 C679 0.961 . S
H694 C679 0.961 . S
H695 C679 0.961 . S
H696 C680 0.931 . S
H697 C685 0.930 . S
H698 C686 0.956 . S
H699 C686 0.961 . S
H700 C686 0.961 . S
H701 C687 0.958 1_655 S
H702 C687 0.961 . S
H703 C687 0.960 . S
C704 C705 1.391 . S
C704 C706 1.394 . S
C704 H720 0.931 . S
C705 C704 1.391 . S
C705 C709 1.376 1_545 S
C706 C704 1.394 . S
C706 C707 1.369 1_545 S
C706 C710 1.531 . S
C707 C706 1.369 1_565 S
C707 C708 1.410 . S
C707 C715 1.503 . S
C708 C707 1.410 . S
C708 C709 1.392 . S
C708 C711 1.511 . S
C709 C705 1.376 1_565 S
C709 C708 1.392 . S
C709 H721 0.929 . S
C710 C706 1.531 . S
C710 H722 0.960 . S
C710 H723 0.962 . S
C710 H724 0.960 . S
C711 C708 1.511 . S
C711 H725 0.961 . S
C711 H726 0.961 . S
C711 H727 0.961 . S
C712 C713 1.370 . S
C712 C714 1.363 . S
C712 H728 0.931 . S
C713 C712 1.370 . S
C713 C717 1.408 . S
C714 C712 1.363 . S
C714 C715 1.370 . S
C714 C718 1.524 . S
C715 C707 1.503 . S
C715 C714 1.370 . S
C715 C716 1.403 . S
C716 C715 1.403 . S
C716 C717 1.404 . S
C716 C719 1.539 1_565 S
C717 C713 1.408 . S
C717 C716 1.404 . S
C717 H729 0.930 . S
C718 C714 1.524 . S
C718 H730 0.956 . S
C718 H731 0.961 . S
C718 H732 0.961 . S
C719 C716 1.539 1_545 S
C719 H733 0.958 . S
C719 H734 0.961 . S
C719 H735 0.960 . S
H720 C704 0.931 . S
H721 C709 0.929 . S
H722 C710 0.960 . S
H723 C710 0.962 . S
H724 C710 0.960 . S
H725 C711 0.961 . S
H726 C711 0.961 . S
H727 C711 0.961 . S
H728 C712 0.931 . S
H729 C717 0.930 . S
H730 C718 0.956 . S
H731 C718 0.961 . S
H732 C718 0.961 . S
H733 C719 0.958 . S
H734 C719 0.961 . S
H735 C719 0.960 . S
C736 C737 1.391 . S
C736 C738 1.394 . S
C736 H752 0.931 . S
C737 C736 1.391 . S
C737 C741 1.376 . S
C738 C736 1.394 . S
C738 C739 1.369 . S
C738 C742 1.531 . S
C739 C738 1.369 . S
C739 C740 1.410 . S
C739 C747 1.503 . S
C740 C739 1.410 . S
C740 C741 1.392 . S
C740 C743 1.511 . S
C741 C737 1.376 . S
C741 C740 1.392 . S
C741 H753 0.929 . S
C742 C738 1.531 . S
C742 H754 0.960 . S
C742 H755 0.962 . S
C742 H756 0.960 . S
C743 C740 1.511 . S
C743 H757 0.961 . S
C743 H758 0.961 . S
C743 H759 0.961 . S
C744 C745 1.370 . S
C744 C746 1.363 . S
C744 H760 0.931 . S
C745 C744 1.370 . S
C745 C749 1.408 . S
C746 C744 1.363 . S
C746 C747 1.370 . S
C746 C750 1.524 . S
C747 C739 1.503 . S
C747 C746 1.370 . S
C747 C748 1.403 . S
C748 C747 1.403 . S
C748 C749 1.404 . S
C748 C751 1.539 . S
C749 C745 1.408 . S
C749 C748 1.404 . S
C749 H761 0.930 . S
C750 C746 1.524 . S
C750 H762 0.956 . S
C750 H763 0.961 . S
C750 H764 0.961 . S
C751 C748 1.539 . S
C751 H765 0.958 . S
C751 H766 0.961 . S
C751 H767 0.960 . S
H752 C736 0.931 . S
H753 C741 0.929 . S
H754 C742 0.960 . S
H755 C742 0.962 . S
H756 C742 0.960 . S
H757 C743 0.961 . S
H758 C743 0.961 . S
H759 C743 0.961 . S
H760 C744 0.931 . S
H761 C749 0.930 . S
H762 C750 0.956 . S
H763 C750 0.961 . S
H764 C750 0.961 . S
H765 C751 0.958 . S
H766 C751 0.961 . S
H767 C751 0.960 . S
C768 C769 1.391 . S
C768 C770 1.394 . S
C768 H784 0.931 . S
C769 C768 1.391 . S
C769 C773 1.376 . S
C770 C768 1.394 . S
C770 C771 1.369 . S
C770 C774 1.531 . S
C771 C770 1.369 . S
C771 C772 1.410 . S
C771 C779 1.503 . S
C772 C771 1.410 . S
C772 C773 1.392 . S
C772 C775 1.511 . S
C773 C769 1.376 . S
C773 C772 1.392 . S
C773 H785 0.929 . S
C774 C770 1.531 . S
C774 H786 0.960 . S
C774 H787 0.962 . S
C774 H788 0.960 . S
C775 C772 1.511 . S
C775 H789 0.961 . S
C775 H790 0.961 . S
C775 H791 0.961 . S
C776 C777 1.370 . S
C776 C778 1.363 . S
C776 H792 0.931 . S
C777 C776 1.370 . S
C777 C781 1.408 . S
C778 C776 1.363 . S
C778 C779 1.370 . S
C778 C782 1.524 . S
C779 C771 1.503 . S
C779 C778 1.370 . S
C779 C780 1.403 . S
C780 C779 1.403 . S
C780 C781 1.404 . S
C780 C783 1.539 . S
C781 C777 1.408 . S
C781 C780 1.404 . S
C781 H793 0.930 . S
C782 C778 1.524 . S
C782 H794 0.956 . S
C782 H795 0.961 . S
C782 H796 0.961 . S
C783 C780 1.539 . S
C783 H797 0.958 . S
C783 H798 0.961 . S
C783 H799 0.960 . S
H784 C768 0.931 . S
H785 C773 0.929 . S
H786 C774 0.960 . S
H787 C774 0.962 . S
H788 C774 0.960 . S
H789 C775 0.961 . S
H790 C775 0.961 . S
H791 C775 0.961 . S
H792 C776 0.931 . S
H793 C781 0.930 . S
H794 C782 0.956 . S
H795 C782 0.961 . S
H796 C782 0.961 . S
H797 C783 0.958 . S
H798 C783 0.961 . S
H799 C783 0.960 . S
C800 C801 1.391 1_455 S
C800 C802 1.394 . S
C800 H816 0.931 . S
C801 C800 1.391 1_655 S
C801 C805 1.376 . S
C802 C800 1.394 . S
C802 C803 1.369 . S
C802 C806 1.531 1_554 S
C803 C802 1.369 . S
C803 C804 1.410 1_455 S
C803 C811 1.503 . S
C804 C803 1.410 1_655 S
C804 C805 1.392 . S
C804 C807 1.511 . S
C805 C801 1.376 . S
C805 C804 1.392 . S
C805 H817 0.929 . S
C806 C802 1.531 1_556 S
C806 H818 0.960 . S
C806 H819 0.962 . S
C806 H820 0.960 . S
C807 C804 1.511 . S
C807 H821 0.961 . S
C807 H822 0.961 1_655 S
C807 H823 0.961 . S
C808 C809 1.370 1_554 S
C808 C810 1.363 . S
C808 H824 0.931 . S
C809 C808 1.370 1_556 S
C809 C813 1.408 . S
C810 C808 1.363 . S
C810 C811 1.370 . S
C810 C814 1.524 . S
C811 C803 1.503 . S
C811 C810 1.370 . S
C811 C812 1.403 1_554 S
C812 C811 1.403 1_556 S
C812 C813 1.404 . S
C812 C815 1.539 1_455 S
C813 C809 1.408 . S
C813 C812 1.404 . S
C813 H825 0.930 . S
C814 C810 1.524 . S
C814 H826 0.956 . S
C814 H827 0.961 . S
C814 H828 0.961 . S
C815 C812 1.539 1_655 S
C815 H829 0.958 . S
C815 H830 0.961 . S
C815 H831 0.960 1_556 S
H816 C800 0.931 . S
H817 C805 0.929 . S
H818 C806 0.960 . S
H819 C806 0.962 . S
H820 C806 0.960 . S
H821 C807 0.961 . S
H822 C807 0.961 1_455 S
H823 C807 0.961 . S
H824 C808 0.931 . S
H825 C813 0.930 . S
H826 C814 0.956 . S
H827 C814 0.961 . S
H828 C814 0.961 . S
H829 C815 0.958 . S
H830 C815 0.961 . S
H831 C815 0.960 1_554 S
C832 C833 1.391 1_545 S
C832 C834 1.394 . S
C832 H848 0.931 . S
C833 C832 1.391 1_565 S
C833 C837 1.376 . S
C834 C832 1.394 . S
C834 C835 1.369 . S
C834 C838 1.531 . S
C835 C834 1.369 . S
C835 C836 1.410 . S
C835 C843 1.503 . S
C836 C835 1.410 . S
C836 C837 1.392 1_545 S
C836 C839 1.511 1_554 S
C837 C833 1.376 . S
C837 C836 1.392 1_565 S
C837 H849 0.929 . S
C838 C834 1.531 . S
C838 H850 0.960 . S
C838 H851 0.962 . S
C838 H852 0.960 . S
C839 C836 1.511 1_556 S
C839 H853 0.961 1_545 S
C839 H854 0.961 . S
C839 H855 0.961 . S
C840 C841 1.370 1_554 S
C840 C842 1.363 . S
C840 H856 0.931 1_554 S
C841 C840 1.370 1_556 S
C841 C845 1.408 . S
C842 C840 1.363 . S
C842 C843 1.370 . S
C842 C846 1.524 1_545 S
C843 C835 1.503 . S
C843 C842 1.370 . S
C843 C844 1.403 . S
C844 C843 1.403 . S
C844 C845 1.404 1_554 S
C844 C847 1.539 . S
C845 C841 1.408 . S
C845 C844 1.404 1_556 S
C845 H857 0.930 . S
C846 C842 1.524 1_565 S
C846 H858 0.956 . S
C846 H859 0.961 . S
C846 H860 0.961 . S
C847 C844 1.539 . S
C847 H861 0.958 . S
C847 H862 0.961 1_554 S
C847 H863 0.960 . S
H848 C832 0.931 . S
H849 C837 0.929 . S
H850 C838 0.960 . S
H851 C838 0.962 . S
H852 C838 0.960 . S
H853 C839 0.961 1_565 S
H854 C839 0.961 . S
H855 C839 0.961 . S
H856 C840 0.931 1_556 S
H857 C845 0.930 . S
H858 C846 0.956 . S
H859 C846 0.961 . S
H860 C846 0.961 . S
H861 C847 0.958 . S
H862 C847 0.961 1_556 S
H863 C847 0.960 . S
C864 C865 1.391 . S
C864 C866 1.394 . S
C864 H880 0.931 . S
C865 C864 1.391 . S
C865 C869 1.376 . S
C866 C864 1.394 . S
C866 C867 1.369 . S
C866 C870 1.531 . S
C867 C866 1.369 . S
C867 C868 1.410 . S
C867 C875 1.503 . S
C868 C867 1.410 . S
C868 C869 1.392 . S
C868 C871 1.511 . S
C869 C865 1.376 . S
C869 C868 1.392 . S
C869 H881 0.929 . S
C870 C866 1.531 . S
C870 H882 0.960 1_554 S
C870 H883 0.962 . S
C870 H884 0.960 1_554 S
C871 C868 1.511 . S
C871 H885 0.961 . S
C871 H886 0.961 . S
C871 H887 0.961 . S
C872 C873 1.370 1_554 S
C872 C874 1.363 . S
C872 H888 0.931 . S
C873 C872 1.370 1_556 S
C873 C877 1.408 . S
C874 C872 1.363 . S
C874 C875 1.370 . S
C874 C878 1.524 . S
C875 C867 1.503 . S
C875 C874 1.370 . S
C875 C876 1.403 1_554 S
C876 C875 1.403 1_556 S
C876 C877 1.404 . S
C876 C879 1.539 . S
C877 C873 1.408 . S
C877 C876 1.404 . S
C877 H889 0.930 . S
C878 C874 1.524 . S
C878 H890 0.956 . S
C878 H891 0.961 . S
C878 H892 0.961 . S
C879 C876 1.539 . S
C879 H893 0.958 . S
C879 H894 0.961 . S
C879 H895 0.960 . S
H880 C864 0.931 . S
H881 C869 0.929 . S
H882 C870 0.960 1_556 S
H883 C870 0.962 . S
H884 C870 0.960 1_556 S
H885 C871 0.961 . S
H886 C871 0.961 . S
H887 C871 0.961 . S
H888 C872 0.931 . S
H889 C877 0.930 . S
H890 C878 0.956 . S
H891 C878 0.961 . S
H892 C878 0.961 . S
H893 C879 0.958 . S
H894 C879 0.961 . S
H895 C879 0.960 . S
C896 C897 1.391 . S
C896 C898 1.394 . S
C896 H912 0.931 . S
C897 C896 1.391 . S
C897 C901 1.376 . S
C898 C896 1.394 . S
C898 C899 1.369 . S
C898 C902 1.531 1_554 S
C899 C898 1.369 . S
C899 C900 1.410 . S
C899 C907 1.503 . S
C900 C899 1.410 . S
C900 C901 1.392 . S
C900 C903 1.511 . S
C901 C897 1.376 . S
C901 C900 1.392 . S
C901 H913 0.929 . S
C902 C898 1.531 1_556 S
C902 H914 0.960 . S
C902 H915 0.962 1_556 S
C902 H916 0.960 . S
C903 C900 1.511 . S
C903 H917 0.961 . S
C903 H918 0.961 . S
C903 H919 0.961 . S
C904 C905 1.370 1_554 S
C904 C906 1.363 . S
C904 H920 0.931 . S
C905 C904 1.370 1_556 S
C905 C909 1.408 . S
C906 C904 1.363 . S
C906 C907 1.370 . S
C906 C910 1.524 . S
C907 C899 1.503 . S
C907 C906 1.370 . S
C907 C908 1.403 1_554 S
C908 C907 1.403 1_556 S
C908 C909 1.404 . S
C908 C911 1.539 . S
C909 C905 1.408 . S
C909 C908 1.404 . S
C909 H921 0.930 . S
C910 C906 1.524 . S
C910 H922 0.956 . S
C910 H923 0.961 . S
C910 H924 0.961 . S
C911 C908 1.539 . S
C911 H925 0.958 . S
C911 H926 0.961 . S
C911 H927 0.960 . S
H912 C896 0.931 . S
H913 C901 0.929 . S
H914 C902 0.960 . S
H915 C902 0.962 1_554 S
H916 C902 0.960 . S
H917 C903 0.961 . S
H918 C903 0.961 . S
H919 C903 0.961 . S
H920 C904 0.931 . S
H921 C909 0.930 . S
H922 C910 0.956 . S
H923 C910 0.961 . S
H924 C910 0.961 . S
H925 C911 0.958 . S
H926 C911 0.961 . S
H927 C911 0.960 . S
C928 C929 1.391 . S
C928 C930 1.394 . S
C928 H944 0.931 1_455 S
C929 C928 1.391 . S
C929 C933 1.376 . S
C930 C928 1.394 . S
C930 C931 1.369 . S
C930 C934 1.531 . S
C931 C930 1.369 . S
C931 C932 1.410 . S
C931 C939 1.503 . S
C932 C931 1.410 . S
C932 C933 1.392 . S
C932 C935 1.511 . S
C933 C929 1.376 . S
C933 C932 1.392 . S
C933 H945 0.929 . S
C934 C930 1.531 . S
C934 H946 0.960 . S
C934 H947 0.962 1_455 S
C934 H948 0.960 . S
C935 C932 1.511 . S
C935 H949 0.961 . S
C935 H950 0.961 . S
C935 H951 0.961 . S
C936 C937 1.370 1_655 S
C936 C938 1.363 . S
C936 H952 0.931 . S
C937 C936 1.370 1_455 S
C937 C941 1.408 . S
C938 C936 1.363 . S
C938 C939 1.370 1_655 S
C938 C942 1.524 . S
C939 C931 1.503 . S
C939 C938 1.370 1_455 S
C939 C940 1.403 . S
C940 C939 1.403 . S
C940 C941 1.404 . S
C940 C943 1.539 . S
C941 C937 1.408 . S
C941 C940 1.404 . S
C941 H953 0.930 . S
C942 C938 1.524 . S
C942 H954 0.956 . S
C942 H955 0.961 . S
C942 H956 0.961 . S
C943 C940 1.539 . S
C943 H957 0.958 . S
C943 H958 0.961 . S
C943 H959 0.960 . S
H944 C928 0.931 1_655 S
H945 C933 0.929 . S
H946 C934 0.960 . S
H947 C934 0.962 1_655 S
H948 C934 0.960 . S
H949 C935 0.961 . S
H950 C935 0.961 . S
H951 C935 0.961 . S
H952 C936 0.931 . S
H953 C941 0.930 . S
H954 C942 0.956 . S
H955 C942 0.961 . S
H956 C942 0.961 . S
H957 C943 0.958 . S
H958 C943 0.961 . S
H959 C943 0.960 . S
C960 C961 1.391 1_565 S
C960 C962 1.394 . S
C960 H976 0.931 . S
C961 C960 1.391 1_545 S
C961 C965 1.376 . S
C962 C960 1.394 . S
C962 C963 1.369 1_565 S
C962 C966 1.531 . S
C963 C962 1.369 1_545 S
C963 C964 1.410 . S
C963 C971 1.503 . S
C964 C963 1.410 . S
C964 C965 1.392 . S
C964 C967 1.511 . S
C965 C961 1.376 . S
C965 C964 1.392 . S
C965 H977 0.929 . S
C966 C962 1.531 . S
C966 H978 0.960 . S
C966 H979 0.962 . S
C966 H980 0.960 . S
C967 C964 1.511 . S
C967 H981 0.961 . S
C967 H982 0.961 . S
C967 H983 0.961 . S
C968 C969 1.370 . S
C968 C970 1.363 . S
C968 H984 0.931 . S
C969 C968 1.370 . S
C969 C973 1.408 . S
C970 C968 1.363 . S
C970 C971 1.370 . S
C970 C974 1.524 . S
C971 C963 1.503 . S
C971 C970 1.370 . S
C971 C972 1.403 . S
C972 C971 1.403 . S
C972 C973 1.404 . S
C972 C975 1.539 . S
C973 C969 1.408 . S
C973 C972 1.404 . S
C973 H985 0.930 . S
C974 C970 1.524 . S
C974 H986 0.956 1_545 S
C974 H987 0.961 . S
C974 H988 0.961 . S
C975 C972 1.539 . S
C975 H989 0.958 1_545 S
C975 H990 0.961 . S
C975 H991 0.960 . S
H976 C960 0.931 . S
H977 C965 0.929 . S
H978 C966 0.960 . S
H979 C966 0.962 . S
H980 C966 0.960 . S
H981 C967 0.961 . S
H982 C967 0.961 . S
H983 C967 0.961 . S
H984 C968 0.931 . S
H985 C973 0.930 . S
H986 C974 0.956 1_565 S
H987 C974 0.961 . S
H988 C974 0.961 . S
H989 C975 0.958 1_565 S
H990 C975 0.961 . S
H991 C975 0.960 . S
C992 C993 1.391 . S
C992 C994 1.394 . S
C992 H1008 0.931 . S
C993 C992 1.391 . S
C993 C997 1.376 . S
C994 C992 1.394 . S
C994 C995 1.369 . S
C994 C998 1.531 . S
C995 C994 1.369 . S
C995 C996 1.410 . S
C995 C1003 1.503 . S
C996 C995 1.410 . S
C996 C997 1.392 . S
C996 C999 1.511 . S
C997 C993 1.376 . S
C997 C996 1.392 . S
C997 H1009 0.929 . S
C998 C994 1.531 . S
C998 H1010 0.960 . S
C998 H1011 0.962 . S
C998 H1012 0.960 . S
C999 C996 1.511 . S
C999 H1013 0.961 . S
C999 H1014 0.961 . S
C999 H1015 0.961 . S
C1000 C1001 1.370 . S
C1000 C1002 1.363 . S
C1000 H1016 0.931 . S
C1001 C1000 1.370 . S
C1001 C1005 1.408 . S
C1002 C1000 1.363 . S
C1002 C1003 1.370 . S
C1002 C1006 1.524 . S
C1003 C995 1.503 . S
C1003 C1002 1.370 . S
C1003 C1004 1.403 . S
C1004 C1003 1.403 . S
C1004 C1005 1.404 . S
C1004 C1007 1.539 . S
C1005 C1001 1.408 . S
C1005 C1004 1.404 . S
C1005 H1017 0.930 . S
C1006 C1002 1.524 . S
C1006 H1018 0.956 . S
C1006 H1019 0.961 . S
C1006 H1020 0.961 . S
C1007 C1004 1.539 . S
C1007 H1021 0.958 . S
C1007 H1022 0.961 . S
C1007 H1023 0.960 . S
H1008 C992 0.931 . S
H1009 C997 0.929 . S
H1010 C998 0.960 . S
H1011 C998 0.962 . S
H1012 C998 0.960 . S
H1013 C999 0.961 . S
H1014 C999 0.961 . S
H1015 C999 0.961 . S
H1016 C1000 0.931 . S
H1017 C1005 0.930 . S
H1018 C1006 0.956 . S
H1019 C1006 0.961 . S
H1020 C1006 0.961 . S
H1021 C1007 0.958 . S
H1022 C1007 0.961 . S
H1023 C1007 0.960 . S
C1024 C1025 1.391 . S
C1024 C1026 1.394 . S
C1024 H1040 0.931 . S
C1025 C1024 1.391 . S
C1025 C1029 1.376 . S
C1026 C1024 1.394 . S
C1026 C1027 1.369 . S
C1026 C1030 1.531 . S
C1027 C1026 1.369 . S
C1027 C1028 1.410 . S
C1027 C1035 1.503 . S
C1028 C1027 1.410 . S
C1028 C1029 1.392 . S
C1028 C1031 1.511 . S
C1029 C1025 1.376 . S
C1029 C1028 1.392 . S
C1029 H1041 0.929 . S
C1030 C1026 1.531 . S
C1030 H1042 0.960 . S
C1030 H1043 0.962 . S
C1030 H1044 0.960 . S
C1031 C1028 1.511 . S
C1031 H1045 0.961 . S
C1031 H1046 0.961 . S
C1031 H1047 0.961 . S
C1032 C1033 1.370 . S
C1032 C1034 1.363 . S
C1032 H1048 0.931 . S
C1033 C1032 1.370 . S
C1033 C1037 1.408 . S
C1034 C1032 1.363 . S
C1034 C1035 1.370 . S
C1034 C1038 1.524 . S
C1035 C1027 1.503 . S
C1035 C1034 1.370 . S
C1035 C1036 1.403 . S
C1036 C1035 1.403 . S
C1036 C1037 1.404 . S
C1036 C1039 1.539 . S
C1037 C1033 1.408 . S
C1037 C1036 1.404 . S
C1037 H1049 0.930 . S
C1038 C1034 1.524 . S
C1038 H1050 0.956 . S
C1038 H1051 0.961 . S
C1038 H1052 0.961 . S
C1039 C1036 1.539 . S
C1039 H1053 0.958 . S
C1039 H1054 0.961 . S
C1039 H1055 0.960 . S
H1040 C1024 0.931 . S
H1041 C1029 0.929 . S
H1042 C1030 0.960 . S
H1043 C1030 0.962 . S
H1044 C1030 0.960 . S
H1045 C1031 0.961 . S
H1046 C1031 0.961 . S
H1047 C1031 0.961 . S
H1048 C1032 0.931 . S
H1049 C1037 0.930 . S
H1050 C1038 0.956 . S
H1051 C1038 0.961 . S
H1052 C1038 0.961 . S
H1053 C1039 0.958 . S
H1054 C1039 0.961 . S
H1055 C1039 0.960 . S
C1056 C1057 1.391 1_455 S
C1056 C1058 1.394 . S
C1056 H1072 0.931 . S
C1057 C1056 1.391 1_655 S
C1057 C1061 1.376 . S
C1058 C1056 1.394 . S
C1058 C1059 1.369 1_455 S
C1058 C1062 1.531 . S
C1059 C1058 1.369 1_655 S
C1059 C1060 1.410 . S
C1059 C1067 1.503 . S
C1060 C1059 1.410 . S
C1060 C1061 1.392 . S
C1060 C1063 1.511 . S
C1061 C1057 1.376 . S
C1061 C1060 1.392 . S
C1061 H1073 0.929 . S
C1062 C1058 1.531 . S
C1062 H1074 0.960 . S
C1062 H1075 0.962 . S
C1062 H1076 0.960 . S
C1063 C1060 1.511 . S
C1063 H1077 0.961 . S
C1063 H1078 0.961 . S
C1063 H1079 0.961 . S
C1064 C1065 1.370 . S
C1064 C1066 1.363 . S
C1064 H1080 0.931 . S
C1065 C1064 1.370 . S
C1065 C1069 1.408 1_655 S
C1066 C1064 1.363 . S
C1066 C1067 1.370 . S
C1066 C1070 1.524 . S
C1067 C1059 1.503 . S
C1067 C1066 1.370 . S
C1067 C1068 1.403 1_655 S
C1068 C1067 1.403 1_455 S
C1068 C1069 1.404 . S
C1068 C1071 1.539 . S
C1069 C1065 1.408 1_455 S
C1069 C1068 1.404 . S
C1069 H1081 0.930 . S
C1070 C1066 1.524 . S
C1070 H1082 0.956 . S
C1070 H1083 0.961 . S
C1070 H1084 0.961 . S
C1071 C1068 1.539 . S
C1071 H1085 0.958 . S
C1071 H1086 0.961 . S
C1071 H1087 0.960 . S
H1072 C1056 0.931 . S
H1073 C1061 0.929 . S
H1074 C1062 0.960 . S
H1075 C1062 0.962 . S
H1076 C1062 0.960 . S
H1077 C1063 0.961 . S
H1078 C1063 0.961 . S
H1079 C1063 0.961 . S
H1080 C1064 0.931 . S
H1081 C1069 0.930 . S
H1082 C1070 0.956 . S
H1083 C1070 0.961 . S
H1084 C1070 0.961 . S
H1085 C1071 0.958 . S
H1086 C1071 0.961 . S
H1087 C1071 0.960 . S
C1088 C1089 1.391 . S
C1088 C1090 1.394 . S
C1088 H1104 0.931 . S
C1089 C1088 1.391 . S
C1089 C1093 1.376 1_565 S
C1090 C1088 1.394 . S
C1090 C1091 1.369 . S
C1090 C1094 1.531 . S
C1091 C1090 1.369 . S
C1091 C1092 1.410 1_565 S
C1091 C1099 1.503 . S
C1092 C1091 1.410 1_545 S
C1092 C1093 1.392 . S
C1092 C1095 1.511 . S
C1093 C1089 1.376 1_545 S
C1093 C1092 1.392 . S
C1093 H1105 0.929 . S
C1094 C1090 1.531 . S
C1094 H1106 0.960 . S
C1094 H1107 0.962 . S
C1094 H1108 0.960 . S
C1095 C1092 1.511 . S
C1095 H1109 0.961 . S
C1095 H1110 0.961 . S
C1095 H1111 0.961 . S
C1096 C1097 1.370 . S
C1096 C1098 1.363 . S
C1096 H1112 0.931 . S
C1097 C1096 1.370 . S
C1097 C1101 1.408 1_565 S
C1098 C1096 1.363 . S
C1098 C1099 1.370 . S
C1098 C1102 1.524 . S
C1099 C1091 1.503 . S
C1099 C1098 1.370 . S
C1099 C1100 1.403 1_565 S
C1100 C1099 1.403 1_545 S
C1100 C1101 1.404 . S
C1100 C1103 1.539 . S
C1101 C1097 1.408 1_545 S
C1101 C1100 1.404 . S
C1101 H1113 0.930 . S
C1102 C1098 1.524 . S
C1102 H1114 0.956 . S
C1102 H1115 0.961 . S
C1102 H1116 0.961 . S
C1103 C1100 1.539 . S
C1103 H1117 0.958 . S
C1103 H1118 0.961 . S
C1103 H1119 0.960 . S
H1104 C1088 0.931 . S
H1105 C1093 0.929 . S
H1106 C1094 0.960 . S
H1107 C1094 0.962 . S
H1108 C1094 0.960 . S
H1109 C1095 0.961 . S
H1110 C1095 0.961 . S
H1111 C1095 0.961 . S
H1112 C1096 0.931 . S
H1113 C1101 0.930 . S
H1114 C1102 0.956 . S
H1115 C1102 0.961 . S
H1116 C1102 0.961 . S
H1117 C1103 0.958 . S
H1118 C1103 0.961 . S
H1119 C1103 0.960 . S
C1120 C1121 1.391 . S
C1120 C1122 1.394 . S
C1120 H1136 0.931 . S
C1121 C1120 1.391 . S
C1121 C1125 1.376 . S
C1122 C1120 1.394 . S
C1122 C1123 1.369 . S
C1122 C1126 1.531 . S
C1123 C1122 1.369 . S
C1123 C1124 1.410 . S
C1123 C1131 1.503 . S
C1124 C1123 1.410 . S
C1124 C1125 1.392 . S
C1124 C1127 1.511 . S
C1125 C1121 1.376 . S
C1125 C1124 1.392 . S
C1125 H1137 0.929 . S
C1126 C1122 1.531 . S
C1126 H1138 0.960 . S
C1126 H1139 0.962 . S
C1126 H1140 0.960 . S
C1127 C1124 1.511 . S
C1127 H1141 0.961 . S
C1127 H1142 0.961 . S
C1127 H1143 0.961 . S
C1128 C1129 1.370 . S
C1128 C1130 1.363 . S
C1128 H1144 0.931 . S
C1129 C1128 1.370 . S
C1129 C1133 1.408 . S
C1130 C1128 1.363 . S
C1130 C1131 1.370 . S
C1130 C1134 1.524 . S
C1131 C1123 1.503 . S
C1131 C1130 1.370 . S
C1131 C1132 1.403 . S
C1132 C1131 1.403 . S
C1132 C1133 1.404 . S
C1132 C1135 1.539 . S
C1133 C1129 1.408 . S
C1133 C1132 1.404 . S
C1133 H1145 0.930 . S
C1134 C1130 1.524 . S
C1134 H1146 0.956 . S
C1134 H1147 0.961 . S
C1134 H1148 0.961 . S
C1135 C1132 1.539 . S
C1135 H1149 0.958 . S
C1135 H1150 0.961 . S
C1135 H1151 0.960 . S
H1136 C1120 0.931 . S
H1137 C1125 0.929 . S
H1138 C1126 0.960 . S
H1139 C1126 0.962 . S
H1140 C1126 0.960 . S
H1141 C1127 0.961 . S
H1142 C1127 0.961 . S
H1143 C1127 0.961 . S
H1144 C1128 0.931 . S
H1145 C1133 0.930 . S
H1146 C1134 0.956 . S
H1147 C1134 0.961 . S
H1148 C1134 0.961 . S
H1149 C1135 0.958 . S
H1150 C1135 0.961 . S
H1151 C1135 0.960 . S
C1152 C1153 1.391 . S
C1152 C1154 1.394 . S
C1152 H1168 0.931 . S
C1153 C1152 1.391 . S
C1153 C1157 1.376 . S
C1154 C1152 1.394 . S
C1154 C1155 1.369 . S
C1154 C1158 1.531 . S
C1155 C1154 1.369 . S
C1155 C1156 1.410 . S
C1155 C1163 1.503 . S
C1156 C1155 1.410 . S
C1156 C1157 1.392 . S
C1156 C1159 1.511 . S
C1157 C1153 1.376 . S
C1157 C1156 1.392 . S
C1157 H1169 0.929 . S
C1158 C1154 1.531 . S
C1158 H1170 0.960 . S
C1158 H1171 0.962 . S
C1158 H1172 0.960 . S
C1159 C1156 1.511 . S
C1159 H1173 0.961 . S
C1159 H1174 0.961 . S
C1159 H1175 0.961 . S
C1160 C1161 1.370 . S
C1160 C1162 1.363 . S
C1160 H1176 0.931 . S
C1161 C1160 1.370 . S
C1161 C1165 1.408 . S
C1162 C1160 1.363 . S
C1162 C1163 1.370 . S
C1162 C1166 1.524 . S
C1163 C1155 1.503 . S
C1163 C1162 1.370 . S
C1163 C1164 1.403 . S
C1164 C1163 1.403 . S
C1164 C1165 1.404 . S
C1164 C1167 1.539 . S
C1165 C1161 1.408 . S
C1165 C1164 1.404 . S
C1165 H1177 0.930 . S
C1166 C1162 1.524 . S
C1166 H1178 0.956 . S
C1166 H1179 0.961 . S
C1166 H1180 0.961 . S
C1167 C1164 1.539 . S
C1167 H1181 0.958 . S
C1167 H1182 0.961 . S
C1167 H1183 0.960 . S
H1168 C1152 0.931 . S
H1169 C1157 0.929 . S
H1170 C1158 0.960 . S
H1171 C1158 0.962 . S
H1172 C1158 0.960 . S
H1173 C1159 0.961 . S
H1174 C1159 0.961 . S
H1175 C1159 0.961 . S
H1176 C1160 0.931 . S
H1177 C1165 0.930 . S
H1178 C1166 0.956 . S
H1179 C1166 0.961 . S
H1180 C1166 0.961 . S
H1181 C1167 0.958 . S
H1182 C1167 0.961 . S
H1183 C1167 0.960 . S
C417 C215 2.030 . S
C425 C266 2.168 1_545 S
C457 C306 2.177 . S
C449 C247 1.975 . S
C489 C346 2.176 . S
C481 C151 1.999 . S
C521 C386 2.173 1_455 S
C513 C183 1.975 . S
C553 C275 2.172 1_565 S
C545 C87 2.028 1_565 S
C577 C119 2.025 . S
C585 C315 2.170 . S
C609 C23 2.030 . S
C617 C355 2.171 . S
C641 C55 2.025 1_655 S
C649 C395 2.176 1_655 S
C681 C272 0.465 . S
C673 C189 0.385 . S
C713 C312 0.469 . S
C705 C221 0.436 . S
C745 C352 0.532 . S
C737 C253 0.444 . S
C769 C157 0.453 . S
C777 C392 0.533 . S
C801 C61 0.666 1_655 S
C809 C263 0.455 . S
C841 C303 0.531 . S
C833 C93 0.465 1_565 S
C873 C343 0.464 . S
C865 C125 0.653 . S
C897 C29 0.660 . S
C905 C383 0.461 . S
C929 C177 2.465 . S
C937 C267 2.801 . S
C961 C209 2.501 . S
C969 C307 2.795 . S
C1001 C347 2.797 . S
C993 C241 2.491 . S
C1033 C387 2.791 . S
C1025 C145 2.478 . S
C1057 C49 2.462 1_655 S
C1065 C258 2.795 . S
C1097 C298 2.791 . S
C1089 C81 2.509 1_565 S
C1129 C338 2.793 . S
C1121 C113 2.520 . S
C1153 C17 2.462 . S
C1161 C378 2.798 . S
