# Generated by pormake.
# Topology hwx, (6,3)-cn, num edge types: 1
# Building blocks:
#     Node 0, Type 0, BuildingBlock: IZENUY_clean_sbu_0, # of connection points: 6
#     Node 1, Type 0, BuildingBlock: IZENUY_clean_sbu_0, # of connection points: 6
#     Node 2, Type 0, BuildingBlock: IZENUY_clean_sbu_0, # of connection points: 6
#     Node 3, Type 0, BuildingBlock: IZENUY_clean_sbu_0, # of connection points: 6
#     Node 4, Type 1, BuildingBlock: BETDAH_clean_linker_0, # of connection points: 3
#     Node 5, Type 1, BuildingBlock: BETDAH_clean_linker_0, # of connection points: 3
#     Node 6, Type 1, BuildingBlock: BETDAH_clean_linker_0, # of connection points: 3
#     Node 7, Type 1, BuildingBlock: BETDAH_clean_linker_0, # of connection points: 3
#     Node 8, Type 1, BuildingBlock: BETDAH_clean_linker_0, # of connection points: 3
#     Node 9, Type 1, BuildingBlock: BETDAH_clean_linker_0, # of connection points: 3
#     Node 10, Type 1, BuildingBlock: BETDAH_clean_linker_0, # of connection points: 3
#     Node 11, Type 1, BuildingBlock: BETDAH_clean_linker_0, # of connection points: 3
#     Edge 12, Type (0, 1), BuildingBlock: UVAHIK_clean_linker_0, # of connection points: 2
#     Edge 13, Type (0, 1), BuildingBlock: UVAHIK_clean_linker_0, # of connection points: 2
#     Edge 14, Type (0, 1), BuildingBlock: UVAHIK_clean_linker_0, # of connection points: 2
#     Edge 15, Type (0, 1), BuildingBlock: UVAHIK_clean_linker_0, # of connection points: 2
#     Edge 16, Type (0, 1), BuildingBlock: UVAHIK_clean_linker_0, # of connection points: 2
#     Edge 17, Type (0, 1), BuildingBlock: UVAHIK_clean_linker_0, # of connection points: 2
#     Edge 18, Type (0, 1), BuildingBlock: UVAHIK_clean_linker_0, # of connection points: 2
#     Edge 19, Type (0, 1), BuildingBlock: UVAHIK_clean_linker_0, # of connection points: 2
#     Edge 20, Type (0, 1), BuildingBlock: UVAHIK_clean_linker_0, # of connection points: 2
#     Edge 21, Type (0, 1), BuildingBlock: UVAHIK_clean_linker_0, # of connection points: 2
#     Edge 22, Type (0, 1), BuildingBlock: UVAHIK_clean_linker_0, # of connection points: 2
#     Edge 23, Type (0, 1), BuildingBlock: UVAHIK_clean_linker_0, # of connection points: 2
#     Edge 24, Type (0, 1), BuildingBlock: UVAHIK_clean_linker_0, # of connection points: 2
#     Edge 25, Type (0, 1), BuildingBlock: UVAHIK_clean_linker_0, # of connection points: 2
#     Edge 26, Type (0, 1), BuildingBlock: UVAHIK_clean_linker_0, # of connection points: 2
#     Edge 27, Type (0, 1), BuildingBlock: UVAHIK_clean_linker_0, # of connection points: 2
#     Edge 28, Type (0, 1), BuildingBlock: UVAHIK_clean_linker_0, # of connection points: 2
#     Edge 29, Type (0, 1), BuildingBlock: UVAHIK_clean_linker_0, # of connection points: 2
#     Edge 30, Type (0, 1), BuildingBlock: UVAHIK_clean_linker_0, # of connection points: 2
#     Edge 31, Type (0, 1), BuildingBlock: UVAHIK_clean_linker_0, # of connection points: 2
#     Edge 32, Type (0, 1), BuildingBlock: UVAHIK_clean_linker_0, # of connection points: 2
#     Edge 33, Type (0, 1), BuildingBlock: UVAHIK_clean_linker_0, # of connection points: 2
#     Edge 34, Type (0, 1), BuildingBlock: UVAHIK_clean_linker_0, # of connection points: 2
#     Edge 35, Type (0, 1), BuildingBlock: UVAHIK_clean_linker_0, # of connection points: 2
# Relax obj value: 0.003
# Max RMSD: 0.063
# Mean RMSD: 0.049
data_MOF--net-hwx--node1-IZENUY_clean_sbu_0--node2-BETDAH_clean_linker_0--edge1-UVAHIK_clean_linker_0
_symmetry_space_group_name_H-M    P1
_symmetry_Int_Tables_number       1
_symmetry_cell_setting            triclinic
loop_
_symmetry_equiv_pos_as_xyz
'x, y, z'
_cell_length_a     66.329261
_cell_length_b     66.341463
_cell_length_c     26.894053
_cell_angle_alpha  91.701775
_cell_angle_beta   91.582376
_cell_angle_gamma 89.965977
loop_
_atom_site_label
_atom_site_type_symbol
_atom_site_fract_x
_atom_site_fract_y
_atom_site_fract_z
_atom_type_partial_charge
Fe0 Fe 0.23037 0.22752 0.05847 0.0
Fe1 Fe 0.23085 0.2247 0.94435 0.0
O2 O 0.2221 0.21586 0.00138 0.0
Fe3 Fe 0.20502 0.19535 0.00143 0.0
O4 O 0.1919 0.20431 0.05723 0.0
O5 O 0.20475 0.23431 0.07408 0.0
O6 O 0.23281 0.25285 0.0334 0.0
C7 C 0.22503 0.26058 0.99488 0.0
C8 C 0.22959 0.18587 0.08015 0.0
O9 O 0.22073 0.24975 0.95671 0.0
C10 C 0.23186 0.18398 0.92531 0.0
O11 O 0.25652 0.22157 0.04657 0.0
O12 O 0.25595 0.23189 0.96956 0.0
O13 O 0.22259 0.18043 0.0378 0.0
O14 O 0.22941 0.20429 0.09414 0.0
C15 C 0.18946 0.21628 0.92324 0.0
O16 O 0.24161 0.20031 0.928 0.0
O17 O 0.21495 0.18258 0.94569 0.0
C18 C 0.26566 0.22659 0.0083 0.0
O19 O 0.20728 0.21905 0.90896 0.0
O20 O 0.18635 0.20896 0.9651 0.0
C21 C 0.19062 0.22175 0.07734 0.0
Fe22 Fe 0.27656 0.72239 0.57877 0.0
Fe23 Fe 0.3024 0.69291 0.51766 0.0
O24 O 0.28435 0.71264 0.52032 0.0
Fe25 Fe 0.27412 0.72252 0.46462 0.0
O26 O 0.27153 0.74833 0.49015 0.0
O27 O 0.2852 0.74761 0.56557 0.0
O28 O 0.30104 0.71839 0.61075 0.0
C29 C 0.31864 0.71608 0.59417 0.0
C30 C 0.24022 0.72178 0.52038 0.0
O31 O 0.32117 0.70823 0.5515 0.0
C32 C 0.2763 0.68035 0.44272 0.0
O33 O 0.26724 0.69788 0.59583 0.0
O34 O 0.29439 0.68107 0.57484 0.0
O35 O 0.24854 0.71598 0.4808 0.0
O36 O 0.25072 0.7282 0.55757 0.0
C37 C 0.31355 0.71796 0.43931 0.0
O38 O 0.28487 0.67626 0.48366 0.0
O39 O 0.27498 0.69844 0.42899 0.0
C40 C 0.27786 0.68212 0.59726 0.0
O41 O 0.31374 0.70105 0.45995 0.0
O42 O 0.2989 0.72988 0.44456 0.0
C43 C 0.27975 0.75727 0.52775 0.0
Fe44 Fe 0.77372 0.78462 0.92894 0.0
Fe45 Fe 0.77316 0.78631 0.04292 0.0
O46 O 0.7827 0.79511 0.98671 0.0
Fe47 Fe 0.80125 0.81434 0.98852 0.0
O48 O 0.78513 0.8309 0.95257 0.0
O49 O 0.7761 0.80813 0.89519 0.0
O50 O 0.74788 0.79209 0.94147 0.0
C51 C 0.73844 0.78687 0.97911 0.0
C52 C 0.81411 0.78776 0.91123 0.0
O53 O 0.7479 0.78042 0.01695 0.0
C54 C 0.81472 0.79197 0.06619 0.0
O55 O 0.7698 0.75918 0.95247 0.0
O56 O 0.78212 0.76093 0.02922 0.0
O57 O 0.81409 0.805 0.93276 0.0
O58 O 0.79887 0.7764 0.91241 0.0
C59 C 0.77457 0.8268 0.0642 0.0
O60 O 0.79663 0.79053 0.07949 0.0
O61 O 0.8187 0.79906 0.0246 0.0
C62 C 0.77733 0.75071 0.99033 0.0
O63 O 0.76366 0.81121 0.05999 0.0
O64 O 0.79174 0.8272 0.04467 0.0
C65 C 0.77735 0.82637 0.91039 0.0
Fe66 Fe 0.70737 0.31176 0.52752 0.0
Fe67 Fe 0.73562 0.28323 0.58439 0.0
O68 O 0.72507 0.29176 0.52743 0.0
Fe69 Fe 0.73222 0.28036 0.47007 0.0
O70 O 0.7295 0.30345 0.43441 0.0
O71 O 0.72355 0.32716 0.49076 0.0
O72 O 0.71819 0.32489 0.58278 0.0
C73 C 0.73555 0.32413 0.60329 0.0
C74 C 0.69173 0.28477 0.45247 0.0
O75 O 0.74577 0.30809 0.60129 0.0
C76 C 0.72984 0.24715 0.53356 0.0
O77 O 0.69009 0.29777 0.56427 0.0
O78 O 0.71266 0.28777 0.61984 0.0
O79 O 0.70642 0.27269 0.4547 0.0
O80 O 0.69311 0.30229 0.47227 0.0
C81 C 0.76879 0.28285 0.51978 0.0
O82 O 0.72626 0.25779 0.57195 0.0
O83 O 0.7363 0.25517 0.49494 0.0
C84 C 0.69445 0.29022 0.60567 0.0
O85 O 0.76041 0.27715 0.55879 0.0
O86 O 0.75839 0.28731 0.48164 0.0
C87 C 0.72968 0.32185 0.44841 0.0
H88 H 0.24455 0.55787 0.00795 0.0
H89 H 0.2108 0.51262 0.08182 0.0
H90 H 0.20755 0.51567 0.92246 0.0
C91 C 0.23489 0.54467 0.0064 0.0
C92 C 0.22725 0.53749 0.96005 0.0
C93 C 0.22894 0.53602 0.05077 0.0
C94 C 0.21571 0.51943 0.04808 0.0
C95 C 0.20836 0.51185 0.00178 0.0
C96 C 0.21385 0.52111 0.95797 0.0
N97 N 0.19387 0.49621 0.99955 0.0
C98 C 0.19944 0.47602 0.99768 0.0
H99 H 0.93796 0.75645 0.5095 0.0
H100 H 0.98715 0.78024 0.42812 0.0
H101 H 0.99473 0.77004 0.58424 0.0
C102 C 0.95347 0.76145 0.50809 0.0
C103 C 0.96529 0.76249 0.55228 0.0
C104 C 0.96103 0.76789 0.46287 0.0
C105 C 0.9811 0.77458 0.46202 0.0
C106 C 0.99343 0.77469 0.50516 0.0
C107 C 0.98548 0.76886 0.55043 0.0
N108 N 0.01301 0.78306 0.5034 0.0
C109 C 0.03042 0.77216 0.51389 0.0
H110 H 0.77275 0.44338 0.01727 0.0
H111 H 0.76716 0.50323 0.96046 0.0
H112 H 0.75452 0.49264 0.11315 0.0
C113 C 0.76977 0.45931 0.02329 0.0
C114 C 0.76396 0.46636 0.0705 0.0
C115 C 0.77071 0.47233 0.98306 0.0
C116 C 0.76675 0.49304 0.99115 0.0
C117 C 0.76128 0.50033 0.03861 0.0
C118 C 0.75964 0.48693 0.0775 0.0
N119 N 0.75564 0.52067 0.04805 0.0
C120 C 0.76333 0.53728 0.02469 0.0
H121 H 0.06526 0.24477 0.49976 0.0
H122 H 0.01921 0.27781 0.57754 0.0
H123 H 0.02602 0.28506 0.42077 0.0
C124 C 0.05234 0.25478 0.49939 0.0
C125 C 0.04639 0.26374 0.45472 0.0
C126 C 0.04288 0.2599 0.54419 0.0
C127 C 0.02661 0.27353 0.54338 0.0
C128 C 0.02039 0.28234 0.49868 0.0
C129 C 0.03054 0.27774 0.4548 0.0
N130 N 0.00527 0.29736 0.49831 0.0
C131 C 0.98505 0.2928 0.50388 0.0
H132 H 0.73991 0.9482 0.48251 0.0
H133 H 0.70637 0.99642 0.41647 0.0
H134 H 0.70858 0.99122 0.57548 0.0
C135 C 0.73084 0.96173 0.48676 0.0
C136 C 0.72507 0.96836 0.53438 0.0
C137 C 0.72417 0.97168 0.44418 0.0
C138 C 0.71208 0.98894 0.44925 0.0
C139 C 0.70708 0.99637 0.49675 0.0
C140 C 0.71348 0.98602 0.53919 0.0
N141 N 0.69362 0.0128 0.50147 0.0
C142 C 0.7004 0.0325 0.50848 0.0
H143 H 0.56936 0.25974 0.02802 0.0
H144 H 0.51248 0.27318 0.09481 0.0
H145 H 0.5185 0.27795 0.93734 0.0
C146 C 0.55348 0.26336 0.02416 0.0
C147 C 0.5453 0.26778 0.97696 0.0
C148 C 0.54187 0.26517 0.06705 0.0
C149 C 0.52158 0.27122 0.06218 0.0
C150 C 0.51328 0.27578 0.01531 0.0
C151 C 0.52511 0.2741 0.9731 0.0
N152 N 0.49395 0.28465 0.01097 0.0
C153 C 0.47627 0.27398 0.01732 0.0
H154 H 0.26772 0.06283 0.5058 0.0
H155 H 0.25545 0.00647 0.57502 0.0
H156 H 0.24438 0.01252 0.41819 0.0
C157 C 0.26348 0.04705 0.50295 0.0
C158 C 0.25694 0.03885 0.45661 0.0
C159 C 0.26274 0.03567 0.54621 0.0
C160 C 0.2564 0.0154 0.54208 0.0
C161 C 0.25002 0.00704 0.49568 0.0
C162 C 0.24996 0.0189 0.45351 0.0
N163 N 0.24127 0.98759 0.49148 0.0
C164 C 0.25098 0.97018 0.50672 0.0
H165 H 0.44064 0.7417 0.01619 0.0
H166 H 0.49133 0.77127 0.95292 0.0
H167 H 0.47959 0.7795 0.10868 0.0
C168 C 0.45409 0.75093 0.02064 0.0
C169 C 0.45905 0.75958 0.06758 0.0
C170 C 0.46539 0.75529 0.97881 0.0
C171 C 0.48253 0.76771 0.98486 0.0
C172 C 0.48778 0.77625 0.03197 0.0
C173 C 0.47571 0.77255 0.07271 0.0
N174 N 0.50433 0.78962 0.03896 0.0
C175 C 0.52312 0.78627 0.01858 0.0
C176 C 0.1609 0.21096 0.12543 0.0
C177 C 0.1736 0.22646 0.11027 0.0
C178 C 0.14558 0.21506 0.15883 0.0
C179 C 0.11344 0.25504 0.21047 0.0
H180 H 0.11159 0.22106 0.32508 0.0
C181 C 0.06581 0.2752 0.38214 0.0
C182 C 0.05784 0.2594 0.40909 0.0
C183 C 0.07846 0.2711 0.34232 0.0
C184 C 0.11156 0.23049 0.2929 0.0
H185 H 0.17967 0.25857 0.11701 0.0
H186 H 0.15265 0.26575 0.1751 0.0
H187 H 0.13618 0.21414 0.26143 0.0
H188 H 0.05592 0.22697 0.41421 0.0
H189 H 0.07733 0.21969 0.34363 0.0
H190 H 0.08863 0.27125 0.24148 0.0
C191 C 0.15469 0.25042 0.16115 0.0
C192 C 0.12576 0.22655 0.25653 0.0
C193 C 0.17021 0.24628 0.12815 0.0
C194 C 0.06206 0.23942 0.39429 0.0
C195 C 0.07445 0.23529 0.35408 0.0
C196 C 0.09902 0.25884 0.2466 0.0
C197 C 0.14243 0.23479 0.17738 0.0
C198 C 0.12693 0.23883 0.21509 0.0
C199 C 0.08321 0.25108 0.32824 0.0
C200 C 0.09795 0.24667 0.28848 0.0
H201 H 0.16304 0.19553 0.11235 0.0
H202 H 0.13621 0.20277 0.17036 0.0
H203 H 0.1139 0.26463 0.17862 0.0
H204 H 0.06295 0.29076 0.39318 0.0
H205 H 0.08509 0.28367 0.32388 0.0
C206 C 0.28659 0.65133 0.645 0.0
C207 C 0.27213 0.66555 0.6298 0.0
C208 C 0.2815 0.63609 0.67714 0.0
C209 C 0.2397 0.60644 0.72187 0.0
H210 H 0.27357 0.60078 0.8404 0.0
C211 C 0.2169 0.55705 0.88545 0.0
C212 C 0.23224 0.54837 0.91473 0.0
C213 C 0.2217 0.56987 0.84709 0.0
C214 C 0.26414 0.60177 0.80706 0.0
H215 H 0.2408 0.67454 0.63529 0.0
H216 H 0.23183 0.64758 0.69095 0.0
H217 H 0.28195 0.62583 0.78016 0.0
H218 H 0.26451 0.54523 0.92548 0.0
H219 H 0.27301 0.56668 0.85703 0.0
H220 H 0.22209 0.5821 0.748 0.0
C221 C 0.24714 0.6484 0.67811 0.0
C222 C 0.26891 0.61627 0.77271 0.0
C223 C 0.25231 0.66388 0.64655 0.0
C224 C 0.25243 0.55187 0.9035 0.0
C225 C 0.25725 0.56436 0.86462 0.0
C226 C 0.23508 0.59165 0.75589 0.0
C227 C 0.26176 0.63452 0.69417 0.0
C228 C 0.2567 0.61883 0.72992 0.0
C229 C 0.24197 0.57403 0.83677 0.0
C230 C 0.24719 0.58917 0.79914 0.0
H231 H 0.30199 0.65217 0.63281 0.0
H232 H 0.29302 0.6255 0.68869 0.0
H233 H 0.23013 0.608 0.68891 0.0
H234 H 0.20121 0.55474 0.89386 0.0
H235 H 0.20949 0.57716 0.82706 0.0
C236 C 0.8268 0.78439 0.1524 0.0
C237 C 0.83122 0.78741 0.10237 0.0
C238 C 0.84215 0.78049 0.18725 0.0
C239 C 0.89732 0.78526 0.21004 0.0
H240 H 0.88571 0.75082 0.31976 0.0
C241 C 0.95482 0.76458 0.36978 0.0
C242 C 0.94752 0.7688 0.41769 0.0
C243 C 0.94194 0.7655 0.32771 0.0
C244 C 0.88916 0.76043 0.28923 0.0
H245 H 0.8553 0.78841 0.04958 0.0
H246 H 0.88219 0.78105 0.11045 0.0
H247 H 0.86097 0.7541 0.25191 0.0
H248 H 0.92099 0.77813 0.45815 0.0
H249 H 0.89856 0.7788 0.38529 0.0
H250 H 0.92572 0.79133 0.24785 0.0
C251 C 0.86682 0.78212 0.12286 0.0
C252 C 0.87495 0.76244 0.25049 0.0
C253 C 0.85141 0.78624 0.08791 0.0
C254 C 0.92709 0.77412 0.42227 0.0
C255 C 0.91421 0.77467 0.38047 0.0
C256 C 0.91169 0.78299 0.2486 0.0
C257 C 0.86237 0.77921 0.17304 0.0
C258 C 0.87857 0.77533 0.21106 0.0
C259 C 0.92148 0.77033 0.33287 0.0
C260 C 0.90749 0.77095 0.2891 0.0
H261 H 0.81145 0.78535 0.16502 0.0
H262 H 0.83812 0.77885 0.22566 0.0
H263 H 0.90059 0.79543 0.18056 0.0
H264 H 0.97039 0.76029 0.36477 0.0
H265 H 0.94785 0.76206 0.29129 0.0
C266 C 0.73245 0.36032 0.63064 0.0
C267 C 0.74283 0.34188 0.63358 0.0
C268 C 0.73815 0.37684 0.66112 0.0
C269 C 0.77895 0.39786 0.74457 0.0
H270 H 0.73455 0.42612 0.8064 0.0
C271 C 0.78705 0.44753 0.92441 0.0
C272 C 0.77327 0.46337 0.93223 0.0
C273 C 0.78593 0.43551 0.88083 0.0
C274 C 0.74717 0.41876 0.78875 0.0
H275 H 0.76793 0.32666 0.66969 0.0
H276 H 0.77772 0.35554 0.72377 0.0
H277 H 0.72757 0.39929 0.7452 0.0
H278 H 0.74876 0.48018 0.89829 0.0
H279 H 0.74722 0.45964 0.82152 0.0
H280 H 0.79854 0.41717 0.7893 0.0
C281 C 0.76524 0.3572 0.69739 0.0
C282 C 0.74315 0.40326 0.75366 0.0
C283 C 0.75956 0.34061 0.6666 0.0
C284 C 0.75961 0.46812 0.89347 0.0
C285 C 0.75854 0.45614 0.84974 0.0
C286 C 0.78299 0.41345 0.77978 0.0
C287 C 0.75434 0.3754 0.69564 0.0
C288 C 0.75896 0.39248 0.73138 0.0
C289 C 0.77106 0.43913 0.84389 0.0
C290 C 0.76713 0.42398 0.80267 0.0
H291 H 0.71969 0.36198 0.60508 0.0
H292 H 0.72969 0.39074 0.65797 0.0
H293 H 0.79148 0.39003 0.72769 0.0
H294 H 0.79794 0.44367 0.95335 0.0
H295 H 0.79583 0.42258 0.87776 0.0
C296 C 0.6731 0.26272 0.38862 0.0
C297 C 0.67351 0.27961 0.42149 0.0
C298 C 0.65637 0.2591 0.35662 0.0
C299 C 0.61453 0.2867 0.29669 0.0
H300 H 0.59413 0.23342 0.2599 0.0
C301 C 0.54891 0.27744 0.15502 0.0
C302 C 0.5519 0.26295 0.11675 0.0
C303 C 0.56109 0.27757 0.1983 0.0
C304 C 0.5997 0.24839 0.26971 0.0
H305 H 0.65616 0.30523 0.44855 0.0
H306 H 0.62708 0.29878 0.39351 0.0
H307 H 0.62096 0.2372 0.32377 0.0
H308 H 0.56889 0.23625 0.09573 0.0
H309 H 0.5904 0.23671 0.17064 0.0
H310 H 0.59378 0.29794 0.24212 0.0
C311 C 0.63983 0.2886 0.39145 0.0
C312 C 0.61509 0.25055 0.30622 0.0
C313 C 0.65651 0.29226 0.42317 0.0
C314 C 0.5664 0.24778 0.12426 0.0
C315 C 0.57862 0.24794 0.16745 0.0
C316 C 0.59921 0.28456 0.26031 0.0
C317 C 0.63971 0.27226 0.35701 0.0
C318 C 0.62277 0.26974 0.31989 0.0
C319 C 0.57657 0.26325 0.20424 0.0
C320 C 0.59169 0.26538 0.24604 0.0
H321 H 0.68593 0.25266 0.38648 0.0
H322 H 0.65682 0.24644 0.33033 0.0
H323 H 0.62034 0.30167 0.30552 0.0
H324 H 0.53795 0.28939 0.15041 0.0
H325 H 0.55886 0.28934 0.22636 0.0
C326 C 0.25712 0.16843 0.86748 0.0
C327 C 0.23919 0.16687 0.89384 0.0
C328 C 0.26338 0.15259 0.836 0.0
C329 C 0.25517 0.09808 0.80489 0.0
H330 H 0.27251 0.11265 0.67429 0.0
C331 C 0.25159 0.04395 0.63275 0.0
C332 C 0.26586 0.04608 0.59556 0.0
C333 C 0.25197 0.05681 0.67493 0.0
C334 C 0.26811 0.10825 0.7109 0.0
H335 H 0.21413 0.1471 0.90878 0.0
H336 H 0.2249 0.11972 0.85359 0.0
H337 H 0.26625 0.13897 0.73676 0.0
H338 H 0.29271 0.06219 0.57553 0.0
H339 H 0.29353 0.08449 0.64945 0.0
H340 H 0.25651 0.06734 0.77836 0.0
C341 C 0.23426 0.13307 0.85758 0.0
C342 C 0.26449 0.12339 0.74678 0.0
C343 C 0.22799 0.14889 0.88897 0.0
C344 C 0.28136 0.06038 0.60324 0.0
C345 C 0.28176 0.07321 0.64545 0.0
C346 C 0.25879 0.08292 0.76895 0.0
C347 C 0.2519 0.1348 0.83024 0.0
C348 C 0.25763 0.11853 0.79394 0.0
C349 C 0.26664 0.07206 0.68093 0.0
C350 C 0.26498 0.08784 0.72121 0.0
H351 H 0.2662 0.182 0.87062 0.0
H352 H 0.27719 0.15432 0.81598 0.0
H353 H 0.25022 0.0938 0.84113 0.0
H354 H 0.23931 0.03327 0.62771 0.0
H355 H 0.23999 0.05559 0.70124 0.0
C356 C 0.33233 0.74263 0.3886 0.0
C357 C 0.32965 0.72281 0.40442 0.0
C358 C 0.34727 0.74699 0.35471 0.0
C359 C 0.37584 0.72377 0.25417 0.0
H360 H 0.41332 0.76815 0.27661 0.0
C361 C 0.44089 0.73571 0.12111 0.0
C362 C 0.44618 0.75557 0.11043 0.0
C363 C 0.42765 0.73189 0.15924 0.0
C364 C 0.40281 0.75586 0.26932 0.0
H365 H 0.34066 0.69207 0.39721 0.0
H366 H 0.3664 0.69967 0.33749 0.0
H367 H 0.38796 0.76154 0.33827 0.0
H368 H 0.44194 0.78701 0.13135 0.0
H369 H 0.41829 0.78047 0.19694 0.0
H370 H 0.39001 0.71836 0.18475 0.0
C371 C 0.357 0.71181 0.35146 0.0
C372 C 0.38834 0.75206 0.30481 0.0
C373 C 0.34231 0.7075 0.38585 0.0
C374 C 0.43825 0.77154 0.13919 0.0
C375 C 0.42473 0.76775 0.1769 0.0
C376 C 0.39008 0.72773 0.2184 0.0
C377 C 0.35959 0.73157 0.3354 0.0
C378 C 0.3748 0.73589 0.29769 0.0
C379 C 0.41907 0.74786 0.18711 0.0
C380 C 0.40387 0.74375 0.22554 0.0
H381 H 0.32288 0.75478 0.40236 0.0
H382 H 0.34889 0.76234 0.34274 0.0
H383 H 0.36539 0.71138 0.24739 0.0
H384 H 0.44697 0.72312 0.09978 0.0
H385 H 0.42412 0.71636 0.16669 0.0
C386 C 0.77405 0.86306 0.8898 0.0
C387 C 0.77148 0.84256 0.87598 0.0
C388 C 0.76929 0.87815 0.85604 0.0
C389 C 0.76354 0.8855 0.72111 0.0
H390 H 0.7341 0.93402 0.7576 0.0
C391 C 0.72749 0.93466 0.57308 0.0
C392 C 0.72985 0.95568 0.57782 0.0
C393 C 0.73293 0.92229 0.61217 0.0
C394 C 0.74256 0.92067 0.74708 0.0
H395 H 0.76124 0.82197 0.8163 0.0
H396 H 0.7529 0.84815 0.75798 0.0
H397 H 0.74294 0.90959 0.8213 0.0
H398 H 0.73897 0.9803 0.62825 0.0
H399 H 0.74853 0.95847 0.6973 0.0
H400 H 0.76305 0.89631 0.64707 0.0
C401 C 0.75892 0.85259 0.79453 0.0
C402 C 0.74761 0.90669 0.78348 0.0
C403 C 0.76361 0.83756 0.82814 0.0
C404 C 0.73704 0.96414 0.6235 0.0
C405 C 0.74249 0.95167 0.66294 0.0
C406 C 0.75851 0.8994 0.68493 0.0
C407 C 0.76195 0.87303 0.80778 0.0
C408 C 0.75779 0.88875 0.77059 0.0
C409 C 0.74083 0.93057 0.65723 0.0
C410 C 0.7476 0.91693 0.69721 0.0
H411 H 0.78 0.86745 0.92643 0.0
H412 H 0.77184 0.89377 0.86729 0.0
H413 H 0.77184 0.8721 0.7102 0.0
H414 H 0.72144 0.9277 0.53891 0.0
H415 H 0.73094 0.90615 0.60703 0.0
C416 C 0.83164 0.76337 0.85329 0.0
C417 C 0.83163 0.7817 0.88095 0.0
C418 C 0.84796 0.75813 0.82358 0.0
C419 C 0.90166 0.77054 0.80129 0.0
H420 H 0.88906 0.74975 0.66788 0.0
C421 C 0.95656 0.77439 0.6383 0.0
C422 C 0.95534 0.7594 0.60032 0.0
C423 C 0.94357 0.774 0.67842 0.0
C424 C 0.89296 0.75515 0.70531 0.0
H425 H 0.84912 0.80863 0.8999 0.0
H426 H 0.87732 0.79963 0.84782 0.0
H427 H 0.86208 0.75501 0.72616 0.0
H428 H 0.94087 0.73132 0.5768 0.0
H429 H 0.91849 0.73038 0.64727 0.0
H430 H 0.93254 0.77111 0.77986 0.0
C431 C 0.86484 0.78918 0.84942 0.0
C432 C 0.87742 0.7582 0.73878 0.0
C433 C 0.84854 0.79442 0.87901 0.0
C434 C 0.94198 0.74319 0.60528 0.0
C435 C 0.92907 0.74275 0.64545 0.0
C436 C 0.91723 0.76746 0.76777 0.0
C437 C 0.86469 0.77106 0.82095 0.0
C438 C 0.88152 0.76623 0.78695 0.0
C439 C 0.92914 0.75856 0.68149 0.0
C440 C 0.91304 0.75999 0.71909 0.0
H441 H 0.81895 0.75312 0.85416 0.0
H442 H 0.84746 0.74395 0.80259 0.0
H443 H 0.90539 0.77644 0.83838 0.0
H444 H 0.96654 0.78718 0.63522 0.0
H445 H 0.94399 0.7865 0.70525 0.0
C446 C 0.7347 0.33228 0.36109 0.0
C447 C 0.7345 0.33737 0.41219 0.0
C448 C 0.73817 0.347 0.32635 0.0
C449 C 0.76142 0.39573 0.30818 0.0
H450 H 0.72317 0.39901 0.19704 0.0
C451 C 0.76635 0.45763 0.1611 0.0
C452 C 0.7612 0.45207 0.11147 0.0
C453 C 0.76315 0.44434 0.19955 0.0
C454 C 0.73419 0.39815 0.22736 0.0
H455 H 0.73844 0.36181 0.46701 0.0
H456 H 0.74496 0.38755 0.40589 0.0
H457 H 0.71802 0.37437 0.26073 0.0
H458 H 0.74846 0.42807 0.06374 0.0
H459 H 0.74393 0.40467 0.12993 0.0
H460 H 0.77801 0.41903 0.27411 0.0
C461 C 0.74221 0.37214 0.39302 0.0
C462 C 0.73114 0.38409 0.26398 0.0
C463 C 0.7384 0.35745 0.42787 0.0
C464 C 0.75296 0.43281 0.10129 0.0
C465 C 0.75 0.41947 0.13954 0.0
C466 C 0.76466 0.40964 0.27109 0.0
C467 C 0.74183 0.36707 0.34192 0.0
C468 C 0.74479 0.38264 0.3045 0.0
C469 C 0.75487 0.42509 0.18926 0.0
C470 C 0.75117 0.4109 0.22993 0.0
H471 H 0.73174 0.31698 0.34771 0.0
H472 H 0.73801 0.34268 0.28717 0.0
H473 H 0.77222 0.3948 0.33899 0.0
H474 H 0.77291 0.47226 0.17031 0.0
H475 H 0.76691 0.44929 0.23739 0.0
C476 C 0.15218 0.21721 0.90318 0.0
C477 C 0.17218 0.21989 0.88841 0.0
C478 C 0.13599 0.22022 0.86971 0.0
C479 C 0.10488 0.23911 0.79819 0.0
H480 H 0.11043 0.21943 0.66205 0.0
C481 C 0.05592 0.26638 0.63162 0.0
C482 C 0.05174 0.25268 0.5918 0.0
C483 C 0.06784 0.26057 0.6725 0.0
C484 C 0.10846 0.22478 0.70005 0.0
H485 H 0.19072 0.22817 0.82697 0.0
H486 H 0.16257 0.23344 0.76895 0.0
H487 H 0.13704 0.21292 0.7235 0.0
H488 H 0.05527 0.22172 0.56556 0.0
H489 H 0.07586 0.2115 0.63709 0.0
H490 H 0.07627 0.25108 0.77441 0.0
C491 C 0.15941 0.22876 0.80619 0.0
C492 C 0.12386 0.22128 0.73514 0.0
C493 C 0.17556 0.22586 0.83961 0.0
C494 C 0.0585 0.23268 0.59536 0.0
C495 C 0.07036 0.22687 0.63622 0.0
C496 C 0.08945 0.2427 0.76293 0.0
C497 C 0.13944 0.22586 0.82069 0.0
C498 C 0.12241 0.22863 0.78444 0.0
C499 C 0.07578 0.24094 0.67441 0.0
C500 C 0.09117 0.23575 0.7133 0.0
H501 H 0.14902 0.21268 0.94053 0.0
H502 H 0.12079 0.21777 0.88192 0.0
H503 H 0.10335 0.24504 0.83585 0.0
H504 H 0.05111 0.28195 0.62976 0.0
H505 H 0.07182 0.27183 0.70107 0.0
C506 C 0.26292 0.66806 0.3592 0.0
C507 C 0.27011 0.66373 0.40739 0.0
C508 C 0.25848 0.65252 0.32446 0.0
C509 C 0.2646 0.61799 0.25041 0.0
H510 H 0.23496 0.5699 0.28223 0.0
C511 C 0.25501 0.55292 0.10706 0.0
C512 C 0.23522 0.54572 0.09932 0.0
C513 C 0.26012 0.56502 0.1489 0.0
C514 C 0.24326 0.58325 0.27284 0.0
H515 H 0.27753 0.63953 0.45729 0.0
H516 H 0.26973 0.61237 0.39638 0.0
H517 H 0.24125 0.59624 0.34659 0.0
H518 H 0.20552 0.5447 0.13089 0.0
H519 H 0.21445 0.56582 0.20411 0.0
H520 H 0.26634 0.60537 0.17666 0.0
C521 C 0.26755 0.62784 0.38565 0.0
C522 C 0.24697 0.59825 0.30974 0.0
C523 C 0.2721 0.64342 0.42046 0.0
C524 C 0.22095 0.54986 0.13597 0.0
C525 C 0.22606 0.562 0.17792 0.0
C526 C 0.26102 0.603 0.21375 0.0
C527 C 0.26103 0.63225 0.337 0.0
C528 C 0.25751 0.61589 0.29872 0.0
C529 C 0.24554 0.57023 0.18402 0.0
C530 C 0.2502 0.5855 0.22435 0.0
H531 H 0.26105 0.68349 0.34785 0.0
H532 H 0.25314 0.65641 0.28754 0.0
H533 H 0.27299 0.63127 0.24087 0.0
H534 H 0.26643 0.5497 0.0799 0.0
H535 H 0.27537 0.57076 0.15307 0.0
C536 C 0.33353 0.72683 0.67734 0.0
C537 C 0.33636 0.72026 0.62783 0.0
C538 C 0.34999 0.72961 0.71028 0.0
C539 C 0.40486 0.73787 0.71878 0.0
H540 H 0.39884 0.71759 0.8513 0.0
C541 C 0.45046 0.72867 0.921 0.0
C542 C 0.45763 0.74847 0.92881 0.0
C543 C 0.43893 0.72342 0.87833 0.0
C544 C 0.40096 0.72309 0.81429 0.0
H545 H 0.3589 0.71212 0.57379 0.0
H546 H 0.38773 0.71704 0.63164 0.0
H547 H 0.37193 0.71241 0.78916 0.0
H548 H 0.45959 0.77789 0.89645 0.0
H549 H 0.43934 0.76878 0.82194 0.0
H550 H 0.43394 0.7487 0.74441 0.0
C551 C 0.37269 0.72 0.64476 0.0
C552 C 0.38538 0.72036 0.77884 0.0
C553 C 0.35616 0.71712 0.61171 0.0
C554 C 0.45439 0.76247 0.89123 0.0
C555 C 0.44275 0.75724 0.84855 0.0
C556 C 0.42049 0.74071 0.75449 0.0
C557 C 0.36974 0.72597 0.69462 0.0
C558 C 0.38699 0.72796 0.73092 0.0
C559 C 0.4342 0.73788 0.84264 0.0
C560 C 0.41863 0.7335 0.80284 0.0
H561 H 0.31854 0.72956 0.69105 0.0
H562 H 0.34723 0.73458 0.74821 0.0
H563 H 0.40653 0.74394 0.68218 0.0
H564 H 0.45295 0.71751 0.94912 0.0
H565 H 0.43299 0.70824 0.87434 0.0
C566 C 0.74865 0.84555 0.11432 0.0
C567 C 0.76845 0.84394 0.09714 0.0
C568 C 0.74329 0.86147 0.14675 0.0
C569 C 0.76535 0.89565 0.24201 0.0
H570 H 0.71695 0.9277 0.22405 0.0
C571 C 0.74858 0.96033 0.38037 0.0
C572 C 0.72855 0.96255 0.39491 0.0
C573 C 0.75318 0.94824 0.33879 0.0
C574 C 0.73042 0.91877 0.22996 0.0
H575 H 0.79802 0.85805 0.10002 0.0
H576 H 0.78871 0.88548 0.15699 0.0
H577 H 0.72501 0.90125 0.16246 0.0
H578 H 0.69755 0.95449 0.37719 0.0
H579 H 0.70551 0.9328 0.3054 0.0
H580 H 0.77053 0.91232 0.31013 0.0
C581 C 0.77736 0.87446 0.14535 0.0
C582 C 0.73503 0.90366 0.19457 0.0
C583 C 0.78265 0.85876 0.11254 0.0
C584 C 0.71309 0.9532 0.36607 0.0
C585 C 0.7177 0.94079 0.32493 0.0
C586 C 0.76063 0.91051 0.27763 0.0
C587 C 0.75769 0.87591 0.16312 0.0
C588 C 0.75258 0.89199 0.20024 0.0
C589 C 0.73789 0.93767 0.31158 0.0
C590 C 0.74313 0.92236 0.27215 0.0
H591 H 0.73734 0.83445 0.10296 0.0
H592 H 0.72804 0.86218 0.1601 0.0
H593 H 0.77882 0.88667 0.24775 0.0
H594 H 0.76073 0.96739 0.40229 0.0
H595 H 0.76884 0.94671 0.32896 0.0
C596 C 0.68145 0.27246 0.67903 0.0
C597 C 0.67812 0.28579 0.64006 0.0
C598 C 0.6662 0.2686 0.71228 0.0
C599 C 0.61086 0.27501 0.73091 0.0
H600 H 0.6266 0.26806 0.86927 0.0
C601 C 0.55678 0.28213 0.89674 0.0
C602 C 0.55841 0.26722 0.93281 0.0
C603 C 0.57032 0.28262 0.85786 0.0
C604 C 0.62201 0.26977 0.83065 0.0
H605 H 0.65617 0.30547 0.60518 0.0
H606 H 0.62986 0.29945 0.66426 0.0
H607 H 0.65244 0.27269 0.80819 0.0
H608 H 0.575 0.24048 0.95439 0.0
H609 H 0.59899 0.24182 0.88743 0.0
H610 H 0.5803 0.27294 0.75445 0.0
C611 C 0.64401 0.29146 0.66849 0.0
C612 C 0.63681 0.27234 0.79548 0.0
C613 C 0.65916 0.29504 0.63473 0.0
C614 C 0.57354 0.25245 0.92799 0.0
C615 C 0.58723 0.25313 0.88956 0.0
C616 C 0.59604 0.27277 0.76632 0.0
C617 C 0.64735 0.27825 0.70791 0.0
C618 C 0.63147 0.27501 0.74508 0.0
C619 C 0.58593 0.26838 0.85457 0.0
C620 C 0.60149 0.27012 0.8165 0.0
H621 H 0.69583 0.26489 0.68367 0.0
H622 H 0.66922 0.25798 0.74136 0.0
H623 H 0.60613 0.27666 0.69239 0.0
H624 H 0.54555 0.29393 0.89954 0.0
H625 H 0.5691 0.29464 0.83155 0.0
C626 C 0.23558 0.17519 0.16779 0.0
C627 C 0.23513 0.17034 0.11652 0.0
C628 C 0.23912 0.16026 0.20251 0.0
C629 C 0.26143 0.1108 0.222 0.0
H630 H 0.2222 0.10669 0.32563 0.0
C631 C 0.27217 0.06383 0.40029 0.0
C632 C 0.25572 0.0518 0.41264 0.0
C633 C 0.27045 0.07714 0.36102 0.0
C634 C 0.23322 0.10761 0.29678 0.0
H635 H 0.23886 0.14616 0.06147 0.0
H636 H 0.24552 0.1201 0.12248 0.0
H637 H 0.21825 0.13267 0.26355 0.0
H638 H 0.22466 0.04411 0.39351 0.0
H639 H 0.22155 0.06763 0.32536 0.0
H640 H 0.27659 0.0859 0.25602 0.0
C641 C 0.24292 0.13546 0.13554 0.0
C642 C 0.23104 0.12255 0.26156 0.0
C643 C 0.23903 0.15034 0.10072 0.0
C644 C 0.23763 0.05308 0.38449 0.0
C645 C 0.23581 0.06661 0.34579 0.0
C646 C 0.26381 0.09604 0.25787 0.0
C647 C 0.24262 0.14023 0.18674 0.0
C648 C 0.24511 0.12429 0.22384 0.0
C649 C 0.25213 0.07891 0.33402 0.0
C650 C 0.24967 0.09429 0.29547 0.0
H651 H 0.23261 0.19043 0.18125 0.0
H652 H 0.23899 0.16435 0.2418 0.0
H653 H 0.2725 0.11189 0.19333 0.0
H654 H 0.28629 0.06308 0.42139 0.0
H655 H 0.28321 0.08655 0.35285 0.0
C656 C 0.21508 0.29212 0.95044 0.0
C657 C 0.22254 0.28282 0.99353 0.0
C658 C 0.21305 0.31312 0.94936 0.0
C659 C 0.23123 0.36028 0.01324 0.0
H660 H 0.18401 0.384 0.95013 0.0
C661 C 0.21164 0.445 0.0369 0.0
C662 C 0.20369 0.45469 0.99518 0.0
C663 C 0.21464 0.4241 0.03527 0.0
C664 C 0.19742 0.37764 0.96736 0.0
H665 H 0.23344 0.28842 0.06954 0.0
H666 H 0.22971 0.32487 0.06775 0.0
H667 H 0.18767 0.34742 0.94986 0.0
H668 H 0.19277 0.45068 0.91906 0.0
H669 H 0.19819 0.41414 0.91569 0.0
H670 H 0.24092 0.39048 0.031 0.0
C671 C 0.22574 0.31599 0.03448 0.0
C672 C 0.19952 0.35664 0.9672 0.0
C673 C 0.22777 0.29503 0.03557 0.0
C674 C 0.19896 0.44339 0.95162 0.0
C675 C 0.20193 0.4225 0.94991 0.0
C676 C 0.22913 0.38126 0.01342 0.0
C677 C 0.21843 0.32532 0.99133 0.0
C678 C 0.2164 0.34769 0.99036 0.0
C679 C 0.20967 0.41255 0.99185 0.0
C680 C 0.21216 0.39021 0.99066 0.0
H681 H 0.2109 0.2832 0.91737 0.0
H682 H 0.20754 0.31981 0.91535 0.0
H683 H 0.2446 0.35392 0.03068 0.0
H684 H 0.21524 0.45353 0.07098 0.0
H685 H 0.22039 0.41693 0.06842 0.0
C686 C 0.20562 0.71959 0.47925 0.0
C687 C 0.2179 0.72337 0.522 0.0
C688 C 0.18471 0.72251 0.48063 0.0
C689 C 0.1466 0.75094 0.5518 0.0
H690 H 0.10833 0.7157 0.48084 0.0
C691 C 0.06099 0.76432 0.56407 0.0
C692 C 0.04992 0.76268 0.51906 0.0
C693 C 0.08091 0.75734 0.56697 0.0
C694 C 0.11883 0.72577 0.5006 0.0
H695 H 0.21759 0.73234 0.60028 0.0
H696 H 0.18131 0.73719 0.60269 0.0
H697 H 0.14428 0.70766 0.48036 0.0
H698 H 0.05037 0.75232 0.44212 0.0
H699 H 0.08519 0.74023 0.44677 0.0
H700 H 0.12133 0.76923 0.57143 0.0
C701 C 0.18784 0.73238 0.56781 0.0
C702 C 0.13944 0.72116 0.50027 0.0
C703 C 0.20868 0.7295 0.56645 0.0
C704 C 0.05868 0.7535 0.47736 0.0
C705 C 0.07859 0.74654 0.48015 0.0
C706 C 0.12604 0.75555 0.55209 0.0
C707 C 0.1756 0.72924 0.52478 0.0
C708 C 0.15359 0.73373 0.52576 0.0
C709 C 0.0901 0.7487 0.52476 0.0
C710 C 0.11187 0.74309 0.52635 0.0
H711 H 0.2122 0.71483 0.4444 0.0
H712 H 0.17575 0.72007 0.44669 0.0
H713 H 0.15708 0.76118 0.57107 0.0
H714 H 0.05445 0.77147 0.59658 0.0
H715 H 0.08921 0.75898 0.60209 0.0
C716 C 0.76932 0.71657 0.9522 0.0
C717 C 0.77876 0.72839 0.99039 0.0
C718 C 0.77017 0.69552 0.95274 0.0
C719 C 0.77965 0.65356 0.0385 0.0
H720 H 0.78122 0.62135 0.91589 0.0
C721 C 0.78432 0.56721 0.04146 0.0
C722 C 0.76997 0.557 0.011 0.0
C723 C 0.78805 0.58769 0.03513 0.0
C724 C 0.78074 0.63017 0.9504 0.0
H725 H 0.79705 0.72727 0.05833 0.0
H726 H 0.79897 0.69058 0.05869 0.0
H727 H 0.78284 0.65809 0.91299 0.0
H728 H 0.74867 0.55957 0.94921 0.0
H729 H 0.75533 0.59548 0.93748 0.0
H730 H 0.77758 0.62565 0.07585 0.0
C731 C 0.79044 0.69756 0.02892 0.0
C732 C 0.78157 0.65123 0.94879 0.0
C733 C 0.78942 0.71863 0.02863 0.0
C734 C 0.76003 0.56719 0.97258 0.0
C735 C 0.76384 0.5877 0.96599 0.0
C736 C 0.779 0.63254 0.04011 0.0
C737 C 0.78066 0.6857 0.99122 0.0
C738 C 0.78084 0.66323 0.99283 0.0
C739 C 0.77746 0.59831 0.99821 0.0
C740 C 0.77938 0.6206 0.99608 0.0
H741 H 0.76092 0.72357 0.92222 0.0
H742 H 0.76218 0.68697 0.92351 0.0
H743 H 0.77864 0.66222 0.07311 0.0
H744 H 0.79198 0.55959 0.07166 0.0
H745 H 0.7988 0.59538 0.06012 0.0
C746 C 0.80303 0.27862 0.56034 0.0
C747 C 0.79114 0.28304 0.51793 0.0
C748 C 0.82409 0.27895 0.55881 0.0
C749 C 0.86596 0.29948 0.48744 0.0
H750 H 0.89786 0.25912 0.55527 0.0
C751 C 0.95164 0.29261 0.46245 0.0
C752 C 0.96356 0.28974 0.5054 0.0
C753 C 0.93066 0.29098 0.46393 0.0
C754 C 0.88917 0.2706 0.53654 0.0
H755 H 0.79218 0.2912 0.4405 0.0
H756 H 0.82885 0.29152 0.43768 0.0
H757 H 0.86111 0.2579 0.55769 0.0
H758 H 0.96345 0.28272 0.58338 0.0
H759 H 0.9266 0.27987 0.58634 0.0
H760 H 0.89397 0.31217 0.46622 0.0
C761 C 0.8219 0.28807 0.47238 0.0
C762 C 0.8681 0.26992 0.53795 0.0
C763 C 0.80084 0.28777 0.47392 0.0
C764 C 0.9544 0.28488 0.54979 0.0
C765 C 0.93338 0.2832 0.55134 0.0
C766 C 0.88699 0.30013 0.48594 0.0
C767 C 0.8338 0.28371 0.51484 0.0
C768 C 0.85622 0.28435 0.51336 0.0
C769 C 0.92125 0.28647 0.50851 0.0
C770 C 0.89886 0.28568 0.51038 0.0
H771 H 0.7961 0.27502 0.59497 0.0
H772 H 0.83276 0.27581 0.5924 0.0
H773 H 0.85733 0.31106 0.46889 0.0
H774 H 0.95852 0.29637 0.42783 0.0
H775 H 0.92181 0.29329 0.43013 0.0
C776 C 0.72094 0.21528 0.57669 0.0
C777 C 0.72779 0.22486 0.53435 0.0
C778 C 0.71897 0.19426 0.57685 0.0
C779 C 0.73604 0.14744 0.51171 0.0
H780 H 0.68885 0.12367 0.56843 0.0
C781 C 0.71389 0.06389 0.47566 0.0
C782 C 0.70577 0.0535 0.515 0.0
C783 C 0.71771 0.08461 0.4807 0.0
C784 C 0.70227 0.13002 0.55305 0.0
H785 H 0.73782 0.21973 0.45884 0.0
H786 H 0.73422 0.18328 0.45906 0.0
H787 H 0.69323 0.16017 0.57251 0.0
H788 H 0.69543 0.05607 0.59045 0.0
H789 H 0.70231 0.0923 0.59981 0.0
H790 H 0.74499 0.11732 0.49184 0.0
C791 C 0.73066 0.19194 0.49245 0.0
C792 C 0.70478 0.15098 0.55539 0.0
C793 C 0.7326 0.21291 0.49225 0.0
C794 C 0.70177 0.0639 0.55972 0.0
C795 C 0.70556 0.08463 0.56484 0.0
C796 C 0.73354 0.1265 0.50938 0.0
C797 C 0.72384 0.18233 0.53472 0.0
C798 C 0.72161 0.15997 0.53435 0.0
C799 C 0.7134 0.09529 0.52521 0.0
C800 C 0.71654 0.11752 0.52965 0.0
H801 H 0.71709 0.22401 0.60977 0.0
H802 H 0.71384 0.18733 0.6102 0.0
H803 H 0.74937 0.15382 0.49591 0.0
H804 H 0.71691 0.05608 0.44069 0.0
H805 H 0.7235 0.09235 0.44921 0.0
C806 C 0.29844 0.23117 0.96612 0.0
C807 C 0.28795 0.22839 0.0101 0.0
C808 C 0.31931 0.23399 0.96763 0.0
C809 C 0.36559 0.22883 0.0477 0.0
H810 H 0.38631 0.26876 0.95992 0.0
C811 C 0.44694 0.26208 0.06306 0.0
C812 C 0.4565 0.26503 0.01804 0.0
C813 C 0.42682 0.25564 0.06288 0.0
C814 C 0.38081 0.25739 0.98426 0.0
H815 H 0.29132 0.22589 0.09014 0.0
H816 H 0.32773 0.23129 0.09291 0.0
H817 H 0.35041 0.26143 0.95835 0.0
H818 H 0.45323 0.26327 0.93783 0.0
H819 H 0.41814 0.25192 0.93725 0.0
H820 H 0.39617 0.22522 0.07425 0.0
C821 C 0.31984 0.23098 0.05711 0.0
C822 C 0.3602 0.25314 0.98331 0.0
C823 C 0.29893 0.22799 0.05556 0.0
C824 C 0.44605 0.26098 0.97294 0.0
C825 C 0.42597 0.25465 0.97268 0.0
C826 C 0.38627 0.23321 0.04888 0.0
C827 C 0.33026 0.23429 0.01319 0.0
C828 C 0.3523 0.23872 0.01477 0.0
C829 C 0.41599 0.25228 0.01762 0.0
C830 C 0.39411 0.24745 0.01692 0.0
H831 H 0.2905 0.23129 0.93038 0.0
H832 H 0.32685 0.236 0.93292 0.0
H833 H 0.36008 0.2175 0.07211 0.0
H834 H 0.45481 0.26531 0.09823 0.0
H835 H 0.4195 0.25408 0.09807 0.0
C836 C 0.28142 0.79085 0.57381 0.0
C837 C 0.28088 0.77958 0.5287 0.0
C838 C 0.28054 0.81198 0.57385 0.0
C839 C 0.2643 0.85326 0.49127 0.0
H840 H 0.29153 0.888 0.59028 0.0
C841 C 0.26495 0.93885 0.47202 0.0
C842 C 0.25897 0.95022 0.51374 0.0
C843 C 0.26985 0.91849 0.47623 0.0
C844 C 0.28379 0.87844 0.56257 0.0
H845 H 0.28031 0.7816 0.44838 0.0
H846 H 0.27953 0.8182 0.44834 0.0
H847 H 0.29621 0.85139 0.59264 0.0
H848 H 0.25394 0.94984 0.59281 0.0
H849 H 0.26277 0.914 0.60057 0.0
H850 H 0.25208 0.8802 0.46087 0.0
C851 C 0.27982 0.81087 0.4838 0.0
C852 C 0.28639 0.85747 0.56395 0.0
C853 C 0.2804 0.78985 0.48378 0.0
C854 C 0.25872 0.94127 0.56029 0.0
C855 C 0.26377 0.92085 0.56465 0.0
C856 C 0.26189 0.87411 0.4896 0.0
C857 C 0.27935 0.82225 0.52876 0.0
C858 C 0.27674 0.8446 0.5281 0.0
C859 C 0.26886 0.90913 0.52232 0.0
C860 C 0.27166 0.88696 0.52501 0.0
H861 H 0.28177 0.78336 0.60905 0.0
H862 H 0.28009 0.82018 0.60921 0.0
H863 H 0.25612 0.84391 0.4639 0.0
H864 H 0.26513 0.94552 0.43573 0.0
H865 H 0.27395 0.90992 0.44311 0.0
C866 C 0.70581 0.77749 0.0168 0.0
C867 C 0.71604 0.78656 0.97818 0.0
C868 C 0.68479 0.77728 0.01718 0.0
C869 C 0.6386 0.78343 0.93802 0.0
H870 H 0.61377 0.79076 0.06616 0.0
C871 C 0.55204 0.79409 0.96614 0.0
C872 C 0.54402 0.78391 0.00604 0.0
C873 C 0.57289 0.79384 0.95867 0.0
C874 C 0.62045 0.78849 0.03012 0.0
H875 H 0.712 0.80246 0.90932 0.0
H876 H 0.67509 0.80243 0.91044 0.0
H877 H 0.65024 0.79228 0.06106 0.0
H878 H 0.55093 0.76515 0.06863 0.0
H879 H 0.58727 0.76457 0.05566 0.0
H880 H 0.60852 0.77993 0.90727 0.0
C881 C 0.68346 0.7952 0.94012 0.0
C882 C 0.64141 0.78934 0.02716 0.0
C883 C 0.70461 0.79531 0.93959 0.0
C884 C 0.55688 0.77302 0.03747 0.0
C885 C 0.57765 0.77285 0.03025 0.0
C886 C 0.61753 0.78272 0.94098 0.0
C887 C 0.67329 0.78631 0.9792 0.0
C888 C 0.65082 0.78651 0.98124 0.0
C889 C 0.58597 0.78361 0.99143 0.0
C890 C 0.60826 0.78495 0.98722 0.0
H891 H 0.71405 0.77043 0.04695 0.0
H892 H 0.67755 0.76988 0.04728 0.0
H893 H 0.64532 0.78105 0.90208 0.0
H894 H 0.54231 0.80274 0.94179 0.0
H895 H 0.57885 0.80235 0.92862 0.0
loop_
_geom_bond_atom_site_label_1
_geom_bond_atom_site_label_2
_geom_bond_distance
_geom_bond_site_symmetry_2
_ccdc_geom_bond_type
Fe0 O2 1.918 . S
Fe0 O5 1.997 . S
Fe0 O6 2.002 . S
Fe0 O11 1.976 . S
Fe0 O14 1.996 . S
Fe1 O2 1.918 1_556 S
Fe1 O9 1.997 . S
Fe1 O12 1.996 . S
Fe1 O16 1.976 . S
Fe1 O19 2.002 . S
O2 Fe0 1.918 . S
O2 Fe1 1.918 1_554 S
O2 Fe3 1.918 . S
Fe3 O2 1.918 . S
Fe3 O4 2.002 . S
Fe3 O13 1.976 . S
Fe3 O17 1.996 1_554 S
Fe3 O20 1.997 1_554 S
O4 Fe3 2.002 . S
O4 C21 1.295 . S
O5 Fe0 1.997 . S
O5 C21 1.235 . S
O6 Fe0 2.002 . S
O6 C7 1.295 . S
C7 O6 1.295 . S
C7 O9 1.235 1_554 S
C8 O13 1.287 . S
C8 O14 1.255 . S
O9 Fe1 1.997 . S
O9 C7 1.235 1_556 S
C10 O16 1.287 . S
C10 O17 1.255 . S
O11 Fe0 1.976 . S
O11 C18 1.287 . S
O12 Fe1 1.996 . S
O12 C18 1.255 1_556 S
O13 Fe3 1.976 . S
O13 C8 1.287 . S
O14 Fe0 1.996 . S
O14 C8 1.255 . S
C15 O19 1.295 . S
C15 O20 1.235 . S
O16 Fe1 1.976 . S
O16 C10 1.287 . S
O17 Fe3 1.996 1_556 S
O17 C10 1.255 . S
C18 O11 1.287 . S
C18 O12 1.255 1_554 S
O19 Fe1 2.002 . S
O19 C15 1.295 . S
O20 Fe3 1.997 1_556 S
O20 C15 1.235 . S
C21 O4 1.295 . S
C21 O5 1.235 . S
Fe22 O24 1.918 . S
Fe22 O27 1.997 . S
Fe22 O28 2.002 . S
Fe22 O33 1.976 . S
Fe22 O36 1.996 . S
Fe23 O24 1.918 . S
Fe23 O31 1.997 . S
Fe23 O34 1.996 . S
Fe23 O38 1.976 . S
Fe23 O41 2.002 . S
O24 Fe22 1.918 . S
O24 Fe23 1.918 . S
O24 Fe25 1.918 . S
Fe25 O24 1.918 . S
Fe25 O26 2.002 . S
Fe25 O35 1.976 . S
Fe25 O39 1.996 . S
Fe25 O42 1.997 . S
O26 Fe25 2.002 . S
O26 C43 1.295 . S
O27 Fe22 1.997 . S
O27 C43 1.235 . S
O28 Fe22 2.002 . S
O28 C29 1.295 . S
C29 O28 1.295 . S
C29 O31 1.235 . S
C30 O35 1.287 . S
C30 O36 1.255 . S
O31 Fe23 1.997 . S
O31 C29 1.235 . S
C32 O38 1.287 . S
C32 O39 1.255 . S
O33 Fe22 1.976 . S
O33 C40 1.287 . S
O34 Fe23 1.996 . S
O34 C40 1.255 . S
O35 Fe25 1.976 . S
O35 C30 1.287 . S
O36 Fe22 1.996 . S
O36 C30 1.255 . S
C37 O41 1.295 . S
C37 O42 1.235 . S
O38 Fe23 1.976 . S
O38 C32 1.287 . S
O39 Fe25 1.996 . S
O39 C32 1.255 . S
C40 O33 1.287 . S
C40 O34 1.255 . S
O41 Fe23 2.002 . S
O41 C37 1.295 . S
O42 Fe25 1.997 . S
O42 C37 1.235 . S
C43 O26 1.295 . S
C43 O27 1.235 . S
Fe44 O46 1.918 1_556 S
Fe44 O49 1.997 . S
Fe44 O50 2.002 . S
Fe44 O55 1.976 . S
Fe44 O58 1.996 . S
Fe45 O46 1.918 . S
Fe45 O53 1.997 . S
Fe45 O56 1.996 . S
Fe45 O60 1.976 . S
Fe45 O63 2.002 . S
O46 Fe44 1.918 1_554 S
O46 Fe45 1.918 . S
O46 Fe47 1.918 . S
Fe47 O46 1.918 . S
Fe47 O48 2.002 1_554 S
Fe47 O57 1.976 1_554 S
Fe47 O61 1.996 . S
Fe47 O64 1.997 . S
O48 Fe47 2.002 1_556 S
O48 C65 1.295 . S
O49 Fe44 1.997 . S
O49 C65 1.235 . S
O50 Fe44 2.002 . S
O50 C51 1.295 1_556 S
C51 O50 1.295 1_554 S
C51 O53 1.235 . S
C52 O57 1.287 . S
C52 O58 1.255 . S
O53 Fe45 1.997 . S
O53 C51 1.235 . S
C54 O60 1.287 . S
C54 O61 1.255 . S
O55 Fe44 1.976 . S
O55 C62 1.287 1_556 S
O56 Fe45 1.996 . S
O56 C62 1.255 . S
O57 Fe47 1.976 1_556 S
O57 C52 1.287 . S
O58 Fe44 1.996 . S
O58 C52 1.255 . S
C59 O63 1.295 . S
C59 O64 1.235 . S
O60 Fe45 1.976 . S
O60 C54 1.287 . S
O61 Fe47 1.996 . S
O61 C54 1.255 . S
C62 O55 1.287 1_554 S
C62 O56 1.255 . S
O63 Fe45 2.002 . S
O63 C59 1.295 . S
O64 Fe47 1.997 . S
O64 C59 1.235 . S
C65 O48 1.295 . S
C65 O49 1.235 . S
Fe66 O68 1.918 . S
Fe66 O71 1.997 . S
Fe66 O72 2.002 . S
Fe66 O77 1.976 . S
Fe66 O80 1.996 . S
Fe67 O68 1.918 . S
Fe67 O75 1.997 . S
Fe67 O78 1.996 . S
Fe67 O82 1.976 . S
Fe67 O85 2.002 . S
O68 Fe66 1.918 . S
O68 Fe67 1.918 . S
O68 Fe69 1.918 . S
Fe69 O68 1.918 . S
Fe69 O70 2.002 . S
Fe69 O79 1.976 . S
Fe69 O83 1.996 . S
Fe69 O86 1.997 . S
O70 Fe69 2.002 . S
O70 C87 1.295 . S
O71 Fe66 1.997 . S
O71 C87 1.235 . S
O72 Fe66 2.002 . S
O72 C73 1.295 . S
C73 O72 1.295 . S
C73 O75 1.235 . S
C74 O79 1.287 . S
C74 O80 1.255 . S
O75 Fe67 1.997 . S
O75 C73 1.235 . S
C76 O82 1.287 . S
C76 O83 1.255 . S
O77 Fe66 1.976 . S
O77 C84 1.287 . S
O78 Fe67 1.996 . S
O78 C84 1.255 . S
O79 Fe69 1.976 . S
O79 C74 1.287 . S
O80 Fe66 1.996 . S
O80 C74 1.255 . S
C81 O85 1.295 . S
C81 O86 1.235 . S
O82 Fe67 1.976 . S
O82 C76 1.287 . S
O83 Fe69 1.996 . S
O83 C76 1.255 . S
C84 O77 1.287 . S
C84 O78 1.255 . S
O85 Fe67 2.002 . S
O85 C81 1.295 . S
O86 Fe69 1.997 . S
O86 C81 1.235 . S
C87 O70 1.295 . S
C87 O71 1.235 . S
H88 C91 0.928 1_554 S
H89 C94 0.929 . S
H90 C96 0.930 . S
C91 H88 0.928 1_556 S
C91 C92 1.415 . S
C91 C93 1.380 1_556 S
C92 C91 1.415 . S
C92 C96 1.407 . S
C93 C91 1.380 1_554 S
C93 C94 1.394 . S
C94 H89 0.929 . S
C94 C93 1.394 . S
C94 C95 1.382 1_554 S
C95 C94 1.382 1_556 S
C95 C96 1.392 . S
C95 N97 1.420 . S
C96 H90 0.930 . S
C96 C92 1.407 . S
C96 C95 1.392 . S
N97 C95 1.420 . S
N97 C98 1.244 1_556 S
C98 N97 1.244 1_554 S
H99 C102 0.929 . S
H100 C105 0.958 . S
H101 C107 0.930 . S
C102 H99 0.929 . S
C102 C103 1.398 . S
C102 C104 1.396 . S
C103 C102 1.398 . S
C103 C107 1.407 . S
C104 C102 1.396 . S
C104 C105 1.394 . S
C105 H100 0.958 . S
C105 C104 1.394 . S
C105 C106 1.380 1_655 S
C106 C105 1.380 1_455 S
C106 C107 1.389 1_455 S
C106 N108 1.425 . S
C107 H101 0.930 . S
C107 C103 1.407 . S
C107 C106 1.389 1_655 S
N108 C106 1.425 . S
N108 C109 1.244 . S
C109 N108 1.244 . S
H110 C113 0.929 . S
H111 C116 0.929 . S
H112 C118 0.930 . S
C113 H110 0.929 . S
C113 C114 1.398 . S
C113 C115 1.396 1_554 S
C114 C113 1.398 . S
C114 C118 1.407 . S
C115 C113 1.396 1_556 S
C115 C116 1.394 . S
C116 H111 0.929 . S
C116 C115 1.394 . S
C116 C117 1.382 1_556 S
C117 C116 1.382 1_554 S
C117 C118 1.392 . S
C117 N119 1.420 . S
C118 H112 0.930 . S
C118 C114 1.407 . S
C118 C117 1.392 . S
N119 C117 1.420 . S
N119 C120 1.244 . S
C120 N119 1.244 . S
H121 C124 0.929 . S
H122 C127 0.929 . S
H123 C129 0.930 . S
C124 H121 0.929 . S
C124 C125 1.398 . S
C124 C126 1.396 . S
C125 C124 1.398 . S
C125 C129 1.407 . S
C126 C124 1.396 . S
C126 C127 1.394 . S
C127 H122 0.929 . S
C127 C126 1.394 . S
C127 C128 1.395 . S
C128 C127 1.395 . S
C128 C129 1.411 . S
C128 N130 1.390 1_455 S
C129 H123 0.930 . S
C129 C125 1.407 . S
C129 C128 1.411 . S
N130 C128 1.390 1_655 S
N130 C131 1.244 . S
C131 N130 1.244 . S
H132 C135 0.929 . S
H133 C138 0.929 1_545 S
H134 C140 0.930 . S
C135 H132 0.929 . S
C135 C136 1.398 . S
C135 C137 1.396 . S
C136 C135 1.398 . S
C136 C140 1.407 . S
C137 C135 1.396 . S
C137 C138 1.394 . S
C138 H133 0.929 1_565 S
C138 C137 1.394 . S
C138 C139 1.382 1_565 S
C139 C138 1.382 1_545 S
C139 C140 1.392 1_545 S
C139 N141 1.420 . S
C140 H134 0.930 . S
C140 C136 1.407 . S
C140 C139 1.392 1_565 S
N141 C139 1.420 . S
N141 C142 1.244 . S
C142 N141 1.244 . S
H143 C146 0.929 . S
H144 C149 0.929 . S
H145 C151 0.930 . S
C146 H143 0.929 . S
C146 C147 1.398 1_554 S
C146 C148 1.396 . S
C147 C146 1.398 1_556 S
C147 C151 1.407 . S
C148 C146 1.396 . S
C148 C149 1.394 . S
C149 H144 0.929 . S
C149 C148 1.394 . S
C149 C150 1.382 1_554 S
C150 C149 1.382 1_556 S
C150 C151 1.392 . S
C150 N152 1.420 . S
C151 H145 0.930 . S
C151 C147 1.407 . S
C151 C150 1.392 . S
N152 C150 1.420 . S
N152 C153 1.244 1_556 S
C153 N152 1.244 1_554 S
H154 C157 0.929 . S
H155 C160 0.964 . S
H156 C162 0.930 . S
C157 H154 0.929 . S
C157 C158 1.398 . S
C157 C159 1.396 . S
C158 C157 1.398 . S
C158 C162 1.407 . S
C159 C157 1.396 . S
C159 C160 1.394 . S
C160 H155 0.964 . S
C160 C159 1.394 . S
C160 C161 1.383 1_545 S
C161 C160 1.383 1_565 S
C161 C162 1.393 1_565 S
C161 N163 1.418 . S
C162 H156 0.930 . S
C162 C158 1.407 . S
C162 C161 1.393 1_545 S
N163 C161 1.418 . S
N163 C164 1.244 . S
C164 N163 1.244 . S
H165 C168 0.929 . S
H166 C171 0.929 . S
H167 C173 0.930 . S
C168 H165 0.929 . S
C168 C169 1.398 . S
C168 C170 1.396 1_554 S
C169 C168 1.398 . S
C169 C173 1.407 . S
C170 C168 1.396 1_556 S
C170 C171 1.394 . S
C171 H166 0.929 . S
C171 C170 1.394 . S
C171 C172 1.382 1_556 S
C172 C171 1.382 1_554 S
C172 C173 1.392 . S
C172 N174 1.420 . S
C173 H167 0.930 . S
C173 C169 1.407 . S
C173 C172 1.392 . S
N174 C172 1.420 . S
N174 C175 1.244 . S
C175 N174 1.244 . S
C176 C177 1.349 . S
C176 C178 1.327 . S
C176 H201 0.950 . S
C177 C176 1.349 . S
C177 C193 1.349 . S
C178 C176 1.327 . S
C178 C197 1.429 . S
C178 H202 0.950 . S
C179 C196 1.574 . S
C179 C198 1.368 . S
C179 H203 0.949 . S
H180 C184 0.949 . S
C181 C182 1.349 . S
C181 C183 1.327 . S
C181 H204 0.950 . S
C182 C181 1.349 . S
C182 C194 1.349 . S
C183 C181 1.327 . S
C183 C199 1.429 . S
C183 H205 0.950 . S
C184 H180 0.949 . S
C184 C192 1.574 . S
C184 C200 1.368 . S
H185 C193 0.950 . S
H186 C191 0.950 . S
H187 C192 0.949 . S
H188 C194 0.950 . S
H189 C195 0.950 . S
H190 C196 0.949 . S
C191 H186 0.950 . S
C191 C193 1.327 . S
C191 C197 1.429 . S
C192 C184 1.574 . S
C192 H187 0.949 . S
C192 C198 1.368 . S
C193 C177 1.349 . S
C193 H185 0.950 . S
C193 C191 1.327 . S
C194 C182 1.349 . S
C194 H188 0.950 . S
C194 C195 1.327 . S
C195 H189 0.950 . S
C195 C194 1.327 . S
C195 C199 1.429 . S
C196 C179 1.574 . S
C196 H190 0.949 . S
C196 C200 1.368 . S
C197 C178 1.429 . S
C197 C191 1.429 . S
C197 C198 1.523 . S
C198 C179 1.368 . S
C198 C192 1.368 . S
C198 C197 1.523 . S
C199 C183 1.429 . S
C199 C195 1.429 . S
C199 C200 1.523 . S
C200 C184 1.368 . S
C200 C196 1.368 . S
C200 C199 1.523 . S
H201 C176 0.950 . S
H202 C178 0.950 . S
H203 C179 0.949 . S
H204 C181 0.950 . S
H205 C183 0.950 . S
C206 C207 1.349 . S
C206 C208 1.327 . S
C206 H231 0.950 . S
C207 C206 1.349 . S
C207 C223 1.349 . S
C208 C206 1.327 . S
C208 C227 1.429 . S
C208 H232 0.950 . S
C209 C226 1.574 . S
C209 C228 1.368 . S
C209 H233 0.949 . S
H210 C214 0.949 . S
C211 C212 1.349 . S
C211 C213 1.327 . S
C211 H234 0.950 . S
C212 C211 1.349 . S
C212 C224 1.349 . S
C213 C211 1.327 . S
C213 C229 1.429 . S
C213 H235 0.950 . S
C214 H210 0.949 . S
C214 C222 1.574 . S
C214 C230 1.368 . S
H215 C223 0.950 . S
H216 C221 0.950 . S
H217 C222 0.949 . S
H218 C224 0.950 . S
H219 C225 0.950 . S
H220 C226 0.949 . S
C221 H216 0.950 . S
C221 C223 1.327 . S
C221 C227 1.429 . S
C222 C214 1.574 . S
C222 H217 0.949 . S
C222 C228 1.368 . S
C223 C207 1.349 . S
C223 H215 0.950 . S
C223 C221 1.327 . S
C224 C212 1.349 . S
C224 H218 0.950 . S
C224 C225 1.327 . S
C225 H219 0.950 . S
C225 C224 1.327 . S
C225 C229 1.429 . S
C226 C209 1.574 . S
C226 H220 0.949 . S
C226 C230 1.368 . S
C227 C208 1.429 . S
C227 C221 1.429 . S
C227 C228 1.523 . S
C228 C209 1.368 . S
C228 C222 1.368 . S
C228 C227 1.523 . S
C229 C213 1.429 . S
C229 C225 1.429 . S
C229 C230 1.523 . S
C230 C214 1.368 . S
C230 C226 1.368 . S
C230 C229 1.523 . S
H231 C206 0.950 . S
H232 C208 0.950 . S
H233 C209 0.949 . S
H234 C211 0.950 . S
H235 C213 0.950 . S
C236 C237 1.349 . S
C236 C238 1.327 . S
C236 H261 0.950 . S
C237 C236 1.349 . S
C237 C253 1.349 . S
C238 C236 1.327 . S
C238 C257 1.429 . S
C238 H262 0.950 . S
C239 C256 1.574 . S
C239 C258 1.368 . S
C239 H263 0.949 . S
H240 C244 0.949 . S
C241 C242 1.349 . S
C241 C243 1.327 . S
C241 H264 0.950 . S
C242 C241 1.349 . S
C242 C254 1.349 . S
C243 C241 1.327 . S
C243 C259 1.429 . S
C243 H265 0.950 . S
C244 H240 0.949 . S
C244 C252 1.574 . S
C244 C260 1.368 . S
H245 C253 0.950 . S
H246 C251 0.950 . S
H247 C252 0.949 . S
H248 C254 0.950 . S
H249 C255 0.950 . S
H250 C256 0.949 . S
C251 H246 0.950 . S
C251 C253 1.327 . S
C251 C257 1.429 . S
C252 C244 1.574 . S
C252 H247 0.949 . S
C252 C258 1.368 . S
C253 C237 1.349 . S
C253 H245 0.950 . S
C253 C251 1.327 . S
C254 C242 1.349 . S
C254 H248 0.950 . S
C254 C255 1.327 . S
C255 H249 0.950 . S
C255 C254 1.327 . S
C255 C259 1.429 . S
C256 C239 1.574 . S
C256 H250 0.949 . S
C256 C260 1.368 . S
C257 C238 1.429 . S
C257 C251 1.429 . S
C257 C258 1.523 . S
C258 C239 1.368 . S
C258 C252 1.368 . S
C258 C257 1.523 . S
C259 C243 1.429 . S
C259 C255 1.429 . S
C259 C260 1.523 . S
C260 C244 1.368 . S
C260 C256 1.368 . S
C260 C259 1.523 . S
H261 C236 0.950 . S
H262 C238 0.950 . S
H263 C239 0.949 . S
H264 C241 0.950 . S
H265 C243 0.950 . S
C266 C267 1.349 . S
C266 C268 1.327 . S
C266 H291 0.950 . S
C267 C266 1.349 . S
C267 C283 1.349 . S
C268 C266 1.327 . S
C268 C287 1.429 . S
C268 H292 0.950 . S
C269 C286 1.574 . S
C269 C288 1.368 . S
C269 H293 0.949 . S
H270 C274 0.949 . S
C271 C272 1.349 . S
C271 C273 1.327 . S
C271 H294 0.950 . S
C272 C271 1.349 . S
C272 C284 1.349 . S
C273 C271 1.327 . S
C273 C289 1.429 . S
C273 H295 0.950 . S
C274 H270 0.949 . S
C274 C282 1.574 . S
C274 C290 1.368 . S
H275 C283 0.950 . S
H276 C281 0.950 . S
H277 C282 0.949 . S
H278 C284 0.950 . S
H279 C285 0.950 . S
H280 C286 0.949 . S
C281 H276 0.950 . S
C281 C283 1.327 . S
C281 C287 1.429 . S
C282 C274 1.574 . S
C282 H277 0.949 . S
C282 C288 1.368 . S
C283 C267 1.349 . S
C283 H275 0.950 . S
C283 C281 1.327 . S
C284 C272 1.349 . S
C284 H278 0.950 . S
C284 C285 1.327 . S
C285 H279 0.950 . S
C285 C284 1.327 . S
C285 C289 1.429 . S
C286 C269 1.574 . S
C286 H280 0.949 . S
C286 C290 1.368 . S
C287 C268 1.429 . S
C287 C281 1.429 . S
C287 C288 1.523 . S
C288 C269 1.368 . S
C288 C282 1.368 . S
C288 C287 1.523 . S
C289 C273 1.429 . S
C289 C285 1.429 . S
C289 C290 1.523 . S
C290 C274 1.368 . S
C290 C286 1.368 . S
C290 C289 1.523 . S
H291 C266 0.950 . S
H292 C268 0.950 . S
H293 C269 0.949 . S
H294 C271 0.950 . S
H295 C273 0.950 . S
C296 C297 1.349 . S
C296 C298 1.327 . S
C296 H321 0.950 . S
C297 C296 1.349 . S
C297 C313 1.349 . S
C298 C296 1.327 . S
C298 C317 1.429 . S
C298 H322 0.950 . S
C299 C316 1.574 . S
C299 C318 1.368 . S
C299 H323 0.949 . S
H300 C304 0.949 . S
C301 C302 1.349 . S
C301 C303 1.327 . S
C301 H324 0.950 . S
C302 C301 1.349 . S
C302 C314 1.349 . S
C303 C301 1.327 . S
C303 C319 1.429 . S
C303 H325 0.950 . S
C304 H300 0.949 . S
C304 C312 1.574 . S
C304 C320 1.368 . S
H305 C313 0.950 . S
H306 C311 0.950 . S
H307 C312 0.949 . S
H308 C314 0.950 . S
H309 C315 0.950 . S
H310 C316 0.949 . S
C311 H306 0.950 . S
C311 C313 1.327 . S
C311 C317 1.429 . S
C312 C304 1.574 . S
C312 H307 0.949 . S
C312 C318 1.368 . S
C313 C297 1.349 . S
C313 H305 0.950 . S
C313 C311 1.327 . S
C314 C302 1.349 . S
C314 H308 0.950 . S
C314 C315 1.327 . S
C315 H309 0.950 . S
C315 C314 1.327 . S
C315 C319 1.429 . S
C316 C299 1.574 . S
C316 H310 0.949 . S
C316 C320 1.368 . S
C317 C298 1.429 . S
C317 C311 1.429 . S
C317 C318 1.523 . S
C318 C299 1.368 . S
C318 C312 1.368 . S
C318 C317 1.523 . S
C319 C303 1.429 . S
C319 C315 1.429 . S
C319 C320 1.523 . S
C320 C304 1.368 . S
C320 C316 1.368 . S
C320 C319 1.523 . S
H321 C296 0.950 . S
H322 C298 0.950 . S
H323 C299 0.949 . S
H324 C301 0.950 . S
H325 C303 0.950 . S
C326 C327 1.349 . S
C326 C328 1.327 . S
C326 H351 0.950 . S
C327 C326 1.349 . S
C327 C343 1.349 . S
C328 C326 1.327 . S
C328 C347 1.429 . S
C328 H352 0.950 . S
C329 C346 1.574 . S
C329 C348 1.368 . S
C329 H353 0.949 . S
H330 C334 0.949 . S
C331 C332 1.349 . S
C331 C333 1.327 . S
C331 H354 0.950 . S
C332 C331 1.349 . S
C332 C344 1.349 . S
C333 C331 1.327 . S
C333 C349 1.429 . S
C333 H355 0.950 . S
C334 H330 0.949 . S
C334 C342 1.574 . S
C334 C350 1.368 . S
H335 C343 0.950 . S
H336 C341 0.950 . S
H337 C342 0.949 . S
H338 C344 0.950 . S
H339 C345 0.950 . S
H340 C346 0.949 . S
C341 H336 0.950 . S
C341 C343 1.327 . S
C341 C347 1.429 . S
C342 C334 1.574 . S
C342 H337 0.949 . S
C342 C348 1.368 . S
C343 C327 1.349 . S
C343 H335 0.950 . S
C343 C341 1.327 . S
C344 C332 1.349 . S
C344 H338 0.950 . S
C344 C345 1.327 . S
C345 H339 0.950 . S
C345 C344 1.327 . S
C345 C349 1.429 . S
C346 C329 1.574 . S
C346 H340 0.949 . S
C346 C350 1.368 . S
C347 C328 1.429 . S
C347 C341 1.429 . S
C347 C348 1.523 . S
C348 C329 1.368 . S
C348 C342 1.368 . S
C348 C347 1.523 . S
C349 C333 1.429 . S
C349 C345 1.429 . S
C349 C350 1.523 . S
C350 C334 1.368 . S
C350 C346 1.368 . S
C350 C349 1.523 . S
H351 C326 0.950 . S
H352 C328 0.950 . S
H353 C329 0.949 . S
H354 C331 0.950 . S
H355 C333 0.950 . S
C356 C357 1.349 . S
C356 C358 1.327 . S
C356 H381 0.950 . S
C357 C356 1.349 . S
C357 C373 1.349 . S
C358 C356 1.327 . S
C358 C377 1.429 . S
C358 H382 0.950 . S
C359 C376 1.574 . S
C359 C378 1.368 . S
C359 H383 0.949 . S
H360 C364 0.949 . S
C361 C362 1.349 . S
C361 C363 1.327 . S
C361 H384 0.950 . S
C362 C361 1.349 . S
C362 C374 1.349 . S
C363 C361 1.327 . S
C363 C379 1.429 . S
C363 H385 0.950 . S
C364 H360 0.949 . S
C364 C372 1.574 . S
C364 C380 1.368 . S
H365 C373 0.950 . S
H366 C371 0.950 . S
H367 C372 0.949 . S
H368 C374 0.950 . S
H369 C375 0.950 . S
H370 C376 0.949 . S
C371 H366 0.950 . S
C371 C373 1.327 . S
C371 C377 1.429 . S
C372 C364 1.574 . S
C372 H367 0.949 . S
C372 C378 1.368 . S
C373 C357 1.349 . S
C373 H365 0.950 . S
C373 C371 1.327 . S
C374 C362 1.349 . S
C374 H368 0.950 . S
C374 C375 1.327 . S
C375 H369 0.950 . S
C375 C374 1.327 . S
C375 C379 1.429 . S
C376 C359 1.574 . S
C376 H370 0.949 . S
C376 C380 1.368 . S
C377 C358 1.429 . S
C377 C371 1.429 . S
C377 C378 1.523 . S
C378 C359 1.368 . S
C378 C372 1.368 . S
C378 C377 1.523 . S
C379 C363 1.429 . S
C379 C375 1.429 . S
C379 C380 1.523 . S
C380 C364 1.368 . S
C380 C376 1.368 . S
C380 C379 1.523 . S
H381 C356 0.950 . S
H382 C358 0.950 . S
H383 C359 0.949 . S
H384 C361 0.950 . S
H385 C363 0.950 . S
C386 C387 1.349 . S
C386 C388 1.327 . S
C386 H411 0.950 . S
C387 C386 1.349 . S
C387 C403 1.349 . S
C388 C386 1.327 . S
C388 C407 1.429 . S
C388 H412 0.950 . S
C389 C406 1.574 . S
C389 C408 1.368 . S
C389 H413 0.949 . S
H390 C394 0.949 . S
C391 C392 1.349 . S
C391 C393 1.327 . S
C391 H414 0.950 . S
C392 C391 1.349 . S
C392 C404 1.349 . S
C393 C391 1.327 . S
C393 C409 1.429 . S
C393 H415 0.950 . S
C394 H390 0.949 . S
C394 C402 1.574 . S
C394 C410 1.368 . S
H395 C403 0.950 . S
H396 C401 0.950 . S
H397 C402 0.949 . S
H398 C404 0.950 . S
H399 C405 0.950 . S
H400 C406 0.949 . S
C401 H396 0.950 . S
C401 C403 1.327 . S
C401 C407 1.429 . S
C402 C394 1.574 . S
C402 H397 0.949 . S
C402 C408 1.368 . S
C403 C387 1.349 . S
C403 H395 0.950 . S
C403 C401 1.327 . S
C404 C392 1.349 . S
C404 H398 0.950 . S
C404 C405 1.327 . S
C405 H399 0.950 . S
C405 C404 1.327 . S
C405 C409 1.429 . S
C406 C389 1.574 . S
C406 H400 0.949 . S
C406 C410 1.368 . S
C407 C388 1.429 . S
C407 C401 1.429 . S
C407 C408 1.523 . S
C408 C389 1.368 . S
C408 C402 1.368 . S
C408 C407 1.523 . S
C409 C393 1.429 . S
C409 C405 1.429 . S
C409 C410 1.523 . S
C410 C394 1.368 . S
C410 C406 1.368 . S
C410 C409 1.523 . S
H411 C386 0.950 . S
H412 C388 0.950 . S
H413 C389 0.949 . S
H414 C391 0.950 . S
H415 C393 0.950 . S
C416 C417 1.349 . S
C416 C418 1.327 . S
C416 H441 0.950 . S
C417 C416 1.349 . S
C417 C433 1.349 . S
C418 C416 1.327 . S
C418 C437 1.429 . S
C418 H442 0.950 . S
C419 C436 1.574 . S
C419 C438 1.368 . S
C419 H443 0.949 . S
H420 C424 0.949 . S
C421 C422 1.349 . S
C421 C423 1.327 . S
C421 H444 0.950 . S
C422 C421 1.349 . S
C422 C434 1.349 . S
C423 C421 1.327 . S
C423 C439 1.429 . S
C423 H445 0.950 . S
C424 H420 0.949 . S
C424 C432 1.574 . S
C424 C440 1.368 . S
H425 C433 0.950 . S
H426 C431 0.950 . S
H427 C432 0.949 . S
H428 C434 0.950 . S
H429 C435 0.950 . S
H430 C436 0.949 . S
C431 H426 0.950 . S
C431 C433 1.327 . S
C431 C437 1.429 . S
C432 C424 1.574 . S
C432 H427 0.949 . S
C432 C438 1.368 . S
C433 C417 1.349 . S
C433 H425 0.950 . S
C433 C431 1.327 . S
C434 C422 1.349 . S
C434 H428 0.950 . S
C434 C435 1.327 . S
C435 H429 0.950 . S
C435 C434 1.327 . S
C435 C439 1.429 . S
C436 C419 1.574 . S
C436 H430 0.949 . S
C436 C440 1.368 . S
C437 C418 1.429 . S
C437 C431 1.429 . S
C437 C438 1.523 . S
C438 C419 1.368 . S
C438 C432 1.368 . S
C438 C437 1.523 . S
C439 C423 1.429 . S
C439 C435 1.429 . S
C439 C440 1.523 . S
C440 C424 1.368 . S
C440 C436 1.368 . S
C440 C439 1.523 . S
H441 C416 0.950 . S
H442 C418 0.950 . S
H443 C419 0.949 . S
H444 C421 0.950 . S
H445 C423 0.950 . S
C446 C447 1.349 . S
C446 C448 1.327 . S
C446 H471 0.950 . S
C447 C446 1.349 . S
C447 C463 1.349 . S
C448 C446 1.327 . S
C448 C467 1.429 . S
C448 H472 0.950 . S
C449 C466 1.574 . S
C449 C468 1.368 . S
C449 H473 0.949 . S
H450 C454 0.949 . S
C451 C452 1.349 . S
C451 C453 1.327 . S
C451 H474 0.950 . S
C452 C451 1.349 . S
C452 C464 1.349 . S
C453 C451 1.327 . S
C453 C469 1.429 . S
C453 H475 0.950 . S
C454 H450 0.949 . S
C454 C462 1.574 . S
C454 C470 1.368 . S
H455 C463 0.950 . S
H456 C461 0.950 . S
H457 C462 0.949 . S
H458 C464 0.950 . S
H459 C465 0.950 . S
H460 C466 0.949 . S
C461 H456 0.950 . S
C461 C463 1.327 . S
C461 C467 1.429 . S
C462 C454 1.574 . S
C462 H457 0.949 . S
C462 C468 1.368 . S
C463 C447 1.349 . S
C463 H455 0.950 . S
C463 C461 1.327 . S
C464 C452 1.349 . S
C464 H458 0.950 . S
C464 C465 1.327 . S
C465 H459 0.950 . S
C465 C464 1.327 . S
C465 C469 1.429 . S
C466 C449 1.574 . S
C466 H460 0.949 . S
C466 C470 1.368 . S
C467 C448 1.429 . S
C467 C461 1.429 . S
C467 C468 1.523 . S
C468 C449 1.368 . S
C468 C462 1.368 . S
C468 C467 1.523 . S
C469 C453 1.429 . S
C469 C465 1.429 . S
C469 C470 1.523 . S
C470 C454 1.368 . S
C470 C466 1.368 . S
C470 C469 1.523 . S
H471 C446 0.950 . S
H472 C448 0.950 . S
H473 C449 0.949 . S
H474 C451 0.950 . S
H475 C453 0.950 . S
C476 C477 1.349 . S
C476 C478 1.327 . S
C476 H501 0.950 . S
C477 C476 1.349 . S
C477 C493 1.349 . S
C478 C476 1.327 . S
C478 C497 1.429 . S
C478 H502 0.950 . S
C479 C496 1.574 . S
C479 C498 1.368 . S
C479 H503 0.949 . S
H480 C484 0.949 . S
C481 C482 1.349 . S
C481 C483 1.327 . S
C481 H504 0.950 . S
C482 C481 1.349 . S
C482 C494 1.349 . S
C483 C481 1.327 . S
C483 C499 1.429 . S
C483 H505 0.950 . S
C484 H480 0.949 . S
C484 C492 1.574 . S
C484 C500 1.368 . S
H485 C493 0.950 . S
H486 C491 0.950 . S
H487 C492 0.949 . S
H488 C494 0.950 . S
H489 C495 0.950 . S
H490 C496 0.949 . S
C491 H486 0.950 . S
C491 C493 1.327 . S
C491 C497 1.429 . S
C492 C484 1.574 . S
C492 H487 0.949 . S
C492 C498 1.368 . S
C493 C477 1.349 . S
C493 H485 0.950 . S
C493 C491 1.327 . S
C494 C482 1.349 . S
C494 H488 0.950 . S
C494 C495 1.327 . S
C495 H489 0.950 . S
C495 C494 1.327 . S
C495 C499 1.429 . S
C496 C479 1.574 . S
C496 H490 0.949 . S
C496 C500 1.368 . S
C497 C478 1.429 . S
C497 C491 1.429 . S
C497 C498 1.523 . S
C498 C479 1.368 . S
C498 C492 1.368 . S
C498 C497 1.523 . S
C499 C483 1.429 . S
C499 C495 1.429 . S
C499 C500 1.523 . S
C500 C484 1.368 . S
C500 C496 1.368 . S
C500 C499 1.523 . S
H501 C476 0.950 . S
H502 C478 0.950 . S
H503 C479 0.949 . S
H504 C481 0.950 . S
H505 C483 0.950 . S
C506 C507 1.349 . S
C506 C508 1.327 . S
C506 H531 0.950 . S
C507 C506 1.349 . S
C507 C523 1.349 . S
C508 C506 1.327 . S
C508 C527 1.429 . S
C508 H532 0.950 . S
C509 C526 1.574 . S
C509 C528 1.368 . S
C509 H533 0.949 . S
H510 C514 0.949 . S
C511 C512 1.349 . S
C511 C513 1.327 . S
C511 H534 0.950 . S
C512 C511 1.349 . S
C512 C524 1.349 . S
C513 C511 1.327 . S
C513 C529 1.429 . S
C513 H535 0.950 . S
C514 H510 0.949 . S
C514 C522 1.574 . S
C514 C530 1.368 . S
H515 C523 0.950 . S
H516 C521 0.950 . S
H517 C522 0.949 . S
H518 C524 0.950 . S
H519 C525 0.950 . S
H520 C526 0.949 . S
C521 H516 0.950 . S
C521 C523 1.327 . S
C521 C527 1.429 . S
C522 C514 1.574 . S
C522 H517 0.949 . S
C522 C528 1.368 . S
C523 C507 1.349 . S
C523 H515 0.950 . S
C523 C521 1.327 . S
C524 C512 1.349 . S
C524 H518 0.950 . S
C524 C525 1.327 . S
C525 H519 0.950 . S
C525 C524 1.327 . S
C525 C529 1.429 . S
C526 C509 1.574 . S
C526 H520 0.949 . S
C526 C530 1.368 . S
C527 C508 1.429 . S
C527 C521 1.429 . S
C527 C528 1.523 . S
C528 C509 1.368 . S
C528 C522 1.368 . S
C528 C527 1.523 . S
C529 C513 1.429 . S
C529 C525 1.429 . S
C529 C530 1.523 . S
C530 C514 1.368 . S
C530 C526 1.368 . S
C530 C529 1.523 . S
H531 C506 0.950 . S
H532 C508 0.950 . S
H533 C509 0.949 . S
H534 C511 0.950 . S
H535 C513 0.950 . S
C536 C537 1.349 . S
C536 C538 1.327 . S
C536 H561 0.950 . S
C537 C536 1.349 . S
C537 C553 1.349 . S
C538 C536 1.327 . S
C538 C557 1.429 . S
C538 H562 0.950 . S
C539 C556 1.574 . S
C539 C558 1.368 . S
C539 H563 0.949 . S
H540 C544 0.949 . S
C541 C542 1.349 . S
C541 C543 1.327 . S
C541 H564 0.950 . S
C542 C541 1.349 . S
C542 C554 1.349 . S
C543 C541 1.327 . S
C543 C559 1.429 . S
C543 H565 0.950 . S
C544 H540 0.949 . S
C544 C552 1.574 . S
C544 C560 1.368 . S
H545 C553 0.950 . S
H546 C551 0.950 . S
H547 C552 0.949 . S
H548 C554 0.950 . S
H549 C555 0.950 . S
H550 C556 0.949 . S
C551 H546 0.950 . S
C551 C553 1.327 . S
C551 C557 1.429 . S
C552 C544 1.574 . S
C552 H547 0.949 . S
C552 C558 1.368 . S
C553 C537 1.349 . S
C553 H545 0.950 . S
C553 C551 1.327 . S
C554 C542 1.349 . S
C554 H548 0.950 . S
C554 C555 1.327 . S
C555 H549 0.950 . S
C555 C554 1.327 . S
C555 C559 1.429 . S
C556 C539 1.574 . S
C556 H550 0.949 . S
C556 C560 1.368 . S
C557 C538 1.429 . S
C557 C551 1.429 . S
C557 C558 1.523 . S
C558 C539 1.368 . S
C558 C552 1.368 . S
C558 C557 1.523 . S
C559 C543 1.429 . S
C559 C555 1.429 . S
C559 C560 1.523 . S
C560 C544 1.368 . S
C560 C556 1.368 . S
C560 C559 1.523 . S
H561 C536 0.950 . S
H562 C538 0.950 . S
H563 C539 0.949 . S
H564 C541 0.950 . S
H565 C543 0.950 . S
C566 C567 1.349 . S
C566 C568 1.327 . S
C566 H591 0.950 . S
C567 C566 1.349 . S
C567 C583 1.349 . S
C568 C566 1.327 . S
C568 C587 1.429 . S
C568 H592 0.950 . S
C569 C586 1.574 . S
C569 C588 1.368 . S
C569 H593 0.949 . S
H570 C574 0.949 . S
C571 C572 1.349 . S
C571 C573 1.327 . S
C571 H594 0.950 . S
C572 C571 1.349 . S
C572 C584 1.349 . S
C573 C571 1.327 . S
C573 C589 1.429 . S
C573 H595 0.950 . S
C574 H570 0.949 . S
C574 C582 1.574 . S
C574 C590 1.368 . S
H575 C583 0.950 . S
H576 C581 0.950 . S
H577 C582 0.949 . S
H578 C584 0.950 . S
H579 C585 0.950 . S
H580 C586 0.949 . S
C581 H576 0.950 . S
C581 C583 1.327 . S
C581 C587 1.429 . S
C582 C574 1.574 . S
C582 H577 0.949 . S
C582 C588 1.368 . S
C583 C567 1.349 . S
C583 H575 0.950 . S
C583 C581 1.327 . S
C584 C572 1.349 . S
C584 H578 0.950 . S
C584 C585 1.327 . S
C585 H579 0.950 . S
C585 C584 1.327 . S
C585 C589 1.429 . S
C586 C569 1.574 . S
C586 H580 0.949 . S
C586 C590 1.368 . S
C587 C568 1.429 . S
C587 C581 1.429 . S
C587 C588 1.523 . S
C588 C569 1.368 . S
C588 C582 1.368 . S
C588 C587 1.523 . S
C589 C573 1.429 . S
C589 C585 1.429 . S
C589 C590 1.523 . S
C590 C574 1.368 . S
C590 C586 1.368 . S
C590 C589 1.523 . S
H591 C566 0.950 . S
H592 C568 0.950 . S
H593 C569 0.949 . S
H594 C571 0.950 . S
H595 C573 0.950 . S
C596 C597 1.349 . S
C596 C598 1.327 . S
C596 H621 0.950 . S
C597 C596 1.349 . S
C597 C613 1.349 . S
C598 C596 1.327 . S
C598 C617 1.429 . S
C598 H622 0.950 . S
C599 C616 1.574 . S
C599 C618 1.368 . S
C599 H623 0.949 . S
H600 C604 0.949 . S
C601 C602 1.349 . S
C601 C603 1.327 . S
C601 H624 0.950 . S
C602 C601 1.349 . S
C602 C614 1.349 . S
C603 C601 1.327 . S
C603 C619 1.429 . S
C603 H625 0.950 . S
C604 H600 0.949 . S
C604 C612 1.574 . S
C604 C620 1.368 . S
H605 C613 0.950 . S
H606 C611 0.950 . S
H607 C612 0.949 . S
H608 C614 0.950 . S
H609 C615 0.950 . S
H610 C616 0.949 . S
C611 H606 0.950 . S
C611 C613 1.327 . S
C611 C617 1.429 . S
C612 C604 1.574 . S
C612 H607 0.949 . S
C612 C618 1.368 . S
C613 C597 1.349 . S
C613 H605 0.950 . S
C613 C611 1.327 . S
C614 C602 1.349 . S
C614 H608 0.950 . S
C614 C615 1.327 . S
C615 H609 0.950 . S
C615 C614 1.327 . S
C615 C619 1.429 . S
C616 C599 1.574 . S
C616 H610 0.949 . S
C616 C620 1.368 . S
C617 C598 1.429 . S
C617 C611 1.429 . S
C617 C618 1.523 . S
C618 C599 1.368 . S
C618 C612 1.368 . S
C618 C617 1.523 . S
C619 C603 1.429 . S
C619 C615 1.429 . S
C619 C620 1.523 . S
C620 C604 1.368 . S
C620 C616 1.368 . S
C620 C619 1.523 . S
H621 C596 0.950 . S
H622 C598 0.950 . S
H623 C599 0.949 . S
H624 C601 0.950 . S
H625 C603 0.950 . S
C626 C627 1.349 . S
C626 C628 1.327 . S
C626 H651 0.950 . S
C627 C626 1.349 . S
C627 C643 1.349 . S
C628 C626 1.327 . S
C628 C647 1.429 . S
C628 H652 0.950 . S
C629 C646 1.574 . S
C629 C648 1.368 . S
C629 H653 0.949 . S
H630 C634 0.949 . S
C631 C632 1.349 . S
C631 C633 1.327 . S
C631 H654 0.950 . S
C632 C631 1.349 . S
C632 C644 1.349 . S
C633 C631 1.327 . S
C633 C649 1.429 . S
C633 H655 0.950 . S
C634 H630 0.949 . S
C634 C642 1.574 . S
C634 C650 1.368 . S
H635 C643 0.950 . S
H636 C641 0.950 . S
H637 C642 0.949 . S
H638 C644 0.950 . S
H639 C645 0.950 . S
H640 C646 0.949 . S
C641 H636 0.950 . S
C641 C643 1.327 . S
C641 C647 1.429 . S
C642 C634 1.574 . S
C642 H637 0.949 . S
C642 C648 1.368 . S
C643 C627 1.349 . S
C643 H635 0.950 . S
C643 C641 1.327 . S
C644 C632 1.349 . S
C644 H638 0.950 . S
C644 C645 1.327 . S
C645 H639 0.950 . S
C645 C644 1.327 . S
C645 C649 1.429 . S
C646 C629 1.574 . S
C646 H640 0.949 . S
C646 C650 1.368 . S
C647 C628 1.429 . S
C647 C641 1.429 . S
C647 C648 1.523 . S
C648 C629 1.368 . S
C648 C642 1.368 . S
C648 C647 1.523 . S
C649 C633 1.429 . S
C649 C645 1.429 . S
C649 C650 1.523 . S
C650 C634 1.368 . S
C650 C646 1.368 . S
C650 C649 1.523 . S
H651 C626 0.950 . S
H652 C628 0.950 . S
H653 C629 0.949 . S
H654 C631 0.950 . S
H655 C633 0.950 . S
C656 C657 1.349 1_556 S
C656 C658 1.327 . S
C656 H681 0.950 . S
C657 C656 1.349 1_554 S
C657 C673 1.349 . S
C658 C656 1.327 . S
C658 C677 1.429 1_556 S
C658 H682 0.950 . S
C659 C676 1.574 . S
C659 C678 1.368 . S
C659 H683 0.949 . S
H660 C664 0.949 . S
C661 C662 1.349 . S
C661 C663 1.327 . S
C661 H684 0.950 . S
C662 C661 1.349 . S
C662 C674 1.349 1_554 S
C663 C661 1.327 . S
C663 C679 1.429 . S
C663 H685 0.950 . S
C664 H660 0.949 . S
C664 C672 1.574 . S
C664 C680 1.368 1_556 S
H665 C673 0.950 . S
H666 C671 0.950 . S
H667 C672 0.949 . S
H668 C674 0.950 . S
H669 C675 0.950 . S
H670 C676 0.949 . S
C671 H666 0.950 . S
C671 C673 1.327 . S
C671 C677 1.429 . S
C672 C664 1.574 . S
C672 H667 0.949 . S
C672 C678 1.368 1_556 S
C673 C657 1.349 . S
C673 H665 0.950 . S
C673 C671 1.327 . S
C674 C662 1.349 1_556 S
C674 H668 0.950 . S
C674 C675 1.327 . S
C675 H669 0.950 . S
C675 C674 1.327 . S
C675 C679 1.429 1_556 S
C676 C659 1.574 . S
C676 H670 0.949 . S
C676 C680 1.368 . S
C677 C658 1.429 1_554 S
C677 C671 1.429 . S
C677 C678 1.523 . S
C678 C659 1.368 . S
C678 C672 1.368 1_554 S
C678 C677 1.523 . S
C679 C663 1.429 . S
C679 C675 1.429 1_554 S
C679 C680 1.523 . S
C680 C664 1.368 1_554 S
C680 C676 1.368 . S
C680 C679 1.523 . S
H681 C656 0.950 . S
H682 C658 0.950 . S
H683 C659 0.949 . S
H684 C661 0.950 . S
H685 C663 0.950 . S
C686 C687 1.349 . S
C686 C688 1.327 . S
C686 H711 0.950 . S
C687 C686 1.349 . S
C687 C703 1.349 . S
C688 C686 1.327 . S
C688 C707 1.429 . S
C688 H712 0.950 . S
C689 C706 1.574 . S
C689 C708 1.368 . S
C689 H713 0.949 . S
H690 C694 0.949 . S
C691 C692 1.349 . S
C691 C693 1.327 . S
C691 H714 0.950 . S
C692 C691 1.349 . S
C692 C704 1.349 . S
C693 C691 1.327 . S
C693 C709 1.429 . S
C693 H715 0.950 . S
C694 H690 0.949 . S
C694 C702 1.574 . S
C694 C710 1.368 . S
H695 C703 0.950 . S
H696 C701 0.950 . S
H697 C702 0.949 . S
H698 C704 0.950 . S
H699 C705 0.950 . S
H700 C706 0.949 . S
C701 H696 0.950 . S
C701 C703 1.327 . S
C701 C707 1.429 . S
C702 C694 1.574 . S
C702 H697 0.949 . S
C702 C708 1.368 . S
C703 C687 1.349 . S
C703 H695 0.950 . S
C703 C701 1.327 . S
C704 C692 1.349 . S
C704 H698 0.950 . S
C704 C705 1.327 . S
C705 H699 0.950 . S
C705 C704 1.327 . S
C705 C709 1.429 . S
C706 C689 1.574 . S
C706 H700 0.949 . S
C706 C710 1.368 . S
C707 C688 1.429 . S
C707 C701 1.429 . S
C707 C708 1.523 . S
C708 C689 1.368 . S
C708 C702 1.368 . S
C708 C707 1.523 . S
C709 C693 1.429 . S
C709 C705 1.429 . S
C709 C710 1.523 . S
C710 C694 1.368 . S
C710 C706 1.368 . S
C710 C709 1.523 . S
H711 C686 0.950 . S
H712 C688 0.950 . S
H713 C689 0.949 . S
H714 C691 0.950 . S
H715 C693 0.950 . S
C716 C717 1.349 1_556 S
C716 C718 1.327 . S
C716 H741 0.950 . S
C717 C716 1.349 1_554 S
C717 C733 1.349 . S
C718 C716 1.327 . S
C718 C737 1.429 1_556 S
C718 H742 0.950 . S
C719 C736 1.574 . S
C719 C738 1.368 . S
C719 H743 0.949 . S
H720 C724 0.949 . S
C721 C722 1.349 . S
C721 C723 1.327 . S
C721 H744 0.950 . S
C722 C721 1.349 . S
C722 C734 1.349 1_554 S
C723 C721 1.327 . S
C723 C739 1.429 . S
C723 H745 0.950 . S
C724 H720 0.949 . S
C724 C732 1.574 . S
C724 C740 1.368 1_556 S
H725 C733 0.950 . S
H726 C731 0.950 . S
H727 C732 0.949 . S
H728 C734 0.950 . S
H729 C735 0.950 . S
H730 C736 0.949 . S
C731 H726 0.950 . S
C731 C733 1.327 . S
C731 C737 1.429 . S
C732 C724 1.574 . S
C732 H727 0.949 . S
C732 C738 1.368 1_556 S
C733 C717 1.349 . S
C733 H725 0.950 . S
C733 C731 1.327 . S
C734 C722 1.349 1_556 S
C734 H728 0.950 . S
C734 C735 1.327 . S
C735 H729 0.950 . S
C735 C734 1.327 . S
C735 C739 1.429 1_556 S
C736 C719 1.574 . S
C736 H730 0.949 . S
C736 C740 1.368 . S
C737 C718 1.429 1_554 S
C737 C731 1.429 . S
C737 C738 1.523 . S
C738 C719 1.368 . S
C738 C732 1.368 1_554 S
C738 C737 1.523 . S
C739 C723 1.429 . S
C739 C735 1.429 1_554 S
C739 C740 1.523 . S
C740 C724 1.368 1_554 S
C740 C736 1.368 . S
C740 C739 1.523 . S
H741 C716 0.950 . S
H742 C718 0.950 . S
H743 C719 0.949 . S
H744 C721 0.950 . S
H745 C723 0.950 . S
C746 C747 1.349 . S
C746 C748 1.327 . S
C746 H771 0.950 . S
C747 C746 1.349 . S
C747 C763 1.349 . S
C748 C746 1.327 . S
C748 C767 1.429 . S
C748 H772 0.950 . S
C749 C766 1.574 . S
C749 C768 1.368 . S
C749 H773 0.949 . S
H750 C754 0.949 . S
C751 C752 1.349 . S
C751 C753 1.327 . S
C751 H774 0.950 . S
C752 C751 1.349 . S
C752 C764 1.349 . S
C753 C751 1.327 . S
C753 C769 1.429 . S
C753 H775 0.950 . S
C754 H750 0.949 . S
C754 C762 1.574 . S
C754 C770 1.368 . S
H755 C763 0.950 . S
H756 C761 0.950 . S
H757 C762 0.949 . S
H758 C764 0.950 . S
H759 C765 0.950 . S
H760 C766 0.949 . S
C761 H756 0.950 . S
C761 C763 1.327 . S
C761 C767 1.429 . S
C762 C754 1.574 . S
C762 H757 0.949 . S
C762 C768 1.368 . S
C763 C747 1.349 . S
C763 H755 0.950 . S
C763 C761 1.327 . S
C764 C752 1.349 . S
C764 H758 0.950 . S
C764 C765 1.327 . S
C765 H759 0.950 . S
C765 C764 1.327 . S
C765 C769 1.429 . S
C766 C749 1.574 . S
C766 H760 0.949 . S
C766 C770 1.368 . S
C767 C748 1.429 . S
C767 C761 1.429 . S
C767 C768 1.523 . S
C768 C749 1.368 . S
C768 C762 1.368 . S
C768 C767 1.523 . S
C769 C753 1.429 . S
C769 C765 1.429 . S
C769 C770 1.523 . S
C770 C754 1.368 . S
C770 C766 1.368 . S
C770 C769 1.523 . S
H771 C746 0.950 . S
H772 C748 0.950 . S
H773 C749 0.949 . S
H774 C751 0.950 . S
H775 C753 0.950 . S
C776 C777 1.349 . S
C776 C778 1.327 . S
C776 H801 0.950 . S
C777 C776 1.349 . S
C777 C793 1.349 . S
C778 C776 1.327 . S
C778 C797 1.429 . S
C778 H802 0.950 . S
C779 C796 1.574 . S
C779 C798 1.368 . S
C779 H803 0.949 . S
H780 C784 0.949 . S
C781 C782 1.349 . S
C781 C783 1.327 . S
C781 H804 0.950 . S
C782 C781 1.349 . S
C782 C794 1.349 . S
C783 C781 1.327 . S
C783 C799 1.429 . S
C783 H805 0.950 . S
C784 H780 0.949 . S
C784 C792 1.574 . S
C784 C800 1.368 . S
H785 C793 0.950 . S
H786 C791 0.950 . S
H787 C792 0.949 . S
H788 C794 0.950 . S
H789 C795 0.950 . S
H790 C796 0.949 . S
C791 H786 0.950 . S
C791 C793 1.327 . S
C791 C797 1.429 . S
C792 C784 1.574 . S
C792 H787 0.949 . S
C792 C798 1.368 . S
C793 C777 1.349 . S
C793 H785 0.950 . S
C793 C791 1.327 . S
C794 C782 1.349 . S
C794 H788 0.950 . S
C794 C795 1.327 . S
C795 H789 0.950 . S
C795 C794 1.327 . S
C795 C799 1.429 . S
C796 C779 1.574 . S
C796 H790 0.949 . S
C796 C800 1.368 . S
C797 C778 1.429 . S
C797 C791 1.429 . S
C797 C798 1.523 . S
C798 C779 1.368 . S
C798 C792 1.368 . S
C798 C797 1.523 . S
C799 C783 1.429 . S
C799 C795 1.429 . S
C799 C800 1.523 . S
C800 C784 1.368 . S
C800 C796 1.368 . S
C800 C799 1.523 . S
H801 C776 0.950 . S
H802 C778 0.950 . S
H803 C779 0.949 . S
H804 C781 0.950 . S
H805 C783 0.950 . S
C806 C807 1.349 1_556 S
C806 C808 1.327 . S
C806 H831 0.950 . S
C807 C806 1.349 1_554 S
C807 C823 1.349 . S
C808 C806 1.327 . S
C808 C827 1.429 1_556 S
C808 H832 0.950 . S
C809 C826 1.574 . S
C809 C828 1.368 . S
C809 H833 0.949 . S
H810 C814 0.949 . S
C811 C812 1.349 . S
C811 C813 1.327 . S
C811 H834 0.950 . S
C812 C811 1.349 . S
C812 C824 1.349 1_554 S
C813 C811 1.327 . S
C813 C829 1.429 . S
C813 H835 0.950 . S
C814 H810 0.949 . S
C814 C822 1.574 . S
C814 C830 1.368 1_556 S
H815 C823 0.950 . S
H816 C821 0.950 . S
H817 C822 0.949 . S
H818 C824 0.950 . S
H819 C825 0.950 . S
H820 C826 0.949 . S
C821 H816 0.950 . S
C821 C823 1.327 . S
C821 C827 1.429 . S
C822 C814 1.574 . S
C822 H817 0.949 . S
C822 C828 1.368 1_556 S
C823 C807 1.349 . S
C823 H815 0.950 . S
C823 C821 1.327 . S
C824 C812 1.349 1_556 S
C824 H818 0.950 . S
C824 C825 1.327 . S
C825 H819 0.950 . S
C825 C824 1.327 . S
C825 C829 1.429 1_556 S
C826 C809 1.574 . S
C826 H820 0.949 . S
C826 C830 1.368 . S
C827 C808 1.429 1_554 S
C827 C821 1.429 . S
C827 C828 1.523 . S
C828 C809 1.368 . S
C828 C822 1.368 1_554 S
C828 C827 1.523 . S
C829 C813 1.429 . S
C829 C825 1.429 1_554 S
C829 C830 1.523 . S
C830 C814 1.368 1_554 S
C830 C826 1.368 . S
C830 C829 1.523 . S
H831 C806 0.950 . S
H832 C808 0.950 . S
H833 C809 0.949 . S
H834 C811 0.950 . S
H835 C813 0.950 . S
C836 C837 1.349 . S
C836 C838 1.327 . S
C836 H861 0.950 . S
C837 C836 1.349 . S
C837 C853 1.349 . S
C838 C836 1.327 . S
C838 C857 1.429 . S
C838 H862 0.950 . S
C839 C856 1.574 . S
C839 C858 1.368 . S
C839 H863 0.949 . S
H840 C844 0.949 . S
C841 C842 1.349 . S
C841 C843 1.327 . S
C841 H864 0.950 . S
C842 C841 1.349 . S
C842 C854 1.349 . S
C843 C841 1.327 . S
C843 C859 1.429 . S
C843 H865 0.950 . S
C844 H840 0.949 . S
C844 C852 1.574 . S
C844 C860 1.368 . S
H845 C853 0.950 . S
H846 C851 0.950 . S
H847 C852 0.949 . S
H848 C854 0.950 . S
H849 C855 0.950 . S
H850 C856 0.949 . S
C851 H846 0.950 . S
C851 C853 1.327 . S
C851 C857 1.429 . S
C852 C844 1.574 . S
C852 H847 0.949 . S
C852 C858 1.368 . S
C853 C837 1.349 . S
C853 H845 0.950 . S
C853 C851 1.327 . S
C854 C842 1.349 . S
C854 H848 0.950 . S
C854 C855 1.327 . S
C855 H849 0.950 . S
C855 C854 1.327 . S
C855 C859 1.429 . S
C856 C839 1.574 . S
C856 H850 0.949 . S
C856 C860 1.368 . S
C857 C838 1.429 . S
C857 C851 1.429 . S
C857 C858 1.523 . S
C858 C839 1.368 . S
C858 C852 1.368 . S
C858 C857 1.523 . S
C859 C843 1.429 . S
C859 C855 1.429 . S
C859 C860 1.523 . S
C860 C844 1.368 . S
C860 C856 1.368 . S
C860 C859 1.523 . S
H861 C836 0.950 . S
H862 C838 0.950 . S
H863 C839 0.949 . S
H864 C841 0.950 . S
H865 C843 0.950 . S
C866 C867 1.349 . S
C866 C868 1.327 . S
C866 H891 0.950 . S
C867 C866 1.349 . S
C867 C883 1.349 1_554 S
C868 C866 1.327 . S
C868 C887 1.429 . S
C868 H892 0.950 . S
C869 C886 1.574 . S
C869 C888 1.368 1_556 S
C869 H893 0.949 . S
H870 C874 0.949 . S
C871 C872 1.349 1_556 S
C871 C873 1.327 . S
C871 H894 0.950 . S
C872 C871 1.349 1_554 S
C872 C884 1.349 . S
C873 C871 1.327 . S
C873 C889 1.429 1_556 S
C873 H895 0.950 . S
C874 H870 0.949 . S
C874 C882 1.574 . S
C874 C890 1.368 . S
H875 C883 0.950 . S
H876 C881 0.950 . S
H877 C882 0.949 . S
H878 C884 0.950 . S
H879 C885 0.950 . S
H880 C886 0.949 . S
C881 H876 0.950 . S
C881 C883 1.327 . S
C881 C887 1.429 1_556 S
C882 C874 1.574 . S
C882 H877 0.949 . S
C882 C888 1.368 . S
C883 C867 1.349 1_556 S
C883 H875 0.950 . S
C883 C881 1.327 . S
C884 C872 1.349 . S
C884 H878 0.950 . S
C884 C885 1.327 . S
C885 H879 0.950 . S
C885 C884 1.327 . S
C885 C889 1.429 . S
C886 C869 1.574 . S
C886 H880 0.949 . S
C886 C890 1.368 1_556 S
C887 C868 1.429 . S
C887 C881 1.429 1_554 S
C887 C888 1.523 . S
C888 C869 1.368 1_554 S
C888 C882 1.368 . S
C888 C887 1.523 . S
C889 C873 1.429 1_554 S
C889 C885 1.429 . S
C889 C890 1.523 . S
C890 C874 1.368 . S
C890 C886 1.368 1_554 S
C890 C889 1.523 . S
H891 C866 0.950 . S
H892 C868 0.950 . S
H893 C869 0.949 . S
H894 C871 0.950 . S
H895 C873 0.950 . S
C177 C21 1.484 . S
C182 C125 1.489 . S
C207 C40 1.489 . S
C212 C92 1.483 . S
C242 C104 1.440 . S
C237 C54 1.463 . S
C267 C73 1.527 . S
C272 C115 1.508 . S
C302 C148 1.432 . S
C297 C74 1.454 . S
C332 C159 1.477 . S
C327 C10 1.508 . S
C362 C169 1.498 . S
C357 C37 1.495 . S
C392 C136 1.512 . S
C387 C65 1.508 . S
C417 C52 1.432 . S
C422 C103 1.428 . S
C447 C87 1.516 . S
C452 C114 1.512 . S
C477 C15 1.515 . S
C482 C126 1.500 . S
C512 C93 1.470 . S
C507 C32 1.495 . S
C537 C29 1.505 . S
C542 C170 1.492 . S
C572 C137 1.518 . S
C567 C59 1.535 . S
C602 C147 1.436 . S
C597 C84 1.441 . S
C627 C8 1.477 . S
C632 C158 1.464 . S
C662 C98 1.539 . S
C657 C7 1.540 . S
C692 C109 1.484 . S
C687 C30 1.486 . S
C717 C62 1.544 . S
C722 C120 1.539 . S
C747 C81 1.507 . S
C752 C131 1.516 . S
C782 C142 1.534 . S
C777 C76 1.544 . S
C807 C18 1.485 . S
C812 C153 1.483 . S
C837 C43 1.540 . S
C842 C164 1.544 . S
C867 C51 1.506 . S
C872 C175 1.515 . S
