# Generated by pormake.
# Topology csq, (4,8)-cn, num edge types: 1
# Building blocks:
#     Node 0, Type 0, BuildingBlock: GIZVER_clean_linker_0, # of connection points: 4
#     Node 1, Type 0, BuildingBlock: GIZVER_clean_linker_0, # of connection points: 4
#     Node 2, Type 0, BuildingBlock: GIZVER_clean_linker_0, # of connection points: 4
#     Node 3, Type 0, BuildingBlock: GIZVER_clean_linker_0, # of connection points: 4
#     Node 4, Type 0, BuildingBlock: GIZVER_clean_linker_0, # of connection points: 4
#     Node 5, Type 0, BuildingBlock: GIZVER_clean_linker_0, # of connection points: 4
#     Node 6, Type 1, BuildingBlock: TAGTUT_clean_sbu_1, # of connection points: 8
#     Node 7, Type 1, BuildingBlock: TAGTUT_clean_sbu_1, # of connection points: 8
#     Node 8, Type 1, BuildingBlock: TAGTUT_clean_sbu_1, # of connection points: 8
#     Edge 9, Type (0, 1), BuildingBlock: AJUNOK_clean_linker_0, # of connection points: 2
#     Edge 10, Type (0, 1), BuildingBlock: AJUNOK_clean_linker_0, # of connection points: 2
#     Edge 11, Type (0, 1), BuildingBlock: AJUNOK_clean_linker_0, # of connection points: 2
#     Edge 12, Type (0, 1), BuildingBlock: AJUNOK_clean_linker_0, # of connection points: 2
#     Edge 13, Type (0, 1), BuildingBlock: AJUNOK_clean_linker_0, # of connection points: 2
#     Edge 14, Type (0, 1), BuildingBlock: AJUNOK_clean_linker_0, # of connection points: 2
#     Edge 15, Type (0, 1), BuildingBlock: AJUNOK_clean_linker_0, # of connection points: 2
#     Edge 16, Type (0, 1), BuildingBlock: AJUNOK_clean_linker_0, # of connection points: 2
#     Edge 17, Type (0, 1), BuildingBlock: AJUNOK_clean_linker_0, # of connection points: 2
#     Edge 18, Type (0, 1), BuildingBlock: AJUNOK_clean_linker_0, # of connection points: 2
#     Edge 19, Type (0, 1), BuildingBlock: AJUNOK_clean_linker_0, # of connection points: 2
#     Edge 20, Type (0, 1), BuildingBlock: AJUNOK_clean_linker_0, # of connection points: 2
#     Edge 21, Type (0, 1), BuildingBlock: AJUNOK_clean_linker_0, # of connection points: 2
#     Edge 22, Type (0, 1), BuildingBlock: AJUNOK_clean_linker_0, # of connection points: 2
#     Edge 23, Type (0, 1), BuildingBlock: AJUNOK_clean_linker_0, # of connection points: 2
#     Edge 24, Type (0, 1), BuildingBlock: AJUNOK_clean_linker_0, # of connection points: 2
#     Edge 25, Type (0, 1), BuildingBlock: AJUNOK_clean_linker_0, # of connection points: 2
#     Edge 26, Type (0, 1), BuildingBlock: AJUNOK_clean_linker_0, # of connection points: 2
#     Edge 27, Type (0, 1), BuildingBlock: AJUNOK_clean_linker_0, # of connection points: 2
#     Edge 28, Type (0, 1), BuildingBlock: AJUNOK_clean_linker_0, # of connection points: 2
#     Edge 29, Type (0, 1), BuildingBlock: AJUNOK_clean_linker_0, # of connection points: 2
#     Edge 30, Type (0, 1), BuildingBlock: AJUNOK_clean_linker_0, # of connection points: 2
#     Edge 31, Type (0, 1), BuildingBlock: AJUNOK_clean_linker_0, # of connection points: 2
#     Edge 32, Type (0, 1), BuildingBlock: AJUNOK_clean_linker_0, # of connection points: 2
# Relax obj value: 0.048
# Max RMSD: 0.131
# Mean RMSD: 0.096
data_MOF--net-csq--node1-TAGTUT_clean_sbu_1--node2-GIZVER_clean_linker_0--edge1-AJUNOK_clean_linker_0
_symmetry_space_group_name_H-M    P1
_symmetry_Int_Tables_number       1
_symmetry_cell_setting            triclinic
loop_
_symmetry_equiv_pos_as_xyz
'x, y, z'
_cell_length_a     41.290565
_cell_length_b     41.017683
_cell_length_c     14.511586
_cell_angle_alpha  94.190243
_cell_angle_beta   92.060646
_cell_angle_gamma 119.92306
loop_
_atom_site_label
_atom_site_type_symbol
_atom_site_fract_x
_atom_site_fract_y
_atom_site_fract_z
_atom_type_partial_charge
H0 H 0.24519 0.53312 0.04591 0.0
H1 H 0.24251 0.54252 0.34273 0.0
H2 H 0.13961 0.4861 0.16515 0.0
H3 H 0.29964 0.58361 0.14983 0.0
H4 H 0.30087 0.58074 0.27197 0.0
H5 H 0.31394 0.54343 0.04368 0.0
H6 H 0.36361 0.48558 0.1699 0.0
H7 H 0.30846 0.53113 0.33624 0.0
C8 C 0.22944 0.52672 0.10676 0.0
C9 C 0.19033 0.50684 0.09594 0.0
C10 C 0.24842 0.53956 0.1953 0.0
C11 C 0.22778 0.53229 0.2743 0.0
C12 C 0.18823 0.51267 0.26455 0.0
C13 C 0.16993 0.49975 0.17459 0.0
C14 C 0.29056 0.56341 0.20348 0.0
C15 C 0.30826 0.53905 0.19102 0.0
C16 C 0.31908 0.53199 0.10386 0.0
C17 C 0.33832 0.51181 0.09576 0.0
C18 C 0.34667 0.49897 0.17515 0.0
C19 C 0.33648 0.50628 0.26234 0.0
C20 C 0.31624 0.52525 0.26911 0.0
H21 H 0.8278 0.25793 -0.01298 0.0
H22 H 0.83606 0.26754 0.28538 0.0
H23 H 0.88021 0.36704 0.14375 0.0
H24 H 0.81368 0.2036 0.06707 0.0
H25 H 0.82093 0.20805 0.19051 0.0
H26 H 0.75246 0.18604 -0.00846 0.0
H27 H 0.65926 0.14677 0.16083 0.0
H28 H 0.77184 0.20352 0.28928 0.0
C29 C 0.83415 0.27501 0.05294 0.0
C30 C 0.8544 0.31454 0.05612 0.0
C31 C 0.82585 0.25768 0.13572 0.0
C32 C 0.83871 0.28044 0.22141 0.0
C33 C 0.85808 0.32002 0.22364 0.0
C34 C 0.86293 0.33648 0.1411 0.0
C35 C 0.80826 0.21539 0.13239 0.0
C36 C 0.76668 0.19735 0.13961 0.0
C37 C 0.74167 0.18343 0.05926 0.0
C38 C 0.70277 0.16516 0.06621 0.0
C39 C 0.68925 0.16215 0.15466 0.0
C40 C 0.71402 0.1759 0.23538 0.0
C41 C 0.75267 0.1936 0.22727 0.0
H42 H 0.57142 0.82332 0.88545 0.0
H43 H 0.57226 0.82951 0.18317 0.0
H44 H 0.52331 0.88164 0.02943 0.0
H45 H 0.611 0.80653 -0.01859 0.0
H46 H 0.61077 0.80956 0.10477 0.0
H47 H 0.55795 0.75258 0.8832 0.0
H48 H 0.50057 0.64889 0.00699 0.0
H49 H 0.57892 0.75122 0.17428 0.0
C50 C 0.56214 0.83029 0.94895 0.0
C51 C 0.54441 0.85206 0.9475 0.0
C52 C 0.57038 0.82012 0.03412 0.0
C53 C 0.56267 0.83381 0.11704 0.0
C54 C 0.54656 0.85675 0.11489 0.0
C55 C 0.53437 0.86253 0.0302 0.0
C56 C 0.59231 0.79978 0.03903 0.0
C57 C 0.56626 0.75759 0.03242 0.0
C58 C 0.55002 0.73779 0.94478 0.0
C59 C 0.52857 0.69829 0.9353 0.0
C60 C 0.5181 0.67949 0.01474 0.0
C61 C 0.5398 0.69716 0.09836 0.0
C62 C 0.56238 0.7369 0.10927 0.0
H63 H 0.75804 0.56687 0.89737 0.0
H64 H 0.76464 0.57787 0.1962 0.0
H65 H 0.6573 0.51976 0.03825 0.0
H66 H 0.81541 0.6145 -0.01496 0.0
H67 H 0.81892 0.62033 0.10879 0.0
H68 H 0.83602 0.5745 0.90411 0.0
H69 H 0.88486 0.52479 0.0699 0.0
H70 H 0.82374 0.57288 0.19763 0.0
C71 C 0.74441 0.56064 0.96148 0.0
C72 C 0.70531 0.54093 0.95834 0.0
C73 C 0.76604 0.57402 0.04681 0.0
C74 C 0.748 0.5668 0.13019 0.0
C75 C 0.70852 0.54611 0.12814 0.0
C76 C 0.68763 0.53344 0.0414 0.0
C77 C 0.80803 0.59874 0.04741 0.0
C78 C 0.82724 0.57569 0.05049 0.0
C79 C 0.84063 0.56628 0.97042 0.0
C80 C 0.86063 0.54689 0.97663 0.0
C81 C 0.86763 0.53776 0.06388 0.0
C82 C 0.85504 0.54766 0.14421 0.0
C83 C 0.83383 0.56545 0.1362 0.0
H84 H 0.29806 0.77651 0.97202 0.0
H85 H 0.31453 0.79499 0.27043 0.0
H86 H 0.36699 0.88893 0.1069 0.0
H87 H 0.28629 0.72399 0.06981 0.0
H88 H 0.28634 0.73122 0.19283 0.0
H89 H 0.23234 0.71154 0.96637 0.0
H90 H 0.13209 0.69183 0.08841 0.0
H91 H 0.23304 0.73001 0.26241 0.0
C92 C 0.30984 0.79561 0.03528 0.0
C93 C 0.33211 0.83447 0.03005 0.0
C94 C 0.30313 0.78122 0.12182 0.0
C95 C 0.31933 0.80614 0.20368 0.0
C96 C 0.34212 0.84529 0.19949 0.0
C97 C 0.34817 0.85909 0.11195 0.0
C98 C 0.27971 0.7392 0.12601 0.0
C99 C 0.23862 0.72686 0.11484 0.0
C100 C 0.21864 0.71407 0.02658 0.0
C101 C 0.18015 0.70155 0.01782 0.0
C102 C 0.16235 0.70391 0.09552 0.0
C103 C 0.18045 0.71137 0.18379 0.0
C104 C 0.21908 0.72471 0.19373 0.0
H105 H 0.51944 0.29162 0.04617 0.0
H106 H 0.49691 0.28517 0.33451 0.0
H107 H 0.45755 0.34077 0.16195 0.0
H108 H 0.54521 0.26328 0.14503 0.0
H109 H 0.54975 0.27725 0.26674 0.0
H110 H 0.48479 0.20493 0.07564 0.0
H111 H 0.43864 0.11552 0.25107 0.0
H112 H 0.52223 0.22726 0.36545 0.0
C113 C 0.50571 0.29617 0.10383 0.0
C114 C 0.48684 0.31649 0.09397 0.0
C115 C 0.50777 0.28302 0.19021 0.0
C116 C 0.49265 0.29223 0.26626 0.0
C117 C 0.47483 0.31331 0.2559 0.0
C118 C 0.47012 0.32316 0.16887 0.0
C119 C 0.52908 0.26257 0.20538 0.0
C120 C 0.50255 0.22194 0.22127 0.0
C121 C 0.48099 0.19592 0.1448 0.0
C122 C 0.45918 0.15738 0.15558 0.0
C123 C 0.45459 0.14566 0.24415 0.0
C124 C 0.47892 0.16997 0.3189 0.0
C125 C 0.5025 0.20852 0.3084 0.0
C126 C 0.97446 0.417 0.86056 0.0
C127 C 0.08956 0.482 0.79137 0.0
C128 C 0.06017 0.59424 0.75086 0.0
Mg129 Mg 0.01454 0.43735 0.68251 0.0
O130 O 1.0022 0.47541 0.7076 0.0
Mg131 Mg 0.02465 0.50908 0.82481 0.0
Mg132 Mg 0.01631 0.51316 0.61931 0.0
O133 O 0.03034 0.55063 0.53045 0.0
Mg134 Mg 0.01883 0.5892 0.55567 0.0
Mg135 Mg 1.00749 0.51618 0.4135 0.0
C136 C 0.975 0.43258 0.48683 0.0
C137 C 0.0759 0.50548 0.48773 0.0
O138 O 0.98855 0.45238 0.88837 0.0
O139 O 0.9817 0.40496 0.78486 0.0
O140 O 0.07509 0.50013 0.82948 0.0
O141 O 0.07218 0.45633 0.72419 0.0
O142 O 0.98885 0.4189 0.54251 0.0
O143 O 0.97896 0.4657 0.50425 0.0
C144 C 0.95692 0.5213 0.75173 0.0
O145 O 0.96608 0.52079 0.66806 0.0
O146 O 0.97496 0.5175 0.81912 0.0
O147 O 0.04301 0.57243 0.348 0.0
O148 O 0.05159 0.62073 0.45085 0.0
O149 O 0.95693 0.5244 0.40759 0.0
C150 C 0.05814 0.60802 0.375 0.0
O151 O 0.96041 0.56835 0.51335 0.0
O152 O 0.0467 0.60852 0.69562 0.0
C153 C 0.94269 0.54279 0.44569 0.0
O154 O 0.05368 0.56012 0.73428 0.0
O155 O 0.0671 0.50669 0.57149 0.0
O156 O 0.05721 0.50803 0.41976 0.0
C157 C 0.45171 0.03684 0.91374 0.0
C158 C 0.40881 0.92881 0.76045 0.0
C159 C 0.55261 0.96713 0.72961 0.0
Mg160 Mg 0.43917 0.00869 0.70643 0.0
O161 O 0.48922 0.02167 0.7378 0.0
Mg162 Mg 0.49885 0.99448 0.83353 0.0
Mg163 Mg 0.51526 0.01299 0.63709 0.0
O164 O 0.54095 1.00435 0.53637 0.0
Mg165 Mg 0.59077 0.01652 0.56465 0.0
Mg166 Mg 0.53152 0.03161 0.44064 0.0
C167 C 0.47969 0.06094 0.54575 0.0
C168 C 0.45084 0.95968 0.46961 0.0
O169 O 0.47405 0.02387 0.92733 0.0
O170 O 0.43474 0.03319 0.83498 0.0
O171 O 0.44071 0.94253 0.80551 0.0
O172 O 0.40154 0.94831 0.70745 0.0
O173 O 0.45073 0.04425 0.59213 0.0
O174 O 0.50748 0.05504 0.55465 0.0
C175 C 0.57894 0.06734 0.80447 0.0
O176 O 0.57102 0.06121 0.71635 0.0
O177 O 0.55622 0.04629 0.86007 0.0
O178 O 0.55281 0.99945 0.34651 0.0
O179 O 0.59169 0.98895 0.43713 0.0
O180 O 0.59127 0.08288 0.46485 0.0
C181 C 0.57343 0.98458 0.35985 0.0
O182 O 0.62962 0.07605 0.56271 0.0
O183 O 0.58102 0.98368 0.68183 0.0
C184 C 0.62327 0.09589 0.50906 0.0
O185 O 0.52403 0.97178 0.71991 0.0
O186 O 0.4595 0.96412 0.5573 0.0
O187 O 0.47328 0.98174 0.41525 0.0
C188 C 0.55152 0.59616 0.3405 0.0
C189 C 0.61058 0.53835 0.41151 0.0
C190 C 0.46911 0.42651 0.49393 0.0
Mg191 Mg 0.58195 0.58425 0.52443 0.0
O192 O 0.53268 0.54337 0.51083 0.0
Mg193 Mg 0.51624 0.50646 0.39888 0.0
Mg194 Mg 0.51409 0.50881 0.60831 0.0
O195 O 0.49488 0.47424 0.70608 0.0
Mg196 Mg 0.44366 0.43742 0.69501 0.0
Mg197 Mg 0.51415 0.51073 0.8193 0.0
C198 C 0.55454 0.59272 0.72253 0.0
C199 C 0.58622 0.51652 0.72508 0.0
O200 O 0.53234 0.55999 0.31854 0.0
O201 O 0.57175 0.61142 0.41707 0.0
O202 O 0.57613 0.51593 0.38246 0.0
O203 O 0.62 0.56607 0.47355 0.0
O204 O 0.57941 0.60645 0.66369 0.0
O205 O 0.52908 0.55766 0.71588 0.0
C206 C 0.44134 0.49705 0.48652 0.0
O207 O 0.45586 0.50164 0.56933 0.0
O208 O 0.45894 0.49797 0.4154 0.0
O209 O 0.49783 0.45564 0.89332 0.0
O210 O 0.45216 0.40732 0.79789 0.0
O211 O 0.45752 0.50597 0.84362 0.0
C212 C 0.4755 0.41988 0.86984 0.0
O213 O 0.40975 0.46072 0.7512 0.0
O214 O 0.44388 0.41546 0.55255 0.0
C215 C 0.4227 0.48796 0.81625 0.0
O216 O 0.49866 0.45956 0.50276 0.0
O217 O 0.57244 0.51552 0.64392 0.0
O218 O 0.56923 0.51545 0.79713 0.0
C219 C 0.13138 0.47389 0.34922 0.0
C220 C 0.16517 0.5082 0.34522 0.0
C221 C 0.10393 0.47164 0.407 0.0
C222 C 0.10937 0.50338 0.46437 0.0
H223 H 0.12486 0.44929 0.30207 0.0
H224 H 0.07691 0.4458 0.40052 0.0
S225 S 0.1946 0.59831 0.49082 0.0
N226 N 0.20396 0.57359 0.41227 0.0
N227 N 0.15237 0.5689 0.52141 0.0
C228 C 0.14436 0.53669 0.46832 0.0
C229 C 0.17234 0.53919 0.40885 0.0
C230 C 0.70749 0.14299 0.37713 0.0
C231 C 0.69896 0.16616 0.32679 0.0
C232 C 0.68598 0.12439 0.44902 0.0
C233 C 0.65509 0.12815 0.47205 0.0
H234 H 0.72855 0.13637 0.35526 0.0
H235 H 0.69089 0.10359 0.47868 0.0
S236 S 0.62956 0.19525 0.38132 0.0
N237 N 0.66372 0.19887 0.31909 0.0
N238 N 0.62313 0.16384 0.45441 0.0
C239 C 0.64991 0.15545 0.43115 0.0
C240 C 0.67176 0.17432 0.35793 0.0
C241 C 0.54151 0.67651 0.25702 0.0
C242 C 0.54497 0.67282 0.16156 0.0
C243 C 0.54377 0.65148 0.31458 0.0
C244 C 0.54901 0.62173 0.27822 0.0
H245 H 0.53631 0.69828 0.28692 0.0
H246 H 0.54067 0.65496 0.38788 0.0
S247 S 0.56456 0.60284 0.03559 0.0
N248 N 0.55842 0.63963 0.03552 0.0
N249 N 0.56032 0.59167 0.14323 0.0
C250 C 0.55343 0.6183 0.18375 0.0
C251 C 0.55215 0.6442 0.12564 0.0
C252 C 0.86726 0.50964 0.25287 0.0
C253 C 0.86817 0.54344 0.2369 0.0
C254 C 0.88761 0.50799 0.32991 0.0
C255 C 0.90991 0.5402 0.3933 0.0
H256 H 0.85278 0.48503 0.20221 0.0
H257 H 0.88863 0.48227 0.33506 0.0
S258 S 0.91629 0.6336 0.39151 0.0
N259 N 0.88892 0.60836 0.29755 0.0
N260 N 0.92683 0.60507 0.44274 0.0
C261 C 0.9074 0.57277 0.38413 0.0
C262 C 0.88675 0.57451 0.30541 0.0
C263 C 0.38375 0.86337 0.34759 0.0
C264 C 0.36261 0.87166 0.28477 0.0
C265 C 0.40968 0.8911 0.41664 0.0
C266 C 0.41517 0.9279 0.4252 0.0
H267 H 0.38241 0.83626 0.33893 0.0
H268 H 0.42776 0.88465 0.45792 0.0
S269 S 0.36259 0.96221 0.28934 0.0
N270 N 0.34531 0.91788 0.24522 0.0
N271 N 0.39463 0.96996 0.37284 0.0
C272 C 0.39203 0.93551 0.36828 0.0
C273 C 0.36559 0.9074 0.29864 0.0
C274 C 0.43747 0.33593 0.34046 0.0
C275 C 0.47105 0.33519 0.33496 0.0
C276 C 0.43695 0.36598 0.39118 0.0
C277 C 0.47015 0.39641 0.43598 0.0
H278 H 0.41205 0.31434 0.30058 0.0
H279 H 0.41075 0.366 0.39318 0.0
S280 S 0.56407 0.40497 0.45341 0.0
N281 N 0.53731 0.3653 0.38594 0.0
N282 N 0.53641 0.42175 0.48162 0.0
C283 C 0.50338 0.39481 0.43557 0.0
C284 C 0.50374 0.36403 0.38536 0.0
C285 C 0.51366 0.87476 0.83917 0.0
C286 C 0.54628 0.87466 0.87088 0.0
C287 C 0.51582 0.90525 0.79596 0.0
C288 C 0.55071 0.9368 0.78293 0.0
H289 H 0.48634 0.85218 0.8533 0.0
H290 H 0.48997 0.9041 0.77311 0.0
S291 S 0.64434 0.95028 0.85383 0.0
N292 N 0.61429 0.90854 0.88578 0.0
N293 N 0.61861 0.96568 0.80437 0.0
C294 C 0.58348 0.93645 0.81191 0.0
C295 C 0.5812 0.90536 0.85533 0.0
C296 C 0.6518 0.49548 0.84629 0.0
C297 C 0.68225 0.53221 0.86992 0.0
C298 C 0.62245 0.48892 0.78245 0.0
C299 C 0.62255 0.51895 0.74129 0.0
H300 H 0.64897 0.47242 0.88383 0.0
H301 H 0.59744 0.46116 0.77442 0.0
S302 S 0.69877 0.61886 0.76727 0.0
N303 N 0.7135 0.59785 0.83662 0.0
N304 N 0.65774 0.58529 0.71732 0.0
C305 C 0.6549 0.55472 0.75518 0.0
C306 C 0.68495 0.56148 0.8199 0.0
C307 C 0.13947 0.68682 0.87264 0.0
C308 C 0.15523 0.6748 0.9396 0.0
C309 C 0.10817 0.66049 0.8136 0.0
C310 C 0.09103 0.62116 0.82066 0.0
H311 H 0.15058 0.71675 0.86813 0.0
H312 H 0.09739 0.67127 0.76213 0.0
S313 S 0.12025 0.57633 -0.00688 0.0
N314 N 0.15114 0.62189 0.01367 0.0
N315 N 0.09159 0.57239 0.90517 0.0
C316 C 0.10658 0.60909 0.88864 0.0
C317 C 0.13885 0.63588 0.94734 0.0
C318 C 0.42186 0.09768 0.05032 0.0
C319 C 0.45666 0.12924 0.0829 0.0
C320 C 0.42007 0.0665 -0.00141 0.0
C321 C 0.45293 0.0654 -0.01762 0.0
H322 H 0.39608 0.09693 0.06623 0.0
H323 H 0.39293 0.04312 0.97111 0.0
S324 S 0.55066 0.14074 0.05577 0.0
N325 N 0.52449 0.15772 0.09532 0.0
N326 N 0.52104 0.09846 0.00233 0.0
C327 C 0.48775 0.09657 0.01603 0.0
C328 C 0.48962 0.12871 0.06511 0.0
C329 C 0.39327 0.5359 0.00174 0.0
C330 C 0.35561 0.50905 0.00964 0.0
C331 C 0.41377 0.52987 0.93443 0.0
C332 C 0.39752 0.49675 0.87138 0.0
H333 H 0.40767 0.56074 0.05176 0.0
H334 H 0.44331 0.55064 0.93534 0.0
S335 S 0.29836 0.41912 0.85913 0.0
N336 N 0.30188 0.44926 0.94636 0.0
N337 N 0.34007 0.43798 0.81804 0.0
C338 C 0.35901 0.47077 0.87494 0.0
C339 C 0.3382 0.47685 0.94461 0.0
C340 C 0.88113 0.36827 0.96079 0.0
C341 C 0.87791 0.33388 -0.01824 0.0
C342 C 0.91334 0.39563 0.92469 0.0
C343 C 0.94278 0.38901 0.90579 0.0
H344 H 0.86002 0.37528 0.97989 0.0
H345 H 0.91532 0.42223 0.91193 0.0
S346 S 0.94634 0.30211 0.93713 0.0
N347 N 0.9059 0.29377 0.97479 0.0
N348 N 0.9655 0.34465 0.90123 0.0
C349 C 0.93869 0.35371 0.919 0.0
C350 C 0.90628 0.3261 0.95767 0.0
C351 C 0.90658 0.56861 0.8541 0.0
C352 C 0.8776 0.53875 0.89537 0.0
C353 C 0.92992 0.56219 0.79581 0.0
C354 C 0.92469 0.52568 0.77602 0.0
H355 H 0.91329 0.59746 0.87328 0.0
H356 H 0.95417 0.58633 0.77309 0.0
S357 S 0.8495 0.43747 0.85573 0.0
N358 N 0.8425 0.47097 0.90372 0.0
N359 N 0.88603 0.45901 0.79439 0.0
C360 C 0.89379 0.49536 0.81023 0.0
C361 C 0.87032 0.50186 0.86981 0.0
C362 C 0.36765 0.84399 0.88995 0.0
C363 C 0.34196 0.84966 0.93949 0.0
C364 C 0.38571 0.8664 0.81906 0.0
C365 C 0.37829 0.89483 0.79494 0.0
H366 H 0.37641 0.82466 0.91182 0.0
H367 H 0.40839 0.86417 0.78974 0.0
S368 S 0.30818 0.91569 0.89351 0.0
N369 N 0.30619 0.88177 0.95209 0.0
N370 N 0.33947 0.92343 0.81754 0.0
C371 C 0.34928 0.8974 0.83655 0.0
C372 C 0.33144 0.87508 0.90982 0.0
C373 C 0.51775 0.37534 0.0183 0.0
C374 C 0.48868 0.33745 0.01419 0.0
C375 C 0.51323 0.40195 0.97228 0.0
C376 C 0.47944 0.39157 0.9202 0.0
H377 H 0.54302 0.38511 0.06342 0.0
H378 H 0.53614 0.43096 0.97909 0.0
S379 S 0.39574 0.2949 0.88346 0.0
N380 N 0.42598 0.29039 0.95108 0.0
N381 N 0.41719 0.33972 0.86306 0.0
C382 C 0.45095 0.35314 0.91156 0.0
C383 C 0.45569 0.32625 0.95857 0.0
C384 C 0.17709 0.52753 0.94929 0.0
C385 C 0.17063 0.49788 0.00261 0.0
C386 C 0.15301 0.52129 0.87117 0.0
C387 C 0.12229 0.48512 0.84318 0.0
H388 H 0.1989 0.55625 0.97252 0.0
H389 H 0.15653 0.54541 0.83726 0.0
S390 S 0.09674 0.39732 0.95182 0.0
N391 N 0.13402 0.43057 0.0167 0.0
N392 N 0.08906 0.41866 0.86857 0.0
C393 C 0.11785 0.45466 0.89048 0.0
C394 C 0.14191 0.46112 0.97098 0.0
C395 C 0.64508 0.15153 0.96917 0.0
C396 C 0.67576 0.14586 -0.0172 0.0
C397 C 0.61533 0.12837 0.90224 0.0
C398 C 0.61513 0.09874 0.84676 0.0
H399 H 0.64316 0.17275 0.01384 0.0
H400 H 0.59114 0.13204 0.89784 0.0
S401 S 0.68933 0.07317 0.85084 0.0
N402 N 0.70493 0.10956 0.93106 0.0
N403 N 0.6487 0.06603 0.80588 0.0
C404 C 0.64656 0.09423 0.85534 0.0
C405 C 0.67699 0.11784 0.92327 0.0
C406 C 0.5705 0.68376 0.84838 0.0
C407 C 0.53375 0.67667 0.85774 0.0
C408 C 0.57698 0.65593 0.80714 0.0
C409 C 0.54698 0.62008 0.77392 0.0
H410 H 0.59444 0.70985 0.88013 0.0
H411 H 0.60566 0.66221 0.80324 0.0
S412 S 0.4458 0.59059 0.76378 0.0
N413 N 0.46735 0.63357 0.81933 0.0
N414 N 0.47919 0.58114 0.73904 0.0
C415 C 0.51012 0.61367 0.77621 0.0
C416 C 0.50363 0.64212 0.81813 0.0
C417 C 0.46396 0.13866 0.46466 0.0
C418 C 0.48706 0.15107 0.39151 0.0
C419 C 0.46218 0.1098 0.51457 0.0
C420 C 0.48286 0.09177 0.49184 0.0
H421 H 0.44565 0.14983 0.47998 0.0
H422 H 0.44373 0.10102 0.57012 0.0
S423 S 0.54509 0.11238 0.30013 0.0
N424 N 0.53037 0.14304 0.29714 0.0
N425 N 0.52618 0.08825 0.38846 0.0
C426 C 0.50655 0.10462 0.41968 0.0
C427 C 0.50886 0.1344 0.37024 0.0
C428 C 0.35203 0.46508 0.34988 0.0
C429 C 0.35287 0.49966 0.34655 0.0
C430 C 0.37772 0.46229 0.40963 0.0
C431 C 0.40479 0.49391 0.46799 0.0
H432 H 0.33398 0.44119 0.29971 0.0
H433 H 0.37926 0.43662 0.40226 0.0
S434 S 0.4144 0.58869 0.49776 0.0
N435 N 0.3795 0.56456 0.41659 0.0
N436 N 0.42754 0.55884 0.5291 0.0
C437 C 0.40267 0.52699 0.47421 0.0
C438 C 0.3767 0.53003 0.41308 0.0
C439 C 0.8833 0.37725 0.33765 0.0
C440 C 0.88423 0.34481 0.30294 0.0
C441 C 0.91381 0.40687 0.39305 0.0
C442 C 0.94638 0.40512 0.41467 0.0
H443 H 0.8593 0.38021 0.31916 0.0
H444 H 0.91156 0.43089 0.42042 0.0
S445 S 0.96399 0.32791 0.33292 0.0
N446 N 0.92102 0.31371 0.28917 0.0
N447 N 0.9784 0.36923 0.39288 0.0
C448 C 0.94776 0.37305 0.37901 0.0
C449 C 0.91664 0.34288 0.32365 0.0
C450 C 0.52354 0.89107 0.21474 0.0
C451 C 0.55294 0.88466 0.19317 0.0
C452 C 0.53089 0.92485 0.26414 0.0
C453 C 0.56779 0.95301 0.29479 0.0
H454 H 0.49492 0.87066 0.18876 0.0
H455 H 0.50742 0.92862 0.27989 0.0
S456 S 0.65439 0.94953 0.26001 0.0
N457 N 0.62031 0.90906 0.20732 0.0
N458 N 0.63375 0.97195 0.30473 0.0
C459 C 0.59725 0.94639 0.27732 0.0
C460 C 0.58989 0.91224 0.22583 0.0
C461 C 0.69794 0.57229 0.27979 0.0
C462 C 0.68828 0.54104 0.21446 0.0
C463 C 0.67432 0.57019 0.34968 0.0
C464 C 0.63992 0.53682 0.35675 0.0
H465 H 0.72258 0.59935 0.27301 0.0
H466 H 0.6818 0.59581 0.39379 0.0
S467 S 0.60552 0.44489 0.21468 0.0
N468 N 0.64502 0.47404 0.17117 0.0
N469 N 0.60037 0.47032 0.30021 0.0
C470 C 0.63171 0.50451 0.29701 0.0
C471 C 0.65588 0.50657 0.22655 0.0
C472 C 0.12936 0.69918 0.28575 0.0
C473 C 0.15595 0.6901 0.25421 0.0
C474 C 0.09731 0.67228 0.32414 0.0
C475 C 0.09029 0.63517 0.32858 0.0
H476 H 0.13242 0.7265 0.27612 0.0
H477 H 0.07734 0.68018 0.34789 0.0
S478 S 0.15235 0.59806 0.25855 0.0
N479 N 0.1743 0.64237 0.23416 0.0
N480 N 0.11369 0.59152 0.30374 0.0
C481 C 0.11729 0.62621 0.29982 0.0
C482 C 0.15031 0.65383 0.26362 0.0
loop_
_geom_bond_atom_site_label_1
_geom_bond_atom_site_label_2
_geom_bond_distance
_geom_bond_site_symmetry_2
_ccdc_geom_bond_type
H0 C8 0.930 . S
H1 C11 0.930 . S
H2 C13 0.930 . S
H3 C14 0.970 . S
H4 C14 0.970 . S
H5 C16 0.930 . S
H6 C18 0.930 . S
H7 C20 0.930 . S
C8 H0 0.930 . S
C8 C9 1.382 . S
C8 C10 1.426 . S
C9 C8 1.382 . S
C9 C13 1.389 . S
C10 C8 1.426 . S
C10 C11 1.375 . S
C10 C14 1.532 . S
C11 H1 0.930 . S
C11 C10 1.375 . S
C11 C12 1.416 . S
C12 C11 1.416 . S
C12 C13 1.371 . S
C13 H2 0.930 . S
C13 C9 1.389 . S
C13 C12 1.371 . S
C14 H3 0.970 . S
C14 H4 0.970 . S
C14 C10 1.532 . S
C14 C15 1.499 . S
C15 C14 1.499 . S
C15 C16 1.370 . S
C15 C20 1.415 . S
C16 H5 0.930 . S
C16 C15 1.370 . S
C16 C17 1.407 . S
C17 C16 1.407 . S
C17 C18 1.365 . S
C18 H6 0.930 . S
C18 C17 1.365 . S
C18 C19 1.393 . S
C19 C18 1.393 . S
C19 C20 1.387 . S
C20 H7 0.930 . S
C20 C15 1.415 . S
C20 C19 1.387 . S
H21 C29 0.930 . S
H22 C32 0.930 . S
H23 C34 0.930 . S
H24 C35 0.970 . S
H25 C35 0.970 . S
H26 C37 0.930 . S
H27 C39 0.930 . S
H28 C41 0.930 . S
C29 H21 0.930 . S
C29 C30 1.382 . S
C29 C31 1.426 . S
C30 C29 1.382 . S
C30 C34 1.389 . S
C31 C29 1.426 . S
C31 C32 1.375 . S
C31 C35 1.532 . S
C32 H22 0.930 . S
C32 C31 1.375 . S
C32 C33 1.416 . S
C33 C32 1.416 . S
C33 C34 1.371 . S
C34 H23 0.930 . S
C34 C30 1.389 . S
C34 C33 1.371 . S
C35 H24 0.970 . S
C35 H25 0.970 . S
C35 C31 1.532 . S
C35 C36 1.499 . S
C36 C35 1.499 . S
C36 C37 1.370 . S
C36 C41 1.415 . S
C37 H26 0.930 . S
C37 C36 1.370 . S
C37 C38 1.407 . S
C38 C37 1.407 . S
C38 C39 1.365 . S
C39 H27 0.930 . S
C39 C38 1.365 . S
C39 C40 1.393 . S
C40 C39 1.393 . S
C40 C41 1.387 . S
C41 H28 0.930 . S
C41 C36 1.415 . S
C41 C40 1.387 . S
H42 C50 0.930 . S
H43 C53 0.930 . S
H44 C55 0.930 . S
H45 C56 0.970 1_556 S
H46 C56 0.970 . S
H47 C58 0.930 . S
H48 C60 0.930 . S
H49 C62 0.930 . S
C50 H42 0.930 . S
C50 C51 1.382 . S
C50 C52 1.426 1_556 S
C51 C50 1.382 . S
C51 C55 1.389 1_556 S
C52 C50 1.426 1_554 S
C52 C53 1.375 . S
C52 C56 1.532 . S
C53 H43 0.930 . S
C53 C52 1.375 . S
C53 C54 1.416 . S
C54 C53 1.416 . S
C54 C55 1.371 . S
C55 H44 0.930 . S
C55 C51 1.389 1_554 S
C55 C54 1.371 . S
C56 H45 0.970 1_554 S
C56 H46 0.970 . S
C56 C52 1.532 . S
C56 C57 1.499 . S
C57 C56 1.499 . S
C57 C58 1.370 1_554 S
C57 C62 1.415 . S
C58 H47 0.930 . S
C58 C57 1.370 1_556 S
C58 C59 1.407 . S
C59 C58 1.407 . S
C59 C60 1.365 1_556 S
C60 H48 0.930 . S
C60 C59 1.365 1_554 S
C60 C61 1.393 . S
C61 C60 1.393 . S
C61 C62 1.387 . S
C62 H49 0.930 . S
C62 C57 1.415 . S
C62 C61 1.387 . S
H63 C71 0.930 . S
H64 C74 0.930 . S
H65 C76 0.930 . S
H66 C77 0.970 . S
H67 C77 0.970 . S
H68 C79 0.930 . S
H69 C81 0.930 . S
H70 C83 0.930 . S
C71 H63 0.930 . S
C71 C72 1.382 . S
C71 C73 1.426 1_556 S
C72 C71 1.382 . S
C72 C76 1.389 1_556 S
C73 C71 1.426 1_554 S
C73 C74 1.375 . S
C73 C77 1.532 . S
C74 H64 0.930 . S
C74 C73 1.375 . S
C74 C75 1.416 . S
C75 C74 1.416 . S
C75 C76 1.371 . S
C76 H65 0.930 . S
C76 C72 1.389 1_554 S
C76 C75 1.371 . S
C77 H66 0.970 . S
C77 H67 0.970 . S
C77 C73 1.532 . S
C77 C78 1.499 . S
C78 C77 1.499 . S
C78 C79 1.371 1_554 S
C78 C83 1.415 . S
C79 H68 0.930 . S
C79 C78 1.371 1_556 S
C79 C80 1.407 . S
C80 C79 1.407 . S
C80 C81 1.365 1_556 S
C81 H69 0.930 . S
C81 C80 1.365 1_554 S
C81 C82 1.393 . S
C82 C81 1.393 . S
C82 C83 1.387 . S
C83 H70 0.930 . S
C83 C78 1.415 . S
C83 C82 1.387 . S
H84 C92 0.930 1_556 S
H85 C95 0.930 . S
H86 C97 0.930 . S
H87 C98 0.970 . S
H88 C98 0.970 . S
H89 C100 0.930 1_556 S
H90 C102 0.930 . S
H91 C104 0.930 . S
C92 H84 0.930 1_554 S
C92 C93 1.382 . S
C92 C94 1.426 . S
C93 C92 1.382 . S
C93 C97 1.389 . S
C94 C92 1.426 . S
C94 C95 1.375 . S
C94 C98 1.532 . S
C95 H85 0.930 . S
C95 C94 1.375 . S
C95 C96 1.416 . S
C96 C95 1.416 . S
C96 C97 1.371 . S
C97 H86 0.930 . S
C97 C93 1.389 . S
C97 C96 1.371 . S
C98 H87 0.970 . S
C98 H88 0.970 . S
C98 C94 1.532 . S
C98 C99 1.499 . S
C99 C98 1.499 . S
C99 C100 1.370 . S
C99 C104 1.415 . S
C100 H89 0.930 1_554 S
C100 C99 1.370 . S
C100 C101 1.407 . S
C101 C100 1.407 . S
C101 C102 1.365 . S
C102 H90 0.930 . S
C102 C101 1.365 . S
C102 C103 1.393 . S
C103 C102 1.393 . S
C103 C104 1.387 . S
C104 H91 0.930 . S
C104 C99 1.415 . S
C104 C103 1.387 . S
H105 C113 0.930 . S
H106 C116 0.930 . S
H107 C118 0.930 . S
H108 C119 0.970 . S
H109 C119 0.970 . S
H110 C121 0.930 . S
H111 C123 0.930 . S
H112 C125 0.930 . S
C113 H105 0.930 . S
C113 C114 1.382 . S
C113 C115 1.426 . S
C114 C113 1.382 . S
C114 C118 1.389 . S
C115 C113 1.426 . S
C115 C116 1.375 . S
C115 C119 1.532 . S
C116 H106 0.930 . S
C116 C115 1.375 . S
C116 C117 1.416 . S
C117 C116 1.416 . S
C117 C118 1.371 . S
C118 H107 0.930 . S
C118 C114 1.389 . S
C118 C117 1.371 . S
C119 H108 0.970 . S
C119 H109 0.970 . S
C119 C115 1.532 . S
C119 C120 1.499 . S
C120 C119 1.499 . S
C120 C121 1.370 . S
C120 C125 1.415 . S
C121 H110 0.930 . S
C121 C120 1.370 . S
C121 C122 1.407 . S
C122 C121 1.407 . S
C122 C123 1.365 . S
C123 H111 0.930 . S
C123 C122 1.365 . S
C123 C124 1.393 . S
C124 C123 1.393 . S
C124 C125 1.387 . S
C125 H112 0.930 . S
C125 C120 1.415 . S
C125 C124 1.387 . S
C126 O138 1.241 . S
C126 O139 1.280 . S
C127 O140 1.277 . S
C127 O141 1.245 . S
C128 O152 1.247 . S
C128 O154 1.289 . S
Mg129 O130 1.926 . S
Mg129 O139 1.984 . S
Mg129 O141 1.988 1_655 S
Mg129 O142 2.061 . S
O130 Mg129 1.926 . S
O130 Mg131 1.986 1_655 S
O130 Mg132 1.917 1_655 S
Mg131 O130 1.986 1_455 S
Mg131 O138 2.042 1_455 S
Mg131 O140 2.041 . S
Mg131 O146 2.038 1_455 S
Mg131 O154 2.238 . S
Mg132 O130 1.917 1_455 S
Mg132 O133 1.917 . S
Mg132 O143 2.106 1_455 S
Mg132 O145 2.079 1_455 S
Mg132 O154 2.106 . S
Mg132 O155 2.079 . S
O133 Mg132 1.917 . S
O133 Mg134 1.926 . S
O133 Mg135 1.986 . S
Mg134 O133 1.926 . S
Mg134 O148 1.984 . S
Mg134 O151 1.988 1_455 S
Mg134 O152 2.061 . S
Mg135 O133 1.986 . S
Mg135 O143 2.238 1_455 S
Mg135 O147 2.042 . S
Mg135 O149 2.041 1_455 S
Mg135 O156 2.038 . S
C136 O142 1.247 . S
C136 O143 1.289 . S
C137 O155 1.245 . S
C137 O156 1.274 . S
O138 C126 1.241 . S
O138 Mg131 2.042 1_655 S
O139 C126 1.280 . S
O139 Mg129 1.984 . S
O140 C127 1.277 . S
O140 Mg131 2.041 . S
O141 C127 1.245 . S
O141 Mg129 1.988 1_455 S
O142 Mg129 2.061 . S
O142 C136 1.247 . S
O143 Mg132 2.106 1_655 S
O143 Mg135 2.238 1_655 S
O143 C136 1.289 . S
C144 O145 1.245 . S
C144 O146 1.274 . S
O145 Mg132 2.079 1_655 S
O145 C144 1.245 . S
O146 Mg131 2.038 1_655 S
O146 C144 1.274 . S
O147 Mg135 2.042 . S
O147 C150 1.241 . S
O148 Mg134 1.984 . S
O148 C150 1.280 . S
O149 Mg135 2.041 1_655 S
O149 C153 1.277 . S
C150 O147 1.241 . S
C150 O148 1.280 . S
O151 Mg134 1.988 1_655 S
O151 C153 1.245 . S
O152 C128 1.247 . S
O152 Mg134 2.061 . S
C153 O149 1.277 . S
C153 O151 1.245 . S
O154 C128 1.289 . S
O154 Mg131 2.238 . S
O154 Mg132 2.106 . S
O155 Mg132 2.079 . S
O155 C137 1.245 . S
O156 Mg135 2.038 . S
O156 C137 1.274 . S
C157 O169 1.241 . S
C157 O170 1.280 . S
C158 O171 1.277 . S
C158 O172 1.245 . S
C159 O183 1.247 . S
C159 O185 1.289 . S
Mg160 O161 1.926 . S
Mg160 O170 1.984 . S
Mg160 O172 1.988 1_545 S
Mg160 O173 2.061 . S
O161 Mg160 1.926 . S
O161 Mg162 1.986 . S
O161 Mg163 1.917 . S
Mg162 O161 1.986 . S
Mg162 O169 2.042 . S
Mg162 O171 2.041 1_545 S
Mg162 O177 2.038 . S
Mg162 O185 2.238 1_545 S
Mg163 O161 1.917 . S
Mg163 O164 1.917 1_545 S
Mg163 O174 2.106 . S
Mg163 O176 2.079 . S
Mg163 O185 2.106 1_545 S
Mg163 O186 2.079 1_545 S
O164 Mg163 1.917 1_565 S
O164 Mg165 1.926 . S
O164 Mg166 1.986 1_565 S
Mg165 O164 1.926 . S
Mg165 O179 1.984 . S
Mg165 O182 1.988 1_565 S
Mg165 O183 2.061 . S
Mg166 O164 1.986 1_545 S
Mg166 O174 2.238 . S
Mg166 O178 2.042 1_545 S
Mg166 O180 2.041 . S
Mg166 O187 2.038 1_545 S
C167 O173 1.247 . S
C167 O174 1.289 . S
C168 O186 1.245 . S
C168 O187 1.274 . S
O169 C157 1.241 . S
O169 Mg162 2.042 . S
O170 C157 1.280 . S
O170 Mg160 1.984 . S
O171 C158 1.277 . S
O171 Mg162 2.041 1_565 S
O172 C158 1.245 . S
O172 Mg160 1.988 1_565 S
O173 Mg160 2.061 . S
O173 C167 1.247 . S
O174 Mg163 2.106 . S
O174 Mg166 2.238 . S
O174 C167 1.289 . S
C175 O176 1.245 . S
C175 O177 1.274 . S
O176 Mg163 2.079 . S
O176 C175 1.245 . S
O177 Mg162 2.038 . S
O177 C175 1.274 . S
O178 Mg166 2.042 1_565 S
O178 C181 1.241 . S
O179 Mg165 1.984 . S
O179 C181 1.280 . S
O180 Mg166 2.041 . S
O180 C184 1.277 . S
C181 O178 1.241 . S
C181 O179 1.280 . S
O182 Mg165 1.988 1_545 S
O182 C184 1.245 . S
O183 C159 1.247 . S
O183 Mg165 2.061 . S
C184 O180 1.277 . S
C184 O182 1.245 . S
O185 C159 1.289 . S
O185 Mg162 2.238 1_565 S
O185 Mg163 2.106 1_565 S
O186 Mg163 2.079 1_565 S
O186 C168 1.245 . S
O187 Mg166 2.038 1_565 S
O187 C168 1.274 . S
C188 O200 1.241 . S
C188 O201 1.280 . S
C189 O202 1.277 . S
C189 O203 1.245 . S
C190 O214 1.247 . S
C190 O216 1.289 . S
Mg191 O192 1.926 . S
Mg191 O201 1.984 . S
Mg191 O203 1.988 . S
Mg191 O204 2.061 . S
O192 Mg191 1.926 . S
O192 Mg193 1.986 . S
O192 Mg194 1.917 . S
Mg193 O192 1.986 . S
Mg193 O200 2.042 . S
Mg193 O202 2.041 . S
Mg193 O208 2.038 . S
Mg193 O216 2.238 . S
Mg194 O192 1.917 . S
Mg194 O195 1.917 . S
Mg194 O205 2.106 . S
Mg194 O207 2.079 . S
Mg194 O216 2.106 . S
Mg194 O217 2.079 . S
O195 Mg194 1.917 . S
O195 Mg196 1.926 . S
O195 Mg197 1.986 . S
Mg196 O195 1.926 . S
Mg196 O210 1.984 . S
Mg196 O213 1.988 . S
Mg196 O214 2.061 . S
Mg197 O195 1.986 . S
Mg197 O205 2.238 . S
Mg197 O209 2.042 . S
Mg197 O211 2.041 . S
Mg197 O218 2.038 . S
C198 O204 1.247 . S
C198 O205 1.289 . S
C199 O217 1.245 . S
C199 O218 1.274 . S
O200 C188 1.241 . S
O200 Mg193 2.042 . S
O201 C188 1.280 . S
O201 Mg191 1.984 . S
O202 C189 1.277 . S
O202 Mg193 2.041 . S
O203 C189 1.245 . S
O203 Mg191 1.988 . S
O204 Mg191 2.061 . S
O204 C198 1.247 . S
O205 Mg194 2.106 . S
O205 Mg197 2.238 . S
O205 C198 1.289 . S
C206 O207 1.245 . S
C206 O208 1.274 . S
O207 Mg194 2.079 . S
O207 C206 1.245 . S
O208 Mg193 2.038 . S
O208 C206 1.274 . S
O209 Mg197 2.042 . S
O209 C212 1.241 . S
O210 Mg196 1.984 . S
O210 C212 1.280 . S
O211 Mg197 2.041 . S
O211 C215 1.277 . S
C212 O209 1.241 . S
C212 O210 1.280 . S
O213 Mg196 1.988 . S
O213 C215 1.245 . S
O214 C190 1.247 . S
O214 Mg196 2.061 . S
C215 O211 1.277 . S
C215 O213 1.245 . S
O216 C190 1.289 . S
O216 Mg193 2.238 . S
O216 Mg194 2.106 . S
O217 Mg194 2.079 . S
O217 C199 1.245 . S
O218 Mg197 2.038 . S
O218 C199 1.274 . S
C219 C220 1.369 . S
C219 C221 1.419 . S
C219 H223 0.930 . S
C220 C219 1.369 . S
C220 C229 1.429 . S
C221 C219 1.419 . S
C221 C222 1.363 . S
C221 H224 0.929 . S
C222 C221 1.363 . S
C222 C228 1.428 . S
H223 C219 0.930 . S
H224 C221 0.929 . S
S225 N226 1.613 . S
S225 N227 1.610 . S
N226 S225 1.613 . S
N226 C229 1.350 . S
N227 S225 1.610 . S
N227 C228 1.351 . S
C228 C222 1.428 . S
C228 N227 1.351 . S
C228 C229 1.434 . S
C229 C220 1.429 . S
C229 N226 1.350 . S
C229 C228 1.434 . S
C230 C231 1.369 . S
C230 C232 1.419 . S
C230 H234 0.930 . S
C231 C230 1.369 . S
C231 C240 1.429 . S
C232 C230 1.419 . S
C232 C233 1.363 . S
C232 H235 0.929 . S
C233 C232 1.363 . S
C233 C239 1.428 . S
H234 C230 0.930 . S
H235 C232 0.929 . S
S236 N237 1.613 . S
S236 N238 1.610 . S
N237 S236 1.613 . S
N237 C240 1.350 . S
N238 S236 1.610 . S
N238 C239 1.351 . S
C239 C233 1.428 . S
C239 N238 1.351 . S
C239 C240 1.434 . S
C240 C231 1.429 . S
C240 N237 1.350 . S
C240 C239 1.434 . S
C241 C242 1.369 . S
C241 C243 1.419 . S
C241 H245 0.930 . S
C242 C241 1.369 . S
C242 C251 1.429 . S
C243 C241 1.419 . S
C243 C244 1.363 . S
C243 H246 0.929 . S
C244 C243 1.363 . S
C244 C250 1.428 . S
H245 C241 0.930 . S
H246 C243 0.929 . S
S247 N248 1.613 . S
S247 N249 1.610 . S
N248 S247 1.613 . S
N248 C251 1.350 . S
N249 S247 1.610 . S
N249 C250 1.351 . S
C250 C244 1.428 . S
C250 N249 1.351 . S
C250 C251 1.434 . S
C251 C242 1.429 . S
C251 N248 1.350 . S
C251 C250 1.434 . S
C252 C253 1.369 . S
C252 C254 1.419 . S
C252 H256 0.930 . S
C253 C252 1.369 . S
C253 C262 1.429 . S
C254 C252 1.419 . S
C254 C255 1.363 . S
C254 H257 0.929 . S
C255 C254 1.363 . S
C255 C261 1.428 . S
H256 C252 0.930 . S
H257 C254 0.929 . S
S258 N259 1.613 . S
S258 N260 1.610 . S
N259 S258 1.613 . S
N259 C262 1.350 . S
N260 S258 1.610 . S
N260 C261 1.351 . S
C261 C255 1.428 . S
C261 N260 1.351 . S
C261 C262 1.434 . S
C262 C253 1.429 . S
C262 N259 1.350 . S
C262 C261 1.434 . S
C263 C264 1.369 . S
C263 C265 1.419 . S
C263 H267 0.930 . S
C264 C263 1.369 . S
C264 C273 1.429 . S
C265 C263 1.419 . S
C265 C266 1.363 . S
C265 H268 0.929 . S
C266 C265 1.363 . S
C266 C272 1.428 . S
H267 C263 0.930 . S
H268 C265 0.929 . S
S269 N270 1.613 . S
S269 N271 1.610 . S
N270 S269 1.613 . S
N270 C273 1.350 . S
N271 S269 1.610 . S
N271 C272 1.351 . S
C272 C266 1.428 . S
C272 N271 1.351 . S
C272 C273 1.434 . S
C273 C264 1.429 . S
C273 N270 1.350 . S
C273 C272 1.434 . S
C274 C275 1.369 . S
C274 C276 1.419 . S
C274 H278 0.930 . S
C275 C274 1.369 . S
C275 C284 1.429 . S
C276 C274 1.419 . S
C276 C277 1.363 . S
C276 H279 0.929 . S
C277 C276 1.363 . S
C277 C283 1.428 . S
H278 C274 0.930 . S
H279 C276 0.929 . S
S280 N281 1.613 . S
S280 N282 1.610 . S
N281 S280 1.613 . S
N281 C284 1.350 . S
N282 S280 1.610 . S
N282 C283 1.351 . S
C283 C277 1.428 . S
C283 N282 1.351 . S
C283 C284 1.434 . S
C284 C275 1.429 . S
C284 N281 1.350 . S
C284 C283 1.434 . S
C285 C286 1.369 . S
C285 C287 1.419 . S
C285 H289 0.930 . S
C286 C285 1.369 . S
C286 C295 1.429 . S
C287 C285 1.419 . S
C287 C288 1.363 . S
C287 H290 0.929 . S
C288 C287 1.363 . S
C288 C294 1.428 . S
H289 C285 0.930 . S
H290 C287 0.929 . S
S291 N292 1.613 . S
S291 N293 1.610 . S
N292 S291 1.613 . S
N292 C295 1.350 . S
N293 S291 1.610 . S
N293 C294 1.351 . S
C294 C288 1.428 . S
C294 N293 1.351 . S
C294 C295 1.434 . S
C295 C286 1.429 . S
C295 N292 1.350 . S
C295 C294 1.434 . S
C296 C297 1.369 . S
C296 C298 1.419 . S
C296 H300 0.930 . S
C297 C296 1.369 . S
C297 C306 1.429 . S
C298 C296 1.419 . S
C298 C299 1.363 . S
C298 H301 0.929 . S
C299 C298 1.363 . S
C299 C305 1.428 . S
H300 C296 0.930 . S
H301 C298 0.929 . S
S302 N303 1.613 . S
S302 N304 1.610 . S
N303 S302 1.613 . S
N303 C306 1.350 . S
N304 S302 1.610 . S
N304 C305 1.351 . S
C305 C299 1.428 . S
C305 N304 1.351 . S
C305 C306 1.434 . S
C306 C297 1.429 . S
C306 N303 1.350 . S
C306 C305 1.434 . S
C307 C308 1.369 . S
C307 C309 1.419 . S
C307 H311 0.930 . S
C308 C307 1.369 . S
C308 C317 1.429 . S
C309 C307 1.419 . S
C309 C310 1.363 . S
C309 H312 0.929 . S
C310 C309 1.363 . S
C310 C316 1.428 . S
H311 C307 0.930 . S
H312 C309 0.929 . S
S313 N314 1.613 . S
S313 N315 1.610 1_554 S
N314 S313 1.613 . S
N314 C317 1.350 1_554 S
N315 S313 1.610 1_556 S
N315 C316 1.351 . S
C316 C310 1.428 . S
C316 N315 1.351 . S
C316 C317 1.434 . S
C317 C308 1.429 . S
C317 N314 1.350 1_556 S
C317 C316 1.434 . S
C318 C319 1.369 1_556 S
C318 C320 1.419 . S
C318 H322 0.930 . S
C319 C318 1.369 1_554 S
C319 C328 1.429 . S
C320 C318 1.419 . S
C320 C321 1.363 . S
C320 H323 0.929 . S
C321 C320 1.363 . S
C321 C327 1.428 1_556 S
H322 C318 0.930 . S
H323 C320 0.929 . S
S324 N325 1.613 . S
S324 N326 1.610 . S
N325 S324 1.613 . S
N325 C328 1.350 . S
N326 S324 1.610 . S
N326 C327 1.351 . S
C327 C321 1.428 1_554 S
C327 N326 1.351 . S
C327 C328 1.434 . S
C328 C319 1.429 . S
C328 N325 1.350 . S
C328 C327 1.434 . S
C329 C330 1.369 . S
C329 C331 1.419 1_554 S
C329 H333 0.930 . S
C330 C329 1.369 . S
C330 C339 1.429 1_554 S
C331 C329 1.419 1_556 S
C331 C332 1.363 . S
C331 H334 0.929 1_556 S
C332 C331 1.363 . S
C332 C338 1.428 . S
H333 C329 0.930 . S
H334 C331 0.929 1_554 S
S335 N336 1.613 . S
S335 N337 1.610 . S
N336 S335 1.613 . S
N336 C339 1.350 . S
N337 S335 1.610 . S
N337 C338 1.351 . S
C338 C332 1.428 . S
C338 N337 1.351 . S
C338 C339 1.434 . S
C339 C330 1.429 1_556 S
C339 N336 1.350 . S
C339 C338 1.434 . S
C340 C341 1.369 . S
C340 C342 1.419 . S
C340 H344 0.930 . S
C341 C340 1.369 . S
C341 C350 1.429 1_554 S
C342 C340 1.419 . S
C342 C343 1.363 1_554 S
C342 H345 0.929 . S
C343 C342 1.363 1_556 S
C343 C349 1.428 . S
H344 C340 0.930 . S
H345 C342 0.929 . S
S346 N347 1.613 . S
S346 N348 1.610 . S
N347 S346 1.613 . S
N347 C350 1.350 . S
N348 S346 1.610 . S
N348 C349 1.351 . S
C349 C343 1.428 . S
C349 N348 1.351 . S
C349 C350 1.434 . S
C350 C341 1.429 1_556 S
C350 N347 1.350 . S
C350 C349 1.434 . S
C351 C352 1.369 . S
C351 C353 1.419 . S
C351 H355 0.930 . S
C352 C351 1.369 . S
C352 C361 1.429 . S
C353 C351 1.419 . S
C353 C354 1.363 . S
C353 H356 0.929 . S
C354 C353 1.363 . S
C354 C360 1.428 . S
H355 C351 0.930 . S
H356 C353 0.929 . S
S357 N358 1.613 . S
S357 N359 1.610 . S
N358 S357 1.613 . S
N358 C361 1.350 . S
N359 S357 1.610 . S
N359 C360 1.351 . S
C360 C354 1.428 . S
C360 N359 1.351 . S
C360 C361 1.434 . S
C361 C352 1.429 . S
C361 N358 1.350 . S
C361 C360 1.434 . S
C362 C363 1.369 . S
C362 C364 1.419 . S
C362 H366 0.930 1_556 S
C363 C362 1.369 . S
C363 C372 1.429 . S
C364 C362 1.419 . S
C364 C365 1.363 . S
C364 H367 0.929 . S
C365 C364 1.363 . S
C365 C371 1.428 . S
H366 C362 0.930 1_554 S
H367 C364 0.929 . S
S368 N369 1.613 . S
S368 N370 1.610 . S
N369 S368 1.613 . S
N369 C372 1.350 . S
N370 S368 1.610 . S
N370 C371 1.351 . S
C371 C365 1.428 . S
C371 N370 1.351 . S
C371 C372 1.434 . S
C372 C363 1.429 . S
C372 N369 1.350 . S
C372 C371 1.434 . S
C373 C374 1.369 . S
C373 C375 1.419 . S
C373 H377 0.930 . S
C374 C373 1.369 . S
C374 C383 1.429 1_554 S
C375 C373 1.419 . S
C375 C376 1.363 1_554 S
C375 H378 0.929 . S
C376 C375 1.363 1_556 S
C376 C382 1.428 . S
H377 C373 0.930 . S
H378 C375 0.929 . S
S379 N380 1.613 . S
S379 N381 1.610 . S
N380 S379 1.613 . S
N380 C383 1.350 . S
N381 S379 1.610 . S
N381 C382 1.351 . S
C382 C376 1.428 . S
C382 N381 1.351 . S
C382 C383 1.434 . S
C383 C374 1.429 1_556 S
C383 N380 1.350 . S
C383 C382 1.434 . S
C384 C385 1.369 1_556 S
C384 C386 1.419 . S
C384 H388 0.930 . S
C385 C384 1.369 1_554 S
C385 C394 1.429 . S
C386 C384 1.419 . S
C386 C387 1.363 . S
C386 H389 0.929 . S
C387 C386 1.363 . S
C387 C393 1.428 . S
H388 C384 0.930 . S
H389 C386 0.929 . S
S390 N391 1.613 . S
S390 N392 1.610 1_554 S
N391 S390 1.613 . S
N391 C394 1.350 . S
N392 S390 1.610 1_556 S
N392 C393 1.351 . S
C393 C387 1.428 . S
C393 N392 1.351 . S
C393 C394 1.434 1_556 S
C394 C385 1.429 . S
C394 N391 1.350 . S
C394 C393 1.434 1_554 S
C395 C396 1.369 . S
C395 C397 1.419 . S
C395 H399 0.930 1_556 S
C396 C395 1.369 . S
C396 C405 1.429 . S
C397 C395 1.419 . S
C397 C398 1.363 . S
C397 H400 0.929 . S
C398 C397 1.363 . S
C398 C404 1.428 . S
H399 C395 0.930 1_554 S
H400 C397 0.929 . S
S401 N402 1.613 . S
S401 N403 1.610 . S
N402 S401 1.613 . S
N402 C405 1.350 . S
N403 S401 1.610 . S
N403 C404 1.351 . S
C404 C398 1.428 . S
C404 N403 1.351 . S
C404 C405 1.434 . S
C405 C396 1.429 . S
C405 N402 1.350 . S
C405 C404 1.434 . S
C406 C407 1.369 . S
C406 C408 1.419 . S
C406 H410 0.930 . S
C407 C406 1.369 . S
C407 C416 1.429 . S
C408 C406 1.419 . S
C408 C409 1.363 . S
C408 H411 0.929 . S
C409 C408 1.363 . S
C409 C415 1.428 . S
H410 C406 0.930 . S
H411 C408 0.929 . S
S412 N413 1.613 . S
S412 N414 1.610 . S
N413 S412 1.613 . S
N413 C416 1.350 . S
N414 S412 1.610 . S
N414 C415 1.351 . S
C415 C409 1.428 . S
C415 N414 1.351 . S
C415 C416 1.434 . S
C416 C407 1.429 . S
C416 N413 1.350 . S
C416 C415 1.434 . S
C417 C418 1.369 . S
C417 C419 1.419 . S
C417 H421 0.930 . S
C418 C417 1.369 . S
C418 C427 1.429 . S
C419 C417 1.419 . S
C419 C420 1.363 . S
C419 H422 0.929 . S
C420 C419 1.363 . S
C420 C426 1.428 . S
H421 C417 0.930 . S
H422 C419 0.929 . S
S423 N424 1.613 . S
S423 N425 1.610 . S
N424 S423 1.613 . S
N424 C427 1.350 . S
N425 S423 1.610 . S
N425 C426 1.351 . S
C426 C420 1.428 . S
C426 N425 1.351 . S
C426 C427 1.434 . S
C427 C418 1.429 . S
C427 N424 1.350 . S
C427 C426 1.434 . S
C428 C429 1.369 . S
C428 C430 1.419 . S
C428 H432 0.930 . S
C429 C428 1.369 . S
C429 C438 1.429 . S
C430 C428 1.419 . S
C430 C431 1.363 . S
C430 H433 0.929 . S
C431 C430 1.363 . S
C431 C437 1.428 . S
H432 C428 0.930 . S
H433 C430 0.929 . S
S434 N435 1.613 . S
S434 N436 1.610 . S
N435 S434 1.613 . S
N435 C438 1.350 . S
N436 S434 1.610 . S
N436 C437 1.351 . S
C437 C431 1.428 . S
C437 N436 1.351 . S
C437 C438 1.434 . S
C438 C429 1.429 . S
C438 N435 1.350 . S
C438 C437 1.434 . S
C439 C440 1.369 . S
C439 C441 1.419 . S
C439 H443 0.930 . S
C440 C439 1.369 . S
C440 C449 1.429 . S
C441 C439 1.419 . S
C441 C442 1.363 . S
C441 H444 0.929 . S
C442 C441 1.363 . S
C442 C448 1.428 . S
H443 C439 0.930 . S
H444 C441 0.929 . S
S445 N446 1.613 . S
S445 N447 1.610 . S
N446 S445 1.613 . S
N446 C449 1.350 . S
N447 S445 1.610 . S
N447 C448 1.351 . S
C448 C442 1.428 . S
C448 N447 1.351 . S
C448 C449 1.434 . S
C449 C440 1.429 . S
C449 N446 1.350 . S
C449 C448 1.434 . S
C450 C451 1.369 . S
C450 C452 1.419 . S
C450 H454 0.930 . S
C451 C450 1.369 . S
C451 C460 1.429 . S
C452 C450 1.419 . S
C452 C453 1.363 . S
C452 H455 0.929 . S
C453 C452 1.363 . S
C453 C459 1.428 . S
H454 C450 0.930 . S
H455 C452 0.929 . S
S456 N457 1.613 . S
S456 N458 1.610 . S
N457 S456 1.613 . S
N457 C460 1.350 . S
N458 S456 1.610 . S
N458 C459 1.351 . S
C459 C453 1.428 . S
C459 N458 1.351 . S
C459 C460 1.434 . S
C460 C451 1.429 . S
C460 N457 1.350 . S
C460 C459 1.434 . S
C461 C462 1.369 . S
C461 C463 1.419 . S
C461 H465 0.930 . S
C462 C461 1.369 . S
C462 C471 1.429 . S
C463 C461 1.419 . S
C463 C464 1.363 . S
C463 H466 0.929 . S
C464 C463 1.363 . S
C464 C470 1.428 . S
H465 C461 0.930 . S
H466 C463 0.929 . S
S467 N468 1.613 . S
S467 N469 1.610 . S
N468 S467 1.613 . S
N468 C471 1.350 . S
N469 S467 1.610 . S
N469 C470 1.351 . S
C470 C464 1.428 . S
C470 N469 1.351 . S
C470 C471 1.434 . S
C471 C462 1.429 . S
C471 N468 1.350 . S
C471 C470 1.434 . S
C472 C473 1.369 . S
C472 C474 1.419 . S
C472 H476 0.930 . S
C473 C472 1.369 . S
C473 C482 1.429 . S
C474 C472 1.419 . S
C474 C475 1.363 . S
C474 H477 0.929 . S
C475 C474 1.363 . S
C475 C481 1.428 . S
H476 C472 0.930 . S
H477 C474 0.929 . S
S478 N479 1.613 . S
S478 N480 1.610 . S
N479 S478 1.613 . S
N479 C482 1.350 . S
N480 S478 1.610 . S
N480 C481 1.351 . S
C481 C475 1.428 . S
C481 N480 1.351 . S
C481 C482 1.434 . S
C482 C473 1.429 . S
C482 N479 1.350 . S
C482 C481 1.434 . S
C220 C12 1.735 . S
C222 C137 1.856 . S
C231 C40 1.547 . S
C233 C184 1.561 . S
C244 C188 1.705 . S
C242 C61 1.752 . S
C255 C153 1.457 . S
C253 C82 1.488 . S
C264 C96 1.699 . S
C266 C168 1.760 . S
C277 C190 1.246 . S
C275 C117 1.139 . S
C288 C159 1.603 . S
C286 C51 1.600 . S
C297 C72 1.488 . S
C299 C199 1.483 . S
C310 C128 1.494 . S
C308 C101 1.426 1_556 S
C319 C122 1.358 . S
C321 C157 1.413 . S
C330 C17 1.781 . S
C332 C215 1.808 . S
C343 C126 1.489 . S
C341 C30 1.489 . S
C354 C144 1.833 . S
C352 C80 1.840 . S
C365 C158 1.561 . S
C363 C93 1.493 1_556 S
C376 C212 1.702 . S
C374 C114 1.681 . S
C387 C127 1.455 . S
C385 C9 1.442 . S
C398 C175 1.739 . S
C396 C38 1.808 1_556 S
C407 C59 1.198 . S
C409 C198 1.237 . S
C420 C167 1.579 . S
C418 C124 1.513 . S
C431 C206 1.444 . S
C429 C19 1.373 . S
C442 C136 1.461 . S
C440 C33 1.504 . S
C453 C181 1.389 . S
C451 C54 1.394 . S
C462 C75 1.802 . S
C464 C189 1.792 . S
C473 C103 1.406 . S
C475 C150 1.468 . S
