# Generated by pormake.
# Topology ctn, (3,4)-cn, num edge types: 1
# Building blocks:
#     Node 0, Type 0, BuildingBlock: VETTIZ_charged_linker_0, # of connection points: 3
#     Node 1, Type 0, BuildingBlock: VETTIZ_charged_linker_0, # of connection points: 3
#     Node 2, Type 0, BuildingBlock: VETTIZ_charged_linker_0, # of connection points: 3
#     Node 3, Type 0, BuildingBlock: VETTIZ_charged_linker_0, # of connection points: 3
#     Node 4, Type 0, BuildingBlock: VETTIZ_charged_linker_0, # of connection points: 3
#     Node 5, Type 0, BuildingBlock: VETTIZ_charged_linker_0, # of connection points: 3
#     Node 6, Type 0, BuildingBlock: VETTIZ_charged_linker_0, # of connection points: 3
#     Node 7, Type 0, BuildingBlock: VETTIZ_charged_linker_0, # of connection points: 3
#     Node 8, Type 0, BuildingBlock: VETTIZ_charged_linker_0, # of connection points: 3
#     Node 9, Type 0, BuildingBlock: VETTIZ_charged_linker_0, # of connection points: 3
#     Node 10, Type 0, BuildingBlock: VETTIZ_charged_linker_0, # of connection points: 3
#     Node 11, Type 0, BuildingBlock: VETTIZ_charged_linker_0, # of connection points: 3
#     Node 12, Type 0, BuildingBlock: VETTIZ_charged_linker_0, # of connection points: 3
#     Node 13, Type 0, BuildingBlock: VETTIZ_charged_linker_0, # of connection points: 3
#     Node 14, Type 0, BuildingBlock: VETTIZ_charged_linker_0, # of connection points: 3
#     Node 15, Type 0, BuildingBlock: VETTIZ_charged_linker_0, # of connection points: 3
#     Node 16, Type 1, BuildingBlock: AZAVOO_clean_sbu_0, # of connection points: 4
#     Node 17, Type 1, BuildingBlock: AZAVOO_clean_sbu_0, # of connection points: 4
#     Node 18, Type 1, BuildingBlock: AZAVOO_clean_sbu_0, # of connection points: 4
#     Node 19, Type 1, BuildingBlock: AZAVOO_clean_sbu_0, # of connection points: 4
#     Node 20, Type 1, BuildingBlock: AZAVOO_clean_sbu_0, # of connection points: 4
#     Node 21, Type 1, BuildingBlock: AZAVOO_clean_sbu_0, # of connection points: 4
#     Node 22, Type 1, BuildingBlock: AZAVOO_clean_sbu_0, # of connection points: 4
#     Node 23, Type 1, BuildingBlock: AZAVOO_clean_sbu_0, # of connection points: 4
#     Node 24, Type 1, BuildingBlock: AZAVOO_clean_sbu_0, # of connection points: 4
#     Node 25, Type 1, BuildingBlock: AZAVOO_clean_sbu_0, # of connection points: 4
#     Node 26, Type 1, BuildingBlock: AZAVOO_clean_sbu_0, # of connection points: 4
#     Node 27, Type 1, BuildingBlock: AZAVOO_clean_sbu_0, # of connection points: 4
#     Edge 28, Type (0, 1), BuildingBlock: OJICUG_clean_linker_0, # of connection points: 2
#     Edge 29, Type (0, 1), BuildingBlock: OJICUG_clean_linker_0, # of connection points: 2
#     Edge 30, Type (0, 1), BuildingBlock: OJICUG_clean_linker_0, # of connection points: 2
#     Edge 31, Type (0, 1), BuildingBlock: OJICUG_clean_linker_0, # of connection points: 2
#     Edge 32, Type (0, 1), BuildingBlock: OJICUG_clean_linker_0, # of connection points: 2
#     Edge 33, Type (0, 1), BuildingBlock: OJICUG_clean_linker_0, # of connection points: 2
#     Edge 34, Type (0, 1), BuildingBlock: OJICUG_clean_linker_0, # of connection points: 2
#     Edge 35, Type (0, 1), BuildingBlock: OJICUG_clean_linker_0, # of connection points: 2
#     Edge 36, Type (0, 1), BuildingBlock: OJICUG_clean_linker_0, # of connection points: 2
#     Edge 37, Type (0, 1), BuildingBlock: OJICUG_clean_linker_0, # of connection points: 2
#     Edge 38, Type (0, 1), BuildingBlock: OJICUG_clean_linker_0, # of connection points: 2
#     Edge 39, Type (0, 1), BuildingBlock: OJICUG_clean_linker_0, # of connection points: 2
#     Edge 40, Type (0, 1), BuildingBlock: OJICUG_clean_linker_0, # of connection points: 2
#     Edge 41, Type (0, 1), BuildingBlock: OJICUG_clean_linker_0, # of connection points: 2
#     Edge 42, Type (0, 1), BuildingBlock: OJICUG_clean_linker_0, # of connection points: 2
#     Edge 43, Type (0, 1), BuildingBlock: OJICUG_clean_linker_0, # of connection points: 2
#     Edge 44, Type (0, 1), BuildingBlock: OJICUG_clean_linker_0, # of connection points: 2
#     Edge 45, Type (0, 1), BuildingBlock: OJICUG_clean_linker_0, # of connection points: 2
#     Edge 46, Type (0, 1), BuildingBlock: OJICUG_clean_linker_0, # of connection points: 2
#     Edge 47, Type (0, 1), BuildingBlock: OJICUG_clean_linker_0, # of connection points: 2
#     Edge 48, Type (0, 1), BuildingBlock: OJICUG_clean_linker_0, # of connection points: 2
#     Edge 49, Type (0, 1), BuildingBlock: OJICUG_clean_linker_0, # of connection points: 2
#     Edge 50, Type (0, 1), BuildingBlock: OJICUG_clean_linker_0, # of connection points: 2
#     Edge 51, Type (0, 1), BuildingBlock: OJICUG_clean_linker_0, # of connection points: 2
#     Edge 52, Type (0, 1), BuildingBlock: OJICUG_clean_linker_0, # of connection points: 2
#     Edge 53, Type (0, 1), BuildingBlock: OJICUG_clean_linker_0, # of connection points: 2
#     Edge 54, Type (0, 1), BuildingBlock: OJICUG_clean_linker_0, # of connection points: 2
#     Edge 55, Type (0, 1), BuildingBlock: OJICUG_clean_linker_0, # of connection points: 2
#     Edge 56, Type (0, 1), BuildingBlock: OJICUG_clean_linker_0, # of connection points: 2
#     Edge 57, Type (0, 1), BuildingBlock: OJICUG_clean_linker_0, # of connection points: 2
#     Edge 58, Type (0, 1), BuildingBlock: OJICUG_clean_linker_0, # of connection points: 2
#     Edge 59, Type (0, 1), BuildingBlock: OJICUG_clean_linker_0, # of connection points: 2
#     Edge 60, Type (0, 1), BuildingBlock: OJICUG_clean_linker_0, # of connection points: 2
#     Edge 61, Type (0, 1), BuildingBlock: OJICUG_clean_linker_0, # of connection points: 2
#     Edge 62, Type (0, 1), BuildingBlock: OJICUG_clean_linker_0, # of connection points: 2
#     Edge 63, Type (0, 1), BuildingBlock: OJICUG_clean_linker_0, # of connection points: 2
#     Edge 64, Type (0, 1), BuildingBlock: OJICUG_clean_linker_0, # of connection points: 2
#     Edge 65, Type (0, 1), BuildingBlock: OJICUG_clean_linker_0, # of connection points: 2
#     Edge 66, Type (0, 1), BuildingBlock: OJICUG_clean_linker_0, # of connection points: 2
#     Edge 67, Type (0, 1), BuildingBlock: OJICUG_clean_linker_0, # of connection points: 2
#     Edge 68, Type (0, 1), BuildingBlock: OJICUG_clean_linker_0, # of connection points: 2
#     Edge 69, Type (0, 1), BuildingBlock: OJICUG_clean_linker_0, # of connection points: 2
#     Edge 70, Type (0, 1), BuildingBlock: OJICUG_clean_linker_0, # of connection points: 2
#     Edge 71, Type (0, 1), BuildingBlock: OJICUG_clean_linker_0, # of connection points: 2
#     Edge 72, Type (0, 1), BuildingBlock: OJICUG_clean_linker_0, # of connection points: 2
#     Edge 73, Type (0, 1), BuildingBlock: OJICUG_clean_linker_0, # of connection points: 2
#     Edge 74, Type (0, 1), BuildingBlock: OJICUG_clean_linker_0, # of connection points: 2
#     Edge 75, Type (0, 1), BuildingBlock: OJICUG_clean_linker_0, # of connection points: 2
# Relax obj value: 0.002
# Max RMSD: 0.042
# Mean RMSD: 0.024
data_MOF--net-ctn--node1-AZAVOO_clean_sbu_0--node2-VETTIZ_charged_linker_0--edge1-OJICUG_clean_linker_0
_symmetry_space_group_name_H-M    P1
_symmetry_Int_Tables_number       1
_symmetry_cell_setting            triclinic
loop_
_symmetry_equiv_pos_as_xyz
'x, y, z'
_cell_length_a     51.315717
_cell_length_b     52.193203
_cell_length_c     52.200672
_cell_angle_alpha  90.04857
_cell_angle_beta   92.9816
_cell_angle_gamma 93.167015
loop_
_atom_site_label
_atom_site_type_symbol
_atom_site_fract_x
_atom_site_fract_y
_atom_site_fract_z
_atom_type_partial_charge
C0 C 0.04341 0.09747 0.95298 0.0
C1 C 0.0221 0.1133 0.95403 0.0
C2 C 0.00052 0.10493 0.96811 0.0
C3 C 0.02342 0.06812 0.98319 0.0
C4 C 0.04362 0.07495 0.96764 0.0
C5 C 0.06527 0.05656 0.97012 0.0
H6 H 0.12236 0.96241 0.03808 0.0
C7 C 0.03123 0.0462 0.99906 0.0
C8 C 0.05566 0.03913 0.99141 0.0
H9 H 0.14722 0.99691 0.96753 0.0
H10 H 0.10912 0.02248 0.96546 0.0
H11 H 0.10586 0.01194 0.06385 0.0
H12 H 0.06001 0.95466 0.01938 0.0
H13 H 0.04356 0.9614 0.04727 0.0
H14 H 0.07552 0.94887 0.05033 0.0
H15 H 0.09393 0.98257 0.07799 0.0
H16 H 0.07474 0.01058 0.07631 0.0
C17 C 0.09104 0.07187 0.97837 0.0
C18 C 0.06625 0.04194 0.94435 0.0
C19 C 0.97881 0.02234 0.07604 0.0
C20 C 0.98486 0.00892 0.0988 0.0
C21 C 0.00753 0.99466 0.10001 0.0
C22 C 0.02424 0.99474 0.07956 0.0
C23 C 0.01869 0.00966 0.05777 0.0
C24 C 0.99623 0.02309 0.05629 0.0
C25 C 0.99486 0.04026 0.0332 0.0
C26 C 0.02024 0.03485 0.02102 0.0
C27 C 0.03383 0.01654 0.03519 0.0
C28 C 0.99422 0.06854 0.04259 0.0
C29 C 0.97087 0.03094 0.01579 0.0
C30 C 0.11969 0.97562 0.02227 0.0
C31 C 0.13791 0.97792 0.00309 0.0
C32 C 0.13343 0.99486 0.98252 0.0
C33 C 0.11137 0.00966 0.98137 0.0
C34 C 0.09354 0.0074 0.00093 0.0
C35 C 0.09764 0.99025 0.02069 0.0
C36 C 0.07619 0.98965 0.03928 0.0
C37 C 0.05819 0.0088 0.02707 0.0
C38 C 0.06873 0.01957 0.00494 0.0
C39 C 0.08813 0.99897 0.06582 0.0
C40 C 0.06309 0.96221 0.03931 0.0
H41 H 0.98441 0.07754 0.99357 0.0
H42 H 0.06019 0.10316 0.94215 0.0
H43 H 0.04711 0.04154 0.93326 0.0
H44 H 0.07029 0.02149 0.94718 0.0
H45 H 0.08112 0.05106 0.93203 0.0
H46 H 0.08788 0.08503 0.99455 0.0
H47 H 0.09837 0.08363 0.96226 0.0
H48 H 0.1067 0.05952 0.98516 0.0
H49 H 0.96145 0.03317 0.0739 0.0
H50 H 0.01318 0.98434 0.1172 0.0
H51 H 0.04138 0.98392 0.08193 0.0
H52 H 0.00096 0.07082 0.06311 0.0
H53 H 0.97416 0.07553 0.04061 0.0
H54 H 0.00761 0.08181 0.03236 0.0
H55 H 0.96943 0.00962 0.0145 0.0
H56 H 0.97207 0.03774 0.99582 0.0
H57 H 0.95247 0.03717 0.02354 0.0
H58 H 0.98346 0.11621 0.96854 0.0
C59 C 0.00106 0.08245 0.98263 0.0
C60 C 0.24783 0.65363 0.24595 0.0
C61 C 0.22852 0.64579 0.22713 0.0
C62 C 0.22659 0.65917 0.20382 0.0
C63 C 0.26329 0.68778 0.21816 0.0
C64 C 0.2652 0.6744 0.24093 0.0
C65 C 0.28832 0.68388 0.2579 0.0
H66 H 0.40095 0.75681 0.27185 0.0
C67 C 0.28485 0.70773 0.21864 0.0
C68 C 0.29974 0.70546 0.2417 0.0
H69 H 0.36706 0.70273 0.32542 0.0
H70 H 0.32901 0.69617 0.29731 0.0
H71 H 0.34708 0.78512 0.26327 0.0
H72 H 0.38122 0.72837 0.21722 0.0
H73 H 0.37171 0.75466 0.19812 0.0
H74 H 0.39603 0.75987 0.22382 0.0
H75 H 0.37221 0.79384 0.24177 0.0
H76 H 0.3381 0.7913 0.23106 0.0
C77 C 0.27815 0.69399 0.28326 0.0
C78 C 0.30693 0.66156 0.26129 0.0
C79 C 0.29162 0.76858 0.14391 0.0
C80 C 0.30837 0.78983 0.13875 0.0
C81 C 0.32904 0.79705 0.15656 0.0
C82 C 0.33316 0.78276 0.17913 0.0
C83 C 0.31614 0.7614 0.18395 0.0
C84 C 0.29564 0.75491 0.16652 0.0
C85 C 0.27866 0.73256 0.17499 0.0
C86 C 0.29204 0.72678 0.20065 0.0
C87 C 0.31423 0.74337 0.20572 0.0
C88 C 0.25074 0.74178 0.17788 0.0
C89 C 0.28034 0.71035 0.15543 0.0
C90 C 0.38538 0.74356 0.27759 0.0
C91 C 0.38779 0.72949 0.3006 0.0
C92 C 0.36657 0.71291 0.30736 0.0
C93 C 0.34422 0.70925 0.29108 0.0
C94 C 0.34267 0.72245 0.26775 0.0
C95 C 0.36256 0.73994 0.26165 0.0
C96 C 0.3561 0.75387 0.23701 0.0
C97 C 0.32997 0.74044 0.22863 0.0
C98 C 0.32243 0.72188 0.24666 0.0
C99 C 0.35336 0.78258 0.24339 0.0
C100 C 0.37738 0.74912 0.21793 0.0
H101 H 0.24131 0.68974 0.18117 0.0
H102 H 0.24995 0.64322 0.26383 0.0
H103 H 0.30775 0.65069 0.24303 0.0
H104 H 0.32736 0.66801 0.26632 0.0
H105 H 0.30012 0.64784 0.2761 0.0
H106 H 0.25851 0.70181 0.28002 0.0
H107 H 0.27641 0.67847 0.29772 0.0
H108 H 0.29058 0.71021 0.29158 0.0
H109 H 0.27527 0.76295 0.13073 0.0
H110 H 0.34208 0.81352 0.15287 0.0
H111 H 0.34937 0.78882 0.19194 0.0
H112 H 0.25156 0.76151 0.18608 0.0
H113 H 0.23973 0.7422 0.15901 0.0
H114 H 0.23926 0.72995 0.19123 0.0
H115 H 0.2994 0.71141 0.14614 0.0
H116 H 0.27937 0.69122 0.16454 0.0
H117 H 0.26468 0.71098 0.13997 0.0
H118 H 0.21183 0.6532 0.1891 0.0
C119 C 0.24375 0.68029 0.1993 0.0
C120 C 0.99404 0.40695 0.99039 0.0
C121 C 0.97584 0.39884 0.97065 0.0
C122 C 0.95248 0.41168 0.96704 0.0
C123 C 0.96535 0.43958 0.00329 0.0
C124 C 0.98829 0.427 0.00656 0.0
C125 C 0.00459 0.4362 0.02981 0.0
H126 H 0.02193 0.51304 0.13421 0.0
C127 C 0.96482 0.45846 0.02443 0.0
C128 C 0.98764 0.45632 0.04012 0.0
H129 H 0.07295 0.45691 0.10689 0.0
H130 H 0.04243 0.44629 0.0716 0.0
H131 H 0.96766 0.47831 0.12345 0.0
H132 H 0.00701 0.53613 0.07834 0.0
H133 H 0.97344 0.5414 0.07618 0.0
H134 H 0.99103 0.54366 0.10697 0.0
H135 H 0.96828 0.5118 0.13144 0.0
H136 H 0.94371 0.49726 0.10917 0.0
C137 C 0.00736 0.41326 0.04849 0.0
C138 C 0.0308 0.44821 0.02064 0.0
C139 C 0.88901 0.51692 0.02866 0.0
C140 C 0.88275 0.53545 0.04658 0.0
C141 C 0.89975 0.54035 0.06833 0.0
C142 C 0.92268 0.52717 0.07216 0.0
C143 C 0.92872 0.50873 0.05411 0.0
C144 C 0.91191 0.5037 0.03289 0.0
C145 C 0.92098 0.48266 0.01634 0.0
C146 C 0.94635 0.47646 0.03072 0.0
C147 C 0.95082 0.49184 0.05282 0.0
C148 C 0.90035 0.4598 0.01634 0.0
C149 C 0.92579 0.49386 0.98945 0.0
C150 C 0.02627 0.49829 0.12071 0.0
C151 C 0.04994 0.48589 0.12322 0.0
C152 C 0.05502 0.46696 0.10517 0.0
C153 C 0.03721 0.46077 0.08467 0.0
C154 C 0.01391 0.47361 0.08202 0.0
C155 C 0.00863 0.49195 0.09986 0.0
C156 C 0.98297 0.50381 0.09341 0.0
C157 C 0.97385 0.48947 0.06885 0.0
C158 C 0.99211 0.47183 0.06241 0.0
C159 C 0.9646 0.49775 0.11549 0.0
C160 C 0.98866 0.53282 0.0886 0.0
H161 H 0.92906 0.44109 0.97956 0.0
H162 H 0.01185 0.39703 0.99403 0.0
H163 H 0.02779 0.45823 0.00199 0.0
H164 H 0.03982 0.46313 0.03381 0.0
H165 H 0.045 0.43327 0.01788 0.0
H166 H 0.98982 0.39971 0.0468 0.0
H167 H 0.02461 0.40226 0.04442 0.0
H168 H 0.00871 0.41914 0.06888 0.0
H169 H 0.87612 0.51249 0.01196 0.0
H170 H 0.89545 0.55469 0.08229 0.0
H171 H 0.93482 0.53187 0.08904 0.0
H172 H 0.89004 0.459 0.03458 0.0
H173 H 0.88534 0.46139 0.00039 0.0
H174 H 0.90914 0.44101 0.01514 0.0
H175 H 0.93624 0.51309 0.99113 0.0
H176 H 0.93823 0.48207 0.97814 0.0
H177 H 0.90702 0.49612 0.97832 0.0
H178 H 0.93815 0.40563 0.95196 0.0
C179 C 0.94723 0.43215 0.98313 0.0
C180 C 0.6601 0.82897 0.27972 0.0
C181 C 0.64103 0.80873 0.28162 0.0
C182 C 0.6402 0.78841 0.26372 0.0
C183 C 0.67784 0.80785 0.24352 0.0
C184 C 0.67822 0.82814 0.2606 0.0
C185 C 0.7001 0.8478 0.25626 0.0
H186 H 0.81123 0.87995 0.19721 0.0
C187 C 0.7001 0.81214 0.22691 0.0
C188 C 0.71319 0.83559 0.23424 0.0
H189 H 0.77237 0.92555 0.25152 0.0
H190 H 0.73774 0.89262 0.25315 0.0
H191 H 0.76136 0.86877 0.1629 0.0
H192 H 0.79935 0.82427 0.22134 0.0
H193 H 0.79064 0.80374 0.19512 0.0
H194 H 0.81243 0.83144 0.19074 0.0
H195 H 0.78776 0.84926 0.15589 0.0
H196 H 0.75416 0.83678 0.15359 0.0
C197 C 0.68804 0.87337 0.24828 0.0
C198 C 0.71819 0.84968 0.28094 0.0
C199 C 0.71797 0.74596 0.159 0.0
C200 C 0.73711 0.74548 0.14076 0.0
C201 C 0.75674 0.76534 0.1404 0.0
C202 C 0.75729 0.78567 0.15786 0.0
C203 C 0.73783 0.78632 0.17575 0.0
C204 C 0.7186 0.76671 0.1762 0.0
C205 C 0.69921 0.77125 0.1962 0.0
C206 C 0.70979 0.79697 0.20726 0.0
C207 C 0.73253 0.80547 0.19532 0.0
C208 C 0.67187 0.7731 0.1825 0.0
C209 C 0.70097 0.74943 0.21621 0.0
C210 C 0.79521 0.88328 0.20924 0.0
C211 C 0.79504 0.90556 0.22446 0.0
C212 C 0.77363 0.90844 0.24003 0.0
C213 C 0.75331 0.88935 0.24081 0.0
C214 C 0.75409 0.86718 0.22565 0.0
C215 C 0.77453 0.86477 0.20981 0.0
C216 C 0.77129 0.84095 0.19356 0.0
C217 C 0.7459 0.82899 0.20284 0.0
C218 C 0.73608 0.84419 0.2219 0.0
C219 C 0.76866 0.84916 0.16498 0.0
C220 C 0.79465 0.82414 0.20028 0.0
H221 H 0.65699 0.7717 0.23192 0.0
H222 H 0.66104 0.84501 0.29298 0.0
H223 H 0.72194 0.8302 0.28843 0.0
H224 H 0.73759 0.85893 0.27785 0.0
H225 H 0.70908 0.86041 0.29621 0.0
H226 H 0.66851 0.8699 0.2382 0.0
H227 H 0.68547 0.88565 0.26526 0.0
H228 H 0.69978 0.88433 0.2344 0.0
H229 H 0.70257 0.73092 0.15939 0.0
H230 H 0.7716 0.76514 0.1264 0.0
H231 H 0.77277 0.80018 0.15658 0.0
H232 H 0.67342 0.78252 0.16348 0.0
H233 H 0.66209 0.75376 0.17923 0.0
H234 H 0.65891 0.78507 0.19305 0.0
H235 H 0.72157 0.74422 0.21982 0.0
H236 H 0.69448 0.75488 0.23518 0.0
H237 H 0.68942 0.73189 0.20936 0.0
H238 H 0.62591 0.77244 0.26491 0.0
C239 C 0.65846 0.78787 0.24471 0.0
C240 C 0.04085 0.90516 0.53398 0.0
C241 C 0.01972 0.88693 0.53043 0.0
C242 C 0.99989 0.89124 0.5115 0.0
C243 C 0.02277 0.93082 0.49926 0.0
C244 C 0.04178 0.92708 0.51844 0.0
C245 C 0.06231 0.94889 0.52006 0.0
H246 H 0.10807 0.06362 0.47461 0.0
C247 C 0.02966 0.95511 0.48614 0.0
C248 C 0.0526 0.96608 0.49851 0.0
H249 H 0.14119 0.02042 0.53769 0.0
H250 H 0.10679 0.987 0.53089 0.0
H251 H 0.04898 0.05529 0.48797 0.0
H252 H 0.09654 0.01527 0.43754 0.0
H253 H 0.06589 0.01724 0.42143 0.0
H254 H 0.08487 0.04632 0.43017 0.0
H255 H 0.05815 0.06822 0.45769 0.0
H256 H 0.02912 0.04743 0.46037 0.0
C257 C 0.06149 0.96185 0.54667 0.0
C258 C 0.08897 0.93809 0.51459 0.0
C259 C 0.97842 0.97953 0.4045 0.0
C260 C 0.98085 0.00064 0.38786 0.0
C261 C 0.99894 0.02112 0.39464 0.0
C262 C 0.01518 0.02013 0.41697 0.0
C263 C 0.01339 0.99841 0.4328 0.0
C264 C 0.99474 0.9789 0.42688 0.0
C265 C 0.99511 0.95779 0.44654 0.0
C266 C 0.01799 0.96728 0.46442 0.0
C267 C 0.02869 0.99094 0.4561 0.0
C268 C 0.96884 0.95691 0.46004 0.0
C269 C 0.00068 0.93251 0.43281 0.0
C270 C 0.10779 0.04709 0.48715 0.0
C271 C 0.12718 0.04478 0.5069 0.0
C272 C 0.12648 0.02261 0.52232 0.0
C273 C 0.10641 0.00333 0.51842 0.0
C274 C 0.08693 0.00617 0.49878 0.0
C275 C 0.08805 0.02772 0.48344 0.0
C276 C 0.06636 0.02738 0.46299 0.0
C277 C 0.05154 0.00234 0.46888 0.0
C278 C 0.06359 0.98994 0.48986 0.0
C279 C 0.04977 0.05083 0.46718 0.0
C280 C 0.07884 0.02669 0.43657 0.0
H281 H 0.98584 0.91497 0.48155 0.0
H282 H 0.05622 0.90243 0.54859 0.0
H283 H 0.08661 0.92328 0.49917 0.0
H284 H 0.10312 0.95278 0.50754 0.0
H285 H 0.09774 0.92898 0.53198 0.0
H286 H 0.04103 0.96233 0.55267 0.0
H287 H 0.07273 0.95123 0.56157 0.0
H288 H 0.0689 0.98211 0.5468 0.0
H289 H 0.9644 0.9637 0.39997 0.0
H290 H 0.00131 0.03751 0.38208 0.0
H291 H 0.02893 0.03608 0.4207 0.0
H292 H 0.95946 0.97562 0.45871 0.0
H293 H 0.95472 0.9421 0.45131 0.0
H294 H 0.97145 0.95329 0.48089 0.0
H295 H 0.01697 0.93578 0.41973 0.0
H296 H 0.0068 0.91734 0.44614 0.0
H297 H 0.9832 0.925 0.42113 0.0
H298 H 0.98355 0.87734 0.50833 0.0
C299 C 0.00133 0.91301 0.49588 0.0
C300 C 0.278 0.64974 0.77135 0.0
C301 C 0.27936 0.63529 0.74882 0.0
C302 C 0.2596 0.63713 0.72918 0.0
C303 C 0.23812 0.66798 0.7544 0.0
C304 C 0.25744 0.66598 0.77363 0.0
C305 C 0.25422 0.68383 0.79566 0.0
H306 H 0.19247 0.78108 0.84677 0.0
C307 C 0.22007 0.6872 0.76262 0.0
C308 C 0.22948 0.69657 0.78673 0.0
H309 H 0.26173 0.74473 0.87586 0.0
H310 H 0.25762 0.71463 0.84114 0.0
H311 H 0.15979 0.72866 0.83368 0.0
H312 H 0.20456 0.77885 0.78495 0.0
H313 H 0.17303 0.77149 0.77058 0.0
H314 H 0.17619 0.78784 0.80089 0.0
H315 H 0.14614 0.75643 0.81929 0.0
H316 H 0.14471 0.72589 0.80275 0.0
C317 C 0.25007 0.66736 0.81997 0.0
C318 C 0.27843 0.70311 0.79766 0.0
C319 C 0.14182 0.70877 0.70465 0.0
C320 C 0.12027 0.7239 0.70788 0.0
C321 C 0.1191 0.73738 0.73128 0.0
C322 C 0.13903 0.73619 0.75064 0.0
C323 C 0.16031 0.72107 0.7469 0.0
C324 C 0.16112 0.70722 0.72445 0.0
C325 C 0.18403 0.69043 0.72465 0.0
C326 C 0.19703 0.69677 0.75081 0.0
C327 C 0.18338 0.7152 0.76354 0.0
C328 C 0.17341 0.66207 0.72275 0.0
C329 C 0.20157 0.69915 0.70266 0.0
C330 C 0.20666 0.76658 0.84555 0.0
C331 C 0.22792 0.76581 0.86367 0.0
C332 C 0.24571 0.74634 0.86171 0.0
C333 C 0.24321 0.7287 0.84156 0.0
C334 C 0.22268 0.73035 0.82297 0.0
C335 C 0.20449 0.74868 0.82528 0.0
C336 C 0.18367 0.74677 0.80377 0.0
C337 C 0.1933 0.72518 0.78767 0.0
C338 C 0.21614 0.71575 0.79915 0.0
C339 C 0.1571 0.73922 0.81531 0.0
C340 C 0.18417 0.77258 0.78921 0.0
H341 H 0.22466 0.65403 0.71619 0.0
H342 H 0.29316 0.64917 0.78655 0.0
H343 H 0.28726 0.70592 0.77877 0.0
H344 H 0.27355 0.7226 0.80337 0.0
H345 H 0.29385 0.69627 0.81129 0.0
H346 H 0.23803 0.64945 0.81514 0.0
H347 H 0.26903 0.6617 0.82886 0.0
H348 H 0.23919 0.67709 0.83451 0.0
H349 H 0.14391 0.69828 0.68707 0.0
H350 H 0.1026 0.74863 0.73496 0.0
H351 H 0.13702 0.74694 0.76787 0.0
H352 H 0.15489 0.65917 0.73282 0.0
H353 H 0.16929 0.65612 0.70244 0.0
H354 H 0.18674 0.64865 0.73217 0.0
H355 H 0.20264 0.72043 0.70094 0.0
H356 H 0.22203 0.69393 0.70588 0.0
H357 H 0.19371 0.69106 0.68396 0.0
H358 H 0.26018 0.62608 0.71166 0.0
C359 C 0.23897 0.65332 0.73188 0.0
C360 C 0.89432 0.46484 0.48038 0.0
C361 C 0.88859 0.44341 0.46434 0.0
C362 C 0.90453 0.43941 0.44365 0.0
C363 C 0.93216 0.47696 0.45607 0.0
C364 C 0.91617 0.48121 0.47599 0.0
C365 C 0.92564 0.5042 0.49193 0.0
H366 H 0.01506 0.60287 0.51443 0.0
C367 C 0.95404 0.49661 0.45771 0.0
C368 C 0.9504 0.51253 0.4788 0.0
H369 H 0.94336 0.58598 0.55274 0.0
H370 H 0.93486 0.54772 0.52721 0.0
H371 H 0.98972 0.59086 0.45796 0.0
H372 H 0.03365 0.54665 0.51254 0.0
H373 H 0.04229 0.53627 0.4823 0.0
H374 H 0.04946 0.56932 0.49183 0.0
H375 H 0.0237 0.5976 0.46676 0.0
H376 H 0.01339 0.57552 0.4413 0.0
C377 C 0.90472 0.5245 0.48923 0.0
C378 C 0.93159 0.49518 0.51979 0.0
C379 C 0.02367 0.49909 0.39138 0.0
C380 C 0.04659 0.51484 0.38894 0.0
C381 C 0.0543 0.53265 0.40864 0.0
C382 C 0.03886 0.53583 0.42952 0.0
C383 C 0.01539 0.52101 0.43101 0.0
C384 C 0.00846 0.50245 0.41262 0.0
C385 C 0.98355 0.48747 0.41856 0.0
C386 C 0.97629 0.50093 0.44286 0.0
C387 C 0.99492 0.52073 0.44978 0.0
C388 C 0.96318 0.49106 0.39611 0.0
C389 C 0.99007 0.4592 0.42359 0.0
C390 C 0.9975 0.59097 0.51733 0.0
C391 C 0.97988 0.59761 0.53567 0.0
C392 C 0.95749 0.58125 0.53904 0.0
C393 C 0.95239 0.55914 0.52394 0.0
C394 C 0.96974 0.5533 0.5051 0.0
C395 C 0.99196 0.56899 0.50222 0.0
C396 C 0.00777 0.56031 0.48071 0.0
C397 C 0.99113 0.53705 0.47088 0.0
C398 C 0.96895 0.53299 0.48528 0.0
C399 C 0.00898 0.58213 0.46058 0.0
C400 C 0.03479 0.55288 0.49223 0.0
H401 H 0.93769 0.4519 0.42347 0.0
H402 H 0.88263 0.46831 0.49659 0.0
H403 H 0.94091 0.47643 0.51989 0.0
H404 H 0.94558 0.50836 0.53075 0.0
H405 H 0.9134 0.49269 0.53036 0.0
H406 H 0.89417 0.5233 0.47005 0.0
H407 H 0.88992 0.52167 0.50391 0.0
H408 H 0.91323 0.5444 0.49047 0.0
H409 H 0.01735 0.48497 0.37682 0.0
H410 H 0.07233 0.54437 0.40785 0.0
H411 H 0.0457 0.54998 0.44354 0.0
H412 H 0.96377 0.5114 0.38971 0.0
H413 H 0.96719 0.47897 0.37939 0.0
H414 H 0.94289 0.48663 0.40141 0.0
H415 H 0.01045 0.4579 0.43166 0.0
H416 H 0.9778 0.44985 0.43806 0.0
H417 H 0.98811 0.44773 0.40559 0.0
H418 H 0.90032 0.42321 0.43082 0.0
C419 C 0.92623 0.45607 0.43941 0.0
C420 C 0.78065 0.71732 0.8526 0.0
C421 C 0.75997 0.71951 0.86906 0.0
C422 C 0.74263 0.73933 0.86457 0.0
C423 C 0.76675 0.75439 0.82839 0.0
C424 C 0.7837 0.73496 0.83256 0.0
C425 C 0.80506 0.73594 0.81381 0.0
H426 H 0.86078 0.79356 0.71226 0.0
C427 C 0.77577 0.77002 0.80666 0.0
C428 C 0.79835 0.7594 0.7981 0.0
H429 H 0.88351 0.72491 0.75174 0.0
H430 H 0.84947 0.72929 0.78147 0.0
H431 H 0.85037 0.82644 0.76324 0.0
H432 H 0.80097 0.77953 0.71091 0.0
H433 H 0.78349 0.80641 0.71792 0.0
H434 H 0.8141 0.81084 0.70262 0.0
H435 H 0.84029 0.8373 0.73186 0.0
H436 H 0.82086 0.84178 0.75922 0.0
C437 C 0.83164 0.74007 0.82914 0.0
C438 C 0.80223 0.71102 0.79751 0.0
C439 C 0.72572 0.84711 0.7766 0.0
C440 C 0.73024 0.86582 0.75764 0.0
C441 C 0.75238 0.86423 0.74286 0.0
C442 C 0.76948 0.84448 0.74665 0.0
C443 C 0.76469 0.826 0.76557 0.0
C444 C 0.74321 0.82753 0.78027 0.0
C445 C 0.74194 0.80664 0.80013 0.0
C446 C 0.76601 0.79222 0.79462 0.0
C447 C 0.77914 0.80365 0.77429 0.0
C448 C 0.74428 0.81941 0.82706 0.0
C449 C 0.71639 0.78993 0.79457 0.0
C450 C 0.85878 0.77982 0.72767 0.0
C451 C 0.87486 0.75893 0.72975 0.0
C452 C 0.87124 0.7411 0.74972 0.0
C453 C 0.85143 0.74365 0.7669 0.0
C454 C 0.83488 0.76414 0.76401 0.0
C455 C 0.83887 0.78191 0.74478 0.0
C456 C 0.81882 0.80184 0.74391 0.0
C457 C 0.80199 0.79301 0.76563 0.0
C458 C 0.81153 0.77099 0.77743 0.0
C459 C 0.83314 0.82833 0.74965 0.0
C460 C 0.80355 0.79985 0.71748 0.0
H461 H 0.73208 0.7713 0.8422 0.0
H462 H 0.79427 0.70231 0.8553 0.0
H463 H 0.78131 0.70453 0.79413 0.0
H464 H 0.80961 0.7136 0.77813 0.0
H465 H 0.81235 0.6952 0.80731 0.0
H466 H 0.83004 0.7536 0.84539 0.0
H467 H 0.83825 0.72171 0.83724 0.0
H468 H 0.84717 0.74887 0.81762 0.0
H469 H 0.709 0.84766 0.78837 0.0
H470 H 0.75695 0.87867 0.72865 0.0
H471 H 0.78592 0.84454 0.73479 0.0
H472 H 0.75626 0.83784 0.82685 0.0
H473 H 0.72477 0.82366 0.83375 0.0
H474 H 0.75447 0.80768 0.84162 0.0
H475 H 0.71271 0.78683 0.77357 0.0
H476 H 0.71706 0.77051 0.80285 0.0
H477 H 0.6993 0.79935 0.80179 0.0
H478 H 0.7269 0.74204 0.87717 0.0
C479 C 0.74584 0.75662 0.84436 0.0
C480 C 0.28224 0.21402 0.3483 0.0
C481 C 0.26171 0.21614 0.36494 0.0
C482 C 0.24465 0.23628 0.36101 0.0
C483 C 0.26878 0.25184 0.32504 0.0
C484 C 0.28543 0.23207 0.32862 0.0
C485 C 0.30661 0.23313 0.30967 0.0
H486 H 0.36246 0.29241 0.20901 0.0
C487 C 0.27791 0.26786 0.30364 0.0
C488 C 0.30019 0.25709 0.2946 0.0
H489 H 0.38374 0.222 0.24603 0.0
H490 H 0.35028 0.22635 0.27642 0.0
H491 H 0.35317 0.32413 0.26124 0.0
H492 H 0.3025 0.27964 0.20792 0.0
H493 H 0.28568 0.30664 0.21592 0.0
H494 H 0.31619 0.31096 0.20045 0.0
H495 H 0.34325 0.33603 0.23022 0.0
H496 H 0.32404 0.34019 0.2578 0.0
C497 C 0.33335 0.23649 0.32481 0.0
C498 C 0.30319 0.20861 0.29279 0.0
C499 C 0.22894 0.34638 0.27598 0.0
C500 C 0.23357 0.36545 0.25743 0.0
C501 C 0.25568 0.36408 0.24257 0.0
C502 C 0.27259 0.3441 0.24582 0.0
C503 C 0.26762 0.32516 0.26425 0.0
C504 C 0.24623 0.32656 0.2791 0.0
C505 C 0.24472 0.30516 0.29839 0.0
C506 C 0.2685 0.29055 0.29231 0.0
C507 C 0.28172 0.30235 0.27224 0.0
C508 C 0.2474 0.31721 0.32564 0.0
C509 C 0.21891 0.28894 0.29254 0.0
C510 C 0.36026 0.27826 0.22403 0.0
C511 C 0.37576 0.25691 0.22525 0.0
C512 C 0.37192 0.23857 0.24471 0.0
C513 C 0.35245 0.24109 0.26227 0.0
C514 C 0.33644 0.26207 0.26023 0.0
C515 C 0.34065 0.28031 0.24148 0.0
C516 C 0.32106 0.30067 0.24141 0.0
C517 C 0.30425 0.29154 0.26305 0.0
C518 C 0.31341 0.26901 0.27411 0.0
C519 C 0.33597 0.32673 0.2478 0.0
C520 C 0.30555 0.29973 0.21508 0.0
H521 H 0.23447 0.26889 0.33948 0.0
H522 H 0.29564 0.19878 0.35059 0.0
H523 H 0.28219 0.20229 0.28978 0.0
H524 H 0.31005 0.21165 0.27326 0.0
H525 H 0.31344 0.19251 0.3019 0.0
H526 H 0.33222 0.24996 0.34119 0.0
H527 H 0.3395 0.21788 0.33271 0.0
H528 H 0.349 0.24494 0.31323 0.0
H529 H 0.21225 0.34679 0.2878 0.0
H530 H 0.26031 0.3788 0.22866 0.0
H531 H 0.289 0.3443 0.2339 0.0
H532 H 0.25963 0.3355 0.32585 0.0
H533 H 0.22802 0.32152 0.3326 0.0
H534 H 0.2575 0.30496 0.33981 0.0
H535 H 0.21502 0.28654 0.27148 0.0
H536 H 0.21936 0.26925 0.30017 0.0
H537 H 0.20205 0.29835 0.30023 0.0
H538 H 0.22905 0.23891 0.37379 0.0
C539 C 0.24801 0.25398 0.34119 0.0
C540 C 0.49309 0.90269 0.49214 0.0
C541 C 0.47455 0.89392 0.47295 0.0
C542 C 0.45094 0.90636 0.46955 0.0
C543 C 0.46435 0.93538 0.50476 0.0
C544 C 0.48749 0.92312 0.50792 0.0
C545 C 0.50424 0.93327 0.53053 0.0
H546 H 0.5225 0.01366 0.63234 0.0
C547 C 0.46413 0.95498 0.52526 0.0
C548 C 0.48733 0.95359 0.54055 0.0
H549 H 0.57406 0.95759 0.60589 0.0
H550 H 0.54314 0.94555 0.57126 0.0
H551 H 0.46874 0.97815 0.62349 0.0
H552 H 0.50653 0.03487 0.57595 0.0
H553 H 0.47287 0.03965 0.57395 0.0
H554 H 0.49078 0.04316 0.60449 0.0
H555 H 0.46907 0.01186 0.6304 0.0
H556 H 0.44428 0.99637 0.609 0.0
C557 C 0.50771 0.91104 0.54993 0.0
C558 C 0.53008 0.94515 0.52042 0.0
C559 C 0.38813 0.01327 0.52857 0.0
C560 C 0.38211 0.03244 0.5459 0.0
C561 C 0.39934 0.03804 0.56734 0.0
C562 C 0.42232 0.02499 0.57137 0.0
C563 C 0.42818 0.00598 0.55384 0.0
C564 C 0.41109 0.0002 0.53301 0.0
C565 C 0.41999 0.97863 0.51705 0.0
C566 C 0.44563 0.97304 0.53126 0.0
C567 C 0.45037 0.98917 0.55277 0.0
C568 C 0.39951 0.95572 0.51813 0.0
C569 C 0.42427 0.9889 0.48969 0.0
C570 C 0.52691 0.99863 0.61918 0.0
C571 C 0.55081 0.98663 0.62177 0.0
C572 C 0.55596 0.96735 0.6041 0.0
C573 C 0.53791 0.96031 0.58402 0.0
C574 C 0.51431 0.97266 0.58138 0.0
C575 C 0.50907 0.99147 0.59875 0.0
C576 C 0.48314 0.00281 0.59236 0.0
C577 C 0.47376 0.98758 0.56843 0.0
C578 C 0.49212 0.96995 0.56222 0.0
C579 C 0.46527 0.99728 0.61496 0.0
C580 C 0.48835 0.03168 0.58652 0.0
H581 H 0.42749 0.93584 0.48179 0.0
H582 H 0.51113 0.8931 0.49556 0.0
H583 H 0.52656 0.95438 0.50143 0.0
H584 H 0.53916 0.96066 0.53285 0.0
H585 H 0.54442 0.93026 0.518 0.0
H586 H 0.49003 0.89766 0.54946 0.0
H587 H 0.5246 0.89969 0.54546 0.0
H588 H 0.51011 0.91768 0.57005 0.0
H589 H 0.37505 0.00829 0.51215 0.0
H590 H 0.3952 0.05287 0.58085 0.0
H591 H 0.43466 0.03025 0.58797 0.0
H592 H 0.38919 0.95573 0.53636 0.0
H593 H 0.38448 0.95645 0.50209 0.0
H594 H 0.40845 0.93693 0.51787 0.0
H595 H 0.43467 0.00819 0.49057 0.0
H596 H 0.43653 0.97676 0.47857 0.0
H597 H 0.40531 0.99077 0.47878 0.0
H598 H 0.43637 0.89981 0.45489 0.0
C599 C 0.44582 0.92718 0.48523 0.0
C600 C 0.15995 0.31977 0.77849 0.0
C601 C 0.14363 0.29748 0.78079 0.0
C602 C 0.14453 0.27749 0.76282 0.0
C603 C 0.17877 0.30134 0.74137 0.0
C604 C 0.17755 0.3212 0.75877 0.0
C605 C 0.19795 0.34247 0.75461 0.0
H606 H 0.30596 0.38347 0.69395 0.0
C607 C 0.20019 0.30791 0.72434 0.0
C608 C 0.21161 0.332 0.73199 0.0
H609 H 0.26754 0.42355 0.75273 0.0
H610 H 0.23392 0.38933 0.75312 0.0
H611 H 0.2552 0.37149 0.6606 0.0
H612 H 0.29792 0.32656 0.71534 0.0
H613 H 0.28963 0.30714 0.68821 0.0
H614 H 0.30947 0.33629 0.68475 0.0
H615 H 0.28222 0.3538 0.65152 0.0
H616 H 0.2492 0.33969 0.65008 0.0
C617 C 0.18385 0.36714 0.74754 0.0
C618 C 0.21631 0.34494 0.7791 0.0
C619 C 0.22093 0.24549 0.6541 0.0
C620 C 0.2391 0.24713 0.63488 0.0
C621 C 0.25665 0.26875 0.63391 0.0
C622 C 0.25615 0.28861 0.65181 0.0
C623 C 0.23772 0.287 0.67078 0.0
C624 C 0.22038 0.26582 0.67164 0.0
C625 C 0.20154 0.26811 0.69258 0.0
C626 C 0.21033 0.29425 0.70387 0.0
C627 C 0.23173 0.30494 0.69122 0.0
C628 C 0.17351 0.26796 0.67996 0.0
C629 C 0.20606 0.24611 0.71197 0.0
C630 C 0.2902 0.38533 0.7067 0.0
C631 C 0.28981 0.4064 0.72348 0.0
C632 C 0.26885 0.40739 0.73994 0.0
C633 C 0.24919 0.38754 0.74006 0.0
C634 C 0.25032 0.36644 0.72347 0.0
C635 C 0.27032 0.36596 0.7068 0.0
C636 C 0.26787 0.3429 0.6895 0.0
C637 C 0.24363 0.329 0.69917 0.0
C638 C 0.23349 0.34266 0.71924 0.0
C639 C 0.26356 0.35227 0.66143 0.0
C640 C 0.2925 0.32734 0.69445 0.0
H641 H 0.16182 0.26336 0.73014 0.0
H642 H 0.15983 0.33517 0.7924 0.0
H643 H 0.22068 0.32565 0.78671 0.0
H644 H 0.23549 0.3545 0.77569 0.0
H645 H 0.20713 0.35554 0.79441 0.0
H646 H 0.16565 0.36252 0.73552 0.0
H647 H 0.17832 0.37726 0.76501 0.0
H648 H 0.19566 0.38054 0.73587 0.0
H649 H 0.20708 0.22912 0.65501 0.0
H650 H 0.27083 0.27021 0.61924 0.0
H651 H 0.27014 0.30445 0.65011 0.0
H652 H 0.17342 0.27837 0.66136 0.0
H653 H 0.16551 0.24805 0.67606 0.0
H654 H 0.15981 0.27799 0.69155 0.0
H655 H 0.227 0.24152 0.71351 0.0
H656 H 0.20147 0.25117 0.73173 0.0
H657 H 0.19449 0.22831 0.70597 0.0
H658 H 0.13213 0.26015 0.76447 0.0
C659 C 0.16187 0.27937 0.74303 0.0
C660 C 0.75035 0.15393 0.74597 0.0
C661 C 0.73105 0.14576 0.72725 0.0
C662 C 0.72935 0.1586 0.7036 0.0
C663 C 0.76608 0.18739 0.71749 0.0
C664 C 0.76783 0.1745 0.74057 0.0
C665 C 0.79086 0.18431 0.75748 0.0
H666 H 0.90276 0.25852 0.77136 0.0
C667 C 0.78761 0.20738 0.71772 0.0
C668 C 0.80235 0.20557 0.74094 0.0
H669 H 0.8694 0.20419 0.82499 0.0
H670 H 0.8316 0.19686 0.79668 0.0
H671 H 0.84868 0.28593 0.76196 0.0
H672 H 0.88397 0.22918 0.7169 0.0
H673 H 0.87425 0.2551 0.69739 0.0
H674 H 0.89825 0.26093 0.72325 0.0
H675 H 0.87364 0.29477 0.74033 0.0
H676 H 0.83954 0.29153 0.72967 0.0
C677 C 0.78051 0.19493 0.78253 0.0
C678 C 0.80949 0.16207 0.76145 0.0
C679 C 0.79444 0.26742 0.64224 0.0
C680 C 0.81086 0.28895 0.63716 0.0
C681 C 0.83127 0.29656 0.65512 0.0
C682 C 0.83542 0.28245 0.67779 0.0
C683 C 0.81868 0.26088 0.68259 0.0
C684 C 0.79845 0.25396 0.66501 0.0
C685 C 0.7816 0.23156 0.67363 0.0
C686 C 0.79479 0.22623 0.69951 0.0
C687 C 0.81678 0.24309 0.70456 0.0
C688 C 0.75352 0.24054 0.67607 0.0
C689 C 0.78371 0.20913 0.65445 0.0
C690 C 0.88734 0.24506 0.77706 0.0
C691 C 0.88983 0.23117 0.80017 0.0
C692 C 0.86884 0.21428 0.80687 0.0
C693 C 0.84663 0.21018 0.79048 0.0
C694 C 0.84499 0.22324 0.76707 0.0
C695 C 0.86469 0.24096 0.76097 0.0
C696 C 0.85823 0.25452 0.73611 0.0
C697 C 0.83237 0.24063 0.72764 0.0
C698 C 0.8249 0.22221 0.74583 0.0
C699 C 0.85499 0.28323 0.74211 0.0
C700 C 0.87981 0.24987 0.71732 0.0
H701 H 0.74435 0.18854 0.68032 0.0
H702 H 0.75235 0.14394 0.7641 0.0
H703 H 0.80991 0.15038 0.74365 0.0
H704 H 0.83003 0.16867 0.76575 0.0
H705 H 0.80303 0.14904 0.77699 0.0
H706 H 0.76116 0.20324 0.77884 0.0
H707 H 0.77807 0.17956 0.79706 0.0
H708 H 0.7932 0.2109 0.79098 0.0
H709 H 0.77828 0.26152 0.62896 0.0
H710 H 0.84403 0.31325 0.65149 0.0
H711 H 0.8514 0.28886 0.69073 0.0
H712 H 0.75403 0.26045 0.6838 0.0
H713 H 0.74263 0.2404 0.65711 0.0
H714 H 0.74207 0.22891 0.68961 0.0
H715 H 0.80311 0.20996 0.64579 0.0
H716 H 0.78228 0.1901 0.66371 0.0
H717 H 0.76856 0.20973 0.63851 0.0
H718 H 0.71461 0.1524 0.68894 0.0
C719 C 0.74664 0.17951 0.69868 0.0
C720 C 0.54339 0.59455 0.45186 0.0
C721 C 0.52493 0.61336 0.45437 0.0
C722 C 0.5056 0.60924 0.47247 0.0
C723 C 0.52485 0.57008 0.48668 0.0
C724 C 0.54324 0.57339 0.46842 0.0
C725 C 0.56318 0.55323 0.47033 0.0
H726 H 0.6172 0.45779 0.53898 0.0
C727 C 0.53173 0.54799 0.50279 0.0
C728 C 0.55428 0.53806 0.49346 0.0
H729 H 0.64163 0.48974 0.46714 0.0
H730 H 0.6047 0.51672 0.46531 0.0
H731 H 0.60382 0.50899 0.5644 0.0
H732 H 0.55412 0.45318 0.52161 0.0
H733 H 0.53823 0.46171 0.54922 0.0
H734 H 0.56908 0.4469 0.55267 0.0
H735 H 0.5927 0.47923 0.57839 0.0
H736 H 0.57366 0.50729 0.57883 0.0
C737 C 0.59049 0.56696 0.47549 0.0
C738 C 0.56047 0.53687 0.44547 0.0
C739 C 0.47967 0.52712 0.58079 0.0
C740 C 0.48435 0.51203 0.60275 0.0
C741 C 0.50577 0.49608 0.60322 0.0
C742 C 0.52241 0.49577 0.58271 0.0
C743 C 0.51807 0.51198 0.56161 0.0
C744 C 0.49701 0.52734 0.561 0.0
C745 C 0.49694 0.54545 0.53863 0.0
C746 C 0.52095 0.53778 0.52536 0.0
C747 C 0.53312 0.51801 0.53873 0.0
C748 C 0.50004 0.57338 0.54926 0.0
C749 C 0.47164 0.53951 0.52173 0.0
C750 C 0.61469 0.47073 0.52293 0.0
C751 C 0.63253 0.47193 0.50335 0.0
C752 C 0.62817 0.48852 0.48246 0.0
C753 C 0.60681 0.50424 0.48151 0.0
C754 C 0.58962 0.50338 0.50166 0.0
C755 C 0.59341 0.4864 0.52163 0.0
C756 C 0.57278 0.48747 0.54098 0.0
C757 C 0.556 0.50796 0.5294 0.0
C758 C 0.56618 0.51753 0.50658 0.0
C759 C 0.58625 0.496 0.56713 0.0
C760 C 0.55774 0.46094 0.54141 0.0
H761 H 0.49023 0.58589 0.50175 0.0
H762 H 0.5582 0.59654 0.43787 0.0
H763 H 0.53988 0.53544 0.43755 0.0
H764 H 0.56553 0.51678 0.44876 0.0
H765 H 0.57273 0.54541 0.4304 0.0
H766 H 0.58956 0.58261 0.48985 0.0
H767 H 0.59785 0.57565 0.45765 0.0
H768 H 0.60522 0.55425 0.48362 0.0
H769 H 0.46332 0.53936 0.57919 0.0
H770 H 0.51044 0.48449 0.61983 0.0
H771 H 0.53851 0.48352 0.58446 0.0
H772 H 0.5082 0.57412 0.56944 0.0
H773 H 0.48097 0.58249 0.54892 0.0
H774 H 0.51407 0.58564 0.53866 0.0
H775 H 0.46783 0.51842 0.51935 0.0
H776 H 0.47281 0.54724 0.50211 0.0
H777 H 0.45448 0.54721 0.53062 0.0
H778 H 0.49127 0.62325 0.47541 0.0
C779 C 0.50527 0.58762 0.48828 0.0
C780 C 0.54496 0.40181 0.03208 0.0
C781 C 0.52399 0.3834 0.02875 0.0
C782 C 0.50374 0.38763 0.01024 0.0
C783 C 0.5258 0.42765 0.99807 0.0
C784 C 0.54528 0.42392 0.01679 0.0
C785 C 0.56544 0.44604 0.01838 0.0
H786 H 0.60815 0.56237 0.97442 0.0
C787 C 0.532 0.45226 0.98523 0.0
C788 C 0.555 0.46339 0.99731 0.0
H789 H 0.64291 0.51867 0.0363 0.0
H790 H 0.60924 0.48466 0.02914 0.0
H791 H 0.54934 0.55242 0.98847 0.0
H792 H 0.59688 0.51441 0.93639 0.0
H793 H 0.56589 0.51614 0.92088 0.0
H794 H 0.58455 0.54536 0.92982 0.0
H795 H 0.5581 0.56627 0.95844 0.0
H796 H 0.5294 0.54498 0.96081 0.0
C797 C 0.56493 0.45852 0.04526 0.0
C798 C 0.59216 0.43581 0.01218 0.0
C799 C 0.47804 0.47737 0.90556 0.0
C800 C 0.47974 0.49869 0.88913 0.0
C801 C 0.49789 0.51922 0.8956 0.0
C802 C 0.51485 0.51808 0.91743 0.0
C803 C 0.51373 0.49618 0.93305 0.0
C804 C 0.4951 0.47658 0.9274 0.0
C805 C 0.49635 0.45515 0.94665 0.0
C806 C 0.51962 0.46461 0.96401 0.0
C807 C 0.52978 0.48854 0.95582 0.0
C808 C 0.47054 0.45367 0.96094 0.0
C809 C 0.50181 0.43022 0.93223 0.0
C810 C 0.60841 0.54558 0.98661 0.0
C811 C 0.62804 0.54332 0.00614 0.0
C812 C 0.62802 0.52084 0.0211 0.0
C813 C 0.60835 0.50121 0.01701 0.0
C814 C 0.58857 0.50403 0.99766 0.0
C815 C 0.58903 0.52588 0.98273 0.0
C816 C 0.56698 0.5255 0.96263 0.0
C817 C 0.55272 0.5001 0.96832 0.0
C818 C 0.5654 0.48755 0.98884 0.0
C819 C 0.55005 0.54853 0.96755 0.0
C820 C 0.57897 0.52553 0.93596 0.0
H821 H 0.48875 0.41151 0.98088 0.0
H822 H 0.56062 0.39913 0.04639 0.0
H823 H 0.58975 0.42131 0.99647 0.0
H824 H 0.60595 0.45087 0.00519 0.0
H825 H 0.60139 0.42647 0.02921 0.0
H826 H 0.54464 0.4582 0.05186 0.0
H827 H 0.57696 0.44809 0.05969 0.0
H828 H 0.57162 0.47899 0.04551 0.0
H829 H 0.46402 0.46147 0.90127 0.0
H830 H 0.49973 0.53577 0.88319 0.0
H831 H 0.52858 0.5341 0.92096 0.0
H832 H 0.461 0.47232 0.9604 0.0
H833 H 0.45629 0.43896 0.95224 0.0
H834 H 0.4738 0.44956 0.98163 0.0
H835 H 0.51746 0.434 0.91852 0.0
H836 H 0.50878 0.41498 0.94504 0.0
H837 H 0.48403 0.42255 0.92111 0.0
H838 H 0.4875 0.3736 0.00727 0.0
C839 C 0.50457 0.40958 0.99486 0.0
C840 C 0.78029 0.14824 0.26973 0.0
C841 C 0.78145 0.13366 0.24725 0.0
C842 C 0.76125 0.13499 0.22798 0.0
C843 C 0.73971 0.16559 0.25343 0.0
C844 C 0.75945 0.16408 0.27232 0.0
C845 C 0.75625 0.18195 0.29436 0.0
H846 H 0.69316 0.27785 0.34633 0.0
C847 C 0.72142 0.18447 0.2619 0.0
C848 C 0.73107 0.19412 0.28582 0.0
H849 H 0.76367 0.24306 0.37447 0.0
H850 H 0.75971 0.2129 0.33979 0.0
H851 H 0.66143 0.2246 0.33357 0.0
H852 H 0.70446 0.27586 0.28437 0.0
H853 H 0.67296 0.26781 0.27029 0.0
H854 H 0.67604 0.28424 0.30056 0.0
H855 H 0.64715 0.25236 0.31981 0.0
H856 H 0.64579 0.22204 0.30288 0.0
C857 C 0.75296 0.16553 0.31884 0.0
C858 C 0.78007 0.20172 0.29581 0.0
C859 C 0.64199 0.20443 0.20489 0.0
C860 C 0.62029 0.21931 0.20825 0.0
C861 C 0.61916 0.23285 0.23162 0.0
C862 C 0.63929 0.23197 0.25081 0.0
C863 C 0.66076 0.21715 0.24691 0.0
C864 C 0.66152 0.20323 0.22449 0.0
C865 C 0.68473 0.18686 0.22446 0.0
C866 C 0.698 0.19354 0.25042 0.0
C867 C 0.68419 0.21174 0.26327 0.0
C868 C 0.67459 0.15833 0.22284 0.0
C869 C 0.70179 0.19577 0.20216 0.0
C870 C 0.70765 0.26367 0.34492 0.0
C871 C 0.72919 0.26336 0.36276 0.0
C872 C 0.74739 0.24431 0.36054 0.0
C873 C 0.74499 0.22664 0.34041 0.0
C874 C 0.72414 0.22782 0.32211 0.0
C875 C 0.70558 0.24575 0.32468 0.0
C876 C 0.68448 0.2434 0.30344 0.0
C877 C 0.6943 0.22199 0.28724 0.0
C878 C 0.71753 0.21306 0.29839 0.0
C879 C 0.65824 0.23536 0.31538 0.0
C880 C 0.68425 0.26916 0.28883 0.0
H881 H 0.72573 0.15112 0.21556 0.0
H882 H 0.79576 0.14803 0.28466 0.0
H883 H 0.78823 0.20485 0.27665 0.0
H884 H 0.77496 0.22103 0.30185 0.0
H885 H 0.79604 0.19511 0.30893 0.0
H886 H 0.74137 0.14729 0.31429 0.0
H887 H 0.77221 0.16047 0.32751 0.0
H888 H 0.742 0.17502 0.33348 0.0
H889 H 0.64407 0.19393 0.18731 0.0
H890 H 0.60255 0.24394 0.23536 0.0
H891 H 0.63732 0.24277 0.26802 0.0
H892 H 0.65618 0.15519 0.23303 0.0
H893 H 0.67045 0.15216 0.2026 0.0
H894 H 0.68823 0.14522 0.2323 0.0
H895 H 0.70243 0.21703 0.20032 0.0
H896 H 0.72239 0.19094 0.20512 0.0
H897 H 0.69381 0.18745 0.18359 0.0
H898 H 0.76166 0.12382 0.21052 0.0
C899 C 0.74037 0.1508 0.23098 0.0
C900 C 0.40166 0.95754 0.98487 0.0
C901 C 0.39396 0.93693 0.96835 0.0
C902 C 0.40784 0.93335 0.94614 0.0
C903 C 0.43599 0.97108 0.95673 0.0
C904 C 0.42266 0.97428 0.97874 0.0
C905 C 0.43337 0.9971 0.9943 0.0
H906 H 0.50502 0.109 0.99916 0.0
C907 C 0.45602 0.99241 0.95542 0.0
C908 C 0.45456 0.00775 0.97734 0.0
H909 H 0.45973 0.07356 0.05881 0.0
H910 H 0.45114 0.03594 0.03275 0.0
H911 H 0.47063 0.08971 0.94997 0.0
H912 H 0.53562 0.05701 0.99103 0.0
H913 H 0.53882 0.05042 0.95843 0.0
H914 H 0.54008 0.08333 0.96934 0.0
H915 H 0.50347 0.10351 0.94991 0.0
H916 H 0.49181 0.07884 0.92733 0.0
C917 C 0.41117 0.01576 0.99658 0.0
C918 C 0.44483 0.98747 0.02044 0.0
C919 C 0.51308 9e-05 0.87873 0.0
C920 C 0.53129 0.01924 0.87098 0.0
C921 C 0.53619 0.0415 0.88616 0.0
C922 C 0.52339 0.04455 0.90892 0.0
C923 C 0.5053 0.02523 0.91652 0.0
C924 C 0.50017 0.00359 0.90138 0.0
C925 C 0.47934 0.98574 0.91187 0.0
C926 C 0.47372 -0.00032 0.93636 0.0
C927 C 0.48904 0.02276 0.939 0.0
C928 C 0.45547 0.98435 0.8923 0.0
C929 C 0.49123 0.9596 0.91758 0.0
C930 C 0.49349 0.09315 0.00692 0.0
C931 C 0.4822 0.09506 0.03089 0.0
C932 C 0.46767 0.07345 0.04001 0.0
C933 C 0.46283 0.05138 0.02493 0.0
C934 C 0.47293 0.05047 0.00055 0.0
C935 C 0.48897 0.07059 0.99238 0.0
C936 C 0.5002 0.0649 0.96704 0.0
C937 C 0.48723 0.03856 0.96093 0.0
C938 C 0.47076 0.03059 0.98037 0.0
C939 C 0.49131 0.08532 0.94742 0.0
C940 C 0.53025 0.064 0.97143 0.0
H941 H 0.4385 0.94664 0.92301 0.0
H942 H 0.39172 0.96042 0.00237 0.0
H943 H 0.44922 0.96685 0.01964 0.0
H944 H 0.46379 0.99758 0.02622 0.0
H945 H 0.431 0.98963 0.03587 0.0
H946 H 0.40126 0.01888 0.97745 0.0
H947 H 0.39624 0.00785 0.00954 0.0
H948 H 0.41809 0.0349 0.00379 0.0
H949 H 0.50868 0.98299 0.86719 0.0
H950 H 0.55027 0.05643 0.88057 0.0
H951 H 0.52803 0.06188 0.91966 0.0
H952 H 0.45437 0.00231 0.88092 0.0
H953 H 0.45656 0.96824 0.87855 0.0
H954 H 0.43661 0.98247 0.90162 0.0
H955 H 0.51133 0.96249 0.92656 0.0
H956 H 0.48016 0.94788 0.93135 0.0
H957 H 0.49251 0.94833 0.89967 0.0
H958 H 0.40224 0.9176 0.93311 0.0
C959 C 0.4288 0.9503 0.94024 0.0
Mg960 Mg 0.24578 0.85592 0.0079 0.0
O961 O 0.28569 0.8743 0.997 0.0
O962 O 0.31365 0.84282 0.99724 0.0
Mg963 Mg 0.29244 0.80501 0.00696 0.0
C964 C 0.30852 0.8663 0.99414 0.0
C965 C 0.22178 0.90882 0.01363 0.0
O966 O 0.23385 0.90631 0.03622 0.0
O967 O 0.23892 0.83885 0.96748 0.0
O968 O 0.2682 0.80854 0.96927 0.0
O969 O 0.2576 0.86122 0.0497 0.0
O970 O 0.2647 0.8268 0.02718 0.0
C971 C 0.25038 0.8206 0.95727 0.0
C972 C 0.26778 0.83916 0.04852 0.0
O973 O 0.22423 0.89184 0.99656 0.0
Mg974 Mg 0.15198 0.50913 0.26444 0.0
O975 O 0.12658 0.50523 0.22644 0.0
O976 O 0.15481 0.50907 0.19524 0.0
Mg977 Mg 0.19656 0.5149 0.21184 0.0
C978 C 0.13152 0.50588 0.20264 0.0
C979 C 0.11793 0.51277 0.30742 0.0
O980 O 0.13684 0.53077 0.30954 0.0
O981 O 0.16547 0.46837 0.26014 0.0
O982 O 0.1933 0.47434 0.22877 0.0
O983 O 0.14993 0.55173 0.26372 0.0
O984 O 0.18069 0.53095 0.246 0.0
C985 C 0.18199 0.45997 0.24513 0.0
C986 C 0.17057 0.5524 0.25054 0.0
O987 O 0.11783 0.49683 0.28897 0.0
Mg988 Mg 0.76805 0.64985 0.02247 0.0
O989 O 0.72972 0.62432 0.02037 0.0
O990 O 0.69701 0.65088 0.01715 0.0
Mg991 Mg 0.71333 0.69234 0.01704 0.0
C992 C 0.70532 0.62828 0.01844 0.0
C993 C 0.79459 0.59959 0.03593 0.0
O994 O 0.78025 0.60275 0.05569 0.0
O995 O 0.76384 0.6582 0.97926 0.0
O996 O 0.73105 0.68488 0.9785 0.0
O997 O 0.76654 0.65402 0.06526 0.0
O998 O 0.74897 0.68034 0.03721 0.0
C999 C 0.74817 0.67278 0.9672 0.0
C1000 C 0.75322 0.67401 0.06076 0.0
O1001 O 0.79273 0.61512 0.01723 0.0
Mg1002 Mg 0.91332 0.03514 0.23481 0.0
O1003 O 0.88479 -0.00013 0.23071 0.0
O1004 O 0.90755 0.96546 0.22328 0.0
Mg1005 Mg 0.95089 0.97831 0.22535 0.0
C1006 C 0.88603 0.97596 0.2262 0.0
C1007 C 0.87249 0.07588 0.23192 0.0
O1008 O 0.88526 0.07982 0.21101 0.0
O1009 O 0.9249 0.02293 0.27557 0.0
O1010 O 0.94836 0.98907 0.26807 0.0
O1011 O 0.9123 0.0407 0.19249 0.0
O1012 O 0.9406 0.01694 0.21334 0.0
C1013 C 0.9388 0.00468 0.28351 0.0
C1014 C 0.93132 0.02554 0.19183 0.0
O1015 O 0.87988 0.05869 0.24754 0.0
Mg1016 Mg 0.26976 0.14807 0.51866 0.0
O1017 O 0.23083 0.1235 0.51781 0.0
O1018 O 0.19885 0.15086 0.51421 0.0
Mg1019 Mg 0.21622 0.1919 0.51252 0.0
C1020 C 0.20657 0.12807 0.51611 0.0
C1021 C 0.29489 0.09746 0.53346 0.0
O1022 O 0.28077 0.1016 0.55317 0.0
O1023 O 0.26526 0.15515 0.47524 0.0
O1024 O 0.23322 0.1827 0.47406 0.0
O1025 O 0.26884 0.15373 0.56134 0.0
O1026 O 0.2518 0.17962 0.53253 0.0
C1027 C 0.24984 0.16979 0.46292 0.0
C1028 C 0.2561 0.17397 0.55624 0.0
O1029 O 0.29333 0.11248 0.51432 0.0
Mg1030 Mg 0.40969 0.53482 0.7377 0.0
O1031 O 0.38029 0.50028 0.73273 0.0
O1032 O 0.40232 0.4654 0.72531 0.0
Mg1033 Mg 0.44594 0.47727 0.72743 0.0
C1034 C 0.38103 0.47635 0.72809 0.0
C1035 C 0.37001 0.57653 0.73503 0.0
O1036 O 0.38341 0.58064 0.71454 0.0
O1037 O 0.42084 0.52175 0.77834 0.0
O1038 O 0.44388 0.48774 0.77025 0.0
O1039 O 0.40938 0.54121 0.69549 0.0
O1040 O 0.43684 0.51645 0.71619 0.0
C1041 C 0.43461 0.50327 0.78595 0.0
C1042 C 0.42817 0.52578 0.69478 0.0
O1043 O 0.37665 0.55888 0.75045 0.0
Mg1044 Mg 0.74593 0.35377 0.50679 0.0
O1045 O 0.78437 0.37471 0.49505 0.0
O1046 O 0.81431 0.34513 0.49457 0.0
Mg1047 Mg 0.7959 0.30611 0.50474 0.0
C1048 C 0.80762 0.36819 0.49161 0.0
C1049 C 0.71773 0.40409 0.51377 0.0
O1050 O 0.72927 0.40123 0.53655 0.0
O1051 O 0.73933 0.33655 0.4664 0.0
O1052 O 0.77055 0.30816 0.46755 0.0
O1053 O 0.75825 0.35934 0.5485 0.0
O1054 O 0.76704 0.32577 0.52556 0.0
C1055 C 0.7517 0.3191 0.45591 0.0
C1056 C 0.76961 0.33794 0.54702 0.0
O1057 O 0.72186 0.38825 0.4961 0.0
Mg1058 Mg 0.65072 0.01056 0.76377 0.0
O1059 O 0.62647 0.00794 0.72508 0.0
O1060 O 0.65528 0.01093 0.69438 0.0
Mg1061 Mg 0.69668 0.01583 0.71226 0.0
C1062 C 0.63182 0.00836 0.7014 0.0
C1063 C 0.59669 0.01377 0.78507 0.0
O1064 O 0.59795 0.033 0.76887 0.0
O1065 O 0.66312 0.96946 0.75895 0.0
O1066 O 0.69209 0.97505 0.72853 0.0
O1067 O 0.65042 0.0533 0.7644 0.0
O1068 O 0.68053 0.03177 0.74642 0.0
C1069 C 0.67988 0.96079 0.74436 0.0
C1070 C 0.67117 0.0535 0.75137 0.0
O1071 O 0.61513 0.99843 0.7862 0.0
Mg1072 Mg 0.0349 0.26257 0.89892 0.0
O1073 O 0.99754 0.25398 0.87307 0.0
O1074 O 0.96735 0.23677 0.89849 0.0
Mg1075 Mg 0.98338 0.2382 0.93994 0.0
C1076 C 0.97475 0.24384 0.87651 0.0
C1077 C 0.07904 0.27617 0.86618 0.0
O1078 O 0.08754 0.26097 0.88447 0.0
O1079 O 0.01762 0.29905 0.91298 0.0
O1080 O 0.98656 0.28237 0.9376 0.0
O1081 O 0.04608 0.22206 0.89466 0.0
O1082 O 0.02241 0.23542 0.92561 0.0
C1083 C 0.99887 0.30163 0.92779 0.0
C1084 C 0.03256 0.21669 0.91438 0.0
O1085 O 0.05557 0.28282 0.86634 0.0
Mg1086 Mg 0.53437 0.76082 0.39655 0.0
O1087 O 0.49657 0.75108 0.37181 0.0
O1088 O 0.46745 0.73294 0.39784 0.0
Mg1089 Mg 0.48506 0.7336 0.43877 0.0
C1090 C 0.47409 0.74048 0.37573 0.0
C1091 C 0.57534 0.79215 0.36703 0.0
O1092 O 0.58668 0.79122 0.39015 0.0
O1093 O 0.51588 0.79598 0.41201 0.0
O1094 O 0.48668 0.77789 0.43784 0.0
O1095 O 0.54809 0.72133 0.39145 0.0
O1096 O 0.52346 0.73263 0.42264 0.0
C1097 C 0.49789 0.79768 0.42786 0.0
C1098 C 0.53462 0.71486 0.41092 0.0
O1099 O 0.5521 0.78266 0.36344 0.0
Mg1100 Mg 0.97983 0.74026 0.60517 0.0
O1101 O 0.01844 0.73695 0.62907 0.0
O1102 O 0.04874 0.72593 0.60234 0.0
Mg1103 Mg 0.03079 0.72642 0.56138 0.0
C1104 C 0.04158 0.73085 0.62478 0.0
C1105 C 0.94017 0.74137 0.6454 0.0
O1106 O 0.93302 0.72181 0.63032 0.0
O1107 O 0.99365 0.78001 0.59145 0.0
O1108 O 0.02426 0.76976 0.56477 0.0
O1109 O 0.97165 0.69802 0.60795 0.0
O1110 O 0.99235 0.71653 0.57629 0.0
C1111 C 0.01104 0.78638 0.57561 0.0
C1112 C 0.98369 0.69577 0.58701 0.0
O1113 O 0.96017 0.75549 0.64009 0.0
Mg1114 Mg 0.48225 0.23737 0.10207 0.0
O1115 O 0.51961 0.23265 0.12757 0.0
O1116 O 0.55094 0.22178 0.10195 0.0
Mg1117 Mg 0.53478 0.22255 0.06038 0.0
C1118 C 0.54288 0.22638 0.12412 0.0
C1119 C 0.44063 0.23982 0.14038 0.0
O1120 O 0.43304 0.22094 0.1246 0.0
O1121 O 0.49792 0.27671 0.08939 0.0
O1122 O 0.52888 0.26612 0.06326 0.0
O1123 O 0.47182 0.19561 0.10391 0.0
O1124 O 0.49555 0.2132 0.07381 0.0
C1125 C 0.5157 0.28291 0.07392 0.0
C1126 C 0.48503 0.19283 0.08379 0.0
O1127 O 0.46155 0.25304 0.13615 0.0
C1128 C 0.21174 0.79121 0.90017 0.0
C1129 C 0.23219 0.78481 0.88482 0.0
H1130 H 0.20153 0.80828 0.93557 0.0
C1131 C 0.25775 0.79446 0.89153 0.0
H1132 H 0.19186 0.78407 0.89543 0.0
C1133 C 0.26322 0.80782 0.91442 0.0
C1134 C 0.2432 0.81238 0.9308 0.0
H1135 H 0.27381 0.79046 0.87973 0.0
H1136 H 0.28337 0.81351 0.91995 0.0
C1137 C 0.21723 0.80506 0.92306 0.0
C1138 C 0.0735 0.53655 0.35601 0.0
C1139 C 0.06239 0.51368 0.36593 0.0
H1140 H 0.09966 0.55395 0.32989 0.0
C1141 C 0.06759 0.4902 0.35441 0.0
H1142 H 0.06924 0.55503 0.36375 0.0
C1143 C 0.08476 0.48966 0.33433 0.0
C1144 C 0.0971 0.51255 0.32582 0.0
H1145 H 0.05929 0.47225 0.36158 0.0
H1146 H 0.08932 0.47137 0.32637 0.0
C1147 C 0.09082 0.53596 0.33645 0.0
C1148 C 0.77918 0.69533 0.90673 0.0
C1149 C 0.75711 0.7025 0.89179 0.0
H1150 H 0.7936 0.67959 0.94237 0.0
C1151 C 0.73214 0.69543 0.90021 0.0
H1152 H 0.79873 0.7005 0.90094 0.0
C1153 C 0.72929 0.68391 0.92409 0.0
C1154 C 0.75132 0.6786 0.93984 0.0
H1155 H 0.71469 0.69986 0.88888 0.0
H1156 H 0.70979 0.68024 0.93077 0.0
C1157 C 0.77629 0.6833 0.93049 0.0
C1158 C 0.9549 0.0227 0.35311 0.0
C1159 C 0.96644 0.00052 0.36248 0.0
H1160 H 0.93663 0.04129 0.32089 0.0
C1161 C 0.9664 0.97892 0.34642 0.0
H1162 H 0.95449 0.03957 0.36516 0.0
C1163 C 0.9564 0.97995 0.32106 0.0
C1164 C 0.94596 0.00252 0.31127 0.0
H1165 H 0.97533 0.96163 0.35305 0.0
H1166 H 0.9576 0.96328 0.30889 0.0
C1167 C 0.94457 0.02363 0.3278 0.0
C1168 C 0.24616 0.20199 0.62182 0.0
C1169 C 0.23967 0.22698 0.61517 0.0
H1170 H 0.25665 0.16533 0.60818 0.0
C1171 C 0.23615 0.2335 0.58924 0.0
H1172 H 0.24907 0.19668 0.64179 0.0
C1173 C 0.24011 0.21568 0.57016 0.0
C1174 C 0.2481 0.19107 0.57663 0.0
H1175 H 0.23108 0.2527 0.58376 0.0
H1176 H 0.23811 0.22166 0.55033 0.0
C1177 C 0.25055 0.18416 0.60265 0.0
C1178 C 0.4571 0.53793 0.63088 0.0
C1179 C 0.46829 0.51453 0.62567 0.0
H1180 H 0.43519 0.55936 0.65631 0.0
C1181 C 0.46488 0.4942 0.64321 0.0
H1182 H 0.4598 0.55445 0.6186 0.0
C1183 C 0.45154 0.49756 0.66562 0.0
C1184 C 0.44062 0.52101 0.67055 0.0
H1185 H 0.4726 0.4757 0.6398 0.0
H1186 H 0.44969 0.48181 0.67899 0.0
C1187 C 0.44309 0.54093 0.65275 0.0
C1188 C 0.79898 0.32915 0.61438 0.0
C1189 C 0.80556 0.30343 0.61337 0.0
H1190 H 0.78221 0.36041 0.59395 0.0
C1191 C 0.80307 0.29029 0.58986 0.0
H1192 H 0.80054 0.33954 0.63241 0.0
C1193 C 0.79266 0.30208 0.568 0.0
C1194 C 0.78434 0.32723 0.56924 0.0
H1195 H 0.80802 0.27042 0.58869 0.0
H1196 H 0.78987 0.29092 0.55049 0.0
C1197 C 0.78832 0.34096 0.59245 0.0
C1198 C 0.56443 0.9966 0.66795 0.0
C1199 C 0.57088 0.99432 0.64223 0.0
H1200 H 0.57863 0.00267 0.70702 0.0
C1201 C 0.59711 0.99822 0.6361 0.0
H1202 H 0.54434 0.99363 0.67319 0.0
C1203 C 0.61661 0.00341 0.65527 0.0
C1204 C 0.61047 0.00473 0.68117 0.0
H1205 H 0.60261 0.99699 0.61639 0.0
H1206 H 0.63664 0.00587 0.6497 0.0
C1207 C 0.58407 0.00165 0.68729 0.0
C1208 C 0.92801 0.2579 0.82069 0.0
C1209 C 0.91381 0.23411 0.81758 0.0
H1210 H 0.95906 0.2795 0.84167 0.0
C1211 C 0.92201 0.21311 0.83226 0.0
H1212 H 0.92228 0.27457 0.80992 0.0
C1213 C 0.94243 0.21622 0.85085 0.0
C1214 C 0.95581 0.24014 0.85457 0.0
H1215 H 0.91233 0.19424 0.82983 0.0
H1216 H 0.94755 0.19998 0.86263 0.0
C1217 C 0.94904 0.26081 0.83889 0.0
C1218 C 0.50306 0.8679 0.44675 0.0
C1219 C 0.47914 0.87054 0.45816 0.0
H1220 H 0.52758 0.84285 0.42769 0.0
C1221 C 0.46058 0.84974 0.45751 0.0
H1222 H 0.51766 0.88372 0.44698 0.0
C1223 C 0.46638 0.82628 0.44688 0.0
C1224 C 0.49068 0.8233 0.43629 0.0
H1225 H 0.44209 0.85123 0.46636 0.0
H1226 H 0.45204 0.81028 0.44749 0.0
C1227 C 0.50868 0.84456 0.43566 0.0
C1228 C 0.13366 0.27413 0.82068 0.0
C1229 C 0.12763 0.29357 0.80324 0.0
H1230 H 0.12326 0.25372 0.85434 0.0
C1231 C 0.10595 0.30817 0.80693 0.0
H1232 H 0.15035 0.2627 0.81815 0.0
C1233 C 0.09002 0.30278 0.82751 0.0
C1234 C 0.09596 0.28307 0.84488 0.0
H1235 H 0.10101 0.32323 0.79356 0.0
H1236 H 0.07308 0.3139 0.82978 0.0
C1237 C 0.11815 0.26908 0.84139 0.0
C1238 C 0.55157 0.6491 0.43376 0.0
C1239 C 0.52699 0.63813 0.44003 0.0
H1240 H 0.57304 0.68187 0.41912 0.0
C1241 C 0.50469 0.65214 0.43437 0.0
H1242 H 0.56933 0.63935 0.4381 0.0
C1243 C 0.50711 0.67698 0.42451 0.0
C1244 C 0.53173 0.688 0.41917 0.0
H1245 H 0.4853 0.6442 0.43798 0.0
H1246 H 0.48972 0.68759 0.42109 0.0
C1247 C 0.55383 0.67362 0.42308 0.0
C1248 C 0.91009 0.77436 0.70067 0.0
C1249 C 0.89347 0.75437 0.70967 0.0
H1250 H 0.93841 0.78589 0.6734 0.0
C1251 C 0.89331 0.73009 0.69811 0.0
H1252 H 0.91058 0.79327 0.70932 0.0
C1253 C 0.90882 0.726 0.67753 0.0
C1254 C 0.92512 0.74601 0.66817 0.0
H1255 H 0.88047 0.71442 0.7044 0.0
H1256 H 0.90782 0.70712 0.66877 0.0
C1257 C 0.92602 0.77014 0.68022 0.0
C1258 C 0.04003 0.84691 0.54584 0.0
C1259 C 0.01878 0.86275 0.5453 0.0
H1260 H 0.05421 0.81022 0.55585 0.0
C1261 C 0.99588 0.85429 0.5571 0.0
H1262 H 0.05785 0.85294 0.53676 0.0
C1263 C 0.99389 0.83 0.56839 0.0
C1264 C 0.01459 0.81351 0.56758 0.0
H1265 H 0.97927 0.86624 0.55703 0.0
H1266 H 0.97567 0.82366 0.57657 0.0
C1267 C 0.03788 0.82244 0.55667 0.0
C1268 C 0.09361 0.70492 0.66969 0.0
C1269 C 0.09921 0.72545 0.68706 0.0
H1270 H 0.07141 0.69089 0.63614 0.0
C1271 C 0.08474 0.74757 0.68397 0.0
H1272 H 0.10345 0.68717 0.67167 0.0
C1273 C 0.06541 0.74906 0.66417 0.0
C1274 C 0.06075 0.72887 0.64654 0.0
H1275 H 0.08861 0.76406 0.69643 0.0
H1276 H 0.05471 0.76633 0.66213 0.0
C1277 C 0.07498 0.70683 0.64941 0.0
C1278 C 0.97695 0.62411 0.57559 0.0
C1279 C 0.9838 0.62231 0.54994 0.0
H1280 H 0.97178 0.64873 0.60752 0.0
C1281 C 0.99294 0.64469 0.53747 0.0
H1282 H 0.97031 0.6072 0.58592 0.0
C1283 C 0.99415 0.66843 0.54998 0.0
C1284 C 0.98605 0.67035 0.57515 0.0
H1285 H 0.99809 0.64412 0.51763 0.0
H1286 H 1.00034 0.6854 0.53949 0.0
C1287 C 0.97798 0.64789 0.58803 0.0
C1288 C 0.82499 0.9398 0.2465 0.0
C1289 C 0.81731 0.92526 0.22433 0.0
H1290 H 0.8526 0.9677 0.26416 0.0
C1291 C 0.8319 0.92896 0.20232 0.0
H1292 H 0.81472 0.93734 0.26399 0.0
C1293 C 0.8542 0.94558 0.20291 0.0
C1294 C 0.86182 0.95962 0.22514 0.0
H1295 H 0.8263 0.91892 0.18457 0.0
H1296 H 0.86546 0.94754 0.18595 0.0
C1297 C 0.84682 0.95707 0.24675 0.0
C1298 C 0.81672 0.11957 0.22001 0.0
C1299 C 0.80436 0.11823 0.24336 0.0
H1300 H 0.84798 0.10754 0.19826 0.0
C1301 C 0.81457 0.10281 0.26314 0.0
H1302 H 0.80953 0.13157 0.20457 0.0
C1303 C 0.83669 0.08893 0.25954 0.0
C1304 C 0.84916 0.09048 0.23621 0.0
H1305 H 0.80534 0.10135 0.28131 0.0
H1306 H 0.84408 0.07713 0.27505 0.0
C1307 C 0.83891 0.10595 0.21651 0.0
C1308 C 0.34834 0.92829 0.98262 0.0
C1309 C 0.37177 0.91901 0.97446 0.0
H1310 H 0.3098 0.91896 0.995 0.0
C1311 C 0.37402 0.89243 0.97246 0.0
H1312 H 0.34603 0.94873 0.98412 0.0
C1313 C 0.35342 0.87544 0.97876 0.0
C1314 C 0.32998 0.88463 0.98702 0.0
H1315 H 0.39192 0.88474 0.96645 0.0
H1316 H 0.35594 0.85504 0.97715 0.0
C1317 C 0.32757 0.91126 0.9887 0.0
C1318 C 0.20604 0.39922 0.27519 0.0
C1319 C 0.21632 0.38736 0.25398 0.0
H1320 H 0.18656 0.43149 0.28895 0.0
C1321 C 0.2117 0.39788 0.22946 0.0
H1322 H 0.20929 0.39176 0.29437 0.0
C1323 C 0.19916 0.4208 0.22649 0.0
C1324 C 0.1904 0.43348 0.24787 0.0
H1325 H 0.21855 0.38886 0.21257 0.0
H1326 H 0.19709 0.42907 0.20751 0.0
C1327 C 0.19301 0.42201 0.27212 0.0
C1328 C 0.14072 0.0914 0.51064 0.0
C1329 C 0.14768 0.06576 0.51127 0.0
H1330 H 0.15361 0.13093 0.5118 0.0
C1331 C 0.17421 0.06058 0.51491 0.0
H1332 H 0.12041 0.09601 0.50829 0.0
C1333 C 0.19346 0.08074 0.51693 0.0
C1334 C 0.18648 0.10643 0.51551 0.0
H1335 H 0.18014 0.04098 0.51537 0.0
H1336 H 0.21379 0.07617 0.51915 0.0
C1337 C 0.15983 0.11145 0.51275 0.0
C1338 C 0.69839 0.1221 0.75348 0.0
C1339 C 0.71369 0.12302 0.73198 0.0
H1340 H 0.67229 0.09932 0.77606 0.0
C1341 C 0.71353 0.10153 0.7158 0.0
H1342 H 0.69824 0.13854 0.76615 0.0
C1343 C 0.69915 0.079 0.72169 0.0
C1344 C 0.68429 0.07783 0.74354 0.0
H1345 H 0.72529 0.10187 0.69914 0.0
H1346 H 0.69987 0.06249 0.70928 0.0
C1347 C 0.68351 0.09977 0.75904 0.0
C1348 C 0.34205 0.0508 0.56214 0.0
C1349 C 0.35814 0.04685 0.54173 0.0
H1350 H 0.30918 0.06936 0.57537 0.0
C1351 C 0.35191 0.05786 0.51777 0.0
H1352 H 0.3462 0.04226 0.58071 0.0
C1353 C 0.33073 0.0736 0.51468 0.0
C1354 C 0.31521 0.07834 0.53543 0.0
H1355 H 0.36405 0.05516 0.50172 0.0
H1356 H 0.32697 0.0826 0.49627 0.0
C1357 C 0.32074 0.06622 0.55899 0.0
C1358 C 0.66286 0.44195 0.48388 0.0
C1359 C 0.65571 0.45611 0.50509 0.0
H1360 H 0.68815 0.41431 0.46991 0.0
C1361 C 0.67038 0.45446 0.52844 0.0
H1362 H 0.65185 0.44282 0.46566 0.0
C1363 C 0.69116 0.43833 0.53085 0.0
C1364 C 0.69769 0.42331 0.51001 0.0
H1365 H 0.66561 0.46549 0.54498 0.0
H1366 H 0.70164 0.43717 0.54933 0.0
C1367 C 0.68361 0.42561 0.48635 0.0
C1368 C 0.75879 0.29263 0.39021 0.0
C1369 C 0.73335 0.28245 0.38385 0.0
H1370 H 0.78437 0.31237 0.41819 0.0
C1371 C 0.71296 0.28849 0.39944 0.0
H1372 H 0.77478 0.28893 0.37821 0.0
C1373 C 0.71845 0.30254 0.4222 0.0
C1374 C 0.74437 0.31043 0.42959 0.0
H1375 H 0.69317 0.28094 0.39497 0.0
H1376 H 0.70283 0.30552 0.43488 0.0
C1377 C 0.76428 0.3062 0.41297 0.0
C1378 C 0.54657 0.03613 0.82931 0.0
C1379 C 0.54544 0.0162 0.84729 0.0
H1380 H 0.5631 0.05066 0.79518 0.0
C1381 C 0.5592 0.99414 0.84325 0.0
H1382 H 0.53589 0.05321 0.83187 0.0
C1383 C 0.57507 0.99272 0.82233 0.0
C1384 C 0.5771 0.01319 0.80492 0.0
H1385 H 0.55862 0.97852 0.85691 0.0
H1386 H 0.58637 0.97598 0.82027 0.0
C1387 C 0.56206 0.03456 0.80823 0.0
C1388 C 0.28083 0.19143 0.40225 0.0
C1389 C 0.25879 0.19879 0.38739 0.0
H1390 H 0.29521 0.17572 0.43792 0.0
C1391 C 0.23379 0.19179 0.39581 0.0
H1392 H 0.30039 0.19654 0.39645 0.0
C1393 C 0.23091 0.1803 0.41968 0.0
C1394 C 0.25293 0.17497 0.43544 0.0
H1395 H 0.21637 0.19639 0.38452 0.0
H1396 H 0.21142 0.17682 0.42644 0.0
C1397 C 0.27791 0.17945 0.42602 0.0
C1398 C 0.4637 0.47713 0.84803 0.0
C1399 C 0.46447 0.49873 0.86418 0.0
H1400 H 0.45356 0.4616 0.81069 0.0
C1401 C 0.45273 0.52098 0.85527 0.0
H1402 H 0.47275 0.45977 0.85427 0.0
C1403 C 0.44156 0.52201 0.83027 0.0
C1404 C 0.44227 0.50091 0.81359 0.0
H1405 H 0.45283 0.53783 0.86741 0.0
H1406 H 0.43356 0.53975 0.82366 0.0
C1407 C 0.45285 0.47825 0.82298 0.0
C1408 C 0.74495 0.70078 0.12717 0.0
C1409 C 0.73648 0.72524 0.12108 0.0
H1410 H 0.75689 0.66504 0.11263 0.0
C1411 C 0.7308 0.73158 0.09541 0.0
H1412 H 0.74964 0.69571 0.14693 0.0
C1413 C 0.73473 0.71418 0.0759 0.0
C1414 C 0.74478 0.69021 0.0817 0.0
H1415 H 0.7244 0.75046 0.0904 0.0
H1416 H 0.73123 0.72014 0.05622 0.0
C1417 C 0.74916 0.68337 0.10757 0.0
C1418 C 0.95687 0.03493 0.12601 0.0
C1419 C 0.96912 0.01187 0.12185 0.0
H1420 H 0.93496 0.05687 0.15099 0.0
C1421 C 0.9674 0.99257 0.14068 0.0
H1422 H 0.95822 0.0507 0.11262 0.0
C1423 C 0.95479 0.99669 0.16337 0.0
C1424 C 0.94298 0.01987 0.16738 0.0
H1425 H 0.97599 0.97433 0.1381 0.0
H1426 H 0.95427 0.98174 0.1777 0.0
C1427 C 0.94365 0.03867 0.14825 0.0
C1428 C 0.29738 0.8302 0.11577 0.0
C1429 C 0.30324 0.80427 0.11492 0.0
H1430 H 0.28133 0.86176 0.09522 0.0
C1431 C 0.30008 0.79093 0.09154 0.0
H1432 H 0.29945 0.84075 0.13371 0.0
C1433 C 0.28968 0.80275 0.06971 0.0
C1434 C 0.28216 0.82818 0.0708 0.0
H1435 H 0.30446 0.77089 0.09048 0.0
H1436 H 0.28633 0.79143 0.05236 0.0
C1437 C 0.28681 0.84208 0.09384 0.0
C1438 C 0.06384 0.49445 0.16963 0.0
C1439 C 0.07008 0.49298 0.14378 0.0
H1440 H 0.07839 0.49945 0.20875 0.0
C1441 C 0.09623 0.49708 0.13752 0.0
H1442 H 0.04379 0.49131 0.17495 0.0
C1443 C 0.11588 0.50171 0.15663 0.0
C1444 C 0.10997 0.50231 0.18263 0.0
H1445 H 0.10157 0.49646 0.11772 0.0
H1446 H 0.13582 0.50442 0.1509 0.0
C1447 C 0.08365 0.49896 0.18894 0.0
C1448 C 0.41976 0.71081 0.33254 0.0
C1449 C 0.41193 0.73195 0.31784 0.0
H1450 H 0.44536 0.69718 0.36262 0.0
C1451 C 0.42674 0.75543 0.3207 0.0
H1452 H 0.40962 0.69214 0.3303 0.0
C1453 C 0.44806 0.7579 0.33859 0.0
C1454 C 0.45452 0.73713 0.35427 0.0
H1455 H 0.42132 0.77221 0.30995 0.0
H1456 H 0.45861 0.77636 0.34111 0.0
C1457 C 0.44047 0.71352 0.35086 0.0
C1458 C 0.96132 0.35507 0.9545 0.0
C1459 C 0.98035 0.37546 0.9558 0.0
H1460 H 0.95233 0.31566 0.94467 0.0
C1461 C 0.00471 0.37215 0.94547 0.0
H1462 H 0.94248 0.35704 0.96253 0.0
C1463 C 0.01032 0.34851 0.93502 0.0
C1464 C 0.99183 0.32763 0.9352 0.0
H1465 H 0.01968 0.38764 0.94622 0.0
H1466 H 0.02956 0.34625 0.928 0.0
C1467 C 0.96706 0.33134 0.94448 0.0
C1468 C 0.59674 0.79943 0.29897 0.0
C1469 C 0.62314 0.8078 0.3031 0.0
H1470 H 0.56074 0.78835 0.31589 0.0
C1471 C 0.63284 0.81352 0.32825 0.0
H1472 H 0.58862 0.79523 0.27976 0.0
C1473 C 0.61689 0.80963 0.34895 0.0
C1474 C 0.59086 0.80003 0.34494 0.0
H1475 H 0.65313 0.81984 0.3321 0.0
H1476 H 0.62528 0.81326 0.36817 0.0
C1477 C 0.58074 0.79566 0.31967 0.0
C1478 C 0.03473 0.14428 0.9191 0.0
C1479 C 0.02325 0.13943 0.94262 0.0
H1480 H 0.04656 0.17252 0.8916 0.0
C1481 C 0.01407 0.16014 0.95616 0.0
H1482 H 0.04181 0.12876 0.90808 0.0
C1483 C 0.01661 0.18507 0.94667 0.0
C1484 C 0.02851 0.19 0.92345 0.0
H1485 H 0.00566 0.15727 0.97462 0.0
H1486 H 0.00986 0.20056 0.95797 0.0
C1487 C 0.03735 0.16933 0.90962 0.0
C1488 C 0.3927 0.22865 0.19219 0.0
C1489 C 0.39395 0.25247 0.20478 0.0
H1490 H 0.40627 0.20619 0.16197 0.0
C1491 C 0.4114 0.27216 0.19657 0.0
H1492 H 0.3792 0.21325 0.19788 0.0
C1493 C 0.4272 0.26806 0.17599 0.0
C1494 C 0.42533 0.24439 0.163 0.0
H1495 H 0.41271 0.29072 0.206 0.0
H1496 H 0.44035 0.28354 0.16987 0.0
C1497 C 0.40806 0.22471 0.17146 0.0
C1498 C 0.54447 0.34322 0.04347 0.0
C1499 C 0.52341 0.35926 0.04362 0.0
H1500 H 0.55854 0.30634 0.05292 0.0
C1501 C 0.50088 0.35104 0.05615 0.0
H1502 H 0.562 0.34911 0.03383 0.0
C1503 C 0.49901 0.32676 0.06742 0.0
C1504 C 0.51944 0.31003 0.0659 0.0
H1505 H 0.48444 0.36316 0.05662 0.0
H1506 H 0.48102 0.32063 0.07615 0.0
C1507 C 0.54242 0.31873 0.0543 0.0
C1508 C 0.59368 0.20009 0.17016 0.0
C1509 C 0.59916 0.22069 0.18747 0.0
H1510 H 0.57198 0.1861 0.13632 0.0
C1511 C 0.5847 0.24279 0.18423 0.0
H1512 H 0.60351 0.18235 0.17229 0.0
C1513 C 0.56566 0.2443 0.16416 0.0
C1514 C 0.56126 0.22412 0.14647 0.0
H1515 H 0.58846 0.2593 0.19669 0.0
H1516 H 0.55509 0.26162 0.16189 0.0
C1517 C 0.57534 0.20202 0.14964 0.0
C1518 C 0.50589 0.13735 0.04409 0.0
C1519 C 0.48425 0.11965 0.04574 0.0
H1520 H 0.52313 0.17454 0.05466 0.0
C1521 C 0.46373 0.12617 0.06099 0.0
H1522 H 0.52237 0.13299 0.03304 0.0
C1523 C 0.46475 0.1495 0.07407 0.0
C1524 C 0.48587 0.16738 0.07169 0.0
H1525 H 0.44631 0.11369 0.06229 0.0
H1526 H 0.44836 0.15396 0.08524 0.0
C1527 C 0.50651 0.16113 0.05665 0.0
C1528 C 0.32519 0.43256 0.70196 0.0
C1529 C 0.31169 0.42653 0.72422 0.0
H1530 H 0.35811 0.45272 0.68597 0.0
C1531 C 0.32042 0.43874 0.74744 0.0
H1532 H 0.31873 0.4243 0.68353 0.0
C1533 C 0.34246 0.45581 0.74847 0.0
C1534 C 0.35647 0.46054 0.72647 0.0
H1535 H 0.3109 0.43445 0.76508 0.0
H1536 H 0.34917 0.46451 0.76665 0.0
C1537 C 0.34761 0.44904 0.70319 0.0
C1538 C 0.3116 0.60376 0.76509 0.0
C1539 C 0.30209 0.61954 0.74528 0.0
H1540 H 0.34049 0.57758 0.77741 0.0
C1541 C 0.31508 0.62102 0.72229 0.0
H1542 H 0.30188 0.60221 0.783 0.0
C1543 C 0.33721 0.6072 0.71919 0.0
C1544 C 0.34677 0.59137 0.73893 0.0
H1545 H 0.30843 0.63329 0.70683 0.0
H1546 H 0.34677 0.6089 0.70121 0.0
C1547 C 0.33365 0.58966 0.76189 0.0
C1548 C 0.8714 0.39806 0.46935 0.0
C1549 C 0.86717 0.42438 0.47017 0.0
H1550 H 0.85613 0.35987 0.47548 0.0
C1551 C 0.84287 0.43222 0.47759 0.0
H1552 H 0.89003 0.39142 0.46408 0.0
C1553 C 0.82327 0.41405 0.48423 0.0
C1554 C 0.82773 0.38772 0.48382 0.0
H1555 H 0.83901 0.4524 0.47824 0.0
H1556 H 0.80482 0.42066 0.49002 0.0
C1557 C 0.85198 0.37998 0.47613 0.0
C1558 C 0.70267 0.89984 0.77489 0.0
C1559 C 0.713 0.88771 0.75385 0.0
H1560 H 0.6835 0.93245 0.78828 0.0
C1561 C 0.70859 0.89807 0.72922 0.0
H1562 H 0.70575 0.89253 0.79415 0.0
C1563 C 0.69636 0.92114 0.72601 0.0
C1564 C 0.68765 0.9341 0.74723 0.0
H1565 H 0.71546 0.88885 0.71245 0.0
H1566 H 0.69456 0.92935 0.70697 0.0
C1567 C 0.68992 0.92275 0.77156 0.0
C1568 C 0.6404 0.59014 0.01086 0.0
C1569 C 0.64802 0.56471 0.01094 0.0
H1570 H 0.65226 0.62989 0.01329 0.0
C1571 C 0.67469 0.56014 0.01475 0.0
H1572 H 0.61997 0.59428 0.00842 0.0
C1573 C 0.69342 0.58069 0.01758 0.0
C1574 C 0.68577 0.60618 0.01682 0.0
H1575 H 0.68114 0.54072 0.0148 0.0
H1576 H 0.71386 0.5766 0.01997 0.0
C1577 C 0.65899 0.61058 0.01378 0.0
C1578 C 0.19537 0.62169 0.2523 0.0
C1579 C 0.21143 0.62279 0.23138 0.0
H1580 H 0.16918 0.59845 0.27431 0.0
C1581 C 0.21248 0.60121 0.21552 0.0
H1582 H 0.19435 0.63821 0.26472 0.0
C1583 C 0.19856 0.57836 0.22124 0.0
C1584 C 0.18298 0.577 0.24257 0.0
H1585 H 0.22487 0.60174 0.19932 0.0
H1586 H 0.20028 0.56176 0.20918 0.0
C1587 C 0.18096 0.59904 0.25766 0.0
C1588 C 0.84241 0.55283 0.06326 0.0
C1589 C 0.85868 0.5498 0.0428 0.0
H1590 H 0.80917 0.57042 0.07696 0.0
C1591 C 0.85245 0.56156 0.01922 0.0
H1592 H 0.84654 0.54369 0.08154 0.0
C1593 C 0.83105 0.57708 0.01657 0.0
C1594 C 0.81531 0.58085 0.03738 0.0
H1595 H 0.86472 0.55957 0.00314 0.0
H1596 H 0.82726 0.58664 0.99846 0.0
C1597 C 0.82089 0.56804 0.06054 0.0
C1598 C 0.16816 0.94804 0.98349 0.0
C1599 C 0.16128 0.96239 0.00467 0.0
H1600 H 0.19276 0.91974 0.96965 0.0
C1601 C 0.176 0.9607 0.02798 0.0
H1602 H 0.15707 0.94896 0.96532 0.0
C1603 C 0.19648 0.94421 0.03042 0.0
C1604 C 0.20256 0.9288 0.00968 0.0
H1605 H 0.17135 0.97182 0.0445 0.0
H1606 H 0.20693 0.9429 0.04891 0.0
C1607 C 0.18854 0.93129 0.98601 0.0
loop_
_geom_bond_atom_site_label_1
_geom_bond_atom_site_label_2
_geom_bond_distance
_geom_bond_site_symmetry_2
_ccdc_geom_bond_type
C0 C1 1.391 . S
C0 C4 1.391 . S
C0 H42 0.948 . S
C1 C0 1.391 . S
C1 C2 1.361 1_455 S
C2 C1 1.361 1_655 S
C2 H58 0.980 . S
C2 C59 1.391 . S
C3 C4 1.391 . S
C3 C7 1.397 1_556 S
C3 C59 1.415 1_455 S
C4 C0 1.391 . S
C4 C3 1.391 . S
C4 C5 1.399 . S
C5 C4 1.399 . S
C5 C8 1.396 1_556 S
C5 C17 1.453 . S
C5 C18 1.684 . S
H6 C30 0.948 . S
C7 C3 1.397 1_554 S
C7 C8 1.394 . S
C7 C26 1.723 . S
C8 C5 1.396 1_554 S
C8 C7 1.394 . S
C8 C38 1.723 . S
H9 C32 0.947 . S
H10 C33 0.948 . S
H11 C39 0.982 1_545 S
H12 C40 0.979 . S
H13 C40 0.980 . S
H14 C40 0.983 . S
H15 C39 0.979 . S
H16 C39 0.977 . S
C17 C5 1.453 . S
C17 H46 0.982 . S
C17 H47 0.979 . S
C17 H48 0.977 . S
C18 C5 1.684 . S
C18 H43 0.979 . S
C18 H44 0.980 . S
C18 H45 0.983 . S
C19 C20 1.391 . S
C19 C24 1.391 . S
C19 H49 0.948 . S
C20 C19 1.391 . S
C20 C21 1.390 . S
C21 C20 1.390 . S
C21 C22 1.392 1_655 S
C21 H50 0.948 1_545 S
C22 C21 1.392 1_455 S
C22 C23 1.419 . S
C22 H51 0.948 1_545 S
C23 C22 1.419 . S
C23 C24 1.391 1_455 S
C23 C27 1.397 . S
C24 C19 1.391 . S
C24 C23 1.391 1_655 S
C24 C25 1.399 . S
C25 C24 1.399 . S
C25 C26 1.396 1_655 S
C25 C28 1.453 . S
C25 C29 1.684 . S
C26 C7 1.723 . S
C26 C25 1.396 1_455 S
C26 C27 1.394 . S
C27 C23 1.397 . S
C27 C26 1.394 . S
C27 C37 1.723 . S
C28 C25 1.453 . S
C28 H52 0.982 1_655 S
C28 H53 0.979 . S
C28 H54 0.977 . S
C29 C25 1.684 . S
C29 H55 0.979 . S
C29 H56 0.980 . S
C29 H57 0.983 . S
C30 H6 0.948 . S
C30 C31 1.391 . S
C30 C35 1.391 . S
C31 C30 1.391 . S
C31 C32 1.391 1_554 S
C32 H9 0.947 . S
C32 C31 1.391 1_556 S
C32 C33 1.392 1_565 S
C33 H10 0.948 . S
C33 C32 1.392 1_545 S
C33 C34 1.419 1_556 S
C34 C33 1.419 1_554 S
C34 C35 1.391 1_545 S
C34 C38 1.397 . S
C35 C30 1.391 . S
C35 C34 1.391 1_565 S
C35 C36 1.399 . S
C36 C35 1.399 . S
C36 C37 1.396 1_565 S
C36 C39 1.453 . S
C36 C40 1.684 . S
C37 C27 1.723 . S
C37 C36 1.396 1_545 S
C37 C38 1.394 . S
C38 C8 1.723 . S
C38 C34 1.397 . S
C38 C37 1.394 . S
C39 H11 0.982 1_565 S
C39 H15 0.979 . S
C39 H16 0.977 . S
C39 C36 1.453 . S
C40 H12 0.979 . S
C40 H13 0.980 . S
C40 H14 0.983 . S
C40 C36 1.684 . S
H41 C59 0.951 1_554 S
H42 C0 0.948 . S
H43 C18 0.979 . S
H44 C18 0.980 . S
H45 C18 0.983 . S
H46 C17 0.982 . S
H47 C17 0.979 . S
H48 C17 0.977 . S
H49 C19 0.948 . S
H50 C21 0.948 1_565 S
H51 C22 0.948 1_565 S
H52 C28 0.982 1_455 S
H53 C28 0.979 . S
H54 C28 0.977 . S
H55 C29 0.979 . S
H56 C29 0.980 . S
H57 C29 0.983 . S
H58 C2 0.980 . S
C59 C2 1.391 . S
C59 C3 1.415 1_655 S
C59 H41 0.951 1_556 S
C60 C61 1.391 . S
C60 C64 1.391 . S
C60 H102 0.948 . S
C61 C60 1.391 . S
C61 C62 1.391 . S
C62 C61 1.391 . S
C62 H118 0.947 . S
C62 C119 1.392 . S
C63 C64 1.391 . S
C63 C67 1.397 . S
C63 C119 1.419 . S
C64 C60 1.391 . S
C64 C63 1.391 . S
C64 C65 1.399 . S
C65 C64 1.399 . S
C65 C68 1.396 . S
C65 C77 1.453 . S
C65 C78 1.684 . S
H66 C90 0.948 . S
C67 C63 1.397 . S
C67 C68 1.394 . S
C67 C86 1.723 . S
C68 C65 1.396 . S
C68 C67 1.394 . S
C68 C98 1.723 . S
H69 C92 0.947 . S
H70 C93 0.948 . S
H71 C99 0.982 . S
H72 C100 0.979 . S
H73 C100 0.980 . S
H74 C100 0.983 . S
H75 C99 0.979 . S
H76 C99 0.977 . S
C77 C65 1.453 . S
C77 H106 0.982 . S
C77 H107 0.979 . S
C77 H108 0.977 . S
C78 C65 1.684 . S
C78 H103 0.979 . S
C78 H104 0.980 . S
C78 H105 0.983 . S
C79 C80 1.391 . S
C79 C84 1.391 . S
C79 H109 0.948 . S
C80 C79 1.391 . S
C80 C81 1.391 . S
C81 C80 1.391 . S
C81 C82 1.392 . S
C81 H110 0.947 . S
C82 C81 1.392 . S
C82 C83 1.419 . S
C82 H111 0.948 . S
C83 C82 1.419 . S
C83 C84 1.391 . S
C83 C87 1.397 . S
C84 C79 1.391 . S
C84 C83 1.391 . S
C84 C85 1.399 . S
C85 C84 1.399 . S
C85 C86 1.396 . S
C85 C88 1.453 . S
C85 C89 1.684 . S
C86 C67 1.723 . S
C86 C85 1.396 . S
C86 C87 1.394 . S
C87 C83 1.397 . S
C87 C86 1.394 . S
C87 C97 1.723 . S
C88 C85 1.453 . S
C88 H112 0.982 . S
C88 H113 0.979 . S
C88 H114 0.977 . S
C89 C85 1.684 . S
C89 H115 0.979 . S
C89 H116 0.980 . S
C89 H117 0.983 . S
C90 H66 0.948 . S
C90 C91 1.391 . S
C90 C95 1.391 . S
C91 C90 1.391 . S
C91 C92 1.391 . S
C92 H69 0.947 . S
C92 C91 1.391 . S
C92 C93 1.392 . S
C93 H70 0.948 . S
C93 C92 1.392 . S
C93 C94 1.419 . S
C94 C93 1.419 . S
C94 C95 1.391 . S
C94 C98 1.397 . S
C95 C90 1.391 . S
C95 C94 1.391 . S
C95 C96 1.399 . S
C96 C95 1.399 . S
C96 C97 1.396 . S
C96 C99 1.453 . S
C96 C100 1.684 . S
C97 C87 1.723 . S
C97 C96 1.396 . S
C97 C98 1.394 . S
C98 C68 1.723 . S
C98 C94 1.397 . S
C98 C97 1.394 . S
C99 H71 0.982 . S
C99 H75 0.979 . S
C99 H76 0.977 . S
C99 C96 1.453 . S
C100 H72 0.979 . S
C100 H73 0.980 . S
C100 H74 0.983 . S
C100 C96 1.684 . S
H101 C119 0.948 . S
H102 C60 0.948 . S
H103 C78 0.979 . S
H104 C78 0.980 . S
H105 C78 0.983 . S
H106 C77 0.982 . S
H107 C77 0.979 . S
H108 C77 0.977 . S
H109 C79 0.948 . S
H110 C81 0.947 . S
H111 C82 0.948 . S
H112 C88 0.982 . S
H113 C88 0.979 . S
H114 C88 0.977 . S
H115 C89 0.979 . S
H116 C89 0.980 . S
H117 C89 0.983 . S
H118 C62 0.947 . S
C119 C62 1.392 . S
C119 C63 1.419 . S
C119 H101 0.948 . S
C120 C121 1.391 1_455 S
C120 C124 1.391 1_556 S
C120 H162 0.942 1_556 S
C121 C120 1.391 1_655 S
C121 C122 1.391 . S
C122 C121 1.391 . S
C122 H178 0.947 . S
C122 C179 1.392 . S
C123 C124 1.391 1_655 S
C123 C127 1.397 . S
C123 C179 1.419 1_554 S
C124 C120 1.391 1_554 S
C124 C123 1.391 1_455 S
C124 C125 1.399 . S
C125 C124 1.399 . S
C125 C128 1.370 1_455 S
C125 C137 1.453 . S
C125 C138 1.684 . S
H126 C150 0.948 . S
C127 C123 1.397 . S
C127 C128 1.423 . S
C127 C146 1.723 . S
C128 C125 1.370 1_655 S
C128 C127 1.423 . S
C128 C158 1.723 . S
H129 C152 0.947 . S
H130 C153 0.948 . S
H131 C159 0.982 . S
H132 C160 0.979 1_455 S
H133 C160 0.980 . S
H134 C160 0.983 . S
H135 C159 0.979 . S
H136 C159 0.977 . S
C137 C125 1.453 . S
C137 H166 0.978 1_455 S
C137 H167 0.979 . S
C137 H168 0.977 . S
C138 C125 1.684 . S
C138 H163 0.979 . S
C138 H164 0.980 . S
C138 H165 0.983 . S
C139 C140 1.391 . S
C139 C144 1.391 . S
C139 H169 0.948 1_554 S
C140 C139 1.391 . S
C140 C141 1.391 . S
C141 C140 1.391 . S
C141 C142 1.392 . S
C141 H170 0.947 . S
C142 C141 1.392 . S
C142 C143 1.419 . S
C142 H171 0.948 . S
C143 C142 1.419 . S
C143 C144 1.391 . S
C143 C147 1.397 . S
C144 C139 1.391 . S
C144 C143 1.391 . S
C144 C145 1.399 . S
C145 C144 1.399 . S
C145 C146 1.396 . S
C145 C148 1.453 . S
C145 C149 1.684 1_554 S
C146 C127 1.723 . S
C146 C145 1.396 . S
C146 C147 1.394 . S
C147 C143 1.397 . S
C147 C146 1.394 . S
C147 C157 1.723 . S
C148 C145 1.453 . S
C148 H172 0.982 . S
C148 H173 0.979 1_554 S
C148 H174 0.977 1_554 S
C149 C145 1.684 1_556 S
C149 H175 0.979 . S
C149 H176 0.980 . S
C149 H177 0.983 . S
C150 H126 0.948 . S
C150 C151 1.391 . S
C150 C155 1.391 . S
C151 C150 1.391 . S
C151 C152 1.391 . S
C152 H129 0.947 . S
C152 C151 1.391 . S
C152 C153 1.392 . S
C153 H130 0.948 . S
C153 C152 1.392 . S
C153 C154 1.419 . S
C154 C153 1.419 . S
C154 C155 1.391 . S
C154 C158 1.371 1_455 S
C155 C150 1.391 . S
C155 C154 1.391 . S
C155 C156 1.399 1_455 S
C156 C155 1.399 1_655 S
C156 C157 1.396 . S
C156 C159 1.453 . S
C156 C160 1.684 . S
C157 C147 1.723 . S
C157 C156 1.396 . S
C157 C158 1.421 . S
C158 C128 1.723 . S
C158 C154 1.371 1_655 S
C158 C157 1.421 . S
C159 H131 0.982 . S
C159 H135 0.979 . S
C159 H136 0.977 . S
C159 C156 1.453 . S
C160 H132 0.979 1_655 S
C160 H133 0.980 . S
C160 H134 0.983 . S
C160 C156 1.684 . S
H161 C179 0.948 . S
H162 C120 0.942 1_554 S
H163 C138 0.979 . S
H164 C138 0.980 . S
H165 C138 0.983 . S
H166 C137 0.978 1_655 S
H167 C137 0.979 . S
H168 C137 0.977 . S
H169 C139 0.948 1_556 S
H170 C141 0.947 . S
H171 C142 0.948 . S
H172 C148 0.982 . S
H173 C148 0.979 1_556 S
H174 C148 0.977 1_556 S
H175 C149 0.979 . S
H176 C149 0.980 . S
H177 C149 0.983 . S
H178 C122 0.947 . S
C179 C122 1.392 . S
C179 C123 1.419 1_556 S
C179 H161 0.948 . S
C180 C181 1.391 . S
C180 C184 1.391 . S
C180 H222 0.948 . S
C181 C180 1.391 . S
C181 C182 1.391 . S
C182 C181 1.391 . S
C182 H238 0.947 . S
C182 C239 1.392 . S
C183 C184 1.391 . S
C183 C187 1.397 . S
C183 C239 1.419 . S
C184 C180 1.391 . S
C184 C183 1.391 . S
C184 C185 1.399 . S
C185 C184 1.399 . S
C185 C188 1.396 . S
C185 C197 1.453 . S
C185 C198 1.684 . S
H186 C210 0.948 . S
C187 C183 1.397 . S
C187 C188 1.394 . S
C187 C206 1.723 . S
C188 C185 1.396 . S
C188 C187 1.394 . S
C188 C218 1.723 . S
H189 C212 0.947 . S
H190 C213 0.948 . S
H191 C219 0.982 . S
H192 C220 0.979 . S
H193 C220 0.980 . S
H194 C220 0.983 . S
H195 C219 0.979 . S
H196 C219 0.977 . S
C197 C185 1.453 . S
C197 H226 0.982 . S
C197 H227 0.979 . S
C197 H228 0.977 . S
C198 C185 1.684 . S
C198 H223 0.979 . S
C198 H224 0.980 . S
C198 H225 0.983 . S
C199 C200 1.391 . S
C199 C204 1.391 . S
C199 H229 0.948 . S
C200 C199 1.391 . S
C200 C201 1.391 . S
C201 C200 1.391 . S
C201 C202 1.392 . S
C201 H230 0.947 . S
C202 C201 1.392 . S
C202 C203 1.419 . S
C202 H231 0.948 . S
C203 C202 1.419 . S
C203 C204 1.391 . S
C203 C207 1.397 . S
C204 C199 1.391 . S
C204 C203 1.391 . S
C204 C205 1.399 . S
C205 C204 1.399 . S
C205 C206 1.396 . S
C205 C208 1.453 . S
C205 C209 1.684 . S
C206 C187 1.723 . S
C206 C205 1.396 . S
C206 C207 1.394 . S
C207 C203 1.397 . S
C207 C206 1.394 . S
C207 C217 1.723 . S
C208 C205 1.453 . S
C208 H232 0.982 . S
C208 H233 0.979 . S
C208 H234 0.977 . S
C209 C205 1.684 . S
C209 H235 0.979 . S
C209 H236 0.980 . S
C209 H237 0.983 . S
C210 H186 0.948 . S
C210 C211 1.391 . S
C210 C215 1.391 . S
C211 C210 1.391 . S
C211 C212 1.391 . S
C212 H189 0.947 . S
C212 C211 1.391 . S
C212 C213 1.392 . S
C213 H190 0.948 . S
C213 C212 1.392 . S
C213 C214 1.419 . S
C214 C213 1.419 . S
C214 C215 1.391 . S
C214 C218 1.397 . S
C215 C210 1.391 . S
C215 C214 1.391 . S
C215 C216 1.399 . S
C216 C215 1.399 . S
C216 C217 1.396 . S
C216 C219 1.453 . S
C216 C220 1.684 . S
C217 C207 1.723 . S
C217 C216 1.396 . S
C217 C218 1.394 . S
C218 C188 1.723 . S
C218 C214 1.397 . S
C218 C217 1.394 . S
C219 H191 0.982 . S
C219 H195 0.979 . S
C219 H196 0.977 . S
C219 C216 1.453 . S
C220 H192 0.979 . S
C220 H193 0.980 . S
C220 H194 0.983 . S
C220 C216 1.684 . S
H221 C239 0.948 . S
H222 C180 0.948 . S
H223 C198 0.979 . S
H224 C198 0.980 . S
H225 C198 0.983 . S
H226 C197 0.982 . S
H227 C197 0.979 . S
H228 C197 0.977 . S
H229 C199 0.948 . S
H230 C201 0.947 . S
H231 C202 0.948 . S
H232 C208 0.982 . S
H233 C208 0.979 . S
H234 C208 0.977 . S
H235 C209 0.979 . S
H236 C209 0.980 . S
H237 C209 0.983 . S
H238 C182 0.947 . S
C239 C182 1.392 . S
C239 C183 1.419 . S
C239 H221 0.948 . S
C240 C241 1.391 . S
C240 C244 1.391 . S
C240 H282 0.948 . S
C241 C240 1.391 . S
C241 C242 1.391 . S
C242 C241 1.391 . S
C242 H298 0.947 1_455 S
C242 C299 1.392 . S
C243 C244 1.391 . S
C243 C247 1.397 . S
C243 C299 1.419 . S
C244 C240 1.391 . S
C244 C243 1.391 . S
C244 C245 1.399 . S
C245 C244 1.399 . S
C245 C248 1.396 . S
C245 C257 1.453 . S
C245 C258 1.684 . S
H246 C270 0.948 . S
C247 C243 1.397 . S
C247 C248 1.394 . S
C247 C266 1.723 . S
C248 C245 1.396 . S
C248 C247 1.394 . S
C248 C278 1.723 . S
H249 C272 0.947 . S
H250 C273 0.948 . S
H251 C279 0.982 . S
H252 C280 0.979 . S
H253 C280 0.980 . S
H254 C280 0.983 . S
H255 C279 0.979 . S
H256 C279 0.977 . S
C257 C245 1.453 . S
C257 H286 0.982 . S
C257 H287 0.979 . S
C257 H288 0.977 . S
C258 C245 1.684 . S
C258 H283 0.979 . S
C258 H284 0.980 . S
C258 H285 0.983 . S
C259 C260 1.391 . S
C259 C264 1.391 1_655 S
C259 H289 0.948 . S
C260 C259 1.391 . S
C260 C261 1.391 1_665 S
C261 C260 1.391 1_445 S
C261 C262 1.392 . S
C261 H290 0.947 . S
C262 C261 1.392 . S
C262 C263 1.419 1_545 S
C262 H291 0.948 . S
C263 C262 1.419 1_565 S
C263 C264 1.391 . S
C263 C267 1.397 . S
C264 C259 1.391 1_455 S
C264 C263 1.391 . S
C264 C265 1.399 . S
C265 C264 1.399 . S
C265 C266 1.396 . S
C265 C268 1.453 1_455 S
C265 C269 1.684 1_455 S
C266 C247 1.723 . S
C266 C265 1.396 . S
C266 C267 1.394 . S
C267 C263 1.397 . S
C267 C266 1.394 . S
C267 C277 1.742 . S
C268 C265 1.453 1_655 S
C268 H292 0.982 . S
C268 H293 0.979 . S
C268 H294 0.977 . S
C269 C265 1.684 1_655 S
C269 H295 0.979 1_655 S
C269 H296 0.980 . S
C269 H297 0.983 . S
C270 H246 0.948 . S
C270 C271 1.391 . S
C270 C275 1.391 . S
C271 C270 1.391 . S
C271 C272 1.391 . S
C272 H249 0.947 . S
C272 C271 1.391 . S
C272 C273 1.392 1_545 S
C273 H250 0.948 . S
C273 C272 1.392 1_565 S
C273 C274 1.415 1_565 S
C274 C273 1.415 1_545 S
C274 C275 1.403 . S
C274 C278 1.389 1_545 S
C275 C270 1.391 . S
C275 C274 1.403 . S
C275 C276 1.399 . S
C276 C275 1.399 . S
C276 C277 1.372 1_545 S
C276 C279 1.453 . S
C276 C280 1.684 . S
C277 C267 1.742 . S
C277 C276 1.372 1_565 S
C277 C278 1.413 . S
C278 C248 1.723 . S
C278 C274 1.389 1_565 S
C278 C277 1.413 . S
C279 H251 0.982 . S
C279 H255 0.979 . S
C279 H256 0.977 . S
C279 C276 1.453 . S
C280 H252 0.979 . S
C280 H253 0.980 . S
C280 H254 0.983 . S
C280 C276 1.684 . S
H281 C299 0.948 . S
H282 C240 0.948 . S
H283 C258 0.979 . S
H284 C258 0.980 . S
H285 C258 0.983 . S
H286 C257 0.982 . S
H287 C257 0.979 . S
H288 C257 0.977 . S
H289 C259 0.948 . S
H290 C261 0.947 . S
H291 C262 0.948 . S
H292 C268 0.982 . S
H293 C268 0.979 . S
H294 C268 0.977 . S
H295 C269 0.979 1_455 S
H296 C269 0.980 . S
H297 C269 0.983 . S
H298 C242 0.947 1_655 S
C299 C242 1.392 . S
C299 C243 1.419 . S
C299 H281 0.948 . S
C300 C301 1.391 . S
C300 C304 1.391 . S
C300 H342 0.948 . S
C301 C300 1.391 . S
C301 C302 1.391 . S
C302 C301 1.391 . S
C302 H358 0.947 . S
C302 C359 1.392 . S
C303 C304 1.391 . S
C303 C307 1.397 . S
C303 C359 1.419 . S
C304 C300 1.391 . S
C304 C303 1.391 . S
C304 C305 1.399 . S
C305 C304 1.399 . S
C305 C308 1.396 . S
C305 C317 1.453 . S
C305 C318 1.684 . S
H306 C330 0.948 . S
C307 C303 1.397 . S
C307 C308 1.394 . S
C307 C326 1.723 . S
C308 C305 1.396 . S
C308 C307 1.394 . S
C308 C338 1.723 . S
H309 C332 0.947 . S
H310 C333 0.948 . S
H311 C339 0.982 . S
H312 C340 0.979 . S
H313 C340 0.980 . S
H314 C340 0.983 . S
H315 C339 0.979 . S
H316 C339 0.977 . S
C317 C305 1.453 . S
C317 H346 0.982 . S
C317 H347 0.979 . S
C317 H348 0.977 . S
C318 C305 1.684 . S
C318 H343 0.979 . S
C318 H344 0.980 . S
C318 H345 0.983 . S
C319 C320 1.391 . S
C319 C324 1.391 . S
C319 H349 0.948 . S
C320 C319 1.391 . S
C320 C321 1.391 . S
C321 C320 1.391 . S
C321 C322 1.392 . S
C321 H350 0.947 . S
C322 C321 1.392 . S
C322 C323 1.419 . S
C322 H351 0.948 . S
C323 C322 1.419 . S
C323 C324 1.391 . S
C323 C327 1.397 . S
C324 C319 1.391 . S
C324 C323 1.391 . S
C324 C325 1.399 . S
C325 C324 1.399 . S
C325 C326 1.396 . S
C325 C328 1.453 . S
C325 C329 1.684 . S
C326 C307 1.723 . S
C326 C325 1.396 . S
C326 C327 1.394 . S
C327 C323 1.397 . S
C327 C326 1.394 . S
C327 C337 1.723 . S
C328 C325 1.453 . S
C328 H352 0.982 . S
C328 H353 0.979 . S
C328 H354 0.977 . S
C329 C325 1.684 . S
C329 H355 0.979 . S
C329 H356 0.980 . S
C329 H357 0.983 . S
C330 H306 0.948 . S
C330 C331 1.391 . S
C330 C335 1.391 . S
C331 C330 1.391 . S
C331 C332 1.391 . S
C332 H309 0.947 . S
C332 C331 1.391 . S
C332 C333 1.392 . S
C333 H310 0.948 . S
C333 C332 1.392 . S
C333 C334 1.419 . S
C334 C333 1.419 . S
C334 C335 1.391 . S
C334 C338 1.397 . S
C335 C330 1.391 . S
C335 C334 1.391 . S
C335 C336 1.399 . S
C336 C335 1.399 . S
C336 C337 1.396 . S
C336 C339 1.453 . S
C336 C340 1.684 . S
C337 C327 1.723 . S
C337 C336 1.396 . S
C337 C338 1.394 . S
C338 C308 1.723 . S
C338 C334 1.397 . S
C338 C337 1.394 . S
C339 H311 0.982 . S
C339 H315 0.979 . S
C339 H316 0.977 . S
C339 C336 1.453 . S
C340 H312 0.979 . S
C340 H313 0.980 . S
C340 H314 0.983 . S
C340 C336 1.684 . S
H341 C359 0.948 . S
H342 C300 0.948 . S
H343 C318 0.979 . S
H344 C318 0.980 . S
H345 C318 0.983 . S
H346 C317 0.982 . S
H347 C317 0.979 . S
H348 C317 0.977 . S
H349 C319 0.948 . S
H350 C321 0.947 . S
H351 C322 0.948 . S
H352 C328 0.982 . S
H353 C328 0.979 . S
H354 C328 0.977 . S
H355 C329 0.979 . S
H356 C329 0.980 . S
H357 C329 0.983 . S
H358 C302 0.947 . S
C359 C302 1.392 . S
C359 C303 1.419 . S
C359 H341 0.948 . S
C360 C361 1.391 . S
C360 C364 1.391 . S
C360 H402 0.948 . S
C361 C360 1.391 . S
C361 C362 1.391 . S
C362 C361 1.391 . S
C362 H418 0.947 . S
C362 C419 1.392 . S
C363 C364 1.391 . S
C363 C367 1.397 . S
C363 C419 1.419 . S
C364 C360 1.391 . S
C364 C363 1.391 . S
C364 C365 1.399 . S
C365 C364 1.399 . S
C365 C368 1.396 . S
C365 C377 1.453 . S
C365 C378 1.684 . S
H366 C390 0.948 1_455 S
C367 C363 1.397 . S
C367 C368 1.394 . S
C367 C386 1.723 . S
C368 C365 1.396 . S
C368 C367 1.394 . S
C368 C398 1.723 . S
H369 C392 0.947 . S
H370 C393 0.948 . S
H371 C399 0.982 1_655 S
H372 C400 0.979 . S
H373 C400 0.980 . S
H374 C400 0.983 . S
H375 C399 0.979 . S
H376 C399 0.977 . S
C377 C365 1.453 . S
C377 H406 0.982 . S
C377 H407 0.979 . S
C377 H408 0.977 . S
C378 C365 1.684 . S
C378 H403 0.979 . S
C378 H404 0.980 . S
C378 H405 0.983 . S
C379 C380 1.391 . S
C379 C384 1.407 . S
C379 H409 0.948 . S
C380 C379 1.391 . S
C380 C381 1.391 . S
C381 C380 1.391 . S
C381 C382 1.392 . S
C381 H410 0.947 . S
C382 C381 1.392 . S
C382 C383 1.419 . S
C382 H411 0.948 . S
C383 C382 1.419 . S
C383 C384 1.394 . S
C383 C387 1.397 1_455 S
C384 C379 1.407 . S
C384 C383 1.394 . S
C384 C385 1.379 1_455 S
C385 C384 1.379 1_655 S
C385 C386 1.396 . S
C385 C388 1.453 . S
C385 C389 1.684 . S
C386 C367 1.723 . S
C386 C385 1.396 . S
C386 C387 1.394 . S
C387 C383 1.397 1_655 S
C387 C386 1.394 . S
C387 C397 1.723 . S
C388 C385 1.453 . S
C388 H412 0.982 . S
C388 H413 0.979 . S
C388 H414 0.977 . S
C389 C385 1.684 . S
C389 H415 0.979 . S
C389 H416 0.980 . S
C389 H417 0.983 . S
C390 H366 0.948 1_655 S
C390 C391 1.391 . S
C390 C395 1.391 . S
C391 C390 1.391 . S
C391 C392 1.391 . S
C392 H369 0.947 . S
C392 C391 1.391 . S
C392 C393 1.392 . S
C393 H370 0.948 . S
C393 C392 1.392 . S
C393 C394 1.419 . S
C394 C393 1.419 . S
C394 C395 1.391 . S
C394 C398 1.397 . S
C395 C390 1.391 . S
C395 C394 1.391 . S
C395 C396 1.399 1_655 S
C396 C395 1.399 1_455 S
C396 C397 1.396 1_455 S
C396 C399 1.453 . S
C396 C400 1.684 . S
C397 C387 1.723 . S
C397 C396 1.396 1_655 S
C397 C398 1.394 . S
C398 C368 1.723 . S
C398 C394 1.397 . S
C398 C397 1.394 . S
C399 H371 0.982 1_455 S
C399 H375 0.979 . S
C399 H376 0.977 . S
C399 C396 1.453 . S
C400 H372 0.979 . S
C400 H373 0.980 . S
C400 H374 0.983 . S
C400 C396 1.684 . S
H401 C419 0.948 . S
H402 C360 0.948 . S
H403 C378 0.979 . S
H404 C378 0.980 . S
H405 C378 0.983 . S
H406 C377 0.982 . S
H407 C377 0.979 . S
H408 C377 0.977 . S
H409 C379 0.948 . S
H410 C381 0.947 . S
H411 C382 0.948 . S
H412 C388 0.982 . S
H413 C388 0.979 . S
H414 C388 0.977 . S
H415 C389 0.979 . S
H416 C389 0.980 . S
H417 C389 0.983 . S
H418 C362 0.947 . S
C419 C362 1.392 . S
C419 C363 1.419 . S
C419 H401 0.948 . S
C420 C421 1.391 . S
C420 C424 1.391 . S
C420 H462 0.948 . S
C421 C420 1.391 . S
C421 C422 1.391 . S
C422 C421 1.391 . S
C422 H478 0.947 . S
C422 C479 1.392 . S
C423 C424 1.391 . S
C423 C427 1.397 . S
C423 C479 1.419 . S
C424 C420 1.391 . S
C424 C423 1.391 . S
C424 C425 1.399 . S
C425 C424 1.399 . S
C425 C428 1.396 . S
C425 C437 1.453 . S
C425 C438 1.684 . S
H426 C450 0.948 . S
C427 C423 1.397 . S
C427 C428 1.394 . S
C427 C446 1.723 . S
C428 C425 1.396 . S
C428 C427 1.394 . S
C428 C458 1.723 . S
H429 C452 0.947 . S
H430 C453 0.948 . S
H431 C459 0.982 . S
H432 C460 0.979 . S
H433 C460 0.980 . S
H434 C460 0.983 . S
H435 C459 0.979 . S
H436 C459 0.977 . S
C437 C425 1.453 . S
C437 H466 0.982 . S
C437 H467 0.979 . S
C437 H468 0.977 . S
C438 C425 1.684 . S
C438 H463 0.979 . S
C438 H464 0.980 . S
C438 H465 0.983 . S
C439 C440 1.391 . S
C439 C444 1.391 . S
C439 H469 0.948 . S
C440 C439 1.391 . S
C440 C441 1.391 . S
C441 C440 1.391 . S
C441 C442 1.392 . S
C441 H470 0.947 . S
C442 C441 1.392 . S
C442 C443 1.419 . S
C442 H471 0.948 . S
C443 C442 1.419 . S
C443 C444 1.391 . S
C443 C447 1.397 . S
C444 C439 1.391 . S
C444 C443 1.391 . S
C444 C445 1.399 . S
C445 C444 1.399 . S
C445 C446 1.396 . S
C445 C448 1.453 . S
C445 C449 1.684 . S
C446 C427 1.723 . S
C446 C445 1.396 . S
C446 C447 1.394 . S
C447 C443 1.397 . S
C447 C446 1.394 . S
C447 C457 1.723 . S
C448 C445 1.453 . S
C448 H472 0.982 . S
C448 H473 0.979 . S
C448 H474 0.977 . S
C449 C445 1.684 . S
C449 H475 0.979 . S
C449 H476 0.980 . S
C449 H477 0.983 . S
C450 H426 0.948 . S
C450 C451 1.391 . S
C450 C455 1.391 . S
C451 C450 1.391 . S
C451 C452 1.391 . S
C452 H429 0.947 . S
C452 C451 1.391 . S
C452 C453 1.392 . S
C453 H430 0.948 . S
C453 C452 1.392 . S
C453 C454 1.419 . S
C454 C453 1.419 . S
C454 C455 1.391 . S
C454 C458 1.397 . S
C455 C450 1.391 . S
C455 C454 1.391 . S
C455 C456 1.399 . S
C456 C455 1.399 . S
C456 C457 1.396 . S
C456 C459 1.453 . S
C456 C460 1.684 . S
C457 C447 1.723 . S
C457 C456 1.396 . S
C457 C458 1.394 . S
C458 C428 1.723 . S
C458 C454 1.397 . S
C458 C457 1.394 . S
C459 H431 0.982 . S
C459 H435 0.979 . S
C459 H436 0.977 . S
C459 C456 1.453 . S
C460 H432 0.979 . S
C460 H433 0.980 . S
C460 H434 0.983 . S
C460 C456 1.684 . S
H461 C479 0.948 . S
H462 C420 0.948 . S
H463 C438 0.979 . S
H464 C438 0.980 . S
H465 C438 0.983 . S
H466 C437 0.982 . S
H467 C437 0.979 . S
H468 C437 0.977 . S
H469 C439 0.948 . S
H470 C441 0.947 . S
H471 C442 0.948 . S
H472 C448 0.982 . S
H473 C448 0.979 . S
H474 C448 0.977 . S
H475 C449 0.979 . S
H476 C449 0.980 . S
H477 C449 0.983 . S
H478 C422 0.947 . S
C479 C422 1.392 . S
C479 C423 1.419 . S
C479 H461 0.948 . S
C480 C481 1.391 . S
C480 C484 1.391 . S
C480 H522 0.948 . S
C481 C480 1.391 . S
C481 C482 1.391 . S
C482 C481 1.391 . S
C482 H538 0.947 . S
C482 C539 1.392 . S
C483 C484 1.391 . S
C483 C487 1.397 . S
C483 C539 1.419 . S
C484 C480 1.391 . S
C484 C483 1.391 . S
C484 C485 1.399 . S
C485 C484 1.399 . S
C485 C488 1.396 . S
C485 C497 1.453 . S
C485 C498 1.684 . S
H486 C510 0.948 . S
C487 C483 1.397 . S
C487 C488 1.394 . S
C487 C506 1.723 . S
C488 C485 1.396 . S
C488 C487 1.394 . S
C488 C518 1.723 . S
H489 C512 0.947 . S
H490 C513 0.948 . S
H491 C519 0.982 . S
H492 C520 0.979 . S
H493 C520 0.980 . S
H494 C520 0.983 . S
H495 C519 0.979 . S
H496 C519 0.977 . S
C497 C485 1.453 . S
C497 H526 0.982 . S
C497 H527 0.979 . S
C497 H528 0.977 . S
C498 C485 1.684 . S
C498 H523 0.979 . S
C498 H524 0.980 . S
C498 H525 0.983 . S
C499 C500 1.391 . S
C499 C504 1.391 . S
C499 H529 0.948 . S
C500 C499 1.391 . S
C500 C501 1.391 . S
C501 C500 1.391 . S
C501 C502 1.392 . S
C501 H530 0.947 . S
C502 C501 1.392 . S
C502 C503 1.419 . S
C502 H531 0.948 . S
C503 C502 1.419 . S
C503 C504 1.391 . S
C503 C507 1.397 . S
C504 C499 1.391 . S
C504 C503 1.391 . S
C504 C505 1.399 . S
C505 C504 1.399 . S
C505 C506 1.396 . S
C505 C508 1.453 . S
C505 C509 1.684 . S
C506 C487 1.723 . S
C506 C505 1.396 . S
C506 C507 1.394 . S
C507 C503 1.397 . S
C507 C506 1.394 . S
C507 C517 1.723 . S
C508 C505 1.453 . S
C508 H532 0.982 . S
C508 H533 0.979 . S
C508 H534 0.977 . S
C509 C505 1.684 . S
C509 H535 0.979 . S
C509 H536 0.980 . S
C509 H537 0.983 . S
C510 H486 0.948 . S
C510 C511 1.391 . S
C510 C515 1.391 . S
C511 C510 1.391 . S
C511 C512 1.391 . S
C512 H489 0.947 . S
C512 C511 1.391 . S
C512 C513 1.392 . S
C513 H490 0.948 . S
C513 C512 1.392 . S
C513 C514 1.419 . S
C514 C513 1.419 . S
C514 C515 1.391 . S
C514 C518 1.397 . S
C515 C510 1.391 . S
C515 C514 1.391 . S
C515 C516 1.399 . S
C516 C515 1.399 . S
C516 C517 1.396 . S
C516 C519 1.453 . S
C516 C520 1.684 . S
C517 C507 1.723 . S
C517 C516 1.396 . S
C517 C518 1.394 . S
C518 C488 1.723 . S
C518 C514 1.397 . S
C518 C517 1.394 . S
C519 H491 0.982 . S
C519 H495 0.979 . S
C519 H496 0.977 . S
C519 C516 1.453 . S
C520 H492 0.979 . S
C520 H493 0.980 . S
C520 H494 0.983 . S
C520 C516 1.684 . S
H521 C539 0.948 . S
H522 C480 0.948 . S
H523 C498 0.979 . S
H524 C498 0.980 . S
H525 C498 0.983 . S
H526 C497 0.982 . S
H527 C497 0.979 . S
H528 C497 0.977 . S
H529 C499 0.948 . S
H530 C501 0.947 . S
H531 C502 0.948 . S
H532 C508 0.982 . S
H533 C508 0.979 . S
H534 C508 0.977 . S
H535 C509 0.979 . S
H536 C509 0.980 . S
H537 C509 0.983 . S
H538 C482 0.947 . S
C539 C482 1.392 . S
C539 C483 1.419 . S
C539 H521 0.948 . S
C540 C541 1.391 . S
C540 C544 1.391 . S
C540 H582 0.948 . S
C541 C540 1.391 . S
C541 C542 1.391 . S
C542 C541 1.391 . S
C542 H598 0.947 . S
C542 C599 1.392 . S
C543 C544 1.391 . S
C543 C547 1.397 . S
C543 C599 1.419 . S
C544 C540 1.391 . S
C544 C543 1.391 . S
C544 C545 1.399 . S
C545 C544 1.399 . S
C545 C548 1.396 . S
C545 C557 1.453 . S
C545 C558 1.684 . S
H546 C570 0.948 1_545 S
C547 C543 1.397 . S
C547 C548 1.394 . S
C547 C566 1.723 . S
C548 C545 1.396 . S
C548 C547 1.394 . S
C548 C578 1.723 . S
H549 C572 0.947 . S
H550 C573 0.948 . S
H551 C579 0.982 1_565 S
H552 C580 0.979 . S
H553 C580 0.980 . S
H554 C580 0.983 . S
H555 C579 0.979 . S
H556 C579 0.977 . S
C557 C545 1.453 . S
C557 H586 0.982 . S
C557 H587 0.979 . S
C557 H588 0.977 . S
C558 C545 1.684 . S
C558 H583 0.979 . S
C558 H584 0.980 . S
C558 H585 0.983 . S
C559 C560 1.391 . S
C559 C564 1.414 . S
C559 H589 0.948 . S
C560 C559 1.391 . S
C560 C561 1.391 . S
C561 C560 1.391 . S
C561 C562 1.392 . S
C561 H590 0.947 . S
C562 C561 1.392 . S
C562 C563 1.419 . S
C562 H591 0.948 . S
C563 C562 1.419 . S
C563 C564 1.396 . S
C563 C567 1.397 1_545 S
C564 C559 1.414 . S
C564 C563 1.396 . S
C564 C565 1.369 1_545 S
C565 C564 1.369 1_565 S
C565 C566 1.396 . S
C565 C568 1.453 . S
C565 C569 1.684 . S
C566 C547 1.723 . S
C566 C565 1.396 . S
C566 C567 1.394 . S
C567 C563 1.397 1_565 S
C567 C566 1.394 . S
C567 C577 1.723 . S
C568 C565 1.453 . S
C568 H592 0.982 . S
C568 H593 0.979 . S
C568 H594 0.977 . S
C569 C565 1.684 . S
C569 H595 0.979 . S
C569 H596 0.980 . S
C569 H597 0.983 . S
C570 H546 0.948 1_565 S
C570 C571 1.391 . S
C570 C575 1.391 . S
C571 C570 1.391 . S
C571 C572 1.391 . S
C572 H549 0.947 . S
C572 C571 1.391 . S
C572 C573 1.392 . S
C573 H550 0.948 . S
C573 C572 1.392 . S
C573 C574 1.419 . S
C574 C573 1.419 . S
C574 C575 1.391 . S
C574 C578 1.397 . S
C575 C570 1.391 . S
C575 C574 1.391 . S
C575 C576 1.399 1_565 S
C576 C575 1.399 1_545 S
C576 C577 1.396 1_545 S
C576 C579 1.453 . S
C576 C580 1.684 . S
C577 C567 1.723 . S
C577 C576 1.396 1_565 S
C577 C578 1.394 . S
C578 C548 1.723 . S
C578 C574 1.397 . S
C578 C577 1.394 . S
C579 H551 0.982 1_545 S
C579 H555 0.979 . S
C579 H556 0.977 . S
C579 C576 1.453 . S
C580 H552 0.979 . S
C580 H553 0.980 . S
C580 H554 0.983 . S
C580 C576 1.684 . S
H581 C599 0.948 . S
H582 C540 0.948 . S
H583 C558 0.979 . S
H584 C558 0.980 . S
H585 C558 0.983 . S
H586 C557 0.982 . S
H587 C557 0.979 . S
H588 C557 0.977 . S
H589 C559 0.948 . S
H590 C561 0.947 . S
H591 C562 0.948 . S
H592 C568 0.982 . S
H593 C568 0.979 . S
H594 C568 0.977 . S
H595 C569 0.979 . S
H596 C569 0.980 . S
H597 C569 0.983 . S
H598 C542 0.947 . S
C599 C542 1.392 . S
C599 C543 1.419 . S
C599 H581 0.948 . S
C600 C601 1.391 . S
C600 C604 1.391 . S
C600 H642 0.948 . S
C601 C600 1.391 . S
C601 C602 1.391 . S
C602 C601 1.391 . S
C602 H658 0.947 . S
C602 C659 1.392 . S
C603 C604 1.391 . S
C603 C607 1.397 . S
C603 C659 1.419 . S
C604 C600 1.391 . S
C604 C603 1.391 . S
C604 C605 1.399 . S
C605 C604 1.399 . S
C605 C608 1.396 . S
C605 C617 1.453 . S
C605 C618 1.684 . S
H606 C630 0.948 . S
C607 C603 1.397 . S
C607 C608 1.394 . S
C607 C626 1.723 . S
C608 C605 1.396 . S
C608 C607 1.394 . S
C608 C638 1.723 . S
H609 C632 0.947 . S
H610 C633 0.948 . S
H611 C639 0.982 . S
H612 C640 0.979 . S
H613 C640 0.980 . S
H614 C640 0.983 . S
H615 C639 0.979 . S
H616 C639 0.977 . S
C617 C605 1.453 . S
C617 H646 0.982 . S
C617 H647 0.979 . S
C617 H648 0.977 . S
C618 C605 1.684 . S
C618 H643 0.979 . S
C618 H644 0.980 . S
C618 H645 0.983 . S
C619 C620 1.391 . S
C619 C624 1.391 . S
C619 H649 0.948 . S
C620 C619 1.391 . S
C620 C621 1.391 . S
C621 C620 1.391 . S
C621 C622 1.392 . S
C621 H650 0.947 . S
C622 C621 1.392 . S
C622 C623 1.419 . S
C622 H651 0.948 . S
C623 C622 1.419 . S
C623 C624 1.391 . S
C623 C627 1.397 . S
C624 C619 1.391 . S
C624 C623 1.391 . S
C624 C625 1.399 . S
C625 C624 1.399 . S
C625 C626 1.396 . S
C625 C628 1.453 . S
C625 C629 1.684 . S
C626 C607 1.723 . S
C626 C625 1.396 . S
C626 C627 1.394 . S
C627 C623 1.397 . S
C627 C626 1.394 . S
C627 C637 1.723 . S
C628 C625 1.453 . S
C628 H652 0.982 . S
C628 H653 0.979 . S
C628 H654 0.977 . S
C629 C625 1.684 . S
C629 H655 0.979 . S
C629 H656 0.980 . S
C629 H657 0.983 . S
C630 H606 0.948 . S
C630 C631 1.391 . S
C630 C635 1.391 . S
C631 C630 1.391 . S
C631 C632 1.391 . S
C632 H609 0.947 . S
C632 C631 1.391 . S
C632 C633 1.392 . S
C633 H610 0.948 . S
C633 C632 1.392 . S
C633 C634 1.419 . S
C634 C633 1.419 . S
C634 C635 1.391 . S
C634 C638 1.397 . S
C635 C630 1.391 . S
C635 C634 1.391 . S
C635 C636 1.399 . S
C636 C635 1.399 . S
C636 C637 1.396 . S
C636 C639 1.453 . S
C636 C640 1.684 . S
C637 C627 1.723 . S
C637 C636 1.396 . S
C637 C638 1.394 . S
C638 C608 1.723 . S
C638 C634 1.397 . S
C638 C637 1.394 . S
C639 H611 0.982 . S
C639 H615 0.979 . S
C639 H616 0.977 . S
C639 C636 1.453 . S
C640 H612 0.979 . S
C640 H613 0.980 . S
C640 H614 0.983 . S
C640 C636 1.684 . S
H641 C659 0.948 . S
H642 C600 0.948 . S
H643 C618 0.979 . S
H644 C618 0.980 . S
H645 C618 0.983 . S
H646 C617 0.982 . S
H647 C617 0.979 . S
H648 C617 0.977 . S
H649 C619 0.948 . S
H650 C621 0.947 . S
H651 C622 0.948 . S
H652 C628 0.982 . S
H653 C628 0.979 . S
H654 C628 0.977 . S
H655 C629 0.979 . S
H656 C629 0.980 . S
H657 C629 0.983 . S
H658 C602 0.947 . S
C659 C602 1.392 . S
C659 C603 1.419 . S
C659 H641 0.948 . S
C660 C661 1.391 . S
C660 C664 1.391 . S
C660 H702 0.948 . S
C661 C660 1.391 . S
C661 C662 1.391 . S
C662 C661 1.391 . S
C662 H718 0.947 . S
C662 C719 1.392 . S
C663 C664 1.391 . S
C663 C667 1.397 . S
C663 C719 1.419 . S
C664 C660 1.391 . S
C664 C663 1.391 . S
C664 C665 1.399 . S
C665 C664 1.399 . S
C665 C668 1.396 . S
C665 C677 1.453 . S
C665 C678 1.684 . S
H666 C690 0.948 . S
C667 C663 1.397 . S
C667 C668 1.394 . S
C667 C686 1.723 . S
C668 C665 1.396 . S
C668 C667 1.394 . S
C668 C698 1.723 . S
H669 C692 0.947 . S
H670 C693 0.948 . S
H671 C699 0.982 . S
H672 C700 0.979 . S
H673 C700 0.980 . S
H674 C700 0.983 . S
H675 C699 0.979 . S
H676 C699 0.977 . S
C677 C665 1.453 . S
C677 H706 0.982 . S
C677 H707 0.979 . S
C677 H708 0.977 . S
C678 C665 1.684 . S
C678 H703 0.979 . S
C678 H704 0.980 . S
C678 H705 0.983 . S
C679 C680 1.391 . S
C679 C684 1.391 . S
C679 H709 0.948 . S
C680 C679 1.391 . S
C680 C681 1.391 . S
C681 C680 1.391 . S
C681 C682 1.392 . S
C681 H710 0.947 . S
C682 C681 1.392 . S
C682 C683 1.419 . S
C682 H711 0.948 . S
C683 C682 1.419 . S
C683 C684 1.391 . S
C683 C687 1.397 . S
C684 C679 1.391 . S
C684 C683 1.391 . S
C684 C685 1.399 . S
C685 C684 1.399 . S
C685 C686 1.396 . S
C685 C688 1.453 . S
C685 C689 1.684 . S
C686 C667 1.723 . S
C686 C685 1.396 . S
C686 C687 1.394 . S
C687 C683 1.397 . S
C687 C686 1.394 . S
C687 C697 1.723 . S
C688 C685 1.453 . S
C688 H712 0.982 . S
C688 H713 0.979 . S
C688 H714 0.977 . S
C689 C685 1.684 . S
C689 H715 0.979 . S
C689 H716 0.980 . S
C689 H717 0.983 . S
C690 H666 0.948 . S
C690 C691 1.391 . S
C690 C695 1.391 . S
C691 C690 1.391 . S
C691 C692 1.391 . S
C692 H669 0.947 . S
C692 C691 1.391 . S
C692 C693 1.392 . S
C693 H670 0.948 . S
C693 C692 1.392 . S
C693 C694 1.419 . S
C694 C693 1.419 . S
C694 C695 1.391 . S
C694 C698 1.397 . S
C695 C690 1.391 . S
C695 C694 1.391 . S
C695 C696 1.399 . S
C696 C695 1.399 . S
C696 C697 1.396 . S
C696 C699 1.453 . S
C696 C700 1.684 . S
C697 C687 1.723 . S
C697 C696 1.396 . S
C697 C698 1.394 . S
C698 C668 1.723 . S
C698 C694 1.397 . S
C698 C697 1.394 . S
C699 H671 0.982 . S
C699 H675 0.979 . S
C699 H676 0.977 . S
C699 C696 1.453 . S
C700 H672 0.979 . S
C700 H673 0.980 . S
C700 H674 0.983 . S
C700 C696 1.684 . S
H701 C719 0.948 . S
H702 C660 0.948 . S
H703 C678 0.979 . S
H704 C678 0.980 . S
H705 C678 0.983 . S
H706 C677 0.982 . S
H707 C677 0.979 . S
H708 C677 0.977 . S
H709 C679 0.948 . S
H710 C681 0.947 . S
H711 C682 0.948 . S
H712 C688 0.982 . S
H713 C688 0.979 . S
H714 C688 0.977 . S
H715 C689 0.979 . S
H716 C689 0.980 . S
H717 C689 0.983 . S
H718 C662 0.947 . S
C719 C662 1.392 . S
C719 C663 1.419 . S
C719 H701 0.948 . S
C720 C721 1.391 . S
C720 C724 1.391 . S
C720 H762 0.948 . S
C721 C720 1.391 . S
C721 C722 1.391 . S
C722 C721 1.391 . S
C722 H778 0.947 . S
C722 C779 1.392 . S
C723 C724 1.391 . S
C723 C727 1.397 . S
C723 C779 1.419 . S
C724 C720 1.391 . S
C724 C723 1.391 . S
C724 C725 1.399 . S
C725 C724 1.399 . S
C725 C728 1.396 . S
C725 C737 1.453 . S
C725 C738 1.684 . S
H726 C750 0.948 . S
C727 C723 1.397 . S
C727 C728 1.394 . S
C727 C746 1.723 . S
C728 C725 1.396 . S
C728 C727 1.394 . S
C728 C758 1.723 . S
H729 C752 0.947 . S
H730 C753 0.948 . S
H731 C759 0.982 . S
H732 C760 0.979 . S
H733 C760 0.980 . S
H734 C760 0.983 . S
H735 C759 0.979 . S
H736 C759 0.977 . S
C737 C725 1.453 . S
C737 H766 0.982 . S
C737 H767 0.979 . S
C737 H768 0.977 . S
C738 C725 1.684 . S
C738 H763 0.979 . S
C738 H764 0.980 . S
C738 H765 0.983 . S
C739 C740 1.391 . S
C739 C744 1.391 . S
C739 H769 0.948 . S
C740 C739 1.391 . S
C740 C741 1.391 . S
C741 C740 1.391 . S
C741 C742 1.392 . S
C741 H770 0.947 . S
C742 C741 1.392 . S
C742 C743 1.419 . S
C742 H771 0.948 . S
C743 C742 1.419 . S
C743 C744 1.391 . S
C743 C747 1.397 . S
C744 C739 1.391 . S
C744 C743 1.391 . S
C744 C745 1.399 . S
C745 C744 1.399 . S
C745 C746 1.396 . S
C745 C748 1.453 . S
C745 C749 1.684 . S
C746 C727 1.723 . S
C746 C745 1.396 . S
C746 C747 1.394 . S
C747 C743 1.397 . S
C747 C746 1.394 . S
C747 C757 1.723 . S
C748 C745 1.453 . S
C748 H772 0.982 . S
C748 H773 0.979 . S
C748 H774 0.977 . S
C749 C745 1.684 . S
C749 H775 0.979 . S
C749 H776 0.980 . S
C749 H777 0.983 . S
C750 H726 0.948 . S
C750 C751 1.391 . S
C750 C755 1.391 . S
C751 C750 1.391 . S
C751 C752 1.391 . S
C752 H729 0.947 . S
C752 C751 1.391 . S
C752 C753 1.392 . S
C753 H730 0.948 . S
C753 C752 1.392 . S
C753 C754 1.419 . S
C754 C753 1.419 . S
C754 C755 1.391 . S
C754 C758 1.397 . S
C755 C750 1.391 . S
C755 C754 1.391 . S
C755 C756 1.399 . S
C756 C755 1.399 . S
C756 C757 1.396 . S
C756 C759 1.453 . S
C756 C760 1.684 . S
C757 C747 1.723 . S
C757 C756 1.396 . S
C757 C758 1.394 . S
C758 C728 1.723 . S
C758 C754 1.397 . S
C758 C757 1.394 . S
C759 H731 0.982 . S
C759 H735 0.979 . S
C759 H736 0.977 . S
C759 C756 1.453 . S
C760 H732 0.979 . S
C760 H733 0.980 . S
C760 H734 0.983 . S
C760 C756 1.684 . S
H761 C779 0.948 . S
H762 C720 0.948 . S
H763 C738 0.979 . S
H764 C738 0.980 . S
H765 C738 0.983 . S
H766 C737 0.982 . S
H767 C737 0.979 . S
H768 C737 0.977 . S
H769 C739 0.948 . S
H770 C741 0.947 . S
H771 C742 0.948 . S
H772 C748 0.982 . S
H773 C748 0.979 . S
H774 C748 0.977 . S
H775 C749 0.979 . S
H776 C749 0.980 . S
H777 C749 0.983 . S
H778 C722 0.947 . S
C779 C722 1.392 . S
C779 C723 1.419 . S
C779 H761 0.948 . S
C780 C781 1.391 . S
C780 C784 1.391 . S
C780 H822 0.948 . S
C781 C780 1.391 . S
C781 C782 1.391 . S
C782 C781 1.391 . S
C782 H838 0.947 . S
C782 C839 1.392 1_554 S
C783 C784 1.391 1_556 S
C783 C787 1.397 . S
C783 C839 1.419 . S
C784 C780 1.391 . S
C784 C783 1.391 1_554 S
C784 C785 1.399 . S
C785 C784 1.399 . S
C785 C788 1.396 1_554 S
C785 C797 1.453 . S
C785 C798 1.684 . S
H786 C810 0.948 . S
C787 C783 1.397 . S
C787 C788 1.394 . S
C787 C806 1.723 . S
C788 C785 1.396 1_556 S
C788 C787 1.394 . S
C788 C818 1.723 . S
H789 C812 0.947 . S
H790 C813 0.941 1_554 S
H791 C819 0.982 . S
H792 C820 0.979 . S
H793 C820 0.980 . S
H794 C820 0.983 . S
H795 C819 0.979 . S
H796 C819 0.977 . S
C797 C785 1.453 . S
C797 H826 0.982 . S
C797 H827 0.979 . S
C797 H828 0.977 . S
C798 C785 1.684 . S
C798 H823 1.007 . S
C798 H824 0.980 . S
C798 H825 0.983 . S
C799 C800 1.391 . S
C799 C804 1.391 . S
C799 H829 0.948 . S
C800 C799 1.391 . S
C800 C801 1.391 . S
C801 C800 1.391 . S
C801 C802 1.392 . S
C801 H830 0.947 . S
C802 C801 1.392 . S
C802 C803 1.419 . S
C802 H831 0.948 . S
C803 C802 1.419 . S
C803 C804 1.391 . S
C803 C807 1.397 . S
C804 C799 1.391 . S
C804 C803 1.391 . S
C804 C805 1.399 . S
C805 C804 1.399 . S
C805 C806 1.396 . S
C805 C808 1.453 . S
C805 C809 1.684 . S
C806 C787 1.723 . S
C806 C805 1.396 . S
C806 C807 1.394 . S
C807 C803 1.397 . S
C807 C806 1.394 . S
C807 C817 1.723 . S
C808 C805 1.453 . S
C808 H832 0.982 . S
C808 H833 0.979 . S
C808 H834 0.977 . S
C809 C805 1.684 . S
C809 H835 0.979 . S
C809 H836 0.980 . S
C809 H837 0.983 . S
C810 H786 0.948 . S
C810 C811 1.391 . S
C810 C815 1.391 . S
C811 C810 1.391 . S
C811 C812 1.391 1_556 S
C812 H789 0.947 . S
C812 C811 1.391 1_554 S
C812 C813 1.390 1_554 S
C813 H790 0.941 1_556 S
C813 C812 1.390 1_556 S
C813 C814 1.428 . S
C814 C813 1.428 . S
C814 C815 1.391 . S
C814 C818 1.397 . S
C815 C810 1.391 . S
C815 C814 1.391 . S
C815 C816 1.399 . S
C816 C815 1.399 . S
C816 C817 1.396 . S
C816 C819 1.453 . S
C816 C820 1.684 . S
C817 C807 1.723 . S
C817 C816 1.396 . S
C817 C818 1.394 . S
C818 C788 1.723 . S
C818 C814 1.397 . S
C818 C817 1.394 . S
C819 H791 0.982 . S
C819 H795 0.979 . S
C819 H796 0.977 . S
C819 C816 1.453 . S
C820 H792 0.979 . S
C820 H793 0.980 . S
C820 H794 0.983 . S
C820 C816 1.684 . S
H821 C839 0.948 . S
H822 C780 0.948 . S
H823 C798 1.007 . S
H824 C798 0.980 . S
H825 C798 0.983 . S
H826 C797 0.982 . S
H827 C797 0.979 . S
H828 C797 0.977 . S
H829 C799 0.948 . S
H830 C801 0.947 . S
H831 C802 0.948 . S
H832 C808 0.982 . S
H833 C808 0.979 . S
H834 C808 0.977 . S
H835 C809 0.979 . S
H836 C809 0.980 . S
H837 C809 0.983 . S
H838 C782 0.947 . S
C839 C782 1.392 1_556 S
C839 C783 1.419 . S
C839 H821 0.948 . S
C840 C841 1.391 . S
C840 C844 1.391 . S
C840 H882 0.948 . S
C841 C840 1.391 . S
C841 C842 1.391 . S
C842 C841 1.391 . S
C842 H898 0.947 . S
C842 C899 1.392 . S
C843 C844 1.391 . S
C843 C847 1.397 . S
C843 C899 1.419 . S
C844 C840 1.391 . S
C844 C843 1.391 . S
C844 C845 1.399 . S
C845 C844 1.399 . S
C845 C848 1.396 . S
C845 C857 1.453 . S
C845 C858 1.684 . S
H846 C870 0.948 . S
C847 C843 1.397 . S
C847 C848 1.394 . S
C847 C866 1.723 . S
C848 C845 1.396 . S
C848 C847 1.394 . S
C848 C878 1.723 . S
H849 C872 0.947 . S
H850 C873 0.948 . S
H851 C879 0.982 . S
H852 C880 0.979 . S
H853 C880 0.980 . S
H854 C880 0.983 . S
H855 C879 0.979 . S
H856 C879 0.977 . S
C857 C845 1.453 . S
C857 H886 0.982 . S
C857 H887 0.979 . S
C857 H888 0.977 . S
C858 C845 1.684 . S
C858 H883 0.979 . S
C858 H884 0.980 . S
C858 H885 0.983 . S
C859 C860 1.391 . S
C859 C864 1.391 . S
C859 H889 0.948 . S
C860 C859 1.391 . S
C860 C861 1.391 . S
C861 C860 1.391 . S
C861 C862 1.392 . S
C861 H890 0.947 . S
C862 C861 1.392 . S
C862 C863 1.419 . S
C862 H891 0.948 . S
C863 C862 1.419 . S
C863 C864 1.391 . S
C863 C867 1.397 . S
C864 C859 1.391 . S
C864 C863 1.391 . S
C864 C865 1.399 . S
C865 C864 1.399 . S
C865 C866 1.396 . S
C865 C868 1.453 . S
C865 C869 1.684 . S
C866 C847 1.723 . S
C866 C865 1.396 . S
C866 C867 1.394 . S
C867 C863 1.397 . S
C867 C866 1.394 . S
C867 C877 1.723 . S
C868 C865 1.453 . S
C868 H892 0.982 . S
C868 H893 0.979 . S
C868 H894 0.977 . S
C869 C865 1.684 . S
C869 H895 0.979 . S
C869 H896 0.980 . S
C869 H897 0.983 . S
C870 H846 0.948 . S
C870 C871 1.391 . S
C870 C875 1.391 . S
C871 C870 1.391 . S
C871 C872 1.391 . S
C872 H849 0.947 . S
C872 C871 1.391 . S
C872 C873 1.392 . S
C873 H850 0.948 . S
C873 C872 1.392 . S
C873 C874 1.419 . S
C874 C873 1.419 . S
C874 C875 1.391 . S
C874 C878 1.397 . S
C875 C870 1.391 . S
C875 C874 1.391 . S
C875 C876 1.399 . S
C876 C875 1.399 . S
C876 C877 1.396 . S
C876 C879 1.453 . S
C876 C880 1.684 . S
C877 C867 1.723 . S
C877 C876 1.396 . S
C877 C878 1.394 . S
C878 C848 1.723 . S
C878 C874 1.397 . S
C878 C877 1.394 . S
C879 H851 0.982 . S
C879 H855 0.979 . S
C879 H856 0.977 . S
C879 C876 1.453 . S
C880 H852 0.979 . S
C880 H853 0.980 . S
C880 H854 0.983 . S
C880 C876 1.684 . S
H881 C899 0.948 . S
H882 C840 0.948 . S
H883 C858 0.979 . S
H884 C858 0.980 . S
H885 C858 0.983 . S
H886 C857 0.982 . S
H887 C857 0.979 . S
H888 C857 0.977 . S
H889 C859 0.948 . S
H890 C861 0.947 . S
H891 C862 0.948 . S
H892 C868 0.982 . S
H893 C868 0.979 . S
H894 C868 0.977 . S
H895 C869 0.979 . S
H896 C869 0.980 . S
H897 C869 0.983 . S
H898 C842 0.947 . S
C899 C842 1.392 . S
C899 C843 1.419 . S
C899 H881 0.948 . S
C900 C901 1.413 . S
C900 C904 1.400 . S
C900 H942 0.919 1_556 S
C901 C900 1.413 . S
C901 C902 1.391 . S
C902 C901 1.391 . S
C902 H958 0.947 . S
C902 C959 1.392 . S
C903 C904 1.391 . S
C903 C907 1.397 1_565 S
C903 C959 1.419 . S
C904 C900 1.400 . S
C904 C903 1.391 . S
C904 C905 1.399 1_566 S
C905 C904 1.399 1_544 S
C905 C908 1.396 1_554 S
C905 C917 1.453 . S
C905 C918 1.684 . S
H906 C930 0.948 . S
C907 C903 1.397 1_545 S
C907 C908 1.394 . S
C907 C926 1.723 . S
C908 C905 1.396 1_556 S
C908 C907 1.394 . S
C908 C938 1.723 . S
H909 C932 0.947 . S
H910 C933 0.948 . S
H911 C939 0.982 . S
H912 C940 0.985 . S
H913 C940 0.980 . S
H914 C940 0.983 . S
H915 C939 0.979 . S
H916 C939 0.977 . S
C917 C905 1.453 . S
C917 H946 0.982 1_554 S
C917 H947 0.979 . S
C917 H948 0.977 . S
C918 C905 1.684 . S
C918 H943 0.979 . S
C918 H944 0.980 . S
C918 H945 0.983 . S
C919 C920 1.412 . S
C919 C924 1.401 . S
C919 H949 0.919 1_545 S
C920 C919 1.412 . S
C920 C921 1.391 . S
C921 C920 1.391 . S
C921 C922 1.392 . S
C921 H950 0.947 . S
C922 C921 1.392 . S
C922 C923 1.419 . S
C922 H951 0.948 . S
C923 C922 1.419 . S
C923 C924 1.391 . S
C923 C927 1.397 . S
C924 C919 1.401 . S
C924 C923 1.391 . S
C924 C925 1.399 1_545 S
C925 C924 1.399 1_565 S
C925 C926 1.396 1_565 S
C925 C928 1.453 . S
C925 C929 1.684 . S
C926 C907 1.723 . S
C926 C925 1.396 1_545 S
C926 C927 1.394 . S
C927 C923 1.397 . S
C927 C926 1.394 . S
C927 C937 1.723 . S
C928 C925 1.453 . S
C928 H952 0.982 1_565 S
C928 H953 0.979 . S
C928 H954 0.977 . S
C929 C925 1.684 . S
C929 H955 0.979 . S
C929 H956 0.980 . S
C929 H957 0.983 . S
C930 H906 0.948 . S
C930 C931 1.391 . S
C930 C935 1.391 . S
C931 C930 1.391 . S
C931 C932 1.391 . S
C932 H909 0.947 . S
C932 C931 1.391 . S
C932 C933 1.392 . S
C933 H910 0.948 . S
C933 C932 1.392 . S
C933 C934 1.419 . S
C934 C933 1.419 . S
C934 C935 1.391 . S
C934 C938 1.397 1_554 S
C935 C930 1.391 . S
C935 C934 1.391 . S
C935 C936 1.399 1_554 S
C936 C935 1.399 1_556 S
C936 C937 1.396 . S
C936 C939 1.453 . S
C936 C940 1.684 . S
C937 C927 1.723 . S
C937 C936 1.396 . S
C937 C938 1.394 . S
C938 C908 1.723 . S
C938 C934 1.397 1_556 S
C938 C937 1.394 . S
C939 H911 0.982 . S
C939 H915 0.979 . S
C939 H916 0.977 . S
C939 C936 1.453 . S
C940 H912 0.985 . S
C940 H913 0.980 . S
C940 H914 0.983 . S
C940 C936 1.684 . S
H941 C959 0.948 . S
H942 C900 0.919 1_554 S
H943 C918 0.979 . S
H944 C918 0.980 . S
H945 C918 0.983 . S
H946 C917 0.982 1_556 S
H947 C917 0.979 . S
H948 C917 0.977 . S
H949 C919 0.919 1_565 S
H950 C921 0.947 . S
H951 C922 0.948 . S
H952 C928 0.982 1_545 S
H953 C928 0.979 . S
H954 C928 0.977 . S
H955 C929 0.979 . S
H956 C929 0.980 . S
H957 C929 0.983 . S
H958 C902 0.947 . S
C959 C902 1.392 . S
C959 C903 1.419 . S
C959 H941 0.948 . S
Mg960 O961 2.029 . S
Mg960 O967 1.986 1_554 S
Mg960 O969 2.114 . S
Mg960 O970 2.251 . S
Mg960 O973 2.010 . S
O961 Mg960 2.029 . S
O961 C964 1.250 1_554 S
O962 Mg963 2.028 . S
O962 C964 1.248 . S
Mg963 O962 2.028 . S
Mg963 O968 2.032 . S
Mg963 O970 2.079 1_556 S
C964 O961 1.250 1_556 S
C964 O962 1.248 . S
C965 O966 1.264 . S
C965 O973 1.249 . S
O966 C965 1.264 . S
O967 Mg960 1.986 1_556 S
O967 C971 1.246 . S
O968 Mg963 2.032 . S
O968 C971 1.259 . S
O969 Mg960 2.114 . S
O969 C972 1.252 . S
O970 Mg960 2.251 . S
O970 Mg963 2.079 1_554 S
O970 C972 1.273 . S
C971 O967 1.246 . S
C971 O968 1.259 . S
C972 O969 1.252 . S
C972 O970 1.273 . S
O973 Mg960 2.010 . S
O973 C965 1.249 . S
Mg974 O975 2.028 . S
Mg974 O981 1.986 . S
Mg974 O983 2.114 . S
Mg974 O984 2.251 . S
Mg974 O987 2.010 . S
O975 Mg974 2.028 . S
O975 C978 1.250 . S
O976 Mg977 2.028 . S
O976 C978 1.248 . S
Mg977 O976 2.028 . S
Mg977 O982 2.032 . S
Mg977 O984 2.079 . S
C978 O975 1.250 . S
C978 O976 1.248 . S
C979 O980 1.264 . S
C979 O987 1.249 . S
O980 C979 1.264 . S
O981 Mg974 1.986 . S
O981 C985 1.246 . S
O982 Mg977 2.032 . S
O982 C985 1.259 . S
O983 Mg974 2.114 . S
O983 C986 1.252 . S
O984 Mg974 2.251 . S
O984 Mg977 2.079 . S
O984 C986 1.273 . S
C985 O981 1.246 . S
C985 O982 1.259 . S
C986 O983 1.252 . S
C986 O984 1.273 . S
O987 Mg974 2.010 . S
O987 C979 1.249 . S
Mg988 O989 2.028 . S
Mg988 O995 1.986 1_554 S
Mg988 O997 2.114 . S
Mg988 O998 2.251 . S
Mg988 O1001 2.010 . S
O989 Mg988 2.028 . S
O989 C992 1.247 1_554 S
O990 Mg991 2.028 . S
O990 C992 1.250 . S
Mg991 O990 2.028 . S
Mg991 O996 2.032 . S
Mg991 O998 2.079 1_556 S
C992 O989 1.247 1_556 S
C992 O990 1.250 . S
C993 O994 1.264 . S
C993 O1001 1.249 . S
O994 C993 1.264 . S
O995 Mg988 1.986 1_556 S
O995 C999 1.246 . S
O996 Mg991 2.032 . S
O996 C999 1.259 . S
O997 Mg988 2.114 . S
O997 C1000 1.252 . S
O998 Mg988 2.251 . S
O998 Mg991 2.079 1_554 S
O998 C1000 1.273 . S
C999 O995 1.246 . S
C999 O996 1.259 . S
C1000 O997 1.252 . S
C1000 O998 1.273 . S
O1001 Mg988 2.010 . S
O1001 C993 1.249 . S
Mg1002 O1003 2.006 1_545 S
Mg1002 O1009 1.986 . S
Mg1002 O1011 2.114 . S
Mg1002 O1012 2.251 . S
Mg1002 O1015 2.010 . S
O1003 Mg1002 2.006 1_565 S
O1003 C1006 1.283 . S
O1004 Mg1005 2.028 . S
O1004 C1006 1.248 . S
Mg1005 O1004 2.028 . S
Mg1005 O1010 2.032 . S
Mg1005 O1012 2.079 1_565 S
C1006 O1003 1.283 . S
C1006 O1004 1.248 . S
C1007 O1008 1.264 . S
C1007 O1015 1.249 . S
O1008 C1007 1.264 . S
O1009 Mg1002 1.986 . S
O1009 C1013 1.246 . S
O1010 Mg1005 2.032 . S
O1010 C1013 1.259 1_565 S
O1011 Mg1002 2.114 . S
O1011 C1014 1.252 . S
O1012 Mg1002 2.251 . S
O1012 Mg1005 2.079 1_545 S
O1012 C1014 1.273 . S
C1013 O1009 1.246 . S
C1013 O1010 1.259 1_545 S
C1014 O1011 1.252 . S
C1014 O1012 1.273 . S
O1015 Mg1002 2.010 . S
O1015 C1007 1.249 . S
Mg1016 O1017 2.028 . S
Mg1016 O1023 1.986 . S
Mg1016 O1025 2.114 . S
Mg1016 O1026 2.251 . S
Mg1016 O1029 2.010 . S
O1017 Mg1016 2.028 . S
O1017 C1020 1.250 . S
O1018 Mg1019 2.028 . S
O1018 C1020 1.248 . S
Mg1019 O1018 2.028 . S
Mg1019 O1024 2.032 . S
Mg1019 O1026 2.079 . S
C1020 O1017 1.250 . S
C1020 O1018 1.248 . S
C1021 O1022 1.264 . S
C1021 O1029 1.249 . S
O1022 C1021 1.264 . S
O1023 Mg1016 1.986 . S
O1023 C1027 1.246 . S
O1024 Mg1019 2.032 . S
O1024 C1027 1.259 . S
O1025 Mg1016 2.114 . S
O1025 C1028 1.252 . S
O1026 Mg1016 2.251 . S
O1026 Mg1019 2.079 . S
O1026 C1028 1.273 . S
C1027 O1023 1.246 . S
C1027 O1024 1.259 . S
C1028 O1025 1.252 . S
C1028 O1026 1.273 . S
O1029 Mg1016 2.010 . S
O1029 C1021 1.249 . S
Mg1030 O1031 2.028 . S
Mg1030 O1037 1.986 . S
Mg1030 O1039 2.114 . S
Mg1030 O1040 2.251 . S
Mg1030 O1043 2.010 . S
O1031 Mg1030 2.028 . S
O1031 C1034 1.250 . S
O1032 Mg1033 2.028 . S
O1032 C1034 1.248 . S
Mg1033 O1032 2.028 . S
Mg1033 O1038 2.032 . S
Mg1033 O1040 2.079 . S
C1034 O1031 1.250 . S
C1034 O1032 1.248 . S
C1035 O1036 1.264 . S
C1035 O1043 1.249 . S
O1036 C1035 1.264 . S
O1037 Mg1030 1.986 . S
O1037 C1041 1.246 . S
O1038 Mg1033 2.032 . S
O1038 C1041 1.259 . S
O1039 Mg1030 2.114 . S
O1039 C1042 1.252 . S
O1040 Mg1030 2.251 . S
O1040 Mg1033 2.079 . S
O1040 C1042 1.273 . S
C1041 O1037 1.246 . S
C1041 O1038 1.259 . S
C1042 O1039 1.252 . S
C1042 O1040 1.273 . S
O1043 Mg1030 2.010 . S
O1043 C1035 1.249 . S
Mg1044 O1045 2.028 . S
Mg1044 O1051 1.986 . S
Mg1044 O1053 2.114 . S
Mg1044 O1054 2.251 . S
Mg1044 O1057 2.010 . S
O1045 Mg1044 2.028 . S
O1045 C1048 1.250 . S
O1046 Mg1047 2.028 . S
O1046 C1048 1.248 . S
Mg1047 O1046 2.028 . S
Mg1047 O1052 2.032 . S
Mg1047 O1054 2.079 . S
C1048 O1045 1.250 . S
C1048 O1046 1.248 . S
C1049 O1050 1.264 . S
C1049 O1057 1.249 . S
O1050 C1049 1.264 . S
O1051 Mg1044 1.986 . S
O1051 C1055 1.246 . S
O1052 Mg1047 2.032 . S
O1052 C1055 1.259 . S
O1053 Mg1044 2.114 . S
O1053 C1056 1.252 . S
O1054 Mg1044 2.251 . S
O1054 Mg1047 2.079 . S
O1054 C1056 1.273 . S
C1055 O1051 1.246 . S
C1055 O1052 1.259 . S
C1056 O1053 1.252 . S
C1056 O1054 1.273 . S
O1057 Mg1044 2.010 . S
O1057 C1049 1.249 . S
Mg1058 O1059 2.028 1_545 S
Mg1058 O1065 1.986 1_545 S
Mg1058 O1067 2.114 . S
Mg1058 O1068 2.251 . S
Mg1058 O1071 2.010 . S
O1059 Mg1058 2.028 1_565 S
O1059 C1062 1.250 . S
O1060 Mg1061 2.028 . S
O1060 C1062 1.248 . S
Mg1061 O1060 2.028 . S
Mg1061 O1066 2.032 . S
Mg1061 O1068 2.079 1_565 S
C1062 O1059 1.250 . S
C1062 O1060 1.248 . S
C1063 O1064 1.264 . S
C1063 O1071 1.249 . S
O1064 C1063 1.264 . S
O1065 Mg1058 1.986 1_565 S
O1065 C1069 1.246 . S
O1066 Mg1061 2.032 . S
O1066 C1069 1.259 . S
O1067 Mg1058 2.114 . S
O1067 C1070 1.252 . S
O1068 Mg1058 2.251 . S
O1068 Mg1061 2.079 1_545 S
O1068 C1070 1.273 . S
C1069 O1065 1.246 . S
C1069 O1066 1.259 . S
C1070 O1067 1.252 . S
C1070 O1068 1.273 . S
O1071 Mg1058 2.010 . S
O1071 C1063 1.249 . S
Mg1072 O1073 2.046 . S
Mg1072 O1079 1.986 . S
Mg1072 O1081 2.114 . S
Mg1072 O1082 2.251 . S
Mg1072 O1085 2.010 . S
O1073 Mg1072 2.046 . S
O1073 C1076 1.225 1_455 S
O1074 Mg1075 2.028 . S
O1074 C1076 1.248 . S
Mg1075 O1074 2.028 . S
Mg1075 O1080 2.032 . S
Mg1075 O1082 2.079 1_655 S
C1076 O1073 1.225 1_655 S
C1076 O1074 1.248 . S
C1077 O1078 1.264 . S
C1077 O1085 1.249 . S
O1078 C1077 1.264 . S
O1079 Mg1072 1.986 . S
O1079 C1083 1.246 . S
O1080 Mg1075 2.032 . S
O1080 C1083 1.259 1_655 S
O1081 Mg1072 2.114 . S
O1081 C1084 1.252 . S
O1082 Mg1072 2.251 . S
O1082 Mg1075 2.079 1_455 S
O1082 C1084 1.273 . S
C1083 O1079 1.246 . S
C1083 O1080 1.259 1_455 S
C1084 O1081 1.252 . S
C1084 O1082 1.273 . S
O1085 Mg1072 2.010 . S
O1085 C1077 1.249 . S
Mg1086 O1087 2.028 . S
Mg1086 O1093 1.986 . S
Mg1086 O1095 2.114 . S
Mg1086 O1096 2.251 . S
Mg1086 O1099 2.010 . S
O1087 Mg1086 2.028 . S
O1087 C1090 1.250 . S
O1088 Mg1089 2.028 . S
O1088 C1090 1.248 . S
Mg1089 O1088 2.028 . S
Mg1089 O1094 2.032 . S
Mg1089 O1096 2.079 . S
C1090 O1087 1.250 . S
C1090 O1088 1.248 . S
C1091 O1092 1.264 . S
C1091 O1099 1.249 . S
O1092 C1091 1.264 . S
O1093 Mg1086 1.986 . S
O1093 C1097 1.246 . S
O1094 Mg1089 2.032 . S
O1094 C1097 1.259 . S
O1095 Mg1086 2.114 . S
O1095 C1098 1.252 . S
O1096 Mg1086 2.251 . S
O1096 Mg1089 2.079 . S
O1096 C1098 1.273 . S
C1097 O1093 1.246 . S
C1097 O1094 1.259 . S
C1098 O1095 1.252 . S
C1098 O1096 1.273 . S
O1099 Mg1086 2.010 . S
O1099 C1091 1.249 . S
Mg1100 O1101 2.028 1_655 S
Mg1100 O1107 1.986 . S
Mg1100 O1109 2.114 . S
Mg1100 O1110 2.251 1_655 S
Mg1100 O1113 2.010 . S
O1101 Mg1100 2.028 1_455 S
O1101 C1104 1.250 . S
O1102 Mg1103 2.028 . S
O1102 C1104 1.248 . S
Mg1103 O1102 2.028 . S
Mg1103 O1108 2.032 . S
Mg1103 O1110 2.079 . S
C1104 O1101 1.250 . S
C1104 O1102 1.248 . S
C1105 O1106 1.264 . S
C1105 O1113 1.249 . S
O1106 C1105 1.264 . S
O1107 Mg1100 1.986 . S
O1107 C1111 1.246 1_655 S
O1108 Mg1103 2.032 . S
O1108 C1111 1.259 . S
O1109 Mg1100 2.114 . S
O1109 C1112 1.252 . S
O1110 Mg1100 2.251 1_455 S
O1110 Mg1103 2.079 . S
O1110 C1112 1.273 1_455 S
C1111 O1107 1.246 1_455 S
C1111 O1108 1.259 . S
C1112 O1109 1.252 . S
C1112 O1110 1.273 1_655 S
O1113 Mg1100 2.010 . S
O1113 C1105 1.249 . S
Mg1114 O1115 2.028 . S
Mg1114 O1121 1.986 . S
Mg1114 O1123 2.114 . S
Mg1114 O1124 2.251 . S
Mg1114 O1127 2.010 . S
O1115 Mg1114 2.028 . S
O1115 C1118 1.250 . S
O1116 Mg1117 2.028 . S
O1116 C1118 1.248 . S
Mg1117 O1116 2.028 . S
Mg1117 O1122 2.032 . S
Mg1117 O1124 2.079 . S
C1118 O1115 1.250 . S
C1118 O1116 1.248 . S
C1119 O1120 1.264 . S
C1119 O1127 1.249 . S
O1120 C1119 1.264 . S
O1121 Mg1114 1.986 . S
O1121 C1125 1.246 . S
O1122 Mg1117 2.032 . S
O1122 C1125 1.259 . S
O1123 Mg1114 2.114 . S
O1123 C1126 1.252 . S
O1124 Mg1114 2.251 . S
O1124 Mg1117 2.079 . S
O1124 C1126 1.273 . S
C1125 O1121 1.246 . S
C1125 O1122 1.259 . S
C1126 O1123 1.252 . S
C1126 O1124 1.273 . S
O1127 Mg1114 2.010 . S
O1127 C1119 1.249 . S
C1128 C1129 1.387 . S
C1128 H1132 0.950 . S
C1128 C1137 1.390 . S
C1129 C1128 1.387 . S
C1129 C1131 1.387 . S
H1130 C1137 0.950 . S
C1131 C1129 1.387 . S
C1131 C1133 1.390 . S
C1131 H1135 0.950 . S
H1132 C1128 0.950 . S
C1133 C1131 1.390 . S
C1133 C1134 1.387 . S
C1133 H1136 0.950 . S
C1134 C1133 1.387 . S
C1134 C1137 1.387 . S
H1135 C1131 0.950 . S
H1136 C1133 0.950 . S
C1137 C1128 1.390 . S
C1137 H1130 0.950 . S
C1137 C1134 1.387 . S
C1138 C1139 1.387 . S
C1138 H1142 0.950 . S
C1138 C1147 1.390 . S
C1139 C1138 1.387 . S
C1139 C1141 1.387 . S
H1140 C1147 0.950 . S
C1141 C1139 1.387 . S
C1141 C1143 1.390 . S
C1141 H1145 0.950 . S
H1142 C1138 0.950 . S
C1143 C1141 1.390 . S
C1143 C1144 1.387 . S
C1143 H1146 0.950 . S
C1144 C1143 1.387 . S
C1144 C1147 1.387 . S
H1145 C1141 0.950 . S
H1146 C1143 0.950 . S
C1147 C1138 1.390 . S
C1147 H1140 0.950 . S
C1147 C1144 1.387 . S
C1148 C1149 1.387 . S
C1148 H1152 0.950 . S
C1148 C1157 1.390 . S
C1149 C1148 1.387 . S
C1149 C1151 1.387 . S
H1150 C1157 0.950 . S
C1151 C1149 1.387 . S
C1151 C1153 1.390 . S
C1151 H1155 0.950 . S
H1152 C1148 0.950 . S
C1153 C1151 1.390 . S
C1153 C1154 1.387 . S
C1153 H1156 0.950 . S
C1154 C1153 1.387 . S
C1154 C1157 1.387 . S
H1155 C1151 0.950 . S
H1156 C1153 0.950 . S
C1157 C1148 1.390 . S
C1157 H1150 0.950 . S
C1157 C1154 1.387 . S
C1158 C1159 1.387 1_545 S
C1158 H1162 0.950 . S
C1158 C1167 1.390 . S
C1159 C1158 1.387 1_565 S
C1159 C1161 1.387 . S
H1160 C1167 0.950 . S
C1161 C1159 1.387 . S
C1161 C1163 1.390 . S
C1161 H1165 0.950 . S
H1162 C1158 0.950 . S
C1163 C1161 1.390 . S
C1163 C1164 1.387 1_565 S
C1163 H1166 0.950 . S
C1164 C1163 1.387 1_545 S
C1164 C1167 1.387 . S
H1165 C1161 0.950 . S
H1166 C1163 0.950 . S
C1167 C1158 1.390 . S
C1167 H1160 0.950 . S
C1167 C1164 1.387 . S
C1168 C1169 1.387 . S
C1168 H1172 0.950 . S
C1168 C1177 1.390 . S
C1169 C1168 1.387 . S
C1169 C1171 1.387 . S
H1170 C1177 0.950 . S
C1171 C1169 1.387 . S
C1171 C1173 1.390 . S
C1171 H1175 0.950 . S
H1172 C1168 0.950 . S
C1173 C1171 1.390 . S
C1173 C1174 1.387 . S
C1173 H1176 0.950 . S
C1174 C1173 1.387 . S
C1174 C1177 1.387 . S
H1175 C1171 0.950 . S
H1176 C1173 0.950 . S
C1177 C1168 1.390 . S
C1177 H1170 0.950 . S
C1177 C1174 1.387 . S
C1178 C1179 1.387 . S
C1178 H1182 0.950 . S
C1178 C1187 1.390 . S
C1179 C1178 1.387 . S
C1179 C1181 1.387 . S
H1180 C1187 0.950 . S
C1181 C1179 1.387 . S
C1181 C1183 1.390 . S
C1181 H1185 0.950 . S
H1182 C1178 0.950 . S
C1183 C1181 1.390 . S
C1183 C1184 1.387 . S
C1183 H1186 0.950 . S
C1184 C1183 1.387 . S
C1184 C1187 1.387 . S
H1185 C1181 0.950 . S
H1186 C1183 0.950 . S
C1187 C1178 1.390 . S
C1187 H1180 0.950 . S
C1187 C1184 1.387 . S
C1188 C1189 1.387 . S
C1188 H1192 0.950 . S
C1188 C1197 1.390 . S
C1189 C1188 1.387 . S
C1189 C1191 1.387 . S
H1190 C1197 0.950 . S
C1191 C1189 1.387 . S
C1191 C1193 1.390 . S
C1191 H1195 0.950 . S
H1192 C1188 0.950 . S
C1193 C1191 1.390 . S
C1193 C1194 1.387 . S
C1193 H1196 0.950 . S
C1194 C1193 1.387 . S
C1194 C1197 1.387 . S
H1195 C1191 0.950 . S
H1196 C1193 0.950 . S
C1197 C1188 1.390 . S
C1197 H1190 0.950 . S
C1197 C1194 1.387 . S
C1198 C1199 1.387 . S
C1198 H1202 0.950 . S
C1198 C1207 1.390 . S
C1199 C1198 1.387 . S
C1199 C1201 1.387 1_565 S
H1200 C1207 0.950 . S
C1201 C1199 1.387 1_545 S
C1201 C1203 1.390 . S
C1201 H1205 0.950 . S
H1202 C1198 0.950 . S
C1203 C1201 1.390 . S
C1203 C1204 1.387 1_545 S
C1203 H1206 0.950 . S
C1204 C1203 1.387 1_565 S
C1204 C1207 1.387 . S
H1205 C1201 0.950 . S
H1206 C1203 0.950 . S
C1207 C1198 1.390 . S
C1207 H1200 0.950 . S
C1207 C1204 1.387 . S
C1208 C1209 1.387 . S
C1208 H1212 0.950 . S
C1208 C1217 1.390 . S
C1209 C1208 1.387 . S
C1209 C1211 1.387 . S
H1210 C1217 0.950 . S
C1211 C1209 1.387 . S
C1211 C1213 1.390 . S
C1211 H1215 0.950 . S
H1212 C1208 0.950 . S
C1213 C1211 1.390 . S
C1213 C1214 1.387 . S
C1213 H1216 0.950 . S
C1214 C1213 1.387 . S
C1214 C1217 1.387 . S
H1215 C1211 0.950 . S
H1216 C1213 0.950 . S
C1217 C1208 1.390 . S
C1217 H1210 0.950 . S
C1217 C1214 1.387 . S
C1218 C1219 1.387 . S
C1218 H1222 0.950 . S
C1218 C1227 1.390 . S
C1219 C1218 1.387 . S
C1219 C1221 1.387 . S
H1220 C1227 0.950 . S
C1221 C1219 1.387 . S
C1221 C1223 1.390 . S
C1221 H1225 0.950 . S
H1222 C1218 0.950 . S
C1223 C1221 1.390 . S
C1223 C1224 1.387 . S
C1223 H1226 0.950 . S
C1224 C1223 1.387 . S
C1224 C1227 1.387 . S
H1225 C1221 0.950 . S
H1226 C1223 0.950 . S
C1227 C1218 1.390 . S
C1227 H1220 0.950 . S
C1227 C1224 1.387 . S
C1228 C1229 1.387 . S
C1228 H1232 0.950 . S
C1228 C1237 1.390 . S
C1229 C1228 1.387 . S
C1229 C1231 1.387 . S
H1230 C1237 0.950 . S
C1231 C1229 1.387 . S
C1231 C1233 1.390 . S
C1231 H1235 0.950 . S
H1232 C1228 0.950 . S
C1233 C1231 1.390 . S
C1233 C1234 1.387 . S
C1233 H1236 0.950 . S
C1234 C1233 1.387 . S
C1234 C1237 1.387 . S
H1235 C1231 0.950 . S
H1236 C1233 0.950 . S
C1237 C1228 1.390 . S
C1237 H1230 0.950 . S
C1237 C1234 1.387 . S
C1238 C1239 1.387 . S
C1238 H1242 0.950 . S
C1238 C1247 1.390 . S
C1239 C1238 1.387 . S
C1239 C1241 1.387 . S
H1240 C1247 0.950 . S
C1241 C1239 1.387 . S
C1241 C1243 1.390 . S
C1241 H1245 0.950 . S
H1242 C1238 0.950 . S
C1243 C1241 1.390 . S
C1243 C1244 1.387 . S
C1243 H1246 0.950 . S
C1244 C1243 1.387 . S
C1244 C1247 1.387 . S
H1245 C1241 0.950 . S
H1246 C1243 0.950 . S
C1247 C1238 1.390 . S
C1247 H1240 0.950 . S
C1247 C1244 1.387 . S
C1248 C1249 1.387 . S
C1248 H1252 0.950 . S
C1248 C1257 1.390 . S
C1249 C1248 1.387 . S
C1249 C1251 1.387 . S
H1250 C1257 0.950 . S
C1251 C1249 1.387 . S
C1251 C1253 1.390 . S
C1251 H1255 0.950 . S
H1252 C1248 0.950 . S
C1253 C1251 1.390 . S
C1253 C1254 1.387 . S
C1253 H1256 0.950 . S
C1254 C1253 1.387 . S
C1254 C1257 1.387 . S
H1255 C1251 0.950 . S
H1256 C1253 0.950 . S
C1257 C1248 1.390 . S
C1257 H1250 0.950 . S
C1257 C1254 1.387 . S
C1258 C1259 1.387 . S
C1258 H1262 0.950 . S
C1258 C1267 1.390 . S
C1259 C1258 1.387 . S
C1259 C1261 1.387 . S
H1260 C1267 0.950 . S
C1261 C1259 1.387 . S
C1261 C1263 1.390 . S
C1261 H1265 0.950 . S
H1262 C1258 0.950 . S
C1263 C1261 1.390 . S
C1263 C1264 1.387 . S
C1263 H1266 0.950 . S
C1264 C1263 1.387 . S
C1264 C1267 1.387 . S
H1265 C1261 0.950 . S
H1266 C1263 0.950 . S
C1267 C1258 1.390 . S
C1267 H1260 0.950 . S
C1267 C1264 1.387 . S
C1268 C1269 1.387 . S
C1268 H1272 0.950 . S
C1268 C1277 1.390 . S
C1269 C1268 1.387 . S
C1269 C1271 1.387 . S
H1270 C1277 0.950 . S
C1271 C1269 1.387 . S
C1271 C1273 1.390 . S
C1271 H1275 0.950 . S
H1272 C1268 0.950 . S
C1273 C1271 1.390 . S
C1273 C1274 1.387 . S
C1273 H1276 0.950 . S
C1274 C1273 1.387 . S
C1274 C1277 1.387 . S
H1275 C1271 0.950 . S
H1276 C1273 0.950 . S
C1277 C1268 1.390 . S
C1277 H1270 0.950 . S
C1277 C1274 1.387 . S
C1278 C1279 1.387 1_455 S
C1278 H1282 0.950 . S
C1278 C1287 1.390 . S
C1279 C1278 1.387 1_655 S
C1279 C1281 1.387 . S
H1280 C1287 0.950 . S
C1281 C1279 1.387 . S
C1281 C1283 1.390 . S
C1281 H1285 0.950 . S
H1282 C1278 0.950 . S
C1283 C1281 1.390 . S
C1283 C1284 1.387 . S
C1283 H1286 0.950 . S
C1284 C1283 1.387 . S
C1284 C1287 1.387 1_655 S
H1285 C1281 0.950 . S
H1286 C1283 0.950 . S
C1287 C1278 1.390 . S
C1287 H1280 0.950 . S
C1287 C1284 1.387 1_455 S
C1288 C1289 1.387 . S
C1288 H1292 0.950 . S
C1288 C1297 1.390 . S
C1289 C1288 1.387 . S
C1289 C1291 1.387 . S
H1290 C1297 0.950 . S
C1291 C1289 1.387 . S
C1291 C1293 1.390 . S
C1291 H1295 0.950 . S
H1292 C1288 0.950 . S
C1293 C1291 1.390 . S
C1293 C1294 1.387 . S
C1293 H1296 0.950 . S
C1294 C1293 1.387 . S
C1294 C1297 1.387 . S
H1295 C1291 0.950 . S
H1296 C1293 0.950 . S
C1297 C1288 1.390 . S
C1297 H1290 0.950 . S
C1297 C1294 1.387 . S
C1298 C1299 1.387 . S
C1298 H1302 0.950 . S
C1298 C1307 1.390 . S
C1299 C1298 1.387 . S
C1299 C1301 1.387 . S
H1300 C1307 0.950 . S
C1301 C1299 1.387 . S
C1301 C1303 1.390 . S
C1301 H1305 0.950 . S
H1302 C1298 0.950 . S
C1303 C1301 1.390 . S
C1303 C1304 1.387 . S
C1303 H1306 0.950 . S
C1304 C1303 1.387 . S
C1304 C1307 1.387 . S
H1305 C1301 0.950 . S
H1306 C1303 0.950 . S
C1307 C1298 1.390 . S
C1307 H1300 0.950 . S
C1307 C1304 1.387 . S
C1308 C1309 1.387 . S
C1308 H1312 0.950 . S
C1308 C1317 1.390 . S
C1309 C1308 1.387 . S
C1309 C1311 1.387 1_556 S
H1310 C1317 0.950 . S
C1311 C1309 1.387 1_554 S
C1311 C1313 1.390 . S
C1311 H1315 0.950 . S
H1312 C1308 0.950 . S
C1313 C1311 1.390 . S
C1313 C1314 1.387 1_554 S
C1313 H1316 0.950 . S
C1314 C1313 1.387 1_556 S
C1314 C1317 1.387 . S
H1315 C1311 0.950 . S
H1316 C1313 0.950 . S
C1317 C1308 1.390 . S
C1317 H1310 0.950 . S
C1317 C1314 1.387 . S
C1318 C1319 1.387 . S
C1318 H1322 0.950 . S
C1318 C1327 1.390 . S
C1319 C1318 1.387 . S
C1319 C1321 1.387 . S
H1320 C1327 0.950 . S
C1321 C1319 1.387 . S
C1321 C1323 1.390 . S
C1321 H1325 0.950 . S
H1322 C1318 0.950 . S
C1323 C1321 1.390 . S
C1323 C1324 1.387 . S
C1323 H1326 0.950 . S
C1324 C1323 1.387 . S
C1324 C1327 1.387 . S
H1325 C1321 0.950 . S
H1326 C1323 0.950 . S
C1327 C1318 1.390 . S
C1327 H1320 0.950 . S
C1327 C1324 1.387 . S
C1328 C1329 1.387 . S
C1328 H1332 0.950 . S
C1328 C1337 1.390 . S
C1329 C1328 1.387 . S
C1329 C1331 1.387 . S
H1330 C1337 0.950 . S
C1331 C1329 1.387 . S
C1331 C1333 1.390 . S
C1331 H1335 0.950 . S
H1332 C1328 0.950 . S
C1333 C1331 1.390 . S
C1333 C1334 1.387 . S
C1333 H1336 0.950 . S
C1334 C1333 1.387 . S
C1334 C1337 1.387 . S
H1335 C1331 0.950 . S
H1336 C1333 0.950 . S
C1337 C1328 1.390 . S
C1337 H1330 0.950 . S
C1337 C1334 1.387 . S
C1338 C1339 1.387 . S
C1338 H1342 0.950 . S
C1338 C1347 1.390 . S
C1339 C1338 1.387 . S
C1339 C1341 1.387 . S
H1340 C1347 0.950 . S
C1341 C1339 1.387 . S
C1341 C1343 1.390 . S
C1341 H1345 0.950 . S
H1342 C1338 0.950 . S
C1343 C1341 1.390 . S
C1343 C1344 1.387 . S
C1343 H1346 0.950 . S
C1344 C1343 1.387 . S
C1344 C1347 1.387 . S
H1345 C1341 0.950 . S
H1346 C1343 0.950 . S
C1347 C1338 1.390 . S
C1347 H1340 0.950 . S
C1347 C1344 1.387 . S
C1348 C1349 1.387 . S
C1348 H1352 0.950 . S
C1348 C1357 1.390 . S
C1349 C1348 1.387 . S
C1349 C1351 1.387 . S
H1350 C1357 0.950 . S
C1351 C1349 1.387 . S
C1351 C1353 1.390 . S
C1351 H1355 0.950 . S
H1352 C1348 0.950 . S
C1353 C1351 1.390 . S
C1353 C1354 1.387 . S
C1353 H1356 0.950 . S
C1354 C1353 1.387 . S
C1354 C1357 1.387 . S
H1355 C1351 0.950 . S
H1356 C1353 0.950 . S
C1357 C1348 1.390 . S
C1357 H1350 0.950 . S
C1357 C1354 1.387 . S
C1358 C1359 1.387 . S
C1358 H1362 0.950 . S
C1358 C1367 1.390 . S
C1359 C1358 1.387 . S
C1359 C1361 1.387 . S
H1360 C1367 0.950 . S
C1361 C1359 1.387 . S
C1361 C1363 1.390 . S
C1361 H1365 0.950 . S
H1362 C1358 0.950 . S
C1363 C1361 1.390 . S
C1363 C1364 1.387 . S
C1363 H1366 0.950 . S
C1364 C1363 1.387 . S
C1364 C1367 1.387 . S
H1365 C1361 0.950 . S
H1366 C1363 0.950 . S
C1367 C1358 1.390 . S
C1367 H1360 0.950 . S
C1367 C1364 1.387 . S
C1368 C1369 1.387 . S
C1368 H1372 0.950 . S
C1368 C1377 1.390 . S
C1369 C1368 1.387 . S
C1369 C1371 1.387 . S
H1370 C1377 0.950 . S
C1371 C1369 1.387 . S
C1371 C1373 1.390 . S
C1371 H1375 0.950 . S
H1372 C1368 0.950 . S
C1373 C1371 1.390 . S
C1373 C1374 1.387 . S
C1373 H1376 0.950 . S
C1374 C1373 1.387 . S
C1374 C1377 1.387 . S
H1375 C1371 0.950 . S
H1376 C1373 0.950 . S
C1377 C1368 1.390 . S
C1377 H1370 0.950 . S
C1377 C1374 1.387 . S
C1378 C1379 1.387 . S
C1378 H1382 0.950 . S
C1378 C1387 1.390 . S
C1379 C1378 1.387 . S
C1379 C1381 1.387 1_545 S
H1380 C1387 0.950 . S
C1381 C1379 1.387 1_565 S
C1381 C1383 1.390 . S
C1381 H1385 0.950 . S
H1382 C1378 0.950 . S
C1383 C1381 1.390 . S
C1383 C1384 1.387 1_565 S
C1383 H1386 0.950 . S
C1384 C1383 1.387 1_545 S
C1384 C1387 1.387 . S
H1385 C1381 0.950 . S
H1386 C1383 0.950 . S
C1387 C1378 1.390 . S
C1387 H1380 0.950 . S
C1387 C1384 1.387 . S
C1388 C1389 1.387 . S
C1388 H1392 0.950 . S
C1388 C1397 1.390 . S
C1389 C1388 1.387 . S
C1389 C1391 1.387 . S
H1390 C1397 0.950 . S
C1391 C1389 1.387 . S
C1391 C1393 1.390 . S
C1391 H1395 0.950 . S
H1392 C1388 0.950 . S
C1393 C1391 1.390 . S
C1393 C1394 1.387 . S
C1393 H1396 0.950 . S
C1394 C1393 1.387 . S
C1394 C1397 1.387 . S
H1395 C1391 0.950 . S
H1396 C1393 0.950 . S
C1397 C1388 1.390 . S
C1397 H1390 0.950 . S
C1397 C1394 1.387 . S
C1398 C1399 1.387 . S
C1398 H1402 0.950 . S
C1398 C1407 1.390 . S
C1399 C1398 1.387 . S
C1399 C1401 1.387 . S
H1400 C1407 0.950 . S
C1401 C1399 1.387 . S
C1401 C1403 1.390 . S
C1401 H1405 0.950 . S
H1402 C1398 0.950 . S
C1403 C1401 1.390 . S
C1403 C1404 1.387 . S
C1403 H1406 0.950 . S
C1404 C1403 1.387 . S
C1404 C1407 1.387 . S
H1405 C1401 0.950 . S
H1406 C1403 0.950 . S
C1407 C1398 1.390 . S
C1407 H1400 0.950 . S
C1407 C1404 1.387 . S
C1408 C1409 1.387 . S
C1408 H1412 0.950 . S
C1408 C1417 1.390 . S
C1409 C1408 1.387 . S
C1409 C1411 1.387 . S
H1410 C1417 0.950 . S
C1411 C1409 1.387 . S
C1411 C1413 1.390 . S
C1411 H1415 0.950 . S
H1412 C1408 0.950 . S
C1413 C1411 1.390 . S
C1413 C1414 1.387 . S
C1413 H1416 0.950 . S
C1414 C1413 1.387 . S
C1414 C1417 1.387 . S
H1415 C1411 0.950 . S
H1416 C1413 0.950 . S
C1417 C1408 1.390 . S
C1417 H1410 0.950 . S
C1417 C1414 1.387 . S
C1418 C1419 1.387 . S
C1418 H1422 0.950 . S
C1418 C1427 1.390 . S
C1419 C1418 1.387 . S
C1419 C1421 1.387 1_545 S
H1420 C1427 0.950 . S
C1421 C1419 1.387 1_565 S
C1421 C1423 1.390 . S
C1421 H1425 0.950 . S
H1422 C1418 0.950 . S
C1423 C1421 1.390 . S
C1423 C1424 1.387 1_565 S
C1423 H1426 0.950 . S
C1424 C1423 1.387 1_545 S
C1424 C1427 1.387 . S
H1425 C1421 0.950 . S
H1426 C1423 0.950 . S
C1427 C1418 1.390 . S
C1427 H1420 0.950 . S
C1427 C1424 1.387 . S
C1428 C1429 1.387 . S
C1428 H1432 0.950 . S
C1428 C1437 1.390 . S
C1429 C1428 1.387 . S
C1429 C1431 1.387 . S
H1430 C1437 0.950 . S
C1431 C1429 1.387 . S
C1431 C1433 1.390 . S
C1431 H1435 0.950 . S
H1432 C1428 0.950 . S
C1433 C1431 1.390 . S
C1433 C1434 1.387 . S
C1433 H1436 0.950 . S
C1434 C1433 1.387 . S
C1434 C1437 1.387 . S
H1435 C1431 0.950 . S
H1436 C1433 0.950 . S
C1437 C1428 1.390 . S
C1437 H1430 0.950 . S
C1437 C1434 1.387 . S
C1438 C1439 1.387 . S
C1438 H1442 0.950 . S
C1438 C1447 1.390 . S
C1439 C1438 1.387 . S
C1439 C1441 1.387 . S
H1440 C1447 0.950 . S
C1441 C1439 1.387 . S
C1441 C1443 1.390 . S
C1441 H1445 0.950 . S
H1442 C1438 0.950 . S
C1443 C1441 1.390 . S
C1443 C1444 1.387 . S
C1443 H1446 0.950 . S
C1444 C1443 1.387 . S
C1444 C1447 1.387 . S
H1445 C1441 0.950 . S
H1446 C1443 0.950 . S
C1447 C1438 1.390 . S
C1447 H1440 0.950 . S
C1447 C1444 1.387 . S
C1448 C1449 1.387 . S
C1448 H1452 0.950 . S
C1448 C1457 1.390 . S
C1449 C1448 1.387 . S
C1449 C1451 1.387 . S
H1450 C1457 0.950 . S
C1451 C1449 1.387 . S
C1451 C1453 1.390 . S
C1451 H1455 0.950 . S
H1452 C1448 0.950 . S
C1453 C1451 1.390 . S
C1453 C1454 1.387 . S
C1453 H1456 0.950 . S
C1454 C1453 1.387 . S
C1454 C1457 1.387 . S
H1455 C1451 0.950 . S
H1456 C1453 0.950 . S
C1457 C1448 1.390 . S
C1457 H1450 0.950 . S
C1457 C1454 1.387 . S
C1458 C1459 1.387 . S
C1458 H1462 0.950 . S
C1458 C1467 1.390 1_655 S
C1459 C1458 1.387 . S
C1459 C1461 1.387 1_655 S
H1460 C1467 0.950 . S
C1461 C1459 1.387 1_455 S
C1461 C1463 1.390 . S
C1461 H1465 0.950 . S
H1462 C1458 0.950 . S
C1463 C1461 1.390 . S
C1463 C1464 1.387 . S
C1463 H1466 0.950 . S
C1464 C1463 1.387 . S
C1464 C1467 1.387 . S
H1465 C1461 0.950 . S
H1466 C1463 0.950 . S
C1467 C1458 1.390 1_455 S
C1467 H1460 0.950 . S
C1467 C1464 1.387 . S
C1468 C1469 1.387 . S
C1468 H1472 0.950 . S
C1468 C1477 1.390 . S
C1469 C1468 1.387 . S
C1469 C1471 1.387 . S
H1470 C1477 0.950 . S
C1471 C1469 1.387 . S
C1471 C1473 1.390 . S
C1471 H1475 0.950 . S
H1472 C1468 0.950 . S
C1473 C1471 1.390 . S
C1473 C1474 1.387 . S
C1473 H1476 0.950 . S
C1474 C1473 1.387 . S
C1474 C1477 1.387 . S
H1475 C1471 0.950 . S
H1476 C1473 0.950 . S
C1477 C1468 1.390 . S
C1477 H1470 0.950 . S
C1477 C1474 1.387 . S
C1478 C1479 1.387 . S
C1478 H1482 0.950 . S
C1478 C1487 1.390 . S
C1479 C1478 1.387 . S
C1479 C1481 1.387 . S
H1480 C1487 0.950 . S
C1481 C1479 1.387 . S
C1481 C1483 1.390 . S
C1481 H1485 0.950 1_455 S
H1482 C1478 0.950 . S
C1483 C1481 1.390 . S
C1483 C1484 1.387 . S
C1483 H1486 0.950 1_455 S
C1484 C1483 1.387 . S
C1484 C1487 1.387 . S
H1485 C1481 0.950 1_655 S
H1486 C1483 0.950 1_655 S
C1487 C1478 1.390 . S
C1487 H1480 0.950 . S
C1487 C1484 1.387 . S
C1488 C1489 1.387 . S
C1488 H1492 0.950 . S
C1488 C1497 1.390 . S
C1489 C1488 1.387 . S
C1489 C1491 1.387 . S
H1490 C1497 0.950 . S
C1491 C1489 1.387 . S
C1491 C1493 1.390 . S
C1491 H1495 0.950 . S
H1492 C1488 0.950 . S
C1493 C1491 1.390 . S
C1493 C1494 1.387 . S
C1493 H1496 0.950 . S
C1494 C1493 1.387 . S
C1494 C1497 1.387 . S
H1495 C1491 0.950 . S
H1496 C1493 0.950 . S
C1497 C1488 1.390 . S
C1497 H1490 0.950 . S
C1497 C1494 1.387 . S
C1498 C1499 1.387 . S
C1498 H1502 0.950 . S
C1498 C1507 1.390 . S
C1499 C1498 1.387 . S
C1499 C1501 1.387 . S
H1500 C1507 0.950 . S
C1501 C1499 1.387 . S
C1501 C1503 1.390 . S
C1501 H1505 0.950 . S
H1502 C1498 0.950 . S
C1503 C1501 1.390 . S
C1503 C1504 1.387 . S
C1503 H1506 0.950 . S
C1504 C1503 1.387 . S
C1504 C1507 1.387 . S
H1505 C1501 0.950 . S
H1506 C1503 0.950 . S
C1507 C1498 1.390 . S
C1507 H1500 0.950 . S
C1507 C1504 1.387 . S
C1508 C1509 1.387 . S
C1508 H1512 0.950 . S
C1508 C1517 1.390 . S
C1509 C1508 1.387 . S
C1509 C1511 1.387 . S
H1510 C1517 0.950 . S
C1511 C1509 1.387 . S
C1511 C1513 1.390 . S
C1511 H1515 0.950 . S
H1512 C1508 0.950 . S
C1513 C1511 1.390 . S
C1513 C1514 1.387 . S
C1513 H1516 0.950 . S
C1514 C1513 1.387 . S
C1514 C1517 1.387 . S
H1515 C1511 0.950 . S
H1516 C1513 0.950 . S
C1517 C1508 1.390 . S
C1517 H1510 0.950 . S
C1517 C1514 1.387 . S
C1518 C1519 1.387 . S
C1518 H1522 0.950 . S
C1518 C1527 1.390 . S
C1519 C1518 1.387 . S
C1519 C1521 1.387 . S
H1520 C1527 0.950 . S
C1521 C1519 1.387 . S
C1521 C1523 1.390 . S
C1521 H1525 0.950 . S
H1522 C1518 0.950 . S
C1523 C1521 1.390 . S
C1523 C1524 1.387 . S
C1523 H1526 0.950 . S
C1524 C1523 1.387 . S
C1524 C1527 1.387 . S
H1525 C1521 0.950 . S
H1526 C1523 0.950 . S
C1527 C1518 1.390 . S
C1527 H1520 0.950 . S
C1527 C1524 1.387 . S
C1528 C1529 1.387 . S
C1528 H1532 0.950 . S
C1528 C1537 1.390 . S
C1529 C1528 1.387 . S
C1529 C1531 1.387 . S
H1530 C1537 0.950 . S
C1531 C1529 1.387 . S
C1531 C1533 1.390 . S
C1531 H1535 0.950 . S
H1532 C1528 0.950 . S
C1533 C1531 1.390 . S
C1533 C1534 1.387 . S
C1533 H1536 0.950 . S
C1534 C1533 1.387 . S
C1534 C1537 1.387 . S
H1535 C1531 0.950 . S
H1536 C1533 0.950 . S
C1537 C1528 1.390 . S
C1537 H1530 0.950 . S
C1537 C1534 1.387 . S
C1538 C1539 1.387 . S
C1538 H1542 0.950 . S
C1538 C1547 1.390 . S
C1539 C1538 1.387 . S
C1539 C1541 1.387 . S
H1540 C1547 0.950 . S
C1541 C1539 1.387 . S
C1541 C1543 1.390 . S
C1541 H1545 0.950 . S
H1542 C1538 0.950 . S
C1543 C1541 1.390 . S
C1543 C1544 1.387 . S
C1543 H1546 0.950 . S
C1544 C1543 1.387 . S
C1544 C1547 1.387 . S
H1545 C1541 0.950 . S
H1546 C1543 0.950 . S
C1547 C1538 1.390 . S
C1547 H1540 0.950 . S
C1547 C1544 1.387 . S
C1548 C1549 1.387 . S
C1548 H1552 0.950 . S
C1548 C1557 1.390 . S
C1549 C1548 1.387 . S
C1549 C1551 1.387 . S
H1550 C1557 0.950 . S
C1551 C1549 1.387 . S
C1551 C1553 1.390 . S
C1551 H1555 0.950 . S
H1552 C1548 0.950 . S
C1553 C1551 1.390 . S
C1553 C1554 1.387 . S
C1553 H1556 0.950 . S
C1554 C1553 1.387 . S
C1554 C1557 1.387 . S
H1555 C1551 0.950 . S
H1556 C1553 0.950 . S
C1557 C1548 1.390 . S
C1557 H1550 0.950 . S
C1557 C1554 1.387 . S
C1558 C1559 1.387 . S
C1558 H1562 0.950 . S
C1558 C1567 1.390 . S
C1559 C1558 1.387 . S
C1559 C1561 1.387 . S
H1560 C1567 0.950 . S
C1561 C1559 1.387 . S
C1561 C1563 1.390 . S
C1561 H1565 0.950 . S
H1562 C1558 0.950 . S
C1563 C1561 1.390 . S
C1563 C1564 1.387 . S
C1563 H1566 0.950 . S
C1564 C1563 1.387 . S
C1564 C1567 1.387 . S
H1565 C1561 0.950 . S
H1566 C1563 0.950 . S
C1567 C1558 1.390 . S
C1567 H1560 0.950 . S
C1567 C1564 1.387 . S
C1568 C1569 1.387 1_554 S
C1568 H1572 0.950 . S
C1568 C1577 1.390 . S
C1569 C1568 1.387 1_556 S
C1569 C1571 1.387 . S
H1570 C1577 0.950 . S
C1571 C1569 1.387 . S
C1571 C1573 1.390 . S
C1571 H1575 0.950 . S
H1572 C1568 0.950 . S
C1573 C1571 1.390 . S
C1573 C1574 1.387 . S
C1573 H1576 0.950 . S
C1574 C1573 1.387 . S
C1574 C1577 1.387 1_556 S
H1575 C1571 0.950 . S
H1576 C1573 0.950 . S
C1577 C1568 1.390 . S
C1577 H1570 0.950 . S
C1577 C1574 1.387 1_554 S
C1578 C1579 1.387 . S
C1578 H1582 0.950 . S
C1578 C1587 1.390 . S
C1579 C1578 1.387 . S
C1579 C1581 1.387 . S
H1580 C1587 0.950 . S
C1581 C1579 1.387 . S
C1581 C1583 1.390 . S
C1581 H1585 0.950 . S
H1582 C1578 0.950 . S
C1583 C1581 1.390 . S
C1583 C1584 1.387 . S
C1583 H1586 0.950 . S
C1584 C1583 1.387 . S
C1584 C1587 1.387 . S
H1585 C1581 0.950 . S
H1586 C1583 0.950 . S
C1587 C1578 1.390 . S
C1587 H1580 0.950 . S
C1587 C1584 1.387 . S
C1588 C1589 1.387 . S
C1588 H1592 0.950 . S
C1588 C1597 1.390 . S
C1589 C1588 1.387 . S
C1589 C1591 1.391 1_554 S
H1590 C1597 0.950 . S
C1591 C1589 1.391 1_556 S
C1591 C1593 1.390 . S
C1591 H1595 0.947 . S
H1592 C1588 0.950 . S
C1593 C1591 1.390 . S
C1593 C1594 1.387 1_556 S
C1593 H1596 0.950 . S
C1594 C1593 1.387 1_554 S
C1594 C1597 1.387 . S
H1595 C1591 0.947 . S
H1596 C1593 0.950 . S
C1597 C1588 1.390 . S
C1597 H1590 0.950 . S
C1597 C1594 1.387 . S
C1598 C1599 1.387 1_556 S
C1598 H1602 0.950 . S
C1598 C1607 1.390 . S
C1599 C1598 1.387 1_554 S
C1599 C1601 1.387 . S
H1600 C1607 0.950 . S
C1601 C1599 1.387 . S
C1601 C1603 1.390 . S
C1601 H1605 0.950 . S
H1602 C1598 0.950 . S
C1603 C1601 1.390 . S
C1603 C1604 1.387 . S
C1603 H1606 0.950 . S
C1604 C1603 1.387 . S
C1604 C1607 1.387 1_554 S
H1605 C1601 0.950 . S
H1606 C1603 0.950 . S
C1607 C1598 1.390 . S
C1607 H1600 0.950 . S
C1607 C1604 1.387 1_556 S
C1134 C971 1.455 . S
C1129 C331 1.458 . S
C1144 C979 1.267 . S
C1139 C380 1.523 . S
C1149 C421 1.437 . S
C1154 C999 1.428 . S
C1164 C1013 1.500 . S
C1159 C260 1.491 . S
C1174 C1028 1.523 . S
C1169 C620 1.500 . S
C1184 C1042 1.523 . S
C1179 C740 1.508 . S
C1189 C680 1.532 . S
C1194 C1056 1.559 . S
C1204 C1062 1.436 . S
C1199 C571 1.470 . S
C1209 C691 1.487 . S
C1214 C1076 1.487 . S
C1224 C1097 1.522 . S
C1219 C541 1.521 . S
C1229 C601 1.464 . S
C1234 C1077 1.239 . S
C1244 C1098 1.540 . S
C1239 C721 1.521 . S
C1249 C451 1.476 . S
C1254 C1105 1.218 . S
C1259 C241 1.478 . S
C1264 C1111 1.495 . S
C1269 C320 1.483 . S
C1274 C1104 1.464 . S
C1279 C391 1.475 . S
C1284 C1112 1.490 . S
C1289 C211 1.477 . S
C1294 C1006 1.456 . S
C1299 C841 1.486 . S
C1304 C1007 1.247 . S
C1314 C964 1.500 . S
C1309 C901 1.546 . S
C1324 C985 1.449 . S
C1319 C500 1.467 . S
C1329 C271 1.470 . S
C1334 C1020 1.456 . S
C1344 C1070 1.526 . S
C1339 C661 1.500 . S
C1354 C1021 1.216 . S
C1349 C560 1.438 . S
C1364 C1049 1.263 . S
C1359 C751 1.548 . S
C1374 C1055 1.455 . S
C1369 C871 1.458 . S
C1379 C920 1.523 . S
C1384 C1063 1.268 . S
C1389 C481 1.437 . S
C1394 C1027 1.429 . S
C1404 C1041 1.500 . S
C1399 C800 1.488 . S
C1409 C200 1.500 . S
C1414 C1000 1.523 . S
C1424 C1014 1.523 . S
C1419 C20 1.508 . S
C1434 C972 1.559 . S
C1429 C80 1.532 . S
C1444 C978 1.437 . S
C1439 C151 1.470 . S
C1449 C91 1.488 . S
C1454 C1090 1.490 . S
C1459 C121 1.522 . S
C1464 C1083 1.521 . S
C1469 C181 1.464 . S
C1474 C1091 1.245 . S
C1479 C1 1.521 . S
C1484 C1084 1.540 . S
C1494 C1119 1.211 . S
C1489 C511 1.475 . S
C1504 C1125 1.495 . S
C1499 C781 1.478 . S
C1514 C1118 1.464 . S
C1509 C860 1.483 . S
C1519 C931 1.475 . S
C1524 C1126 1.490 . S
C1529 C631 1.477 . S
C1534 C1034 1.459 . S
C1544 C1035 1.254 . S
C1539 C301 1.487 . S
C1554 C1048 1.503 . S
C1549 C361 1.545 . S
C1564 C1069 1.449 . S
C1559 C440 1.467 . S
C1569 C811 1.470 . S
C1574 C992 1.458 . S
C1584 C986 1.526 . S
C1579 C61 1.500 . S
C1589 C140 1.439 . S
C1594 C993 1.216 . S
C1604 C965 1.263 . S
C1599 C31 1.548 . S
