# Generated by pormake.
# Topology ptr, (4,4)-cn, num edge types: 1
# Building blocks:
#     Node 0, Type 0, BuildingBlock: QUQFOY_clean_sbu_3, # of connection points: 4
#     Node 1, Type 0, BuildingBlock: QUQFOY_clean_sbu_3, # of connection points: 4
#     Node 2, Type 0, BuildingBlock: QUQFOY_clean_sbu_3, # of connection points: 4
#     Node 3, Type 0, BuildingBlock: QUQFOY_clean_sbu_3, # of connection points: 4
#     Node 4, Type 0, BuildingBlock: QUQFOY_clean_sbu_3, # of connection points: 4
#     Node 5, Type 0, BuildingBlock: QUQFOY_clean_sbu_3, # of connection points: 4
#     Node 6, Type 0, BuildingBlock: QUQFOY_clean_sbu_3, # of connection points: 4
#     Node 7, Type 0, BuildingBlock: QUQFOY_clean_sbu_3, # of connection points: 4
#     Node 8, Type 0, BuildingBlock: QUQFOY_clean_sbu_3, # of connection points: 4
#     Node 9, Type 0, BuildingBlock: QUQFOY_clean_sbu_3, # of connection points: 4
#     Node 10, Type 0, BuildingBlock: QUQFOY_clean_sbu_3, # of connection points: 4
#     Node 11, Type 0, BuildingBlock: QUQFOY_clean_sbu_3, # of connection points: 4
#     Node 12, Type 0, BuildingBlock: QUQFOY_clean_sbu_3, # of connection points: 4
#     Node 13, Type 0, BuildingBlock: QUQFOY_clean_sbu_3, # of connection points: 4
#     Node 14, Type 0, BuildingBlock: QUQFOY_clean_sbu_3, # of connection points: 4
#     Node 15, Type 0, BuildingBlock: QUQFOY_clean_sbu_3, # of connection points: 4
#     Node 16, Type 0, BuildingBlock: QUQFOY_clean_sbu_3, # of connection points: 4
#     Node 17, Type 0, BuildingBlock: QUQFOY_clean_sbu_3, # of connection points: 4
#     Node 18, Type 1, BuildingBlock: MIFKUJ_clean_linker_1, # of connection points: 4
#     Node 19, Type 1, BuildingBlock: MIFKUJ_clean_linker_1, # of connection points: 4
#     Node 20, Type 1, BuildingBlock: MIFKUJ_clean_linker_1, # of connection points: 4
#     Node 21, Type 1, BuildingBlock: MIFKUJ_clean_linker_1, # of connection points: 4
#     Node 22, Type 1, BuildingBlock: MIFKUJ_clean_linker_1, # of connection points: 4
#     Node 23, Type 1, BuildingBlock: MIFKUJ_clean_linker_1, # of connection points: 4
#     Node 24, Type 1, BuildingBlock: MIFKUJ_clean_linker_1, # of connection points: 4
#     Node 25, Type 1, BuildingBlock: MIFKUJ_clean_linker_1, # of connection points: 4
#     Node 26, Type 1, BuildingBlock: MIFKUJ_clean_linker_1, # of connection points: 4
#     Node 27, Type 1, BuildingBlock: MIFKUJ_clean_linker_1, # of connection points: 4
#     Node 28, Type 1, BuildingBlock: MIFKUJ_clean_linker_1, # of connection points: 4
#     Node 29, Type 1, BuildingBlock: MIFKUJ_clean_linker_1, # of connection points: 4
#     Node 30, Type 1, BuildingBlock: MIFKUJ_clean_linker_1, # of connection points: 4
#     Node 31, Type 1, BuildingBlock: MIFKUJ_clean_linker_1, # of connection points: 4
#     Node 32, Type 1, BuildingBlock: MIFKUJ_clean_linker_1, # of connection points: 4
#     Node 33, Type 1, BuildingBlock: MIFKUJ_clean_linker_1, # of connection points: 4
#     Node 34, Type 1, BuildingBlock: MIFKUJ_clean_linker_1, # of connection points: 4
#     Node 35, Type 1, BuildingBlock: MIFKUJ_clean_linker_1, # of connection points: 4
#     Edge 36, Type (0, 1), BuildingBlock: XIVTED_clean_linker_0, # of connection points: 2
#     Edge 37, Type (0, 1), BuildingBlock: XIVTED_clean_linker_0, # of connection points: 2
#     Edge 38, Type (0, 1), BuildingBlock: XIVTED_clean_linker_0, # of connection points: 2
#     Edge 39, Type (0, 1), BuildingBlock: XIVTED_clean_linker_0, # of connection points: 2
#     Edge 40, Type (0, 1), BuildingBlock: XIVTED_clean_linker_0, # of connection points: 2
#     Edge 41, Type (0, 1), BuildingBlock: XIVTED_clean_linker_0, # of connection points: 2
#     Edge 42, Type (0, 1), BuildingBlock: XIVTED_clean_linker_0, # of connection points: 2
#     Edge 43, Type (0, 1), BuildingBlock: XIVTED_clean_linker_0, # of connection points: 2
#     Edge 44, Type (0, 1), BuildingBlock: XIVTED_clean_linker_0, # of connection points: 2
#     Edge 45, Type (0, 1), BuildingBlock: XIVTED_clean_linker_0, # of connection points: 2
#     Edge 46, Type (0, 1), BuildingBlock: XIVTED_clean_linker_0, # of connection points: 2
#     Edge 47, Type (0, 1), BuildingBlock: XIVTED_clean_linker_0, # of connection points: 2
#     Edge 48, Type (0, 1), BuildingBlock: XIVTED_clean_linker_0, # of connection points: 2
#     Edge 49, Type (0, 1), BuildingBlock: XIVTED_clean_linker_0, # of connection points: 2
#     Edge 50, Type (0, 1), BuildingBlock: XIVTED_clean_linker_0, # of connection points: 2
#     Edge 51, Type (0, 1), BuildingBlock: XIVTED_clean_linker_0, # of connection points: 2
#     Edge 52, Type (0, 1), BuildingBlock: XIVTED_clean_linker_0, # of connection points: 2
#     Edge 53, Type (0, 1), BuildingBlock: XIVTED_clean_linker_0, # of connection points: 2
#     Edge 54, Type (0, 1), BuildingBlock: XIVTED_clean_linker_0, # of connection points: 2
#     Edge 55, Type (0, 1), BuildingBlock: XIVTED_clean_linker_0, # of connection points: 2
#     Edge 56, Type (0, 1), BuildingBlock: XIVTED_clean_linker_0, # of connection points: 2
#     Edge 57, Type (0, 1), BuildingBlock: XIVTED_clean_linker_0, # of connection points: 2
#     Edge 58, Type (0, 1), BuildingBlock: XIVTED_clean_linker_0, # of connection points: 2
#     Edge 59, Type (0, 1), BuildingBlock: XIVTED_clean_linker_0, # of connection points: 2
#     Edge 60, Type (0, 1), BuildingBlock: XIVTED_clean_linker_0, # of connection points: 2
#     Edge 61, Type (0, 1), BuildingBlock: XIVTED_clean_linker_0, # of connection points: 2
#     Edge 62, Type (0, 1), BuildingBlock: XIVTED_clean_linker_0, # of connection points: 2
#     Edge 63, Type (0, 1), BuildingBlock: XIVTED_clean_linker_0, # of connection points: 2
#     Edge 64, Type (0, 1), BuildingBlock: XIVTED_clean_linker_0, # of connection points: 2
#     Edge 65, Type (0, 1), BuildingBlock: XIVTED_clean_linker_0, # of connection points: 2
#     Edge 66, Type (0, 1), BuildingBlock: XIVTED_clean_linker_0, # of connection points: 2
#     Edge 67, Type (0, 1), BuildingBlock: XIVTED_clean_linker_0, # of connection points: 2
#     Edge 68, Type (0, 1), BuildingBlock: XIVTED_clean_linker_0, # of connection points: 2
#     Edge 69, Type (0, 1), BuildingBlock: XIVTED_clean_linker_0, # of connection points: 2
#     Edge 70, Type (0, 1), BuildingBlock: XIVTED_clean_linker_0, # of connection points: 2
#     Edge 71, Type (0, 1), BuildingBlock: XIVTED_clean_linker_0, # of connection points: 2
#     Edge 72, Type (0, 1), BuildingBlock: XIVTED_clean_linker_0, # of connection points: 2
#     Edge 73, Type (0, 1), BuildingBlock: XIVTED_clean_linker_0, # of connection points: 2
#     Edge 74, Type (0, 1), BuildingBlock: XIVTED_clean_linker_0, # of connection points: 2
#     Edge 75, Type (0, 1), BuildingBlock: XIVTED_clean_linker_0, # of connection points: 2
#     Edge 76, Type (0, 1), BuildingBlock: XIVTED_clean_linker_0, # of connection points: 2
#     Edge 77, Type (0, 1), BuildingBlock: XIVTED_clean_linker_0, # of connection points: 2
#     Edge 78, Type (0, 1), BuildingBlock: XIVTED_clean_linker_0, # of connection points: 2
#     Edge 79, Type (0, 1), BuildingBlock: XIVTED_clean_linker_0, # of connection points: 2
#     Edge 80, Type (0, 1), BuildingBlock: XIVTED_clean_linker_0, # of connection points: 2
#     Edge 81, Type (0, 1), BuildingBlock: XIVTED_clean_linker_0, # of connection points: 2
#     Edge 82, Type (0, 1), BuildingBlock: XIVTED_clean_linker_0, # of connection points: 2
#     Edge 83, Type (0, 1), BuildingBlock: XIVTED_clean_linker_0, # of connection points: 2
#     Edge 84, Type (0, 1), BuildingBlock: XIVTED_clean_linker_0, # of connection points: 2
#     Edge 85, Type (0, 1), BuildingBlock: XIVTED_clean_linker_0, # of connection points: 2
#     Edge 86, Type (0, 1), BuildingBlock: XIVTED_clean_linker_0, # of connection points: 2
#     Edge 87, Type (0, 1), BuildingBlock: XIVTED_clean_linker_0, # of connection points: 2
#     Edge 88, Type (0, 1), BuildingBlock: XIVTED_clean_linker_0, # of connection points: 2
#     Edge 89, Type (0, 1), BuildingBlock: XIVTED_clean_linker_0, # of connection points: 2
#     Edge 90, Type (0, 1), BuildingBlock: XIVTED_clean_linker_0, # of connection points: 2
#     Edge 91, Type (0, 1), BuildingBlock: XIVTED_clean_linker_0, # of connection points: 2
#     Edge 92, Type (0, 1), BuildingBlock: XIVTED_clean_linker_0, # of connection points: 2
#     Edge 93, Type (0, 1), BuildingBlock: XIVTED_clean_linker_0, # of connection points: 2
#     Edge 94, Type (0, 1), BuildingBlock: XIVTED_clean_linker_0, # of connection points: 2
#     Edge 95, Type (0, 1), BuildingBlock: XIVTED_clean_linker_0, # of connection points: 2
#     Edge 96, Type (0, 1), BuildingBlock: XIVTED_clean_linker_0, # of connection points: 2
#     Edge 97, Type (0, 1), BuildingBlock: XIVTED_clean_linker_0, # of connection points: 2
#     Edge 98, Type (0, 1), BuildingBlock: XIVTED_clean_linker_0, # of connection points: 2
#     Edge 99, Type (0, 1), BuildingBlock: XIVTED_clean_linker_0, # of connection points: 2
#     Edge 100, Type (0, 1), BuildingBlock: XIVTED_clean_linker_0, # of connection points: 2
#     Edge 101, Type (0, 1), BuildingBlock: XIVTED_clean_linker_0, # of connection points: 2
#     Edge 102, Type (0, 1), BuildingBlock: XIVTED_clean_linker_0, # of connection points: 2
#     Edge 103, Type (0, 1), BuildingBlock: XIVTED_clean_linker_0, # of connection points: 2
#     Edge 104, Type (0, 1), BuildingBlock: XIVTED_clean_linker_0, # of connection points: 2
#     Edge 105, Type (0, 1), BuildingBlock: XIVTED_clean_linker_0, # of connection points: 2
#     Edge 106, Type (0, 1), BuildingBlock: XIVTED_clean_linker_0, # of connection points: 2
#     Edge 107, Type (0, 1), BuildingBlock: XIVTED_clean_linker_0, # of connection points: 2
# Relax obj value: 0.033
# Max RMSD: 0.122
# Mean RMSD: 0.057
data_MOF--net-ptr--node1-QUQFOY_clean_sbu_3--node2-MIFKUJ_clean_linker_1--edge1-XIVTED_clean_linker_0
_symmetry_space_group_name_H-M    P1
_symmetry_Int_Tables_number       1
_symmetry_cell_setting            triclinic
loop_
_symmetry_equiv_pos_as_xyz
'x, y, z'
_cell_length_a     90.797225
_cell_length_b     91.239112
_cell_length_c     63.121896
_cell_angle_alpha  90.449989
_cell_angle_beta   89.541522
_cell_angle_gamma 120.49325
loop_
_atom_site_label
_atom_site_type_symbol
_atom_site_fract_x
_atom_site_fract_y
_atom_site_fract_z
_atom_type_partial_charge
C0 C 0.96362 0.31499 0.9934 0.0
O1 O 0.956 0.32284 -0.00093 0.0
Cd2 Cd 0.96971 0.34991 0.01726 0.0
O3 O 0.97933 0.32106 -0.00227 0.0
Cd4 Cd 0.00275 0.34589 0.01598 0.0
C5 C 0.00183 0.37345 0.98135 0.0
O6 O 0.98706 0.34983 0.04524 0.0
O7 O 0.01287 0.37031 0.03942 0.0
O8 O 0.00892 0.32688 0.03523 0.0
C9 C -0.00055 0.36425 0.05074 0.0
O10 O 0.98863 0.37089 0.99168 0.0
C11 C 0.02425 0.33316 0.02896 0.0
O12 O 0.00912 0.36491 0.98514 0.0
O13 O 0.02979 0.34539 0.01586 0.0
C14 C 0.6379 0.6782 0.02383 0.0
O15 O 0.62226 0.67083 0.01866 0.0
Cd16 Cd 0.60752 0.64362 0.00173 0.0
O17 O 0.64695 0.6716 0.01905 0.0
Cd18 Cd 0.64386 0.64632 -0.00018 0.0
C19 C 0.61658 0.62053 0.03732 0.0
O20 O 0.62403 0.64369 0.97213 0.0
O21 O 0.62663 0.62171 0.97696 0.0
O22 O 0.6691 0.6646 0.97918 0.0
C23 C 0.62041 0.62893 0.96616 0.0
O24 O 0.60607 0.62399 0.0287 0.0
C25 C 0.67778 0.65795 0.98476 0.0
O26 O 0.63202 0.62751 0.03083 0.0
O27 O 0.67081 0.64575 -0.0021 0.0
C28 C 0.31181 0.96422 0.01654 0.0
O29 O 0.31756 0.95568 0.00742 0.0
Cd30 Cd 0.34647 0.96904 0.99489 0.0
O31 O 0.3207 0.98038 0.01726 0.0
Cd32 Cd 0.34775 0.00415 0.00346 0.0
C33 C 0.36796 0.9937 0.03896 0.0
O34 O 0.35078 0.99102 0.97103 0.0
O35 O 0.37304 0.01425 0.98146 0.0
O36 O 0.32885 0.01334 0.99081 0.0
C37 C 0.36615 0.00258 0.96762 0.0
O38 O 0.36389 0.9811 0.02663 0.0
C39 C 0.33808 0.02881 -0.00379 0.0
O40 O 0.36321 0.00438 0.03511 0.0
O41 O 0.35201 0.033 0.00567 0.0
C42 C 0.95176 0.64034 -0.00375 0.0
O43 O 0.944 0.62531 0.00353 0.0
Cd44 Cd 0.95901 0.61256 0.01904 0.0
O45 O 0.96792 0.6495 -0.00222 0.0
Cd46 Cd 0.99221 0.64828 0.01274 0.0
C47 C 0.98706 0.61788 0.97846 0.0
O48 O 0.97928 0.631 0.04473 0.0
O49 O 0.00321 0.63393 0.03368 0.0
O50 O 0.00032 0.67584 0.02773 0.0
C51 C 0.99153 0.62831 0.04765 0.0
O52 O 0.97477 0.60813 0.99071 0.0
C53 C 0.01582 0.68319 0.0218 0.0
O54 O -0.00489 0.63398 0.98106 0.0
O55 O 0.02046 0.67438 0.01103 0.0
C56 C 0.31722 0.35779 0.02577 0.0
O57 O 0.32436 0.37328 0.02026 0.0
Cd58 Cd 0.35181 0.388 0.0034 0.0
O59 O 0.32421 0.34902 0.0216 0.0
Cd60 Cd 0.34957 0.35167 0.00309 0.0
C61 C 0.37585 0.3803 0.03926 0.0
O62 O 0.35114 0.37044 0.97486 0.0
O63 O 0.37273 0.36676 0.9776 0.0
O64 O 0.32972 0.32532 0.98578 0.0
C65 C 0.36539 0.37325 0.96759 0.0
O66 O 0.37195 0.39033 0.0303 0.0
C67 C 0.33742 0.31741 0.99022 0.0
O68 O 0.369 0.36479 0.03339 0.0
O69 O 0.35087 0.32533 0.00137 0.0
C70 C 0.68444 0.03432 0.99399 0.0
O71 O 0.67735 0.04239 0.00077 0.0
Cd72 Cd 0.64876 0.02834 0.01454 0.0
O73 O 0.67706 0.01824 0.99613 0.0
Cd74 Cd 0.65099 0.99428 0.01227 0.0
C75 C 0.62867 -0.00063 0.97348 0.0
O76 O 0.64568 0.00883 0.04151 0.0
O77 O 0.6251 0.98363 0.03341 0.0
O78 O 0.67019 0.98844 0.03173 0.0
C79 C 0.63074 -0.00345 0.04546 0.0
O80 O 0.63205 0.01275 0.98383 0.0
C81 C 0.66384 0.97309 0.02584 0.0
O82 O 0.63422 0.98974 0.97958 0.0
O83 O 0.65137 0.96733 0.01297 0.0
C84 C 0.62607 0.64724 0.32794 0.0
O85 O 0.61691 0.65335 0.33399 0.0
Cd86 Cd 0.62873 0.68151 0.34835 0.0
O87 O 0.64215 0.65541 0.33104 0.0
Cd88 Cd 0.66416 0.68173 0.34905 0.0
C89 C 0.66033 0.70556 0.31127 0.0
O90 O 0.64672 0.68419 0.37708 0.0
O91 O 0.6718 0.70615 0.37205 0.0
O92 O 0.67168 0.66444 0.36987 0.0
C93 C 0.658 0.69911 0.3827 0.0
O94 O 0.64598 0.70092 0.32018 0.0
C95 C 0.68706 0.67115 0.36364 0.0
O96 O 0.66988 0.70002 0.31775 0.0
O97 O 0.69211 0.68298 0.35002 0.0
C98 C 0.30603 0.0141 0.36098 0.0
O99 O 0.29022 0.00746 0.35704 0.0
Cd100 Cd 0.27325 0.97899 0.34442 0.0
O101 O 0.31383 0.00612 0.35663 0.0
Cd102 Cd 0.30717 0.97899 0.3386 0.0
C103 C 0.28272 0.95634 0.37977 0.0
O104 O 0.28634 0.97668 0.31238 0.0
O105 O 0.28725 0.95384 0.31798 0.0
O106 O 0.33234 0.99465 0.31634 0.0
C107 C 0.28158 0.9615 0.30704 0.0
O108 O 0.27208 0.96039 0.37301 0.0
C109 C 0.3395 0.98639 0.32165 0.0
O110 O 0.29711 0.9618 0.37064 0.0
O111 O 0.33168 0.97462 0.33515 0.0
C112 C 0.98595 0.2944 0.36009 0.0
O113 O 0.9935 0.28622 0.35587 0.0
Cd114 Cd 0.02077 0.29825 0.33913 0.0
O115 O 0.99252 0.30994 0.35474 0.0
Cd116 Cd 0.01833 0.33214 0.33609 0.0
C117 C 0.04321 0.33093 0.37482 0.0
O118 O 0.01906 0.31324 0.30934 0.0
O119 O 0.04093 0.33867 0.30993 0.0
O120 O -0.00011 0.3402 0.31846 0.0
C121 C 0.03305 0.32422 0.30096 0.0
O122 O 0.03974 0.31668 0.36684 0.0
C123 C 0.00869 0.35589 0.32306 0.0
O124 O 0.03687 0.33938 0.36714 0.0
O125 O 0.0219 0.36058 0.33431 0.0
C126 C 0.62602 0.96352 0.31857 0.0
O127 O 0.62029 0.94804 0.32334 0.0
Cd128 Cd 0.63569 0.93821 0.34394 0.0
O129 O 0.64083 0.97501 0.32459 0.0
Cd130 Cd 0.66511 0.97742 0.34494 0.0
C131 C 0.67089 0.95129 0.31194 0.0
O132 O 0.64807 0.95761 0.3728 0.0
O133 O 0.6749 0.96575 0.37277 0.0
O134 O 0.66868 0.00336 0.36085 0.0
C135 C 0.66042 0.95745 0.38176 0.0
O136 O 0.65787 0.93916 0.32102 0.0
C137 C 0.68428 0.01271 0.35571 0.0
O138 O 0.67566 0.96676 0.3161 0.0
O139 O 0.69103 0.00572 0.34509 0.0
C140 C 0.98371 0.69202 0.35807 0.0
O141 O 0.99114 0.70764 0.35314 0.0
Cd142 Cd 0.01925 0.72297 0.33871 0.0
O143 O 0.99103 0.68342 0.35484 0.0
Cd144 Cd 0.01826 0.68814 0.33884 0.0
C145 C 0.04193 0.716 0.37698 0.0
O146 O 0.01967 0.7062 0.30965 0.0
O147 O 0.04278 0.70582 0.31575 0.0
O148 O 0.00072 0.66023 0.32276 0.0
C149 C 0.03469 0.71044 0.3039 0.0
O150 O 0.03866 0.72625 0.3674 0.0
C151 C 0.01084 0.65488 0.32678 0.0
O152 O 0.0353 0.70061 0.37081 0.0
O153 O 0.02431 0.66486 0.33699 0.0
C154 C 0.34892 0.3691 0.32289 0.0
O155 O 0.34155 0.37734 0.32783 0.0
Cd156 Cd 0.31409 0.36491 0.34442 0.0
O157 O 0.34226 0.35348 0.32787 0.0
Cd158 Cd 0.31685 0.33111 0.34726 0.0
C159 C 0.29151 0.33187 0.30881 0.0
O160 O 0.3145 0.34923 0.37417 0.0
O161 O 0.29323 0.3235 0.37203 0.0
O162 O 0.33629 0.32511 0.3662 0.0
C163 C 0.30019 0.33779 0.38141 0.0
O164 O 0.29519 0.34615 0.31693 0.0
C165 C 0.32874 0.30936 0.36181 0.0
O166 O 0.29789 0.32332 0.31615 0.0
O167 O 0.3156 0.30355 0.35008 0.0
C168 C 0.29502 0.98724 0.65446 0.0
O169 O 0.28736 0.99547 0.65784 0.0
Cd170 Cd 0.29864 0.0216 0.67772 0.0
O171 O 0.31005 0.99275 0.66152 0.0
Cd172 Cd 0.33181 0.01763 0.68193 0.0
C173 C 0.33371 0.04691 0.6471 0.0
O174 O 0.31196 0.01817 0.70809 0.0
O175 O 0.33813 0.03864 0.71007 0.0
O176 O 0.33969 -0.00178 0.6978 0.0
C177 C 0.3231 0.03146 0.71758 0.0
O178 O 0.31968 0.04419 0.65525 0.0
C179 C 0.35563 0.00758 0.69448 0.0
O180 O 0.34032 0.03803 0.65235 0.0
O181 O 0.3605 0.02148 0.6848 0.0
C182 C 0.96789 0.34024 0.68277 0.0
O183 O 0.95267 0.33237 0.67583 0.0
Cd184 Cd 0.93949 0.3056 0.65791 0.0
O185 O 0.97795 0.33452 0.67946 0.0
Cd186 Cd 0.97805 0.31054 0.66014 0.0
C187 C 0.94806 0.28257 0.69442 0.0
O188 O 0.95979 0.30925 0.63165 0.0
O189 O 0.96532 0.28899 0.63141 0.0
O190 O 0.00627 0.33192 0.64749 0.0
C191 C 0.95783 0.29592 0.62277 0.0
O192 O 0.93768 0.28573 0.68487 0.0
C193 C 0.01352 0.32348 0.65154 0.0
O194 O 0.96387 0.29025 0.68936 0.0
O195 O 0.00433 0.30902 0.66012 0.0
C196 C 0.64689 0.62816 0.69054 0.0
O197 O 0.65354 0.61936 0.68516 0.0
Cd198 Cd 0.68235 0.63247 0.67272 0.0
O199 O 0.65481 0.64415 0.68746 0.0
Cd200 Cd 0.68117 0.66648 0.67029 0.0
C201 C 0.70346 0.66407 0.71069 0.0
O202 O 0.68424 0.64929 0.6429 0.0
O203 O 0.70632 0.67415 0.64838 0.0
O204 O 0.66288 0.67298 0.65002 0.0
C205 C 0.69921 0.66059 0.63742 0.0
O206 O 0.69982 0.64985 0.70239 0.0
C207 C 0.66999 0.68852 0.65535 0.0
O208 O 0.69797 0.67315 0.70266 0.0
O209 O 0.68257 0.69406 0.66799 0.0
C210 C 0.28935 0.30357 0.65205 0.0
O211 O 0.28196 0.28767 0.65541 0.0
Cd212 Cd 0.29436 0.27406 0.67501 0.0
O213 O 0.30436 0.31352 0.65901 0.0
Cd214 Cd 0.32652 0.31193 0.67954 0.0
C215 C 0.33012 0.2853 0.64486 0.0
O216 O 0.30683 0.29144 0.70554 0.0
O217 O 0.33325 0.29833 0.70805 0.0
O218 O 0.33265 0.33926 0.69415 0.0
C219 C 0.31817 0.29007 0.71539 0.0
O220 O 0.31616 0.27357 0.65273 0.0
C221 C 0.34875 0.34642 0.69204 0.0
O222 O 0.33617 0.3008 0.65024 0.0
O223 O 0.35452 0.33763 0.68363 0.0
C224 C 0.65494 0.0293 0.68648 0.0
O225 O 0.66302 0.04466 0.68033 0.0
Cd226 Cd 0.68978 0.05741 0.66217 0.0
O227 O 0.66075 0.01942 0.68268 0.0
Cd228 Cd 0.6854 0.02031 0.66409 0.0
C229 C 0.71339 0.04977 0.69844 0.0
O230 O 0.68582 0.0376 0.63478 0.0
O231 O 0.70719 0.03358 0.63594 0.0
O232 O 0.66436 0.99192 0.65192 0.0
C233 C 0.69937 0.03968 0.62618 0.0
O234 O 0.71033 0.06015 0.6888 0.0
C235 C 0.67351 0.98532 0.65524 0.0
O236 O 0.70548 0.03403 0.69349 0.0
O237 O 0.68815 0.99492 0.66328 0.0
C238 C 0.01388 0.69879 0.65864 0.0
O239 O 0.00742 0.70784 0.66367 0.0
Cd240 Cd 0.97883 0.69637 0.67626 0.0
O241 O 0.00556 0.68275 0.66151 0.0
Cd242 Cd 0.97785 0.66107 0.67783 0.0
C243 C 0.95616 0.66585 0.63791 0.0
O244 O 0.97663 0.67926 0.70586 0.0
O245 O 0.95397 0.65469 0.70171 0.0
O246 O -0.0048 0.65099 0.69429 0.0
C247 C 0.96175 0.66842 0.71222 0.0
O248 O 0.96045 0.68009 0.64666 0.0
C249 C 0.98477 0.6353 0.69108 0.0
O250 O 0.96116 0.6562 0.64542 0.0
O251 O 0.97118 0.6315 0.68109 0.0
H252 H 0.13792 0.30886 0.19044 0.0
H253 H 0.11841 0.31501 0.20973 0.0
H254 H 0.0757 0.27448 0.1761 0.0
H255 H 0.09549 0.26807 0.15689 0.0
H256 H 0.14148 0.28218 0.18873 0.0
H257 H 0.12728 0.31394 0.14319 0.0
H258 H 0.10837 0.3204 0.12317 0.0
H259 H 0.09501 0.27745 0.08209 0.0
H260 H 0.11337 0.27041 0.10291 0.0
H261 H 0.1655 0.27082 0.10725 0.0
H262 H 0.19236 0.28141 0.08737 0.0
H263 H 0.21622 0.32585 0.12786 0.0
H264 H 0.18941 0.31552 0.14709 0.0
H265 H 0.14783 0.28919 0.11079 0.0
H266 H 0.17485 0.26757 0.16072 0.0
H267 H 0.19961 0.2732 0.18252 0.0
H268 H 0.19634 0.3132 0.21526 0.0
H269 H 0.17203 0.30774 0.1936 0.0
C270 C 0.11815 0.28796 0.17228 0.0
C271 C 0.12434 0.30113 0.18734 0.0
C272 C 0.11319 0.30481 0.19815 0.0
C273 C 0.09556 0.29539 0.1942 0.0
C274 C 0.08925 0.28194 0.17942 0.0
C275 C 0.1005 0.27828 0.16846 0.0
C276 C 0.13062 0.28528 0.16013 0.0
C277 C 0.14272 0.28342 0.17162 0.0
C278 C 0.13228 0.28706 0.13782 0.0
C279 C 0.12126 0.2913 0.12506 0.0
C280 C 0.12003 0.30566 0.13017 0.0
C281 C 0.10936 0.30945 0.11863 0.0
C282 C 0.10017 0.29932 0.10126 0.0
C283 C 0.10198 0.28541 0.09547 0.0
C284 C 0.1124 0.28138 0.10736 0.0
C285 C 0.17557 0.29225 0.12883 0.0
C286 C 0.17661 0.28274 0.11193 0.0
C287 C 0.19194 0.28876 0.10067 0.0
C288 C 0.20635 0.30449 0.10602 0.0
C289 C 0.20529 0.31379 0.12321 0.0
C290 C 0.19003 0.30779 0.1344 0.0
C291 C 0.15911 0.28694 0.13957 0.0
C292 C 0.14612 0.28707 0.12775 0.0
C293 C 0.15735 0.28499 0.16182 0.0
C294 C 0.17158 0.28723 0.17553 0.0
C295 C 0.17946 0.27748 0.17268 0.0
C296 C 0.19352 0.28064 0.18516 0.0
C297 C 0.19997 0.29374 0.2004 0.0
C298 C 0.1918 0.30319 0.20343 0.0
C299 C 0.17778 0.29996 0.19118 0.0
H300 H 0.73621 0.88685 0.18552 0.0
H301 H 0.73561 0.90724 0.21051 0.0
H302 H 0.68774 0.89741 0.18401 0.0
H303 H 0.68802 0.87667 0.15967 0.0
H304 H 0.71344 0.85391 0.18577 0.0
H305 H 0.73008 0.89858 0.13037 0.0
H306 H 0.72528 0.91831 0.10943 0.0
H307 H 0.67489 0.87707 0.09309 0.0
H308 H 0.67993 0.85755 0.11346 0.0
H309 H 0.67714 0.81882 0.11129 0.0
H310 H 0.66742 0.79203 0.0928 0.0
H311 H 0.71032 0.78949 0.11754 0.0
H312 H 0.7205 0.81693 0.13539 0.0
H313 H 0.70304 0.84829 0.1084 0.0
H314 H 0.67847 0.80687 0.1609 0.0
H315 H 0.67205 0.78319 0.18414 0.0
H316 H 0.72255 0.81201 0.21123 0.0
H317 H 0.72923 0.83548 0.18699 0.0
C318 C 0.7123 0.88037 0.17045 0.0
C319 C 0.72573 0.88931 0.18484 0.0
C320 C 0.72539 0.90094 0.1991 0.0
C321 C 0.71167 0.90394 0.19911 0.0
C322 C 0.69863 0.89558 0.18409 0.0
C323 C 0.69883 0.88376 0.17007 0.0
C324 C 0.71132 0.8661 0.15778 0.0
C325 C 0.71169 0.85291 0.16873 0.0
C326 C 0.70795 0.86428 0.13576 0.0
C327 C 0.7054 0.87659 0.12341 0.0
C328 C 0.71804 0.89385 0.12223 0.0
C329 C 0.71524 0.90511 0.11031 0.0
C330 C 0.69973 0.89927 0.0994 0.0
C331 C 0.68713 0.88197 0.1008 0.0
C332 C 0.68996 0.87078 0.11257 0.0
C333 C 0.69954 0.81991 0.1248 0.0
C334 C 0.68462 0.81265 0.11255 0.0
C335 C 0.67894 0.79718 0.1022 0.0
C336 C 0.68796 0.78849 0.10392 0.0
C337 C 0.70312 0.7959 0.11584 0.0
C338 C 0.70888 0.81151 0.12617 0.0
C339 C 0.70483 0.83602 0.13644 0.0
C340 C 0.70541 0.84956 0.12533 0.0
C341 C 0.7078 0.83762 0.15855 0.0
C342 C 0.70445 0.82288 0.1719 0.0
C343 C 0.68835 0.80797 0.17144 0.0
C344 C 0.6846 0.7945 0.18499 0.0
C345 C 0.69673 0.79572 0.19971 0.0
C346 C 0.71297 0.81056 0.19995 0.0
C347 C 0.71677 0.82404 0.18621 0.0
H348 H 0.10723 0.83966 0.18238 0.0
H349 H 0.08927 0.81667 0.207 0.0
H350 H 0.10175 0.78299 0.17351 0.0
H351 H 0.12048 0.80615 0.14962 0.0
H352 H 0.13999 0.85364 0.17942 0.0
H353 H 0.09379 0.82149 0.12916 0.0
H354 H 0.0744 0.79594 0.10898 0.0
H355 H 0.11784 0.79734 0.07824 0.0
H356 H 0.137 0.8219 0.09949 0.0
H357 H 0.17554 0.85804 0.10535 0.0
H358 H 0.20082 0.87704 0.08489 0.0
H359 H 0.19636 0.91992 0.10566 0.0
H360 H 0.17098 0.9006 0.1267 0.0
H361 H 0.14364 0.85182 0.10124 0.0
H362 H 0.18869 0.87583 0.15148 0.0
H363 H 0.211 0.89522 0.17591 0.0
H364 H 0.1746 0.90461 0.20834 0.0
H365 H 0.15243 0.88604 0.18307 0.0
C366 C 0.11505 0.82462 0.16393 0.0
C367 C 0.10595 0.82728 0.18014 0.0
C368 C 0.09569 0.8142 0.19414 0.0
C369 C 0.09414 0.79817 0.1919 0.0
C370 C 0.10263 0.79524 0.17524 0.0
C371 C 0.11322 0.80843 0.16154 0.0
C372 C 0.12789 0.83921 0.15122 0.0
C373 C 0.14054 0.85346 0.16225 0.0
C374 C 0.12899 0.8386 0.12887 0.0
C375 C 0.11688 0.82357 0.11605 0.0
C376 C 0.0991 0.81616 0.11823 0.0
C377 C 0.08803 0.80166 0.10646 0.0
C378 C 0.09452 0.79445 0.09202 0.0
C379 C 0.11233 0.80223 0.08951 0.0
C380 C 0.12334 0.81649 0.10148 0.0
C381 C 0.17134 0.87791 0.11742 0.0
C382 C 0.17992 0.87152 0.10542 0.0
C383 C 0.19434 0.88241 0.09362 0.0
C384 C 0.20045 0.89997 0.09336 0.0
C385 C 0.19196 0.90644 0.10559 0.0
C386 C 0.17747 0.89546 0.11755 0.0
C387 C 0.15595 0.86583 0.12953 0.0
C388 C 0.14276 0.85219 0.11838 0.0
C389 C 0.15482 0.86659 0.15182 0.0
C390 C 0.16889 0.87973 0.16504 0.0
C391 C 0.1856 0.88258 0.16321 0.0
C392 C 0.19832 0.89353 0.17729 0.0
C393 C 0.19442 0.90136 0.19383 0.0
C394 C 0.17784 0.89871 0.1956 0.0
C395 C 0.16522 0.88811 0.1812 0.0
H396 H 0.26391 0.16274 0.84426 0.0
H397 H 0.26617 0.1861 0.82274 0.0
H398 H 0.32132 0.21065 0.82494 0.0
H399 H 0.31882 0.18776 0.84709 0.0
H400 H 0.28632 0.14383 0.8332 0.0
H401 H 0.27211 0.17435 0.88854 0.0
H402 H 0.27775 0.19982 0.90844 0.0
H403 H 0.32944 0.21126 0.91994 0.0
H404 H 0.32349 0.18559 0.90065 0.0
H405 H 0.32299 0.14635 0.90788 0.0
H406 H 0.32959 0.1289 0.93025 0.0
H407 H 0.28416 0.08378 0.9079 0.0
H408 H 0.27702 0.10153 0.88658 0.0
H409 H 0.29876 0.15233 0.91014 0.0
H410 H 0.32028 0.13296 0.8533 0.0
H411 H 0.32367 0.11291 0.83114 0.0
H412 H 0.26914 0.08489 0.81982 0.0
H413 H 0.26614 0.10575 0.84116 0.0
C414 C 0.2912 0.17365 0.84721 0.0
C415 C 0.27643 0.17325 0.8401 0.0
C416 C 0.27777 0.18656 0.82776 0.0
C417 C 0.29394 0.20036 0.82216 0.0
C418 C 0.30867 0.20051 0.82931 0.0
C419 C 0.30729 0.18735 0.84179 0.0
C420 C 0.29018 0.15986 0.8603 0.0
C421 C 0.28847 0.14533 0.85017 0.0
C422 C 0.29394 0.16237 0.8821 0.0
C423 C 0.29737 0.17811 0.8932 0.0
C424 C 0.28465 0.18243 0.8953 0.0
C425 C 0.28793 0.19701 0.90663 0.0
C426 C 0.30402 0.20754 0.91595 0.0
C427 C 0.31679 0.20326 0.91343 0.0
C428 C 0.31346 0.18865 0.90227 0.0
C429 C 0.29951 0.12527 0.8955 0.0
C430 C 0.31438 0.13269 0.90786 0.0
C431 C 0.31825 0.12266 0.9205 0.0
C432 C 0.30744 0.1049 0.92089 0.0
C433 C 0.29265 0.09744 0.90823 0.0
C434 C 0.28867 0.10754 0.89576 0.0
C435 C 0.29519 0.13631 0.88309 0.0
C436 C 0.29592 0.15034 0.89334 0.0
C437 C 0.29139 0.13375 0.86121 0.0
C438 C 0.29296 0.12076 0.8489 0.0
C439 C 0.30906 0.12242 0.84612 0.0
C440 C 0.31093 0.11081 0.83354 0.0
C441 C 0.29667 0.09712 0.82365 0.0
C442 C 0.28046 0.09538 0.82683 0.0
C443 C 0.27867 0.1072 0.83916 0.0
H444 H 0.83999 0.10706 0.82695 0.0
H445 H 0.8165 0.0907 0.80214 0.0
H446 H 0.78731 0.11056 0.83229 0.0
H447 H 0.81093 0.12727 0.85635 0.0
H448 H 0.85694 0.1421 0.8284 0.0
H449 H 0.82223 0.09621 0.87915 0.0
H450 H 0.79512 0.07842 0.89792 0.0
H451 H 0.79867 0.12357 0.92565 0.0
H452 H 0.82497 0.14113 0.90622 0.0
H453 H 0.85855 0.17524 0.90475 0.0
H454 H 0.87613 0.20173 0.92362 0.0
H455 H 0.92159 0.20489 0.89673 0.0
H456 H 0.90377 0.17766 0.87846 0.0
H457 H 0.85447 0.14584 0.90654 0.0
H458 H 0.87244 0.18837 0.85454 0.0
H459 H 0.88926 0.21129 0.8297 0.0
H460 H 0.90893 0.18139 0.80128 0.0
H461 H 0.89244 0.15861 0.82682 0.0
C462 C 0.82715 0.11822 0.8437 0.0
C463 C 0.82839 0.10763 0.82841 0.0
C464 C 0.81494 0.09823 0.81432 0.0
C465 C 0.80009 0.09943 0.81517 0.0
C466 C 0.79865 0.10952 0.83106 0.0
C467 C 0.81208 0.11892 0.84503 0.0
C468 C 0.84222 0.13015 0.85649 0.0
C469 C 0.85666 0.14264 0.84558 0.0
C470 C 0.8414 0.13131 0.87881 0.0
C471 C 0.82566 0.12004 0.89117 0.0
C472 C 0.81711 0.10223 0.88924 0.0
C473 C 0.80169 0.09208 0.9001 0.0
C474 C 0.79462 0.09958 0.9131 0.0
C475 C 0.80351 0.11736 0.91542 0.0
C476 C 0.81875 0.12744 0.90453 0.0
C477 C 0.8798 0.17438 0.89016 0.0
C478 C 0.87231 0.18145 0.90309 0.0
C479 C 0.8824 0.19678 0.91367 0.0
C480 C 0.90027 0.20558 0.91147 0.0
C481 C 0.90785 0.19839 0.89881 0.0
C482 C 0.89769 0.1829 0.88825 0.0
C483 C 0.86851 0.15842 0.87832 0.0
C484 C 0.85506 0.14495 0.88943 0.0
C485 C 0.8694 0.15718 0.85603 0.0
C486 C 0.88138 0.17186 0.84277 0.0
C487 C 0.88077 0.18692 0.84342 0.0
C488 C 0.89023 0.19995 0.82901 0.0
C489 C 0.90032 0.1981 0.81339 0.0
C490 C 0.90141 0.18326 0.81324 0.0
C491 C 0.89194 0.17021 0.82774 0.0
H492 H 0.81943 0.68265 0.82515 0.0
H493 H 0.79456 0.67776 0.80511 0.0
H494 H 0.79522 0.72012 0.83705 0.0
H495 H 0.8205 0.72512 0.85729 0.0
H496 H 0.85093 0.70785 0.82806 0.0
H497 H 0.80228 0.67836 0.87103 0.0
H498 H 0.77634 0.67236 0.8901 0.0
H499 H 0.80623 0.71429 0.9326 0.0
H500 H 0.83228 0.72091 0.91269 0.0
H501 H 0.88313 0.72002 0.91068 0.0
H502 H 0.89911 0.71044 0.93204 0.0
H503 H 0.8785 0.66454 0.89428 0.0
H504 H 0.86236 0.67399 0.87343 0.0
H505 H 0.84671 0.70155 0.90617 0.0
H506 H 0.89737 0.7209 0.8592 0.0
H507 H 0.91692 0.7152 0.83837 0.0
H508 H 0.87394 0.67643 0.80318 0.0
H509 H 0.85463 0.68177 0.82427 0.0
C510 C 0.82183 0.70425 0.84272 0.0
C511 C 0.81442 0.69108 0.8277 0.0
C512 C 0.80009 0.68817 0.81642 0.0
C513 C 0.79287 0.69843 0.81977 0.0
C514 C 0.80057 0.71203 0.83425 0.0
C515 C 0.81494 0.71487 0.84579 0.0
C516 C 0.8361 0.70587 0.85577 0.0
C517 C 0.85014 0.70671 0.84519 0.0
C518 C 0.83489 0.70413 0.8781 0.0
C519 C 0.81919 0.7005 0.88992 0.0
C520 C 0.80327 0.68658 0.88407 0.0
C521 C 0.78847 0.68305 0.89509 0.0
C522 C 0.78934 0.69297 0.91265 0.0
C523 C 0.80529 0.7065 0.91906 0.0
C524 C 0.82011 0.7103 0.90769 0.0
C525 C 0.87178 0.69783 0.89032 0.0
C526 C 0.8822 0.70797 0.90696 0.0
C527 C 0.89134 0.70251 0.91907 0.0
C528 C 0.89001 0.68671 0.91486 0.0
C529 C 0.87964 0.67667 0.89806 0.0
C530 C 0.87057 0.68215 0.88597 0.0
C531 C 0.86118 0.70292 0.87832 0.0
C532 C 0.84791 0.70349 0.88916 0.0
C533 C 0.86229 0.70451 0.85601 0.0
C534 C 0.87453 0.70177 0.8433 0.0
C535 C 0.89221 0.71114 0.84705 0.0
C536 C 0.90336 0.70793 0.83507 0.0
C537 C 0.89696 0.69526 0.81925 0.0
C538 C 0.87927 0.68605 0.8155 0.0
C539 C 0.86822 0.68925 0.82738 0.0
H540 H 0.80617 0.65237 0.51472 0.0
H541 H 0.78797 0.65806 0.53749 0.0
H542 H 0.74414 0.61009 0.51861 0.0
H543 H 0.76259 0.60498 0.49469 0.0
H544 H 0.81014 0.62368 0.51798 0.0
H545 H 0.79322 0.65301 0.47287 0.0
H546 H 0.77353 0.65906 0.45414 0.0
H547 H 0.75743 0.61449 0.41511 0.0
H548 H 0.77659 0.60782 0.43483 0.0
H549 H 0.82976 0.60716 0.43711 0.0
H550 H 0.85597 0.61628 0.41616 0.0
H551 H 0.88059 0.66413 0.45011 0.0
H552 H 0.85451 0.65514 0.47049 0.0
H553 H 0.81151 0.62655 0.43952 0.0
H554 H 0.84115 0.60701 0.48895 0.0
H555 H 0.86646 0.61296 0.50974 0.0
H556 H 0.8661 0.65561 0.5394 0.0
H557 H 0.84124 0.64981 0.51868 0.0
C558 C 0.78571 0.6282 0.50323 0.0
C559 C 0.79262 0.6431 0.51545 0.0
C560 C 0.78218 0.64626 0.52859 0.0
C561 C 0.76461 0.63437 0.5303 0.0
C562 C 0.7576 0.61955 0.51764 0.0
C563 C 0.7681 0.61654 0.50408 0.0
C564 C 0.79742 0.62508 0.49016 0.0
C565 C 0.81026 0.62392 0.50078 0.0
C566 C 0.79764 0.62578 0.46777 0.0
C567 C 0.78588 0.62954 0.4559 0.0
C568 C 0.78512 0.64421 0.46074 0.0
C569 C 0.77403 0.6478 0.44986 0.0
C570 C 0.7639 0.63714 0.43338 0.0
C571 C 0.76512 0.62285 0.42784 0.0
C572 C 0.77599 0.61903 0.4391 0.0
C573 C 0.84033 0.63041 0.45546 0.0
C574 C 0.84088 0.61955 0.44004 0.0
C575 C 0.85583 0.62473 0.4282 0.0
C576 C 0.87025 0.64094 0.43145 0.0
C577 C 0.86961 0.65166 0.44706 0.0
C578 C 0.85478 0.64648 0.45887 0.0
C579 C 0.82451 0.62565 0.46746 0.0
C580 C 0.81084 0.62526 0.45663 0.0
C581 C 0.8242 0.62495 0.48983 0.0
C582 C 0.83927 0.62793 0.50233 0.0
C583 C 0.84659 0.61763 0.49994 0.0
C584 C 0.86097 0.621 0.51184 0.0
C585 C 0.86833 0.63484 0.52605 0.0
C586 C 0.8609 0.64503 0.52835 0.0
C587 C 0.84656 0.6416 0.51667 0.0
H588 H 0.39895 0.22219 0.52143 0.0
H589 H 0.39715 0.24198 0.54636 0.0
H590 H 0.3488 0.23012 0.51934 0.0
H591 H 0.35014 0.2098 0.49527 0.0
H592 H 0.37902 0.18971 0.5208 0.0
H593 H 0.39262 0.23287 0.46608 0.0
H594 H 0.38765 0.25261 0.44554 0.0
H595 H 0.33721 0.21135 0.42937 0.0
H596 H 0.34248 0.19176 0.44933 0.0
H597 H 0.34007 0.15071 0.45172 0.0
H598 H 0.33222 0.12507 0.43139 0.0
H599 H 0.38155 0.13077 0.44444 0.0
H600 H 0.3892 0.15645 0.46542 0.0
H601 H 0.36552 0.18247 0.44422 0.0
H602 H 0.3484 0.14008 0.49685 0.0
H603 H 0.34694 0.11868 0.52111 0.0
H604 H 0.39647 0.15521 0.54595 0.0
H605 H 0.39837 0.17647 0.52084 0.0
C606 C 0.37482 0.21463 0.50617 0.0
C607 C 0.38807 0.22402 0.52066 0.0
C608 C 0.38706 0.23533 0.53486 0.0
C609 C 0.3729 0.23763 0.53462 0.0
C610 C 0.36001 0.22881 0.51957 0.0
C611 C 0.36084 0.21725 0.50569 0.0
C612 C 0.37466 0.20081 0.49331 0.0
C613 C 0.37661 0.18839 0.50389 0.0
C614 C 0.37073 0.19867 0.47145 0.0
C615 C 0.36793 0.21085 0.45921 0.0
C616 C 0.38052 0.22813 0.45807 0.0
C617 C 0.37762 0.2394 0.44638 0.0
C618 C 0.36204 0.23358 0.43569 0.0
C619 C 0.34949 0.21625 0.43697 0.0
C620 C 0.35244 0.20502 0.44849 0.0
C621 C 0.36524 0.15553 0.45997 0.0
C622 C 0.34923 0.14648 0.45017 0.0
C623 C 0.34481 0.13186 0.43843 0.0
C624 C 0.35636 0.12599 0.43597 0.0
C625 C 0.37234 0.13492 0.44609 0.0
C626 C 0.37675 0.14959 0.45802 0.0
C627 C 0.36968 0.17133 0.47178 0.0
C628 C 0.36857 0.18411 0.46098 0.0
C629 C 0.37384 0.17348 0.49357 0.0
C630 C 0.37367 0.15987 0.50662 0.0
C631 C 0.35929 0.14336 0.50684 0.0
C632 C 0.35839 0.13113 0.52083 0.0
C633 C 0.37162 0.13531 0.53531 0.0
C634 C 0.38612 0.15169 0.5349 0.0
C635 C 0.38718 0.16382 0.52059 0.0
H636 H 0.76967 0.16802 0.50694 0.0
H637 H 0.75122 0.14309 0.52858 0.0
H638 H 0.76936 0.11412 0.49418 0.0
H639 H 0.78822 0.13919 0.47331 0.0
H640 H 0.80469 0.18352 0.50657 0.0
H641 H 0.75979 0.15757 0.45239 0.0
H642 H 0.73969 0.13271 0.43159 0.0
H643 H 0.78189 0.12844 0.40667 0.0
H644 H 0.80178 0.15347 0.42691 0.0
H645 H 0.84197 0.18889 0.4365 0.0
H646 H 0.87007 0.20731 0.421 0.0
H647 H 0.86765 0.25152 0.44082 0.0
H648 H 0.83899 0.23282 0.45551 0.0
H649 H 0.81036 0.18559 0.42827 0.0
H650 H 0.84347 0.1908 0.49635 0.0
H651 H 0.86758 0.20891 0.51924 0.0
H652 H 0.85408 0.24804 0.51636 0.0
H653 H 0.8294 0.2293 0.49438 0.0
C654 C 0.78013 0.1554 0.48832 0.0
C655 C 0.76946 0.15621 0.5039 0.0
C656 C 0.75886 0.14193 0.51615 0.0
C657 C 0.75886 0.12663 0.51312 0.0
C658 C 0.76919 0.12575 0.49706 0.0
C659 C 0.77981 0.14002 0.4849 0.0
C660 C 0.79294 0.17097 0.47716 0.0
C661 C 0.80553 0.18429 0.48941 0.0
C662 C 0.79448 0.17163 0.45481 0.0
C663 C 0.78227 0.15737 0.44118 0.0
C664 C 0.76466 0.15135 0.44224 0.0
C665 C 0.7532 0.13707 0.43043 0.0
C666 C 0.75913 0.1285 0.41744 0.0
C667 C 0.77683 0.13485 0.41613 0.0
C668 C 0.78826 0.14917 0.42777 0.0
C669 C 0.83852 0.20951 0.44734 0.0
C670 C 0.84741 0.20255 0.4373 0.0
C671 C 0.86356 0.2131 0.42868 0.0
C672 C 0.87121 0.23088 0.43002 0.0
C673 C 0.86208 0.23787 0.43956 0.0
C674 C 0.8458 0.22723 0.44812 0.0
C675 C 0.822 0.19796 0.4577 0.0
C676 C 0.80885 0.18533 0.44536 0.0
C677 C 0.82023 0.19754 0.47995 0.0
C678 C 0.83478 0.20879 0.49369 0.0
C679 C 0.84573 0.20327 0.50077 0.0
C680 C 0.85962 0.21375 0.51367 0.0
C681 C 0.86294 0.23006 0.51959 0.0
C682 C 0.85185 0.23551 0.51239 0.0
C683 C 0.8378 0.22489 0.49969 0.0
H684 H 0.96138 0.50186 0.16338 0.0
H685 H 0.96148 0.52344 0.14044 0.0
H686 H 0.0072 0.56227 0.17098 0.0
H687 H 0.00774 0.54061 0.19313 0.0
H688 H 0.98292 0.49152 0.16501 0.0
H689 H 0.96546 0.52024 0.21589 0.0
H690 H 0.96878 0.54467 0.23609 0.0
H691 H 0.0146 0.55048 0.26471 0.0
H692 H 0.01186 0.52693 0.24339 0.0
H693 H 0.01344 0.48536 0.24034 0.0
H694 H 0.01571 0.46391 0.26056 0.0
H695 H 0.96564 0.4255 0.2386 0.0
H696 H 0.96382 0.447 0.2178 0.0
H697 H 0.98945 0.49527 0.24309 0.0
H698 H 0.01091 0.47207 0.19269 0.0
H699 H 0.01285 0.45072 0.17132 0.0
H700 H 0.96439 0.4365 0.14236 0.0
H701 H 0.96223 0.4575 0.16446 0.0
C702 C 0.98443 0.51959 0.18021 0.0
C703 C 0.97143 0.51501 0.1652 0.0
C704 C 0.97143 0.5273 0.15219 0.0
C705 C 0.98425 0.54443 0.1542 0.0
C706 C -0.00294 0.54913 0.16944 0.0
C707 C -0.0027 0.53677 0.18213 0.0
C708 C 0.98491 0.5062 0.19293 0.0
C709 C 0.98399 0.49222 0.18214 0.0
C710 C 0.98707 0.50741 0.21523 0.0
C711 C 0.98855 0.52189 0.22785 0.0
C712 C 0.97634 0.52694 0.2263 0.0
C713 C 0.97815 0.54079 0.2381 0.0
C714 C 0.99202 0.54966 0.25201 0.0
C715 C 0.00397 0.54426 0.25385 0.0
C716 C 0.0023 0.53062 0.24184 0.0
C717 C 0.98852 0.46771 0.22752 0.0
C718 C 0.00297 0.4723 0.23994 0.0
C719 C 0.00418 0.46003 0.25159 0.0
C720 C 0.99084 0.44295 0.25128 0.0
C721 C 0.97628 0.43846 0.23895 0.0
C722 C 0.97516 0.45073 0.22712 0.0
C723 C 0.98738 0.48078 0.21514 0.0
C724 C 0.98814 0.49458 0.22598 0.0
C725 C 0.98549 0.47965 0.1929 0.0
C726 C 0.98632 0.46625 0.18037 0.0
C727 C 0.00055 0.46415 0.18203 0.0
C728 C 0.00174 0.45206 0.16961 0.0
C729 C 0.9888 0.44192 0.15508 0.0
C730 C 0.97447 0.44394 0.15358 0.0
C731 C 0.97328 0.45603 0.16607 0.0
H732 H 0.50757 0.4403 0.16094 0.0
H733 H 0.48367 0.42358 0.13674 0.0
H734 H 0.45476 0.44345 0.16765 0.0
H735 H 0.47878 0.46056 0.19096 0.0
H736 H 0.52496 0.47587 0.16374 0.0
H737 H 0.48959 0.42825 0.21255 0.0
H738 H 0.4618 0.41002 0.22976 0.0
H739 H 0.46452 0.45448 0.25847 0.0
H740 H 0.49161 0.47249 0.24075 0.0
H741 H 0.52571 0.50772 0.23912 0.0
H742 H 0.54309 0.53351 0.25934 0.0
H743 H 0.58871 0.53352 0.23906 0.0
H744 H 0.571 0.50769 0.21805 0.0
H745 H 0.52126 0.4769 0.24204 0.0
H746 H 0.54078 0.52135 0.19344 0.0
H747 H 0.55823 0.5454 0.17049 0.0
H748 H 0.57709 0.51616 0.13826 0.0
H749 H 0.56014 0.49227 0.16221 0.0
C750 C 0.49487 0.45148 0.17797 0.0
C751 C 0.49599 0.44088 0.16259 0.0
C752 C 0.48229 0.43126 0.14888 0.0
C753 C 0.46733 0.43224 0.15021 0.0
C754 C 0.46616 0.44256 0.166 0.0
C755 C 0.47982 0.45219 0.17956 0.0
C756 C 0.50983 0.46297 0.19121 0.0
C757 C 0.52446 0.47579 0.18093 0.0
C758 C 0.50869 0.46333 0.21358 0.0
C759 C 0.49269 0.45176 0.22527 0.0
C760 C 0.48417 0.43401 0.22259 0.0
C761 C 0.46836 0.42362 0.23251 0.0
C762 C 0.46087 0.43084 0.24525 0.0
C763 C 0.46974 0.44853 0.24841 0.0
C764 C 0.4854 0.45885 0.23851 0.0
C765 C 0.54703 0.50568 0.22723 0.0
C766 C 0.53945 0.51315 0.23918 0.0
C767 C 0.54944 0.52791 0.25085 0.0
C768 C 0.56733 0.53552 0.25114 0.0
C769 C 0.57498 0.52805 0.23911 0.0
C770 C 0.5649 0.51325 0.22719 0.0
C771 C 0.5359 0.49025 0.21453 0.0
C772 C 0.52218 0.47653 0.22491 0.0
C773 C 0.53712 0.48988 0.19219 0.0
C774 C 0.54939 0.50508 0.17987 0.0
C775 C 0.54913 0.52027 0.18198 0.0
C776 C 0.55892 0.53395 0.16858 0.0
C777 C 0.56893 0.53265 0.15238 0.0
C778 C 0.56965 0.51764 0.1507 0.0
C779 C 0.5599 0.50394 0.16429 0.0
H780 H 0.53978 0.03521 0.16395 0.0
H781 H 0.56032 0.03308 0.14068 0.0
H782 H 0.54217 0.98206 0.1632 0.0
H783 H 0.52134 0.98409 0.18584 0.0
H784 H 0.50455 0.0153 0.16363 0.0
H785 H 0.55032 0.02734 0.21284 0.0
H786 H 0.57024 0.02039 0.22951 0.0
H787 H 0.52754 0.9743 0.25465 0.0
H788 H 0.50778 0.98092 0.23719 0.0
H789 H 0.46763 0.98379 0.23964 0.0
H790 H 0.44324 0.98093 0.25972 0.0
H791 H 0.45534 0.03093 0.23902 0.0
H792 H 0.47948 0.03346 0.2185 0.0
H793 H 0.5013 0.00567 0.24119 0.0
H794 H 0.4568 0.98799 0.19244 0.0
H795 H 0.43388 0.9863 0.17084 0.0
H796 H 0.46947 0.03463 0.14239 0.0
H797 H 0.49228 0.0366 0.16484 0.0
C798 C 0.52917 0.00989 0.17679 0.0
C799 C 0.54027 0.02359 0.16386 0.0
C800 C 0.55208 0.0224 0.1507 0.0
C801 C 0.55292 0.00742 0.15012 0.0
C802 C 0.54176 0.99372 0.16311 0.0
C803 C 0.52995 0.99492 0.17623 0.0
C804 C 0.51639 0.01103 0.19041 0.0
C805 C 0.5041 0.01366 0.18067 0.0
C806 C 0.51535 0.00806 0.21249 0.0
C807 C 0.52757 0.00456 0.22358 0.0
C808 C 0.54528 0.0157 0.22185 0.0
C809 C 0.55664 0.01178 0.23154 0.0
C810 C 0.55048 -0.00328 0.24329 0.0
C811 C 0.53272 0.98583 0.24539 0.0
C812 C 0.5214 0.9897 0.23562 0.0
C813 C 0.47529 0.00879 0.22749 0.0
C814 C 0.4651 0.99419 0.23959 0.0
C815 C 0.45119 0.99261 0.25113 0.0
C816 C 0.44728 0.00568 0.25099 0.0
C817 C 0.45778 0.02048 0.23921 0.0
C818 C 0.47164 0.022 0.22755 0.0
C819 C 0.48947 0.00995 0.2144 0.0
C820 C 0.50202 0.00777 0.22422 0.0
C821 C 0.49038 0.0127 0.19228 0.0
C822 C 0.47624 0.01252 0.18046 0.0
C823 C 0.4596 -0.00154 0.182 0.0
C824 C 0.44654 -0.00259 0.16943 0.0
C825 C 0.44987 0.01027 0.15478 0.0
C826 C 0.46643 0.0246 0.15368 0.0
C827 C 0.47951 0.02568 0.16637 0.0
H828 H 0.482 0.00691 0.846 0.0
H829 H 0.46276 0.01272 0.86667 0.0
H830 H 0.42115 0.96177 0.85354 0.0
H831 H 0.44048 0.95648 0.83179 0.0
H832 H 0.48729 0.97779 0.85467 0.0
H833 H 0.47254 0.00536 0.80094 0.0
H834 H 0.45259 0.00967 0.77993 0.0
H835 H 0.43013 0.95835 0.75565 0.0
H836 H 0.45004 0.95404 0.77714 0.0
H837 H 0.50444 0.95675 0.7738 0.0
H838 H 0.53015 0.96401 0.75279 0.0
H839 H 0.5585 0.01057 0.78877 0.0
H840 H 0.53288 0.00355 0.80911 0.0
H841 H 0.4883 0.97578 0.77613 0.0
H842 H 0.51382 0.95501 0.82652 0.0
H843 H 0.53771 0.9575 0.8474 0.0
H844 H 0.54301 0.00238 0.87814 0.0
H845 H 0.51947 2e-05 0.85718 0.0
C846 C 0.46263 0.98125 0.8376 0.0
C847 C 0.46869 -0.00294 0.84749 0.0
C848 C 0.45767 0.0003 0.85941 0.0
C849 C 0.44042 0.98762 0.86212 0.0
C850 C 0.4343 0.97188 0.85168 0.0
C851 C 0.44532 0.96876 0.83939 0.0
C852 C 0.47476 0.97788 0.82595 0.0
C853 C 0.48746 0.97713 0.83751 0.0
C854 C 0.47474 0.97687 0.80364 0.0
C855 C 0.46259 0.97931 0.79079 0.0
C856 C 0.46323 0.995 0.79122 0.0
C857 C 0.45194 -0.0025 0.77903 0.0
C858 C 0.43979 0.98436 0.76609 0.0
C859 C 0.43923 0.96865 0.76562 0.0
C860 C 0.45062 0.96619 0.77778 0.0
C861 C 0.51683 0.97949 0.79318 0.0
C862 C 0.51626 0.96843 0.77721 0.0
C863 C 0.53094 0.97255 0.76532 0.0
C864 C 0.54628 0.9879 0.76909 0.0
C865 C 0.54681 -0.00124 0.78533 0.0
C866 C 0.53222 0.99465 0.79715 0.0
C867 C 0.50122 0.97609 0.80483 0.0
C868 C 0.48778 0.97558 0.79331 0.0
C869 C 0.50083 0.97641 0.82725 0.0
C870 C 0.51486 0.97735 0.84026 0.0
C871 C 0.52016 0.96538 0.83776 0.0
C872 C 0.53373 0.96676 0.84975 0.0
C873 C 0.54231 0.98021 0.86428 0.0
C874 C 0.53683 0.99202 0.86685 0.0
C875 C 0.52325 0.99058 0.85503 0.0
H876 H 0.03889 0.53979 0.85481 0.0
H877 H 0.03786 0.56081 0.87819 0.0
H878 H 0.98859 0.54748 0.85282 0.0
H879 H 0.98925 0.526 0.83012 0.0
H880 H 0.02009 0.50745 0.8552 0.0
H881 H 0.03085 0.54955 0.80313 0.0
H882 H 0.0262 0.56938 0.78264 0.0
H883 H 0.97901 0.52733 0.75859 0.0
H884 H 0.98316 0.50778 0.78025 0.0
H885 H 0.98114 0.46506 0.78828 0.0
H886 H 0.97569 0.44018 0.7676 0.0
H887 H 0.02799 0.45281 0.77696 0.0
H888 H 0.03317 0.47754 0.79834 0.0
H889 H 0.005 0.49856 0.77907 0.0
H890 H 0.9927 0.45714 0.83315 0.0
H891 H -0.00441 0.43729 0.85607 0.0
H892 H 0.04538 0.47764 0.87563 0.0
H893 H 0.04267 0.4974 0.85221 0.0
C894 C 0.01423 0.53136 0.84051 0.0
C895 C 0.02789 0.54144 0.85417 0.0
C896 C 0.02734 0.55348 0.86746 0.0
C897 C 0.0132 0.55581 0.86717 0.0
C898 C -0.00024 0.54612 0.85307 0.0
C899 C 0.00017 0.53387 0.84007 0.0
C900 C 0.01414 0.51748 0.82787 0.0
C901 C 0.01717 0.50574 0.83842 0.0
C902 C 0.00992 0.51499 0.80606 0.0
C903 C 0.00727 0.52716 0.79348 0.0
C904 C 0.01937 0.54464 0.7937 0.0
C905 C 0.0168 0.55595 0.78169 0.0
C906 C 0.00221 0.55 0.76887 0.0
C907 C 0.99023 0.53246 0.76851 0.0
C908 C 0.9927 0.5212 0.78073 0.0
C909 C 0.00755 0.47314 0.79476 0.0
C910 C 0.99142 0.46244 0.78591 0.0
C911 C 0.98837 0.44827 0.77398 0.0
C912 C 0.00148 0.44461 0.77033 0.0
C913 C 0.01759 0.45519 0.77956 0.0
C914 C 0.0206 0.46935 0.79171 0.0
C915 C 0.01062 0.48852 0.80653 0.0
C916 C 0.00821 0.50052 0.79577 0.0
C917 C 0.01538 0.49122 0.8281 0.0
C918 C 0.01757 0.47876 0.8407 0.0
C919 C 0.00447 0.46163 0.84186 0.0
C920 C 0.00611 0.45028 0.85501 0.0
C921 C 0.02073 0.45592 0.86759 0.0
C922 C 0.03394 0.47297 0.86617 0.0
C923 C 0.03239 0.48426 0.85281 0.0
H924 H 0.43774 0.50272 0.84775 0.0
H925 H 0.4194 0.47849 0.87046 0.0
H926 H 0.43818 0.44882 0.83914 0.0
H927 H 0.45687 0.47324 0.81707 0.0
H928 H 0.47314 0.51882 0.84629 0.0
H929 H 0.42596 0.48635 0.79728 0.0
H930 H 0.40671 0.45999 0.77838 0.0
H931 H 0.45009 0.46262 0.74585 0.0
H932 H 0.4692 0.48814 0.76572 0.0
H933 H 0.50658 0.52397 0.77017 0.0
H934 H 0.53218 0.5431 0.75044 0.0
H935 H 0.52919 0.58613 0.77415 0.0
H936 H 0.50346 0.56664 0.79451 0.0
H937 H 0.47493 0.51799 0.76783 0.0
H938 H 0.52071 0.54005 0.81644 0.0
H939 H 0.54419 0.55928 0.83965 0.0
H940 H 0.51005 0.57052 0.8745 0.0
H941 H 0.48663 0.55198 0.85051 0.0
C942 C 0.44849 0.48969 0.83058 0.0
C943 C 0.43777 0.49093 0.8457 0.0
C944 C 0.42723 0.47705 0.85854 0.0
C945 C 0.42734 0.46174 0.85657 0.0
C946 C 0.43792 0.46048 0.84118 0.0
C947 C 0.44847 0.47436 0.82839 0.0
C948 C 0.46061 0.50474 0.81809 0.0
C949 C 0.47331 0.51891 0.82909 0.0
C950 C 0.46113 0.50438 0.7957 0.0
C951 C 0.44906 0.48917 0.78313 0.0
C952 C 0.4313 0.48117 0.78617 0.0
C953 C 0.4203 0.46619 0.77516 0.0
C954 C 0.42685 0.45906 0.7607 0.0
C955 C 0.44459 0.46749 0.75719 0.0
C956 C 0.45555 0.48227 0.76835 0.0
C957 C 0.50307 0.54388 0.78368 0.0
C958 C 0.51129 0.53751 0.77095 0.0
C959 C 0.52591 0.54849 0.75957 0.0
C960 C 0.53261 0.56616 0.76045 0.0
C961 C 0.52436 0.57259 0.77321 0.0
C962 C 0.50966 0.5615 0.78476 0.0
C963 C 0.48787 0.53174 0.79603 0.0
C964 C 0.47445 0.51821 0.78501 0.0
C965 C 0.48732 0.53216 0.81842 0.0
C966 C 0.50194 0.54489 0.8313 0.0
C967 C 0.51834 0.54713 0.8285 0.0
C968 C 0.53173 0.55797 0.84186 0.0
C969 C 0.52882 0.56636 0.8586 0.0
C970 C 0.51251 0.56422 0.8615 0.0
C971 C 0.49919 0.55364 0.84786 0.0
H972 H 0.60613 0.82845 0.50121 0.0
H973 H 0.6115 0.8524 0.47871 0.0
H974 H 0.66005 0.88373 0.50972 0.0
H975 H 0.65488 0.85958 0.53151 0.0
H976 H 0.62554 0.81326 0.50236 0.0
H977 H 0.61061 0.84493 0.55206 0.0
H978 H 0.61707 0.87076 0.57158 0.0
H979 H 0.65846 0.86955 0.60336 0.0
H980 H 0.65273 0.84461 0.58283 0.0
H981 H 0.65363 0.80711 0.57836 0.0
H982 H 0.65831 0.78683 0.59756 0.0
H983 H 0.61067 0.74557 0.5733 0.0
H984 H 0.60634 0.76608 0.55354 0.0
H985 H 0.62868 0.81446 0.58078 0.0
H986 H 0.65298 0.79437 0.53027 0.0
H987 H 0.6572 0.77504 0.50758 0.0
H988 H 0.60891 0.75918 0.47705 0.0
H989 H 0.6045 0.77821 0.50041 0.0
C990 C 0.63 0.84229 0.51819 0.0
C991 C 0.61786 0.84053 0.50322 0.0
C992 C 0.62091 0.85426 0.4905 0.0
C993 C 0.6362 0.86999 0.49244 0.0
C994 C 0.64822 0.87175 0.50768 0.0
C995 C 0.64519 0.85801 0.52032 0.0
C996 C 0.62733 0.82744 0.53064 0.0
C997 C 0.62575 0.8133 0.51955 0.0
C998 C 0.62839 0.82789 0.55303 0.0
C999 C 0.63131 0.84291 0.56574 0.0
C1000 C 0.62117 0.85034 0.5631 0.0
C1001 C 0.62475 0.865 0.57448 0.0
C1002 C 0.6384 0.87236 0.58896 0.0
C1003 C 0.64812 0.86451 0.59203 0.0
C1004 C 0.64469 0.85005 0.58048 0.0
C1005 C 0.62965 0.78808 0.56455 0.0
C1006 C 0.64412 0.7937 0.57732 0.0
C1007 C 0.64673 0.78207 0.58839 0.0
C1008 C 0.63482 0.76456 0.5871 0.0
C1009 C 0.62019 0.75895 0.57445 0.0
C1010 C 0.61765 0.77063 0.56322 0.0
C1011 C 0.62749 0.80067 0.55246 0.0
C1012 C 0.62795 0.81422 0.56361 0.0
C1013 C 0.62641 0.80018 0.53012 0.0
C1014 C 0.62829 0.78754 0.51727 0.0
C1015 C 0.64311 0.78645 0.51903 0.0
C1016 C 0.64561 0.77555 0.50585 0.0
C1017 C 0.63343 0.76562 0.49043 0.0
C1018 C 0.61845 0.76651 0.48892 0.0
C1019 C 0.61594 0.77744 0.50216 0.0
H1020 H 0.17108 0.77365 0.50032 0.0
H1021 H 0.1468 0.75672 0.47678 0.0
H1022 H 0.11718 0.77422 0.51104 0.0
H1023 H 0.14156 0.79159 0.53371 0.0
H1024 H 0.18717 0.80831 0.5025 0.0
H1025 H 0.15771 0.76231 0.55494 0.0
H1026 H 0.13212 0.74267 0.57531 0.0
H1027 H 0.12942 0.78549 0.6004 0.0
H1028 H 0.15493 0.80481 0.58061 0.0
H1029 H 0.18967 0.84248 0.57724 0.0
H1030 H 0.2074 0.87008 0.59398 0.0
H1031 H 0.25265 0.87216 0.56812 0.0
H1032 H 0.23476 0.84402 0.55205 0.0
H1033 H 0.18636 0.81244 0.58082 0.0
H1034 H 0.196 0.85008 0.52134 0.0
H1035 H 0.21355 0.87433 0.49864 0.0
H1036 H 0.24745 0.85478 0.48671 0.0
H1037 H 0.22908 0.82998 0.50872 0.0
C1038 C 0.15809 0.7837 0.519 0.0
C1039 C 0.15924 0.77359 0.50294 0.0
C1040 C 0.14533 0.76385 0.48958 0.0
C1041 C 0.13009 0.76421 0.49196 0.0
C1042 C 0.12879 0.77382 0.50861 0.0
C1043 C 0.14267 0.78358 0.52182 0.0
C1044 C 0.17345 0.79602 0.53111 0.0
C1045 C 0.18731 0.80881 0.51969 0.0
C1046 C 0.17327 0.79718 0.55349 0.0
C1047 C 0.15832 0.78504 0.56638 0.0
C1048 C 0.15164 0.7674 0.56501 0.0
C1049 C 0.13698 0.7562 0.57658 0.0
C1050 C 0.12876 0.76248 0.58967 0.0
C1051 C 0.13561 0.78017 0.59098 0.0
C1052 C 0.15022 0.79128 0.57958 0.0
C1053 C 0.21086 0.84119 0.56328 0.0
C1054 C 0.20343 0.84874 0.5754 0.0
C1055 C 0.21358 0.86465 0.58474 0.0
C1056 C 0.23143 0.87345 0.58214 0.0
C1057 C 0.23894 0.86569 0.57047 0.0
C1058 C 0.22873 0.84968 0.56114 0.0
C1059 C 0.19961 0.82488 0.55213 0.0
C1060 C 0.18667 0.81135 0.56371 0.0
C1061 C 0.20003 0.82347 0.52987 0.0
C1062 C 0.21132 0.83835 0.51667 0.0
C1063 C 0.20725 0.85109 0.51383 0.0
C1064 C 0.21744 0.86504 0.50099 0.0
C1065 C 0.23209 0.86669 0.49088 0.0
C1066 C 0.23619 0.85388 0.49398 0.0
C1067 C 0.22579 0.83975 0.50663 0.0
H1068 H 0.15267 0.34767 0.49851 0.0
H1069 H 0.12767 0.34246 0.47849 0.0
H1070 H 0.13124 0.38789 0.5052 0.0
H1071 H 0.15656 0.39308 0.52554 0.0
H1072 H 0.18527 0.37528 0.49641 0.0
H1073 H 0.1404 0.34359 0.54641 0.0
H1074 H 0.11517 0.33691 0.56764 0.0
H1075 H 0.14345 0.38563 0.59918 0.0
H1076 H 0.16871 0.39233 0.57754 0.0
H1077 H 0.22053 0.38659 0.57786 0.0
H1078 H 0.23701 0.37609 0.5964 0.0
H1079 H 0.21497 0.33167 0.55578 0.0
H1080 H 0.19822 0.34189 0.538 0.0
H1081 H 0.1844 0.36971 0.57457 0.0
H1082 H 0.23316 0.38935 0.52563 0.0
H1083 H 0.25263 0.38403 0.50414 0.0
H1084 H 0.20956 0.34567 0.46868 0.0
H1085 H 0.19027 0.35059 0.49049 0.0
C1086 C 0.15648 0.37078 0.5134 0.0
C1087 C 0.14811 0.35654 0.50008 0.0
C1088 C 0.13374 0.3535 0.48881 0.0
C1089 C 0.12745 0.3647 0.49046 0.0
C1090 C 0.13587 0.37908 0.50369 0.0
C1091 C 0.15025 0.38202 0.51529 0.0
C1092 C 0.17164 0.37339 0.52522 0.0
C1093 C 0.1853 0.37438 0.51355 0.0
C1094 C 0.17155 0.37219 0.54752 0.0
C1095 C 0.15631 0.36854 0.56024 0.0
C1096 C 0.14112 0.35288 0.55778 0.0
C1097 C 0.12678 0.34902 0.57008 0.0
C1098 C 0.12734 0.36071 0.58516 0.0
C1099 C 0.1426 0.37642 0.58759 0.0
C1100 C 0.15703 0.38025 0.57531 0.0
C1101 C 0.20838 0.36515 0.55636 0.0
C1102 C 0.21935 0.37464 0.57297 0.0
C1103 C 0.2288 0.36866 0.58344 0.0
C1104 C 0.22727 0.35303 0.57757 0.0
C1105 C 0.2163 0.34365 0.56087 0.0
C1106 C 0.20687 0.34958 0.5505 0.0
C1107 C 0.19774 0.37087 0.54565 0.0
C1108 C 0.18497 0.37159 0.55756 0.0
C1109 C 0.19807 0.37257 0.52335 0.0
C1110 C 0.21024 0.37037 0.5097 0.0
C1111 C 0.22795 0.3798 0.51322 0.0
C1112 C 0.23906 0.37681 0.50087 0.0
C1113 C 0.23262 0.36432 0.48483 0.0
C1114 C 0.21492 0.35516 0.48115 0.0
C1115 C 0.20388 0.35813 0.49344 0.0
H1116 H 0.97102 0.3568 0.07451 0.0
H1117 H 0.01762 0.44673 0.13468 0.0
H1118 H 0.02406 0.39517 0.06567 0.0
H1119 H 0.96412 0.4096 0.14306 0.0
H1120 H 0.02039 0.42711 0.11089 0.0
H1121 H 0.9684 0.37506 0.10113 0.0
C1122 C 0.98213 0.36901 0.07826 0.0
C1123 C -0.00224 0.37451 0.06779 0.0
C1124 C 0.00804 0.42319 0.11797 0.0
C1125 C -0.00516 0.39545 0.09812 0.0
C1126 C 0.00647 0.43437 0.13169 0.0
C1127 C 0.99061 0.42982 0.14094 0.0
C1128 C 0.99365 0.40729 0.11335 0.0
C1129 C 0.97655 0.41373 0.1361 0.0
C1130 C 0.98062 0.37944 0.09342 0.0
C1131 C 0.01174 0.39044 0.07327 0.0
N1132 N 0.97839 0.40306 0.12262 0.0
N1133 N 0.00992 0.40035 0.08798 0.0
H1134 H 0.58587 0.60678 0.05759 0.0
H1135 H 0.6008 0.5458 0.13373 0.0
H1136 H 0.63315 0.60623 0.05759 0.0
H1137 H 0.55574 0.55036 0.13385 0.0
H1138 H 0.61333 0.56776 0.10617 0.0
H1139 H 0.57518 0.58613 0.08595 0.0
C1140 C 0.59406 0.60232 0.06356 0.0
C1141 C 0.61045 0.60825 0.05507 0.0
C1142 C 0.60075 0.56399 0.11237 0.0
C1143 C 0.59814 0.58435 0.08784 0.0
C1144 C 0.59357 0.55142 0.12802 0.0
C1145 C 0.57724 0.54631 0.13626 0.0
C1146 C 0.59146 0.57135 0.10485 0.0
C1147 C 0.56849 0.55409 0.12834 0.0
C1148 C 0.58792 0.59049 0.07985 0.0
C1149 C 0.62044 0.60201 0.06364 0.0
N1150 N 0.57568 0.56614 0.11312 0.0
N1151 N 0.61409 0.59032 0.07954 0.0
H1152 H 0.37513 0.97057 0.05555 0.0
H1153 H 0.44215 0.03415 0.14082 0.0
H1154 H 0.385 0.0217 0.06508 0.0
H1155 H 0.42732 0.98132 0.13369 0.0
H1156 H 0.42105 0.03013 0.1139 0.0
H1157 H 0.39381 0.97448 0.08504 0.0
C1158 C 0.3812 0.98264 0.06389 0.0
C1159 C 0.37857 0.99587 0.05771 0.0
C1160 C 0.42234 0.01941 0.1184 0.0
C1161 C 0.40016 0.00048 0.09165 0.0
C1162 C 0.43443 0.02171 0.13367 0.0
C1163 C 0.43649 0.00804 0.13956 0.0
C1164 C 0.41238 0.00337 0.10886 0.0
C1165 C 0.42603 0.99217 0.12993 0.0
C1166 C 0.39187 0.98486 0.08081 0.0
C1167 C 0.38669 0.01117 0.06929 0.0
N1168 N 0.41453 0.99031 0.11502 0.0
N1169 N 0.39725 0.01311 0.08563 0.0
H1170 H 0.35509 0.97974 0.93459 0.0
H1171 H 0.4492 0.00538 0.89953 0.0
H1172 H 0.40044 0.02244 0.96101 0.0
H1173 H 0.40601 0.97646 0.85826 0.0
H1174 H 0.43096 0.01013 0.92343 0.0
H1175 H 0.37291 0.97675 0.90745 0.0
C1176 C 0.36876 0.98854 0.93459 0.0
C1177 C 0.37633 0.00129 0.95015 0.0
C1178 C 0.42548 0.00285 0.90907 0.0
C1179 C 0.39668 -0.00217 0.91943 0.0
C1180 C 0.43593 0.0002 0.89528 0.0
C1181 C 0.42923 0.99062 0.87664 0.0
C1182 C 0.40807 0.99567 0.90448 0.0
C1183 C 0.41173 0.98378 0.87252 0.0
C1184 C 0.37889 0.98685 0.91911 0.0
C1185 C 0.39407 0.01239 0.94939 0.0
N1186 N 0.40172 0.98637 0.88639 0.0
N1187 N 0.40365 0.0103 0.93442 0.0
H1188 H 0.00508 0.40447 0.9845 0.0
H1189 H 0.01314 0.42285 0.86232 0.0
H1190 H 0.0133 0.37253 0.94115 0.0
H1191 H 0.02967 0.46277 0.90914 0.0
H1192 H 0.01179 0.40344 0.89008 0.0
H1193 H 0.01278 0.42545 0.9565 0.0
C1194 C 0.00871 0.40199 0.96908 0.0
C1195 C 0.00858 0.38681 0.96505 0.0
C1196 C 0.01597 0.41653 0.89414 0.0
C1197 C 0.01702 0.41057 0.93278 0.0
C1198 C 0.01664 0.42755 0.87839 0.0
C1199 C 0.02149 0.44442 0.88348 0.0
C1200 C 0.01981 0.42235 0.91516 0.0
C1201 C 0.02599 0.44992 0.90449 0.0
C1202 C 0.01314 0.41398 0.95313 0.0
C1203 C 0.01337 0.38418 0.94483 0.0
N1204 N 0.0248 0.43885 0.9196 0.0
N1205 N 0.01713 0.39585 0.92925 0.0
H1206 H 0.60084 0.59458 0.96047 0.0
H1207 H 0.55704 0.59782 0.85351 0.0
H1208 H 0.61076 0.6423 0.9342 0.0
H1209 H 0.53149 0.55695 0.89828 0.0
H1210 H 0.58006 0.61351 0.87944 0.0
H1211 H 0.57854 0.57947 0.93389 0.0
C1212 C 0.59842 0.60187 0.94899 0.0
C1213 C 0.60759 0.6197 0.94953 0.0
C1214 C 0.56937 0.60114 0.88356 0.0
C1215 C 0.58229 0.60253 0.91909 0.0
C1216 C 0.55633 0.59224 0.86885 0.0
C1217 C 0.54246 0.57623 0.87401 0.0
C1218 C 0.5686 0.5937 0.90325 0.0
C1219 C 0.54201 0.56936 0.89392 0.0
C1220 C 0.58565 0.59325 0.93395 0.0
C1221 C 0.60389 0.62853 0.93436 0.0
N1222 N 0.55498 0.57808 0.90781 0.0
N1223 N 0.59156 0.61985 0.91963 0.0
H1224 H 0.98475 0.58714 0.97997 0.0
H1225 H 0.00522 0.58065 0.86017 0.0
H1226 H 0.00142 0.63063 0.93933 0.0
H1227 H 0.01738 0.55636 0.9098 0.0
H1228 H 0.00049 0.59748 0.88722 0.0
H1229 H 0.99297 0.57356 0.95265 0.0
C1230 C 0.99012 0.59382 0.96523 0.0
C1231 C 0.99238 0.61001 0.96185 0.0
C1232 C 0.00441 0.58861 0.89207 0.0
C1233 C 0.00165 0.59444 0.93045 0.0
C1234 C 0.00702 0.57899 0.87673 0.0
C1235 C 0.01171 0.56716 0.88283 0.0
C1236 C 0.00607 0.58597 0.91359 0.0
C1237 C 0.01391 0.56545 0.90445 0.0
C1238 C -0.0051 0.58611 0.94973 0.0
C1239 C -0.00047 0.61815 0.94254 0.0
N1240 N 0.01084 0.57458 0.91906 0.0
N1241 N 0.00374 0.61017 0.92736 0.0
H1242 H 0.39618 0.38215 0.9493 0.0
H1243 H 0.3945 0.44967 0.87066 0.0
H1244 H 0.3538 0.39086 0.9451 0.0
H1245 H 0.43707 0.44136 0.87611 0.0
H1246 H 0.37865 0.42704 0.89643 0.0
H1247 H 0.41058 0.40257 0.92082 0.0
C1248 C 0.38987 0.38831 0.94232 0.0
C1249 C 0.37382 0.38489 0.94965 0.0
C1250 C 0.39142 0.43011 0.89189 0.0
C1251 C 0.39024 0.40832 0.91709 0.0
C1252 C 0.4005 0.44308 0.87726 0.0
C1253 C 0.41715 0.44744 0.87126 0.0
C1254 C 0.39907 0.42149 0.90064 0.0
C1255 C 0.4242 0.4383 0.88008 0.0
C1256 C 0.3981 0.39998 0.92605 0.0
C1257 C 0.3662 0.39318 0.93997 0.0
N1258 N 0.41516 0.42583 0.89439 0.0
N1259 N 0.37452 0.40458 0.92424 0.0
H1260 H 0.60707 0.96807 0.95512 0.0
H1261 H 0.57269 0.00929 0.87144 0.0
H1262 H 0.62623 0.02179 0.94806 0.0
H1263 H 0.54542 0.95564 0.8855 0.0
H1264 H 0.59549 0.01319 0.89505 0.0
H1265 H 0.58738 0.96244 0.92542 0.0
C1266 C 0.60731 0.97866 0.94714 0.0
C1267 C 0.61814 0.9954 0.9542 0.0
C1268 C 0.58459 0.00052 0.89294 0.0
C1269 C 0.59586 0.98912 0.92041 0.0
C1270 C 0.57153 -0.0017 0.87949 0.0
C1271 C 0.55699 0.98217 0.8768 0.0
C1272 C 0.58315 0.98653 0.90395 0.0
C1273 C 0.55639 0.96831 0.88721 0.0
C1274 C 0.59604 0.97545 0.93031 0.0
C1275 C 0.61793 0.00866 0.94336 0.0
N1276 N 0.56921 0.97083 0.90054 0.0
N1277 N 0.60696 0.00523 0.92713 0.0
H1278 H 0.59848 0.97213 0.0571 0.0
H1279 H 0.5863 0.03141 0.14118 0.0
H1280 H 0.63794 0.02363 0.07144 0.0
H1281 H 0.54719 0.97997 0.12592 0.0
H1282 H 0.60574 0.02871 0.11654 0.0
H1283 H 0.57995 0.97457 0.08331 0.0
C1284 C 0.60327 0.98395 0.06582 0.0
C1285 C 0.61977 -0.00228 0.06202 0.0
C1286 C 0.59292 0.018 0.11864 0.0
C1287 C 0.59855 0.00063 0.09207 0.0
C1288 C 0.58178 0.01956 0.13262 0.0
C1289 C 0.56507 0.0059 0.13563 0.0
C1290 C 0.5873 0.00267 0.10752 0.0
C1291 C 0.56001 0.99077 0.12433 0.0
C1292 C 0.59267 0.98534 0.0808 0.0
C1293 C 0.6253 0.0127 0.07385 0.0
N1294 N 0.57105 0.98959 0.11077 0.0
N1295 N 0.61469 0.01378 0.0883 0.0
H1296 H 0.00796 0.61039 0.04762 0.0
H1297 H 0.98267 0.57297 0.16334 0.0
H1298 H 0.97364 0.61976 0.08523 0.0
H1299 H 0.98755 0.54466 0.11152 0.0
H1300 H 0.98427 0.59409 0.13781 0.0
H1301 H 0.006 0.59015 0.07418 0.0
C1302 C 0.00012 0.60829 0.06157 0.0
C1303 C 0.9909 0.61671 0.06424 0.0
C1304 C 0.98492 0.5832 0.13213 0.0
C1305 C 0.98877 0.59372 0.0947 0.0
C1306 C 0.98408 0.57126 0.14659 0.0
C1307 C 0.98492 0.55714 0.13936 0.0
C1308 C 0.9871 0.58113 0.11049 0.0
C1309 C 0.98675 0.55537 0.1176 0.0
C1310 C -0.00106 0.59668 0.07662 0.0
C1311 C 0.98086 0.61343 0.08257 0.0
N1312 N 0.98796 0.56733 0.10392 0.0
N1313 N 0.98013 0.60223 0.09726 0.0
H1314 H 0.38972 0.41142 0.05813 0.0
H1315 H 0.45372 0.39992 0.13334 0.0
H1316 H 0.39122 0.36488 0.05972 0.0
H1317 H 0.44946 0.44489 0.13074 0.0
H1318 H 0.43093 0.38641 0.10681 0.0
H1319 H 0.41142 0.42329 0.08537 0.0
C1320 C 0.3946 0.40364 0.06423 0.0
C1321 C 0.38864 0.38711 0.0565 0.0
C1322 C 0.43497 0.3992 0.11216 0.0
C1323 C 0.41375 0.40078 0.08795 0.0
C1324 C 0.44801 0.40695 0.1272 0.0
C1325 C 0.45343 0.42353 0.13441 0.0
C1326 C 0.4274 0.40817 0.10421 0.0
C1327 C 0.44551 0.43199 0.12602 0.0
C1328 C 0.40704 0.41046 0.07986 0.0
C1329 C 0.39544 0.37767 0.0652 0.0
N1330 N 0.43297 0.42424 0.11141 0.0
N1331 N 0.40771 0.38468 0.08043 0.0
H1332 H 0.68004 0.73082 0.39834 0.0
H1333 H 0.61101 0.73332 0.47584 0.0
H1334 H 0.62843 0.68874 0.40533 0.0
H1335 H 0.66351 0.77392 0.47046 0.0
H1336 H 0.61695 0.71662 0.45025 0.0
H1337 H 0.67412 0.74657 0.42516 0.0
C1338 C 0.66746 0.72487 0.40557 0.0
C1339 C 0.6547 0.70845 0.39955 0.0
C1340 C 0.62717 0.72916 0.45475 0.0
C1341 C 0.64778 0.72646 0.43028 0.0
C1342 C 0.62377 0.73873 0.46927 0.0
C1343 C 0.63679 0.75504 0.47536 0.0
C1344 C 0.64369 0.73598 0.44616 0.0
C1345 C 0.65313 0.76132 0.4665 0.0
C1346 C 0.66408 0.73387 0.42091 0.0
C1347 C 0.63864 0.70137 0.4095 0.0
N1348 N 0.65609 0.75182 0.45234 0.0
N1349 N 0.63562 0.71044 0.42433 0.0
H1350 H 0.2939 0.9343 0.38886 0.0
H1351 H 0.23918 0.89971 0.49505 0.0
H1352 H 0.26051 0.95174 0.41188 0.0
H1353 H 0.24898 0.86741 0.45402 0.0
H1354 H 0.2534 0.92265 0.46937 0.0
H1355 H 0.28382 0.91339 0.41766 0.0
C1356 C 0.28463 0.93387 0.40012 0.0
C1357 C 0.27793 0.94467 0.39794 0.0
C1358 C 0.25251 0.91055 0.46614 0.0
C1359 C 0.26661 0.92107 0.43087 0.0
C1360 C 0.2443 0.89738 0.4807 0.0
C1361 C 0.24252 0.88138 0.4766 0.0
C1362 C 0.25932 0.9079 0.44749 0.0
C1363 C 0.25005 0.87947 0.45801 0.0
C1364 C 0.27885 0.92192 0.41643 0.0
C1365 C 0.26588 0.94355 0.4129 0.0
N1366 N 0.25807 0.89255 0.4441 0.0
N1367 N 0.26064 0.93197 0.42877 0.0
H1368 H 0.06163 0.36367 0.39049 0.0
H1369 H 0.09732 0.33486 0.48732 0.0
H1370 H 0.04945 0.3122 0.40262 0.0
H1371 H 0.12346 0.3865 0.46456 0.0
H1372 H 0.0749 0.32747 0.46128 0.0
H1373 H 0.08026 0.37317 0.42185 0.0
C1374 C 0.06279 0.35439 0.39979 0.0
C1375 C 0.05414 0.33715 0.39383 0.0
C1376 C 0.08543 0.34048 0.4621 0.0
C1377 C 0.07502 0.34783 0.42966 0.0
C1378 C 0.09819 0.34469 0.47698 0.0
C1379 C 0.11237 0.36122 0.47778 0.0
C1380 C 0.08685 0.35285 0.44782 0.0
C1381 C 0.11274 0.37359 0.46433 0.0
C1382 C 0.07339 0.35981 0.41762 0.0
C1383 C 0.05604 0.32564 0.40643 0.0
N1384 N 0.10025 0.3691 0.44962 0.0
N1385 N 0.06624 0.33118 0.42371 0.0
H1386 H 0.02105 0.29312 0.28215 0.0
H1387 H 0.10006 0.32688 0.20182 0.0
H1388 H 0.06178 0.34548 0.27824 0.0
H1389 H 0.06494 0.27361 0.21346 0.0
H1390 H 0.08327 0.33406 0.2255 0.0
H1391 H 0.03429 0.28597 0.25307 0.0
C1392 C 0.03273 0.30313 0.27509 0.0
C1393 C 0.04043 0.3199 0.28274 0.0
C1394 C 0.07914 0.32079 0.22277 0.0
C1395 C 0.05557 0.31181 0.24946 0.0
C1396 C 0.08873 0.31668 0.20928 0.0
C1397 C 0.08403 0.29963 0.20598 0.0
C1398 C 0.06473 0.30775 0.23307 0.0
C1399 C 0.06901 0.28692 0.21561 0.0
C1400 C 0.04027 0.29903 0.25851 0.0
C1401 C 0.0555 0.33237 0.27296 0.0
N1402 N 0.05998 0.29125 0.22894 0.0
N1403 N 0.06261 0.32805 0.25687 0.0
H1404 H 0.64144 0.71688 0.29152 0.0
H1405 H 0.71622 0.78266 0.21482 0.0
H1406 H 0.6916 0.72244 0.29063 0.0
H1407 H 0.66643 0.77754 0.22093 0.0
H1408 H 0.70771 0.76011 0.24126 0.0
H1409 H 0.65048 0.73814 0.264 0.0
C1410 C 0.65439 0.72254 0.28551 0.0
C1411 C 0.66579 0.71787 0.29357 0.0
C1412 C 0.69866 0.76391 0.2367 0.0
C1413 C 0.67633 0.74253 0.26179 0.0
C1414 C 0.70353 0.77683 0.2217 0.0
C1415 C 0.69198 0.78196 0.21548 0.0
C1416 C 0.68216 0.75611 0.24557 0.0
C1417 C 0.67567 0.77384 0.22483 0.0
C1418 C 0.65956 0.73475 0.26973 0.0
C1419 C 0.68238 0.72565 0.28492 0.0
N1420 N 0.67129 0.76139 0.23933 0.0
N1421 N 0.68719 0.73767 0.26954 0.0
H1422 H 0.25972 0.92736 0.30245 0.0
H1423 H 0.22484 0.93112 0.18937 0.0
H1424 H 0.27452 0.97561 0.27344 0.0
H1425 H 0.19305 0.89326 0.23529 0.0
H1426 H 0.24637 0.94634 0.21711 0.0
H1427 H 0.23822 0.913 0.27473 0.0
C1428 C 0.25849 0.93491 0.29018 0.0
C1429 C 0.26884 0.95268 0.29021 0.0
C1430 C 0.23463 0.93474 0.22106 0.0
C1431 C 0.24455 0.93636 0.25845 0.0
C1432 C 0.22244 0.9261 0.20532 0.0
C1433 C 0.20723 0.91107 0.21025 0.0
C1434 C 0.2317 0.92797 0.24159 0.0
C1435 C 0.20462 0.90492 0.23103 0.0
C1436 C 0.2462 0.92673 0.27448 0.0
C1437 C 0.2667 0.96188 0.274 0.0
N1438 N 0.21683 0.91331 0.24594 0.0
N1439 N 0.25487 0.95359 0.25862 0.0
H1440 H 0.68792 0.96901 0.27625 0.0
H1441 H 0.71514 0.90165 0.24155 0.0
H1442 H 0.67502 0.92383 0.31183 0.0
H1443 H 0.70357 0.92902 0.19553 0.0
H1444 H 0.70824 0.91562 0.26994 0.0
H1445 H 0.70107 0.95989 0.24881 0.0
C1446 C 0.68808 0.95732 0.27841 0.0
C1447 C 0.68028 0.94706 0.29619 0.0
C1448 C 0.70744 0.91873 0.25363 0.0
C1449 C 0.69542 0.93681 0.26529 0.0
C1450 C 0.7115 0.91088 0.23744 0.0
C1451 C 0.70985 0.91416 0.21618 0.0
C1452 C 0.70188 0.93008 0.24854 0.0
C1453 C 0.70485 0.92607 0.21174 0.0
C1454 C 0.69549 0.95212 0.26276 0.0
C1455 C 0.68075 0.93201 0.29824 0.0
N1456 N 0.70098 0.93359 0.22781 0.0
N1457 N 0.68821 0.92735 0.28299 0.0
H1458 H 0.01974 0.71588 0.26987 0.0
H1459 H 0.10295 0.79956 0.23299 0.0
H1460 H 0.06885 0.7322 0.2981 0.0
H1461 H 0.06504 0.76721 0.18735 0.0
H1462 H 0.08844 0.77738 0.25987 0.0
H1463 H 0.03412 0.73692 0.24164 0.0
C1464 C 0.03354 0.72386 0.27006 0.0
C1465 C 0.04316 0.72235 0.28627 0.0
C1466 C 0.08331 0.77515 0.24397 0.0
C1467 C 0.05949 0.74648 0.25451 0.0
C1468 C 0.09148 0.78778 0.22876 0.0
C1469 C 0.08506 0.78508 0.20812 0.0
C1470 C 0.06845 0.75991 0.23855 0.0
C1471 C 0.07028 0.76964 0.20319 0.0
C1472 C 0.04169 0.73577 0.25398 0.0
C1473 C 0.06099 0.73293 0.28583 0.0
N1474 N 0.06232 0.75761 0.21842 0.0
N1475 N 0.06858 0.74472 0.27032 0.0
H1476 H 0.28496 0.35078 0.28179 0.0
H1477 H 0.20742 0.27242 0.2226 0.0
H1478 H 0.27165 0.29896 0.29376 0.0
H1479 H 0.22757 0.32515 0.20686 0.0
H1480 H 0.23151 0.28102 0.24702 0.0
H1481 H 0.26462 0.34096 0.25296 0.0
C1482 C 0.27775 0.33728 0.27831 0.0
C1483 C 0.27989 0.32566 0.29037 0.0
C1484 C 0.23072 0.29066 0.23801 0.0
C1485 C 0.25631 0.3142 0.25717 0.0
C1486 C 0.21705 0.28575 0.22405 0.0
C1487 C 0.21539 0.29813 0.21299 0.0
C1488 C 0.24274 0.30803 0.24082 0.0
C1489 C 0.22817 0.31522 0.21542 0.0
C1490 C 0.26614 0.33166 0.26173 0.0
C1491 C 0.27034 0.30834 0.28488 0.0
N1492 N 0.24117 0.31965 0.22916 0.0
N1493 N 0.25878 0.30308 0.26879 0.0
H1494 H 0.27027 0.31541 0.40118 0.0
H1495 H 0.26403 0.38702 0.46781 0.0
H1496 H 0.30973 0.36839 0.40058 0.0
H1497 H 0.22745 0.33329 0.4723 0.0
H1498 H 0.28165 0.38057 0.44437 0.0
H1499 H 0.25493 0.32179 0.42817 0.0
C1500 C 0.27575 0.32838 0.40679 0.0
C1501 C 0.29126 0.3414 0.39854 0.0
C1502 C 0.26981 0.3702 0.45058 0.0
C1503 C 0.27371 0.34884 0.42943 0.0
C1504 C 0.25979 0.37387 0.46405 0.0
C1505 C 0.24414 0.36069 0.47185 0.0
C1506 C 0.26412 0.35323 0.44487 0.0
C1507 C 0.23923 0.34389 0.46631 0.0
C1508 C 0.26699 0.33203 0.42224 0.0
C1509 C 0.29779 0.35797 0.40648 0.0
N1510 N 0.24912 0.34066 0.45309 0.0
N1511 N 0.28892 0.36124 0.4214 0.0
H1512 H 0.68383 0.95205 0.40193 0.0
H1513 H 0.61432 0.88032 0.47856 0.0
H1514 H 0.6305 0.93728 0.40301 0.0
H1515 H 0.66663 0.89206 0.47319 0.0
H1516 H 0.62053 0.90283 0.45312 0.0
H1517 H 0.67834 0.93198 0.43052 0.0
C1518 C 0.67099 0.94466 0.40827 0.0
C1519 C 0.65758 0.94625 0.39998 0.0
C1520 C 0.63067 0.90053 0.4576 0.0
C1521 C 0.65119 0.92322 0.43266 0.0
C1522 C 0.62711 0.88763 0.47205 0.0
C1523 C 0.63995 0.88424 0.47798 0.0
C1524 C 0.64718 0.91011 0.44898 0.0
C1525 C 0.65637 0.89433 0.46929 0.0
C1526 C 0.66785 0.93318 0.42457 0.0
C1527 C 0.6412 0.93639 0.40885 0.0
N1528 N 0.65949 0.90674 0.45518 0.0
N1529 N 0.63845 0.92525 0.42464 0.0
H1530 H 0.05512 0.74666 0.39715 0.0
H1531 H 0.11711 0.73269 0.47305 0.0
H1532 H 0.05603 0.69981 0.39817 0.0
H1533 H 0.11151 0.77693 0.4745 0.0
H1534 H 0.09482 0.72009 0.44586 0.0
H1535 H 0.07569 0.75756 0.42589 0.0
C1536 C 0.05961 0.73862 0.40345 0.0
C1537 C 0.05386 0.7223 0.39513 0.0
C1538 C 0.09842 0.7325 0.45227 0.0
C1539 C 0.0776 0.73481 0.42818 0.0
C1540 C 0.11118 0.73972 0.4677 0.0
C1541 C 0.11614 0.75586 0.47616 0.0
C1542 C 0.09069 0.74155 0.44514 0.0
C1543 C 0.10793 0.76435 0.46875 0.0
C1544 C 0.07138 0.74486 0.41993 0.0
C1545 C 0.06012 0.71247 0.40408 0.0
N1546 N 0.0957 0.75713 0.45366 0.0
N1547 N 0.07173 0.71891 0.42006 0.0
H1548 H 0.34413 0.05391 0.74751 0.0
H1549 H 0.2789 0.08101 0.78733 0.0
H1550 H 0.29163 0.02708 0.72691 0.0
H1551 H 0.31963 0.08595 0.82732 0.0
H1552 H 0.28418 0.06314 0.76317 0.0
H1553 H 0.33661 0.06817 0.77492 0.0
C1554 C 0.33101 0.05097 0.74884 0.0
C1555 C 0.31848 0.03932 0.73495 0.0
C1556 C 0.29184 0.06806 0.77734 0.0
C1557 C 0.30987 0.05575 0.76597 0.0
C1558 C 0.2888 0.07821 0.79127 0.0
C1559 C 0.29891 0.08521 0.80946 0.0
C1560 C 0.30529 0.06512 0.78136 0.0
C1561 C 0.31177 0.08129 0.8133 0.0
C1562 C 0.32672 0.05904 0.76451 0.0
C1563 C 0.30165 0.03594 0.73737 0.0
N1564 N 0.31472 0.0717 0.79925 0.0
N1565 N 0.29786 0.04429 0.75242 0.0
H1566 H 0.91576 0.266 0.71077 0.0
H1567 H 0.93243 0.21131 0.79557 0.0
H1568 H 0.96516 0.27051 0.71807 0.0
H1569 H 0.88633 0.21385 0.79193 0.0
H1570 H 0.94466 0.23193 0.76648 0.0
H1571 H 0.90477 0.24577 0.73964 0.0
C1572 C 0.92434 0.26273 0.71842 0.0
C1573 C 0.94146 0.27003 0.71192 0.0
C1574 C 0.93191 0.22801 0.77217 0.0
C1575 C 0.92882 0.24668 0.7453 0.0
C1576 C 0.92491 0.21621 0.78869 0.0
C1577 C 0.90838 0.21094 0.79631 0.0
C1578 C 0.92222 0.23441 0.76311 0.0
C1579 C 0.89922 0.21775 0.78688 0.0
C1580 C 0.91803 0.25115 0.73501 0.0
C1581 C 0.95189 0.26523 0.72256 0.0
N1582 N 0.90624 0.22905 0.7708 0.0
N1583 N 0.9454 0.25382 0.73873 0.0
H1584 H 0.72238 0.69666 0.7265 0.0
H1585 H 0.76376 0.66775 0.81655 0.0
H1586 H 0.70947 0.64491 0.73817 0.0
H1587 H 0.78638 0.71991 0.79657 0.0
H1588 H 0.73979 0.65995 0.79288 0.0
H1589 H 0.74224 0.70601 0.75656 0.0
C1590 C 0.72358 0.68726 0.73551 0.0
C1591 C 0.71442 0.67 0.7297 0.0
C1592 C 0.74989 0.67314 0.79375 0.0
C1593 C 0.73688 0.68056 0.76401 0.0
C1594 C 0.76355 0.67759 0.80727 0.0
C1595 C 0.77716 0.69443 0.80817 0.0
C1596 C 0.74984 0.68559 0.78089 0.0
C1597 C 0.77614 0.70677 0.79619 0.0
C1598 C 0.73492 0.69261 0.75259 0.0
C1599 C 0.71643 0.65836 0.74189 0.0
N1600 N 0.76279 0.70207 0.78275 0.0
N1601 N 0.72746 0.66386 0.75839 0.0
H1602 H 0.73359 0.67773 0.6301 0.0
H1603 H 0.73111 0.62663 0.52639 0.0
H1604 H 0.6861 0.63594 0.60671 0.0
H1605 H 0.77376 0.64894 0.56966 0.0
H1606 H 0.71459 0.633 0.55197 0.0
H1607 H 0.74904 0.6711 0.60345 0.0
C1608 C 0.72641 0.66724 0.61926 0.0
C1609 C 0.70857 0.65729 0.62066 0.0
C1610 C 0.72759 0.63646 0.55572 0.0
C1611 C 0.72613 0.64973 0.59015 0.0
C1612 C 0.737 0.63277 0.54123 0.0
C1613 C 0.75397 0.63743 0.5457 0.0
C1614 C 0.73531 0.64508 0.5746 0.0
C1615 C 0.76094 0.64552 0.56515 0.0
C1616 C 0.73523 0.66341 0.60415 0.0
C1617 C 0.69989 0.64383 0.60622 0.0
N1618 N 0.75164 0.64921 0.57876 0.0
N1619 N 0.70877 0.64045 0.59146 0.0
H1620 H 0.35187 0.04773 0.61167 0.0
H1621 H 0.37472 0.14095 0.57783 0.0
H1622 H 0.33463 0.07709 0.64662 0.0
H1623 H 0.36316 0.10198 0.53096 0.0
H1624 H 0.36792 0.11995 0.60582 0.0
H1625 H 0.36366 0.06997 0.58425 0.0
C1626 C 0.35079 0.05895 0.61369 0.0
C1627 C 0.3422 0.06059 0.63131 0.0
C1628 C 0.36709 0.11608 0.5894 0.0
C1629 C 0.35581 0.08597 0.60048 0.0
C1630 C 0.37106 0.12803 0.57347 0.0
C1631 C 0.36944 0.12313 0.55212 0.0
C1632 C 0.36176 0.09918 0.58394 0.0
C1633 C 0.36445 0.10619 0.54728 0.0
C1634 C 0.35741 0.07153 0.59806 0.0
C1635 C 0.34103 0.0753 0.63317 0.0
N1636 N 0.36079 0.09477 0.5631 0.0
N1637 N 0.34782 0.08746 0.618 0.0
H1638 H 0.95337 0.26953 0.5973 0.0
H1639 H 0.8649 0.25216 0.55088 0.0
H1640 H 0.9333 0.30269 0.60976 0.0
H1641 H 0.89476 0.23323 0.52033 0.0
H1642 H 0.88889 0.26936 0.57436 0.0
H1643 H 0.93096 0.25442 0.57078 0.0
C1644 C 0.94431 0.27368 0.59437 0.0
C1645 C 0.94516 0.28735 0.60575 0.0
C1646 C 0.89019 0.2615 0.56242 0.0
C1647 C 0.91945 0.27004 0.57574 0.0
C1648 C 0.87652 0.25172 0.54889 0.0
C1649 C 0.8777 0.24111 0.53354 0.0
C1650 C 0.90511 0.26053 0.56084 0.0
C1651 C 0.89306 0.24089 0.53216 0.0
C1652 C 0.93157 0.26509 0.57923 0.0
C1653 C 0.93313 0.29223 0.60132 0.0
N1654 N 0.90609 0.25034 0.54573 0.0
N1655 N 0.92067 0.28348 0.58681 0.0
H1656 H 0.34934 0.30351 0.61059 0.0
H1657 H 0.3749 0.23483 0.57721 0.0
H1658 H 0.33168 0.25637 0.64401 0.0
H1659 H 0.36499 0.26275 0.53018 0.0
H1660 H 0.36704 0.24853 0.60502 0.0
H1661 H 0.36269 0.29405 0.5838 0.0
C1662 C 0.34846 0.29129 0.6124 0.0
C1663 C 0.33931 0.28061 0.62938 0.0
C1664 C 0.36683 0.25181 0.58862 0.0
C1665 C 0.35472 0.27001 0.59932 0.0
C1666 C 0.37142 0.24412 0.57279 0.0
C1667 C 0.37052 0.24766 0.55142 0.0
C1668 C 0.36157 0.26331 0.58305 0.0
C1669 C 0.36572 0.25964 0.54651 0.0
C1670 C 0.356 0.28592 0.59714 0.0
C1671 C 0.33848 0.26489 0.63102 0.0
N1672 N 0.36139 0.26706 0.56224 0.0
N1673 N 0.34614 0.26009 0.61623 0.0
H1674 H 0.68617 0.05583 0.60375 0.0
H1675 H 0.76916 0.10593 0.53047 0.0
H1676 H 0.72952 0.04853 0.606 0.0
H1677 H 0.72644 0.11427 0.52906 0.0
H1678 H 0.75372 0.0831 0.55592 0.0
H1679 H 0.69966 0.07553 0.57433 0.0
C1680 C 0.6985 0.0583 0.59796 0.0
C1681 C 0.70683 0.05064 0.60744 0.0
C1682 C 0.74766 0.08984 0.54996 0.0
C1683 C 0.72233 0.07322 0.57382 0.0
C1684 C 0.75642 0.10281 0.53529 0.0
C1685 C 0.74909 0.11205 0.52761 0.0
C1686 C 0.73144 0.08607 0.5571 0.0
C1687 C 0.73267 0.10763 0.53476 0.0
C1688 C 0.70618 0.06956 0.58117 0.0
C1689 C 0.72272 0.05422 0.59925 0.0
N1690 N 0.72442 0.095 0.54917 0.0
N1691 N 0.73 0.06534 0.58298 0.0
H1692 H 0.93718 0.63387 0.62027 0.0
H1693 H 0.89667 0.66589 0.53264 0.0
H1694 H 0.94983 0.68595 0.61239 0.0
H1695 H 0.87468 0.61292 0.54857 0.0
H1696 H 0.91975 0.67307 0.55756 0.0
H1697 H 0.91746 0.62567 0.59019 0.0
C1698 C 0.93594 0.64359 0.61212 0.0
C1699 C 0.94506 0.66061 0.61898 0.0
C1700 C 0.90996 0.65985 0.55555 0.0
C1701 C 0.9227 0.65135 0.58461 0.0
C1702 C 0.89677 0.65575 0.54133 0.0
C1703 C 0.88358 0.63882 0.53882 0.0
C1704 C 0.91002 0.64695 0.56746 0.0
C1705 C 0.88458 0.62614 0.55009 0.0
C1706 C 0.92467 0.63889 0.59501 0.0
C1707 C 0.94295 0.67266 0.60784 0.0
N1708 N 0.89749 0.63048 0.56414 0.0
N1709 N 0.932 0.66779 0.59129 0.0
H1710 H 0.93156 0.64646 0.73163 0.0
H1711 H 0.92821 0.71791 0.80179 0.0
H1712 H 0.97282 0.69868 0.73315 0.0
H1713 H 0.89189 0.66418 0.80723 0.0
H1714 H 0.94535 0.71137 0.77757 0.0
H1715 H 0.91716 0.65289 0.75984 0.0
C1716 C 0.93762 0.65928 0.73796 0.0
C1717 C 0.95336 0.67207 0.72996 0.0
C1718 C 0.9337 0.70102 0.78421 0.0
C1719 C 0.93691 0.67958 0.76226 0.0
C1720 C 0.92396 0.70474 0.79812 0.0
C1721 C 0.90847 0.69159 0.80633 0.0
C1722 C 0.92786 0.68403 0.77844 0.0
C1723 C 0.90353 0.67476 0.8009 0.0
C1724 C 0.92941 0.66295 0.75413 0.0
C1725 C 0.96067 0.68844 0.73885 0.0
N1726 N 0.9131 0.67149 0.78719 0.0
N1727 N 0.95232 0.69177 0.75442 0.0
H1728 H 0.33971 0.2896 0.74485 0.0
H1729 H 0.27382 0.19826 0.7885 0.0
H1730 H 0.28677 0.26323 0.72599 0.0
H1731 H 0.31798 0.23441 0.82431 0.0
H1732 H 0.27855 0.22105 0.7643 0.0
H1733 H 0.3326 0.26856 0.77276 0.0
C1734 C 0.32657 0.27942 0.74667 0.0
C1735 C 0.31381 0.2781 0.7331 0.0
C1736 C 0.28708 0.22397 0.77759 0.0
C1737 C 0.30564 0.25392 0.76475 0.0
C1738 C 0.28436 0.21099 0.7915 0.0
C1739 C 0.29564 0.21431 0.8084 0.0
C1740 C 0.30131 0.24032 0.7804 0.0
C1741 C 0.30921 0.23108 0.81121 0.0
C1742 C 0.32251 0.26747 0.76263 0.0
C1743 C 0.29698 0.2647 0.73618 0.0
N1744 N 0.31179 0.24339 0.79721 0.0
N1745 N 0.2934 0.25298 0.75154 0.0
H1746 H 0.72555 0.03258 0.72153 0.0
H1747 H 0.78389 0.11347 0.79482 0.0
H1748 H 0.73013 0.08182 0.7151 0.0
H1749 H 0.78629 0.06746 0.79721 0.0
H1750 H 0.76261 0.10091 0.76702 0.0
H1751 H 0.74647 0.04407 0.75039 0.0
C1752 C 0.73093 0.04577 0.72615 0.0
C1753 C 0.72606 0.05624 0.71583 0.0
C1754 C 0.76772 0.09348 0.7736 0.0
C1755 C 0.74988 0.06939 0.74882 0.0
C1756 C 0.77979 0.10061 0.78965 0.0
C1757 C 0.7868 0.09146 0.79852 0.0
C1758 C 0.76251 0.07701 0.76621 0.0
C1759 C 0.78127 0.07499 0.79075 0.0
C1760 C 0.74287 0.05231 0.7426 0.0
C1761 C 0.73347 0.07324 0.7225 0.0
N1762 N 0.76941 0.06826 0.77505 0.0
N1763 N 0.74493 0.07923 0.73854 0.0
H1764 H 0.05578 0.33959 0.01482 0.0
H1765 H 0.07411 0.30228 0.11773 0.0
H1766 H 0.01771 0.31287 0.06324 0.0
H1767 H 0.09971 0.30513 0.05877 0.0
H1768 H 0.05523 0.30958 0.09896 0.0
H1769 H 0.07406 0.33024 0.03141 0.0
C1770 C 0.05125 0.33171 0.02883 0.0
C1771 C 0.03522 0.32703 0.03769 0.0
C1772 C 0.06491 0.30853 0.09009 0.0
C1773 C 0.05606 0.31658 0.05679 0.0
C1774 C 0.0757 0.30444 0.10079 0.0
C1775 C 0.08841 0.30312 0.08972 0.0
C1776 C 0.06706 0.31166 0.06821 0.0
C1777 C 0.08996 0.30597 0.06778 0.0
C1778 C 0.06164 0.32636 0.03822 0.0
C1779 C 0.02995 0.31678 0.05585 0.0
N1780 N 0.0795 0.31029 0.05772 0.0
N1781 N 0.0404 0.31206 0.06491 0.0
H1782 H 0.62141 0.69337 0.04151 0.0
H1783 H 0.70593 0.77604 0.08257 0.0
H1784 H 0.67166 0.6998 0.03383 0.0
H1785 H 0.65478 0.76258 0.10141 0.0
H1786 H 0.69411 0.74885 0.0636 0.0
H1787 H 0.63388 0.71972 0.06186 0.0
C1788 C 0.63509 0.70034 0.04406 0.0
C1789 C 0.6455 0.69435 0.03592 0.0
C1790 C 0.68552 0.75187 0.07197 0.0
C1791 C 0.65991 0.72463 0.05932 0.0
C1792 C 0.69225 0.76733 0.08288 0.0
C1793 C 0.68132 0.7717 0.0934 0.0
C1794 C 0.66774 0.74076 0.07153 0.0
C1795 C 0.66368 0.75996 0.09312 0.0
C1796 C 0.64221 0.71538 0.05578 0.0
C1797 C 0.66315 0.70394 0.03983 0.0
N1798 N 0.65746 0.74511 0.08227 0.0
N1799 N 0.66982 0.71865 0.0512 0.0
H1800 H 0.2862 0.93133 0.0105 0.0
H1801 H 0.22728 0.93166 0.10372 0.0
H1802 H 0.29851 0.97708 0.04525 0.0
H1803 H 0.20865 0.894 0.05372 0.0
H1804 H 0.25388 0.9484 0.08368 0.0
H1805 H 0.25822 0.91684 0.02778 0.0
C1806 C 0.28301 0.93833 0.02175 0.0
C1807 C 0.29471 0.95541 0.02649 0.0
C1808 C 0.24387 0.93654 0.07706 0.0
C1809 C 0.26276 0.93891 0.04637 0.0
C1810 C 0.22867 0.92703 0.08843 0.0
C1811 C 0.21582 0.91127 0.08054 0.0
C1812 C 0.24626 0.93015 0.05783 0.0
C1813 C 0.21838 0.90584 0.06069 0.0
C1814 C 0.26701 0.93009 0.03152 0.0
C1815 C 0.28985 0.9639 0.04111 0.0
N1816 N 0.23337 0.91515 0.05015 0.0
N1817 N 0.27428 0.95551 0.0507 0.0
H1818 H 0.35883 0.0633 0.9923 0.0
H1819 H 0.28532 0.07638 0.94353 0.0
H1820 H 0.3065 0.02272 0.98551 0.0
H1821 H 0.33902 0.1093 0.92969 0.0
H1822 H 0.29247 0.05888 0.96535 0.0
H1823 H 0.35115 0.08298 0.97647 0.0
C1824 C 0.34568 0.05862 0.98785 0.0
C1825 C 0.3333 0.04136 0.98999 0.0
C1826 C 0.30266 0.07 0.95759 0.0
C1827 C 0.32449 0.06365 0.97193 0.0
C1828 C 0.2986 0.07992 0.94498 0.0
C1829 C 0.31156 0.0943 0.93457 0.0
C1830 C 0.31982 0.07456 0.96 0.0
C1831 C 0.32859 0.09847 0.93756 0.0
C1832 C 0.34134 0.06979 0.97869 0.0
C1833 C 0.31646 0.03591 0.98391 0.0
N1834 N 0.33222 0.08863 0.94997 0.0
N1835 N 0.31255 0.04701 0.97506 0.0
H1836 H 0.93138 0.30025 0.97679 0.0
H1837 H 0.9311 0.21789 0.93181 0.0
H1838 H 0.97467 0.29303 0.98225 0.0
H1839 H 0.89325 0.23128 0.91592 0.0
H1840 H 0.94696 0.24473 0.95143 0.0
H1841 H 0.91655 0.274 0.95613 0.0
C1842 C 0.93777 0.29313 0.9737 0.0
C1843 C 0.95431 0.29888 0.98127 0.0
C1844 C 0.9352 0.24178 0.94358 0.0
C1845 C 0.93738 0.26877 0.95756 0.0
C1846 C 0.9262 0.22651 0.93228 0.0
C1847 C 0.91072 0.22222 0.92236 0.0
C1848 C 0.92864 0.25278 0.94504 0.0
C1849 C 0.90491 0.23384 0.9237 0.0
C1850 C 0.92931 0.27817 0.96182 0.0
C1851 C 0.96194 0.28911 0.9767 0.0
N1852 N 0.91381 0.24851 0.9349 0.0
N1853 N 0.9534 0.27451 0.96518 0.0
H1854 H 0.70263 0.65146 -0.0016 0.0
H1855 H 0.76063 0.69039 0.896 0.0
H1856 H 0.69187 0.67793 0.95012 0.0
H1857 H 0.7821 0.68657 0.95492 0.0
H1858 H 0.73385 0.68259 0.91448 0.0
H1859 H 0.73064 0.66108 0.98172 0.0
C1860 C 0.70617 0.6593 0.98435 0.0
C1861 C 0.69492 0.66389 0.9756 0.0
C1862 C 0.74444 0.68355 0.92341 0.0
C1863 C 0.72665 0.67469 0.95644 0.0
C1864 C 0.75966 0.68794 0.91287 0.0
C1865 C 0.7735 0.68912 0.92402 0.0
C1866 C 0.74294 0.67999 0.94518 0.0
C1867 C 0.77169 0.68587 0.94586 0.0
C1868 C 0.72214 0.66483 0.97493 0.0
C1869 C 0.70014 0.67411 0.95743 0.0
N1870 N 0.75658 0.68127 0.95575 0.0
N1871 N 0.71554 0.67902 0.94835 0.0
H1872 H 0.91748 0.624 0.98728 0.0
H1873 H 0.92295 0.70453 0.92948 0.0
H1874 H 0.96411 0.67251 0.98094 0.0
H1875 H 0.87764 0.65469 0.93055 0.0
H1876 H 0.93776 0.69361 0.95061 0.0
H1877 H 0.90218 0.6356 0.96864 0.0
C1878 C 0.9245 0.6371 0.98204 0.0
C1879 C 0.94213 0.64726 0.98561 0.0
C1880 C 0.92457 0.68507 0.94624 0.0
C1881 C 0.92468 0.66062 0.96425 0.0
C1882 C 0.91609 0.69132 0.93428 0.0
C1883 C 0.89908 0.68048 0.92814 0.0
C1884 C 0.91594 0.66787 0.95219 0.0
C1885 C 0.89085 0.66343 0.93464 0.0
C1886 C 0.91576 0.64371 0.97137 0.0
C1887 C 0.95054 0.66416 0.97847 0.0
N1888 N 0.89936 0.65765 0.94629 0.0
N1889 N 0.94175 0.67029 0.96811 0.0
H1890 H 0.35024 0.29635 -0.00249 0.0
H1891 H 0.29329 0.23015 0.90766 0.0
H1892 H 0.31093 0.29934 0.96315 0.0
H1893 H 0.32294 0.22018 0.95228 0.0
H1894 H 0.30014 0.25592 0.92742 0.0
H1895 H 0.34106 0.26872 0.98073 0.0
C1896 C 0.33962 0.29114 0.98657 0.0
C1897 C 0.33139 0.30018 0.98165 0.0
C1898 C 0.30508 0.24804 0.93294 0.0
C1899 C 0.32095 0.26876 0.9623 0.0
C1900 C 0.3011 0.23326 0.92171 0.0
C1901 C 0.3076 0.22297 0.92822 0.0
C1902 C 0.31576 0.25268 0.95073 0.0
C1903 C 0.31791 0.22787 0.94639 0.0
C1904 C 0.33438 0.27539 0.97701 0.0
C1905 C 0.31768 0.29284 0.96738 0.0
N1906 N 0.32175 0.24242 0.95693 0.0
N1907 N 0.31298 0.27764 0.9581 0.0
H1908 H 0.70546 0.02232 0.98143 0.0
H1909 H 0.76903 0.1068 0.91802 0.0
H1910 H 0.70115 0.06731 0.98049 0.0
H1911 H 0.78195 0.06858 0.93288 0.0
H1912 H 0.74253 0.09084 0.93796 0.0
H1913 H 0.73217 0.03761 0.96119 0.0
C1914 C 0.71014 0.03541 0.97704 0.0
C1915 C 0.70103 0.04354 0.98268 0.0
C1916 C 0.75116 0.08593 0.93691 0.0
C1917 C 0.73143 0.06099 0.95936 0.0
C1918 C 0.76635 0.09508 0.92558 0.0
C1919 C 0.77791 0.08918 0.92402 0.0
C1920 C 0.74731 0.07063 0.94669 0.0
C1921 C 0.77342 0.07359 0.93361 0.0
C1922 C 0.72538 0.04412 0.96551 0.0
C1923 C 0.70772 0.06053 0.97657 0.0
N1924 N 0.75847 0.06486 0.9446 0.0
N1925 N 0.72245 0.06863 0.96517 0.0
H1926 H 0.65387 0.93987 0.01609 0.0
H1927 H 0.70891 0.93228 0.10892 0.0
H1928 H 0.68867 0.98209 0.0555 0.0
H1929 H 0.68282 0.89321 0.06151 0.0
H1930 H 0.70158 0.95069 0.08945 0.0
H1931 H 0.664 0.92234 0.03254 0.0
C1932 C 0.66369 0.94547 0.02809 0.0
C1933 C 0.67037 0.96244 0.03449 0.0
C1934 C 0.69754 0.93812 0.08324 0.0
C1935 C 0.68193 0.94249 0.05345 0.0
C1936 C 0.70182 0.92762 0.0943 0.0
C1937 C 0.69639 0.91108 0.08697 0.0
C1938 C 0.68764 0.93204 0.06476 0.0
C1939 C 0.68699 0.90571 0.06804 0.0
C1940 C 0.66949 0.93548 0.03746 0.0
C1941 C 0.68311 0.96906 0.0501 0.0
N1942 N 0.68282 0.9161 0.05769 0.0
N1943 N 0.68838 0.95905 0.05912 0.0
H1944 H 0.0508 0.69963 0.02177 0.0
H1945 H 0.06291 0.78479 0.0752 0.0
H1946 H 0.00846 0.7067 0.03749 0.0
H1947 H 0.09957 0.76814 0.08098 0.0
H1948 H 0.04407 0.75862 0.05569 0.0
H1949 H 0.0704 0.72766 0.03703 0.0
C1950 C 0.04566 0.70718 0.02816 0.0
C1951 C 0.02799 0.70081 0.02854 0.0
C1952 C 0.05629 0.7608 0.06118 0.0
C1953 C 0.05026 0.73276 0.04596 0.0
C1954 C 0.06702 0.77567 0.07246 0.0
C1955 C 0.08291 0.77876 0.07983 0.0
C1956 C 0.06155 0.749 0.05703 0.0
C1957 C 0.08762 0.76655 0.07534 0.0
C1958 C 0.05682 0.7231 0.03697 0.0
C1959 C 0.02199 0.71109 0.03706 0.0
N1960 N 0.07701 0.75226 0.06423 0.0
N1961 N 0.03311 0.72656 0.04549 0.0
H1962 H 0.29885 0.37267 0.03808 0.0
H1963 H 0.22267 0.28819 0.09058 0.0
H1964 H 0.29765 0.32474 0.03899 0.0
H1965 H 0.22612 0.33714 0.09227 0.0
H1966 H 0.24941 0.30082 0.07022 0.0
H1967 H 0.27153 0.35937 0.05675 0.0
C1968 C 0.29285 0.35934 0.04219 0.0
C1969 C 0.3006 0.34983 0.037 0.0
C1970 C 0.24429 0.30877 0.07506 0.0
C1971 C 0.26924 0.33449 0.05841 0.0
C1972 C 0.22901 0.30156 0.08658 0.0
C1973 C 0.22226 0.31167 0.09327 0.0
C1974 C 0.25279 0.32619 0.07013 0.0
C1975 C 0.23104 0.32894 0.08777 0.0
C1976 C 0.27722 0.35174 0.05287 0.0
C1977 C 0.29217 0.33258 0.04272 0.0
N1978 N 0.24584 0.33564 0.07656 0.0
N1979 N 0.27694 0.32547 0.05314 0.0
H1980 H 0.71816 0.67708 0.34846 0.0
H1981 H 0.73889 0.64122 0.45113 0.0
H1982 H 0.68183 0.65261 0.39929 0.0
H1983 H 0.76198 0.642 0.3909 0.0
H1984 H 0.71998 0.64898 0.43332 0.0
H1985 H 0.73668 0.66781 0.3646 0.0
C1986 C 0.71409 0.66978 0.36297 0.0
C1987 C 0.69846 0.66562 0.37257 0.0
C1988 C 0.72911 0.64737 0.42396 0.0
C1989 C 0.71954 0.65523 0.3911 0.0
C1990 C 0.7399 0.64299 0.43411 0.0
C1991 C 0.75191 0.64096 0.4224 0.0
C1992 C 0.73058 0.65007 0.40199 0.0
C1993 C 0.75276 0.64337 0.40039 0.0
C1994 C 0.7246 0.66444 0.37208 0.0
C1995 C 0.69375 0.65608 0.39131 0.0
N1996 N 0.74232 0.64798 0.39086 0.0
N1997 N 0.70431 0.65135 0.40005 0.0
H1998 H 0.33599 0.02869 0.38352 0.0
H1999 H 0.33897 0.11705 0.3985 0.0
H2000 H 0.29722 0.03851 0.36037 0.0
H2001 H 0.3628 0.09997 0.44317 0.0
H2002 H 0.32824 0.09044 0.379 0.0
H2003 H 0.35034 0.05692 0.40048 0.0
C2004 C 0.33058 0.03682 0.38188 0.0
C2005 C 0.31534 0.03124 0.37063 0.0
C2006 C 0.33587 0.09255 0.39303 0.0
C2007 C 0.33174 0.06341 0.38965 0.0
C2008 C 0.34195 0.10771 0.40424 0.0
C2009 C 0.3515 0.11063 0.4228 0.0
C2010 C 0.3395 0.08022 0.4002 0.0
C2011 C 0.35546 0.09826 0.42899 0.0
C2012 C 0.33873 0.05284 0.39161 0.0
C2013 C 0.30885 0.04223 0.36904 0.0
N2014 N 0.34934 0.08351 0.41777 0.0
N2015 N 0.31711 0.0578 0.37838 0.0
H2016 H 0.97125 0.26377 0.38013 0.0
H2017 H 0.88384 0.26055 0.40736 0.0
H2018 H 0.96313 0.30541 0.36623 0.0
H2019 H 0.89853 0.22632 0.43371 0.0
H2020 H 0.91241 0.27716 0.39159 0.0
H2021 H 0.94396 0.24946 0.39872 0.0
C2022 C 0.96372 0.26991 0.38097 0.0
C2023 C 0.96946 0.28579 0.37154 0.0
C2024 C 0.90937 0.26606 0.40094 0.0
C2025 C 0.93812 0.26943 0.39285 0.0
C2026 C 0.89311 0.25663 0.41001 0.0
C2027 C 0.88873 0.24189 0.42161 0.0
C2028 C 0.92122 0.26064 0.40345 0.0
C2029 C 0.9012 0.23734 0.42444 0.0
C2030 C 0.94815 0.26177 0.39169 0.0
C2031 C 0.95918 0.29317 0.37328 0.0
N2032 N 0.91681 0.2466 0.41528 0.0
N2033 N 0.94392 0.28487 0.38363 0.0
H2034 H 0.98412 0.34995 0.29409 0.0
H2035 H 0.00511 0.44612 0.29056 0.0
H2036 H 0.0233 0.38984 0.3325 0.0
H2037 H 0.9798 0.40986 0.23995 0.0
H2038 H 0.00838 0.42471 0.30954 0.0
H2039 H 0.97852 0.37084 0.27789 0.0
C2040 C 0.99144 0.36308 0.29926 0.0
C2041 C 0.00428 0.3682 0.31457 0.0
C2042 C 0.00207 0.42147 0.29431 0.0
C2043 C -0.00208 0.39213 0.29608 0.0
C2044 C 0.00028 0.4337 0.28338 0.0
C2045 C 0.99225 0.42986 0.2635 0.0
C2046 C -0.00436 0.40522 0.28543 0.0
C2047 C 0.98588 0.41338 0.2553 0.0
C2048 C 0.98828 0.375 0.28994 0.0
C2049 C 0.01336 0.38538 0.32066 0.0
N2050 N 0.98772 0.40169 0.26629 0.0
N2051 N 0.01003 0.39677 0.31136 0.0
H2052 H 0.59255 0.62208 0.32962 0.0
H2053 H 0.59866 0.56342 0.24113 0.0
H2054 H 0.64115 0.63412 0.30232 0.0
H2055 H 0.55975 0.54387 0.28991 0.0
H2056 H 0.61393 0.59033 0.26076 0.0
H2057 H 0.57929 0.59436 0.312 0.0
C2058 C 0.60043 0.6189 0.31989 0.0
C2059 C 0.61798 0.63041 0.31742 0.0
C2060 C 0.6021 0.58005 0.26716 0.0
C2061 C 0.60285 0.59877 0.29711 0.0
C2062 C 0.59341 0.56466 0.25604 0.0
C2063 C 0.57773 0.55137 0.26368 0.0
C2064 C 0.59492 0.58224 0.28584 0.0
C2065 C 0.57151 0.55386 0.28304 0.0
C2066 C 0.59287 0.60304 0.30994 0.0
C2067 C 0.62758 0.62557 0.3047 0.0
N2068 N 0.58 0.56903 0.29328 0.0
N2069 N 0.61986 0.61015 0.29483 0.0
H2070 H 0.357 0.00842 0.28952 0.0
H2071 H 0.43471 0.99076 0.28975 0.0
H2072 H 0.35947 0.97289 0.33202 0.0
H2073 H 0.42495 0.01591 0.2387 0.0
H2074 H 0.40887 0.98649 0.30766 0.0
H2075 H 0.38374 0.0139 0.27311 0.0
C2076 C 0.3632 0.00181 0.29546 0.0
C2077 C 0.35596 0.99013 0.31212 0.0
C2078 C 0.41243 0.99297 0.29256 0.0
C2079 C 0.38662 0.99638 0.2934 0.0
C2080 C 0.42714 0.99535 0.28225 0.0
C2081 C 0.43204 0.00367 0.2626 0.0
C2082 C 0.40257 -0.00096 0.28324 0.0
C2083 C 0.42187 0.00965 0.25393 0.0
C2084 C 0.37845 0.00492 0.28604 0.0
C2085 C 0.36458 0.98195 0.31916 0.0
N2086 N 0.40763 0.00721 0.2643 0.0
N2087 N 0.37947 0.98523 0.30976 0.0
H2088 H 0.59509 0.9424 0.29996 0.0
H2089 H 0.58073 0.01793 0.26356 0.0
H2090 H 0.63246 0.99554 0.30925 0.0
H2091 H 0.54752 0.96536 0.24581 0.0
H2092 H 0.59974 0.01006 0.28074 0.0
H2093 H 0.57722 0.9506 0.28066 0.0
C2094 C 0.59956 0.9558 0.29792 0.0
C2095 C 0.61529 0.9683 0.3063 0.0
C2096 C 0.58832 0.00026 0.27302 0.0
C2097 C 0.59485 0.97778 0.28424 0.0
C2098 C 0.57749 0.00476 0.26312 0.0
C2099 C 0.56244 0.99228 0.25331 0.0
C2100 C 0.58403 0.98315 0.2732 0.0
C2101 C 0.5588 0.97537 0.25351 0.0
C2102 C 0.58936 0.96047 0.28685 0.0
C2103 C 0.62043 0.98546 0.30307 0.0
N2104 N 0.56948 0.9713 0.26336 0.0
N2105 N 0.6102 0.98969 0.29238 0.0
H2106 H 0.03324 0.64324 0.32425 0.0
H2107 H 0.96714 0.55458 0.27015 0.0
H2108 H 0.98109 0.62889 0.31059 0.0
H2109 H 0.02191 0.57886 0.2623 0.0
H2110 H 0.97124 0.57942 0.29018 0.0
H2111 H 0.02832 0.61687 0.30744 0.0
C2112 C 0.0207 0.63445 0.31794 0.0
C2113 C 0.00758 0.63829 0.31868 0.0
C2114 C 0.98232 0.57922 0.28409 0.0
C2115 C 0.0019 0.60818 0.29948 0.0
C2116 C 0.98001 0.56511 0.27252 0.0
C2117 C 0.99419 0.56455 0.26444 0.0
C2118 C -0.00108 0.5928 0.28783 0.0
C2119 C 0.01058 0.57849 0.26849 0.0
C2120 C 0.01794 0.61948 0.30825 0.0
C2121 C 0.99159 0.62646 0.31021 0.0
N2122 N 0.01248 0.59201 0.27992 0.0
N2123 N 0.98919 0.61193 0.30093 0.0
H2124 H 0.36437 0.4007 0.30515 0.0
H2125 H 0.44749 0.39969 0.26477 0.0
H2126 H 0.37054 0.35714 0.31304 0.0
H2127 H 0.43507 0.43786 0.24771 0.0
H2128 H 0.41975 0.38378 0.2829 0.0
H2129 H 0.39095 0.41474 0.28507 0.0
C2130 C 0.37133 0.39408 0.3027 0.0
C2131 C 0.3652 0.37771 0.31086 0.0
C2132 C 0.42311 0.39561 0.2751 0.0
C2133 C 0.39578 0.39378 0.28773 0.0
C2134 C 0.43888 0.40464 0.26467 0.0
C2135 C 0.4437 0.42025 0.25497 0.0
C2136 C 0.41216 0.40228 0.27582 0.0
C2137 C 0.43208 0.42611 0.25541 0.0
C2138 C 0.38651 0.40209 0.29112 0.0
C2139 C 0.37478 0.36976 0.30704 0.0
N2140 N 0.41695 0.41719 0.26577 0.0
N2141 N 0.38965 0.3779 0.29581 0.0
H2142 H 0.31692 0.27559 0.35345 0.0
H2143 H 0.37153 0.26663 0.44552 0.0
H2144 H 0.354 0.31801 0.39081 0.0
H2145 H 0.34474 0.22773 0.39811 0.0
H2146 H 0.36464 0.28542 0.42618 0.0
H2147 H 0.32613 0.25745 0.37023 0.0
C2148 C 0.32705 0.28111 0.36509 0.0
C2149 C 0.33467 0.29833 0.37078 0.0
C2150 C 0.36035 0.27279 0.41996 0.0
C2151 C 0.34516 0.27766 0.39013 0.0
C2152 C 0.36437 0.26207 0.43094 0.0
C2153 C 0.35866 0.24549 0.42354 0.0
C2154 C 0.35042 0.26689 0.40151 0.0
C2155 C 0.34914 0.24026 0.40469 0.0
C2156 C 0.33232 0.27076 0.37464 0.0
C2157 C 0.34775 0.30481 0.38594 0.0
N2158 N 0.34523 0.25087 0.39442 0.0
N2159 N 0.35249 0.29445 0.39518 0.0
H2160 H 0.67451 0.02915 0.38376 0.0
H2161 H 0.76277 0.11758 0.37801 0.0
H2162 H 0.71669 0.03706 0.34375 0.0
H2163 H 0.72777 0.10284 0.43102 0.0
H2164 H 0.74388 0.09005 0.36136 0.0
H2165 H 0.69178 0.05822 0.39712 0.0
C2166 C 0.68736 0.03704 0.37765 0.0
C2167 C 0.69423 0.03064 0.36271 0.0
C2168 C 0.74033 0.09292 0.37658 0.0
C2169 C 0.714 0.06392 0.37792 0.0
C2170 C 0.75113 0.1086 0.38617 0.0
C2171 C 0.74699 0.11254 0.40611 0.0
C2172 C 0.72518 0.08112 0.38686 0.0
C2173 C 0.73147 0.10052 0.41559 0.0
C2174 C 0.69722 0.05361 0.38534 0.0
C2175 C 0.71095 0.04146 0.35535 0.0
N2176 N 0.72117 0.08534 0.40591 0.0
N2177 N 0.72029 0.05758 0.36306 0.0
H2178 H 0.96392 0.70623 0.36507 0.0
H2179 H 0.8871 0.62404 0.42048 0.0
H2180 H 0.96389 0.65918 0.37237 0.0
H2181 H 0.88889 0.67185 0.41267 0.0
H2182 H 0.91425 0.63568 0.40099 0.0
H2183 H 0.9356 0.69297 0.38094 0.0
C2184 C 0.95796 0.69309 0.37001 0.0
C2185 C 0.96637 0.68385 0.36747 0.0
C2186 C 0.90863 0.64357 0.40348 0.0
C2187 C 0.93377 0.6685 0.38574 0.0
C2188 C 0.89313 0.63691 0.41448 0.0
C2189 C 0.88588 0.64709 0.41838 0.0
C2190 C 0.91683 0.66046 0.39631 0.0
C2191 C 0.89421 0.66369 0.41037 0.0
C2192 C 0.94173 0.68549 0.37906 0.0
C2193 C 0.95791 0.66681 0.37409 0.0
N2194 N 0.90925 0.66986 0.39982 0.0
N2195 N 0.94207 0.65968 0.38301 0.0
H2196 H 0.34878 0.97829 0.7146 0.0
H2197 H 0.4467 0.01236 0.74275 0.0
H2198 H 0.3906 0.02635 0.69295 0.0
H2199 H 0.40541 0.96263 0.76032 0.0
H2200 H 0.42643 0.01731 0.72346 0.0
H2201 H 0.36936 0.97181 0.73022 0.0
C2202 C 0.3623 0.98744 0.71299 0.0
C2203 C 0.36798 0.00293 0.70253 0.0
C2204 C 0.42179 0.00527 0.73143 0.0
C2205 C 0.39162 0.99564 0.72052 0.0
C2206 C 0.43336 0.00248 0.74256 0.0
C2207 C 0.42773 0.9871 0.7533 0.0
C2208 C 0.40441 0.99265 0.73111 0.0
C2209 C 0.41033 0.97463 0.75216 0.0
C2210 C 0.37405 0.98373 0.72193 0.0
C2211 C 0.38565 0.01427 0.70091 0.0
N2212 N 0.39928 0.97772 0.7414 0.0
N2213 N 0.39683 0.01045 0.70993 0.0
H2214 H 0.95342 0.36009 0.68412 0.0
H2215 H 0.01303 0.42209 0.77516 0.0
H2216 H -0.00414 0.35681 0.70881 0.0
H2217 H 0.98266 0.43379 0.73395 0.0
H2218 H 0.00612 0.39727 0.75294 0.0
H2219 H 0.96276 0.38605 0.70458 0.0
C2220 C 0.96473 0.36484 0.69385 0.0
C2221 C 0.97386 0.35624 0.69478 0.0
C2222 C 0.00106 0.40535 0.74877 0.0
C2223 C 0.98459 0.38599 0.71838 0.0
C2224 C 0.00504 0.41955 0.76139 0.0
C2225 C -0.00176 0.42996 0.7566 0.0
C2226 C 0.99011 0.40148 0.73139 0.0
C2227 C 0.98784 0.42592 0.73863 0.0
C2228 C 0.9701 0.37972 0.70547 0.0
C2229 C 0.98848 0.36307 0.7076 0.0
N2230 N 0.984 0.41196 0.72681 0.0
N2231 N 0.99334 0.3775 0.71906 0.0
H2232 H 0.6219 0.59488 0.68688 0.0
H2233 H 0.5598 0.59696 0.77301 0.0
H2234 H 0.63269 0.64241 0.7156 0.0
H2235 H 0.54169 0.56132 0.72073 0.0
H2236 H 0.58739 0.61337 0.75479 0.0
H2237 H 0.59327 0.58119 0.70248 0.0
C2238 C 0.61825 0.60242 0.69652 0.0
C2239 C 0.62964 0.61978 0.69999 0.0
C2240 C 0.57726 0.60204 0.74729 0.0
C2241 C 0.59703 0.60421 0.71792 0.0
C2242 C 0.5615 0.59273 0.75759 0.0
C2243 C 0.5485 0.57757 0.74855 0.0
C2244 C 0.58003 0.59598 0.72805 0.0
C2245 C 0.55149 0.57264 0.7286 0.0
C2246 C 0.60189 0.59464 0.70527 0.0
C2247 C 0.62423 0.62899 0.7125 0.0
N2248 N 0.56702 0.58167 0.71917 0.0
N2249 N 0.60832 0.62104 0.72123 0.0
H2250 H 0.67973 0.72128 0.66681 0.0
H2251 H 0.62849 0.73329 0.57333 0.0
H2252 H 0.64648 0.68073 0.62429 0.0
H2253 H 0.64874 0.76786 0.62656 0.0
H2254 H 0.63586 0.71425 0.59111 0.0
H2255 H 0.66979 0.73928 0.65136 0.0
C2256 C 0.67033 0.71617 0.65428 0.0
C2257 C 0.66396 0.69953 0.64677 0.0
C2258 C 0.63859 0.72596 0.59895 0.0
C2259 C 0.65262 0.71998 0.62903 0.0
C2260 C 0.63428 0.7368 0.58887 0.0
C2261 C 0.63808 0.75227 0.59839 0.0
C2262 C 0.64692 0.73069 0.6186 0.0
C2263 C 0.64588 0.75624 0.6184 0.0
C2264 C 0.66462 0.7264 0.64553 0.0
C2265 C 0.65175 0.6935 0.63055 0.0
N2266 N 0.65017 0.74558 0.62777 0.0
N2267 N 0.64656 0.70376 0.62213 0.0
H2268 H 0.26424 0.97305 0.63413 0.0
H2269 H 0.26255 0.88717 0.60211 0.0
H2270 H 0.30575 0.96434 0.64753 0.0
H2271 H 0.22439 0.89926 0.58305 0.0
H2272 H 0.27886 0.91537 0.61851 0.0
H2273 H 0.24958 0.94593 0.61534 0.0
C2274 C 0.2703 0.96546 0.6331 0.0
C2275 C 0.28625 0.97099 0.6425 0.0
C2276 C 0.26694 0.91185 0.61068 0.0
C2277 C 0.26944 0.93979 0.62098 0.0
C2278 C 0.25767 0.89578 0.60122 0.0
C2279 C 0.24198 0.89075 0.59136 0.0
C2280 C 0.26047 0.92295 0.61028 0.0
C2281 C 0.23622 0.90242 0.59086 0.0
C2282 C 0.26192 0.94995 0.62232 0.0
C2283 C 0.29347 0.96059 0.64054 0.0
N2284 N 0.24541 0.9179 0.60025 0.0
N2285 N 0.28498 0.94545 0.63008 0.0
H2286 H 0.03151 0.30684 0.65366 0.0
H2287 H 0.11405 0.38107 0.59484 0.0
H2288 H 0.03648 0.35459 0.63516 0.0
H2289 H 0.10557 0.33062 0.60484 0.0
H2290 H 0.08747 0.37299 0.61401 0.0
H2291 H 0.06041 0.31677 0.64025 0.0
C2292 C 0.03874 0.31947 0.64697 0.0
C2293 C 0.03152 0.32985 0.64537 0.0
C2294 C 0.09148 0.36372 0.61211 0.0
C2295 C 0.06457 0.34127 0.62993 0.0
C2296 C 0.10669 0.36836 0.60128 0.0
C2297 C 0.11195 0.35645 0.59807 0.0
C2298 C 0.08148 0.34708 0.6199 0.0
C2299 C 0.10184 0.34011 0.60663 0.0
C2300 C 0.05522 0.32512 0.63926 0.0
C2301 C 0.04149 0.34612 0.63658 0.0
N2302 N 0.08708 0.3359 0.61707 0.0
N2303 N 0.05746 0.35129 0.62909 0.0
H2304 H 0.25681 0.28656 0.63619 0.0
H2305 H 0.26053 0.3703 0.59141 0.0
H2306 H 0.30117 0.33689 0.64176 0.0
H2307 H 0.21552 0.32022 0.58983 0.0
H2308 H 0.27588 0.35842 0.60946 0.0
H2309 H 0.24181 0.29872 0.61825 0.0
C2310 C 0.26343 0.30017 0.6336 0.0
C2311 C 0.28028 0.31071 0.64053 0.0
C2312 C 0.26264 0.35005 0.60516 0.0
C2313 C 0.26313 0.32475 0.62002 0.0
C2314 C 0.25385 0.35684 0.59497 0.0
C2315 C 0.23674 0.34623 0.589 0.0
C2316 C 0.25425 0.33253 0.60942 0.0
C2317 C 0.22878 0.32884 0.5938 0.0
C2318 C 0.25484 0.30712 0.62338 0.0
C2319 C 0.28818 0.32826 0.63671 0.0
N2320 N 0.2376 0.32255 0.60369 0.0
N2321 N 0.27953 0.33473 0.62673 0.0
H2322 H 0.6923 0.96956 0.65335 0.0
H2323 H 0.61674 0.88257 0.60524 0.0
H2324 H 0.64169 0.96097 0.64195 0.0
H2325 H 0.6703 0.89885 0.59881 0.0
H2326 H 0.62471 0.90932 0.62353 0.0
H2327 H 0.68328 0.94129 0.63894 0.0
C2328 C 0.67924 0.96166 0.64803 0.0
C2329 C 0.66776 0.96766 0.64869 0.0
C2330 C 0.63467 0.90695 0.61816 0.0
C2331 C 0.65739 0.93537 0.63216 0.0
C2332 C 0.63015 0.89173 0.6076 0.0
C2333 C 0.64285 0.88838 0.60044 0.0
C2334 C 0.65199 0.91883 0.62174 0.0
C2335 C 0.66002 0.90066 0.60434 0.0
C2336 C 0.67413 0.94557 0.63971 0.0
C2337 C 0.65099 0.95688 0.64158 0.0
N2338 N 0.66407 0.9153 0.61472 0.0
N2339 N 0.64631 0.94126 0.63355 0.0
H2340 H 0.03912 0.73174 0.66379 0.0
H2341 H 0.10173 0.73157 0.57679 0.0
H2342 H 0.02842 0.68485 0.63332 0.0
H2343 H 0.11924 0.76686 0.62944 0.0
H2344 H 0.07421 0.7146 0.59497 0.0
H2345 H 0.06783 0.74575 0.64853 0.0
C2346 C 0.04282 0.72439 0.65387 0.0
C2347 C 0.03137 0.70713 0.64976 0.0
C2348 C 0.08419 0.72598 0.60256 0.0
C2349 C 0.06418 0.72313 0.63212 0.0
C2350 C 0.09993 0.73564 0.59228 0.0
C2351 C 0.11278 0.75086 0.60142 0.0
C2352 C 0.08124 0.73172 0.62194 0.0
C2353 C 0.10959 0.75552 0.62145 0.0
C2354 C 0.05924 0.73237 0.64528 0.0
C2355 C 0.0369 0.69819 0.6369 0.0
N2356 N 0.09409 0.74614 0.63087 0.0
N2357 N 0.05289 0.70635 0.6283 0.0
H2358 H 0.01486 0.63938 0.70569 0.0
H2359 H 0.97192 0.54866 0.75997 0.0
H2360 H 0.96176 0.60143 0.69676 0.0
H2361 H 0.02626 0.57884 0.74812 0.0
H2362 H 0.9678 0.56852 0.73878 0.0
H2363 H 0.01927 0.61809 0.72315 0.0
C2364 C 0.00416 0.62653 0.70726 0.0
C2365 C 0.9879 0.62216 0.69981 0.0
C2366 C 0.9806 0.57072 0.74074 0.0
C2367 C 0.99281 0.59783 0.72004 0.0
C2368 C 0.98299 0.55934 0.75279 0.0
C2369 C -0.00051 0.56201 0.75593 0.0
C2370 C -0.00519 0.58504 0.73196 0.0
C2371 C 0.01333 0.57637 0.74654 0.0
C2372 C 0.00669 0.61438 0.71719 0.0
C2373 C 0.9745 0.60531 0.70223 0.0
N2374 N 0.01069 0.58738 0.7351 0.0
N2375 N 0.9772 0.59379 0.71236 0.0
H2376 H 0.34014 0.36948 0.70644 0.0
H2377 H 0.43297 0.43322 0.75147 0.0
H2378 H 0.38348 0.36285 0.69624 0.0
H2379 H 0.3945 0.4474 0.74496 0.0
H2380 H 0.41435 0.40663 0.73304 0.0
H2381 H 0.35921 0.39741 0.7222 0.0
C2382 C 0.35368 0.37395 0.70739 0.0
C2383 C 0.36024 0.36381 0.70008 0.0
C2384 C 0.41001 0.4156 0.73554 0.0
C2385 C 0.38204 0.39562 0.71828 0.0
C2386 C 0.42068 0.43086 0.746 0.0
C2387 C 0.4154 0.44271 0.74968 0.0
C2388 C 0.3938 0.41197 0.7289 0.0
C2389 C 0.39908 0.43861 0.7427 0.0
C2390 C 0.36454 0.38989 0.71637 0.0
C2391 C 0.37788 0.37024 0.70167 0.0
N2392 N 0.38883 0.42356 0.7327 0.0
N2393 N 0.38814 0.38567 0.71076 0.0
H2394 H 0.63891 0.04682 0.69718 0.0
H2395 H 0.55987 0.96849 0.75561 0.0
H2396 H 0.6336 -0.00285 0.70196 0.0
H2397 H 0.56745 0.01908 0.75201 0.0
H2398 H 0.58601 0.97804 0.73459 0.0
H2399 H 0.61203 0.03624 0.71617 0.0
C2400 C 0.6321 0.03367 0.70222 0.0
C2401 C 0.63858 0.02288 0.698 0.0
C2402 C 0.58192 0.98702 0.7384 0.0
C2403 C 0.60764 0.01063 0.71984 0.0
C2404 C 0.56698 0.98156 0.75029 0.0
C2405 C 0.5616 0.99306 0.75572 0.0
C2406 C 0.59143 0.00406 0.73185 0.0
C2407 C 0.57131 0.00987 0.74852 0.0
C2408 C 0.6167 0.02762 0.71308 0.0
C2409 C 0.62911 0.00593 0.70491 0.0
N2410 N 0.58574 0.01485 0.73702 0.0
N2411 N 0.61411 0.00033 0.71553 0.0
loop_
_geom_bond_atom_site_label_1
_geom_bond_atom_site_label_2
_geom_bond_distance
_geom_bond_site_symmetry_2
_ccdc_geom_bond_type
C0 O1 1.306 1_556 S
C0 O3 1.160 . S
O1 C0 1.306 1_554 S
O1 Cd2 2.228 . S
Cd2 O1 2.228 . S
Cd2 O6 2.273 . S
Cd2 O10 2.277 1_554 S
O3 C0 1.160 . S
O3 Cd4 2.203 1_656 S
Cd4 O3 2.203 1_454 S
Cd4 O6 2.411 1_455 S
Cd4 O7 2.333 . S
Cd4 O8 2.352 . S
Cd4 O12 2.277 1_554 S
Cd4 O13 2.356 . S
C5 O10 1.209 1_455 S
C5 O12 1.226 . S
O6 Cd2 2.273 . S
O6 Cd4 2.411 1_655 S
O6 C9 1.299 1_655 S
O7 Cd4 2.333 . S
O7 C9 1.268 . S
O8 Cd4 2.352 . S
O8 C11 1.258 . S
C9 O6 1.299 1_455 S
C9 O7 1.268 . S
O10 Cd2 2.277 1_556 S
O10 C5 1.209 1_655 S
C11 O8 1.258 . S
C11 O13 1.282 . S
O12 Cd4 2.277 1_556 S
O12 C5 1.226 . S
O13 Cd4 2.356 . S
O13 C11 1.282 . S
C14 O15 1.306 . S
C14 O17 1.160 . S
O15 C14 1.306 . S
O15 Cd16 2.228 . S
Cd16 O15 2.228 . S
Cd16 O20 2.273 1_554 S
Cd16 O24 2.277 . S
O17 C14 1.160 . S
O17 Cd18 2.203 . S
Cd18 O17 2.203 . S
Cd18 O20 2.411 1_554 S
Cd18 O21 2.333 1_554 S
Cd18 O22 2.352 1_554 S
Cd18 O26 2.277 . S
Cd18 O27 2.356 . S
C19 O24 1.209 . S
C19 O26 1.226 . S
O20 Cd16 2.273 1_556 S
O20 Cd18 2.411 1_556 S
O20 C23 1.320 . S
O21 Cd18 2.333 1_556 S
O21 C23 1.214 . S
O22 Cd18 2.352 1_556 S
O22 C25 1.258 . S
C23 O20 1.320 . S
C23 O21 1.214 . S
O24 Cd16 2.277 . S
O24 C19 1.209 . S
C25 O22 1.258 . S
C25 O27 1.282 1_556 S
O26 Cd18 2.277 . S
O26 C19 1.226 . S
O27 Cd18 2.356 . S
O27 C25 1.282 1_554 S
C28 O29 1.306 . S
C28 O31 1.160 . S
O29 C28 1.306 . S
O29 Cd30 2.228 . S
Cd30 O29 2.228 . S
Cd30 O34 2.273 1_554 S
Cd30 O38 2.277 . S
O31 C28 1.160 . S
O31 Cd32 2.203 1_565 S
Cd32 O31 2.203 1_545 S
Cd32 O34 2.411 1_544 S
Cd32 O35 2.333 1_554 S
Cd32 O36 2.352 1_554 S
Cd32 O40 2.277 . S
Cd32 O41 2.356 . S
C33 O38 1.209 1_545 S
C33 O40 1.226 . S
O34 Cd30 2.273 1_556 S
O34 Cd32 2.411 1_566 S
O34 C37 1.320 1_565 S
O35 Cd32 2.333 1_556 S
O35 C37 1.214 . S
O36 Cd32 2.352 1_556 S
O36 C39 1.258 . S
C37 O34 1.320 1_545 S
C37 O35 1.214 . S
O38 Cd30 2.277 . S
O38 C33 1.209 1_565 S
C39 O36 1.258 . S
C39 O41 1.282 1_556 S
O40 Cd32 2.277 . S
O40 C33 1.226 . S
O41 Cd32 2.356 . S
O41 C39 1.282 1_554 S
C42 O43 1.285 1_556 S
C42 O45 1.160 . S
O43 C42 1.285 1_554 S
O43 Cd44 2.241 . S
Cd44 O43 2.241 . S
Cd44 O48 2.273 . S
Cd44 O52 2.277 1_554 S
O45 C42 1.160 . S
O45 Cd46 2.203 1_656 S
Cd46 O45 2.203 1_454 S
Cd46 O48 2.411 1_455 S
Cd46 O49 2.333 . S
Cd46 O50 2.352 . S
Cd46 O54 2.277 1_554 S
Cd46 O55 2.356 . S
C47 O52 1.209 1_455 S
C47 O54 1.226 . S
O48 Cd44 2.273 . S
O48 Cd46 2.411 1_655 S
O48 C51 1.371 . S
O49 Cd46 2.333 . S
O49 C51 1.173 1_455 S
O50 Cd46 2.352 . S
O50 C53 1.258 . S
C51 O48 1.371 . S
C51 O49 1.173 1_655 S
O52 Cd44 2.277 1_556 S
O52 C47 1.209 1_655 S
C53 O50 1.258 . S
C53 O55 1.282 . S
O54 Cd46 2.277 1_556 S
O54 C47 1.226 . S
O55 Cd46 2.356 . S
O55 C53 1.282 . S
C56 O57 1.306 . S
C56 O59 1.160 . S
O57 C56 1.306 . S
O57 Cd58 2.228 . S
Cd58 O57 2.228 . S
Cd58 O62 2.273 1_554 S
Cd58 O66 2.277 . S
O59 C56 1.160 . S
O59 Cd60 2.203 . S
Cd60 O59 2.203 . S
Cd60 O62 2.411 1_554 S
Cd60 O63 2.333 1_554 S
Cd60 O64 2.352 1_554 S
Cd60 O68 2.277 . S
Cd60 O69 2.356 . S
C61 O66 1.209 . S
C61 O68 1.226 . S
O62 Cd58 2.273 1_556 S
O62 Cd60 2.411 1_556 S
O62 C65 1.320 . S
O63 Cd60 2.333 1_556 S
O63 C65 1.214 . S
O64 Cd60 2.352 1_556 S
O64 C67 1.258 . S
C65 O62 1.320 . S
C65 O63 1.214 . S
O66 Cd58 2.277 . S
O66 C61 1.209 . S
C67 O64 1.258 . S
C67 O69 1.282 1_556 S
O68 Cd60 2.277 . S
O68 C61 1.226 . S
O69 Cd60 2.356 . S
O69 C67 1.282 1_554 S
C70 O71 1.306 1_556 S
C70 O73 1.160 . S
O71 C70 1.306 1_554 S
O71 Cd72 2.228 . S
Cd72 O71 2.228 . S
Cd72 O76 2.273 . S
Cd72 O80 2.277 1_554 S
O73 C70 1.160 . S
O73 Cd74 2.203 1_546 S
Cd74 O73 2.203 1_564 S
Cd74 O76 2.411 1_565 S
Cd74 O77 2.333 . S
Cd74 O78 2.352 . S
Cd74 O82 2.277 1_554 S
Cd74 O83 2.356 . S
C75 O80 1.209 1_565 S
C75 O82 1.226 . S
O76 Cd72 2.273 . S
O76 Cd74 2.411 1_545 S
O76 C79 1.320 . S
O77 Cd74 2.333 . S
O77 C79 1.214 1_565 S
O78 Cd74 2.352 . S
O78 C81 1.258 . S
C79 O76 1.320 . S
C79 O77 1.214 1_545 S
O80 Cd72 2.277 1_556 S
O80 C75 1.209 1_545 S
C81 O78 1.258 . S
C81 O83 1.282 . S
O82 Cd74 2.277 1_556 S
O82 C75 1.226 . S
O83 Cd74 2.356 . S
O83 C81 1.282 . S
C84 O85 1.306 . S
C84 O87 1.160 . S
O85 C84 1.306 . S
O85 Cd86 2.228 . S
Cd86 O85 2.228 . S
Cd86 O90 2.273 . S
Cd86 O94 2.277 . S
O87 C84 1.160 . S
O87 Cd88 2.203 . S
Cd88 O87 2.203 . S
Cd88 O90 2.411 . S
Cd88 O91 2.333 . S
Cd88 O92 2.352 . S
Cd88 O96 2.277 . S
Cd88 O97 2.356 . S
C89 O94 1.209 . S
C89 O96 1.226 . S
O90 Cd86 2.273 . S
O90 Cd88 2.411 . S
O90 C93 1.320 . S
O91 Cd88 2.333 . S
O91 C93 1.214 . S
O92 Cd88 2.352 . S
O92 C95 1.258 . S
C93 O90 1.320 . S
C93 O91 1.214 . S
O94 Cd86 2.277 . S
O94 C89 1.209 . S
C95 O92 1.258 . S
C95 O97 1.282 . S
O96 Cd88 2.277 . S
O96 C89 1.226 . S
O97 Cd88 2.356 . S
O97 C95 1.282 . S
C98 O99 1.306 . S
C98 O101 1.160 . S
O99 C98 1.306 . S
O99 Cd100 2.228 1_545 S
Cd100 O99 2.228 1_565 S
Cd100 O104 2.273 . S
Cd100 O108 2.277 . S
O101 C98 1.160 . S
O101 Cd102 2.203 1_545 S
Cd102 O101 2.203 1_565 S
Cd102 O104 2.411 . S
Cd102 O105 2.333 . S
Cd102 O106 2.370 . S
Cd102 O110 2.277 . S
Cd102 O111 2.356 . S
C103 O108 1.209 . S
C103 O110 1.226 . S
O104 Cd100 2.273 . S
O104 Cd102 2.411 . S
O104 C107 1.320 . S
O105 Cd102 2.333 . S
O105 C107 1.214 . S
O106 Cd102 2.370 . S
O106 C109 1.328 . S
C107 O104 1.320 . S
C107 O105 1.214 . S
O108 Cd100 2.277 . S
O108 C103 1.209 . S
C109 O106 1.328 . S
C109 O111 1.282 . S
O110 Cd102 2.277 . S
O110 C103 1.226 . S
O111 Cd102 2.356 . S
O111 C109 1.282 . S
C112 O113 1.306 . S
C112 O115 1.160 1_655 S
O113 C112 1.306 . S
O113 Cd114 2.228 1_655 S
Cd114 O113 2.228 1_455 S
Cd114 O118 2.273 . S
Cd114 O122 2.277 . S
O115 C112 1.160 1_455 S
O115 Cd116 2.236 . S
Cd116 O115 2.236 . S
Cd116 O118 2.411 . S
Cd116 O119 2.333 . S
Cd116 O120 2.352 . S
Cd116 O124 2.277 . S
Cd116 O125 2.356 . S
C117 O122 1.209 . S
C117 O124 1.226 . S
O118 Cd114 2.273 . S
O118 Cd116 2.411 . S
O118 C121 1.320 . S
O119 Cd116 2.333 . S
O119 C121 1.214 . S
O120 Cd116 2.352 . S
O120 C123 1.258 . S
C121 O118 1.320 . S
C121 O119 1.214 . S
O122 Cd114 2.277 . S
O122 C117 1.209 . S
C123 O120 1.258 . S
C123 O125 1.282 . S
O124 Cd116 2.277 . S
O124 C117 1.226 . S
O125 Cd116 2.356 . S
O125 C123 1.282 . S
C126 O127 1.306 . S
C126 O129 1.160 . S
O127 C126 1.306 . S
O127 Cd128 2.228 . S
Cd128 O127 2.228 . S
Cd128 O132 2.273 . S
Cd128 O136 2.277 . S
O129 C126 1.160 . S
O129 Cd130 2.203 . S
Cd130 O129 2.203 . S
Cd130 O132 2.411 . S
Cd130 O133 2.333 . S
Cd130 O134 2.352 1_565 S
Cd130 O138 2.277 . S
Cd130 O139 2.356 1_565 S
C131 O136 1.209 . S
C131 O138 1.226 . S
O132 Cd128 2.273 . S
O132 Cd130 2.411 . S
O132 C135 1.320 . S
O133 Cd130 2.333 . S
O133 C135 1.214 . S
O134 Cd130 2.352 1_545 S
O134 C137 1.258 . S
C135 O132 1.320 . S
C135 O133 1.214 . S
O136 Cd128 2.277 . S
O136 C131 1.209 . S
C137 O134 1.258 . S
C137 O139 1.282 . S
O138 Cd130 2.277 . S
O138 C131 1.226 . S
O139 Cd130 2.356 1_545 S
O139 C137 1.282 . S
C140 O141 1.306 . S
C140 O143 1.160 . S
O141 C140 1.306 . S
O141 Cd142 2.228 1_655 S
Cd142 O141 2.228 1_455 S
Cd142 O146 2.273 . S
Cd142 O150 2.277 . S
O143 C140 1.160 . S
O143 Cd144 2.203 1_655 S
Cd144 O143 2.203 1_455 S
Cd144 O146 2.411 . S
Cd144 O147 2.333 . S
Cd144 O148 2.352 . S
Cd144 O152 2.277 . S
Cd144 O153 2.356 . S
C145 O150 1.209 . S
C145 O152 1.226 . S
O146 Cd142 2.273 . S
O146 Cd144 2.411 . S
O146 C149 1.320 . S
O147 Cd144 2.333 . S
O147 C149 1.214 . S
O148 Cd144 2.352 . S
O148 C151 1.258 . S
C149 O146 1.320 . S
C149 O147 1.214 . S
O150 Cd142 2.277 . S
O150 C145 1.209 . S
C151 O148 1.258 . S
C151 O153 1.282 . S
O152 Cd144 2.277 . S
O152 C145 1.226 . S
O153 Cd144 2.356 . S
O153 C151 1.282 . S
C154 O155 1.306 . S
C154 O157 1.160 . S
O155 C154 1.306 . S
O155 Cd156 2.228 . S
Cd156 O155 2.228 . S
Cd156 O160 2.273 . S
Cd156 O164 2.277 . S
O157 C154 1.160 . S
O157 Cd158 2.203 . S
Cd158 O157 2.203 . S
Cd158 O160 2.411 . S
Cd158 O161 2.333 . S
Cd158 O162 2.352 . S
Cd158 O166 2.277 . S
Cd158 O167 2.356 . S
C159 O164 1.209 . S
C159 O166 1.226 . S
O160 Cd156 2.273 . S
O160 Cd158 2.411 . S
O160 C163 1.320 . S
O161 Cd158 2.333 . S
O161 C163 1.214 . S
O162 Cd158 2.352 . S
O162 C165 1.258 . S
C163 O160 1.320 . S
C163 O161 1.214 . S
O164 Cd156 2.277 . S
O164 C159 1.209 . S
C165 O162 1.258 . S
C165 O167 1.282 . S
O166 Cd158 2.277 . S
O166 C159 1.226 . S
O167 Cd158 2.356 . S
O167 C165 1.282 . S
C168 O169 1.306 . S
C168 O171 1.160 . S
O169 C168 1.306 . S
O169 Cd170 2.228 1_565 S
Cd170 O169 2.228 1_545 S
Cd170 O174 2.273 . S
Cd170 O178 2.277 . S
O171 C168 1.160 . S
O171 Cd172 2.203 1_565 S
Cd172 O171 2.203 1_545 S
Cd172 O174 2.411 . S
Cd172 O175 2.333 . S
Cd172 O176 2.352 . S
Cd172 O180 2.277 . S
Cd172 O181 2.356 . S
C173 O178 1.209 . S
C173 O180 1.226 . S
O174 Cd170 2.273 . S
O174 Cd172 2.411 . S
O174 C177 1.320 . S
O175 Cd172 2.333 . S
O175 C177 1.214 . S
O176 Cd172 2.352 . S
O176 C179 1.258 . S
C177 O174 1.320 . S
C177 O175 1.214 . S
O178 Cd170 2.277 . S
O178 C173 1.209 . S
C179 O176 1.258 . S
C179 O181 1.282 . S
O180 Cd172 2.277 . S
O180 C173 1.226 . S
O181 Cd172 2.356 . S
O181 C179 1.282 . S
C182 O183 1.306 . S
C182 O185 1.160 . S
O183 C182 1.306 . S
O183 Cd184 2.228 . S
Cd184 O183 2.228 . S
Cd184 O188 2.273 . S
Cd184 O192 2.277 . S
O185 C182 1.160 . S
O185 Cd186 2.203 . S
Cd186 O185 2.203 . S
Cd186 O188 2.411 . S
Cd186 O189 2.333 . S
Cd186 O190 2.352 1_655 S
Cd186 O194 2.277 . S
Cd186 O195 2.356 1_655 S
C187 O192 1.209 . S
C187 O194 1.226 . S
O188 Cd184 2.273 . S
O188 Cd186 2.411 . S
O188 C191 1.320 . S
O189 Cd186 2.333 . S
O189 C191 1.214 . S
O190 Cd186 2.352 1_455 S
O190 C193 1.258 . S
C191 O188 1.320 . S
C191 O189 1.214 . S
O192 Cd184 2.277 . S
O192 C187 1.209 . S
C193 O190 1.258 . S
C193 O195 1.282 . S
O194 Cd186 2.277 . S
O194 C187 1.226 . S
O195 Cd186 2.356 1_455 S
O195 C193 1.282 . S
C196 O197 1.306 . S
C196 O199 1.160 . S
O197 C196 1.306 . S
O197 Cd198 2.228 . S
Cd198 O197 2.228 . S
Cd198 O202 2.273 . S
Cd198 O206 2.277 . S
O199 C196 1.160 . S
O199 Cd200 2.203 . S
Cd200 O199 2.203 . S
Cd200 O202 2.411 . S
Cd200 O203 2.333 . S
Cd200 O204 2.352 . S
Cd200 O208 2.277 . S
Cd200 O209 2.356 . S
C201 O206 1.209 . S
C201 O208 1.226 . S
O202 Cd198 2.273 . S
O202 Cd200 2.411 . S
O202 C205 1.320 . S
O203 Cd200 2.333 . S
O203 C205 1.214 . S
O204 Cd200 2.352 . S
O204 C207 1.258 . S
C205 O202 1.320 . S
C205 O203 1.214 . S
O206 Cd198 2.277 . S
O206 C201 1.209 . S
C207 O204 1.258 . S
C207 O209 1.282 . S
O208 Cd200 2.277 . S
O208 C201 1.226 . S
O209 Cd200 2.356 . S
O209 C207 1.282 . S
C210 O211 1.306 . S
C210 O213 1.160 . S
O211 C210 1.306 . S
O211 Cd212 2.228 . S
Cd212 O211 2.228 . S
Cd212 O216 2.273 . S
Cd212 O220 2.277 . S
O213 C210 1.160 . S
O213 Cd214 2.203 . S
Cd214 O213 2.203 . S
Cd214 O216 2.411 . S
Cd214 O217 2.333 . S
Cd214 O218 2.352 . S
Cd214 O222 2.277 . S
Cd214 O223 2.356 . S
C215 O220 1.209 . S
C215 O222 1.226 . S
O216 Cd212 2.273 . S
O216 Cd214 2.411 . S
O216 C219 1.320 . S
O217 Cd214 2.333 . S
O217 C219 1.214 . S
O218 Cd214 2.352 . S
O218 C221 1.258 . S
C219 O216 1.320 . S
C219 O217 1.214 . S
O220 Cd212 2.277 . S
O220 C215 1.209 . S
C221 O218 1.258 . S
C221 O223 1.282 . S
O222 Cd214 2.277 . S
O222 C215 1.226 . S
O223 Cd214 2.356 . S
O223 C221 1.282 . S
C224 O225 1.306 . S
C224 O227 1.160 . S
O225 C224 1.306 . S
O225 Cd226 2.228 . S
Cd226 O225 2.228 . S
Cd226 O230 2.273 . S
Cd226 O234 2.277 . S
O227 C224 1.160 . S
O227 Cd228 2.203 . S
Cd228 O227 2.203 . S
Cd228 O230 2.411 . S
Cd228 O231 2.333 . S
Cd228 O232 2.352 1_545 S
Cd228 O236 2.277 . S
Cd228 O237 2.356 1_545 S
C229 O234 1.209 . S
C229 O236 1.226 . S
O230 Cd226 2.273 . S
O230 Cd228 2.411 . S
O230 C233 1.320 . S
O231 Cd228 2.333 . S
O231 C233 1.214 . S
O232 Cd228 2.352 1_565 S
O232 C235 1.258 . S
C233 O230 1.320 . S
C233 O231 1.214 . S
O234 Cd226 2.277 . S
O234 C229 1.209 . S
C235 O232 1.258 . S
C235 O237 1.282 . S
O236 Cd228 2.277 . S
O236 C229 1.226 . S
O237 Cd228 2.356 1_565 S
O237 C235 1.282 . S
C238 O239 1.306 . S
C238 O241 1.160 . S
O239 C238 1.306 . S
O239 Cd240 2.228 1_455 S
Cd240 O239 2.228 1_655 S
Cd240 O244 2.273 . S
Cd240 O248 2.277 . S
O241 C238 1.160 . S
O241 Cd242 2.203 1_455 S
Cd242 O241 2.203 1_655 S
Cd242 O244 2.411 . S
Cd242 O245 2.333 . S
Cd242 O246 2.352 . S
Cd242 O250 2.277 . S
Cd242 O251 2.356 . S
C243 O248 1.209 . S
C243 O250 1.226 . S
O244 Cd240 2.273 . S
O244 Cd242 2.411 . S
O244 C247 1.320 . S
O245 Cd242 2.333 . S
O245 C247 1.214 . S
O246 Cd242 2.352 . S
O246 C249 1.258 . S
C247 O244 1.320 . S
C247 O245 1.214 . S
O248 Cd240 2.277 . S
O248 C243 1.209 . S
C249 O246 1.258 . S
C249 O251 1.282 . S
O250 Cd242 2.277 . S
O250 C243 1.226 . S
O251 Cd242 2.356 . S
O251 C249 1.282 . S
H252 C271 0.949 . S
H253 C272 0.950 . S
H254 C274 0.950 . S
H255 C275 0.950 . S
H256 C277 0.950 . S
H257 C280 0.950 . S
H258 C281 0.950 . S
H259 C283 0.951 . S
H260 C284 0.949 . S
H261 C286 0.949 . S
H262 C287 0.950 . S
H263 C289 0.950 . S
H264 C290 0.950 . S
H265 C292 0.950 . S
H266 C295 0.950 . S
H267 C296 0.950 . S
H268 C298 0.951 . S
H269 C299 0.949 . S
C270 C271 1.376 . S
C270 C275 1.386 . S
C270 C276 1.483 . S
C271 H252 0.949 . S
C271 C270 1.376 . S
C271 C272 1.397 . S
C272 H253 0.950 . S
C272 C271 1.397 . S
C272 C273 1.391 . S
C273 C272 1.391 . S
C273 C274 1.405 . S
C274 H254 0.950 . S
C274 C273 1.405 . S
C274 C275 1.367 . S
C275 H255 0.950 . S
C275 C270 1.386 . S
C275 C274 1.367 . S
C276 C270 1.483 . S
C276 C277 1.382 . S
C276 C278 1.403 . S
C277 H256 0.950 . S
C277 C276 1.382 . S
C277 C293 1.411 . S
C278 C276 1.403 . S
C278 C279 1.489 . S
C278 C292 1.411 . S
C279 C278 1.489 . S
C279 C280 1.383 . S
C279 C284 1.382 . S
C280 H257 0.950 . S
C280 C279 1.383 . S
C280 C281 1.395 . S
C281 H258 0.950 . S
C281 C280 1.395 . S
C281 C282 1.288 . S
C282 C281 1.288 . S
C282 C283 1.392 . S
C283 H259 0.951 . S
C283 C282 1.392 . S
C283 C284 1.392 . S
C284 H260 0.949 . S
C284 C279 1.382 . S
C284 C283 1.392 . S
C285 C286 1.376 . S
C285 C290 1.386 . S
C285 C291 1.483 . S
C286 H261 0.949 . S
C286 C285 1.376 . S
C286 C287 1.397 . S
C287 H262 0.950 . S
C287 C286 1.397 . S
C287 C288 1.391 . S
C288 C287 1.391 . S
C288 C289 1.405 . S
C289 H263 0.950 . S
C289 C288 1.405 . S
C289 C290 1.367 . S
C290 H264 0.950 . S
C290 C285 1.386 . S
C290 C289 1.367 . S
C291 C285 1.483 . S
C291 C292 1.382 . S
C291 C293 1.403 . S
C292 H265 0.950 . S
C292 C278 1.411 . S
C292 C291 1.382 . S
C293 C277 1.411 . S
C293 C291 1.403 . S
C293 C294 1.489 . S
C294 C293 1.489 . S
C294 C295 1.383 . S
C294 C299 1.382 . S
C295 H266 0.950 . S
C295 C294 1.383 . S
C295 C296 1.395 . S
C296 H267 0.950 . S
C296 C295 1.395 . S
C296 C297 1.288 . S
C297 C296 1.288 . S
C297 C298 1.392 . S
C298 H268 0.951 . S
C298 C297 1.392 . S
C298 C299 1.392 . S
C299 H269 0.949 . S
C299 C294 1.382 . S
C299 C298 1.392 . S
H300 C319 0.949 . S
H301 C320 0.950 . S
H302 C322 0.950 . S
H303 C323 0.950 . S
H304 C325 0.950 . S
H305 C328 0.950 . S
H306 C329 0.950 . S
H307 C331 0.951 . S
H308 C332 0.949 . S
H309 C334 0.949 . S
H310 C335 0.950 . S
H311 C337 0.950 . S
H312 C338 0.950 . S
H313 C340 0.950 . S
H314 C343 0.950 . S
H315 C344 0.950 . S
H316 C346 0.951 . S
H317 C347 0.949 . S
C318 C319 1.376 . S
C318 C323 1.386 . S
C318 C324 1.483 . S
C319 H300 0.949 . S
C319 C318 1.376 . S
C319 C320 1.397 . S
C320 H301 0.950 . S
C320 C319 1.397 . S
C320 C321 1.391 . S
C321 C320 1.391 . S
C321 C322 1.405 . S
C322 H302 0.950 . S
C322 C321 1.405 . S
C322 C323 1.367 . S
C323 H303 0.950 . S
C323 C318 1.386 . S
C323 C322 1.367 . S
C324 C318 1.483 . S
C324 C325 1.382 . S
C324 C326 1.403 . S
C325 H304 0.950 . S
C325 C324 1.382 . S
C325 C341 1.411 . S
C326 C324 1.403 . S
C326 C327 1.489 . S
C326 C340 1.411 . S
C327 C326 1.489 . S
C327 C328 1.383 . S
C327 C332 1.382 . S
C328 H305 0.950 . S
C328 C327 1.383 . S
C328 C329 1.395 . S
C329 H306 0.950 . S
C329 C328 1.395 . S
C329 C330 1.288 . S
C330 C329 1.288 . S
C330 C331 1.392 . S
C331 H307 0.951 . S
C331 C330 1.392 . S
C331 C332 1.392 . S
C332 H308 0.949 . S
C332 C327 1.382 . S
C332 C331 1.392 . S
C333 C334 1.376 . S
C333 C338 1.386 . S
C333 C339 1.483 . S
C334 H309 0.949 . S
C334 C333 1.376 . S
C334 C335 1.397 . S
C335 H310 0.950 . S
C335 C334 1.397 . S
C335 C336 1.391 . S
C336 C335 1.391 . S
C336 C337 1.405 . S
C337 H311 0.950 . S
C337 C336 1.405 . S
C337 C338 1.367 . S
C338 H312 0.950 . S
C338 C333 1.386 . S
C338 C337 1.367 . S
C339 C333 1.483 . S
C339 C340 1.382 . S
C339 C341 1.403 . S
C340 H313 0.950 . S
C340 C326 1.411 . S
C340 C339 1.382 . S
C341 C325 1.411 . S
C341 C339 1.403 . S
C341 C342 1.489 . S
C342 C341 1.489 . S
C342 C343 1.383 . S
C342 C347 1.382 . S
C343 H314 0.950 . S
C343 C342 1.383 . S
C343 C344 1.395 . S
C344 H315 0.950 . S
C344 C343 1.395 . S
C344 C345 1.288 . S
C345 C344 1.288 . S
C345 C346 1.392 . S
C346 H316 0.951 . S
C346 C345 1.392 . S
C346 C347 1.392 . S
C347 H317 0.949 . S
C347 C342 1.382 . S
C347 C346 1.392 . S
H348 C367 0.949 . S
H349 C368 0.950 . S
H350 C370 0.950 . S
H351 C371 0.950 . S
H352 C373 0.950 . S
H353 C376 0.950 . S
H354 C377 0.950 . S
H355 C379 0.951 . S
H356 C380 0.949 . S
H357 C382 0.949 . S
H358 C383 0.950 . S
H359 C385 0.950 . S
H360 C386 0.950 . S
H361 C388 0.950 . S
H362 C391 0.950 . S
H363 C392 0.950 . S
H364 C394 0.951 . S
H365 C395 0.949 . S
C366 C367 1.376 . S
C366 C371 1.386 . S
C366 C372 1.483 . S
C367 H348 0.949 . S
C367 C366 1.376 . S
C367 C368 1.397 . S
C368 H349 0.950 . S
C368 C367 1.397 . S
C368 C369 1.391 . S
C369 C368 1.391 . S
C369 C370 1.405 . S
C370 H350 0.950 . S
C370 C369 1.405 . S
C370 C371 1.367 . S
C371 H351 0.950 . S
C371 C366 1.386 . S
C371 C370 1.367 . S
C372 C366 1.483 . S
C372 C373 1.382 . S
C372 C374 1.403 . S
C373 H352 0.950 . S
C373 C372 1.382 . S
C373 C389 1.411 . S
C374 C372 1.403 . S
C374 C375 1.489 . S
C374 C388 1.411 . S
C375 C374 1.489 . S
C375 C376 1.383 . S
C375 C380 1.382 . S
C376 H353 0.950 . S
C376 C375 1.383 . S
C376 C377 1.395 . S
C377 H354 0.950 . S
C377 C376 1.395 . S
C377 C378 1.288 . S
C378 C377 1.288 . S
C378 C379 1.392 . S
C379 H355 0.951 . S
C379 C378 1.392 . S
C379 C380 1.392 . S
C380 H356 0.949 . S
C380 C375 1.382 . S
C380 C379 1.392 . S
C381 C382 1.376 . S
C381 C386 1.386 . S
C381 C387 1.483 . S
C382 H357 0.949 . S
C382 C381 1.376 . S
C382 C383 1.397 . S
C383 H358 0.950 . S
C383 C382 1.397 . S
C383 C384 1.391 . S
C384 C383 1.391 . S
C384 C385 1.405 . S
C385 H359 0.950 . S
C385 C384 1.405 . S
C385 C386 1.367 . S
C386 H360 0.950 . S
C386 C381 1.386 . S
C386 C385 1.367 . S
C387 C381 1.483 . S
C387 C388 1.382 . S
C387 C389 1.403 . S
C388 H361 0.950 . S
C388 C374 1.411 . S
C388 C387 1.382 . S
C389 C373 1.411 . S
C389 C387 1.403 . S
C389 C390 1.489 . S
C390 C389 1.489 . S
C390 C391 1.383 . S
C390 C395 1.382 . S
C391 H362 0.950 . S
C391 C390 1.383 . S
C391 C392 1.395 . S
C392 H363 0.950 . S
C392 C391 1.395 . S
C392 C393 1.288 . S
C393 C392 1.288 . S
C393 C394 1.392 . S
C394 H364 0.951 . S
C394 C393 1.392 . S
C394 C395 1.392 . S
C395 H365 0.949 . S
C395 C390 1.382 . S
C395 C394 1.392 . S
H396 C415 0.949 . S
H397 C416 0.950 . S
H398 C418 0.950 . S
H399 C419 0.950 . S
H400 C421 0.950 . S
H401 C424 0.950 . S
H402 C425 0.950 . S
H403 C427 0.951 . S
H404 C428 0.949 . S
H405 C430 0.949 . S
H406 C431 0.950 . S
H407 C433 0.950 . S
H408 C434 0.950 . S
H409 C436 0.950 . S
H410 C439 0.950 . S
H411 C440 0.950 . S
H412 C442 0.951 . S
H413 C443 0.949 . S
C414 C415 1.376 . S
C414 C419 1.386 . S
C414 C420 1.483 . S
C415 H396 0.949 . S
C415 C414 1.376 . S
C415 C416 1.397 . S
C416 H397 0.950 . S
C416 C415 1.397 . S
C416 C417 1.391 . S
C417 C416 1.391 . S
C417 C418 1.405 . S
C418 H398 0.950 . S
C418 C417 1.405 . S
C418 C419 1.367 . S
C419 H399 0.950 . S
C419 C414 1.386 . S
C419 C418 1.367 . S
C420 C414 1.483 . S
C420 C421 1.382 . S
C420 C422 1.403 . S
C421 H400 0.950 . S
C421 C420 1.382 . S
C421 C437 1.411 . S
C422 C420 1.403 . S
C422 C423 1.489 . S
C422 C436 1.411 . S
C423 C422 1.489 . S
C423 C424 1.383 . S
C423 C428 1.382 . S
C424 H401 0.950 . S
C424 C423 1.383 . S
C424 C425 1.395 . S
C425 H402 0.950 . S
C425 C424 1.395 . S
C425 C426 1.288 . S
C426 C425 1.288 . S
C426 C427 1.392 . S
C427 H403 0.951 . S
C427 C426 1.392 . S
C427 C428 1.392 . S
C428 H404 0.949 . S
C428 C423 1.382 . S
C428 C427 1.392 . S
C429 C430 1.376 . S
C429 C434 1.386 . S
C429 C435 1.483 . S
C430 H405 0.949 . S
C430 C429 1.376 . S
C430 C431 1.397 . S
C431 H406 0.950 . S
C431 C430 1.397 . S
C431 C432 1.391 . S
C432 C431 1.391 . S
C432 C433 1.405 . S
C433 H407 0.950 . S
C433 C432 1.405 . S
C433 C434 1.367 . S
C434 H408 0.950 . S
C434 C429 1.386 . S
C434 C433 1.367 . S
C435 C429 1.483 . S
C435 C436 1.382 . S
C435 C437 1.403 . S
C436 H409 0.950 . S
C436 C422 1.411 . S
C436 C435 1.382 . S
C437 C421 1.411 . S
C437 C435 1.403 . S
C437 C438 1.489 . S
C438 C437 1.489 . S
C438 C439 1.383 . S
C438 C443 1.382 . S
C439 H410 0.950 . S
C439 C438 1.383 . S
C439 C440 1.395 . S
C440 H411 0.950 . S
C440 C439 1.395 . S
C440 C441 1.288 . S
C441 C440 1.288 . S
C441 C442 1.392 . S
C442 H412 0.951 . S
C442 C441 1.392 . S
C442 C443 1.392 . S
C443 H413 0.949 . S
C443 C438 1.382 . S
C443 C442 1.392 . S
H444 C463 0.949 . S
H445 C464 0.950 . S
H446 C466 0.950 . S
H447 C467 0.950 . S
H448 C469 0.950 . S
H449 C472 0.950 . S
H450 C473 0.950 . S
H451 C475 0.951 . S
H452 C476 0.949 . S
H453 C478 0.949 . S
H454 C479 0.950 . S
H455 C481 0.950 . S
H456 C482 0.950 . S
H457 C484 0.950 . S
H458 C487 0.950 . S
H459 C488 0.950 . S
H460 C490 0.951 . S
H461 C491 0.949 . S
C462 C463 1.376 . S
C462 C467 1.386 . S
C462 C468 1.483 . S
C463 H444 0.949 . S
C463 C462 1.376 . S
C463 C464 1.397 . S
C464 H445 0.950 . S
C464 C463 1.397 . S
C464 C465 1.391 . S
C465 C464 1.391 . S
C465 C466 1.405 . S
C466 H446 0.950 . S
C466 C465 1.405 . S
C466 C467 1.367 . S
C467 H447 0.950 . S
C467 C462 1.386 . S
C467 C466 1.367 . S
C468 C462 1.483 . S
C468 C469 1.382 . S
C468 C470 1.403 . S
C469 H448 0.950 . S
C469 C468 1.382 . S
C469 C485 1.411 . S
C470 C468 1.403 . S
C470 C471 1.489 . S
C470 C484 1.411 . S
C471 C470 1.489 . S
C471 C472 1.383 . S
C471 C476 1.382 . S
C472 H449 0.950 . S
C472 C471 1.383 . S
C472 C473 1.395 . S
C473 H450 0.950 . S
C473 C472 1.395 . S
C473 C474 1.288 . S
C474 C473 1.288 . S
C474 C475 1.392 . S
C475 H451 0.951 . S
C475 C474 1.392 . S
C475 C476 1.392 . S
C476 H452 0.949 . S
C476 C471 1.382 . S
C476 C475 1.392 . S
C477 C478 1.376 . S
C477 C482 1.386 . S
C477 C483 1.483 . S
C478 H453 0.949 . S
C478 C477 1.376 . S
C478 C479 1.397 . S
C479 H454 0.950 . S
C479 C478 1.397 . S
C479 C480 1.391 . S
C480 C479 1.391 . S
C480 C481 1.405 . S
C481 H455 0.950 . S
C481 C480 1.405 . S
C481 C482 1.367 . S
C482 H456 0.950 . S
C482 C477 1.386 . S
C482 C481 1.367 . S
C483 C477 1.483 . S
C483 C484 1.382 . S
C483 C485 1.403 . S
C484 H457 0.950 . S
C484 C470 1.411 . S
C484 C483 1.382 . S
C485 C469 1.411 . S
C485 C483 1.403 . S
C485 C486 1.489 . S
C486 C485 1.489 . S
C486 C487 1.383 . S
C486 C491 1.382 . S
C487 H458 0.950 . S
C487 C486 1.383 . S
C487 C488 1.395 . S
C488 H459 0.950 . S
C488 C487 1.395 . S
C488 C489 1.288 . S
C489 C488 1.288 . S
C489 C490 1.392 . S
C490 H460 0.951 . S
C490 C489 1.392 . S
C490 C491 1.392 . S
C491 H461 0.949 . S
C491 C486 1.382 . S
C491 C490 1.392 . S
H492 C511 0.949 . S
H493 C512 0.950 . S
H494 C514 0.950 . S
H495 C515 0.950 . S
H496 C517 0.950 . S
H497 C520 0.950 . S
H498 C521 0.950 . S
H499 C523 0.951 . S
H500 C524 0.949 . S
H501 C526 0.949 . S
H502 C527 0.950 . S
H503 C529 0.950 . S
H504 C530 0.950 . S
H505 C532 0.950 . S
H506 C535 0.950 . S
H507 C536 0.950 . S
H508 C538 0.951 . S
H509 C539 0.949 . S
C510 C511 1.376 . S
C510 C515 1.386 . S
C510 C516 1.483 . S
C511 H492 0.949 . S
C511 C510 1.376 . S
C511 C512 1.397 . S
C512 H493 0.950 . S
C512 C511 1.397 . S
C512 C513 1.391 . S
C513 C512 1.391 . S
C513 C514 1.405 . S
C514 H494 0.950 . S
C514 C513 1.405 . S
C514 C515 1.367 . S
C515 H495 0.950 . S
C515 C510 1.386 . S
C515 C514 1.367 . S
C516 C510 1.483 . S
C516 C517 1.382 . S
C516 C518 1.403 . S
C517 H496 0.950 . S
C517 C516 1.382 . S
C517 C533 1.411 . S
C518 C516 1.403 . S
C518 C519 1.489 . S
C518 C532 1.411 . S
C519 C518 1.489 . S
C519 C520 1.383 . S
C519 C524 1.382 . S
C520 H497 0.950 . S
C520 C519 1.383 . S
C520 C521 1.395 . S
C521 H498 0.950 . S
C521 C520 1.395 . S
C521 C522 1.288 . S
C522 C521 1.288 . S
C522 C523 1.392 . S
C523 H499 0.951 . S
C523 C522 1.392 . S
C523 C524 1.392 . S
C524 H500 0.949 . S
C524 C519 1.382 . S
C524 C523 1.392 . S
C525 C526 1.376 . S
C525 C530 1.386 . S
C525 C531 1.483 . S
C526 H501 0.949 . S
C526 C525 1.376 . S
C526 C527 1.397 . S
C527 H502 0.950 . S
C527 C526 1.397 . S
C527 C528 1.391 . S
C528 C527 1.391 . S
C528 C529 1.405 . S
C529 H503 0.950 . S
C529 C528 1.405 . S
C529 C530 1.367 . S
C530 H504 0.950 . S
C530 C525 1.386 . S
C530 C529 1.367 . S
C531 C525 1.483 . S
C531 C532 1.382 . S
C531 C533 1.403 . S
C532 H505 0.950 . S
C532 C518 1.411 . S
C532 C531 1.382 . S
C533 C517 1.411 . S
C533 C531 1.403 . S
C533 C534 1.489 . S
C534 C533 1.489 . S
C534 C535 1.383 . S
C534 C539 1.382 . S
C535 H506 0.950 . S
C535 C534 1.383 . S
C535 C536 1.395 . S
C536 H507 0.950 . S
C536 C535 1.395 . S
C536 C537 1.288 . S
C537 C536 1.288 . S
C537 C538 1.392 . S
C538 H508 0.951 . S
C538 C537 1.392 . S
C538 C539 1.392 . S
C539 H509 0.949 . S
C539 C534 1.382 . S
C539 C538 1.392 . S
H540 C559 0.949 . S
H541 C560 0.950 . S
H542 C562 0.950 . S
H543 C563 0.950 . S
H544 C565 0.950 . S
H545 C568 0.950 . S
H546 C569 0.950 . S
H547 C571 0.951 . S
H548 C572 0.949 . S
H549 C574 0.949 . S
H550 C575 0.950 . S
H551 C577 0.950 . S
H552 C578 0.950 . S
H553 C580 0.950 . S
H554 C583 0.950 . S
H555 C584 0.950 . S
H556 C586 0.951 . S
H557 C587 0.949 . S
C558 C559 1.376 . S
C558 C563 1.386 . S
C558 C564 1.483 . S
C559 H540 0.949 . S
C559 C558 1.376 . S
C559 C560 1.397 . S
C560 H541 0.950 . S
C560 C559 1.397 . S
C560 C561 1.391 . S
C561 C560 1.391 . S
C561 C562 1.405 . S
C562 H542 0.950 . S
C562 C561 1.405 . S
C562 C563 1.367 . S
C563 H543 0.950 . S
C563 C558 1.386 . S
C563 C562 1.367 . S
C564 C558 1.483 . S
C564 C565 1.382 . S
C564 C566 1.403 . S
C565 H544 0.950 . S
C565 C564 1.382 . S
C565 C581 1.411 . S
C566 C564 1.403 . S
C566 C567 1.489 . S
C566 C580 1.411 . S
C567 C566 1.489 . S
C567 C568 1.383 . S
C567 C572 1.382 . S
C568 H545 0.950 . S
C568 C567 1.383 . S
C568 C569 1.395 . S
C569 H546 0.950 . S
C569 C568 1.395 . S
C569 C570 1.288 . S
C570 C569 1.288 . S
C570 C571 1.392 . S
C571 H547 0.951 . S
C571 C570 1.392 . S
C571 C572 1.392 . S
C572 H548 0.949 . S
C572 C567 1.382 . S
C572 C571 1.392 . S
C573 C574 1.376 . S
C573 C578 1.386 . S
C573 C579 1.483 . S
C574 H549 0.949 . S
C574 C573 1.376 . S
C574 C575 1.397 . S
C575 H550 0.950 . S
C575 C574 1.397 . S
C575 C576 1.391 . S
C576 C575 1.391 . S
C576 C577 1.405 . S
C577 H551 0.950 . S
C577 C576 1.405 . S
C577 C578 1.367 . S
C578 H552 0.950 . S
C578 C573 1.386 . S
C578 C577 1.367 . S
C579 C573 1.483 . S
C579 C580 1.382 . S
C579 C581 1.403 . S
C580 H553 0.950 . S
C580 C566 1.411 . S
C580 C579 1.382 . S
C581 C565 1.411 . S
C581 C579 1.403 . S
C581 C582 1.489 . S
C582 C581 1.489 . S
C582 C583 1.383 . S
C582 C587 1.382 . S
C583 H554 0.950 . S
C583 C582 1.383 . S
C583 C584 1.395 . S
C584 H555 0.950 . S
C584 C583 1.395 . S
C584 C585 1.288 . S
C585 C584 1.288 . S
C585 C586 1.392 . S
C586 H556 0.951 . S
C586 C585 1.392 . S
C586 C587 1.392 . S
C587 H557 0.949 . S
C587 C582 1.382 . S
C587 C586 1.392 . S
H588 C607 0.949 . S
H589 C608 0.950 . S
H590 C610 0.950 . S
H591 C611 0.950 . S
H592 C613 0.950 . S
H593 C616 0.950 . S
H594 C617 0.950 . S
H595 C619 0.951 . S
H596 C620 0.949 . S
H597 C622 0.949 . S
H598 C623 0.950 . S
H599 C625 0.950 . S
H600 C626 0.950 . S
H601 C628 0.950 . S
H602 C631 0.950 . S
H603 C632 0.950 . S
H604 C634 0.951 . S
H605 C635 0.949 . S
C606 C607 1.376 . S
C606 C611 1.386 . S
C606 C612 1.483 . S
C607 H588 0.949 . S
C607 C606 1.376 . S
C607 C608 1.397 . S
C608 H589 0.950 . S
C608 C607 1.397 . S
C608 C609 1.391 . S
C609 C608 1.391 . S
C609 C610 1.405 . S
C610 H590 0.950 . S
C610 C609 1.405 . S
C610 C611 1.367 . S
C611 H591 0.950 . S
C611 C606 1.386 . S
C611 C610 1.367 . S
C612 C606 1.483 . S
C612 C613 1.382 . S
C612 C614 1.403 . S
C613 H592 0.950 . S
C613 C612 1.382 . S
C613 C629 1.411 . S
C614 C612 1.403 . S
C614 C615 1.489 . S
C614 C628 1.411 . S
C615 C614 1.489 . S
C615 C616 1.383 . S
C615 C620 1.382 . S
C616 H593 0.950 . S
C616 C615 1.383 . S
C616 C617 1.395 . S
C617 H594 0.950 . S
C617 C616 1.395 . S
C617 C618 1.288 . S
C618 C617 1.288 . S
C618 C619 1.392 . S
C619 H595 0.951 . S
C619 C618 1.392 . S
C619 C620 1.392 . S
C620 H596 0.949 . S
C620 C615 1.382 . S
C620 C619 1.392 . S
C621 C622 1.376 . S
C621 C626 1.386 . S
C621 C627 1.483 . S
C622 H597 0.949 . S
C622 C621 1.376 . S
C622 C623 1.397 . S
C623 H598 0.950 . S
C623 C622 1.397 . S
C623 C624 1.391 . S
C624 C623 1.391 . S
C624 C625 1.405 . S
C625 H599 0.950 . S
C625 C624 1.405 . S
C625 C626 1.367 . S
C626 H600 0.950 . S
C626 C621 1.386 . S
C626 C625 1.367 . S
C627 C621 1.483 . S
C627 C628 1.382 . S
C627 C629 1.403 . S
C628 H601 0.950 . S
C628 C614 1.411 . S
C628 C627 1.382 . S
C629 C613 1.411 . S
C629 C627 1.403 . S
C629 C630 1.489 . S
C630 C629 1.489 . S
C630 C631 1.383 . S
C630 C635 1.382 . S
C631 H602 0.950 . S
C631 C630 1.383 . S
C631 C632 1.395 . S
C632 H603 0.950 . S
C632 C631 1.395 . S
C632 C633 1.288 . S
C633 C632 1.288 . S
C633 C634 1.392 . S
C634 H604 0.951 . S
C634 C633 1.392 . S
C634 C635 1.392 . S
C635 H605 0.949 . S
C635 C630 1.382 . S
C635 C634 1.392 . S
H636 C655 0.949 . S
H637 C656 0.950 . S
H638 C658 0.950 . S
H639 C659 0.950 . S
H640 C661 0.950 . S
H641 C664 0.950 . S
H642 C665 0.950 . S
H643 C667 0.951 . S
H644 C668 0.949 . S
H645 C670 0.949 . S
H646 C671 0.950 . S
H647 C673 0.950 . S
H648 C674 0.950 . S
H649 C676 0.950 . S
H650 C679 0.950 . S
H651 C680 0.950 . S
H652 C682 0.951 . S
H653 C683 0.949 . S
C654 C655 1.376 . S
C654 C659 1.386 . S
C654 C660 1.483 . S
C655 H636 0.949 . S
C655 C654 1.376 . S
C655 C656 1.397 . S
C656 H637 0.950 . S
C656 C655 1.397 . S
C656 C657 1.391 . S
C657 C656 1.391 . S
C657 C658 1.405 . S
C658 H638 0.950 . S
C658 C657 1.405 . S
C658 C659 1.367 . S
C659 H639 0.950 . S
C659 C654 1.386 . S
C659 C658 1.367 . S
C660 C654 1.483 . S
C660 C661 1.382 . S
C660 C662 1.403 . S
C661 H640 0.950 . S
C661 C660 1.382 . S
C661 C677 1.411 . S
C662 C660 1.403 . S
C662 C663 1.489 . S
C662 C676 1.411 . S
C663 C662 1.489 . S
C663 C664 1.383 . S
C663 C668 1.382 . S
C664 H641 0.950 . S
C664 C663 1.383 . S
C664 C665 1.395 . S
C665 H642 0.950 . S
C665 C664 1.395 . S
C665 C666 1.288 . S
C666 C665 1.288 . S
C666 C667 1.392 . S
C667 H643 0.951 . S
C667 C666 1.392 . S
C667 C668 1.392 . S
C668 H644 0.949 . S
C668 C663 1.382 . S
C668 C667 1.392 . S
C669 C670 1.376 . S
C669 C674 1.386 . S
C669 C675 1.483 . S
C670 H645 0.949 . S
C670 C669 1.376 . S
C670 C671 1.397 . S
C671 H646 0.950 . S
C671 C670 1.397 . S
C671 C672 1.391 . S
C672 C671 1.391 . S
C672 C673 1.405 . S
C673 H647 0.950 . S
C673 C672 1.405 . S
C673 C674 1.367 . S
C674 H648 0.950 . S
C674 C669 1.386 . S
C674 C673 1.367 . S
C675 C669 1.483 . S
C675 C676 1.382 . S
C675 C677 1.403 . S
C676 H649 0.950 . S
C676 C662 1.411 . S
C676 C675 1.382 . S
C677 C661 1.411 . S
C677 C675 1.403 . S
C677 C678 1.489 . S
C678 C677 1.489 . S
C678 C679 1.383 . S
C678 C683 1.382 . S
C679 H650 0.950 . S
C679 C678 1.383 . S
C679 C680 1.395 . S
C680 H651 0.950 . S
C680 C679 1.395 . S
C680 C681 1.288 . S
C681 C680 1.288 . S
C681 C682 1.392 . S
C682 H652 0.951 . S
C682 C681 1.392 . S
C682 C683 1.392 . S
C683 H653 0.949 . S
C683 C678 1.382 . S
C683 C682 1.392 . S
H684 C703 0.949 . S
H685 C704 0.950 . S
H686 C706 0.950 . S
H687 C707 0.950 . S
H688 C709 0.950 . S
H689 C712 0.950 . S
H690 C713 0.950 . S
H691 C715 0.951 . S
H692 C716 0.949 . S
H693 C718 0.949 . S
H694 C719 0.950 . S
H695 C721 0.950 . S
H696 C722 0.950 . S
H697 C724 0.950 . S
H698 C727 0.950 . S
H699 C728 0.950 . S
H700 C730 0.951 . S
H701 C731 0.949 . S
C702 C703 1.376 . S
C702 C707 1.386 1_655 S
C702 C708 1.483 . S
C703 H684 0.949 . S
C703 C702 1.376 . S
C703 C704 1.397 . S
C704 H685 0.950 . S
C704 C703 1.397 . S
C704 C705 1.391 . S
C705 C704 1.391 . S
C705 C706 1.405 1_655 S
C706 H686 0.950 . S
C706 C705 1.405 1_455 S
C706 C707 1.367 . S
C707 H687 0.950 . S
C707 C702 1.386 1_455 S
C707 C706 1.367 . S
C708 C702 1.483 . S
C708 C709 1.382 . S
C708 C710 1.403 1_655 S
C709 H688 0.950 . S
C709 C708 1.382 . S
C709 C725 1.411 . S
C710 C708 1.403 1_455 S
C710 C711 1.489 . S
C710 C724 1.411 . S
C711 C710 1.489 . S
C711 C712 1.383 1_455 S
C711 C716 1.382 . S
C712 H689 0.950 . S
C712 C711 1.383 1_655 S
C712 C713 1.395 . S
C713 H690 0.950 . S
C713 C712 1.395 . S
C713 C714 1.288 1_655 S
C714 C713 1.288 1_455 S
C714 C715 1.392 . S
C715 H691 0.951 . S
C715 C714 1.392 . S
C715 C716 1.392 . S
C716 H692 0.949 . S
C716 C711 1.382 . S
C716 C715 1.392 . S
C717 C718 1.376 . S
C717 C722 1.386 1_455 S
C717 C723 1.483 . S
C718 H693 0.949 . S
C718 C717 1.376 . S
C718 C719 1.397 . S
C719 H694 0.950 . S
C719 C718 1.397 . S
C719 C720 1.391 . S
C720 C719 1.391 . S
C720 C721 1.405 1_455 S
C721 H695 0.950 . S
C721 C720 1.405 1_655 S
C721 C722 1.367 . S
C722 H696 0.950 . S
C722 C717 1.386 1_655 S
C722 C721 1.367 . S
C723 C717 1.483 . S
C723 C724 1.382 . S
C723 C725 1.403 1_455 S
C724 H697 0.950 . S
C724 C710 1.411 . S
C724 C723 1.382 . S
C725 C709 1.411 . S
C725 C723 1.403 1_655 S
C725 C726 1.489 . S
C726 C725 1.489 . S
C726 C727 1.383 1_655 S
C726 C731 1.382 . S
C727 H698 0.950 . S
C727 C726 1.383 1_455 S
C727 C728 1.395 . S
C728 H699 0.950 . S
C728 C727 1.395 . S
C728 C729 1.288 1_455 S
C729 C728 1.288 1_655 S
C729 C730 1.392 . S
C730 H700 0.951 . S
C730 C729 1.392 . S
C730 C731 1.392 . S
C731 H701 0.949 . S
C731 C726 1.382 . S
C731 C730 1.392 . S
H732 C751 0.949 . S
H733 C752 0.950 . S
H734 C754 0.950 . S
H735 C755 0.950 . S
H736 C757 0.950 . S
H737 C760 0.950 . S
H738 C761 0.950 . S
H739 C763 0.951 . S
H740 C764 0.949 . S
H741 C766 0.949 . S
H742 C767 0.950 . S
H743 C769 0.950 . S
H744 C770 0.950 . S
H745 C772 0.950 . S
H746 C775 0.950 . S
H747 C776 0.950 . S
H748 C778 0.951 . S
H749 C779 0.949 . S
C750 C751 1.376 . S
C750 C755 1.386 . S
C750 C756 1.483 . S
C751 H732 0.949 . S
C751 C750 1.376 . S
C751 C752 1.397 . S
C752 H733 0.950 . S
C752 C751 1.397 . S
C752 C753 1.391 . S
C753 C752 1.391 . S
C753 C754 1.405 . S
C754 H734 0.950 . S
C754 C753 1.405 . S
C754 C755 1.367 . S
C755 H735 0.950 . S
C755 C750 1.386 . S
C755 C754 1.367 . S
C756 C750 1.483 . S
C756 C757 1.382 . S
C756 C758 1.403 . S
C757 H736 0.950 . S
C757 C756 1.382 . S
C757 C773 1.411 . S
C758 C756 1.403 . S
C758 C759 1.489 . S
C758 C772 1.411 . S
C759 C758 1.489 . S
C759 C760 1.383 . S
C759 C764 1.382 . S
C760 H737 0.950 . S
C760 C759 1.383 . S
C760 C761 1.395 . S
C761 H738 0.950 . S
C761 C760 1.395 . S
C761 C762 1.288 . S
C762 C761 1.288 . S
C762 C763 1.392 . S
C763 H739 0.951 . S
C763 C762 1.392 . S
C763 C764 1.392 . S
C764 H740 0.949 . S
C764 C759 1.382 . S
C764 C763 1.392 . S
C765 C766 1.376 . S
C765 C770 1.386 . S
C765 C771 1.483 . S
C766 H741 0.949 . S
C766 C765 1.376 . S
C766 C767 1.397 . S
C767 H742 0.950 . S
C767 C766 1.397 . S
C767 C768 1.391 . S
C768 C767 1.391 . S
C768 C769 1.405 . S
C769 H743 0.950 . S
C769 C768 1.405 . S
C769 C770 1.367 . S
C770 H744 0.950 . S
C770 C765 1.386 . S
C770 C769 1.367 . S
C771 C765 1.483 . S
C771 C772 1.382 . S
C771 C773 1.403 . S
C772 H745 0.950 . S
C772 C758 1.411 . S
C772 C771 1.382 . S
C773 C757 1.411 . S
C773 C771 1.403 . S
C773 C774 1.489 . S
C774 C773 1.489 . S
C774 C775 1.383 . S
C774 C779 1.382 . S
C775 H746 0.950 . S
C775 C774 1.383 . S
C775 C776 1.395 . S
C776 H747 0.950 . S
C776 C775 1.395 . S
C776 C777 1.288 . S
C777 C776 1.288 . S
C777 C778 1.392 . S
C778 H748 0.951 . S
C778 C777 1.392 . S
C778 C779 1.392 . S
C779 H749 0.949 . S
C779 C774 1.382 . S
C779 C778 1.392 . S
H780 C799 0.949 . S
H781 C800 0.950 . S
H782 C802 0.950 . S
H783 C803 0.950 . S
H784 C805 0.950 . S
H785 C808 0.950 . S
H786 C809 0.950 . S
H787 C811 0.951 . S
H788 C812 0.949 . S
H789 C814 0.949 . S
H790 C815 0.950 . S
H791 C817 0.950 . S
H792 C818 0.950 . S
H793 C820 0.950 . S
H794 C823 0.950 . S
H795 C824 0.950 . S
H796 C826 0.951 . S
H797 C827 0.949 . S
C798 C799 1.376 . S
C798 C803 1.386 1_545 S
C798 C804 1.483 . S
C799 H780 0.949 . S
C799 C798 1.376 . S
C799 C800 1.397 . S
C800 H781 0.950 . S
C800 C799 1.397 . S
C800 C801 1.391 . S
C801 C800 1.391 . S
C801 C802 1.405 1_545 S
C802 H782 0.950 . S
C802 C801 1.405 1_565 S
C802 C803 1.367 . S
C803 H783 0.950 . S
C803 C798 1.386 1_565 S
C803 C802 1.367 . S
C804 C798 1.483 . S
C804 C805 1.382 . S
C804 C806 1.403 1_545 S
C805 H784 0.950 . S
C805 C804 1.382 . S
C805 C821 1.411 . S
C806 C804 1.403 1_565 S
C806 C807 1.489 . S
C806 C820 1.411 . S
C807 C806 1.489 . S
C807 C808 1.383 1_565 S
C807 C812 1.382 . S
C808 H785 0.950 . S
C808 C807 1.383 1_545 S
C808 C809 1.395 . S
C809 H786 0.950 . S
C809 C808 1.395 . S
C809 C810 1.288 1_545 S
C810 C809 1.288 1_565 S
C810 C811 1.392 . S
C811 H787 0.951 . S
C811 C810 1.392 . S
C811 C812 1.392 . S
C812 H788 0.949 . S
C812 C807 1.382 . S
C812 C811 1.392 . S
C813 C814 1.376 . S
C813 C818 1.386 1_565 S
C813 C819 1.483 . S
C814 H789 0.949 . S
C814 C813 1.376 . S
C814 C815 1.397 . S
C815 H790 0.950 . S
C815 C814 1.397 . S
C815 C816 1.391 . S
C816 C815 1.391 . S
C816 C817 1.405 1_565 S
C817 H791 0.950 . S
C817 C816 1.405 1_545 S
C817 C818 1.367 . S
C818 H792 0.950 . S
C818 C813 1.386 1_545 S
C818 C817 1.367 . S
C819 C813 1.483 . S
C819 C820 1.382 . S
C819 C821 1.403 1_565 S
C820 H793 0.950 . S
C820 C806 1.411 . S
C820 C819 1.382 . S
C821 C805 1.411 . S
C821 C819 1.403 1_545 S
C821 C822 1.489 . S
C822 C821 1.489 . S
C822 C823 1.383 1_545 S
C822 C827 1.382 . S
C823 H794 0.950 . S
C823 C822 1.383 1_565 S
C823 C824 1.395 . S
C824 H795 0.950 . S
C824 C823 1.395 . S
C824 C825 1.288 1_565 S
C825 C824 1.288 1_545 S
C825 C826 1.392 . S
C826 H796 0.951 . S
C826 C825 1.392 . S
C826 C827 1.392 . S
C827 H797 0.949 . S
C827 C822 1.382 . S
C827 C826 1.392 . S
H828 C847 0.949 . S
H829 C848 0.950 . S
H830 C850 0.950 . S
H831 C851 0.950 . S
H832 C853 0.950 . S
H833 C856 0.950 . S
H834 C857 0.950 . S
H835 C859 0.951 . S
H836 C860 0.949 . S
H837 C862 0.949 . S
H838 C863 0.950 . S
H839 C865 0.950 . S
H840 C866 0.950 . S
H841 C868 0.950 . S
H842 C871 0.950 . S
H843 C872 0.950 . S
H844 C874 0.951 . S
H845 C875 0.949 . S
C846 C847 1.394 . S
C846 C851 1.378 1_545 S
C846 C852 1.501 . S
C847 H828 0.949 . S
C847 C846 1.394 . S
C847 C848 1.397 . S
C848 H829 0.950 . S
C848 C847 1.397 . S
C848 C849 1.391 1_545 S
C849 C848 1.391 1_565 S
C849 C850 1.405 . S
C850 H830 0.950 . S
C850 C849 1.405 . S
C850 C851 1.367 . S
C851 H831 0.950 . S
C851 C846 1.378 1_565 S
C851 C850 1.367 . S
C852 C846 1.501 . S
C852 C853 1.355 . S
C852 C854 1.399 1_545 S
C853 H832 0.950 . S
C853 C852 1.355 . S
C853 C869 1.443 . S
C854 C852 1.399 1_565 S
C854 C855 1.482 . S
C854 C868 1.434 . S
C855 C854 1.482 . S
C855 C856 1.354 1_565 S
C855 C860 1.397 . S
C856 H833 0.950 . S
C856 C855 1.354 1_545 S
C856 C857 1.395 . S
C857 H834 0.950 . S
C857 C856 1.395 . S
C857 C858 1.288 . S
C858 C857 1.288 . S
C858 C859 1.392 1_545 S
C859 H835 0.951 . S
C859 C858 1.392 1_565 S
C859 C860 1.392 . S
C860 H836 0.949 . S
C860 C855 1.397 . S
C860 C859 1.392 . S
C861 C862 1.381 . S
C861 C866 1.384 1_565 S
C861 C867 1.501 . S
C862 H837 0.949 . S
C862 C861 1.381 . S
C862 C863 1.397 . S
C863 H838 0.950 . S
C863 C862 1.397 . S
C863 C864 1.391 1_565 S
C864 C863 1.391 1_545 S
C864 C865 1.405 . S
C865 H839 0.950 . S
C865 C864 1.405 . S
C865 C866 1.367 . S
C866 H840 0.950 . S
C866 C861 1.384 1_545 S
C866 C865 1.367 . S
C867 C861 1.501 . S
C867 C868 1.362 . S
C867 C869 1.399 1_565 S
C868 H841 0.950 . S
C868 C854 1.434 . S
C868 C867 1.362 . S
C869 C853 1.443 . S
C869 C867 1.399 1_545 S
C869 C870 1.482 . S
C870 C869 1.482 . S
C870 C871 1.337 1_545 S
C870 C875 1.407 . S
C871 H842 0.950 . S
C871 C870 1.337 1_565 S
C871 C872 1.395 . S
C872 H843 0.950 . S
C872 C871 1.395 . S
C872 C873 1.288 . S
C873 C872 1.288 . S
C873 C874 1.392 1_565 S
C874 H844 0.951 . S
C874 C873 1.392 1_545 S
C874 C875 1.392 . S
C875 H845 0.949 . S
C875 C870 1.407 . S
C875 C874 1.392 . S
H876 C895 0.949 . S
H877 C896 0.950 . S
H878 C898 0.950 . S
H879 C899 0.950 . S
H880 C901 0.950 . S
H881 C904 0.950 . S
H882 C905 0.950 . S
H883 C907 0.951 . S
H884 C908 0.949 . S
H885 C910 0.949 . S
H886 C911 0.950 . S
H887 C913 0.950 . S
H888 C914 0.950 . S
H889 C916 0.950 . S
H890 C919 0.950 . S
H891 C920 0.950 . S
H892 C922 0.951 . S
H893 C923 0.949 . S
C894 C895 1.376 . S
C894 C899 1.386 1_455 S
C894 C900 1.483 . S
C895 H876 0.949 . S
C895 C894 1.376 . S
C895 C896 1.397 . S
C896 H877 0.950 . S
C896 C895 1.397 . S
C896 C897 1.391 . S
C897 C896 1.391 . S
C897 C898 1.405 1_455 S
C898 H878 0.950 . S
C898 C897 1.405 1_655 S
C898 C899 1.367 . S
C899 H879 0.950 . S
C899 C894 1.386 1_655 S
C899 C898 1.367 . S
C900 C894 1.483 . S
C900 C901 1.382 . S
C900 C902 1.403 1_455 S
C901 H880 0.950 . S
C901 C900 1.382 . S
C901 C917 1.411 . S
C902 C900 1.403 1_655 S
C902 C903 1.489 . S
C902 C916 1.411 . S
C903 C902 1.489 . S
C903 C904 1.383 1_655 S
C903 C908 1.382 . S
C904 H881 0.950 . S
C904 C903 1.383 1_455 S
C904 C905 1.395 . S
C905 H882 0.950 . S
C905 C904 1.395 . S
C905 C906 1.288 1_455 S
C906 C905 1.288 1_655 S
C906 C907 1.392 . S
C907 H883 0.951 . S
C907 C906 1.392 . S
C907 C908 1.392 . S
C908 H884 0.949 . S
C908 C903 1.382 . S
C908 C907 1.392 . S
C909 C910 1.376 . S
C909 C914 1.386 1_655 S
C909 C915 1.483 . S
C910 H885 0.949 . S
C910 C909 1.376 . S
C910 C911 1.397 . S
C911 H886 0.950 . S
C911 C910 1.397 . S
C911 C912 1.391 . S
C912 C911 1.391 . S
C912 C913 1.405 1_655 S
C913 H887 0.950 . S
C913 C912 1.405 1_455 S
C913 C914 1.367 . S
C914 H888 0.950 . S
C914 C909 1.386 1_455 S
C914 C913 1.367 . S
C915 C909 1.483 . S
C915 C916 1.382 . S
C915 C917 1.403 1_655 S
C916 H889 0.950 . S
C916 C902 1.411 . S
C916 C915 1.382 . S
C917 C901 1.411 . S
C917 C915 1.403 1_455 S
C917 C918 1.489 . S
C918 C917 1.489 . S
C918 C919 1.383 1_455 S
C918 C923 1.382 . S
C919 H890 0.950 . S
C919 C918 1.383 1_655 S
C919 C920 1.395 . S
C920 H891 0.950 . S
C920 C919 1.395 . S
C920 C921 1.288 1_655 S
C921 C920 1.288 1_455 S
C921 C922 1.392 . S
C922 H892 0.951 . S
C922 C921 1.392 . S
C922 C923 1.392 . S
C923 H893 0.949 . S
C923 C918 1.382 . S
C923 C922 1.392 . S
H924 C943 0.949 . S
H925 C944 0.950 . S
H926 C946 0.950 . S
H927 C947 0.950 . S
H928 C949 0.950 . S
H929 C952 0.950 . S
H930 C953 0.950 . S
H931 C955 0.951 . S
H932 C956 0.949 . S
H933 C958 0.949 . S
H934 C959 0.950 . S
H935 C961 0.950 . S
H936 C962 0.950 . S
H937 C964 0.950 . S
H938 C967 0.950 . S
H939 C968 0.950 . S
H940 C970 0.951 . S
H941 C971 0.949 . S
C942 C943 1.376 . S
C942 C947 1.386 . S
C942 C948 1.483 . S
C943 H924 0.949 . S
C943 C942 1.376 . S
C943 C944 1.397 . S
C944 H925 0.950 . S
C944 C943 1.397 . S
C944 C945 1.391 . S
C945 C944 1.391 . S
C945 C946 1.405 . S
C946 H926 0.950 . S
C946 C945 1.405 . S
C946 C947 1.367 . S
C947 H927 0.950 . S
C947 C942 1.386 . S
C947 C946 1.367 . S
C948 C942 1.483 . S
C948 C949 1.382 . S
C948 C950 1.403 . S
C949 H928 0.950 . S
C949 C948 1.382 . S
C949 C965 1.411 . S
C950 C948 1.403 . S
C950 C951 1.489 . S
C950 C964 1.411 . S
C951 C950 1.489 . S
C951 C952 1.383 . S
C951 C956 1.382 . S
C952 H929 0.950 . S
C952 C951 1.383 . S
C952 C953 1.395 . S
C953 H930 0.950 . S
C953 C952 1.395 . S
C953 C954 1.288 . S
C954 C953 1.288 . S
C954 C955 1.392 . S
C955 H931 0.951 . S
C955 C954 1.392 . S
C955 C956 1.392 . S
C956 H932 0.949 . S
C956 C951 1.382 . S
C956 C955 1.392 . S
C957 C958 1.376 . S
C957 C962 1.386 . S
C957 C963 1.483 . S
C958 H933 0.949 . S
C958 C957 1.376 . S
C958 C959 1.397 . S
C959 H934 0.950 . S
C959 C958 1.397 . S
C959 C960 1.391 . S
C960 C959 1.391 . S
C960 C961 1.405 . S
C961 H935 0.950 . S
C961 C960 1.405 . S
C961 C962 1.367 . S
C962 H936 0.950 . S
C962 C957 1.386 . S
C962 C961 1.367 . S
C963 C957 1.483 . S
C963 C964 1.382 . S
C963 C965 1.403 . S
C964 H937 0.950 . S
C964 C950 1.411 . S
C964 C963 1.382 . S
C965 C949 1.411 . S
C965 C963 1.403 . S
C965 C966 1.489 . S
C966 C965 1.489 . S
C966 C967 1.383 . S
C966 C971 1.382 . S
C967 H938 0.950 . S
C967 C966 1.383 . S
C967 C968 1.395 . S
C968 H939 0.950 . S
C968 C967 1.395 . S
C968 C969 1.288 . S
C969 C968 1.288 . S
C969 C970 1.392 . S
C970 H940 0.951 . S
C970 C969 1.392 . S
C970 C971 1.392 . S
C971 H941 0.949 . S
C971 C966 1.382 . S
C971 C970 1.392 . S
H972 C991 0.949 . S
H973 C992 0.950 . S
H974 C994 0.950 . S
H975 C995 0.950 . S
H976 C997 0.950 . S
H977 C1000 0.950 . S
H978 C1001 0.950 . S
H979 C1003 0.951 . S
H980 C1004 0.949 . S
H981 C1006 0.949 . S
H982 C1007 0.950 . S
H983 C1009 0.950 . S
H984 C1010 0.950 . S
H985 C1012 0.950 . S
H986 C1015 0.950 . S
H987 C1016 0.950 . S
H988 C1018 0.951 . S
H989 C1019 0.949 . S
C990 C991 1.376 . S
C990 C995 1.386 . S
C990 C996 1.483 . S
C991 H972 0.949 . S
C991 C990 1.376 . S
C991 C992 1.397 . S
C992 H973 0.950 . S
C992 C991 1.397 . S
C992 C993 1.391 . S
C993 C992 1.391 . S
C993 C994 1.405 . S
C994 H974 0.950 . S
C994 C993 1.405 . S
C994 C995 1.367 . S
C995 H975 0.950 . S
C995 C990 1.386 . S
C995 C994 1.367 . S
C996 C990 1.483 . S
C996 C997 1.382 . S
C996 C998 1.403 . S
C997 H976 0.950 . S
C997 C996 1.382 . S
C997 C1013 1.411 . S
C998 C996 1.403 . S
C998 C999 1.489 . S
C998 C1012 1.411 . S
C999 C998 1.489 . S
C999 C1000 1.383 . S
C999 C1004 1.382 . S
C1000 H977 0.950 . S
C1000 C999 1.383 . S
C1000 C1001 1.395 . S
C1001 H978 0.950 . S
C1001 C1000 1.395 . S
C1001 C1002 1.288 . S
C1002 C1001 1.288 . S
C1002 C1003 1.392 . S
C1003 H979 0.951 . S
C1003 C1002 1.392 . S
C1003 C1004 1.392 . S
C1004 H980 0.949 . S
C1004 C999 1.382 . S
C1004 C1003 1.392 . S
C1005 C1006 1.376 . S
C1005 C1010 1.386 . S
C1005 C1011 1.483 . S
C1006 H981 0.949 . S
C1006 C1005 1.376 . S
C1006 C1007 1.397 . S
C1007 H982 0.950 . S
C1007 C1006 1.397 . S
C1007 C1008 1.391 . S
C1008 C1007 1.391 . S
C1008 C1009 1.405 . S
C1009 H983 0.950 . S
C1009 C1008 1.405 . S
C1009 C1010 1.367 . S
C1010 H984 0.950 . S
C1010 C1005 1.386 . S
C1010 C1009 1.367 . S
C1011 C1005 1.483 . S
C1011 C1012 1.382 . S
C1011 C1013 1.403 . S
C1012 H985 0.950 . S
C1012 C998 1.411 . S
C1012 C1011 1.382 . S
C1013 C997 1.411 . S
C1013 C1011 1.403 . S
C1013 C1014 1.489 . S
C1014 C1013 1.489 . S
C1014 C1015 1.383 . S
C1014 C1019 1.382 . S
C1015 H986 0.950 . S
C1015 C1014 1.383 . S
C1015 C1016 1.395 . S
C1016 H987 0.950 . S
C1016 C1015 1.395 . S
C1016 C1017 1.288 . S
C1017 C1016 1.288 . S
C1017 C1018 1.392 . S
C1018 H988 0.951 . S
C1018 C1017 1.392 . S
C1018 C1019 1.392 . S
C1019 H989 0.949 . S
C1019 C1014 1.382 . S
C1019 C1018 1.392 . S
H1020 C1039 0.949 . S
H1021 C1040 0.950 . S
H1022 C1042 0.950 . S
H1023 C1043 0.950 . S
H1024 C1045 0.950 . S
H1025 C1048 0.950 . S
H1026 C1049 0.950 . S
H1027 C1051 0.951 . S
H1028 C1052 0.949 . S
H1029 C1054 0.949 . S
H1030 C1055 0.950 . S
H1031 C1057 0.950 . S
H1032 C1058 0.950 . S
H1033 C1060 0.950 . S
H1034 C1063 0.950 . S
H1035 C1064 0.950 . S
H1036 C1066 0.951 . S
H1037 C1067 0.949 . S
C1038 C1039 1.376 . S
C1038 C1043 1.386 . S
C1038 C1044 1.483 . S
C1039 H1020 0.949 . S
C1039 C1038 1.376 . S
C1039 C1040 1.397 . S
C1040 H1021 0.950 . S
C1040 C1039 1.397 . S
C1040 C1041 1.391 . S
C1041 C1040 1.391 . S
C1041 C1042 1.405 . S
C1042 H1022 0.950 . S
C1042 C1041 1.405 . S
C1042 C1043 1.367 . S
C1043 H1023 0.950 . S
C1043 C1038 1.386 . S
C1043 C1042 1.367 . S
C1044 C1038 1.483 . S
C1044 C1045 1.382 . S
C1044 C1046 1.403 . S
C1045 H1024 0.950 . S
C1045 C1044 1.382 . S
C1045 C1061 1.411 . S
C1046 C1044 1.403 . S
C1046 C1047 1.489 . S
C1046 C1060 1.411 . S
C1047 C1046 1.489 . S
C1047 C1048 1.383 . S
C1047 C1052 1.382 . S
C1048 H1025 0.950 . S
C1048 C1047 1.383 . S
C1048 C1049 1.395 . S
C1049 H1026 0.950 . S
C1049 C1048 1.395 . S
C1049 C1050 1.288 . S
C1050 C1049 1.288 . S
C1050 C1051 1.392 . S
C1051 H1027 0.951 . S
C1051 C1050 1.392 . S
C1051 C1052 1.392 . S
C1052 H1028 0.949 . S
C1052 C1047 1.382 . S
C1052 C1051 1.392 . S
C1053 C1054 1.376 . S
C1053 C1058 1.386 . S
C1053 C1059 1.483 . S
C1054 H1029 0.949 . S
C1054 C1053 1.376 . S
C1054 C1055 1.397 . S
C1055 H1030 0.950 . S
C1055 C1054 1.397 . S
C1055 C1056 1.391 . S
C1056 C1055 1.391 . S
C1056 C1057 1.405 . S
C1057 H1031 0.950 . S
C1057 C1056 1.405 . S
C1057 C1058 1.367 . S
C1058 H1032 0.950 . S
C1058 C1053 1.386 . S
C1058 C1057 1.367 . S
C1059 C1053 1.483 . S
C1059 C1060 1.382 . S
C1059 C1061 1.403 . S
C1060 H1033 0.950 . S
C1060 C1046 1.411 . S
C1060 C1059 1.382 . S
C1061 C1045 1.411 . S
C1061 C1059 1.403 . S
C1061 C1062 1.489 . S
C1062 C1061 1.489 . S
C1062 C1063 1.383 . S
C1062 C1067 1.382 . S
C1063 H1034 0.950 . S
C1063 C1062 1.383 . S
C1063 C1064 1.395 . S
C1064 H1035 0.950 . S
C1064 C1063 1.395 . S
C1064 C1065 1.288 . S
C1065 C1064 1.288 . S
C1065 C1066 1.392 . S
C1066 H1036 0.951 . S
C1066 C1065 1.392 . S
C1066 C1067 1.392 . S
C1067 H1037 0.949 . S
C1067 C1062 1.382 . S
C1067 C1066 1.392 . S
H1068 C1087 0.949 . S
H1069 C1088 0.950 . S
H1070 C1090 0.950 . S
H1071 C1091 0.950 . S
H1072 C1093 0.950 . S
H1073 C1096 0.950 . S
H1074 C1097 0.950 . S
H1075 C1099 0.951 . S
H1076 C1100 0.949 . S
H1077 C1102 0.949 . S
H1078 C1103 0.950 . S
H1079 C1105 0.950 . S
H1080 C1106 0.950 . S
H1081 C1108 0.950 . S
H1082 C1111 0.950 . S
H1083 C1112 0.950 . S
H1084 C1114 0.951 . S
H1085 C1115 0.949 . S
C1086 C1087 1.376 . S
C1086 C1091 1.386 . S
C1086 C1092 1.483 . S
C1087 H1068 0.949 . S
C1087 C1086 1.376 . S
C1087 C1088 1.397 . S
C1088 H1069 0.950 . S
C1088 C1087 1.397 . S
C1088 C1089 1.391 . S
C1089 C1088 1.391 . S
C1089 C1090 1.405 . S
C1090 H1070 0.950 . S
C1090 C1089 1.405 . S
C1090 C1091 1.367 . S
C1091 H1071 0.950 . S
C1091 C1086 1.386 . S
C1091 C1090 1.367 . S
C1092 C1086 1.483 . S
C1092 C1093 1.382 . S
C1092 C1094 1.403 . S
C1093 H1072 0.950 . S
C1093 C1092 1.382 . S
C1093 C1109 1.411 . S
C1094 C1092 1.403 . S
C1094 C1095 1.489 . S
C1094 C1108 1.411 . S
C1095 C1094 1.489 . S
C1095 C1096 1.383 . S
C1095 C1100 1.382 . S
C1096 H1073 0.950 . S
C1096 C1095 1.383 . S
C1096 C1097 1.395 . S
C1097 H1074 0.950 . S
C1097 C1096 1.395 . S
C1097 C1098 1.288 . S
C1098 C1097 1.288 . S
C1098 C1099 1.392 . S
C1099 H1075 0.951 . S
C1099 C1098 1.392 . S
C1099 C1100 1.392 . S
C1100 H1076 0.949 . S
C1100 C1095 1.382 . S
C1100 C1099 1.392 . S
C1101 C1102 1.376 . S
C1101 C1106 1.386 . S
C1101 C1107 1.483 . S
C1102 H1077 0.949 . S
C1102 C1101 1.376 . S
C1102 C1103 1.397 . S
C1103 H1078 0.950 . S
C1103 C1102 1.397 . S
C1103 C1104 1.391 . S
C1104 C1103 1.391 . S
C1104 C1105 1.405 . S
C1105 H1079 0.950 . S
C1105 C1104 1.405 . S
C1105 C1106 1.367 . S
C1106 H1080 0.950 . S
C1106 C1101 1.386 . S
C1106 C1105 1.367 . S
C1107 C1101 1.483 . S
C1107 C1108 1.382 . S
C1107 C1109 1.403 . S
C1108 H1081 0.950 . S
C1108 C1094 1.411 . S
C1108 C1107 1.382 . S
C1109 C1093 1.411 . S
C1109 C1107 1.403 . S
C1109 C1110 1.489 . S
C1110 C1109 1.489 . S
C1110 C1111 1.383 . S
C1110 C1115 1.382 . S
C1111 H1082 0.950 . S
C1111 C1110 1.383 . S
C1111 C1112 1.395 . S
C1112 H1083 0.950 . S
C1112 C1111 1.395 . S
C1112 C1113 1.288 . S
C1113 C1112 1.288 . S
C1113 C1114 1.392 . S
C1114 H1084 0.951 . S
C1114 C1113 1.392 . S
C1114 C1115 1.392 . S
C1115 H1085 0.949 . S
C1115 C1110 1.382 . S
C1115 C1114 1.392 . S
H1116 C1122 0.930 . S
H1117 C1126 0.930 . S
H1118 C1131 0.929 . S
H1119 C1129 0.929 . S
H1120 C1124 0.929 . S
H1121 C1130 0.929 . S
C1122 H1116 0.930 . S
C1122 C1123 1.367 . S
C1122 C1130 1.378 . S
C1123 C1122 1.367 . S
C1123 C1131 1.433 1_655 S
C1124 H1120 0.929 . S
C1124 C1126 1.378 . S
C1124 C1128 1.350 1_455 S
C1125 C1128 1.463 . S
C1125 C1130 1.350 . S
C1125 N1133 1.427 1_655 S
C1126 H1117 0.930 . S
C1126 C1124 1.378 . S
C1126 C1127 1.367 1_455 S
C1127 C1126 1.367 1_655 S
C1127 C1129 1.433 . S
C1128 C1124 1.350 1_655 S
C1128 C1125 1.463 . S
C1128 N1132 1.427 . S
C1129 H1119 0.929 . S
C1129 C1127 1.433 . S
C1129 N1132 1.384 . S
C1130 H1121 0.929 . S
C1130 C1122 1.378 . S
C1130 C1125 1.350 . S
C1131 H1118 0.929 . S
C1131 C1123 1.433 1_455 S
C1131 N1133 1.384 . S
N1132 C1128 1.427 . S
N1132 C1129 1.384 . S
N1133 C1125 1.427 1_455 S
N1133 C1131 1.384 . S
H1134 C1140 0.930 . S
H1135 C1144 0.930 . S
H1136 C1149 0.929 . S
H1137 C1147 0.929 . S
H1138 C1142 0.929 . S
H1139 C1148 0.929 . S
C1140 H1134 0.930 . S
C1140 C1141 1.367 . S
C1140 C1148 1.378 . S
C1141 C1140 1.367 . S
C1141 C1149 1.433 . S
C1142 H1138 0.929 . S
C1142 C1144 1.378 . S
C1142 C1146 1.350 . S
C1143 C1146 1.463 . S
C1143 C1148 1.350 . S
C1143 N1151 1.427 . S
C1144 H1135 0.930 . S
C1144 C1142 1.378 . S
C1144 C1145 1.367 . S
C1145 C1144 1.367 . S
C1145 C1147 1.433 . S
C1146 C1142 1.350 . S
C1146 C1143 1.463 . S
C1146 N1150 1.427 . S
C1147 H1137 0.929 . S
C1147 C1145 1.433 . S
C1147 N1150 1.384 . S
C1148 H1139 0.929 . S
C1148 C1140 1.378 . S
C1148 C1143 1.350 . S
C1149 H1136 0.929 . S
C1149 C1141 1.433 . S
C1149 N1151 1.384 . S
N1150 C1146 1.427 . S
N1150 C1147 1.384 . S
N1151 C1143 1.427 . S
N1151 C1149 1.384 . S
H1152 C1158 0.930 . S
H1153 C1162 0.930 . S
H1154 C1167 0.929 . S
H1155 C1165 0.929 . S
H1156 C1160 0.929 . S
H1157 C1166 0.929 . S
C1158 H1152 0.930 . S
C1158 C1159 1.367 1_565 S
C1158 C1166 1.378 . S
C1159 C1158 1.367 1_545 S
C1159 C1167 1.433 . S
C1160 H1156 0.929 . S
C1160 C1162 1.378 . S
C1160 C1164 1.350 . S
C1161 C1164 1.463 . S
C1161 C1166 1.350 1_545 S
C1161 N1169 1.427 . S
C1162 H1153 0.930 . S
C1162 C1160 1.378 . S
C1162 C1163 1.367 . S
C1163 C1162 1.367 . S
C1163 C1165 1.433 1_545 S
C1164 C1160 1.350 . S
C1164 C1161 1.463 . S
C1164 N1168 1.427 1_545 S
C1165 H1155 0.929 . S
C1165 C1163 1.433 1_565 S
C1165 N1168 1.384 . S
C1166 H1157 0.929 . S
C1166 C1158 1.378 . S
C1166 C1161 1.350 1_565 S
C1167 H1154 0.929 . S
C1167 C1159 1.433 . S
C1167 N1169 1.384 . S
N1168 C1164 1.427 1_565 S
N1168 C1165 1.384 . S
N1169 C1161 1.427 . S
N1169 C1167 1.384 . S
H1170 C1176 0.930 . S
H1171 C1180 0.930 . S
H1172 C1185 0.929 . S
H1173 C1183 0.929 . S
H1174 C1178 0.929 . S
H1175 C1184 0.929 . S
C1176 H1170 0.930 . S
C1176 C1177 1.367 . S
C1176 C1184 1.378 . S
C1177 C1176 1.367 . S
C1177 C1185 1.433 1_565 S
C1178 H1174 0.929 . S
C1178 C1180 1.378 . S
C1178 C1182 1.350 1_545 S
C1179 C1182 1.463 . S
C1179 C1184 1.350 . S
C1179 N1187 1.427 1_565 S
C1180 H1171 0.930 . S
C1180 C1178 1.378 . S
C1180 C1181 1.367 1_545 S
C1181 C1180 1.367 1_565 S
C1181 C1183 1.433 . S
C1182 C1178 1.350 1_565 S
C1182 C1179 1.463 . S
C1182 N1186 1.427 . S
C1183 H1173 0.929 . S
C1183 C1181 1.433 . S
C1183 N1186 1.384 . S
C1184 H1175 0.929 . S
C1184 C1176 1.378 . S
C1184 C1179 1.350 . S
C1185 H1172 0.929 . S
C1185 C1177 1.433 1_545 S
C1185 N1187 1.384 . S
N1186 C1182 1.427 . S
N1186 C1183 1.384 . S
N1187 C1179 1.427 1_545 S
N1187 C1185 1.384 . S
H1188 C1194 0.930 1_655 S
H1189 C1198 0.930 . S
H1190 C1203 0.929 . S
H1191 C1201 0.929 . S
H1192 C1196 0.929 . S
H1193 C1202 0.900 1_655 S
C1194 H1188 0.930 1_455 S
C1194 C1195 1.367 . S
C1194 C1202 1.395 . S
C1195 C1194 1.367 . S
C1195 C1203 1.433 . S
C1196 H1192 0.929 . S
C1196 C1198 1.378 . S
C1196 C1200 1.350 . S
C1197 C1200 1.463 . S
C1197 C1202 1.363 . S
C1197 N1205 1.427 . S
C1198 H1189 0.930 . S
C1198 C1196 1.378 . S
C1198 C1199 1.367 . S
C1199 C1198 1.367 . S
C1199 C1201 1.433 1_455 S
C1200 C1196 1.350 . S
C1200 C1197 1.463 . S
C1200 N1204 1.402 1_455 S
C1201 H1191 0.929 . S
C1201 C1199 1.433 1_655 S
C1201 N1204 1.399 . S
C1202 H1193 0.900 1_455 S
C1202 C1194 1.395 . S
C1202 C1197 1.363 . S
C1203 H1190 0.929 . S
C1203 C1195 1.433 . S
C1203 N1205 1.384 . S
N1204 C1200 1.402 1_655 S
N1204 C1201 1.399 . S
N1205 C1197 1.427 . S
N1205 C1203 1.384 . S
H1206 C1212 0.930 . S
H1207 C1216 0.930 . S
H1208 C1221 0.929 . S
H1209 C1219 0.929 . S
H1210 C1214 0.929 . S
H1211 C1220 0.929 . S
C1212 H1206 0.930 . S
C1212 C1213 1.367 . S
C1212 C1220 1.378 . S
C1213 C1212 1.367 . S
C1213 C1221 1.433 . S
C1214 H1210 0.929 . S
C1214 C1216 1.378 . S
C1214 C1218 1.350 . S
C1215 C1218 1.463 . S
C1215 C1220 1.350 . S
C1215 N1223 1.427 . S
C1216 H1207 0.930 . S
C1216 C1214 1.378 . S
C1216 C1217 1.367 . S
C1217 C1216 1.367 . S
C1217 C1219 1.433 . S
C1218 C1214 1.350 . S
C1218 C1215 1.463 . S
C1218 N1222 1.427 . S
C1219 H1209 0.929 . S
C1219 C1217 1.433 . S
C1219 N1222 1.384 . S
C1220 H1211 0.929 . S
C1220 C1212 1.378 . S
C1220 C1215 1.350 . S
C1221 H1208 0.929 . S
C1221 C1213 1.433 . S
C1221 N1223 1.384 . S
N1222 C1218 1.427 . S
N1222 C1219 1.384 . S
N1223 C1215 1.427 . S
N1223 C1221 1.384 . S
H1224 C1230 0.930 . S
H1225 C1234 0.930 . S
H1226 C1239 0.929 . S
H1227 C1237 0.905 . S
H1228 C1232 0.929 . S
H1229 C1238 0.929 . S
C1230 H1224 0.930 . S
C1230 C1231 1.367 . S
C1230 C1238 1.378 . S
C1231 C1230 1.367 . S
C1231 C1239 1.433 . S
C1232 H1228 0.929 . S
C1232 C1234 1.378 . S
C1232 C1236 1.350 . S
C1233 C1236 1.463 . S
C1233 C1238 1.350 . S
C1233 N1241 1.427 . S
C1234 H1225 0.930 . S
C1234 C1232 1.378 . S
C1234 C1235 1.367 . S
C1235 C1234 1.367 . S
C1235 C1237 1.433 . S
C1236 C1232 1.350 . S
C1236 C1233 1.463 . S
C1236 N1240 1.427 . S
C1237 H1227 0.905 . S
C1237 C1235 1.433 . S
C1237 N1240 1.384 . S
C1238 H1229 0.929 . S
C1238 C1230 1.378 . S
C1238 C1233 1.350 . S
C1239 H1226 0.929 . S
C1239 C1231 1.433 . S
C1239 N1241 1.384 . S
N1240 C1236 1.427 . S
N1240 C1237 1.384 . S
N1241 C1233 1.427 . S
N1241 C1239 1.384 . S
H1242 C1248 0.930 . S
H1243 C1252 0.930 . S
H1244 C1257 0.929 . S
H1245 C1255 0.929 . S
H1246 C1250 0.929 . S
H1247 C1256 0.929 . S
C1248 H1242 0.930 . S
C1248 C1249 1.367 . S
C1248 C1256 1.378 . S
C1249 C1248 1.367 . S
C1249 C1257 1.433 . S
C1250 H1246 0.929 . S
C1250 C1252 1.378 . S
C1250 C1254 1.350 . S
C1251 C1254 1.463 . S
C1251 C1256 1.350 . S
C1251 N1259 1.427 . S
C1252 H1243 0.930 . S
C1252 C1250 1.378 . S
C1252 C1253 1.367 . S
C1253 C1252 1.367 . S
C1253 C1255 1.433 . S
C1254 C1250 1.350 . S
C1254 C1251 1.463 . S
C1254 N1258 1.427 . S
C1255 H1245 0.929 . S
C1255 C1253 1.433 . S
C1255 N1258 1.384 . S
C1256 H1247 0.929 . S
C1256 C1248 1.378 . S
C1256 C1251 1.350 . S
C1257 H1244 0.929 . S
C1257 C1249 1.433 . S
C1257 N1259 1.384 . S
N1258 C1254 1.427 . S
N1258 C1255 1.384 . S
N1259 C1251 1.427 . S
N1259 C1257 1.384 . S
H1260 C1266 0.930 . S
H1261 C1270 0.930 . S
H1262 C1275 0.929 . S
H1263 C1273 0.929 . S
H1264 C1268 0.929 . S
H1265 C1274 0.929 . S
C1266 H1260 0.930 . S
C1266 C1267 1.367 . S
C1266 C1274 1.378 . S
C1267 C1266 1.367 . S
C1267 C1275 1.433 1_565 S
C1268 H1264 0.929 . S
C1268 C1270 1.378 . S
C1268 C1272 1.350 1_545 S
C1269 C1272 1.463 . S
C1269 C1274 1.350 . S
C1269 N1277 1.427 1_565 S
C1270 H1261 0.930 . S
C1270 C1268 1.378 . S
C1270 C1271 1.367 1_545 S
C1271 C1270 1.367 1_565 S
C1271 C1273 1.433 . S
C1272 C1268 1.350 1_565 S
C1272 C1269 1.463 . S
C1272 N1276 1.427 . S
C1273 H1263 0.929 . S
C1273 C1271 1.433 . S
C1273 N1276 1.384 . S
C1274 H1265 0.929 . S
C1274 C1266 1.378 . S
C1274 C1269 1.350 . S
C1275 H1262 0.929 . S
C1275 C1267 1.433 1_545 S
C1275 N1277 1.384 . S
N1276 C1272 1.427 . S
N1276 C1273 1.384 . S
N1277 C1269 1.427 1_545 S
N1277 C1275 1.384 . S
H1278 C1284 0.930 . S
H1279 C1288 0.930 . S
H1280 C1293 0.929 . S
H1281 C1291 0.929 . S
H1282 C1286 0.929 . S
H1283 C1292 0.929 . S
C1284 H1278 0.930 . S
C1284 C1285 1.367 1_565 S
C1284 C1292 1.378 . S
C1285 C1284 1.367 1_545 S
C1285 C1293 1.433 . S
C1286 H1282 0.929 . S
C1286 C1288 1.378 . S
C1286 C1290 1.350 . S
C1287 C1290 1.463 . S
C1287 C1292 1.350 1_545 S
C1287 N1295 1.427 . S
C1288 H1279 0.930 . S
C1288 C1286 1.378 . S
C1288 C1289 1.367 . S
C1289 C1288 1.367 . S
C1289 C1291 1.433 1_545 S
C1290 C1286 1.350 . S
C1290 C1287 1.463 . S
C1290 N1294 1.427 1_545 S
C1291 H1281 0.929 . S
C1291 C1289 1.433 1_565 S
C1291 N1294 1.384 . S
C1292 H1283 0.929 . S
C1292 C1284 1.378 . S
C1292 C1287 1.350 1_565 S
C1293 H1280 0.929 . S
C1293 C1285 1.433 . S
C1293 N1295 1.384 . S
N1294 C1290 1.427 1_565 S
N1294 C1291 1.384 . S
N1295 C1287 1.427 . S
N1295 C1293 1.384 . S
H1296 C1302 0.930 . S
H1297 C1306 0.930 . S
H1298 C1311 0.929 . S
H1299 C1309 0.929 . S
H1300 C1304 0.929 . S
H1301 C1310 0.929 . S
C1302 H1296 0.930 . S
C1302 C1303 1.367 1_455 S
C1302 C1310 1.378 . S
C1303 C1302 1.367 1_655 S
C1303 C1311 1.433 . S
C1304 H1300 0.929 . S
C1304 C1306 1.378 . S
C1304 C1308 1.350 . S
C1305 C1308 1.463 . S
C1305 C1310 1.350 1_655 S
C1305 N1313 1.427 . S
C1306 H1297 0.930 . S
C1306 C1304 1.378 . S
C1306 C1307 1.367 . S
C1307 C1306 1.367 . S
C1307 C1309 1.433 1_655 S
C1308 C1304 1.350 . S
C1308 C1305 1.463 . S
C1308 N1312 1.427 1_655 S
C1309 H1299 0.929 . S
C1309 C1307 1.433 1_455 S
C1309 N1312 1.384 . S
C1310 H1301 0.929 . S
C1310 C1302 1.378 . S
C1310 C1305 1.350 1_455 S
C1311 H1298 0.929 . S
C1311 C1303 1.433 . S
C1311 N1313 1.384 . S
N1312 C1308 1.427 1_455 S
N1312 C1309 1.384 . S
N1313 C1305 1.427 . S
N1313 C1311 1.384 . S
H1314 C1320 0.930 . S
H1315 C1324 0.930 . S
H1316 C1329 0.929 . S
H1317 C1327 0.929 . S
H1318 C1322 0.929 . S
H1319 C1328 0.929 . S
C1320 H1314 0.930 . S
C1320 C1321 1.367 . S
C1320 C1328 1.378 . S
C1321 C1320 1.367 . S
C1321 C1329 1.433 . S
C1322 H1318 0.929 . S
C1322 C1324 1.378 . S
C1322 C1326 1.350 . S
C1323 C1326 1.463 . S
C1323 C1328 1.350 . S
C1323 N1331 1.427 . S
C1324 H1315 0.930 . S
C1324 C1322 1.378 . S
C1324 C1325 1.367 . S
C1325 C1324 1.367 . S
C1325 C1327 1.433 . S
C1326 C1322 1.350 . S
C1326 C1323 1.463 . S
C1326 N1330 1.427 . S
C1327 H1317 0.929 . S
C1327 C1325 1.433 . S
C1327 N1330 1.384 . S
C1328 H1319 0.929 . S
C1328 C1320 1.378 . S
C1328 C1323 1.350 . S
C1329 H1316 0.929 . S
C1329 C1321 1.433 . S
C1329 N1331 1.384 . S
N1330 C1326 1.427 . S
N1330 C1327 1.384 . S
N1331 C1323 1.427 . S
N1331 C1329 1.384 . S
H1332 C1338 0.930 . S
H1333 C1342 0.930 . S
H1334 C1347 0.929 . S
H1335 C1345 0.929 . S
H1336 C1340 0.929 . S
H1337 C1346 0.929 . S
C1338 H1332 0.930 . S
C1338 C1339 1.367 . S
C1338 C1346 1.378 . S
C1339 C1338 1.367 . S
C1339 C1347 1.433 . S
C1340 H1336 0.929 . S
C1340 C1342 1.378 . S
C1340 C1344 1.350 . S
C1341 C1344 1.463 . S
C1341 C1346 1.350 . S
C1341 N1349 1.427 . S
C1342 H1333 0.930 . S
C1342 C1340 1.378 . S
C1342 C1343 1.367 . S
C1343 C1342 1.367 . S
C1343 C1345 1.433 . S
C1344 C1340 1.350 . S
C1344 C1341 1.463 . S
C1344 N1348 1.427 . S
C1345 H1335 0.929 . S
C1345 C1343 1.433 . S
C1345 N1348 1.384 . S
C1346 H1337 0.929 . S
C1346 C1338 1.378 . S
C1346 C1341 1.350 . S
C1347 H1334 0.929 . S
C1347 C1339 1.433 . S
C1347 N1349 1.384 . S
N1348 C1344 1.427 . S
N1348 C1345 1.384 . S
N1349 C1341 1.427 . S
N1349 C1347 1.384 . S
H1350 C1356 0.930 . S
H1351 C1360 0.930 . S
H1352 C1365 0.929 . S
H1353 C1363 0.929 . S
H1354 C1358 0.929 . S
H1355 C1364 0.929 . S
C1356 H1350 0.930 . S
C1356 C1357 1.367 . S
C1356 C1364 1.378 . S
C1357 C1356 1.367 . S
C1357 C1365 1.433 . S
C1358 H1354 0.929 . S
C1358 C1360 1.378 . S
C1358 C1362 1.350 . S
C1359 C1362 1.463 . S
C1359 C1364 1.350 . S
C1359 N1367 1.427 . S
C1360 H1351 0.930 . S
C1360 C1358 1.378 . S
C1360 C1361 1.367 . S
C1361 C1360 1.367 . S
C1361 C1363 1.433 . S
C1362 C1358 1.350 . S
C1362 C1359 1.463 . S
C1362 N1366 1.427 . S
C1363 H1353 0.929 . S
C1363 C1361 1.433 . S
C1363 N1366 1.384 . S
C1364 H1355 0.929 . S
C1364 C1356 1.378 . S
C1364 C1359 1.350 . S
C1365 H1352 0.929 . S
C1365 C1357 1.433 . S
C1365 N1367 1.384 . S
N1366 C1362 1.427 . S
N1366 C1363 1.384 . S
N1367 C1359 1.427 . S
N1367 C1365 1.384 . S
H1368 C1374 0.930 . S
H1369 C1378 0.930 . S
H1370 C1383 0.929 . S
H1371 C1381 0.929 . S
H1372 C1376 0.929 . S
H1373 C1382 0.929 . S
C1374 H1368 0.930 . S
C1374 C1375 1.367 . S
C1374 C1382 1.378 . S
C1375 C1374 1.367 . S
C1375 C1383 1.433 . S
C1376 H1372 0.929 . S
C1376 C1378 1.378 . S
C1376 C1380 1.350 . S
C1377 C1380 1.463 . S
C1377 C1382 1.350 . S
C1377 N1385 1.427 . S
C1378 H1369 0.930 . S
C1378 C1376 1.378 . S
C1378 C1379 1.367 . S
C1379 C1378 1.367 . S
C1379 C1381 1.433 . S
C1380 C1376 1.350 . S
C1380 C1377 1.463 . S
C1380 N1384 1.427 . S
C1381 H1371 0.929 . S
C1381 C1379 1.433 . S
C1381 N1384 1.384 . S
C1382 H1373 0.929 . S
C1382 C1374 1.378 . S
C1382 C1377 1.350 . S
C1383 H1370 0.929 . S
C1383 C1375 1.433 . S
C1383 N1385 1.384 . S
N1384 C1380 1.427 . S
N1384 C1381 1.384 . S
N1385 C1377 1.427 . S
N1385 C1383 1.384 . S
H1386 C1392 0.930 . S
H1387 C1396 0.930 . S
H1388 C1401 0.929 . S
H1389 C1399 0.929 . S
H1390 C1394 0.929 . S
H1391 C1400 0.929 . S
C1392 H1386 0.930 . S
C1392 C1393 1.367 . S
C1392 C1400 1.378 . S
C1393 C1392 1.367 . S
C1393 C1401 1.433 . S
C1394 H1390 0.929 . S
C1394 C1396 1.378 . S
C1394 C1398 1.350 . S
C1395 C1398 1.463 . S
C1395 C1400 1.350 . S
C1395 N1403 1.427 . S
C1396 H1387 0.930 . S
C1396 C1394 1.378 . S
C1396 C1397 1.367 . S
C1397 C1396 1.367 . S
C1397 C1399 1.433 . S
C1398 C1394 1.350 . S
C1398 C1395 1.463 . S
C1398 N1402 1.427 . S
C1399 H1389 0.929 . S
C1399 C1397 1.433 . S
C1399 N1402 1.384 . S
C1400 H1391 0.929 . S
C1400 C1392 1.378 . S
C1400 C1395 1.350 . S
C1401 H1388 0.929 . S
C1401 C1393 1.433 . S
C1401 N1403 1.384 . S
N1402 C1398 1.427 . S
N1402 C1399 1.384 . S
N1403 C1395 1.427 . S
N1403 C1401 1.384 . S
H1404 C1410 0.930 . S
H1405 C1414 0.930 . S
H1406 C1419 0.929 . S
H1407 C1417 0.929 . S
H1408 C1412 0.929 . S
H1409 C1418 0.929 . S
C1410 H1404 0.930 . S
C1410 C1411 1.367 . S
C1410 C1418 1.378 . S
C1411 C1410 1.367 . S
C1411 C1419 1.433 . S
C1412 H1408 0.929 . S
C1412 C1414 1.378 . S
C1412 C1416 1.350 . S
C1413 C1416 1.463 . S
C1413 C1418 1.350 . S
C1413 N1421 1.427 . S
C1414 H1405 0.930 . S
C1414 C1412 1.378 . S
C1414 C1415 1.367 . S
C1415 C1414 1.367 . S
C1415 C1417 1.433 . S
C1416 C1412 1.350 . S
C1416 C1413 1.463 . S
C1416 N1420 1.427 . S
C1417 H1407 0.929 . S
C1417 C1415 1.433 . S
C1417 N1420 1.384 . S
C1418 H1409 0.929 . S
C1418 C1410 1.378 . S
C1418 C1413 1.350 . S
C1419 H1406 0.929 . S
C1419 C1411 1.433 . S
C1419 N1421 1.384 . S
N1420 C1416 1.427 . S
N1420 C1417 1.384 . S
N1421 C1413 1.427 . S
N1421 C1419 1.384 . S
H1422 C1428 0.930 . S
H1423 C1432 0.930 . S
H1424 C1437 0.929 . S
H1425 C1435 0.929 . S
H1426 C1430 0.929 . S
H1427 C1436 0.929 . S
C1428 H1422 0.930 . S
C1428 C1429 1.367 . S
C1428 C1436 1.378 . S
C1429 C1428 1.367 . S
C1429 C1437 1.433 . S
C1430 H1426 0.929 . S
C1430 C1432 1.378 . S
C1430 C1434 1.350 . S
C1431 C1434 1.463 . S
C1431 C1436 1.350 . S
C1431 N1439 1.427 . S
C1432 H1423 0.930 . S
C1432 C1430 1.378 . S
C1432 C1433 1.367 . S
C1433 C1432 1.367 . S
C1433 C1435 1.433 . S
C1434 C1430 1.350 . S
C1434 C1431 1.463 . S
C1434 N1438 1.427 . S
C1435 H1425 0.929 . S
C1435 C1433 1.433 . S
C1435 N1438 1.384 . S
C1436 H1427 0.929 . S
C1436 C1428 1.378 . S
C1436 C1431 1.350 . S
C1437 H1424 0.929 . S
C1437 C1429 1.433 . S
C1437 N1439 1.384 . S
N1438 C1434 1.427 . S
N1438 C1435 1.384 . S
N1439 C1431 1.427 . S
N1439 C1437 1.384 . S
H1440 C1446 0.930 . S
H1441 C1450 0.930 . S
H1442 C1455 0.929 . S
H1443 C1453 0.929 . S
H1444 C1448 0.929 . S
H1445 C1454 0.929 . S
C1446 H1440 0.930 . S
C1446 C1447 1.367 . S
C1446 C1454 1.378 . S
C1447 C1446 1.367 . S
C1447 C1455 1.433 . S
C1448 H1444 0.929 . S
C1448 C1450 1.378 . S
C1448 C1452 1.350 . S
C1449 C1452 1.463 . S
C1449 C1454 1.350 . S
C1449 N1457 1.427 . S
C1450 H1441 0.930 . S
C1450 C1448 1.378 . S
C1450 C1451 1.367 . S
C1451 C1450 1.367 . S
C1451 C1453 1.433 . S
C1452 C1448 1.350 . S
C1452 C1449 1.463 . S
C1452 N1456 1.427 . S
C1453 H1443 0.929 . S
C1453 C1451 1.433 . S
C1453 N1456 1.384 . S
C1454 H1445 0.929 . S
C1454 C1446 1.378 . S
C1454 C1449 1.350 . S
C1455 H1442 0.929 . S
C1455 C1447 1.433 . S
C1455 N1457 1.384 . S
N1456 C1452 1.427 . S
N1456 C1453 1.384 . S
N1457 C1449 1.427 . S
N1457 C1455 1.384 . S
H1458 C1464 0.930 . S
H1459 C1468 0.930 . S
H1460 C1473 0.929 . S
H1461 C1471 0.929 . S
H1462 C1466 0.929 . S
H1463 C1472 0.929 . S
C1464 H1458 0.930 . S
C1464 C1465 1.367 . S
C1464 C1472 1.378 . S
C1465 C1464 1.367 . S
C1465 C1473 1.433 . S
C1466 H1462 0.929 . S
C1466 C1468 1.378 . S
C1466 C1470 1.350 . S
C1467 C1470 1.463 . S
C1467 C1472 1.350 . S
C1467 N1475 1.427 . S
C1468 H1459 0.930 . S
C1468 C1466 1.378 . S
C1468 C1469 1.367 . S
C1469 C1468 1.367 . S
C1469 C1471 1.433 . S
C1470 C1466 1.350 . S
C1470 C1467 1.463 . S
C1470 N1474 1.427 . S
C1471 H1461 0.929 . S
C1471 C1469 1.433 . S
C1471 N1474 1.384 . S
C1472 H1463 0.929 . S
C1472 C1464 1.378 . S
C1472 C1467 1.350 . S
C1473 H1460 0.929 . S
C1473 C1465 1.433 . S
C1473 N1475 1.384 . S
N1474 C1470 1.427 . S
N1474 C1471 1.384 . S
N1475 C1467 1.427 . S
N1475 C1473 1.384 . S
H1476 C1482 0.930 . S
H1477 C1486 0.930 . S
H1478 C1491 0.929 . S
H1479 C1489 0.929 . S
H1480 C1484 0.929 . S
H1481 C1490 0.929 . S
C1482 H1476 0.930 . S
C1482 C1483 1.367 . S
C1482 C1490 1.378 . S
C1483 C1482 1.367 . S
C1483 C1491 1.433 . S
C1484 H1480 0.929 . S
C1484 C1486 1.378 . S
C1484 C1488 1.350 . S
C1485 C1488 1.463 . S
C1485 C1490 1.350 . S
C1485 N1493 1.427 . S
C1486 H1477 0.930 . S
C1486 C1484 1.378 . S
C1486 C1487 1.367 . S
C1487 C1486 1.367 . S
C1487 C1489 1.433 . S
C1488 C1484 1.350 . S
C1488 C1485 1.463 . S
C1488 N1492 1.427 . S
C1489 H1479 0.929 . S
C1489 C1487 1.433 . S
C1489 N1492 1.384 . S
C1490 H1481 0.929 . S
C1490 C1482 1.378 . S
C1490 C1485 1.350 . S
C1491 H1478 0.929 . S
C1491 C1483 1.433 . S
C1491 N1493 1.384 . S
N1492 C1488 1.427 . S
N1492 C1489 1.384 . S
N1493 C1485 1.427 . S
N1493 C1491 1.384 . S
H1494 C1500 0.930 . S
H1495 C1504 0.930 . S
H1496 C1509 0.929 . S
H1497 C1507 0.929 . S
H1498 C1502 0.929 . S
H1499 C1508 0.929 . S
C1500 H1494 0.930 . S
C1500 C1501 1.367 . S
C1500 C1508 1.378 . S
C1501 C1500 1.367 . S
C1501 C1509 1.433 . S
C1502 H1498 0.929 . S
C1502 C1504 1.378 . S
C1502 C1506 1.350 . S
C1503 C1506 1.463 . S
C1503 C1508 1.350 . S
C1503 N1511 1.427 . S
C1504 H1495 0.930 . S
C1504 C1502 1.378 . S
C1504 C1505 1.367 . S
C1505 C1504 1.367 . S
C1505 C1507 1.433 . S
C1506 C1502 1.350 . S
C1506 C1503 1.463 . S
C1506 N1510 1.427 . S
C1507 H1497 0.929 . S
C1507 C1505 1.433 . S
C1507 N1510 1.384 . S
C1508 H1499 0.929 . S
C1508 C1500 1.378 . S
C1508 C1503 1.350 . S
C1509 H1496 0.929 . S
C1509 C1501 1.433 . S
C1509 N1511 1.384 . S
N1510 C1506 1.427 . S
N1510 C1507 1.384 . S
N1511 C1503 1.427 . S
N1511 C1509 1.384 . S
H1512 C1518 0.930 . S
H1513 C1522 0.930 . S
H1514 C1527 0.929 . S
H1515 C1525 0.929 . S
H1516 C1520 0.929 . S
H1517 C1526 0.929 . S
C1518 H1512 0.930 . S
C1518 C1519 1.367 . S
C1518 C1526 1.378 . S
C1519 C1518 1.367 . S
C1519 C1527 1.433 . S
C1520 H1516 0.929 . S
C1520 C1522 1.378 . S
C1520 C1524 1.350 . S
C1521 C1524 1.463 . S
C1521 C1526 1.350 . S
C1521 N1529 1.427 . S
C1522 H1513 0.930 . S
C1522 C1520 1.378 . S
C1522 C1523 1.367 . S
C1523 C1522 1.367 . S
C1523 C1525 1.433 . S
C1524 C1520 1.350 . S
C1524 C1521 1.463 . S
C1524 N1528 1.427 . S
C1525 H1515 0.929 . S
C1525 C1523 1.433 . S
C1525 N1528 1.384 . S
C1526 H1517 0.929 . S
C1526 C1518 1.378 . S
C1526 C1521 1.350 . S
C1527 H1514 0.929 . S
C1527 C1519 1.433 . S
C1527 N1529 1.384 . S
N1528 C1524 1.427 . S
N1528 C1525 1.384 . S
N1529 C1521 1.427 . S
N1529 C1527 1.384 . S
H1530 C1536 0.930 . S
H1531 C1540 0.930 . S
H1532 C1545 0.929 . S
H1533 C1543 0.929 . S
H1534 C1538 0.929 . S
H1535 C1544 0.929 . S
C1536 H1530 0.930 . S
C1536 C1537 1.367 . S
C1536 C1544 1.378 . S
C1537 C1536 1.367 . S
C1537 C1545 1.433 . S
C1538 H1534 0.929 . S
C1538 C1540 1.378 . S
C1538 C1542 1.350 . S
C1539 C1542 1.463 . S
C1539 C1544 1.350 . S
C1539 N1547 1.427 . S
C1540 H1531 0.930 . S
C1540 C1538 1.378 . S
C1540 C1541 1.367 . S
C1541 C1540 1.367 . S
C1541 C1543 1.433 . S
C1542 C1538 1.350 . S
C1542 C1539 1.463 . S
C1542 N1546 1.427 . S
C1543 H1533 0.929 . S
C1543 C1541 1.433 . S
C1543 N1546 1.384 . S
C1544 H1535 0.929 . S
C1544 C1536 1.378 . S
C1544 C1539 1.350 . S
C1545 H1532 0.929 . S
C1545 C1537 1.433 . S
C1545 N1547 1.384 . S
N1546 C1542 1.427 . S
N1546 C1543 1.384 . S
N1547 C1539 1.427 . S
N1547 C1545 1.384 . S
H1548 C1554 0.930 . S
H1549 C1558 0.930 . S
H1550 C1563 0.929 . S
H1551 C1561 0.929 . S
H1552 C1556 0.929 . S
H1553 C1562 0.929 . S
C1554 H1548 0.930 . S
C1554 C1555 1.367 . S
C1554 C1562 1.378 . S
C1555 C1554 1.367 . S
C1555 C1563 1.433 . S
C1556 H1552 0.929 . S
C1556 C1558 1.378 . S
C1556 C1560 1.350 . S
C1557 C1560 1.463 . S
C1557 C1562 1.350 . S
C1557 N1565 1.427 . S
C1558 H1549 0.930 . S
C1558 C1556 1.378 . S
C1558 C1559 1.367 . S
C1559 C1558 1.367 . S
C1559 C1561 1.433 . S
C1560 C1556 1.350 . S
C1560 C1557 1.463 . S
C1560 N1564 1.427 . S
C1561 H1551 0.929 . S
C1561 C1559 1.433 . S
C1561 N1564 1.384 . S
C1562 H1553 0.929 . S
C1562 C1554 1.378 . S
C1562 C1557 1.350 . S
C1563 H1550 0.929 . S
C1563 C1555 1.433 . S
C1563 N1565 1.384 . S
N1564 C1560 1.427 . S
N1564 C1561 1.384 . S
N1565 C1557 1.427 . S
N1565 C1563 1.384 . S
H1566 C1572 0.930 . S
H1567 C1576 0.930 . S
H1568 C1581 0.929 . S
H1569 C1579 0.929 . S
H1570 C1574 0.929 . S
H1571 C1580 0.929 . S
C1572 H1566 0.930 . S
C1572 C1573 1.367 . S
C1572 C1580 1.378 . S
C1573 C1572 1.367 . S
C1573 C1581 1.433 . S
C1574 H1570 0.929 . S
C1574 C1576 1.378 . S
C1574 C1578 1.350 . S
C1575 C1578 1.463 . S
C1575 C1580 1.350 . S
C1575 N1583 1.427 . S
C1576 H1567 0.930 . S
C1576 C1574 1.378 . S
C1576 C1577 1.367 . S
C1577 C1576 1.367 . S
C1577 C1579 1.433 . S
C1578 C1574 1.350 . S
C1578 C1575 1.463 . S
C1578 N1582 1.427 . S
C1579 H1569 0.929 . S
C1579 C1577 1.433 . S
C1579 N1582 1.384 . S
C1580 H1571 0.929 . S
C1580 C1572 1.378 . S
C1580 C1575 1.350 . S
C1581 H1568 0.929 . S
C1581 C1573 1.433 . S
C1581 N1583 1.384 . S
N1582 C1578 1.427 . S
N1582 C1579 1.384 . S
N1583 C1575 1.427 . S
N1583 C1581 1.384 . S
H1584 C1590 0.930 . S
H1585 C1594 0.930 . S
H1586 C1599 0.929 . S
H1587 C1597 0.929 . S
H1588 C1592 0.929 . S
H1589 C1598 0.929 . S
C1590 H1584 0.930 . S
C1590 C1591 1.367 . S
C1590 C1598 1.378 . S
C1591 C1590 1.367 . S
C1591 C1599 1.433 . S
C1592 H1588 0.929 . S
C1592 C1594 1.378 . S
C1592 C1596 1.350 . S
C1593 C1596 1.463 . S
C1593 C1598 1.350 . S
C1593 N1601 1.427 . S
C1594 H1585 0.930 . S
C1594 C1592 1.378 . S
C1594 C1595 1.367 . S
C1595 C1594 1.367 . S
C1595 C1597 1.433 . S
C1596 C1592 1.350 . S
C1596 C1593 1.463 . S
C1596 N1600 1.427 . S
C1597 H1587 0.929 . S
C1597 C1595 1.433 . S
C1597 N1600 1.384 . S
C1598 H1589 0.929 . S
C1598 C1590 1.378 . S
C1598 C1593 1.350 . S
C1599 H1586 0.929 . S
C1599 C1591 1.433 . S
C1599 N1601 1.384 . S
N1600 C1596 1.427 . S
N1600 C1597 1.384 . S
N1601 C1593 1.427 . S
N1601 C1599 1.384 . S
H1602 C1608 0.930 . S
H1603 C1612 0.930 . S
H1604 C1617 0.929 . S
H1605 C1615 0.929 . S
H1606 C1610 0.929 . S
H1607 C1616 0.929 . S
C1608 H1602 0.930 . S
C1608 C1609 1.367 . S
C1608 C1616 1.378 . S
C1609 C1608 1.367 . S
C1609 C1617 1.433 . S
C1610 H1606 0.929 . S
C1610 C1612 1.378 . S
C1610 C1614 1.350 . S
C1611 C1614 1.463 . S
C1611 C1616 1.350 . S
C1611 N1619 1.427 . S
C1612 H1603 0.930 . S
C1612 C1610 1.378 . S
C1612 C1613 1.367 . S
C1613 C1612 1.367 . S
C1613 C1615 1.433 . S
C1614 C1610 1.350 . S
C1614 C1611 1.463 . S
C1614 N1618 1.427 . S
C1615 H1605 0.929 . S
C1615 C1613 1.433 . S
C1615 N1618 1.384 . S
C1616 H1607 0.929 . S
C1616 C1608 1.378 . S
C1616 C1611 1.350 . S
C1617 H1604 0.929 . S
C1617 C1609 1.433 . S
C1617 N1619 1.384 . S
N1618 C1614 1.427 . S
N1618 C1615 1.384 . S
N1619 C1611 1.427 . S
N1619 C1617 1.384 . S
H1620 C1626 0.930 . S
H1621 C1630 0.930 . S
H1622 C1635 0.929 . S
H1623 C1633 0.929 . S
H1624 C1628 0.929 . S
H1625 C1634 0.929 . S
C1626 H1620 0.930 . S
C1626 C1627 1.367 . S
C1626 C1634 1.378 . S
C1627 C1626 1.367 . S
C1627 C1635 1.433 . S
C1628 H1624 0.929 . S
C1628 C1630 1.378 . S
C1628 C1632 1.350 . S
C1629 C1632 1.463 . S
C1629 C1634 1.350 . S
C1629 N1637 1.427 . S
C1630 H1621 0.930 . S
C1630 C1628 1.378 . S
C1630 C1631 1.367 . S
C1631 C1630 1.367 . S
C1631 C1633 1.433 . S
C1632 C1628 1.350 . S
C1632 C1629 1.463 . S
C1632 N1636 1.427 . S
C1633 H1623 0.929 . S
C1633 C1631 1.433 . S
C1633 N1636 1.384 . S
C1634 H1625 0.929 . S
C1634 C1626 1.378 . S
C1634 C1629 1.350 . S
C1635 H1622 0.929 . S
C1635 C1627 1.433 . S
C1635 N1637 1.384 . S
N1636 C1632 1.427 . S
N1636 C1633 1.384 . S
N1637 C1629 1.427 . S
N1637 C1635 1.384 . S
H1638 C1644 0.930 . S
H1639 C1648 0.930 . S
H1640 C1653 0.929 . S
H1641 C1651 0.929 . S
H1642 C1646 0.929 . S
H1643 C1652 0.929 . S
C1644 H1638 0.930 . S
C1644 C1645 1.367 . S
C1644 C1652 1.378 . S
C1645 C1644 1.367 . S
C1645 C1653 1.433 . S
C1646 H1642 0.929 . S
C1646 C1648 1.378 . S
C1646 C1650 1.350 . S
C1647 C1650 1.463 . S
C1647 C1652 1.350 . S
C1647 N1655 1.427 . S
C1648 H1639 0.930 . S
C1648 C1646 1.378 . S
C1648 C1649 1.367 . S
C1649 C1648 1.367 . S
C1649 C1651 1.433 . S
C1650 C1646 1.350 . S
C1650 C1647 1.463 . S
C1650 N1654 1.427 . S
C1651 H1641 0.929 . S
C1651 C1649 1.433 . S
C1651 N1654 1.384 . S
C1652 H1643 0.929 . S
C1652 C1644 1.378 . S
C1652 C1647 1.350 . S
C1653 H1640 0.929 . S
C1653 C1645 1.433 . S
C1653 N1655 1.384 . S
N1654 C1650 1.427 . S
N1654 C1651 1.384 . S
N1655 C1647 1.427 . S
N1655 C1653 1.384 . S
H1656 C1662 0.930 . S
H1657 C1666 0.930 . S
H1658 C1671 0.929 . S
H1659 C1669 0.929 . S
H1660 C1664 0.929 . S
H1661 C1670 0.929 . S
C1662 H1656 0.930 . S
C1662 C1663 1.367 . S
C1662 C1670 1.378 . S
C1663 C1662 1.367 . S
C1663 C1671 1.433 . S
C1664 H1660 0.929 . S
C1664 C1666 1.378 . S
C1664 C1668 1.350 . S
C1665 C1668 1.463 . S
C1665 C1670 1.350 . S
C1665 N1673 1.427 . S
C1666 H1657 0.930 . S
C1666 C1664 1.378 . S
C1666 C1667 1.367 . S
C1667 C1666 1.367 . S
C1667 C1669 1.433 . S
C1668 C1664 1.350 . S
C1668 C1665 1.463 . S
C1668 N1672 1.427 . S
C1669 H1659 0.929 . S
C1669 C1667 1.433 . S
C1669 N1672 1.384 . S
C1670 H1661 0.929 . S
C1670 C1662 1.378 . S
C1670 C1665 1.350 . S
C1671 H1658 0.929 . S
C1671 C1663 1.433 . S
C1671 N1673 1.384 . S
N1672 C1668 1.427 . S
N1672 C1669 1.384 . S
N1673 C1665 1.427 . S
N1673 C1671 1.384 . S
H1674 C1680 0.930 . S
H1675 C1684 0.930 . S
H1676 C1689 0.929 . S
H1677 C1687 0.929 . S
H1678 C1682 0.929 . S
H1679 C1688 0.929 . S
C1680 H1674 0.930 . S
C1680 C1681 1.367 . S
C1680 C1688 1.378 . S
C1681 C1680 1.367 . S
C1681 C1689 1.433 . S
C1682 H1678 0.929 . S
C1682 C1684 1.378 . S
C1682 C1686 1.350 . S
C1683 C1686 1.463 . S
C1683 C1688 1.350 . S
C1683 N1691 1.427 . S
C1684 H1675 0.930 . S
C1684 C1682 1.378 . S
C1684 C1685 1.367 . S
C1685 C1684 1.367 . S
C1685 C1687 1.433 . S
C1686 C1682 1.350 . S
C1686 C1683 1.463 . S
C1686 N1690 1.427 . S
C1687 H1677 0.929 . S
C1687 C1685 1.433 . S
C1687 N1690 1.384 . S
C1688 H1679 0.929 . S
C1688 C1680 1.378 . S
C1688 C1683 1.350 . S
C1689 H1676 0.929 . S
C1689 C1681 1.433 . S
C1689 N1691 1.384 . S
N1690 C1686 1.427 . S
N1690 C1687 1.384 . S
N1691 C1683 1.427 . S
N1691 C1689 1.384 . S
H1692 C1698 0.930 . S
H1693 C1702 0.930 . S
H1694 C1707 0.929 . S
H1695 C1705 0.929 . S
H1696 C1700 0.929 . S
H1697 C1706 0.929 . S
C1698 H1692 0.930 . S
C1698 C1699 1.367 . S
C1698 C1706 1.378 . S
C1699 C1698 1.367 . S
C1699 C1707 1.433 . S
C1700 H1696 0.929 . S
C1700 C1702 1.378 . S
C1700 C1704 1.350 . S
C1701 C1704 1.463 . S
C1701 C1706 1.350 . S
C1701 N1709 1.427 . S
C1702 H1693 0.930 . S
C1702 C1700 1.378 . S
C1702 C1703 1.367 . S
C1703 C1702 1.367 . S
C1703 C1705 1.433 . S
C1704 C1700 1.350 . S
C1704 C1701 1.463 . S
C1704 N1708 1.427 . S
C1705 H1695 0.929 . S
C1705 C1703 1.433 . S
C1705 N1708 1.384 . S
C1706 H1697 0.929 . S
C1706 C1698 1.378 . S
C1706 C1701 1.350 . S
C1707 H1694 0.929 . S
C1707 C1699 1.433 . S
C1707 N1709 1.384 . S
N1708 C1704 1.427 . S
N1708 C1705 1.384 . S
N1709 C1701 1.427 . S
N1709 C1707 1.384 . S
H1710 C1716 0.930 . S
H1711 C1720 0.930 . S
H1712 C1725 0.929 . S
H1713 C1723 0.929 . S
H1714 C1718 0.929 . S
H1715 C1724 0.929 . S
C1716 H1710 0.930 . S
C1716 C1717 1.367 . S
C1716 C1724 1.378 . S
C1717 C1716 1.367 . S
C1717 C1725 1.433 . S
C1718 H1714 0.929 . S
C1718 C1720 1.378 . S
C1718 C1722 1.350 . S
C1719 C1722 1.463 . S
C1719 C1724 1.350 . S
C1719 N1727 1.427 . S
C1720 H1711 0.930 . S
C1720 C1718 1.378 . S
C1720 C1721 1.367 . S
C1721 C1720 1.367 . S
C1721 C1723 1.433 . S
C1722 C1718 1.350 . S
C1722 C1719 1.463 . S
C1722 N1726 1.427 . S
C1723 H1713 0.929 . S
C1723 C1721 1.433 . S
C1723 N1726 1.384 . S
C1724 H1715 0.929 . S
C1724 C1716 1.378 . S
C1724 C1719 1.350 . S
C1725 H1712 0.929 . S
C1725 C1717 1.433 . S
C1725 N1727 1.384 . S
N1726 C1722 1.427 . S
N1726 C1723 1.384 . S
N1727 C1719 1.427 . S
N1727 C1725 1.384 . S
H1728 C1734 0.930 . S
H1729 C1738 0.930 . S
H1730 C1743 0.929 . S
H1731 C1741 0.929 . S
H1732 C1736 0.929 . S
H1733 C1742 0.929 . S
C1734 H1728 0.930 . S
C1734 C1735 1.367 . S
C1734 C1742 1.378 . S
C1735 C1734 1.367 . S
C1735 C1743 1.433 . S
C1736 H1732 0.929 . S
C1736 C1738 1.378 . S
C1736 C1740 1.350 . S
C1737 C1740 1.463 . S
C1737 C1742 1.350 . S
C1737 N1745 1.427 . S
C1738 H1729 0.930 . S
C1738 C1736 1.378 . S
C1738 C1739 1.367 . S
C1739 C1738 1.367 . S
C1739 C1741 1.433 . S
C1740 C1736 1.350 . S
C1740 C1737 1.463 . S
C1740 N1744 1.427 . S
C1741 H1731 0.929 . S
C1741 C1739 1.433 . S
C1741 N1744 1.384 . S
C1742 H1733 0.929 . S
C1742 C1734 1.378 . S
C1742 C1737 1.350 . S
C1743 H1730 0.929 . S
C1743 C1735 1.433 . S
C1743 N1745 1.384 . S
N1744 C1740 1.427 . S
N1744 C1741 1.384 . S
N1745 C1737 1.427 . S
N1745 C1743 1.384 . S
H1746 C1752 0.930 . S
H1747 C1756 0.930 . S
H1748 C1761 0.929 . S
H1749 C1759 0.929 . S
H1750 C1754 0.929 . S
H1751 C1760 0.929 . S
C1752 H1746 0.930 . S
C1752 C1753 1.367 . S
C1752 C1760 1.378 . S
C1753 C1752 1.367 . S
C1753 C1761 1.433 . S
C1754 H1750 0.929 . S
C1754 C1756 1.378 . S
C1754 C1758 1.350 . S
C1755 C1758 1.463 . S
C1755 C1760 1.350 . S
C1755 N1763 1.427 . S
C1756 H1747 0.930 . S
C1756 C1754 1.378 . S
C1756 C1757 1.367 . S
C1757 C1756 1.367 . S
C1757 C1759 1.433 . S
C1758 C1754 1.350 . S
C1758 C1755 1.463 . S
C1758 N1762 1.427 . S
C1759 H1749 0.929 . S
C1759 C1757 1.433 . S
C1759 N1762 1.384 . S
C1760 H1751 0.929 . S
C1760 C1752 1.378 . S
C1760 C1755 1.350 . S
C1761 H1748 0.929 . S
C1761 C1753 1.433 . S
C1761 N1763 1.384 . S
N1762 C1758 1.427 . S
N1762 C1759 1.384 . S
N1763 C1755 1.427 . S
N1763 C1761 1.384 . S
H1764 C1770 0.930 . S
H1765 C1774 0.930 . S
H1766 C1779 0.929 . S
H1767 C1777 0.929 . S
H1768 C1772 0.929 . S
H1769 C1778 0.929 . S
C1770 H1764 0.930 . S
C1770 C1771 1.367 . S
C1770 C1778 1.378 . S
C1771 C1770 1.367 . S
C1771 C1779 1.433 . S
C1772 H1768 0.929 . S
C1772 C1774 1.378 . S
C1772 C1776 1.350 . S
C1773 C1776 1.463 . S
C1773 C1778 1.350 . S
C1773 N1781 1.427 . S
C1774 H1765 0.930 . S
C1774 C1772 1.378 . S
C1774 C1775 1.367 . S
C1775 C1774 1.367 . S
C1775 C1777 1.433 . S
C1776 C1772 1.350 . S
C1776 C1773 1.463 . S
C1776 N1780 1.427 . S
C1777 H1767 0.929 . S
C1777 C1775 1.433 . S
C1777 N1780 1.384 . S
C1778 H1769 0.929 . S
C1778 C1770 1.378 . S
C1778 C1773 1.350 . S
C1779 H1766 0.929 . S
C1779 C1771 1.433 . S
C1779 N1781 1.384 . S
N1780 C1776 1.427 . S
N1780 C1777 1.384 . S
N1781 C1773 1.427 . S
N1781 C1779 1.384 . S
H1782 C1788 0.930 . S
H1783 C1792 0.930 . S
H1784 C1797 0.929 . S
H1785 C1795 0.929 . S
H1786 C1790 0.929 . S
H1787 C1796 0.929 . S
C1788 H1782 0.930 . S
C1788 C1789 1.367 . S
C1788 C1796 1.378 . S
C1789 C1788 1.367 . S
C1789 C1797 1.433 . S
C1790 H1786 0.929 . S
C1790 C1792 1.378 . S
C1790 C1794 1.350 . S
C1791 C1794 1.463 . S
C1791 C1796 1.350 . S
C1791 N1799 1.427 . S
C1792 H1783 0.930 . S
C1792 C1790 1.378 . S
C1792 C1793 1.367 . S
C1793 C1792 1.367 . S
C1793 C1795 1.433 . S
C1794 C1790 1.350 . S
C1794 C1791 1.463 . S
C1794 N1798 1.427 . S
C1795 H1785 0.929 . S
C1795 C1793 1.433 . S
C1795 N1798 1.384 . S
C1796 H1787 0.929 . S
C1796 C1788 1.378 . S
C1796 C1791 1.350 . S
C1797 H1784 0.929 . S
C1797 C1789 1.433 . S
C1797 N1799 1.384 . S
N1798 C1794 1.427 . S
N1798 C1795 1.384 . S
N1799 C1791 1.427 . S
N1799 C1797 1.384 . S
H1800 C1806 0.930 . S
H1801 C1810 0.930 . S
H1802 C1815 0.929 . S
H1803 C1813 0.929 . S
H1804 C1808 0.929 . S
H1805 C1814 0.929 . S
C1806 H1800 0.930 . S
C1806 C1807 1.367 . S
C1806 C1814 1.378 . S
C1807 C1806 1.367 . S
C1807 C1815 1.433 . S
C1808 H1804 0.929 . S
C1808 C1810 1.378 . S
C1808 C1812 1.350 . S
C1809 C1812 1.463 . S
C1809 C1814 1.350 . S
C1809 N1817 1.427 . S
C1810 H1801 0.930 . S
C1810 C1808 1.378 . S
C1810 C1811 1.367 . S
C1811 C1810 1.367 . S
C1811 C1813 1.433 . S
C1812 C1808 1.350 . S
C1812 C1809 1.463 . S
C1812 N1816 1.427 . S
C1813 H1803 0.929 . S
C1813 C1811 1.433 . S
C1813 N1816 1.384 . S
C1814 H1805 0.929 . S
C1814 C1806 1.378 . S
C1814 C1809 1.350 . S
C1815 H1802 0.929 . S
C1815 C1807 1.433 . S
C1815 N1817 1.384 . S
N1816 C1812 1.427 . S
N1816 C1813 1.384 . S
N1817 C1809 1.427 . S
N1817 C1815 1.384 . S
H1818 C1824 0.930 . S
H1819 C1828 0.930 . S
H1820 C1833 0.929 1_554 S
H1821 C1831 0.929 . S
H1822 C1826 0.929 . S
H1823 C1832 0.929 . S
C1824 H1818 0.930 . S
C1824 C1825 1.367 . S
C1824 C1832 1.378 . S
C1825 C1824 1.367 . S
C1825 C1833 1.433 . S
C1826 H1822 0.929 . S
C1826 C1828 1.378 . S
C1826 C1830 1.350 . S
C1827 C1830 1.463 . S
C1827 C1832 1.350 . S
C1827 N1835 1.427 . S
C1828 H1819 0.930 . S
C1828 C1826 1.378 . S
C1828 C1829 1.367 . S
C1829 C1828 1.367 . S
C1829 C1831 1.433 . S
C1830 C1826 1.350 . S
C1830 C1827 1.463 . S
C1830 N1834 1.427 . S
C1831 H1821 0.929 . S
C1831 C1829 1.433 . S
C1831 N1834 1.384 . S
C1832 H1823 0.929 . S
C1832 C1824 1.378 . S
C1832 C1827 1.350 . S
C1833 H1820 0.929 1_556 S
C1833 C1825 1.433 . S
C1833 N1835 1.384 . S
N1834 C1830 1.427 . S
N1834 C1831 1.384 . S
N1835 C1827 1.427 . S
N1835 C1833 1.384 . S
H1836 C1842 0.930 . S
H1837 C1846 0.930 . S
H1838 C1851 0.929 . S
H1839 C1849 0.929 . S
H1840 C1844 0.929 . S
H1841 C1850 0.929 . S
C1842 H1836 0.930 . S
C1842 C1843 1.367 . S
C1842 C1850 1.378 . S
C1843 C1842 1.367 . S
C1843 C1851 1.433 . S
C1844 H1840 0.929 . S
C1844 C1846 1.378 . S
C1844 C1848 1.350 . S
C1845 C1848 1.463 . S
C1845 C1850 1.350 . S
C1845 N1853 1.427 . S
C1846 H1837 0.930 . S
C1846 C1844 1.378 . S
C1846 C1847 1.367 . S
C1847 C1846 1.367 . S
C1847 C1849 1.433 . S
C1848 C1844 1.350 . S
C1848 C1845 1.463 . S
C1848 N1852 1.427 . S
C1849 H1839 0.929 . S
C1849 C1847 1.433 . S
C1849 N1852 1.384 . S
C1850 H1841 0.929 . S
C1850 C1842 1.378 . S
C1850 C1845 1.350 . S
C1851 H1838 0.929 . S
C1851 C1843 1.433 . S
C1851 N1853 1.384 . S
N1852 C1848 1.427 . S
N1852 C1849 1.384 . S
N1853 C1845 1.427 . S
N1853 C1851 1.384 . S
H1854 C1860 0.930 1_554 S
H1855 C1864 0.930 . S
H1856 C1869 0.929 . S
H1857 C1867 0.929 . S
H1858 C1862 0.929 . S
H1859 C1868 0.929 . S
C1860 H1854 0.930 1_556 S
C1860 C1861 1.367 . S
C1860 C1868 1.378 . S
C1861 C1860 1.367 . S
C1861 C1869 1.433 . S
C1862 H1858 0.929 . S
C1862 C1864 1.378 . S
C1862 C1866 1.350 . S
C1863 C1866 1.463 . S
C1863 C1868 1.350 . S
C1863 N1871 1.427 . S
C1864 H1855 0.930 . S
C1864 C1862 1.378 . S
C1864 C1865 1.367 . S
C1865 C1864 1.367 . S
C1865 C1867 1.433 . S
C1866 C1862 1.350 . S
C1866 C1863 1.463 . S
C1866 N1870 1.427 . S
C1867 H1857 0.929 . S
C1867 C1865 1.433 . S
C1867 N1870 1.384 . S
C1868 H1859 0.929 . S
C1868 C1860 1.378 . S
C1868 C1863 1.350 . S
C1869 H1856 0.929 . S
C1869 C1861 1.433 . S
C1869 N1871 1.384 . S
N1870 C1866 1.427 . S
N1870 C1867 1.384 . S
N1871 C1863 1.427 . S
N1871 C1869 1.384 . S
H1872 C1878 0.930 . S
H1873 C1882 0.930 . S
H1874 C1887 0.929 . S
H1875 C1885 0.929 . S
H1876 C1880 0.929 . S
H1877 C1886 0.929 . S
C1878 H1872 0.930 . S
C1878 C1879 1.367 . S
C1878 C1886 1.378 . S
C1879 C1878 1.367 . S
C1879 C1887 1.433 . S
C1880 H1876 0.929 . S
C1880 C1882 1.378 . S
C1880 C1884 1.350 . S
C1881 C1884 1.463 . S
C1881 C1886 1.350 . S
C1881 N1889 1.427 . S
C1882 H1873 0.930 . S
C1882 C1880 1.378 . S
C1882 C1883 1.367 . S
C1883 C1882 1.367 . S
C1883 C1885 1.433 . S
C1884 C1880 1.350 . S
C1884 C1881 1.463 . S
C1884 N1888 1.427 . S
C1885 H1875 0.929 . S
C1885 C1883 1.433 . S
C1885 N1888 1.384 . S
C1886 H1877 0.929 . S
C1886 C1878 1.378 . S
C1886 C1881 1.350 . S
C1887 H1874 0.929 . S
C1887 C1879 1.433 . S
C1887 N1889 1.384 . S
N1888 C1884 1.427 . S
N1888 C1885 1.384 . S
N1889 C1881 1.427 . S
N1889 C1887 1.384 . S
H1890 C1896 0.930 . S
H1891 C1900 0.930 . S
H1892 C1905 0.929 . S
H1893 C1903 0.929 . S
H1894 C1898 0.929 . S
H1895 C1904 0.929 . S
C1896 H1890 0.930 . S
C1896 C1897 1.367 . S
C1896 C1904 1.378 . S
C1897 C1896 1.367 . S
C1897 C1905 1.433 . S
C1898 H1894 0.929 . S
C1898 C1900 1.378 . S
C1898 C1902 1.350 . S
C1899 C1902 1.463 . S
C1899 C1904 1.350 . S
C1899 N1907 1.427 . S
C1900 H1891 0.930 . S
C1900 C1898 1.378 . S
C1900 C1901 1.367 . S
C1901 C1900 1.367 . S
C1901 C1903 1.433 . S
C1902 C1898 1.350 . S
C1902 C1899 1.463 . S
C1902 N1906 1.427 . S
C1903 H1893 0.929 . S
C1903 C1901 1.433 . S
C1903 N1906 1.384 . S
C1904 H1895 0.929 . S
C1904 C1896 1.378 . S
C1904 C1899 1.350 . S
C1905 H1892 0.929 . S
C1905 C1897 1.433 . S
C1905 N1907 1.384 . S
N1906 C1902 1.427 . S
N1906 C1903 1.384 . S
N1907 C1899 1.427 . S
N1907 C1905 1.384 . S
H1908 C1914 0.930 . S
H1909 C1918 0.930 . S
H1910 C1923 0.929 . S
H1911 C1921 0.929 . S
H1912 C1916 0.929 . S
H1913 C1922 0.929 . S
C1914 H1908 0.930 . S
C1914 C1915 1.367 . S
C1914 C1922 1.378 . S
C1915 C1914 1.367 . S
C1915 C1923 1.433 . S
C1916 H1912 0.929 . S
C1916 C1918 1.378 . S
C1916 C1920 1.350 . S
C1917 C1920 1.463 . S
C1917 C1922 1.350 . S
C1917 N1925 1.427 . S
C1918 H1909 0.930 . S
C1918 C1916 1.378 . S
C1918 C1919 1.367 . S
C1919 C1918 1.367 . S
C1919 C1921 1.433 . S
C1920 C1916 1.350 . S
C1920 C1917 1.463 . S
C1920 N1924 1.427 . S
C1921 H1911 0.929 . S
C1921 C1919 1.433 . S
C1921 N1924 1.384 . S
C1922 H1913 0.929 . S
C1922 C1914 1.378 . S
C1922 C1917 1.350 . S
C1923 H1910 0.929 . S
C1923 C1915 1.433 . S
C1923 N1925 1.384 . S
N1924 C1920 1.427 . S
N1924 C1921 1.384 . S
N1925 C1917 1.427 . S
N1925 C1923 1.384 . S
H1926 C1932 0.930 . S
H1927 C1936 0.930 . S
H1928 C1941 0.929 . S
H1929 C1939 0.929 . S
H1930 C1934 0.929 . S
H1931 C1940 0.929 . S
C1932 H1926 0.930 . S
C1932 C1933 1.367 . S
C1932 C1940 1.378 . S
C1933 C1932 1.367 . S
C1933 C1941 1.433 . S
C1934 H1930 0.929 . S
C1934 C1936 1.378 . S
C1934 C1938 1.350 . S
C1935 C1938 1.463 . S
C1935 C1940 1.350 . S
C1935 N1943 1.427 . S
C1936 H1927 0.930 . S
C1936 C1934 1.378 . S
C1936 C1937 1.367 . S
C1937 C1936 1.367 . S
C1937 C1939 1.433 . S
C1938 C1934 1.350 . S
C1938 C1935 1.463 . S
C1938 N1942 1.427 . S
C1939 H1929 0.929 . S
C1939 C1937 1.433 . S
C1939 N1942 1.384 . S
C1940 H1931 0.929 . S
C1940 C1932 1.378 . S
C1940 C1935 1.350 . S
C1941 H1928 0.929 . S
C1941 C1933 1.433 . S
C1941 N1943 1.384 . S
N1942 C1938 1.427 . S
N1942 C1939 1.384 . S
N1943 C1935 1.427 . S
N1943 C1941 1.384 . S
H1944 C1950 0.930 . S
H1945 C1954 0.930 . S
H1946 C1959 0.929 . S
H1947 C1957 0.929 . S
H1948 C1952 0.929 . S
H1949 C1958 0.929 . S
C1950 H1944 0.930 . S
C1950 C1951 1.367 . S
C1950 C1958 1.378 . S
C1951 C1950 1.367 . S
C1951 C1959 1.433 . S
C1952 H1948 0.929 . S
C1952 C1954 1.378 . S
C1952 C1956 1.350 . S
C1953 C1956 1.463 . S
C1953 C1958 1.350 . S
C1953 N1961 1.427 . S
C1954 H1945 0.930 . S
C1954 C1952 1.378 . S
C1954 C1955 1.367 . S
C1955 C1954 1.367 . S
C1955 C1957 1.433 . S
C1956 C1952 1.350 . S
C1956 C1953 1.463 . S
C1956 N1960 1.427 . S
C1957 H1947 0.929 . S
C1957 C1955 1.433 . S
C1957 N1960 1.384 . S
C1958 H1949 0.929 . S
C1958 C1950 1.378 . S
C1958 C1953 1.350 . S
C1959 H1946 0.929 . S
C1959 C1951 1.433 . S
C1959 N1961 1.384 . S
N1960 C1956 1.427 . S
N1960 C1957 1.384 . S
N1961 C1953 1.427 . S
N1961 C1959 1.384 . S
H1962 C1968 0.930 . S
H1963 C1972 0.930 . S
H1964 C1977 0.929 . S
H1965 C1975 0.929 . S
H1966 C1970 0.929 . S
H1967 C1976 0.929 . S
C1968 H1962 0.930 . S
C1968 C1969 1.367 . S
C1968 C1976 1.378 . S
C1969 C1968 1.367 . S
C1969 C1977 1.433 . S
C1970 H1966 0.929 . S
C1970 C1972 1.378 . S
C1970 C1974 1.350 . S
C1971 C1974 1.463 . S
C1971 C1976 1.350 . S
C1971 N1979 1.427 . S
C1972 H1963 0.930 . S
C1972 C1970 1.378 . S
C1972 C1973 1.367 . S
C1973 C1972 1.367 . S
C1973 C1975 1.433 . S
C1974 C1970 1.350 . S
C1974 C1971 1.463 . S
C1974 N1978 1.427 . S
C1975 H1965 0.929 . S
C1975 C1973 1.433 . S
C1975 N1978 1.384 . S
C1976 H1967 0.929 . S
C1976 C1968 1.378 . S
C1976 C1971 1.350 . S
C1977 H1964 0.929 . S
C1977 C1969 1.433 . S
C1977 N1979 1.384 . S
N1978 C1974 1.427 . S
N1978 C1975 1.384 . S
N1979 C1971 1.427 . S
N1979 C1977 1.384 . S
H1980 C1986 0.930 . S
H1981 C1990 0.930 . S
H1982 C1995 0.929 . S
H1983 C1993 0.929 . S
H1984 C1988 0.929 . S
H1985 C1994 0.929 . S
C1986 H1980 0.930 . S
C1986 C1987 1.367 . S
C1986 C1994 1.378 . S
C1987 C1986 1.367 . S
C1987 C1995 1.433 . S
C1988 H1984 0.929 . S
C1988 C1990 1.378 . S
C1988 C1992 1.350 . S
C1989 C1992 1.463 . S
C1989 C1994 1.350 . S
C1989 N1997 1.427 . S
C1990 H1981 0.930 . S
C1990 C1988 1.378 . S
C1990 C1991 1.367 . S
C1991 C1990 1.367 . S
C1991 C1993 1.433 . S
C1992 C1988 1.350 . S
C1992 C1989 1.463 . S
C1992 N1996 1.427 . S
C1993 H1983 0.929 . S
C1993 C1991 1.433 . S
C1993 N1996 1.384 . S
C1994 H1985 0.929 . S
C1994 C1986 1.378 . S
C1994 C1989 1.350 . S
C1995 H1982 0.929 . S
C1995 C1987 1.433 . S
C1995 N1997 1.384 . S
N1996 C1992 1.427 . S
N1996 C1993 1.384 . S
N1997 C1989 1.427 . S
N1997 C1995 1.384 . S
H1998 C2004 0.930 . S
H1999 C2008 0.930 . S
H2000 C2013 0.929 . S
H2001 C2011 0.929 . S
H2002 C2006 0.929 . S
H2003 C2012 0.929 . S
C2004 H1998 0.930 . S
C2004 C2005 1.367 . S
C2004 C2012 1.378 . S
C2005 C2004 1.367 . S
C2005 C2013 1.433 . S
C2006 H2002 0.929 . S
C2006 C2008 1.378 . S
C2006 C2010 1.350 . S
C2007 C2010 1.463 . S
C2007 C2012 1.350 . S
C2007 N2015 1.427 . S
C2008 H1999 0.930 . S
C2008 C2006 1.378 . S
C2008 C2009 1.367 . S
C2009 C2008 1.367 . S
C2009 C2011 1.433 . S
C2010 C2006 1.350 . S
C2010 C2007 1.463 . S
C2010 N2014 1.427 . S
C2011 H2001 0.929 . S
C2011 C2009 1.433 . S
C2011 N2014 1.384 . S
C2012 H2003 0.929 . S
C2012 C2004 1.378 . S
C2012 C2007 1.350 . S
C2013 H2000 0.929 . S
C2013 C2005 1.433 . S
C2013 N2015 1.384 . S
N2014 C2010 1.427 . S
N2014 C2011 1.384 . S
N2015 C2007 1.427 . S
N2015 C2013 1.384 . S
H2016 C2022 0.930 . S
H2017 C2026 0.930 . S
H2018 C2031 0.929 . S
H2019 C2029 0.929 . S
H2020 C2024 0.929 . S
H2021 C2030 0.929 . S
C2022 H2016 0.930 . S
C2022 C2023 1.367 . S
C2022 C2030 1.378 . S
C2023 C2022 1.367 . S
C2023 C2031 1.433 . S
C2024 H2020 0.929 . S
C2024 C2026 1.378 . S
C2024 C2028 1.350 . S
C2025 C2028 1.463 . S
C2025 C2030 1.350 . S
C2025 N2033 1.427 . S
C2026 H2017 0.930 . S
C2026 C2024 1.378 . S
C2026 C2027 1.367 . S
C2027 C2026 1.367 . S
C2027 C2029 1.433 . S
C2028 C2024 1.350 . S
C2028 C2025 1.463 . S
C2028 N2032 1.427 . S
C2029 H2019 0.929 . S
C2029 C2027 1.433 . S
C2029 N2032 1.384 . S
C2030 H2021 0.929 . S
C2030 C2022 1.378 . S
C2030 C2025 1.350 . S
C2031 H2018 0.929 . S
C2031 C2023 1.433 . S
C2031 N2033 1.384 . S
N2032 C2028 1.427 . S
N2032 C2029 1.384 . S
N2033 C2025 1.427 . S
N2033 C2031 1.384 . S
H2034 C2040 0.930 . S
H2035 C2044 0.930 . S
H2036 C2049 0.929 . S
H2037 C2047 0.945 . S
H2038 C2042 0.929 . S
H2039 C2048 0.929 . S
C2040 H2034 0.930 . S
C2040 C2041 1.367 . S
C2040 C2048 1.378 . S
C2041 C2040 1.367 . S
C2041 C2049 1.433 . S
C2042 H2038 0.929 . S
C2042 C2044 1.378 . S
C2042 C2046 1.350 . S
C2043 C2046 1.463 . S
C2043 C2048 1.350 . S
C2043 N2051 1.427 . S
C2044 H2035 0.930 . S
C2044 C2042 1.378 . S
C2044 C2045 1.367 . S
C2045 C2044 1.367 . S
C2045 C2047 1.442 1_455 S
C2046 C2042 1.350 . S
C2046 C2043 1.463 . S
C2046 N2050 1.427 . S
C2047 H2037 0.945 . S
C2047 C2045 1.442 1_655 S
C2047 N2050 1.360 1_655 S
C2048 H2039 0.929 . S
C2048 C2040 1.378 . S
C2048 C2043 1.350 . S
C2049 H2036 0.929 . S
C2049 C2041 1.433 . S
C2049 N2051 1.384 . S
N2050 C2046 1.427 . S
N2050 C2047 1.360 1_455 S
N2051 C2043 1.427 . S
N2051 C2049 1.384 . S
H2052 C2058 0.930 . S
H2053 C2062 0.930 . S
H2054 C2067 0.929 . S
H2055 C2065 0.929 . S
H2056 C2060 0.929 . S
H2057 C2066 0.929 . S
C2058 H2052 0.930 . S
C2058 C2059 1.367 . S
C2058 C2066 1.378 . S
C2059 C2058 1.367 . S
C2059 C2067 1.433 . S
C2060 H2056 0.929 . S
C2060 C2062 1.378 . S
C2060 C2064 1.350 . S
C2061 C2064 1.463 . S
C2061 C2066 1.350 . S
C2061 N2069 1.427 . S
C2062 H2053 0.930 . S
C2062 C2060 1.378 . S
C2062 C2063 1.367 . S
C2063 C2062 1.367 . S
C2063 C2065 1.433 . S
C2064 C2060 1.350 . S
C2064 C2061 1.463 . S
C2064 N2068 1.427 . S
C2065 H2055 0.929 . S
C2065 C2063 1.433 . S
C2065 N2068 1.384 . S
C2066 H2057 0.929 . S
C2066 C2058 1.378 . S
C2066 C2061 1.350 . S
C2067 H2054 0.929 . S
C2067 C2059 1.433 . S
C2067 N2069 1.384 . S
N2068 C2064 1.427 . S
N2068 C2065 1.384 . S
N2069 C2061 1.427 . S
N2069 C2067 1.384 . S
H2070 C2076 0.930 . S
H2071 C2080 0.930 . S
H2072 C2085 0.929 . S
H2073 C2083 0.929 . S
H2074 C2078 0.929 . S
H2075 C2084 0.929 . S
C2076 H2070 0.930 . S
C2076 C2077 1.367 1_545 S
C2076 C2084 1.378 . S
C2077 C2076 1.367 1_565 S
C2077 C2085 1.433 . S
C2078 H2074 0.929 . S
C2078 C2080 1.378 . S
C2078 C2082 1.350 . S
C2079 C2082 1.463 . S
C2079 C2084 1.350 1_565 S
C2079 N2087 1.427 . S
C2080 H2071 0.930 . S
C2080 C2078 1.378 . S
C2080 C2081 1.367 . S
C2081 C2080 1.367 . S
C2081 C2083 1.433 1_565 S
C2082 C2078 1.350 . S
C2082 C2079 1.463 . S
C2082 N2086 1.427 1_565 S
C2083 H2073 0.929 . S
C2083 C2081 1.433 1_545 S
C2083 N2086 1.384 . S
C2084 H2075 0.929 . S
C2084 C2076 1.378 . S
C2084 C2079 1.350 1_545 S
C2085 H2072 0.929 . S
C2085 C2077 1.433 . S
C2085 N2087 1.384 . S
N2086 C2082 1.427 1_545 S
N2086 C2083 1.384 . S
N2087 C2079 1.427 . S
N2087 C2085 1.384 . S
H2088 C2094 0.930 . S
H2089 C2098 0.930 . S
H2090 C2103 0.929 . S
H2091 C2101 0.929 . S
H2092 C2096 0.929 . S
H2093 C2102 0.929 . S
C2094 H2088 0.930 . S
C2094 C2095 1.367 . S
C2094 C2102 1.378 . S
C2095 C2094 1.367 . S
C2095 C2103 1.433 1_565 S
C2096 H2092 0.929 . S
C2096 C2098 1.378 . S
C2096 C2100 1.350 1_545 S
C2097 C2100 1.463 . S
C2097 C2102 1.350 . S
C2097 N2105 1.427 1_565 S
C2098 H2089 0.930 . S
C2098 C2096 1.378 . S
C2098 C2099 1.367 1_545 S
C2099 C2098 1.367 1_565 S
C2099 C2101 1.433 . S
C2100 C2096 1.350 1_565 S
C2100 C2097 1.463 . S
C2100 N2104 1.427 . S
C2101 H2091 0.929 . S
C2101 C2099 1.433 . S
C2101 N2104 1.384 . S
C2102 H2093 0.929 . S
C2102 C2094 1.378 . S
C2102 C2097 1.350 . S
C2103 H2090 0.929 . S
C2103 C2095 1.433 1_545 S
C2103 N2105 1.384 . S
N2104 C2100 1.427 . S
N2104 C2101 1.384 . S
N2105 C2097 1.427 1_545 S
N2105 C2103 1.384 . S
H2106 C2112 0.930 . S
H2107 C2116 0.930 . S
H2108 C2121 0.929 . S
H2109 C2119 0.929 . S
H2110 C2114 0.929 . S
H2111 C2120 0.929 . S
C2112 H2106 0.930 . S
C2112 C2113 1.367 . S
C2112 C2120 1.378 . S
C2113 C2112 1.367 . S
C2113 C2121 1.433 1_455 S
C2114 H2110 0.929 . S
C2114 C2116 1.378 . S
C2114 C2118 1.350 1_655 S
C2115 C2118 1.463 . S
C2115 C2120 1.350 . S
C2115 N2123 1.427 1_455 S
C2116 H2107 0.930 . S
C2116 C2114 1.378 . S
C2116 C2117 1.367 1_655 S
C2117 C2116 1.367 1_455 S
C2117 C2119 1.433 . S
C2118 C2114 1.350 1_455 S
C2118 C2115 1.463 . S
C2118 N2122 1.427 . S
C2119 H2109 0.929 . S
C2119 C2117 1.433 . S
C2119 N2122 1.384 . S
C2120 H2111 0.929 . S
C2120 C2112 1.378 . S
C2120 C2115 1.350 . S
C2121 H2108 0.929 . S
C2121 C2113 1.433 1_655 S
C2121 N2123 1.384 . S
N2122 C2118 1.427 . S
N2122 C2119 1.384 . S
N2123 C2115 1.427 1_655 S
N2123 C2121 1.384 . S
H2124 C2130 0.930 . S
H2125 C2134 0.930 . S
H2126 C2139 0.929 . S
H2127 C2137 0.929 . S
H2128 C2132 0.929 . S
H2129 C2138 0.929 . S
C2130 H2124 0.930 . S
C2130 C2131 1.367 . S
C2130 C2138 1.378 . S
C2131 C2130 1.367 . S
C2131 C2139 1.433 . S
C2132 H2128 0.929 . S
C2132 C2134 1.378 . S
C2132 C2136 1.350 . S
C2133 C2136 1.463 . S
C2133 C2138 1.350 . S
C2133 N2141 1.427 . S
C2134 H2125 0.930 . S
C2134 C2132 1.378 . S
C2134 C2135 1.367 . S
C2135 C2134 1.367 . S
C2135 C2137 1.433 . S
C2136 C2132 1.350 . S
C2136 C2133 1.463 . S
C2136 N2140 1.427 . S
C2137 H2127 0.929 . S
C2137 C2135 1.433 . S
C2137 N2140 1.384 . S
C2138 H2129 0.929 . S
C2138 C2130 1.378 . S
C2138 C2133 1.350 . S
C2139 H2126 0.929 . S
C2139 C2131 1.433 . S
C2139 N2141 1.384 . S
N2140 C2136 1.427 . S
N2140 C2137 1.384 . S
N2141 C2133 1.427 . S
N2141 C2139 1.384 . S
H2142 C2148 0.930 . S
H2143 C2152 0.930 . S
H2144 C2157 0.929 . S
H2145 C2155 0.929 . S
H2146 C2150 0.929 . S
H2147 C2156 0.929 . S
C2148 H2142 0.930 . S
C2148 C2149 1.367 . S
C2148 C2156 1.378 . S
C2149 C2148 1.367 . S
C2149 C2157 1.433 . S
C2150 H2146 0.929 . S
C2150 C2152 1.378 . S
C2150 C2154 1.350 . S
C2151 C2154 1.463 . S
C2151 C2156 1.350 . S
C2151 N2159 1.427 . S
C2152 H2143 0.930 . S
C2152 C2150 1.378 . S
C2152 C2153 1.367 . S
C2153 C2152 1.367 . S
C2153 C2155 1.433 . S
C2154 C2150 1.350 . S
C2154 C2151 1.463 . S
C2154 N2158 1.427 . S
C2155 H2145 0.929 . S
C2155 C2153 1.433 . S
C2155 N2158 1.384 . S
C2156 H2147 0.929 . S
C2156 C2148 1.378 . S
C2156 C2151 1.350 . S
C2157 H2144 0.929 . S
C2157 C2149 1.433 . S
C2157 N2159 1.384 . S
N2158 C2154 1.427 . S
N2158 C2155 1.384 . S
N2159 C2151 1.427 . S
N2159 C2157 1.384 . S
H2160 C2166 0.930 . S
H2161 C2170 0.930 . S
H2162 C2175 0.929 . S
H2163 C2173 0.929 . S
H2164 C2168 0.929 . S
H2165 C2174 0.929 . S
C2166 H2160 0.930 . S
C2166 C2167 1.367 . S
C2166 C2174 1.378 . S
C2167 C2166 1.367 . S
C2167 C2175 1.433 . S
C2168 H2164 0.929 . S
C2168 C2170 1.378 . S
C2168 C2172 1.350 . S
C2169 C2172 1.463 . S
C2169 C2174 1.350 . S
C2169 N2177 1.427 . S
C2170 H2161 0.930 . S
C2170 C2168 1.378 . S
C2170 C2171 1.367 . S
C2171 C2170 1.367 . S
C2171 C2173 1.433 . S
C2172 C2168 1.350 . S
C2172 C2169 1.463 . S
C2172 N2176 1.427 . S
C2173 H2163 0.929 . S
C2173 C2171 1.433 . S
C2173 N2176 1.384 . S
C2174 H2165 0.929 . S
C2174 C2166 1.378 . S
C2174 C2169 1.350 . S
C2175 H2162 0.929 . S
C2175 C2167 1.433 . S
C2175 N2177 1.384 . S
N2176 C2172 1.427 . S
N2176 C2173 1.384 . S
N2177 C2169 1.427 . S
N2177 C2175 1.384 . S
H2178 C2184 0.930 . S
H2179 C2188 0.930 . S
H2180 C2193 0.929 . S
H2181 C2191 0.929 . S
H2182 C2186 0.929 . S
H2183 C2192 0.929 . S
C2184 H2178 0.930 . S
C2184 C2185 1.367 . S
C2184 C2192 1.378 . S
C2185 C2184 1.367 . S
C2185 C2193 1.433 . S
C2186 H2182 0.929 . S
C2186 C2188 1.378 . S
C2186 C2190 1.350 . S
C2187 C2190 1.463 . S
C2187 C2192 1.350 . S
C2187 N2195 1.427 . S
C2188 H2179 0.930 . S
C2188 C2186 1.378 . S
C2188 C2189 1.367 . S
C2189 C2188 1.367 . S
C2189 C2191 1.433 . S
C2190 C2186 1.350 . S
C2190 C2187 1.463 . S
C2190 N2194 1.427 . S
C2191 H2181 0.929 . S
C2191 C2189 1.433 . S
C2191 N2194 1.384 . S
C2192 H2183 0.929 . S
C2192 C2184 1.378 . S
C2192 C2187 1.350 . S
C2193 H2180 0.929 . S
C2193 C2185 1.433 . S
C2193 N2195 1.384 . S
N2194 C2190 1.427 . S
N2194 C2191 1.384 . S
N2195 C2187 1.427 . S
N2195 C2193 1.384 . S
H2196 C2202 0.930 . S
H2197 C2206 0.930 . S
H2198 C2211 0.929 . S
H2199 C2209 0.929 . S
H2200 C2204 0.929 . S
H2201 C2210 0.929 . S
C2202 H2196 0.930 . S
C2202 C2203 1.367 1_565 S
C2202 C2210 1.378 . S
C2203 C2202 1.367 1_545 S
C2203 C2211 1.433 . S
C2204 H2200 0.929 . S
C2204 C2206 1.378 . S
C2204 C2208 1.350 . S
C2205 C2208 1.463 . S
C2205 C2210 1.350 1_545 S
C2205 N2213 1.427 . S
C2206 H2197 0.930 . S
C2206 C2204 1.378 . S
C2206 C2207 1.367 . S
C2207 C2206 1.367 . S
C2207 C2209 1.433 1_545 S
C2208 C2204 1.350 . S
C2208 C2205 1.463 . S
C2208 N2212 1.427 1_545 S
C2209 H2199 0.929 . S
C2209 C2207 1.433 1_565 S
C2209 N2212 1.384 . S
C2210 H2201 0.929 . S
C2210 C2202 1.378 . S
C2210 C2205 1.350 1_565 S
C2211 H2198 0.929 . S
C2211 C2203 1.433 . S
C2211 N2213 1.384 . S
N2212 C2208 1.427 1_565 S
N2212 C2209 1.384 . S
N2213 C2205 1.427 . S
N2213 C2211 1.384 . S
H2214 C2220 0.930 . S
H2215 C2224 0.930 . S
H2216 C2229 0.946 . S
H2217 C2227 0.929 . S
H2218 C2222 0.929 . S
H2219 C2228 0.929 . S
C2220 H2214 0.930 . S
C2220 C2221 1.367 . S
C2220 C2228 1.378 . S
C2221 C2220 1.367 . S
C2221 C2229 1.426 1_655 S
C2222 H2218 0.929 . S
C2222 C2224 1.378 . S
C2222 C2226 1.350 1_455 S
C2223 C2226 1.463 . S
C2223 C2228 1.350 . S
C2223 N2231 1.377 1_655 S
C2224 H2215 0.930 . S
C2224 C2222 1.378 . S
C2224 C2225 1.367 1_455 S
C2225 C2224 1.367 1_655 S
C2225 C2227 1.433 . S
C2226 C2222 1.350 1_655 S
C2226 C2223 1.463 . S
C2226 N2230 1.427 . S
C2227 H2217 0.929 . S
C2227 C2225 1.433 . S
C2227 N2230 1.384 . S
C2228 H2219 0.929 . S
C2228 C2220 1.378 . S
C2228 C2223 1.350 . S
C2229 H2216 0.946 . S
C2229 C2221 1.426 1_455 S
C2229 N2231 1.405 . S
N2230 C2226 1.427 . S
N2230 C2227 1.384 . S
N2231 C2223 1.377 1_455 S
N2231 C2229 1.405 . S
H2232 C2238 0.930 . S
H2233 C2242 0.930 . S
H2234 C2247 0.929 . S
H2235 C2245 0.929 . S
H2236 C2240 0.929 . S
H2237 C2246 0.929 . S
C2238 H2232 0.930 . S
C2238 C2239 1.367 . S
C2238 C2246 1.378 . S
C2239 C2238 1.367 . S
C2239 C2247 1.433 . S
C2240 H2236 0.929 . S
C2240 C2242 1.378 . S
C2240 C2244 1.350 . S
C2241 C2244 1.463 . S
C2241 C2246 1.350 . S
C2241 N2249 1.427 . S
C2242 H2233 0.930 . S
C2242 C2240 1.378 . S
C2242 C2243 1.367 . S
C2243 C2242 1.367 . S
C2243 C2245 1.433 . S
C2244 C2240 1.350 . S
C2244 C2241 1.463 . S
C2244 N2248 1.427 . S
C2245 H2235 0.929 . S
C2245 C2243 1.433 . S
C2245 N2248 1.384 . S
C2246 H2237 0.929 . S
C2246 C2238 1.378 . S
C2246 C2241 1.350 . S
C2247 H2234 0.929 . S
C2247 C2239 1.433 . S
C2247 N2249 1.384 . S
N2248 C2244 1.427 . S
N2248 C2245 1.384 . S
N2249 C2241 1.427 . S
N2249 C2247 1.384 . S
H2250 C2256 0.930 . S
H2251 C2260 0.930 . S
H2252 C2265 0.929 . S
H2253 C2263 0.929 . S
H2254 C2258 0.929 . S
H2255 C2264 0.929 . S
C2256 H2250 0.930 . S
C2256 C2257 1.367 . S
C2256 C2264 1.378 . S
C2257 C2256 1.367 . S
C2257 C2265 1.433 . S
C2258 H2254 0.929 . S
C2258 C2260 1.378 . S
C2258 C2262 1.350 . S
C2259 C2262 1.463 . S
C2259 C2264 1.350 . S
C2259 N2267 1.427 . S
C2260 H2251 0.930 . S
C2260 C2258 1.378 . S
C2260 C2261 1.367 . S
C2261 C2260 1.367 . S
C2261 C2263 1.433 . S
C2262 C2258 1.350 . S
C2262 C2259 1.463 . S
C2262 N2266 1.427 . S
C2263 H2253 0.929 . S
C2263 C2261 1.433 . S
C2263 N2266 1.384 . S
C2264 H2255 0.929 . S
C2264 C2256 1.378 . S
C2264 C2259 1.350 . S
C2265 H2252 0.929 . S
C2265 C2257 1.433 . S
C2265 N2267 1.384 . S
N2266 C2262 1.427 . S
N2266 C2263 1.384 . S
N2267 C2259 1.427 . S
N2267 C2265 1.384 . S
H2268 C2274 0.930 . S
H2269 C2278 0.930 . S
H2270 C2283 0.929 . S
H2271 C2281 0.929 . S
H2272 C2276 0.929 . S
H2273 C2282 0.929 . S
C2274 H2268 0.930 . S
C2274 C2275 1.367 . S
C2274 C2282 1.378 . S
C2275 C2274 1.367 . S
C2275 C2283 1.433 . S
C2276 H2272 0.929 . S
C2276 C2278 1.378 . S
C2276 C2280 1.350 . S
C2277 C2280 1.463 . S
C2277 C2282 1.350 . S
C2277 N2285 1.427 . S
C2278 H2269 0.930 . S
C2278 C2276 1.378 . S
C2278 C2279 1.367 . S
C2279 C2278 1.367 . S
C2279 C2281 1.433 . S
C2280 C2276 1.350 . S
C2280 C2277 1.463 . S
C2280 N2284 1.427 . S
C2281 H2271 0.929 . S
C2281 C2279 1.433 . S
C2281 N2284 1.384 . S
C2282 H2273 0.929 . S
C2282 C2274 1.378 . S
C2282 C2277 1.350 . S
C2283 H2270 0.929 . S
C2283 C2275 1.433 . S
C2283 N2285 1.384 . S
N2284 C2280 1.427 . S
N2284 C2281 1.384 . S
N2285 C2277 1.427 . S
N2285 C2283 1.384 . S
H2286 C2292 0.930 . S
H2287 C2296 0.930 . S
H2288 C2301 0.929 . S
H2289 C2299 0.929 . S
H2290 C2294 0.929 . S
H2291 C2300 0.929 . S
C2292 H2286 0.930 . S
C2292 C2293 1.367 . S
C2292 C2300 1.378 . S
C2293 C2292 1.367 . S
C2293 C2301 1.433 . S
C2294 H2290 0.929 . S
C2294 C2296 1.378 . S
C2294 C2298 1.350 . S
C2295 C2298 1.463 . S
C2295 C2300 1.350 . S
C2295 N2303 1.427 . S
C2296 H2287 0.930 . S
C2296 C2294 1.378 . S
C2296 C2297 1.367 . S
C2297 C2296 1.367 . S
C2297 C2299 1.433 . S
C2298 C2294 1.350 . S
C2298 C2295 1.463 . S
C2298 N2302 1.427 . S
C2299 H2289 0.929 . S
C2299 C2297 1.433 . S
C2299 N2302 1.384 . S
C2300 H2291 0.929 . S
C2300 C2292 1.378 . S
C2300 C2295 1.350 . S
C2301 H2288 0.929 . S
C2301 C2293 1.433 . S
C2301 N2303 1.384 . S
N2302 C2298 1.427 . S
N2302 C2299 1.384 . S
N2303 C2295 1.427 . S
N2303 C2301 1.384 . S
H2304 C2310 0.930 . S
H2305 C2314 0.930 . S
H2306 C2319 0.929 . S
H2307 C2317 0.929 . S
H2308 C2312 0.929 . S
H2309 C2318 0.929 . S
C2310 H2304 0.930 . S
C2310 C2311 1.367 . S
C2310 C2318 1.378 . S
C2311 C2310 1.367 . S
C2311 C2319 1.433 . S
C2312 H2308 0.929 . S
C2312 C2314 1.378 . S
C2312 C2316 1.350 . S
C2313 C2316 1.463 . S
C2313 C2318 1.350 . S
C2313 N2321 1.427 . S
C2314 H2305 0.930 . S
C2314 C2312 1.378 . S
C2314 C2315 1.367 . S
C2315 C2314 1.367 . S
C2315 C2317 1.433 . S
C2316 C2312 1.350 . S
C2316 C2313 1.463 . S
C2316 N2320 1.427 . S
C2317 H2307 0.929 . S
C2317 C2315 1.433 . S
C2317 N2320 1.384 . S
C2318 H2309 0.929 . S
C2318 C2310 1.378 . S
C2318 C2313 1.350 . S
C2319 H2306 0.929 . S
C2319 C2311 1.433 . S
C2319 N2321 1.384 . S
N2320 C2316 1.427 . S
N2320 C2317 1.384 . S
N2321 C2313 1.427 . S
N2321 C2319 1.384 . S
H2322 C2328 0.930 . S
H2323 C2332 0.930 . S
H2324 C2337 0.929 . S
H2325 C2335 0.929 . S
H2326 C2330 0.929 . S
H2327 C2336 0.929 . S
C2328 H2322 0.930 . S
C2328 C2329 1.367 . S
C2328 C2336 1.378 . S
C2329 C2328 1.367 . S
C2329 C2337 1.433 . S
C2330 H2326 0.929 . S
C2330 C2332 1.378 . S
C2330 C2334 1.350 . S
C2331 C2334 1.463 . S
C2331 C2336 1.350 . S
C2331 N2339 1.427 . S
C2332 H2323 0.930 . S
C2332 C2330 1.378 . S
C2332 C2333 1.367 . S
C2333 C2332 1.367 . S
C2333 C2335 1.433 . S
C2334 C2330 1.350 . S
C2334 C2331 1.463 . S
C2334 N2338 1.427 . S
C2335 H2325 0.929 . S
C2335 C2333 1.433 . S
C2335 N2338 1.384 . S
C2336 H2327 0.929 . S
C2336 C2328 1.378 . S
C2336 C2331 1.350 . S
C2337 H2324 0.929 . S
C2337 C2329 1.433 . S
C2337 N2339 1.384 . S
N2338 C2334 1.427 . S
N2338 C2335 1.384 . S
N2339 C2331 1.427 . S
N2339 C2337 1.384 . S
H2340 C2346 0.930 . S
H2341 C2350 0.930 . S
H2342 C2355 0.929 . S
H2343 C2353 0.929 . S
H2344 C2348 0.929 . S
H2345 C2354 0.929 . S
C2346 H2340 0.930 . S
C2346 C2347 1.367 . S
C2346 C2354 1.378 . S
C2347 C2346 1.367 . S
C2347 C2355 1.433 . S
C2348 H2344 0.929 . S
C2348 C2350 1.378 . S
C2348 C2352 1.350 . S
C2349 C2352 1.463 . S
C2349 C2354 1.350 . S
C2349 N2357 1.427 . S
C2350 H2341 0.930 . S
C2350 C2348 1.378 . S
C2350 C2351 1.367 . S
C2351 C2350 1.367 . S
C2351 C2353 1.433 . S
C2352 C2348 1.350 . S
C2352 C2349 1.463 . S
C2352 N2356 1.427 . S
C2353 H2343 0.929 . S
C2353 C2351 1.433 . S
C2353 N2356 1.384 . S
C2354 H2345 0.929 . S
C2354 C2346 1.378 . S
C2354 C2349 1.350 . S
C2355 H2342 0.929 . S
C2355 C2347 1.433 . S
C2355 N2357 1.384 . S
N2356 C2352 1.427 . S
N2356 C2353 1.384 . S
N2357 C2349 1.427 . S
N2357 C2355 1.384 . S
H2358 C2364 0.930 . S
H2359 C2368 0.930 . S
H2360 C2373 0.929 . S
H2361 C2371 0.929 . S
H2362 C2366 0.929 . S
H2363 C2372 0.929 . S
C2364 H2358 0.930 . S
C2364 C2365 1.367 1_455 S
C2364 C2372 1.378 . S
C2365 C2364 1.367 1_655 S
C2365 C2373 1.433 . S
C2366 H2362 0.929 . S
C2366 C2368 1.378 . S
C2366 C2370 1.350 . S
C2367 C2370 1.463 . S
C2367 C2372 1.350 1_655 S
C2367 N2375 1.427 . S
C2368 H2359 0.930 . S
C2368 C2366 1.378 . S
C2368 C2369 1.367 . S
C2369 C2368 1.367 . S
C2369 C2371 1.433 1_655 S
C2370 C2366 1.350 . S
C2370 C2367 1.463 . S
C2370 N2374 1.427 1_655 S
C2371 H2361 0.929 . S
C2371 C2369 1.433 1_455 S
C2371 N2374 1.384 . S
C2372 H2363 0.929 . S
C2372 C2364 1.378 . S
C2372 C2367 1.350 1_455 S
C2373 H2360 0.929 . S
C2373 C2365 1.433 . S
C2373 N2375 1.384 . S
N2374 C2370 1.427 1_455 S
N2374 C2371 1.384 . S
N2375 C2367 1.427 . S
N2375 C2373 1.384 . S
H2376 C2382 0.930 . S
H2377 C2386 0.930 . S
H2378 C2391 0.929 . S
H2379 C2389 0.929 . S
H2380 C2384 0.929 . S
H2381 C2390 0.929 . S
C2382 H2376 0.930 . S
C2382 C2383 1.367 . S
C2382 C2390 1.378 . S
C2383 C2382 1.367 . S
C2383 C2391 1.433 . S
C2384 H2380 0.929 . S
C2384 C2386 1.378 . S
C2384 C2388 1.350 . S
C2385 C2388 1.463 . S
C2385 C2390 1.350 . S
C2385 N2393 1.427 . S
C2386 H2377 0.930 . S
C2386 C2384 1.378 . S
C2386 C2387 1.367 . S
C2387 C2386 1.367 . S
C2387 C2389 1.433 . S
C2388 C2384 1.350 . S
C2388 C2385 1.463 . S
C2388 N2392 1.427 . S
C2389 H2379 0.929 . S
C2389 C2387 1.433 . S
C2389 N2392 1.384 . S
C2390 H2381 0.929 . S
C2390 C2382 1.378 . S
C2390 C2385 1.350 . S
C2391 H2378 0.929 . S
C2391 C2383 1.433 . S
C2391 N2393 1.384 . S
N2392 C2388 1.427 . S
N2392 C2389 1.384 . S
N2393 C2385 1.427 . S
N2393 C2391 1.384 . S
H2394 C2400 0.930 . S
H2395 C2404 0.930 . S
H2396 C2409 0.929 . S
H2397 C2407 0.929 . S
H2398 C2402 0.929 . S
H2399 C2408 0.929 . S
C2400 H2394 0.930 . S
C2400 C2401 1.367 . S
C2400 C2408 1.378 . S
C2401 C2400 1.367 . S
C2401 C2409 1.433 1_545 S
C2402 H2398 0.929 . S
C2402 C2404 1.378 . S
C2402 C2406 1.350 1_565 S
C2403 C2406 1.463 . S
C2403 C2408 1.350 . S
C2403 N2411 1.427 1_545 S
C2404 H2395 0.930 . S
C2404 C2402 1.378 . S
C2404 C2405 1.367 1_565 S
C2405 C2404 1.367 1_545 S
C2405 C2407 1.433 . S
C2406 C2402 1.350 1_545 S
C2406 C2403 1.463 . S
C2406 N2410 1.427 . S
C2407 H2397 0.929 . S
C2407 C2405 1.433 . S
C2407 N2410 1.384 . S
C2408 H2399 0.929 . S
C2408 C2400 1.378 . S
C2408 C2403 1.350 . S
C2409 H2396 0.929 . S
C2409 C2401 1.433 1_565 S
C2409 N2411 1.384 . S
N2410 C2406 1.427 . S
N2410 C2407 1.384 . S
N2411 C2403 1.427 1_565 S
N2411 C2409 1.384 . S
C1123 C9 1.454 1_655 S
C1127 C729 1.487 . S
C1141 C19 1.577 . S
C1145 C777 1.574 . S
C1163 C825 1.526 . S
C1159 C33 1.526 . S
C1177 C37 1.503 1_565 S
C1181 C849 1.504 . S
C1195 C5 1.476 . S
C1199 C921 1.482 . S
C1213 C23 1.614 . S
C1217 C969 1.609 . S
C1231 C47 1.495 . S
C1235 C897 1.503 . S
C1253 C945 1.627 . S
C1249 C65 1.630 . S
C1271 C873 1.490 . S
C1267 C75 1.496 . S
C1285 C79 1.436 . S
C1289 C801 1.445 . S
C1307 C705 1.529 . S
C1303 C51 1.500 . S
C1321 C61 1.601 . S
C1325 C753 1.598 . S
C1339 C93 1.703 . S
C1343 C1017 1.696 . S
C1357 C103 1.642 . S
C1361 C1065 1.636 . S
C1379 C1089 1.642 . S
C1375 C117 1.666 . S
C1393 C121 1.630 . S
C1397 C273 1.601 . S
C1411 C89 1.641 . S
C1415 C345 1.635 . S
C1429 C107 1.661 . S
C1433 C393 1.652 . S
C1447 C131 1.611 . S
C1451 C321 1.600 . S
C1465 C149 1.671 . S
C1469 C369 1.657 . S
C1487 C297 1.591 . S
C1483 C159 1.632 . S
C1505 C1113 1.624 . S
C1501 C163 1.670 . S
C1523 C993 1.679 . S
C1519 C135 1.690 . S
C1541 C1041 1.662 . S
C1537 C145 1.669 . S
C1555 C177 1.624 . S
C1559 C441 1.616 . S
C1573 C187 1.612 . S
C1577 C489 1.604 . S
C1591 C201 1.671 . S
C1595 C513 1.647 . S
C1609 C205 1.708 . S
C1613 C561 1.688 . S
C1631 C633 1.628 . S
C1627 C173 1.639 . S
C1649 C681 1.678 . S
C1645 C191 1.693 . S
C1667 C609 1.688 . S
C1663 C215 1.699 . S
C1685 C657 1.691 . S
C1681 C233 1.708 . S
C1699 C243 1.621 . S
C1703 C585 1.578 . S
C1721 C537 1.541 . S
C1717 C247 1.581 . S
C1735 C219 1.693 . S
C1739 C417 1.685 . S
C1757 C465 1.635 . S
C1753 C229 1.649 . S
C1775 C282 1.567 . S
C1771 C11 1.571 . S
C1789 C14 1.516 . S
C1793 C336 1.494 . S
C1811 C384 1.621 . S
C1807 C28 1.651 . S
C1829 C432 1.616 . S
C1825 C39 1.642 . S
C1847 C480 1.565 . S
C1843 C0 1.587 . S
C1865 C522 1.474 . S
C1861 C25 1.479 . S
C1879 C42 1.642 . S
C1883 C528 1.631 . S
C1897 C67 1.535 . S
C1901 C426 1.497 . S
C1915 C70 1.537 . S
C1919 C474 1.491 . S
C1933 C81 1.565 . S
C1937 C330 1.536 . S
C1955 C378 1.580 . S
C1951 C53 1.620 . S
C1969 C56 1.555 . S
C1973 C288 1.542 . S
C1991 C570 1.535 . S
C1987 C95 1.538 . S
C2005 C98 1.629 . S
C2009 C624 1.600 . S
C2023 C112 1.699 . S
C2027 C672 1.676 . S
C2045 C720 1.444 . S
C2041 C123 1.438 . S
C2059 C84 1.563 . S
C2063 C768 1.542 . S
C2077 C109 1.380 . S
C2081 C816 1.386 . S
C2095 C126 1.456 . S
C2099 C810 1.465 . S
C2113 C151 1.414 . S
C2117 C714 1.424 . S
C2135 C762 1.509 . S
C2131 C154 1.531 . S
C2149 C165 1.525 . S
C2153 C618 1.491 . S
C2167 C137 1.654 . S
C2171 C666 1.617 . S
C2189 C576 1.654 . S
C2185 C140 1.663 . S
C2207 C858 1.417 . S
C2203 C179 1.408 . S
C2221 C182 1.405 . S
C2225 C912 1.419 . S
C2239 C196 1.622 . S
C2243 C960 1.599 . S
C2261 C1008 1.577 . S
C2257 C207 1.607 . S
C2279 C1056 1.607 . S
C2275 C168 1.626 . S
C2293 C193 1.596 . S
C2297 C1098 1.597 . S
C2311 C210 1.618 . S
C2315 C1104 1.607 . S
C2329 C235 1.645 . S
C2333 C1002 1.611 . S
C2351 C1050 1.566 . S
C2347 C238 1.593 . S
C2369 C906 1.376 . S
C2365 C249 1.370 . S
C2387 C954 1.543 . S
C2383 C221 1.587 . S
C2401 C224 1.436 . S
C2405 C864 1.448 . S
