# Generated by pormake.
# Topology zzz, (3,6)-cn, num edge types: 1
# Building blocks:
#     Node 0, Type 0, BuildingBlock: BETDIP_clean_linker_0, # of connection points: 3
#     Node 1, Type 0, BuildingBlock: BETDIP_clean_linker_0, # of connection points: 3
#     Node 2, Type 0, BuildingBlock: BETDIP_clean_linker_0, # of connection points: 3
#     Node 3, Type 0, BuildingBlock: BETDIP_clean_linker_0, # of connection points: 3
#     Node 4, Type 0, BuildingBlock: BETDIP_clean_linker_0, # of connection points: 3
#     Node 5, Type 0, BuildingBlock: BETDIP_clean_linker_0, # of connection points: 3
#     Node 6, Type 0, BuildingBlock: BETDIP_clean_linker_0, # of connection points: 3
#     Node 7, Type 0, BuildingBlock: BETDIP_clean_linker_0, # of connection points: 3
#     Node 8, Type 1, BuildingBlock: JUFBIX_clean_sbu_0, # of connection points: 6
#     Node 9, Type 1, BuildingBlock: JUFBIX_clean_sbu_0, # of connection points: 6
#     Node 10, Type 1, BuildingBlock: JUFBIX_clean_sbu_0, # of connection points: 6
#     Node 11, Type 1, BuildingBlock: JUFBIX_clean_sbu_0, # of connection points: 6
#     Edge 12, Type (0, 1), BuildingBlock: XIVTED_clean_linker_0, # of connection points: 2
#     Edge 13, Type (0, 1), BuildingBlock: XIVTED_clean_linker_0, # of connection points: 2
#     Edge 14, Type (0, 1), BuildingBlock: XIVTED_clean_linker_0, # of connection points: 2
#     Edge 15, Type (0, 1), BuildingBlock: XIVTED_clean_linker_0, # of connection points: 2
#     Edge 16, Type (0, 1), BuildingBlock: XIVTED_clean_linker_0, # of connection points: 2
#     Edge 17, Type (0, 1), BuildingBlock: XIVTED_clean_linker_0, # of connection points: 2
#     Edge 18, Type (0, 1), BuildingBlock: XIVTED_clean_linker_0, # of connection points: 2
#     Edge 19, Type (0, 1), BuildingBlock: XIVTED_clean_linker_0, # of connection points: 2
#     Edge 20, Type (0, 1), BuildingBlock: XIVTED_clean_linker_0, # of connection points: 2
#     Edge 21, Type (0, 1), BuildingBlock: XIVTED_clean_linker_0, # of connection points: 2
#     Edge 22, Type (0, 1), BuildingBlock: XIVTED_clean_linker_0, # of connection points: 2
#     Edge 23, Type (0, 1), BuildingBlock: XIVTED_clean_linker_0, # of connection points: 2
#     Edge 24, Type (0, 1), BuildingBlock: XIVTED_clean_linker_0, # of connection points: 2
#     Edge 25, Type (0, 1), BuildingBlock: XIVTED_clean_linker_0, # of connection points: 2
#     Edge 26, Type (0, 1), BuildingBlock: XIVTED_clean_linker_0, # of connection points: 2
#     Edge 27, Type (0, 1), BuildingBlock: XIVTED_clean_linker_0, # of connection points: 2
#     Edge 28, Type (0, 1), BuildingBlock: XIVTED_clean_linker_0, # of connection points: 2
#     Edge 29, Type (0, 1), BuildingBlock: XIVTED_clean_linker_0, # of connection points: 2
#     Edge 30, Type (0, 1), BuildingBlock: XIVTED_clean_linker_0, # of connection points: 2
#     Edge 31, Type (0, 1), BuildingBlock: XIVTED_clean_linker_0, # of connection points: 2
#     Edge 32, Type (0, 1), BuildingBlock: XIVTED_clean_linker_0, # of connection points: 2
#     Edge 33, Type (0, 1), BuildingBlock: XIVTED_clean_linker_0, # of connection points: 2
#     Edge 34, Type (0, 1), BuildingBlock: XIVTED_clean_linker_0, # of connection points: 2
#     Edge 35, Type (0, 1), BuildingBlock: XIVTED_clean_linker_0, # of connection points: 2
# Relax obj value: 0.120
# Max RMSD: 0.176
# Mean RMSD: 0.086
data_MOF--net-zzz--node1-JUFBIX_clean_sbu_0--node2-BETDIP_clean_linker_0--edge1-XIVTED_clean_linker_0
_symmetry_space_group_name_H-M    P1
_symmetry_Int_Tables_number       1
_symmetry_cell_setting            triclinic
loop_
_symmetry_equiv_pos_as_xyz
'x, y, z'
_cell_length_a     52.221576
_cell_length_b     51.980075
_cell_length_c     17.629611
_cell_angle_alpha  81.700803
_cell_angle_beta   89.945676
_cell_angle_gamma 91.661781
loop_
_atom_site_label
_atom_site_type_symbol
_atom_site_fract_x
_atom_site_fract_y
_atom_site_fract_z
_atom_type_partial_charge
H0 H 0.7837 0.50195 0.39322 0.0
H1 H 0.79564 0.49165 0.15741 0.0
H2 H 0.85634 0.47698 0.32 0.0
H3 H 0.77149 0.534 0.15819 0.0
C4 C 0.75591 0.5217 0.18556 0.0
C5 C 0.7957 0.4961 0.34891 0.0
C6 C 0.82101 0.48862 0.36563 0.0
C7 C 0.78635 0.49706 0.2736 0.0
C8 C 0.80252 0.49056 0.21572 0.0
C9 C 0.82766 0.483 0.23239 0.0
C10 C 0.83651 0.48163 0.30756 0.0
N11 N 0.76103 0.50524 0.25532 0.0
H12 H 0.99912 0.74315 0.39023 0.0
H13 H 0.01893 0.77851 0.16053 0.0
H14 H 0.03309 0.82018 0.35003 0.0
H15 H 0.97994 0.75284 0.14638 0.0
C16 C 0.98893 0.73502 0.17159 0.0
C17 C 0.00768 0.75915 0.35137 0.0
C18 C 0.0161 0.78198 0.37919 0.0
C19 C 0.00936 0.75752 0.2724 0.0
C20 C 0.01866 0.77926 0.22156 0.0
C21 C 0.02671 0.80221 0.24901 0.0
C22 C 0.02665 0.80266 0.32809 0.0
N23 N 1.00106 0.73434 0.24413 0.0
H24 H 0.773 1.00134 0.30056 0.0
H25 H 0.7477 1.00434 0.06587 0.0
H26 H 0.69324 0.00827 0.2456 0.0
H27 H 0.78216 0.97761 0.06508 0.0
C28 C 0.79652 0.9888 0.092 0.0
C29 C 0.75783 1.00283 0.25841 0.0
C30 C 0.73229 1.00474 0.28157 0.0
C31 C 0.76365 1.00239 0.18042 0.0
C32 C 0.74359 1.00426 0.12608 0.0
C33 C 0.71807 1.00583 0.14959 0.0
C34 C 0.71285 0.00646 0.227 0.0
N35 N 0.78962 1.00017 0.15767 0.0
H36 H 0.52762 0.74067 0.30628 0.0
H37 H 0.526 0.72747 0.06959 0.0
H38 H 0.52909 0.66296 0.24979 0.0
H39 H 0.55218 0.76491 0.06014 0.0
C40 C 0.54017 0.77664 0.09117 0.0
C41 C 0.52768 0.72758 0.26373 0.0
C42 C 0.52845 0.70055 0.28692 0.0
C43 C 0.52775 0.73764 0.18497 0.0
C44 C 0.52705 0.72026 0.13025 0.0
C45 C 0.52784 0.69341 0.15383 0.0
C46 C 0.52877 0.68383 0.23172 0.0
N47 N 0.52856 0.76507 0.16153 0.0
H48 H 0.23914 0.51997 0.15629 0.0
H49 H 0.22414 0.53722 0.38441 0.0
H50 H 0.16176 0.52752 0.23255 0.0
H51 H 0.26158 0.56651 0.33564 0.0
C52 C 0.27233 0.5492 0.33077 0.0
C53 C 0.22581 0.5237 0.20027 0.0
C54 C 0.19926 0.52319 0.18632 0.0
C55 C 0.23502 0.5296 0.27122 0.0
C56 C 0.21741 0.53381 0.3285 0.0
C57 C 0.19107 0.53331 0.31427 0.0
C58 C 0.18224 0.5283 0.24312 0.0
N59 N 0.26182 0.53085 0.28579 0.0
H60 H 0.018 0.26268 0.16313 0.0
H61 H 0.99982 0.22805 0.39496 0.0
H62 H 1.00412 0.18021 0.21668 0.0
H63 H 0.97333 0.266 0.37667 0.0
C64 C 0.98982 0.27909 0.36252 0.0
C65 C 0.01314 0.24574 0.20451 0.0
C66 C 0.01186 0.22086 0.18168 0.0
C67 C 0.00738 0.24856 0.28111 0.0
C68 C 1.0024 0.22615 0.33511 0.0
C69 C 1.00173 0.20131 0.31276 0.0
C70 C 1.00548 0.19917 0.23549 0.0
N71 N 0.00705 0.27373 0.30437 0.0
H72 H 0.26455 0.02614 0.27905 0.0
H73 H 0.28055 0.98826 0.50784 0.0
H74 H 0.34126 1.00486 0.34198 0.0
H75 H 0.23842 0.96925 0.47946 0.0
C76 C 0.22985 0.98817 0.46592 0.0
C77 C 0.27792 0.01721 0.32115 0.0
C78 C 0.30394 0.01611 0.30201 0.0
C79 C 0.26918 0.00655 0.39502 0.0
C80 C 0.2869 0.99559 0.45006 0.0
C81 C 0.31297 0.99472 0.43109 0.0
C82 C 0.32108 1.00479 0.35683 0.0
N83 N 0.24279 0.00786 0.41415 0.0
H84 H 0.49452 0.2763 0.25649 0.0
H85 H 0.50252 0.28632 0.49447 0.0
H86 H 0.48654 0.3517 0.32531 0.0
H87 H 0.5354 0.25269 0.47033 0.0
C88 C 0.51966 0.24039 0.45465 0.0
C89 C 0.49417 0.2886 0.3011 0.0
C90 C 0.4898 0.31532 0.28216 0.0
C91 C 0.49869 0.27793 0.37789 0.0
C92 C 0.49905 0.29426 0.43524 0.0
C93 C 0.49409 0.32075 0.41633 0.0
C94 C 0.48938 0.33097 0.34017 0.0
N95 N 0.50222 0.25075 0.3971 0.0
Co96 Co 0.02273 0.01506 0.81738 0.0
C97 C 0.97197 1.00097 0.84994 0.0
Co98 Co 0.00704 0.98761 0.74265 0.0
C99 C 0.02676 0.06351 0.8797 0.0
C100 C 0.05863 0.03942 0.91155 0.0
N101 N 0.0362 0.03991 0.87381 0.0
N102 N 0.0425 0.07795 0.91887 0.0
C103 C 0.06253 0.06266 0.93936 0.0
H104 H 0.009 0.07022 0.85343 0.0
H105 H 0.07161 0.02341 0.91698 0.0
C106 C 0.05764 1.0012 0.70965 0.0
N107 N 0.99345 0.96285 0.68636 0.0
C108 C 1.00265 0.93911 0.68127 0.0
C109 C 0.97107 0.96349 0.64829 0.0
N110 N 0.98681 0.92471 0.64235 0.0
C111 C 0.96696 0.94016 0.62111 0.0
C112 C 1.0002 0.03822 0.68171 0.0
O113 O 0.05479 0.0152 0.76261 0.0
O114 O 0.03881 0.98731 0.69156 0.0
O115 O 0.99646 0.01513 0.66744 0.0
O116 O 0.01124 0.04201 0.74333 0.0
O117 O 0.97522 0.98798 0.79496 0.0
H118 H 0.95825 0.97963 0.64231 0.0
H119 H 0.0203 0.93228 0.708 0.0
O120 O 0.99066 0.01458 0.87071 0.0
O121 O 0.03401 0.98743 0.89171 0.0
O122 O 0.01789 0.96069 0.81744 0.0
C123 C 0.02965 0.96435 0.878 0.0
H124 H 0.07894 0.0678 0.97206 0.0
H125 H 0.95054 0.93508 0.58837 0.0
Co126 Co 0.50492 0.01386 0.83108 0.0
C127 C 0.51933 0.96198 0.84646 0.0
Co128 Co 0.52669 1.00385 0.73168 0.0
C129 C 0.46064 0.02744 0.91538 0.0
C130 C 0.49367 0.02173 0.98682 0.0
N131 N 0.48572 0.02158 0.91404 0.0
N132 N 0.45274 0.03121 0.98573 0.0
C133 C 0.47351 0.02777 0.03079 0.0
H134 H 0.44827 0.02887 0.86587 0.0
H135 H 0.51274 0.01717 0.00734 0.0
C136 C 0.51277 0.05572 0.71609 0.0
N137 N 0.54605 0.99691 0.64847 0.0
C138 C 0.57122 0.99135 0.6473 0.0
C139 C 0.53961 1.00283 0.57403 0.0
N140 N 0.58079 0.99434 0.57541 0.0
C141 C 0.56096 1.00147 0.52912 0.0
C142 C 0.47439 0.99652 0.718 0.0
O143 O 0.50236 0.04908 0.7816 0.0
O144 O 0.52426 0.03883 0.68447 0.0
O145 O 0.49554 0.99465 0.68359 0.0
O146 O 0.47454 1.00459 0.78254 0.0
O147 O 0.52917 0.96898 0.78028 0.0
H148 H 0.5212 0.00992 0.55395 0.0
H149 H 0.58292 0.98763 0.69812 0.0
O150 O 0.50767 0.97861 0.87926 0.0
O151 O 0.53599 0.02276 0.87904 0.0
O152 O 0.55716 0.01296 0.78045 0.0
C153 C 0.5572 0.02051 0.8456 0.0
H154 H 0.47385 0.02854 0.09182 0.0
H155 H 0.56224 0.007 0.46759 0.0
Co156 Co 0.52971 0.50599 0.78753 0.0
C157 C 0.50252 0.46862 0.88641 0.0
Co158 Co 0.48765 0.50949 0.77737 0.0
C159 C 0.57954 0.50442 0.86086 0.0
C160 C 0.58206 0.50343 0.74009 0.0
N161 N 0.56507 0.50381 0.79746 0.0
N162 N 0.6049 0.5048 0.84503 0.0
C163 C 0.60649 0.50406 0.76903 0.0
H164 H 0.57163 0.5057 0.91693 0.0
H165 H 0.57702 0.50344 0.68059 0.0
C166 C 0.51478 0.54694 0.67863 0.0
N167 N 0.4524 0.51196 0.76652 0.0
C168 C 0.43878 0.51448 0.70076 0.0
C169 C 0.43488 0.51259 0.82238 0.0
N170 N 0.4135 0.5169 0.7133 0.0
C171 C 0.411 0.51573 0.78985 0.0
C172 C 0.50898 0.53977 0.87804 0.0
O173 O 0.53414 0.53509 0.70836 0.0
O174 O 0.49245 0.53822 0.69887 0.0
O175 O 0.48778 0.53318 0.84998 0.0
O176 O 0.5294 0.52939 0.86 0.0
O177 O 0.48319 0.48055 0.85662 0.0
H178 H 0.43926 0.51117 0.88277 0.0
H179 H 0.44738 0.5153 0.64453 0.0
O180 O 0.52493 0.47717 0.86606 0.0
O181 O 0.52955 0.48234 0.71484 0.0
O182 O 0.4879 0.486 0.70511 0.0
C183 C 0.50834 0.47563 0.68711 0.0
H184 H 0.62407 0.50431 0.73634 0.0
H185 H 0.39317 0.51707 0.82021 0.0
Co186 Co 0.00899 0.52473 0.77755 0.0
C187 C 0.04991 0.50275 0.86396 0.0
Co188 Co 0.01214 0.48226 0.77889 0.0
C189 C 1.00583 0.57184 0.84627 0.0
C190 C 1.00308 0.57929 0.72398 0.0
N191 N 1.00621 0.56002 0.78276 0.0
N192 N 1.00237 0.59772 0.82958 0.0
C193 C 1.00071 0.60242 0.75246 0.0
H194 H 0.00737 0.56146 0.90381 0.0
H195 H 1.00228 0.57663 0.66428 0.0
C196 C 0.97124 0.50424 0.69237 0.0
N197 N 0.01472 0.44699 0.77316 0.0
C198 C 0.01334 0.43532 0.7094 0.0
C199 C 0.01719 0.42737 0.83137 0.0
N200 N 0.0146 0.40918 0.72551 0.0
C201 C 0.01701 0.40412 0.80234 0.0
C202 C 0.97996 0.49395 0.8909 0.0
O203 O 0.97974 0.52545 0.71226 0.0
O204 O 0.98319 0.48346 0.7133 0.0
O205 O 0.98952 0.47487 0.86429 0.0
O206 O 0.98684 0.51697 0.86269 0.0
O207 O 0.04119 0.48147 0.84491 0.0
H208 H 0.0186 0.42979 0.89116 0.0
H209 H 0.01059 0.44578 0.65244 0.0
O210 O 0.03814 0.52362 0.84243 0.0
O211 O 0.03126 0.53212 0.69178 0.0
O212 O 0.03456 0.49002 0.69416 0.0
C213 C 0.04108 0.51311 0.66551 0.0
H214 H 0.99803 0.62125 0.71873 0.0
H215 H 0.01844 0.38497 0.8353 0.0
H216 H 0.20566 0.03387 0.47959 0.0
H217 H 0.07431 0.96313 0.63201 0.0
H218 H 0.19565 0.95044 0.52438 0.0
H219 H 0.09805 0.03687 0.69845 0.0
H220 H 0.11586 0.9609 0.56976 0.0
H221 H 0.16335 0.03804 0.53799 0.0
C222 C 0.19446 0.01648 0.50103 0.0
C223 C 0.20404 0.99174 0.49703 0.0
C224 C 0.11196 0.97759 0.59785 0.0
C225 C 0.15584 0.99638 0.56282 0.0
C226 C 0.08822 0.97895 0.63315 0.0
C227 C 0.08271 1.0002 0.67072 0.0
C228 C 0.13027 0.99784 0.59864 0.0
C229 C 0.10157 0.02007 0.67052 0.0
C230 C 0.17047 0.01887 0.53469 0.0
C231 C 0.18891 0.96984 0.52632 0.0
N232 N 0.1245 0.0185 0.6346 0.0
N233 N 0.16551 0.97265 0.55743 0.0
H234 H 0.55875 0.21099 0.51412 0.0
H235 H 0.4764 0.09243 0.72511 0.0
H236 H 0.47724 0.20743 0.47668 0.0
H237 H 0.54884 0.08083 0.61909 0.0
H238 H 0.47709 0.13749 0.65789 0.0
H239 H 0.5565 0.16564 0.57692 0.0
C240 C 0.54041 0.20058 0.519 0.0
C241 C 0.51821 0.21275 0.48958 0.0
C242 C 0.49274 0.12495 0.6495 0.0
C243 C 0.51539 0.16138 0.56317 0.0
C244 C 0.49244 0.0994 0.68801 0.0
C245 C 0.51258 0.08294 0.67744 0.0
C246 C 0.51367 0.13419 0.60224 0.0
C247 C 0.53287 0.09285 0.6285 0.0
C248 C 0.53915 0.1748 0.55467 0.0
C249 C 0.49484 0.19855 0.49781 0.0
N250 N 0.53306 0.11791 0.59345 0.0
N251 N 0.49396 0.17362 0.53473 0.0
H252 H 0.30697 0.50936 0.33784 0.0
H253 H 0.37141 0.54556 0.72069 0.0
H254 H 0.28814 0.57684 0.44071 0.0
H255 H 0.40997 0.49832 0.5769 0.0
H256 H 0.33768 0.55305 0.62492 0.0
H257 H 0.34236 0.50117 0.42993 0.0
C258 C 0.31034 0.52246 0.37952 0.0
C259 C 0.29464 0.54381 0.3819 0.0
C260 C 0.35352 0.54105 0.61411 0.0
C261 C 0.33459 0.5344 0.48741 0.0
C262 C 0.37269 0.53663 0.66909 0.0
C263 C 0.39352 0.52128 0.65681 0.0
C264 C 0.35489 0.52979 0.54648 0.0
C265 C 0.39434 0.51046 0.58824 0.0
C266 C 0.33051 0.51782 0.43187 0.0
C267 C 0.29981 0.56018 0.43696 0.0
N268 N 0.3752 0.51477 0.53575 0.0
N269 N 0.31915 0.55504 0.48776 0.0
H270 H 0.02576 0.32013 0.34474 0.0
H271 H 0.99291 0.36081 0.75354 0.0
H272 H 0.96503 0.28428 0.4929 0.0
H273 H 0.03039 0.41482 0.57657 0.0
H274 H 0.98793 0.32955 0.66332 0.0
H275 H 0.03266 0.35257 0.43266 0.0
C276 C 0.01392 0.3191 0.39561 0.0
C277 C 0.99478 0.29953 0.41176 0.0
C278 C 0.99727 0.34823 0.64407 0.0
C279 C 1.00276 0.3361 0.51241 0.0
C280 C 1.00028 0.36601 0.69581 0.0
C281 C 0.01207 0.39048 0.67263 0.0
C282 C 1.00639 0.3547 0.56852 0.0
C283 C 0.02097 0.39626 0.59655 0.0
C284 C 0.01781 0.3376 0.44555 0.0
C285 C 0.97996 0.29907 0.4783 0.0
N286 N 0.01807 0.37845 0.54721 0.0
N287 N 0.98435 0.31691 0.52628 0.0
H288 H 0.81333 0.96659 0.97306 0.0
H289 H 0.95723 0.02529 0.97169 0.0
H290 H 0.83949 0.01544 0.13696 0.0
H291 H 0.92872 0.97418 0.81649 0.0
H292 H 0.91484 0.02261 0.03358 0.0
H293 H 0.85599 0.9697 0.91579 0.0
C294 C 0.82816 0.97795 -0.00289 0.0
C295 C 0.82288 0.99071 0.05984 0.0
C296 C 0.91794 0.012 0.98601 0.0
C297 C 0.87202 0.99453 0.99426 0.0
C298 C 0.94212 0.01352 0.9506 0.0
C299 C 0.94661 0.99993 0.88871 0.0
C300 C 0.89813 0.99681 0.95922 0.0
C301 C 0.92627 0.98501 0.86392 0.0
C302 C 0.85256 0.97975 0.96435 0.0
C303 C 0.84278 1.00523 0.08867 0.0
N304 N 0.90304 0.98388 0.89912 0.0
N305 N 0.86651 0.00679 0.05555 0.0
H306 H 0.56083 0.80133 0.95954 0.0
H307 H 0.49973 0.93952 0.98629 0.0
H308 H 0.51236 0.81458 0.14736 0.0
H309 H 0.54456 0.92245 0.7948 0.0
H310 H 0.50455 0.89459 0.04847 0.0
H311 H 0.5557 0.84631 0.90104 0.0
C312 C 0.54912 0.81381 0.98855 0.0
C313 C 0.53702 0.80424 0.05831 0.0
C314 C 0.51329 0.90071 0.99283 0.0
C315 C 0.53094 0.85596 0.99152 0.0
C316 C 0.51056 0.92636 0.95725 0.0
C317 C 0.52173 0.93483 0.88505 0.0
C318 C 0.52737 0.8834 0.95609 0.0
C319 C 0.53556 0.91688 0.85031 0.0
C320 C 0.54615 0.83951 0.95507 0.0
C321 C 0.52204 0.8212 0.09348 0.0
N322 N 0.53798 0.89212 0.88612 0.0
N323 N 0.5194 0.84629 0.05965 0.0
H324 H 0.71179 0.49162 0.22559 0.0
H325 H 0.65083 0.52901 0.80937 0.0
H326 H 0.74544 0.54753 0.04603 0.0
H327 H 0.6071 0.48753 -0.0016 0.0
H328 H 0.6865 0.5336 0.8956 0.0
H329 H 0.67379 0.48793 0.14473 0.0
C330 C 0.7111 0.50323 0.16949 0.0
C331 C 0.73178 0.51989 0.14222 0.0
C332 C 0.66913 0.52351 0.91857 0.0
C333 C 0.6887 0.51557 0.04955 0.0
C334 C 0.64878 0.52069 0.86904 0.0
C335 C 0.62596 0.50771 0.89648 0.0
C336 C 0.6669 0.51309 -0.00354 0.0
C337 C 0.6243 0.4978 0.97494 0.0
C338 C 0.68945 0.50111 0.12341 0.0
C339 C 0.72992 0.53444 0.06916 0.0
N340 N 0.64457 0.50054 0.02218 0.0
N341 N 0.70892 0.53183 0.02534 0.0
H342 H 0.96648 0.73293 0.03496 0.0
H343 H 0.02143 0.59473 0.97466 0.0
H344 H 0.01279 0.68766 0.20401 0.0
H345 H 0.97752 0.64337 0.80656 0.0
H346 H 0.01714 0.62692 0.06248 0.0
H347 H 0.96884 0.69878 0.95397 0.0
C348 C 0.97704 0.71565 0.05519 0.0
C349 C 0.98945 0.71314 0.12618 0.0
C350 C 0.00845 0.6305 0.00635 0.0
C351 C 0.99247 0.67384 0.0333 0.0
C352 C 0.01078 0.61206 0.95623 0.0
C353 C 0.99993 0.61632 0.88264 0.0
C354 C 0.99506 0.65333 0.98296 0.0
C355 C 0.98659 0.63934 0.86192 0.0
C356 C 0.97845 0.69616 0.00883 0.0
C357 C 1.00291 0.69037 0.14964 0.0
N358 N 0.98455 0.65688 0.91163 0.0
N359 N 1.00414 0.6716 0.10313 0.0
H360 H 0.97137 0.19298 0.44328 0.0
H361 H 0.99772 0.04143 0.526 0.0
H362 H 0.02458 0.15462 0.31191 0.0
H363 H 0.98836 0.08642 0.71114 0.0
H364 H 0.99416 0.0814 0.43421 0.0
H365 H 0.96601 0.1523 0.53281 0.0
C366 C 0.98187 0.17615 0.43301 0.0
C367 C 0.99821 0.17726 0.36915 0.0
C368 C 0.99248 0.08233 0.49499 0.0
C369 C 0.99135 0.13077 0.46926 0.0
C370 C 0.99434 0.05961 0.54713 0.0
C371 C 0.99365 0.06083 0.6259 0.0
C372 C 0.98944 0.10618 0.52212 0.0
C373 C 0.98933 0.08484 0.65062 0.0
C374 C 0.97859 0.15296 0.48364 0.0
C375 C 0.01112 0.15465 0.35861 0.0
N376 N 0.98749 0.1067 0.59879 0.0
N377 N 0.00726 0.13234 0.40773 0.0
H378 H 0.31799 0.00678 0.57668 0.0
H379 H 0.4658 0.97656 0.58379 0.0
H380 H 0.35336 0.96346 0.41575 0.0
H381 H 0.42637 1.00196 0.774 0.0
H382 H 0.42429 0.96907 0.52507 0.0
H383 H 0.35634 1.00158 0.65631 0.0
C384 C 0.33352 0.99554 0.55921 0.0
C385 C 0.33268 0.98593 0.4889 0.0
C386 C 0.42474 0.97601 0.58009 0.0
C387 C 0.37689 0.98058 0.5783 0.0
C388 C 0.44844 0.9804 0.61341 0.0
C389 C 0.4496 0.99021 0.68342 0.0
C390 C 0.40208 0.98174 0.61664 0.0
C391 C 0.42646 0.99465 0.71956 0.0
C392 C 0.35554 0.99278 0.60428 0.0
C393 C 0.35347 0.97167 0.4688 0.0
N394 N 0.4037 0.99067 0.68537 0.0
N395 N 0.37492 0.96986 0.51246 0.0
H396 H 0.53422 0.33193 0.50658 0.0
H397 H 0.4665 0.45804 0.61535 0.0
H398 H 0.45622 0.35168 0.4509 0.0
H399 H 0.54597 0.44185 0.66333 0.0
H400 H 0.46213 0.41783 0.56034 0.0
H401 H 0.53814 0.36972 0.57547 0.0
C402 C 0.51773 0.34382 0.51093 0.0
C403 C 0.49487 0.33884 0.47345 0.0
C404 C 0.48058 0.42307 0.58255 0.0
C405 C 0.49932 0.38221 0.54953 0.0
C406 C 0.48314 0.44617 0.61349 0.0
C407 C 0.50666 0.45337 0.64382 0.0
C408 C 0.50166 0.40693 0.58196 0.0
C409 C 0.52752 0.43712 0.64012 0.0
C410 C 0.52005 0.36554 0.54917 0.0
C411 C 0.47415 0.35498 0.47927 0.0
N412 N 0.52451 0.41457 0.61 0.0
N413 N 0.47694 0.37607 0.51595 0.0
H414 H 0.1526 0.5678 0.31052 0.0
H415 H 0.0743 0.4773 0.63008 0.0
H416 H 0.18595 0.50291 0.45235 0.0
H417 H 0.05746 0.55882 0.57834 0.0
H418 H 0.1129 0.48521 0.55176 0.0
H419 H 0.11592 0.56481 0.39906 0.0
C420 C 0.15239 0.55335 0.3614 0.0
C421 C 0.17217 0.53559 0.37475 0.0
C422 C 0.10076 0.50136 0.55757 0.0
C423 C 0.13028 0.53153 0.47385 0.0
C424 C 0.07853 0.49684 0.60145 0.0
C425 C 0.0626 0.51746 0.61058 0.0
C426 C 0.10694 0.52658 0.5214 0.0
C427 C 0.06923 0.5424 0.57261 0.0
C428 C 0.13153 0.5516 0.41149 0.0
C429 C 0.17111 0.51705 0.44071 0.0
N430 N 0.09091 0.54628 0.52912 0.0
N431 N 0.15023 0.51519 0.48727 0.0
H432 H 0.01401 0.85157 0.26846 0.0
H433 H 0.03861 0.91577 0.84642 0.0
H434 H 0.05117 0.80919 0.10767 0.0
H435 H 0.03639 0.961 0.03309 0.0
H436 H 0.04348 0.87642 0.93874 0.0
H437 H 0.02177 0.89157 0.18199 0.0
C438 C 0.02435 0.85061 0.21573 0.0
C439 C 0.03231 0.82677 0.19621 0.0
C440 C 0.0424 0.895 0.95942 0.0
C441 C 0.04029 0.8729 0.09498 0.0
C442 C 0.03951 0.91743 0.90692 0.0
C443 C 0.03675 0.94156 0.93251 0.0
C444 C 0.04198 0.89668 0.03799 0.0
C445 C 0.03834 0.94273 0.0112 0.0
C446 C 0.02862 0.8736 0.16607 0.0
C447 C 0.04453 0.82698 0.12508 0.0
N448 N 0.04036 0.92047 0.06143 0.0
N449 N 0.0479 0.8497 0.07655 0.0
H450 H 0.67272 0.97869 0.17105 0.0
H451 H 0.60517 0.02874 0.78231 0.0
H452 H 0.71346 0.03452 0.00566 0.0
H453 H 0.5651 0.01724 -0.00059 0.0
H454 H 0.6461 0.02573 0.85133 0.0
H455 H 0.63406 0.98532 0.09459 0.0
C456 C 0.67357 0.99229 0.11833 0.0
C457 C 0.69621 0.00657 0.09562 0.0
C458 C 0.6283 0.02426 0.88347 0.0
C459 C 0.65201 0.01385 0.00728 0.0
C460 C 0.605 0.02599 0.84442 0.0
C461 C 0.58174 0.02319 0.88539 0.0
C462 C 0.62817 0.019 0.96366 0.0
C463 C 0.58256 0.01961 0.96563 0.0
C464 C 0.65147 0.99608 0.07497 0.0
C465 C 0.69637 0.02324 0.02538 0.0
N466 N 0.60541 0.01717 0.00216 0.0
N467 N 0.67447 0.02653 0.98348 0.0
H468 H 0.56459 0.65971 0.13108 0.0
H469 H 0.47163 0.57393 0.90103 0.0
H470 H 0.48911 0.68333 0.05756 0.0
H471 H 0.55053 0.55628 0.95334 0.0
H472 H 0.47703 0.61363 0.9598 0.0
H473 H 0.55995 0.62218 0.06281 0.0
C474 C 0.54727 0.6572 0.09881 0.0
C475 C 0.52727 0.67455 0.09908 0.0
C476 C 0.49311 0.601 0.95856 0.0
C477 C 0.52137 0.63132 0.02313 0.0
C478 C 0.48997 0.5782 0.9258 0.0
C479 C 0.51066 0.56174 0.92243 0.0
C480 C 0.51706 0.60728 0.98834 0.0
C481 C 0.53405 0.56838 0.95468 0.0
C482 C 0.54449 0.6357 0.06048 0.0
C483 C 0.50503 0.67044 0.05762 0.0
N484 N 0.53661 0.59063 0.98612 0.0
N485 N 0.50252 0.64901 0.02183 0.0
H486 H 0.83628 0.51632 0.10069 0.0
H487 H 0.96049 0.44803 0.97067 0.0
H488 H 0.86191 0.44433 0.22645 0.0
H489 H 0.94922 0.5309 0.9322 0.0
H490 H 0.9208 0.4424 0.0474 0.0
H491 H 0.87305 0.51704 0.01459 0.0
C492 C 0.84928 0.5003 0.10885 0.0
C493 C 0.84621 0.48032 0.17084 0.0
C494 C 0.92722 0.46175 0.02219 0.0
C495 C 0.8885 0.4813 0.0739 0.0
C496 C 0.94986 0.465 0.97896 0.0
C497 C 0.95822 0.48997 0.94525 0.0
C498 C 0.91274 0.48356 0.03008 0.0
C499 C 0.94363 0.51129 0.95731 0.0
C500 C 0.87043 0.5009 0.06045 0.0
C501 C 0.86383 0.46019 0.17951 0.0
N502 N 0.92152 0.50756 -0.00188 0.0
N503 N 0.88442 0.46126 0.13183 0.0
H504 H 0.0593 0.2157 0.12423 0.0
H505 H 0.99787 0.10421 0.915 0.0
H506 H 0.97922 0.2098 0.07023 0.0
H507 H 0.07888 0.11247 0.95779 0.0
H508 H 0.99193 0.14745 0.94895 0.0
H509 H 0.06839 0.18449 0.03701 0.0
C510 C 0.04382 0.20897 0.09051 0.0
C511 C 0.01849 0.21536 0.10424 0.0
C512 C 0.01107 0.13993 0.95013 0.0
C513 C 0.02843 0.17851 0.00771 0.0
C514 C 0.01451 0.11511 0.93063 0.0
C515 C 0.0389 0.10424 0.93452 0.0
C516 C 0.03211 0.15409 0.97434 0.0
C517 C 0.05961 0.11957 0.95571 0.0
C518 C 0.0489 0.19067 0.04194 0.0
C519 C 0.99903 0.2055 0.06067 0.0
N520 N 0.0557 0.1435 0.97555 0.0
N521 N 1.00429 0.18704 0.01597 0.0
H522 H 0.32782 0.06309 0.26464 0.0
H523 H 0.40851 0.01042 0.93703 0.0
H524 H 0.30759 0.99268 0.17411 0.0
H525 H 0.43843 0.06106 0.09095 0.0
H526 H 0.3656 0.01319 0.99229 0.0
H527 H 0.36137 0.07267 0.16667 0.0
C528 C 0.32961 0.05035 0.22149 0.0
C529 C 0.31485 0.02721 0.22674 0.0
C530 C 0.3815 0.02404 0.01292 0.0
C531 C 0.35378 0.0374 0.11681 0.0
C532 C 0.40592 0.02255 0.98131 0.0
C533 C 0.42703 0.03531 0.01024 0.0
C534 C 0.37818 0.03874 0.07293 0.0
C535 C 0.4227 0.05062 0.06798 0.0
C536 C 0.34903 0.05557 0.16648 0.0
C537 C 0.3184 0.01089 0.17106 0.0
N538 N 0.39881 0.05181 0.09769 0.0
N539 N 0.33784 0.01605 0.11908 0.0
H540 H 0.5278 0.32284 0.17532 0.0
H541 H 0.45769 0.44526 0.94655 0.0
H542 H 0.44913 0.34037 0.21319 0.0
H543 H 0.53934 0.43462 0.94253 0.0
H544 H 0.45241 0.40288 0.02676 0.0
H545 H 0.52999 0.35844 0.06765 0.0
C546 C 0.51066 0.33346 0.15862 0.0
C547 C 0.48821 0.32865 0.20253 0.0
C548 C 0.47147 0.40981 0.00814 0.0
C549 C 0.4908 0.36997 0.08203 0.0
C550 C 0.47452 0.43409 0.96276 0.0
C551 C 0.49903 0.4437 0.93848 0.0
C552 C 0.49306 0.39492 0.02906 0.0
C553 C 0.52011 0.42818 0.96061 0.0
C554 C 0.51203 0.35408 0.09818 0.0
C555 C 0.46671 0.3434 0.18005 0.0
N556 N 0.51663 0.40462 0.00466 0.0
N557 N 0.46862 0.36366 0.12206 0.0
H558 H 0.18823 0.55767 0.06126 0.0
H559 H 0.07898 0.4622 0.93041 0.0
H560 H 0.18118 0.47651 0.15384 0.0
H561 H 0.07796 0.54605 0.88713 0.0
H562 H 0.12095 0.46528 0.99175 0.0
H563 H 0.15382 0.55148 0.97078 0.0
C564 C 0.18025 0.53828 0.05982 0.0
C565 C 0.18775 0.51748 0.11399 0.0
C566 C 0.11152 0.48296 0.96852 0.0
C567 C 0.14752 0.51043 0.01375 0.0
C568 C 0.08751 0.48123 0.93393 0.0
C569 C 0.07474 0.50389 0.90437 0.0
C570 C 0.12297 0.50753 0.97271 0.0
C571 C 0.08688 0.52803 0.90988 0.0
C572 C 0.16026 0.53482 0.00934 0.0
C573 C 0.17619 0.49288 0.11181 0.0
N574 N 0.11024 0.52918 0.94328 0.0
N575 N 0.15636 0.49009 0.06334 0.0
H576 H 0.96895 0.78706 0.43888 0.0
H577 H 0.0312 0.89806 0.64754 0.0
H578 H 0.04928 0.79317 0.49018 0.0
H579 H 0.95016 0.89033 0.60439 0.0
H580 H 0.03682 0.85467 0.61469 0.0
H581 H 0.96013 0.8178 0.52766 0.0
C582 C 0.98458 0.79377 0.4721 0.0
C583 C 0.0099 0.78777 0.45677 0.0
C584 C 0.01774 0.86233 0.61322 0.0
C585 C 1.0002 0.82392 0.55547 0.0
C586 C 0.01448 0.88724 0.63209 0.0
C587 C 0.99019 0.89831 0.62763 0.0
C588 C 0.99662 0.84829 0.58905 0.0
C589 C 0.96936 0.88307 0.60678 0.0
C590 C 0.97962 0.81178 0.52167 0.0
C591 C 0.02949 0.79739 0.5004 0.0
N592 N 0.97311 0.85904 0.58746 0.0
N593 N 0.02434 0.81556 0.54611 0.0
H594 H 0.72097 0.04591 0.35204 0.0
H595 H 0.61727 0.95896 0.61597 0.0
H596 H 0.72148 0.96227 0.38701 0.0
H597 H 0.60486 0.0345 0.48787 0.0
H598 H 0.66234 0.96213 0.57152 0.0
H599 H 0.68682 0.0442 0.44787 0.0
C600 C 0.71493 0.02723 0.38332 0.0
C601 C 0.72403 1.0042 0.36186 0.0
C602 C 0.64977 0.97811 0.55418 0.0
C603 C 0.68427 1.00201 0.46879 0.0
C604 C 0.6242 0.97626 0.5792 0.0
C605 C 0.60743 0.99628 0.55406 0.0
C606 C 0.65861 1.00046 0.5056 0.0
C607 C 0.61715 0.01846 0.50704 0.0
C608 C 0.69507 0.02622 0.4368 0.0
C609 C 0.71506 0.98044 0.4026 0.0
N610 N 0.64206 0.01994 0.48426 0.0
N611 N 0.69519 0.97988 0.45294 0.0
H612 H 0.48727 0.69021 0.38134 0.0
H613 H 0.55953 0.57249 0.62574 0.0
H614 H 0.56861 0.68008 0.36968 0.0
H615 H 0.47733 0.57919 0.61689 0.0
H616 H 0.56409 0.61531 0.54747 0.0
H617 H 0.48436 0.65449 0.48837 0.0
C618 C 0.50468 0.68126 0.40396 0.0
C619 C 0.52824 0.68822 0.36764 0.0
C620 C 0.54506 0.60742 0.56285 0.0
C621 C 0.52501 0.64654 0.48697 0.0
C622 C 0.54244 0.58287 0.60704 0.0
C623 C 0.518 0.57205 0.62725 0.0
C624 C 0.5231 0.62132 0.53884 0.0
C625 C 0.49656 0.58659 0.6021 0.0
C626 C 0.50299 0.66052 0.46397 0.0
C627 C 0.55017 0.67547 0.39721 0.0
N628 N 0.49962 0.61039 0.55918 0.0
N629 N 0.54798 0.65495 0.45435 0.0
H630 H 0.83788 0.44947 0.47053 0.0
H631 H 0.93999 0.54444 0.63679 0.0
H632 H 0.83525 0.53292 0.42188 0.0
H633 H 0.94566 0.46104 0.65684 0.0
H634 H 0.89819 0.54102 0.57486 0.0
H635 H 0.87245 0.45368 0.56172 0.0
C636 C 0.8439 0.46869 0.48171 0.0
C637 C 0.83359 0.49088 0.43949 0.0
C638 C 0.90859 0.52349 0.59309 0.0
C639 C 0.87404 0.49598 0.54057 0.0
C640 C 0.93252 0.52544 0.62797 0.0
C641 C 0.94653 0.50302 0.65137 0.0
C642 C 0.89852 0.49894 0.58202 0.0
C643 C 0.93574 0.4789 0.63917 0.0
C644 C 0.86394 0.47114 0.53268 0.0
C645 C 0.84248 0.51537 0.45436 0.0
N646 N 0.91248 0.47753 0.60537 0.0
N647 N 0.86254 0.5173 0.50275 0.0
loop_
_geom_bond_atom_site_label_1
_geom_bond_atom_site_label_2
_geom_bond_distance
_geom_bond_site_symmetry_2
_ccdc_geom_bond_type
H0 C5 0.930 . S
H1 C8 0.930 . S
H2 C10 0.930 . S
H3 C4 1.016 . S
C4 H3 1.016 . S
C4 N11 1.286 . S
C5 H0 0.930 . S
C5 C6 1.397 . S
C5 C7 1.361 . S
C6 C5 1.397 . S
C6 C10 1.390 . S
C7 C5 1.361 . S
C7 C8 1.393 . S
C7 N11 1.413 . S
C8 H1 0.930 . S
C8 C7 1.393 . S
C8 C9 1.399 . S
C9 C8 1.399 . S
C9 C10 1.381 . S
C10 H2 0.930 . S
C10 C6 1.390 . S
C10 C9 1.381 . S
N11 C4 1.286 . S
N11 C7 1.413 . S
H12 C17 0.930 . S
H13 C20 0.930 . S
H14 C22 0.930 . S
H15 C16 1.016 . S
C16 H15 1.016 . S
C16 N23 1.286 . S
C17 H12 0.930 . S
C17 C18 1.397 . S
C17 C19 1.361 . S
C18 C17 1.397 . S
C18 C22 1.390 . S
C19 C17 1.361 . S
C19 C20 1.393 . S
C19 N23 1.413 . S
C20 H13 0.930 . S
C20 C19 1.393 . S
C20 C21 1.399 . S
C21 C20 1.399 . S
C21 C22 1.381 . S
C22 H14 0.930 . S
C22 C18 1.390 . S
C22 C21 1.381 . S
N23 C16 1.286 . S
N23 C19 1.413 . S
H24 C29 0.930 . S
H25 C32 0.929 . S
H26 C34 0.930 . S
H27 C28 1.034 1_556 S
C28 H27 1.034 1_554 S
C28 N35 1.263 1_565 S
C29 H24 0.930 . S
C29 C30 1.397 . S
C29 C31 1.361 . S
C30 C29 1.397 . S
C30 C34 1.390 1_545 S
C31 C29 1.361 . S
C31 C32 1.394 1_554 S
C31 N35 1.413 . S
C32 H25 0.929 . S
C32 C31 1.394 1_556 S
C32 C33 1.401 1_556 S
C33 C32 1.401 1_554 S
C33 C34 1.382 1_545 S
C34 H26 0.930 . S
C34 C30 1.390 1_565 S
C34 C33 1.382 1_565 S
N35 C28 1.263 1_545 S
N35 C31 1.413 . S
H36 C41 0.930 . S
H37 C44 0.930 . S
H38 C46 0.930 . S
H39 C40 1.016 . S
C40 H39 1.016 . S
C40 N47 1.286 . S
C41 H36 0.930 . S
C41 C42 1.397 . S
C41 C43 1.361 . S
C42 C41 1.397 . S
C42 C46 1.390 . S
C43 C41 1.361 . S
C43 C44 1.393 . S
C43 N47 1.413 . S
C44 H37 0.930 . S
C44 C43 1.393 . S
C44 C45 1.399 . S
C45 C44 1.399 . S
C45 C46 1.381 . S
C46 H38 0.930 . S
C46 C42 1.390 . S
C46 C45 1.381 . S
N47 C40 1.286 . S
N47 C43 1.413 . S
H48 C53 0.930 . S
H49 C56 0.930 . S
H50 C58 0.930 . S
H51 C52 1.016 . S
C52 H51 1.016 . S
C52 N59 1.286 . S
C53 H48 0.930 . S
C53 C54 1.397 . S
C53 C55 1.361 . S
C54 C53 1.397 . S
C54 C58 1.390 . S
C55 C53 1.361 . S
C55 C56 1.393 . S
C55 N59 1.413 . S
C56 H49 0.930 . S
C56 C55 1.393 . S
C56 C57 1.399 . S
C57 C56 1.399 . S
C57 C58 1.381 . S
C58 H50 0.930 . S
C58 C54 1.390 . S
C58 C57 1.381 . S
N59 C52 1.286 . S
N59 C55 1.413 . S
H60 C65 0.930 . S
H61 C68 0.930 . S
H62 C70 0.930 . S
H63 C64 1.016 . S
C64 H63 1.016 . S
C64 N71 1.286 . S
C65 H60 0.930 . S
C65 C66 1.397 . S
C65 C67 1.361 . S
C66 C65 1.397 . S
C66 C70 1.390 . S
C67 C65 1.361 . S
C67 C68 1.393 . S
C67 N71 1.413 . S
C68 H61 0.930 . S
C68 C67 1.393 . S
C68 C69 1.399 . S
C69 C68 1.399 . S
C69 C70 1.381 . S
C70 H62 0.930 . S
C70 C66 1.390 . S
C70 C69 1.381 . S
N71 C64 1.286 . S
N71 C67 1.413 . S
H72 C77 0.930 . S
H73 C80 0.930 . S
H74 C82 0.930 . S
H75 C76 1.022 . S
C76 H75 1.022 . S
C76 N83 1.276 1_565 S
C77 H72 0.930 . S
C77 C78 1.397 . S
C77 C79 1.361 . S
C78 C77 1.397 . S
C78 C82 1.390 1_545 S
C79 C77 1.361 . S
C79 C80 1.393 . S
C79 N83 1.413 . S
C80 H73 0.930 . S
C80 C79 1.393 . S
C80 C81 1.406 . S
C81 C80 1.406 . S
C81 C82 1.373 1_545 S
C82 H74 0.930 . S
C82 C78 1.390 1_565 S
C82 C81 1.373 1_565 S
N83 C76 1.276 1_545 S
N83 C79 1.413 . S
H84 C89 0.930 . S
H85 C92 0.930 . S
H86 C94 0.930 . S
H87 C88 1.016 . S
C88 H87 1.016 . S
C88 N95 1.286 . S
C89 H84 0.930 . S
C89 C90 1.397 . S
C89 C91 1.361 . S
C90 C89 1.397 . S
C90 C94 1.390 . S
C91 C89 1.361 . S
C91 C92 1.393 . S
C91 N95 1.413 . S
C92 H85 0.930 . S
C92 C91 1.393 . S
C92 C93 1.399 . S
C93 C92 1.399 . S
C93 C94 1.381 . S
C94 H86 0.930 . S
C94 C90 1.390 . S
C94 C93 1.381 . S
N95 C88 1.286 . S
N95 C91 1.413 . S
Co96 N101 2.057 . S
Co96 O113 2.021 . S
Co96 O116 2.062 . S
Co96 O120 2.117 1_455 S
Co96 O121 2.020 1_545 S
C97 O117 1.259 1_545 S
C97 O120 1.258 . S
Co98 N107 2.057 . S
Co98 O114 2.117 1_655 S
Co98 O115 2.020 1_665 S
Co98 O117 2.021 . S
Co98 O122 2.062 . S
C99 N101 1.316 . S
C99 N102 1.347 1_556 S
C99 H104 0.931 . S
C100 N101 1.375 1_655 S
C100 C103 1.350 1_656 S
C100 H105 0.930 . S
N101 Co96 2.057 . S
N101 C99 1.316 . S
N101 C100 1.375 1_455 S
N102 C99 1.347 1_554 S
N102 C103 1.373 . S
C103 C100 1.350 1_454 S
C103 N102 1.373 . S
C103 H124 0.931 1_455 S
H104 C99 0.931 . S
H105 C100 0.930 . S
C106 O113 1.259 1_565 S
C106 O114 1.258 . S
N107 Co98 2.057 . S
N107 C108 1.316 . S
N107 C109 1.375 1_655 S
C108 N107 1.316 . S
C108 N110 1.347 . S
C108 H119 0.931 . S
C109 N107 1.375 1_455 S
C109 C111 1.350 . S
C109 H118 0.930 . S
N110 C108 1.347 . S
N110 C111 1.373 1_655 S
C111 C109 1.350 . S
C111 N110 1.373 1_455 S
C111 H125 0.931 . S
C112 O115 1.256 . S
C112 O116 1.255 . S
O113 Co96 2.021 . S
O113 C106 1.259 1_545 S
O114 Co98 2.117 1_455 S
O114 C106 1.258 . S
O115 Co98 2.020 1_445 S
O115 C112 1.256 . S
O116 Co96 2.062 . S
O116 C112 1.255 . S
O117 C97 1.259 1_565 S
O117 Co98 2.021 . S
H118 C109 0.930 . S
H119 C108 0.931 . S
O120 Co96 2.117 1_655 S
O120 C97 1.258 . S
O121 Co96 2.020 1_565 S
O121 C123 1.271 . S
O122 Co98 2.062 . S
O122 C123 1.244 1_655 S
C123 O121 1.271 . S
C123 O122 1.244 1_455 S
H124 C103 0.931 1_655 S
H125 C111 0.931 . S
Co126 N131 2.057 1_545 S
Co126 O143 2.021 . S
Co126 O146 2.067 . S
Co126 O150 2.117 1_545 S
Co126 O151 2.020 . S
C127 O147 1.259 . S
C127 O150 1.258 . S
Co128 N137 2.057 1_565 S
Co128 O144 2.117 1_565 S
Co128 O145 2.020 . S
Co128 O147 2.021 . S
Co128 O152 2.065 . S
C129 N131 1.316 1_545 S
C129 N132 1.347 1_556 S
C129 H134 0.931 . S
C130 N131 1.375 1_554 S
C130 C133 1.350 . S
C130 H135 0.930 . S
N131 Co126 2.057 1_565 S
N131 C129 1.316 1_565 S
N131 C130 1.375 1_556 S
N132 C129 1.347 1_554 S
N132 C133 1.373 1_545 S
C133 C130 1.350 . S
C133 N132 1.373 1_565 S
C133 H154 0.931 . S
H134 C129 0.931 . S
H135 C130 0.930 . S
C136 O143 1.259 . S
C136 O144 1.258 . S
N137 Co128 2.057 1_545 S
N137 C138 1.316 1_545 S
N137 C139 1.375 . S
C138 N137 1.316 1_565 S
C138 N140 1.347 . S
C138 H149 0.931 . S
C139 N137 1.375 . S
C139 C141 1.350 . S
C139 H148 0.930 . S
N140 C138 1.347 . S
N140 C141 1.373 1_565 S
C141 C139 1.350 . S
C141 N140 1.373 1_545 S
C141 H155 0.931 . S
C142 O145 1.256 . S
C142 O146 1.244 1_565 S
O143 Co126 2.021 . S
O143 C136 1.259 . S
O144 Co128 2.117 1_545 S
O144 C136 1.258 . S
O145 Co128 2.020 . S
O145 C142 1.256 . S
O146 Co126 2.067 . S
O146 C142 1.244 1_545 S
O147 C127 1.259 . S
O147 Co128 2.021 . S
H148 C139 0.930 . S
H149 C138 0.931 . S
O150 Co126 2.117 1_565 S
O150 C127 1.258 . S
O151 Co126 2.020 . S
O151 C153 1.256 . S
O152 Co128 2.065 . S
O152 C153 1.248 1_565 S
C153 O151 1.256 . S
C153 O152 1.248 1_545 S
H154 C133 0.931 . S
H155 C141 0.931 . S
Co156 N161 2.057 . S
Co156 O173 2.021 . S
Co156 O176 2.062 . S
Co156 O180 2.117 . S
Co156 O181 2.020 . S
C157 O177 1.259 . S
C157 O180 1.258 . S
Co158 N167 2.057 . S
Co158 O174 2.117 . S
Co158 O175 2.020 . S
Co158 O177 2.021 . S
Co158 O182 2.062 . S
C159 N161 1.316 . S
C159 N162 1.347 . S
C159 H164 0.931 . S
C160 N161 1.375 . S
C160 C163 1.350 . S
C160 H165 0.930 . S
N161 Co156 2.057 . S
N161 C159 1.316 . S
N161 C160 1.375 . S
N162 C159 1.347 . S
N162 C163 1.373 . S
C163 C160 1.350 . S
C163 N162 1.373 . S
C163 H184 0.931 . S
H164 C159 0.931 . S
H165 C160 0.930 . S
C166 O173 1.259 . S
C166 O174 1.258 . S
N167 Co158 2.057 . S
N167 C168 1.316 . S
N167 C169 1.375 . S
C168 N167 1.316 . S
C168 N170 1.347 . S
C168 H179 0.931 . S
C169 N167 1.375 . S
C169 C171 1.350 . S
C169 H178 0.930 . S
N170 C168 1.347 . S
N170 C171 1.373 . S
C171 C169 1.350 . S
C171 N170 1.373 . S
C171 H185 0.931 . S
C172 O175 1.256 . S
C172 O176 1.255 . S
O173 Co156 2.021 . S
O173 C166 1.259 . S
O174 Co158 2.117 . S
O174 C166 1.258 . S
O175 Co158 2.020 . S
O175 C172 1.256 . S
O176 Co156 2.062 . S
O176 C172 1.255 . S
O177 C157 1.259 . S
O177 Co158 2.021 . S
H178 C169 0.930 . S
H179 C168 0.931 . S
O180 Co156 2.117 . S
O180 C157 1.258 . S
O181 Co156 2.020 . S
O181 C183 1.256 . S
O182 Co158 2.062 . S
O182 C183 1.255 . S
C183 O181 1.256 . S
C183 O182 1.255 . S
H184 C163 0.931 . S
H185 C171 0.931 . S
Co186 N191 2.057 . S
Co186 O203 2.021 1_455 S
Co186 O206 2.062 1_455 S
Co186 O210 2.117 . S
Co186 O211 2.020 . S
C187 O207 1.259 . S
C187 O210 1.258 . S
Co188 N197 2.057 . S
Co188 O204 2.117 1_455 S
Co188 O205 2.020 1_455 S
Co188 O207 2.021 . S
Co188 O212 2.062 . S
C189 N191 1.316 1_655 S
C189 N192 1.349 . S
C189 H194 0.931 . S
C190 N191 1.375 . S
C190 C193 1.350 . S
C190 H195 0.930 . S
N191 Co186 2.057 . S
N191 C189 1.316 1_455 S
N191 C190 1.375 . S
N192 C189 1.349 . S
N192 C193 1.363 1_655 S
C193 C190 1.350 . S
C193 N192 1.363 1_455 S
C193 H214 0.931 . S
H194 C189 0.931 . S
H195 C190 0.930 . S
C196 O203 1.259 . S
C196 O204 1.258 . S
N197 Co188 2.057 . S
N197 C198 1.316 . S
N197 C199 1.375 1_455 S
C198 N197 1.316 . S
C198 N200 1.347 . S
C198 H209 0.931 . S
C199 N197 1.375 1_655 S
C199 C201 1.350 . S
C199 H208 0.930 . S
N200 C198 1.347 . S
N200 C201 1.373 1_455 S
C201 C199 1.350 . S
C201 N200 1.373 1_655 S
C201 H215 0.931 . S
C202 O205 1.256 . S
C202 O206 1.255 . S
O203 Co186 2.021 1_655 S
O203 C196 1.259 . S
O204 Co188 2.117 1_655 S
O204 C196 1.258 . S
O205 Co188 2.020 1_655 S
O205 C202 1.256 . S
O206 Co186 2.062 1_655 S
O206 C202 1.255 . S
O207 C187 1.259 . S
O207 Co188 2.021 . S
H208 C199 0.930 . S
H209 C198 0.931 . S
O210 Co186 2.117 . S
O210 C187 1.258 . S
O211 Co186 2.020 . S
O211 C213 1.256 . S
O212 Co188 2.062 . S
O212 C213 1.255 . S
C213 O211 1.256 . S
C213 O212 1.255 . S
H214 C193 0.931 . S
H215 C201 0.931 . S
H216 C222 0.930 . S
H217 C226 0.930 . S
H218 C231 0.929 . S
H219 C229 0.929 . S
H220 C224 0.929 . S
H221 C230 0.929 . S
C222 H216 0.930 . S
C222 C223 1.371 1_545 S
C222 C230 1.378 . S
C223 C222 1.371 1_565 S
C223 C231 1.429 . S
C224 H220 0.929 . S
C224 C226 1.378 . S
C224 C228 1.350 . S
C225 C228 1.463 . S
C225 C230 1.350 1_565 S
C225 N233 1.427 . S
C226 H217 0.930 . S
C226 C224 1.378 . S
C226 C227 1.367 . S
C227 C226 1.367 . S
C227 C229 1.433 1_565 S
C228 C224 1.350 . S
C228 C225 1.463 . S
C228 N232 1.427 1_565 S
C229 H219 0.929 . S
C229 C227 1.433 1_545 S
C229 N232 1.384 . S
C230 H221 0.929 . S
C230 C222 1.378 . S
C230 C225 1.350 1_545 S
C231 H218 0.929 . S
C231 C223 1.429 . S
C231 N233 1.384 . S
N232 C228 1.427 1_545 S
N232 C229 1.384 . S
N233 C225 1.427 . S
N233 C231 1.384 . S
H234 C240 0.930 . S
H235 C244 0.930 . S
H236 C249 0.929 . S
H237 C247 0.929 . S
H238 C242 0.929 . S
H239 C248 0.929 . S
C240 H234 0.930 . S
C240 C241 1.367 . S
C240 C248 1.378 . S
C241 C240 1.367 . S
C241 C249 1.433 . S
C242 H238 0.929 . S
C242 C244 1.378 . S
C242 C246 1.350 . S
C243 C246 1.463 . S
C243 C248 1.350 . S
C243 N251 1.427 . S
C244 H235 0.930 . S
C244 C242 1.378 . S
C244 C245 1.367 . S
C245 C244 1.367 . S
C245 C247 1.433 . S
C246 C242 1.350 . S
C246 C243 1.463 . S
C246 N250 1.427 . S
C247 H237 0.929 . S
C247 C245 1.433 . S
C247 N250 1.384 . S
C248 H239 0.929 . S
C248 C240 1.378 . S
C248 C243 1.350 . S
C249 H236 0.929 . S
C249 C241 1.433 . S
C249 N251 1.384 . S
N250 C246 1.427 . S
N250 C247 1.384 . S
N251 C243 1.427 . S
N251 C249 1.384 . S
H252 C258 0.930 . S
H253 C262 0.930 . S
H254 C267 0.929 . S
H255 C265 0.929 . S
H256 C260 0.929 . S
H257 C266 0.929 . S
C258 H252 0.930 . S
C258 C259 1.367 . S
C258 C266 1.378 . S
C259 C258 1.367 . S
C259 C267 1.433 . S
C260 H256 0.929 . S
C260 C262 1.378 . S
C260 C264 1.350 . S
C261 C264 1.463 . S
C261 C266 1.350 . S
C261 N269 1.427 . S
C262 H253 0.930 . S
C262 C260 1.378 . S
C262 C263 1.367 . S
C263 C262 1.367 . S
C263 C265 1.433 . S
C264 C260 1.350 . S
C264 C261 1.463 . S
C264 N268 1.427 . S
C265 H255 0.929 . S
C265 C263 1.433 . S
C265 N268 1.384 . S
C266 H257 0.929 . S
C266 C258 1.378 . S
C266 C261 1.350 . S
C267 H254 0.929 . S
C267 C259 1.433 . S
C267 N269 1.384 . S
N268 C264 1.427 . S
N268 C265 1.384 . S
N269 C261 1.427 . S
N269 C267 1.384 . S
H270 C276 0.930 . S
H271 C280 0.930 1_655 S
H272 C285 0.929 . S
H273 C283 0.929 . S
H274 C278 0.929 . S
H275 C284 0.929 . S
C276 H270 0.930 . S
C276 C277 1.367 . S
C276 C284 1.378 . S
C277 C276 1.367 . S
C277 C285 1.433 . S
C278 H274 0.929 . S
C278 C280 1.378 . S
C278 C282 1.350 . S
C279 C282 1.463 . S
C279 C284 1.350 . S
C279 N287 1.427 . S
C280 H271 0.930 1_455 S
C280 C278 1.378 . S
C280 C281 1.367 . S
C281 C280 1.367 . S
C281 C283 1.433 . S
C282 C278 1.350 . S
C282 C279 1.463 . S
C282 N286 1.427 . S
C283 H273 0.929 . S
C283 C281 1.433 . S
C283 N286 1.384 . S
C284 H275 0.929 . S
C284 C276 1.378 . S
C284 C279 1.350 . S
C285 H272 0.929 . S
C285 C277 1.433 . S
C285 N287 1.384 . S
N286 C282 1.427 . S
N286 C283 1.384 . S
N287 C279 1.427 . S
N287 C285 1.384 . S
H288 C294 0.930 . S
H289 C298 0.930 . S
H290 C303 0.929 1_554 S
H291 C301 0.929 . S
H292 C296 0.929 . S
H293 C302 0.929 . S
C294 H288 0.930 . S
C294 C295 1.361 1_565 S
C294 C302 1.378 . S
C295 C294 1.361 1_545 S
C295 C303 1.439 . S
C296 H292 0.929 . S
C296 C298 1.378 . S
C296 C300 1.350 . S
C297 C300 1.463 . S
C297 C302 1.350 1_545 S
C297 N305 1.427 . S
C298 H289 0.930 . S
C298 C296 1.378 . S
C298 C299 1.367 . S
C299 C298 1.367 . S
C299 C301 1.433 1_545 S
C300 C296 1.350 . S
C300 C297 1.463 . S
C300 N304 1.427 1_545 S
C301 H291 0.929 . S
C301 C299 1.433 1_565 S
C301 N304 1.384 . S
C302 H293 0.929 . S
C302 C294 1.378 . S
C302 C297 1.350 1_565 S
C303 H290 0.929 1_556 S
C303 C295 1.439 . S
C303 N305 1.384 . S
N304 C300 1.427 1_565 S
N304 C301 1.384 . S
N305 C297 1.427 . S
N305 C303 1.384 . S
H306 C312 0.930 . S
H307 C316 0.930 . S
H308 C321 0.929 . S
H309 C319 0.929 . S
H310 C314 0.929 1_554 S
H311 C320 0.929 . S
C312 H306 0.930 . S
C312 C313 1.367 1_556 S
C312 C320 1.378 . S
C313 C312 1.367 1_554 S
C313 C321 1.433 . S
C314 H310 0.929 1_556 S
C314 C316 1.378 . S
C314 C318 1.350 . S
C315 C318 1.463 . S
C315 C320 1.350 . S
C315 N323 1.427 1_556 S
C316 H307 0.930 . S
C316 C314 1.378 . S
C316 C317 1.367 . S
C317 C316 1.367 . S
C317 C319 1.433 . S
C318 C314 1.350 . S
C318 C315 1.463 . S
C318 N322 1.427 . S
C319 H309 0.929 . S
C319 C317 1.433 . S
C319 N322 1.384 . S
C320 H311 0.929 . S
C320 C312 1.378 . S
C320 C315 1.350 . S
C321 H308 0.929 . S
C321 C313 1.433 . S
C321 N323 1.384 . S
N322 C318 1.427 . S
N322 C319 1.384 . S
N323 C315 1.427 1_554 S
N323 C321 1.384 . S
H324 C330 0.930 . S
H325 C334 0.930 . S
H326 C339 0.929 . S
H327 C337 0.929 . S
H328 C332 0.929 . S
H329 C338 0.929 . S
C330 H324 0.930 . S
C330 C331 1.367 . S
C330 C338 1.378 . S
C331 C330 1.367 . S
C331 C339 1.433 . S
C332 H328 0.929 . S
C332 C334 1.378 . S
C332 C336 1.350 . S
C333 C336 1.463 1_554 S
C333 C338 1.350 . S
C333 N341 1.427 1_554 S
C334 H325 0.930 . S
C334 C332 1.378 . S
C334 C335 1.367 . S
C335 C334 1.367 . S
C335 C337 1.433 . S
C336 C332 1.350 . S
C336 C333 1.463 1_556 S
C336 N340 1.427 . S
C337 H327 0.929 . S
C337 C335 1.433 . S
C337 N340 1.384 . S
C338 H329 0.929 . S
C338 C330 1.378 . S
C338 C333 1.350 . S
C339 H326 0.929 . S
C339 C331 1.433 . S
C339 N341 1.384 1_554 S
N340 C336 1.427 . S
N340 C337 1.384 . S
N341 C333 1.427 1_556 S
N341 C339 1.384 1_556 S
H342 C348 0.930 . S
H343 C352 0.930 . S
H344 C357 0.929 . S
H345 C355 0.929 . S
H346 C350 0.929 1_554 S
H347 C356 0.929 . S
C348 H342 0.930 . S
C348 C349 1.367 1_556 S
C348 C356 1.378 . S
C349 C348 1.367 1_554 S
C349 C357 1.433 . S
C350 H346 0.929 1_556 S
C350 C352 1.378 . S
C350 C354 1.350 . S
C351 C354 1.463 . S
C351 C356 1.350 . S
C351 N359 1.427 1_556 S
C352 H343 0.930 . S
C352 C350 1.378 . S
C352 C353 1.367 . S
C353 C352 1.367 . S
C353 C355 1.433 . S
C354 C350 1.350 . S
C354 C351 1.463 . S
C354 N358 1.427 . S
C355 H345 0.929 . S
C355 C353 1.433 . S
C355 N358 1.384 . S
C356 H347 0.929 . S
C356 C348 1.378 . S
C356 C351 1.350 . S
C357 H344 0.929 . S
C357 C349 1.433 . S
C357 N359 1.384 . S
N358 C354 1.427 . S
N358 C355 1.384 . S
N359 C351 1.427 1_554 S
N359 C357 1.384 . S
H360 C366 0.930 . S
H361 C370 0.930 . S
H362 C375 0.929 . S
H363 C373 0.929 . S
H364 C368 0.929 . S
H365 C374 0.929 . S
C366 H360 0.930 . S
C366 C367 1.367 . S
C366 C374 1.378 . S
C367 C366 1.367 . S
C367 C375 1.433 . S
C368 H364 0.929 . S
C368 C370 1.378 . S
C368 C372 1.350 . S
C369 C372 1.463 . S
C369 C374 1.350 . S
C369 N377 1.427 . S
C370 H361 0.930 . S
C370 C368 1.378 . S
C370 C371 1.367 . S
C371 C370 1.367 . S
C371 C373 1.433 1_455 S
C372 C368 1.350 . S
C372 C369 1.463 . S
C372 N376 1.427 . S
C373 H363 0.929 . S
C373 C371 1.433 1_655 S
C373 N376 1.384 1_655 S
C374 H365 0.929 . S
C374 C366 1.378 . S
C374 C369 1.350 . S
C375 H362 0.929 . S
C375 C367 1.433 . S
C375 N377 1.384 . S
N376 C372 1.427 . S
N376 C373 1.384 1_455 S
N377 C369 1.427 . S
N377 C375 1.384 . S
H378 C384 0.930 . S
H379 C388 0.930 . S
H380 C393 0.929 . S
H381 C391 0.924 1_545 S
H382 C386 0.929 . S
H383 C392 0.929 . S
C384 H378 0.930 . S
C384 C385 1.368 . S
C384 C392 1.378 . S
C385 C384 1.368 . S
C385 C393 1.432 1_545 S
C386 H382 0.929 . S
C386 C388 1.378 . S
C386 C390 1.350 . S
C387 C390 1.463 . S
C387 C392 1.350 1_565 S
C387 N395 1.427 . S
C388 H379 0.930 . S
C388 C386 1.378 . S
C388 C389 1.367 . S
C389 C388 1.367 . S
C389 C391 1.433 . S
C390 C386 1.350 . S
C390 C387 1.463 . S
C390 N394 1.432 . S
C391 H381 0.924 1_565 S
C391 C389 1.433 . S
C391 N394 1.384 . S
C392 H383 0.929 . S
C392 C384 1.378 . S
C392 C387 1.350 1_545 S
C393 H380 0.929 . S
C393 C385 1.432 1_565 S
C393 N395 1.384 . S
N394 C390 1.432 . S
N394 C391 1.384 . S
N395 C387 1.427 . S
N395 C393 1.384 . S
H396 C402 0.930 . S
H397 C406 0.930 . S
H398 C411 0.929 . S
H399 C409 0.929 . S
H400 C404 0.929 . S
H401 C410 0.929 . S
C402 H396 0.930 . S
C402 C403 1.367 . S
C402 C410 1.378 . S
C403 C402 1.367 . S
C403 C411 1.433 . S
C404 H400 0.929 . S
C404 C406 1.378 . S
C404 C408 1.350 . S
C405 C408 1.463 . S
C405 C410 1.350 . S
C405 N413 1.427 . S
C406 H397 0.930 . S
C406 C404 1.378 . S
C406 C407 1.367 . S
C407 C406 1.367 . S
C407 C409 1.433 . S
C408 C404 1.350 . S
C408 C405 1.463 . S
C408 N412 1.427 . S
C409 H399 0.929 . S
C409 C407 1.433 . S
C409 N412 1.384 . S
C410 H401 0.929 . S
C410 C402 1.378 . S
C410 C405 1.350 . S
C411 H398 0.929 . S
C411 C403 1.433 . S
C411 N413 1.384 . S
N412 C408 1.427 . S
N412 C409 1.384 . S
N413 C405 1.427 . S
N413 C411 1.384 . S
H414 C420 0.930 . S
H415 C424 0.930 . S
H416 C429 0.929 . S
H417 C427 0.929 . S
H418 C422 0.929 . S
H419 C428 0.929 . S
C420 H414 0.930 . S
C420 C421 1.367 . S
C420 C428 1.378 . S
C421 C420 1.367 . S
C421 C429 1.433 . S
C422 H418 0.929 . S
C422 C424 1.378 . S
C422 C426 1.350 . S
C423 C426 1.463 . S
C423 C428 1.350 . S
C423 N431 1.427 . S
C424 H415 0.930 . S
C424 C422 1.378 . S
C424 C425 1.367 . S
C425 C424 1.367 . S
C425 C427 1.433 . S
C426 C422 1.350 . S
C426 C423 1.463 . S
C426 N430 1.427 . S
C427 H417 0.929 . S
C427 C425 1.433 . S
C427 N430 1.384 . S
C428 H419 0.929 . S
C428 C420 1.378 . S
C428 C423 1.350 . S
C429 H416 0.929 . S
C429 C421 1.433 . S
C429 N431 1.384 . S
N430 C426 1.427 . S
N430 C427 1.384 . S
N431 C423 1.427 . S
N431 C429 1.384 . S
H432 C438 0.930 . S
H433 C442 0.930 . S
H434 C447 0.929 . S
H435 C445 0.929 . S
H436 C440 0.928 1_455 S
H437 C446 0.929 . S
C438 H432 0.930 . S
C438 C439 1.367 . S
C438 C446 1.378 . S
C439 C438 1.367 . S
C439 C447 1.433 1_554 S
C440 H436 0.928 1_655 S
C440 C442 1.378 1_655 S
C440 C444 1.350 . S
C441 C444 1.463 . S
C441 C446 1.350 1_556 S
C441 N449 1.427 . S
C442 H433 0.930 . S
C442 C440 1.378 1_455 S
C442 C443 1.367 . S
C443 C442 1.367 . S
C443 C445 1.433 1_455 S
C444 C440 1.350 . S
C444 C441 1.463 . S
C444 N448 1.427 . S
C445 H435 0.929 . S
C445 C443 1.433 1_655 S
C445 N448 1.384 . S
C446 H437 0.929 . S
C446 C438 1.378 . S
C446 C441 1.350 1_554 S
C447 H434 0.929 . S
C447 C439 1.433 1_556 S
C447 N449 1.384 . S
N448 C444 1.427 . S
N448 C445 1.384 . S
N449 C441 1.427 . S
N449 C447 1.384 . S
H450 C456 0.930 . S
H451 C460 0.930 . S
H452 C465 0.929 . S
H453 C463 0.929 1_565 S
H454 C458 0.929 . S
H455 C464 0.929 . S
C456 H450 0.930 . S
C456 C457 1.367 1_564 S
C456 C464 1.378 . S
C457 C456 1.367 1_546 S
C457 C465 1.433 . S
C458 H454 0.929 . S
C458 C460 1.378 . S
C458 C462 1.350 . S
C459 C462 1.463 . S
C459 C464 1.350 1_546 S
C459 N467 1.427 . S
C460 H451 0.930 . S
C460 C458 1.378 . S
C460 C461 1.367 . S
C461 C460 1.367 . S
C461 C463 1.433 . S
C462 C458 1.350 . S
C462 C459 1.463 . S
C462 N466 1.427 1_545 S
C463 H453 0.929 1_545 S
C463 C461 1.433 . S
C463 N466 1.384 1_545 S
C464 H455 0.929 . S
C464 C456 1.378 . S
C464 C459 1.350 1_564 S
C465 H452 0.929 . S
C465 C457 1.433 . S
C465 N467 1.384 . S
N466 C462 1.427 1_565 S
N466 C463 1.384 1_565 S
N467 C459 1.427 . S
N467 C465 1.384 . S
H468 C474 0.930 . S
H469 C478 0.930 . S
H470 C483 0.929 . S
H471 C481 0.929 . S
H472 C476 0.929 1_554 S
H473 C482 0.929 . S
C474 H468 0.930 . S
C474 C475 1.367 1_556 S
C474 C482 1.378 . S
C475 C474 1.367 1_554 S
C475 C483 1.433 . S
C476 H472 0.929 1_556 S
C476 C478 1.378 . S
C476 C480 1.350 . S
C477 C480 1.463 . S
C477 C482 1.350 . S
C477 N485 1.427 1_556 S
C478 H469 0.930 . S
C478 C476 1.378 . S
C478 C479 1.367 . S
C479 C478 1.367 . S
C479 C481 1.433 . S
C480 C476 1.350 . S
C480 C477 1.463 . S
C480 N484 1.427 . S
C481 H471 0.929 . S
C481 C479 1.433 . S
C481 N484 1.384 . S
C482 H473 0.929 . S
C482 C474 1.378 . S
C482 C477 1.350 . S
C483 H470 0.929 . S
C483 C475 1.433 . S
C483 N485 1.384 . S
N484 C480 1.427 . S
N484 C481 1.384 . S
N485 C477 1.427 1_554 S
N485 C483 1.384 . S
H486 C492 0.930 1_556 S
H487 C496 0.929 1_554 S
H488 C501 0.929 . S
H489 C499 0.929 . S
H490 C494 0.929 . S
H491 C500 0.929 . S
C492 H486 0.930 1_554 S
C492 C493 1.367 . S
C492 C500 1.378 1_554 S
C493 C492 1.367 . S
C493 C501 1.433 . S
C494 H490 0.929 . S
C494 C496 1.378 1_554 S
C494 C498 1.350 1_554 S
C495 C498 1.463 1_554 S
C495 C500 1.350 1_554 S
C495 N503 1.427 . S
C496 H487 0.929 1_556 S
C496 C494 1.378 1_556 S
C496 C497 1.367 . S
C497 C496 1.367 . S
C497 C499 1.433 . S
C498 C494 1.350 1_556 S
C498 C495 1.463 1_556 S
C498 N502 1.427 . S
C499 H489 0.929 . S
C499 C497 1.433 . S
C499 N502 1.384 . S
C500 H491 0.929 . S
C500 C492 1.378 1_556 S
C500 C495 1.350 1_556 S
C501 H488 0.929 . S
C501 C493 1.433 . S
C501 N503 1.384 . S
N502 C498 1.427 . S
N502 C499 1.384 . S
N503 C495 1.427 . S
N503 C501 1.384 . S
H504 C510 0.930 . S
H505 C514 0.930 . S
H506 C519 0.929 . S
H507 C517 0.929 . S
H508 C512 0.929 . S
H509 C518 0.929 . S
C510 H504 0.930 . S
C510 C511 1.367 . S
C510 C518 1.378 . S
C511 C510 1.367 . S
C511 C519 1.433 . S
C512 H508 0.929 . S
C512 C514 1.378 . S
C512 C516 1.350 . S
C513 C516 1.463 . S
C513 C518 1.350 . S
C513 N521 1.427 . S
C514 H505 0.930 . S
C514 C512 1.378 . S
C514 C515 1.367 . S
C515 C514 1.367 . S
C515 C517 1.433 . S
C516 C512 1.350 . S
C516 C513 1.463 . S
C516 N520 1.427 . S
C517 H507 0.929 . S
C517 C515 1.433 . S
C517 N520 1.384 . S
C518 H509 0.929 . S
C518 C510 1.378 . S
C518 C513 1.350 . S
C519 H506 0.929 . S
C519 C511 1.433 . S
C519 N521 1.384 . S
N520 C516 1.427 . S
N520 C517 1.384 . S
N521 C513 1.427 . S
N521 C519 1.384 . S
H522 C528 0.930 . S
H523 C532 0.930 . S
H524 C537 0.929 . S
H525 C535 0.929 . S
H526 C530 0.929 . S
H527 C536 0.929 . S
C528 H522 0.930 . S
C528 C529 1.367 . S
C528 C536 1.378 . S
C529 C528 1.367 . S
C529 C537 1.433 1_545 S
C530 H526 0.929 . S
C530 C532 1.378 . S
C530 C534 1.350 1_565 S
C531 C534 1.463 . S
C531 C536 1.350 . S
C531 N539 1.427 1_545 S
C532 H523 0.930 . S
C532 C530 1.378 . S
C532 C533 1.367 1_565 S
C533 C532 1.367 1_545 S
C533 C535 1.433 . S
C534 C530 1.350 1_545 S
C534 C531 1.463 . S
C534 N538 1.427 . S
C535 H525 0.929 . S
C535 C533 1.433 . S
C535 N538 1.384 . S
C536 H527 0.929 . S
C536 C528 1.378 . S
C536 C531 1.350 . S
C537 H524 0.929 . S
C537 C529 1.433 1_565 S
C537 N539 1.384 . S
N538 C534 1.427 . S
N538 C535 1.384 . S
N539 C531 1.427 1_565 S
N539 C537 1.384 . S
H540 C546 0.930 . S
H541 C550 0.930 . S
H542 C555 0.929 . S
H543 C553 0.929 . S
H544 C548 0.929 . S
H545 C554 0.929 . S
C546 H540 0.930 . S
C546 C547 1.367 . S
C546 C554 1.378 . S
C547 C546 1.367 . S
C547 C555 1.433 . S
C548 H544 0.929 . S
C548 C550 1.378 1_554 S
C548 C552 1.350 . S
C549 C552 1.463 . S
C549 C554 1.350 . S
C549 N557 1.427 . S
C550 H541 0.930 . S
C550 C548 1.378 1_556 S
C550 C551 1.367 . S
C551 C550 1.367 . S
C551 C553 1.433 1_556 S
C552 C548 1.350 . S
C552 C549 1.463 . S
C552 N556 1.427 . S
C553 H543 0.929 . S
C553 C551 1.433 1_554 S
C553 N556 1.384 . S
C554 H545 0.929 . S
C554 C546 1.378 . S
C554 C549 1.350 . S
C555 H542 0.929 . S
C555 C547 1.433 . S
C555 N557 1.384 . S
N556 C552 1.427 . S
N556 C553 1.384 . S
N557 C549 1.427 . S
N557 C555 1.384 . S
H558 C564 0.930 . S
H559 C568 0.930 . S
H560 C573 0.929 . S
H561 C571 0.929 1_556 S
H562 C566 0.929 . S
H563 C572 0.929 . S
C564 H558 0.930 . S
C564 C565 1.367 . S
C564 C572 1.378 . S
C565 C564 1.367 . S
C565 C573 1.433 . S
C566 H562 0.929 . S
C566 C568 1.378 1_554 S
C566 C570 1.350 . S
C567 C570 1.463 . S
C567 C572 1.350 . S
C567 N575 1.427 . S
C568 H559 0.930 . S
C568 C566 1.378 1_556 S
C568 C569 1.367 . S
C569 C568 1.367 . S
C569 C571 1.433 1_556 S
C570 C566 1.350 . S
C570 C567 1.463 . S
C570 N574 1.427 . S
C571 H561 0.929 1_554 S
C571 C569 1.433 1_554 S
C571 N574 1.384 . S
C572 H563 0.929 . S
C572 C564 1.378 . S
C572 C567 1.350 . S
C573 H560 0.929 . S
C573 C565 1.433 . S
C573 N575 1.384 . S
N574 C570 1.427 . S
N574 C571 1.384 . S
N575 C567 1.427 . S
N575 C573 1.384 . S
H576 C582 0.930 . S
H577 C586 0.930 . S
H578 C591 0.929 . S
H579 C589 0.929 . S
H580 C584 0.929 . S
H581 C590 0.929 . S
C582 H576 0.930 . S
C582 C583 1.367 . S
C582 C590 1.378 . S
C583 C582 1.367 . S
C583 C591 1.433 . S
C584 H580 0.929 . S
C584 C586 1.378 . S
C584 C588 1.350 . S
C585 C588 1.463 . S
C585 C590 1.350 . S
C585 N593 1.427 . S
C586 H577 0.930 . S
C586 C584 1.378 . S
C586 C587 1.367 . S
C587 C586 1.367 . S
C587 C589 1.433 . S
C588 C584 1.350 . S
C588 C585 1.463 . S
C588 N592 1.427 . S
C589 H579 0.929 . S
C589 C587 1.433 . S
C589 N592 1.384 . S
C590 H581 0.929 . S
C590 C582 1.378 . S
C590 C585 1.350 . S
C591 H578 0.929 . S
C591 C583 1.433 . S
C591 N593 1.384 . S
N592 C588 1.427 . S
N592 C589 1.384 . S
N593 C585 1.427 . S
N593 C591 1.384 . S
H594 C600 0.930 . S
H595 C604 0.930 . S
H596 C609 0.929 . S
H597 C607 0.929 . S
H598 C602 0.929 . S
H599 C608 0.929 . S
C600 H594 0.930 . S
C600 C601 1.359 1_545 S
C600 C608 1.378 . S
C601 C600 1.359 1_565 S
C601 C609 1.441 . S
C602 H598 0.929 . S
C602 C604 1.378 . S
C602 C606 1.350 . S
C603 C606 1.463 . S
C603 C608 1.350 1_565 S
C603 N611 1.427 . S
C604 H595 0.930 . S
C604 C602 1.378 . S
C604 C605 1.367 . S
C605 C604 1.367 . S
C605 C607 1.433 1_565 S
C606 C602 1.350 . S
C606 C603 1.463 . S
C606 N610 1.427 1_565 S
C607 H597 0.929 . S
C607 C605 1.433 1_545 S
C607 N610 1.384 . S
C608 H599 0.929 . S
C608 C600 1.378 . S
C608 C603 1.350 1_545 S
C609 H596 0.929 . S
C609 C601 1.441 . S
C609 N611 1.384 . S
N610 C606 1.427 1_545 S
N610 C607 1.384 . S
N611 C603 1.427 . S
N611 C609 1.384 . S
H612 C618 0.930 . S
H613 C622 0.930 . S
H614 C627 0.929 . S
H615 C625 0.929 . S
H616 C620 0.929 . S
H617 C626 0.929 . S
C618 H612 0.930 . S
C618 C619 1.367 . S
C618 C626 1.378 . S
C619 C618 1.367 . S
C619 C627 1.433 . S
C620 H616 0.929 . S
C620 C622 1.378 . S
C620 C624 1.350 . S
C621 C624 1.463 . S
C621 C626 1.350 . S
C621 N629 1.427 . S
C622 H613 0.930 . S
C622 C620 1.378 . S
C622 C623 1.367 . S
C623 C622 1.367 . S
C623 C625 1.433 . S
C624 C620 1.350 . S
C624 C621 1.463 . S
C624 N628 1.427 . S
C625 H615 0.929 . S
C625 C623 1.433 . S
C625 N628 1.384 . S
C626 H617 0.929 . S
C626 C618 1.378 . S
C626 C621 1.350 . S
C627 H614 0.929 . S
C627 C619 1.433 . S
C627 N629 1.384 . S
N628 C624 1.427 . S
N628 C625 1.384 . S
N629 C621 1.427 . S
N629 C627 1.384 . S
H630 C636 0.930 . S
H631 C640 0.930 . S
H632 C645 0.929 . S
H633 C643 0.929 . S
H634 C638 0.929 . S
H635 C644 0.929 . S
C636 H630 0.930 . S
C636 C637 1.367 . S
C636 C644 1.378 . S
C637 C636 1.367 . S
C637 C645 1.433 . S
C638 H634 0.929 . S
C638 C640 1.378 . S
C638 C642 1.350 . S
C639 C642 1.463 . S
C639 C644 1.350 . S
C639 N647 1.427 . S
C640 H631 0.930 . S
C640 C638 1.378 . S
C640 C641 1.367 . S
C641 C640 1.367 . S
C641 C643 1.433 . S
C642 C638 1.350 . S
C642 C639 1.463 . S
C642 N646 1.427 . S
C643 H633 0.929 . S
C643 C641 1.433 . S
C643 N646 1.384 . S
C644 H635 0.929 . S
C644 C636 1.378 . S
C644 C639 1.350 . S
C645 H632 0.929 . S
C645 C637 1.433 . S
C645 N647 1.384 . S
N646 C642 1.427 . S
N646 C643 1.384 . S
N647 C639 1.427 . S
N647 C645 1.384 . S
C223 C76 1.660 . S
C227 C106 1.682 . S
C245 C136 1.806 . S
C241 C88 1.767 . S
C263 N170 1.372 . S
C259 C52 1.389 . S
C281 N200 1.408 . S
C277 C64 1.405 . S
C299 C97 1.681 . S
C295 C28 1.662 1_546 S
C313 C40 1.780 . S
C317 C127 1.812 . S
C331 C4 1.391 . S
C335 N162 1.374 . S
C349 C16 1.401 . S
C353 N192 1.404 . S
C371 C112 0.410 . S
C367 C69 0.497 . S
C389 C142 0.772 . S
C385 C81 0.781 . S
C407 C183 1.049 . S
C403 C93 1.037 . S
C421 C57 0.574 . S
C425 C213 0.569 . S
C439 C21 0.513 . S
C443 C123 0.449 . S
C461 C153 0.761 . S
C457 C33 0.742 1_556 S
C479 C172 1.054 . S
C475 C45 1.036 . S
C493 C9 0.598 . S
C497 C202 0.583 . S
C511 C66 1.470 . S
C515 N102 1.465 . S
C529 C78 1.426 . S
C533 N132 1.424 . S
C551 C157 1.658 . S
C547 C90 1.626 . S
C569 C187 1.597 . S
C565 C54 1.560 . S
C583 C18 1.456 . S
C587 N110 1.475 . S
C605 N140 1.436 . S
C601 C30 1.437 1_565 S
C623 C166 1.658 . S
C619 C42 1.617 . S
C637 C6 1.555 . S
C641 C196 1.597 . S
