# Generated by pormake.
# Topology pyr, (3,6)-cn, num edge types: 1
# Building blocks:
#     Node 0, Type 0, BuildingBlock: PAMTOO_clean_linker_0, # of connection points: 3
#     Node 1, Type 0, BuildingBlock: PAMTOO_clean_linker_0, # of connection points: 3
#     Node 2, Type 0, BuildingBlock: PAMTOO_clean_linker_0, # of connection points: 3
#     Node 3, Type 0, BuildingBlock: PAMTOO_clean_linker_0, # of connection points: 3
#     Node 4, Type 0, BuildingBlock: PAMTOO_clean_linker_0, # of connection points: 3
#     Node 5, Type 0, BuildingBlock: PAMTOO_clean_linker_0, # of connection points: 3
#     Node 6, Type 0, BuildingBlock: PAMTOO_clean_linker_0, # of connection points: 3
#     Node 7, Type 0, BuildingBlock: PAMTOO_clean_linker_0, # of connection points: 3
#     Node 8, Type 1, BuildingBlock: PAMTOO_clean_sbu_0, # of connection points: 6
#     Node 9, Type 1, BuildingBlock: PAMTOO_clean_sbu_0, # of connection points: 6
#     Node 10, Type 1, BuildingBlock: PAMTOO_clean_sbu_0, # of connection points: 6
#     Node 11, Type 1, BuildingBlock: PAMTOO_clean_sbu_0, # of connection points: 6
#     Edge 12, Type (0, 1), BuildingBlock: XUDNAN_clean_linker_2, # of connection points: 2
#     Edge 13, Type (0, 1), BuildingBlock: XUDNAN_clean_linker_2, # of connection points: 2
#     Edge 14, Type (0, 1), BuildingBlock: XUDNAN_clean_linker_2, # of connection points: 2
#     Edge 15, Type (0, 1), BuildingBlock: XUDNAN_clean_linker_2, # of connection points: 2
#     Edge 16, Type (0, 1), BuildingBlock: XUDNAN_clean_linker_2, # of connection points: 2
#     Edge 17, Type (0, 1), BuildingBlock: XUDNAN_clean_linker_2, # of connection points: 2
#     Edge 18, Type (0, 1), BuildingBlock: XUDNAN_clean_linker_2, # of connection points: 2
#     Edge 19, Type (0, 1), BuildingBlock: XUDNAN_clean_linker_2, # of connection points: 2
#     Edge 20, Type (0, 1), BuildingBlock: XUDNAN_clean_linker_2, # of connection points: 2
#     Edge 21, Type (0, 1), BuildingBlock: XUDNAN_clean_linker_2, # of connection points: 2
#     Edge 22, Type (0, 1), BuildingBlock: XUDNAN_clean_linker_2, # of connection points: 2
#     Edge 23, Type (0, 1), BuildingBlock: XUDNAN_clean_linker_2, # of connection points: 2
#     Edge 24, Type (0, 1), BuildingBlock: XUDNAN_clean_linker_2, # of connection points: 2
#     Edge 25, Type (0, 1), BuildingBlock: XUDNAN_clean_linker_2, # of connection points: 2
#     Edge 26, Type (0, 1), BuildingBlock: XUDNAN_clean_linker_2, # of connection points: 2
#     Edge 27, Type (0, 1), BuildingBlock: XUDNAN_clean_linker_2, # of connection points: 2
#     Edge 28, Type (0, 1), BuildingBlock: XUDNAN_clean_linker_2, # of connection points: 2
#     Edge 29, Type (0, 1), BuildingBlock: XUDNAN_clean_linker_2, # of connection points: 2
#     Edge 30, Type (0, 1), BuildingBlock: XUDNAN_clean_linker_2, # of connection points: 2
#     Edge 31, Type (0, 1), BuildingBlock: XUDNAN_clean_linker_2, # of connection points: 2
#     Edge 32, Type (0, 1), BuildingBlock: XUDNAN_clean_linker_2, # of connection points: 2
#     Edge 33, Type (0, 1), BuildingBlock: XUDNAN_clean_linker_2, # of connection points: 2
#     Edge 34, Type (0, 1), BuildingBlock: XUDNAN_clean_linker_2, # of connection points: 2
#     Edge 35, Type (0, 1), BuildingBlock: XUDNAN_clean_linker_2, # of connection points: 2
# Relax obj value: 0.163
# Max RMSD: 0.265
# Mean RMSD: 0.143
data_MOF--net-pyr--node1-PAMTOO_clean_sbu_0--node2-PAMTOO_clean_linker_0--edge1-XUDNAN_clean_linker_2
_symmetry_space_group_name_H-M    P1
_symmetry_Int_Tables_number       1
_symmetry_cell_setting            triclinic
loop_
_symmetry_equiv_pos_as_xyz
'x, y, z'
_cell_length_a     36.313197
_cell_length_b     39.641432
_cell_length_c     38.537455
_cell_angle_alpha  90.652668
_cell_angle_beta   90.237827
_cell_angle_gamma 108.64009
loop_
_atom_site_label
_atom_site_type_symbol
_atom_site_fract_x
_atom_site_fract_y
_atom_site_fract_z
_atom_type_partial_charge
H0 H 0.31165 0.31883 0.28883 0.0
H1 H 0.38996 0.25685 0.29225 0.0
H2 H 0.35493 0.287 0.19452 0.0
H3 H 0.33683 0.20854 0.21875 0.0
C4 C 0.36815 0.21171 0.22317 0.0
O5 O 0.3898 0.24736 0.22555 0.0
H6 H 0.37037 0.1986 0.24809 0.0
C7 C 0.33069 0.30653 0.27598 0.0
C8 C 0.33283 0.3071 0.23955 0.0
C9 C 0.35085 0.28819 0.29553 0.0
C10 C 0.37445 0.27158 0.27803 0.0
C11 C 0.375 0.27045 0.24178 0.0
C12 C 0.35507 0.28889 0.22261 0.0
H13 H 0.21424 0.83576 0.72317 0.0
H14 H 0.15959 0.77034 0.63558 0.0
H15 H 0.25209 0.74795 0.69043 0.0
H16 H 0.22544 0.76019 0.59523 0.0
C17 C 0.22484 0.73464 0.60736 0.0
O18 O 0.20401 0.72946 0.63785 0.0
H19 H 0.20951 0.71326 0.58855 0.0
C20 C 0.21212 0.81369 0.70555 0.0
C21 C 0.23652 0.79278 0.71024 0.0
C22 C 0.18401 0.80559 0.67899 0.0
C23 C 0.18082 0.77664 0.65651 0.0
C24 C 0.20591 0.75636 0.66037 0.0
C25 C 0.23313 0.76403 0.68752 0.0
H26 H 0.71978 0.32625 0.93431 0.0
H27 H 0.63413 0.32615 0.85657 0.0
H28 H 0.74136 0.41289 0.86303 0.0
H29 H 0.66059 0.4269 0.85143 0.0
C30 C 0.65163 0.40739 0.8295 0.0
O31 O 0.67563 0.38633 0.82831 0.0
H32 H 0.62136 0.39024 0.83463 0.0
C33 C 0.70994 0.3389 0.9131 0.0
C34 C 0.73497 0.37154 0.90096 0.0
C35 C 0.67345 0.32169 0.89769 0.0
C36 C 0.66187 0.33851 0.86933 0.0
C37 C 0.68606 0.3716 0.85706 0.0
C38 C 0.7224 0.38807 0.87318 0.0
H39 H 0.88974 0.73043 0.4491 0.0
H40 H 0.87573 0.65373 0.36623 0.0
H41 H 0.96775 0.75315 0.36162 0.0
H42 H 0.95242 0.64956 0.34482 0.0
C43 C 0.96067 0.67217 0.32644 0.0
O44 O 0.93481 0.69144 0.32979 0.0
H45 H 0.99037 0.68975 0.33347 0.0
C46 C 0.89877 0.72334 0.4241 0.0
C47 C 0.93135 0.74704 0.40749 0.0
C48 C 0.87826 0.68975 0.40958 0.0
C49 C 0.89128 0.67926 0.37806 0.0
C50 C 0.9239 0.70175 0.36107 0.0
C51 C 0.94352 0.73565 0.37565 0.0
H52 H 0.66039 0.82026 0.88404 0.0
H53 H 0.68063 0.77688 0.98191 0.0
H54 H 0.73656 0.7568 0.89058 0.0
H55 H 0.69162 0.69553 0.93711 0.0
C56 C 0.71396 0.70766 0.9575 0.0
O57 O 0.72618 0.74434 0.95644 0.0
H58 H 0.70042 0.69891 0.98306 0.0
C59 C 0.67392 0.80458 0.89926 0.0
C60 C 0.69917 0.78907 0.88281 0.0
C61 C 0.66734 0.8012 0.93524 0.0
C62 C 0.68409 0.77948 0.95408 0.0
C63 C 0.70801 0.76286 0.93762 0.0
C64 C 0.71598 0.76805 0.90231 0.0
H65 H 0.90568 0.22126 0.36313 0.0
H66 H 0.85198 0.29912 0.3938 0.0
H67 H 0.91252 0.25795 0.46937 0.0
H68 H 0.91202 0.34842 0.4459 0.0
C69 C 0.88849 0.33645 0.46487 0.0
O70 O 0.87165 0.30035 0.45914 0.0
H71 H 0.90202 0.34097 0.49115 0.0
C72 C 0.90007 0.23879 0.38273 0.0
C73 C 0.91217 0.23693 0.41718 0.0
C74 C 0.87844 0.26122 0.37387 0.0
C75 C 0.86961 0.28246 0.39984 0.0
C76 C 0.88287 0.28191 0.43391 0.0
C77 C 0.90439 0.25949 0.4425 0.0
H78 H 0.3631 0.73125 0.18849 0.0
H79 H 0.37022 0.64684 0.25589 0.0
H80 H 0.45179 0.75116 0.26733 0.0
H81 H 0.48515 0.70031 0.29615 0.0
C82 C 0.45883 0.67636 0.29484 0.0
O83 O 0.42613 0.68721 0.29427 0.0
H84 H 0.4606 0.66182 0.27032 0.0
C85 C 0.37728 0.72115 0.20869 0.0
C86 C 0.41039 0.74506 0.22501 0.0
C87 C 0.36148 0.68538 0.21937 0.0
C88 C 0.38024 0.67405 0.24716 0.0
C89 C 0.41193 0.69784 0.26497 0.0
C90 C 0.42698 0.73316 0.25371 0.0
H91 H 0.10564 0.32507 0.8039 0.0
H92 H 0.20224 0.42103 0.7885 0.0
H93 H 0.18936 0.33114 0.72244 0.0
H94 H 0.27007 0.37217 0.74847 0.0
C95 C 0.26822 0.39902 0.74266 0.0
O96 O 0.23019 0.3967 0.73516 0.0
H97 H 0.27811 0.41626 0.76608 0.0
C98 C 0.13201 0.33935 0.7904 0.0
C99 C 0.14546 0.3224 0.76251 0.0
C100 C 0.15208 0.37534 0.80003 0.0
C101 C 0.18623 0.39358 0.78189 0.0
C102 C 0.19953 0.37747 0.75435 0.0
C103 C 0.17924 0.34231 0.74482 0.0
Dy104 Dy 0.08422 0.05069 0.57297 0.0
Dy105 Dy 0.99529 1.01755 0.60249 0.0
C106 C 0.0539 0.09277 0.63137 0.0
O107 O 0.08592 1.00418 0.6036 0.0
O108 O 0.02948 0.99166 0.63523 0.0
O109 O 0.14638 0.07308 0.5813 0.0
O110 O 0.12216 0.06472 0.52908 0.0
O111 O 1.00058 0.97225 0.56994 0.0
O112 O 0.055 1.0025 0.53884 0.0
O113 O 0.99102 0.04123 0.55112 0.0
O114 O 0.05056 0.08418 0.5514 0.0
O115 O 0.93365 0.98976 0.5964 0.0
O116 O 0.95663 1.01724 0.64464 0.0
C117 C 0.06284 0.98681 0.62808 0.0
O118 O 0.08363 0.08329 0.62101 0.0
O119 O 0.0185 0.07478 0.62081 0.0
C120 C 0.1806 0.1117 0.53748 0.0
C121 C 0.23202 0.17163 0.50554 0.0
C122 C 0.19304 0.16946 0.51086 0.0
C123 C 0.16742 0.1396 0.52673 0.0
C124 C 0.22 0.11506 0.53456 0.0
C125 C 0.24557 0.14482 0.51877 0.0
C126 C 0.15337 0.07747 0.54821 0.0
C127 C 0.02475 0.97384 0.5442 0.0
C128 C 0.01473 0.07137 0.53984 0.0
C129 C 0.90055 0.96645 0.6487 0.0
C130 C 0.84707 0.91344 0.68792 0.0
C131 C 0.84846 0.90972 0.65169 0.0
C132 C 0.87486 0.93612 0.6322 0.0
C133 C 0.89961 0.9696 0.68499 0.0
C134 C 0.87337 0.94335 0.70435 0.0
C135 C 0.92619 0.99612 0.62847 0.0
H136 H 0.18175 0.1896 0.5007 0.0
H137 H 0.13701 0.13744 0.52893 0.0
H138 H 0.23064 0.09382 0.54291 0.0
H139 H 0.27556 0.14603 0.51533 0.0
H140 H 0.82839 0.88699 0.63837 0.0
H141 H 0.87458 0.93313 0.60422 0.0
H142 H 0.91873 0.99273 0.69852 0.0
H143 H 0.87349 0.94665 0.7323 0.0
Dy144 Dy 0.50097 1.01289 1.02914 0.0
Dy145 Dy 0.57019 0.04955 0.08658 0.0
C146 C 0.50426 0.97479 0.10133 0.0
O147 O 0.4752 0.04173 0.06713 0.0
O148 O 0.53054 0.08202 0.09057 0.0
O149 O 0.44351 0.97742 1.0158 0.0
O150 O 0.48071 1.00923 0.97634 0.0
O151 O 0.5865 0.08492 1.03988 0.0
O152 O 0.52693 0.06932 1.01249 0.0
O153 O 0.5791 0.99983 0.06622 0.0
O154 O 0.55311 0.99913 1.01221 0.0
O155 O 0.63135 0.06806 0.09958 0.0
O156 O 0.58819 0.06637 0.13913 0.0
C157 C 0.49287 0.07101 0.08487 0.0
O158 O 0.49752 0.96985 0.06778 0.0
O159 O 0.5245 1.00627 0.11403 0.0
C160 C 0.43607 0.95384 0.95789 0.0
C161 C 0.40459 0.90124 0.90644 0.0
C162 C 0.38922 0.89719 0.9401 0.0
C163 C 0.40469 0.92338 0.96556 0.0
C164 C 0.45273 0.95682 0.92472 0.0
C165 C 0.43716 0.93077 0.8993 0.0
C166 C 0.44825 0.98413 0.98274 0.0
C167 C 0.56277 0.09068 1.0164 0.0
C168 C 0.57453 0.98832 1.03402 0.0
C169 C 0.65095 0.10809 0.14811 0.0
C170 C 0.7065 0.16529 0.18265 0.0
C171 C 0.70539 0.16313 0.14614 0.0
C172 C 0.67782 0.13474 0.12897 0.0
C173 C 0.65109 0.11104 0.18437 0.0
C174 C 0.67848 0.13925 0.20146 0.0
C175 C 0.62507 0.07521 0.13179 0.0
H176 H 0.36384 0.87484 0.94619 0.0
H177 H 0.39101 0.92051 0.99076 0.0
H178 H 0.47682 0.97999 0.91783 0.0
H179 H 0.44973 0.93437 0.87361 0.0
H180 H 0.72638 0.18291 0.13091 0.0
H181 H 0.6783 0.13311 0.10091 0.0
H182 H 0.6309 0.09063 0.19967 0.0
H183 H 0.67886 0.13952 0.22956 0.0
Dy184 Dy 0.55521 0.50054 0.53942 0.0
Dy185 Dy 0.56348 0.57709 0.57739 0.0
C186 C 0.59209 0.51895 0.61592 0.0
O187 O 0.49447 0.49428 0.55532 0.0
O188 O 0.50955 0.53693 0.59843 0.0
O189 O 0.54537 0.44379 0.54121 0.0
O190 O 0.56003 0.4717 0.49276 0.0
O191 O 0.52554 0.57632 0.53101 0.0
O192 O 0.53818 0.53256 0.49829 0.0
O193 O 0.61545 0.58884 0.54232 0.0
O194 O 0.6183 0.53212 0.53759 0.0
O195 O 0.57542 0.6341 0.57665 0.0
O196 O 0.55817 0.60555 0.62438 0.0
C197 C 0.48503 0.50859 0.5834 0.0
O198 O 0.56805 0.49471 0.5958 0.0
O199 O 0.60124 0.55302 0.60857 0.0
C200 C 0.58818 0.42759 0.50348 0.0
C201 C 0.65386 0.4076 0.4869 0.0
C202 C 0.65358 0.42767 0.51714 0.0
C203 C 0.62111 0.43777 0.52525 0.0
C204 C 0.58788 0.40669 0.47385 0.0
C205 C 0.62049 0.39678 0.46558 0.0
C206 C 0.55635 0.44232 0.5092 0.0
C207 C 0.52431 0.5593 0.50135 0.0
C208 C 0.63387 0.56652 0.53303 0.0
C209 C 0.53184 0.65106 0.61225 0.0
C210 C 0.47043 0.6798 0.62004 0.0
C211 C 0.46721 0.65165 0.59642 0.0
C212 C 0.49749 0.63736 0.5927 0.0
C213 C 0.53538 0.6791 0.63585 0.0
C214 C 0.50493 0.69338 0.63973 0.0
C215 C 0.56328 0.63539 0.60827 0.0
H216 H 0.67904 0.43676 0.53381 0.0
H217 H 0.6222 0.45453 0.5479 0.0
H218 H 0.56289 0.39898 0.45656 0.0
H219 H 0.61979 0.38104 0.44228 0.0
H220 H 0.44147 0.6409 0.58036 0.0
H221 H 0.49411 0.61558 0.57444 0.0
H222 H 0.56158 0.68981 0.65135 0.0
H223 H 0.50824 0.71476 0.65844 0.0
Dy224 Dy 0.05459 0.564 1.03505 0.0
Dy225 Dy 0.04459 0.49273 0.08035 0.0
C226 C 0.01639 0.55699 0.11001 0.0
O227 O 0.1057 0.57842 0.0721 0.0
O228 O 0.10805 0.52215 0.08068 0.0
O229 O 0.06465 0.62067 1.03265 0.0
O230 O 0.05471 0.58898 0.98547 0.0
O231 O 0.05947 0.47862 1.02616 0.0
O232 O 0.08927 0.53502 1.00635 0.0
O233 O 0.98462 0.48622 0.06147 0.0
O234 O 1.00053 0.5229 1.01451 0.0
O235 O 0.02688 0.43556 0.08575 0.0
O236 O 0.05163 0.47005 0.12959 0.0
C237 C 0.12348 0.55676 0.08416 0.0
O238 O 0.01316 0.56558 0.07759 0.0
O239 O 0.03327 0.53308 0.11742 0.0
C240 C 0.02326 0.6317 0.99064 0.0
C241 C 0.95817 0.65152 0.97178 0.0
C242 C 0.95539 0.62656 0.99803 0.0
C243 C 0.98756 0.61667 1.00725 0.0
C244 C 0.02637 0.65663 0.96442 0.0
C245 C 0.99394 0.66646 0.95496 0.0
C246 C 0.05602 0.61931 0.99967 0.0
C247 C 0.08038 0.50022 1.00266 0.0
C248 C 0.97592 0.49657 1.03118 0.0
C249 C 0.06969 0.41881 0.12318 0.0
C250 C 0.13105 0.39183 0.13755 0.0
C251 C 0.12293 0.39911 0.10324 0.0
C252 C 0.09271 0.41272 0.09614 0.0
C253 C 0.07669 0.41029 0.15721 0.0
C254 C 0.10714 0.39702 0.16438 0.0
C255 C 0.04152 0.43774 0.11698 0.0
H256 H 0.92808 0.61406 1.01097 0.0
H257 H 0.9844 0.59685 1.0271 0.0
H258 H 0.05364 0.66818 0.9511 0.0
H259 H 0.99686 0.68584 0.93471 0.0
H260 H 0.14034 0.3949 0.0819 0.0
H261 H 0.08813 0.41944 0.06964 0.0
H262 H 0.05956 0.41524 0.17845 0.0
H263 H 0.11288 0.39227 0.19117 0.0
H264 H 0.34225 0.22633 0.32991 0.0
H265 H 0.33725 0.33341 0.34558 0.0
H266 H 0.31214 0.31731 0.40478 0.0
H267 H 0.25774 0.18218 0.36904 0.0
H268 H 0.27436 0.14845 0.3885 0.0
H269 H 0.29682 0.1699 0.34966 0.0
H270 H 0.36433 0.18896 0.38002 0.0
H271 H 0.34213 0.16718 0.41902 0.0
H272 H 0.37122 0.21351 0.4205 0.0
H273 H 0.27845 0.28612 0.45899 0.0
H274 H 0.24303 0.24379 0.50383 0.0
H275 H 0.27444 0.15928 0.45222 0.0
C276 C 0.33763 0.24708 0.34609 0.0
C277 C 0.34211 0.28128 0.33298 0.0
C278 C 0.33388 0.30693 0.35489 0.0
C279 C 0.31985 0.29811 0.38865 0.0
C280 C 0.31486 0.26376 0.40029 0.0
C281 C 0.32415 0.23889 0.37974 0.0
C282 C 0.31351 0.20301 0.39685 0.0
C283 C 0.28385 0.17422 0.3747 0.0
C284 C 0.34998 0.19257 0.40456 0.0
C285 C 0.29554 0.21112 0.42982 0.0
C286 C 0.29665 0.24629 0.43161 0.0
C287 C 0.27829 0.25878 0.45826 0.0
C288 C 0.25813 0.23459 0.48349 0.0
C289 C 0.25673 0.1985 0.48183 0.0
C290 C 0.27617 0.18698 0.45487 0.0
H291 H 0.28645 0.85786 0.7294 0.0
H292 H 0.25049 0.7462 0.75643 0.0
H293 H 0.29444 0.76087 0.80761 0.0
H294 H 0.38844 0.87963 0.75774 0.0
H295 H 0.39027 0.92301 0.77384 0.0
H296 H 0.3589 0.90302 0.73772 0.0
H297 H 0.29983 0.91027 0.77087 0.0
H298 H 0.33094 0.93024 0.80701 0.0
H299 H 0.28893 0.89167 0.81354 0.0
H300 H 0.33682 0.78901 0.85936 0.0
H301 H 0.37636 0.82805 0.90577 0.0
H302 H 0.38476 0.9206 0.8435 0.0
C303 C 0.28815 0.83647 0.74592 0.0
C304 C 0.26513 0.80094 0.73911 0.0
C305 C 0.26823 0.77358 0.7611 0.0
C306 C 0.293 0.78166 0.79022 0.0
C307 C 0.31477 0.81715 0.7966 0.0
C308 C 0.31285 0.84403 0.77481 0.0
C309 C 0.33768 0.88016 0.78814 0.0
C310 C 0.37079 0.89746 0.76285 0.0
C311 C 0.31286 0.90449 0.79532 0.0
C312 C 0.35304 0.86958 0.82137 0.0
C313 C 0.33972 0.83314 0.82581 0.0
C314 C 0.34799 0.81752 0.85587 0.0
C315 C 0.37026 0.83982 0.8821 0.0
C316 C 0.38404 0.8772 0.8779 0.0
C317 C 0.37555 0.89204 0.84697 0.0
H318 H 0.60141 0.38893 0.77261 0.0
H319 H 0.70352 0.47176 0.81082 0.0
H320 H 0.70088 0.50856 0.75987 0.0
H321 H 0.62523 0.40123 0.67941 0.0
H322 H 0.57522 0.39243 0.66654 0.0
H323 H 0.58682 0.37189 0.70473 0.0
H324 H 0.54249 0.3981 0.74125 0.0
H325 H 0.53104 0.41895 0.70327 0.0
H326 H 0.55095 0.44546 0.74132 0.0
H327 H 0.68325 0.53873 0.70708 0.0
H328 H 0.65567 0.55751 0.65473 0.0
H329 H 0.56614 0.45431 0.64936 0.0
C330 C 0.6236 0.41455 0.76987 0.0
C331 C 0.65268 0.42755 0.79583 0.0
C332 C 0.68106 0.46129 0.79133 0.0
C333 C 0.67966 0.48241 0.7625 0.0
C334 C 0.64994 0.46934 0.73794 0.0
C335 C 0.62272 0.43594 0.74107 0.0
C336 C 0.59331 0.42845 0.7114 0.0
C337 C 0.59527 0.39661 0.6892 0.0
C338 C 0.55201 0.42239 0.72514 0.0
C339 C 0.60781 0.463 0.69138 0.0
C340 C 0.64045 0.4863 0.70719 0.0
C341 C 0.65798 0.52046 0.69432 0.0
C342 C 0.64199 0.53098 0.66456 0.0
C343 C 0.60884 0.50744 0.64756 0.0
C344 C 0.59177 0.47291 0.66133 0.0
H345 H 0.98817 0.61786 0.30642 0.0
H346 H 0.93879 0.69438 0.26301 0.0
H347 H 0.94545 0.67183 0.20394 0.0
H348 H 0.05921 0.62522 0.24037 0.0
H349 H 0.05527 0.57873 0.24041 0.0
H350 H 0.04474 0.59957 0.27921 0.0
H351 H 0.9766 0.55213 0.28183 0.0
H352 H 0.98696 0.5311 0.24305 0.0
H353 H 0.94447 0.54522 0.24476 0.0
H354 H 0.95903 0.64128 0.14881 0.0
H355 H 0.97954 0.60726 0.10305 0.0
H356 H 0.02143 0.55075 0.18182 0.0
C357 C 0.97817 0.62949 0.28447 0.0
C358 C 0.9619 0.65733 0.28968 0.0
C359 C 0.95039 0.67253 0.26008 0.0
C360 C 0.95422 0.6599 0.2263 0.0
C361 C 0.97008 0.63225 0.2222 0.0
C362 C 0.98196 0.61728 0.25056 0.0
C363 C 0.99934 0.58872 0.23909 0.0
C364 C 0.04218 0.59866 0.25045 0.0
C365 C 0.97541 0.55212 0.25301 0.0
C366 C 0.99557 0.58994 0.1998 0.0
C367 C 0.97846 0.61516 0.19063 0.0
C368 C 0.97234 0.62146 0.15586 0.0
C369 C 0.98413 0.60183 0.12992 0.0
C370 C 1.00211 0.57597 0.13845 0.0
C371 C 0.00762 0.57002 0.17412 0.0
H372 H 0.43948 0.20251 0.21854 0.0
H373 H 0.32913 0.17923 0.16437 0.0
H374 H 0.35065 0.14337 0.12085 0.0
H375 H 0.49987 0.20777 0.14012 0.0
H376 H 0.53125 0.18708 0.16141 0.0
H377 H 0.50846 0.21361 0.18625 0.0
H378 H 0.4788 0.16034 0.227 0.0
H379 H 0.50117 0.13359 0.20213 0.0
H380 H 0.44937 0.11823 0.20873 0.0
H381 H 0.38124 0.10511 0.08727 0.0
H382 H 0.42074 0.07007 0.06327 0.0
H383 H 0.51212 0.11971 0.13827 0.0
C384 C 0.42034 0.19045 0.19701 0.0
C385 C 0.38284 0.19362 0.19454 0.0
C386 C 0.35808 0.17716 0.16649 0.0
C387 C 0.37004 0.15679 0.14172 0.0
C388 C 0.4069 0.15348 0.1453 0.0
C389 C 0.43191 0.1702 0.17198 0.0
C390 C 0.46926 0.16101 0.1708 0.0
C391 C 0.50428 0.19436 0.16424 0.0
C392 C 0.47496 0.14217 0.20414 0.0
C393 C 0.46095 0.13585 0.13982 0.0
C394 C 0.42486 0.13189 0.12546 0.0
C395 C 0.4098 0.10838 0.09793 0.0
C396 C 0.43234 0.08845 0.08463 0.0
C397 C 0.46954 0.09235 0.09879 0.0
C398 C 0.48401 0.11655 0.12658 0.0
H399 H 0.20619 0.8769 0.66757 0.0
H400 H 0.10464 0.78417 0.68076 0.0
H401 H 0.0622 0.82212 0.67568 0.0
H402 H 0.17126 0.94134 0.71316 0.0
H403 H 0.19251 0.97631 0.68277 0.0
H404 H 0.21474 0.94235 0.69019 0.0
H405 H 0.2106 0.92712 0.62437 0.0
H406 H 0.18886 0.9613 0.61676 0.0
H407 H 0.16433 0.91626 0.60227 0.0
H408 H 0.03114 0.87076 0.66864 0.0
H409 H 0.01352 0.92379 0.65189 0.0
H410 H 0.13564 0.98352 0.64011 0.0
C411 C 0.175 0.86474 0.66963 0.0
C412 C 0.15848 0.82782 0.67481 0.0
C413 C 0.11764 0.8125 0.67678 0.0
C414 C 0.09345 0.83387 0.67421 0.0
C415 C 0.11066 0.87036 0.66931 0.0
C416 C 0.1505 0.88553 0.6665 0.0
C417 C 0.16165 0.92477 0.65846 0.0
C418 C 0.18651 0.94753 0.68791 0.0
C419 C 0.18258 0.93282 0.62338 0.0
C420 C 0.12187 0.92932 0.65681 0.0
C421 C 0.09283 0.89786 0.66386 0.0
C422 C 0.05367 0.89555 0.66319 0.0
C423 C 0.04393 0.92586 0.65393 0.0
C424 C 0.07323 0.95773 0.64488 0.0
C425 C 0.11265 0.95954 0.6471 0.0
H426 H 0.7776 0.4422 0.91781 0.0
H427 H 0.78356 0.33447 0.91931 0.0
H428 H 0.84412 0.35531 0.95308 0.0
H429 H 0.88462 0.48459 0.90775 0.0
H430 H 0.88604 0.52279 0.93422 0.0
H431 H 0.84293 0.4999 0.90938 0.0
H432 H 0.80217 0.49139 0.96546 0.0
H433 H 0.84523 0.51383 0.99049 0.0
H434 H 0.81548 0.46958 1.00198 0.0
H435 H 0.89896 0.38512 0.99214 0.0
H436 H 0.95364 0.42519 1.02588 0.0
H437 H 0.9198 0.51593 0.99449 0.0
C438 C 0.79202 0.42315 0.92473 0.0
C439 C 0.7748 0.38635 0.91676 0.0
C440 C 0.79503 0.36248 0.92615 0.0
C441 C 0.82973 0.37408 0.9452 0.0
C442 C 0.84491 0.40998 0.95397 0.0
C443 C 0.82757 0.4345 0.94329 0.0
C444 C 0.85124 0.47178 0.95583 0.0
C445 C 0.86715 0.49621 0.92495 0.0
C446 C 0.82708 0.48756 0.97987 0.0
C447 C 0.88385 0.46397 0.97579 0.0
C448 C 0.87904 0.42797 0.97464 0.0
C449 C 0.90352 0.41347 0.99276 0.0
C450 C 0.93428 0.43639 1.0121 0.0
C451 C 0.94093 0.47354 1.01272 0.0
C452 C 0.91545 0.4876 0.99421 0.0
H453 H 0.81848 0.70688 0.44206 0.0
H454 H 0.85925 0.61758 0.4184 0.0
H455 H 0.80245 0.57733 0.4484 0.0
H456 H 0.78147 0.67814 0.52779 0.0
H457 H 0.73987 0.69328 0.52345 0.0
H458 H 0.7839 0.71534 0.50038 0.0
H459 H 0.74541 0.70437 0.44237 0.0
H460 H 0.70126 0.68235 0.46525 0.0
H461 H 0.71656 0.65967 0.43011 0.0
H462 H 0.74144 0.54659 0.48104 0.0
H463 H 0.67929 0.52688 0.512 0.0
H464 H 0.67674 0.63572 0.51493 0.0
C465 C 0.81565 0.67889 0.44341 0.0
C466 C 0.84355 0.66549 0.42772 0.0
C467 C 0.83823 0.62854 0.42974 0.0
C468 C 0.80613 0.60546 0.44697 0.0
C469 C 0.77931 0.61955 0.46211 0.0
C470 C 0.78358 0.65538 0.46041 0.0
C471 C 0.75001 0.66345 0.47833 0.0
C472 C 0.7647 0.68907 0.50933 0.0
C473 C 0.72695 0.67834 0.45247 0.0
C474 C 0.72618 0.62655 0.49032 0.0
C475 C 0.74381 0.60172 0.48079 0.0
C476 C 0.72741 0.56584 0.48864 0.0
C477 C 0.69195 0.55491 0.50636 0.0
C478 C 0.6728 0.57965 0.51614 0.0
C479 C 0.69052 0.61607 0.50808 0.0
H480 H 0.25553 0.29739 0.24764 0.0
H481 H 0.35499 0.3523 0.18482 0.0
H482 H 0.31354 0.37834 0.14998 0.0
H483 H 0.18501 0.2764 0.1778 0.0
H484 H 0.14689 0.28284 0.20422 0.0
H485 H 0.18437 0.26846 0.2238 0.0
H486 H 0.20068 0.32198 0.26693 0.0
H487 H 0.16317 0.33644 0.24758 0.0
H488 H 0.21228 0.36649 0.25038 0.0
H489 H 0.2616 0.40002 0.12382 0.0
H490 H 0.20326 0.41557 0.10785 0.0
H491 H 0.13734 0.34384 0.18635 0.0
C492 C 0.26864 0.31515 0.22674 0.0
C493 C 0.30846 0.32324 0.21904 0.0
C494 C 0.32448 0.34591 0.19104 0.0
C495 C 0.30121 0.36076 0.17119 0.0
C496 C 0.262 0.35227 0.17952 0.0
C497 C 0.24582 0.32987 0.20654 0.0
C498 C 0.20297 0.3249 0.21017 0.0
C499 C 0.17837 0.28583 0.20359 0.0
C500 C 0.19428 0.33826 0.24588 0.0
C501 C 0.19765 0.34852 0.18136 0.0
C502 C 0.23197 0.36399 0.16392 0.0
C503 C 0.23444 0.38775 0.13702 0.0
C504 C 0.20102 0.39619 0.12797 0.0
C505 C 0.16554 0.3808 0.14568 0.0
C506 C 0.16398 0.35633 0.17245 0.0
H507 H 0.6691 0.294 0.96444 0.0
H508 H 0.62349 0.26555 0.85983 0.0
H509 H 0.58929 0.20462 0.87929 0.0
H510 H 0.69047 0.2132 0.97838 0.0
H511 H 0.67859 0.2111 1.02384 0.0
H512 H 0.69606 0.25358 1.00287 0.0
H513 H 0.63483 0.26837 1.02264 0.0
H514 H 0.61725 0.226 0.04382 0.0
H515 H 0.58734 0.23799 1.01192 0.0
H516 H 0.56069 0.14578 0.91014 0.0
H517 H 0.5419 0.094 0.94898 0.0
H518 H 0.61248 0.15859 1.03155 0.0
C519 C 0.65232 0.27516 0.94523 0.0
C520 C 0.64948 0.28533 0.91024 0.0
C521 C 0.62593 0.25932 0.88682 0.0
C522 C 0.60659 0.22429 0.8976 0.0
C523 C 0.61123 0.21518 0.93186 0.0
C524 C 0.63369 0.23987 0.95528 0.0
C525 C 0.63564 0.22289 0.99016 0.0
C526 C 0.67769 0.22534 0.99934 0.0
C527 C 0.61769 0.23982 1.01883 0.0
C528 C 0.61085 0.18465 0.98272 0.0
C529 C 0.59661 0.18093 0.94905 0.0
C530 C 0.57193 0.14843 0.93643 0.0
C531 C 0.56141 0.11913 0.95873 0.0
C532 C 0.57602 0.12205 0.9932 0.0
C533 C 0.60136 0.15532 1.00518 0.0
H534 H 0.90196 0.78951 0.45066 0.0
H535 H 0.00933 0.78743 0.40253 0.0
H536 H 0.04375 0.84534 0.43013 0.0
H537 H 0.91866 0.8836 0.4471 0.0
H538 H 0.89827 0.88615 0.48923 0.0
H539 H 0.88136 0.84557 0.46391 0.0
H540 H 0.89773 0.81057 0.51478 0.0
H541 H 0.9146 0.85102 0.54029 0.0
H542 H 0.94621 0.8247 0.53288 0.0
H543 H 0.0671 0.90459 0.46364 0.0
H544 H 0.07748 0.95734 0.50196 0.0
H545 H 0.95651 0.91816 0.53252 0.0
C546 C 0.9328 0.80066 0.44601 0.0
C547 C 0.95245 0.7831 0.42386 0.0
C548 C 0.99285 0.8 0.41846 0.0
C549 C 0.01294 0.83301 0.43439 0.0
C550 C 0.99266 0.84909 0.45622 0.0
C551 C 0.95351 0.83327 0.46226 0.0
C552 C 0.9387 0.85534 0.4879 0.0
C553 C 0.90739 0.86844 0.47102 0.0
C554 C 0.92341 0.83414 0.52092 0.0
C555 C 0.97562 0.88611 0.49539 0.0
C556 C 1.00636 0.88221 0.47656 0.0
C557 C 0.0432 0.90771 0.47859 0.0
C558 C 0.04881 0.93773 0.50043 0.0
C559 C 0.01797 0.94209 0.52053 0.0
C560 C 0.98088 0.91567 0.51782 0.0
H561 H 0.2494 0.676 0.61033 0.0
H562 H 0.29122 0.79106 0.61924 0.0
H563 H 0.35847 0.78966 0.62748 0.0
H564 H 0.31682 0.65934 0.67415 0.0
H565 H 0.32248 0.62235 0.64962 0.0
H566 H 0.27761 0.63251 0.64696 0.0
H567 H 0.28406 0.63682 0.58006 0.0
H568 H 0.32893 0.62676 0.58252 0.0
H569 H 0.32764 0.66677 0.56154 0.0
H570 H 0.42163 0.77558 0.63043 0.0
H571 H 0.47548 0.75019 0.62835 0.0
H572 H 0.39181 0.64403 0.61899 0.0
C573 C 0.27278 0.7008 0.61426 0.0
C574 C 0.26549 0.73367 0.6137 0.0
C575 C 0.29654 0.76568 0.61918 0.0
C576 C 0.33468 0.76509 0.624 0.0
C577 C 0.34111 0.73224 0.6236 0.0
C578 C 0.31097 0.70066 0.61907 0.0
C579 C 0.32577 0.66902 0.6184 0.0
C580 C 0.30972 0.64436 0.64912 0.0
C581 C 0.31602 0.64866 0.58356 0.0
C582 C 0.36902 0.68774 0.6224 0.0
C583 C 0.37731 0.72416 0.62566 0.0
C584 C 0.41543 0.74705 0.62833 0.0
C585 C 0.44585 0.73234 0.6273 0.0
C586 C 0.43803 0.69507 0.62353 0.0
C587 C 0.39894 0.67264 0.62154 0.0
H588 H 0.71756 0.85462 0.85382 0.0
H589 H 0.71203 0.74568 0.83101 0.0
H590 H 0.74287 0.76455 0.77421 0.0
H591 H 0.70105 0.8794 0.76315 0.0
H592 H 0.73464 0.9237 0.7695 0.0
H593 H 0.70674 0.90033 0.80549 0.0
H594 H 0.77045 0.90966 0.84042 0.0
H595 H 0.79856 0.9326 0.80455 0.0
H596 H 0.80801 0.89427 0.82228 0.0
H597 H 0.78193 0.79713 0.72335 0.0
H598 H 0.82561 0.84037 0.68361 0.0
H599 H 0.80326 0.92699 0.74007 0.0
C600 C 0.72135 0.83439 0.83638 0.0
C601 C 0.71201 0.79861 0.84669 0.0
C602 C 0.71897 0.77327 0.8236 0.0
C603 C 0.73624 0.7837 0.79123 0.0
C604 C 0.74602 0.81947 0.7823 0.0
C605 C 0.73844 0.84432 0.80416 0.0
C606 C 0.75499 0.88159 0.79033 0.0
C607 C 0.72241 0.89716 0.78159 0.0
C608 C 0.78476 0.90593 0.81591 0.0
C609 C 0.77437 0.87409 0.75789 0.0
C610 C 0.7685 0.83811 0.7533 0.0
C611 C 0.78612 0.82529 0.72635 0.0
C612 C 0.81081 0.84998 0.70389 0.0
C613 C 0.81787 0.88697 0.7089 0.0
C614 C 0.79861 0.89888 0.73576 0.0
H615 H 0.80376 0.25566 0.35653 0.0
H616 H 0.91444 0.2601 0.31163 0.0
H617 H 0.88328 0.24669 0.25375 0.0
H618 H 0.74947 0.18315 0.31266 0.0
H619 H 0.70712 0.19681 0.30635 0.0
H620 H 0.73928 0.21447 0.34235 0.0
H621 H 0.74855 0.27874 0.32205 0.0
H622 H 0.71605 0.26123 0.28593 0.0
H623 H 0.7643 0.29123 0.27838 0.0
H624 H 0.83845 0.22242 0.20366 0.0
H625 H 0.78388 0.1881 0.16618 0.0
H626 H 0.70235 0.20139 0.24293 0.0
C627 C 0.82177 0.25533 0.33428 0.0
C628 C 0.86156 0.2592 0.33847 0.0
C629 C 0.88388 0.25721 0.30894 0.0
C630 C 0.86649 0.2499 0.27594 0.0
C631 C 0.82684 0.24501 0.27287 0.0
C632 C 0.80482 0.24799 0.30124 0.0
C633 C 0.76202 0.23703 0.29201 0.0
C634 C 0.73811 0.20603 0.31467 0.0
C635 C 0.74684 0.26897 0.29475 0.0
C636 C 0.76313 0.22537 0.25461 0.0
C637 C 0.80083 0.23097 0.24376 0.0
C638 C 0.80886 0.21878 0.2115 0.0
C639 C 0.7776 0.1994 0.19027 0.0
C640 C 0.73876 0.1921 0.20154 0.0
C641 C 0.73168 0.20654 0.23357 0.0
H642 H 0.48898 0.69549 0.36143 0.0
H643 H 0.42938 0.60346 0.29749 0.0
H644 H 0.43651 0.56373 0.34436 0.0
H645 H 0.55853 0.66116 0.39804 0.0
H646 H 0.55848 0.68011 0.44077 0.0
H647 H 0.54607 0.70141 0.40353 0.0
H648 H 0.48037 0.69824 0.4315 0.0
H649 H 0.4927 0.67709 0.46897 0.0
H650 H 0.44806 0.65592 0.44552 0.0
H651 H 0.45703 0.53411 0.39535 0.0
H652 H 0.48361 0.51657 0.44885 0.0
H653 H 0.52674 0.62716 0.48226 0.0
C654 C 0.47678 0.66696 0.35765 0.0
C655 C 0.45877 0.65253 0.32564 0.0
C656 C 0.44333 0.61507 0.32166 0.0
C657 C 0.44735 0.59231 0.34816 0.0
C658 C 0.46636 0.60731 0.37892 0.0
C659 C 0.48027 0.64379 0.38408 0.0
C660 C 0.50043 0.65294 0.41931 0.0
C661 C 0.54342 0.67522 0.41515 0.0
C662 C 0.47911 0.67219 0.44271 0.0
C663 C 0.49635 0.616 0.43284 0.0
C664 C 0.47676 0.59009 0.40899 0.0
C665 C 0.47177 0.55416 0.41444 0.0
C666 C 0.48712 0.54443 0.4449 0.0
C667 C 0.50682 0.57034 0.47004 0.0
C668 C 0.5111 0.60662 0.46393 0.0
H669 H 0.12529 0.35772 0.86838 0.0
H670 H 0.14469 0.44072 0.79156 0.0
H671 H 0.12902 0.48002 0.83466 0.0
H672 H 0.04275 0.37785 0.91129 0.0
H673 H 0.05664 0.36879 0.95426 0.0
H674 H 0.06803 0.34588 0.91721 0.0
H675 H 0.14057 0.36777 0.93532 0.0
H676 H 0.12945 0.39103 0.97221 0.0
H677 H 0.16516 0.41481 0.94127 0.0
H678 H 0.11692 0.51279 0.88611 0.0
H679 H 0.10132 0.53525 0.94192 0.0
H680 H 0.08489 0.43189 0.98773 0.0
C681 C 0.12554 0.38393 0.86054 0.0
C682 C 0.1369 0.3961 0.82634 0.0
C683 C 0.13691 0.43077 0.81748 0.0
C684 C 0.12793 0.45342 0.84186 0.0
C685 C 0.11828 0.44126 0.87541 0.0
C686 C 0.11625 0.40718 0.88484 0.0
C687 C 0.10487 0.40144 0.92306 0.0
C688 C 0.06574 0.37172 0.92666 0.0
C689 C 0.13692 0.39327 0.94421 0.0
C690 C 0.10141 0.43768 0.93344 0.0
C691 C 0.10963 0.46014 0.90537 0.0
C692 C 0.11001 0.49532 0.9082 0.0
C693 C 0.1013 0.50795 0.94029 0.0
C694 C 0.09175 0.4856 0.96962 0.0
C695 C 0.09183 0.44978 0.96594 0.0
H696 H 0.66593 0.86832 0.91857 0.0
H697 H 0.62191 0.78439 0.99396 0.0
H698 H 0.59445 0.82372 1.02765 0.0
H699 H 0.69105 0.94119 0.97516 0.0
H700 H 0.67446 0.9698 0.94744 0.0
H701 H 0.69036 0.93507 0.92871 0.0
H702 H 0.62438 0.90887 0.89653 0.0
H703 H 0.60844 0.94389 0.91468 0.0
H704 H 0.57988 0.89798 0.92083 0.0
H705 H 0.57698 0.87405 0.05571 0.0
H706 H 0.56262 0.92899 0.0721 0.0
H707 H 0.61089 0.97704 0.97495 0.0
C708 C 0.64961 0.85751 0.94156 0.0
C709 C 0.64654 0.82306 0.95356 0.0
C710 C 0.62562 0.81085 0.98445 0.0
C711 C 0.60963 0.83292 1.00371 0.0
C712 C 0.61399 0.86685 0.99137 0.0
C713 C 0.63265 0.87877 0.9606 0.0
C714 C 0.63289 0.9162 0.95277 0.0
C715 C 0.67467 0.94208 0.95092 0.0
C716 C 0.61002 0.91676 0.91922 0.0
C717 C 0.61203 0.92376 0.98434 0.0
C718 C 0.60182 0.89508 1.0065 0.0
C719 C 0.58435 0.89646 1.03835 0.0
C720 C 0.57663 0.9278 0.04755 0.0
C721 C 0.58575 0.95698 1.0247 0.0
C722 C 0.60349 0.9549 0.99267 0.0
H723 H 0.97278 0.24121 0.46243 0.0
H724 H 0.88601 0.16735 0.39633 0.0
H725 H 0.90746 0.11806 0.41671 0.0
H726 H 0.04815 0.19682 0.45317 0.0
H727 H 0.0636 0.20536 0.49783 0.0
H728 H 0.0444 0.23583 0.4754 0.0
H729 H 0.99279 0.22881 0.52338 0.0
H730 H 0.01175 0.19831 0.54588 0.0
H731 H 0.96106 0.18494 0.53378 0.0
H732 H 0.93201 0.07592 0.4489 0.0
H733 H 0.9611 0.0435 0.48927 0.0
H734 H 0.03396 0.14383 0.53361 0.0
C735 C 0.95876 0.21474 0.45188 0.0
C736 C 0.92805 0.20826 0.42741 0.0
C737 C 0.9102 0.17319 0.41443 0.0
C738 C 0.92203 0.14492 0.42599 0.0
C739 C 0.95196 0.1521 0.45039 0.0
C740 C 0.97042 0.18613 0.463 0.0
C741 C 1.00046 0.18608 0.49047 0.0
C742 C 0.04159 0.20728 0.47849 0.0
C743 C 0.99093 0.20037 0.52544 0.0
C744 C 0.99508 0.14658 0.492 0.0
C745 C 0.96699 0.12756 0.46855 0.0
C746 C 0.95458 0.09051 0.4669 0.0
C747 C 0.97112 0.07234 0.49 0.0
C748 C 0.99999 0.09124 0.51416 0.0
C749 C 0.01253 0.12884 0.51481 0.0
H750 H 0.32866 0.68896 0.1536 0.0
H751 H 0.30793 0.62509 0.24724 0.0
H752 H 0.24908 0.58459 0.22073 0.0
H753 H 0.22784 0.68328 0.14393 0.0
H754 H 0.22892 0.68275 0.09718 0.0
H755 H 0.27246 0.70519 0.12159 0.0
H756 H 0.30852 0.66723 0.08991 0.0
H757 H 0.26504 0.64451 0.06551 0.0
H758 H 0.28875 0.61934 0.09077 0.0
H759 H 0.19266 0.54951 0.18413 0.0
H760 H 0.13783 0.52684 0.14309 0.0
H761 H 0.18764 0.61776 0.07701 0.0
C762 C 0.31197 0.66688 0.16911 0.0
C763 C 0.32473 0.66054 0.20275 0.0
C764 C 0.30096 0.63052 0.22106 0.0
C765 C 0.26673 0.60724 0.20633 0.0
C766 C 0.25539 0.61448 0.17347 0.0
C767 C 0.27678 0.64395 0.15534 0.0
C768 C 0.25625 0.64698 0.12153 0.0
C769 C 0.24574 0.68161 0.12104 0.0
C770 C 0.28113 0.64436 0.09007 0.0
C771 C 0.22004 0.6145 0.12356 0.0
C772 C 0.22074 0.5958 0.15349 0.0
C773 C 0.1916 0.56411 0.1608 0.0
C774 C 0.16064 0.55136 0.1372 0.0
C775 C 0.15835 0.57056 0.10692 0.0
C776 C 0.18849 0.60267 0.10007 0.0
H777 H 0.33506 0.45747 0.74112 0.0
H778 H 0.26123 0.37276 0.67593 0.0
H779 H 0.30645 0.39362 0.62686 0.0
H780 H 0.3647 0.52528 0.67344 0.0
H781 H 0.4136 0.54328 0.69019 0.0
H782 H 0.37409 0.52317 0.71921 0.0
H783 H 0.40983 0.48021 0.74084 0.0
H784 H 0.44937 0.50015 0.71188 0.0
H785 H 0.42474 0.45283 0.70983 0.0
H786 H 0.36215 0.42165 0.58605 0.0
H787 H 0.42327 0.4544 0.55673 0.0
H788 H 0.46072 0.52136 0.64852 0.0
C789 C 0.32811 0.44372 0.71632 0.0
C790 C 0.29432 0.41377 0.71209 0.0
C791 C 0.28665 0.39602 0.67948 0.0
C792 C 0.31221 0.40767 0.65155 0.0
C793 C 0.34539 0.43716 0.6566 0.0
C794 C 0.35332 0.45504 0.68817 0.0
C795 C 0.39178 0.48504 0.68726 0.0
C796 C 0.38566 0.52134 0.69285 0.0
C797 C 0.42062 0.47919 0.71404 0.0
C798 C 0.40456 0.48097 0.65044 0.0
C799 C 0.37734 0.45329 0.63314 0.0
C800 C 0.38347 0.44357 0.59929 0.0
C801 C 0.41838 0.46235 0.58283 0.0
C802 C 0.44691 0.49067 0.60012 0.0
C803 C 0.43946 0.50019 0.63431 0.0
H804 H 0.76259 0.69615 1.00718 0.0
H805 H 0.74461 0.69462 0.8959 0.0
H806 H 0.806 0.68109 0.88688 0.0
H807 H 0.8649 0.7381 1.00639 0.0
H808 H 0.87464 0.71252 0.04158 0.0
H809 H 0.82874 0.72077 1.03919 0.0
H810 H 0.79217 0.65291 0.04082 0.0
H811 H 0.83797 0.64449 0.0436 0.0
H812 H 0.80383 0.62382 1.00949 0.0
H813 H 0.87051 0.66949 0.89041 0.0
H814 H 0.93124 0.65744 0.90626 0.0
H815 H 0.90638 0.66696 1.01528 0.0
C816 C 0.77133 0.69229 0.98099 0.0
C817 C 0.74872 0.69558 0.9522 0.0
C818 C 0.76137 0.69144 0.91821 0.0
C819 C 0.79618 0.68396 0.91289 0.0
C820 C 0.81795 0.68094 0.94187 0.0
C821 C 0.80586 0.68473 0.97526 0.0
C822 C 0.83468 0.68063 1.00198 0.0
C823 C 0.85174 0.71506 1.02355 0.0
C824 C 0.81605 0.64855 1.02534 0.0
C825 C 0.8649 0.67394 0.97846 0.0
C826 C 0.8549 0.67438 0.94387 0.0
C827 C 0.8786 0.66903 0.91741 0.0
C828 C 0.91312 0.66247 0.92662 0.0
C829 C 0.92339 0.66119 0.96196 0.0
C830 C 0.89905 0.6674 0.98805 0.0
H831 H 0.4191 0.76942 0.15742 0.0
H832 H 0.43801 0.80644 0.2645 0.0
H833 H 0.46352 0.86846 0.2445 0.0
H834 H 0.50485 0.83424 0.1225 0.0
H835 H 0.48129 0.83955 0.08264 0.0
H836 H 0.465 0.79789 0.10522 0.0
H837 H 0.39519 0.8018 0.10717 0.0
H838 H 0.41127 0.84348 0.08462 0.0
H839 H 0.38727 0.8408 0.12584 0.0
H840 H 0.4865 0.92685 0.21294 0.0
H841 H 0.50628 0.977 0.17241 0.0
H842 H 0.47184 0.90284 0.08534 0.0
C843 C 0.4284 0.79055 0.17673 0.0
C844 C 0.42652 0.78274 0.2127 0.0
C845 C 0.43957 0.81139 0.23689 0.0
C846 C 0.4539 0.84684 0.22575 0.0
C847 C 0.45518 0.85351 0.19023 0.0
C848 C 0.4429 0.82617 0.16604 0.0
C849 C 0.44752 0.84068 0.12936 0.0
C850 C 0.47638 0.82729 0.10872 0.0
C851 C 0.40795 0.83112 0.11065 0.0
C852 C 0.46401 0.88046 0.13671 0.0
C853 C 0.46826 0.88722 0.17202 0.0
C854 C 0.48326 0.92182 0.18525 0.0
C855 C 0.49442 0.95022 0.16191 0.0
C856 C 0.49055 0.94414 0.12552 0.0
C857 C 0.47493 0.9086 0.11293 0.0
H858 H 0.1755 0.27148 0.73533 0.0
H859 H 0.06588 0.28863 0.75847 0.0
H860 H 0.0308 0.23095 0.73009 0.0
H861 H 0.14897 0.2358 0.65067 0.0
H862 H 0.17512 0.20415 0.65306 0.0
H863 H 0.1914 0.24488 0.67817 0.0
H864 H 0.18776 0.20887 0.73439 0.0
H865 H 0.17165 0.16799 0.70943 0.0
H866 H 0.14297 0.17492 0.74523 0.0
H867 H 0.00764 0.17262 0.69493 0.0
H868 H 0.99847 0.11898 0.65843 0.0
H869 H 0.1234 0.1407 0.6562 0.0
C870 C 0.14407 0.26326 0.73466 0.0
C871 C 0.12369 0.28519 0.74939 0.0
C872 C 0.08247 0.27254 0.74809 0.0
C873 C 0.06221 0.23979 0.73166 0.0
C874 C 0.08336 0.2196 0.71652 0.0
C875 C 0.12344 0.23082 0.7181 0.0
C876 C 0.13951 0.205 0.69862 0.0
C877 C 0.16527 0.22357 0.66834 0.0
C878 C 0.16179 0.1882 0.7234 0.0
C879 C 0.10226 0.17755 0.68545 0.0
C880 C 0.07017 0.18639 0.69619 0.0
C881 C 0.03264 0.16548 0.68664 0.0
C882 C 0.02774 0.13492 0.66574 0.0
C883 C 0.06011 0.12517 0.65425 0.0
C884 C 0.0979 0.14701 0.66451 0.0
H885 H 0.83928 0.34393 0.51595 0.0
H886 H 0.866 0.3651 0.4073 0.0
H887 H 0.80923 0.38642 0.4011 0.0
H888 H 0.73733 0.31127 0.50626 0.0
H889 H 0.72708 0.33116 0.54582 0.0
H890 H 0.77106 0.3197 0.54226 0.0
H891 H 0.81206 0.38469 0.55782 0.0
H892 H 0.76814 0.39628 0.56178 0.0
H893 H 0.80588 0.42071 0.53284 0.0
H894 H 0.74756 0.40207 0.40619 0.0
H895 H 0.68719 0.41402 0.42277 0.0
H896 H 0.70114 0.38308 0.52841 0.0
C897 C 0.83358 0.35386 0.49111 0.0
C898 C 0.85726 0.35365 0.46223 0.0
C899 C 0.84845 0.36574 0.42981 0.0
C900 C 0.81628 0.37774 0.42606 0.0
C901 C 0.7933 0.3774 0.45502 0.0
C902 C 0.80172 0.36608 0.487 0.0
C903 C 0.77182 0.36747 0.51377 0.0
C904 C 0.75057 0.33018 0.52784 0.0
C905 C 0.7906 0.39387 0.54329 0.0
C906 C 0.74503 0.38102 0.49178 0.0
C907 C 0.75787 0.3865 0.45796 0.0
C908 C 0.73734 0.39806 0.43264 0.0
C909 C 0.70295 0.4045 0.44223 0.0
C910 C 0.68951 0.39945 0.47685 0.0
C911 C 0.71093 0.38752 0.50184 0.0
loop_
_geom_bond_atom_site_label_1
_geom_bond_atom_site_label_2
_geom_bond_distance
_geom_bond_site_symmetry_2
_ccdc_geom_bond_type
H0 C7 0.929 . S
H1 C10 0.930 . S
H2 C12 0.929 . S
H3 C4 0.969 . S
C4 H3 0.969 . S
C4 O5 1.550 . S
C4 H6 0.973 . S
O5 C4 1.550 . S
O5 C11 1.412 . S
H6 C4 0.973 . S
C7 H0 0.929 . S
C7 C8 1.400 . S
C7 C9 1.364 . S
C8 C7 1.400 . S
C8 C12 1.377 . S
C9 C7 1.364 . S
C9 C10 1.374 . S
C10 H1 0.930 . S
C10 C9 1.374 . S
C10 C11 1.383 . S
C11 O5 1.412 . S
C11 C10 1.383 . S
C11 C12 1.394 . S
C12 H2 0.929 . S
C12 C8 1.377 . S
C12 C11 1.394 . S
H13 C20 0.929 . S
H14 C23 0.930 . S
H15 C25 0.929 . S
H16 C17 0.969 . S
C17 H16 0.969 . S
C17 O18 1.550 . S
C17 H19 0.973 . S
O18 C17 1.550 . S
O18 C24 1.412 . S
H19 C17 0.973 . S
C20 H13 0.929 . S
C20 C21 1.400 . S
C20 C22 1.364 . S
C21 C20 1.400 . S
C21 C25 1.377 . S
C22 C20 1.364 . S
C22 C23 1.374 . S
C23 H14 0.930 . S
C23 C22 1.374 . S
C23 C24 1.383 . S
C24 O18 1.412 . S
C24 C23 1.383 . S
C24 C25 1.394 . S
C25 H15 0.929 . S
C25 C21 1.377 . S
C25 C24 1.394 . S
H26 C33 0.929 . S
H27 C36 0.930 . S
H28 C38 0.929 . S
H29 C30 0.969 . S
C30 H29 0.969 . S
C30 O31 1.550 . S
C30 H32 0.973 . S
O31 C30 1.550 . S
O31 C37 1.412 . S
H32 C30 0.973 . S
C33 H26 0.929 . S
C33 C34 1.400 . S
C33 C35 1.364 . S
C34 C33 1.400 . S
C34 C38 1.377 . S
C35 C33 1.364 . S
C35 C36 1.374 . S
C36 H27 0.930 . S
C36 C35 1.374 . S
C36 C37 1.383 . S
C37 O31 1.412 . S
C37 C36 1.383 . S
C37 C38 1.394 . S
C38 H28 0.929 . S
C38 C34 1.377 . S
C38 C37 1.394 . S
H39 C46 0.929 . S
H40 C49 0.930 . S
H41 C51 0.929 . S
H42 C43 0.969 . S
C43 H42 0.969 . S
C43 O44 1.550 . S
C43 H45 0.973 . S
O44 C43 1.550 . S
O44 C50 1.412 . S
H45 C43 0.973 . S
C46 H39 0.929 . S
C46 C47 1.400 . S
C46 C48 1.364 . S
C47 C46 1.400 . S
C47 C51 1.377 . S
C48 C46 1.364 . S
C48 C49 1.374 . S
C49 H40 0.930 . S
C49 C48 1.374 . S
C49 C50 1.383 . S
C50 O44 1.412 . S
C50 C49 1.383 . S
C50 C51 1.394 . S
C51 H41 0.929 . S
C51 C47 1.377 . S
C51 C50 1.394 . S
H52 C59 0.929 . S
H53 C62 0.930 . S
H54 C64 0.929 . S
H55 C56 0.969 . S
C56 H55 0.969 . S
C56 O57 1.550 . S
C56 H58 0.973 . S
O57 C56 1.550 . S
O57 C63 1.412 . S
H58 C56 0.973 . S
C59 H52 0.929 . S
C59 C60 1.400 . S
C59 C61 1.364 . S
C60 C59 1.400 . S
C60 C64 1.377 . S
C61 C59 1.364 . S
C61 C62 1.374 . S
C62 H53 0.930 . S
C62 C61 1.374 . S
C62 C63 1.383 . S
C63 O57 1.412 . S
C63 C62 1.383 . S
C63 C64 1.394 . S
C64 H54 0.929 . S
C64 C60 1.377 . S
C64 C63 1.394 . S
H65 C72 0.929 . S
H66 C75 0.930 . S
H67 C77 0.929 . S
H68 C69 0.969 . S
C69 H68 0.969 . S
C69 O70 1.550 . S
C69 H71 0.973 . S
O70 C69 1.550 . S
O70 C76 1.412 . S
H71 C69 0.973 . S
C72 H65 0.929 . S
C72 C73 1.400 . S
C72 C74 1.364 . S
C73 C72 1.400 . S
C73 C77 1.377 . S
C74 C72 1.364 . S
C74 C75 1.374 . S
C75 H66 0.930 . S
C75 C74 1.374 . S
C75 C76 1.383 . S
C76 O70 1.412 . S
C76 C75 1.383 . S
C76 C77 1.394 . S
C77 H67 0.929 . S
C77 C73 1.377 . S
C77 C76 1.394 . S
H78 C85 0.929 . S
H79 C88 0.930 . S
H80 C90 0.929 . S
H81 C82 0.969 . S
C82 H81 0.969 . S
C82 O83 1.550 . S
C82 H84 0.973 . S
O83 C82 1.550 . S
O83 C89 1.412 . S
H84 C82 0.973 . S
C85 H78 0.929 . S
C85 C86 1.400 . S
C85 C87 1.364 . S
C86 C85 1.400 . S
C86 C90 1.377 . S
C87 C85 1.364 . S
C87 C88 1.374 . S
C88 H79 0.930 . S
C88 C87 1.374 . S
C88 C89 1.383 . S
C89 O83 1.412 . S
C89 C88 1.383 . S
C89 C90 1.394 . S
C90 H80 0.929 . S
C90 C86 1.377 . S
C90 C89 1.394 . S
H91 C98 0.929 . S
H92 C101 0.930 . S
H93 C103 0.929 . S
H94 C95 0.969 . S
C95 H94 0.969 . S
C95 O96 1.550 . S
C95 H97 0.973 . S
O96 C95 1.550 . S
O96 C102 1.412 . S
H97 C95 0.973 . S
C98 H91 0.929 . S
C98 C99 1.400 . S
C98 C100 1.364 . S
C99 C98 1.400 . S
C99 C103 1.377 . S
C100 C98 1.364 . S
C100 C101 1.374 . S
C101 H92 0.930 . S
C101 C100 1.374 . S
C101 C102 1.383 . S
C102 O96 1.412 . S
C102 C101 1.383 . S
C102 C103 1.394 . S
C103 H93 0.929 . S
C103 C99 1.377 . S
C103 C102 1.394 . S
Dy104 O107 2.307 1_545 S
Dy104 O109 2.395 . S
Dy104 O110 2.379 . S
Dy104 O112 2.339 1_545 S
Dy104 O114 2.298 . S
Dy104 O118 2.275 . S
Dy104 C126 2.738 . S
Dy105 O108 2.298 1_645 S
Dy105 O111 2.275 1_545 S
Dy105 O113 2.307 . S
Dy105 O115 2.395 1_545 S
Dy105 O116 2.379 1_545 S
Dy105 O119 2.339 1_655 S
Dy105 C135 2.738 1_545 S
C106 O118 1.254 . S
C106 O119 1.257 . S
O107 Dy104 2.307 1_565 S
O107 C117 1.266 . S
O108 Dy105 2.298 1_465 S
O108 C117 1.236 . S
O109 Dy104 2.395 . S
O109 C126 1.255 . S
O110 Dy104 2.379 . S
O110 C126 1.249 . S
O111 Dy105 2.275 1_565 S
O111 C127 1.254 . S
O112 Dy104 2.339 1_565 S
O112 C127 1.257 1_455 S
O113 Dy105 2.307 . S
O113 C128 1.266 . S
O114 Dy104 2.298 . S
O114 C128 1.236 1_455 S
O115 Dy105 2.395 1_565 S
O115 C135 1.255 . S
O116 Dy105 2.379 1_565 S
O116 C135 1.249 . S
C117 O107 1.266 . S
C117 O108 1.236 . S
O118 Dy104 2.275 . S
O118 C106 1.254 . S
O119 Dy105 2.339 1_455 S
O119 C106 1.257 . S
C120 C123 1.344 . S
C120 C124 1.328 . S
C120 C126 1.516 . S
C121 C122 1.304 . S
C121 C125 1.323 . S
C122 C121 1.304 . S
C122 C123 1.371 . S
C122 H136 0.930 . S
C123 C120 1.344 . S
C123 C122 1.371 . S
C123 H137 0.931 . S
C124 C120 1.328 . S
C124 C125 1.433 . S
C124 H138 0.931 . S
C125 C121 1.323 . S
C125 C124 1.433 . S
C125 H139 0.933 . S
C126 Dy104 2.738 . S
C126 O109 1.255 . S
C126 O110 1.249 . S
C126 C120 1.516 . S
C127 O111 1.254 . S
C127 O112 1.257 1_655 S
C128 O113 1.266 . S
C128 O114 1.236 1_655 S
C129 C132 1.344 . S
C129 C133 1.328 . S
C129 C135 1.516 . S
C130 C131 1.304 . S
C130 C134 1.323 . S
C131 C130 1.304 . S
C131 C132 1.371 . S
C131 H140 0.930 . S
C132 C129 1.344 . S
C132 C131 1.371 . S
C132 H141 0.931 . S
C133 C129 1.328 . S
C133 C134 1.433 . S
C133 H142 0.931 . S
C134 C130 1.323 . S
C134 C133 1.433 . S
C134 H143 0.933 . S
C135 Dy105 2.738 1_565 S
C135 O115 1.255 . S
C135 O116 1.249 . S
C135 C129 1.516 . S
H136 C122 0.930 . S
H137 C123 0.931 . S
H138 C124 0.931 . S
H139 C125 0.933 . S
H140 C131 0.930 . S
H141 C132 0.931 . S
H142 C133 0.931 . S
H143 C134 0.933 . S
Dy144 O147 2.298 1_566 S
Dy144 O149 2.406 . S
Dy144 O150 2.381 . S
Dy144 O152 2.329 1_565 S
Dy144 O154 2.306 . S
Dy144 O158 2.283 1_556 S
Dy144 C166 2.745 . S
Dy145 O148 2.298 . S
Dy145 O151 2.275 1_554 S
Dy145 O153 2.307 1_544 S
Dy145 O155 2.395 . S
Dy145 O156 2.379 . S
Dy145 O159 2.339 1_545 S
Dy145 C175 2.738 . S
C146 O158 1.254 . S
C146 O159 1.257 . S
O147 Dy144 2.298 1_544 S
O147 C157 1.266 . S
O148 Dy145 2.298 . S
O148 C157 1.236 . S
O149 Dy144 2.406 . S
O149 C166 1.255 . S
O150 Dy144 2.381 . S
O150 C166 1.249 . S
O151 Dy145 2.275 1_556 S
O151 C167 1.254 . S
O152 Dy144 2.329 1_545 S
O152 C167 1.257 . S
O153 Dy145 2.307 1_566 S
O153 C168 1.266 . S
O154 Dy144 2.306 . S
O154 C168 1.236 . S
O155 Dy145 2.395 . S
O155 C175 1.255 . S
O156 Dy145 2.379 . S
O156 C175 1.249 . S
C157 O147 1.266 . S
C157 O148 1.236 . S
O158 Dy144 2.283 1_554 S
O158 C146 1.254 . S
O159 Dy145 2.339 1_565 S
O159 C146 1.257 . S
C160 C163 1.344 . S
C160 C164 1.328 . S
C160 C166 1.516 . S
C161 C162 1.304 . S
C161 C165 1.323 . S
C162 C161 1.304 . S
C162 C163 1.371 . S
C162 H176 0.930 . S
C163 C160 1.344 . S
C163 C162 1.371 . S
C163 H177 0.931 . S
C164 C160 1.328 . S
C164 C165 1.433 . S
C164 H178 0.931 . S
C165 C161 1.323 . S
C165 C164 1.433 . S
C165 H179 0.933 . S
C166 Dy144 2.745 . S
C166 O149 1.255 . S
C166 O150 1.249 . S
C166 C160 1.516 . S
C167 O151 1.254 . S
C167 O152 1.257 . S
C168 O153 1.266 . S
C168 O154 1.236 . S
C169 C172 1.344 . S
C169 C173 1.328 . S
C169 C175 1.516 . S
C170 C171 1.304 . S
C170 C174 1.323 . S
C171 C170 1.304 . S
C171 C172 1.371 . S
C171 H180 0.930 . S
C172 C169 1.344 . S
C172 C171 1.371 . S
C172 H181 0.931 . S
C173 C169 1.328 . S
C173 C174 1.433 . S
C173 H182 0.931 . S
C174 C170 1.323 . S
C174 C173 1.433 . S
C174 H183 0.933 . S
C175 Dy145 2.738 . S
C175 O155 1.255 . S
C175 O156 1.249 . S
C175 C169 1.516 . S
H176 C162 0.930 . S
H177 C163 0.931 . S
H178 C164 0.931 . S
H179 C165 0.933 . S
H180 C171 0.930 . S
H181 C172 0.931 . S
H182 C173 0.931 . S
H183 C174 0.933 . S
Dy184 O187 2.307 . S
Dy184 O189 2.395 . S
Dy184 O190 2.379 . S
Dy184 O192 2.339 . S
Dy184 O194 2.298 . S
Dy184 O198 2.275 . S
Dy184 C206 2.738 . S
Dy185 O188 2.298 . S
Dy185 O191 2.275 . S
Dy185 O193 2.307 . S
Dy185 O195 2.395 . S
Dy185 O196 2.379 . S
Dy185 O199 2.339 . S
Dy185 C215 2.738 . S
C186 O198 1.254 . S
C186 O199 1.257 . S
O187 Dy184 2.307 . S
O187 C197 1.266 . S
O188 Dy185 2.298 . S
O188 C197 1.236 . S
O189 Dy184 2.395 . S
O189 C206 1.255 . S
O190 Dy184 2.379 . S
O190 C206 1.249 . S
O191 Dy185 2.275 . S
O191 C207 1.254 . S
O192 Dy184 2.339 . S
O192 C207 1.257 . S
O193 Dy185 2.307 . S
O193 C208 1.266 . S
O194 Dy184 2.298 . S
O194 C208 1.236 . S
O195 Dy185 2.395 . S
O195 C215 1.255 . S
O196 Dy185 2.379 . S
O196 C215 1.249 . S
C197 O187 1.266 . S
C197 O188 1.236 . S
O198 Dy184 2.275 . S
O198 C186 1.254 . S
O199 Dy185 2.339 . S
O199 C186 1.257 . S
C200 C203 1.344 . S
C200 C204 1.328 . S
C200 C206 1.516 . S
C201 C202 1.304 . S
C201 C205 1.323 . S
C202 C201 1.304 . S
C202 C203 1.371 . S
C202 H216 0.930 . S
C203 C200 1.344 . S
C203 C202 1.371 . S
C203 H217 0.931 . S
C204 C200 1.328 . S
C204 C205 1.433 . S
C204 H218 0.931 . S
C205 C201 1.323 . S
C205 C204 1.433 . S
C205 H219 0.933 . S
C206 Dy184 2.738 . S
C206 O189 1.255 . S
C206 O190 1.249 . S
C206 C200 1.516 . S
C207 O191 1.254 . S
C207 O192 1.257 . S
C208 O193 1.266 . S
C208 O194 1.236 . S
C209 C212 1.344 . S
C209 C213 1.328 . S
C209 C215 1.516 . S
C210 C211 1.304 . S
C210 C214 1.323 . S
C211 C210 1.304 . S
C211 C212 1.371 . S
C211 H220 0.930 . S
C212 C209 1.344 . S
C212 C211 1.371 . S
C212 H221 0.931 . S
C213 C209 1.328 . S
C213 C214 1.433 . S
C213 H222 0.931 . S
C214 C210 1.323 . S
C214 C213 1.433 . S
C214 H223 0.933 . S
C215 Dy185 2.738 . S
C215 O195 1.255 . S
C215 O196 1.249 . S
C215 C209 1.516 . S
H216 C202 0.930 . S
H217 C203 0.931 . S
H218 C204 0.931 . S
H219 C205 0.933 . S
H220 C211 0.930 . S
H221 C212 0.931 . S
H222 C213 0.931 . S
H223 C214 0.933 . S
Dy224 O227 2.307 . S
Dy224 O229 2.395 1_455 S
Dy224 O230 2.379 1_454 S
Dy224 O232 2.339 1_554 S
Dy224 O234 2.298 1_455 S
Dy224 O238 2.275 . S
Dy224 C246 2.738 1_454 S
Dy225 O228 2.298 . S
Dy225 O231 2.275 . S
Dy225 O233 2.307 1_455 S
Dy225 O235 2.395 . S
Dy225 O236 2.379 . S
Dy225 O239 2.339 1_455 S
Dy225 C255 2.738 . S
C226 O238 1.254 1_655 S
C226 O239 1.257 . S
O227 Dy224 2.307 . S
O227 C237 1.266 . S
O228 Dy225 2.298 . S
O228 C237 1.236 . S
O229 Dy224 2.395 1_655 S
O229 C246 1.255 1_554 S
O230 Dy224 2.379 1_656 S
O230 C246 1.249 . S
O231 Dy225 2.275 . S
O231 C247 1.254 1_554 S
O232 Dy224 2.339 1_556 S
O232 C247 1.257 . S
O233 Dy225 2.307 1_655 S
O233 C248 1.266 . S
O234 Dy224 2.298 1_655 S
O234 C248 1.236 . S
O235 Dy225 2.395 . S
O235 C255 1.255 . S
O236 Dy225 2.379 . S
O236 C255 1.249 . S
C237 O227 1.266 . S
C237 O228 1.236 . S
O238 Dy224 2.275 . S
O238 C226 1.254 1_455 S
O239 Dy225 2.339 1_655 S
O239 C226 1.257 . S
C240 C243 1.344 . S
C240 C244 1.328 . S
C240 C246 1.516 . S
C241 C242 1.304 . S
C241 C245 1.323 . S
C242 C241 1.304 . S
C242 C243 1.371 . S
C242 H256 0.930 . S
C243 C240 1.344 . S
C243 C242 1.371 . S
C243 H257 0.931 1_556 S
C244 C240 1.328 . S
C244 C245 1.433 . S
C244 H258 0.931 . S
C245 C241 1.323 . S
C245 C244 1.433 . S
C245 H259 0.933 . S
C246 Dy224 2.738 1_656 S
C246 O229 1.255 1_556 S
C246 O230 1.249 . S
C246 C240 1.516 . S
C247 O231 1.254 1_556 S
C247 O232 1.257 . S
C248 O233 1.266 . S
C248 O234 1.236 . S
C249 C252 1.344 . S
C249 C253 1.328 . S
C249 C255 1.516 . S
C250 C251 1.304 . S
C250 C254 1.323 . S
C251 C250 1.304 . S
C251 C252 1.371 . S
C251 H260 0.930 . S
C252 C249 1.344 . S
C252 C251 1.371 . S
C252 H261 0.931 . S
C253 C249 1.328 . S
C253 C254 1.433 . S
C253 H262 0.931 . S
C254 C250 1.323 . S
C254 C253 1.433 . S
C254 H263 0.933 . S
C255 Dy225 2.738 . S
C255 O235 1.255 . S
C255 O236 1.249 . S
C255 C249 1.516 . S
H256 C242 0.930 . S
H257 C243 0.931 1_554 S
H258 C244 0.931 . S
H259 C245 0.933 . S
H260 C251 0.930 . S
H261 C252 0.931 . S
H262 C253 0.931 . S
H263 C254 0.933 . S
H264 C276 0.930 . S
H265 C278 0.930 . S
H266 C279 0.930 . S
H267 C283 0.959 . S
H268 C283 0.959 . S
H269 C283 0.961 . S
H270 C284 0.960 . S
H271 C284 0.961 . S
H272 C284 0.959 . S
H273 C287 0.929 . S
H274 C288 0.931 . S
H275 C290 0.930 . S
C276 H264 0.930 . S
C276 C277 1.399 . S
C276 C281 1.399 . S
C277 C276 1.399 . S
C277 C278 1.376 . S
C278 H265 0.930 . S
C278 C277 1.376 . S
C278 C279 1.388 . S
C279 H266 0.930 . S
C279 C278 1.388 . S
C279 C280 1.390 . S
C280 C279 1.390 . S
C280 C281 1.394 . S
C280 C286 1.465 . S
C281 C276 1.399 . S
C281 C280 1.394 . S
C281 C282 1.516 . S
C282 C281 1.516 . S
C282 C283 1.502 . S
C282 C284 1.561 . S
C282 C285 1.526 . S
C283 H267 0.959 . S
C283 H268 0.959 . S
C283 H269 0.961 . S
C283 C282 1.502 . S
C284 H270 0.960 . S
C284 H271 0.961 . S
C284 H272 0.959 . S
C284 C282 1.561 . S
C285 C282 1.526 . S
C285 C286 1.396 . S
C285 C290 1.390 . S
C286 C280 1.465 . S
C286 C285 1.396 . S
C286 C287 1.399 . S
C287 H273 0.929 . S
C287 C286 1.399 . S
C287 C288 1.385 . S
C288 H274 0.931 . S
C288 C287 1.385 . S
C288 C289 1.389 . S
C289 C288 1.389 . S
C289 C290 1.387 . S
C290 H275 0.930 . S
C290 C285 1.390 . S
C290 C289 1.387 . S
H291 C303 0.930 . S
H292 C305 0.930 . S
H293 C306 0.930 . S
H294 C310 0.959 . S
H295 C310 0.959 . S
H296 C310 0.961 . S
H297 C311 0.960 . S
H298 C311 0.961 . S
H299 C311 0.959 . S
H300 C314 0.929 . S
H301 C315 0.931 . S
H302 C317 0.930 . S
C303 H291 0.930 . S
C303 C304 1.399 . S
C303 C308 1.399 . S
C304 C303 1.399 . S
C304 C305 1.376 . S
C305 H292 0.930 . S
C305 C304 1.376 . S
C305 C306 1.388 . S
C306 H293 0.930 . S
C306 C305 1.388 . S
C306 C307 1.390 . S
C307 C306 1.390 . S
C307 C308 1.394 . S
C307 C313 1.465 . S
C308 C303 1.399 . S
C308 C307 1.394 . S
C308 C309 1.516 . S
C309 C308 1.516 . S
C309 C310 1.502 . S
C309 C311 1.561 . S
C309 C312 1.526 . S
C310 H294 0.959 . S
C310 H295 0.959 . S
C310 H296 0.961 . S
C310 C309 1.502 . S
C311 H297 0.960 . S
C311 H298 0.961 . S
C311 H299 0.959 . S
C311 C309 1.561 . S
C312 C309 1.526 . S
C312 C313 1.396 . S
C312 C317 1.390 . S
C313 C307 1.465 . S
C313 C312 1.396 . S
C313 C314 1.399 . S
C314 H300 0.929 . S
C314 C313 1.399 . S
C314 C315 1.385 . S
C315 H301 0.931 . S
C315 C314 1.385 . S
C315 C316 1.389 . S
C316 C315 1.389 . S
C316 C317 1.387 . S
C317 H302 0.930 . S
C317 C312 1.390 . S
C317 C316 1.387 . S
H318 C330 0.930 . S
H319 C332 0.930 . S
H320 C333 0.930 . S
H321 C337 0.959 . S
H322 C337 0.959 . S
H323 C337 0.961 . S
H324 C338 0.960 . S
H325 C338 0.961 . S
H326 C338 0.959 . S
H327 C341 0.929 . S
H328 C342 0.931 . S
H329 C344 0.930 . S
C330 H318 0.930 . S
C330 C331 1.399 . S
C330 C335 1.399 . S
C331 C330 1.399 . S
C331 C332 1.376 . S
C332 H319 0.930 . S
C332 C331 1.376 . S
C332 C333 1.388 . S
C333 H320 0.930 . S
C333 C332 1.388 . S
C333 C334 1.390 . S
C334 C333 1.390 . S
C334 C335 1.394 . S
C334 C340 1.465 . S
C335 C330 1.399 . S
C335 C334 1.394 . S
C335 C336 1.516 . S
C336 C335 1.516 . S
C336 C337 1.502 . S
C336 C338 1.561 . S
C336 C339 1.526 . S
C337 H321 0.959 . S
C337 H322 0.959 . S
C337 H323 0.961 . S
C337 C336 1.502 . S
C338 H324 0.960 . S
C338 H325 0.961 . S
C338 H326 0.959 . S
C338 C336 1.561 . S
C339 C336 1.526 . S
C339 C340 1.396 . S
C339 C344 1.390 . S
C340 C334 1.465 . S
C340 C339 1.396 . S
C340 C341 1.399 . S
C341 H327 0.929 . S
C341 C340 1.399 . S
C341 C342 1.385 . S
C342 H328 0.931 . S
C342 C341 1.385 . S
C342 C343 1.389 . S
C343 C342 1.389 . S
C343 C344 1.387 . S
C344 H329 0.930 . S
C344 C339 1.390 . S
C344 C343 1.387 . S
H345 C357 0.930 . S
H346 C359 0.930 . S
H347 C360 0.930 . S
H348 C364 0.959 . S
H349 C364 0.959 . S
H350 C364 0.961 . S
H351 C365 0.960 . S
H352 C365 0.961 . S
H353 C365 0.959 . S
H354 C368 0.929 . S
H355 C369 0.931 . S
H356 C371 0.930 . S
C357 H345 0.930 . S
C357 C358 1.399 . S
C357 C362 1.399 . S
C358 C357 1.399 . S
C358 C359 1.376 . S
C359 H346 0.930 . S
C359 C358 1.376 . S
C359 C360 1.388 . S
C360 H347 0.930 . S
C360 C359 1.388 . S
C360 C361 1.390 . S
C361 C360 1.390 . S
C361 C362 1.394 . S
C361 C367 1.465 . S
C362 C357 1.399 . S
C362 C361 1.394 . S
C362 C363 1.516 . S
C363 C362 1.516 . S
C363 C364 1.502 1_655 S
C363 C365 1.561 . S
C363 C366 1.526 . S
C364 H348 0.959 . S
C364 H349 0.959 . S
C364 H350 0.961 . S
C364 C363 1.502 1_455 S
C365 H351 0.960 . S
C365 H352 0.961 . S
C365 H353 0.959 . S
C365 C363 1.561 . S
C366 C363 1.526 . S
C366 C367 1.396 . S
C366 C371 1.390 . S
C367 C361 1.465 . S
C367 C366 1.396 . S
C367 C368 1.399 . S
C368 H354 0.929 . S
C368 C367 1.399 . S
C368 C369 1.385 . S
C369 H355 0.931 . S
C369 C368 1.385 . S
C369 C370 1.389 . S
C370 C369 1.389 . S
C370 C371 1.387 . S
C371 H356 0.930 . S
C371 C366 1.390 . S
C371 C370 1.387 . S
H372 C384 0.930 . S
H373 C386 0.930 . S
H374 C387 0.930 . S
H375 C391 0.959 . S
H376 C391 0.959 . S
H377 C391 0.961 . S
H378 C392 0.960 . S
H379 C392 0.961 . S
H380 C392 0.959 . S
H381 C395 0.929 . S
H382 C396 0.931 . S
H383 C398 0.930 . S
C384 H372 0.930 . S
C384 C385 1.399 . S
C384 C389 1.399 . S
C385 C384 1.399 . S
C385 C386 1.376 . S
C386 H373 0.930 . S
C386 C385 1.376 . S
C386 C387 1.388 . S
C387 H374 0.930 . S
C387 C386 1.388 . S
C387 C388 1.390 . S
C388 C387 1.390 . S
C388 C389 1.394 . S
C388 C394 1.465 . S
C389 C384 1.399 . S
C389 C388 1.394 . S
C389 C390 1.516 . S
C390 C389 1.516 . S
C390 C391 1.502 . S
C390 C392 1.561 . S
C390 C393 1.526 . S
C391 H375 0.959 . S
C391 H376 0.959 . S
C391 H377 0.961 . S
C391 C390 1.502 . S
C392 H378 0.960 . S
C392 H379 0.961 . S
C392 H380 0.959 . S
C392 C390 1.561 . S
C393 C390 1.526 . S
C393 C394 1.396 . S
C393 C398 1.390 . S
C394 C388 1.465 . S
C394 C393 1.396 . S
C394 C395 1.399 . S
C395 H381 0.929 . S
C395 C394 1.399 . S
C395 C396 1.385 . S
C396 H382 0.931 . S
C396 C395 1.385 . S
C396 C397 1.389 . S
C397 C396 1.389 . S
C397 C398 1.387 . S
C398 H383 0.930 . S
C398 C393 1.390 . S
C398 C397 1.387 . S
H399 C411 0.930 . S
H400 C413 0.930 . S
H401 C414 0.930 . S
H402 C418 0.959 . S
H403 C418 0.959 . S
H404 C418 0.961 . S
H405 C419 0.960 . S
H406 C419 0.961 . S
H407 C419 0.959 . S
H408 C422 0.929 . S
H409 C423 0.931 . S
H410 C425 0.930 . S
C411 H399 0.930 . S
C411 C412 1.399 . S
C411 C416 1.399 . S
C412 C411 1.399 . S
C412 C413 1.376 . S
C413 H400 0.930 . S
C413 C412 1.376 . S
C413 C414 1.388 . S
C414 H401 0.930 . S
C414 C413 1.388 . S
C414 C415 1.390 . S
C415 C414 1.390 . S
C415 C416 1.394 . S
C415 C421 1.465 . S
C416 C411 1.399 . S
C416 C415 1.394 . S
C416 C417 1.516 . S
C417 C416 1.516 . S
C417 C418 1.502 . S
C417 C419 1.561 . S
C417 C420 1.526 . S
C418 H402 0.959 . S
C418 H403 0.959 . S
C418 H404 0.961 . S
C418 C417 1.502 . S
C419 H405 0.960 . S
C419 H406 0.961 . S
C419 H407 0.959 . S
C419 C417 1.561 . S
C420 C417 1.526 . S
C420 C421 1.396 . S
C420 C425 1.390 . S
C421 C415 1.465 . S
C421 C420 1.396 . S
C421 C422 1.399 . S
C422 H408 0.929 . S
C422 C421 1.399 . S
C422 C423 1.385 . S
C423 H409 0.931 . S
C423 C422 1.385 . S
C423 C424 1.389 . S
C424 C423 1.389 . S
C424 C425 1.387 . S
C425 H410 0.930 . S
C425 C420 1.390 . S
C425 C424 1.387 . S
H426 C438 0.930 . S
H427 C440 0.930 . S
H428 C441 0.930 . S
H429 C445 0.959 . S
H430 C445 0.959 . S
H431 C445 0.961 . S
H432 C446 0.960 . S
H433 C446 0.961 . S
H434 C446 0.959 . S
H435 C449 0.929 . S
H436 C450 0.931 . S
H437 C452 0.930 . S
C438 H426 0.930 . S
C438 C439 1.399 . S
C438 C443 1.399 . S
C439 C438 1.399 . S
C439 C440 1.376 . S
C440 H427 0.930 . S
C440 C439 1.376 . S
C440 C441 1.388 . S
C441 H428 0.930 . S
C441 C440 1.388 . S
C441 C442 1.390 . S
C442 C441 1.390 . S
C442 C443 1.394 . S
C442 C448 1.465 . S
C443 C438 1.399 . S
C443 C442 1.394 . S
C443 C444 1.516 . S
C444 C443 1.516 . S
C444 C445 1.502 . S
C444 C446 1.561 . S
C444 C447 1.526 . S
C445 H429 0.959 . S
C445 H430 0.959 . S
C445 H431 0.961 . S
C445 C444 1.502 . S
C446 H432 0.960 . S
C446 H433 0.961 . S
C446 H434 0.959 . S
C446 C444 1.561 . S
C447 C444 1.526 . S
C447 C448 1.396 . S
C447 C452 1.390 . S
C448 C442 1.465 . S
C448 C447 1.396 . S
C448 C449 1.399 . S
C449 H435 0.929 . S
C449 C448 1.399 . S
C449 C450 1.385 1_556 S
C450 H436 0.931 . S
C450 C449 1.385 1_554 S
C450 C451 1.389 . S
C451 C450 1.389 . S
C451 C452 1.387 1_554 S
C452 H437 0.930 . S
C452 C447 1.390 . S
C452 C451 1.387 1_556 S
H453 C465 0.930 . S
H454 C467 0.930 . S
H455 C468 0.930 . S
H456 C472 0.959 . S
H457 C472 0.959 . S
H458 C472 0.961 . S
H459 C473 0.960 . S
H460 C473 0.961 . S
H461 C473 0.959 . S
H462 C476 0.929 . S
H463 C477 0.931 . S
H464 C479 0.930 . S
C465 H453 0.930 . S
C465 C466 1.399 . S
C465 C470 1.399 . S
C466 C465 1.399 . S
C466 C467 1.376 . S
C467 H454 0.930 . S
C467 C466 1.376 . S
C467 C468 1.388 . S
C468 H455 0.930 . S
C468 C467 1.388 . S
C468 C469 1.390 . S
C469 C468 1.390 . S
C469 C470 1.394 . S
C469 C475 1.465 . S
C470 C465 1.399 . S
C470 C469 1.394 . S
C470 C471 1.516 . S
C471 C470 1.516 . S
C471 C472 1.502 . S
C471 C473 1.561 . S
C471 C474 1.526 . S
C472 H456 0.959 . S
C472 H457 0.959 . S
C472 H458 0.961 . S
C472 C471 1.502 . S
C473 H459 0.960 . S
C473 H460 0.961 . S
C473 H461 0.959 . S
C473 C471 1.561 . S
C474 C471 1.526 . S
C474 C475 1.396 . S
C474 C479 1.390 . S
C475 C469 1.465 . S
C475 C474 1.396 . S
C475 C476 1.399 . S
C476 H462 0.929 . S
C476 C475 1.399 . S
C476 C477 1.385 . S
C477 H463 0.931 . S
C477 C476 1.385 . S
C477 C478 1.389 . S
C478 C477 1.389 . S
C478 C479 1.387 . S
C479 H464 0.930 . S
C479 C474 1.390 . S
C479 C478 1.387 . S
H480 C492 0.930 . S
H481 C494 0.930 . S
H482 C495 0.930 . S
H483 C499 0.959 . S
H484 C499 0.959 . S
H485 C499 0.961 . S
H486 C500 0.960 . S
H487 C500 0.961 . S
H488 C500 0.959 . S
H489 C503 0.929 . S
H490 C504 0.931 . S
H491 C506 0.930 . S
C492 H480 0.930 . S
C492 C493 1.399 . S
C492 C497 1.399 . S
C493 C492 1.399 . S
C493 C494 1.376 . S
C494 H481 0.930 . S
C494 C493 1.376 . S
C494 C495 1.388 . S
C495 H482 0.930 . S
C495 C494 1.388 . S
C495 C496 1.390 . S
C496 C495 1.390 . S
C496 C497 1.394 . S
C496 C502 1.465 . S
C497 C492 1.399 . S
C497 C496 1.394 . S
C497 C498 1.516 . S
C498 C497 1.516 . S
C498 C499 1.502 . S
C498 C500 1.561 . S
C498 C501 1.526 . S
C499 H483 0.959 . S
C499 H484 0.959 . S
C499 H485 0.961 . S
C499 C498 1.502 . S
C500 H486 0.960 . S
C500 H487 0.961 . S
C500 H488 0.959 . S
C500 C498 1.561 . S
C501 C498 1.526 . S
C501 C502 1.396 . S
C501 C506 1.390 . S
C502 C496 1.465 . S
C502 C501 1.396 . S
C502 C503 1.399 . S
C503 H489 0.929 . S
C503 C502 1.399 . S
C503 C504 1.385 . S
C504 H490 0.931 . S
C504 C503 1.385 . S
C504 C505 1.389 . S
C505 C504 1.389 . S
C505 C506 1.387 . S
C506 H491 0.930 . S
C506 C501 1.390 . S
C506 C505 1.387 . S
H507 C519 0.930 . S
H508 C521 0.930 . S
H509 C522 0.930 . S
H510 C526 0.959 . S
H511 C526 0.959 . S
H512 C526 0.961 . S
H513 C527 0.960 . S
H514 C527 0.961 . S
H515 C527 0.959 . S
H516 C530 0.929 . S
H517 C531 0.931 . S
H518 C533 0.930 . S
C519 H507 0.930 . S
C519 C520 1.399 . S
C519 C524 1.399 . S
C520 C519 1.399 . S
C520 C521 1.376 . S
C521 H508 0.930 . S
C521 C520 1.376 . S
C521 C522 1.388 . S
C522 H509 0.930 . S
C522 C521 1.388 . S
C522 C523 1.390 . S
C523 C522 1.390 . S
C523 C524 1.394 . S
C523 C529 1.465 . S
C524 C519 1.399 . S
C524 C523 1.394 . S
C524 C525 1.516 . S
C525 C524 1.516 . S
C525 C526 1.502 . S
C525 C527 1.561 . S
C525 C528 1.526 . S
C526 H510 0.959 . S
C526 H511 0.959 . S
C526 H512 0.961 . S
C526 C525 1.502 . S
C527 H513 0.960 . S
C527 H514 0.961 . S
C527 H515 0.959 . S
C527 C525 1.561 . S
C528 C525 1.526 . S
C528 C529 1.396 . S
C528 C533 1.390 . S
C529 C523 1.465 . S
C529 C528 1.396 . S
C529 C530 1.399 . S
C530 H516 0.929 . S
C530 C529 1.399 . S
C530 C531 1.385 . S
C531 H517 0.931 . S
C531 C530 1.385 . S
C531 C532 1.389 . S
C532 C531 1.389 . S
C532 C533 1.387 . S
C533 H518 0.930 . S
C533 C528 1.390 . S
C533 C532 1.387 . S
H534 C546 0.930 . S
H535 C548 0.930 . S
H536 C549 0.930 . S
H537 C553 0.959 . S
H538 C553 0.959 . S
H539 C553 0.961 . S
H540 C554 0.960 . S
H541 C554 0.961 . S
H542 C554 0.959 . S
H543 C557 0.929 . S
H544 C558 0.925 1_455 S
H545 C560 0.930 . S
C546 H534 0.930 . S
C546 C547 1.399 . S
C546 C551 1.399 . S
C547 C546 1.399 . S
C547 C548 1.376 . S
C548 H535 0.930 . S
C548 C547 1.376 . S
C548 C549 1.388 . S
C549 H536 0.930 . S
C549 C548 1.388 . S
C549 C550 1.390 . S
C550 C549 1.390 . S
C550 C551 1.394 . S
C550 C556 1.465 . S
C551 C546 1.399 . S
C551 C550 1.394 . S
C551 C552 1.516 . S
C552 C551 1.516 . S
C552 C553 1.502 . S
C552 C554 1.561 . S
C552 C555 1.526 . S
C553 H537 0.959 . S
C553 H538 0.959 . S
C553 H539 0.961 . S
C553 C552 1.502 . S
C554 H540 0.960 . S
C554 H541 0.961 . S
C554 H542 0.959 . S
C554 C552 1.561 . S
C555 C552 1.526 . S
C555 C556 1.396 . S
C555 C560 1.390 . S
C556 C550 1.465 . S
C556 C555 1.396 . S
C556 C557 1.399 . S
C557 H543 0.929 . S
C557 C556 1.399 . S
C557 C558 1.385 . S
C558 H544 0.925 1_655 S
C558 C557 1.385 . S
C558 C559 1.389 . S
C559 C558 1.389 . S
C559 C560 1.387 . S
C560 H545 0.930 . S
C560 C555 1.390 . S
C560 C559 1.387 . S
H561 C573 0.930 . S
H562 C575 0.930 . S
H563 C576 0.930 . S
H564 C580 0.959 . S
H565 C580 0.959 . S
H566 C580 0.961 . S
H567 C581 0.960 . S
H568 C581 0.961 . S
H569 C581 0.959 . S
H570 C584 0.929 . S
H571 C585 0.931 . S
H572 C587 0.930 . S
C573 H561 0.930 . S
C573 C574 1.399 . S
C573 C578 1.399 . S
C574 C573 1.399 . S
C574 C575 1.376 . S
C575 H562 0.930 . S
C575 C574 1.376 . S
C575 C576 1.388 . S
C576 H563 0.930 . S
C576 C575 1.388 . S
C576 C577 1.390 . S
C577 C576 1.390 . S
C577 C578 1.394 . S
C577 C583 1.465 . S
C578 C573 1.399 . S
C578 C577 1.394 . S
C578 C579 1.516 . S
C579 C578 1.516 . S
C579 C580 1.502 . S
C579 C581 1.561 . S
C579 C582 1.526 . S
C580 H564 0.959 . S
C580 H565 0.959 . S
C580 H566 0.961 . S
C580 C579 1.502 . S
C581 H567 0.960 . S
C581 H568 0.961 . S
C581 H569 0.959 . S
C581 C579 1.561 . S
C582 C579 1.526 . S
C582 C583 1.396 . S
C582 C587 1.390 . S
C583 C577 1.465 . S
C583 C582 1.396 . S
C583 C584 1.399 . S
C584 H570 0.929 . S
C584 C583 1.399 . S
C584 C585 1.385 . S
C585 H571 0.931 . S
C585 C584 1.385 . S
C585 C586 1.389 . S
C586 C585 1.389 . S
C586 C587 1.387 . S
C587 H572 0.930 . S
C587 C582 1.390 . S
C587 C586 1.387 . S
H588 C600 0.930 . S
H589 C602 0.930 . S
H590 C603 0.930 . S
H591 C607 0.959 . S
H592 C607 0.959 . S
H593 C607 0.961 . S
H594 C608 0.960 . S
H595 C608 0.961 . S
H596 C608 0.959 . S
H597 C611 0.929 . S
H598 C612 0.931 . S
H599 C614 0.930 . S
C600 H588 0.930 . S
C600 C601 1.399 . S
C600 C605 1.399 . S
C601 C600 1.399 . S
C601 C602 1.376 . S
C602 H589 0.930 . S
C602 C601 1.376 . S
C602 C603 1.388 . S
C603 H590 0.930 . S
C603 C602 1.388 . S
C603 C604 1.390 . S
C604 C603 1.390 . S
C604 C605 1.394 . S
C604 C610 1.465 . S
C605 C600 1.399 . S
C605 C604 1.394 . S
C605 C606 1.516 . S
C606 C605 1.516 . S
C606 C607 1.502 . S
C606 C608 1.561 . S
C606 C609 1.526 . S
C607 H591 0.959 . S
C607 H592 0.959 . S
C607 H593 0.961 . S
C607 C606 1.502 . S
C608 H594 0.960 . S
C608 H595 0.961 . S
C608 H596 0.959 . S
C608 C606 1.561 . S
C609 C606 1.526 . S
C609 C610 1.396 . S
C609 C614 1.390 . S
C610 C604 1.465 . S
C610 C609 1.396 . S
C610 C611 1.399 . S
C611 H597 0.929 . S
C611 C610 1.399 . S
C611 C612 1.385 . S
C612 H598 0.931 . S
C612 C611 1.385 . S
C612 C613 1.389 . S
C613 C612 1.389 . S
C613 C614 1.387 . S
C614 H599 0.930 . S
C614 C609 1.390 . S
C614 C613 1.387 . S
H615 C627 0.930 . S
H616 C629 0.930 . S
H617 C630 0.930 . S
H618 C634 0.959 . S
H619 C634 0.959 . S
H620 C634 0.961 . S
H621 C635 0.960 . S
H622 C635 0.961 . S
H623 C635 0.959 . S
H624 C638 0.929 . S
H625 C639 0.931 . S
H626 C641 0.930 . S
C627 H615 0.930 . S
C627 C628 1.399 . S
C627 C632 1.399 . S
C628 C627 1.399 . S
C628 C629 1.376 . S
C629 H616 0.930 . S
C629 C628 1.376 . S
C629 C630 1.388 . S
C630 H617 0.930 . S
C630 C629 1.388 . S
C630 C631 1.390 . S
C631 C630 1.390 . S
C631 C632 1.394 . S
C631 C637 1.465 . S
C632 C627 1.399 . S
C632 C631 1.394 . S
C632 C633 1.516 . S
C633 C632 1.516 . S
C633 C634 1.502 . S
C633 C635 1.561 . S
C633 C636 1.526 . S
C634 H618 0.959 . S
C634 H619 0.959 . S
C634 H620 0.961 . S
C634 C633 1.502 . S
C635 H621 0.960 . S
C635 H622 0.961 . S
C635 H623 0.959 . S
C635 C633 1.561 . S
C636 C633 1.526 . S
C636 C637 1.396 . S
C636 C641 1.390 . S
C637 C631 1.465 . S
C637 C636 1.396 . S
C637 C638 1.399 . S
C638 H624 0.929 . S
C638 C637 1.399 . S
C638 C639 1.385 . S
C639 H625 0.931 . S
C639 C638 1.385 . S
C639 C640 1.389 . S
C640 C639 1.389 . S
C640 C641 1.387 . S
C641 H626 0.930 . S
C641 C636 1.390 . S
C641 C640 1.387 . S
H642 C654 0.930 . S
H643 C656 0.930 . S
H644 C657 0.930 . S
H645 C661 0.959 . S
H646 C661 0.959 . S
H647 C661 0.961 . S
H648 C662 0.960 . S
H649 C662 0.961 . S
H650 C662 0.959 . S
H651 C665 0.929 . S
H652 C666 0.931 . S
H653 C668 0.930 . S
C654 H642 0.930 . S
C654 C655 1.399 . S
C654 C659 1.399 . S
C655 C654 1.399 . S
C655 C656 1.376 . S
C656 H643 0.930 . S
C656 C655 1.376 . S
C656 C657 1.388 . S
C657 H644 0.930 . S
C657 C656 1.388 . S
C657 C658 1.390 . S
C658 C657 1.390 . S
C658 C659 1.394 . S
C658 C664 1.465 . S
C659 C654 1.399 . S
C659 C658 1.394 . S
C659 C660 1.516 . S
C660 C659 1.516 . S
C660 C661 1.502 . S
C660 C662 1.561 . S
C660 C663 1.526 . S
C661 H645 0.959 . S
C661 H646 0.959 . S
C661 H647 0.961 . S
C661 C660 1.502 . S
C662 H648 0.960 . S
C662 H649 0.961 . S
C662 H650 0.959 . S
C662 C660 1.561 . S
C663 C660 1.526 . S
C663 C664 1.396 . S
C663 C668 1.390 . S
C664 C658 1.465 . S
C664 C663 1.396 . S
C664 C665 1.399 . S
C665 H651 0.929 . S
C665 C664 1.399 . S
C665 C666 1.385 . S
C666 H652 0.931 . S
C666 C665 1.385 . S
C666 C667 1.389 . S
C667 C666 1.389 . S
C667 C668 1.387 . S
C668 H653 0.930 . S
C668 C663 1.390 . S
C668 C667 1.387 . S
H669 C681 0.930 . S
H670 C683 0.930 . S
H671 C684 0.930 . S
H672 C688 0.959 . S
H673 C688 0.959 . S
H674 C688 0.961 . S
H675 C689 0.960 . S
H676 C689 0.961 . S
H677 C689 0.959 . S
H678 C692 0.929 . S
H679 C693 0.931 . S
H680 C695 0.930 . S
C681 H669 0.930 . S
C681 C682 1.399 . S
C681 C686 1.399 . S
C682 C681 1.399 . S
C682 C683 1.376 . S
C683 H670 0.930 . S
C683 C682 1.376 . S
C683 C684 1.388 . S
C684 H671 0.930 . S
C684 C683 1.388 . S
C684 C685 1.390 . S
C685 C684 1.390 . S
C685 C686 1.394 . S
C685 C691 1.465 . S
C686 C681 1.399 . S
C686 C685 1.394 . S
C686 C687 1.516 . S
C687 C686 1.516 . S
C687 C688 1.502 . S
C687 C689 1.561 . S
C687 C690 1.526 . S
C688 H672 0.959 . S
C688 H673 0.959 . S
C688 H674 0.961 . S
C688 C687 1.502 . S
C689 H675 0.960 . S
C689 H676 0.961 . S
C689 H677 0.959 . S
C689 C687 1.561 . S
C690 C687 1.526 . S
C690 C691 1.396 . S
C690 C695 1.390 . S
C691 C685 1.465 . S
C691 C690 1.396 . S
C691 C692 1.399 . S
C692 H678 0.929 . S
C692 C691 1.399 . S
C692 C693 1.385 . S
C693 H679 0.931 . S
C693 C692 1.385 . S
C693 C694 1.389 . S
C694 C693 1.389 . S
C694 C695 1.387 . S
C695 H680 0.930 . S
C695 C690 1.390 . S
C695 C694 1.387 . S
H696 C708 0.930 . S
H697 C710 0.930 . S
H698 C711 0.930 . S
H699 C715 0.959 . S
H700 C715 0.959 . S
H701 C715 0.961 . S
H702 C716 0.960 . S
H703 C716 0.961 . S
H704 C716 0.959 . S
H705 C719 0.929 . S
H706 C720 0.931 . S
H707 C722 0.930 . S
C708 H696 0.930 . S
C708 C709 1.399 . S
C708 C713 1.399 . S
C709 C708 1.399 . S
C709 C710 1.376 . S
C710 H697 0.930 . S
C710 C709 1.376 . S
C710 C711 1.388 . S
C711 H698 0.930 . S
C711 C710 1.388 . S
C711 C712 1.390 . S
C712 C711 1.390 . S
C712 C713 1.394 . S
C712 C718 1.465 . S
C713 C708 1.399 . S
C713 C712 1.394 . S
C713 C714 1.516 . S
C714 C713 1.516 . S
C714 C715 1.502 . S
C714 C716 1.561 . S
C714 C717 1.526 . S
C715 H699 0.959 . S
C715 H700 0.959 . S
C715 H701 0.961 . S
C715 C714 1.502 . S
C716 H702 0.960 . S
C716 H703 0.961 . S
C716 H704 0.959 . S
C716 C714 1.561 . S
C717 C714 1.526 . S
C717 C718 1.396 . S
C717 C722 1.390 . S
C718 C712 1.465 . S
C718 C717 1.396 . S
C718 C719 1.399 . S
C719 H705 0.929 . S
C719 C718 1.399 . S
C719 C720 1.385 . S
C720 H706 0.931 . S
C720 C719 1.385 . S
C720 C721 1.389 . S
C721 C720 1.389 . S
C721 C722 1.387 . S
C722 H707 0.930 . S
C722 C717 1.390 . S
C722 C721 1.387 . S
H723 C735 0.930 . S
H724 C737 0.930 . S
H725 C738 0.930 . S
H726 C742 0.959 . S
H727 C742 0.959 . S
H728 C742 0.961 . S
H729 C743 0.960 . S
H730 C743 0.961 . S
H731 C743 0.959 . S
H732 C746 0.929 . S
H733 C747 0.931 . S
H734 C749 0.930 1_455 S
C735 H723 0.930 . S
C735 C736 1.399 . S
C735 C740 1.399 . S
C736 C735 1.399 . S
C736 C737 1.376 . S
C737 H724 0.930 . S
C737 C736 1.376 . S
C737 C738 1.388 . S
C738 H725 0.930 . S
C738 C737 1.388 . S
C738 C739 1.390 . S
C739 C738 1.390 . S
C739 C740 1.394 . S
C739 C745 1.465 . S
C740 C735 1.399 . S
C740 C739 1.394 . S
C740 C741 1.516 . S
C741 C740 1.516 . S
C741 C742 1.502 1_655 S
C741 C743 1.561 . S
C741 C744 1.526 . S
C742 H726 0.959 . S
C742 H727 0.959 . S
C742 H728 0.961 . S
C742 C741 1.502 1_455 S
C743 H729 0.960 . S
C743 H730 0.961 . S
C743 H731 0.959 . S
C743 C741 1.561 . S
C744 C741 1.526 . S
C744 C745 1.396 . S
C744 C749 1.390 . S
C745 C739 1.465 . S
C745 C744 1.396 . S
C745 C746 1.399 . S
C746 H732 0.929 . S
C746 C745 1.399 . S
C746 C747 1.385 . S
C747 H733 0.931 . S
C747 C746 1.385 . S
C747 C748 1.389 . S
C748 C747 1.389 . S
C748 C749 1.387 . S
C749 H734 0.930 1_655 S
C749 C744 1.390 . S
C749 C748 1.387 . S
H750 C762 0.930 . S
H751 C764 0.930 . S
H752 C765 0.930 . S
H753 C769 0.959 . S
H754 C769 0.959 . S
H755 C769 0.961 . S
H756 C770 0.960 . S
H757 C770 0.961 . S
H758 C770 0.959 . S
H759 C773 0.929 . S
H760 C774 0.931 . S
H761 C776 0.930 . S
C762 H750 0.930 . S
C762 C763 1.399 . S
C762 C767 1.399 . S
C763 C762 1.399 . S
C763 C764 1.376 . S
C764 H751 0.930 . S
C764 C763 1.376 . S
C764 C765 1.388 . S
C765 H752 0.930 . S
C765 C764 1.388 . S
C765 C766 1.390 . S
C766 C765 1.390 . S
C766 C767 1.394 . S
C766 C772 1.465 . S
C767 C762 1.399 . S
C767 C766 1.394 . S
C767 C768 1.516 . S
C768 C767 1.516 . S
C768 C769 1.502 . S
C768 C770 1.561 . S
C768 C771 1.526 . S
C769 H753 0.959 . S
C769 H754 0.959 . S
C769 H755 0.961 . S
C769 C768 1.502 . S
C770 H756 0.960 . S
C770 H757 0.961 . S
C770 H758 0.959 . S
C770 C768 1.561 . S
C771 C768 1.526 . S
C771 C772 1.396 . S
C771 C776 1.390 . S
C772 C766 1.465 . S
C772 C771 1.396 . S
C772 C773 1.399 . S
C773 H759 0.929 . S
C773 C772 1.399 . S
C773 C774 1.385 . S
C774 H760 0.931 . S
C774 C773 1.385 . S
C774 C775 1.389 . S
C775 C774 1.389 . S
C775 C776 1.387 . S
C776 H761 0.930 . S
C776 C771 1.390 . S
C776 C775 1.387 . S
H777 C789 0.930 . S
H778 C791 0.930 . S
H779 C792 0.930 . S
H780 C796 0.959 . S
H781 C796 0.959 . S
H782 C796 0.961 . S
H783 C797 0.960 . S
H784 C797 0.961 . S
H785 C797 0.959 . S
H786 C800 0.929 . S
H787 C801 0.931 . S
H788 C803 0.930 . S
C789 H777 0.930 . S
C789 C790 1.399 . S
C789 C794 1.399 . S
C790 C789 1.399 . S
C790 C791 1.376 . S
C791 H778 0.930 . S
C791 C790 1.376 . S
C791 C792 1.388 . S
C792 H779 0.930 . S
C792 C791 1.388 . S
C792 C793 1.390 . S
C793 C792 1.390 . S
C793 C794 1.394 . S
C793 C799 1.465 . S
C794 C789 1.399 . S
C794 C793 1.394 . S
C794 C795 1.516 . S
C795 C794 1.516 . S
C795 C796 1.502 . S
C795 C797 1.561 . S
C795 C798 1.526 . S
C796 H780 0.959 . S
C796 H781 0.959 . S
C796 H782 0.961 . S
C796 C795 1.502 . S
C797 H783 0.960 . S
C797 H784 0.961 . S
C797 H785 0.959 . S
C797 C795 1.561 . S
C798 C795 1.526 . S
C798 C799 1.396 . S
C798 C803 1.390 . S
C799 C793 1.465 . S
C799 C798 1.396 . S
C799 C800 1.399 . S
C800 H786 0.929 . S
C800 C799 1.399 . S
C800 C801 1.385 . S
C801 H787 0.931 . S
C801 C800 1.385 . S
C801 C802 1.389 . S
C802 C801 1.389 . S
C802 C803 1.387 . S
C803 H788 0.930 . S
C803 C798 1.390 . S
C803 C802 1.387 . S
H804 C816 0.930 . S
H805 C818 0.930 . S
H806 C819 0.930 . S
H807 C823 0.959 . S
H808 C823 0.959 . S
H809 C823 0.961 . S
H810 C824 0.960 . S
H811 C824 0.961 . S
H812 C824 0.959 . S
H813 C827 0.929 . S
H814 C828 0.931 . S
H815 C830 0.930 . S
C816 H804 0.930 . S
C816 C817 1.399 . S
C816 C821 1.399 . S
C817 C816 1.399 . S
C817 C818 1.376 . S
C818 H805 0.930 . S
C818 C817 1.376 . S
C818 C819 1.388 . S
C819 H806 0.930 . S
C819 C818 1.388 . S
C819 C820 1.390 . S
C820 C819 1.390 . S
C820 C821 1.394 . S
C820 C826 1.465 . S
C821 C816 1.399 . S
C821 C820 1.394 . S
C821 C822 1.516 . S
C822 C821 1.516 . S
C822 C823 1.502 . S
C822 C824 1.561 . S
C822 C825 1.526 . S
C823 H807 0.959 . S
C823 H808 0.959 . S
C823 H809 0.961 . S
C823 C822 1.502 . S
C824 H810 0.960 . S
C824 H811 0.961 . S
C824 H812 0.959 . S
C824 C822 1.561 . S
C825 C822 1.526 . S
C825 C826 1.396 . S
C825 C830 1.390 . S
C826 C820 1.465 . S
C826 C825 1.396 . S
C826 C827 1.399 . S
C827 H813 0.929 . S
C827 C826 1.399 . S
C827 C828 1.385 . S
C828 H814 0.931 . S
C828 C827 1.385 . S
C828 C829 1.389 . S
C829 C828 1.389 . S
C829 C830 1.387 . S
C830 H815 0.930 . S
C830 C825 1.390 . S
C830 C829 1.387 . S
H831 C843 0.930 . S
H832 C845 0.930 . S
H833 C846 0.930 . S
H834 C850 0.959 . S
H835 C850 0.959 . S
H836 C850 0.961 . S
H837 C851 0.960 . S
H838 C851 0.961 . S
H839 C851 0.959 . S
H840 C854 0.929 . S
H841 C855 0.931 . S
H842 C857 0.930 . S
C843 H831 0.930 . S
C843 C844 1.399 . S
C843 C848 1.399 . S
C844 C843 1.399 . S
C844 C845 1.376 . S
C845 H832 0.930 . S
C845 C844 1.376 . S
C845 C846 1.388 . S
C846 H833 0.930 . S
C846 C845 1.388 . S
C846 C847 1.390 . S
C847 C846 1.390 . S
C847 C848 1.394 . S
C847 C853 1.465 . S
C848 C843 1.399 . S
C848 C847 1.394 . S
C848 C849 1.516 . S
C849 C848 1.516 . S
C849 C850 1.502 . S
C849 C851 1.561 . S
C849 C852 1.526 . S
C850 H834 0.959 . S
C850 H835 0.959 . S
C850 H836 0.961 . S
C850 C849 1.502 . S
C851 H837 0.960 . S
C851 H838 0.961 . S
C851 H839 0.959 . S
C851 C849 1.561 . S
C852 C849 1.526 . S
C852 C853 1.396 . S
C852 C857 1.390 . S
C853 C847 1.465 . S
C853 C852 1.396 . S
C853 C854 1.399 . S
C854 H840 0.929 . S
C854 C853 1.399 . S
C854 C855 1.385 . S
C855 H841 0.931 . S
C855 C854 1.385 . S
C855 C856 1.389 . S
C856 C855 1.389 . S
C856 C857 1.387 . S
C857 H842 0.930 . S
C857 C852 1.390 . S
C857 C856 1.387 . S
H858 C870 0.930 . S
H859 C872 0.930 . S
H860 C873 0.930 . S
H861 C877 0.959 . S
H862 C877 0.959 . S
H863 C877 0.961 . S
H864 C878 0.960 . S
H865 C878 0.961 . S
H866 C878 0.959 . S
H867 C881 0.929 . S
H868 C882 0.931 . S
H869 C884 0.930 . S
C870 H858 0.930 . S
C870 C871 1.399 . S
C870 C875 1.399 . S
C871 C870 1.399 . S
C871 C872 1.376 . S
C872 H859 0.930 . S
C872 C871 1.376 . S
C872 C873 1.388 . S
C873 H860 0.930 . S
C873 C872 1.388 . S
C873 C874 1.390 . S
C874 C873 1.390 . S
C874 C875 1.394 . S
C874 C880 1.465 . S
C875 C870 1.399 . S
C875 C874 1.394 . S
C875 C876 1.516 . S
C876 C875 1.516 . S
C876 C877 1.502 . S
C876 C878 1.561 . S
C876 C879 1.526 . S
C877 H861 0.959 . S
C877 H862 0.959 . S
C877 H863 0.961 . S
C877 C876 1.502 . S
C878 H864 0.960 . S
C878 H865 0.961 . S
C878 H866 0.959 . S
C878 C876 1.561 . S
C879 C876 1.526 . S
C879 C880 1.396 . S
C879 C884 1.390 . S
C880 C874 1.465 . S
C880 C879 1.396 . S
C880 C881 1.399 . S
C881 H867 0.929 . S
C881 C880 1.399 . S
C881 C882 1.385 . S
C882 H868 0.931 . S
C882 C881 1.385 . S
C882 C883 1.389 . S
C883 C882 1.389 . S
C883 C884 1.387 . S
C884 H869 0.930 . S
C884 C879 1.390 . S
C884 C883 1.387 . S
H885 C897 0.930 . S
H886 C899 0.930 . S
H887 C900 0.930 . S
H888 C904 0.959 . S
H889 C904 0.959 . S
H890 C904 0.961 . S
H891 C905 0.960 . S
H892 C905 0.961 . S
H893 C905 0.959 . S
H894 C908 0.929 . S
H895 C909 0.931 . S
H896 C911 0.930 . S
C897 H885 0.930 . S
C897 C898 1.399 . S
C897 C902 1.399 . S
C898 C897 1.399 . S
C898 C899 1.376 . S
C899 H886 0.930 . S
C899 C898 1.376 . S
C899 C900 1.388 . S
C900 H887 0.930 . S
C900 C899 1.388 . S
C900 C901 1.390 . S
C901 C900 1.390 . S
C901 C902 1.394 . S
C901 C907 1.465 . S
C902 C897 1.399 . S
C902 C901 1.394 . S
C902 C903 1.516 . S
C903 C902 1.516 . S
C903 C904 1.502 . S
C903 C905 1.561 . S
C903 C906 1.526 . S
C904 H888 0.959 . S
C904 H889 0.959 . S
C904 H890 0.961 . S
C904 C903 1.502 . S
C905 H891 0.960 . S
C905 H892 0.961 . S
C905 H893 0.959 . S
C905 C903 1.561 . S
C906 C903 1.526 . S
C906 C907 1.396 . S
C906 C911 1.390 . S
C907 C901 1.465 . S
C907 C906 1.396 . S
C907 C908 1.399 . S
C908 H894 0.929 . S
C908 C907 1.399 . S
C908 C909 1.385 . S
C909 H895 0.931 . S
C909 C908 1.385 . S
C909 C910 1.389 . S
C910 C909 1.389 . S
C910 C911 1.387 . S
C911 H896 0.930 . S
C911 C906 1.390 . S
C911 C910 1.387 . S
C277 C9 1.414 . S
C289 C121 1.436 . S
C304 C21 1.076 . S
C316 C161 1.076 . S
C343 C186 2.097 . S
C331 C30 2.120 . S
C358 C43 2.174 . S
C370 C226 2.293 . S
C397 C157 1.600 . S
C385 C4 1.391 . S
C424 C117 2.212 . S
C412 C22 2.170 . S
C451 C248 1.382 . S
C439 C34 1.387 . S
C478 C208 1.541 . S
C466 C48 1.590 . S
C493 C8 1.425 . S
C505 C250 1.366 . S
C532 C167 2.077 . S
C520 C35 2.131 . S
C547 C47 2.372 . S
C559 C127 2.294 . S
C574 C17 1.173 . S
C586 C210 1.269 . S
C613 C130 0.959 . S
C601 C60 0.942 . S
C628 C74 1.143 . S
C640 C170 1.117 . S
C655 C82 1.832 . S
C667 C207 1.877 . S
C682 C100 2.829 . S
C694 C247 2.734 . S
C709 C61 1.937 . S
C721 C168 1.976 . S
C748 C128 1.602 . S
C736 C73 1.497 . S
C775 C237 1.851 . S
C763 C87 1.896 . S
C802 C197 1.491 . S
C790 C95 1.495 . S
C817 C56 1.253 . S
C829 C241 1.231 . S
C856 C146 2.296 . S
C844 C86 2.329 . S
C883 C106 2.250 . S
C871 C99 2.288 . S
C898 C69 0.986 . S
C910 C201 1.167 . S
